# Generated by pormake.
# Topology wga, (5)-cn, num edge types: 1
# Building blocks:
#     Node 0, Type 0, BuildingBlock: XOMCOT_clean_sbu_1, # of connection points: 5
#     Node 1, Type 0, BuildingBlock: XOMCOT_clean_sbu_1, # of connection points: 5
#     Node 2, Type 0, BuildingBlock: XOMCOT_clean_sbu_1, # of connection points: 5
#     Node 3, Type 0, BuildingBlock: XOMCOT_clean_sbu_1, # of connection points: 5
#     Node 4, Type 0, BuildingBlock: XOMCOT_clean_sbu_1, # of connection points: 5
#     Node 5, Type 0, BuildingBlock: XOMCOT_clean_sbu_1, # of connection points: 5
#     Node 6, Type 0, BuildingBlock: XOMCOT_clean_sbu_1, # of connection points: 5
#     Node 7, Type 0, BuildingBlock: XOMCOT_clean_sbu_1, # of connection points: 5
#     Node 8, Type 0, BuildingBlock: XOMCOT_clean_sbu_1, # of connection points: 5
#     Node 9, Type 0, BuildingBlock: XOMCOT_clean_sbu_1, # of connection points: 5
#     Node 10, Type 0, BuildingBlock: XOMCOT_clean_sbu_1, # of connection points: 5
#     Node 11, Type 0, BuildingBlock: XOMCOT_clean_sbu_1, # of connection points: 5
#     Node 12, Type 0, BuildingBlock: XOMCOT_clean_sbu_1, # of connection points: 5
#     Node 13, Type 0, BuildingBlock: XOMCOT_clean_sbu_1, # of connection points: 5
#     Node 14, Type 0, BuildingBlock: XOMCOT_clean_sbu_1, # of connection points: 5
#     Node 15, Type 0, BuildingBlock: XOMCOT_clean_sbu_1, # of connection points: 5
#     Node 16, Type 0, BuildingBlock: XOMCOT_clean_sbu_1, # of connection points: 5
#     Node 17, Type 0, BuildingBlock: XOMCOT_clean_sbu_1, # of connection points: 5
#     Node 18, Type 0, BuildingBlock: XOMCOT_clean_sbu_1, # of connection points: 5
#     Node 19, Type 0, BuildingBlock: XOMCOT_clean_sbu_1, # of connection points: 5
#     Node 20, Type 0, BuildingBlock: XOMCOT_clean_sbu_1, # of connection points: 5
#     Node 21, Type 0, BuildingBlock: XOMCOT_clean_sbu_1, # of connection points: 5
#     Node 22, Type 0, BuildingBlock: XOMCOT_clean_sbu_1, # of connection points: 5
#     Node 23, Type 0, BuildingBlock: XOMCOT_clean_sbu_1, # of connection points: 5
#     Node 24, Type 0, BuildingBlock: XOMCOT_clean_sbu_1, # of connection points: 5
#     Node 25, Type 0, BuildingBlock: XOMCOT_clean_sbu_1, # of connection points: 5
#     Node 26, Type 0, BuildingBlock: XOMCOT_clean_sbu_1, # of connection points: 5
#     Node 27, Type 0, BuildingBlock: XOMCOT_clean_sbu_1, # of connection points: 5
#     Node 28, Type 0, BuildingBlock: XOMCOT_clean_sbu_1, # of connection points: 5
#     Node 29, Type 0, BuildingBlock: XOMCOT_clean_sbu_1, # of connection points: 5
#     Node 30, Type 0, BuildingBlock: XOMCOT_clean_sbu_1, # of connection points: 5
#     Node 31, Type 0, BuildingBlock: XOMCOT_clean_sbu_1, # of connection points: 5
#     Edge 32, Type (0, 0), BuildingBlock: KIFKEQ_clean_linker_1, # of connection points: 2
#     Edge 33, Type (0, 0), BuildingBlock: KIFKEQ_clean_linker_1, # of connection points: 2
#     Edge 34, Type (0, 0), BuildingBlock: KIFKEQ_clean_linker_1, # of connection points: 2
#     Edge 35, Type (0, 0), BuildingBlock: KIFKEQ_clean_linker_1, # of connection points: 2
#     Edge 36, Type (0, 0), BuildingBlock: KIFKEQ_clean_linker_1, # of connection points: 2
#     Edge 37, Type (0, 0), BuildingBlock: KIFKEQ_clean_linker_1, # of connection points: 2
#     Edge 38, Type (0, 0), BuildingBlock: KIFKEQ_clean_linker_1, # of connection points: 2
#     Edge 39, Type (0, 0), BuildingBlock: KIFKEQ_clean_linker_1, # of connection points: 2
#     Edge 40, Type (0, 0), BuildingBlock: KIFKEQ_clean_linker_1, # of connection points: 2
#     Edge 41, Type (0, 0), BuildingBlock: KIFKEQ_clean_linker_1, # of connection points: 2
#     Edge 42, Type (0, 0), BuildingBlock: KIFKEQ_clean_linker_1, # of connection points: 2
#     Edge 43, Type (0, 0), BuildingBlock: KIFKEQ_clean_linker_1, # of connection points: 2
#     Edge 44, Type (0, 0), BuildingBlock: KIFKEQ_clean_linker_1, # of connection points: 2
#     Edge 45, Type (0, 0), BuildingBlock: KIFKEQ_clean_linker_1, # of connection points: 2
#     Edge 46, Type (0, 0), BuildingBlock: KIFKEQ_clean_linker_1, # of connection points: 2
#     Edge 47, Type (0, 0), BuildingBlock: KIFKEQ_clean_linker_1, # of connection points: 2
#     Edge 48, Type (0, 0), BuildingBlock: KIFKEQ_clean_linker_1, # of connection points: 2
#     Edge 49, Type (0, 0), BuildingBlock: KIFKEQ_clean_linker_1, # of connection points: 2
#     Edge 50, Type (0, 0), BuildingBlock: KIFKEQ_clean_linker_1, # of connection points: 2
#     Edge 51, Type (0, 0), BuildingBlock: KIFKEQ_clean_linker_1, # of connection points: 2
#     Edge 52, Type (0, 0), BuildingBlock: KIFKEQ_clean_linker_1, # of connection points: 2
#     Edge 53, Type (0, 0), BuildingBlock: KIFKEQ_clean_linker_1, # of connection points: 2
#     Edge 54, Type (0, 0), BuildingBlock: KIFKEQ_clean_linker_1, # of connection points: 2
#     Edge 55, Type (0, 0), BuildingBlock: KIFKEQ_clean_linker_1, # of connection points: 2
#     Edge 56, Type (0, 0), BuildingBlock: KIFKEQ_clean_linker_1, # of connection points: 2
#     Edge 57, Type (0, 0), BuildingBlock: KIFKEQ_clean_linker_1, # of connection points: 2
#     Edge 58, Type (0, 0), BuildingBlock: KIFKEQ_clean_linker_1, # of connection points: 2
#     Edge 59, Type (0, 0), BuildingBlock: KIFKEQ_clean_linker_1, # of connection points: 2
#     Edge 60, Type (0, 0), BuildingBlock: KIFKEQ_clean_linker_1, # of connection points: 2
#     Edge 61, Type (0, 0), BuildingBlock: KIFKEQ_clean_linker_1, # of connection points: 2
#     Edge 62, Type (0, 0), BuildingBlock: KIFKEQ_clean_linker_1, # of connection points: 2
#     Edge 63, Type (0, 0), BuildingBlock: KIFKEQ_clean_linker_1, # of connection points: 2
#     Edge 64, Type (0, 0), BuildingBlock: KIFKEQ_clean_linker_1, # of connection points: 2
#     Edge 65, Type (0, 0), BuildingBlock: KIFKEQ_clean_linker_1, # of connection points: 2
#     Edge 66, Type (0, 0), BuildingBlock: KIFKEQ_clean_linker_1, # of connection points: 2
#     Edge 67, Type (0, 0), BuildingBlock: KIFKEQ_clean_linker_1, # of connection points: 2
#     Edge 68, Type (0, 0), BuildingBlock: KIFKEQ_clean_linker_1, # of connection points: 2
#     Edge 69, Type (0, 0), BuildingBlock: KIFKEQ_clean_linker_1, # of connection points: 2
#     Edge 70, Type (0, 0), BuildingBlock: KIFKEQ_clean_linker_1, # of connection points: 2
#     Edge 71, Type (0, 0), BuildingBlock: KIFKEQ_clean_linker_1, # of connection points: 2
#     Edge 72, Type (0, 0), BuildingBlock: KIFKEQ_clean_linker_1, # of connection points: 2
#     Edge 73, Type (0, 0), BuildingBlock: KIFKEQ_clean_linker_1, # of connection points: 2
#     Edge 74, Type (0, 0), BuildingBlock: KIFKEQ_clean_linker_1, # of connection points: 2
#     Edge 75, Type (0, 0), BuildingBlock: KIFKEQ_clean_linker_1, # of connection points: 2
#     Edge 76, Type (0, 0), BuildingBlock: KIFKEQ_clean_linker_1, # of connection points: 2
#     Edge 77, Type (0, 0), BuildingBlock: KIFKEQ_clean_linker_1, # of connection points: 2
#     Edge 78, Type (0, 0), BuildingBlock: KIFKEQ_clean_linker_1, # of connection points: 2
#     Edge 79, Type (0, 0), BuildingBlock: KIFKEQ_clean_linker_1, # of connection points: 2
#     Edge 80, Type (0, 0), BuildingBlock: KIFKEQ_clean_linker_1, # of connection points: 2
#     Edge 81, Type (0, 0), BuildingBlock: KIFKEQ_clean_linker_1, # of connection points: 2
#     Edge 82, Type (0, 0), BuildingBlock: KIFKEQ_clean_linker_1, # of connection points: 2
#     Edge 83, Type (0, 0), BuildingBlock: KIFKEQ_clean_linker_1, # of connection points: 2
#     Edge 84, Type (0, 0), BuildingBlock: KIFKEQ_clean_linker_1, # of connection points: 2
#     Edge 85, Type (0, 0), BuildingBlock: KIFKEQ_clean_linker_1, # of connection points: 2
#     Edge 86, Type (0, 0), BuildingBlock: KIFKEQ_clean_linker_1, # of connection points: 2
#     Edge 87, Type (0, 0), BuildingBlock: KIFKEQ_clean_linker_1, # of connection points: 2
#     Edge 88, Type (0, 0), BuildingBlock: KIFKEQ_clean_linker_1, # of connection points: 2
#     Edge 89, Type (0, 0), BuildingBlock: KIFKEQ_clean_linker_1, # of connection points: 2
#     Edge 90, Type (0, 0), BuildingBlock: KIFKEQ_clean_linker_1, # of connection points: 2
#     Edge 91, Type (0, 0), BuildingBlock: KIFKEQ_clean_linker_1, # of connection points: 2
#     Edge 92, Type (0, 0), BuildingBlock: KIFKEQ_clean_linker_1, # of connection points: 2
#     Edge 93, Type (0, 0), BuildingBlock: KIFKEQ_clean_linker_1, # of connection points: 2
#     Edge 94, Type (0, 0), BuildingBlock: KIFKEQ_clean_linker_1, # of connection points: 2
#     Edge 95, Type (0, 0), BuildingBlock: KIFKEQ_clean_linker_1, # of connection points: 2
#     Edge 96, Type (0, 0), BuildingBlock: KIFKEQ_clean_linker_1, # of connection points: 2
#     Edge 97, Type (0, 0), BuildingBlock: KIFKEQ_clean_linker_1, # of connection points: 2
#     Edge 98, Type (0, 0), BuildingBlock: KIFKEQ_clean_linker_1, # of connection points: 2
#     Edge 99, Type (0, 0), BuildingBlock: KIFKEQ_clean_linker_1, # of connection points: 2
#     Edge 100, Type (0, 0), BuildingBlock: KIFKEQ_clean_linker_1, # of connection points: 2
#     Edge 101, Type (0, 0), BuildingBlock: KIFKEQ_clean_linker_1, # of connection points: 2
#     Edge 102, Type (0, 0), BuildingBlock: KIFKEQ_clean_linker_1, # of connection points: 2
#     Edge 103, Type (0, 0), BuildingBlock: KIFKEQ_clean_linker_1, # of connection points: 2
#     Edge 104, Type (0, 0), BuildingBlock: KIFKEQ_clean_linker_1, # of connection points: 2
#     Edge 105, Type (0, 0), BuildingBlock: KIFKEQ_clean_linker_1, # of connection points: 2
#     Edge 106, Type (0, 0), BuildingBlock: KIFKEQ_clean_linker_1, # of connection points: 2
#     Edge 107, Type (0, 0), BuildingBlock: KIFKEQ_clean_linker_1, # of connection points: 2
#     Edge 108, Type (0, 0), BuildingBlock: KIFKEQ_clean_linker_1, # of connection points: 2
#     Edge 109, Type (0, 0), BuildingBlock: KIFKEQ_clean_linker_1, # of connection points: 2
#     Edge 110, Type (0, 0), BuildingBlock: KIFKEQ_clean_linker_1, # of connection points: 2
#     Edge 111, Type (0, 0), BuildingBlock: KIFKEQ_clean_linker_1, # of connection points: 2
# Relax obj value: 0.099
# Max RMSD: 0.109
# Mean RMSD: 0.109
data_MOF--net-wga--node1-XOMCOT_clean_sbu_1--edge1-KIFKEQ_clean_linker_1
_symmetry_space_group_name_H-M    P1
_symmetry_Int_Tables_number       1
_symmetry_cell_setting            triclinic
loop_
_symmetry_equiv_pos_as_xyz
'x, y, z'
_cell_length_a     110.38562
_cell_length_b     110.32923
_cell_length_c     17.856332
_cell_angle_alpha  89.954816
_cell_angle_beta   90.130403
_cell_angle_gamma 90.019941
loop_
_atom_site_label
_atom_site_type_symbol
_atom_site_fract_x
_atom_site_fract_y
_atom_site_fract_z
_atom_type_partial_charge
C0 C 0.07803 0.5792 0.0422 0.0
C1 C 0.07698 0.58018 0.96566 0.0
N2 N 0.08321 0.57101 0.93405 0.0
N3 N 0.08479 0.56941 0.05899 0.0
C4 C 0.08792 0.56465 0.992 0.0
H5 H 0.07408 0.58521 0.08324 0.0
Co6 Co 0.08834 0.56444 0.15601 0.0
C7 C 0.08948 0.53777 0.15113 0.0
O8 O 0.08324 0.53775 0.21376 0.0
N9 N 0.09235 0.55971 0.25578 0.0
C10 C 0.10352 0.55223 0.34936 0.0
C11 C 0.10253 0.55347 0.27307 0.0
C12 C 0.08751 0.56244 0.3235 0.0
N13 N 0.09407 0.55791 0.38116 0.0
O14 O 0.10484 0.56959 0.14155 0.0
H15 H 0.10901 0.55021 0.23249 0.0
H16 H 0.07948 0.56782 0.33146 0.0
O17 O 0.09222 0.5479 0.12024 0.0
C18 C 0.10746 0.57941 0.17555 0.0
O19 O 0.09917 0.58444 0.21816 0.0
N20 N 0.07173 0.5606 0.16852 0.0
C21 C 0.04632 0.5595 0.17303 0.0
C22 C 0.05299 0.55159 0.12732 0.0
C23 C 0.06563 0.55243 0.12484 0.0
C24 C 0.06537 0.56871 0.21034 0.0
C25 C 0.05276 0.56809 0.2154 0.0
H26 H 0.07036 0.547 0.08411 0.0
H27 H 0.07004 0.57619 0.23672 0.0
H28 H 0.0934 0.55659 0.98579 0.0
H29 H 0.07215 0.5872 0.93565 0.0
H30 H 0.11088 0.54788 0.37917 0.0
H31 H 0.04848 0.54523 0.09051 0.0
H32 H 0.04812 0.57456 0.25068 0.0
C33 C 0.67263 0.82534 0.29587 0.0
C34 C 0.67192 0.82414 0.21931 0.0
N35 N 0.68021 0.83153 0.18796 0.0
N36 N 0.68144 0.83334 0.31311 0.0
C37 C 0.6858 0.83707 0.24616 0.0
H38 H 0.66701 0.82074 0.33644 0.0
Co39 Co 0.68569 0.83799 0.41003 0.0
C40 C 0.71238 0.84258 0.40624 0.0
O41 O 0.71352 0.83873 0.47554 0.0
N42 N 0.68964 0.84299 0.50906 0.0
C43 C 0.6953 0.85507 0.60295 0.0
C44 C 0.6943 0.85397 0.52655 0.0
C45 C 0.68761 0.83772 0.57657 0.0
N46 N 0.69106 0.84484 0.63452 0.0
O47 O 0.67973 0.85407 0.38872 0.0
H48 H 0.69673 0.86084 0.48604 0.0
H49 H 0.68355 0.82891 0.58385 0.0
O50 O 0.70196 0.84258 0.37454 0.0
C51 C 0.66985 0.85687 0.42123 0.0
O52 O 0.6649 0.84899 0.46712 0.0
N53 N 0.69046 0.82182 0.42988 0.0
C54 C 0.69308 0.79665 0.44754 0.0
C55 C 0.70202 0.80358 0.41131 0.0
C56 C 0.70039 0.81606 0.40123 0.0
C57 C 0.68165 0.81524 0.46444 0.0
C58 C 0.68278 0.80273 0.47427 0.0
H59 H 0.70687 0.8208 0.36715 0.0
H60 H 0.67339 0.8197 0.48185 0.0
H61 H 0.69296 0.84369 0.24016 0.0
H62 H 0.66559 0.81846 0.18907 0.0
H63 H 0.69855 0.86295 0.63296 0.0
H64 H 0.71012 0.79941 0.38905 0.0
H65 H 0.67536 0.79784 0.49987 0.0
C66 C 0.424 0.4213 0.54435 0.0
C67 C 0.42518 0.42052 0.46781 0.0
N68 N 0.4178 0.42878 0.43599 0.0
N69 N 0.41602 0.43012 0.5611 0.0
C70 C 0.41228 0.43442 0.49389 0.0
H71 H 0.42862 0.41573 0.58524 0.0
Co72 Co 0.41147 0.43455 0.65784 0.0
C73 C 0.40655 0.46121 0.6508 0.0
O74 O 0.41038 0.46265 0.71993 0.0
N75 N 0.4066 0.43869 0.7567 0.0
C76 C 0.39458 0.44435 0.85063 0.0
C77 C 0.39563 0.44333 0.77424 0.0
C78 C 0.4119 0.43666 0.82418 0.0
N79 N 0.40482 0.44011 0.88216 0.0
O80 O 0.39543 0.42835 0.63815 0.0
H81 H 0.38872 0.4457 0.73378 0.0
H82 H 0.42069 0.43255 0.8314 0.0
O83 O 0.40667 0.45068 0.62068 0.0
C84 C 0.39283 0.41854 0.67234 0.0
O85 O 0.40089 0.41383 0.71818 0.0
N86 N 0.42761 0.43955 0.67635 0.0
C87 C 0.45277 0.44243 0.69239 0.0
C88 C 0.4457 0.45125 0.65595 0.0
C89 C 0.43323 0.44949 0.64673 0.0
C90 C 0.43432 0.43084 0.71125 0.0
C91 C 0.44683 0.43211 0.72027 0.0
H92 H 0.42837 0.45589 0.61251 0.0
H93 H 0.42997 0.42257 0.72951 0.0
H94 H 0.40567 0.44159 0.48748 0.0
H95 H 0.43087 0.41417 0.43792 0.0
H96 H 0.38671 0.44756 0.88067 0.0
H97 H 0.44976 0.45936 0.63288 0.0
H98 H 0.45182 0.42477 0.74611 0.0
C99 C 0.83413 0.16716 0.78593 0.0
C100 C 0.83592 0.16716 0.7096 0.0
N101 N 0.82593 0.16264 0.67609 0.0
N102 N 0.82306 0.16269 0.8011 0.0
C103 C 0.8183 0.15993 0.73311 0.0
H104 H 0.84043 0.1704 0.82786 0.0
Co105 Co 0.81647 0.16173 0.89777 0.0
C106 C 0.79312 0.14946 0.86373 0.0
O107 O 0.79563 0.14053 0.90993 0.0
N108 N 0.80994 0.16089 0.99578 0.0
C109 C 0.79756 0.16371 0.09243 0.0
C110 C 0.79866 0.1643 1.01587 0.0
C111 C 0.81557 0.15845 0.06175 0.0
N112 N 0.80821 0.16006 0.1217 0.0
O113 O 0.82078 0.14483 0.90121 0.0
H114 H 0.7918 0.16759 0.97763 0.0
H115 H 0.82498 0.15588 0.06599 0.0
O116 O 0.80067 0.1581 0.85523 0.0
C117 C 0.83142 0.143 0.92674 0.0
O118 O 0.83781 0.15237 0.94909 0.0
N119 N 0.81318 0.17842 0.89502 0.0
C120 C 0.81045 0.20359 0.89546 0.0
C121 C 0.8048 0.19648 0.84036 0.0
C122 C 0.80628 0.18388 0.84114 0.0
C123 C 0.81895 0.18521 0.94794 0.0
C124 C 0.81757 0.19779 0.94984 0.0
H125 H 0.80209 0.17857 0.79745 0.0
H126 H 0.82475 0.18084 0.98869 0.0
H127 H 0.80927 0.15635 0.72525 0.0
H128 H 0.84399 0.17028 0.68118 0.0
H129 H 0.78966 0.16639 0.12414 0.0
H130 H 0.79928 0.20062 0.79713 0.0
H131 H 0.8223 0.20296 0.9924 0.0
C132 C 0.08677 0.41541 0.96287 0.0
C133 C 0.08638 0.41375 0.03928 0.0
N134 N 0.08476 0.42461 0.07233 0.0
N135 N 0.08543 0.42728 0.94717 0.0
C136 C 0.08416 0.43265 1.01498 0.0
H137 H 0.08805 0.40841 0.92134 0.0
Co138 Co 0.08574 0.43404 0.85054 0.0
C139 C 0.099 0.4564 0.89783 0.0
O140 O 0.10896 0.45306 0.86351 0.0
N141 N 0.08599 0.44073 0.75264 0.0
C142 C 0.08594 0.45347 0.65581 0.0
C143 C 0.0865 0.45252 0.73241 0.0
C144 C 0.08493 0.43472 0.68662 0.0
N145 N 0.08494 0.44227 0.62664 0.0
O146 O 0.10264 0.42986 0.84374 0.0
H147 H 0.08696 0.46012 0.77028 0.0
H148 H 0.08379 0.42501 0.68262 0.0
O149 O 0.08959 0.44969 0.89493 0.0
C150 C 0.10524 0.42 0.8103 0.0
O151 O 0.09646 0.41378 0.77875 0.0
N152 N 0.06911 0.43718 0.8565 0.0
C153 C 0.04393 0.43909 0.86442 0.0
C154 C 0.05122 0.44952 0.86294 0.0
C155 C 0.06384 0.44838 0.85919 0.0
C156 C 0.06216 0.42699 0.85599 0.0
C157 C 0.04956 0.42772 0.86068 0.0
H158 H 0.06931 0.45649 0.85801 0.0
H159 H 0.06645 0.4182 0.85215 0.0
H160 H 0.08272 0.44227 0.02218 0.0
H161 H 0.0875 0.40519 0.06811 0.0
H162 H 0.08629 0.46183 0.62416 0.0
H163 H 0.04722 0.45847 0.86565 0.0
H164 H 0.04427 0.41945 0.86032 0.0
C165 C 0.8306 0.82497 0.22669 0.0
C166 C 0.83138 0.82374 0.30322 0.0
N167 N 0.82285 0.83083 0.33473 0.0
N168 N 0.82155 0.83268 0.20966 0.0
C169 C 0.81708 0.83622 0.27668 0.0
H170 H 0.83633 0.82055 0.18595 0.0
Co171 Co 0.81709 0.83707 0.11261 0.0
C172 C 0.79043 0.84156 0.11746 0.0
O173 O 0.78922 0.83731 0.04913 0.0
N174 N 0.81296 0.84178 1.01341 0.0
C175 C 0.80712 0.85365 0.91891 0.0
C176 C 0.8082 0.85269 0.99532 0.0
C177 C 0.815 0.83642 0.94624 0.0
N178 N 0.81143 0.84342 0.88794 0.0
O179 O 0.82313 0.85318 0.13127 0.0
H180 H 0.80577 0.85961 0.03541 0.0
H181 H 0.81916 0.82765 0.93948 0.0
O182 O 0.80089 0.84179 0.14865 0.0
C183 C 0.83311 0.85565 0.09875 0.0
O184 O 0.83802 0.8474 0.0553 0.0
N185 N 0.81226 0.82085 0.09534 0.0
C186 C 0.80999 0.79566 0.08526 0.0
C187 C 0.80102 0.80259 0.1203 0.0
C188 C 0.80249 0.81515 0.12665 0.0
C189 C 0.82105 0.81417 0.0612 0.0
C190 C 0.8201 0.80158 0.05532 0.0
H191 H 0.79611 0.82001 0.16084 0.0
H192 H 0.82919 0.81862 0.04163 0.0
H193 H 0.8097 0.84258 0.28287 0.0
H194 H 0.83787 0.81823 0.33333 0.0
H195 H 0.8038 0.86146 0.88844 0.0
H196 H 0.79332 0.79825 0.14656 0.0
H197 H 0.82734 0.79649 0.02929 0.0
C198 C 0.42434 0.57832 0.45629 0.0
C199 C 0.42548 0.57919 0.53287 0.0
N200 N 0.41804 0.57098 0.56464 0.0
N201 N 0.41632 0.56953 0.43953 0.0
C202 C 0.41252 0.56531 0.50668 0.0
H203 H 0.42909 0.58375 0.4153 0.0
Co204 Co 0.41201 0.56489 0.3427 0.0
C205 C 0.40752 0.5383 0.35094 0.0
O206 O 0.41216 0.53691 0.28381 0.0
N207 N 0.40734 0.56053 0.24353 0.0
C208 C 0.39538 0.55453 0.14967 0.0
C209 C 0.39648 0.55559 0.22605 0.0
C210 C 0.41252 0.56269 0.17593 0.0
N211 N 0.40547 0.55904 0.11803 0.0
O212 O 0.39602 0.57126 0.35947 0.0
H213 H 0.38964 0.5531 0.26654 0.0
H214 H 0.42116 0.56705 0.16839 0.0
O215 O 0.40699 0.54887 0.38039 0.0
C216 C 0.39381 0.5812 0.32566 0.0
O217 O 0.40219 0.5858 0.2818 0.0
N218 N 0.42815 0.5597 0.32746 0.0
C219 C 0.45334 0.55679 0.32013 0.0
C220 C 0.44617 0.5487 0.36147 0.0
C221 C 0.43364 0.55043 0.36557 0.0
C222 C 0.43504 0.56779 0.28859 0.0
C223 C 0.44758 0.56638 0.2828 0.0
H224 H 0.42859 0.54476 0.40344 0.0
H225 H 0.43086 0.57583 0.26542 0.0
H226 H 0.40592 0.55813 0.51299 0.0
H227 H 0.43122 0.5855 0.56277 0.0
H228 H 0.38756 0.55113 0.11972 0.0
H229 H 0.45025 0.54132 0.39261 0.0
H230 H 0.45278 0.57316 0.25295 0.0
C231 C 0.67042 0.1733 0.72009 0.0
C232 C 0.66944 0.17434 0.79661 0.0
N233 N 0.67849 0.16795 0.82856 0.0
N234 N 0.6801 0.16638 0.70364 0.0
C235 C 0.68478 0.16314 0.77082 0.0
H236 H 0.66449 0.17737 0.67885 0.0
Co237 Co 0.68507 0.16275 0.60684 0.0
C238 C 0.71174 0.16122 0.61298 0.0
O239 O 0.71199 0.16743 0.55015 0.0
N240 N 0.68981 0.15866 0.5073 0.0
C241 C 0.6972 0.14741 0.41413 0.0
C242 C 0.69598 0.14844 0.49039 0.0
C243 C 0.68709 0.1635 0.43938 0.0
N244 N 0.69156 0.15689 0.38197 0.0
O245 O 0.67986 0.14625 0.62167 0.0
H246 H 0.69921 0.14194 0.5312 0.0
H247 H 0.68175 0.17155 0.43108 0.0
O248 O 0.70153 0.15875 0.64349 0.0
C249 C 0.67009 0.14357 0.58715 0.0
O250 O 0.66502 0.15185 0.5444 0.0
N251 N 0.689 0.17934 0.59359 0.0
C252 C 0.69024 0.20477 0.58596 0.0
C253 C 0.69814 0.19815 0.63248 0.0
C254 C 0.69726 0.1855 0.63632 0.0
C255 C 0.68088 0.18565 0.55128 0.0
C256 C 0.68159 0.19824 0.54449 0.0
H257 H 0.70274 0.18081 0.67717 0.0
H258 H 0.67337 0.18096 0.52552 0.0
H259 H 0.69273 0.15751 0.77732 0.0
H260 H 0.66249 0.17929 0.82636 0.0
H261 H 0.70149 0.14001 0.38461 0.0
H262 H 0.70456 0.2027 0.6687 0.0
H263 H 0.67515 0.20278 0.50835 0.0
C264 C 0.91966 0.41914 1.01454 0.0
C265 C 0.9206 0.418 0.09106 0.0
N266 N 0.91482 0.42743 0.12306 0.0
N267 N 0.91341 0.42928 0.99815 0.0
C268 C 0.91047 0.43409 0.06533 0.0
H269 H 0.92338 0.41303 0.97323 0.0
Co270 Co 0.91029 0.43459 0.90125 0.0
C271 C 0.91017 0.46121 0.90971 0.0
O272 O 0.91686 0.46116 0.84886 0.0
N273 N 0.9067 0.4397 0.80152 0.0
C274 C 0.89609 0.44788 0.70772 0.0
C275 C 0.89698 0.44661 0.78404 0.0
C276 C 0.91132 0.43656 0.73385 0.0
N277 N 0.9051 0.44151 0.67606 0.0
O278 O 0.8936 0.42984 0.91326 0.0
H279 H 0.89069 0.45028 0.82444 0.0
H280 H 0.91885 0.43051 0.72605 0.0
O281 O 0.90668 0.45113 0.9382 0.0
C282 C 0.89055 0.42042 0.87642 0.0
O283 O 0.89858 0.41534 0.83224 0.0
N284 N 0.92707 0.43809 0.89116 0.0
C285 C 0.95237 0.4398 0.88451 0.0
C286 C 0.94573 0.44709 0.93379 0.0
C287 C 0.93314 0.44592 0.93743 0.0
C288 C 0.9335 0.43034 0.84708 0.0
C289 C 0.9461 0.43128 0.84106 0.0
H290 H 0.92838 0.45099 0.97983 0.0
H291 H 0.92894 0.42293 0.81947 0.0
H292 H 0.90544 0.44244 0.07185 0.0
H293 H 0.92509 0.41072 0.12078 0.0
H294 H 0.88903 0.45268 0.67783 0.0
H295 H 0.95024 0.45352 0.97027 0.0
H296 H 0.95093 0.42499 0.80542 0.0
C297 C 0.33233 0.168 0.77184 0.0
C298 C 0.33404 0.16834 0.84822 0.0
N299 N 0.32466 0.16268 0.88145 0.0
N300 N 0.32186 0.16224 0.75643 0.0
C301 C 0.31745 0.15895 0.82444 0.0
H302 H 0.33811 0.17209 0.73007 0.0
Co303 Co 0.31526 0.16137 0.6594 0.0
C304 C 0.29174 0.14925 0.68567 0.0
O305 O 0.29386 0.14145 0.63174 0.0
N306 N 0.30873 0.16074 0.56058 0.0
C307 C 0.2967 0.16529 0.46413 0.0
C308 C 0.29776 0.16516 0.5408 0.0
C309 C 0.31418 0.15824 0.49413 0.0
N310 N 0.30704 0.16098 0.43457 0.0
O311 O 0.3197 0.14456 0.65519 0.0
H312 H 0.29117 0.16876 0.57958 0.0
H313 H 0.32347 0.15529 0.48899 0.0
O314 O 0.29956 0.15738 0.70133 0.0
C315 C 0.3303 0.14277 0.62933 0.0
O316 O 0.3366 0.15212 0.6057 0.0
N317 N 0.31176 0.178 0.66353 0.0
C318 C 0.30884 0.20311 0.66563 0.0
C319 C 0.30316 0.19581 0.71947 0.0
C320 C 0.30469 0.18322 0.71729 0.0
C321 C 0.31755 0.18499 0.61181 0.0
C322 C 0.31606 0.19755 0.61109 0.0
H323 H 0.30041 0.17772 0.7598 0.0
H324 H 0.32343 0.18078 0.57109 0.0
H325 H 0.30884 0.15445 0.83244 0.0
H326 H 0.34152 0.17265 0.87718 0.0
H327 H 0.28907 0.16872 0.43241 0.0
H328 H 0.29758 0.1998 0.76277 0.0
H329 H 0.32079 0.2029 0.56947 0.0
C330 C 0.58059 0.58659 0.4964 0.0
C331 C 0.58051 0.58853 0.57256 0.0
N332 N 0.58426 0.57833 0.60684 0.0
N333 N 0.58383 0.57503 0.48168 0.0
C334 C 0.58663 0.57049 0.55046 0.0
H335 H 0.57893 0.59344 0.45438 0.0
Co336 Co 0.58646 0.56855 0.3836 0.0
C337 C 0.58175 0.54603 0.46935 0.0
O338 O 0.57174 0.55112 0.49372 0.0
N339 N 0.58959 0.56264 0.2868 0.0
C340 C 0.59698 0.55212 0.19124 0.0
C341 C 0.59651 0.55305 0.26803 0.0
C342 C 0.58607 0.56748 0.22047 0.0
N343 N 0.59043 0.56122 0.16109 0.0
O344 O 0.60335 0.57228 0.39635 0.0
H345 H 0.60116 0.54725 0.30749 0.0
H346 H 0.58045 0.57549 0.21607 0.0
O347 O 0.58879 0.552 0.4257 0.0
C348 C 0.60657 0.58178 0.36075 0.0
O349 O 0.59855 0.58723 0.31794 0.0
N350 N 0.56959 0.56569 0.36752 0.0
C351 C 0.54464 0.5624 0.34649 0.0
C352 C 0.55279 0.55294 0.332 0.0
C353 C 0.56524 0.55483 0.3416 0.0
C354 C 0.56185 0.57525 0.37448 0.0
C355 C 0.54937 0.57375 0.36602 0.0
H356 H 0.57139 0.54746 0.32971 0.0
H357 H 0.56526 0.58419 0.38522 0.0
H358 H 0.59068 0.56172 0.55955 0.0
H359 H 0.57833 0.59697 0.60026 0.0
H360 H 0.60211 0.54547 0.16009 0.0
H361 H 0.54957 0.54408 0.31498 0.0
H362 H 0.54347 0.58149 0.37377 0.0
C363 C 0.17092 0.82612 0.23287 0.0
C364 C 0.17 0.82498 0.30936 0.0
N365 N 0.17923 0.83112 0.34123 0.0
N366 N 0.18074 0.83286 0.21633 0.0
C367 C 0.18557 0.83588 0.28346 0.0
H368 H 0.16483 0.82228 0.19173 0.0
Co369 Co 0.18557 0.83658 0.11938 0.0
C370 C 0.21228 0.83827 0.1251 0.0
O371 O 0.21259 0.83216 0.06193 0.0
N372 N 0.19017 0.84068 0.01996 0.0
C373 C 0.19747 0.85181 0.926 0.0
C374 C 0.19625 0.85094 1.00232 0.0
C375 C 0.18751 0.83566 0.95256 0.0
N376 N 0.19195 0.8422 0.89462 0.0
O377 O 0.18031 0.85304 0.13465 0.0
H378 H 0.19943 0.85752 0.04264 0.0
H379 H 0.18227 0.8275 0.94525 0.0
O380 O 0.20204 0.84068 0.15535 0.0
C381 C 0.17049 0.85567 0.10044 0.0
O382 O 0.16545 0.84738 0.05771 0.0
N383 N 0.18949 0.82001 0.10541 0.0
C384 C 0.191 0.79479 0.09304 0.0
C385 C 0.19953 0.80124 0.13529 0.0
C386 C 0.19836 0.81381 0.14301 0.0
C387 C 0.18086 0.81374 0.06676 0.0
C388 C 0.18149 0.80115 0.05922 0.0
H389 H 0.20427 0.81835 0.1821 0.0
H390 H 0.1731 0.81851 0.04426 0.0
H391 H 0.19364 0.84134 0.28993 0.0
H392 H 0.16296 0.82016 0.33919 0.0
H393 H 0.20173 0.85918 0.89587 0.0
H394 H 0.20667 0.79654 0.16522 0.0
H395 H 0.17449 0.79642 0.02831 0.0
C396 C 0.91546 0.58501 0.06297 0.0
C397 C 0.91543 0.58679 0.98661 0.0
N398 N 0.91286 0.57616 0.95298 0.0
N399 N 0.91293 0.57332 0.07795 0.0
C400 C 0.91137 0.56816 1.00976 0.0
H401 H 0.91739 0.59179 0.10503 0.0
Co402 Co 0.91271 0.56668 0.17465 0.0
C403 C 0.89998 0.54335 0.15175 0.0
O404 O 0.89271 0.54563 0.20815 0.0
N405 N 0.9128 0.56018 0.27288 0.0
C406 C 0.91661 0.54791 0.36911 0.0
C407 C 0.91681 0.54907 0.29256 0.0
C408 C 0.91039 0.56567 0.33915 0.0
N409 N 0.91257 0.55837 0.39888 0.0
O410 O 0.89596 0.57121 0.18329 0.0
H411 H 0.92004 0.54227 0.25387 0.0
H412 H 0.9073 0.57492 0.34375 0.0
O413 O 0.90813 0.55101 0.13348 0.0
C414 C 0.89414 0.58182 0.20908 0.0
O415 O 0.9035 0.58825 0.23123 0.0
N416 N 0.92925 0.56321 0.16636 0.0
C417 C 0.95443 0.56131 0.16127 0.0
C418 C 0.94708 0.55177 0.13589 0.0
C419 C 0.93445 0.55295 0.13803 0.0
C420 C 0.93626 0.57251 0.19164 0.0
C421 C 0.94887 0.57179 0.18915 0.0
H422 H 0.92896 0.54559 0.11719 0.0
H423 H 0.93197 0.58056 0.21367 0.0
H424 H 0.90951 0.55866 1.00153 0.0
H425 H 0.91715 0.59529 0.95822 0.0
H426 H 0.91969 0.54008 0.40029 0.0
H427 H 0.95106 0.54358 0.11348 0.0
H428 H 0.95423 0.57931 0.20976 0.0
C429 C 0.16667 0.17129 0.81591 0.0
C430 C 0.16529 0.17196 0.73942 0.0
N431 N 0.17544 0.16767 0.70705 0.0
N432 N 0.17764 0.16661 0.83187 0.0
C433 C 0.18278 0.16446 0.76449 0.0
H434 H 0.16011 0.17402 0.85751 0.0
Co435 Co 0.18309 0.16375 0.92869 0.0
C436 C 0.2097 0.16369 0.91946 0.0
O437 O 0.20974 0.17064 0.97926 0.0
N438 N 0.18834 0.1604 0.02841 0.0
C439 C 0.19633 0.1497 0.12236 0.0
C440 C 0.19504 0.15055 0.04608 0.0
C441 C 0.18547 0.16525 0.09594 0.0
N442 N 0.19027 0.15896 0.15403 0.0
O443 O 0.17845 0.14702 0.91784 0.0
H444 H 0.19847 0.14409 1.00585 0.0
H445 H 0.1797 0.173 0.10333 0.0
O446 O 0.19959 0.16013 0.89171 0.0
C447 C 0.16887 0.14408 0.95328 0.0
O448 O 0.16368 0.15223 0.99616 0.0
N449 N 0.18643 0.18056 0.93752 0.0
C450 C 0.18751 0.206 0.9423 0.0
C451 C 0.19499 0.19936 0.89374 0.0
C452 C 0.19416 0.18671 0.89122 0.0
C453 C 0.17852 0.1869 0.98088 0.0
C454 C 0.17918 0.19952 0.98625 0.0
H455 H 0.19935 0.18197 0.84932 0.0
H456 H 0.17126 0.18221 1.00901 0.0
H457 H 0.19163 0.16042 0.75754 0.0
H458 H 0.15745 0.17546 0.71 0.0
H459 H 0.20091 0.14248 0.15208 0.0
H460 H 0.20109 0.20388 0.85539 0.0
H461 H 0.17299 0.20411 0.02359 0.0
C462 C 0.57572 0.42121 0.56487 0.0
C463 C 0.57461 0.42027 0.48838 0.0
N464 N 0.58054 0.42964 0.45647 0.0
N465 N 0.58227 0.43114 0.58151 0.0
C466 C 0.58514 0.43607 0.51451 0.0
H467 H 0.5721 0.41499 0.60598 0.0
Co468 Co 0.58633 0.43569 0.67839 0.0
C469 C 0.58892 0.46225 0.67777 0.0
O470 O 0.58326 0.46222 0.74247 0.0
N471 N 0.59087 0.4399 0.77813 0.0
C472 C 0.60301 0.446 0.87077 0.0
C473 C 0.60166 0.44509 0.7946 0.0
C474 C 0.58593 0.43759 0.84623 0.0
N475 N 0.59312 0.44126 0.90336 0.0
O476 O 0.60257 0.42989 0.66139 0.0
H477 H 0.60826 0.4479 0.75345 0.0
H478 H 0.57752 0.43285 0.85483 0.0
O479 O 0.59079 0.4522 0.64366 0.0
C480 C 0.60496 0.41991 0.69438 0.0
O481 O 0.59657 0.41497 0.73672 0.0
N482 N 0.56994 0.44024 0.69333 0.0
C483 C 0.54474 0.44282 0.70128 0.0
C484 C 0.55165 0.45043 0.65524 0.0
C485 C 0.5642 0.4489 0.65125 0.0
C486 C 0.56324 0.43238 0.73525 0.0
C487 C 0.55069 0.43374 0.74199 0.0
H488 H 0.56912 0.45424 0.61084 0.0
H489 H 0.56755 0.42459 0.76043 0.0
H490 H 0.5905 0.44421 0.50854 0.0
H491 H 0.57003 0.41304 0.45879 0.0
H492 H 0.61074 0.4498 0.89984 0.0
H493 H 0.54733 0.4573 0.62096 0.0
H494 H 0.54561 0.42731 0.77539 0.0
C495 C 0.33494 0.83717 0.29617 0.0
C496 C 0.33665 0.83713 0.2198 0.0
N497 N 0.32575 0.83796 0.18574 0.0
N498 N 0.32302 0.83805 0.31097 0.0
C499 C 0.31766 0.83844 0.24269 0.0
H500 H 0.34194 0.8364 0.33828 0.0
Co501 Co 0.31625 0.83806 0.40727 0.0
C502 C 0.29296 0.85087 0.38165 0.0
O503 O 0.29496 0.85809 0.43884 0.0
N504 N 0.30962 0.83777 0.50509 0.0
C505 C 0.29724 0.83395 0.60066 0.0
C506 C 0.29827 0.83438 0.52408 0.0
C507 C 0.31535 0.83922 0.57182 0.0
N508 N 0.30801 0.83696 0.6309 0.0
O509 O 0.3207 0.85485 0.4177 0.0
H510 H 0.29118 0.832 0.48497 0.0
H511 H 0.32487 0.84131 0.57734 0.0
O512 O 0.30068 0.84272 0.36467 0.0
C513 C 0.33113 0.85688 0.44584 0.0
O514 O 0.33764 0.84764 0.46898 0.0
N515 N 0.3128 0.82151 0.39747 0.0
C516 C 0.31055 0.79634 0.39396 0.0
C517 C 0.30067 0.80378 0.37572 0.0
C518 C 0.30201 0.8164 0.37689 0.0
C519 C 0.32248 0.81441 0.41516 0.0
C520 C 0.32159 0.8018 0.41311 0.0
H521 H 0.2943 0.82194 0.36239 0.0
H522 H 0.33093 0.81862 0.43145 0.0
H523 H 0.308 0.83897 0.23496 0.0
H524 H 0.34531 0.83629 0.19201 0.0
H525 H 0.2892 0.83148 0.63163 0.0
H526 H 0.29202 0.79986 0.36018 0.0
H527 H 0.3294 0.79635 0.428 0.0
C528 C 0.57878 0.07902 0.53873 0.0
C529 C 0.5777 0.08001 0.46221 0.0
N530 N 0.58413 0.071 0.43042 0.0
N531 N 0.58577 0.06938 0.55532 0.0
C532 C 0.589 0.06473 0.48824 0.0
H533 H 0.57468 0.08491 0.5799 0.0
Co534 Co 0.58935 0.06443 0.65231 0.0
C535 C 0.5914 0.0378 0.64682 0.0
O536 O 0.58513 0.03751 0.70932 0.0
N537 N 0.59338 0.05974 0.75212 0.0
C538 C 0.60467 0.05256 0.846 0.0
C539 C 0.60371 0.05379 0.7697 0.0
C540 C 0.58841 0.06234 0.81969 0.0
N541 N 0.59505 0.05799 0.87753 0.0
O542 O 0.60574 0.07005 0.63892 0.0
H543 H 0.61033 0.05072 0.72933 0.0
H544 H 0.58026 0.06753 0.8274 0.0
O545 O 0.59378 0.04803 0.61609 0.0
C546 C 0.60814 0.07987 0.67362 0.0
O547 O 0.59969 0.08472 0.71582 0.0
N548 N 0.57284 0.06006 0.66385 0.0
C549 C 0.54755 0.05799 0.66707 0.0
C550 C 0.5545 0.05045 0.62091 0.0
C551 C 0.5671 0.05174 0.61927 0.0
C552 C 0.56612 0.06787 0.70585 0.0
C553 C 0.55352 0.06676 0.71019 0.0
H554 H 0.57209 0.0465 0.57873 0.0
H555 H 0.57046 0.0755 0.73261 0.0
H556 H 0.59466 0.05679 0.48186 0.0
H557 H 0.57268 0.08692 0.43235 0.0
H558 H 0.61213 0.04843 0.87602 0.0
H559 H 0.55019 0.04383 0.58482 0.0
H560 H 0.54844 0.07316 0.74368 0.0
C561 C 0.17017 0.32799 0.78387 0.0
C562 C 0.16948 0.32677 0.70737 0.0
N563 N 0.17832 0.33353 0.67634 0.0
N564 N 0.17947 0.33537 0.80133 0.0
C565 C 0.1842 0.33872 0.73464 0.0
H566 H 0.16419 0.32383 0.82432 0.0
Co567 Co 0.18369 0.33973 0.89847 0.0
C568 C 0.21038 0.34216 0.90076 0.0
O569 O 0.21038 0.33685 0.96667 0.0
N570 N 0.18763 0.34448 0.99802 0.0
C571 C 0.19409 0.35623 0.09151 0.0
C572 C 0.19298 0.35516 1.0152 0.0
C573 C 0.18532 0.33937 0.06565 0.0
N574 N 0.18925 0.3463 0.1233 0.0
O575 O 0.17844 0.35604 0.87754 0.0
H576 H 0.19585 0.36182 0.9745 0.0
H577 H 0.18081 0.3308 0.07331 0.0
O578 O 0.20034 0.34371 0.86576 0.0
C579 C 0.16847 0.35888 0.90883 0.0
O580 O 0.16321 0.35089 0.95272 0.0
N581 N 0.18765 0.32332 0.91761 0.0
C582 C 0.18864 0.29807 0.93158 0.0
C583 C 0.19775 0.30439 0.89335 0.0
C584 C 0.19689 0.31698 0.88499 0.0
C585 C 0.17862 0.31723 0.95364 0.0
C586 C 0.17898 0.30465 0.96191 0.0
H587 H 0.2033 0.3214 0.84863 0.0
H588 H 0.17076 0.32215 0.97313 0.0
H589 H 0.19182 0.34482 0.72891 0.0
H590 H 0.1628 0.32153 0.6769 0.0
H591 H 0.19787 0.36389 0.1213 0.0
H592 H 0.20509 0.29956 0.86644 0.0
H593 H 0.17162 0.30008 0.9903 0.0
C594 C 0.92414 0.91961 0.07166 0.0
C595 C 0.92499 0.91842 0.9952 0.0
N596 N 0.91913 0.9278 0.96299 0.0
N597 N 0.91781 0.9297 0.0878 0.0
C598 C 0.91485 0.93451 0.02054 0.0
H599 H 0.9278 0.91345 0.1131 0.0
Co600 Co 0.91388 0.93439 0.18445 0.0
C601 C 0.91186 0.96099 0.18321 0.0
O602 O 0.91748 0.96092 0.24816 0.0
N603 N 0.90946 0.93878 0.2841 0.0
C604 C 0.89763 0.94519 0.37712 0.0
C605 C 0.89875 0.94405 0.3009 0.0
C606 C 0.91459 0.93666 0.35201 0.0
N607 N 0.9076 0.94051 0.40954 0.0
O608 O 0.89751 0.92898 0.16698 0.0
H609 H 0.89202 0.94674 0.26001 0.0
H610 H 0.92318 0.93224 0.36002 0.0
O611 O 0.90984 0.95096 0.14921 0.0
C612 C 0.89501 0.91901 0.1998 0.0
O613 O 0.90331 0.91401 0.24268 0.0
N614 N 0.93035 0.93848 0.19993 0.0
C615 C 0.95572 0.93999 0.21006 0.0
C616 C 0.9491 0.94806 0.16478 0.0
C617 C 0.93648 0.94705 0.15964 0.0
C618 C 0.93667 0.9302 0.24103 0.0
C619 C 0.94923 0.93103 0.24905 0.0
H620 H 0.93182 0.95272 0.11963 0.0
H621 H 0.93197 0.92257 0.26547 0.0
H622 H 0.90937 0.94257 1.01379 0.0
H623 H 0.92961 0.91123 0.96568 0.0
H624 H 0.88984 0.94879 0.40622 0.0
H625 H 0.95364 0.95475 0.13042 0.0
H626 H 0.95378 0.92446 0.28426 0.0
C627 C 0.32992 0.67518 0.2886 0.0
C628 C 0.33087 0.6763 0.21207 0.0
N629 N 0.32239 0.66919 0.17996 0.0
N630 N 0.32083 0.66749 0.30494 0.0
C631 C 0.31648 0.66388 0.23764 0.0
H632 H 0.33546 0.67975 0.32989 0.0
Co633 Co 0.31596 0.66352 0.40168 0.0
C634 C 0.28939 0.65957 0.39273 0.0
O635 O 0.28811 0.66472 0.45854 0.0
N636 N 0.31139 0.65915 0.501 0.0
C637 C 0.30501 0.64742 0.59484 0.0
C638 C 0.30614 0.64845 0.5185 0.0
C639 C 0.31368 0.6643 0.56862 0.0
N640 N 0.3098 0.65739 0.62647 0.0
O641 O 0.32215 0.64739 0.38699 0.0
H642 H 0.3035 0.64164 0.47807 0.0
H643 H 0.31833 0.67279 0.5763 0.0
O644 O 0.29994 0.65855 0.36362 0.0
C645 C 0.33195 0.64495 0.42175 0.0
O646 O 0.33667 0.65325 0.46582 0.0
N647 N 0.31089 0.67979 0.41444 0.0
C648 C 0.30806 0.705 0.41646 0.0
C649 C 0.30045 0.69772 0.37254 0.0
C650 C 0.3021 0.68516 0.37158 0.0
C651 C 0.31862 0.68683 0.45526 0.0
C652 C 0.31716 0.6994 0.45887 0.0
H653 H 0.29682 0.67996 0.33217 0.0
H654 H 0.32647 0.68276 0.48142 0.0
H655 H 0.30902 0.65761 0.23101 0.0
H656 H 0.33739 0.68182 0.18243 0.0
H657 H 0.30139 0.6397 0.62479 0.0
H658 H 0.29355 0.70175 0.33718 0.0
H659 H 0.32356 0.70475 0.49086 0.0
C660 C 0.58453 0.91518 0.47165 0.0
C661 C 0.58445 0.91344 0.54804 0.0
N662 N 0.58712 0.92405 0.58155 0.0
N663 N 0.58719 0.92685 0.45657 0.0
C664 C 0.58876 0.93202 0.52477 0.0
H665 H 0.58267 0.90837 0.42963 0.0
Co666 Co 0.58785 0.93348 0.35979 0.0
C667 C 0.60075 0.95648 0.39378 0.0
O668 O 0.60954 0.95379 0.34714 0.0
N669 N 0.58832 0.94004 0.26187 0.0
C670 C 0.58593 0.95264 0.1656 0.0
C671 C 0.58563 0.95154 0.24214 0.0
C672 C 0.59007 0.93429 0.19561 0.0
N673 N 0.58873 0.94178 0.13581 0.0
O674 O 0.60469 0.92906 0.35465 0.0
H675 H 0.58316 0.95867 0.28057 0.0
H676 H 0.59205 0.92474 0.1912 0.0
O677 O 0.59193 0.94914 0.40242 0.0
C678 C 0.60667 0.91851 0.32842 0.0
O679 O 0.59742 0.91208 0.30434 0.0
N680 N 0.57122 0.93678 0.36431 0.0
C681 C 0.546 0.93833 0.36823 0.0
C682 C 0.55318 0.94847 0.38503 0.0
C683 C 0.56582 0.94749 0.38343 0.0
C684 C 0.56436 0.92694 0.34626 0.0
C685 C 0.55174 0.92747 0.34861 0.0
H686 H 0.57115 0.95537 0.39734 0.0
H687 H 0.56878 0.91858 0.33048 0.0
H688 H 0.59082 0.94151 0.53306 0.0
H689 H 0.58265 0.90497 0.5766 0.0
H690 H 0.58374 0.96077 0.13452 0.0
H691 H 0.54905 0.95701 0.40061 0.0
H692 H 0.54651 0.91948 0.33446 0.0
C693 C 0.33335 0.33146 0.74985 0.0
C694 C 0.33499 0.33111 0.82627 0.0
N695 N 0.32486 0.33529 0.85925 0.0
N696 N 0.3222 0.33574 0.73421 0.0
C697 C 0.31725 0.3381 0.80222 0.0
H698 H 0.33976 0.32842 0.70816 0.0
Co699 Co 0.31576 0.33616 0.63678 0.0
C700 C 0.29281 0.34943 0.66143 0.0
O701 O 0.29556 0.35735 0.60915 0.0
N702 N 0.30941 0.33627 0.538 0.0
C703 C 0.29727 0.33198 0.44166 0.0
C704 C 0.29827 0.33228 0.51835 0.0
C705 C 0.31501 0.33838 0.47156 0.0
N706 N 0.30779 0.33581 0.41213 0.0
O707 O 0.32057 0.35286 0.62851 0.0
H708 H 0.2914 0.32927 0.55724 0.0
H709 H 0.32438 0.34108 0.4664 0.0
O710 O 0.30015 0.34085 0.67675 0.0
C711 C 0.33123 0.35444 0.60297 0.0
O712 O 0.33751 0.34491 0.58212 0.0
N713 N 0.31203 0.31963 0.64465 0.0
C714 C 0.30986 0.29447 0.65392 0.0
C715 C 0.30053 0.30202 0.67948 0.0
C716 C 0.30184 0.31462 0.67517 0.0
C717 C 0.32108 0.31242 0.61842 0.0
C718 C 0.32024 0.29981 0.62305 0.0
H719 H 0.29465 0.32023 0.69664 0.0
H720 H 0.32909 0.31653 0.59458 0.0
H721 H 0.30809 0.34131 0.81022 0.0
H722 H 0.34296 0.32787 0.85545 0.0
H723 H 0.28949 0.3289 0.4099 0.0
H724 H 0.29241 0.29822 0.7041 0.0
H725 H 0.3276 0.29428 0.60217 0.0
C726 C 0.92343 0.08325 0.99739 0.0
C727 C 0.92329 0.08487 0.07379 0.0
N728 N 0.91645 0.0761 0.10468 0.0
N729 N 0.91702 0.07325 0.97895 0.0
C730 C 0.91243 0.06948 0.04576 0.0
H731 H 0.92775 0.08933 0.95854 0.0
Co732 Co 0.91374 0.06675 0.88116 0.0
C733 C 0.91799 0.0449 0.97393 0.0
O734 O 0.92779 0.05026 0.99973 0.0
N735 N 0.91011 0.06071 0.78501 0.0
C736 C 0.90233 0.05004 0.69105 0.0
C737 C 0.90329 0.05098 0.7677 0.0
C738 C 0.91317 0.06557 0.71787 0.0
N739 N 0.9085 0.05927 0.65923 0.0
O740 O 0.89692 0.07067 0.89641 0.0
H741 H 0.89908 0.04502 0.80808 0.0
H742 H 0.91846 0.07378 0.71256 0.0
O743 O 0.91136 0.05036 0.92539 0.0
C744 C 0.89339 0.07992 0.85943 0.0
O745 O 0.90111 0.08529 0.81437 0.0
N746 N 0.93042 0.0637 0.86197 0.0
C747 C 0.95526 0.06096 0.83491 0.0
C748 C 0.94751 0.05086 0.83549 0.0
C749 C 0.93507 0.05247 0.84687 0.0
C750 C 0.93757 0.07365 0.85238 0.0
C751 C 0.95003 0.07251 0.84106 0.0
H752 H 0.92922 0.04464 0.84366 0.0
H753 H 0.93357 0.08255 0.85192 0.0
H754 H 0.90613 0.06203 0.05117 0.0
H755 H 0.928 0.09195 0.10404 0.0
H756 H 0.89742 0.04304 0.66141 0.0
H757 H 0.95099 0.04181 0.82643 0.0
H758 H 0.95551 0.08064 0.83811 0.0
C759 C 0.17076 0.67351 0.20784 0.0
C760 C 0.16982 0.67459 0.28439 0.0
N761 N 0.17832 0.66749 0.31644 0.0
N762 N 0.17987 0.66586 0.19142 0.0
C763 C 0.18423 0.66223 0.25868 0.0
H764 H 0.16519 0.67806 0.1666 0.0
Co765 Co 0.18474 0.66188 0.09472 0.0
C766 C 0.21139 0.65846 0.10347 0.0
O767 O 0.21255 0.66356 0.03734 0.0
N768 N 0.18935 0.65749 0.9955 0.0
C769 C 0.19591 0.64578 0.90212 0.0
C770 C 0.19479 0.64686 0.97843 0.0
C771 C 0.18695 0.66252 0.92765 0.0
N772 N 0.19093 0.65563 0.87007 0.0
O773 O 0.17885 0.64564 0.11035 0.0
H774 H 0.19757 0.64015 1.01915 0.0
H775 H 0.18216 0.67091 0.91958 0.0
O776 O 0.20087 0.65726 0.13274 0.0
C777 C 0.16906 0.64301 0.07598 0.0
O778 O 0.16417 0.6512 0.03178 0.0
N779 N 0.18953 0.67823 0.08098 0.0
C780 C 0.19217 0.70345 0.07571 0.0
C781 C 0.19976 0.69639 0.12108 0.0
C782 C 0.19823 0.68382 0.12353 0.0
C783 C 0.18174 0.68508 0.0393 0.0
C784 C 0.18313 0.69765 0.03392 0.0
H785 H 0.20353 0.67878 0.16365 0.0
H786 H 0.17394 0.68088 1.01358 0.0
H787 H 0.19171 0.65598 0.26523 0.0
H788 H 0.16328 0.68007 0.31408 0.0
H789 H 0.19967 0.6381 0.87249 0.0
H790 H 0.20657 0.70061 0.15624 0.0
H791 H 0.17673 0.70286 1.00097 0.0
C792 C 0.4215 0.91885 0.5075 0.0
C793 C 0.42241 0.9177 0.58402 0.0
N794 N 0.41675 0.9272 0.61601 0.0
N795 N 0.41538 0.92907 0.49111 0.0
C796 C 0.4125 0.93393 0.55828 0.0
H797 H 0.42514 0.91269 0.46619 0.0
Co798 Co 0.41237 0.93442 0.3942 0.0
C799 C 0.41267 0.96102 0.40254 0.0
O800 O 0.41953 0.96085 0.34247 0.0
N801 N 0.40888 0.93958 0.29441 0.0
C802 C 0.3984 0.94797 0.20071 0.0
C803 C 0.39929 0.94669 0.277 0.0
C804 C 0.41341 0.93634 0.2267 0.0
N805 N 0.40728 0.94142 0.16896 0.0
O806 O 0.39563 0.9299 0.40611 0.0
H807 H 0.39307 0.95047 0.31744 0.0
H808 H 0.4208 0.93013 0.21879 0.0
O809 O 0.40893 0.95102 0.43087 0.0
C810 C 0.39241 0.9205 0.36964 0.0
O811 O 0.4003 0.91529 0.32507 0.0
N812 N 0.4292 0.93774 0.38449 0.0
C813 C 0.45452 0.93919 0.37956 0.0
C814 C 0.4479 0.94637 0.42947 0.0
C815 C 0.43529 0.94536 0.43206 0.0
C816 C 0.43562 0.93006 0.33979 0.0
C817 C 0.44823 0.93091 0.33447 0.0
H818 H 0.43052 0.95036 0.47473 0.0
H819 H 0.43104 0.92276 0.31133 0.0
H820 H 0.40759 0.94234 0.56478 0.0
H821 H 0.42679 0.91035 0.61374 0.0
H822 H 0.39143 0.95291 0.17087 0.0
H823 H 0.45245 0.95257 0.46724 0.0
H824 H 0.45307 0.92471 0.29825 0.0
C825 C 0.82943 0.67501 0.24933 0.0
C826 C 0.83034 0.67606 0.32595 0.0
N827 N 0.82202 0.66871 0.35756 0.0
N828 N 0.82051 0.66714 0.23239 0.0
C829 C 0.81624 0.66335 0.29944 0.0
H830 H 0.83492 0.67971 0.20843 0.0
Co831 Co 0.81579 0.66289 0.13564 0.0
C832 C 0.78909 0.65956 0.14286 0.0
O833 O 0.78795 0.66434 0.0758 0.0
N834 N 0.81131 0.65822 0.03642 0.0
C835 C 0.80481 0.64635 0.94336 0.0
C836 C 0.80586 0.64757 0.01971 0.0
C837 C 0.81377 0.66312 0.96836 0.0
N838 N 0.80984 0.65614 0.91096 0.0
O839 O 0.8215 0.64666 0.1541 0.0
H840 H 0.803 0.64094 0.06073 0.0
H841 H 0.81855 0.67152 0.96002 0.0
O842 O 0.79959 0.65853 0.17282 0.0
C843 C 0.83114 0.64363 0.11964 0.0
O844 O 0.83605 0.65141 0.07289 0.0
N845 N 0.81119 0.67922 0.11903 0.0
C846 C 0.80851 0.70434 0.10558 0.0
C847 C 0.80075 0.69762 0.15162 0.0
C848 C 0.8023 0.68508 0.1582 0.0
C849 C 0.8192 0.68578 0.07743 0.0
C850 C 0.81781 0.69827 0.06793 0.0
H851 H 0.79679 0.68031 0.19833 0.0
H852 H 0.8271 0.68138 0.05432 0.0
H853 H 0.80895 0.65687 0.30554 0.0
H854 H 0.83676 0.68166 0.35599 0.0
H855 H 0.80105 0.63863 0.91402 0.0
H856 H 0.79373 0.70208 0.18375 0.0
H857 H 0.82434 0.70324 0.03468 0.0
C858 C 0.07607 0.07852 0.97771 0.0
C859 C 0.07496 0.07936 0.05427 0.0
N860 N 0.08231 0.07107 0.08609 0.0
N861 N 0.084 0.06965 0.96099 0.0
C862 C 0.08776 0.06536 0.02816 0.0
H863 H 0.0714 0.08404 0.93672 0.0
Co864 Co 0.08835 0.06504 0.86429 0.0
C865 C 0.09231 0.03833 0.8719 0.0
O866 O 0.08785 0.03705 0.80408 0.0
N867 N 0.09308 0.0607 0.76531 0.0
C868 C 0.10499 0.05453 0.672 0.0
C869 C 0.10386 0.05559 0.74835 0.0
C870 C 0.08798 0.06295 0.69747 0.0
N871 N 0.09499 0.05921 0.63988 0.0
O872 O 0.10448 0.07101 0.88288 0.0
H873 H 0.11062 0.05295 0.78918 0.0
H874 H 0.0794 0.06743 0.68953 0.0
O875 O 0.09292 0.04887 0.90173 0.0
C876 C 0.10696 0.08096 0.84985 0.0
O877 O 0.09874 0.0858 0.8057 0.0
N878 N 0.07211 0.06028 0.84707 0.0
C879 C 0.04693 0.05774 0.83326 0.0
C880 C 0.05376 0.04941 0.87521 0.0
C881 C 0.0663 0.05096 0.88258 0.0
C882 C 0.06554 0.06866 0.80826 0.0
C883 C 0.05303 0.06745 0.79932 0.0
H884 H 0.07108 0.04502 0.92035 0.0
H885 H 0.06999 0.07668 0.78692 0.0
H886 H 0.09429 0.05813 0.0345 0.0
H887 H 0.0693 0.08574 0.08415 0.0
H888 H 0.11277 0.051 0.64241 0.0
H889 H 0.04943 0.04192 0.90383 0.0
H890 H 0.0481 0.0744 0.76915 0.0
C891 C 0.66977 0.32701 0.73318 0.0
C892 C 0.66899 0.3258 0.80967 0.0
N893 N 0.67782 0.33253 0.84127 0.0
N894 N 0.67912 0.33436 0.71634 0.0
C895 C 0.68379 0.33769 0.78335 0.0
H896 H 0.66386 0.32283 0.69229 0.0
Co897 Co 0.68356 0.33853 0.61933 0.0
C898 C 0.71022 0.34157 0.62132 0.0
O899 O 0.7106 0.33611 0.55596 0.0
N900 N 0.68771 0.34307 0.51988 0.0
C901 C 0.69414 0.35474 0.42599 0.0
C902 C 0.69299 0.35376 0.5023 0.0
C903 C 0.68545 0.33787 0.45247 0.0
N904 N 0.68936 0.34474 0.39457 0.0
O905 O 0.67782 0.35478 0.63707 0.0
H906 H 0.69575 0.36052 0.5427 0.0
H907 H 0.68091 0.3293 0.44515 0.0
O908 O 0.70001 0.34301 0.65421 0.0
C909 C 0.66784 0.35719 0.60411 0.0
O910 O 0.6629 0.34882 0.56148 0.0
N911 N 0.68799 0.32216 0.60297 0.0
C912 C 0.68969 0.29691 0.59217 0.0
C913 C 0.69851 0.30357 0.63087 0.0
C914 C 0.69729 0.31615 0.63766 0.0
C915 C 0.67923 0.31573 0.56643 0.0
C916 C 0.67994 0.30314 0.5598 0.0
H917 H 0.70347 0.32083 0.67445 0.0
H918 H 0.6713 0.32038 0.54534 0.0
H919 H 0.69145 0.34372 0.7896 0.0
H920 H 0.66228 0.32055 0.83969 0.0
H921 H 0.69785 0.3624 0.39589 0.0
H922 H 0.70589 0.299 0.65932 0.0
H923 H 0.67278 0.29829 0.53111 0.0
C924 C 0.41776 0.08527 0.54441 0.0
C925 C 0.41772 0.08708 0.4681 0.0
N926 N 0.4143 0.0767 0.43441 0.0
N927 N 0.41439 0.07379 0.55932 0.0
C928 C 0.41228 0.0688 0.49116 0.0
H929 H 0.42022 0.09187 0.58654 0.0
Co930 Co 0.41381 0.06724 0.65608 0.0
C931 C 0.40117 0.04396 0.6312 0.0
O932 O 0.39346 0.04641 0.68505 0.0
N933 N 0.41351 0.06083 0.75444 0.0
C934 C 0.41689 0.04857 0.85132 0.0
C935 C 0.41729 0.04966 0.77478 0.0
C936 C 0.41106 0.06643 0.82033 0.0
N937 N 0.41297 0.05913 0.8804 0.0
O938 O 0.39698 0.07164 0.6618 0.0
H939 H 0.42055 0.04281 0.73659 0.0
H940 H 0.40817 0.07575 0.82441 0.0
O941 O 0.40949 0.05153 0.61486 0.0
C942 C 0.39482 0.0822 0.68737 0.0
O943 O 0.40393 0.08889 0.71056 0.0
N944 N 0.43042 0.06382 0.6508 0.0
C945 C 0.45567 0.06145 0.65392 0.0
C946 C 0.44831 0.05227 0.62344 0.0
C947 C 0.4357 0.05367 0.62172 0.0
C948 C 0.43735 0.07285 0.68003 0.0
C949 C 0.44996 0.07191 0.6817 0.0
H950 H 0.4303 0.04649 0.5978 0.0
H951 H 0.43302 0.08087 0.70212 0.0
H952 H 0.4096 0.05948 0.48297 0.0
H953 H 0.42002 0.09545 0.43978 0.0
H954 H 0.41978 0.04073 0.88307 0.0
H955 H 0.4522 0.04397 0.60204 0.0
H956 H 0.45516 0.07941 0.70405 0.0
C957 C 0.6702 0.67431 0.32876 0.0
C958 C 0.66913 0.67534 0.25221 0.0
N959 N 0.6781 0.66889 0.21992 0.0
N960 N 0.67982 0.66731 0.34515 0.0
C961 C 0.68441 0.66407 0.27789 0.0
H962 H 0.6643 0.67836 0.37005 0.0
Co963 Co 0.68469 0.66322 0.44185 0.0
C964 C 0.71131 0.65942 0.43368 0.0
O965 O 0.71257 0.66429 0.50037 0.0
N966 N 0.68925 0.6587 0.54103 0.0
C967 C 0.6952 0.64652 0.6339 0.0
C968 C 0.69434 0.64788 0.55764 0.0
C969 C 0.68693 0.66366 0.6091 0.0
N970 N 0.69049 0.65645 0.66642 0.0
O971 O 0.67862 0.64705 0.42575 0.0
H972 H 0.69703 0.6412 0.51659 0.0
H973 H 0.68214 0.67205 0.61747 0.0
O974 O 0.70077 0.65847 0.40415 0.0
C975 C 0.66875 0.64456 0.45946 0.0
O976 O 0.6639 0.65286 0.50281 0.0
N977 N 0.68964 0.6795 0.45608 0.0
C978 C 0.69269 0.70467 0.46324 0.0
C979 C 0.70023 0.69756 0.4181 0.0
C980 C 0.69848 0.68502 0.41458 0.0
C981 C 0.6819 0.68639 0.49759 0.0
C982 C 0.68348 0.69893 0.50382 0.0
H983 H 0.70377 0.67997 0.37469 0.0
H984 H 0.67404 0.68224 0.52279 0.0
H985 H 0.69223 0.65828 0.27167 0.0
H986 H 0.6621 0.68027 0.22292 0.0
H987 H 0.69886 0.63873 0.66304 0.0
H988 H 0.7072 0.70171 0.38403 0.0
H989 H 0.67712 0.70417 0.53668 0.0
C990 C 0.07734 0.9204 0.0643 0.0
C991 C 0.07617 0.91956 0.98775 0.0
N992 N 0.08317 0.92816 0.95608 0.0
N993 N 0.08493 0.92956 0.08121 0.0
C994 C 0.08846 0.93403 1.01408 0.0
H995 H 0.07297 0.91464 0.10512 0.0
Co996 Co 0.08925 0.93421 0.17812 0.0
C997 C 0.09329 0.96099 0.17077 0.0
O998 O 0.08923 0.96232 0.23938 0.0
N999 N 0.0939 0.93855 0.27714 0.0
C1000 C 0.10567 0.94465 0.37151 0.0
C1001 C 0.1047 0.94357 0.2951 0.0
C1002 C 0.08862 0.93637 0.3444 0.0
N1003 N 0.09556 0.94008 0.40264 0.0
O1004 O 0.10545 0.92842 0.15994 0.0
H1005 H 0.11155 0.94615 0.25492 0.0
H1006 H 0.07997 0.93197 0.35129 0.0
O1007 O 0.09361 0.95045 0.14084 0.0
C1008 C 0.10791 0.91848 0.19315 0.0
O1009 O 0.09961 0.91358 0.23633 0.0
N1010 N 0.07297 0.93872 0.19528 0.0
C1011 C 0.04776 0.94039 0.20729 0.0
C1012 C 0.05441 0.94955 0.17176 0.0
C1013 C 0.06699 0.94839 0.16453 0.0
C1014 C 0.06657 0.92974 0.22979 0.0
C1015 C 0.054 0.93041 0.23676 0.0
H1016 H 0.07165 0.95493 0.13036 0.0
H1017 H 0.07124 0.9217 0.24909 0.0
H1018 H 0.09474 0.94149 1.00777 0.0
H1019 H 0.07075 0.91298 0.95775 0.0
H1020 H 0.11342 0.94814 0.40188 0.0
H1021 H 0.04985 0.95718 0.14597 0.0
H1022 H 0.04916 0.92304 0.26341 0.0
C1023 C 0.83262 0.33366 0.79683 0.0
C1024 C 0.83436 0.33364 0.72048 0.0
N1025 N 0.8239 0.33687 0.68684 0.0
N1026 N 0.82111 0.33688 0.8118 0.0
C1027 C 0.81603 0.33882 0.74364 0.0
H1028 H 0.83928 0.33132 0.83891 0.0
Co1029 Co 0.81456 0.33742 0.90847 0.0
C1030 C 0.79137 0.35013 0.8783 0.0
O1031 O 0.79393 0.35851 0.92812 0.0
N1032 N 0.80807 0.33771 1.00637 0.0
C1033 C 0.79566 0.33446 0.10237 0.0
C1034 C 0.79682 0.33413 0.02583 0.0
C1035 C 0.81364 0.33999 0.07268 0.0
N1036 N 0.80626 0.33815 0.13228 0.0
O1037 O 0.8189 0.35428 0.91476 0.0
H1038 H 0.78996 0.331 0.98704 0.0
H1039 H 0.82301 0.34271 0.07736 0.0
O1040 O 0.79884 0.34152 0.86659 0.0
C1041 C 0.82948 0.3562 0.94094 0.0
O1042 O 0.83598 0.34688 0.96307 0.0
N1043 N 0.81132 0.32079 0.90301 0.0
C1044 C 0.80969 0.29549 0.90183 0.0
C1045 C 0.80056 0.30267 0.86925 0.0
C1046 C 0.80158 0.31532 0.86997 0.0
C1047 C 0.82025 0.31402 0.93483 0.0
C1048 C 0.81965 0.30138 0.93467 0.0
H1049 H 0.79451 0.3206 0.84401 0.0
H1050 H 0.82797 0.31851 0.95994 0.0
H1051 H 0.80664 0.34129 0.73544 0.0
H1052 H 0.84273 0.33143 0.69209 0.0
H1053 H 0.78774 0.33166 0.1335 0.0
H1054 H 0.79263 0.29859 0.84393 0.0
H1055 H 0.82707 0.2963 0.95909 0.0
H1056 H 0.1021 0.56011 0.86418 0.0
H1057 H 0.06715 0.57642 0.82414 0.0
H1058 H 0.10448 0.55672 0.73003 0.0
H1059 H 0.06938 0.57287 0.69038 0.0
H1060 H 0.08314 0.57688 0.45015 0.0
H1061 H 0.08038 0.57978 0.58429 0.0
H1062 H 0.09734 0.54513 0.62642 0.0
H1063 H 0.10027 0.54239 0.49226 0.0
C1064 C 0.09486 0.56284 0.82683 0.0
C1065 C 0.08447 0.5686 0.85494 0.0
C1066 C 0.0962 0.56088 0.74979 0.0
C1067 C 0.08714 0.56456 0.69894 0.0
C1068 C 0.07667 0.57014 0.72742 0.0
C1069 C 0.07537 0.57217 0.80429 0.0
C1070 C 0.08616 0.56983 0.48798 0.0
C1071 C 0.09194 0.55941 0.4604 0.0
C1072 C 0.08457 0.57148 0.56508 0.0
C1073 C 0.08865 0.5627 0.61662 0.0
C1074 C 0.09429 0.5522 0.58876 0.0
C1075 C 0.09594 0.5506 0.51173 0.0
H1076 H 0.67407 0.83101 0.70358 0.0
H1077 H 0.70554 0.8532 0.74565 0.0
H1078 H 0.67173 0.82769 0.83776 0.0
H1079 H 0.70341 0.84972 0.87971 0.0
H1080 H 0.68833 0.85184 0.11826 0.0
H1081 H 0.69118 0.85484 0.98409 0.0
H1082 H 0.6801 0.81783 0.94387 0.0
H1083 H 0.67704 0.81498 0.07768 0.0
C1084 C 0.68059 0.83504 0.74141 0.0
C1085 C 0.68997 0.8424 0.71377 0.0
C1086 C 0.67927 0.83313 0.81856 0.0
C1087 C 0.68736 0.83846 0.87013 0.0
C1088 C 0.69685 0.84566 0.84215 0.0
C1089 C 0.69811 0.84764 0.76511 0.0
C1090 C 0.68661 0.84433 0.08079 0.0
C1091 C 0.6824 0.83319 0.10881 0.0
C1092 C 0.68825 0.84603 1.00368 0.0
C1093 C 0.68583 0.8366 0.95259 0.0
C1094 C 0.68182 0.8254 0.981 0.0
C1095 C 0.68009 0.82374 0.05794 0.0
H1096 H 0.39652 0.45454 0.99335 0.0
H1097 H 0.41858 0.42302 0.95123 0.0
H1098 H 0.39991 0.45225 0.12746 0.0
H1099 H 0.42181 0.42052 0.08547 0.0
H1100 H 0.43437 0.42553 0.32613 0.0
H1101 H 0.43162 0.42869 0.19225 0.0
H1102 H 0.39467 0.43995 0.23136 0.0
H1103 H 0.39757 0.437 0.36559 0.0
C1104 C 0.40204 0.44706 1.01281 0.0
C1105 C 0.40726 0.43895 0.96144 0.0
C1106 C 0.40396 0.44572 0.08988 0.0
C1107 C 0.4111 0.43616 0.11788 0.0
C1108 C 0.41642 0.42811 0.06627 0.0
C1109 C 0.41456 0.42952 0.98909 0.0
C1110 C 0.42564 0.42863 0.30614 0.0
C1111 C 0.41618 0.43097 0.35673 0.0
C1112 C 0.42404 0.43042 0.22915 0.0
C1113 C 0.41289 0.43453 0.20039 0.0
C1114 C 0.40345 0.43696 0.25121 0.0
C1115 C 0.40509 0.43525 0.32836 0.0
H1116 H 0.79265 0.15624 0.23697 0.0
H1117 H 0.8305 0.1619 0.18738 0.0
H1118 H 0.79717 0.15645 0.37017 0.0
H1119 H 0.83512 0.16158 0.32104 0.0
H1120 H 0.83654 0.17548 0.56377 0.0
H1121 H 0.83265 0.17394 0.43013 0.0
H1122 H 0.80635 0.14574 0.47156 0.0
H1123 H 0.8102 0.14736 0.60574 0.0
C1124 C 0.80196 0.15748 0.25429 0.0
C1125 C 0.81117 0.15918 0.20078 0.0
C1126 C 0.80459 0.15745 0.33108 0.0
C1127 C 0.81652 0.15908 0.35702 0.0
C1128 C 0.82579 0.16048 0.30349 0.0
C1129 C 0.82316 0.16051 0.2265 0.0
C1130 C 0.83002 0.16884 0.54465 0.0
C1131 C 0.8237 0.16154 0.59623 0.0
C1132 C 0.8278 0.16794 0.46754 0.0
C1133 C 0.81919 0.1597 0.43938 0.0
C1134 C 0.81292 0.15233 0.4909 0.0
C1135 C 0.81513 0.15325 0.56815 0.0
H1136 H 0.09172 0.42125 0.55863 0.0
H1137 H 0.07618 0.45644 0.51463 0.0
H1138 H 0.0914 0.41682 0.42446 0.0
H1139 H 0.07583 0.45205 0.38134 0.0
H1140 H 0.08976 0.44589 0.14327 0.0
H1141 H 0.08943 0.44983 0.27737 0.0
H1142 H 0.07832 0.41288 0.31805 0.0
H1143 H 0.07866 0.40893 0.18391 0.0
C1144 C 0.08811 0.42799 0.52059 0.0
C1145 C 0.08409 0.43925 0.54778 0.0
C1146 C 0.08793 0.42546 0.44349 0.0
C1147 C 0.08369 0.43412 0.39156 0.0
C1148 C 0.07942 0.44526 0.41914 0.0
C1149 C 0.07961 0.44778 0.49594 0.0
C1150 C 0.08712 0.43862 0.1805 0.0
C1151 C 0.08425 0.42708 0.15209 0.0
C1152 C 0.08693 0.44088 0.25776 0.0
C1153 C 0.08385 0.43167 0.30903 0.0
C1154 C 0.08093 0.42015 0.28062 0.0
C1155 C 0.08111 0.41789 0.20336 0.0
H1156 H 0.7967 0.85132 0.77684 0.0
H1157 H 0.82871 0.82995 0.81928 0.0
H1158 H 0.79896 0.84794 0.6428 0.0
H1159 H 0.83119 0.82674 0.68507 0.0
H1160 H 0.82645 0.81423 0.44438 0.0
H1161 H 0.82321 0.81681 0.57823 0.0
H1162 H 0.81111 0.85353 0.53917 0.0
H1163 H 0.81412 0.85079 0.40499 0.0
C1164 C 0.80427 0.84595 0.75743 0.0
C1165 C 0.81254 0.84093 0.80882 0.0
C1166 C 0.8056 0.84404 0.68043 0.0
C1167 C 0.8153 0.83712 0.65255 0.0
C1168 C 0.82349 0.83197 0.7042 0.0
C1169 C 0.8221 0.83381 0.78133 0.0
C1170 C 0.82314 0.82287 0.46441 0.0
C1171 C 0.82059 0.83232 0.41388 0.0
C1172 C 0.8213 0.82437 0.54135 0.0
C1173 C 0.81694 0.8354 0.57009 0.0
C1174 C 0.81429 0.84483 0.51932 0.0
C1175 C 0.81604 0.84329 0.44221 0.0
H1176 H 0.39788 0.56257 0.63453 0.0
H1177 H 0.43459 0.57437 0.675 0.0
H1178 H 0.39505 0.55948 0.76863 0.0
H1179 H 0.43189 0.57109 0.80871 0.0
H1180 H 0.41883 0.57648 0.04945 0.0
H1181 H 0.42194 0.57914 0.91537 0.0
H1182 H 0.40055 0.54707 0.8722 0.0
H1183 H 0.3973 0.54459 1.00626 0.0
C1184 C 0.40539 0.56437 0.67193 0.0
C1185 C 0.41644 0.56878 0.64387 0.0
C1186 C 0.40379 0.56258 0.749 0.0
C1187 C 0.41322 0.56506 0.80003 0.0
C1188 C 0.42432 0.56931 0.77161 0.0
C1189 C 0.42589 0.57118 0.69471 0.0
C1190 C 0.4149 0.56993 1.01141 0.0
C1191 C 0.40779 0.56033 0.03875 0.0
C1192 C 0.41668 0.57144 0.93431 0.0
C1193 C 0.41148 0.56334 0.88243 0.0
C1194 C 0.40451 0.55364 0.91005 0.0
C1195 C 0.40267 0.55218 0.98708 0.0
H1196 H 0.67322 0.18403 0.93834 0.0
H1197 H 0.68915 0.1489 0.89887 0.0
H1198 H 0.67675 0.18172 0.07218 0.0
H1199 H 0.69251 0.14644 0.03308 0.0
H1200 H 0.70696 0.1505 0.27102 0.0
H1201 H 0.7042 0.15345 0.13677 0.0
H1202 H 0.66975 0.17076 0.17837 0.0
H1203 H 0.67267 0.16797 0.31257 0.0
C1204 C 0.67738 0.17575 0.95832 0.0
C1205 C 0.68086 0.16663 0.90777 0.0
C1206 C 0.67939 0.17441 0.03525 0.0
C1207 C 0.68487 0.16386 0.06391 0.0
C1208 C 0.68844 0.15477 1.01319 0.0
C1209 C 0.6865 0.15616 0.93609 0.0
C1210 C 0.69879 0.15491 0.25142 0.0
C1211 C 0.69004 0.159 0.30263 0.0
C1212 C 0.69718 0.15657 0.17433 0.0
C1213 C 0.68673 0.16231 0.14629 0.0
C1214 C 0.67801 0.16648 0.19771 0.0
C1215 C 0.67967 0.16488 0.27485 0.0
H1216 H 0.93051 0.42096 0.23296 0.0
H1217 H 0.89662 0.4394 0.19327 0.0
H1218 H 0.92854 0.42465 0.36673 0.0
H1219 H 0.89451 0.44295 0.32741 0.0
H1220 H 0.89988 0.45728 0.56439 0.0
H1221 H 0.90251 0.4542 0.4303 0.0
H1222 H 0.91715 0.41854 0.47344 0.0
H1223 H 0.91469 0.42176 0.60755 0.0
C1224 C 0.92257 0.42571 0.25286 0.0
C1225 C 0.9137 0.42984 0.20227 0.0
C1226 C 0.92143 0.42782 0.32976 0.0
C1227 C 0.91134 0.43407 0.35832 0.0
C1228 C 0.9025 0.43827 0.30757 0.0
C1229 C 0.90369 0.43622 0.23052 0.0
C1230 C 0.90363 0.44878 0.54519 0.0
C1231 C 0.90707 0.43977 0.59681 0.0
C1232 C 0.90511 0.44698 0.46818 0.0
C1233 C 0.91001 0.43609 0.44062 0.0
C1234 C 0.91353 0.42712 0.49243 0.0
C1235 C 0.91212 0.42895 0.56951 0.0
H1236 H 0.3142 0.14418 0.95863 0.0
H1237 H 0.32983 0.17974 0.98529 0.0
H1238 H 0.31049 0.14322 0.0945 0.0
H1239 H 0.32598 0.17887 0.11985 0.0
H1240 H 0.30162 0.17823 0.33275 0.0
H1241 H 0.30611 0.17815 0.19884 0.0
H1242 H 0.32376 0.14347 0.2224 0.0
H1243 H 0.31941 0.14369 0.35786 0.0
C1244 C 0.31681 0.15178 0.99343 0.0
C1245 C 0.32234 0.16202 0.96117 0.0
C1246 C 0.31478 0.15119 0.07115 0.0
C1247 C 0.31797 0.16096 0.11793 0.0
C1248 C 0.32341 0.17121 0.08542 0.0
C1249 C 0.32567 0.17168 1.00832 0.0
C1250 C 0.30646 0.17058 0.30945 0.0
C1251 C 0.31014 0.16095 0.35585 0.0
C1252 C 0.30908 0.17056 0.23278 0.0
C1253 C 0.31526 0.16079 0.1999 0.0
C1254 C 0.31892 0.15109 0.24606 0.0
C1255 C 0.31652 0.15125 0.3235 0.0
H1256 H 0.57179 0.58948 0.71817 0.0
H1257 H 0.59917 0.56234 0.67813 0.0
H1258 H 0.57301 0.58551 0.85216 0.0
H1259 H 0.6005 0.55845 0.81209 0.0
H1260 H 0.5911 0.5452 0.0461 0.0
H1261 H 0.58963 0.54954 0.91283 0.0
H1262 H 0.58523 0.58762 0.96194 0.0
H1263 H 0.58654 0.5832 0.09577 0.0
C1264 C 0.57819 0.58277 0.73788 0.0
C1265 C 0.58536 0.57623 0.68678 0.0
C1266 C 0.5789 0.58049 0.81504 0.0
C1267 C 0.58682 0.57161 0.84357 0.0
C1268 C 0.5941 0.56518 0.79247 0.0
C1269 C 0.59336 0.56743 0.71529 0.0
C1270 C 0.58987 0.55452 0.0286 0.0
C1271 C 0.589 0.56385 0.08202 0.0
C1272 C 0.58907 0.55703 0.95186 0.0
C1273 C 0.58742 0.56896 0.92593 0.0
C1274 C 0.58636 0.57829 0.97946 0.0
C1275 C 0.58711 0.57576 0.05643 0.0
H1276 H 0.17318 0.83092 0.82516 0.0
H1277 H 0.20752 0.84836 0.78417 0.0
H1278 H 0.17039 0.82805 0.69085 0.0
H1279 H 0.20491 0.8453 0.65 0.0
H1280 H 0.19008 0.85 0.41187 0.0
H1281 H 0.19339 0.85236 0.54617 0.0
H1282 H 0.17732 0.81718 0.58453 0.0
H1283 H 0.17383 0.81498 0.45055 0.0
C1284 C 0.18022 0.83398 0.78753 0.0
C1285 C 0.19055 0.83991 0.81543 0.0
C1286 C 0.17864 0.83233 0.71036 0.0
C1287 C 0.1874 0.83648 0.65911 0.0
C1288 C 0.19784 0.84221 0.68737 0.0
C1289 C 0.19937 0.84393 0.76443 0.0
C1290 C 0.18735 0.84274 0.44897 0.0
C1291 C 0.18163 0.83234 0.42042 0.0
C1292 C 0.18926 0.84407 0.52611 0.0
C1293 C 0.18559 0.83498 0.57666 0.0
C1294 C 0.18005 0.82449 0.54775 0.0
C1295 C 0.17807 0.82321 0.47076 0.0
H1296 H 0.92441 0.58838 0.8419 0.0
H1297 H 0.89994 0.55857 0.88214 0.0
H1298 H 0.92363 0.58433 0.70809 0.0
H1299 H 0.89897 0.55461 0.74797 0.0
H1300 H 0.91065 0.54244 0.51457 0.0
H1301 H 0.91053 0.54691 0.64743 0.0
H1302 H 0.91146 0.58524 0.59813 0.0
H1303 H 0.91225 0.58073 0.46468 0.0
C1304 C 0.91873 0.58105 0.82221 0.0
C1305 C 0.91224 0.5738 0.87322 0.0
C1306 C 0.91825 0.57873 0.74512 0.0
C1307 C 0.91122 0.56914 0.71653 0.0
C1308 C 0.90465 0.56195 0.7676 0.0
C1309 C 0.90519 0.56423 0.84481 0.0
C1310 C 0.91094 0.55184 0.53164 0.0
C1311 C 0.9116 0.56119 0.47805 0.0
C1312 C 0.91069 0.55442 0.60836 0.0
C1313 C 0.91101 0.56645 0.63422 0.0
C1314 C 0.91139 0.57584 0.58068 0.0
C1315 C 0.91169 0.57325 0.50374 0.0
H1316 H 0.15897 0.16445 0.59611 0.0
H1317 H 0.19728 0.16858 0.6377 0.0
H1318 H 0.16283 0.16286 0.46242 0.0
H1319 H 0.20119 0.16719 0.50352 0.0
H1320 H 0.20462 0.1511 0.26798 0.0
H1321 H 0.2011 0.15328 0.40151 0.0
H1322 H 0.16886 0.17421 0.35529 0.0
H1323 H 0.17202 0.17146 0.22171 0.0
C1324 C 0.16822 0.16515 0.57663 0.0
C1325 C 0.17781 0.16665 0.62775 0.0
C1326 C 0.17044 0.16428 0.49976 0.0
C1327 C 0.18233 0.16495 0.47173 0.0
C1328 C 0.19193 0.16646 0.52295 0.0
C1329 C 0.1897 0.16726 0.6 0.0
C1330 C 0.19672 0.15609 0.28604 0.0
C1331 C 0.18857 0.161 0.23342 0.0
C1332 C 0.19478 0.15748 0.36296 0.0
C1333 C 0.18466 0.16389 0.3896 0.0
C1334 C 0.17665 0.16904 0.33703 0.0
C1335 C 0.17856 0.16761 0.26005 0.0
H1336 H 0.57148 0.44077 0.97518 0.0
H1337 H 0.61006 0.43844 1.01194 0.0
H1338 H 0.56807 0.43861 0.10964 0.0
H1339 H 0.60671 0.43611 0.14566 0.0
H1340 H 0.59786 0.44336 0.38843 0.0
H1341 H 0.60042 0.44679 0.25492 0.0
H1342 H 0.5693 0.42419 0.20942 0.0
H1343 H 0.56635 0.42127 0.34292 0.0
C1344 C 0.57922 0.4397 1.01187 0.0
C1345 C 0.59104 0.43983 0.98273 0.0
C1346 C 0.57728 0.43845 0.08901 0.0
C1347 C 0.58712 0.43723 0.13886 0.0
C1348 C 0.59892 0.4373 0.10942 0.0
C1349 C 0.60085 0.43861 0.03251 0.0
C1350 C 0.59144 0.43925 0.35029 0.0
C1351 C 0.58192 0.43197 0.37712 0.0
C1352 C 0.593 0.4411 0.27335 0.0
C1353 C 0.58512 0.4357 0.22101 0.0
C1354 C 0.57549 0.42859 0.24786 0.0
C1355 C 0.5739 0.42678 0.32475 0.0
H1356 H 0.34187 0.84173 0.07199 0.0
H1357 H 0.30399 0.83457 0.1151 0.0
H1358 H 0.3379 0.84129 0.93838 0.0
H1359 H 0.29997 0.83482 0.98175 0.0
H1360 H 0.29833 0.82282 0.73943 0.0
H1361 H 0.3028 0.8232 0.87266 0.0
H1362 H 0.32893 0.85177 0.83616 0.0
H1363 H 0.32458 0.85114 0.70182 0.0
C1364 C 0.33268 0.84007 0.05357 0.0
C1365 C 0.32331 0.83809 0.10569 0.0
C1366 C 0.33038 0.83998 0.97633 0.0
C1367 C 0.31861 0.83798 0.94856 0.0
C1368 C 0.3092 0.83618 1.00055 0.0
C1369 C 0.31151 0.83619 0.07775 0.0
C1370 C 0.30498 0.82924 0.75977 0.0
C1371 C 0.31103 0.83702 0.70982 0.0
C1372 C 0.30753 0.82949 0.83652 0.0
C1373 C 0.31615 0.8376 0.86598 0.0
C1374 C 0.32233 0.8453 0.81579 0.0
C1375 C 0.31983 0.84497 0.73865 0.0
H1376 H 0.60157 0.04263 0.98875 0.0
H1377 H 0.58366 0.07671 0.94627 0.0
H1378 H 0.59861 0.04536 0.12289 0.0
H1379 H 0.58087 0.0796 0.08042 0.0
H1380 H 0.56789 0.07606 0.32084 0.0
H1381 H 0.57011 0.07252 0.18705 0.0
H1382 H 0.60558 0.05715 0.22598 0.0
H1383 H 0.60321 0.06052 0.36014 0.0
C1384 C 0.59706 0.05075 1.00815 0.0
C1385 C 0.59286 0.05945 0.95673 0.0
C1386 C 0.59539 0.05234 0.08516 0.0
C1387 C 0.58954 0.06273 0.11292 0.0
C1388 C 0.58524 0.07139 0.06129 0.0
C1389 C 0.58684 0.06975 0.98419 0.0
C1390 C 0.57619 0.07198 0.30082 0.0
C1391 C 0.5854 0.06862 0.35128 0.0
C1392 C 0.57748 0.06997 0.22393 0.0
C1393 C 0.58805 0.0646 0.19525 0.0
C1394 C 0.59723 0.06114 0.2459 0.0
C1395 C 0.59589 0.06309 0.32295 0.0
H1396 H 0.20446 0.35368 0.23331 0.0
H1397 H 0.17155 0.33356 0.19329 0.0
H1398 H 0.20238 0.35027 0.36749 0.0
H1399 H 0.16928 0.33032 0.32758 0.0
H1400 H 0.17426 0.31715 0.56643 0.0
H1401 H 0.17738 0.31983 0.43253 0.0
H1402 H 0.19054 0.35616 0.4725 0.0
H1403 H 0.18762 0.35332 0.60677 0.0
C1404 C 0.19673 0.34859 0.25327 0.0
C1405 C 0.18816 0.34391 0.20254 0.0
C1406 C 0.19551 0.34666 0.33032 0.0
C1407 C 0.18563 0.34005 0.35882 0.0
C1408 C 0.17712 0.33528 0.30786 0.0
C1409 C 0.1784 0.33714 0.2307 0.0
C1410 C 0.17779 0.32572 0.54659 0.0
C1411 C 0.18064 0.33504 0.59733 0.0
C1412 C 0.17956 0.32728 0.46967 0.0
C1413 C 0.18415 0.33825 0.44123 0.0
C1414 C 0.18715 0.34752 0.4922 0.0
C1415 C 0.18547 0.34591 0.56931 0.0
H1416 H 0.89762 0.95361 0.5226 0.0
H1417 H 0.92278 0.9245 0.47846 0.0
H1418 H 0.90041 0.95066 0.65639 0.0
H1419 H 0.92607 0.922 0.61213 0.0
H1420 H 0.91822 0.91095 0.85301 0.0
H1421 H 0.91582 0.91441 0.71934 0.0
H1422 H 0.91423 0.95302 0.75849 0.0
H1423 H 0.91644 0.94948 0.89287 0.0
C1424 C 0.90379 0.9466 0.54116 0.0
C1425 C 0.90988 0.93924 0.48906 0.0
C1426 C 0.90551 0.94502 0.6182 0.0
C1427 C 0.91343 0.93605 0.64546 0.0
C1428 C 0.91974 0.92887 0.5934 0.0
C1429 C 0.91797 0.93042 0.51634 0.0
C1430 C 0.91746 0.92018 0.83313 0.0
C1431 C 0.91757 0.92994 0.88374 0.0
C1432 C 0.91611 0.92218 0.75626 0.0
C1433 C 0.9149 0.93401 0.72767 0.0
C1434 C 0.91497 0.94378 0.77839 0.0
C1435 C 0.91625 0.94177 0.85551 0.0
H1436 H 0.32774 0.67008 0.69519 0.0
H1437 H 0.29507 0.64976 0.73801 0.0
H1438 H 0.33056 0.67304 0.82935 0.0
H1439 H 0.29772 0.65288 0.87214 0.0
H1440 H 0.31323 0.6494 0.10937 0.0
H1441 H 0.30998 0.6468 0.9752 0.0
H1442 H 0.32295 0.68323 0.93647 0.0
H1443 H 0.32638 0.68569 0.07027 0.0
C1444 C 0.32106 0.6664 0.73318 0.0
C1445 C 0.31119 0.65966 0.70574 0.0
C1446 C 0.32266 0.66809 0.81031 0.0
C1447 C 0.31439 0.66317 0.86208 0.0
C1448 C 0.30442 0.6566 0.83435 0.0
C1449 C 0.30287 0.65484 0.7573 0.0
C1450 C 0.3153 0.65688 0.07224 0.0
C1451 C 0.32013 0.66773 0.10069 0.0
C1452 C 0.31341 0.6554 0.99515 0.0
C1453 C 0.31622 0.66479 0.94449 0.0
C1454 C 0.3209 0.6757 0.97329 0.0
C1455 C 0.32286 0.67713 0.05023 0.0
H1456 H 0.58723 0.91945 0.06988 0.0
H1457 H 0.59186 0.95749 0.01982 0.0
H1458 H 0.58766 0.91489 0.93651 0.0
H1459 H 0.59155 0.95303 0.88722 0.0
H1460 H 0.601 0.94087 0.65226 0.0
H1461 H 0.60227 0.9447 0.78648 0.0
H1462 H 0.57587 0.91649 0.82622 0.0
H1463 H 0.57488 0.91251 0.69228 0.0
C1464 C 0.58835 0.92686 0.03086 0.0
C1465 C 0.58941 0.93888 0.05658 0.0
C1466 C 0.58845 0.92425 0.9539 0.0
C1467 C 0.58956 0.93358 0.90032 0.0
C1468 C 0.59081 0.94555 0.92622 0.0
C1469 C 0.5908 0.94815 1.00292 0.0
C1470 C 0.59544 0.93552 0.68965 0.0
C1471 C 0.58784 0.92638 0.66124 0.0
C1472 C 0.59614 0.93772 0.76687 0.0
C1473 C 0.58916 0.93093 0.81795 0.0
C1474 C 0.58157 0.92178 0.78927 0.0
C1475 C 0.58096 0.91951 0.71215 0.0
H1476 H 0.31994 0.35324 0.3355 0.0
H1477 H 0.30243 0.31855 0.31066 0.0
H1478 H 0.32403 0.35365 0.19975 0.0
H1479 H 0.30677 0.31878 0.17627 0.0
H1480 H 0.33147 0.31862 0.96222 0.0
H1481 H 0.32765 0.31907 0.09719 0.0
H1482 H 0.30924 0.35332 0.07268 0.0
H1483 H 0.31283 0.3527 0.93657 0.0
C1484 C 0.31708 0.34568 0.3011 0.0
C1485 C 0.31085 0.33588 0.33347 0.0
C1486 C 0.31933 0.34595 0.22358 0.0
C1487 C 0.31568 0.33625 0.17749 0.0
C1488 C 0.30969 0.32636 0.21034 0.0
C1489 C 0.30718 0.32625 0.28715 0.0
C1490 C 0.32664 0.32626 0.98563 0.0
C1491 C 0.32246 0.33563 0.93882 0.0
C1492 C 0.32442 0.3265 0.0628 0.0
C1493 C 0.31821 0.33626 0.09549 0.0
C1494 C 0.31413 0.34573 0.04901 0.0
C1495 C 0.3161 0.34534 0.97125 0.0
H1496 H 0.92515 0.07368 0.58913 0.0
H1497 H 0.89395 0.05102 0.54643 0.0
H1498 H 0.92674 0.07788 0.45534 0.0
H1499 H 0.89565 0.05513 0.41338 0.0
H1500 H 0.91041 0.05477 0.17214 0.0
H1501 H 0.90843 0.05085 0.30595 0.0
H1502 H 0.9165 0.08837 0.35274 0.0
H1503 H 0.91839 0.09234 0.2191 0.0
C1504 C 0.91858 0.06963 0.55172 0.0
C1505 C 0.90946 0.06193 0.57963 0.0
C1506 C 0.91949 0.07205 0.47465 0.0
C1507 C 0.91136 0.06681 0.42306 0.0
C1508 C 0.90222 0.05917 0.45096 0.0
C1509 C 0.90126 0.0568 0.52785 0.0
C1510 C 0.91159 0.06225 0.21066 0.0
C1511 C 0.91457 0.07389 0.18405 0.0
C1512 C 0.91049 0.05998 0.28775 0.0
C1513 C 0.91236 0.06927 0.34064 0.0
C1514 C 0.91521 0.08093 0.31401 0.0
C1515 C 0.91627 0.08321 0.237 0.0
H1516 H 0.17422 0.6839 0.42637 0.0
H1517 H 0.1876 0.64773 0.38682 0.0
H1518 H 0.17763 0.68137 0.56014 0.0
H1519 H 0.19085 0.64506 0.52099 0.0
H1520 H 0.20572 0.6481 0.75857 0.0
H1521 H 0.20305 0.65119 0.62439 0.0
H1522 H 0.17003 0.67102 0.6669 0.0
H1523 H 0.17285 0.66808 0.80105 0.0
C1524 C 0.17779 0.67535 0.44629 0.0
C1525 C 0.18058 0.666 0.3957 0.0
C1526 C 0.17974 0.67388 0.52322 0.0
C1527 C 0.18448 0.66298 0.5519 0.0
C1528 C 0.18736 0.65365 0.50113 0.0
C1529 C 0.18548 0.65516 0.42404 0.0
C1530 C 0.19788 0.65309 0.73921 0.0
C1531 C 0.1895 0.65783 0.79071 0.0
C1532 C 0.19632 0.65484 0.66213 0.0
C1533 C 0.18629 0.66133 0.63432 0.0
C1534 C 0.17796 0.66615 0.68601 0.0
C1535 C 0.17957 0.66446 0.76315 0.0
H1536 H 0.40232 0.95729 0.05735 0.0
H1537 H 0.41649 0.9215 0.10038 0.0
H1538 H 0.40489 0.95416 0.92324 0.0
H1539 H 0.4189 0.91825 0.96626 0.0
H1540 H 0.43235 0.9205 0.72591 0.0
H1541 H 0.43043 0.92422 0.85968 0.0
H1542 H 0.39667 0.94303 0.82035 0.0
H1543 H 0.39873 0.93944 0.6862 0.0
C1544 C 0.40592 0.94872 0.03811 0.0
C1545 C 0.40919 0.93965 0.08971 0.0
C1546 C 0.40736 0.9469 0.96111 0.0
C1547 C 0.41206 0.93593 0.93353 0.0
C1548 C 0.41543 0.92689 0.98529 0.0
C1549 C 0.41405 0.92874 0.06237 0.0
C1550 C 0.42448 0.92537 0.7458 0.0
C1551 C 0.41567 0.92963 0.69521 0.0
C1552 C 0.42336 0.92749 0.82269 0.0
C1553 C 0.41337 0.93389 0.85124 0.0
C1554 C 0.40459 0.93823 0.80049 0.0
C1555 C 0.40575 0.93616 0.72345 0.0
H1556 H 0.8278 0.66876 0.84226 0.0
H1557 H 0.79521 0.6483 0.79887 0.0
H1558 H 0.83055 0.67181 0.70826 0.0
H1559 H 0.79781 0.65148 0.66477 0.0
H1560 H 0.81315 0.64866 0.42683 0.0
H1561 H 0.81005 0.64572 0.56084 0.0
H1562 H 0.82265 0.6822 0.60217 0.0
H1563 H 0.8259 0.68501 0.46857 0.0
C1564 C 0.82112 0.66505 0.80422 0.0
C1565 C 0.81128 0.65828 0.83154 0.0
C1566 C 0.82269 0.6668 0.72713 0.0
C1567 C 0.81441 0.66189 0.67519 0.0
C1568 C 0.8045 0.65522 0.70271 0.0
C1569 C 0.80299 0.65341 0.77977 0.0
C1570 C 0.81517 0.65607 0.46447 0.0
C1571 C 0.81984 0.66705 0.43676 0.0
C1572 C 0.81338 0.6544 0.54149 0.0
C1573 C 0.81614 0.6637 0.59284 0.0
C1574 C 0.82065 0.67473 0.5648 0.0
C1575 C 0.82251 0.67637 0.48795 0.0
H1576 H 0.10303 0.04465 0.52842 0.0
H1577 H 0.08185 0.07678 0.57071 0.0
H1578 H 0.09976 0.04711 0.39426 0.0
H1579 H 0.07872 0.07941 0.43656 0.0
H1580 H 0.06586 0.07463 0.19633 0.0
H1581 H 0.06861 0.07138 0.3301 0.0
H1582 H 0.10531 0.0594 0.29033 0.0
H1583 H 0.10242 0.06247 0.15617 0.0
C1584 C 0.09774 0.0523 0.50903 0.0
C1585 C 0.09271 0.06052 0.56049 0.0
C1586 C 0.09588 0.05374 0.43194 0.0
C1587 C 0.089 0.06349 0.40404 0.0
C1588 C 0.0839 0.07167 0.4557 0.0
C1589 C 0.0857 0.07017 0.53286 0.0
C1590 C 0.07454 0.07136 0.21612 0.0
C1591 C 0.08393 0.06886 0.16534 0.0
C1592 C 0.07614 0.06951 0.29306 0.0
C1593 C 0.08721 0.06518 0.32159 0.0
C1594 C 0.09659 0.06258 0.27062 0.0
C1595 C 0.09495 0.06435 0.19352 0.0
H1596 H 0.67362 0.31608 0.95073 0.0
H1597 H 0.68729 0.35216 0.9116 0.0
H1598 H 0.67688 0.31857 0.08471 0.0
H1599 H 0.69035 0.35482 0.04592 0.0
H1600 H 0.70452 0.35202 0.28449 0.0
H1601 H 0.70225 0.34872 0.15031 0.0
H1602 H 0.66908 0.32895 0.19049 0.0
H1603 H 0.67154 0.33208 0.32482 0.0
C1604 C 0.67724 0.32459 0.97085 0.0
C1605 C 0.68015 0.33394 0.92041 0.0
C1606 C 0.67908 0.32605 0.04783 0.0
C1607 C 0.68382 0.33693 0.07663 0.0
C1608 C 0.68686 0.34624 0.02596 0.0
C1609 C 0.68509 0.34474 0.94881 0.0
C1610 C 0.69673 0.34699 0.26458 0.0
C1611 C 0.6882 0.34233 0.3154 0.0
C1612 C 0.6954 0.34512 0.18753 0.0
C1613 C 0.68544 0.33861 0.15909 0.0
C1614 C 0.67697 0.33384 0.21015 0.0
C1615 C 0.67836 0.33564 0.28732 0.0
H1616 H 0.42651 0.08819 0.32306 0.0
H1617 H 0.4001 0.06009 0.36361 0.0
H1618 H 0.42531 0.0843 0.18923 0.0
H1619 H 0.39876 0.05627 0.22934 0.0
H1620 H 0.40992 0.04336 0.99574 0.0
H1621 H 0.4099 0.04784 0.12871 0.0
H1622 H 0.41307 0.08604 0.07946 0.0
H1623 H 0.4137 0.08148 0.9459 0.0
C1624 C 0.42032 0.08128 0.30347 0.0
C1625 C 0.41341 0.07445 0.3546 0.0
C1626 C 0.4196 0.07905 0.22634 0.0
C1627 C 0.41192 0.06997 0.19782 0.0
C1628 C 0.40493 0.06321 0.24896 0.0
C1629 C 0.40569 0.0654 0.32622 0.0
C1630 C 0.4107 0.05272 1.01293 0.0
C1631 C 0.41196 0.06202 0.9594 0.0
C1632 C 0.41052 0.05532 0.08963 0.0
C1633 C 0.41152 0.06732 0.1155 0.0
C1634 C 0.41246 0.07667 0.06198 0.0
C1635 C 0.41268 0.07406 0.98503 0.0
H1636 H 0.69149 0.6513 0.15173 0.0
H1637 H 0.66984 0.6831 0.1058 0.0
H1638 H 0.695 0.64875 1.01846 0.0
H1639 H 0.67283 0.68014 0.97244 0.0
H1640 H 0.68978 0.67804 0.7392 0.0
H1641 H 0.68727 0.68134 0.87354 0.0
H1642 H 0.68471 0.64265 0.90768 0.0
H1643 H 0.6874 0.63941 0.77417 0.0
C1644 C 0.68747 0.65778 0.11361 0.0
C1645 C 0.68031 0.66739 0.14043 0.0
C1646 C 0.68937 0.65621 0.03669 0.0
C1647 C 0.68414 0.66419 0.98418 0.0
C1648 C 0.67711 0.67388 1.01095 0.0
C1649 C 0.67525 0.67547 0.08785 0.0
C1650 C 0.68863 0.67026 0.77544 0.0
C1651 C 0.68886 0.65846 0.74578 0.0
C1652 C 0.68717 0.67214 0.85256 0.0
C1653 C 0.68583 0.66226 0.90195 0.0
C1654 C 0.68598 0.65048 0.87194 0.0
C1655 C 0.6875 0.64861 0.79509 0.0
H1656 H 0.08246 0.92247 0.47127 0.0
H1657 H 0.10326 0.95485 0.514 0.0
H1658 H 0.07934 0.91983 0.60543 0.0
H1659 H 0.09996 0.95242 0.64802 0.0
H1660 H 0.10301 0.93724 0.88602 0.0
H1661 H 0.10573 0.94034 0.75187 0.0
H1662 H 0.06927 0.92754 0.71219 0.0
H1663 H 0.06671 0.92422 0.846 0.0
C1664 C 0.08621 0.92913 0.50925 0.0
C1665 C 0.09315 0.93884 0.48181 0.0
C1666 C 0.08442 0.92764 0.58638 0.0
C1667 C 0.08943 0.93589 0.63814 0.0
C1668 C 0.09617 0.94573 0.61033 0.0
C1669 C 0.09804 0.94716 0.53332 0.0
C1670 C 0.09555 0.93518 0.84868 0.0
C1671 C 0.08467 0.93042 0.87687 0.0
C1672 C 0.09709 0.93698 0.77157 0.0
C1673 C 0.08773 0.93417 0.72061 0.0
C1674 C 0.07678 0.92958 0.74919 0.0
C1675 C 0.07529 0.9277 0.82614 0.0
H1676 H 0.83541 0.32466 0.5757 0.0
H1677 H 0.8071 0.35082 0.6159 0.0
H1678 H 0.83145 0.32574 0.44184 0.0
H1679 H 0.80321 0.35205 0.48161 0.0
H1680 H 0.79044 0.34099 0.24742 0.0
H1681 H 0.79488 0.34093 0.38049 0.0
H1682 H 0.83309 0.33793 0.33225 0.0
H1683 H 0.82857 0.33736 0.19864 0.0
C1684 C 0.82843 0.33077 0.55601 0.0
C1685 C 0.82158 0.33765 0.60704 0.0
C1686 C 0.82617 0.33142 0.47887 0.0
C1687 C 0.81701 0.339 0.45022 0.0
C1688 C 0.81021 0.34595 0.5013 0.0
C1689 C 0.81244 0.34526 0.57857 0.0
C1690 C 0.7998 0.34022 0.26482 0.0
C1691 C 0.80911 0.33904 0.21149 0.0
C1692 C 0.80237 0.34035 0.34162 0.0
C1693 C 0.81436 0.33939 0.36783 0.0
C1694 C 0.82372 0.3385 0.31454 0.0
C1695 C 0.82114 0.33833 0.23751 0.0
H1696 H 0.15282 0.63228 0.98268 0.0
H1697 H 0.17082 0.62739 0.19548 0.0
H1698 H 0.14024 0.61459 1.00724 0.0
H1699 H 0.15809 0.60961 0.22043 0.0
H1700 H 0.11844 0.59504 0.27116 0.0
H1701 H 0.13564 0.60826 0.24613 0.0
H1702 H 0.13985 0.59192 0.02812 0.0
H1703 H 0.12257 0.57853 0.05363 0.0
C1704 C 0.15422 0.6273 0.0343 0.0
C1705 C 0.16275 0.63129 0.08745 0.0
C1706 C 0.14707 0.61709 0.04807 0.0
C1707 C 0.14814 0.6107 0.11584 0.0
C1708 C 0.15702 0.61439 0.16781 0.0
C1709 C 0.16434 0.62453 0.15344 0.0
C1710 C 0.12319 0.59408 0.21844 0.0
C1711 C 0.11911 0.58581 0.16413 0.0
C1712 C 0.1331 0.60161 0.20432 0.0
C1713 C 0.13908 0.60119 0.13503 0.0
C1714 C 0.13537 0.5925 0.08192 0.0
C1715 C 0.12554 0.58479 0.09662 0.0
H1716 H 0.62451 0.92206 0.43324 0.0
H1717 H 0.61576 0.90143 0.23514 0.0
H1718 H 0.64241 0.90925 0.45376 0.0
H1719 H 0.63364 0.88883 0.25481 0.0
H1720 H 0.65532 0.86917 0.51683 0.0
H1721 H 0.64255 0.88665 0.4896 0.0
H1722 H 0.65697 0.88818 0.26529 0.0
H1723 H 0.67001 0.87068 0.2932 0.0
C1724 C 0.62662 0.91505 0.39289 0.0
C1725 C 0.61872 0.91268 0.33285 0.0
C1726 C 0.63681 0.90768 0.40482 0.0
C1727 C 0.6394 0.89801 0.356 0.0
C1728 C 0.63196 0.89626 0.29301 0.0
C1729 C 0.62168 0.90344 0.28198 0.0
C1730 C 0.65596 0.87338 0.46215 0.0
C1731 C 0.6636 0.86852 0.40697 0.0
C1732 C 0.6487 0.88346 0.44675 0.0
C1733 C 0.64874 0.88879 0.37531 0.0
C1734 C 0.65675 0.88424 0.32085 0.0
C1735 C 0.66423 0.87427 0.33684 0.0
H1736 H 0.34858 0.36247 0.50785 0.0
H1737 H 0.32768 0.37329 0.7005 0.0
H1738 H 0.36118 0.38053 0.52086 0.0
H1739 H 0.3405 0.39135 0.71446 0.0
H1740 H 0.38068 0.40484 0.77319 0.0
H1741 H 0.36325 0.39174 0.75087 0.0
H1742 H 0.36153 0.40411 0.52173 0.0
H1743 H 0.37895 0.41751 0.54471 0.0
C1744 C 0.34653 0.36887 0.55207 0.0
C1745 C 0.3372 0.36646 0.60339 0.0
C1746 C 0.3537 0.37925 0.55923 0.0
C1747 C 0.35186 0.38733 0.61881 0.0
C1748 C 0.34213 0.38525 0.66807 0.0
C1749 C 0.33477 0.37496 0.6599 0.0
C1750 C 0.37643 0.40496 0.71845 0.0
C1751 C 0.3812 0.41214 0.66055 0.0
C1752 C 0.36639 0.39752 0.70584 0.0
C1753 C 0.36103 0.39689 0.63457 0.0
C1754 C 0.36549 0.40443 0.57723 0.0
C1755 C 0.37542 0.41211 0.5904 0.0
H1756 H 0.87963 0.08062 0.98735 0.0
H1757 H 0.88017 0.09219 0.75649 0.0
H1758 H 0.86184 0.09349 1.00958 0.0
H1759 H 0.86243 0.10483 0.77817 0.0
H1760 H 0.84856 0.13467 0.02244 0.0
H1761 H 0.86095 0.11652 1.00969 0.0
H1762 H 0.84022 0.10597 0.81506 0.0
H1763 H 0.82764 0.1242 0.82857 0.0
C1764 C 0.87573 0.08561 0.94094 0.0
C1765 C 0.88131 0.08548 0.87034 0.0
C1766 C 0.8656 0.09302 0.95368 0.0
C1767 C 0.86075 0.10022 0.89565 0.0
C1768 C 0.86584 0.09934 0.82386 0.0
C1769 C 0.87606 0.09214 0.81155 0.0
C1770 C 0.84645 0.12833 0.97798 0.0
C1771 C 0.83719 0.13088 0.9262 0.0
C1772 C 0.8535 0.11788 0.97099 0.0
C1773 C 0.85161 0.10982 0.91123 0.0
C1774 C 0.84191 0.11204 0.86159 0.0
C1775 C 0.83468 0.12243 0.86947 0.0
H1776 H 0.16931 0.37307 0.78247 0.0
H1777 H 0.15355 0.37094 1.00306 0.0
H1778 H 0.15635 0.39059 0.75383 0.0
H1779 H 0.14082 0.38839 0.97511 0.0
H1780 H 0.12228 0.4233 0.92039 0.0
H1781 H 0.1403 0.41079 0.94278 0.0
H1782 H 0.13338 0.39136 0.73734 0.0
H1783 H 0.11541 0.40372 0.71543 0.0
C1784 C 0.16332 0.37654 0.82537 0.0
C1785 C 0.16236 0.3706 0.89475 0.0
C1786 C 0.15587 0.38651 0.80894 0.0
C1787 C 0.14755 0.39087 0.86223 0.0
C1788 C 0.14721 0.38536 0.93314 0.0
C1789 C 0.15444 0.3753 0.94895 0.0
C1790 C 0.12482 0.41658 0.87906 0.0
C1791 C 0.1174 0.41442 0.81647 0.0
C1792 C 0.13508 0.40939 0.89206 0.0
C1793 C 0.13822 0.40005 0.84201 0.0
C1794 C 0.13129 0.39853 0.77663 0.0
C1795 C 0.12094 0.40557 0.76432 0.0
H1796 H 0.87986 0.91995 0.07759 0.0
H1797 H 0.8841 0.90327 0.29481 0.0
H1798 H 0.86255 0.9066 0.05176 0.0
H1799 H 0.86686 0.8901 0.2695 0.0
H1800 H 0.84944 0.86626 1.0061 0.0
H1801 H 0.86213 0.88387 0.0309 0.0
H1802 H 0.84431 0.88894 0.24355 0.0
H1803 H 0.83145 0.87124 0.21828 0.0
C1804 C 0.87692 0.91365 0.12041 0.0
C1805 C 0.88339 0.91258 0.18793 0.0
C1806 C 0.86706 0.90597 0.10555 0.0
C1807 C 0.86336 0.89726 0.15854 0.0
C1808 C 0.86939 0.89676 0.2278 0.0
C1809 C 0.87933 0.90426 0.24206 0.0
C1810 C 0.84807 0.87124 0.05766 0.0
C1811 C 0.83952 0.8673 0.11056 0.0
C1812 C 0.85529 0.88141 0.07155 0.0
C1813 C 0.85425 0.88779 0.13923 0.0
C1814 C 0.84535 0.88416 0.19099 0.0
C1815 C 0.83796 0.87407 0.17646 0.0
H1816 H 0.33065 0.62937 0.30213 0.0
H1817 H 0.34816 0.63445 0.51628 0.0
H1818 H 0.34367 0.61178 0.27815 0.0
H1819 H 0.36101 0.61692 0.49272 0.0
H1820 H 0.38347 0.59743 0.23085 0.0
H1821 H 0.36637 0.6108 0.25499 0.0
H1822 H 0.36136 0.5941 0.47144 0.0
H1823 H 0.37853 0.58054 0.44681 0.0
C1824 C 0.33709 0.62659 0.34465 0.0
C1825 C 0.33846 0.63335 0.41077 0.0
C1826 C 0.34457 0.61656 0.33084 0.0
C1827 C 0.35338 0.61298 0.38352 0.0
C1828 C 0.35424 0.61936 0.45136 0.0
C1829 C 0.34694 0.62947 0.46456 0.0
C1830 C 0.3786 0.59645 0.28311 0.0
C1831 C 0.38239 0.58799 0.33718 0.0
C1832 C 0.36873 0.60406 0.29667 0.0
C1833 C 0.36253 0.60353 0.36517 0.0
C1834 C 0.36601 0.59474 0.41823 0.0
C1835 C 0.37579 0.58695 0.40405 0.0
H1836 H 0.62393 0.07897 0.55497 0.0
H1837 H 0.61852 0.09565 0.7709 0.0
H1838 H 0.64139 0.09231 0.53315 0.0
H1839 H 0.63588 0.10882 0.74952 0.0
H1840 H 0.67133 0.12793 0.70689 0.0
H1841 H 0.65849 0.11012 0.72916 0.0
H1842 H 0.64199 0.11493 0.51171 0.0
H1843 H 0.65467 0.13265 0.4899 0.0
C1844 C 0.62664 0.08527 0.59839 0.0
C1845 C 0.6198 0.08635 0.66433 0.0
C1846 C 0.63658 0.09294 0.58582 0.0
C1847 C 0.64 0.10165 0.63955 0.0
C1848 C 0.63359 0.10215 0.70732 0.0
C1849 C 0.62357 0.09466 0.7193 0.0
C1850 C 0.66515 0.125 0.66336 0.0
C1851 C 0.66393 0.13174 0.59695 0.0
C1852 C 0.65776 0.11485 0.67618 0.0
C1853 C 0.6492 0.11113 0.62224 0.0
C1854 C 0.64856 0.11746 0.55408 0.0
C1855 C 0.65577 0.12768 0.54185 0.0
H1856 H 0.82567 0.37486 0.842 0.0
H1857 H 0.84637 0.36477 0.03758 0.0
H1858 H 0.83808 0.39322 0.82857 0.0
H1859 H 0.85858 0.38308 0.02501 0.0
H1860 H 0.87637 0.41962 1.00237 0.0
H1861 H 0.85882 0.40635 0.02358 0.0
H1862 H 0.86061 0.39435 0.79383 0.0
H1863 H 0.87814 0.40737 0.7732 0.0
C1864 C 0.83262 0.37675 0.88331 0.0
C1865 C 0.83512 0.36837 0.94052 0.0
C1866 C 0.83975 0.38721 0.87546 0.0
C1867 C 0.84933 0.38958 0.92567 0.0
C1868 C 0.85121 0.38159 0.98588 0.0
C1869 C 0.84427 0.37106 0.99279 0.0
C1870 C 0.87279 0.41438 0.95605 0.0
C1871 C 0.87865 0.41445 0.8863 0.0
C1872 C 0.8628 0.40675 0.96823 0.0
C1873 C 0.85835 0.39929 0.91038 0.0
C1874 C 0.86372 0.40006 0.8393 0.0
C1875 C 0.87382 0.40747 0.82762 0.0
H1876 H 0.37739 0.07924 0.57961 0.0
H1877 H 0.38494 0.09776 0.78724 0.0
H1878 H 0.35896 0.09149 0.56358 0.0
H1879 H 0.36645 0.10969 0.77243 0.0
H1880 H 0.32898 0.12584 0.7411 0.0
H1881 H 0.34244 0.10829 0.75798 0.0
H1882 H 0.35862 0.11542 0.54261 0.0
H1883 H 0.34549 0.13307 0.52689 0.0
C1884 C 0.37489 0.08563 0.62293 0.0
C1885 C 0.38258 0.0876 0.68455 0.0
C1886 C 0.3644 0.09266 0.61364 0.0
C1887 C 0.36128 0.10152 0.66688 0.0
C1888 C 0.36855 0.10285 0.73097 0.0
C1889 C 0.37916 0.09607 0.73925 0.0
C1890 C 0.33517 0.12341 0.69657 0.0
C1891 C 0.33624 0.13078 0.63275 0.0
C1892 C 0.3429 0.11343 0.70635 0.0
C1893 C 0.35156 0.1105 0.65153 0.0
C1894 C 0.35195 0.11738 0.58537 0.0
C1895 C 0.34448 0.1275 0.57652 0.0
H1896 H 0.61862 0.59616 0.26303 0.0
H1897 H 0.62119 0.58101 0.4854 0.0
H1898 H 0.63602 0.60909 0.28853 0.0
H1899 H 0.6387 0.59408 0.51133 0.0
H1900 H 0.65203 0.63436 0.55132 0.0
H1901 H 0.63943 0.61666 0.52758 0.0
H1902 H 0.65817 0.61059 0.31895 0.0
H1903 H 0.67089 0.62842 0.34302 0.0
C1904 C 0.6231 0.5954 0.31689 0.0
C1905 C 0.6185 0.58763 0.37239 0.0
C1906 C 0.63313 0.60277 0.33135 0.0
C1907 C 0.63871 0.60268 0.40211 0.0
C1908 C 0.63454 0.5944 0.4564 0.0
C1909 C 0.62457 0.58686 0.44145 0.0
C1910 C 0.65361 0.62915 0.50088 0.0
C1911 C 0.66238 0.63286 0.44866 0.0
C1912 C 0.64645 0.61892 0.48763 0.0
C1913 C 0.64777 0.61221 0.42132 0.0
C1914 C 0.6569 0.61561 0.37042 0.0
C1915 C 0.66421 0.62578 0.38427 0.0
H1916 H 0.15491 0.86655 1.00395 0.0
H1917 H 0.17168 0.87117 0.22069 0.0
H1918 H 0.14202 0.88406 0.02694 0.0
H1919 H 0.15862 0.88878 0.24414 0.0
H1920 H 0.12348 0.91972 0.07337 0.0
H1921 H 0.14106 0.90665 0.04979 0.0
H1922 H 0.13602 0.88962 0.26524 0.0
H1923 H 0.11853 0.90252 0.28835 0.0
C1924 C 0.15599 0.87146 0.05608 0.0
C1925 C 0.16424 0.86743 0.1108 0.0
C1926 C 0.14866 0.88156 0.06899 0.0
C1927 C 0.14926 0.88779 0.13745 0.0
C1928 C 0.15792 0.88411 0.19095 0.0
C1929 C 0.16542 0.87409 0.17745 0.0
C1930 C 0.1263 0.91335 0.11617 0.0
C1931 C 0.11957 0.91206 0.18237 0.0
C1932 C 0.13632 0.90584 0.1026 0.0
C1933 C 0.13992 0.89708 0.15562 0.0
C1934 C 0.13358 0.89634 0.22359 0.0
C1935 C 0.12349 0.90367 0.23654 0.0
H1936 H 0.87591 0.57808 0.10723 0.0
H1937 H 0.88547 0.59917 0.30205 0.0
H1938 H 0.85801 0.59092 0.0879 0.0
H1939 H 0.86757 0.6118 0.2836 0.0
H1940 H 0.8452 0.63101 0.02296 0.0
H1941 H 0.85792 0.61347 0.04997 0.0
H1942 H 0.8442 0.61249 0.27606 0.0
H1943 H 0.83122 0.63004 0.24842 0.0
C1944 C 0.87398 0.5852 0.14719 0.0
C1945 C 0.8821 0.58768 0.20588 0.0
C1946 C 0.86378 0.59258 0.13592 0.0
C1947 C 0.86142 0.60239 0.18413 0.0
C1948 C 0.86908 0.60427 0.24593 0.0
C1949 C 0.87937 0.59707 0.25625 0.0
C1950 C 0.8447 0.6269 0.07799 0.0
C1951 C 0.83728 0.63193 0.13373 0.0
C1952 C 0.85192 0.61679 0.09328 0.0
C1953 C 0.85207 0.61161 0.16514 0.0
C1954 C 0.84427 0.61632 0.22018 0.0
C1955 C 0.83682 0.62631 0.20433 0.0
H1956 H 0.17037 0.12879 0.83232 0.0
H1957 H 0.15337 0.13279 0.04837 0.0
H1958 H 0.15749 0.11115 0.80652 0.0
H1959 H 0.14063 0.11523 0.02296 0.0
H1960 H 0.11763 0.09727 0.75731 0.0
H1961 H 0.13497 0.11025 0.78345 0.0
H1962 H 0.13973 0.09272 0.99777 0.0
H1963 H 0.12229 0.07958 0.97116 0.0
C1964 C 0.16411 0.12573 0.87496 0.0
C1965 C 0.16281 0.13223 0.94208 0.0
C1966 C 0.15669 0.11568 0.86008 0.0
C1967 C 0.14799 0.11182 0.91259 0.0
C1968 C 0.14729 0.11788 0.98161 0.0
C1969 C 0.15455 0.128 0.99594 0.0
C1970 C 0.12249 0.09603 0.80952 0.0
C1971 C 0.11853 0.08747 0.86246 0.0
C1972 C 0.1325 0.10341 0.82422 0.0
C1973 C 0.13872 0.10255 0.89274 0.0
C1974 C 0.13508 0.09363 0.94457 0.0
C1975 C 0.12514 0.08608 0.92926 0.0
H1976 H 0.61547 0.40399 0.79032 0.0
H1977 H 0.62065 0.42109 0.57524 0.0
H1978 H 0.63297 0.39105 0.76809 0.0
H1979 H 0.63823 0.40797 0.55251 0.0
H1980 H 0.65207 0.36784 0.50786 0.0
H1981 H 0.63909 0.38529 0.53043 0.0
H1982 H 0.65568 0.39026 0.74742 0.0
H1983 H 0.66886 0.37272 0.72433 0.0
C1984 C 0.62048 0.40511 0.73868 0.0
C1985 C 0.61663 0.41348 0.68423 0.0
C1986 C 0.63058 0.39776 0.72623 0.0
C1987 C 0.63698 0.39845 0.65848 0.0
C1988 C 0.63345 0.4072 0.60518 0.0
C1989 C 0.62342 0.41473 0.61825 0.0
C1990 C 0.65312 0.37278 0.55988 0.0
C1991 C 0.66142 0.36885 0.6146 0.0
C1992 C 0.64573 0.38285 0.57254 0.0
C1993 C 0.64632 0.38915 0.64077 0.0
C1994 C 0.65499 0.38555 0.69438 0.0
C1995 C 0.66256 0.37556 0.6811 0.0
H1996 H 0.37845 0.92023 0.4966 0.0
H1997 H 0.37974 0.90715 0.26905 0.0
H1998 H 0.36086 0.90716 0.5208 0.0
H1999 H 0.36217 0.89432 0.29266 0.0
H2000 H 0.34806 0.86576 0.5414 0.0
H2001 H 0.36035 0.88395 0.52585 0.0
H2002 H 0.33976 0.89347 0.32861 0.0
H2003 H 0.32727 0.87524 0.34492 0.0
C2004 C 0.37476 0.91484 0.45126 0.0
C2005 C 0.38049 0.91463 0.38111 0.0
C2006 C 0.36475 0.90733 0.46516 0.0
C2007 C 0.36015 0.89969 0.40865 0.0
C2008 C 0.3654 0.90017 0.33713 0.0
C2009 C 0.37552 0.90747 0.32374 0.0
C2010 C 0.34594 0.8719 0.49583 0.0
C2011 C 0.33676 0.86906 0.44415 0.0
C2012 C 0.35294 0.88236 0.48718 0.0
C2013 C 0.35106 0.89012 0.42583 0.0
C2014 C 0.34143 0.88763 0.37632 0.0
C2015 C 0.33425 0.87725 0.38585 0.0
H2016 H 0.0804 0.46533 0.98188 0.0
H2017 H 0.11587 0.47472 0.89777 0.0
H2018 H 0.07889 0.48508 0.04138 0.0
H2019 H 0.11437 0.49455 0.95836 0.0
H2020 H 0.09967 0.53362 1.01251 0.0
H2021 H 0.10257 0.51398 0.95076 0.0
H2022 H 0.08837 0.49581 0.14603 0.0
H2023 H 0.08538 0.51521 0.20698 0.0
C2024 C 0.08791 0.47158 0.97624 0.0
C2025 C 0.09828 0.4684 0.93517 0.0
C2026 C 0.08706 0.48291 1.01071 0.0
C2027 C 0.09654 0.49138 1.00493 0.0
C2028 C 0.10688 0.48826 0.96342 0.0
C2029 C 0.10777 0.47686 0.92918 0.0
C2030 C 0.09726 0.52541 0.04232 0.0
C2031 C 0.09219 0.52602 0.11444 0.0
C2032 C 0.09895 0.51417 1.00707 0.0
C2033 C 0.09556 0.50334 0.04318 0.0
C2034 C 0.09085 0.50398 0.11603 0.0
C2035 C 0.08919 0.51514 0.15113 0.0
H2036 H 0.71573 0.83954 0.25582 0.0
H2037 H 0.73413 0.85067 0.45774 0.0
H2038 H 0.73467 0.8408 0.18704 0.0
H2039 H 0.75301 0.85267 0.3885 0.0
H2040 H 0.78709 0.8392 0.26839 0.0
H2041 H 0.76816 0.84096 0.33704 0.0
H2042 H 0.74993 0.85214 0.13362 0.0
H2043 H 0.76877 0.84965 0.0647 0.0
C2044 C 0.72378 0.84258 0.28502 0.0
C2045 C 0.72346 0.84496 0.36218 0.0
C2046 C 0.73469 0.84336 0.24553 0.0
C2047 C 0.74553 0.84677 0.28195 0.0
C2048 C 0.745 0.84971 0.35862 0.0
C2049 C 0.73414 0.84868 0.39834 0.0
C2050 C 0.77906 0.8422 0.23873 0.0
C2051 C 0.77939 0.84424 0.16119 0.0
C2052 C 0.76816 0.84326 0.27812 0.0
C2053 C 0.75736 0.84662 0.24114 0.0
C2054 C 0.75791 0.84923 0.16399 0.0
C2055 C 0.76875 0.84791 0.12443 0.0
H2056 H 0.40924 0.53551 0.50263 0.0
H2057 H 0.39984 0.51636 0.30013 0.0
H2058 H 0.40743 0.5168 0.5738 0.0
H2059 H 0.39727 0.49772 0.37148 0.0
H2060 H 0.4099 0.46411 0.50032 0.0
H2061 H 0.40854 0.4828 0.42864 0.0
H2062 H 0.39586 0.50163 0.62601 0.0
H2063 H 0.39797 0.48301 0.69826 0.0
C2064 C 0.40645 0.52734 0.47371 0.0
C2065 C 0.40472 0.52738 0.39583 0.0
C2066 C 0.40536 0.51656 0.51456 0.0
C2067 C 0.40228 0.50559 0.47871 0.0
C2068 C 0.39997 0.50584 0.4011 0.0
C2069 C 0.40132 0.51657 0.36012 0.0
C2070 C 0.40665 0.47221 0.52799 0.0
C2071 C 0.40408 0.47211 0.60491 0.0
C2072 C 0.40582 0.48298 0.4868 0.0
C2073 C 0.40216 0.49388 0.52122 0.0
C2074 C 0.39902 0.49356 0.59763 0.0
C2075 C 0.40011 0.48285 0.63907 0.0
H2076 H 0.77323 0.13477 0.88365 0.0
H2077 H 0.78584 0.1657 0.75748 0.0
H2078 H 0.75339 0.13649 0.82293 0.0
H2079 H 0.76611 0.16762 0.69899 0.0
H2080 H 0.73412 0.16159 0.5502 0.0
H2081 H 0.75352 0.15762 0.60938 0.0
H2082 H 0.73539 0.14957 0.81776 0.0
H2083 H 0.71577 0.15328 0.75742 0.0
C2084 C 0.77179 0.14192 0.843 0.0
C2085 C 0.78116 0.15011 0.82559 0.0
C2086 C 0.76039 0.14296 0.80865 0.0
C2087 C 0.75813 0.15217 0.75585 0.0
C2088 C 0.76754 0.16029 0.73841 0.0
C2089 C 0.77888 0.15926 0.77258 0.0
C2090 C 0.73422 0.15892 0.60859 0.0
C2091 C 0.72338 0.15788 0.64925 0.0
C2092 C 0.74538 0.1567 0.64269 0.0
C2093 C 0.74607 0.15346 0.71873 0.0
C2094 C 0.7352 0.152 0.75899 0.0
C2095 C 0.72396 0.15417 0.72454 0.0
H2096 H 0.92348 0.48169 0.89733 0.0
H2097 H 0.89203 0.46713 1.00899 0.0
H2098 H 0.92023 0.50109 0.95655 0.0
H2099 H 0.88826 0.48699 0.06597 0.0
H2100 H 0.89264 0.52165 0.2108 0.0
H2101 H 0.89453 0.50157 0.15439 0.0
H2102 H 0.90821 0.51805 0.95161 0.0
H2103 H 0.90705 0.53783 1.00985 0.0
C2104 C 0.91573 0.4827 0.93391 0.0
C2105 C 0.90794 0.47291 0.94787 0.0
C2106 C 0.91379 0.49392 0.96759 0.0
C2107 C 0.90382 0.49581 1.01514 0.0
C2108 C 0.89607 0.48592 0.03005 0.0
C2109 C 0.89818 0.47455 0.99718 0.0
C2110 C 0.89597 0.52093 0.15397 0.0
C2111 C 0.8998 0.53132 0.11499 0.0
C2112 C 0.89702 0.50941 0.1214 0.0
C2113 C 0.90172 0.50806 0.0486 0.0
C2114 C 0.90494 0.51859 1.00861 0.0
C2115 C 0.90416 0.53002 0.04174 0.0
H2116 H 0.21542 0.14442 0.82841 0.0
H2117 H 0.2303 0.17693 0.92644 0.0
H2118 H 0.23524 0.13968 0.77441 0.0
H2119 H 0.24972 0.17271 0.86972 0.0
H2120 H 0.28636 0.1583 0.82327 0.0
H2121 H 0.26655 0.16063 0.88012 0.0
H2122 H 0.24992 0.14449 0.68454 0.0
H2123 H 0.26995 0.14146 0.63004 0.0
C2124 C 0.2229 0.1506 0.83766 0.0
C2125 C 0.22135 0.16095 0.88238 0.0
C2126 C 0.23426 0.14794 0.80651 0.0
C2127 C 0.24425 0.1557 0.81839 0.0
C2128 C 0.24246 0.16625 0.8612 0.0
C2129 C 0.23124 0.16876 0.89335 0.0
C2130 C 0.27848 0.15511 0.79287 0.0
C2131 C 0.27972 0.14973 0.72216 0.0
C2132 C 0.26706 0.15657 0.82507 0.0
C2133 C 0.25649 0.15299 0.78653 0.0
C2134 C 0.25778 0.14728 0.71645 0.0
C2135 C 0.26928 0.14557 0.68495 0.0
H2136 H 0.59308 0.48342 0.74904 0.0
H2137 H 0.59055 0.46795 0.52754 0.0
H2138 H 0.59358 0.50366 0.69533 0.0
H2139 H 0.59089 0.48844 0.47326 0.0
H2140 H 0.59832 0.52969 0.41195 0.0
H2141 H 0.60254 0.50907 0.45836 0.0
H2142 H 0.57626 0.51422 0.6342 0.0
H2143 H 0.57211 0.53447 0.58885 0.0
C2144 C 0.59282 0.48434 0.68863 0.0
C2145 C 0.59159 0.47411 0.64258 0.0
C2146 C 0.59308 0.49595 0.65787 0.0
C2147 C 0.59203 0.49766 0.58018 0.0
C2148 C 0.59172 0.4874 0.53336 0.0
C2149 C 0.59152 0.47568 0.56439 0.0
C2150 C 0.59353 0.52639 0.46078 0.0
C2151 C 0.58489 0.53373 0.49674 0.0
C2152 C 0.5959 0.51459 0.487 0.0
C2153 C 0.58981 0.51007 0.55035 0.0
C2154 C 0.58126 0.51748 0.58606 0.0
C2155 C 0.57881 0.5291 0.5596 0.0
H2156 H 0.27068 0.85527 0.44213 0.0
H2157 H 0.28846 0.84662 0.23422 0.0
H2158 H 0.25095 0.85289 0.38139 0.0
H2159 H 0.26896 0.84492 0.17217 0.0
H2160 H 0.21664 0.85502 0.23627 0.0
H2161 H 0.23606 0.85956 0.29669 0.0
H2162 H 0.25309 0.83149 0.16471 0.0
H2163 H 0.23405 0.82754 0.10242 0.0
C2164 C 0.27035 0.85311 0.38298 0.0
C2165 C 0.28109 0.85097 0.34307 0.0
C2166 C 0.25904 0.85178 0.34795 0.0
C2167 C 0.25825 0.84849 0.27183 0.0
C2168 C 0.2691 0.84703 0.23136 0.0
C2169 C 0.28034 0.84809 0.26676 0.0
C2170 C 0.22459 0.84991 0.22015 0.0
C2171 C 0.22383 0.84103 0.16397 0.0
C2172 C 0.23572 0.85245 0.25502 0.0
C2173 C 0.24629 0.84602 0.23521 0.0
C2174 C 0.24534 0.83696 0.18009 0.0
C2175 C 0.23433 0.83459 0.14456 0.0
H2176 H 0.5847 0.96417 0.49953 0.0
H2177 H 0.61606 0.97591 0.37449 0.0
H2178 H 0.58351 0.98391 0.55894 0.0
H2179 H 0.61501 0.99573 0.4357 0.0
H2180 H 0.59911 0.0338 0.50204 0.0
H2181 H 0.60227 0.01416 0.441 0.0
H2182 H 0.5943 0.99595 0.64942 0.0
H2183 H 0.59093 0.01538 0.70943 0.0
C2184 C 0.5914 0.97094 0.48493 0.0
C2185 C 0.60047 0.96842 0.43209 0.0
C2186 C 0.59077 0.98227 0.51951 0.0
C2187 C 0.59921 0.99142 0.50247 0.0
C2188 C 0.60832 0.98892 0.44968 0.0
C2189 C 0.60897 0.97753 0.41504 0.0
C2190 C 0.59815 0.02559 0.53482 0.0
C2191 C 0.59462 0.02616 0.61035 0.0
C2192 C 0.6 0.01434 0.49995 0.0
C2193 C 0.59836 0.00346 0.54004 0.0
C2194 C 0.59535 0.00412 0.61632 0.0
C2195 C 0.59347 0.01529 0.65088 0.0
H2196 H 0.2152 0.34734 0.75277 0.0
H2197 H 0.23227 0.34374 0.96956 0.0
H2198 H 0.23514 0.35016 0.69529 0.0
H2199 H 0.252 0.34681 0.9129 0.0
H2200 H 0.28512 0.33567 0.77912 0.0
H2201 H 0.26513 0.33503 0.83498 0.0
H2202 H 0.25308 0.36328 0.68461 0.0
H2203 H 0.27316 0.3637 0.62685 0.0
C2204 C 0.22317 0.34733 0.78825 0.0
C2205 C 0.22216 0.34516 0.86558 0.0
C2206 C 0.2346 0.34898 0.7554 0.0
C2207 C 0.24521 0.34854 0.79933 0.0
C2208 C 0.24407 0.34691 0.87706 0.0
C2209 C 0.23273 0.3452 0.90964 0.0
C2210 C 0.27825 0.34177 0.75778 0.0
C2211 C 0.28077 0.3497 0.69821 0.0
C2212 C 0.26677 0.34147 0.79034 0.0
C2213 C 0.25747 0.34914 0.76455 0.0
C2214 C 0.25999 0.35717 0.70538 0.0
C2215 C 0.27153 0.35748 0.6727 0.0
H2216 H 0.91049 0.96675 0.03303 0.0
H2217 H 0.90747 0.98209 0.25452 0.0
H2218 H 0.90997 0.98725 0.979 0.0
H2219 H 0.9067 0.00234 0.2011 0.0
H2220 H 0.92701 0.03402 0.09788 0.0
H2221 H 0.92328 0.01372 0.14359 0.0
H2222 H 0.89844 0.00729 0.9607 0.0
H2223 H 0.90231 0.02792 0.91367 0.0
C2224 C 0.90939 0.97446 0.0699 0.0
C2225 C 0.90922 0.97285 0.14804 0.0
C2226 C 0.90908 0.98619 0.03903 0.0
C2227 C 0.90854 0.99643 0.08594 0.0
C2228 C 0.90741 0.99467 0.16354 0.0
C2229 C 0.90782 0.98305 0.19416 0.0
C2230 C 0.92071 0.02835 0.06718 0.0
C2231 C 0.91497 0.03261 1.00202 0.0
C2232 C 0.91849 0.0167 0.09386 0.0
C2233 C 0.91047 0.0089 0.05623 0.0
C2234 C 0.90468 0.0131 0.99084 0.0
C2235 C 0.90683 0.02491 0.96425 0.0
H2236 H 0.28609 0.66153 0.24174 0.0
H2237 H 0.26787 0.65129 0.44556 0.0
H2238 H 0.26716 0.65962 0.17283 0.0
H2239 H 0.24904 0.64848 0.37639 0.0
H2240 H 0.21464 0.66063 0.25438 0.0
H2241 H 0.2336 0.65926 0.32336 0.0
H2242 H 0.252 0.6484 0.1203 0.0
H2243 H 0.23311 0.65067 0.05101 0.0
C2244 C 0.27808 0.65851 0.27131 0.0
C2245 C 0.27841 0.6566 0.34894 0.0
C2246 C 0.26717 0.65735 0.23178 0.0
C2247 C 0.25639 0.65397 0.26868 0.0
C2248 C 0.25698 0.65143 0.34596 0.0
C2249 C 0.26781 0.65291 0.3857 0.0
C2250 C 0.22272 0.65779 0.22493 0.0
C2251 C 0.22243 0.65581 0.14738 0.0
C2252 C 0.23365 0.65694 0.26451 0.0
C2253 C 0.24452 0.6538 0.22776 0.0
C2254 C 0.24399 0.65118 0.1506 0.0
C2255 C 0.23312 0.65235 0.11079 0.0
H2256 H 0.39242 0.0226 0.68777 0.0
H2257 H 0.41035 0.03787 0.49497 0.0
H2258 H 0.39472 0.00233 0.63494 0.0
H2259 H 0.41194 0.01787 0.43978 0.0
H2260 H 0.42684 0.98097 0.39724 0.0
H2261 H 0.42334 0.0006 0.45315 0.0
H2262 H 0.38947 0.98769 0.54503 0.0
H2263 H 0.39346 0.9676 0.49185 0.0
C2264 C 0.39662 0.02165 0.63333 0.0
C2265 C 0.40128 0.03183 0.59576 0.0
C2266 C 0.39791 0.01001 0.60279 0.0
C2267 C 0.4037 0.00833 0.53335 0.0
C2268 C 0.4078 0.01866 0.49442 0.0
C2269 C 0.40676 0.03021 0.52567 0.0
C2270 C 0.41863 0.9823 0.42941 0.0
C2271 C 0.41036 0.97278 0.43959 0.0
C2272 C 0.41655 0.99364 0.46108 0.0
C2273 C 0.40597 0.99593 0.50254 0.0
C2274 C 0.39775 0.9863 0.51387 0.0
C2275 C 0.39999 0.9748 0.48322 0.0
H2276 H 0.71446 0.66197 0.28296 0.0
H2277 H 0.73302 0.65129 0.48525 0.0
H2278 H 0.73331 0.66049 0.21355 0.0
H2279 H 0.7518 0.64895 0.41545 0.0
H2280 H 0.78593 0.66168 0.29382 0.0
H2281 H 0.76706 0.66011 0.36302 0.0
H2282 H 0.74848 0.64945 0.15965 0.0
H2283 H 0.76728 0.65189 0.09019 0.0
C2284 C 0.72253 0.65895 0.31207 0.0
C2285 C 0.72229 0.65677 0.38945 0.0
C2286 C 0.7334 0.65804 0.27223 0.0
C2287 C 0.74426 0.65467 0.30854 0.0
C2288 C 0.74379 0.6519 0.38553 0.0
C2289 C 0.73298 0.65311 0.4256 0.0
C2290 C 0.77783 0.65885 0.2643 0.0
C2291 C 0.77805 0.65696 0.18665 0.0
C2292 C 0.76695 0.65788 0.30402 0.0
C2293 C 0.75607 0.65472 0.26729 0.0
C2294 C 0.75651 0.65224 0.18995 0.0
C2295 C 0.76733 0.65351 0.15003 0.0
H2296 H 0.09006 0.9639 0.02009 0.0
H2297 H 0.10142 0.98291 0.21921 0.0
H2298 H 0.09124 0.98264 0.94872 0.0
H2299 H 0.10338 0.00158 0.14738 0.0
H2300 H 0.09022 0.03542 0.02327 0.0
H2301 H 0.09188 0.01667 0.09425 0.0
H2302 H 0.10237 0.9977 0.8925 0.0
H2303 H 0.09992 0.01637 0.82128 0.0
C2304 C 0.09314 0.97204 0.0481 0.0
C2305 C 0.09561 0.97196 0.12522 0.0
C2306 C 0.09388 0.98284 1.00712 0.0
C2307 C 0.09735 0.99379 0.04194 0.0
C2308 C 0.10037 0.99349 0.11862 0.0
C2309 C 0.09936 0.98275 0.15985 0.0
C2310 C 0.09303 0.02726 0.99445 0.0
C2311 C 0.0949 0.02735 0.91674 0.0
C2312 C 0.09404 0.01646 0.03519 0.0
C2313 C 0.0972 0.00551 0.99946 0.0
C2314 C 0.09961 0.0058 0.92204 0.0
C2315 C 0.09833 0.01654 0.88112 0.0
H2316 H 0.7142 0.34748 0.76937 0.0
H2317 H 0.73253 0.34277 0.5579 0.0
H2318 H 0.7338 0.35052 0.83132 0.0
H2319 H 0.75192 0.34603 0.619 0.0
H2320 H 0.78419 0.33551 0.76322 0.0
H2321 H 0.76449 0.33454 0.70304 0.0
H2322 H 0.75174 0.36372 0.84338 0.0
H2323 H 0.77152 0.36451 0.90541 0.0
C2324 C 0.72237 0.34727 0.73596 0.0
C2325 C 0.7218 0.34473 0.65886 0.0
C2326 C 0.7336 0.34905 0.77138 0.0
C2327 C 0.74446 0.34835 0.73032 0.0
C2328 C 0.74378 0.34634 0.65272 0.0
C2329 C 0.73263 0.34453 0.61757 0.0
C2330 C 0.77722 0.34173 0.78152 0.0
C2331 C 0.77946 0.35006 0.83944 0.0
C2332 C 0.76591 0.34125 0.74644 0.0
C2333 C 0.75651 0.34909 0.76805 0.0
C2334 C 0.75874 0.35748 0.82578 0.0
C2335 C 0.77011 0.35799 0.86092 0.0
H2336 H 0.03078 0.57888 0.18475 0.0
H2337 H 0.03097 0.53994 0.158 0.0
H2338 H 0.00887 0.57882 0.18313 0.0
H2339 H 0.00896 0.54001 0.14995 0.0
H2340 H 0.96878 0.54295 0.2135 0.0
H2341 H 0.9909 0.54225 0.21727 0.0
H2342 H 0.99231 0.57689 0.10392 0.0
H2343 H 0.97028 0.57775 0.10377 0.0
C2344 C 0.02619 0.57026 0.1788 0.0
C2345 C 0.03277 0.5594 0.1721 0.0
C2346 C 0.01354 0.57026 0.17631 0.0
C2347 C 0.00703 0.55943 0.16565 0.0
C2348 C 0.01359 0.54854 0.159 0.0
C2349 C 0.02627 0.54852 0.16257 0.0
C2350 C 0.97388 0.55036 0.18914 0.0
C2351 C 0.96784 0.56044 0.15887 0.0
C2352 C 0.98656 0.54996 0.19096 0.0
C2353 C 0.9935 0.55957 0.1615 0.0
C2354 C 0.98736 0.56947 0.12908 0.0
C2355 C 0.97471 0.56994 0.12842 0.0
H2356 H 0.69421 0.71993 0.58339 0.0
H2357 H 0.69321 0.71962 0.34204 0.0
H2358 H 0.69545 0.74203 0.5823 0.0
H2359 H 0.69372 0.74165 0.34015 0.0
H2360 H 0.70388 0.78077 0.34885 0.0
H2361 H 0.70506 0.75892 0.35647 0.0
H2362 H 0.68463 0.75966 0.56277 0.0
H2363 H 0.68452 0.78162 0.55904 0.0
C2364 C 0.69419 0.72464 0.53012 0.0
C2365 C 0.6937 0.71808 0.46284 0.0
C2366 C 0.69481 0.73732 0.5293 0.0
C2367 C 0.69468 0.74378 0.46109 0.0
C2368 C 0.69414 0.73711 0.39384 0.0
C2369 C 0.69378 0.72444 0.39474 0.0
C2370 C 0.6999 0.77636 0.39703 0.0
C2371 C 0.6941 0.78313 0.45332 0.0
C2372 C 0.70036 0.76371 0.40063 0.0
C2373 C 0.69482 0.75736 0.4598 0.0
C2374 C 0.68915 0.76413 0.5166 0.0
C2375 C 0.68889 0.77681 0.51375 0.0
H2376 H 0.46836 0.45323 0.59187 0.0
H2377 H 0.46808 0.43413 0.80343 0.0
H2378 H 0.4902 0.45456 0.5978 0.0
H2379 H 0.49003 0.4344 0.80553 0.0
H2380 H 0.52974 0.4443 0.82248 0.0
H2381 H 0.50764 0.44534 0.82299 0.0
H2382 H 0.5075 0.44332 0.58094 0.0
H2383 H 0.52953 0.44301 0.58118 0.0
C2384 C 0.47289 0.44934 0.63999 0.0
C2385 C 0.46628 0.44356 0.69717 0.0
C2386 C 0.48555 0.44989 0.64263 0.0
C2387 C 0.49205 0.44447 0.7017 0.0
C2388 C 0.48545 0.43882 0.75939 0.0
C2389 C 0.47277 0.43847 0.7575 0.0
C2390 C 0.52492 0.44417 0.76957 0.0
C2391 C 0.53132 0.44366 0.70182 0.0
C2392 C 0.51223 0.44467 0.76967 0.0
C2393 C 0.50563 0.44441 0.70197 0.0
C2394 C 0.51215 0.44384 0.63426 0.0
C2395 C 0.52481 0.44359 0.63422 0.0
H2396 H 0.81705 0.27957 1.01112 0.0
H2397 H 0.80059 0.28062 0.79134 0.0
H2398 H 0.81685 0.2576 1.00787 0.0
H2399 H 0.79961 0.25859 0.79039 0.0
H2400 H 0.81262 0.2191 0.77669 0.0
H2401 H 0.81188 0.2412 0.77813 0.0
H2402 H 0.80442 0.24042 1.01572 0.0
H2403 H 0.8056 0.21836 1.01425 0.0
C2404 C 0.81335 0.27514 0.96206 0.0
C2405 C 0.80892 0.28196 0.90126 0.0
C2406 C 0.81305 0.26248 0.96072 0.0
C2407 C 0.80819 0.25623 0.89892 0.0
C2408 C 0.80357 0.26304 0.83857 0.0
C2409 C 0.80398 0.27573 0.83961 0.0
C2410 C 0.81072 0.22368 0.82902 0.0
C2411 C 0.80923 0.21701 0.89542 0.0
C2412 C 0.81026 0.23636 0.82991 0.0
C2413 C 0.80815 0.24268 0.89715 0.0
C2414 C 0.80634 0.23593 0.96317 0.0
C2415 C 0.80695 0.22327 0.96237 0.0
H2416 H 0.96815 0.44093 1.0026 0.0
H2417 H 0.96698 0.44011 0.76094 0.0
H2418 H 0.99027 0.44148 0.99881 0.0
H2419 H 0.98915 0.44058 0.75719 0.0
H2420 H 0.02873 0.45387 0.78436 0.0
H2421 H 0.00657 0.45467 0.78977 0.0
H2422 H 0.00674 0.42698 0.96076 0.0
H2423 H 0.02884 0.42623 0.95561 0.0
C2424 C 0.97262 0.44098 0.94865 0.0
C2425 C 0.96582 0.44049 0.88203 0.0
C2426 C 0.98529 0.44119 0.94652 0.0
C2427 C 0.99145 0.44106 0.87771 0.0
C2428 C 0.98465 0.44078 0.81103 0.0
C2429 C 0.97198 0.44042 0.81318 0.0
C2430 C 0.02402 0.44804 0.82351 0.0
C2431 C 0.03051 0.43997 0.86945 0.0
C2432 C 0.01134 0.44843 0.82617 0.0
C2433 C 0.00492 0.44088 0.87562 0.0
C2434 C 0.01144 0.43297 0.92248 0.0
C2435 C 0.02408 0.43247 0.91912 0.0
H2436 H 0.82655 0.78002 0.14311 0.0
H2437 H 0.79197 0.78115 0.03023 0.0
H2438 H 0.8254 0.75784 0.14839 0.0
H2439 H 0.79099 0.75887 0.03353 0.0
H2440 H 0.80648 0.71855 0.98091 0.0
H2441 H 0.80615 0.74081 0.975 0.0
H2442 H 0.8089 0.74247 0.2158 0.0
H2443 H 0.80888 0.72026 0.22189 0.0
C2444 C 0.81876 0.77549 0.11887 0.0
C2445 C 0.80936 0.78224 0.08603 0.0
C2446 C 0.81808 0.76285 0.12224 0.0
C2447 C 0.80811 0.7567 0.09138 0.0
C2448 C 0.79878 0.76343 0.0575 0.0
C2449 C 0.79932 0.77612 0.05576 0.0
C2450 C 0.80688 0.72371 0.03247 0.0
C2451 C 0.80765 0.71774 0.10186 0.0
C2452 C 0.80666 0.73639 0.02911 0.0
C2453 C 0.80752 0.7433 0.09496 0.0
C2454 C 0.80825 0.73732 0.16431 0.0
C2455 C 0.80817 0.72466 0.16779 0.0
H2456 H 0.46922 0.56003 0.20384 0.0
H2457 H 0.46795 0.55196 0.44043 0.0
H2458 H 0.49136 0.56051 0.20951 0.0
H2459 H 0.49001 0.55215 0.44563 0.0
H2460 H 0.52748 0.57042 0.444 0.0
H2461 H 0.50558 0.56805 0.4359 0.0
H2462 H 0.50964 0.54762 0.23129 0.0
H2463 H 0.53165 0.5502 0.23871 0.0
C2464 C 0.47367 0.55825 0.25686 0.0
C2465 C 0.46681 0.55598 0.32167 0.0
C2466 C 0.48635 0.55842 0.25997 0.0
C2467 C 0.49244 0.55643 0.3281 0.0
C2468 C 0.48559 0.55385 0.39244 0.0
C2469 C 0.47293 0.55361 0.38925 0.0
C2470 C 0.52371 0.56546 0.39708 0.0
C2471 C 0.53131 0.56055 0.34181 0.0
C2472 C 0.51116 0.56399 0.39287 0.0
C2473 C 0.50586 0.55761 0.33307 0.0
C2474 C 0.51344 0.55264 0.27782 0.0
C2475 C 0.52605 0.55403 0.28239 0.0
H2476 H 0.67108 0.2205 0.5668 0.0
H2477 H 0.70983 0.22013 0.60318 0.0
H2478 H 0.67134 0.24235 0.5635 0.0
H2479 H 0.70987 0.24213 0.60755 0.0
H2480 H 0.7082 0.28227 0.54572 0.0
H2481 H 0.70853 0.26013 0.54119 0.0
H2482 H 0.67256 0.25927 0.63703 0.0
H2483 H 0.67208 0.28131 0.6368 0.0
C2484 C 0.67971 0.22502 0.5739 0.0
C2485 C 0.69046 0.21836 0.58466 0.0
C2486 C 0.67981 0.23768 0.57366 0.0
C2487 C 0.6906 0.24418 0.58603 0.0
C2488 C 0.70137 0.23755 0.59689 0.0
C2489 C 0.70131 0.22484 0.59564 0.0
C2490 C 0.70038 0.27728 0.56543 0.0
C2491 C 0.69007 0.28347 0.59083 0.0
C2492 C 0.70057 0.26457 0.56343 0.0
C2493 C 0.69054 0.25776 0.58831 0.0
C2494 C 0.68034 0.26408 0.61528 0.0
C2495 C 0.68007 0.27674 0.61573 0.0
H2496 H 0.32642 0.27881 0.71279 0.0
H2497 H 0.29114 0.28001 0.60849 0.0
H2498 H 0.32518 0.25668 0.71945 0.0
H2499 H 0.28995 0.25782 0.61428 0.0
H2500 H 0.30297 0.21822 0.55008 0.0
H2501 H 0.30234 0.24041 0.55095 0.0
H2502 H 0.31178 0.24041 0.78565 0.0
H2503 H 0.31226 0.21819 0.78499 0.0
C2504 C 0.31841 0.27432 0.69135 0.0
C2505 C 0.30889 0.2811 0.65995 0.0
C2506 C 0.31766 0.26168 0.69563 0.0
C2507 C 0.30747 0.25555 0.66739 0.0
C2508 C 0.29793 0.26233 0.63621 0.0
C2509 C 0.29857 0.27499 0.63322 0.0
C2510 C 0.30481 0.22297 0.60192 0.0
C2511 C 0.30767 0.21651 0.66745 0.0
C2512 C 0.30439 0.23565 0.60252 0.0
C2513 C 0.30704 0.24211 0.66832 0.0
C2514 C 0.30976 0.23564 0.7341 0.0
C2515 C 0.30996 0.22295 0.73384 0.0
H2516 H 0.195 0.71898 0.95781 0.0
H2517 H 0.19065 0.71806 0.19783 0.0
H2518 H 0.19529 0.74127 0.96133 0.0
H2519 H 0.19058 0.74029 0.201 0.0
H2520 H 0.17368 0.77876 0.13654 0.0
H2521 H 0.17458 0.75654 0.13262 0.0
H2522 H 0.21024 0.75844 0.03494 0.0
H2523 H 0.20949 0.78071 0.04106 0.0
C2524 C 0.19414 0.72357 1.01117 0.0
C2525 C 0.19287 0.71686 0.07758 0.0
C2526 C 0.19434 0.73626 1.01319 0.0
C2527 C 0.19294 0.74243 0.08142 0.0
C2528 C 0.19165 0.73572 0.14776 0.0
C2529 C 0.19175 0.72304 0.14597 0.0
C2530 C 0.18169 0.77441 0.1142 0.0
C2531 C 0.19151 0.78139 0.08898 0.0
C2532 C 0.18222 0.76174 0.11225 0.0
C2533 C 0.19247 0.75584 0.08342 0.0
C2534 C 0.20223 0.76281 0.05716 0.0
C2535 C 0.20182 0.77549 0.06085 0.0
H2536 H 0.20694 0.28312 0.97801 0.0
H2537 H 0.17049 0.28277 0.89086 0.0
H2538 H 0.2068 0.26099 0.98432 0.0
H2539 H 0.17047 0.26073 0.89283 0.0
H2540 H 0.16869 0.22197 0.96553 0.0
H2541 H 0.16929 0.24386 0.96825 0.0
H2542 H 0.20754 0.24303 0.91684 0.0
H2543 H 0.20718 0.22104 0.92134 0.0
C2544 C 0.19894 0.27826 0.95962 0.0
C2545 C 0.18869 0.28463 0.93465 0.0
C2546 C 0.19886 0.26557 0.96267 0.0
C2547 C 0.1886 0.25894 0.93939 0.0
C2548 C 0.17843 0.26541 0.91322 0.0
C2549 C 0.17844 0.27808 0.91158 0.0
C2550 C 0.17732 0.22638 0.95657 0.0
C2551 C 0.1879 0.21957 0.94359 0.0
C2552 C 0.17762 0.23905 0.95659 0.0
C2553 C 0.18844 0.24537 0.94206 0.0
C2554 C 0.19904 0.23858 0.92919 0.0
C2555 C 0.19879 0.22589 0.93051 0.0
H2556 H 0.30701 0.72109 0.53264 0.0
H2557 H 0.30765 0.71912 0.29129 0.0
H2558 H 0.30681 0.74331 0.52545 0.0
H2559 H 0.30765 0.74129 0.28417 0.0
H2560 H 0.32499 0.77989 0.32356 0.0
H2561 H 0.32355 0.75774 0.32779 0.0
H2562 H 0.29224 0.76044 0.47112 0.0
H2563 H 0.29355 0.78264 0.46573 0.0
C2564 C 0.30705 0.72542 0.47818 0.0
C2565 C 0.30729 0.71841 0.41254 0.0
C2566 C 0.30689 0.7381 0.47405 0.0
C2567 C 0.30723 0.74399 0.40425 0.0
C2568 C 0.30742 0.73697 0.33865 0.0
C2569 C 0.30734 0.72431 0.34274 0.0
C2570 C 0.31777 0.77573 0.3556 0.0
C2571 C 0.30937 0.78295 0.39424 0.0
C2572 C 0.31692 0.76309 0.35776 0.0
C2573 C 0.30779 0.75741 0.39985 0.0
C2574 C 0.29939 0.76461 0.43853 0.0
C2575 C 0.30009 0.77728 0.43508 0.0
H2576 H 0.53269 0.058 0.54483 0.0
H2577 H 0.53213 0.05692 0.78621 0.0
H2578 H 0.51064 0.05845 0.54213 0.0
H2579 H 0.51003 0.05673 0.78419 0.0
H2580 H 0.47138 0.06998 0.76156 0.0
H2581 H 0.49328 0.06888 0.76354 0.0
H2582 H 0.49264 0.04795 0.55897 0.0
H2583 H 0.47076 0.05 0.55339 0.0
C2584 C 0.52781 0.05762 0.59734 0.0
C2585 C 0.53411 0.05743 0.66573 0.0
C2586 C 0.51513 0.05783 0.59593 0.0
C2587 C 0.50842 0.05765 0.66295 0.0
C2588 C 0.5148 0.05716 0.73137 0.0
C2589 C 0.52748 0.05717 0.73271 0.0
C2590 C 0.47587 0.06531 0.71613 0.0
C2591 C 0.46917 0.06019 0.65691 0.0
C2592 C 0.48851 0.06448 0.71805 0.0
C2593 C 0.49487 0.0583 0.66152 0.0
C2594 C 0.48815 0.05296 0.60302 0.0
C2595 C 0.47551 0.05397 0.60046 0.0
H2596 H 0.03234 0.92304 0.15693 0.0
H2597 H 0.03297 0.95846 0.2586 0.0
H2598 H 0.01032 0.92331 0.15641 0.0
H2599 H 0.01083 0.95855 0.26266 0.0
H2600 H 0.97084 0.95986 0.19892 0.0
H2601 H 0.99284 0.96018 0.19569 0.0
H2602 H 0.99346 0.92139 0.23009 0.0
H2603 H 0.97162 0.92091 0.22574 0.0
C2604 C 0.02771 0.93082 0.18022 0.0
C2605 C 0.03433 0.94069 0.20824 0.0
C2606 C 0.01505 0.93097 0.1805 0.0
C2607 C 0.00864 0.9409 0.21034 0.0
C2608 C 0.01535 0.95081 0.23824 0.0
C2609 C 0.02805 0.95075 0.23648 0.0
C2610 C 0.97564 0.95136 0.2046 0.0
C2611 C 0.96929 0.94036 0.21248 0.0
C2612 C 0.98834 0.95157 0.20399 0.0
C2613 C 0.99508 0.94081 0.21238 0.0
C2614 C 0.9887 0.92987 0.22185 0.0
C2615 C 0.97605 0.92962 0.221 0.0
H2616 H 0.53065 0.92296 0.44061 0.0
H2617 H 0.53112 0.95514 0.30305 0.0
H2618 H 0.50849 0.92367 0.44409 0.0
H2619 H 0.5089 0.95577 0.30572 0.0
H2620 H 0.46932 0.94118 0.25772 0.0
H2621 H 0.49154 0.94154 0.25592 0.0
H2622 H 0.49218 0.93842 0.49684 0.0
H2623 H 0.47 0.93819 0.49873 0.0
C2624 C 0.52599 0.93017 0.41106 0.0
C2625 C 0.53258 0.93899 0.37152 0.0
C2626 C 0.51334 0.93062 0.41339 0.0
C2627 C 0.507 0.93977 0.37512 0.0
C2628 C 0.51357 0.94858 0.33538 0.0
C2629 C 0.52626 0.94827 0.33424 0.0
C2630 C 0.47423 0.94061 0.3102 0.0
C2631 C 0.46796 0.93969 0.37835 0.0
C2632 C 0.48692 0.94089 0.30921 0.0
C2633 C 0.49356 0.94001 0.37625 0.0
C2634 C 0.48728 0.93907 0.44436 0.0
C2635 C 0.47461 0.93901 0.44546 0.0
H2636 H 0.03218 0.06182 0.71207 0.0
H2637 H 0.03116 0.05197 0.94609 0.0
H2638 H 0.01008 0.0617 0.70795 0.0
H2639 H 0.00912 0.05193 0.94222 0.0
H2640 H 0.96958 0.04352 0.89917 0.0
H2641 H 0.99156 0.04164 0.89389 0.0
H2642 H 0.99334 0.07351 0.75361 0.0
H2643 H 0.97135 0.07506 0.75599 0.0
C2644 C 0.02724 0.05963 0.76265 0.0
C2645 C 0.03347 0.0569 0.82938 0.0
C2646 C 0.01456 0.05959 0.76036 0.0
C2647 C 0.00778 0.05685 0.82481 0.0
C2648 C 0.01402 0.05389 0.89116 0.0
C2649 C 0.02669 0.05391 0.8934 0.0
C2650 C 0.97463 0.05001 0.86609 0.0
C2651 C 0.96865 0.05947 0.82827 0.0
C2652 C 0.98727 0.04902 0.86384 0.0
C2653 C 0.99427 0.05747 0.82373 0.0
C2654 C 0.98826 0.06677 0.78454 0.0
C2655 C 0.97563 0.06775 0.78672 0.0
loop_
_geom_bond_atom_site_label_1
_geom_bond_atom_site_label_2
_geom_bond_distance
_geom_bond_site_symmetry_2
_ccdc_geom_bond_type
C0 C1 1.351 . S
C0 N3 1.368 . S
C0 H5 0.931 . S
C1 C0 1.351 . S
C1 N2 1.373 . S
C1 H29 0.930 . S
N2 C1 1.373 . S
N2 C4 1.340 . S
N3 C0 1.368 . S
N3 C4 1.321 . S
N3 Co6 2.135 1_556 S
C4 N2 1.340 . S
C4 N3 1.321 . S
C4 H28 0.930 . S
H5 C0 0.931 . S
Co6 N3 2.135 1_554 S
Co6 N9 2.121 . S
Co6 O14 2.055 . S
Co6 O17 2.039 . S
Co6 N20 2.140 . S
C7 O8 1.227 . S
C7 O17 1.265 . S
O8 C7 1.227 . S
N9 Co6 2.121 . S
N9 C11 1.375 . S
N9 C12 1.313 . S
C10 C11 1.338 . S
C10 N13 1.377 . S
C10 H30 0.930 . S
C11 N9 1.375 . S
C11 C10 1.338 . S
C11 H15 0.931 . S
C12 N9 1.313 . S
C12 N13 1.344 . S
C12 H16 0.930 . S
N13 C10 1.377 . S
N13 C12 1.344 . S
O14 Co6 2.055 . S
O14 C18 1.253 . S
H15 C11 0.931 . S
H16 C12 0.930 . S
O17 Co6 2.039 . S
O17 C7 1.265 . S
C18 O14 1.253 . S
C18 O19 1.227 . S
O19 C18 1.227 . S
N20 Co6 2.140 . S
N20 C23 1.346 1_554 S
N20 C24 1.345 . S
C21 C22 1.387 1_554 S
C21 C25 1.391 . S
C22 C21 1.387 1_556 S
C22 C23 1.369 . S
C22 H31 0.929 . S
C23 N20 1.346 1_556 S
C23 C22 1.369 . S
C23 H26 0.928 . S
C24 N20 1.345 . S
C24 C25 1.371 . S
C24 H27 0.931 . S
C25 C21 1.391 . S
C25 C24 1.371 . S
C25 H32 0.930 . S
H26 C23 0.928 . S
H27 C24 0.931 . S
H28 C4 0.930 . S
H29 C1 0.930 . S
H30 C10 0.930 . S
H31 C22 0.929 . S
H32 C25 0.930 . S
C33 C34 1.351 . S
C33 N36 1.368 . S
C33 H38 0.931 . S
C34 C33 1.351 . S
C34 N35 1.373 . S
C34 H62 0.930 . S
N35 C34 1.373 . S
N35 C37 1.340 . S
N36 C33 1.368 . S
N36 C37 1.321 . S
N36 Co39 2.135 . S
C37 N35 1.340 . S
C37 N36 1.321 . S
C37 H61 0.930 . S
H38 C33 0.931 . S
Co39 N36 2.135 . S
Co39 N42 2.121 . S
Co39 O47 2.055 . S
Co39 O50 2.039 . S
Co39 N53 2.140 . S
C40 O41 1.227 . S
C40 O50 1.265 . S
O41 C40 1.227 . S
N42 Co39 2.121 . S
N42 C44 1.375 . S
N42 C45 1.313 . S
C43 C44 1.338 . S
C43 N46 1.377 . S
C43 H63 0.930 . S
C44 N42 1.375 . S
C44 C43 1.338 . S
C44 H48 0.931 . S
C45 N42 1.313 . S
C45 N46 1.344 . S
C45 H49 0.930 . S
N46 C43 1.377 . S
N46 C45 1.344 . S
O47 Co39 2.055 . S
O47 C51 1.253 . S
H48 C44 0.931 . S
H49 C45 0.930 . S
O50 Co39 2.039 . S
O50 C40 1.265 . S
C51 O47 1.253 . S
C51 O52 1.227 . S
O52 C51 1.227 . S
N53 Co39 2.140 . S
N53 C56 1.346 . S
N53 C57 1.345 . S
C54 C55 1.387 . S
C54 C58 1.391 . S
C55 C54 1.387 . S
C55 C56 1.369 . S
C55 H64 0.929 . S
C56 N53 1.346 . S
C56 C55 1.369 . S
C56 H59 0.928 . S
C57 N53 1.345 . S
C57 C58 1.371 . S
C57 H60 0.931 . S
C58 C54 1.391 . S
C58 C57 1.371 . S
C58 H65 0.930 . S
H59 C56 0.928 . S
H60 C57 0.931 . S
H61 C37 0.930 . S
H62 C34 0.930 . S
H63 C43 0.930 . S
H64 C55 0.929 . S
H65 C58 0.930 . S
C66 C67 1.351 . S
C66 N69 1.368 . S
C66 H71 0.931 . S
C67 C66 1.351 . S
C67 N68 1.373 . S
C67 H95 0.930 . S
N68 C67 1.373 . S
N68 C70 1.340 . S
N69 C66 1.368 . S
N69 C70 1.321 . S
N69 Co72 2.135 . S
C70 N68 1.340 . S
C70 N69 1.321 . S
C70 H94 0.930 . S
H71 C66 0.931 . S
Co72 N69 2.135 . S
Co72 N75 2.121 . S
Co72 O80 2.055 . S
Co72 O83 2.039 . S
Co72 N86 2.140 . S
C73 O74 1.227 . S
C73 O83 1.265 . S
O74 C73 1.227 . S
N75 Co72 2.121 . S
N75 C77 1.375 . S
N75 C78 1.313 . S
C76 C77 1.338 . S
C76 N79 1.377 . S
C76 H96 0.930 . S
C77 N75 1.375 . S
C77 C76 1.338 . S
C77 H81 0.931 . S
C78 N75 1.313 . S
C78 N79 1.344 . S
C78 H82 0.930 . S
N79 C76 1.377 . S
N79 C78 1.344 . S
O80 Co72 2.055 . S
O80 C84 1.253 . S
H81 C77 0.931 . S
H82 C78 0.930 . S
O83 Co72 2.039 . S
O83 C73 1.265 . S
C84 O80 1.253 . S
C84 O85 1.227 . S
O85 C84 1.227 . S
N86 Co72 2.140 . S
N86 C89 1.346 . S
N86 C90 1.345 . S
C87 C88 1.387 . S
C87 C91 1.391 . S
C88 C87 1.387 . S
C88 C89 1.369 . S
C88 H97 0.929 . S
C89 N86 1.346 . S
C89 C88 1.369 . S
C89 H92 0.928 . S
C90 N86 1.345 . S
C90 C91 1.371 . S
C90 H93 0.931 . S
C91 C87 1.391 . S
C91 C90 1.371 . S
C91 H98 0.930 . S
H92 C89 0.928 . S
H93 C90 0.931 . S
H94 C70 0.930 . S
H95 C67 0.930 . S
H96 C76 0.930 . S
H97 C88 0.929 . S
H98 C91 0.930 . S
C99 C100 1.351 . S
C99 N102 1.368 . S
C99 H104 0.931 . S
C100 C99 1.351 . S
C100 N101 1.373 . S
C100 H128 0.930 . S
N101 C100 1.373 . S
N101 C103 1.340 . S
N102 C99 1.368 . S
N102 C103 1.321 . S
N102 Co105 2.135 . S
C103 N101 1.340 . S
C103 N102 1.321 . S
C103 H127 0.930 . S
H104 C99 0.931 . S
Co105 N102 2.135 . S
Co105 N108 2.121 . S
Co105 O113 2.055 . S
Co105 O116 2.039 . S
Co105 N119 2.140 . S
C106 O107 1.227 . S
C106 O116 1.265 . S
O107 C106 1.227 . S
N108 Co105 2.121 . S
N108 C110 1.375 . S
N108 C111 1.313 . S
C109 C110 1.338 1_554 S
C109 N112 1.377 . S
C109 H129 0.930 . S
C110 N108 1.375 . S
C110 C109 1.338 1_556 S
C110 H114 0.931 . S
C111 N108 1.313 . S
C111 N112 1.344 1_556 S
C111 H115 0.930 . S
N112 C109 1.377 . S
N112 C111 1.344 1_554 S
O113 Co105 2.055 . S
O113 C117 1.253 . S
H114 C110 0.931 . S
H115 C111 0.930 . S
O116 Co105 2.039 . S
O116 C106 1.265 . S
C117 O113 1.253 . S
C117 O118 1.227 . S
O118 C117 1.227 . S
N119 Co105 2.140 . S
N119 C122 1.346 . S
N119 C123 1.345 . S
C120 C121 1.387 . S
C120 C124 1.391 . S
C121 C120 1.387 . S
C121 C122 1.369 . S
C121 H130 0.929 . S
C122 N119 1.346 . S
C122 C121 1.369 . S
C122 H125 0.928 . S
C123 N119 1.345 . S
C123 C124 1.371 . S
C123 H126 0.931 . S
C124 C120 1.391 . S
C124 C123 1.371 . S
C124 H131 0.930 . S
H125 C122 0.928 . S
H126 C123 0.931 . S
H127 C103 0.930 . S
H128 C100 0.930 . S
H129 C109 0.930 . S
H130 C121 0.929 . S
H131 C124 0.930 . S
C132 C133 1.351 . S
C132 N135 1.368 . S
C132 H137 0.931 . S
C133 C132 1.351 . S
C133 N134 1.373 . S
C133 H161 0.930 . S
N134 C133 1.373 . S
N134 C136 1.340 . S
N135 C132 1.368 . S
N135 C136 1.321 . S
N135 Co138 2.135 1_554 S
C136 N134 1.340 . S
C136 N135 1.321 . S
C136 H160 0.930 . S
H137 C132 0.931 . S
Co138 N135 2.135 1_556 S
Co138 N141 2.121 . S
Co138 O146 2.055 . S
Co138 O149 2.039 . S
Co138 N152 2.140 . S
C139 O140 1.227 . S
C139 O149 1.265 . S
O140 C139 1.227 . S
N141 Co138 2.121 . S
N141 C143 1.375 . S
N141 C144 1.313 . S
C142 C143 1.338 . S
C142 N145 1.377 . S
C142 H162 0.930 . S
C143 N141 1.375 . S
C143 C142 1.338 . S
C143 H147 0.931 . S
C144 N141 1.313 . S
C144 N145 1.344 . S
C144 H148 0.930 . S
N145 C142 1.377 . S
N145 C144 1.344 . S
O146 Co138 2.055 . S
O146 C150 1.253 . S
H147 C143 0.931 . S
H148 C144 0.930 . S
O149 Co138 2.039 . S
O149 C139 1.265 . S
C150 O146 1.253 . S
C150 O151 1.227 . S
O151 C150 1.227 . S
N152 Co138 2.140 . S
N152 C155 1.346 1_556 S
N152 C156 1.345 . S
C153 C154 1.387 1_556 S
C153 C157 1.391 . S
C154 C153 1.387 1_554 S
C154 C155 1.369 . S
C154 H163 0.929 . S
C155 N152 1.346 1_554 S
C155 C154 1.369 . S
C155 H158 0.928 . S
C156 N152 1.345 . S
C156 C157 1.371 . S
C156 H159 0.931 . S
C157 C153 1.391 . S
C157 C156 1.371 . S
C157 H164 0.930 . S
H158 C155 0.928 . S
H159 C156 0.931 . S
H160 C136 0.930 . S
H161 C133 0.930 . S
H162 C142 0.930 . S
H163 C154 0.929 . S
H164 C157 0.930 . S
C165 C166 1.351 . S
C165 N168 1.368 . S
C165 H170 0.931 . S
C166 C165 1.351 . S
C166 N167 1.373 . S
C166 H194 0.930 . S
N167 C166 1.373 . S
N167 C169 1.340 . S
N168 C165 1.368 . S
N168 C169 1.321 . S
N168 Co171 2.135 . S
C169 N167 1.340 . S
C169 N168 1.321 . S
C169 H193 0.930 . S
H170 C165 0.931 . S
Co171 N168 2.135 . S
Co171 N174 2.121 . S
Co171 O179 2.055 . S
Co171 O182 2.039 . S
Co171 N185 2.140 . S
C172 O173 1.227 . S
C172 O182 1.265 . S
O173 C172 1.227 . S
N174 Co171 2.121 . S
N174 C176 1.375 . S
N174 C177 1.313 . S
C175 C176 1.338 1_556 S
C175 N178 1.377 . S
C175 H195 0.930 . S
C176 N174 1.375 . S
C176 C175 1.338 1_554 S
C176 H180 0.931 . S
C177 N174 1.313 . S
C177 N178 1.344 1_554 S
C177 H181 0.930 . S
N178 C175 1.377 . S
N178 C177 1.344 1_556 S
O179 Co171 2.055 . S
O179 C183 1.253 . S
H180 C176 0.931 . S
H181 C177 0.930 . S
O182 Co171 2.039 . S
O182 C172 1.265 . S
C183 O179 1.253 . S
C183 O184 1.227 . S
O184 C183 1.227 . S
N185 Co171 2.140 . S
N185 C188 1.346 . S
N185 C189 1.345 . S
C186 C187 1.387 . S
C186 C190 1.391 . S
C187 C186 1.387 . S
C187 C188 1.369 . S
C187 H196 0.929 . S
C188 N185 1.346 . S
C188 C187 1.369 . S
C188 H191 0.928 . S
C189 N185 1.345 . S
C189 C190 1.371 . S
C189 H192 0.931 . S
C190 C186 1.391 . S
C190 C189 1.371 . S
C190 H197 0.930 . S
H191 C188 0.928 . S
H192 C189 0.931 . S
H193 C169 0.930 . S
H194 C166 0.930 . S
H195 C175 0.930 . S
H196 C187 0.929 . S
H197 C190 0.930 . S
C198 C199 1.351 . S
C198 N201 1.368 . S
C198 H203 0.931 . S
C199 C198 1.351 . S
C199 N200 1.373 . S
C199 H227 0.930 . S
N200 C199 1.373 . S
N200 C202 1.340 . S
N201 C198 1.368 . S
N201 C202 1.321 . S
N201 Co204 2.135 . S
C202 N200 1.340 . S
C202 N201 1.321 . S
C202 H226 0.930 . S
H203 C198 0.931 . S
Co204 N201 2.135 . S
Co204 N207 2.121 . S
Co204 O212 2.055 . S
Co204 O215 2.039 . S
Co204 N218 2.140 . S
C205 O206 1.227 . S
C205 O215 1.265 . S
O206 C205 1.227 . S
N207 Co204 2.121 . S
N207 C209 1.375 . S
N207 C210 1.313 . S
C208 C209 1.338 . S
C208 N211 1.377 . S
C208 H228 0.930 . S
C209 N207 1.375 . S
C209 C208 1.338 . S
C209 H213 0.931 . S
C210 N207 1.313 . S
C210 N211 1.344 . S
C210 H214 0.930 . S
N211 C208 1.377 . S
N211 C210 1.344 . S
O212 Co204 2.055 . S
O212 C216 1.253 . S
H213 C209 0.931 . S
H214 C210 0.930 . S
O215 Co204 2.039 . S
O215 C205 1.265 . S
C216 O212 1.253 . S
C216 O217 1.227 . S
O217 C216 1.227 . S
N218 Co204 2.140 . S
N218 C221 1.346 . S
N218 C222 1.345 . S
C219 C220 1.387 . S
C219 C223 1.391 . S
C220 C219 1.387 . S
C220 C221 1.369 . S
C220 H229 0.929 . S
C221 N218 1.346 . S
C221 C220 1.369 . S
C221 H224 0.928 . S
C222 N218 1.345 . S
C222 C223 1.371 . S
C222 H225 0.931 . S
C223 C219 1.391 . S
C223 C222 1.371 . S
C223 H230 0.930 . S
H224 C221 0.928 . S
H225 C222 0.931 . S
H226 C202 0.930 . S
H227 C199 0.930 . S
H228 C208 0.930 . S
H229 C220 0.929 . S
H230 C223 0.930 . S
C231 C232 1.351 . S
C231 N234 1.368 . S
C231 H236 0.931 . S
C232 C231 1.351 . S
C232 N233 1.373 . S
C232 H260 0.930 . S
N233 C232 1.373 . S
N233 C235 1.340 . S
N234 C231 1.368 . S
N234 C235 1.321 . S
N234 Co237 2.135 . S
C235 N233 1.340 . S
C235 N234 1.321 . S
C235 H259 0.930 . S
H236 C231 0.931 . S
Co237 N234 2.135 . S
Co237 N240 2.121 . S
Co237 O245 2.055 . S
Co237 O248 2.039 . S
Co237 N251 2.140 . S
C238 O239 1.227 . S
C238 O248 1.265 . S
O239 C238 1.227 . S
N240 Co237 2.121 . S
N240 C242 1.375 . S
N240 C243 1.313 . S
C241 C242 1.338 . S
C241 N244 1.377 . S
C241 H261 0.930 . S
C242 N240 1.375 . S
C242 C241 1.338 . S
C242 H246 0.931 . S
C243 N240 1.313 . S
C243 N244 1.344 . S
C243 H247 0.930 . S
N244 C241 1.377 . S
N244 C243 1.344 . S
O245 Co237 2.055 . S
O245 C249 1.253 . S
H246 C242 0.931 . S
H247 C243 0.930 . S
O248 Co237 2.039 . S
O248 C238 1.265 . S
C249 O245 1.253 . S
C249 O250 1.227 . S
O250 C249 1.227 . S
N251 Co237 2.140 . S
N251 C254 1.346 . S
N251 C255 1.345 . S
C252 C253 1.387 . S
C252 C256 1.391 . S
C253 C252 1.387 . S
C253 C254 1.369 . S
C253 H262 0.929 . S
C254 N251 1.346 . S
C254 C253 1.369 . S
C254 H257 0.928 . S
C255 N251 1.345 . S
C255 C256 1.371 . S
C255 H258 0.931 . S
C256 C252 1.391 . S
C256 C255 1.371 . S
C256 H263 0.930 . S
H257 C254 0.928 . S
H258 C255 0.931 . S
H259 C235 0.930 . S
H260 C232 0.930 . S
H261 C241 0.930 . S
H262 C253 0.929 . S
H263 C256 0.930 . S
C264 C265 1.351 . S
C264 N267 1.368 . S
C264 H269 0.931 . S
C265 C264 1.351 . S
C265 N266 1.373 . S
C265 H293 0.930 . S
N266 C265 1.373 . S
N266 C268 1.340 . S
N267 C264 1.368 . S
N267 C268 1.321 . S
N267 Co270 2.135 1_554 S
C268 N266 1.340 . S
C268 N267 1.321 . S
C268 H292 0.930 . S
H269 C264 0.931 . S
Co270 N267 2.135 1_556 S
Co270 N273 2.121 . S
Co270 O278 2.055 . S
Co270 O281 2.039 . S
Co270 N284 2.140 . S
C271 O272 1.227 . S
C271 O281 1.265 . S
O272 C271 1.227 . S
N273 Co270 2.121 . S
N273 C275 1.375 . S
N273 C276 1.313 . S
C274 C275 1.338 . S
C274 N277 1.377 . S
C274 H294 0.930 . S
C275 N273 1.375 . S
C275 C274 1.338 . S
C275 H279 0.931 . S
C276 N273 1.313 . S
C276 N277 1.344 . S
C276 H280 0.930 . S
N277 C274 1.377 . S
N277 C276 1.344 . S
O278 Co270 2.055 . S
O278 C282 1.253 . S
H279 C275 0.931 . S
H280 C276 0.930 . S
O281 Co270 2.039 . S
O281 C271 1.265 . S
C282 O278 1.253 . S
C282 O283 1.227 . S
O283 C282 1.227 . S
N284 Co270 2.140 . S
N284 C287 1.346 1_556 S
N284 C288 1.345 . S
C285 C286 1.387 1_556 S
C285 C289 1.391 . S
C286 C285 1.387 1_554 S
C286 C287 1.369 . S
C286 H295 0.929 . S
C287 N284 1.346 1_554 S
C287 C286 1.369 . S
C287 H290 0.928 . S
C288 N284 1.345 . S
C288 C289 1.371 . S
C288 H291 0.931 . S
C289 C285 1.391 . S
C289 C288 1.371 . S
C289 H296 0.930 . S
H290 C287 0.928 . S
H291 C288 0.931 . S
H292 C268 0.930 . S
H293 C265 0.930 . S
H294 C274 0.930 . S
H295 C286 0.929 . S
H296 C289 0.930 . S
C297 C298 1.351 . S
C297 N300 1.368 . S
C297 H302 0.931 . S
C298 C297 1.351 . S
C298 N299 1.373 . S
C298 H326 0.930 . S
N299 C298 1.373 . S
N299 C301 1.340 . S
N300 C297 1.368 . S
N300 C301 1.321 . S
N300 Co303 2.135 . S
C301 N299 1.340 . S
C301 N300 1.321 . S
C301 H325 0.930 . S
H302 C297 0.931 . S
Co303 N300 2.135 . S
Co303 N306 2.121 . S
Co303 O311 2.055 . S
Co303 O314 2.039 . S
Co303 N317 2.140 . S
C304 O305 1.227 . S
C304 O314 1.265 . S
O305 C304 1.227 . S
N306 Co303 2.121 . S
N306 C308 1.375 . S
N306 C309 1.313 . S
C307 C308 1.338 . S
C307 N310 1.377 . S
C307 H327 0.930 . S
C308 N306 1.375 . S
C308 C307 1.338 . S
C308 H312 0.931 . S
C309 N306 1.313 . S
C309 N310 1.344 . S
C309 H313 0.930 . S
N310 C307 1.377 . S
N310 C309 1.344 . S
O311 Co303 2.055 . S
O311 C315 1.253 . S
H312 C308 0.931 . S
H313 C309 0.930 . S
O314 Co303 2.039 . S
O314 C304 1.265 . S
C315 O311 1.253 . S
C315 O316 1.227 . S
O316 C315 1.227 . S
N317 Co303 2.140 . S
N317 C320 1.346 . S
N317 C321 1.345 . S
C318 C319 1.387 . S
C318 C322 1.391 . S
C319 C318 1.387 . S
C319 C320 1.369 . S
C319 H328 0.929 . S
C320 N317 1.346 . S
C320 C319 1.369 . S
C320 H323 0.928 . S
C321 N317 1.345 . S
C321 C322 1.371 . S
C321 H324 0.931 . S
C322 C318 1.391 . S
C322 C321 1.371 . S
C322 H329 0.930 . S
H323 C320 0.928 . S
H324 C321 0.931 . S
H325 C301 0.930 . S
H326 C298 0.930 . S
H327 C307 0.930 . S
H328 C319 0.929 . S
H329 C322 0.930 . S
C330 C331 1.351 . S
C330 N333 1.368 . S
C330 H335 0.931 . S
C331 C330 1.351 . S
C331 N332 1.373 . S
C331 H359 0.930 . S
N332 C331 1.373 . S
N332 C334 1.340 . S
N333 C330 1.368 . S
N333 C334 1.321 . S
N333 Co336 2.135 . S
C334 N332 1.340 . S
C334 N333 1.321 . S
C334 H358 0.930 . S
H335 C330 0.931 . S
Co336 N333 2.135 . S
Co336 N339 2.121 . S
Co336 O344 2.055 . S
Co336 O347 2.039 . S
Co336 N350 2.140 . S
C337 O338 1.227 . S
C337 O347 1.265 . S
O338 C337 1.227 . S
N339 Co336 2.121 . S
N339 C341 1.375 . S
N339 C342 1.313 . S
C340 C341 1.338 . S
C340 N343 1.377 . S
C340 H360 0.930 . S
C341 N339 1.375 . S
C341 C340 1.338 . S
C341 H345 0.931 . S
C342 N339 1.313 . S
C342 N343 1.344 . S
C342 H346 0.930 . S
N343 C340 1.377 . S
N343 C342 1.344 . S
O344 Co336 2.055 . S
O344 C348 1.253 . S
H345 C341 0.931 . S
H346 C342 0.930 . S
O347 Co336 2.039 . S
O347 C337 1.265 . S
C348 O344 1.253 . S
C348 O349 1.227 . S
O349 C348 1.227 . S
N350 Co336 2.140 . S
N350 C353 1.346 . S
N350 C354 1.345 . S
C351 C352 1.387 . S
C351 C355 1.391 . S
C352 C351 1.387 . S
C352 C353 1.369 . S
C352 H361 0.929 . S
C353 N350 1.346 . S
C353 C352 1.369 . S
C353 H356 0.928 . S
C354 N350 1.345 . S
C354 C355 1.371 . S
C354 H357 0.931 . S
C355 C351 1.391 . S
C355 C354 1.371 . S
C355 H362 0.930 . S
H356 C353 0.928 . S
H357 C354 0.931 . S
H358 C334 0.930 . S
H359 C331 0.930 . S
H360 C340 0.930 . S
H361 C352 0.929 . S
H362 C355 0.930 . S
C363 C364 1.351 . S
C363 N366 1.368 . S
C363 H368 0.931 . S
C364 C363 1.351 . S
C364 N365 1.373 . S
C364 H392 0.930 . S
N365 C364 1.373 . S
N365 C367 1.340 . S
N366 C363 1.368 . S
N366 C367 1.321 . S
N366 Co369 2.135 . S
C367 N365 1.340 . S
C367 N366 1.321 . S
C367 H391 0.930 . S
H368 C363 0.931 . S
Co369 N366 2.135 . S
Co369 N372 2.121 . S
Co369 O377 2.055 . S
Co369 O380 2.039 . S
Co369 N383 2.140 . S
C370 O371 1.227 . S
C370 O380 1.265 . S
O371 C370 1.227 . S
N372 Co369 2.121 . S
N372 C374 1.375 . S
N372 C375 1.313 . S
C373 C374 1.338 1_556 S
C373 N376 1.377 . S
C373 H393 0.930 . S
C374 N372 1.375 . S
C374 C373 1.338 1_554 S
C374 H378 0.931 . S
C375 N372 1.313 . S
C375 N376 1.344 1_554 S
C375 H379 0.930 . S
N376 C373 1.377 . S
N376 C375 1.344 1_556 S
O377 Co369 2.055 . S
O377 C381 1.253 . S
H378 C374 0.931 . S
H379 C375 0.930 . S
O380 Co369 2.039 . S
O380 C370 1.265 . S
C381 O377 1.253 . S
C381 O382 1.227 . S
O382 C381 1.227 . S
N383 Co369 2.140 . S
N383 C386 1.346 . S
N383 C387 1.345 . S
C384 C385 1.387 . S
C384 C388 1.391 . S
C385 C384 1.387 . S
C385 C386 1.369 . S
C385 H394 0.929 . S
C386 N383 1.346 . S
C386 C385 1.369 . S
C386 H389 0.928 . S
C387 N383 1.345 . S
C387 C388 1.371 . S
C387 H390 0.931 . S
C388 C384 1.391 . S
C388 C387 1.371 . S
C388 H395 0.930 . S
H389 C386 0.928 . S
H390 C387 0.931 . S
H391 C367 0.930 . S
H392 C364 0.930 . S
H393 C373 0.930 . S
H394 C385 0.929 . S
H395 C388 0.930 . S
C396 C397 1.351 . S
C396 N399 1.368 . S
C396 H401 0.931 . S
C397 C396 1.351 . S
C397 N398 1.373 . S
C397 H425 0.930 . S
N398 C397 1.373 . S
N398 C400 1.340 . S
N399 C396 1.368 . S
N399 C400 1.321 . S
N399 Co402 2.135 1_556 S
C400 N398 1.340 . S
C400 N399 1.321 . S
C400 H424 0.930 . S
H401 C396 0.931 . S
Co402 N399 2.135 1_554 S
Co402 N405 2.121 . S
Co402 O410 2.055 . S
Co402 O413 2.039 . S
Co402 N416 2.140 . S
C403 O404 1.227 . S
C403 O413 1.265 . S
O404 C403 1.227 . S
N405 Co402 2.121 . S
N405 C407 1.375 . S
N405 C408 1.313 . S
C406 C407 1.338 . S
C406 N409 1.377 . S
C406 H426 0.930 . S
C407 N405 1.375 . S
C407 C406 1.338 . S
C407 H411 0.931 . S
C408 N405 1.313 . S
C408 N409 1.344 . S
C408 H412 0.930 . S
N409 C406 1.377 . S
N409 C408 1.344 . S
O410 Co402 2.055 . S
O410 C414 1.253 . S
H411 C407 0.931 . S
H412 C408 0.930 . S
O413 Co402 2.039 . S
O413 C403 1.265 . S
C414 O410 1.253 . S
C414 O415 1.227 . S
O415 C414 1.227 . S
N416 Co402 2.140 . S
N416 C419 1.346 1_554 S
N416 C420 1.345 . S
C417 C418 1.387 1_554 S
C417 C421 1.391 . S
C418 C417 1.387 1_556 S
C418 C419 1.369 . S
C418 H427 0.929 . S
C419 N416 1.346 1_556 S
C419 C418 1.369 . S
C419 H422 0.928 . S
C420 N416 1.345 . S
C420 C421 1.371 . S
C420 H423 0.931 . S
C421 C417 1.391 . S
C421 C420 1.371 . S
C421 H428 0.930 . S
H422 C419 0.928 . S
H423 C420 0.931 . S
H424 C400 0.930 . S
H425 C397 0.930 . S
H426 C406 0.930 . S
H427 C418 0.929 . S
H428 C421 0.930 . S
C429 C430 1.351 . S
C429 N432 1.368 . S
C429 H434 0.931 . S
C430 C429 1.351 . S
C430 N431 1.373 . S
C430 H458 0.930 . S
N431 C430 1.373 . S
N431 C433 1.340 . S
N432 C429 1.368 . S
N432 C433 1.321 . S
N432 Co435 2.135 . S
C433 N431 1.340 . S
C433 N432 1.321 . S
C433 H457 0.930 . S
H434 C429 0.931 . S
Co435 N432 2.135 . S
Co435 N438 2.121 . S
Co435 O443 2.055 . S
Co435 O446 2.039 . S
Co435 N449 2.140 . S
C436 O437 1.227 . S
C436 O446 1.265 . S
O437 C436 1.227 . S
N438 Co435 2.121 . S
N438 C440 1.375 . S
N438 C441 1.313 . S
C439 C440 1.338 1_554 S
C439 N442 1.377 . S
C439 H459 0.930 . S
C440 N438 1.375 . S
C440 C439 1.338 1_556 S
C440 H444 0.931 . S
C441 N438 1.313 . S
C441 N442 1.344 1_556 S
C441 H445 0.930 . S
N442 C439 1.377 . S
N442 C441 1.344 1_554 S
O443 Co435 2.055 . S
O443 C447 1.253 . S
H444 C440 0.931 . S
H445 C441 0.930 . S
O446 Co435 2.039 . S
O446 C436 1.265 . S
C447 O443 1.253 . S
C447 O448 1.227 . S
O448 C447 1.227 . S
N449 Co435 2.140 . S
N449 C452 1.346 . S
N449 C453 1.345 . S
C450 C451 1.387 . S
C450 C454 1.391 . S
C451 C450 1.387 . S
C451 C452 1.369 . S
C451 H460 0.929 . S
C452 N449 1.346 . S
C452 C451 1.369 . S
C452 H455 0.928 . S
C453 N449 1.345 . S
C453 C454 1.371 . S
C453 H456 0.931 . S
C454 C450 1.391 . S
C454 C453 1.371 . S
C454 H461 0.930 . S
H455 C452 0.928 . S
H456 C453 0.931 . S
H457 C433 0.930 . S
H458 C430 0.930 . S
H459 C439 0.930 . S
H460 C451 0.929 . S
H461 C454 0.930 . S
C462 C463 1.351 . S
C462 N465 1.368 . S
C462 H467 0.931 . S
C463 C462 1.351 . S
C463 N464 1.373 . S
C463 H491 0.930 . S
N464 C463 1.373 . S
N464 C466 1.340 . S
N465 C462 1.368 . S
N465 C466 1.321 . S
N465 Co468 2.135 . S
C466 N464 1.340 . S
C466 N465 1.321 . S
C466 H490 0.930 . S
H467 C462 0.931 . S
Co468 N465 2.135 . S
Co468 N471 2.121 . S
Co468 O476 2.055 . S
Co468 O479 2.039 . S
Co468 N482 2.140 . S
C469 O470 1.227 . S
C469 O479 1.265 . S
O470 C469 1.227 . S
N471 Co468 2.121 . S
N471 C473 1.375 . S
N471 C474 1.313 . S
C472 C473 1.338 . S
C472 N475 1.377 . S
C472 H492 0.930 . S
C473 N471 1.375 . S
C473 C472 1.338 . S
C473 H477 0.931 . S
C474 N471 1.313 . S
C474 N475 1.344 . S
C474 H478 0.930 . S
N475 C472 1.377 . S
N475 C474 1.344 . S
O476 Co468 2.055 . S
O476 C480 1.253 . S
H477 C473 0.931 . S
H478 C474 0.930 . S
O479 Co468 2.039 . S
O479 C469 1.265 . S
C480 O476 1.253 . S
C480 O481 1.227 . S
O481 C480 1.227 . S
N482 Co468 2.140 . S
N482 C485 1.346 . S
N482 C486 1.345 . S
C483 C484 1.387 . S
C483 C487 1.391 . S
C484 C483 1.387 . S
C484 C485 1.369 . S
C484 H493 0.929 . S
C485 N482 1.346 . S
C485 C484 1.369 . S
C485 H488 0.928 . S
C486 N482 1.345 . S
C486 C487 1.371 . S
C486 H489 0.931 . S
C487 C483 1.391 . S
C487 C486 1.371 . S
C487 H494 0.930 . S
H488 C485 0.928 . S
H489 C486 0.931 . S
H490 C466 0.930 . S
H491 C463 0.930 . S
H492 C472 0.930 . S
H493 C484 0.929 . S
H494 C487 0.930 . S
C495 C496 1.351 . S
C495 N498 1.368 . S
C495 H500 0.931 . S
C496 C495 1.351 . S
C496 N497 1.373 . S
C496 H524 0.930 . S
N497 C496 1.373 . S
N497 C499 1.340 . S
N498 C495 1.368 . S
N498 C499 1.321 . S
N498 Co501 2.135 . S
C499 N497 1.340 . S
C499 N498 1.321 . S
C499 H523 0.930 . S
H500 C495 0.931 . S
Co501 N498 2.135 . S
Co501 N504 2.121 . S
Co501 O509 2.055 . S
Co501 O512 2.039 . S
Co501 N515 2.140 . S
C502 O503 1.227 . S
C502 O512 1.265 . S
O503 C502 1.227 . S
N504 Co501 2.121 . S
N504 C506 1.375 . S
N504 C507 1.313 . S
C505 C506 1.338 . S
C505 N508 1.377 . S
C505 H525 0.930 . S
C506 N504 1.375 . S
C506 C505 1.338 . S
C506 H510 0.931 . S
C507 N504 1.313 . S
C507 N508 1.344 . S
C507 H511 0.930 . S
N508 C505 1.377 . S
N508 C507 1.344 . S
O509 Co501 2.055 . S
O509 C513 1.253 . S
H510 C506 0.931 . S
H511 C507 0.930 . S
O512 Co501 2.039 . S
O512 C502 1.265 . S
C513 O509 1.253 . S
C513 O514 1.227 . S
O514 C513 1.227 . S
N515 Co501 2.140 . S
N515 C518 1.346 . S
N515 C519 1.345 . S
C516 C517 1.387 . S
C516 C520 1.391 . S
C517 C516 1.387 . S
C517 C518 1.369 . S
C517 H526 0.929 . S
C518 N515 1.346 . S
C518 C517 1.369 . S
C518 H521 0.928 . S
C519 N515 1.345 . S
C519 C520 1.371 . S
C519 H522 0.931 . S
C520 C516 1.391 . S
C520 C519 1.371 . S
C520 H527 0.930 . S
H521 C518 0.928 . S
H522 C519 0.931 . S
H523 C499 0.930 . S
H524 C496 0.930 . S
H525 C505 0.930 . S
H526 C517 0.929 . S
H527 C520 0.930 . S
C528 C529 1.351 . S
C528 N531 1.368 . S
C528 H533 0.931 . S
C529 C528 1.351 . S
C529 N530 1.373 . S
C529 H557 0.930 . S
N530 C529 1.373 . S
N530 C532 1.340 . S
N531 C528 1.368 . S
N531 C532 1.321 . S
N531 Co534 2.135 . S
C532 N530 1.340 . S
C532 N531 1.321 . S
C532 H556 0.930 . S
H533 C528 0.931 . S
Co534 N531 2.135 . S
Co534 N537 2.121 . S
Co534 O542 2.055 . S
Co534 O545 2.039 . S
Co534 N548 2.140 . S
C535 O536 1.227 . S
C535 O545 1.265 . S
O536 C535 1.227 . S
N537 Co534 2.121 . S
N537 C539 1.375 . S
N537 C540 1.313 . S
C538 C539 1.338 . S
C538 N541 1.377 . S
C538 H558 0.930 . S
C539 N537 1.375 . S
C539 C538 1.338 . S
C539 H543 0.931 . S
C540 N537 1.313 . S
C540 N541 1.344 . S
C540 H544 0.930 . S
N541 C538 1.377 . S
N541 C540 1.344 . S
O542 Co534 2.055 . S
O542 C546 1.253 . S
H543 C539 0.931 . S
H544 C540 0.930 . S
O545 Co534 2.039 . S
O545 C535 1.265 . S
C546 O542 1.253 . S
C546 O547 1.227 . S
O547 C546 1.227 . S
N548 Co534 2.140 . S
N548 C551 1.346 . S
N548 C552 1.345 . S
C549 C550 1.387 . S
C549 C553 1.391 . S
C550 C549 1.387 . S
C550 C551 1.369 . S
C550 H559 0.929 . S
C551 N548 1.346 . S
C551 C550 1.369 . S
C551 H554 0.928 . S
C552 N548 1.345 . S
C552 C553 1.371 . S
C552 H555 0.931 . S
C553 C549 1.391 . S
C553 C552 1.371 . S
C553 H560 0.930 . S
H554 C551 0.928 . S
H555 C552 0.931 . S
H556 C532 0.930 . S
H557 C529 0.930 . S
H558 C538 0.930 . S
H559 C550 0.929 . S
H560 C553 0.930 . S
C561 C562 1.351 . S
C561 N564 1.368 . S
C561 H566 0.931 . S
C562 C561 1.351 . S
C562 N563 1.373 . S
C562 H590 0.930 . S
N563 C562 1.373 . S
N563 C565 1.340 . S
N564 C561 1.368 . S
N564 C565 1.321 . S
N564 Co567 2.135 . S
C565 N563 1.340 . S
C565 N564 1.321 . S
C565 H589 0.930 . S
H566 C561 0.931 . S
Co567 N564 2.135 . S
Co567 N570 2.121 . S
Co567 O575 2.055 . S
Co567 O578 2.039 . S
Co567 N581 2.140 . S
C568 O569 1.227 . S
C568 O578 1.265 . S
O569 C568 1.227 . S
N570 Co567 2.121 . S
N570 C572 1.375 . S
N570 C573 1.313 . S
C571 C572 1.338 1_554 S
C571 N574 1.377 . S
C571 H591 0.930 . S
C572 N570 1.375 . S
C572 C571 1.338 1_556 S
C572 H576 0.931 . S
C573 N570 1.313 . S
C573 N574 1.344 1_556 S
C573 H577 0.930 . S
N574 C571 1.377 . S
N574 C573 1.344 1_554 S
O575 Co567 2.055 . S
O575 C579 1.253 . S
H576 C572 0.931 . S
H577 C573 0.930 . S
O578 Co567 2.039 . S
O578 C568 1.265 . S
C579 O575 1.253 . S
C579 O580 1.227 . S
O580 C579 1.227 . S
N581 Co567 2.140 . S
N581 C584 1.346 . S
N581 C585 1.345 . S
C582 C583 1.387 . S
C582 C586 1.391 . S
C583 C582 1.387 . S
C583 C584 1.369 . S
C583 H592 0.929 . S
C584 N581 1.346 . S
C584 C583 1.369 . S
C584 H587 0.928 . S
C585 N581 1.345 . S
C585 C586 1.371 . S
C585 H588 0.931 . S
C586 C582 1.391 . S
C586 C585 1.371 . S
C586 H593 0.930 . S
H587 C584 0.928 . S
H588 C585 0.931 . S
H589 C565 0.930 . S
H590 C562 0.930 . S
H591 C571 0.930 . S
H592 C583 0.929 . S
H593 C586 0.930 . S
C594 C595 1.351 . S
C594 N597 1.368 . S
C594 H599 0.931 . S
C595 C594 1.351 . S
C595 N596 1.373 . S
C595 H623 0.930 . S
N596 C595 1.373 . S
N596 C598 1.340 . S
N597 C594 1.368 . S
N597 C598 1.321 . S
N597 Co600 2.135 1_556 S
C598 N596 1.340 . S
C598 N597 1.321 . S
C598 H622 0.930 . S
H599 C594 0.931 . S
Co600 N597 2.135 1_554 S
Co600 N603 2.121 . S
Co600 O608 2.055 . S
Co600 O611 2.039 . S
Co600 N614 2.140 . S
C601 O602 1.227 . S
C601 O611 1.265 . S
O602 C601 1.227 . S
N603 Co600 2.121 . S
N603 C605 1.375 . S
N603 C606 1.313 . S
C604 C605 1.338 . S
C604 N607 1.377 . S
C604 H624 0.930 . S
C605 N603 1.375 . S
C605 C604 1.338 . S
C605 H609 0.931 . S
C606 N603 1.313 . S
C606 N607 1.344 . S
C606 H610 0.930 . S
N607 C604 1.377 . S
N607 C606 1.344 . S
O608 Co600 2.055 . S
O608 C612 1.253 . S
H609 C605 0.931 . S
H610 C606 0.930 . S
O611 Co600 2.039 . S
O611 C601 1.265 . S
C612 O608 1.253 . S
C612 O613 1.227 . S
O613 C612 1.227 . S
N614 Co600 2.140 . S
N614 C617 1.346 1_554 S
N614 C618 1.345 . S
C615 C616 1.387 1_554 S
C615 C619 1.391 . S
C616 C615 1.387 1_556 S
C616 C617 1.369 . S
C616 H625 0.929 . S
C617 N614 1.346 1_556 S
C617 C616 1.369 . S
C617 H620 0.928 . S
C618 N614 1.345 . S
C618 C619 1.371 . S
C618 H621 0.931 . S
C619 C615 1.391 . S
C619 C618 1.371 . S
C619 H626 0.930 . S
H620 C617 0.928 . S
H621 C618 0.931 . S
H622 C598 0.930 . S
H623 C595 0.930 . S
H624 C604 0.930 . S
H625 C616 0.929 . S
H626 C619 0.930 . S
C627 C628 1.351 . S
C627 N630 1.368 . S
C627 H632 0.931 . S
C628 C627 1.351 . S
C628 N629 1.373 . S
C628 H656 0.930 . S
N629 C628 1.373 . S
N629 C631 1.340 . S
N630 C627 1.368 . S
N630 C631 1.321 . S
N630 Co633 2.135 . S
C631 N629 1.340 . S
C631 N630 1.321 . S
C631 H655 0.930 . S
H632 C627 0.931 . S
Co633 N630 2.135 . S
Co633 N636 2.121 . S
Co633 O641 2.055 . S
Co633 O644 2.039 . S
Co633 N647 2.140 . S
C634 O635 1.227 . S
C634 O644 1.265 . S
O635 C634 1.227 . S
N636 Co633 2.121 . S
N636 C638 1.375 . S
N636 C639 1.313 . S
C637 C638 1.338 . S
C637 N640 1.377 . S
C637 H657 0.930 . S
C638 N636 1.375 . S
C638 C637 1.338 . S
C638 H642 0.931 . S
C639 N636 1.313 . S
C639 N640 1.344 . S
C639 H643 0.930 . S
N640 C637 1.377 . S
N640 C639 1.344 . S
O641 Co633 2.055 . S
O641 C645 1.253 . S
H642 C638 0.931 . S
H643 C639 0.930 . S
O644 Co633 2.039 . S
O644 C634 1.265 . S
C645 O641 1.253 . S
C645 O646 1.227 . S
O646 C645 1.227 . S
N647 Co633 2.140 . S
N647 C650 1.346 . S
N647 C651 1.345 . S
C648 C649 1.387 . S
C648 C652 1.391 . S
C649 C648 1.387 . S
C649 C650 1.369 . S
C649 H658 0.929 . S
C650 N647 1.346 . S
C650 C649 1.369 . S
C650 H653 0.928 . S
C651 N647 1.345 . S
C651 C652 1.371 . S
C651 H654 0.931 . S
C652 C648 1.391 . S
C652 C651 1.371 . S
C652 H659 0.930 . S
H653 C650 0.928 . S
H654 C651 0.931 . S
H655 C631 0.930 . S
H656 C628 0.930 . S
H657 C637 0.930 . S
H658 C649 0.929 . S
H659 C652 0.930 . S
C660 C661 1.351 . S
C660 N663 1.368 . S
C660 H665 0.931 . S
C661 C660 1.351 . S
C661 N662 1.373 . S
C661 H689 0.930 . S
N662 C661 1.373 . S
N662 C664 1.340 . S
N663 C660 1.368 . S
N663 C664 1.321 . S
N663 Co666 2.135 . S
C664 N662 1.340 . S
C664 N663 1.321 . S
C664 H688 0.930 . S
H665 C660 0.931 . S
Co666 N663 2.135 . S
Co666 N669 2.121 . S
Co666 O674 2.055 . S
Co666 O677 2.039 . S
Co666 N680 2.140 . S
C667 O668 1.227 . S
C667 O677 1.265 . S
O668 C667 1.227 . S
N669 Co666 2.121 . S
N669 C671 1.375 . S
N669 C672 1.313 . S
C670 C671 1.338 . S
C670 N673 1.377 . S
C670 H690 0.930 . S
C671 N669 1.375 . S
C671 C670 1.338 . S
C671 H675 0.931 . S
C672 N669 1.313 . S
C672 N673 1.344 . S
C672 H676 0.930 . S
N673 C670 1.377 . S
N673 C672 1.344 . S
O674 Co666 2.055 . S
O674 C678 1.253 . S
H675 C671 0.931 . S
H676 C672 0.930 . S
O677 Co666 2.039 . S
O677 C667 1.265 . S
C678 O674 1.253 . S
C678 O679 1.227 . S
O679 C678 1.227 . S
N680 Co666 2.140 . S
N680 C683 1.346 . S
N680 C684 1.345 . S
C681 C682 1.387 . S
C681 C685 1.391 . S
C682 C681 1.387 . S
C682 C683 1.369 . S
C682 H691 0.929 . S
C683 N680 1.346 . S
C683 C682 1.369 . S
C683 H686 0.928 . S
C684 N680 1.345 . S
C684 C685 1.371 . S
C684 H687 0.931 . S
C685 C681 1.391 . S
C685 C684 1.371 . S
C685 H692 0.930 . S
H686 C683 0.928 . S
H687 C684 0.931 . S
H688 C664 0.930 . S
H689 C661 0.930 . S
H690 C670 0.930 . S
H691 C682 0.929 . S
H692 C685 0.930 . S
C693 C694 1.351 . S
C693 N696 1.368 . S
C693 H698 0.931 . S
C694 C693 1.351 . S
C694 N695 1.373 . S
C694 H722 0.930 . S
N695 C694 1.373 . S
N695 C697 1.340 . S
N696 C693 1.368 . S
N696 C697 1.321 . S
N696 Co699 2.135 . S
C697 N695 1.340 . S
C697 N696 1.321 . S
C697 H721 0.930 . S
H698 C693 0.931 . S
Co699 N696 2.135 . S
Co699 N702 2.121 . S
Co699 O707 2.055 . S
Co699 O710 2.039 . S
Co699 N713 2.140 . S
C700 O701 1.227 . S
C700 O710 1.265 . S
O701 C700 1.227 . S
N702 Co699 2.121 . S
N702 C704 1.375 . S
N702 C705 1.313 . S
C703 C704 1.338 . S
C703 N706 1.377 . S
C703 H723 0.930 . S
C704 N702 1.375 . S
C704 C703 1.338 . S
C704 H708 0.931 . S
C705 N702 1.313 . S
C705 N706 1.344 . S
C705 H709 0.930 . S
N706 C703 1.377 . S
N706 C705 1.344 . S
O707 Co699 2.055 . S
O707 C711 1.253 . S
H708 C704 0.931 . S
H709 C705 0.930 . S
O710 Co699 2.039 . S
O710 C700 1.265 . S
C711 O707 1.253 . S
C711 O712 1.227 . S
O712 C711 1.227 . S
N713 Co699 2.140 . S
N713 C716 1.346 . S
N713 C717 1.345 . S
C714 C715 1.387 . S
C714 C718 1.391 . S
C715 C714 1.387 . S
C715 C716 1.369 . S
C715 H724 0.929 . S
C716 N713 1.346 . S
C716 C715 1.369 . S
C716 H719 0.928 . S
C717 N713 1.345 . S
C717 C718 1.371 . S
C717 H720 0.931 . S
C718 C714 1.391 . S
C718 C717 1.371 . S
C718 H725 0.930 . S
H719 C716 0.928 . S
H720 C717 0.931 . S
H721 C697 0.930 . S
H722 C694 0.930 . S
H723 C703 0.930 . S
H724 C715 0.929 . S
H725 C718 0.930 . S
C726 C727 1.351 . S
C726 N729 1.368 . S
C726 H731 0.931 . S
C727 C726 1.351 . S
C727 N728 1.373 . S
C727 H755 0.930 . S
N728 C727 1.373 . S
N728 C730 1.340 . S
N729 C726 1.368 . S
N729 C730 1.321 . S
N729 Co732 2.135 1_554 S
C730 N728 1.340 . S
C730 N729 1.321 . S
C730 H754 0.930 . S
H731 C726 0.931 . S
Co732 N729 2.135 1_556 S
Co732 N735 2.121 . S
Co732 O740 2.055 . S
Co732 O743 2.039 . S
Co732 N746 2.140 . S
C733 O734 1.227 . S
C733 O743 1.265 . S
O734 C733 1.227 . S
N735 Co732 2.121 . S
N735 C737 1.375 . S
N735 C738 1.313 . S
C736 C737 1.338 . S
C736 N739 1.377 . S
C736 H756 0.930 . S
C737 N735 1.375 . S
C737 C736 1.338 . S
C737 H741 0.931 . S
C738 N735 1.313 . S
C738 N739 1.344 . S
C738 H742 0.930 . S
N739 C736 1.377 . S
N739 C738 1.344 . S
O740 Co732 2.055 . S
O740 C744 1.253 . S
H741 C737 0.931 . S
H742 C738 0.930 . S
O743 Co732 2.039 . S
O743 C733 1.265 . S
C744 O740 1.253 . S
C744 O745 1.227 . S
O745 C744 1.227 . S
N746 Co732 2.140 . S
N746 C749 1.346 1_556 S
N746 C750 1.345 . S
C747 C748 1.387 1_556 S
C747 C751 1.391 . S
C748 C747 1.387 1_554 S
C748 C749 1.369 . S
C748 H757 0.929 . S
C749 N746 1.346 1_554 S
C749 C748 1.369 . S
C749 H752 0.928 . S
C750 N746 1.345 . S
C750 C751 1.371 . S
C750 H753 0.931 . S
C751 C747 1.391 . S
C751 C750 1.371 . S
C751 H758 0.930 . S
H752 C749 0.928 . S
H753 C750 0.931 . S
H754 C730 0.930 . S
H755 C727 0.930 . S
H756 C736 0.930 . S
H757 C748 0.929 . S
H758 C751 0.930 . S
C759 C760 1.351 . S
C759 N762 1.368 . S
C759 H764 0.931 . S
C760 C759 1.351 . S
C760 N761 1.373 . S
C760 H788 0.930 . S
N761 C760 1.373 . S
N761 C763 1.340 . S
N762 C759 1.368 . S
N762 C763 1.321 . S
N762 Co765 2.135 . S
C763 N761 1.340 . S
C763 N762 1.321 . S
C763 H787 0.930 . S
H764 C759 0.931 . S
Co765 N762 2.135 . S
Co765 N768 2.121 . S
Co765 O773 2.055 . S
Co765 O776 2.039 . S
Co765 N779 2.140 . S
C766 O767 1.227 . S
C766 O776 1.265 . S
O767 C766 1.227 . S
N768 Co765 2.121 . S
N768 C770 1.375 . S
N768 C771 1.313 . S
C769 C770 1.338 1_556 S
C769 N772 1.377 . S
C769 H789 0.930 . S
C770 N768 1.375 . S
C770 C769 1.338 1_554 S
C770 H774 0.931 . S
C771 N768 1.313 . S
C771 N772 1.344 1_554 S
C771 H775 0.930 . S
N772 C769 1.377 . S
N772 C771 1.344 1_556 S
O773 Co765 2.055 . S
O773 C777 1.253 . S
H774 C770 0.931 . S
H775 C771 0.930 . S
O776 Co765 2.039 . S
O776 C766 1.265 . S
C777 O773 1.253 . S
C777 O778 1.227 . S
O778 C777 1.227 . S
N779 Co765 2.140 . S
N779 C782 1.346 . S
N779 C783 1.345 . S
C780 C781 1.387 . S
C780 C784 1.391 . S
C781 C780 1.387 . S
C781 C782 1.369 . S
C781 H790 0.929 . S
C782 N779 1.346 . S
C782 C781 1.369 . S
C782 H785 0.928 . S
C783 N779 1.345 . S
C783 C784 1.371 . S
C783 H786 0.931 . S
C784 C780 1.391 . S
C784 C783 1.371 . S
C784 H791 0.930 . S
H785 C782 0.928 . S
H786 C783 0.931 . S
H787 C763 0.930 . S
H788 C760 0.930 . S
H789 C769 0.930 . S
H790 C781 0.929 . S
H791 C784 0.930 . S
C792 C793 1.351 . S
C792 N795 1.368 . S
C792 H797 0.931 . S
C793 C792 1.351 . S
C793 N794 1.373 . S
C793 H821 0.930 . S
N794 C793 1.373 . S
N794 C796 1.340 . S
N795 C792 1.368 . S
N795 C796 1.321 . S
N795 Co798 2.135 . S
C796 N794 1.340 . S
C796 N795 1.321 . S
C796 H820 0.930 . S
H797 C792 0.931 . S
Co798 N795 2.135 . S
Co798 N801 2.121 . S
Co798 O806 2.055 . S
Co798 O809 2.039 . S
Co798 N812 2.140 . S
C799 O800 1.227 . S
C799 O809 1.265 . S
O800 C799 1.227 . S
N801 Co798 2.121 . S
N801 C803 1.375 . S
N801 C804 1.313 . S
C802 C803 1.338 . S
C802 N805 1.377 . S
C802 H822 0.930 . S
C803 N801 1.375 . S
C803 C802 1.338 . S
C803 H807 0.931 . S
C804 N801 1.313 . S
C804 N805 1.344 . S
C804 H808 0.930 . S
N805 C802 1.377 . S
N805 C804 1.344 . S
O806 Co798 2.055 . S
O806 C810 1.253 . S
H807 C803 0.931 . S
H808 C804 0.930 . S
O809 Co798 2.039 . S
O809 C799 1.265 . S
C810 O806 1.253 . S
C810 O811 1.227 . S
O811 C810 1.227 . S
N812 Co798 2.140 . S
N812 C815 1.346 . S
N812 C816 1.345 . S
C813 C814 1.387 . S
C813 C817 1.391 . S
C814 C813 1.387 . S
C814 C815 1.369 . S
C814 H823 0.929 . S
C815 N812 1.346 . S
C815 C814 1.369 . S
C815 H818 0.928 . S
C816 N812 1.345 . S
C816 C817 1.371 . S
C816 H819 0.931 . S
C817 C813 1.391 . S
C817 C816 1.371 . S
C817 H824 0.930 . S
H818 C815 0.928 . S
H819 C816 0.931 . S
H820 C796 0.930 . S
H821 C793 0.930 . S
H822 C802 0.930 . S
H823 C814 0.929 . S
H824 C817 0.930 . S
C825 C826 1.351 . S
C825 N828 1.368 . S
C825 H830 0.931 . S
C826 C825 1.351 . S
C826 N827 1.373 . S
C826 H854 0.930 . S
N827 C826 1.373 . S
N827 C829 1.340 . S
N828 C825 1.368 . S
N828 C829 1.321 . S
N828 Co831 2.135 . S
C829 N827 1.340 . S
C829 N828 1.321 . S
C829 H853 0.930 . S
H830 C825 0.931 . S
Co831 N828 2.135 . S
Co831 N834 2.121 . S
Co831 O839 2.055 . S
Co831 O842 2.039 . S
Co831 N845 2.140 . S
C832 O833 1.227 . S
C832 O842 1.265 . S
O833 C832 1.227 . S
N834 Co831 2.121 . S
N834 C836 1.375 . S
N834 C837 1.313 . S
C835 C836 1.338 1_556 S
C835 N838 1.377 . S
C835 H855 0.930 . S
C836 N834 1.375 . S
C836 C835 1.338 1_554 S
C836 H840 0.931 . S
C837 N834 1.313 . S
C837 N838 1.344 1_554 S
C837 H841 0.930 . S
N838 C835 1.377 . S
N838 C837 1.344 1_556 S
O839 Co831 2.055 . S
O839 C843 1.253 . S
H840 C836 0.931 . S
H841 C837 0.930 . S
O842 Co831 2.039 . S
O842 C832 1.265 . S
C843 O839 1.253 . S
C843 O844 1.227 . S
O844 C843 1.227 . S
N845 Co831 2.140 . S
N845 C848 1.346 . S
N845 C849 1.345 . S
C846 C847 1.387 . S
C846 C850 1.391 . S
C847 C846 1.387 . S
C847 C848 1.369 . S
C847 H856 0.929 . S
C848 N845 1.346 . S
C848 C847 1.369 . S
C848 H851 0.928 . S
C849 N845 1.345 . S
C849 C850 1.371 . S
C849 H852 0.931 . S
C850 C846 1.391 . S
C850 C849 1.371 . S
C850 H857 0.930 . S
H851 C848 0.928 . S
H852 C849 0.931 . S
H853 C829 0.930 . S
H854 C826 0.930 . S
H855 C835 0.930 . S
H856 C847 0.929 . S
H857 C850 0.930 . S
C858 C859 1.351 . S
C858 N861 1.368 . S
C858 H863 0.931 . S
C859 C858 1.351 . S
C859 N860 1.373 . S
C859 H887 0.930 . S
N860 C859 1.373 . S
N860 C862 1.340 . S
N861 C858 1.368 . S
N861 C862 1.321 . S
N861 Co864 2.135 1_554 S
C862 N860 1.340 . S
C862 N861 1.321 . S
C862 H886 0.930 . S
H863 C858 0.931 . S
Co864 N861 2.135 1_556 S
Co864 N867 2.121 . S
Co864 O872 2.055 . S
Co864 O875 2.039 . S
Co864 N878 2.140 . S
C865 O866 1.227 . S
C865 O875 1.265 . S
O866 C865 1.227 . S
N867 Co864 2.121 . S
N867 C869 1.375 . S
N867 C870 1.313 . S
C868 C869 1.338 . S
C868 N871 1.377 . S
C868 H888 0.930 . S
C869 N867 1.375 . S
C869 C868 1.338 . S
C869 H873 0.931 . S
C870 N867 1.313 . S
C870 N871 1.344 . S
C870 H874 0.930 . S
N871 C868 1.377 . S
N871 C870 1.344 . S
O872 Co864 2.055 . S
O872 C876 1.253 . S
H873 C869 0.931 . S
H874 C870 0.930 . S
O875 Co864 2.039 . S
O875 C865 1.265 . S
C876 O872 1.253 . S
C876 O877 1.227 . S
O877 C876 1.227 . S
N878 Co864 2.140 . S
N878 C881 1.346 1_556 S
N878 C882 1.345 . S
C879 C880 1.387 1_556 S
C879 C883 1.391 . S
C880 C879 1.387 1_554 S
C880 C881 1.369 . S
C880 H889 0.929 . S
C881 N878 1.346 1_554 S
C881 C880 1.369 . S
C881 H884 0.928 . S
C882 N878 1.345 . S
C882 C883 1.371 . S
C882 H885 0.931 . S
C883 C879 1.391 . S
C883 C882 1.371 . S
C883 H890 0.930 . S
H884 C881 0.928 . S
H885 C882 0.931 . S
H886 C862 0.930 . S
H887 C859 0.930 . S
H888 C868 0.930 . S
H889 C880 0.929 . S
H890 C883 0.930 . S
C891 C892 1.351 . S
C891 N894 1.368 . S
C891 H896 0.931 . S
C892 C891 1.351 . S
C892 N893 1.373 . S
C892 H920 0.930 . S
N893 C892 1.373 . S
N893 C895 1.340 . S
N894 C891 1.368 . S
N894 C895 1.321 . S
N894 Co897 2.135 . S
C895 N893 1.340 . S
C895 N894 1.321 . S
C895 H919 0.930 . S
H896 C891 0.931 . S
Co897 N894 2.135 . S
Co897 N900 2.121 . S
Co897 O905 2.055 . S
Co897 O908 2.039 . S
Co897 N911 2.140 . S
C898 O899 1.227 . S
C898 O908 1.265 . S
O899 C898 1.227 . S
N900 Co897 2.121 . S
N900 C902 1.375 . S
N900 C903 1.313 . S
C901 C902 1.338 . S
C901 N904 1.377 . S
C901 H921 0.930 . S
C902 N900 1.375 . S
C902 C901 1.338 . S
C902 H906 0.931 . S
C903 N900 1.313 . S
C903 N904 1.344 . S
C903 H907 0.930 . S
N904 C901 1.377 . S
N904 C903 1.344 . S
O905 Co897 2.055 . S
O905 C909 1.253 . S
H906 C902 0.931 . S
H907 C903 0.930 . S
O908 Co897 2.039 . S
O908 C898 1.265 . S
C909 O905 1.253 . S
C909 O910 1.227 . S
O910 C909 1.227 . S
N911 Co897 2.140 . S
N911 C914 1.346 . S
N911 C915 1.345 . S
C912 C913 1.387 . S
C912 C916 1.391 . S
C913 C912 1.387 . S
C913 C914 1.369 . S
C913 H922 0.929 . S
C914 N911 1.346 . S
C914 C913 1.369 . S
C914 H917 0.928 . S
C915 N911 1.345 . S
C915 C916 1.371 . S
C915 H918 0.931 . S
C916 C912 1.391 . S
C916 C915 1.371 . S
C916 H923 0.930 . S
H917 C914 0.928 . S
H918 C915 0.931 . S
H919 C895 0.930 . S
H920 C892 0.930 . S
H921 C901 0.930 . S
H922 C913 0.929 . S
H923 C916 0.930 . S
C924 C925 1.351 . S
C924 N927 1.368 . S
C924 H929 0.931 . S
C925 C924 1.351 . S
C925 N926 1.373 . S
C925 H953 0.930 . S
N926 C925 1.373 . S
N926 C928 1.340 . S
N927 C924 1.368 . S
N927 C928 1.321 . S
N927 Co930 2.135 . S
C928 N926 1.340 . S
C928 N927 1.321 . S
C928 H952 0.930 . S
H929 C924 0.931 . S
Co930 N927 2.135 . S
Co930 N933 2.121 . S
Co930 O938 2.055 . S
Co930 O941 2.039 . S
Co930 N944 2.140 . S
C931 O932 1.227 . S
C931 O941 1.265 . S
O932 C931 1.227 . S
N933 Co930 2.121 . S
N933 C935 1.375 . S
N933 C936 1.313 . S
C934 C935 1.338 . S
C934 N937 1.377 . S
C934 H954 0.930 . S
C935 N933 1.375 . S
C935 C934 1.338 . S
C935 H939 0.931 . S
C936 N933 1.313 . S
C936 N937 1.344 . S
C936 H940 0.930 . S
N937 C934 1.377 . S
N937 C936 1.344 . S
O938 Co930 2.055 . S
O938 C942 1.253 . S
H939 C935 0.931 . S
H940 C936 0.930 . S
O941 Co930 2.039 . S
O941 C931 1.265 . S
C942 O938 1.253 . S
C942 O943 1.227 . S
O943 C942 1.227 . S
N944 Co930 2.140 . S
N944 C947 1.346 . S
N944 C948 1.345 . S
C945 C946 1.387 . S
C945 C949 1.391 . S
C946 C945 1.387 . S
C946 C947 1.369 . S
C946 H955 0.929 . S
C947 N944 1.346 . S
C947 C946 1.369 . S
C947 H950 0.928 . S
C948 N944 1.345 . S
C948 C949 1.371 . S
C948 H951 0.931 . S
C949 C945 1.391 . S
C949 C948 1.371 . S
C949 H956 0.930 . S
H950 C947 0.928 . S
H951 C948 0.931 . S
H952 C928 0.930 . S
H953 C925 0.930 . S
H954 C934 0.930 . S
H955 C946 0.929 . S
H956 C949 0.930 . S
C957 C958 1.351 . S
C957 N960 1.368 . S
C957 H962 0.931 . S
C958 C957 1.351 . S
C958 N959 1.373 . S
C958 H986 0.930 . S
N959 C958 1.373 . S
N959 C961 1.340 . S
N960 C957 1.368 . S
N960 C961 1.321 . S
N960 Co963 2.135 . S
C961 N959 1.340 . S
C961 N960 1.321 . S
C961 H985 0.930 . S
H962 C957 0.931 . S
Co963 N960 2.135 . S
Co963 N966 2.121 . S
Co963 O971 2.055 . S
Co963 O974 2.039 . S
Co963 N977 2.140 . S
C964 O965 1.227 . S
C964 O974 1.265 . S
O965 C964 1.227 . S
N966 Co963 2.121 . S
N966 C968 1.375 . S
N966 C969 1.313 . S
C967 C968 1.338 . S
C967 N970 1.377 . S
C967 H987 0.930 . S
C968 N966 1.375 . S
C968 C967 1.338 . S
C968 H972 0.931 . S
C969 N966 1.313 . S
C969 N970 1.344 . S
C969 H973 0.930 . S
N970 C967 1.377 . S
N970 C969 1.344 . S
O971 Co963 2.055 . S
O971 C975 1.253 . S
H972 C968 0.931 . S
H973 C969 0.930 . S
O974 Co963 2.039 . S
O974 C964 1.265 . S
C975 O971 1.253 . S
C975 O976 1.227 . S
O976 C975 1.227 . S
N977 Co963 2.140 . S
N977 C980 1.346 . S
N977 C981 1.345 . S
C978 C979 1.387 . S
C978 C982 1.391 . S
C979 C978 1.387 . S
C979 C980 1.369 . S
C979 H988 0.929 . S
C980 N977 1.346 . S
C980 C979 1.369 . S
C980 H983 0.928 . S
C981 N977 1.345 . S
C981 C982 1.371 . S
C981 H984 0.931 . S
C982 C978 1.391 . S
C982 C981 1.371 . S
C982 H989 0.930 . S
H983 C980 0.928 . S
H984 C981 0.931 . S
H985 C961 0.930 . S
H986 C958 0.930 . S
H987 C967 0.930 . S
H988 C979 0.929 . S
H989 C982 0.930 . S
C990 C991 1.351 . S
C990 N993 1.368 . S
C990 H995 0.931 . S
C991 C990 1.351 . S
C991 N992 1.373 . S
C991 H1019 0.930 . S
N992 C991 1.373 . S
N992 C994 1.340 . S
N993 C990 1.368 . S
N993 C994 1.321 . S
N993 Co996 2.135 1_556 S
C994 N992 1.340 . S
C994 N993 1.321 . S
C994 H1018 0.930 . S
H995 C990 0.931 . S
Co996 N993 2.135 1_554 S
Co996 N999 2.121 . S
Co996 O1004 2.055 . S
Co996 O1007 2.039 . S
Co996 N1010 2.140 . S
C997 O998 1.227 . S
C997 O1007 1.265 . S
O998 C997 1.227 . S
N999 Co996 2.121 . S
N999 C1001 1.375 . S
N999 C1002 1.313 . S
C1000 C1001 1.338 . S
C1000 N1003 1.377 . S
C1000 H1020 0.930 . S
C1001 N999 1.375 . S
C1001 C1000 1.338 . S
C1001 H1005 0.931 . S
C1002 N999 1.313 . S
C1002 N1003 1.344 . S
C1002 H1006 0.930 . S
N1003 C1000 1.377 . S
N1003 C1002 1.344 . S
O1004 Co996 2.055 . S
O1004 C1008 1.253 . S
H1005 C1001 0.931 . S
H1006 C1002 0.930 . S
O1007 Co996 2.039 . S
O1007 C997 1.265 . S
C1008 O1004 1.253 . S
C1008 O1009 1.227 . S
O1009 C1008 1.227 . S
N1010 Co996 2.140 . S
N1010 C1013 1.346 1_554 S
N1010 C1014 1.345 . S
C1011 C1012 1.387 1_554 S
C1011 C1015 1.391 . S
C1012 C1011 1.387 1_556 S
C1012 C1013 1.369 . S
C1012 H1021 0.929 . S
C1013 N1010 1.346 1_556 S
C1013 C1012 1.369 . S
C1013 H1016 0.928 . S
C1014 N1010 1.345 . S
C1014 C1015 1.371 . S
C1014 H1017 0.931 . S
C1015 C1011 1.391 . S
C1015 C1014 1.371 . S
C1015 H1022 0.930 . S
H1016 C1013 0.928 . S
H1017 C1014 0.931 . S
H1018 C994 0.930 . S
H1019 C991 0.930 . S
H1020 C1000 0.930 . S
H1021 C1012 0.929 . S
H1022 C1015 0.930 . S
C1023 C1024 1.351 . S
C1023 N1026 1.368 . S
C1023 H1028 0.931 . S
C1024 C1023 1.351 . S
C1024 N1025 1.373 . S
C1024 H1052 0.930 . S
N1025 C1024 1.373 . S
N1025 C1027 1.340 . S
N1026 C1023 1.368 . S
N1026 C1027 1.321 . S
N1026 Co1029 2.135 . S
C1027 N1025 1.340 . S
C1027 N1026 1.321 . S
C1027 H1051 0.930 . S
H1028 C1023 0.931 . S
Co1029 N1026 2.135 . S
Co1029 N1032 2.121 . S
Co1029 O1037 2.055 . S
Co1029 O1040 2.039 . S
Co1029 N1043 2.140 . S
C1030 O1031 1.227 . S
C1030 O1040 1.265 . S
O1031 C1030 1.227 . S
N1032 Co1029 2.121 . S
N1032 C1034 1.375 . S
N1032 C1035 1.313 . S
C1033 C1034 1.338 1_554 S
C1033 N1036 1.377 . S
C1033 H1053 0.930 . S
C1034 N1032 1.375 . S
C1034 C1033 1.338 1_556 S
C1034 H1038 0.931 . S
C1035 N1032 1.313 . S
C1035 N1036 1.344 1_556 S
C1035 H1039 0.930 . S
N1036 C1033 1.377 . S
N1036 C1035 1.344 1_554 S
O1037 Co1029 2.055 . S
O1037 C1041 1.253 . S
H1038 C1034 0.931 . S
H1039 C1035 0.930 . S
O1040 Co1029 2.039 . S
O1040 C1030 1.265 . S
C1041 O1037 1.253 . S
C1041 O1042 1.227 . S
O1042 C1041 1.227 . S
N1043 Co1029 2.140 . S
N1043 C1046 1.346 . S
N1043 C1047 1.345 . S
C1044 C1045 1.387 . S
C1044 C1048 1.391 . S
C1045 C1044 1.387 . S
C1045 C1046 1.369 . S
C1045 H1054 0.929 . S
C1046 N1043 1.346 . S
C1046 C1045 1.369 . S
C1046 H1049 0.928 . S
C1047 N1043 1.345 . S
C1047 C1048 1.371 . S
C1047 H1050 0.931 . S
C1048 C1044 1.391 . S
C1048 C1047 1.371 . S
C1048 H1055 0.930 . S
H1049 C1046 0.928 . S
H1050 C1047 0.931 . S
H1051 C1027 0.930 . S
H1052 C1024 0.930 . S
H1053 C1033 0.930 . S
H1054 C1045 0.929 . S
H1055 C1048 0.930 . S
H1056 C1064 0.950 . S
H1057 C1069 0.950 . S
H1058 C1066 0.950 . S
H1059 C1068 0.950 . S
H1060 C1070 0.950 . S
H1061 C1072 0.950 . S
H1062 C1074 0.950 . S
H1063 C1075 0.950 . S
C1064 H1056 0.950 . S
C1064 C1065 1.386 . S
C1064 C1066 1.391 . S
C1065 C1064 1.386 . S
C1065 C1069 1.393 . S
C1066 H1058 0.950 . S
C1066 C1064 1.391 . S
C1066 C1067 1.400 . S
C1067 C1066 1.400 . S
C1067 C1068 1.398 . S
C1067 C1073 1.491 . S
C1068 H1059 0.950 . S
C1068 C1067 1.398 . S
C1068 C1069 1.391 . S
C1069 H1057 0.950 . S
C1069 C1065 1.393 . S
C1069 C1068 1.391 . S
C1070 H1060 0.950 . S
C1070 C1071 1.386 . S
C1070 C1072 1.391 . S
C1071 C1070 1.386 . S
C1071 C1075 1.393 . S
C1072 H1061 0.950 . S
C1072 C1070 1.391 . S
C1072 C1073 1.400 . S
C1073 C1067 1.491 . S
C1073 C1072 1.400 . S
C1073 C1074 1.398 . S
C1074 H1062 0.950 . S
C1074 C1073 1.398 . S
C1074 C1075 1.391 . S
C1075 H1063 0.950 . S
C1075 C1071 1.393 . S
C1075 C1074 1.391 . S
H1076 C1084 0.950 . S
H1077 C1089 0.950 . S
H1078 C1086 0.950 . S
H1079 C1088 0.950 . S
H1080 C1090 0.950 . S
H1081 C1092 0.950 . S
H1082 C1094 0.950 . S
H1083 C1095 0.950 . S
C1084 H1076 0.950 . S
C1084 C1085 1.386 . S
C1084 C1086 1.391 . S
C1085 C1084 1.386 . S
C1085 C1089 1.393 . S
C1086 H1078 0.950 . S
C1086 C1084 1.391 . S
C1086 C1087 1.400 . S
C1087 C1086 1.400 . S
C1087 C1088 1.398 . S
C1087 C1093 1.491 . S
C1088 H1079 0.950 . S
C1088 C1087 1.398 . S
C1088 C1089 1.391 . S
C1089 H1077 0.950 . S
C1089 C1085 1.393 . S
C1089 C1088 1.391 . S
C1090 H1080 0.950 . S
C1090 C1091 1.386 . S
C1090 C1092 1.391 . S
C1091 C1090 1.386 . S
C1091 C1095 1.393 . S
C1092 H1081 0.950 . S
C1092 C1090 1.391 . S
C1092 C1093 1.400 . S
C1093 C1087 1.491 . S
C1093 C1092 1.400 . S
C1093 C1094 1.398 . S
C1094 H1082 0.950 . S
C1094 C1093 1.398 . S
C1094 C1095 1.391 . S
C1095 H1083 0.950 . S
C1095 C1091 1.393 . S
C1095 C1094 1.391 . S
H1096 C1104 0.950 . S
H1097 C1109 0.950 . S
H1098 C1106 0.954 . S
H1099 C1108 0.950 . S
H1100 C1110 0.950 . S
H1101 C1112 0.950 . S
H1102 C1114 0.950 . S
H1103 C1115 0.950 . S
C1104 H1096 0.950 . S
C1104 C1105 1.386 . S
C1104 C1106 1.391 . S
C1105 C1104 1.386 . S
C1105 C1109 1.393 . S
C1106 H1098 0.954 . S
C1106 C1104 1.391 . S
C1106 C1107 1.400 1_556 S
C1107 C1106 1.400 1_554 S
C1107 C1108 1.398 1_554 S
C1107 C1113 1.491 . S
C1108 H1099 0.950 . S
C1108 C1107 1.398 1_556 S
C1108 C1109 1.391 . S
C1109 H1097 0.950 . S
C1109 C1105 1.393 . S
C1109 C1108 1.391 . S
C1110 H1100 0.950 . S
C1110 C1111 1.386 . S
C1110 C1112 1.391 . S
C1111 C1110 1.386 . S
C1111 C1115 1.393 . S
C1112 H1101 0.950 . S
C1112 C1110 1.391 . S
C1112 C1113 1.400 . S
C1113 C1107 1.491 . S
C1113 C1112 1.400 . S
C1113 C1114 1.398 . S
C1114 H1102 0.950 . S
C1114 C1113 1.398 . S
C1114 C1115 1.391 . S
C1115 H1103 0.950 . S
C1115 C1111 1.393 . S
C1115 C1114 1.391 . S
H1116 C1124 0.950 . S
H1117 C1129 0.950 . S
H1118 C1126 0.950 . S
H1119 C1128 0.950 . S
H1120 C1130 0.950 . S
H1121 C1132 0.950 . S
H1122 C1134 0.950 . S
H1123 C1135 0.950 . S
C1124 H1116 0.950 . S
C1124 C1125 1.386 . S
C1124 C1126 1.391 . S
C1125 C1124 1.386 . S
C1125 C1129 1.393 . S
C1126 H1118 0.950 . S
C1126 C1124 1.391 . S
C1126 C1127 1.400 . S
C1127 C1126 1.400 . S
C1127 C1128 1.398 . S
C1127 C1133 1.491 . S
C1128 H1119 0.950 . S
C1128 C1127 1.398 . S
C1128 C1129 1.391 . S
C1129 H1117 0.950 . S
C1129 C1125 1.393 . S
C1129 C1128 1.391 . S
C1130 H1120 0.950 . S
C1130 C1131 1.386 . S
C1130 C1132 1.391 . S
C1131 C1130 1.386 . S
C1131 C1135 1.393 . S
C1132 H1121 0.950 . S
C1132 C1130 1.391 . S
C1132 C1133 1.400 . S
C1133 C1127 1.491 . S
C1133 C1132 1.400 . S
C1133 C1134 1.398 . S
C1134 H1122 0.950 . S
C1134 C1133 1.398 . S
C1134 C1135 1.391 . S
C1135 H1123 0.950 . S
C1135 C1131 1.393 . S
C1135 C1134 1.391 . S
H1136 C1144 0.950 . S
H1137 C1149 0.950 . S
H1138 C1146 0.950 . S
H1139 C1148 0.950 . S
H1140 C1150 0.950 . S
H1141 C1152 0.950 . S
H1142 C1154 0.950 . S
H1143 C1155 0.950 . S
C1144 H1136 0.950 . S
C1144 C1145 1.386 . S
C1144 C1146 1.391 . S
C1145 C1144 1.386 . S
C1145 C1149 1.393 . S
C1146 H1138 0.950 . S
C1146 C1144 1.391 . S
C1146 C1147 1.400 . S
C1147 C1146 1.400 . S
C1147 C1148 1.398 . S
C1147 C1153 1.491 . S
C1148 H1139 0.950 . S
C1148 C1147 1.398 . S
C1148 C1149 1.391 . S
C1149 H1137 0.950 . S
C1149 C1145 1.393 . S
C1149 C1148 1.391 . S
C1150 H1140 0.950 . S
C1150 C1151 1.386 . S
C1150 C1152 1.391 . S
C1151 C1150 1.386 . S
C1151 C1155 1.393 . S
C1152 H1141 0.950 . S
C1152 C1150 1.391 . S
C1152 C1153 1.400 . S
C1153 C1147 1.491 . S
C1153 C1152 1.400 . S
C1153 C1154 1.398 . S
C1154 H1142 0.950 . S
C1154 C1153 1.398 . S
C1154 C1155 1.391 . S
C1155 H1143 0.950 . S
C1155 C1151 1.393 . S
C1155 C1154 1.391 . S
H1156 C1164 0.950 . S
H1157 C1169 0.950 . S
H1158 C1166 0.950 . S
H1159 C1168 0.950 . S
H1160 C1170 0.950 . S
H1161 C1172 0.950 . S
H1162 C1174 0.950 . S
H1163 C1175 0.950 . S
C1164 H1156 0.950 . S
C1164 C1165 1.386 . S
C1164 C1166 1.391 . S
C1165 C1164 1.386 . S
C1165 C1169 1.393 . S
C1166 H1158 0.950 . S
C1166 C1164 1.391 . S
C1166 C1167 1.400 . S
C1167 C1166 1.400 . S
C1167 C1168 1.398 . S
C1167 C1173 1.491 . S
C1168 H1159 0.950 . S
C1168 C1167 1.398 . S
C1168 C1169 1.391 . S
C1169 H1157 0.950 . S
C1169 C1165 1.393 . S
C1169 C1168 1.391 . S
C1170 H1160 0.950 . S
C1170 C1171 1.386 . S
C1170 C1172 1.391 . S
C1171 C1170 1.386 . S
C1171 C1175 1.393 . S
C1172 H1161 0.950 . S
C1172 C1170 1.391 . S
C1172 C1173 1.400 . S
C1173 C1167 1.491 . S
C1173 C1172 1.400 . S
C1173 C1174 1.398 . S
C1174 H1162 0.950 . S
C1174 C1173 1.398 . S
C1174 C1175 1.391 . S
C1175 H1163 0.950 . S
C1175 C1171 1.393 . S
C1175 C1174 1.391 . S
H1176 C1184 0.950 . S
H1177 C1189 0.950 . S
H1178 C1186 0.950 . S
H1179 C1188 0.950 . S
H1180 C1190 0.950 . S
H1181 C1192 0.955 . S
H1182 C1194 0.950 . S
H1183 C1195 0.950 . S
C1184 H1176 0.950 . S
C1184 C1185 1.386 . S
C1184 C1186 1.391 . S
C1185 C1184 1.386 . S
C1185 C1189 1.393 . S
C1186 H1178 0.950 . S
C1186 C1184 1.391 . S
C1186 C1187 1.400 . S
C1187 C1186 1.400 . S
C1187 C1188 1.398 . S
C1187 C1193 1.491 . S
C1188 H1179 0.950 . S
C1188 C1187 1.398 . S
C1188 C1189 1.391 . S
C1189 H1177 0.950 . S
C1189 C1185 1.393 . S
C1189 C1188 1.391 . S
C1190 H1180 0.950 . S
C1190 C1191 1.386 . S
C1190 C1192 1.391 . S
C1191 C1190 1.386 . S
C1191 C1195 1.393 . S
C1192 H1181 0.955 . S
C1192 C1190 1.391 . S
C1192 C1193 1.400 1_554 S
C1193 C1187 1.491 . S
C1193 C1192 1.400 1_556 S
C1193 C1194 1.398 1_556 S
C1194 H1182 0.950 . S
C1194 C1193 1.398 1_554 S
C1194 C1195 1.391 . S
C1195 H1183 0.950 . S
C1195 C1191 1.393 . S
C1195 C1194 1.391 . S
H1196 C1204 0.950 . S
H1197 C1209 0.950 . S
H1198 C1206 0.950 . S
H1199 C1208 0.950 . S
H1200 C1210 0.950 . S
H1201 C1212 0.950 . S
H1202 C1214 0.950 . S
H1203 C1215 0.950 . S
C1204 H1196 0.950 . S
C1204 C1205 1.386 . S
C1204 C1206 1.391 . S
C1205 C1204 1.386 . S
C1205 C1209 1.393 . S
C1206 H1198 0.950 . S
C1206 C1204 1.391 . S
C1206 C1207 1.400 . S
C1207 C1206 1.400 . S
C1207 C1208 1.398 . S
C1207 C1213 1.491 . S
C1208 H1199 0.950 . S
C1208 C1207 1.398 . S
C1208 C1209 1.391 . S
C1209 H1197 0.950 . S
C1209 C1205 1.393 . S
C1209 C1208 1.391 . S
C1210 H1200 0.950 . S
C1210 C1211 1.386 . S
C1210 C1212 1.391 . S
C1211 C1210 1.386 . S
C1211 C1215 1.393 . S
C1212 H1201 0.950 . S
C1212 C1210 1.391 . S
C1212 C1213 1.400 . S
C1213 C1207 1.491 . S
C1213 C1212 1.400 . S
C1213 C1214 1.398 . S
C1214 H1202 0.950 . S
C1214 C1213 1.398 . S
C1214 C1215 1.391 . S
C1215 H1203 0.950 . S
C1215 C1211 1.393 . S
C1215 C1214 1.391 . S
H1216 C1224 0.950 . S
H1217 C1229 0.950 . S
H1218 C1226 0.950 . S
H1219 C1228 0.950 . S
H1220 C1230 0.950 . S
H1221 C1232 0.950 . S
H1222 C1234 0.950 . S
H1223 C1235 0.950 . S
C1224 H1216 0.950 . S
C1224 C1225 1.386 . S
C1224 C1226 1.391 . S
C1225 C1224 1.386 . S
C1225 C1229 1.393 . S
C1226 H1218 0.950 . S
C1226 C1224 1.391 . S
C1226 C1227 1.400 . S
C1227 C1226 1.400 . S
C1227 C1228 1.398 . S
C1227 C1233 1.491 . S
C1228 H1219 0.950 . S
C1228 C1227 1.398 . S
C1228 C1229 1.391 . S
C1229 H1217 0.950 . S
C1229 C1225 1.393 . S
C1229 C1228 1.391 . S
C1230 H1220 0.950 . S
C1230 C1231 1.386 . S
C1230 C1232 1.391 . S
C1231 C1230 1.386 . S
C1231 C1235 1.393 . S
C1232 H1221 0.950 . S
C1232 C1230 1.391 . S
C1232 C1233 1.400 . S
C1233 C1227 1.491 . S
C1233 C1232 1.400 . S
C1233 C1234 1.398 . S
C1234 H1222 0.950 . S
C1234 C1233 1.398 . S
C1234 C1235 1.391 . S
C1235 H1223 0.950 . S
C1235 C1231 1.393 . S
C1235 C1234 1.391 . S
H1236 C1244 0.950 . S
H1237 C1249 0.950 . S
H1238 C1246 0.950 . S
H1239 C1248 0.950 . S
H1240 C1250 0.950 . S
H1241 C1252 0.950 . S
H1242 C1254 0.950 . S
H1243 C1255 0.950 . S
C1244 H1236 0.950 . S
C1244 C1245 1.386 . S
C1244 C1246 1.391 . S
C1245 C1244 1.386 . S
C1245 C1249 1.393 . S
C1246 H1238 0.950 . S
C1246 C1244 1.391 . S
C1246 C1247 1.400 . S
C1247 C1246 1.400 . S
C1247 C1248 1.398 . S
C1247 C1253 1.491 . S
C1248 H1239 0.950 . S
C1248 C1247 1.398 . S
C1248 C1249 1.391 . S
C1249 H1237 0.950 . S
C1249 C1245 1.393 . S
C1249 C1248 1.391 . S
C1250 H1240 0.950 . S
C1250 C1251 1.386 . S
C1250 C1252 1.391 . S
C1251 C1250 1.386 . S
C1251 C1255 1.393 . S
C1252 H1241 0.950 . S
C1252 C1250 1.391 . S
C1252 C1253 1.400 . S
C1253 C1247 1.491 . S
C1253 C1252 1.400 . S
C1253 C1254 1.398 . S
C1254 H1242 0.950 . S
C1254 C1253 1.398 . S
C1254 C1255 1.391 . S
C1255 H1243 0.950 . S
C1255 C1251 1.393 . S
C1255 C1254 1.391 . S
H1256 C1264 0.950 . S
H1257 C1269 0.950 . S
H1258 C1266 0.950 . S
H1259 C1268 0.950 . S
H1260 C1270 0.950 . S
H1261 C1272 0.950 . S
H1262 C1274 0.950 1_556 S
H1263 C1275 0.950 . S
C1264 H1256 0.950 . S
C1264 C1265 1.386 . S
C1264 C1266 1.391 . S
C1265 C1264 1.386 . S
C1265 C1269 1.393 . S
C1266 H1258 0.950 . S
C1266 C1264 1.391 . S
C1266 C1267 1.400 . S
C1267 C1266 1.400 . S
C1267 C1268 1.398 . S
C1267 C1273 1.491 . S
C1268 H1259 0.950 . S
C1268 C1267 1.398 . S
C1268 C1269 1.391 . S
C1269 H1257 0.950 . S
C1269 C1265 1.393 . S
C1269 C1268 1.391 . S
C1270 H1260 0.950 . S
C1270 C1271 1.386 . S
C1270 C1272 1.391 . S
C1271 C1270 1.386 . S
C1271 C1275 1.393 . S
C1272 H1261 0.950 . S
C1272 C1270 1.391 . S
C1272 C1273 1.400 1_554 S
C1273 C1267 1.491 . S
C1273 C1272 1.400 1_556 S
C1273 C1274 1.398 1_556 S
C1274 H1262 0.950 1_554 S
C1274 C1273 1.398 1_554 S
C1274 C1275 1.391 . S
C1275 H1263 0.950 . S
C1275 C1271 1.393 . S
C1275 C1274 1.391 . S
H1276 C1284 0.950 . S
H1277 C1289 0.950 . S
H1278 C1286 0.950 . S
H1279 C1288 0.950 . S
H1280 C1290 0.950 . S
H1281 C1292 0.950 . S
H1282 C1294 0.950 . S
H1283 C1295 0.950 . S
C1284 H1276 0.950 . S
C1284 C1285 1.386 . S
C1284 C1286 1.391 . S
C1285 C1284 1.386 . S
C1285 C1289 1.393 . S
C1286 H1278 0.950 . S
C1286 C1284 1.391 . S
C1286 C1287 1.400 . S
C1287 C1286 1.400 . S
C1287 C1288 1.398 . S
C1287 C1293 1.491 . S
C1288 H1279 0.950 . S
C1288 C1287 1.398 . S
C1288 C1289 1.391 . S
C1289 H1277 0.950 . S
C1289 C1285 1.393 . S
C1289 C1288 1.391 . S
C1290 H1280 0.950 . S
C1290 C1291 1.386 . S
C1290 C1292 1.391 . S
C1291 C1290 1.386 . S
C1291 C1295 1.393 . S
C1292 H1281 0.950 . S
C1292 C1290 1.391 . S
C1292 C1293 1.400 . S
C1293 C1287 1.491 . S
C1293 C1292 1.400 . S
C1293 C1294 1.398 . S
C1294 H1282 0.950 . S
C1294 C1293 1.398 . S
C1294 C1295 1.391 . S
C1295 H1283 0.950 . S
C1295 C1291 1.393 . S
C1295 C1294 1.391 . S
H1296 C1304 0.950 . S
H1297 C1309 0.950 . S
H1298 C1306 0.950 . S
H1299 C1308 0.950 . S
H1300 C1310 0.950 . S
H1301 C1312 0.950 . S
H1302 C1314 0.950 . S
H1303 C1315 0.950 . S
C1304 H1296 0.950 . S
C1304 C1305 1.386 . S
C1304 C1306 1.391 . S
C1305 C1304 1.386 . S
C1305 C1309 1.393 . S
C1306 H1298 0.950 . S
C1306 C1304 1.391 . S
C1306 C1307 1.400 . S
C1307 C1306 1.400 . S
C1307 C1308 1.398 . S
C1307 C1313 1.491 . S
C1308 H1299 0.950 . S
C1308 C1307 1.398 . S
C1308 C1309 1.391 . S
C1309 H1297 0.950 . S
C1309 C1305 1.393 . S
C1309 C1308 1.391 . S
C1310 H1300 0.950 . S
C1310 C1311 1.386 . S
C1310 C1312 1.391 . S
C1311 C1310 1.386 . S
C1311 C1315 1.393 . S
C1312 H1301 0.950 . S
C1312 C1310 1.391 . S
C1312 C1313 1.400 . S
C1313 C1307 1.491 . S
C1313 C1312 1.400 . S
C1313 C1314 1.398 . S
C1314 H1302 0.950 . S
C1314 C1313 1.398 . S
C1314 C1315 1.391 . S
C1315 H1303 0.950 . S
C1315 C1311 1.393 . S
C1315 C1314 1.391 . S
H1316 C1324 0.950 . S
H1317 C1329 0.950 . S
H1318 C1326 0.950 . S
H1319 C1328 0.950 . S
H1320 C1330 0.950 . S
H1321 C1332 0.950 . S
H1322 C1334 0.950 . S
H1323 C1335 0.950 . S
C1324 H1316 0.950 . S
C1324 C1325 1.386 . S
C1324 C1326 1.391 . S
C1325 C1324 1.386 . S
C1325 C1329 1.393 . S
C1326 H1318 0.950 . S
C1326 C1324 1.391 . S
C1326 C1327 1.400 . S
C1327 C1326 1.400 . S
C1327 C1328 1.398 . S
C1327 C1333 1.491 . S
C1328 H1319 0.950 . S
C1328 C1327 1.398 . S
C1328 C1329 1.391 . S
C1329 H1317 0.950 . S
C1329 C1325 1.393 . S
C1329 C1328 1.391 . S
C1330 H1320 0.950 . S
C1330 C1331 1.386 . S
C1330 C1332 1.391 . S
C1331 C1330 1.386 . S
C1331 C1335 1.393 . S
C1332 H1321 0.950 . S
C1332 C1330 1.391 . S
C1332 C1333 1.400 . S
C1333 C1327 1.491 . S
C1333 C1332 1.400 . S
C1333 C1334 1.398 . S
C1334 H1322 0.950 . S
C1334 C1333 1.398 . S
C1334 C1335 1.391 . S
C1335 H1323 0.950 . S
C1335 C1331 1.393 . S
C1335 C1334 1.391 . S
H1336 C1344 0.950 . S
H1337 C1349 0.950 . S
H1338 C1346 0.950 . S
H1339 C1348 0.948 1_554 S
H1340 C1350 0.950 . S
H1341 C1352 0.950 . S
H1342 C1354 0.950 . S
H1343 C1355 0.950 . S
C1344 H1336 0.950 . S
C1344 C1345 1.386 . S
C1344 C1346 1.391 . S
C1345 C1344 1.386 . S
C1345 C1349 1.393 . S
C1346 H1338 0.950 . S
C1346 C1344 1.391 . S
C1346 C1347 1.400 1_556 S
C1347 C1346 1.400 1_554 S
C1347 C1348 1.398 1_554 S
C1347 C1353 1.491 . S
C1348 H1339 0.948 1_556 S
C1348 C1347 1.398 1_556 S
C1348 C1349 1.391 . S
C1349 H1337 0.950 . S
C1349 C1345 1.393 . S
C1349 C1348 1.391 . S
C1350 H1340 0.950 . S
C1350 C1351 1.386 . S
C1350 C1352 1.391 . S
C1351 C1350 1.386 . S
C1351 C1355 1.393 . S
C1352 H1341 0.950 . S
C1352 C1350 1.391 . S
C1352 C1353 1.400 . S
C1353 C1347 1.491 . S
C1353 C1352 1.400 . S
C1353 C1354 1.398 . S
C1354 H1342 0.950 . S
C1354 C1353 1.398 . S
C1354 C1355 1.391 . S
C1355 H1343 0.950 . S
C1355 C1351 1.393 . S
C1355 C1354 1.391 . S
H1356 C1364 0.950 . S
H1357 C1369 0.950 . S
H1358 C1366 0.950 . S
H1359 C1368 0.950 . S
H1360 C1370 0.950 . S
H1361 C1372 0.950 . S
H1362 C1374 0.950 . S
H1363 C1375 0.950 . S
C1364 H1356 0.950 . S
C1364 C1365 1.386 . S
C1364 C1366 1.391 . S
C1365 C1364 1.386 . S
C1365 C1369 1.393 . S
C1366 H1358 0.950 . S
C1366 C1364 1.391 . S
C1366 C1367 1.400 . S
C1367 C1366 1.400 . S
C1367 C1368 1.398 . S
C1367 C1373 1.491 . S
C1368 H1359 0.950 . S
C1368 C1367 1.398 . S
C1368 C1369 1.391 . S
C1369 H1357 0.950 . S
C1369 C1365 1.393 . S
C1369 C1368 1.391 . S
C1370 H1360 0.950 . S
C1370 C1371 1.386 . S
C1370 C1372 1.391 . S
C1371 C1370 1.386 . S
C1371 C1375 1.393 . S
C1372 H1361 0.950 . S
C1372 C1370 1.391 . S
C1372 C1373 1.400 . S
C1373 C1367 1.491 . S
C1373 C1372 1.400 . S
C1373 C1374 1.398 . S
C1374 H1362 0.950 . S
C1374 C1373 1.398 . S
C1374 C1375 1.391 . S
C1375 H1363 0.950 . S
C1375 C1371 1.393 . S
C1375 C1374 1.391 . S
H1376 C1384 0.950 . S
H1377 C1389 0.950 . S
H1378 C1386 0.950 . S
H1379 C1388 0.951 1_554 S
H1380 C1390 0.950 . S
H1381 C1392 0.950 . S
H1382 C1394 0.950 . S
H1383 C1395 0.950 . S
C1384 H1376 0.950 . S
C1384 C1385 1.386 . S
C1384 C1386 1.391 . S
C1385 C1384 1.386 . S
C1385 C1389 1.393 . S
C1386 H1378 0.950 . S
C1386 C1384 1.391 . S
C1386 C1387 1.400 1_556 S
C1387 C1386 1.400 1_554 S
C1387 C1388 1.398 1_554 S
C1387 C1393 1.491 . S
C1388 H1379 0.951 1_556 S
C1388 C1387 1.398 1_556 S
C1388 C1389 1.391 . S
C1389 H1377 0.950 . S
C1389 C1385 1.393 . S
C1389 C1388 1.391 . S
C1390 H1380 0.950 . S
C1390 C1391 1.386 . S
C1390 C1392 1.391 . S
C1391 C1390 1.386 . S
C1391 C1395 1.393 . S
C1392 H1381 0.950 . S
C1392 C1390 1.391 . S
C1392 C1393 1.400 . S
C1393 C1387 1.491 . S
C1393 C1392 1.400 . S
C1393 C1394 1.398 . S
C1394 H1382 0.950 . S
C1394 C1393 1.398 . S
C1394 C1395 1.391 . S
C1395 H1383 0.950 . S
C1395 C1391 1.393 . S
C1395 C1394 1.391 . S
H1396 C1404 0.950 . S
H1397 C1409 0.950 . S
H1398 C1406 0.950 . S
H1399 C1408 0.950 . S
H1400 C1410 0.950 . S
H1401 C1412 0.950 . S
H1402 C1414 0.950 . S
H1403 C1415 0.950 . S
C1404 H1396 0.950 . S
C1404 C1405 1.386 . S
C1404 C1406 1.391 . S
C1405 C1404 1.386 . S
C1405 C1409 1.393 . S
C1406 H1398 0.950 . S
C1406 C1404 1.391 . S
C1406 C1407 1.400 . S
C1407 C1406 1.400 . S
C1407 C1408 1.398 . S
C1407 C1413 1.491 . S
C1408 H1399 0.950 . S
C1408 C1407 1.398 . S
C1408 C1409 1.391 . S
C1409 H1397 0.950 . S
C1409 C1405 1.393 . S
C1409 C1408 1.391 . S
C1410 H1400 0.950 . S
C1410 C1411 1.386 . S
C1410 C1412 1.391 . S
C1411 C1410 1.386 . S
C1411 C1415 1.393 . S
C1412 H1401 0.950 . S
C1412 C1410 1.391 . S
C1412 C1413 1.400 . S
C1413 C1407 1.491 . S
C1413 C1412 1.400 . S
C1413 C1414 1.398 . S
C1414 H1402 0.950 . S
C1414 C1413 1.398 . S
C1414 C1415 1.391 . S
C1415 H1403 0.950 . S
C1415 C1411 1.393 . S
C1415 C1414 1.391 . S
H1416 C1424 0.950 . S
H1417 C1429 0.950 . S
H1418 C1426 0.950 . S
H1419 C1428 0.950 . S
H1420 C1430 0.950 . S
H1421 C1432 0.950 . S
H1422 C1434 0.950 . S
H1423 C1435 0.950 . S
C1424 H1416 0.950 . S
C1424 C1425 1.386 . S
C1424 C1426 1.391 . S
C1425 C1424 1.386 . S
C1425 C1429 1.393 . S
C1426 H1418 0.950 . S
C1426 C1424 1.391 . S
C1426 C1427 1.400 . S
C1427 C1426 1.400 . S
C1427 C1428 1.398 . S
C1427 C1433 1.491 . S
C1428 H1419 0.950 . S
C1428 C1427 1.398 . S
C1428 C1429 1.391 . S
C1429 H1417 0.950 . S
C1429 C1425 1.393 . S
C1429 C1428 1.391 . S
C1430 H1420 0.950 . S
C1430 C1431 1.386 . S
C1430 C1432 1.391 . S
C1431 C1430 1.386 . S
C1431 C1435 1.393 . S
C1432 H1421 0.950 . S
C1432 C1430 1.391 . S
C1432 C1433 1.400 . S
C1433 C1427 1.491 . S
C1433 C1432 1.400 . S
C1433 C1434 1.398 . S
C1434 H1422 0.950 . S
C1434 C1433 1.398 . S
C1434 C1435 1.391 . S
C1435 H1423 0.950 . S
C1435 C1431 1.393 . S
C1435 C1434 1.391 . S
H1436 C1444 0.950 . S
H1437 C1449 0.950 . S
H1438 C1446 0.950 . S
H1439 C1448 0.950 . S
H1440 C1450 0.950 . S
H1441 C1452 0.950 . S
H1442 C1454 0.950 . S
H1443 C1455 0.950 . S
C1444 H1436 0.950 . S
C1444 C1445 1.386 . S
C1444 C1446 1.391 . S
C1445 C1444 1.386 . S
C1445 C1449 1.393 . S
C1446 H1438 0.950 . S
C1446 C1444 1.391 . S
C1446 C1447 1.400 . S
C1447 C1446 1.400 . S
C1447 C1448 1.398 . S
C1447 C1453 1.491 . S
C1448 H1439 0.950 . S
C1448 C1447 1.398 . S
C1448 C1449 1.391 . S
C1449 H1437 0.950 . S
C1449 C1445 1.393 . S
C1449 C1448 1.391 . S
C1450 H1440 0.950 . S
C1450 C1451 1.386 . S
C1450 C1452 1.391 . S
C1451 C1450 1.386 . S
C1451 C1455 1.393 . S
C1452 H1441 0.950 . S
C1452 C1450 1.391 . S
C1452 C1453 1.400 . S
C1453 C1447 1.491 . S
C1453 C1452 1.400 . S
C1453 C1454 1.398 . S
C1454 H1442 0.950 . S
C1454 C1453 1.398 . S
C1454 C1455 1.391 . S
C1455 H1443 0.950 . S
C1455 C1451 1.393 . S
C1455 C1454 1.391 . S
H1456 C1464 0.950 . S
H1457 C1469 0.950 . S
H1458 C1466 0.950 . S
H1459 C1468 0.950 . S
H1460 C1470 0.950 . S
H1461 C1472 0.950 . S
H1462 C1474 0.950 . S
H1463 C1475 0.950 . S
C1464 H1456 0.950 . S
C1464 C1465 1.386 . S
C1464 C1466 1.391 . S
C1465 C1464 1.386 . S
C1465 C1469 1.393 . S
C1466 H1458 0.950 . S
C1466 C1464 1.391 . S
C1466 C1467 1.400 1_554 S
C1467 C1466 1.400 1_556 S
C1467 C1468 1.398 1_556 S
C1467 C1473 1.491 . S
C1468 H1459 0.950 . S
C1468 C1467 1.398 1_554 S
C1468 C1469 1.391 . S
C1469 H1457 0.950 . S
C1469 C1465 1.393 . S
C1469 C1468 1.391 . S
C1470 H1460 0.950 . S
C1470 C1471 1.386 . S
C1470 C1472 1.391 . S
C1471 C1470 1.386 . S
C1471 C1475 1.393 . S
C1472 H1461 0.950 . S
C1472 C1470 1.391 . S
C1472 C1473 1.400 . S
C1473 C1467 1.491 . S
C1473 C1472 1.400 . S
C1473 C1474 1.398 . S
C1474 H1462 0.950 . S
C1474 C1473 1.398 . S
C1474 C1475 1.391 . S
C1475 H1463 0.950 . S
C1475 C1471 1.393 . S
C1475 C1474 1.391 . S
H1476 C1484 0.950 . S
H1477 C1489 0.950 . S
H1478 C1486 0.950 . S
H1479 C1488 0.950 . S
H1480 C1490 0.950 . S
H1481 C1492 0.950 . S
H1482 C1494 0.950 . S
H1483 C1495 0.950 . S
C1484 H1476 0.950 . S
C1484 C1485 1.386 . S
C1484 C1486 1.391 . S
C1485 C1484 1.386 . S
C1485 C1489 1.393 . S
C1486 H1478 0.950 . S
C1486 C1484 1.391 . S
C1486 C1487 1.400 . S
C1487 C1486 1.400 . S
C1487 C1488 1.398 . S
C1487 C1493 1.491 . S
C1488 H1479 0.950 . S
C1488 C1487 1.398 . S
C1488 C1489 1.391 . S
C1489 H1477 0.950 . S
C1489 C1485 1.393 . S
C1489 C1488 1.391 . S
C1490 H1480 0.950 . S
C1490 C1491 1.386 . S
C1490 C1492 1.391 . S
C1491 C1490 1.386 . S
C1491 C1495 1.393 . S
C1492 H1481 0.950 . S
C1492 C1490 1.391 . S
C1492 C1493 1.400 . S
C1493 C1487 1.491 . S
C1493 C1492 1.400 . S
C1493 C1494 1.398 . S
C1494 H1482 0.950 . S
C1494 C1493 1.398 . S
C1494 C1495 1.391 . S
C1495 H1483 0.950 . S
C1495 C1491 1.393 . S
C1495 C1494 1.391 . S
H1496 C1504 0.950 . S
H1497 C1509 0.950 . S
H1498 C1506 0.950 . S
H1499 C1508 0.950 . S
H1500 C1510 0.950 . S
H1501 C1512 0.950 . S
H1502 C1514 0.950 . S
H1503 C1515 0.950 . S
C1504 H1496 0.950 . S
C1504 C1505 1.386 . S
C1504 C1506 1.391 . S
C1505 C1504 1.386 . S
C1505 C1509 1.393 . S
C1506 H1498 0.950 . S
C1506 C1504 1.391 . S
C1506 C1507 1.400 . S
C1507 C1506 1.400 . S
C1507 C1508 1.398 . S
C1507 C1513 1.491 . S
C1508 H1499 0.950 . S
C1508 C1507 1.398 . S
C1508 C1509 1.391 . S
C1509 H1497 0.950 . S
C1509 C1505 1.393 . S
C1509 C1508 1.391 . S
C1510 H1500 0.950 . S
C1510 C1511 1.386 . S
C1510 C1512 1.391 . S
C1511 C1510 1.386 . S
C1511 C1515 1.393 . S
C1512 H1501 0.950 . S
C1512 C1510 1.391 . S
C1512 C1513 1.400 . S
C1513 C1507 1.491 . S
C1513 C1512 1.400 . S
C1513 C1514 1.398 . S
C1514 H1502 0.950 . S
C1514 C1513 1.398 . S
C1514 C1515 1.391 . S
C1515 H1503 0.950 . S
C1515 C1511 1.393 . S
C1515 C1514 1.391 . S
H1516 C1524 0.950 . S
H1517 C1529 0.950 . S
H1518 C1526 0.950 . S
H1519 C1528 0.950 . S
H1520 C1530 0.950 . S
H1521 C1532 0.950 . S
H1522 C1534 0.950 . S
H1523 C1535 0.950 . S
C1524 H1516 0.950 . S
C1524 C1525 1.386 . S
C1524 C1526 1.391 . S
C1525 C1524 1.386 . S
C1525 C1529 1.393 . S
C1526 H1518 0.950 . S
C1526 C1524 1.391 . S
C1526 C1527 1.400 . S
C1527 C1526 1.400 . S
C1527 C1528 1.398 . S
C1527 C1533 1.491 . S
C1528 H1519 0.950 . S
C1528 C1527 1.398 . S
C1528 C1529 1.391 . S
C1529 H1517 0.950 . S
C1529 C1525 1.393 . S
C1529 C1528 1.391 . S
C1530 H1520 0.950 . S
C1530 C1531 1.386 . S
C1530 C1532 1.391 . S
C1531 C1530 1.386 . S
C1531 C1535 1.393 . S
C1532 H1521 0.950 . S
C1532 C1530 1.391 . S
C1532 C1533 1.400 . S
C1533 C1527 1.491 . S
C1533 C1532 1.400 . S
C1533 C1534 1.398 . S
C1534 H1522 0.950 . S
C1534 C1533 1.398 . S
C1534 C1535 1.391 . S
C1535 H1523 0.950 . S
C1535 C1531 1.393 . S
C1535 C1534 1.391 . S
H1536 C1544 0.950 . S
H1537 C1549 0.950 . S
H1538 C1546 0.950 . S
H1539 C1548 0.951 1_556 S
H1540 C1550 0.950 . S
H1541 C1552 0.950 . S
H1542 C1554 0.950 . S
H1543 C1555 0.950 . S
C1544 H1536 0.950 . S
C1544 C1545 1.386 . S
C1544 C1546 1.391 . S
C1545 C1544 1.386 . S
C1545 C1549 1.393 . S
C1546 H1538 0.950 . S
C1546 C1544 1.391 . S
C1546 C1547 1.400 1_554 S
C1547 C1546 1.400 1_556 S
C1547 C1548 1.398 1_556 S
C1547 C1553 1.491 . S
C1548 H1539 0.951 1_554 S
C1548 C1547 1.398 1_554 S
C1548 C1549 1.391 . S
C1549 H1537 0.950 . S
C1549 C1545 1.393 . S
C1549 C1548 1.391 . S
C1550 H1540 0.950 . S
C1550 C1551 1.386 . S
C1550 C1552 1.391 . S
C1551 C1550 1.386 . S
C1551 C1555 1.393 . S
C1552 H1541 0.950 . S
C1552 C1550 1.391 . S
C1552 C1553 1.400 . S
C1553 C1547 1.491 . S
C1553 C1552 1.400 . S
C1553 C1554 1.398 . S
C1554 H1542 0.950 . S
C1554 C1553 1.398 . S
C1554 C1555 1.391 . S
C1555 H1543 0.950 . S
C1555 C1551 1.393 . S
C1555 C1554 1.391 . S
H1556 C1564 0.950 . S
H1557 C1569 0.950 . S
H1558 C1566 0.950 . S
H1559 C1568 0.950 . S
H1560 C1570 0.950 . S
H1561 C1572 0.950 . S
H1562 C1574 0.950 . S
H1563 C1575 0.950 . S
C1564 H1556 0.950 . S
C1564 C1565 1.386 . S
C1564 C1566 1.391 . S
C1565 C1564 1.386 . S
C1565 C1569 1.393 . S
C1566 H1558 0.950 . S
C1566 C1564 1.391 . S
C1566 C1567 1.400 . S
C1567 C1566 1.400 . S
C1567 C1568 1.398 . S
C1567 C1573 1.491 . S
C1568 H1559 0.950 . S
C1568 C1567 1.398 . S
C1568 C1569 1.391 . S
C1569 H1557 0.950 . S
C1569 C1565 1.393 . S
C1569 C1568 1.391 . S
C1570 H1560 0.950 . S
C1570 C1571 1.386 . S
C1570 C1572 1.391 . S
C1571 C1570 1.386 . S
C1571 C1575 1.393 . S
C1572 H1561 0.950 . S
C1572 C1570 1.391 . S
C1572 C1573 1.400 . S
C1573 C1567 1.491 . S
C1573 C1572 1.400 . S
C1573 C1574 1.398 . S
C1574 H1562 0.950 . S
C1574 C1573 1.398 . S
C1574 C1575 1.391 . S
C1575 H1563 0.950 . S
C1575 C1571 1.393 . S
C1575 C1574 1.391 . S
H1576 C1584 0.950 . S
H1577 C1589 0.950 . S
H1578 C1586 0.950 . S
H1579 C1588 0.950 . S
H1580 C1590 0.950 . S
H1581 C1592 0.950 . S
H1582 C1594 0.950 . S
H1583 C1595 0.950 . S
C1584 H1576 0.950 . S
C1584 C1585 1.386 . S
C1584 C1586 1.391 . S
C1585 C1584 1.386 . S
C1585 C1589 1.393 . S
C1586 H1578 0.950 . S
C1586 C1584 1.391 . S
C1586 C1587 1.400 . S
C1587 C1586 1.400 . S
C1587 C1588 1.398 . S
C1587 C1593 1.491 . S
C1588 H1579 0.950 . S
C1588 C1587 1.398 . S
C1588 C1589 1.391 . S
C1589 H1577 0.950 . S
C1589 C1585 1.393 . S
C1589 C1588 1.391 . S
C1590 H1580 0.950 . S
C1590 C1591 1.386 . S
C1590 C1592 1.391 . S
C1591 C1590 1.386 . S
C1591 C1595 1.393 . S
C1592 H1581 0.950 . S
C1592 C1590 1.391 . S
C1592 C1593 1.400 . S
C1593 C1587 1.491 . S
C1593 C1592 1.400 . S
C1593 C1594 1.398 . S
C1594 H1582 0.950 . S
C1594 C1593 1.398 . S
C1594 C1595 1.391 . S
C1595 H1583 0.950 . S
C1595 C1591 1.393 . S
C1595 C1594 1.391 . S
H1596 C1604 0.950 . S
H1597 C1609 0.950 . S
H1598 C1606 0.950 . S
H1599 C1608 0.950 . S
H1600 C1610 0.950 . S
H1601 C1612 0.950 . S
H1602 C1614 0.950 . S
H1603 C1615 0.950 . S
C1604 H1596 0.950 . S
C1604 C1605 1.386 . S
C1604 C1606 1.391 . S
C1605 C1604 1.386 . S
C1605 C1609 1.393 . S
C1606 H1598 0.950 . S
C1606 C1604 1.391 . S
C1606 C1607 1.400 . S
C1607 C1606 1.400 . S
C1607 C1608 1.398 . S
C1607 C1613 1.491 . S
C1608 H1599 0.950 . S
C1608 C1607 1.398 . S
C1608 C1609 1.391 . S
C1609 H1597 0.950 . S
C1609 C1605 1.393 . S
C1609 C1608 1.391 . S
C1610 H1600 0.950 . S
C1610 C1611 1.386 . S
C1610 C1612 1.391 . S
C1611 C1610 1.386 . S
C1611 C1615 1.393 . S
C1612 H1601 0.950 . S
C1612 C1610 1.391 . S
C1612 C1613 1.400 . S
C1613 C1607 1.491 . S
C1613 C1612 1.400 . S
C1613 C1614 1.398 . S
C1614 H1602 0.950 . S
C1614 C1613 1.398 . S
C1614 C1615 1.391 . S
C1615 H1603 0.950 . S
C1615 C1611 1.393 . S
C1615 C1614 1.391 . S
H1616 C1624 0.950 . S
H1617 C1629 0.950 . S
H1618 C1626 0.950 . S
H1619 C1628 0.950 . S
H1620 C1630 0.950 . S
H1621 C1632 0.950 . S
H1622 C1634 0.952 . S
H1623 C1635 0.950 . S
C1624 H1616 0.950 . S
C1624 C1625 1.386 . S
C1624 C1626 1.391 . S
C1625 C1624 1.386 . S
C1625 C1629 1.393 . S
C1626 H1618 0.950 . S
C1626 C1624 1.391 . S
C1626 C1627 1.400 . S
C1627 C1626 1.400 . S
C1627 C1628 1.398 . S
C1627 C1633 1.491 . S
C1628 H1619 0.950 . S
C1628 C1627 1.398 . S
C1628 C1629 1.391 . S
C1629 H1617 0.950 . S
C1629 C1625 1.393 . S
C1629 C1628 1.391 . S
C1630 H1620 0.950 . S
C1630 C1631 1.386 . S
C1630 C1632 1.391 . S
C1631 C1630 1.386 . S
C1631 C1635 1.393 . S
C1632 H1621 0.950 . S
C1632 C1630 1.391 . S
C1632 C1633 1.400 1_556 S
C1633 C1627 1.491 . S
C1633 C1632 1.400 1_554 S
C1633 C1634 1.398 1_554 S
C1634 H1622 0.952 . S
C1634 C1633 1.398 1_556 S
C1634 C1635 1.391 . S
C1635 H1623 0.950 . S
C1635 C1631 1.393 . S
C1635 C1634 1.391 . S
H1636 C1644 0.950 . S
H1637 C1649 0.950 . S
H1638 C1646 0.950 . S
H1639 C1648 0.950 . S
H1640 C1650 0.950 . S
H1641 C1652 0.950 . S
H1642 C1654 0.950 . S
H1643 C1655 0.950 . S
C1644 H1636 0.950 . S
C1644 C1645 1.386 . S
C1644 C1646 1.391 . S
C1645 C1644 1.386 . S
C1645 C1649 1.393 . S
C1646 H1638 0.950 . S
C1646 C1644 1.391 . S
C1646 C1647 1.400 . S
C1647 C1646 1.400 . S
C1647 C1648 1.398 . S
C1647 C1653 1.491 . S
C1648 H1639 0.950 . S
C1648 C1647 1.398 . S
C1648 C1649 1.391 . S
C1649 H1637 0.950 . S
C1649 C1645 1.393 . S
C1649 C1648 1.391 . S
C1650 H1640 0.950 . S
C1650 C1651 1.386 . S
C1650 C1652 1.391 . S
C1651 C1650 1.386 . S
C1651 C1655 1.393 . S
C1652 H1641 0.950 . S
C1652 C1650 1.391 . S
C1652 C1653 1.400 . S
C1653 C1647 1.491 . S
C1653 C1652 1.400 . S
C1653 C1654 1.398 . S
C1654 H1642 0.950 . S
C1654 C1653 1.398 . S
C1654 C1655 1.391 . S
C1655 H1643 0.950 . S
C1655 C1651 1.393 . S
C1655 C1654 1.391 . S
H1656 C1664 0.950 . S
H1657 C1669 0.950 . S
H1658 C1666 0.950 . S
H1659 C1668 0.950 . S
H1660 C1670 0.950 . S
H1661 C1672 0.950 . S
H1662 C1674 0.950 . S
H1663 C1675 0.950 . S
C1664 H1656 0.950 . S
C1664 C1665 1.386 . S
C1664 C1666 1.391 . S
C1665 C1664 1.386 . S
C1665 C1669 1.393 . S
C1666 H1658 0.950 . S
C1666 C1664 1.391 . S
C1666 C1667 1.400 . S
C1667 C1666 1.400 . S
C1667 C1668 1.398 . S
C1667 C1673 1.491 . S
C1668 H1659 0.950 . S
C1668 C1667 1.398 . S
C1668 C1669 1.391 . S
C1669 H1657 0.950 . S
C1669 C1665 1.393 . S
C1669 C1668 1.391 . S
C1670 H1660 0.950 . S
C1670 C1671 1.386 . S
C1670 C1672 1.391 . S
C1671 C1670 1.386 . S
C1671 C1675 1.393 . S
C1672 H1661 0.950 . S
C1672 C1670 1.391 . S
C1672 C1673 1.400 . S
C1673 C1667 1.491 . S
C1673 C1672 1.400 . S
C1673 C1674 1.398 . S
C1674 H1662 0.950 . S
C1674 C1673 1.398 . S
C1674 C1675 1.391 . S
C1675 H1663 0.950 . S
C1675 C1671 1.393 . S
C1675 C1674 1.391 . S
H1676 C1684 0.950 . S
H1677 C1689 0.950 . S
H1678 C1686 0.950 . S
H1679 C1688 0.950 . S
H1680 C1690 0.950 . S
H1681 C1692 0.950 . S
H1682 C1694 0.950 . S
H1683 C1695 0.950 . S
C1684 H1676 0.950 . S
C1684 C1685 1.386 . S
C1684 C1686 1.391 . S
C1685 C1684 1.386 . S
C1685 C1689 1.393 . S
C1686 H1678 0.950 . S
C1686 C1684 1.391 . S
C1686 C1687 1.400 . S
C1687 C1686 1.400 . S
C1687 C1688 1.398 . S
C1687 C1693 1.491 . S
C1688 H1679 0.950 . S
C1688 C1687 1.398 . S
C1688 C1689 1.391 . S
C1689 H1677 0.950 . S
C1689 C1685 1.393 . S
C1689 C1688 1.391 . S
C1690 H1680 0.950 . S
C1690 C1691 1.386 . S
C1690 C1692 1.391 . S
C1691 C1690 1.386 . S
C1691 C1695 1.393 . S
C1692 H1681 0.950 . S
C1692 C1690 1.391 . S
C1692 C1693 1.400 . S
C1693 C1687 1.491 . S
C1693 C1692 1.400 . S
C1693 C1694 1.398 . S
C1694 H1682 0.950 . S
C1694 C1693 1.398 . S
C1694 C1695 1.391 . S
C1695 H1683 0.950 . S
C1695 C1691 1.393 . S
C1695 C1694 1.391 . S
H1696 C1704 0.950 . S
H1697 C1709 0.950 . S
H1698 C1706 0.950 . S
H1699 C1708 0.950 . S
H1700 C1710 0.950 . S
H1701 C1712 0.950 . S
H1702 C1714 0.950 . S
H1703 C1715 0.950 1_556 S
C1704 H1696 0.950 . S
C1704 C1705 1.386 . S
C1704 C1706 1.391 . S
C1705 C1704 1.386 . S
C1705 C1709 1.393 . S
C1706 H1698 0.950 . S
C1706 C1704 1.391 . S
C1706 C1707 1.400 . S
C1707 C1706 1.400 . S
C1707 C1708 1.398 . S
C1707 C1713 1.491 . S
C1708 H1699 0.950 . S
C1708 C1707 1.398 . S
C1708 C1709 1.391 . S
C1709 H1697 0.950 . S
C1709 C1705 1.393 . S
C1709 C1708 1.391 . S
C1710 H1700 0.950 . S
C1710 C1711 1.386 . S
C1710 C1712 1.391 . S
C1711 C1710 1.386 . S
C1711 C1715 1.393 . S
C1712 H1701 0.950 . S
C1712 C1710 1.391 . S
C1712 C1713 1.400 . S
C1713 C1707 1.491 . S
C1713 C1712 1.400 . S
C1713 C1714 1.398 . S
C1714 H1702 0.950 . S
C1714 C1713 1.398 . S
C1714 C1715 1.391 . S
C1715 H1703 0.950 1_554 S
C1715 C1711 1.393 . S
C1715 C1714 1.391 . S
H1716 C1724 0.950 . S
H1717 C1729 0.950 . S
H1718 C1726 0.950 . S
H1719 C1728 0.950 . S
H1720 C1730 0.950 . S
H1721 C1732 0.950 . S
H1722 C1734 0.950 . S
H1723 C1735 0.950 . S
C1724 H1716 0.950 . S
C1724 C1725 1.386 . S
C1724 C1726 1.391 . S
C1725 C1724 1.386 . S
C1725 C1729 1.393 . S
C1726 H1718 0.950 . S
C1726 C1724 1.391 . S
C1726 C1727 1.400 . S
C1727 C1726 1.400 . S
C1727 C1728 1.398 . S
C1727 C1733 1.491 . S
C1728 H1719 0.950 . S
C1728 C1727 1.398 . S
C1728 C1729 1.391 . S
C1729 H1717 0.950 . S
C1729 C1725 1.393 . S
C1729 C1728 1.391 . S
C1730 H1720 0.950 . S
C1730 C1731 1.386 . S
C1730 C1732 1.391 . S
C1731 C1730 1.386 . S
C1731 C1735 1.393 . S
C1732 H1721 0.950 . S
C1732 C1730 1.391 . S
C1732 C1733 1.400 . S
C1733 C1727 1.491 . S
C1733 C1732 1.400 . S
C1733 C1734 1.398 . S
C1734 H1722 0.950 . S
C1734 C1733 1.398 . S
C1734 C1735 1.391 . S
C1735 H1723 0.950 . S
C1735 C1731 1.393 . S
C1735 C1734 1.391 . S
H1736 C1744 0.950 . S
H1737 C1749 0.950 . S
H1738 C1746 0.950 . S
H1739 C1748 0.950 . S
H1740 C1750 0.950 . S
H1741 C1752 0.950 . S
H1742 C1754 0.950 . S
H1743 C1755 0.950 . S
C1744 H1736 0.950 . S
C1744 C1745 1.386 . S
C1744 C1746 1.391 . S
C1745 C1744 1.386 . S
C1745 C1749 1.393 . S
C1746 H1738 0.950 . S
C1746 C1744 1.391 . S
C1746 C1747 1.400 . S
C1747 C1746 1.400 . S
C1747 C1748 1.398 . S
C1747 C1753 1.491 . S
C1748 H1739 0.950 . S
C1748 C1747 1.398 . S
C1748 C1749 1.391 . S
C1749 H1737 0.950 . S
C1749 C1745 1.393 . S
C1749 C1748 1.391 . S
C1750 H1740 0.950 . S
C1750 C1751 1.386 . S
C1750 C1752 1.391 . S
C1751 C1750 1.386 . S
C1751 C1755 1.393 . S
C1752 H1741 0.950 . S
C1752 C1750 1.391 . S
C1752 C1753 1.400 . S
C1753 C1747 1.491 . S
C1753 C1752 1.400 . S
C1753 C1754 1.398 . S
C1754 H1742 0.950 . S
C1754 C1753 1.398 . S
C1754 C1755 1.391 . S
C1755 H1743 0.950 . S
C1755 C1751 1.393 . S
C1755 C1754 1.391 . S
H1756 C1764 0.950 . S
H1757 C1769 0.950 . S
H1758 C1766 0.950 . S
H1759 C1768 0.950 . S
H1760 C1770 0.950 . S
H1761 C1772 0.950 . S
H1762 C1774 0.950 . S
H1763 C1775 0.950 . S
C1764 H1756 0.950 . S
C1764 C1765 1.386 . S
C1764 C1766 1.391 . S
C1765 C1764 1.386 . S
C1765 C1769 1.393 . S
C1766 H1758 0.950 . S
C1766 C1764 1.391 . S
C1766 C1767 1.400 . S
C1767 C1766 1.400 . S
C1767 C1768 1.398 . S
C1767 C1773 1.491 . S
C1768 H1759 0.950 . S
C1768 C1767 1.398 . S
C1768 C1769 1.391 . S
C1769 H1757 0.950 . S
C1769 C1765 1.393 . S
C1769 C1768 1.391 . S
C1770 H1760 0.950 . S
C1770 C1771 1.386 . S
C1770 C1772 1.391 . S
C1771 C1770 1.386 . S
C1771 C1775 1.393 . S
C1772 H1761 0.950 . S
C1772 C1770 1.391 . S
C1772 C1773 1.400 . S
C1773 C1767 1.491 . S
C1773 C1772 1.400 . S
C1773 C1774 1.398 . S
C1774 H1762 0.950 . S
C1774 C1773 1.398 . S
C1774 C1775 1.391 . S
C1775 H1763 0.950 . S
C1775 C1771 1.393 . S
C1775 C1774 1.391 . S
H1776 C1784 0.950 . S
H1777 C1789 0.950 . S
H1778 C1786 0.950 . S
H1779 C1788 0.950 . S
H1780 C1790 0.950 . S
H1781 C1792 0.950 . S
H1782 C1794 0.950 . S
H1783 C1795 0.950 . S
C1784 H1776 0.950 . S
C1784 C1785 1.386 . S
C1784 C1786 1.391 . S
C1785 C1784 1.386 . S
C1785 C1789 1.393 . S
C1786 H1778 0.950 . S
C1786 C1784 1.391 . S
C1786 C1787 1.400 . S
C1787 C1786 1.400 . S
C1787 C1788 1.398 . S
C1787 C1793 1.491 . S
C1788 H1779 0.950 . S
C1788 C1787 1.398 . S
C1788 C1789 1.391 . S
C1789 H1777 0.950 . S
C1789 C1785 1.393 . S
C1789 C1788 1.391 . S
C1790 H1780 0.950 . S
C1790 C1791 1.386 . S
C1790 C1792 1.391 . S
C1791 C1790 1.386 . S
C1791 C1795 1.393 . S
C1792 H1781 0.950 . S
C1792 C1790 1.391 . S
C1792 C1793 1.400 . S
C1793 C1787 1.491 . S
C1793 C1792 1.400 . S
C1793 C1794 1.398 . S
C1794 H1782 0.950 . S
C1794 C1793 1.398 . S
C1794 C1795 1.391 . S
C1795 H1783 0.950 . S
C1795 C1791 1.393 . S
C1795 C1794 1.391 . S
H1796 C1804 0.950 . S
H1797 C1809 0.950 . S
H1798 C1806 0.950 . S
H1799 C1808 0.950 . S
H1800 C1810 0.950 . S
H1801 C1812 0.950 . S
H1802 C1814 0.950 . S
H1803 C1815 0.950 . S
C1804 H1796 0.950 . S
C1804 C1805 1.386 . S
C1804 C1806 1.391 . S
C1805 C1804 1.386 . S
C1805 C1809 1.393 . S
C1806 H1798 0.950 . S
C1806 C1804 1.391 . S
C1806 C1807 1.400 . S
C1807 C1806 1.400 . S
C1807 C1808 1.398 . S
C1807 C1813 1.491 . S
C1808 H1799 0.950 . S
C1808 C1807 1.398 . S
C1808 C1809 1.391 . S
C1809 H1797 0.950 . S
C1809 C1805 1.393 . S
C1809 C1808 1.391 . S
C1810 H1800 0.950 . S
C1810 C1811 1.386 . S
C1810 C1812 1.391 . S
C1811 C1810 1.386 . S
C1811 C1815 1.393 . S
C1812 H1801 0.950 . S
C1812 C1810 1.391 . S
C1812 C1813 1.400 . S
C1813 C1807 1.491 . S
C1813 C1812 1.400 . S
C1813 C1814 1.398 . S
C1814 H1802 0.950 . S
C1814 C1813 1.398 . S
C1814 C1815 1.391 . S
C1815 H1803 0.950 . S
C1815 C1811 1.393 . S
C1815 C1814 1.391 . S
H1816 C1824 0.950 . S
H1817 C1829 0.950 . S
H1818 C1826 0.950 . S
H1819 C1828 0.950 . S
H1820 C1830 0.950 . S
H1821 C1832 0.950 . S
H1822 C1834 0.950 . S
H1823 C1835 0.950 . S
C1824 H1816 0.950 . S
C1824 C1825 1.386 . S
C1824 C1826 1.391 . S
C1825 C1824 1.386 . S
C1825 C1829 1.393 . S
C1826 H1818 0.950 . S
C1826 C1824 1.391 . S
C1826 C1827 1.400 . S
C1827 C1826 1.400 . S
C1827 C1828 1.398 . S
C1827 C1833 1.491 . S
C1828 H1819 0.950 . S
C1828 C1827 1.398 . S
C1828 C1829 1.391 . S
C1829 H1817 0.950 . S
C1829 C1825 1.393 . S
C1829 C1828 1.391 . S
C1830 H1820 0.950 . S
C1830 C1831 1.386 . S
C1830 C1832 1.391 . S
C1831 C1830 1.386 . S
C1831 C1835 1.393 . S
C1832 H1821 0.950 . S
C1832 C1830 1.391 . S
C1832 C1833 1.400 . S
C1833 C1827 1.491 . S
C1833 C1832 1.400 . S
C1833 C1834 1.398 . S
C1834 H1822 0.950 . S
C1834 C1833 1.398 . S
C1834 C1835 1.391 . S
C1835 H1823 0.950 . S
C1835 C1831 1.393 . S
C1835 C1834 1.391 . S
H1836 C1844 0.950 . S
H1837 C1849 0.950 . S
H1838 C1846 0.950 . S
H1839 C1848 0.950 . S
H1840 C1850 0.950 . S
H1841 C1852 0.950 . S
H1842 C1854 0.950 . S
H1843 C1855 0.950 . S
C1844 H1836 0.950 . S
C1844 C1845 1.386 . S
C1844 C1846 1.391 . S
C1845 C1844 1.386 . S
C1845 C1849 1.393 . S
C1846 H1838 0.950 . S
C1846 C1844 1.391 . S
C1846 C1847 1.400 . S
C1847 C1846 1.400 . S
C1847 C1848 1.398 . S
C1847 C1853 1.491 . S
C1848 H1839 0.950 . S
C1848 C1847 1.398 . S
C1848 C1849 1.391 . S
C1849 H1837 0.950 . S
C1849 C1845 1.393 . S
C1849 C1848 1.391 . S
C1850 H1840 0.950 . S
C1850 C1851 1.386 . S
C1850 C1852 1.391 . S
C1851 C1850 1.386 . S
C1851 C1855 1.393 . S
C1852 H1841 0.950 . S
C1852 C1850 1.391 . S
C1852 C1853 1.400 . S
C1853 C1847 1.491 . S
C1853 C1852 1.400 . S
C1853 C1854 1.398 . S
C1854 H1842 0.950 . S
C1854 C1853 1.398 . S
C1854 C1855 1.391 . S
C1855 H1843 0.950 . S
C1855 C1851 1.393 . S
C1855 C1854 1.391 . S
H1856 C1864 0.950 . S
H1857 C1869 0.950 . S
H1858 C1866 0.950 . S
H1859 C1868 0.950 . S
H1860 C1870 0.950 1_554 S
H1861 C1872 0.950 . S
H1862 C1874 0.950 . S
H1863 C1875 0.950 . S
C1864 H1856 0.950 . S
C1864 C1865 1.386 . S
C1864 C1866 1.391 . S
C1865 C1864 1.386 . S
C1865 C1869 1.393 . S
C1866 H1858 0.950 . S
C1866 C1864 1.391 . S
C1866 C1867 1.400 . S
C1867 C1866 1.400 . S
C1867 C1868 1.398 . S
C1867 C1873 1.491 . S
C1868 H1859 0.950 . S
C1868 C1867 1.398 . S
C1868 C1869 1.391 . S
C1869 H1857 0.950 . S
C1869 C1865 1.393 . S
C1869 C1868 1.391 . S
C1870 H1860 0.950 1_556 S
C1870 C1871 1.386 . S
C1870 C1872 1.391 . S
C1871 C1870 1.386 . S
C1871 C1875 1.393 . S
C1872 H1861 0.950 . S
C1872 C1870 1.391 . S
C1872 C1873 1.400 . S
C1873 C1867 1.491 . S
C1873 C1872 1.400 . S
C1873 C1874 1.398 . S
C1874 H1862 0.950 . S
C1874 C1873 1.398 . S
C1874 C1875 1.391 . S
C1875 H1863 0.950 . S
C1875 C1871 1.393 . S
C1875 C1874 1.391 . S
H1876 C1884 0.950 . S
H1877 C1889 0.950 . S
H1878 C1886 0.950 . S
H1879 C1888 0.950 . S
H1880 C1890 0.950 . S
H1881 C1892 0.950 . S
H1882 C1894 0.950 . S
H1883 C1895 0.950 . S
C1884 H1876 0.950 . S
C1884 C1885 1.386 . S
C1884 C1886 1.391 . S
C1885 C1884 1.386 . S
C1885 C1889 1.393 . S
C1886 H1878 0.950 . S
C1886 C1884 1.391 . S
C1886 C1887 1.400 . S
C1887 C1886 1.400 . S
C1887 C1888 1.398 . S
C1887 C1893 1.491 . S
C1888 H1879 0.950 . S
C1888 C1887 1.398 . S
C1888 C1889 1.391 . S
C1889 H1877 0.950 . S
C1889 C1885 1.393 . S
C1889 C1888 1.391 . S
C1890 H1880 0.950 . S
C1890 C1891 1.386 . S
C1890 C1892 1.391 . S
C1891 C1890 1.386 . S
C1891 C1895 1.393 . S
C1892 H1881 0.950 . S
C1892 C1890 1.391 . S
C1892 C1893 1.400 . S
C1893 C1887 1.491 . S
C1893 C1892 1.400 . S
C1893 C1894 1.398 . S
C1894 H1882 0.950 . S
C1894 C1893 1.398 . S
C1894 C1895 1.391 . S
C1895 H1883 0.950 . S
C1895 C1891 1.393 . S
C1895 C1894 1.391 . S
H1896 C1904 0.950 . S
H1897 C1909 0.950 . S
H1898 C1906 0.950 . S
H1899 C1908 0.950 . S
H1900 C1910 0.950 . S
H1901 C1912 0.950 . S
H1902 C1914 0.950 . S
H1903 C1915 0.950 . S
C1904 H1896 0.950 . S
C1904 C1905 1.386 . S
C1904 C1906 1.391 . S
C1905 C1904 1.386 . S
C1905 C1909 1.393 . S
C1906 H1898 0.950 . S
C1906 C1904 1.391 . S
C1906 C1907 1.400 . S
C1907 C1906 1.400 . S
C1907 C1908 1.398 . S
C1907 C1913 1.491 . S
C1908 H1899 0.950 . S
C1908 C1907 1.398 . S
C1908 C1909 1.391 . S
C1909 H1897 0.950 . S
C1909 C1905 1.393 . S
C1909 C1908 1.391 . S
C1910 H1900 0.950 . S
C1910 C1911 1.386 . S
C1910 C1912 1.391 . S
C1911 C1910 1.386 . S
C1911 C1915 1.393 . S
C1912 H1901 0.950 . S
C1912 C1910 1.391 . S
C1912 C1913 1.400 . S
C1913 C1907 1.491 . S
C1913 C1912 1.400 . S
C1913 C1914 1.398 . S
C1914 H1902 0.950 . S
C1914 C1913 1.398 . S
C1914 C1915 1.391 . S
C1915 H1903 0.950 . S
C1915 C1911 1.393 . S
C1915 C1914 1.391 . S
H1916 C1924 0.950 . S
H1917 C1929 0.950 . S
H1918 C1926 0.950 . S
H1919 C1928 0.950 . S
H1920 C1930 0.950 . S
H1921 C1932 0.950 . S
H1922 C1934 0.950 . S
H1923 C1935 0.950 . S
C1924 H1916 0.950 . S
C1924 C1925 1.386 . S
C1924 C1926 1.391 . S
C1925 C1924 1.386 . S
C1925 C1929 1.393 . S
C1926 H1918 0.950 . S
C1926 C1924 1.391 . S
C1926 C1927 1.400 . S
C1927 C1926 1.400 . S
C1927 C1928 1.398 . S
C1927 C1933 1.491 . S
C1928 H1919 0.950 . S
C1928 C1927 1.398 . S
C1928 C1929 1.391 . S
C1929 H1917 0.950 . S
C1929 C1925 1.393 . S
C1929 C1928 1.391 . S
C1930 H1920 0.950 . S
C1930 C1931 1.386 . S
C1930 C1932 1.391 . S
C1931 C1930 1.386 . S
C1931 C1935 1.393 . S
C1932 H1921 0.950 . S
C1932 C1930 1.391 . S
C1932 C1933 1.400 . S
C1933 C1927 1.491 . S
C1933 C1932 1.400 . S
C1933 C1934 1.398 . S
C1934 H1922 0.950 . S
C1934 C1933 1.398 . S
C1934 C1935 1.391 . S
C1935 H1923 0.950 . S
C1935 C1931 1.393 . S
C1935 C1934 1.391 . S
H1936 C1944 0.950 . S
H1937 C1949 0.950 . S
H1938 C1946 0.950 . S
H1939 C1948 0.950 . S
H1940 C1950 0.950 . S
H1941 C1952 0.950 . S
H1942 C1954 0.950 . S
H1943 C1955 0.950 . S
C1944 H1936 0.950 . S
C1944 C1945 1.386 . S
C1944 C1946 1.391 . S
C1945 C1944 1.386 . S
C1945 C1949 1.393 . S
C1946 H1938 0.950 . S
C1946 C1944 1.391 . S
C1946 C1947 1.400 . S
C1947 C1946 1.400 . S
C1947 C1948 1.398 . S
C1947 C1953 1.491 . S
C1948 H1939 0.950 . S
C1948 C1947 1.398 . S
C1948 C1949 1.391 . S
C1949 H1937 0.950 . S
C1949 C1945 1.393 . S
C1949 C1948 1.391 . S
C1950 H1940 0.950 . S
C1950 C1951 1.386 . S
C1950 C1952 1.391 . S
C1951 C1950 1.386 . S
C1951 C1955 1.393 . S
C1952 H1941 0.950 . S
C1952 C1950 1.391 . S
C1952 C1953 1.400 . S
C1953 C1947 1.491 . S
C1953 C1952 1.400 . S
C1953 C1954 1.398 . S
C1954 H1942 0.950 . S
C1954 C1953 1.398 . S
C1954 C1955 1.391 . S
C1955 H1943 0.950 . S
C1955 C1951 1.393 . S
C1955 C1954 1.391 . S
H1956 C1964 0.950 . S
H1957 C1969 0.950 . S
H1958 C1966 0.950 . S
H1959 C1968 0.950 . S
H1960 C1970 0.950 . S
H1961 C1972 0.950 . S
H1962 C1974 0.950 . S
H1963 C1975 0.950 . S
C1964 H1956 0.950 . S
C1964 C1965 1.386 . S
C1964 C1966 1.391 . S
C1965 C1964 1.386 . S
C1965 C1969 1.393 . S
C1966 H1958 0.950 . S
C1966 C1964 1.391 . S
C1966 C1967 1.400 . S
C1967 C1966 1.400 . S
C1967 C1968 1.398 . S
C1967 C1973 1.491 . S
C1968 H1959 0.950 . S
C1968 C1967 1.398 . S
C1968 C1969 1.391 . S
C1969 H1957 0.950 . S
C1969 C1965 1.393 . S
C1969 C1968 1.391 . S
C1970 H1960 0.950 . S
C1970 C1971 1.386 . S
C1970 C1972 1.391 . S
C1971 C1970 1.386 . S
C1971 C1975 1.393 . S
C1972 H1961 0.950 . S
C1972 C1970 1.391 . S
C1972 C1973 1.400 . S
C1973 C1967 1.491 . S
C1973 C1972 1.400 . S
C1973 C1974 1.398 . S
C1974 H1962 0.950 . S
C1974 C1973 1.398 . S
C1974 C1975 1.391 . S
C1975 H1963 0.950 . S
C1975 C1971 1.393 . S
C1975 C1974 1.391 . S
H1976 C1984 0.950 . S
H1977 C1989 0.950 . S
H1978 C1986 0.950 . S
H1979 C1988 0.950 . S
H1980 C1990 0.950 . S
H1981 C1992 0.950 . S
H1982 C1994 0.950 . S
H1983 C1995 0.950 . S
C1984 H1976 0.950 . S
C1984 C1985 1.386 . S
C1984 C1986 1.391 . S
C1985 C1984 1.386 . S
C1985 C1989 1.393 . S
C1986 H1978 0.950 . S
C1986 C1984 1.391 . S
C1986 C1987 1.400 . S
C1987 C1986 1.400 . S
C1987 C1988 1.398 . S
C1987 C1993 1.491 . S
C1988 H1979 0.950 . S
C1988 C1987 1.398 . S
C1988 C1989 1.391 . S
C1989 H1977 0.950 . S
C1989 C1985 1.393 . S
C1989 C1988 1.391 . S
C1990 H1980 0.950 . S
C1990 C1991 1.386 . S
C1990 C1992 1.391 . S
C1991 C1990 1.386 . S
C1991 C1995 1.393 . S
C1992 H1981 0.950 . S
C1992 C1990 1.391 . S
C1992 C1993 1.400 . S
C1993 C1987 1.491 . S
C1993 C1992 1.400 . S
C1993 C1994 1.398 . S
C1994 H1982 0.950 . S
C1994 C1993 1.398 . S
C1994 C1995 1.391 . S
C1995 H1983 0.950 . S
C1995 C1991 1.393 . S
C1995 C1994 1.391 . S
H1996 C2004 0.950 . S
H1997 C2009 0.950 . S
H1998 C2006 0.950 . S
H1999 C2008 0.950 . S
H2000 C2010 0.950 . S
H2001 C2012 0.950 . S
H2002 C2014 0.950 . S
H2003 C2015 0.950 . S
C2004 H1996 0.950 . S
C2004 C2005 1.386 . S
C2004 C2006 1.391 . S
C2005 C2004 1.386 . S
C2005 C2009 1.393 . S
C2006 H1998 0.950 . S
C2006 C2004 1.391 . S
C2006 C2007 1.400 . S
C2007 C2006 1.400 . S
C2007 C2008 1.398 . S
C2007 C2013 1.491 . S
C2008 H1999 0.950 . S
C2008 C2007 1.398 . S
C2008 C2009 1.391 . S
C2009 H1997 0.950 . S
C2009 C2005 1.393 . S
C2009 C2008 1.391 . S
C2010 H2000 0.950 . S
C2010 C2011 1.386 . S
C2010 C2012 1.391 . S
C2011 C2010 1.386 . S
C2011 C2015 1.393 . S
C2012 H2001 0.950 . S
C2012 C2010 1.391 . S
C2012 C2013 1.400 . S
C2013 C2007 1.491 . S
C2013 C2012 1.400 . S
C2013 C2014 1.398 . S
C2014 H2002 0.950 . S
C2014 C2013 1.398 . S
C2014 C2015 1.391 . S
C2015 H2003 0.950 . S
C2015 C2011 1.393 . S
C2015 C2014 1.391 . S
H2016 C2024 0.950 . S
H2017 C2029 0.950 . S
H2018 C2026 0.950 . S
H2019 C2028 0.950 . S
H2020 C2030 0.950 . S
H2021 C2032 0.950 . S
H2022 C2034 0.950 . S
H2023 C2035 0.950 . S
C2024 H2016 0.950 . S
C2024 C2025 1.386 1_554 S
C2024 C2026 1.391 . S
C2025 C2024 1.386 1_556 S
C2025 C2029 1.393 . S
C2026 H2018 0.950 . S
C2026 C2024 1.391 . S
C2026 C2027 1.400 1_554 S
C2027 C2026 1.400 1_556 S
C2027 C2028 1.398 . S
C2027 C2033 1.491 1_556 S
C2028 H2019 0.950 . S
C2028 C2027 1.398 . S
C2028 C2029 1.391 . S
C2029 H2017 0.950 . S
C2029 C2025 1.393 . S
C2029 C2028 1.391 . S
C2030 H2020 0.950 . S
C2030 C2031 1.386 1_556 S
C2030 C2032 1.391 . S
C2031 C2030 1.386 1_554 S
C2031 C2035 1.393 . S
C2032 H2021 0.950 . S
C2032 C2030 1.391 . S
C2032 C2033 1.400 1_556 S
C2033 C2027 1.491 1_554 S
C2033 C2032 1.400 1_554 S
C2033 C2034 1.398 . S
C2034 H2022 0.950 . S
C2034 C2033 1.398 . S
C2034 C2035 1.391 . S
C2035 H2023 0.950 . S
C2035 C2031 1.393 . S
C2035 C2034 1.391 . S
H2036 C2044 0.950 . S
H2037 C2049 0.950 . S
H2038 C2046 0.950 . S
H2039 C2048 0.950 . S
H2040 C2050 0.950 . S
H2041 C2052 0.950 . S
H2042 C2054 0.950 . S
H2043 C2055 0.950 . S
C2044 H2036 0.950 . S
C2044 C2045 1.386 . S
C2044 C2046 1.391 . S
C2045 C2044 1.386 . S
C2045 C2049 1.393 . S
C2046 H2038 0.950 . S
C2046 C2044 1.391 . S
C2046 C2047 1.400 . S
C2047 C2046 1.400 . S
C2047 C2048 1.398 . S
C2047 C2053 1.491 . S
C2048 H2039 0.950 . S
C2048 C2047 1.398 . S
C2048 C2049 1.391 . S
C2049 H2037 0.950 . S
C2049 C2045 1.393 . S
C2049 C2048 1.391 . S
C2050 H2040 0.950 . S
C2050 C2051 1.386 . S
C2050 C2052 1.391 . S
C2051 C2050 1.386 . S
C2051 C2055 1.393 . S
C2052 H2041 0.950 . S
C2052 C2050 1.391 . S
C2052 C2053 1.400 . S
C2053 C2047 1.491 . S
C2053 C2052 1.400 . S
C2053 C2054 1.398 . S
C2054 H2042 0.950 . S
C2054 C2053 1.398 . S
C2054 C2055 1.391 . S
C2055 H2043 0.950 . S
C2055 C2051 1.393 . S
C2055 C2054 1.391 . S
H2056 C2064 0.950 . S
H2057 C2069 0.950 . S
H2058 C2066 0.950 . S
H2059 C2068 0.950 . S
H2060 C2070 0.950 . S
H2061 C2072 0.950 . S
H2062 C2074 0.950 . S
H2063 C2075 0.950 . S
C2064 H2056 0.950 . S
C2064 C2065 1.386 . S
C2064 C2066 1.391 . S
C2065 C2064 1.386 . S
C2065 C2069 1.393 . S
C2066 H2058 0.950 . S
C2066 C2064 1.391 . S
C2066 C2067 1.400 . S
C2067 C2066 1.400 . S
C2067 C2068 1.398 . S
C2067 C2073 1.491 . S
C2068 H2059 0.950 . S
C2068 C2067 1.398 . S
C2068 C2069 1.391 . S
C2069 H2057 0.950 . S
C2069 C2065 1.393 . S
C2069 C2068 1.391 . S
C2070 H2060 0.950 . S
C2070 C2071 1.386 . S
C2070 C2072 1.391 . S
C2071 C2070 1.386 . S
C2071 C2075 1.393 . S
C2072 H2061 0.950 . S
C2072 C2070 1.391 . S
C2072 C2073 1.400 . S
C2073 C2067 1.491 . S
C2073 C2072 1.400 . S
C2073 C2074 1.398 . S
C2074 H2062 0.950 . S
C2074 C2073 1.398 . S
C2074 C2075 1.391 . S
C2075 H2063 0.950 . S
C2075 C2071 1.393 . S
C2075 C2074 1.391 . S
H2076 C2084 0.950 . S
H2077 C2089 0.950 . S
H2078 C2086 0.950 . S
H2079 C2088 0.950 . S
H2080 C2090 0.950 . S
H2081 C2092 0.950 . S
H2082 C2094 0.950 . S
H2083 C2095 0.950 . S
C2084 H2076 0.950 . S
C2084 C2085 1.386 . S
C2084 C2086 1.391 . S
C2085 C2084 1.386 . S
C2085 C2089 1.393 . S
C2086 H2078 0.950 . S
C2086 C2084 1.391 . S
C2086 C2087 1.400 . S
C2087 C2086 1.400 . S
C2087 C2088 1.398 . S
C2087 C2093 1.491 . S
C2088 H2079 0.950 . S
C2088 C2087 1.398 . S
C2088 C2089 1.391 . S
C2089 H2077 0.950 . S
C2089 C2085 1.393 . S
C2089 C2088 1.391 . S
C2090 H2080 0.950 . S
C2090 C2091 1.386 . S
C2090 C2092 1.391 . S
C2091 C2090 1.386 . S
C2091 C2095 1.393 . S
C2092 H2081 0.950 . S
C2092 C2090 1.391 . S
C2092 C2093 1.400 . S
C2093 C2087 1.491 . S
C2093 C2092 1.400 . S
C2093 C2094 1.398 . S
C2094 H2082 0.950 . S
C2094 C2093 1.398 . S
C2094 C2095 1.391 . S
C2095 H2083 0.950 . S
C2095 C2091 1.393 . S
C2095 C2094 1.391 . S
H2096 C2104 0.950 . S
H2097 C2109 0.950 . S
H2098 C2106 0.950 . S
H2099 C2108 0.950 . S
H2100 C2110 0.950 . S
H2101 C2112 0.950 . S
H2102 C2114 0.950 . S
H2103 C2115 0.950 . S
C2104 H2096 0.950 . S
C2104 C2105 1.386 . S
C2104 C2106 1.391 . S
C2105 C2104 1.386 . S
C2105 C2109 1.393 1_556 S
C2106 H2098 0.950 . S
C2106 C2104 1.391 . S
C2106 C2107 1.400 . S
C2107 C2106 1.400 . S
C2107 C2108 1.398 1_556 S
C2107 C2113 1.491 1_556 S
C2108 H2099 0.950 . S
C2108 C2107 1.398 1_554 S
C2108 C2109 1.391 . S
C2109 H2097 0.950 . S
C2109 C2105 1.393 1_554 S
C2109 C2108 1.391 . S
C2110 H2100 0.950 . S
C2110 C2111 1.386 . S
C2110 C2112 1.391 . S
C2111 C2110 1.386 . S
C2111 C2115 1.393 1_554 S
C2112 H2101 0.950 . S
C2112 C2110 1.391 . S
C2112 C2113 1.400 . S
C2113 C2107 1.491 1_554 S
C2113 C2112 1.400 . S
C2113 C2114 1.398 1_554 S
C2114 H2102 0.950 . S
C2114 C2113 1.398 1_556 S
C2114 C2115 1.391 . S
C2115 H2103 0.950 . S
C2115 C2111 1.393 1_556 S
C2115 C2114 1.391 . S
H2116 C2124 0.950 . S
H2117 C2129 0.950 . S
H2118 C2126 0.950 . S
H2119 C2128 0.950 . S
H2120 C2130 0.950 . S
H2121 C2132 0.950 . S
H2122 C2134 0.950 . S
H2123 C2135 0.950 . S
C2124 H2116 0.950 . S
C2124 C2125 1.386 . S
C2124 C2126 1.391 . S
C2125 C2124 1.386 . S
C2125 C2129 1.393 . S
C2126 H2118 0.950 . S
C2126 C2124 1.391 . S
C2126 C2127 1.400 . S
C2127 C2126 1.400 . S
C2127 C2128 1.398 . S
C2127 C2133 1.491 . S
C2128 H2119 0.950 . S
C2128 C2127 1.398 . S
C2128 C2129 1.391 . S
C2129 H2117 0.950 . S
C2129 C2125 1.393 . S
C2129 C2128 1.391 . S
C2130 H2120 0.950 . S
C2130 C2131 1.386 . S
C2130 C2132 1.391 . S
C2131 C2130 1.386 . S
C2131 C2135 1.393 . S
C2132 H2121 0.950 . S
C2132 C2130 1.391 . S
C2132 C2133 1.400 . S
C2133 C2127 1.491 . S
C2133 C2132 1.400 . S
C2133 C2134 1.398 . S
C2134 H2122 0.950 . S
C2134 C2133 1.398 . S
C2134 C2135 1.391 . S
C2135 H2123 0.950 . S
C2135 C2131 1.393 . S
C2135 C2134 1.391 . S
H2136 C2144 0.950 . S
H2137 C2149 0.950 . S
H2138 C2146 0.950 . S
H2139 C2148 0.950 . S
H2140 C2150 0.950 . S
H2141 C2152 0.950 . S
H2142 C2154 0.950 . S
H2143 C2155 0.950 . S
C2144 H2136 0.950 . S
C2144 C2145 1.386 . S
C2144 C2146 1.391 . S
C2145 C2144 1.386 . S
C2145 C2149 1.393 . S
C2146 H2138 0.950 . S
C2146 C2144 1.391 . S
C2146 C2147 1.400 . S
C2147 C2146 1.400 . S
C2147 C2148 1.398 . S
C2147 C2153 1.491 . S
C2148 H2139 0.950 . S
C2148 C2147 1.398 . S
C2148 C2149 1.391 . S
C2149 H2137 0.950 . S
C2149 C2145 1.393 . S
C2149 C2148 1.391 . S
C2150 H2140 0.950 . S
C2150 C2151 1.386 . S
C2150 C2152 1.391 . S
C2151 C2150 1.386 . S
C2151 C2155 1.393 . S
C2152 H2141 0.950 . S
C2152 C2150 1.391 . S
C2152 C2153 1.400 . S
C2153 C2147 1.491 . S
C2153 C2152 1.400 . S
C2153 C2154 1.398 . S
C2154 H2142 0.950 . S
C2154 C2153 1.398 . S
C2154 C2155 1.391 . S
C2155 H2143 0.950 . S
C2155 C2151 1.393 . S
C2155 C2154 1.391 . S
H2156 C2164 0.950 . S
H2157 C2169 0.950 . S
H2158 C2166 0.950 . S
H2159 C2168 0.950 . S
H2160 C2170 0.950 . S
H2161 C2172 0.950 . S
H2162 C2174 0.950 . S
H2163 C2175 0.950 . S
C2164 H2156 0.950 . S
C2164 C2165 1.386 . S
C2164 C2166 1.391 . S
C2165 C2164 1.386 . S
C2165 C2169 1.393 . S
C2166 H2158 0.950 . S
C2166 C2164 1.391 . S
C2166 C2167 1.400 . S
C2167 C2166 1.400 . S
C2167 C2168 1.398 . S
C2167 C2173 1.491 . S
C2168 H2159 0.950 . S
C2168 C2167 1.398 . S
C2168 C2169 1.391 . S
C2169 H2157 0.950 . S
C2169 C2165 1.393 . S
C2169 C2168 1.391 . S
C2170 H2160 0.950 . S
C2170 C2171 1.386 . S
C2170 C2172 1.391 . S
C2171 C2170 1.386 . S
C2171 C2175 1.393 . S
C2172 H2161 0.950 . S
C2172 C2170 1.391 . S
C2172 C2173 1.400 . S
C2173 C2167 1.491 . S
C2173 C2172 1.400 . S
C2173 C2174 1.398 . S
C2174 H2162 0.950 . S
C2174 C2173 1.398 . S
C2174 C2175 1.391 . S
C2175 H2163 0.950 . S
C2175 C2171 1.393 . S
C2175 C2174 1.391 . S
H2176 C2184 0.950 . S
H2177 C2189 0.950 . S
H2178 C2186 0.950 . S
H2179 C2188 0.950 . S
H2180 C2190 0.950 . S
H2181 C2192 0.950 . S
H2182 C2194 0.950 . S
H2183 C2195 0.950 . S
C2184 H2176 0.950 . S
C2184 C2185 1.386 . S
C2184 C2186 1.391 . S
C2185 C2184 1.386 . S
C2185 C2189 1.393 . S
C2186 H2178 0.950 . S
C2186 C2184 1.391 . S
C2186 C2187 1.400 . S
C2187 C2186 1.400 . S
C2187 C2188 1.398 . S
C2187 C2193 1.491 1_565 S
C2188 H2179 0.950 . S
C2188 C2187 1.398 . S
C2188 C2189 1.391 . S
C2189 H2177 0.950 . S
C2189 C2185 1.393 . S
C2189 C2188 1.391 . S
C2190 H2180 0.950 . S
C2190 C2191 1.386 . S
C2190 C2192 1.391 . S
C2191 C2190 1.386 . S
C2191 C2195 1.393 . S
C2192 H2181 0.950 . S
C2192 C2190 1.391 . S
C2192 C2193 1.400 . S
C2193 C2187 1.491 1_545 S
C2193 C2192 1.400 . S
C2193 C2194 1.398 . S
C2194 H2182 0.950 . S
C2194 C2193 1.398 . S
C2194 C2195 1.391 . S
C2195 H2183 0.950 . S
C2195 C2191 1.393 . S
C2195 C2194 1.391 . S
H2196 C2204 0.950 . S
H2197 C2209 0.950 . S
H2198 C2206 0.950 . S
H2199 C2208 0.950 . S
H2200 C2210 0.950 . S
H2201 C2212 0.950 . S
H2202 C2214 0.950 . S
H2203 C2215 0.950 . S
C2204 H2196 0.950 . S
C2204 C2205 1.386 . S
C2204 C2206 1.391 . S
C2205 C2204 1.386 . S
C2205 C2209 1.393 . S
C2206 H2198 0.950 . S
C2206 C2204 1.391 . S
C2206 C2207 1.400 . S
C2207 C2206 1.400 . S
C2207 C2208 1.398 . S
C2207 C2213 1.491 . S
C2208 H2199 0.950 . S
C2208 C2207 1.398 . S
C2208 C2209 1.391 . S
C2209 H2197 0.950 . S
C2209 C2205 1.393 . S
C2209 C2208 1.391 . S
C2210 H2200 0.950 . S
C2210 C2211 1.386 . S
C2210 C2212 1.391 . S
C2211 C2210 1.386 . S
C2211 C2215 1.393 . S
C2212 H2201 0.950 . S
C2212 C2210 1.391 . S
C2212 C2213 1.400 . S
C2213 C2207 1.491 . S
C2213 C2212 1.400 . S
C2213 C2214 1.398 . S
C2214 H2202 0.950 . S
C2214 C2213 1.398 . S
C2214 C2215 1.391 . S
C2215 H2203 0.950 . S
C2215 C2211 1.393 . S
C2215 C2214 1.391 . S
H2216 C2224 0.950 . S
H2217 C2229 0.950 . S
H2218 C2226 0.950 . S
H2219 C2228 0.950 . S
H2220 C2230 0.950 . S
H2221 C2232 0.950 . S
H2222 C2234 0.950 . S
H2223 C2235 0.950 . S
C2224 H2216 0.950 . S
C2224 C2225 1.386 . S
C2224 C2226 1.391 1_554 S
C2225 C2224 1.386 . S
C2225 C2229 1.393 . S
C2226 H2218 0.950 . S
C2226 C2224 1.391 1_556 S
C2226 C2227 1.400 1_556 S
C2227 C2226 1.400 1_554 S
C2227 C2228 1.398 . S
C2227 C2233 1.491 1_564 S
C2228 H2219 0.950 . S
C2228 C2227 1.398 . S
C2228 C2229 1.391 . S
C2229 H2217 0.950 . S
C2229 C2225 1.393 . S
C2229 C2228 1.391 . S
C2230 H2220 0.950 . S
C2230 C2231 1.386 . S
C2230 C2232 1.391 1_556 S
C2231 C2230 1.386 . S
C2231 C2235 1.393 . S
C2232 H2221 0.950 . S
C2232 C2230 1.391 1_554 S
C2232 C2233 1.400 1_554 S
C2233 C2227 1.491 1_546 S
C2233 C2232 1.400 1_556 S
C2233 C2234 1.398 . S
C2234 H2222 0.950 . S
C2234 C2233 1.398 . S
C2234 C2235 1.391 . S
C2235 H2223 0.950 . S
C2235 C2231 1.393 . S
C2235 C2234 1.391 . S
H2236 C2244 0.950 . S
H2237 C2249 0.950 . S
H2238 C2246 0.950 . S
H2239 C2248 0.950 . S
H2240 C2250 0.950 . S
H2241 C2252 0.950 . S
H2242 C2254 0.950 . S
H2243 C2255 0.950 . S
C2244 H2236 0.950 . S
C2244 C2245 1.386 . S
C2244 C2246 1.391 . S
C2245 C2244 1.386 . S
C2245 C2249 1.393 . S
C2246 H2238 0.950 . S
C2246 C2244 1.391 . S
C2246 C2247 1.400 . S
C2247 C2246 1.400 . S
C2247 C2248 1.398 . S
C2247 C2253 1.491 . S
C2248 H2239 0.950 . S
C2248 C2247 1.398 . S
C2248 C2249 1.391 . S
C2249 H2237 0.950 . S
C2249 C2245 1.393 . S
C2249 C2248 1.391 . S
C2250 H2240 0.950 . S
C2250 C2251 1.386 . S
C2250 C2252 1.391 . S
C2251 C2250 1.386 . S
C2251 C2255 1.393 . S
C2252 H2241 0.950 . S
C2252 C2250 1.391 . S
C2252 C2253 1.400 . S
C2253 C2247 1.491 . S
C2253 C2252 1.400 . S
C2253 C2254 1.398 . S
C2254 H2242 0.950 . S
C2254 C2253 1.398 . S
C2254 C2255 1.391 . S
C2255 H2243 0.950 . S
C2255 C2251 1.393 . S
C2255 C2254 1.391 . S
H2256 C2264 0.950 . S
H2257 C2269 0.950 . S
H2258 C2266 0.950 . S
H2259 C2268 0.950 . S
H2260 C2270 0.950 . S
H2261 C2272 0.950 . S
H2262 C2274 0.950 . S
H2263 C2275 0.950 . S
C2264 H2256 0.950 . S
C2264 C2265 1.386 . S
C2264 C2266 1.391 . S
C2265 C2264 1.386 . S
C2265 C2269 1.393 . S
C2266 H2258 0.950 . S
C2266 C2264 1.391 . S
C2266 C2267 1.400 . S
C2267 C2266 1.400 . S
C2267 C2268 1.398 . S
C2267 C2273 1.491 1_545 S
C2268 H2259 0.950 . S
C2268 C2267 1.398 . S
C2268 C2269 1.391 . S
C2269 H2257 0.950 . S
C2269 C2265 1.393 . S
C2269 C2268 1.391 . S
C2270 H2260 0.950 . S
C2270 C2271 1.386 . S
C2270 C2272 1.391 . S
C2271 C2270 1.386 . S
C2271 C2275 1.393 . S
C2272 H2261 0.950 . S
C2272 C2270 1.391 . S
C2272 C2273 1.400 . S
C2273 C2267 1.491 1_565 S
C2273 C2272 1.400 . S
C2273 C2274 1.398 . S
C2274 H2262 0.950 . S
C2274 C2273 1.398 . S
C2274 C2275 1.391 . S
C2275 H2263 0.950 . S
C2275 C2271 1.393 . S
C2275 C2274 1.391 . S
H2276 C2284 0.950 . S
H2277 C2289 0.950 . S
H2278 C2286 0.950 . S
H2279 C2288 0.950 . S
H2280 C2290 0.950 . S
H2281 C2292 0.950 . S
H2282 C2294 0.950 . S
H2283 C2295 0.950 . S
C2284 H2276 0.950 . S
C2284 C2285 1.386 . S
C2284 C2286 1.391 . S
C2285 C2284 1.386 . S
C2285 C2289 1.393 . S
C2286 H2278 0.950 . S
C2286 C2284 1.391 . S
C2286 C2287 1.400 . S
C2287 C2286 1.400 . S
C2287 C2288 1.398 . S
C2287 C2293 1.491 . S
C2288 H2279 0.950 . S
C2288 C2287 1.398 . S
C2288 C2289 1.391 . S
C2289 H2277 0.950 . S
C2289 C2285 1.393 . S
C2289 C2288 1.391 . S
C2290 H2280 0.950 . S
C2290 C2291 1.386 . S
C2290 C2292 1.391 . S
C2291 C2290 1.386 . S
C2291 C2295 1.393 . S
C2292 H2281 0.950 . S
C2292 C2290 1.391 . S
C2292 C2293 1.400 . S
C2293 C2287 1.491 . S
C2293 C2292 1.400 . S
C2293 C2294 1.398 . S
C2294 H2282 0.950 . S
C2294 C2293 1.398 . S
C2294 C2295 1.391 . S
C2295 H2283 0.950 . S
C2295 C2291 1.393 . S
C2295 C2294 1.391 . S
H2296 C2304 0.950 . S
H2297 C2309 0.950 . S
H2298 C2306 0.950 . S
H2299 C2308 0.950 . S
H2300 C2310 0.950 . S
H2301 C2312 0.950 . S
H2302 C2314 0.950 . S
H2303 C2315 0.950 . S
C2304 H2296 0.950 . S
C2304 C2305 1.386 1_556 S
C2304 C2306 1.391 . S
C2305 C2304 1.386 1_554 S
C2305 C2309 1.393 . S
C2306 H2298 0.950 . S
C2306 C2304 1.391 . S
C2306 C2307 1.400 1_556 S
C2307 C2306 1.400 1_554 S
C2307 C2308 1.398 . S
C2307 C2313 1.491 1_564 S
C2308 H2299 0.950 . S
C2308 C2307 1.398 . S
C2308 C2309 1.391 . S
C2309 H2297 0.950 . S
C2309 C2305 1.393 . S
C2309 C2308 1.391 . S
C2310 H2300 0.950 . S
C2310 C2311 1.386 1_554 S
C2310 C2312 1.391 . S
C2311 C2310 1.386 1_556 S
C2311 C2315 1.393 . S
C2312 H2301 0.950 . S
C2312 C2310 1.391 . S
C2312 C2313 1.400 1_554 S
C2313 C2307 1.491 1_546 S
C2313 C2312 1.400 1_556 S
C2313 C2314 1.398 . S
C2314 H2302 0.950 . S
C2314 C2313 1.398 . S
C2314 C2315 1.391 . S
C2315 H2303 0.950 . S
C2315 C2311 1.393 . S
C2315 C2314 1.391 . S
H2316 C2324 0.950 . S
H2317 C2329 0.950 . S
H2318 C2326 0.950 . S
H2319 C2328 0.950 . S
H2320 C2330 0.950 . S
H2321 C2332 0.950 . S
H2322 C2334 0.950 . S
H2323 C2335 0.950 . S
C2324 H2316 0.950 . S
C2324 C2325 1.386 . S
C2324 C2326 1.391 . S
C2325 C2324 1.386 . S
C2325 C2329 1.393 . S
C2326 H2318 0.950 . S
C2326 C2324 1.391 . S
C2326 C2327 1.400 . S
C2327 C2326 1.400 . S
C2327 C2328 1.398 . S
C2327 C2333 1.491 . S
C2328 H2319 0.950 . S
C2328 C2327 1.398 . S
C2328 C2329 1.391 . S
C2329 H2317 0.950 . S
C2329 C2325 1.393 . S
C2329 C2328 1.391 . S
C2330 H2320 0.950 . S
C2330 C2331 1.386 . S
C2330 C2332 1.391 . S
C2331 C2330 1.386 . S
C2331 C2335 1.393 . S
C2332 H2321 0.950 . S
C2332 C2330 1.391 . S
C2332 C2333 1.400 . S
C2333 C2327 1.491 . S
C2333 C2332 1.400 . S
C2333 C2334 1.398 . S
C2334 H2322 0.950 . S
C2334 C2333 1.398 . S
C2334 C2335 1.391 . S
C2335 H2323 0.950 . S
C2335 C2331 1.393 . S
C2335 C2334 1.391 . S
H2336 C2344 0.950 . S
H2337 C2349 0.950 . S
H2338 C2346 0.950 . S
H2339 C2348 0.950 . S
H2340 C2350 0.957 . S
H2341 C2352 0.950 . S
H2342 C2354 0.950 . S
H2343 C2355 0.950 . S
C2344 H2336 0.950 . S
C2344 C2345 1.386 . S
C2344 C2346 1.391 . S
C2345 C2344 1.386 . S
C2345 C2349 1.393 1_554 S
C2346 H2338 0.950 . S
C2346 C2344 1.391 . S
C2346 C2347 1.400 . S
C2347 C2346 1.400 . S
C2347 C2348 1.398 1_554 S
C2347 C2353 1.491 1_455 S
C2348 H2339 0.950 . S
C2348 C2347 1.398 1_556 S
C2348 C2349 1.391 . S
C2349 H2337 0.950 . S
C2349 C2345 1.393 1_556 S
C2349 C2348 1.391 . S
C2350 H2340 0.957 . S
C2350 C2351 1.378 1_556 S
C2350 C2352 1.391 . S
C2351 C2350 1.378 1_554 S
C2351 C2355 1.393 . S
C2352 H2341 0.950 . S
C2352 C2350 1.391 . S
C2352 C2353 1.400 1_556 S
C2353 C2347 1.491 1_655 S
C2353 C2352 1.400 1_554 S
C2353 C2354 1.398 . S
C2354 H2342 0.950 . S
C2354 C2353 1.398 . S
C2354 C2355 1.391 . S
C2355 H2343 0.950 . S
C2355 C2351 1.393 . S
C2355 C2354 1.391 . S
H2356 C2364 0.950 . S
H2357 C2369 0.950 . S
H2358 C2366 0.950 . S
H2359 C2368 0.950 . S
H2360 C2370 0.950 . S
H2361 C2372 0.950 . S
H2362 C2374 0.950 . S
H2363 C2375 0.950 . S
C2364 H2356 0.950 . S
C2364 C2365 1.386 . S
C2364 C2366 1.391 . S
C2365 C2364 1.386 . S
C2365 C2369 1.393 . S
C2366 H2358 0.950 . S
C2366 C2364 1.391 . S
C2366 C2367 1.400 . S
C2367 C2366 1.400 . S
C2367 C2368 1.398 . S
C2367 C2373 1.491 . S
C2368 H2359 0.950 . S
C2368 C2367 1.398 . S
C2368 C2369 1.391 . S
C2369 H2357 0.950 . S
C2369 C2365 1.393 . S
C2369 C2368 1.391 . S
C2370 H2360 0.950 . S
C2370 C2371 1.386 . S
C2370 C2372 1.391 . S
C2371 C2370 1.386 . S
C2371 C2375 1.393 . S
C2372 H2361 0.950 . S
C2372 C2370 1.391 . S
C2372 C2373 1.400 . S
C2373 C2367 1.491 . S
C2373 C2372 1.400 . S
C2373 C2374 1.398 . S
C2374 H2362 0.950 . S
C2374 C2373 1.398 . S
C2374 C2375 1.391 . S
C2375 H2363 0.950 . S
C2375 C2371 1.393 . S
C2375 C2374 1.391 . S
H2376 C2384 0.950 . S
H2377 C2389 0.950 . S
H2378 C2386 0.950 . S
H2379 C2388 0.950 . S
H2380 C2390 0.950 . S
H2381 C2392 0.950 . S
H2382 C2394 0.950 . S
H2383 C2395 0.950 . S
C2384 H2376 0.950 . S
C2384 C2385 1.386 . S
C2384 C2386 1.391 . S
C2385 C2384 1.386 . S
C2385 C2389 1.393 . S
C2386 H2378 0.950 . S
C2386 C2384 1.391 . S
C2386 C2387 1.400 . S
C2387 C2386 1.400 . S
C2387 C2388 1.398 . S
C2387 C2393 1.491 . S
C2388 H2379 0.950 . S
C2388 C2387 1.398 . S
C2388 C2389 1.391 . S
C2389 H2377 0.950 . S
C2389 C2385 1.393 . S
C2389 C2388 1.391 . S
C2390 H2380 0.950 . S
C2390 C2391 1.386 . S
C2390 C2392 1.391 . S
C2391 C2390 1.386 . S
C2391 C2395 1.393 . S
C2392 H2381 0.950 . S
C2392 C2390 1.391 . S
C2392 C2393 1.400 . S
C2393 C2387 1.491 . S
C2393 C2392 1.400 . S
C2393 C2394 1.398 . S
C2394 H2382 0.950 . S
C2394 C2393 1.398 . S
C2394 C2395 1.391 . S
C2395 H2383 0.950 . S
C2395 C2391 1.393 . S
C2395 C2394 1.391 . S
H2396 C2404 0.950 . S
H2397 C2409 0.950 . S
H2398 C2406 0.950 . S
H2399 C2408 0.950 . S
H2400 C2410 0.950 . S
H2401 C2412 0.950 . S
H2402 C2414 0.950 . S
H2403 C2415 0.950 . S
C2404 H2396 0.950 . S
C2404 C2405 1.386 . S
C2404 C2406 1.391 . S
C2405 C2404 1.386 . S
C2405 C2409 1.393 . S
C2406 H2398 0.950 . S
C2406 C2404 1.391 . S
C2406 C2407 1.400 . S
C2407 C2406 1.400 . S
C2407 C2408 1.398 . S
C2407 C2413 1.491 . S
C2408 H2399 0.950 . S
C2408 C2407 1.398 . S
C2408 C2409 1.391 . S
C2409 H2397 0.950 . S
C2409 C2405 1.393 . S
C2409 C2408 1.391 . S
C2410 H2400 0.950 . S
C2410 C2411 1.386 . S
C2410 C2412 1.391 . S
C2411 C2410 1.386 . S
C2411 C2415 1.393 . S
C2412 H2401 0.950 . S
C2412 C2410 1.391 . S
C2412 C2413 1.400 . S
C2413 C2407 1.491 . S
C2413 C2412 1.400 . S
C2413 C2414 1.398 . S
C2414 H2402 0.950 . S
C2414 C2413 1.398 . S
C2414 C2415 1.391 . S
C2415 H2403 0.950 . S
C2415 C2411 1.393 . S
C2415 C2414 1.391 . S
H2416 C2424 0.950 1_554 S
H2417 C2429 0.950 . S
H2418 C2426 0.950 1_554 S
H2419 C2428 0.950 . S
H2420 C2430 0.950 . S
H2421 C2432 0.950 . S
H2422 C2434 0.950 1_554 S
H2423 C2435 0.950 1_554 S
C2424 H2416 0.950 1_556 S
C2424 C2425 1.386 . S
C2424 C2426 1.391 . S
C2425 C2424 1.386 . S
C2425 C2429 1.393 . S
C2426 H2418 0.950 1_556 S
C2426 C2424 1.391 . S
C2426 C2427 1.400 . S
C2427 C2426 1.400 . S
C2427 C2428 1.398 . S
C2427 C2433 1.491 1_655 S
C2428 H2419 0.950 . S
C2428 C2427 1.398 . S
C2428 C2429 1.391 . S
C2429 H2417 0.950 . S
C2429 C2425 1.393 . S
C2429 C2428 1.391 . S
C2430 H2420 0.950 . S
C2430 C2431 1.386 . S
C2430 C2432 1.391 . S
C2431 C2430 1.386 . S
C2431 C2435 1.393 . S
C2432 H2421 0.950 . S
C2432 C2430 1.391 . S
C2432 C2433 1.400 . S
C2433 C2427 1.491 1_455 S
C2433 C2432 1.400 . S
C2433 C2434 1.398 . S
C2434 H2422 0.950 1_556 S
C2434 C2433 1.398 . S
C2434 C2435 1.391 . S
C2435 H2423 0.950 1_556 S
C2435 C2431 1.393 . S
C2435 C2434 1.391 . S
H2436 C2444 0.950 . S
H2437 C2449 0.950 . S
H2438 C2446 0.950 . S
H2439 C2448 0.950 . S
H2440 C2450 0.950 . S
H2441 C2452 0.950 . S
H2442 C2454 0.950 . S
H2443 C2455 0.950 . S
C2444 H2436 0.950 . S
C2444 C2445 1.386 . S
C2444 C2446 1.391 . S
C2445 C2444 1.386 . S
C2445 C2449 1.393 . S
C2446 H2438 0.950 . S
C2446 C2444 1.391 . S
C2446 C2447 1.400 . S
C2447 C2446 1.400 . S
C2447 C2448 1.398 . S
C2447 C2453 1.491 . S
C2448 H2439 0.950 . S
C2448 C2447 1.398 . S
C2448 C2449 1.391 . S
C2449 H2437 0.950 . S
C2449 C2445 1.393 . S
C2449 C2448 1.391 . S
C2450 H2440 0.950 . S
C2450 C2451 1.386 . S
C2450 C2452 1.391 . S
C2451 C2450 1.386 . S
C2451 C2455 1.393 . S
C2452 H2441 0.950 . S
C2452 C2450 1.391 . S
C2452 C2453 1.400 . S
C2453 C2447 1.491 . S
C2453 C2452 1.400 . S
C2453 C2454 1.398 . S
C2454 H2442 0.950 . S
C2454 C2453 1.398 . S
C2454 C2455 1.391 . S
C2455 H2443 0.950 . S
C2455 C2451 1.393 . S
C2455 C2454 1.391 . S
H2456 C2464 0.950 . S
H2457 C2469 0.950 . S
H2458 C2466 0.950 . S
H2459 C2468 0.950 . S
H2460 C2470 0.950 . S
H2461 C2472 0.950 . S
H2462 C2474 0.950 . S
H2463 C2475 0.950 . S
C2464 H2456 0.950 . S
C2464 C2465 1.386 . S
C2464 C2466 1.391 . S
C2465 C2464 1.386 . S
C2465 C2469 1.393 . S
C2466 H2458 0.950 . S
C2466 C2464 1.391 . S
C2466 C2467 1.400 . S
C2467 C2466 1.400 . S
C2467 C2468 1.398 . S
C2467 C2473 1.491 . S
C2468 H2459 0.950 . S
C2468 C2467 1.398 . S
C2468 C2469 1.391 . S
C2469 H2457 0.950 . S
C2469 C2465 1.393 . S
C2469 C2468 1.391 . S
C2470 H2460 0.950 . S
C2470 C2471 1.386 . S
C2470 C2472 1.391 . S
C2471 C2470 1.386 . S
C2471 C2475 1.393 . S
C2472 H2461 0.950 . S
C2472 C2470 1.391 . S
C2472 C2473 1.400 . S
C2473 C2467 1.491 . S
C2473 C2472 1.400 . S
C2473 C2474 1.398 . S
C2474 H2462 0.950 . S
C2474 C2473 1.398 . S
C2474 C2475 1.391 . S
C2475 H2463 0.950 . S
C2475 C2471 1.393 . S
C2475 C2474 1.391 . S
H2476 C2484 0.950 . S
H2477 C2489 0.950 . S
H2478 C2486 0.950 . S
H2479 C2488 0.950 . S
H2480 C2490 0.950 . S
H2481 C2492 0.950 . S
H2482 C2494 0.950 . S
H2483 C2495 0.950 . S
C2484 H2476 0.950 . S
C2484 C2485 1.386 . S
C2484 C2486 1.391 . S
C2485 C2484 1.386 . S
C2485 C2489 1.393 . S
C2486 H2478 0.950 . S
C2486 C2484 1.391 . S
C2486 C2487 1.400 . S
C2487 C2486 1.400 . S
C2487 C2488 1.398 . S
C2487 C2493 1.491 . S
C2488 H2479 0.950 . S
C2488 C2487 1.398 . S
C2488 C2489 1.391 . S
C2489 H2477 0.950 . S
C2489 C2485 1.393 . S
C2489 C2488 1.391 . S
C2490 H2480 0.950 . S
C2490 C2491 1.386 . S
C2490 C2492 1.391 . S
C2491 C2490 1.386 . S
C2491 C2495 1.393 . S
C2492 H2481 0.950 . S
C2492 C2490 1.391 . S
C2492 C2493 1.400 . S
C2493 C2487 1.491 . S
C2493 C2492 1.400 . S
C2493 C2494 1.398 . S
C2494 H2482 0.950 . S
C2494 C2493 1.398 . S
C2494 C2495 1.391 . S
C2495 H2483 0.950 . S
C2495 C2491 1.393 . S
C2495 C2494 1.391 . S
H2496 C2504 0.950 . S
H2497 C2509 0.950 . S
H2498 C2506 0.950 . S
H2499 C2508 0.950 . S
H2500 C2510 0.950 . S
H2501 C2512 0.950 . S
H2502 C2514 0.950 . S
H2503 C2515 0.950 . S
C2504 H2496 0.950 . S
C2504 C2505 1.386 . S
C2504 C2506 1.391 . S
C2505 C2504 1.386 . S
C2505 C2509 1.393 . S
C2506 H2498 0.950 . S
C2506 C2504 1.391 . S
C2506 C2507 1.400 . S
C2507 C2506 1.400 . S
C2507 C2508 1.398 . S
C2507 C2513 1.491 . S
C2508 H2499 0.950 . S
C2508 C2507 1.398 . S
C2508 C2509 1.391 . S
C2509 H2497 0.950 . S
C2509 C2505 1.393 . S
C2509 C2508 1.391 . S
C2510 H2500 0.950 . S
C2510 C2511 1.386 . S
C2510 C2512 1.391 . S
C2511 C2510 1.386 . S
C2511 C2515 1.393 . S
C2512 H2501 0.950 . S
C2512 C2510 1.391 . S
C2512 C2513 1.400 . S
C2513 C2507 1.491 . S
C2513 C2512 1.400 . S
C2513 C2514 1.398 . S
C2514 H2502 0.950 . S
C2514 C2513 1.398 . S
C2514 C2515 1.391 . S
C2515 H2503 0.950 . S
C2515 C2511 1.393 . S
C2515 C2514 1.391 . S
H2516 C2524 0.950 . S
H2517 C2529 0.950 . S
H2518 C2526 0.950 . S
H2519 C2528 0.950 . S
H2520 C2530 0.950 . S
H2521 C2532 0.950 . S
H2522 C2534 0.950 . S
H2523 C2535 0.950 . S
C2524 H2516 0.950 . S
C2524 C2525 1.386 . S
C2524 C2526 1.391 . S
C2525 C2524 1.386 . S
C2525 C2529 1.393 . S
C2526 H2518 0.950 . S
C2526 C2524 1.391 . S
C2526 C2527 1.400 . S
C2527 C2526 1.400 . S
C2527 C2528 1.398 . S
C2527 C2533 1.491 . S
C2528 H2519 0.950 . S
C2528 C2527 1.398 . S
C2528 C2529 1.391 . S
C2529 H2517 0.950 . S
C2529 C2525 1.393 . S
C2529 C2528 1.391 . S
C2530 H2520 0.950 . S
C2530 C2531 1.386 . S
C2530 C2532 1.391 . S
C2531 C2530 1.386 . S
C2531 C2535 1.393 . S
C2532 H2521 0.950 . S
C2532 C2530 1.391 . S
C2532 C2533 1.400 . S
C2533 C2527 1.491 . S
C2533 C2532 1.400 . S
C2533 C2534 1.398 . S
C2534 H2522 0.950 . S
C2534 C2533 1.398 . S
C2534 C2535 1.391 . S
C2535 H2523 0.950 . S
C2535 C2531 1.393 . S
C2535 C2534 1.391 . S
H2536 C2544 0.950 . S
H2537 C2549 0.950 . S
H2538 C2546 0.950 . S
H2539 C2548 0.950 . S
H2540 C2550 0.950 . S
H2541 C2552 0.950 . S
H2542 C2554 0.950 . S
H2543 C2555 0.950 . S
C2544 H2536 0.950 . S
C2544 C2545 1.386 . S
C2544 C2546 1.391 . S
C2545 C2544 1.386 . S
C2545 C2549 1.393 . S
C2546 H2538 0.950 . S
C2546 C2544 1.391 . S
C2546 C2547 1.400 . S
C2547 C2546 1.400 . S
C2547 C2548 1.398 . S
C2547 C2553 1.491 . S
C2548 H2539 0.950 . S
C2548 C2547 1.398 . S
C2548 C2549 1.391 . S
C2549 H2537 0.950 . S
C2549 C2545 1.393 . S
C2549 C2548 1.391 . S
C2550 H2540 0.950 . S
C2550 C2551 1.386 . S
C2550 C2552 1.391 . S
C2551 C2550 1.386 . S
C2551 C2555 1.393 . S
C2552 H2541 0.950 . S
C2552 C2550 1.391 . S
C2552 C2553 1.400 . S
C2553 C2547 1.491 . S
C2553 C2552 1.400 . S
C2553 C2554 1.398 . S
C2554 H2542 0.950 . S
C2554 C2553 1.398 . S
C2554 C2555 1.391 . S
C2555 H2543 0.950 . S
C2555 C2551 1.393 . S
C2555 C2554 1.391 . S
H2556 C2564 0.950 . S
H2557 C2569 0.950 . S
H2558 C2566 0.950 . S
H2559 C2568 0.950 . S
H2560 C2570 0.950 . S
H2561 C2572 0.950 . S
H2562 C2574 0.950 . S
H2563 C2575 0.950 . S
C2564 H2556 0.950 . S
C2564 C2565 1.386 . S
C2564 C2566 1.391 . S
C2565 C2564 1.386 . S
C2565 C2569 1.393 . S
C2566 H2558 0.950 . S
C2566 C2564 1.391 . S
C2566 C2567 1.400 . S
C2567 C2566 1.400 . S
C2567 C2568 1.398 . S
C2567 C2573 1.491 . S
C2568 H2559 0.950 . S
C2568 C2567 1.398 . S
C2568 C2569 1.391 . S
C2569 H2557 0.950 . S
C2569 C2565 1.393 . S
C2569 C2568 1.391 . S
C2570 H2560 0.950 . S
C2570 C2571 1.386 . S
C2570 C2572 1.391 . S
C2571 C2570 1.386 . S
C2571 C2575 1.393 . S
C2572 H2561 0.950 . S
C2572 C2570 1.391 . S
C2572 C2573 1.400 . S
C2573 C2567 1.491 . S
C2573 C2572 1.400 . S
C2573 C2574 1.398 . S
C2574 H2562 0.950 . S
C2574 C2573 1.398 . S
C2574 C2575 1.391 . S
C2575 H2563 0.950 . S
C2575 C2571 1.393 . S
C2575 C2574 1.391 . S
H2576 C2584 0.950 . S
H2577 C2589 0.950 . S
H2578 C2586 0.950 . S
H2579 C2588 0.950 . S
H2580 C2590 0.950 . S
H2581 C2592 0.950 . S
H2582 C2594 0.950 . S
H2583 C2595 0.950 . S
C2584 H2576 0.950 . S
C2584 C2585 1.386 . S
C2584 C2586 1.391 . S
C2585 C2584 1.386 . S
C2585 C2589 1.393 . S
C2586 H2578 0.950 . S
C2586 C2584 1.391 . S
C2586 C2587 1.400 . S
C2587 C2586 1.400 . S
C2587 C2588 1.398 . S
C2587 C2593 1.491 . S
C2588 H2579 0.950 . S
C2588 C2587 1.398 . S
C2588 C2589 1.391 . S
C2589 H2577 0.950 . S
C2589 C2585 1.393 . S
C2589 C2588 1.391 . S
C2590 H2580 0.950 . S
C2590 C2591 1.386 . S
C2590 C2592 1.391 . S
C2591 C2590 1.386 . S
C2591 C2595 1.393 . S
C2592 H2581 0.950 . S
C2592 C2590 1.391 . S
C2592 C2593 1.400 . S
C2593 C2587 1.491 . S
C2593 C2592 1.400 . S
C2593 C2594 1.398 . S
C2594 H2582 0.950 . S
C2594 C2593 1.398 . S
C2594 C2595 1.391 . S
C2595 H2583 0.950 . S
C2595 C2591 1.393 . S
C2595 C2594 1.391 . S
H2596 C2604 0.950 . S
H2597 C2609 0.950 . S
H2598 C2606 0.950 . S
H2599 C2608 0.950 . S
H2600 C2610 0.950 . S
H2601 C2612 0.950 . S
H2602 C2614 0.950 . S
H2603 C2615 0.950 . S
C2604 H2596 0.950 . S
C2604 C2605 1.386 . S
C2604 C2606 1.391 . S
C2605 C2604 1.386 . S
C2605 C2609 1.393 . S
C2606 H2598 0.950 . S
C2606 C2604 1.391 . S
C2606 C2607 1.400 . S
C2607 C2606 1.400 . S
C2607 C2608 1.398 . S
C2607 C2613 1.491 1_455 S
C2608 H2599 0.950 . S
C2608 C2607 1.398 . S
C2608 C2609 1.391 . S
C2609 H2597 0.950 . S
C2609 C2605 1.393 . S
C2609 C2608 1.391 . S
C2610 H2600 0.950 . S
C2610 C2611 1.386 . S
C2610 C2612 1.391 . S
C2611 C2610 1.386 . S
C2611 C2615 1.393 . S
C2612 H2601 0.950 . S
C2612 C2610 1.391 . S
C2612 C2613 1.400 . S
C2613 C2607 1.491 1_655 S
C2613 C2612 1.400 . S
C2613 C2614 1.398 . S
C2614 H2602 0.950 . S
C2614 C2613 1.398 . S
C2614 C2615 1.391 . S
C2615 H2603 0.950 . S
C2615 C2611 1.393 . S
C2615 C2614 1.391 . S
H2616 C2624 0.950 . S
H2617 C2629 0.950 . S
H2618 C2626 0.950 . S
H2619 C2628 0.950 . S
H2620 C2630 0.950 . S
H2621 C2632 0.950 . S
H2622 C2634 0.950 . S
H2623 C2635 0.950 . S
C2624 H2616 0.950 . S
C2624 C2625 1.386 . S
C2624 C2626 1.391 . S
C2625 C2624 1.386 . S
C2625 C2629 1.393 . S
C2626 H2618 0.950 . S
C2626 C2624 1.391 . S
C2626 C2627 1.400 . S
C2627 C2626 1.400 . S
C2627 C2628 1.398 . S
C2627 C2633 1.491 . S
C2628 H2619 0.950 . S
C2628 C2627 1.398 . S
C2628 C2629 1.391 . S
C2629 H2617 0.950 . S
C2629 C2625 1.393 . S
C2629 C2628 1.391 . S
C2630 H2620 0.950 . S
C2630 C2631 1.386 . S
C2630 C2632 1.391 . S
C2631 C2630 1.386 . S
C2631 C2635 1.393 . S
C2632 H2621 0.950 . S
C2632 C2630 1.391 . S
C2632 C2633 1.400 . S
C2633 C2627 1.491 . S
C2633 C2632 1.400 . S
C2633 C2634 1.398 . S
C2634 H2622 0.950 . S
C2634 C2633 1.398 . S
C2634 C2635 1.391 . S
C2635 H2623 0.950 . S
C2635 C2631 1.393 . S
C2635 C2634 1.391 . S
H2636 C2644 0.950 . S
H2637 C2649 0.950 . S
H2638 C2646 0.950 . S
H2639 C2648 0.950 . S
H2640 C2650 0.950 . S
H2641 C2652 0.950 . S
H2642 C2654 0.950 . S
H2643 C2655 0.950 . S
C2644 H2636 0.950 . S
C2644 C2645 1.386 . S
C2644 C2646 1.391 . S
C2645 C2644 1.386 . S
C2645 C2649 1.393 1_556 S
C2646 H2638 0.950 . S
C2646 C2644 1.391 . S
C2646 C2647 1.400 . S
C2647 C2646 1.400 . S
C2647 C2648 1.398 1_556 S
C2647 C2653 1.491 1_455 S
C2648 H2639 0.950 . S
C2648 C2647 1.398 1_554 S
C2648 C2649 1.391 . S
C2649 H2637 0.950 . S
C2649 C2645 1.393 1_554 S
C2649 C2648 1.391 . S
C2650 H2640 0.950 . S
C2650 C2651 1.386 1_554 S
C2650 C2652 1.391 . S
C2651 C2650 1.386 1_556 S
C2651 C2655 1.393 . S
C2652 H2641 0.950 . S
C2652 C2650 1.391 . S
C2652 C2653 1.400 1_554 S
C2653 C2647 1.491 1_655 S
C2653 C2652 1.400 1_556 S
C2653 C2654 1.398 . S
C2654 H2642 0.950 . S
C2654 C2653 1.398 . S
C2654 C2655 1.391 . S
C2655 H2643 0.950 . S
C2655 C2651 1.393 . S
C2655 C2654 1.391 . S
C1065 N2 1.469 . S
C1071 N13 1.472 . S
C1085 N46 1.464 . S
C1091 N35 1.461 1_556 S
C1105 N79 1.472 . S
C1111 N68 1.469 . S
C1125 N112 1.471 . S
C1131 N101 1.469 . S
C1145 N145 1.467 . S
C1151 N134 1.465 . S
C1165 N178 1.459 . S
C1171 N167 1.456 . S
C1185 N200 1.453 . S
C1191 N211 1.456 . S
C1205 N233 1.452 1_554 S
C1211 N244 1.455 . S
C1225 N266 1.455 . S
C1231 N277 1.458 . S
C1245 N299 1.448 1_554 S
C1251 N310 1.451 . S
C1265 N332 1.454 . S
C1271 N343 1.457 . S
C1285 N376 1.469 . S
C1291 N365 1.467 . S
C1305 N398 1.470 . S
C1311 N409 1.472 . S
C1325 N431 1.462 . S
C1331 N442 1.465 . S
C1345 N475 1.472 . S
C1351 N464 1.469 . S
C1365 N497 1.450 1_556 S
C1371 N508 1.453 . S
C1385 N541 1.458 . S
C1391 N530 1.455 . S
C1405 N574 1.457 . S
C1411 N563 1.455 . S
C1425 N607 1.464 . S
C1431 N596 1.461 . S
C1445 N640 1.451 . S
C1451 N629 1.448 1_556 S
C1465 N673 1.451 . S
C1471 N662 1.448 . S
C1485 N706 1.471 . S
C1491 N695 1.469 1_554 S
C1505 N739 1.456 . S
C1511 N728 1.453 . S
C1525 N761 1.466 . S
C1531 N772 1.468 . S
C1545 N805 1.468 . S
C1551 N794 1.465 . S
C1565 N838 1.466 . S
C1571 N827 1.463 . S
C1585 N871 1.465 . S
C1591 N860 1.462 . S
C1605 N893 1.470 1_554 S
C1611 N904 1.472 . S
C1625 N926 1.458 . S
C1631 N937 1.460 . S
C1645 N959 1.448 1_556 S
C1651 N970 1.451 . S
C1665 N1003 1.470 . S
C1671 N992 1.468 . S
C1685 N1025 1.467 . S
C1691 N1036 1.469 . S
C1705 C777 1.071 . S
C1711 C18 1.072 . S
C1725 C678 1.074 . S
C1731 C51 1.073 . S
C1745 C711 1.069 . S
C1751 C84 1.069 . S
C1765 C744 1.073 . S
C1771 C117 1.072 . S
C1785 C579 1.068 . S
C1791 C150 1.068 . S
C1805 C612 1.074 . S
C1811 C183 1.073 . S
C1825 C645 1.074 . S
C1831 C216 1.074 . S
C1845 C546 1.072 . S
C1851 C249 1.071 . S
C1865 C1041 1.070 . S
C1871 C282 1.070 . S
C1885 C942 1.068 . S
C1891 C315 1.068 . S
C1905 C348 1.072 . S
C1911 C975 1.072 . S
C1925 C381 1.074 . S
C1931 C1008 1.074 . S
C1945 C414 1.069 . S
C1951 C843 1.069 . S
C1965 C447 1.069 . S
C1971 C876 1.068 . S
C1985 C480 1.073 . S
C1991 C909 1.072 . S
C2005 C810 1.068 . S
C2011 C513 1.069 . S
C2025 C139 1.422 . S
C2031 C7 1.409 . S
C2045 C40 1.423 . S
C2051 C172 1.408 . S
C2065 C205 1.422 . S
C2071 C73 1.409 . S
C2085 C106 1.419 . S
C2091 C238 1.415 . S
C2105 C271 1.417 . S
C2111 C403 1.405 . S
C2125 C436 1.414 . S
C2131 C304 1.409 . S
C2145 C469 1.411 . S
C2151 C337 1.410 . S
C2165 C502 1.422 . S
C2171 C370 1.410 . S
C2185 C667 1.420 . S
C2191 C535 1.412 . S
C2205 C568 1.422 . S
C2211 C700 1.410 . S
C2225 C601 1.412 . S
C2231 C733 1.409 . S
C2245 C634 1.422 . S
C2251 C766 1.407 . S
C2265 C931 1.406 . S
C2271 C799 1.416 . S
C2285 C964 1.410 . S
C2291 C832 1.422 . S
C2305 C997 1.413 . S
C2311 C865 1.420 . S
C2325 C898 1.409 . S
C2331 C1030 1.422 . S
C2345 C21 1.461 . S
C2351 C417 1.453 . S
C2365 C978 1.453 . S
C2371 C54 1.461 . S
C2385 C87 1.451 . S
C2391 C483 1.462 . S
C2405 C1044 1.451 . S
C2411 C120 1.462 . S
C2425 C285 1.459 . S
C2431 C153 1.455 . S
C2445 C186 1.451 . S
C2451 C846 1.462 . S
C2465 C219 1.461 . S
C2471 C351 1.454 . S
C2485 C252 1.455 . S
C2491 C912 1.458 . S
C2505 C714 1.453 . S
C2511 C318 1.460 . S
C2525 C780 1.461 . S
C2531 C384 1.452 . S
C2545 C582 1.453 . S
C2551 C450 1.460 . S
C2565 C648 1.460 . S
C2571 C516 1.454 . S
C2585 C549 1.453 . S
C2591 C945 1.461 . S
C2605 C1011 1.456 . S
C2611 C615 1.458 . S
C2625 C681 1.454 . S
C2631 C813 1.460 . S
C2645 C879 1.452 . S
C2651 C747 1.462 . S
