# Generated by pormake.
# Topology zfi, (5)-cn, num edge types: 1
# Building blocks:
#     Node 0, Type 0, BuildingBlock: BEQFEK_clean_sbu_0, # of connection points: 5
#     Node 1, Type 0, BuildingBlock: BEQFEK_clean_sbu_0, # of connection points: 5
#     Node 2, Type 0, BuildingBlock: BEQFEK_clean_sbu_0, # of connection points: 5
#     Node 3, Type 0, BuildingBlock: BEQFEK_clean_sbu_0, # of connection points: 5
#     Node 4, Type 0, BuildingBlock: BEQFEK_clean_sbu_0, # of connection points: 5
#     Node 5, Type 0, BuildingBlock: BEQFEK_clean_sbu_0, # of connection points: 5
#     Node 6, Type 0, BuildingBlock: BEQFEK_clean_sbu_0, # of connection points: 5
#     Node 7, Type 0, BuildingBlock: BEQFEK_clean_sbu_0, # of connection points: 5
#     Node 8, Type 0, BuildingBlock: BEQFEK_clean_sbu_0, # of connection points: 5
#     Node 9, Type 0, BuildingBlock: BEQFEK_clean_sbu_0, # of connection points: 5
#     Node 10, Type 0, BuildingBlock: BEQFEK_clean_sbu_0, # of connection points: 5
#     Node 11, Type 0, BuildingBlock: BEQFEK_clean_sbu_0, # of connection points: 5
#     Node 12, Type 0, BuildingBlock: BEQFEK_clean_sbu_0, # of connection points: 5
#     Node 13, Type 0, BuildingBlock: BEQFEK_clean_sbu_0, # of connection points: 5
#     Node 14, Type 0, BuildingBlock: BEQFEK_clean_sbu_0, # of connection points: 5
#     Node 15, Type 0, BuildingBlock: BEQFEK_clean_sbu_0, # of connection points: 5
#     Edge 16, Type (0, 0), None
#     Edge 17, Type (0, 0), None
#     Edge 18, Type (0, 0), None
#     Edge 19, Type (0, 0), None
#     Edge 20, Type (0, 0), None
#     Edge 21, Type (0, 0), None
#     Edge 22, Type (0, 0), None
#     Edge 23, Type (0, 0), None
#     Edge 24, Type (0, 0), None
#     Edge 25, Type (0, 0), None
#     Edge 26, Type (0, 0), None
#     Edge 27, Type (0, 0), None
#     Edge 28, Type (0, 0), None
#     Edge 29, Type (0, 0), None
#     Edge 30, Type (0, 0), None
#     Edge 31, Type (0, 0), None
#     Edge 32, Type (0, 0), None
#     Edge 33, Type (0, 0), None
#     Edge 34, Type (0, 0), None
#     Edge 35, Type (0, 0), None
#     Edge 36, Type (0, 0), None
#     Edge 37, Type (0, 0), None
#     Edge 38, Type (0, 0), None
#     Edge 39, Type (0, 0), None
#     Edge 40, Type (0, 0), None
#     Edge 41, Type (0, 0), None
#     Edge 42, Type (0, 0), None
#     Edge 43, Type (0, 0), None
#     Edge 44, Type (0, 0), None
#     Edge 45, Type (0, 0), None
#     Edge 46, Type (0, 0), None
#     Edge 47, Type (0, 0), None
#     Edge 48, Type (0, 0), None
#     Edge 49, Type (0, 0), None
#     Edge 50, Type (0, 0), None
#     Edge 51, Type (0, 0), None
#     Edge 52, Type (0, 0), None
#     Edge 53, Type (0, 0), None
#     Edge 54, Type (0, 0), None
#     Edge 55, Type (0, 0), None
# Relax obj value: 0.254
# Max RMSD: 0.220
# Mean RMSD: 0.220
data_MOF--net-zfi--node1-BEQFEK_clean_sbu_0--edge1-none
_symmetry_space_group_name_H-M    P1
_symmetry_Int_Tables_number       1
_symmetry_cell_setting            triclinic
loop_
_symmetry_equiv_pos_as_xyz
'x, y, z'
_cell_length_a     20.86473
_cell_length_b     20.864095
_cell_length_c     27.030245
_cell_angle_alpha  90.000069
_cell_angle_beta   89.999881
_cell_angle_gamma 89.999957
loop_
_atom_site_label
_atom_site_type_symbol
_atom_site_fract_x
_atom_site_fract_y
_atom_site_fract_z
_atom_type_partial_charge
Co0 Co 0.63233 0.09082 0.13561 0.0
Co1 Co 0.57767 0.9566 0.16677 0.0
C2 C 0.57311 0.05293 0.23927 0.0
O3 O 0.60095 0.09166 0.20901 0.0
O4 O 0.55561 -0.00301 0.22663 0.0
C5 C 0.72335 0.19881 0.11414 0.0
O6 O 0.76793 0.15472 0.11789 0.0
C7 C 0.51222 0.83104 0.17476 0.0
C8 C 0.56621 0.7835 0.11424 0.0
C9 C 0.51594 0.77609 0.14664 0.0
N10 N 0.55759 0.87098 0.15804 0.0
N11 N 0.58968 0.84214 0.1222 0.0
C12 C 0.46511 0.84609 0.21476 0.0
H13 H 0.47177 0.89572 0.22857 0.0
H14 H 0.41563 0.84006 0.20038 0.0
H15 H 0.47138 0.81163 0.24566 0.0
C16 C 0.5441 0.04854 0.04509 0.0
N17 N 0.56941 0.04551 0.0914 0.0
N18 N 0.54191 -0.00339 0.11296 0.0
C19 C 0.4972 0.96951 0.08405 0.0
C20 C 0.50067 -0.00421 0.03705 0.0
C21 C 0.55266 0.10753 0.01445 0.0
H22 H 0.56564 0.1486 0.0386 0.0
H23 H 0.50762 0.11956 0.99476 0.0
H24 H 0.59307 0.10097 0.98834 0.0
O25 O 0.71149 0.04108 0.13638 0.0
O26 O 0.66886 0.95138 0.16418 0.0
H27 H 0.44101 0.88842 0.10755 0.0
H28 H 0.39458 0.95654 0.08677 0.0
C29 C 0.43825 0.94112 0.10696 0.0
H30 H 0.43386 0.95713 0.14599 0.0
H31 H 0.62664 0.86342 0.10204 0.0
O32 O 0.66383 0.18245 0.11715 0.0
C33 C 0.71682 -0.01558 0.1523 0.0
Co34 Co 0.3755 0.63229 0.13559 0.0
Co35 Co 0.50979 0.57779 0.16676 0.0
C36 C 0.41345 0.57317 0.23926 0.0
O37 O 0.37468 0.60094 0.209 0.0
O38 O 0.4694 0.55572 0.22662 0.0
C39 C 0.26751 0.7233 0.11411 0.0
O40 O 0.3116 0.76788 0.11784 0.0
C41 C 0.63534 0.51234 0.1748 0.0
C42 C 0.68293 0.56632 0.1143 0.0
C43 C 0.69031 0.51603 0.14669 0.0
N44 N 0.59543 0.55773 0.15807 0.0
N45 N 0.6243 0.58981 0.12224 0.0
C46 C 0.62026 0.46522 0.21478 0.0
H47 H 0.57063 0.47189 0.22858 0.0
H48 H 0.62627 0.41574 0.2004 0.0
H49 H 0.65471 0.47147 0.2457 0.0
C50 C 0.4178 0.54406 0.0451 0.0
N51 N 0.42085 0.5694 0.09141 0.0
N52 N 0.46981 0.54198 0.11294 0.0
C53 C 0.49694 0.49729 0.08403 0.0
C54 C 0.4706 0.50069 0.03705 0.0
C55 C 0.35878 0.55252 0.0145 0.0
H56 H 0.31771 0.56546 0.03866 0.0
H57 H 0.34678 0.50746 0.99483 0.0
H58 H 0.36526 0.59292 0.98837 0.0
O59 O 0.42518 0.71146 0.13633 0.0
O60 O 0.51496 0.669 0.16414 0.0
H61 H 0.57809 0.44118 0.10751 0.0
H62 H 0.51 0.39467 0.08677 0.0
C63 C 0.52539 0.43837 0.10694 0.0
H64 H 0.50941 0.43398 0.14599 0.0
H65 H 0.60304 0.62678 0.10208 0.0
O66 O 0.28386 0.66377 0.11713 0.0
C67 C 0.48183 0.71689 0.15225 0.0
Co68 Co 0.83407 0.37554 0.1356 0.0
Co69 Co 0.8886 0.50981 0.16679 0.0
C70 C 0.89322 0.41345 0.23927 0.0
O71 O 0.86542 0.3747 0.209 0.0
O72 O 0.9107 0.4694 0.22664 0.0
C73 C 0.74307 0.26753 0.11414 0.0
O74 O 0.69848 0.31162 0.1179 0.0
C75 C 0.95404 0.63536 0.17484 0.0
C76 C 0.90002 0.68298 0.11437 0.0
C77 C 0.95032 0.69034 0.14675 0.0
N78 N 0.90865 0.59545 0.15811 0.0
N79 N 0.87654 0.62433 0.12231 0.0
C80 C 0.00119 0.62027 0.2148 0.0
H81 H -0.00549 0.57063 0.2286 0.0
H82 H 0.05066 0.62626 0.20039 0.0
H83 H -0.00503 0.65472 0.24572 0.0
C84 C 0.92231 0.41783 0.04511 0.0
N85 N 0.89696 0.42089 0.09141 0.0
N86 N 0.92437 0.46986 0.11294 0.0
C87 C 0.96908 0.49698 0.08403 0.0
C88 C 0.96568 0.47062 0.03705 0.0
C89 C 0.91386 0.35879 0.01452 0.0
H90 H 0.90092 0.31773 0.03869 0.0
H91 H 0.95893 0.34678 0.99486 0.0
H92 H 0.87347 0.36526 0.98837 0.0
O93 O 0.7549 0.42525 0.13634 0.0
O94 O 0.79739 0.51499 0.1642 0.0
H95 H 0.02516 0.57815 0.1075 0.0
H96 H 0.07168 0.51006 0.08678 0.0
C97 C 0.02798 0.52545 0.10694 0.0
H98 H 0.03237 0.50948 0.14599 0.0
H99 H 0.83956 0.60308 0.10216 0.0
O100 O 0.80259 0.2839 0.11713 0.0
C101 C 0.74949 0.48188 0.15229 0.0
Co102 Co 0.09082 0.83407 0.1356 0.0
Co103 Co 0.95657 0.88863 0.1668 0.0
C104 C 0.05294 0.89328 0.23926 0.0
O105 O 0.09167 0.86544 0.209 0.0
O106 O -0.003 0.91076 0.22663 0.0
C107 C 0.19879 0.74303 0.11413 0.0
O108 O 0.1547 0.69846 0.1179 0.0
C109 C 0.83098 0.95404 0.17484 0.0
C110 C 0.78337 0.8999 0.11442 0.0
C111 C 0.77597 0.9502 0.1468 0.0
N112 N 0.87092 0.90866 0.15812 0.0
N113 N 0.84205 0.87649 0.12235 0.0
C114 C 0.84607 0.00126 0.21475 0.0
H115 H 0.8957 -0.0054 0.22857 0.0
H116 H 0.84008 0.0507 0.20029 0.0
H117 H 0.81161 -0.0049 0.24567 0.0
C118 C 0.04855 0.92232 0.04511 0.0
N119 N 0.04547 0.89696 0.09141 0.0
N120 N -0.00349 0.92438 0.11293 0.0
C121 C 0.96939 0.96908 0.08402 0.0
C122 C -0.00424 0.96569 0.03705 0.0
C123 C 0.1076 0.91388 0.01453 0.0
H124 H 0.14865 0.90094 0.03871 0.0
H125 H 0.1196 0.95896 0.99488 0.0
H126 H 0.10114 0.87349 0.98838 0.0
O127 O 0.04111 0.75491 0.13636 0.0
O128 O 0.95139 0.79742 0.16425 0.0
H129 H 0.88821 0.02515 0.10749 0.0
H130 H 0.95629 0.07169 0.08678 0.0
C131 C 0.94091 0.02798 0.10693 0.0
H132 H 0.95687 0.03237 0.14598 0.0
H133 H 0.86332 0.83951 0.10221 0.0
O134 O 0.18244 0.80256 0.11712 0.0
C135 C -0.01551 0.74951 0.15234 0.0
Co136 Co 0.1323 0.87554 0.39224 0.0
Co137 Co 0.07771 0.00979 0.36109 0.0
C138 C 0.07317 0.91349 0.28857 0.0
O139 O 0.10095 0.87473 0.31883 0.0
O140 O 0.05568 0.96943 0.30121 0.0
C141 C 0.22329 0.76752 0.4137 0.0
O142 O 0.26788 0.81161 0.40997 0.0
C143 C 0.01226 0.13535 0.35308 0.0
C144 C 0.0662 0.18291 0.41362 0.0
C145 C 0.01595 0.1903 0.3812 0.0
N146 N 0.05763 0.09542 0.36982 0.0
N147 N 0.08968 0.12426 0.40567 0.0
C148 C 0.96516 0.12029 0.31307 0.0
H149 H 0.97183 0.07065 0.29928 0.0
H150 H 0.91568 0.12633 0.32743 0.0
H151 H 0.97147 0.15473 0.28216 0.0
C152 C 0.04407 0.91783 0.48276 0.0
N153 N 0.06938 0.92086 0.43644 0.0
N154 N 0.0419 0.96977 0.41489 0.0
C155 C -0.00279 -0.00311 0.4438 0.0
C156 C 0.00067 0.9706 0.49079 0.0
C157 C 0.05262 0.85884 0.51339 0.0
H158 H 0.06558 0.81777 0.48925 0.0
H159 H 0.00757 0.84682 0.53308 0.0
H160 H 0.09303 0.86539 0.5395 0.0
O161 O 0.21147 0.92525 0.3915 0.0
O162 O 0.1689 0.015 0.36374 0.0
H163 H 0.94104 0.078 0.4203 0.0
H164 H 0.89459 0.00989 0.44108 0.0
C165 C 0.93827 0.0253 0.42089 0.0
H166 H 0.93386 0.00929 0.38186 0.0
H167 H 0.12664 0.10299 0.42584 0.0
O168 O 0.16377 0.78389 0.41069 0.0
C169 C 0.21683 0.98192 0.37562 0.0
Co170 Co 0.59082 0.13232 0.39224 0.0
Co171 Co 0.45659 0.0777 0.36108 0.0
C172 C 0.5529 0.07315 0.28858 0.0
O173 O 0.59165 0.10096 0.31884 0.0
O174 O 0.49696 0.05564 0.30122 0.0
C175 C 0.6988 0.22336 0.41371 0.0
O176 O 0.65471 0.26793 0.40997 0.0
C177 C 0.331 0.01229 0.35308 0.0
C178 C 0.28344 0.06635 0.41357 0.0
C179 C 0.27601 0.01609 0.38115 0.0
N180 N 0.37096 0.05764 0.36981 0.0
N181 N 0.34211 0.08976 0.40564 0.0
C182 C 0.34604 0.96513 0.31312 0.0
H183 H 0.39568 0.97177 0.29931 0.0
H184 H 0.34001 0.91566 0.32753 0.0
H185 H 0.31159 0.97138 0.28221 0.0
C186 C 0.54854 0.04409 0.48275 0.0
N187 N 0.5455 0.06941 0.43644 0.0
N188 N 0.49659 0.04193 0.4149 0.0
C189 C 0.46948 -0.00277 0.44381 0.0
C190 C 0.49578 0.00068 0.49079 0.0
C191 C 0.60754 0.05263 0.51338 0.0
H192 H 0.64861 0.06559 0.48923 0.0
H193 H 0.61956 0.00758 0.53306 0.0
H194 H 0.60101 0.09304 0.5395 0.0
O195 O 0.5411 0.21148 0.39148 0.0
O196 O 0.45138 0.1689 0.36369 0.0
H197 H 0.38836 0.94108 0.42031 0.0
H198 H 0.45646 0.89461 0.44108 0.0
C199 C 0.44106 0.93829 0.4209 0.0
H200 H 0.45706 0.93389 0.38186 0.0
H201 H 0.36341 0.12671 0.42579 0.0
O202 O 0.68245 0.16383 0.4107 0.0
C203 C 0.48445 0.21684 0.37557 0.0
Co204 Co 0.33403 0.59081 0.39224 0.0
Co205 Co 0.38869 0.4566 0.36106 0.0
C206 C 0.39324 0.55293 0.28857 0.0
O207 O 0.3654 0.59165 0.31883 0.0
O208 O 0.41078 0.497 0.30121 0.0
C209 C 0.24301 0.6988 0.41369 0.0
O210 O 0.19843 0.65472 0.40991 0.0
C211 C 0.45409 0.33101 0.35304 0.0
C212 C 0.39999 0.28343 0.41349 0.0
C213 C 0.45026 0.27601 0.38109 0.0
N214 N 0.40873 0.37097 0.36977 0.0
N215 N 0.37659 0.34211 0.40557 0.0
C216 C 0.50128 0.34607 0.3131 0.0
H217 H 0.49464 0.39571 0.29929 0.0
H218 H 0.55073 0.34005 0.32754 0.0
H219 H 0.49507 0.31161 0.28219 0.0
C220 C 0.42228 0.54855 0.48275 0.0
N221 N 0.39695 0.5455 0.43644 0.0
N222 N 0.42443 0.49658 0.4149 0.0
C223 C 0.46913 0.46947 0.44381 0.0
C224 C 0.46569 0.49578 0.49079 0.0
C225 C 0.41376 0.60756 0.51336 0.0
H226 H 0.40079 0.64862 0.4892 0.0
H227 H 0.45881 0.61959 0.53303 0.0
H228 H 0.37336 0.60104 0.53949 0.0
O229 O 0.25488 0.54107 0.39147 0.0
O230 O 0.29749 0.45139 0.36363 0.0
H231 H 0.52525 0.38833 0.42033 0.0
H232 H 0.57175 0.45643 0.44108 0.0
C233 C 0.52806 0.44103 0.4209 0.0
H234 H 0.53246 0.45702 0.38186 0.0
H235 H 0.33963 0.3634 0.42572 0.0
O236 O 0.30253 0.68244 0.4107 0.0
C237 C 0.24954 0.48442 0.37553 0.0
Co238 Co 0.87551 0.3341 0.39225 0.0
Co239 Co 0.0098 0.3886 0.36106 0.0
C240 C 0.91344 0.39322 0.28858 0.0
O241 O 0.87468 0.36544 0.31884 0.0
O242 O 0.96939 0.41069 0.30121 0.0
C243 C 0.76752 0.24309 0.41371 0.0
O244 O 0.8116 0.19851 0.40996 0.0
C245 C 0.13538 0.45401 0.35301 0.0
C246 C 0.183 0.39991 0.41344 0.0
C247 C 0.19039 0.45019 0.38104 0.0
N248 N 0.09545 0.40863 0.36974 0.0
N249 N 0.12433 0.37648 0.40552 0.0
C250 C 0.12028 0.5012 0.31307 0.0
H251 H 0.07064 0.49454 0.29928 0.0
H252 H 0.12629 0.55065 0.32752 0.0
H253 H 0.15473 0.49501 0.28215 0.0
C254 C 0.9178 0.42235 0.48274 0.0
N255 N 0.92087 0.39699 0.43644 0.0
N256 N 0.96985 0.42439 0.41492 0.0
C257 C -0.00302 0.46908 0.44383 0.0
C258 C 0.97061 0.4657 0.49079 0.0
C259 C 0.85874 0.41393 0.51331 0.0
H260 H 0.81769 0.401 0.48913 0.0
H261 H 0.84676 0.45901 0.53296 0.0
H262 H 0.86519 0.37353 0.53946 0.0
O263 O 0.9252 0.25493 0.39153 0.0
O264 O 0.01495 0.29738 0.36367 0.0
H265 H 0.07818 0.52512 0.42037 0.0
H266 H 0.01011 0.57168 0.44107 0.0
C267 C 0.02548 0.52797 0.42092 0.0
H268 H 0.00952 0.53237 0.38187 0.0
H269 H 0.10306 0.33952 0.42568 0.0
O270 O 0.78387 0.30262 0.41072 0.0
C271 C 0.98183 0.2495 0.37558 0.0
Co272 Co 0.33403 0.87558 0.89224 0.0
Co273 Co 0.3887 0.00979 0.86108 0.0
C274 C 0.39325 0.91347 0.78858 0.0
O275 O 0.36542 0.87474 0.81884 0.0
O276 O 0.41077 0.96941 0.80122 0.0
C277 C 0.24301 0.76759 0.91371 0.0
O278 O 0.19843 0.81167 0.90996 0.0
C279 C 0.45415 0.13535 0.85309 0.0
C280 C 0.40014 0.18291 0.91358 0.0
C281 C 0.45042 0.19031 0.88119 0.0
N282 N 0.40878 0.09541 0.86981 0.0
N283 N 0.37668 0.12426 0.90563 0.0
C284 C 0.50129 0.12029 0.81311 0.0
H285 H 0.49464 0.07065 0.79931 0.0
H286 H 0.55076 0.12632 0.8275 0.0
H287 H 0.49502 0.15474 0.78219 0.0
C288 C 0.42222 0.91788 0.98278 0.0
N289 N 0.39694 0.9209 0.93645 0.0
N290 N 0.42446 0.96978 0.9149 0.0
C291 C 0.46915 -0.00311 0.94382 0.0
C292 C 0.46565 0.97063 0.99081 0.0
C293 C 0.41362 0.85891 1.01342 0.0
H294 H 0.4006 0.81784 0.98929 0.0
H295 H 0.45866 0.84684 0.0331 0.0
H296 H 0.37323 0.86551 0.03955 0.0
O297 O 0.25487 0.92532 0.89146 0.0
O298 O 0.29751 0.01501 0.86367 0.0
H299 H 0.52534 0.07799 0.92032 0.0
H300 H 0.57177 0.00988 0.94113 0.0
C301 C 0.52811 0.02528 0.92092 0.0
H302 H 0.53253 0.00926 0.88189 0.0
H303 H 0.3397 0.10299 0.92578 0.0
O304 O 0.30254 0.78395 0.9107 0.0
C305 C 0.24955 0.98198 0.87554 0.0
Co306 Co 0.59087 0.3341 0.89225 0.0
Co307 Co 0.45658 0.38861 0.86108 0.0
C308 C 0.55292 0.39323 0.78859 0.0
O309 O 0.59169 0.36545 0.81885 0.0
O310 O 0.49697 0.41068 0.80123 0.0
C311 C 0.69886 0.24309 0.91374 0.0
O312 O 0.65477 0.19851 0.91001 0.0
C313 C 0.33103 0.45407 0.85305 0.0
C314 C 0.28342 0.40006 0.91353 0.0
C315 C 0.27606 0.45036 0.88115 0.0
N316 N 0.37094 0.40867 0.86978 0.0
N317 N 0.34206 0.37657 0.90559 0.0
C318 C 0.34612 0.50121 0.81308 0.0
H319 H 0.39576 0.49454 0.79929 0.0
H320 H 0.3401 0.55068 0.82748 0.0
H321 H 0.31169 0.49496 0.78216 0.0
C322 C 0.54854 0.42229 0.98276 0.0
N323 N 0.54551 0.39698 0.93645 0.0
N324 N 0.49656 0.42441 0.91491 0.0
C325 C 0.46943 0.4691 0.94383 0.0
C326 C 0.49575 0.46566 0.99081 0.0
C327 C 0.60755 0.41379 1.01337 0.0
H328 H 0.64862 0.40081 0.98922 0.0
H329 H 0.61958 0.45885 0.03304 0.0
H330 H 0.60103 0.3734 0.03951 0.0
O331 O 0.54119 0.25492 0.89151 0.0
O332 O 0.45141 0.2974 0.86371 0.0
H333 H 0.38827 0.5252 0.92036 0.0
H334 H 0.45635 0.57171 0.94112 0.0
C335 C 0.44097 0.52802 0.92094 0.0
H336 H 0.45696 0.53244 0.8819 0.0
H337 H 0.36332 0.33959 0.92574 0.0
O338 O 0.68251 0.30262 0.91071 0.0
C339 C 0.48454 0.24951 0.8756 0.0
Co340 Co 0.13231 0.59085 0.89225 0.0
Co341 Co 0.07777 0.45659 0.86106 0.0
C342 C 0.07314 0.55295 0.78858 0.0
O343 O 0.10095 0.59169 0.81884 0.0
O344 O 0.05567 0.49701 0.80122 0.0
C345 C 0.2233 0.69886 0.91371 0.0
O346 O 0.26789 0.65478 0.90995 0.0
C347 C 0.01232 0.33104 0.85301 0.0
C348 C 0.06637 0.28341 0.91345 0.0
C349 C 0.01605 0.27605 0.88109 0.0
N350 N 0.05772 0.37095 0.86973 0.0
N351 N 0.08984 0.34206 0.90552 0.0
C352 C 0.96515 0.34615 0.81306 0.0
H353 H 0.97182 0.39579 0.79927 0.0
H354 H 0.91569 0.34014 0.82749 0.0
H355 H 0.97136 0.31171 0.78214 0.0
C356 C 0.0441 0.54855 0.98276 0.0
N357 N 0.06942 0.5455 0.93644 0.0
N358 N 0.04199 0.49654 0.91492 0.0
C359 C -0.00269 0.46942 0.94383 0.0
C360 C 0.00073 0.49575 0.99081 0.0
C361 C 0.05259 0.60757 1.01336 0.0
H362 H 0.06557 0.64863 0.9892 0.0
H363 H 0.00752 0.6196 0.03301 0.0
H364 H 0.09297 0.60106 0.03951 0.0
O365 O 0.21148 0.54115 0.8915 0.0
O366 O 0.16897 0.45141 0.86365 0.0
H367 H 0.94123 0.38824 0.92037 0.0
H368 H 0.8947 0.45632 0.94112 0.0
C369 C 0.9384 0.44094 0.92094 0.0
H370 H 0.93398 0.45692 0.88189 0.0
H371 H 0.12683 0.36331 0.92567 0.0
O372 O 0.16378 0.6825 0.91071 0.0
C373 C 0.21688 0.48452 0.87555 0.0
Co374 Co 0.87555 0.13233 0.89225 0.0
Co375 Co 0.00979 0.07776 0.86105 0.0
C376 C 0.91342 0.07312 0.78859 0.0
O377 O 0.8747 0.10096 0.81885 0.0
O378 O 0.96936 0.05563 0.80122 0.0
C379 C 0.76758 0.22337 0.91372 0.0
O380 O 0.81167 0.26795 0.90995 0.0
C381 C 0.13538 0.01235 0.85301 0.0
C382 C 0.18301 0.06652 0.9134 0.0
C383 C 0.1904 0.0162 0.88104 0.0
N384 N 0.09544 0.05774 0.86972 0.0
N385 N 0.12433 0.08992 0.90548 0.0
C386 C 0.12028 0.96511 0.81311 0.0
H387 H 0.07065 0.97176 0.79931 0.0
H388 H 0.12628 0.91567 0.82759 0.0
H389 H 0.15473 0.97126 0.78219 0.0
C390 C 0.91784 0.04412 0.98275 0.0
N391 N 0.9209 0.06945 0.93645 0.0
N392 N 0.96986 0.04202 0.91492 0.0
C393 C -0.00302 -0.00267 0.94384 0.0
C394 C 0.97063 0.00075 0.99081 0.0
C395 C 0.85881 0.0526 1.01334 0.0
H396 H 0.81776 0.06558 0.98918 0.0
H397 H 0.84678 0.00752 0.03299 0.0
H398 H 0.8653 0.09298 0.0395 0.0
O399 O 0.92526 0.2115 0.89148 0.0
O400 O 0.01497 0.16897 0.8636 0.0
H401 H 0.07817 0.94127 0.92038 0.0
H402 H 0.0101 0.89472 0.94112 0.0
C403 C 0.02547 0.93842 0.92094 0.0
H404 H 0.0095 0.93401 0.8819 0.0
H405 H 0.10306 0.12691 0.92562 0.0
O406 O 0.78393 0.16384 0.91073 0.0
C407 C 0.98188 0.21688 0.8755 0.0
Co408 Co 0.83406 0.09085 0.6356 0.0
Co409 Co 0.88866 0.95661 0.66676 0.0
C410 C 0.8932 0.05291 0.73928 0.0
O411 O 0.86541 0.09167 0.70902 0.0
O412 O 0.91069 -0.00303 0.72663 0.0
C413 C 0.74307 0.19887 0.61414 0.0
O414 O 0.69849 0.15479 0.61788 0.0
C415 C 0.95412 0.83106 0.67477 0.0
C416 C 0.90014 0.78348 0.61426 0.0
C417 C 0.95041 0.77609 0.64666 0.0
N418 N 0.90874 0.87098 0.65803 0.0
N419 N 0.87667 0.84213 0.62219 0.0
C420 C 0.00123 0.84613 0.71476 0.0
H421 H -0.00542 0.89577 0.72854 0.0
H422 H 0.05071 0.84008 0.70039 0.0
H423 H -0.00506 0.8117 0.74568 0.0
C424 C 0.92225 0.04854 0.54508 0.0
N425 N 0.89697 0.04553 0.59141 0.0
N426 N 0.92447 -0.00337 0.61296 0.0
C427 C 0.96915 0.9695 0.58403 0.0
C428 C 0.96565 -0.00422 0.53704 0.0
C429 C 0.91366 0.10751 0.51443 0.0
H430 H 0.90066 0.14859 0.53857 0.0
H431 H 0.9587 0.11956 0.49475 0.0
H432 H 0.87327 0.10092 0.48831 0.0
O433 O 0.75489 0.04115 0.63636 0.0
O434 O 0.79747 0.9514 0.66411 0.0
H435 H 0.02531 0.88839 0.60752 0.0
H436 H 0.07176 0.95648 0.58672 0.0
C437 C 0.0281 0.94109 0.60692 0.0
H438 H 0.03253 0.95711 0.64596 0.0
H439 H 0.83971 0.8634 0.60204 0.0
O440 O 0.80259 0.1825 0.61716 0.0
C441 C 0.74953 -0.01552 0.65224 0.0
Co442 Co 0.37555 0.83406 0.63561 0.0
Co443 Co 0.50978 0.8887 0.66677 0.0
C444 C 0.41347 0.89325 0.73927 0.0
O445 O 0.37472 0.86544 0.70901 0.0
O446 O 0.4694 0.91076 0.72662 0.0
C447 C 0.26757 0.74303 0.61413 0.0
O448 O 0.31166 0.69846 0.61788 0.0
C449 C 0.63536 0.95412 0.67476 0.0
C450 C 0.68294 0.90003 0.61431 0.0
C451 C 0.69036 0.9503 0.64671 0.0
N452 N 0.59541 0.90876 0.65804 0.0
N453 N 0.62426 0.87662 0.62223 0.0
C454 C 0.6203 0.0013 0.71471 0.0
H455 H 0.57066 -0.00533 0.72851 0.0
H456 H 0.62635 0.05076 0.70029 0.0
H457 H 0.65474 -0.00494 0.74563 0.0
C458 C 0.41785 0.92226 0.54508 0.0
N459 N 0.42087 0.89697 0.59141 0.0
N460 N 0.46977 0.92447 0.61295 0.0
C461 C 0.49689 0.96915 0.58403 0.0
C462 C 0.47061 0.96567 0.53704 0.0
C463 C 0.35887 0.91368 0.51444 0.0
H464 H 0.3178 0.90068 0.53858 0.0
H465 H 0.34682 0.95873 0.49477 0.0
H466 H 0.36544 0.87329 0.48832 0.0
O467 O 0.42526 0.7549 0.63638 0.0
O468 O 0.51498 0.79751 0.66416 0.0
H469 H 0.57802 0.0253 0.60751 0.0
H470 H 0.50993 0.07177 0.58671 0.0
C471 C 0.52531 0.0281 0.60692 0.0
H472 H 0.5093 0.03253 0.64595 0.0
H473 H 0.60297 0.83966 0.60208 0.0
O474 O 0.28392 0.80256 0.61715 0.0
C475 C 0.48192 0.74956 0.65228 0.0
Co476 Co 0.63234 0.37559 0.63561 0.0
Co477 Co 0.57767 0.50979 0.66679 0.0
C478 C 0.57312 0.41346 0.73927 0.0
O479 O 0.60097 0.37474 0.70902 0.0
O480 O 0.55558 0.46939 0.72664 0.0
C481 C 0.72336 0.2676 0.61416 0.0
O482 O 0.76794 0.31168 0.61794 0.0
C483 C 0.51227 0.63538 0.67481 0.0
C484 C 0.5664 0.68298 0.61438 0.0
C485 C 0.51612 0.69039 0.64677 0.0
N486 N 0.55763 0.59543 0.65809 0.0
N487 N 0.5898 0.6243 0.6223 0.0
C488 C 0.46506 0.62031 0.71473 0.0
H489 H 0.47169 0.57067 0.72853 0.0
H490 H 0.41561 0.62634 0.70028 0.0
H491 H 0.47126 0.65475 0.74566 0.0
C492 C 0.54413 0.41787 0.54509 0.0
N493 N 0.56943 0.42091 0.59141 0.0
N494 N 0.54194 0.46982 0.61295 0.0
C495 C 0.49725 0.49693 0.58403 0.0
C496 C 0.50073 0.47064 0.53704 0.0
C497 C 0.5527 0.35888 0.51446 0.0
H498 H 0.5657 0.31782 0.53861 0.0
H499 H 0.50764 0.34682 0.4948 0.0
H500 H 0.59308 0.36544 0.48833 0.0
O501 O 0.7115 0.42533 0.63638 0.0
O502 O 0.66887 0.515 0.66422 0.0
H503 H 0.44113 0.57808 0.6075 0.0
H504 H 0.39464 0.50999 0.58672 0.0
C505 C 0.43832 0.52537 0.60692 0.0
H506 H 0.43389 0.50938 0.64595 0.0
H507 H 0.62676 0.60301 0.60216 0.0
O508 O 0.66384 0.28396 0.61715 0.0
C509 C 0.71683 0.48197 0.65233 0.0
Co510 Co 0.09086 0.6323 0.6356 0.0
Co511 Co 0.95658 0.5778 0.66678 0.0
C512 C 0.05293 0.57318 0.73927 0.0
O513 O 0.09168 0.60096 0.70901 0.0
O514 O -0.00302 0.5557 0.72663 0.0
C515 C 0.19885 0.72331 0.61413 0.0
O516 O 0.15477 0.76789 0.61789 0.0
C517 C 0.831 0.51238 0.67484 0.0
C518 C 0.78336 0.56651 0.61444 0.0
C519 C 0.77597 0.51621 0.64682 0.0
N520 N 0.87092 0.55777 0.65812 0.0
N521 N 0.84203 0.58993 0.62234 0.0
C522 C 0.8461 0.46517 0.71476 0.0
H523 H 0.89575 0.47181 0.72855 0.0
H524 H 0.84009 0.41572 0.7003 0.0
H525 H 0.81167 0.47135 0.74569 0.0
C526 C 0.04855 0.54409 0.5451 0.0
N527 N 0.04549 0.56942 0.59141 0.0
N528 N -0.00348 0.54201 0.61293 0.0
C529 C 0.96939 0.49733 0.58401 0.0
C530 C -0.00426 0.50074 0.53704 0.0
C531 C 0.10758 0.55255 0.51451 0.0
H532 H 0.14863 0.56552 0.53868 0.0
H533 H 0.1196 0.50747 0.49487 0.0
H534 H 0.1011 0.59293 0.48836 0.0
O535 O 0.04117 0.71148 0.63633 0.0
O536 O 0.95142 0.66901 0.66418 0.0
H537 H 0.88818 0.44129 0.60746 0.0
H538 H 0.95623 0.39473 0.58673 0.0
C539 C 0.94088 0.43844 0.6069 0.0
H540 H 0.95685 0.43401 0.64595 0.0
H541 H 0.86329 0.62691 0.6022 0.0
O542 O 0.1825 0.66378 0.61713 0.0
C543 C -0.01546 0.7169 0.65227 0.0
loop_
_geom_bond_atom_site_label_1
_geom_bond_atom_site_label_2
_geom_bond_distance
_geom_bond_site_symmetry_2
_ccdc_geom_bond_type
Co0 O3 1.970 . S
Co0 N17 1.989 . S
Co0 O25 1.967 . S
Co0 O32 1.920 . S
Co1 O4 1.966 . S
Co1 N10 2.022 . S
Co1 N18 1.993 1_565 S
Co1 O26 1.941 . S
C2 O3 1.258 . S
C2 O4 1.263 1_545 S
O3 Co0 1.970 . S
O3 C2 1.258 . S
O4 Co1 1.966 . S
O4 C2 1.263 1_565 S
C5 O6 1.235 . S
C5 O32 1.289 . S
O6 C5 1.235 . S
C7 C9 1.400 . S
C7 N10 1.351 . S
C7 C12 1.501 . S
C8 C9 1.387 . S
C8 N11 1.341 . S
C9 C7 1.400 . S
C9 C8 1.387 . S
N10 Co1 2.022 . S
N10 C7 1.351 . S
N10 N11 1.365 . S
N11 C8 1.341 . S
N11 N10 1.365 . S
N11 H31 0.862 . S
C12 C7 1.501 . S
C12 H13 0.961 . S
C12 H14 0.961 . S
C12 H15 0.960 . S
H13 C12 0.961 . S
H14 C12 0.961 . S
H15 C12 0.960 . S
C16 N17 1.342 . S
C16 C20 1.401 . S
C16 C21 1.499 . S
N17 Co0 1.989 . S
N17 C16 1.342 . S
N17 N18 1.388 . S
N18 Co1 1.993 1_545 S
N18 N17 1.388 . S
N18 C19 1.346 1_545 S
C19 N18 1.346 1_565 S
C19 C20 1.396 1_565 S
C19 C29 1.510 . S
C20 C16 1.401 . S
C20 C19 1.396 1_545 S
C21 C16 1.499 . S
C21 H22 0.959 . S
C21 H23 0.960 . S
C21 H24 0.961 1_554 S
H22 C21 0.959 . S
H23 C21 0.960 . S
H24 C21 0.961 1_556 S
O25 Co0 1.967 . S
O25 C33 1.258 1_545 S
O26 Co1 1.941 . S
O26 C33 1.266 . S
H27 C29 0.959 . S
H28 C29 0.961 . S
C29 C19 1.510 . S
C29 H27 0.959 . S
C29 H28 0.961 . S
C29 H30 0.960 . S
H30 C29 0.960 . S
H31 N11 0.862 . S
O32 Co0 1.920 . S
O32 C5 1.289 . S
C33 O25 1.258 1_565 S
C33 O26 1.266 . S
Co34 O37 1.970 . S
Co34 N51 1.989 . S
Co34 O59 1.967 . S
Co34 O66 1.920 . S
Co35 O38 1.966 . S
Co35 N44 2.022 . S
Co35 N52 1.993 . S
Co35 O60 1.941 . S
C36 O37 1.258 . S
C36 O38 1.263 . S
O37 Co34 1.970 . S
O37 C36 1.258 . S
O38 Co35 1.966 . S
O38 C36 1.263 . S
C39 O40 1.235 . S
C39 O66 1.289 . S
O40 C39 1.235 . S
C41 C43 1.400 . S
C41 N44 1.351 . S
C41 C46 1.501 . S
C42 C43 1.387 . S
C42 N45 1.341 . S
C43 C41 1.400 . S
C43 C42 1.387 . S
N44 Co35 2.022 . S
N44 C41 1.351 . S
N44 N45 1.365 . S
N45 C42 1.341 . S
N45 N44 1.365 . S
N45 H65 0.862 . S
C46 C41 1.501 . S
C46 H47 0.961 . S
C46 H48 0.961 . S
C46 H49 0.960 . S
H47 C46 0.961 . S
H48 C46 0.961 . S
H49 C46 0.960 . S
C50 N51 1.342 . S
C50 C54 1.401 . S
C50 C55 1.499 . S
N51 Co34 1.989 . S
N51 C50 1.342 . S
N51 N52 1.388 . S
N52 Co35 1.993 . S
N52 N51 1.388 . S
N52 C53 1.346 . S
C53 N52 1.346 . S
C53 C54 1.396 . S
C53 C63 1.510 . S
C54 C50 1.401 . S
C54 C53 1.396 . S
C55 C50 1.499 . S
C55 H56 0.959 . S
C55 H57 0.960 . S
C55 H58 0.961 1_554 S
H56 C55 0.959 . S
H57 C55 0.960 . S
H58 C55 0.961 1_556 S
O59 Co34 1.967 . S
O59 C67 1.258 . S
O60 Co35 1.941 . S
O60 C67 1.266 . S
H61 C63 0.959 . S
H62 C63 0.961 . S
C63 C53 1.510 . S
C63 H61 0.959 . S
C63 H62 0.961 . S
C63 H64 0.960 . S
H64 C63 0.960 . S
H65 N45 0.862 . S
O66 Co34 1.920 . S
O66 C39 1.289 . S
C67 O59 1.258 . S
C67 O60 1.266 . S
Co68 O71 1.970 . S
Co68 N85 1.989 . S
Co68 O93 1.967 . S
Co68 O100 1.920 . S
Co69 O72 1.966 . S
Co69 N78 2.022 . S
Co69 N86 1.993 . S
Co69 O94 1.941 . S
C70 O71 1.258 . S
C70 O72 1.263 . S
O71 Co68 1.970 . S
O71 C70 1.258 . S
O72 Co69 1.966 . S
O72 C70 1.263 . S
C73 O74 1.235 . S
C73 O100 1.289 . S
O74 C73 1.235 . S
C75 C77 1.400 1_655 S
C75 N78 1.351 . S
C75 C80 1.501 1_655 S
C76 C77 1.387 1_655 S
C76 N79 1.341 . S
C77 C75 1.400 1_455 S
C77 C76 1.387 1_455 S
N78 Co69 2.022 . S
N78 C75 1.351 . S
N78 N79 1.365 . S
N79 C76 1.341 . S
N79 N78 1.365 . S
N79 H99 0.862 . S
C80 C75 1.501 1_455 S
C80 H81 0.961 1_455 S
C80 H82 0.961 . S
C80 H83 0.960 . S
H81 C80 0.961 1_655 S
H82 C80 0.961 . S
H83 C80 0.960 . S
C84 N85 1.342 . S
C84 C88 1.401 . S
C84 C89 1.499 . S
N85 Co68 1.989 . S
N85 C84 1.342 . S
N85 N86 1.388 . S
N86 Co69 1.993 . S
N86 N85 1.388 . S
N86 C87 1.346 . S
C87 N86 1.346 . S
C87 C88 1.396 . S
C87 C97 1.510 1_655 S
C88 C84 1.401 . S
C88 C87 1.396 . S
C89 C84 1.499 . S
C89 H90 0.959 . S
C89 H91 0.960 . S
C89 H92 0.961 1_554 S
H90 C89 0.959 . S
H91 C89 0.960 . S
H92 C89 0.961 1_556 S
O93 Co68 1.967 . S
O93 C101 1.258 . S
O94 Co69 1.941 . S
O94 C101 1.266 . S
H95 C97 0.959 1_655 S
H96 C97 0.961 . S
C97 C87 1.510 1_455 S
C97 H95 0.959 1_455 S
C97 H96 0.961 . S
C97 H98 0.960 1_455 S
H98 C97 0.960 1_655 S
H99 N79 0.862 . S
O100 Co68 1.920 . S
O100 C73 1.289 . S
C101 O93 1.258 . S
C101 O94 1.266 . S
Co102 O105 1.970 . S
Co102 N119 1.989 . S
Co102 O127 1.967 . S
Co102 O134 1.920 . S
Co103 O106 1.966 . S
Co103 N112 2.022 . S
Co103 N120 1.993 1_655 S
Co103 O128 1.941 . S
C104 O105 1.258 . S
C104 O106 1.263 1_455 S
O105 Co102 1.970 . S
O105 C104 1.258 . S
O106 Co103 1.966 . S
O106 C104 1.263 1_655 S
C107 O108 1.235 . S
C107 O134 1.289 . S
O108 C107 1.235 . S
C109 C111 1.400 1_565 S
C109 N112 1.351 . S
C109 C114 1.501 1_565 S
C110 C111 1.387 1_565 S
C110 N113 1.341 . S
C111 C109 1.400 1_545 S
C111 C110 1.387 1_545 S
N112 Co103 2.022 . S
N112 C109 1.351 . S
N112 N113 1.365 . S
N113 C110 1.341 . S
N113 N112 1.365 . S
N113 H133 0.862 . S
C114 C109 1.501 1_545 S
C114 H115 0.961 1_545 S
C114 H116 0.961 . S
C114 H117 0.960 . S
H115 C114 0.961 1_565 S
H116 C114 0.961 . S
H117 C114 0.960 . S
C118 N119 1.342 . S
C118 C122 1.401 . S
C118 C123 1.499 . S
N119 Co102 1.989 . S
N119 C118 1.342 . S
N119 N120 1.388 . S
N120 Co103 1.993 1_455 S
N120 N119 1.388 . S
N120 C121 1.346 1_455 S
C121 N120 1.346 1_655 S
C121 C122 1.396 1_655 S
C121 C131 1.510 1_565 S
C122 C118 1.401 . S
C122 C121 1.396 1_455 S
C123 C118 1.499 . S
C123 H124 0.959 . S
C123 H125 0.960 . S
C123 H126 0.961 1_554 S
H124 C123 0.959 . S
H125 C123 0.960 . S
H126 C123 0.961 1_556 S
O127 Co102 1.967 . S
O127 C135 1.258 1_455 S
O128 Co103 1.941 . S
O128 C135 1.266 . S
H129 C131 0.959 1_565 S
H130 C131 0.961 . S
C131 C121 1.510 1_545 S
C131 H129 0.959 1_545 S
C131 H130 0.961 . S
C131 H132 0.960 1_545 S
H132 C131 0.960 1_565 S
H133 N113 0.862 . S
O134 Co102 1.920 . S
O134 C107 1.289 . S
C135 O127 1.258 1_655 S
C135 O128 1.266 . S
Co136 O139 1.970 . S
Co136 N153 1.989 . S
Co136 O161 1.967 . S
Co136 O168 1.920 . S
Co137 O140 1.966 . S
Co137 N146 2.022 . S
Co137 N154 1.993 1_545 S
Co137 O162 1.941 . S
C138 O139 1.258 . S
C138 O140 1.263 1_565 S
O139 Co136 1.970 . S
O139 C138 1.258 . S
O140 Co137 1.966 . S
O140 C138 1.263 1_545 S
C141 O142 1.235 . S
C141 O168 1.289 . S
O142 C141 1.235 . S
C143 C145 1.400 1_455 S
C143 N146 1.351 . S
C143 C148 1.501 1_455 S
C144 C145 1.387 1_455 S
C144 N147 1.341 . S
C145 C143 1.400 1_655 S
C145 C144 1.387 1_655 S
N146 Co137 2.022 . S
N146 C143 1.351 . S
N146 N147 1.365 . S
N147 C144 1.341 . S
N147 N146 1.365 . S
N147 H167 0.862 . S
C148 C143 1.501 1_655 S
C148 H149 0.961 1_655 S
C148 H150 0.961 . S
C148 H151 0.960 . S
H149 C148 0.961 1_455 S
H150 C148 0.961 . S
H151 C148 0.960 . S
C152 N153 1.342 . S
C152 C156 1.401 . S
C152 C157 1.499 . S
N153 Co136 1.989 . S
N153 C152 1.342 . S
N153 N154 1.388 . S
N154 Co137 1.993 1_565 S
N154 N153 1.388 . S
N154 C155 1.346 1_565 S
C155 N154 1.346 1_545 S
C155 C156 1.396 1_545 S
C155 C165 1.510 1_455 S
C156 C152 1.401 . S
C156 C155 1.396 1_565 S
C157 C152 1.499 . S
C157 H158 0.959 . S
C157 H159 0.960 . S
C157 H160 0.961 . S
H158 C157 0.959 . S
H159 C157 0.960 . S
H160 C157 0.961 . S
O161 Co136 1.967 . S
O161 C169 1.258 1_565 S
O162 Co137 1.941 . S
O162 C169 1.266 . S
H163 C165 0.959 1_455 S
H164 C165 0.961 . S
C165 C155 1.510 1_655 S
C165 H163 0.959 1_655 S
C165 H164 0.961 . S
C165 H166 0.960 1_655 S
H166 C165 0.960 1_455 S
H167 N147 0.862 . S
O168 Co136 1.920 . S
O168 C141 1.289 . S
C169 O161 1.258 1_545 S
C169 O162 1.266 . S
Co170 O173 1.970 . S
Co170 N187 1.989 . S
Co170 O195 1.967 . S
Co170 O202 1.920 . S
Co171 O174 1.966 . S
Co171 N180 2.022 . S
Co171 N188 1.993 . S
Co171 O196 1.941 . S
C172 O173 1.258 . S
C172 O174 1.263 . S
O173 Co170 1.970 . S
O173 C172 1.258 . S
O174 Co171 1.966 . S
O174 C172 1.263 . S
C175 O176 1.235 . S
C175 O202 1.289 . S
O176 C175 1.235 . S
C177 C179 1.400 1_545 S
C177 N180 1.351 . S
C177 C182 1.501 1_545 S
C178 C179 1.387 1_545 S
C178 N181 1.341 . S
C179 C177 1.400 1_565 S
C179 C178 1.387 1_565 S
N180 Co171 2.022 . S
N180 C177 1.351 . S
N180 N181 1.365 . S
N181 C178 1.341 . S
N181 N180 1.365 . S
N181 H201 0.862 . S
C182 C177 1.501 1_565 S
C182 H183 0.961 1_565 S
C182 H184 0.961 . S
C182 H185 0.960 . S
H183 C182 0.961 1_545 S
H184 C182 0.961 . S
H185 C182 0.960 . S
C186 N187 1.342 . S
C186 C190 1.401 . S
C186 C191 1.499 . S
N187 Co170 1.989 . S
N187 C186 1.342 . S
N187 N188 1.388 . S
N188 Co171 1.993 . S
N188 N187 1.388 . S
N188 C189 1.346 . S
C189 N188 1.346 . S
C189 C190 1.396 . S
C189 C199 1.510 1_545 S
C190 C186 1.401 . S
C190 C189 1.396 . S
C191 C186 1.499 . S
C191 H192 0.959 . S
C191 H193 0.960 . S
C191 H194 0.961 . S
H192 C191 0.959 . S
H193 C191 0.960 . S
H194 C191 0.961 . S
O195 Co170 1.967 . S
O195 C203 1.258 . S
O196 Co171 1.941 . S
O196 C203 1.266 . S
H197 C199 0.959 1_545 S
H198 C199 0.961 . S
C199 C189 1.510 1_565 S
C199 H197 0.959 1_565 S
C199 H198 0.961 . S
C199 H200 0.960 1_565 S
H200 C199 0.960 1_545 S
H201 N181 0.862 . S
O202 Co170 1.920 . S
O202 C175 1.289 . S
C203 O195 1.258 . S
C203 O196 1.266 . S
Co204 O207 1.970 . S
Co204 N221 1.989 . S
Co204 O229 1.967 . S
Co204 O236 1.920 . S
Co205 O208 1.966 . S
Co205 N214 2.022 . S
Co205 N222 1.993 . S
Co205 O230 1.941 . S
C206 O207 1.258 . S
C206 O208 1.263 . S
O207 Co204 1.970 . S
O207 C206 1.258 . S
O208 Co205 1.966 . S
O208 C206 1.263 . S
C209 O210 1.235 . S
C209 O236 1.289 . S
O210 C209 1.235 . S
C211 C213 1.400 . S
C211 N214 1.351 . S
C211 C216 1.501 . S
C212 C213 1.387 . S
C212 N215 1.341 . S
C213 C211 1.400 . S
C213 C212 1.387 . S
N214 Co205 2.022 . S
N214 C211 1.351 . S
N214 N215 1.365 . S
N215 C212 1.341 . S
N215 N214 1.365 . S
N215 H235 0.862 . S
C216 C211 1.501 . S
C216 H217 0.961 . S
C216 H218 0.961 . S
C216 H219 0.960 . S
H217 C216 0.961 . S
H218 C216 0.961 . S
H219 C216 0.960 . S
C220 N221 1.342 . S
C220 C224 1.401 . S
C220 C225 1.499 . S
N221 Co204 1.989 . S
N221 C220 1.342 . S
N221 N222 1.388 . S
N222 Co205 1.993 . S
N222 N221 1.388 . S
N222 C223 1.346 . S
C223 N222 1.346 . S
C223 C224 1.396 . S
C223 C233 1.510 . S
C224 C220 1.401 . S
C224 C223 1.396 . S
C225 C220 1.499 . S
C225 H226 0.959 . S
C225 H227 0.960 . S
C225 H228 0.961 . S
H226 C225 0.959 . S
H227 C225 0.960 . S
H228 C225 0.961 . S
O229 Co204 1.967 . S
O229 C237 1.258 . S
O230 Co205 1.941 . S
O230 C237 1.266 . S
H231 C233 0.959 . S
H232 C233 0.961 . S
C233 C223 1.510 . S
C233 H231 0.959 . S
C233 H232 0.961 . S
C233 H234 0.960 . S
H234 C233 0.960 . S
H235 N215 0.862 . S
O236 Co204 1.920 . S
O236 C209 1.289 . S
C237 O229 1.258 . S
C237 O230 1.266 . S
Co238 O241 1.970 . S
Co238 N255 1.989 . S
Co238 O263 1.967 . S
Co238 O270 1.920 . S
Co239 O242 1.966 . S
Co239 N248 2.022 . S
Co239 N256 1.993 1_455 S
Co239 O264 1.941 . S
C240 O241 1.258 . S
C240 O242 1.263 1_655 S
O241 Co238 1.970 . S
O241 C240 1.258 . S
O242 Co239 1.966 . S
O242 C240 1.263 1_455 S
C243 O244 1.235 . S
C243 O270 1.289 . S
O244 C243 1.235 . S
C245 C247 1.400 . S
C245 N248 1.351 . S
C245 C250 1.501 . S
C246 C247 1.387 . S
C246 N249 1.341 . S
C247 C245 1.400 . S
C247 C246 1.387 . S
N248 Co239 2.022 . S
N248 C245 1.351 . S
N248 N249 1.365 . S
N249 C246 1.341 . S
N249 N248 1.365 . S
N249 H269 0.862 . S
C250 C245 1.501 . S
C250 H251 0.961 . S
C250 H252 0.961 . S
C250 H253 0.960 . S
H251 C250 0.961 . S
H252 C250 0.961 . S
H253 C250 0.960 . S
C254 N255 1.342 . S
C254 C258 1.401 . S
C254 C259 1.499 . S
N255 Co238 1.989 . S
N255 C254 1.342 . S
N255 N256 1.388 . S
N256 Co239 1.993 1_655 S
N256 N255 1.388 . S
N256 C257 1.346 1_655 S
C257 N256 1.346 1_455 S
C257 C258 1.396 1_455 S
C257 C267 1.510 . S
C258 C254 1.401 . S
C258 C257 1.396 1_655 S
C259 C254 1.499 . S
C259 H260 0.959 . S
C259 H261 0.960 . S
C259 H262 0.961 . S
H260 C259 0.959 . S
H261 C259 0.960 . S
H262 C259 0.961 . S
O263 Co238 1.967 . S
O263 C271 1.258 1_655 S
O264 Co239 1.941 . S
O264 C271 1.266 . S
H265 C267 0.959 . S
H266 C267 0.961 . S
C267 C257 1.510 . S
C267 H265 0.959 . S
C267 H266 0.961 . S
C267 H268 0.960 . S
H268 C267 0.960 . S
H269 N249 0.862 . S
O270 Co238 1.920 . S
O270 C243 1.289 . S
C271 O263 1.258 1_455 S
C271 O264 1.266 . S
Co272 O275 1.970 . S
Co272 N289 1.989 . S
Co272 O297 1.967 . S
Co272 O304 1.920 . S
Co273 O276 1.966 . S
Co273 N282 2.022 . S
Co273 N290 1.993 1_545 S
Co273 O298 1.941 . S
C274 O275 1.258 . S
C274 O276 1.263 1_565 S
O275 Co272 1.970 . S
O275 C274 1.258 . S
O276 Co273 1.966 . S
O276 C274 1.263 1_545 S
C277 O278 1.235 . S
C277 O304 1.289 . S
O278 C277 1.235 . S
C279 C281 1.400 . S
C279 N282 1.351 . S
C279 C284 1.501 . S
C280 C281 1.387 . S
C280 N283 1.341 . S
C281 C279 1.400 . S
C281 C280 1.387 . S
N282 Co273 2.022 . S
N282 C279 1.351 . S
N282 N283 1.365 . S
N283 C280 1.341 . S
N283 N282 1.365 . S
N283 H303 0.862 . S
C284 C279 1.501 . S
C284 H285 0.961 . S
C284 H286 0.961 . S
C284 H287 0.960 . S
H285 C284 0.961 . S
H286 C284 0.961 . S
H287 C284 0.960 . S
C288 N289 1.342 . S
C288 C292 1.401 . S
C288 C293 1.499 . S
N289 Co272 1.989 . S
N289 C288 1.342 . S
N289 N290 1.388 . S
N290 Co273 1.993 1_565 S
N290 N289 1.388 . S
N290 C291 1.346 1_565 S
C291 N290 1.346 1_545 S
C291 C292 1.396 1_545 S
C291 C301 1.510 . S
C292 C288 1.401 . S
C292 C291 1.396 1_565 S
C293 C288 1.499 . S
C293 H294 0.959 . S
C293 H295 0.960 . S
C293 H296 0.961 1_556 S
H294 C293 0.959 . S
H295 C293 0.960 . S
H296 C293 0.961 1_554 S
O297 Co272 1.967 . S
O297 C305 1.258 1_565 S
O298 Co273 1.941 . S
O298 C305 1.266 . S
H299 C301 0.959 . S
H300 C301 0.961 . S
C301 C291 1.510 . S
C301 H299 0.959 . S
C301 H300 0.961 . S
C301 H302 0.960 . S
H302 C301 0.960 . S
H303 N283 0.862 . S
O304 Co272 1.920 . S
O304 C277 1.289 . S
C305 O297 1.258 1_545 S
C305 O298 1.266 . S
Co306 O309 1.970 . S
Co306 N323 1.989 . S
Co306 O331 1.967 . S
Co306 O338 1.920 . S
Co307 O310 1.966 . S
Co307 N316 2.022 . S
Co307 N324 1.993 . S
Co307 O332 1.941 . S
C308 O309 1.258 . S
C308 O310 1.263 . S
O309 Co306 1.970 . S
O309 C308 1.258 . S
O310 Co307 1.966 . S
O310 C308 1.263 . S
C311 O312 1.235 . S
C311 O338 1.289 . S
O312 C311 1.235 . S
C313 C315 1.400 . S
C313 N316 1.351 . S
C313 C318 1.501 . S
C314 C315 1.387 . S
C314 N317 1.341 . S
C315 C313 1.400 . S
C315 C314 1.387 . S
N316 Co307 2.022 . S
N316 C313 1.351 . S
N316 N317 1.365 . S
N317 C314 1.341 . S
N317 N316 1.365 . S
N317 H337 0.862 . S
C318 C313 1.501 . S
C318 H319 0.961 . S
C318 H320 0.961 . S
C318 H321 0.960 . S
H319 C318 0.961 . S
H320 C318 0.961 . S
H321 C318 0.960 . S
C322 N323 1.342 . S
C322 C326 1.401 . S
C322 C327 1.499 . S
N323 Co306 1.989 . S
N323 C322 1.342 . S
N323 N324 1.388 . S
N324 Co307 1.993 . S
N324 N323 1.388 . S
N324 C325 1.346 . S
C325 N324 1.346 . S
C325 C326 1.396 . S
C325 C335 1.510 . S
C326 C322 1.401 . S
C326 C325 1.396 . S
C327 C322 1.499 . S
C327 H328 0.959 . S
C327 H329 0.960 . S
C327 H330 0.961 1_556 S
H328 C327 0.959 . S
H329 C327 0.960 . S
H330 C327 0.961 1_554 S
O331 Co306 1.967 . S
O331 C339 1.258 . S
O332 Co307 1.941 . S
O332 C339 1.266 . S
H333 C335 0.959 . S
H334 C335 0.961 . S
C335 C325 1.510 . S
C335 H333 0.959 . S
C335 H334 0.961 . S
C335 H336 0.960 . S
H336 C335 0.960 . S
H337 N317 0.862 . S
O338 Co306 1.920 . S
O338 C311 1.289 . S
C339 O331 1.258 . S
C339 O332 1.266 . S
Co340 O343 1.970 . S
Co340 N357 1.989 . S
Co340 O365 1.967 . S
Co340 O372 1.920 . S
Co341 O344 1.966 . S
Co341 N350 2.022 . S
Co341 N358 1.993 . S
Co341 O366 1.941 . S
C342 O343 1.258 . S
C342 O344 1.263 . S
O343 Co340 1.970 . S
O343 C342 1.258 . S
O344 Co341 1.966 . S
O344 C342 1.263 . S
C345 O346 1.235 . S
C345 O372 1.289 . S
O346 C345 1.235 . S
C347 C349 1.400 1_455 S
C347 N350 1.351 . S
C347 C352 1.501 1_455 S
C348 C349 1.387 1_455 S
C348 N351 1.341 . S
C349 C347 1.400 1_655 S
C349 C348 1.387 1_655 S
N350 Co341 2.022 . S
N350 C347 1.351 . S
N350 N351 1.365 . S
N351 C348 1.341 . S
N351 N350 1.365 . S
N351 H371 0.862 . S
C352 C347 1.501 1_655 S
C352 H353 0.961 1_655 S
C352 H354 0.961 . S
C352 H355 0.960 . S
H353 C352 0.961 1_455 S
H354 C352 0.961 . S
H355 C352 0.960 . S
C356 N357 1.342 . S
C356 C360 1.401 . S
C356 C361 1.499 . S
N357 Co340 1.989 . S
N357 C356 1.342 . S
N357 N358 1.388 . S
N358 Co341 1.993 . S
N358 N357 1.388 . S
N358 C359 1.346 . S
C359 N358 1.346 . S
C359 C360 1.396 . S
C359 C369 1.510 1_455 S
C360 C356 1.401 . S
C360 C359 1.396 . S
C361 C356 1.499 . S
C361 H362 0.959 . S
C361 H363 0.960 . S
C361 H364 0.961 1_556 S
H362 C361 0.959 . S
H363 C361 0.960 . S
H364 C361 0.961 1_554 S
O365 Co340 1.967 . S
O365 C373 1.258 . S
O366 Co341 1.941 . S
O366 C373 1.266 . S
H367 C369 0.959 1_455 S
H368 C369 0.961 . S
C369 C359 1.510 1_655 S
C369 H367 0.959 1_655 S
C369 H368 0.961 . S
C369 H370 0.960 1_655 S
H370 C369 0.960 1_455 S
H371 N351 0.862 . S
O372 Co340 1.920 . S
O372 C345 1.289 . S
C373 O365 1.258 . S
C373 O366 1.266 . S
Co374 O377 1.970 . S
Co374 N391 1.989 . S
Co374 O399 1.967 . S
Co374 O406 1.920 . S
Co375 O378 1.966 . S
Co375 N384 2.022 . S
Co375 N392 1.993 1_455 S
Co375 O400 1.941 . S
C376 O377 1.258 . S
C376 O378 1.263 1_655 S
O377 Co374 1.970 . S
O377 C376 1.258 . S
O378 Co375 1.966 . S
O378 C376 1.263 1_455 S
C379 O380 1.235 . S
C379 O406 1.289 . S
O380 C379 1.235 . S
C381 C383 1.400 1_545 S
C381 N384 1.351 . S
C381 C386 1.501 1_545 S
C382 C383 1.387 1_545 S
C382 N385 1.341 . S
C383 C381 1.400 1_565 S
C383 C382 1.387 1_565 S
N384 Co375 2.022 . S
N384 C381 1.351 . S
N384 N385 1.365 . S
N385 C382 1.341 . S
N385 N384 1.365 . S
N385 H405 0.862 . S
C386 C381 1.501 1_565 S
C386 H387 0.961 1_565 S
C386 H388 0.961 . S
C386 H389 0.960 . S
H387 C386 0.961 1_545 S
H388 C386 0.961 . S
H389 C386 0.960 . S
C390 N391 1.342 . S
C390 C394 1.401 . S
C390 C395 1.499 . S
N391 Co374 1.989 . S
N391 C390 1.342 . S
N391 N392 1.388 . S
N392 Co375 1.993 1_655 S
N392 N391 1.388 . S
N392 C393 1.346 1_655 S
C393 N392 1.346 1_455 S
C393 C394 1.396 1_455 S
C393 C403 1.510 1_545 S
C394 C390 1.401 . S
C394 C393 1.396 1_655 S
C395 C390 1.499 . S
C395 H396 0.959 . S
C395 H397 0.960 . S
C395 H398 0.961 1_556 S
H396 C395 0.959 . S
H397 C395 0.960 . S
H398 C395 0.961 1_554 S
O399 Co374 1.967 . S
O399 C407 1.258 1_655 S
O400 Co375 1.941 . S
O400 C407 1.266 . S
H401 C403 0.959 1_545 S
H402 C403 0.961 . S
C403 C393 1.510 1_565 S
C403 H401 0.959 1_565 S
C403 H402 0.961 . S
C403 H404 0.960 1_565 S
H404 C403 0.960 1_545 S
H405 N385 0.862 . S
O406 Co374 1.920 . S
O406 C379 1.289 . S
C407 O399 1.258 1_455 S
C407 O400 1.266 . S
Co408 O411 1.970 . S
Co408 N425 1.989 . S
Co408 O433 1.967 . S
Co408 O440 1.920 . S
Co409 O412 1.966 . S
Co409 N418 2.022 . S
Co409 N426 1.993 1_565 S
Co409 O434 1.941 . S
C410 O411 1.258 . S
C410 O412 1.263 1_545 S
O411 Co408 1.970 . S
O411 C410 1.258 . S
O412 Co409 1.966 . S
O412 C410 1.263 1_565 S
C413 O414 1.235 . S
C413 O440 1.289 . S
O414 C413 1.235 . S
C415 C417 1.400 1_655 S
C415 N418 1.351 . S
C415 C420 1.501 1_655 S
C416 C417 1.387 1_655 S
C416 N419 1.341 . S
C417 C415 1.400 1_455 S
C417 C416 1.387 1_455 S
N418 Co409 2.022 . S
N418 C415 1.351 . S
N418 N419 1.365 . S
N419 C416 1.341 . S
N419 N418 1.365 . S
N419 H439 0.862 . S
C420 C415 1.501 1_455 S
C420 H421 0.961 1_455 S
C420 H422 0.961 . S
C420 H423 0.960 . S
H421 C420 0.961 1_655 S
H422 C420 0.961 . S
H423 C420 0.960 . S
C424 N425 1.342 . S
C424 C428 1.401 . S
C424 C429 1.499 . S
N425 Co408 1.989 . S
N425 C424 1.342 . S
N425 N426 1.388 . S
N426 Co409 1.993 1_545 S
N426 N425 1.388 . S
N426 C427 1.346 1_545 S
C427 N426 1.346 1_565 S
C427 C428 1.396 1_565 S
C427 C437 1.510 1_655 S
C428 C424 1.401 . S
C428 C427 1.396 1_545 S
C429 C424 1.499 . S
C429 H430 0.959 . S
C429 H431 0.960 . S
C429 H432 0.961 . S
H430 C429 0.959 . S
H431 C429 0.960 . S
H432 C429 0.961 . S
O433 Co408 1.967 . S
O433 C441 1.258 1_545 S
O434 Co409 1.941 . S
O434 C441 1.266 . S
H435 C437 0.959 1_655 S
H436 C437 0.961 . S
C437 C427 1.510 1_455 S
C437 H435 0.959 1_455 S
C437 H436 0.961 . S
C437 H438 0.960 1_455 S
H438 C437 0.960 1_655 S
H439 N419 0.862 . S
O440 Co408 1.920 . S
O440 C413 1.289 . S
C441 O433 1.258 1_565 S
C441 O434 1.266 . S
Co442 O445 1.970 . S
Co442 N459 1.989 . S
Co442 O467 1.967 . S
Co442 O474 1.920 . S
Co443 O446 1.966 . S
Co443 N452 2.022 . S
Co443 N460 1.993 . S
Co443 O468 1.941 . S
C444 O445 1.258 . S
C444 O446 1.263 . S
O445 Co442 1.970 . S
O445 C444 1.258 . S
O446 Co443 1.966 . S
O446 C444 1.263 . S
C447 O448 1.235 . S
C447 O474 1.289 . S
O448 C447 1.235 . S
C449 C451 1.400 1_565 S
C449 N452 1.351 . S
C449 C454 1.501 1_565 S
C450 C451 1.387 1_565 S
C450 N453 1.341 . S
C451 C449 1.400 1_545 S
C451 C450 1.387 1_545 S
N452 Co443 2.022 . S
N452 C449 1.351 . S
N452 N453 1.365 . S
N453 C450 1.341 . S
N453 N452 1.365 . S
N453 H473 0.862 . S
C454 C449 1.501 1_545 S
C454 H455 0.961 1_545 S
C454 H456 0.961 . S
C454 H457 0.960 . S
H455 C454 0.961 1_565 S
H456 C454 0.961 . S
H457 C454 0.960 . S
C458 N459 1.342 . S
C458 C462 1.401 . S
C458 C463 1.499 . S
N459 Co442 1.989 . S
N459 C458 1.342 . S
N459 N460 1.388 . S
N460 Co443 1.993 . S
N460 N459 1.388 . S
N460 C461 1.346 . S
C461 N460 1.346 . S
C461 C462 1.396 . S
C461 C471 1.510 1_565 S
C462 C458 1.401 . S
C462 C461 1.396 . S
C463 C458 1.499 . S
C463 H464 0.959 . S
C463 H465 0.960 . S
C463 H466 0.961 . S
H464 C463 0.959 . S
H465 C463 0.960 . S
H466 C463 0.961 . S
O467 Co442 1.967 . S
O467 C475 1.258 . S
O468 Co443 1.941 . S
O468 C475 1.266 . S
H469 C471 0.959 1_565 S
H470 C471 0.961 . S
C471 C461 1.510 1_545 S
C471 H469 0.959 1_545 S
C471 H470 0.961 . S
C471 H472 0.960 1_545 S
H472 C471 0.960 1_565 S
H473 N453 0.862 . S
O474 Co442 1.920 . S
O474 C447 1.289 . S
C475 O467 1.258 . S
C475 O468 1.266 . S
Co476 O479 1.970 . S
Co476 N493 1.989 . S
Co476 O501 1.967 . S
Co476 O508 1.920 . S
Co477 O480 1.966 . S
Co477 N486 2.022 . S
Co477 N494 1.993 . S
Co477 O502 1.941 . S
C478 O479 1.258 . S
C478 O480 1.263 . S
O479 Co476 1.970 . S
O479 C478 1.258 . S
O480 Co477 1.966 . S
O480 C478 1.263 . S
C481 O482 1.235 . S
C481 O508 1.289 . S
O482 C481 1.235 . S
C483 C485 1.400 . S
C483 N486 1.351 . S
C483 C488 1.501 . S
C484 C485 1.387 . S
C484 N487 1.341 . S
C485 C483 1.400 . S
C485 C484 1.387 . S
N486 Co477 2.022 . S
N486 C483 1.351 . S
N486 N487 1.365 . S
N487 C484 1.341 . S
N487 N486 1.365 . S
N487 H507 0.862 . S
C488 C483 1.501 . S
C488 H489 0.961 . S
C488 H490 0.961 . S
C488 H491 0.960 . S
H489 C488 0.961 . S
H490 C488 0.961 . S
H491 C488 0.960 . S
C492 N493 1.342 . S
C492 C496 1.401 . S
C492 C497 1.499 . S
N493 Co476 1.989 . S
N493 C492 1.342 . S
N493 N494 1.388 . S
N494 Co477 1.993 . S
N494 N493 1.388 . S
N494 C495 1.346 . S
C495 N494 1.346 . S
C495 C496 1.396 . S
C495 C505 1.510 . S
C496 C492 1.401 . S
C496 C495 1.396 . S
C497 C492 1.499 . S
C497 H498 0.959 . S
C497 H499 0.960 . S
C497 H500 0.961 . S
H498 C497 0.959 . S
H499 C497 0.960 . S
H500 C497 0.961 . S
O501 Co476 1.967 . S
O501 C509 1.258 . S
O502 Co477 1.941 . S
O502 C509 1.266 . S
H503 C505 0.959 . S
H504 C505 0.961 . S
C505 C495 1.510 . S
C505 H503 0.959 . S
C505 H504 0.961 . S
C505 H506 0.960 . S
H506 C505 0.960 . S
H507 N487 0.862 . S
O508 Co476 1.920 . S
O508 C481 1.289 . S
C509 O501 1.258 . S
C509 O502 1.266 . S
Co510 O513 1.970 . S
Co510 N527 1.989 . S
Co510 O535 1.967 . S
Co510 O542 1.920 . S
Co511 O514 1.966 . S
Co511 N520 2.022 . S
Co511 N528 1.993 1_655 S
Co511 O536 1.941 . S
C512 O513 1.258 . S
C512 O514 1.263 1_455 S
O513 Co510 1.970 . S
O513 C512 1.258 . S
O514 Co511 1.966 . S
O514 C512 1.263 1_655 S
C515 O516 1.235 . S
C515 O542 1.289 . S
O516 C515 1.235 . S
C517 C519 1.400 . S
C517 N520 1.351 . S
C517 C522 1.501 . S
C518 C519 1.387 . S
C518 N521 1.341 . S
C519 C517 1.400 . S
C519 C518 1.387 . S
N520 Co511 2.022 . S
N520 C517 1.351 . S
N520 N521 1.365 . S
N521 C518 1.341 . S
N521 N520 1.365 . S
N521 H541 0.862 . S
C522 C517 1.501 . S
C522 H523 0.961 . S
C522 H524 0.961 . S
C522 H525 0.960 . S
H523 C522 0.961 . S
H524 C522 0.961 . S
H525 C522 0.960 . S
C526 N527 1.342 . S
C526 C530 1.401 . S
C526 C531 1.499 . S
N527 Co510 1.989 . S
N527 C526 1.342 . S
N527 N528 1.388 . S
N528 Co511 1.993 1_455 S
N528 N527 1.388 . S
N528 C529 1.346 1_455 S
C529 N528 1.346 1_655 S
C529 C530 1.396 1_655 S
C529 C539 1.510 . S
C530 C526 1.401 . S
C530 C529 1.396 1_455 S
C531 C526 1.499 . S
C531 H532 0.959 . S
C531 H533 0.960 . S
C531 H534 0.961 . S
H532 C531 0.959 . S
H533 C531 0.960 . S
H534 C531 0.961 . S
O535 Co510 1.967 . S
O535 C543 1.258 1_455 S
O536 Co511 1.941 . S
O536 C543 1.266 . S
H537 C539 0.959 . S
H538 C539 0.961 . S
C539 C529 1.510 . S
C539 H537 0.959 . S
C539 H538 0.961 . S
C539 H540 0.960 . S
H540 C539 0.960 . S
H541 N521 0.862 . S
O542 Co510 1.920 . S
O542 C515 1.289 . S
C543 O535 1.258 1_655 S
C543 O536 1.266 . S
C9 C67 1.035 . S
C101 C43 1.035 . S
C135 C77 1.035 1_655 S
C111 C33 1.035 1_545 S
C271 C145 1.035 1_455 S
C169 C179 1.035 1_545 S
C203 C213 1.035 . S
C247 C237 1.035 . S
C281 C339 1.035 . S
C315 C373 1.035 . S
C407 C349 1.035 1_455 S
C305 C383 1.035 1_545 S
C543 C417 1.035 1_655 S
C441 C451 1.035 1_565 S
C485 C475 1.035 . S
C519 C509 1.035 . S
C5 C73 3.683 . S
C39 C107 3.683 . S
C209 C141 3.683 . S
C243 C175 3.683 . S
C345 C277 3.683 . S
C311 C379 3.683 . S
C413 C481 3.683 . S
C447 C515 3.683 . S
C20 C292 2.551 1_544 S
C54 C326 2.551 1_554 S
C88 C360 2.551 1_654 S
C394 C122 2.551 1_646 S
C428 C156 2.551 1_645 S
C190 C462 2.551 1_545 S
C224 C496 2.551 . S
C530 C258 2.551 1_455 S
C172 C2 1.842 . S
C206 C36 1.842 . S
C70 C240 1.842 . S
C138 C104 1.842 . S
C274 C444 1.842 . S
C478 C308 1.842 . S
C512 C342 1.842 . S
C376 C410 1.842 . S
