# Generated by pormake.
# Topology uou, (4)-cn, num edge types: 1
# Building blocks:
#     Node 0, Type 0, BuildingBlock: KUFVIS_clean_sbu_0, # of connection points: 4
#     Node 1, Type 0, BuildingBlock: KUFVIS_clean_sbu_0, # of connection points: 4
#     Node 2, Type 0, BuildingBlock: KUFVIS_clean_sbu_0, # of connection points: 4
#     Node 3, Type 0, BuildingBlock: KUFVIS_clean_sbu_0, # of connection points: 4
#     Node 4, Type 0, BuildingBlock: KUFVIS_clean_sbu_0, # of connection points: 4
#     Node 5, Type 0, BuildingBlock: KUFVIS_clean_sbu_0, # of connection points: 4
#     Node 6, Type 0, BuildingBlock: KUFVIS_clean_sbu_0, # of connection points: 4
#     Node 7, Type 0, BuildingBlock: KUFVIS_clean_sbu_0, # of connection points: 4
#     Node 8, Type 0, BuildingBlock: KUFVIS_clean_sbu_0, # of connection points: 4
#     Node 9, Type 0, BuildingBlock: KUFVIS_clean_sbu_0, # of connection points: 4
#     Node 10, Type 0, BuildingBlock: KUFVIS_clean_sbu_0, # of connection points: 4
#     Node 11, Type 0, BuildingBlock: KUFVIS_clean_sbu_0, # of connection points: 4
#     Node 12, Type 0, BuildingBlock: KUFVIS_clean_sbu_0, # of connection points: 4
#     Node 13, Type 0, BuildingBlock: KUFVIS_clean_sbu_0, # of connection points: 4
#     Node 14, Type 0, BuildingBlock: KUFVIS_clean_sbu_0, # of connection points: 4
#     Node 15, Type 0, BuildingBlock: KUFVIS_clean_sbu_0, # of connection points: 4
#     Edge 16, Type (0, 0), BuildingBlock: MIFKUJ_clean_linker_0, # of connection points: 2
#     Edge 17, Type (0, 0), BuildingBlock: MIFKUJ_clean_linker_0, # of connection points: 2
#     Edge 18, Type (0, 0), BuildingBlock: MIFKUJ_clean_linker_0, # of connection points: 2
#     Edge 19, Type (0, 0), BuildingBlock: MIFKUJ_clean_linker_0, # of connection points: 2
#     Edge 20, Type (0, 0), BuildingBlock: MIFKUJ_clean_linker_0, # of connection points: 2
#     Edge 21, Type (0, 0), BuildingBlock: MIFKUJ_clean_linker_0, # of connection points: 2
#     Edge 22, Type (0, 0), BuildingBlock: MIFKUJ_clean_linker_0, # of connection points: 2
#     Edge 23, Type (0, 0), BuildingBlock: MIFKUJ_clean_linker_0, # of connection points: 2
#     Edge 24, Type (0, 0), BuildingBlock: MIFKUJ_clean_linker_0, # of connection points: 2
#     Edge 25, Type (0, 0), BuildingBlock: MIFKUJ_clean_linker_0, # of connection points: 2
#     Edge 26, Type (0, 0), BuildingBlock: MIFKUJ_clean_linker_0, # of connection points: 2
#     Edge 27, Type (0, 0), BuildingBlock: MIFKUJ_clean_linker_0, # of connection points: 2
#     Edge 28, Type (0, 0), BuildingBlock: MIFKUJ_clean_linker_0, # of connection points: 2
#     Edge 29, Type (0, 0), BuildingBlock: MIFKUJ_clean_linker_0, # of connection points: 2
#     Edge 30, Type (0, 0), BuildingBlock: MIFKUJ_clean_linker_0, # of connection points: 2
#     Edge 31, Type (0, 0), BuildingBlock: MIFKUJ_clean_linker_0, # of connection points: 2
#     Edge 32, Type (0, 0), BuildingBlock: MIFKUJ_clean_linker_0, # of connection points: 2
#     Edge 33, Type (0, 0), BuildingBlock: MIFKUJ_clean_linker_0, # of connection points: 2
#     Edge 34, Type (0, 0), BuildingBlock: MIFKUJ_clean_linker_0, # of connection points: 2
#     Edge 35, Type (0, 0), BuildingBlock: MIFKUJ_clean_linker_0, # of connection points: 2
#     Edge 36, Type (0, 0), BuildingBlock: MIFKUJ_clean_linker_0, # of connection points: 2
#     Edge 37, Type (0, 0), BuildingBlock: MIFKUJ_clean_linker_0, # of connection points: 2
#     Edge 38, Type (0, 0), BuildingBlock: MIFKUJ_clean_linker_0, # of connection points: 2
#     Edge 39, Type (0, 0), BuildingBlock: MIFKUJ_clean_linker_0, # of connection points: 2
#     Edge 40, Type (0, 0), BuildingBlock: MIFKUJ_clean_linker_0, # of connection points: 2
#     Edge 41, Type (0, 0), BuildingBlock: MIFKUJ_clean_linker_0, # of connection points: 2
#     Edge 42, Type (0, 0), BuildingBlock: MIFKUJ_clean_linker_0, # of connection points: 2
#     Edge 43, Type (0, 0), BuildingBlock: MIFKUJ_clean_linker_0, # of connection points: 2
#     Edge 44, Type (0, 0), BuildingBlock: MIFKUJ_clean_linker_0, # of connection points: 2
#     Edge 45, Type (0, 0), BuildingBlock: MIFKUJ_clean_linker_0, # of connection points: 2
#     Edge 46, Type (0, 0), BuildingBlock: MIFKUJ_clean_linker_0, # of connection points: 2
#     Edge 47, Type (0, 0), BuildingBlock: MIFKUJ_clean_linker_0, # of connection points: 2
# Relax obj value: 0.048
# Max RMSD: 0.086
# Mean RMSD: 0.086
data_MOF--net-uou--node1-KUFVIS_clean_sbu_0--edge1-MIFKUJ_clean_linker_0
_symmetry_space_group_name_H-M    P1
_symmetry_Int_Tables_number       1
_symmetry_cell_setting            triclinic
loop_
_symmetry_equiv_pos_as_xyz
'x, y, z'
_cell_length_a     49.217425
_cell_length_b     52.711803
_cell_length_c     68.068285
_cell_angle_alpha  90.088841
_cell_angle_beta   90.000629
_cell_angle_gamma 90.106518
loop_
_atom_site_label
_atom_site_type_symbol
_atom_site_fract_x
_atom_site_fract_y
_atom_site_fract_z
_atom_type_partial_charge
Mn0 Mn 0.06653 0.08868 0.11798 0.0
Mn1 Mn 0.05177 0.02933 0.13317 0.0
C2 C 0.05565 0.08101 0.15051 0.0
C3 C 0.05193 0.12772 0.10551 0.0
C4 C 0.10924 0.04723 0.12457 0.0
O5 O 0.05856 0.07013 0.09229 0.0
O6 O 0.04672 0.0318 0.10432 0.0
C7 C 0.99279 0.02869 0.12461 0.0
N8 N 0.01358 0.02633 0.13768 0.0
C9 C 0.9826 0.01593 0.16381 0.0
C10 C 0.96085 0.01819 0.15062 0.0
C11 C 0.96597 0.02468 0.13095 0.0
C12 C 0.00886 0.02029 0.15667 0.0
H13 H 0.99666 0.03356 0.10945 0.0
C14 C 0.05019 0.04732 0.09006 0.0
O15 O 0.07713 0.12064 0.104 0.0
O16 O 0.03527 0.11181 0.11359 0.0
N17 N 0.05558 0.02448 0.16088 0.0
C18 C 0.07871 0.02399 0.17187 0.0
C19 C 0.07705 0.01838 0.192 0.0
C20 C 0.05171 0.01302 0.20054 0.0
C21 C 0.02824 0.01334 0.18887 0.0
C22 C 0.03112 0.01917 0.16893 0.0
H23 H 0.09827 0.02792 0.16535 0.0
O24 O 0.06929 0.10115 0.14574 0.0
O25 O 0.04898 0.06605 0.13615 0.0
O26 O 0.10327 0.07018 0.12028 0.0
O27 O 0.09145 0.03067 0.12932 0.0
C28 C 0.00209 0.0082 0.19626 0.0
C29 C 0.97925 0.00964 0.18378 0.0
H30 H 0.94014 0.01506 0.15545 0.0
H31 H 0.9493 0.02648 0.12068 0.0
H32 H 0.09527 0.01815 0.2009 0.0
H33 H 0.0505 0.00874 0.21608 0.0
H34 H 0.99928 1.00343 0.21159 0.0
H35 H 0.9592 0.00604 0.18974 0.0
Mn36 Mn 0.4336 0.92411 0.11973 0.0
Mn37 Mn 0.44282 0.98264 0.13888 0.0
C38 C 0.44091 0.92846 0.15306 0.0
C39 C 0.45196 0.88752 0.10549 0.0
C40 C 0.38791 0.96242 0.12554 0.0
O41 O 0.44251 0.94575 0.09592 0.0
O42 O 0.45255 0.98311 0.11048 0.0
C43 C 0.50245 0.98842 0.13541 0.0
N44 N 0.4796 0.98839 0.14668 0.0
C45 C 0.50516 0.99954 0.17559 0.0
C46 C 0.52896 0.99982 0.16427 0.0
C47 C 0.5276 0.99421 0.1441 0.0
C48 C 0.48062 0.99403 0.16607 0.0
H49 H 0.50148 0.98403 0.11992 0.0
C50 C 0.45086 0.9687 0.09531 0.0
O51 O 0.42653 0.8934 0.10315 0.0
O52 O 0.46675 0.90331 0.11544 0.0
N53 N 0.43443 0.9845 0.16629 0.0
C54 C 0.41026 0.98028 0.17547 0.0
C55 C 0.40848 0.9833 0.19593 0.0
C56 C 0.43152 0.99069 0.2067 0.0
C57 C 0.45619 0.99491 0.19692 0.0
C58 C 0.45669 0.99179 0.17649 0.0
H59 H 0.39253 0.97447 0.16726 0.0
O60 O 0.42901 0.90841 0.14605 0.0
O61 O 0.448 0.94565 0.14027 0.0
O62 O 0.39539 0.93989 0.12131 0.0
O63 O 0.40422 0.97951 0.13166 0.0
C64 C 0.4805 1.00124 0.20672 0.0
C65 C 0.50496 1.00359 0.19606 0.0
H66 H 0.54845 1.00394 0.17096 0.0
H67 H 0.54591 0.99424 0.1353 0.0
H68 H 0.38941 0.97985 0.20339 0.0
H69 H 0.43014 0.99272 0.22251 0.0
H70 H 0.48074 1.00376 0.22252 0.0
H71 H 0.52363 0.00788 0.20382 0.0
Mn72 Mn 0.56338 0.91388 0.38076 0.0
Mn73 Mn 0.55506 0.97332 0.36313 0.0
C74 C 0.55774 0.92023 0.3474 0.0
C75 C 0.54452 0.87572 0.39217 0.0
C76 C 0.60953 0.95274 0.37665 0.0
O77 O 0.55252 0.93392 0.40516 0.0
O78 O 0.54581 0.97243 0.39155 0.0
C79 C 0.49549 0.97886 0.36727 0.0
N80 N 0.51817 0.97938 0.35582 0.0
C81 C 0.49218 0.99188 0.3275 0.0
C82 C 0.46856 0.99158 0.33902 0.0
C83 C 0.47023 0.98501 0.35898 0.0
C84 C 0.51685 0.98594 0.33664 0.0
H85 H 0.49669 0.97375 0.38261 0.0
C86 C 0.54575 0.9573 0.4063 0.0
O87 O 0.56949 0.88189 0.39622 0.0
O88 O 0.53035 0.89226 0.38261 0.0
N89 N 0.56304 0.97662 0.33575 0.0
C90 C 0.5871 0.97306 0.32626 0.0
C91 C 0.58859 0.97716 0.30591 0.0
C92 C 0.56537 0.98497 0.29556 0.0
C93 C 0.54084 0.98856 0.30566 0.0
C94 C 0.54063 0.98435 0.32597 0.0
H95 H 0.60495 0.96693 0.33415 0.0
O96 O 0.56983 0.90007 0.35388 0.0
O97 O 0.54989 0.93649 0.36065 0.0
O98 O 0.60156 0.93039 0.3812 0.0
O99 O 0.59364 0.96969 0.36988 0.0
C100 C 0.51638 0.9953 0.29626 0.0
C101 C 0.49208 0.99699 0.30718 0.0
H102 H 0.44898 0.996 0.33263 0.0
H103 H 0.45206 0.98461 0.36794 0.0
H104 H 0.60755 0.97421 0.2982 0.0
H105 H 0.56653 0.98784 0.27983 0.0
H106 H 0.51592 0.99865 0.28057 0.0
H107 H 0.4733 1.00163 0.29971 0.0
Mn108 Mn 0.93216 0.07799 0.37455 0.0
Mn109 Mn 0.94364 0.01736 0.36092 0.0
C110 C 0.93588 0.0676 0.34151 0.0
C111 C 0.94932 0.11792 0.38368 0.0
C112 C 0.88855 0.0363 0.37456 0.0
O113 O 0.9453 0.06151 0.39994 0.0
O114 O 0.95461 0.02224 0.38866 0.0
C115 C 0.00373 0.01708 0.36293 0.0
N116 N 0.98042 0.0135 0.3525 0.0
C117 C 0.00547 1.00011 0.32398 0.0
C118 C 0.02976 1.00356 0.33442 0.0
C119 C 0.02888 0.01214 0.35397 0.0
C120 C 0.98103 0.00532 0.33369 0.0
H121 H 0.00311 0.02362 0.37797 0.0
C122 C 0.95398 0.03889 0.40238 0.0
O123 O 0.92477 0.11103 0.38829 0.0
O124 O 0.96393 0.10141 0.37436 0.0
N125 N 0.93404 0.01003 0.33433 0.0
C126 C 0.90887 0.00914 0.32603 0.0
C127 C 0.90616 1.00126 0.30644 0.0
C128 C 0.92931 0.99425 0.2957 0.0
C129 C 0.95503 0.99556 0.30448 0.0
C130 C 0.95644 1.00335 0.3241 0.0
H131 H 0.891 0.01428 0.33431 0.0
O132 O 0.92354 0.08819 0.34693 0.0
O133 O 0.94571 0.05378 0.35561 0.0
O134 O 0.89523 0.05956 0.37702 0.0
O135 O 0.90528 0.0193 0.36893 0.0
C136 C 0.97931 0.98958 0.29455 0.0
C137 C 0.00453 0.99201 0.30425 0.0
H138 H 0.0492 0.99982 0.32755 0.0
H139 H 0.04754 0.01491 0.36212 0.0
H140 H 0.88628 1.00037 0.29968 0.0
H141 H 0.92703 0.98773 0.28079 0.0
H142 H 0.97887 0.98327 0.27941 0.0
H143 H 0.02308 0.98771 0.29637 0.0
Mn144 Mn 0.93463 0.91386 0.87665 0.0
Mn145 Mn 0.94902 0.97302 0.8608 0.0
C146 C 0.94247 0.92131 0.84362 0.0
C147 C 0.94985 0.87487 0.88885 0.0
C148 C 0.89213 0.9559 0.8721 0.0
O149 O 0.94501 0.9324 0.90188 0.0
O150 O 0.95698 0.97034 0.88928 0.0
C151 C 0.00872 0.97195 0.86605 0.0
N152 N 0.98668 0.97526 0.85423 0.0
C153 C 0.01509 0.98549 0.82657 0.0
C154 C 0.0381 0.98227 0.83846 0.0
C155 C 0.03489 0.97539 0.85826 0.0
C156 C 0.98955 0.9816 0.83511 0.0
H157 H 0.00631 0.96676 0.88129 0.0
C158 C 0.95426 0.95495 0.9037 0.0
O159 O 0.9249 0.88223 0.89138 0.0
O160 O 0.96591 0.89039 0.87974 0.0
N161 N 0.94244 0.97839 0.83343 0.0
C162 C 0.9182 0.98017 0.82386 0.0
C163 C 0.91779 0.98712 0.80396 0.0
C164 C 0.94225 0.99244 0.79417 0.0
C165 C 0.96697 0.99043 0.8043 0.0
C166 C 0.96609 0.98357 0.82415 0.0
H167 H 0.8993 0.97649 0.8314 0.0
O168 O 0.92923 0.90125 0.84912 0.0
O169 O 0.95071 0.93624 0.85757 0.0
O170 O 0.89805 0.93281 0.87593 0.0
O171 O 0.90978 0.97232 0.86677 0.0
C172 C 0.99243 0.99505 0.79552 0.0
C173 C 0.01649 0.99232 0.80658 0.0
H174 H 0.05832 0.98498 0.83252 0.0
H175 H 0.05255 0.97283 0.86752 0.0
H176 H 0.89865 0.98859 0.79623 0.0
H177 H 0.94179 0.9981 0.77888 0.0
H178 H 0.99377 1.00055 0.78023 0.0
H179 H 0.03595 0.99558 0.79959 0.0
Mn180 Mn 0.57161 0.08484 0.87727 0.0
Mn181 Mn 0.56036 0.0234 0.86622 0.0
C182 C 0.56684 0.07258 0.84476 0.0
C183 C 0.55373 0.12441 0.886 0.0
C184 C 0.61546 0.04407 0.87871 0.0
O185 O 0.56001 0.06944 0.90339 0.0
O186 O 0.5483 0.03006 0.89357 0.0
C187 C 0.50025 0.0223 0.86724 0.0
N188 N 0.52393 0.01844 0.85734 0.0
C189 C 0.49996 1.00315 0.82887 0.0
C190 C 0.4753 0.00685 0.83878 0.0
C191 C 0.47545 0.01654 0.85803 0.0
C192 C 0.52402 0.00922 0.8388 0.0
H193 H 0.5003 0.02973 0.88203 0.0
C194 C 0.54993 0.0475 0.90666 0.0
O195 O 0.57877 0.11852 0.89 0.0
O196 O 0.53923 0.10725 0.87726 0.0
N197 N 0.57093 0.01463 0.84006 0.0
C198 C 0.59635 0.01369 0.83216 0.0
C199 C 0.59973 0.00492 0.81284 0.0
C200 C 0.57701 0.99708 0.80194 0.0
C201 C 0.55103 0.99838 0.81032 0.0
C202 C 0.54893 0.00713 0.82967 0.0
H203 H 0.61392 0.01946 0.84054 0.0
O204 O 0.57876 0.09381 0.8492 0.0
O205 O 0.5579 0.05938 0.85951 0.0
O206 O 0.60894 0.06751 0.87934 0.0
O207 O 0.59854 0.02637 0.8748 0.0
C208 C 0.52713 0.99145 0.80023 0.0
C209 C 0.5016 0.994 0.80945 0.0
H210 H 0.45613 1.00249 0.83172 0.0
H211 H 0.4565 0.01954 0.86574 0.0
H212 H 0.61982 1.00403 0.80642 0.0
H213 H 0.57981 0.99 0.78719 0.0
H214 H 0.52811 0.98427 0.78535 0.0
H215 H 0.48335 0.989 0.80142 0.0
Mn216 Mn 0.43806 0.0957 0.6211 0.0
Mn217 Mn 0.45239 0.03598 0.63556 0.0
C218 C 0.44651 0.08685 0.65386 0.0
C219 C 0.45347 0.13551 0.61042 0.0
C220 C 0.39537 0.05345 0.62519 0.0
O221 O 0.44826 0.07822 0.59533 0.0
O222 O 0.45937 0.03958 0.60701 0.0
C223 C 0.51189 0.0366 0.62918 0.0
N224 N 0.49025 0.03339 0.64141 0.0
C225 C 0.51953 0.02246 0.6684 0.0
C226 C 0.54213 0.02557 0.65608 0.0
C227 C 0.53829 0.03276 0.63641 0.0
C228 C 0.49374 0.0267 0.6604 0.0
H229 H 0.509 0.042 0.61403 0.0
C230 C 0.45687 0.05553 0.59294 0.0
O231 O 0.42858 0.12823 0.60728 0.0
O232 O 0.46937 0.11934 0.61887 0.0
N233 N 0.44674 0.03004 0.66299 0.0
C234 C 0.42288 0.02873 0.6731 0.0
C235 C 0.42322 0.02237 0.69313 0.0
C236 C 0.44802 0.0171 0.70248 0.0
C237 C 0.47227 0.01825 0.6917 0.0
C238 C 0.47068 0.0248 0.67181 0.0
H239 H 0.40374 0.03257 0.66595 0.0
O240 O 0.43299 0.107 0.64903 0.0
O241 O 0.45437 0.07258 0.63943 0.0
O242 O 0.40135 0.07661 0.62148 0.0
O243 O 0.41302 0.03698 0.63031 0.0
C244 C 0.49796 0.01324 0.69993 0.0
C245 C 0.52159 0.01544 0.68831 0.0
H246 H 0.56252 0.02258 0.66159 0.0
H247 H 0.55563 0.03525 0.62682 0.0
H248 H 0.40441 0.02148 0.70133 0.0
H249 H 0.44821 0.01224 0.71793 0.0
H250 H 0.49981 0.00803 0.71526 0.0
H251 H 0.54126 0.01191 0.6949 0.0
Mn252 Mn 0.07143 0.92809 0.62299 0.0
Mn253 Mn 0.05925 0.9903 0.63061 0.0
C254 C 0.06228 0.94302 0.65443 0.0
C255 C 0.05558 0.88716 0.61547 0.0
C256 C 0.1159 0.96929 0.62515 0.0
O257 O 0.06322 0.94072 0.59532 0.0
O258 O 0.05624 0.98186 0.60239 0.0
C259 C 1.00116 0.99047 0.61929 0.0
N260 N 0.02097 0.99536 0.63277 0.0
C261 C 0.98897 0.01507 0.65462 0.0
C262 C 0.9682 0.01028 0.641 0.0
C263 C 0.97431 0.99778 0.6233 0.0
C264 C 0.01526 0.00698 0.64995 0.0
H265 H 0.00584 0.98124 0.60554 0.0
C266 C 0.0578 0.96343 0.59022 0.0
O267 O 0.08082 0.89349 0.61268 0.0
O268 O 0.03964 0.90468 0.62217 0.0
N269 N 0.06111 1.00156 0.65725 0.0
C270 C 0.08333 1.00405 0.66903 0.0
C271 C 0.08059 0.01573 0.68748 0.0
C272 C 0.05523 0.02531 0.69334 0.0
C273 C 0.03273 0.0227 0.68085 0.0
C274 C 0.03656 0.01044 0.66285 0.0
H275 H 0.10298 0.99724 0.66435 0.0
O276 O 0.0751 0.9218 0.65178 0.0
O277 O 0.05487 0.95485 0.63856 0.0
O278 O 0.10883 0.94616 0.62243 0.0
O279 O 0.09894 0.987 0.62875 0.0
C280 C 0.00673 0.03213 0.68539 0.0
C281 C 0.98476 0.02794 0.67249 0.0
H282 H 0.94752 0.01616 0.64396 0.0
H283 H 0.95842 0.99406 0.61269 0.0
H284 H 0.09805 0.0177 0.69702 0.0
H285 H 0.05331 0.03469 0.70744 0.0
H286 H 0.00354 0.04303 0.69856 0.0
H287 H 0.9648 0.035 0.67635 0.0
Mn288 Mn 0.57216 0.59795 0.11755 0.0
Mn289 Mn 0.55616 0.5397 0.1345 0.0
C290 C 0.56384 0.59206 0.15063 0.0
C291 C 0.55712 0.63645 0.10443 0.0
C292 C 0.61348 0.55519 0.12267 0.0
O293 O 0.5619 0.57851 0.09276 0.0
O294 O 0.54748 0.54169 0.10604 0.0
C295 C 0.49637 0.5417 0.13011 0.0
N296 N 0.51865 0.53834 0.14167 0.0
C297 C 0.49081 0.53 0.17001 0.0
C298 C 0.46755 0.53324 0.15838 0.0
C299 C 0.47035 0.53918 0.13837 0.0
C300 C 0.51619 0.53272 0.16096 0.0
H301 H 0.49847 0.54629 0.11473 0.0
C302 C 0.55129 0.55644 0.09132 0.0
O303 O 0.58215 0.62912 0.10221 0.0
O304 O 0.54102 0.62123 0.11375 0.0
N305 N 0.56338 0.53526 0.16191 0.0
C306 C 0.5878 0.53412 0.17129 0.0
C307 C 0.58858 0.52872 0.19148 0.0
C308 C 0.56429 0.52439 0.20178 0.0
C309 C 0.53939 0.52571 0.19182 0.0
C310 C 0.5399 0.53091 0.17166 0.0
H311 H 0.60656 0.53724 0.16343 0.0
O312 O 0.57746 0.61169 0.14471 0.0
O313 O 0.55551 0.57662 0.13702 0.0
O314 O 0.60848 0.57853 0.11898 0.0
O315 O 0.59519 0.53935 0.12795 0.0
C316 C 0.51408 0.52237 0.20115 0.0
C317 C 0.48981 0.52462 0.19027 0.0
H318 H 0.44744 0.53141 0.16471 0.0
H319 H 0.45249 0.54183 0.12933 0.0
H320 H 0.60787 0.5278 0.19908 0.0
H321 H 0.56499 0.52012 0.21733 0.0
H322 H 0.51305 0.51843 0.21674 0.0
H323 H 0.47047 0.52242 0.19768 0.0
Mn324 Mn 0.93231 0.41988 0.1192 0.0
Mn325 Mn 0.94273 0.48046 0.13358 0.0
C326 C 0.93897 0.42862 0.15222 0.0
C327 C 0.95023 0.38132 0.10802 0.0
C328 C 0.88757 0.4598 0.12114 0.0
O329 O 0.94238 0.43796 0.09382 0.0
O330 O 0.95343 0.47665 0.10556 0.0
C331 C 0.00261 0.4843 0.13088 0.0
N332 N 0.97937 0.48644 0.14159 0.0
C333 C 0.00407 0.50187 0.1697 0.0
C334 C 0.02829 0.49991 0.15895 0.0
C335 C 0.02755 0.49104 0.13947 0.0
C336 C 0.97981 0.49508 0.1603 0.0
H337 H 0.0021 0.47752 0.1159 0.0
C338 C 0.95161 0.46043 0.09156 0.0
O339 O 0.92496 0.38724 0.105 0.0
O340 O 0.96506 0.39801 0.11703 0.0
N341 N 0.93338 0.48664 0.16043 0.0
C342 C 0.90856 0.48532 0.16924 0.0
C343 C 0.90586 0.49276 0.18895 0.0
C344 C 0.92868 0.5015 0.19937 0.0
C345 C 0.95407 0.50242 0.19006 0.0
C346 C 0.95544 0.49512 0.17031 0.0
H347 H 0.89093 0.47879 0.16125 0.0
O348 O 0.92677 0.40798 0.14666 0.0
O349 O 0.94676 0.44379 0.13818 0.0
O350 O 0.89442 0.4366 0.11893 0.0
O351 O 0.90436 0.47715 0.12597 0.0
C352 C 0.97813 0.50995 0.19967 0.0
C353 C 0.00312 0.50962 0.18951 0.0
H354 H 0.04759 0.5049 0.16557 0.0
H355 H 0.04617 0.48938 0.13111 0.0
H356 H 0.88622 0.49189 0.19607 0.0
H357 H 0.92651 0.50737 0.21454 0.0
H358 H 0.97771 0.51564 0.21497 0.0
H359 H 0.02155 0.515 0.19717 0.0
Mn360 Mn 0.06542 0.41379 0.37949 0.0
Mn361 Mn 0.05725 0.47492 0.36568 0.0
C362 C 0.05876 0.42334 0.34658 0.0
C363 C 0.04685 0.37494 0.38973 0.0
C364 C 0.1118 0.45252 0.37711 0.0
O365 O 0.05582 0.43157 0.40521 0.0
O366 O 0.04799 0.47108 0.3939 0.0
C367 C 0.99775 0.4806 0.37018 0.0
N368 N 0.02047 0.48216 0.35883 0.0
C369 C 0.99498 0.49923 0.33174 0.0
C370 C 0.9713 0.49785 0.34315 0.0
C371 C 0.97269 0.48845 0.36244 0.0
C372 C 0.0194 0.49132 0.34029 0.0
H373 H 0.99878 0.47345 0.38503 0.0
C374 C 0.04863 0.45464 0.40774 0.0
O375 O 0.0721 0.38068 0.39312 0.0
O376 O 0.03228 0.39215 0.3812 0.0
N377 N 0.06536 0.48129 0.33868 0.0
C378 C 0.08962 0.47934 0.32917 0.0
C379 C 0.09162 0.48731 0.30956 0.0
C380 C 0.06871 0.49723 0.29998 0.0
C381 C 0.04387 0.49872 0.31 0.0
C382 C 0.04321 0.49084 0.32961 0.0
H383 H 0.10734 0.47193 0.33653 0.0
O384 O 0.07056 0.40242 0.35181 0.0
O385 O 0.05153 0.43843 0.36085 0.0
O386 O 0.10383 0.42972 0.37989 0.0
O387 O 0.09582 0.47036 0.37214 0.0
C388 C 0.01968 0.50737 0.30122 0.0
C389 C 0.99523 0.50756 0.31207 0.0
H390 H 0.9519 0.50373 0.3372 0.0
H391 H 0.95449 0.48728 0.37132 0.0
H392 H 0.11083 0.48598 0.30189 0.0
H393 H 0.07039 0.50355 0.2849 0.0
H394 H 0.01955 0.51353 0.28605 0.0
H395 H 0.97667 0.51382 0.30506 0.0
Mn396 Mn 0.43365 0.57883 0.37243 0.0
Mn397 Mn 0.44776 0.51779 0.36169 0.0
C398 C 0.44372 0.56667 0.34039 0.0
C399 C 0.44858 0.6193 0.38206 0.0
C400 C 0.3906 0.53673 0.36961 0.0
O401 O 0.44241 0.56378 0.39928 0.0
O402 O 0.4536 0.52408 0.39005 0.0
C403 C 0.50684 0.51744 0.36973 0.0
N404 N 0.48574 0.51382 0.35707 0.0
C405 C 0.51554 0.49713 0.33229 0.0
C406 C 0.53762 0.50059 0.34504 0.0
C407 C 0.53327 0.51101 0.36379 0.0
C408 C 0.48979 0.50439 0.33885 0.0
H409 H 0.50348 0.52497 0.38429 0.0
C410 C 0.4508 0.54139 0.4031 0.0
O411 O 0.42351 0.61224 0.38456 0.0
O412 O 0.46491 0.60277 0.37441 0.0
N413 N 0.44319 0.50931 0.33458 0.0
C414 C 0.41984 0.50785 0.32388 0.0
C415 C 0.42087 0.49888 0.30446 0.0
C416 C 0.44575 0.49096 0.29643 0.0
C417 C 0.46942 0.49235 0.30785 0.0
C418 C 0.46726 0.502 0.32694 0.0
H419 H 0.4006 0.5135 0.33011 0.0
O420 O 0.43019 0.58734 0.34379 0.0
O421 O 0.45078 0.55385 0.35578 0.0
O422 O 0.39672 0.56009 0.37218 0.0
O423 O 0.40826 0.51972 0.36585 0.0
C424 C 0.49498 0.48408 0.30119 0.0
C425 C 0.51799 0.48635 0.31345 0.0
H426 H 0.55798 0.49533 0.34059 0.0
H427 H 0.55019 0.51375 0.37373 0.0
H428 H 0.40248 0.4978 0.29577 0.0
H429 H 0.44642 0.48375 0.28153 0.0
H430 H 0.49704 0.47566 0.28676 0.0
H431 H 0.53743 0.47942 0.30843 0.0
Mn432 Mn 0.43765 0.41678 0.88046 0.0
Mn433 Mn 0.45131 0.47465 0.8618 0.0
C434 C 0.44304 0.4218 0.84701 0.0
C435 C 0.45424 0.3785 0.89301 0.0
C436 C 0.39531 0.45889 0.87635 0.0
O437 O 0.45009 0.4369 0.90438 0.0
O438 O 0.46213 0.47374 0.88994 0.0
C439 C 0.51137 0.47377 0.86398 0.0
N440 N 0.48823 0.47627 0.85319 0.0
C441 C 0.51387 0.48346 0.82361 0.0
C442 C 0.53798 0.4811 0.83442 0.0
C443 C 0.53672 0.47618 0.85468 0.0
C444 C 0.48921 0.48098 0.83369 0.0
H445 H 0.51047 0.46992 0.87955 0.0
C446 C 0.46021 0.45924 0.905 0.0
O447 O 0.42952 0.38584 0.89666 0.0
O448 O 0.46925 0.3938 0.88285 0.0
N449 N 0.44205 0.47788 0.8346 0.0
C450 C 0.41699 0.47794 0.8261 0.0
C451 C 0.41471 0.48189 0.80576 0.0
C452 C 0.43817 0.48586 0.79442 0.0
C453 C 0.46374 0.48574 0.80351 0.0
C454 C 0.46474 0.48193 0.82385 0.0
H455 H 0.39889 0.47495 0.83475 0.0
O456 O 0.42997 0.40234 0.85383 0.0
O457 O 0.45234 0.43769 0.85997 0.0
O458 O 0.40105 0.43583 0.88049 0.0
O459 O 0.4128 0.47473 0.86983 0.0
C460 C 0.48829 0.48881 0.79313 0.0
C461 C 0.51334 0.48761 0.80316 0.0
H462 H 0.55757 0.48279 0.82728 0.0
H463 H 0.55524 0.47421 0.8631 0.0
H464 H 0.39492 0.48186 0.79884 0.0
H465 H 0.43633 0.48884 0.77873 0.0
H466 H 0.48817 0.4917 0.7774 0.0
H467 H 0.53209 0.48957 0.79496 0.0
Mn468 Mn 0.07235 0.58518 0.87833 0.0
Mn469 Mn 0.06326 0.52563 0.86107 0.0
C470 C 0.06578 0.57894 0.84505 0.0
C471 C 0.05391 0.62271 0.89098 0.0
C472 C 0.11811 0.54641 0.87406 0.0
O473 O 0.06265 0.56513 0.9028 0.0
O474 O 0.05352 0.52684 0.88947 0.0
C475 C 0.00361 0.52027 0.86476 0.0
N476 N 0.02648 0.51942 0.85352 0.0
C477 C 1.00089 0.50635 0.82511 0.0
C478 C 0.97708 0.50694 0.83641 0.0
C479 C 0.97845 0.51396 0.85631 0.0
C480 C 0.02545 0.51243 0.8344 0.0
H481 H 0.00458 0.52576 0.88004 0.0
C482 C 0.0546 0.54214 0.90413 0.0
O483 O 0.07926 0.61691 0.89379 0.0
O484 O 0.03923 0.6064 0.88146 0.0
N485 N 0.07162 0.52202 0.83377 0.0
C486 C 0.09579 0.52564 0.82442 0.0
C487 C 0.09757 0.5212 0.80412 0.0
C488 C 0.07453 0.51305 0.79367 0.0
C489 C 0.04987 0.50948 0.80361 0.0
C490 C 0.04937 0.51398 0.82389 0.0
H491 H 0.11351 0.53203 0.83239 0.0
O492 O 0.07774 0.59923 0.85155 0.0
O493 O 0.0582 0.56254 0.85833 0.0
O494 O 0.11051 0.56905 0.87788 0.0
O495 O 0.10185 0.52919 0.86809 0.0
C496 C 0.02555 0.50251 0.79409 0.0
C497 C 1.00108 0.50093 0.80483 0.0
H498 H 0.95758 0.50244 0.82989 0.0
H499 H 0.96013 0.51462 0.86509 0.0
H500 H 0.11663 0.52415 0.79652 0.0
H501 H 0.07591 0.50993 0.77797 0.0
H502 H 0.0253 0.49892 0.77842 0.0
H503 H 0.9824 0.49617 0.79725 0.0
Mn504 Mn 0.93669 0.59391 0.61893 0.0
Mn505 Mn 0.94572 0.53458 0.63651 0.0
C506 C 0.94469 0.5878 0.65205 0.0
C507 C 0.95517 0.63169 0.60649 0.0
C508 C 0.89041 0.55565 0.62543 0.0
O509 O 0.94538 0.57369 0.59424 0.0
O510 O 0.95232 0.53514 0.60767 0.0
C511 C 0.00471 0.52853 0.62945 0.0
N512 N 0.98317 0.52832 0.64201 0.0
C513 C 0.0117 0.51597 0.66905 0.0
C514 C 0.03417 0.51594 0.65638 0.0
C515 C 0.03065 0.52227 0.6365 0.0
C516 C 0.98627 0.52201 0.66113 0.0
H517 H 0.0021 0.53345 0.61416 0.0
C518 C 0.95154 0.55021 0.5929 0.0
O519 O 0.92975 0.62591 0.60372 0.0
O520 O 0.96984 0.615 0.61549 0.0
N521 N 0.94031 0.53149 0.66424 0.0
C522 C 0.91717 0.53511 0.67485 0.0
C523 C 0.91757 0.53112 0.69525 0.0
C524 C 0.94168 0.52332 0.70447 0.0
C525 C 0.96521 0.51963 0.69322 0.0
C526 C 0.96355 0.52375 0.67293 0.0
H527 H 0.89863 0.54121 0.66783 0.0
O528 O 0.93244 0.60804 0.6459 0.0
O529 O 0.95149 0.57136 0.63861 0.0
O530 O 0.89835 0.57773 0.62012 0.0
O531 O 0.90663 0.53865 0.6317 0.0
C532 C 0.99046 0.51285 0.70142 0.0
C533 C 0.01368 0.511 0.68934 0.0
H534 H 0.05427 0.51141 0.66181 0.0
H535 H 0.04791 0.5224 0.62665 0.0
H536 H 0.89937 0.53413 0.70385 0.0
H537 H 0.94198 0.52054 0.72023 0.0
H538 H 0.99238 0.50958 0.71706 0.0
H539 H 0.03309 0.50629 0.69589 0.0
Mn540 Mn 0.56708 0.43148 0.62331 0.0
Mn541 Mn 0.55635 0.49248 0.63566 0.0
C542 C 0.56023 0.44292 0.65594 0.0
C543 C 0.54957 0.39195 0.61371 0.0
C544 C 0.61139 0.47207 0.6232 0.0
O545 O 0.55636 0.44807 0.59733 0.0
O546 O 0.54481 0.48715 0.60809 0.0
C547 C 0.49639 0.49551 0.63389 0.0
N548 N 0.5199 0.49756 0.64433 0.0
C549 C 0.49618 0.51419 0.67236 0.0
C550 C 0.47168 0.51237 0.66193 0.0
C551 C 0.47176 0.50273 0.64268 0.0
C552 C 0.51996 0.50615 0.66304 0.0
H553 H 0.49649 0.48867 0.61893 0.0
C554 C 0.54659 0.47028 0.59457 0.0
O555 O 0.57462 0.39819 0.61009 0.0
O556 O 0.53466 0.40883 0.62238 0.0
N557 N 0.56664 0.49949 0.66222 0.0
C558 C 0.59187 0.49932 0.67047 0.0
C559 C 0.59509 0.50704 0.69008 0.0
C560 C 0.57243 0.5153 0.70088 0.0
C561 C 0.54672 0.51552 0.69199 0.0
C562 C 0.54468 0.50709 0.67254 0.0
H563 H 0.60942 0.49335 0.66215 0.0
O564 O 0.57253 0.42185 0.65164 0.0
O565 O 0.55277 0.45643 0.64106 0.0
O566 O 0.6047 0.44868 0.62221 0.0
O567 O 0.59454 0.48964 0.62732 0.0
C568 C 0.52313 0.52428 0.70151 0.0
C569 C 0.49804 0.52412 0.69151 0.0
H570 H 0.45271 0.51826 0.66858 0.0
H571 H 0.45294 0.50123 0.63453 0.0
H572 H 0.61502 0.50687 0.6968 0.0
H573 H 0.57503 0.52154 0.71593 0.0
H574 H 0.52413 0.53156 0.71639 0.0
H575 H 0.48037 0.53215 0.6985 0.0
H576 H 0.34226 0.93242 0.12862 0.0
H577 H 0.29473 0.94631 0.12746 0.0
H578 H 0.32114 0.02292 0.11563 0.0
H579 H 0.36831 0.00938 0.11763 0.0
H580 H 0.28428 0.02507 0.14156 0.0
H581 H 0.29131 0.98156 0.0797 0.0
H582 H 0.30116 0.94556 0.05765 0.0
H583 H 0.24123 0.90035 0.08729 0.0
H584 H 0.23126 0.93599 0.10968 0.0
H585 H 0.15468 0.07505 0.11448 0.0
H586 H 0.20188 0.06042 0.11332 0.0
H587 H 0.1764 0.98604 0.1322 0.0
H588 H 0.12942 1.00025 0.13324 0.0
H589 H 0.21232 0.98284 0.10232 0.0
H590 H 0.20599 0.02747 0.16417 0.0
H591 H 0.19614 0.06432 0.18536 0.0
H592 H 0.2553 0.10863 0.15414 0.0
H593 H 0.26524 0.07212 0.13259 0.0
C594 C 0.33783 0.95215 0.1256 0.0
C595 C 0.35902 0.9698 0.12329 0.0
C596 C 0.31065 0.9601 0.12487 0.0
C597 C 0.30419 0.98571 0.1213 0.0
C598 C 0.32544 1.00313 0.11854 0.0
C599 C 0.35247 0.99532 0.11964 0.0
C600 C 0.27548 0.9948 0.12115 0.0
C601 C 0.2687 0.01599 0.13272 0.0
C602 C 0.25484 0.98278 0.10997 0.0
C603 C 0.26073 0.96136 0.09648 0.0
C604 C 0.28037 0.96388 0.0816 0.0
C605 C 0.28595 0.94355 0.06903 0.0
C606 C 0.27188 0.92066 0.0711 0.0
C607 C 0.25214 0.91808 0.08572 0.0
C608 C 0.2465 0.93835 0.09834 0.0
C609 C 0.1591 0.05559 0.11841 0.0
C610 C 0.13812 0.03891 0.12398 0.0
C611 C 0.18612 0.04726 0.11777 0.0
C612 C 0.19272 0.02214 0.12279 0.0
C613 C 0.17183 0.00546 0.12821 0.0
C614 C 0.14491 0.01372 0.12886 0.0
C615 C 0.22136 0.01311 0.12258 0.0
C616 C 0.22804 0.99191 0.11103 0.0
C617 C 0.24199 0.02525 0.13361 0.0
C618 C 0.23616 0.04714 0.14666 0.0
C619 C 0.21675 0.04512 0.16174 0.0
C620 C 0.21118 0.06594 0.17383 0.0
C621 C 0.22504 0.08882 0.17106 0.0
C622 C 0.24456 0.09091 0.15625 0.0
C623 C 0.25019 0.07015 0.1441 0.0
H624 H 0.22069 0.10492 0.18043 0.0
H625 H 0.27624 0.90494 0.06136 0.0
H626 H 0.6547 0.92198 0.38036 0.0
H627 H 0.70244 0.93553 0.3821 0.0
H628 H 0.67721 0.01385 0.38066 0.0
H629 H 0.63005 1.0006 0.37846 0.0
H630 H 0.71666 0.00763 0.35602 0.0
H631 H 0.70114 0.98392 0.42336 0.0
H632 H 0.68796 0.95526 0.45035 0.0
H633 H 0.7505 0.90294 0.43337 0.0
H634 H 0.76384 0.93115 0.40611 0.0
H635 H 0.84297 0.06601 0.37972 0.0
H636 H 0.79569 0.05162 0.38253 0.0
H637 H 0.82214 0.97379 0.37913 0.0
H638 H 0.86911 0.98782 0.3765 0.0
H639 H 0.78258 0.97938 0.40652 0.0
H640 H 0.79754 1.00299 0.33907 0.0
H641 H 0.811 0.03183 0.31228 0.0
H642 H 0.74918 0.08462 0.32977 0.0
H643 H 0.73562 0.05624 0.35687 0.0
C644 C 0.65938 0.94206 0.38058 0.0
C645 C 0.6385 0.96015 0.37915 0.0
C646 C 0.68667 0.94981 0.38162 0.0
C647 C 0.69351 0.97578 0.38157 0.0
C648 C 0.67259 0.99374 0.38057 0.0
C649 C 0.64552 0.98606 0.37934 0.0
C650 C 0.72233 0.98459 0.38184 0.0
C651 C 0.73092 1.00168 0.36726 0.0
C652 C 0.74125 0.97647 0.39619 0.0
C653 C 0.73329 0.95952 0.41258 0.0
C654 C 0.71194 0.96621 0.42529 0.0
C655 C 0.70447 0.95007 0.44066 0.0
C656 C 0.71833 0.92726 0.44354 0.0
C657 C 0.73975 0.92059 0.4311 0.0
C658 C 0.74729 0.93666 0.4157 0.0
C659 C 0.83874 0.04584 0.37977 0.0
C660 C 0.85992 0.02814 0.37773 0.0
C661 C 0.8117 0.03763 0.3813 0.0
C662 C 0.80533 0.0116 0.38084 0.0
C663 C 0.8265 0.99394 0.37952 0.0
C664 C 0.85341 1.00208 0.3779 0.0
C665 C 0.77665 1.0026 0.38087 0.0
C666 C 0.76819 0.98539 0.39539 0.0
C667 C 0.75778 0.01063 0.3665 0.0
C668 C 0.76576 0.02761 0.35012 0.0
C669 C 0.78695 0.02083 0.33729 0.0
C670 C 0.79458 0.03708 0.32204 0.0
C671 C 0.781 0.06007 0.31935 0.0
C672 C 0.75971 0.06682 0.33189 0.0
C673 C 0.75203 0.05066 0.34719 0.0
H674 H 0.78693 0.07263 0.30754 0.0
H675 H 0.71252 0.91479 0.45544 0.0
H676 H 0.87179 1.00304 0.86411 0.0
H677 H 0.82516 0.01774 0.86715 0.0
H678 H 0.80033 0.94363 0.88707 0.0
H679 H 0.84721 0.92849 0.88389 0.0
H680 H 0.76525 0.96305 0.85981 0.0
H681 H 0.80716 0.99231 0.91949 0.0
H682 H 0.84208 0.01426 0.93921 0.0
H683 H 0.82304 0.08459 0.91065 0.0
H684 H 0.78825 0.06299 0.89056 0.0
H685 H 0.63453 0.99791 0.89006 0.0
H686 H 0.68156 0.98362 0.89116 0.0
H687 H 0.70874 0.0583 0.87423 0.0
H688 H 0.66147 0.07301 0.87364 0.0
H689 H 0.74272 0.03829 0.90058 0.0
H690 H 0.70237 0.01011 0.84039 0.0
H691 H 0.66744 0.98922 0.82002 0.0
H692 H 0.68404 0.91806 0.84814 0.0
H693 H 0.71878 0.93862 0.86893 0.0
C694 C 0.85654 0.98975 0.86919 0.0
C695 C 0.86344 0.96453 0.87386 0.0
C696 C 0.82982 0.99828 0.87099 0.0
C697 C 0.80929 0.98192 0.87762 0.0
C698 C 0.81589 0.95663 0.88201 0.0
C699 C 0.84272 0.94802 0.88021 0.0
C700 C 0.78093 0.99128 0.87971 0.0
C701 C 0.76025 0.97923 0.86898 0.0
C702 C 0.77451 0.0129 0.8912 0.0
C703 C 0.79525 0.02598 0.90341 0.0
C704 C 0.81054 0.01242 0.91732 0.0
C705 C 0.8303 0.02481 0.92858 0.0
C706 C 0.83482 0.05079 0.92615 0.0
C707 C 0.81954 0.06446 0.9125 0.0
C708 C 0.79978 0.05216 0.90119 0.0
C709 C 0.6505 0.01142 0.88675 0.0
C710 C 0.64422 0.03656 0.88156 0.0
C711 C 0.67741 1.00317 0.88732 0.0
C712 C 0.69869 0.01968 0.8823 0.0
C713 C 0.69265 0.04515 0.87803 0.0
C714 C 0.66563 0.05355 0.87772 0.0
C715 C 0.72702 0.01 0.88073 0.0
C716 C 0.74769 0.02203 0.89148 0.0
C717 C 0.7335 0.98849 0.86911 0.0
C718 C 0.71302 0.97595 0.85634 0.0
C719 C 0.69847 0.99003 0.84231 0.0
C720 C 0.6787 0.97826 0.83069 0.0
C721 C 0.67347 0.95235 0.83282 0.0
C722 C 0.68808 0.93814 0.84653 0.0
C723 C 0.70783 0.94984 0.85822 0.0
H724 H 0.65814 0.94327 0.82382 0.0
H725 H 0.85013 0.06034 0.93487 0.0
H726 H 0.16108 0.93828 0.624 0.0
H727 H 0.20894 0.95144 0.62274 0.0
H728 H 0.18446 0.02993 0.62234 0.0
H729 H 0.137 0.01715 0.62358 0.0
H730 H 0.22436 0.02064 0.59535 0.0
H731 H 0.20698 1.00358 0.66385 0.0
H732 H 0.19253 0.97729 0.69191 0.0
H733 H 0.25437 0.92269 0.67822 0.0
H734 H 0.26894 0.9485 0.64989 0.0
H735 H 0.34905 0.08217 0.62014 0.0
H736 H 0.30194 0.06711 0.61901 0.0
H737 H 0.32962 0.99 0.62564 0.0
H738 H 0.37637 0.00479 0.62724 0.0
H739 H 0.28826 0.99724 0.64864 0.0
H740 H 0.30681 0.01412 0.58082 0.0
H741 H 0.32128 0.0396 0.55231 0.0
H742 H 0.25771 0.09327 0.56387 0.0
H743 H 0.24308 0.06827 0.59262 0.0
C744 C 0.16589 0.95832 0.62359 0.0
C745 C 0.14508 0.9766 0.62399 0.0
C746 C 0.19326 0.96583 0.62292 0.0
C747 C 0.20029 0.99171 0.62254 0.0
C748 C 0.17956 0.00989 0.62259 0.0
C749 C 0.15236 1.00247 0.6234 0.0
C750 C 0.22916 1.00014 0.62246 0.0
C751 C 0.2383 0.0157 0.60708 0.0
C752 C 0.2475 0.99329 0.63754 0.0
C753 C 0.23885 0.97783 0.65462 0.0
C754 C 0.21735 0.98587 0.66673 0.0
C755 C 0.20916 0.97107 0.6827 0.0
C756 C 0.22247 0.9483 0.68682 0.0
C757 C 0.24405 0.94031 0.675 0.0
C758 C 0.25229 0.95502 0.65899 0.0
C759 C 0.34512 0.06201 0.62127 0.0
C760 C 0.36663 0.04477 0.62378 0.0
C761 C 0.31814 0.05339 0.62055 0.0
C762 C 0.31215 0.02733 0.62206 0.0
C763 C 0.33361 0.01016 0.62449 0.0
C764 C 0.36045 0.01873 0.62535 0.0
C765 C 0.28359 0.01784 0.62151 0.0
C766 C 0.27445 1.00209 0.63681 0.0
C767 C 0.2653 0.0244 0.60628 0.0
C768 C 0.27403 0.03945 0.58899 0.0
C769 C 0.29605 0.03146 0.57737 0.0
C770 C 0.30426 0.0458 0.56115 0.0
C771 C 0.29047 0.06808 0.55632 0.0
C772 C 0.26839 0.07603 0.56766 0.0
C773 C 0.26012 0.06177 0.5839 0.0
H774 H 0.29685 0.07915 0.54375 0.0
H775 H 0.2161 0.93687 0.69919 0.0
H776 H 0.8688 0.50769 0.11539 0.0
H777 H 0.82203 0.5221 0.11391 0.0
H778 H 0.79382 0.44495 0.11949 0.0
H779 H 0.84117 0.43008 0.12074 0.0
H780 H 0.76308 0.47278 0.09291 0.0
H781 H 0.79448 0.48228 0.15886 0.0
H782 H 0.82666 0.49557 0.18467 0.0
H783 H 0.81573 0.57354 0.16835 0.0
H784 H 0.7839 0.56068 0.14215 0.0
H785 H 0.63011 0.50582 0.12407 0.0
H786 H 0.67612 0.48928 0.12203 0.0
H787 H 0.70739 0.56524 0.11543 0.0
H788 H 0.66105 0.5822 0.11752 0.0
H789 H 0.73615 0.53689 0.14271 0.0
H790 H 0.70456 0.52674 0.07648 0.0
H791 H 0.6728 0.51281 0.05058 0.0
H792 H 0.68354 0.43526 0.06806 0.0
H793 H 0.71504 0.44875 0.09429 0.0
C794 C 0.85277 0.49362 0.11622 0.0
C795 C 0.85882 0.46768 0.11847 0.0
C796 C 0.82595 0.50197 0.11537 0.0
C797 C 0.80439 0.4847 0.11699 0.0
C798 C 0.81019 0.45864 0.11833 0.0
C799 C 0.83722 0.45017 0.11906 0.0
C800 C 0.77603 0.49432 0.11812 0.0
C801 C 0.75704 0.48649 0.10397 0.0
C802 C 0.7683 0.5126 0.13235 0.0
C803 C 0.78695 0.52048 0.14842 0.0
C804 C 0.79905 0.50225 0.16069 0.0
C805 C 0.81724 0.50971 0.17539 0.0
C806 C 0.82327 0.53538 0.17812 0.0
C807 C 0.81106 0.55365 0.1662 0.0
C808 C 0.79293 0.54629 0.15142 0.0
C809 C 0.64666 0.51915 0.12213 0.0
C810 C 0.64174 0.54544 0.12094 0.0
C811 C 0.67302 0.50957 0.12088 0.0
C812 C 0.6952 0.52596 0.11839 0.0
C813 C 0.69053 0.55223 0.11729 0.0
C814 C 0.66402 0.56189 0.11842 0.0
C815 C 0.72323 0.51555 0.11738 0.0
C816 C 0.74215 0.52318 0.13164 0.0
C817 C 0.73079 0.49698 0.10333 0.0
C818 C 0.71198 0.48879 0.08748 0.0
C819 C 0.69998 0.50673 0.07491 0.0
C820 C 0.68205 0.49891 0.06015 0.0
C821 C 0.67612 0.47318 0.0577 0.0
C822 C 0.68814 0.45519 0.06999 0.0
C823 C 0.70605 0.46291 0.0848 0.0
H824 H 0.66229 0.46716 0.04625 0.0
H825 H 0.83738 0.54111 0.1895 0.0
H826 H 0.34497 0.56524 0.37808 0.0
H827 H 0.2979 0.55024 0.38066 0.0
H828 H 0.32402 0.47409 0.36729 0.0
H829 H 0.37063 0.4888 0.36432 0.0
H830 H 0.27962 0.4844 0.34744 0.0
H831 H 0.30811 0.49292 0.41465 0.0
H832 H 0.32669 0.51524 0.44356 0.0
H833 H 0.26179 0.56944 0.44073 0.0
H834 H 0.24301 0.54762 0.41163 0.0
H835 H 0.1567 0.4213 0.37499 0.0
H836 H 0.20469 0.43437 0.37544 0.0
H837 H 0.1805 0.51214 0.3843 0.0
H838 H 0.13296 0.49938 0.38392 0.0
H839 H 0.22414 0.49991 0.40709 0.0
H840 H 0.19651 0.49206 0.33947 0.0
H841 H 0.17761 0.46963 0.31072 0.0
H842 H 0.24106 0.41403 0.31449 0.0
H843 H 0.26007 0.43592 0.34349 0.0
C844 C 0.34069 0.54532 0.37566 0.0
C845 C 0.36175 0.52829 0.37106 0.0
C846 C 0.31376 0.53673 0.37723 0.0
C847 C 0.30739 0.51093 0.37437 0.0
C848 C 0.32833 0.49405 0.36956 0.0
C849 C 0.35511 0.50257 0.36794 0.0
C850 C 0.27901 0.50133 0.37629 0.0
C851 C 0.26766 0.48752 0.36061 0.0
C852 C 0.26313 0.50568 0.39331 0.0
C853 C 0.27432 0.51878 0.41084 0.0
C854 C 0.29792 0.50971 0.4201 0.0
C855 C 0.30846 0.52225 0.43654 0.0
C856 C 0.29547 0.54378 0.44394 0.0
C857 C 0.27185 0.55278 0.43496 0.0
C858 C 0.26124 0.54032 0.4185 0.0
C859 C 0.16167 0.4411 0.37729 0.0
C860 C 0.14097 0.45929 0.37925 0.0
C861 C 0.18907 0.44858 0.37745 0.0
C862 C 0.19618 0.4743 0.37972 0.0
C863 C 0.17556 0.49223 0.38251 0.0
C864 C 0.14833 0.48486 0.38218 0.0
C865 C 0.22489 0.48298 0.37828 0.0
C866 C 0.23623 0.49667 0.394 0.0
C867 C 0.24079 0.47852 0.36131 0.0
C868 C 0.22953 0.46546 0.34378 0.0
C869 C 0.2063 0.47493 0.33427 0.0
C870 C 0.19559 0.46234 0.31791 0.0
C871 C 0.20809 0.44038 0.31081 0.0
C872 C 0.23137 0.43102 0.32003 0.0
C873 C 0.24213 0.44351 0.33642 0.0
H874 H 0.19977 0.43066 0.29815 0.0
H875 H 0.30366 0.55347 0.45667 0.0
H876 H 0.16308 0.57732 0.87867 0.0
H877 H 0.21076 0.56404 0.88147 0.0
H878 H 0.18608 0.48563 0.87798 0.0
H879 H 0.13884 0.49854 0.87522 0.0
H880 H 0.22445 0.4931 0.90653 0.0
H881 H 0.21071 0.51469 0.83829 0.0
H882 H 0.19787 0.54297 0.81101 0.0
H883 H 0.25936 0.59626 0.82862 0.0
H884 H 0.27229 0.56843 0.85619 0.0
H885 H 0.34828 0.431 0.88092 0.0
H886 H 0.30165 0.44708 0.88273 0.0
H887 H 0.33177 0.52387 0.87933 0.0
H888 H 0.37806 0.50804 0.877 0.0
H889 H 0.291 0.51921 0.85569 0.0
H890 H 0.30665 0.49718 0.92296 0.0
H891 H 0.31944 0.46946 0.95059 0.0
H892 H 0.2549 0.418 0.93568 0.0
H893 H 0.24194 0.44526 0.90779 0.0
C894 C 0.16782 0.55727 0.87861 0.0
C895 C 0.14707 0.53906 0.87658 0.0
C896 C 0.19507 0.5497 0.88017 0.0
C897 C 0.20199 0.52381 0.87983 0.0
C898 C 0.18126 0.50568 0.87831 0.0
C899 C 0.1542 0.51317 0.8766 0.0
C900 C 0.23079 0.51533 0.88041 0.0
C901 C 0.239 0.49867 0.89535 0.0
C902 C 0.24989 0.52296 0.86606 0.0
C903 C 0.24225 0.53962 0.84943 0.0
C904 C 0.22134 0.53253 0.83644 0.0
C905 C 0.21407 0.54847 0.82091 0.0
C906 C 0.22774 0.57144 0.81812 0.0
C907 C 0.24876 0.57849 0.83082 0.0
C908 C 0.25607 0.56264 0.84639 0.0
C909 C 0.34497 0.45131 0.88072 0.0
C910 C 0.36698 0.46817 0.87877 0.0
C911 C 0.31828 0.46051 0.88182 0.0
C912 C 0.31311 0.48677 0.88132 0.0
C913 C 0.33512 0.50356 0.87966 0.0
C914 C 0.36167 0.49442 0.87838 0.0
C915 C 0.28482 0.49686 0.88183 0.0
C916 C 0.27663 0.51378 0.86702 0.0
C917 C 0.2658 0.48955 0.89639 0.0
C918 C 0.27349 0.47315 0.91317 0.0
C919 C 0.29531 0.47986 0.92549 0.0
C920 C 0.30257 0.46424 0.94121 0.0
C921 C 0.28803 0.44195 0.94486 0.0
C922 C 0.26616 0.43526 0.93282 0.0
C923 C 0.25883 0.4508 0.91706 0.0
H924 H 0.29368 0.42988 0.95704 0.0
H925 H 0.22209 0.58375 0.80608 0.0
H926 H 0.65757 0.44312 0.6271 0.0
H927 H 0.70487 0.4579 0.62559 0.0
H928 H 0.67734 0.53321 0.61119 0.0
H929 H 0.63027 0.51874 0.61273 0.0
H930 H 0.72294 0.51879 0.58945 0.0
H931 H 0.69285 0.52126 0.6566 0.0
H932 H 0.67283 0.50317 0.68669 0.0
H933 H 0.7371 0.44831 0.68957 0.0
H934 H 0.75723 0.46579 0.65925 0.0
H935 H 0.84669 0.58473 0.61328 0.0
H936 H 0.79881 0.57169 0.61149 0.0
H937 H 0.82029 0.4974 0.63287 0.0
H938 H 0.86748 0.51021 0.63511 0.0
H939 H 0.77667 0.51284 0.65093 0.0
H940 H 0.80644 0.50945 0.58352 0.0
H941 H 0.82597 0.52656 0.5529 0.0
H942 H 0.76265 0.58239 0.5502 0.0
H943 H 0.74295 0.5658 0.58095 0.0
C944 C 0.66162 0.46272 0.62333 0.0
C945 C 0.64013 0.47977 0.6202 0.0
C946 C 0.68863 0.47117 0.62254 0.0
C947 C 0.6946 0.49674 0.61845 0.0
C948 C 0.67323 0.51344 0.61439 0.0
C949 C 0.64631 0.50512 0.61539 0.0
C950 C 0.7229 0.50653 0.6196 0.0
C951 C 0.73465 0.51772 0.60293 0.0
C952 C 0.73821 0.50496 0.63714 0.0
C953 C 0.72639 0.49467 0.65554 0.0
C954 C 0.7026 0.50522 0.66356 0.0
C955 C 0.69125 0.49509 0.68067 0.0
C956 C 0.70366 0.47457 0.69001 0.0
C957 C 0.72749 0.46419 0.68229 0.0
C958 C 0.73889 0.4742 0.66515 0.0
C959 C 0.84118 0.56565 0.61763 0.0
C960 C 0.86111 0.54859 0.6243 0.0
C961 C 0.8138 0.55816 0.61651 0.0
C962 C 0.8059 0.53344 0.62189 0.0
C963 C 0.82575 0.51656 0.62868 0.0
C964 C 0.8529 0.52399 0.62988 0.0
C965 C 0.77708 0.5248 0.62065 0.0
C966 C 0.76509 0.51393 0.6374 0.0
C967 C 0.76163 0.5266 0.60314 0.0
C968 C 0.77341 0.53657 0.58465 0.0
C969 C 0.79681 0.5255 0.57647 0.0
C970 C 0.80789 0.53508 0.55908 0.0
C971 C 0.79561 0.5556 0.54964 0.0
C972 C 0.77217 0.56653 0.55755 0.0
C973 C 0.76104 0.55704 0.57495 0.0
H974 H 0.80421 0.56299 0.53618 0.0
H975 H 0.69484 0.46675 0.70326 0.0
H976 H 0.90507 0.07386 0.30863 0.0
H977 H 0.92127 0.07589 0.27462 0.0
H978 H 0.0023 0.0578 0.29409 0.0
H979 H 0.98656 0.058 0.32814 0.0
H980 H 0.99784 0.10204 0.2716 0.0
H981 H 0.97846 0.00521 0.24529 0.0
H982 H 0.9463 0.96961 0.24115 0.0
H983 H 0.87942 0.02181 0.24158 0.0
H984 H 0.91138 0.0577 0.24449 0.0
H985 H 0.07852 0.08213 0.18699 0.0
H986 H 0.05469 0.08041 0.21863 0.0
H987 H 0.97772 0.07859 0.1881 0.0
H988 H 1.00169 0.07872 0.15667 0.0
H989 H 0.97437 0.04745 0.21483 0.0
H990 H 0.00352 0.13282 0.21423 0.0
H991 H 0.03518 0.16888 0.21102 0.0
H992 H 0.08092 0.14189 0.26045 0.0
H993 H 0.04976 0.10543 0.26377 0.0
C994 C 0.92617 0.06968 0.3055 0.0
C995 C 0.94438 0.06467 0.32087 0.0
C996 C 0.93534 0.07043 0.28602 0.0
C997 C 0.9628 0.06592 0.28162 0.0
C998 C 0.98089 0.06069 0.29704 0.0
C999 C 0.97185 0.06051 0.31648 0.0
C1000 C 0.97377 0.07036 0.26161 0.0
C1001 C 0.99295 0.08991 0.25919 0.0
C1002 C 0.96666 0.05529 0.24521 0.0
C1003 C 0.94718 0.03399 0.24616 0.0
C1004 C 0.95685 0.00899 0.24484 0.0
C1005 C 0.93871 0.98881 0.24229 0.0
C1006 C 0.91079 0.99341 0.24131 0.0
C1007 C 0.90101 0.01823 0.24264 0.0
C1008 C 0.91915 0.03851 0.24472 0.0
C1009 C 0.05653 0.08125 0.18719 0.0
C1010 C 0.04185 0.07989 0.1696 0.0
C1011 C 0.04288 0.08058 0.20521 0.0
C1012 C 0.01429 0.07975 0.20585 0.0
C1013 C 0.99972 0.07912 0.1881 0.0
C1014 C 0.01339 0.07914 0.17016 0.0
C1015 C 0.99955 0.07826 0.22491 0.0
C1016 C 0.97959 0.05948 0.22717 0.0
C1017 C 0.00566 0.09431 0.24102 0.0
C1018 C 0.02441 0.11627 0.23915 0.0
C1019 C 0.02043 0.13447 0.22433 0.0
C1020 C 0.03828 0.155 0.2225 0.0
C1021 C 0.06007 0.15764 0.2355 0.0
C1022 C 0.06403 0.1398 0.25038 0.0
C1023 C 0.04627 0.11921 0.25226 0.0
H1024 H 0.07387 0.17355 0.23406 0.0
H1025 H 0.89675 0.97777 0.23946 0.0
H1026 H 0.49018 0.94497 0.16544 0.0
H1027 H 0.50784 0.94531 0.19861 0.0
H1028 H 0.43975 0.89878 0.21686 0.0
H1029 H 0.41867 0.90549 0.18498 0.0
H1030 H 0.44965 0.91755 0.24544 0.0
H1031 H 0.51636 0.87922 0.20584 0.0
H1032 H 0.54836 0.87341 0.17831 0.0
H1033 H 0.59354 0.93887 0.19706 0.0
H1034 H 0.56165 0.94523 0.22459 0.0
H1035 H 0.58039 0.89989 0.31437 0.0
H1036 H 0.55955 0.8959 0.28201 0.0
H1037 H 0.49053 0.93912 0.30285 0.0
H1038 H 0.50818 0.93634 0.33588 0.0
H1039 H 0.54937 0.91779 0.25464 0.0
H1040 H 0.43665 0.94036 0.27736 0.0
H1041 H 0.40497 0.92979 0.30422 0.0
H1042 H 0.45189 0.86355 0.31796 0.0
H1043 H 0.48369 0.87356 0.29104 0.0
C1044 C 0.47805 0.93679 0.17704 0.0
C1045 C 0.452 0.92748 0.17314 0.0
C1046 C 0.48895 0.93546 0.19589 0.0
C1047 C 0.47588 0.92136 0.2107 0.0
C1048 C 0.45039 0.91042 0.20627 0.0
C1049 C 0.43834 0.91397 0.18787 0.0
C1050 C 0.4885 0.91823 0.23064 0.0
C1051 C 0.4715 0.91697 0.24723 0.0
C1052 C 0.51704 0.91662 0.23359 0.0
C1053 C 0.53652 0.91277 0.21721 0.0
C1054 C 0.53309 0.8924 0.20406 0.0
C1055 C 0.55119 0.88903 0.18845 0.0
C1056 C 0.57294 0.90579 0.18593 0.0
C1057 C 0.57669 0.92591 0.19904 0.0
C1058 C 0.55864 0.92938 0.21468 0.0
C1059 C 0.56055 0.90815 0.31191 0.0
C1060 C 0.54663 0.92011 0.3273 0.0
C1061 C 0.54864 0.90617 0.29329 0.0
C1062 C 0.52298 0.91706 0.28946 0.0
C1063 C 0.50956 0.92938 0.30502 0.0
C1064 C 0.5204 0.92921 0.3239 0.0
C1065 C 0.51052 0.91592 0.26934 0.0
C1066 C 0.52753 0.91708 0.25276 0.0
C1067 C 0.48201 0.91418 0.26626 0.0
C1068 C 0.46264 0.9078 0.28225 0.0
C1069 C 0.44009 0.92344 0.28601 0.0
C1070 C 0.42216 0.91758 0.30128 0.0
C1071 C 0.42645 0.89604 0.31281 0.0
C1072 C 0.44863 0.88026 0.30905 0.0
C1073 C 0.46663 0.88602 0.2938 0.0
H1074 H 0.41256 0.89156 0.32464 0.0
H1075 H 0.58692 0.90316 0.17382 0.0
H1076 H 0.01053 0.95627 0.66397 0.0
H1077 H 0.99046 0.95737 0.69685 0.0
H1078 H 0.069 0.94145 0.72212 0.0
H1079 H 0.08911 0.94085 0.68919 0.0
H1080 H 0.03482 0.90737 0.73347 0.0
H1081 H 0.03428 0.9966 0.7415 0.0
H1082 H 0.02652 0.0428 0.74111 0.0
H1083 H 0.94245 0.03054 0.72706 0.0
H1084 H 0.94964 0.98423 0.72786 0.0
H1085 H 0.99537 0.92376 0.83362 0.0
H1086 H 0.01477 0.92635 0.80054 0.0
H1087 H 0.93415 0.92367 0.7757 0.0
H1088 H 0.91471 0.92071 0.80897 0.0
H1089 H 0.9669 0.96474 0.76335 0.0
H1090 H 0.97273 0.87485 0.76846 0.0
H1091 H 0.98465 0.83423 0.7841 0.0
H1092 H 0.06915 0.85452 0.78266 0.0
H1093 H 0.05772 0.89547 0.76728 0.0
C1094 C 0.02369 0.95423 0.67662 0.0
C1095 C 0.05145 0.94903 0.67412 0.0
C1096 C 0.0122 0.95475 0.69543 0.0
C1097 C 0.02819 0.9495 0.71204 0.0
C1098 C 0.05623 0.94557 0.70957 0.0
C1099 C 0.06772 0.94523 0.69078 0.0
C1100 C 0.01501 0.94379 0.7312 0.0
C1101 C 0.02046 0.92031 0.74022 0.0
C1102 C 0.9956 0.96007 0.73987 0.0
C1103 C 0.99263 0.98701 0.73433 0.0
C1104 C 0.01434 1.00378 0.73776 0.0
C1105 C 0.0099 0.02996 0.73793 0.0
C1106 C 0.98392 0.03959 0.73432 0.0
C1107 C 0.96251 0.02307 0.73001 0.0
C1108 C 0.96675 0.99686 0.73014 0.0
C1109 C 0.98187 0.92366 0.82105 0.0
C1110 C 0.95361 0.92275 0.82366 0.0
C1111 C 0.99294 0.9248 0.80221 0.0
C1112 C 0.97589 0.92493 0.7857 0.0
C1113 C 0.94761 0.9234 0.78829 0.0
C1114 C 0.93655 0.92185 0.80718 0.0
C1115 C 0.98764 0.92927 0.76598 0.0
C1116 C 0.98146 0.95209 0.75661 0.0
C1117 C 0.00737 0.91303 0.75769 0.0
C1118 C 0.01433 0.88834 0.76684 0.0
C1119 C 0.99384 0.87076 0.77162 0.0
C1120 C 1.00052 0.84765 0.78041 0.0
C1121 C 0.02764 0.84182 0.7844 0.0
C1122 C 0.04815 0.85907 0.77957 0.0
C1123 C 0.04158 0.88222 0.77079 0.0
H1124 H 0.03276 0.82391 0.79121 0.0
H1125 H 0.98051 0.05986 0.73454 0.0
H1126 H 0.42203 0.08552 0.68984 0.0
H1127 H 0.4446 0.08254 0.72191 0.0
H1128 H 0.5228 0.0848 0.69308 0.0
H1129 H 0.50014 0.08601 0.66119 0.0
H1130 H 0.52624 0.05228 0.71865 0.0
H1131 H 0.49347 0.13678 0.72071 0.0
H1132 H 0.46026 0.17163 0.71849 0.0
H1133 H 0.41442 0.13925 0.76594 0.0
H1134 H 0.44717 0.10401 0.76828 0.0
H1135 H 0.59613 0.07721 0.81105 0.0
H1136 H 0.57823 0.07831 0.77749 0.0
H1137 H 0.49815 0.0608 0.7994 0.0
H1138 H 0.51565 0.06184 0.83298 0.0
H1139 H 0.49949 0.1031 0.77668 0.0
H1140 H 0.52242 0.00876 0.75243 0.0
H1141 H 0.55517 0.97353 0.74936 0.0
H1142 H 0.62052 0.02701 0.74315 0.0
H1143 H 0.58791 0.06243 0.74539 0.0
C1144 C 0.44401 0.08528 0.69052 0.0
C1145 C 0.45945 0.08536 0.67324 0.0
C1146 C 0.45695 0.0839 0.7088 0.0
C1147 C 0.48552 0.08381 0.71004 0.0
C1148 C 0.5008 0.0847 0.69262 0.0
C1149 C 0.48788 0.08537 0.67441 0.0
C1150 C 0.49959 0.08161 0.72932 0.0
C1151 C 0.52026 0.06348 0.73125 0.0
C1152 C 0.49238 0.09644 0.74587 0.0
C1153 C 0.47266 0.11763 0.74455 0.0
C1154 C 0.4762 0.13699 0.73058 0.0
C1155 C 0.45748 0.15683 0.72931 0.0
C1156 C 0.43521 0.15762 0.74203 0.0
C1157 C 0.43167 0.1386 0.75608 0.0
C1158 C 0.45032 0.1187 0.7574 0.0
C1159 C 0.57488 0.0729 0.80856 0.0
C1160 C 0.55743 0.06839 0.82448 0.0
C1161 C 0.56471 0.07317 0.78935 0.0
C1162 C 0.53698 0.06875 0.78577 0.0
C1163 C 0.51971 0.06375 0.80173 0.0
C1164 C 0.52976 0.064 0.8209 0.0
C1165 C 0.52509 0.07295 0.76601 0.0
C1166 C 0.505 0.0917 0.76401 0.0
C1167 C 0.53299 0.05893 0.74928 0.0
C1168 C 0.55298 0.03814 0.75001 0.0
C1169 C 0.54386 0.01293 0.75077 0.0
C1170 C 0.56231 0.99295 0.74883 0.0
C1171 C 0.58996 0.99802 0.74626 0.0
C1172 C 0.59915 0.0231 0.74539 0.0
C1173 C 0.58069 0.04312 0.74696 0.0
H1174 H 0.60424 0.98254 0.74486 0.0
H1175 H 0.42074 0.173 0.74103 0.0
H1176 H 0.51112 0.58843 0.16112 0.0
H1177 H 0.49247 0.58589 0.19433 0.0
H1178 H 0.57317 0.59494 0.21833 0.0
H1179 H 0.59187 0.59638 0.1849 0.0
H1180 H 0.55011 0.55763 0.23507 0.0
H1181 H 0.52207 0.64193 0.22239 0.0
H1182 H 0.5011 0.67702 0.20394 0.0
H1183 H 0.42343 0.64007 0.20732 0.0
H1184 H 0.444 0.60455 0.22556 0.0
H1185 H 0.49763 0.56318 0.33355 0.0
H1186 H 0.52063 0.56647 0.302 0.0
H1187 H 0.44302 0.56481 0.2724 0.0
H1188 H 0.42001 0.56384 0.3043 0.0
H1189 H 0.46833 0.60191 0.25971 0.0
H1190 H 0.51012 0.51015 0.25327 0.0
H1191 H 0.53976 0.47438 0.26254 0.0
H1192 H 0.59284 0.52557 0.29325 0.0
H1193 H 0.56425 0.56172 0.2832 0.0
C1194 C 0.5248 0.58969 0.17356 0.0
C1195 C 0.55294 0.59149 0.17067 0.0
C1196 C 0.51411 0.58877 0.19251 0.0
C1197 C 0.53136 0.59039 0.2089 0.0
C1198 C 0.55946 0.59353 0.20593 0.0
C1199 C 0.57015 0.5943 0.18691 0.0
C1200 C 0.52039 0.58633 0.22897 0.0
C1201 C 0.53231 0.56747 0.24052 0.0
C1202 C 0.49714 0.59907 0.2361 0.0
C1203 C 0.48463 0.62049 0.22524 0.0
C1204 C 0.50055 0.64119 0.21909 0.0
C1205 C 0.48873 0.66118 0.20869 0.0
C1206 C 0.46096 0.66075 0.20444 0.0
C1207 C 0.44494 0.64037 0.21062 0.0
C1208 C 0.45666 0.62032 0.22102 0.0
C1209 C 0.48558 0.56285 0.32023 0.0
C1210 C 0.4571 0.56306 0.32124 0.0
C1211 C 0.49881 0.56436 0.30208 0.0
C1212 C 0.4838 0.56546 0.28453 0.0
C1213 C 0.45522 0.56408 0.28563 0.0
C1214 C 0.442 0.56344 0.30382 0.0
C1215 C 0.49717 0.57197 0.26548 0.0
C1216 C 0.48587 0.59172 0.25419 0.0
C1217 C 0.52106 0.56 0.25849 0.0
C1218 C 0.53443 0.53842 0.26825 0.0
C1219 C 0.52775 0.51364 0.2624 0.0
C1220 C 0.54472 0.4934 0.26738 0.0
C1221 C 0.56815 0.4977 0.27851 0.0
C1222 C 0.57462 0.52224 0.28472 0.0
C1223 C 0.55811 0.54261 0.27933 0.0
H1224 H 0.58121 0.48199 0.28239 0.0
H1225 H 0.45185 0.67624 0.19637 0.0
H1226 H 0.07989 0.40351 0.31291 0.0
H1227 H 0.05864 0.40184 0.2807 0.0
H1228 H 0.99251 0.44797 0.30261 0.0
H1229 H 0.01015 0.44271 0.3355 0.0
H1230 H 0.97076 0.42616 0.27972 0.0
H1231 H 0.05548 0.46711 0.26577 0.0
H1232 H 0.10527 0.47362 0.26522 0.0
H1233 H 0.11524 0.40354 0.23383 0.0
H1234 H 0.0656 0.3967 0.23429 0.0
H1235 H 0.98824 0.44608 0.16388 0.0
H1236 H 0.00585 0.4497 0.19694 0.0
H1237 H 0.93713 0.40594 0.21774 0.0
H1238 H 0.91632 0.40928 0.18547 0.0
H1239 H 0.02621 0.42569 0.21922 0.0
H1240 H 0.9298 0.4001 0.26448 0.0
H1241 H 0.88064 0.40926 0.26507 0.0
H1242 H 0.89451 0.47902 0.2342 0.0
H1243 H 0.94388 0.47028 0.23353 0.0
C1244 C 0.06085 0.41336 0.31067 0.0
C1245 C 0.04781 0.42543 0.32644 0.0
C1246 C 0.04886 0.41293 0.29202 0.0
C1247 C 0.02446 0.42612 0.28831 0.0
C1248 C 0.0114 0.43777 0.30439 0.0
C1249 C 0.02218 0.43606 0.32328 0.0
C1250 C 0.01173 0.42675 0.2682 0.0
C1251 C 0.98318 0.42692 0.26661 0.0
C1252 C 0.02715 0.42748 0.25058 0.0
C1253 C 0.05699 0.43127 0.25037 0.0
C1254 C 0.06842 0.45305 0.25895 0.0
C1255 C 0.09655 0.4568 0.25862 0.0
C1256 C 0.11341 0.43891 0.24964 0.0
C1257 C 0.10217 0.41733 0.24085 0.0
C1258 C 0.07404 0.41354 0.24111 0.0
C1259 C 0.97575 0.43967 0.17593 0.0
C1260 C 0.94965 0.43015 0.17247 0.0
C1261 C 0.98643 0.44042 0.19489 0.0
C1262 C 0.97266 0.42884 0.21068 0.0
C1263 C 0.94759 0.41688 0.20666 0.0
C1264 C 0.93582 0.4183 0.18797 0.0
C1265 C 0.98536 0.42816 0.23078 0.0
C1266 C 0.01385 0.42666 0.23236 0.0
C1267 C 0.96997 0.42914 0.24841 0.0
C1268 C 0.94039 0.4344 0.2487 0.0
C1269 C 0.92234 0.41739 0.25782 0.0
C1270 C 0.89448 0.42249 0.25815 0.0
C1271 C 0.88447 0.44464 0.24956 0.0
C1272 C 0.90232 0.46179 0.24069 0.0
C1273 C 0.9302 0.45676 0.24029 0.0
H1274 H 0.8629 0.44857 0.24984 0.0
H1275 H 0.13518 0.44184 0.2494 0.0
H1276 H 0.50642 0.44205 0.66219 0.0
H1277 H 0.48311 0.43723 0.69335 0.0
H1278 H 0.55933 0.44603 0.72404 0.0
H1279 H 0.58312 0.44766 0.69239 0.0
H1280 H 0.53599 0.40766 0.7373 0.0
H1281 H 0.48416 0.49793 0.74171 0.0
H1282 H 0.45164 0.52965 0.7293 0.0
H1283 H 0.41025 0.47181 0.69637 0.0
H1284 H 0.44088 0.43945 0.71021 0.0
H1285 H 0.4952 0.42561 0.83534 0.0
H1286 H 0.51256 0.42654 0.80178 0.0
H1287 H 0.43126 0.41439 0.77968 0.0
H1288 H 0.41378 0.41486 0.81348 0.0
H1289 H 0.45236 0.45018 0.76062 0.0
H1290 H 0.48412 0.36801 0.77626 0.0
H1291 H 0.50666 0.3348 0.79578 0.0
H1292 H 0.5827 0.37428 0.79084 0.0
H1293 H 0.56059 0.40787 0.77139 0.0
C1294 C 0.51806 0.44353 0.67566 0.0
C1295 C 0.54647 0.44546 0.67501 0.0
C1296 C 0.50456 0.44131 0.69362 0.0
C1297 C 0.51905 0.44208 0.71138 0.0
C1298 C 0.54749 0.44543 0.71064 0.0
C1299 C 0.56115 0.44648 0.6926 0.0
C1300 C 0.50559 0.43579 0.73045 0.0
C1301 C 0.51794 0.41738 0.74247 0.0
C1302 C 0.48101 0.44704 0.73698 0.0
C1303 C 0.46584 0.46654 0.72601 0.0
C1304 C 0.46844 0.49209 0.73153 0.0
C1305 C 0.44987 0.51006 0.72469 0.0
C1306 C 0.42927 0.50287 0.71168 0.0
C1307 C 0.42657 0.47749 0.70609 0.0
C1308 C 0.44431 0.45927 0.71364 0.0
C1309 C 0.48108 0.42339 0.82324 0.0
C1310 C 0.45311 0.42134 0.82674 0.0
C1311 C 0.49106 0.42335 0.80409 0.0
C1312 C 0.47329 0.42035 0.78811 0.0
C1313 C 0.44537 0.41689 0.79174 0.0
C1314 C 0.43537 0.4172 0.81097 0.0
C1315 C 0.48354 0.42322 0.76771 0.0
C1316 C 0.47052 0.44065 0.75545 0.0
C1317 C 0.50718 0.41081 0.76089 0.0
C1318 C 0.52064 0.39054 0.77245 0.0
C1319 C 0.50562 0.36969 0.77942 0.0
C1320 C 0.51832 0.35078 0.79047 0.0
C1321 C 0.54606 0.35246 0.79461 0.0
C1322 C 0.5612 0.37301 0.78763 0.0
C1323 C 0.54861 0.39195 0.77654 0.0
H1324 H 0.55583 0.33781 0.80319 0.0
H1325 H 0.41521 0.5169 0.70614 0.0
H1326 H 0.08781 0.60168 0.81291 0.0
H1327 H 0.06653 0.60796 0.78107 0.0
H1328 H 0.99999 0.55945 0.79921 0.0
H1329 H 0.01715 0.56097 0.83247 0.0
H1330 H 0.05608 0.59079 0.7521 0.0
H1331 H 0.94519 0.55926 0.77357 0.0
H1332 H 0.91435 0.56302 0.80198 0.0
H1333 H 0.95918 0.62765 0.82273 0.0
H1334 H 0.9898 0.62479 0.79416 0.0
H1335 H 0.99488 0.57191 0.66246 0.0
H1336 H 0.01406 0.56956 0.69516 0.0
H1337 H 0.94485 0.61109 0.71764 0.0
H1338 H 0.92304 0.60743 0.68559 0.0
H1339 H 0.95614 0.58795 0.7444 0.0
H1340 H 0.01825 0.63566 0.70831 0.0
H1341 H 0.0485 0.6484 0.68117 0.0
H1342 H 0.09939 0.58388 0.6922 0.0
H1343 H 0.06927 0.57058 0.71927 0.0
C1344 C 0.0684 0.59269 0.81001 0.0
C1345 C 0.055 0.57907 0.82483 0.0
C1346 C 0.05624 0.59598 0.79161 0.0
C1347 C 0.03101 0.58452 0.78719 0.0
C1348 C 0.01854 0.56984 0.80193 0.0
C1349 C 0.02928 0.56904 0.82085 0.0
C1350 C 0.01774 0.58813 0.76749 0.0
C1351 C 0.03417 0.59073 0.75068 0.0
C1352 C 0.98904 0.58913 0.76501 0.0
C1353 C 0.96991 0.59169 0.78177 0.0
C1354 C 0.94826 0.57448 0.78406 0.0
C1355 C 0.93082 0.57645 0.8002 0.0
C1356 C 0.93477 0.5956 0.81413 0.0
C1357 C 0.95605 0.61293 0.81187 0.0
C1358 C 0.97342 0.61118 0.79569 0.0
C1359 C 0.9831 0.57894 0.67471 0.0
C1360 C 0.95663 0.58779 0.67188 0.0
C1361 C 0.99469 0.57888 0.69338 0.0
C1362 C 0.9815 0.59067 0.7093 0.0
C1363 C 0.95556 0.60122 0.70604 0.0
C1364 C 0.94309 0.5994 0.68762 0.0
C1365 C 0.99447 0.59151 0.72923 0.0
C1366 C 0.978 0.58919 0.746 0.0
C1367 C 0.02296 0.59409 0.7319 0.0
C1368 C 0.0414 0.60206 0.71576 0.0
C1369 C 0.03585 0.62414 0.70491 0.0
C1370 C 0.05297 0.63146 0.68953 0.0
C1371 C 0.07583 0.61693 0.68495 0.0
C1372 C 0.08167 0.59511 0.69578 0.0
C1373 C 0.06462 0.5877 0.71117 0.0
H1374 H 0.08905 0.62261 0.67302 0.0
H1375 H 0.92136 0.597 0.82669 0.0
H1376 H 0.08312 0.16982 0.0983 0.0
H1377 H 0.06724 0.21357 0.0941 0.0
H1378 H 0.98415 0.18769 0.09647 0.0
H1379 H 0.99982 0.14406 0.10084 0.0
H1380 H 0.99302 0.2262 0.06804 0.0
H1381 H 0.01067 0.20927 0.13664 0.0
H1382 H 0.03881 0.19562 0.16467 0.0
H1383 H 0.09711 0.2539 0.15158 0.0
H1384 H 0.06947 0.26766 0.12328 0.0
H1385 H 0.92251 0.3382 0.09756 0.0
H1386 H 0.94124 0.29566 0.09268 0.0
H1387 H 0.0222 0.32514 0.1015 0.0
H1388 H 0.0035 0.36742 0.10702 0.0
H1389 H 0.01645 0.28501 0.12246 0.0
H1390 H 0.9976 0.30445 0.05528 0.0
H1391 H 0.96996 0.31813 0.02702 0.0
H1392 H 0.91502 0.25597 0.03652 0.0
H1393 H 0.94214 0.24211 0.06502 0.0
C1394 C 0.06149 0.1734 0.09756 0.0
C1395 C 0.04273 0.15352 0.10003 0.0
C1396 C 0.05244 0.19841 0.09522 0.0
C1397 C 0.0245 0.2039 0.09515 0.0
C1398 C 0.00578 0.18389 0.09648 0.0
C1399 C 0.01479 0.15897 0.09904 0.0
C1400 C 0.01473 0.23057 0.09528 0.0
C1401 C 0.99797 0.23908 0.07997 0.0
C1402 C 0.02161 0.24746 0.11066 0.0
C1403 C 0.03817 0.2393 0.12772 0.0
C1404 C 0.02961 0.21903 0.13964 0.0
C1405 C 0.04544 0.2113 0.15559 0.0
C1406 C 0.06978 0.22384 0.15986 0.0
C1407 C 0.07829 0.24418 0.14823 0.0
C1408 C 0.06254 0.25196 0.13224 0.0
C1409 C 0.94432 0.33565 0.09817 0.0
C1410 C 0.96151 0.35616 0.10273 0.0
C1411 C 0.95506 0.31131 0.0953 0.0
C1412 C 0.98324 0.30709 0.09657 0.0
C1413 C 1.00042 0.32779 0.10051 0.0
C1414 C 0.98969 0.35201 0.1036 0.0
C1415 C 0.9947 0.28096 0.09512 0.0
C1416 C 0.01169 0.2724 0.11032 0.0
C1417 C 0.98811 0.26413 0.07956 0.0
C1418 C 0.97178 0.27237 0.0624 0.0
C1419 C 0.97951 0.29381 0.05144 0.0
C1420 C 0.96396 0.30157 0.03536 0.0
C1421 C 0.94071 0.28796 0.03001 0.0
C1422 C 0.93302 0.26651 0.0407 0.0
C1423 C 0.94849 0.25867 0.0568 0.0
H1424 H 0.9287 0.294 0.01755 0.0
H1425 H 0.082 0.21783 0.17222 0.0
H1426 H 0.42414 0.84564 0.0926 0.0
H1427 H 0.44252 0.80307 0.0869 0.0
H1428 H 0.52344 0.83094 0.09821 0.0
H1429 H 0.50525 0.87346 0.10404 0.0
H1430 H 0.52103 0.79455 0.06719 0.0
H1431 H 0.49165 0.80522 0.13439 0.0
H1432 H 0.45875 0.81604 0.16039 0.0
H1433 H 0.40454 0.75811 0.13939 0.0
H1434 H 0.43698 0.74721 0.11306 0.0
H1435 H 0.58701 0.67944 0.09713 0.0
H1436 H 0.56947 0.72244 0.09198 0.0
H1437 H 0.4875 0.69317 0.09217 0.0
H1438 H 0.50488 0.65055 0.09802 0.0
H1439 H 0.48996 0.73077 0.11581 0.0
H1440 H 0.52023 0.7178 0.04968 0.0
H1441 H 0.55273 0.70708 0.02339 0.0
H1442 H 0.60456 0.76844 0.04146 0.0
H1443 H 0.57253 0.77932 0.06803 0.0
C1444 C 0.44589 0.84282 0.09348 0.0
C1445 C 0.46321 0.86286 0.09893 0.0
C1446 C 0.45636 0.81848 0.09026 0.0
C1447 C 0.48432 0.81381 0.09232 0.0
C1448 C 0.50182 0.83412 0.09654 0.0
C1449 C 0.49136 0.85839 0.09994 0.0
C1450 C 0.49498 0.78746 0.09198 0.0
C1451 C 0.51442 0.78057 0.07786 0.0
C1452 C 0.48604 0.76918 0.10573 0.0
C1453 C 0.4666 0.7756 0.12163 0.0
C1454 C 0.47262 0.79494 0.13522 0.0
C1455 C 0.45407 0.80106 0.15003 0.0
C1456 C 0.42953 0.78782 0.15151 0.0
C1457 C 0.42353 0.76838 0.1382 0.0
C1458 C 0.44199 0.76222 0.12334 0.0
C1459 C 0.5653 0.68218 0.09568 0.0
C1460 C 0.54732 0.66168 0.09808 0.0
C1461 C 0.55526 0.70676 0.09268 0.0
C1462 C 0.52708 0.71116 0.09163 0.0
C1463 C 0.50928 0.69039 0.09305 0.0
C1464 C 0.51925 0.66599 0.09634 0.0
C1465 C 0.5159 0.73742 0.09078 0.0
C1466 C 0.49645 0.74447 0.10488 0.0
C1467 C 0.52479 0.75571 0.07693 0.0
C1468 C 0.54409 0.74922 0.06097 0.0
C1469 C 0.53866 0.72888 0.04815 0.0
C1470 C 0.55698 0.7228 0.03318 0.0
C1471 C 0.58073 0.73703 0.03079 0.0
C1472 C 0.58617 0.75741 0.04334 0.0
C1473 C 0.56793 0.76356 0.05835 0.0
H1474 H 0.59489 0.73229 0.01919 0.0
H1475 H 0.4152 0.79259 0.16299 0.0
H1476 H 0.49074 0.64471 0.36545 0.0
H1477 H 0.50607 0.68783 0.3721 0.0
H1478 H 0.44443 0.69549 0.41686 0.0
H1479 H 0.42781 0.6527 0.40915 0.0
H1480 H 0.44606 0.73663 0.39998 0.0
H1481 H 0.51693 0.6878 0.42679 0.0
H1482 H 0.55207 0.65462 0.42865 0.0
H1483 H 0.59551 0.68958 0.38112 0.0
H1484 H 0.56043 0.72279 0.37879 0.0
H1485 H 0.56244 0.8398 0.41854 0.0
H1486 H 0.54481 0.79655 0.42295 0.0
H1487 H 0.48565 0.80992 0.37731 0.0
H1488 H 0.50189 0.8532 0.37389 0.0
H1489 H 0.54423 0.75776 0.40251 0.0
H1490 H 0.43102 0.77495 0.37946 0.0
H1491 H 0.39581 0.80769 0.38388 0.0
H1492 H 0.43664 0.83514 0.43546 0.0
H1493 H 0.4719 0.80236 0.43152 0.0
C1494 C 0.48052 0.65554 0.37678 0.0
C1495 C 0.45816 0.64527 0.38685 0.0
C1496 C 0.48947 0.68022 0.38073 0.0
C1497 C 0.47698 0.69498 0.3954 0.0
C1498 C 0.45458 0.68464 0.40552 0.0
C1499 C 0.4451 0.66014 0.40115 0.0
C1500 C 0.48668 0.72145 0.39948 0.0
C1501 C 0.46754 0.74115 0.40067 0.0
C1502 C 0.51468 0.72759 0.40119 0.0
C1503 C 0.53593 0.70771 0.40254 0.0
C1504 C 0.53388 0.68833 0.41666 0.0
C1505 C 0.55381 0.66952 0.4178 0.0
C1506 C 0.57598 0.66997 0.40499 0.0
C1507 C 0.57831 0.68925 0.39103 0.0
C1508 C 0.55843 0.7081 0.38981 0.0
C1509 C 0.54532 0.83357 0.40977 0.0
C1510 C 0.53334 0.85003 0.39607 0.0
C1511 C 0.53531 0.80878 0.4122 0.0
C1512 C 0.51343 0.79984 0.40074 0.0
C1513 C 0.50179 0.81635 0.38691 0.0
C1514 C 0.51128 0.84119 0.38486 0.0
C1515 C 0.50363 0.77298 0.40227 0.0
C1516 C 0.52274 0.7532 0.40212 0.0
C1517 C 0.47558 0.76668 0.4025 0.0
C1518 C 0.45422 0.78627 0.4051 0.0
C1519 C 0.43241 0.78787 0.39181 0.0
C1520 C 0.41246 0.80646 0.39421 0.0
C1521 C 0.41402 0.82352 0.40991 0.0
C1522 C 0.4355 0.82197 0.42327 0.0
C1523 C 0.45549 0.8034 0.42095 0.0
H1524 H 0.39857 0.83791 0.41173 0.0
H1525 H 0.59138 0.65538 0.4059 0.0
H1526 H 0.07199 0.33444 0.40745 0.0
H1527 H 0.055 0.29072 0.40983 0.0
H1528 H 0.97978 0.31347 0.38268 0.0
H1529 H 0.99644 0.35703 0.38034 0.0
H1530 H 0.00775 0.26718 0.42669 0.0
H1531 H 0.96523 0.26803 0.34796 0.0
H1532 H 0.9726 0.29049 0.31661 0.0
H1533 H 0.05605 0.30357 0.33207 0.0
H1534 H 0.04927 0.28087 0.36335 0.0
H1535 H 0.92554 0.15637 0.40501 0.0
H1536 H 0.94241 0.19994 0.40935 0.0
H1537 H 0.01354 0.18168 0.37522 0.0
H1538 H 0.99705 0.13833 0.37096 0.0
H1539 H 0.989 0.22544 0.36268 0.0
H1540 H 0.01933 0.18855 0.42337 0.0
H1541 H 0.01391 0.16567 0.4547 0.0
H1542 H 0.95892 0.223 0.47528 0.0
H1543 H 0.96372 0.24605 0.44394 0.0
C1544 C 0.05166 0.33021 0.40228 0.0
C1545 C 0.03565 0.34922 0.39358 0.0
C1546 C 0.04195 0.30523 0.40371 0.0
C1547 C 0.01622 0.29878 0.39627 0.0
C1548 C 0.99977 0.31796 0.38839 0.0
C1549 C 0.00935 0.3429 0.38709 0.0
C1550 C 0.00733 0.2718 0.39527 0.0
C1551 C 0.00356 0.25805 0.41272 0.0
C1552 C 0.00216 0.25978 0.37703 0.0
C1553 C 0.00664 0.27299 0.35807 0.0
C1554 C 0.98517 0.27561 0.34462 0.0
C1555 C 0.98924 0.28839 0.32687 0.0
C1556 C 0.01475 0.29853 0.32238 0.0
C1557 C 0.03628 0.2958 0.33559 0.0
C1558 C 0.03232 0.283 0.35334 0.0
C1559 C 0.94489 0.1616 0.3986 0.0
C1560 C 0.95992 0.14385 0.38763 0.0
C1561 C 0.95453 0.18648 0.40112 0.0
C1562 C 0.97926 0.19409 0.39261 0.0
C1563 C 0.99439 0.17629 0.38188 0.0
C1564 C 0.98494 0.15145 0.37952 0.0
C1565 C 0.98904 0.22078 0.39412 0.0
C1566 C 0.99299 0.23454 0.3767 0.0
C1567 C 0.99454 0.23267 0.41237 0.0
C1568 C 0.99166 0.21888 0.43123 0.0
C1569 C 0.00589 0.19616 0.4345 0.0
C1570 C 0.00297 0.18319 0.45228 0.0
C1571 C 0.98602 0.19284 0.46695 0.0
C1572 C 0.97201 0.21553 0.46389 0.0
C1573 C 0.97484 0.22856 0.44613 0.0
H1574 H 0.98379 0.18277 0.4807 0.0
H1575 H 0.01785 0.30845 0.30865 0.0
H1576 H 1.00082 0.63451 0.89765 0.0
H1577 H 0.98129 0.67658 0.9029 0.0
H1578 H 0.06157 0.70959 0.90084 0.0
H1579 H 0.08124 0.66729 0.8967 0.0
H1580 H 0.0339 0.73464 0.9259 0.0
H1581 H 0.01502 0.70689 0.85971 0.0
H1582 H 0.99659 0.67951 0.83344 0.0
H1583 H 0.91616 0.6885 0.85683 0.0
H1584 H 0.93415 0.71563 0.8834 0.0
H1585 H 0.002 0.85759 0.88951 0.0
H1586 H 0.0176 0.81437 0.89559 0.0
H1587 H 0.93518 0.79084 0.90716 0.0
H1588 H 0.91935 0.83424 0.90108 0.0
H1589 H 0.96066 0.76056 0.88012 0.0
H1590 H 0.98053 0.79299 0.94418 0.0
H1591 H 0.99994 0.82302 0.9682 0.0
H1592 H 0.08017 0.8073 0.94665 0.0
H1593 H 0.06121 0.77743 0.9223 0.0
C1594 C 0.01432 0.65072 0.89863 0.0
C1595 C 0.04254 0.64766 0.89664 0.0
C1596 C 0.00312 0.67482 0.90146 0.0
C1597 C 0.01982 0.6965 0.90169 0.0
C1598 C 0.04816 0.69327 0.90062 0.0
C1599 C 0.05942 0.66907 0.89825 0.0
C1600 C 0.00783 0.7225 0.90222 0.0
C1601 C 0.01804 0.74031 0.91575 0.0
C1602 C 0.98666 0.72997 0.88931 0.0
C1603 C 0.97598 0.71307 0.87365 0.0
C1604 C 0.99345 0.70281 0.85936 0.0
C1605 C 0.98307 0.68737 0.8444 0.0
C1606 C 0.95522 0.68228 0.84348 0.0
C1607 C 0.93772 0.69246 0.85758 0.0
C1608 C 0.94799 0.70785 0.87258 0.0
C1609 C 0.9872 0.84333 0.89363 0.0
C1610 C 0.9594 0.84934 0.89477 0.0
C1611 C 0.99619 0.81863 0.8972 0.0
C1612 C 0.9776 0.79936 0.90195 0.0
C1613 C 0.94989 0.80543 0.90358 0.0
C1614 C 0.94089 0.83024 0.90016 0.0
C1615 C 0.98694 0.77262 0.90359 0.0
C1616 C 0.97628 0.75473 0.89042 0.0
C1617 C 0.00792 0.76524 0.9166 0.0
C1618 C 0.01941 0.78309 0.93131 0.0
C1619 C 0.00229 0.79607 0.94446 0.0
C1620 C 0.01322 0.81304 0.95816 0.0
C1621 C 0.04126 0.8171 0.95893 0.0
C1622 C 0.05845 0.80415 0.94603 0.0
C1623 C 0.04762 0.78716 0.9323 0.0
H1624 H 0.04968 0.83025 0.96954 0.0
H1625 H 0.94716 0.67057 0.83179 0.0
H1626 H 0.5046 0.35957 0.88591 0.0
H1627 H 0.51974 0.31582 0.88919 0.0
H1628 H 0.44269 0.29528 0.91476 0.0
H1629 H 0.42703 0.33936 0.91131 0.0
H1630 H 0.49329 0.27096 0.9322 0.0
H1631 H 0.44488 0.28313 0.87111 0.0
H1632 H 0.43465 0.30605 0.84044 0.0
H1633 H 0.51688 0.29562 0.82099 0.0
H1634 H 0.52768 0.27291 0.85171 0.0
H1635 H 0.50399 0.14236 0.87551 0.0
H1636 H 0.48548 0.1847 0.88091 0.0
H1637 H 0.55854 0.20646 0.91165 0.0
H1638 H 0.57737 0.16391 0.90622 0.0
H1639 H 0.50621 0.22933 0.8674 0.0
H1640 H 0.53894 0.25129 0.9472 0.0
H1641 H 0.54784 0.22849 0.97817 0.0
H1642 H 0.49345 0.16895 0.9604 0.0
H1643 H 0.48393 0.19155 0.92948 0.0
C1644 C 0.49093 0.34594 0.89257 0.0
C1645 C 0.46446 0.35292 0.89818 0.0
C1646 C 0.4997 0.32092 0.89445 0.0
C1647 C 0.48229 0.30233 0.90208 0.0
C1648 C 0.45644 0.30943 0.90888 0.0
C1649 C 0.44751 0.33457 0.90686 0.0
C1650 C 0.49026 0.27527 0.90085 0.0
C1651 C 0.49608 0.26177 0.91808 0.0
C1652 C 0.49365 0.2633 0.8824 0.0
C1653 C 0.48713 0.27651 0.86376 0.0
C1654 C 0.46082 0.28587 0.86035 0.0
C1655 C 0.45491 0.29879 0.84296 0.0
C1656 C 0.47511 0.30232 0.82879 0.0
C1657 C 0.50125 0.29287 0.83198 0.0
C1658 C 0.50727 0.27994 0.84937 0.0
C1659 C 0.51611 0.15604 0.88356 0.0
C1660 C 0.54222 0.14977 0.89039 0.0
C1661 C 0.50549 0.18028 0.88659 0.0
C1662 C 0.52056 0.19873 0.89672 0.0
C1663 C 0.54644 0.19244 0.90394 0.0
C1664 C 0.55722 0.16816 0.90077 0.0
C1665 C 0.50961 0.22486 0.89877 0.0
C1666 C 0.50336 0.23834 0.88159 0.0
C1667 C 0.50565 0.23662 0.91728 0.0
C1668 C 0.51096 0.22301 0.93593 0.0
C1669 C 0.52881 0.23338 0.94994 0.0
C1670 C 0.53397 0.22048 0.96748 0.0
C1671 C 0.52129 0.19725 0.97122 0.0
C1672 C 0.50335 0.1869 0.95745 0.0
C1673 C 0.4981 0.19972 0.9399 0.0
H1674 H 0.52532 0.18729 0.9848 0.0
H1675 H 0.47045 0.31231 0.81534 0.0
H1676 H 0.43145 0.17106 0.5854 0.0
H1677 H 0.4476 0.2146 0.57978 0.0
H1678 H 0.51184 0.20282 0.62196 0.0
H1679 H 0.4969 0.15932 0.6266 0.0
H1680 H 0.45032 0.25405 0.59989 0.0
H1681 H 0.56613 0.23731 0.61528 0.0
H1682 H 0.60065 0.20451 0.60876 0.0
H1683 H 0.55316 0.17613 0.56057 0.0
H1684 H 0.51853 0.20897 0.56661 0.0
H1685 H 0.50868 0.36738 0.63255 0.0
H1686 H 0.49197 0.32448 0.62689 0.0
H1687 H 0.54805 0.31602 0.57852 0.0
H1688 H 0.56621 0.35852 0.58522 0.0
H1689 H 0.54835 0.27524 0.59558 0.0
H1690 H 0.47437 0.32373 0.57326 0.0
H1691 H 0.43909 0.35688 0.57345 0.0
H1692 H 0.40181 0.32253 0.62388 0.0
H1693 H 0.43708 0.28937 0.62417 0.0
C1694 C 0.44927 0.17774 0.5932 0.0
C1695 C 0.4631 0.16164 0.60624 0.0
C1696 C 0.45845 0.20267 0.59006 0.0
C1697 C 0.48139 0.21207 0.60012 0.0
C1698 C 0.49477 0.196 0.61341 0.0
C1699 C 0.48604 0.17105 0.61618 0.0
C1700 C 0.49081 0.23889 0.59758 0.0
C1701 C 0.47175 0.25864 0.59879 0.0
C1702 C 0.51869 0.24518 0.59535 0.0
C1703 C 0.53963 0.22553 0.5915 0.0
C1704 C 0.56312 0.22418 0.60322 0.0
C1705 C 0.58269 0.20555 0.59962 0.0
C1706 C 0.57907 0.18821 0.58429 0.0
C1707 C 0.5559 0.18952 0.57248 0.0
C1708 C 0.53628 0.20812 0.576 0.0
C1709 C 0.51734 0.35643 0.62062 0.0
C1710 C 0.53868 0.36635 0.60927 0.0
C1711 C 0.50757 0.33189 0.61725 0.0
C1712 C 0.51815 0.31693 0.60192 0.0
C1713 C 0.53939 0.327 0.59043 0.0
C1714 C 0.54974 0.35135 0.5942 0.0
C1715 C 0.50795 0.29044 0.59867 0.0
C1716 C 0.52688 0.27073 0.59638 0.0
C1717 C 0.47986 0.28427 0.59891 0.0
C1718 C 0.4585 0.30414 0.5988 0.0
C1719 C 0.45875 0.32333 0.58446 0.0
C1720 C 0.43874 0.34212 0.58448 0.0
C1721 C 0.41825 0.34183 0.59868 0.0
C1722 C 0.4177 0.32273 0.61288 0.0
C1723 C 0.43767 0.3039 0.61295 0.0
H1724 H 0.40278 0.3564 0.59867 0.0
H1725 H 0.59423 0.1738 0.58154 0.0
H1726 H 0.07943 0.84878 0.59421 0.0
H1727 H 0.0623 0.80532 0.58947 0.0
H1728 H 0.99211 0.8229 0.62479 0.0
H1729 H 0.00867 0.8663 0.62921 0.0
H1730 H 0.02025 0.77669 0.63538 0.0
H1731 H 0.98198 0.81972 0.57916 0.0
H1732 H 0.98426 0.84557 0.54904 0.0
H1733 H 0.03615 0.79013 0.52208 0.0
H1734 H 0.03451 0.76412 0.55218 0.0
H1735 H 0.92853 0.6736 0.59207 0.0
H1736 H 0.94626 0.71712 0.59011 0.0
H1737 H 0.02486 0.6909 0.60914 0.0
H1738 H 0.00746 0.64761 0.61112 0.0
H1739 H 0.99154 0.7418 0.57082 0.0
H1740 H 0.04613 0.73184 0.64464 0.0
H1741 H 0.04409 0.70502 0.67431 0.0
H1742 H 0.95827 0.69474 0.66611 0.0
H1743 H 0.95976 0.72173 0.63655 0.0
C1744 C 0.06029 0.84339 0.60088 0.0
C1745 C 0.04539 0.861 0.61206 0.0
C1746 C 0.05052 0.81859 0.59813 0.0
C1747 C 0.02593 0.8109 0.60678 0.0
C1748 C 0.01113 0.82843 0.618 0.0
C1749 C 0.0206 0.85326 0.62044 0.0
C1750 C 0.01569 0.7845 0.60451 0.0
C1751 C 0.01406 0.76906 0.62125 0.0
C1752 C 0.00747 0.77456 0.58611 0.0
C1753 C 0.00836 0.79012 0.56799 0.0
C1754 C 0.99409 0.81315 0.56688 0.0
C1755 C 0.99521 0.82781 0.54979 0.0
C1756 C 0.0104 0.81953 0.53368 0.0
C1757 C 0.02443 0.79654 0.53459 0.0
C1758 C 0.02339 0.78183 0.55165 0.0
C1759 C 0.94973 0.67703 0.59542 0.0
C1760 C 0.96649 0.65715 0.60193 0.0
C1761 C 0.95984 0.7019 0.59427 0.0
C1762 C 0.98679 0.70729 0.59973 0.0
C1763 C 0.00394 0.68723 0.60505 0.0
C1764 C 0.99392 0.66245 0.60615 0.0
C1765 C 0.99636 0.73397 0.60166 0.0
C1766 C 0.99787 0.74942 0.58491 0.0
C1767 C 0.00451 0.74398 0.62007 0.0
C1768 C 0.00312 0.72864 0.63831 0.0
C1769 C 0.0268 0.724 0.64926 0.0
C1770 C 0.02575 0.70874 0.66603 0.0
C1771 C 1.00109 0.69812 0.67206 0.0
C1772 C 0.97738 0.7029 0.6614 0.0
C1773 C 0.97832 0.71817 0.64463 0.0
H1774 H 1.00034 0.68622 0.68499 0.0
H1775 H 0.01125 0.8309 0.52046 0.0
H1776 H 0.96561 1.00365 0.91454 0.0
H1777 H 0.98209 0.01887 0.94612 0.0
H1778 H 0.97955 0.94265 0.96901 0.0
H1779 H 0.96244 0.92714 0.93736 0.0
H1780 H 0.96059 0.97673 0.99546 0.0
H1781 H 0.0393 0.96902 0.95435 0.0
H1782 H 0.0664 0.97598 0.92437 0.0
H1783 H 0.06425 0.05644 0.93416 0.0
H1784 H 0.03674 0.04999 0.96405 0.0
H1785 H 0.04141 0.99841 0.07864 0.0
H1786 H 0.02617 0.98311 0.04676 0.0
H1787 H 0.02711 0.05958 0.02433 0.0
H1788 H 0.04288 0.07521 0.05633 0.0
H1789 H 0.04703 0.02537 0.99766 0.0
H1790 H 0.96827 0.03299 0.03878 0.0
H1791 H 0.94151 0.02594 0.06891 0.0
H1792 H 0.9439 0.94549 0.05911 0.0
H1793 H 0.97112 0.95203 0.02909 0.0
C1794 C 0.96847 0.99002 0.92625 0.0
C1795 C 0.96292 0.96408 0.92333 0.0
C1796 C 0.97799 0.9988 0.94431 0.0
C1797 C 0.98256 0.98184 0.95979 0.0
C1798 C 0.97629 0.95604 0.95719 0.0
C1799 C 0.96654 0.94721 0.9391 0.0
C1800 C 0.99422 0.99114 0.97856 0.0
C1801 C 0.97968 0.98704 0.99599 0.0
C1802 C 0.01882 0.00513 0.97915 0.0
C1803 C 0.03576 0.00903 0.96136 0.0
C1804 C 0.04446 0.98821 0.95005 0.0
C1805 C 0.0599 0.99206 0.93307 0.0
C1806 C 0.06699 0.01663 0.92734 0.0
C1807 C 0.05872 0.03741 0.93861 0.0
C1808 C 0.04322 0.03367 0.95558 0.0
C1809 C 0.03854 0.01206 0.06695 0.0
C1810 C 0.0431 0.03812 0.07013 0.0
C1811 C 0.02976 1.00324 0.04872 0.0
C1812 C 0.02499 0.02026 0.03332 0.0
C1813 C 0.03054 0.04616 0.03611 0.0
C1814 C 0.03953 0.05505 0.05439 0.0
C1815 C 0.01342 0.01094 0.01454 0.0
C1816 C 0.02795 0.01505 0.99712 0.0
C1817 C 0.98882 0.99695 0.01395 0.0
C1818 C 0.97194 0.993 0.03177 0.0
C1819 C 0.96323 0.01379 0.04311 0.0
C1820 C 0.94797 0.00988 0.06017 0.0
C1821 C 0.94105 0.98528 0.06594 0.0
C1822 C 0.9493 0.96454 0.05463 0.0
C1823 C 0.96463 0.96833 0.03758 0.0
H1824 H 0.92927 0.9823 0.07917 0.0
H1825 H 0.07893 0.01958 0.91418 0.0
H1826 H 0.55098 0.07767 0.93967 0.0
H1827 H 0.53286 0.0676 0.97224 0.0
H1828 H 0.50647 0.99442 0.95111 0.0
H1829 H 0.5241 0.00428 0.91861 0.0
H1830 H 0.46757 0.01708 0.97284 0.0
H1831 H 0.56372 1.00029 0.97833 0.0
H1832 H 0.61243 0.01107 0.97641 0.0
H1833 H 0.60113 0.07048 0.01885 0.0
H1834 H 0.55225 0.06026 0.02082 0.0
H1835 H 0.44917 0.94548 0.05927 0.0
H1836 H 0.46467 0.96242 0.02788 0.0
H1837 H 0.48787 0.03241 0.05623 0.0
H1838 H 0.47276 0.01557 0.08781 0.0
H1839 H 0.52707 0.01576 0.03168 0.0
H1840 H 0.43144 0.03018 0.0282 0.0
H1841 H 0.38286 0.01898 0.03029 0.0
H1842 H 0.39297 0.96412 0.98418 0.0
H1843 H 0.44172 0.97472 0.982 0.0
C1844 C 0.54132 0.05943 0.94194 0.0
C1845 C 0.53915 0.04175 0.9265 0.0
C1846 C 0.53104 0.0537 0.96058 0.0
C1847 C 0.5185 0.03019 0.96411 0.0
C1848 C 0.51604 0.01268 0.94869 0.0
C1849 C 0.52629 0.01834 0.93012 0.0
C1850 C 0.50803 0.02354 0.98385 0.0
C1851 C 0.48061 0.0166 0.98569 0.0
C1852 C 0.5249 0.02359 0.00068 0.0
C1853 C 0.55428 0.0297 -0.00045 0.0
C1854 C 0.57158 0.01579 0.98713 0.0
C1855 C 0.59923 0.02177 0.98605 0.0
C1856 C 0.60985 0.0415 0.99745 0.0
C1857 C 0.59286 0.05524 0.01 0.0
C1858 C 0.56519 0.04935 0.01111 0.0
C1859 C 0.45746 0.96451 0.05888 0.0
C1860 C 0.45961 0.97916 0.07611 0.0
C1861 C 0.46622 0.97421 0.04088 0.0
C1862 C 0.47713 0.99878 0.0397 0.0
C1863 C 0.47943 0.01343 0.05683 0.0
C1864 C 0.47068 1.00376 0.07486 0.0
C1865 C 0.4867 0.00888 0.02061 0.0
C1866 C 0.51394 0.01649 0.01889 0.0
C1867 C 0.46966 0.00944 0.00388 0.0
C1868 C 0.44029 1.00311 0.00505 0.0
C1869 C 0.42335 0.01559 0.0186 0.0
C1870 C 0.39578 0.00937 0.01979 0.0
C1871 C 0.38485 0.99081 0.0074 0.0
C1872 C 0.40147 0.97848 0.99377 0.0
C1873 C 0.42907 0.98461 0.99254 0.0
H1874 H 0.36349 0.98602 0.00835 0.0
H1875 H 0.63126 0.0461 0.9966 0.0
H1876 H 0.47017 0.00742 0.58182 0.0
H1877 H 0.48501 0.99267 0.54978 0.0
H1878 H 0.47702 0.0684 0.52662 0.0
H1879 H 0.46161 0.08351 0.55888 0.0
H1880 H 0.4572 0.03231 0.50125 0.0
H1881 H 0.53889 0.04577 0.53792 0.0
H1882 H 0.56926 0.04181 0.56655 0.0
H1883 H 0.57094 0.96092 0.55915 0.0
H1884 H 0.5402 0.96434 0.53066 0.0
H1885 H 0.53182 0.00632 0.41473 0.0
H1886 H 0.5169 0.0238 0.446 0.0
H1887 H 0.52447 0.9501 0.47285 0.0
H1888 H 0.53994 0.93232 0.44154 0.0
H1889 H 0.5453 0.98709 0.49604 0.0
H1890 H 0.46254 0.97349 0.46011 0.0
H1891 H 0.43181 0.97726 0.43166 0.0
H1892 H 0.43212 0.05836 0.43771 0.0
H1893 H 0.4632 0.05509 0.46603 0.0
C1894 C 0.47149 0.02108 0.56999 0.0
C1895 C 0.46488 0.04678 0.57304 0.0
C1896 C 0.48008 0.01256 0.55165 0.0
C1897 C 0.4826 0.02951 0.53591 0.0
C1898 C 0.47535 0.05504 0.53864 0.0
C1899 C 0.4666 0.06364 0.55707 0.0
C1900 C 0.49307 0.02032 0.51675 0.0
C1901 C 0.47666 0.02281 0.50002 0.0
C1902 C 0.51821 0.00741 0.51528 0.0
C1903 C 0.53706 0.00531 0.53223 0.0
C1904 C 0.54559 0.02712 0.54247 0.0
C1905 C 0.56289 0.02497 0.55867 0.0
C1906 C 0.57198 1.00112 0.56469 0.0
C1907 C 0.56386 0.97938 0.55448 0.0
C1908 C 0.54652 0.98141 0.53829 0.0
C1909 C 0.53038 0.99371 0.42723 0.0
C1910 C 0.53702 0.96781 0.42553 0.0
C1911 C 0.52171 1.00378 0.44511 0.0
C1912 C 0.5192 0.9882 0.46169 0.0
C1913 C 0.52619 0.96245 0.4602 0.0
C1914 C 0.53497 0.95231 0.44228 0.0
C1915 C 0.50934 0.99888 0.48056 0.0
C1916 C 0.52589 0.99669 0.49724 0.0
C1917 C 0.48434 0.01206 0.48197 0.0
C1918 C 0.46541 0.01405 0.46508 0.0
C1919 C 0.45621 0.99214 0.45529 0.0
C1920 C 0.43871 0.99419 0.4392 0.0
C1921 C 0.43007 0.01804 0.43285 0.0
C1922 C 0.43885 0.0399 0.44263 0.0
C1923 C 0.45639 0.03796 0.45871 0.0
H1924 H 0.41653 0.01959 0.42038 0.0
H1925 H 0.58535 0.9995 0.57725 0.0
H1926 H 0.05681 0.00997 0.57311 0.0
H1927 H 0.04069 0.02089 0.54047 0.0
H1928 H 0.02811 0.94168 0.52734 0.0
H1929 H 0.04443 0.93035 0.56031 0.0
H1930 H 0.05031 0.97091 0.49554 0.0
H1931 H 0.9759 0.9737 0.54109 0.0
H1932 H 0.95397 0.98617 0.57219 0.0
H1933 H 0.96185 0.06474 0.55662 0.0
H1934 H 0.98434 0.05276 0.52557 0.0
H1935 H 0.96327 0.99071 0.41511 0.0
H1936 H 0.98165 0.97724 0.44654 0.0
H1937 H 0.98664 0.05525 0.46547 0.0
H1938 H 0.96754 0.06903 0.43397 0.0
H1939 H 0.96803 0.02531 0.49442 0.0
H1940 H 0.043 0.02329 0.44952 0.0
H1941 H 0.0668 0.01165 0.41894 0.0
H1942 H 0.05915 0.93271 0.43343 0.0
H1943 H 0.0349 0.94387 0.46396 0.0
C1944 C 0.05089 0.99473 0.56329 0.0
C1945 C 0.05152 0.96926 0.56944 0.0
C1946 C 0.04169 1.00107 0.54461 0.0
C1947 C 0.03276 0.98214 0.53168 0.0
C1948 C 0.03482 0.95656 0.53722 0.0
C1949 C 0.04412 0.95013 0.55603 0.0
C1950 C 0.01975 0.98949 0.51296 0.0
C1951 C 0.03207 0.98245 0.49523 0.0
C1952 C 0.99635 0.00508 0.51269 0.0
C1953 C 0.98201 0.01233 0.53106 0.0
C1954 C 0.97309 0.99365 0.54434 0.0
C1955 C 0.96057 1.00062 0.56196 0.0
C1956 C 0.95657 0.02623 0.5664 0.0
C1957 C 0.96498 0.04491 0.55317 0.0
C1958 C 0.97761 0.03804 0.53555 0.0
C1959 C 0.96823 0.00511 0.42591 0.0
C1960 C 0.96415 0.03103 0.42192 0.0
C1961 C 0.97883 0.99732 0.44388 0.0
C1962 C 0.98603 0.01525 0.4582 0.0
C1963 C 0.98134 0.04111 0.45455 0.0
C1964 C 0.97046 0.04895 0.43655 0.0
C1965 C 0.99863 0.00685 0.47688 0.0
C1966 C 0.9862 0.0137 0.49465 0.0
C1967 C 0.02201 0.99117 0.47717 0.0
C1968 C 0.03691 0.98442 0.45894 0.0
C1969 C 0.04623 1.00344 0.44612 0.0
C1970 C 0.05982 0.99694 0.4288 0.0
C1971 C 0.06443 0.97146 0.42422 0.0
C1972 C 0.05553 0.95244 0.43698 0.0
C1973 C 0.04189 0.95884 0.45431 0.0
H1974 H 0.07494 0.96646 0.4108 0.0
H1975 H 0.94692 0.03159 0.58007 0.0
H1976 H 0.53086 0.50969 0.08197 0.0
H1977 H 0.51704 0.49407 0.04982 0.0
H1978 H 0.53857 0.56591 0.02384 0.0
H1979 H 0.55237 0.58196 0.05612 0.0
H1980 H 0.48907 0.54839 0.01109 0.0
H1981 H 0.57938 0.51618 0.01751 0.0
H1982 H 0.61712 0.49402 0.03395 0.0
H1983 H 0.57099 0.4248 0.03387 0.0
H1984 H 0.53277 0.44665 0.01771 0.0
H1985 H 0.48211 0.50601 0.9125 0.0
H1986 H 0.49857 0.52256 0.94374 0.0
H1987 H 0.47817 0.45188 0.97199 0.0
H1988 H 0.46176 0.43491 0.94067 0.0
H1989 H 0.5284 0.4696 0.98307 0.0
H1990 H 0.43765 0.50223 0.9777 0.0
H1991 H 0.39972 0.52448 0.96156 0.0
H1992 H 0.44689 0.59305 0.95977 0.0
H1993 H 0.48527 0.57109 0.97565 0.0
C1994 C 0.53274 0.52227 0.06948 0.0
C1995 C 0.54287 0.54711 0.07168 0.0
C1996 C 0.52491 0.51321 0.05107 0.0
C1997 C 0.5271 0.52872 0.03443 0.0
C1998 C 0.53684 0.55362 0.03653 0.0
C1999 C 0.54478 0.56272 0.05497 0.0
C2000 C 0.51881 0.5189 0.01493 0.0
C2001 C 0.49797 0.53141 0.00479 0.0
C2002 C 0.53004 0.4964 0.00699 0.0
C2003 C 0.5531 0.48313 0.01655 0.0
C2004 C 0.57719 0.49628 0.02113 0.0
C2005 C 0.59869 0.48376 0.03038 0.0
C2006 C 0.59643 0.45803 0.03499 0.0
C2007 C 0.57269 0.44474 0.03031 0.0
C2008 C 0.55112 0.45718 0.02108 0.0
C2009 C 0.48105 0.49389 0.92531 0.0
C2010 C 0.4704 0.46912 0.92404 0.0
C2011 C 0.49045 0.50345 0.94319 0.0
C2012 C 0.48931 0.48855 0.96021 0.0
C2013 C 0.47916 0.4637 0.959 0.0
C2014 C 0.4697 0.45408 0.9411 0.0
C2015 C 0.49858 0.49903 0.97928 0.0
C2016 C 0.51959 0.48664 0.98933 0.0
C2017 C 0.48754 0.52166 0.98715 0.0
C2018 C 0.46443 0.53494 0.97768 0.0
C2019 C 0.44002 0.522 0.97372 0.0
C2020 C 0.41842 0.53457 0.96464 0.0
C2021 C 0.42092 0.56015 0.95959 0.0
C2022 C 0.445 0.57323 0.96366 0.0
C2023 C 0.46667 0.56073 0.97271 0.0
H2024 H 0.40418 0.56985 0.95257 0.0
H2025 H 0.61307 0.44836 0.04216 0.0
H2026 H 0.9547 0.43158 0.05797 0.0
H2027 H 0.97181 0.44458 0.02579 0.0
H2028 H 0.98781 0.51968 0.04828 0.0
H2029 H 0.97057 0.50705 0.08037 0.0
H2030 H 0.96373 0.52135 0.01256 0.0
H2031 H 0.03891 0.47784 0.04253 0.0
H2032 H 0.06158 0.44191 0.05886 0.0
H2033 H 0.0451 0.39442 0.00894 0.0
H2034 H 0.02197 0.43 0.99241 0.0
H2035 H 0.05098 0.56863 0.93876 0.0
H2036 H 0.03331 0.5536 0.97017 0.0
H2037 H 0.01863 0.47976 0.94491 0.0
H2038 H 0.03648 0.49445 0.91346 0.0
H2039 H 0.04101 0.47632 0.98137 0.0
H2040 H 0.96685 0.52009 0.95102 0.0
H2041 H 0.94423 0.55599 0.93465 0.0
H2042 H 0.95858 0.60292 0.98523 0.0
H2043 H 0.98167 0.56737 0.00181 0.0
C2044 C 0.96176 0.45089 0.05608 0.0
C2045 C 0.96129 0.46823 0.07183 0.0
C2046 C 0.97164 0.45825 0.03769 0.0
C2047 C 0.9813 0.48303 0.03471 0.0
C2048 C 0.98044 0.50047 0.05027 0.0
C2049 C 0.97064 0.49315 0.06864 0.0
C2050 C 0.99252 0.49086 0.01544 0.0
C2051 C 0.98082 0.51169 0.00584 0.0
C2052 C 0.01441 0.47786 0.00648 0.0
C2053 C 0.02846 0.4565 0.01633 0.0
C2054 C 0.03993 0.45968 0.0351 0.0
C2055 C 0.0529 0.43939 0.04438 0.0
C2056 C 0.05471 0.41588 0.03496 0.0
C2057 C 0.04363 0.41263 0.01622 0.0
C2058 C 0.03061 0.43286 0.00689 0.0
C2059 C 0.04414 0.54915 0.93986 0.0
C2060 C 0.04508 0.53281 0.9235 0.0
C2061 C 0.03394 0.54062 0.95783 0.0
C2062 C 0.02435 0.51566 0.95979 0.0
C2063 C 0.02588 0.49911 0.94369 0.0
C2064 C 0.03604 0.5076 0.9257 0.0
C2065 C 0.01235 0.50694 0.97858 0.0
C2066 C 0.02388 0.48594 0.98807 0.0
C2067 C 0.99028 0.51977 0.98745 0.0
C2068 C 0.97622 0.54113 0.97758 0.0
C2069 C 0.96537 0.53812 0.9586 0.0
C2070 C 0.95243 0.5584 0.94929 0.0
C2071 C 0.95003 0.58174 0.95888 0.0
C2072 C 0.96049 0.58483 0.97782 0.0
C2073 C 0.97348 0.56462 0.98718 0.0
H2074 H 0.94001 0.59742 0.95164 0.0
H2075 H 0.06475 0.40019 0.04217 0.0
H2076 H 0.95866 0.50038 0.583 0.0
H2077 H 0.97385 0.48307 0.55168 0.0
H2078 H 0.97751 0.55853 0.5274 0.0
H2079 H 0.96173 0.57611 0.55867 0.0
H2080 H 0.95638 0.52547 0.50139 0.0
H2081 H 0.03471 0.52838 0.54352 0.0
H2082 H 0.06035 0.51964 0.57389 0.0
H2083 H 0.05206 0.43954 0.56393 0.0
H2084 H 0.02596 0.44781 0.53367 0.0
H2085 H 0.04007 0.50325 0.42002 0.0
H2086 H 0.02314 0.51762 0.45168 0.0
H2087 H 0.0198 0.44026 0.47209 0.0
H2088 H 0.0373 0.42554 0.44032 0.0
H2089 H 0.0396 0.47241 0.50018 0.0
H2090 H 0.96255 0.46979 0.45719 0.0
H2091 H 0.93739 0.47893 0.4267 0.0
H2092 H 0.94361 0.55886 0.43815 0.0
H2093 H 0.96922 0.55021 0.46856 0.0
C2094 C 0.96255 0.51337 0.57101 0.0
C2095 C 0.95916 0.53971 0.57344 0.0
C2096 C 0.97133 0.5034 0.55311 0.0
C2097 C 0.97729 0.51953 0.53731 0.0
C2098 C 0.97312 0.54574 0.53943 0.0
C2099 C 0.96414 0.55576 0.55733 0.0
C2100 C 0.98844 0.50908 0.51873 0.0
C2101 C 0.97474 0.51411 0.5011 0.0
C2102 C 0.01204 0.49373 0.51842 0.0
C2103 C 0.02816 0.48872 0.53643 0.0
C2104 C 0.03821 0.5089 0.54787 0.0
C2105 C 0.05283 0.50403 0.56506 0.0
C2106 C 0.05777 0.47905 0.57086 0.0
C2107 C 0.04818 0.45888 0.55944 0.0
C2108 C 0.03349 0.46365 0.54226 0.0
C2109 C 0.03585 0.48918 0.4312 0.0
C2110 C 0.03983 0.46316 0.42752 0.0
C2111 C 0.02608 0.49748 0.44931 0.0
C2112 C 0.01969 0.47999 0.4641 0.0
C2113 C 0.02446 0.45406 0.4608 0.0
C2114 C 0.03443 0.44569 0.44264 0.0
C2115 C 0.00764 0.48896 0.48284 0.0
C2116 C 0.02116 0.48365 0.50049 0.0
C2117 C 0.98389 0.5041 0.48317 0.0
C2118 C 0.96799 0.50935 0.46509 0.0
C2119 C 0.95869 0.48932 0.45316 0.0
C2120 C 0.94434 0.49441 0.43589 0.0
C2121 C 0.93895 0.51946 0.43047 0.0
C2122 C 0.94782 0.53946 0.44236 0.0
C2123 C 0.96223 0.53448 0.45962 0.0
H2124 H 0.92786 0.52336 0.41708 0.0
H2125 H 0.06908 0.47532 0.58418 0.0
H2126 H 0.52208 0.51457 0.58385 0.0
H2127 H 0.50499 0.52647 0.55169 0.0
H2128 H 0.53006 0.45416 0.52823 0.0
H2129 H 0.5477 0.44199 0.56054 0.0
H2130 H 0.5442 0.49364 0.50431 0.0
H2131 H 0.4641 0.46507 0.53763 0.0
H2132 H 0.43091 0.46322 0.56473 0.0
H2133 H 0.41263 0.54214 0.55669 0.0
H2134 H 0.44602 0.54457 0.52972 0.0
H2135 H 0.47128 0.49639 0.41605 0.0
H2136 H 0.48643 0.48561 0.44891 0.0
H2137 H 0.46401 0.5601 0.46949 0.0
H2138 H 0.44846 0.57127 0.43635 0.0
H2139 H 0.44847 0.52064 0.495 0.0
H2140 H 0.52833 0.54888 0.46129 0.0
H2141 H 0.56104 0.55028 0.43388 0.0
H2142 H 0.57951 0.47151 0.44255 0.0
H2143 H 0.54656 0.46952 0.46983 0.0
C2144 C 0.52406 0.50108 0.57192 0.0
C2145 C 0.5363 0.47724 0.57484 0.0
C2146 C 0.5141 0.50793 0.55353 0.0
C2147 C 0.51596 0.49109 0.53766 0.0
C2148 C 0.52838 0.46739 0.54036 0.0
C2149 C 0.53838 0.46045 0.55883 0.0
C2150 C 0.50524 0.49855 0.51819 0.0
C2151 C 0.52318 0.49919 0.5022 0.0
C2152 C 0.47799 0.50648 0.51563 0.0
C2153 C 0.45777 0.50505 0.53178 0.0
C2154 C 0.45317 0.48209 0.54174 0.0
C2155 C 0.43429 0.48092 0.55706 0.0
C2156 C 0.41973 0.50257 0.56246 0.0
C2157 C 0.42395 0.5254 0.55251 0.0
C2158 C 0.44284 0.52667 0.53719 0.0
C2159 C 0.46937 0.51059 0.42749 0.0
C2160 C 0.45874 0.53483 0.42347 0.0
C2161 C 0.47816 0.50435 0.44629 0.0
C2162 C 0.47667 0.52216 0.46152 0.0
C2163 C 0.4654 0.54614 0.45784 0.0
C2164 C 0.4566 0.55249 0.43891 0.0
C2165 C 0.4874 0.51559 0.48115 0.0
C2166 C 0.46949 0.51514 0.49715 0.0
C2167 C 0.51467 0.5078 0.48373 0.0
C2168 C 0.53479 0.509 0.4675 0.0
C2169 C 0.53922 0.5318 0.45726 0.0
C2170 C 0.55782 0.53271 0.44176 0.0
C2171 C 0.5723 0.51098 0.43645 0.0
C2172 C 0.56826 0.48832 0.44667 0.0
C2173 C 0.54964 0.4873 0.46217 0.0
H2174 H 0.58668 0.51172 0.42443 0.0
H2175 H 0.40512 0.50163 0.57433 0.0
loop_
_geom_bond_atom_site_label_1
_geom_bond_atom_site_label_2
_geom_bond_distance
_geom_bond_site_symmetry_2
_ccdc_geom_bond_type
Mn0 O5 2.095 . S
Mn0 O15 2.162 . S
Mn0 O16 2.297 . S
Mn0 O24 2.385 . S
Mn0 O25 2.209 . S
Mn0 O26 2.094 . S
Mn1 O6 2.121 . S
Mn1 N8 2.257 1_545 S
Mn1 N17 2.282 . S
Mn1 O25 2.215 . S
Mn1 O27 2.117 . S
C2 O24 1.234 . S
C2 O25 1.283 . S
C3 O15 1.281 . S
C3 O16 1.236 . S
C4 O26 1.240 . S
C4 O27 1.264 . S
O5 Mn0 2.095 . S
O5 C14 1.250 . S
O6 Mn1 2.121 . S
O6 C14 1.258 . S
C7 N8 1.326 1_655 S
C7 C11 1.460 . S
C7 H13 0.929 . S
N8 Mn1 2.257 1_565 S
N8 C7 1.326 1_455 S
N8 C12 1.362 . S
C9 C10 1.258 1_455 S
C9 C12 1.431 . S
C9 C29 1.449 . S
C10 C9 1.258 1_655 S
C10 C11 1.477 . S
C10 H30 0.931 . S
C11 C7 1.460 . S
C11 C10 1.477 . S
C11 H31 0.930 . S
C12 N8 1.362 . S
C12 C9 1.431 . S
C12 C22 1.476 . S
H13 C7 0.929 . S
C14 O5 1.250 . S
C14 O6 1.258 . S
O15 Mn0 2.162 . S
O15 C3 1.281 . S
O16 Mn0 2.297 . S
O16 C3 1.236 . S
N17 Mn1 2.282 . S
N17 C18 1.328 . S
N17 C22 1.318 1_545 S
C18 N17 1.328 . S
C18 C19 1.457 . S
C18 H23 0.929 . S
C19 C18 1.457 . S
C19 C20 1.291 1_545 S
C19 H32 0.931 . S
C20 C19 1.291 1_565 S
C20 C21 1.373 . S
C20 H33 0.929 . S
C21 C20 1.373 . S
C21 C22 1.396 . S
C21 C28 1.403 . S
C22 C12 1.476 . S
C22 N17 1.318 1_565 S
C22 C21 1.396 . S
H23 C18 0.929 . S
O24 Mn0 2.385 . S
O24 C2 1.234 . S
O25 Mn0 2.209 . S
O25 Mn1 2.215 . S
O25 C2 1.283 . S
O26 Mn0 2.094 . S
O26 C4 1.240 . S
O27 Mn1 2.117 . S
O27 C4 1.264 . S
C28 C21 1.403 . S
C28 C29 1.399 . S
C28 H34 0.929 . S
C29 C9 1.449 . S
C29 C28 1.399 . S
C29 H35 0.930 1_455 S
H30 C10 0.931 . S
H31 C11 0.930 . S
H32 C19 0.931 . S
H33 C20 0.929 . S
H34 C28 0.929 . S
H35 C29 0.930 1_655 S
Mn36 O41 2.095 . S
Mn36 O51 2.162 . S
Mn36 O52 2.297 . S
Mn36 O60 2.385 . S
Mn36 O61 2.209 . S
Mn36 O62 2.094 . S
Mn37 O42 2.121 . S
Mn37 N44 2.257 1_565 S
Mn37 N53 2.282 . S
Mn37 O61 2.215 . S
Mn37 O63 2.117 . S
C38 O60 1.234 . S
C38 O61 1.283 . S
C39 O51 1.281 . S
C39 O52 1.236 . S
C40 O62 1.240 . S
C40 O63 1.264 . S
O41 Mn36 2.095 . S
O41 C50 1.250 . S
O42 Mn37 2.121 . S
O42 C50 1.258 . S
C43 N44 1.326 . S
C43 C47 1.460 . S
C43 H49 0.929 . S
N44 Mn37 2.257 1_545 S
N44 C43 1.326 . S
N44 C48 1.362 . S
C45 C46 1.258 . S
C45 C48 1.431 . S
C45 C65 1.449 . S
C46 C45 1.258 . S
C46 C47 1.477 . S
C46 H66 0.931 . S
C47 C43 1.460 . S
C47 C46 1.477 . S
C47 H67 0.930 . S
C48 N44 1.362 . S
C48 C45 1.431 . S
C48 C58 1.476 . S
H49 C43 0.929 . S
C50 O41 1.250 . S
C50 O42 1.258 . S
O51 Mn36 2.162 . S
O51 C39 1.281 . S
O52 Mn36 2.297 . S
O52 C39 1.236 . S
N53 Mn37 2.282 . S
N53 C54 1.328 . S
N53 C58 1.318 1_565 S
C54 N53 1.328 . S
C54 C55 1.457 . S
C54 H59 0.929 . S
C55 C54 1.457 . S
C55 C56 1.291 1_565 S
C55 H68 0.931 . S
C56 C55 1.291 1_545 S
C56 C57 1.373 . S
C56 H69 0.929 . S
C57 C56 1.373 . S
C57 C58 1.396 . S
C57 C64 1.403 . S
C58 C48 1.476 . S
C58 N53 1.318 1_545 S
C58 C57 1.396 . S
H59 C54 0.929 . S
O60 Mn36 2.385 . S
O60 C38 1.234 . S
O61 Mn36 2.209 . S
O61 Mn37 2.215 . S
O61 C38 1.283 . S
O62 Mn36 2.094 . S
O62 C40 1.240 . S
O63 Mn37 2.117 . S
O63 C40 1.264 . S
C64 C57 1.403 . S
C64 C65 1.399 . S
C64 H70 0.929 . S
C65 C45 1.449 . S
C65 C64 1.399 . S
C65 H71 0.930 . S
H66 C46 0.931 . S
H67 C47 0.930 . S
H68 C55 0.931 . S
H69 C56 0.929 . S
H70 C64 0.929 . S
H71 C65 0.930 . S
Mn72 O77 2.095 . S
Mn72 O87 2.162 . S
Mn72 O88 2.297 . S
Mn72 O96 2.385 . S
Mn72 O97 2.209 . S
Mn72 O98 2.094 . S
Mn73 O78 2.121 . S
Mn73 N80 2.257 1_565 S
Mn73 N89 2.282 . S
Mn73 O97 2.215 . S
Mn73 O99 2.117 . S
C74 O96 1.234 . S
C74 O97 1.283 . S
C75 O87 1.281 . S
C75 O88 1.236 . S
C76 O98 1.240 . S
C76 O99 1.264 . S
O77 Mn72 2.095 . S
O77 C86 1.250 . S
O78 Mn73 2.121 . S
O78 C86 1.258 . S
C79 N80 1.326 . S
C79 C83 1.460 . S
C79 H85 0.929 . S
N80 Mn73 2.257 1_545 S
N80 C79 1.326 . S
N80 C84 1.362 . S
C81 C82 1.258 . S
C81 C84 1.431 . S
C81 C101 1.449 . S
C82 C81 1.258 . S
C82 C83 1.477 . S
C82 H102 0.931 . S
C83 C79 1.460 . S
C83 C82 1.477 . S
C83 H103 0.930 . S
C84 N80 1.362 . S
C84 C81 1.431 . S
C84 C94 1.476 . S
H85 C79 0.929 . S
C86 O77 1.250 . S
C86 O78 1.258 . S
O87 Mn72 2.162 . S
O87 C75 1.281 . S
O88 Mn72 2.297 . S
O88 C75 1.236 . S
N89 Mn73 2.282 . S
N89 C90 1.328 . S
N89 C94 1.318 1_565 S
C90 N89 1.328 . S
C90 C91 1.457 . S
C90 H95 0.929 . S
C91 C90 1.457 . S
C91 C92 1.291 1_565 S
C91 H104 0.931 . S
C92 C91 1.291 1_545 S
C92 C93 1.373 . S
C92 H105 0.929 . S
C93 C92 1.373 . S
C93 C94 1.396 . S
C93 C100 1.403 . S
C94 C84 1.476 . S
C94 N89 1.318 1_545 S
C94 C93 1.396 . S
H95 C90 0.929 . S
O96 Mn72 2.385 . S
O96 C74 1.234 . S
O97 Mn72 2.209 . S
O97 Mn73 2.215 . S
O97 C74 1.283 . S
O98 Mn72 2.094 . S
O98 C76 1.240 . S
O99 Mn73 2.117 . S
O99 C76 1.264 . S
C100 C93 1.403 . S
C100 C101 1.399 . S
C100 H106 0.929 . S
C101 C81 1.449 . S
C101 C100 1.399 . S
C101 H107 0.930 . S
H102 C82 0.931 . S
H103 C83 0.930 . S
H104 C91 0.931 . S
H105 C92 0.929 . S
H106 C100 0.929 . S
H107 C101 0.930 . S
Mn108 O113 2.095 . S
Mn108 O123 2.162 . S
Mn108 O124 2.297 . S
Mn108 O132 2.385 . S
Mn108 O133 2.209 . S
Mn108 O134 2.094 . S
Mn109 O114 2.121 . S
Mn109 N116 2.257 1_545 S
Mn109 N125 2.282 . S
Mn109 O133 2.215 . S
Mn109 O135 2.117 . S
C110 O132 1.234 . S
C110 O133 1.283 . S
C111 O123 1.281 . S
C111 O124 1.236 . S
C112 O134 1.240 . S
C112 O135 1.264 . S
O113 Mn108 2.095 . S
O113 C122 1.250 . S
O114 Mn109 2.121 . S
O114 C122 1.258 . S
C115 N116 1.326 1_455 S
C115 C119 1.460 . S
C115 H121 0.929 . S
N116 Mn109 2.257 1_565 S
N116 C115 1.326 1_655 S
N116 C120 1.362 . S
C117 C118 1.258 1_655 S
C117 C120 1.431 . S
C117 C137 1.449 . S
C118 C117 1.258 1_455 S
C118 C119 1.477 . S
C118 H138 0.931 . S
C119 C115 1.460 . S
C119 C118 1.477 . S
C119 H139 0.930 . S
C120 N116 1.362 . S
C120 C117 1.431 . S
C120 C130 1.476 . S
H121 C115 0.929 . S
C122 O113 1.250 . S
C122 O114 1.258 . S
O123 Mn108 2.162 . S
O123 C111 1.281 . S
O124 Mn108 2.297 . S
O124 C111 1.236 . S
N125 Mn109 2.282 . S
N125 C126 1.328 . S
N125 C130 1.318 1_545 S
C126 N125 1.328 . S
C126 C127 1.457 . S
C126 H131 0.929 . S
C127 C126 1.457 . S
C127 C128 1.291 1_545 S
C127 H140 0.931 . S
C128 C127 1.291 1_565 S
C128 C129 1.373 . S
C128 H141 0.929 . S
C129 C128 1.373 . S
C129 C130 1.396 . S
C129 C136 1.403 . S
C130 C120 1.476 . S
C130 N125 1.318 1_565 S
C130 C129 1.396 . S
H131 C126 0.929 . S
O132 Mn108 2.385 . S
O132 C110 1.234 . S
O133 Mn108 2.209 . S
O133 Mn109 2.215 . S
O133 C110 1.283 . S
O134 Mn108 2.094 . S
O134 C112 1.240 . S
O135 Mn109 2.117 . S
O135 C112 1.264 . S
C136 C129 1.403 . S
C136 C137 1.399 . S
C136 H142 0.929 . S
C137 C117 1.449 . S
C137 C136 1.399 . S
C137 H143 0.930 1_655 S
H138 C118 0.931 . S
H139 C119 0.930 . S
H140 C127 0.931 . S
H141 C128 0.929 . S
H142 C136 0.929 . S
H143 C137 0.930 1_455 S
Mn144 O149 2.095 . S
Mn144 O159 2.162 . S
Mn144 O160 2.297 . S
Mn144 O168 2.385 . S
Mn144 O169 2.209 . S
Mn144 O170 2.094 . S
Mn145 O150 2.121 . S
Mn145 N152 2.257 1_565 S
Mn145 N161 2.282 . S
Mn145 O169 2.215 . S
Mn145 O171 2.117 . S
C146 O168 1.234 . S
C146 O169 1.283 . S
C147 O159 1.281 . S
C147 O160 1.236 . S
C148 O170 1.240 . S
C148 O171 1.264 . S
O149 Mn144 2.095 . S
O149 C158 1.250 . S
O150 Mn145 2.121 . S
O150 C158 1.258 . S
C151 N152 1.326 1_455 S
C151 C155 1.460 . S
C151 H157 0.929 . S
N152 Mn145 2.257 1_545 S
N152 C151 1.326 1_655 S
N152 C156 1.362 . S
C153 C154 1.258 1_655 S
C153 C156 1.431 . S
C153 C173 1.449 . S
C154 C153 1.258 1_455 S
C154 C155 1.477 . S
C154 H174 0.931 . S
C155 C151 1.460 . S
C155 C154 1.477 . S
C155 H175 0.930 . S
C156 N152 1.362 . S
C156 C153 1.431 . S
C156 C166 1.476 . S
H157 C151 0.929 . S
C158 O149 1.250 . S
C158 O150 1.258 . S
O159 Mn144 2.162 . S
O159 C147 1.281 . S
O160 Mn144 2.297 . S
O160 C147 1.236 . S
N161 Mn145 2.282 . S
N161 C162 1.328 . S
N161 C166 1.318 1_565 S
C162 N161 1.328 . S
C162 C163 1.457 . S
C162 H167 0.929 . S
C163 C162 1.457 . S
C163 C164 1.291 1_565 S
C163 H176 0.931 . S
C164 C163 1.291 1_545 S
C164 C165 1.373 . S
C164 H177 0.929 . S
C165 C164 1.373 . S
C165 C166 1.396 . S
C165 C172 1.403 . S
C166 C156 1.476 . S
C166 N161 1.318 1_545 S
C166 C165 1.396 . S
H167 C162 0.929 . S
O168 Mn144 2.385 . S
O168 C146 1.234 . S
O169 Mn144 2.209 . S
O169 Mn145 2.215 . S
O169 C146 1.283 . S
O170 Mn144 2.094 . S
O170 C148 1.240 . S
O171 Mn145 2.117 . S
O171 C148 1.264 . S
C172 C165 1.403 . S
C172 C173 1.399 . S
C172 H178 0.929 . S
C173 C153 1.449 . S
C173 C172 1.399 . S
C173 H179 0.930 1_655 S
H174 C154 0.931 . S
H175 C155 0.930 . S
H176 C163 0.931 . S
H177 C164 0.929 . S
H178 C172 0.929 . S
H179 C173 0.930 1_455 S
Mn180 O185 2.095 . S
Mn180 O195 2.162 . S
Mn180 O196 2.297 . S
Mn180 O204 2.385 . S
Mn180 O205 2.209 . S
Mn180 O206 2.094 . S
Mn181 O186 2.121 . S
Mn181 N188 2.257 1_545 S
Mn181 N197 2.282 . S
Mn181 O205 2.215 . S
Mn181 O207 2.117 . S
C182 O204 1.234 . S
C182 O205 1.283 . S
C183 O195 1.281 . S
C183 O196 1.236 . S
C184 O206 1.240 . S
C184 O207 1.264 . S
O185 Mn180 2.095 . S
O185 C194 1.250 . S
O186 Mn181 2.121 . S
O186 C194 1.258 . S
C187 N188 1.326 . S
C187 C191 1.460 . S
C187 H193 0.929 . S
N188 Mn181 2.257 1_565 S
N188 C187 1.326 . S
N188 C192 1.362 . S
C189 C190 1.258 . S
C189 C192 1.431 . S
C189 C209 1.449 . S
C190 C189 1.258 . S
C190 C191 1.477 . S
C190 H210 0.931 . S
C191 C187 1.460 . S
C191 C190 1.477 . S
C191 H211 0.930 . S
C192 N188 1.362 . S
C192 C189 1.431 . S
C192 C202 1.476 . S
H193 C187 0.929 . S
C194 O185 1.250 . S
C194 O186 1.258 . S
O195 Mn180 2.162 . S
O195 C183 1.281 . S
O196 Mn180 2.297 . S
O196 C183 1.236 . S
N197 Mn181 2.282 . S
N197 C198 1.328 . S
N197 C202 1.318 1_545 S
C198 N197 1.328 . S
C198 C199 1.457 . S
C198 H203 0.929 . S
C199 C198 1.457 . S
C199 C200 1.291 1_545 S
C199 H212 0.931 . S
C200 C199 1.291 1_565 S
C200 C201 1.373 . S
C200 H213 0.929 . S
C201 C200 1.373 . S
C201 C202 1.396 . S
C201 C208 1.403 . S
C202 C192 1.476 . S
C202 N197 1.318 1_565 S
C202 C201 1.396 . S
H203 C198 0.929 . S
O204 Mn180 2.385 . S
O204 C182 1.234 . S
O205 Mn180 2.209 . S
O205 Mn181 2.215 . S
O205 C182 1.283 . S
O206 Mn180 2.094 . S
O206 C184 1.240 . S
O207 Mn181 2.117 . S
O207 C184 1.264 . S
C208 C201 1.403 . S
C208 C209 1.399 . S
C208 H214 0.929 . S
C209 C189 1.449 . S
C209 C208 1.399 . S
C209 H215 0.930 . S
H210 C190 0.931 . S
H211 C191 0.930 . S
H212 C199 0.931 . S
H213 C200 0.929 . S
H214 C208 0.929 . S
H215 C209 0.930 . S
Mn216 O221 2.095 . S
Mn216 O231 2.162 . S
Mn216 O232 2.297 . S
Mn216 O240 2.385 . S
Mn216 O241 2.209 . S
Mn216 O242 2.094 . S
Mn217 O222 2.121 . S
Mn217 N224 2.257 1_545 S
Mn217 N233 2.282 . S
Mn217 O241 2.215 . S
Mn217 O243 2.117 . S
C218 O240 1.234 . S
C218 O241 1.283 . S
C219 O231 1.281 . S
C219 O232 1.236 . S
C220 O242 1.240 . S
C220 O243 1.264 . S
O221 Mn216 2.095 . S
O221 C230 1.250 . S
O222 Mn217 2.121 . S
O222 C230 1.258 . S
C223 N224 1.326 . S
C223 C227 1.460 . S
C223 H229 0.929 . S
N224 Mn217 2.257 1_565 S
N224 C223 1.326 . S
N224 C228 1.362 . S
C225 C226 1.258 . S
C225 C228 1.431 . S
C225 C245 1.449 . S
C226 C225 1.258 . S
C226 C227 1.477 . S
C226 H246 0.931 . S
C227 C223 1.460 . S
C227 C226 1.477 . S
C227 H247 0.930 . S
C228 N224 1.362 . S
C228 C225 1.431 . S
C228 C238 1.476 . S
H229 C223 0.929 . S
C230 O221 1.250 . S
C230 O222 1.258 . S
O231 Mn216 2.162 . S
O231 C219 1.281 . S
O232 Mn216 2.297 . S
O232 C219 1.236 . S
N233 Mn217 2.282 . S
N233 C234 1.328 . S
N233 C238 1.318 1_545 S
C234 N233 1.328 . S
C234 C235 1.457 . S
C234 H239 0.929 . S
C235 C234 1.457 . S
C235 C236 1.291 1_545 S
C235 H248 0.931 . S
C236 C235 1.291 1_565 S
C236 C237 1.373 . S
C236 H249 0.929 . S
C237 C236 1.373 . S
C237 C238 1.396 . S
C237 C244 1.403 . S
C238 C228 1.476 . S
C238 N233 1.318 1_565 S
C238 C237 1.396 . S
H239 C234 0.929 . S
O240 Mn216 2.385 . S
O240 C218 1.234 . S
O241 Mn216 2.209 . S
O241 Mn217 2.215 . S
O241 C218 1.283 . S
O242 Mn216 2.094 . S
O242 C220 1.240 . S
O243 Mn217 2.117 . S
O243 C220 1.264 . S
C244 C237 1.403 . S
C244 C245 1.399 . S
C244 H250 0.929 . S
C245 C225 1.449 . S
C245 C244 1.399 . S
C245 H251 0.930 . S
H246 C226 0.931 . S
H247 C227 0.930 . S
H248 C235 0.931 . S
H249 C236 0.929 . S
H250 C244 0.929 . S
H251 C245 0.930 . S
Mn252 O257 2.095 . S
Mn252 O267 2.162 . S
Mn252 O268 2.297 . S
Mn252 O276 2.385 . S
Mn252 O277 2.209 . S
Mn252 O278 2.094 . S
Mn253 O258 2.121 . S
Mn253 N260 2.257 1_565 S
Mn253 N269 2.282 . S
Mn253 O277 2.215 . S
Mn253 O279 2.117 . S
C254 O276 1.234 . S
C254 O277 1.283 . S
C255 O267 1.281 . S
C255 O268 1.236 . S
C256 O278 1.240 . S
C256 O279 1.264 . S
O257 Mn252 2.095 . S
O257 C266 1.250 . S
O258 Mn253 2.121 . S
O258 C266 1.258 . S
C259 N260 1.326 1_655 S
C259 C263 1.460 . S
C259 H265 0.929 . S
N260 Mn253 2.257 1_545 S
N260 C259 1.326 1_455 S
N260 C264 1.362 . S
C261 C262 1.258 1_455 S
C261 C264 1.431 . S
C261 C281 1.449 . S
C262 C261 1.258 1_655 S
C262 C263 1.477 . S
C262 H282 0.931 . S
C263 C259 1.460 . S
C263 C262 1.477 . S
C263 H283 0.930 . S
C264 N260 1.362 . S
C264 C261 1.431 . S
C264 C274 1.476 . S
H265 C259 0.929 . S
C266 O257 1.250 . S
C266 O258 1.258 . S
O267 Mn252 2.162 . S
O267 C255 1.281 . S
O268 Mn252 2.297 . S
O268 C255 1.236 . S
N269 Mn253 2.282 . S
N269 C270 1.328 . S
N269 C274 1.318 1_565 S
C270 N269 1.328 . S
C270 C271 1.457 . S
C270 H275 0.929 . S
C271 C270 1.457 . S
C271 C272 1.291 1_565 S
C271 H284 0.931 . S
C272 C271 1.291 1_545 S
C272 C273 1.373 . S
C272 H285 0.929 . S
C273 C272 1.373 . S
C273 C274 1.396 . S
C273 C280 1.403 . S
C274 C264 1.476 . S
C274 N269 1.318 1_545 S
C274 C273 1.396 . S
H275 C270 0.929 . S
O276 Mn252 2.385 . S
O276 C254 1.234 . S
O277 Mn252 2.209 . S
O277 Mn253 2.215 . S
O277 C254 1.283 . S
O278 Mn252 2.094 . S
O278 C256 1.240 . S
O279 Mn253 2.117 . S
O279 C256 1.264 . S
C280 C273 1.403 . S
C280 C281 1.399 . S
C280 H286 0.929 . S
C281 C261 1.449 . S
C281 C280 1.399 . S
C281 H287 0.930 1_455 S
H282 C262 0.931 . S
H283 C263 0.930 . S
H284 C271 0.931 . S
H285 C272 0.929 . S
H286 C280 0.929 . S
H287 C281 0.930 1_655 S
Mn288 O293 2.095 . S
Mn288 O303 2.162 . S
Mn288 O304 2.297 . S
Mn288 O312 2.385 . S
Mn288 O313 2.209 . S
Mn288 O314 2.094 . S
Mn289 O294 2.121 . S
Mn289 N296 2.257 . S
Mn289 N305 2.282 . S
Mn289 O313 2.215 . S
Mn289 O315 2.117 . S
C290 O312 1.234 . S
C290 O313 1.283 . S
C291 O303 1.281 . S
C291 O304 1.236 . S
C292 O314 1.240 . S
C292 O315 1.264 . S
O293 Mn288 2.095 . S
O293 C302 1.250 . S
O294 Mn289 2.121 . S
O294 C302 1.258 . S
C295 N296 1.326 . S
C295 C299 1.460 . S
C295 H301 0.929 . S
N296 Mn289 2.257 . S
N296 C295 1.326 . S
N296 C300 1.362 . S
C297 C298 1.258 . S
C297 C300 1.431 . S
C297 C317 1.449 . S
C298 C297 1.258 . S
C298 C299 1.477 . S
C298 H318 0.931 . S
C299 C295 1.460 . S
C299 C298 1.477 . S
C299 H319 0.930 . S
C300 N296 1.362 . S
C300 C297 1.431 . S
C300 C310 1.476 . S
H301 C295 0.929 . S
C302 O293 1.250 . S
C302 O294 1.258 . S
O303 Mn288 2.162 . S
O303 C291 1.281 . S
O304 Mn288 2.297 . S
O304 C291 1.236 . S
N305 Mn289 2.282 . S
N305 C306 1.328 . S
N305 C310 1.318 . S
C306 N305 1.328 . S
C306 C307 1.457 . S
C306 H311 0.929 . S
C307 C306 1.457 . S
C307 C308 1.291 . S
C307 H320 0.931 . S
C308 C307 1.291 . S
C308 C309 1.373 . S
C308 H321 0.929 . S
C309 C308 1.373 . S
C309 C310 1.396 . S
C309 C316 1.403 . S
C310 C300 1.476 . S
C310 N305 1.318 . S
C310 C309 1.396 . S
H311 C306 0.929 . S
O312 Mn288 2.385 . S
O312 C290 1.234 . S
O313 Mn288 2.209 . S
O313 Mn289 2.215 . S
O313 C290 1.283 . S
O314 Mn288 2.094 . S
O314 C292 1.240 . S
O315 Mn289 2.117 . S
O315 C292 1.264 . S
C316 C309 1.403 . S
C316 C317 1.399 . S
C316 H322 0.929 . S
C317 C297 1.449 . S
C317 C316 1.399 . S
C317 H323 0.930 . S
H318 C298 0.931 . S
H319 C299 0.930 . S
H320 C307 0.931 . S
H321 C308 0.929 . S
H322 C316 0.929 . S
H323 C317 0.930 . S
Mn324 O329 2.095 . S
Mn324 O339 2.162 . S
Mn324 O340 2.297 . S
Mn324 O348 2.385 . S
Mn324 O349 2.209 . S
Mn324 O350 2.094 . S
Mn325 O330 2.121 . S
Mn325 N332 2.257 . S
Mn325 N341 2.282 . S
Mn325 O349 2.215 . S
Mn325 O351 2.117 . S
C326 O348 1.234 . S
C326 O349 1.283 . S
C327 O339 1.281 . S
C327 O340 1.236 . S
C328 O350 1.240 . S
C328 O351 1.264 . S
O329 Mn324 2.095 . S
O329 C338 1.250 . S
O330 Mn325 2.121 . S
O330 C338 1.258 . S
C331 N332 1.326 1_455 S
C331 C335 1.460 . S
C331 H337 0.929 . S
N332 Mn325 2.257 . S
N332 C331 1.326 1_655 S
N332 C336 1.362 . S
C333 C334 1.258 1_655 S
C333 C336 1.431 . S
C333 C353 1.449 . S
C334 C333 1.258 1_455 S
C334 C335 1.477 . S
C334 H354 0.931 . S
C335 C331 1.460 . S
C335 C334 1.477 . S
C335 H355 0.930 . S
C336 N332 1.362 . S
C336 C333 1.431 . S
C336 C346 1.476 . S
H337 C331 0.929 . S
C338 O329 1.250 . S
C338 O330 1.258 . S
O339 Mn324 2.162 . S
O339 C327 1.281 . S
O340 Mn324 2.297 . S
O340 C327 1.236 . S
N341 Mn325 2.282 . S
N341 C342 1.328 . S
N341 C346 1.318 . S
C342 N341 1.328 . S
C342 C343 1.457 . S
C342 H347 0.929 . S
C343 C342 1.457 . S
C343 C344 1.291 . S
C343 H356 0.931 . S
C344 C343 1.291 . S
C344 C345 1.373 . S
C344 H357 0.929 . S
C345 C344 1.373 . S
C345 C346 1.396 . S
C345 C352 1.403 . S
C346 C336 1.476 . S
C346 N341 1.318 . S
C346 C345 1.396 . S
H347 C342 0.929 . S
O348 Mn324 2.385 . S
O348 C326 1.234 . S
O349 Mn324 2.209 . S
O349 Mn325 2.215 . S
O349 C326 1.283 . S
O350 Mn324 2.094 . S
O350 C328 1.240 . S
O351 Mn325 2.117 . S
O351 C328 1.264 . S
C352 C345 1.403 . S
C352 C353 1.399 . S
C352 H358 0.929 . S
C353 C333 1.449 . S
C353 C352 1.399 . S
C353 H359 0.930 1_655 S
H354 C334 0.931 . S
H355 C335 0.930 . S
H356 C343 0.931 . S
H357 C344 0.929 . S
H358 C352 0.929 . S
H359 C353 0.930 1_455 S
Mn360 O365 2.095 . S
Mn360 O375 2.162 . S
Mn360 O376 2.297 . S
Mn360 O384 2.385 . S
Mn360 O385 2.209 . S
Mn360 O386 2.094 . S
Mn361 O366 2.121 . S
Mn361 N368 2.257 . S
Mn361 N377 2.282 . S
Mn361 O385 2.215 . S
Mn361 O387 2.117 . S
C362 O384 1.234 . S
C362 O385 1.283 . S
C363 O375 1.281 . S
C363 O376 1.236 . S
C364 O386 1.240 . S
C364 O387 1.264 . S
O365 Mn360 2.095 . S
O365 C374 1.250 . S
O366 Mn361 2.121 . S
O366 C374 1.258 . S
C367 N368 1.326 1_655 S
C367 C371 1.460 . S
C367 H373 0.929 . S
N368 Mn361 2.257 . S
N368 C367 1.326 1_455 S
N368 C372 1.362 . S
C369 C370 1.258 1_455 S
C369 C372 1.431 . S
C369 C389 1.449 . S
C370 C369 1.258 1_655 S
C370 C371 1.477 . S
C370 H390 0.931 . S
C371 C367 1.460 . S
C371 C370 1.477 . S
C371 H391 0.930 . S
C372 N368 1.362 . S
C372 C369 1.431 . S
C372 C382 1.476 . S
H373 C367 0.929 . S
C374 O365 1.250 . S
C374 O366 1.258 . S
O375 Mn360 2.162 . S
O375 C363 1.281 . S
O376 Mn360 2.297 . S
O376 C363 1.236 . S
N377 Mn361 2.282 . S
N377 C378 1.328 . S
N377 C382 1.318 . S
C378 N377 1.328 . S
C378 C379 1.457 . S
C378 H383 0.929 . S
C379 C378 1.457 . S
C379 C380 1.291 . S
C379 H392 0.931 . S
C380 C379 1.291 . S
C380 C381 1.373 . S
C380 H393 0.929 . S
C381 C380 1.373 . S
C381 C382 1.396 . S
C381 C388 1.403 . S
C382 C372 1.476 . S
C382 N377 1.318 . S
C382 C381 1.396 . S
H383 C378 0.929 . S
O384 Mn360 2.385 . S
O384 C362 1.234 . S
O385 Mn360 2.209 . S
O385 Mn361 2.215 . S
O385 C362 1.283 . S
O386 Mn360 2.094 . S
O386 C364 1.240 . S
O387 Mn361 2.117 . S
O387 C364 1.264 . S
C388 C381 1.403 . S
C388 C389 1.399 . S
C388 H394 0.929 . S
C389 C369 1.449 . S
C389 C388 1.399 . S
C389 H395 0.930 1_455 S
H390 C370 0.931 . S
H391 C371 0.930 . S
H392 C379 0.931 . S
H393 C380 0.929 . S
H394 C388 0.929 . S
H395 C389 0.930 1_655 S
Mn396 O401 2.095 . S
Mn396 O411 2.162 . S
Mn396 O412 2.297 . S
Mn396 O420 2.385 . S
Mn396 O421 2.209 . S
Mn396 O422 2.094 . S
Mn397 O402 2.121 . S
Mn397 N404 2.257 . S
Mn397 N413 2.282 . S
Mn397 O421 2.215 . S
Mn397 O423 2.117 . S
C398 O420 1.234 . S
C398 O421 1.283 . S
C399 O411 1.281 . S
C399 O412 1.236 . S
C400 O422 1.240 . S
C400 O423 1.264 . S
O401 Mn396 2.095 . S
O401 C410 1.250 . S
O402 Mn397 2.121 . S
O402 C410 1.258 . S
C403 N404 1.326 . S
C403 C407 1.460 . S
C403 H409 0.929 . S
N404 Mn397 2.257 . S
N404 C403 1.326 . S
N404 C408 1.362 . S
C405 C406 1.258 . S
C405 C408 1.431 . S
C405 C425 1.449 . S
C406 C405 1.258 . S
C406 C407 1.477 . S
C406 H426 0.931 . S
C407 C403 1.460 . S
C407 C406 1.477 . S
C407 H427 0.930 . S
C408 N404 1.362 . S
C408 C405 1.431 . S
C408 C418 1.476 . S
H409 C403 0.929 . S
C410 O401 1.250 . S
C410 O402 1.258 . S
O411 Mn396 2.162 . S
O411 C399 1.281 . S
O412 Mn396 2.297 . S
O412 C399 1.236 . S
N413 Mn397 2.282 . S
N413 C414 1.328 . S
N413 C418 1.318 . S
C414 N413 1.328 . S
C414 C415 1.457 . S
C414 H419 0.929 . S
C415 C414 1.457 . S
C415 C416 1.291 . S
C415 H428 0.931 . S
C416 C415 1.291 . S
C416 C417 1.373 . S
C416 H429 0.929 . S
C417 C416 1.373 . S
C417 C418 1.396 . S
C417 C424 1.403 . S
C418 C408 1.476 . S
C418 N413 1.318 . S
C418 C417 1.396 . S
H419 C414 0.929 . S
O420 Mn396 2.385 . S
O420 C398 1.234 . S
O421 Mn396 2.209 . S
O421 Mn397 2.215 . S
O421 C398 1.283 . S
O422 Mn396 2.094 . S
O422 C400 1.240 . S
O423 Mn397 2.117 . S
O423 C400 1.264 . S
C424 C417 1.403 . S
C424 C425 1.399 . S
C424 H430 0.929 . S
C425 C405 1.449 . S
C425 C424 1.399 . S
C425 H431 0.930 . S
H426 C406 0.931 . S
H427 C407 0.930 . S
H428 C415 0.931 . S
H429 C416 0.929 . S
H430 C424 0.929 . S
H431 C425 0.930 . S
Mn432 O437 2.095 . S
Mn432 O447 2.162 . S
Mn432 O448 2.297 . S
Mn432 O456 2.385 . S
Mn432 O457 2.209 . S
Mn432 O458 2.094 . S
Mn433 O438 2.121 . S
Mn433 N440 2.257 . S
Mn433 N449 2.282 . S
Mn433 O457 2.215 . S
Mn433 O459 2.117 . S
C434 O456 1.234 . S
C434 O457 1.283 . S
C435 O447 1.281 . S
C435 O448 1.236 . S
C436 O458 1.240 . S
C436 O459 1.264 . S
O437 Mn432 2.095 . S
O437 C446 1.250 . S
O438 Mn433 2.121 . S
O438 C446 1.258 . S
C439 N440 1.326 . S
C439 C443 1.460 . S
C439 H445 0.929 . S
N440 Mn433 2.257 . S
N440 C439 1.326 . S
N440 C444 1.362 . S
C441 C442 1.258 . S
C441 C444 1.431 . S
C441 C461 1.449 . S
C442 C441 1.258 . S
C442 C443 1.477 . S
C442 H462 0.931 . S
C443 C439 1.460 . S
C443 C442 1.477 . S
C443 H463 0.930 . S
C444 N440 1.362 . S
C444 C441 1.431 . S
C444 C454 1.476 . S
H445 C439 0.929 . S
C446 O437 1.250 . S
C446 O438 1.258 . S
O447 Mn432 2.162 . S
O447 C435 1.281 . S
O448 Mn432 2.297 . S
O448 C435 1.236 . S
N449 Mn433 2.282 . S
N449 C450 1.328 . S
N449 C454 1.318 . S
C450 N449 1.328 . S
C450 C451 1.457 . S
C450 H455 0.929 . S
C451 C450 1.457 . S
C451 C452 1.291 . S
C451 H464 0.931 . S
C452 C451 1.291 . S
C452 C453 1.373 . S
C452 H465 0.929 . S
C453 C452 1.373 . S
C453 C454 1.396 . S
C453 C460 1.403 . S
C454 C444 1.476 . S
C454 N449 1.318 . S
C454 C453 1.396 . S
H455 C450 0.929 . S
O456 Mn432 2.385 . S
O456 C434 1.234 . S
O457 Mn432 2.209 . S
O457 Mn433 2.215 . S
O457 C434 1.283 . S
O458 Mn432 2.094 . S
O458 C436 1.240 . S
O459 Mn433 2.117 . S
O459 C436 1.264 . S
C460 C453 1.403 . S
C460 C461 1.399 . S
C460 H466 0.929 . S
C461 C441 1.449 . S
C461 C460 1.399 . S
C461 H467 0.930 . S
H462 C442 0.931 . S
H463 C443 0.930 . S
H464 C451 0.931 . S
H465 C452 0.929 . S
H466 C460 0.929 . S
H467 C461 0.930 . S
Mn468 O473 2.095 . S
Mn468 O483 2.162 . S
Mn468 O484 2.297 . S
Mn468 O492 2.385 . S
Mn468 O493 2.209 . S
Mn468 O494 2.094 . S
Mn469 O474 2.121 . S
Mn469 N476 2.257 . S
Mn469 N485 2.282 . S
Mn469 O493 2.215 . S
Mn469 O495 2.117 . S
C470 O492 1.234 . S
C470 O493 1.283 . S
C471 O483 1.281 . S
C471 O484 1.236 . S
C472 O494 1.240 . S
C472 O495 1.264 . S
O473 Mn468 2.095 . S
O473 C482 1.250 . S
O474 Mn469 2.121 . S
O474 C482 1.258 . S
C475 N476 1.326 1_655 S
C475 C479 1.460 . S
C475 H481 0.929 . S
N476 Mn469 2.257 . S
N476 C475 1.326 1_455 S
N476 C480 1.362 . S
C477 C478 1.258 1_455 S
C477 C480 1.431 . S
C477 C497 1.449 . S
C478 C477 1.258 1_655 S
C478 C479 1.477 . S
C478 H498 0.931 . S
C479 C475 1.460 . S
C479 C478 1.477 . S
C479 H499 0.930 . S
C480 N476 1.362 . S
C480 C477 1.431 . S
C480 C490 1.476 . S
H481 C475 0.929 . S
C482 O473 1.250 . S
C482 O474 1.258 . S
O483 Mn468 2.162 . S
O483 C471 1.281 . S
O484 Mn468 2.297 . S
O484 C471 1.236 . S
N485 Mn469 2.282 . S
N485 C486 1.328 . S
N485 C490 1.318 . S
C486 N485 1.328 . S
C486 C487 1.457 . S
C486 H491 0.929 . S
C487 C486 1.457 . S
C487 C488 1.291 . S
C487 H500 0.931 . S
C488 C487 1.291 . S
C488 C489 1.373 . S
C488 H501 0.929 . S
C489 C488 1.373 . S
C489 C490 1.396 . S
C489 C496 1.403 . S
C490 C480 1.476 . S
C490 N485 1.318 . S
C490 C489 1.396 . S
H491 C486 0.929 . S
O492 Mn468 2.385 . S
O492 C470 1.234 . S
O493 Mn468 2.209 . S
O493 Mn469 2.215 . S
O493 C470 1.283 . S
O494 Mn468 2.094 . S
O494 C472 1.240 . S
O495 Mn469 2.117 . S
O495 C472 1.264 . S
C496 C489 1.403 . S
C496 C497 1.399 . S
C496 H502 0.929 . S
C497 C477 1.449 . S
C497 C496 1.399 . S
C497 H503 0.930 1_455 S
H498 C478 0.931 . S
H499 C479 0.930 . S
H500 C487 0.931 . S
H501 C488 0.929 . S
H502 C496 0.929 . S
H503 C497 0.930 1_655 S
Mn504 O509 2.095 . S
Mn504 O519 2.162 . S
Mn504 O520 2.297 . S
Mn504 O528 2.385 . S
Mn504 O529 2.209 . S
Mn504 O530 2.094 . S
Mn505 O510 2.121 . S
Mn505 N512 2.257 . S
Mn505 N521 2.282 . S
Mn505 O529 2.215 . S
Mn505 O531 2.117 . S
C506 O528 1.234 . S
C506 O529 1.283 . S
C507 O519 1.281 . S
C507 O520 1.236 . S
C508 O530 1.240 . S
C508 O531 1.264 . S
O509 Mn504 2.095 . S
O509 C518 1.250 . S
O510 Mn505 2.121 . S
O510 C518 1.258 . S
C511 N512 1.326 1_455 S
C511 C515 1.460 . S
C511 H517 0.929 . S
N512 Mn505 2.257 . S
N512 C511 1.326 1_655 S
N512 C516 1.362 . S
C513 C514 1.258 1_655 S
C513 C516 1.431 . S
C513 C533 1.449 . S
C514 C513 1.258 1_455 S
C514 C515 1.477 . S
C514 H534 0.931 . S
C515 C511 1.460 . S
C515 C514 1.477 . S
C515 H535 0.930 . S
C516 N512 1.362 . S
C516 C513 1.431 . S
C516 C526 1.476 . S
H517 C511 0.929 . S
C518 O509 1.250 . S
C518 O510 1.258 . S
O519 Mn504 2.162 . S
O519 C507 1.281 . S
O520 Mn504 2.297 . S
O520 C507 1.236 . S
N521 Mn505 2.282 . S
N521 C522 1.328 . S
N521 C526 1.318 . S
C522 N521 1.328 . S
C522 C523 1.457 . S
C522 H527 0.929 . S
C523 C522 1.457 . S
C523 C524 1.291 . S
C523 H536 0.931 . S
C524 C523 1.291 . S
C524 C525 1.373 . S
C524 H537 0.929 . S
C525 C524 1.373 . S
C525 C526 1.396 . S
C525 C532 1.403 . S
C526 C516 1.476 . S
C526 N521 1.318 . S
C526 C525 1.396 . S
H527 C522 0.929 . S
O528 Mn504 2.385 . S
O528 C506 1.234 . S
O529 Mn504 2.209 . S
O529 Mn505 2.215 . S
O529 C506 1.283 . S
O530 Mn504 2.094 . S
O530 C508 1.240 . S
O531 Mn505 2.117 . S
O531 C508 1.264 . S
C532 C525 1.403 . S
C532 C533 1.399 . S
C532 H538 0.929 . S
C533 C513 1.449 . S
C533 C532 1.399 . S
C533 H539 0.930 1_655 S
H534 C514 0.931 . S
H535 C515 0.930 . S
H536 C523 0.931 . S
H537 C524 0.929 . S
H538 C532 0.929 . S
H539 C533 0.930 1_455 S
Mn540 O545 2.095 . S
Mn540 O555 2.162 . S
Mn540 O556 2.297 . S
Mn540 O564 2.385 . S
Mn540 O565 2.209 . S
Mn540 O566 2.094 . S
Mn541 O546 2.121 . S
Mn541 N548 2.257 . S
Mn541 N557 2.282 . S
Mn541 O565 2.215 . S
Mn541 O567 2.117 . S
C542 O564 1.234 . S
C542 O565 1.283 . S
C543 O555 1.281 . S
C543 O556 1.236 . S
C544 O566 1.240 . S
C544 O567 1.264 . S
O545 Mn540 2.095 . S
O545 C554 1.250 . S
O546 Mn541 2.121 . S
O546 C554 1.258 . S
C547 N548 1.326 . S
C547 C551 1.460 . S
C547 H553 0.929 . S
N548 Mn541 2.257 . S
N548 C547 1.326 . S
N548 C552 1.362 . S
C549 C550 1.258 . S
C549 C552 1.431 . S
C549 C569 1.449 . S
C550 C549 1.258 . S
C550 C551 1.477 . S
C550 H570 0.931 . S
C551 C547 1.460 . S
C551 C550 1.477 . S
C551 H571 0.930 . S
C552 N548 1.362 . S
C552 C549 1.431 . S
C552 C562 1.476 . S
H553 C547 0.929 . S
C554 O545 1.250 . S
C554 O546 1.258 . S
O555 Mn540 2.162 . S
O555 C543 1.281 . S
O556 Mn540 2.297 . S
O556 C543 1.236 . S
N557 Mn541 2.282 . S
N557 C558 1.328 . S
N557 C562 1.318 . S
C558 N557 1.328 . S
C558 C559 1.457 . S
C558 H563 0.929 . S
C559 C558 1.457 . S
C559 C560 1.291 . S
C559 H572 0.931 . S
C560 C559 1.291 . S
C560 C561 1.373 . S
C560 H573 0.929 . S
C561 C560 1.373 . S
C561 C562 1.396 . S
C561 C568 1.403 . S
C562 C552 1.476 . S
C562 N557 1.318 . S
C562 C561 1.396 . S
H563 C558 0.929 . S
O564 Mn540 2.385 . S
O564 C542 1.234 . S
O565 Mn540 2.209 . S
O565 Mn541 2.215 . S
O565 C542 1.283 . S
O566 Mn540 2.094 . S
O566 C544 1.240 . S
O567 Mn541 2.117 . S
O567 C544 1.264 . S
C568 C561 1.403 . S
C568 C569 1.399 . S
C568 H574 0.929 . S
C569 C549 1.449 . S
C569 C568 1.399 . S
C569 H575 0.930 . S
H570 C550 0.931 . S
H571 C551 0.930 . S
H572 C559 0.931 . S
H573 C560 0.929 . S
H574 C568 0.929 . S
H575 C569 0.930 . S
H576 C594 0.951 . S
H577 C596 0.951 . S
H578 C598 0.950 . S
H579 C599 0.950 . S
H580 C601 0.950 . S
H581 C604 0.950 . S
H582 C605 0.950 . S
H583 C607 0.950 . S
H584 C608 0.950 . S
H585 C609 0.951 . S
H586 C611 0.951 . S
H587 C613 0.950 . S
H588 C614 0.950 . S
H589 C616 0.950 . S
H590 C619 0.950 . S
H591 C620 0.950 . S
H592 C622 0.950 . S
H593 C623 0.950 . S
C594 H576 0.951 . S
C594 C595 1.366 . S
C594 C596 1.388 . S
C595 C594 1.366 . S
C595 C599 1.385 . S
C596 H577 0.951 . S
C596 C594 1.388 . S
C596 C597 1.366 . S
C597 C596 1.366 . S
C597 C598 1.414 . S
C597 C600 1.499 . S
C598 H578 0.950 . S
C598 C597 1.414 . S
C598 C599 1.374 . S
C599 H579 0.950 . S
C599 C595 1.385 . S
C599 C598 1.374 . S
C600 C597 1.499 . S
C600 C601 1.373 1_565 S
C600 C602 1.389 . S
C601 H580 0.950 . S
C601 C600 1.373 1_545 S
C601 C617 1.377 . S
C602 C600 1.389 . S
C602 C603 1.524 . S
C602 C616 1.377 . S
C603 C602 1.524 . S
C603 C604 1.397 . S
C603 C608 1.363 . S
C604 H581 0.950 . S
C604 C603 1.397 . S
C604 C605 1.334 . S
C605 H582 0.950 . S
C605 C604 1.334 . S
C605 C606 1.287 . S
C606 C605 1.287 . S
C606 C607 1.524 . S
C606 H625 0.913 . S
C607 H583 0.950 . S
C607 C606 1.524 . S
C607 C608 1.415 . S
C608 H584 0.950 . S
C608 C603 1.363 . S
C608 C607 1.415 . S
C609 H585 0.951 . S
C609 C610 1.366 . S
C609 C611 1.388 . S
C610 C609 1.366 . S
C610 C614 1.385 . S
C611 H586 0.951 . S
C611 C609 1.388 . S
C611 C612 1.366 . S
C612 C611 1.366 . S
C612 C613 1.414 . S
C612 C615 1.499 . S
C613 H587 0.950 . S
C613 C612 1.414 . S
C613 C614 1.374 . S
C614 H588 0.950 . S
C614 C610 1.385 . S
C614 C613 1.374 . S
C615 C612 1.499 . S
C615 C616 1.373 1_545 S
C615 C617 1.389 . S
C616 H589 0.950 . S
C616 C602 1.377 . S
C616 C615 1.373 1_565 S
C617 C601 1.377 . S
C617 C615 1.389 . S
C617 C618 1.524 . S
C618 C617 1.524 . S
C618 C619 1.397 . S
C618 C623 1.363 . S
C619 H590 0.950 . S
C619 C618 1.397 . S
C619 C620 1.334 . S
C620 H591 0.950 . S
C620 C619 1.334 . S
C620 C621 1.287 . S
C621 C620 1.287 . S
C621 C622 1.524 . S
C621 H624 0.999 . S
C622 H592 0.950 . S
C622 C621 1.524 . S
C622 C623 1.415 . S
C623 H593 0.950 . S
C623 C618 1.363 . S
C623 C622 1.415 . S
H624 C621 0.999 . S
H625 C606 0.913 . S
H626 C644 0.951 . S
H627 C646 0.951 . S
H628 C648 0.950 1_545 S
H629 C649 0.950 . S
H630 C651 0.950 . S
H631 C654 0.950 . S
H632 C655 0.950 . S
H633 C657 0.950 . S
H634 C658 0.950 . S
H635 C659 0.951 . S
H636 C661 0.951 . S
H637 C663 0.950 1_565 S
H638 C664 0.950 . S
H639 C666 0.950 . S
H640 C669 0.950 . S
H641 C670 0.950 . S
H642 C672 0.950 . S
H643 C673 0.950 . S
C644 H626 0.951 . S
C644 C645 1.366 . S
C644 C646 1.388 . S
C645 C644 1.366 . S
C645 C649 1.385 . S
C646 H627 0.951 . S
C646 C644 1.388 . S
C646 C647 1.366 . S
C647 C646 1.366 . S
C647 C648 1.414 . S
C647 C650 1.499 . S
C648 H628 0.950 1_565 S
C648 C647 1.414 . S
C648 C649 1.374 . S
C649 H629 0.950 . S
C649 C645 1.385 . S
C649 C648 1.374 . S
C650 C647 1.499 . S
C650 C651 1.373 1_565 S
C650 C652 1.389 . S
C651 H630 0.950 . S
C651 C650 1.373 1_545 S
C651 C667 1.377 . S
C652 C650 1.389 . S
C652 C653 1.524 . S
C652 C666 1.377 . S
C653 C652 1.524 . S
C653 C654 1.397 . S
C653 C658 1.363 . S
C654 H631 0.950 . S
C654 C653 1.397 . S
C654 C655 1.334 . S
C655 H632 0.950 . S
C655 C654 1.334 . S
C655 C656 1.287 . S
C656 C655 1.287 . S
C656 C657 1.524 . S
C656 H675 0.913 . S
C657 H633 0.950 . S
C657 C656 1.524 . S
C657 C658 1.415 . S
C658 H634 0.950 . S
C658 C653 1.363 . S
C658 C657 1.415 . S
C659 H635 0.951 . S
C659 C660 1.366 . S
C659 C661 1.388 . S
C660 C659 1.366 . S
C660 C664 1.385 . S
C661 H636 0.951 . S
C661 C659 1.388 . S
C661 C662 1.366 . S
C662 C661 1.366 . S
C662 C663 1.414 . S
C662 C665 1.499 . S
C663 H637 0.950 1_545 S
C663 C662 1.414 . S
C663 C664 1.374 . S
C664 H638 0.950 . S
C664 C660 1.385 . S
C664 C663 1.374 . S
C665 C662 1.499 . S
C665 C666 1.373 1_545 S
C665 C667 1.389 . S
C666 H639 0.950 . S
C666 C652 1.377 . S
C666 C665 1.373 1_565 S
C667 C651 1.377 . S
C667 C665 1.389 . S
C667 C668 1.524 . S
C668 C667 1.524 . S
C668 C669 1.397 . S
C668 C673 1.363 . S
C669 H640 0.950 . S
C669 C668 1.397 . S
C669 C670 1.334 . S
C670 H641 0.950 . S
C670 C669 1.334 . S
C670 C671 1.287 . S
C671 C670 1.287 . S
C671 C672 1.524 . S
C671 H674 0.999 . S
C672 H642 0.950 . S
C672 C671 1.524 . S
C672 C673 1.415 . S
C673 H643 0.950 . S
C673 C668 1.363 . S
C673 C672 1.415 . S
H674 C671 0.999 . S
H675 C656 0.913 . S
H676 C694 0.951 . S
H677 C696 0.951 . S
H678 C698 0.950 . S
H679 C699 0.950 . S
H680 C701 0.950 . S
H681 C704 0.950 . S
H682 C705 0.950 . S
H683 C707 0.950 . S
H684 C708 0.950 . S
H685 C709 0.951 . S
H686 C711 0.951 . S
H687 C713 0.950 . S
H688 C714 0.950 . S
H689 C716 0.950 . S
H690 C719 0.950 . S
H691 C720 0.950 . S
H692 C722 0.950 . S
H693 C723 0.950 . S
C694 H676 0.951 . S
C694 C695 1.366 . S
C694 C696 1.388 . S
C695 C694 1.366 . S
C695 C699 1.385 . S
C696 H677 0.951 . S
C696 C694 1.388 . S
C696 C697 1.366 . S
C697 C696 1.366 . S
C697 C698 1.414 . S
C697 C700 1.499 . S
C698 H678 0.950 . S
C698 C697 1.414 . S
C698 C699 1.374 . S
C699 H679 0.950 . S
C699 C695 1.385 . S
C699 C698 1.374 . S
C700 C697 1.499 . S
C700 C701 1.373 . S
C700 C702 1.389 1_565 S
C701 H680 0.950 . S
C701 C700 1.373 . S
C701 C717 1.377 . S
C702 C700 1.389 1_545 S
C702 C703 1.524 . S
C702 C716 1.377 . S
C703 C702 1.524 . S
C703 C704 1.397 . S
C703 C708 1.363 . S
C704 H681 0.950 . S
C704 C703 1.397 . S
C704 C705 1.334 . S
C705 H682 0.950 . S
C705 C704 1.334 . S
C705 C706 1.287 . S
C706 C705 1.287 . S
C706 C707 1.524 . S
C706 H725 0.913 . S
C707 H683 0.950 . S
C707 C706 1.524 . S
C707 C708 1.415 . S
C708 H684 0.950 . S
C708 C703 1.363 . S
C708 C707 1.415 . S
C709 H685 0.951 . S
C709 C710 1.366 . S
C709 C711 1.388 . S
C710 C709 1.366 . S
C710 C714 1.385 . S
C711 H686 0.951 . S
C711 C709 1.388 . S
C711 C712 1.366 . S
C712 C711 1.366 . S
C712 C713 1.414 . S
C712 C715 1.499 . S
C713 H687 0.950 . S
C713 C712 1.414 . S
C713 C714 1.374 . S
C714 H688 0.950 . S
C714 C710 1.385 . S
C714 C713 1.374 . S
C715 C712 1.499 . S
C715 C716 1.373 . S
C715 C717 1.389 1_545 S
C716 H689 0.950 . S
C716 C702 1.377 . S
C716 C715 1.373 . S
C717 C701 1.377 . S
C717 C715 1.389 1_565 S
C717 C718 1.524 . S
C718 C717 1.524 . S
C718 C719 1.397 . S
C718 C723 1.363 . S
C719 H690 0.950 . S
C719 C718 1.397 . S
C719 C720 1.334 . S
C720 H691 0.950 . S
C720 C719 1.334 . S
C720 C721 1.287 . S
C721 C720 1.287 . S
C721 C722 1.524 . S
C721 H724 0.999 . S
C722 H692 0.950 . S
C722 C721 1.524 . S
C722 C723 1.415 . S
C723 H693 0.950 . S
C723 C718 1.363 . S
C723 C722 1.415 . S
H724 C721 0.999 . S
H725 C706 0.913 . S
H726 C744 0.951 . S
H727 C746 0.951 . S
H728 C748 0.950 1_545 S
H729 C749 0.957 . S
H730 C751 0.950 . S
H731 C754 0.950 . S
H732 C755 0.950 . S
H733 C757 0.950 . S
H734 C758 0.950 . S
H735 C759 0.951 . S
H736 C761 0.951 . S
H737 C763 0.950 1_565 S
H738 C764 0.957 . S
H739 C766 0.950 . S
H740 C769 0.950 . S
H741 C770 0.950 . S
H742 C772 0.950 . S
H743 C773 0.950 . S
C744 H726 0.951 . S
C744 C745 1.366 . S
C744 C746 1.388 . S
C745 C744 1.366 . S
C745 C749 1.385 . S
C746 H727 0.951 . S
C746 C744 1.388 . S
C746 C747 1.366 . S
C747 C746 1.366 . S
C747 C748 1.414 . S
C747 C750 1.499 . S
C748 H728 0.950 1_565 S
C748 C747 1.414 . S
C748 C749 1.374 . S
C749 H729 0.957 . S
C749 C745 1.385 . S
C749 C748 1.374 . S
C750 C747 1.499 . S
C750 C751 1.373 1_565 S
C750 C752 1.389 . S
C751 H730 0.950 . S
C751 C750 1.373 1_545 S
C751 C767 1.377 . S
C752 C750 1.389 . S
C752 C753 1.524 . S
C752 C766 1.377 . S
C753 C752 1.524 . S
C753 C754 1.397 . S
C753 C758 1.363 . S
C754 H731 0.950 . S
C754 C753 1.397 . S
C754 C755 1.334 . S
C755 H732 0.950 . S
C755 C754 1.334 . S
C755 C756 1.287 . S
C756 C755 1.287 . S
C756 C757 1.524 . S
C756 H775 0.913 . S
C757 H733 0.950 . S
C757 C756 1.524 . S
C757 C758 1.415 . S
C758 H734 0.950 . S
C758 C753 1.363 . S
C758 C757 1.415 . S
C759 H735 0.951 . S
C759 C760 1.366 . S
C759 C761 1.388 . S
C760 C759 1.366 . S
C760 C764 1.385 . S
C761 H736 0.951 . S
C761 C759 1.388 . S
C761 C762 1.366 . S
C762 C761 1.366 . S
C762 C763 1.414 . S
C762 C765 1.499 . S
C763 H737 0.950 1_545 S
C763 C762 1.414 . S
C763 C764 1.374 . S
C764 H738 0.957 . S
C764 C760 1.385 . S
C764 C763 1.374 . S
C765 C762 1.499 . S
C765 C766 1.373 1_545 S
C765 C767 1.389 . S
C766 H739 0.950 . S
C766 C752 1.377 . S
C766 C765 1.373 1_565 S
C767 C751 1.377 . S
C767 C765 1.389 . S
C767 C768 1.524 . S
C768 C767 1.524 . S
C768 C769 1.397 . S
C768 C773 1.363 . S
C769 H740 0.950 . S
C769 C768 1.397 . S
C769 C770 1.334 . S
C770 H741 0.950 . S
C770 C769 1.334 . S
C770 C771 1.287 . S
C771 C770 1.287 . S
C771 C772 1.524 . S
C771 H774 0.999 . S
C772 H742 0.950 . S
C772 C771 1.524 . S
C772 C773 1.415 . S
C773 H743 0.950 . S
C773 C768 1.363 . S
C773 C772 1.415 . S
H774 C771 0.999 . S
H775 C756 0.913 . S
H776 C794 0.951 . S
H777 C796 0.951 . S
H778 C798 0.950 . S
H779 C799 0.950 . S
H780 C801 0.950 . S
H781 C804 0.950 . S
H782 C805 0.950 . S
H783 C807 0.950 . S
H784 C808 0.950 . S
H785 C809 0.951 . S
H786 C811 0.951 . S
H787 C813 0.950 . S
H788 C814 0.950 . S
H789 C816 0.950 . S
H790 C819 0.950 . S
H791 C820 0.950 . S
H792 C822 0.950 . S
H793 C823 0.950 . S
C794 H776 0.951 . S
C794 C795 1.366 . S
C794 C796 1.388 . S
C795 C794 1.366 . S
C795 C799 1.385 . S
C796 H777 0.951 . S
C796 C794 1.388 . S
C796 C797 1.366 . S
C797 C796 1.366 . S
C797 C798 1.414 . S
C797 C800 1.499 . S
C798 H778 0.950 . S
C798 C797 1.414 . S
C798 C799 1.374 . S
C799 H779 0.950 . S
C799 C795 1.385 . S
C799 C798 1.374 . S
C800 C797 1.499 . S
C800 C801 1.373 . S
C800 C802 1.389 . S
C801 H780 0.950 . S
C801 C800 1.373 . S
C801 C817 1.377 . S
C802 C800 1.389 . S
C802 C803 1.524 . S
C802 C816 1.377 . S
C803 C802 1.524 . S
C803 C804 1.397 . S
C803 C808 1.363 . S
C804 H781 0.950 . S
C804 C803 1.397 . S
C804 C805 1.334 . S
C805 H782 0.950 . S
C805 C804 1.334 . S
C805 C806 1.287 . S
C806 C805 1.287 . S
C806 C807 1.524 . S
C806 H825 0.913 . S
C807 H783 0.950 . S
C807 C806 1.524 . S
C807 C808 1.415 . S
C808 H784 0.950 . S
C808 C803 1.363 . S
C808 C807 1.415 . S
C809 H785 0.951 . S
C809 C810 1.366 . S
C809 C811 1.388 . S
C810 C809 1.366 . S
C810 C814 1.385 . S
C811 H786 0.951 . S
C811 C809 1.388 . S
C811 C812 1.366 . S
C812 C811 1.366 . S
C812 C813 1.414 . S
C812 C815 1.499 . S
C813 H787 0.950 . S
C813 C812 1.414 . S
C813 C814 1.374 . S
C814 H788 0.950 . S
C814 C810 1.385 . S
C814 C813 1.374 . S
C815 C812 1.499 . S
C815 C816 1.373 . S
C815 C817 1.389 . S
C816 H789 0.950 . S
C816 C802 1.377 . S
C816 C815 1.373 . S
C817 C801 1.377 . S
C817 C815 1.389 . S
C817 C818 1.524 . S
C818 C817 1.524 . S
C818 C819 1.397 . S
C818 C823 1.363 . S
C819 H790 0.950 . S
C819 C818 1.397 . S
C819 C820 1.334 . S
C820 H791 0.950 . S
C820 C819 1.334 . S
C820 C821 1.287 . S
C821 C820 1.287 . S
C821 C822 1.524 . S
C821 H824 0.999 . S
C822 H792 0.950 . S
C822 C821 1.524 . S
C822 C823 1.415 . S
C823 H793 0.950 . S
C823 C818 1.363 . S
C823 C822 1.415 . S
H824 C821 0.999 . S
H825 C806 0.913 . S
H826 C844 0.951 . S
H827 C846 0.951 . S
H828 C848 0.950 . S
H829 C849 0.950 . S
H830 C851 0.950 . S
H831 C854 0.950 . S
H832 C855 0.950 . S
H833 C857 0.950 . S
H834 C858 0.950 . S
H835 C859 0.951 . S
H836 C861 0.951 . S
H837 C863 0.950 . S
H838 C864 0.950 . S
H839 C866 0.950 . S
H840 C869 0.950 . S
H841 C870 0.950 . S
H842 C872 0.950 . S
H843 C873 0.950 . S
C844 H826 0.951 . S
C844 C845 1.366 . S
C844 C846 1.388 . S
C845 C844 1.366 . S
C845 C849 1.385 . S
C846 H827 0.951 . S
C846 C844 1.388 . S
C846 C847 1.366 . S
C847 C846 1.366 . S
C847 C848 1.414 . S
C847 C850 1.499 . S
C848 H828 0.950 . S
C848 C847 1.414 . S
C848 C849 1.374 . S
C849 H829 0.950 . S
C849 C845 1.385 . S
C849 C848 1.374 . S
C850 C847 1.499 . S
C850 C851 1.373 . S
C850 C852 1.389 . S
C851 H830 0.950 . S
C851 C850 1.373 . S
C851 C867 1.377 . S
C852 C850 1.389 . S
C852 C853 1.524 . S
C852 C866 1.377 . S
C853 C852 1.524 . S
C853 C854 1.397 . S
C853 C858 1.363 . S
C854 H831 0.950 . S
C854 C853 1.397 . S
C854 C855 1.334 . S
C855 H832 0.950 . S
C855 C854 1.334 . S
C855 C856 1.287 . S
C856 C855 1.287 . S
C856 C857 1.524 . S
C856 H875 0.913 . S
C857 H833 0.950 . S
C857 C856 1.524 . S
C857 C858 1.415 . S
C858 H834 0.950 . S
C858 C853 1.363 . S
C858 C857 1.415 . S
C859 H835 0.951 . S
C859 C860 1.366 . S
C859 C861 1.388 . S
C860 C859 1.366 . S
C860 C864 1.385 . S
C861 H836 0.951 . S
C861 C859 1.388 . S
C861 C862 1.366 . S
C862 C861 1.366 . S
C862 C863 1.414 . S
C862 C865 1.499 . S
C863 H837 0.950 . S
C863 C862 1.414 . S
C863 C864 1.374 . S
C864 H838 0.950 . S
C864 C860 1.385 . S
C864 C863 1.374 . S
C865 C862 1.499 . S
C865 C866 1.373 . S
C865 C867 1.389 . S
C866 H839 0.950 . S
C866 C852 1.377 . S
C866 C865 1.373 . S
C867 C851 1.377 . S
C867 C865 1.389 . S
C867 C868 1.524 . S
C868 C867 1.524 . S
C868 C869 1.397 . S
C868 C873 1.363 . S
C869 H840 0.950 . S
C869 C868 1.397 . S
C869 C870 1.334 . S
C870 H841 0.950 . S
C870 C869 1.334 . S
C870 C871 1.287 . S
C871 C870 1.287 . S
C871 C872 1.524 . S
C871 H874 0.999 . S
C872 H842 0.950 . S
C872 C871 1.524 . S
C872 C873 1.415 . S
C873 H843 0.950 . S
C873 C868 1.363 . S
C873 C872 1.415 . S
H874 C871 0.999 . S
H875 C856 0.913 . S
H876 C894 0.951 . S
H877 C896 0.951 . S
H878 C898 0.950 . S
H879 C899 0.950 . S
H880 C901 0.950 . S
H881 C904 0.950 . S
H882 C905 0.950 . S
H883 C907 0.950 . S
H884 C908 0.950 . S
H885 C909 0.951 . S
H886 C911 0.951 . S
H887 C913 0.950 . S
H888 C914 0.950 . S
H889 C916 0.950 . S
H890 C919 0.950 . S
H891 C920 0.950 . S
H892 C922 0.950 . S
H893 C923 0.950 . S
C894 H876 0.951 . S
C894 C895 1.366 . S
C894 C896 1.388 . S
C895 C894 1.366 . S
C895 C899 1.385 . S
C896 H877 0.951 . S
C896 C894 1.388 . S
C896 C897 1.366 . S
C897 C896 1.366 . S
C897 C898 1.414 . S
C897 C900 1.499 . S
C898 H878 0.950 . S
C898 C897 1.414 . S
C898 C899 1.374 . S
C899 H879 0.950 . S
C899 C895 1.385 . S
C899 C898 1.374 . S
C900 C897 1.499 . S
C900 C901 1.373 . S
C900 C902 1.389 . S
C901 H880 0.950 . S
C901 C900 1.373 . S
C901 C917 1.377 . S
C902 C900 1.389 . S
C902 C903 1.524 . S
C902 C916 1.377 . S
C903 C902 1.524 . S
C903 C904 1.397 . S
C903 C908 1.363 . S
C904 H881 0.950 . S
C904 C903 1.397 . S
C904 C905 1.334 . S
C905 H882 0.950 . S
C905 C904 1.334 . S
C905 C906 1.287 . S
C906 C905 1.287 . S
C906 C907 1.524 . S
C906 H925 0.913 . S
C907 H883 0.950 . S
C907 C906 1.524 . S
C907 C908 1.415 . S
C908 H884 0.950 . S
C908 C903 1.363 . S
C908 C907 1.415 . S
C909 H885 0.951 . S
C909 C910 1.366 . S
C909 C911 1.388 . S
C910 C909 1.366 . S
C910 C914 1.385 . S
C911 H886 0.951 . S
C911 C909 1.388 . S
C911 C912 1.366 . S
C912 C911 1.366 . S
C912 C913 1.414 . S
C912 C915 1.499 . S
C913 H887 0.950 . S
C913 C912 1.414 . S
C913 C914 1.374 . S
C914 H888 0.950 . S
C914 C910 1.385 . S
C914 C913 1.374 . S
C915 C912 1.499 . S
C915 C916 1.373 . S
C915 C917 1.389 . S
C916 H889 0.950 . S
C916 C902 1.377 . S
C916 C915 1.373 . S
C917 C901 1.377 . S
C917 C915 1.389 . S
C917 C918 1.524 . S
C918 C917 1.524 . S
C918 C919 1.397 . S
C918 C923 1.363 . S
C919 H890 0.950 . S
C919 C918 1.397 . S
C919 C920 1.334 . S
C920 H891 0.950 . S
C920 C919 1.334 . S
C920 C921 1.287 . S
C921 C920 1.287 . S
C921 C922 1.524 . S
C921 H924 0.999 . S
C922 H892 0.950 . S
C922 C921 1.524 . S
C922 C923 1.415 . S
C923 H893 0.950 . S
C923 C918 1.363 . S
C923 C922 1.415 . S
H924 C921 0.999 . S
H925 C906 0.913 . S
H926 C944 0.951 . S
H927 C946 0.951 . S
H928 C948 0.950 . S
H929 C949 0.950 . S
H930 C951 0.950 . S
H931 C954 0.950 . S
H932 C955 0.950 . S
H933 C957 0.950 . S
H934 C958 0.950 . S
H935 C959 0.951 . S
H936 C961 0.951 . S
H937 C963 0.950 . S
H938 C964 0.950 . S
H939 C966 0.950 . S
H940 C969 0.950 . S
H941 C970 0.950 . S
H942 C972 0.950 . S
H943 C973 0.950 . S
C944 H926 0.951 . S
C944 C945 1.366 . S
C944 C946 1.388 . S
C945 C944 1.366 . S
C945 C949 1.385 . S
C946 H927 0.951 . S
C946 C944 1.388 . S
C946 C947 1.366 . S
C947 C946 1.366 . S
C947 C948 1.414 . S
C947 C950 1.499 . S
C948 H928 0.950 . S
C948 C947 1.414 . S
C948 C949 1.374 . S
C949 H929 0.950 . S
C949 C945 1.385 . S
C949 C948 1.374 . S
C950 C947 1.499 . S
C950 C951 1.373 . S
C950 C952 1.389 . S
C951 H930 0.950 . S
C951 C950 1.373 . S
C951 C967 1.377 . S
C952 C950 1.389 . S
C952 C953 1.524 . S
C952 C966 1.377 . S
C953 C952 1.524 . S
C953 C954 1.397 . S
C953 C958 1.363 . S
C954 H931 0.950 . S
C954 C953 1.397 . S
C954 C955 1.334 . S
C955 H932 0.950 . S
C955 C954 1.334 . S
C955 C956 1.287 . S
C956 C955 1.287 . S
C956 C957 1.524 . S
C956 H975 0.913 . S
C957 H933 0.950 . S
C957 C956 1.524 . S
C957 C958 1.415 . S
C958 H934 0.950 . S
C958 C953 1.363 . S
C958 C957 1.415 . S
C959 H935 0.951 . S
C959 C960 1.366 . S
C959 C961 1.388 . S
C960 C959 1.366 . S
C960 C964 1.385 . S
C961 H936 0.951 . S
C961 C959 1.388 . S
C961 C962 1.366 . S
C962 C961 1.366 . S
C962 C963 1.414 . S
C962 C965 1.499 . S
C963 H937 0.950 . S
C963 C962 1.414 . S
C963 C964 1.374 . S
C964 H938 0.950 . S
C964 C960 1.385 . S
C964 C963 1.374 . S
C965 C962 1.499 . S
C965 C966 1.373 . S
C965 C967 1.389 . S
C966 H939 0.950 . S
C966 C952 1.377 . S
C966 C965 1.373 . S
C967 C951 1.377 . S
C967 C965 1.389 . S
C967 C968 1.524 . S
C968 C967 1.524 . S
C968 C969 1.397 . S
C968 C973 1.363 . S
C969 H940 0.950 . S
C969 C968 1.397 . S
C969 C970 1.334 . S
C970 H941 0.950 . S
C970 C969 1.334 . S
C970 C971 1.287 . S
C971 C970 1.287 . S
C971 C972 1.524 . S
C971 H974 0.999 . S
C972 H942 0.950 . S
C972 C971 1.524 . S
C972 C973 1.415 . S
C973 H943 0.950 . S
C973 C968 1.363 . S
C973 C972 1.415 . S
H974 C971 0.999 . S
H975 C956 0.913 . S
H976 C994 0.951 . S
H977 C996 0.951 . S
H978 C998 0.946 . S
H979 C999 0.950 1_455 S
H980 C1001 0.950 . S
H981 C1004 0.962 1_455 S
H982 C1005 0.950 . S
H983 C1007 0.950 . S
H984 C1008 0.950 . S
H985 C1009 0.951 . S
H986 C1011 0.951 . S
H987 C1013 0.946 . S
H988 C1014 0.950 1_655 S
H989 C1016 0.950 . S
H990 C1019 0.950 1_655 S
H991 C1020 0.950 . S
H992 C1022 0.950 . S
H993 C1023 0.950 . S
C994 H976 0.951 . S
C994 C995 1.366 . S
C994 C996 1.388 . S
C995 C994 1.366 . S
C995 C999 1.385 . S
C996 H977 0.951 . S
C996 C994 1.388 . S
C996 C997 1.366 . S
C997 C996 1.366 . S
C997 C998 1.417 1_655 S
C997 C1000 1.499 . S
C998 H978 0.946 . S
C998 C997 1.417 1_455 S
C998 C999 1.375 1_455 S
C999 H979 0.950 1_655 S
C999 C995 1.385 . S
C999 C998 1.375 1_655 S
C1000 C997 1.499 . S
C1000 C1001 1.373 1_655 S
C1000 C1002 1.389 . S
C1001 H980 0.950 . S
C1001 C1000 1.373 1_455 S
C1001 C1017 1.377 . S
C1002 C1000 1.389 . S
C1002 C1003 1.524 . S
C1002 C1016 1.377 . S
C1003 C1002 1.524 . S
C1003 C1004 1.411 . S
C1003 C1008 1.363 . S
C1004 H981 0.962 1_655 S
C1004 C1003 1.411 . S
C1004 C1005 1.308 1_545 S
C1005 H982 0.950 . S
C1005 C1004 1.308 1_565 S
C1005 C1006 1.287 . S
C1006 C1005 1.287 . S
C1006 C1007 1.524 . S
C1006 H1025 0.913 . S
C1007 H983 0.950 . S
C1007 C1006 1.524 . S
C1007 C1008 1.415 1_565 S
C1008 H984 0.950 . S
C1008 C1003 1.363 . S
C1008 C1007 1.415 1_545 S
C1009 H985 0.951 . S
C1009 C1010 1.366 . S
C1009 C1011 1.388 . S
C1010 C1009 1.366 . S
C1010 C1014 1.385 . S
C1011 H986 0.951 . S
C1011 C1009 1.388 . S
C1011 C1012 1.366 . S
C1012 C1011 1.366 . S
C1012 C1013 1.417 1_455 S
C1012 C1015 1.499 . S
C1013 H987 0.946 . S
C1013 C1012 1.417 1_655 S
C1013 C1014 1.375 1_655 S
C1014 H988 0.950 1_455 S
C1014 C1010 1.385 . S
C1014 C1013 1.375 1_455 S
C1015 C1012 1.499 . S
C1015 C1016 1.373 1_455 S
C1015 C1017 1.389 . S
C1016 H989 0.950 . S
C1016 C1002 1.377 . S
C1016 C1015 1.373 1_655 S
C1017 C1001 1.377 . S
C1017 C1015 1.389 . S
C1017 C1018 1.524 . S
C1018 C1017 1.524 . S
C1018 C1019 1.397 . S
C1018 C1023 1.363 . S
C1019 H990 0.950 1_455 S
C1019 C1018 1.397 . S
C1019 C1020 1.334 . S
C1020 H991 0.950 . S
C1020 C1019 1.334 . S
C1020 C1021 1.287 . S
C1021 C1020 1.287 . S
C1021 C1022 1.524 . S
C1021 H1024 0.999 . S
C1022 H992 0.950 . S
C1022 C1021 1.524 . S
C1022 C1023 1.415 . S
C1023 H993 0.950 . S
C1023 C1018 1.363 . S
C1023 C1022 1.415 . S
H1024 C1021 0.999 . S
H1025 C1006 0.913 . S
H1026 C1044 0.951 . S
H1027 C1046 0.951 . S
H1028 C1048 0.950 . S
H1029 C1049 0.950 . S
H1030 C1051 0.950 . S
H1031 C1054 0.950 . S
H1032 C1055 0.950 . S
H1033 C1057 0.950 . S
H1034 C1058 0.955 . S
H1035 C1059 0.951 . S
H1036 C1061 0.951 . S
H1037 C1063 0.950 . S
H1038 C1064 0.950 . S
H1039 C1066 0.950 . S
H1040 C1069 0.950 . S
H1041 C1070 0.950 . S
H1042 C1072 0.950 . S
H1043 C1073 0.950 . S
C1044 H1026 0.951 . S
C1044 C1045 1.366 . S
C1044 C1046 1.388 . S
C1045 C1044 1.366 . S
C1045 C1049 1.385 . S
C1046 H1027 0.951 . S
C1046 C1044 1.388 . S
C1046 C1047 1.366 . S
C1047 C1046 1.366 . S
C1047 C1048 1.414 . S
C1047 C1050 1.499 . S
C1048 H1028 0.950 . S
C1048 C1047 1.414 . S
C1048 C1049 1.374 . S
C1049 H1029 0.950 . S
C1049 C1045 1.385 . S
C1049 C1048 1.374 . S
C1050 C1047 1.499 . S
C1050 C1051 1.373 . S
C1050 C1052 1.389 . S
C1051 H1030 0.950 . S
C1051 C1050 1.373 . S
C1051 C1067 1.377 . S
C1052 C1050 1.389 . S
C1052 C1053 1.524 . S
C1052 C1066 1.377 . S
C1053 C1052 1.524 . S
C1053 C1054 1.397 . S
C1053 C1058 1.350 1_565 S
C1054 H1031 0.950 . S
C1054 C1053 1.397 . S
C1054 C1055 1.334 . S
C1055 H1032 0.950 . S
C1055 C1054 1.334 . S
C1055 C1056 1.287 1_565 S
C1056 C1055 1.287 1_545 S
C1056 C1057 1.524 . S
C1056 H1075 0.913 . S
C1057 H1033 0.950 . S
C1057 C1056 1.524 . S
C1057 C1058 1.423 . S
C1058 H1034 0.955 . S
C1058 C1053 1.350 1_545 S
C1058 C1057 1.423 . S
C1059 H1035 0.951 . S
C1059 C1060 1.366 . S
C1059 C1061 1.388 . S
C1060 C1059 1.366 . S
C1060 C1064 1.385 . S
C1061 H1036 0.951 . S
C1061 C1059 1.388 . S
C1061 C1062 1.366 . S
C1062 C1061 1.366 . S
C1062 C1063 1.414 . S
C1062 C1065 1.499 . S
C1063 H1037 0.950 . S
C1063 C1062 1.414 . S
C1063 C1064 1.374 . S
C1064 H1038 0.950 . S
C1064 C1060 1.385 . S
C1064 C1063 1.374 . S
C1065 C1062 1.499 . S
C1065 C1066 1.373 . S
C1065 C1067 1.389 . S
C1066 H1039 0.950 . S
C1066 C1052 1.377 . S
C1066 C1065 1.373 . S
C1067 C1051 1.377 . S
C1067 C1065 1.389 . S
C1067 C1068 1.524 . S
C1068 C1067 1.524 . S
C1068 C1069 1.397 . S
C1068 C1073 1.363 . S
C1069 H1040 0.950 . S
C1069 C1068 1.397 . S
C1069 C1070 1.334 . S
C1070 H1041 0.950 . S
C1070 C1069 1.334 . S
C1070 C1071 1.287 . S
C1071 C1070 1.287 . S
C1071 C1072 1.524 . S
C1071 H1074 0.999 . S
C1072 H1042 0.950 . S
C1072 C1071 1.524 . S
C1072 C1073 1.415 . S
C1073 H1043 0.950 . S
C1073 C1068 1.363 . S
C1073 C1072 1.415 . S
H1074 C1071 0.999 . S
H1075 C1056 0.913 . S
H1076 C1094 0.951 . S
H1077 C1096 0.951 1_655 S
H1078 C1098 0.950 . S
H1079 C1099 0.950 . S
H1080 C1101 0.950 . S
H1081 C1104 0.950 . S
H1082 C1105 0.950 . S
H1083 C1107 0.950 . S
H1084 C1108 0.950 . S
H1085 C1109 0.951 . S
H1086 C1111 0.951 1_455 S
H1087 C1113 0.950 . S
H1088 C1114 0.950 . S
H1089 C1116 0.950 . S
H1090 C1119 0.950 . S
H1091 C1120 0.950 . S
H1092 C1122 0.950 . S
H1093 C1123 0.950 . S
C1094 H1076 0.951 . S
C1094 C1095 1.366 . S
C1094 C1096 1.388 . S
C1095 C1094 1.366 . S
C1095 C1099 1.385 . S
C1096 H1077 0.951 1_455 S
C1096 C1094 1.388 . S
C1096 C1097 1.366 . S
C1097 C1096 1.366 . S
C1097 C1098 1.414 . S
C1097 C1100 1.499 . S
C1098 H1078 0.950 . S
C1098 C1097 1.414 . S
C1098 C1099 1.374 . S
C1099 H1079 0.950 . S
C1099 C1095 1.385 . S
C1099 C1098 1.374 . S
C1100 C1097 1.499 . S
C1100 C1101 1.373 . S
C1100 C1102 1.389 . S
C1101 H1080 0.950 . S
C1101 C1100 1.373 . S
C1101 C1117 1.377 1_455 S
C1102 C1100 1.389 . S
C1102 C1103 1.524 . S
C1102 C1116 1.377 1_455 S
C1103 C1102 1.524 . S
C1103 C1104 1.397 . S
C1103 C1108 1.363 1_465 S
C1104 H1081 0.950 . S
C1104 C1103 1.397 . S
C1104 C1105 1.334 1_565 S
C1105 H1082 0.950 . S
C1105 C1104 1.334 1_545 S
C1105 C1106 1.287 . S
C1106 C1105 1.287 . S
C1106 C1107 1.524 1_455 S
C1106 H1125 0.913 . S
C1107 H1083 0.950 . S
C1107 C1106 1.524 1_655 S
C1107 C1108 1.415 . S
C1108 H1084 0.950 . S
C1108 C1103 1.363 1_645 S
C1108 C1107 1.415 . S
C1109 H1085 0.951 . S
C1109 C1110 1.366 . S
C1109 C1111 1.388 . S
C1110 C1109 1.366 . S
C1110 C1114 1.385 . S
C1111 H1086 0.951 1_655 S
C1111 C1109 1.388 . S
C1111 C1112 1.366 . S
C1112 C1111 1.366 . S
C1112 C1113 1.414 . S
C1112 C1115 1.499 . S
C1113 H1087 0.950 . S
C1113 C1112 1.414 . S
C1113 C1114 1.374 . S
C1114 H1088 0.950 . S
C1114 C1110 1.385 . S
C1114 C1113 1.374 . S
C1115 C1112 1.499 . S
C1115 C1116 1.373 . S
C1115 C1117 1.389 . S
C1116 H1089 0.950 . S
C1116 C1102 1.377 1_655 S
C1116 C1115 1.373 . S
C1117 C1101 1.377 1_655 S
C1117 C1115 1.389 . S
C1117 C1118 1.524 . S
C1118 C1117 1.524 . S
C1118 C1119 1.397 . S
C1118 C1123 1.363 1_655 S
C1119 H1090 0.950 . S
C1119 C1118 1.397 . S
C1119 C1120 1.334 . S
C1120 H1091 0.950 . S
C1120 C1119 1.334 . S
C1120 C1121 1.287 . S
C1121 C1120 1.287 . S
C1121 C1122 1.524 1_655 S
C1121 H1124 0.999 . S
C1122 H1092 0.950 . S
C1122 C1121 1.524 1_455 S
C1122 C1123 1.415 . S
C1123 H1093 0.950 . S
C1123 C1118 1.363 1_455 S
C1123 C1122 1.415 . S
H1124 C1121 0.999 . S
H1125 C1106 0.913 . S
H1126 C1144 0.951 . S
H1127 C1146 0.951 . S
H1128 C1148 0.950 . S
H1129 C1149 0.950 . S
H1130 C1151 0.950 . S
H1131 C1154 0.950 . S
H1132 C1155 0.950 . S
H1133 C1157 0.950 . S
H1134 C1158 0.950 . S
H1135 C1159 0.951 . S
H1136 C1161 0.951 . S
H1137 C1163 0.950 . S
H1138 C1164 0.950 . S
H1139 C1166 0.950 . S
H1140 C1169 0.950 . S
H1141 C1170 0.947 1_565 S
H1142 C1172 0.950 . S
H1143 C1173 0.950 . S
C1144 H1126 0.951 . S
C1144 C1145 1.366 . S
C1144 C1146 1.388 . S
C1145 C1144 1.366 . S
C1145 C1149 1.385 . S
C1146 H1127 0.951 . S
C1146 C1144 1.388 . S
C1146 C1147 1.366 . S
C1147 C1146 1.366 . S
C1147 C1148 1.414 . S
C1147 C1150 1.499 . S
C1148 H1128 0.950 . S
C1148 C1147 1.414 . S
C1148 C1149 1.374 . S
C1149 H1129 0.950 . S
C1149 C1145 1.385 . S
C1149 C1148 1.374 . S
C1150 C1147 1.499 . S
C1150 C1151 1.373 . S
C1150 C1152 1.389 . S
C1151 H1130 0.950 . S
C1151 C1150 1.373 . S
C1151 C1167 1.377 . S
C1152 C1150 1.389 . S
C1152 C1153 1.524 . S
C1152 C1166 1.377 . S
C1153 C1152 1.524 . S
C1153 C1154 1.397 . S
C1153 C1158 1.363 . S
C1154 H1131 0.950 . S
C1154 C1153 1.397 . S
C1154 C1155 1.334 . S
C1155 H1132 0.950 . S
C1155 C1154 1.334 . S
C1155 C1156 1.287 . S
C1156 C1155 1.287 . S
C1156 C1157 1.524 . S
C1156 H1175 0.913 . S
C1157 H1133 0.950 . S
C1157 C1156 1.524 . S
C1157 C1158 1.415 . S
C1158 H1134 0.950 . S
C1158 C1153 1.363 . S
C1158 C1157 1.415 . S
C1159 H1135 0.951 . S
C1159 C1160 1.366 . S
C1159 C1161 1.388 . S
C1160 C1159 1.366 . S
C1160 C1164 1.385 . S
C1161 H1136 0.951 . S
C1161 C1159 1.388 . S
C1161 C1162 1.366 . S
C1162 C1161 1.366 . S
C1162 C1163 1.414 . S
C1162 C1165 1.499 . S
C1163 H1137 0.950 . S
C1163 C1162 1.414 . S
C1163 C1164 1.374 . S
C1164 H1138 0.950 . S
C1164 C1160 1.385 . S
C1164 C1163 1.374 . S
C1165 C1162 1.499 . S
C1165 C1166 1.373 . S
C1165 C1167 1.389 . S
C1166 H1139 0.950 . S
C1166 C1152 1.377 . S
C1166 C1165 1.373 . S
C1167 C1151 1.377 . S
C1167 C1165 1.389 . S
C1167 C1168 1.524 . S
C1168 C1167 1.524 . S
C1168 C1169 1.397 . S
C1168 C1173 1.363 . S
C1169 H1140 0.950 . S
C1169 C1168 1.397 . S
C1169 C1170 1.337 . S
C1170 H1141 0.947 1_545 S
C1170 C1169 1.337 . S
C1170 C1171 1.288 . S
C1171 C1170 1.288 . S
C1171 C1172 1.524 . S
C1171 H1174 0.999 1_545 S
C1172 H1142 0.950 . S
C1172 C1171 1.524 . S
C1172 C1173 1.415 . S
C1173 H1143 0.950 . S
C1173 C1168 1.363 . S
C1173 C1172 1.415 . S
H1174 C1171 0.999 1_565 S
H1175 C1156 0.913 . S
H1176 C1194 0.951 . S
H1177 C1196 0.951 . S
H1178 C1198 0.950 . S
H1179 C1199 0.950 . S
H1180 C1201 0.950 . S
H1181 C1204 0.950 . S
H1182 C1205 0.950 . S
H1183 C1207 0.950 . S
H1184 C1208 0.950 . S
H1185 C1209 0.951 . S
H1186 C1211 0.951 . S
H1187 C1213 0.950 . S
H1188 C1214 0.950 . S
H1189 C1216 0.950 . S
H1190 C1219 0.950 . S
H1191 C1220 0.950 . S
H1192 C1222 0.950 . S
H1193 C1223 0.950 . S
C1194 H1176 0.951 . S
C1194 C1195 1.366 . S
C1194 C1196 1.388 . S
C1195 C1194 1.366 . S
C1195 C1199 1.385 . S
C1196 H1177 0.951 . S
C1196 C1194 1.388 . S
C1196 C1197 1.366 . S
C1197 C1196 1.366 . S
C1197 C1198 1.414 . S
C1197 C1200 1.499 . S
C1198 H1178 0.950 . S
C1198 C1197 1.414 . S
C1198 C1199 1.374 . S
C1199 H1179 0.950 . S
C1199 C1195 1.385 . S
C1199 C1198 1.374 . S
C1200 C1197 1.499 . S
C1200 C1201 1.373 . S
C1200 C1202 1.389 . S
C1201 H1180 0.950 . S
C1201 C1200 1.373 . S
C1201 C1217 1.377 . S
C1202 C1200 1.389 . S
C1202 C1203 1.524 . S
C1202 C1216 1.377 . S
C1203 C1202 1.524 . S
C1203 C1204 1.397 . S
C1203 C1208 1.363 . S
C1204 H1181 0.950 . S
C1204 C1203 1.397 . S
C1204 C1205 1.334 . S
C1205 H1182 0.950 . S
C1205 C1204 1.334 . S
C1205 C1206 1.287 . S
C1206 C1205 1.287 . S
C1206 C1207 1.524 . S
C1206 H1225 0.913 . S
C1207 H1183 0.950 . S
C1207 C1206 1.524 . S
C1207 C1208 1.415 . S
C1208 H1184 0.950 . S
C1208 C1203 1.363 . S
C1208 C1207 1.415 . S
C1209 H1185 0.951 . S
C1209 C1210 1.366 . S
C1209 C1211 1.388 . S
C1210 C1209 1.366 . S
C1210 C1214 1.385 . S
C1211 H1186 0.951 . S
C1211 C1209 1.388 . S
C1211 C1212 1.366 . S
C1212 C1211 1.366 . S
C1212 C1213 1.414 . S
C1212 C1215 1.499 . S
C1213 H1187 0.950 . S
C1213 C1212 1.414 . S
C1213 C1214 1.374 . S
C1214 H1188 0.950 . S
C1214 C1210 1.385 . S
C1214 C1213 1.374 . S
C1215 C1212 1.499 . S
C1215 C1216 1.373 . S
C1215 C1217 1.389 . S
C1216 H1189 0.950 . S
C1216 C1202 1.377 . S
C1216 C1215 1.373 . S
C1217 C1201 1.377 . S
C1217 C1215 1.389 . S
C1217 C1218 1.524 . S
C1218 C1217 1.524 . S
C1218 C1219 1.397 . S
C1218 C1223 1.363 . S
C1219 H1190 0.950 . S
C1219 C1218 1.397 . S
C1219 C1220 1.334 . S
C1220 H1191 0.950 . S
C1220 C1219 1.334 . S
C1220 C1221 1.287 . S
C1221 C1220 1.287 . S
C1221 C1222 1.524 . S
C1221 H1224 0.999 . S
C1222 H1192 0.950 . S
C1222 C1221 1.524 . S
C1222 C1223 1.415 . S
C1223 H1193 0.950 . S
C1223 C1218 1.363 . S
C1223 C1222 1.415 . S
H1224 C1221 0.999 . S
H1225 C1206 0.913 . S
H1226 C1244 0.951 . S
H1227 C1246 0.951 . S
H1228 C1248 0.950 . S
H1229 C1249 0.950 . S
H1230 C1251 0.950 . S
H1231 C1254 0.950 . S
H1232 C1255 0.950 . S
H1233 C1257 0.950 . S
H1234 C1258 0.950 . S
H1235 C1259 0.951 . S
H1236 C1261 0.951 . S
H1237 C1263 0.950 . S
H1238 C1264 0.950 . S
H1239 C1266 0.950 . S
H1240 C1269 0.950 . S
H1241 C1270 0.950 . S
H1242 C1272 0.950 . S
H1243 C1273 0.950 . S
C1244 H1226 0.951 . S
C1244 C1245 1.366 . S
C1244 C1246 1.388 . S
C1245 C1244 1.366 . S
C1245 C1249 1.385 . S
C1246 H1227 0.951 . S
C1246 C1244 1.388 . S
C1246 C1247 1.366 . S
C1247 C1246 1.366 . S
C1247 C1248 1.414 . S
C1247 C1250 1.499 . S
C1248 H1228 0.950 . S
C1248 C1247 1.414 . S
C1248 C1249 1.374 . S
C1249 H1229 0.950 . S
C1249 C1245 1.385 . S
C1249 C1248 1.374 . S
C1250 C1247 1.499 . S
C1250 C1251 1.373 1_455 S
C1250 C1252 1.389 . S
C1251 H1230 0.950 . S
C1251 C1250 1.373 1_655 S
C1251 C1267 1.377 . S
C1252 C1250 1.389 . S
C1252 C1253 1.524 . S
C1252 C1266 1.377 . S
C1253 C1252 1.524 . S
C1253 C1254 1.397 . S
C1253 C1258 1.363 . S
C1254 H1231 0.950 . S
C1254 C1253 1.397 . S
C1254 C1255 1.334 . S
C1255 H1232 0.950 . S
C1255 C1254 1.334 . S
C1255 C1256 1.287 . S
C1256 C1255 1.287 . S
C1256 C1257 1.524 . S
C1256 H1275 0.913 . S
C1257 H1233 0.950 . S
C1257 C1256 1.524 . S
C1257 C1258 1.415 . S
C1258 H1234 0.950 . S
C1258 C1253 1.363 . S
C1258 C1257 1.415 . S
C1259 H1235 0.951 . S
C1259 C1260 1.366 . S
C1259 C1261 1.388 . S
C1260 C1259 1.366 . S
C1260 C1264 1.385 . S
C1261 H1236 0.951 . S
C1261 C1259 1.388 . S
C1261 C1262 1.366 . S
C1262 C1261 1.366 . S
C1262 C1263 1.414 . S
C1262 C1265 1.499 . S
C1263 H1237 0.950 . S
C1263 C1262 1.414 . S
C1263 C1264 1.374 . S
C1264 H1238 0.950 . S
C1264 C1260 1.385 . S
C1264 C1263 1.374 . S
C1265 C1262 1.499 . S
C1265 C1266 1.373 1_655 S
C1265 C1267 1.389 . S
C1266 H1239 0.950 . S
C1266 C1252 1.377 . S
C1266 C1265 1.373 1_455 S
C1267 C1251 1.377 . S
C1267 C1265 1.389 . S
C1267 C1268 1.524 . S
C1268 C1267 1.524 . S
C1268 C1269 1.397 . S
C1268 C1273 1.363 . S
C1269 H1240 0.950 . S
C1269 C1268 1.397 . S
C1269 C1270 1.334 . S
C1270 H1241 0.950 . S
C1270 C1269 1.334 . S
C1270 C1271 1.287 . S
C1271 C1270 1.287 . S
C1271 C1272 1.524 . S
C1271 H1274 0.999 . S
C1272 H1242 0.950 . S
C1272 C1271 1.524 . S
C1272 C1273 1.415 . S
C1273 H1243 0.950 . S
C1273 C1268 1.363 . S
C1273 C1272 1.415 . S
H1274 C1271 0.999 . S
H1275 C1256 0.913 . S
H1276 C1294 0.951 . S
H1277 C1296 0.951 . S
H1278 C1298 0.950 . S
H1279 C1299 0.950 . S
H1280 C1301 0.950 . S
H1281 C1304 0.950 . S
H1282 C1305 0.950 . S
H1283 C1307 0.950 . S
H1284 C1308 0.950 . S
H1285 C1309 0.951 . S
H1286 C1311 0.951 . S
H1287 C1313 0.950 . S
H1288 C1314 0.950 . S
H1289 C1316 0.950 . S
H1290 C1319 0.950 . S
H1291 C1320 0.950 . S
H1292 C1322 0.950 . S
H1293 C1323 0.950 . S
C1294 H1276 0.951 . S
C1294 C1295 1.366 . S
C1294 C1296 1.388 . S
C1295 C1294 1.366 . S
C1295 C1299 1.385 . S
C1296 H1277 0.951 . S
C1296 C1294 1.388 . S
C1296 C1297 1.366 . S
C1297 C1296 1.366 . S
C1297 C1298 1.414 . S
C1297 C1300 1.499 . S
C1298 H1278 0.950 . S
C1298 C1297 1.414 . S
C1298 C1299 1.374 . S
C1299 H1279 0.950 . S
C1299 C1295 1.385 . S
C1299 C1298 1.374 . S
C1300 C1297 1.499 . S
C1300 C1301 1.373 . S
C1300 C1302 1.389 . S
C1301 H1280 0.950 . S
C1301 C1300 1.373 . S
C1301 C1317 1.377 . S
C1302 C1300 1.389 . S
C1302 C1303 1.524 . S
C1302 C1316 1.377 . S
C1303 C1302 1.524 . S
C1303 C1304 1.397 . S
C1303 C1308 1.363 . S
C1304 H1281 0.950 . S
C1304 C1303 1.397 . S
C1304 C1305 1.334 . S
C1305 H1282 0.950 . S
C1305 C1304 1.334 . S
C1305 C1306 1.287 . S
C1306 C1305 1.287 . S
C1306 C1307 1.524 . S
C1306 H1325 0.913 . S
C1307 H1283 0.950 . S
C1307 C1306 1.524 . S
C1307 C1308 1.415 . S
C1308 H1284 0.950 . S
C1308 C1303 1.363 . S
C1308 C1307 1.415 . S
C1309 H1285 0.951 . S
C1309 C1310 1.366 . S
C1309 C1311 1.388 . S
C1310 C1309 1.366 . S
C1310 C1314 1.385 . S
C1311 H1286 0.951 . S
C1311 C1309 1.388 . S
C1311 C1312 1.366 . S
C1312 C1311 1.366 . S
C1312 C1313 1.414 . S
C1312 C1315 1.499 . S
C1313 H1287 0.950 . S
C1313 C1312 1.414 . S
C1313 C1314 1.374 . S
C1314 H1288 0.950 . S
C1314 C1310 1.385 . S
C1314 C1313 1.374 . S
C1315 C1312 1.499 . S
C1315 C1316 1.373 . S
C1315 C1317 1.389 . S
C1316 H1289 0.950 . S
C1316 C1302 1.377 . S
C1316 C1315 1.373 . S
C1317 C1301 1.377 . S
C1317 C1315 1.389 . S
C1317 C1318 1.524 . S
C1318 C1317 1.524 . S
C1318 C1319 1.397 . S
C1318 C1323 1.363 . S
C1319 H1290 0.950 . S
C1319 C1318 1.397 . S
C1319 C1320 1.334 . S
C1320 H1291 0.950 . S
C1320 C1319 1.334 . S
C1320 C1321 1.287 . S
C1321 C1320 1.287 . S
C1321 C1322 1.524 . S
C1321 H1324 0.999 . S
C1322 H1292 0.950 . S
C1322 C1321 1.524 . S
C1322 C1323 1.415 . S
C1323 H1293 0.950 . S
C1323 C1318 1.363 . S
C1323 C1322 1.415 . S
H1324 C1321 0.999 . S
H1325 C1306 0.913 . S
H1326 C1344 0.951 . S
H1327 C1346 0.951 . S
H1328 C1348 0.950 . S
H1329 C1349 0.950 . S
H1330 C1351 0.950 . S
H1331 C1354 0.950 . S
H1332 C1355 0.950 . S
H1333 C1357 0.950 . S
H1334 C1358 0.950 . S
H1335 C1359 0.951 . S
H1336 C1361 0.951 . S
H1337 C1363 0.950 . S
H1338 C1364 0.950 . S
H1339 C1366 0.950 . S
H1340 C1369 0.950 . S
H1341 C1370 0.950 . S
H1342 C1372 0.950 . S
H1343 C1373 0.950 . S
C1344 H1326 0.951 . S
C1344 C1345 1.366 . S
C1344 C1346 1.388 . S
C1345 C1344 1.366 . S
C1345 C1349 1.385 . S
C1346 H1327 0.951 . S
C1346 C1344 1.388 . S
C1346 C1347 1.366 . S
C1347 C1346 1.366 . S
C1347 C1348 1.414 . S
C1347 C1350 1.499 . S
C1348 H1328 0.950 . S
C1348 C1347 1.414 . S
C1348 C1349 1.374 . S
C1349 H1329 0.950 . S
C1349 C1345 1.385 . S
C1349 C1348 1.374 . S
C1350 C1347 1.499 . S
C1350 C1351 1.373 . S
C1350 C1352 1.389 1_455 S
C1351 H1330 0.950 . S
C1351 C1350 1.373 . S
C1351 C1367 1.377 . S
C1352 C1350 1.389 1_655 S
C1352 C1353 1.524 . S
C1352 C1366 1.377 . S
C1353 C1352 1.524 . S
C1353 C1354 1.397 . S
C1353 C1358 1.363 . S
C1354 H1331 0.950 . S
C1354 C1353 1.397 . S
C1354 C1355 1.334 . S
C1355 H1332 0.950 . S
C1355 C1354 1.334 . S
C1355 C1356 1.287 . S
C1356 C1355 1.287 . S
C1356 C1357 1.524 . S
C1356 H1375 0.913 . S
C1357 H1333 0.950 . S
C1357 C1356 1.524 . S
C1357 C1358 1.415 . S
C1358 H1334 0.950 . S
C1358 C1353 1.363 . S
C1358 C1357 1.415 . S
C1359 H1335 0.951 . S
C1359 C1360 1.366 . S
C1359 C1361 1.388 . S
C1360 C1359 1.366 . S
C1360 C1364 1.385 . S
C1361 H1336 0.951 . S
C1361 C1359 1.388 . S
C1361 C1362 1.366 . S
C1362 C1361 1.366 . S
C1362 C1363 1.414 . S
C1362 C1365 1.499 . S
C1363 H1337 0.950 . S
C1363 C1362 1.414 . S
C1363 C1364 1.374 . S
C1364 H1338 0.950 . S
C1364 C1360 1.385 . S
C1364 C1363 1.374 . S
C1365 C1362 1.499 . S
C1365 C1366 1.373 . S
C1365 C1367 1.389 1_655 S
C1366 H1339 0.950 . S
C1366 C1352 1.377 . S
C1366 C1365 1.373 . S
C1367 C1351 1.377 . S
C1367 C1365 1.389 1_455 S
C1367 C1368 1.524 . S
C1368 C1367 1.524 . S
C1368 C1369 1.397 . S
C1368 C1373 1.363 . S
C1369 H1340 0.950 . S
C1369 C1368 1.397 . S
C1369 C1370 1.334 . S
C1370 H1341 0.950 . S
C1370 C1369 1.334 . S
C1370 C1371 1.287 . S
C1371 C1370 1.287 . S
C1371 C1372 1.524 . S
C1371 H1374 0.999 . S
C1372 H1342 0.950 . S
C1372 C1371 1.524 . S
C1372 C1373 1.415 . S
C1373 H1343 0.950 . S
C1373 C1368 1.363 . S
C1373 C1372 1.415 . S
H1374 C1371 0.999 . S
H1375 C1356 0.913 . S
H1376 C1394 0.951 . S
H1377 C1396 0.951 . S
H1378 C1398 0.950 1_655 S
H1379 C1399 0.950 . S
H1380 C1401 0.950 . S
H1381 C1404 0.950 . S
H1382 C1405 0.950 . S
H1383 C1407 0.950 . S
H1384 C1408 0.950 . S
H1385 C1409 0.951 . S
H1386 C1411 0.951 . S
H1387 C1413 0.950 1_455 S
H1388 C1414 0.950 . S
H1389 C1416 0.950 . S
H1390 C1419 0.950 . S
H1391 C1420 0.950 . S
H1392 C1422 0.950 . S
H1393 C1423 0.950 . S
C1394 H1376 0.951 . S
C1394 C1395 1.366 . S
C1394 C1396 1.388 . S
C1395 C1394 1.366 . S
C1395 C1399 1.385 . S
C1396 H1377 0.951 . S
C1396 C1394 1.388 . S
C1396 C1397 1.366 . S
C1397 C1396 1.366 . S
C1397 C1398 1.414 . S
C1397 C1400 1.499 . S
C1398 H1378 0.950 1_455 S
C1398 C1397 1.414 . S
C1398 C1399 1.374 . S
C1399 H1379 0.950 . S
C1399 C1395 1.385 . S
C1399 C1398 1.374 . S
C1400 C1397 1.499 . S
C1400 C1401 1.373 1_455 S
C1400 C1402 1.389 . S
C1401 H1380 0.950 . S
C1401 C1400 1.373 1_655 S
C1401 C1417 1.377 . S
C1402 C1400 1.389 . S
C1402 C1403 1.524 . S
C1402 C1416 1.377 . S
C1403 C1402 1.524 . S
C1403 C1404 1.397 . S
C1403 C1408 1.363 . S
C1404 H1381 0.950 . S
C1404 C1403 1.397 . S
C1404 C1405 1.334 . S
C1405 H1382 0.950 . S
C1405 C1404 1.334 . S
C1405 C1406 1.287 . S
C1406 C1405 1.287 . S
C1406 C1407 1.524 . S
C1406 H1425 0.913 . S
C1407 H1383 0.950 . S
C1407 C1406 1.524 . S
C1407 C1408 1.415 . S
C1408 H1384 0.950 . S
C1408 C1403 1.363 . S
C1408 C1407 1.415 . S
C1409 H1385 0.951 . S
C1409 C1410 1.366 . S
C1409 C1411 1.388 . S
C1410 C1409 1.366 . S
C1410 C1414 1.385 . S
C1411 H1386 0.951 . S
C1411 C1409 1.388 . S
C1411 C1412 1.366 . S
C1412 C1411 1.366 . S
C1412 C1413 1.414 . S
C1412 C1415 1.499 . S
C1413 H1387 0.950 1_655 S
C1413 C1412 1.414 . S
C1413 C1414 1.374 . S
C1414 H1388 0.950 . S
C1414 C1410 1.385 . S
C1414 C1413 1.374 . S
C1415 C1412 1.499 . S
C1415 C1416 1.373 1_655 S
C1415 C1417 1.389 . S
C1416 H1389 0.950 . S
C1416 C1402 1.377 . S
C1416 C1415 1.373 1_455 S
C1417 C1401 1.377 . S
C1417 C1415 1.389 . S
C1417 C1418 1.524 . S
C1418 C1417 1.524 . S
C1418 C1419 1.397 . S
C1418 C1423 1.363 . S
C1419 H1390 0.950 . S
C1419 C1418 1.397 . S
C1419 C1420 1.334 . S
C1420 H1391 0.950 . S
C1420 C1419 1.334 . S
C1420 C1421 1.287 . S
C1421 C1420 1.287 . S
C1421 C1422 1.524 . S
C1421 H1424 0.999 . S
C1422 H1392 0.950 . S
C1422 C1421 1.524 . S
C1422 C1423 1.415 . S
C1423 H1393 0.950 . S
C1423 C1418 1.363 . S
C1423 C1422 1.415 . S
H1424 C1421 0.999 . S
H1425 C1406 0.913 . S
H1426 C1444 0.951 . S
H1427 C1446 0.951 . S
H1428 C1448 0.950 . S
H1429 C1449 0.950 . S
H1430 C1451 0.950 . S
H1431 C1454 0.950 . S
H1432 C1455 0.950 . S
H1433 C1457 0.950 . S
H1434 C1458 0.950 . S
H1435 C1459 0.951 . S
H1436 C1461 0.951 . S
H1437 C1463 0.950 . S
H1438 C1464 0.950 . S
H1439 C1466 0.950 . S
H1440 C1469 0.950 . S
H1441 C1470 0.950 . S
H1442 C1472 0.950 . S
H1443 C1473 0.950 . S
C1444 H1426 0.951 . S
C1444 C1445 1.366 . S
C1444 C1446 1.388 . S
C1445 C1444 1.366 . S
C1445 C1449 1.385 . S
C1446 H1427 0.951 . S
C1446 C1444 1.388 . S
C1446 C1447 1.366 . S
C1447 C1446 1.366 . S
C1447 C1448 1.414 . S
C1447 C1450 1.499 . S
C1448 H1428 0.950 . S
C1448 C1447 1.414 . S
C1448 C1449 1.374 . S
C1449 H1429 0.950 . S
C1449 C1445 1.385 . S
C1449 C1448 1.374 . S
C1450 C1447 1.499 . S
C1450 C1451 1.373 . S
C1450 C1452 1.389 . S
C1451 H1430 0.950 . S
C1451 C1450 1.373 . S
C1451 C1467 1.377 . S
C1452 C1450 1.389 . S
C1452 C1453 1.524 . S
C1452 C1466 1.377 . S
C1453 C1452 1.524 . S
C1453 C1454 1.397 . S
C1453 C1458 1.363 . S
C1454 H1431 0.950 . S
C1454 C1453 1.397 . S
C1454 C1455 1.334 . S
C1455 H1432 0.950 . S
C1455 C1454 1.334 . S
C1455 C1456 1.287 . S
C1456 C1455 1.287 . S
C1456 C1457 1.524 . S
C1456 H1475 0.913 . S
C1457 H1433 0.950 . S
C1457 C1456 1.524 . S
C1457 C1458 1.415 . S
C1458 H1434 0.950 . S
C1458 C1453 1.363 . S
C1458 C1457 1.415 . S
C1459 H1435 0.951 . S
C1459 C1460 1.366 . S
C1459 C1461 1.388 . S
C1460 C1459 1.366 . S
C1460 C1464 1.385 . S
C1461 H1436 0.951 . S
C1461 C1459 1.388 . S
C1461 C1462 1.366 . S
C1462 C1461 1.366 . S
C1462 C1463 1.414 . S
C1462 C1465 1.499 . S
C1463 H1437 0.950 . S
C1463 C1462 1.414 . S
C1463 C1464 1.374 . S
C1464 H1438 0.950 . S
C1464 C1460 1.385 . S
C1464 C1463 1.374 . S
C1465 C1462 1.499 . S
C1465 C1466 1.373 . S
C1465 C1467 1.389 . S
C1466 H1439 0.950 . S
C1466 C1452 1.377 . S
C1466 C1465 1.373 . S
C1467 C1451 1.377 . S
C1467 C1465 1.389 . S
C1467 C1468 1.524 . S
C1468 C1467 1.524 . S
C1468 C1469 1.397 . S
C1468 C1473 1.363 . S
C1469 H1440 0.950 . S
C1469 C1468 1.397 . S
C1469 C1470 1.334 . S
C1470 H1441 0.950 . S
C1470 C1469 1.334 . S
C1470 C1471 1.287 . S
C1471 C1470 1.287 . S
C1471 C1472 1.524 . S
C1471 H1474 0.999 . S
C1472 H1442 0.950 . S
C1472 C1471 1.524 . S
C1472 C1473 1.415 . S
C1473 H1443 0.950 . S
C1473 C1468 1.363 . S
C1473 C1472 1.415 . S
H1474 C1471 0.999 . S
H1475 C1456 0.913 . S
H1476 C1494 0.951 . S
H1477 C1496 0.951 . S
H1478 C1498 0.950 . S
H1479 C1499 0.950 . S
H1480 C1501 0.950 . S
H1481 C1504 0.950 . S
H1482 C1505 0.950 . S
H1483 C1507 0.950 . S
H1484 C1508 0.950 . S
H1485 C1509 0.951 . S
H1486 C1511 0.951 . S
H1487 C1513 0.950 . S
H1488 C1514 0.950 . S
H1489 C1516 0.950 . S
H1490 C1519 0.950 . S
H1491 C1520 0.950 . S
H1492 C1522 0.950 . S
H1493 C1523 0.950 . S
C1494 H1476 0.951 . S
C1494 C1495 1.366 . S
C1494 C1496 1.388 . S
C1495 C1494 1.366 . S
C1495 C1499 1.385 . S
C1496 H1477 0.951 . S
C1496 C1494 1.388 . S
C1496 C1497 1.366 . S
C1497 C1496 1.366 . S
C1497 C1498 1.414 . S
C1497 C1500 1.499 . S
C1498 H1478 0.950 . S
C1498 C1497 1.414 . S
C1498 C1499 1.374 . S
C1499 H1479 0.950 . S
C1499 C1495 1.385 . S
C1499 C1498 1.374 . S
C1500 C1497 1.499 . S
C1500 C1501 1.373 . S
C1500 C1502 1.389 . S
C1501 H1480 0.950 . S
C1501 C1500 1.373 . S
C1501 C1517 1.377 . S
C1502 C1500 1.389 . S
C1502 C1503 1.524 . S
C1502 C1516 1.377 . S
C1503 C1502 1.524 . S
C1503 C1504 1.397 . S
C1503 C1508 1.363 . S
C1504 H1481 0.950 . S
C1504 C1503 1.397 . S
C1504 C1505 1.334 . S
C1505 H1482 0.950 . S
C1505 C1504 1.334 . S
C1505 C1506 1.287 . S
C1506 C1505 1.287 . S
C1506 C1507 1.524 . S
C1506 H1525 0.913 . S
C1507 H1483 0.950 . S
C1507 C1506 1.524 . S
C1507 C1508 1.415 . S
C1508 H1484 0.950 . S
C1508 C1503 1.363 . S
C1508 C1507 1.415 . S
C1509 H1485 0.951 . S
C1509 C1510 1.366 . S
C1509 C1511 1.388 . S
C1510 C1509 1.366 . S
C1510 C1514 1.385 . S
C1511 H1486 0.951 . S
C1511 C1509 1.388 . S
C1511 C1512 1.366 . S
C1512 C1511 1.366 . S
C1512 C1513 1.414 . S
C1512 C1515 1.499 . S
C1513 H1487 0.950 . S
C1513 C1512 1.414 . S
C1513 C1514 1.374 . S
C1514 H1488 0.950 . S
C1514 C1510 1.385 . S
C1514 C1513 1.374 . S
C1515 C1512 1.499 . S
C1515 C1516 1.373 . S
C1515 C1517 1.389 . S
C1516 H1489 0.950 . S
C1516 C1502 1.377 . S
C1516 C1515 1.373 . S
C1517 C1501 1.377 . S
C1517 C1515 1.389 . S
C1517 C1518 1.524 . S
C1518 C1517 1.524 . S
C1518 C1519 1.397 . S
C1518 C1523 1.363 . S
C1519 H1490 0.950 . S
C1519 C1518 1.397 . S
C1519 C1520 1.334 . S
C1520 H1491 0.950 . S
C1520 C1519 1.334 . S
C1520 C1521 1.287 . S
C1521 C1520 1.287 . S
C1521 C1522 1.524 . S
C1521 H1524 0.999 . S
C1522 H1492 0.950 . S
C1522 C1521 1.524 . S
C1522 C1523 1.415 . S
C1523 H1493 0.950 . S
C1523 C1518 1.363 . S
C1523 C1522 1.415 . S
H1524 C1521 0.999 . S
H1525 C1506 0.913 . S
H1526 C1544 0.951 . S
H1527 C1546 0.951 . S
H1528 C1548 0.950 . S
H1529 C1549 0.950 . S
H1530 C1551 0.950 . S
H1531 C1554 0.950 . S
H1532 C1555 0.950 . S
H1533 C1557 0.950 . S
H1534 C1558 0.950 . S
H1535 C1559 0.951 . S
H1536 C1561 0.951 . S
H1537 C1563 0.950 . S
H1538 C1564 0.950 . S
H1539 C1566 0.950 . S
H1540 C1569 0.950 . S
H1541 C1570 0.950 . S
H1542 C1572 0.950 . S
H1543 C1573 0.950 . S
C1544 H1526 0.951 . S
C1544 C1545 1.366 . S
C1544 C1546 1.388 . S
C1545 C1544 1.366 . S
C1545 C1549 1.385 . S
C1546 H1527 0.951 . S
C1546 C1544 1.388 . S
C1546 C1547 1.366 . S
C1547 C1546 1.366 . S
C1547 C1548 1.414 . S
C1547 C1550 1.499 . S
C1548 H1528 0.950 . S
C1548 C1547 1.414 . S
C1548 C1549 1.374 . S
C1549 H1529 0.950 . S
C1549 C1545 1.385 . S
C1549 C1548 1.374 . S
C1550 C1547 1.499 . S
C1550 C1551 1.373 . S
C1550 C1552 1.389 1_455 S
C1551 H1530 0.950 . S
C1551 C1550 1.373 . S
C1551 C1567 1.377 . S
C1552 C1550 1.389 1_655 S
C1552 C1553 1.524 . S
C1552 C1566 1.377 . S
C1553 C1552 1.524 . S
C1553 C1554 1.397 . S
C1553 C1558 1.363 . S
C1554 H1531 0.950 . S
C1554 C1553 1.397 . S
C1554 C1555 1.334 . S
C1555 H1532 0.950 . S
C1555 C1554 1.334 . S
C1555 C1556 1.287 . S
C1556 C1555 1.287 . S
C1556 C1557 1.524 . S
C1556 H1575 0.913 . S
C1557 H1533 0.950 . S
C1557 C1556 1.524 . S
C1557 C1558 1.415 . S
C1558 H1534 0.950 . S
C1558 C1553 1.363 . S
C1558 C1557 1.415 . S
C1559 H1535 0.951 . S
C1559 C1560 1.366 . S
C1559 C1561 1.388 . S
C1560 C1559 1.366 . S
C1560 C1564 1.385 . S
C1561 H1536 0.951 . S
C1561 C1559 1.388 . S
C1561 C1562 1.366 . S
C1562 C1561 1.366 . S
C1562 C1563 1.414 . S
C1562 C1565 1.499 . S
C1563 H1537 0.950 . S
C1563 C1562 1.414 . S
C1563 C1564 1.374 . S
C1564 H1538 0.950 . S
C1564 C1560 1.385 . S
C1564 C1563 1.374 . S
C1565 C1562 1.499 . S
C1565 C1566 1.373 . S
C1565 C1567 1.389 1_655 S
C1566 H1539 0.950 . S
C1566 C1552 1.377 . S
C1566 C1565 1.373 . S
C1567 C1551 1.377 . S
C1567 C1565 1.389 1_455 S
C1567 C1568 1.524 . S
C1568 C1567 1.524 . S
C1568 C1569 1.397 . S
C1568 C1573 1.363 . S
C1569 H1540 0.950 . S
C1569 C1568 1.397 . S
C1569 C1570 1.334 . S
C1570 H1541 0.950 . S
C1570 C1569 1.334 . S
C1570 C1571 1.287 . S
C1571 C1570 1.287 . S
C1571 C1572 1.524 . S
C1571 H1574 0.999 . S
C1572 H1542 0.950 . S
C1572 C1571 1.524 . S
C1572 C1573 1.415 . S
C1573 H1543 0.950 . S
C1573 C1568 1.363 . S
C1573 C1572 1.415 . S
H1574 C1571 0.999 . S
H1575 C1556 0.913 . S
H1576 C1594 0.951 . S
H1577 C1596 0.951 1_655 S
H1578 C1598 0.950 . S
H1579 C1599 0.950 . S
H1580 C1601 0.950 . S
H1581 C1604 0.950 . S
H1582 C1605 0.950 . S
H1583 C1607 0.950 . S
H1584 C1608 0.950 . S
H1585 C1609 0.951 . S
H1586 C1611 0.951 1_455 S
H1587 C1613 0.950 . S
H1588 C1614 0.950 . S
H1589 C1616 0.950 . S
H1590 C1619 0.950 . S
H1591 C1620 0.950 . S
H1592 C1622 0.950 . S
H1593 C1623 0.950 . S
C1594 H1576 0.951 . S
C1594 C1595 1.366 . S
C1594 C1596 1.388 . S
C1595 C1594 1.366 . S
C1595 C1599 1.385 . S
C1596 H1577 0.951 1_455 S
C1596 C1594 1.388 . S
C1596 C1597 1.366 . S
C1597 C1596 1.366 . S
C1597 C1598 1.414 . S
C1597 C1600 1.499 . S
C1598 H1578 0.950 . S
C1598 C1597 1.414 . S
C1598 C1599 1.374 . S
C1599 H1579 0.950 . S
C1599 C1595 1.385 . S
C1599 C1598 1.374 . S
C1600 C1597 1.499 . S
C1600 C1601 1.373 . S
C1600 C1602 1.389 1_455 S
C1601 H1580 0.950 . S
C1601 C1600 1.373 . S
C1601 C1617 1.377 . S
C1602 C1600 1.389 1_655 S
C1602 C1603 1.524 . S
C1602 C1616 1.377 . S
C1603 C1602 1.524 . S
C1603 C1604 1.397 . S
C1603 C1608 1.363 . S
C1604 H1581 0.950 . S
C1604 C1603 1.397 . S
C1604 C1605 1.334 . S
C1605 H1582 0.950 . S
C1605 C1604 1.334 . S
C1605 C1606 1.287 . S
C1606 C1605 1.287 . S
C1606 C1607 1.524 . S
C1606 H1625 0.913 . S
C1607 H1583 0.950 . S
C1607 C1606 1.524 . S
C1607 C1608 1.415 . S
C1608 H1584 0.950 . S
C1608 C1603 1.363 . S
C1608 C1607 1.415 . S
C1609 H1585 0.951 . S
C1609 C1610 1.366 . S
C1609 C1611 1.388 . S
C1610 C1609 1.366 . S
C1610 C1614 1.385 . S
C1611 H1586 0.951 1_655 S
C1611 C1609 1.388 . S
C1611 C1612 1.366 . S
C1612 C1611 1.366 . S
C1612 C1613 1.414 . S
C1612 C1615 1.499 . S
C1613 H1587 0.950 . S
C1613 C1612 1.414 . S
C1613 C1614 1.374 . S
C1614 H1588 0.950 . S
C1614 C1610 1.385 . S
C1614 C1613 1.374 . S
C1615 C1612 1.499 . S
C1615 C1616 1.373 . S
C1615 C1617 1.389 1_655 S
C1616 H1589 0.950 . S
C1616 C1602 1.377 . S
C1616 C1615 1.373 . S
C1617 C1601 1.377 . S
C1617 C1615 1.389 1_455 S
C1617 C1618 1.524 . S
C1618 C1617 1.524 . S
C1618 C1619 1.397 . S
C1618 C1623 1.363 . S
C1619 H1590 0.950 . S
C1619 C1618 1.397 . S
C1619 C1620 1.334 . S
C1620 H1591 0.950 . S
C1620 C1619 1.334 . S
C1620 C1621 1.287 . S
C1621 C1620 1.287 . S
C1621 C1622 1.524 . S
C1621 H1624 0.999 . S
C1622 H1592 0.950 . S
C1622 C1621 1.524 . S
C1622 C1623 1.415 . S
C1623 H1593 0.950 . S
C1623 C1618 1.363 . S
C1623 C1622 1.415 . S
H1624 C1621 0.999 . S
H1625 C1606 0.913 . S
H1626 C1644 0.951 . S
H1627 C1646 0.951 . S
H1628 C1648 0.950 . S
H1629 C1649 0.950 . S
H1630 C1651 0.950 . S
H1631 C1654 0.950 . S
H1632 C1655 0.950 . S
H1633 C1657 0.950 . S
H1634 C1658 0.950 . S
H1635 C1659 0.951 . S
H1636 C1661 0.951 . S
H1637 C1663 0.950 . S
H1638 C1664 0.950 . S
H1639 C1666 0.950 . S
H1640 C1669 0.950 . S
H1641 C1670 0.950 . S
H1642 C1672 0.950 . S
H1643 C1673 0.950 . S
C1644 H1626 0.951 . S
C1644 C1645 1.366 . S
C1644 C1646 1.388 . S
C1645 C1644 1.366 . S
C1645 C1649 1.385 . S
C1646 H1627 0.951 . S
C1646 C1644 1.388 . S
C1646 C1647 1.366 . S
C1647 C1646 1.366 . S
C1647 C1648 1.414 . S
C1647 C1650 1.499 . S
C1648 H1628 0.950 . S
C1648 C1647 1.414 . S
C1648 C1649 1.374 . S
C1649 H1629 0.950 . S
C1649 C1645 1.385 . S
C1649 C1648 1.374 . S
C1650 C1647 1.499 . S
C1650 C1651 1.373 . S
C1650 C1652 1.389 . S
C1651 H1630 0.950 . S
C1651 C1650 1.373 . S
C1651 C1667 1.377 . S
C1652 C1650 1.389 . S
C1652 C1653 1.524 . S
C1652 C1666 1.377 . S
C1653 C1652 1.524 . S
C1653 C1654 1.397 . S
C1653 C1658 1.363 . S
C1654 H1631 0.950 . S
C1654 C1653 1.397 . S
C1654 C1655 1.334 . S
C1655 H1632 0.950 . S
C1655 C1654 1.334 . S
C1655 C1656 1.287 . S
C1656 C1655 1.287 . S
C1656 C1657 1.524 . S
C1656 H1675 0.913 . S
C1657 H1633 0.950 . S
C1657 C1656 1.524 . S
C1657 C1658 1.415 . S
C1658 H1634 0.950 . S
C1658 C1653 1.363 . S
C1658 C1657 1.415 . S
C1659 H1635 0.951 . S
C1659 C1660 1.366 . S
C1659 C1661 1.388 . S
C1660 C1659 1.366 . S
C1660 C1664 1.385 . S
C1661 H1636 0.951 . S
C1661 C1659 1.388 . S
C1661 C1662 1.366 . S
C1662 C1661 1.366 . S
C1662 C1663 1.414 . S
C1662 C1665 1.499 . S
C1663 H1637 0.950 . S
C1663 C1662 1.414 . S
C1663 C1664 1.374 . S
C1664 H1638 0.950 . S
C1664 C1660 1.385 . S
C1664 C1663 1.374 . S
C1665 C1662 1.499 . S
C1665 C1666 1.373 . S
C1665 C1667 1.389 . S
C1666 H1639 0.950 . S
C1666 C1652 1.377 . S
C1666 C1665 1.373 . S
C1667 C1651 1.377 . S
C1667 C1665 1.389 . S
C1667 C1668 1.524 . S
C1668 C1667 1.524 . S
C1668 C1669 1.397 . S
C1668 C1673 1.363 . S
C1669 H1640 0.950 . S
C1669 C1668 1.397 . S
C1669 C1670 1.334 . S
C1670 H1641 0.950 . S
C1670 C1669 1.334 . S
C1670 C1671 1.287 . S
C1671 C1670 1.287 . S
C1671 C1672 1.524 . S
C1671 H1674 0.999 . S
C1672 H1642 0.950 . S
C1672 C1671 1.524 . S
C1672 C1673 1.415 . S
C1673 H1643 0.950 . S
C1673 C1668 1.363 . S
C1673 C1672 1.415 . S
H1674 C1671 0.999 . S
H1675 C1656 0.913 . S
H1676 C1694 0.951 . S
H1677 C1696 0.951 . S
H1678 C1698 0.950 . S
H1679 C1699 0.950 . S
H1680 C1701 0.950 . S
H1681 C1704 0.950 . S
H1682 C1705 0.950 . S
H1683 C1707 0.950 . S
H1684 C1708 0.950 . S
H1685 C1709 0.951 . S
H1686 C1711 0.951 . S
H1687 C1713 0.950 . S
H1688 C1714 0.950 . S
H1689 C1716 0.950 . S
H1690 C1719 0.950 . S
H1691 C1720 0.950 . S
H1692 C1722 0.950 . S
H1693 C1723 0.950 . S
C1694 H1676 0.951 . S
C1694 C1695 1.366 . S
C1694 C1696 1.388 . S
C1695 C1694 1.366 . S
C1695 C1699 1.385 . S
C1696 H1677 0.951 . S
C1696 C1694 1.388 . S
C1696 C1697 1.366 . S
C1697 C1696 1.366 . S
C1697 C1698 1.414 . S
C1697 C1700 1.499 . S
C1698 H1678 0.950 . S
C1698 C1697 1.414 . S
C1698 C1699 1.374 . S
C1699 H1679 0.950 . S
C1699 C1695 1.385 . S
C1699 C1698 1.374 . S
C1700 C1697 1.499 . S
C1700 C1701 1.373 . S
C1700 C1702 1.389 . S
C1701 H1680 0.950 . S
C1701 C1700 1.373 . S
C1701 C1717 1.377 . S
C1702 C1700 1.389 . S
C1702 C1703 1.524 . S
C1702 C1716 1.377 . S
C1703 C1702 1.524 . S
C1703 C1704 1.397 . S
C1703 C1708 1.363 . S
C1704 H1681 0.950 . S
C1704 C1703 1.397 . S
C1704 C1705 1.334 . S
C1705 H1682 0.950 . S
C1705 C1704 1.334 . S
C1705 C1706 1.287 . S
C1706 C1705 1.287 . S
C1706 C1707 1.524 . S
C1706 H1725 0.913 . S
C1707 H1683 0.950 . S
C1707 C1706 1.524 . S
C1707 C1708 1.415 . S
C1708 H1684 0.950 . S
C1708 C1703 1.363 . S
C1708 C1707 1.415 . S
C1709 H1685 0.951 . S
C1709 C1710 1.366 . S
C1709 C1711 1.388 . S
C1710 C1709 1.366 . S
C1710 C1714 1.385 . S
C1711 H1686 0.951 . S
C1711 C1709 1.388 . S
C1711 C1712 1.366 . S
C1712 C1711 1.366 . S
C1712 C1713 1.414 . S
C1712 C1715 1.499 . S
C1713 H1687 0.950 . S
C1713 C1712 1.414 . S
C1713 C1714 1.374 . S
C1714 H1688 0.950 . S
C1714 C1710 1.385 . S
C1714 C1713 1.374 . S
C1715 C1712 1.499 . S
C1715 C1716 1.373 . S
C1715 C1717 1.389 . S
C1716 H1689 0.950 . S
C1716 C1702 1.377 . S
C1716 C1715 1.373 . S
C1717 C1701 1.377 . S
C1717 C1715 1.389 . S
C1717 C1718 1.524 . S
C1718 C1717 1.524 . S
C1718 C1719 1.397 . S
C1718 C1723 1.363 . S
C1719 H1690 0.950 . S
C1719 C1718 1.397 . S
C1719 C1720 1.334 . S
C1720 H1691 0.950 . S
C1720 C1719 1.334 . S
C1720 C1721 1.287 . S
C1721 C1720 1.287 . S
C1721 C1722 1.524 . S
C1721 H1724 0.999 . S
C1722 H1692 0.950 . S
C1722 C1721 1.524 . S
C1722 C1723 1.415 . S
C1723 H1693 0.950 . S
C1723 C1718 1.363 . S
C1723 C1722 1.415 . S
H1724 C1721 0.999 . S
H1725 C1706 0.913 . S
H1726 C1744 0.951 . S
H1727 C1746 0.951 . S
H1728 C1748 0.950 . S
H1729 C1749 0.950 . S
H1730 C1751 0.950 . S
H1731 C1754 0.950 . S
H1732 C1755 0.950 . S
H1733 C1757 0.950 . S
H1734 C1758 0.950 1_455 S
H1735 C1759 0.951 . S
H1736 C1761 0.951 . S
H1737 C1763 0.950 . S
H1738 C1764 0.950 . S
H1739 C1766 0.950 . S
H1740 C1769 0.950 . S
H1741 C1770 0.950 . S
H1742 C1772 0.950 . S
H1743 C1773 0.950 1_655 S
C1744 H1726 0.951 . S
C1744 C1745 1.366 . S
C1744 C1746 1.388 . S
C1745 C1744 1.366 . S
C1745 C1749 1.385 . S
C1746 H1727 0.951 . S
C1746 C1744 1.388 . S
C1746 C1747 1.366 . S
C1747 C1746 1.366 . S
C1747 C1748 1.414 . S
C1747 C1750 1.499 . S
C1748 H1728 0.950 . S
C1748 C1747 1.414 . S
C1748 C1749 1.374 . S
C1749 H1729 0.950 . S
C1749 C1745 1.385 . S
C1749 C1748 1.374 . S
C1750 C1747 1.499 . S
C1750 C1751 1.373 . S
C1750 C1752 1.389 1_455 S
C1751 H1730 0.950 . S
C1751 C1750 1.373 . S
C1751 C1767 1.377 . S
C1752 C1750 1.389 1_655 S
C1752 C1753 1.524 . S
C1752 C1766 1.377 . S
C1753 C1752 1.524 . S
C1753 C1754 1.397 . S
C1753 C1758 1.363 . S
C1754 H1731 0.950 . S
C1754 C1753 1.397 . S
C1754 C1755 1.334 . S
C1755 H1732 0.950 . S
C1755 C1754 1.334 . S
C1755 C1756 1.287 . S
C1756 C1755 1.287 . S
C1756 C1757 1.524 . S
C1756 H1775 0.913 . S
C1757 H1733 0.950 . S
C1757 C1756 1.524 . S
C1757 C1758 1.415 . S
C1758 H1734 0.950 1_655 S
C1758 C1753 1.363 . S
C1758 C1757 1.415 . S
C1759 H1735 0.951 . S
C1759 C1760 1.366 . S
C1759 C1761 1.388 . S
C1760 C1759 1.366 . S
C1760 C1764 1.385 . S
C1761 H1736 0.951 . S
C1761 C1759 1.388 . S
C1761 C1762 1.366 . S
C1762 C1761 1.366 . S
C1762 C1763 1.414 . S
C1762 C1765 1.499 . S
C1763 H1737 0.950 . S
C1763 C1762 1.414 . S
C1763 C1764 1.374 . S
C1764 H1738 0.950 . S
C1764 C1760 1.385 . S
C1764 C1763 1.374 . S
C1765 C1762 1.499 . S
C1765 C1766 1.373 . S
C1765 C1767 1.389 1_655 S
C1766 H1739 0.950 . S
C1766 C1752 1.377 . S
C1766 C1765 1.373 . S
C1767 C1751 1.377 . S
C1767 C1765 1.389 1_455 S
C1767 C1768 1.524 . S
C1768 C1767 1.524 . S
C1768 C1769 1.397 . S
C1768 C1773 1.363 . S
C1769 H1740 0.950 . S
C1769 C1768 1.397 . S
C1769 C1770 1.334 . S
C1770 H1741 0.950 . S
C1770 C1769 1.334 . S
C1770 C1771 1.287 . S
C1771 C1770 1.287 . S
C1771 C1772 1.524 . S
C1771 H1774 0.999 . S
C1772 H1742 0.950 . S
C1772 C1771 1.524 . S
C1772 C1773 1.415 . S
C1773 H1743 0.950 1_455 S
C1773 C1768 1.363 . S
C1773 C1772 1.415 . S
H1774 C1771 0.999 . S
H1775 C1756 0.913 . S
H1776 C1794 0.951 . S
H1777 C1796 0.951 1_545 S
H1778 C1798 0.931 1_455 S
H1779 C1799 0.950 1_455 S
H1780 C1801 0.950 . S
H1781 C1804 0.950 . S
H1782 C1805 0.950 . S
H1783 C1807 0.950 . S
H1784 C1808 0.950 . S
H1785 C1809 0.951 . S
H1786 C1811 0.951 1_565 S
H1787 C1813 0.931 1_655 S
H1788 C1814 0.950 1_655 S
H1789 C1816 0.950 . S
H1790 C1819 0.950 . S
H1791 C1820 0.950 . S
H1792 C1822 0.950 . S
H1793 C1823 0.950 . S
C1794 H1776 0.951 . S
C1794 C1795 1.366 . S
C1794 C1796 1.388 . S
C1795 C1794 1.366 . S
C1795 C1799 1.385 . S
C1796 H1777 0.951 1_565 S
C1796 C1794 1.388 . S
C1796 C1797 1.366 . S
C1797 C1796 1.366 . S
C1797 C1798 1.427 . S
C1797 C1800 1.499 . S
C1798 H1778 0.931 1_655 S
C1798 C1797 1.427 . S
C1798 C1799 1.381 . S
C1799 H1779 0.950 1_655 S
C1799 C1795 1.385 . S
C1799 C1798 1.381 . S
C1800 C1797 1.499 . S
C1800 C1801 1.377 . S
C1800 C1802 1.389 1_565 S
C1801 H1780 0.950 . S
C1801 C1800 1.377 . S
C1801 C1817 1.373 1_656 S
C1802 C1800 1.389 1_545 S
C1802 C1803 1.524 . S
C1802 C1816 1.373 1_656 S
C1803 C1802 1.524 . S
C1803 C1804 1.397 1_655 S
C1803 C1808 1.363 . S
C1804 H1781 0.950 . S
C1804 C1803 1.397 1_455 S
C1804 C1805 1.334 . S
C1805 H1782 0.950 . S
C1805 C1804 1.334 . S
C1805 C1806 1.287 1_455 S
C1806 C1805 1.287 1_655 S
C1806 C1807 1.524 . S
C1806 H1825 0.913 . S
C1807 H1783 0.950 . S
C1807 C1806 1.524 . S
C1807 C1808 1.415 . S
C1808 H1784 0.950 . S
C1808 C1803 1.363 . S
C1808 C1807 1.415 . S
C1809 H1785 0.951 . S
C1809 C1810 1.366 . S
C1809 C1811 1.388 . S
C1810 C1809 1.366 . S
C1810 C1814 1.385 . S
C1811 H1786 0.951 1_545 S
C1811 C1809 1.388 . S
C1811 C1812 1.366 . S
C1812 C1811 1.366 . S
C1812 C1813 1.427 . S
C1812 C1815 1.499 . S
C1813 H1787 0.931 1_455 S
C1813 C1812 1.427 . S
C1813 C1814 1.381 . S
C1814 H1788 0.950 1_455 S
C1814 C1810 1.385 . S
C1814 C1813 1.381 . S
C1815 C1812 1.499 . S
C1815 C1816 1.377 . S
C1815 C1817 1.389 1_545 S
C1816 H1789 0.950 . S
C1816 C1802 1.373 1_454 S
C1816 C1815 1.377 . S
C1817 C1801 1.373 1_454 S
C1817 C1815 1.389 1_565 S
C1817 C1818 1.524 . S
C1818 C1817 1.524 . S
C1818 C1819 1.397 1_455 S
C1818 C1823 1.363 . S
C1819 H1790 0.950 . S
C1819 C1818 1.397 1_655 S
C1819 C1820 1.334 . S
C1820 H1791 0.950 . S
C1820 C1819 1.334 . S
C1820 C1821 1.287 1_655 S
C1821 C1820 1.287 1_455 S
C1821 C1822 1.524 . S
C1821 H1824 0.999 . S
C1822 H1792 0.950 . S
C1822 C1821 1.524 . S
C1822 C1823 1.415 . S
C1823 H1793 0.950 . S
C1823 C1818 1.363 . S
C1823 C1822 1.415 . S
H1824 C1821 0.999 . S
H1825 C1806 0.913 . S
H1826 C1844 0.951 . S
H1827 C1846 0.951 . S
H1828 C1848 0.950 1_565 S
H1829 C1849 0.950 . S
H1830 C1851 0.950 . S
H1831 C1854 0.950 . S
H1832 C1855 0.950 . S
H1833 C1857 0.950 . S
H1834 C1858 0.950 . S
H1835 C1859 0.951 . S
H1836 C1861 0.951 . S
H1837 C1863 0.950 1_545 S
H1838 C1864 0.950 . S
H1839 C1866 0.950 . S
H1840 C1869 0.950 . S
H1841 C1870 0.950 . S
H1842 C1872 0.950 . S
H1843 C1873 0.950 . S
C1844 H1826 0.951 . S
C1844 C1845 1.366 . S
C1844 C1846 1.388 . S
C1845 C1844 1.366 . S
C1845 C1849 1.385 . S
C1846 H1827 0.951 . S
C1846 C1844 1.388 . S
C1846 C1847 1.366 . S
C1847 C1846 1.366 . S
C1847 C1848 1.414 . S
C1847 C1850 1.499 . S
C1848 H1828 0.950 1_545 S
C1848 C1847 1.414 . S
C1848 C1849 1.374 . S
C1849 H1829 0.950 . S
C1849 C1845 1.385 . S
C1849 C1848 1.374 . S
C1850 C1847 1.499 . S
C1850 C1851 1.373 . S
C1850 C1852 1.399 . S
C1851 H1830 0.950 . S
C1851 C1850 1.373 . S
C1851 C1867 1.367 1_546 S
C1852 C1850 1.399 . S
C1852 C1853 1.522 1_545 S
C1852 C1866 1.367 1_546 S
C1853 C1852 1.522 1_565 S
C1853 C1854 1.422 . S
C1853 C1858 1.345 1_566 S
C1854 H1831 0.950 . S
C1854 C1853 1.422 . S
C1854 C1855 1.334 . S
C1855 H1832 0.950 . S
C1855 C1854 1.334 . S
C1855 C1856 1.287 . S
C1856 C1855 1.287 . S
C1856 C1857 1.524 1_566 S
C1856 H1875 0.913 . S
C1857 H1833 0.950 . S
C1857 C1856 1.524 1_544 S
C1857 C1858 1.415 . S
C1858 H1834 0.950 . S
C1858 C1853 1.345 1_544 S
C1858 C1857 1.415 . S
C1859 H1835 0.951 . S
C1859 C1860 1.366 . S
C1859 C1861 1.388 . S
C1860 C1859 1.366 . S
C1860 C1864 1.385 . S
C1861 H1836 0.951 . S
C1861 C1859 1.388 . S
C1861 C1862 1.366 . S
C1862 C1861 1.366 . S
C1862 C1863 1.414 . S
C1862 C1865 1.499 . S
C1863 H1837 0.950 1_565 S
C1863 C1862 1.414 . S
C1863 C1864 1.374 . S
C1864 H1838 0.950 . S
C1864 C1860 1.385 . S
C1864 C1863 1.374 . S
C1865 C1862 1.499 . S
C1865 C1866 1.373 . S
C1865 C1867 1.399 . S
C1866 H1839 0.950 . S
C1866 C1852 1.367 1_564 S
C1866 C1865 1.373 . S
C1867 C1851 1.367 1_564 S
C1867 C1865 1.399 . S
C1867 C1868 1.522 1_565 S
C1868 C1867 1.522 1_545 S
C1868 C1869 1.422 . S
C1868 C1873 1.345 1_544 S
C1869 H1840 0.950 . S
C1869 C1868 1.422 . S
C1869 C1870 1.334 . S
C1870 H1841 0.950 . S
C1870 C1869 1.334 . S
C1870 C1871 1.287 . S
C1871 C1870 1.287 . S
C1871 C1872 1.524 1_544 S
C1871 H1874 0.999 . S
C1872 H1842 0.950 . S
C1872 C1871 1.524 1_566 S
C1872 C1873 1.415 . S
C1873 H1843 0.950 . S
C1873 C1868 1.345 1_566 S
C1873 C1872 1.415 . S
H1874 C1871 0.999 . S
H1875 C1856 0.913 . S
H1876 C1894 0.951 . S
H1877 C1896 0.951 1_565 S
H1878 C1898 0.950 . S
H1879 C1899 0.950 . S
H1880 C1901 0.950 . S
H1881 C1904 0.950 . S
H1882 C1905 0.950 1_545 S
H1883 C1907 0.950 . S
H1884 C1908 0.950 . S
H1885 C1909 0.951 . S
H1886 C1911 0.951 1_545 S
H1887 C1913 0.950 . S
H1888 C1914 0.950 . S
H1889 C1916 0.950 . S
H1890 C1919 0.950 . S
H1891 C1920 0.950 1_565 S
H1892 C1922 0.950 . S
H1893 C1923 0.950 . S
C1894 H1876 0.951 . S
C1894 C1895 1.366 . S
C1894 C1896 1.388 . S
C1895 C1894 1.366 . S
C1895 C1899 1.385 . S
C1896 H1877 0.951 1_545 S
C1896 C1894 1.388 . S
C1896 C1897 1.366 . S
C1897 C1896 1.366 . S
C1897 C1898 1.414 . S
C1897 C1900 1.499 . S
C1898 H1878 0.950 . S
C1898 C1897 1.414 . S
C1898 C1899 1.374 . S
C1899 H1879 0.950 . S
C1899 C1895 1.385 . S
C1899 C1898 1.374 . S
C1900 C1897 1.499 . S
C1900 C1901 1.373 . S
C1900 C1902 1.389 1_545 S
C1901 H1880 0.950 . S
C1901 C1900 1.373 . S
C1901 C1917 1.377 . S
C1902 C1900 1.389 1_565 S
C1902 C1903 1.524 . S
C1902 C1916 1.377 . S
C1903 C1902 1.524 . S
C1903 C1904 1.397 1_565 S
C1903 C1908 1.363 . S
C1904 H1881 0.950 . S
C1904 C1903 1.397 1_545 S
C1904 C1905 1.334 1_545 S
C1905 H1882 0.950 1_565 S
C1905 C1904 1.334 1_565 S
C1905 C1906 1.287 . S
C1906 C1905 1.287 . S
C1906 C1907 1.524 . S
C1906 H1925 0.913 . S
C1907 H1883 0.950 . S
C1907 C1906 1.524 . S
C1907 C1908 1.415 . S
C1908 H1884 0.950 . S
C1908 C1903 1.363 . S
C1908 C1907 1.415 . S
C1909 H1885 0.951 . S
C1909 C1910 1.366 . S
C1909 C1911 1.388 . S
C1910 C1909 1.366 . S
C1910 C1914 1.385 . S
C1911 H1886 0.951 1_565 S
C1911 C1909 1.388 . S
C1911 C1912 1.366 . S
C1912 C1911 1.366 . S
C1912 C1913 1.414 . S
C1912 C1915 1.499 . S
C1913 H1887 0.950 . S
C1913 C1912 1.414 . S
C1913 C1914 1.374 . S
C1914 H1888 0.950 . S
C1914 C1910 1.385 . S
C1914 C1913 1.374 . S
C1915 C1912 1.499 . S
C1915 C1916 1.373 . S
C1915 C1917 1.389 1_565 S
C1916 H1889 0.950 . S
C1916 C1902 1.377 . S
C1916 C1915 1.373 . S
C1917 C1901 1.377 . S
C1917 C1915 1.389 1_545 S
C1917 C1918 1.524 . S
C1918 C1917 1.524 . S
C1918 C1919 1.397 1_545 S
C1918 C1923 1.363 . S
C1919 H1890 0.950 . S
C1919 C1918 1.397 1_565 S
C1919 C1920 1.334 1_565 S
C1920 H1891 0.950 1_545 S
C1920 C1919 1.334 1_545 S
C1920 C1921 1.287 . S
C1921 C1920 1.287 . S
C1921 C1922 1.524 . S
C1921 H1924 0.999 . S
C1922 H1892 0.950 . S
C1922 C1921 1.524 . S
C1922 C1923 1.415 . S
C1923 H1893 0.950 . S
C1923 C1918 1.363 . S
C1923 C1922 1.415 . S
H1924 C1921 0.999 . S
H1925 C1906 0.913 . S
H1926 C1944 0.951 . S
H1927 C1946 0.951 1_545 S
H1928 C1948 0.950 1_655 S
H1929 C1949 0.950 . S
H1930 C1951 0.950 . S
H1931 C1954 0.950 . S
H1932 C1955 0.950 . S
H1933 C1957 0.950 . S
H1934 C1958 0.950 1_455 S
H1935 C1959 0.951 . S
H1936 C1961 0.951 1_565 S
H1937 C1963 0.950 1_455 S
H1938 C1964 0.950 . S
H1939 C1966 0.950 . S
H1940 C1969 0.950 . S
H1941 C1970 0.950 . S
H1942 C1972 0.950 . S
H1943 C1973 0.950 1_655 S
C1944 H1926 0.951 . S
C1944 C1945 1.366 . S
C1944 C1946 1.388 . S
C1945 C1944 1.366 . S
C1945 C1949 1.385 . S
C1946 H1927 0.951 1_565 S
C1946 C1944 1.388 . S
C1946 C1947 1.366 . S
C1947 C1946 1.366 . S
C1947 C1948 1.414 . S
C1947 C1950 1.499 . S
C1948 H1928 0.950 1_455 S
C1948 C1947 1.414 . S
C1948 C1949 1.374 . S
C1949 H1929 0.950 . S
C1949 C1945 1.385 . S
C1949 C1948 1.374 . S
C1950 C1947 1.499 . S
C1950 C1951 1.373 . S
C1950 C1952 1.389 1_465 S
C1951 H1930 0.950 . S
C1951 C1950 1.373 . S
C1951 C1967 1.377 . S
C1952 C1950 1.389 1_645 S
C1952 C1953 1.524 . S
C1952 C1966 1.377 . S
C1953 C1952 1.524 . S
C1953 C1954 1.397 . S
C1953 C1958 1.363 . S
C1954 H1931 0.950 . S
C1954 C1953 1.397 . S
C1954 C1955 1.334 . S
C1955 H1932 0.950 . S
C1955 C1954 1.334 . S
C1955 C1956 1.287 . S
C1956 C1955 1.287 . S
C1956 C1957 1.524 . S
C1956 H1975 0.913 . S
C1957 H1933 0.950 . S
C1957 C1956 1.524 . S
C1957 C1958 1.415 . S
C1958 H1934 0.950 1_655 S
C1958 C1953 1.363 . S
C1958 C1957 1.415 . S
C1959 H1935 0.951 . S
C1959 C1960 1.366 . S
C1959 C1961 1.388 . S
C1960 C1959 1.366 . S
C1960 C1964 1.385 . S
C1961 H1936 0.951 1_545 S
C1961 C1959 1.388 . S
C1961 C1962 1.366 . S
C1962 C1961 1.366 . S
C1962 C1963 1.414 . S
C1962 C1965 1.499 . S
C1963 H1937 0.950 1_655 S
C1963 C1962 1.414 . S
C1963 C1964 1.374 . S
C1964 H1938 0.950 . S
C1964 C1960 1.385 . S
C1964 C1963 1.374 . S
C1965 C1962 1.499 . S
C1965 C1966 1.373 . S
C1965 C1967 1.389 1_645 S
C1966 H1939 0.950 . S
C1966 C1952 1.377 . S
C1966 C1965 1.373 . S
C1967 C1951 1.377 . S
C1967 C1965 1.389 1_465 S
C1967 C1968 1.524 . S
C1968 C1967 1.524 . S
C1968 C1969 1.397 . S
C1968 C1973 1.363 . S
C1969 H1940 0.950 . S
C1969 C1968 1.397 . S
C1969 C1970 1.334 . S
C1970 H1941 0.950 . S
C1970 C1969 1.334 . S
C1970 C1971 1.287 . S
C1971 C1970 1.287 . S
C1971 C1972 1.524 . S
C1971 H1974 0.999 . S
C1972 H1942 0.950 . S
C1972 C1971 1.524 . S
C1972 C1973 1.415 . S
C1973 H1943 0.950 1_455 S
C1973 C1968 1.363 . S
C1973 C1972 1.415 . S
H1974 C1971 0.999 . S
H1975 C1956 0.913 . S
H1976 C1994 0.951 . S
H1977 C1996 0.951 . S
H1978 C1998 0.950 . S
H1979 C1999 0.950 . S
H1980 C2001 0.950 . S
H1981 C2004 0.950 . S
H1982 C2005 0.950 . S
H1983 C2007 0.950 . S
H1984 C2008 0.950 . S
H1985 C2009 0.951 . S
H1986 C2011 0.951 . S
H1987 C2013 0.950 . S
H1988 C2014 0.950 . S
H1989 C2016 0.950 . S
H1990 C2019 0.950 . S
H1991 C2020 0.950 . S
H1992 C2022 0.950 . S
H1993 C2023 0.950 . S
C1994 H1976 0.951 . S
C1994 C1995 1.366 . S
C1994 C1996 1.388 . S
C1995 C1994 1.366 . S
C1995 C1999 1.385 . S
C1996 H1977 0.951 . S
C1996 C1994 1.388 . S
C1996 C1997 1.366 . S
C1997 C1996 1.366 . S
C1997 C1998 1.414 . S
C1997 C2000 1.499 . S
C1998 H1978 0.950 . S
C1998 C1997 1.414 . S
C1998 C1999 1.374 . S
C1999 H1979 0.950 . S
C1999 C1995 1.385 . S
C1999 C1998 1.374 . S
C2000 C1997 1.499 . S
C2000 C2001 1.373 . S
C2000 C2002 1.389 . S
C2001 H1980 0.950 . S
C2001 C2000 1.373 . S
C2001 C2017 1.377 1_554 S
C2002 C2000 1.389 . S
C2002 C2003 1.524 . S
C2002 C2016 1.377 1_554 S
C2003 C2002 1.524 . S
C2003 C2004 1.397 . S
C2003 C2008 1.363 . S
C2004 H1981 0.950 . S
C2004 C2003 1.397 . S
C2004 C2005 1.334 . S
C2005 H1982 0.950 . S
C2005 C2004 1.334 . S
C2005 C2006 1.287 . S
C2006 C2005 1.287 . S
C2006 C2007 1.524 . S
C2006 H2025 0.913 . S
C2007 H1983 0.950 . S
C2007 C2006 1.524 . S
C2007 C2008 1.415 . S
C2008 H1984 0.950 . S
C2008 C2003 1.363 . S
C2008 C2007 1.415 . S
C2009 H1985 0.951 . S
C2009 C2010 1.366 . S
C2009 C2011 1.388 . S
C2010 C2009 1.366 . S
C2010 C2014 1.385 . S
C2011 H1986 0.951 . S
C2011 C2009 1.388 . S
C2011 C2012 1.366 . S
C2012 C2011 1.366 . S
C2012 C2013 1.414 . S
C2012 C2015 1.499 . S
C2013 H1987 0.950 . S
C2013 C2012 1.414 . S
C2013 C2014 1.374 . S
C2014 H1988 0.950 . S
C2014 C2010 1.385 . S
C2014 C2013 1.374 . S
C2015 C2012 1.499 . S
C2015 C2016 1.373 . S
C2015 C2017 1.389 . S
C2016 H1989 0.950 . S
C2016 C2002 1.377 1_556 S
C2016 C2015 1.373 . S
C2017 C2001 1.377 1_556 S
C2017 C2015 1.389 . S
C2017 C2018 1.524 . S
C2018 C2017 1.524 . S
C2018 C2019 1.397 . S
C2018 C2023 1.363 . S
C2019 H1990 0.950 . S
C2019 C2018 1.397 . S
C2019 C2020 1.334 . S
C2020 H1991 0.950 . S
C2020 C2019 1.334 . S
C2020 C2021 1.287 . S
C2021 C2020 1.287 . S
C2021 C2022 1.524 . S
C2021 H2024 0.999 . S
C2022 H1992 0.950 . S
C2022 C2021 1.524 . S
C2022 C2023 1.415 . S
C2023 H1993 0.950 . S
C2023 C2018 1.363 . S
C2023 C2022 1.415 . S
H2024 C2021 0.999 . S
H2025 C2006 0.913 . S
H2026 C2044 0.951 . S
H2027 C2046 0.951 . S
H2028 C2048 0.950 . S
H2029 C2049 0.950 . S
H2030 C2051 0.950 . S
H2031 C2054 0.950 . S
H2032 C2055 0.950 . S
H2033 C2057 0.950 . S
H2034 C2058 0.957 1_556 S
H2035 C2059 0.951 . S
H2036 C2061 0.951 . S
H2037 C2063 0.950 . S
H2038 C2064 0.950 . S
H2039 C2066 0.950 . S
H2040 C2069 0.950 . S
H2041 C2070 0.950 . S
H2042 C2072 0.950 . S
H2043 C2073 0.957 1_554 S
C2044 H2026 0.951 . S
C2044 C2045 1.366 . S
C2044 C2046 1.388 . S
C2045 C2044 1.366 . S
C2045 C2049 1.385 . S
C2046 H2027 0.951 . S
C2046 C2044 1.388 . S
C2046 C2047 1.366 . S
C2047 C2046 1.366 . S
C2047 C2048 1.414 . S
C2047 C2050 1.499 . S
C2048 H2028 0.950 . S
C2048 C2047 1.414 . S
C2048 C2049 1.374 . S
C2049 H2029 0.950 . S
C2049 C2045 1.385 . S
C2049 C2048 1.374 . S
C2050 C2047 1.499 . S
C2050 C2051 1.373 . S
C2050 C2052 1.389 1_655 S
C2051 H2030 0.950 . S
C2051 C2050 1.373 . S
C2051 C2067 1.377 1_554 S
C2052 C2050 1.389 1_455 S
C2052 C2053 1.524 . S
C2052 C2066 1.377 1_554 S
C2053 C2052 1.524 . S
C2053 C2054 1.397 . S
C2053 C2058 1.363 . S
C2054 H2031 0.950 . S
C2054 C2053 1.397 . S
C2054 C2055 1.334 . S
C2055 H2032 0.950 . S
C2055 C2054 1.334 . S
C2055 C2056 1.287 . S
C2056 C2055 1.287 . S
C2056 C2057 1.524 . S
C2056 H2075 0.913 . S
C2057 H2033 0.950 . S
C2057 C2056 1.524 . S
C2057 C2058 1.415 . S
C2058 H2034 0.957 1_554 S
C2058 C2053 1.363 . S
C2058 C2057 1.415 . S
C2059 H2035 0.951 . S
C2059 C2060 1.366 . S
C2059 C2061 1.388 . S
C2060 C2059 1.366 . S
C2060 C2064 1.385 . S
C2061 H2036 0.951 . S
C2061 C2059 1.388 . S
C2061 C2062 1.366 . S
C2062 C2061 1.366 . S
C2062 C2063 1.414 . S
C2062 C2065 1.499 . S
C2063 H2037 0.950 . S
C2063 C2062 1.414 . S
C2063 C2064 1.374 . S
C2064 H2038 0.950 . S
C2064 C2060 1.385 . S
C2064 C2063 1.374 . S
C2065 C2062 1.499 . S
C2065 C2066 1.373 . S
C2065 C2067 1.389 1_455 S
C2066 H2039 0.950 . S
C2066 C2052 1.377 1_556 S
C2066 C2065 1.373 . S
C2067 C2051 1.377 1_556 S
C2067 C2065 1.389 1_655 S
C2067 C2068 1.524 . S
C2068 C2067 1.524 . S
C2068 C2069 1.397 . S
C2068 C2073 1.363 . S
C2069 H2040 0.950 . S
C2069 C2068 1.397 . S
C2069 C2070 1.334 . S
C2070 H2041 0.950 . S
C2070 C2069 1.334 . S
C2070 C2071 1.287 . S
C2071 C2070 1.287 . S
C2071 C2072 1.524 . S
C2071 H2074 0.999 . S
C2072 H2042 0.950 . S
C2072 C2071 1.524 . S
C2072 C2073 1.415 . S
C2073 H2043 0.957 1_556 S
C2073 C2068 1.363 . S
C2073 C2072 1.415 . S
H2074 C2071 0.999 . S
H2075 C2056 0.913 . S
H2076 C2094 0.951 . S
H2077 C2096 0.951 . S
H2078 C2098 0.950 . S
H2079 C2099 0.950 1_455 S
H2080 C2101 0.950 . S
H2081 C2104 0.950 1_455 S
H2082 C2105 0.950 . S
H2083 C2107 0.950 . S
H2084 C2108 0.950 . S
H2085 C2109 0.951 . S
H2086 C2111 0.951 . S
H2087 C2113 0.950 . S
H2088 C2114 0.950 1_655 S
H2089 C2116 0.950 . S
H2090 C2119 0.950 1_655 S
H2091 C2120 0.950 . S
H2092 C2122 0.950 . S
H2093 C2123 0.950 . S
C2094 H2076 0.951 . S
C2094 C2095 1.366 . S
C2094 C2096 1.388 . S
C2095 C2094 1.366 . S
C2095 C2099 1.385 . S
C2096 H2077 0.951 . S
C2096 C2094 1.388 . S
C2096 C2097 1.366 . S
C2097 C2096 1.366 . S
C2097 C2098 1.414 1_655 S
C2097 C2100 1.499 . S
C2098 H2078 0.950 . S
C2098 C2097 1.414 1_455 S
C2098 C2099 1.374 1_455 S
C2099 H2079 0.950 1_655 S
C2099 C2095 1.385 . S
C2099 C2098 1.374 1_655 S
C2100 C2097 1.499 . S
C2100 C2101 1.373 1_655 S
C2100 C2102 1.389 . S
C2101 H2080 0.950 . S
C2101 C2100 1.373 1_455 S
C2101 C2117 1.377 . S
C2102 C2100 1.389 . S
C2102 C2103 1.524 . S
C2102 C2116 1.377 . S
C2103 C2102 1.524 . S
C2103 C2104 1.397 . S
C2103 C2108 1.363 . S
C2104 H2081 0.950 1_655 S
C2104 C2103 1.397 . S
C2104 C2105 1.334 . S
C2105 H2082 0.950 . S
C2105 C2104 1.334 . S
C2105 C2106 1.287 . S
C2106 C2105 1.287 . S
C2106 C2107 1.524 . S
C2106 H2125 0.913 . S
C2107 H2083 0.950 . S
C2107 C2106 1.524 . S
C2107 C2108 1.415 . S
C2108 H2084 0.950 . S
C2108 C2103 1.363 . S
C2108 C2107 1.415 . S
C2109 H2085 0.951 . S
C2109 C2110 1.366 . S
C2109 C2111 1.388 . S
C2110 C2109 1.366 . S
C2110 C2114 1.385 . S
C2111 H2086 0.951 . S
C2111 C2109 1.388 . S
C2111 C2112 1.366 . S
C2112 C2111 1.366 . S
C2112 C2113 1.414 1_455 S
C2112 C2115 1.499 . S
C2113 H2087 0.950 . S
C2113 C2112 1.414 1_655 S
C2113 C2114 1.374 1_655 S
C2114 H2088 0.950 1_455 S
C2114 C2110 1.385 . S
C2114 C2113 1.374 1_455 S
C2115 C2112 1.499 . S
C2115 C2116 1.373 1_455 S
C2115 C2117 1.389 . S
C2116 H2089 0.950 . S
C2116 C2102 1.377 . S
C2116 C2115 1.373 1_655 S
C2117 C2101 1.377 . S
C2117 C2115 1.389 . S
C2117 C2118 1.524 . S
C2118 C2117 1.524 . S
C2118 C2119 1.397 . S
C2118 C2123 1.363 . S
C2119 H2090 0.950 1_455 S
C2119 C2118 1.397 . S
C2119 C2120 1.334 . S
C2120 H2091 0.950 . S
C2120 C2119 1.334 . S
C2120 C2121 1.287 . S
C2121 C2120 1.287 . S
C2121 C2122 1.524 . S
C2121 H2124 0.999 . S
C2122 H2092 0.950 . S
C2122 C2121 1.524 . S
C2122 C2123 1.415 . S
C2123 H2093 0.950 . S
C2123 C2118 1.363 . S
C2123 C2122 1.415 . S
H2124 C2121 0.999 . S
H2125 C2106 0.913 . S
H2126 C2144 0.951 . S
H2127 C2146 0.951 . S
H2128 C2148 0.950 . S
H2129 C2149 0.950 . S
H2130 C2151 0.950 . S
H2131 C2154 0.950 . S
H2132 C2155 0.950 . S
H2133 C2157 0.950 . S
H2134 C2158 0.950 . S
H2135 C2159 0.951 . S
H2136 C2161 0.951 . S
H2137 C2163 0.950 . S
H2138 C2164 0.950 . S
H2139 C2166 0.950 . S
H2140 C2169 0.950 . S
H2141 C2170 0.950 . S
H2142 C2172 0.950 . S
H2143 C2173 0.950 . S
C2144 H2126 0.951 . S
C2144 C2145 1.366 . S
C2144 C2146 1.388 . S
C2145 C2144 1.366 . S
C2145 C2149 1.385 . S
C2146 H2127 0.951 . S
C2146 C2144 1.388 . S
C2146 C2147 1.366 . S
C2147 C2146 1.366 . S
C2147 C2148 1.414 . S
C2147 C2150 1.499 . S
C2148 H2128 0.950 . S
C2148 C2147 1.414 . S
C2148 C2149 1.374 . S
C2149 H2129 0.950 . S
C2149 C2145 1.385 . S
C2149 C2148 1.374 . S
C2150 C2147 1.499 . S
C2150 C2151 1.373 . S
C2150 C2152 1.389 . S
C2151 H2130 0.950 . S
C2151 C2150 1.373 . S
C2151 C2167 1.377 . S
C2152 C2150 1.389 . S
C2152 C2153 1.524 . S
C2152 C2166 1.377 . S
C2153 C2152 1.524 . S
C2153 C2154 1.397 . S
C2153 C2158 1.363 . S
C2154 H2131 0.950 . S
C2154 C2153 1.397 . S
C2154 C2155 1.334 . S
C2155 H2132 0.950 . S
C2155 C2154 1.334 . S
C2155 C2156 1.287 . S
C2156 C2155 1.287 . S
C2156 C2157 1.524 . S
C2156 H2175 0.913 . S
C2157 H2133 0.950 . S
C2157 C2156 1.524 . S
C2157 C2158 1.415 . S
C2158 H2134 0.950 . S
C2158 C2153 1.363 . S
C2158 C2157 1.415 . S
C2159 H2135 0.951 . S
C2159 C2160 1.366 . S
C2159 C2161 1.388 . S
C2160 C2159 1.366 . S
C2160 C2164 1.385 . S
C2161 H2136 0.951 . S
C2161 C2159 1.388 . S
C2161 C2162 1.366 . S
C2162 C2161 1.366 . S
C2162 C2163 1.414 . S
C2162 C2165 1.499 . S
C2163 H2137 0.950 . S
C2163 C2162 1.414 . S
C2163 C2164 1.374 . S
C2164 H2138 0.950 . S
C2164 C2160 1.385 . S
C2164 C2163 1.374 . S
C2165 C2162 1.499 . S
C2165 C2166 1.373 . S
C2165 C2167 1.389 . S
C2166 H2139 0.950 . S
C2166 C2152 1.377 . S
C2166 C2165 1.373 . S
C2167 C2151 1.377 . S
C2167 C2165 1.389 . S
C2167 C2168 1.524 . S
C2168 C2167 1.524 . S
C2168 C2169 1.397 . S
C2168 C2173 1.363 . S
C2169 H2140 0.950 . S
C2169 C2168 1.397 . S
C2169 C2170 1.334 . S
C2170 H2141 0.950 . S
C2170 C2169 1.334 . S
C2170 C2171 1.287 . S
C2171 C2170 1.287 . S
C2171 C2172 1.524 . S
C2171 H2174 0.999 . S
C2172 H2142 0.950 . S
C2172 C2171 1.524 . S
C2172 C2173 1.415 . S
C2173 H2143 0.950 . S
C2173 C2168 1.363 . S
C2173 C2172 1.415 . S
H2174 C2171 0.999 . S
H2175 C2156 0.913 . S
C595 C40 1.490 . S
C610 C4 1.490 . S
C645 C76 1.490 . S
C660 C112 1.490 . S
C695 C148 1.490 . S
C710 C184 1.490 . S
C745 C256 1.490 . S
C760 C220 1.490 . S
C795 C328 1.490 . S
C810 C292 1.490 . S
C845 C400 1.490 . S
C860 C364 1.490 . S
C895 C472 1.490 . S
C910 C436 1.490 . S
C945 C544 1.490 . S
C960 C508 1.490 . S
C995 C110 1.245 . S
C1010 C2 1.246 . S
C1045 C38 1.245 . S
C1060 C74 1.245 . S
C1095 C254 1.245 . S
C1110 C146 1.246 . S
C1145 C218 1.246 . S
C1160 C182 1.245 . S
C1195 C290 1.245 . S
C1210 C398 1.245 . S
C1245 C362 1.246 . S
C1260 C326 1.245 . S
C1295 C542 1.245 . S
C1310 C434 1.245 . S
C1345 C470 1.245 . S
C1360 C506 1.245 . S
C1395 C3 1.503 . S
C1410 C327 1.503 . S
C1445 C39 1.503 . S
C1460 C291 1.503 . S
C1495 C399 1.503 . S
C1510 C75 1.503 . S
C1545 C363 1.503 . S
C1560 C111 1.503 . S
C1595 C471 1.503 . S
C1610 C147 1.503 . S
C1645 C435 1.503 . S
C1660 C183 1.503 . S
C1695 C219 1.503 . S
C1710 C543 1.503 . S
C1745 C255 1.503 . S
C1760 C507 1.503 . S
C1795 C158 1.164 . S
C1810 C14 1.164 . S
C1845 C194 1.164 . S
C1860 C50 1.164 . S
C1895 C230 1.164 . S
C1910 C86 1.164 . S
C1945 C266 1.164 . S
C1960 C122 1.164 . S
C1995 C302 1.164 . S
C2010 C446 1.164 . S
C2045 C338 1.163 . S
C2060 C482 1.163 . S
C2095 C518 1.164 . S
C2110 C374 1.164 . S
C2145 C554 1.163 . S
C2160 C410 1.163 . S
