# Generated by pormake.
# Topology whz, (6)-cn, num edge types: 1
# Building blocks:
#     Node 0, Type 0, BuildingBlock: OJICUG_clean_sbu_0, # of connection points: 6
#     Node 1, Type 0, BuildingBlock: OJICUG_clean_sbu_0, # of connection points: 6
#     Node 2, Type 0, BuildingBlock: OJICUG_clean_sbu_0, # of connection points: 6
#     Node 3, Type 0, BuildingBlock: OJICUG_clean_sbu_0, # of connection points: 6
#     Node 4, Type 0, BuildingBlock: OJICUG_clean_sbu_0, # of connection points: 6
#     Node 5, Type 0, BuildingBlock: OJICUG_clean_sbu_0, # of connection points: 6
#     Node 6, Type 0, BuildingBlock: OJICUG_clean_sbu_0, # of connection points: 6
#     Node 7, Type 0, BuildingBlock: OJICUG_clean_sbu_0, # of connection points: 6
#     Node 8, Type 0, BuildingBlock: OJICUG_clean_sbu_0, # of connection points: 6
#     Node 9, Type 0, BuildingBlock: OJICUG_clean_sbu_0, # of connection points: 6
#     Node 10, Type 0, BuildingBlock: OJICUG_clean_sbu_0, # of connection points: 6
#     Node 11, Type 0, BuildingBlock: OJICUG_clean_sbu_0, # of connection points: 6
#     Node 12, Type 0, BuildingBlock: OJICUG_clean_sbu_0, # of connection points: 6
#     Node 13, Type 0, BuildingBlock: OJICUG_clean_sbu_0, # of connection points: 6
#     Node 14, Type 0, BuildingBlock: OJICUG_clean_sbu_0, # of connection points: 6
#     Node 15, Type 0, BuildingBlock: OJICUG_clean_sbu_0, # of connection points: 6
#     Edge 16, Type (0, 0), BuildingBlock: XUDNAN_clean_linker_2, # of connection points: 2
#     Edge 17, Type (0, 0), BuildingBlock: XUDNAN_clean_linker_2, # of connection points: 2
#     Edge 18, Type (0, 0), BuildingBlock: XUDNAN_clean_linker_2, # of connection points: 2
#     Edge 19, Type (0, 0), BuildingBlock: XUDNAN_clean_linker_2, # of connection points: 2
#     Edge 20, Type (0, 0), BuildingBlock: XUDNAN_clean_linker_2, # of connection points: 2
#     Edge 21, Type (0, 0), BuildingBlock: XUDNAN_clean_linker_2, # of connection points: 2
#     Edge 22, Type (0, 0), BuildingBlock: XUDNAN_clean_linker_2, # of connection points: 2
#     Edge 23, Type (0, 0), BuildingBlock: XUDNAN_clean_linker_2, # of connection points: 2
#     Edge 24, Type (0, 0), BuildingBlock: XUDNAN_clean_linker_2, # of connection points: 2
#     Edge 25, Type (0, 0), BuildingBlock: XUDNAN_clean_linker_2, # of connection points: 2
#     Edge 26, Type (0, 0), BuildingBlock: XUDNAN_clean_linker_2, # of connection points: 2
#     Edge 27, Type (0, 0), BuildingBlock: XUDNAN_clean_linker_2, # of connection points: 2
#     Edge 28, Type (0, 0), BuildingBlock: XUDNAN_clean_linker_2, # of connection points: 2
#     Edge 29, Type (0, 0), BuildingBlock: XUDNAN_clean_linker_2, # of connection points: 2
#     Edge 30, Type (0, 0), BuildingBlock: XUDNAN_clean_linker_2, # of connection points: 2
#     Edge 31, Type (0, 0), BuildingBlock: XUDNAN_clean_linker_2, # of connection points: 2
#     Edge 32, Type (0, 0), BuildingBlock: XUDNAN_clean_linker_2, # of connection points: 2
#     Edge 33, Type (0, 0), BuildingBlock: XUDNAN_clean_linker_2, # of connection points: 2
#     Edge 34, Type (0, 0), BuildingBlock: XUDNAN_clean_linker_2, # of connection points: 2
#     Edge 35, Type (0, 0), BuildingBlock: XUDNAN_clean_linker_2, # of connection points: 2
#     Edge 36, Type (0, 0), BuildingBlock: XUDNAN_clean_linker_2, # of connection points: 2
#     Edge 37, Type (0, 0), BuildingBlock: XUDNAN_clean_linker_2, # of connection points: 2
#     Edge 38, Type (0, 0), BuildingBlock: XUDNAN_clean_linker_2, # of connection points: 2
#     Edge 39, Type (0, 0), BuildingBlock: XUDNAN_clean_linker_2, # of connection points: 2
#     Edge 40, Type (0, 0), BuildingBlock: XUDNAN_clean_linker_2, # of connection points: 2
#     Edge 41, Type (0, 0), BuildingBlock: XUDNAN_clean_linker_2, # of connection points: 2
#     Edge 42, Type (0, 0), BuildingBlock: XUDNAN_clean_linker_2, # of connection points: 2
#     Edge 43, Type (0, 0), BuildingBlock: XUDNAN_clean_linker_2, # of connection points: 2
#     Edge 44, Type (0, 0), BuildingBlock: XUDNAN_clean_linker_2, # of connection points: 2
#     Edge 45, Type (0, 0), BuildingBlock: XUDNAN_clean_linker_2, # of connection points: 2
#     Edge 46, Type (0, 0), BuildingBlock: XUDNAN_clean_linker_2, # of connection points: 2
#     Edge 47, Type (0, 0), BuildingBlock: XUDNAN_clean_linker_2, # of connection points: 2
#     Edge 48, Type (0, 0), BuildingBlock: XUDNAN_clean_linker_2, # of connection points: 2
#     Edge 49, Type (0, 0), BuildingBlock: XUDNAN_clean_linker_2, # of connection points: 2
#     Edge 50, Type (0, 0), BuildingBlock: XUDNAN_clean_linker_2, # of connection points: 2
#     Edge 51, Type (0, 0), BuildingBlock: XUDNAN_clean_linker_2, # of connection points: 2
#     Edge 52, Type (0, 0), BuildingBlock: XUDNAN_clean_linker_2, # of connection points: 2
#     Edge 53, Type (0, 0), BuildingBlock: XUDNAN_clean_linker_2, # of connection points: 2
#     Edge 54, Type (0, 0), BuildingBlock: XUDNAN_clean_linker_2, # of connection points: 2
#     Edge 55, Type (0, 0), BuildingBlock: XUDNAN_clean_linker_2, # of connection points: 2
#     Edge 56, Type (0, 0), BuildingBlock: XUDNAN_clean_linker_2, # of connection points: 2
#     Edge 57, Type (0, 0), BuildingBlock: XUDNAN_clean_linker_2, # of connection points: 2
#     Edge 58, Type (0, 0), BuildingBlock: XUDNAN_clean_linker_2, # of connection points: 2
#     Edge 59, Type (0, 0), BuildingBlock: XUDNAN_clean_linker_2, # of connection points: 2
#     Edge 60, Type (0, 0), BuildingBlock: XUDNAN_clean_linker_2, # of connection points: 2
#     Edge 61, Type (0, 0), BuildingBlock: XUDNAN_clean_linker_2, # of connection points: 2
#     Edge 62, Type (0, 0), BuildingBlock: XUDNAN_clean_linker_2, # of connection points: 2
#     Edge 63, Type (0, 0), BuildingBlock: XUDNAN_clean_linker_2, # of connection points: 2
# Relax obj value: 0.452
# Max RMSD: 0.271
# Mean RMSD: 0.271
data_MOF--net-whz--node1-OJICUG_clean_sbu_0--edge1-XUDNAN_clean_linker_2
_symmetry_space_group_name_H-M    P1
_symmetry_Int_Tables_number       1
_symmetry_cell_setting            triclinic
loop_
_symmetry_equiv_pos_as_xyz
'x, y, z'
_cell_length_a     33.715017
_cell_length_b     33.820654
_cell_length_c     54.769223
_cell_angle_alpha  89.94752
_cell_angle_beta   90.014894
_cell_angle_gamma 90.113008
loop_
_atom_site_label
_atom_site_type_symbol
_atom_site_fract_x
_atom_site_fract_y
_atom_site_fract_z
_atom_type_partial_charge
Sc0 Sc 0.34234 0.18749 0.1362 0.0
Sc1 Sc 0.24936 0.17337 0.10941 0.0
Sc2 Sc 0.32666 0.10544 0.09764 0.0
O3 O 0.30604 0.15528 0.11441 0.0
C4 C 0.39537 0.16833 0.08963 0.0
C5 C 0.29546 0.25466 0.10694 0.0
C6 C 0.26905 0.13913 0.05627 0.0
C7 C 0.26327 0.19515 0.16601 0.0
C8 C 0.36849 0.10001 0.15009 0.0
C9 C 0.24176 0.08062 0.1184 0.0
O10 O 0.38644 0.18758 0.1087 0.0
O11 O 0.26744 0.23235 0.09957 0.0
O12 O 0.29877 0.11909 0.06328 0.0
O13 O 0.30066 0.19151 0.1655 0.0
O14 O 0.35674 0.08452 0.13019 0.0
O15 O 0.22844 0.11575 0.1195 0.0
O16 O 0.3658 0.13672 0.15427 0.0
O17 O 0.24174 0.19118 0.14708 0.0
O18 O 0.27582 0.07157 0.11002 0.0
O19 O 0.32271 0.24271 0.12115 0.0
O20 O 0.37825 0.13636 0.08331 0.0
O21 O 0.2479 0.15909 0.07093 0.0
Sc22 Sc 0.56778 0.58385 0.39365 0.0
Sc23 Sc 0.59619 0.49411 0.37134 0.0
Sc24 Sc 0.64829 0.58057 0.35575 0.0
O25 O 0.60496 0.55202 0.37416 0.0
C26 C 0.57698 0.64039 0.35282 0.0
C27 C 0.50807 0.52143 0.3708 0.0
C28 C 0.61588 0.52269 0.31626 0.0
C29 C 0.57998 0.51306 0.42818 0.0
C30 C 0.65271 0.61995 0.40632 0.0
C31 C 0.6882 0.50007 0.37236 0.0
O32 O 0.55555 0.61256 0.36028 0.0
O33 O 0.5347 0.49975 0.36143 0.0
O34 O 0.6252 0.5582 0.32183 0.0
O35 O 0.57933 0.55032 0.4254 0.0
O36 O 0.6714 0.60137 0.38976 0.0
O37 O 0.65661 0.48544 0.38114 0.0
O38 O 0.615 0.62365 0.40596 0.0
O39 O 0.58105 0.48859 0.41033 0.0
O40 O 0.68878 0.5304 0.35851 0.0
O41 O 0.51611 0.54928 0.38547 0.0
O42 O 0.6145 0.63643 0.35231 0.0
O43 O 0.61012 0.49563 0.33229 0.0
Sc44 Sc 0.15342 0.88764 0.60489 0.0
Sc45 Sc 0.22815 0.81686 0.61446 0.0
Sc46 Sc 0.13454 0.80141 0.63904 0.0
O47 O 0.17211 0.83576 0.61959 0.0
C48 C 0.10698 0.8876 0.65548 0.0
C49 C 0.23943 0.90738 0.62724 0.0
C50 C 0.2101 0.78826 0.66973 0.0
C51 C 0.21118 0.85812 0.56285 0.0
C52 C 0.08533 0.82533 0.59213 0.0
C53 C 0.18295 0.73736 0.60807 0.0
O54 O 0.12466 0.90605 0.63843 0.0
O55 O 0.25035 0.87142 0.62846 0.0
O56 O 0.1737 0.79765 0.66965 0.0
O57 O 0.18023 0.87598 0.57001 0.0
O58 O 0.09465 0.80219 0.60941 0.0
O59 O 0.20851 0.76159 0.59991 0.0
O60 O 0.10033 0.85975 0.58937 0.0
O61 O 0.23286 0.83809 0.57723 0.0
O62 O 0.15757 0.74689 0.6242 0.0
O63 O 0.20635 0.91822 0.61796 0.0
O64 O 0.10599 0.85019 0.65675 0.0
O65 O 0.23194 0.791 0.65079 0.0
Sc66 Sc 0.85742 0.42309 0.85302 0.0
Sc67 Sc 0.93899 0.48223 0.86797 0.0
Sc68 Sc 0.93664 0.38425 0.8837 0.0
O69 O 0.91061 0.43081 0.86915 0.0
C70 C 0.84553 0.37897 0.9013 0.0
C71 C 0.85215 0.50924 0.87577 0.0
C72 C 0.95954 0.44732 0.92186 0.0
C73 C 0.90301 0.47117 0.81367 0.0
C74 C 0.8998 0.34275 0.84128 0.0
C75 C 0.01142 0.4268 0.8597 0.0
O76 O 0.833 0.40607 0.88719 0.0
O77 O 0.88787 0.50986 0.883 0.0
O78 O 0.94533 0.41325 0.91742 0.0
O79 O 0.88272 0.44045 0.81885 0.0
O80 O 0.9314 0.35869 0.84843 0.0
O81 O 0.99213 0.4572 0.85312 0.0
O82 O 0.86684 0.35988 0.845 0.0
O83 O 0.91951 0.49289 0.83002 0.0
O84 O 0.99614 0.39992 0.8729 0.0
O85 O 0.83907 0.48381 0.86056 0.0
O86 O 0.87976 0.36308 0.89876 0.0
O87 O 0.96171 0.47473 0.90565 0.0
Sc88 Sc 0.65513 0.89703 0.90251 0.0
Sc89 Sc 0.74162 0.84395 0.89026 0.0
Sc90 Sc 0.65279 0.81228 0.86585 0.0
O91 O 0.68316 0.85135 0.88622 0.0
C92 C 0.59946 0.82258 0.91224 0.0
C93 C 0.71594 0.87362 0.94349 0.0
C94 C 0.7152 0.75669 0.8933 0.0
C95 C 0.73478 0.93527 0.8817 0.0
C96 C 0.61224 0.89394 0.85148 0.0
C97 C 0.72765 0.8179 0.8343 0.0
O98 O 0.60524 0.85981 0.91374 0.0
O99 O 0.74197 0.86346 0.92789 0.0
O100 O 0.68866 0.76244 0.87716 0.0
O101 O 0.7025 0.93843 0.89364 0.0
O102 O 0.61302 0.85635 0.85104 0.0
O103 O 0.74901 0.82188 0.85336 0.0
O104 O 0.6287 0.91407 0.86823 0.0
O105 O 0.75143 0.90248 0.87703 0.0
O106 O 0.69015 0.82122 0.83475 0.0
O107 O 0.68094 0.88357 0.93746 0.0
O108 O 0.61595 0.8008 0.8964 0.0
O109 O 0.73393 0.78482 0.90347 0.0
Sc110 Sc 0.34809 0.42203 0.64832 0.0
Sc111 Sc 0.41327 0.49785 0.6341 0.0
Sc112 Sc 0.43684 0.40222 0.62006 0.0
O113 O 0.39911 0.44111 0.6335 0.0
C114 C 0.40671 0.35306 0.66197 0.0
C115 C 0.37876 0.48153 0.68702 0.0
C116 C 0.4954 0.46253 0.64666 0.0
C117 C 0.32386 0.5026 0.6231 0.0
C118 C 0.35176 0.37574 0.59983 0.0
C119 C 0.44946 0.46845 0.58273 0.0
O120 O 0.37125 0.36355 0.65761 0.0
O121 O 0.38616 0.50566 0.66964 0.0
O122 O 0.48924 0.43316 0.63265 0.0
O123 O 0.31725 0.47627 0.63927 0.0
O124 O 0.38808 0.36766 0.60445 0.0
O125 O 0.44388 0.49468 0.59914 0.0
O126 O 0.33151 0.39926 0.61305 0.0
O127 O 0.3587 0.51091 0.61578 0.0
O128 O 0.44084 0.43221 0.58582 0.0
O129 O 0.36662 0.44622 0.68326 0.0
O130 O 0.43538 0.37424 0.65502 0.0
O131 O 0.46828 0.48674 0.65253 0.0
Sc132 Sc 0.85547 0.18245 0.36682 0.0
Sc133 Sc 0.75896 0.17815 0.38907 0.0
Sc134 Sc 0.82976 0.1081 0.40831 0.0
O135 O 0.81454 0.15598 0.38815 0.0
C136 C 0.87747 0.09191 0.35948 0.0
C137 C 0.78301 0.18551 0.33218 0.0
C138 C 0.74395 0.08575 0.38644 0.0
C139 C 0.80777 0.25638 0.38754 0.0
C140 C 0.9003 0.16997 0.41663 0.0
C141 C 0.7719 0.15175 0.44498 0.0
O142 O 0.88347 0.12841 0.35569 0.0
O143 O 0.75867 0.19149 0.34969 0.0
O144 O 0.77588 0.07668 0.39772 0.0
O145 O 0.83352 0.24134 0.37347 0.0
O146 O 0.88415 0.13671 0.42163 0.0
O147 O 0.75145 0.16826 0.42826 0.0
O148 O 0.89253 0.18968 0.39753 0.0
O149 O 0.78041 0.23634 0.39761 0.0
O150 O 0.80241 0.1311 0.4405 0.0
O151 O 0.81906 0.17664 0.33563 0.0
O152 O 0.85744 0.07951 0.37756 0.0
O153 O 0.73476 0.12114 0.38094 0.0
Sc154 Sc 0.06076 0.59724 0.11761 0.0
Sc155 Sc 0.07952 0.50281 0.14124 0.0
Sc156 Sc 0.14654 0.58055 0.15342 0.0
O157 O 0.09561 0.56018 0.13746 0.0
C158 C 0.14775 0.62358 0.10124 0.0
C159 C 0.05629 0.5199 0.08526 0.0
C160 C 0.17266 0.49742 0.13172 0.0
C161 C 0.99602 0.54551 0.14577 0.0
C162 C 0.08408 0.64829 0.16432 0.0
C163 C 0.11336 0.52195 0.19466 0.0
O164 O 0.11048 0.6216 0.09825 0.0
O165 O 0.06426 0.49693 0.10303 0.0
O166 O 0.18126 0.53163 0.13978 0.0
O167 O 0.00654 0.57596 0.13378 0.0
O168 O 0.1164 0.63076 0.16921 0.0
O169 O 0.09253 0.50148 0.17997 0.0
O170 O 0.06245 0.64011 0.14606 0.0
O171 O 0.01953 0.5172 0.15049 0.0
O172 O 0.13443 0.55107 0.18766 0.0
O173 O 0.05464 0.55717 0.08755 0.0
O174 O 0.16478 0.61157 0.12062 0.0
O175 O 0.13766 0.48347 0.13168 0.0
Sc176 Sc 0.86438 0.68313 0.6392 0.0
Sc177 Sc 0.76377 0.67999 0.62354 0.0
Sc178 Sc 0.82752 0.60289 0.60521 0.0
O179 O 0.81843 0.65521 0.62267 0.0
C180 C 0.90046 0.65672 0.58848 0.0
C181 C 0.81651 0.75566 0.61627 0.0
C182 C 0.76731 0.64529 0.56903 0.0
C183 C 0.79729 0.69709 0.67764 0.0
C184 C 0.88184 0.59282 0.65246 0.0
C185 C 0.74528 0.58934 0.63325 0.0
O186 O 0.89813 0.67989 0.60659 0.0
O187 O 0.7856 0.73591 0.61115 0.0
O188 O 0.7958 0.62195 0.57352 0.0
O189 O 0.83289 0.68878 0.67239 0.0
O190 O 0.86013 0.57844 0.63567 0.0
O191 O 0.73822 0.6259 0.63615 0.0
O192 O 0.88857 0.62961 0.65433 0.0
O193 O 0.76958 0.69801 0.66176 0.0
O194 O 0.77487 0.57617 0.62127 0.0
O195 O 0.84574 0.74153 0.62799 0.0
O196 O 0.87959 0.62552 0.58618 0.0
O197 O 0.75081 0.66633 0.5854 0.0
Sc198 Sc 0.05315 0.10184 0.885 0.0
Sc199 Sc 0.05534 0.00352 0.87159 0.0
Sc200 Sc 0.12863 0.06667 0.84888 0.0
O201 O 0.07962 0.05663 0.86912 0.0
C202 C 0.07714 0.14275 0.83896 0.0
C203 C 0.97849 0.0532 0.86681 0.0
C204 C 0.08115 0.01081 0.81487 0.0
C205 C 0.04426 0.03998 0.92575 0.0
C206 C 0.1456 0.11459 0.89552 0.0
C207 C 0.14483 0.98326 0.8736 0.0
O208 O 0.04868 0.12525 0.84914 0.0
O209 O -0.00135 0.02406 0.85931 0.0
O210 O 0.09982 0.04354 0.81683 0.0
O211 O 0.05513 0.07459 0.9197 0.0
O212 O 0.15752 0.08797 0.88091 0.0
O213 O 0.11098 0.98094 0.88365 0.0
O214 O 0.11045 0.12871 0.89456 0.0
O215 O 0.0389 0.01219 0.91018 0.0
O216 O 0.15295 0.00826 0.85686 0.0
O217 O 0.99324 0.08081 0.87961 0.0
O218 O 0.1119 0.12819 0.83994 0.0
O219 O 0.06875 0.9911 0.83336 0.0
Sc220 Sc 0.66642 0.39243 0.10331 0.0
Sc221 Sc 0.73878 0.32023 0.11613 0.0
Sc222 Sc 0.64335 0.31043 0.1405 0.0
O223 O 0.68293 0.34115 0.12 0.0
C224 C 0.62209 0.39939 0.15471 0.0
C225 C 0.75168 0.41222 0.12567 0.0
C226 C 0.7194 0.29738 0.1721 0.0
C227 C 0.72381 0.35624 0.06283 0.0
C228 C 0.59479 0.33392 0.09279 0.0
C229 C 0.68983 0.24106 0.11276 0.0
O230 O 0.63701 0.41464 0.13558 0.0
O231 O 0.76266 0.37628 0.12724 0.0
O232 O 0.68254 0.30464 0.17111 0.0
O233 O 0.69444 0.37715 0.06934 0.0
O234 O 0.60172 0.31223 0.11121 0.0
O235 O 0.71823 0.26271 0.10523 0.0
O236 O 0.61377 0.36548 0.08797 0.0
O237 O 0.74376 0.33563 0.07783 0.0
O238 O 0.66237 0.25402 0.12649 0.0
O239 O 0.71868 0.42275 0.1164 0.0
O240 O 0.6206 0.36232 0.1581 0.0
O241 O 0.74215 0.30014 0.15362 0.0
Sc242 Sc 0.34465 0.92683 0.35068 0.0
Sc243 Sc 0.41562 -0.00227 0.36578 0.0
Sc244 Sc 0.42323 0.90322 0.38777 0.0
O245 O 0.39466 0.94263 0.36785 0.0
C246 C 0.33266 0.88601 0.40095 0.0
C247 C 0.3253 0.01138 0.37197 0.0
C248 C 0.43732 0.97291 0.4208 0.0
C249 C 0.38469 0.97906 0.31148 0.0
C250 C 0.39979 0.85167 0.34417 0.0
C251 C 0.4945 0.953 0.3633 0.0
O252 O 0.31874 0.90861 0.38451 0.0
O253 O 0.3601 0.01815 0.37993 0.0
O254 O 0.41919 0.94031 0.41875 0.0
O255 O 0.36977 0.94557 0.3168 0.0
O256 O 0.42782 0.86669 0.35645 0.0
O257 O 0.47198 0.97772 0.35258 0.0
O258 O 0.36513 0.86658 0.34378 0.0
O259 O 0.39573 0.0039 0.32777 0.0
O260 O 0.48114 0.92734 0.37831 0.0
O261 O 0.31759 0.9844 0.35643 0.0
O262 O 0.3689 0.87508 0.40108 0.0
O263 O 0.44089 -0.00321 0.40286 0.0
Sc264 Sc 0.17036 0.38616 0.40452 0.0
Sc265 Sc 0.22994 0.30873 0.38201 0.0
Sc266 Sc 0.12765 0.30924 0.36963 0.0
O267 O 0.17607 0.33466 0.38544 0.0
C268 C 0.09381 0.33764 0.42091 0.0
C269 C 0.23283 0.33968 0.43757 0.0
C270 C 0.17322 0.23484 0.39112 0.0
C271 C 0.25164 0.39968 0.37558 0.0
C272 C 0.11645 0.40067 0.35704 0.0
C273 C 0.19279 0.29331 0.329 0.0
O274 O 0.1198 0.36408 0.42497 0.0
O275 O 0.24442 0.31748 0.42021 0.0
O276 O 0.14166 0.25077 0.38311 0.0
O277 O 0.22155 0.41249 0.38715 0.0
O278 O 0.10991 0.36419 0.35327 0.0
O279 O 0.22251 0.2961 0.34326 0.0
O280 O 0.13569 0.41307 0.37555 0.0
O281 O 0.25808 0.36313 0.37208 0.0
O282 O 0.15741 0.29767 0.33622 0.0
O283 O 0.206 0.36567 0.43475 0.0
O284 O 0.09251 0.31736 0.4015 0.0
O285 O 0.20658 0.25224 0.39184 0.0
Sc286 Sc 0.8506 0.91552 0.15682 0.0
Sc287 Sc 0.91588 0.99449 0.14468 0.0
Sc288 Sc 0.93013 0.90457 0.11572 0.0
O289 O 0.8986 0.93816 0.13913 0.0
C290 C 0.91712 0.84937 0.16183 0.0
C291 C 0.88544 0.97093 0.19826 0.0
C292 C -0.00191 0.95307 0.14364 0.0
C293 C 0.82276 0.00075 0.13794 0.0
C294 C 0.84179 0.87642 0.10423 0.0
C295 C 0.93392 0.98333 0.08729 0.0
O296 O 0.88326 0.86291 0.16793 0.0
O297 O 0.90153 0.99459 0.18317 0.0
O298 O 0.98651 0.92866 0.12746 0.0
O299 O 0.81518 0.96713 0.14754 0.0
O300 O 0.87875 0.8771 0.09997 0.0
O301 O 0.93444 0.00328 0.10701 0.0
O302 O 0.82704 0.88942 0.12397 0.0
O303 O 0.85778 0.01409 0.13497 0.0
O304 O 0.92638 0.94664 0.08687 0.0
O305 O 0.86766 0.93969 0.19155 0.0
O306 O 0.9364 0.86134 0.14335 0.0
O307 O 0.97471 0.97666 0.15449 0.0
Sc308 Sc 0.34239 0.67489 0.86278 0.0
Sc309 Sc 0.24839 0.65092 0.88287 0.0
Sc310 Sc 0.32956 0.59318 0.90019 0.0
O311 O 0.30654 0.63958 0.88216 0.0
C312 C 0.37704 0.59062 0.85134 0.0
C313 C 0.27292 0.66651 0.82675 0.0
C314 C 0.24927 0.5584 0.87796 0.0
C315 C 0.28049 0.73651 0.88436 0.0
C316 C 0.38922 0.66452 0.91097 0.0
C317 C 0.26771 0.62515 0.93832 0.0
O318 O 0.38254 0.62776 0.8525 0.0
O319 O 0.24733 0.6681 0.84401 0.0
O320 O 0.28023 0.55442 0.89108 0.0
O321 O 0.30808 0.72803 0.86945 0.0
O322 O 0.38164 0.62746 0.91187 0.0
O323 O 0.2434 0.63603 0.9217 0.0
O324 O 0.37445 0.68723 0.89495 0.0
O325 O 0.25856 0.71048 0.89414 0.0
O326 O 0.30198 0.6115 0.93355 0.0
O327 O 0.30983 0.66298 0.8306 0.0
O328 O 0.35597 0.5723 0.86685 0.0
O329 O 0.23553 0.59188 0.87176 0.0
Sc330 Sc 0.56123 0.08861 0.61694 0.0
Sc331 Sc 0.58032 0.99235 0.63227 0.0
Sc332 Sc 0.64226 0.06805 0.65353 0.0
O333 O 0.59513 0.04903 0.63357 0.0
C334 C 0.65119 0.11384 0.60495 0.0
C335 C 0.56303 0.02265 0.57739 0.0
C336 C 0.67252 0.98721 0.63177 0.0
C337 C 0.49484 0.02932 0.63609 0.0
C338 C 0.58149 0.13737 0.66057 0.0
C339 C 0.60104 0.00856 0.68898 0.0
O340 O 0.61399 0.12116 0.60509 0.0
O341 O 0.56648 -0.0044 0.59357 0.0
O342 O 0.676 0.014 0.64792 0.0
O343 O 0.50568 0.06067 0.62525 0.0
O344 O 0.6177 0.12729 0.66025 0.0
O345 O 0.59244 0.98587 0.67103 0.0
O346 O 0.55567 0.11434 0.65217 0.0
O347 O 0.51914 0.00224 0.64195 0.0
O348 O 0.61621 0.04303 0.68629 0.0
O349 O 0.56342 0.05934 0.58244 0.0
O350 O 0.66769 0.0914 0.62065 0.0
O351 O 0.63967 0.97848 0.62188 0.0
H352 H 0.29658 0.19705 0.2119 0.0
H353 H 0.18806 0.22354 0.17232 0.0
H354 H 0.15958 0.25255 0.20961 0.0
H355 H 0.24814 0.17145 0.26973 0.0
H356 H 0.28706 0.19308 0.28793 0.0
H357 H 0.29828 0.17277 0.25834 0.0
H358 H 0.32921 0.23979 0.24546 0.0
H359 H 0.31744 0.26057 0.27484 0.0
H360 H 0.29985 0.28419 0.24739 0.0
H361 H 0.1444 0.28239 0.24976 0.0
H362 H 0.13987 0.30497 0.29225 0.0
H363 H 0.25761 0.25838 0.30677 0.0
C364 C 0.26665 0.20855 0.21112 0.0
C365 C 0.2446 0.2081 0.1891 0.0
C366 C 0.2055 0.22335 0.18892 0.0
C367 C 0.18912 0.24011 0.20999 0.0
C368 C 0.21204 0.24104 0.23113 0.0
C369 C 0.24968 0.22513 0.23204 0.0
C370 C 0.26785 0.22993 0.25722 0.0
C371 C 0.27578 0.1894 0.269 0.0
C372 C 0.30583 0.25512 0.25615 0.0
C373 C 0.23469 0.25162 0.27019 0.0
C374 C 0.20291 0.25776 0.25468 0.0
C375 C 0.16887 0.27739 0.26217 0.0
C376 C 0.16668 0.29015 0.28638 0.0
C377 C 0.19831 0.28322 0.30294 0.0
C378 C 0.23306 0.26426 0.29456 0.0
H379 H 0.44452 0.43841 0.53624 0.0
H380 H 0.51079 0.52026 0.5817 0.0
H381 H 0.55835 0.53114 0.54818 0.0
H382 H 0.52828 0.39601 0.50365 0.0
H383 H 0.50285 0.39409 0.47472 0.0
H384 H 0.47514 0.39007 0.50277 0.0
H385 H 0.43102 0.4493 0.49002 0.0
H386 H 0.4579 0.45272 0.46173 0.0
H387 H 0.45418 0.49532 0.48135 0.0
H388 H 0.59758 0.5343 0.51038 0.0
H389 H 0.61931 0.54021 0.46756 0.0
H390 H 0.52721 0.45815 0.44535 0.0
C391 C 0.46896 0.45876 0.53899 0.0
C392 C 0.47397 0.47871 0.56143 0.0
C393 C 0.50611 0.50523 0.56448 0.0
C394 C 0.53362 0.51109 0.54571 0.0
C395 C 0.52831 0.49047 0.52396 0.0
C396 C 0.49634 0.46558 0.52023 0.0
C397 C 0.4957 0.44999 0.49428 0.0
C398 C 0.5008 0.40485 0.49385 0.0
C399 C 0.45745 0.46261 0.48107 0.0
C400 C 0.5319 0.4707 0.4839 0.0
C401 C 0.55076 0.49303 0.50161 0.0
C402 C 0.58335 0.5168 0.49635 0.0
C403 C 0.59564 0.51973 0.47206 0.0
C404 C 0.57523 0.49916 0.45339 0.0
C405 C 0.54401 0.47311 0.45946 0.0
H406 H 0.18315 0.79278 0.71714 0.0
H407 H 0.27164 0.73629 0.67136 0.0
H408 H 0.29176 0.69433 0.70597 0.0
H409 H 0.24414 0.79442 0.77209 0.0
H410 H 0.20269 0.78559 0.79214 0.0
H411 H 0.19523 0.81096 0.7636 0.0
H412 H 0.14169 0.75915 0.75195 0.0
H413 H 0.14988 0.73309 0.78021 0.0
H414 H 0.15446 0.70741 0.75153 0.0
H415 H 0.30069 0.65687 0.74434 0.0
H416 H 0.30698 0.63409 0.78685 0.0
H417 H 0.21476 0.71595 0.80899 0.0
C418 C 0.20703 0.77184 0.7145 0.0
C419 C 0.2258 0.76777 0.69152 0.0
C420 C 0.25706 0.7402 0.68881 0.0
C421 C 0.26839 0.71589 0.70828 0.0
C422 C 0.24852 0.71982 0.73043 0.0
C423 C 0.2192 0.74771 0.73389 0.0
C424 C 0.20414 0.74703 0.76001 0.0
C425 C 0.21204 0.78686 0.77271 0.0
C426 C 0.15991 0.73601 0.76097 0.0
C427 C 0.22965 0.71437 0.77064 0.0
C428 C 0.2545 0.69874 0.75304 0.0
C429 C 0.28152 0.66893 0.75831 0.0
C430 C 0.28472 0.65608 0.78248 0.0
C431 C 0.26129 0.67323 0.80114 0.0
C432 C 0.23246 0.70182 0.795 0.0
H433 H 0.97628 0.51701 0.94714 0.0
H434 H 0.9836 0.38891 0.95226 0.0
H435 H 0.01257 0.39442 0.99301 0.0
H436 H 0.0686 0.53837 0.981 0.0
H437 H 0.04764 0.58059 0.99633 0.0
H438 H 0.03011 0.56686 0.96644 0.0
H439 H 0.95829 0.56355 0.98355 0.0
H440 H 0.97622 0.57661 0.01345 0.0
H441 H 0.94779 0.53194 0.00928 0.0
H442 H 0.03858 0.41199 0.03335 0.0
H443 H 0.05786 0.44165 0.0726 0.0
H444 H 0.03363 0.55857 0.04308 0.0
C445 C 0.98433 0.49025 0.95679 0.0
C446 C 0.97742 0.45259 0.94639 0.0
C447 C 0.98809 0.4182 0.95977 0.0
C448 C 0.00491 0.42089 0.98296 0.0
C449 C 0.01102 0.45819 0.99278 0.0
C450 C 0.00103 0.49234 0.98031 0.0
C451 C 0.00905 0.52849 0.99598 0.0
C452 C 0.04075 0.55513 0.98423 0.0
C453 C 0.97054 0.55149 1.00085 0.0
C454 C 0.02454 0.50903 0.01911 0.0
C455 C 0.02575 0.46847 0.01666 0.0
C456 C 0.03796 0.44377 0.03556 0.0
C457 C 0.04881 0.46093 0.05782 0.0
C458 C 0.04719 0.50244 0.06107 0.0
C459 C 0.03531 0.52674 0.04125 0.0
H460 H 0.69796 0.81786 0.78735 0.0
H461 H 0.79889 0.78066 0.83105 0.0
H462 H 0.82527 0.74397 0.79597 0.0
H463 H 0.68436 0.72935 0.75479 0.0
H464 H 0.673 0.75205 0.72584 0.0
H465 H 0.66224 0.77782 0.75382 0.0
H466 H 0.70447 0.8377 0.73958 0.0
H467 H 0.71455 0.81247 0.7113 0.0
H468 H 0.75498 0.82988 0.72996 0.0
H469 H 0.83775 0.7066 0.75836 0.0
H470 H 0.84257 0.67913 0.71704 0.0
H471 H 0.73565 0.7422 0.69596 0.0
C472 C 0.72598 0.80259 0.78936 0.0
C473 C 0.74633 0.80211 0.81197 0.0
C474 C 0.7829 0.78178 0.81391 0.0
C475 C 0.798 0.76053 0.79414 0.0
C476 C 0.77656 0.76044 0.77245 0.0
C477 C 0.74193 0.78168 0.76963 0.0
C478 C 0.72526 0.77677 0.74405 0.0
C479 C 0.68375 0.75787 0.74468 0.0
C480 C 0.7248 0.81657 0.73042 0.0
C481 C 0.75558 0.74877 0.73321 0.0
C482 C 0.78463 0.73962 0.7501 0.0
C483 C 0.81557 0.71397 0.74482 0.0
C484 C 0.81791 0.69843 0.72129 0.0
C485 C 0.78967 0.70879 0.70318 0.0
C486 C 0.75753 0.73359 0.70942 0.0
H487 H 0.69368 0.30725 0.21958 0.0
H488 H 0.77953 0.24451 0.17502 0.0
H489 H 0.79972 0.20537 0.21078 0.0
H490 H 0.75723 0.31233 0.27385 0.0
H491 H 0.71632 0.30652 0.29473 0.0
H492 H 0.7085 0.32955 0.26548 0.0
H493 H 0.65307 0.27853 0.2564 0.0
H494 H 0.66161 0.25466 0.28535 0.0
H495 H 0.66425 0.22644 0.2575 0.0
H496 H 0.80809 0.17047 0.24973 0.0
H497 H 0.81458 0.14998 0.29254 0.0
H498 H 0.72679 0.23728 0.3138 0.0
C499 C 0.71704 0.28557 0.2175 0.0
C500 C 0.73506 0.27887 0.19452 0.0
C501 C 0.76562 0.25043 0.19247 0.0
C502 C 0.77697 0.2277 0.2126 0.0
C503 C 0.75794 0.23421 0.23477 0.0
C504 C 0.72945 0.26311 0.23762 0.0
C505 C 0.71543 0.26516 0.26396 0.0
C506 C 0.72496 0.3058 0.27516 0.0
C507 C 0.67094 0.25562 0.2659 0.0
C508 C 0.74044 0.23269 0.27533 0.0
C509 C 0.76412 0.2149 0.25791 0.0
C510 C 0.79001 0.18435 0.2636 0.0
C511 C 0.79334 0.17285 0.28798 0.0
C512 C 0.77133 0.19216 0.30651 0.0
C513 C 0.74358 0.22167 0.3 0.0
H514 H 0.92326 0.95691 0.04034 0.0
H515 H 0.97927 0.04992 0.08289 0.0
H516 H 0.01451 0.07289 0.0461 0.0
H517 H 0.00476 0.93256 0.00441 0.0
H518 H 0.97769 0.92481 0.97643 0.0
H519 H 0.9535 0.91729 0.00537 0.0
H520 H 0.89857 0.96728 0.99371 0.0
H521 H 0.92187 0.97402 0.9644 0.0
H522 H 0.91228 0.01617 0.9836 0.0
H523 H 0.04865 0.08147 0.00644 0.0
H524 H 0.07222 0.0825 0.96398 0.0
H525 H 0.99322 0.98511 0.94623 0.0
C526 C 0.94228 0.98265 0.04181 0.0
C527 C 0.94856 0.00163 0.06451 0.0
C528 C 0.97371 0.03515 0.06569 0.0
C529 C 0.99413 0.04821 0.04493 0.0
C530 C 0.98856 0.0278 0.02312 0.0
C531 C 0.96256 -0.00362 0.0212 0.0
C532 C 0.96234 0.97953 0.99553 0.0
C533 C 0.97536 0.93596 0.99545 0.0
C534 C 0.92134 0.98457 0.98361 0.0
C535 C 0.99311 0.00582 0.98351 0.0
C536 C 0.00786 0.03331 0.99986 0.0
C537 C 0.03694 0.0605 0.99337 0.0
C538 C 0.05025 0.0607 0.96922 0.0
C539 C 0.03442 0.03404 0.95177 0.0
C540 C 0.00609 0.00563 0.95918 0.0
H541 H 0.45629 0.03968 0.4481 0.0
H542 H 0.47817 0.91366 0.44142 0.0
H543 H 0.52072 0.91546 0.47764 0.0
H544 H 0.55701 0.06594 0.47326 0.0
H545 H 0.53693 0.1018 0.49416 0.0
H546 H 0.51269 0.09279 0.46533 0.0
H547 H 0.44691 0.07727 0.48797 0.0
H548 H 0.47091 0.08643 0.51675 0.0
H549 H 0.4464 0.0398 0.51141 0.0
H550 H 0.55414 0.92767 0.51627 0.0
H551 H 0.57505 0.95002 0.55704 0.0
H552 H 0.53251 0.06821 0.54034 0.0
C553 C 0.47068 0.0128 0.45413 0.0
C554 C 0.46368 0.97652 0.44214 0.0
C555 C 0.48261 0.9417 0.45059 0.0
C556 C 0.50727 0.94242 0.47098 0.0
C557 C 0.51294 0.97823 0.48281 0.0
C558 C 0.49532 0.01287 0.47485 0.0
C559 C 0.50351 0.04631 0.49261 0.0
C560 C 0.52906 0.07862 0.48062 0.0
C561 C 0.46462 0.06344 0.50279 0.0
C562 C 0.5267 0.02438 0.51214 0.0
C563 C 0.53249 0.98537 0.50575 0.0
C564 C 0.55042 0.95832 0.52142 0.0
C565 C 0.56203 0.97124 0.54458 0.0
C566 C 0.55545 0.0108 0.55188 0.0
C567 C 0.53846 0.0379 0.53516 0.0
H568 H 0.12593 0.14745 0.93994 0.0
H569 H 0.22605 0.10619 0.89721 0.0
H570 H 0.26948 0.11344 0.93308 0.0
H571 H 0.18411 0.21904 0.97883 0.0
H572 H 0.15475 0.20777 0.00545 0.0
H573 H 0.13274 0.20518 0.97548 0.0
H574 H 0.11114 0.13374 0.9845 0.0
H575 H 0.13439 0.13451 0.014 0.0
H576 H 0.14783 0.097 0.99217 0.0
H577 H 0.30004 0.11613 0.97436 0.0
H578 H 0.31699 0.11851 0.01811 0.0
H579 H 0.19787 0.1591 0.03465 0.0
C580 C 0.15727 0.14135 0.93789 0.0
C581 C 0.17261 0.12655 0.91563 0.0
C582 C 0.2136 0.11774 0.91397 0.0
C583 C 0.23856 0.12177 0.93427 0.0
C584 C 0.22226 0.13491 0.95615 0.0
C585 C 0.18271 0.14517 0.95807 0.0
C586 C 0.17225 0.15584 0.98422 0.0
C587 C 0.16027 0.19956 0.9861 0.0
C588 C 0.1395 0.12861 0.9943 0.0
C589 C 0.21168 0.14842 0.99678 0.0
C590 C 0.24016 0.13673 0.98018 0.0
C591 C 0.27819 0.1259 0.9875 0.0
C592 C 0.28746 0.12711 0.01244 0.0
C593 C 0.25886 0.13913 0.02987 0.0
C594 C 0.22057 0.15026 0.02179 0.0
H595 H 0.60718 0.44862 0.29609 0.0
H596 H 0.61668 0.57287 0.27677 0.0
H597 H 0.6123 0.55531 0.23314 0.0
H598 H 0.66737 0.41271 0.2483 0.0
H599 H 0.63854 0.36849 0.24343 0.0
H600 H 0.63947 0.39127 0.27308 0.0
H601 H 0.56267 0.39566 0.27259 0.0
H602 H 0.56161 0.37316 0.24278 0.0
H603 H 0.53816 0.42036 0.24762 0.0
H604 H 0.61132 0.52379 0.19137 0.0
H605 H 0.61659 0.48065 0.15513 0.0
H606 H 0.60661 0.37739 0.20195 0.0
C607 C 0.60787 0.47226 0.28275 0.0
C608 C 0.61217 0.5122 0.28999 0.0
C609 C 0.61343 0.54206 0.27179 0.0
C610 C 0.61077 0.5324 0.24692 0.0
C611 C 0.60674 0.49276 0.24045 0.0
C612 C 0.60537 0.46316 0.25786 0.0
C613 C 0.60313 0.4227 0.24609 0.0
C614 C 0.63927 0.39732 0.25314 0.0
C615 C 0.56406 0.40175 0.25266 0.0
C616 C 0.60412 0.43414 0.21934 0.0
C617 C 0.60589 0.47467 0.21643 0.0
C618 C 0.60945 0.49201 0.19341 0.0
C619 C 0.61232 0.46725 0.1729 0.0
C620 C 0.61164 0.42555 0.17553 0.0
C621 C 0.60648 0.40908 0.1991 0.0
H622 H 0.28374 0.84355 0.54128 0.0
H623 H 0.16252 0.87767 0.52483 0.0
H624 H 0.17935 0.88187 0.48112 0.0
H625 H 0.32899 0.90941 0.49905 0.0
H626 H 0.3683 0.87607 0.49062 0.0
H627 H 0.34606 0.8726 0.52042 0.0
H628 H 0.32977 0.79877 0.5126 0.0
H629 H 0.35174 0.80212 0.48267 0.0
H630 H 0.30132 0.78514 0.48602 0.0
H631 H 0.20944 0.88542 0.43963 0.0
H632 H 0.25193 0.8926 0.40332 0.0
H633 H 0.35432 0.85721 0.44619 0.0
C634 C 0.26063 0.85146 0.52845 0.0
C635 C 0.22173 0.86014 0.53654 0.0
C636 C 0.19254 0.871 0.51916 0.0
C637 C 0.20174 0.87322 0.49423 0.0
C638 C 0.24031 0.86463 0.48689 0.0
C639 C 0.26941 0.85422 0.50345 0.0
C640 C 0.30915 0.84904 0.49082 0.0
C641 C 0.33993 0.87854 0.50082 0.0
C642 C 0.32385 0.80622 0.49317 0.0
C643 C 0.29789 0.8587 0.46466 0.0
C644 C 0.25792 0.86714 0.46281 0.0
C645 C 0.24073 0.87859 0.4408 0.0
C646 C 0.26517 0.88255 0.42024 0.0
C647 C 0.30651 0.87525 0.42176 0.0
C648 C 0.32278 0.86234 0.44424 0.0
H649 H 0.90654 0.61511 0.69819 0.0
H650 H 0.88374 0.51158 0.65347 0.0
H651 H 0.89361 0.46891 0.68956 0.0
H652 H 0.98082 0.56899 0.74005 0.0
H653 H 0.96184 0.59549 0.76608 0.0
H654 H 0.95928 0.61732 0.73608 0.0
H655 H 0.88363 0.62643 0.74127 0.0
H656 H 0.88556 0.60406 0.77104 0.0
H657 H 0.85298 0.58408 0.74804 0.0
H658 H 0.89734 0.43838 0.73103 0.0
H659 H 0.89655 0.42152 0.77476 0.0
H660 H 0.91666 0.54479 0.79312 0.0
C661 C 0.90499 0.58338 0.69572 0.0
C662 C 0.89484 0.56671 0.67279 0.0
C663 C 0.89184 0.52507 0.67069 0.0
C664 C 0.8974 0.50059 0.69113 0.0
C665 C 0.90599 0.51812 0.71357 0.0
C666 C 0.91013 0.55856 0.71597 0.0
C667 C 0.91591 0.57019 0.74252 0.0
C668 C 0.95691 0.58911 0.7464 0.0
C669 C 0.88253 0.5978 0.75121 0.0
C670 C 0.91332 0.53005 0.75478 0.0
C671 C 0.90794 0.50044 0.73768 0.0
C672 C 0.90213 0.46123 0.74454 0.0
C673 C 0.90152 0.45201 0.76948 0.0
C674 C 0.90668 0.4818 0.78744 0.0
C675 C 0.91326 0.52127 0.77987 0.0
H676 H 0.86247 0.85975 0.057 0.0
H677 H 0.76014 0.87319 0.10443 0.0
H678 H 0.71615 0.87073 0.0684 0.0
H679 H 0.82995 0.92287 0.01187 0.0
H680 H 0.84958 0.89498 0.98661 0.0
H681 H 0.87271 0.89171 0.01613 0.0
H682 H 0.86387 0.81555 0.01613 0.0
H683 H 0.84138 0.81843 0.98634 0.0
H684 H 0.81535 0.7946 0.01106 0.0
H685 H 0.68411 0.87475 0.02672 0.0
H686 H 0.66619 0.87952 0.98308 0.0
H687 H 0.79005 0.86446 0.96342 0.0
C688 C 0.83076 0.86094 0.06002 0.0
C689 C 0.81485 0.86644 0.08369 0.0
C690 C 0.77312 0.86865 0.08657 0.0
C691 C 0.74787 0.86745 0.06618 0.0
C692 C 0.76478 0.86386 0.04306 0.0
C693 C 0.80526 0.8601 0.03993 0.0
C694 C 0.81636 0.85937 0.01316 0.0
C695 C 0.84375 0.8943 0.00657 0.0
C696 C 0.83535 0.81961 0.00627 0.0
C697 C 0.77584 0.86393 1.00166 0.0
C698 C 0.74644 0.8664 0.01916 0.0
C699 C 0.70684 0.87235 0.01286 0.0
C700 C 0.697 0.87529 0.98801 0.0
C701 C 0.72665 0.87227 0.96975 0.0
C702 C 0.76656 0.86661 0.97684 0.0
H703 H 0.34091 0.52856 0.82821 0.0
H704 H 0.44187 0.60789 0.82346 0.0
H705 H 0.45678 0.5824 0.78227 0.0
H706 H 0.38366 0.4451 0.79126 0.0
H707 H 0.33665 0.43518 0.77679 0.0
H708 H 0.3381 0.4542 0.80753 0.0
H709 H 0.29309 0.51233 0.79438 0.0
H710 H 0.29194 0.49405 0.76356 0.0
H711 H 0.30839 0.54387 0.76954 0.0
H712 H 0.45532 0.55625 0.74029 0.0
H713 H 0.43953 0.52898 0.69986 0.0
H714 H 0.33891 0.46593 0.73049 0.0
C715 C 0.36714 0.53931 0.8189 0.0
C716 C 0.39078 0.56967 0.82921 0.0
C717 C 0.42378 0.58428 0.81604 0.0
C718 C 0.43243 0.56998 0.79263 0.0
C719 C 0.4077 0.54116 0.78261 0.0
C720 C 0.37589 0.52567 0.79533 0.0
C721 C 0.35161 0.49804 0.77928 0.0
C722 C 0.35258 0.4556 0.78931 0.0
C723 C 0.30874 0.51298 0.77653 0.0
C724 C 0.3742 0.50123 0.75538 0.0
C725 C 0.40659 0.5261 0.7579 0.0
C726 C 0.43047 0.53625 0.73818 0.0
C727 C 0.42102 0.52082 0.71524 0.0
C728 C 0.388 0.49533 0.71204 0.0
C729 C 0.36462 0.48488 0.73249 0.0
H730 H 0.69646 0.15638 0.46453 0.0
H731 H 0.82115 0.15428 0.48408 0.0
H732 H 0.80331 0.15247 0.52767 0.0
H733 H 0.66164 0.21547 0.51811 0.0
H734 H 0.61676 0.18683 0.52117 0.0
H735 H 0.63897 0.19363 0.49152 0.0
H736 H 0.64138 0.11767 0.48565 0.0
H737 H 0.6193 0.1107 0.51523 0.0
H738 H 0.66602 0.08757 0.50818 0.0
H739 H 0.77296 0.14267 0.56848 0.0
H740 H 0.7315 0.12578 0.60416 0.0
H741 H 0.626 0.13458 0.55906 0.0
C742 C 0.7199 0.15672 0.47805 0.0
C743 C 0.76021 0.1558 0.47093 0.0
C744 C 0.79009 0.15506 0.48912 0.0
C745 C 0.78027 0.15419 0.51395 0.0
C746 C 0.74035 0.15404 0.52041 0.0
C747 C 0.71054 0.15542 0.50306 0.0
C748 C 0.67006 0.1514 0.51499 0.0
C749 C 0.64541 0.18909 0.51122 0.0
C750 C 0.64791 0.11465 0.50545 0.0
C751 C 0.68198 0.14651 0.54156 0.0
C752 C 0.72266 0.14851 0.54427 0.0
C753 C 0.74101 0.14178 0.56671 0.0
C754 C 0.71723 0.13214 0.58687 0.0
C755 C 0.6755 0.12943 0.58452 0.0
C756 C 0.65773 0.13747 0.56161 0.0
H757 H 0.08609 0.3835 0.31164 0.0
H758 H 0.12979 0.48104 0.3557 0.0
H759 H 0.12972 0.52391 0.31922 0.0
H760 H 0.14509 0.40119 0.26171 0.0
H761 H 0.10891 0.38815 0.23884 0.0
H762 H 0.10607 0.36652 0.2688 0.0
H763 H 0.03416 0.39178 0.27394 0.0
H764 H 0.03624 0.41282 0.24372 0.0
H765 H 0.02354 0.4435 0.26944 0.0
H766 H 0.1337 0.55345 0.27697 0.0
H767 H 0.13562 0.56917 0.23297 0.0
H768 H 0.08893 0.45249 0.21646 0.0
C769 C 0.09439 0.41423 0.31392 0.0
C770 C 0.10771 0.42881 0.33677 0.0
C771 C 0.1191 0.46909 0.33858 0.0
C772 C 0.11933 0.49369 0.31788 0.0
C773 C 0.1078 0.47777 0.29548 0.0
C774 C 0.0949 0.43913 0.29346 0.0
C775 C 0.08664 0.42836 0.26704 0.0
C776 C 0.11327 0.39404 0.25862 0.0
C777 C 0.04252 0.41855 0.26332 0.0
C778 C 0.0978 0.46672 0.25443 0.0
C779 C 0.10985 0.49487 0.27116 0.0
C780 C 0.12371 0.53183 0.26376 0.0
C781 C 0.12495 0.54039 0.23867 0.0
C782 C 0.11228 0.51218 0.22116 0.0
C783 C 0.0984 0.47491 0.22932 0.0
H784 H 0.69198 0.64931 0.54893 0.0
H785 H 0.81717 0.65061 0.53072 0.0
H786 H 0.80061 0.65322 0.48694 0.0
H787 H 0.66391 0.58438 0.50187 0.0
H788 H 0.617 0.60769 0.49547 0.0
H789 H 0.63838 0.61138 0.52547 0.0
H790 H 0.63447 0.68784 0.52269 0.0
H791 H 0.61339 0.68407 0.49252 0.0
H792 H 0.65763 0.71301 0.49739 0.0
H793 H 0.77178 0.64916 0.44557 0.0
H794 H 0.73211 0.63554 0.40874 0.0
H795 H 0.62485 0.63542 0.4526 0.0
C796 C 0.71572 0.65109 0.53566 0.0
C797 C 0.75585 0.65004 0.54314 0.0
C798 C 0.78625 0.65136 0.52532 0.0
C799 C 0.77715 0.6531 0.50042 0.0
C800 C 0.73744 0.6533 0.49352 0.0
C801 C 0.7071 0.65221 0.51052 0.0
C802 C 0.66708 0.64888 0.49793 0.0
C803 C 0.64535 0.61082 0.50565 0.0
C804 C 0.64164 0.68565 0.50293 0.0
C805 C 0.67987 0.64719 0.47134 0.0
C806 C 0.72057 0.65044 0.46928 0.0
C807 C 0.73982 0.64714 0.44687 0.0
C808 C 0.71701 0.63936 0.42603 0.0
C809 C 0.67533 0.63485 0.42767 0.0
C810 C 0.65653 0.63969 0.45062 0.0
H811 H 0.12288 0.02499 0.77243 0.0
H812 H 0.02378 0.95799 0.80176 0.0
H813 H 0.01401 0.92628 0.76172 0.0
H814 H 0.08292 0.03761 0.70948 0.0
H815 H 0.13092 0.03092 0.69562 0.0
H816 H 0.12709 0.05254 0.72561 0.0
H817 H 0.17452 -0.00088 0.7428 0.0
H818 H 0.17861 0.97753 0.71291 0.0
H819 H 0.16275 0.9476 0.73836 0.0
H820 H 0.01923 0.89644 0.72058 0.0
H821 H 0.04085 0.86842 0.68122 0.0
H822 H 0.13624 0.9544 0.67758 0.0
C823 C 0.09857 0.00433 0.77025 0.0
C824 C 0.07396 0.99413 0.79023 0.0
C825 C 0.04306 0.96624 0.78677 0.0
C826 C 0.03708 0.94826 0.76403 0.0
C827 C 0.0622 0.95844 0.74484 0.0
C828 C 0.09238 0.98577 0.74764 0.0
C829 C 0.11745 0.98852 0.72467 0.0
C830 C 0.1144 0.02986 0.71317 0.0
C831 C 0.16088 0.97752 0.73001 0.0
C832 C 0.09732 0.95763 0.70882 0.0
C833 C 0.06517 0.94109 0.72075 0.0
C834 C 0.04385 0.90964 0.71085 0.0
C835 C 0.05634 0.89392 0.68849 0.0
C836 C 0.08976 0.90967 0.6762 0.0
C837 C 0.10985 0.94262 0.68622 0.0
H838 H 0.79658 0.33998 0.0419 0.0
H839 H 0.67513 0.37156 0.0243 0.0
H840 H 0.69213 0.37289 0.98057 0.0
H841 H 0.84109 0.40372 0.99867 0.0
H842 H 0.88104 0.37075 0.99084 0.0
H843 H 0.85865 0.36805 0.02062 0.0
H844 H 0.84363 0.2937 0.01388 0.0
H845 H 0.86582 0.29626 0.98397 0.0
H846 H 0.81568 0.27853 0.98742 0.0
H847 H 0.72235 0.37558 0.93945 0.0
H848 H 0.76506 0.38337 0.9033 0.0
H849 H 0.86785 0.35088 0.94656 0.0
C850 C 0.77347 0.34653 0.02879 0.0
C851 C 0.73444 0.35551 0.03655 0.0
C852 C 0.70522 0.36472 0.01884 0.0
C853 C 0.71452 0.36527 0.99393 0.0
C854 C 0.75323 0.35668 0.98689 0.0
C855 C 0.78238 0.34768 0.00374 0.0
C856 C 0.82235 0.34272 0.99129 0.0
C857 C 0.85255 0.37312 1.00093 0.0
C858 C 0.83777 0.30027 0.99433 0.0
C859 C 0.81115 0.35113 0.96493 0.0
C860 C 0.77099 0.35858 0.96286 0.0
C861 C 0.75375 0.36938 0.94076 0.0
C862 C 0.77829 0.37375 0.92031 0.0
C863 C 0.81973 0.3674 0.92203 0.0
C864 C 0.83617 0.35503 0.94455 0.0
H865 H 0.38846 0.12273 0.1965 0.0
H866 H 0.37442 0.01875 0.15076 0.0
H867 H 0.3833 0.97621 0.18703 0.0
H868 H 0.46119 0.08006 0.24021 0.0
H869 H 0.43893 0.10551 0.26563 0.0
H870 H 0.43769 0.12732 0.2356 0.0
H871 H 0.36119 0.13272 0.23846 0.0
H872 H 0.36204 0.11052 0.2683 0.0
H873 H 0.33224 0.08891 0.24445 0.0
H874 H 0.3849 0.94558 0.22876 0.0
H875 H 0.38217 0.92871 0.2725 0.0
H876 H 0.3947 0.05292 0.29105 0.0
C877 C 0.38838 0.091 0.19386 0.0
C878 C 0.38093 0.07415 0.17063 0.0
C879 C 0.38039 0.03244 0.16825 0.0
C880 C 0.38534 0.00802 0.18878 0.0
C881 C 0.39106 0.02575 0.21151 0.0
C882 C 0.39305 0.0663 0.21411 0.0
C883 C 0.39616 0.07815 0.24073 0.0
C884 C 0.43587 0.09898 0.24584 0.0
C885 C 0.36081 0.10408 0.24842 0.0
C886 C 0.39453 0.03792 0.25281 0.0
C887 C 0.39189 0.00809 0.23562 0.0
C888 C 0.38756 0.96864 0.24236 0.0
C889 C 0.3858 0.95941 0.26729 0.0
C890 C 0.38833 0.98949 0.28527 0.0
C891 C 0.3932 0.02921 0.27781 0.0
H892 H 0.28786 0.40411 0.57405 0.0
H893 H 0.3765 0.31122 0.57375 0.0
H894 H 0.35266 0.28916 0.53336 0.0
H895 H 0.20911 0.3487 0.54155 0.0
H896 H 0.1934 0.39171 0.5247 0.0
H897 H 0.21435 0.39723 0.55478 0.0
H898 H 0.26701 0.44554 0.53745 0.0
H899 H 0.24651 0.43993 0.50731 0.0
H900 H 0.29828 0.4298 0.5126 0.0
H901 H 0.32289 0.28056 0.49155 0.0
H902 H 0.28912 0.28561 0.45172 0.0
H903 H 0.22048 0.3849 0.47882 0.0
C904 C 0.30154 0.37843 0.56582 0.0
C905 C 0.33382 0.35914 0.57726 0.0
C906 C 0.35161 0.32636 0.56546 0.0
C907 C 0.33825 0.31358 0.5425 0.0
C908 C 0.30708 0.33389 0.53146 0.0
C909 C 0.2888 0.3655 0.54277 0.0
C910 C 0.2578 0.38395 0.52624 0.0
C911 C 0.2162 0.38016 0.53749 0.0
C912 C 0.26803 0.42737 0.52057 0.0
C913 C 0.26194 0.35817 0.50374 0.0
C914 C 0.2903 0.32929 0.5072 0.0
C915 C 0.30036 0.30285 0.48871 0.0
C916 C 0.28102 0.30604 0.46608 0.0
C917 C 0.25197 0.33561 0.46198 0.0
C918 C 0.24229 0.36177 0.48127 0.0
H919 H 0.90717 0.04101 0.21987 0.0
H920 H 0.86819 0.92161 0.23668 0.0
H921 H 0.87048 0.93719 0.28068 0.0
H922 H 0.97346 0.05386 0.27234 0.0
H923 H 0.9596 0.10485 0.27656 0.0
H924 H 0.95843 0.08328 0.24649 0.0
H925 H 0.88452 0.10327 0.24177 0.0
H926 H 0.88574 0.12527 0.27163 0.0
H927 H 0.84926 0.08794 0.26466 0.0
H928 H 0.87214 0.96739 0.32279 0.0
H929 H 0.86874 0.01088 0.35894 0.0
H930 H 0.9075 0.10996 0.31437 0.0
C931 C 0.89966 0.01791 0.23277 0.0
C932 C 0.88766 0.98001 0.22474 0.0
C933 C 0.87744 0.95089 0.24232 0.0
C934 C 0.8789 0.95937 0.26739 0.0
C935 C 0.89069 -0.00293 0.27465 0.0
C936 C 0.90073 0.02591 0.25783 0.0
C937 C 0.90947 0.06494 0.27024 0.0
C938 C 0.95282 0.07745 0.26616 0.0
C939 C 0.88052 0.09723 0.26157 0.0
C940 C 0.90212 0.05375 0.29663 0.0
C941 C 0.89172 0.0144 0.29888 0.0
C942 C 0.88077 -0.00187 0.3213 0.0
C943 C 0.87907 0.02307 0.34179 0.0
C944 C 0.88812 0.06388 0.33967 0.0
C945 C 0.90104 0.07885 0.31686 0.0
H946 H 0.12322 0.63405 0.05384 0.0
H947 H 0.22859 0.63473 0.09949 0.0
H948 H 0.27033 0.63961 0.06258 0.0
H949 H 0.16102 0.5723 0.00897 0.0
H950 H 0.13675 0.59659 0.98377 0.0
H951 H 0.11529 0.59862 0.01382 0.0
H952 H 0.11523 0.67527 0.01171 0.0
H953 H 0.13684 0.67326 0.98164 0.0
H954 H 0.16089 0.7012 0.00545 0.0
H955 H 0.30068 0.63615 0.02087 0.0
H956 H 0.31778 0.62925 0.97738 0.0
H957 H 0.19269 0.63093 0.9585 0.0
C958 C 0.15501 0.6365 0.05623 0.0
C959 C 0.17252 0.63434 0.07974 0.0
C960 C 0.21436 0.63665 0.0818 0.0
C961 C 0.23835 0.63932 0.0609 0.0
C962 C 0.22011 0.6398 0.03803 0.0
C963 C 0.17937 0.63893 0.03557 0.0
C964 C 0.16727 0.63692 0.00889 0.0
C965 C 0.1437 0.59885 0.00356 0.0
C966 C 0.14367 0.67387 1.00149 0.0
C967 C 0.20763 0.63617 0.99671 0.0
C968 C 0.23766 0.63789 0.01388 0.0
C969 C 0.27742 0.63535 0.00726 0.0
C970 C 0.2868 0.63115 0.98246 0.0
C971 C 0.25661 0.62964 0.96443 0.0
C972 C 0.21647 0.63246 0.97176 0.0
H973 H 0.63806 0.02626 0.73284 0.0
H974 H 0.54336 0.95601 0.70104 0.0
H975 H 0.52986 0.92605 0.74111 0.0
H976 H 0.67534 0.9512 0.77026 0.0
H977 H 0.68772 0.9826 0.79573 0.0
H978 H 0.68667 0.00272 0.76533 0.0
H979 H 0.63647 0.05597 0.77941 0.0
H980 H 0.63726 0.03575 0.80988 0.0
H981 H 0.59083 0.0409 0.79387 0.0
H982 H 0.53151 0.89752 0.78267 0.0
H983 H 0.54943 0.87149 0.82333 0.0
H984 H 0.6418 0.96033 0.82949 0.0
C985 C 0.61392 0.00527 0.7345 0.0
C986 C 0.59174 0.99355 0.71379 0.0
C987 C 0.56092 0.96532 0.71659 0.0
C988 C 0.55278 0.9483 0.73933 0.0
C989 C 0.57561 0.95977 0.75927 0.0
C990 C 0.60554 0.98761 0.75718 0.0
C991 C 0.62786 0.99185 0.78113 0.0
C992 C 0.672 0.98146 0.77791 0.0
C993 C 0.62279 0.03361 0.79169 0.0
C994 C 0.6065 0.96126 0.79665 0.0
C995 C 0.57616 0.94346 0.78371 0.0
C996 C 0.55458 0.91179 0.79322 0.0
C997 C 0.56491 0.8972 0.81632 0.0
C998 C 0.59635 0.91443 0.82974 0.0
C999 C 0.61669 0.94751 0.81999 0.0
H1000 H 0.39392 0.2448 0.07872 0.0
H1001 H 0.45976 0.13759 0.06483 0.0
H1002 H 0.51495 0.17754 0.04793 0.0
H1003 H 0.44548 0.31251 0.02913 0.0
H1004 H 0.44426 0.35285 0.0506 0.0
H1005 H 0.40409 0.31756 0.04971 0.0
H1006 H 0.41344 0.3042 0.09582 0.0
H1007 H 0.45329 0.33889 0.09686 0.0
H1008 H 0.46135 0.28873 0.10694 0.0
H1009 H 0.56825 0.22622 0.04589 0.0
H1010 H 0.61489 0.27444 0.06335 0.0
H1011 H 0.51757 0.3507 0.08318 0.0
C1012 C 0.41939 0.22982 0.07102 0.0
C1013 C 0.4231 0.18844 0.07307 0.0
C1014 C 0.45644 0.16932 0.06312 0.0
C1015 C 0.48774 0.19193 0.05342 0.0
C1016 C 0.4848 0.2333 0.05377 0.0
C1017 C 0.451 0.25205 0.06216 0.0
C1018 C 0.45822 0.29558 0.06703 0.0
C1019 C 0.43675 0.32113 0.04797 0.0
C1020 C 0.44594 0.30744 0.0932 0.0
C1021 C 0.5026 0.29737 0.06338 0.0
C1022 C 0.51685 0.26198 0.05397 0.0
C1023 C 0.55735 0.25433 0.05247 0.0
C1024 C 0.58367 0.28191 0.06242 0.0
C1025 C 0.56935 0.31623 0.07415 0.0
C1026 C 0.52877 0.32521 0.07345 0.0
H1027 H 0.56401 0.69698 0.31661 0.0
H1028 H 0.54398 0.66924 0.39302 0.0
H1029 H 0.48348 0.70932 0.39281 0.0
H1030 H 0.53314 0.80361 0.32721 0.0
H1031 H 0.51398 0.80804 0.29659 0.0
H1032 H 0.55499 0.77552 0.30271 0.0
H1033 H 0.51453 0.7186 0.2829 0.0
H1034 H 0.47246 0.75058 0.27831 0.0
H1035 H 0.46688 0.70539 0.29546 0.0
H1036 H 0.41882 0.73821 0.38193 0.0
H1037 H 0.37377 0.79273 0.37179 0.0
H1038 H 0.44333 0.81863 0.30719 0.0
C1039 C 0.54793 0.70098 0.33353 0.0
C1040 C 0.55774 0.67905 0.35463 0.0
C1041 C 0.53641 0.68543 0.37657 0.0
C1042 C 0.50146 0.7072 0.37649 0.0
C1043 C 0.48994 0.72474 0.35475 0.0
C1044 C 0.51415 0.72526 0.33439 0.0
C1045 C 0.49749 0.75293 0.31513 0.0
C1046 C 0.52661 0.78707 0.31013 0.0
C1047 C 0.48725 0.73051 0.29155 0.0
C1048 C 0.46011 0.7671 0.32796 0.0
C1049 C 0.45527 0.74798 0.35002 0.0
C1050 C 0.42262 0.75433 0.36501 0.0
C1051 C 0.3966 0.7847 0.35877 0.0
C1052 C 0.40554 0.8099 0.33894 0.0
C1053 C 0.43571 0.7993 0.32226 0.0
H1054 H 0.97641 0.64078 0.57567 0.0
H1055 H 0.8746 0.71207 0.55769 0.0
H1056 H 0.91807 0.76417 0.54162 0.0
H1057 H 0.02876 0.69979 0.60047 0.0
H1058 H 0.07773 0.69013 0.58868 0.0
H1059 H 0.04093 0.65235 0.58737 0.0
H1060 H 0.04977 0.64642 0.54068 0.0
H1061 H 0.08763 0.68414 0.54187 0.0
H1062 H 0.04583 0.68973 0.52164 0.0
H1063 H 0.96748 0.81612 0.54845 0.0
H1064 H 0.01926 0.85643 0.56878 0.0
H1065 H 0.09326 0.75264 0.57475 0.0
C1066 C 0.96362 0.66585 0.56626 0.0
C1067 C 0.9226 0.67256 0.56765 0.0
C1068 C 0.90614 0.70627 0.55627 0.0
C1069 C 0.93072 0.73621 0.54721 0.0
C1070 C 0.97164 0.73113 0.54871 0.0
C1071 C 0.9881 0.69561 0.55654 0.0
C1072 C 0.03237 0.69991 0.56034 0.0
C1073 C 0.0456 0.68474 0.58572 0.0
C1074 C 0.05524 0.67881 0.5399 0.0
C1075 C 0.03657 0.74434 0.55795 0.0
C1076 C 0.00164 0.76196 0.55045 0.0
C1077 C 0.9957 0.80284 0.55302 0.0
C1078 C 0.02515 0.8257 0.56461 0.0
C1079 C 0.05991 0.80738 0.57326 0.0
C1080 C 0.06676 0.76713 0.56806 0.0
H1081 H 0.9181 0.29641 0.80135 0.0
H1082 H 0.89327 0.29266 0.87887 0.0
H1083 H 0.95193 0.25094 0.8853 0.0
H1084 H 0.95057 0.18411 0.80272 0.0
H1085 H 0.98395 0.19303 0.77759 0.0
H1086 H 0.93785 0.21968 0.77948 0.0
H1087 H 0.97825 0.28471 0.77619 0.0
H1088 H 0.02465 0.25843 0.77639 0.0
H1089 H 0.01513 0.29587 0.79904 0.0
H1090 H 0.02597 0.2354 0.88349 0.0
H1091 H 0.08509 0.19538 0.87498 0.0
H1092 H 0.04964 0.18536 0.79921 0.0
C1093 C 0.92297 0.28414 0.81937 0.0
C1094 C 0.90287 0.29971 0.8399 0.0
C1095 C 0.90927 0.28211 0.86303 0.0
C1096 C 0.9433 0.25941 0.867 0.0
C1097 C 0.96686 0.25041 0.84694 0.0
C1098 C 0.95469 0.25807 0.82336 0.0
C1099 C 0.98336 0.24007 0.80507 0.0
C1100 C 0.96272 0.20725 0.79035 0.0
C1101 C 0.00138 0.27168 0.78818 0.0
C1102 C 0.0145 0.22338 0.82226 0.0
C1103 C 0.00541 0.23231 0.84618 0.0
C1104 C 0.03214 0.22569 0.86506 0.0
C1105 C 0.06638 0.20404 0.85983 0.0
C1106 C 0.07049 0.18533 0.83684 0.0
C1107 C 0.04667 0.19842 0.81716 0.0
H1108 H 0.52285 0.84117 0.92274 0.0
H1109 H 0.61561 0.75654 0.93764 0.0
H1110 H 0.56647 0.7094 0.95349 0.0
H1111 H 0.44853 0.80101 0.9747 0.0
H1112 H 0.40765 0.81055 0.95432 0.0
H1113 H 0.4498 0.84349 0.9548 0.0
H1114 H 0.45823 0.83395 0.90822 0.0
H1115 H 0.41679 0.80105 0.90762 0.0
H1116 H 0.46414 0.78465 0.89618 0.0
H1117 H 0.51017 0.66466 0.95157 0.0
H1118 H 0.45232 0.62933 0.9345 0.0
H1119 H 0.39299 0.7414 0.92346 0.0
C1120 C 0.53266 0.81375 0.93096 0.0
C1121 C 0.57258 0.80231 0.9292 0.0
C1122 C 0.5849 0.76571 0.93907 0.0
C1123 C 0.55718 0.73881 0.94824 0.0
C1124 C 0.51724 0.74914 0.94765 0.0
C1125 C 0.50496 0.78636 0.93998 0.0
C1126 C 0.4605 0.78726 0.93625 0.0
C1127 C 0.44044 0.81204 0.95622 0.0
C1128 C 0.44935 0.80254 0.91055 0.0
C1129 C 0.4509 0.74379 0.93942 0.0
C1130 C 0.48355 0.72247 0.94709 0.0
C1131 C 0.48388 0.68107 0.94655 0.0
C1132 C 0.45096 0.66111 0.93676 0.0
C1133 C 0.41855 0.68276 0.92749 0.0
C1134 C 0.41758 0.72422 0.93045 0.0
H1135 H 0.44085 0.31225 0.70008 0.0
H1136 H 0.39798 0.30121 0.62575 0.0
H1137 H 0.44953 0.25198 0.6172 0.0
H1138 H 0.53827 0.30017 0.69314 0.0
H1139 H 0.54881 0.26579 0.71745 0.0
H1140 H 0.50664 0.2982 0.71966 0.0
H1141 H 0.45863 0.23898 0.7252 0.0
H1142 H 0.50095 0.20654 0.72472 0.0
H1143 H 0.46038 0.19849 0.70385 0.0
H1144 H 0.51734 0.22418 0.61381 0.0
H1145 H 0.57277 0.17854 0.61952 0.0
H1146 H 0.56018 0.18785 0.69812 0.0
C1147 C 0.44059 0.29739 0.68258 0.0
C1148 C 0.41634 0.31113 0.6633 0.0
C1149 C 0.41674 0.29137 0.64058 0.0
C1150 C 0.44638 0.26398 0.63541 0.0
C1151 C 0.47292 0.25452 0.6539 0.0
C1152 C 0.46803 0.26738 0.67761 0.0
C1153 C 0.49872 0.24865 0.69433 0.0
C1154 C 0.52463 0.2801 0.70688 0.0
C1155 C 0.47847 0.22153 0.71313 0.0
C1156 C 0.52261 0.22512 0.67589 0.0
C1157 C 0.50826 0.23121 0.65258 0.0
C1158 C 0.5277 0.21727 0.63203 0.0
C1159 C 0.55987 0.19217 0.63549 0.0
C1160 C 0.57002 0.17894 0.65922 0.0
C1161 C 0.55294 0.19745 0.67979 0.0
H1162 H 0.01696 0.35521 0.42939 0.0
H1163 H 0.11428 0.28245 0.45354 0.0
H1164 H 0.06738 0.23228 0.46849 0.0
H1165 H 0.9393 0.31297 0.48004 0.0
H1166 H 0.9007 0.31767 0.45745 0.0
H1167 H 0.93961 0.35426 0.4592 0.0
H1168 H 0.95471 0.34295 0.41348 0.0
H1169 H 0.91688 0.30617 0.41168 0.0
H1170 H 0.96697 0.29385 0.40303 0.0
H1171 H 0.01586 0.18127 0.46275 0.0
H1172 H 0.96343 0.14031 0.44346 0.0
H1173 H 0.89617 0.2462 0.42812 0.0
C1174 C 0.02787 0.33031 0.43982 0.0
C1175 C 0.06881 0.32279 0.44077 0.0
C1176 C 0.08283 0.2891 0.45333 0.0
C1177 C 0.05629 0.26023 0.46172 0.0
C1178 C 0.0158 0.26627 0.45817 0.0
C1179 C 0.00144 0.30159 0.44868 0.0
C1180 C 0.95772 0.29825 0.44271 0.0
C1181 C 0.93287 0.3222 0.46095 0.0
C1182 C 0.94865 0.31096 0.41617 0.0
C1183 C 0.95159 0.25434 0.44655 0.0
C1184 C 0.98486 0.23638 0.45626 0.0
C1185 C 0.98889 0.19508 0.4563 0.0
C1186 C 0.95909 0.17188 0.44529 0.0
C1187 C 0.92607 0.19032 0.43437 0.0
C1188 C 0.92126 0.23159 0.43656 0.0
H1189 H 0.10125 0.72564 0.17123 0.0
H1190 H 0.02429 0.63074 0.1945 0.0
H1191 H 0.97576 0.67885 0.2098 0.0
H1192 H 0.06195 0.80404 0.22142 0.0
H1193 H 0.06736 0.84239 0.19879 0.0
H1194 H 0.10281 0.80256 0.20023 0.0
H1195 H 0.08981 0.78772 0.1546 0.0
H1196 H 0.05417 0.82656 0.1531 0.0
H1197 H 0.03991 0.77702 0.14462 0.0
H1198 H 0.92704 0.73198 0.20606 0.0
H1199 H 0.88701 0.78608 0.18809 0.0
H1200 H 0.9951 0.84911 0.17031 0.0
C1201 C 0.07557 0.71548 0.18132 0.0
C1202 C 0.06647 0.67503 0.18219 0.0
C1203 C 0.03187 0.6619 0.19428 0.0
C1204 C 0.00413 0.68907 0.20301 0.0
C1205 C 0.01186 0.72922 0.19985 0.0
C1206 C 0.04763 0.74255 0.19018 0.0
C1207 C 0.04565 0.78616 0.18423 0.0
C1208 C 0.07093 0.8102 0.20225 0.0
C1209 C 0.05803 0.79477 0.15757 0.0
C1210 C 0.00194 0.7935 0.18843 0.0
C1211 C 0.98308 0.76095 0.19838 0.0
C1212 C 0.9416 0.75833 0.19928 0.0
C1213 C 0.91898 0.78898 0.18894 0.0
C1214 C 0.93819 0.82123 0.17766 0.0
C1215 C 0.97986 0.82445 0.17881 0.0
H1216 H 0.23709 0.2939 0.08244 0.0
H1217 H 0.34818 0.31238 0.12077 0.0
H1218 H 0.33498 0.38375 0.12228 0.0
H1219 H 0.23397 0.39693 0.05049 0.0
H1220 H 0.18102 0.39838 0.05491 0.0
H1221 H 0.20537 0.3519 0.04905 0.0
H1222 H 0.17419 0.32312 0.08848 0.0
H1223 H 0.15047 0.3693 0.0947 0.0
H1224 H 0.1829 0.34768 0.11721 0.0
H1225 H 0.30169 0.4478 0.13038 0.0
H1226 H 0.25249 0.4984 0.14239 0.0
H1227 H 0.1633 0.43849 0.09892 0.0
C1228 C 0.25954 0.31316 0.09011 0.0
C1229 C 0.29339 0.29749 0.10167 0.0
C1230 C 0.32188 0.32363 0.11182 0.0
C1231 C 0.31474 0.36437 0.11266 0.0
C1232 C 0.27939 0.37859 0.10287 0.0
C1233 C 0.25265 0.35381 0.09122 0.0
C1234 C 0.21394 0.37467 0.08607 0.0
C1235 C 0.20826 0.38085 0.05849 0.0
C1236 C 0.17835 0.35238 0.09731 0.0
C1237 C 0.22162 0.41349 0.09883 0.0
C1238 C 0.25996 0.41594 0.10766 0.0
C1239 C 0.272 0.44684 0.1229 0.0
C1240 C 0.24387 0.47532 0.12974 0.0
C1241 C 0.20415 0.47202 0.12172 0.0
C1242 C 0.19352 0.44163 0.10536 0.0
H1243 H 0.32322 0.38236 0.35489 0.0
H1244 H 0.25121 0.48071 0.37985 0.0
H1245 H 0.30809 0.52564 0.37395 0.0
H1246 H 0.40452 0.40577 0.38657 0.0
H1247 H 0.44065 0.39109 0.36409 0.0
H1248 H 0.39244 0.3685 0.36422 0.0
H1249 H 0.3816 0.38924 0.31915 0.0
H1250 H 0.43019 0.41162 0.31874 0.0
H1251 H 0.38726 0.44038 0.3105 0.0
H1252 H 0.37475 0.5566 0.37332 0.0
H1253 H 0.44588 0.57184 0.37722 0.0
H1254 H 0.47494 0.4532 0.35302 0.0
C1255 C 0.31885 0.41357 0.35833 0.0
C1256 C 0.2827 0.42798 0.36786 0.0
C1257 C 0.27856 0.46895 0.37249 0.0
C1258 C 0.31068 0.49475 0.36908 0.0
C1259 C 0.34647 0.47916 0.36079 0.0
C1260 C 0.35059 0.43957 0.35517 0.0
C1261 C 0.39334 0.42912 0.34978 0.0
C1262 C 0.4086 0.39674 0.36721 0.0
C1263 C 0.39838 0.41688 0.32294 0.0
C1264 C 0.41303 0.46848 0.35473 0.0
C1265 C 0.38537 0.49716 0.3605 0.0
C1266 C 0.39661 0.5347 0.36827 0.0
C1267 C 0.43711 0.54292 0.37063 0.0
C1268 C 0.46591 0.51363 0.36541 0.0
C1269 C 0.45362 0.47633 0.35673 0.0
H1270 H 0.24094 0.7041 0.58029 0.0
H1271 H 0.13558 0.67527 0.62218 0.0
H1272 H 0.15387 0.60493 0.62114 0.0
H1273 H 0.24904 0.60366 0.54578 0.0
H1274 H 0.30227 0.60603 0.54852 0.0
H1275 H 0.274 0.6508 0.54454 0.0
H1276 H 0.30632 0.67952 0.58359 0.0
H1277 H 0.33393 0.63496 0.58803 0.0
H1278 H 0.30192 0.65274 0.61197 0.0
H1279 H 0.19209 0.54358 0.62634 0.0
H1280 H 0.24535 0.4963 0.63578 0.0
H1281 H 0.32692 0.56466 0.5912 0.0
C1282 C 0.22069 0.6828 0.58823 0.0
C1283 C 0.18708 0.69521 0.60149 0.0
C1284 C 0.1616 0.6665 0.61195 0.0
C1285 C 0.17165 0.62636 0.61133 0.0
C1286 C 0.2069 0.61543 0.59988 0.0
C1287 C 0.23066 0.64279 0.58802 0.0
C1288 C 0.2704 0.62527 0.58119 0.0
C1289 C 0.27413 0.62119 0.55335 0.0
C1290 C 0.30512 0.64955 0.59186 0.0
C1291 C 0.26683 0.58523 0.59324 0.0
C1292 C 0.22951 0.57948 0.60312 0.0
C1293 C 0.221 0.54715 0.61803 0.0
C1294 C 0.2516 0.52061 0.62348 0.0
C1295 C 0.29041 0.52695 0.61434 0.0
C1296 C 0.29752 0.55884 0.59831 0.0
H1297 H 0.05351 0.47383 0.82872 0.0
H1298 H 0.06703 0.38026 0.8822 0.0
H1299 H 0.13856 0.39411 0.8845 0.0
H1300 H 0.16075 0.46602 0.80142 0.0
H1301 H 0.16203 0.51906 0.79827 0.0
H1302 H 0.11608 0.49257 0.79389 0.0
H1303 H 0.0827 0.53704 0.82638 0.0
H1304 H 0.12826 0.56308 0.83115 0.0
H1305 H 0.10376 0.53968 0.85662 0.0
H1306 H 0.20147 0.43063 0.89078 0.0
H1307 H 0.24979 0.48417 0.89862 0.0
H1308 H 0.19631 0.55374 0.84087 0.0
C1309 C 0.07189 0.45501 0.84001 0.0
C1310 C 0.05469 0.42629 0.8554 0.0
C1311 C 0.07953 0.4024 0.87014 0.0
C1312 C 0.12035 0.41 0.87152 0.0
C1313 C 0.13595 0.4409 0.85764 0.0
C1314 C 0.11258 0.46237 0.8416 0.0
C1315 C 0.13432 0.49835 0.83207 0.0
C1316 C 0.14387 0.4937 0.80479 0.0
C1317 C 0.11088 0.53674 0.83689 0.0
C1318 C 0.17161 0.49623 0.84731 0.0
C1319 C 0.17285 0.46216 0.86126 0.0
C1320 C 0.20156 0.45674 0.87935 0.0
C1321 C 0.22879 0.48737 0.88378 0.0
C1322 C 0.2265 0.52313 0.87045 0.0
C1323 C 0.19872 0.52666 0.85132 0.0
H1324 H 0.7099 0.69317 0.86283 0.0
H1325 H 0.75151 0.72896 0.93447 0.0
H1326 H 0.78226 0.66344 0.94013 0.0
H1327 H 0.69441 0.5849 0.87693 0.0
H1328 H 0.71279 0.57063 0.84732 0.0
H1329 H 0.68688 0.61684 0.85098 0.0
H1330 H 0.74675 0.65409 0.83216 0.0
H1331 H 0.77295 0.60824 0.82863 0.0
H1332 H 0.79522 0.6482 0.84558 0.0
H1333 H 0.81732 0.60012 0.93539 0.0
H1334 H 0.85486 0.54247 0.92069 0.0
H1335 H 0.79136 0.5469 0.85185 0.0
C1336 C 0.72416 0.68664 0.88009 0.0
C1337 C 0.72799 0.71587 0.89836 0.0
C1338 C 0.74809 0.70683 0.92034 0.0
C1339 C 0.76544 0.66966 0.92375 0.0
C1340 C 0.76235 0.64195 0.90502 0.0
C1341 C 0.74204 0.64985 0.88365 0.0
C1342 C 0.74761 0.61706 0.86512 0.0
C1343 C 0.70806 0.59611 0.85978 0.0
C1344 C 0.76678 0.63285 0.8415 0.0
C1345 C 0.77562 0.59031 0.87902 0.0
C1346 C 0.78313 0.60497 0.90215 0.0
C1347 C 0.81104 0.58783 0.91757 0.0
C1348 C 0.83237 0.5553 0.90899 0.0
C1349 C 0.82571 0.54024 0.88522 0.0
C1350 C 0.79629 0.55735 0.87029 0.0
H1351 H 0.71171 0.52473 0.61155 0.0
H1352 H 0.71187 0.59411 0.67799 0.0
H1353 H 0.65325 0.55759 0.69275 0.0
H1354 H 0.61375 0.52985 0.60203 0.0
H1355 H 0.60632 0.4808 0.59003 0.0
H1356 H 0.65404 0.50404 0.58744 0.0
H1357 H 0.68678 0.44475 0.60965 0.0
H1358 H 0.63896 0.42109 0.61217 0.0
H1359 H 0.66846 0.4295 0.63913 0.0
H1360 H 0.58776 0.52614 0.69602 0.0
H1361 H 0.52061 0.49983 0.68806 0.0
H1362 H 0.56195 0.44935 0.61995 0.0
C1363 C 0.70043 0.53069 0.62969 0.0
C1364 C 0.71641 0.56163 0.64386 0.0
C1365 C 0.70008 0.57012 0.66705 0.0
C1366 C 0.66694 0.54944 0.67561 0.0
C1367 C 0.6505 0.52033 0.66075 0.0
C1368 C 0.66688 0.51057 0.63836 0.0
C1369 C 0.64002 0.48266 0.62435 0.0
C1370 C 0.62782 0.50042 0.59952 0.0
C1371 C 0.65974 0.44209 0.62115 0.0
C1372 C 0.60514 0.4802 0.64172 0.0
C1373 C 0.61209 0.50155 0.66281 0.0
C1374 C 0.58234 0.50822 0.68 0.0
C1375 C 0.54428 0.49338 0.6753 0.0
C1376 C 0.53648 0.47202 0.65365 0.0
C1377 C 0.56757 0.46441 0.63706 0.0
H1378 H 0.80639 0.30992 0.35104 0.0
H1379 H 0.80423 0.29857 0.42972 0.0
H1380 H 0.79192 0.37033 0.43355 0.0
H1381 H 0.84349 0.41808 0.34762 0.0
H1382 H 0.81022 0.42787 0.32257 0.0
H1383 H 0.83219 0.37958 0.32595 0.0
H1384 H 0.76231 0.34769 0.32562 0.0
H1385 H 0.74029 0.39551 0.32215 0.0
H1386 H 0.72568 0.36425 0.34729 0.0
H1387 H 0.76517 0.43674 0.42908 0.0
H1388 H 0.71939 0.48996 0.41704 0.0
H1389 H 0.73516 0.45944 0.34101 0.0
C1390 C 0.80514 0.32318 0.36903 0.0
C1391 C 0.80693 0.29944 0.39014 0.0
C1392 C 0.80336 0.31677 0.41344 0.0
C1393 C 0.79678 0.35746 0.41572 0.0
C1394 C 0.79349 0.38013 0.3945 0.0
C1395 C 0.79745 0.36357 0.37152 0.0
C1396 C 0.78424 0.39199 0.35173 0.0
C1397 C 0.81966 0.40517 0.33604 0.0
C1398 C 0.75116 0.37378 0.3358 0.0
C1399 C 0.76909 0.42582 0.36723 0.0
C1400 C 0.77643 0.41909 0.39179 0.0
C1401 C 0.76038 0.44305 0.40994 0.0
C1402 C 0.73449 0.47324 0.40297 0.0
C1403 C 0.72489 0.47906 0.37813 0.0
C1404 C 0.74366 0.45638 0.35999 0.0
H1405 H 0.81806 0.40149 0.15326 0.0
H1406 H 0.74824 0.4924 0.11754 0.0
H1407 H 0.79938 0.54189 0.12797 0.0
H1408 H 0.86367 0.46746 0.20198 0.0
H1409 H 0.91007 0.44133 0.19976 0.0
H1410 H 0.86395 0.41544 0.19482 0.0
H1411 H 0.88901 0.39207 0.15246 0.0
H1412 H 0.93495 0.41761 0.15731 0.0
H1413 H 0.90567 0.42834 0.13058 0.0
H1414 H 0.8632 0.57764 0.13447 0.0
H1415 H 0.93408 0.5955 0.13515 0.0
H1416 H 0.96153 0.48162 0.16757 0.0
C1417 C 0.81294 0.43201 0.14819 0.0
C1418 C 0.77927 0.44304 0.1345 0.0
C1419 C 0.77378 0.48325 0.12811 0.0
C1420 C 0.80255 0.51164 0.1341 0.0
C1421 C 0.83617 0.49944 0.14687 0.0
C1422 C 0.8412 0.46058 0.15409 0.0
C1423 C 0.88208 0.45366 0.16453 0.0
C1424 C 0.87979 0.44391 0.1919 0.0
C1425 C 0.9042 0.42104 0.15036 0.0
C1426 C 0.90035 0.49392 0.16036 0.0
C1427 C 0.87314 0.52032 0.15083 0.0
C1428 C 0.88453 0.55762 0.14251 0.0
C1429 C 0.92495 0.56748 0.14293 0.0
C1430 C 0.95345 0.53986 0.15131 0.0
C1431 C 0.94053 0.50356 0.16127 0.0
H1432 H 0.81831 0.81237 0.65055 0.0
H1433 H 0.8054 0.7929 0.57294 0.0
H1434 H 0.78191 0.86146 0.56773 0.0
H1435 H 0.7321 0.85309 0.65798 0.0
H1436 H 0.7444 0.88942 0.68084 0.0
H1437 H 0.77416 0.84586 0.67783 0.0
H1438 H 0.83711 0.8886 0.67159 0.0
H1439 H 0.80759 0.93268 0.67502 0.0
H1440 H 0.83784 0.92612 0.6482 0.0
H1441 H 0.74346 0.92164 0.57211 0.0
H1442 H 0.69323 0.96973 0.58549 0.0
H1443 H 0.72796 0.95166 0.6608 0.0
C1444 C 0.81292 0.82367 0.63234 0.0
C1445 C 0.81469 0.79829 0.61199 0.0
C1446 C 0.80514 0.8126 0.58853 0.0
C1447 C 0.79185 0.85146 0.58547 0.0
C1448 C 0.78795 0.87528 0.60613 0.0
C1449 C 0.79858 0.86212 0.62917 0.0
C1450 C 0.78377 0.88996 0.64886 0.0
C1451 C 0.75702 0.86828 0.66743 0.0
C1452 C 0.81866 0.91058 0.66167 0.0
C1453 C 0.76041 0.91897 0.63347 0.0
C1454 C 0.76435 0.91064 0.60882 0.0
C1455 C 0.74119 0.92936 0.59123 0.0
C1456 C 0.71257 0.95639 0.59898 0.0
C1457 C 0.70739 0.96452 0.62408 0.0
C1458 C 0.73245 0.94669 0.64147 0.0
H1459 H 0.77093 0.98945 0.9103 0.0
H1460 H 0.7492 0.95674 0.8352 0.0
H1461 H 0.80278 0.00131 0.82172 0.0
H1462 H 0.81233 0.09658 0.89669 0.0
H1463 H 0.84831 0.09041 0.92074 0.0
H1464 H 0.79957 0.06881 0.92369 0.0
H1465 H 0.83175 0.00048 0.93132 0.0
H1466 H 0.88023 0.02146 0.92797 0.0
H1467 H 0.86544 0.98058 0.90891 0.0
H1468 H 0.86923 0.02822 0.81788 0.0
H1469 H 0.94068 0.04142 0.82368 0.0
H1470 H 0.92097 0.06027 0.90085 0.0
C1471 C 0.77595 0.99401 0.89097 0.0
C1472 C 0.75576 0.97078 0.87365 0.0
C1473 C 0.76404 0.97522 0.84855 0.0
C1474 C 0.79439 0.00048 0.84078 0.0
C1475 C 0.81602 0.02101 0.8584 0.0
C1476 C 0.80663 0.01885 0.88302 0.0
C1477 C 0.83888 0.03749 0.89854 0.0
C1478 C 0.82387 0.0756 0.91062 0.0
C1479 C 0.85501 0.00824 0.91777 0.0
C1480 C 0.86945 0.04663 0.87908 0.0
C1481 C 0.85525 0.0379 0.85598 0.0
C1482 C 0.8802 0.0369 0.83566 0.0
C1483 C 0.92071 0.0441 0.83909 0.0
C1484 C 0.93563 0.05264 0.86257 0.0
C1485 C 0.90961 0.05528 0.88261 0.0
H1486 H 0.82678 0.05956 0.10442 0.0
H1487 H 0.74487 -4e-05 0.15321 0.0
H1488 H 0.69344 0.04954 0.1432 0.0
H1489 H 0.80722 0.15095 0.12214 0.0
H1490 H 0.81168 0.17439 0.09268 0.0
H1491 H 0.83739 0.12909 0.09857 0.0
H1492 H 0.80313 0.09685 0.06111 0.0
H1493 H 0.77704 0.14236 0.05516 0.0
H1494 H 0.74978 0.09686 0.05894 0.0
H1495 H 0.65712 0.1125 0.1349 0.0
H1496 H 0.64082 0.18312 0.13102 0.0
H1497 H 0.74655 0.20115 0.0872 0.0
C1498 C 0.79766 0.05627 0.11252 0.0
C1499 C 0.78981 0.02616 0.12971 0.0
C1500 C 0.75141 0.02277 0.13991 0.0
C1501 C 0.722 0.05067 0.1342 0.0
C1502 C 0.73131 0.08107 0.11788 0.0
C1503 C 0.76819 0.08364 0.10697 0.0
C1504 C 0.77318 0.12187 0.09299 0.0
C1505 C 0.80946 0.14544 0.10217 0.0
C1506 C 0.77593 0.114 0.06541 0.0
C1507 C 0.73464 0.14202 0.09939 0.0
C1508 C 0.71025 0.11758 0.11306 0.0
C1509 C 0.67548 0.13155 0.12372 0.0
C1510 C 0.66649 0.17185 0.12143 0.0
C1511 C 0.69261 0.19782 0.10893 0.0
C1512 C 0.72581 0.18208 0.09668 0.0
H1513 H 0.53441 0.01381 0.34122 0.0
H1514 H 0.55298 0.90639 0.38308 0.0
H1515 H 0.62346 0.92412 0.38829 0.0
H1516 H 0.63665 0.01924 0.31278 0.0
H1517 H 0.63716 0.07231 0.31575 0.0
H1518 H 0.59099 0.04666 0.31053 0.0
H1519 H 0.56149 0.07952 0.34919 0.0
H1520 H 0.6075 0.10475 0.35474 0.0
H1521 H 0.58643 0.07353 0.37809 0.0
H1522 H 0.6885 0.9594 0.39525 0.0
H1523 H 0.74186 0.00836 0.40245 0.0
H1524 H 0.67971 0.09249 0.35642 0.0
C1525 C 0.55355 0.99315 0.35065 0.0
C1526 C 0.53806 0.95863 0.36165 0.0
C1527 C 0.5641 0.93293 0.37435 0.0
C1528 C 0.60428 0.94273 0.37739 0.0
C1529 C 0.61809 0.97808 0.36741 0.0
C1530 C 0.59355 0.00261 0.35398 0.0
C1531 C 0.61397 0.04118 0.34777 0.0
C1532 C 0.62006 0.04506 0.32006 0.0
C1533 C 0.59098 0.07681 0.35808 0.0
C1534 C 0.65302 0.03539 0.36084 0.0
C1535 C 0.65532 -0.00143 0.37166 0.0
C1536 C 0.68737 0.98802 0.38642 0.0
C1537 C 0.71751 0.01605 0.39047 0.0
C1538 C 0.71501 0.05434 0.38007 0.0
C1539 C 0.6827 0.06351 0.36463 0.0
H1540 H 0.16505 0.17546 0.3591 0.0
H1541 H 0.18887 0.20166 0.4349 0.0
H1542 H 0.21829 0.13563 0.44031 0.0
H1543 H 0.15584 0.05957 0.36618 0.0
H1544 H 0.18134 0.05363 0.3375 0.0
H1545 H 0.1482 0.09482 0.34192 0.0
H1546 H 0.20488 0.14251 0.32968 0.0
H1547 H 0.23856 0.10205 0.32602 0.0
H1548 H 0.25072 0.14176 0.34666 0.0
H1549 H 0.2636 0.08073 0.43433 0.0
H1550 H 0.31498 0.03564 0.41863 0.0
H1551 H 0.26336 0.04265 0.34632 0.0
C1552 C 0.17374 0.16581 0.37719 0.0
C1553 C 0.17377 0.19267 0.39681 0.0
C1554 C 0.18761 0.1807 0.41996 0.0
C1555 C 0.20452 0.14333 0.4231 0.0
C1556 C 0.20735 0.11852 0.40285 0.0
C1557 C 0.19143 0.12876 0.38039 0.0
C1558 C 0.20532 0.10078 0.36053 0.0
C1559 C 0.1706 0.0757 0.35097 0.0
C1560 C 0.22611 0.12313 0.33953 0.0
C1561 C 0.23429 0.0757 0.37485 0.0
C1562 C 0.23428 0.08581 0.39933 0.0
C1563 C 0.26283 0.0714 0.41544 0.0
C1564 C 0.29218 0.04626 0.40633 0.0
C1565 C 0.29265 0.03565 0.38138 0.0
C1566 C 0.26282 0.04969 0.3656 0.0
H1567 H 0.05653 0.94451 0.11003 0.0
H1568 H 0.03529 0.97614 0.18554 0.0
H1569 H 0.10476 -0.00165 0.1894 0.0
H1570 H 0.16745 0.91927 0.11621 0.0
H1571 H 0.1775 0.942 0.08707 0.0
H1572 H 0.1308 0.91728 0.09226 0.0
H1573 H 0.0935 0.98102 0.07968 0.0
H1574 H 0.13976 0.00598 0.07471 0.0
H1575 H 0.10394 0.02658 0.09553 0.0
H1576 H 0.16855 0.03112 0.18265 0.0
H1577 H 0.22193 0.07295 0.16569 0.0
H1578 H 0.20297 0.02188 0.09421 0.0
C1579 C 0.06718 0.95425 0.12769 0.0
C1580 C 0.04095 0.95814 0.14761 0.0
C1581 C 0.05519 0.97264 0.17017 0.0
C1582 C 0.09463 0.98506 0.17254 0.0
C1583 C 0.11934 0.98281 0.15216 0.0
C1584 C 0.10627 0.96749 0.13016 0.0
C1585 C 0.136 0.97507 0.10992 0.0
C1586 C 0.15401 0.93608 0.10084 0.0
C1587 C 0.11717 -0.00143 0.08875 0.0
C1588 C 0.16645 -0.00053 0.12357 0.0
C1589 C 0.15684 0.00252 0.14809 0.0
C1590 C 0.17721 0.02789 0.16374 0.0
C1591 C 0.20733 0.05158 0.15398 0.0
C1592 C 0.21676 0.04961 0.1289 0.0
C1593 C 0.19701 0.02253 0.11364 0.0
H1594 H 0.19894 0.9446 0.84496 0.0
H1595 H 0.15628 0.9554 0.91932 0.0
H1596 H 0.19802 0.89921 0.93173 0.0
H1597 H 0.19289 0.84503 0.84217 0.0
H1598 H 0.23675 0.83643 0.82414 0.0
H1599 H 0.21148 0.88299 0.82203 0.0
H1600 H 0.27646 0.91981 0.83327 0.0
H1601 H 0.302 0.87312 0.83531 0.0
H1602 H 0.30259 0.90672 0.86083 0.0
H1603 H 0.23189 0.83558 0.9345 0.0
H1604 H 0.25755 0.76828 0.92752 0.0
H1605 H 0.28018 0.79741 0.85169 0.0
C1606 C 0.19979 0.93602 0.86401 0.0
C1607 C 0.17482 0.95433 0.88128 0.0
C1608 C 0.17539 0.94166 0.90589 0.0
C1609 C 0.19918 0.90999 0.91313 0.0
C1610 C 0.2223 0.89137 0.89554 0.0
C1611 C 0.22316 0.904 0.87149 0.0
C1612 C 0.24621 0.87539 0.85564 0.0
C1613 C 0.22027 0.859 0.83479 0.0
C1614 C 0.28407 0.89493 0.84568 0.0
C1615 C 0.25602 0.84369 0.87425 0.0
C1616 C 0.24261 0.85397 0.89724 0.0
C1617 C 0.24363 0.8276 0.91679 0.0
C1618 C 0.25799 0.78944 0.91266 0.0
C1619 C 0.27127 0.77816 0.88921 0.0
C1620 C 0.2713 0.80591 0.86995 0.0
H1621 H 0.30723 0.89474 0.65306 0.0
H1622 H 0.23899 0.98754 0.61803 0.0
H1623 H 0.29509 0.03374 0.6238 0.0
H1624 H 0.36615 0.96024 0.69609 0.0
H1625 H 0.40965 0.93013 0.6918 0.0
H1626 H 0.36102 0.90789 0.69074 0.0
H1627 H 0.37691 0.8793 0.64797 0.0
H1628 H 0.42516 0.90172 0.64871 0.0
H1629 H 0.39187 0.91239 0.62381 0.0
H1630 H 0.36227 0.06518 0.62592 0.0
H1631 H 0.43385 0.07942 0.62429 0.0
H1632 H 0.45846 0.96497 0.65688 0.0
C1633 C 0.30344 0.92513 0.64729 0.0
C1634 C 0.26871 0.93749 0.63503 0.0
C1635 C 0.26517 0.97744 0.62762 0.0
C1636 C 0.2969 0.0039 0.63086 0.0
C1637 C 0.33159 0.99003 0.64182 0.0
C1638 C 0.33477 0.95163 0.65022 0.0
C1639 C 0.37667 0.94212 0.65819 0.0
C1640 C 0.37847 0.93467 0.68585 0.0
C1641 C 0.39362 0.90683 0.6438 0.0
C1642 C 0.39724 0.98032 0.6515 0.0
C1643 C 0.37061 0.00798 0.64271 0.0
C1644 C 0.38323 0.0441 0.63326 0.0
C1645 C 0.42406 0.0518 0.63231 0.0
C1646 C 0.4519 0.02323 0.64042 0.0
C1647 C 0.43804 0.98756 0.65074 0.0
loop_
_geom_bond_atom_site_label_1
_geom_bond_atom_site_label_2
_geom_bond_distance
_geom_bond_site_symmetry_2
_ccdc_geom_bond_type
Sc0 O3 2.025 . S
Sc0 O10 2.105 . S
Sc0 O13 2.105 . S
Sc0 O16 2.105 . S
Sc0 O19 2.105 . S
Sc1 O3 2.025 . S
Sc1 O11 2.105 . S
Sc1 O15 2.105 . S
Sc1 O17 2.105 . S
Sc1 O21 2.105 . S
Sc2 O3 2.025 . S
Sc2 O12 2.105 . S
Sc2 O14 2.105 . S
Sc2 O18 2.105 . S
Sc2 O20 2.105 . S
O3 Sc0 2.025 . S
O3 Sc1 2.025 . S
O3 Sc2 2.025 . S
C4 O10 1.268 . S
C4 O20 1.268 . S
C5 O11 1.268 . S
C5 O19 1.268 . S
C6 O12 1.268 . S
C6 O21 1.268 . S
C7 O13 1.268 . S
C7 O17 1.268 . S
C8 O14 1.268 . S
C8 O16 1.268 . S
C9 O15 1.268 . S
C9 O18 1.268 . S
O10 Sc0 2.105 . S
O10 C4 1.268 . S
O11 Sc1 2.105 . S
O11 C5 1.268 . S
O12 Sc2 2.105 . S
O12 C6 1.268 . S
O13 Sc0 2.105 . S
O13 C7 1.268 . S
O14 Sc2 2.105 . S
O14 C8 1.268 . S
O15 Sc1 2.105 . S
O15 C9 1.268 . S
O16 Sc0 2.105 . S
O16 C8 1.268 . S
O17 Sc1 2.105 . S
O17 C7 1.268 . S
O18 Sc2 2.105 . S
O18 C9 1.268 . S
O19 Sc0 2.105 . S
O19 C5 1.268 . S
O20 Sc2 2.105 . S
O20 C4 1.268 . S
O21 Sc1 2.105 . S
O21 C6 1.268 . S
Sc22 O25 2.025 . S
Sc22 O32 2.105 . S
Sc22 O35 2.105 . S
Sc22 O38 2.105 . S
Sc22 O41 2.105 . S
Sc23 O25 2.025 . S
Sc23 O33 2.105 . S
Sc23 O37 2.105 . S
Sc23 O39 2.105 . S
Sc23 O43 2.105 . S
Sc24 O25 2.025 . S
Sc24 O34 2.105 . S
Sc24 O36 2.105 . S
Sc24 O40 2.105 . S
Sc24 O42 2.105 . S
O25 Sc22 2.025 . S
O25 Sc23 2.025 . S
O25 Sc24 2.025 . S
C26 O32 1.268 . S
C26 O42 1.268 . S
C27 O33 1.268 . S
C27 O41 1.268 . S
C28 O34 1.268 . S
C28 O43 1.268 . S
C29 O35 1.268 . S
C29 O39 1.268 . S
C30 O36 1.268 . S
C30 O38 1.268 . S
C31 O37 1.268 . S
C31 O40 1.268 . S
O32 Sc22 2.105 . S
O32 C26 1.268 . S
O33 Sc23 2.105 . S
O33 C27 1.268 . S
O34 Sc24 2.105 . S
O34 C28 1.268 . S
O35 Sc22 2.105 . S
O35 C29 1.268 . S
O36 Sc24 2.105 . S
O36 C30 1.268 . S
O37 Sc23 2.105 . S
O37 C31 1.268 . S
O38 Sc22 2.105 . S
O38 C30 1.268 . S
O39 Sc23 2.105 . S
O39 C29 1.268 . S
O40 Sc24 2.105 . S
O40 C31 1.268 . S
O41 Sc22 2.105 . S
O41 C27 1.268 . S
O42 Sc24 2.105 . S
O42 C26 1.268 . S
O43 Sc23 2.105 . S
O43 C28 1.268 . S
Sc44 O47 2.025 . S
Sc44 O54 2.105 . S
Sc44 O57 2.105 . S
Sc44 O60 2.105 . S
Sc44 O63 2.105 . S
Sc45 O47 2.025 . S
Sc45 O55 2.105 . S
Sc45 O59 2.105 . S
Sc45 O61 2.105 . S
Sc45 O65 2.105 . S
Sc46 O47 2.025 . S
Sc46 O56 2.105 . S
Sc46 O58 2.105 . S
Sc46 O62 2.105 . S
Sc46 O64 2.105 . S
O47 Sc44 2.025 . S
O47 Sc45 2.025 . S
O47 Sc46 2.025 . S
C48 O54 1.268 . S
C48 O64 1.268 . S
C49 O55 1.268 . S
C49 O63 1.268 . S
C50 O56 1.268 . S
C50 O65 1.268 . S
C51 O57 1.268 . S
C51 O61 1.268 . S
C52 O58 1.268 . S
C52 O60 1.268 . S
C53 O59 1.268 . S
C53 O62 1.268 . S
O54 Sc44 2.105 . S
O54 C48 1.268 . S
O55 Sc45 2.105 . S
O55 C49 1.268 . S
O56 Sc46 2.105 . S
O56 C50 1.268 . S
O57 Sc44 2.105 . S
O57 C51 1.268 . S
O58 Sc46 2.105 . S
O58 C52 1.268 . S
O59 Sc45 2.105 . S
O59 C53 1.268 . S
O60 Sc44 2.105 . S
O60 C52 1.268 . S
O61 Sc45 2.105 . S
O61 C51 1.268 . S
O62 Sc46 2.105 . S
O62 C53 1.268 . S
O63 Sc44 2.105 . S
O63 C49 1.268 . S
O64 Sc46 2.105 . S
O64 C48 1.268 . S
O65 Sc45 2.105 . S
O65 C50 1.268 . S
Sc66 O69 2.025 . S
Sc66 O76 2.105 . S
Sc66 O79 2.105 . S
Sc66 O82 2.105 . S
Sc66 O85 2.105 . S
Sc67 O69 2.025 . S
Sc67 O77 2.105 . S
Sc67 O81 2.105 . S
Sc67 O83 2.105 . S
Sc67 O87 2.105 . S
Sc68 O69 2.025 . S
Sc68 O78 2.105 . S
Sc68 O80 2.105 . S
Sc68 O84 2.105 . S
Sc68 O86 2.105 . S
O69 Sc66 2.025 . S
O69 Sc67 2.025 . S
O69 Sc68 2.025 . S
C70 O76 1.268 . S
C70 O86 1.268 . S
C71 O77 1.268 . S
C71 O85 1.268 . S
C72 O78 1.268 . S
C72 O87 1.268 . S
C73 O79 1.268 . S
C73 O83 1.268 . S
C74 O80 1.268 . S
C74 O82 1.268 . S
C75 O81 1.268 1_455 S
C75 O84 1.268 1_455 S
O76 Sc66 2.105 . S
O76 C70 1.268 . S
O77 Sc67 2.105 . S
O77 C71 1.268 . S
O78 Sc68 2.105 . S
O78 C72 1.268 . S
O79 Sc66 2.105 . S
O79 C73 1.268 . S
O80 Sc68 2.105 . S
O80 C74 1.268 . S
O81 Sc67 2.105 . S
O81 C75 1.268 1_655 S
O82 Sc66 2.105 . S
O82 C74 1.268 . S
O83 Sc67 2.105 . S
O83 C73 1.268 . S
O84 Sc68 2.105 . S
O84 C75 1.268 1_655 S
O85 Sc66 2.105 . S
O85 C71 1.268 . S
O86 Sc68 2.105 . S
O86 C70 1.268 . S
O87 Sc67 2.105 . S
O87 C72 1.268 . S
Sc88 O91 2.025 . S
Sc88 O98 2.105 . S
Sc88 O101 2.105 . S
Sc88 O104 2.105 . S
Sc88 O107 2.105 . S
Sc89 O91 2.025 . S
Sc89 O99 2.105 . S
Sc89 O103 2.105 . S
Sc89 O105 2.105 . S
Sc89 O109 2.105 . S
Sc90 O91 2.025 . S
Sc90 O100 2.105 . S
Sc90 O102 2.105 . S
Sc90 O106 2.105 . S
Sc90 O108 2.105 . S
O91 Sc88 2.025 . S
O91 Sc89 2.025 . S
O91 Sc90 2.025 . S
C92 O98 1.268 . S
C92 O108 1.268 . S
C93 O99 1.268 . S
C93 O107 1.268 . S
C94 O100 1.268 . S
C94 O109 1.268 . S
C95 O101 1.268 . S
C95 O105 1.268 . S
C96 O102 1.268 . S
C96 O104 1.268 . S
C97 O103 1.268 . S
C97 O106 1.268 . S
O98 Sc88 2.105 . S
O98 C92 1.268 . S
O99 Sc89 2.105 . S
O99 C93 1.268 . S
O100 Sc90 2.105 . S
O100 C94 1.268 . S
O101 Sc88 2.105 . S
O101 C95 1.268 . S
O102 Sc90 2.105 . S
O102 C96 1.268 . S
O103 Sc89 2.105 . S
O103 C97 1.268 . S
O104 Sc88 2.105 . S
O104 C96 1.268 . S
O105 Sc89 2.105 . S
O105 C95 1.268 . S
O106 Sc90 2.105 . S
O106 C97 1.268 . S
O107 Sc88 2.105 . S
O107 C93 1.268 . S
O108 Sc90 2.105 . S
O108 C92 1.268 . S
O109 Sc89 2.105 . S
O109 C94 1.268 . S
Sc110 O113 2.025 . S
Sc110 O120 2.105 . S
Sc110 O123 2.105 . S
Sc110 O126 2.105 . S
Sc110 O129 2.105 . S
Sc111 O113 2.025 . S
Sc111 O121 2.105 . S
Sc111 O125 2.105 . S
Sc111 O127 2.105 . S
Sc111 O131 2.105 . S
Sc112 O113 2.025 . S
Sc112 O122 2.105 . S
Sc112 O124 2.105 . S
Sc112 O128 2.105 . S
Sc112 O130 2.105 . S
O113 Sc110 2.025 . S
O113 Sc111 2.025 . S
O113 Sc112 2.025 . S
C114 O120 1.268 . S
C114 O130 1.268 . S
C115 O121 1.268 . S
C115 O129 1.268 . S
C116 O122 1.268 . S
C116 O131 1.268 . S
C117 O123 1.268 . S
C117 O127 1.268 . S
C118 O124 1.268 . S
C118 O126 1.268 . S
C119 O125 1.268 . S
C119 O128 1.268 . S
O120 Sc110 2.105 . S
O120 C114 1.268 . S
O121 Sc111 2.105 . S
O121 C115 1.268 . S
O122 Sc112 2.105 . S
O122 C116 1.268 . S
O123 Sc110 2.105 . S
O123 C117 1.268 . S
O124 Sc112 2.105 . S
O124 C118 1.268 . S
O125 Sc111 2.105 . S
O125 C119 1.268 . S
O126 Sc110 2.105 . S
O126 C118 1.268 . S
O127 Sc111 2.105 . S
O127 C117 1.268 . S
O128 Sc112 2.105 . S
O128 C119 1.268 . S
O129 Sc110 2.105 . S
O129 C115 1.268 . S
O130 Sc112 2.105 . S
O130 C114 1.268 . S
O131 Sc111 2.105 . S
O131 C116 1.268 . S
Sc132 O135 2.025 . S
Sc132 O142 2.105 . S
Sc132 O145 2.105 . S
Sc132 O148 2.105 . S
Sc132 O151 2.105 . S
Sc133 O135 2.025 . S
Sc133 O143 2.105 . S
Sc133 O147 2.105 . S
Sc133 O149 2.105 . S
Sc133 O153 2.105 . S
Sc134 O135 2.025 . S
Sc134 O144 2.105 . S
Sc134 O146 2.105 . S
Sc134 O150 2.105 . S
Sc134 O152 2.105 . S
O135 Sc132 2.025 . S
O135 Sc133 2.025 . S
O135 Sc134 2.025 . S
C136 O142 1.268 . S
C136 O152 1.268 . S
C137 O143 1.268 . S
C137 O151 1.268 . S
C138 O144 1.268 . S
C138 O153 1.268 . S
C139 O145 1.268 . S
C139 O149 1.268 . S
C140 O146 1.268 . S
C140 O148 1.268 . S
C141 O147 1.268 . S
C141 O150 1.268 . S
O142 Sc132 2.105 . S
O142 C136 1.268 . S
O143 Sc133 2.105 . S
O143 C137 1.268 . S
O144 Sc134 2.105 . S
O144 C138 1.268 . S
O145 Sc132 2.105 . S
O145 C139 1.268 . S
O146 Sc134 2.105 . S
O146 C140 1.268 . S
O147 Sc133 2.105 . S
O147 C141 1.268 . S
O148 Sc132 2.105 . S
O148 C140 1.268 . S
O149 Sc133 2.105 . S
O149 C139 1.268 . S
O150 Sc134 2.105 . S
O150 C141 1.268 . S
O151 Sc132 2.105 . S
O151 C137 1.268 . S
O152 Sc134 2.105 . S
O152 C136 1.268 . S
O153 Sc133 2.105 . S
O153 C138 1.268 . S
Sc154 O157 2.025 . S
Sc154 O164 2.105 . S
Sc154 O167 2.105 . S
Sc154 O170 2.105 . S
Sc154 O173 2.105 . S
Sc155 O157 2.025 . S
Sc155 O165 2.105 . S
Sc155 O169 2.105 . S
Sc155 O171 2.105 . S
Sc155 O175 2.105 . S
Sc156 O157 2.025 . S
Sc156 O166 2.105 . S
Sc156 O168 2.105 . S
Sc156 O172 2.105 . S
Sc156 O174 2.105 . S
O157 Sc154 2.025 . S
O157 Sc155 2.025 . S
O157 Sc156 2.025 . S
C158 O164 1.268 . S
C158 O174 1.268 . S
C159 O165 1.268 . S
C159 O173 1.268 . S
C160 O166 1.268 . S
C160 O175 1.268 . S
C161 O167 1.268 1_655 S
C161 O171 1.268 1_655 S
C162 O168 1.268 . S
C162 O170 1.268 . S
C163 O169 1.268 . S
C163 O172 1.268 . S
O164 Sc154 2.105 . S
O164 C158 1.268 . S
O165 Sc155 2.105 . S
O165 C159 1.268 . S
O166 Sc156 2.105 . S
O166 C160 1.268 . S
O167 Sc154 2.105 . S
O167 C161 1.268 1_455 S
O168 Sc156 2.105 . S
O168 C162 1.268 . S
O169 Sc155 2.105 . S
O169 C163 1.268 . S
O170 Sc154 2.105 . S
O170 C162 1.268 . S
O171 Sc155 2.105 . S
O171 C161 1.268 1_455 S
O172 Sc156 2.105 . S
O172 C163 1.268 . S
O173 Sc154 2.105 . S
O173 C159 1.268 . S
O174 Sc156 2.105 . S
O174 C158 1.268 . S
O175 Sc155 2.105 . S
O175 C160 1.268 . S
Sc176 O179 2.025 . S
Sc176 O186 2.105 . S
Sc176 O189 2.105 . S
Sc176 O192 2.105 . S
Sc176 O195 2.105 . S
Sc177 O179 2.025 . S
Sc177 O187 2.105 . S
Sc177 O191 2.105 . S
Sc177 O193 2.105 . S
Sc177 O197 2.105 . S
Sc178 O179 2.025 . S
Sc178 O188 2.105 . S
Sc178 O190 2.105 . S
Sc178 O194 2.105 . S
Sc178 O196 2.105 . S
O179 Sc176 2.025 . S
O179 Sc177 2.025 . S
O179 Sc178 2.025 . S
C180 O186 1.268 . S
C180 O196 1.268 . S
C181 O187 1.268 . S
C181 O195 1.268 . S
C182 O188 1.268 . S
C182 O197 1.268 . S
C183 O189 1.268 . S
C183 O193 1.268 . S
C184 O190 1.268 . S
C184 O192 1.268 . S
C185 O191 1.268 . S
C185 O194 1.268 . S
O186 Sc176 2.105 . S
O186 C180 1.268 . S
O187 Sc177 2.105 . S
O187 C181 1.268 . S
O188 Sc178 2.105 . S
O188 C182 1.268 . S
O189 Sc176 2.105 . S
O189 C183 1.268 . S
O190 Sc178 2.105 . S
O190 C184 1.268 . S
O191 Sc177 2.105 . S
O191 C185 1.268 . S
O192 Sc176 2.105 . S
O192 C184 1.268 . S
O193 Sc177 2.105 . S
O193 C183 1.268 . S
O194 Sc178 2.105 . S
O194 C185 1.268 . S
O195 Sc176 2.105 . S
O195 C181 1.268 . S
O196 Sc178 2.105 . S
O196 C180 1.268 . S
O197 Sc177 2.105 . S
O197 C182 1.268 . S
Sc198 O201 2.025 . S
Sc198 O208 2.105 . S
Sc198 O211 2.105 . S
Sc198 O214 2.105 . S
Sc198 O217 2.105 . S
Sc199 O201 2.025 . S
Sc199 O209 2.105 . S
Sc199 O213 2.105 1_545 S
Sc199 O215 2.105 . S
Sc199 O219 2.105 . S
Sc200 O201 2.025 . S
Sc200 O210 2.105 . S
Sc200 O212 2.105 . S
Sc200 O216 2.105 . S
Sc200 O218 2.105 . S
O201 Sc198 2.025 . S
O201 Sc199 2.025 . S
O201 Sc200 2.025 . S
C202 O208 1.268 . S
C202 O218 1.268 . S
C203 O209 1.268 1_655 S
C203 O217 1.268 1_655 S
C204 O210 1.268 . S
C204 O219 1.268 . S
C205 O211 1.268 . S
C205 O215 1.268 . S
C206 O212 1.268 . S
C206 O214 1.268 . S
C207 O213 1.268 1_545 S
C207 O216 1.268 . S
O208 Sc198 2.105 . S
O208 C202 1.268 . S
O209 Sc199 2.105 . S
O209 C203 1.268 1_455 S
O210 Sc200 2.105 . S
O210 C204 1.268 . S
O211 Sc198 2.105 . S
O211 C205 1.268 . S
O212 Sc200 2.105 . S
O212 C206 1.268 . S
O213 Sc199 2.105 1_565 S
O213 C207 1.268 1_565 S
O214 Sc198 2.105 . S
O214 C206 1.268 . S
O215 Sc199 2.105 . S
O215 C205 1.268 . S
O216 Sc200 2.105 . S
O216 C207 1.268 . S
O217 Sc198 2.105 . S
O217 C203 1.268 1_455 S
O218 Sc200 2.105 . S
O218 C202 1.268 . S
O219 Sc199 2.105 . S
O219 C204 1.268 . S
Sc220 O223 2.025 . S
Sc220 O230 2.105 . S
Sc220 O233 2.105 . S
Sc220 O236 2.105 . S
Sc220 O239 2.105 . S
Sc221 O223 2.025 . S
Sc221 O231 2.105 . S
Sc221 O235 2.105 . S
Sc221 O237 2.105 . S
Sc221 O241 2.105 . S
Sc222 O223 2.025 . S
Sc222 O232 2.105 . S
Sc222 O234 2.105 . S
Sc222 O238 2.105 . S
Sc222 O240 2.105 . S
O223 Sc220 2.025 . S
O223 Sc221 2.025 . S
O223 Sc222 2.025 . S
C224 O230 1.268 . S
C224 O240 1.268 . S
C225 O231 1.268 . S
C225 O239 1.268 . S
C226 O232 1.268 . S
C226 O241 1.268 . S
C227 O233 1.268 . S
C227 O237 1.268 . S
C228 O234 1.268 . S
C228 O236 1.268 . S
C229 O235 1.268 . S
C229 O238 1.268 . S
O230 Sc220 2.105 . S
O230 C224 1.268 . S
O231 Sc221 2.105 . S
O231 C225 1.268 . S
O232 Sc222 2.105 . S
O232 C226 1.268 . S
O233 Sc220 2.105 . S
O233 C227 1.268 . S
O234 Sc222 2.105 . S
O234 C228 1.268 . S
O235 Sc221 2.105 . S
O235 C229 1.268 . S
O236 Sc220 2.105 . S
O236 C228 1.268 . S
O237 Sc221 2.105 . S
O237 C227 1.268 . S
O238 Sc222 2.105 . S
O238 C229 1.268 . S
O239 Sc220 2.105 . S
O239 C225 1.268 . S
O240 Sc222 2.105 . S
O240 C224 1.268 . S
O241 Sc221 2.105 . S
O241 C226 1.268 . S
Sc242 O245 2.025 . S
Sc242 O252 2.105 . S
Sc242 O255 2.105 . S
Sc242 O258 2.105 . S
Sc242 O261 2.105 . S
Sc243 O245 2.025 . S
Sc243 O253 2.105 1_565 S
Sc243 O257 2.105 . S
Sc243 O259 2.105 . S
Sc243 O263 2.105 . S
Sc244 O245 2.025 . S
Sc244 O254 2.105 . S
Sc244 O256 2.105 . S
Sc244 O260 2.105 . S
Sc244 O262 2.105 . S
O245 Sc242 2.025 . S
O245 Sc243 2.025 . S
O245 Sc244 2.025 . S
C246 O252 1.268 . S
C246 O262 1.268 . S
C247 O253 1.268 1_565 S
C247 O261 1.268 . S
C248 O254 1.268 . S
C248 O263 1.268 . S
C249 O255 1.268 . S
C249 O259 1.268 . S
C250 O256 1.268 . S
C250 O258 1.268 . S
C251 O257 1.268 . S
C251 O260 1.268 . S
O252 Sc242 2.105 . S
O252 C246 1.268 . S
O253 Sc243 2.105 1_545 S
O253 C247 1.268 1_545 S
O254 Sc244 2.105 . S
O254 C248 1.268 . S
O255 Sc242 2.105 . S
O255 C249 1.268 . S
O256 Sc244 2.105 . S
O256 C250 1.268 . S
O257 Sc243 2.105 . S
O257 C251 1.268 . S
O258 Sc242 2.105 . S
O258 C250 1.268 . S
O259 Sc243 2.105 . S
O259 C249 1.268 . S
O260 Sc244 2.105 . S
O260 C251 1.268 . S
O261 Sc242 2.105 . S
O261 C247 1.268 . S
O262 Sc244 2.105 . S
O262 C246 1.268 . S
O263 Sc243 2.105 . S
O263 C248 1.268 . S
Sc264 O267 2.025 . S
Sc264 O274 2.105 . S
Sc264 O277 2.105 . S
Sc264 O280 2.105 . S
Sc264 O283 2.105 . S
Sc265 O267 2.025 . S
Sc265 O275 2.105 . S
Sc265 O279 2.105 . S
Sc265 O281 2.105 . S
Sc265 O285 2.105 . S
Sc266 O267 2.025 . S
Sc266 O276 2.105 . S
Sc266 O278 2.105 . S
Sc266 O282 2.105 . S
Sc266 O284 2.105 . S
O267 Sc264 2.025 . S
O267 Sc265 2.025 . S
O267 Sc266 2.025 . S
C268 O274 1.268 . S
C268 O284 1.268 . S
C269 O275 1.268 . S
C269 O283 1.268 . S
C270 O276 1.268 . S
C270 O285 1.268 . S
C271 O277 1.268 . S
C271 O281 1.268 . S
C272 O278 1.268 . S
C272 O280 1.268 . S
C273 O279 1.268 . S
C273 O282 1.268 . S
O274 Sc264 2.105 . S
O274 C268 1.268 . S
O275 Sc265 2.105 . S
O275 C269 1.268 . S
O276 Sc266 2.105 . S
O276 C270 1.268 . S
O277 Sc264 2.105 . S
O277 C271 1.268 . S
O278 Sc266 2.105 . S
O278 C272 1.268 . S
O279 Sc265 2.105 . S
O279 C273 1.268 . S
O280 Sc264 2.105 . S
O280 C272 1.268 . S
O281 Sc265 2.105 . S
O281 C271 1.268 . S
O282 Sc266 2.105 . S
O282 C273 1.268 . S
O283 Sc264 2.105 . S
O283 C269 1.268 . S
O284 Sc266 2.105 . S
O284 C268 1.268 . S
O285 Sc265 2.105 . S
O285 C270 1.268 . S
Sc286 O289 2.025 . S
Sc286 O296 2.105 . S
Sc286 O299 2.105 . S
Sc286 O302 2.105 . S
Sc286 O305 2.105 . S
Sc287 O289 2.025 . S
Sc287 O297 2.105 . S
Sc287 O301 2.105 . S
Sc287 O303 2.105 1_565 S
Sc287 O307 2.105 . S
Sc288 O289 2.025 . S
Sc288 O298 2.105 . S
Sc288 O300 2.105 . S
Sc288 O304 2.105 . S
Sc288 O306 2.105 . S
O289 Sc286 2.025 . S
O289 Sc287 2.025 . S
O289 Sc288 2.025 . S
C290 O296 1.268 . S
C290 O306 1.268 . S
C291 O297 1.268 . S
C291 O305 1.268 . S
C292 O298 1.268 1_455 S
C292 O307 1.268 1_455 S
C293 O299 1.268 . S
C293 O303 1.268 1_565 S
C294 O300 1.268 . S
C294 O302 1.268 . S
C295 O301 1.268 . S
C295 O304 1.268 . S
O296 Sc286 2.105 . S
O296 C290 1.268 . S
O297 Sc287 2.105 . S
O297 C291 1.268 . S
O298 Sc288 2.105 . S
O298 C292 1.268 1_655 S
O299 Sc286 2.105 . S
O299 C293 1.268 . S
O300 Sc288 2.105 . S
O300 C294 1.268 . S
O301 Sc287 2.105 . S
O301 C295 1.268 . S
O302 Sc286 2.105 . S
O302 C294 1.268 . S
O303 Sc287 2.105 1_545 S
O303 C293 1.268 1_545 S
O304 Sc288 2.105 . S
O304 C295 1.268 . S
O305 Sc286 2.105 . S
O305 C291 1.268 . S
O306 Sc288 2.105 . S
O306 C290 1.268 . S
O307 Sc287 2.105 . S
O307 C292 1.268 1_655 S
Sc308 O311 2.025 . S
Sc308 O318 2.105 . S
Sc308 O321 2.105 . S
Sc308 O324 2.105 . S
Sc308 O327 2.105 . S
Sc309 O311 2.025 . S
Sc309 O319 2.105 . S
Sc309 O323 2.105 . S
Sc309 O325 2.105 . S
Sc309 O329 2.105 . S
Sc310 O311 2.025 . S
Sc310 O320 2.105 . S
Sc310 O322 2.105 . S
Sc310 O326 2.105 . S
Sc310 O328 2.105 . S
O311 Sc308 2.025 . S
O311 Sc309 2.025 . S
O311 Sc310 2.025 . S
C312 O318 1.268 . S
C312 O328 1.268 . S
C313 O319 1.268 . S
C313 O327 1.268 . S
C314 O320 1.268 . S
C314 O329 1.268 . S
C315 O321 1.268 . S
C315 O325 1.268 . S
C316 O322 1.268 . S
C316 O324 1.268 . S
C317 O323 1.268 . S
C317 O326 1.268 . S
O318 Sc308 2.105 . S
O318 C312 1.268 . S
O319 Sc309 2.105 . S
O319 C313 1.268 . S
O320 Sc310 2.105 . S
O320 C314 1.268 . S
O321 Sc308 2.105 . S
O321 C315 1.268 . S
O322 Sc310 2.105 . S
O322 C316 1.268 . S
O323 Sc309 2.105 . S
O323 C317 1.268 . S
O324 Sc308 2.105 . S
O324 C316 1.268 . S
O325 Sc309 2.105 . S
O325 C315 1.268 . S
O326 Sc310 2.105 . S
O326 C317 1.268 . S
O327 Sc308 2.105 . S
O327 C313 1.268 . S
O328 Sc310 2.105 . S
O328 C312 1.268 . S
O329 Sc309 2.105 . S
O329 C314 1.268 . S
Sc330 O333 2.025 . S
Sc330 O340 2.105 . S
Sc330 O343 2.105 . S
Sc330 O346 2.105 . S
Sc330 O349 2.105 . S
Sc331 O333 2.025 . S
Sc331 O341 2.105 . S
Sc331 O345 2.105 . S
Sc331 O347 2.105 . S
Sc331 O351 2.105 1_545 S
Sc332 O333 2.025 . S
Sc332 O342 2.105 . S
Sc332 O344 2.105 . S
Sc332 O348 2.105 . S
Sc332 O350 2.105 . S
O333 Sc330 2.025 . S
O333 Sc331 2.025 . S
O333 Sc332 2.025 . S
C334 O340 1.268 . S
C334 O350 1.268 . S
C335 O341 1.268 . S
C335 O349 1.268 . S
C336 O342 1.268 . S
C336 O351 1.268 1_545 S
C337 O343 1.268 . S
C337 O347 1.268 . S
C338 O344 1.268 . S
C338 O346 1.268 . S
C339 O345 1.268 . S
C339 O348 1.268 . S
O340 Sc330 2.105 . S
O340 C334 1.268 . S
O341 Sc331 2.105 . S
O341 C335 1.268 . S
O342 Sc332 2.105 . S
O342 C336 1.268 . S
O343 Sc330 2.105 . S
O343 C337 1.268 . S
O344 Sc332 2.105 . S
O344 C338 1.268 . S
O345 Sc331 2.105 . S
O345 C339 1.268 . S
O346 Sc330 2.105 . S
O346 C338 1.268 . S
O347 Sc331 2.105 . S
O347 C337 1.268 . S
O348 Sc332 2.105 . S
O348 C339 1.268 . S
O349 Sc330 2.105 . S
O349 C335 1.268 . S
O350 Sc332 2.105 . S
O350 C334 1.268 . S
O351 Sc331 2.105 1_565 S
O351 C336 1.268 1_565 S
H352 C364 0.930 . S
H353 C366 0.930 . S
H354 C367 0.930 . S
H355 C371 0.959 . S
H356 C371 0.959 . S
H357 C371 0.961 . S
H358 C372 0.960 . S
H359 C372 0.961 . S
H360 C372 0.959 . S
H361 C375 0.929 . S
H362 C376 0.931 . S
H363 C378 0.930 . S
C364 H352 0.930 . S
C364 C365 1.399 . S
C364 C369 1.399 . S
C365 C364 1.399 . S
C365 C366 1.376 . S
C366 H353 0.930 . S
C366 C365 1.376 . S
C366 C367 1.388 . S
C367 H354 0.930 . S
C367 C366 1.388 . S
C367 C368 1.390 . S
C368 C367 1.390 . S
C368 C369 1.394 . S
C368 C374 1.465 . S
C369 C364 1.399 . S
C369 C368 1.394 . S
C369 C370 1.516 . S
C370 C369 1.516 . S
C370 C371 1.502 . S
C370 C372 1.561 . S
C370 C373 1.526 . S
C371 H355 0.959 . S
C371 H356 0.959 . S
C371 H357 0.961 . S
C371 C370 1.502 . S
C372 H358 0.960 . S
C372 H359 0.961 . S
C372 H360 0.959 . S
C372 C370 1.561 . S
C373 C370 1.526 . S
C373 C374 1.396 . S
C373 C378 1.390 . S
C374 C368 1.465 . S
C374 C373 1.396 . S
C374 C375 1.399 . S
C375 H361 0.929 . S
C375 C374 1.399 . S
C375 C376 1.385 . S
C376 H362 0.931 . S
C376 C375 1.385 . S
C376 C377 1.389 . S
C377 C376 1.389 . S
C377 C378 1.387 . S
C378 H363 0.930 . S
C378 C373 1.390 . S
C378 C377 1.387 . S
H379 C391 0.930 . S
H380 C393 0.930 . S
H381 C394 0.930 . S
H382 C398 0.959 . S
H383 C398 0.959 . S
H384 C398 0.961 . S
H385 C399 0.960 . S
H386 C399 0.961 . S
H387 C399 0.959 . S
H388 C402 0.929 . S
H389 C403 0.931 . S
H390 C405 0.930 . S
C391 H379 0.930 . S
C391 C392 1.399 . S
C391 C396 1.399 . S
C392 C391 1.399 . S
C392 C393 1.376 . S
C393 H380 0.930 . S
C393 C392 1.376 . S
C393 C394 1.388 . S
C394 H381 0.930 . S
C394 C393 1.388 . S
C394 C395 1.390 . S
C395 C394 1.390 . S
C395 C396 1.394 . S
C395 C401 1.465 . S
C396 C391 1.399 . S
C396 C395 1.394 . S
C396 C397 1.516 . S
C397 C396 1.516 . S
C397 C398 1.502 . S
C397 C399 1.561 . S
C397 C400 1.526 . S
C398 H382 0.959 . S
C398 H383 0.959 . S
C398 H384 0.961 . S
C398 C397 1.502 . S
C399 H385 0.960 . S
C399 H386 0.961 . S
C399 H387 0.959 . S
C399 C397 1.561 . S
C400 C397 1.526 . S
C400 C401 1.396 . S
C400 C405 1.390 . S
C401 C395 1.465 . S
C401 C400 1.396 . S
C401 C402 1.399 . S
C402 H388 0.929 . S
C402 C401 1.399 . S
C402 C403 1.385 . S
C403 H389 0.931 . S
C403 C402 1.385 . S
C403 C404 1.389 . S
C404 C403 1.389 . S
C404 C405 1.387 . S
C405 H390 0.930 . S
C405 C400 1.390 . S
C405 C404 1.387 . S
H406 C418 0.930 . S
H407 C420 0.930 . S
H408 C421 0.930 . S
H409 C425 0.959 . S
H410 C425 0.959 . S
H411 C425 0.961 . S
H412 C426 0.960 . S
H413 C426 0.961 . S
H414 C426 0.959 . S
H415 C429 0.929 . S
H416 C430 0.931 . S
H417 C432 0.930 . S
C418 H406 0.930 . S
C418 C419 1.399 . S
C418 C423 1.399 . S
C419 C418 1.399 . S
C419 C420 1.376 . S
C420 H407 0.930 . S
C420 C419 1.376 . S
C420 C421 1.388 . S
C421 H408 0.930 . S
C421 C420 1.388 . S
C421 C422 1.390 . S
C422 C421 1.390 . S
C422 C423 1.394 . S
C422 C428 1.465 . S
C423 C418 1.399 . S
C423 C422 1.394 . S
C423 C424 1.516 . S
C424 C423 1.516 . S
C424 C425 1.502 . S
C424 C426 1.561 . S
C424 C427 1.526 . S
C425 H409 0.959 . S
C425 H410 0.959 . S
C425 H411 0.961 . S
C425 C424 1.502 . S
C426 H412 0.960 . S
C426 H413 0.961 . S
C426 H414 0.959 . S
C426 C424 1.561 . S
C427 C424 1.526 . S
C427 C428 1.396 . S
C427 C432 1.390 . S
C428 C422 1.465 . S
C428 C427 1.396 . S
C428 C429 1.399 . S
C429 H415 0.929 . S
C429 C428 1.399 . S
C429 C430 1.385 . S
C430 H416 0.931 . S
C430 C429 1.385 . S
C430 C431 1.389 . S
C431 C430 1.389 . S
C431 C432 1.387 . S
C432 H417 0.930 . S
C432 C427 1.390 . S
C432 C431 1.387 . S
H433 C445 0.930 . S
H434 C447 0.930 . S
H435 C448 0.930 . S
H436 C452 0.967 1_556 S
H437 C452 0.959 . S
H438 C452 0.961 1_556 S
H439 C453 0.960 . S
H440 C453 0.961 . S
H441 C453 0.959 . S
H442 C456 0.929 . S
H443 C457 0.931 . S
H444 C459 0.930 . S
C445 H433 0.930 . S
C445 C446 1.399 . S
C445 C450 1.399 . S
C446 C445 1.399 . S
C446 C447 1.376 . S
C447 H434 0.930 . S
C447 C446 1.376 . S
C447 C448 1.388 1_655 S
C448 H435 0.930 . S
C448 C447 1.388 1_455 S
C448 C449 1.390 1_455 S
C449 C448 1.390 1_655 S
C449 C450 1.394 . S
C449 C455 1.465 1_656 S
C450 C445 1.399 . S
C450 C449 1.394 . S
C450 C451 1.516 1_556 S
C451 C450 1.516 1_554 S
C451 C452 1.502 . S
C451 C453 1.561 . S
C451 C454 1.526 1_655 S
C452 H436 0.967 1_554 S
C452 H437 0.959 . S
C452 H438 0.961 1_554 S
C452 C451 1.502 . S
C453 H439 0.960 . S
C453 H440 0.961 . S
C453 H441 0.959 . S
C453 C451 1.561 . S
C454 C451 1.526 1_455 S
C454 C455 1.396 . S
C454 C459 1.390 . S
C455 C449 1.465 1_454 S
C455 C454 1.396 . S
C455 C456 1.399 . S
C456 H442 0.929 . S
C456 C455 1.399 . S
C456 C457 1.385 . S
C457 H443 0.931 . S
C457 C456 1.385 . S
C457 C458 1.389 . S
C458 C457 1.389 . S
C458 C459 1.387 . S
C459 H444 0.930 . S
C459 C454 1.390 . S
C459 C458 1.387 . S
H460 C472 0.930 . S
H461 C474 0.930 . S
H462 C475 0.930 . S
H463 C479 0.959 . S
H464 C479 0.959 . S
H465 C479 0.961 . S
H466 C480 0.960 . S
H467 C480 0.961 . S
H468 C480 0.959 . S
H469 C483 0.929 . S
H470 C484 0.931 . S
H471 C486 0.930 . S
C472 H460 0.930 . S
C472 C473 1.399 . S
C472 C477 1.399 . S
C473 C472 1.399 . S
C473 C474 1.376 . S
C474 H461 0.930 . S
C474 C473 1.376 . S
C474 C475 1.388 . S
C475 H462 0.930 . S
C475 C474 1.388 . S
C475 C476 1.390 . S
C476 C475 1.390 . S
C476 C477 1.394 . S
C476 C482 1.465 . S
C477 C472 1.399 . S
C477 C476 1.394 . S
C477 C478 1.516 . S
C478 C477 1.516 . S
C478 C479 1.502 . S
C478 C480 1.561 . S
C478 C481 1.526 . S
C479 H463 0.959 . S
C479 H464 0.959 . S
C479 H465 0.961 . S
C479 C478 1.502 . S
C480 H466 0.960 . S
C480 H467 0.961 . S
C480 H468 0.959 . S
C480 C478 1.561 . S
C481 C478 1.526 . S
C481 C482 1.396 . S
C481 C486 1.390 . S
C482 C476 1.465 . S
C482 C481 1.396 . S
C482 C483 1.399 . S
C483 H469 0.929 . S
C483 C482 1.399 . S
C483 C484 1.385 . S
C484 H470 0.931 . S
C484 C483 1.385 . S
C484 C485 1.389 . S
C485 C484 1.389 . S
C485 C486 1.387 . S
C486 H471 0.930 . S
C486 C481 1.390 . S
C486 C485 1.387 . S
H487 C499 0.930 . S
H488 C501 0.930 . S
H489 C502 0.930 . S
H490 C506 0.959 . S
H491 C506 0.959 . S
H492 C506 0.961 . S
H493 C507 0.960 . S
H494 C507 0.961 . S
H495 C507 0.959 . S
H496 C510 0.929 . S
H497 C511 0.931 . S
H498 C513 0.930 . S
C499 H487 0.930 . S
C499 C500 1.399 . S
C499 C504 1.399 . S
C500 C499 1.399 . S
C500 C501 1.376 . S
C501 H488 0.930 . S
C501 C500 1.376 . S
C501 C502 1.388 . S
C502 H489 0.930 . S
C502 C501 1.388 . S
C502 C503 1.390 . S
C503 C502 1.390 . S
C503 C504 1.394 . S
C503 C509 1.465 . S
C504 C499 1.399 . S
C504 C503 1.394 . S
C504 C505 1.516 . S
C505 C504 1.516 . S
C505 C506 1.502 . S
C505 C507 1.561 . S
C505 C508 1.526 . S
C506 H490 0.959 . S
C506 H491 0.959 . S
C506 H492 0.961 . S
C506 C505 1.502 . S
C507 H493 0.960 . S
C507 H494 0.961 . S
C507 H495 0.959 . S
C507 C505 1.561 . S
C508 C505 1.526 . S
C508 C509 1.396 . S
C508 C513 1.390 . S
C509 C503 1.465 . S
C509 C508 1.396 . S
C509 C510 1.399 . S
C510 H496 0.929 . S
C510 C509 1.399 . S
C510 C511 1.385 . S
C511 H497 0.931 . S
C511 C510 1.385 . S
C511 C512 1.389 . S
C512 C511 1.389 . S
C512 C513 1.387 . S
C513 H498 0.930 . S
C513 C508 1.390 . S
C513 C512 1.387 . S
H514 C526 0.930 . S
H515 C528 0.930 . S
H516 C529 0.930 . S
H517 C533 0.959 . S
H518 C533 0.959 . S
H519 C533 0.961 . S
H520 C534 0.960 1_554 S
H521 C534 0.961 1_455 S
H522 C534 0.959 . S
H523 C537 0.929 . S
H524 C538 0.931 . S
H525 C540 0.930 . S
C526 H514 0.930 . S
C526 C527 1.399 . S
C526 C531 1.399 . S
C527 C526 1.399 . S
C527 C528 1.376 1_565 S
C528 H515 0.930 . S
C528 C527 1.376 1_545 S
C528 C529 1.388 . S
C529 H516 0.930 . S
C529 C528 1.388 . S
C529 C530 1.390 . S
C530 C529 1.390 . S
C530 C531 1.394 1_545 S
C530 C536 1.465 1_554 S
C531 C526 1.399 . S
C531 C530 1.394 1_565 S
C531 C532 1.516 1_655 S
C532 C531 1.516 1_455 S
C532 C533 1.502 . S
C532 C534 1.561 1_454 S
C532 C535 1.526 1_554 S
C533 H517 0.959 . S
C533 H518 0.959 . S
C533 H519 0.961 . S
C533 C532 1.502 . S
C534 H520 0.960 1_556 S
C534 H521 0.961 1_655 S
C534 H522 0.959 . S
C534 C532 1.561 1_656 S
C535 C532 1.526 1_556 S
C535 C536 1.396 1_465 S
C535 C540 1.390 . S
C536 C530 1.465 1_556 S
C536 C535 1.396 1_645 S
C536 C537 1.399 . S
C537 H523 0.929 . S
C537 C536 1.399 . S
C537 C538 1.385 1_655 S
C538 H524 0.931 . S
C538 C537 1.385 1_455 S
C538 C539 1.389 . S
C539 C538 1.389 . S
C539 C540 1.387 1_545 S
C540 H525 0.930 . S
C540 C535 1.390 . S
C540 C539 1.387 1_565 S
H541 C553 0.930 . S
H542 C555 0.930 . S
H543 C556 0.930 . S
H544 C560 0.959 . S
H545 C560 0.959 . S
H546 C560 0.961 . S
H547 C561 0.960 . S
H548 C561 0.961 . S
H549 C561 0.959 . S
H550 C564 0.929 . S
H551 C565 0.931 . S
H552 C567 0.930 . S
C553 H541 0.930 . S
C553 C554 1.399 1_545 S
C553 C558 1.399 . S
C554 C553 1.399 1_565 S
C554 C555 1.376 . S
C555 H542 0.930 . S
C555 C554 1.376 . S
C555 C556 1.388 . S
C556 H543 0.930 . S
C556 C555 1.388 . S
C556 C557 1.390 . S
C557 C556 1.390 . S
C557 C558 1.394 1_565 S
C557 C563 1.465 . S
C558 C553 1.399 . S
C558 C557 1.394 1_545 S
C558 C559 1.516 . S
C559 C558 1.516 . S
C559 C560 1.502 . S
C559 C561 1.561 . S
C559 C562 1.526 . S
C560 H544 0.959 . S
C560 H545 0.959 . S
C560 H546 0.961 . S
C560 C559 1.502 . S
C561 H547 0.960 . S
C561 H548 0.961 . S
C561 H549 0.959 . S
C561 C559 1.561 . S
C562 C559 1.526 . S
C562 C563 1.396 1_545 S
C562 C567 1.390 . S
C563 C557 1.465 . S
C563 C562 1.396 1_565 S
C563 C564 1.399 . S
C564 H550 0.929 . S
C564 C563 1.399 . S
C564 C565 1.385 . S
C565 H551 0.931 . S
C565 C564 1.385 . S
C565 C566 1.389 1_565 S
C566 C565 1.389 1_545 S
C566 C567 1.387 . S
C567 H552 0.930 . S
C567 C562 1.390 . S
C567 C566 1.387 . S
H568 C580 0.930 . S
H569 C582 0.930 . S
H570 C583 0.930 . S
H571 C587 0.959 . S
H572 C587 0.959 . S
H573 C587 0.961 . S
H574 C588 0.960 . S
H575 C588 0.961 . S
H576 C588 0.959 1_554 S
H577 C591 0.929 . S
H578 C592 0.931 . S
H579 C594 0.930 . S
C580 H568 0.930 . S
C580 C581 1.399 . S
C580 C585 1.399 . S
C581 C580 1.399 . S
C581 C582 1.376 . S
C582 H569 0.930 . S
C582 C581 1.376 . S
C582 C583 1.388 . S
C583 H570 0.930 . S
C583 C582 1.388 . S
C583 C584 1.390 . S
C584 C583 1.390 . S
C584 C585 1.394 . S
C584 C590 1.465 1_556 S
C585 C580 1.399 . S
C585 C584 1.394 . S
C585 C586 1.516 . S
C586 C585 1.516 . S
C586 C587 1.502 . S
C586 C588 1.561 . S
C586 C589 1.526 1_556 S
C587 H571 0.959 . S
C587 H572 0.959 . S
C587 H573 0.961 . S
C587 C586 1.502 . S
C588 H574 0.960 . S
C588 H575 0.961 . S
C588 H576 0.959 1_556 S
C588 C586 1.561 . S
C589 C586 1.526 1_554 S
C589 C590 1.396 . S
C589 C594 1.390 . S
C590 C584 1.465 1_554 S
C590 C589 1.396 . S
C590 C591 1.399 . S
C591 H577 0.929 . S
C591 C590 1.399 . S
C591 C592 1.385 . S
C592 H578 0.931 . S
C592 C591 1.385 . S
C592 C593 1.389 . S
C593 C592 1.389 . S
C593 C594 1.387 . S
C594 H579 0.930 . S
C594 C589 1.390 . S
C594 C593 1.387 . S
H595 C607 0.930 . S
H596 C609 0.930 . S
H597 C610 0.930 . S
H598 C614 0.959 . S
H599 C614 0.959 . S
H600 C614 0.961 . S
H601 C615 0.960 . S
H602 C615 0.961 . S
H603 C615 0.959 . S
H604 C618 0.929 . S
H605 C619 0.931 . S
H606 C621 0.930 . S
C607 H595 0.930 . S
C607 C608 1.399 . S
C607 C612 1.399 . S
C608 C607 1.399 . S
C608 C609 1.376 . S
C609 H596 0.930 . S
C609 C608 1.376 . S
C609 C610 1.388 . S
C610 H597 0.930 . S
C610 C609 1.388 . S
C610 C611 1.390 . S
C611 C610 1.390 . S
C611 C612 1.394 . S
C611 C617 1.465 . S
C612 C607 1.399 . S
C612 C611 1.394 . S
C612 C613 1.516 . S
C613 C612 1.516 . S
C613 C614 1.502 . S
C613 C615 1.561 . S
C613 C616 1.526 . S
C614 H598 0.959 . S
C614 H599 0.959 . S
C614 H600 0.961 . S
C614 C613 1.502 . S
C615 H601 0.960 . S
C615 H602 0.961 . S
C615 H603 0.959 . S
C615 C613 1.561 . S
C616 C613 1.526 . S
C616 C617 1.396 . S
C616 C621 1.390 . S
C617 C611 1.465 . S
C617 C616 1.396 . S
C617 C618 1.399 . S
C618 H604 0.929 . S
C618 C617 1.399 . S
C618 C619 1.385 . S
C619 H605 0.931 . S
C619 C618 1.385 . S
C619 C620 1.389 . S
C620 C619 1.389 . S
C620 C621 1.387 . S
C621 H606 0.930 . S
C621 C616 1.390 . S
C621 C620 1.387 . S
H622 C634 0.930 . S
H623 C636 0.930 . S
H624 C637 0.930 . S
H625 C641 0.959 . S
H626 C641 0.959 . S
H627 C641 0.961 . S
H628 C642 0.960 . S
H629 C642 0.961 . S
H630 C642 0.959 . S
H631 C645 0.929 . S
H632 C646 0.931 . S
H633 C648 0.930 . S
C634 H622 0.930 . S
C634 C635 1.399 . S
C634 C639 1.399 . S
C635 C634 1.399 . S
C635 C636 1.376 . S
C636 H623 0.930 . S
C636 C635 1.376 . S
C636 C637 1.388 . S
C637 H624 0.930 . S
C637 C636 1.388 . S
C637 C638 1.390 . S
C638 C637 1.390 . S
C638 C639 1.394 . S
C638 C644 1.465 . S
C639 C634 1.399 . S
C639 C638 1.394 . S
C639 C640 1.516 . S
C640 C639 1.516 . S
C640 C641 1.502 . S
C640 C642 1.561 . S
C640 C643 1.526 . S
C641 H625 0.959 . S
C641 H626 0.959 . S
C641 H627 0.961 . S
C641 C640 1.502 . S
C642 H628 0.960 . S
C642 H629 0.961 . S
C642 H630 0.959 . S
C642 C640 1.561 . S
C643 C640 1.526 . S
C643 C644 1.396 . S
C643 C648 1.390 . S
C644 C638 1.465 . S
C644 C643 1.396 . S
C644 C645 1.399 . S
C645 H631 0.929 . S
C645 C644 1.399 . S
C645 C646 1.385 . S
C646 H632 0.931 . S
C646 C645 1.385 . S
C646 C647 1.389 . S
C647 C646 1.389 . S
C647 C648 1.387 . S
C648 H633 0.930 . S
C648 C643 1.390 . S
C648 C647 1.387 . S
H649 C661 0.930 . S
H650 C663 0.930 . S
H651 C664 0.930 . S
H652 C668 0.959 . S
H653 C668 0.959 . S
H654 C668 0.961 . S
H655 C669 0.960 . S
H656 C669 0.961 . S
H657 C669 0.959 . S
H658 C672 0.929 . S
H659 C673 0.931 . S
H660 C675 0.930 . S
C661 H649 0.930 . S
C661 C662 1.399 . S
C661 C666 1.399 . S
C662 C661 1.399 . S
C662 C663 1.376 . S
C663 H650 0.930 . S
C663 C662 1.376 . S
C663 C664 1.388 . S
C664 H651 0.930 . S
C664 C663 1.388 . S
C664 C665 1.390 . S
C665 C664 1.390 . S
C665 C666 1.394 . S
C665 C671 1.465 . S
C666 C661 1.399 . S
C666 C665 1.394 . S
C666 C667 1.516 . S
C667 C666 1.516 . S
C667 C668 1.502 . S
C667 C669 1.561 . S
C667 C670 1.526 . S
C668 H652 0.959 . S
C668 H653 0.959 . S
C668 H654 0.961 . S
C668 C667 1.502 . S
C669 H655 0.960 . S
C669 H656 0.961 . S
C669 H657 0.959 . S
C669 C667 1.561 . S
C670 C667 1.526 . S
C670 C671 1.396 . S
C670 C675 1.390 . S
C671 C665 1.465 . S
C671 C670 1.396 . S
C671 C672 1.399 . S
C672 H658 0.929 . S
C672 C671 1.399 . S
C672 C673 1.385 . S
C673 H659 0.931 . S
C673 C672 1.385 . S
C673 C674 1.389 . S
C674 C673 1.389 . S
C674 C675 1.387 . S
C675 H660 0.930 . S
C675 C670 1.390 . S
C675 C674 1.387 . S
H676 C688 0.930 . S
H677 C690 0.930 . S
H678 C691 0.930 . S
H679 C695 0.959 . S
H680 C695 0.959 . S
H681 C695 0.961 . S
H682 C696 0.957 1_554 S
H683 C696 0.961 . S
H684 C696 0.966 . S
H685 C699 0.929 . S
H686 C700 0.931 . S
H687 C702 0.930 . S
C688 H676 0.930 . S
C688 C689 1.399 . S
C688 C693 1.399 . S
C689 C688 1.399 . S
C689 C690 1.376 . S
C690 H677 0.930 . S
C690 C689 1.376 . S
C690 C691 1.388 . S
C691 H678 0.930 . S
C691 C690 1.388 . S
C691 C692 1.390 . S
C692 C691 1.390 . S
C692 C693 1.394 . S
C692 C698 1.465 . S
C693 C688 1.399 . S
C693 C692 1.394 . S
C693 C694 1.516 1_554 S
C694 C693 1.516 1_556 S
C694 C695 1.502 . S
C694 C696 1.561 . S
C694 C697 1.526 . S
C695 H679 0.959 . S
C695 H680 0.959 . S
C695 H681 0.961 . S
C695 C694 1.502 . S
C696 H682 0.957 1_556 S
C696 H683 0.961 . S
C696 H684 0.966 . S
C696 C694 1.561 . S
C697 C694 1.526 . S
C697 C698 1.396 1_556 S
C697 C702 1.390 . S
C698 C692 1.465 . S
C698 C697 1.396 1_554 S
C698 C699 1.399 . S
C699 H685 0.929 . S
C699 C698 1.399 . S
C699 C700 1.385 1_554 S
C700 H686 0.931 . S
C700 C699 1.385 1_556 S
C700 C701 1.389 . S
C701 C700 1.389 . S
C701 C702 1.387 . S
C702 H687 0.930 . S
C702 C697 1.390 . S
C702 C701 1.387 . S
H703 C715 0.930 . S
H704 C717 0.930 . S
H705 C718 0.930 . S
H706 C722 0.959 . S
H707 C722 0.959 . S
H708 C722 0.961 . S
H709 C723 0.960 . S
H710 C723 0.961 . S
H711 C723 0.959 . S
H712 C726 0.929 . S
H713 C727 0.931 . S
H714 C729 0.930 . S
C715 H703 0.930 . S
C715 C716 1.399 . S
C715 C720 1.399 . S
C716 C715 1.399 . S
C716 C717 1.376 . S
C717 H704 0.930 . S
C717 C716 1.376 . S
C717 C718 1.388 . S
C718 H705 0.930 . S
C718 C717 1.388 . S
C718 C719 1.390 . S
C719 C718 1.390 . S
C719 C720 1.394 . S
C719 C725 1.465 . S
C720 C715 1.399 . S
C720 C719 1.394 . S
C720 C721 1.516 . S
C721 C720 1.516 . S
C721 C722 1.502 . S
C721 C723 1.561 . S
C721 C724 1.526 . S
C722 H706 0.959 . S
C722 H707 0.959 . S
C722 H708 0.961 . S
C722 C721 1.502 . S
C723 H709 0.960 . S
C723 H710 0.961 . S
C723 H711 0.959 . S
C723 C721 1.561 . S
C724 C721 1.526 . S
C724 C725 1.396 . S
C724 C729 1.390 . S
C725 C719 1.465 . S
C725 C724 1.396 . S
C725 C726 1.399 . S
C726 H712 0.929 . S
C726 C725 1.399 . S
C726 C727 1.385 . S
C727 H713 0.931 . S
C727 C726 1.385 . S
C727 C728 1.389 . S
C728 C727 1.389 . S
C728 C729 1.387 . S
C729 H714 0.930 . S
C729 C724 1.390 . S
C729 C728 1.387 . S
H730 C742 0.930 . S
H731 C744 0.930 . S
H732 C745 0.930 . S
H733 C749 0.959 . S
H734 C749 0.959 . S
H735 C749 0.961 . S
H736 C750 0.960 . S
H737 C750 0.961 . S
H738 C750 0.959 . S
H739 C753 0.929 . S
H740 C754 0.931 . S
H741 C756 0.930 . S
C742 H730 0.930 . S
C742 C743 1.399 . S
C742 C747 1.399 . S
C743 C742 1.399 . S
C743 C744 1.376 . S
C744 H731 0.930 . S
C744 C743 1.376 . S
C744 C745 1.388 . S
C745 H732 0.930 . S
C745 C744 1.388 . S
C745 C746 1.390 . S
C746 C745 1.390 . S
C746 C747 1.394 . S
C746 C752 1.465 . S
C747 C742 1.399 . S
C747 C746 1.394 . S
C747 C748 1.516 . S
C748 C747 1.516 . S
C748 C749 1.502 . S
C748 C750 1.561 . S
C748 C751 1.526 . S
C749 H733 0.959 . S
C749 H734 0.959 . S
C749 H735 0.961 . S
C749 C748 1.502 . S
C750 H736 0.960 . S
C750 H737 0.961 . S
C750 H738 0.959 . S
C750 C748 1.561 . S
C751 C748 1.526 . S
C751 C752 1.396 . S
C751 C756 1.390 . S
C752 C746 1.465 . S
C752 C751 1.396 . S
C752 C753 1.399 . S
C753 H739 0.929 . S
C753 C752 1.399 . S
C753 C754 1.385 . S
C754 H740 0.931 . S
C754 C753 1.385 . S
C754 C755 1.389 . S
C755 C754 1.389 . S
C755 C756 1.387 . S
C756 H741 0.930 . S
C756 C751 1.390 . S
C756 C755 1.387 . S
H757 C769 0.930 . S
H758 C771 0.930 . S
H759 C772 0.930 . S
H760 C776 0.959 . S
H761 C776 0.959 . S
H762 C776 0.961 . S
H763 C777 0.960 . S
H764 C777 0.961 . S
H765 C777 0.959 . S
H766 C780 0.929 . S
H767 C781 0.931 . S
H768 C783 0.930 . S
C769 H757 0.930 . S
C769 C770 1.399 . S
C769 C774 1.399 . S
C770 C769 1.399 . S
C770 C771 1.376 . S
C771 H758 0.930 . S
C771 C770 1.376 . S
C771 C772 1.388 . S
C772 H759 0.930 . S
C772 C771 1.388 . S
C772 C773 1.390 . S
C773 C772 1.390 . S
C773 C774 1.394 . S
C773 C779 1.465 . S
C774 C769 1.399 . S
C774 C773 1.394 . S
C774 C775 1.516 . S
C775 C774 1.516 . S
C775 C776 1.502 . S
C775 C777 1.561 . S
C775 C778 1.526 . S
C776 H760 0.959 . S
C776 H761 0.959 . S
C776 H762 0.961 . S
C776 C775 1.502 . S
C777 H763 0.960 . S
C777 H764 0.961 . S
C777 H765 0.959 . S
C777 C775 1.561 . S
C778 C775 1.526 . S
C778 C779 1.396 . S
C778 C783 1.390 . S
C779 C773 1.465 . S
C779 C778 1.396 . S
C779 C780 1.399 . S
C780 H766 0.929 . S
C780 C779 1.399 . S
C780 C781 1.385 . S
C781 H767 0.931 . S
C781 C780 1.385 . S
C781 C782 1.389 . S
C782 C781 1.389 . S
C782 C783 1.387 . S
C783 H768 0.930 . S
C783 C778 1.390 . S
C783 C782 1.387 . S
H784 C796 0.930 . S
H785 C798 0.930 . S
H786 C799 0.930 . S
H787 C803 0.959 . S
H788 C803 0.959 . S
H789 C803 0.961 . S
H790 C804 0.960 . S
H791 C804 0.961 . S
H792 C804 0.959 . S
H793 C807 0.929 . S
H794 C808 0.931 . S
H795 C810 0.930 . S
C796 H784 0.930 . S
C796 C797 1.399 . S
C796 C801 1.399 . S
C797 C796 1.399 . S
C797 C798 1.376 . S
C798 H785 0.930 . S
C798 C797 1.376 . S
C798 C799 1.388 . S
C799 H786 0.930 . S
C799 C798 1.388 . S
C799 C800 1.390 . S
C800 C799 1.390 . S
C800 C801 1.394 . S
C800 C806 1.465 . S
C801 C796 1.399 . S
C801 C800 1.394 . S
C801 C802 1.516 . S
C802 C801 1.516 . S
C802 C803 1.502 . S
C802 C804 1.561 . S
C802 C805 1.526 . S
C803 H787 0.959 . S
C803 H788 0.959 . S
C803 H789 0.961 . S
C803 C802 1.502 . S
C804 H790 0.960 . S
C804 H791 0.961 . S
C804 H792 0.959 . S
C804 C802 1.561 . S
C805 C802 1.526 . S
C805 C806 1.396 . S
C805 C810 1.390 . S
C806 C800 1.465 . S
C806 C805 1.396 . S
C806 C807 1.399 . S
C807 H793 0.929 . S
C807 C806 1.399 . S
C807 C808 1.385 . S
C808 H794 0.931 . S
C808 C807 1.385 . S
C808 C809 1.389 . S
C809 C808 1.389 . S
C809 C810 1.387 . S
C810 H795 0.930 . S
C810 C805 1.390 . S
C810 C809 1.387 . S
H811 C823 0.930 . S
H812 C825 0.930 . S
H813 C826 0.930 . S
H814 C830 0.959 . S
H815 C830 0.959 . S
H816 C830 0.961 . S
H817 C831 0.960 . S
H818 C831 0.961 . S
H819 C831 0.959 . S
H820 C834 0.929 . S
H821 C835 0.931 . S
H822 C837 0.930 . S
C823 H811 0.930 . S
C823 C824 1.399 . S
C823 C828 1.399 . S
C824 C823 1.399 . S
C824 C825 1.376 1_545 S
C825 H812 0.930 . S
C825 C824 1.376 1_565 S
C825 C826 1.388 . S
C826 H813 0.930 . S
C826 C825 1.388 . S
C826 C827 1.390 . S
C827 C826 1.390 . S
C827 C828 1.394 1_565 S
C827 C833 1.465 . S
C828 C823 1.399 . S
C828 C827 1.394 1_545 S
C828 C829 1.516 . S
C829 C828 1.516 . S
C829 C830 1.502 . S
C829 C831 1.561 . S
C829 C832 1.526 1_545 S
C830 H814 0.959 . S
C830 H815 0.959 . S
C830 H816 0.961 . S
C830 C829 1.502 . S
C831 H817 0.960 . S
C831 H818 0.961 . S
C831 H819 0.959 . S
C831 C829 1.561 . S
C832 C829 1.526 1_565 S
C832 C833 1.396 . S
C832 C837 1.390 . S
C833 C827 1.465 . S
C833 C832 1.396 . S
C833 C834 1.399 . S
C834 H820 0.929 . S
C834 C833 1.399 . S
C834 C835 1.385 . S
C835 H821 0.931 . S
C835 C834 1.385 . S
C835 C836 1.389 . S
C836 C835 1.389 . S
C836 C837 1.387 . S
C837 H822 0.930 . S
C837 C832 1.390 . S
C837 C836 1.387 . S
H838 C850 0.930 . S
H839 C852 0.930 . S
H840 C853 0.930 . S
H841 C857 0.959 . S
H842 C857 0.959 1_556 S
H843 C857 0.961 . S
H844 C858 0.960 . S
H845 C858 0.961 . S
H846 C858 0.959 . S
H847 C861 0.929 . S
H848 C862 0.931 . S
H849 C864 0.930 . S
C850 H838 0.930 . S
C850 C851 1.399 . S
C850 C855 1.399 . S
C851 C850 1.399 . S
C851 C852 1.376 . S
C852 H839 0.930 . S
C852 C851 1.376 . S
C852 C853 1.388 . S
C853 H840 0.930 . S
C853 C852 1.388 . S
C853 C854 1.396 . S
C854 C853 1.396 . S
C854 C855 1.398 . S
C854 C860 1.455 1_554 S
C855 C850 1.399 . S
C855 C854 1.398 . S
C855 C856 1.516 1_554 S
C856 C855 1.516 1_556 S
C856 C857 1.502 1_556 S
C856 C858 1.561 . S
C856 C859 1.526 . S
C857 H841 0.959 . S
C857 H842 0.959 1_554 S
C857 H843 0.961 . S
C857 C856 1.502 1_554 S
C858 H844 0.960 . S
C858 H845 0.961 . S
C858 H846 0.959 . S
C858 C856 1.561 . S
C859 C856 1.526 . S
C859 C860 1.396 . S
C859 C864 1.390 . S
C860 C854 1.455 1_556 S
C860 C859 1.396 . S
C860 C861 1.399 . S
C861 H847 0.929 . S
C861 C860 1.399 . S
C861 C862 1.385 . S
C862 H848 0.931 . S
C862 C861 1.385 . S
C862 C863 1.389 . S
C863 C862 1.389 . S
C863 C864 1.387 . S
C864 H849 0.930 . S
C864 C859 1.390 . S
C864 C863 1.387 . S
H865 C877 0.930 . S
H866 C879 0.930 . S
H867 C880 0.930 1_565 S
H868 C884 0.959 . S
H869 C884 0.959 . S
H870 C884 0.961 . S
H871 C885 0.960 . S
H872 C885 0.961 . S
H873 C885 0.959 . S
H874 C888 0.929 . S
H875 C889 0.931 . S
H876 C891 0.941 . S
C877 H865 0.930 . S
C877 C878 1.399 . S
C877 C882 1.399 . S
C878 C877 1.399 . S
C878 C879 1.376 . S
C879 H866 0.930 . S
C879 C878 1.376 . S
C879 C880 1.388 . S
C880 H867 0.930 1_545 S
C880 C879 1.388 . S
C880 C881 1.390 . S
C881 C880 1.390 . S
C881 C882 1.394 . S
C881 C887 1.465 1_545 S
C882 C877 1.399 . S
C882 C881 1.394 . S
C882 C883 1.516 . S
C883 C882 1.516 . S
C883 C884 1.502 . S
C883 C885 1.561 . S
C883 C886 1.526 . S
C884 H868 0.959 . S
C884 H869 0.959 . S
C884 H870 0.961 . S
C884 C883 1.502 . S
C885 H871 0.960 . S
C885 H872 0.961 . S
C885 H873 0.959 . S
C885 C883 1.561 . S
C886 C883 1.526 . S
C886 C887 1.396 1_545 S
C886 C891 1.397 . S
C887 C881 1.465 1_565 S
C887 C886 1.396 1_565 S
C887 C888 1.399 . S
C888 H874 0.929 . S
C888 C887 1.399 . S
C888 C889 1.385 . S
C889 H875 0.931 . S
C889 C888 1.385 . S
C889 C890 1.389 . S
C890 C889 1.389 . S
C890 C891 1.368 1_565 S
C891 H876 0.941 . S
C891 C886 1.397 . S
C891 C890 1.368 1_545 S
H892 C904 0.930 . S
H893 C906 0.930 . S
H894 C907 0.930 . S
H895 C911 0.959 . S
H896 C911 0.959 . S
H897 C911 0.961 . S
H898 C912 0.960 . S
H899 C912 0.961 . S
H900 C912 0.959 . S
H901 C915 0.929 . S
H902 C916 0.931 . S
H903 C918 0.930 . S
C904 H892 0.930 . S
C904 C905 1.399 . S
C904 C909 1.399 . S
C905 C904 1.399 . S
C905 C906 1.376 . S
C906 H893 0.930 . S
C906 C905 1.376 . S
C906 C907 1.388 . S
C907 H894 0.930 . S
C907 C906 1.388 . S
C907 C908 1.390 . S
C908 C907 1.390 . S
C908 C909 1.394 . S
C908 C914 1.465 . S
C909 C904 1.399 . S
C909 C908 1.394 . S
C909 C910 1.516 . S
C910 C909 1.516 . S
C910 C911 1.502 . S
C910 C912 1.561 . S
C910 C913 1.526 . S
C911 H895 0.959 . S
C911 H896 0.959 . S
C911 H897 0.961 . S
C911 C910 1.502 . S
C912 H898 0.960 . S
C912 H899 0.961 . S
C912 H900 0.959 . S
C912 C910 1.561 . S
C913 C910 1.526 . S
C913 C914 1.396 . S
C913 C918 1.390 . S
C914 C908 1.465 . S
C914 C913 1.396 . S
C914 C915 1.399 . S
C915 H901 0.929 . S
C915 C914 1.399 . S
C915 C916 1.385 . S
C916 H902 0.931 . S
C916 C915 1.385 . S
C916 C917 1.389 . S
C917 C916 1.389 . S
C917 C918 1.387 . S
C918 H903 0.930 . S
C918 C913 1.390 . S
C918 C917 1.387 . S
H919 C931 0.930 . S
H920 C933 0.930 . S
H921 C934 0.930 . S
H922 C938 0.959 . S
H923 C938 0.959 . S
H924 C938 0.961 . S
H925 C939 0.960 . S
H926 C939 0.961 . S
H927 C939 0.959 . S
H928 C942 0.929 1_565 S
H929 C943 0.931 . S
H930 C945 0.930 . S
C931 H919 0.930 . S
C931 C932 1.399 1_545 S
C931 C936 1.399 . S
C932 C931 1.399 1_565 S
C932 C933 1.376 . S
C933 H920 0.930 . S
C933 C932 1.376 . S
C933 C934 1.388 . S
C934 H921 0.930 . S
C934 C933 1.388 . S
C934 C935 1.390 . S
C935 C934 1.390 . S
C935 C936 1.394 1_565 S
C935 C941 1.465 1_565 S
C936 C931 1.399 . S
C936 C935 1.394 1_545 S
C936 C937 1.516 . S
C937 C936 1.516 . S
C937 C938 1.502 . S
C937 C939 1.561 . S
C937 C940 1.526 . S
C938 H922 0.959 . S
C938 H923 0.959 . S
C938 H924 0.961 . S
C938 C937 1.502 . S
C939 H925 0.960 . S
C939 H926 0.961 . S
C939 H927 0.959 . S
C939 C937 1.561 . S
C940 C937 1.526 . S
C940 C941 1.396 . S
C940 C945 1.390 . S
C941 C935 1.465 1_545 S
C941 C940 1.396 . S
C941 C942 1.399 . S
C942 H928 0.929 1_545 S
C942 C941 1.399 . S
C942 C943 1.385 . S
C943 H929 0.931 . S
C943 C942 1.385 . S
C943 C944 1.389 . S
C944 C943 1.389 . S
C944 C945 1.387 . S
C945 H930 0.930 . S
C945 C940 1.390 . S
C945 C944 1.387 . S
H946 C958 0.930 . S
H947 C960 0.930 . S
H948 C961 0.930 . S
H949 C965 0.959 . S
H950 C965 0.959 . S
H951 C965 0.961 1_554 S
H952 C966 0.960 . S
H953 C966 0.961 . S
H954 C966 0.959 . S
H955 C969 0.929 . S
H956 C970 0.931 . S
H957 C972 0.930 . S
C958 H946 0.930 . S
C958 C959 1.399 . S
C958 C963 1.399 . S
C959 C958 1.399 . S
C959 C960 1.376 . S
C960 H947 0.930 . S
C960 C959 1.376 . S
C960 C961 1.388 . S
C961 H948 0.930 . S
C961 C960 1.388 . S
C961 C962 1.390 . S
C962 C961 1.390 . S
C962 C963 1.394 . S
C962 C968 1.465 . S
C963 C958 1.399 . S
C963 C962 1.394 . S
C963 C964 1.516 . S
C964 C963 1.516 . S
C964 C965 1.502 1_554 S
C964 C966 1.561 . S
C964 C967 1.526 1_554 S
C965 H949 0.959 . S
C965 H950 0.959 . S
C965 H951 0.961 1_556 S
C965 C964 1.502 1_556 S
C966 H952 0.960 . S
C966 H953 0.961 . S
C966 H954 0.959 . S
C966 C964 1.561 . S
C967 C964 1.526 1_556 S
C967 C968 1.396 1_556 S
C967 C972 1.390 . S
C968 C962 1.465 . S
C968 C967 1.396 1_554 S
C968 C969 1.399 1_554 S
C969 H955 0.929 . S
C969 C968 1.399 1_556 S
C969 C970 1.385 . S
C970 H956 0.931 . S
C970 C969 1.385 . S
C970 C971 1.389 . S
C971 C970 1.389 . S
C971 C972 1.387 . S
C972 H957 0.930 . S
C972 C967 1.390 . S
C972 C971 1.387 . S
H973 C985 0.930 . S
H974 C987 0.930 . S
H975 C988 0.930 . S
H976 C992 0.959 . S
H977 C992 0.959 . S
H978 C992 0.961 . S
H979 C993 0.960 . S
H980 C993 0.961 . S
H981 C993 0.959 . S
H982 C996 0.929 . S
H983 C997 0.931 . S
H984 C999 0.930 . S
C985 H973 0.930 . S
C985 C986 1.399 . S
C985 C990 1.399 . S
C986 C985 1.399 . S
C986 C987 1.376 1_545 S
C987 H974 0.930 . S
C987 C986 1.376 1_565 S
C987 C988 1.388 . S
C988 H975 0.930 . S
C988 C987 1.388 . S
C988 C989 1.390 . S
C989 C988 1.390 . S
C989 C990 1.394 1_565 S
C989 C995 1.465 . S
C990 C985 1.399 . S
C990 C989 1.394 1_545 S
C990 C991 1.516 . S
C991 C990 1.516 . S
C991 C992 1.502 . S
C991 C993 1.561 . S
C991 C994 1.526 1_545 S
C992 H976 0.959 . S
C992 H977 0.959 . S
C992 H978 0.961 . S
C992 C991 1.502 . S
C993 H979 0.960 . S
C993 H980 0.961 . S
C993 H981 0.959 . S
C993 C991 1.561 . S
C994 C991 1.526 1_565 S
C994 C995 1.396 . S
C994 C999 1.390 . S
C995 C989 1.465 . S
C995 C994 1.396 . S
C995 C996 1.399 . S
C996 H982 0.929 . S
C996 C995 1.399 . S
C996 C997 1.385 . S
C997 H983 0.931 . S
C997 C996 1.385 . S
C997 C998 1.389 . S
C998 C997 1.389 . S
C998 C999 1.387 . S
C999 H984 0.930 . S
C999 C994 1.390 . S
C999 C998 1.387 . S
H1000 C1012 0.930 . S
H1001 C1014 0.930 . S
H1002 C1015 0.930 . S
H1003 C1019 0.959 . S
H1004 C1019 0.959 . S
H1005 C1019 0.961 . S
H1006 C1020 0.960 . S
H1007 C1020 0.961 . S
H1008 C1020 0.959 . S
H1009 C1023 0.929 . S
H1010 C1024 0.931 . S
H1011 C1026 0.930 . S
C1012 H1000 0.930 . S
C1012 C1013 1.399 . S
C1012 C1017 1.399 . S
C1013 C1012 1.399 . S
C1013 C1014 1.376 . S
C1014 H1001 0.930 . S
C1014 C1013 1.376 . S
C1014 C1015 1.388 . S
C1015 H1002 0.930 . S
C1015 C1014 1.388 . S
C1015 C1016 1.390 . S
C1016 C1015 1.390 . S
C1016 C1017 1.394 . S
C1016 C1022 1.465 . S
C1017 C1012 1.399 . S
C1017 C1016 1.394 . S
C1017 C1018 1.516 . S
C1018 C1017 1.516 . S
C1018 C1019 1.502 . S
C1018 C1020 1.561 . S
C1018 C1021 1.526 . S
C1019 H1003 0.959 . S
C1019 H1004 0.959 . S
C1019 H1005 0.961 . S
C1019 C1018 1.502 . S
C1020 H1006 0.960 . S
C1020 H1007 0.961 . S
C1020 H1008 0.959 . S
C1020 C1018 1.561 . S
C1021 C1018 1.526 . S
C1021 C1022 1.396 . S
C1021 C1026 1.390 . S
C1022 C1016 1.465 . S
C1022 C1021 1.396 . S
C1022 C1023 1.399 . S
C1023 H1009 0.929 . S
C1023 C1022 1.399 . S
C1023 C1024 1.385 . S
C1024 H1010 0.931 . S
C1024 C1023 1.385 . S
C1024 C1025 1.389 . S
C1025 C1024 1.389 . S
C1025 C1026 1.387 . S
C1026 H1011 0.930 . S
C1026 C1021 1.390 . S
C1026 C1025 1.387 . S
H1027 C1039 0.930 . S
H1028 C1041 0.930 . S
H1029 C1042 0.930 . S
H1030 C1046 0.959 . S
H1031 C1046 0.959 . S
H1032 C1046 0.961 . S
H1033 C1047 0.960 . S
H1034 C1047 0.961 . S
H1035 C1047 0.959 . S
H1036 C1050 0.929 . S
H1037 C1051 0.931 . S
H1038 C1053 0.930 . S
C1039 H1027 0.930 . S
C1039 C1040 1.399 . S
C1039 C1044 1.399 . S
C1040 C1039 1.399 . S
C1040 C1041 1.376 . S
C1041 H1028 0.930 . S
C1041 C1040 1.376 . S
C1041 C1042 1.388 . S
C1042 H1029 0.930 . S
C1042 C1041 1.388 . S
C1042 C1043 1.390 . S
C1043 C1042 1.390 . S
C1043 C1044 1.394 . S
C1043 C1049 1.465 . S
C1044 C1039 1.399 . S
C1044 C1043 1.394 . S
C1044 C1045 1.516 . S
C1045 C1044 1.516 . S
C1045 C1046 1.502 . S
C1045 C1047 1.561 . S
C1045 C1048 1.526 . S
C1046 H1030 0.959 . S
C1046 H1031 0.959 . S
C1046 H1032 0.961 . S
C1046 C1045 1.502 . S
C1047 H1033 0.960 . S
C1047 H1034 0.961 . S
C1047 H1035 0.959 . S
C1047 C1045 1.561 . S
C1048 C1045 1.526 . S
C1048 C1049 1.396 . S
C1048 C1053 1.390 . S
C1049 C1043 1.465 . S
C1049 C1048 1.396 . S
C1049 C1050 1.399 . S
C1050 H1036 0.929 . S
C1050 C1049 1.399 . S
C1050 C1051 1.385 . S
C1051 H1037 0.931 . S
C1051 C1050 1.385 . S
C1051 C1052 1.389 . S
C1052 C1051 1.389 . S
C1052 C1053 1.387 . S
C1053 H1038 0.930 . S
C1053 C1048 1.390 . S
C1053 C1052 1.387 . S
H1054 C1066 0.930 . S
H1055 C1068 0.930 . S
H1056 C1069 0.930 . S
H1057 C1073 0.959 . S
H1058 C1073 0.959 . S
H1059 C1073 0.961 . S
H1060 C1074 0.960 . S
H1061 C1074 0.961 . S
H1062 C1074 0.959 . S
H1063 C1077 0.929 . S
H1064 C1078 0.931 . S
H1065 C1080 0.930 . S
C1066 H1054 0.930 . S
C1066 C1067 1.399 . S
C1066 C1071 1.399 . S
C1067 C1066 1.399 . S
C1067 C1068 1.376 . S
C1068 H1055 0.930 . S
C1068 C1067 1.376 . S
C1068 C1069 1.388 . S
C1069 H1056 0.930 . S
C1069 C1068 1.388 . S
C1069 C1070 1.390 . S
C1070 C1069 1.390 . S
C1070 C1071 1.394 . S
C1070 C1076 1.465 1_655 S
C1071 C1066 1.399 . S
C1071 C1070 1.394 . S
C1071 C1072 1.516 1_655 S
C1072 C1071 1.516 1_455 S
C1072 C1073 1.502 1_455 S
C1072 C1074 1.561 . S
C1072 C1075 1.526 . S
C1073 H1057 0.959 . S
C1073 H1058 0.959 . S
C1073 H1059 0.961 . S
C1073 C1072 1.502 1_655 S
C1074 H1060 0.960 . S
C1074 H1061 0.961 . S
C1074 H1062 0.959 . S
C1074 C1072 1.561 . S
C1075 C1072 1.526 . S
C1075 C1076 1.396 . S
C1075 C1080 1.390 . S
C1076 C1070 1.465 1_455 S
C1076 C1075 1.396 . S
C1076 C1077 1.399 . S
C1077 H1063 0.929 . S
C1077 C1076 1.399 . S
C1077 C1078 1.385 . S
C1078 H1064 0.931 . S
C1078 C1077 1.385 . S
C1078 C1079 1.389 . S
C1079 C1078 1.389 . S
C1079 C1080 1.387 . S
C1080 H1065 0.930 . S
C1080 C1075 1.390 . S
C1080 C1079 1.387 . S
H1081 C1093 0.930 . S
H1082 C1095 0.930 . S
H1083 C1096 0.930 . S
H1084 C1100 0.959 . S
H1085 C1100 0.959 . S
H1086 C1100 0.961 . S
H1087 C1101 0.960 . S
H1088 C1101 0.961 . S
H1089 C1101 0.959 . S
H1090 C1104 0.929 . S
H1091 C1105 0.931 . S
H1092 C1107 0.930 . S
C1093 H1081 0.930 . S
C1093 C1094 1.399 . S
C1093 C1098 1.399 . S
C1094 C1093 1.399 . S
C1094 C1095 1.376 . S
C1095 H1082 0.930 . S
C1095 C1094 1.376 . S
C1095 C1096 1.388 . S
C1096 H1083 0.930 . S
C1096 C1095 1.388 . S
C1096 C1097 1.390 . S
C1097 C1096 1.390 . S
C1097 C1098 1.394 . S
C1097 C1103 1.465 1_655 S
C1098 C1093 1.399 . S
C1098 C1097 1.394 . S
C1098 C1099 1.516 . S
C1099 C1098 1.516 . S
C1099 C1100 1.502 . S
C1099 C1101 1.561 1_655 S
C1099 C1102 1.526 1_655 S
C1100 H1084 0.959 . S
C1100 H1085 0.959 . S
C1100 H1086 0.961 . S
C1100 C1099 1.502 . S
C1101 H1087 0.960 . S
C1101 H1088 0.961 . S
C1101 H1089 0.959 . S
C1101 C1099 1.561 1_455 S
C1102 C1099 1.526 1_455 S
C1102 C1103 1.396 . S
C1102 C1107 1.390 . S
C1103 C1097 1.465 1_455 S
C1103 C1102 1.396 . S
C1103 C1104 1.399 . S
C1104 H1090 0.929 . S
C1104 C1103 1.399 . S
C1104 C1105 1.385 . S
C1105 H1091 0.931 . S
C1105 C1104 1.385 . S
C1105 C1106 1.389 . S
C1106 C1105 1.389 . S
C1106 C1107 1.387 . S
C1107 H1092 0.930 . S
C1107 C1102 1.390 . S
C1107 C1106 1.387 . S
H1108 C1120 0.930 . S
H1109 C1122 0.930 . S
H1110 C1123 0.930 . S
H1111 C1127 0.959 . S
H1112 C1127 0.959 . S
H1113 C1127 0.961 . S
H1114 C1128 0.960 . S
H1115 C1128 0.961 . S
H1116 C1128 0.959 . S
H1117 C1131 0.929 . S
H1118 C1132 0.931 . S
H1119 C1134 0.930 . S
C1120 H1108 0.930 . S
C1120 C1121 1.399 . S
C1120 C1125 1.399 . S
C1121 C1120 1.399 . S
C1121 C1122 1.376 . S
C1122 H1109 0.930 . S
C1122 C1121 1.376 . S
C1122 C1123 1.388 . S
C1123 H1110 0.930 . S
C1123 C1122 1.388 . S
C1123 C1124 1.390 . S
C1124 C1123 1.390 . S
C1124 C1125 1.394 . S
C1124 C1130 1.465 . S
C1125 C1120 1.399 . S
C1125 C1124 1.394 . S
C1125 C1126 1.516 . S
C1126 C1125 1.516 . S
C1126 C1127 1.502 . S
C1126 C1128 1.561 . S
C1126 C1129 1.526 . S
C1127 H1111 0.959 . S
C1127 H1112 0.959 . S
C1127 H1113 0.961 . S
C1127 C1126 1.502 . S
C1128 H1114 0.960 . S
C1128 H1115 0.961 . S
C1128 H1116 0.959 . S
C1128 C1126 1.561 . S
C1129 C1126 1.526 . S
C1129 C1130 1.396 . S
C1129 C1134 1.390 . S
C1130 C1124 1.465 . S
C1130 C1129 1.396 . S
C1130 C1131 1.399 . S
C1131 H1117 0.929 . S
C1131 C1130 1.399 . S
C1131 C1132 1.385 . S
C1132 H1118 0.931 . S
C1132 C1131 1.385 . S
C1132 C1133 1.389 . S
C1133 C1132 1.389 . S
C1133 C1134 1.387 . S
C1134 H1119 0.930 . S
C1134 C1129 1.390 . S
C1134 C1133 1.387 . S
H1135 C1147 0.930 . S
H1136 C1149 0.930 . S
H1137 C1150 0.930 . S
H1138 C1154 0.959 . S
H1139 C1154 0.959 . S
H1140 C1154 0.961 . S
H1141 C1155 0.960 . S
H1142 C1155 0.961 . S
H1143 C1155 0.959 . S
H1144 C1158 0.929 . S
H1145 C1159 0.931 . S
H1146 C1161 0.930 . S
C1147 H1135 0.930 . S
C1147 C1148 1.399 . S
C1147 C1152 1.399 . S
C1148 C1147 1.399 . S
C1148 C1149 1.376 . S
C1149 H1136 0.930 . S
C1149 C1148 1.376 . S
C1149 C1150 1.388 . S
C1150 H1137 0.930 . S
C1150 C1149 1.388 . S
C1150 C1151 1.390 . S
C1151 C1150 1.390 . S
C1151 C1152 1.394 . S
C1151 C1157 1.465 . S
C1152 C1147 1.399 . S
C1152 C1151 1.394 . S
C1152 C1153 1.516 . S
C1153 C1152 1.516 . S
C1153 C1154 1.502 . S
C1153 C1155 1.561 . S
C1153 C1156 1.526 . S
C1154 H1138 0.959 . S
C1154 H1139 0.959 . S
C1154 H1140 0.961 . S
C1154 C1153 1.502 . S
C1155 H1141 0.960 . S
C1155 H1142 0.961 . S
C1155 H1143 0.959 . S
C1155 C1153 1.561 . S
C1156 C1153 1.526 . S
C1156 C1157 1.396 . S
C1156 C1161 1.390 . S
C1157 C1151 1.465 . S
C1157 C1156 1.396 . S
C1157 C1158 1.399 . S
C1158 H1144 0.929 . S
C1158 C1157 1.399 . S
C1158 C1159 1.385 . S
C1159 H1145 0.931 . S
C1159 C1158 1.385 . S
C1159 C1160 1.389 . S
C1160 C1159 1.389 . S
C1160 C1161 1.387 . S
C1161 H1146 0.930 . S
C1161 C1156 1.390 . S
C1161 C1160 1.387 . S
H1162 C1174 0.930 . S
H1163 C1176 0.930 . S
H1164 C1177 0.930 . S
H1165 C1181 0.959 . S
H1166 C1181 0.959 . S
H1167 C1181 0.961 . S
H1168 C1182 0.960 . S
H1169 C1182 0.961 . S
H1170 C1182 0.959 . S
H1171 C1185 0.929 1_455 S
H1172 C1186 0.931 . S
H1173 C1188 0.930 . S
C1174 H1162 0.930 . S
C1174 C1175 1.399 . S
C1174 C1179 1.399 . S
C1175 C1174 1.399 . S
C1175 C1176 1.376 . S
C1176 H1163 0.930 . S
C1176 C1175 1.376 . S
C1176 C1177 1.388 . S
C1177 H1164 0.930 . S
C1177 C1176 1.388 . S
C1177 C1178 1.390 . S
C1178 C1177 1.390 . S
C1178 C1179 1.394 . S
C1178 C1184 1.465 1_455 S
C1179 C1174 1.399 . S
C1179 C1178 1.394 . S
C1179 C1180 1.516 1_455 S
C1180 C1179 1.516 1_655 S
C1180 C1181 1.502 . S
C1180 C1182 1.561 . S
C1180 C1183 1.526 . S
C1181 H1165 0.959 . S
C1181 H1166 0.959 . S
C1181 H1167 0.961 . S
C1181 C1180 1.502 . S
C1182 H1168 0.960 . S
C1182 H1169 0.961 . S
C1182 H1170 0.959 . S
C1182 C1180 1.561 . S
C1183 C1180 1.526 . S
C1183 C1184 1.396 . S
C1183 C1188 1.390 . S
C1184 C1178 1.465 1_655 S
C1184 C1183 1.396 . S
C1184 C1185 1.399 . S
C1185 H1171 0.929 1_655 S
C1185 C1184 1.399 . S
C1185 C1186 1.385 . S
C1186 H1172 0.931 . S
C1186 C1185 1.385 . S
C1186 C1187 1.389 . S
C1187 C1186 1.389 . S
C1187 C1188 1.387 . S
C1188 H1173 0.930 . S
C1188 C1183 1.390 . S
C1188 C1187 1.387 . S
H1189 C1201 0.930 . S
H1190 C1203 0.930 . S
H1191 C1204 0.930 . S
H1192 C1208 0.959 . S
H1193 C1208 0.959 . S
H1194 C1208 0.961 . S
H1195 C1209 0.960 . S
H1196 C1209 0.961 . S
H1197 C1209 0.959 . S
H1198 C1212 0.929 . S
H1199 C1213 0.931 . S
H1200 C1215 0.930 . S
C1201 H1189 0.930 . S
C1201 C1202 1.399 . S
C1201 C1206 1.399 . S
C1202 C1201 1.399 . S
C1202 C1203 1.376 . S
C1203 H1190 0.930 . S
C1203 C1202 1.376 . S
C1203 C1204 1.388 . S
C1204 H1191 0.930 . S
C1204 C1203 1.388 . S
C1204 C1205 1.390 . S
C1205 C1204 1.390 . S
C1205 C1206 1.394 . S
C1205 C1211 1.465 1_455 S
C1206 C1201 1.399 . S
C1206 C1205 1.394 . S
C1206 C1207 1.516 1_455 S
C1207 C1206 1.516 1_655 S
C1207 C1208 1.502 1_655 S
C1207 C1209 1.561 . S
C1207 C1210 1.526 . S
C1208 H1192 0.959 . S
C1208 H1193 0.959 . S
C1208 H1194 0.961 . S
C1208 C1207 1.502 1_455 S
C1209 H1195 0.960 . S
C1209 H1196 0.961 . S
C1209 H1197 0.959 . S
C1209 C1207 1.561 . S
C1210 C1207 1.526 . S
C1210 C1211 1.396 . S
C1210 C1215 1.390 . S
C1211 C1205 1.465 1_655 S
C1211 C1210 1.396 . S
C1211 C1212 1.399 . S
C1212 H1198 0.929 . S
C1212 C1211 1.399 . S
C1212 C1213 1.385 . S
C1213 H1199 0.931 . S
C1213 C1212 1.385 . S
C1213 C1214 1.389 . S
C1214 C1213 1.389 . S
C1214 C1215 1.387 . S
C1215 H1200 0.930 . S
C1215 C1210 1.390 . S
C1215 C1214 1.387 . S
H1216 C1228 0.930 . S
H1217 C1230 0.930 . S
H1218 C1231 0.930 . S
H1219 C1235 0.959 . S
H1220 C1235 0.959 . S
H1221 C1235 0.961 . S
H1222 C1236 0.960 . S
H1223 C1236 0.961 . S
H1224 C1236 0.959 . S
H1225 C1239 0.929 . S
H1226 C1240 0.931 . S
H1227 C1242 0.930 . S
C1228 H1216 0.930 . S
C1228 C1229 1.399 . S
C1228 C1233 1.399 . S
C1229 C1228 1.399 . S
C1229 C1230 1.376 . S
C1230 H1217 0.930 . S
C1230 C1229 1.376 . S
C1230 C1231 1.388 . S
C1231 H1218 0.930 . S
C1231 C1230 1.388 . S
C1231 C1232 1.390 . S
C1232 C1231 1.390 . S
C1232 C1233 1.394 . S
C1232 C1238 1.465 . S
C1233 C1228 1.399 . S
C1233 C1232 1.394 . S
C1233 C1234 1.516 . S
C1234 C1233 1.516 . S
C1234 C1235 1.502 . S
C1234 C1236 1.561 . S
C1234 C1237 1.526 . S
C1235 H1219 0.959 . S
C1235 H1220 0.959 . S
C1235 H1221 0.961 . S
C1235 C1234 1.502 . S
C1236 H1222 0.960 . S
C1236 H1223 0.961 . S
C1236 H1224 0.959 . S
C1236 C1234 1.561 . S
C1237 C1234 1.526 . S
C1237 C1238 1.396 . S
C1237 C1242 1.390 . S
C1238 C1232 1.465 . S
C1238 C1237 1.396 . S
C1238 C1239 1.399 . S
C1239 H1225 0.929 . S
C1239 C1238 1.399 . S
C1239 C1240 1.385 . S
C1240 H1226 0.931 . S
C1240 C1239 1.385 . S
C1240 C1241 1.389 . S
C1241 C1240 1.389 . S
C1241 C1242 1.387 . S
C1242 H1227 0.930 . S
C1242 C1237 1.390 . S
C1242 C1241 1.387 . S
H1243 C1255 0.930 . S
H1244 C1257 0.930 . S
H1245 C1258 0.930 . S
H1246 C1262 0.959 . S
H1247 C1262 0.959 . S
H1248 C1262 0.961 . S
H1249 C1263 0.960 . S
H1250 C1263 0.961 . S
H1251 C1263 0.959 . S
H1252 C1266 0.929 . S
H1253 C1267 0.931 . S
H1254 C1269 0.930 . S
C1255 H1243 0.930 . S
C1255 C1256 1.399 . S
C1255 C1260 1.399 . S
C1256 C1255 1.399 . S
C1256 C1257 1.376 . S
C1257 H1244 0.930 . S
C1257 C1256 1.376 . S
C1257 C1258 1.388 . S
C1258 H1245 0.930 . S
C1258 C1257 1.388 . S
C1258 C1259 1.390 . S
C1259 C1258 1.390 . S
C1259 C1260 1.394 . S
C1259 C1265 1.465 . S
C1260 C1255 1.399 . S
C1260 C1259 1.394 . S
C1260 C1261 1.516 . S
C1261 C1260 1.516 . S
C1261 C1262 1.502 . S
C1261 C1263 1.561 . S
C1261 C1264 1.526 . S
C1262 H1246 0.959 . S
C1262 H1247 0.959 . S
C1262 H1248 0.961 . S
C1262 C1261 1.502 . S
C1263 H1249 0.960 . S
C1263 H1250 0.961 . S
C1263 H1251 0.959 . S
C1263 C1261 1.561 . S
C1264 C1261 1.526 . S
C1264 C1265 1.396 . S
C1264 C1269 1.390 . S
C1265 C1259 1.465 . S
C1265 C1264 1.396 . S
C1265 C1266 1.399 . S
C1266 H1252 0.929 . S
C1266 C1265 1.399 . S
C1266 C1267 1.385 . S
C1267 H1253 0.931 . S
C1267 C1266 1.385 . S
C1267 C1268 1.389 . S
C1268 C1267 1.389 . S
C1268 C1269 1.387 . S
C1269 H1254 0.930 . S
C1269 C1264 1.390 . S
C1269 C1268 1.387 . S
H1270 C1282 0.930 . S
H1271 C1284 0.930 . S
H1272 C1285 0.930 . S
H1273 C1289 0.959 . S
H1274 C1289 0.959 . S
H1275 C1289 0.961 . S
H1276 C1290 0.960 . S
H1277 C1290 0.961 . S
H1278 C1290 0.959 . S
H1279 C1293 0.929 . S
H1280 C1294 0.931 . S
H1281 C1296 0.930 . S
C1282 H1270 0.930 . S
C1282 C1283 1.399 . S
C1282 C1287 1.399 . S
C1283 C1282 1.399 . S
C1283 C1284 1.376 . S
C1284 H1271 0.930 . S
C1284 C1283 1.376 . S
C1284 C1285 1.388 . S
C1285 H1272 0.930 . S
C1285 C1284 1.388 . S
C1285 C1286 1.390 . S
C1286 C1285 1.390 . S
C1286 C1287 1.394 . S
C1286 C1292 1.465 . S
C1287 C1282 1.399 . S
C1287 C1286 1.394 . S
C1287 C1288 1.516 . S
C1288 C1287 1.516 . S
C1288 C1289 1.502 . S
C1288 C1290 1.561 . S
C1288 C1291 1.526 . S
C1289 H1273 0.959 . S
C1289 H1274 0.959 . S
C1289 H1275 0.961 . S
C1289 C1288 1.502 . S
C1290 H1276 0.960 . S
C1290 H1277 0.961 . S
C1290 H1278 0.959 . S
C1290 C1288 1.561 . S
C1291 C1288 1.526 . S
C1291 C1292 1.396 . S
C1291 C1296 1.390 . S
C1292 C1286 1.465 . S
C1292 C1291 1.396 . S
C1292 C1293 1.399 . S
C1293 H1279 0.929 . S
C1293 C1292 1.399 . S
C1293 C1294 1.385 . S
C1294 H1280 0.931 . S
C1294 C1293 1.385 . S
C1294 C1295 1.389 . S
C1295 C1294 1.389 . S
C1295 C1296 1.387 . S
C1296 H1281 0.930 . S
C1296 C1291 1.390 . S
C1296 C1295 1.387 . S
H1297 C1309 0.930 . S
H1298 C1311 0.930 . S
H1299 C1312 0.930 . S
H1300 C1316 0.959 . S
H1301 C1316 0.959 . S
H1302 C1316 0.961 . S
H1303 C1317 0.960 . S
H1304 C1317 0.961 . S
H1305 C1317 0.959 . S
H1306 C1320 0.929 . S
H1307 C1321 0.931 . S
H1308 C1323 0.930 . S
C1309 H1297 0.930 . S
C1309 C1310 1.399 . S
C1309 C1314 1.399 . S
C1310 C1309 1.399 . S
C1310 C1311 1.376 . S
C1311 H1298 0.930 . S
C1311 C1310 1.376 . S
C1311 C1312 1.388 . S
C1312 H1299 0.930 . S
C1312 C1311 1.388 . S
C1312 C1313 1.390 . S
C1313 C1312 1.390 . S
C1313 C1314 1.394 . S
C1313 C1319 1.465 . S
C1314 C1309 1.399 . S
C1314 C1313 1.394 . S
C1314 C1315 1.516 . S
C1315 C1314 1.516 . S
C1315 C1316 1.502 . S
C1315 C1317 1.561 . S
C1315 C1318 1.526 . S
C1316 H1300 0.959 . S
C1316 H1301 0.959 . S
C1316 H1302 0.961 . S
C1316 C1315 1.502 . S
C1317 H1303 0.960 . S
C1317 H1304 0.961 . S
C1317 H1305 0.959 . S
C1317 C1315 1.561 . S
C1318 C1315 1.526 . S
C1318 C1319 1.396 . S
C1318 C1323 1.390 . S
C1319 C1313 1.465 . S
C1319 C1318 1.396 . S
C1319 C1320 1.399 . S
C1320 H1306 0.929 . S
C1320 C1319 1.399 . S
C1320 C1321 1.385 . S
C1321 H1307 0.931 . S
C1321 C1320 1.385 . S
C1321 C1322 1.389 . S
C1322 C1321 1.389 . S
C1322 C1323 1.387 . S
C1323 H1308 0.930 . S
C1323 C1318 1.390 . S
C1323 C1322 1.387 . S
H1324 C1336 0.930 . S
H1325 C1338 0.930 . S
H1326 C1339 0.930 . S
H1327 C1343 0.959 . S
H1328 C1343 0.959 . S
H1329 C1343 0.961 . S
H1330 C1344 0.960 . S
H1331 C1344 0.961 . S
H1332 C1344 0.959 . S
H1333 C1347 0.929 . S
H1334 C1348 0.931 . S
H1335 C1350 0.930 . S
C1336 H1324 0.930 . S
C1336 C1337 1.399 . S
C1336 C1341 1.399 . S
C1337 C1336 1.399 . S
C1337 C1338 1.376 . S
C1338 H1325 0.930 . S
C1338 C1337 1.376 . S
C1338 C1339 1.388 . S
C1339 H1326 0.930 . S
C1339 C1338 1.388 . S
C1339 C1340 1.390 . S
C1340 C1339 1.390 . S
C1340 C1341 1.394 . S
C1340 C1346 1.465 . S
C1341 C1336 1.399 . S
C1341 C1340 1.394 . S
C1341 C1342 1.516 . S
C1342 C1341 1.516 . S
C1342 C1343 1.502 . S
C1342 C1344 1.561 . S
C1342 C1345 1.526 . S
C1343 H1327 0.959 . S
C1343 H1328 0.959 . S
C1343 H1329 0.961 . S
C1343 C1342 1.502 . S
C1344 H1330 0.960 . S
C1344 H1331 0.961 . S
C1344 H1332 0.959 . S
C1344 C1342 1.561 . S
C1345 C1342 1.526 . S
C1345 C1346 1.396 . S
C1345 C1350 1.390 . S
C1346 C1340 1.465 . S
C1346 C1345 1.396 . S
C1346 C1347 1.399 . S
C1347 H1333 0.929 . S
C1347 C1346 1.399 . S
C1347 C1348 1.385 . S
C1348 H1334 0.931 . S
C1348 C1347 1.385 . S
C1348 C1349 1.389 . S
C1349 C1348 1.389 . S
C1349 C1350 1.387 . S
C1350 H1335 0.930 . S
C1350 C1345 1.390 . S
C1350 C1349 1.387 . S
H1351 C1363 0.930 . S
H1352 C1365 0.930 . S
H1353 C1366 0.930 . S
H1354 C1370 0.959 . S
H1355 C1370 0.959 . S
H1356 C1370 0.961 . S
H1357 C1371 0.960 . S
H1358 C1371 0.961 . S
H1359 C1371 0.959 . S
H1360 C1374 0.929 . S
H1361 C1375 0.931 . S
H1362 C1377 0.930 . S
C1363 H1351 0.930 . S
C1363 C1364 1.399 . S
C1363 C1368 1.399 . S
C1364 C1363 1.399 . S
C1364 C1365 1.376 . S
C1365 H1352 0.930 . S
C1365 C1364 1.376 . S
C1365 C1366 1.388 . S
C1366 H1353 0.930 . S
C1366 C1365 1.388 . S
C1366 C1367 1.390 . S
C1367 C1366 1.390 . S
C1367 C1368 1.394 . S
C1367 C1373 1.465 . S
C1368 C1363 1.399 . S
C1368 C1367 1.394 . S
C1368 C1369 1.516 . S
C1369 C1368 1.516 . S
C1369 C1370 1.502 . S
C1369 C1371 1.561 . S
C1369 C1372 1.526 . S
C1370 H1354 0.959 . S
C1370 H1355 0.959 . S
C1370 H1356 0.961 . S
C1370 C1369 1.502 . S
C1371 H1357 0.960 . S
C1371 H1358 0.961 . S
C1371 H1359 0.959 . S
C1371 C1369 1.561 . S
C1372 C1369 1.526 . S
C1372 C1373 1.396 . S
C1372 C1377 1.390 . S
C1373 C1367 1.465 . S
C1373 C1372 1.396 . S
C1373 C1374 1.399 . S
C1374 H1360 0.929 . S
C1374 C1373 1.399 . S
C1374 C1375 1.385 . S
C1375 H1361 0.931 . S
C1375 C1374 1.385 . S
C1375 C1376 1.389 . S
C1376 C1375 1.389 . S
C1376 C1377 1.387 . S
C1377 H1362 0.930 . S
C1377 C1372 1.390 . S
C1377 C1376 1.387 . S
H1378 C1390 0.930 . S
H1379 C1392 0.930 . S
H1380 C1393 0.930 . S
H1381 C1397 0.959 . S
H1382 C1397 0.959 . S
H1383 C1397 0.961 . S
H1384 C1398 0.960 . S
H1385 C1398 0.961 . S
H1386 C1398 0.959 . S
H1387 C1401 0.929 . S
H1388 C1402 0.931 . S
H1389 C1404 0.930 . S
C1390 H1378 0.930 . S
C1390 C1391 1.399 . S
C1390 C1395 1.399 . S
C1391 C1390 1.399 . S
C1391 C1392 1.376 . S
C1392 H1379 0.930 . S
C1392 C1391 1.376 . S
C1392 C1393 1.388 . S
C1393 H1380 0.930 . S
C1393 C1392 1.388 . S
C1393 C1394 1.390 . S
C1394 C1393 1.390 . S
C1394 C1395 1.394 . S
C1394 C1400 1.465 . S
C1395 C1390 1.399 . S
C1395 C1394 1.394 . S
C1395 C1396 1.516 . S
C1396 C1395 1.516 . S
C1396 C1397 1.502 . S
C1396 C1398 1.561 . S
C1396 C1399 1.526 . S
C1397 H1381 0.959 . S
C1397 H1382 0.959 . S
C1397 H1383 0.961 . S
C1397 C1396 1.502 . S
C1398 H1384 0.960 . S
C1398 H1385 0.961 . S
C1398 H1386 0.959 . S
C1398 C1396 1.561 . S
C1399 C1396 1.526 . S
C1399 C1400 1.396 . S
C1399 C1404 1.390 . S
C1400 C1394 1.465 . S
C1400 C1399 1.396 . S
C1400 C1401 1.399 . S
C1401 H1387 0.929 . S
C1401 C1400 1.399 . S
C1401 C1402 1.385 . S
C1402 H1388 0.931 . S
C1402 C1401 1.385 . S
C1402 C1403 1.389 . S
C1403 C1402 1.389 . S
C1403 C1404 1.387 . S
C1404 H1389 0.930 . S
C1404 C1399 1.390 . S
C1404 C1403 1.387 . S
H1405 C1417 0.930 . S
H1406 C1419 0.930 . S
H1407 C1420 0.930 . S
H1408 C1424 0.959 . S
H1409 C1424 0.959 . S
H1410 C1424 0.961 . S
H1411 C1425 0.960 . S
H1412 C1425 0.961 . S
H1413 C1425 0.959 . S
H1414 C1428 0.929 . S
H1415 C1429 0.931 . S
H1416 C1431 0.930 . S
C1417 H1405 0.930 . S
C1417 C1418 1.399 . S
C1417 C1422 1.399 . S
C1418 C1417 1.399 . S
C1418 C1419 1.376 . S
C1419 H1406 0.930 . S
C1419 C1418 1.376 . S
C1419 C1420 1.388 . S
C1420 H1407 0.930 . S
C1420 C1419 1.388 . S
C1420 C1421 1.390 . S
C1421 C1420 1.390 . S
C1421 C1422 1.394 . S
C1421 C1427 1.465 . S
C1422 C1417 1.399 . S
C1422 C1421 1.394 . S
C1422 C1423 1.516 . S
C1423 C1422 1.516 . S
C1423 C1424 1.502 . S
C1423 C1425 1.561 . S
C1423 C1426 1.526 . S
C1424 H1408 0.959 . S
C1424 H1409 0.959 . S
C1424 H1410 0.961 . S
C1424 C1423 1.502 . S
C1425 H1411 0.960 . S
C1425 H1412 0.961 . S
C1425 H1413 0.959 . S
C1425 C1423 1.561 . S
C1426 C1423 1.526 . S
C1426 C1427 1.396 . S
C1426 C1431 1.390 . S
C1427 C1421 1.465 . S
C1427 C1426 1.396 . S
C1427 C1428 1.399 . S
C1428 H1414 0.929 . S
C1428 C1427 1.399 . S
C1428 C1429 1.385 . S
C1429 H1415 0.931 . S
C1429 C1428 1.385 . S
C1429 C1430 1.389 . S
C1430 C1429 1.389 . S
C1430 C1431 1.387 . S
C1431 H1416 0.930 . S
C1431 C1426 1.390 . S
C1431 C1430 1.387 . S
H1432 C1444 0.930 . S
H1433 C1446 0.930 . S
H1434 C1447 0.930 . S
H1435 C1451 0.959 . S
H1436 C1451 0.959 . S
H1437 C1451 0.961 . S
H1438 C1452 0.960 . S
H1439 C1452 0.961 . S
H1440 C1452 0.959 . S
H1441 C1455 0.929 . S
H1442 C1456 0.931 . S
H1443 C1458 0.930 . S
C1444 H1432 0.930 . S
C1444 C1445 1.399 . S
C1444 C1449 1.399 . S
C1445 C1444 1.399 . S
C1445 C1446 1.376 . S
C1446 H1433 0.930 . S
C1446 C1445 1.376 . S
C1446 C1447 1.388 . S
C1447 H1434 0.930 . S
C1447 C1446 1.388 . S
C1447 C1448 1.390 . S
C1448 C1447 1.390 . S
C1448 C1449 1.394 . S
C1448 C1454 1.465 . S
C1449 C1444 1.399 . S
C1449 C1448 1.394 . S
C1449 C1450 1.516 . S
C1450 C1449 1.516 . S
C1450 C1451 1.502 . S
C1450 C1452 1.561 . S
C1450 C1453 1.526 . S
C1451 H1435 0.959 . S
C1451 H1436 0.959 . S
C1451 H1437 0.961 . S
C1451 C1450 1.502 . S
C1452 H1438 0.960 . S
C1452 H1439 0.961 . S
C1452 H1440 0.959 . S
C1452 C1450 1.561 . S
C1453 C1450 1.526 . S
C1453 C1454 1.396 . S
C1453 C1458 1.390 . S
C1454 C1448 1.465 . S
C1454 C1453 1.396 . S
C1454 C1455 1.399 . S
C1455 H1441 0.929 . S
C1455 C1454 1.399 . S
C1455 C1456 1.385 . S
C1456 H1442 0.931 . S
C1456 C1455 1.385 . S
C1456 C1457 1.389 . S
C1457 C1456 1.389 . S
C1457 C1458 1.387 . S
C1458 H1443 0.930 . S
C1458 C1453 1.390 . S
C1458 C1457 1.387 . S
H1459 C1471 0.930 . S
H1460 C1473 0.930 . S
H1461 C1474 0.930 . S
H1462 C1478 0.959 . S
H1463 C1478 0.959 . S
H1464 C1478 0.961 . S
H1465 C1479 0.960 . S
H1466 C1479 0.961 1_545 S
H1467 C1479 0.959 . S
H1468 C1482 0.929 . S
H1469 C1483 0.931 . S
H1470 C1485 0.930 . S
C1471 H1459 0.930 . S
C1471 C1472 1.399 . S
C1471 C1476 1.399 . S
C1472 C1471 1.399 . S
C1472 C1473 1.376 . S
C1473 H1460 0.930 . S
C1473 C1472 1.376 . S
C1473 C1474 1.388 . S
C1474 H1461 0.930 . S
C1474 C1473 1.388 . S
C1474 C1475 1.390 . S
C1475 C1474 1.390 . S
C1475 C1476 1.394 . S
C1475 C1481 1.465 . S
C1476 C1471 1.399 . S
C1476 C1475 1.394 . S
C1476 C1477 1.516 1_565 S
C1477 C1476 1.516 1_545 S
C1477 C1478 1.502 . S
C1477 C1479 1.561 1_545 S
C1477 C1480 1.526 . S
C1478 H1462 0.959 . S
C1478 H1463 0.959 . S
C1478 H1464 0.961 . S
C1478 C1477 1.502 . S
C1479 H1465 0.960 . S
C1479 H1466 0.961 1_565 S
C1479 H1467 0.959 . S
C1479 C1477 1.561 1_565 S
C1480 C1477 1.526 . S
C1480 C1481 1.396 1_545 S
C1480 C1485 1.390 . S
C1481 C1475 1.465 . S
C1481 C1480 1.396 1_565 S
C1481 C1482 1.399 . S
C1482 H1468 0.929 . S
C1482 C1481 1.399 . S
C1482 C1483 1.385 1_565 S
C1483 H1469 0.931 . S
C1483 C1482 1.385 1_545 S
C1483 C1484 1.389 . S
C1484 C1483 1.389 . S
C1484 C1485 1.387 . S
C1485 H1470 0.930 . S
C1485 C1480 1.390 . S
C1485 C1484 1.387 . S
H1486 C1498 0.930 . S
H1487 C1500 0.930 . S
H1488 C1501 0.930 . S
H1489 C1505 0.959 . S
H1490 C1505 0.959 . S
H1491 C1505 0.961 . S
H1492 C1506 0.960 . S
H1493 C1506 0.961 . S
H1494 C1506 0.959 . S
H1495 C1509 0.929 . S
H1496 C1510 0.931 . S
H1497 C1512 0.930 . S
C1498 H1486 0.930 . S
C1498 C1499 1.399 . S
C1498 C1503 1.399 . S
C1499 C1498 1.399 . S
C1499 C1500 1.376 . S
C1500 H1487 0.930 . S
C1500 C1499 1.376 . S
C1500 C1501 1.388 . S
C1501 H1488 0.930 . S
C1501 C1500 1.388 . S
C1501 C1502 1.390 . S
C1502 C1501 1.390 . S
C1502 C1503 1.394 . S
C1502 C1508 1.465 . S
C1503 C1498 1.399 . S
C1503 C1502 1.394 . S
C1503 C1504 1.516 . S
C1504 C1503 1.516 . S
C1504 C1505 1.502 . S
C1504 C1506 1.561 . S
C1504 C1507 1.526 . S
C1505 H1489 0.959 . S
C1505 H1490 0.959 . S
C1505 H1491 0.961 . S
C1505 C1504 1.502 . S
C1506 H1492 0.960 . S
C1506 H1493 0.961 . S
C1506 H1494 0.959 . S
C1506 C1504 1.561 . S
C1507 C1504 1.526 . S
C1507 C1508 1.396 . S
C1507 C1512 1.390 . S
C1508 C1502 1.465 . S
C1508 C1507 1.396 . S
C1508 C1509 1.399 . S
C1509 H1495 0.929 . S
C1509 C1508 1.399 . S
C1509 C1510 1.385 . S
C1510 H1496 0.931 . S
C1510 C1509 1.385 . S
C1510 C1511 1.389 . S
C1511 C1510 1.389 . S
C1511 C1512 1.387 . S
C1512 H1497 0.930 . S
C1512 C1507 1.390 . S
C1512 C1511 1.387 . S
H1513 C1525 0.930 . S
H1514 C1527 0.930 . S
H1515 C1528 0.930 . S
H1516 C1532 0.959 . S
H1517 C1532 0.959 . S
H1518 C1532 0.961 . S
H1519 C1533 0.960 . S
H1520 C1533 0.961 . S
H1521 C1533 0.959 . S
H1522 C1536 0.929 . S
H1523 C1537 0.931 . S
H1524 C1539 0.930 . S
C1525 H1513 0.930 . S
C1525 C1526 1.399 . S
C1525 C1530 1.399 . S
C1526 C1525 1.399 . S
C1526 C1527 1.376 . S
C1527 H1514 0.930 . S
C1527 C1526 1.376 . S
C1527 C1528 1.388 . S
C1528 H1515 0.930 . S
C1528 C1527 1.388 . S
C1528 C1529 1.390 . S
C1529 C1528 1.390 . S
C1529 C1530 1.394 . S
C1529 C1535 1.465 1_565 S
C1530 C1525 1.399 . S
C1530 C1529 1.394 . S
C1530 C1531 1.516 1_565 S
C1531 C1530 1.516 1_545 S
C1531 C1532 1.502 1_545 S
C1531 C1533 1.561 . S
C1531 C1534 1.526 . S
C1532 H1516 0.959 . S
C1532 H1517 0.959 . S
C1532 H1518 0.961 . S
C1532 C1531 1.502 1_565 S
C1533 H1519 0.960 . S
C1533 H1520 0.961 . S
C1533 H1521 0.959 . S
C1533 C1531 1.561 . S
C1534 C1531 1.526 . S
C1534 C1535 1.396 . S
C1534 C1539 1.390 . S
C1535 C1529 1.465 1_545 S
C1535 C1534 1.396 . S
C1535 C1536 1.399 . S
C1536 H1522 0.929 . S
C1536 C1535 1.399 . S
C1536 C1537 1.385 . S
C1537 H1523 0.931 . S
C1537 C1536 1.385 . S
C1537 C1538 1.389 . S
C1538 C1537 1.389 . S
C1538 C1539 1.387 . S
C1539 H1524 0.930 . S
C1539 C1534 1.390 . S
C1539 C1538 1.387 . S
H1540 C1552 0.930 . S
H1541 C1554 0.930 . S
H1542 C1555 0.930 . S
H1543 C1559 0.959 . S
H1544 C1559 0.959 . S
H1545 C1559 0.961 . S
H1546 C1560 0.960 . S
H1547 C1560 0.961 . S
H1548 C1560 0.959 . S
H1549 C1563 0.929 . S
H1550 C1564 0.931 . S
H1551 C1566 0.930 . S
C1552 H1540 0.930 . S
C1552 C1553 1.399 . S
C1552 C1557 1.399 . S
C1553 C1552 1.399 . S
C1553 C1554 1.376 . S
C1554 H1541 0.930 . S
C1554 C1553 1.376 . S
C1554 C1555 1.388 . S
C1555 H1542 0.930 . S
C1555 C1554 1.388 . S
C1555 C1556 1.390 . S
C1556 C1555 1.390 . S
C1556 C1557 1.394 . S
C1556 C1562 1.465 . S
C1557 C1552 1.399 . S
C1557 C1556 1.394 . S
C1557 C1558 1.516 . S
C1558 C1557 1.516 . S
C1558 C1559 1.502 . S
C1558 C1560 1.561 . S
C1558 C1561 1.526 . S
C1559 H1543 0.959 . S
C1559 H1544 0.959 . S
C1559 H1545 0.961 . S
C1559 C1558 1.502 . S
C1560 H1546 0.960 . S
C1560 H1547 0.961 . S
C1560 H1548 0.959 . S
C1560 C1558 1.561 . S
C1561 C1558 1.526 . S
C1561 C1562 1.396 . S
C1561 C1566 1.390 . S
C1562 C1556 1.465 . S
C1562 C1561 1.396 . S
C1562 C1563 1.399 . S
C1563 H1549 0.929 . S
C1563 C1562 1.399 . S
C1563 C1564 1.385 . S
C1564 H1550 0.931 . S
C1564 C1563 1.385 . S
C1564 C1565 1.389 . S
C1565 C1564 1.389 . S
C1565 C1566 1.387 . S
C1566 H1551 0.930 . S
C1566 C1561 1.390 . S
C1566 C1565 1.387 . S
H1567 C1579 0.930 . S
H1568 C1581 0.930 . S
H1569 C1582 0.930 . S
H1570 C1586 0.959 . S
H1571 C1586 0.959 . S
H1572 C1586 0.961 . S
H1573 C1587 0.960 . S
H1574 C1587 0.961 . S
H1575 C1587 0.959 1_545 S
H1576 C1590 0.929 . S
H1577 C1591 0.931 . S
H1578 C1593 0.930 . S
C1579 H1567 0.930 . S
C1579 C1580 1.399 . S
C1579 C1584 1.399 . S
C1580 C1579 1.399 . S
C1580 C1581 1.376 . S
C1581 H1568 0.930 . S
C1581 C1580 1.376 . S
C1581 C1582 1.388 1_565 S
C1582 H1569 0.930 . S
C1582 C1581 1.388 1_545 S
C1582 C1583 1.390 . S
C1583 C1582 1.390 . S
C1583 C1584 1.394 1_545 S
C1583 C1589 1.465 . S
C1584 C1579 1.399 . S
C1584 C1583 1.394 1_565 S
C1584 C1585 1.516 . S
C1585 C1584 1.516 . S
C1585 C1586 1.502 . S
C1585 C1587 1.561 . S
C1585 C1588 1.526 1_565 S
C1586 H1570 0.959 . S
C1586 H1571 0.959 . S
C1586 H1572 0.961 . S
C1586 C1585 1.502 . S
C1587 H1573 0.960 . S
C1587 H1574 0.961 . S
C1587 H1575 0.959 1_565 S
C1587 C1585 1.561 . S
C1588 C1585 1.526 1_545 S
C1588 C1589 1.396 . S
C1588 C1593 1.390 . S
C1589 C1583 1.465 . S
C1589 C1588 1.396 . S
C1589 C1590 1.399 . S
C1590 H1576 0.929 . S
C1590 C1589 1.399 . S
C1590 C1591 1.385 . S
C1591 H1577 0.931 . S
C1591 C1590 1.385 . S
C1591 C1592 1.389 . S
C1592 C1591 1.389 . S
C1592 C1593 1.387 . S
C1593 H1578 0.930 . S
C1593 C1588 1.390 . S
C1593 C1592 1.387 . S
H1594 C1606 0.930 . S
H1595 C1608 0.930 . S
H1596 C1609 0.930 . S
H1597 C1613 0.959 . S
H1598 C1613 0.959 . S
H1599 C1613 0.961 . S
H1600 C1614 0.960 . S
H1601 C1614 0.961 . S
H1602 C1614 0.959 . S
H1603 C1617 0.929 . S
H1604 C1618 0.931 . S
H1605 C1620 0.930 . S
C1606 H1594 0.930 . S
C1606 C1607 1.399 . S
C1606 C1611 1.399 . S
C1607 C1606 1.399 . S
C1607 C1608 1.376 . S
C1608 H1595 0.930 . S
C1608 C1607 1.376 . S
C1608 C1609 1.388 . S
C1609 H1596 0.930 . S
C1609 C1608 1.388 . S
C1609 C1610 1.390 . S
C1610 C1609 1.390 . S
C1610 C1611 1.394 . S
C1610 C1616 1.465 . S
C1611 C1606 1.399 . S
C1611 C1610 1.394 . S
C1611 C1612 1.516 . S
C1612 C1611 1.516 . S
C1612 C1613 1.502 . S
C1612 C1614 1.561 . S
C1612 C1615 1.526 . S
C1613 H1597 0.959 . S
C1613 H1598 0.959 . S
C1613 H1599 0.961 . S
C1613 C1612 1.502 . S
C1614 H1600 0.960 . S
C1614 H1601 0.961 . S
C1614 H1602 0.959 . S
C1614 C1612 1.561 . S
C1615 C1612 1.526 . S
C1615 C1616 1.396 . S
C1615 C1620 1.390 . S
C1616 C1610 1.465 . S
C1616 C1615 1.396 . S
C1616 C1617 1.399 . S
C1617 H1603 0.929 . S
C1617 C1616 1.399 . S
C1617 C1618 1.385 . S
C1618 H1604 0.931 . S
C1618 C1617 1.385 . S
C1618 C1619 1.389 . S
C1619 C1618 1.389 . S
C1619 C1620 1.387 . S
C1620 H1605 0.930 . S
C1620 C1615 1.390 . S
C1620 C1619 1.387 . S
H1621 C1633 0.930 . S
H1622 C1635 0.930 . S
H1623 C1636 0.930 . S
H1624 C1640 0.959 . S
H1625 C1640 0.959 . S
H1626 C1640 0.961 . S
H1627 C1641 0.960 . S
H1628 C1641 0.961 . S
H1629 C1641 0.959 1_565 S
H1630 C1644 0.929 . S
H1631 C1645 0.931 . S
H1632 C1647 0.930 . S
C1633 H1621 0.930 . S
C1633 C1634 1.399 . S
C1633 C1638 1.399 . S
C1634 C1633 1.399 . S
C1634 C1635 1.376 . S
C1635 H1622 0.930 . S
C1635 C1634 1.376 . S
C1635 C1636 1.388 . S
C1636 H1623 0.930 . S
C1636 C1635 1.388 . S
C1636 C1637 1.390 . S
C1637 C1636 1.390 . S
C1637 C1638 1.394 . S
C1637 C1643 1.465 . S
C1638 C1633 1.399 . S
C1638 C1637 1.394 . S
C1638 C1639 1.516 1_565 S
C1639 C1638 1.516 1_545 S
C1639 C1640 1.502 . S
C1639 C1641 1.561 . S
C1639 C1642 1.526 . S
C1640 H1624 0.959 . S
C1640 H1625 0.959 . S
C1640 H1626 0.961 . S
C1640 C1639 1.502 . S
C1641 H1627 0.960 . S
C1641 H1628 0.961 . S
C1641 H1629 0.959 1_545 S
C1641 C1639 1.561 . S
C1642 C1639 1.526 . S
C1642 C1643 1.396 1_545 S
C1642 C1647 1.390 . S
C1643 C1637 1.465 . S
C1643 C1642 1.396 1_565 S
C1643 C1644 1.399 . S
C1644 H1630 0.929 . S
C1644 C1643 1.399 . S
C1644 C1645 1.385 1_565 S
C1645 H1631 0.931 . S
C1645 C1644 1.385 1_545 S
C1645 C1646 1.389 . S
C1646 C1645 1.389 . S
C1646 C1647 1.387 . S
C1647 H1632 0.930 . S
C1647 C1642 1.390 . S
C1647 C1646 1.387 . S
C365 C7 1.242 . S
C377 C273 1.169 . S
C392 C119 1.264 . S
C404 C29 1.156 . S
C419 C50 1.182 . S
C431 C313 1.225 . S
C446 C72 1.168 . S
C458 C159 1.262 . S
C473 C97 1.213 . S
C485 C183 1.228 . S
C500 C226 1.157 . S
C512 C137 1.266 . S
C527 C295 1.267 . S
C539 C205 1.158 . S
C554 C248 1.202 . S
C566 C335 1.238 . S
C581 C206 1.600 . S
C593 C6 1.493 . S
C608 C28 1.503 . S
C620 C224 1.599 . S
C635 C51 1.560 . S
C647 C246 1.607 . S
C662 C184 1.604 . S
C674 C73 1.550 . S
C689 C294 1.614 . S
C701 C93 1.566 . S
C716 C312 1.599 . S
C728 C115 1.489 . S
C743 C141 1.506 . S
C755 C334 1.601 . S
C770 C272 1.614 . S
C782 C163 1.567 . S
C797 C182 1.543 . S
C809 C30 1.603 . S
C824 C204 1.486 . S
C836 C48 1.604 . S
C851 C227 1.538 . S
C863 C70 1.602 . S
C878 C8 1.612 . S
C890 C249 1.571 . S
C905 C118 1.606 . S
C917 C269 1.508 . S
C932 C291 1.565 . S
C944 C136 1.614 . S
C959 C158 1.606 . S
C971 C317 1.536 . S
C986 C339 1.516 . S
C998 C96 1.608 . S
C1013 C4 0.667 . S
C1025 C228 0.592 . S
C1040 C26 0.517 . S
C1052 C250 0.556 . S
C1067 C180 0.745 . S
C1079 C52 0.721 . S
C1094 C74 0.518 . S
C1106 C202 0.559 . S
C1121 C92 0.592 . S
C1133 C316 0.719 . S
C1148 C114 0.618 . S
C1160 C338 0.519 . S
C1175 C268 0.604 . S
C1187 C140 0.726 . S
C1202 C162 0.702 . S
C1214 C290 0.737 . S
C1229 C5 1.426 . S
C1241 C160 1.518 . S
C1256 C271 1.554 . S
C1268 C27 1.464 . S
C1283 C53 1.425 . S
C1295 C117 1.520 . S
C1310 C75 1.429 . S
C1322 C314 1.527 . S
C1337 C94 1.427 . S
C1349 C71 1.523 . S
C1364 C185 1.537 . S
C1376 C116 1.444 . S
C1391 C139 1.470 . S
C1403 C31 1.557 . S
C1418 C225 1.517 . S
C1430 C161 1.429 . S
C1445 C181 1.532 . S
C1457 C336 1.585 1_565 S
C1472 C95 1.544 . S
C1484 C203 1.484 . S
C1499 C293 1.559 1_545 S
C1511 C229 1.472 . S
C1526 C251 1.426 . S
C1538 C138 1.523 . S
C1553 C270 1.481 . S
C1565 C247 1.564 1_545 S
C1580 C292 1.457 . S
C1592 C9 1.548 . S
C1607 C207 1.544 1_565 S
C1619 C315 1.453 . S
C1634 C49 1.521 . S
C1646 C337 1.427 . S
