# Generated by pormake.
# Topology wjz, (5)-cn, num edge types: 1
# Building blocks:
#     Node 0, Type 0, BuildingBlock: BEQFEK_clean_sbu_0, # of connection points: 5
#     Node 1, Type 0, BuildingBlock: BEQFEK_clean_sbu_0, # of connection points: 5
#     Node 2, Type 0, BuildingBlock: BEQFEK_clean_sbu_0, # of connection points: 5
#     Node 3, Type 0, BuildingBlock: BEQFEK_clean_sbu_0, # of connection points: 5
#     Node 4, Type 0, BuildingBlock: BEQFEK_clean_sbu_0, # of connection points: 5
#     Node 5, Type 0, BuildingBlock: BEQFEK_clean_sbu_0, # of connection points: 5
#     Node 6, Type 0, BuildingBlock: BEQFEK_clean_sbu_0, # of connection points: 5
#     Node 7, Type 0, BuildingBlock: BEQFEK_clean_sbu_0, # of connection points: 5
#     Node 8, Type 0, BuildingBlock: BEQFEK_clean_sbu_0, # of connection points: 5
#     Node 9, Type 0, BuildingBlock: BEQFEK_clean_sbu_0, # of connection points: 5
#     Node 10, Type 0, BuildingBlock: BEQFEK_clean_sbu_0, # of connection points: 5
#     Node 11, Type 0, BuildingBlock: BEQFEK_clean_sbu_0, # of connection points: 5
#     Edge 12, Type (0, 0), BuildingBlock: MIFKUJ_clean_linker_0, # of connection points: 2
#     Edge 13, Type (0, 0), BuildingBlock: MIFKUJ_clean_linker_0, # of connection points: 2
#     Edge 14, Type (0, 0), BuildingBlock: MIFKUJ_clean_linker_0, # of connection points: 2
#     Edge 15, Type (0, 0), BuildingBlock: MIFKUJ_clean_linker_0, # of connection points: 2
#     Edge 16, Type (0, 0), BuildingBlock: MIFKUJ_clean_linker_0, # of connection points: 2
#     Edge 17, Type (0, 0), BuildingBlock: MIFKUJ_clean_linker_0, # of connection points: 2
#     Edge 18, Type (0, 0), BuildingBlock: MIFKUJ_clean_linker_0, # of connection points: 2
#     Edge 19, Type (0, 0), BuildingBlock: MIFKUJ_clean_linker_0, # of connection points: 2
#     Edge 20, Type (0, 0), BuildingBlock: MIFKUJ_clean_linker_0, # of connection points: 2
#     Edge 21, Type (0, 0), BuildingBlock: MIFKUJ_clean_linker_0, # of connection points: 2
#     Edge 22, Type (0, 0), BuildingBlock: MIFKUJ_clean_linker_0, # of connection points: 2
#     Edge 23, Type (0, 0), BuildingBlock: MIFKUJ_clean_linker_0, # of connection points: 2
#     Edge 24, Type (0, 0), BuildingBlock: MIFKUJ_clean_linker_0, # of connection points: 2
#     Edge 25, Type (0, 0), BuildingBlock: MIFKUJ_clean_linker_0, # of connection points: 2
#     Edge 26, Type (0, 0), BuildingBlock: MIFKUJ_clean_linker_0, # of connection points: 2
#     Edge 27, Type (0, 0), BuildingBlock: MIFKUJ_clean_linker_0, # of connection points: 2
#     Edge 28, Type (0, 0), BuildingBlock: MIFKUJ_clean_linker_0, # of connection points: 2
#     Edge 29, Type (0, 0), BuildingBlock: MIFKUJ_clean_linker_0, # of connection points: 2
#     Edge 30, Type (0, 0), BuildingBlock: MIFKUJ_clean_linker_0, # of connection points: 2
#     Edge 31, Type (0, 0), BuildingBlock: MIFKUJ_clean_linker_0, # of connection points: 2
#     Edge 32, Type (0, 0), BuildingBlock: MIFKUJ_clean_linker_0, # of connection points: 2
#     Edge 33, Type (0, 0), BuildingBlock: MIFKUJ_clean_linker_0, # of connection points: 2
#     Edge 34, Type (0, 0), BuildingBlock: MIFKUJ_clean_linker_0, # of connection points: 2
#     Edge 35, Type (0, 0), BuildingBlock: MIFKUJ_clean_linker_0, # of connection points: 2
#     Edge 36, Type (0, 0), BuildingBlock: MIFKUJ_clean_linker_0, # of connection points: 2
#     Edge 37, Type (0, 0), BuildingBlock: MIFKUJ_clean_linker_0, # of connection points: 2
#     Edge 38, Type (0, 0), BuildingBlock: MIFKUJ_clean_linker_0, # of connection points: 2
#     Edge 39, Type (0, 0), BuildingBlock: MIFKUJ_clean_linker_0, # of connection points: 2
#     Edge 40, Type (0, 0), BuildingBlock: MIFKUJ_clean_linker_0, # of connection points: 2
#     Edge 41, Type (0, 0), BuildingBlock: MIFKUJ_clean_linker_0, # of connection points: 2
# Relax obj value: 0.200
# Max RMSD: 0.187
# Mean RMSD: 0.187
data_MOF--net-wjz--node1-BEQFEK_clean_sbu_0--edge1-MIFKUJ_clean_linker_0
_symmetry_space_group_name_H-M    P1
_symmetry_Int_Tables_number       1
_symmetry_cell_setting            triclinic
loop_
_symmetry_equiv_pos_as_xyz
'x, y, z'
_cell_length_a     92.496238
_cell_length_b     92.489706
_cell_length_c     22.695809
_cell_angle_alpha  90.009577
_cell_angle_beta   89.986247
_cell_angle_gamma 119.9832
loop_
_atom_site_label
_atom_site_type_symbol
_atom_site_fract_x
_atom_site_fract_y
_atom_site_fract_z
_atom_type_partial_charge
Co0 Co 0.34127 0.46032 0.10134 0.0
Co1 Co 0.35711 0.47809 0.22005 0.0
C2 C 0.35796 0.44739 0.17878 0.0
O3 O 0.34926 0.44568 0.13314 0.0
O4 O 0.36202 0.45946 0.21444 0.0
C5 C 0.33263 0.44209 0.99379 0.0
O6 O 0.34235 0.43666 0.01413 0.0
C7 C 0.35965 0.47797 0.34676 0.0
C8 C 0.37056 0.50457 0.37068 0.0
C9 C 0.36431 0.48873 0.39439 0.0
N10 N 0.36299 0.48698 0.29723 0.0
N11 N 0.36974 0.50291 0.31158 0.0
C12 C 0.35023 0.45927 0.34785 0.0
H13 H 0.34268 0.45427 0.30717 0.0
H14 H 0.3419 0.45453 0.38685 0.0
H15 H 0.35925 0.45469 0.35012 0.0
C16 C 0.3114 0.45914 0.15364 0.0
N17 N 0.32749 0.46303 0.15606 0.0
N18 N 0.33411 0.47076 0.20593 0.0
C19 C 0.32242 0.47222 0.23672 0.0
C20 C 0.30764 0.46486 0.20467 0.0
C21 C 0.30034 0.45116 0.10146 0.0
H22 H 0.30613 0.45904 0.06196 0.0
H23 H 0.29929 0.43885 0.09306 0.0
H24 H 0.28773 0.44953 0.10795 0.0
O25 O 0.36063 0.48233 0.07944 0.0
O26 O 0.37145 0.49566 0.16334 0.0
H27 H 0.33629 0.49304 0.29411 0.0
H28 H 0.31431 0.48099 0.31171 0.0
C29 C 0.32528 0.4803 0.29602 0.0
H30 H 0.32786 0.47292 0.32841 0.0
H31 H 0.37321 0.51255 0.28117 0.0
O32 O 0.32943 0.4513 0.02637 0.0
C33 C 0.37139 0.4952 0.10729 0.0
Co34 Co 0.88358 0.34144 0.23905 0.0
Co35 Co 0.8794 0.35619 0.35661 0.0
C36 C 0.91179 0.35782 0.32315 0.0
O37 O 0.90577 0.35003 0.27517 0.0
O38 O 0.90298 0.36096 0.35831 0.0
C39 C 0.89592 0.33955 0.13163 0.0
O40 O 0.90856 0.35288 0.15495 0.0
C41 C 0.87683 0.3549 0.48312 0.0
C42 C 0.86918 0.37343 0.50447 0.0
C43 C 0.87301 0.36209 0.52931 0.0
N44 N 0.87511 0.36144 0.43277 0.0
N45 N 0.87052 0.37252 0.44558 0.0
C46 C 0.88316 0.34286 0.48687 0.0
H47 H 0.88426 0.33853 0.4424 0.0
H48 H 0.87466 0.33197 0.51434 0.0
H49 H 0.89558 0.34907 0.50854 0.0
C50 C 0.85466 0.31067 0.2868 0.0
N51 N 0.86641 0.32692 0.29056 0.0
N52 N 0.86403 0.33332 0.33885 0.0
C53 C 0.85032 0.32142 0.36654 0.0
C54 C 0.84406 0.30661 0.33502 0.0
C55 C 0.85389 0.29933 0.23839 0.0
H56 H 0.86669 0.30276 0.22427 0.0
H57 H 0.8471 0.28609 0.2527 0.0
H58 H 0.84731 0.30083 0.20003 0.0
O59 O 0.88029 0.36031 0.21612 0.0
O60 O 0.87722 0.37107 0.29921 0.0
H61 H 0.82854 0.31577 0.41841 0.0
H62 H 0.84743 0.32264 0.45961 0.0
C63 C 0.8422 0.32455 0.41833 0.0
H64 H 0.84447 0.33749 0.41729 0.0
H65 H 0.86849 0.37958 0.41425 0.0
O66 O 0.88309 0.33087 0.1632 0.0
C67 C 0.8779 0.37098 0.24323 0.0
Co68 Co 0.53877 0.87964 0.43412 0.0
Co69 Co 0.52518 0.88077 0.55806 0.0
C70 C 0.554 0.91112 0.49883 0.0
O71 O 0.55466 0.90307 0.4545 0.0
O72 O 0.5431 0.90388 0.53899 0.0
C73 C 0.5591 0.8812 0.33387 0.0
O74 O 0.57208 0.89234 0.36373 0.0
C75 C 0.53252 0.88482 0.68216 0.0
C76 C 0.50783 0.87515 0.72408 0.0
C77 C 0.52457 0.88118 0.73624 0.0
N78 N 0.52099 0.88071 0.63984 0.0
N79 N 0.50626 0.87517 0.66501 0.0
C80 C 0.55082 0.89214 0.67037 0.0
H81 H 0.55487 0.90173 0.63544 0.0
H82 H 0.55327 0.88223 0.65443 0.0
H83 H 0.55836 0.89797 0.71047 0.0
C84 C 0.54165 0.85214 0.48916 0.0
N85 N 0.53819 0.86466 0.49156 0.0
N86 N 0.53149 0.86439 0.54294 0.0
C87 C 0.52996 0.85128 0.5743 0.0
C88 C 0.53656 0.84327 0.54153 0.0
C89 C 0.5483 0.84794 0.43571 0.0
H90 H 0.5396 0.84529 0.39833 0.0
H91 H 0.5605 0.85885 0.42351 0.0
H92 H 0.54986 0.83694 0.44312 0.0
O93 O 0.51605 0.87673 0.42322 0.0
O94 O 0.50525 0.87595 0.51136 0.0
H95 H 0.51095 0.84817 0.63577 0.0
H96 H 0.51753 0.83288 0.64321 0.0
C97 C 0.52177 0.84614 0.63351 0.0
H98 H 0.53086 0.85375 0.66806 0.0
H99 H 0.4951 0.87089 0.64191 0.0
O100 O 0.54467 0.87454 0.35695 0.0
C101 C 0.50406 0.87522 0.45538 0.0
Co102 Co 0.66192 0.54338 0.56033 0.0
Co103 Co 0.64688 0.52589 0.68002 0.0
C104 C 0.64527 0.55612 0.63963 0.0
O105 O 0.65387 0.55789 0.59363 0.0
O106 O 0.64146 0.54411 0.67525 0.0
C107 C 0.66939 0.56148 0.45309 0.0
O108 O 0.65886 0.56584 0.47384 0.0
C109 C 0.64373 0.52561 0.80681 0.0
C110 C 0.63526 0.49937 0.83021 0.0
C111 C 0.64 0.51489 0.85419 0.0
N112 N 0.64132 0.51684 0.7571 0.0
N113 N 0.63598 0.5011 0.77116 0.0
C114 C 0.65172 0.54424 0.80845 0.0
H115 H 0.65967 0.54984 0.76898 0.0
H116 H 0.65946 0.54946 0.84862 0.0
H117 H 0.64182 0.54768 0.80856 0.0
C118 C 0.6919 0.54385 0.60879 0.0
N119 N 0.67605 0.54064 0.61354 0.0
N120 N 0.66994 0.53368 0.66489 0.0
C121 C 0.68186 0.53246 0.69505 0.0
C122 C 0.69617 0.53878 0.6604 0.0
C123 C 0.70202 0.55015 0.55357 0.0
H124 H 0.69432 0.54299 0.51527 0.0
H125 H 0.70564 0.56343 0.54702 0.0
H126 H 0.71338 0.54901 0.55502 0.0
O127 O 0.64269 0.52134 0.5388 0.0
O128 O 0.63263 0.5081 0.62343 0.0
H129 H 0.67017 0.51231 0.75658 0.0
H130 H 0.69152 0.52747 0.77515 0.0
C131 C 0.67971 0.52577 0.75647 0.0
H132 H 0.67533 0.53243 0.78534 0.0
H133 H 0.63351 0.49172 0.74058 0.0
O134 O 0.67343 0.55282 0.48519 0.0
C135 C 0.63233 0.50843 0.56737 0.0
Co136 Co 0.12164 0.66071 0.76232 0.0
Co137 Co 0.12186 0.64511 0.88356 0.0
C138 C 0.09079 0.64348 0.83351 0.0
O139 O 0.09833 0.65202 0.78821 0.0
O140 O 0.09845 0.63989 0.8722 0.0
C141 C 0.11421 0.67443 0.66021 0.0
O142 O 0.10025 0.67064 0.68759 0.0
C143 C 0.11729 0.64367 0.00922 0.0
C144 C 0.12957 0.62984 0.04044 0.0
C145 C 0.12109 0.63781 0.05974 0.0
N146 N 0.12318 0.63934 0.96256 0.0
N147 N 0.13036 0.63092 0.98121 0.0
C148 C 0.10972 0.65467 0.00485 0.0
H149 H 0.11329 0.66168 0.9627 0.0
H150 H 0.11379 0.6636 0.0422 0.0
H151 H 0.09592 0.6468 0.00598 0.0
C152 C 0.14907 0.69087 0.81821 0.0
N153 N 0.13694 0.67475 0.81973 0.0
N154 N 0.13751 0.66814 0.87038 0.0
C155 C 0.15029 0.67984 0.90248 0.0
C156 C 0.15795 0.69465 0.87063 0.0
C157 C 0.15281 0.70188 0.76543 0.0
H158 H 0.15581 0.69625 0.72755 0.0
H159 H 0.14154 0.70257 0.75351 0.0
H160 H 0.16344 0.71462 0.77332 0.0
O161 O 0.12549 0.64183 0.74429 0.0
O162 O 0.12631 0.63089 0.83035 0.0
H163 H 0.15549 0.66504 0.96213 0.0
H164 H 0.16738 0.68724 0.97666 0.0
C165 C 0.15512 0.67684 0.96228 0.0
H166 H 0.14564 0.67563 0.99477 0.0
H167 H 0.13609 0.62623 0.95368 0.0
O168 O 0.12515 0.67231 0.68642 0.0
C169 C 0.12722 0.63116 0.77435 0.0
Co170 Co 0.45845 0.11847 0.90323 0.0
Co171 Co 0.47692 0.1211 0.02048 0.0
C172 C 0.44608 0.08912 0.97945 0.0
O173 O 0.4438 0.09589 0.93438 0.0
O174 O 0.4584 0.09741 0.01383 0.0
C175 C 0.4412 0.1092 0.79423 0.0
O176 O 0.43695 0.09407 0.8121 0.0
C177 C 0.47536 0.12171 0.14711 0.0
C178 C 0.5014 0.13102 0.17533 0.0
C179 C 0.48558 0.12637 0.19616 0.0
N180 N 0.48473 0.12388 0.0992 0.0
N181 N 0.50027 0.1293 0.11621 0.0
C182 C 0.45685 0.11487 0.1457 0.0
H183 H 0.45127 0.10726 0.10572 0.0
H184 H 0.45415 0.12527 0.14486 0.0
H185 H 0.45088 0.10721 0.18552 0.0
C186 C 0.45702 0.14707 0.95488 0.0
N187 N 0.46104 0.13496 0.95758 0.0
N188 N 0.46987 0.13694 0.00537 0.0
C189 C 0.47239 0.15089 0.03343 0.0
C190 C 0.46409 0.15758 0.00286 0.0
C191 C 0.44783 0.14924 0.90459 0.0
H192 H 0.45579 0.15281 0.86462 0.0
H193 H 0.43634 0.1372 0.8953 0.0
H194 H 0.44454 0.15903 0.91384 0.0
O195 O 0.48063 0.12119 0.88194 0.0
O196 O 0.49472 0.12451 0.9648 0.0
H197 H 0.49362 0.1555 0.08604 0.0
H198 H 0.48848 0.17189 0.08909 0.0
C199 C 0.48323 0.1582 0.08669 0.0
H200 H 0.47569 0.15274 0.12698 0.0
H201 H 0.51015 0.13215 0.08745 0.0
O202 O 0.44952 0.12144 0.82854 0.0
C203 C 0.4938 0.1237 0.90878 0.0
Co204 Co 0.54088 0.65842 0.7935 0.0
Co205 Co 0.52372 0.64324 0.67349 0.0
C206 C 0.55421 0.64217 0.71565 0.0
O207 O 0.55566 0.65055 0.76195 0.0
O208 O 0.54234 0.63835 0.67934 0.0
C209 C 0.56016 0.66827 0.89975 0.0
O210 O 0.5667 0.65962 0.8784 0.0
C211 C 0.52475 0.64168 0.54689 0.0
C212 C 0.49834 0.631 0.52067 0.0
C213 C 0.51436 0.63746 0.49838 0.0
N214 N 0.51535 0.63789 0.59562 0.0
N215 N 0.49954 0.63126 0.57989 0.0
C216 C 0.54345 0.65114 0.54749 0.0
H217 H 0.54813 0.65847 0.58878 0.0
H218 H 0.54846 0.65969 0.50913 0.0
H219 H 0.54806 0.64215 0.54528 0.0
C220 C 0.54241 0.68859 0.74275 0.0
N221 N 0.53854 0.67252 0.73928 0.0
N222 N 0.53097 0.66615 0.68895 0.0
C223 C 0.52957 0.678 0.65896 0.0
C224 C 0.53684 0.69261 0.69196 0.0
C225 C 0.55013 0.69935 0.79578 0.0
H226 H 0.54191 0.69349 0.83447 0.0
H227 H 0.56227 0.70013 0.80526 0.0
H228 H 0.55204 0.71209 0.78962 0.0
O229 O 0.51865 0.63905 0.81367 0.0
O230 O 0.50583 0.62859 0.72867 0.0
H231 H 0.50881 0.6643 0.60118 0.0
H232 H 0.52066 0.68641 0.58532 0.0
C233 C 0.52149 0.67541 0.59977 0.0
H234 H 0.52896 0.67314 0.56678 0.0
H235 H 0.48967 0.62755 0.60949 0.0
O236 O 0.54974 0.6701 0.86881 0.0
C237 C 0.50594 0.62844 0.78474 0.0
Co238 Co 0.88135 0.53839 0.92885 0.0
Co239 Co 0.88115 0.52262 0.80788 0.0
C240 C 0.912 0.5526 0.8574 0.0
O241 O 0.90444 0.55366 0.90253 0.0
O242 O 0.90446 0.5411 0.81941 0.0
C243 C 0.88781 0.55934 0.03123 0.0
O244 O 0.90171 0.56997 0.00446 0.0
C245 C 0.88496 0.52629 0.68245 0.0
C246 C 0.87405 0.5004 0.64988 0.0
C247 C 0.8814 0.51689 0.6314 0.0
N248 N 0.87999 0.51588 0.72865 0.0
N249 N 0.87363 0.50042 0.70921 0.0
C250 C 0.89144 0.54466 0.68799 0.0
H251 H 0.88798 0.54762 0.73129 0.0
H252 H 0.88646 0.54911 0.65218 0.0
H253 H 0.90526 0.55141 0.68493 0.0
C254 C 0.85347 0.54054 0.87388 0.0
N255 N 0.86568 0.53665 0.87223 0.0
N256 N 0.86522 0.52962 0.82135 0.0
C257 C 0.85251 0.52867 0.78907 0.0
C258 C 0.84474 0.53565 0.82115 0.0
C259 C 0.85044 0.54892 0.92494 0.0
H260 H 0.8625 0.55937 0.9408 0.0
H261 H 0.84201 0.55375 0.91285 0.0
H262 H 0.84477 0.53982 0.96153 0.0
O263 O 0.87847 0.516 0.94617 0.0
O264 O 0.87701 0.5039 0.8603 0.0
H265 H 0.83369 0.51601 0.72207 0.0
H266 H 0.85468 0.52859 0.69537 0.0
C267 C 0.84695 0.51996 0.73092 0.0
H268 H 0.84849 0.50882 0.73015 0.0
H269 H 0.86865 0.4899 0.73629 0.0
O270 O 0.87742 0.54603 0.00491 0.0
C271 C 0.87669 0.50354 0.91636 0.0
Co272 Co 0.34136 0.88256 0.14028 0.0
Co273 Co 0.35738 0.87997 0.02249 0.0
C274 C 0.35883 0.91194 0.06201 0.0
O275 O 0.34989 0.90519 0.10739 0.0
O276 O 0.3628 0.90367 0.02732 0.0
C277 C 0.33379 0.89316 0.24706 0.0
O278 O 0.34357 0.90798 0.22428 0.0
C279 C 0.36045 0.88294 0.89576 0.0
C280 C 0.37051 0.86652 0.87172 0.0
C281 C 0.36498 0.87672 0.8481 0.0
N282 N 0.3632 0.87677 0.94526 0.0
N283 N 0.36944 0.86713 0.93083 0.0
C284 C 0.35171 0.89288 0.89449 0.0
H285 H 0.3437 0.89015 0.93404 0.0
H286 H 0.34392 0.89008 0.85429 0.0
H287 H 0.36116 0.90638 0.89457 0.0
C288 C 0.31134 0.85411 0.08765 0.0
N289 N 0.3275 0.86613 0.08557 0.0
N290 N 0.33421 0.86478 0.03622 0.0
C291 C 0.32249 0.85166 0.00547 0.0
C292 C 0.30762 0.8445 0.03698 0.0
C293 C 0.30019 0.85127 0.13937 0.0
H294 H 0.30577 0.84906 0.17921 0.0
H295 H 0.29939 0.86269 0.14739 0.0
H296 H 0.28749 0.84046 0.13255 0.0
O297 O 0.36022 0.87924 0.16282 0.0
O298 O 0.37128 0.87631 0.08017 0.0
H299 H 0.33606 0.84383 0.95023 0.0
H300 H 0.31428 0.83475 0.93055 0.0
C301 C 0.32544 0.84617 0.94684 0.0
H302 H 0.3287 0.85623 0.9142 0.0
H303 H 0.37241 0.86054 0.96115 0.0
O304 O 0.32978 0.8803 0.21577 0.0
C305 C 0.37087 0.87671 0.1362 0.0
Co306 Co 0.46314 0.34236 0.27457 0.0
Co307 Co 0.47733 0.3572 0.15065 0.0
C308 C 0.44854 0.35909 0.2067 0.0
O309 O 0.44789 0.35056 0.25158 0.0
O310 O 0.45944 0.3626 0.16667 0.0
C311 C 0.44187 0.32613 0.37465 0.0
O312 O 0.43033 0.32735 0.34496 0.0
C313 C 0.47168 0.35664 0.02561 0.0
C314 C 0.49692 0.36723 0.98729 0.0
C315 C 0.48014 0.35958 0.97264 0.0
N316 N 0.48286 0.36178 0.06957 0.0
N317 N 0.49797 0.36842 0.04652 0.0
C318 C 0.45326 0.34902 0.0352 0.0
H319 H 0.45085 0.35795 0.05974 0.0
H320 H 0.44864 0.3376 0.06254 0.0
H321 H 0.4462 0.34605 0.99331 0.0
C322 C 0.46016 0.31195 0.22005 0.0
N323 N 0.46382 0.32798 0.2174 0.0
N324 N 0.4702 0.33421 0.16546 0.0
C325 C 0.47097 0.32231 0.13345 0.0
C326 C 0.46458 0.30781 0.16691 0.0
C327 C 0.45393 0.30142 0.27437 0.0
H328 H 0.4628 0.30781 0.31105 0.0
H329 H 0.44173 0.30004 0.28721 0.0
H330 H 0.45254 0.2889 0.26782 0.0
O331 O 0.48592 0.36159 0.2879 0.0
O332 O 0.49687 0.37194 0.20023 0.0
H333 H 0.49011 0.33613 0.0699 0.0
H334 H 0.4786 0.31391 0.05608 0.0
C335 C 0.47765 0.32473 0.07194 0.0
H336 H 0.46912 0.32631 0.04188 0.0
H337 H 0.50892 0.37305 0.07123 0.0
O338 O 0.45607 0.33111 0.35134 0.0
C339 C 0.498 0.3721 0.25622 0.0
Co340 Co 0.11987 0.45986 0.47631 0.0
Co341 Co 0.12026 0.47566 0.35474 0.0
C342 C 0.08909 0.44618 0.40425 0.0
O343 O 0.09655 0.44557 0.45045 0.0
O344 O 0.09679 0.45709 0.36446 0.0
C345 C 0.11238 0.43935 0.58027 0.0
O346 O 0.09746 0.43034 0.55717 0.0
C347 C 0.11697 0.47366 0.22816 0.0
C348 C 0.13157 0.50002 0.20004 0.0
C349 C 0.12262 0.48381 0.17884 0.0
N350 N 0.12237 0.48338 0.2762 0.0
N351 N 0.13085 0.49915 0.25931 0.0
C352 C 0.10851 0.455 0.23017 0.0
H353 H 0.11082 0.45076 0.27308 0.0
H354 H 0.11301 0.45019 0.19392 0.0
H355 H 0.09487 0.44973 0.22486 0.0
C356 C 0.14745 0.45724 0.42109 0.0
N357 N 0.13526 0.46116 0.41904 0.0
N358 N 0.13597 0.46839 0.36838 0.0
C359 C 0.14889 0.46957 0.33685 0.0
C360 C 0.15651 0.46245 0.36907 0.0
C361 C 0.15113 0.44999 0.47404 0.0
H362 H 0.15441 0.45878 0.51156 0.0
H363 H 0.13976 0.43818 0.48655 0.0
H364 H 0.16157 0.44758 0.466 0.0
O365 O 0.12357 0.48241 0.49481 0.0
O366 O 0.12444 0.4942 0.40881 0.0
H367 H 0.15483 0.48992 0.27808 0.0
H368 H 0.16614 0.47907 0.26305 0.0
C369 C 0.15401 0.47755 0.27736 0.0
H370 H 0.14447 0.46958 0.24455 0.0
H371 H 0.13674 0.50924 0.28817 0.0
O372 O 0.12359 0.4516 0.55144 0.0
C373 C 0.12521 0.49479 0.46485 0.0
Co374 Co 0.65738 0.12031 0.59133 0.0
Co375 Co 0.6423 0.12115 0.46941 0.0
C376 C 0.64108 0.09001 0.51677 0.0
O377 O 0.64939 0.09737 0.56266 0.0
O378 O 0.63731 0.0977 0.47877 0.0
C379 C 0.67043 0.11219 0.6935 0.0
O380 O 0.66601 0.09809 0.66598 0.0
C381 C 0.64127 0.11716 0.34342 0.0
C382 C 0.62988 0.13179 0.31179 0.0
C383 C 0.63683 0.12234 0.29275 0.0
N384 N 0.63715 0.12323 0.39012 0.0
N385 N 0.63013 0.13178 0.37118 0.0
C386 C 0.65116 0.10839 0.34786 0.0
H387 H 0.65824 0.11163 0.38983 0.0
H388 H 0.65998 0.11177 0.31039 0.0
H389 H 0.64248 0.0947 0.34704 0.0
C390 C 0.6876 0.14844 0.53894 0.0
N391 N 0.67153 0.13624 0.53591 0.0
N392 N 0.66525 0.13695 0.48471 0.0
C393 C 0.67718 0.14983 0.45355 0.0
C394 C 0.69175 0.15749 0.4868 0.0
C395 C 0.69823 0.152 0.5927 0.0
H396 H 0.69185 0.15385 0.63093 0.0
H397 H 0.6997 0.14105 0.60246 0.0
H398 H 0.71069 0.16327 0.58728 0.0
O399 O 0.63807 0.12345 0.6087 0.0
O400 O 0.62746 0.12486 0.52264 0.0
H401 H 0.6635 0.15592 0.39194 0.0
H402 H 0.68567 0.16623 0.3772 0.0
C403 C 0.67472 0.15452 0.39276 0.0
H404 H 0.67273 0.14445 0.36172 0.0
H405 H 0.62604 0.13806 0.39865 0.0
O406 O 0.6687 0.12344 0.66781 0.0
C407 C 0.6274 0.12519 0.57875 0.0
H408 H 0.35145 0.50085 0.47524 0.0
H409 H 0.34319 0.4912 0.57664 0.0
H410 H 0.3617 0.4569 0.55601 0.0
H411 H 0.36971 0.46637 0.45437 0.0
H412 H 0.33189 0.44145 0.60392 0.0
H413 H 0.38247 0.493 0.63867 0.0
H414 H 0.4024 0.52323 0.63346 0.0
H415 H 0.36662 0.53335 0.7161 0.0
H416 H 0.34637 0.50316 0.72099 0.0
H417 H 0.34138 0.42717 0.90784 0.0
H418 H 0.34235 0.43241 0.80211 0.0
H419 H 0.3176 0.46091 0.82934 0.0
H420 H 0.31654 0.45574 0.93511 0.0
H421 H 0.34849 0.47894 0.77753 0.0
H422 H 0.29878 0.42627 0.74926 0.0
H423 H 0.28039 0.39584 0.75876 0.0
H424 H 0.31637 0.38768 0.66764 0.0
H425 H 0.3351 0.41808 0.6583 0.0
C426 C 0.35393 0.49142 0.49277 0.0
C427 C 0.36101 0.48419 0.45711 0.0
C428 C 0.34922 0.48591 0.55059 0.0
C429 C 0.35184 0.47333 0.5739 0.0
C430 C 0.35942 0.4665 0.53873 0.0
C431 C 0.36399 0.4719 0.4808 0.0
C432 C 0.34621 0.4669 0.63427 0.0
C433 C 0.33567 0.44963 0.642 0.0
C434 C 0.3508 0.47762 0.6837 0.0
C435 C 0.36282 0.49581 0.67951 0.0
C436 C 0.37878 0.50167 0.65509 0.0
C437 C 0.39015 0.5188 0.65234 0.0
C438 C 0.38576 0.53021 0.67428 0.0
C439 C 0.36999 0.5245 0.699 0.0
C440 C 0.35856 0.50738 0.70177 0.0
C441 C 0.33568 0.43412 0.89122 0.0
C442 C 0.32919 0.44133 0.92997 0.0
C443 C 0.3362 0.43707 0.83071 0.0
C444 C 0.33018 0.44718 0.80815 0.0
C445 C 0.32239 0.45316 0.84611 0.0
C446 C 0.32178 0.45016 0.90652 0.0
C447 C 0.33426 0.45352 0.74714 0.0
C448 C 0.34457 0.47079 0.73932 0.0
C449 C 0.32964 0.44278 0.6979 0.0
C450 C 0.31841 0.42448 0.70352 0.0
C451 C 0.30284 0.418 0.73171 0.0
C452 C 0.29234 0.40075 0.73696 0.0
C453 C 0.29722 0.38983 0.71394 0.0
C454 C 0.31261 0.39615 0.6855 0.0
C455 C 0.32316 0.41339 0.68014 0.0
H456 H 0.28907 0.37648 0.71804 0.0
H457 H 0.3946 0.54346 0.67229 0.0
H458 H 0.87045 0.31526 0.06599 0.0
H459 H 0.86648 0.31618 0.95954 0.0
H460 H 0.91499 0.3603 0.94566 0.0
H461 H 0.91925 0.35937 0.05119 0.0
H462 H 0.88514 0.36273 0.91211 0.0
H463 H 0.91219 0.33001 0.88105 0.0
H464 H 0.91558 0.30543 0.89497 0.0
H465 H 0.86645 0.27365 0.8254 0.0
H466 H 0.86267 0.29803 0.81185 0.0
H467 H 0.89352 0.38385 0.61146 0.0
H468 H 0.89668 0.37762 0.71393 0.0
H469 H 0.85667 0.32683 0.69028 0.0
H470 H 0.85415 0.33295 0.5869 0.0
H471 H 0.88031 0.32606 0.74489 0.0
H472 H 0.85206 0.35671 0.77473 0.0
H473 H 0.84632 0.37992 0.76449 0.0
H474 H 0.89407 0.41373 0.84013 0.0
H475 H 0.90016 0.39074 0.85035 0.0
C476 C 0.88048 0.32485 0.03997 0.0
C477 C 0.89504 0.33742 0.06709 0.0
C478 C 0.87818 0.32534 0.97929 0.0
C479 C 0.89039 0.33841 0.94537 0.0
C480 C 0.90544 0.35018 0.9715 0.0
C481 C 0.90783 0.34959 0.0318 0.0
C482 C 0.88665 0.34124 0.88486 0.0
C483 C 0.88426 0.35486 0.87523 0.0
C484 C 0.88481 0.33047 0.83788 0.0
C485 C 0.88707 0.31582 0.84612 0.0
C486 C 0.90204 0.31776 0.86933 0.0
C487 C 0.90405 0.30387 0.877 0.0
C488 C 0.89122 0.28798 0.86126 0.0
C489 C 0.87637 0.28596 0.83767 0.0
C490 C 0.87429 0.29981 0.82995 0.0
C491 C 0.88531 0.37145 0.62869 0.0
C492 C 0.87362 0.35884 0.59211 0.0
C493 C 0.88704 0.36789 0.68712 0.0
C494 C 0.87675 0.35179 0.71012 0.0
C495 C 0.86476 0.33931 0.67354 0.0
C496 C 0.86328 0.3428 0.61479 0.0
C497 C 0.87904 0.34782 0.77145 0.0
C498 C 0.88108 0.33394 0.78155 0.0
C499 C 0.88019 0.35815 0.81934 0.0
C500 C 0.87661 0.37203 0.81297 0.0
C501 C 0.86138 0.36912 0.78884 0.0
C502 C 0.85805 0.38223 0.78315 0.0
C503 C 0.86982 0.39829 0.80167 0.0
C504 C 0.88495 0.40128 0.82595 0.0
C505 C 0.88833 0.38821 0.8318 0.0
H506 H 0.86722 0.40842 0.79723 0.0
H507 H 0.8928 0.27724 0.86721 0.0
H508 H 0.58686 0.89638 0.26272 0.0
H509 H 0.58725 0.89483 0.15493 0.0
H510 H 0.53475 0.85809 0.15571 0.0
H511 H 0.53444 0.859 0.26234 0.0
H512 H 0.5488 0.852 0.06784 0.0
H513 H 0.55069 0.90247 0.15043 0.0
H514 H 0.56458 0.92863 0.20796 0.0
H515 H 0.60787 0.94707 0.09711 0.0
H516 H 0.59429 0.92095 0.03939 0.0
H517 H 0.51833 0.89168 0.83992 0.0
H518 H 0.52962 0.89126 0.93731 0.0
H519 H 0.55782 0.87033 0.86064 0.0
H520 H 0.54628 0.87035 0.76383 0.0
H521 H 0.56193 0.90628 0.97929 0.0
H522 H 0.55732 0.84221 0.96203 0.0
H523 H 0.54147 0.81566 0.90777 0.0
H524 H 0.49991 0.82395 0.8917 0.0
H525 H 0.51543 0.8504 0.94646 0.0
C526 C 0.57554 0.88766 0.23987 0.0
C527 C 0.56052 0.87813 0.27088 0.0
C528 C 0.57576 0.88682 0.17832 0.0
C529 C 0.56092 0.87668 0.14721 0.0
C530 C 0.54634 0.86609 0.17861 0.0
C531 C 0.54616 0.86674 0.23978 0.0
C532 C 0.55965 0.87843 0.08283 0.0
C533 C 0.55196 0.86391 0.04818 0.0
C534 C 0.56364 0.89395 0.05717 0.0
C535 C 0.57157 0.90974 0.09108 0.0
C536 C 0.56318 0.91211 0.13849 0.0
C537 C 0.571 0.92691 0.17112 0.0
C538 C 0.58712 0.93948 0.1563 0.0
C539 C 0.59541 0.93731 0.10862 0.0
C540 C 0.58766 0.92252 0.07594 0.0
C541 C 0.52701 0.88709 0.84402 0.0
C542 C 0.53173 0.8814 0.79442 0.0
C543 C 0.53352 0.88695 0.89937 0.0
C544 C 0.54461 0.88084 0.90595 0.0
C545 C 0.54932 0.87514 0.85639 0.0
C546 C 0.54284 0.87531 0.8011 0.0
C547 C 0.55059 0.87978 0.96525 0.0
C548 C 0.55921 0.89444 -0.00147 0.0
C549 C 0.54717 0.86435 0.98996 0.0
C550 C 0.53763 0.84838 0.95761 0.0
C551 C 0.54479 0.83833 0.94698 0.0
C552 C 0.53586 0.8233 0.91616 0.0
C553 C 0.51972 0.81816 0.89607 0.0
C554 C 0.51244 0.82798 0.90702 0.0
C555 C 0.52131 0.843 0.93788 0.0
H556 H 0.51284 0.80653 0.87218 0.0
H557 H 0.5932 0.9509 0.18169 0.0
H558 H 0.65614 0.50568 0.93209 0.0
H559 H 0.66449 0.51589 0.03285 0.0
H560 H 0.63956 0.54465 0.01769 0.0
H561 H 0.63155 0.53474 0.91637 0.0
H562 H 0.66937 0.56316 0.06367 0.0
H563 H 0.62322 0.50811 0.09994 0.0
H564 H 0.60689 0.47743 0.09164 0.0
H565 H 0.64754 0.47367 0.16631 0.0
H566 H 0.6642 0.50435 0.17439 0.0
H567 H 0.65854 0.57468 0.36783 0.0
H568 H 0.65824 0.56997 0.26201 0.0
H569 H 0.68775 0.54623 0.28785 0.0
H570 H 0.68804 0.55077 0.39389 0.0
H571 H 0.65811 0.52585 0.23536 0.0
H572 H 0.70306 0.5816 0.20777 0.0
H573 H 0.71823 0.61223 0.21828 0.0
H574 H 0.67846 0.6147 0.1301 0.0
H575 H 0.66293 0.58406 0.11979 0.0
C576 C 0.65226 0.51399 0.95073 0.0
C577 C 0.64331 0.51954 0.91676 0.0
C578 C 0.65704 0.51983 0.00816 0.0
C579 C 0.6526 0.531 0.03286 0.0
C580 C 0.64323 0.53615 -0.00066 0.0
C581 C 0.63862 0.53046 0.9417 0.0
C582 C 0.65804 0.53762 0.09313 0.0
C583 C 0.66676 0.55501 0.10137 0.0
C584 C 0.65503 0.52699 0.14197 0.0
C585 C 0.64503 0.50854 0.1371 0.0
C586 C 0.62873 0.50075 0.11413 0.0
C587 C 0.6194 0.48336 0.10957 0.0
C588 C 0.6262 0.47362 0.12822 0.0
C589 C 0.64231 0.48124 0.15175 0.0
C590 C 0.65169 0.49862 0.15637 0.0
C591 C 0.6654 0.56891 0.35092 0.0
C592 C 0.67301 0.56278 0.38933 0.0
C593 C 0.66527 0.56628 0.29032 0.0
C594 C 0.67286 0.55763 0.26727 0.0
C595 C 0.68174 0.55285 0.30496 0.0
C596 C 0.6819 0.55548 0.36553 0.0
C597 C 0.66934 0.55138 0.20602 0.0
C598 C 0.66091 0.53403 0.19759 0.0
C599 C 0.67246 0.56205 0.15728 0.0
C600 C 0.68177 0.5805 0.16342 0.0
C601 C 0.69748 0.58865 0.19106 0.0
C602 C 0.70616 0.60603 0.19689 0.0
C603 C 0.6993 0.6154 0.17498 0.0
C604 C 0.68375 0.60742 0.14708 0.0
C605 C 0.67502 0.59005 0.14116 0.0
H606 H 0.70604 0.62885 0.17954 0.0
H607 H 0.61899 0.46017 0.12445 0.0
H608 H 0.09437 0.63875 0.10814 0.0
H609 H 0.09198 0.64688 0.20856 0.0
H610 H 0.13919 0.6509 0.25288 0.0
H611 H 0.14194 0.64332 0.15187 0.0
H612 H 0.1141 0.6342 0.33775 0.0
H613 H 0.13842 0.68503 0.22271 0.0
H614 H 0.13906 0.70242 0.13931 0.0
H615 H 0.09292 0.69817 0.19763 0.0
H616 H 0.09186 0.6805 0.28087 0.0
H617 H 0.14088 0.6813 0.59054 0.0
H618 H 0.14034 0.67723 0.48437 0.0
H619 H 0.09009 0.66866 0.47668 0.0
H620 H 0.09034 0.67246 0.58362 0.0
H621 H 0.11379 0.68707 0.37293 0.0
H622 H 0.08885 0.63655 0.48633 0.0
H623 H 0.08687 0.6181 0.56807 0.0
H624 H 0.13238 0.62066 0.51134 0.0
H625 H 0.13482 0.63944 0.42996 0.0
C626 C 0.10437 0.64163 0.13892 0.0
C627 C 0.11862 0.64096 0.12168 0.0
C628 C 0.1029 0.64611 0.19638 0.0
C629 C 0.11556 0.64977 0.23758 0.0
C630 C 0.12936 0.64823 0.22141 0.0
C631 C 0.13089 0.64387 0.16384 0.0
C632 C 0.11462 0.65552 0.29737 0.0
C633 C 0.11415 0.64581 0.34544 0.0
C634 C 0.11418 0.67043 0.30705 0.0
C635 C 0.11497 0.6813 0.25765 0.0
C636 C 0.12834 0.6877 0.2175 0.0
C637 C 0.12879 0.69762 0.17029 0.0
C638 C 0.11602 0.70137 0.16309 0.0
C639 C 0.1028 0.69524 0.20322 0.0
C640 C 0.10227 0.68528 0.25043 0.0
C641 C 0.12984 0.67901 0.56627 0.0
C642 C 0.1155 0.6768 0.59568 0.0
C643 C 0.12959 0.67673 0.50557 0.0
C644 C 0.11509 0.67239 0.47327 0.0
C645 C 0.10137 0.67197 0.50123 0.0
C646 C 0.10155 0.67412 0.56229 0.0
C647 C 0.11357 0.66587 0.41298 0.0
C648 C 0.11358 0.6754 0.36503 0.0
C649 C 0.11339 0.65068 0.40316 0.0
C650 C 0.11212 0.63956 0.45246 0.0
C651 C 0.09856 0.63336 0.49176 0.0
C652 C 0.09733 0.62281 0.53795 0.0
C653 C 0.1095 0.61822 0.54498 0.0
C654 C 0.12297 0.62424 0.50594 0.0
C655 C 0.12429 0.63484 0.45976 0.0
H656 H 0.10842 0.60994 0.58048 0.0
H657 H 0.11638 0.70904 0.1265 0.0
H658 H 0.45185 0.13934 0.74098 0.0
H659 H 0.45636 0.14518 0.63564 0.0
H660 H 0.43298 0.09243 0.59953 0.0
H661 H 0.42836 0.08643 0.70473 0.0
H662 H 0.47678 0.13715 0.57663 0.0
H663 H 0.41787 0.0853 0.45842 0.0
H664 H 0.38729 0.0702 0.47075 0.0
H665 H 0.39052 0.11129 0.56969 0.0
H666 H 0.42109 0.12673 0.55726 0.0
H667 H 0.49468 0.11624 0.29494 0.0
H668 H 0.4854 0.11624 0.39629 0.0
H669 H 0.45728 0.13916 0.33624 0.0
H670 H 0.46655 0.13923 0.23549 0.0
H671 H 0.43865 0.11304 0.40576 0.0
H672 H 0.49331 0.16149 0.41238 0.0
H673 H 0.52391 0.17756 0.40092 0.0
H674 H 0.52912 0.14561 0.52588 0.0
H675 H 0.49855 0.12919 0.5374 0.0
C676 C 0.44725 0.12894 0.71057 0.0
C677 C 0.44004 0.11243 0.73122 0.0
C678 C 0.44986 0.13232 0.65042 0.0
C679 C 0.44514 0.11925 0.61002 0.0
C680 C 0.43663 0.10269 0.63005 0.0
C681 C 0.43405 0.09929 0.69025 0.0
C682 C 0.45113 0.12293 0.54854 0.0
C683 C 0.46844 0.13201 0.53916 0.0
C684 C 0.44022 0.11626 0.49994 0.0
C685 C 0.4218 0.10712 0.50728 0.0
C686 C 0.41205 0.09115 0.48259 0.0
C687 C 0.39472 0.08252 0.48964 0.0
C688 C 0.38697 0.08976 0.52112 0.0
C689 C 0.39654 0.10566 0.54551 0.0
C690 C 0.41388 0.11435 0.53856 0.0
C691 C 0.48661 0.12136 0.3037 0.0
C692 C 0.48095 0.12732 0.25749 0.0
C693 C 0.48135 0.1214 0.3614 0.0
C694 C 0.47061 0.12766 0.37361 0.0
C695 C 0.4654 0.13409 0.3276 0.0
C696 C 0.47059 0.134 0.27006 0.0
C697 C 0.46431 0.127 0.43398 0.0
C698 C 0.44697 0.11837 0.44316 0.0
C699 C 0.4752 0.13419 0.48247 0.0
C700 C 0.49361 0.14402 0.47536 0.0
C701 C 0.50097 0.1578 0.43702 0.0
C702 C 0.51832 0.16699 0.43058 0.0
C703 C 0.52846 0.16259 0.46254 0.0
C704 C 0.52127 0.149 0.50108 0.0
C705 C 0.50393 0.13975 0.50761 0.0
H706 H 0.54188 0.16973 0.45753 0.0
H707 H 0.37355 0.08306 0.52654 0.0
H708 H 0.50342 0.6518 0.41922 0.0
H709 H 0.51369 0.66078 0.31886 0.0
H710 H 0.54676 0.64074 0.33766 0.0
H711 H 0.53678 0.63213 0.43855 0.0
H712 H 0.56293 0.67046 0.28948 0.0
H713 H 0.51033 0.62082 0.25502 0.0
H714 H 0.47993 0.60189 0.26288 0.0
H715 H 0.47122 0.63917 0.18509 0.0
H716 H 0.50158 0.65841 0.17741 0.0
H717 H 0.5755 0.65984 0.9851 0.0
H718 H 0.57105 0.65967 0.09113 0.0
H719 H 0.54312 0.68505 0.06443 0.0
H720 H 0.54742 0.6852 0.9583 0.0
H721 H 0.52493 0.65492 0.11764 0.0
H722 H 0.57868 0.70344 0.14332 0.0
H723 H 0.6092 0.72087 0.1324 0.0
H724 H 0.61594 0.68398 0.22346 0.0
H725 H 0.58545 0.6662 0.23421 0.0
C726 C 0.51274 0.64917 0.40151 0.0
C727 C 0.51941 0.6414 0.43634 0.0
C728 C 0.51861 0.6543 0.34432 0.0
C729 C 0.53095 0.65136 0.32067 0.0
C730 C 0.53734 0.64325 0.35518 0.0
C731 C 0.53162 0.6383 0.4126 0.0
C732 C 0.53734 0.6569 0.26021 0.0
C733 C 0.55464 0.66694 0.25176 0.0
C734 C 0.52649 0.65261 0.21127 0.0
C735 C 0.50823 0.64112 0.21628 0.0
C736 C 0.50193 0.62503 0.24008 0.0
C737 C 0.48471 0.61424 0.2444 0.0
C738 C 0.47365 0.61935 0.22467 0.0
C739 C 0.47979 0.63525 0.20046 0.0
C740 C 0.49701 0.64609 0.19608 0.0
C741 C 0.56886 0.66586 0.00186 0.0
C742 C 0.56149 0.6722 0.96326 0.0
C743 C 0.56638 0.6658 0.06256 0.0
C744 C 0.55662 0.67221 0.08545 0.0
C745 C 0.55059 0.67995 0.04746 0.0
C746 C 0.55307 0.68002 0.98684 0.0
C747 C 0.55051 0.66844 0.14682 0.0
C748 C 0.53322 0.65865 0.15542 0.0
C749 C 0.56139 0.67275 0.19557 0.0
C750 C 0.57975 0.68342 0.18915 0.0
C751 C 0.58666 0.69897 0.16057 0.0
C752 C 0.60396 0.70893 0.15451 0.0
C753 C 0.6145 0.70352 0.17711 0.0
C754 C 0.60776 0.68815 0.20594 0.0
C755 C 0.59047 0.67814 0.2121 0.0
H756 H 0.62789 0.71125 0.17238 0.0
H757 H 0.46032 0.61097 0.22801 0.0
H758 H 0.90666 0.54562 0.58281 0.0
H759 H 0.90785 0.55611 0.4831 0.0
H760 H 0.86196 0.51123 0.43991 0.0
H761 H 0.86034 0.5009 0.5404 0.0
H762 H 0.88757 0.52094 0.35565 0.0
H763 H 0.8602 0.54473 0.46786 0.0
H764 H 0.85792 0.56083 0.55033 0.0
H765 H 0.90262 0.60455 0.49282 0.0
H766 H 0.90534 0.58862 0.41055 0.0
H767 H 0.86078 0.53925 0.09873 0.0
H768 H 0.86049 0.53608 0.2053 0.0
H769 H 0.91013 0.57865 0.21638 0.0
H770 H 0.91072 0.58183 0.10904 0.0
H771 H 0.88464 0.57232 0.31777 0.0
H772 H 0.9135 0.54937 0.21163 0.0
H773 H 0.91788 0.53373 0.13241 0.0
H774 H 0.8725 0.48938 0.18092 0.0
H775 H 0.86771 0.50488 0.25987 0.0
C776 C 0.89664 0.53813 0.55254 0.0
C777 C 0.88311 0.52269 0.5699 0.0
C778 C 0.89743 0.54408 0.4955 0.0
C779 C 0.88483 0.53456 0.45479 0.0
C780 C 0.87172 0.51879 0.47109 0.0
C781 C 0.87085 0.5129 0.5283 0.0
C782 C 0.88536 0.54094 0.39486 0.0
C783 C 0.88676 0.53207 0.34738 0.0
C784 C 0.88484 0.55578 0.38451 0.0
C785 C 0.88307 0.56544 0.43339 0.0
C786 C 0.86962 0.55774 0.47306 0.0
C787 C 0.86824 0.56684 0.51974 0.0
C788 C 0.88014 0.58369 0.5269 0.0
C789 C 0.89342 0.59149 0.48727 0.0
C790 C 0.89489 0.58243 0.44059 0.0
C791 C 0.87149 0.54826 0.12378 0.0
C792 C 0.88594 0.56055 0.09535 0.0
C793 C 0.87126 0.54644 0.1847 0.0
C794 C 0.88537 0.55699 0.21815 0.0
C795 C 0.89914 0.57041 0.19092 0.0
C796 C 0.89945 0.57217 0.12965 0.0
C797 C 0.88661 0.55214 0.27892 0.0
C798 C 0.88553 0.56125 0.32632 0.0
C799 C 0.88763 0.53762 0.28955 0.0
C800 C 0.89015 0.52833 0.24115 0.0
C801 C 0.90433 0.53635 0.20483 0.0
C802 C 0.90692 0.5275 0.16013 0.0
C803 C 0.89549 0.51058 0.15166 0.0
C804 C 0.88135 0.50249 0.18755 0.0
C805 C 0.87869 0.5113 0.23228 0.0
H806 H 0.89768 0.50375 0.11751 0.0
H807 H 0.87905 0.59071 0.56307 0.0
H808 H 0.31908 0.8643 0.31155 0.0
H809 H 0.32179 0.86187 0.41744 0.0
H810 H 0.34602 0.91541 0.43483 0.0
H811 H 0.34357 0.918 0.32875 0.0
H812 H 0.36502 0.90349 0.47713 0.0
H813 H 0.30819 0.89006 0.49901 0.0
H814 H 0.27799 0.87512 0.47815 0.0
H815 H 0.27457 0.8288 0.52904 0.0
H816 H 0.3048 0.84343 0.54944 0.0
H817 H 0.37258 0.90541 0.78993 0.0
H818 H 0.36565 0.90813 0.68788 0.0
H819 H 0.34455 0.85511 0.6628 0.0
H820 H 0.35144 0.85234 0.7651 0.0
H821 H 0.32348 0.86701 0.62598 0.0
H822 H 0.37991 0.87963 0.59829 0.0
H823 H 0.41029 0.89386 0.6155 0.0
H824 H 0.41438 0.94102 0.57341 0.0
H825 H 0.38399 0.92709 0.55645 0.0
C826 C 0.32456 0.87554 0.33806 0.0
C827 C 0.33138 0.89137 0.31159 0.0
C828 C 0.32606 0.87412 0.3987 0.0
C829 C 0.33423 0.88847 0.43391 0.0
C830 C 0.33979 0.90419 0.4083 0.0
C831 C 0.33832 0.90563 0.34767 0.0
C832 C 0.33886 0.88723 0.49538 0.0
C833 C 0.35588 0.89578 0.51006 0.0
C834 C 0.327 0.87668 0.5375 0.0
C835 C 0.30881 0.86783 0.52527 0.0
C836 C 0.30103 0.87667 0.50527 0.0
C837 C 0.2839 0.86826 0.49364 0.0
C838 C 0.27437 0.85102 0.50213 0.0
C839 C 0.28196 0.84216 0.52242 0.0
C840 C 0.2991 0.8505 0.53411 0.0
C841 C 0.36652 0.89437 0.76248 0.0
C842 C 0.36236 0.87865 0.78523 0.0
C843 C 0.36265 0.89594 0.70427 0.0
C844 C 0.35455 0.8818 0.66803 0.0
C845 C 0.35075 0.86614 0.69028 0.0
C846 C 0.35478 0.86459 0.74837 0.0
C847 C 0.34958 0.88335 0.60753 0.0
C848 C 0.33254 0.87482 0.59306 0.0
C849 C 0.36142 0.89387 0.56538 0.0
C850 C 0.37964 0.90234 0.57679 0.0
C851 C 0.38726 0.89306 0.59336 0.0
C852 C 0.40449 0.90106 0.60287 0.0
C853 C 0.41425 0.91834 0.59575 0.0
C854 C 0.4068 0.92764 0.57901 0.0
C855 C 0.38958 0.9197 0.56937 0.0
H856 H 0.42759 0.9245 0.60303 0.0
H857 H 0.26111 0.84453 0.4931 0.0
H858 H 0.49033 0.37609 0.86824 0.0
H859 H 0.47854 0.36559 0.77031 0.0
H860 H 0.44246 0.31844 0.84706 0.0
H861 H 0.45477 0.3286 0.94407 0.0
H862 H 0.45384 0.31293 0.75122 0.0
H863 H 0.43124 0.34732 0.80304 0.0
H864 H 0.43148 0.37269 0.83794 0.0
H865 H 0.46202 0.40024 0.69075 0.0
H866 H 0.46217 0.3751 0.65541 0.0
H867 H 0.41664 0.32263 0.44728 0.0
H868 H 0.41656 0.3219 0.55509 0.0
H869 H 0.46259 0.32066 0.55279 0.0
H870 H 0.46254 0.32097 0.44575 0.0
H871 H 0.43893 0.34613 0.61883 0.0
H872 H 0.46834 0.30449 0.67439 0.0
H873 H 0.46552 0.27774 0.64214 0.0
H874 H 0.41597 0.26164 0.57942 0.0
H875 H 0.41838 0.28818 0.61205 0.0
C876 C 0.47986 0.36352 0.86397 0.0
C877 C 0.47303 0.35337 0.91376 0.0
C878 C 0.47306 0.35756 0.80826 0.0
C879 C 0.45932 0.34137 0.80164 0.0
C880 C 0.45288 0.33105 0.85122 0.0
C881 C 0.45977 0.33695 0.90672 0.0
C882 C 0.4519 0.33511 0.74277 0.0
C883 C 0.45048 0.32012 0.72232 0.0
C884 C 0.44693 0.34418 0.70592 0.0
C885 C 0.4468 0.35933 0.72678 0.0
C886 C 0.43809 0.35881 0.77831 0.0
C887 C 0.43815 0.37315 0.79815 0.0
C888 C 0.44678 0.38807 0.76663 0.0
C889 C 0.45534 0.38867 0.71513 0.0
C890 C 0.45535 0.37437 0.69513 0.0
C891 C 0.42646 0.32169 0.46977 0.0
C892 C 0.43973 0.3221 0.4381 0.0
C893 C 0.42643 0.32133 0.53135 0.0
C894 C 0.43957 0.32125 0.56202 0.0
C895 C 0.45218 0.32048 0.53023 0.0
C896 C 0.45221 0.3208 0.46889 0.0
C897 C 0.44153 0.32431 0.62635 0.0
C898 C 0.44197 0.33874 0.64797 0.0
C899 C 0.44519 0.31449 0.66466 0.0
C900 C 0.44359 0.2984 0.64543 0.0
C901 C 0.4568 0.29521 0.65406 0.0
C902 C 0.45529 0.28009 0.63562 0.0
C903 C 0.44059 0.26802 0.60864 0.0
C904 C 0.42737 0.27103 0.60016 0.0
C905 C 0.42881 0.28612 0.61854 0.0
H906 H 0.43945 0.25632 0.59438 0.0
H907 H 0.44681 0.39916 0.78207 0.0
H908 H 0.14775 0.49642 0.09885 0.0
H909 H 0.14723 0.48637 -0.00126 0.0
H910 H 0.09516 0.44947 0.01965 0.0
H911 H 0.09574 0.45936 0.12016 0.0
H912 H 0.1115 0.43579 0.97023 0.0
H913 H 0.10755 0.48491 0.93765 0.0
H914 H 0.11565 0.5146 0.94602 0.0
H915 H 0.16292 0.52886 0.86537 0.0
H916 H 0.15518 0.49924 0.85722 0.0
H917 H 0.08899 0.4214 0.66438 0.0
H918 H 0.09259 0.42573 0.77073 0.0
H919 H 0.14538 0.45905 0.74613 0.0
H920 H 0.1419 0.45489 0.63981 0.0
H921 H 0.12989 0.47404 0.7985 0.0
H922 H 0.13198 0.42375 0.824 0.0
H923 H 0.12242 0.39379 0.8129 0.0
H924 H 0.07691 0.38133 0.90363 0.0
H925 H 0.08609 0.41122 0.91456 0.0
C926 C 0.13617 0.48628 0.08176 0.0
C927 C 0.12182 0.47855 0.11712 0.0
C928 C 0.13588 0.48053 0.0247 0.0
C929 C 0.12113 0.4672 0.0017 0.0
C930 C 0.10671 0.45967 0.03674 0.0
C931 C 0.10704 0.46532 0.09401 0.0
C932 C 0.12077 0.46111 0.94111 0.0
C933 C 0.11536 0.4441 0.93252 0.0
C934 C 0.12613 0.47204 0.89219 0.0
C935 C 0.13086 0.48986 0.89745 0.0
C936 C 0.11974 0.49438 0.9222 0.0
C937 C 0.12425 0.51119 0.9268 0.0
C938 C 0.13981 0.52361 0.90641 0.0
C939 C 0.15088 0.51923 0.88126 0.0
C940 C 0.14644 0.50243 0.87661 0.0
C941 C 0.10145 0.42921 0.6817 0.0
C942 C 0.1151 0.4381 0.6437 0.0
C943 C 0.1035 0.43164 0.74256 0.0
C944 C 0.11922 0.44285 0.7661 0.0
C945 C 0.13312 0.45045 0.72865 0.0
C946 C 0.1311 0.44805 0.66793 0.0
C947 C 0.12069 0.44874 0.82752 0.0
C948 C 0.12621 0.46574 0.83624 0.0
C949 C 0.11524 0.43775 0.87621 0.0
C950 C 0.10967 0.41975 0.86965 0.0
C951 C 0.11987 0.41463 0.84113 0.0
C952 C 0.11453 0.39765 0.83497 0.0
C953 C 0.09905 0.38566 0.85742 0.0
C954 C 0.08889 0.39063 0.88621 0.0
C955 C 0.09417 0.40759 0.89247 0.0
H956 H 0.09495 0.37252 0.85262 0.0
H957 H 0.14327 0.53662 0.90996 0.0
H958 H 0.68108 0.13984 0.76235 0.0
H959 H 0.67948 0.14048 0.86934 0.0
H960 H 0.66511 0.08838 0.87722 0.0
H961 H 0.66646 0.08756 0.76978 0.0
H962 H 0.6425 0.09412 0.92872 0.0
H963 H 0.70137 0.11789 0.94098 0.0
H964 H 0.73092 0.13715 0.91688 0.0
H965 H 0.72606 0.17875 0.97445 0.0
H966 H 0.69641 0.15976 -0.00187 0.0
H967 H 0.63371 0.09427 0.24097 0.0
H968 H 0.6426 0.09175 0.14179 0.0
H969 H 0.65713 0.1431 0.10654 0.0
H970 H 0.64858 0.14577 0.20632 0.0
H971 H 0.68127 0.13563 0.07325 0.0
H972 H 0.62204 0.11256 0.04802 0.0
H973 H 0.59222 0.09372 0.06966 0.0
H974 H 0.59788 0.05119 0.03444 0.0
H975 H 0.6278 0.0698 0.0132 0.0
C976 C 0.67801 0.12862 0.78688 0.0
C977 C 0.67361 0.11358 0.75758 0.0
C978 C 0.67721 0.12903 0.84815 0.0
C979 C 0.67211 0.11445 0.88122 0.0
C980 C 0.66902 0.09975 0.85241 0.0
C981 C 0.66985 0.09933 0.79102 0.0
C982 C 0.66767 0.11407 0.94408 0.0
C983 C 0.65112 0.10292 0.96075 0.0
C984 C 0.67876 0.12589 0.98523 0.0
C985 C 0.69661 0.13739 0.97097 0.0
C986 C 0.70656 0.13115 0.94806 0.0
C987 C 0.72334 0.14203 0.93456 0.0
C988 C 0.73036 0.15916 0.94403 0.0
C989 C 0.72061 0.16547 0.96712 0.0
C990 C 0.70382 0.15465 0.98068 0.0
C991 C 0.63888 0.10503 0.21213 0.0
C992 C 0.64072 0.12029 0.23139 0.0
C993 C 0.64384 0.10355 0.15544 0.0
C994 C 0.65057 0.11727 0.11702 0.0
C995 C 0.65206 0.13242 0.13577 0.0
C996 C 0.64705 0.13388 0.19242 0.0
C997 C 0.65611 0.11585 0.05728 0.0
C998 C 0.6728 0.12666 0.04134 0.0
C999 C 0.64515 0.10377 0.01659 0.0
C1000 C 0.6272 0.09256 0.02974 0.0
C1001 C 0.61696 0.09919 0.04545 0.0
C1002 C 0.60004 0.08855 0.0575 0.0
C1003 C 0.59318 0.07127 0.05363 0.0
C1004 C 0.60322 0.06458 0.03754 0.0
C1005 C 0.62016 0.07517 0.02544 0.0
H1006 H 0.58007 0.06305 0.06294 0.0
H1007 H 0.74335 0.16756 0.93356 0.0
H1008 H 0.47783 0.6017 0.73915 0.0
H1009 H 0.45422 0.57974 0.79331 0.0
H1010 H 0.47693 0.60396 0.9575 0.0
H1011 H 0.50074 0.62575 0.90389 0.0
H1012 H 0.46624 0.57171 0.96422 0.0
H1013 H 0.44282 0.60503 0.89765 0.0
H1014 H 0.43493 0.61959 0.82457 0.0
H1015 H 0.40387 0.57323 0.73516 0.0
H1016 H 0.41175 0.55842 0.80725 0.0
H1017 H 0.39717 0.52438 0.15077 0.0
H1018 H 0.41917 0.54753 0.09504 0.0
H1019 H 0.39708 0.52188 0.93229 0.0
H1020 H 0.37491 0.49874 0.98749 0.0
H1021 H 0.40713 0.55474 0.92419 0.0
H1022 H 0.43064 0.52151 0.9876 0.0
H1023 H 0.43836 0.50645 0.05917 0.0
H1024 H 0.46919 0.55219 0.15231 0.0
H1025 H 0.46147 0.56749 0.08171 0.0
C1026 C 0.47777 0.60242 0.78677 0.0
C1027 C 0.49121 0.6155 0.81713 0.0
C1028 C 0.46421 0.58989 0.81768 0.0
C1029 C 0.46371 0.59028 0.87949 0.0
C1030 C 0.47704 0.60339 0.90983 0.0
C1031 C 0.49063 0.61587 0.87904 0.0
C1032 C 0.44965 0.57672 0.9128 0.0
C1033 C 0.45334 0.56819 0.95607 0.0
C1034 C 0.43276 0.57176 0.90096 0.0
C1035 C 0.42801 0.58065 0.85754 0.0
C1036 C 0.43441 0.59796 0.86213 0.0
C1037 C 0.42993 0.60626 0.82092 0.0
C1038 C 0.41895 0.59735 0.77516 0.0
C1039 C 0.4124 0.58012 0.77057 0.0
C1040 C 0.41686 0.57177 0.81163 0.0
C1041 C 0.39692 0.52367 0.10312 0.0
C1042 C 0.38432 0.50963 0.07367 0.0
C1043 C 0.40955 0.5369 0.07133 0.0
C1044 C 0.40988 0.53632 0.00955 0.0
C1045 C 0.39708 0.52256 0.97995 0.0
C1046 C 0.38445 0.50932 0.01166 0.0
C1047 C 0.42378 0.5499 0.97585 0.0
C1048 C 0.42005 0.55835 0.93243 0.0
C1049 C 0.44064 0.55476 0.98727 0.0
C1050 C 0.44534 0.54561 0.02972 0.0
C1051 C 0.43896 0.52833 0.02362 0.0
C1052 C 0.44335 0.51976 0.06396 0.0
C1053 C 0.45422 0.52835 0.11035 0.0
C1054 C 0.46075 0.54555 0.1164 0.0
C1055 C 0.45639 0.55418 0.07622 0.0
H1056 H 0.45761 0.52169 0.14153 0.0
H1057 H 0.41548 0.6038 0.74332 0.0
H1058 H 0.87389 0.37165 0.1241 0.0
H1059 H 0.8717 0.39277 0.0667 0.0
H1060 H 0.87608 0.42018 0.22592 0.0
H1061 H 0.87778 0.39882 0.28398 0.0
H1062 H 0.85318 0.42011 0.15686 0.0
H1063 H 0.90944 0.43165 0.13068 0.0
H1064 H 0.93145 0.42508 0.10529 0.0
H1065 H 0.91279 0.41321 0.92835 0.0
H1066 H 0.89043 0.41938 0.95296 0.0
H1067 H 0.87637 0.49889 0.03525 0.0
H1068 H 0.87482 0.47514 0.08744 0.0
H1069 H 0.87063 0.45041 0.92201 0.0
H1070 H 0.87273 0.47443 0.86904 0.0
H1071 H 0.89227 0.44806 0.99076 0.0
H1072 H 0.83628 0.43785 0.01862 0.0
H1073 H 0.81522 0.44557 0.04627 0.0
H1074 H 0.83466 0.4564 0.22253 0.0
H1075 H 0.85592 0.44888 0.19579 0.0
C1076 C 0.87435 0.38215 0.14703 0.0
C1077 C 0.87613 0.3836 0.20867 0.0
C1078 C 0.87315 0.39425 0.11406 0.0
C1079 C 0.87401 0.40822 0.14185 0.0
C1080 C 0.87542 0.40953 0.20348 0.0
C1081 C 0.87645 0.39733 0.23661 0.0
C1082 C 0.87364 0.42158 0.10666 0.0
C1083 C 0.86183 0.42633 0.1209 0.0
C1084 C 0.8847 0.42947 0.0589 0.0
C1085 C 0.89816 0.42582 0.04384 0.0
C1086 C 0.90994 0.4275 0.08647 0.0
C1087 C 0.92247 0.42384 0.07222 0.0
C1088 C 0.92346 0.41865 0.01529 0.0
C1089 C 0.91194 0.41715 0.97245 0.0
C1090 C 0.89935 0.42074 0.98652 0.0
C1091 C 0.87508 0.4884 0.00981 0.0
C1092 C 0.87474 0.48862 0.94788 0.0
C1093 C 0.87406 0.47476 0.03983 0.0
C1094 C 0.87238 0.46088 0.00879 0.0
C1095 C 0.87188 0.46096 0.94695 0.0
C1096 C 0.87304 0.47469 0.91674 0.0
C1097 C 0.87183 0.44662 0.04102 0.0
C1098 C 0.8835 0.44173 0.02632 0.0
C1099 C 0.86073 0.43868 0.08863 0.0
C1100 C 0.84772 0.44286 0.10512 0.0
C1101 C 0.83608 0.44192 0.06323 0.0
C1102 C 0.82411 0.44625 0.07875 0.0
C1103 C 0.82361 0.45148 0.13611 0.0
C1104 C 0.83505 0.45233 0.17814 0.0
C1105 C 0.84703 0.44799 0.16287 0.0
H1106 H 0.81435 0.45486 0.148 0.0
H1107 H 0.93318 0.41584 0.00432 0.0
H1108 H 0.39795 0.87489 0.09685 0.0
H1109 H 0.41859 0.87229 0.15608 0.0
H1110 H 0.39197 0.87056 0.31449 0.0
H1111 H 0.37152 0.87356 0.25582 0.0
H1112 H 0.42388 0.89089 0.32964 0.0
H1113 H 0.391 0.83525 0.25876 0.0
H1114 H 0.37645 0.813 0.185 0.0
H1115 H 0.42307 0.82735 0.09908 0.0
H1116 H 0.43789 0.84984 0.17188 0.0
H1117 H 0.47542 0.87115 0.50758 0.0
H1118 H 0.45082 0.86897 0.45866 0.0
H1119 H 0.47362 0.87278 0.28924 0.0
H1120 H 0.49801 0.87462 0.33738 0.0
H1121 H 0.44149 0.84935 0.28707 0.0
H1122 H 0.47368 0.9065 0.3568 0.0
H1123 H 0.48752 0.92846 0.43209 0.0
H1124 H 0.44091 0.91031 0.52321 0.0
H1125 H 0.42685 0.8881 0.44888 0.0
C1126 C 0.39642 0.87386 0.14425 0.0
C1127 C 0.38307 0.87445 0.17152 0.0
C1128 C 0.40819 0.87229 0.17808 0.0
C1129 C 0.40673 0.87103 0.23976 0.0
C1130 C 0.39336 0.87151 0.26702 0.0
C1131 C 0.38166 0.87319 0.23331 0.0
C1132 C 0.41949 0.86986 0.27594 0.0
C1133 C 0.42752 0.88161 0.32098 0.0
C1134 C 0.42438 0.85788 0.26432 0.0
C1135 C 0.41554 0.84432 0.22052 0.0
C1136 C 0.39814 0.83374 0.22389 0.0
C1137 C 0.38985 0.82107 0.18229 0.0
C1138 C 0.39883 0.81879 0.13731 0.0
C1139 C 0.41613 0.82914 0.13392 0.0
C1140 C 0.42449 0.84184 0.17538 0.0
C1141 C 0.47516 0.87143 0.4599 0.0
C1142 C 0.48875 0.87314 0.42647 0.0
C1143 C 0.46111 0.87025 0.43202 0.0
C1144 C 0.46046 0.87092 0.37028 0.0
C1145 C 0.47383 0.87224 0.33691 0.0
C1146 C 0.48781 0.87334 0.36462 0.0
C1147 C 0.44607 0.87057 0.33991 0.0
C1148 C 0.43772 0.85851 0.29603 0.0
C1149 C 0.44078 0.88218 0.35295 0.0
C1150 C 0.44926 0.89552 0.39768 0.0
C1151 C 0.46642 0.90711 0.39318 0.0
C1152 C 0.4743 0.91961 0.43563 0.0
C1153 C 0.46511 0.92075 0.48252 0.0
C1154 C 0.44802 0.9094 0.48696 0.0
C1155 C 0.44009 0.89685 0.44468 0.0
H1156 H 0.47123 0.93044 0.51531 0.0
H1157 H 0.39238 0.80897 0.10514 0.0
H1158 H 0.52414 0.40022 0.20765 0.0
H1159 H 0.54808 0.42267 0.25916 0.0
H1160 H 0.53043 0.39578 0.423 0.0
H1161 H 0.50635 0.37354 0.37229 0.0
H1162 H 0.53822 0.42698 0.43755 0.0
H1163 H 0.56502 0.39929 0.34897 0.0
H1164 H 0.57321 0.38725 0.26743 0.0
H1165 H 0.59867 0.4351 0.18252 0.0
H1166 H 0.59047 0.44741 0.26323 0.0
H1167 H 0.60916 0.47792 0.61161 0.0
H1168 H 0.58752 0.4541 0.5573 0.0
H1169 H 0.60467 0.48182 0.39491 0.0
H1170 H 0.62653 0.50558 0.44854 0.0
H1171 H 0.59744 0.45023 0.3791 0.0
H1172 H 0.57025 0.47773 0.46646 0.0
H1173 H 0.56203 0.48985 0.54768 0.0
H1174 H 0.53712 0.44221 0.6343 0.0
H1175 H 0.5454 0.42986 0.55394 0.0
C1176 C 0.52545 0.399 0.25453 0.0
C1177 C 0.51328 0.3851 0.28584 0.0
C1178 C 0.53918 0.41183 0.28391 0.0
C1179 C 0.54111 0.41088 0.34496 0.0
C1180 C 0.52918 0.39683 0.37595 0.0
C1181 C 0.51542 0.38409 0.34679 0.0
C1182 C 0.55507 0.42484 0.3773 0.0
C1183 C 0.55119 0.43188 0.42527 0.0
C1184 C 0.57197 0.43157 0.36035 0.0
C1185 C 0.57699 0.42423 0.31188 0.0
C1186 C 0.57226 0.40722 0.3127 0.0
C1187 C 0.57693 0.40036 0.26667 0.0
C1188 C 0.58643 0.4104 0.21976 0.0
C1189 C 0.59131 0.42735 0.21887 0.0
C1190 C 0.58667 0.43427 0.26477 0.0
C1191 C 0.60838 0.47895 0.56432 0.0
C1192 C 0.61953 0.49372 0.53455 0.0
C1193 C 0.59597 0.46533 0.53335 0.0
C1194 C 0.59433 0.46627 0.47214 0.0
C1195 C 0.60568 0.48083 0.44212 0.0
C1196 C 0.61815 0.49442 0.47297 0.0
C1197 C 0.58055 0.45222 0.43954 0.0
C1198 C 0.58447 0.44525 0.39143 0.0
C1199 C 0.56366 0.44554 0.45627 0.0
C1200 C 0.55859 0.45292 0.50447 0.0
C1201 C 0.56313 0.46987 0.50304 0.0
C1202 C 0.55844 0.47677 0.54888 0.0
C1203 C 0.5491 0.46681 0.59619 0.0
C1204 C 0.54438 0.44992 0.59767 0.0
C1205 C 0.54905 0.44296 0.55196 0.0
H1206 H 0.54548 0.47218 0.63165 0.0
H1207 H 0.59002 0.40507 0.18415 0.0
H1208 H 0.13191 0.52485 0.41764 0.0
H1209 H 0.13438 0.54912 0.47023 0.0
H1210 H 0.12604 0.52303 0.63533 0.0
H1211 H 0.12354 0.49878 0.58347 0.0
H1212 H 0.10624 0.53719 0.62216 0.0
H1213 H 0.16426 0.55361 0.60129 0.0
H1214 H 0.18963 0.55936 0.54662 0.0
H1215 H 0.18669 0.59702 0.44533 0.0
H1216 H 0.16116 0.59133 0.49888 0.0
H1217 H 0.12516 0.60282 0.82019 0.0
H1218 H 0.12696 0.5808 0.76695 0.0
H1219 H 0.13657 0.60859 0.60525 0.0
H1220 H 0.13477 0.6307 0.65797 0.0
H1221 H 0.15596 0.594 0.61466 0.0
H1222 H 0.09831 0.57779 0.63138 0.0
H1223 H 0.0726 0.57234 0.68291 0.0
H1224 H 0.07421 0.53443 0.78722 0.0
H1225 H 0.10009 0.53984 0.73685 0.0
C1226 C 0.1307 0.52431 0.46517 0.0
C1227 C 0.1275 0.50985 0.49628 0.0
C1228 C 0.13218 0.53821 0.49515 0.0
C1229 C 0.13046 0.53788 0.55669 0.0
C1230 C 0.1274 0.52353 0.58783 0.0
C1231 C 0.12602 0.5097 0.55804 0.0
C1232 C 0.13122 0.55223 0.58864 0.0
C1233 C 0.1172 0.54955 0.62121 0.0
C1234 C 0.14533 0.56846 0.58583 0.0
C1235 C 0.1607 0.57192 0.55368 0.0
C1236 C 0.16894 0.56302 0.56701 0.0
C1237 C 0.18336 0.56629 0.53629 0.0
C1238 C 0.18974 0.57851 0.49241 0.0
C1239 C 0.18172 0.58753 0.47927 0.0
C1240 C 0.16728 0.5843 0.50982 0.0
C1241 C 0.1278 0.60434 0.77339 0.0
C1242 C 0.12963 0.61844 0.74323 0.0
C1243 C 0.12878 0.59172 0.74302 0.0
C1244 C 0.13164 0.59296 0.68198 0.0
C1245 C 0.13426 0.60736 0.65225 0.0
C1246 C 0.13315 0.61994 0.68247 0.0
C1247 C 0.13106 0.57888 0.64877 0.0
C1248 C 0.14503 0.58161 0.61574 0.0
C1249 C 0.11685 0.5627 0.65061 0.0
C1250 C 0.10123 0.55934 0.68077 0.0
C1251 C 0.09326 0.56839 0.66563 0.0
C1252 C 0.07864 0.56529 0.69457 0.0
C1253 C 0.0718 0.55308 0.73842 0.0
C1254 C 0.07954 0.54391 0.7533 0.0
C1255 C 0.09418 0.54697 0.72455 0.0
H1256 H 0.06048 0.55069 0.76078 0.0
H1257 H 0.20091 0.58103 0.46869 0.0
H1258 H 0.59871 0.12275 0.53381 0.0
H1259 H 0.57651 0.12397 0.58821 0.0
H1260 H 0.60467 0.13346 0.74918 0.0
H1261 H 0.62663 0.13179 0.69558 0.0
H1262 H 0.57387 0.1103 0.76717 0.0
H1263 H 0.60022 0.16435 0.67467 0.0
H1264 H 0.61109 0.18416 0.5916 0.0
H1265 H 0.56222 0.16099 0.51417 0.0
H1266 H 0.55108 0.1409 0.59646 0.0
H1267 H 0.52469 0.13096 0.94876 0.0
H1268 H 0.54784 0.13273 0.89113 0.0
H1269 H 0.51842 0.12163 0.73264 0.0
H1270 H 0.49535 0.12019 0.78959 0.0
H1271 H 0.54965 0.14569 0.71244 0.0
H1272 H 0.52338 0.0916 0.80356 0.0
H1273 H 0.51231 0.0716 0.88602 0.0
H1274 H 0.56099 0.09466 0.96504 0.0
H1275 H 0.5723 0.11497 0.88344 0.0
C1276 C 0.60024 0.12524 0.5807 0.0
C1277 C 0.61443 0.12712 0.61034 0.0
C1278 C 0.58756 0.12601 0.61173 0.0
C1279 C 0.58896 0.12894 0.6728 0.0
C1280 C 0.60327 0.13114 0.70215 0.0
C1281 C 0.61584 0.1302 0.67136 0.0
C1282 C 0.57523 0.12895 0.70686 0.0
C1283 C 0.56877 0.11825 0.75568 0.0
C1284 C 0.5682 0.13892 0.69092 0.0
C1285 C 0.57486 0.15101 0.64145 0.0
C1286 C 0.59182 0.16339 0.6397 0.0
C1287 C 0.59802 0.17469 0.59281 0.0
C1288 C 0.58736 0.1738 0.54758 0.0
C1289 C 0.57046 0.16165 0.54923 0.0
C1290 C 0.5642 0.15031 0.59601 0.0
C1291 C 0.52315 0.12895 0.90162 0.0
C1292 C 0.5081 0.12533 0.87392 0.0
C1293 C 0.53638 0.1299 0.86875 0.0
C1294 C 0.53478 0.12707 0.80766 0.0
C1295 C 0.51993 0.12384 0.77971 0.0
C1296 C 0.50673 0.12296 0.81246 0.0
C1297 C 0.54846 0.12719 0.77298 0.0
C1298 C 0.55484 0.13782 0.72397 0.0
C1299 C 0.55542 0.11714 0.78862 0.0
C1300 C 0.54864 0.10491 0.83768 0.0
C1301 C 0.53169 0.09249 0.83876 0.0
C1302 C 0.52538 0.08108 0.88531 0.0
C1303 C 0.53593 0.08189 0.93082 0.0
C1304 C 0.55282 0.09407 0.9298 0.0
C1305 C 0.55919 0.10553 0.8834 0.0
H1306 H 0.53102 0.07304 0.96681 0.0
H1307 H 0.59219 0.18256 0.51131 0.0
H1308 H 0.27714 0.43707 0.21682 0.0
H1309 H 0.25087 0.43569 0.24536 0.0
H1310 H 0.2763 0.48948 0.25536 0.0
H1311 H 0.30254 0.49079 0.22739 0.0
H1312 H 0.25672 0.47584 0.34906 0.0
H1313 H 0.25084 0.46822 0.1394 0.0
H1314 H 0.25045 0.45502 0.04457 0.0
H1315 H 0.21007 0.40829 0.10602 0.0
H1316 H 0.2104 0.42115 0.20163 0.0
H1317 H 0.18746 0.48882 0.3498 0.0
H1318 H 0.21278 0.48814 0.32267 0.0
H1319 H 0.18511 0.43429 0.32736 0.0
H1320 H 0.1597 0.43501 0.35414 0.0
H1321 H 0.20521 0.44665 0.2285 0.0
H1322 H 0.21064 0.45484 0.43741 0.0
H1323 H 0.21106 0.4684 0.53142 0.0
H1324 H 0.25238 0.51452 0.47016 0.0
H1325 H 0.25203 0.5013 0.37536 0.0
C1326 C 0.27701 0.44855 0.22487 0.0
C1327 C 0.29175 0.46402 0.22022 0.0
C1328 C 0.26205 0.44778 0.24103 0.0
C1329 C 0.26159 0.4625 0.25212 0.0
C1330 C 0.27636 0.47797 0.24721 0.0
C1331 C 0.29131 0.47872 0.23123 0.0
C1332 C 0.2458 0.46182 0.26962 0.0
C1333 C 0.24551 0.46962 0.32232 0.0
C1334 C 0.23106 0.45335 0.2355 0.0
C1335 C 0.23077 0.44561 0.17791 0.0
C1336 C 0.24197 0.45509 0.13288 0.0
C1337 C 0.24174 0.44768 0.07895 0.0
C1338 C 0.23027 0.43081 0.06933 0.0
C1339 C 0.21897 0.42134 0.11357 0.0
C1340 C 0.21917 0.42869 0.16763 0.0
C1341 C 0.18685 0.47687 0.3449 0.0
C1342 C 0.17176 0.46197 0.35375 0.0
C1343 C 0.20128 0.47648 0.3297 0.0
C1344 C 0.20084 0.46116 0.32338 0.0
C1345 C 0.1857 0.44623 0.33202 0.0
C1346 C 0.17127 0.44664 0.34751 0.0
C1347 C 0.21621 0.4608 0.30756 0.0
C1348 C 0.21641 0.4528 0.25528 0.0
C1349 C 0.2309 0.46914 0.34192 0.0
C1350 C 0.23121 0.47711 0.39906 0.0
C1351 C 0.21973 0.46791 0.44379 0.0
C1352 C 0.21997 0.47553 0.49726 0.0
C1353 C 0.23171 0.49232 0.50671 0.0
C1354 C 0.24327 0.50152 0.46275 0.0
C1355 C 0.24307 0.49396 0.40916 0.0
H1356 H 0.23188 0.4982 0.54814 0.0
H1357 H 0.23011 0.42509 0.02755 0.0
H1358 H 0.83639 0.2909 0.44109 0.0
H1359 H 0.81128 0.26478 0.46782 0.0
H1360 H 0.79325 0.25962 0.28937 0.0
H1361 H 0.81834 0.28586 0.26266 0.0
H1362 H 0.77937 0.257 0.4667 0.0
H1363 H 0.77044 0.21788 0.25605 0.0
H1364 H 0.78767 0.21516 0.17865 0.0
H1365 H 0.82928 0.23395 0.29759 0.0
H1366 H 0.81224 0.23654 0.37591 0.0
H1367 H 0.69719 0.18824 0.4562 0.0
H1368 H 0.72384 0.21292 0.43032 0.0
H1369 H 0.74915 0.18499 0.45911 0.0
H1370 H 0.72237 0.16014 0.48333 0.0
H1371 H 0.76053 0.20349 0.36135 0.0
H1372 H 0.75083 0.21255 0.56153 0.0
H1373 H 0.73481 0.21468 0.64459 0.0
H1374 H 0.73298 0.255 0.55791 0.0
H1375 H 0.74879 0.25295 0.47389 0.0
C1376 C 0.82704 0.28418 0.40764 0.0
C1377 C 0.82926 0.29035 0.34985 0.0
C1378 C 0.81274 0.26927 0.42291 0.0
C1379 C 0.80043 0.2602 0.38056 0.0
C1380 C 0.8027 0.26629 0.32257 0.0
C1381 C 0.81703 0.28123 0.3073 0.0
C1382 C 0.78503 0.24463 0.39758 0.0
C1383 C 0.77526 0.2453 0.44364 0.0
C1384 C 0.77981 0.2293 0.3682 0.0
C1385 C 0.7901 0.22757 0.32163 0.0
C1386 C 0.78325 0.22137 0.26574 0.0
C1387 C 0.79298 0.21985 0.2217 0.0
C1388 C 0.80958 0.22443 0.23313 0.0
C1389 C 0.81645 0.23047 0.28871 0.0
C1390 C 0.80676 0.23198 0.33291 0.0
C1391 C 0.70846 0.18739 0.45645 0.0
C1392 C 0.70782 0.17237 0.47141 0.0
C1393 C 0.72366 0.20149 0.44211 0.0
C1394 C 0.73852 0.20085 0.44329 0.0
C1395 C 0.73785 0.18577 0.45788 0.0
C1396 C 0.72262 0.17165 0.47201 0.0
C1397 C 0.75474 0.21595 0.42977 0.0
C1398 C 0.76465 0.21519 0.38436 0.0
C1399 C 0.76028 0.23114 0.46052 0.0
C1400 C 0.75088 0.2325 0.51119 0.0
C1401 C 0.74691 0.2218 0.55999 0.0
C1402 C 0.73788 0.223 0.60727 0.0
C1403 C 0.73285 0.23495 0.60647 0.0
C1404 C 0.73687 0.24574 0.55844 0.0
C1405 C 0.74588 0.24457 0.511 0.0
H1406 H 0.72585 0.23586 0.64312 0.0
H1407 H 0.8171 0.22326 0.19897 0.0
H1408 H 0.56402 0.84019 0.55582 0.0
H1409 H 0.56494 0.81496 0.58287 0.0
H1410 H 0.51109 0.78697 0.58797 0.0
H1411 H 0.51023 0.81224 0.56143 0.0
H1412 H 0.52412 0.77996 0.68177 0.0
H1413 H 0.53279 0.78369 0.47238 0.0
H1414 H 0.54659 0.79745 0.37939 0.0
H1415 H 0.59281 0.80273 0.44184 0.0
H1416 H 0.57934 0.78924 0.53565 0.0
H1417 H 0.51062 0.6975 0.67319 0.0
H1418 H 0.51154 0.7238 0.6491 0.0
H1419 H 0.56536 0.74967 0.65597 0.0
H1420 H 0.5644 0.72326 0.67966 0.0
H1421 H 0.55352 0.75838 0.55851 0.0
H1422 H 0.54444 0.75378 0.76694 0.0
H1423 H 0.53047 0.73997 0.85964 0.0
H1424 H 0.48478 0.73618 0.79839 0.0
H1425 H 0.49841 0.74974 0.70486 0.0
C1426 C 0.55243 0.82861 0.56273 0.0
C1427 C 0.53707 0.82805 0.55714 0.0
C1428 C 0.55294 0.81423 0.57798 0.0
C1429 C 0.53807 0.79905 0.58709 0.0
C1430 C 0.52271 0.79855 0.58139 0.0
C1431 C 0.52221 0.81293 0.56629 0.0
C1432 C 0.53848 0.78368 0.60277 0.0
C1433 C 0.53038 0.77513 0.65444 0.0
C1434 C 0.54701 0.77762 0.56788 0.0
C1435 C 0.5551 0.7856 0.51129 0.0
C1436 C 0.54593 0.7879 0.46647 0.0
C1437 C 0.55369 0.79564 0.41359 0.0
C1438 C 0.57058 0.801 0.40477 0.0
C1439 C 0.57973 0.79859 0.44877 0.0
C1440 C 0.57204 0.79089 0.5018 0.0
C1441 C 0.52261 0.70883 0.66938 0.0
C1442 C 0.53745 0.70848 0.67803 0.0
C1443 C 0.52314 0.72382 0.65595 0.0
C1444 C 0.53852 0.7387 0.65118 0.0
C1445 C 0.55337 0.73832 0.65949 0.0
C1446 C 0.55283 0.72332 0.67321 0.0
C1447 C 0.53903 0.75461 0.63719 0.0
C1448 C 0.54732 0.76325 0.5859 0.0
C1449 C 0.53063 0.76074 0.67234 0.0
C1450 C 0.52241 0.75264 0.72864 0.0
C1451 C 0.53137 0.74987 0.77301 0.0
C1452 C 0.52352 0.74211 0.82575 0.0
C1453 C 0.50674 0.73716 0.83484 0.0
C1454 C 0.49778 0.74 0.79125 0.0
C1455 C 0.50556 0.74774 0.73839 0.0
H1456 H 0.50068 0.73116 0.87571 0.0
H1457 H 0.57656 0.80699 0.3638 0.0
H1458 H 0.84073 0.54996 0.7226 0.0
H1459 H 0.81582 0.55129 0.69311 0.0
H1460 H 0.79043 0.52446 0.85038 0.0
H1461 H 0.81542 0.52345 0.88064 0.0
H1462 H 0.77718 0.51622 0.70031 0.0
H1463 H 0.79114 0.55108 0.88492 0.0
H1464 H 0.81218 0.57448 0.94451 0.0
H1465 H 0.82461 0.6073 0.79574 0.0
H1466 H 0.80379 0.58397 0.73512 0.0
H1467 H 0.69962 0.51302 0.70156 0.0
H1468 H 0.72539 0.51335 0.7274 0.0
H1469 H 0.75403 0.56468 0.67062 0.0
H1470 H 0.72807 0.5647 0.64904 0.0
H1471 H 0.76722 0.56178 0.76499 0.0
H1472 H 0.75029 0.53042 0.58682 0.0
H1473 H 0.7313 0.50849 0.51797 0.0
H1474 H 0.7268 0.47068 0.6385 0.0
H1475 H 0.74559 0.49238 0.70847 0.0
C1476 C 0.82983 0.54445 0.75087 0.0
C1477 C 0.82992 0.53672 0.80398 0.0
C1478 C 0.81568 0.54522 0.73409 0.0
C1479 C 0.80143 0.53809 0.76992 0.0
C1480 C 0.80143 0.53018 0.82262 0.0
C1481 C 0.81565 0.52964 0.83985 0.0
C1482 C 0.7864 0.53863 0.75172 0.0
C1483 C 0.77482 0.52602 0.71483 0.0
C1484 C 0.78379 0.5518 0.76892 0.0
C1485 C 0.7961 0.56579 0.80545 0.0
C1486 C 0.79849 0.56325 0.86485 0.0
C1487 C 0.81033 0.5765 0.89881 0.0
C1488 C 0.81976 0.59236 0.87388 0.0
C1489 C 0.81732 0.595 0.81497 0.0
C1490 C 0.80551 0.58178 0.78081 0.0
C1491 C 0.71142 0.52443 0.6953 0.0
C1492 C 0.71188 0.53887 0.67371 0.0
C1493 C 0.72617 0.52454 0.70924 0.0
C1494 C 0.74174 0.53895 0.69999 0.0
C1495 C 0.74221 0.55339 0.67805 0.0
C1496 C 0.7274 0.55336 0.66523 0.0
C1497 C 0.75746 0.539 0.71443 0.0
C1498 C 0.76936 0.55184 0.75027 0.0
C1499 C 0.76048 0.52614 0.69522 0.0
C1500 C 0.74924 0.51304 0.6531 0.0
C1501 C 0.74516 0.51743 0.59881 0.0
C1502 C 0.73445 0.50504 0.55956 0.0
C1503 C 0.72782 0.4882 0.5739 0.0
C1504 C 0.73193 0.48372 0.62747 0.0
C1505 C 0.74263 0.49606 0.66691 0.0
H1506 H 0.71952 0.47863 0.54346 0.0
H1507 H 0.82893 0.6026 0.90023 0.0
H1508 H 0.27713 0.84168 0.02194 0.0
H1509 H 0.25104 0.81665 0.99299 0.0
H1510 H 0.27659 0.78833 0.98952 0.0
H1511 H 0.30266 0.8134 0.01761 0.0
H1512 H 0.25765 0.78191 0.89435 0.0
H1513 H 0.25027 0.78474 0.10292 0.0
H1514 H 0.24913 0.79809 0.19552 0.0
H1515 H 0.20916 0.80393 0.12618 0.0
H1516 H 0.21023 0.79084 0.03276 0.0
H1517 H 0.18889 0.69958 0.89342 0.0
H1518 H 0.21388 0.72577 0.92119 0.0
H1519 H 0.18581 0.75148 0.91075 0.0
H1520 H 0.16071 0.72515 0.88366 0.0
H1521 H 0.20535 0.75998 0.01021 0.0
H1522 H 0.21216 0.75611 0.80276 0.0
H1523 H 0.21329 0.74252 0.71079 0.0
H1524 H 0.25441 0.73842 0.77883 0.0
H1525 H 0.25336 0.75176 0.87164 0.0
C1526 C 0.27706 0.83004 0.01526 0.0
C1527 C 0.29178 0.82935 0.02173 0.0
C1528 C 0.2622 0.81578 -0.00113 0.0
C1529 C 0.26183 0.80057 0.98947 0.0
C1530 C 0.27658 0.79992 0.99634 0.0
C1531 C 0.29143 0.81419 0.01243 0.0
C1532 C 0.24617 0.78536 0.97163 0.0
C1533 C 0.24628 0.77702 0.92009 0.0
C1534 C 0.23119 0.77921 0.00433 0.0
C1535 C 0.23045 0.78697 0.06062 0.0
C1536 C 0.24132 0.78899 0.10724 0.0
C1537 C 0.24068 0.79649 0.1599 0.0
C1538 C 0.22911 0.80189 0.16667 0.0
C1539 C 0.21813 0.79976 0.12084 0.0
C1540 C 0.21874 0.79229 0.06804 0.0
C1541 C 0.18811 0.71084 0.89735 0.0
C1542 C 0.17299 0.71047 0.88679 0.0
C1543 C 0.20236 0.72578 0.91284 0.0
C1544 C 0.20172 0.74059 0.91759 0.0
C1545 C 0.18655 0.74019 0.90731 0.0
C1546 C 0.1723 0.72523 0.89165 0.0
C1547 C 0.21693 0.75647 0.93341 0.0
C1548 C 0.21673 0.76494 0.98442 0.0
C1549 C 0.23184 0.76272 0.90034 0.0
C1550 C 0.23259 0.7548 0.84438 0.0
C1551 C 0.22136 0.7522 0.79831 0.0
C1552 C 0.222 0.74455 0.74599 0.0
C1553 C 0.23389 0.73958 0.73901 0.0
C1554 C 0.2452 0.74227 0.78431 0.0
C1555 C 0.2446 0.74988 0.83677 0.0
H1556 H 0.23436 0.73367 0.69847 0.0
H1557 H 0.22863 0.80769 0.20748 0.0
H1558 H 0.43727 0.2767 0.16364 0.0
H1559 H 0.43618 0.25056 0.13493 0.0
H1560 H 0.48945 0.27744 0.10656 0.0
H1561 H 0.4905 0.3035 0.13528 0.0
H1562 H 0.47312 0.25633 0.0163 0.0
H1563 H 0.4729 0.25373 0.228 0.0
H1564 H 0.46257 0.25429 0.32765 0.0
H1565 H 0.41505 0.21175 0.2853 0.0
H1566 H 0.42502 0.2111 0.18499 0.0
H1567 H 0.48986 0.18957 0.00466 0.0
H1568 H 0.48885 0.21472 0.03171 0.0
H1569 H 0.43564 0.18485 0.05863 0.0
H1570 H 0.43677 0.15963 0.03262 0.0
H1571 H 0.45052 0.20689 0.14771 0.0
H1572 H 0.4509 0.20882 0.93724 0.0
H1573 H 0.46107 0.20827 0.83731 0.0
H1574 H 0.50798 0.25197 0.87672 0.0
H1575 H 0.49819 0.25264 0.97726 0.0
C1576 C 0.44871 0.27692 0.15152 0.0
C1577 C 0.46395 0.29201 0.15119 0.0
C1578 C 0.4481 0.26204 0.13521 0.0
C1579 C 0.46276 0.26205 0.11879 0.0
C1580 C 0.47799 0.27716 0.11878 0.0
C1581 C 0.47859 0.292 0.13515 0.0
C1582 C 0.46226 0.24636 0.10112 0.0
C1583 C 0.46836 0.24558 0.04528 0.0
C1584 C 0.45562 0.23219 0.13834 0.0
C1585 C 0.44965 0.23248 0.19878 0.0
C1586 C 0.4602 0.24458 0.23977 0.0
C1587 C 0.45442 0.2449 0.2964 0.0
C1588 C 0.43815 0.23309 0.31275 0.0
C1589 C 0.42765 0.22091 0.27254 0.0
C1590 C 0.43336 0.22055 0.2158 0.0
C1591 C 0.47799 0.18844 0.01657 0.0
C1592 C 0.4634 0.17278 0.0171 0.0
C1593 C 0.47739 0.20278 0.0316 0.0
C1594 C 0.46214 0.20168 0.0468 0.0
C1595 C 0.44753 0.18598 0.0471 0.0
C1596 C 0.44815 0.17164 0.03204 0.0
C1597 C 0.46153 0.21691 0.06308 0.0
C1598 C 0.45521 0.2176 0.11861 0.0
C1599 C 0.46795 0.231 0.02554 0.0
C1600 C 0.47386 0.23069 0.96499 0.0
C1601 C 0.46343 0.21824 0.92477 0.0
C1602 C 0.46912 0.21792 0.86798 0.0
C1603 C 0.48517 0.23005 0.85072 0.0
C1604 C 0.49556 0.24256 0.89017 0.0
C1605 C 0.48994 0.24293 0.94706 0.0
H1606 H 0.48955 0.22978 0.80673 0.0
H1607 H 0.4337 0.23336 0.35661 0.0
H1608 H 0.38371 0.45202 0.2501 0.0
H1609 H 0.39667 0.43469 0.25647 0.0
H1610 H 0.35964 0.39903 0.13733 0.0
H1611 H 0.34707 0.41674 0.1286 0.0
H1612 H 0.38913 0.40547 0.29112 0.0
H1613 H 0.37634 0.38176 0.05018 0.0
H1614 H 0.37143 0.39053 0.95305 0.0
H1615 H 0.3987 0.44186 0.00716 0.0
H1616 H 0.40396 0.43341 0.10425 0.0
H1617 H 0.41891 0.34849 0.26457 0.0
H1618 H 0.40083 0.36076 0.26025 0.0
H1619 H 0.43472 0.39774 0.13694 0.0
H1620 H 0.45229 0.38503 0.13877 0.0
H1621 H 0.40551 0.3894 0.10489 0.0
H1622 H 0.43383 0.40523 0.2913 0.0
H1623 H 0.44269 0.40051 0.38848 0.0
H1624 H 0.3915 0.37217 0.44343 0.0
H1625 H 0.38233 0.37656 0.34626 0.0
C1626 C 0.37823 0.44042 0.22558 0.0
C1627 C 0.36449 0.43586 0.18821 0.0
C1628 C 0.38564 0.43048 0.22941 0.0
C1629 C 0.37935 0.41569 0.19651 0.0
C1630 C 0.365 0.4106 0.16196 0.0
C1631 C 0.35777 0.4207 0.15722 0.0
C1632 C 0.38834 0.40611 0.19632 0.0
C1633 C 0.39264 0.40189 0.25038 0.0
C1634 C 0.39323 0.40169 0.14324 0.0
C1635 C 0.39036 0.40692 0.08467 0.0
C1636 C 0.38133 0.39492 0.04124 0.0
C1637 C 0.37848 0.39983 0.98622 0.0
C1638 C 0.38469 0.41674 0.97404 0.0
C1639 C 0.39384 0.42877 0.01673 0.0
C1640 C 0.39675 0.42392 0.07177 0.0
C1641 C 0.42241 0.35916 0.23622 0.0
C1642 C 0.43707 0.36585 0.20226 0.0
C1643 C 0.41212 0.36623 0.23402 0.0
C1644 C 0.41655 0.3804 0.19913 0.0
C1645 C 0.43099 0.38682 0.16419 0.0
C1646 C 0.44107 0.37955 0.16541 0.0
C1647 C 0.40646 0.38888 0.19972 0.0
C1648 C 0.40188 0.39283 0.14569 0.0
C1649 C 0.40191 0.39365 0.25281 0.0
C1650 C 0.40739 0.39107 0.31133 0.0
C1651 C 0.42446 0.3979 0.32399 0.0
C1652 C 0.42954 0.3953 0.37907 0.0
C1653 C 0.41766 0.386 0.42204 0.0
C1654 C 0.40068 0.37934 0.41007 0.0
C1655 C 0.39554 0.38189 0.35502 0.0
H1656 H 0.42161 0.384 0.46465 0.0
H1657 H 0.38244 0.42051 0.93146 0.0
H1658 H 0.92753 0.36682 0.43023 0.0
H1659 H 0.95743 0.37915 0.44968 0.0
H1660 H 0.96632 0.3767 0.26415 0.0
H1661 H 0.93647 0.36362 0.24508 0.0
H1662 H 0.98575 0.36977 0.32038 0.0
H1663 H 0.97254 0.41363 0.33733 0.0
H1664 H 0.95769 0.42763 0.3753 0.0
H1665 H 0.97486 0.42678 0.55033 0.0
H1666 H 0.98966 0.41258 0.51347 0.0
H1667 H 0.07031 0.43764 0.30364 0.0
H1668 H 0.03996 0.41994 0.29524 0.0
H1669 H 0.03639 0.41144 0.48278 0.0
H1670 H 0.06674 0.42883 0.49155 0.0
H1671 H 0.01462 0.42291 0.43221 0.0
H1672 H 0.03024 0.38078 0.4064 0.0
H1673 H 0.04595 0.36862 0.36083 0.0
H1674 H 0.02503 0.36866 0.19199 0.0
H1675 H 0.00938 0.38105 0.23642 0.0
C1676 C 0.93588 0.36879 0.39375 0.0
C1677 C 0.92967 0.36433 0.3361 0.0
C1678 C 0.95298 0.37593 0.40482 0.0
C1679 C 0.96424 0.37921 0.35822 0.0
C1680 C 0.95795 0.37432 0.30091 0.0
C1681 C 0.94085 0.36687 0.29003 0.0
C1682 C 0.9826 0.38813 0.36845 0.0
C1683 C 0.99203 0.38145 0.34444 0.0
C1684 C 0.99089 0.40331 0.4005 0.0
C1685 C 0.98204 0.41188 0.42275 0.0
C1686 C 0.97305 0.41633 0.38398 0.0
C1687 C 0.96466 0.42431 0.40529 0.0
C1688 C 0.96529 0.42804 0.46522 0.0
C1689 C 0.97436 0.42384 0.50394 0.0
C1690 C 0.98276 0.41584 0.48286 0.0
C1691 C 0.06308 0.43188 0.34301 0.0
C1692 C 0.07092 0.43463 0.39825 0.0
C1693 C 0.04577 0.42175 0.33811 0.0
C1694 C 0.036 0.41441 0.38842 0.0
C1695 C 0.04376 0.417 0.44351 0.0
C1696 C 0.06109 0.42688 0.44833 0.0
C1697 C 0.01759 0.40458 0.38371 0.0
C1698 C 0.00822 0.41113 0.40865 0.0
C1699 C 0.00942 0.38953 0.35139 0.0
C1700 C 0.01875 0.38199 0.32467 0.0
C1701 C 0.0291 0.37833 0.35946 0.0
C1702 C 0.03797 0.37137 0.33385 0.0
C1703 C 0.03652 0.36791 0.27352 0.0
C1704 C 0.02616 0.37136 0.2387 0.0
C1705 C 0.01727 0.37834 0.26409 0.0
H1706 H 0.0434 0.36251 0.25378 0.0
H1707 H 0.95878 0.43422 0.48164 0.0
H1708 H 0.61537 0.06806 0.44718 0.0
H1709 H 0.60316 0.03782 0.44261 0.0
H1710 H 0.64095 0.04093 0.56199 0.0
H1711 H 0.6527 0.07114 0.56908 0.0
H1712 H 0.61116 0.01661 0.40908 0.0
H1713 H 0.62561 0.00737 0.65027 0.0
H1714 H 0.63026 0.02127 0.74691 0.0
H1715 H 0.60134 0.04353 0.69233 0.0
H1716 H 0.59634 0.0296 0.59574 0.0
H1717 H 0.58324 0.93029 0.43864 0.0
H1718 H 0.60091 0.96071 0.44127 0.0
H1719 H 0.56743 0.96359 0.56713 0.0
H1720 H 0.55028 0.9333 0.56686 0.0
H1721 H 0.5966 0.98495 0.59684 0.0
H1722 H 0.56698 0.9714 0.41387 0.0
H1723 H 0.5573 0.95755 0.31747 0.0
H1724 H 0.60796 0.98064 0.25641 0.0
H1725 H 0.61796 0.9945 0.35279 0.0
C1726 C 0.62115 0.06232 0.47222 0.0
C1727 C 0.63486 0.07195 0.50915 0.0
C1728 C 0.61419 0.04501 0.46939 0.0
C1729 C 0.62092 0.037 0.50279 0.0
C1730 C 0.63523 0.04674 0.53702 0.0
C1731 C 0.64199 0.06402 0.54085 0.0
C1732 C 0.61244 0.01845 0.50381 0.0
C1733 C 0.60807 0.0097 0.45016 0.0
C1734 C 0.60803 0.00934 0.55734 0.0
C1735 C 0.6108 0.01761 0.61556 0.0
C1736 C 0.62021 0.0152 0.659 0.0
C1737 C 0.62291 0.02308 0.71374 0.0
C1738 C 0.61616 0.03333 0.72565 0.0
C1739 C 0.60662 0.03565 0.68296 0.0
C1740 C 0.60387 0.02777 0.62821 0.0
C1741 C 0.57976 0.93743 0.46723 0.0
C1742 C 0.56533 0.92939 0.50235 0.0
C1743 C 0.58981 0.95482 0.46847 0.0
C1744 C 0.58538 0.96453 0.50364 0.0
C1745 C 0.57118 0.95644 0.53971 0.0
C1746 C 0.56134 0.93908 0.53938 0.0
C1747 C 0.59515 0.98309 0.50211 0.0
C1748 C 0.59985 0.99185 0.5557 0.0
C1749 C 0.59914 0.99218 0.4486 0.0
C1750 C 0.59322 0.98384 0.3907 0.0
C1751 C 0.57606 0.97343 0.38003 0.0
C1752 C 0.57052 0.96559 0.32539 0.0
C1753 C 0.58201 0.9682 0.2809 0.0
C1754 C 0.59908 0.97863 0.29095 0.0
C1755 C 0.60469 0.98649 0.34556 0.0
H1756 H 0.57766 0.96218 0.23858 0.0
H1757 H 0.61828 0.03944 0.76802 0.0
H1758 H 0.65539 0.58648 0.58801 0.0
H1759 H 0.64374 0.60483 0.60283 0.0
H1760 H 0.60834 0.56972 0.72745 0.0
H1761 H 0.6204 0.55177 0.71491 0.0
H1762 H 0.61536 0.6013 0.5794 0.0
H1763 H 0.59621 0.58761 0.827 0.0
H1764 H 0.60673 0.58172 0.91846 0.0
H1765 H 0.65646 0.60635 0.84796 0.0
H1766 H 0.6463 0.61261 0.75643 0.0
H1767 H 0.55031 0.61714 0.64204 0.0
H1768 H 0.56901 0.60594 0.62943 0.0
H1769 H 0.60399 0.64267 0.751 0.0
H1770 H 0.58489 0.65343 0.766 0.0
H1771 H 0.60184 0.61503 0.77567 0.0
H1772 H 0.61088 0.64465 0.59646 0.0
H1773 H 0.60338 0.65366 0.50483 0.0
H1774 H 0.58008 0.60353 0.43833 0.0
H1775 H 0.58722 0.59415 0.52993 0.0
C1776 C 0.64526 0.58278 0.61914 0.0
C1777 C 0.63887 0.5677 0.65046 0.0
C1778 C 0.63857 0.59326 0.62743 0.0
C1779 C 0.62527 0.5888 0.66679 0.0
C1780 C 0.61888 0.57371 0.69799 0.0
C1781 C 0.62573 0.56338 0.6905 0.0
C1782 C 0.61752 0.59946 0.67331 0.0
C1783 C 0.61252 0.6044 0.62234 0.0
C1784 C 0.61418 0.60394 0.72925 0.0
C1785 C 0.62045 0.60047 0.78463 0.0
C1786 C 0.6094 0.59186 0.83113 0.0
C1787 C 0.6153 0.58843 0.88296 0.0
C1788 C 0.63224 0.59362 0.88895 0.0
C1789 C 0.64333 0.6023 0.84319 0.0
C1790 C 0.63751 0.60577 0.7913 0.0
C1791 C 0.56204 0.62293 0.66577 0.0
C1792 C 0.56612 0.63618 0.70501 0.0
C1793 C 0.5728 0.61657 0.65824 0.0
C1794 C 0.58809 0.62361 0.68851 0.0
C1795 C 0.59228 0.63701 0.72713 0.0
C1796 C 0.58138 0.64318 0.73554 0.0
C1797 C 0.59928 0.61646 0.68178 0.0
C1798 C 0.60489 0.61214 0.73271 0.0
C1799 C 0.60369 0.61308 0.62578 0.0
C1800 C 0.5995 0.61868 0.57029 0.0
C1801 C 0.60407 0.63552 0.56245 0.0
C1802 C 0.59989 0.6407 0.5105 0.0
C1803 C 0.59124 0.62917 0.46584 0.0
C1804 C 0.58678 0.61244 0.47298 0.0
C1805 C 0.59091 0.60719 0.52488 0.0
H1806 H 0.588 0.6332 0.42566 0.0
H1807 H 0.63677 0.59093 0.92908 0.0
H1808 H 0.06917 0.61809 0.90481 0.0
H1809 H 0.03887 0.6051 0.90817 0.0
H1810 H 0.04094 0.64098 0.78186 0.0
H1811 H 0.07128 0.65357 0.77622 0.0
H1812 H 0.01733 0.61316 0.93835 0.0
H1813 H 0.00713 0.62356 0.69382 0.0
H1814 H 0.02109 0.62745 0.59767 0.0
H1815 H 0.04477 0.60055 0.66005 0.0
H1816 H 0.03078 0.59632 0.75622 0.0
H1817 H 0.9309 0.58319 0.90919 0.0
H1818 H 0.96118 0.60143 0.90289 0.0
H1819 H 0.96429 0.56608 0.78691 0.0
H1820 H 0.93404 0.5483 0.79059 0.0
H1821 H 0.98533 0.59499 0.75145 0.0
H1822 H 0.9724 0.56853 0.94121 0.0
H1823 H 0.95849 0.56059 0.03811 0.0
H1824 H 0.98125 0.61228 0.08669 0.0
H1825 H 0.99513 0.62052 0.98972 0.0
C1826 C 0.0632 0.62329 0.87794 0.0
C1827 C 0.07261 0.63674 0.83969 0.0
C1828 C 0.04585 0.61587 0.88006 0.0
C1829 C 0.03754 0.62186 0.84455 0.0
C1830 C 0.047 0.63586 0.8086 0.0
C1831 C 0.06436 0.6431 0.8056 0.0
C1832 C 0.01899 0.61298 0.84366 0.0
C1833 C 0.01035 0.60926 0.89743 0.0
C1834 C 0.00981 0.60757 0.79041 0.0
C1835 C 0.01806 0.60981 0.7324 0.0
C1836 C 0.01527 0.61843 0.6869 0.0
C1837 C 0.02319 0.6207 0.63243 0.0
C1838 C 0.03386 0.61431 0.62284 0.0
C1839 C 0.03655 0.60555 0.6676 0.0
C1840 C 0.02864 0.60322 0.7221 0.0
C1841 C 0.93805 0.57941 0.8819 0.0
C1842 C 0.93011 0.56426 0.85072 0.0
C1843 C 0.95537 0.5898 0.87856 0.0
C1844 C 0.96511 0.58499 0.84541 0.0
C1845 C 0.9571 0.5701 0.81281 0.0
C1846 C 0.93978 0.5599 0.8151 0.0
C1847 C 0.98366 0.59503 0.84618 0.0
C1848 C 0.9923 0.59902 0.79236 0.0
C1849 C 0.99285 0.60007 0.89949 0.0
C1850 C 0.98465 0.59514 0.95801 0.0
C1851 C 0.97435 0.5782 0.97244 0.0
C1852 C 0.96649 0.57365 0.02737 0.0
C1853 C 0.96895 0.58593 0.06846 0.0
C1854 C 0.97933 0.60278 0.05477 0.0
C1855 C 0.98721 0.6074 -0.00015 0.0
H1856 H 0.96284 0.58238 0.11095 0.0
H1857 H 0.04001 0.61611 0.58069 0.0
H1858 H 0.41584 0.06852 0.92781 0.0
H1859 H 0.39776 0.03852 0.94312 0.0
H1860 H 0.43291 0.03887 0.06898 0.0
H1861 H 0.45067 0.06889 0.05562 0.0
H1862 H 0.40194 0.01373 0.92107 0.0
H1863 H 0.41449 0.00909 0.17016 0.0
H1864 H 0.41997 0.02575 0.26084 0.0
H1865 H 0.39553 0.05055 0.18611 0.0
H1866 H 0.3897 0.03389 0.09533 0.0
H1867 H 0.38464 0.93256 0.99007 0.0
H1868 H 0.39648 0.96251 0.97603 0.0
H1869 H 0.35923 0.96188 0.09234 0.0
H1870 H 0.34781 0.93199 0.10879 0.0
H1871 H 0.38706 0.98712 0.1183 0.0
H1872 H 0.35842 0.96617 0.93708 0.0
H1873 H 0.34996 0.94934 0.8461 0.0
H1874 H 0.40059 0.97557 0.7841 0.0
H1875 H 0.4094 0.9924 0.8751 0.0
C1876 C 0.41962 0.06223 0.95926 0.0
C1877 C 0.43467 0.07112 0.99066 0.0
C1878 C 0.40929 0.04507 0.96782 0.0
C1879 C 0.41385 0.03642 0.00766 0.0
C1880 C 0.42889 0.04529 0.03902 0.0
C1881 C 0.4391 0.06247 0.03111 0.0
C1882 C 0.40328 0.01803 0.01476 0.0
C1883 C 0.3986 0.00792 0.9642 0.0
C1884 C 0.39852 0.01039 0.07091 0.0
C1885 C 0.40178 0.02032 0.12573 0.0
C1886 C 0.41021 0.01804 0.17319 0.0
C1887 C 0.41339 0.0275 0.22458 0.0
C1888 C 0.40814 0.03923 0.22917 0.0
C1889 C 0.39964 0.0415 0.18243 0.0
C1890 C 0.39641 0.03206 0.13097 0.0
C1891 C 0.37888 0.93877 0.01236 0.0
C1892 C 0.36528 0.92989 0.05054 0.0
C1893 C 0.38561 0.95591 0.00401 0.0
C1894 C 0.37861 0.96448 0.03237 0.0
C1895 C 0.36487 0.95558 0.06995 0.0
C1896 C 0.35832 0.93848 0.07919 0.0
C1897 C 0.38608 0.98282 0.02467 0.0
C1898 C 0.39022 0.99292 0.07512 0.0
C1899 C 0.38985 0.99044 0.96833 0.0
C1900 C 0.38458 0.98047 0.91315 0.0
C1901 C 0.36776 0.96829 0.9042 0.0
C1902 C 0.36291 0.95875 0.85261 0.0
C1903 C 0.37473 0.96137 0.8094 0.0
C1904 C 0.39144 0.97356 0.81762 0.0
C1905 C 0.39637 0.98311 0.86917 0.0
H1906 H 0.37095 0.95396 0.76951 0.0
H1907 H 0.41063 0.04655 0.26897 0.0
loop_
_geom_bond_atom_site_label_1
_geom_bond_atom_site_label_2
_geom_bond_distance
_geom_bond_site_symmetry_2
_ccdc_geom_bond_type
Co0 O3 1.970 . S
Co0 N17 1.989 . S
Co0 O25 1.967 . S
Co0 O32 1.920 1_554 S
Co1 O4 1.966 . S
Co1 N10 2.022 . S
Co1 N18 1.993 . S
Co1 O26 1.941 . S
C2 O3 1.258 . S
C2 O4 1.263 . S
O3 Co0 1.970 . S
O3 C2 1.258 . S
O4 Co1 1.966 . S
O4 C2 1.263 . S
C5 O6 1.235 1_556 S
C5 O32 1.289 . S
O6 C5 1.235 1_554 S
C7 C9 1.400 . S
C7 N10 1.351 . S
C7 C12 1.501 . S
C8 C9 1.387 . S
C8 N11 1.341 . S
C9 C7 1.400 . S
C9 C8 1.387 . S
N10 Co1 2.022 . S
N10 C7 1.351 . S
N10 N11 1.365 . S
N11 C8 1.341 . S
N11 N10 1.365 . S
N11 H31 0.862 . S
C12 C7 1.501 . S
C12 H13 0.961 . S
C12 H14 0.961 . S
C12 H15 0.960 . S
H13 C12 0.961 . S
H14 C12 0.961 . S
H15 C12 0.960 . S
C16 N17 1.342 . S
C16 C20 1.401 . S
C16 C21 1.499 . S
N17 Co0 1.989 . S
N17 C16 1.342 . S
N17 N18 1.388 . S
N18 Co1 1.993 . S
N18 N17 1.388 . S
N18 C19 1.346 . S
C19 N18 1.346 . S
C19 C20 1.396 . S
C19 C29 1.510 . S
C20 C16 1.401 . S
C20 C19 1.396 . S
C21 C16 1.499 . S
C21 H22 0.959 . S
C21 H23 0.960 . S
C21 H24 0.961 . S
H22 C21 0.959 . S
H23 C21 0.960 . S
H24 C21 0.961 . S
O25 Co0 1.967 . S
O25 C33 1.258 . S
O26 Co1 1.941 . S
O26 C33 1.266 . S
H27 C29 0.959 . S
H28 C29 0.961 . S
C29 C19 1.510 . S
C29 H27 0.959 . S
C29 H28 0.961 . S
C29 H30 0.960 . S
H30 C29 0.960 . S
H31 N11 0.862 . S
O32 Co0 1.920 1_556 S
O32 C5 1.289 . S
C33 O25 1.258 . S
C33 O26 1.266 . S
Co34 O37 1.970 . S
Co34 N51 1.989 . S
Co34 O59 1.967 . S
Co34 O66 1.920 . S
Co35 O38 1.966 . S
Co35 N44 2.022 . S
Co35 N52 1.993 . S
Co35 O60 1.941 . S
C36 O37 1.258 . S
C36 O38 1.263 . S
O37 Co34 1.970 . S
O37 C36 1.258 . S
O38 Co35 1.966 . S
O38 C36 1.263 . S
C39 O40 1.235 . S
C39 O66 1.289 . S
O40 C39 1.235 . S
C41 C43 1.400 . S
C41 N44 1.351 . S
C41 C46 1.501 . S
C42 C43 1.387 . S
C42 N45 1.341 . S
C43 C41 1.400 . S
C43 C42 1.387 . S
N44 Co35 2.022 . S
N44 C41 1.351 . S
N44 N45 1.365 . S
N45 C42 1.341 . S
N45 N44 1.365 . S
N45 H65 0.862 . S
C46 C41 1.501 . S
C46 H47 0.961 . S
C46 H48 0.961 . S
C46 H49 0.960 . S
H47 C46 0.961 . S
H48 C46 0.961 . S
H49 C46 0.960 . S
C50 N51 1.342 . S
C50 C54 1.401 . S
C50 C55 1.499 . S
N51 Co34 1.989 . S
N51 C50 1.342 . S
N51 N52 1.388 . S
N52 Co35 1.993 . S
N52 N51 1.388 . S
N52 C53 1.346 . S
C53 N52 1.346 . S
C53 C54 1.396 . S
C53 C63 1.510 . S
C54 C50 1.401 . S
C54 C53 1.396 . S
C55 C50 1.499 . S
C55 H56 0.959 . S
C55 H57 0.960 . S
C55 H58 0.961 . S
H56 C55 0.959 . S
H57 C55 0.960 . S
H58 C55 0.961 . S
O59 Co34 1.967 . S
O59 C67 1.258 . S
O60 Co35 1.941 . S
O60 C67 1.266 . S
H61 C63 0.959 . S
H62 C63 0.961 . S
C63 C53 1.510 . S
C63 H61 0.959 . S
C63 H62 0.961 . S
C63 H64 0.960 . S
H64 C63 0.960 . S
H65 N45 0.862 . S
O66 Co34 1.920 . S
O66 C39 1.289 . S
C67 O59 1.258 . S
C67 O60 1.266 . S
Co68 O71 1.970 . S
Co68 N85 1.989 . S
Co68 O93 1.967 . S
Co68 O100 1.920 . S
Co69 O72 1.966 . S
Co69 N78 2.022 . S
Co69 N86 1.993 . S
Co69 O94 1.941 . S
C70 O71 1.258 . S
C70 O72 1.263 . S
O71 Co68 1.970 . S
O71 C70 1.258 . S
O72 Co69 1.966 . S
O72 C70 1.263 . S
C73 O74 1.235 . S
C73 O100 1.289 . S
O74 C73 1.235 . S
C75 C77 1.400 . S
C75 N78 1.351 . S
C75 C80 1.501 . S
C76 C77 1.387 . S
C76 N79 1.341 . S
C77 C75 1.400 . S
C77 C76 1.387 . S
N78 Co69 2.022 . S
N78 C75 1.351 . S
N78 N79 1.365 . S
N79 C76 1.341 . S
N79 N78 1.365 . S
N79 H99 0.862 . S
C80 C75 1.501 . S
C80 H81 0.961 . S
C80 H82 0.961 . S
C80 H83 0.960 . S
H81 C80 0.961 . S
H82 C80 0.961 . S
H83 C80 0.960 . S
C84 N85 1.342 . S
C84 C88 1.401 . S
C84 C89 1.499 . S
N85 Co68 1.989 . S
N85 C84 1.342 . S
N85 N86 1.388 . S
N86 Co69 1.993 . S
N86 N85 1.388 . S
N86 C87 1.346 . S
C87 N86 1.346 . S
C87 C88 1.396 . S
C87 C97 1.510 . S
C88 C84 1.401 . S
C88 C87 1.396 . S
C89 C84 1.499 . S
C89 H90 0.959 . S
C89 H91 0.960 . S
C89 H92 0.961 . S
H90 C89 0.959 . S
H91 C89 0.960 . S
H92 C89 0.961 . S
O93 Co68 1.967 . S
O93 C101 1.258 . S
O94 Co69 1.941 . S
O94 C101 1.266 . S
H95 C97 0.959 . S
H96 C97 0.961 . S
C97 C87 1.510 . S
C97 H95 0.959 . S
C97 H96 0.961 . S
C97 H98 0.960 . S
H98 C97 0.960 . S
H99 N79 0.862 . S
O100 Co68 1.920 . S
O100 C73 1.289 . S
C101 O93 1.258 . S
C101 O94 1.266 . S
Co102 O105 1.970 . S
Co102 N119 1.989 . S
Co102 O127 1.967 . S
Co102 O134 1.920 . S
Co103 O106 1.966 . S
Co103 N112 2.022 . S
Co103 N120 1.993 . S
Co103 O128 1.941 . S
C104 O105 1.258 . S
C104 O106 1.263 . S
O105 Co102 1.970 . S
O105 C104 1.258 . S
O106 Co103 1.966 . S
O106 C104 1.263 . S
C107 O108 1.235 . S
C107 O134 1.289 . S
O108 C107 1.235 . S
C109 C111 1.400 . S
C109 N112 1.351 . S
C109 C114 1.501 . S
C110 C111 1.387 . S
C110 N113 1.341 . S
C111 C109 1.400 . S
C111 C110 1.387 . S
N112 Co103 2.022 . S
N112 C109 1.351 . S
N112 N113 1.365 . S
N113 C110 1.341 . S
N113 N112 1.365 . S
N113 H133 0.862 . S
C114 C109 1.501 . S
C114 H115 0.961 . S
C114 H116 0.961 . S
C114 H117 0.960 . S
H115 C114 0.961 . S
H116 C114 0.961 . S
H117 C114 0.960 . S
C118 N119 1.342 . S
C118 C122 1.401 . S
C118 C123 1.499 . S
N119 Co102 1.989 . S
N119 C118 1.342 . S
N119 N120 1.388 . S
N120 Co103 1.993 . S
N120 N119 1.388 . S
N120 C121 1.346 . S
C121 N120 1.346 . S
C121 C122 1.396 . S
C121 C131 1.510 . S
C122 C118 1.401 . S
C122 C121 1.396 . S
C123 C118 1.499 . S
C123 H124 0.959 . S
C123 H125 0.960 . S
C123 H126 0.961 . S
H124 C123 0.959 . S
H125 C123 0.960 . S
H126 C123 0.961 . S
O127 Co102 1.967 . S
O127 C135 1.258 . S
O128 Co103 1.941 . S
O128 C135 1.266 . S
H129 C131 0.959 . S
H130 C131 0.961 . S
C131 C121 1.510 . S
C131 H129 0.959 . S
C131 H130 0.961 . S
C131 H132 0.960 . S
H132 C131 0.960 . S
H133 N113 0.862 . S
O134 Co102 1.920 . S
O134 C107 1.289 . S
C135 O127 1.258 . S
C135 O128 1.266 . S
Co136 O139 1.970 . S
Co136 N153 1.989 . S
Co136 O161 1.967 . S
Co136 O168 1.920 . S
Co137 O140 1.966 . S
Co137 N146 2.022 . S
Co137 N154 1.993 . S
Co137 O162 1.941 . S
C138 O139 1.258 . S
C138 O140 1.263 . S
O139 Co136 1.970 . S
O139 C138 1.258 . S
O140 Co137 1.966 . S
O140 C138 1.263 . S
C141 O142 1.235 . S
C141 O168 1.289 . S
O142 C141 1.235 . S
C143 C145 1.400 . S
C143 N146 1.351 1_554 S
C143 C148 1.501 . S
C144 C145 1.387 . S
C144 N147 1.345 . S
C145 C143 1.400 . S
C145 C144 1.387 . S
N146 Co137 2.022 . S
N146 C143 1.351 1_556 S
N146 N147 1.363 1_556 S
N147 C144 1.345 . S
N147 N146 1.363 1_554 S
N147 H167 0.860 1_554 S
C148 C143 1.501 . S
C148 H149 0.961 1_554 S
C148 H150 0.961 . S
C148 H151 0.960 . S
H149 C148 0.961 1_556 S
H150 C148 0.961 . S
H151 C148 0.960 . S
C152 N153 1.342 . S
C152 C156 1.401 . S
C152 C157 1.499 . S
N153 Co136 1.989 . S
N153 C152 1.342 . S
N153 N154 1.388 . S
N154 Co137 1.993 . S
N154 N153 1.388 . S
N154 C155 1.346 . S
C155 N154 1.346 . S
C155 C156 1.396 . S
C155 C165 1.510 . S
C156 C152 1.401 . S
C156 C155 1.396 . S
C157 C152 1.499 . S
C157 H158 0.959 . S
C157 H159 0.960 . S
C157 H160 0.961 . S
H158 C157 0.959 . S
H159 C157 0.960 . S
H160 C157 0.961 . S
O161 Co136 1.967 . S
O161 C169 1.258 . S
O162 Co137 1.941 . S
O162 C169 1.266 . S
H163 C165 0.959 . S
H164 C165 0.961 . S
C165 C155 1.510 . S
C165 H163 0.959 . S
C165 H164 0.961 . S
C165 H166 0.960 . S
H166 C165 0.960 . S
H167 N147 0.860 1_556 S
O168 Co136 1.920 . S
O168 C141 1.289 . S
C169 O161 1.258 . S
C169 O162 1.266 . S
Co170 O173 1.970 . S
Co170 N187 1.989 . S
Co170 O195 1.967 . S
Co170 O202 1.920 . S
Co171 O174 1.966 . S
Co171 N180 2.022 . S
Co171 N188 1.993 . S
Co171 O196 1.941 . S
C172 O173 1.258 . S
C172 O174 1.263 1_556 S
O173 Co170 1.970 . S
O173 C172 1.258 . S
O174 Co171 1.966 . S
O174 C172 1.263 1_554 S
C175 O176 1.235 . S
C175 O202 1.289 . S
O176 C175 1.235 . S
C177 C179 1.400 . S
C177 N180 1.351 . S
C177 C182 1.501 . S
C178 C179 1.387 . S
C178 N181 1.341 . S
C179 C177 1.400 . S
C179 C178 1.387 . S
N180 Co171 2.022 . S
N180 C177 1.351 . S
N180 N181 1.365 . S
N181 C178 1.341 . S
N181 N180 1.365 . S
N181 H201 0.862 . S
C182 C177 1.501 . S
C182 H183 0.961 . S
C182 H184 0.961 . S
C182 H185 0.960 . S
H183 C182 0.961 . S
H184 C182 0.961 . S
H185 C182 0.960 . S
C186 N187 1.342 . S
C186 C190 1.401 1_556 S
C186 C191 1.499 . S
N187 Co170 1.989 . S
N187 C186 1.342 . S
N187 N188 1.388 1_556 S
N188 Co171 1.993 . S
N188 N187 1.388 1_554 S
N188 C189 1.346 . S
C189 N188 1.346 . S
C189 C190 1.396 . S
C189 C199 1.510 . S
C190 C186 1.401 1_554 S
C190 C189 1.396 . S
C191 C186 1.499 . S
C191 H192 0.959 . S
C191 H193 0.960 . S
C191 H194 0.961 . S
H192 C191 0.959 . S
H193 C191 0.960 . S
H194 C191 0.961 . S
O195 Co170 1.967 . S
O195 C203 1.258 . S
O196 Co171 1.941 . S
O196 C203 1.266 1_554 S
H197 C199 0.959 . S
H198 C199 0.961 . S
C199 C189 1.510 . S
C199 H197 0.959 . S
C199 H198 0.961 . S
C199 H200 0.960 . S
H200 C199 0.960 . S
H201 N181 0.862 . S
O202 Co170 1.920 . S
O202 C175 1.289 . S
C203 O195 1.258 . S
C203 O196 1.266 1_556 S
Co204 O207 1.970 . S
Co204 N221 1.989 . S
Co204 O229 1.967 . S
Co204 O236 1.920 . S
Co205 O208 1.966 . S
Co205 N214 2.022 . S
Co205 N222 1.993 . S
Co205 O230 1.941 . S
C206 O207 1.258 . S
C206 O208 1.263 . S
O207 Co204 1.970 . S
O207 C206 1.258 . S
O208 Co205 1.966 . S
O208 C206 1.263 . S
C209 O210 1.235 . S
C209 O236 1.289 . S
O210 C209 1.235 . S
C211 C213 1.400 . S
C211 N214 1.351 . S
C211 C216 1.501 . S
C212 C213 1.387 . S
C212 N215 1.341 . S
C213 C211 1.400 . S
C213 C212 1.387 . S
N214 Co205 2.022 . S
N214 C211 1.351 . S
N214 N215 1.365 . S
N215 C212 1.341 . S
N215 N214 1.365 . S
N215 H235 0.862 . S
C216 C211 1.501 . S
C216 H217 0.961 . S
C216 H218 0.961 . S
C216 H219 0.960 . S
H217 C216 0.961 . S
H218 C216 0.961 . S
H219 C216 0.960 . S
C220 N221 1.342 . S
C220 C224 1.401 . S
C220 C225 1.499 . S
N221 Co204 1.989 . S
N221 C220 1.342 . S
N221 N222 1.388 . S
N222 Co205 1.993 . S
N222 N221 1.388 . S
N222 C223 1.346 . S
C223 N222 1.346 . S
C223 C224 1.396 . S
C223 C233 1.510 . S
C224 C220 1.401 . S
C224 C223 1.396 . S
C225 C220 1.499 . S
C225 H226 0.959 . S
C225 H227 0.960 . S
C225 H228 0.961 . S
H226 C225 0.959 . S
H227 C225 0.960 . S
H228 C225 0.961 . S
O229 Co204 1.967 . S
O229 C237 1.258 . S
O230 Co205 1.941 . S
O230 C237 1.266 . S
H231 C233 0.959 . S
H232 C233 0.961 . S
C233 C223 1.510 . S
C233 H231 0.959 . S
C233 H232 0.961 . S
C233 H234 0.960 . S
H234 C233 0.960 . S
H235 N215 0.862 . S
O236 Co204 1.920 . S
O236 C209 1.289 . S
C237 O229 1.258 . S
C237 O230 1.266 . S
Co238 O241 1.970 . S
Co238 N255 1.989 . S
Co238 O263 1.967 . S
Co238 O270 1.920 1_556 S
Co239 O242 1.966 . S
Co239 N248 2.022 . S
Co239 N256 1.993 . S
Co239 O264 1.941 . S
C240 O241 1.258 . S
C240 O242 1.263 . S
O241 Co238 1.970 . S
O241 C240 1.258 . S
O242 Co239 1.966 . S
O242 C240 1.263 . S
C243 O244 1.235 . S
C243 O270 1.289 . S
O244 C243 1.235 . S
C245 C247 1.400 . S
C245 N248 1.351 . S
C245 C250 1.501 . S
C246 C247 1.387 . S
C246 N249 1.341 . S
C247 C245 1.400 . S
C247 C246 1.387 . S
N248 Co239 2.022 . S
N248 C245 1.351 . S
N248 N249 1.365 . S
N249 C246 1.341 . S
N249 N248 1.365 . S
N249 H269 0.862 . S
C250 C245 1.501 . S
C250 H251 0.961 . S
C250 H252 0.961 . S
C250 H253 0.960 . S
H251 C250 0.961 . S
H252 C250 0.961 . S
H253 C250 0.960 . S
C254 N255 1.342 . S
C254 C258 1.401 . S
C254 C259 1.499 . S
N255 Co238 1.989 . S
N255 C254 1.342 . S
N255 N256 1.388 . S
N256 Co239 1.993 . S
N256 N255 1.388 . S
N256 C257 1.346 . S
C257 N256 1.346 . S
C257 C258 1.396 . S
C257 C267 1.510 . S
C258 C254 1.401 . S
C258 C257 1.396 . S
C259 C254 1.499 . S
C259 H260 0.959 1_556 S
C259 H261 0.960 . S
C259 H262 0.961 . S
H260 C259 0.959 1_554 S
H261 C259 0.960 . S
H262 C259 0.961 . S
O263 Co238 1.967 . S
O263 C271 1.258 . S
O264 Co239 1.941 . S
O264 C271 1.266 . S
H265 C267 0.959 . S
H266 C267 0.961 . S
C267 C257 1.510 . S
C267 H265 0.959 . S
C267 H266 0.961 . S
C267 H268 0.960 . S
H268 C267 0.960 . S
H269 N249 0.862 . S
O270 Co238 1.920 1_554 S
O270 C243 1.289 . S
C271 O263 1.258 . S
C271 O264 1.266 . S
Co272 O275 1.970 . S
Co272 N289 1.989 . S
Co272 O297 1.967 . S
Co272 O304 1.920 . S
Co273 O276 1.966 1_556 S
Co273 N282 2.022 . S
Co273 N290 1.993 1_556 S
Co273 O298 1.941 1_556 S
C274 O275 1.258 . S
C274 O276 1.263 . S
O275 Co272 1.970 . S
O275 C274 1.258 . S
O276 Co273 1.966 1_554 S
O276 C274 1.263 . S
C277 O278 1.235 . S
C277 O304 1.289 . S
O278 C277 1.235 . S
C279 C281 1.400 . S
C279 N282 1.351 . S
C279 C284 1.501 . S
C280 C281 1.387 . S
C280 N283 1.341 . S
C281 C279 1.400 . S
C281 C280 1.387 . S
N282 Co273 2.022 . S
N282 C279 1.351 . S
N282 N283 1.365 . S
N283 C280 1.341 . S
N283 N282 1.365 . S
N283 H303 0.862 . S
C284 C279 1.501 . S
C284 H285 0.961 . S
C284 H286 0.961 . S
C284 H287 0.960 . S
H285 C284 0.961 . S
H286 C284 0.961 . S
H287 C284 0.960 . S
C288 N289 1.342 . S
C288 C292 1.401 . S
C288 C293 1.499 . S
N289 Co272 1.989 . S
N289 C288 1.342 . S
N289 N290 1.388 . S
N290 Co273 1.993 1_554 S
N290 N289 1.388 . S
N290 C291 1.346 1_554 S
C291 N290 1.346 1_556 S
C291 C292 1.396 1_556 S
C291 C301 1.510 . S
C292 C288 1.401 . S
C292 C291 1.396 1_554 S
C293 C288 1.499 . S
C293 H294 0.959 . S
C293 H295 0.960 . S
C293 H296 0.961 . S
H294 C293 0.959 . S
H295 C293 0.960 . S
H296 C293 0.961 . S
O297 Co272 1.967 . S
O297 C305 1.258 . S
O298 Co273 1.941 1_554 S
O298 C305 1.266 . S
H299 C301 0.959 . S
H300 C301 0.961 . S
C301 C291 1.510 . S
C301 H299 0.959 . S
C301 H300 0.961 . S
C301 H302 0.960 . S
H302 C301 0.960 . S
H303 N283 0.862 . S
O304 Co272 1.920 . S
O304 C277 1.289 . S
C305 O297 1.258 . S
C305 O298 1.266 . S
Co306 O309 1.970 . S
Co306 N323 1.989 . S
Co306 O331 1.967 . S
Co306 O338 1.920 . S
Co307 O310 1.966 . S
Co307 N316 2.022 . S
Co307 N324 1.993 . S
Co307 O332 1.941 . S
C308 O309 1.258 . S
C308 O310 1.263 . S
O309 Co306 1.970 . S
O309 C308 1.258 . S
O310 Co307 1.966 . S
O310 C308 1.263 . S
C311 O312 1.235 . S
C311 O338 1.289 . S
O312 C311 1.235 . S
C313 C315 1.400 1_554 S
C313 N316 1.351 . S
C313 C318 1.501 . S
C314 C315 1.387 . S
C314 N317 1.341 1_556 S
C315 C313 1.400 1_556 S
C315 C314 1.387 . S
N316 Co307 2.022 . S
N316 C313 1.351 . S
N316 N317 1.365 . S
N317 C314 1.341 1_554 S
N317 N316 1.365 . S
N317 H337 0.862 . S
C318 C313 1.501 . S
C318 H319 0.961 . S
C318 H320 0.961 . S
C318 H321 0.960 . S
H319 C318 0.961 . S
H320 C318 0.961 . S
H321 C318 0.960 . S
C322 N323 1.342 . S
C322 C326 1.401 . S
C322 C327 1.499 . S
N323 Co306 1.989 . S
N323 C322 1.342 . S
N323 N324 1.388 . S
N324 Co307 1.993 . S
N324 N323 1.388 . S
N324 C325 1.346 . S
C325 N324 1.346 . S
C325 C326 1.396 . S
C325 C335 1.510 . S
C326 C322 1.401 . S
C326 C325 1.396 . S
C327 C322 1.499 . S
C327 H328 0.959 . S
C327 H329 0.960 . S
C327 H330 0.961 . S
H328 C327 0.959 . S
H329 C327 0.960 . S
H330 C327 0.961 . S
O331 Co306 1.967 . S
O331 C339 1.258 . S
O332 Co307 1.941 . S
O332 C339 1.266 . S
H333 C335 0.959 . S
H334 C335 0.961 . S
C335 C325 1.510 . S
C335 H333 0.959 . S
C335 H334 0.961 . S
C335 H336 0.960 . S
H336 C335 0.960 . S
H337 N317 0.862 . S
O338 Co306 1.920 . S
O338 C311 1.289 . S
C339 O331 1.258 . S
C339 O332 1.266 . S
Co340 O343 1.970 . S
Co340 N357 1.989 . S
Co340 O365 1.967 . S
Co340 O372 1.920 . S
Co341 O344 1.966 . S
Co341 N350 2.022 . S
Co341 N358 1.993 . S
Co341 O366 1.941 . S
C342 O343 1.258 . S
C342 O344 1.263 . S
O343 Co340 1.970 . S
O343 C342 1.258 . S
O344 Co341 1.966 . S
O344 C342 1.263 . S
C345 O346 1.235 . S
C345 O372 1.289 . S
O346 C345 1.235 . S
C347 C349 1.400 . S
C347 N350 1.351 . S
C347 C352 1.501 . S
C348 C349 1.387 . S
C348 N351 1.341 . S
C349 C347 1.400 . S
C349 C348 1.387 . S
N350 Co341 2.022 . S
N350 C347 1.351 . S
N350 N351 1.365 . S
N351 C348 1.341 . S
N351 N350 1.365 . S
N351 H371 0.862 . S
C352 C347 1.501 . S
C352 H353 0.961 . S
C352 H354 0.961 . S
C352 H355 0.960 . S
H353 C352 0.961 . S
H354 C352 0.961 . S
H355 C352 0.960 . S
C356 N357 1.342 . S
C356 C360 1.401 . S
C356 C361 1.499 . S
N357 Co340 1.989 . S
N357 C356 1.342 . S
N357 N358 1.388 . S
N358 Co341 1.993 . S
N358 N357 1.388 . S
N358 C359 1.346 . S
C359 N358 1.346 . S
C359 C360 1.396 . S
C359 C369 1.510 . S
C360 C356 1.401 . S
C360 C359 1.396 . S
C361 C356 1.499 . S
C361 H362 0.959 . S
C361 H363 0.960 . S
C361 H364 0.961 . S
H362 C361 0.959 . S
H363 C361 0.960 . S
H364 C361 0.961 . S
O365 Co340 1.967 . S
O365 C373 1.258 . S
O366 Co341 1.941 . S
O366 C373 1.266 . S
H367 C369 0.959 . S
H368 C369 0.961 . S
C369 C359 1.510 . S
C369 H367 0.959 . S
C369 H368 0.961 . S
C369 H370 0.960 . S
H370 C369 0.960 . S
H371 N351 0.862 . S
O372 Co340 1.920 . S
O372 C345 1.289 . S
C373 O365 1.258 . S
C373 O366 1.266 . S
Co374 O377 1.970 . S
Co374 N391 1.989 . S
Co374 O399 1.967 . S
Co374 O406 1.920 . S
Co375 O378 1.966 . S
Co375 N384 2.022 . S
Co375 N392 1.993 . S
Co375 O400 1.941 . S
C376 O377 1.258 . S
C376 O378 1.263 . S
O377 Co374 1.970 . S
O377 C376 1.258 . S
O378 Co375 1.966 . S
O378 C376 1.263 . S
C379 O380 1.235 . S
C379 O406 1.289 . S
O380 C379 1.235 . S
C381 C383 1.400 . S
C381 N384 1.351 . S
C381 C386 1.501 . S
C382 C383 1.387 . S
C382 N385 1.341 . S
C383 C381 1.400 . S
C383 C382 1.387 . S
N384 Co375 2.022 . S
N384 C381 1.351 . S
N384 N385 1.365 . S
N385 C382 1.341 . S
N385 N384 1.365 . S
N385 H405 0.862 . S
C386 C381 1.501 . S
C386 H387 0.961 . S
C386 H388 0.961 . S
C386 H389 0.960 . S
H387 C386 0.961 . S
H388 C386 0.961 . S
H389 C386 0.960 . S
C390 N391 1.342 . S
C390 C394 1.401 . S
C390 C395 1.499 . S
N391 Co374 1.989 . S
N391 C390 1.342 . S
N391 N392 1.388 . S
N392 Co375 1.993 . S
N392 N391 1.388 . S
N392 C393 1.346 . S
C393 N392 1.346 . S
C393 C394 1.396 . S
C393 C403 1.510 . S
C394 C390 1.401 . S
C394 C393 1.396 . S
C395 C390 1.499 . S
C395 H396 0.959 . S
C395 H397 0.960 . S
C395 H398 0.961 . S
H396 C395 0.959 . S
H397 C395 0.960 . S
H398 C395 0.961 . S
O399 Co374 1.967 . S
O399 C407 1.258 . S
O400 Co375 1.941 . S
O400 C407 1.266 . S
H401 C403 0.959 . S
H402 C403 0.961 . S
C403 C393 1.510 . S
C403 H401 0.959 . S
C403 H402 0.961 . S
C403 H404 0.960 . S
H404 C403 0.960 . S
H405 N385 0.862 . S
O406 Co374 1.920 . S
O406 C379 1.289 . S
C407 O399 1.258 . S
C407 O400 1.266 . S
H408 C426 0.951 . S
H409 C428 0.951 . S
H410 C430 0.950 . S
H411 C431 0.950 . S
H412 C433 0.950 . S
H413 C436 0.950 . S
H414 C437 0.950 . S
H415 C439 0.950 . S
H416 C440 0.950 . S
H417 C441 0.951 . S
H418 C443 0.951 . S
H419 C445 0.950 . S
H420 C446 0.950 . S
H421 C448 0.950 . S
H422 C451 0.950 . S
H423 C452 0.950 . S
H424 C454 0.950 . S
H425 C455 0.950 . S
C426 H408 0.951 . S
C426 C427 1.366 . S
C426 C428 1.388 . S
C427 C426 1.366 . S
C427 C431 1.385 . S
C428 H409 0.951 . S
C428 C426 1.388 . S
C428 C429 1.366 . S
C429 C428 1.366 . S
C429 C430 1.414 . S
C429 C432 1.499 . S
C430 H410 0.950 . S
C430 C429 1.414 . S
C430 C431 1.374 . S
C431 H411 0.950 . S
C431 C427 1.385 . S
C431 C430 1.374 . S
C432 C429 1.499 . S
C432 C433 1.373 . S
C432 C434 1.389 . S
C433 H412 0.950 . S
C433 C432 1.373 . S
C433 C449 1.377 . S
C434 C432 1.389 . S
C434 C435 1.524 . S
C434 C448 1.377 . S
C435 C434 1.524 . S
C435 C436 1.397 . S
C435 C440 1.363 . S
C436 H413 0.950 . S
C436 C435 1.397 . S
C436 C437 1.334 . S
C437 H414 0.950 . S
C437 C436 1.334 . S
C437 C438 1.287 . S
C438 C437 1.287 . S
C438 C439 1.524 . S
C438 H457 0.913 . S
C439 H415 0.950 . S
C439 C438 1.524 . S
C439 C440 1.415 . S
C440 H416 0.950 . S
C440 C435 1.363 . S
C440 C439 1.415 . S
C441 H417 0.951 . S
C441 C442 1.366 . S
C441 C443 1.388 . S
C442 C441 1.366 . S
C442 C446 1.385 . S
C443 H418 0.951 . S
C443 C441 1.388 . S
C443 C444 1.366 . S
C444 C443 1.366 . S
C444 C445 1.414 . S
C444 C447 1.499 . S
C445 H419 0.950 . S
C445 C444 1.414 . S
C445 C446 1.374 . S
C446 H420 0.950 . S
C446 C442 1.385 . S
C446 C445 1.374 . S
C447 C444 1.499 . S
C447 C448 1.373 . S
C447 C449 1.389 . S
C448 H421 0.950 . S
C448 C434 1.377 . S
C448 C447 1.373 . S
C449 C433 1.377 . S
C449 C447 1.389 . S
C449 C450 1.524 . S
C450 C449 1.524 . S
C450 C451 1.397 . S
C450 C455 1.363 . S
C451 H422 0.950 . S
C451 C450 1.397 . S
C451 C452 1.334 . S
C452 H423 0.950 . S
C452 C451 1.334 . S
C452 C453 1.287 . S
C453 C452 1.287 . S
C453 C454 1.524 . S
C453 H456 0.999 . S
C454 H424 0.950 . S
C454 C453 1.524 . S
C454 C455 1.415 . S
C455 H425 0.950 . S
C455 C450 1.363 . S
C455 C454 1.415 . S
H456 C453 0.999 . S
H457 C438 0.913 . S
H458 C476 0.951 . S
H459 C478 0.951 1_556 S
H460 C480 0.950 . S
H461 C481 0.950 . S
H462 C483 0.950 . S
H463 C486 0.950 . S
H464 C487 0.950 . S
H465 C489 0.950 . S
H466 C490 0.950 . S
H467 C491 0.951 . S
H468 C493 0.951 . S
H469 C495 0.950 . S
H470 C496 0.950 . S
H471 C498 0.950 . S
H472 C501 0.950 . S
H473 C502 0.950 . S
H474 C504 0.950 . S
H475 C505 0.950 . S
C476 H458 0.951 . S
C476 C477 1.366 . S
C476 C478 1.388 . S
C477 C476 1.366 . S
C477 C481 1.385 . S
C478 H459 0.951 1_554 S
C478 C476 1.388 . S
C478 C479 1.366 1_554 S
C479 C478 1.366 1_556 S
C479 C480 1.414 1_556 S
C479 C482 1.499 . S
C480 H460 0.950 . S
C480 C479 1.414 1_554 S
C480 C481 1.374 . S
C481 H461 0.950 . S
C481 C477 1.385 . S
C481 C480 1.374 . S
C482 C479 1.499 . S
C482 C483 1.373 . S
C482 C484 1.389 . S
C483 H462 0.950 . S
C483 C482 1.373 . S
C483 C499 1.377 . S
C484 C482 1.389 . S
C484 C485 1.524 . S
C484 C498 1.377 . S
C485 C484 1.524 . S
C485 C486 1.397 . S
C485 C490 1.363 . S
C486 H463 0.950 . S
C486 C485 1.397 . S
C486 C487 1.334 . S
C487 H464 0.950 . S
C487 C486 1.334 . S
C487 C488 1.287 . S
C488 C487 1.287 . S
C488 C489 1.524 . S
C488 H507 0.913 . S
C489 H465 0.950 . S
C489 C488 1.524 . S
C489 C490 1.415 . S
C490 H466 0.950 . S
C490 C485 1.363 . S
C490 C489 1.415 . S
C491 H467 0.951 . S
C491 C492 1.366 . S
C491 C493 1.388 . S
C492 C491 1.366 . S
C492 C496 1.385 . S
C493 H468 0.951 . S
C493 C491 1.388 . S
C493 C494 1.366 . S
C494 C493 1.366 . S
C494 C495 1.414 . S
C494 C497 1.499 . S
C495 H469 0.950 . S
C495 C494 1.414 . S
C495 C496 1.374 . S
C496 H470 0.950 . S
C496 C492 1.385 . S
C496 C495 1.374 . S
C497 C494 1.499 . S
C497 C498 1.373 . S
C497 C499 1.389 . S
C498 H471 0.950 . S
C498 C484 1.377 . S
C498 C497 1.373 . S
C499 C483 1.377 . S
C499 C497 1.389 . S
C499 C500 1.524 . S
C500 C499 1.524 . S
C500 C501 1.397 . S
C500 C505 1.363 . S
C501 H472 0.950 . S
C501 C500 1.397 . S
C501 C502 1.334 . S
C502 H473 0.950 . S
C502 C501 1.334 . S
C502 C503 1.287 . S
C503 C502 1.287 . S
C503 C504 1.524 . S
C503 H506 0.999 . S
C504 H474 0.950 . S
C504 C503 1.524 . S
C504 C505 1.415 . S
C505 H475 0.950 . S
C505 C500 1.363 . S
C505 C504 1.415 . S
H506 C503 0.999 . S
H507 C488 0.913 . S
H508 C526 0.951 . S
H509 C528 0.951 . S
H510 C530 0.950 . S
H511 C531 0.950 . S
H512 C533 0.950 . S
H513 C536 0.950 . S
H514 C537 0.950 . S
H515 C539 0.950 . S
H516 C540 0.950 . S
H517 C541 0.951 . S
H518 C543 0.951 . S
H519 C545 0.950 . S
H520 C546 0.950 . S
H521 C548 0.950 . S
H522 C551 0.950 . S
H523 C552 0.950 . S
H524 C554 0.950 . S
H525 C555 0.949 1_554 S
C526 H508 0.951 . S
C526 C527 1.366 . S
C526 C528 1.388 . S
C527 C526 1.366 . S
C527 C531 1.385 . S
C528 H509 0.951 . S
C528 C526 1.388 . S
C528 C529 1.366 . S
C529 C528 1.366 . S
C529 C530 1.414 . S
C529 C532 1.499 . S
C530 H510 0.950 . S
C530 C529 1.414 . S
C530 C531 1.374 . S
C531 H511 0.950 . S
C531 C527 1.385 . S
C531 C530 1.374 . S
C532 C529 1.499 . S
C532 C533 1.373 . S
C532 C534 1.389 . S
C533 H512 0.950 . S
C533 C532 1.373 . S
C533 C549 1.377 1_554 S
C534 C532 1.389 . S
C534 C535 1.524 . S
C534 C548 1.377 1_554 S
C535 C534 1.524 . S
C535 C536 1.397 . S
C535 C540 1.363 . S
C536 H513 0.950 . S
C536 C535 1.397 . S
C536 C537 1.334 . S
C537 H514 0.950 . S
C537 C536 1.334 . S
C537 C538 1.287 . S
C538 C537 1.287 . S
C538 C539 1.524 . S
C538 H557 0.913 . S
C539 H515 0.950 . S
C539 C538 1.524 . S
C539 C540 1.415 . S
C540 H516 0.950 . S
C540 C535 1.363 . S
C540 C539 1.415 . S
C541 H517 0.951 . S
C541 C542 1.366 . S
C541 C543 1.388 . S
C542 C541 1.366 . S
C542 C546 1.385 . S
C543 H518 0.951 . S
C543 C541 1.388 . S
C543 C544 1.366 . S
C544 C543 1.366 . S
C544 C545 1.414 . S
C544 C547 1.499 . S
C545 H519 0.950 . S
C545 C544 1.414 . S
C545 C546 1.374 . S
C546 H520 0.950 . S
C546 C542 1.385 . S
C546 C545 1.374 . S
C547 C544 1.499 . S
C547 C548 1.373 . S
C547 C549 1.389 . S
C548 H521 0.950 . S
C548 C534 1.377 1_556 S
C548 C547 1.373 . S
C549 C533 1.377 1_556 S
C549 C547 1.389 . S
C549 C550 1.524 . S
C550 C549 1.524 . S
C550 C551 1.397 . S
C550 C555 1.364 . S
C551 H522 0.950 . S
C551 C550 1.397 . S
C551 C552 1.334 . S
C552 H523 0.950 . S
C552 C551 1.334 . S
C552 C553 1.287 . S
C553 C552 1.287 . S
C553 C554 1.524 . S
C553 H556 0.999 . S
C554 H524 0.950 . S
C554 C553 1.524 . S
C554 C555 1.416 . S
C555 H525 0.949 1_556 S
C555 C550 1.364 . S
C555 C554 1.416 . S
H556 C553 0.999 . S
H557 C538 0.913 . S
H558 C576 0.951 . S
H559 C578 0.951 . S
H560 C580 0.950 . S
H561 C581 0.950 . S
H562 C583 0.950 . S
H563 C586 0.950 . S
H564 C587 0.950 . S
H565 C589 0.950 . S
H566 C590 0.950 . S
H567 C591 0.951 . S
H568 C593 0.951 . S
H569 C595 0.950 . S
H570 C596 0.950 . S
H571 C598 0.950 . S
H572 C601 0.950 . S
H573 C602 0.950 . S
H574 C604 0.950 . S
H575 C605 0.950 . S
C576 H558 0.951 . S
C576 C577 1.366 . S
C576 C578 1.388 1_556 S
C577 C576 1.366 . S
C577 C581 1.385 . S
C578 H559 0.951 . S
C578 C576 1.388 1_554 S
C578 C579 1.366 . S
C579 C578 1.366 . S
C579 C580 1.414 . S
C579 C582 1.499 . S
C580 H560 0.950 . S
C580 C579 1.414 . S
C580 C581 1.374 1_554 S
C581 H561 0.950 . S
C581 C577 1.385 . S
C581 C580 1.374 1_556 S
C582 C579 1.499 . S
C582 C583 1.373 . S
C582 C584 1.389 . S
C583 H562 0.950 . S
C583 C582 1.373 . S
C583 C599 1.377 . S
C584 C582 1.389 . S
C584 C585 1.524 . S
C584 C598 1.377 . S
C585 C584 1.524 . S
C585 C586 1.397 . S
C585 C590 1.363 . S
C586 H563 0.950 . S
C586 C585 1.397 . S
C586 C587 1.334 . S
C587 H564 0.950 . S
C587 C586 1.334 . S
C587 C588 1.287 . S
C588 C587 1.287 . S
C588 C589 1.524 . S
C588 H607 0.913 . S
C589 H565 0.950 . S
C589 C588 1.524 . S
C589 C590 1.415 . S
C590 H566 0.950 . S
C590 C585 1.363 . S
C590 C589 1.415 . S
C591 H567 0.951 . S
C591 C592 1.366 . S
C591 C593 1.388 . S
C592 C591 1.366 . S
C592 C596 1.385 . S
C593 H568 0.951 . S
C593 C591 1.388 . S
C593 C594 1.366 . S
C594 C593 1.366 . S
C594 C595 1.414 . S
C594 C597 1.499 . S
C595 H569 0.950 . S
C595 C594 1.414 . S
C595 C596 1.374 . S
C596 H570 0.950 . S
C596 C592 1.385 . S
C596 C595 1.374 . S
C597 C594 1.499 . S
C597 C598 1.373 . S
C597 C599 1.389 . S
C598 H571 0.950 . S
C598 C584 1.377 . S
C598 C597 1.373 . S
C599 C583 1.377 . S
C599 C597 1.389 . S
C599 C600 1.524 . S
C600 C599 1.524 . S
C600 C601 1.397 . S
C600 C605 1.363 . S
C601 H572 0.950 . S
C601 C600 1.397 . S
C601 C602 1.334 . S
C602 H573 0.950 . S
C602 C601 1.334 . S
C602 C603 1.287 . S
C603 C602 1.287 . S
C603 C604 1.524 . S
C603 H606 0.999 . S
C604 H574 0.950 . S
C604 C603 1.524 . S
C604 C605 1.415 . S
C605 H575 0.950 . S
C605 C600 1.363 . S
C605 C604 1.415 . S
H606 C603 0.999 . S
H607 C588 0.913 . S
H608 C626 0.951 . S
H609 C628 0.951 . S
H610 C630 0.950 . S
H611 C631 0.950 . S
H612 C633 0.950 . S
H613 C636 0.950 . S
H614 C637 0.950 . S
H615 C639 0.950 . S
H616 C640 0.950 . S
H617 C641 0.951 . S
H618 C643 0.951 . S
H619 C645 0.950 . S
H620 C646 0.950 . S
H621 C648 0.950 . S
H622 C651 0.950 . S
H623 C652 0.950 . S
H624 C654 0.950 . S
H625 C655 0.950 . S
C626 H608 0.951 . S
C626 C627 1.366 . S
C626 C628 1.388 . S
C627 C626 1.366 . S
C627 C631 1.385 . S
C628 H609 0.951 . S
C628 C626 1.388 . S
C628 C629 1.366 . S
C629 C628 1.366 . S
C629 C630 1.414 . S
C629 C632 1.499 . S
C630 H610 0.950 . S
C630 C629 1.414 . S
C630 C631 1.374 . S
C631 H611 0.950 . S
C631 C627 1.385 . S
C631 C630 1.374 . S
C632 C629 1.499 . S
C632 C633 1.373 . S
C632 C634 1.389 . S
C633 H612 0.950 . S
C633 C632 1.373 . S
C633 C649 1.377 . S
C634 C632 1.389 . S
C634 C635 1.524 . S
C634 C648 1.377 . S
C635 C634 1.524 . S
C635 C636 1.397 . S
C635 C640 1.363 . S
C636 H613 0.950 . S
C636 C635 1.397 . S
C636 C637 1.334 . S
C637 H614 0.950 . S
C637 C636 1.334 . S
C637 C638 1.287 . S
C638 C637 1.287 . S
C638 C639 1.524 . S
C638 H657 0.913 . S
C639 H615 0.950 . S
C639 C638 1.524 . S
C639 C640 1.415 . S
C640 H616 0.950 . S
C640 C635 1.363 . S
C640 C639 1.415 . S
C641 H617 0.951 . S
C641 C642 1.366 . S
C641 C643 1.388 . S
C642 C641 1.366 . S
C642 C646 1.385 . S
C643 H618 0.951 . S
C643 C641 1.388 . S
C643 C644 1.366 . S
C644 C643 1.366 . S
C644 C645 1.414 . S
C644 C647 1.499 . S
C645 H619 0.950 . S
C645 C644 1.414 . S
C645 C646 1.374 . S
C646 H620 0.950 . S
C646 C642 1.385 . S
C646 C645 1.374 . S
C647 C644 1.499 . S
C647 C648 1.373 . S
C647 C649 1.389 . S
C648 H621 0.950 . S
C648 C634 1.377 . S
C648 C647 1.373 . S
C649 C633 1.377 . S
C649 C647 1.389 . S
C649 C650 1.524 . S
C650 C649 1.524 . S
C650 C651 1.397 . S
C650 C655 1.363 . S
C651 H622 0.950 . S
C651 C650 1.397 . S
C651 C652 1.334 . S
C652 H623 0.950 . S
C652 C651 1.334 . S
C652 C653 1.287 . S
C653 C652 1.287 . S
C653 C654 1.524 . S
C653 H656 0.999 . S
C654 H624 0.950 . S
C654 C653 1.524 . S
C654 C655 1.415 . S
C655 H625 0.950 . S
C655 C650 1.363 . S
C655 C654 1.415 . S
H656 C653 0.999 . S
H657 C638 0.913 . S
H658 C676 0.951 . S
H659 C678 0.951 . S
H660 C680 0.950 . S
H661 C681 0.950 . S
H662 C683 0.950 . S
H663 C686 0.950 . S
H664 C687 0.950 . S
H665 C689 0.950 . S
H666 C690 0.950 . S
H667 C691 0.951 . S
H668 C693 0.951 . S
H669 C695 0.950 . S
H670 C696 0.950 . S
H671 C698 0.950 . S
H672 C701 0.950 . S
H673 C702 0.950 . S
H674 C704 0.950 . S
H675 C705 0.950 . S
C676 H658 0.951 . S
C676 C677 1.366 . S
C676 C678 1.388 . S
C677 C676 1.366 . S
C677 C681 1.385 . S
C678 H659 0.951 . S
C678 C676 1.388 . S
C678 C679 1.366 . S
C679 C678 1.366 . S
C679 C680 1.414 . S
C679 C682 1.499 . S
C680 H660 0.950 . S
C680 C679 1.414 . S
C680 C681 1.374 . S
C681 H661 0.950 . S
C681 C677 1.385 . S
C681 C680 1.374 . S
C682 C679 1.499 . S
C682 C683 1.373 . S
C682 C684 1.389 . S
C683 H662 0.950 . S
C683 C682 1.373 . S
C683 C699 1.377 . S
C684 C682 1.389 . S
C684 C685 1.524 . S
C684 C698 1.377 . S
C685 C684 1.524 . S
C685 C686 1.397 . S
C685 C690 1.363 . S
C686 H663 0.950 . S
C686 C685 1.397 . S
C686 C687 1.334 . S
C687 H664 0.950 . S
C687 C686 1.334 . S
C687 C688 1.287 . S
C688 C687 1.287 . S
C688 C689 1.524 . S
C688 H707 0.913 . S
C689 H665 0.950 . S
C689 C688 1.524 . S
C689 C690 1.415 . S
C690 H666 0.950 . S
C690 C685 1.363 . S
C690 C689 1.415 . S
C691 H667 0.951 . S
C691 C692 1.366 . S
C691 C693 1.388 . S
C692 C691 1.366 . S
C692 C696 1.385 . S
C693 H668 0.951 . S
C693 C691 1.388 . S
C693 C694 1.366 . S
C694 C693 1.366 . S
C694 C695 1.414 . S
C694 C697 1.499 . S
C695 H669 0.950 . S
C695 C694 1.414 . S
C695 C696 1.374 . S
C696 H670 0.950 . S
C696 C692 1.385 . S
C696 C695 1.374 . S
C697 C694 1.499 . S
C697 C698 1.373 . S
C697 C699 1.389 . S
C698 H671 0.950 . S
C698 C684 1.377 . S
C698 C697 1.373 . S
C699 C683 1.377 . S
C699 C697 1.389 . S
C699 C700 1.524 . S
C700 C699 1.524 . S
C700 C701 1.397 . S
C700 C705 1.363 . S
C701 H672 0.950 . S
C701 C700 1.397 . S
C701 C702 1.334 . S
C702 H673 0.950 . S
C702 C701 1.334 . S
C702 C703 1.287 . S
C703 C702 1.287 . S
C703 C704 1.524 . S
C703 H706 0.999 . S
C704 H674 0.950 . S
C704 C703 1.524 . S
C704 C705 1.415 . S
C705 H675 0.950 . S
C705 C700 1.363 . S
C705 C704 1.415 . S
H706 C703 0.999 . S
H707 C688 0.913 . S
H708 C726 0.951 . S
H709 C728 0.951 . S
H710 C730 0.950 . S
H711 C731 0.950 . S
H712 C733 0.950 . S
H713 C736 0.950 . S
H714 C737 0.950 . S
H715 C739 0.950 . S
H716 C740 0.950 . S
H717 C741 0.951 . S
H718 C743 0.951 . S
H719 C745 0.950 . S
H720 C746 0.950 . S
H721 C748 0.950 . S
H722 C751 0.950 . S
H723 C752 0.950 . S
H724 C754 0.950 . S
H725 C755 0.950 . S
C726 H708 0.951 . S
C726 C727 1.366 . S
C726 C728 1.388 . S
C727 C726 1.366 . S
C727 C731 1.385 . S
C728 H709 0.951 . S
C728 C726 1.388 . S
C728 C729 1.366 . S
C729 C728 1.366 . S
C729 C730 1.414 . S
C729 C732 1.499 . S
C730 H710 0.950 . S
C730 C729 1.414 . S
C730 C731 1.374 . S
C731 H711 0.950 . S
C731 C727 1.385 . S
C731 C730 1.374 . S
C732 C729 1.499 . S
C732 C733 1.373 . S
C732 C734 1.389 . S
C733 H712 0.950 . S
C733 C732 1.373 . S
C733 C749 1.377 . S
C734 C732 1.389 . S
C734 C735 1.524 . S
C734 C748 1.377 . S
C735 C734 1.524 . S
C735 C736 1.397 . S
C735 C740 1.363 . S
C736 H713 0.950 . S
C736 C735 1.397 . S
C736 C737 1.334 . S
C737 H714 0.950 . S
C737 C736 1.334 . S
C737 C738 1.287 . S
C738 C737 1.287 . S
C738 C739 1.524 . S
C738 H757 0.913 . S
C739 H715 0.950 . S
C739 C738 1.524 . S
C739 C740 1.415 . S
C740 H716 0.950 . S
C740 C735 1.363 . S
C740 C739 1.415 . S
C741 H717 0.951 . S
C741 C742 1.366 . S
C741 C743 1.388 1_556 S
C742 C741 1.366 . S
C742 C746 1.385 . S
C743 H718 0.951 . S
C743 C741 1.388 1_554 S
C743 C744 1.366 . S
C744 C743 1.366 . S
C744 C745 1.414 . S
C744 C747 1.499 . S
C745 H719 0.950 . S
C745 C744 1.414 . S
C745 C746 1.374 1_554 S
C746 H720 0.950 . S
C746 C742 1.385 . S
C746 C745 1.374 1_556 S
C747 C744 1.499 . S
C747 C748 1.373 . S
C747 C749 1.389 . S
C748 H721 0.950 . S
C748 C734 1.377 . S
C748 C747 1.373 . S
C749 C733 1.377 . S
C749 C747 1.389 . S
C749 C750 1.524 . S
C750 C749 1.524 . S
C750 C751 1.397 . S
C750 C755 1.363 . S
C751 H722 0.950 . S
C751 C750 1.397 . S
C751 C752 1.334 . S
C752 H723 0.950 . S
C752 C751 1.334 . S
C752 C753 1.287 . S
C753 C752 1.287 . S
C753 C754 1.524 . S
C753 H756 0.999 . S
C754 H724 0.950 . S
C754 C753 1.524 . S
C754 C755 1.415 . S
C755 H725 0.950 . S
C755 C750 1.363 . S
C755 C754 1.415 . S
H756 C753 0.999 . S
H757 C738 0.913 . S
H758 C776 0.951 . S
H759 C778 0.951 . S
H760 C780 0.950 . S
H761 C781 0.950 . S
H762 C783 0.950 . S
H763 C786 0.950 . S
H764 C787 0.950 . S
H765 C789 0.950 . S
H766 C790 0.950 . S
H767 C791 0.951 . S
H768 C793 0.951 . S
H769 C795 0.950 . S
H770 C796 0.950 . S
H771 C798 0.950 . S
H772 C801 0.950 . S
H773 C802 0.950 . S
H774 C804 0.950 . S
H775 C805 0.950 . S
C776 H758 0.951 . S
C776 C777 1.366 . S
C776 C778 1.388 . S
C777 C776 1.366 . S
C777 C781 1.385 . S
C778 H759 0.951 . S
C778 C776 1.388 . S
C778 C779 1.366 . S
C779 C778 1.366 . S
C779 C780 1.414 . S
C779 C782 1.499 . S
C780 H760 0.950 . S
C780 C779 1.414 . S
C780 C781 1.374 . S
C781 H761 0.950 . S
C781 C777 1.385 . S
C781 C780 1.374 . S
C782 C779 1.499 . S
C782 C783 1.373 . S
C782 C784 1.389 . S
C783 H762 0.950 . S
C783 C782 1.373 . S
C783 C799 1.377 . S
C784 C782 1.389 . S
C784 C785 1.524 . S
C784 C798 1.377 . S
C785 C784 1.524 . S
C785 C786 1.397 . S
C785 C790 1.363 . S
C786 H763 0.950 . S
C786 C785 1.397 . S
C786 C787 1.334 . S
C787 H764 0.950 . S
C787 C786 1.334 . S
C787 C788 1.287 . S
C788 C787 1.287 . S
C788 C789 1.524 . S
C788 H807 0.913 . S
C789 H765 0.950 . S
C789 C788 1.524 . S
C789 C790 1.415 . S
C790 H766 0.950 . S
C790 C785 1.363 . S
C790 C789 1.415 . S
C791 H767 0.951 . S
C791 C792 1.366 . S
C791 C793 1.388 . S
C792 C791 1.366 . S
C792 C796 1.385 . S
C793 H768 0.951 . S
C793 C791 1.388 . S
C793 C794 1.366 . S
C794 C793 1.366 . S
C794 C795 1.414 . S
C794 C797 1.499 . S
C795 H769 0.950 . S
C795 C794 1.414 . S
C795 C796 1.374 . S
C796 H770 0.950 . S
C796 C792 1.385 . S
C796 C795 1.374 . S
C797 C794 1.499 . S
C797 C798 1.373 . S
C797 C799 1.389 . S
C798 H771 0.950 . S
C798 C784 1.377 . S
C798 C797 1.373 . S
C799 C783 1.377 . S
C799 C797 1.389 . S
C799 C800 1.524 . S
C800 C799 1.524 . S
C800 C801 1.397 . S
C800 C805 1.363 . S
C801 H772 0.950 . S
C801 C800 1.397 . S
C801 C802 1.334 . S
C802 H773 0.950 . S
C802 C801 1.334 . S
C802 C803 1.287 . S
C803 C802 1.287 . S
C803 C804 1.524 . S
C803 H806 0.999 . S
C804 H774 0.950 . S
C804 C803 1.524 . S
C804 C805 1.415 . S
C805 H775 0.950 . S
C805 C800 1.363 . S
C805 C804 1.415 . S
H806 C803 0.999 . S
H807 C788 0.913 . S
H808 C826 0.951 . S
H809 C828 0.951 . S
H810 C830 0.950 . S
H811 C831 0.950 . S
H812 C833 0.950 . S
H813 C836 0.950 . S
H814 C837 0.950 . S
H815 C839 0.950 . S
H816 C840 0.950 . S
H817 C841 0.951 . S
H818 C843 0.951 . S
H819 C845 0.950 . S
H820 C846 0.950 . S
H821 C848 0.950 . S
H822 C851 0.950 . S
H823 C852 0.950 . S
H824 C854 0.950 . S
H825 C855 0.950 . S
C826 H808 0.951 . S
C826 C827 1.366 . S
C826 C828 1.388 . S
C827 C826 1.366 . S
C827 C831 1.385 . S
C828 H809 0.951 . S
C828 C826 1.388 . S
C828 C829 1.366 . S
C829 C828 1.366 . S
C829 C830 1.414 . S
C829 C832 1.499 . S
C830 H810 0.950 . S
C830 C829 1.414 . S
C830 C831 1.374 . S
C831 H811 0.950 . S
C831 C827 1.385 . S
C831 C830 1.374 . S
C832 C829 1.499 . S
C832 C833 1.373 . S
C832 C834 1.389 . S
C833 H812 0.950 . S
C833 C832 1.373 . S
C833 C849 1.377 . S
C834 C832 1.389 . S
C834 C835 1.524 . S
C834 C848 1.377 . S
C835 C834 1.524 . S
C835 C836 1.397 . S
C835 C840 1.363 . S
C836 H813 0.950 . S
C836 C835 1.397 . S
C836 C837 1.334 . S
C837 H814 0.950 . S
C837 C836 1.334 . S
C837 C838 1.287 . S
C838 C837 1.287 . S
C838 C839 1.524 . S
C838 H857 0.913 . S
C839 H815 0.950 . S
C839 C838 1.524 . S
C839 C840 1.415 . S
C840 H816 0.950 . S
C840 C835 1.363 . S
C840 C839 1.415 . S
C841 H817 0.951 . S
C841 C842 1.366 . S
C841 C843 1.388 . S
C842 C841 1.366 . S
C842 C846 1.385 . S
C843 H818 0.951 . S
C843 C841 1.388 . S
C843 C844 1.366 . S
C844 C843 1.366 . S
C844 C845 1.414 . S
C844 C847 1.499 . S
C845 H819 0.950 . S
C845 C844 1.414 . S
C845 C846 1.374 . S
C846 H820 0.950 . S
C846 C842 1.385 . S
C846 C845 1.374 . S
C847 C844 1.499 . S
C847 C848 1.373 . S
C847 C849 1.389 . S
C848 H821 0.950 . S
C848 C834 1.377 . S
C848 C847 1.373 . S
C849 C833 1.377 . S
C849 C847 1.389 . S
C849 C850 1.524 . S
C850 C849 1.524 . S
C850 C851 1.397 . S
C850 C855 1.363 . S
C851 H822 0.950 . S
C851 C850 1.397 . S
C851 C852 1.334 . S
C852 H823 0.950 . S
C852 C851 1.334 . S
C852 C853 1.287 . S
C853 C852 1.287 . S
C853 C854 1.524 . S
C853 H856 0.999 . S
C854 H824 0.950 . S
C854 C853 1.524 . S
C854 C855 1.415 . S
C855 H825 0.950 . S
C855 C850 1.363 . S
C855 C854 1.415 . S
H856 C853 0.999 . S
H857 C838 0.913 . S
H858 C876 0.951 . S
H859 C878 0.951 . S
H860 C880 0.950 . S
H861 C881 0.950 . S
H862 C883 0.950 . S
H863 C886 0.950 . S
H864 C887 0.950 . S
H865 C889 0.950 . S
H866 C890 0.950 . S
H867 C891 0.951 . S
H868 C893 0.951 . S
H869 C895 0.950 . S
H870 C896 0.950 . S
H871 C898 0.950 . S
H872 C901 0.950 . S
H873 C902 0.950 . S
H874 C904 0.950 . S
H875 C905 0.950 . S
C876 H858 0.951 . S
C876 C877 1.366 . S
C876 C878 1.388 . S
C877 C876 1.366 . S
C877 C881 1.385 . S
C878 H859 0.951 . S
C878 C876 1.388 . S
C878 C879 1.366 . S
C879 C878 1.366 . S
C879 C880 1.414 . S
C879 C882 1.499 . S
C880 H860 0.950 . S
C880 C879 1.414 . S
C880 C881 1.374 . S
C881 H861 0.950 . S
C881 C877 1.385 . S
C881 C880 1.374 . S
C882 C879 1.499 . S
C882 C883 1.373 . S
C882 C884 1.389 . S
C883 H862 0.950 . S
C883 C882 1.373 . S
C883 C899 1.377 . S
C884 C882 1.389 . S
C884 C885 1.524 . S
C884 C898 1.377 . S
C885 C884 1.524 . S
C885 C886 1.397 . S
C885 C890 1.363 . S
C886 H863 0.950 . S
C886 C885 1.397 . S
C886 C887 1.334 . S
C887 H864 0.950 . S
C887 C886 1.334 . S
C887 C888 1.287 . S
C888 C887 1.287 . S
C888 C889 1.524 . S
C888 H907 0.913 . S
C889 H865 0.950 . S
C889 C888 1.524 . S
C889 C890 1.415 . S
C890 H866 0.950 . S
C890 C885 1.363 . S
C890 C889 1.415 . S
C891 H867 0.951 . S
C891 C892 1.366 . S
C891 C893 1.388 . S
C892 C891 1.366 . S
C892 C896 1.385 . S
C893 H868 0.951 . S
C893 C891 1.388 . S
C893 C894 1.366 . S
C894 C893 1.366 . S
C894 C895 1.414 . S
C894 C897 1.499 . S
C895 H869 0.950 . S
C895 C894 1.414 . S
C895 C896 1.374 . S
C896 H870 0.950 . S
C896 C892 1.385 . S
C896 C895 1.374 . S
C897 C894 1.499 . S
C897 C898 1.373 . S
C897 C899 1.389 . S
C898 H871 0.950 . S
C898 C884 1.377 . S
C898 C897 1.373 . S
C899 C883 1.377 . S
C899 C897 1.389 . S
C899 C900 1.524 . S
C900 C899 1.524 . S
C900 C901 1.397 . S
C900 C905 1.363 . S
C901 H872 0.950 . S
C901 C900 1.397 . S
C901 C902 1.334 . S
C902 H873 0.950 . S
C902 C901 1.334 . S
C902 C903 1.287 . S
C903 C902 1.287 . S
C903 C904 1.524 . S
C903 H906 0.999 . S
C904 H874 0.950 . S
C904 C903 1.524 . S
C904 C905 1.415 . S
C905 H875 0.950 . S
C905 C900 1.363 . S
C905 C904 1.415 . S
H906 C903 0.999 . S
H907 C888 0.913 . S
H908 C926 0.951 . S
H909 C928 0.951 1_556 S
H910 C930 0.950 1_556 S
H911 C931 0.950 . S
H912 C933 0.950 . S
H913 C936 0.950 . S
H914 C937 0.950 . S
H915 C939 0.950 . S
H916 C940 0.950 . S
H917 C941 0.951 . S
H918 C943 0.951 . S
H919 C945 0.950 . S
H920 C946 0.950 . S
H921 C948 0.950 . S
H922 C951 0.950 . S
H923 C952 0.950 . S
H924 C954 0.950 . S
H925 C955 0.950 . S
C926 H908 0.951 . S
C926 C927 1.366 . S
C926 C928 1.388 . S
C927 C926 1.366 . S
C927 C931 1.385 . S
C928 H909 0.951 1_554 S
C928 C926 1.388 . S
C928 C929 1.366 1_554 S
C929 C928 1.366 1_556 S
C929 C930 1.414 1_556 S
C929 C932 1.499 . S
C930 H910 0.950 1_554 S
C930 C929 1.414 1_554 S
C930 C931 1.374 . S
C931 H911 0.950 . S
C931 C927 1.385 . S
C931 C930 1.374 . S
C932 C929 1.499 . S
C932 C933 1.373 . S
C932 C934 1.389 . S
C933 H912 0.950 . S
C933 C932 1.373 . S
C933 C949 1.377 . S
C934 C932 1.389 . S
C934 C935 1.524 . S
C934 C948 1.377 . S
C935 C934 1.524 . S
C935 C936 1.397 . S
C935 C940 1.363 . S
C936 H913 0.950 . S
C936 C935 1.397 . S
C936 C937 1.334 . S
C937 H914 0.950 . S
C937 C936 1.334 . S
C937 C938 1.287 . S
C938 C937 1.287 . S
C938 C939 1.524 . S
C938 H957 0.913 . S
C939 H915 0.950 . S
C939 C938 1.524 . S
C939 C940 1.415 . S
C940 H916 0.950 . S
C940 C935 1.363 . S
C940 C939 1.415 . S
C941 H917 0.951 . S
C941 C942 1.366 . S
C941 C943 1.388 . S
C942 C941 1.366 . S
C942 C946 1.385 . S
C943 H918 0.951 . S
C943 C941 1.388 . S
C943 C944 1.366 . S
C944 C943 1.366 . S
C944 C945 1.414 . S
C944 C947 1.499 . S
C945 H919 0.950 . S
C945 C944 1.414 . S
C945 C946 1.374 . S
C946 H920 0.950 . S
C946 C942 1.385 . S
C946 C945 1.374 . S
C947 C944 1.499 . S
C947 C948 1.373 . S
C947 C949 1.389 . S
C948 H921 0.950 . S
C948 C934 1.377 . S
C948 C947 1.373 . S
C949 C933 1.377 . S
C949 C947 1.389 . S
C949 C950 1.524 . S
C950 C949 1.524 . S
C950 C951 1.397 . S
C950 C955 1.363 . S
C951 H922 0.950 . S
C951 C950 1.397 . S
C951 C952 1.334 . S
C952 H923 0.950 . S
C952 C951 1.334 . S
C952 C953 1.287 . S
C953 C952 1.287 . S
C953 C954 1.524 . S
C953 H956 0.999 . S
C954 H924 0.950 . S
C954 C953 1.524 . S
C954 C955 1.415 . S
C955 H925 0.950 . S
C955 C950 1.363 . S
C955 C954 1.415 . S
H956 C953 0.999 . S
H957 C938 0.913 . S
H958 C976 0.951 . S
H959 C978 0.951 . S
H960 C980 0.950 . S
H961 C981 0.950 . S
H962 C983 0.950 . S
H963 C986 0.950 . S
H964 C987 0.950 . S
H965 C989 0.950 . S
H966 C990 0.950 1_554 S
H967 C991 0.951 . S
H968 C993 0.951 . S
H969 C995 0.950 . S
H970 C996 0.950 . S
H971 C998 0.950 . S
H972 C1001 0.950 . S
H973 C1002 0.950 . S
H974 C1004 0.950 . S
H975 C1005 0.950 . S
C976 H958 0.951 . S
C976 C977 1.366 . S
C976 C978 1.388 . S
C977 C976 1.366 . S
C977 C981 1.385 . S
C978 H959 0.951 . S
C978 C976 1.388 . S
C978 C979 1.366 . S
C979 C978 1.366 . S
C979 C980 1.414 . S
C979 C982 1.499 . S
C980 H960 0.950 . S
C980 C979 1.414 . S
C980 C981 1.374 . S
C981 H961 0.950 . S
C981 C977 1.385 . S
C981 C980 1.374 . S
C982 C979 1.499 . S
C982 C983 1.373 . S
C982 C984 1.389 . S
C983 H962 0.950 . S
C983 C982 1.373 . S
C983 C999 1.377 1_556 S
C984 C982 1.389 . S
C984 C985 1.524 . S
C984 C998 1.377 1_556 S
C985 C984 1.524 . S
C985 C986 1.397 . S
C985 C990 1.363 . S
C986 H963 0.950 . S
C986 C985 1.397 . S
C986 C987 1.334 . S
C987 H964 0.950 . S
C987 C986 1.334 . S
C987 C988 1.287 . S
C988 C987 1.287 . S
C988 C989 1.524 . S
C988 H1007 0.913 . S
C989 H965 0.950 . S
C989 C988 1.524 . S
C989 C990 1.415 . S
C990 H966 0.950 1_556 S
C990 C985 1.363 . S
C990 C989 1.415 . S
C991 H967 0.951 . S
C991 C992 1.366 . S
C991 C993 1.388 . S
C992 C991 1.366 . S
C992 C996 1.385 . S
C993 H968 0.951 . S
C993 C991 1.388 . S
C993 C994 1.366 . S
C994 C993 1.366 . S
C994 C995 1.414 . S
C994 C997 1.499 . S
C995 H969 0.950 . S
C995 C994 1.414 . S
C995 C996 1.374 . S
C996 H970 0.950 . S
C996 C992 1.385 . S
C996 C995 1.374 . S
C997 C994 1.499 . S
C997 C998 1.373 . S
C997 C999 1.389 . S
C998 H971 0.950 . S
C998 C984 1.377 1_554 S
C998 C997 1.373 . S
C999 C983 1.377 1_554 S
C999 C997 1.389 . S
C999 C1000 1.524 . S
C1000 C999 1.524 . S
C1000 C1001 1.397 . S
C1000 C1005 1.363 . S
C1001 H972 0.950 . S
C1001 C1000 1.397 . S
C1001 C1002 1.334 . S
C1002 H973 0.950 . S
C1002 C1001 1.334 . S
C1002 C1003 1.287 . S
C1003 C1002 1.287 . S
C1003 C1004 1.524 . S
C1003 H1006 0.999 . S
C1004 H974 0.950 . S
C1004 C1003 1.524 . S
C1004 C1005 1.415 . S
C1005 H975 0.950 . S
C1005 C1000 1.363 . S
C1005 C1004 1.415 . S
H1006 C1003 0.999 . S
H1007 C988 0.913 . S
H1008 C1026 0.951 . S
H1009 C1028 0.951 . S
H1010 C1030 0.950 . S
H1011 C1031 0.950 . S
H1012 C1033 0.950 . S
H1013 C1036 0.950 . S
H1014 C1037 0.950 . S
H1015 C1039 0.950 . S
H1016 C1040 0.950 . S
H1017 C1041 0.951 . S
H1018 C1043 0.951 . S
H1019 C1045 0.950 1_556 S
H1020 C1046 0.950 . S
H1021 C1048 0.950 . S
H1022 C1051 0.950 . S
H1023 C1052 0.950 . S
H1024 C1054 0.950 . S
H1025 C1055 0.950 . S
C1026 H1008 0.951 . S
C1026 C1027 1.366 . S
C1026 C1028 1.388 . S
C1027 C1026 1.366 . S
C1027 C1031 1.385 . S
C1028 H1009 0.951 . S
C1028 C1026 1.388 . S
C1028 C1029 1.366 . S
C1029 C1028 1.366 . S
C1029 C1030 1.414 . S
C1029 C1032 1.499 . S
C1030 H1010 0.950 . S
C1030 C1029 1.414 . S
C1030 C1031 1.374 . S
C1031 H1011 0.950 . S
C1031 C1027 1.385 . S
C1031 C1030 1.374 . S
C1032 C1029 1.499 . S
C1032 C1033 1.373 . S
C1032 C1034 1.389 . S
C1033 H1012 0.950 . S
C1033 C1032 1.373 . S
C1033 C1049 1.377 . S
C1034 C1032 1.389 . S
C1034 C1035 1.524 . S
C1034 C1048 1.377 . S
C1035 C1034 1.524 . S
C1035 C1036 1.397 . S
C1035 C1040 1.363 . S
C1036 H1013 0.950 . S
C1036 C1035 1.397 . S
C1036 C1037 1.334 . S
C1037 H1014 0.950 . S
C1037 C1036 1.334 . S
C1037 C1038 1.287 . S
C1038 C1037 1.287 . S
C1038 C1039 1.524 . S
C1038 H1057 0.913 . S
C1039 H1015 0.950 . S
C1039 C1038 1.524 . S
C1039 C1040 1.415 . S
C1040 H1016 0.950 . S
C1040 C1035 1.363 . S
C1040 C1039 1.415 . S
C1041 H1017 0.951 . S
C1041 C1042 1.366 . S
C1041 C1043 1.388 . S
C1042 C1041 1.366 . S
C1042 C1046 1.385 . S
C1043 H1018 0.951 . S
C1043 C1041 1.388 . S
C1043 C1044 1.366 . S
C1044 C1043 1.366 . S
C1044 C1045 1.414 . S
C1044 C1047 1.499 1_554 S
C1045 H1019 0.950 1_554 S
C1045 C1044 1.414 . S
C1045 C1046 1.374 . S
C1046 H1020 0.950 . S
C1046 C1042 1.385 . S
C1046 C1045 1.374 . S
C1047 C1044 1.499 1_556 S
C1047 C1048 1.373 . S
C1047 C1049 1.389 . S
C1048 H1021 0.950 . S
C1048 C1034 1.377 . S
C1048 C1047 1.373 . S
C1049 C1033 1.377 . S
C1049 C1047 1.389 . S
C1049 C1050 1.524 . S
C1050 C1049 1.524 . S
C1050 C1051 1.397 . S
C1050 C1055 1.363 . S
C1051 H1022 0.950 . S
C1051 C1050 1.397 . S
C1051 C1052 1.334 . S
C1052 H1023 0.950 . S
C1052 C1051 1.334 . S
C1052 C1053 1.287 . S
C1053 C1052 1.287 . S
C1053 C1054 1.524 . S
C1053 H1056 0.999 . S
C1054 H1024 0.950 . S
C1054 C1053 1.524 . S
C1054 C1055 1.415 . S
C1055 H1025 0.950 . S
C1055 C1050 1.363 . S
C1055 C1054 1.415 . S
H1056 C1053 0.999 . S
H1057 C1038 0.913 . S
H1058 C1076 0.951 . S
H1059 C1078 0.951 . S
H1060 C1080 0.950 . S
H1061 C1081 0.950 . S
H1062 C1083 0.950 . S
H1063 C1086 0.950 . S
H1064 C1087 0.950 . S
H1065 C1089 0.950 . S
H1066 C1090 0.950 . S
H1067 C1091 0.951 . S
H1068 C1093 0.951 . S
H1069 C1095 0.950 . S
H1070 C1096 0.950 . S
H1071 C1098 0.950 . S
H1072 C1101 0.950 . S
H1073 C1102 0.950 . S
H1074 C1104 0.950 . S
H1075 C1105 0.950 . S
C1076 H1058 0.951 . S
C1076 C1077 1.366 . S
C1076 C1078 1.388 . S
C1077 C1076 1.366 . S
C1077 C1081 1.385 . S
C1078 H1059 0.951 . S
C1078 C1076 1.388 . S
C1078 C1079 1.366 . S
C1079 C1078 1.366 . S
C1079 C1080 1.414 . S
C1079 C1082 1.499 . S
C1080 H1060 0.950 . S
C1080 C1079 1.414 . S
C1080 C1081 1.374 . S
C1081 H1061 0.950 . S
C1081 C1077 1.385 . S
C1081 C1080 1.374 . S
C1082 C1079 1.499 . S
C1082 C1083 1.373 . S
C1082 C1084 1.389 . S
C1083 H1062 0.950 . S
C1083 C1082 1.373 . S
C1083 C1099 1.377 . S
C1084 C1082 1.389 . S
C1084 C1085 1.524 . S
C1084 C1098 1.377 . S
C1085 C1084 1.524 . S
C1085 C1086 1.397 . S
C1085 C1090 1.363 . S
C1086 H1063 0.950 . S
C1086 C1085 1.397 . S
C1086 C1087 1.334 . S
C1087 H1064 0.950 . S
C1087 C1086 1.334 . S
C1087 C1088 1.287 . S
C1088 C1087 1.287 . S
C1088 C1089 1.524 . S
C1088 H1107 0.913 . S
C1089 H1065 0.950 . S
C1089 C1088 1.524 . S
C1089 C1090 1.415 . S
C1090 H1066 0.950 . S
C1090 C1085 1.363 . S
C1090 C1089 1.415 . S
C1091 H1067 0.951 . S
C1091 C1092 1.366 1_554 S
C1091 C1093 1.388 . S
C1092 C1091 1.366 1_556 S
C1092 C1096 1.385 . S
C1093 H1068 0.951 . S
C1093 C1091 1.388 . S
C1093 C1094 1.366 . S
C1094 C1093 1.366 . S
C1094 C1095 1.414 1_554 S
C1094 C1097 1.499 . S
C1095 H1069 0.950 . S
C1095 C1094 1.414 1_556 S
C1095 C1096 1.374 . S
C1096 H1070 0.950 . S
C1096 C1092 1.385 . S
C1096 C1095 1.374 . S
C1097 C1094 1.499 . S
C1097 C1098 1.373 . S
C1097 C1099 1.389 . S
C1098 H1071 0.950 . S
C1098 C1084 1.377 . S
C1098 C1097 1.373 . S
C1099 C1083 1.377 . S
C1099 C1097 1.389 . S
C1099 C1100 1.524 . S
C1100 C1099 1.524 . S
C1100 C1101 1.397 . S
C1100 C1105 1.363 . S
C1101 H1072 0.950 . S
C1101 C1100 1.397 . S
C1101 C1102 1.334 . S
C1102 H1073 0.950 . S
C1102 C1101 1.334 . S
C1102 C1103 1.287 . S
C1103 C1102 1.287 . S
C1103 C1104 1.524 . S
C1103 H1106 0.999 . S
C1104 H1074 0.950 . S
C1104 C1103 1.524 . S
C1104 C1105 1.415 . S
C1105 H1075 0.950 . S
C1105 C1100 1.363 . S
C1105 C1104 1.415 . S
H1106 C1103 0.999 . S
H1107 C1088 0.913 . S
H1108 C1126 0.951 . S
H1109 C1128 0.951 . S
H1110 C1130 0.950 . S
H1111 C1131 0.950 . S
H1112 C1133 0.950 . S
H1113 C1136 0.950 . S
H1114 C1137 0.950 . S
H1115 C1139 0.950 . S
H1116 C1140 0.950 . S
H1117 C1141 0.951 . S
H1118 C1143 0.951 . S
H1119 C1145 0.950 . S
H1120 C1146 0.950 . S
H1121 C1148 0.950 . S
H1122 C1151 0.950 . S
H1123 C1152 0.950 . S
H1124 C1154 0.950 . S
H1125 C1155 0.950 . S
C1126 H1108 0.951 . S
C1126 C1127 1.366 . S
C1126 C1128 1.388 . S
C1127 C1126 1.366 . S
C1127 C1131 1.385 . S
C1128 H1109 0.951 . S
C1128 C1126 1.388 . S
C1128 C1129 1.366 . S
C1129 C1128 1.366 . S
C1129 C1130 1.414 . S
C1129 C1132 1.499 . S
C1130 H1110 0.950 . S
C1130 C1129 1.414 . S
C1130 C1131 1.374 . S
C1131 H1111 0.950 . S
C1131 C1127 1.385 . S
C1131 C1130 1.374 . S
C1132 C1129 1.499 . S
C1132 C1133 1.373 . S
C1132 C1134 1.389 . S
C1133 H1112 0.950 . S
C1133 C1132 1.373 . S
C1133 C1149 1.377 . S
C1134 C1132 1.389 . S
C1134 C1135 1.524 . S
C1134 C1148 1.377 . S
C1135 C1134 1.524 . S
C1135 C1136 1.397 . S
C1135 C1140 1.363 . S
C1136 H1113 0.950 . S
C1136 C1135 1.397 . S
C1136 C1137 1.334 . S
C1137 H1114 0.950 . S
C1137 C1136 1.334 . S
C1137 C1138 1.287 . S
C1138 C1137 1.287 . S
C1138 C1139 1.524 . S
C1138 H1157 0.913 . S
C1139 H1115 0.950 . S
C1139 C1138 1.524 . S
C1139 C1140 1.415 . S
C1140 H1116 0.950 . S
C1140 C1135 1.363 . S
C1140 C1139 1.415 . S
C1141 H1117 0.951 . S
C1141 C1142 1.366 . S
C1141 C1143 1.388 . S
C1142 C1141 1.366 . S
C1142 C1146 1.385 . S
C1143 H1118 0.951 . S
C1143 C1141 1.388 . S
C1143 C1144 1.366 . S
C1144 C1143 1.366 . S
C1144 C1145 1.414 . S
C1144 C1147 1.499 . S
C1145 H1119 0.950 . S
C1145 C1144 1.414 . S
C1145 C1146 1.374 . S
C1146 H1120 0.950 . S
C1146 C1142 1.385 . S
C1146 C1145 1.374 . S
C1147 C1144 1.499 . S
C1147 C1148 1.373 . S
C1147 C1149 1.389 . S
C1148 H1121 0.950 . S
C1148 C1134 1.377 . S
C1148 C1147 1.373 . S
C1149 C1133 1.377 . S
C1149 C1147 1.389 . S
C1149 C1150 1.524 . S
C1150 C1149 1.524 . S
C1150 C1151 1.397 . S
C1150 C1155 1.363 . S
C1151 H1122 0.950 . S
C1151 C1150 1.397 . S
C1151 C1152 1.334 . S
C1152 H1123 0.950 . S
C1152 C1151 1.334 . S
C1152 C1153 1.287 . S
C1153 C1152 1.287 . S
C1153 C1154 1.524 . S
C1153 H1156 0.999 . S
C1154 H1124 0.950 . S
C1154 C1153 1.524 . S
C1154 C1155 1.415 . S
C1155 H1125 0.950 . S
C1155 C1150 1.363 . S
C1155 C1154 1.415 . S
H1156 C1153 0.999 . S
H1157 C1138 0.913 . S
H1158 C1176 0.951 . S
H1159 C1178 0.951 . S
H1160 C1180 0.950 . S
H1161 C1181 0.950 . S
H1162 C1183 0.950 . S
H1163 C1186 0.950 . S
H1164 C1187 0.950 . S
H1165 C1189 0.950 . S
H1166 C1190 0.950 . S
H1167 C1191 0.951 . S
H1168 C1193 0.951 . S
H1169 C1195 0.950 . S
H1170 C1196 0.950 . S
H1171 C1198 0.950 . S
H1172 C1201 0.950 . S
H1173 C1202 0.950 . S
H1174 C1204 0.950 . S
H1175 C1205 0.950 . S
C1176 H1158 0.951 . S
C1176 C1177 1.366 . S
C1176 C1178 1.388 . S
C1177 C1176 1.366 . S
C1177 C1181 1.385 . S
C1178 H1159 0.951 . S
C1178 C1176 1.388 . S
C1178 C1179 1.366 . S
C1179 C1178 1.366 . S
C1179 C1180 1.414 . S
C1179 C1182 1.499 . S
C1180 H1160 0.950 . S
C1180 C1179 1.414 . S
C1180 C1181 1.374 . S
C1181 H1161 0.950 . S
C1181 C1177 1.385 . S
C1181 C1180 1.374 . S
C1182 C1179 1.499 . S
C1182 C1183 1.373 . S
C1182 C1184 1.389 . S
C1183 H1162 0.950 . S
C1183 C1182 1.373 . S
C1183 C1199 1.377 . S
C1184 C1182 1.389 . S
C1184 C1185 1.524 . S
C1184 C1198 1.377 . S
C1185 C1184 1.524 . S
C1185 C1186 1.397 . S
C1185 C1190 1.363 . S
C1186 H1163 0.950 . S
C1186 C1185 1.397 . S
C1186 C1187 1.334 . S
C1187 H1164 0.950 . S
C1187 C1186 1.334 . S
C1187 C1188 1.287 . S
C1188 C1187 1.287 . S
C1188 C1189 1.524 . S
C1188 H1207 0.913 . S
C1189 H1165 0.950 . S
C1189 C1188 1.524 . S
C1189 C1190 1.415 . S
C1190 H1166 0.950 . S
C1190 C1185 1.363 . S
C1190 C1189 1.415 . S
C1191 H1167 0.951 . S
C1191 C1192 1.366 . S
C1191 C1193 1.388 . S
C1192 C1191 1.366 . S
C1192 C1196 1.385 . S
C1193 H1168 0.951 . S
C1193 C1191 1.388 . S
C1193 C1194 1.366 . S
C1194 C1193 1.366 . S
C1194 C1195 1.414 . S
C1194 C1197 1.499 . S
C1195 H1169 0.950 . S
C1195 C1194 1.414 . S
C1195 C1196 1.374 . S
C1196 H1170 0.950 . S
C1196 C1192 1.385 . S
C1196 C1195 1.374 . S
C1197 C1194 1.499 . S
C1197 C1198 1.373 . S
C1197 C1199 1.389 . S
C1198 H1171 0.950 . S
C1198 C1184 1.377 . S
C1198 C1197 1.373 . S
C1199 C1183 1.377 . S
C1199 C1197 1.389 . S
C1199 C1200 1.524 . S
C1200 C1199 1.524 . S
C1200 C1201 1.397 . S
C1200 C1205 1.363 . S
C1201 H1172 0.950 . S
C1201 C1200 1.397 . S
C1201 C1202 1.334 . S
C1202 H1173 0.950 . S
C1202 C1201 1.334 . S
C1202 C1203 1.287 . S
C1203 C1202 1.287 . S
C1203 C1204 1.524 . S
C1203 H1206 0.999 . S
C1204 H1174 0.950 . S
C1204 C1203 1.524 . S
C1204 C1205 1.415 . S
C1205 H1175 0.950 . S
C1205 C1200 1.363 . S
C1205 C1204 1.415 . S
H1206 C1203 0.999 . S
H1207 C1188 0.913 . S
H1208 C1226 0.951 . S
H1209 C1228 0.951 . S
H1210 C1230 0.950 . S
H1211 C1231 0.950 . S
H1212 C1233 0.950 . S
H1213 C1236 0.950 . S
H1214 C1237 0.950 . S
H1215 C1239 0.950 . S
H1216 C1240 0.950 . S
H1217 C1241 0.951 . S
H1218 C1243 0.951 . S
H1219 C1245 0.950 . S
H1220 C1246 0.950 . S
H1221 C1248 0.950 . S
H1222 C1251 0.950 . S
H1223 C1252 0.950 . S
H1224 C1254 0.950 . S
H1225 C1255 0.950 . S
C1226 H1208 0.951 . S
C1226 C1227 1.366 . S
C1226 C1228 1.388 . S
C1227 C1226 1.366 . S
C1227 C1231 1.385 . S
C1228 H1209 0.951 . S
C1228 C1226 1.388 . S
C1228 C1229 1.366 . S
C1229 C1228 1.366 . S
C1229 C1230 1.414 . S
C1229 C1232 1.499 . S
C1230 H1210 0.950 . S
C1230 C1229 1.414 . S
C1230 C1231 1.374 . S
C1231 H1211 0.950 . S
C1231 C1227 1.385 . S
C1231 C1230 1.374 . S
C1232 C1229 1.499 . S
C1232 C1233 1.373 . S
C1232 C1234 1.389 . S
C1233 H1212 0.950 . S
C1233 C1232 1.373 . S
C1233 C1249 1.377 . S
C1234 C1232 1.389 . S
C1234 C1235 1.524 . S
C1234 C1248 1.377 . S
C1235 C1234 1.524 . S
C1235 C1236 1.397 . S
C1235 C1240 1.363 . S
C1236 H1213 0.950 . S
C1236 C1235 1.397 . S
C1236 C1237 1.334 . S
C1237 H1214 0.950 . S
C1237 C1236 1.334 . S
C1237 C1238 1.287 . S
C1238 C1237 1.287 . S
C1238 C1239 1.524 . S
C1238 H1257 0.913 . S
C1239 H1215 0.950 . S
C1239 C1238 1.524 . S
C1239 C1240 1.415 . S
C1240 H1216 0.950 . S
C1240 C1235 1.363 . S
C1240 C1239 1.415 . S
C1241 H1217 0.951 . S
C1241 C1242 1.366 . S
C1241 C1243 1.388 . S
C1242 C1241 1.366 . S
C1242 C1246 1.385 . S
C1243 H1218 0.951 . S
C1243 C1241 1.388 . S
C1243 C1244 1.366 . S
C1244 C1243 1.366 . S
C1244 C1245 1.414 . S
C1244 C1247 1.499 . S
C1245 H1219 0.950 . S
C1245 C1244 1.414 . S
C1245 C1246 1.374 . S
C1246 H1220 0.950 . S
C1246 C1242 1.385 . S
C1246 C1245 1.374 . S
C1247 C1244 1.499 . S
C1247 C1248 1.373 . S
C1247 C1249 1.389 . S
C1248 H1221 0.950 . S
C1248 C1234 1.377 . S
C1248 C1247 1.373 . S
C1249 C1233 1.377 . S
C1249 C1247 1.389 . S
C1249 C1250 1.524 . S
C1250 C1249 1.524 . S
C1250 C1251 1.397 . S
C1250 C1255 1.363 . S
C1251 H1222 0.950 . S
C1251 C1250 1.397 . S
C1251 C1252 1.334 . S
C1252 H1223 0.950 . S
C1252 C1251 1.334 . S
C1252 C1253 1.287 . S
C1253 C1252 1.287 . S
C1253 C1254 1.524 . S
C1253 H1256 0.999 . S
C1254 H1224 0.950 . S
C1254 C1253 1.524 . S
C1254 C1255 1.415 . S
C1255 H1225 0.950 . S
C1255 C1250 1.363 . S
C1255 C1254 1.415 . S
H1256 C1253 0.999 . S
H1257 C1238 0.913 . S
H1258 C1276 0.951 . S
H1259 C1278 0.951 . S
H1260 C1280 0.950 . S
H1261 C1281 0.950 . S
H1262 C1283 0.950 . S
H1263 C1286 0.950 . S
H1264 C1287 0.950 . S
H1265 C1289 0.950 . S
H1266 C1290 0.950 . S
H1267 C1291 0.951 . S
H1268 C1293 0.951 . S
H1269 C1295 0.950 . S
H1270 C1296 0.950 . S
H1271 C1298 0.950 . S
H1272 C1301 0.950 . S
H1273 C1302 0.950 . S
H1274 C1304 0.950 . S
H1275 C1305 0.950 . S
C1276 H1258 0.951 . S
C1276 C1277 1.366 . S
C1276 C1278 1.388 . S
C1277 C1276 1.366 . S
C1277 C1281 1.385 . S
C1278 H1259 0.951 . S
C1278 C1276 1.388 . S
C1278 C1279 1.366 . S
C1279 C1278 1.366 . S
C1279 C1280 1.414 . S
C1279 C1282 1.499 . S
C1280 H1260 0.950 . S
C1280 C1279 1.414 . S
C1280 C1281 1.374 . S
C1281 H1261 0.950 . S
C1281 C1277 1.385 . S
C1281 C1280 1.374 . S
C1282 C1279 1.499 . S
C1282 C1283 1.373 . S
C1282 C1284 1.389 . S
C1283 H1262 0.950 . S
C1283 C1282 1.373 . S
C1283 C1299 1.377 . S
C1284 C1282 1.389 . S
C1284 C1285 1.524 . S
C1284 C1298 1.377 . S
C1285 C1284 1.524 . S
C1285 C1286 1.397 . S
C1285 C1290 1.363 . S
C1286 H1263 0.950 . S
C1286 C1285 1.397 . S
C1286 C1287 1.334 . S
C1287 H1264 0.950 . S
C1287 C1286 1.334 . S
C1287 C1288 1.287 . S
C1288 C1287 1.287 . S
C1288 C1289 1.524 . S
C1288 H1307 0.913 . S
C1289 H1265 0.950 . S
C1289 C1288 1.524 . S
C1289 C1290 1.415 . S
C1290 H1266 0.950 . S
C1290 C1285 1.363 . S
C1290 C1289 1.415 . S
C1291 H1267 0.951 . S
C1291 C1292 1.366 . S
C1291 C1293 1.388 . S
C1292 C1291 1.366 . S
C1292 C1296 1.385 . S
C1293 H1268 0.951 . S
C1293 C1291 1.388 . S
C1293 C1294 1.366 . S
C1294 C1293 1.366 . S
C1294 C1295 1.414 . S
C1294 C1297 1.499 . S
C1295 H1269 0.950 . S
C1295 C1294 1.414 . S
C1295 C1296 1.374 . S
C1296 H1270 0.950 . S
C1296 C1292 1.385 . S
C1296 C1295 1.374 . S
C1297 C1294 1.499 . S
C1297 C1298 1.373 . S
C1297 C1299 1.389 . S
C1298 H1271 0.950 . S
C1298 C1284 1.377 . S
C1298 C1297 1.373 . S
C1299 C1283 1.377 . S
C1299 C1297 1.389 . S
C1299 C1300 1.524 . S
C1300 C1299 1.524 . S
C1300 C1301 1.397 . S
C1300 C1305 1.363 . S
C1301 H1272 0.950 . S
C1301 C1300 1.397 . S
C1301 C1302 1.334 . S
C1302 H1273 0.950 . S
C1302 C1301 1.334 . S
C1302 C1303 1.287 . S
C1303 C1302 1.287 . S
C1303 C1304 1.524 . S
C1303 H1306 0.999 . S
C1304 H1274 0.950 . S
C1304 C1303 1.524 . S
C1304 C1305 1.415 . S
C1305 H1275 0.950 . S
C1305 C1300 1.363 . S
C1305 C1304 1.415 . S
H1306 C1303 0.999 . S
H1307 C1288 0.913 . S
H1308 C1326 0.951 . S
H1309 C1328 0.951 . S
H1310 C1330 0.950 . S
H1311 C1331 0.950 . S
H1312 C1333 0.950 . S
H1313 C1336 0.950 . S
H1314 C1337 0.950 . S
H1315 C1339 0.950 . S
H1316 C1340 0.950 . S
H1317 C1341 0.951 . S
H1318 C1343 0.951 . S
H1319 C1345 0.950 . S
H1320 C1346 0.950 . S
H1321 C1348 0.950 . S
H1322 C1351 0.950 . S
H1323 C1352 0.950 . S
H1324 C1354 0.950 . S
H1325 C1355 0.950 . S
C1326 H1308 0.951 . S
C1326 C1327 1.366 . S
C1326 C1328 1.388 . S
C1327 C1326 1.366 . S
C1327 C1331 1.385 . S
C1328 H1309 0.951 . S
C1328 C1326 1.388 . S
C1328 C1329 1.366 . S
C1329 C1328 1.366 . S
C1329 C1330 1.414 . S
C1329 C1332 1.499 . S
C1330 H1310 0.950 . S
C1330 C1329 1.414 . S
C1330 C1331 1.374 . S
C1331 H1311 0.950 . S
C1331 C1327 1.385 . S
C1331 C1330 1.374 . S
C1332 C1329 1.499 . S
C1332 C1333 1.373 . S
C1332 C1334 1.389 . S
C1333 H1312 0.950 . S
C1333 C1332 1.373 . S
C1333 C1349 1.377 . S
C1334 C1332 1.389 . S
C1334 C1335 1.524 . S
C1334 C1348 1.377 . S
C1335 C1334 1.524 . S
C1335 C1336 1.397 . S
C1335 C1340 1.363 . S
C1336 H1313 0.950 . S
C1336 C1335 1.397 . S
C1336 C1337 1.334 . S
C1337 H1314 0.950 . S
C1337 C1336 1.334 . S
C1337 C1338 1.287 . S
C1338 C1337 1.287 . S
C1338 C1339 1.524 . S
C1338 H1357 0.913 1_554 S
C1339 H1315 0.950 . S
C1339 C1338 1.524 . S
C1339 C1340 1.415 . S
C1340 H1316 0.950 . S
C1340 C1335 1.363 . S
C1340 C1339 1.415 . S
C1341 H1317 0.951 . S
C1341 C1342 1.366 . S
C1341 C1343 1.388 . S
C1342 C1341 1.366 . S
C1342 C1346 1.385 . S
C1343 H1318 0.951 . S
C1343 C1341 1.388 . S
C1343 C1344 1.366 . S
C1344 C1343 1.366 . S
C1344 C1345 1.414 . S
C1344 C1347 1.499 . S
C1345 H1319 0.950 . S
C1345 C1344 1.414 . S
C1345 C1346 1.374 . S
C1346 H1320 0.950 . S
C1346 C1342 1.385 . S
C1346 C1345 1.374 . S
C1347 C1344 1.499 . S
C1347 C1348 1.373 . S
C1347 C1349 1.389 . S
C1348 H1321 0.950 . S
C1348 C1334 1.377 . S
C1348 C1347 1.373 . S
C1349 C1333 1.377 . S
C1349 C1347 1.389 . S
C1349 C1350 1.524 . S
C1350 C1349 1.524 . S
C1350 C1351 1.397 . S
C1350 C1355 1.363 . S
C1351 H1322 0.950 . S
C1351 C1350 1.397 . S
C1351 C1352 1.334 . S
C1352 H1323 0.950 . S
C1352 C1351 1.334 . S
C1352 C1353 1.287 . S
C1353 C1352 1.287 . S
C1353 C1354 1.524 . S
C1353 H1356 0.999 . S
C1354 H1324 0.950 . S
C1354 C1353 1.524 . S
C1354 C1355 1.415 . S
C1355 H1325 0.950 . S
C1355 C1350 1.363 . S
C1355 C1354 1.415 . S
H1356 C1353 0.999 . S
H1357 C1338 0.913 1_556 S
H1358 C1376 0.951 . S
H1359 C1378 0.951 . S
H1360 C1380 0.950 . S
H1361 C1381 0.950 . S
H1362 C1383 0.950 . S
H1363 C1386 0.950 . S
H1364 C1387 0.950 . S
H1365 C1389 0.950 . S
H1366 C1390 0.950 . S
H1367 C1391 0.951 . S
H1368 C1393 0.951 . S
H1369 C1395 0.950 . S
H1370 C1396 0.950 . S
H1371 C1398 0.950 . S
H1372 C1401 0.950 . S
H1373 C1402 0.950 . S
H1374 C1404 0.950 . S
H1375 C1405 0.950 . S
C1376 H1358 0.951 . S
C1376 C1377 1.366 . S
C1376 C1378 1.388 . S
C1377 C1376 1.366 . S
C1377 C1381 1.385 . S
C1378 H1359 0.951 . S
C1378 C1376 1.388 . S
C1378 C1379 1.366 . S
C1379 C1378 1.366 . S
C1379 C1380 1.414 . S
C1379 C1382 1.499 . S
C1380 H1360 0.950 . S
C1380 C1379 1.414 . S
C1380 C1381 1.374 . S
C1381 H1361 0.950 . S
C1381 C1377 1.385 . S
C1381 C1380 1.374 . S
C1382 C1379 1.499 . S
C1382 C1383 1.373 . S
C1382 C1384 1.389 . S
C1383 H1362 0.950 . S
C1383 C1382 1.373 . S
C1383 C1399 1.377 . S
C1384 C1382 1.389 . S
C1384 C1385 1.524 . S
C1384 C1398 1.377 . S
C1385 C1384 1.524 . S
C1385 C1386 1.397 . S
C1385 C1390 1.363 . S
C1386 H1363 0.950 . S
C1386 C1385 1.397 . S
C1386 C1387 1.334 . S
C1387 H1364 0.950 . S
C1387 C1386 1.334 . S
C1387 C1388 1.287 . S
C1388 C1387 1.287 . S
C1388 C1389 1.524 . S
C1388 H1407 0.913 . S
C1389 H1365 0.950 . S
C1389 C1388 1.524 . S
C1389 C1390 1.415 . S
C1390 H1366 0.950 . S
C1390 C1385 1.363 . S
C1390 C1389 1.415 . S
C1391 H1367 0.951 . S
C1391 C1392 1.366 . S
C1391 C1393 1.388 . S
C1392 C1391 1.366 . S
C1392 C1396 1.385 . S
C1393 H1368 0.951 . S
C1393 C1391 1.388 . S
C1393 C1394 1.366 . S
C1394 C1393 1.366 . S
C1394 C1395 1.414 . S
C1394 C1397 1.499 . S
C1395 H1369 0.950 . S
C1395 C1394 1.414 . S
C1395 C1396 1.374 . S
C1396 H1370 0.950 . S
C1396 C1392 1.385 . S
C1396 C1395 1.374 . S
C1397 C1394 1.499 . S
C1397 C1398 1.373 . S
C1397 C1399 1.389 . S
C1398 H1371 0.950 . S
C1398 C1384 1.377 . S
C1398 C1397 1.373 . S
C1399 C1383 1.377 . S
C1399 C1397 1.389 . S
C1399 C1400 1.524 . S
C1400 C1399 1.524 . S
C1400 C1401 1.397 . S
C1400 C1405 1.363 . S
C1401 H1372 0.950 . S
C1401 C1400 1.397 . S
C1401 C1402 1.334 . S
C1402 H1373 0.950 . S
C1402 C1401 1.334 . S
C1402 C1403 1.287 . S
C1403 C1402 1.287 . S
C1403 C1404 1.524 . S
C1403 H1406 0.999 . S
C1404 H1374 0.950 . S
C1404 C1403 1.524 . S
C1404 C1405 1.415 . S
C1405 H1375 0.950 . S
C1405 C1400 1.363 . S
C1405 C1404 1.415 . S
H1406 C1403 0.999 . S
H1407 C1388 0.913 . S
H1408 C1426 0.951 . S
H1409 C1428 0.951 . S
H1410 C1430 0.950 . S
H1411 C1431 0.950 . S
H1412 C1433 0.950 . S
H1413 C1436 0.950 . S
H1414 C1437 0.950 . S
H1415 C1439 0.950 . S
H1416 C1440 0.950 . S
H1417 C1441 0.951 . S
H1418 C1443 0.951 . S
H1419 C1445 0.950 . S
H1420 C1446 0.950 . S
H1421 C1448 0.950 . S
H1422 C1451 0.950 . S
H1423 C1452 0.950 . S
H1424 C1454 0.950 . S
H1425 C1455 0.950 . S
C1426 H1408 0.951 . S
C1426 C1427 1.366 . S
C1426 C1428 1.388 . S
C1427 C1426 1.366 . S
C1427 C1431 1.385 . S
C1428 H1409 0.951 . S
C1428 C1426 1.388 . S
C1428 C1429 1.366 . S
C1429 C1428 1.366 . S
C1429 C1430 1.414 . S
C1429 C1432 1.499 . S
C1430 H1410 0.950 . S
C1430 C1429 1.414 . S
C1430 C1431 1.374 . S
C1431 H1411 0.950 . S
C1431 C1427 1.385 . S
C1431 C1430 1.374 . S
C1432 C1429 1.499 . S
C1432 C1433 1.373 . S
C1432 C1434 1.389 . S
C1433 H1412 0.950 . S
C1433 C1432 1.373 . S
C1433 C1449 1.377 . S
C1434 C1432 1.389 . S
C1434 C1435 1.524 . S
C1434 C1448 1.377 . S
C1435 C1434 1.524 . S
C1435 C1436 1.397 . S
C1435 C1440 1.363 . S
C1436 H1413 0.950 . S
C1436 C1435 1.397 . S
C1436 C1437 1.334 . S
C1437 H1414 0.950 . S
C1437 C1436 1.334 . S
C1437 C1438 1.287 . S
C1438 C1437 1.287 . S
C1438 C1439 1.524 . S
C1438 H1457 0.913 . S
C1439 H1415 0.950 . S
C1439 C1438 1.524 . S
C1439 C1440 1.415 . S
C1440 H1416 0.950 . S
C1440 C1435 1.363 . S
C1440 C1439 1.415 . S
C1441 H1417 0.951 . S
C1441 C1442 1.366 . S
C1441 C1443 1.388 . S
C1442 C1441 1.366 . S
C1442 C1446 1.385 . S
C1443 H1418 0.951 . S
C1443 C1441 1.388 . S
C1443 C1444 1.366 . S
C1444 C1443 1.366 . S
C1444 C1445 1.414 . S
C1444 C1447 1.499 . S
C1445 H1419 0.950 . S
C1445 C1444 1.414 . S
C1445 C1446 1.374 . S
C1446 H1420 0.950 . S
C1446 C1442 1.385 . S
C1446 C1445 1.374 . S
C1447 C1444 1.499 . S
C1447 C1448 1.373 . S
C1447 C1449 1.389 . S
C1448 H1421 0.950 . S
C1448 C1434 1.377 . S
C1448 C1447 1.373 . S
C1449 C1433 1.377 . S
C1449 C1447 1.389 . S
C1449 C1450 1.524 . S
C1450 C1449 1.524 . S
C1450 C1451 1.397 . S
C1450 C1455 1.363 . S
C1451 H1422 0.950 . S
C1451 C1450 1.397 . S
C1451 C1452 1.334 . S
C1452 H1423 0.950 . S
C1452 C1451 1.334 . S
C1452 C1453 1.287 . S
C1453 C1452 1.287 . S
C1453 C1454 1.524 . S
C1453 H1456 0.999 . S
C1454 H1424 0.950 . S
C1454 C1453 1.524 . S
C1454 C1455 1.415 . S
C1455 H1425 0.950 . S
C1455 C1450 1.363 . S
C1455 C1454 1.415 . S
H1456 C1453 0.999 . S
H1457 C1438 0.913 . S
H1458 C1476 0.951 . S
H1459 C1478 0.951 . S
H1460 C1480 0.950 . S
H1461 C1481 0.950 . S
H1462 C1483 0.950 . S
H1463 C1486 0.950 . S
H1464 C1487 0.950 . S
H1465 C1489 0.950 . S
H1466 C1490 0.950 . S
H1467 C1491 0.951 . S
H1468 C1493 0.951 . S
H1469 C1495 0.950 . S
H1470 C1496 0.950 . S
H1471 C1498 0.950 . S
H1472 C1501 0.950 . S
H1473 C1502 0.950 . S
H1474 C1504 0.950 . S
H1475 C1505 0.950 . S
C1476 H1458 0.951 . S
C1476 C1477 1.366 . S
C1476 C1478 1.388 . S
C1477 C1476 1.366 . S
C1477 C1481 1.385 . S
C1478 H1459 0.951 . S
C1478 C1476 1.388 . S
C1478 C1479 1.366 . S
C1479 C1478 1.366 . S
C1479 C1480 1.414 . S
C1479 C1482 1.499 . S
C1480 H1460 0.950 . S
C1480 C1479 1.414 . S
C1480 C1481 1.374 . S
C1481 H1461 0.950 . S
C1481 C1477 1.385 . S
C1481 C1480 1.374 . S
C1482 C1479 1.499 . S
C1482 C1483 1.373 . S
C1482 C1484 1.389 . S
C1483 H1462 0.950 . S
C1483 C1482 1.373 . S
C1483 C1499 1.377 . S
C1484 C1482 1.389 . S
C1484 C1485 1.524 . S
C1484 C1498 1.377 . S
C1485 C1484 1.524 . S
C1485 C1486 1.397 . S
C1485 C1490 1.363 . S
C1486 H1463 0.950 . S
C1486 C1485 1.397 . S
C1486 C1487 1.334 . S
C1487 H1464 0.950 . S
C1487 C1486 1.334 . S
C1487 C1488 1.287 . S
C1488 C1487 1.287 . S
C1488 C1489 1.524 . S
C1488 H1507 0.913 . S
C1489 H1465 0.950 . S
C1489 C1488 1.524 . S
C1489 C1490 1.415 . S
C1490 H1466 0.950 . S
C1490 C1485 1.363 . S
C1490 C1489 1.415 . S
C1491 H1467 0.951 . S
C1491 C1492 1.366 . S
C1491 C1493 1.388 . S
C1492 C1491 1.366 . S
C1492 C1496 1.385 . S
C1493 H1468 0.951 . S
C1493 C1491 1.388 . S
C1493 C1494 1.366 . S
C1494 C1493 1.366 . S
C1494 C1495 1.414 . S
C1494 C1497 1.499 . S
C1495 H1469 0.950 . S
C1495 C1494 1.414 . S
C1495 C1496 1.374 . S
C1496 H1470 0.950 . S
C1496 C1492 1.385 . S
C1496 C1495 1.374 . S
C1497 C1494 1.499 . S
C1497 C1498 1.373 . S
C1497 C1499 1.389 . S
C1498 H1471 0.950 . S
C1498 C1484 1.377 . S
C1498 C1497 1.373 . S
C1499 C1483 1.377 . S
C1499 C1497 1.389 . S
C1499 C1500 1.524 . S
C1500 C1499 1.524 . S
C1500 C1501 1.397 . S
C1500 C1505 1.363 . S
C1501 H1472 0.950 . S
C1501 C1500 1.397 . S
C1501 C1502 1.334 . S
C1502 H1473 0.950 . S
C1502 C1501 1.334 . S
C1502 C1503 1.287 . S
C1503 C1502 1.287 . S
C1503 C1504 1.524 . S
C1503 H1506 0.999 . S
C1504 H1474 0.950 . S
C1504 C1503 1.524 . S
C1504 C1505 1.415 . S
C1505 H1475 0.950 . S
C1505 C1500 1.363 . S
C1505 C1504 1.415 . S
H1506 C1503 0.999 . S
H1507 C1488 0.913 . S
H1508 C1526 0.951 . S
H1509 C1528 0.951 . S
H1510 C1530 0.950 . S
H1511 C1531 0.950 . S
H1512 C1533 0.950 . S
H1513 C1536 0.950 . S
H1514 C1537 0.950 . S
H1515 C1539 0.950 . S
H1516 C1540 0.950 . S
H1517 C1541 0.951 . S
H1518 C1543 0.951 . S
H1519 C1545 0.950 . S
H1520 C1546 0.950 . S
H1521 C1548 0.950 . S
H1522 C1551 0.950 . S
H1523 C1552 0.950 . S
H1524 C1554 0.950 . S
H1525 C1555 0.950 . S
C1526 H1508 0.951 . S
C1526 C1527 1.366 1_556 S
C1526 C1528 1.388 . S
C1527 C1526 1.366 1_554 S
C1527 C1531 1.385 . S
C1528 H1509 0.951 . S
C1528 C1526 1.388 . S
C1528 C1529 1.366 . S
C1529 C1528 1.366 . S
C1529 C1530 1.414 1_556 S
C1529 C1532 1.499 . S
C1530 H1510 0.950 . S
C1530 C1529 1.414 1_554 S
C1530 C1531 1.374 . S
C1531 H1511 0.950 . S
C1531 C1527 1.385 . S
C1531 C1530 1.374 . S
C1532 C1529 1.499 . S
C1532 C1533 1.373 . S
C1532 C1534 1.389 . S
C1533 H1512 0.950 . S
C1533 C1532 1.373 . S
C1533 C1549 1.377 . S
C1534 C1532 1.389 . S
C1534 C1535 1.524 . S
C1534 C1548 1.377 . S
C1535 C1534 1.524 . S
C1535 C1536 1.397 1_556 S
C1535 C1540 1.363 . S
C1536 H1513 0.950 . S
C1536 C1535 1.397 1_554 S
C1536 C1537 1.334 . S
C1537 H1514 0.950 . S
C1537 C1536 1.334 . S
C1537 C1538 1.287 . S
C1538 C1537 1.287 . S
C1538 C1539 1.524 1_554 S
C1538 H1557 0.913 . S
C1539 H1515 0.950 . S
C1539 C1538 1.524 1_556 S
C1539 C1540 1.415 . S
C1540 H1516 0.950 . S
C1540 C1535 1.363 . S
C1540 C1539 1.415 . S
C1541 H1517 0.951 . S
C1541 C1542 1.366 . S
C1541 C1543 1.388 . S
C1542 C1541 1.366 . S
C1542 C1546 1.385 . S
C1543 H1518 0.951 . S
C1543 C1541 1.388 . S
C1543 C1544 1.366 . S
C1544 C1543 1.366 . S
C1544 C1545 1.414 . S
C1544 C1547 1.499 . S
C1545 H1519 0.950 . S
C1545 C1544 1.414 . S
C1545 C1546 1.374 . S
C1546 H1520 0.950 . S
C1546 C1542 1.385 . S
C1546 C1545 1.374 . S
C1547 C1544 1.499 . S
C1547 C1548 1.373 . S
C1547 C1549 1.389 . S
C1548 H1521 0.950 . S
C1548 C1534 1.377 . S
C1548 C1547 1.373 . S
C1549 C1533 1.377 . S
C1549 C1547 1.389 . S
C1549 C1550 1.524 . S
C1550 C1549 1.524 . S
C1550 C1551 1.397 . S
C1550 C1555 1.363 . S
C1551 H1522 0.950 . S
C1551 C1550 1.397 . S
C1551 C1552 1.334 . S
C1552 H1523 0.950 . S
C1552 C1551 1.334 . S
C1552 C1553 1.287 . S
C1553 C1552 1.287 . S
C1553 C1554 1.524 . S
C1553 H1556 0.999 . S
C1554 H1524 0.950 . S
C1554 C1553 1.524 . S
C1554 C1555 1.415 . S
C1555 H1525 0.950 . S
C1555 C1550 1.363 . S
C1555 C1554 1.415 . S
H1556 C1553 0.999 . S
H1557 C1538 0.913 . S
H1558 C1576 0.951 . S
H1559 C1578 0.951 . S
H1560 C1580 0.950 . S
H1561 C1581 0.950 . S
H1562 C1583 0.950 . S
H1563 C1586 0.950 . S
H1564 C1587 0.950 . S
H1565 C1589 0.950 . S
H1566 C1590 0.950 . S
H1567 C1591 0.951 1_556 S
H1568 C1593 0.951 . S
H1569 C1595 0.950 . S
H1570 C1596 0.950 . S
H1571 C1598 0.950 . S
H1572 C1601 0.950 . S
H1573 C1602 0.950 . S
H1574 C1604 0.950 . S
H1575 C1605 0.950 . S
C1576 H1558 0.951 . S
C1576 C1577 1.366 . S
C1576 C1578 1.388 . S
C1577 C1576 1.366 . S
C1577 C1581 1.385 . S
C1578 H1559 0.951 . S
C1578 C1576 1.388 . S
C1578 C1579 1.366 . S
C1579 C1578 1.366 . S
C1579 C1580 1.414 . S
C1579 C1582 1.499 . S
C1580 H1560 0.950 . S
C1580 C1579 1.414 . S
C1580 C1581 1.374 . S
C1581 H1561 0.950 . S
C1581 C1577 1.385 . S
C1581 C1580 1.374 . S
C1582 C1579 1.499 . S
C1582 C1583 1.373 . S
C1582 C1584 1.389 . S
C1583 H1562 0.950 . S
C1583 C1582 1.373 . S
C1583 C1599 1.377 . S
C1584 C1582 1.389 . S
C1584 C1585 1.524 . S
C1584 C1598 1.377 . S
C1585 C1584 1.524 . S
C1585 C1586 1.397 . S
C1585 C1590 1.363 . S
C1586 H1563 0.950 . S
C1586 C1585 1.397 . S
C1586 C1587 1.334 . S
C1587 H1564 0.950 . S
C1587 C1586 1.334 . S
C1587 C1588 1.287 . S
C1588 C1587 1.287 . S
C1588 C1589 1.524 . S
C1588 H1607 0.913 . S
C1589 H1565 0.950 . S
C1589 C1588 1.524 . S
C1589 C1590 1.415 . S
C1590 H1566 0.950 . S
C1590 C1585 1.363 . S
C1590 C1589 1.415 . S
C1591 H1567 0.951 1_554 S
C1591 C1592 1.366 . S
C1591 C1593 1.388 . S
C1592 C1591 1.366 . S
C1592 C1596 1.385 . S
C1593 H1568 0.951 . S
C1593 C1591 1.388 . S
C1593 C1594 1.366 . S
C1594 C1593 1.366 . S
C1594 C1595 1.414 . S
C1594 C1597 1.499 . S
C1595 H1569 0.950 . S
C1595 C1594 1.414 . S
C1595 C1596 1.374 . S
C1596 H1570 0.950 . S
C1596 C1592 1.385 . S
C1596 C1595 1.374 . S
C1597 C1594 1.499 . S
C1597 C1598 1.373 . S
C1597 C1599 1.389 . S
C1598 H1571 0.950 . S
C1598 C1584 1.377 . S
C1598 C1597 1.373 . S
C1599 C1583 1.377 . S
C1599 C1597 1.389 . S
C1599 C1600 1.524 1_554 S
C1600 C1599 1.524 1_556 S
C1600 C1601 1.397 . S
C1600 C1605 1.363 . S
C1601 H1572 0.950 . S
C1601 C1600 1.397 . S
C1601 C1602 1.334 . S
C1602 H1573 0.950 . S
C1602 C1601 1.334 . S
C1602 C1603 1.287 . S
C1603 C1602 1.287 . S
C1603 C1604 1.524 . S
C1603 H1606 0.999 . S
C1604 H1574 0.950 . S
C1604 C1603 1.524 . S
C1604 C1605 1.415 . S
C1605 H1575 0.950 . S
C1605 C1600 1.363 . S
C1605 C1604 1.415 . S
H1606 C1603 0.999 . S
H1607 C1588 0.913 . S
H1608 C1626 0.951 . S
H1609 C1628 0.951 . S
H1610 C1630 0.950 . S
H1611 C1631 0.950 . S
H1612 C1633 0.950 . S
H1613 C1636 0.950 . S
H1614 C1637 0.950 . S
H1615 C1639 0.950 . S
H1616 C1640 0.950 . S
H1617 C1641 0.951 . S
H1618 C1643 0.951 . S
H1619 C1645 0.950 . S
H1620 C1646 0.950 . S
H1621 C1648 0.950 . S
H1622 C1651 0.950 . S
H1623 C1652 0.950 . S
H1624 C1654 0.950 . S
H1625 C1655 0.950 . S
C1626 H1608 0.951 . S
C1626 C1627 1.366 . S
C1626 C1628 1.388 . S
C1627 C1626 1.366 . S
C1627 C1631 1.385 . S
C1628 H1609 0.951 . S
C1628 C1626 1.388 . S
C1628 C1629 1.366 . S
C1629 C1628 1.366 . S
C1629 C1630 1.414 . S
C1629 C1632 1.499 . S
C1630 H1610 0.950 . S
C1630 C1629 1.414 . S
C1630 C1631 1.374 . S
C1631 H1611 0.950 . S
C1631 C1627 1.385 . S
C1631 C1630 1.374 . S
C1632 C1629 1.499 . S
C1632 C1633 1.373 . S
C1632 C1634 1.389 . S
C1633 H1612 0.950 . S
C1633 C1632 1.373 . S
C1633 C1649 1.377 . S
C1634 C1632 1.389 . S
C1634 C1635 1.524 . S
C1634 C1648 1.377 . S
C1635 C1634 1.524 . S
C1635 C1636 1.397 . S
C1635 C1640 1.363 . S
C1636 H1613 0.950 . S
C1636 C1635 1.397 . S
C1636 C1637 1.334 1_554 S
C1637 H1614 0.950 . S
C1637 C1636 1.334 1_556 S
C1637 C1638 1.287 . S
C1638 C1637 1.287 . S
C1638 C1639 1.524 1_556 S
C1638 H1657 0.913 . S
C1639 H1615 0.950 . S
C1639 C1638 1.524 1_554 S
C1639 C1640 1.415 . S
C1640 H1616 0.950 . S
C1640 C1635 1.363 . S
C1640 C1639 1.415 . S
C1641 H1617 0.951 . S
C1641 C1642 1.366 . S
C1641 C1643 1.388 . S
C1642 C1641 1.366 . S
C1642 C1646 1.385 . S
C1643 H1618 0.951 . S
C1643 C1641 1.388 . S
C1643 C1644 1.366 . S
C1644 C1643 1.366 . S
C1644 C1645 1.414 . S
C1644 C1647 1.499 . S
C1645 H1619 0.950 . S
C1645 C1644 1.414 . S
C1645 C1646 1.374 . S
C1646 H1620 0.950 . S
C1646 C1642 1.385 . S
C1646 C1645 1.374 . S
C1647 C1644 1.499 . S
C1647 C1648 1.373 . S
C1647 C1649 1.389 . S
C1648 H1621 0.950 . S
C1648 C1634 1.377 . S
C1648 C1647 1.373 . S
C1649 C1633 1.377 . S
C1649 C1647 1.389 . S
C1649 C1650 1.524 . S
C1650 C1649 1.524 . S
C1650 C1651 1.397 . S
C1650 C1655 1.363 . S
C1651 H1622 0.950 . S
C1651 C1650 1.397 . S
C1651 C1652 1.334 . S
C1652 H1623 0.950 . S
C1652 C1651 1.334 . S
C1652 C1653 1.287 . S
C1653 C1652 1.287 . S
C1653 C1654 1.524 . S
C1653 H1656 0.999 . S
C1654 H1624 0.950 . S
C1654 C1653 1.524 . S
C1654 C1655 1.415 . S
C1655 H1625 0.950 . S
C1655 C1650 1.363 . S
C1655 C1654 1.415 . S
H1656 C1653 0.999 . S
H1657 C1638 0.913 . S
H1658 C1676 0.951 . S
H1659 C1678 0.951 . S
H1660 C1680 0.950 . S
H1661 C1681 0.950 . S
H1662 C1683 0.950 . S
H1663 C1686 0.950 . S
H1664 C1687 0.950 . S
H1665 C1689 0.950 . S
H1666 C1690 0.950 . S
H1667 C1691 0.951 . S
H1668 C1693 0.951 . S
H1669 C1695 0.950 . S
H1670 C1696 0.950 . S
H1671 C1698 0.950 . S
H1672 C1701 0.950 . S
H1673 C1702 0.950 . S
H1674 C1704 0.950 . S
H1675 C1705 0.950 . S
C1676 H1658 0.951 . S
C1676 C1677 1.366 . S
C1676 C1678 1.388 . S
C1677 C1676 1.366 . S
C1677 C1681 1.385 . S
C1678 H1659 0.951 . S
C1678 C1676 1.388 . S
C1678 C1679 1.366 . S
C1679 C1678 1.366 . S
C1679 C1680 1.414 . S
C1679 C1682 1.499 . S
C1680 H1660 0.950 . S
C1680 C1679 1.414 . S
C1680 C1681 1.374 . S
C1681 H1661 0.950 . S
C1681 C1677 1.385 . S
C1681 C1680 1.374 . S
C1682 C1679 1.499 . S
C1682 C1683 1.373 . S
C1682 C1684 1.389 . S
C1683 H1662 0.950 . S
C1683 C1682 1.373 . S
C1683 C1699 1.377 1_655 S
C1684 C1682 1.389 . S
C1684 C1685 1.524 . S
C1684 C1698 1.377 1_655 S
C1685 C1684 1.524 . S
C1685 C1686 1.397 . S
C1685 C1690 1.363 . S
C1686 H1663 0.950 . S
C1686 C1685 1.397 . S
C1686 C1687 1.334 . S
C1687 H1664 0.950 . S
C1687 C1686 1.334 . S
C1687 C1688 1.287 . S
C1688 C1687 1.287 . S
C1688 C1689 1.524 . S
C1688 H1707 0.913 . S
C1689 H1665 0.950 . S
C1689 C1688 1.524 . S
C1689 C1690 1.415 . S
C1690 H1666 0.950 . S
C1690 C1685 1.363 . S
C1690 C1689 1.415 . S
C1691 H1667 0.951 . S
C1691 C1692 1.366 . S
C1691 C1693 1.388 . S
C1692 C1691 1.366 . S
C1692 C1696 1.385 . S
C1693 H1668 0.951 . S
C1693 C1691 1.388 . S
C1693 C1694 1.366 . S
C1694 C1693 1.366 . S
C1694 C1695 1.414 . S
C1694 C1697 1.499 . S
C1695 H1669 0.950 . S
C1695 C1694 1.414 . S
C1695 C1696 1.374 . S
C1696 H1670 0.950 . S
C1696 C1692 1.385 . S
C1696 C1695 1.374 . S
C1697 C1694 1.499 . S
C1697 C1698 1.373 . S
C1697 C1699 1.389 . S
C1698 H1671 0.950 . S
C1698 C1684 1.377 1_455 S
C1698 C1697 1.373 . S
C1699 C1683 1.377 1_455 S
C1699 C1697 1.389 . S
C1699 C1700 1.524 . S
C1700 C1699 1.524 . S
C1700 C1701 1.397 . S
C1700 C1705 1.363 . S
C1701 H1672 0.950 . S
C1701 C1700 1.397 . S
C1701 C1702 1.334 . S
C1702 H1673 0.950 . S
C1702 C1701 1.334 . S
C1702 C1703 1.287 . S
C1703 C1702 1.287 . S
C1703 C1704 1.524 . S
C1703 H1706 0.999 . S
C1704 H1674 0.950 . S
C1704 C1703 1.524 . S
C1704 C1705 1.415 . S
C1705 H1675 0.950 . S
C1705 C1700 1.363 . S
C1705 C1704 1.415 . S
H1706 C1703 0.999 . S
H1707 C1688 0.913 . S
H1708 C1726 0.951 . S
H1709 C1728 0.951 . S
H1710 C1730 0.950 . S
H1711 C1731 0.950 . S
H1712 C1733 0.950 . S
H1713 C1736 0.950 . S
H1714 C1737 0.950 . S
H1715 C1739 0.950 . S
H1716 C1740 0.950 . S
H1717 C1741 0.951 . S
H1718 C1743 0.951 . S
H1719 C1745 0.950 . S
H1720 C1746 0.950 . S
H1721 C1748 0.950 . S
H1722 C1751 0.950 . S
H1723 C1752 0.950 . S
H1724 C1754 0.950 . S
H1725 C1755 0.950 . S
C1726 H1708 0.951 . S
C1726 C1727 1.366 . S
C1726 C1728 1.388 . S
C1727 C1726 1.366 . S
C1727 C1731 1.385 . S
C1728 H1709 0.951 . S
C1728 C1726 1.388 . S
C1728 C1729 1.366 . S
C1729 C1728 1.366 . S
C1729 C1730 1.414 . S
C1729 C1732 1.499 . S
C1730 H1710 0.950 . S
C1730 C1729 1.414 . S
C1730 C1731 1.374 . S
C1731 H1711 0.950 . S
C1731 C1727 1.385 . S
C1731 C1730 1.374 . S
C1732 C1729 1.499 . S
C1732 C1733 1.373 . S
C1732 C1734 1.389 . S
C1733 H1712 0.950 . S
C1733 C1732 1.373 . S
C1733 C1749 1.377 1_545 S
C1734 C1732 1.389 . S
C1734 C1735 1.524 . S
C1734 C1748 1.377 1_545 S
C1735 C1734 1.524 . S
C1735 C1736 1.397 . S
C1735 C1740 1.363 . S
C1736 H1713 0.950 . S
C1736 C1735 1.397 . S
C1736 C1737 1.334 . S
C1737 H1714 0.950 . S
C1737 C1736 1.334 . S
C1737 C1738 1.287 . S
C1738 C1737 1.287 . S
C1738 C1739 1.524 . S
C1738 H1757 0.913 . S
C1739 H1715 0.950 . S
C1739 C1738 1.524 . S
C1739 C1740 1.415 . S
C1740 H1716 0.950 . S
C1740 C1735 1.363 . S
C1740 C1739 1.415 . S
C1741 H1717 0.951 . S
C1741 C1742 1.366 . S
C1741 C1743 1.388 . S
C1742 C1741 1.366 . S
C1742 C1746 1.385 . S
C1743 H1718 0.951 . S
C1743 C1741 1.388 . S
C1743 C1744 1.366 . S
C1744 C1743 1.366 . S
C1744 C1745 1.414 . S
C1744 C1747 1.499 . S
C1745 H1719 0.950 . S
C1745 C1744 1.414 . S
C1745 C1746 1.374 . S
C1746 H1720 0.950 . S
C1746 C1742 1.385 . S
C1746 C1745 1.374 . S
C1747 C1744 1.499 . S
C1747 C1748 1.373 . S
C1747 C1749 1.389 . S
C1748 H1721 0.950 . S
C1748 C1734 1.377 1_565 S
C1748 C1747 1.373 . S
C1749 C1733 1.377 1_565 S
C1749 C1747 1.389 . S
C1749 C1750 1.524 . S
C1750 C1749 1.524 . S
C1750 C1751 1.397 . S
C1750 C1755 1.363 . S
C1751 H1722 0.950 . S
C1751 C1750 1.397 . S
C1751 C1752 1.334 . S
C1752 H1723 0.950 . S
C1752 C1751 1.334 . S
C1752 C1753 1.287 . S
C1753 C1752 1.287 . S
C1753 C1754 1.524 . S
C1753 H1756 0.999 . S
C1754 H1724 0.950 . S
C1754 C1753 1.524 . S
C1754 C1755 1.415 . S
C1755 H1725 0.950 . S
C1755 C1750 1.363 . S
C1755 C1754 1.415 . S
H1756 C1753 0.999 . S
H1757 C1738 0.913 . S
H1758 C1776 0.951 . S
H1759 C1778 0.951 . S
H1760 C1780 0.950 . S
H1761 C1781 0.950 . S
H1762 C1783 0.950 . S
H1763 C1786 0.950 . S
H1764 C1787 0.950 . S
H1765 C1789 0.950 . S
H1766 C1790 0.950 . S
H1767 C1791 0.951 . S
H1768 C1793 0.951 . S
H1769 C1795 0.950 . S
H1770 C1796 0.950 . S
H1771 C1798 0.950 . S
H1772 C1801 0.950 . S
H1773 C1802 0.950 . S
H1774 C1804 0.950 . S
H1775 C1805 0.950 . S
C1776 H1758 0.951 . S
C1776 C1777 1.366 . S
C1776 C1778 1.388 . S
C1777 C1776 1.366 . S
C1777 C1781 1.385 . S
C1778 H1759 0.951 . S
C1778 C1776 1.388 . S
C1778 C1779 1.366 . S
C1779 C1778 1.366 . S
C1779 C1780 1.414 . S
C1779 C1782 1.499 . S
C1780 H1760 0.950 . S
C1780 C1779 1.414 . S
C1780 C1781 1.374 . S
C1781 H1761 0.950 . S
C1781 C1777 1.385 . S
C1781 C1780 1.374 . S
C1782 C1779 1.499 . S
C1782 C1783 1.373 . S
C1782 C1784 1.389 . S
C1783 H1762 0.950 . S
C1783 C1782 1.373 . S
C1783 C1799 1.377 . S
C1784 C1782 1.389 . S
C1784 C1785 1.524 . S
C1784 C1798 1.377 . S
C1785 C1784 1.524 . S
C1785 C1786 1.397 . S
C1785 C1790 1.363 . S
C1786 H1763 0.950 . S
C1786 C1785 1.397 . S
C1786 C1787 1.334 . S
C1787 H1764 0.950 . S
C1787 C1786 1.334 . S
C1787 C1788 1.287 . S
C1788 C1787 1.287 . S
C1788 C1789 1.524 . S
C1788 H1807 0.913 . S
C1789 H1765 0.950 . S
C1789 C1788 1.524 . S
C1789 C1790 1.415 . S
C1790 H1766 0.950 . S
C1790 C1785 1.363 . S
C1790 C1789 1.415 . S
C1791 H1767 0.951 . S
C1791 C1792 1.366 . S
C1791 C1793 1.388 . S
C1792 C1791 1.366 . S
C1792 C1796 1.385 . S
C1793 H1768 0.951 . S
C1793 C1791 1.388 . S
C1793 C1794 1.366 . S
C1794 C1793 1.366 . S
C1794 C1795 1.414 . S
C1794 C1797 1.499 . S
C1795 H1769 0.950 . S
C1795 C1794 1.414 . S
C1795 C1796 1.374 . S
C1796 H1770 0.950 . S
C1796 C1792 1.385 . S
C1796 C1795 1.374 . S
C1797 C1794 1.499 . S
C1797 C1798 1.373 . S
C1797 C1799 1.389 . S
C1798 H1771 0.950 . S
C1798 C1784 1.377 . S
C1798 C1797 1.373 . S
C1799 C1783 1.377 . S
C1799 C1797 1.389 . S
C1799 C1800 1.524 . S
C1800 C1799 1.524 . S
C1800 C1801 1.397 . S
C1800 C1805 1.363 . S
C1801 H1772 0.950 . S
C1801 C1800 1.397 . S
C1801 C1802 1.334 . S
C1802 H1773 0.950 . S
C1802 C1801 1.334 . S
C1802 C1803 1.287 . S
C1803 C1802 1.287 . S
C1803 C1804 1.524 . S
C1803 H1806 0.999 . S
C1804 H1774 0.950 . S
C1804 C1803 1.524 . S
C1804 C1805 1.415 . S
C1805 H1775 0.950 . S
C1805 C1800 1.363 . S
C1805 C1804 1.415 . S
H1806 C1803 0.999 . S
H1807 C1788 0.913 . S
H1808 C1826 0.951 . S
H1809 C1828 0.951 . S
H1810 C1830 0.950 . S
H1811 C1831 0.950 . S
H1812 C1833 0.950 . S
H1813 C1836 0.950 . S
H1814 C1837 0.950 . S
H1815 C1839 0.950 . S
H1816 C1840 0.950 . S
H1817 C1841 0.951 . S
H1818 C1843 0.951 . S
H1819 C1845 0.950 . S
H1820 C1846 0.950 . S
H1821 C1848 0.950 . S
H1822 C1851 0.950 . S
H1823 C1852 0.950 . S
H1824 C1854 0.950 . S
H1825 C1855 0.950 . S
C1826 H1808 0.951 . S
C1826 C1827 1.366 . S
C1826 C1828 1.388 . S
C1827 C1826 1.366 . S
C1827 C1831 1.385 . S
C1828 H1809 0.951 . S
C1828 C1826 1.388 . S
C1828 C1829 1.366 . S
C1829 C1828 1.366 . S
C1829 C1830 1.414 . S
C1829 C1832 1.499 . S
C1830 H1810 0.950 . S
C1830 C1829 1.414 . S
C1830 C1831 1.374 . S
C1831 H1811 0.950 . S
C1831 C1827 1.385 . S
C1831 C1830 1.374 . S
C1832 C1829 1.499 . S
C1832 C1833 1.373 . S
C1832 C1834 1.389 . S
C1833 H1812 0.950 . S
C1833 C1832 1.373 . S
C1833 C1849 1.377 1_455 S
C1834 C1832 1.389 . S
C1834 C1835 1.524 . S
C1834 C1848 1.377 1_455 S
C1835 C1834 1.524 . S
C1835 C1836 1.397 . S
C1835 C1840 1.363 . S
C1836 H1813 0.950 . S
C1836 C1835 1.397 . S
C1836 C1837 1.334 . S
C1837 H1814 0.950 . S
C1837 C1836 1.334 . S
C1837 C1838 1.287 . S
C1838 C1837 1.287 . S
C1838 C1839 1.524 . S
C1838 H1857 0.913 . S
C1839 H1815 0.950 . S
C1839 C1838 1.524 . S
C1839 C1840 1.415 . S
C1840 H1816 0.950 . S
C1840 C1835 1.363 . S
C1840 C1839 1.415 . S
C1841 H1817 0.951 . S
C1841 C1842 1.366 . S
C1841 C1843 1.388 . S
C1842 C1841 1.366 . S
C1842 C1846 1.385 . S
C1843 H1818 0.951 . S
C1843 C1841 1.388 . S
C1843 C1844 1.366 . S
C1844 C1843 1.366 . S
C1844 C1845 1.414 . S
C1844 C1847 1.499 . S
C1845 H1819 0.950 . S
C1845 C1844 1.414 . S
C1845 C1846 1.374 . S
C1846 H1820 0.950 . S
C1846 C1842 1.385 . S
C1846 C1845 1.374 . S
C1847 C1844 1.499 . S
C1847 C1848 1.373 . S
C1847 C1849 1.389 . S
C1848 H1821 0.950 . S
C1848 C1834 1.377 1_655 S
C1848 C1847 1.373 . S
C1849 C1833 1.377 1_655 S
C1849 C1847 1.389 . S
C1849 C1850 1.524 . S
C1850 C1849 1.524 . S
C1850 C1851 1.397 . S
C1850 C1855 1.363 . S
C1851 H1822 0.950 . S
C1851 C1850 1.397 . S
C1851 C1852 1.334 1_556 S
C1852 H1823 0.950 . S
C1852 C1851 1.334 1_554 S
C1852 C1853 1.287 . S
C1853 C1852 1.287 . S
C1853 C1854 1.524 . S
C1853 H1856 0.999 . S
C1854 H1824 0.950 . S
C1854 C1853 1.524 . S
C1854 C1855 1.415 1_554 S
C1855 H1825 0.950 . S
C1855 C1850 1.363 . S
C1855 C1854 1.415 1_556 S
H1856 C1853 0.999 . S
H1857 C1838 0.913 . S
H1858 C1876 0.951 . S
H1859 C1878 0.951 . S
H1860 C1880 0.950 . S
H1861 C1881 0.950 . S
H1862 C1883 0.950 . S
H1863 C1886 0.950 . S
H1864 C1887 0.950 . S
H1865 C1889 0.950 . S
H1866 C1890 0.950 . S
H1867 C1891 0.951 . S
H1868 C1893 0.951 . S
H1869 C1895 0.950 . S
H1870 C1896 0.950 . S
H1871 C1898 0.950 . S
H1872 C1901 0.950 . S
H1873 C1902 0.950 . S
H1874 C1904 0.950 . S
H1875 C1905 0.950 . S
C1876 H1858 0.951 . S
C1876 C1877 1.366 . S
C1876 C1878 1.388 1_556 S
C1877 C1876 1.366 . S
C1877 C1881 1.385 . S
C1878 H1859 0.951 . S
C1878 C1876 1.388 1_554 S
C1878 C1879 1.366 . S
C1879 C1878 1.366 . S
C1879 C1880 1.414 . S
C1879 C1882 1.499 . S
C1880 H1860 0.950 . S
C1880 C1879 1.414 . S
C1880 C1881 1.374 1_554 S
C1881 H1861 0.950 . S
C1881 C1877 1.385 . S
C1881 C1880 1.374 1_556 S
C1882 C1879 1.499 . S
C1882 C1883 1.373 1_554 S
C1882 C1884 1.389 . S
C1883 H1862 0.950 . S
C1883 C1882 1.373 1_556 S
C1883 C1899 1.377 1_545 S
C1884 C1882 1.389 . S
C1884 C1885 1.524 . S
C1884 C1898 1.377 1_545 S
C1885 C1884 1.524 . S
C1885 C1886 1.397 . S
C1885 C1890 1.363 . S
C1886 H1863 0.950 . S
C1886 C1885 1.397 . S
C1886 C1887 1.334 . S
C1887 H1864 0.950 . S
C1887 C1886 1.334 . S
C1887 C1888 1.287 . S
C1888 C1887 1.287 . S
C1888 C1889 1.524 . S
C1888 H1907 0.913 . S
C1889 H1865 0.950 . S
C1889 C1888 1.524 . S
C1889 C1890 1.415 . S
C1890 H1866 0.950 . S
C1890 C1885 1.363 . S
C1890 C1889 1.415 . S
C1891 H1867 0.951 . S
C1891 C1892 1.366 . S
C1891 C1893 1.388 . S
C1892 C1891 1.366 . S
C1892 C1896 1.385 . S
C1893 H1868 0.951 . S
C1893 C1891 1.388 . S
C1893 C1894 1.366 . S
C1894 C1893 1.366 . S
C1894 C1895 1.414 . S
C1894 C1897 1.499 . S
C1895 H1869 0.950 . S
C1895 C1894 1.414 . S
C1895 C1896 1.374 . S
C1896 H1870 0.950 . S
C1896 C1892 1.385 . S
C1896 C1895 1.374 . S
C1897 C1894 1.499 . S
C1897 C1898 1.373 . S
C1897 C1899 1.389 1_554 S
C1898 H1871 0.950 . S
C1898 C1884 1.377 1_565 S
C1898 C1897 1.373 . S
C1899 C1883 1.377 1_565 S
C1899 C1897 1.389 1_556 S
C1899 C1900 1.524 . S
C1900 C1899 1.524 . S
C1900 C1901 1.397 . S
C1900 C1905 1.363 . S
C1901 H1872 0.950 . S
C1901 C1900 1.397 . S
C1901 C1902 1.334 . S
C1902 H1873 0.950 . S
C1902 C1901 1.334 . S
C1902 C1903 1.287 . S
C1903 C1902 1.287 . S
C1903 C1904 1.524 . S
C1903 H1906 0.999 . S
C1904 H1874 0.950 . S
C1904 C1903 1.524 . S
C1904 C1905 1.415 . S
C1905 H1875 0.950 . S
C1905 C1900 1.363 . S
C1905 C1904 1.415 . S
H1906 C1903 0.999 . S
H1907 C1888 0.913 . S
C427 C9 0.883 . S
C442 C5 0.890 . S
C477 C39 0.890 . S
C492 C43 0.883 . S
C527 C73 0.890 . S
C542 C77 0.883 . S
C577 C111 0.882 . S
C592 C107 0.889 . S
C627 C145 0.882 . S
C642 C141 0.890 . S
C677 C175 0.890 . S
C692 C179 0.883 . S
C727 C213 0.883 . S
C742 C209 0.890 . S
C777 C247 0.882 . S
C792 C243 0.890 . S
C827 C277 0.890 . S
C842 C281 0.883 . S
C877 C315 0.882 . S
C892 C311 0.890 . S
C927 C349 0.883 . S
C942 C345 0.890 . S
C977 C379 0.890 . S
C992 C383 0.882 . S
C1027 C237 1.564 . S
C1042 C33 1.564 . S
C1077 C67 1.563 . S
C1092 C271 1.563 . S
C1127 C305 1.563 . S
C1142 C101 1.563 . S
C1177 C339 1.563 . S
C1192 C135 1.563 . S
C1227 C373 1.563 . S
C1242 C169 1.564 . S
C1277 C407 1.563 . S
C1292 C203 1.563 . S
C1327 C20 1.546 . S
C1342 C360 1.547 . S
C1377 C54 1.546 . S
C1392 C394 1.546 . S
C1427 C88 1.546 . S
C1442 C224 1.546 . S
C1477 C258 1.546 . S
C1492 C122 1.546 . S
C1527 C292 1.546 . S
C1542 C156 1.546 . S
C1577 C326 1.546 . S
C1592 C190 1.546 . S
C1627 C2 1.553 . S
C1642 C308 1.553 . S
C1677 C36 1.553 . S
C1692 C342 1.553 . S
C1727 C376 1.553 . S
C1742 C70 1.553 . S
C1777 C104 1.553 . S
C1792 C206 1.553 . S
C1827 C138 1.553 . S
C1842 C240 1.553 . S
C1877 C172 1.553 . S
C1892 C274 1.553 . S
