# Generated by pormake.
# Topology wlk, (5)-cn, num edge types: 1
# Building blocks:
#     Node 0, Type 0, BuildingBlock: XOMCOT_clean_sbu_1, # of connection points: 5
#     Node 1, Type 0, BuildingBlock: XOMCOT_clean_sbu_1, # of connection points: 5
#     Node 2, Type 0, BuildingBlock: XOMCOT_clean_sbu_1, # of connection points: 5
#     Node 3, Type 0, BuildingBlock: XOMCOT_clean_sbu_1, # of connection points: 5
#     Node 4, Type 0, BuildingBlock: XOMCOT_clean_sbu_1, # of connection points: 5
#     Node 5, Type 0, BuildingBlock: XOMCOT_clean_sbu_1, # of connection points: 5
#     Node 6, Type 0, BuildingBlock: XOMCOT_clean_sbu_1, # of connection points: 5
#     Node 7, Type 0, BuildingBlock: XOMCOT_clean_sbu_1, # of connection points: 5
#     Node 8, Type 0, BuildingBlock: XOMCOT_clean_sbu_1, # of connection points: 5
#     Node 9, Type 0, BuildingBlock: XOMCOT_clean_sbu_1, # of connection points: 5
#     Node 10, Type 0, BuildingBlock: XOMCOT_clean_sbu_1, # of connection points: 5
#     Node 11, Type 0, BuildingBlock: XOMCOT_clean_sbu_1, # of connection points: 5
#     Node 12, Type 0, BuildingBlock: XOMCOT_clean_sbu_1, # of connection points: 5
#     Node 13, Type 0, BuildingBlock: XOMCOT_clean_sbu_1, # of connection points: 5
#     Node 14, Type 0, BuildingBlock: XOMCOT_clean_sbu_1, # of connection points: 5
#     Node 15, Type 0, BuildingBlock: XOMCOT_clean_sbu_1, # of connection points: 5
#     Node 16, Type 0, BuildingBlock: XOMCOT_clean_sbu_1, # of connection points: 5
#     Node 17, Type 0, BuildingBlock: XOMCOT_clean_sbu_1, # of connection points: 5
#     Edge 18, Type (0, 0), None
#     Edge 19, Type (0, 0), None
#     Edge 20, Type (0, 0), None
#     Edge 21, Type (0, 0), None
#     Edge 22, Type (0, 0), None
#     Edge 23, Type (0, 0), None
#     Edge 24, Type (0, 0), None
#     Edge 25, Type (0, 0), None
#     Edge 26, Type (0, 0), None
#     Edge 27, Type (0, 0), None
#     Edge 28, Type (0, 0), None
#     Edge 29, Type (0, 0), None
#     Edge 30, Type (0, 0), None
#     Edge 31, Type (0, 0), None
#     Edge 32, Type (0, 0), None
#     Edge 33, Type (0, 0), None
#     Edge 34, Type (0, 0), None
#     Edge 35, Type (0, 0), None
#     Edge 36, Type (0, 0), None
#     Edge 37, Type (0, 0), None
#     Edge 38, Type (0, 0), None
#     Edge 39, Type (0, 0), None
#     Edge 40, Type (0, 0), None
#     Edge 41, Type (0, 0), None
#     Edge 42, Type (0, 0), None
#     Edge 43, Type (0, 0), None
#     Edge 44, Type (0, 0), None
#     Edge 45, Type (0, 0), None
#     Edge 46, Type (0, 0), None
#     Edge 47, Type (0, 0), None
#     Edge 48, Type (0, 0), None
#     Edge 49, Type (0, 0), None
#     Edge 50, Type (0, 0), None
#     Edge 51, Type (0, 0), None
#     Edge 52, Type (0, 0), None
#     Edge 53, Type (0, 0), None
#     Edge 54, Type (0, 0), None
#     Edge 55, Type (0, 0), None
#     Edge 56, Type (0, 0), None
#     Edge 57, Type (0, 0), None
#     Edge 58, Type (0, 0), None
#     Edge 59, Type (0, 0), None
#     Edge 60, Type (0, 0), None
#     Edge 61, Type (0, 0), None
#     Edge 62, Type (0, 0), None
# Relax obj value: 0.160
# Max RMSD: 0.226
# Mean RMSD: 0.226
data_MOF--net-wlk--node1-XOMCOT_clean_sbu_1--edge1-none
_symmetry_space_group_name_H-M    P1
_symmetry_Int_Tables_number       1
_symmetry_cell_setting            triclinic
loop_
_symmetry_equiv_pos_as_xyz
'x, y, z'
_cell_length_a     31.929108
_cell_length_b     31.929211
_cell_length_c     14.004541
_cell_angle_alpha  90.008638
_cell_angle_beta   89.984272
_cell_angle_gamma 120.00037
loop_
_atom_site_label
_atom_site_type_symbol
_atom_site_fract_x
_atom_site_fract_y
_atom_site_fract_z
_atom_type_partial_charge
C0 C 0.24472 0.25195 0.90345 0.0
C1 C 0.24831 0.21116 0.88528 0.0
N2 N 0.24269 0.18804 0.96861 0.0
N3 N 0.23698 0.25443 0.99808 0.0
C4 C 0.23307 0.21332 1.03353 0.0
H5 H 0.25036 0.27896 0.85087 0.0
Co6 Co 0.23545 0.30117 0.08367 0.0
C7 C 0.3157 0.28885 0.15427 0.0
O8 O 0.32963 0.29186 0.06495 0.0
N9 N 0.23353 0.34414 0.17231 0.0
C10 C 0.23133 0.40385 0.25031 0.0
C11 C 0.23378 0.38625 0.16123 0.0
C12 C 0.23037 0.33658 0.26798 0.0
N13 N 0.2293 0.37237 0.31691 0.0
O14 O 0.17571 0.251 0.13825 0.0
H15 H 0.23557 0.40301 0.09307 0.0
H16 H 0.22852 0.30509 0.30102 0.0
O17 O 0.27793 0.29154 0.17402 0.0
C18 C 0.14252 0.23943 0.07532 0.0
O19 O 0.15563 0.2537 0.9868 0.0
N20 N 0.28828 0.35284 1.02144 0.0
C21 C 0.35351 0.42288 0.89603 0.0
C22 C 0.36802 0.41942 0.98909 0.0
C23 C 0.33425 0.38436 0.05197 0.0
C24 C 0.27271 0.36028 0.93618 0.0
C25 C 0.30478 0.39398 0.87144 0.0
H26 H 0.34531 0.38214 0.12381 0.0
H27 H 0.2351 0.33815 0.91663 0.0
H28 H 0.2281 0.2046 0.10894 0.0
H29 H 0.25964 0.2026 0.81873 0.0
H30 H 0.23094 0.43695 0.26449 0.0
H31 H 0.40514 0.44225 1.01179 0.0
H32 H 0.29159 0.3966 0.80168 0.0
C33 C 0.84999 1.0131 0.9034 0.0
C34 C 0.89078 0.05747 0.88521 0.0
N35 N 0.9139 0.07499 0.96854 0.0
N36 N 0.8475 1.00289 0.99803 0.0
C37 C 0.88861 1.0401 1.03347 0.0
H38 H 0.82299 0.99172 0.85083 0.0
Co39 Co 0.80077 0.95464 0.08364 0.0
C40 C 0.81308 0.04722 0.15425 0.0
O41 O 0.81007 0.05812 0.06493 0.0
N42 N 0.75779 0.90976 0.1723 0.0
C43 C 0.69811 0.84784 0.25032 0.0
C44 C 0.71569 0.86789 0.16125 0.0
C45 C 0.76537 0.91417 0.26796 0.0
N46 N 0.7296 0.8773 0.31691 0.0
O47 O 0.85094 0.94509 0.13822 0.0
H48 H 0.69893 0.85291 0.09309 0.0
H49 H 0.79687 0.94381 0.30098 0.0
O50 O 0.81039 1.00676 0.17398 0.0
C51 C 0.86253 0.92348 0.0753 0.0
O52 O 0.84829 0.9223 0.98677 0.0
N53 N 0.74909 0.95579 1.02142 0.0
C54 C 0.67908 0.95099 0.89601 0.0
C55 C 0.68252 0.96895 0.98908 0.0
C56 C 0.71757 0.97024 0.05196 0.0
C57 C 0.74166 0.93277 0.93615 0.0
C58 C 0.70797 0.93114 0.87141 0.0
H59 H 0.71978 0.98353 0.1238 0.0
H60 H 0.76379 0.91729 0.91659 0.0
H61 H 0.89733 0.04387 0.10887 0.0
H62 H 0.89936 0.07735 0.81865 0.0
H63 H 0.66501 0.81434 0.26452 0.0
H64 H 0.6597 0.98325 1.01179 0.0
H65 H 0.70536 0.91534 0.80164 0.0
C66 C 0.08891 0.85732 0.90347 0.0
C67 C 1.04454 0.85373 0.88529 0.0
N68 N 1.027 0.8593 0.96863 0.0
N69 N 0.09909 0.86502 0.99812 0.0
C70 C 0.06187 0.8689 1.03357 0.0
H71 H 0.11031 0.85171 0.85089 0.0
Co72 Co 0.14734 0.86653 0.0837 0.0
C73 C 1.05476 0.78627 0.1543 0.0
O74 O 1.04386 0.77236 0.06497 0.0
N75 N 0.19222 0.86844 0.17234 0.0
C76 C 0.25414 0.87066 0.25028 0.0
C77 C 0.23409 0.8682 0.16123 0.0
C78 C 0.18781 0.87159 0.268 0.0
N79 N 0.22468 0.87267 0.31691 0.0
O80 O 0.1569 0.92625 0.13831 0.0
H81 H 0.24907 0.86643 0.09305 0.0
H82 H 0.15816 0.87343 0.30107 0.0
O83 O 0.09522 0.82403 0.17405 0.0
C84 C 0.17853 0.95945 0.07539 0.0
O85 O 0.17972 0.94637 0.98686 0.0
N86 N 0.14619 0.8137 1.02145 0.0
C87 C 0.15096 0.74847 0.89599 0.0
C88 C 0.133 0.73396 0.98908 0.0
C89 C 0.13173 0.76773 0.05198 0.0
C90 C 0.16921 0.82928 0.93617 0.0
C91 C 0.17081 0.7972 0.87141 0.0
H92 H 0.11845 0.75666 0.12383 0.0
H93 H 0.18469 0.86689 0.91662 0.0
H94 H 1.05809 0.87384 0.10898 0.0
H95 H 1.02467 0.84243 0.81872 0.0
H96 H 0.28764 0.87106 0.26444 0.0
H97 H 0.1187 0.69684 1.01178 0.0
H98 H 0.18661 0.81039 0.80163 0.0
C99 C 0.87776 0.82965 0.16422 0.0
C100 C 0.87412 0.87041 0.18237 0.0
N101 N 0.8796 0.89343 0.09897 0.0
N102 N 0.88543 0.82712 0.06956 0.0
C103 C 0.88926 0.86818 0.03406 0.0
H104 H 0.87222 0.80269 0.21684 0.0
Co105 Co 0.88695 0.78037 0.98398 0.0
C106 C 0.80667 0.79266 0.9134 0.0
O107 O 0.79274 0.78963 1.00273 0.0
N108 N 0.88886 0.73739 0.89534 0.0
C109 C 0.89105 0.67768 0.81735 0.0
C110 C 0.88861 0.69529 0.90642 0.0
C111 C 0.89201 0.74495 0.79968 0.0
N112 N 0.89309 0.70916 0.75075 0.0
O113 O 0.94666 0.83054 0.92937 0.0
H114 H 0.88682 0.67853 0.97459 0.0
H115 H 0.89386 0.77644 0.76664 0.0
O116 O 0.84444 0.78998 0.89364 0.0
C117 C 0.97985 0.84209 0.99229 0.0
O118 O 0.96676 0.82775 0.08079 0.0
N119 N 0.83412 0.7287 0.04623 0.0
C120 C 0.76886 0.6587 0.17165 0.0
C121 C 0.75438 0.66213 0.07855 0.0
C122 C 0.78815 0.69716 1.01567 0.0
C123 C 0.84967 0.72128 0.13154 0.0
C124 C 0.81759 0.6876 0.19628 0.0
H125 H 0.77711 0.69937 0.94381 0.0
H126 H 0.88728 0.74342 0.15111 0.0
H127 H 0.89421 0.87689 0.95865 0.0
H128 H 0.86287 0.87904 0.24896 0.0
H129 H 0.89144 0.64458 0.80317 0.0
H130 H 0.71726 0.63929 0.05583 0.0
H131 H 0.83076 0.685 0.26606 0.0
C132 C 0.27236 0.06852 0.16427 0.0
C133 C 0.23159 1.02413 0.18244 0.0
N134 N 0.20858 1.00657 0.09904 0.0
N135 N 0.2749 0.0787 0.06961 0.0
C136 C 0.23384 0.04146 0.03412 0.0
H137 H 0.29931 0.08995 0.21689 0.0
Co138 Co 0.32165 0.12695 0.98401 0.0
C139 C 0.30936 1.03438 0.91342 0.0
O140 O 0.31239 1.02349 1.00275 0.0
N141 N 0.36463 0.17184 0.89535 0.0
C142 C 0.42431 0.23375 0.81733 0.0
C143 C 0.40673 0.2137 0.90641 0.0
C144 C 0.35705 0.16742 0.7997 0.0
N145 N 0.39283 0.20429 0.75075 0.0
O146 O 0.27148 0.13648 0.9294 0.0
H147 H 0.42349 0.22868 0.97457 0.0
H148 H 0.32556 0.13778 0.76667 0.0
O149 O 0.31204 0.07483 0.89368 0.0
C150 C 0.2599 0.15812 0.9923 0.0
O151 O 0.27421 0.15938 0.08082 0.0
N152 N 0.37332 0.12581 0.04625 0.0
C153 C 0.4433 0.13055 0.17168 0.0
C154 C 0.43989 0.11263 0.07857 0.0
C155 C 0.40486 0.11138 1.01568 0.0
C156 C 0.38073 0.14879 0.13157 0.0
C157 C 0.41441 0.15038 0.19631 0.0
H158 H 0.40266 0.09812 0.94382 0.0
H159 H 0.3586 0.16426 0.15114 0.0
H160 H 0.22513 1.03769 0.95871 0.0
H161 H 0.22297 1.00427 0.24903 0.0
H162 H 0.45741 0.26725 0.80314 0.0
H163 H 0.46272 0.09835 0.05583 0.0
H164 H 0.41699 0.16616 0.2661 0.0
C165 C 1.03343 0.22416 0.16419 0.0
C166 C 0.07782 0.22779 0.18236 0.0
N167 N 0.0954 0.22236 0.09895 0.0
N168 N 1.02327 0.21653 0.06952 0.0
C169 C 1.06052 0.21272 0.03402 0.0
H170 H 1.01198 0.22966 0.21683 0.0
Co171 Co 0.97502 0.21503 0.98395 0.0
C172 C 0.06759 0.29532 0.91337 0.0
O173 O 0.07848 0.30923 1.0027 0.0
N174 N 0.93014 0.21313 0.89532 0.0
C175 C 0.86823 0.21091 0.81737 0.0
C176 C 0.88827 0.21336 0.90643 0.0
C177 C 0.93455 0.20998 0.79965 0.0
N178 N 0.89769 0.2089 0.75075 0.0
O179 O 0.96548 0.15533 0.92931 0.0
H180 H 0.87329 0.21513 0.97461 0.0
H181 H 0.9642 0.20815 0.76659 0.0
O182 O 1.02715 0.25754 0.89361 0.0
C183 C 0.94382 0.12212 0.99222 0.0
O184 O 0.94256 0.13519 0.08072 0.0
N185 N 0.97617 0.26785 0.04622 0.0
C186 C 0.97146 0.33311 0.17169 0.0
C187 C 0.98936 0.3476 0.07857 0.0
C188 C 0.9906 0.31382 1.01566 0.0
C189 C 0.95319 0.25229 0.13155 0.0
C190 C 0.95161 0.28439 0.19631 0.0
H191 H 1.00385 0.32487 0.94379 0.0
H192 H 0.93771 0.21469 0.15112 0.0
H193 H 0.06431 0.2078 0.95861 0.0
H194 H 0.09766 0.23901 0.24896 0.0
H195 H 0.83472 0.2105 0.80322 0.0
H196 H 1.00365 0.38472 0.05584 0.0
H197 H 0.93584 0.27121 0.26612 0.0
C198 C 0.91138 0.58528 0.23678 0.0
C199 C 0.91498 0.5445 0.21861 0.0
N200 N 0.90936 0.52138 0.30195 0.0
N201 N 0.90364 0.58777 0.33142 0.0
C202 C 0.89974 0.54666 0.36687 0.0
H203 H 0.91702 0.61229 0.18421 0.0
Co204 Co 0.90211 0.6345 0.417 0.0
C205 C 0.98237 0.62218 0.48761 0.0
O206 O 0.99629 0.62519 0.39828 0.0
N207 N 0.90019 0.67747 0.50565 0.0
C208 C 0.898 0.73718 0.58364 0.0
C209 C 0.90045 0.71958 0.49457 0.0
C210 C 0.89703 0.66991 0.60131 0.0
N211 N 0.89596 0.7057 0.65024 0.0
O212 O 0.84238 0.58433 0.47159 0.0
H213 H 0.90224 0.73634 0.42641 0.0
H214 H 0.89518 0.63842 0.63435 0.0
O215 O 0.9446 0.62487 0.50735 0.0
C216 C 0.80919 0.57276 0.40865 0.0
O217 O 0.82229 0.58704 0.32013 0.0
N218 N 0.95495 0.68617 0.35477 0.0
C219 C 1.02017 0.75621 0.22936 0.0
C220 C 1.03468 0.75275 0.32243 0.0
C221 C 1.00092 0.7177 0.38531 0.0
C222 C 0.93937 0.69361 0.26951 0.0
C223 C 0.97144 0.72732 0.20477 0.0
H224 H 1.01198 0.71548 0.45714 0.0
H225 H 0.90177 0.67148 0.24996 0.0
H226 H 0.89477 0.53793 0.44227 0.0
H227 H 0.92631 0.53593 0.15206 0.0
H228 H 0.89761 0.77029 0.59782 0.0
H229 H 0.0718 0.77558 0.34512 0.0
H230 H 0.95825 0.72993 0.13501 0.0
C231 C 0.51666 0.34643 0.23673 0.0
C232 C 0.55745 0.3908 0.21855 0.0
N233 N 0.58056 0.40832 0.30187 0.0
N234 N 0.51417 0.33622 0.33137 0.0
C235 C 0.55528 0.37344 0.36681 0.0
H236 H 0.48966 0.32505 0.18416 0.0
Co237 Co 0.46743 0.28797 0.41697 0.0
C238 C 0.47975 0.38055 0.48758 0.0
O239 O 0.47674 0.39145 0.39826 0.0
N240 N 0.42446 0.24309 0.50564 0.0
C241 C 0.36477 0.18118 0.58366 0.0
C242 C 0.38236 0.20122 0.49458 0.0
C243 C 0.43204 0.2475 0.60129 0.0
N244 N 0.39627 0.21063 0.65024 0.0
O245 O 0.5176 0.27843 0.47156 0.0
H246 H 0.36559 0.18625 0.42643 0.0
H247 H 0.46353 0.27714 0.63432 0.0
O248 O 0.47705 0.34009 0.50732 0.0
C249 C 0.5292 0.25681 0.40864 0.0
O250 O 0.51496 0.25563 0.3201 0.0
N251 N 0.41576 0.28912 0.35476 0.0
C252 C 0.34575 0.28432 0.22934 0.0
C253 C 0.34919 0.30229 0.32241 0.0
C254 C 0.38423 0.30357 0.38529 0.0
C255 C 0.40833 0.2661 0.26948 0.0
C256 C 0.37464 0.26448 0.20475 0.0
H257 H 0.38645 0.31686 0.45713 0.0
H258 H 0.43046 0.25062 0.24993 0.0
H259 H 0.564 0.3772 0.44221 0.0
H260 H 0.56602 0.41069 0.15199 0.0
H261 H 0.33168 0.14767 0.59786 0.0
H262 H 0.32636 0.31658 0.34512 0.0
H263 H 0.37203 0.24867 0.13498 0.0
C264 C 0.75557 0.19065 0.23681 0.0
C265 C 0.71121 0.18706 0.21863 0.0
N266 N 0.69366 0.19264 0.30196 0.0
N267 N 0.76576 0.19835 0.33145 0.0
C268 C 0.72854 0.20223 0.3669 0.0
H269 H 0.77697 0.18505 0.18422 0.0
Co270 Co 0.81401 0.19986 0.41704 0.0
C271 C 0.72143 0.1196 0.48763 0.0
O272 O 0.71053 0.10569 0.3983 0.0
N273 N 0.85889 0.20177 0.50567 0.0
C274 C 0.9208 0.20399 0.58362 0.0
C275 C 0.90076 0.20154 0.49456 0.0
C276 C 0.85448 0.20492 0.60134 0.0
N277 N 0.89135 0.20601 0.65024 0.0
O278 O 0.82357 0.25959 0.47165 0.0
H279 H 0.91574 0.19976 0.42639 0.0
H280 H 0.82483 0.20676 0.6344 0.0
O281 O 0.76188 0.15737 0.50738 0.0
C282 C 0.8452 0.29279 0.40872 0.0
O283 O 0.84639 0.2797 0.3202 0.0
N284 N 0.81286 0.14704 0.35478 0.0
C285 C 0.81762 0.0818 0.22932 0.0
C286 C 0.79967 0.06729 0.32241 0.0
C287 C 0.7984 0.10106 0.38531 0.0
C288 C 0.83587 0.16261 0.2695 0.0
C289 C 0.83748 0.13054 0.20474 0.0
H290 H 0.78512 0.09 0.45716 0.0
H291 H 0.85136 0.20022 0.24996 0.0
H292 H 0.72475 0.20718 0.44231 0.0
H293 H 0.69134 0.17576 0.15206 0.0
H294 H 0.95431 0.2044 0.59778 0.0
H295 H 0.78537 1.03017 0.34511 0.0
H296 H 0.85328 0.14373 0.13496 0.0
C297 C 0.54442 0.16298 0.49756 0.0
C298 C 0.54079 0.20375 0.51571 0.0
N299 N 0.54627 0.22676 0.4323 0.0
N300 N 0.55209 0.16045 0.40289 0.0
C301 C 0.55592 0.20152 0.36739 0.0
H302 H 0.53888 0.13603 0.55018 0.0
Co303 Co 0.55361 0.11371 0.31731 0.0
C304 C 0.47333 0.12599 0.24673 0.0
O305 O 0.4594 0.12296 0.33606 0.0
N306 N 0.55553 0.07073 0.22868 0.0
C307 C 0.55772 1.01101 0.15069 0.0
C308 C 0.55528 1.02862 0.23976 0.0
C309 C 0.55868 0.07829 0.13301 0.0
N310 N 0.55975 0.0425 0.08408 0.0
O311 O 0.61333 0.16387 0.2627 0.0
H312 H 0.55349 1.01186 0.30792 0.0
H313 H 0.56053 0.10978 0.09997 0.0
O314 O 0.51111 0.12332 0.22698 0.0
C315 C 0.64652 0.17542 0.32562 0.0
O316 O 0.63343 0.16108 0.41412 0.0
N317 N 0.50078 0.06204 0.37957 0.0
C318 C 0.43553 0.99203 0.50499 0.0
C319 C 0.42104 0.99546 0.41189 0.0
C320 C 0.45482 1.0305 0.349 0.0
C321 C 0.51634 0.05462 0.46487 0.0
C322 C 0.48425 1.02093 0.52961 0.0
H323 H 0.44378 1.0327 0.27714 0.0
H324 H 0.55394 0.07675 0.48444 0.0
H325 H 0.56088 0.21023 0.29198 0.0
H326 H 0.52954 0.21237 0.58229 0.0
H327 H 0.55811 0.97791 0.1365 0.0
H328 H 0.38393 0.97262 0.38916 0.0
H329 H 0.49743 1.01833 0.5994 0.0
C330 C 0.93903 0.40185 0.49761 0.0
C331 C 0.89826 0.35746 0.51577 0.0
N332 N 0.87525 0.3399 0.43238 0.0
N333 N 0.94157 0.41204 0.40294 0.0
C334 C 0.90051 0.37479 0.36745 0.0
H335 H 0.96598 0.42328 0.55022 0.0
Co336 Co 0.98832 0.46029 0.31734 0.0
C337 C 0.97603 0.36772 0.24676 0.0
O338 O 0.97906 0.35682 0.33608 0.0
N339 N 1.03129 0.50517 0.22869 0.0
C340 C 0.09098 0.56708 0.15067 0.0
C341 C 0.0734 0.54704 0.23975 0.0
C342 C 1.02372 0.50076 0.13303 0.0
N343 N 1.05949 0.53762 0.08408 0.0
O344 O 0.93815 0.46982 0.26273 0.0
H345 H 0.09016 0.56202 0.3079 0.0
H346 H 0.99223 0.47111 0.1 0.0
O347 O 0.97871 0.40817 0.22701 0.0
C348 C 0.92657 0.49146 0.32564 0.0
O349 O 0.94088 0.49271 0.41415 0.0
N350 N 1.03999 0.45914 0.37958 0.0
C351 C 0.10997 0.46388 0.50501 0.0
C352 C 0.10655 0.44597 0.4119 0.0
C353 C 0.07153 0.44471 0.34902 0.0
C354 C 1.0474 0.48212 0.4649 0.0
C355 C 0.08107 0.48372 0.52964 0.0
H356 H 0.06933 0.43145 0.27715 0.0
H357 H 1.02526 0.49759 0.48448 0.0
H358 H 0.8918 0.37102 0.29205 0.0
H359 H 0.88963 0.3376 0.58237 0.0
H360 H 0.12407 0.60059 0.13647 0.0
H361 H 0.12939 0.43168 0.38917 0.0
H362 H 0.08366 0.49949 0.59943 0.0
C363 C 0.70009 0.55749 0.49753 0.0
C364 C 0.74449 0.56113 0.51569 0.0
N365 N 0.76207 0.55569 0.43229 0.0
N366 N 0.68993 0.54987 0.40286 0.0
C367 C 0.72719 0.54606 0.36736 0.0
H368 H 0.67865 0.563 0.55016 0.0
Co369 Co 0.64169 0.54836 0.31728 0.0
C370 C 0.73426 0.62865 0.24671 0.0
O371 O 0.74515 0.64257 0.33604 0.0
N372 N 0.59681 0.54646 0.22865 0.0
C373 C 0.53489 0.54425 0.15071 0.0
C374 C 0.55494 0.54669 0.23976 0.0
C375 C 0.60122 0.54332 0.13298 0.0
N376 N 0.56435 0.54223 0.08408 0.0
O377 O 0.63215 0.48866 0.26264 0.0
H378 H 0.53996 0.54846 0.30794 0.0
H379 H 0.63087 0.54148 0.09992 0.0
O380 O 0.69381 0.59088 0.22695 0.0
C381 C 0.61049 0.45546 0.32555 0.0
O382 O 0.60922 0.46853 0.41406 0.0
N383 N 0.64284 0.60119 0.37956 0.0
C384 C 0.63813 0.66645 0.50502 0.0
C385 C 0.65603 0.68093 0.4119 0.0
C386 C 0.65727 0.64715 0.349 0.0
C387 C 0.61986 0.58563 0.46488 0.0
C388 C 0.61828 0.61772 0.52965 0.0
H389 H 0.67052 0.6582 0.27712 0.0
H390 H 0.60438 0.54802 0.48445 0.0
H391 H 0.73098 0.54113 0.29194 0.0
H392 H 0.76433 0.57235 0.5823 0.0
H393 H 0.50139 0.54383 0.13655 0.0
H394 H 0.67032 0.71805 0.38918 0.0
H395 H 0.60251 0.60454 0.59945 0.0
C396 C 0.57805 0.91861 0.57011 0.0
C397 C 0.58164 0.87783 0.55195 0.0
N398 N 0.57603 0.85471 0.63528 0.0
N399 N 0.57031 0.9211 0.66475 0.0
C400 C 0.56641 0.87999 0.7002 0.0
H401 H 0.58369 0.94562 0.51754 0.0
Co402 Co 0.56878 0.96783 0.75034 0.0
C403 C 0.64903 0.95551 0.82094 0.0
O404 O 0.66296 0.95853 0.73162 0.0
N405 N 0.56686 1.01081 0.83898 0.0
C406 C 0.56467 0.07052 0.91697 0.0
C407 C 0.56711 0.05292 0.8279 0.0
C408 C 0.5637 1.00324 0.93464 0.0
N409 N 0.56263 1.03903 0.98357 0.0
O410 O 0.50904 0.91766 0.80492 0.0
H411 H 0.5689 0.06968 0.75974 0.0
H412 H 0.56185 0.97175 0.96768 0.0
O413 O 0.61126 0.95821 0.84068 0.0
C414 C 0.47585 0.9061 0.74198 0.0
O415 O 0.48896 0.92037 0.65346 0.0
N416 N 0.62161 1.01951 0.68811 0.0
C417 C 0.68684 0.08954 0.56269 0.0
C418 C 0.70135 0.08609 0.65576 0.0
C419 C 0.66759 0.05103 0.71864 0.0
C420 C 0.60604 1.02695 0.60284 0.0
C421 C 0.63811 0.06065 0.53811 0.0
H422 H 0.67865 0.04881 0.79048 0.0
H423 H 0.56843 1.00481 0.5833 0.0
H424 H 0.56143 0.87127 0.7756 0.0
H425 H 0.59298 0.86926 0.4854 0.0
H426 H 0.56428 0.10362 0.93116 0.0
H427 H 0.73847 0.10891 0.67846 0.0
H428 H 0.62492 0.06326 0.46835 0.0
C429 C 0.18333 0.67976 0.57006 0.0
C430 C 0.22411 0.72413 0.55188 0.0
N431 N 0.24723 0.74165 0.63521 0.0
N432 N 0.18083 0.66956 0.6647 0.0
C433 C 0.22194 0.70677 0.70014 0.0
H434 H 0.15632 0.65838 0.51749 0.0
Co435 Co 0.1341 0.62131 0.75031 0.0
C436 C 0.14642 0.71388 0.82092 0.0
O437 O 0.1434 0.72479 0.7316 0.0
N438 N 0.09113 0.57642 0.83897 0.0
C439 C 1.03144 0.51451 0.91699 0.0
C440 C 1.04902 0.53456 0.82791 0.0
C441 C 0.09871 0.58083 0.93463 0.0
N442 N 0.06293 0.54396 0.98357 0.0
O443 O 0.18427 0.61176 0.80489 0.0
H444 H 1.03226 0.51958 0.75976 0.0
H445 H 0.1302 0.61048 0.96765 0.0
O446 O 0.14372 0.67342 0.84065 0.0
C447 C 0.19587 0.59014 0.74197 0.0
O448 O 0.18162 0.58896 0.65343 0.0
N449 N 0.08242 0.62245 0.68809 0.0
C450 C 1.01241 0.61766 0.56267 0.0
C451 C 1.01586 0.63562 0.65575 0.0
C452 C 1.0509 0.63691 0.71863 0.0
C453 C 0.07499 0.59943 0.60282 0.0
C454 C 1.0413 0.59781 0.53808 0.0
H455 H 1.05312 0.6502 0.79047 0.0
H456 H 0.09713 0.58396 0.58326 0.0
H457 H 0.23066 0.71054 0.77554 0.0
H458 H 0.23269 0.74402 0.48532 0.0
H459 H 0.99835 0.48101 0.93119 0.0
H460 H 0.99303 0.64992 0.67845 0.0
H461 H 1.0387 0.58201 0.46831 0.0
C462 C 0.42224 0.52398 0.57014 0.0
C463 C 0.37787 0.52039 0.55196 0.0
N464 N 0.36033 0.52597 0.6353 0.0
N465 N 0.43243 0.53168 0.66479 0.0
C466 C 0.3952 0.53557 0.70024 0.0
H467 H 0.44364 0.51838 0.51756 0.0
Co468 Co 0.48068 0.5332 0.75037 0.0
C469 C 0.38809 0.45294 0.82097 0.0
O470 O 0.3772 0.43902 0.73164 0.0
N471 N 0.52556 0.5351 0.839 0.0
C472 C 0.58747 0.53732 0.91695 0.0
C473 C 0.56742 0.53487 0.82789 0.0
C474 C 0.52114 0.53826 0.93467 0.0
N475 N 0.55801 0.53935 0.98358 0.0
O476 O 0.49023 0.59292 0.80498 0.0
H477 H 0.5824 0.5331 0.75972 0.0
H478 H 0.4915 0.5401 0.96773 0.0
O479 O 0.42855 0.4907 0.84071 0.0
C480 C 0.51187 0.62612 0.74205 0.0
O481 O 0.51305 0.61303 0.65353 0.0
N482 N 0.47952 0.48037 0.68812 0.0
C483 C 0.48429 0.41514 0.56266 0.0
C484 C 0.46634 0.40063 0.65575 0.0
C485 C 0.46507 0.43439 0.71865 0.0
C486 C 0.50254 0.49595 0.60283 0.0
C487 C 0.50415 0.46387 0.53807 0.0
H488 H 0.45178 0.42333 0.7905 0.0
H489 H 0.51802 0.53355 0.58329 0.0
H490 H 0.39142 0.54051 0.77564 0.0
H491 H 0.358 0.50909 0.48539 0.0
H492 H 0.62097 0.53773 0.93111 0.0
H493 H 0.45204 0.3635 0.67844 0.0
H494 H 0.51995 0.47706 0.46829 0.0
C495 C 0.21109 0.49632 0.83089 0.0
C496 C 0.20746 0.53708 0.84904 0.0
N497 N 0.21293 0.5601 0.76564 0.0
N498 N 0.21876 0.49378 0.73623 0.0
C499 C 0.22259 0.53485 0.70072 0.0
H500 H 0.20555 0.46936 0.88351 0.0
Co501 Co 0.22028 0.44704 0.65065 0.0
C502 C 0.14 0.45932 0.58006 0.0
O503 O 0.12607 0.45629 0.66939 0.0
N504 N 0.22219 0.40406 0.56201 0.0
C505 C 0.22439 0.34435 0.48402 0.0
C506 C 0.22194 0.36195 0.57309 0.0
C507 C 0.22535 0.41162 0.46635 0.0
N508 N 0.22642 0.37583 0.41742 0.0
O509 O 0.28 0.49721 0.59603 0.0
H510 H 0.22015 0.34519 0.64125 0.0
H511 H 0.2272 0.44311 0.4333 0.0
O512 O 0.17778 0.45665 0.56031 0.0
C513 C 0.31319 0.50875 0.65896 0.0
O514 O 0.3001 0.49441 0.74745 0.0
N515 N 0.16745 0.39537 0.7129 0.0
C516 C 0.1022 0.32537 0.83832 0.0
C517 C 0.08771 0.32879 0.74522 0.0
C518 C 0.12149 0.36383 0.68234 0.0
C519 C 0.18301 0.38795 0.79821 0.0
C520 C 0.15092 0.35426 0.86294 0.0
H521 H 0.11045 0.36603 0.61048 0.0
H522 H 0.22061 0.41008 0.81777 0.0
H523 H 0.22754 0.54356 0.62531 0.0
H524 H 0.1962 0.5457 0.91563 0.0
H525 H 0.22478 0.31124 0.46984 0.0
H526 H 1.0506 0.30596 0.72249 0.0
H527 H 0.1641 0.35166 0.93273 0.0
C528 C 0.6057 0.73519 0.83094 0.0
C529 C 0.56493 0.69079 0.8491 0.0
N530 N 0.54192 0.67324 0.76571 0.0
N531 N 0.60824 0.74537 0.73627 0.0
C532 C 0.56717 0.70813 0.70078 0.0
H533 H 0.63265 0.75662 0.88356 0.0
Co534 Co 0.65498 0.79362 0.65068 0.0
C535 C 0.6427 0.70105 0.58009 0.0
O536 O 0.64573 0.69016 0.66941 0.0
N537 N 0.69796 0.8385 0.56202 0.0
C538 C 0.75765 0.90042 0.484 0.0
C539 C 0.74006 0.88037 0.57308 0.0
C540 C 0.69038 0.83409 0.46636 0.0
N541 N 0.72616 0.87096 0.41742 0.0
O542 O 0.60481 0.80315 0.59607 0.0
H543 H 0.75683 0.89535 0.64123 0.0
H544 H 0.65889 0.80445 0.43334 0.0
O545 O 0.64538 0.7415 0.56034 0.0
C546 C 0.59324 0.82479 0.65897 0.0
O547 O 0.60755 0.82605 0.74748 0.0
N548 N 0.70666 0.79248 0.71292 0.0
C549 C 0.77663 0.79721 0.83834 0.0
C550 C 0.77322 0.7793 0.74523 0.0
C551 C 0.73819 0.77805 0.68235 0.0
C552 C 0.71406 0.81545 0.79823 0.0
C553 C 0.74774 0.81705 0.86297 0.0
H554 H 0.736 0.76479 0.61049 0.0
H555 H 0.69193 0.83092 0.81781 0.0
H556 H 0.55846 0.70435 0.62538 0.0
H557 H 0.5563 0.67093 0.9157 0.0
H558 H 0.79074 0.93392 0.4698 0.0
H559 H 0.79605 0.76502 0.7225 0.0
H560 H 0.75033 0.83282 0.93277 0.0
C561 C 0.36676 0.89083 0.83086 0.0
C562 C 0.41115 0.89446 0.84902 0.0
N563 N 0.42873 0.88902 0.76562 0.0
N564 N 0.3566 0.8832 0.73619 0.0
C565 C 0.39385 0.87939 0.70069 0.0
H566 H 0.34531 0.89633 0.88349 0.0
Co567 Co 0.30835 0.8817 0.65061 0.0
C568 C 0.40093 0.96198 0.58004 0.0
O569 O 0.41181 0.9759 0.66937 0.0
N570 N 0.26347 0.8798 0.56199 0.0
C571 C 0.20156 0.87758 0.48404 0.0
C572 C 0.2216 0.88003 0.5731 0.0
C573 C 0.26789 0.87665 0.46632 0.0
N574 N 0.23102 0.87556 0.41741 0.0
O575 O 0.29881 0.82199 0.59597 0.0
H576 H 0.20662 0.8818 0.64127 0.0
H577 H 0.29753 0.87481 0.43325 0.0
O578 O 0.36048 0.92421 0.56028 0.0
C579 C 0.27715 0.78879 0.65888 0.0
O580 O 0.27589 0.80186 0.74739 0.0
N581 N 0.3095 0.93452 0.71289 0.0
C582 C 0.30479 0.99978 0.83836 0.0
C583 C 0.3227 1.01427 0.74524 0.0
C584 C 0.32394 0.98049 0.68233 0.0
C585 C 0.28653 0.91896 0.79822 0.0
C586 C 0.28495 0.95105 0.86298 0.0
H587 H 0.33718 0.99153 0.61046 0.0
H588 H 0.27105 0.88136 0.81778 0.0
H589 H 0.39765 0.87447 0.62527 0.0
H590 H 0.431 0.90568 0.91563 0.0
H591 H 0.16805 0.87717 0.46988 0.0
H592 H 0.33698 0.05138 0.72251 0.0
H593 H 0.26918 0.93788 0.93279 0.0
loop_
_geom_bond_atom_site_label_1
_geom_bond_atom_site_label_2
_geom_bond_distance
_geom_bond_site_symmetry_2
_ccdc_geom_bond_type
C0 C1 1.351 . S
C0 N3 1.368 1_556 S
C0 H5 0.931 . S
C1 C0 1.351 . S
C1 N2 1.373 . S
C1 H29 0.930 . S
N2 C1 1.373 . S
N2 C4 1.340 1_556 S
N3 C0 1.368 1_554 S
N3 C4 1.321 . S
N3 Co6 2.135 . S
C4 N2 1.340 1_554 S
C4 N3 1.321 . S
C4 H28 0.930 . S
H5 C0 0.931 . S
Co6 N3 2.135 . S
Co6 N9 2.121 . S
Co6 O14 2.055 . S
Co6 O17 2.039 . S
Co6 N20 2.140 . S
C7 O8 1.227 . S
C7 O17 1.265 . S
O8 C7 1.227 . S
N9 Co6 2.121 . S
N9 C11 1.375 . S
N9 C12 1.313 . S
C10 C11 1.338 . S
C10 N13 1.377 . S
C10 H30 0.930 . S
C11 N9 1.375 . S
C11 C10 1.338 . S
C11 H15 0.931 . S
C12 N9 1.313 . S
C12 N13 1.344 . S
C12 H16 0.930 . S
N13 C10 1.377 . S
N13 C12 1.344 . S
O14 Co6 2.055 . S
O14 C18 1.253 . S
H15 C11 0.931 . S
H16 C12 0.930 . S
O17 Co6 2.039 . S
O17 C7 1.265 . S
C18 O14 1.253 . S
C18 O19 1.227 . S
O19 C18 1.227 . S
N20 Co6 2.140 . S
N20 C23 1.346 1_554 S
N20 C24 1.345 . S
C21 C22 1.387 . S
C21 C25 1.391 . S
C22 C21 1.387 . S
C22 C23 1.369 . S
C22 H31 0.929 . S
C23 N20 1.346 1_556 S
C23 C22 1.369 . S
C23 H26 0.928 1_556 S
C24 N20 1.345 . S
C24 C25 1.371 1_554 S
C24 H27 0.931 . S
C25 C21 1.391 . S
C25 C24 1.371 1_556 S
C25 H32 0.930 . S
H26 C23 0.928 1_554 S
H27 C24 0.931 . S
H28 C4 0.930 . S
H29 C1 0.930 . S
H30 C10 0.930 . S
H31 C22 0.929 . S
H32 C25 0.930 . S
C33 C34 1.351 1_565 S
C33 N36 1.374 1_556 S
C33 H38 0.931 . S
C34 C33 1.351 1_545 S
C34 N35 1.373 . S
C34 H62 0.930 . S
N35 C34 1.373 . S
N35 C37 1.340 1_556 S
N36 C33 1.374 1_554 S
N36 C37 1.307 1_565 S
N36 Co39 2.141 . S
C37 N35 1.340 1_554 S
C37 N36 1.307 1_545 S
C37 H61 0.930 . S
H38 C33 0.931 . S
Co39 N36 2.141 . S
Co39 N42 2.121 . S
Co39 O47 2.055 . S
Co39 O50 2.039 . S
Co39 N53 2.140 . S
C40 O41 1.227 . S
C40 O50 1.265 1_545 S
O41 C40 1.227 . S
N42 Co39 2.121 . S
N42 C44 1.375 . S
N42 C45 1.313 . S
C43 C44 1.338 . S
C43 N46 1.377 . S
C43 H63 0.930 . S
C44 N42 1.375 . S
C44 C43 1.338 . S
C44 H48 0.931 . S
C45 N42 1.313 . S
C45 N46 1.344 . S
C45 H49 0.930 . S
N46 C43 1.377 . S
N46 C45 1.344 . S
O47 Co39 2.055 . S
O47 C51 1.253 . S
H48 C44 0.931 . S
H49 C45 0.930 . S
O50 Co39 2.039 . S
O50 C40 1.265 1_565 S
C51 O47 1.253 . S
C51 O52 1.227 . S
O52 C51 1.227 . S
N53 Co39 2.140 . S
N53 C56 1.346 1_554 S
N53 C57 1.345 . S
C54 C55 1.387 . S
C54 C58 1.391 . S
C55 C54 1.387 . S
C55 C56 1.369 . S
C55 H64 0.926 1_565 S
C56 N53 1.346 1_556 S
C56 C55 1.369 . S
C56 H59 0.928 1_566 S
C57 N53 1.345 . S
C57 C58 1.371 1_554 S
C57 H60 0.931 . S
C58 C54 1.391 . S
C58 C57 1.371 1_556 S
C58 H65 0.930 . S
H59 C56 0.928 1_544 S
H60 C57 0.931 . S
H61 C37 0.930 . S
H62 C34 0.930 . S
H63 C43 0.930 . S
H64 C55 0.926 1_545 S
H65 C58 0.930 . S
C66 C67 1.351 1_455 S
C66 N69 1.367 1_556 S
C66 H71 0.931 . S
C67 C66 1.351 1_655 S
C67 N68 1.373 . S
C67 H95 0.930 . S
N68 C67 1.373 . S
N68 C70 1.340 1_556 S
N69 C66 1.367 1_554 S
N69 C70 1.308 1_455 S
N69 Co72 2.148 . S
C70 N68 1.340 1_554 S
C70 N69 1.308 1_655 S
C70 H94 0.930 . S
H71 C66 0.931 . S
Co72 N69 2.148 . S
Co72 N75 2.121 . S
Co72 O80 2.055 . S
Co72 O83 2.039 . S
Co72 N86 2.140 . S
C73 O74 1.227 . S
C73 O83 1.265 1_655 S
O74 C73 1.227 . S
N75 Co72 2.121 . S
N75 C77 1.375 . S
N75 C78 1.313 . S
C76 C77 1.338 . S
C76 N79 1.377 . S
C76 H96 0.930 . S
C77 N75 1.375 . S
C77 C76 1.338 . S
C77 H81 0.931 . S
C78 N75 1.313 . S
C78 N79 1.344 . S
C78 H82 0.930 . S
N79 C76 1.377 . S
N79 C78 1.344 . S
O80 Co72 2.055 . S
O80 C84 1.253 . S
H81 C77 0.931 . S
H82 C78 0.930 . S
O83 Co72 2.039 . S
O83 C73 1.265 1_455 S
C84 O80 1.253 . S
C84 O85 1.227 . S
O85 C84 1.227 . S
N86 Co72 2.140 . S
N86 C89 1.346 1_554 S
N86 C90 1.345 . S
C87 C88 1.387 . S
C87 C91 1.391 . S
C88 C87 1.387 . S
C88 C89 1.369 . S
C88 H97 0.928 1_455 S
C89 N86 1.346 1_556 S
C89 C88 1.369 . S
C89 H92 0.928 1_456 S
C90 N86 1.345 . S
C90 C91 1.371 1_554 S
C90 H93 0.931 . S
C91 C87 1.391 . S
C91 C90 1.371 1_556 S
C91 H98 0.930 . S
H92 C89 0.928 1_654 S
H93 C90 0.931 . S
H94 C70 0.930 . S
H95 C67 0.930 . S
H96 C76 0.930 . S
H97 C88 0.928 1_655 S
H98 C91 0.930 . S
C99 C100 1.351 . S
C99 N102 1.368 1_554 S
C99 H104 0.931 . S
C100 C99 1.351 . S
C100 N101 1.373 . S
C100 H128 0.930 . S
N101 C100 1.373 . S
N101 C103 1.340 1_554 S
N102 C99 1.368 1_556 S
N102 C103 1.321 . S
N102 Co105 2.135 . S
C103 N101 1.340 1_556 S
C103 N102 1.321 . S
C103 H127 0.930 . S
H104 C99 0.931 . S
Co105 N102 2.135 . S
Co105 N108 2.121 . S
Co105 O113 2.055 . S
Co105 O116 2.039 . S
Co105 N119 2.140 . S
C106 O107 1.227 . S
C106 O116 1.265 . S
O107 C106 1.227 . S
N108 Co105 2.121 . S
N108 C110 1.375 . S
N108 C111 1.313 . S
C109 C110 1.338 . S
C109 N112 1.377 . S
C109 H129 0.930 . S
C110 N108 1.375 . S
C110 C109 1.338 . S
C110 H114 0.931 . S
C111 N108 1.313 . S
C111 N112 1.344 . S
C111 H115 0.930 . S
N112 C109 1.377 . S
N112 C111 1.344 . S
O113 Co105 2.055 . S
O113 C117 1.253 . S
H114 C110 0.931 . S
H115 C111 0.930 . S
O116 Co105 2.039 . S
O116 C106 1.265 . S
C117 O113 1.253 . S
C117 O118 1.227 . S
O118 C117 1.227 . S
N119 Co105 2.140 . S
N119 C122 1.346 1_556 S
N119 C123 1.345 . S
C120 C121 1.387 . S
C120 C124 1.391 . S
C121 C120 1.387 . S
C121 C122 1.369 . S
C121 H130 0.929 . S
C122 N119 1.346 1_554 S
C122 C121 1.369 . S
C122 H125 0.928 1_554 S
C123 N119 1.345 . S
C123 C124 1.371 1_556 S
C123 H126 0.931 . S
C124 C120 1.391 . S
C124 C123 1.371 1_554 S
C124 H131 0.930 . S
H125 C122 0.928 1_556 S
H126 C123 0.931 . S
H127 C103 0.930 . S
H128 C100 0.930 . S
H129 C109 0.930 . S
H130 C121 0.929 . S
H131 C124 0.930 . S
C132 C133 1.351 1_545 S
C132 N135 1.374 1_554 S
C132 H137 0.931 . S
C133 C132 1.351 1_565 S
C133 N134 1.373 . S
C133 H161 0.930 . S
N134 C133 1.373 . S
N134 C136 1.340 1_554 S
N135 C132 1.374 1_556 S
N135 C136 1.307 1_545 S
N135 Co138 2.141 . S
C136 N134 1.340 1_556 S
C136 N135 1.307 1_565 S
C136 H160 0.930 . S
H137 C132 0.931 . S
Co138 N135 2.141 . S
Co138 N141 2.121 . S
Co138 O146 2.055 . S
Co138 O149 2.039 . S
Co138 N152 2.140 . S
C139 O140 1.227 . S
C139 O149 1.265 1_565 S
O140 C139 1.227 . S
N141 Co138 2.121 . S
N141 C143 1.375 . S
N141 C144 1.313 . S
C142 C143 1.338 . S
C142 N145 1.377 . S
C142 H162 0.930 . S
C143 N141 1.375 . S
C143 C142 1.338 . S
C143 H147 0.931 . S
C144 N141 1.313 . S
C144 N145 1.344 . S
C144 H148 0.930 . S
N145 C142 1.377 . S
N145 C144 1.344 . S
O146 Co138 2.055 . S
O146 C150 1.253 . S
H147 C143 0.931 . S
H148 C144 0.930 . S
O149 Co138 2.039 . S
O149 C139 1.265 1_545 S
C150 O146 1.253 . S
C150 O151 1.227 . S
O151 C150 1.227 . S
N152 Co138 2.140 . S
N152 C155 1.346 1_556 S
N152 C156 1.345 . S
C153 C154 1.387 . S
C153 C157 1.391 . S
C154 C153 1.387 . S
C154 C155 1.369 . S
C154 H163 0.926 1_545 S
C155 N152 1.346 1_554 S
C155 C154 1.369 . S
C155 H158 0.928 1_544 S
C156 N152 1.345 . S
C156 C157 1.371 1_556 S
C156 H159 0.931 . S
C157 C153 1.391 . S
C157 C156 1.371 1_554 S
C157 H164 0.930 . S
H158 C155 0.928 1_566 S
H159 C156 0.931 . S
H160 C136 0.930 . S
H161 C133 0.930 . S
H162 C142 0.930 . S
H163 C154 0.926 1_565 S
H164 C157 0.930 . S
C165 C166 1.351 1_655 S
C165 N168 1.367 1_554 S
C165 H170 0.931 . S
C166 C165 1.351 1_455 S
C166 N167 1.373 . S
C166 H194 0.930 . S
N167 C166 1.373 . S
N167 C169 1.340 1_554 S
N168 C165 1.367 1_556 S
N168 C169 1.308 1_655 S
N168 Co171 2.148 . S
C169 N167 1.340 1_556 S
C169 N168 1.308 1_455 S
C169 H193 0.930 . S
H170 C165 0.931 . S
Co171 N168 2.148 . S
Co171 N174 2.121 . S
Co171 O179 2.055 . S
Co171 O182 2.039 . S
Co171 N185 2.140 . S
C172 O173 1.227 . S
C172 O182 1.265 1_455 S
O173 C172 1.227 . S
N174 Co171 2.121 . S
N174 C176 1.375 . S
N174 C177 1.313 . S
C175 C176 1.338 . S
C175 N178 1.377 . S
C175 H195 0.930 . S
C176 N174 1.375 . S
C176 C175 1.338 . S
C176 H180 0.931 . S
C177 N174 1.313 . S
C177 N178 1.344 . S
C177 H181 0.930 . S
N178 C175 1.377 . S
N178 C177 1.344 . S
O179 Co171 2.055 . S
O179 C183 1.253 . S
H180 C176 0.931 . S
H181 C177 0.930 . S
O182 Co171 2.039 . S
O182 C172 1.265 1_655 S
C183 O179 1.253 . S
C183 O184 1.227 . S
O184 C183 1.227 . S
N185 Co171 2.140 . S
N185 C188 1.346 1_556 S
N185 C189 1.345 . S
C186 C187 1.387 . S
C186 C190 1.391 . S
C187 C186 1.387 . S
C187 C188 1.369 . S
C187 H196 0.928 1_655 S
C188 N185 1.346 1_554 S
C188 C187 1.369 . S
C188 H191 0.928 1_654 S
C189 N185 1.345 . S
C189 C190 1.371 1_556 S
C189 H192 0.931 . S
C190 C186 1.391 . S
C190 C189 1.371 1_554 S
C190 H197 0.930 . S
H191 C188 0.928 1_456 S
H192 C189 0.931 . S
H193 C169 0.930 . S
H194 C166 0.930 . S
H195 C175 0.930 . S
H196 C187 0.928 1_455 S
H197 C190 0.930 . S
C198 C199 1.351 . S
C198 N201 1.368 . S
C198 H203 0.931 . S
C199 C198 1.351 . S
C199 N200 1.373 . S
C199 H227 0.930 . S
N200 C199 1.373 . S
N200 C202 1.340 . S
N201 C198 1.368 . S
N201 C202 1.321 . S
N201 Co204 2.135 . S
C202 N200 1.340 . S
C202 N201 1.321 . S
C202 H226 0.930 . S
H203 C198 0.931 . S
Co204 N201 2.135 . S
Co204 N207 2.121 . S
Co204 O212 2.055 . S
Co204 O215 2.039 . S
Co204 N218 2.140 . S
C205 O206 1.227 . S
C205 O215 1.265 . S
O206 C205 1.227 . S
N207 Co204 2.121 . S
N207 C209 1.375 . S
N207 C210 1.313 . S
C208 C209 1.338 . S
C208 N211 1.377 . S
C208 H228 0.930 . S
C209 N207 1.375 . S
C209 C208 1.338 . S
C209 H213 0.931 . S
C210 N207 1.313 . S
C210 N211 1.344 . S
C210 H214 0.930 . S
N211 C208 1.377 . S
N211 C210 1.344 . S
O212 Co204 2.055 . S
O212 C216 1.253 . S
H213 C209 0.931 . S
H214 C210 0.930 . S
O215 Co204 2.039 . S
O215 C205 1.265 . S
C216 O212 1.253 . S
C216 O217 1.227 . S
O217 C216 1.227 . S
N218 Co204 2.140 . S
N218 C221 1.346 . S
N218 C222 1.345 . S
C219 C220 1.387 . S
C219 C223 1.391 . S
C220 C219 1.387 . S
C220 C221 1.369 . S
C220 H229 0.929 . S
C221 N218 1.346 . S
C221 C220 1.369 . S
C221 H224 0.928 . S
C222 N218 1.345 . S
C222 C223 1.371 . S
C222 H225 0.931 . S
C223 C219 1.391 . S
C223 C222 1.371 . S
C223 H230 0.930 . S
H224 C221 0.928 . S
H225 C222 0.931 . S
H226 C202 0.930 . S
H227 C199 0.930 . S
H228 C208 0.930 . S
H229 C220 0.929 . S
H230 C223 0.930 . S
C231 C232 1.351 . S
C231 N234 1.368 . S
C231 H236 0.931 . S
C232 C231 1.351 . S
C232 N233 1.373 . S
C232 H260 0.930 . S
N233 C232 1.373 . S
N233 C235 1.340 . S
N234 C231 1.368 . S
N234 C235 1.321 . S
N234 Co237 2.135 . S
C235 N233 1.340 . S
C235 N234 1.321 . S
C235 H259 0.930 . S
H236 C231 0.931 . S
Co237 N234 2.135 . S
Co237 N240 2.121 . S
Co237 O245 2.055 . S
Co237 O248 2.039 . S
Co237 N251 2.140 . S
C238 O239 1.227 . S
C238 O248 1.265 . S
O239 C238 1.227 . S
N240 Co237 2.121 . S
N240 C242 1.375 . S
N240 C243 1.313 . S
C241 C242 1.338 . S
C241 N244 1.377 . S
C241 H261 0.930 . S
C242 N240 1.375 . S
C242 C241 1.338 . S
C242 H246 0.931 . S
C243 N240 1.313 . S
C243 N244 1.344 . S
C243 H247 0.930 . S
N244 C241 1.377 . S
N244 C243 1.344 . S
O245 Co237 2.055 . S
O245 C249 1.253 . S
H246 C242 0.931 . S
H247 C243 0.930 . S
O248 Co237 2.039 . S
O248 C238 1.265 . S
C249 O245 1.253 . S
C249 O250 1.227 . S
O250 C249 1.227 . S
N251 Co237 2.140 . S
N251 C254 1.346 . S
N251 C255 1.345 . S
C252 C253 1.387 . S
C252 C256 1.391 . S
C253 C252 1.387 . S
C253 C254 1.369 . S
C253 H262 0.929 . S
C254 N251 1.346 . S
C254 C253 1.369 . S
C254 H257 0.928 . S
C255 N251 1.345 . S
C255 C256 1.371 . S
C255 H258 0.931 . S
C256 C252 1.391 . S
C256 C255 1.371 . S
C256 H263 0.930 . S
H257 C254 0.928 . S
H258 C255 0.931 . S
H259 C235 0.930 . S
H260 C232 0.930 . S
H261 C241 0.930 . S
H262 C253 0.929 . S
H263 C256 0.930 . S
C264 C265 1.351 . S
C264 N267 1.368 . S
C264 H269 0.931 . S
C265 C264 1.351 . S
C265 N266 1.373 . S
C265 H293 0.930 . S
N266 C265 1.373 . S
N266 C268 1.340 . S
N267 C264 1.368 . S
N267 C268 1.321 . S
N267 Co270 2.135 . S
C268 N266 1.340 . S
C268 N267 1.321 . S
C268 H292 0.930 . S
H269 C264 0.931 . S
Co270 N267 2.135 . S
Co270 N273 2.121 . S
Co270 O278 2.055 . S
Co270 O281 2.039 . S
Co270 N284 2.140 . S
C271 O272 1.227 . S
C271 O281 1.265 . S
O272 C271 1.227 . S
N273 Co270 2.121 . S
N273 C275 1.375 . S
N273 C276 1.313 . S
C274 C275 1.338 . S
C274 N277 1.377 . S
C274 H294 0.930 . S
C275 N273 1.375 . S
C275 C274 1.338 . S
C275 H279 0.931 . S
C276 N273 1.313 . S
C276 N277 1.344 . S
C276 H280 0.930 . S
N277 C274 1.377 . S
N277 C276 1.344 . S
O278 Co270 2.055 . S
O278 C282 1.253 . S
H279 C275 0.931 . S
H280 C276 0.930 . S
O281 Co270 2.039 . S
O281 C271 1.265 . S
C282 O278 1.253 . S
C282 O283 1.227 . S
O283 C282 1.227 . S
N284 Co270 2.140 . S
N284 C287 1.346 . S
N284 C288 1.345 . S
C285 C286 1.387 . S
C285 C289 1.391 . S
C286 C285 1.387 . S
C286 C287 1.369 . S
C286 H295 0.929 . S
C287 N284 1.346 . S
C287 C286 1.369 . S
C287 H290 0.928 . S
C288 N284 1.345 . S
C288 C289 1.371 . S
C288 H291 0.931 . S
C289 C285 1.391 . S
C289 C288 1.371 . S
C289 H296 0.930 . S
H290 C287 0.928 . S
H291 C288 0.931 . S
H292 C268 0.930 . S
H293 C265 0.930 . S
H294 C274 0.930 . S
H295 C286 0.929 . S
H296 C289 0.930 . S
C297 C298 1.351 . S
C297 N300 1.368 . S
C297 H302 0.931 . S
C298 C297 1.351 . S
C298 N299 1.373 . S
C298 H326 0.930 . S
N299 C298 1.373 . S
N299 C301 1.340 . S
N300 C297 1.368 . S
N300 C301 1.321 . S
N300 Co303 2.135 . S
C301 N299 1.340 . S
C301 N300 1.321 . S
C301 H325 0.930 . S
H302 C297 0.931 . S
Co303 N300 2.135 . S
Co303 N306 2.121 . S
Co303 O311 2.055 . S
Co303 O314 2.039 . S
Co303 N317 2.140 . S
C304 O305 1.227 . S
C304 O314 1.265 . S
O305 C304 1.227 . S
N306 Co303 2.121 . S
N306 C308 1.375 . S
N306 C309 1.313 . S
C307 C308 1.338 1_565 S
C307 N310 1.377 . S
C307 H327 0.926 1_554 S
C308 N306 1.375 . S
C308 C307 1.338 1_545 S
C308 H312 0.931 . S
C309 N306 1.313 . S
C309 N310 1.344 1_545 S
C309 H313 0.930 . S
N310 C307 1.377 . S
N310 C309 1.344 1_565 S
O311 Co303 2.055 . S
O311 C315 1.253 . S
H312 C308 0.931 . S
H313 C309 0.930 . S
O314 Co303 2.039 . S
O314 C304 1.265 . S
C315 O311 1.253 . S
C315 O316 1.227 . S
O316 C315 1.227 . S
N317 Co303 2.140 . S
N317 C320 1.346 . S
N317 C321 1.345 . S
C318 C319 1.387 1_565 S
C318 C322 1.391 . S
C319 C318 1.387 1_545 S
C319 C320 1.369 . S
C319 H328 0.929 . S
C320 N317 1.346 . S
C320 C319 1.369 . S
C320 H323 0.928 . S
C321 N317 1.345 . S
C321 C322 1.371 1_545 S
C321 H324 0.931 . S
C322 C318 1.391 . S
C322 C321 1.371 1_565 S
C322 H329 0.930 . S
H323 C320 0.928 . S
H324 C321 0.931 . S
H325 C301 0.930 . S
H326 C298 0.930 . S
H327 C307 0.926 1_556 S
H328 C319 0.929 . S
H329 C322 0.930 . S
C330 C331 1.351 . S
C330 N333 1.368 . S
C330 H335 0.931 . S
C331 C330 1.351 . S
C331 N332 1.373 . S
C331 H359 0.930 . S
N332 C331 1.373 . S
N332 C334 1.340 . S
N333 C330 1.368 . S
N333 C334 1.321 . S
N333 Co336 2.135 . S
C334 N332 1.340 . S
C334 N333 1.321 . S
C334 H358 0.930 . S
H335 C330 0.931 . S
Co336 N333 2.135 . S
Co336 N339 2.121 . S
Co336 O344 2.055 . S
Co336 O347 2.039 . S
Co336 N350 2.140 . S
C337 O338 1.227 . S
C337 O347 1.265 . S
O338 C337 1.227 . S
N339 Co336 2.121 . S
N339 C341 1.375 . S
N339 C342 1.313 . S
C340 C341 1.338 1_455 S
C340 N343 1.377 . S
C340 H360 0.926 1_554 S
C341 N339 1.375 . S
C341 C340 1.338 1_655 S
C341 H345 0.931 . S
C342 N339 1.313 . S
C342 N343 1.344 1_655 S
C342 H346 0.930 . S
N343 C340 1.377 . S
N343 C342 1.344 1_455 S
O344 Co336 2.055 . S
O344 C348 1.253 . S
H345 C341 0.931 . S
H346 C342 0.930 . S
O347 Co336 2.039 . S
O347 C337 1.265 . S
C348 O344 1.253 . S
C348 O349 1.227 . S
O349 C348 1.227 . S
N350 Co336 2.140 . S
N350 C353 1.346 . S
N350 C354 1.345 . S
C351 C352 1.387 1_455 S
C351 C355 1.391 . S
C352 C351 1.387 1_655 S
C352 C353 1.369 . S
C352 H361 0.929 . S
C353 N350 1.346 . S
C353 C352 1.369 . S
C353 H356 0.928 . S
C354 N350 1.345 . S
C354 C355 1.371 1_655 S
C354 H357 0.931 . S
C355 C351 1.391 . S
C355 C354 1.371 1_455 S
C355 H362 0.930 . S
H356 C353 0.928 . S
H357 C354 0.931 . S
H358 C334 0.930 . S
H359 C331 0.930 . S
H360 C340 0.926 1_556 S
H361 C352 0.929 . S
H362 C355 0.930 . S
C363 C364 1.351 . S
C363 N366 1.368 . S
C363 H368 0.931 . S
C364 C363 1.351 . S
C364 N365 1.373 . S
C364 H392 0.930 . S
N365 C364 1.373 . S
N365 C367 1.340 . S
N366 C363 1.368 . S
N366 C367 1.321 . S
N366 Co369 2.135 . S
C367 N365 1.340 . S
C367 N366 1.321 . S
C367 H391 0.930 . S
H368 C363 0.931 . S
Co369 N366 2.135 . S
Co369 N372 2.121 . S
Co369 O377 2.055 . S
Co369 O380 2.039 . S
Co369 N383 2.140 . S
C370 O371 1.227 . S
C370 O380 1.265 . S
O371 C370 1.227 . S
N372 Co369 2.121 . S
N372 C374 1.375 . S
N372 C375 1.313 . S
C373 C374 1.338 . S
C373 N376 1.377 . S
C373 H393 0.926 1_554 S
C374 N372 1.375 . S
C374 C373 1.338 . S
C374 H378 0.931 . S
C375 N372 1.313 . S
C375 N376 1.344 . S
C375 H379 0.930 . S
N376 C373 1.377 . S
N376 C375 1.344 . S
O377 Co369 2.055 . S
O377 C381 1.253 . S
H378 C374 0.931 . S
H379 C375 0.930 . S
O380 Co369 2.039 . S
O380 C370 1.265 . S
C381 O377 1.253 . S
C381 O382 1.227 . S
O382 C381 1.227 . S
N383 Co369 2.140 . S
N383 C386 1.346 . S
N383 C387 1.345 . S
C384 C385 1.387 . S
C384 C388 1.391 . S
C385 C384 1.387 . S
C385 C386 1.369 . S
C385 H394 0.929 . S
C386 N383 1.346 . S
C386 C385 1.369 . S
C386 H389 0.928 . S
C387 N383 1.345 . S
C387 C388 1.371 . S
C387 H390 0.931 . S
C388 C384 1.391 . S
C388 C387 1.371 . S
C388 H395 0.930 . S
H389 C386 0.928 . S
H390 C387 0.931 . S
H391 C367 0.930 . S
H392 C364 0.930 . S
H393 C373 0.926 1_556 S
H394 C385 0.929 . S
H395 C388 0.930 . S
C396 C397 1.351 . S
C396 N399 1.368 . S
C396 H401 0.931 . S
C397 C396 1.351 . S
C397 N398 1.373 . S
C397 H425 0.930 . S
N398 C397 1.373 . S
N398 C400 1.340 . S
N399 C396 1.368 . S
N399 C400 1.321 . S
N399 Co402 2.135 . S
C400 N398 1.340 . S
C400 N399 1.321 . S
C400 H424 0.930 . S
H401 C396 0.931 . S
Co402 N399 2.135 . S
Co402 N405 2.121 . S
Co402 O410 2.055 . S
Co402 O413 2.039 . S
Co402 N416 2.140 . S
C403 O404 1.227 . S
C403 O413 1.265 . S
O404 C403 1.227 . S
N405 Co402 2.121 . S
N405 C407 1.375 . S
N405 C408 1.313 . S
C406 C407 1.338 1_545 S
C406 N409 1.377 . S
C406 H426 0.926 1_556 S
C407 N405 1.375 . S
C407 C406 1.338 1_565 S
C407 H411 0.931 . S
C408 N405 1.313 . S
C408 N409 1.344 1_565 S
C408 H412 0.930 . S
N409 C406 1.377 . S
N409 C408 1.344 1_545 S
O410 Co402 2.055 . S
O410 C414 1.253 . S
H411 C407 0.931 . S
H412 C408 0.930 . S
O413 Co402 2.039 . S
O413 C403 1.265 . S
C414 O410 1.253 . S
C414 O415 1.227 . S
O415 C414 1.227 . S
N416 Co402 2.140 . S
N416 C419 1.346 . S
N416 C420 1.345 . S
C417 C418 1.387 1_545 S
C417 C421 1.391 . S
C418 C417 1.387 1_565 S
C418 C419 1.369 . S
C418 H427 0.929 . S
C419 N416 1.346 . S
C419 C418 1.369 . S
C419 H422 0.928 . S
C420 N416 1.345 . S
C420 C421 1.371 1_565 S
C420 H423 0.931 . S
C421 C417 1.391 . S
C421 C420 1.371 1_545 S
C421 H428 0.930 . S
H422 C419 0.928 . S
H423 C420 0.931 . S
H424 C400 0.930 . S
H425 C397 0.930 . S
H426 C406 0.926 1_554 S
H427 C418 0.929 . S
H428 C421 0.930 . S
C429 C430 1.351 . S
C429 N432 1.368 . S
C429 H434 0.931 . S
C430 C429 1.351 . S
C430 N431 1.373 . S
C430 H458 0.930 . S
N431 C430 1.373 . S
N431 C433 1.340 . S
N432 C429 1.368 . S
N432 C433 1.321 . S
N432 Co435 2.135 . S
C433 N431 1.340 . S
C433 N432 1.321 . S
C433 H457 0.930 . S
H434 C429 0.931 . S
Co435 N432 2.135 . S
Co435 N438 2.121 . S
Co435 O443 2.055 . S
Co435 O446 2.039 . S
Co435 N449 2.140 . S
C436 O437 1.227 . S
C436 O446 1.265 . S
O437 C436 1.227 . S
N438 Co435 2.121 . S
N438 C440 1.375 . S
N438 C441 1.313 . S
C439 C440 1.338 1_655 S
C439 N442 1.377 . S
C439 H459 0.926 1_556 S
C440 N438 1.375 . S
C440 C439 1.338 1_455 S
C440 H444 0.931 . S
C441 N438 1.313 . S
C441 N442 1.344 1_455 S
C441 H445 0.930 . S
N442 C439 1.377 . S
N442 C441 1.344 1_655 S
O443 Co435 2.055 . S
O443 C447 1.253 . S
H444 C440 0.931 . S
H445 C441 0.930 . S
O446 Co435 2.039 . S
O446 C436 1.265 . S
C447 O443 1.253 . S
C447 O448 1.227 . S
O448 C447 1.227 . S
N449 Co435 2.140 . S
N449 C452 1.346 . S
N449 C453 1.345 . S
C450 C451 1.387 1_655 S
C450 C454 1.391 . S
C451 C450 1.387 1_455 S
C451 C452 1.369 . S
C451 H460 0.929 . S
C452 N449 1.346 . S
C452 C451 1.369 . S
C452 H455 0.928 . S
C453 N449 1.345 . S
C453 C454 1.371 1_455 S
C453 H456 0.931 . S
C454 C450 1.391 . S
C454 C453 1.371 1_655 S
C454 H461 0.930 . S
H455 C452 0.928 . S
H456 C453 0.931 . S
H457 C433 0.930 . S
H458 C430 0.930 . S
H459 C439 0.926 1_554 S
H460 C451 0.929 . S
H461 C454 0.930 . S
C462 C463 1.351 . S
C462 N465 1.368 . S
C462 H467 0.931 . S
C463 C462 1.351 . S
C463 N464 1.373 . S
C463 H491 0.930 . S
N464 C463 1.373 . S
N464 C466 1.340 . S
N465 C462 1.368 . S
N465 C466 1.321 . S
N465 Co468 2.135 . S
C466 N464 1.340 . S
C466 N465 1.321 . S
C466 H490 0.930 . S
H467 C462 0.931 . S
Co468 N465 2.135 . S
Co468 N471 2.121 . S
Co468 O476 2.055 . S
Co468 O479 2.039 . S
Co468 N482 2.140 . S
C469 O470 1.227 . S
C469 O479 1.265 . S
O470 C469 1.227 . S
N471 Co468 2.121 . S
N471 C473 1.375 . S
N471 C474 1.313 . S
C472 C473 1.338 . S
C472 N475 1.377 . S
C472 H492 0.926 1_556 S
C473 N471 1.375 . S
C473 C472 1.338 . S
C473 H477 0.931 . S
C474 N471 1.313 . S
C474 N475 1.344 . S
C474 H478 0.930 . S
N475 C472 1.377 . S
N475 C474 1.344 . S
O476 Co468 2.055 . S
O476 C480 1.253 . S
H477 C473 0.931 . S
H478 C474 0.930 . S
O479 Co468 2.039 . S
O479 C469 1.265 . S
C480 O476 1.253 . S
C480 O481 1.227 . S
O481 C480 1.227 . S
N482 Co468 2.140 . S
N482 C485 1.346 . S
N482 C486 1.345 . S
C483 C484 1.387 . S
C483 C487 1.391 . S
C484 C483 1.387 . S
C484 C485 1.369 . S
C484 H493 0.929 . S
C485 N482 1.346 . S
C485 C484 1.369 . S
C485 H488 0.928 . S
C486 N482 1.345 . S
C486 C487 1.371 . S
C486 H489 0.931 . S
C487 C483 1.391 . S
C487 C486 1.371 . S
C487 H494 0.930 . S
H488 C485 0.928 . S
H489 C486 0.931 . S
H490 C466 0.930 . S
H491 C463 0.930 . S
H492 C472 0.926 1_554 S
H493 C484 0.929 . S
H494 C487 0.930 . S
C495 C496 1.351 . S
C495 N498 1.368 . S
C495 H500 0.931 . S
C496 C495 1.351 . S
C496 N497 1.373 . S
C496 H524 0.930 . S
N497 C496 1.373 . S
N497 C499 1.340 . S
N498 C495 1.368 . S
N498 C499 1.321 . S
N498 Co501 2.135 . S
C499 N497 1.340 . S
C499 N498 1.321 . S
C499 H523 0.930 . S
H500 C495 0.931 . S
Co501 N498 2.135 . S
Co501 N504 2.121 . S
Co501 O509 2.055 . S
Co501 O512 2.039 . S
Co501 N515 2.140 . S
C502 O503 1.227 . S
C502 O512 1.265 . S
O503 C502 1.227 . S
N504 Co501 2.121 . S
N504 C506 1.375 . S
N504 C507 1.313 . S
C505 C506 1.338 . S
C505 N508 1.377 . S
C505 H525 0.930 . S
C506 N504 1.375 . S
C506 C505 1.338 . S
C506 H510 0.931 . S
C507 N504 1.313 . S
C507 N508 1.344 . S
C507 H511 0.930 . S
N508 C505 1.377 . S
N508 C507 1.344 . S
O509 Co501 2.055 . S
O509 C513 1.253 . S
H510 C506 0.931 . S
H511 C507 0.930 . S
O512 Co501 2.039 . S
O512 C502 1.265 . S
C513 O509 1.253 . S
C513 O514 1.227 . S
O514 C513 1.227 . S
N515 Co501 2.140 . S
N515 C518 1.346 . S
N515 C519 1.345 . S
C516 C517 1.387 . S
C516 C520 1.391 . S
C517 C516 1.387 . S
C517 C518 1.369 . S
C517 H526 0.929 . S
C518 N515 1.346 . S
C518 C517 1.369 . S
C518 H521 0.928 . S
C519 N515 1.345 . S
C519 C520 1.371 . S
C519 H522 0.931 . S
C520 C516 1.391 . S
C520 C519 1.371 . S
C520 H527 0.930 . S
H521 C518 0.928 . S
H522 C519 0.931 . S
H523 C499 0.930 . S
H524 C496 0.930 . S
H525 C505 0.930 . S
H526 C517 0.929 . S
H527 C520 0.930 . S
C528 C529 1.351 . S
C528 N531 1.368 . S
C528 H533 0.931 . S
C529 C528 1.351 . S
C529 N530 1.373 . S
C529 H557 0.930 . S
N530 C529 1.373 . S
N530 C532 1.340 . S
N531 C528 1.368 . S
N531 C532 1.321 . S
N531 Co534 2.135 . S
C532 N530 1.340 . S
C532 N531 1.321 . S
C532 H556 0.930 . S
H533 C528 0.931 . S
Co534 N531 2.135 . S
Co534 N537 2.121 . S
Co534 O542 2.055 . S
Co534 O545 2.039 . S
Co534 N548 2.140 . S
C535 O536 1.227 . S
C535 O545 1.265 . S
O536 C535 1.227 . S
N537 Co534 2.121 . S
N537 C539 1.375 . S
N537 C540 1.313 . S
C538 C539 1.338 . S
C538 N541 1.377 . S
C538 H558 0.930 . S
C539 N537 1.375 . S
C539 C538 1.338 . S
C539 H543 0.931 . S
C540 N537 1.313 . S
C540 N541 1.344 . S
C540 H544 0.930 . S
N541 C538 1.377 . S
N541 C540 1.344 . S
O542 Co534 2.055 . S
O542 C546 1.253 . S
H543 C539 0.931 . S
H544 C540 0.930 . S
O545 Co534 2.039 . S
O545 C535 1.265 . S
C546 O542 1.253 . S
C546 O547 1.227 . S
O547 C546 1.227 . S
N548 Co534 2.140 . S
N548 C551 1.346 . S
N548 C552 1.345 . S
C549 C550 1.387 . S
C549 C553 1.391 . S
C550 C549 1.387 . S
C550 C551 1.369 . S
C550 H559 0.929 . S
C551 N548 1.346 . S
C551 C550 1.369 . S
C551 H554 0.928 . S
C552 N548 1.345 . S
C552 C553 1.371 . S
C552 H555 0.931 . S
C553 C549 1.391 . S
C553 C552 1.371 . S
C553 H560 0.930 . S
H554 C551 0.928 . S
H555 C552 0.931 . S
H556 C532 0.930 . S
H557 C529 0.930 . S
H558 C538 0.930 . S
H559 C550 0.929 . S
H560 C553 0.930 . S
C561 C562 1.351 . S
C561 N564 1.368 . S
C561 H566 0.931 . S
C562 C561 1.351 . S
C562 N563 1.373 . S
C562 H590 0.930 . S
N563 C562 1.373 . S
N563 C565 1.340 . S
N564 C561 1.368 . S
N564 C565 1.321 . S
N564 Co567 2.135 . S
C565 N563 1.340 . S
C565 N564 1.321 . S
C565 H589 0.930 . S
H566 C561 0.931 . S
Co567 N564 2.135 . S
Co567 N570 2.121 . S
Co567 O575 2.055 . S
Co567 O578 2.039 . S
Co567 N581 2.140 . S
C568 O569 1.227 . S
C568 O578 1.265 . S
O569 C568 1.227 . S
N570 Co567 2.121 . S
N570 C572 1.375 . S
N570 C573 1.313 . S
C571 C572 1.338 . S
C571 N574 1.377 . S
C571 H591 0.930 . S
C572 N570 1.375 . S
C572 C571 1.338 . S
C572 H576 0.931 . S
C573 N570 1.313 . S
C573 N574 1.344 . S
C573 H577 0.930 . S
N574 C571 1.377 . S
N574 C573 1.344 . S
O575 Co567 2.055 . S
O575 C579 1.253 . S
H576 C572 0.931 . S
H577 C573 0.930 . S
O578 Co567 2.039 . S
O578 C568 1.265 . S
C579 O575 1.253 . S
C579 O580 1.227 . S
O580 C579 1.227 . S
N581 Co567 2.140 . S
N581 C584 1.346 . S
N581 C585 1.345 . S
C582 C583 1.387 . S
C582 C586 1.391 . S
C583 C582 1.387 . S
C583 C584 1.369 . S
C583 H592 0.929 . S
C584 N581 1.346 . S
C584 C583 1.369 . S
C584 H587 0.928 . S
C585 N581 1.345 . S
C585 C586 1.371 . S
C585 H588 0.931 . S
C586 C582 1.391 . S
C586 C585 1.371 . S
C586 H593 0.930 . S
H587 C584 0.928 . S
H588 C585 0.931 . S
H589 C565 0.930 . S
H590 C562 0.930 . S
H591 C571 0.930 . S
H592 C583 0.929 . S
H593 C586 0.930 . S
C7 C252 1.524 . S
C40 C285 1.524 . S
C73 C219 1.524 . S
C549 C106 1.524 . S
C139 C582 1.524 . S
C172 C516 1.524 . S
C205 C450 1.524 . S
C483 C238 1.524 . S
C417 C271 1.524 . S
C304 C153 1.524 . S
C337 C186 1.523 . S
C370 C120 1.524 . S
C403 C54 1.524 . S
C436 C87 1.524 . S
C21 C469 1.524 . S
C351 C502 1.524 . S
C535 C384 1.524 . S
C568 C318 1.524 . S
N508 N13 1.752 . S
N541 N46 1.752 . S
N79 N574 1.752 . S
N112 N211 1.752 . S
N145 N244 1.752 . S
N277 N178 1.752 . S
N310 N409 1.752 1_564 S
N442 N343 1.752 1_656 S
N475 N376 1.751 1_556 S
N2 C150 1.624 . S
C183 N35 1.625 . S
N68 C117 1.625 . S
C51 N101 1.624 . S
N134 C84 1.625 . S
C18 N167 1.625 . S
N200 C348 1.625 . S
C381 N233 1.625 . S
C315 N266 1.625 . S
N299 C249 1.625 . S
C282 N332 1.625 . S
N365 C216 1.625 . S
C546 N398 1.625 . S
C579 N431 1.625 . S
C513 N464 1.625 . S
C447 N497 1.624 . S
C480 N530 1.625 . S
N563 C414 1.625 . S
