# Generated by pormake.
# Topology umc, (4)-cn, num edge types: 1
# Building blocks:
#     Node 0, Type 0, BuildingBlock: ESEHIV_clean_sbu_0, # of connection points: 4
#     Node 1, Type 0, BuildingBlock: ESEHIV_clean_sbu_0, # of connection points: 4
#     Node 2, Type 0, BuildingBlock: ESEHIV_clean_sbu_0, # of connection points: 4
#     Node 3, Type 0, BuildingBlock: ESEHIV_clean_sbu_0, # of connection points: 4
#     Node 4, Type 0, BuildingBlock: ESEHIV_clean_sbu_0, # of connection points: 4
#     Node 5, Type 0, BuildingBlock: ESEHIV_clean_sbu_0, # of connection points: 4
#     Node 6, Type 0, BuildingBlock: ESEHIV_clean_sbu_0, # of connection points: 4
#     Node 7, Type 0, BuildingBlock: ESEHIV_clean_sbu_0, # of connection points: 4
#     Node 8, Type 0, BuildingBlock: ESEHIV_clean_sbu_0, # of connection points: 4
#     Node 9, Type 0, BuildingBlock: ESEHIV_clean_sbu_0, # of connection points: 4
#     Node 10, Type 0, BuildingBlock: ESEHIV_clean_sbu_0, # of connection points: 4
#     Node 11, Type 0, BuildingBlock: ESEHIV_clean_sbu_0, # of connection points: 4
#     Node 12, Type 0, BuildingBlock: ESEHIV_clean_sbu_0, # of connection points: 4
#     Node 13, Type 0, BuildingBlock: ESEHIV_clean_sbu_0, # of connection points: 4
#     Node 14, Type 0, BuildingBlock: ESEHIV_clean_sbu_0, # of connection points: 4
#     Node 15, Type 0, BuildingBlock: ESEHIV_clean_sbu_0, # of connection points: 4
#     Edge 16, Type (0, 0), BuildingBlock: UVAHIK_clean_linker_0, # of connection points: 2
#     Edge 17, Type (0, 0), BuildingBlock: UVAHIK_clean_linker_0, # of connection points: 2
#     Edge 18, Type (0, 0), BuildingBlock: UVAHIK_clean_linker_0, # of connection points: 2
#     Edge 19, Type (0, 0), BuildingBlock: UVAHIK_clean_linker_0, # of connection points: 2
#     Edge 20, Type (0, 0), BuildingBlock: UVAHIK_clean_linker_0, # of connection points: 2
#     Edge 21, Type (0, 0), BuildingBlock: UVAHIK_clean_linker_0, # of connection points: 2
#     Edge 22, Type (0, 0), BuildingBlock: UVAHIK_clean_linker_0, # of connection points: 2
#     Edge 23, Type (0, 0), BuildingBlock: UVAHIK_clean_linker_0, # of connection points: 2
#     Edge 24, Type (0, 0), BuildingBlock: UVAHIK_clean_linker_0, # of connection points: 2
#     Edge 25, Type (0, 0), BuildingBlock: UVAHIK_clean_linker_0, # of connection points: 2
#     Edge 26, Type (0, 0), BuildingBlock: UVAHIK_clean_linker_0, # of connection points: 2
#     Edge 27, Type (0, 0), BuildingBlock: UVAHIK_clean_linker_0, # of connection points: 2
#     Edge 28, Type (0, 0), BuildingBlock: UVAHIK_clean_linker_0, # of connection points: 2
#     Edge 29, Type (0, 0), BuildingBlock: UVAHIK_clean_linker_0, # of connection points: 2
#     Edge 30, Type (0, 0), BuildingBlock: UVAHIK_clean_linker_0, # of connection points: 2
#     Edge 31, Type (0, 0), BuildingBlock: UVAHIK_clean_linker_0, # of connection points: 2
#     Edge 32, Type (0, 0), BuildingBlock: UVAHIK_clean_linker_0, # of connection points: 2
#     Edge 33, Type (0, 0), BuildingBlock: UVAHIK_clean_linker_0, # of connection points: 2
#     Edge 34, Type (0, 0), BuildingBlock: UVAHIK_clean_linker_0, # of connection points: 2
#     Edge 35, Type (0, 0), BuildingBlock: UVAHIK_clean_linker_0, # of connection points: 2
#     Edge 36, Type (0, 0), BuildingBlock: UVAHIK_clean_linker_0, # of connection points: 2
#     Edge 37, Type (0, 0), BuildingBlock: UVAHIK_clean_linker_0, # of connection points: 2
#     Edge 38, Type (0, 0), BuildingBlock: UVAHIK_clean_linker_0, # of connection points: 2
#     Edge 39, Type (0, 0), BuildingBlock: UVAHIK_clean_linker_0, # of connection points: 2
#     Edge 40, Type (0, 0), BuildingBlock: UVAHIK_clean_linker_0, # of connection points: 2
#     Edge 41, Type (0, 0), BuildingBlock: UVAHIK_clean_linker_0, # of connection points: 2
#     Edge 42, Type (0, 0), BuildingBlock: UVAHIK_clean_linker_0, # of connection points: 2
#     Edge 43, Type (0, 0), BuildingBlock: UVAHIK_clean_linker_0, # of connection points: 2
#     Edge 44, Type (0, 0), BuildingBlock: UVAHIK_clean_linker_0, # of connection points: 2
#     Edge 45, Type (0, 0), BuildingBlock: UVAHIK_clean_linker_0, # of connection points: 2
#     Edge 46, Type (0, 0), BuildingBlock: UVAHIK_clean_linker_0, # of connection points: 2
#     Edge 47, Type (0, 0), BuildingBlock: UVAHIK_clean_linker_0, # of connection points: 2
# Relax obj value: 0.039
# Max RMSD: 0.092
# Mean RMSD: 0.092
data_MOF--net-umc--node1-ESEHIV_clean_sbu_0--edge1-UVAHIK_clean_linker_0
_symmetry_space_group_name_H-M    P1
_symmetry_Int_Tables_number       1
_symmetry_cell_setting            triclinic
loop_
_symmetry_equiv_pos_as_xyz
'x, y, z'
_cell_length_a     73.315241
_cell_length_b     43.097726
_cell_length_c     71.503774
_cell_angle_alpha  89.881931
_cell_angle_beta   89.867541
_cell_angle_gamma 89.829393
loop_
_atom_site_label
_atom_site_type_symbol
_atom_site_fract_x
_atom_site_fract_y
_atom_site_fract_z
_atom_type_partial_charge
Cu0 Cu 0.39105 0.10759 0.39958 0.0
N1 N 0.40332 0.07246 0.40843 0.0
N2 N 0.42881 0.04492 0.41344 0.0
C3 C 0.41985 0.06429 0.40178 0.0
C4 C 0.41735 0.04046 0.428 0.0
C5 C 0.40163 0.05754 0.4249 0.0
O6 O 0.39529 0.10746 0.37251 0.0
C7 C 0.39509 0.14335 0.43104 0.0
O8 O 0.38174 0.12496 0.43612 0.0
H9 H 0.42595 0.07501 0.38958 0.0
H10 H 0.39056 0.06098 0.4347 0.0
N11 N 0.3656 0.10776 0.40349 0.0
N12 N 0.33693 0.12611 0.4043 0.0
C13 C 0.35436 0.13146 0.39898 0.0
C14 C 0.35491 0.08651 0.41188 0.0
C15 C 0.33725 0.0978 0.41245 0.0
C16 C 0.38656 0.08603 0.36411 0.0
O17 O 0.37581 0.06798 0.37399 0.0
H18 H 0.35903 0.1526 0.39235 0.0
H19 H 0.35966 0.06455 0.41738 0.0
O20 O 0.40151 0.14128 0.41446 0.0
H21 H 0.42051 0.02733 0.44051 0.0
H22 H 0.32555 0.08598 0.41832 0.0
Cu23 Cu 0.65526 0.92031 0.38307 0.0
N24 N 0.64537 0.9594 0.38841 0.0
N25 N 0.6215 0.99054 0.39413 0.0
C26 C 0.62765 0.96531 0.38494 0.0
C27 C 0.63603 1.00127 0.40368 0.0
C28 C 0.6508 0.98205 0.40007 0.0
O29 O 0.6503 0.91375 0.35645 0.0
C30 C 0.64878 0.90092 0.41808 0.0
O31 O 0.6609 0.92301 0.42004 0.0
H32 H 0.61898 0.94949 0.3773 0.0
H33 H 0.664 0.98304 0.40675 0.0
N34 N 0.68047 0.91526 0.38677 0.0
N35 N 0.70683 0.8892 0.38948 0.0
C36 C 0.68866 0.88725 0.38673 0.0
C37 C 0.69391 0.93588 0.38972 0.0
C38 C 0.71022 0.91985 0.39131 0.0
C39 C 0.6606 0.93005 0.3459 0.0
O40 O 0.67302 0.94761 0.35374 0.0
H41 H 0.68134 0.86583 0.3844 0.0
H42 H 0.69202 0.96074 0.39051 0.0
O43 O 0.64369 0.89341 0.40163 0.0
H44 H 0.63576 0.02053 0.41338 0.0
H45 H 0.72349 0.92997 0.39379 0.0
Cu46 Cu 0.3882 0.94408 0.14405 0.0
N47 N 0.39413 0.98532 0.13871 0.0
N48 N 0.41288 0.02586 0.13541 0.0
C49 C 0.41138 0.99467 0.13571 0.0
C50 C 0.3958 0.03661 0.13842 0.0
C51 C 0.38425 1.01151 0.14052 0.0
O52 O 0.39332 0.94086 0.17087 0.0
C53 C 0.40215 0.92717 0.10999 0.0
O54 O 0.39266 0.95205 0.10568 0.0
H55 H 0.42279 0.97872 0.13503 0.0
H56 H 0.36994 1.01236 0.14417 0.0
N57 N 0.36376 0.93409 0.13925 0.0
N58 N 0.33851 0.90518 0.13688 0.0
C59 C 0.35601 0.90634 0.14276 0.0
C60 C 0.35079 0.9511 0.13074 0.0
C61 C 0.33518 0.93341 0.12935 0.0
C62 C 0.38116 0.95241 0.18163 0.0
O63 O 0.36559 0.9613 0.17428 0.0
H64 H 0.36318 0.88735 0.14944 0.0
H65 H 0.35266 0.97441 0.12549 0.0
O66 O 0.40262 0.91819 0.12702 0.0
H67 H 0.39199 0.0608 0.13966 0.0
H68 H 0.32257 0.94052 0.12277 0.0
Cu69 Cu 0.64629 0.13639 0.15258 0.0
N70 N 0.62238 0.14898 0.1581 0.0
N71 N 0.59182 0.14987 0.1572 0.0
C72 C 0.60732 0.13974 0.1489 0.0
C73 C 0.59745 0.16671 0.17201 0.0
C74 C 0.61624 0.16612 0.17252 0.0
O75 O 0.65092 0.09696 0.16544 0.0
C76 C 0.66181 0.13007 0.11538 0.0
O77 O 0.67757 0.1246 0.12344 0.0
H78 H 0.60782 0.12501 0.13668 0.0
H79 H 0.62473 0.17663 0.18306 0.0
N80 N 0.66303 0.16488 0.16255 0.0
N81 N 0.68786 0.19404 0.16768 0.0
C82 C 0.67771 0.17891 0.15477 0.0
C83 C 0.66396 0.17155 0.18088 0.0
C84 C 0.67902 0.18962 0.18406 0.0
C85 C 0.63863 0.07704 0.16929 0.0
O86 O 0.62227 0.08046 0.16217 0.0
H87 H 0.68135 0.17691 0.14017 0.0
H88 H 0.65476 0.1626 0.19141 0.0
O89 O 0.64766 0.13426 0.1254 0.0
H90 H 0.58865 0.17751 0.18229 0.0
H91 H 0.68331 0.19816 0.19756 0.0
Cu92 Cu 0.64816 0.89668 0.65125 0.0
N93 N 0.62352 0.88569 0.65462 0.0
N94 N 0.59306 0.88867 0.652 0.0
C95 C 0.60932 0.89972 0.64607 0.0
C96 C 0.59724 0.86619 0.66446 0.0
C97 C 0.61598 0.86437 0.66602 0.0
O98 O 0.65331 0.93406 0.66596 0.0
C99 C 0.65018 0.87668 0.6147 0.0
O100 O 0.64801 0.85012 0.62348 0.0
H101 H 0.61095 0.91813 0.63589 0.0
H102 H 0.62343 0.84891 0.67511 0.0
N103 N 0.6643 0.86597 0.66023 0.0
N104 N 0.68978 0.8378 0.66473 0.0
C105 C 0.68067 0.85732 0.65312 0.0
C106 C 0.66314 0.85163 0.67691 0.0
C107 C 0.67863 0.83412 0.67963 0.0
C108 C 0.64177 0.95528 0.66996 0.0
O109 O 0.62566 0.95496 0.66203 0.0
H110 H 0.68617 0.86646 0.64018 0.0
H111 H 0.65226 0.85495 0.68691 0.0
O112 O 0.65139 0.90145 0.62434 0.0
H113 H 0.58748 0.85276 0.67243 0.0
H114 H 0.6816 0.82036 0.69193 0.0
Cu115 Cu 0.3913 0.10683 0.64898 0.0
N116 N 0.39803 0.06928 0.63771 0.0
N117 N 0.41768 0.03135 0.6303 0.0
C118 C 0.41559 0.06014 0.63732 0.0
C119 C 0.40064 0.02189 0.62601 0.0
C120 C 0.38852 0.04548 0.6305 0.0
O121 O 0.39908 0.10221 0.67511 0.0
C122 C 0.39653 0.13993 0.61714 0.0
O123 O 0.38219 0.12306 0.61316 0.0
H124 H 0.42657 0.07401 0.64294 0.0
H125 H 0.37385 0.04487 0.62911 0.0
N126 N 0.36621 0.11639 0.64879 0.0
N127 N 0.34088 0.14586 0.64923 0.0
C128 C 0.35934 0.14548 0.64893 0.0
C129 C 0.35162 0.09757 0.6491 0.0
C130 C 0.336 0.11563 0.64936 0.0
C131 C 0.39351 0.077 0.68263 0.0
O132 O 0.38276 0.05881 0.67295 0.0
H133 H 0.36783 0.16597 0.64913 0.0
H134 H 0.35223 0.07251 0.64929 0.0
O135 O 0.40357 0.13778 0.63341 0.0
H136 H 0.39718 0.99948 0.62023 0.0
H137 H 0.32215 0.10705 0.6495 0.0
Cu138 Cu 0.66255 0.11179 0.88491 0.0
N139 N 0.65176 0.07422 0.89202 0.0
N140 N 0.62772 0.04416 0.8987 0.0
C141 C 0.63385 0.06922 0.88928 0.0
C142 C 0.64248 0.03271 0.90767 0.0
C143 C 0.65732 0.05131 0.90351 0.0
O144 O 0.6571 0.11643 0.85822 0.0
C145 C 0.65899 0.13583 0.91923 0.0
O146 O 0.67023 0.11238 0.92146 0.0
H147 H 0.62518 0.08523 0.88169 0.0
H148 H 0.67082 0.04939 0.90945 0.0
N149 N 0.68802 0.11497 0.88747 0.0
N150 N 0.71485 0.13972 0.88948 0.0
C151 C 0.69679 0.14228 0.88597 0.0
C152 C 0.70095 0.09407 0.892 0.0
C153 C 0.71751 0.10925 0.89321 0.0
C154 C 0.66636 0.09745 0.84828 0.0
O155 O 0.67783 0.07869 0.85677 0.0
H156 H 0.68985 0.16366 0.88244 0.0
H157 H 0.69851 0.0697 0.89453 0.0
O158 O 0.65279 0.14169 0.90291 0.0
H159 H 0.64243 1.01308 0.91713 0.0
H160 H 0.73038 0.09868 0.89701 0.0
Cu161 Cu 0.40076 0.91644 0.9005 0.0
N162 N 0.41157 0.95067 0.91199 0.0
N163 N 0.43641 0.97851 0.91898 0.0
C164 C 0.42741 0.96257 0.90566 0.0
C165 C 0.42568 0.97681 0.93432 0.0
C166 C 0.41041 0.95949 0.93 0.0
O167 O 0.40419 0.92331 0.87363 0.0
C168 C 0.40724 0.86193 0.92268 0.0
O169 O 0.39056 0.85286 0.91908 0.0
H170 H 0.43326 0.95637 0.89226 0.0
H171 H 0.40032 0.95112 0.93982 0.0
N172 N 0.37564 0.91232 0.90548 0.0
N173 N 0.34783 0.8907 0.90647 0.0
C174 C 0.36483 0.88932 0.89914 0.0
C175 C 0.36494 0.92941 0.91681 0.0
C176 C 0.3478 0.91616 0.91744 0.0
C177 C 0.39766 0.94921 0.868 0.0
O178 O 0.38881 0.96653 0.88013 0.0
H179 H 0.3696 0.87124 0.88983 0.0
H180 H 0.36941 0.94952 0.92454 0.0
O181 O 0.41448 0.88287 0.91247 0.0
H182 H 0.42922 0.98544 0.94804 0.0
H183 H 0.33648 0.92383 0.92603 0.0
Cu184 Cu 0.88019 0.59116 0.3826 0.0
N185 N 0.88809 0.55053 0.38736 0.0
N186 N 0.90902 0.51298 0.39089 0.0
C187 C 0.90597 0.54341 0.38766 0.0
C188 C 0.89227 0.50032 0.39267 0.0
C189 C 0.87936 0.52359 0.39055 0.0
O190 O 0.88823 0.5995 0.35692 0.0
C191 C 0.88212 0.60806 0.41854 0.0
O192 O 0.86959 0.58636 0.41817 0.0
H193 H 0.91655 0.56038 0.38513 0.0
H194 H 0.86474 0.52086 0.39126 0.0
N195 N 0.85483 0.59858 0.38339 0.0
N196 N 0.8292 0.62714 0.38459 0.0
C197 C 0.84763 0.62738 0.38399 0.0
C198 C 0.84045 0.57925 0.38364 0.0
C199 C 0.82465 0.59678 0.38438 0.0
C200 C 0.87916 0.58333 0.34524 0.0
O201 O 0.86631 0.56505 0.35173 0.0
H202 H 0.85592 0.6481 0.38428 0.0
H203 H 0.84128 0.55426 0.38313 0.0
O204 O 0.8901 0.61545 0.40327 0.0
H205 H 0.88951 0.47609 0.39545 0.0
H206 H 0.8109 0.58775 0.38447 0.0
Cu207 Cu 0.14478 0.39653 0.38327 0.0
N208 N 0.12057 0.38505 0.37846 0.0
N209 N 0.08999 0.38643 0.37847 0.0
C210 C 0.10547 0.39759 0.3862 0.0
C211 C 0.09566 0.36563 0.36559 0.0
C212 C 0.11448 0.36487 0.3656 0.0
O213 O 0.15072 0.43284 0.36775 0.0
C214 C 0.16134 0.40941 0.41882 0.0
O215 O 0.17666 0.41175 0.40936 0.0
H216 H 0.1059 0.41522 0.39694 0.0
H217 H 0.12309 0.35129 0.35643 0.0
N218 N 0.16075 0.3647 0.37561 0.0
N219 N 0.18372 0.33029 0.3737 0.0
C220 C 0.17334 0.34804 0.38522 0.0
C221 C 0.16323 0.35694 0.35758 0.0
C222 C 0.17726 0.33581 0.35635 0.0
C223 C 0.13914 0.45327 0.36258 0.0
O224 O 0.12259 0.45258 0.36958 0.0
H225 H 0.17538 0.34988 0.40016 0.0
H226 H 0.1557 0.36685 0.34602 0.0
O227 O 0.1466 0.40402 0.41008 0.0
H228 H 0.0869 0.35286 0.35621 0.0
H229 H 0.1825 0.32563 0.34359 0.0
Cu230 Cu 0.90721 0.38927 0.14966 0.0
N231 N 0.9317 0.37819 0.15358 0.0
N232 N 0.96216 0.38206 0.15483 0.0
C233 C 0.94615 0.39746 0.15334 0.0
C234 C 0.9576 0.35179 0.15595 0.0
C235 C 0.93885 0.34949 0.15511 0.0
O236 O 0.90115 0.42498 0.1653 0.0
C237 C 0.90504 0.37096 0.11279 0.0
O238 O 0.90657 0.3439 0.12115 0.0
H239 H 0.94503 0.42216 0.15123 0.0
H240 H 0.93102 0.32826 0.15503 0.0
N241 N 0.89163 0.35738 0.15766 0.0
N242 N 0.86651 0.32875 0.16217 0.0
C243 C 0.87438 0.35168 0.15203 0.0
C244 C 0.89473 0.3375 0.17182 0.0
C245 C 0.87936 0.31977 0.17457 0.0
C246 C 0.90801 0.45211 0.16511 0.0
O247 O 0.91959 0.4599 0.15189 0.0
H248 H 0.86753 0.36495 0.14125 0.0
H249 H 0.90711 0.33661 0.17999 0.0
O250 O 0.90442 0.3954 0.1228 0.0
H251 H 0.9671 0.33262 0.15708 0.0
H252 H 0.87774 0.30189 0.18509 0.0
Cu253 Cu 0.16465 0.61036 0.1494 0.0
N254 N 0.15741 0.56911 0.14617 0.0
N255 N 0.13744 0.5299 0.14558 0.0
C256 C 0.13974 0.56096 0.14526 0.0
C257 C 0.15448 0.51798 0.14662 0.0
C258 C 0.16678 0.54226 0.14714 0.0
O259 O 0.16041 0.61731 0.17615 0.0
C260 C 0.15041 0.62417 0.11492 0.0
O261 O 0.15877 0.59771 0.1117 0.0
H262 H 0.12878 0.57779 0.14485 0.0
H263 H 0.18137 0.54043 0.14901 0.0
N264 N 0.18922 0.61822 0.14382 0.0
N265 N 0.21484 0.64591 0.14028 0.0
C266 C 0.19748 0.64567 0.14671 0.0
C267 C 0.20171 0.60036 0.13516 0.0
C268 C 0.21756 0.61731 0.13306 0.0
C269 C 0.1721 0.60429 0.18685 0.0
O270 O 0.18644 0.59112 0.17916 0.0
H271 H 0.19075 0.66518 0.15331 0.0
H272 H 0.19933 0.57703 0.13024 0.0
O273 O 0.15071 0.63536 0.13145 0.0
H274 H 0.15779 0.49358 0.14786 0.0
H275 H 0.22989 0.60948 0.12616 0.0
Cu276 Cu 0.17427 0.45687 0.65437 0.0
N277 N 0.16865 0.49835 0.64926 0.0
N278 N 0.14863 0.53736 0.64552 0.0
C279 C 0.1516 0.50649 0.64428 0.0
C280 C 0.16468 0.54918 0.65143 0.0
C281 C 0.17696 0.52505 0.65385 0.0
O282 O 0.16223 0.45074 0.67865 0.0
C283 C 0.17462 0.44042 0.61801 0.0
O284 O 0.18839 0.45967 0.6196 0.0
H285 H 0.1411 0.48953 0.64148 0.0
H286 H 0.19041 0.52677 0.65989 0.0
N287 N 0.19932 0.44676 0.65588 0.0
N288 N 0.22435 0.41655 0.65564 0.0
C289 C 0.20591 0.41749 0.65524 0.0
C290 C 0.21412 0.4651 0.65665 0.0
C291 C 0.22954 0.44657 0.65651 0.0
C292 C 0.17152 0.44833 0.69367 0.0
O293 O 0.18904 0.44232 0.6925 0.0
H294 H 0.19725 0.3973 0.65406 0.0
H295 H 0.21382 0.49014 0.65705 0.0
O296 O 0.16507 0.43445 0.63254 0.0
H297 H 0.16717 0.57328 0.65472 0.0
H298 H 0.24348 0.45467 0.65709 0.0
Cu299 Cu 0.91032 0.64018 0.65302 0.0
N300 N 0.9344 0.65269 0.65808 0.0
N301 N 0.96506 0.65279 0.65808 0.0
C302 C 0.94975 0.6409 0.65035 0.0
C303 C 0.95899 0.6733 0.67095 0.0
C304 C 0.94019 0.67323 0.67088 0.0
O305 O 0.90555 0.60194 0.667 0.0
C306 C 0.89429 0.62725 0.61719 0.0
O307 O 0.87947 0.62005 0.62659 0.0
H308 H 0.94959 0.62355 0.63945 0.0
H309 H 0.93147 0.68682 0.67988 0.0
N310 N 0.89339 0.66961 0.66208 0.0
N311 N 0.86816 0.69857 0.66659 0.0
C312 C 0.87811 0.68163 0.65421 0.0
C313 C 0.89298 0.67926 0.67994 0.0
C314 C 0.87773 0.69725 0.6827 0.0
C315 C 0.91696 0.57986 0.66915 0.0
O316 O 0.93239 0.58041 0.65981 0.0
H317 H 0.87394 0.67687 0.64001 0.0
H318 H 0.90268 0.67242 0.69054 0.0
O319 O 0.90851 0.63543 0.62603 0.0
H320 H 0.96743 0.68669 0.68031 0.0
H321 H 0.87387 0.70793 0.6958 0.0
Cu322 Cu 0.15361 0.63173 0.90221 0.0
N323 N 0.14369 0.59566 0.91252 0.0
N324 N 0.11957 0.56531 0.91845 0.0
C325 C 0.12827 0.5831 0.9057 0.0
C326 C 0.13011 0.56644 0.9339 0.0
C327 C 0.14491 0.58532 0.93024 0.0
O328 O 0.15063 0.62632 0.87513 0.0
C329 C 0.14594 0.68471 0.92528 0.0
O330 O 0.16216 0.69543 0.92106 0.0
H331 H 0.12238 0.59007 0.89247 0.0
H332 H 0.15464 0.5936 0.9404 0.0
N333 N 0.17859 0.63723 0.90752 0.0
N334 N 0.20619 0.65954 0.90843 0.0
C335 C 0.18914 0.66075 0.90131 0.0
C336 C 0.18949 0.62011 0.91862 0.0
C337 C 0.20651 0.63378 0.9192 0.0
C338 C 0.16028 0.60388 0.86887 0.0
O339 O 0.17125 0.58958 0.8806 0.0
H340 H 0.18423 0.67885 0.89207 0.0
H341 H 0.1853 0.59948 0.92608 0.0
O342 O 0.13911 0.66316 0.91531 0.0
H343 H 0.12668 0.55633 0.94732 0.0
H344 H 0.21799 0.626 0.92748 0.0
Cu345 Cu 0.8967 0.42132 0.8819 0.0
N346 N 0.90642 0.46002 0.88831 0.0
N347 N 0.92983 0.49139 0.89498 0.0
C348 C 0.92422 0.46613 0.88551 0.0
C349 C 0.91484 0.50187 0.90402 0.0
C350 C 0.90039 0.48248 0.89986 0.0
O351 O 0.90197 0.41639 0.85525 0.0
C352 C 0.90304 0.39971 0.91642 0.0
O353 O 0.89076 0.42155 0.91888 0.0
H354 H 0.93326 0.45058 0.87802 0.0
H355 H 0.88693 0.48336 0.90603 0.0
N356 N 0.87143 0.4162 0.88528 0.0
N357 N 0.84501 0.3903 0.88792 0.0
C358 C 0.8631 0.38842 0.88433 0.0
C359 C 0.85818 0.43665 0.88955 0.0
C360 C 0.84189 0.42078 0.89118 0.0
C361 C 0.89248 0.43475 0.84513 0.0
O362 O 0.8806 0.45299 0.85346 0.0
H363 H 0.87036 0.36725 0.881 0.0
H364 H 0.86019 0.46127 0.89147 0.0
O365 O 0.90825 0.39329 0.89982 0.0
H366 H 0.91453 0.5212 0.91365 0.0
H367 H 0.82887 0.43099 0.89481 0.0
C368 C 0.41866 0.14749 0.45562 0.0
C369 C 0.40404 0.16114 0.44595 0.0
C370 C 0.42254 0.15627 0.47406 0.0
C371 C 0.39634 0.18573 0.51426 0.0
H372 H 0.44209 0.17633 0.54077 0.0
C373 C 0.39527 0.18226 0.59378 0.0
C374 C 0.40498 0.15748 0.60173 0.0
C375 C 0.39899 0.192 0.57549 0.0
C376 C 0.4292 0.17906 0.53358 0.0
H377 H 0.3829 0.19609 0.4473 0.0
H378 H 0.39026 0.21281 0.47899 0.0
H379 H 0.44195 0.1774 0.50653 0.0
H380 H 0.42669 0.12428 0.59725 0.0
H381 H 0.43312 0.14083 0.5652 0.0
H382 H 0.38342 0.18606 0.54098 0.0
C383 C 0.3985 0.19476 0.47265 0.0
C384 C 0.42912 0.17968 0.51393 0.0
C385 C 0.39448 0.18566 0.45434 0.0
C386 C 0.41937 0.14404 0.59158 0.0
C387 C 0.42295 0.15347 0.57315 0.0
C388 C 0.39642 0.18512 0.53379 0.0
C389 C 0.41184 0.1789 0.48317 0.0
C390 C 0.41262 0.18249 0.50398 0.0
C391 C 0.41217 0.17655 0.56454 0.0
C392 C 0.41278 0.18125 0.54378 0.0
H393 H 0.42587 0.12788 0.44963 0.0
H394 H 0.43282 0.14333 0.48165 0.0
H395 H 0.38329 0.1871 0.50726 0.0
H396 H 0.38388 0.19258 0.60122 0.0
H397 H 0.3907 0.21034 0.56953 0.0
C398 C 0.65287 0.84986 0.58387 0.0
C399 C 0.64962 0.8773 0.59398 0.0
C400 C 0.65086 0.84922 0.56444 0.0
C401 C 0.62671 0.88745 0.52595 0.0
H402 H 0.66398 0.85061 0.49443 0.0
C403 C 0.63134 0.91017 0.44689 0.0
C404 C 0.64033 0.88886 0.43526 0.0
C405 C 0.62928 0.90421 0.46597 0.0
C406 C 0.65318 0.8603 0.50298 0.0
H407 H 0.64188 0.9257 0.59158 0.0
H408 H 0.63817 0.9245 0.55751 0.0
H409 H 0.66787 0.85077 0.52824 0.0
H410 H 0.65328 0.84381 0.43406 0.0
H411 H 0.64898 0.83246 0.46739 0.0
H412 H 0.61189 0.89679 0.50081 0.0
C413 C 0.64229 0.9035 0.56471 0.0
C414 C 0.65553 0.86065 0.52239 0.0
C415 C 0.64459 0.90427 0.58417 0.0
C416 C 0.64591 0.86027 0.44269 0.0
C417 C 0.64379 0.85416 0.46187 0.0
C418 C 0.62422 0.88674 0.50655 0.0
C419 C 0.64529 0.87588 0.55466 0.0
C420 C 0.64248 0.87469 0.53407 0.0
C421 C 0.63625 0.87674 0.47392 0.0
C422 C 0.63758 0.87367 0.49472 0.0
H423 H 0.65678 0.82868 0.59101 0.0
H424 H 0.6532 0.82759 0.55712 0.0
H425 H 0.61625 0.8979 0.53463 0.0
H426 H 0.62732 0.93272 0.44151 0.0
H427 H 0.62359 0.92238 0.47465 0.0
C428 C 0.4203 0.92686 0.08074 0.0
C429 C 0.41102 0.90999 0.0946 0.0
C430 C 0.42498 0.91304 0.06374 0.0
C431 C 0.40677 0.85594 0.03194 0.0
H432 H 0.45008 0.87427 1.00277 0.0
C433 C 0.40739 0.83229 0.9529 0.0
C434 C 0.41461 0.85619 0.94173 0.0
C435 C 0.41089 0.83121 0.97214 0.0
C436 C 0.43784 0.86903 1.01065 0.0
H437 H 0.39994 0.86512 0.10194 0.0
H438 H 0.40787 0.84081 0.07188 0.0
H439 H 0.4494 0.88625 0.03613 0.0
H440 H 0.43217 0.89661 0.94194 0.0
H441 H 0.43785 0.8953 0.97534 0.0
H442 H 0.39468 0.84065 1.00646 0.0
C443 C 0.41173 0.86469 0.07432 0.0
C444 C 0.43752 0.87572 0.02982 0.0
C445 C 0.40736 0.87845 0.09157 0.0
C446 C 0.42646 0.87771 0.95005 0.0
C447 C 0.42975 0.8769 0.96933 0.0
C448 C 0.407 0.84959 1.01274 0.0
C449 C 0.42013 0.88215 0.06002 0.0
C450 C 0.42181 0.86997 0.04059 0.0
C451 C 0.42148 0.8543 0.98079 0.0
C452 C 0.42236 0.85679 1.00168 0.0
H453 H 0.4231 0.95132 0.08269 0.0
H454 H 0.43125 0.92726 0.05301 0.0
H455 H 0.39436 0.85163 0.03975 0.0
H456 H 0.3983 0.81521 0.94692 0.0
H457 H 0.40468 0.81291 0.98034 0.0
C458 C 0.63837 0.14585 0.94607 0.0
C459 C 0.65423 0.15359 0.93607 0.0
C460 C 0.63751 0.15054 0.96547 0.0
C461 C 0.66959 0.14622 1.00376 0.0
H462 H 0.62968 0.17202 0.03577 0.0
C463 C 0.67619 0.14071 0.08413 0.0
C464 C 0.66058 0.13396 0.09479 0.0
C465 C 0.67483 0.14634 0.06489 0.0
C466 C 0.64088 0.16429 0.02705 0.0
H467 H 0.68097 0.17432 0.93805 0.0
H468 H 0.67935 0.18318 0.97173 0.0
H469 H 0.62736 0.17917 1.0019 0.0
H470 H 0.63132 0.12723 0.0935 0.0
H471 H 0.62903 0.13553 0.05989 0.0
H472 H 0.68283 0.12989 0.02843 0.0
C473 C 0.66762 0.17339 0.96472 0.0
C474 C 0.63957 0.16867 1.00765 0.0
C475 C 0.66843 0.16881 0.9454 0.0
C476 C 0.64361 0.13249 0.0857 0.0
C477 C 0.64229 0.13759 0.0664 0.0
C478 C 0.67079 0.14138 0.02304 0.0
C479 C 0.6526 0.1627 0.97511 0.0
C480 C 0.65396 0.1598 0.99581 0.0
C481 C 0.65786 0.14482 0.05569 0.0
C482 C 0.65649 0.15036 0.03504 0.0
H483 H 0.62749 0.13321 0.93928 0.0
H484 H 0.62579 0.14197 0.97312 0.0
H485 H 0.68075 0.13843 0.99497 0.0
H486 H 0.68943 0.14243 0.09073 0.0
H487 H 0.68712 0.15242 0.05732 0.0
C488 C 0.91067 0.63029 0.5863 0.0
C489 C 0.89427 0.62739 0.59642 0.0
C490 C 0.9106 0.63106 0.5667 0.0
C491 C 0.88121 0.61154 0.52599 0.0
H492 H 0.91487 0.6636 0.4982 0.0
C493 C 0.87105 0.63011 0.44823 0.0
C494 C 0.88597 0.62269 0.43673 0.0
C495 C 0.87342 0.6351 0.46731 0.0
C496 C 0.90547 0.64886 0.5058 0.0
H497 H 0.86492 0.6236 0.59383 0.0
H498 H 0.8647 0.62575 0.55984 0.0
H499 H 0.91604 0.66261 0.53246 0.0
H500 H 0.91526 0.61665 0.43585 0.0
H501 H 0.91953 0.62567 0.46958 0.0
H502 H 0.87043 0.59823 0.49946 0.0
C503 C 0.87772 0.62657 0.56694 0.0
C504 C 0.90616 0.64815 0.52543 0.0
C505 C 0.87781 0.62547 0.58649 0.0
C506 C 0.90359 0.62282 0.4444 0.0
C507 C 0.90599 0.62776 0.46369 0.0
C508 C 0.88041 0.61253 0.5065 0.0
C509 C 0.89411 0.62921 0.55672 0.0
C510 C 0.89391 0.62964 0.5358 0.0
C511 C 0.89077 0.63251 0.47543 0.0
C512 C 0.89237 0.6314 0.49617 0.0
H513 H 0.92361 0.63175 0.59351 0.0
H514 H 0.92351 0.63266 0.5594 0.0
H515 H 0.8719 0.59632 0.53334 0.0
H516 H 0.85732 0.63013 0.44264 0.0
H517 H 0.86149 0.63936 0.47592 0.0
C518 C 0.15312 0.42609 0.59189 0.0
C519 C 0.17085 0.42752 0.59927 0.0
C520 C 0.15052 0.42104 0.57262 0.0
C521 C 0.17545 0.43509 0.52875 0.0
H522 H 0.13952 0.38292 0.50477 0.0
C523 C 0.17782 0.41318 0.44948 0.0
C524 C 0.16132 0.41138 0.43959 0.0
C525 C 0.17789 0.41419 0.46904 0.0
C526 C 0.14949 0.39792 0.51125 0.0
H527 H 0.19956 0.42217 0.59277 0.0
H528 H 0.19506 0.41272 0.55962 0.0
H529 H 0.1411 0.38475 0.53901 0.0
H530 H 0.1319 0.40924 0.44263 0.0
H531 H 0.13202 0.41166 0.47674 0.0
H532 H 0.18378 0.44868 0.50131 0.0
C533 C 0.18317 0.41632 0.56839 0.0
C534 C 0.1504 0.39888 0.53087 0.0
C535 C 0.18574 0.42148 0.58743 0.0
C536 C 0.14487 0.41063 0.44978 0.0
C537 C 0.14494 0.41178 0.46938 0.0
C538 C 0.17449 0.43427 0.50926 0.0
C539 C 0.16563 0.41735 0.56057 0.0
C540 C 0.16362 0.41709 0.53982 0.0
C541 C 0.16146 0.41363 0.47929 0.0
C542 C 0.16171 0.41534 0.50018 0.0
H543 H 0.14142 0.43096 0.60069 0.0
H544 H 0.13682 0.42186 0.567 0.0
H545 H 0.18551 0.44999 0.53519 0.0
H546 H 0.19075 0.41349 0.44213 0.0
H547 H 0.19091 0.415 0.47613 0.0
C548 C 0.92124 0.40794 0.94473 0.0
C549 C 0.91179 0.38713 0.93327 0.0
C550 C 0.92365 0.40164 0.96373 0.0
C551 C 0.89997 0.35827 1.00108 0.0
H552 H 0.93795 0.39347 0.03209 0.0
C553 C 0.90159 0.34543 0.08169 0.0
C554 C 0.9054 0.37231 0.09208 0.0
C555 C 0.90328 0.34537 0.06223 0.0
C556 C 0.9272 0.38371 0.02359 0.0
H557 H 0.89837 0.34261 0.93222 0.0
H558 H 0.90329 0.33064 0.96536 0.0
H559 H 0.94163 0.39296 0.99814 0.0
H560 H 0.91383 0.42035 0.09013 0.0
H561 H 0.91698 0.42017 0.05596 0.0
H562 H 0.88564 0.34885 0.0266 0.0
C563 C 0.90857 0.35221 0.95979 0.0
C564 C 0.9293 0.38333 1.00412 0.0
C565 C 0.90608 0.35867 0.94072 0.0
C566 C 0.91071 0.39934 0.08251 0.0
C567 C 0.91267 0.39914 0.06299 0.0
C568 C 0.89799 0.35831 1.02054 0.0
C569 C 0.91657 0.37434 0.97173 0.0
C570 C 0.91558 0.37107 0.99254 0.0
C571 C 0.90908 0.37207 0.05266 0.0
C572 C 0.91144 0.37144 0.032 0.0
H573 H 0.92534 0.43041 0.93935 0.0
H574 H 0.9297 0.41947 0.97234 0.0
H575 H 0.8889 0.34924 0.99273 0.0
H576 H 0.89745 0.32421 0.08863 0.0
H577 H 0.90049 0.32413 0.05469 0.0
C578 C 0.14598 0.6718 0.09505 0.0
C579 C 0.14212 0.6405 0.09882 0.0
C580 C 0.14193 0.68457 0.07743 0.0
C581 C 0.11643 0.67107 0.03307 0.0
H582 H 0.15901 0.70657 1.00913 0.0
C583 C 0.12746 0.66789 0.95313 0.0
C584 C 0.13883 0.68997 0.94452 0.0
C585 C 0.12434 0.66864 0.97247 0.0
C586 C 0.14676 0.69744 1.01557 0.0
H587 H 0.13001 0.59868 0.08775 0.0
H588 H 0.12247 0.62101 0.05742 0.0
H589 H 0.15932 0.69664 0.0426 0.0
H590 H 0.15453 0.73171 0.94932 0.0
H591 H 0.1485 0.7338 0.98284 0.0
H592 H 0.10396 0.67128 1.00601 0.0
C593 C 0.12866 0.63578 0.06785 0.0
C594 C 0.14699 0.6917 0.03486 0.0
C595 C 0.13301 0.62294 0.08524 0.0
C596 C 0.1458 0.71421 0.95551 0.0
C597 C 0.14251 0.71518 0.97481 0.0
C598 C 0.11613 0.67708 1.0138 0.0
C599 C 0.13365 0.6664 0.06345 0.0
C600 C 0.13203 0.67762 0.04376 0.0
C601 C 0.13233 0.69171 0.98371 0.0
C602 C 0.1315 0.68952 1.00464 0.0
H603 H 0.15325 0.68569 0.10519 0.0
H604 H 0.14587 0.70829 0.07448 0.0
H605 H 0.1046 0.66051 0.03954 0.0
H606 H 0.12197 0.6487 0.94518 0.0
H607 H 0.11657 0.64995 0.97868 0.0
C608 C 0.59541 1.00913 0.41324 0.0
C609 C 0.6026 0.9996 0.39593 0.0
C610 C 0.57662 1.01426 0.41541 0.0
C611 C 0.53213 0.99509 0.3928 0.0
H612 H 0.51307 0.05756 0.42657 0.0
C613 C 0.45603 0.03191 0.39447 0.0
C614 C 0.44785 0.0364 0.41207 0.0
C615 C 0.47479 0.02632 0.3929 0.0
C616 C 0.51819 0.0398 0.41722 0.0
H617 H 0.59588 0.98946 0.36716 0.0
H618 H 0.56331 0.99948 0.37064 0.0
H619 H 0.54598 0.05181 0.4227 0.0
H620 H 0.45306 0.03831 0.44186 0.0
H621 H 0.48586 0.02858 0.43914 0.0
H622 H 0.50428 0.98363 0.38704 0.0
C623 C 0.57198 1.00197 0.38278 0.0
C624 C 0.53709 0.03644 0.41501 0.0
C625 C 0.59069 0.99648 0.3807 0.0
C626 C 0.45887 0.03462 0.42812 0.0
C627 C 0.4777 0.0294 0.42654 0.0
C628 C 0.51325 0.99869 0.39487 0.0
C629 C 0.56457 1.01032 0.40027 0.0
C630 C 0.54437 1.01407 0.40272 0.0
C631 C 0.48591 0.02544 0.4089 0.0
C632 C 0.50603 0.0211 0.40708 0.0
H633 H 0.6042 1.01128 0.42531 0.0
H634 H 0.57151 0.02028 0.42915 0.0
H635 H 0.5371 0.97708 0.38355 0.0
H636 H 0.44789 0.03304 0.38187 0.0
H637 H 0.48068 0.02355 0.3791 0.0
C638 C 0.44517 0.0305 0.12575 0.0
C639 C 0.4297 0.04322 0.13455 0.0
C640 C 0.46197 0.04568 0.12642 0.0
C641 C 0.48729 0.10249 0.15481 0.0
H642 H 0.52177 0.09875 0.11366 0.0
C643 C 0.5585 0.15976 0.15886 0.0
C644 C 0.57326 0.14161 0.15256 0.0
C645 C 0.5405 0.15072 0.15536 0.0
C646 C 0.51233 0.09986 0.12532 0.0
H647 H 0.41973 0.08259 0.15045 0.0
H648 H 0.44897 0.10945 0.15127 0.0
H649 H 0.49105 0.07832 0.10959 0.0
H650 H 0.58043 0.09962 0.13746 0.0
H651 H 0.5492 0.08414 0.13125 0.0
H652 H 0.50866 0.12373 0.17059 0.0
C653 C 0.44815 0.08739 0.14411 0.0
C654 C 0.49471 0.08812 0.12299 0.0
C655 C 0.43131 0.07216 0.14344 0.0
C656 C 0.56952 0.11453 0.1423 0.0
C657 C 0.55155 0.10558 0.13873 0.0
C658 C 0.5049 0.11432 0.15711 0.0
C659 C 0.46377 0.07409 0.13586 0.0
C660 C 0.48203 0.08888 0.13779 0.0
C661 C 0.53681 0.12338 0.14538 0.0
C662 C 0.51771 0.11276 0.14248 0.0
H663 H 0.44437 1.00849 0.11854 0.0
H664 H 0.47369 0.03455 0.12004 0.0
H665 H 0.47802 0.10305 0.16662 0.0
H666 H 0.5608 0.18098 0.16654 0.0
H667 H 0.52946 0.16519 0.16045 0.0
C668 C 0.57268 0.93132 0.64154 0.0
C669 C 0.57509 0.90039 0.64739 0.0
C670 C 0.55524 0.94313 0.63789 0.0
C671 C 0.50631 0.92936 0.64832 0.0
H672 H 0.49895 0.98932 0.60853 0.0
C673 C 0.43501 0.9818 0.63173 0.0
C674 C 0.4346 1.01415 0.62917 0.0
C675 C 0.45169 0.96575 0.6323 0.0
C676 C 0.50078 0.97272 0.61976 0.0
H677 H 0.56091 0.85748 0.6535 0.0
H678 H 0.5305 0.87799 0.64702 0.0
H679 H 0.52884 0.96536 0.61264 0.0
H680 H 0.45134 0.05473 0.62433 0.0
H681 H 0.48029 0.02697 0.62538 0.0
H682 H 0.47825 0.93697 0.6555 0.0
C683 C 0.54211 0.8933 0.64556 0.0
C684 C 0.51796 0.959 0.62216 0.0
C685 C 0.55957 0.88149 0.64926 0.0
C686 C 0.45119 0.02988 0.62654 0.0
C687 C 0.46779 1.01388 0.62696 0.0
C688 C 0.48911 0.94302 0.64588 0.0
C689 C 0.53968 0.92436 0.63993 0.0
C690 C 0.52105 0.93746 0.63664 0.0
C691 C 0.46831 0.98167 0.6301 0.0
C692 C 0.48619 0.96521 0.63173 0.0
H693 H 0.58422 0.94677 0.64027 0.0
H694 H 0.55395 0.9673 0.63393 0.0
H695 H 0.50819 0.91319 0.65976 0.0
H696 H 0.42249 0.96904 0.63391 0.0
H697 H 0.45158 0.9409 0.63457 0.0
C698 C 0.59643 0.04032 0.88603 0.0
C699 C 0.60886 0.03491 0.90064 0.0
C700 C 0.57788 0.03367 0.88828 0.0
C701 C 0.54234 0.02438 0.92448 0.0
H702 H 0.51479 0.98673 0.88432 0.0
C703 C 0.46686 0.98596 0.93339 0.0
C704 C 0.45521 0.98845 0.91786 0.0
C705 C 0.48553 0.99231 0.93166 0.0
C706 C 0.52217 0.99771 0.8956 0.0
H707 H 0.61145 0.01794 0.92906 0.0
H708 H 0.57904 1.00617 0.93298 0.0
H709 H 0.54742 0.99514 0.88053 0.0
H710 H 0.45393 1.001 0.88857 0.0
H711 H 0.48632 1.01281 0.88559 0.0
H712 H 0.51707 0.02735 0.93947 0.0
C713 C 0.58368 1.01572 0.91979 0.0
C714 C 0.54094 1.0024 0.89344 0.0
C715 C 0.6023 0.02213 0.91747 0.0
C716 C 0.46258 0.9985 0.90073 0.0
C717 C 0.4812 1.00507 0.89902 0.0
C718 C 0.52352 0.01986 0.92661 0.0
C719 C 0.57121 0.02163 0.90526 0.0
C720 C 0.55128 1.01585 0.90782 0.0
C721 C 0.49304 1.00151 0.91437 0.0
C722 C 0.51313 1.00653 0.91217 0.0
H723 H 0.60105 0.04993 0.87286 0.0
H724 H 0.56867 0.03873 0.87684 0.0
H725 H 0.54983 0.03519 0.93574 0.0
H726 H 0.46172 0.97783 0.94672 0.0
H727 H 0.49418 0.98894 0.94376 0.0
C728 C 0.92856 0.46623 0.38692 0.0
C729 C 0.9266 0.49768 0.39176 0.0
C730 C 0.94582 0.45207 0.38683 0.0
C731 C 0.99315 0.46118 0.40469 0.0
H732 H 1.00616 0.40834 0.36291 0.0
C733 C 0.06787 0.42676 0.38862 0.0
C734 C 0.07146 0.39674 0.38181 0.0
C735 C 0.04993 0.43729 0.39094 0.0
C736 C 1.0027 0.42266 0.37483 0.0
H737 H 0.94127 0.53847 0.40101 0.0
H738 H 0.9712 0.51408 0.40058 0.0
H739 H 0.97535 0.42947 0.36513 0.0
H740 H 0.0588 0.35401 0.37266 0.0
H741 H 0.02754 0.37229 0.37677 0.0
H742 H 1.02053 0.45462 0.41431 0.0
C743 C 0.95945 0.50023 0.39692 0.0
C744 C 0.98499 0.43479 0.37611 0.0
C745 C 0.94226 0.51436 0.39693 0.0
C746 C 0.05659 0.37739 0.37767 0.0
C747 C 0.03863 0.38792 0.38001 0.0
C748 C 1.01084 0.44903 0.40343 0.0
C749 C 0.96151 0.46896 0.39171 0.0
C750 C 0.98003 0.45449 0.39095 0.0
C751 C 0.03505 0.4181 0.38655 0.0
C752 C 1.01593 0.42985 0.38838 0.0
H753 H 0.91683 0.45272 0.38278 0.0
H754 H 0.94687 0.42786 0.38294 0.0
H755 H 0.98974 0.47582 0.41649 0.0
H756 H 0.07891 0.44255 0.39167 0.0
H757 H 0.04774 0.46084 0.39572 0.0
C758 C 0.10443 0.52834 0.15293 0.0
C759 C 0.12027 0.51347 0.14627 0.0
C760 C 0.08773 0.51287 0.1534 0.0
C761 C 0.06681 0.43504 0.15365 0.0
H762 H 1.02343 0.48077 0.1392 0.0
C763 C 0.99527 0.37785 0.14783 0.0
C764 C 0.98025 0.39531 0.1542 0.0
C765 C 1.01264 0.3912 0.14659 0.0
C766 C 0.03536 0.46773 0.14348 0.0
H767 H 0.13084 0.47033 0.13504 0.0
H768 H 0.10158 0.44317 0.1359 0.0
H769 H 0.05312 0.50568 0.13727 0.0
H770 H 0.97198 0.44025 0.16492 0.0
H771 H 1.00213 0.46342 0.1628 0.0
H772 H 0.04895 0.39711 0.15997 0.0
C773 C 0.1022 0.46687 0.14086 0.0
C774 C 0.05241 0.48202 0.14235 0.0
C775 C 0.11897 0.48243 0.14036 0.0
C776 C 0.98312 0.42627 0.15959 0.0
C777 C 1.00044 0.43959 0.15836 0.0
C778 C 0.0497 0.42071 0.1548 0.0
C779 C 0.08634 0.48201 0.14727 0.0
C780 C 0.06834 0.46601 0.14761 0.0
C781 C 1.01541 0.42233 0.15169 0.0
C782 C 0.03374 0.43701 0.14992 0.0
H783 H 0.10489 0.5519 0.15807 0.0
H784 H 0.07591 0.52503 0.15883 0.0
H785 H 0.07877 0.42212 0.15798 0.0
H786 H 0.99356 0.35408 0.14336 0.0
H787 H 1.0238 0.37731 0.14121 0.0
C788 C 0.98813 0.61558 0.64566 0.0
C789 C 0.98386 0.64382 0.65457 0.0
C790 C 1.00631 0.60626 0.64318 0.0
C791 C 0.05216 0.61717 0.66302 0.0
H792 H 0.06898 0.57996 0.61677 0.0
C793 C 0.12766 0.58104 0.65329 0.0
C794 C 0.13111 0.55287 0.64399 0.0
C795 C 0.11016 0.59429 0.65326 0.0
C796 C 0.0645 0.58997 0.62988 0.0
H797 H 0.99578 0.68481 0.66719 0.0
H798 H 0.02729 0.66828 0.66317 0.0
H799 H 0.03755 0.59824 0.61933 0.0
H800 H 0.11882 0.51764 0.62646 0.0
H801 H 0.08842 0.53994 0.62696 0.0
H802 H 0.07883 0.6082 0.67383 0.0
C803 C 1.01651 0.65321 0.65828 0.0
C804 C 0.04646 0.60052 0.63131 0.0
C805 C 0.99836 0.66266 0.66061 0.0
C806 C 0.1167 0.539 0.63408 0.0
C807 C 0.09922 0.5521 0.63416 0.0
C808 C 0.07014 0.60636 0.66166 0.0
C809 C 1.02072 0.62479 0.64967 0.0
C810 C 0.04004 0.61417 0.64792 0.0
C811 C 0.09559 0.5797 0.64398 0.0
C812 C 0.07659 0.59248 0.64509 0.0
H813 H 0.97749 0.60014 0.64098 0.0
H814 H 1.00907 0.58408 0.63666 0.0
H815 H 0.04759 0.62717 0.67611 0.0
H816 H 0.13829 0.59249 0.66112 0.0
H817 H 0.10805 0.61588 0.66068 0.0
C818 C 0.09397 0.54523 0.89952 0.0
C819 C 0.10103 0.5542 0.91696 0.0
C820 C 0.07555 0.53739 0.8976 0.0
C821 C 0.03059 0.55109 0.91931 0.0
H822 H 1.01524 0.48193 0.88864 0.0
C823 C 0.95476 0.51304 0.91436 0.0
C824 C 0.94853 0.50122 0.89722 0.0
C825 C 0.97329 0.51972 0.91698 0.0
C826 C 1.01922 0.50164 0.89704 0.0
H827 H 0.09417 0.56152 0.94613 0.0
H828 H 0.06206 0.54765 0.94281 0.0
H829 H 0.04765 0.4919 0.89297 0.0
H830 H 0.95674 0.48846 0.86917 0.0
H831 H 0.98887 0.50083 0.87349 0.0
H832 H 1.00222 0.56124 0.92313 0.0
C833 C 0.0708 0.54684 0.93059 0.0
C834 C 0.03786 0.50726 0.89959 0.0
C835 C 0.08927 0.55441 0.93254 0.0
C836 C 0.96116 0.49716 0.88261 0.0
C837 C 0.97963 0.50408 0.88516 0.0
C838 C 1.01194 0.54563 0.91665 0.0
C839 C 0.06365 0.53857 0.91305 0.0
C840 C 0.04379 0.53207 0.91073 0.0
C841 C 0.98605 0.515 0.90248 0.0
C842 C 1.00596 0.52086 0.90543 0.0
H843 H 0.10269 0.54471 0.88728 0.0
H844 H 0.0705 0.53131 0.88387 0.0
H845 H 0.03468 0.57068 0.92777 0.0
H846 H 0.94545 0.51602 0.92598 0.0
H847 H 0.97767 0.52771 0.93059 0.0
C848 C 0.21378 0.30796 0.36548 0.0
C849 C 0.19933 0.31112 0.3783 0.0
C850 C 0.22851 0.28823 0.36919 0.0
C851 C 0.25201 0.24379 0.40709 0.0
H852 H 0.2728 0.19955 0.3649 0.0
C853 C 0.30671 0.14589 0.41474 0.0
C854 C 0.32139 0.14658 0.40202 0.0
C855 C 0.29171 0.16586 0.41253 0.0
C856 C 0.26727 0.21191 0.37682 0.0
H857 H 0.18929 0.29638 0.40536 0.0
H858 H 0.21489 0.26124 0.41181 0.0
H859 H 0.24692 0.23403 0.36009 0.0
H860 H 0.3316 0.16874 0.37688 0.0
H861 H 0.3055 0.20341 0.373 0.0
H862 H 0.27234 0.22098 0.42382 0.0
C863 C 0.21495 0.27444 0.39891 0.0
C864 C 0.25241 0.23185 0.37407 0.0
C865 C 0.20023 0.29453 0.39523 0.0
C866 C 0.32064 0.16772 0.38702 0.0
C867 C 0.30558 0.18742 0.3847 0.0
C868 C 0.26682 0.22356 0.40986 0.0
C869 C 0.22921 0.27069 0.3858 0.0
C870 C 0.24466 0.24843 0.3891 0.0
C871 C 0.29089 0.18677 0.39742 0.0
C872 C 0.27477 0.20761 0.39472 0.0
H873 H 0.21378 0.32094 0.3525 0.0
H874 H 0.2394 0.28687 0.35898 0.0
H875 H 0.2466 0.2563 0.419 0.0
H876 H 0.3069 0.13015 0.42655 0.0
H877 H 0.2806 0.16459 0.42252 0.0
C878 C 0.73802 0.86794 0.38473 0.0
C879 C 0.71971 0.86371 0.39004 0.0
C880 C 0.75025 0.84286 0.38458 0.0
C881 C 0.75718 0.76346 0.40363 0.0
H882 H 0.79023 0.75396 0.36163 0.0
C883 C 0.7991 0.65089 0.39202 0.0
C884 C 0.81708 0.65376 0.38531 0.0
C885 C 0.78746 0.67671 0.39282 0.0
C886 C 0.78128 0.75642 0.3736 0.0
H887 H 0.70013 0.82979 0.39995 0.0
H888 H 0.72131 0.78618 0.39952 0.0
H889 H 0.76992 0.79879 0.36299 0.0
H890 H 0.83667 0.68646 0.37391 0.0
H891 H 0.81664 0.73134 0.37576 0.0
H892 H 0.76855 0.72117 0.41429 0.0
C893 C 0.72627 0.80888 0.39549 0.0
C894 C 0.76961 0.78218 0.37438 0.0
C895 C 0.71405 0.83388 0.39553 0.0
C896 C 0.82304 0.68322 0.37938 0.0
C897 C 0.81142 0.70903 0.38022 0.0
C898 C 0.76889 0.73775 0.4029 0.0
C899 C 0.74451 0.81296 0.3899 0.0
C900 C 0.75734 0.78599 0.38936 0.0
C901 C 0.79346 0.70618 0.38696 0.0
C902 C 0.78107 0.73378 0.38783 0.0
H903 H 0.74283 0.89052 0.38031 0.0
H904 H 0.76424 0.84692 0.38037 0.0
H905 H 0.74812 0.76586 0.41553 0.0
H906 H 0.79401 0.62875 0.39686 0.0
H907 H 0.77366 0.67346 0.39788 0.0
C908 C 0.24639 0.66672 0.13976 0.0
C909 C 0.22742 0.67174 0.14029 0.0
C910 C 0.25854 0.69178 0.13964 0.0
C911 C 0.2611 0.77584 0.12875 0.0
H912 H 0.30523 0.77294 0.15847 0.0
C913 C 0.30719 0.88355 0.13775 0.0
C914 C 0.3262 0.879 0.13775 0.0
C915 C 0.29526 0.85823 0.1383 0.0
C916 C 0.29309 0.77403 0.1499 0.0
H917 H 0.20647 0.70738 0.14089 0.0
H918 H 0.22757 0.75086 0.14094 0.0
H919 H 0.28439 0.72892 0.15885 0.0
H920 H 0.34747 0.84393 0.13813 0.0
H921 H 0.32674 0.79989 0.13898 0.0
H922 H 0.2698 0.8208 0.11971 0.0
C923 C 0.23308 0.72753 0.14049 0.0
C924 C 0.28111 0.74874 0.15013 0.0
C925 C 0.22095 0.70251 0.14069 0.0
C926 C 0.33294 0.84841 0.1384 0.0
C927 C 0.32101 0.82308 0.1389 0.0
C928 C 0.27308 0.80107 0.12849 0.0
C929 C 0.25204 0.72254 0.13994 0.0
C930 C 0.26493 0.74933 0.13959 0.0
C931 C 0.30199 0.82761 0.13881 0.0
C932 C 0.28924 0.80058 0.13909 0.0
H933 H 0.25189 0.6434 0.13959 0.0
H934 H 0.27304 0.68704 0.13905 0.0
H935 H 0.24893 0.77693 0.12021 0.0
H936 H 0.30148 0.90672 0.13755 0.0
H937 H 0.28072 0.86272 0.13856 0.0
C938 C 0.71734 0.21212 0.18044 0.0
C939 C 0.70534 0.20914 0.16522 0.0
C940 C 0.73407 0.22715 0.17844 0.0
C941 C 0.76901 0.25113 0.14419 0.0
H942 H 0.78448 0.30405 0.18495 0.0
C943 C 0.83815 0.31866 0.14417 0.0
C944 C 0.84795 0.31756 0.16106 0.0
C945 C 0.82021 0.30741 0.14324 0.0
C946 C 0.78045 0.2892 0.17349 0.0
H947 H 0.70194 0.21938 0.13573 0.0
H948 H 0.73139 0.24564 0.13219 0.0
H949 H 0.75427 0.2809 0.18571 0.0
H950 H 0.84631 0.30426 0.19029 0.0
H951 H 0.81539 0.28451 0.18865 0.0
H952 H 0.79543 0.25926 0.13212 0.0
C953 C 0.7277 0.23619 0.14572 0.0
C954 C 0.7631 0.27591 0.17392 0.0
C955 C 0.71081 0.22114 0.14775 0.0
C956 C 0.83933 0.30517 0.17699 0.0
C957 C 0.82145 0.29416 0.1761 0.0
C958 C 0.78645 0.26451 0.14375 0.0
C959 C 0.73944 0.23967 0.16113 0.0
C960 C 0.75727 0.25613 0.1595 0.0
C961 C 0.81161 0.29513 0.15924 0.0
C962 C 0.79253 0.28317 0.15862 0.0
H963 H 0.71399 0.20249 0.19399 0.0
H964 H 0.74294 0.22861 0.1905 0.0
H965 H 0.765 0.23592 0.13289 0.0
H966 H 0.84441 0.32785 0.13162 0.0
H967 H 0.813 0.30864 0.13006 0.0
C968 C 0.7162 0.82119 0.64505 0.0
C969 C 0.70816 0.82563 0.66276 0.0
C970 C 0.73395 0.80899 0.6434 0.0
C971 C 0.77649 0.79749 0.67102 0.0
H972 H 0.7882 0.73382 0.63465 0.0
C973 C 0.83929 0.71956 0.67969 0.0
C974 C 0.8504 0.71302 0.66407 0.0
C975 C 0.82248 0.73448 0.67764 0.0
C976 C 0.78522 0.75188 0.64472 0.0
H977 H 0.71291 0.82119 0.6926 0.0
H978 H 0.74332 0.79968 0.68974 0.0
H979 H 0.75791 0.75812 0.6345 0.0
H980 H 0.85192 0.71658 0.63385 0.0
H981 H 0.82225 0.74246 0.63027 0.0
H982 H 0.80354 0.79098 0.6815 0.0
C983 C 0.73607 0.80577 0.67706 0.0
C984 C 0.76785 0.76584 0.64463 0.0
C985 C 0.71842 0.81778 0.67871 0.0
C986 C 0.84381 0.72114 0.64621 0.0
C987 C 0.82679 0.73601 0.64415 0.0
C988 C 0.79374 0.78354 0.67114 0.0
C989 C 0.74416 0.80123 0.65942 0.0
C990 C 0.76312 0.78836 0.65808 0.0
C991 C 0.81605 0.74326 0.65991 0.0
C992 C 0.79823 0.76006 0.65828 0.0
H993 H 0.70869 0.82679 0.63247 0.0
H994 H 0.73976 0.80597 0.62958 0.0
H995 H 0.77358 0.8153 0.68127 0.0
H996 H 0.84343 0.71296 0.69364 0.0
H997 H 0.8144 0.73891 0.69006 0.0
C998 C 0.25399 0.39118 0.64815 0.0
C999 C 0.23598 0.38928 0.65493 0.0
C1000 C 0.26519 0.36477 0.64737 0.0
C1001 C 0.27054 0.28541 0.6672 0.0
H1002 H 0.30245 0.27278 0.62457 0.0
C1003 C 0.31106 0.17079 0.65658 0.0
C1004 C 0.32899 0.17284 0.64958 0.0
C1005 C 0.29965 0.19696 0.65709 0.0
C1006 C 0.2938 0.27607 0.6367 0.0
H1007 H 0.21585 0.35777 0.66644 0.0
H1008 H 0.23524 0.3118 0.66489 0.0
H1009 H 0.28288 0.31857 0.62579 0.0
H1010 H 0.3487 0.2044 0.63733 0.0
H1011 H 0.32901 0.24993 0.63856 0.0
H1012 H 0.2815 0.24298 0.67816 0.0
C1013 C 0.24077 0.3338 0.66026 0.0
C1014 C 0.28254 0.3024 0.6374 0.0
C1015 C 0.22954 0.36018 0.66096 0.0
C1016 C 0.3351 0.20184 0.64302 0.0
C1017 C 0.32368 0.22799 0.64352 0.0
C1018 C 0.28183 0.25909 0.66652 0.0
C1019 C 0.25876 0.33568 0.65344 0.0
C1020 C 0.27075 0.30749 0.65266 0.0
C1021 C 0.30579 0.22598 0.6506 0.0
C1022 C 0.29364 0.25402 0.65127 0.0
H1023 H 0.25941 0.41303 0.64321 0.0
H1024 H 0.27901 0.36727 0.64221 0.0
H1025 H 0.26188 0.28871 0.67932 0.0
H1026 H 0.30585 0.14903 0.6619 0.0
H1027 H 0.28591 0.19432 0.66244 0.0
C1028 C 0.74701 0.1582 0.88853 0.0
C1029 C 0.72818 0.16456 0.88965 0.0
C1030 C 0.7598 0.18235 0.88853 0.0
C1031 C 0.76441 0.26622 0.87851 0.0
H1032 H 0.80825 0.26023 0.90849 0.0
C1033 C 0.81306 0.37083 0.88757 0.0
C1034 C 0.83195 0.36503 0.88836 0.0
C1035 C 0.8005 0.34636 0.88789 0.0
C1036 C 0.79622 0.26219 0.89981 0.0
H1037 H 0.70833 0.2019 0.89222 0.0
H1038 H 0.7305 0.24358 0.89187 0.0
H1039 H 0.78653 0.21748 0.90846 0.0
H1040 H 0.85218 0.32822 0.89042 0.0
H1041 H 0.83048 0.28596 0.89031 0.0
H1042 H 0.77414 0.31063 0.8696 0.0
C1043 C 0.73535 0.21989 0.89075 0.0
C1044 C 0.78373 0.23762 0.89984 0.0
C1045 C 0.72259 0.19581 0.8909 0.0
C1046 C 0.83785 0.33393 0.88954 0.0
C1047 C 0.8253 0.30949 0.88974 0.0
C1048 C 0.77696 0.29067 0.87836 0.0
C1049 C 0.75412 0.21352 0.88952 0.0
C1050 C 0.76763 0.23937 0.88924 0.0
C1051 C 0.80643 0.3153 0.88892 0.0
C1052 C 0.79304 0.2891 0.88906 0.0
H1053 H 0.75193 0.13461 0.88736 0.0
H1054 H 0.77416 0.17663 0.88739 0.0
H1055 H 0.75228 0.26816 0.86997 0.0
H1056 H 0.80786 0.39427 0.88653 0.0
H1057 H 0.78609 0.35191 0.88751 0.0
C1058 C 0.23893 0.6738 0.90743 0.0
C1059 C 0.22046 0.68248 0.90652 0.0
C1060 C 0.25274 0.69616 0.90632 0.0
C1061 C 0.26133 0.77939 0.8934 0.0
H1062 H 0.30518 0.76695 0.92268 0.0
C1063 C 0.31507 0.87629 0.90643 0.0
C1064 C 0.33355 0.86774 0.90489 0.0
C1065 C 0.30128 0.8538 0.9057 0.0
C1066 C 0.29309 0.77067 0.91428 0.0
H1067 H 0.20207 0.72166 0.90394 0.0
H1068 H 0.22598 0.76068 0.90249 0.0
H1069 H 0.28129 0.72785 0.9233 0.0
H1070 H 0.35194 0.82867 0.90151 0.0
H1071 H 0.32797 0.78954 0.90033 0.0
H1072 H 0.27308 0.82275 0.88485 0.0
C1073 C 0.22994 0.73653 0.90351 0.0
C1074 C 0.27936 0.74812 0.91456 0.0
C1075 C 0.21615 0.7141 0.90438 0.0
C1076 C 0.33787 0.83616 0.90252 0.0
C1077 C 0.32412 0.81366 0.90204 0.0
C1078 C 0.27499 0.80212 0.89331 0.0
C1079 C 0.24849 0.72796 0.90454 0.0
C1080 C 0.26325 0.75205 0.90409 0.0
C1081 C 0.30565 0.82216 0.9037 0.0
C1082 C 0.29107 0.79801 0.90372 0.0
H1083 H 0.24271 0.64961 0.90886 0.0
H1084 H 0.26679 0.6884 0.90676 0.0
H1085 H 0.24935 0.78319 0.88486 0.0
H1086 H 0.31127 0.9004 0.90818 0.0
H1087 H 0.28721 0.86113 0.90714 0.0
C1088 C 0.40528 0.08085 0.33454 0.0
C1089 C 0.38836 0.0798 0.34382 0.0
C1090 C 0.40697 0.06948 0.31616 0.0
C1091 C 0.3796 0.04978 0.27427 0.0
H1092 H 0.41656 0.9876 0.26371 0.0
C1093 C 0.37023 0.96651 0.21345 0.0
C1094 C 0.38498 0.96123 0.20129 0.0
C1095 C 0.3728 0.9811 0.23064 0.0
C1096 C 0.4063 1.0052 0.26635 0.0
H1097 H 0.35991 0.06727 0.34099 0.0
H1098 H 0.3627 0.04842 0.30912 0.0
H1099 H 0.41733 1.01617 0.29338 0.0
H1100 H 0.41426 0.96564 0.19815 0.0
H1101 H 0.41882 0.9913 0.22847 0.0
H1102 H 0.36833 0.03872 0.24759 0.0
C1103 C 0.37471 0.05776 0.31586 0.0
C1104 C 0.40679 0.02165 0.28331 0.0
C1105 C 0.37311 0.06853 0.33416 0.0
C1106 C 0.40263 0.96916 0.20729 0.0
C1107 C 0.40522 0.98399 0.2246 0.0
C1108 C 0.37913 0.03347 0.25742 0.0
C1109 C 0.39168 0.05752 0.30669 0.0
C1110 C 0.39312 0.04353 0.28767 0.0
C1111 C 0.3902 0.99112 0.23617 0.0
C1112 C 0.39213 1.01031 0.25344 0.0
H1113 H 0.4173 0.08901 0.34177 0.0
H1114 H 0.42022 0.06969 0.30944 0.0
H1115 H 0.36908 0.06688 0.27701 0.0
H1116 H 0.35648 0.96044 0.20935 0.0
H1117 H 0.36099 0.98534 0.23941 0.0
C1118 C 0.62709 0.03649 0.19163 0.0
C1119 C 0.64181 0.05337 0.18412 0.0
C1120 C 0.62945 0.01755 0.20739 0.0
C1121 C 0.66037 1.00932 0.24802 0.0
H1122 H 0.63264 0.93452 0.25795 0.0
C1123 C 0.67358 0.93994 0.31443 0.0
C1124 C 0.65829 0.93238 0.32538 0.0
C1125 C 0.6716 0.94932 0.29588 0.0
C1126 C 0.6404 0.95545 0.25539 0.0
H1127 H 0.67082 0.06189 0.18663 0.0
H1128 H 0.67507 0.02822 0.2137 0.0
H1129 H 0.62977 0.96066 0.22762 0.0
H1130 H 0.62896 0.92677 0.3251 0.0
H1131 H 0.62539 0.94346 0.29237 0.0
H1132 H 0.67095 1.00434 0.27566 0.0
C1133 C 0.66154 0.03033 0.20779 0.0
C1134 C 0.63876 0.97049 0.23802 0.0
C1135 C 0.65915 0.04947 0.19213 0.0
C1136 C 0.64099 0.93224 0.31694 0.0
C1137 C 0.63897 0.9419 0.29824 0.0
C1138 C 0.66208 0.99426 0.26523 0.0
C1139 C 0.64662 1.01481 0.21599 0.0
C1140 C 0.64875 0.99768 0.2341 0.0
C1141 C 0.65422 0.95172 0.28776 0.0
C1142 C 0.65218 0.96711 0.26916 0.0
H1143 H 0.61352 0.03892 0.18586 0.0
H1144 H 0.6176 1.00623 0.21331 0.0
H1145 H 0.66789 0.03062 0.24584 0.0
H1146 H 0.68711 0.93996 0.32049 0.0
H1147 H 0.68367 0.95593 0.28809 0.0
C1148 C 0.64719 0.0976 0.8189 0.0
C1149 C 0.66416 0.09412 0.82778 0.0
C1150 C 0.64491 0.08777 0.80028 0.0
C1151 C 0.66512 0.03036 0.76818 0.0
H1152 H 0.63687 0.0705 0.72928 0.0
C1153 C 0.66245 0.97779 0.69447 0.0
C1154 C 0.64542 0.97737 0.68548 0.0
C1155 C 0.6651 0.99577 0.71053 0.0
C1156 C 0.64469 0.05885 0.74004 0.0
H1157 H 0.69234 0.08026 0.82372 0.0
H1158 H 0.68849 0.06395 0.7915 0.0
H1159 H 0.64024 0.09576 0.75976 0.0
H1160 H 0.61806 0.99673 0.68596 0.0
H1161 H 0.62259 0.02749 0.71407 0.0
H1162 H 0.66931 0.99322 0.74894 0.0
C1163 C 0.67679 0.0733 0.79889 0.0
C1164 C 0.64661 0.07337 0.75751 0.0
C1165 C 0.67902 0.08285 0.81734 0.0
C1166 C 0.63138 0.99644 0.6925 0.0
C1167 C 0.63399 1.01427 0.70863 0.0
C1168 C 0.66314 1.01585 0.75087 0.0
C1169 C 0.65959 0.07443 0.79032 0.0
C1170 C 0.657 0.05937 0.77174 0.0
C1171 C 0.65077 1.01364 0.71814 0.0
C1172 C 0.65301 0.02989 0.73647 0.0
H1173 H 0.63548 0.10603 0.82665 0.0
H1174 H 0.63148 0.08902 0.79406 0.0
H1175 H 0.67285 0.01851 0.77896 0.0
H1176 H 0.67362 0.9636 0.68939 0.0
H1177 H 0.67836 0.99523 0.71716 0.0
C1178 C 0.40641 0.94223 0.83395 0.0
C1179 C 0.40056 0.96132 0.84873 0.0
C1180 C 0.40839 0.95444 0.8158 0.0
C1181 C 0.4139 0.02856 0.78965 0.0
H1182 H 0.39149 0.98421 0.7487 0.0
C1183 C 0.39967 0.08551 0.71697 0.0
C1184 C 0.39959 0.06608 0.70125 0.0
C1185 C 0.40226 0.0729 0.73495 0.0
C1186 C 0.39818 0.99677 0.75983 0.0
H1187 H 0.39272 1.00841 0.85604 0.0
H1188 H 0.39628 0.02942 0.82474 0.0
H1189 H 0.39198 0.96101 0.77971 0.0
H1190 H 0.40346 0.01884 0.69174 0.0
H1191 H 0.40886 0.99724 0.72262 0.0
H1192 H 0.42013 0.06435 0.76979 0.0
C1193 C 0.39936 1.00511 0.82705 0.0
C1194 C 0.3984 0.98337 0.77768 0.0
C1195 C 0.39716 0.9929 0.84501 0.0
C1196 C 0.40325 0.03433 0.70367 0.0
C1197 C 0.40615 0.02188 0.72145 0.0
C1198 C 0.41384 0.04187 0.77173 0.0
C1199 C 0.40485 0.98607 0.81216 0.0
C1200 C 0.40608 0.99921 0.79286 0.0
C1201 C 0.40505 0.04069 0.73746 0.0
C1202 C 0.40585 0.02629 0.75655 0.0
H1203 H 0.40917 0.91784 0.83634 0.0
H1204 H 0.41273 0.93918 0.80462 0.0
H1205 H 0.42008 0.04128 0.80103 0.0
H1206 H 0.39671 0.11003 0.71549 0.0
H1207 H 0.40123 0.0882 0.74689 0.0
C1208 C 0.88956 0.46816 0.19296 0.0
C1209 C 0.9047 0.473 0.18126 0.0
C1210 C 0.8875 0.48502 0.20951 0.0
C1211 C 0.90478 0.55306 0.23669 0.0
H1212 H 0.88467 0.50577 0.27802 0.0
C1213 C 0.90094 0.5858 0.31771 0.0
C1214 C 0.88321 0.58207 0.32493 0.0
C1215 C 0.90484 0.5774 0.29908 0.0
C1216 C 0.89033 0.51927 0.2666 0.0
H1217 H 0.92925 0.50021 0.17747 0.0
H1218 H 0.92595 0.52911 0.20667 0.0
H1219 H 0.88878 0.48105 0.24782 0.0
H1220 H 0.85544 0.56943 0.31789 0.0
H1221 H 0.86226 0.55485 0.28584 0.0
H1222 H 0.90655 0.59117 0.25608 0.0
C1223 C 0.91546 0.51265 0.20291 0.0
C1224 C 0.89252 0.50522 0.24919 0.0
C1225 C 0.91738 0.49603 0.18614 0.0
C1226 C 0.86929 0.5722 0.31285 0.0
C1227 C 0.87316 0.56381 0.29447 0.0
C1228 C 0.90277 0.56708 0.25433 0.0
C1229 C 0.90071 0.50681 0.21506 0.0
C1230 C 0.89938 0.52202 0.23382 0.0
C1231 C 0.89105 0.56519 0.28758 0.0
C1232 C 0.89518 0.5504 0.26932 0.0
H1233 H 0.87943 0.45087 0.1895 0.0
H1234 H 0.87563 0.48052 0.21812 0.0
H1235 H 0.91008 0.56679 0.22522 0.0
H1236 H 0.91194 0.59319 0.32672 0.0
H1237 H 0.91876 0.57864 0.29404 0.0
C1238 C 0.12954 0.49322 0.33887 0.0
C1239 C 0.14343 0.47511 0.347 0.0
C1240 C 0.13295 0.51128 0.32294 0.0
C1241 C 0.1656 0.517 0.28319 0.0
H1242 H 0.14027 0.59437 0.27306 0.0
C1243 C 0.18337 0.58918 0.21845 0.0
C1244 C 0.16877 0.59898 0.20713 0.0
C1245 C 0.18033 0.5781 0.23654 0.0
C1246 C 0.14736 0.57271 0.27566 0.0
H1247 H 0.1721 0.46305 0.34515 0.0
H1248 H 0.17822 0.49521 0.31776 0.0
H1249 H 0.1355 0.56774 0.30294 0.0
H1250 H 0.13955 0.60653 0.20648 0.0
H1251 H 0.1342 0.5872 0.23837 0.0
H1252 H 0.17751 0.52198 0.25603 0.0
C1253 C 0.16449 0.49481 0.32335 0.0
C1254 C 0.14462 0.55735 0.29278 0.0
C1255 C 0.16103 0.47652 0.33921 0.0
C1256 C 0.15111 0.59931 0.21485 0.0
C1257 C 0.14804 0.58815 0.23311 0.0
C1258 C 0.16844 0.53244 0.26621 0.0
C1259 C 0.15041 0.51196 0.31473 0.0
C1260 C 0.1537 0.52921 0.2968 0.0
C1261 C 0.16259 0.57643 0.24391 0.0
C1262 C 0.15938 0.56049 0.2622 0.0
H1263 H 0.11578 0.49268 0.34442 0.0
H1264 H 0.12168 0.52379 0.31668 0.0
H1265 H 0.1725 0.49506 0.28543 0.0
H1266 H 0.19719 0.58891 0.21305 0.0
H1267 H 0.1919 0.56997 0.24461 0.0
C1268 C 0.17089 0.56832 0.84364 0.0
C1269 C 0.15849 0.59129 0.84957 0.0
C1270 C 0.16863 0.55315 0.82661 0.0
C1271 C 0.14861 0.55693 0.77994 0.0
H1272 H 0.15537 0.46766 0.78204 0.0
C1273 C 0.1494 0.48029 0.71277 0.0
C1274 C 0.16409 0.45922 0.7119 0.0
C1275 C 0.145 0.49533 0.72963 0.0
C1276 C 0.15349 0.49255 0.78114 0.0
H1277 H 0.13433 0.6172 0.84165 0.0
H1278 H 0.13051 0.59068 0.81137 0.0
H1279 H 0.15509 0.49767 0.81084 0.0
H1280 H 0.18502 0.43635 0.72829 0.0
H1281 H 0.17736 0.46207 0.75744 0.0
H1282 H 0.14772 0.55183 0.75008 0.0
C1283 C 0.14193 0.58444 0.82022 0.0
C1284 C 0.15329 0.50977 0.79768 0.0
C1285 C 0.14413 0.59966 0.83751 0.0
C1286 C 0.17358 0.45231 0.72845 0.0
C1287 C 0.16912 0.46708 0.74524 0.0
C1288 C 0.1489 0.53963 0.76328 0.0
C1289 C 0.15395 0.56045 0.81483 0.0
C1290 C 0.1514 0.54226 0.79728 0.0
C1291 C 0.15506 0.48935 0.74602 0.0
C1292 C 0.1519 0.50729 0.76365 0.0
H1293 H 0.18226 0.56143 0.85237 0.0
H1294 H 0.17839 0.53536 0.82271 0.0
H1295 H 0.14715 0.58191 0.77916 0.0
H1296 H 0.14192 0.48641 0.70023 0.0
H1297 H 0.13397 0.5121 0.72974 0.0
C1298 C 0.89763 0.55529 0.69422 0.0
C1299 C 0.91401 0.55608 0.68395 0.0
C1300 C 0.89565 0.53516 0.70949 0.0
C1301 C 0.92292 0.49477 0.74518 0.0
H1302 H 0.87712 0.45432 0.75676 0.0
C1303 C 0.91157 0.43029 0.81572 0.0
C1304 C 0.89508 0.43806 0.82464 0.0
C1305 C 0.91443 0.43819 0.79684 0.0
C1306 C 0.89001 0.46551 0.75378 0.0
H1307 H 0.94092 0.53539 0.68138 0.0
H1308 H 0.93743 0.50037 0.70802 0.0
H1309 H 0.88085 0.48095 0.72688 0.0
H1310 H 0.86834 0.45859 0.82047 0.0
H1311 H 0.87326 0.47227 0.78804 0.0
H1312 H 0.93184 0.4804 0.77237 0.0
C1313 C 0.92618 0.51551 0.70433 0.0
C1314 C 0.89213 0.48079 0.73663 0.0
C1315 C 0.92812 0.53548 0.68897 0.0
C1316 C 0.88125 0.45236 0.81408 0.0
C1317 C 0.88403 0.46002 0.79534 0.0
C1318 C 0.92076 0.47962 0.7624 0.0
C1319 C 0.91003 0.51543 0.71496 0.0
C1320 C 0.90846 0.49624 0.73228 0.0
C1321 C 0.90076 0.45368 0.78651 0.0
C1322 C 0.9041 0.46547 0.76714 0.0
H1323 H 0.88649 0.57083 0.69079 0.0
H1324 H 0.88308 0.53594 0.71746 0.0
H1325 H 0.93564 0.50663 0.74235 0.0
H1326 H 0.9225 0.41937 0.82351 0.0
H1327 H 0.92743 0.43269 0.79043 0.0
loop_
_geom_bond_atom_site_label_1
_geom_bond_atom_site_label_2
_geom_bond_distance
_geom_bond_site_symmetry_2
_ccdc_geom_bond_type
Cu0 N1 1.999 . S
Cu0 O6 1.974 . S
Cu0 N11 1.985 . S
Cu0 O20 1.959 . S
N1 Cu0 1.999 . S
N1 C3 1.263 . S
N1 C5 1.389 . S
N2 C3 1.358 . S
N2 C4 1.400 . S
C3 N1 1.263 . S
C3 N2 1.358 . S
C3 H9 0.930 . S
C4 N2 1.400 . S
C4 C5 1.351 . S
C4 H21 0.930 . S
C5 N1 1.389 . S
C5 C4 1.351 . S
C5 H10 0.930 . S
O6 Cu0 1.974 . S
O6 C16 1.282 . S
C7 O8 1.261 . S
C7 O20 1.251 . S
O8 C7 1.261 . S
H9 C3 0.930 . S
H10 C5 0.930 . S
N11 Cu0 1.985 . S
N11 C13 1.335 . S
N11 C14 1.390 . S
N12 C13 1.345 . S
N12 C15 1.336 . S
C13 N11 1.335 . S
C13 N12 1.345 . S
C13 H18 0.930 . S
C14 N11 1.390 . S
C14 C15 1.346 . S
C14 H19 0.930 . S
C15 N12 1.336 . S
C15 C14 1.346 . S
C15 H22 0.929 . S
C16 O6 1.282 . S
C16 O17 1.216 . S
O17 C16 1.216 . S
H18 C13 0.930 . S
H19 C14 0.930 . S
O20 Cu0 1.959 . S
O20 C7 1.251 . S
H21 C4 0.930 . S
H22 C15 0.929 . S
Cu23 N24 1.999 . S
Cu23 O29 1.974 . S
Cu23 N34 1.985 . S
Cu23 O43 1.959 . S
N24 Cu23 1.999 . S
N24 C26 1.263 . S
N24 C28 1.389 . S
N25 C26 1.358 . S
N25 C27 1.400 . S
C26 N24 1.263 . S
C26 N25 1.358 . S
C26 H32 0.930 . S
C27 N25 1.400 . S
C27 C28 1.351 . S
C27 H44 0.930 . S
C28 N24 1.389 . S
C28 C27 1.351 . S
C28 H33 0.930 . S
O29 Cu23 1.974 . S
O29 C39 1.282 . S
C30 O31 1.261 . S
C30 O43 1.251 . S
O31 C30 1.261 . S
H32 C26 0.930 . S
H33 C28 0.930 . S
N34 Cu23 1.985 . S
N34 C36 1.335 . S
N34 C37 1.390 . S
N35 C36 1.345 . S
N35 C38 1.336 . S
C36 N34 1.335 . S
C36 N35 1.345 . S
C36 H41 0.930 . S
C37 N34 1.390 . S
C37 C38 1.346 . S
C37 H42 0.930 . S
C38 N35 1.336 . S
C38 C37 1.346 . S
C38 H45 0.929 . S
C39 O29 1.282 . S
C39 O40 1.216 . S
O40 C39 1.216 . S
H41 C36 0.930 . S
H42 C37 0.930 . S
O43 Cu23 1.959 . S
O43 C30 1.251 . S
H44 C27 0.930 . S
H45 C38 0.929 . S
Cu46 N47 1.999 . S
Cu46 O52 1.974 . S
Cu46 N57 1.985 . S
Cu46 O66 1.959 . S
N47 Cu46 1.999 . S
N47 C49 1.263 . S
N47 C51 1.389 . S
N48 C49 1.358 . S
N48 C50 1.400 . S
C49 N47 1.263 . S
C49 N48 1.358 . S
C49 H55 0.930 . S
C50 N48 1.400 . S
C50 C51 1.351 . S
C50 H67 0.930 . S
C51 N47 1.389 . S
C51 C50 1.351 . S
C51 H56 0.930 . S
O52 Cu46 1.974 . S
O52 C62 1.282 . S
C53 O54 1.261 . S
C53 O66 1.251 . S
O54 C53 1.261 . S
H55 C49 0.930 . S
H56 C51 0.930 . S
N57 Cu46 1.985 . S
N57 C59 1.335 . S
N57 C60 1.390 . S
N58 C59 1.345 . S
N58 C61 1.336 . S
C59 N57 1.335 . S
C59 N58 1.345 . S
C59 H64 0.930 . S
C60 N57 1.390 . S
C60 C61 1.346 . S
C60 H65 0.930 . S
C61 N58 1.336 . S
C61 C60 1.346 . S
C61 H68 0.929 . S
C62 O52 1.282 . S
C62 O63 1.216 . S
O63 C62 1.216 . S
H64 C59 0.930 . S
H65 C60 0.930 . S
O66 Cu46 1.959 . S
O66 C53 1.251 . S
H67 C50 0.930 . S
H68 C61 0.929 . S
Cu69 N70 1.999 . S
Cu69 O75 1.974 . S
Cu69 N80 1.985 . S
Cu69 O89 1.959 . S
N70 Cu69 1.999 . S
N70 C72 1.263 . S
N70 C74 1.389 . S
N71 C72 1.358 . S
N71 C73 1.400 . S
C72 N70 1.263 . S
C72 N71 1.358 . S
C72 H78 0.930 . S
C73 N71 1.400 . S
C73 C74 1.351 . S
C73 H90 0.930 . S
C74 N70 1.389 . S
C74 C73 1.351 . S
C74 H79 0.930 . S
O75 Cu69 1.974 . S
O75 C85 1.282 . S
C76 O77 1.261 . S
C76 O89 1.251 . S
O77 C76 1.261 . S
H78 C72 0.930 . S
H79 C74 0.930 . S
N80 Cu69 1.985 . S
N80 C82 1.335 . S
N80 C83 1.390 . S
N81 C82 1.345 . S
N81 C84 1.336 . S
C82 N80 1.335 . S
C82 N81 1.345 . S
C82 H87 0.930 . S
C83 N80 1.390 . S
C83 C84 1.346 . S
C83 H88 0.930 . S
C84 N81 1.336 . S
C84 C83 1.346 . S
C84 H91 0.929 . S
C85 O75 1.282 . S
C85 O86 1.216 . S
O86 C85 1.216 . S
H87 C82 0.930 . S
H88 C83 0.930 . S
O89 Cu69 1.959 . S
O89 C76 1.251 . S
H90 C73 0.930 . S
H91 C84 0.929 . S
Cu92 N93 1.999 . S
Cu92 O98 1.974 . S
Cu92 N103 1.985 . S
Cu92 O112 1.959 . S
N93 Cu92 1.999 . S
N93 C95 1.263 . S
N93 C97 1.389 . S
N94 C95 1.358 . S
N94 C96 1.400 . S
C95 N93 1.263 . S
C95 N94 1.358 . S
C95 H101 0.930 . S
C96 N94 1.400 . S
C96 C97 1.351 . S
C96 H113 0.930 . S
C97 N93 1.389 . S
C97 C96 1.351 . S
C97 H102 0.930 . S
O98 Cu92 1.974 . S
O98 C108 1.282 . S
C99 O100 1.261 . S
C99 O112 1.251 . S
O100 C99 1.261 . S
H101 C95 0.930 . S
H102 C97 0.930 . S
N103 Cu92 1.985 . S
N103 C105 1.335 . S
N103 C106 1.390 . S
N104 C105 1.345 . S
N104 C107 1.336 . S
C105 N103 1.335 . S
C105 N104 1.345 . S
C105 H110 0.930 . S
C106 N103 1.390 . S
C106 C107 1.346 . S
C106 H111 0.930 . S
C107 N104 1.336 . S
C107 C106 1.346 . S
C107 H114 0.929 . S
C108 O98 1.282 . S
C108 O109 1.216 . S
O109 C108 1.216 . S
H110 C105 0.930 . S
H111 C106 0.930 . S
O112 Cu92 1.959 . S
O112 C99 1.251 . S
H113 C96 0.930 . S
H114 C107 0.929 . S
Cu115 N116 1.999 . S
Cu115 O121 1.974 . S
Cu115 N126 1.985 . S
Cu115 O135 1.959 . S
N116 Cu115 1.999 . S
N116 C118 1.263 . S
N116 C120 1.389 . S
N117 C118 1.358 . S
N117 C119 1.400 . S
C118 N116 1.263 . S
C118 N117 1.358 . S
C118 H124 0.930 . S
C119 N117 1.400 . S
C119 C120 1.351 . S
C119 H136 0.930 . S
C120 N116 1.389 . S
C120 C119 1.351 . S
C120 H125 0.930 . S
O121 Cu115 1.974 . S
O121 C131 1.282 . S
C122 O123 1.261 . S
C122 O135 1.251 . S
O123 C122 1.261 . S
H124 C118 0.930 . S
H125 C120 0.930 . S
N126 Cu115 1.985 . S
N126 C128 1.335 . S
N126 C129 1.390 . S
N127 C128 1.345 . S
N127 C130 1.336 . S
C128 N126 1.335 . S
C128 N127 1.345 . S
C128 H133 0.930 . S
C129 N126 1.390 . S
C129 C130 1.346 . S
C129 H134 0.930 . S
C130 N127 1.336 . S
C130 C129 1.346 . S
C130 H137 0.929 . S
C131 O121 1.282 . S
C131 O132 1.216 . S
O132 C131 1.216 . S
H133 C128 0.930 . S
H134 C129 0.930 . S
O135 Cu115 1.959 . S
O135 C122 1.251 . S
H136 C119 0.930 . S
H137 C130 0.929 . S
Cu138 N139 1.999 . S
Cu138 O144 1.974 . S
Cu138 N149 1.985 . S
Cu138 O158 1.959 . S
N139 Cu138 1.999 . S
N139 C141 1.263 . S
N139 C143 1.389 . S
N140 C141 1.358 . S
N140 C142 1.400 . S
C141 N139 1.263 . S
C141 N140 1.358 . S
C141 H147 0.930 . S
C142 N140 1.400 . S
C142 C143 1.351 . S
C142 H159 0.930 . S
C143 N139 1.389 . S
C143 C142 1.351 . S
C143 H148 0.930 . S
O144 Cu138 1.974 . S
O144 C154 1.282 . S
C145 O146 1.261 . S
C145 O158 1.251 . S
O146 C145 1.261 . S
H147 C141 0.930 . S
H148 C143 0.930 . S
N149 Cu138 1.985 . S
N149 C151 1.335 . S
N149 C152 1.390 . S
N150 C151 1.345 . S
N150 C153 1.336 . S
C151 N149 1.335 . S
C151 N150 1.345 . S
C151 H156 0.930 . S
C152 N149 1.390 . S
C152 C153 1.346 . S
C152 H157 0.930 . S
C153 N150 1.336 . S
C153 C152 1.346 . S
C153 H160 0.929 . S
C154 O144 1.282 . S
C154 O155 1.216 . S
O155 C154 1.216 . S
H156 C151 0.930 . S
H157 C152 0.930 . S
O158 Cu138 1.959 . S
O158 C145 1.251 . S
H159 C142 0.930 . S
H160 C153 0.929 . S
Cu161 N162 1.999 . S
Cu161 O167 1.974 . S
Cu161 N172 1.985 . S
Cu161 O181 1.959 . S
N162 Cu161 1.999 . S
N162 C164 1.263 . S
N162 C166 1.389 . S
N163 C164 1.358 . S
N163 C165 1.400 . S
C164 N162 1.263 . S
C164 N163 1.358 . S
C164 H170 0.930 . S
C165 N163 1.400 . S
C165 C166 1.351 . S
C165 H182 0.930 . S
C166 N162 1.389 . S
C166 C165 1.351 . S
C166 H171 0.930 . S
O167 Cu161 1.974 . S
O167 C177 1.282 . S
C168 O169 1.261 . S
C168 O181 1.251 . S
O169 C168 1.261 . S
H170 C164 0.930 . S
H171 C166 0.930 . S
N172 Cu161 1.985 . S
N172 C174 1.335 . S
N172 C175 1.390 . S
N173 C174 1.345 . S
N173 C176 1.336 . S
C174 N172 1.335 . S
C174 N173 1.345 . S
C174 H179 0.930 . S
C175 N172 1.390 . S
C175 C176 1.346 . S
C175 H180 0.930 . S
C176 N173 1.336 . S
C176 C175 1.346 . S
C176 H183 0.929 . S
C177 O167 1.282 . S
C177 O178 1.216 . S
O178 C177 1.216 . S
H179 C174 0.930 . S
H180 C175 0.930 . S
O181 Cu161 1.959 . S
O181 C168 1.251 . S
H182 C165 0.930 . S
H183 C176 0.929 . S
Cu184 N185 1.999 . S
Cu184 O190 1.974 . S
Cu184 N195 1.985 . S
Cu184 O204 1.959 . S
N185 Cu184 1.999 . S
N185 C187 1.263 . S
N185 C189 1.389 . S
N186 C187 1.358 . S
N186 C188 1.400 . S
C187 N185 1.263 . S
C187 N186 1.358 . S
C187 H193 0.930 . S
C188 N186 1.400 . S
C188 C189 1.351 . S
C188 H205 0.930 . S
C189 N185 1.389 . S
C189 C188 1.351 . S
C189 H194 0.930 . S
O190 Cu184 1.974 . S
O190 C200 1.282 . S
C191 O192 1.261 . S
C191 O204 1.251 . S
O192 C191 1.261 . S
H193 C187 0.930 . S
H194 C189 0.930 . S
N195 Cu184 1.985 . S
N195 C197 1.335 . S
N195 C198 1.390 . S
N196 C197 1.345 . S
N196 C199 1.336 . S
C197 N195 1.335 . S
C197 N196 1.345 . S
C197 H202 0.930 . S
C198 N195 1.390 . S
C198 C199 1.346 . S
C198 H203 0.930 . S
C199 N196 1.336 . S
C199 C198 1.346 . S
C199 H206 0.929 . S
C200 O190 1.282 . S
C200 O201 1.216 . S
O201 C200 1.216 . S
H202 C197 0.930 . S
H203 C198 0.930 . S
O204 Cu184 1.959 . S
O204 C191 1.251 . S
H205 C188 0.930 . S
H206 C199 0.929 . S
Cu207 N208 1.999 . S
Cu207 O213 1.974 . S
Cu207 N218 1.985 . S
Cu207 O227 1.959 . S
N208 Cu207 1.999 . S
N208 C210 1.263 . S
N208 C212 1.389 . S
N209 C210 1.358 . S
N209 C211 1.400 . S
C210 N208 1.263 . S
C210 N209 1.358 . S
C210 H216 0.930 . S
C211 N209 1.400 . S
C211 C212 1.351 . S
C211 H228 0.930 . S
C212 N208 1.389 . S
C212 C211 1.351 . S
C212 H217 0.930 . S
O213 Cu207 1.974 . S
O213 C223 1.282 . S
C214 O215 1.261 . S
C214 O227 1.251 . S
O215 C214 1.261 . S
H216 C210 0.930 . S
H217 C212 0.930 . S
N218 Cu207 1.985 . S
N218 C220 1.335 . S
N218 C221 1.390 . S
N219 C220 1.345 . S
N219 C222 1.336 . S
C220 N218 1.335 . S
C220 N219 1.345 . S
C220 H225 0.930 . S
C221 N218 1.390 . S
C221 C222 1.346 . S
C221 H226 0.930 . S
C222 N219 1.336 . S
C222 C221 1.346 . S
C222 H229 0.929 . S
C223 O213 1.282 . S
C223 O224 1.216 . S
O224 C223 1.216 . S
H225 C220 0.930 . S
H226 C221 0.930 . S
O227 Cu207 1.959 . S
O227 C214 1.251 . S
H228 C211 0.930 . S
H229 C222 0.929 . S
Cu230 N231 1.999 . S
Cu230 O236 1.974 . S
Cu230 N241 1.985 . S
Cu230 O250 1.959 . S
N231 Cu230 1.999 . S
N231 C233 1.263 . S
N231 C235 1.389 . S
N232 C233 1.358 . S
N232 C234 1.400 . S
C233 N231 1.263 . S
C233 N232 1.358 . S
C233 H239 0.930 . S
C234 N232 1.400 . S
C234 C235 1.351 . S
C234 H251 0.930 . S
C235 N231 1.389 . S
C235 C234 1.351 . S
C235 H240 0.930 . S
O236 Cu230 1.974 . S
O236 C246 1.282 . S
C237 O238 1.261 . S
C237 O250 1.251 . S
O238 C237 1.261 . S
H239 C233 0.930 . S
H240 C235 0.930 . S
N241 Cu230 1.985 . S
N241 C243 1.335 . S
N241 C244 1.390 . S
N242 C243 1.345 . S
N242 C245 1.336 . S
C243 N241 1.335 . S
C243 N242 1.345 . S
C243 H248 0.930 . S
C244 N241 1.390 . S
C244 C245 1.346 . S
C244 H249 0.930 . S
C245 N242 1.336 . S
C245 C244 1.346 . S
C245 H252 0.929 . S
C246 O236 1.282 . S
C246 O247 1.216 . S
O247 C246 1.216 . S
H248 C243 0.930 . S
H249 C244 0.930 . S
O250 Cu230 1.959 . S
O250 C237 1.251 . S
H251 C234 0.930 . S
H252 C245 0.929 . S
Cu253 N254 1.999 . S
Cu253 O259 1.974 . S
Cu253 N264 1.985 . S
Cu253 O273 1.959 . S
N254 Cu253 1.999 . S
N254 C256 1.263 . S
N254 C258 1.389 . S
N255 C256 1.358 . S
N255 C257 1.400 . S
C256 N254 1.263 . S
C256 N255 1.358 . S
C256 H262 0.930 . S
C257 N255 1.400 . S
C257 C258 1.351 . S
C257 H274 0.930 . S
C258 N254 1.389 . S
C258 C257 1.351 . S
C258 H263 0.930 . S
O259 Cu253 1.974 . S
O259 C269 1.282 . S
C260 O261 1.261 . S
C260 O273 1.251 . S
O261 C260 1.261 . S
H262 C256 0.930 . S
H263 C258 0.930 . S
N264 Cu253 1.985 . S
N264 C266 1.335 . S
N264 C267 1.390 . S
N265 C266 1.345 . S
N265 C268 1.336 . S
C266 N264 1.335 . S
C266 N265 1.345 . S
C266 H271 0.930 . S
C267 N264 1.390 . S
C267 C268 1.346 . S
C267 H272 0.930 . S
C268 N265 1.336 . S
C268 C267 1.346 . S
C268 H275 0.929 . S
C269 O259 1.282 . S
C269 O270 1.216 . S
O270 C269 1.216 . S
H271 C266 0.930 . S
H272 C267 0.930 . S
O273 Cu253 1.959 . S
O273 C260 1.251 . S
H274 C257 0.930 . S
H275 C268 0.929 . S
Cu276 N277 1.999 . S
Cu276 O282 1.974 . S
Cu276 N287 1.985 . S
Cu276 O296 1.959 . S
N277 Cu276 1.999 . S
N277 C279 1.263 . S
N277 C281 1.389 . S
N278 C279 1.358 . S
N278 C280 1.400 . S
C279 N277 1.263 . S
C279 N278 1.358 . S
C279 H285 0.930 . S
C280 N278 1.400 . S
C280 C281 1.351 . S
C280 H297 0.930 . S
C281 N277 1.389 . S
C281 C280 1.351 . S
C281 H286 0.930 . S
O282 Cu276 1.974 . S
O282 C292 1.282 . S
C283 O284 1.261 . S
C283 O296 1.251 . S
O284 C283 1.261 . S
H285 C279 0.930 . S
H286 C281 0.930 . S
N287 Cu276 1.985 . S
N287 C289 1.335 . S
N287 C290 1.390 . S
N288 C289 1.345 . S
N288 C291 1.336 . S
C289 N287 1.335 . S
C289 N288 1.345 . S
C289 H294 0.930 . S
C290 N287 1.390 . S
C290 C291 1.346 . S
C290 H295 0.930 . S
C291 N288 1.336 . S
C291 C290 1.346 . S
C291 H298 0.929 . S
C292 O282 1.282 . S
C292 O293 1.216 . S
O293 C292 1.216 . S
H294 C289 0.930 . S
H295 C290 0.930 . S
O296 Cu276 1.959 . S
O296 C283 1.251 . S
H297 C280 0.930 . S
H298 C291 0.929 . S
Cu299 N300 1.999 . S
Cu299 O305 1.974 . S
Cu299 N310 1.985 . S
Cu299 O319 1.959 . S
N300 Cu299 1.999 . S
N300 C302 1.263 . S
N300 C304 1.389 . S
N301 C302 1.358 . S
N301 C303 1.400 . S
C302 N300 1.263 . S
C302 N301 1.358 . S
C302 H308 0.930 . S
C303 N301 1.400 . S
C303 C304 1.351 . S
C303 H320 0.930 . S
C304 N300 1.389 . S
C304 C303 1.351 . S
C304 H309 0.930 . S
O305 Cu299 1.974 . S
O305 C315 1.282 . S
C306 O307 1.261 . S
C306 O319 1.251 . S
O307 C306 1.261 . S
H308 C302 0.930 . S
H309 C304 0.930 . S
N310 Cu299 1.985 . S
N310 C312 1.335 . S
N310 C313 1.390 . S
N311 C312 1.345 . S
N311 C314 1.336 . S
C312 N310 1.335 . S
C312 N311 1.345 . S
C312 H317 0.930 . S
C313 N310 1.390 . S
C313 C314 1.346 . S
C313 H318 0.930 . S
C314 N311 1.336 . S
C314 C313 1.346 . S
C314 H321 0.929 . S
C315 O305 1.282 . S
C315 O316 1.216 . S
O316 C315 1.216 . S
H317 C312 0.930 . S
H318 C313 0.930 . S
O319 Cu299 1.959 . S
O319 C306 1.251 . S
H320 C303 0.930 . S
H321 C314 0.929 . S
Cu322 N323 1.999 . S
Cu322 O328 1.974 . S
Cu322 N333 1.985 . S
Cu322 O342 1.959 . S
N323 Cu322 1.999 . S
N323 C325 1.263 . S
N323 C327 1.389 . S
N324 C325 1.358 . S
N324 C326 1.400 . S
C325 N323 1.263 . S
C325 N324 1.358 . S
C325 H331 0.930 . S
C326 N324 1.400 . S
C326 C327 1.351 . S
C326 H343 0.930 . S
C327 N323 1.389 . S
C327 C326 1.351 . S
C327 H332 0.930 . S
O328 Cu322 1.974 . S
O328 C338 1.282 . S
C329 O330 1.261 . S
C329 O342 1.251 . S
O330 C329 1.261 . S
H331 C325 0.930 . S
H332 C327 0.930 . S
N333 Cu322 1.985 . S
N333 C335 1.335 . S
N333 C336 1.390 . S
N334 C335 1.345 . S
N334 C337 1.336 . S
C335 N333 1.335 . S
C335 N334 1.345 . S
C335 H340 0.930 . S
C336 N333 1.390 . S
C336 C337 1.346 . S
C336 H341 0.930 . S
C337 N334 1.336 . S
C337 C336 1.346 . S
C337 H344 0.929 . S
C338 O328 1.282 . S
C338 O339 1.216 . S
O339 C338 1.216 . S
H340 C335 0.930 . S
H341 C336 0.930 . S
O342 Cu322 1.959 . S
O342 C329 1.251 . S
H343 C326 0.930 . S
H344 C337 0.929 . S
Cu345 N346 1.999 . S
Cu345 O351 1.974 . S
Cu345 N356 1.985 . S
Cu345 O365 1.959 . S
N346 Cu345 1.999 . S
N346 C348 1.263 . S
N346 C350 1.389 . S
N347 C348 1.358 . S
N347 C349 1.400 . S
C348 N346 1.263 . S
C348 N347 1.358 . S
C348 H354 0.930 . S
C349 N347 1.400 . S
C349 C350 1.351 . S
C349 H366 0.930 . S
C350 N346 1.389 . S
C350 C349 1.351 . S
C350 H355 0.930 . S
O351 Cu345 1.974 . S
O351 C361 1.282 . S
C352 O353 1.261 . S
C352 O365 1.251 . S
O353 C352 1.261 . S
H354 C348 0.930 . S
H355 C350 0.930 . S
N356 Cu345 1.985 . S
N356 C358 1.335 . S
N356 C359 1.390 . S
N357 C358 1.345 . S
N357 C360 1.336 . S
C358 N356 1.335 . S
C358 N357 1.345 . S
C358 H363 0.930 . S
C359 N356 1.390 . S
C359 C360 1.346 . S
C359 H364 0.930 . S
C360 N357 1.336 . S
C360 C359 1.346 . S
C360 H367 0.929 . S
C361 O351 1.282 . S
C361 O362 1.216 . S
O362 C361 1.216 . S
H363 C358 0.930 . S
H364 C359 0.930 . S
O365 Cu345 1.959 . S
O365 C352 1.251 . S
H366 C349 0.930 . S
H367 C360 0.929 . S
C368 C369 1.349 . S
C368 C370 1.327 . S
C368 H393 0.950 . S
C369 C368 1.349 . S
C369 C385 1.349 . S
C370 C368 1.327 . S
C370 C389 1.429 . S
C370 H394 0.950 . S
C371 C388 1.574 . S
C371 C390 1.368 . S
C371 H395 0.949 . S
H372 C376 0.949 . S
C373 C374 1.349 . S
C373 C375 1.327 . S
C373 H396 0.950 . S
C374 C373 1.349 . S
C374 C386 1.349 . S
C375 C373 1.327 . S
C375 C391 1.429 . S
C375 H397 0.950 . S
C376 H372 0.949 . S
C376 C384 1.574 . S
C376 C392 1.368 . S
H377 C385 0.950 . S
H378 C383 0.950 . S
H379 C384 0.949 . S
H380 C386 0.950 . S
H381 C387 0.950 . S
H382 C388 0.949 . S
C383 H378 0.950 . S
C383 C385 1.327 . S
C383 C389 1.429 . S
C384 C376 1.574 . S
C384 H379 0.949 . S
C384 C390 1.368 . S
C385 C369 1.349 . S
C385 H377 0.950 . S
C385 C383 1.327 . S
C386 C374 1.349 . S
C386 H380 0.950 . S
C386 C387 1.327 . S
C387 H381 0.950 . S
C387 C386 1.327 . S
C387 C391 1.429 . S
C388 C371 1.574 . S
C388 H382 0.949 . S
C388 C392 1.368 . S
C389 C370 1.429 . S
C389 C383 1.429 . S
C389 C390 1.523 . S
C390 C371 1.368 . S
C390 C384 1.368 . S
C390 C389 1.523 . S
C391 C375 1.429 . S
C391 C387 1.429 . S
C391 C392 1.523 . S
C392 C376 1.368 . S
C392 C388 1.368 . S
C392 C391 1.523 . S
H393 C368 0.950 . S
H394 C370 0.950 . S
H395 C371 0.949 . S
H396 C373 0.950 . S
H397 C375 0.950 . S
C398 C399 1.349 . S
C398 C400 1.327 . S
C398 H423 0.950 . S
C399 C398 1.349 . S
C399 C415 1.349 . S
C400 C398 1.327 . S
C400 C419 1.429 . S
C400 H424 0.950 . S
C401 C418 1.574 . S
C401 C420 1.368 . S
C401 H425 0.949 . S
H402 C406 0.949 . S
C403 C404 1.349 . S
C403 C405 1.327 . S
C403 H426 0.950 . S
C404 C403 1.349 . S
C404 C416 1.349 . S
C405 C403 1.327 . S
C405 C421 1.429 . S
C405 H427 0.950 . S
C406 H402 0.949 . S
C406 C414 1.574 . S
C406 C422 1.368 . S
H407 C415 0.950 . S
H408 C413 0.950 . S
H409 C414 0.949 . S
H410 C416 0.950 . S
H411 C417 0.950 . S
H412 C418 0.949 . S
C413 H408 0.950 . S
C413 C415 1.327 . S
C413 C419 1.429 . S
C414 C406 1.574 . S
C414 H409 0.949 . S
C414 C420 1.368 . S
C415 C399 1.349 . S
C415 H407 0.950 . S
C415 C413 1.327 . S
C416 C404 1.349 . S
C416 H410 0.950 . S
C416 C417 1.327 . S
C417 H411 0.950 . S
C417 C416 1.327 . S
C417 C421 1.429 . S
C418 C401 1.574 . S
C418 H412 0.949 . S
C418 C422 1.368 . S
C419 C400 1.429 . S
C419 C413 1.429 . S
C419 C420 1.523 . S
C420 C401 1.368 . S
C420 C414 1.368 . S
C420 C419 1.523 . S
C421 C405 1.429 . S
C421 C417 1.429 . S
C421 C422 1.523 . S
C422 C406 1.368 . S
C422 C418 1.368 . S
C422 C421 1.523 . S
H423 C398 0.950 . S
H424 C400 0.950 . S
H425 C401 0.949 . S
H426 C403 0.950 . S
H427 C405 0.950 . S
C428 C429 1.349 . S
C428 C430 1.327 . S
C428 H453 0.950 . S
C429 C428 1.349 . S
C429 C445 1.349 . S
C430 C428 1.327 . S
C430 C449 1.429 . S
C430 H454 0.950 . S
C431 C448 1.574 1_554 S
C431 C450 1.368 . S
C431 H455 0.949 . S
H432 C436 0.949 . S
C433 C434 1.349 . S
C433 C435 1.327 . S
C433 H456 0.950 . S
C434 C433 1.349 . S
C434 C446 1.349 . S
C435 C433 1.327 . S
C435 C451 1.429 . S
C435 H457 0.950 . S
C436 H432 0.949 . S
C436 C444 1.574 1_556 S
C436 C452 1.368 . S
H437 C445 0.950 . S
H438 C443 0.950 . S
H439 C444 0.949 . S
H440 C446 0.950 . S
H441 C447 0.950 . S
H442 C448 0.949 . S
C443 H438 0.950 . S
C443 C445 1.327 . S
C443 C449 1.429 . S
C444 C436 1.574 1_554 S
C444 H439 0.949 . S
C444 C450 1.368 . S
C445 C429 1.349 . S
C445 H437 0.950 . S
C445 C443 1.327 . S
C446 C434 1.349 . S
C446 H440 0.950 . S
C446 C447 1.327 . S
C447 H441 0.950 . S
C447 C446 1.327 . S
C447 C451 1.429 . S
C448 C431 1.574 1_556 S
C448 H442 0.949 . S
C448 C452 1.368 . S
C449 C430 1.429 . S
C449 C443 1.429 . S
C449 C450 1.523 . S
C450 C431 1.368 . S
C450 C444 1.368 . S
C450 C449 1.523 . S
C451 C435 1.429 . S
C451 C447 1.429 . S
C451 C452 1.523 . S
C452 C436 1.368 . S
C452 C448 1.368 . S
C452 C451 1.523 . S
H453 C428 0.950 . S
H454 C430 0.950 . S
H455 C431 0.949 . S
H456 C433 0.950 . S
H457 C435 0.950 . S
C458 C459 1.349 . S
C458 C460 1.327 . S
C458 H483 0.950 . S
C459 C458 1.349 . S
C459 C475 1.349 . S
C460 C458 1.327 . S
C460 C479 1.429 . S
C460 H484 0.950 . S
C461 C478 1.574 1_556 S
C461 C480 1.368 . S
C461 H485 0.949 . S
H462 C466 0.949 . S
C463 C464 1.349 . S
C463 C465 1.327 . S
C463 H486 0.950 . S
C464 C463 1.349 . S
C464 C476 1.349 . S
C465 C463 1.327 . S
C465 C481 1.429 . S
C465 H487 0.950 . S
C466 H462 0.949 . S
C466 C474 1.574 1_554 S
C466 C482 1.368 . S
H467 C475 0.950 . S
H468 C473 0.950 . S
H469 C474 0.949 . S
H470 C476 0.950 . S
H471 C477 0.950 . S
H472 C478 0.949 . S
C473 H468 0.950 . S
C473 C475 1.327 . S
C473 C479 1.429 . S
C474 C466 1.574 1_556 S
C474 H469 0.949 . S
C474 C480 1.368 . S
C475 C459 1.349 . S
C475 H467 0.950 . S
C475 C473 1.327 . S
C476 C464 1.349 . S
C476 H470 0.950 . S
C476 C477 1.327 . S
C477 H471 0.950 . S
C477 C476 1.327 . S
C477 C481 1.429 . S
C478 C461 1.574 1_554 S
C478 H472 0.949 . S
C478 C482 1.368 . S
C479 C460 1.429 . S
C479 C473 1.429 . S
C479 C480 1.523 . S
C480 C461 1.368 . S
C480 C474 1.368 . S
C480 C479 1.523 . S
C481 C465 1.429 . S
C481 C477 1.429 . S
C481 C482 1.523 . S
C482 C466 1.368 . S
C482 C478 1.368 . S
C482 C481 1.523 . S
H483 C458 0.950 . S
H484 C460 0.950 . S
H485 C461 0.949 . S
H486 C463 0.950 . S
H487 C465 0.950 . S
C488 C489 1.349 . S
C488 C490 1.327 . S
C488 H513 0.950 . S
C489 C488 1.349 . S
C489 C505 1.349 . S
C490 C488 1.327 . S
C490 C509 1.429 . S
C490 H514 0.950 . S
C491 C508 1.574 . S
C491 C510 1.368 . S
C491 H515 0.949 . S
H492 C496 0.949 . S
C493 C494 1.349 . S
C493 C495 1.327 . S
C493 H516 0.950 . S
C494 C493 1.349 . S
C494 C506 1.349 . S
C495 C493 1.327 . S
C495 C511 1.429 . S
C495 H517 0.950 . S
C496 H492 0.949 . S
C496 C504 1.574 . S
C496 C512 1.368 . S
H497 C505 0.950 . S
H498 C503 0.950 . S
H499 C504 0.949 . S
H500 C506 0.950 . S
H501 C507 0.950 . S
H502 C508 0.949 . S
C503 H498 0.950 . S
C503 C505 1.327 . S
C503 C509 1.429 . S
C504 C496 1.574 . S
C504 H499 0.949 . S
C504 C510 1.368 . S
C505 C489 1.349 . S
C505 H497 0.950 . S
C505 C503 1.327 . S
C506 C494 1.349 . S
C506 H500 0.950 . S
C506 C507 1.327 . S
C507 H501 0.950 . S
C507 C506 1.327 . S
C507 C511 1.429 . S
C508 C491 1.574 . S
C508 H502 0.949 . S
C508 C512 1.368 . S
C509 C490 1.429 . S
C509 C503 1.429 . S
C509 C510 1.523 . S
C510 C491 1.368 . S
C510 C504 1.368 . S
C510 C509 1.523 . S
C511 C495 1.429 . S
C511 C507 1.429 . S
C511 C512 1.523 . S
C512 C496 1.368 . S
C512 C508 1.368 . S
C512 C511 1.523 . S
H513 C488 0.950 . S
H514 C490 0.950 . S
H515 C491 0.949 . S
H516 C493 0.950 . S
H517 C495 0.950 . S
C518 C519 1.349 . S
C518 C520 1.327 . S
C518 H543 0.950 . S
C519 C518 1.349 . S
C519 C535 1.349 . S
C520 C518 1.327 . S
C520 C539 1.429 . S
C520 H544 0.950 . S
C521 C538 1.574 . S
C521 C540 1.368 . S
C521 H545 0.949 . S
H522 C526 0.949 . S
C523 C524 1.349 . S
C523 C525 1.327 . S
C523 H546 0.950 . S
C524 C523 1.349 . S
C524 C536 1.349 . S
C525 C523 1.327 . S
C525 C541 1.429 . S
C525 H547 0.950 . S
C526 H522 0.949 . S
C526 C534 1.574 . S
C526 C542 1.368 . S
H527 C535 0.950 . S
H528 C533 0.950 . S
H529 C534 0.949 . S
H530 C536 0.950 . S
H531 C537 0.950 . S
H532 C538 0.949 . S
C533 H528 0.950 . S
C533 C535 1.327 . S
C533 C539 1.429 . S
C534 C526 1.574 . S
C534 H529 0.949 . S
C534 C540 1.368 . S
C535 C519 1.349 . S
C535 H527 0.950 . S
C535 C533 1.327 . S
C536 C524 1.349 . S
C536 H530 0.950 . S
C536 C537 1.327 . S
C537 H531 0.950 . S
C537 C536 1.327 . S
C537 C541 1.429 . S
C538 C521 1.574 . S
C538 H532 0.949 . S
C538 C542 1.368 . S
C539 C520 1.429 . S
C539 C533 1.429 . S
C539 C540 1.523 . S
C540 C521 1.368 . S
C540 C534 1.368 . S
C540 C539 1.523 . S
C541 C525 1.429 . S
C541 C537 1.429 . S
C541 C542 1.523 . S
C542 C526 1.368 . S
C542 C538 1.368 . S
C542 C541 1.523 . S
H543 C518 0.950 . S
H544 C520 0.950 . S
H545 C521 0.949 . S
H546 C523 0.950 . S
H547 C525 0.950 . S
C548 C549 1.349 . S
C548 C550 1.327 . S
C548 H573 0.950 . S
C549 C548 1.349 . S
C549 C565 1.349 . S
C550 C548 1.327 . S
C550 C569 1.429 . S
C550 H574 0.950 . S
C551 C568 1.574 1_556 S
C551 C570 1.368 . S
C551 H575 0.949 . S
H552 C556 0.949 . S
C553 C554 1.349 . S
C553 C555 1.327 . S
C553 H576 0.950 . S
C554 C553 1.349 . S
C554 C566 1.349 . S
C555 C553 1.327 . S
C555 C571 1.429 . S
C555 H577 0.950 . S
C556 H552 0.949 . S
C556 C564 1.574 1_554 S
C556 C572 1.368 . S
H557 C565 0.950 . S
H558 C563 0.950 . S
H559 C564 0.949 . S
H560 C566 0.950 . S
H561 C567 0.950 . S
H562 C568 0.949 . S
C563 H558 0.950 . S
C563 C565 1.327 . S
C563 C569 1.429 . S
C564 C556 1.574 1_556 S
C564 H559 0.949 . S
C564 C570 1.368 . S
C565 C549 1.349 . S
C565 H557 0.950 . S
C565 C563 1.327 . S
C566 C554 1.349 . S
C566 H560 0.950 . S
C566 C567 1.327 . S
C567 H561 0.950 . S
C567 C566 1.327 . S
C567 C571 1.429 . S
C568 C551 1.574 1_554 S
C568 H562 0.949 . S
C568 C572 1.368 . S
C569 C550 1.429 . S
C569 C563 1.429 . S
C569 C570 1.523 . S
C570 C551 1.368 . S
C570 C564 1.368 . S
C570 C569 1.523 . S
C571 C555 1.429 . S
C571 C567 1.429 . S
C571 C572 1.523 . S
C572 C556 1.368 . S
C572 C568 1.368 . S
C572 C571 1.523 . S
H573 C548 0.950 . S
H574 C550 0.950 . S
H575 C551 0.949 . S
H576 C553 0.950 . S
H577 C555 0.950 . S
C578 C579 1.349 . S
C578 C580 1.327 . S
C578 H603 0.950 . S
C579 C578 1.349 . S
C579 C595 1.349 . S
C580 C578 1.327 . S
C580 C599 1.429 . S
C580 H604 0.950 . S
C581 C598 1.574 1_554 S
C581 C600 1.368 . S
C581 H605 0.949 . S
H582 C586 0.949 . S
C583 C584 1.349 . S
C583 C585 1.327 . S
C583 H606 0.950 . S
C584 C583 1.349 . S
C584 C596 1.349 . S
C585 C583 1.327 . S
C585 C601 1.429 . S
C585 H607 0.950 . S
C586 H582 0.949 . S
C586 C594 1.574 1_556 S
C586 C602 1.368 . S
H587 C595 0.950 . S
H588 C593 0.950 . S
H589 C594 0.949 . S
H590 C596 0.950 . S
H591 C597 0.950 . S
H592 C598 0.949 . S
C593 H588 0.950 . S
C593 C595 1.327 . S
C593 C599 1.429 . S
C594 C586 1.574 1_554 S
C594 H589 0.949 . S
C594 C600 1.368 . S
C595 C579 1.349 . S
C595 H587 0.950 . S
C595 C593 1.327 . S
C596 C584 1.349 . S
C596 H590 0.950 . S
C596 C597 1.327 . S
C597 H591 0.950 . S
C597 C596 1.327 . S
C597 C601 1.429 . S
C598 C581 1.574 1_556 S
C598 H592 0.949 . S
C598 C602 1.368 . S
C599 C580 1.429 . S
C599 C593 1.429 . S
C599 C600 1.523 . S
C600 C581 1.368 . S
C600 C594 1.368 . S
C600 C599 1.523 . S
C601 C585 1.429 . S
C601 C597 1.429 . S
C601 C602 1.523 . S
C602 C586 1.368 . S
C602 C598 1.368 . S
C602 C601 1.523 . S
H603 C578 0.950 . S
H604 C580 0.950 . S
H605 C581 0.949 . S
H606 C583 0.950 . S
H607 C585 0.950 . S
C608 C609 1.349 . S
C608 C610 1.327 . S
C608 H633 0.950 . S
C609 C608 1.349 . S
C609 C625 1.349 . S
C610 C608 1.327 . S
C610 C629 1.429 . S
C610 H634 0.950 . S
C611 C628 1.574 . S
C611 C630 1.368 . S
C611 H635 0.949 . S
H612 C616 0.949 . S
C613 C614 1.349 . S
C613 C615 1.327 . S
C613 H636 0.950 . S
C614 C613 1.349 . S
C614 C626 1.349 . S
C615 C613 1.327 . S
C615 C631 1.429 . S
C615 H637 0.950 . S
C616 H612 0.949 . S
C616 C624 1.574 . S
C616 C632 1.368 . S
H617 C625 0.950 . S
H618 C623 0.950 . S
H619 C624 0.949 . S
H620 C626 0.950 . S
H621 C627 0.950 . S
H622 C628 0.949 . S
C623 H618 0.950 . S
C623 C625 1.327 . S
C623 C629 1.429 . S
C624 C616 1.574 . S
C624 H619 0.949 . S
C624 C630 1.368 1_545 S
C625 C609 1.349 . S
C625 H617 0.950 . S
C625 C623 1.327 . S
C626 C614 1.349 . S
C626 H620 0.950 . S
C626 C627 1.327 . S
C627 H621 0.950 . S
C627 C626 1.327 . S
C627 C631 1.429 . S
C628 C611 1.574 . S
C628 H622 0.949 . S
C628 C632 1.368 1_565 S
C629 C610 1.429 . S
C629 C623 1.429 . S
C629 C630 1.523 . S
C630 C611 1.368 . S
C630 C624 1.368 1_565 S
C630 C629 1.523 . S
C631 C615 1.429 . S
C631 C627 1.429 . S
C631 C632 1.523 . S
C632 C616 1.368 . S
C632 C628 1.368 1_545 S
C632 C631 1.523 . S
H633 C608 0.950 . S
H634 C610 0.950 . S
H635 C611 0.949 . S
H636 C613 0.950 . S
H637 C615 0.950 . S
C638 C639 1.349 . S
C638 C640 1.327 . S
C638 H663 0.950 . S
C639 C638 1.349 . S
C639 C655 1.349 . S
C640 C638 1.327 . S
C640 C659 1.429 . S
C640 H664 0.950 . S
C641 C658 1.574 . S
C641 C660 1.368 1_545 S
C641 H665 0.949 . S
H642 C646 0.949 . S
C643 C644 1.349 . S
C643 C645 1.327 . S
C643 H666 0.950 . S
C644 C643 1.349 . S
C644 C656 1.349 . S
C645 C643 1.327 . S
C645 C661 1.429 . S
C645 H667 0.950 . S
C646 H642 0.949 . S
C646 C654 1.574 . S
C646 C662 1.368 1_565 S
H647 C655 0.950 . S
H648 C653 0.950 . S
H649 C654 0.949 . S
H650 C656 0.950 . S
H651 C657 0.950 . S
H652 C658 0.949 . S
C653 H648 0.950 . S
C653 C655 1.327 . S
C653 C659 1.429 . S
C654 C646 1.574 . S
C654 H649 0.949 . S
C654 C660 1.368 . S
C655 C639 1.349 . S
C655 H647 0.950 . S
C655 C653 1.327 . S
C656 C644 1.349 . S
C656 H650 0.950 . S
C656 C657 1.327 . S
C657 H651 0.950 . S
C657 C656 1.327 . S
C657 C661 1.429 . S
C658 C641 1.574 . S
C658 H652 0.949 . S
C658 C662 1.368 . S
C659 C640 1.429 . S
C659 C653 1.429 . S
C659 C660 1.523 . S
C660 C641 1.368 1_565 S
C660 C654 1.368 . S
C660 C659 1.523 . S
C661 C645 1.429 . S
C661 C657 1.429 . S
C661 C662 1.523 . S
C662 C646 1.368 1_545 S
C662 C658 1.368 . S
C662 C661 1.523 . S
H663 C638 0.950 . S
H664 C640 0.950 . S
H665 C641 0.949 . S
H666 C643 0.950 . S
H667 C645 0.950 . S
C668 C669 1.349 . S
C668 C670 1.327 . S
C668 H693 0.950 . S
C669 C668 1.349 . S
C669 C685 1.349 . S
C670 C668 1.327 . S
C670 C689 1.429 . S
C670 H694 0.950 . S
C671 C688 1.574 . S
C671 C690 1.368 . S
C671 H695 0.949 . S
H672 C676 0.949 . S
C673 C674 1.349 . S
C673 C675 1.327 . S
C673 H696 0.950 . S
C674 C673 1.349 . S
C674 C686 1.349 . S
C675 C673 1.327 . S
C675 C691 1.429 . S
C675 H697 0.950 . S
C676 H672 0.949 . S
C676 C684 1.574 . S
C676 C692 1.368 . S
H677 C685 0.950 . S
H678 C683 0.950 . S
H679 C684 0.949 . S
H680 C686 0.950 . S
H681 C687 0.950 . S
H682 C688 0.949 . S
C683 H678 0.950 . S
C683 C685 1.327 . S
C683 C689 1.429 . S
C684 C676 1.574 . S
C684 H679 0.949 . S
C684 C690 1.368 1_545 S
C685 C669 1.349 . S
C685 H677 0.950 . S
C685 C683 1.327 . S
C686 C674 1.349 . S
C686 H680 0.950 . S
C686 C687 1.327 . S
C687 H681 0.950 . S
C687 C686 1.327 . S
C687 C691 1.429 . S
C688 C671 1.574 . S
C688 H682 0.949 . S
C688 C692 1.368 1_565 S
C689 C670 1.429 . S
C689 C683 1.429 . S
C689 C690 1.523 . S
C690 C671 1.368 . S
C690 C684 1.368 1_565 S
C690 C689 1.523 . S
C691 C675 1.429 . S
C691 C687 1.429 . S
C691 C692 1.523 . S
C692 C676 1.368 . S
C692 C688 1.368 1_545 S
C692 C691 1.523 . S
H693 C668 0.950 . S
H694 C670 0.950 . S
H695 C671 0.949 . S
H696 C673 0.950 . S
H697 C675 0.950 . S
C698 C699 1.349 . S
C698 C700 1.327 . S
C698 H723 0.950 . S
C699 C698 1.349 . S
C699 C715 1.349 . S
C700 C698 1.327 . S
C700 C719 1.429 . S
C700 H724 0.950 . S
C701 C718 1.574 . S
C701 C720 1.368 . S
C701 H725 0.949 . S
H702 C706 0.949 . S
C703 C704 1.349 . S
C703 C705 1.327 . S
C703 H726 0.950 . S
C704 C703 1.349 . S
C704 C716 1.349 . S
C705 C703 1.327 . S
C705 C721 1.429 . S
C705 H727 0.950 . S
C706 H702 0.949 . S
C706 C714 1.574 . S
C706 C722 1.368 . S
H707 C715 0.950 . S
H708 C713 0.950 . S
H709 C714 0.949 . S
H710 C716 0.950 . S
H711 C717 0.950 . S
H712 C718 0.949 . S
C713 H708 0.950 . S
C713 C715 1.327 . S
C713 C719 1.429 . S
C714 C706 1.574 . S
C714 H709 0.949 . S
C714 C720 1.368 1_565 S
C715 C699 1.349 . S
C715 H707 0.950 . S
C715 C713 1.327 . S
C716 C704 1.349 . S
C716 H710 0.950 . S
C716 C717 1.327 . S
C717 H711 0.950 . S
C717 C716 1.327 . S
C717 C721 1.429 . S
C718 C701 1.574 . S
C718 H712 0.949 . S
C718 C722 1.368 1_545 S
C719 C700 1.429 . S
C719 C713 1.429 . S
C719 C720 1.523 . S
C720 C701 1.368 . S
C720 C714 1.368 1_545 S
C720 C719 1.523 . S
C721 C705 1.429 . S
C721 C717 1.429 . S
C721 C722 1.523 . S
C722 C706 1.368 . S
C722 C718 1.368 1_565 S
C722 C721 1.523 . S
H723 C698 0.950 . S
H724 C700 0.950 . S
H725 C701 0.949 . S
H726 C703 0.950 . S
H727 C705 0.950 . S
C728 C729 1.349 . S
C728 C730 1.327 . S
C728 H753 0.950 . S
C729 C728 1.349 . S
C729 C745 1.349 . S
C730 C728 1.327 . S
C730 C749 1.429 . S
C730 H754 0.950 . S
C731 C748 1.574 1_655 S
C731 C750 1.368 . S
C731 H755 0.949 . S
H732 C736 0.949 . S
C733 C734 1.349 . S
C733 C735 1.327 . S
C733 H756 0.950 . S
C734 C733 1.349 . S
C734 C746 1.349 . S
C735 C733 1.327 . S
C735 C751 1.429 . S
C735 H757 0.950 . S
C736 H732 0.949 . S
C736 C744 1.574 1_455 S
C736 C752 1.368 . S
H737 C745 0.950 . S
H738 C743 0.950 . S
H739 C744 0.949 . S
H740 C746 0.950 . S
H741 C747 0.950 . S
H742 C748 0.949 . S
C743 H738 0.950 . S
C743 C745 1.327 . S
C743 C749 1.429 . S
C744 C736 1.574 1_655 S
C744 H739 0.949 . S
C744 C750 1.368 . S
C745 C729 1.349 . S
C745 H737 0.950 . S
C745 C743 1.327 . S
C746 C734 1.349 . S
C746 H740 0.950 . S
C746 C747 1.327 . S
C747 H741 0.950 . S
C747 C746 1.327 . S
C747 C751 1.429 . S
C748 C731 1.574 1_455 S
C748 H742 0.949 . S
C748 C752 1.368 . S
C749 C730 1.429 . S
C749 C743 1.429 . S
C749 C750 1.523 . S
C750 C731 1.368 . S
C750 C744 1.368 . S
C750 C749 1.523 . S
C751 C735 1.429 . S
C751 C747 1.429 . S
C751 C752 1.523 . S
C752 C736 1.368 . S
C752 C748 1.368 . S
C752 C751 1.523 . S
H753 C728 0.950 . S
H754 C730 0.950 . S
H755 C731 0.949 . S
H756 C733 0.950 . S
H757 C735 0.950 . S
C758 C759 1.349 . S
C758 C760 1.327 . S
C758 H783 0.950 . S
C759 C758 1.349 . S
C759 C775 1.349 . S
C760 C758 1.327 . S
C760 C779 1.429 . S
C760 H784 0.950 . S
C761 C778 1.574 1_455 S
C761 C780 1.368 . S
C761 H785 0.949 . S
H762 C766 0.949 . S
C763 C764 1.349 . S
C763 C765 1.327 . S
C763 H786 0.950 . S
C764 C763 1.349 . S
C764 C776 1.349 . S
C765 C763 1.327 . S
C765 C781 1.429 . S
C765 H787 0.950 . S
C766 H762 0.949 . S
C766 C774 1.574 1_655 S
C766 C782 1.368 . S
H767 C775 0.950 . S
H768 C773 0.950 . S
H769 C774 0.949 . S
H770 C776 0.950 . S
H771 C777 0.950 . S
H772 C778 0.949 . S
C773 H768 0.950 . S
C773 C775 1.327 . S
C773 C779 1.429 . S
C774 C766 1.574 1_455 S
C774 H769 0.949 . S
C774 C780 1.368 . S
C775 C759 1.349 . S
C775 H767 0.950 . S
C775 C773 1.327 . S
C776 C764 1.349 . S
C776 H770 0.950 . S
C776 C777 1.327 . S
C777 H771 0.950 . S
C777 C776 1.327 . S
C777 C781 1.429 . S
C778 C761 1.574 1_655 S
C778 H772 0.949 . S
C778 C782 1.368 . S
C779 C760 1.429 . S
C779 C773 1.429 . S
C779 C780 1.523 . S
C780 C761 1.368 . S
C780 C774 1.368 . S
C780 C779 1.523 . S
C781 C765 1.429 . S
C781 C777 1.429 . S
C781 C782 1.523 . S
C782 C766 1.368 . S
C782 C778 1.368 . S
C782 C781 1.523 . S
H783 C758 0.950 . S
H784 C760 0.950 . S
H785 C761 0.949 . S
H786 C763 0.950 . S
H787 C765 0.950 . S
C788 C789 1.349 . S
C788 C790 1.327 . S
C788 H813 0.950 . S
C789 C788 1.349 . S
C789 C805 1.349 . S
C790 C788 1.327 . S
C790 C809 1.429 . S
C790 H814 0.950 . S
C791 C808 1.574 1_655 S
C791 C810 1.368 . S
C791 H815 0.949 . S
H792 C796 0.949 . S
C793 C794 1.349 . S
C793 C795 1.327 . S
C793 H816 0.950 . S
C794 C793 1.349 . S
C794 C806 1.349 . S
C795 C793 1.327 . S
C795 C811 1.429 . S
C795 H817 0.950 . S
C796 H792 0.949 . S
C796 C804 1.574 1_455 S
C796 C812 1.368 . S
H797 C805 0.950 . S
H798 C803 0.950 . S
H799 C804 0.949 . S
H800 C806 0.950 . S
H801 C807 0.950 . S
H802 C808 0.949 . S
C803 H798 0.950 . S
C803 C805 1.327 . S
C803 C809 1.429 . S
C804 C796 1.574 1_655 S
C804 H799 0.949 . S
C804 C810 1.368 . S
C805 C789 1.349 . S
C805 H797 0.950 . S
C805 C803 1.327 . S
C806 C794 1.349 . S
C806 H800 0.950 . S
C806 C807 1.327 . S
C807 H801 0.950 . S
C807 C806 1.327 . S
C807 C811 1.429 . S
C808 C791 1.574 1_455 S
C808 H802 0.949 . S
C808 C812 1.368 . S
C809 C790 1.429 . S
C809 C803 1.429 . S
C809 C810 1.523 . S
C810 C791 1.368 . S
C810 C804 1.368 . S
C810 C809 1.523 . S
C811 C795 1.429 . S
C811 C807 1.429 . S
C811 C812 1.523 . S
C812 C796 1.368 . S
C812 C808 1.368 . S
C812 C811 1.523 . S
H813 C788 0.950 . S
H814 C790 0.950 . S
H815 C791 0.949 . S
H816 C793 0.950 . S
H817 C795 0.950 . S
C818 C819 1.349 . S
C818 C820 1.327 . S
C818 H843 0.950 . S
C819 C818 1.349 . S
C819 C835 1.349 . S
C820 C818 1.327 . S
C820 C839 1.429 . S
C820 H844 0.950 . S
C821 C838 1.574 1_455 S
C821 C840 1.368 . S
C821 H845 0.949 . S
H822 C826 0.949 . S
C823 C824 1.349 . S
C823 C825 1.327 . S
C823 H846 0.950 . S
C824 C823 1.349 . S
C824 C836 1.349 . S
C825 C823 1.327 . S
C825 C841 1.429 . S
C825 H847 0.950 . S
C826 H822 0.949 . S
C826 C834 1.574 1_655 S
C826 C842 1.368 . S
H827 C835 0.950 . S
H828 C833 0.950 . S
H829 C834 0.949 . S
H830 C836 0.950 . S
H831 C837 0.950 . S
H832 C838 0.949 . S
C833 H828 0.950 . S
C833 C835 1.327 . S
C833 C839 1.429 . S
C834 C826 1.574 1_455 S
C834 H829 0.949 . S
C834 C840 1.368 . S
C835 C819 1.349 . S
C835 H827 0.950 . S
C835 C833 1.327 . S
C836 C824 1.349 . S
C836 H830 0.950 . S
C836 C837 1.327 . S
C837 H831 0.950 . S
C837 C836 1.327 . S
C837 C841 1.429 . S
C838 C821 1.574 1_655 S
C838 H832 0.949 . S
C838 C842 1.368 . S
C839 C820 1.429 . S
C839 C833 1.429 . S
C839 C840 1.523 . S
C840 C821 1.368 . S
C840 C834 1.368 . S
C840 C839 1.523 . S
C841 C825 1.429 . S
C841 C837 1.429 . S
C841 C842 1.523 . S
C842 C826 1.368 . S
C842 C838 1.368 . S
C842 C841 1.523 . S
H843 C818 0.950 . S
H844 C820 0.950 . S
H845 C821 0.949 . S
H846 C823 0.950 . S
H847 C825 0.950 . S
C848 C849 1.349 . S
C848 C850 1.327 . S
C848 H873 0.950 . S
C849 C848 1.349 . S
C849 C865 1.349 . S
C850 C848 1.327 . S
C850 C869 1.429 . S
C850 H874 0.950 . S
C851 C868 1.574 . S
C851 C870 1.368 . S
C851 H875 0.949 . S
H852 C856 0.949 . S
C853 C854 1.349 . S
C853 C855 1.327 . S
C853 H876 0.950 . S
C854 C853 1.349 . S
C854 C866 1.349 . S
C855 C853 1.327 . S
C855 C871 1.429 . S
C855 H877 0.950 . S
C856 H852 0.949 . S
C856 C864 1.574 . S
C856 C872 1.368 . S
H857 C865 0.950 . S
H858 C863 0.950 . S
H859 C864 0.949 . S
H860 C866 0.950 . S
H861 C867 0.950 . S
H862 C868 0.949 . S
C863 H858 0.950 . S
C863 C865 1.327 . S
C863 C869 1.429 . S
C864 C856 1.574 . S
C864 H859 0.949 . S
C864 C870 1.368 . S
C865 C849 1.349 . S
C865 H857 0.950 . S
C865 C863 1.327 . S
C866 C854 1.349 . S
C866 H860 0.950 . S
C866 C867 1.327 . S
C867 H861 0.950 . S
C867 C866 1.327 . S
C867 C871 1.429 . S
C868 C851 1.574 . S
C868 H862 0.949 . S
C868 C872 1.368 . S
C869 C850 1.429 . S
C869 C863 1.429 . S
C869 C870 1.523 . S
C870 C851 1.368 . S
C870 C864 1.368 . S
C870 C869 1.523 . S
C871 C855 1.429 . S
C871 C867 1.429 . S
C871 C872 1.523 . S
C872 C856 1.368 . S
C872 C868 1.368 . S
C872 C871 1.523 . S
H873 C848 0.950 . S
H874 C850 0.950 . S
H875 C851 0.949 . S
H876 C853 0.950 . S
H877 C855 0.950 . S
C878 C879 1.349 . S
C878 C880 1.327 . S
C878 H903 0.950 . S
C879 C878 1.349 . S
C879 C895 1.349 . S
C880 C878 1.327 . S
C880 C899 1.429 . S
C880 H904 0.950 . S
C881 C898 1.574 . S
C881 C900 1.368 . S
C881 H905 0.949 . S
H882 C886 0.949 . S
C883 C884 1.349 . S
C883 C885 1.327 . S
C883 H906 0.950 . S
C884 C883 1.349 . S
C884 C896 1.349 . S
C885 C883 1.327 . S
C885 C901 1.429 . S
C885 H907 0.950 . S
C886 H882 0.949 . S
C886 C894 1.574 . S
C886 C902 1.368 . S
H887 C895 0.950 . S
H888 C893 0.950 . S
H889 C894 0.949 . S
H890 C896 0.950 . S
H891 C897 0.950 . S
H892 C898 0.949 . S
C893 H888 0.950 . S
C893 C895 1.327 . S
C893 C899 1.429 . S
C894 C886 1.574 . S
C894 H889 0.949 . S
C894 C900 1.368 . S
C895 C879 1.349 . S
C895 H887 0.950 . S
C895 C893 1.327 . S
C896 C884 1.349 . S
C896 H890 0.950 . S
C896 C897 1.327 . S
C897 H891 0.950 . S
C897 C896 1.327 . S
C897 C901 1.429 . S
C898 C881 1.574 . S
C898 H892 0.949 . S
C898 C902 1.368 . S
C899 C880 1.429 . S
C899 C893 1.429 . S
C899 C900 1.523 . S
C900 C881 1.368 . S
C900 C894 1.368 . S
C900 C899 1.523 . S
C901 C885 1.429 . S
C901 C897 1.429 . S
C901 C902 1.523 . S
C902 C886 1.368 . S
C902 C898 1.368 . S
C902 C901 1.523 . S
H903 C878 0.950 . S
H904 C880 0.950 . S
H905 C881 0.949 . S
H906 C883 0.950 . S
H907 C885 0.950 . S
C908 C909 1.349 . S
C908 C910 1.327 . S
C908 H933 0.950 . S
C909 C908 1.349 . S
C909 C925 1.349 . S
C910 C908 1.327 . S
C910 C929 1.429 . S
C910 H934 0.950 . S
C911 C928 1.574 . S
C911 C930 1.368 . S
C911 H935 0.949 . S
H912 C916 0.949 . S
C913 C914 1.349 . S
C913 C915 1.327 . S
C913 H936 0.950 . S
C914 C913 1.349 . S
C914 C926 1.349 . S
C915 C913 1.327 . S
C915 C931 1.429 . S
C915 H937 0.950 . S
C916 H912 0.949 . S
C916 C924 1.574 . S
C916 C932 1.368 . S
H917 C925 0.950 . S
H918 C923 0.950 . S
H919 C924 0.949 . S
H920 C926 0.950 . S
H921 C927 0.950 . S
H922 C928 0.949 . S
C923 H918 0.950 . S
C923 C925 1.327 . S
C923 C929 1.429 . S
C924 C916 1.574 . S
C924 H919 0.949 . S
C924 C930 1.368 . S
C925 C909 1.349 . S
C925 H917 0.950 . S
C925 C923 1.327 . S
C926 C914 1.349 . S
C926 H920 0.950 . S
C926 C927 1.327 . S
C927 H921 0.950 . S
C927 C926 1.327 . S
C927 C931 1.429 . S
C928 C911 1.574 . S
C928 H922 0.949 . S
C928 C932 1.368 . S
C929 C910 1.429 . S
C929 C923 1.429 . S
C929 C930 1.523 . S
C930 C911 1.368 . S
C930 C924 1.368 . S
C930 C929 1.523 . S
C931 C915 1.429 . S
C931 C927 1.429 . S
C931 C932 1.523 . S
C932 C916 1.368 . S
C932 C928 1.368 . S
C932 C931 1.523 . S
H933 C908 0.950 . S
H934 C910 0.950 . S
H935 C911 0.949 . S
H936 C913 0.950 . S
H937 C915 0.950 . S
C938 C939 1.349 . S
C938 C940 1.327 . S
C938 H963 0.950 . S
C939 C938 1.349 . S
C939 C955 1.349 . S
C940 C938 1.327 . S
C940 C959 1.429 . S
C940 H964 0.950 . S
C941 C958 1.574 . S
C941 C960 1.368 . S
C941 H965 0.949 . S
H942 C946 0.949 . S
C943 C944 1.349 . S
C943 C945 1.327 . S
C943 H966 0.950 . S
C944 C943 1.349 . S
C944 C956 1.349 . S
C945 C943 1.327 . S
C945 C961 1.429 . S
C945 H967 0.950 . S
C946 H942 0.949 . S
C946 C954 1.574 . S
C946 C962 1.368 . S
H947 C955 0.950 . S
H948 C953 0.950 . S
H949 C954 0.949 . S
H950 C956 0.950 . S
H951 C957 0.950 . S
H952 C958 0.949 . S
C953 H948 0.950 . S
C953 C955 1.327 . S
C953 C959 1.429 . S
C954 C946 1.574 . S
C954 H949 0.949 . S
C954 C960 1.368 . S
C955 C939 1.349 . S
C955 H947 0.950 . S
C955 C953 1.327 . S
C956 C944 1.349 . S
C956 H950 0.950 . S
C956 C957 1.327 . S
C957 H951 0.950 . S
C957 C956 1.327 . S
C957 C961 1.429 . S
C958 C941 1.574 . S
C958 H952 0.949 . S
C958 C962 1.368 . S
C959 C940 1.429 . S
C959 C953 1.429 . S
C959 C960 1.523 . S
C960 C941 1.368 . S
C960 C954 1.368 . S
C960 C959 1.523 . S
C961 C945 1.429 . S
C961 C957 1.429 . S
C961 C962 1.523 . S
C962 C946 1.368 . S
C962 C958 1.368 . S
C962 C961 1.523 . S
H963 C938 0.950 . S
H964 C940 0.950 . S
H965 C941 0.949 . S
H966 C943 0.950 . S
H967 C945 0.950 . S
C968 C969 1.349 . S
C968 C970 1.327 . S
C968 H993 0.950 . S
C969 C968 1.349 . S
C969 C985 1.349 . S
C970 C968 1.327 . S
C970 C989 1.429 . S
C970 H994 0.950 . S
C971 C988 1.574 . S
C971 C990 1.368 . S
C971 H995 0.949 . S
H972 C976 0.949 . S
C973 C974 1.349 . S
C973 C975 1.327 . S
C973 H996 0.950 . S
C974 C973 1.349 . S
C974 C986 1.349 . S
C975 C973 1.327 . S
C975 C991 1.429 . S
C975 H997 0.950 . S
C976 H972 0.949 . S
C976 C984 1.574 . S
C976 C992 1.368 . S
H977 C985 0.950 . S
H978 C983 0.950 . S
H979 C984 0.949 . S
H980 C986 0.950 . S
H981 C987 0.950 . S
H982 C988 0.949 . S
C983 H978 0.950 . S
C983 C985 1.327 . S
C983 C989 1.429 . S
C984 C976 1.574 . S
C984 H979 0.949 . S
C984 C990 1.368 . S
C985 C969 1.349 . S
C985 H977 0.950 . S
C985 C983 1.327 . S
C986 C974 1.349 . S
C986 H980 0.950 . S
C986 C987 1.327 . S
C987 H981 0.950 . S
C987 C986 1.327 . S
C987 C991 1.429 . S
C988 C971 1.574 . S
C988 H982 0.949 . S
C988 C992 1.368 . S
C989 C970 1.429 . S
C989 C983 1.429 . S
C989 C990 1.523 . S
C990 C971 1.368 . S
C990 C984 1.368 . S
C990 C989 1.523 . S
C991 C975 1.429 . S
C991 C987 1.429 . S
C991 C992 1.523 . S
C992 C976 1.368 . S
C992 C988 1.368 . S
C992 C991 1.523 . S
H993 C968 0.950 . S
H994 C970 0.950 . S
H995 C971 0.949 . S
H996 C973 0.950 . S
H997 C975 0.950 . S
C998 C999 1.349 . S
C998 C1000 1.327 . S
C998 H1023 0.950 . S
C999 C998 1.349 . S
C999 C1015 1.349 . S
C1000 C998 1.327 . S
C1000 C1019 1.429 . S
C1000 H1024 0.950 . S
C1001 C1018 1.574 . S
C1001 C1020 1.368 . S
C1001 H1025 0.949 . S
H1002 C1006 0.949 . S
C1003 C1004 1.349 . S
C1003 C1005 1.327 . S
C1003 H1026 0.950 . S
C1004 C1003 1.349 . S
C1004 C1016 1.349 . S
C1005 C1003 1.327 . S
C1005 C1021 1.429 . S
C1005 H1027 0.950 . S
C1006 H1002 0.949 . S
C1006 C1014 1.574 . S
C1006 C1022 1.368 . S
H1007 C1015 0.950 . S
H1008 C1013 0.950 . S
H1009 C1014 0.949 . S
H1010 C1016 0.950 . S
H1011 C1017 0.950 . S
H1012 C1018 0.949 . S
C1013 H1008 0.950 . S
C1013 C1015 1.327 . S
C1013 C1019 1.429 . S
C1014 C1006 1.574 . S
C1014 H1009 0.949 . S
C1014 C1020 1.368 . S
C1015 C999 1.349 . S
C1015 H1007 0.950 . S
C1015 C1013 1.327 . S
C1016 C1004 1.349 . S
C1016 H1010 0.950 . S
C1016 C1017 1.327 . S
C1017 H1011 0.950 . S
C1017 C1016 1.327 . S
C1017 C1021 1.429 . S
C1018 C1001 1.574 . S
C1018 H1012 0.949 . S
C1018 C1022 1.368 . S
C1019 C1000 1.429 . S
C1019 C1013 1.429 . S
C1019 C1020 1.523 . S
C1020 C1001 1.368 . S
C1020 C1014 1.368 . S
C1020 C1019 1.523 . S
C1021 C1005 1.429 . S
C1021 C1017 1.429 . S
C1021 C1022 1.523 . S
C1022 C1006 1.368 . S
C1022 C1018 1.368 . S
C1022 C1021 1.523 . S
H1023 C998 0.950 . S
H1024 C1000 0.950 . S
H1025 C1001 0.949 . S
H1026 C1003 0.950 . S
H1027 C1005 0.950 . S
C1028 C1029 1.349 . S
C1028 C1030 1.327 . S
C1028 H1053 0.950 . S
C1029 C1028 1.349 . S
C1029 C1045 1.349 . S
C1030 C1028 1.327 . S
C1030 C1049 1.429 . S
C1030 H1054 0.950 . S
C1031 C1048 1.574 . S
C1031 C1050 1.368 . S
C1031 H1055 0.949 . S
H1032 C1036 0.949 . S
C1033 C1034 1.349 . S
C1033 C1035 1.327 . S
C1033 H1056 0.950 . S
C1034 C1033 1.349 . S
C1034 C1046 1.349 . S
C1035 C1033 1.327 . S
C1035 C1051 1.429 . S
C1035 H1057 0.950 . S
C1036 H1032 0.949 . S
C1036 C1044 1.574 . S
C1036 C1052 1.368 . S
H1037 C1045 0.950 . S
H1038 C1043 0.950 . S
H1039 C1044 0.949 . S
H1040 C1046 0.950 . S
H1041 C1047 0.950 . S
H1042 C1048 0.949 . S
C1043 H1038 0.950 . S
C1043 C1045 1.327 . S
C1043 C1049 1.429 . S
C1044 C1036 1.574 . S
C1044 H1039 0.949 . S
C1044 C1050 1.368 . S
C1045 C1029 1.349 . S
C1045 H1037 0.950 . S
C1045 C1043 1.327 . S
C1046 C1034 1.349 . S
C1046 H1040 0.950 . S
C1046 C1047 1.327 . S
C1047 H1041 0.950 . S
C1047 C1046 1.327 . S
C1047 C1051 1.429 . S
C1048 C1031 1.574 . S
C1048 H1042 0.949 . S
C1048 C1052 1.368 . S
C1049 C1030 1.429 . S
C1049 C1043 1.429 . S
C1049 C1050 1.523 . S
C1050 C1031 1.368 . S
C1050 C1044 1.368 . S
C1050 C1049 1.523 . S
C1051 C1035 1.429 . S
C1051 C1047 1.429 . S
C1051 C1052 1.523 . S
C1052 C1036 1.368 . S
C1052 C1048 1.368 . S
C1052 C1051 1.523 . S
H1053 C1028 0.950 . S
H1054 C1030 0.950 . S
H1055 C1031 0.949 . S
H1056 C1033 0.950 . S
H1057 C1035 0.950 . S
C1058 C1059 1.349 . S
C1058 C1060 1.327 . S
C1058 H1083 0.950 . S
C1059 C1058 1.349 . S
C1059 C1075 1.349 . S
C1060 C1058 1.327 . S
C1060 C1079 1.429 . S
C1060 H1084 0.950 . S
C1061 C1078 1.574 . S
C1061 C1080 1.368 . S
C1061 H1085 0.949 . S
H1062 C1066 0.949 . S
C1063 C1064 1.349 . S
C1063 C1065 1.327 . S
C1063 H1086 0.950 . S
C1064 C1063 1.349 . S
C1064 C1076 1.349 . S
C1065 C1063 1.327 . S
C1065 C1081 1.429 . S
C1065 H1087 0.950 . S
C1066 H1062 0.949 . S
C1066 C1074 1.574 . S
C1066 C1082 1.368 . S
H1067 C1075 0.950 . S
H1068 C1073 0.950 . S
H1069 C1074 0.949 . S
H1070 C1076 0.950 . S
H1071 C1077 0.950 . S
H1072 C1078 0.949 . S
C1073 H1068 0.950 . S
C1073 C1075 1.327 . S
C1073 C1079 1.429 . S
C1074 C1066 1.574 . S
C1074 H1069 0.949 . S
C1074 C1080 1.368 . S
C1075 C1059 1.349 . S
C1075 H1067 0.950 . S
C1075 C1073 1.327 . S
C1076 C1064 1.349 . S
C1076 H1070 0.950 . S
C1076 C1077 1.327 . S
C1077 H1071 0.950 . S
C1077 C1076 1.327 . S
C1077 C1081 1.429 . S
C1078 C1061 1.574 . S
C1078 H1072 0.949 . S
C1078 C1082 1.368 . S
C1079 C1060 1.429 . S
C1079 C1073 1.429 . S
C1079 C1080 1.523 . S
C1080 C1061 1.368 . S
C1080 C1074 1.368 . S
C1080 C1079 1.523 . S
C1081 C1065 1.429 . S
C1081 C1077 1.429 . S
C1081 C1082 1.523 . S
C1082 C1066 1.368 . S
C1082 C1078 1.368 . S
C1082 C1081 1.523 . S
H1083 C1058 0.950 . S
H1084 C1060 0.950 . S
H1085 C1061 0.949 . S
H1086 C1063 0.950 . S
H1087 C1065 0.950 . S
C1088 C1089 1.349 . S
C1088 C1090 1.327 . S
C1088 H1113 0.950 . S
C1089 C1088 1.349 . S
C1089 C1105 1.349 . S
C1090 C1088 1.327 . S
C1090 C1109 1.429 . S
C1090 H1114 0.950 . S
C1091 C1108 1.574 . S
C1091 C1110 1.368 1_565 S
C1091 H1115 0.949 . S
H1092 C1096 0.949 . S
C1093 C1094 1.349 . S
C1093 C1095 1.327 . S
C1093 H1116 0.950 . S
C1094 C1093 1.349 . S
C1094 C1106 1.349 . S
C1095 C1093 1.327 . S
C1095 C1111 1.429 . S
C1095 H1117 0.950 . S
C1096 H1092 0.949 . S
C1096 C1104 1.574 . S
C1096 C1112 1.368 1_545 S
H1097 C1105 0.950 . S
H1098 C1103 0.950 . S
H1099 C1104 0.949 . S
H1100 C1106 0.950 . S
H1101 C1107 0.950 . S
H1102 C1108 0.949 . S
C1103 H1098 0.950 . S
C1103 C1105 1.327 . S
C1103 C1109 1.429 . S
C1104 C1096 1.574 . S
C1104 H1099 0.949 . S
C1104 C1110 1.368 . S
C1105 C1089 1.349 . S
C1105 H1097 0.950 . S
C1105 C1103 1.327 . S
C1106 C1094 1.349 . S
C1106 H1100 0.950 . S
C1106 C1107 1.327 . S
C1107 H1101 0.950 . S
C1107 C1106 1.327 . S
C1107 C1111 1.429 . S
C1108 C1091 1.574 . S
C1108 H1102 0.949 . S
C1108 C1112 1.368 . S
C1109 C1090 1.429 . S
C1109 C1103 1.429 . S
C1109 C1110 1.523 . S
C1110 C1091 1.368 1_545 S
C1110 C1104 1.368 . S
C1110 C1109 1.523 . S
C1111 C1095 1.429 . S
C1111 C1107 1.429 . S
C1111 C1112 1.523 . S
C1112 C1096 1.368 1_565 S
C1112 C1108 1.368 . S
C1112 C1111 1.523 . S
H1113 C1088 0.950 . S
H1114 C1090 0.950 . S
H1115 C1091 0.949 . S
H1116 C1093 0.950 . S
H1117 C1095 0.950 . S
C1118 C1119 1.349 . S
C1118 C1120 1.327 . S
C1118 H1143 0.950 . S
C1119 C1118 1.349 . S
C1119 C1135 1.349 . S
C1120 C1118 1.327 . S
C1120 C1139 1.429 . S
C1120 H1144 0.950 . S
C1121 C1138 1.574 . S
C1121 C1140 1.368 . S
C1121 H1145 0.949 . S
H1122 C1126 0.949 . S
C1123 C1124 1.349 . S
C1123 C1125 1.327 . S
C1123 H1146 0.950 . S
C1124 C1123 1.349 . S
C1124 C1136 1.349 . S
C1125 C1123 1.327 . S
C1125 C1141 1.429 . S
C1125 H1147 0.950 . S
C1126 H1122 0.949 . S
C1126 C1134 1.574 . S
C1126 C1142 1.368 . S
H1127 C1135 0.950 . S
H1128 C1133 0.950 . S
H1129 C1134 0.949 . S
H1130 C1136 0.950 . S
H1131 C1137 0.950 . S
H1132 C1138 0.949 . S
C1133 H1128 0.950 . S
C1133 C1135 1.327 . S
C1133 C1139 1.429 . S
C1134 C1126 1.574 . S
C1134 H1129 0.949 . S
C1134 C1140 1.368 1_565 S
C1135 C1119 1.349 . S
C1135 H1127 0.950 . S
C1135 C1133 1.327 . S
C1136 C1124 1.349 . S
C1136 H1130 0.950 . S
C1136 C1137 1.327 . S
C1137 H1131 0.950 . S
C1137 C1136 1.327 . S
C1137 C1141 1.429 . S
C1138 C1121 1.574 . S
C1138 H1132 0.949 . S
C1138 C1142 1.368 1_545 S
C1139 C1120 1.429 . S
C1139 C1133 1.429 . S
C1139 C1140 1.523 . S
C1140 C1121 1.368 . S
C1140 C1134 1.368 1_545 S
C1140 C1139 1.523 . S
C1141 C1125 1.429 . S
C1141 C1137 1.429 . S
C1141 C1142 1.523 . S
C1142 C1126 1.368 . S
C1142 C1138 1.368 1_565 S
C1142 C1141 1.523 . S
H1143 C1118 0.950 . S
H1144 C1120 0.950 . S
H1145 C1121 0.949 . S
H1146 C1123 0.950 . S
H1147 C1125 0.950 . S
C1148 C1149 1.349 . S
C1148 C1150 1.327 . S
C1148 H1173 0.950 . S
C1149 C1148 1.349 . S
C1149 C1165 1.349 . S
C1150 C1148 1.327 . S
C1150 C1169 1.429 . S
C1150 H1174 0.950 . S
C1151 C1168 1.574 . S
C1151 C1170 1.368 1_565 S
C1151 H1175 0.949 . S
H1152 C1156 0.949 . S
C1153 C1154 1.349 . S
C1153 C1155 1.327 . S
C1153 H1176 0.950 . S
C1154 C1153 1.349 . S
C1154 C1166 1.349 . S
C1155 C1153 1.327 . S
C1155 C1171 1.429 . S
C1155 H1177 0.950 . S
C1156 H1152 0.949 . S
C1156 C1164 1.574 . S
C1156 C1172 1.368 1_545 S
H1157 C1165 0.950 . S
H1158 C1163 0.950 . S
H1159 C1164 0.949 . S
H1160 C1166 0.950 . S
H1161 C1167 0.950 . S
H1162 C1168 0.949 . S
C1163 H1158 0.950 . S
C1163 C1165 1.327 . S
C1163 C1169 1.429 . S
C1164 C1156 1.574 . S
C1164 H1159 0.949 . S
C1164 C1170 1.368 . S
C1165 C1149 1.349 . S
C1165 H1157 0.950 . S
C1165 C1163 1.327 . S
C1166 C1154 1.349 . S
C1166 H1160 0.950 . S
C1166 C1167 1.327 . S
C1167 H1161 0.950 . S
C1167 C1166 1.327 . S
C1167 C1171 1.429 . S
C1168 C1151 1.574 . S
C1168 H1162 0.949 . S
C1168 C1172 1.368 . S
C1169 C1150 1.429 . S
C1169 C1163 1.429 . S
C1169 C1170 1.523 . S
C1170 C1151 1.368 1_545 S
C1170 C1164 1.368 . S
C1170 C1169 1.523 . S
C1171 C1155 1.429 . S
C1171 C1167 1.429 . S
C1171 C1172 1.523 . S
C1172 C1156 1.368 1_565 S
C1172 C1168 1.368 . S
C1172 C1171 1.523 . S
H1173 C1148 0.950 . S
H1174 C1150 0.950 . S
H1175 C1151 0.949 . S
H1176 C1153 0.950 . S
H1177 C1155 0.950 . S
C1178 C1179 1.349 . S
C1178 C1180 1.327 . S
C1178 H1203 0.950 . S
C1179 C1178 1.349 . S
C1179 C1195 1.349 . S
C1180 C1178 1.327 . S
C1180 C1199 1.429 . S
C1180 H1204 0.950 . S
C1181 C1198 1.574 . S
C1181 C1200 1.368 1_545 S
C1181 H1205 0.949 . S
H1182 C1186 0.949 . S
C1183 C1184 1.349 . S
C1183 C1185 1.327 . S
C1183 H1206 0.950 . S
C1184 C1183 1.349 . S
C1184 C1196 1.349 . S
C1185 C1183 1.327 . S
C1185 C1201 1.429 . S
C1185 H1207 0.950 . S
C1186 H1182 0.949 . S
C1186 C1194 1.574 . S
C1186 C1202 1.368 1_565 S
H1187 C1195 0.950 . S
H1188 C1193 0.950 . S
H1189 C1194 0.949 . S
H1190 C1196 0.950 . S
H1191 C1197 0.950 . S
H1192 C1198 0.949 . S
C1193 H1188 0.950 . S
C1193 C1195 1.327 . S
C1193 C1199 1.429 . S
C1194 C1186 1.574 . S
C1194 H1189 0.949 . S
C1194 C1200 1.368 . S
C1195 C1179 1.349 . S
C1195 H1187 0.950 . S
C1195 C1193 1.327 . S
C1196 C1184 1.349 . S
C1196 H1190 0.950 . S
C1196 C1197 1.327 . S
C1197 H1191 0.950 . S
C1197 C1196 1.327 . S
C1197 C1201 1.429 . S
C1198 C1181 1.574 . S
C1198 H1192 0.949 . S
C1198 C1202 1.368 . S
C1199 C1180 1.429 . S
C1199 C1193 1.429 . S
C1199 C1200 1.523 . S
C1200 C1181 1.368 1_565 S
C1200 C1194 1.368 . S
C1200 C1199 1.523 . S
C1201 C1185 1.429 . S
C1201 C1197 1.429 . S
C1201 C1202 1.523 . S
C1202 C1186 1.368 1_545 S
C1202 C1198 1.368 . S
C1202 C1201 1.523 . S
H1203 C1178 0.950 . S
H1204 C1180 0.950 . S
H1205 C1181 0.949 . S
H1206 C1183 0.950 . S
H1207 C1185 0.950 . S
C1208 C1209 1.349 . S
C1208 C1210 1.327 . S
C1208 H1233 0.950 . S
C1209 C1208 1.349 . S
C1209 C1225 1.349 . S
C1210 C1208 1.327 . S
C1210 C1229 1.429 . S
C1210 H1234 0.950 . S
C1211 C1228 1.574 . S
C1211 C1230 1.368 . S
C1211 H1235 0.949 . S
H1212 C1216 0.949 . S
C1213 C1214 1.349 . S
C1213 C1215 1.327 . S
C1213 H1236 0.950 . S
C1214 C1213 1.349 . S
C1214 C1226 1.349 . S
C1215 C1213 1.327 . S
C1215 C1231 1.429 . S
C1215 H1237 0.950 . S
C1216 H1212 0.949 . S
C1216 C1224 1.574 . S
C1216 C1232 1.368 . S
H1217 C1225 0.950 . S
H1218 C1223 0.950 . S
H1219 C1224 0.949 . S
H1220 C1226 0.950 . S
H1221 C1227 0.950 . S
H1222 C1228 0.949 . S
C1223 H1218 0.950 . S
C1223 C1225 1.327 . S
C1223 C1229 1.429 . S
C1224 C1216 1.574 . S
C1224 H1219 0.949 . S
C1224 C1230 1.368 . S
C1225 C1209 1.349 . S
C1225 H1217 0.950 . S
C1225 C1223 1.327 . S
C1226 C1214 1.349 . S
C1226 H1220 0.950 . S
C1226 C1227 1.327 . S
C1227 H1221 0.950 . S
C1227 C1226 1.327 . S
C1227 C1231 1.429 . S
C1228 C1211 1.574 . S
C1228 H1222 0.949 . S
C1228 C1232 1.368 . S
C1229 C1210 1.429 . S
C1229 C1223 1.429 . S
C1229 C1230 1.523 . S
C1230 C1211 1.368 . S
C1230 C1224 1.368 . S
C1230 C1229 1.523 . S
C1231 C1215 1.429 . S
C1231 C1227 1.429 . S
C1231 C1232 1.523 . S
C1232 C1216 1.368 . S
C1232 C1228 1.368 . S
C1232 C1231 1.523 . S
H1233 C1208 0.950 . S
H1234 C1210 0.950 . S
H1235 C1211 0.949 . S
H1236 C1213 0.950 . S
H1237 C1215 0.950 . S
C1238 C1239 1.349 . S
C1238 C1240 1.327 . S
C1238 H1263 0.950 . S
C1239 C1238 1.349 . S
C1239 C1255 1.349 . S
C1240 C1238 1.327 . S
C1240 C1259 1.429 . S
C1240 H1264 0.950 . S
C1241 C1258 1.574 . S
C1241 C1260 1.368 . S
C1241 H1265 0.949 . S
H1242 C1246 0.949 . S
C1243 C1244 1.349 . S
C1243 C1245 1.327 . S
C1243 H1266 0.950 . S
C1244 C1243 1.349 . S
C1244 C1256 1.349 . S
C1245 C1243 1.327 . S
C1245 C1261 1.429 . S
C1245 H1267 0.950 . S
C1246 H1242 0.949 . S
C1246 C1254 1.574 . S
C1246 C1262 1.368 . S
H1247 C1255 0.950 . S
H1248 C1253 0.950 . S
H1249 C1254 0.949 . S
H1250 C1256 0.950 . S
H1251 C1257 0.950 . S
H1252 C1258 0.949 . S
C1253 H1248 0.950 . S
C1253 C1255 1.327 . S
C1253 C1259 1.429 . S
C1254 C1246 1.574 . S
C1254 H1249 0.949 . S
C1254 C1260 1.368 . S
C1255 C1239 1.349 . S
C1255 H1247 0.950 . S
C1255 C1253 1.327 . S
C1256 C1244 1.349 . S
C1256 H1250 0.950 . S
C1256 C1257 1.327 . S
C1257 H1251 0.950 . S
C1257 C1256 1.327 . S
C1257 C1261 1.429 . S
C1258 C1241 1.574 . S
C1258 H1252 0.949 . S
C1258 C1262 1.368 . S
C1259 C1240 1.429 . S
C1259 C1253 1.429 . S
C1259 C1260 1.523 . S
C1260 C1241 1.368 . S
C1260 C1254 1.368 . S
C1260 C1259 1.523 . S
C1261 C1245 1.429 . S
C1261 C1257 1.429 . S
C1261 C1262 1.523 . S
C1262 C1246 1.368 . S
C1262 C1258 1.368 . S
C1262 C1261 1.523 . S
H1263 C1238 0.950 . S
H1264 C1240 0.950 . S
H1265 C1241 0.949 . S
H1266 C1243 0.950 . S
H1267 C1245 0.950 . S
C1268 C1269 1.349 . S
C1268 C1270 1.327 . S
C1268 H1293 0.950 . S
C1269 C1268 1.349 . S
C1269 C1285 1.349 . S
C1270 C1268 1.327 . S
C1270 C1289 1.429 . S
C1270 H1294 0.950 . S
C1271 C1288 1.574 . S
C1271 C1290 1.368 . S
C1271 H1295 0.949 . S
H1272 C1276 0.949 . S
C1273 C1274 1.349 . S
C1273 C1275 1.327 . S
C1273 H1296 0.950 . S
C1274 C1273 1.349 . S
C1274 C1286 1.349 . S
C1275 C1273 1.327 . S
C1275 C1291 1.429 . S
C1275 H1297 0.950 . S
C1276 H1272 0.949 . S
C1276 C1284 1.574 . S
C1276 C1292 1.368 . S
H1277 C1285 0.950 . S
H1278 C1283 0.950 . S
H1279 C1284 0.949 . S
H1280 C1286 0.950 . S
H1281 C1287 0.950 . S
H1282 C1288 0.949 . S
C1283 H1278 0.950 . S
C1283 C1285 1.327 . S
C1283 C1289 1.429 . S
C1284 C1276 1.574 . S
C1284 H1279 0.949 . S
C1284 C1290 1.368 . S
C1285 C1269 1.349 . S
C1285 H1277 0.950 . S
C1285 C1283 1.327 . S
C1286 C1274 1.349 . S
C1286 H1280 0.950 . S
C1286 C1287 1.327 . S
C1287 H1281 0.950 . S
C1287 C1286 1.327 . S
C1287 C1291 1.429 . S
C1288 C1271 1.574 . S
C1288 H1282 0.949 . S
C1288 C1292 1.368 . S
C1289 C1270 1.429 . S
C1289 C1283 1.429 . S
C1289 C1290 1.523 . S
C1290 C1271 1.368 . S
C1290 C1284 1.368 . S
C1290 C1289 1.523 . S
C1291 C1275 1.429 . S
C1291 C1287 1.429 . S
C1291 C1292 1.523 . S
C1292 C1276 1.368 . S
C1292 C1288 1.368 . S
C1292 C1291 1.523 . S
H1293 C1268 0.950 . S
H1294 C1270 0.950 . S
H1295 C1271 0.949 . S
H1296 C1273 0.950 . S
H1297 C1275 0.950 . S
C1298 C1299 1.349 . S
C1298 C1300 1.327 . S
C1298 H1323 0.950 . S
C1299 C1298 1.349 . S
C1299 C1315 1.349 . S
C1300 C1298 1.327 . S
C1300 C1319 1.429 . S
C1300 H1324 0.950 . S
C1301 C1318 1.574 . S
C1301 C1320 1.368 . S
C1301 H1325 0.949 . S
H1302 C1306 0.949 . S
C1303 C1304 1.349 . S
C1303 C1305 1.327 . S
C1303 H1326 0.950 . S
C1304 C1303 1.349 . S
C1304 C1316 1.349 . S
C1305 C1303 1.327 . S
C1305 C1321 1.429 . S
C1305 H1327 0.950 . S
C1306 H1302 0.949 . S
C1306 C1314 1.574 . S
C1306 C1322 1.368 . S
H1307 C1315 0.950 . S
H1308 C1313 0.950 . S
H1309 C1314 0.949 . S
H1310 C1316 0.950 . S
H1311 C1317 0.950 . S
H1312 C1318 0.949 . S
C1313 H1308 0.950 . S
C1313 C1315 1.327 . S
C1313 C1319 1.429 . S
C1314 C1306 1.574 . S
C1314 H1309 0.949 . S
C1314 C1320 1.368 . S
C1315 C1299 1.349 . S
C1315 H1307 0.950 . S
C1315 C1313 1.327 . S
C1316 C1304 1.349 . S
C1316 H1310 0.950 . S
C1316 C1317 1.327 . S
C1317 H1311 0.950 . S
C1317 C1316 1.327 . S
C1317 C1321 1.429 . S
C1318 C1301 1.574 . S
C1318 H1312 0.949 . S
C1318 C1322 1.368 . S
C1319 C1300 1.429 . S
C1319 C1313 1.429 . S
C1319 C1320 1.523 . S
C1320 C1301 1.368 . S
C1320 C1314 1.368 . S
C1320 C1319 1.523 . S
C1321 C1305 1.429 . S
C1321 C1317 1.429 . S
C1321 C1322 1.523 . S
C1322 C1306 1.368 . S
C1322 C1318 1.368 . S
C1322 C1321 1.523 . S
H1323 C1298 0.950 . S
H1324 C1300 0.950 . S
H1325 C1301 0.949 . S
H1326 C1303 0.950 . S
H1327 C1305 0.950 . S
C369 C7 1.696 . S
C374 C122 1.696 . S
C399 C99 1.696 . S
C404 C30 1.696 . S
C429 C53 1.696 . S
C434 C168 1.696 . S
C459 C145 1.696 . S
C464 C76 1.696 . S
C489 C306 1.696 . S
C494 C191 1.696 . S
C519 C283 1.696 . S
C524 C214 1.696 . S
C549 C352 1.696 . S
C554 C237 1.696 . S
C579 C260 1.696 . S
C584 C329 1.696 . S
C609 N25 1.457 . S
C614 N2 1.457 . S
C639 N48 1.457 . S
C644 N71 1.457 . S
C669 N94 1.457 . S
C674 N117 1.457 . S
C699 N140 1.457 . S
C704 N163 1.457 . S
C729 N186 1.457 . S
C734 N209 1.457 . S
C759 N255 1.457 . S
C764 N232 1.457 . S
C789 N301 1.457 . S
C794 N278 1.457 . S
C819 N324 1.457 . S
C824 N347 1.457 . S
C849 N219 1.470 . S
C854 N12 1.470 . S
C879 N35 1.470 . S
C884 N196 1.470 . S
C909 N265 1.470 . S
C914 N58 1.470 . S
C939 N81 1.470 . S
C944 N242 1.470 . S
C969 N104 1.470 . S
C974 N311 1.470 . S
C999 N288 1.470 . S
C1004 N127 1.470 . S
C1029 N150 1.470 . S
C1034 N357 1.470 . S
C1059 N334 1.470 . S
C1064 N173 1.470 . S
C1089 C16 1.677 . S
C1094 C62 1.677 . S
C1119 C85 1.677 . S
C1124 C39 1.677 . S
C1149 C154 1.677 . S
C1154 C108 1.677 . S
C1179 C177 1.677 . S
C1184 C131 1.677 . S
C1209 C246 1.677 . S
C1214 C200 1.677 . S
C1239 C223 1.677 . S
C1244 C269 1.677 . S
C1269 C338 1.677 . S
C1274 C292 1.677 . S
C1299 C315 1.677 . S
C1304 C361 1.677 . S
