# Generated by pormake.
# Topology son, (6)-cn, num edge types: 1
# Building blocks:
#     Node 0, Type 0, BuildingBlock: FUNLAD_clean_sbu_0, # of connection points: 6
#     Node 1, Type 0, BuildingBlock: FUNLAD_clean_sbu_0, # of connection points: 6
#     Node 2, Type 0, BuildingBlock: FUNLAD_clean_sbu_0, # of connection points: 6
#     Node 3, Type 0, BuildingBlock: FUNLAD_clean_sbu_0, # of connection points: 6
#     Node 4, Type 0, BuildingBlock: FUNLAD_clean_sbu_0, # of connection points: 6
#     Node 5, Type 0, BuildingBlock: FUNLAD_clean_sbu_0, # of connection points: 6
#     Node 6, Type 0, BuildingBlock: FUNLAD_clean_sbu_0, # of connection points: 6
#     Node 7, Type 0, BuildingBlock: FUNLAD_clean_sbu_0, # of connection points: 6
#     Node 8, Type 0, BuildingBlock: FUNLAD_clean_sbu_0, # of connection points: 6
#     Node 9, Type 0, BuildingBlock: FUNLAD_clean_sbu_0, # of connection points: 6
#     Node 10, Type 0, BuildingBlock: FUNLAD_clean_sbu_0, # of connection points: 6
#     Node 11, Type 0, BuildingBlock: FUNLAD_clean_sbu_0, # of connection points: 6
#     Node 12, Type 0, BuildingBlock: FUNLAD_clean_sbu_0, # of connection points: 6
#     Node 13, Type 0, BuildingBlock: FUNLAD_clean_sbu_0, # of connection points: 6
#     Node 14, Type 0, BuildingBlock: FUNLAD_clean_sbu_0, # of connection points: 6
#     Node 15, Type 0, BuildingBlock: FUNLAD_clean_sbu_0, # of connection points: 6
#     Node 16, Type 0, BuildingBlock: FUNLAD_clean_sbu_0, # of connection points: 6
#     Node 17, Type 0, BuildingBlock: FUNLAD_clean_sbu_0, # of connection points: 6
#     Node 18, Type 0, BuildingBlock: FUNLAD_clean_sbu_0, # of connection points: 6
#     Node 19, Type 0, BuildingBlock: FUNLAD_clean_sbu_0, # of connection points: 6
#     Node 20, Type 0, BuildingBlock: FUNLAD_clean_sbu_0, # of connection points: 6
#     Node 21, Type 0, BuildingBlock: FUNLAD_clean_sbu_0, # of connection points: 6
#     Node 22, Type 0, BuildingBlock: FUNLAD_clean_sbu_0, # of connection points: 6
#     Node 23, Type 0, BuildingBlock: FUNLAD_clean_sbu_0, # of connection points: 6
#     Node 24, Type 0, BuildingBlock: FUNLAD_clean_sbu_0, # of connection points: 6
#     Node 25, Type 0, BuildingBlock: FUNLAD_clean_sbu_0, # of connection points: 6
#     Node 26, Type 0, BuildingBlock: FUNLAD_clean_sbu_0, # of connection points: 6
#     Node 27, Type 0, BuildingBlock: FUNLAD_clean_sbu_0, # of connection points: 6
#     Node 28, Type 0, BuildingBlock: FUNLAD_clean_sbu_0, # of connection points: 6
#     Node 29, Type 0, BuildingBlock: FUNLAD_clean_sbu_0, # of connection points: 6
#     Node 30, Type 0, BuildingBlock: FUNLAD_clean_sbu_0, # of connection points: 6
#     Node 31, Type 0, BuildingBlock: FUNLAD_clean_sbu_0, # of connection points: 6
#     Edge 32, Type (0, 0), BuildingBlock: XIVTED_clean_linker_0, # of connection points: 2
#     Edge 33, Type (0, 0), BuildingBlock: XIVTED_clean_linker_0, # of connection points: 2
#     Edge 34, Type (0, 0), BuildingBlock: XIVTED_clean_linker_0, # of connection points: 2
#     Edge 35, Type (0, 0), BuildingBlock: XIVTED_clean_linker_0, # of connection points: 2
#     Edge 36, Type (0, 0), BuildingBlock: XIVTED_clean_linker_0, # of connection points: 2
#     Edge 37, Type (0, 0), BuildingBlock: XIVTED_clean_linker_0, # of connection points: 2
#     Edge 38, Type (0, 0), BuildingBlock: XIVTED_clean_linker_0, # of connection points: 2
#     Edge 39, Type (0, 0), BuildingBlock: XIVTED_clean_linker_0, # of connection points: 2
#     Edge 40, Type (0, 0), BuildingBlock: XIVTED_clean_linker_0, # of connection points: 2
#     Edge 41, Type (0, 0), BuildingBlock: XIVTED_clean_linker_0, # of connection points: 2
#     Edge 42, Type (0, 0), BuildingBlock: XIVTED_clean_linker_0, # of connection points: 2
#     Edge 43, Type (0, 0), BuildingBlock: XIVTED_clean_linker_0, # of connection points: 2
#     Edge 44, Type (0, 0), BuildingBlock: XIVTED_clean_linker_0, # of connection points: 2
#     Edge 45, Type (0, 0), BuildingBlock: XIVTED_clean_linker_0, # of connection points: 2
#     Edge 46, Type (0, 0), BuildingBlock: XIVTED_clean_linker_0, # of connection points: 2
#     Edge 47, Type (0, 0), BuildingBlock: XIVTED_clean_linker_0, # of connection points: 2
#     Edge 48, Type (0, 0), BuildingBlock: XIVTED_clean_linker_0, # of connection points: 2
#     Edge 49, Type (0, 0), BuildingBlock: XIVTED_clean_linker_0, # of connection points: 2
#     Edge 50, Type (0, 0), BuildingBlock: XIVTED_clean_linker_0, # of connection points: 2
#     Edge 51, Type (0, 0), BuildingBlock: XIVTED_clean_linker_0, # of connection points: 2
#     Edge 52, Type (0, 0), BuildingBlock: XIVTED_clean_linker_0, # of connection points: 2
#     Edge 53, Type (0, 0), BuildingBlock: XIVTED_clean_linker_0, # of connection points: 2
#     Edge 54, Type (0, 0), BuildingBlock: XIVTED_clean_linker_0, # of connection points: 2
#     Edge 55, Type (0, 0), BuildingBlock: XIVTED_clean_linker_0, # of connection points: 2
#     Edge 56, Type (0, 0), BuildingBlock: XIVTED_clean_linker_0, # of connection points: 2
#     Edge 57, Type (0, 0), BuildingBlock: XIVTED_clean_linker_0, # of connection points: 2
#     Edge 58, Type (0, 0), BuildingBlock: XIVTED_clean_linker_0, # of connection points: 2
#     Edge 59, Type (0, 0), BuildingBlock: XIVTED_clean_linker_0, # of connection points: 2
#     Edge 60, Type (0, 0), BuildingBlock: XIVTED_clean_linker_0, # of connection points: 2
#     Edge 61, Type (0, 0), BuildingBlock: XIVTED_clean_linker_0, # of connection points: 2
#     Edge 62, Type (0, 0), BuildingBlock: XIVTED_clean_linker_0, # of connection points: 2
#     Edge 63, Type (0, 0), BuildingBlock: XIVTED_clean_linker_0, # of connection points: 2
#     Edge 64, Type (0, 0), BuildingBlock: XIVTED_clean_linker_0, # of connection points: 2
#     Edge 65, Type (0, 0), BuildingBlock: XIVTED_clean_linker_0, # of connection points: 2
#     Edge 66, Type (0, 0), BuildingBlock: XIVTED_clean_linker_0, # of connection points: 2
#     Edge 67, Type (0, 0), BuildingBlock: XIVTED_clean_linker_0, # of connection points: 2
#     Edge 68, Type (0, 0), BuildingBlock: XIVTED_clean_linker_0, # of connection points: 2
#     Edge 69, Type (0, 0), BuildingBlock: XIVTED_clean_linker_0, # of connection points: 2
#     Edge 70, Type (0, 0), BuildingBlock: XIVTED_clean_linker_0, # of connection points: 2
#     Edge 71, Type (0, 0), BuildingBlock: XIVTED_clean_linker_0, # of connection points: 2
#     Edge 72, Type (0, 0), BuildingBlock: XIVTED_clean_linker_0, # of connection points: 2
#     Edge 73, Type (0, 0), BuildingBlock: XIVTED_clean_linker_0, # of connection points: 2
#     Edge 74, Type (0, 0), BuildingBlock: XIVTED_clean_linker_0, # of connection points: 2
#     Edge 75, Type (0, 0), BuildingBlock: XIVTED_clean_linker_0, # of connection points: 2
#     Edge 76, Type (0, 0), BuildingBlock: XIVTED_clean_linker_0, # of connection points: 2
#     Edge 77, Type (0, 0), BuildingBlock: XIVTED_clean_linker_0, # of connection points: 2
#     Edge 78, Type (0, 0), BuildingBlock: XIVTED_clean_linker_0, # of connection points: 2
#     Edge 79, Type (0, 0), BuildingBlock: XIVTED_clean_linker_0, # of connection points: 2
#     Edge 80, Type (0, 0), BuildingBlock: XIVTED_clean_linker_0, # of connection points: 2
#     Edge 81, Type (0, 0), BuildingBlock: XIVTED_clean_linker_0, # of connection points: 2
#     Edge 82, Type (0, 0), BuildingBlock: XIVTED_clean_linker_0, # of connection points: 2
#     Edge 83, Type (0, 0), BuildingBlock: XIVTED_clean_linker_0, # of connection points: 2
#     Edge 84, Type (0, 0), BuildingBlock: XIVTED_clean_linker_0, # of connection points: 2
#     Edge 85, Type (0, 0), BuildingBlock: XIVTED_clean_linker_0, # of connection points: 2
#     Edge 86, Type (0, 0), BuildingBlock: XIVTED_clean_linker_0, # of connection points: 2
#     Edge 87, Type (0, 0), BuildingBlock: XIVTED_clean_linker_0, # of connection points: 2
#     Edge 88, Type (0, 0), BuildingBlock: XIVTED_clean_linker_0, # of connection points: 2
#     Edge 89, Type (0, 0), BuildingBlock: XIVTED_clean_linker_0, # of connection points: 2
#     Edge 90, Type (0, 0), BuildingBlock: XIVTED_clean_linker_0, # of connection points: 2
#     Edge 91, Type (0, 0), BuildingBlock: XIVTED_clean_linker_0, # of connection points: 2
#     Edge 92, Type (0, 0), BuildingBlock: XIVTED_clean_linker_0, # of connection points: 2
#     Edge 93, Type (0, 0), BuildingBlock: XIVTED_clean_linker_0, # of connection points: 2
#     Edge 94, Type (0, 0), BuildingBlock: XIVTED_clean_linker_0, # of connection points: 2
#     Edge 95, Type (0, 0), BuildingBlock: XIVTED_clean_linker_0, # of connection points: 2
#     Edge 96, Type (0, 0), BuildingBlock: XIVTED_clean_linker_0, # of connection points: 2
#     Edge 97, Type (0, 0), BuildingBlock: XIVTED_clean_linker_0, # of connection points: 2
#     Edge 98, Type (0, 0), BuildingBlock: XIVTED_clean_linker_0, # of connection points: 2
#     Edge 99, Type (0, 0), BuildingBlock: XIVTED_clean_linker_0, # of connection points: 2
#     Edge 100, Type (0, 0), BuildingBlock: XIVTED_clean_linker_0, # of connection points: 2
#     Edge 101, Type (0, 0), BuildingBlock: XIVTED_clean_linker_0, # of connection points: 2
#     Edge 102, Type (0, 0), BuildingBlock: XIVTED_clean_linker_0, # of connection points: 2
#     Edge 103, Type (0, 0), BuildingBlock: XIVTED_clean_linker_0, # of connection points: 2
#     Edge 104, Type (0, 0), BuildingBlock: XIVTED_clean_linker_0, # of connection points: 2
#     Edge 105, Type (0, 0), BuildingBlock: XIVTED_clean_linker_0, # of connection points: 2
#     Edge 106, Type (0, 0), BuildingBlock: XIVTED_clean_linker_0, # of connection points: 2
#     Edge 107, Type (0, 0), BuildingBlock: XIVTED_clean_linker_0, # of connection points: 2
#     Edge 108, Type (0, 0), BuildingBlock: XIVTED_clean_linker_0, # of connection points: 2
#     Edge 109, Type (0, 0), BuildingBlock: XIVTED_clean_linker_0, # of connection points: 2
#     Edge 110, Type (0, 0), BuildingBlock: XIVTED_clean_linker_0, # of connection points: 2
#     Edge 111, Type (0, 0), BuildingBlock: XIVTED_clean_linker_0, # of connection points: 2
#     Edge 112, Type (0, 0), BuildingBlock: XIVTED_clean_linker_0, # of connection points: 2
#     Edge 113, Type (0, 0), BuildingBlock: XIVTED_clean_linker_0, # of connection points: 2
#     Edge 114, Type (0, 0), BuildingBlock: XIVTED_clean_linker_0, # of connection points: 2
#     Edge 115, Type (0, 0), BuildingBlock: XIVTED_clean_linker_0, # of connection points: 2
#     Edge 116, Type (0, 0), BuildingBlock: XIVTED_clean_linker_0, # of connection points: 2
#     Edge 117, Type (0, 0), BuildingBlock: XIVTED_clean_linker_0, # of connection points: 2
#     Edge 118, Type (0, 0), BuildingBlock: XIVTED_clean_linker_0, # of connection points: 2
#     Edge 119, Type (0, 0), BuildingBlock: XIVTED_clean_linker_0, # of connection points: 2
#     Edge 120, Type (0, 0), BuildingBlock: XIVTED_clean_linker_0, # of connection points: 2
#     Edge 121, Type (0, 0), BuildingBlock: XIVTED_clean_linker_0, # of connection points: 2
#     Edge 122, Type (0, 0), BuildingBlock: XIVTED_clean_linker_0, # of connection points: 2
#     Edge 123, Type (0, 0), BuildingBlock: XIVTED_clean_linker_0, # of connection points: 2
#     Edge 124, Type (0, 0), BuildingBlock: XIVTED_clean_linker_0, # of connection points: 2
#     Edge 125, Type (0, 0), BuildingBlock: XIVTED_clean_linker_0, # of connection points: 2
#     Edge 126, Type (0, 0), BuildingBlock: XIVTED_clean_linker_0, # of connection points: 2
#     Edge 127, Type (0, 0), BuildingBlock: XIVTED_clean_linker_0, # of connection points: 2
# Relax obj value: 0.083
# Max RMSD: 0.120
# Mean RMSD: 0.120
data_MOF--net-son--node1-FUNLAD_clean_sbu_0--edge1-XIVTED_clean_linker_0
_symmetry_space_group_name_H-M    P1
_symmetry_Int_Tables_number       1
_symmetry_cell_setting            triclinic
loop_
_symmetry_equiv_pos_as_xyz
'x, y, z'
_cell_length_a     113.40264
_cell_length_b     86.588214
_cell_length_c     14.426994
_cell_angle_alpha  90.011615
_cell_angle_beta   89.944137
_cell_angle_gamma 89.997747
loop_
_atom_site_label
_atom_site_type_symbol
_atom_site_fract_x
_atom_site_fract_y
_atom_site_fract_z
_atom_type_partial_charge
C0 C 0.29689 0.25658 0.40926 0.0
N1 N 0.30466 0.29656 0.25925 0.0
C2 C 0.29546 0.30297 0.3062 0.0
C3 C 0.29507 0.31888 0.32214 0.0
C4 C 0.30413 0.32835 0.28807 0.0
C5 C 0.31343 0.3215 0.2387 0.0
C6 C 0.31358 0.3055 0.22572 0.0
Zn7 Zn 0.30522 0.273 0.24081 0.0
C8 C 0.32805 0.25958 0.30182 0.0
N9 N 0.30621 0.22368 0.21197 0.0
C10 C 0.29718 0.21466 0.24286 0.0
C11 C 0.31543 0.21745 0.16439 0.0
C12 C 0.31565 0.20169 0.14396 0.0
C13 C 0.30641 0.19217 0.17417 0.0
C14 C 0.29716 0.19878 0.22535 0.0
Zn15 Zn 0.30564 0.24718 0.23145 0.0
O16 O 0.29871 0.2697 0.37294 0.0
C17 C 0.28309 0.26047 0.16496 0.0
O18 O 0.29907 0.24438 0.36377 0.0
H19 H 0.32257 0.22475 0.14096 0.0
H20 H 0.2884 0.29572 0.33177 0.0
H21 H 0.28988 0.21983 0.27988 0.0
O22 O 0.28799 0.27313 0.1874 0.0
O23 O 0.2885 0.2478 0.1778 0.0
H24 H 0.32087 0.30021 0.18929 0.0
O25 O 0.31223 0.25049 0.09957 0.0
O26 O 0.31166 0.27578 0.10815 0.0
O27 O 0.3228 0.24699 0.28337 0.0
O28 O 0.32264 0.27234 0.29187 0.0
C29 C 0.31392 0.2636 0.06283 0.0
H30 H 0.28769 0.32376 0.35985 0.0
H31 H 0.32064 0.32841 0.21203 0.0
H32 H 0.323 0.19697 0.10511 0.0
H33 H 0.28983 0.19181 0.24928 0.0
C34 C 0.94638 0.01456 0.41399 0.0
N35 N 0.93863 0.97494 0.26118 0.0
C36 C 0.94807 0.9684 0.30416 0.0
C37 C 0.94848 0.95246 0.31918 0.0
C38 C 0.93912 0.94305 0.28899 0.0
C39 C 0.92957 0.95013 0.24359 0.0
C40 C 0.92948 0.96613 0.23082 0.0
Zn41 Zn 0.93801 0.9985 0.24488 0.0
C42 C 0.91514 0.01157 0.30812 0.0
N43 N 0.93674 0.04782 0.22002 0.0
C44 C 0.94596 0.05673 0.24793 0.0
C45 C 0.92726 0.05417 0.17669 0.0
C46 C 0.92691 0.06998 0.15797 0.0
C47 C 0.93637 0.07948 0.1848 0.0
C48 C 0.94593 0.07264 0.23141 0.0
Zn49 Zn 0.93741 0.0243 0.23724 0.0
O50 O 0.94462 1.00148 0.37691 0.0
C51 C 0.95998 0.01134 0.16828 0.0
O52 O 0.94408 0.02681 0.36939 0.0
H53 H 0.92002 0.0469 0.15488 0.0
H54 H 0.95527 0.97558 0.32789 0.0
H55 H 0.95343 0.05148 0.28213 0.0
O56 O 0.95518 0.9986 0.19035 0.0
O57 O 0.95451 0.02393 0.18224 0.0
H58 H 0.92204 0.97153 0.1969 0.0
O59 O 0.9307 0.02132 0.10552 0.0
O60 O 0.93146 0.99601 0.11231 0.0
O61 O 0.92028 0.02426 0.29034 0.0
O62 O 0.92063 0.99891 0.29707 0.0
C63 C 0.92909 1.00825 0.06795 0.0
H64 H 0.95595 0.94764 0.35572 0.0
H65 H 0.92225 0.9434 0.21755 0.0
H66 H 0.91942 0.0746 0.12068 0.0
H67 H 0.95333 0.07948 0.25496 0.0
C68 C 0.29657 0.01461 0.7863 0.0
N69 N 0.30463 0.97475 0.93553 0.0
C70 C 0.30796 0.9689 0.85198 0.0
C71 C 0.30778 0.95299 0.83621 0.0
C72 C 0.30428 0.94288 0.90739 0.0
C73 C 0.30091 0.94927 -0.00689 0.0
C74 C 0.3011 0.96529 0.00557 0.0
Zn75 Zn 0.30508 0.99825 0.95439 0.0
C76 C 0.32785 0.01169 0.89177 0.0
N77 N 0.30604 0.04753 -0.01677 0.0
C78 C 0.29698 0.05654 0.95292 0.0
C79 C 0.31529 0.05376 0.03025 0.0
C80 C 0.31553 0.06952 0.05064 0.0
C81 C 0.30626 0.07903 0.02108 0.0
C82 C 0.29697 0.07242 0.9705 0.0
Zn83 Zn 0.30551 0.02403 0.96371 0.0
O84 O 0.29814 1.0015 0.82344 0.0
C85 C 0.28304 1.0106 0.03207 0.0
O86 O 0.29899 0.0268 0.83109 0.0
H87 H 0.32245 0.04646 0.05322 0.0
H88 H 0.31075 0.97658 0.79712 0.0
H89 H 0.28966 0.05137 0.9163 0.0
O90 O 0.28801 0.99797 0.01009 0.0
O91 O 0.28833 0.02332 0.01771 0.0
H92 H 0.29848 0.97016 0.0715 0.0
O93 O 0.31206 0.02074 0.09573 0.0
O94 O 0.31192 0.99545 0.086 0.0
O95 O 0.32272 0.02429 0.91169 0.0
O96 O 0.32235 0.99899 0.901 0.0
C97 C 0.31396 1.00764 0.13191 0.0
H98 H 0.31025 0.94871 0.7684 0.0
H99 H 0.29831 0.942 0.05061 0.0
H100 H 0.32291 0.07423 0.08897 0.0
H101 H 0.28962 0.07939 0.94706 0.0
C102 C 0.94636 0.25699 0.7836 0.0
N103 N 0.93842 0.29689 0.93349 0.0
C104 C 0.94764 0.30327 0.88667 0.0
C105 C 0.948 0.31916 0.87017 0.0
C106 C 0.9389 0.32863 0.90353 0.0
C107 C 0.92959 0.32181 0.95295 0.0
C108 C 0.92947 0.30582 0.96653 0.0
Zn109 Zn 0.93793 0.27336 0.95197 0.0
C110 C 0.91516 0.25984 0.89053 0.0
N111 N 0.93711 0.22408 -0.01938 0.0
C112 C 0.94637 0.21524 0.95284 0.0
C113 C 0.92769 0.2177 0.02479 0.0
C114 C 0.92746 0.20191 0.04445 0.0
C115 C 0.93697 0.19247 0.01769 0.0
C116 C 0.94646 0.19936 0.97028 0.0
Zn117 Zn 0.93758 0.24756 0.96136 0.0
O118 O 0.94446 0.2701 0.81983 0.0
C119 C 0.96006 0.26103 0.02852 0.0
O120 O 0.94424 0.24478 0.8292 0.0
H121 H 0.9204 0.22491 0.04645 0.0
H122 H 0.95473 0.29603 0.86156 0.0
H123 H 0.95379 0.22052 0.91796 0.0
O124 O 0.95514 0.27363 0.00541 0.0
O125 O 0.9547 0.24832 0.0159 0.0
H126 H 0.92217 0.30053 0.00293 0.0
O127 O 0.93089 0.25079 0.09303 0.0
O128 O 0.93148 0.27609 0.08471 0.0
O129 O 0.92043 0.24726 0.90872 0.0
O130 O 0.92054 0.27261 0.90087 0.0
C131 C 0.92921 0.2639 0.12992 0.0
H132 H 0.95539 0.32403 0.83249 0.0
H133 H 0.92235 0.32872 -0.02088 0.0
H134 H 0.92003 0.19726 0.08235 0.0
H135 H 0.9539 0.19257 0.94674 0.0
C136 C 0.67908 0.75875 0.89004 0.0
N137 N 0.6866 0.79863 0.74005 0.0
C138 C 0.67737 0.8049 0.7874 0.0
C139 C 0.6771 0.8207 0.80668 0.0
C140 C 0.68631 0.83021 0.77558 0.0
C141 C 0.69557 0.82354 0.72485 0.0
C142 C 0.69559 0.80763 0.70848 0.0
Zn143 Zn 0.68725 0.77512 0.72151 0.0
C144 C 0.7099 0.76205 0.78801 0.0
N145 N 0.68854 0.72582 0.69431 0.0
C146 C 0.6794 0.71697 0.72451 0.0
C147 C 0.69799 0.71935 0.65089 0.0
C148 C 0.69841 0.70343 0.63532 0.0
C149 C 0.68907 0.69398 0.66539 0.0
C150 C 0.67951 0.70099 0.71118 0.0
Zn151 Zn 0.68789 0.74934 0.71197 0.0
O152 O 0.68071 0.77188 0.85347 0.0
C153 C 0.66496 0.7624 0.65091 0.0
O154 O 0.68138 0.7466 0.84456 0.0
H155 H 0.70517 0.72657 0.62733 0.0
H156 H 0.67026 0.7976 0.81144 0.0
H157 H 0.67196 0.72232 0.75879 0.0
O158 O 0.67002 0.7751 0.66988 0.0
O159 O 0.67055 0.74978 0.66031 0.0
H160 H 0.7029 0.80243 0.67172 0.0
O161 O 0.69447 0.75254 0.58007 0.0
O162 O 0.69378 0.77785 0.58891 0.0
O163 O 0.70504 0.74937 0.76569 0.0
O164 O 0.70446 0.77469 0.77511 0.0
C165 C 0.69613 0.76569 0.5436 0.0
H166 H 0.66975 0.82546 0.84525 0.0
H167 H 0.70287 0.8305 0.70031 0.0
H168 H 0.70589 0.69866 0.59851 0.0
H169 H 0.6722 0.69422 0.73714 0.0
C170 C 0.06408 0.01396 0.88608 0.0
N171 N 0.05646 0.97427 0.73479 0.0
C172 C 0.06574 0.968 0.78138 0.0
C173 C 0.06601 0.95221 0.80087 0.0
C174 C 0.05676 0.94271 0.77074 0.0
C175 C 0.04746 0.94936 0.72059 0.0
C176 C 0.04743 0.96527 0.70398 0.0
Zn177 Zn 0.05581 0.99779 0.71685 0.0
C178 C 0.03322 1.01082 0.78491 0.0
N179 N 0.05464 0.04717 0.69188 0.0
C180 C 0.06359 0.05607 0.72526 0.0
C181 C 0.04543 0.05361 0.64538 0.0
C182 C 0.04507 0.06953 0.62954 0.0
C183 C 0.05418 0.07895 0.66324 0.0
C184 C 0.06347 0.07207 0.71236 0.0
Zn185 Zn 0.05526 0.0236 0.70893 0.0
O186 O 0.06245 1.00089 0.84866 0.0
C187 C 0.07813 1.01044 0.64646 0.0
O188 O 0.06173 0.02619 0.8416 0.0
H189 H 0.03836 0.04639 0.6199 0.0
H190 H 0.07288 0.9753 0.80478 0.0
H191 H 0.07089 0.05074 0.76128 0.0
O192 O 0.07295 0.99778 0.66428 0.0
O193 O 0.07266 0.02313 0.65731 0.0
H194 H 0.04009 0.97047 0.66778 0.0
O195 O 0.04871 0.02051 0.57681 0.0
O196 O 0.0492 0.99518 0.5846 0.0
O197 O 0.03805 0.02355 0.76288 0.0
O198 O 0.03869 0.99822 0.77126 0.0
C199 C 0.04693 1.00742 0.53987 0.0
H200 H 0.0734 0.94746 0.83895 0.0
H201 H 0.04012 0.94241 0.69678 0.0
H202 H 0.0377 0.07444 0.59203 0.0
H203 H 0.07071 0.07894 0.73873 0.0
C204 C 0.67892 0.01431 0.81673 0.0
N205 N 0.68674 0.97473 0.96871 0.0
C206 C 0.67749 0.96841 0.92209 0.0
C207 C 0.67721 0.95259 0.90342 0.0
C208 C 0.68643 0.94312 0.93436 0.0
C209 C 0.69571 0.94983 -0.01549 0.0
C210 C 0.69575 0.96576 0.00031 0.0
Zn211 Zn 0.68736 0.99827 -0.01432 0.0
C212 C 0.70985 0.01132 0.91588 0.0
N213 N 0.68847 0.04761 0.00975 0.0
C214 C 0.6787 0.05617 -0.00893 0.0
C215 C 0.69853 0.05438 0.0413 0.0
C216 C 0.699 0.07033 0.05555 0.0
C217 C 0.68899 0.07947 0.03816 0.0
C218 C 0.67875 0.07214 0.00526 0.0
Zn219 Zn 0.68789 0.02407 -0.00641 0.0
O220 O 0.68075 1.00125 0.85365 0.0
C221 C 0.6651 0.0109 0.05764 0.0
O222 O 0.68107 0.02657 0.86172 0.0
H223 H 0.7062 0.04738 0.05597 0.0
H224 H 0.67036 0.97568 0.89809 0.0
H225 H 0.67078 0.0506 0.96606 0.0
O226 O 0.67017 0.99824 0.03805 0.0
O227 O 0.67065 0.02354 0.04798 0.0
H228 H 0.70307 0.971 0.03656 0.0
O229 O 0.69477 0.02122 0.12486 0.0
O230 O 0.69394 0.99589 0.11836 0.0
O231 O 0.70493 0.02402 0.937 0.0
O232 O 0.70452 0.99867 0.93119 0.0
C233 C 0.69637 1.00815 0.16249 0.0
H234 H 0.66983 0.9478 0.86534 0.0
H235 H 0.70303 0.94289 0.00895 0.0
H236 H 0.70717 0.07542 0.07946 0.0
H237 H 0.67074 0.07858 -0.00782 0.0
C238 C 0.06416 0.75882 0.81825 0.0
N239 N 0.05651 0.79845 0.97007 0.0
C240 C 0.06579 0.80474 0.92337 0.0
C241 C 0.06606 0.82053 0.90408 0.0
C242 C 0.0568 0.83002 0.93449 0.0
C243 C 0.04751 0.82335 -0.01521 0.0
C244 C 0.04749 0.80744 0.0012 0.0
Zn245 Zn 0.05587 0.77492 -0.01248 0.0
C246 C 0.03328 0.7619 0.91911 0.0
N247 N 0.05468 0.72555 0.01205 0.0
C248 C 0.06389 0.71683 -0.01818 0.0
C249 C 0.04528 0.71894 0.05529 0.0
C250 C 0.04499 0.703 0.07082 0.0
C251 C 0.05443 0.69369 0.04093 0.0
C252 C 0.06392 0.70085 -0.00489 0.0
Zn253 Zn 0.05525 0.74911 -0.00448 0.0
O254 O 0.0625 0.77189 0.85559 0.0
C255 C 0.07813 0.7622 0.05824 0.0
O256 O 0.06183 0.74659 0.86291 0.0
H257 H 0.03804 0.72605 0.07894 0.0
H258 H 0.07293 0.79745 0.89972 0.0
H259 H 0.0713 0.72229 0.94774 0.0
O260 O 0.07304 0.7749 0.03986 0.0
O261 O 0.07258 0.74956 0.04783 0.0
H262 H 0.04015 0.80222 0.03748 0.0
O263 O 0.04859 0.75211 0.12747 0.0
O264 O 0.04925 0.77743 0.12001 0.0
O265 O 0.03811 0.74918 0.94101 0.0
O266 O 0.03872 0.77451 0.93316 0.0
C267 C 0.0469 0.7652 0.1646 0.0
H268 H 0.07344 0.8253 0.86588 0.0
H269 H 0.04017 0.8303 0.00882 0.0
H270 H 0.03755 0.69812 0.10762 0.0
H271 H 0.0713 0.69419 0.96923 0.0
C272 C 0.29685 0.75644 0.91385 0.0
N273 N 0.30494 0.79619 0.76381 0.0
C274 C 0.29494 0.80305 0.79603 0.0
C275 C 0.29457 0.81901 0.81031 0.0
C276 C 0.30461 0.82806 0.79218 0.0
C277 C 0.3148 0.82062 0.75899 0.0
C278 C 0.31475 0.80466 0.74481 0.0
Zn279 Zn 0.30536 0.77267 0.74582 0.0
C280 C 0.32809 0.75915 0.80815 0.0
N281 N 0.30623 0.72337 0.71673 0.0
C282 C 0.29719 0.71436 0.74752 0.0
C283 C 0.31544 0.71713 0.66912 0.0
C284 C 0.31564 0.70138 0.64847 0.0
C285 C 0.30638 0.69187 0.67843 0.0
C286 C 0.29714 0.69848 0.72974 0.0
Zn287 Zn 0.30574 0.74688 0.73599 0.0
O288 O 0.29852 0.76957 0.87705 0.0
C289 C 0.2833 0.76035 0.66796 0.0
O290 O 0.29919 0.74424 0.86876 0.0
H291 H 0.3226 0.72442 0.6458 0.0
H292 H 0.28723 0.79613 0.81092 0.0
H293 H 0.2899 0.71954 0.7846 0.0
O294 O 0.28833 0.77294 0.68996 0.0
O295 O 0.28854 0.7476 0.68209 0.0
H296 H 0.32262 0.79901 0.71926 0.0
O297 O 0.3123 0.75012 0.60398 0.0
O298 O 0.31214 0.77542 0.61385 0.0
O299 O 0.32297 0.74656 0.78775 0.0
O300 O 0.32259 0.77185 0.79953 0.0
C301 C 0.31418 0.76324 0.56785 0.0
H302 H 0.28644 0.82419 0.83452 0.0
H303 H 0.32284 0.82698 0.7454 0.0
H304 H 0.32299 0.69666 0.60959 0.0
H305 H 0.2898 0.69152 0.75352 0.0
C306 C 0.94646 0.51486 0.91199 0.0
N307 N 0.93885 0.47486 0.76192 0.0
C308 C 0.94805 0.46848 0.80885 0.0
C309 C 0.9484 0.45258 0.82541 0.0
C310 C 0.9393 0.44312 0.79198 0.0
C311 C 0.93002 0.44995 0.74246 0.0
C312 C 0.92991 0.46593 0.72885 0.0
Zn313 Zn 0.93823 0.49839 0.74357 0.0
C314 C 0.91531 0.51157 0.80486 0.0
N315 N 0.93696 0.54766 0.71511 0.0
C316 C 0.94598 0.55671 0.74557 0.0
C317 C 0.9277 0.55385 0.66794 0.0
C318 C 0.92744 0.5696 0.64747 0.0
C319 C 0.93669 0.57915 0.67718 0.0
C320 C 0.94597 0.57258 0.72797 0.0
Zn321 Zn 0.93762 0.52418 0.73441 0.0
O322 O 0.94474 0.50172 0.87559 0.0
C323 C 0.96026 0.51111 0.66737 0.0
O324 O 0.94417 0.52703 0.86665 0.0
H325 H 0.92057 0.54651 0.64481 0.0
H326 H 0.95512 0.47573 0.83411 0.0
H327 H 0.95331 0.55157 0.78224 0.0
O328 O 0.95545 0.49839 0.68984 0.0
O329 O 0.95477 0.52371 0.68049 0.0
H330 H 0.92262 0.47122 0.69248 0.0
O331 O 0.93105 0.52086 0.60259 0.0
O332 O 0.9318 0.49557 0.611 0.0
O333 O 0.92045 0.52423 0.78646 0.0
O334 O 0.92083 0.4989 0.79489 0.0
C335 C 0.92946 0.50773 0.56578 0.0
H336 H 0.95576 0.44771 0.86323 0.0
H337 H 0.92278 0.44305 0.71629 0.0
H338 H 0.92007 0.57429 0.60893 0.0
H339 H 0.9533 0.57957 0.75149 0.0
C340 C 0.29642 0.51441 0.28752 0.0
N341 N 0.30405 0.47444 0.43819 0.0
C342 C 0.29487 0.46798 0.39129 0.0
C343 C 0.29454 0.45206 0.37547 0.0
C344 C 0.30362 0.44264 0.40963 0.0
C345 C 0.31288 0.44955 0.45897 0.0
C346 C 0.31298 0.46555 0.47182 0.0
Zn347 Zn 0.30467 0.49801 0.45602 0.0
C348 C 0.32759 0.51116 0.39412 0.0
N349 N 0.306 0.54735 0.48391 0.0
C350 C 0.29698 0.55641 0.45359 0.0
C351 C 0.31527 0.55352 0.53096 0.0
C352 C 0.31556 0.56927 0.55152 0.0
C353 C 0.30631 0.57884 0.52204 0.0
C354 C 0.29701 0.5723 0.47129 0.0
Zn355 Zn 0.30531 0.52383 0.46491 0.0
O356 O 0.29814 0.50128 0.32402 0.0
C357 C 0.28268 0.51082 0.53249 0.0
O358 O 0.29872 0.52659 0.33274 0.0
H359 H 0.3224 0.54617 0.55397 0.0
H360 H 0.28782 0.4752 0.36554 0.0
H361 H 0.28964 0.55129 0.41701 0.0
O362 O 0.28746 0.49807 0.51009 0.0
O363 O 0.28819 0.5234 0.51909 0.0
H364 H 0.32026 0.47088 0.5081 0.0
O365 O 0.31191 0.52056 0.5967 0.0
O366 O 0.31113 0.49528 0.58856 0.0
O367 O 0.32246 0.52383 0.41251 0.0
O368 O 0.32208 0.49849 0.4044 0.0
C369 C 0.31349 0.50744 0.63365 0.0
H370 H 0.28719 0.44713 0.33772 0.0
H371 H 0.32011 0.44268 0.48566 0.0
H372 H 0.32294 0.57394 0.59 0.0
H373 H 0.28968 0.5793 0.44792 0.0
C374 C 0.94668 0.75662 0.28808 0.0
N375 N 0.93867 0.79648 0.43825 0.0
C376 C 0.94803 0.8031 0.39451 0.0
C377 C 0.94825 0.81902 0.3783 0.0
C378 C 0.9388 0.82831 0.40805 0.0
C379 C 0.92934 0.82114 0.45426 0.0
C380 C 0.92943 0.80517 0.46821 0.0
Zn381 Zn 0.93826 0.77295 0.45658 0.0
C382 C 0.91549 0.75939 0.39502 0.0
N383 N 0.93737 0.72367 0.48505 0.0
C384 C 0.94642 0.71464 0.45481 0.0
C385 C 0.92807 0.71747 0.53191 0.0
C386 C 0.9278 0.70172 0.5523 0.0
C387 C 0.93707 0.69218 0.52285 0.0
C388 C 0.94639 0.69875 0.47236 0.0
Zn389 Zn 0.9379 0.74715 0.46569 0.0
O390 O 0.94486 0.76974 0.32461 0.0
C391 C 0.96038 0.76055 0.53292 0.0
O392 O 0.94449 0.74441 0.33338 0.0
H393 H 0.92091 0.72479 0.55477 0.0
H394 H 0.95529 0.79601 0.3711 0.0
H395 H 0.95376 0.71979 0.41828 0.0
O396 O 0.95545 0.77319 0.51066 0.0
O397 O 0.95503 0.74786 0.51953 0.0
H398 H 0.92206 0.79971 0.50274 0.0
O399 O 0.93128 0.75041 0.59762 0.0
O400 O 0.93173 0.7757 0.58907 0.0
O401 O 0.92075 0.74684 0.41365 0.0
O402 O 0.92086 0.77217 0.40491 0.0
C403 C 0.92954 0.76351 0.6344 0.0
H404 H 0.95567 0.8239 0.34121 0.0
H405 H 0.92195 0.82779 0.48002 0.0
H406 H 0.9204 0.69703 0.59055 0.0
H407 H 0.95374 0.69176 0.449 0.0
C408 C 0.67914 0.259 0.37809 0.0
N409 N 0.68724 0.2989 0.23025 0.0
C410 C 0.67799 0.3051 0.27772 0.0
C411 C 0.67778 0.32083 0.29882 0.0
C412 C 0.68706 0.33036 0.26946 0.0
C413 C 0.69634 0.32379 0.21838 0.0
C414 C 0.6963 0.30792 0.20013 0.0
Zn415 Zn 0.68765 0.27543 0.20978 0.0
C416 C 0.71007 0.26167 0.2772 0.0
N417 N 0.68821 0.22618 0.18033 0.0
C418 C 0.69173 0.21656 0.24956 0.0
C419 C 0.6848 0.22051 0.09658 0.0
C420 C 0.68489 0.20463 0.07975 0.0
C421 C 0.68838 0.19436 0.15005 0.0
C422 C 0.69184 0.20057 0.23601 0.0
Zn423 Zn 0.68792 0.24965 0.20035 0.0
O424 O 0.6811 0.27208 0.34183 0.0
C425 C 0.6652 0.26338 0.13877 0.0
O426 O 0.68113 0.24678 0.33233 0.0
H427 H 0.68201 0.22831 0.04237 0.0
H428 H 0.67082 0.2978 0.30047 0.0
H429 H 0.69442 0.22129 0.31565 0.0
O430 O 0.67043 0.27593 0.1583 0.0
O431 O 0.67061 0.25062 0.14786 0.0
H432 H 0.70361 0.30277 0.16309 0.0
O433 O 0.69481 0.25295 0.06922 0.0
O434 O 0.69416 0.27827 0.07695 0.0
O435 O 0.70499 0.24912 0.25507 0.0
O436 O 0.70487 0.27447 0.2634 0.0
C437 C 0.69649 0.26605 0.03212 0.0
H438 H 0.67041 0.32551 0.3375 0.0
H439 H 0.70369 0.33077 0.19505 0.0
H440 H 0.68236 0.2005 0.01179 0.0
H441 H 0.69444 0.19316 0.29288 0.0
C442 C 0.0639 0.51362 0.37861 0.0
N443 N 0.05626 0.47408 0.22613 0.0
C444 C 0.06576 0.46773 0.26928 0.0
C445 C 0.06612 0.45191 0.28785 0.0
C446 C 0.05666 0.4424 0.26107 0.0
C447 C 0.04709 0.44925 0.21465 0.0
C448 C 0.04705 0.46516 0.19825 0.0
Zn449 Zn 0.05558 0.49762 0.20924 0.0
C450 C 0.03301 0.51054 0.27858 0.0
N451 N 0.05432 0.547 0.18586 0.0
C452 C 0.06348 0.55578 0.21637 0.0
C453 C 0.04489 0.55357 0.14295 0.0
C454 C 0.0445 0.56951 0.12813 0.0
C455 C 0.05386 0.5789 0.15844 0.0
C456 C 0.0634 0.57179 0.2038 0.0
Zn457 Zn 0.05496 0.52343 0.20178 0.0
O458 O 0.0623 0.50056 0.34096 0.0
C459 C 0.07783 0.51042 0.13838 0.0
O460 O 0.06151 0.52587 0.33433 0.0
H461 H 0.03769 0.54641 0.1191 0.0
H462 H 0.073 0.475 0.29108 0.0
H463 H 0.07091 0.55037 0.25022 0.0
O464 O 0.07271 0.49772 0.15603 0.0
O465 O 0.07232 0.52307 0.14951 0.0
H466 H 0.03956 0.47042 0.16421 0.0
O467 O 0.04833 0.5205 0.06976 0.0
O468 O 0.04889 0.49516 0.07709 0.0
O469 O 0.0378 0.52329 0.25646 0.0
O470 O 0.03848 0.49796 0.26444 0.0
C471 C 0.04658 0.50742 0.03259 0.0
H472 H 0.07362 0.44729 0.32501 0.0
H473 H 0.03968 0.44241 0.19113 0.0
H474 H 0.03703 0.57436 0.09163 0.0
H475 H 0.07074 0.5785 0.22995 0.0
C476 C 0.67928 0.51469 0.31721 0.0
N477 N 0.68685 0.47476 0.46614 0.0
C478 C 0.67761 0.46856 0.41873 0.0
C479 C 0.67739 0.45281 0.3979 0.0
C480 C 0.68666 0.44328 0.42748 0.0
C481 C 0.69591 0.44986 0.47857 0.0
C482 C 0.69589 0.46573 0.49654 0.0
Zn483 Zn 0.68746 0.49825 0.4856 0.0
C484 C 0.7101 0.51142 0.41884 0.0
N485 N 0.68861 0.54753 0.5135 0.0
C486 C 0.6794 0.55627 0.48356 0.0
C487 C 0.69797 0.5541 0.55733 0.0
C488 C 0.69823 0.57001 0.57373 0.0
C489 C 0.6888 0.57934 0.5441 0.0
C490 C 0.67934 0.57223 0.49771 0.0
Zn491 Zn 0.68808 0.52403 0.49517 0.0
O492 O 0.68091 0.50156 0.35377 0.0
C493 C 0.66516 0.5108 0.55647 0.0
O494 O 0.68159 0.52684 0.36266 0.0
H495 H 0.70521 0.54697 0.58071 0.0
H496 H 0.67047 0.47588 0.39566 0.0
H497 H 0.67202 0.55085 0.44898 0.0
O498 O 0.67025 0.49813 0.53748 0.0
O499 O 0.67071 0.52345 0.54692 0.0
H500 H 0.7032 0.47087 0.53341 0.0
O501 O 0.69464 0.52076 0.62698 0.0
O502 O 0.69399 0.49544 0.618 0.0
O503 O 0.70526 0.52412 0.44128 0.0
O504 O 0.70463 0.4988 0.43182 0.0
C505 C 0.69632 0.5076 0.66335 0.0
H506 H 0.67004 0.44812 0.35915 0.0
H507 H 0.70326 0.44288 0.50202 0.0
H508 H 0.70564 0.57486 0.61092 0.0
H509 H 0.67197 0.57891 0.47201 0.0
C510 C 0.06375 0.25806 0.3144 0.0
N511 N 0.05599 0.29775 0.46513 0.0
C512 C 0.06541 0.30414 0.42107 0.0
C513 C 0.06564 0.31994 0.40157 0.0
C514 C 0.05614 0.32938 0.42838 0.0
C515 C 0.04665 0.32249 0.4758 0.0
C516 C 0.04673 0.3066 0.49306 0.0
Zn517 Zn 0.05544 0.27423 0.48337 0.0
C518 C 0.03288 0.26097 0.41567 0.0
N519 N 0.05439 0.22486 0.50937 0.0
C520 C 0.06336 0.216 0.47588 0.0
C521 C 0.04521 0.21838 0.55619 0.0
C522 C 0.04491 0.20247 0.57224 0.0
C523 C 0.05404 0.19308 0.53841 0.0
C524 C 0.0633 0.20001 0.48899 0.0
Zn525 Zn 0.05492 0.24842 0.49201 0.0
O526 O 0.06213 0.27115 0.3517 0.0
C527 C 0.07777 0.26166 0.55397 0.0
O528 O 0.0614 0.24585 0.35908 0.0
H529 H 0.03812 0.22557 0.58176 0.0
H530 H 0.07269 0.29693 0.39925 0.0
H531 H 0.07063 0.22135 0.4396 0.0
O532 O 0.07261 0.27433 0.53601 0.0
O533 O 0.07228 0.24898 0.54338 0.0
H534 H 0.03931 0.30131 0.52782 0.0
O535 O 0.04836 0.25153 0.62416 0.0
O536 O 0.04878 0.27686 0.61571 0.0
O537 O 0.03775 0.24831 0.43848 0.0
O538 O 0.0383 0.27363 0.42866 0.0
C539 C 0.04655 0.26463 0.66079 0.0
H540 H 0.07308 0.32459 0.36368 0.0
H541 H 0.03921 0.32927 0.4994 0.0
H542 H 0.03756 0.19753 0.60999 0.0
H543 H 0.07056 0.19316 0.4625 0.0
C544 C 0.79681 0.25648 0.90698 0.0
N545 N 0.8046 0.29638 0.75686 0.0
C546 C 0.7954 0.30283 0.80371 0.0
C547 C 0.7951 0.31873 0.81999 0.0
C548 C 0.80423 0.32813 0.78639 0.0
C549 C 0.81351 0.32123 0.73699 0.0
C550 C 0.81357 0.30525 0.72363 0.0
Zn551 Zn 0.80513 0.27285 0.73882 0.0
C552 C 0.828 0.25964 0.79997 0.0
N553 N 0.80624 0.22357 0.71021 0.0
C554 C 0.79702 0.21466 0.73822 0.0
C555 C 0.81571 0.21722 0.66649 0.0
C556 C 0.81605 0.2014 0.64775 0.0
C557 C 0.80661 0.1919 0.67496 0.0
C558 C 0.79705 0.19875 0.72168 0.0
Zn559 Zn 0.80566 0.24707 0.72898 0.0
O560 O 0.79861 0.26962 0.87085 0.0
C561 C 0.78308 0.26041 0.66222 0.0
O562 O 0.79903 0.24431 0.86132 0.0
H563 H 0.82296 0.22448 0.64461 0.0
H564 H 0.78831 0.29563 0.82908 0.0
H565 H 0.78956 0.21991 0.77276 0.0
O566 O 0.78798 0.27301 0.68556 0.0
O567 O 0.78847 0.2477 0.67445 0.0
H568 H 0.82085 0.29991 0.68731 0.0
O569 O 0.81231 0.25027 0.59731 0.0
O570 O 0.8116 0.27556 0.60598 0.0
O571 O 0.82288 0.24696 0.78143 0.0
O572 O 0.82247 0.27229 0.79003 0.0
C573 C 0.81392 0.2634 0.5606 0.0
H574 H 0.78774 0.32366 0.85772 0.0
H575 H 0.82076 0.32809 0.71069 0.0
H576 H 0.82354 0.19677 0.61034 0.0
H577 H 0.78965 0.19191 0.74551 0.0
C578 C 0.44619 0.01351 0.91124 0.0
N579 N 0.43859 0.97348 0.76106 0.0
C580 C 0.44778 0.96706 0.808 0.0
C581 C 0.44816 0.95113 0.82377 0.0
C582 C 0.4391 0.94168 0.78953 0.0
C583 C 0.42982 0.94855 0.74019 0.0
C584 C 0.42969 0.96455 0.72738 0.0
Zn585 Zn 0.43797 0.99704 0.74294 0.0
C586 C 0.41504 1.01021 0.80399 0.0
N587 N 0.43668 0.04638 0.71427 0.0
C588 C 0.44566 0.05548 0.7449 0.0
C589 C 0.42741 0.05254 0.667 0.0
C590 C 0.4271 0.0683 0.6466 0.0
C591 C 0.43632 0.0779 0.67647 0.0
C592 C 0.4456 0.07136 0.72737 0.0
Zn593 Zn 0.43736 0.02286 0.73353 0.0
O594 O 0.44446 1.00036 0.87494 0.0
C595 C 0.46 1.00977 0.66679 0.0
O596 O 0.44391 0.02568 0.86583 0.0
H597 H 0.4203 0.04517 0.64376 0.0
H598 H 0.45482 0.9743 0.83375 0.0
H599 H 0.453 0.05037 0.78168 0.0
O600 O 0.45518 0.99706 0.68941 0.0
O601 O 0.45452 0.02239 0.67964 0.0
H602 H 0.4224 0.96985 0.69103 0.0
O603 O 0.4308 0.01954 0.60174 0.0
O604 O 0.43155 0.99425 0.61028 0.0
O605 O 0.42018 0.02288 0.78554 0.0
O606 O 0.42056 0.99754 0.79415 0.0
C607 C 0.42921 1.0064 0.56501 0.0
H608 H 0.45552 0.94624 0.8615 0.0
H609 H 0.42262 0.94166 0.71343 0.0
H610 H 0.41973 0.07295 0.608 0.0
H611 H 0.45291 0.07839 0.75105 0.0
C612 C 0.79662 0.0135 0.28611 0.0
N613 N 0.80453 0.97401 0.43911 0.0
C614 C 0.79511 0.96738 0.39637 0.0
C615 C 0.79477 0.95144 0.38159 0.0
C616 C 0.80418 0.94212 0.41178 0.0
C617 C 0.81371 0.94929 0.4569 0.0
C618 C 0.81373 0.96529 0.46945 0.0
Zn619 Zn 0.80503 0.99756 0.45513 0.0
C620 C 0.82788 1.01072 0.39216 0.0
N621 N 0.80608 0.04689 0.47997 0.0
C622 C 0.79682 0.05568 0.4515 0.0
C623 C 0.81549 0.05338 0.52358 0.0
C624 C 0.81571 0.06922 0.54204 0.0
C625 C 0.8062 0.07859 0.51464 0.0
C626 C 0.79672 0.0716 0.46773 0.0
Zn627 Zn 0.80556 0.02335 0.46302 0.0
O628 O 0.79839 1.00043 0.32319 0.0
C629 C 0.78302 1.01018 0.53168 0.0
O630 O 0.7989 0.02576 0.3307 0.0
H631 H 0.82277 0.04622 0.54583 0.0
H632 H 0.78787 0.97449 0.37267 0.0
H633 H 0.78941 0.05031 0.41711 0.0
O634 O 0.78789 0.99749 0.50958 0.0
O635 O 0.78842 0.02282 0.51788 0.0
H636 H 0.82115 0.97076 0.50317 0.0
O637 O 0.81225 0.02047 0.59477 0.0
O638 O 0.81161 0.99516 0.58772 0.0
O639 O 0.82274 0.02341 0.41021 0.0
O640 O 0.82237 0.99807 0.40284 0.0
C641 C 0.81392 1.00741 0.63219 0.0
H642 H 0.78731 0.94654 0.34525 0.0
H643 H 0.82107 0.94263 0.48289 0.0
H644 H 0.82313 0.07395 0.57958 0.0
H645 H 0.78928 0.07832 0.44371 0.0
C646 C 0.44636 0.25548 0.28743 0.0
N647 N 0.43877 0.29537 0.43819 0.0
C648 C 0.44819 0.30185 0.39446 0.0
C649 C 0.44857 0.31776 0.37841 0.0
C650 C 0.43921 0.3272 0.40831 0.0
C651 C 0.42969 0.32019 0.45451 0.0
C652 C 0.42962 0.30421 0.46831 0.0
Zn653 Zn 0.43811 0.27185 0.456 0.0
C654 C 0.41518 0.25884 0.39434 0.0
N655 N 0.43672 0.22252 0.48396 0.0
C656 C 0.44571 0.21342 0.45325 0.0
C657 C 0.42744 0.21637 0.5313 0.0
C658 C 0.42713 0.20061 0.55173 0.0
C659 C 0.43635 0.19101 0.52181 0.0
C660 C 0.44564 0.19754 0.4708 0.0
Zn661 Zn 0.43743 0.24604 0.46508 0.0
O662 O 0.44471 0.26861 0.32411 0.0
C663 C 0.46008 0.25911 0.53232 0.0
O664 O 0.44398 0.24329 0.33246 0.0
H665 H 0.42034 0.22374 0.55463 0.0
H666 H 0.45538 0.29464 0.37092 0.0
H667 H 0.45305 0.21853 0.41644 0.0
O668 O 0.45524 0.27179 0.50988 0.0
O669 O 0.45464 0.24647 0.51912 0.0
H670 H 0.4222 0.29887 0.5028 0.0
O671 O 0.43086 0.24931 0.59693 0.0
O672 O 0.4316 0.27461 0.58873 0.0
O673 O 0.4202 0.24611 0.41311 0.0
O674 O 0.42079 0.27144 0.40416 0.0
C675 C 0.42925 0.26243 0.63383 0.0
H676 H 0.45603 0.32253 0.34132 0.0
H677 H 0.42236 0.32695 0.4804 0.0
H678 H 0.41975 0.19596 0.59042 0.0
H679 H 0.45295 0.19051 0.44707 0.0
C680 C 0.17948 0.75849 0.38545 0.0
N681 N 0.18724 0.79848 0.23699 0.0
C682 C 0.17802 0.80474 0.28438 0.0
C683 C 0.17777 0.82053 0.30415 0.0
C684 C 0.18701 0.83004 0.27349 0.0
C685 C 0.19627 0.82338 0.22277 0.0
C686 C 0.19627 0.80747 0.2059 0.0
Zn687 Zn 0.18776 0.77498 0.21717 0.0
C688 C 0.21029 0.76149 0.28308 0.0
N689 N 0.18864 0.72565 0.18801 0.0
C690 C 0.17971 0.71669 0.22101 0.0
C691 C 0.19786 0.71929 0.14091 0.0
C692 C 0.19822 0.70341 0.12411 0.0
C693 C 0.18913 0.69392 0.15747 0.0
C694 C 0.17983 0.70071 0.20714 0.0
Zn695 Zn 0.18813 0.74917 0.20709 0.0
O696 O 0.18118 0.77162 0.34897 0.0
C697 C 0.16532 0.76264 0.14687 0.0
O698 O 0.18171 0.74632 0.33987 0.0
H699 H 0.20493 0.72656 0.11581 0.0
H700 H 0.17088 0.79746 0.30797 0.0
H701 H 0.17242 0.72195 0.25763 0.0
O702 O 0.17055 0.77524 0.16542 0.0
O703 O 0.17074 0.7499 0.15641 0.0
H704 H 0.20357 0.80228 0.16904 0.0
O705 O 0.19462 0.75252 0.07502 0.0
O706 O 0.19432 0.77784 0.08474 0.0
O707 O 0.20532 0.74891 0.26001 0.0
O708 O 0.20495 0.77423 0.27091 0.0
C709 C 0.19647 0.76566 0.03898 0.0
H710 H 0.17041 0.82528 0.34267 0.0
H711 H 0.20359 0.83033 0.19854 0.0
H712 H 0.2056 0.69857 0.08624 0.0
H713 H 0.17261 0.69378 0.23331 0.0
C714 C 0.5639 0.01396 0.38123 0.0
N715 N 0.55596 0.97449 0.22951 0.0
C716 C 0.56538 0.96803 0.2732 0.0
C717 C 0.56557 0.95224 0.29257 0.0
C718 C 0.55602 0.94287 0.26596 0.0
C719 C 0.54655 0.94981 0.21883 0.0
C720 C 0.54667 0.96569 0.20171 0.0
Zn721 Zn 0.5555 0.99798 0.21196 0.0
C722 C 0.533 0.01127 0.28088 0.0
N723 N 0.55463 0.04729 0.18768 0.0
C724 C 0.56388 0.05594 0.21791 0.0
C725 C 0.54527 0.05397 0.14445 0.0
C726 C 0.54505 0.0699 0.12893 0.0
C727 C 0.55451 0.07914 0.15889 0.0
C728 C 0.56397 0.07192 0.20466 0.0
Zn729 Zn 0.55504 0.02376 0.20425 0.0
O730 O 0.56222 1.00091 0.34367 0.0
C731 C 0.57784 1.0104 0.14116 0.0
O732 O 0.56159 0.02621 0.33684 0.0
H733 H 0.538 0.04691 0.12084 0.0
H734 H 0.57268 0.9752 0.2949 0.0
H735 H 0.57125 0.05043 0.25201 0.0
O736 O 0.57263 0.99776 0.1589 0.0
O737 O 0.57241 0.02311 0.15218 0.0
H738 H 0.53926 0.97104 0.16723 0.0
O739 O 0.54842 0.02085 0.07222 0.0
O740 O 0.5488 0.99551 0.07981 0.0
O741 O 0.53788 0.02395 0.25865 0.0
O742 O 0.53839 0.99862 0.26701 0.0
C743 C 0.54658 1.00778 0.03518 0.0
H744 H 0.573 0.94754 0.33026 0.0
H745 H 0.53908 0.94307 0.19543 0.0
H746 H 0.53764 0.07483 0.09214 0.0
H747 H 0.57137 0.07853 0.23052 0.0
C748 C 0.17937 0.01419 0.31934 0.0
N749 N 0.18703 0.97446 0.47028 0.0
C750 C 0.17779 0.96816 0.4233 0.0
C751 C 0.17756 0.95235 0.40403 0.0
C752 C 0.1868 0.94288 0.43476 0.0
C753 C 0.19605 0.94958 0.48524 0.0
C754 C 0.19605 0.9655 0.50161 0.0
Zn755 Zn 0.18764 0.99801 0.4882 0.0
C756 C 0.21023 0.01113 0.42029 0.0
N757 N 0.18881 0.04736 0.51379 0.0
C758 C 0.17962 0.05613 0.4837 0.0
C759 C 0.19822 0.05391 0.55699 0.0
C760 C 0.19857 0.06984 0.57253 0.0
C761 C 0.18918 0.07921 0.54264 0.0
C762 C 0.17966 0.07212 0.49699 0.0
Zn763 Zn 0.18823 0.02382 0.49678 0.0
O764 O 0.18104 1.0011 0.35638 0.0
C765 C 0.16534 1.0107 0.55901 0.0
O766 O 0.18169 0.0264 0.36419 0.0
H767 H 0.20544 0.04676 0.58051 0.0
H768 H 0.17066 0.97542 0.39947 0.0
H769 H 0.17221 0.05072 0.44962 0.0
O770 O 0.17043 0.998 0.54043 0.0
O771 O 0.1709 0.02334 0.54895 0.0
H772 H 0.20335 0.97073 0.53809 0.0
O773 O 0.19485 0.02076 0.62863 0.0
O774 O 0.19421 0.99544 0.6207 0.0
O775 O 0.20537 0.02382 0.44249 0.0
O776 O 0.20482 0.99849 0.43387 0.0
C777 C 0.19655 1.00766 0.66549 0.0
H778 H 0.1702 0.94757 0.36568 0.0
H779 H 0.20338 0.94265 0.50952 0.0
H780 H 0.20603 0.07467 0.60923 0.0
H781 H 0.17231 0.07883 0.47116 0.0
C782 C 0.56398 0.7589 0.31789 0.0
N783 N 0.55607 0.79835 0.47007 0.0
C784 C 0.56558 0.80473 0.4271 0.0
C785 C 0.56591 0.82054 0.40848 0.0
C786 C 0.55641 0.83001 0.43507 0.0
C787 C 0.54682 0.82313 0.48126 0.0
C788 C 0.54681 0.80722 0.4977 0.0
Zn789 Zn 0.5555 0.77485 0.48724 0.0
C790 C 0.53306 0.76163 0.418 0.0
N791 N 0.55459 0.72552 0.51115 0.0
C792 C 0.56378 0.71678 0.48084 0.0
C793 C 0.54514 0.71894 0.55391 0.0
C794 C 0.54477 0.703 0.56871 0.0
C795 C 0.55416 0.69364 0.5385 0.0
C796 C 0.56372 0.70077 0.49339 0.0
Zn797 Zn 0.55511 0.74907 0.49493 0.0
O798 O 0.56227 0.77194 0.35551 0.0
C799 C 0.57784 0.76235 0.55855 0.0
O800 O 0.5617 0.74663 0.3623 0.0
H801 H 0.53792 0.72607 0.57757 0.0
H802 H 0.57285 0.7975 0.40553 0.0
H803 H 0.57122 0.72222 0.44708 0.0
O804 O 0.57261 0.77497 0.54065 0.0
O805 O 0.57245 0.74962 0.54727 0.0
H806 H 0.53932 0.80193 0.53163 0.0
O807 O 0.54844 0.75197 0.62701 0.0
O808 O 0.54876 0.77731 0.6194 0.0
O809 O 0.53797 0.74898 0.44034 0.0
O810 O 0.53841 0.77431 0.43192 0.0
C811 C 0.54657 0.76503 0.66409 0.0
H812 H 0.57342 0.82519 0.37147 0.0
H813 H 0.53939 0.82995 0.50457 0.0
H814 H 0.53729 0.69813 0.60505 0.0
H815 H 0.57108 0.69408 0.46738 0.0
C816 C 0.79706 0.75576 0.41071 0.0
N817 N 0.80505 0.79566 0.26119 0.0
C818 C 0.79571 0.80222 0.30552 0.0
C819 C 0.79546 0.81811 0.32212 0.0
C820 C 0.80487 0.82745 0.29214 0.0
C821 C 0.81432 0.82035 0.24541 0.0
C822 C 0.81425 0.80439 0.23106 0.0
Zn823 Zn 0.80547 0.77217 0.24236 0.0
C824 C 0.82834 0.75877 0.30495 0.0
N825 N 0.80654 0.72291 0.21266 0.0
C826 C 0.80976 0.71307 0.28178 0.0
C827 C 0.8036 0.71751 0.1271 0.0
C828 C 0.80407 0.70174 0.10779 0.0
C829 C 0.80738 0.69134 0.17755 0.0
C830 C 0.81014 0.69713 0.26584 0.0
Zn831 Zn 0.80612 0.74639 0.23339 0.0
O832 O 0.79895 0.76888 0.37461 0.0
C833 C 0.78353 0.75982 0.16538 0.0
O834 O 0.79919 0.74356 0.36499 0.0
H835 H 0.80091 0.72544 0.07329 0.0
H836 H 0.78847 0.79508 0.32906 0.0
H837 H 0.8121 0.71759 0.34922 0.0
O838 O 0.78831 0.77247 0.18923 0.0
O839 O 0.78902 0.7472 0.17756 0.0
H840 H 0.82161 0.79897 0.19609 0.0
O841 O 0.81316 0.74972 0.10271 0.0
O842 O 0.81189 0.77497 0.10922 0.0
O843 O 0.82323 0.74605 0.28729 0.0
O844 O 0.82282 0.77141 0.29352 0.0
C845 C 0.8145 0.7628 0.06487 0.0
H846 H 0.78806 0.82295 0.35964 0.0
H847 H 0.82168 0.82704 0.2195 0.0
H848 H 0.80173 0.69769 0.03917 0.0
H849 H 0.81277 0.68944 0.32129 0.0
C850 C 0.44595 0.51349 0.40997 0.0
N851 N 0.4382 0.47373 0.25855 0.0
C852 C 0.4476 0.46714 0.30174 0.0
C853 C 0.44791 0.45121 0.31731 0.0
C854 C 0.43849 0.44188 0.2875 0.0
C855 C 0.42899 0.44901 0.24178 0.0
C856 C 0.429 0.46499 0.22845 0.0
Zn857 Zn 0.43765 0.49728 0.24146 0.0
C858 C 0.41476 0.51043 0.30358 0.0
N859 N 0.43645 0.54662 0.21452 0.0
C860 C 0.44547 0.55557 0.24603 0.0
C861 C 0.42724 0.55295 0.16742 0.0
C862 C 0.42702 0.56876 0.14822 0.0
C863 C 0.43627 0.57821 0.17914 0.0
C864 C 0.4455 0.57148 0.22973 0.0
Zn865 Zn 0.43704 0.52308 0.23251 0.0
O866 O 0.44426 0.50037 0.37326 0.0
C867 C 0.45965 0.50997 0.16485 0.0
O868 O 0.44362 0.52568 0.36495 0.0
H869 H 0.4201 0.54569 0.14345 0.0
H870 H 0.45484 0.47427 0.32525 0.0
H871 H 0.45277 0.55032 0.28259 0.0
O872 O 0.4548 0.49726 0.18705 0.0
O873 O 0.45421 0.52259 0.17837 0.0
H874 H 0.4216 0.47043 0.19437 0.0
O875 O 0.43046 0.51995 0.10065 0.0
O876 O 0.43109 0.49466 0.10903 0.0
O877 O 0.41985 0.52311 0.28472 0.0
O878 O 0.42031 0.49779 0.2937 0.0
C879 C 0.4288 0.50684 0.06384 0.0
H880 H 0.45535 0.44635 0.35404 0.0
H881 H 0.42162 0.44234 0.21598 0.0
H882 H 0.41969 0.57356 0.10977 0.0
H883 H 0.45283 0.57839 0.25414 0.0
C884 C 0.7969 0.51378 0.79012 0.0
N885 N 0.80474 0.47395 0.94121 0.0
C886 C 0.79555 0.46751 0.89434 0.0
C887 C 0.79521 0.4516 0.87838 0.0
C888 C 0.80431 0.44219 0.91233 0.0
C889 C 0.81357 0.44907 0.96183 0.0
C890 C 0.81366 0.46507 0.97486 0.0
Zn891 Zn 0.80531 0.49749 0.95839 0.0
C892 C 0.82814 0.51057 0.89442 0.0
N893 N 0.80657 0.5468 -0.01439 0.0
C894 C 0.79664 0.55536 0.97277 0.0
C895 C 0.81676 0.55346 0.01544 0.0
C896 C 0.81719 0.56928 0.03437 0.0
C897 C 0.80698 0.57828 0.02414 0.0
C898 C 0.79662 0.57116 -0.00753 0.0
Zn899 Zn 0.80596 0.52328 0.96719 0.0
O900 O 0.7988 0.50065 0.82619 0.0
C901 C 0.78342 0.51007 0.03658 0.0
O902 O 0.79901 0.52598 0.83586 0.0
H903 H 0.82453 0.54646 0.02637 0.0
H904 H 0.78849 0.47473 0.86867 0.0
H905 H 0.78864 0.54989 0.94862 0.0
O906 O 0.78813 0.4974 0.01217 0.0
O907 O 0.78895 0.52265 0.0245 0.0
H908 H 0.82094 0.4704 0.0112 0.0
O909 O 0.81294 0.52025 0.09802 0.0
O910 O 0.81177 0.49497 0.09131 0.0
O911 O 0.823 0.52328 0.91166 0.0
O912 O 0.82267 0.49793 0.90673 0.0
C913 C 0.81432 0.50715 0.13573 0.0
H914 H 0.78787 0.44669 0.84058 0.0
H915 H 0.8208 0.4422 -0.0116 0.0
H916 H 0.82532 0.57434 0.05938 0.0
H917 H 0.7886 0.57776 -0.01708 0.0
C918 C 0.44651 0.75575 0.78656 0.0
N919 N 0.43867 0.79556 0.93801 0.0
C920 C 0.44786 0.80204 0.89118 0.0
C921 C 0.4482 0.81796 0.87557 0.0
C922 C 0.43911 0.82737 0.90985 0.0
C923 C 0.42983 0.82045 0.95916 0.0
C924 C 0.42974 0.80444 0.97181 0.0
Zn925 Zn 0.43814 0.77198 0.95546 0.0
C926 C 0.41531 0.75865 0.89396 0.0
N927 N 0.43711 0.72261 -0.01765 0.0
C928 C 0.44614 0.71361 0.95136 0.0
C929 C 0.42784 0.71635 0.02917 0.0
C930 C 0.42756 0.70055 0.04858 0.0
C931 C 0.4368 0.69104 0.01817 0.0
C932 C 0.44611 0.6977 0.96789 0.0
Zn933 Zn 0.4377 0.74615 0.96395 0.0
O934 O 0.44467 0.76884 0.82326 0.0
C935 C 0.46024 0.75941 0.03121 0.0
O936 O 0.4443 0.74351 0.83156 0.0
H937 H 0.4207 0.72364 0.05269 0.0
H938 H 0.45493 0.79484 0.86536 0.0
H939 H 0.45347 0.71881 0.91495 0.0
O940 O 0.45533 0.77207 0.00885 0.0
O941 O 0.45485 0.74673 0.01807 0.0
H942 H 0.42246 0.79909 0.00811 0.0
O943 O 0.43106 0.74928 0.0958 0.0
O944 O 0.43169 0.77459 0.08833 0.0
O945 O 0.42053 0.74602 0.91178 0.0
O946 O 0.42074 0.77137 0.9044 0.0
C947 C 0.42939 0.76236 0.13305 0.0
H948 H 0.45556 0.8229 0.83789 0.0
H949 H 0.42261 0.8273 -0.01402 0.0
H950 H 0.42017 0.69581 0.08674 0.0
H951 H 0.45343 0.69074 0.94383 0.0
C952 C 0.17884 0.25916 0.88454 0.0
N953 N 0.18671 0.29865 0.73256 0.0
C954 C 0.17728 0.30509 0.77623 0.0
C955 C 0.17705 0.3209 0.79539 0.0
C956 C 0.18658 0.33029 0.76864 0.0
C957 C 0.19608 0.32337 0.72155 0.0
C958 C 0.19599 0.30747 0.7046 0.0
Zn959 Zn 0.18724 0.27514 0.71519 0.0
C960 C 0.20975 0.26195 0.78391 0.0
N961 N 0.18821 0.22579 0.691 0.0
C962 C 0.17899 0.21709 0.72131 0.0
C963 C 0.1976 0.21915 0.64778 0.0
C964 C 0.19788 0.20321 0.63235 0.0
C965 C 0.18844 0.19392 0.66239 0.0
C966 C 0.17895 0.2011 0.70815 0.0
Zn967 Zn 0.18773 0.24934 0.70744 0.0
O968 O 0.18051 0.27222 0.84699 0.0
C969 C 0.16493 0.26261 0.64432 0.0
O970 O 0.18116 0.24691 0.84009 0.0
H971 H 0.20485 0.22624 0.62409 0.0
H972 H 0.16999 0.2979 0.79806 0.0
H973 H 0.17159 0.22257 0.75541 0.0
O974 O 0.1701 0.27527 0.66223 0.0
O975 O 0.17038 0.24992 0.65532 0.0
H976 H 0.20342 0.30214 0.67014 0.0
O977 O 0.19438 0.25226 0.57537 0.0
O978 O 0.19394 0.27759 0.58293 0.0
O979 O 0.20488 0.24926 0.7618 0.0
O980 O 0.20435 0.27459 0.77006 0.0
C981 C 0.19618 0.26533 0.53828 0.0
H982 H 0.1696 0.32558 0.83305 0.0
H983 H 0.20353 0.33012 0.69802 0.0
H984 H 0.20531 0.19832 0.59556 0.0
H985 H 0.17157 0.19446 0.73409 0.0
C986 C 0.56388 0.51431 0.88496 0.0
N987 N 0.55616 0.47442 0.73599 0.0
C988 C 0.56541 0.46821 0.78314 0.0
C989 C 0.56564 0.45246 0.80375 0.0
C990 C 0.55637 0.44294 0.77421 0.0
C991 C 0.54709 0.44953 0.72343 0.0
C992 C 0.54711 0.4654 0.70568 0.0
Zn993 Zn 0.55561 0.49789 0.71647 0.0
C994 C 0.53305 0.51122 0.78348 0.0
N995 N 0.55468 0.54717 0.68864 0.0
C996 C 0.56391 0.55589 0.71854 0.0
C997 C 0.54533 0.55376 0.64477 0.0
C998 C 0.5451 0.56966 0.62831 0.0
C999 C 0.55454 0.57897 0.65796 0.0
C1000 C 0.56399 0.57184 0.70434 0.0
Zn1001 Zn 0.55513 0.52367 0.70712 0.0
O1002 O 0.5622 0.50119 0.84829 0.0
C1003 C 0.57798 0.51025 0.64562 0.0
O1004 O 0.56162 0.52647 0.8396 0.0
H1005 H 0.53808 0.54664 0.62142 0.0
H1006 H 0.57257 0.47552 0.80609 0.0
H1007 H 0.57127 0.55045 0.75316 0.0
O1008 O 0.57279 0.49764 0.66436 0.0
O1009 O 0.57252 0.52296 0.65547 0.0
H1010 H 0.53979 0.47056 0.66897 0.0
O1011 O 0.54857 0.52042 0.57524 0.0
O1012 O 0.54905 0.4951 0.58418 0.0
O1013 O 0.53794 0.52388 0.76103 0.0
O1014 O 0.53846 0.49856 0.77041 0.0
C1015 C 0.5468 0.50728 0.53883 0.0
H1016 H 0.57301 0.44776 0.84225 0.0
H1017 H 0.53975 0.44255 0.7 0.0
H1018 H 0.53769 0.57452 0.59109 0.0
H1019 H 0.57137 0.57851 0.73004 0.0
C1020 C 0.17922 0.51449 0.82221 0.0
N1021 N 0.1866 0.47483 0.974 0.0
C1022 C 0.1771 0.46856 0.93043 0.0
C1023 C 0.17671 0.45276 0.91136 0.0
C1024 C 0.18613 0.44319 0.93808 0.0
C1025 C 0.1957 0.44995 -0.01498 0.0
C1026 C 0.19578 0.46585 0.00189 0.0
Zn1027 Zn 0.18739 0.49833 -0.00852 0.0
C1028 C 0.21006 0.51106 0.92285 0.0
N1029 N 0.18891 0.54768 0.01595 0.0
C1030 C 0.18 0.55663 -0.01734 0.0
C1031 C 0.19815 0.55406 0.06247 0.0
C1032 C 0.19855 0.56996 0.07858 0.0
C1033 C 0.18946 0.57944 0.04511 0.0
C1034 C 0.18015 0.57262 -0.00417 0.0
Zn1035 Zn 0.18816 0.52412 -0.00073 0.0
O1036 O 0.18073 0.5014 0.85977 0.0
C1037 C 0.16518 0.51131 0.06184 0.0
O1038 O 0.18169 0.52669 0.86657 0.0
H1039 H 0.20519 0.54679 0.08791 0.0
H1040 H 0.16989 0.47588 0.90863 0.0
H1041 H 0.17267 0.55136 0.94663 0.0
O1042 O 0.17025 0.49856 0.04428 0.0
O1043 O 0.17077 0.52391 0.05098 0.0
H1044 H 0.20326 0.47104 0.03626 0.0
O1045 O 0.1947 0.52102 0.13141 0.0
O1046 O 0.19403 0.4957 0.12362 0.0
O1047 O 0.20535 0.52386 0.94512 0.0
O1048 O 0.2045 0.49854 0.93663 0.0
C1049 C 0.19639 0.50792 0.16834 0.0
H1050 H 0.16922 0.4482 0.87384 0.0
H1051 H 0.20308 0.44306 0.00853 0.0
H1052 H 0.20593 0.57482 0.11621 0.0
H1053 H 0.17293 0.57955 0.96963 0.0
C1054 C 0.56391 0.25872 0.81601 0.0
N1055 N 0.55616 0.29844 0.96644 0.0
C1056 C 0.56545 0.30467 0.9197 0.0
C1057 C 0.56569 0.32043 0.89948 0.0
C1058 C 0.5564 0.32994 0.92897 0.0
C1059 C 0.54709 0.32332 -0.0206 0.0
C1060 C 0.5471 0.30743 -0.00322 0.0
Zn1061 Zn 0.55558 0.27494 -0.015 0.0
C1062 C 0.53305 0.26167 0.91739 0.0
N1063 N 0.55458 0.22565 0.01107 0.0
C1064 C 0.56376 0.21686 -0.01905 0.0
C1065 C 0.54515 0.21912 0.05435 0.0
C1066 C 0.54478 0.2032 0.06985 0.0
C1067 C 0.55416 0.19381 0.0398 0.0
C1068 C 0.56371 0.20088 -0.0058 0.0
Zn1069 Zn 0.55512 0.24916 -0.00641 0.0
O1070 O 0.5622 0.2718 0.85309 0.0
C1071 C 0.57795 0.26244 0.05537 0.0
O1072 O 0.56165 0.2465 0.86091 0.0
H1073 H 0.53794 0.22629 0.07786 0.0
H1074 H 0.57261 0.29738 0.89671 0.0
H1075 H 0.57119 0.22226 0.94678 0.0
O1076 O 0.57278 0.27508 0.03704 0.0
O1077 O 0.57246 0.24975 0.04533 0.0
H1078 H 0.53975 0.30225 0.03316 0.0
O1079 O 0.54851 0.25227 0.12559 0.0
O1080 O 0.549 0.2776 0.1175 0.0
O1081 O 0.53797 0.24903 0.93963 0.0
O1082 O 0.53841 0.27436 0.93086 0.0
C1083 C 0.54673 0.26537 0.16241 0.0
H1084 H 0.57309 0.32516 0.86125 0.0
H1085 H 0.53973 0.33028 0.00276 0.0
H1086 H 0.53731 0.19838 0.10655 0.0
H1087 H 0.57105 0.19415 0.96829 0.0
H1088 H 0.22221 0.28692 0.84541 0.0
H1089 H 0.2705 0.23555 0.10465 0.0
H1090 H 0.22293 0.23705 0.83701 0.0
H1091 H 0.26995 0.28543 0.11208 0.0
H1092 H 0.25282 0.23589 0.00886 0.0
H1093 H 0.23985 0.28663 0.9418 0.0
C1094 C 0.22614 0.27591 0.86313 0.0
C1095 C 0.22108 0.26198 0.8334 0.0
C1096 C 0.25654 0.24676 0.03176 0.0
C1097 C 0.24117 0.26157 0.94446 0.0
C1098 C 0.2666 0.24658 0.08685 0.0
C1099 C 0.27172 0.2605 0.11609 0.0
C1100 C 0.25158 0.26095 0.00565 0.0
C1101 C 0.26629 0.27443 0.09097 0.0
C1102 C 0.23617 0.27575 0.91855 0.0
C1103 C 0.22654 0.24806 0.85848 0.0
N1104 N 0.25653 0.2743 0.03674 0.0
N1105 N 0.23627 0.24821 0.91298 0.0
H1106 H 0.02079 0.98574 0.84488 0.0
H1107 H 0.97234 0.03645 0.10764 0.0
H1108 H 0.01997 0.03561 0.83919 0.0
H1109 H 0.97326 0.98658 0.11397 0.0
H1110 H 0.98996 0.03638 0.01084 0.0
H1111 H 0.00315 0.98582 0.9414 0.0
C1112 C 0.01684 0.99671 0.86322 0.0
C1113 C 0.02187 1.0107 0.83424 0.0
C1114 C 0.98634 0.02546 0.03372 0.0
C1115 C 0.00177 0.01087 0.94551 0.0
C1116 C 0.97631 0.02548 0.08938 0.0
C1117 C 0.97131 0.01149 0.11864 0.0
C1118 C 0.99138 0.01134 0.00707 0.0
C1119 C 0.97682 0.99764 0.09288 0.0
C1120 C 0.0068 0.99675 0.91872 0.0
C1121 C 0.01638 0.02456 0.86007 0.0
N1122 N 0.98655 0.99791 0.03813 0.0
N1123 N 0.00664 0.02429 0.91468 0.0
H1124 H 0.22359 0.03607 0.37078 0.0
H1125 H 0.27003 0.98552 0.08475 0.0
H1126 H 0.22251 0.98627 0.35484 0.0
H1127 H 0.27056 0.03538 0.096 0.0
H1128 H 0.25251 0.98554 0.18303 0.0
H1129 H 0.24115 0.03598 0.27323 0.0
C1130 C 0.22711 0.02511 0.34752 0.0
C1131 C 0.22156 0.01116 0.37064 0.0
C1132 C 0.25643 0.99647 0.16362 0.0
C1133 C 0.24155 0.01099 0.2582 0.0
C1134 C 0.26639 0.99648 0.1071 0.0
C1135 C 0.27176 1.01047 0.08237 0.0
C1136 C 0.25185 1.01056 0.19567 0.0
C1137 C 0.2667 0.02432 0.1135 0.0
C1138 C 0.2371 0.02507 0.2914 0.0
C1139 C 0.2265 0.99729 0.33853 0.0
N1140 N 0.25705 0.02401 0.16894 0.0
N1141 N 0.2362 0.99757 0.28351 0.0
H1142 H 0.01951 0.23597 0.36758 0.0
H1143 H 0.97328 0.28614 0.07766 0.0
H1144 H 0.02067 0.28574 0.34859 0.0
H1145 H 0.97243 0.23633 0.0946 0.0
H1146 H 0.99082 0.28624 0.17542 0.0
H1147 H 0.00197 0.23594 0.26993 0.0
C1148 C 0.01601 0.2469 0.34363 0.0
C1149 C 0.02157 0.26088 0.36595 0.0
C1150 C 0.98682 0.27529 0.15738 0.0
C1151 C 0.00161 0.26091 0.25337 0.0
C1152 C 0.97685 0.27522 0.10115 0.0
C1153 C 0.97138 0.26121 0.07825 0.0
C1154 C 0.99132 0.26126 0.19091 0.0
C1155 C 0.97636 0.24741 0.11072 0.0
C1156 C 0.00603 0.24687 0.28746 0.0
C1157 C 0.01667 0.2747 0.33294 0.0
N1158 N 0.98603 0.24779 0.16582 0.0
N1159 N 0.00699 0.27436 0.27788 0.0
H1160 H 0.72223 0.78691 0.85288 0.0
H1161 H 0.77141 0.73501 0.09788 0.0
H1162 H 0.72337 0.73711 0.83541 0.0
H1163 H 0.77002 0.78476 0.1185 0.0
H1164 H 0.75369 0.73555 0.00242 0.0
H1165 H 0.74001 0.78639 0.94758 0.0
C1166 C 0.72628 0.77587 0.86824 0.0
C1167 C 0.7213 0.76202 0.83652 0.0
C1168 C 0.75724 0.74635 0.02815 0.0
C1169 C 0.74155 0.76135 0.9456 0.0
C1170 C 0.76731 0.74604 0.08306 0.0
C1171 C 0.7722 0.75987 0.11601 0.0
C1172 C 0.75203 0.76058 0.00596 0.0
C1173 C 0.76655 0.77383 0.09448 0.0
C1174 C 0.7364 0.77558 0.9227 0.0
C1175 C 0.72691 0.74806 0.85856 0.0
N1176 N 0.75678 0.77382 0.0404 0.0
N1177 N 0.73672 0.74808 0.91216 0.0
H1178 H 0.76967 0.98526 0.58202 0.0
H1179 H 0.72313 0.03623 0.86452 0.0
H1180 H 0.77069 0.03509 0.59572 0.0
H1181 H 0.72214 0.98639 0.85165 0.0
H1182 H 0.74075 0.03601 0.76745 0.0
H1183 H 0.75201 0.98546 0.67861 0.0
C1184 C 0.76611 0.99625 0.60461 0.0
C1185 C 0.77167 1.01018 0.58111 0.0
C1186 C 0.7367 0.02512 0.78619 0.0
C1187 C 0.75158 1.01047 0.69238 0.0
C1188 C 0.72668 0.02523 0.84199 0.0
C1189 C 0.72116 0.0113 0.86593 0.0
C1190 C 0.7412 0.01099 0.7541 0.0
C1191 C 0.72612 0.9974 0.83473 0.0
C1192 C 0.75607 0.99635 0.66014 0.0
C1193 C 0.7667 0.02407 0.61234 0.0
N1194 N 0.73585 0.99761 0.78002 0.0
N1195 N 0.75695 0.02386 0.66679 0.0
H1196 H 0.97301 0.73565 0.59286 0.0
H1197 H 0.02092 0.78694 0.85721 0.0
H1198 H 0.97338 0.78554 0.58774 0.0
H1199 H 0.02008 0.73707 0.86548 0.0
H1200 H 0.00338 0.7867 0.75956 0.0
H1201 H 0.99056 0.73599 0.69011 0.0
C1202 C 0.97685 0.74668 0.61147 0.0
C1203 C 0.97171 0.7606 0.58245 0.0
C1204 C 0.00701 0.77582 0.78309 0.0
C1205 C 0.9917 0.76105 0.6946 0.0
C1206 C 0.01698 0.77594 0.83924 0.0
C1207 C 0.02198 0.76199 0.86925 0.0
C1208 C 0.00202 0.76165 0.75673 0.0
C1209 C 0.01652 0.74809 0.84381 0.0
C1210 C 0.98683 0.74686 0.66741 0.0
C1211 C 0.97705 0.77454 0.60863 0.0
N1212 N 0.00685 0.74828 0.78858 0.0
N1213 N 0.98674 0.77441 0.66369 0.0
H1214 H 0.22353 0.73626 0.32927 0.0
H1215 H 0.27016 0.78557 0.62036 0.0
H1216 H 0.22274 0.78602 0.35065 0.0
H1217 H 0.27089 0.7358 0.60005 0.0
H1218 H 0.25261 0.78593 0.52294 0.0
H1219 H 0.24115 0.73589 0.42602 0.0
C1220 C 0.22713 0.74712 0.35354 0.0
C1221 C 0.22165 0.7612 0.33218 0.0
C1222 C 0.25658 0.77493 0.54012 0.0
C1223 C 0.24169 0.76083 0.44371 0.0
C1224 C 0.26656 0.77471 0.59613 0.0
C1225 C 0.272 0.76063 0.61808 0.0
C1226 C 0.25203 0.76098 0.50578 0.0
C1227 C 0.26698 0.74691 0.58473 0.0
C1228 C 0.23715 0.74689 0.40919 0.0
C1229 C 0.22668 0.77491 0.36557 0.0
N1230 N 0.25729 0.74744 0.52983 0.0
N1231 N 0.2364 0.77437 0.4201 0.0
H1232 H 0.97267 0.53618 0.60705 0.0
H1233 H 0.02072 0.48543 0.34 0.0
H1234 H 0.97347 0.4863 0.61264 0.0
H1235 H 0.01979 0.5353 0.33365 0.0
H1236 H 0.00324 0.4855 0.43845 0.0
H1237 H 0.99019 0.53608 0.50921 0.0
C1238 C 0.9766 0.5252 0.58844 0.0
C1239 C 0.97159 0.51122 0.61772 0.0
C1240 C 0.00683 0.49642 0.41519 0.0
C1241 C 0.99154 0.51103 0.50491 0.0
C1242 C 0.01677 0.49639 0.35858 0.0
C1243 C 0.02173 0.51039 0.32886 0.0
C1244 C 0.00183 0.51055 0.44232 0.0
C1245 C 0.01626 0.52424 0.35506 0.0
C1246 C 0.98657 0.52516 0.53217 0.0
C1247 C 0.97704 0.49735 0.59155 0.0
N1248 N 0.00662 0.52397 0.41074 0.0
N1249 N 0.98671 0.49761 0.53615 0.0
H1250 H 0.27031 0.536 0.59167 0.0
H1251 H 0.22226 0.48581 0.86231 0.0
H1252 H 0.26949 0.48611 0.58906 0.0
H1253 H 0.22339 0.53568 0.86699 0.0
H1254 H 0.23971 0.48566 0.76358 0.0
H1255 H 0.25284 0.53608 0.69006 0.0
C1256 C 0.26638 0.52505 0.61105 0.0
C1257 C 0.27137 0.51102 0.58243 0.0
C1258 C 0.23617 0.49663 0.78655 0.0
C1259 C 0.25148 0.51104 0.69591 0.0
C1260 C 0.22625 0.49673 0.84332 0.0
C1261 C 0.22135 0.51079 0.87263 0.0
C1262 C 0.24122 0.51069 0.75883 0.0
C1263 C 0.22687 0.52457 0.84592 0.0
C1264 C 0.25645 0.52512 0.66765 0.0
C1265 C 0.26593 0.4972 0.60961 0.0
N1266 N 0.23649 0.52418 0.79007 0.0
N1267 N 0.25629 0.49756 0.66531 0.0
H1268 H 0.76974 0.28556 0.61685 0.0
H1269 H 0.72304 0.23634 0.32601 0.0
H1270 H 0.77076 0.23584 0.59335 0.0
H1271 H 0.72267 0.28615 0.34381 0.0
H1272 H 0.7406 0.2359 0.42334 0.0
H1273 H 0.75214 0.28592 0.52005 0.0
C1274 C 0.7662 0.2747 0.59207 0.0
C1275 C 0.77174 0.26065 0.61289 0.0
C1276 C 0.73671 0.24693 0.40558 0.0
C1277 C 0.7517 0.261 0.50127 0.0
C1278 C 0.72672 0.2472 0.34961 0.0
C1279 C 0.72138 0.26131 0.32697 0.0
C1280 C 0.74136 0.26087 0.43922 0.0
C1281 C 0.7265 0.27501 0.35964 0.0
C1282 C 0.75618 0.27493 0.53638 0.0
C1283 C 0.76677 0.24694 0.57887 0.0
N1284 N 0.73619 0.27444 0.41453 0.0
N1285 N 0.75705 0.24746 0.52432 0.0
H1286 H 0.72362 0.53628 0.37014 0.0
H1287 H 0.7699 0.48522 0.08545 0.0
H1288 H 0.72232 0.48647 0.35427 0.0
H1289 H 0.77135 0.535 0.10306 0.0
H1290 H 0.75224 0.48547 0.1822 0.0
H1291 H 0.74134 0.53602 0.27417 0.0
C1292 C 0.72712 0.52528 0.34722 0.0
C1293 C 0.72148 0.51138 0.3699 0.0
C1294 C 0.7564 0.49634 0.16458 0.0
C1295 C 0.74163 0.51101 0.25934 0.0
C1296 C 0.76644 0.49621 0.10895 0.0
C1297 C 0.7721 0.51011 0.08644 0.0
C1298 C 0.75203 0.51047 0.19789 0.0
C1299 C 0.76726 0.52401 0.11889 0.0
C1300 C 0.7372 0.52514 0.29205 0.0
C1301 C 0.72639 0.49747 0.33826 0.0
N1302 N 0.75752 0.52383 0.17335 0.0
N1303 N 0.73616 0.49765 0.28416 0.0
H1304 H 0.47343 0.98493 0.61625 0.0
H1305 H 0.51972 0.03616 0.33296 0.0
H1306 H 0.47225 0.03475 0.60313 0.0
H1307 H 0.52071 0.98632 0.34444 0.0
H1308 H 0.50215 0.03588 0.43066 0.0
H1309 H 0.49105 0.98524 0.51915 0.0
C1310 C 0.47694 0.99594 0.59372 0.0
C1311 C 0.47135 1.00983 0.61748 0.0
C1312 C 0.50618 0.025 0.41145 0.0
C1313 C 0.49139 1.01026 0.50558 0.0
C1314 C 0.51617 0.02515 0.35527 0.0
C1315 C 0.52169 0.01124 0.33081 0.0
C1316 C 0.50171 0.01085 0.44339 0.0
C1317 C 0.51674 0.99732 0.36178 0.0
C1318 C 0.48696 0.99611 0.53787 0.0
C1319 C 0.47627 0.02376 0.58628 0.0
N1320 N 0.50705 0.99748 0.41686 0.0
N1321 N 0.48599 0.02362 0.53151 0.0
H1322 H 0.47239 0.23427 0.59787 0.0
H1323 H 0.5206 0.28644 0.85283 0.0
H1324 H 0.47339 0.28408 0.58152 0.0
H1325 H 0.51989 0.2366 0.867 0.0
H1326 H 0.50304 0.2858 0.75561 0.0
H1327 H 0.48997 0.23486 0.69506 0.0
C1328 C 0.47637 0.24533 0.61395 0.0
C1329 C 0.47141 0.25916 0.58185 0.0
C1330 C 0.5067 0.27501 0.78031 0.0
C1331 C 0.49141 0.25991 0.69383 0.0
C1332 C 0.51668 0.27536 0.83624 0.0
C1333 C 0.52173 0.26154 0.86777 0.0
C1334 C 0.50174 0.26073 0.75571 0.0
C1335 C 0.5163 0.24754 0.84408 0.0
C1336 C 0.48637 0.24565 0.66984 0.0
C1337 C 0.47692 0.27314 0.6049 0.0
N1338 N 0.50661 0.24749 0.78904 0.0
N1339 N 0.48661 0.27316 0.65992 0.0
H1340 H 0.47275 0.73457 0.09389 0.0
H1341 H 0.52061 0.78647 0.35452 0.0
H1342 H 0.47336 0.78443 0.08309 0.0
H1343 H 0.52 0.73661 0.36523 0.0
H1344 H 0.50312 0.78596 0.25657 0.0
H1345 H 0.49031 0.73508 0.19116 0.0
C1346 C 0.47664 0.74562 0.11122 0.0
C1347 C 0.47157 0.75949 0.08066 0.0
C1348 C 0.50678 0.77513 0.28067 0.0
C1349 C 0.49156 0.76015 0.19277 0.0
C1350 C 0.51673 0.77541 0.33701 0.0
C1351 C 0.52178 0.76155 0.36782 0.0
C1352 C 0.50187 0.76089 0.25494 0.0
C1353 C 0.5164 0.74757 0.34294 0.0
C1354 C 0.48663 0.7459 0.16716 0.0
C1355 C 0.47698 0.77347 0.10524 0.0
N1356 N 0.50675 0.7476 0.28753 0.0
N1357 N 0.48666 0.77344 0.16032 0.0
H1358 H 0.51971 0.53616 0.83392 0.0
H1359 H 0.47307 0.4851 0.11481 0.0
H1360 H 0.52066 0.48632 0.84664 0.0
H1361 H 0.47191 0.53492 0.10083 0.0
H1362 H 0.49076 0.48536 0.01856 0.0
H1363 H 0.502 0.53595 0.93006 0.0
C1364 C 0.51613 0.52517 0.85618 0.0
C1365 C 0.52168 0.51124 0.83255 0.0
C1366 C 0.48666 0.49624 0.03688 0.0
C1367 C 0.50154 0.51092 0.94329 0.0
C1368 C 0.4766 0.4961 0.09223 0.0
C1369 C 0.471 0.51001 0.11558 0.0
C1370 C 0.49113 0.51038 0.00466 0.0
C1371 C 0.47594 0.52393 0.08432 0.0
C1372 C 0.50606 0.52506 0.91145 0.0
C1373 C 0.51668 0.49734 0.86338 0.0
N1374 N 0.48571 0.52375 0.03007 0.0
N1375 N 0.50691 0.49754 0.91756 0.0
H1376 H 0.40129 0.28408 0.36201 0.0
H1377 H 0.34207 0.2344 0.33009 0.0
H1378 H 0.40025 0.23426 0.37694 0.0
H1379 H 0.34284 0.28427 0.32307 0.0
H1380 H 0.36341 0.23418 0.34859 0.0
H1381 H 0.37992 0.28439 0.34336 0.0
C1382 C 0.39658 0.2732 0.36033 0.0
C1383 C 0.40254 0.25912 0.37134 0.0
C1384 C 0.35891 0.24518 0.34348 0.0
C1385 C 0.3781 0.25942 0.35133 0.0
C1386 C 0.34671 0.24532 0.33341 0.0
C1387 C 0.34068 0.25938 0.32474 0.0
C1388 C 0.36512 0.2592 0.3446 0.0
C1389 C 0.34715 0.27317 0.32952 0.0
C1390 C 0.38438 0.27339 0.35028 0.0
C1391 C 0.396 0.24538 0.36881 0.0
N1392 N 0.35905 0.27272 0.33861 0.0
N1393 N 0.38412 0.24588 0.3595 0.0
H1394 H 0.84209 0.98566 0.36334 0.0
H1395 H 0.9008 0.03648 0.33557 0.0
H1396 H 0.84253 0.03553 0.37287 0.0
H1397 H 0.90062 0.98659 0.32912 0.0
H1398 H 0.87942 0.03628 0.35179 0.0
H1399 H 0.86351 0.98573 0.3472 0.0
C1400 C 0.84667 0.99663 0.36091 0.0
C1401 C 0.84053 1.01062 0.36978 0.0
C1402 C 0.88406 0.02537 0.34733 0.0
C1403 C 0.86501 1.01075 0.35276 0.0
C1404 C 0.89627 0.02547 0.33863 0.0
C1405 C 0.90248 0.01153 0.33066 0.0
C1406 C 0.87801 0.01123 0.34782 0.0
C1407 C 0.89617 0.99761 0.33502 0.0
C1408 C 0.85891 0.99665 0.35234 0.0
C1409 C 0.84692 0.02448 0.36641 0.0
N1410 N 0.88425 0.99782 0.34277 0.0
N1411 N 0.85883 0.02419 0.35865 0.0
H1412 H 0.40065 0.98523 0.82982 0.0
H1413 H 0.34235 0.03662 0.87055 0.0
H1414 H 0.40056 0.03512 0.82619 0.0
H1415 H 0.34216 0.98674 0.86295 0.0
H1416 H 0.36371 0.03627 0.85298 0.0
H1417 H 0.37924 0.98551 0.84667 0.0
C1418 C 0.39615 0.99624 0.83366 0.0
C1419 C 0.40238 1.01018 0.82629 0.0
C1420 C 0.359 0.0254 0.85463 0.0
C1421 C 0.37792 1.01057 0.84417 0.0
C1422 C 0.34679 0.02559 0.86413 0.0
C1423 C 0.34048 0.01168 0.86862 0.0
C1424 C 0.36493 0.01119 0.8499 0.0
C1425 C 0.34668 0.99774 0.85997 0.0
C1426 C 0.38392 0.99639 0.84261 0.0
C1427 C 0.3961 0.0241 0.83142 0.0
N1428 N 0.3586 0.99785 0.8516 0.0
N1429 N 0.3842 0.02394 0.83962 0.0
H1430 H 0.84201 0.28473 0.83259 0.0
H1431 H 0.90106 0.23467 0.86378 0.0
H1432 H 0.84281 0.23491 0.81654 0.0
H1433 H 0.90044 0.28455 0.86803 0.0
H1434 H 0.8797 0.23454 0.84577 0.0
H1435 H 0.86339 0.28486 0.85067 0.0
C1436 C 0.84667 0.2738 0.8339 0.0
C1437 C 0.84064 0.25978 0.82274 0.0
C1438 C 0.88424 0.24551 0.85013 0.0
C1439 C 0.86509 0.25987 0.8421 0.0
C1440 C 0.89645 0.2456 0.85991 0.0
C1441 C 0.90253 0.25965 0.8677 0.0
C1442 C 0.87808 0.25957 0.84845 0.0
C1443 C 0.8961 0.27346 0.8623 0.0
C1444 C 0.85888 0.2739 0.84361 0.0
C1445 C 0.84712 0.24599 0.82482 0.0
N1446 N 0.88419 0.27307 0.85353 0.0
N1447 N 0.85901 0.24639 0.83382 0.0
H1448 H 0.59196 0.78743 0.58722 0.0
H1449 H 0.65094 0.73726 0.61951 0.0
H1450 H 0.5925 0.73755 0.58066 0.0
H1451 H 0.65015 0.78709 0.63334 0.0
H1452 H 0.62956 0.73712 0.60138 0.0
H1453 H 0.6133 0.78748 0.60604 0.0
C1454 C 0.59655 0.77648 0.59076 0.0
C1455 C 0.59046 0.76246 0.58205 0.0
C1456 C 0.63407 0.74809 0.60796 0.0
C1457 C 0.61489 0.76245 0.60224 0.0
C1458 C 0.64629 0.74818 0.61769 0.0
C1459 C 0.65232 0.76221 0.62823 0.0
C1460 C 0.62787 0.76212 0.60883 0.0
C1461 C 0.64585 0.77601 0.62557 0.0
C1462 C 0.60875 0.77652 0.601 0.0
C1463 C 0.59685 0.74863 0.58709 0.0
N1464 N 0.63396 0.7756 0.61656 0.0
N1465 N 0.60875 0.74897 0.59632 0.0
H1466 H 0.09234 0.98546 0.61768 0.0
H1467 H 0.15126 0.03583 0.58971 0.0
H1468 H 0.09275 0.03533 0.62624 0.0
H1469 H 0.15057 0.98599 0.57698 0.0
H1470 H 0.12986 0.03592 0.60681 0.0
H1471 H 0.1137 0.98551 0.60049 0.0
C1472 C 0.09691 0.99643 0.61493 0.0
C1473 C 0.09077 1.01042 0.62373 0.0
C1474 C 0.1344 0.02496 0.60074 0.0
C1475 C 0.11523 1.01054 0.60541 0.0
C1476 C 0.14663 0.0249 0.5916 0.0
C1477 C 0.15269 0.01088 0.5816 0.0
C1478 C 0.12823 0.01091 0.59976 0.0
C1479 C 0.14624 0.99706 0.58433 0.0
C1480 C 0.10912 0.99645 0.60563 0.0
C1481 C 0.09715 0.02428 0.61969 0.0
N1482 N 0.13434 0.99744 0.59269 0.0
N1483 N 0.10906 0.02399 0.61136 0.0
H1484 H 0.65095 0.03597 0.08802 0.0
H1485 H 0.59212 0.98539 0.11473 0.0
H1486 H 0.6504 0.98612 0.07623 0.0
H1487 H 0.59243 0.03528 0.11973 0.0
H1488 H 0.61351 0.98548 0.099 0.0
H1489 H 0.62954 0.03597 0.10428 0.0
C1490 C 0.64634 0.02502 0.09001 0.0
C1491 C 0.65245 0.01102 0.08041 0.0
C1492 C 0.6089 0.99641 0.10302 0.0
C1493 C 0.62797 0.01095 0.09755 0.0
C1494 C 0.59667 0.99637 0.11144 0.0
C1495 C 0.5905 1.01035 0.11886 0.0
C1496 C 0.61498 1.01053 0.1023 0.0
C1497 C 0.59685 0.02423 0.11426 0.0
C1498 C 0.63411 0.02503 0.09863 0.0
C1499 C 0.64604 0.99718 0.08323 0.0
N1500 N 0.60877 0.02397 0.10681 0.0
N1501 N 0.63413 0.9975 0.09105 0.0
H1502 H 0.09229 0.73709 0.08704 0.0
H1503 H 0.15102 0.78772 0.12343 0.0
H1504 H 0.09279 0.78697 0.07899 0.0
H1505 H 0.15075 0.73782 0.12237 0.0
H1506 H 0.12965 0.78764 0.10627 0.0
H1507 H 0.11368 0.73712 0.10495 0.0
C1508 C 0.09688 0.74805 0.09012 0.0
C1509 C 0.09076 0.76205 0.08118 0.0
C1510 C 0.13427 0.77671 0.10931 0.0
C1511 C 0.11522 0.76215 0.1003 0.0
C1512 C 0.14648 0.77674 0.11857 0.0
C1513 C 0.15266 0.76275 0.12461 0.0
C1514 C 0.1282 0.76259 0.10634 0.0
C1515 C 0.14633 0.74888 0.11802 0.0
C1516 C 0.1091 0.74805 0.09972 0.0
C1517 C 0.09715 0.7759 0.08545 0.0
N1518 N 0.13442 0.74915 0.10974 0.0
N1519 N 0.10905 0.77559 0.09425 0.0
H1520 H 0.3422 0.78409 0.84233 0.0
H1521 H 0.40108 0.73361 0.86713 0.0
H1522 H 0.34281 0.7343 0.82334 0.0
H1523 H 0.40067 0.78349 0.8732 0.0
H1524 H 0.3797 0.73364 0.85086 0.0
H1525 H 0.36359 0.78406 0.85947 0.0
C1526 C 0.34682 0.77314 0.84286 0.0
C1527 C 0.34073 0.75918 0.83104 0.0
C1528 C 0.38429 0.74458 0.85523 0.0
C1529 C 0.36519 0.75908 0.84926 0.0
C1530 C 0.39651 0.74458 0.864 0.0
C1531 C 0.40265 0.75857 0.87181 0.0
C1532 C 0.37818 0.75868 0.85459 0.0
C1533 C 0.39628 0.77243 0.8674 0.0
C1534 C 0.35904 0.77314 0.85201 0.0
C1535 C 0.34715 0.74534 0.83211 0.0
N1536 N 0.38436 0.77213 0.85962 0.0
N1537 N 0.35906 0.74565 0.84054 0.0
H1538 H 0.90092 0.53649 0.82995 0.0
H1539 H 0.84237 0.4855 0.8664 0.0
H1540 H 0.90085 0.48659 0.82805 0.0
H1541 H 0.8427 0.53539 0.87163 0.0
H1542 H 0.86376 0.48562 0.84818 0.0
H1543 H 0.87955 0.53624 0.84702 0.0
C1544 C 0.89642 0.52547 0.83414 0.0
C1545 C 0.90266 0.51153 0.82729 0.0
C1546 C 0.85914 0.49653 0.85282 0.0
C1547 C 0.8782 0.51118 0.84548 0.0
C1548 C 0.84692 0.49648 0.8626 0.0
C1549 C 0.84076 0.51046 0.8709 0.0
C1550 C 0.86521 0.51066 0.85146 0.0
C1551 C 0.8471 0.52434 0.8657 0.0
C1552 C 0.88421 0.52534 0.84334 0.0
C1553 C 0.89638 0.49761 0.83307 0.0
N1554 N 0.859 0.52408 0.8568 0.0
N1555 N 0.88446 0.49778 0.84133 0.0
H1556 H 0.34189 0.53608 0.3665 0.0
H1557 H 0.4006 0.48535 0.33354 0.0
H1558 H 0.34211 0.48619 0.37223 0.0
H1559 H 0.40008 0.53521 0.3231 0.0
H1560 H 0.37921 0.48538 0.35156 0.0
H1561 H 0.36325 0.53591 0.34856 0.0
C1562 C 0.34642 0.52508 0.36298 0.0
C1563 C 0.34023 0.51113 0.37119 0.0
C1564 C 0.38379 0.49631 0.34578 0.0
C1565 C 0.36468 0.51086 0.35198 0.0
C1566 C 0.39601 0.49631 0.33612 0.0
C1567 C 0.40212 0.5103 0.3265 0.0
C1568 C 0.37766 0.5104 0.34572 0.0
C1569 C 0.39572 0.52415 0.3301 0.0
C1570 C 0.35862 0.52499 0.35325 0.0
C1571 C 0.34654 0.49722 0.36617 0.0
N1572 N 0.38382 0.52384 0.33898 0.0
N1573 N 0.35845 0.49744 0.35741 0.0
H1574 H 0.84229 0.78397 0.33595 0.0
H1575 H 0.90144 0.73418 0.3686 0.0
H1576 H 0.84318 0.73412 0.32431 0.0
H1577 H 0.90071 0.78406 0.37257 0.0
H1578 H 0.88007 0.73396 0.35115 0.0
H1579 H 0.86366 0.78422 0.35411 0.0
C1580 C 0.84696 0.77307 0.33826 0.0
C1581 C 0.84096 0.759 0.3282 0.0
C1582 C 0.88459 0.74496 0.35535 0.0
C1583 C 0.86541 0.75923 0.34763 0.0
C1584 C 0.8968 0.7451 0.36479 0.0
C1585 C 0.90285 0.75917 0.37234 0.0
C1586 C 0.87839 0.75898 0.35372 0.0
C1587 C 0.89639 0.77295 0.367 0.0
C1588 C 0.85917 0.77323 0.34802 0.0
C1589 C 0.84746 0.74523 0.33162 0.0
N1590 N 0.88448 0.77251 0.35853 0.0
N1591 N 0.85936 0.7457 0.34057 0.0
H1592 H 0.65081 0.28846 0.11895 0.0
H1593 H 0.59227 0.23746 0.08284 0.0
H1594 H 0.65074 0.23858 0.11044 0.0
H1595 H 0.5925 0.28734 0.07548 0.0
H1596 H 0.61368 0.23766 0.09886 0.0
H1597 H 0.62941 0.28829 0.10282 0.0
C1598 C 0.64631 0.27748 0.11261 0.0
C1599 C 0.65255 0.26351 0.11642 0.0
C1600 C 0.60903 0.24856 0.09417 0.0
C1601 C 0.62807 0.26324 0.09939 0.0
C1602 C 0.5968 0.24846 0.0857 0.0
C1603 C 0.59061 0.26241 0.07749 0.0
C1604 C 0.61508 0.2627 0.09442 0.0
C1605 C 0.59693 0.27631 0.08141 0.0
C1606 C 0.63408 0.27739 0.10395 0.0
C1607 C 0.64627 0.24962 0.10797 0.0
N1608 N 0.60885 0.2761 0.08916 0.0
N1609 N 0.63435 0.24984 0.10042 0.0
H1610 H 0.09224 0.48557 0.11159 0.0
H1611 H 0.15093 0.53648 0.0867 0.0
H1612 H 0.09231 0.53546 0.11798 0.0
H1613 H 0.15051 0.48659 0.08313 0.0
H1614 H 0.12947 0.53644 0.10066 0.0
H1615 H 0.11363 0.48585 0.09721 0.0
C1616 C 0.09674 0.4966 0.10886 0.0
C1617 C 0.0905 0.51052 0.11636 0.0
C1618 C 0.13409 0.52551 0.09734 0.0
C1619 C 0.11499 0.5109 0.10136 0.0
C1620 C 0.14634 0.52552 0.09005 0.0
C1621 C 0.1525 0.51151 0.08342 0.0
C1622 C 0.12799 0.5114 0.09785 0.0
C1623 C 0.14612 0.49766 0.08782 0.0
C1624 C 0.10897 0.49674 0.10125 0.0
C1625 C 0.09679 0.52446 0.11244 0.0
N1626 N 0.1342 0.49796 0.09425 0.0
N1627 N 0.10872 0.52429 0.10577 0.0
H1628 H 0.651 0.53588 0.58627 0.0
H1629 H 0.59226 0.48523 0.62022 0.0
H1630 H 0.65048 0.48602 0.57569 0.0
H1631 H 0.59252 0.53512 0.622 0.0
H1632 H 0.61363 0.48533 0.60263 0.0
H1633 H 0.6296 0.53585 0.60397 0.0
C1634 C 0.6464 0.52492 0.58875 0.0
C1635 C 0.65251 0.51093 0.57918 0.0
C1636 C 0.60901 0.49626 0.60636 0.0
C1637 C 0.62806 0.51083 0.59805 0.0
C1638 C 0.5968 0.49621 0.61589 0.0
C1639 C 0.59062 0.51019 0.62288 0.0
C1640 C 0.61507 0.51039 0.60411 0.0
C1641 C 0.59695 0.52407 0.61689 0.0
C1642 C 0.63418 0.52492 0.59821 0.0
C1643 C 0.64612 0.49708 0.58265 0.0
N1644 N 0.60886 0.52382 0.60838 0.0
N1645 N 0.63422 0.49739 0.59136 0.0
H1646 H 0.1506 0.28756 0.61781 0.0
H1647 H 0.092 0.23665 0.58343 0.0
H1648 H 0.15044 0.23767 0.62107 0.0
H1649 H 0.09238 0.28651 0.57353 0.0
H1650 H 0.11339 0.23677 0.60125 0.0
H1651 H 0.12924 0.28736 0.59975 0.0
C1652 C 0.14609 0.27656 0.61369 0.0
C1653 C 0.15229 0.26261 0.62126 0.0
C1654 C 0.10878 0.24768 0.59562 0.0
C1655 C 0.12785 0.2623 0.60195 0.0
C1656 C 0.09656 0.24763 0.58607 0.0
C1657 C 0.09041 0.26159 0.57669 0.0
C1658 C 0.11486 0.2618 0.59571 0.0
C1659 C 0.09677 0.27547 0.58038 0.0
C1660 C 0.13388 0.27645 0.60391 0.0
C1661 C 0.146 0.2487 0.61555 0.0
N1662 N 0.10867 0.27522 0.58916 0.0
N1663 N 0.13409 0.2489 0.60676 0.0
H1664 H 0.30081 0.23188 0.52167 0.0
H1665 H 0.30971 0.28821 0.95049 0.0
H1666 H 0.29003 0.27975 0.52412 0.0
H1667 H 0.32059 0.24039 0.94761 0.0
H1668 H 0.30353 0.28576 0.78996 0.0
H1669 H 0.3067 0.23424 0.68297 0.0
C1670 C 0.29931 0.24274 0.5571 0.0
C1671 C 0.29536 0.25582 0.50927 0.0
C1672 C 0.30741 0.27585 0.82414 0.0
C1673 C 0.30242 0.25872 0.69119 0.0
C1674 C 0.31117 0.27734 0.91509 0.0
C1675 C 0.31526 0.26431 0.96265 0.0
C1676 C 0.30787 0.2613 0.78157 0.0
C1677 C 0.31715 0.25058 0.91355 0.0
C1678 C 0.3029 0.24417 0.64853 0.0
C1679 C 0.29339 0.26953 0.5584 0.0
N1680 N 0.31317 0.24931 0.82572 0.0
N1681 N 0.29722 0.27075 0.64667 0.0
H1682 H 0.95373 0.99141 0.52705 0.0
H1683 H 0.92193 0.03148 0.95468 0.0
H1684 H 0.94194 0.03886 0.52816 0.0
H1685 H 0.93379 0.98406 0.9537 0.0
H1686 H 0.92815 0.03394 0.79407 0.0
H1687 H 0.94779 0.98907 0.68841 0.0
C1688 C 0.95023 1.00148 0.56228 0.0
C1689 C 0.94791 0.01517 0.51402 0.0
C1690 C 0.92925 0.02294 0.82865 0.0
C1691 C 0.94079 0.01244 0.69603 0.0
C1692 C 0.9255 0.02144 0.9196 0.0
C1693 C 0.92774 1.00771 0.96776 0.0
C1694 C 0.93518 1.01058 0.78656 0.0
C1695 C 0.93215 0.99495 0.91924 0.0
C1696 C 0.94665 1.00005 0.6537 0.0
C1697 C 0.94362 0.02798 0.56271 0.0
N1698 N 0.93601 0.99681 0.8313 0.0
N1699 N 0.9399 0.02619 0.65107 0.0
H1700 H 0.30957 0.98299 0.24362 0.0
H1701 H 0.30042 0.03925 0.67295 0.0
H1702 H 0.32058 0.03076 0.24785 0.0
H1703 H 0.29006 0.99122 0.67164 0.0
H1704 H 0.3064 0.03685 0.51177 0.0
H1705 H 0.30334 0.98535 0.40427 0.0
C1706 C 0.31106 0.99382 0.27936 0.0
C1707 C 0.31522 1.00686 0.23218 0.0
C1708 C 0.30267 0.02689 0.54646 0.0
C1709 C 0.30776 1.00978 0.41343 0.0
C1710 C 0.29903 0.02833 0.63785 0.0
C1711 C 0.29515 0.01525 0.68603 0.0
C1712 C 0.30231 0.01231 0.50405 0.0
C1713 C 0.29335 1.00147 0.63719 0.0
C1714 C 0.30727 0.99526 0.37039 0.0
C1715 C 0.3171 0.02055 0.28165 0.0
N1716 N 0.29722 1.00024 0.54893 0.0
N1717 N 0.3131 0.02178 0.36953 0.0
H1718 H 0.93338 0.28853 0.24238 0.0
H1719 H 0.94247 0.23226 0.67122 0.0
H1720 H 0.92266 0.24064 0.24518 0.0
H1721 H 0.95314 0.28017 0.66862 0.0
H1722 H 0.93656 0.23458 0.50994 0.0
H1723 H 0.93959 0.2861 0.40285 0.0
C1724 C 0.93196 0.27764 0.27774 0.0
C1725 C 0.9279 0.26459 0.23016 0.0
C1726 C 0.94034 0.24453 0.54434 0.0
C1727 C 0.93533 0.26162 0.41122 0.0
C1728 C 0.94394 0.24313 0.63576 0.0
C1729 C 0.94787 0.25622 0.68355 0.0
C1730 C 0.94079 0.25907 0.50163 0.0
C1731 C 0.9498 0.26993 0.63437 0.0
C1732 C 0.93574 0.27617 0.36867 0.0
C1733 C 0.92607 0.25085 0.27924 0.0
N1734 N 0.94596 0.27113 0.54612 0.0
N1735 N 0.93007 0.2496 0.36705 0.0
H1736 H 0.68341 0.73412 0.00198 0.0
H1737 H 0.69219 0.79039 0.4312 0.0
H1738 H 0.67233 0.78187 0.00567 0.0
H1739 H 0.70303 0.74254 0.42864 0.0
H1740 H 0.68632 0.78803 0.26989 0.0
H1741 H 0.68962 0.73655 0.16246 0.0
C1742 C 0.68191 0.74497 0.03755 0.0
C1743 C 0.67776 0.75799 -0.00977 0.0
C1744 C 0.69013 0.7781 0.30432 0.0
C1745 C 0.68518 0.76098 0.17124 0.0
C1746 C 0.69371 0.77953 0.39576 0.0
C1747 C 0.69766 0.76645 0.44358 0.0
C1748 C 0.69063 0.76356 0.26162 0.0
C1749 C 0.69966 0.75276 0.3944 0.0
C1750 C 0.68569 0.74644 0.12847 0.0
C1751 C 0.67582 0.77168 0.03954 0.0
N1752 N 0.69584 0.75154 0.30611 0.0
N1753 N 0.67982 0.77295 0.12733 0.0
H1754 H 0.07142 0.99082 -0.00086 0.0
H1755 H 0.03942 0.0305 0.42704 0.0
H1756 H 0.05926 0.03811 0.00034 0.0
H1757 H 0.05149 0.98318 0.42567 0.0
H1758 H 0.04533 0.03293 0.26568 0.0
H1759 H 0.06524 0.98827 0.1598 0.0
C1760 C 0.06779 1.00081 0.0343 0.0
C1761 C 0.06546 0.01452 -0.01379 0.0
C1762 C 0.04654 0.02195 0.30032 0.0
C1763 C 0.05806 0.01156 0.16742 0.0
C1764 C 0.04297 0.02047 0.39173 0.0
C1765 C 0.04538 1.0068 0.43991 0.0
C1766 C 0.05247 1.00962 0.25793 0.0
C1767 C 0.04974 0.99404 0.39116 0.0
C1768 C 0.06406 0.99926 0.12526 0.0
C1769 C 0.06098 0.02723 0.03478 0.0
N1770 N 0.05344 0.99587 0.3028 0.0
N1771 N 0.05714 0.02533 0.12273 0.0
H1772 H 0.67178 0.99117 0.70283 0.0
H1773 H 0.7035 0.03147 0.27556 0.0
H1774 H 0.68365 0.03858 0.70314 0.0
H1775 H 0.69204 0.98388 0.27713 0.0
H1776 H 0.69748 0.03381 0.43674 0.0
H1777 H 0.678 0.9888 0.54213 0.0
C1778 C 0.67536 1.00122 0.66799 0.0
C1779 C 0.67758 0.01493 0.71651 0.0
C1780 C 0.69643 0.0228 0.40216 0.0
C1781 C 0.68503 0.01217 0.53521 0.0
C1782 C 0.70005 0.02137 0.31082 0.0
C1783 C 0.69785 1.00762 0.26268 0.0
C1784 C 0.69065 1.01036 0.44461 0.0
C1785 C 0.69363 0.9948 0.31151 0.0
C1786 C 0.67911 0.99979 0.577 0.0
C1787 C 0.682 0.02771 0.66835 0.0
N1788 N 0.68987 0.99658 0.39979 0.0
N1789 N 0.68587 0.02592 0.58035 0.0
H1790 H 0.03946 0.74208 0.27772 0.0
H1791 H 0.07143 0.78195 0.70473 0.0
H1792 H 0.05139 0.78947 0.27876 0.0
H1793 H 0.05932 0.73464 0.70431 0.0
H1794 H 0.0652 0.78445 0.54425 0.0
H1795 H 0.04538 0.73971 0.43902 0.0
C1796 C 0.04299 0.75213 0.31293 0.0
C1797 C 0.04536 0.76582 0.26465 0.0
C1798 C 0.06405 0.77346 0.57891 0.0
C1799 C 0.05245 0.76305 0.44658 0.0
C1800 C 0.0678 0.77195 0.66978 0.0
C1801 C 0.0655 0.75824 0.71805 0.0
C1802 C 0.05805 0.76115 0.53703 0.0
C1803 C 0.06102 0.74552 0.66973 0.0
C1804 C 0.04656 0.75069 0.40431 0.0
C1805 C 0.04967 0.7786 0.31332 0.0
N1806 N 0.05716 0.74739 0.58187 0.0
N1807 N 0.05338 0.77679 0.40163 0.0
H1808 H 0.30068 0.73175 0.02669 0.0
H1809 H 0.3098 0.78791 0.4563 0.0
H1810 H 0.29021 0.77973 0.02886 0.0
H1811 H 0.32079 0.74013 0.45168 0.0
H1812 H 0.30353 0.78555 0.29588 0.0
H1813 H 0.30661 0.73408 0.18793 0.0
C1814 C 0.29926 0.74264 0.062 0.0
C1815 C 0.29537 0.75574 0.01405 0.0
C1816 C 0.30746 0.77564 0.32963 0.0
C1817 C 0.30247 0.7586 0.19606 0.0
C1818 C 0.31127 0.77707 0.42052 0.0
C1819 C 0.31544 0.76403 0.46756 0.0
C1820 C 0.30793 0.76112 0.28656 0.0
C1821 C 0.31731 0.75034 0.41801 0.0
C1822 C 0.30287 0.74405 0.15342 0.0
C1823 C 0.29351 0.76948 0.06315 0.0
N1824 N 0.31328 0.74912 0.33026 0.0
N1825 N 0.29736 0.77068 0.15143 0.0
H1826 H 0.93379 0.48314 0.45337 0.0
H1827 H 0.94247 0.53953 0.02457 0.0
H1828 H 0.9227 0.53089 0.45065 0.0
H1829 H 0.95342 0.49173 0.02664 0.0
H1830 H 0.93661 0.53714 0.18599 0.0
H1831 H 0.93998 0.48564 0.2928 0.0
C1832 C 0.93229 0.49401 0.418 0.0
C1833 C 0.92814 0.50701 0.46561 0.0
C1834 C 0.94044 0.52723 0.15143 0.0
C1835 C 0.93554 0.51007 0.28448 0.0
C1836 C 0.94401 0.52868 0.05992 0.0
C1837 C 0.948 0.51562 0.01197 0.0
C1838 C 0.94098 0.51268 0.19403 0.0
C1839 C 0.95003 0.50193 0.06102 0.0
C1840 C 0.93605 0.49552 0.32702 0.0
C1841 C 0.92619 0.52072 0.41655 0.0
N1842 N 0.94621 0.50068 0.14937 0.0
N1843 N 0.93018 0.52202 0.32869 0.0
H1844 H 0.30931 0.48282 0.74608 0.0
H1845 H 0.30025 0.53913 0.17493 0.0
H1846 H 0.32008 0.53069 0.74887 0.0
H1847 H 0.28961 0.49121 0.17278 0.0
H1848 H 0.30612 0.53679 0.01351 0.0
H1849 H 0.30308 0.48526 0.90661 0.0
C1850 C 0.31073 0.4937 0.78145 0.0
C1851 C 0.3148 0.50675 0.73385 0.0
C1852 C 0.30235 0.52684 0.04805 0.0
C1853 C 0.30737 0.50974 0.91495 0.0
C1854 C 0.29878 0.52826 0.13957 0.0
C1855 C 0.29488 0.51516 0.18753 0.0
C1856 C 0.30191 0.51229 0.00542 0.0
C1857 C 0.29293 0.50144 0.13843 0.0
C1858 C 0.30695 0.49518 0.8724 0.0
C1859 C 0.31665 0.52049 0.78294 0.0
N1860 N 0.29675 0.50024 0.05007 0.0
N1861 N 0.31265 0.52175 0.87077 0.0
H1862 H 0.93368 0.78815 0.74673 0.0
H1863 H 0.94291 0.7319 0.17542 0.0
H1864 H 0.92302 0.74024 0.74973 0.0
H1865 H 0.95338 0.77988 0.1733 0.0
H1866 H 0.93701 0.73421 0.01413 0.0
H1867 H 0.93991 0.78575 0.90719 0.0
C1868 C 0.93228 0.77727 0.78215 0.0
C1869 C 0.92823 0.76421 0.73463 0.0
C1870 C 0.94075 0.74418 0.04865 0.0
C1871 C 0.93568 0.76126 0.91565 0.0
C1872 C 0.94434 0.74278 0.14009 0.0
C1873 C 0.94821 0.7559 0.18802 0.0
C1874 C 0.94114 0.75874 0.00605 0.0
C1875 C 0.95009 0.76963 0.13896 0.0
C1876 C 0.93606 0.77582 0.87306 0.0
C1877 C 0.92642 0.75046 0.78375 0.0
N1878 N 0.94625 0.77082 0.05068 0.0
N1879 N 0.93043 0.74923 0.87154 0.0
H1880 H 0.67137 0.28177 0.49199 0.0
H1881 H 0.70415 0.24304 0.91915 0.0
H1882 H 0.68462 0.235 0.49133 0.0
H1883 H 0.69143 0.29007 0.91751 0.0
H1884 H 0.69817 0.24037 0.75815 0.0
H1885 H 0.67751 0.28443 0.6527 0.0
C1886 C 0.67523 0.2719 0.52683 0.0
C1887 C 0.67782 0.25831 0.47829 0.0
C1888 C 0.69684 0.25134 0.79262 0.0
C1889 C 0.68519 0.26142 0.65953 0.0
C1890 C 0.70044 0.25296 0.88384 0.0
C1891 C 0.69791 0.26663 0.93189 0.0
C1892 C 0.69074 0.26351 0.75015 0.0
C1893 C 0.69332 0.27923 0.88311 0.0
C1894 C 0.67893 0.27351 0.6178 0.0
C1895 C 0.68263 0.24576 0.52628 0.0
N1896 N 0.6896 0.27725 0.79492 0.0
N1897 N 0.68644 0.24774 0.61426 0.0
H1898 H 0.03932 0.53063 0.91952 0.0
H1899 H 0.07097 0.49035 0.49191 0.0
H1900 H 0.05092 0.4831 0.91837 0.0
H1901 H 0.05929 0.53785 0.49289 0.0
H1902 H 0.06474 0.48792 0.6525 0.0
H1903 H 0.04527 0.53293 0.75818 0.0
C1904 C 0.04278 0.52054 0.88429 0.0
C1905 C 0.04505 0.50682 0.93255 0.0
C1906 C 0.06367 0.49893 0.61792 0.0
C1907 C 0.05218 0.50951 0.75054 0.0
C1908 C 0.06743 0.50041 0.52697 0.0
C1909 C 0.06525 0.51416 0.47882 0.0
C1910 C 0.0578 0.51134 0.66001 0.0
C1911 C 0.06089 0.52694 0.52734 0.0
C1912 C 0.04637 0.52194 0.79288 0.0
C1913 C 0.04928 0.49399 0.88384 0.0
N1914 N 0.05702 0.52511 0.61527 0.0
N1915 N 0.05301 0.49575 0.79548 0.0
H1916 H 0.68369 0.53929 0.20511 0.0
H1917 H 0.69229 0.48294 0.77586 0.0
H1918 H 0.67248 0.49159 0.20178 0.0
H1919 H 0.70329 0.53071 0.77816 0.0
H1920 H 0.68642 0.48534 0.93726 0.0
H1921 H 0.68989 0.5368 0.04453 0.0
C1922 C 0.68216 0.52844 0.1696 0.0
C1923 C 0.67797 0.51545 0.21703 0.0
C1924 C 0.69027 0.49524 0.90276 0.0
C1925 C 0.68538 0.5124 0.0359 0.0
C1926 C 0.69384 0.49378 0.81125 0.0
C1927 C 0.69785 0.50683 0.76335 0.0
C1928 C 0.69082 0.50978 0.94543 0.0
C1929 C 0.69989 0.52052 0.81248 0.0
C1930 C 0.68594 0.52693 0.07862 0.0
C1931 C 0.676 0.50176 0.1678 0.0
N1932 N 0.69607 0.52177 0.90083 0.0
N1933 N 0.67999 0.50046 0.07995 0.0
H1934 H 0.0389 0.24167 0.77402 0.0
H1935 H 0.07118 0.28113 0.201 0.0
H1936 H 0.05128 0.28886 0.77461 0.0
H1937 H 0.05875 0.23396 0.20036 0.0
H1938 H 0.06497 0.28372 0.0405 0.0
H1939 H 0.0448 0.23924 0.93535 0.0
C1940 C 0.04252 0.25167 0.80917 0.0
C1941 C 0.04501 0.26531 0.76079 0.0
C1942 C 0.06374 0.27274 0.07512 0.0
C1943 C 0.05208 0.26247 0.94272 0.0
C1944 C 0.06748 0.27117 0.16599 0.0
C1945 C 0.06509 0.25748 0.2142 0.0
C1946 C 0.05767 0.2605 0.03317 0.0
C1947 C 0.06053 0.24482 0.16582 0.0
C1948 C 0.04607 0.25019 0.90055 0.0
C1949 C 0.04945 0.27803 0.80931 0.0
N1950 N 0.05668 0.24674 0.07797 0.0
N1951 N 0.05314 0.27619 0.89764 0.0
H1952 H 0.8008 0.23177 0.01912 0.0
H1953 H 0.8096 0.28801 0.44848 0.0
H1954 H 0.78989 0.27958 0.02215 0.0
H1955 H 0.82061 0.24024 0.44504 0.0
H1956 H 0.80338 0.28556 0.28805 0.0
H1957 H 0.80669 0.2341 0.18045 0.0
C1958 C 0.79927 0.24261 0.05468 0.0
C1959 C 0.79528 0.25568 0.007 0.0
C1960 C 0.8073 0.27567 0.32208 0.0
C1961 C 0.80234 0.25855 0.18897 0.0
C1962 C 0.81108 0.27716 0.41298 0.0
C1963 C 0.81522 0.26413 0.46038 0.0
C1964 C 0.80779 0.26113 0.27937 0.0
C1965 C 0.81713 0.25042 0.41113 0.0
C1966 C 0.80285 0.24402 0.14613 0.0
C1967 C 0.79328 0.26936 0.05631 0.0
N1968 N 0.81313 0.24915 0.32335 0.0
N1969 N 0.79711 0.27057 0.14459 0.0
H1970 H 0.43357 0.98182 0.45268 0.0
H1971 H 0.44219 0.03819 0.02375 0.0
H1972 H 0.42243 0.02954 0.44981 0.0
H1973 H 0.45319 0.99041 0.02591 0.0
H1974 H 0.43635 0.0358 0.18521 0.0
H1975 H 0.43977 0.98432 0.29213 0.0
C1976 C 0.43206 0.99268 0.41728 0.0
C1977 C 0.42789 1.00567 0.46484 0.0
C1978 C 0.44019 0.0259 0.15066 0.0
C1979 C 0.4353 1.00874 0.28374 0.0
C1980 C 0.44375 0.02735 0.05913 0.0
C1981 C 0.44774 0.01429 0.01119 0.0
C1982 C 0.44074 0.01135 0.1933 0.0
C1983 C 0.44979 1.00061 0.06028 0.0
C1984 C 0.43583 0.99419 0.32632 0.0
C1985 C 0.42593 0.01938 0.41574 0.0
N1986 N 0.44598 0.99936 0.14865 0.0
N1987 N 0.42993 0.02068 0.3279 0.0
H1988 H 0.821 0.03066 0.74564 0.0
H1989 H 0.78939 0.99029 0.17295 0.0
H1990 H 0.80934 0.98315 0.74621 0.0
H1991 H 0.80092 0.03784 0.17203 0.0
H1992 H 0.79534 0.988 0.01162 0.0
H1993 H 0.81477 0.03305 0.90629 0.0
C1994 C 0.81747 0.02059 0.78064 0.0
C1995 C 0.81529 1.00685 0.73237 0.0
C1996 C 0.79643 0.999 0.04637 0.0
C1997 C 0.80784 1.00963 0.91358 0.0
C1998 C 0.79283 1.00039 0.13777 0.0
C1999 C 0.79508 0.0141 0.18609 0.0
C2000 C 0.80222 0.01144 0.0041 0.0
C2001 C 0.7993 0.02695 0.13744 0.0
C2002 C 0.81372 0.02204 0.87161 0.0
C2003 C 0.81094 0.99405 0.78077 0.0
N2004 N 0.80303 0.0252 0.04909 0.0
N2005 N 0.80707 0.99586 0.86872 0.0
H2006 H 0.42147 0.23961 0.74743 0.0
H2007 H 0.45431 0.27828 0.17432 0.0
H2008 H 0.43466 0.28642 0.74749 0.0
H2009 H 0.44134 0.23137 0.17345 0.0
H2010 H 0.44846 0.28087 0.01297 0.0
H2011 H 0.42765 0.23689 0.90793 0.0
C2012 C 0.42533 0.24948 0.78235 0.0
C2013 C 0.42792 0.26308 0.734 0.0
C2014 C 0.44704 0.26994 0.04771 0.0
C2015 C 0.43533 0.25991 0.91499 0.0
C2016 C 0.45057 0.26837 0.13911 0.0
C2017 C 0.44791 0.25478 0.18743 0.0
C2018 C 0.44088 0.2578 0.00546 0.0
C2019 C 0.44331 0.24216 0.13882 0.0
C2020 C 0.42905 0.24783 0.8732 0.0
C2021 C 0.43271 0.27563 0.78219 0.0
N2022 N 0.43965 0.2441 0.05048 0.0
N2023 N 0.43654 0.27362 0.87004 0.0
H2024 H 0.19236 0.79031 0.9267 0.0
H2025 H 0.18393 0.73392 0.49756 0.0
H2026 H 0.20351 0.7426 0.92411 0.0
H2027 H 0.17262 0.78158 0.50081 0.0
H2028 H 0.1901 0.73644 0.65808 0.0
H2029 H 0.1865 0.78789 0.76535 0.0
C2030 C 0.19395 0.77948 0.89121 0.0
C2031 C 0.198 0.76645 0.93899 0.0
C2032 C 0.18613 0.74629 0.62399 0.0
C2033 C 0.19097 0.76347 0.75705 0.0
C2034 C 0.18237 0.74476 0.53306 0.0
C2035 C 0.17816 0.75774 0.48562 0.0
C2036 C 0.18554 0.76083 0.66666 0.0
C2037 C 0.17616 0.77143 0.53481 0.0
C2038 C 0.19038 0.77801 0.79977 0.0
C2039 C 0.20008 0.75278 0.88983 0.0
N2040 N 0.18014 0.77275 0.62262 0.0
N2041 N 0.19626 0.75151 0.80155 0.0
H2042 H 0.57096 0.99068 0.4945 0.0
H2043 H 0.53933 0.03099 0.92213 0.0
H2044 H 0.5593 0.03819 0.49547 0.0
H2045 H 0.55091 0.98345 0.92101 0.0
H2046 H 0.54528 0.03329 0.76077 0.0
H2047 H 0.56472 0.98826 0.65511 0.0
C2048 C 0.56742 1.00074 0.52958 0.0
C2049 C 0.56525 0.01449 0.48143 0.0
C2050 C 0.54637 0.02229 0.79548 0.0
C2051 C 0.55779 0.01168 0.66261 0.0
C2052 C 0.54279 0.0209 0.88689 0.0
C2053 C 0.54505 1.00718 0.93516 0.0
C2054 C 0.55218 1.00985 0.75314 0.0
C2055 C 0.54927 0.99434 0.88646 0.0
C2056 C 0.56366 0.99927 0.62053 0.0
C2057 C 0.56089 0.02728 0.52993 0.0
N2058 N 0.553 0.9961 0.7981 0.0
N2059 N 0.55702 0.02546 0.61786 0.0
H2060 H 0.20417 0.03066 0.77854 0.0
H2061 H 0.17191 0.99118 0.20584 0.0
H2062 H 0.19188 0.98343 0.77953 0.0
H2063 H 0.18439 0.03832 0.20554 0.0
H2064 H 0.1781 0.98862 0.0452 0.0
H2065 H 0.19827 0.03311 0.93994 0.0
C2066 C 0.20057 0.02066 0.81377 0.0
C2067 C 0.1981 1.00701 0.76547 0.0
C2068 C 0.17934 0.99959 0.07993 0.0
C2069 C 0.19102 1.00986 0.9475 0.0
C2070 C 0.17561 1.00114 0.17088 0.0
C2071 C 0.17802 0.01481 0.2192 0.0
C2072 C 0.18543 0.01183 0.03802 0.0
C2073 C 0.1826 0.02748 0.1709 0.0
C2074 C 0.19701 0.02214 0.9052 0.0
C2075 C 0.19368 0.99428 0.81413 0.0
N2076 N 0.18644 0.02557 0.08295 0.0
N2077 N 0.18999 0.99613 0.9025 0.0
H2078 H 0.5394 0.74179 0.77734 0.0
H2079 H 0.57095 0.78222 0.20446 0.0
H2080 H 0.55087 0.78937 0.7782 0.0
H2081 H 0.55941 0.73466 0.20366 0.0
H2082 H 0.56469 0.78462 0.04399 0.0
H2083 H 0.54537 0.73951 0.93858 0.0
C2084 C 0.54283 0.7519 0.8125 0.0
C2085 C 0.54505 0.76562 0.76418 0.0
C2086 C 0.56367 0.7736 0.07857 0.0
C2087 C 0.55221 0.76297 0.94609 0.0
C2088 C 0.56744 0.77214 0.16945 0.0
C2089 C 0.56531 0.75838 0.21763 0.0
C2090 C 0.55783 0.76117 0.03657 0.0
C2091 C 0.56098 0.74558 0.16918 0.0
C2092 C 0.54643 0.75051 0.90385 0.0
C2093 C 0.54926 0.77847 0.81279 0.0
N2094 N 0.5571 0.74739 0.08132 0.0
N2095 N 0.553 0.77673 0.90109 0.0
H2096 H 0.78914 0.77847 0.52455 0.0
H2097 H 0.82195 0.73971 0.95154 0.0
H2098 H 0.80229 0.73165 0.52404 0.0
H2099 H 0.80915 0.78671 0.95017 0.0
H2100 H 0.81567 0.73691 0.79134 0.0
H2101 H 0.79501 0.78099 0.68596 0.0
C2102 C 0.79292 0.76856 0.5595 0.0
C2103 C 0.79559 0.755 0.51082 0.0
C2104 C 0.81438 0.7479 0.82571 0.0
C2105 C 0.80266 0.75796 0.6929 0.0
C2106 C 0.81816 0.7496 0.91645 0.0
C2107 C 0.81571 0.76331 0.96443 0.0
C2108 C 0.80821 0.76004 0.78353 0.0
C2109 C 0.81099 0.77585 0.91586 0.0
C2110 C 0.79646 0.77009 0.65093 0.0
C2111 C 0.80027 0.7424 0.55903 0.0
N2112 N 0.80712 0.7738 0.82812 0.0
N2113 N 0.80394 0.7443 0.64743 0.0
H2114 H 0.43283 0.48213 0.95162 0.0
H2115 H 0.4423 0.53826 0.52263 0.0
H2116 H 0.42234 0.53011 0.94841 0.0
H2117 H 0.45257 0.4902 0.52478 0.0
H2118 H 0.43639 0.536 0.68398 0.0
H2119 H 0.43906 0.48446 0.79107 0.0
C2120 C 0.43147 0.49302 0.91616 0.0
C2121 C 0.42748 0.50612 0.96365 0.0
C2122 C 0.44008 0.526 0.64944 0.0
C2123 C 0.43492 0.50897 0.78251 0.0
C2124 C 0.44368 0.52736 0.55796 0.0
C2125 C 0.44748 0.51422 0.51 0.0
C2126 C 0.44041 0.51145 0.69206 0.0
C2127 C 0.44932 0.50048 0.5591 0.0
C2128 C 0.43526 0.49443 0.82519 0.0
C2129 C 0.4257 0.51986 0.91444 0.0
N2130 N 0.44547 0.49933 0.64744 0.0
N2131 N 0.42971 0.52105 0.82658 0.0
H2132 H 0.8104 0.48251 0.24881 0.0
H2133 H 0.8007 0.53859 0.67812 0.0
H2134 H 0.82049 0.53064 0.25097 0.0
H2135 H 0.79031 0.49058 0.6745 0.0
H2136 H 0.80667 0.53641 0.51678 0.0
H2137 H 0.80411 0.48487 0.40922 0.0
C2138 C 0.81165 0.49344 0.28396 0.0
C2139 C 0.81557 0.50655 0.23615 0.0
C2140 C 0.80293 0.52641 0.55097 0.0
C2141 C 0.80806 0.50944 0.41732 0.0
C2142 C 0.7993 0.52773 0.64245 0.0
C2143 C 0.79542 0.51457 0.68999 0.0
C2144 C 0.80258 0.51189 0.5079 0.0
C2145 C 0.7936 0.50087 0.64049 0.0
C2146 C 0.80784 0.49487 0.37489 0.0
C2147 C 0.8172 0.52036 0.2851 0.0
N2148 N 0.79747 0.49976 0.55219 0.0
N2149 N 0.81317 0.52156 0.37294 0.0
H2150 H 0.45415 0.77874 0.67356 0.0
H2151 H 0.42195 0.73929 0.24629 0.0
H2152 H 0.44183 0.73153 0.67259 0.0
H2153 H 0.43435 0.78647 0.2471 0.0
H2154 H 0.42813 0.7367 0.40683 0.0
H2155 H 0.44827 0.78119 0.51222 0.0
C2156 C 0.45055 0.76874 0.63832 0.0
C2157 C 0.44807 0.75509 0.6866 0.0
C2158 C 0.42936 0.74768 0.37224 0.0
C2159 C 0.44101 0.75795 0.50467 0.0
C2160 C 0.42563 0.74926 0.28136 0.0
C2161 C 0.42802 0.76294 0.2332 0.0
C2162 C 0.43543 0.75993 0.41424 0.0
C2163 C 0.43258 0.77561 0.28161 0.0
C2164 C 0.447 0.77023 0.54694 0.0
C2165 C 0.44365 0.74237 0.63797 0.0
N2166 N 0.43641 0.77368 0.36949 0.0
N2167 N 0.43997 0.74422 0.54964 0.0
H2168 H 0.1718 0.28244 -0.00196 0.0
H2169 H 0.20342 0.24211 0.42504 0.0
H2170 H 0.18345 0.23493 -0.00137 0.0
H2171 H 0.19187 0.28966 0.4242 0.0
H2172 H 0.19747 0.23982 0.26378 0.0
H2173 H 0.17805 0.28486 0.15853 0.0
C2174 C 0.17533 0.27238 0.03301 0.0
C2175 C 0.1775 0.25863 -0.01523 0.0
C2176 C 0.19638 0.25081 0.29852 0.0
C2177 C 0.18497 0.26144 0.16583 0.0
C2178 C 0.19997 0.25221 0.38989 0.0
C2179 C 0.19772 0.26592 0.43822 0.0
C2180 C 0.19059 0.26325 0.2563 0.0
C2181 C 0.1935 0.27877 0.3896 0.0
C2182 C 0.1791 0.27384 0.12389 0.0
C2183 C 0.18186 0.24584 0.03316 0.0
N2184 N 0.18977 0.27701 0.30129 0.0
N2185 N 0.18573 0.24766 0.12103 0.0
H2186 H 0.55075 0.4826 0.42623 0.0
H2187 H 0.55958 0.53892 -0.00275 0.0
H2188 H 0.53994 0.53045 0.42411 0.0
H2189 H 0.57057 0.49113 0.00023 0.0
H2190 H 0.55338 0.53646 0.15782 0.0
H2191 H 0.55663 0.48497 0.26484 0.0
C2192 C 0.54924 0.49346 0.39087 0.0
C2193 C 0.54528 0.50653 0.43882 0.0
C2194 C 0.55729 0.52657 0.12366 0.0
C2195 C 0.55233 0.50944 0.25676 0.0
C2196 C 0.56106 0.52806 0.03268 0.0
C2197 C 0.56519 0.51504 -0.01485 0.0
C2198 C 0.55778 0.51202 0.16629 0.0
C2199 C 0.5671 0.50132 0.03428 0.0
C2200 C 0.55282 0.49489 0.29938 0.0
C2201 C 0.5433 0.52023 0.38975 0.0
N2202 N 0.56311 0.50005 0.12214 0.0
N2203 N 0.54713 0.52146 0.30141 0.0
H2204 H 0.20397 0.53095 0.28136 0.0
H2205 H 0.17186 0.49136 0.709 0.0
H2206 H 0.19178 0.48367 0.2824 0.0
H2207 H 0.18411 0.53861 0.70795 0.0
H2208 H 0.17807 0.48878 0.54841 0.0
H2209 H 0.19808 0.53337 0.44278 0.0
C2210 C 0.20039 0.52093 0.3166 0.0
C2211 C 0.19794 0.50727 0.26831 0.0
C2212 C 0.17926 0.49978 0.58297 0.0
C2213 C 0.19088 0.5101 0.45036 0.0
C2214 C 0.17552 0.50134 0.67391 0.0
C2215 C 0.17787 0.51504 0.72203 0.0
C2216 C 0.18529 0.51205 0.54088 0.0
C2217 C 0.18238 0.52773 0.67351 0.0
C2218 C 0.19684 0.5224 0.40804 0.0
C2219 C 0.19356 0.49453 0.31699 0.0
N2220 N 0.18622 0.52582 0.58559 0.0
N2221 N 0.18987 0.49636 0.40538 0.0
H2222 H 0.53909 0.24237 0.27544 0.0
H2223 H 0.57138 0.28174 0.7026 0.0
H2224 H 0.55144 0.28957 0.27649 0.0
H2225 H 0.55887 0.23462 0.70211 0.0
H2226 H 0.56519 0.28434 0.54208 0.0
H2227 H 0.54499 0.2399 0.43675 0.0
C2228 C 0.5427 0.25236 0.31068 0.0
C2229 C 0.54519 0.26601 0.26242 0.0
C2230 C 0.56394 0.27337 0.57672 0.0
C2231 C 0.55226 0.26313 0.44435 0.0
C2232 C 0.56767 0.27179 0.6676 0.0
C2233 C 0.56526 0.25812 0.71584 0.0
C2234 C 0.55784 0.26114 0.5348 0.0
C2235 C 0.56067 0.24546 0.66751 0.0
C2236 C 0.54626 0.25086 0.40206 0.0
C2237 C 0.54962 0.27873 0.31108 0.0
N2238 N 0.55682 0.2474 0.57964 0.0
N2239 N 0.55331 0.27686 0.3994 0.0
H2240 H 0.30719 0.41947 0.53549 0.0
H2241 H 0.30764 0.35157 0.16227 0.0
H2242 H 0.29987 0.42739 0.24612 0.0
H2243 H 0.30022 0.34356 0.45152 0.0
H2244 H 0.30736 0.37948 0.19157 0.0
H2245 H 0.30719 0.39156 0.50613 0.0
C2246 C 0.30562 0.41531 0.46577 0.0
C2247 C 0.30351 0.42572 0.39311 0.0
C2248 C 0.30576 0.3716 0.24851 0.0
C2249 C 0.30359 0.3939 0.35895 0.0
C2250 C 0.30599 0.35571 0.23196 0.0
C2251 C 0.30393 0.34527 0.3046 0.0
C2252 C 0.30369 0.3771 0.33867 0.0
C2253 C 0.30175 0.35123 0.39349 0.0
C2254 C 0.30555 0.39942 0.44917 0.0
C2255 C 0.30143 0.41974 0.30416 0.0
N2256 N 0.30177 0.36675 0.40821 0.0
N2257 N 0.30161 0.40422 0.2894 0.0
H2258 H 0.91988 0.84697 0.36629 0.0
H2259 H 0.95814 0.92322 0.28665 0.0
H2260 H 0.95758 0.84855 0.4082 0.0
H2261 H 0.92044 0.92389 0.32959 0.0
H2262 H 0.95814 0.89546 0.31666 0.0
H2263 H 0.91996 0.87475 0.33833 0.0
C2264 C 0.92817 0.85312 0.37042 0.0
C2265 C 0.93874 0.84529 0.39019 0.0
C2266 C 0.94988 0.90171 0.31954 0.0
C2267 C 0.93888 0.87719 0.35595 0.0
C2268 C 0.94986 0.9176 0.30288 0.0
C2269 C 0.93927 0.92604 0.30561 0.0
C2270 C 0.93922 0.89409 0.33826 0.0
C2271 C 0.9288 0.91793 0.32507 0.0
C2272 C 0.9282 0.86901 0.35382 0.0
C2273 C 0.94923 0.85396 0.39203 0.0
N2274 N 0.92905 0.90244 0.3404 0.0
N2275 N 0.94903 0.86941 0.37496 0.0
H2276 H 0.28872 0.92128 -0.02333 0.0
H2277 H 0.31578 0.85075 0.69119 0.0
H2278 H 0.31963 0.92539 0.80311 0.0
H2279 H 0.29317 0.84442 0.92938 0.0
H2280 H 0.31582 0.87849 0.72046 0.0
H2281 H 0.2888 0.89342 0.94999 0.0
C2282 C 0.29558 0.91638 0.9335 0.0
C2283 C 0.30419 0.92583 0.89214 0.0
C2284 C 0.31086 0.87101 0.76634 0.0
C2285 C 0.30413 0.89388 0.85976 0.0
C2286 C 0.31088 0.85512 0.75003 0.0
C2287 C 0.3045 0.84509 0.80807 0.0
C2288 C 0.30432 0.87703 0.84065 0.0
C2289 C 0.29808 0.85163 0.88181 0.0
C2290 C 0.29556 0.90045 0.91791 0.0
C2291 C 0.31268 0.91871 0.83524 0.0
N2292 N 0.29814 0.86716 0.89583 0.0
N2293 N 0.31241 0.90321 0.82055 0.0
H2294 H 0.94311 0.4282 0.95631 0.0
H2295 H 0.94281 0.34352 0.73928 0.0
H2296 H 0.93574 0.41973 0.66754 0.0
H2297 H 0.93536 0.35206 0.02796 0.0
H2298 H 0.943 0.37146 0.71161 0.0
H2299 H 0.94306 0.40025 -0.0159 0.0
C2300 C 0.94154 0.42044 0.89875 0.0
C2301 C 0.93941 0.42625 0.80952 0.0
C2302 C 0.94131 0.36721 0.78094 0.0
C2303 C 0.93942 0.39435 0.84063 0.0
C2304 C 0.94127 0.3513 0.79685 0.0
C2305 C 0.93906 0.34551 0.88601 0.0
C2306 C 0.93934 0.3774 0.85506 0.0
C2307 C 0.93701 0.35607 0.95807 0.0
C2308 C 0.94145 0.40453 0.91472 0.0
C2309 C 0.93733 0.4157 0.73747 0.0
N2310 N 0.93728 0.37152 0.94118 0.0
N2311 N 0.93746 0.40025 0.75445 0.0
H2312 H 0.70811 0.67418 0.66725 0.0
H2313 H 0.66989 0.59797 0.58663 0.0
H2314 H 0.67042 0.67483 0.62419 0.0
H2315 H 0.70759 0.59956 0.54419 0.0
H2316 H 0.66997 0.62573 0.61509 0.0
H2317 H 0.70814 0.64644 0.63675 0.0
C2318 C 0.69984 0.66857 0.65089 0.0
C2319 C 0.68924 0.67698 0.6483 0.0
C2320 C 0.67822 0.61999 0.59937 0.0
C2321 C 0.68922 0.64506 0.61509 0.0
C2322 C 0.67818 0.60412 0.58248 0.0
C2323 C 0.68875 0.5963 0.56238 0.0
C2324 C 0.68889 0.62818 0.59719 0.0
C2325 C 0.69924 0.60496 0.56057 0.0
C2326 C 0.69987 0.65268 0.63395 0.0
C2327 C 0.67879 0.66888 0.62863 0.0
N2328 N 0.69905 0.6204 0.5779 0.0
N2329 N 0.67904 0.6534 0.61303 0.0
H2330 H 0.05778 0.10223 0.7884 0.0
H2331 H 0.05769 0.16981 0.41327 0.0
H2332 H 0.05036 0.09403 0.49943 0.0
H2333 H 0.05029 0.178 0.7024 0.0
H2334 H 0.05763 0.14193 0.44346 0.0
H2335 H 0.05766 0.13012 0.75829 0.0
C2336 C 0.05616 0.10632 0.71861 0.0
C2337 C 0.05406 0.09585 0.64629 0.0
C2338 C 0.05599 0.14984 0.50017 0.0
C2339 C 0.054 0.12763 0.61128 0.0
C2340 C 0.05609 0.16572 0.48311 0.0
C2341 C 0.05397 0.17619 0.55546 0.0
C2342 C 0.05398 0.14441 0.59054 0.0
C2343 C 0.05186 0.17029 0.64459 0.0
C2344 C 0.05603 0.1222 0.70159 0.0
C2345 C 0.05193 0.10174 0.55722 0.0
N2346 N 0.052 0.15479 0.6598 0.0
N2347 N 0.05203 0.11724 0.54205 0.0
H2348 H 0.70054 0.09546 0.17606 0.0
H2349 H 0.67283 0.17723 0.04575 0.0
H2350 H 0.67782 0.10244 0.93949 0.0
H2351 H 0.70385 0.17248 0.21702 0.0
H2352 H 0.6732 0.14949 0.01717 0.0
H2353 H 0.7006 0.1233 0.20274 0.0
C2354 C 0.69564 0.1028 0.12915 0.0
C2355 C 0.68918 0.09647 0.05516 0.0
C2356 C 0.67994 0.15453 0.06087 0.0
C2357 C 0.68901 0.12843 0.08704 0.0
C2358 C 0.67979 0.17043 0.07693 0.0
C2359 C 0.68837 0.17735 0.13364 0.0
C2360 C 0.68865 0.14537 0.10253 0.0
C2361 C 0.69695 0.16772 0.17388 0.0
C2362 C 0.69563 0.11871 0.14491 0.0
C2363 C 0.68278 0.10666 -0.00169 0.0
N2364 N 0.69685 0.15225 0.15772 0.0
N2365 N 0.68283 0.12209 0.01564 0.0
H2366 H 0.0733 0.67493 0.08256 0.0
H2367 H 0.03487 0.59879 0.1608 0.0
H2368 H 0.0356 0.67351 0.04015 0.0
H2369 H 0.07258 0.59802 0.11807 0.0
H2370 H 0.03493 0.62656 0.13109 0.0
H2371 H 0.07316 0.64715 0.11008 0.0
C2372 C 0.06499 0.66882 0.07821 0.0
C2373 C 0.05445 0.6767 0.05843 0.0
C2374 C 0.04318 0.62028 0.12819 0.0
C2375 C 0.05423 0.64478 0.09218 0.0
C2376 C 0.04316 0.60438 0.14469 0.0
C2377 C 0.05374 0.59592 0.14195 0.0
C2378 C 0.05386 0.62788 0.10963 0.0
C2379 C 0.06422 0.604 0.12261 0.0
C2380 C 0.06492 0.65292 0.09456 0.0
C2381 C 0.04394 0.66807 0.05632 0.0
N2382 N 0.06401 0.61949 0.10745 0.0
N2383 N 0.04409 0.65261 0.07316 0.0
H2384 H 0.80786 0.4189 0.03739 0.0
H2385 H 0.8079 0.35142 0.66152 0.0
H2386 H 0.8006 0.42715 0.74824 0.0
H2387 H 0.80044 0.34316 0.95047 0.0
H2388 H 0.80784 0.37929 0.69199 0.0
H2389 H 0.80776 0.39102 0.007 0.0
C2390 C 0.80628 0.41482 0.96751 0.0
C2391 C 0.80421 0.4253 0.89521 0.0
C2392 C 0.80619 0.37137 0.74861 0.0
C2393 C 0.80417 0.39354 0.8599 0.0
C2394 C 0.80628 0.35549 0.73138 0.0
C2395 C 0.80415 0.34501 0.8036 0.0
C2396 C 0.80416 0.37677 0.83901 0.0
C2397 C 0.80202 0.35088 0.89277 0.0
C2398 C 0.80616 0.39894 0.95033 0.0
C2399 C 0.80213 0.41943 0.80601 0.0
N2400 N 0.80216 0.36638 0.90814 0.0
N2401 N 0.80224 0.40394 0.7907 0.0
H2402 H 0.4356 0.91852 0.66345 0.0
H2403 H 0.43552 0.85053 0.03594 0.0
H2404 H 0.44291 0.92642 0.95287 0.0
H2405 H 0.44293 0.84264 0.74654 0.0
H2406 H 0.43566 0.87845 0.00693 0.0
H2407 H 0.43573 0.8906 0.6925 0.0
C2408 C 0.4372 0.91435 0.73312 0.0
C2409 C 0.43927 0.92476 0.80588 0.0
C2410 C 0.43729 0.8706 0.9499 0.0
C2411 C 0.43933 0.89293 0.83968 0.0
C2412 C 0.43714 0.85469 0.96629 0.0
C2413 C 0.43924 0.84429 0.89352 0.0
C2414 C 0.43932 0.87612 0.85978 0.0
C2415 C 0.44138 0.85028 0.80467 0.0
C2416 C 0.43733 0.89845 0.74954 0.0
C2417 C 0.44138 0.91877 0.89475 0.0
N2418 N 0.44128 0.8658 0.79011 0.0
N2419 N 0.44127 0.90325 0.90934 0.0
H2420 H 0.82375 0.84618 0.33386 0.0
H2421 H 0.78526 0.92215 0.41523 0.0
H2422 H 0.78604 0.84758 0.29256 0.0
H2423 H 0.82293 0.9231 0.37066 0.0
H2424 H 0.78536 0.8944 0.3853 0.0
H2425 H 0.8236 0.87395 0.36227 0.0
C2426 C 0.81544 0.85229 0.32998 0.0
C2427 C 0.80489 0.84442 0.31026 0.0
C2428 C 0.79359 0.90071 0.38205 0.0
C2429 C 0.80466 0.87629 0.34498 0.0
C2430 C 0.79355 0.9166 0.39867 0.0
C2431 C 0.8041 0.92511 0.39541 0.0
C2432 C 0.80427 0.89317 0.36284 0.0
C2433 C 0.81459 0.91708 0.37556 0.0
C2434 C 0.81537 0.86817 0.34682 0.0
C2435 C 0.79438 0.85303 0.3087 0.0
N2436 N 0.81441 0.90159 0.36025 0.0
N2437 N 0.79453 0.86846 0.32599 0.0
H2438 H 0.45819 0.34711 0.40888 0.0
H2439 H 0.41965 0.42308 0.32944 0.0
H2440 H 0.42048 0.34622 0.36703 0.0
H2441 H 0.45734 0.42175 0.28637 0.0
H2442 H 0.41984 0.39531 0.35721 0.0
H2443 H 0.4581 0.37484 0.37791 0.0
C2444 C 0.44989 0.35267 0.39268 0.0
C2445 C 0.43932 0.34419 0.39065 0.0
C2446 C 0.42806 0.4011 0.34148 0.0
C2447 C 0.43917 0.3761 0.35688 0.0
C2448 C 0.42797 0.41699 0.32498 0.0
C2449 C 0.4385 0.42489 0.30499 0.0
C2450 C 0.43877 0.39298 0.33902 0.0
C2451 C 0.44902 0.41628 0.30273 0.0
C2452 C 0.44986 0.36855 0.37546 0.0
C2453 C 0.42883 0.35222 0.3711 0.0
N2454 N 0.44889 0.40083 0.31973 0.0
N2455 N 0.42902 0.36769 0.35526 0.0
H2456 H 0.19332 0.59435 0.20941 0.0
H2457 H 0.19303 0.67907 -0.00698 0.0
H2458 H 0.18592 0.60285 0.92075 0.0
H2459 H 0.18563 0.67047 0.28169 0.0
H2460 H 0.19322 0.65113 0.96507 0.0
H2461 H 0.19331 0.62229 0.23733 0.0
C2462 C 0.19175 0.60212 0.15189 0.0
C2463 C 0.18961 0.59632 0.06266 0.0
C2464 C 0.19154 0.65537 0.03446 0.0
C2465 C 0.18965 0.62821 0.09392 0.0
C2466 C 0.1915 0.67127 0.05052 0.0
C2467 C 0.1893 0.67705 0.13977 0.0
C2468 C 0.18958 0.64516 0.10849 0.0
C2469 C 0.18727 0.66647 0.21175 0.0
C2470 C 0.19168 0.61803 0.16794 0.0
C2471 C 0.18753 0.60687 -0.00933 0.0
N2472 N 0.18753 0.65102 0.19469 0.0
N2473 N 0.18767 0.62232 0.00772 0.0
H2474 H 0.57344 0.09778 0.11696 0.0
H2475 H 0.53517 0.17395 0.0373 0.0
H2476 H 0.53576 0.09939 0.16028 0.0
H2477 H 0.57285 0.17472 0.08107 0.0
H2478 H 0.53519 0.14621 0.06761 0.0
H2479 H 0.57337 0.12557 0.08916 0.0
C2480 C 0.56515 0.10394 0.12145 0.0
C2481 C 0.55459 0.09612 0.14149 0.0
C2482 C 0.54344 0.15248 0.07063 0.0
C2483 C 0.55445 0.12801 0.10745 0.0
C2484 C 0.54345 0.16836 0.05379 0.0
C2485 C 0.55403 0.17681 0.05667 0.0
C2486 C 0.55411 0.14489 0.08966 0.0
C2487 C 0.56449 0.16874 0.07645 0.0
C2488 C 0.56512 0.11983 0.10495 0.0
C2489 C 0.5441 0.1048 0.14384 0.0
N2490 N 0.56427 0.15326 0.09194 0.0
N2491 N 0.5443 0.12024 0.12683 0.0
H2492 H 0.20812 0.09917 0.54077 0.0
H2493 H 0.16958 0.17514 0.62093 0.0
H2494 H 0.17043 0.09822 0.58398 0.0
H2495 H 0.20727 0.17377 0.66347 0.0
H2496 H 0.16975 0.14735 0.59315 0.0
H2497 H 0.20802 0.12691 0.57139 0.0
C2498 C 0.19982 0.10472 0.55719 0.0
C2499 C 0.18926 0.09621 0.55979 0.0
C2500 C 0.17798 0.15314 0.60876 0.0
C2501 C 0.18909 0.12814 0.59315 0.0
C2502 C 0.17789 0.16903 0.62526 0.0
C2503 C 0.18843 0.17692 0.64507 0.0
C2504 C 0.18869 0.14502 0.61103 0.0
C2505 C 0.19895 0.16831 0.64722 0.0
C2506 C 0.19978 0.1206 0.57421 0.0
C2507 C 0.17877 0.10423 0.57954 0.0
N2508 N 0.19881 0.15286 0.6302 0.0
N2509 N 0.17895 0.11971 0.5952 0.0
H2510 H 0.57346 0.59761 0.61565 0.0
H2511 H 0.53519 0.67377 0.53507 0.0
H2512 H 0.53575 0.59919 0.65796 0.0
H2513 H 0.57285 0.67453 0.57942 0.0
H2514 H 0.5352 0.64601 0.56495 0.0
H2515 H 0.57338 0.62537 0.58729 0.0
C2516 C 0.56516 0.60376 0.61977 0.0
C2517 C 0.5546 0.59593 0.63979 0.0
C2518 C 0.54345 0.65228 0.56817 0.0
C2519 C 0.55445 0.62781 0.60509 0.0
C2520 C 0.54346 0.66817 0.55158 0.0
C2521 C 0.55404 0.67663 0.5548 0.0
C2522 C 0.55411 0.64469 0.58729 0.0
C2523 C 0.5645 0.66855 0.57456 0.0
C2524 C 0.56513 0.61963 0.60295 0.0
C2525 C 0.5441 0.60459 0.64161 0.0
N2526 N 0.56427 0.65306 0.58983 0.0
N2527 N 0.54429 0.62003 0.62433 0.0
H2528 H 0.30992 0.17891 0.00459 0.0
H2529 H 0.3101 0.09231 0.19015 0.0
H2530 H 0.30264 0.16761 0.29007 0.0
H2531 H 0.30223 0.1036 0.90573 0.0
H2532 H 0.31001 0.11991 0.22806 0.0
H2533 H 0.30974 0.1513 0.96664 0.0
C2534 C 0.30833 0.17059 0.05927 0.0
C2535 C 0.30631 0.17551 0.15059 0.0
C2536 C 0.30828 0.11634 0.15743 0.0
C2537 C 0.30615 0.14399 0.10788 0.0
C2538 C 0.3084 0.10062 0.13567 0.0
C2539 C 0.30618 0.0957 0.04467 0.0
C2540 C 0.30612 0.12722 0.08736 0.0
C2541 C 0.30391 0.10693 -0.02317 0.0
C2542 C 0.30816 0.15488 0.03751 0.0
C2543 C 0.30418 0.16428 0.21874 0.0
N2544 N 0.30403 0.12218 -0.00062 0.0
N2545 N 0.30424 0.14903 0.19615 0.0
H2546 H 0.95594 0.17434 0.06635 0.0
H2547 H 0.91754 0.09959 0.18175 0.0
H2548 H 0.91828 0.17215 0.02315 0.0
H2549 H 0.95517 0.09792 0.13613 0.0
H2550 H 0.91767 0.12687 0.13925 0.0
H2551 H 0.95586 0.14697 0.10647 0.0
C2552 C 0.94766 0.16813 0.06438 0.0
C2553 C 0.93709 0.17568 0.04096 0.0
C2554 C 0.92589 0.12051 0.13855 0.0
C2555 C 0.93695 0.14431 0.0893 0.0
C2556 C 0.92583 0.10488 0.16244 0.0
C2557 C 0.93636 0.0963 0.16238 0.0
C2558 C 0.93657 0.12773 0.11527 0.0
C2559 C 0.94686 0.10402 0.13871 0.0
C2560 C 0.94762 0.15249 0.08798 0.0
C2561 C 0.92662 0.16698 0.04206 0.0
N2562 N 0.94669 0.11927 0.11629 0.0
N2563 N 0.92681 0.1518 0.06612 0.0
H2564 H 0.6903 0.91889 0.05245 0.0
H2565 H 0.69014 0.85444 0.65754 0.0
H2566 H 0.68274 0.92938 0.76641 0.0
H2567 H 0.68268 0.84393 0.94383 0.0
H2568 H 0.69023 0.88205 0.69615 0.0
H2569 H 0.69032 0.89127 0.014 0.0
C2570 C 0.68869 0.91536 -0.01844 0.0
C2571 C 0.68648 0.92639 0.91251 0.0
C2572 C 0.68855 0.87368 0.7504 0.0
C2573 C 0.68658 0.89494 0.868 0.0
C2574 C 0.68856 0.85797 0.72852 0.0
C2575 C 0.68636 0.84693 0.7976 0.0
C2576 C 0.68656 0.87837 0.8423 0.0
C2577 C 0.6843 0.85209 0.88844 0.0
C2578 C 0.68863 0.89964 0.95979 0.0
C2579 C 0.68437 0.92122 0.8218 0.0
N2580 N 0.68452 0.86744 0.90834 0.0
N2581 N 0.68455 0.90587 0.802 0.0
H2582 H 0.05284 0.91834 0.65388 0.0
H2583 H 0.05288 0.85439 0.05151 0.0
H2584 H 0.06046 0.9292 0.93934 0.0
H2585 H 0.06047 0.84354 0.76585 0.0
H2586 H 0.05281 0.88195 0.01177 0.0
H2587 H 0.05278 0.89077 0.69367 0.0
C2588 C 0.05446 0.9149 0.72493 0.0
C2589 C 0.0567 0.92601 0.79342 0.0
C2590 C 0.05451 0.87352 0.95792 0.0
C2591 C 0.05654 0.89464 0.83946 0.0
C2592 C 0.0545 0.85783 -0.01957 0.0
C2593 C 0.05673 0.84672 0.91186 0.0
C2594 C 0.05655 0.8781 0.86588 0.0
C2595 C 0.05882 0.85177 0.82087 0.0
C2596 C 0.05449 0.89921 0.74746 0.0
C2597 C 0.05881 0.92097 0.88437 0.0
N2598 N 0.05861 0.86709 0.80035 0.0
N2599 N 0.05861 0.90565 0.90493 0.0
H2600 H 0.30997 0.67873 0.5086 0.0
H2601 H 0.31007 0.59198 0.69162 0.0
H2602 H 0.3025 0.66722 0.79347 0.0
H2603 H 0.30239 0.6035 0.40722 0.0
H2604 H 0.30993 0.61956 0.73038 0.0
H2605 H 0.30982 0.65116 0.46988 0.0
C2606 C 0.30834 0.67037 0.563 0.0
C2607 C 0.30625 0.67522 0.65437 0.0
C2608 C 0.30826 0.61604 0.65957 0.0
C2609 C 0.30614 0.64374 0.61076 0.0
C2610 C 0.30841 0.60034 0.63732 0.0
C2611 C 0.30625 0.5955 0.54608 0.0
C2612 C 0.30614 0.62698 0.58974 0.0
C2613 C 0.30403 0.60678 0.47849 0.0
C2614 C 0.30819 0.65468 0.54079 0.0
C2615 C 0.30408 0.66394 0.72211 0.0
N2616 N 0.30412 0.62201 0.50151 0.0
N2617 N 0.30417 0.6487 0.6991 0.0
H2618 H 0.93327 0.67901 0.69219 0.0
H2619 H 0.93302 0.59235 0.50771 0.0
H2620 H 0.94095 0.66757 0.40751 0.0
H2621 H 0.94056 0.60373 0.79257 0.0
H2622 H 0.93324 0.61994 0.4694 0.0
H2623 H 0.93327 0.65142 0.73039 0.0
C2624 C 0.93491 0.67066 0.63773 0.0
C2625 C 0.9371 0.67553 0.54657 0.0
C2626 C 0.93487 0.61638 0.54021 0.0
C2627 C 0.93705 0.64404 0.58956 0.0
C2628 C 0.93467 0.60068 0.56219 0.0
C2629 C 0.93677 0.5958 0.65343 0.0
C2630 C 0.93697 0.62728 0.61029 0.0
C2631 C 0.93897 0.60704 0.7213 0.0
C2632 C 0.93498 0.65496 0.65964 0.0
C2633 C 0.93929 0.66427 0.47872 0.0
N2634 N 0.93893 0.62228 0.69852 0.0
N2635 N 0.93912 0.64903 0.50143 0.0
H2636 H 0.68303 0.4302 0.25759 0.0
H2637 H 0.68336 0.34339 0.43938 0.0
H2638 H 0.6906 0.41861 0.54208 0.0
H2639 H 0.69095 0.35506 0.15493 0.0
H2640 H 0.68339 0.37095 0.47849 0.0
H2641 H 0.68329 0.40264 0.21843 0.0
C2642 C 0.68469 0.42183 0.31181 0.0
C2643 C 0.68678 0.42665 0.4032 0.0
C2644 C 0.68508 0.36747 0.4076 0.0
C2645 C 0.68704 0.39519 0.35908 0.0
C2646 C 0.68499 0.35178 0.38517 0.0
C2647 C 0.68715 0.34699 0.2938 0.0
C2648 C 0.68712 0.37845 0.33784 0.0
C2649 C 0.68932 0.3583 0.22629 0.0
C2650 C 0.68492 0.40615 0.28935 0.0
C2651 C 0.68901 0.41536 0.47071 0.0
N2652 N 0.68916 0.37353 0.2495 0.0
N2653 N 0.689 0.40013 0.44745 0.0
H2654 H 0.03716 0.34751 0.37999 0.0
H2655 H 0.07551 0.42231 0.26398 0.0
H2656 H 0.07483 0.34972 0.4224 0.0
H2657 H 0.03787 0.42393 0.30969 0.0
H2658 H 0.07539 0.39502 0.30644 0.0
H2659 H 0.03722 0.37488 0.33974 0.0
C2660 C 0.04544 0.35372 0.38178 0.0
C2661 C 0.05601 0.34617 0.40503 0.0
C2662 C 0.06717 0.40137 0.30716 0.0
C2663 C 0.05613 0.37755 0.35651 0.0
C2664 C 0.06722 0.417 0.2833 0.0
C2665 C 0.05668 0.42557 0.28341 0.0
C2666 C 0.0565 0.39413 0.33049 0.0
C2667 C 0.04619 0.41784 0.30708 0.0
C2668 C 0.04546 0.36936 0.35808 0.0
C2669 C 0.06648 0.35488 0.40364 0.0
N2670 N 0.04637 0.40259 0.32949 0.0
N2671 N 0.06628 0.37006 0.37952 0.0
H2672 H 0.7872 0.09678 0.56199 0.0
H2673 H 0.82548 0.17185 0.67224 0.0
H2674 H 0.82487 0.09896 0.51888 0.0
H2675 H 0.78783 0.17332 0.62749 0.0
H2676 H 0.82539 0.1445 0.63132 0.0
H2677 H 0.78723 0.12423 0.60025 0.0
C2678 C 0.79547 0.10301 0.55964 0.0
C2679 C 0.80605 0.09543 0.53679 0.0
C2680 C 0.81716 0.15084 0.63043 0.0
C2681 C 0.80615 0.1269 0.58299 0.0
C2682 C 0.8172 0.1665 0.6534 0.0
C2683 C 0.80665 0.17504 0.65315 0.0
C2684 C 0.80649 0.14353 0.60786 0.0
C2685 C 0.79617 0.16725 0.63016 0.0
C2686 C 0.79548 0.11869 0.58218 0.0
C2687 C 0.81651 0.10415 0.53738 0.0
N2688 N 0.79636 0.15197 0.60864 0.0
N2689 N 0.8163 0.11938 0.56039 0.0
H2690 H 0.4326 0.17782 0.69132 0.0
H2691 H 0.43257 0.0911 0.50707 0.0
H2692 H 0.44017 0.16636 0.40649 0.0
H2693 H 0.44014 0.10253 0.79179 0.0
H2694 H 0.43266 0.11869 0.46877 0.0
H2695 H 0.43268 0.15023 0.72966 0.0
C2696 C 0.43423 0.16947 0.63684 0.0
C2697 C 0.43637 0.17434 0.5456 0.0
C2698 C 0.43432 0.11515 0.53956 0.0
C2699 C 0.43641 0.14284 0.58879 0.0
C2700 C 0.4342 0.09944 0.56153 0.0
C2701 C 0.43634 0.09456 0.65273 0.0
C2702 C 0.4364 0.12607 0.60959 0.0
C2703 C 0.43852 0.10583 0.72055 0.0
C2704 C 0.43434 0.15377 0.65884 0.0
C2705 C 0.43854 0.16307 0.47777 0.0
N2706 N 0.43841 0.12107 0.69777 0.0
N2707 N 0.43842 0.14783 0.50057 0.0
H2708 H 0.19071 0.91859 0.55229 0.0
H2709 H 0.19088 0.85435 0.15606 0.0
H2710 H 0.18318 0.92922 0.26639 0.0
H2711 H 0.18332 0.84366 0.44194 0.0
H2712 H 0.19089 0.88194 0.1952 0.0
H2713 H 0.19083 0.891 0.51318 0.0
C2714 C 0.18912 0.91509 0.48129 0.0
C2715 C 0.18689 0.92616 0.41247 0.0
C2716 C 0.18921 0.87354 0.24924 0.0
C2717 C 0.18712 0.89474 0.36721 0.0
C2718 C 0.18927 0.85783 0.22707 0.0
C2719 C 0.18706 0.84675 0.29587 0.0
C2720 C 0.18716 0.87817 0.34117 0.0
C2721 C 0.18495 0.85186 0.38675 0.0
C2722 C 0.18913 0.89938 0.45914 0.0
C2723 C 0.18482 0.92103 0.3216 0.0
N2724 N 0.18513 0.8672 0.40693 0.0
N2725 N 0.18506 0.90569 0.30143 0.0
H2726 H 0.57522 0.85013 0.4331 0.0
H2727 H 0.537 0.92487 0.31528 0.0
H2728 H 0.53763 0.84841 0.38563 0.0
H2729 H 0.57465 0.92245 0.27107 0.0
H2730 H 0.53701 0.89752 0.35616 0.0
H2731 H 0.57512 0.87739 0.3901 0.0
C2732 C 0.56695 0.85541 0.41328 0.0
C2733 C 0.55642 0.84683 0.41275 0.0
C2734 C 0.54525 0.90299 0.33726 0.0
C2735 C 0.55625 0.87822 0.36509 0.0
C2736 C 0.54526 0.91861 0.31322 0.0
C2737 C 0.55585 0.92609 0.28935 0.0
C2738 C 0.55591 0.89476 0.33858 0.0
C2739 C 0.56629 0.91733 0.29035 0.0
C2740 C 0.5669 0.87102 0.38911 0.0
C2741 C 0.54595 0.85452 0.38851 0.0
N2742 N 0.56606 0.90218 0.31488 0.0
N2743 N 0.54613 0.86976 0.36582 0.0
H2744 H 0.81841 0.67707 0.03282 0.0
H2745 H 0.7913 0.59399 0.1329 0.0
H2746 H 0.79751 0.66759 0.27603 0.0
H2747 H 0.82292 0.60031 0.971 0.0
H2748 H 0.79171 0.62149 0.17354 0.0
H2749 H 0.81857 0.64941 -0.00336 0.0
C2750 C 0.81387 0.66913 0.07857 0.0
C2751 C 0.80793 0.67457 0.15747 0.0
C2752 C 0.79857 0.61684 0.12932 0.0
C2753 C 0.80797 0.64302 0.11609 0.0
C2754 C 0.79829 0.6012 0.10561 0.0
C2755 C 0.80708 0.59491 0.04843 0.0
C2756 C 0.80758 0.6263 0.09424 0.0
C2757 C 0.81601 0.60471 0.01567 0.0
C2758 C 0.814 0.65338 0.05815 0.0
C2759 C 0.80224 0.66382 0.21487 0.0
N2760 N 0.81599 0.61995 0.03845 0.0
N2761 N 0.8023 0.64855 0.19259 0.0
H2762 H 0.44019 0.60248 0.29682 0.0
H2763 H 0.44069 0.66672 0.90076 0.0
H2764 H 0.43272 0.59188 0.01075 0.0
H2765 H 0.43303 0.67743 0.18647 0.0
H2766 H 0.44062 0.63912 0.93983 0.0
H2767 H 0.4404 0.63007 0.25776 0.0
C2768 C 0.43863 0.60598 0.22579 0.0
C2769 C 0.43639 0.59493 0.15691 0.0
C2770 C 0.43893 0.64753 -0.00616 0.0
C2771 C 0.43673 0.62634 0.1117 0.0
C2772 C 0.43904 0.66324 0.97172 0.0
C2773 C 0.43682 0.67433 0.04048 0.0
C2774 C 0.43683 0.64291 0.0857 0.0
C2775 C 0.43466 0.66923 0.13129 0.0
C2776 C 0.43869 0.62169 0.20367 0.0
C2777 C 0.43437 0.60006 0.06601 0.0
N2778 N 0.43479 0.65389 0.15144 0.0
N2779 N 0.43466 0.6154 0.04587 0.0
H2780 H 0.20556 0.34836 0.81771 0.0
H2781 H 0.16726 0.42316 0.93412 0.0
H2782 H 0.16792 0.35068 0.7737 0.0
H2783 H 0.20491 0.42473 0.88908 0.0
H2784 H 0.16735 0.3959 0.89084 0.0
H2785 H 0.20552 0.37571 0.85827 0.0
C2786 C 0.19729 0.35459 0.81562 0.0
C2787 C 0.18672 0.34709 0.79188 0.0
C2788 C 0.17559 0.40224 0.89043 0.0
C2789 C 0.18661 0.37844 0.84074 0.0
C2790 C 0.17555 0.41785 0.91477 0.0
C2791 C 0.18609 0.42639 0.91513 0.0
C2792 C 0.18626 0.395 0.8671 0.0
C2793 C 0.19658 0.41866 0.89136 0.0
C2794 C 0.19728 0.37022 0.83949 0.0
C2795 C 0.17627 0.35582 0.79285 0.0
N2796 N 0.19639 0.40343 0.86851 0.0
N2797 N 0.17647 0.37099 0.81718 0.0
H2798 H 0.56016 0.34312 0.75962 0.0
H2799 H 0.56 0.42979 0.9438 0.0
H2800 H 0.55242 0.35452 0.04422 0.0
H2801 H 0.55252 0.41833 0.65894 0.0
H2802 H 0.55987 0.4022 -0.01779 0.0
H2803 H 0.56002 0.37071 0.7213 0.0
C2804 C 0.55848 0.35146 0.81404 0.0
C2805 C 0.55631 0.34658 0.90521 0.0
C2806 C 0.55823 0.40574 0.91138 0.0
C2807 C 0.55619 0.37807 0.86208 0.0
C2808 C 0.55838 0.42144 0.88935 0.0
C2809 C 0.55628 0.4263 0.79807 0.0
C2810 C 0.55618 0.39482 0.84131 0.0
C2811 C 0.55411 0.41504 0.73024 0.0
C2812 C 0.55833 0.36716 0.79206 0.0
C2813 C 0.55406 0.35783 0.97301 0.0
N2814 N 0.55421 0.3998 0.75306 0.0
N2815 N 0.55415 0.37307 0.95023 0.0
loop_
_geom_bond_atom_site_label_1
_geom_bond_atom_site_label_2
_geom_bond_distance
_geom_bond_site_symmetry_2
_ccdc_geom_bond_type
C0 O16 1.251 . S
C0 O18 1.254 . S
N1 C2 1.333 . S
N1 C6 1.307 . S
N1 Zn7 2.020 . S
C2 N1 1.333 . S
C2 C3 1.379 . S
C2 H20 0.952 . S
C3 C2 1.379 . S
C3 C4 1.390 . S
C3 H30 0.949 . S
C4 C3 1.390 . S
C4 C5 1.357 . S
C5 C4 1.357 . S
C5 C6 1.370 . S
C5 H31 0.950 . S
C6 N1 1.307 . S
C6 C5 1.370 . S
C6 H24 0.948 . S
Zn7 N1 2.020 . S
Zn7 O16 2.039 . S
Zn7 O22 2.034 . S
Zn7 O26 2.025 . S
Zn7 O28 2.024 . S
C8 O27 1.246 . S
C8 O28 1.249 . S
N9 C10 1.307 . S
N9 C11 1.333 . S
N9 Zn15 2.020 . S
C10 N9 1.307 . S
C10 C14 1.370 . S
C10 H21 0.948 . S
C11 N9 1.333 . S
C11 C12 1.379 . S
C11 H19 0.952 . S
C12 C11 1.379 . S
C12 C13 1.390 . S
C12 H32 0.949 . S
C13 C12 1.390 . S
C13 C14 1.357 . S
C14 C10 1.370 . S
C14 C13 1.357 . S
C14 H33 0.950 . S
Zn15 N9 2.020 . S
Zn15 O18 2.025 . S
Zn15 O23 2.024 . S
Zn15 O25 2.039 . S
Zn15 O27 2.034 . S
O16 C0 1.251 . S
O16 Zn7 2.039 . S
C17 O22 1.246 . S
C17 O23 1.249 . S
O18 C0 1.254 . S
O18 Zn15 2.025 . S
H19 C11 0.952 . S
H20 C2 0.952 . S
H21 C10 0.948 . S
O22 Zn7 2.034 . S
O22 C17 1.246 . S
O23 Zn15 2.024 . S
O23 C17 1.249 . S
H24 C6 0.948 . S
O25 Zn15 2.039 . S
O25 C29 1.251 . S
O26 Zn7 2.025 . S
O26 C29 1.254 . S
O27 C8 1.246 . S
O27 Zn15 2.034 . S
O28 Zn7 2.024 . S
O28 C8 1.249 . S
C29 O25 1.251 . S
C29 O26 1.254 . S
H30 C3 0.949 . S
H31 C5 0.950 . S
H32 C12 0.949 . S
H33 C14 0.950 . S
C34 O50 1.251 1_545 S
C34 O52 1.254 . S
N35 C36 1.333 . S
N35 C40 1.307 . S
N35 Zn41 2.020 . S
C36 N35 1.333 . S
C36 C37 1.379 . S
C36 H54 0.952 . S
C37 C36 1.379 . S
C37 C38 1.390 . S
C37 H64 0.949 . S
C38 C37 1.390 . S
C38 C39 1.357 . S
C39 C38 1.357 . S
C39 C40 1.370 . S
C39 H65 0.950 . S
C40 N35 1.307 . S
C40 C39 1.370 . S
C40 H58 0.948 . S
Zn41 N35 2.020 . S
Zn41 O50 2.039 . S
Zn41 O56 2.034 . S
Zn41 O60 2.025 . S
Zn41 O62 2.024 . S
C42 O61 1.247 . S
C42 O62 1.247 1_545 S
N43 C44 1.307 . S
N43 C45 1.333 . S
N43 Zn49 2.020 . S
C44 N43 1.307 . S
C44 C48 1.370 . S
C44 H55 0.948 . S
C45 N43 1.333 . S
C45 C46 1.379 . S
C45 H53 0.952 . S
C46 C45 1.379 . S
C46 C47 1.390 . S
C46 H66 0.949 . S
C47 C46 1.390 . S
C47 C48 1.357 . S
C48 C44 1.370 . S
C48 C47 1.357 . S
C48 H67 0.950 . S
Zn49 N43 2.020 . S
Zn49 O52 2.025 . S
Zn49 O57 2.024 . S
Zn49 O59 2.039 . S
Zn49 O61 2.034 . S
O50 C34 1.251 1_565 S
O50 Zn41 2.039 . S
C51 O56 1.262 . S
C51 O57 1.231 1_565 S
O52 C34 1.254 . S
O52 Zn49 2.025 . S
H53 C45 0.952 . S
H54 C36 0.952 . S
H55 C44 0.948 . S
O56 Zn41 2.034 . S
O56 C51 1.262 . S
O57 Zn49 2.024 . S
O57 C51 1.231 1_545 S
H58 C40 0.948 . S
O59 Zn49 2.039 . S
O59 C63 1.251 1_545 S
O60 Zn41 2.025 . S
O60 C63 1.254 . S
O61 C42 1.247 . S
O61 Zn49 2.034 . S
O62 Zn41 2.024 . S
O62 C42 1.247 1_565 S
C63 O59 1.251 1_565 S
C63 O60 1.254 . S
H64 C37 0.949 . S
H65 C39 0.950 . S
H66 C46 0.949 . S
H67 C48 0.950 . S
C68 O84 1.251 1_545 S
C68 O86 1.254 . S
N69 C70 1.333 1_554 S
N69 C74 1.307 . S
N69 Zn75 2.020 . S
C70 N69 1.333 1_556 S
C70 C71 1.379 . S
C70 H88 0.952 . S
C71 C70 1.379 . S
C71 C72 1.390 . S
C71 H98 0.949 . S
C72 C71 1.390 . S
C72 C73 1.357 1_556 S
C73 C72 1.357 1_554 S
C73 C74 1.370 . S
C73 H99 0.950 . S
C74 N69 1.307 . S
C74 C73 1.370 . S
C74 H92 0.948 . S
Zn75 N69 2.020 . S
Zn75 O84 2.039 1_554 S
Zn75 O90 2.034 . S
Zn75 O94 2.025 . S
Zn75 O96 2.024 1_554 S
C76 O95 1.247 1_556 S
C76 O96 1.248 1_545 S
N77 C78 1.307 1_554 S
N77 C79 1.333 . S
N77 Zn83 2.020 . S
C78 N77 1.307 1_556 S
C78 C82 1.370 . S
C78 H89 0.948 . S
C79 N77 1.333 . S
C79 C80 1.379 . S
C79 H87 0.952 . S
C80 C79 1.379 . S
C80 C81 1.390 . S
C80 H100 0.949 . S
C81 C80 1.390 . S
C81 C82 1.357 1_554 S
C82 C78 1.370 . S
C82 C81 1.357 1_556 S
C82 H101 0.950 . S
Zn83 N77 2.020 . S
Zn83 O86 2.025 1_554 S
Zn83 O91 2.024 . S
Zn83 O93 2.039 . S
Zn83 O95 2.034 . S
O84 C68 1.251 1_565 S
O84 Zn75 2.039 1_556 S
C85 O90 1.262 . S
C85 O91 1.231 1_565 S
O86 C68 1.254 . S
O86 Zn83 2.025 1_556 S
H87 C79 0.952 . S
H88 C70 0.952 . S
H89 C78 0.948 . S
O90 Zn75 2.034 . S
O90 C85 1.262 . S
O91 Zn83 2.024 . S
O91 C85 1.231 1_545 S
H92 C74 0.948 . S
O93 Zn83 2.039 . S
O93 C97 1.251 1_545 S
O94 Zn75 2.025 . S
O94 C97 1.254 . S
O95 C76 1.247 1_554 S
O95 Zn83 2.034 . S
O96 Zn75 2.024 1_556 S
O96 C76 1.248 1_565 S
C97 O93 1.251 1_565 S
C97 O94 1.254 . S
H98 C71 0.949 . S
H99 C73 0.950 . S
H100 C80 0.949 . S
H101 C82 0.950 . S
C102 O118 1.251 . S
C102 O120 1.254 . S
N103 C104 1.333 1_554 S
N103 C108 1.307 . S
N103 Zn109 2.020 . S
C104 N103 1.333 1_556 S
C104 C105 1.379 . S
C104 H122 0.952 . S
C105 C104 1.379 . S
C105 C106 1.390 . S
C105 H132 0.949 . S
C106 C105 1.390 . S
C106 C107 1.357 1_556 S
C107 C106 1.357 1_554 S
C107 C108 1.370 . S
C107 H133 0.950 . S
C108 N103 1.307 . S
C108 C107 1.370 . S
C108 H126 0.948 . S
Zn109 N103 2.020 . S
Zn109 O118 2.039 1_554 S
Zn109 O124 2.034 . S
Zn109 O128 2.025 . S
Zn109 O130 2.024 1_554 S
C110 O129 1.246 1_556 S
C110 O130 1.249 . S
N111 C112 1.307 1_554 S
N111 C113 1.333 . S
N111 Zn117 2.020 . S
C112 N111 1.307 1_556 S
C112 C116 1.370 . S
C112 H123 0.948 . S
C113 N111 1.333 . S
C113 C114 1.379 . S
C113 H121 0.952 . S
C114 C113 1.379 . S
C114 C115 1.390 . S
C114 H134 0.949 . S
C115 C114 1.390 . S
C115 C116 1.357 1_554 S
C116 C112 1.370 . S
C116 C115 1.357 1_556 S
C116 H135 0.950 . S
Zn117 N111 2.020 . S
Zn117 O120 2.025 1_554 S
Zn117 O125 2.024 . S
Zn117 O127 2.039 . S
Zn117 O129 2.034 . S
O118 C102 1.251 . S
O118 Zn109 2.039 1_556 S
C119 O124 1.246 . S
C119 O125 1.249 . S
O120 C102 1.254 . S
O120 Zn117 2.025 1_556 S
H121 C113 0.952 . S
H122 C104 0.952 . S
H123 C112 0.948 . S
O124 Zn109 2.034 . S
O124 C119 1.246 . S
O125 Zn117 2.024 . S
O125 C119 1.249 . S
H126 C108 0.948 . S
O127 Zn117 2.039 . S
O127 C131 1.251 . S
O128 Zn109 2.025 . S
O128 C131 1.254 . S
O129 C110 1.246 1_554 S
O129 Zn117 2.034 . S
O130 Zn109 2.024 1_556 S
O130 C110 1.249 . S
C131 O127 1.251 . S
C131 O128 1.254 . S
H132 C105 0.949 . S
H133 C107 0.950 . S
H134 C114 0.949 . S
H135 C116 0.950 . S
C136 O152 1.251 . S
C136 O154 1.254 . S
N137 C138 1.333 . S
N137 C142 1.307 . S
N137 Zn143 2.020 . S
C138 N137 1.333 . S
C138 C139 1.379 . S
C138 H156 0.952 . S
C139 C138 1.379 . S
C139 C140 1.390 . S
C139 H166 0.949 . S
C140 C139 1.390 . S
C140 C141 1.357 . S
C141 C140 1.357 . S
C141 C142 1.370 . S
C141 H167 0.950 . S
C142 N137 1.307 . S
C142 C141 1.370 . S
C142 H160 0.948 . S
Zn143 N137 2.020 . S
Zn143 O152 2.039 . S
Zn143 O158 2.034 . S
Zn143 O162 2.025 . S
Zn143 O164 2.024 . S
C144 O163 1.246 . S
C144 O164 1.249 . S
N145 C146 1.307 . S
N145 C147 1.333 . S
N145 Zn151 2.020 . S
C146 N145 1.307 . S
C146 C150 1.370 . S
C146 H157 0.948 . S
C147 N145 1.333 . S
C147 C148 1.379 . S
C147 H155 0.952 . S
C148 C147 1.379 . S
C148 C149 1.390 . S
C148 H168 0.949 . S
C149 C148 1.390 . S
C149 C150 1.357 . S
C150 C146 1.370 . S
C150 C149 1.357 . S
C150 H169 0.950 . S
Zn151 N145 2.020 . S
Zn151 O154 2.025 . S
Zn151 O159 2.024 . S
Zn151 O161 2.039 . S
Zn151 O163 2.034 . S
O152 C136 1.251 . S
O152 Zn143 2.039 . S
C153 O158 1.246 . S
C153 O159 1.249 . S
O154 C136 1.254 . S
O154 Zn151 2.025 . S
H155 C147 0.952 . S
H156 C138 0.952 . S
H157 C146 0.948 . S
O158 Zn143 2.034 . S
O158 C153 1.246 . S
O159 Zn151 2.024 . S
O159 C153 1.249 . S
H160 C142 0.948 . S
O161 Zn151 2.039 . S
O161 C165 1.251 . S
O162 Zn143 2.025 . S
O162 C165 1.254 . S
O163 C144 1.246 . S
O163 Zn151 2.034 . S
O164 Zn143 2.024 . S
O164 C144 1.249 . S
C165 O161 1.251 . S
C165 O162 1.254 . S
H166 C139 0.949 . S
H167 C141 0.950 . S
H168 C148 0.949 . S
H169 C150 0.950 . S
C170 O186 1.251 1_545 S
C170 O188 1.254 . S
N171 C172 1.333 . S
N171 C176 1.307 . S
N171 Zn177 2.020 . S
C172 N171 1.333 . S
C172 C173 1.379 . S
C172 H190 0.952 . S
C173 C172 1.379 . S
C173 C174 1.390 . S
C173 H200 0.949 . S
C174 C173 1.390 . S
C174 C175 1.357 . S
C175 C174 1.357 . S
C175 C176 1.370 . S
C175 H201 0.950 . S
C176 N171 1.307 . S
C176 C175 1.370 . S
C176 H194 0.948 . S
Zn177 N171 2.020 . S
Zn177 O186 2.039 . S
Zn177 O192 2.034 . S
Zn177 O196 2.025 . S
Zn177 O198 2.024 . S
C178 O197 1.262 . S
C178 O198 1.231 1_545 S
N179 C180 1.307 . S
N179 C181 1.333 . S
N179 Zn185 2.020 . S
C180 N179 1.307 . S
C180 C184 1.370 . S
C180 H191 0.948 . S
C181 N179 1.333 . S
C181 C182 1.379 . S
C181 H189 0.952 . S
C182 C181 1.379 . S
C182 C183 1.390 . S
C182 H202 0.949 . S
C183 C182 1.390 . S
C183 C184 1.357 . S
C184 C180 1.370 . S
C184 C183 1.357 . S
C184 H203 0.950 . S
Zn185 N179 2.020 . S
Zn185 O188 2.025 . S
Zn185 O193 2.024 . S
Zn185 O195 2.039 . S
Zn185 O197 2.034 . S
O186 C170 1.251 1_565 S
O186 Zn177 2.039 . S
C187 O192 1.247 . S
C187 O193 1.247 1_565 S
O188 C170 1.254 . S
O188 Zn185 2.025 . S
H189 C181 0.952 . S
H190 C172 0.952 . S
H191 C180 0.948 . S
O192 Zn177 2.034 . S
O192 C187 1.247 . S
O193 Zn185 2.024 . S
O193 C187 1.247 1_545 S
H194 C176 0.948 . S
O195 Zn185 2.039 . S
O195 C199 1.251 1_545 S
O196 Zn177 2.025 . S
O196 C199 1.254 . S
O197 C178 1.262 . S
O197 Zn185 2.034 . S
O198 Zn177 2.024 . S
O198 C178 1.231 1_565 S
C199 O195 1.251 1_565 S
C199 O196 1.254 . S
H200 C173 0.949 . S
H201 C175 0.950 . S
H202 C182 0.949 . S
H203 C184 0.950 . S
C204 O220 1.251 1_545 S
C204 O222 1.254 . S
N205 C206 1.333 . S
N205 C210 1.307 1_556 S
N205 Zn211 2.020 . S
C206 N205 1.333 . S
C206 C207 1.379 . S
C206 H224 0.952 . S
C207 C206 1.379 . S
C207 C208 1.390 . S
C207 H234 0.949 . S
C208 C207 1.390 . S
C208 C209 1.357 1_556 S
C209 C208 1.357 1_554 S
C209 C210 1.370 . S
C209 H235 0.950 . S
C210 N205 1.307 1_554 S
C210 C209 1.370 . S
C210 H228 0.948 . S
Zn211 N205 2.020 . S
Zn211 O220 2.039 . S
Zn211 O226 2.034 . S
Zn211 O230 2.025 1_556 S
Zn211 O232 2.024 . S
C212 O231 1.262 . S
C212 O232 1.231 1_545 S
N213 C214 1.307 . S
N213 C215 1.333 1_556 S
N213 Zn219 2.020 . S
C214 N213 1.307 . S
C214 C218 1.370 . S
C214 H225 0.948 . S
C215 N213 1.333 1_554 S
C215 C216 1.379 . S
C215 H223 0.952 . S
C216 C215 1.379 . S
C216 C217 1.390 . S
C216 H236 0.949 . S
C217 C216 1.390 . S
C217 C218 1.357 1_554 S
C218 C214 1.370 . S
C218 C217 1.357 1_556 S
C218 H237 0.950 . S
Zn219 N213 2.020 . S
Zn219 O222 2.025 . S
Zn219 O227 2.024 1_556 S
Zn219 O229 2.039 1_556 S
Zn219 O231 2.034 . S
O220 C204 1.251 1_565 S
O220 Zn211 2.039 . S
C221 O226 1.247 1_554 S
C221 O227 1.248 1_565 S
O222 C204 1.254 . S
O222 Zn219 2.025 . S
H223 C215 0.952 . S
H224 C206 0.952 . S
H225 C214 0.948 . S
O226 Zn211 2.034 . S
O226 C221 1.247 1_556 S
O227 Zn219 2.024 1_554 S
O227 C221 1.248 1_545 S
H228 C210 0.948 . S
O229 Zn219 2.039 1_554 S
O229 C233 1.251 1_545 S
O230 Zn211 2.025 1_554 S
O230 C233 1.254 . S
O231 C212 1.262 . S
O231 Zn219 2.034 . S
O232 Zn211 2.024 . S
O232 C212 1.231 1_565 S
C233 O229 1.251 1_565 S
C233 O230 1.254 . S
H234 C207 0.949 . S
H235 C209 0.950 . S
H236 C216 0.949 . S
H237 C218 0.950 . S
C238 O254 1.251 . S
C238 O256 1.254 . S
N239 C240 1.333 . S
N239 C244 1.307 1_556 S
N239 Zn245 2.020 . S
C240 N239 1.333 . S
C240 C241 1.379 . S
C240 H258 0.952 . S
C241 C240 1.379 . S
C241 C242 1.390 . S
C241 H268 0.949 . S
C242 C241 1.390 . S
C242 C243 1.357 1_556 S
C243 C242 1.357 1_554 S
C243 C244 1.370 . S
C243 H269 0.950 . S
C244 N239 1.307 1_554 S
C244 C243 1.370 . S
C244 H262 0.948 . S
Zn245 N239 2.020 . S
Zn245 O254 2.039 . S
Zn245 O260 2.034 . S
Zn245 O264 2.025 1_556 S
Zn245 O266 2.024 . S
C246 O265 1.246 . S
C246 O266 1.249 . S
N247 C248 1.307 . S
N247 C249 1.333 1_556 S
N247 Zn253 2.020 . S
C248 N247 1.307 . S
C248 C252 1.370 . S
C248 H259 0.948 . S
C249 N247 1.333 1_554 S
C249 C250 1.379 . S
C249 H257 0.952 . S
C250 C249 1.379 . S
C250 C251 1.390 . S
C250 H270 0.949 . S
C251 C250 1.390 . S
C251 C252 1.357 1_554 S
C252 C248 1.370 . S
C252 C251 1.357 1_556 S
C252 H271 0.950 . S
Zn253 N247 2.020 . S
Zn253 O256 2.025 . S
Zn253 O261 2.024 1_556 S
Zn253 O263 2.039 1_556 S
Zn253 O265 2.034 . S
O254 C238 1.251 . S
O254 Zn245 2.039 . S
C255 O260 1.246 1_554 S
C255 O261 1.249 . S
O256 C238 1.254 . S
O256 Zn253 2.025 . S
H257 C249 0.952 . S
H258 C240 0.952 . S
H259 C248 0.948 . S
O260 Zn245 2.034 . S
O260 C255 1.246 1_556 S
O261 Zn253 2.024 1_554 S
O261 C255 1.249 . S
H262 C244 0.948 . S
O263 Zn253 2.039 1_554 S
O263 C267 1.251 . S
O264 Zn245 2.025 1_554 S
O264 C267 1.254 . S
O265 C246 1.246 . S
O265 Zn253 2.034 . S
O266 Zn245 2.024 . S
O266 C246 1.249 . S
C267 O263 1.251 . S
C267 O264 1.254 . S
H268 C241 0.949 . S
H269 C243 0.950 . S
H270 C250 0.949 . S
H271 C252 0.950 . S
C272 O288 1.251 . S
C272 O290 1.254 . S
N273 C274 1.333 . S
N273 C278 1.307 . S
N273 Zn279 2.020 . S
C274 N273 1.333 . S
C274 C275 1.379 . S
C274 H292 0.952 . S
C275 C274 1.379 . S
C275 C276 1.390 . S
C275 H302 0.949 . S
C276 C275 1.390 . S
C276 C277 1.357 . S
C277 C276 1.357 . S
C277 C278 1.370 . S
C277 H303 0.950 . S
C278 N273 1.307 . S
C278 C277 1.370 . S
C278 H296 0.948 . S
Zn279 N273 2.020 . S
Zn279 O288 2.039 . S
Zn279 O294 2.034 . S
Zn279 O298 2.025 . S
Zn279 O300 2.024 . S
C280 O299 1.246 . S
C280 O300 1.249 . S
N281 C282 1.307 . S
N281 C283 1.333 . S
N281 Zn287 2.020 . S
C282 N281 1.307 . S
C282 C286 1.370 . S
C282 H293 0.948 . S
C283 N281 1.333 . S
C283 C284 1.379 . S
C283 H291 0.952 . S
C284 C283 1.379 . S
C284 C285 1.390 . S
C284 H304 0.949 . S
C285 C284 1.390 . S
C285 C286 1.357 . S
C286 C282 1.370 . S
C286 C285 1.357 . S
C286 H305 0.950 . S
Zn287 N281 2.020 . S
Zn287 O290 2.025 . S
Zn287 O295 2.024 . S
Zn287 O297 2.039 . S
Zn287 O299 2.034 . S
O288 C272 1.251 . S
O288 Zn279 2.039 . S
C289 O294 1.246 . S
C289 O295 1.249 . S
O290 C272 1.254 . S
O290 Zn287 2.025 . S
H291 C283 0.952 . S
H292 C274 0.952 . S
H293 C282 0.948 . S
O294 Zn279 2.034 . S
O294 C289 1.246 . S
O295 Zn287 2.024 . S
O295 C289 1.249 . S
H296 C278 0.948 . S
O297 Zn287 2.039 . S
O297 C301 1.251 . S
O298 Zn279 2.025 . S
O298 C301 1.254 . S
O299 C280 1.246 . S
O299 Zn287 2.034 . S
O300 Zn279 2.024 . S
O300 C280 1.249 . S
C301 O297 1.251 . S
C301 O298 1.254 . S
H302 C275 0.949 . S
H303 C277 0.950 . S
H304 C284 0.949 . S
H305 C286 0.950 . S
C306 O322 1.251 . S
C306 O324 1.254 . S
N307 C308 1.333 . S
N307 C312 1.307 . S
N307 Zn313 2.020 . S
C308 N307 1.333 . S
C308 C309 1.379 . S
C308 H326 0.952 . S
C309 C308 1.379 . S
C309 C310 1.390 . S
C309 H336 0.949 . S
C310 C309 1.390 . S
C310 C311 1.357 . S
C311 C310 1.357 . S
C311 C312 1.370 . S
C311 H337 0.950 . S
C312 N307 1.307 . S
C312 C311 1.370 . S
C312 H330 0.948 . S
Zn313 N307 2.020 . S
Zn313 O322 2.039 . S
Zn313 O328 2.034 . S
Zn313 O332 2.025 . S
Zn313 O334 2.024 . S
C314 O333 1.246 . S
C314 O334 1.249 . S
N315 C316 1.307 . S
N315 C317 1.333 . S
N315 Zn321 2.020 . S
C316 N315 1.307 . S
C316 C320 1.370 . S
C316 H327 0.948 . S
C317 N315 1.333 . S
C317 C318 1.379 . S
C317 H325 0.952 . S
C318 C317 1.379 . S
C318 C319 1.390 . S
C318 H338 0.949 . S
C319 C318 1.390 . S
C319 C320 1.357 . S
C320 C316 1.370 . S
C320 C319 1.357 . S
C320 H339 0.950 . S
Zn321 N315 2.020 . S
Zn321 O324 2.025 . S
Zn321 O329 2.024 . S
Zn321 O331 2.039 . S
Zn321 O333 2.034 . S
O322 C306 1.251 . S
O322 Zn313 2.039 . S
C323 O328 1.246 . S
C323 O329 1.249 . S
O324 C306 1.254 . S
O324 Zn321 2.025 . S
H325 C317 0.952 . S
H326 C308 0.952 . S
H327 C316 0.948 . S
O328 Zn313 2.034 . S
O328 C323 1.246 . S
O329 Zn321 2.024 . S
O329 C323 1.249 . S
H330 C312 0.948 . S
O331 Zn321 2.039 . S
O331 C335 1.251 . S
O332 Zn313 2.025 . S
O332 C335 1.254 . S
O333 C314 1.246 . S
O333 Zn321 2.034 . S
O334 Zn313 2.024 . S
O334 C314 1.249 . S
C335 O331 1.251 . S
C335 O332 1.254 . S
H336 C309 0.949 . S
H337 C311 0.950 . S
H338 C318 0.949 . S
H339 C320 0.950 . S
C340 O356 1.251 . S
C340 O358 1.254 . S
N341 C342 1.333 . S
N341 C346 1.307 . S
N341 Zn347 2.020 . S
C342 N341 1.333 . S
C342 C343 1.379 . S
C342 H360 0.952 . S
C343 C342 1.379 . S
C343 C344 1.390 . S
C343 H370 0.949 . S
C344 C343 1.390 . S
C344 C345 1.357 . S
C345 C344 1.357 . S
C345 C346 1.370 . S
C345 H371 0.950 . S
C346 N341 1.307 . S
C346 C345 1.370 . S
C346 H364 0.948 . S
Zn347 N341 2.020 . S
Zn347 O356 2.039 . S
Zn347 O362 2.034 . S
Zn347 O366 2.025 . S
Zn347 O368 2.024 . S
C348 O367 1.246 . S
C348 O368 1.249 . S
N349 C350 1.307 . S
N349 C351 1.333 . S
N349 Zn355 2.020 . S
C350 N349 1.307 . S
C350 C354 1.370 . S
C350 H361 0.948 . S
C351 N349 1.333 . S
C351 C352 1.379 . S
C351 H359 0.952 . S
C352 C351 1.379 . S
C352 C353 1.390 . S
C352 H372 0.949 . S
C353 C352 1.390 . S
C353 C354 1.357 . S
C354 C350 1.370 . S
C354 C353 1.357 . S
C354 H373 0.950 . S
Zn355 N349 2.020 . S
Zn355 O358 2.025 . S
Zn355 O363 2.024 . S
Zn355 O365 2.039 . S
Zn355 O367 2.034 . S
O356 C340 1.251 . S
O356 Zn347 2.039 . S
C357 O362 1.246 . S
C357 O363 1.249 . S
O358 C340 1.254 . S
O358 Zn355 2.025 . S
H359 C351 0.952 . S
H360 C342 0.952 . S
H361 C350 0.948 . S
O362 Zn347 2.034 . S
O362 C357 1.246 . S
O363 Zn355 2.024 . S
O363 C357 1.249 . S
H364 C346 0.948 . S
O365 Zn355 2.039 . S
O365 C369 1.251 . S
O366 Zn347 2.025 . S
O366 C369 1.254 . S
O367 C348 1.246 . S
O367 Zn355 2.034 . S
O368 Zn347 2.024 . S
O368 C348 1.249 . S
C369 O365 1.251 . S
C369 O366 1.254 . S
H370 C343 0.949 . S
H371 C345 0.950 . S
H372 C352 0.949 . S
H373 C354 0.950 . S
C374 O390 1.251 . S
C374 O392 1.254 . S
N375 C376 1.333 . S
N375 C380 1.307 . S
N375 Zn381 2.020 . S
C376 N375 1.333 . S
C376 C377 1.379 . S
C376 H394 0.952 . S
C377 C376 1.379 . S
C377 C378 1.390 . S
C377 H404 0.949 . S
C378 C377 1.390 . S
C378 C379 1.357 . S
C379 C378 1.357 . S
C379 C380 1.370 . S
C379 H405 0.950 . S
C380 N375 1.307 . S
C380 C379 1.370 . S
C380 H398 0.948 . S
Zn381 N375 2.020 . S
Zn381 O390 2.039 . S
Zn381 O396 2.034 . S
Zn381 O400 2.025 . S
Zn381 O402 2.024 . S
C382 O401 1.246 . S
C382 O402 1.249 . S
N383 C384 1.307 . S
N383 C385 1.333 . S
N383 Zn389 2.020 . S
C384 N383 1.307 . S
C384 C388 1.370 . S
C384 H395 0.948 . S
C385 N383 1.333 . S
C385 C386 1.379 . S
C385 H393 0.952 . S
C386 C385 1.379 . S
C386 C387 1.390 . S
C386 H406 0.949 . S
C387 C386 1.390 . S
C387 C388 1.357 . S
C388 C384 1.370 . S
C388 C387 1.357 . S
C388 H407 0.950 . S
Zn389 N383 2.020 . S
Zn389 O392 2.025 . S
Zn389 O397 2.024 . S
Zn389 O399 2.039 . S
Zn389 O401 2.034 . S
O390 C374 1.251 . S
O390 Zn381 2.039 . S
C391 O396 1.246 . S
C391 O397 1.249 . S
O392 C374 1.254 . S
O392 Zn389 2.025 . S
H393 C385 0.952 . S
H394 C376 0.952 . S
H395 C384 0.948 . S
O396 Zn381 2.034 . S
O396 C391 1.246 . S
O397 Zn389 2.024 . S
O397 C391 1.249 . S
H398 C380 0.948 . S
O399 Zn389 2.039 . S
O399 C403 1.251 . S
O400 Zn381 2.025 . S
O400 C403 1.254 . S
O401 C382 1.246 . S
O401 Zn389 2.034 . S
O402 Zn381 2.024 . S
O402 C382 1.249 . S
C403 O399 1.251 . S
C403 O400 1.254 . S
H404 C377 0.949 . S
H405 C379 0.950 . S
H406 C386 0.949 . S
H407 C388 0.950 . S
C408 O424 1.251 . S
C408 O426 1.254 . S
N409 C410 1.333 . S
N409 C414 1.307 . S
N409 Zn415 2.020 . S
C410 N409 1.333 . S
C410 C411 1.379 . S
C410 H428 0.952 . S
C411 C410 1.379 . S
C411 C412 1.390 . S
C411 H438 0.949 . S
C412 C411 1.390 . S
C412 C413 1.357 . S
C413 C412 1.357 . S
C413 C414 1.370 . S
C413 H439 0.950 . S
C414 N409 1.307 . S
C414 C413 1.370 . S
C414 H432 0.948 . S
Zn415 N409 2.020 . S
Zn415 O424 2.039 . S
Zn415 O430 2.034 . S
Zn415 O434 2.025 . S
Zn415 O436 2.024 . S
C416 O435 1.246 . S
C416 O436 1.249 . S
N417 C418 1.307 . S
N417 C419 1.333 . S
N417 Zn423 2.020 . S
C418 N417 1.307 . S
C418 C422 1.370 . S
C418 H429 0.948 . S
C419 N417 1.333 . S
C419 C420 1.379 . S
C419 H427 0.952 . S
C420 C419 1.379 . S
C420 C421 1.390 . S
C420 H440 0.949 . S
C421 C420 1.390 . S
C421 C422 1.357 . S
C422 C418 1.370 . S
C422 C421 1.357 . S
C422 H441 0.950 . S
Zn423 N417 2.020 . S
Zn423 O426 2.025 . S
Zn423 O431 2.024 . S
Zn423 O433 2.039 . S
Zn423 O435 2.034 . S
O424 C408 1.251 . S
O424 Zn415 2.039 . S
C425 O430 1.246 . S
C425 O431 1.249 . S
O426 C408 1.254 . S
O426 Zn423 2.025 . S
H427 C419 0.952 . S
H428 C410 0.952 . S
H429 C418 0.948 . S
O430 Zn415 2.034 . S
O430 C425 1.246 . S
O431 Zn423 2.024 . S
O431 C425 1.249 . S
H432 C414 0.948 . S
O433 Zn423 2.039 . S
O433 C437 1.251 . S
O434 Zn415 2.025 . S
O434 C437 1.254 . S
O435 C416 1.246 . S
O435 Zn423 2.034 . S
O436 Zn415 2.024 . S
O436 C416 1.249 . S
C437 O433 1.251 . S
C437 O434 1.254 . S
H438 C411 0.949 . S
H439 C413 0.950 . S
H440 C420 0.949 . S
H441 C422 0.950 . S
C442 O458 1.251 . S
C442 O460 1.254 . S
N443 C444 1.333 . S
N443 C448 1.307 . S
N443 Zn449 2.020 . S
C444 N443 1.333 . S
C444 C445 1.379 . S
C444 H462 0.952 . S
C445 C444 1.379 . S
C445 C446 1.390 . S
C445 H472 0.949 . S
C446 C445 1.390 . S
C446 C447 1.357 . S
C447 C446 1.357 . S
C447 C448 1.370 . S
C447 H473 0.950 . S
C448 N443 1.307 . S
C448 C447 1.370 . S
C448 H466 0.948 . S
Zn449 N443 2.020 . S
Zn449 O458 2.039 . S
Zn449 O464 2.034 . S
Zn449 O468 2.025 . S
Zn449 O470 2.024 . S
C450 O469 1.246 . S
C450 O470 1.249 . S
N451 C452 1.307 . S
N451 C453 1.333 . S
N451 Zn457 2.020 . S
C452 N451 1.307 . S
C452 C456 1.370 . S
C452 H463 0.948 . S
C453 N451 1.333 . S
C453 C454 1.379 . S
C453 H461 0.952 . S
C454 C453 1.379 . S
C454 C455 1.390 . S
C454 H474 0.949 . S
C455 C454 1.390 . S
C455 C456 1.357 . S
C456 C452 1.370 . S
C456 C455 1.357 . S
C456 H475 0.950 . S
Zn457 N451 2.020 . S
Zn457 O460 2.025 . S
Zn457 O465 2.024 . S
Zn457 O467 2.039 . S
Zn457 O469 2.034 . S
O458 C442 1.251 . S
O458 Zn449 2.039 . S
C459 O464 1.246 . S
C459 O465 1.249 . S
O460 C442 1.254 . S
O460 Zn457 2.025 . S
H461 C453 0.952 . S
H462 C444 0.952 . S
H463 C452 0.948 . S
O464 Zn449 2.034 . S
O464 C459 1.246 . S
O465 Zn457 2.024 . S
O465 C459 1.249 . S
H466 C448 0.948 . S
O467 Zn457 2.039 . S
O467 C471 1.251 . S
O468 Zn449 2.025 . S
O468 C471 1.254 . S
O469 C450 1.246 . S
O469 Zn457 2.034 . S
O470 Zn449 2.024 . S
O470 C450 1.249 . S
C471 O467 1.251 . S
C471 O468 1.254 . S
H472 C445 0.949 . S
H473 C447 0.950 . S
H474 C454 0.949 . S
H475 C456 0.950 . S
C476 O492 1.251 . S
C476 O494 1.254 . S
N477 C478 1.333 . S
N477 C482 1.307 . S
N477 Zn483 2.020 . S
C478 N477 1.333 . S
C478 C479 1.379 . S
C478 H496 0.952 . S
C479 C478 1.379 . S
C479 C480 1.390 . S
C479 H506 0.949 . S
C480 C479 1.390 . S
C480 C481 1.357 . S
C481 C480 1.357 . S
C481 C482 1.370 . S
C481 H507 0.950 . S
C482 N477 1.307 . S
C482 C481 1.370 . S
C482 H500 0.948 . S
Zn483 N477 2.020 . S
Zn483 O492 2.039 . S
Zn483 O498 2.034 . S
Zn483 O502 2.025 . S
Zn483 O504 2.024 . S
C484 O503 1.246 . S
C484 O504 1.249 . S
N485 C486 1.307 . S
N485 C487 1.333 . S
N485 Zn491 2.020 . S
C486 N485 1.307 . S
C486 C490 1.370 . S
C486 H497 0.948 . S
C487 N485 1.333 . S
C487 C488 1.379 . S
C487 H495 0.952 . S
C488 C487 1.379 . S
C488 C489 1.390 . S
C488 H508 0.949 . S
C489 C488 1.390 . S
C489 C490 1.357 . S
C490 C486 1.370 . S
C490 C489 1.357 . S
C490 H509 0.950 . S
Zn491 N485 2.020 . S
Zn491 O494 2.025 . S
Zn491 O499 2.024 . S
Zn491 O501 2.039 . S
Zn491 O503 2.034 . S
O492 C476 1.251 . S
O492 Zn483 2.039 . S
C493 O498 1.246 . S
C493 O499 1.249 . S
O494 C476 1.254 . S
O494 Zn491 2.025 . S
H495 C487 0.952 . S
H496 C478 0.952 . S
H497 C486 0.948 . S
O498 Zn483 2.034 . S
O498 C493 1.246 . S
O499 Zn491 2.024 . S
O499 C493 1.249 . S
H500 C482 0.948 . S
O501 Zn491 2.039 . S
O501 C505 1.251 . S
O502 Zn483 2.025 . S
O502 C505 1.254 . S
O503 C484 1.246 . S
O503 Zn491 2.034 . S
O504 Zn483 2.024 . S
O504 C484 1.249 . S
C505 O501 1.251 . S
C505 O502 1.254 . S
H506 C479 0.949 . S
H507 C481 0.950 . S
H508 C488 0.949 . S
H509 C490 0.950 . S
C510 O526 1.251 . S
C510 O528 1.254 . S
N511 C512 1.333 . S
N511 C516 1.307 . S
N511 Zn517 2.020 . S
C512 N511 1.333 . S
C512 C513 1.379 . S
C512 H530 0.952 . S
C513 C512 1.379 . S
C513 C514 1.390 . S
C513 H540 0.949 . S
C514 C513 1.390 . S
C514 C515 1.357 . S
C515 C514 1.357 . S
C515 C516 1.370 . S
C515 H541 0.950 . S
C516 N511 1.307 . S
C516 C515 1.370 . S
C516 H534 0.948 . S
Zn517 N511 2.020 . S
Zn517 O526 2.039 . S
Zn517 O532 2.034 . S
Zn517 O536 2.025 . S
Zn517 O538 2.024 . S
C518 O537 1.246 . S
C518 O538 1.249 . S
N519 C520 1.307 . S
N519 C521 1.333 . S
N519 Zn525 2.020 . S
C520 N519 1.307 . S
C520 C524 1.370 . S
C520 H531 0.948 . S
C521 N519 1.333 . S
C521 C522 1.379 . S
C521 H529 0.952 . S
C522 C521 1.379 . S
C522 C523 1.390 . S
C522 H542 0.949 . S
C523 C522 1.390 . S
C523 C524 1.357 . S
C524 C520 1.370 . S
C524 C523 1.357 . S
C524 H543 0.950 . S
Zn525 N519 2.020 . S
Zn525 O528 2.025 . S
Zn525 O533 2.024 . S
Zn525 O535 2.039 . S
Zn525 O537 2.034 . S
O526 C510 1.251 . S
O526 Zn517 2.039 . S
C527 O532 1.246 . S
C527 O533 1.249 . S
O528 C510 1.254 . S
O528 Zn525 2.025 . S
H529 C521 0.952 . S
H530 C512 0.952 . S
H531 C520 0.948 . S
O532 Zn517 2.034 . S
O532 C527 1.246 . S
O533 Zn525 2.024 . S
O533 C527 1.249 . S
H534 C516 0.948 . S
O535 Zn525 2.039 . S
O535 C539 1.251 . S
O536 Zn517 2.025 . S
O536 C539 1.254 . S
O537 C518 1.246 . S
O537 Zn525 2.034 . S
O538 Zn517 2.024 . S
O538 C518 1.249 . S
C539 O535 1.251 . S
C539 O536 1.254 . S
H540 C513 0.949 . S
H541 C515 0.950 . S
H542 C522 0.949 . S
H543 C524 0.950 . S
C544 O560 1.251 . S
C544 O562 1.254 . S
N545 C546 1.333 . S
N545 C550 1.307 . S
N545 Zn551 2.020 . S
C546 N545 1.333 . S
C546 C547 1.379 . S
C546 H564 0.952 . S
C547 C546 1.379 . S
C547 C548 1.390 . S
C547 H574 0.949 . S
C548 C547 1.390 . S
C548 C549 1.357 . S
C549 C548 1.357 . S
C549 C550 1.370 . S
C549 H575 0.950 . S
C550 N545 1.307 . S
C550 C549 1.370 . S
C550 H568 0.948 . S
Zn551 N545 2.020 . S
Zn551 O560 2.039 . S
Zn551 O566 2.034 . S
Zn551 O570 2.025 . S
Zn551 O572 2.024 . S
C552 O571 1.246 . S
C552 O572 1.249 . S
N553 C554 1.307 . S
N553 C555 1.333 . S
N553 Zn559 2.020 . S
C554 N553 1.307 . S
C554 C558 1.370 . S
C554 H565 0.948 . S
C555 N553 1.333 . S
C555 C556 1.379 . S
C555 H563 0.952 . S
C556 C555 1.379 . S
C556 C557 1.390 . S
C556 H576 0.949 . S
C557 C556 1.390 . S
C557 C558 1.357 . S
C558 C554 1.370 . S
C558 C557 1.357 . S
C558 H577 0.950 . S
Zn559 N553 2.020 . S
Zn559 O562 2.025 . S
Zn559 O567 2.024 . S
Zn559 O569 2.039 . S
Zn559 O571 2.034 . S
O560 C544 1.251 . S
O560 Zn551 2.039 . S
C561 O566 1.246 . S
C561 O567 1.249 . S
O562 C544 1.254 . S
O562 Zn559 2.025 . S
H563 C555 0.952 . S
H564 C546 0.952 . S
H565 C554 0.948 . S
O566 Zn551 2.034 . S
O566 C561 1.246 . S
O567 Zn559 2.024 . S
O567 C561 1.249 . S
H568 C550 0.948 . S
O569 Zn559 2.039 . S
O569 C573 1.251 . S
O570 Zn551 2.025 . S
O570 C573 1.254 . S
O571 C552 1.246 . S
O571 Zn559 2.034 . S
O572 Zn551 2.024 . S
O572 C552 1.249 . S
C573 O569 1.251 . S
C573 O570 1.254 . S
H574 C547 0.949 . S
H575 C549 0.950 . S
H576 C556 0.949 . S
H577 C558 0.950 . S
C578 O594 1.251 1_545 S
C578 O596 1.254 . S
N579 C580 1.333 . S
N579 C584 1.307 . S
N579 Zn585 2.020 . S
C580 N579 1.333 . S
C580 C581 1.379 . S
C580 H598 0.952 . S
C581 C580 1.379 . S
C581 C582 1.390 . S
C581 H608 0.949 . S
C582 C581 1.390 . S
C582 C583 1.357 . S
C583 C582 1.357 . S
C583 C584 1.370 . S
C583 H609 0.950 . S
C584 N579 1.307 . S
C584 C583 1.370 . S
C584 H602 0.948 . S
Zn585 N579 2.020 . S
Zn585 O594 2.039 . S
Zn585 O600 2.034 . S
Zn585 O604 2.025 . S
Zn585 O606 2.024 . S
C586 O605 1.247 . S
C586 O606 1.247 1_545 S
N587 C588 1.307 . S
N587 C589 1.333 . S
N587 Zn593 2.020 . S
C588 N587 1.307 . S
C588 C592 1.370 . S
C588 H599 0.948 . S
C589 N587 1.333 . S
C589 C590 1.379 . S
C589 H597 0.952 . S
C590 C589 1.379 . S
C590 C591 1.390 . S
C590 H610 0.949 . S
C591 C590 1.390 . S
C591 C592 1.357 . S
C592 C588 1.370 . S
C592 C591 1.357 . S
C592 H611 0.950 . S
Zn593 N587 2.020 . S
Zn593 O596 2.025 . S
Zn593 O601 2.024 . S
Zn593 O603 2.039 . S
Zn593 O605 2.034 . S
O594 C578 1.251 1_565 S
O594 Zn585 2.039 . S
C595 O600 1.262 . S
C595 O601 1.231 1_565 S
O596 C578 1.254 . S
O596 Zn593 2.025 . S
H597 C589 0.952 . S
H598 C580 0.952 . S
H599 C588 0.948 . S
O600 Zn585 2.034 . S
O600 C595 1.262 . S
O601 Zn593 2.024 . S
O601 C595 1.231 1_545 S
H602 C584 0.948 . S
O603 Zn593 2.039 . S
O603 C607 1.251 1_545 S
O604 Zn585 2.025 . S
O604 C607 1.254 . S
O605 C586 1.247 . S
O605 Zn593 2.034 . S
O606 Zn585 2.024 . S
O606 C586 1.247 1_565 S
C607 O603 1.251 1_565 S
C607 O604 1.254 . S
H608 C581 0.949 . S
H609 C583 0.950 . S
H610 C590 0.949 . S
H611 C592 0.950 . S
C612 O628 1.251 1_545 S
C612 O630 1.254 . S
N613 C614 1.333 . S
N613 C618 1.307 . S
N613 Zn619 2.020 . S
C614 N613 1.333 . S
C614 C615 1.379 . S
C614 H632 0.952 . S
C615 C614 1.379 . S
C615 C616 1.390 . S
C615 H642 0.949 . S
C616 C615 1.390 . S
C616 C617 1.357 . S
C617 C616 1.357 . S
C617 C618 1.370 . S
C617 H643 0.950 . S
C618 N613 1.307 . S
C618 C617 1.370 . S
C618 H636 0.948 . S
Zn619 N613 2.020 . S
Zn619 O628 2.039 . S
Zn619 O634 2.034 . S
Zn619 O638 2.025 . S
Zn619 O640 2.024 . S
C620 O639 1.247 . S
C620 O640 1.247 1_545 S
N621 C622 1.307 . S
N621 C623 1.333 . S
N621 Zn627 2.020 . S
C622 N621 1.307 . S
C622 C626 1.370 . S
C622 H633 0.948 . S
C623 N621 1.333 . S
C623 C624 1.379 . S
C623 H631 0.952 . S
C624 C623 1.379 . S
C624 C625 1.390 . S
C624 H644 0.949 . S
C625 C624 1.390 . S
C625 C626 1.357 . S
C626 C622 1.370 . S
C626 C625 1.357 . S
C626 H645 0.950 . S
Zn627 N621 2.020 . S
Zn627 O630 2.025 . S
Zn627 O635 2.024 . S
Zn627 O637 2.039 . S
Zn627 O639 2.034 . S
O628 C612 1.251 1_565 S
O628 Zn619 2.039 . S
C629 O634 1.262 . S
C629 O635 1.231 1_565 S
O630 C612 1.254 . S
O630 Zn627 2.025 . S
H631 C623 0.952 . S
H632 C614 0.952 . S
H633 C622 0.948 . S
O634 Zn619 2.034 . S
O634 C629 1.262 . S
O635 Zn627 2.024 . S
O635 C629 1.231 1_545 S
H636 C618 0.948 . S
O637 Zn627 2.039 . S
O637 C641 1.251 1_545 S
O638 Zn619 2.025 . S
O638 C641 1.254 . S
O639 C620 1.247 . S
O639 Zn627 2.034 . S
O640 Zn619 2.024 . S
O640 C620 1.247 1_565 S
C641 O637 1.251 1_565 S
C641 O638 1.254 . S
H642 C615 0.949 . S
H643 C617 0.950 . S
H644 C624 0.949 . S
H645 C626 0.950 . S
C646 O662 1.251 . S
C646 O664 1.254 . S
N647 C648 1.333 . S
N647 C652 1.307 . S
N647 Zn653 2.020 . S
C648 N647 1.333 . S
C648 C649 1.379 . S
C648 H666 0.952 . S
C649 C648 1.379 . S
C649 C650 1.390 . S
C649 H676 0.949 . S
C650 C649 1.390 . S
C650 C651 1.357 . S
C651 C650 1.357 . S
C651 C652 1.370 . S
C651 H677 0.950 . S
C652 N647 1.307 . S
C652 C651 1.370 . S
C652 H670 0.948 . S
Zn653 N647 2.020 . S
Zn653 O662 2.039 . S
Zn653 O668 2.034 . S
Zn653 O672 2.025 . S
Zn653 O674 2.024 . S
C654 O673 1.246 . S
C654 O674 1.249 . S
N655 C656 1.307 . S
N655 C657 1.333 . S
N655 Zn661 2.020 . S
C656 N655 1.307 . S
C656 C660 1.370 . S
C656 H667 0.948 . S
C657 N655 1.333 . S
C657 C658 1.379 . S
C657 H665 0.952 . S
C658 C657 1.379 . S
C658 C659 1.390 . S
C658 H678 0.949 . S
C659 C658 1.390 . S
C659 C660 1.357 . S
C660 C656 1.370 . S
C660 C659 1.357 . S
C660 H679 0.950 . S
Zn661 N655 2.020 . S
Zn661 O664 2.025 . S
Zn661 O669 2.024 . S
Zn661 O671 2.039 . S
Zn661 O673 2.034 . S
O662 C646 1.251 . S
O662 Zn653 2.039 . S
C663 O668 1.246 . S
C663 O669 1.249 . S
O664 C646 1.254 . S
O664 Zn661 2.025 . S
H665 C657 0.952 . S
H666 C648 0.952 . S
H667 C656 0.948 . S
O668 Zn653 2.034 . S
O668 C663 1.246 . S
O669 Zn661 2.024 . S
O669 C663 1.249 . S
H670 C652 0.948 . S
O671 Zn661 2.039 . S
O671 C675 1.251 . S
O672 Zn653 2.025 . S
O672 C675 1.254 . S
O673 C654 1.246 . S
O673 Zn661 2.034 . S
O674 Zn653 2.024 . S
O674 C654 1.249 . S
C675 O671 1.251 . S
C675 O672 1.254 . S
H676 C649 0.949 . S
H677 C651 0.950 . S
H678 C658 0.949 . S
H679 C660 0.950 . S
C680 O696 1.251 . S
C680 O698 1.254 . S
N681 C682 1.333 . S
N681 C686 1.307 . S
N681 Zn687 2.020 . S
C682 N681 1.333 . S
C682 C683 1.379 . S
C682 H700 0.952 . S
C683 C682 1.379 . S
C683 C684 1.390 . S
C683 H710 0.949 . S
C684 C683 1.390 . S
C684 C685 1.357 . S
C685 C684 1.357 . S
C685 C686 1.370 . S
C685 H711 0.950 . S
C686 N681 1.307 . S
C686 C685 1.370 . S
C686 H704 0.948 . S
Zn687 N681 2.020 . S
Zn687 O696 2.039 . S
Zn687 O702 2.034 . S
Zn687 O706 2.025 . S
Zn687 O708 2.024 . S
C688 O707 1.246 . S
C688 O708 1.249 . S
N689 C690 1.307 . S
N689 C691 1.333 . S
N689 Zn695 2.020 . S
C690 N689 1.307 . S
C690 C694 1.370 . S
C690 H701 0.948 . S
C691 N689 1.333 . S
C691 C692 1.379 . S
C691 H699 0.952 . S
C692 C691 1.379 . S
C692 C693 1.390 . S
C692 H712 0.949 . S
C693 C692 1.390 . S
C693 C694 1.357 . S
C694 C690 1.370 . S
C694 C693 1.357 . S
C694 H713 0.950 . S
Zn695 N689 2.020 . S
Zn695 O698 2.025 . S
Zn695 O703 2.024 . S
Zn695 O705 2.039 . S
Zn695 O707 2.034 . S
O696 C680 1.251 . S
O696 Zn687 2.039 . S
C697 O702 1.246 . S
C697 O703 1.249 . S
O698 C680 1.254 . S
O698 Zn695 2.025 . S
H699 C691 0.952 . S
H700 C682 0.952 . S
H701 C690 0.948 . S
O702 Zn687 2.034 . S
O702 C697 1.246 . S
O703 Zn695 2.024 . S
O703 C697 1.249 . S
H704 C686 0.948 . S
O705 Zn695 2.039 . S
O705 C709 1.251 . S
O706 Zn687 2.025 . S
O706 C709 1.254 . S
O707 C688 1.246 . S
O707 Zn695 2.034 . S
O708 Zn687 2.024 . S
O708 C688 1.249 . S
C709 O705 1.251 . S
C709 O706 1.254 . S
H710 C683 0.949 . S
H711 C685 0.950 . S
H712 C692 0.949 . S
H713 C694 0.950 . S
C714 O730 1.251 1_545 S
C714 O732 1.254 . S
N715 C716 1.333 . S
N715 C720 1.307 . S
N715 Zn721 2.020 . S
C716 N715 1.333 . S
C716 C717 1.379 . S
C716 H734 0.952 . S
C717 C716 1.379 . S
C717 C718 1.390 . S
C717 H744 0.949 . S
C718 C717 1.390 . S
C718 C719 1.357 . S
C719 C718 1.357 . S
C719 C720 1.370 . S
C719 H745 0.950 . S
C720 N715 1.307 . S
C720 C719 1.370 . S
C720 H738 0.948 . S
Zn721 N715 2.020 . S
Zn721 O730 2.039 . S
Zn721 O736 2.034 . S
Zn721 O740 2.025 . S
Zn721 O742 2.024 . S
C722 O741 1.262 . S
C722 O742 1.231 1_545 S
N723 C724 1.307 . S
N723 C725 1.333 . S
N723 Zn729 2.020 . S
C724 N723 1.307 . S
C724 C728 1.370 . S
C724 H735 0.948 . S
C725 N723 1.333 . S
C725 C726 1.379 . S
C725 H733 0.952 . S
C726 C725 1.379 . S
C726 C727 1.390 . S
C726 H746 0.949 . S
C727 C726 1.390 . S
C727 C728 1.357 . S
C728 C724 1.370 . S
C728 C727 1.357 . S
C728 H747 0.950 . S
Zn729 N723 2.020 . S
Zn729 O732 2.025 . S
Zn729 O737 2.024 . S
Zn729 O739 2.039 . S
Zn729 O741 2.034 . S
O730 C714 1.251 1_565 S
O730 Zn721 2.039 . S
C731 O736 1.247 . S
C731 O737 1.247 1_565 S
O732 C714 1.254 . S
O732 Zn729 2.025 . S
H733 C725 0.952 . S
H734 C716 0.952 . S
H735 C724 0.948 . S
O736 Zn721 2.034 . S
O736 C731 1.247 . S
O737 Zn729 2.024 . S
O737 C731 1.247 1_545 S
H738 C720 0.948 . S
O739 Zn729 2.039 . S
O739 C743 1.251 1_545 S
O740 Zn721 2.025 . S
O740 C743 1.254 . S
O741 C722 1.262 . S
O741 Zn729 2.034 . S
O742 Zn721 2.024 . S
O742 C722 1.231 1_565 S
C743 O739 1.251 1_565 S
C743 O740 1.254 . S
H744 C717 0.949 . S
H745 C719 0.950 . S
H746 C726 0.949 . S
H747 C728 0.950 . S
C748 O764 1.251 1_545 S
C748 O766 1.254 . S
N749 C750 1.333 . S
N749 C754 1.307 . S
N749 Zn755 2.020 . S
C750 N749 1.333 . S
C750 C751 1.379 . S
C750 H768 0.952 . S
C751 C750 1.379 . S
C751 C752 1.390 . S
C751 H778 0.949 . S
C752 C751 1.390 . S
C752 C753 1.357 . S
C753 C752 1.357 . S
C753 C754 1.370 . S
C753 H779 0.950 . S
C754 N749 1.307 . S
C754 C753 1.370 . S
C754 H772 0.948 . S
Zn755 N749 2.020 . S
Zn755 O764 2.039 . S
Zn755 O770 2.034 . S
Zn755 O774 2.025 . S
Zn755 O776 2.024 . S
C756 O775 1.262 . S
C756 O776 1.231 1_545 S
N757 C758 1.307 . S
N757 C759 1.333 . S
N757 Zn763 2.020 . S
C758 N757 1.307 . S
C758 C762 1.370 . S
C758 H769 0.948 . S
C759 N757 1.333 . S
C759 C760 1.379 . S
C759 H767 0.952 . S
C760 C759 1.379 . S
C760 C761 1.390 . S
C760 H780 0.949 . S
C761 C760 1.390 . S
C761 C762 1.357 . S
C762 C758 1.370 . S
C762 C761 1.357 . S
C762 H781 0.950 . S
Zn763 N757 2.020 . S
Zn763 O766 2.025 . S
Zn763 O771 2.024 . S
Zn763 O773 2.039 . S
Zn763 O775 2.034 . S
O764 C748 1.251 1_565 S
O764 Zn755 2.039 . S
C765 O770 1.247 . S
C765 O771 1.247 1_565 S
O766 C748 1.254 . S
O766 Zn763 2.025 . S
H767 C759 0.952 . S
H768 C750 0.952 . S
H769 C758 0.948 . S
O770 Zn755 2.034 . S
O770 C765 1.247 . S
O771 Zn763 2.024 . S
O771 C765 1.247 1_545 S
H772 C754 0.948 . S
O773 Zn763 2.039 . S
O773 C777 1.251 1_545 S
O774 Zn755 2.025 . S
O774 C777 1.254 . S
O775 C756 1.262 . S
O775 Zn763 2.034 . S
O776 Zn755 2.024 . S
O776 C756 1.231 1_565 S
C777 O773 1.251 1_565 S
C777 O774 1.254 . S
H778 C751 0.949 . S
H779 C753 0.950 . S
H780 C760 0.949 . S
H781 C762 0.950 . S
C782 O798 1.251 . S
C782 O800 1.254 . S
N783 C784 1.333 . S
N783 C788 1.307 . S
N783 Zn789 2.020 . S
C784 N783 1.333 . S
C784 C785 1.379 . S
C784 H802 0.952 . S
C785 C784 1.379 . S
C785 C786 1.390 . S
C785 H812 0.949 . S
C786 C785 1.390 . S
C786 C787 1.357 . S
C787 C786 1.357 . S
C787 C788 1.370 . S
C787 H813 0.950 . S
C788 N783 1.307 . S
C788 C787 1.370 . S
C788 H806 0.948 . S
Zn789 N783 2.020 . S
Zn789 O798 2.039 . S
Zn789 O804 2.034 . S
Zn789 O808 2.025 . S
Zn789 O810 2.024 . S
C790 O809 1.246 . S
C790 O810 1.249 . S
N791 C792 1.307 . S
N791 C793 1.333 . S
N791 Zn797 2.020 . S
C792 N791 1.307 . S
C792 C796 1.370 . S
C792 H803 0.948 . S
C793 N791 1.333 . S
C793 C794 1.379 . S
C793 H801 0.952 . S
C794 C793 1.379 . S
C794 C795 1.390 . S
C794 H814 0.949 . S
C795 C794 1.390 . S
C795 C796 1.357 . S
C796 C792 1.370 . S
C796 C795 1.357 . S
C796 H815 0.950 . S
Zn797 N791 2.020 . S
Zn797 O800 2.025 . S
Zn797 O805 2.024 . S
Zn797 O807 2.039 . S
Zn797 O809 2.034 . S
O798 C782 1.251 . S
O798 Zn789 2.039 . S
C799 O804 1.246 . S
C799 O805 1.249 . S
O800 C782 1.254 . S
O800 Zn797 2.025 . S
H801 C793 0.952 . S
H802 C784 0.952 . S
H803 C792 0.948 . S
O804 Zn789 2.034 . S
O804 C799 1.246 . S
O805 Zn797 2.024 . S
O805 C799 1.249 . S
H806 C788 0.948 . S
O807 Zn797 2.039 . S
O807 C811 1.251 . S
O808 Zn789 2.025 . S
O808 C811 1.254 . S
O809 C790 1.246 . S
O809 Zn797 2.034 . S
O810 Zn789 2.024 . S
O810 C790 1.249 . S
C811 O807 1.251 . S
C811 O808 1.254 . S
H812 C785 0.949 . S
H813 C787 0.950 . S
H814 C794 0.949 . S
H815 C796 0.950 . S
C816 O832 1.251 . S
C816 O834 1.254 . S
N817 C818 1.333 . S
N817 C822 1.307 . S
N817 Zn823 2.020 . S
C818 N817 1.333 . S
C818 C819 1.379 . S
C818 H836 0.952 . S
C819 C818 1.379 . S
C819 C820 1.390 . S
C819 H846 0.949 . S
C820 C819 1.390 . S
C820 C821 1.357 . S
C821 C820 1.357 . S
C821 C822 1.370 . S
C821 H847 0.950 . S
C822 N817 1.307 . S
C822 C821 1.370 . S
C822 H840 0.948 . S
Zn823 N817 2.020 . S
Zn823 O832 2.039 . S
Zn823 O838 2.034 . S
Zn823 O842 2.025 . S
Zn823 O844 2.024 . S
C824 O843 1.246 . S
C824 O844 1.249 . S
N825 C826 1.307 . S
N825 C827 1.333 . S
N825 Zn831 2.020 . S
C826 N825 1.307 . S
C826 C830 1.370 . S
C826 H837 0.948 . S
C827 N825 1.333 . S
C827 C828 1.379 . S
C827 H835 0.952 . S
C828 C827 1.379 . S
C828 C829 1.390 . S
C828 H848 0.949 . S
C829 C828 1.390 . S
C829 C830 1.357 . S
C830 C826 1.370 . S
C830 C829 1.357 . S
C830 H849 0.950 . S
Zn831 N825 2.020 . S
Zn831 O834 2.025 . S
Zn831 O839 2.024 . S
Zn831 O841 2.039 . S
Zn831 O843 2.034 . S
O832 C816 1.251 . S
O832 Zn823 2.039 . S
C833 O838 1.246 . S
C833 O839 1.249 . S
O834 C816 1.254 . S
O834 Zn831 2.025 . S
H835 C827 0.952 . S
H836 C818 0.952 . S
H837 C826 0.948 . S
O838 Zn823 2.034 . S
O838 C833 1.246 . S
O839 Zn831 2.024 . S
O839 C833 1.249 . S
H840 C822 0.948 . S
O841 Zn831 2.039 . S
O841 C845 1.251 . S
O842 Zn823 2.025 . S
O842 C845 1.254 . S
O843 C824 1.246 . S
O843 Zn831 2.034 . S
O844 Zn823 2.024 . S
O844 C824 1.249 . S
C845 O841 1.251 . S
C845 O842 1.254 . S
H846 C819 0.949 . S
H847 C821 0.950 . S
H848 C828 0.949 . S
H849 C830 0.950 . S
C850 O866 1.251 . S
C850 O868 1.254 . S
N851 C852 1.333 . S
N851 C856 1.307 . S
N851 Zn857 2.020 . S
C852 N851 1.333 . S
C852 C853 1.379 . S
C852 H870 0.952 . S
C853 C852 1.379 . S
C853 C854 1.390 . S
C853 H880 0.949 . S
C854 C853 1.390 . S
C854 C855 1.357 . S
C855 C854 1.357 . S
C855 C856 1.370 . S
C855 H881 0.950 . S
C856 N851 1.307 . S
C856 C855 1.370 . S
C856 H874 0.948 . S
Zn857 N851 2.020 . S
Zn857 O866 2.039 . S
Zn857 O872 2.034 . S
Zn857 O876 2.025 . S
Zn857 O878 2.024 . S
C858 O877 1.246 . S
C858 O878 1.249 . S
N859 C860 1.307 . S
N859 C861 1.333 . S
N859 Zn865 2.020 . S
C860 N859 1.307 . S
C860 C864 1.370 . S
C860 H871 0.948 . S
C861 N859 1.333 . S
C861 C862 1.379 . S
C861 H869 0.952 . S
C862 C861 1.379 . S
C862 C863 1.390 . S
C862 H882 0.949 . S
C863 C862 1.390 . S
C863 C864 1.357 . S
C864 C860 1.370 . S
C864 C863 1.357 . S
C864 H883 0.950 . S
Zn865 N859 2.020 . S
Zn865 O868 2.025 . S
Zn865 O873 2.024 . S
Zn865 O875 2.039 . S
Zn865 O877 2.034 . S
O866 C850 1.251 . S
O866 Zn857 2.039 . S
C867 O872 1.246 . S
C867 O873 1.249 . S
O868 C850 1.254 . S
O868 Zn865 2.025 . S
H869 C861 0.952 . S
H870 C852 0.952 . S
H871 C860 0.948 . S
O872 Zn857 2.034 . S
O872 C867 1.246 . S
O873 Zn865 2.024 . S
O873 C867 1.249 . S
H874 C856 0.948 . S
O875 Zn865 2.039 . S
O875 C879 1.251 . S
O876 Zn857 2.025 . S
O876 C879 1.254 . S
O877 C858 1.246 . S
O877 Zn865 2.034 . S
O878 Zn857 2.024 . S
O878 C858 1.249 . S
C879 O875 1.251 . S
C879 O876 1.254 . S
H880 C853 0.949 . S
H881 C855 0.950 . S
H882 C862 0.949 . S
H883 C864 0.950 . S
C884 O900 1.251 . S
C884 O902 1.254 . S
N885 C886 1.333 1_554 S
N885 C890 1.307 . S
N885 Zn891 2.020 . S
C886 N885 1.333 1_556 S
C886 C887 1.379 . S
C886 H904 0.952 . S
C887 C886 1.379 . S
C887 C888 1.390 . S
C887 H914 0.949 . S
C888 C887 1.390 . S
C888 C889 1.357 1_556 S
C889 C888 1.357 1_554 S
C889 C890 1.370 . S
C889 H915 0.950 . S
C890 N885 1.307 . S
C890 C889 1.370 . S
C890 H908 0.948 . S
Zn891 N885 2.020 . S
Zn891 O900 2.039 1_554 S
Zn891 O906 2.034 . S
Zn891 O910 2.025 . S
Zn891 O912 2.024 1_554 S
C892 O911 1.246 1_556 S
C892 O912 1.249 . S
N893 C894 1.307 1_554 S
N893 C895 1.333 . S
N893 Zn899 2.020 . S
C894 N893 1.307 1_556 S
C894 C898 1.370 . S
C894 H905 0.948 . S
C895 N893 1.333 . S
C895 C896 1.379 . S
C895 H903 0.952 . S
C896 C895 1.379 . S
C896 C897 1.390 . S
C896 H916 0.949 . S
C897 C896 1.390 . S
C897 C898 1.357 1_554 S
C898 C894 1.370 . S
C898 C897 1.357 1_556 S
C898 H917 0.950 . S
Zn899 N893 2.020 . S
Zn899 O902 2.025 1_554 S
Zn899 O907 2.024 . S
Zn899 O909 2.039 . S
Zn899 O911 2.034 . S
O900 C884 1.251 . S
O900 Zn891 2.039 1_556 S
C901 O906 1.246 . S
C901 O907 1.249 . S
O902 C884 1.254 . S
O902 Zn899 2.025 1_556 S
H903 C895 0.952 . S
H904 C886 0.952 . S
H905 C894 0.948 . S
O906 Zn891 2.034 . S
O906 C901 1.246 . S
O907 Zn899 2.024 . S
O907 C901 1.249 . S
H908 C890 0.948 . S
O909 Zn899 2.039 . S
O909 C913 1.251 . S
O910 Zn891 2.025 . S
O910 C913 1.254 . S
O911 C892 1.246 1_554 S
O911 Zn899 2.034 . S
O912 Zn891 2.024 1_556 S
O912 C892 1.249 . S
C913 O909 1.251 . S
C913 O910 1.254 . S
H914 C887 0.949 . S
H915 C889 0.950 . S
H916 C896 0.949 . S
H917 C898 0.950 . S
C918 O934 1.251 . S
C918 O936 1.254 . S
N919 C920 1.333 1_554 S
N919 C924 1.307 . S
N919 Zn925 2.020 . S
C920 N919 1.333 1_556 S
C920 C921 1.379 . S
C920 H938 0.952 . S
C921 C920 1.379 . S
C921 C922 1.390 . S
C921 H948 0.949 . S
C922 C921 1.390 . S
C922 C923 1.357 1_556 S
C923 C922 1.357 1_554 S
C923 C924 1.370 . S
C923 H949 0.950 . S
C924 N919 1.307 . S
C924 C923 1.370 . S
C924 H942 0.948 . S
Zn925 N919 2.020 . S
Zn925 O934 2.039 1_554 S
Zn925 O940 2.034 . S
Zn925 O944 2.025 . S
Zn925 O946 2.024 1_554 S
C926 O945 1.246 1_556 S
C926 O946 1.249 . S
N927 C928 1.307 1_554 S
N927 C929 1.333 . S
N927 Zn933 2.020 . S
C928 N927 1.307 1_556 S
C928 C932 1.370 . S
C928 H939 0.948 . S
C929 N927 1.333 . S
C929 C930 1.379 . S
C929 H937 0.952 . S
C930 C929 1.379 . S
C930 C931 1.390 . S
C930 H950 0.949 . S
C931 C930 1.390 . S
C931 C932 1.357 1_554 S
C932 C928 1.370 . S
C932 C931 1.357 1_556 S
C932 H951 0.950 . S
Zn933 N927 2.020 . S
Zn933 O936 2.025 1_554 S
Zn933 O941 2.024 . S
Zn933 O943 2.039 . S
Zn933 O945 2.034 . S
O934 C918 1.251 . S
O934 Zn925 2.039 1_556 S
C935 O940 1.246 . S
C935 O941 1.249 . S
O936 C918 1.254 . S
O936 Zn933 2.025 1_556 S
H937 C929 0.952 . S
H938 C920 0.952 . S
H939 C928 0.948 . S
O940 Zn925 2.034 . S
O940 C935 1.246 . S
O941 Zn933 2.024 . S
O941 C935 1.249 . S
H942 C924 0.948 . S
O943 Zn933 2.039 . S
O943 C947 1.251 . S
O944 Zn925 2.025 . S
O944 C947 1.254 . S
O945 C926 1.246 1_554 S
O945 Zn933 2.034 . S
O946 Zn925 2.024 1_556 S
O946 C926 1.249 . S
C947 O943 1.251 . S
C947 O944 1.254 . S
H948 C921 0.949 . S
H949 C923 0.950 . S
H950 C930 0.949 . S
H951 C932 0.950 . S
C952 O968 1.251 . S
C952 O970 1.254 . S
N953 C954 1.333 . S
N953 C958 1.307 . S
N953 Zn959 2.020 . S
C954 N953 1.333 . S
C954 C955 1.379 . S
C954 H972 0.952 . S
C955 C954 1.379 . S
C955 C956 1.390 . S
C955 H982 0.949 . S
C956 C955 1.390 . S
C956 C957 1.357 . S
C957 C956 1.357 . S
C957 C958 1.370 . S
C957 H983 0.950 . S
C958 N953 1.307 . S
C958 C957 1.370 . S
C958 H976 0.948 . S
Zn959 N953 2.020 . S
Zn959 O968 2.039 . S
Zn959 O974 2.034 . S
Zn959 O978 2.025 . S
Zn959 O980 2.024 . S
C960 O979 1.246 . S
C960 O980 1.249 . S
N961 C962 1.307 . S
N961 C963 1.333 . S
N961 Zn967 2.020 . S
C962 N961 1.307 . S
C962 C966 1.370 . S
C962 H973 0.948 . S
C963 N961 1.333 . S
C963 C964 1.379 . S
C963 H971 0.952 . S
C964 C963 1.379 . S
C964 C965 1.390 . S
C964 H984 0.949 . S
C965 C964 1.390 . S
C965 C966 1.357 . S
C966 C962 1.370 . S
C966 C965 1.357 . S
C966 H985 0.950 . S
Zn967 N961 2.020 . S
Zn967 O970 2.025 . S
Zn967 O975 2.024 . S
Zn967 O977 2.039 . S
Zn967 O979 2.034 . S
O968 C952 1.251 . S
O968 Zn959 2.039 . S
C969 O974 1.246 . S
C969 O975 1.249 . S
O970 C952 1.254 . S
O970 Zn967 2.025 . S
H971 C963 0.952 . S
H972 C954 0.952 . S
H973 C962 0.948 . S
O974 Zn959 2.034 . S
O974 C969 1.246 . S
O975 Zn967 2.024 . S
O975 C969 1.249 . S
H976 C958 0.948 . S
O977 Zn967 2.039 . S
O977 C981 1.251 . S
O978 Zn959 2.025 . S
O978 C981 1.254 . S
O979 C960 1.246 . S
O979 Zn967 2.034 . S
O980 Zn959 2.024 . S
O980 C960 1.249 . S
C981 O977 1.251 . S
C981 O978 1.254 . S
H982 C955 0.949 . S
H983 C957 0.950 . S
H984 C964 0.949 . S
H985 C966 0.950 . S
C986 O1002 1.251 . S
C986 O1004 1.254 . S
N987 C988 1.333 . S
N987 C992 1.307 . S
N987 Zn993 2.020 . S
C988 N987 1.333 . S
C988 C989 1.379 . S
C988 H1006 0.952 . S
C989 C988 1.379 . S
C989 C990 1.390 . S
C989 H1016 0.949 . S
C990 C989 1.390 . S
C990 C991 1.357 . S
C991 C990 1.357 . S
C991 C992 1.370 . S
C991 H1017 0.950 . S
C992 N987 1.307 . S
C992 C991 1.370 . S
C992 H1010 0.948 . S
Zn993 N987 2.020 . S
Zn993 O1002 2.039 . S
Zn993 O1008 2.034 . S
Zn993 O1012 2.025 . S
Zn993 O1014 2.024 . S
C994 O1013 1.246 . S
C994 O1014 1.249 . S
N995 C996 1.307 . S
N995 C997 1.333 . S
N995 Zn1001 2.020 . S
C996 N995 1.307 . S
C996 C1000 1.370 . S
C996 H1007 0.948 . S
C997 N995 1.333 . S
C997 C998 1.379 . S
C997 H1005 0.952 . S
C998 C997 1.379 . S
C998 C999 1.390 . S
C998 H1018 0.949 . S
C999 C998 1.390 . S
C999 C1000 1.357 . S
C1000 C996 1.370 . S
C1000 C999 1.357 . S
C1000 H1019 0.950 . S
Zn1001 N995 2.020 . S
Zn1001 O1004 2.025 . S
Zn1001 O1009 2.024 . S
Zn1001 O1011 2.039 . S
Zn1001 O1013 2.034 . S
O1002 C986 1.251 . S
O1002 Zn993 2.039 . S
C1003 O1008 1.246 . S
C1003 O1009 1.249 . S
O1004 C986 1.254 . S
O1004 Zn1001 2.025 . S
H1005 C997 0.952 . S
H1006 C988 0.952 . S
H1007 C996 0.948 . S
O1008 Zn993 2.034 . S
O1008 C1003 1.246 . S
O1009 Zn1001 2.024 . S
O1009 C1003 1.249 . S
H1010 C992 0.948 . S
O1011 Zn1001 2.039 . S
O1011 C1015 1.251 . S
O1012 Zn993 2.025 . S
O1012 C1015 1.254 . S
O1013 C994 1.246 . S
O1013 Zn1001 2.034 . S
O1014 Zn993 2.024 . S
O1014 C994 1.249 . S
C1015 O1011 1.251 . S
C1015 O1012 1.254 . S
H1016 C989 0.949 . S
H1017 C991 0.950 . S
H1018 C998 0.949 . S
H1019 C1000 0.950 . S
C1020 O1036 1.251 . S
C1020 O1038 1.254 . S
N1021 C1022 1.333 . S
N1021 C1026 1.307 1_556 S
N1021 Zn1027 2.020 . S
C1022 N1021 1.333 . S
C1022 C1023 1.379 . S
C1022 H1040 0.952 . S
C1023 C1022 1.379 . S
C1023 C1024 1.390 . S
C1023 H1050 0.949 . S
C1024 C1023 1.390 . S
C1024 C1025 1.357 1_556 S
C1025 C1024 1.357 1_554 S
C1025 C1026 1.370 . S
C1025 H1051 0.950 . S
C1026 N1021 1.307 1_554 S
C1026 C1025 1.370 . S
C1026 H1044 0.948 . S
Zn1027 N1021 2.020 . S
Zn1027 O1036 2.039 . S
Zn1027 O1042 2.034 . S
Zn1027 O1046 2.025 1_556 S
Zn1027 O1048 2.024 . S
C1028 O1047 1.246 . S
C1028 O1048 1.249 . S
N1029 C1030 1.307 . S
N1029 C1031 1.333 1_556 S
N1029 Zn1035 2.020 . S
C1030 N1029 1.307 . S
C1030 C1034 1.370 . S
C1030 H1041 0.948 . S
C1031 N1029 1.333 1_554 S
C1031 C1032 1.379 . S
C1031 H1039 0.952 . S
C1032 C1031 1.379 . S
C1032 C1033 1.390 . S
C1032 H1052 0.949 . S
C1033 C1032 1.390 . S
C1033 C1034 1.357 1_554 S
C1034 C1030 1.370 . S
C1034 C1033 1.357 1_556 S
C1034 H1053 0.950 . S
Zn1035 N1029 2.020 . S
Zn1035 O1038 2.025 . S
Zn1035 O1043 2.024 1_556 S
Zn1035 O1045 2.039 1_556 S
Zn1035 O1047 2.034 . S
O1036 C1020 1.251 . S
O1036 Zn1027 2.039 . S
C1037 O1042 1.246 1_554 S
C1037 O1043 1.249 . S
O1038 C1020 1.254 . S
O1038 Zn1035 2.025 . S
H1039 C1031 0.952 . S
H1040 C1022 0.952 . S
H1041 C1030 0.948 . S
O1042 Zn1027 2.034 . S
O1042 C1037 1.246 1_556 S
O1043 Zn1035 2.024 1_554 S
O1043 C1037 1.249 . S
H1044 C1026 0.948 . S
O1045 Zn1035 2.039 1_554 S
O1045 C1049 1.251 . S
O1046 Zn1027 2.025 1_554 S
O1046 C1049 1.254 . S
O1047 C1028 1.246 . S
O1047 Zn1035 2.034 . S
O1048 Zn1027 2.024 . S
O1048 C1028 1.249 . S
C1049 O1045 1.251 . S
C1049 O1046 1.254 . S
H1050 C1023 0.949 . S
H1051 C1025 0.950 . S
H1052 C1032 0.949 . S
H1053 C1034 0.950 . S
C1054 O1070 1.251 . S
C1054 O1072 1.254 . S
N1055 C1056 1.333 . S
N1055 C1060 1.307 1_556 S
N1055 Zn1061 2.020 . S
C1056 N1055 1.333 . S
C1056 C1057 1.379 . S
C1056 H1074 0.952 . S
C1057 C1056 1.379 . S
C1057 C1058 1.390 . S
C1057 H1084 0.949 . S
C1058 C1057 1.390 . S
C1058 C1059 1.357 1_556 S
C1059 C1058 1.357 1_554 S
C1059 C1060 1.370 . S
C1059 H1085 0.950 . S
C1060 N1055 1.307 1_554 S
C1060 C1059 1.370 . S
C1060 H1078 0.948 . S
Zn1061 N1055 2.020 . S
Zn1061 O1070 2.039 . S
Zn1061 O1076 2.034 . S
Zn1061 O1080 2.025 1_556 S
Zn1061 O1082 2.024 . S
C1062 O1081 1.246 . S
C1062 O1082 1.249 . S
N1063 C1064 1.307 . S
N1063 C1065 1.333 1_556 S
N1063 Zn1069 2.020 . S
C1064 N1063 1.307 . S
C1064 C1068 1.370 . S
C1064 H1075 0.948 . S
C1065 N1063 1.333 1_554 S
C1065 C1066 1.379 . S
C1065 H1073 0.952 . S
C1066 C1065 1.379 . S
C1066 C1067 1.390 . S
C1066 H1086 0.949 . S
C1067 C1066 1.390 . S
C1067 C1068 1.357 1_554 S
C1068 C1064 1.370 . S
C1068 C1067 1.357 1_556 S
C1068 H1087 0.950 . S
Zn1069 N1063 2.020 . S
Zn1069 O1072 2.025 . S
Zn1069 O1077 2.024 1_556 S
Zn1069 O1079 2.039 1_556 S
Zn1069 O1081 2.034 . S
O1070 C1054 1.251 . S
O1070 Zn1061 2.039 . S
C1071 O1076 1.246 1_554 S
C1071 O1077 1.249 . S
O1072 C1054 1.254 . S
O1072 Zn1069 2.025 . S
H1073 C1065 0.952 . S
H1074 C1056 0.952 . S
H1075 C1064 0.948 . S
O1076 Zn1061 2.034 . S
O1076 C1071 1.246 1_556 S
O1077 Zn1069 2.024 1_554 S
O1077 C1071 1.249 . S
H1078 C1060 0.948 . S
O1079 Zn1069 2.039 1_554 S
O1079 C1083 1.251 . S
O1080 Zn1061 2.025 1_554 S
O1080 C1083 1.254 . S
O1081 C1062 1.246 . S
O1081 Zn1069 2.034 . S
O1082 Zn1061 2.024 . S
O1082 C1062 1.249 . S
C1083 O1079 1.251 . S
C1083 O1080 1.254 . S
H1084 C1057 0.949 . S
H1085 C1059 0.950 . S
H1086 C1066 0.949 . S
H1087 C1068 0.950 . S
H1088 C1094 0.930 . S
H1089 C1098 0.930 . S
H1090 C1103 0.929 . S
H1091 C1101 0.929 . S
H1092 C1096 0.929 1_556 S
H1093 C1102 0.929 1_554 S
C1094 H1088 0.930 . S
C1094 C1095 1.367 . S
C1094 C1102 1.378 . S
C1095 C1094 1.367 . S
C1095 C1103 1.433 . S
C1096 H1092 0.929 1_554 S
C1096 C1098 1.378 . S
C1096 C1100 1.350 . S
C1097 C1100 1.463 1_556 S
C1097 C1102 1.350 . S
C1097 N1105 1.427 . S
C1098 H1089 0.930 . S
C1098 C1096 1.378 . S
C1098 C1099 1.367 . S
C1099 C1098 1.367 . S
C1099 C1101 1.433 . S
C1100 C1096 1.350 . S
C1100 C1097 1.463 1_554 S
C1100 N1104 1.427 . S
C1101 H1091 0.929 . S
C1101 C1099 1.433 . S
C1101 N1104 1.384 . S
C1102 H1093 0.929 1_556 S
C1102 C1094 1.378 . S
C1102 C1097 1.350 . S
C1103 H1090 0.929 . S
C1103 C1095 1.433 . S
C1103 N1105 1.384 . S
N1104 C1100 1.427 . S
N1104 C1101 1.384 . S
N1105 C1097 1.427 . S
N1105 C1103 1.384 . S
H1106 C1112 0.930 . S
H1107 C1116 0.930 . S
H1108 C1121 0.929 . S
H1109 C1119 0.929 . S
H1110 C1114 0.929 . S
H1111 C1120 0.929 . S
C1112 H1106 0.930 . S
C1112 C1113 1.351 1_565 S
C1112 C1120 1.378 1_556 S
C1113 C1112 1.351 1_545 S
C1113 C1121 1.450 . S
C1114 H1110 0.929 . S
C1114 C1116 1.378 1_556 S
C1114 C1118 1.351 1_556 S
C1115 C1118 1.462 1_456 S
C1115 C1120 1.351 1_546 S
C1115 N1123 1.426 . S
C1116 H1107 0.930 . S
C1116 C1114 1.378 1_554 S
C1116 C1117 1.357 1_545 S
C1117 C1116 1.357 1_565 S
C1117 C1119 1.444 . S
C1118 C1114 1.351 1_554 S
C1118 C1115 1.462 1_654 S
C1118 N1122 1.426 1_545 S
C1119 H1109 0.929 . S
C1119 C1117 1.444 . S
C1119 N1122 1.384 . S
C1120 H1111 0.929 . S
C1120 C1112 1.378 1_554 S
C1120 C1115 1.351 1_564 S
C1121 H1108 0.929 . S
C1121 C1113 1.450 . S
C1121 N1123 1.384 . S
N1122 C1118 1.426 1_565 S
N1122 C1119 1.384 . S
N1123 C1115 1.426 . S
N1123 C1121 1.384 . S
H1124 C1130 0.930 . S
H1125 C1134 0.930 . S
H1126 C1139 0.929 . S
H1127 C1137 0.929 . S
H1128 C1132 0.929 . S
H1129 C1138 0.929 . S
C1130 H1124 0.930 . S
C1130 C1131 1.409 . S
C1130 C1138 1.378 . S
C1131 C1130 1.409 . S
C1131 C1139 1.392 1_545 S
C1132 H1128 0.929 . S
C1132 C1134 1.378 . S
C1132 C1136 1.361 . S
C1133 C1136 1.461 1_545 S
C1133 C1138 1.371 . S
C1133 N1141 1.407 1_545 S
C1134 H1125 0.930 . S
C1134 C1132 1.378 . S
C1134 C1135 1.399 . S
C1135 C1134 1.399 . S
C1135 C1137 1.401 1_565 S
C1136 C1132 1.361 . S
C1136 C1133 1.461 1_565 S
C1136 N1140 1.416 1_565 S
C1137 H1127 0.929 . S
C1137 C1135 1.401 1_545 S
C1137 N1140 1.384 . S
C1138 H1129 0.929 . S
C1138 C1130 1.378 . S
C1138 C1133 1.371 . S
C1139 H1126 0.929 . S
C1139 C1131 1.392 1_565 S
C1139 N1141 1.384 . S
N1140 C1136 1.416 1_545 S
N1140 C1137 1.384 . S
N1141 C1133 1.407 1_565 S
N1141 C1139 1.384 . S
H1142 C1148 0.930 . S
H1143 C1152 0.930 . S
H1144 C1157 0.929 . S
H1145 C1155 0.929 . S
H1146 C1150 0.929 . S
H1147 C1156 0.929 . S
C1148 H1142 0.930 . S
C1148 C1149 1.367 . S
C1148 C1156 1.378 . S
C1149 C1148 1.367 . S
C1149 C1157 1.433 . S
C1150 H1146 0.929 . S
C1150 C1152 1.378 . S
C1150 C1154 1.350 . S
C1151 C1154 1.463 1_455 S
C1151 C1156 1.350 . S
C1151 N1159 1.427 . S
C1152 H1143 0.930 . S
C1152 C1150 1.378 . S
C1152 C1153 1.367 . S
C1153 C1152 1.367 . S
C1153 C1155 1.433 . S
C1154 C1150 1.350 . S
C1154 C1151 1.463 1_655 S
C1154 N1158 1.427 . S
C1155 H1145 0.929 . S
C1155 C1153 1.433 . S
C1155 N1158 1.384 . S
C1156 H1147 0.929 . S
C1156 C1148 1.378 . S
C1156 C1151 1.350 . S
C1157 H1144 0.929 . S
C1157 C1149 1.433 . S
C1157 N1159 1.384 . S
N1158 C1154 1.427 . S
N1158 C1155 1.384 . S
N1159 C1151 1.427 . S
N1159 C1157 1.384 . S
H1160 C1166 0.930 . S
H1161 C1170 0.930 . S
H1162 C1175 0.929 . S
H1163 C1173 0.929 . S
H1164 C1168 0.929 . S
H1165 C1174 0.929 . S
C1166 H1160 0.930 . S
C1166 C1167 1.367 . S
C1166 C1174 1.378 1_556 S
C1167 C1166 1.367 . S
C1167 C1175 1.433 . S
C1168 H1164 0.929 . S
C1168 C1170 1.378 1_556 S
C1168 C1172 1.350 1_556 S
C1169 C1172 1.463 1_556 S
C1169 C1174 1.350 1_556 S
C1169 N1177 1.427 . S
C1170 H1161 0.930 . S
C1170 C1168 1.378 1_554 S
C1170 C1171 1.367 . S
C1171 C1170 1.367 . S
C1171 C1173 1.433 . S
C1172 C1168 1.350 1_554 S
C1172 C1169 1.463 1_554 S
C1172 N1176 1.427 . S
C1173 H1163 0.929 . S
C1173 C1171 1.433 . S
C1173 N1176 1.384 . S
C1174 H1165 0.929 . S
C1174 C1166 1.378 1_554 S
C1174 C1169 1.350 1_554 S
C1175 H1162 0.929 . S
C1175 C1167 1.433 . S
C1175 N1177 1.384 . S
N1176 C1172 1.427 . S
N1176 C1173 1.384 . S
N1177 C1169 1.427 . S
N1177 C1175 1.384 . S
H1178 C1184 0.930 . S
H1179 C1188 0.930 . S
H1180 C1193 0.929 . S
H1181 C1191 0.929 . S
H1182 C1186 0.929 . S
H1183 C1192 0.929 . S
C1184 H1178 0.930 . S
C1184 C1185 1.367 . S
C1184 C1192 1.378 . S
C1185 C1184 1.367 . S
C1185 C1193 1.433 1_565 S
C1186 H1182 0.929 . S
C1186 C1188 1.378 . S
C1186 C1190 1.374 . S
C1187 C1190 1.459 1_565 S
C1187 C1192 1.387 . S
C1187 N1195 1.391 1_565 S
C1188 H1179 0.930 . S
C1188 C1186 1.378 . S
C1188 C1189 1.417 . S
C1189 C1188 1.417 . S
C1189 C1191 1.382 1_545 S
C1190 C1186 1.374 . S
C1190 C1187 1.459 1_545 S
C1190 N1194 1.404 1_545 S
C1191 H1181 0.929 . S
C1191 C1189 1.382 1_565 S
C1191 N1194 1.384 . S
C1192 H1183 0.929 . S
C1192 C1184 1.378 . S
C1192 C1187 1.387 . S
C1193 H1180 0.929 . S
C1193 C1185 1.433 1_545 S
C1193 N1195 1.384 . S
N1194 C1190 1.404 1_565 S
N1194 C1191 1.384 . S
N1195 C1187 1.391 1_545 S
N1195 C1193 1.384 . S
H1196 C1202 0.930 . S
H1197 C1206 0.930 . S
H1198 C1211 0.929 . S
H1199 C1209 0.929 . S
H1200 C1204 0.929 1_655 S
H1201 C1210 0.929 1_455 S
C1202 H1196 0.930 . S
C1202 C1203 1.367 . S
C1202 C1210 1.378 . S
C1203 C1202 1.367 . S
C1203 C1211 1.433 . S
C1204 H1200 0.929 1_455 S
C1204 C1206 1.378 . S
C1204 C1208 1.350 . S
C1205 C1208 1.463 1_655 S
C1205 C1210 1.350 . S
C1205 N1213 1.427 . S
C1206 H1197 0.930 . S
C1206 C1204 1.378 . S
C1206 C1207 1.367 . S
C1207 C1206 1.367 . S
C1207 C1209 1.433 . S
C1208 C1204 1.350 . S
C1208 C1205 1.463 1_455 S
C1208 N1212 1.427 . S
C1209 H1199 0.929 . S
C1209 C1207 1.433 . S
C1209 N1212 1.384 . S
C1210 H1201 0.929 1_655 S
C1210 C1202 1.378 . S
C1210 C1205 1.350 . S
C1211 H1198 0.929 . S
C1211 C1203 1.433 . S
C1211 N1213 1.384 . S
N1212 C1208 1.427 . S
N1212 C1209 1.384 . S
N1213 C1205 1.427 . S
N1213 C1211 1.384 . S
H1214 C1220 0.930 . S
H1215 C1224 0.930 . S
H1216 C1229 0.929 . S
H1217 C1227 0.929 . S
H1218 C1222 0.929 . S
H1219 C1228 0.929 . S
C1220 H1214 0.930 . S
C1220 C1221 1.367 . S
C1220 C1228 1.378 . S
C1221 C1220 1.367 . S
C1221 C1229 1.433 . S
C1222 H1218 0.929 . S
C1222 C1224 1.378 . S
C1222 C1226 1.350 . S
C1223 C1226 1.463 . S
C1223 C1228 1.350 . S
C1223 N1231 1.427 . S
C1224 H1215 0.930 . S
C1224 C1222 1.378 . S
C1224 C1225 1.367 . S
C1225 C1224 1.367 . S
C1225 C1227 1.433 . S
C1226 C1222 1.350 . S
C1226 C1223 1.463 . S
C1226 N1230 1.427 . S
C1227 H1217 0.929 . S
C1227 C1225 1.433 . S
C1227 N1230 1.384 . S
C1228 H1219 0.929 . S
C1228 C1220 1.378 . S
C1228 C1223 1.350 . S
C1229 H1216 0.929 . S
C1229 C1221 1.433 . S
C1229 N1231 1.384 . S
N1230 C1226 1.427 . S
N1230 C1227 1.384 . S
N1231 C1223 1.427 . S
N1231 C1229 1.384 . S
H1232 C1238 0.930 . S
H1233 C1242 0.930 . S
H1234 C1247 0.929 . S
H1235 C1245 0.929 . S
H1236 C1240 0.929 . S
H1237 C1246 0.929 . S
C1238 H1232 0.930 . S
C1238 C1239 1.367 . S
C1238 C1246 1.378 . S
C1239 C1238 1.367 . S
C1239 C1247 1.433 . S
C1240 H1236 0.929 . S
C1240 C1242 1.378 . S
C1240 C1244 1.350 . S
C1241 C1244 1.463 1_655 S
C1241 C1246 1.350 . S
C1241 N1249 1.427 . S
C1242 H1233 0.930 . S
C1242 C1240 1.378 . S
C1242 C1243 1.367 . S
C1243 C1242 1.367 . S
C1243 C1245 1.433 . S
C1244 C1240 1.350 . S
C1244 C1241 1.463 1_455 S
C1244 N1248 1.427 . S
C1245 H1235 0.929 . S
C1245 C1243 1.433 . S
C1245 N1248 1.384 . S
C1246 H1237 0.929 . S
C1246 C1238 1.378 . S
C1246 C1241 1.350 . S
C1247 H1234 0.929 . S
C1247 C1239 1.433 . S
C1247 N1249 1.384 . S
N1248 C1244 1.427 . S
N1248 C1245 1.384 . S
N1249 C1241 1.427 . S
N1249 C1247 1.384 . S
H1250 C1256 0.930 . S
H1251 C1260 0.930 1_554 S
H1252 C1265 0.929 . S
H1253 C1263 0.929 . S
H1254 C1258 0.929 . S
H1255 C1264 0.929 . S
C1256 H1250 0.930 . S
C1256 C1257 1.367 . S
C1256 C1264 1.378 . S
C1257 C1256 1.367 . S
C1257 C1265 1.433 . S
C1258 H1254 0.929 . S
C1258 C1260 1.378 . S
C1258 C1262 1.350 . S
C1259 C1262 1.463 . S
C1259 C1264 1.350 . S
C1259 N1267 1.427 . S
C1260 H1251 0.930 1_556 S
C1260 C1258 1.378 . S
C1260 C1261 1.367 . S
C1261 C1260 1.367 . S
C1261 C1263 1.433 . S
C1262 C1258 1.350 . S
C1262 C1259 1.463 . S
C1262 N1266 1.427 . S
C1263 H1253 0.929 . S
C1263 C1261 1.433 . S
C1263 N1266 1.384 . S
C1264 H1255 0.929 . S
C1264 C1256 1.378 . S
C1264 C1259 1.350 . S
C1265 H1252 0.929 . S
C1265 C1257 1.433 . S
C1265 N1267 1.384 . S
N1266 C1262 1.427 . S
N1266 C1263 1.384 . S
N1267 C1259 1.427 . S
N1267 C1265 1.384 . S
H1268 C1274 0.930 . S
H1269 C1278 0.930 . S
H1270 C1283 0.929 . S
H1271 C1281 0.929 . S
H1272 C1276 0.929 . S
H1273 C1282 0.929 . S
C1274 H1268 0.930 . S
C1274 C1275 1.367 . S
C1274 C1282 1.378 . S
C1275 C1274 1.367 . S
C1275 C1283 1.433 . S
C1276 H1272 0.929 . S
C1276 C1278 1.378 . S
C1276 C1280 1.350 . S
C1277 C1280 1.463 . S
C1277 C1282 1.350 . S
C1277 N1285 1.427 . S
C1278 H1269 0.930 . S
C1278 C1276 1.378 . S
C1278 C1279 1.367 . S
C1279 C1278 1.367 . S
C1279 C1281 1.433 . S
C1280 C1276 1.350 . S
C1280 C1277 1.463 . S
C1280 N1284 1.427 . S
C1281 H1271 0.929 . S
C1281 C1279 1.433 . S
C1281 N1284 1.384 . S
C1282 H1273 0.929 . S
C1282 C1274 1.378 . S
C1282 C1277 1.350 . S
C1283 H1270 0.929 . S
C1283 C1275 1.433 . S
C1283 N1285 1.384 . S
N1284 C1280 1.427 . S
N1284 C1281 1.384 . S
N1285 C1277 1.427 . S
N1285 C1283 1.384 . S
H1286 C1292 0.930 . S
H1287 C1296 0.929 1_556 S
H1288 C1301 0.929 . S
H1289 C1299 0.929 . S
H1290 C1294 0.929 . S
H1291 C1300 0.929 . S
C1292 H1286 0.930 . S
C1292 C1293 1.367 . S
C1292 C1300 1.378 . S
C1293 C1292 1.367 . S
C1293 C1301 1.433 . S
C1294 H1290 0.929 . S
C1294 C1296 1.378 . S
C1294 C1298 1.350 . S
C1295 C1298 1.463 . S
C1295 C1300 1.350 . S
C1295 N1303 1.427 . S
C1296 H1287 0.929 1_554 S
C1296 C1294 1.378 . S
C1296 C1297 1.367 . S
C1297 C1296 1.367 . S
C1297 C1299 1.433 . S
C1298 C1294 1.350 . S
C1298 C1295 1.463 . S
C1298 N1302 1.427 . S
C1299 H1289 0.929 . S
C1299 C1297 1.433 . S
C1299 N1302 1.384 . S
C1300 H1291 0.929 . S
C1300 C1292 1.378 . S
C1300 C1295 1.350 . S
C1301 H1288 0.929 . S
C1301 C1293 1.433 . S
C1301 N1303 1.384 . S
N1302 C1298 1.427 . S
N1302 C1299 1.384 . S
N1303 C1295 1.427 . S
N1303 C1301 1.384 . S
H1304 C1310 0.930 . S
H1305 C1314 0.930 . S
H1306 C1319 0.929 . S
H1307 C1317 0.929 . S
H1308 C1312 0.929 . S
H1309 C1318 0.929 . S
C1310 H1304 0.930 . S
C1310 C1311 1.367 . S
C1310 C1318 1.378 . S
C1311 C1310 1.367 . S
C1311 C1319 1.433 1_565 S
C1312 H1308 0.929 . S
C1312 C1314 1.378 . S
C1312 C1316 1.370 . S
C1313 C1316 1.460 1_565 S
C1313 C1318 1.383 . S
C1313 N1321 1.395 1_565 S
C1314 H1305 0.930 . S
C1314 C1312 1.378 . S
C1314 C1315 1.413 . S
C1315 C1314 1.413 . S
C1315 C1317 1.387 1_545 S
C1316 C1312 1.370 . S
C1316 C1313 1.460 1_545 S
C1316 N1320 1.407 1_545 S
C1317 H1307 0.929 . S
C1317 C1315 1.387 1_565 S
C1317 N1320 1.384 . S
C1318 H1309 0.929 . S
C1318 C1310 1.378 . S
C1318 C1313 1.383 . S
C1319 H1306 0.929 . S
C1319 C1311 1.433 1_545 S
C1319 N1321 1.384 . S
N1320 C1316 1.407 1_565 S
N1320 C1317 1.384 . S
N1321 C1313 1.395 1_545 S
N1321 C1319 1.384 . S
H1322 C1328 0.930 . S
H1323 C1332 0.930 . S
H1324 C1337 0.929 . S
H1325 C1335 0.929 . S
H1326 C1330 0.929 . S
H1327 C1336 0.929 . S
C1328 H1322 0.930 . S
C1328 C1329 1.367 . S
C1328 C1336 1.378 . S
C1329 C1328 1.367 . S
C1329 C1337 1.433 . S
C1330 H1326 0.929 . S
C1330 C1332 1.378 . S
C1330 C1334 1.350 . S
C1331 C1334 1.463 . S
C1331 C1336 1.350 . S
C1331 N1339 1.427 . S
C1332 H1323 0.930 . S
C1332 C1330 1.378 . S
C1332 C1333 1.367 . S
C1333 C1332 1.367 . S
C1333 C1335 1.433 . S
C1334 C1330 1.350 . S
C1334 C1331 1.463 . S
C1334 N1338 1.427 . S
C1335 H1325 0.929 . S
C1335 C1333 1.433 . S
C1335 N1338 1.384 . S
C1336 H1327 0.929 . S
C1336 C1328 1.378 . S
C1336 C1331 1.350 . S
C1337 H1324 0.929 . S
C1337 C1329 1.433 . S
C1337 N1339 1.384 . S
N1338 C1334 1.427 . S
N1338 C1335 1.384 . S
N1339 C1331 1.427 . S
N1339 C1337 1.384 . S
H1340 C1346 0.930 . S
H1341 C1350 0.930 . S
H1342 C1355 0.929 . S
H1343 C1353 0.929 . S
H1344 C1348 0.929 . S
H1345 C1354 0.929 . S
C1346 H1340 0.930 . S
C1346 C1347 1.367 . S
C1346 C1354 1.378 . S
C1347 C1346 1.367 . S
C1347 C1355 1.433 . S
C1348 H1344 0.929 . S
C1348 C1350 1.378 . S
C1348 C1352 1.350 . S
C1349 C1352 1.463 . S
C1349 C1354 1.350 . S
C1349 N1357 1.427 . S
C1350 H1341 0.930 . S
C1350 C1348 1.378 . S
C1350 C1351 1.367 . S
C1351 C1350 1.367 . S
C1351 C1353 1.433 . S
C1352 C1348 1.350 . S
C1352 C1349 1.463 . S
C1352 N1356 1.427 . S
C1353 H1343 0.929 . S
C1353 C1351 1.433 . S
C1353 N1356 1.384 . S
C1354 H1345 0.929 . S
C1354 C1346 1.378 . S
C1354 C1349 1.350 . S
C1355 H1342 0.929 . S
C1355 C1347 1.433 . S
C1355 N1357 1.384 . S
N1356 C1352 1.427 . S
N1356 C1353 1.384 . S
N1357 C1349 1.427 . S
N1357 C1355 1.384 . S
H1358 C1364 0.930 . S
H1359 C1368 0.930 . S
H1360 C1373 0.929 . S
H1361 C1371 0.929 . S
H1362 C1366 0.929 . S
H1363 C1372 0.929 . S
C1364 H1358 0.930 . S
C1364 C1365 1.367 . S
C1364 C1372 1.378 . S
C1365 C1364 1.367 . S
C1365 C1373 1.433 . S
C1366 H1362 0.929 . S
C1366 C1368 1.378 . S
C1366 C1370 1.350 . S
C1367 C1370 1.463 1_556 S
C1367 C1372 1.350 . S
C1367 N1375 1.427 . S
C1368 H1359 0.930 . S
C1368 C1366 1.378 . S
C1368 C1369 1.367 . S
C1369 C1368 1.367 . S
C1369 C1371 1.433 . S
C1370 C1366 1.350 . S
C1370 C1367 1.463 1_554 S
C1370 N1374 1.427 . S
C1371 H1361 0.929 . S
C1371 C1369 1.433 . S
C1371 N1374 1.384 . S
C1372 H1363 0.929 . S
C1372 C1364 1.378 . S
C1372 C1367 1.350 . S
C1373 H1360 0.929 . S
C1373 C1365 1.433 . S
C1373 N1375 1.384 . S
N1374 C1370 1.427 . S
N1374 C1371 1.384 . S
N1375 C1367 1.427 . S
N1375 C1373 1.384 . S
H1376 C1382 0.930 . S
H1377 C1386 0.930 . S
H1378 C1391 0.929 . S
H1379 C1389 0.929 . S
H1380 C1384 0.929 . S
H1381 C1390 0.929 . S
C1382 H1376 0.930 . S
C1382 C1383 1.367 . S
C1382 C1390 1.378 . S
C1383 C1382 1.367 . S
C1383 C1391 1.433 . S
C1384 H1380 0.929 . S
C1384 C1386 1.378 . S
C1384 C1388 1.350 . S
C1385 C1388 1.463 . S
C1385 C1390 1.350 . S
C1385 N1393 1.427 . S
C1386 H1377 0.930 . S
C1386 C1384 1.378 . S
C1386 C1387 1.367 . S
C1387 C1386 1.367 . S
C1387 C1389 1.433 . S
C1388 C1384 1.350 . S
C1388 C1385 1.463 . S
C1388 N1392 1.427 . S
C1389 H1379 0.929 . S
C1389 C1387 1.433 . S
C1389 N1392 1.384 . S
C1390 H1381 0.929 . S
C1390 C1382 1.378 . S
C1390 C1385 1.350 . S
C1391 H1378 0.929 . S
C1391 C1383 1.433 . S
C1391 N1393 1.384 . S
N1392 C1388 1.427 . S
N1392 C1389 1.384 . S
N1393 C1385 1.427 . S
N1393 C1391 1.384 . S
H1394 C1400 0.930 . S
H1395 C1404 0.930 . S
H1396 C1409 0.929 . S
H1397 C1407 0.929 . S
H1398 C1402 0.929 . S
H1399 C1408 0.929 . S
C1400 H1394 0.930 . S
C1400 C1401 1.342 1_565 S
C1400 C1408 1.378 . S
C1401 C1400 1.342 1_545 S
C1401 C1409 1.459 . S
C1402 H1398 0.929 . S
C1402 C1404 1.378 . S
C1402 C1406 1.350 . S
C1403 C1406 1.464 . S
C1403 C1408 1.335 1_545 S
C1403 N1411 1.443 . S
C1404 H1395 0.930 . S
C1404 C1402 1.378 . S
C1404 C1405 1.367 . S
C1405 C1404 1.367 . S
C1405 C1407 1.433 1_545 S
C1406 C1402 1.350 . S
C1406 C1403 1.464 . S
C1406 N1410 1.427 1_545 S
C1407 H1397 0.929 . S
C1407 C1405 1.433 1_565 S
C1407 N1410 1.384 . S
C1408 H1399 0.929 . S
C1408 C1400 1.378 . S
C1408 C1403 1.335 1_565 S
C1409 H1396 0.929 . S
C1409 C1401 1.459 . S
C1409 N1411 1.384 . S
N1410 C1406 1.427 1_565 S
N1410 C1407 1.384 . S
N1411 C1403 1.443 . S
N1411 C1409 1.384 . S
H1412 C1418 0.930 . S
H1413 C1422 0.930 1_554 S
H1414 C1427 0.929 . S
H1415 C1425 0.929 . S
H1416 C1420 0.929 . S
H1417 C1426 0.929 . S
C1418 H1412 0.930 . S
C1418 C1419 1.342 1_565 S
C1418 C1426 1.378 . S
C1419 C1418 1.342 1_545 S
C1419 C1427 1.459 . S
C1420 H1416 0.929 . S
C1420 C1422 1.378 . S
C1420 C1424 1.350 . S
C1421 C1424 1.464 . S
C1421 C1426 1.334 1_545 S
C1421 N1429 1.444 . S
C1422 H1413 0.930 1_556 S
C1422 C1420 1.378 . S
C1422 C1423 1.367 . S
C1423 C1422 1.367 . S
C1423 C1425 1.433 1_545 S
C1424 C1420 1.350 . S
C1424 C1421 1.464 . S
C1424 N1428 1.427 1_545 S
C1425 H1415 0.929 . S
C1425 C1423 1.433 1_565 S
C1425 N1428 1.384 . S
C1426 H1417 0.929 . S
C1426 C1418 1.378 . S
C1426 C1421 1.334 1_565 S
C1427 H1414 0.929 . S
C1427 C1419 1.459 . S
C1427 N1429 1.384 . S
N1428 C1424 1.427 1_565 S
N1428 C1425 1.384 . S
N1429 C1421 1.444 . S
N1429 C1427 1.384 . S
H1430 C1436 0.930 . S
H1431 C1440 0.930 . S
H1432 C1445 0.929 . S
H1433 C1443 0.929 . S
H1434 C1438 0.929 1_554 S
H1435 C1444 0.929 . S
C1436 H1430 0.930 . S
C1436 C1437 1.367 . S
C1436 C1444 1.378 . S
C1437 C1436 1.367 . S
C1437 C1445 1.433 . S
C1438 H1434 0.929 1_556 S
C1438 C1440 1.378 1_556 S
C1438 C1442 1.350 . S
C1439 C1442 1.463 . S
C1439 C1444 1.350 . S
C1439 N1447 1.427 . S
C1440 H1431 0.930 . S
C1440 C1438 1.378 1_554 S
C1440 C1441 1.367 1_554 S
C1441 C1440 1.367 1_556 S
C1441 C1443 1.433 . S
C1442 C1438 1.350 . S
C1442 C1439 1.463 . S
C1442 N1446 1.427 . S
C1443 H1433 0.929 . S
C1443 C1441 1.433 . S
C1443 N1446 1.384 . S
C1444 H1435 0.929 . S
C1444 C1436 1.378 . S
C1444 C1439 1.350 . S
C1445 H1432 0.929 . S
C1445 C1437 1.433 . S
C1445 N1447 1.384 . S
N1446 C1442 1.427 . S
N1446 C1443 1.384 . S
N1447 C1439 1.427 . S
N1447 C1445 1.384 . S
H1448 C1454 0.930 . S
H1449 C1458 0.930 . S
H1450 C1463 0.929 . S
H1451 C1461 0.929 . S
H1452 C1456 0.929 . S
H1453 C1462 0.929 . S
C1454 H1448 0.930 . S
C1454 C1455 1.367 . S
C1454 C1462 1.378 . S
C1455 C1454 1.367 . S
C1455 C1463 1.433 . S
C1456 H1452 0.929 . S
C1456 C1458 1.378 . S
C1456 C1460 1.350 . S
C1457 C1460 1.463 . S
C1457 C1462 1.350 . S
C1457 N1465 1.427 . S
C1458 H1449 0.930 . S
C1458 C1456 1.378 . S
C1458 C1459 1.367 . S
C1459 C1458 1.367 . S
C1459 C1461 1.433 . S
C1460 C1456 1.350 . S
C1460 C1457 1.463 . S
C1460 N1464 1.427 . S
C1461 H1451 0.929 . S
C1461 C1459 1.433 . S
C1461 N1464 1.384 . S
C1462 H1453 0.929 . S
C1462 C1454 1.378 . S
C1462 C1457 1.350 . S
C1463 H1450 0.929 . S
C1463 C1455 1.433 . S
C1463 N1465 1.384 . S
N1464 C1460 1.427 . S
N1464 C1461 1.384 . S
N1465 C1457 1.427 . S
N1465 C1463 1.384 . S
H1466 C1472 0.930 . S
H1467 C1476 0.930 . S
H1468 C1481 0.929 . S
H1469 C1479 0.929 . S
H1470 C1474 0.929 . S
H1471 C1480 0.929 . S
C1472 H1466 0.930 . S
C1472 C1473 1.384 . S
C1472 C1480 1.378 . S
C1473 C1472 1.384 . S
C1473 C1481 1.418 1_565 S
C1474 H1470 0.929 . S
C1474 C1476 1.378 . S
C1474 C1478 1.339 1_545 S
C1475 C1478 1.462 . S
C1475 C1480 1.369 . S
C1475 N1483 1.412 1_565 S
C1476 H1467 0.930 . S
C1476 C1474 1.378 . S
C1476 C1477 1.355 1_545 S
C1477 C1476 1.355 1_565 S
C1477 C1479 1.446 . S
C1478 C1474 1.339 1_565 S
C1478 C1475 1.462 . S
C1478 N1482 1.439 . S
C1479 H1469 0.929 . S
C1479 C1477 1.446 . S
C1479 N1482 1.384 . S
C1480 H1471 0.929 . S
C1480 C1472 1.378 . S
C1480 C1475 1.369 . S
C1481 H1468 0.929 . S
C1481 C1473 1.418 1_545 S
C1481 N1483 1.384 . S
N1482 C1478 1.439 . S
N1482 C1479 1.384 . S
N1483 C1475 1.412 1_545 S
N1483 C1481 1.384 . S
H1484 C1490 0.930 1_556 S
H1485 C1494 0.930 . S
H1486 C1499 0.929 . S
H1487 C1497 0.929 . S
H1488 C1492 0.929 . S
H1489 C1498 0.929 . S
C1490 H1484 0.930 1_554 S
C1490 C1491 1.342 1_545 S
C1490 C1498 1.378 . S
C1491 C1490 1.342 1_565 S
C1491 C1499 1.458 . S
C1492 H1488 0.929 . S
C1492 C1494 1.378 . S
C1492 C1496 1.350 . S
C1493 C1496 1.464 . S
C1493 C1498 1.334 1_565 S
C1493 N1501 1.444 . S
C1494 H1485 0.930 . S
C1494 C1492 1.378 . S
C1494 C1495 1.367 . S
C1495 C1494 1.367 . S
C1495 C1497 1.433 1_565 S
C1496 C1492 1.350 . S
C1496 C1493 1.464 . S
C1496 N1500 1.427 1_565 S
C1497 H1487 0.929 . S
C1497 C1495 1.433 1_545 S
C1497 N1500 1.384 . S
C1498 H1489 0.929 . S
C1498 C1490 1.378 . S
C1498 C1493 1.334 1_545 S
C1499 H1486 0.929 . S
C1499 C1491 1.458 . S
C1499 N1501 1.384 . S
N1500 C1496 1.427 1_545 S
N1500 C1497 1.384 . S
N1501 C1493 1.444 . S
N1501 C1499 1.384 . S
H1502 C1508 0.930 . S
H1503 C1512 0.930 . S
H1504 C1517 0.929 1_556 S
H1505 C1515 0.929 . S
H1506 C1510 0.929 . S
H1507 C1516 0.929 . S
C1508 H1502 0.930 . S
C1508 C1509 1.367 . S
C1508 C1516 1.378 . S
C1509 C1508 1.367 . S
C1509 C1517 1.433 . S
C1510 H1506 0.929 . S
C1510 C1512 1.378 . S
C1510 C1514 1.350 . S
C1511 C1514 1.463 . S
C1511 C1516 1.350 . S
C1511 N1519 1.427 . S
C1512 H1503 0.930 . S
C1512 C1510 1.378 . S
C1512 C1513 1.367 . S
C1513 C1512 1.367 . S
C1513 C1515 1.433 . S
C1514 C1510 1.350 . S
C1514 C1511 1.463 . S
C1514 N1518 1.427 . S
C1515 H1505 0.929 . S
C1515 C1513 1.433 . S
C1515 N1518 1.384 . S
C1516 H1507 0.929 . S
C1516 C1508 1.378 . S
C1516 C1511 1.350 . S
C1517 H1504 0.929 1_554 S
C1517 C1509 1.433 . S
C1517 N1519 1.384 . S
N1518 C1514 1.427 . S
N1518 C1515 1.384 . S
N1519 C1511 1.427 . S
N1519 C1517 1.384 . S
H1520 C1526 0.930 . S
H1521 C1530 0.930 . S
H1522 C1535 0.929 . S
H1523 C1533 0.929 . S
H1524 C1528 0.929 . S
H1525 C1534 0.929 . S
C1526 H1520 0.930 . S
C1526 C1527 1.367 . S
C1526 C1534 1.378 . S
C1527 C1526 1.367 . S
C1527 C1535 1.433 . S
C1528 H1524 0.929 . S
C1528 C1530 1.378 . S
C1528 C1532 1.350 . S
C1529 C1532 1.463 . S
C1529 C1534 1.350 . S
C1529 N1537 1.427 . S
C1530 H1521 0.930 . S
C1530 C1528 1.378 . S
C1530 C1531 1.367 . S
C1531 C1530 1.367 . S
C1531 C1533 1.433 . S
C1532 C1528 1.350 . S
C1532 C1529 1.463 . S
C1532 N1536 1.427 . S
C1533 H1523 0.929 . S
C1533 C1531 1.433 . S
C1533 N1536 1.384 . S
C1534 H1525 0.929 . S
C1534 C1526 1.378 . S
C1534 C1529 1.350 . S
C1535 H1522 0.929 . S
C1535 C1527 1.433 . S
C1535 N1537 1.384 . S
N1536 C1532 1.427 . S
N1536 C1533 1.384 . S
N1537 C1529 1.427 . S
N1537 C1535 1.384 . S
H1538 C1544 0.930 . S
H1539 C1548 0.924 1_554 S
H1540 C1553 0.929 . S
H1541 C1551 0.929 . S
H1542 C1546 0.929 . S
H1543 C1552 0.929 . S
C1544 H1538 0.930 . S
C1544 C1545 1.367 . S
C1544 C1552 1.378 . S
C1545 C1544 1.367 . S
C1545 C1553 1.433 . S
C1546 H1542 0.929 . S
C1546 C1548 1.380 . S
C1546 C1550 1.350 . S
C1547 C1550 1.463 . S
C1547 C1552 1.350 . S
C1547 N1555 1.427 . S
C1548 H1539 0.924 1_556 S
C1548 C1546 1.380 . S
C1548 C1549 1.370 . S
C1549 C1548 1.370 . S
C1549 C1551 1.433 . S
C1550 C1546 1.350 . S
C1550 C1547 1.463 . S
C1550 N1554 1.427 . S
C1551 H1541 0.929 . S
C1551 C1549 1.433 . S
C1551 N1554 1.384 . S
C1552 H1543 0.929 . S
C1552 C1544 1.378 . S
C1552 C1547 1.350 . S
C1553 H1540 0.929 . S
C1553 C1545 1.433 . S
C1553 N1555 1.384 . S
N1554 C1550 1.427 . S
N1554 C1551 1.384 . S
N1555 C1547 1.427 . S
N1555 C1553 1.384 . S
H1556 C1562 0.930 . S
H1557 C1566 0.930 . S
H1558 C1571 0.929 . S
H1559 C1569 0.929 . S
H1560 C1564 0.929 . S
H1561 C1570 0.929 . S
C1562 H1556 0.930 . S
C1562 C1563 1.367 . S
C1562 C1570 1.378 . S
C1563 C1562 1.367 . S
C1563 C1571 1.433 . S
C1564 H1560 0.929 . S
C1564 C1566 1.378 . S
C1564 C1568 1.350 . S
C1565 C1568 1.463 . S
C1565 C1570 1.350 . S
C1565 N1573 1.427 . S
C1566 H1557 0.930 . S
C1566 C1564 1.378 . S
C1566 C1567 1.367 . S
C1567 C1566 1.367 . S
C1567 C1569 1.433 . S
C1568 C1564 1.350 . S
C1568 C1565 1.463 . S
C1568 N1572 1.427 . S
C1569 H1559 0.929 . S
C1569 C1567 1.433 . S
C1569 N1572 1.384 . S
C1570 H1561 0.929 . S
C1570 C1562 1.378 . S
C1570 C1565 1.350 . S
C1571 H1558 0.929 . S
C1571 C1563 1.433 . S
C1571 N1573 1.384 . S
N1572 C1568 1.427 . S
N1572 C1569 1.384 . S
N1573 C1565 1.427 . S
N1573 C1571 1.384 . S
H1574 C1580 0.930 . S
H1575 C1584 0.930 . S
H1576 C1589 0.929 . S
H1577 C1587 0.929 . S
H1578 C1582 0.929 . S
H1579 C1588 0.929 . S
C1580 H1574 0.930 . S
C1580 C1581 1.367 . S
C1580 C1588 1.378 . S
C1581 C1580 1.367 . S
C1581 C1589 1.433 . S
C1582 H1578 0.929 . S
C1582 C1584 1.378 . S
C1582 C1586 1.350 . S
C1583 C1586 1.463 . S
C1583 C1588 1.350 . S
C1583 N1591 1.427 . S
C1584 H1575 0.930 . S
C1584 C1582 1.378 . S
C1584 C1585 1.367 . S
C1585 C1584 1.367 . S
C1585 C1587 1.433 . S
C1586 C1582 1.350 . S
C1586 C1583 1.463 . S
C1586 N1590 1.427 . S
C1587 H1577 0.929 . S
C1587 C1585 1.433 . S
C1587 N1590 1.384 . S
C1588 H1579 0.929 . S
C1588 C1580 1.378 . S
C1588 C1583 1.350 . S
C1589 H1576 0.929 . S
C1589 C1581 1.433 . S
C1589 N1591 1.384 . S
N1590 C1586 1.427 . S
N1590 C1587 1.384 . S
N1591 C1583 1.427 . S
N1591 C1589 1.384 . S
H1592 C1598 0.930 . S
H1593 C1602 0.930 . S
H1594 C1607 0.929 . S
H1595 C1605 0.929 . S
H1596 C1600 0.929 1_556 S
H1597 C1606 0.929 . S
C1598 H1592 0.930 . S
C1598 C1599 1.367 . S
C1598 C1606 1.378 . S
C1599 C1598 1.367 . S
C1599 C1607 1.433 . S
C1600 H1596 0.929 1_554 S
C1600 C1602 1.378 1_554 S
C1600 C1604 1.350 . S
C1601 C1604 1.463 . S
C1601 C1606 1.350 . S
C1601 N1609 1.427 . S
C1602 H1593 0.930 . S
C1602 C1600 1.378 1_556 S
C1602 C1603 1.367 1_556 S
C1603 C1602 1.367 1_554 S
C1603 C1605 1.433 . S
C1604 C1600 1.350 . S
C1604 C1601 1.463 . S
C1604 N1608 1.427 . S
C1605 H1595 0.929 . S
C1605 C1603 1.433 . S
C1605 N1608 1.384 . S
C1606 H1597 0.929 . S
C1606 C1598 1.378 . S
C1606 C1601 1.350 . S
C1607 H1594 0.929 . S
C1607 C1599 1.433 . S
C1607 N1609 1.384 . S
N1608 C1604 1.427 . S
N1608 C1605 1.384 . S
N1609 C1601 1.427 . S
N1609 C1607 1.384 . S
H1610 C1616 0.930 . S
H1611 C1620 0.930 . S
H1612 C1625 0.929 . S
H1613 C1623 0.929 . S
H1614 C1618 0.929 . S
H1615 C1624 0.929 . S
C1616 H1610 0.930 . S
C1616 C1617 1.367 . S
C1616 C1624 1.378 . S
C1617 C1616 1.367 . S
C1617 C1625 1.433 . S
C1618 H1614 0.929 . S
C1618 C1620 1.378 . S
C1618 C1622 1.350 . S
C1619 C1622 1.463 . S
C1619 C1624 1.350 . S
C1619 N1627 1.427 . S
C1620 H1611 0.930 . S
C1620 C1618 1.378 . S
C1620 C1621 1.367 . S
C1621 C1620 1.367 . S
C1621 C1623 1.433 . S
C1622 C1618 1.350 . S
C1622 C1619 1.463 . S
C1622 N1626 1.427 . S
C1623 H1613 0.929 . S
C1623 C1621 1.433 . S
C1623 N1626 1.384 . S
C1624 H1615 0.929 . S
C1624 C1616 1.378 . S
C1624 C1619 1.350 . S
C1625 H1612 0.929 . S
C1625 C1617 1.433 . S
C1625 N1627 1.384 . S
N1626 C1622 1.427 . S
N1626 C1623 1.384 . S
N1627 C1619 1.427 . S
N1627 C1625 1.384 . S
H1628 C1634 0.930 . S
H1629 C1638 0.930 . S
H1630 C1643 0.929 . S
H1631 C1641 0.929 . S
H1632 C1636 0.929 . S
H1633 C1642 0.929 . S
C1634 H1628 0.930 . S
C1634 C1635 1.367 . S
C1634 C1642 1.378 . S
C1635 C1634 1.367 . S
C1635 C1643 1.433 . S
C1636 H1632 0.929 . S
C1636 C1638 1.378 . S
C1636 C1640 1.350 . S
C1637 C1640 1.463 . S
C1637 C1642 1.350 . S
C1637 N1645 1.427 . S
C1638 H1629 0.930 . S
C1638 C1636 1.378 . S
C1638 C1639 1.367 . S
C1639 C1638 1.367 . S
C1639 C1641 1.433 . S
C1640 C1636 1.350 . S
C1640 C1637 1.463 . S
C1640 N1644 1.427 . S
C1641 H1631 0.929 . S
C1641 C1639 1.433 . S
C1641 N1644 1.384 . S
C1642 H1633 0.929 . S
C1642 C1634 1.378 . S
C1642 C1637 1.350 . S
C1643 H1630 0.929 . S
C1643 C1635 1.433 . S
C1643 N1645 1.384 . S
N1644 C1640 1.427 . S
N1644 C1641 1.384 . S
N1645 C1637 1.427 . S
N1645 C1643 1.384 . S
H1646 C1652 0.930 . S
H1647 C1656 0.930 . S
H1648 C1661 0.929 . S
H1649 C1659 0.929 . S
H1650 C1654 0.929 . S
H1651 C1660 0.929 . S
C1652 H1646 0.930 . S
C1652 C1653 1.367 . S
C1652 C1660 1.378 . S
C1653 C1652 1.367 . S
C1653 C1661 1.433 . S
C1654 H1650 0.929 . S
C1654 C1656 1.378 . S
C1654 C1658 1.350 . S
C1655 C1658 1.463 . S
C1655 C1660 1.350 . S
C1655 N1663 1.427 . S
C1656 H1647 0.930 . S
C1656 C1654 1.378 . S
C1656 C1657 1.367 . S
C1657 C1656 1.367 . S
C1657 C1659 1.433 . S
C1658 C1654 1.350 . S
C1658 C1655 1.463 . S
C1658 N1662 1.427 . S
C1659 H1649 0.929 . S
C1659 C1657 1.433 . S
C1659 N1662 1.384 . S
C1660 H1651 0.929 . S
C1660 C1652 1.378 . S
C1660 C1655 1.350 . S
C1661 H1648 0.929 . S
C1661 C1653 1.433 . S
C1661 N1663 1.384 . S
N1662 C1658 1.427 . S
N1662 C1659 1.384 . S
N1663 C1655 1.427 . S
N1663 C1661 1.384 . S
H1664 C1670 0.930 . S
H1665 C1674 0.930 . S
H1666 C1679 0.929 . S
H1667 C1677 0.929 . S
H1668 C1672 0.929 . S
H1669 C1678 0.929 . S
C1670 H1664 0.930 . S
C1670 C1671 1.367 . S
C1670 C1678 1.378 . S
C1671 C1670 1.367 . S
C1671 C1679 1.433 . S
C1672 H1668 0.929 . S
C1672 C1674 1.378 . S
C1672 C1676 1.350 . S
C1673 C1676 1.463 . S
C1673 C1678 1.350 . S
C1673 N1681 1.427 . S
C1674 H1665 0.930 . S
C1674 C1672 1.378 . S
C1674 C1675 1.367 . S
C1675 C1674 1.367 . S
C1675 C1677 1.433 . S
C1676 C1672 1.350 . S
C1676 C1673 1.463 . S
C1676 N1680 1.427 . S
C1677 H1667 0.929 . S
C1677 C1675 1.433 . S
C1677 N1680 1.384 . S
C1678 H1669 0.929 . S
C1678 C1670 1.378 . S
C1678 C1673 1.350 . S
C1679 H1666 0.929 . S
C1679 C1671 1.433 . S
C1679 N1681 1.384 . S
N1680 C1676 1.427 . S
N1680 C1677 1.384 . S
N1681 C1673 1.427 . S
N1681 C1679 1.384 . S
H1682 C1688 0.930 . S
H1683 C1692 0.930 . S
H1684 C1697 0.929 . S
H1685 C1695 0.929 . S
H1686 C1690 0.929 . S
H1687 C1696 0.929 . S
C1688 H1682 0.930 . S
C1688 C1689 1.367 1_565 S
C1688 C1696 1.378 . S
C1689 C1688 1.367 1_545 S
C1689 C1697 1.433 . S
C1690 H1686 0.929 . S
C1690 C1692 1.378 . S
C1690 C1694 1.355 1_545 S
C1691 C1694 1.462 . S
C1691 C1696 1.355 . S
C1691 N1699 1.422 1_565 S
C1692 H1683 0.930 . S
C1692 C1690 1.378 . S
C1692 C1693 1.367 1_545 S
C1693 C1692 1.367 1_565 S
C1693 C1695 1.433 . S
C1694 C1690 1.355 1_565 S
C1694 C1691 1.462 . S
C1694 N1698 1.422 . S
C1695 H1685 0.929 . S
C1695 C1693 1.433 . S
C1695 N1698 1.384 . S
C1696 H1687 0.929 . S
C1696 C1688 1.378 . S
C1696 C1691 1.355 . S
C1697 H1684 0.929 . S
C1697 C1689 1.433 . S
C1697 N1699 1.384 . S
N1698 C1694 1.422 . S
N1698 C1695 1.384 . S
N1699 C1691 1.422 1_545 S
N1699 C1697 1.384 . S
H1700 C1706 0.930 . S
H1701 C1710 0.930 . S
H1702 C1715 0.929 . S
H1703 C1713 0.929 . S
H1704 C1708 0.929 . S
H1705 C1714 0.929 . S
C1706 H1700 0.930 . S
C1706 C1707 1.367 . S
C1706 C1714 1.378 . S
C1707 C1706 1.367 . S
C1707 C1715 1.433 1_565 S
C1708 H1704 0.929 . S
C1708 C1710 1.378 . S
C1708 C1712 1.360 . S
C1709 C1712 1.460 1_565 S
C1709 C1714 1.367 . S
C1709 N1717 1.413 1_565 S
C1710 H1701 0.930 . S
C1710 C1708 1.378 . S
C1710 C1711 1.367 . S
C1711 C1710 1.367 . S
C1711 C1713 1.433 1_545 S
C1712 C1708 1.360 . S
C1712 C1709 1.460 1_545 S
C1712 N1716 1.418 1_545 S
C1713 H1703 0.929 . S
C1713 C1711 1.433 1_565 S
C1713 N1716 1.384 . S
C1714 H1705 0.929 . S
C1714 C1706 1.378 . S
C1714 C1709 1.367 . S
C1715 H1702 0.929 . S
C1715 C1707 1.433 1_545 S
C1715 N1717 1.384 . S
N1716 C1712 1.418 1_565 S
N1716 C1713 1.384 . S
N1717 C1709 1.413 1_545 S
N1717 C1715 1.384 . S
H1718 C1724 0.930 . S
H1719 C1728 0.930 . S
H1720 C1733 0.929 . S
H1721 C1731 0.929 . S
H1722 C1726 0.929 . S
H1723 C1732 0.929 . S
C1724 H1718 0.930 . S
C1724 C1725 1.367 . S
C1724 C1732 1.378 . S
C1725 C1724 1.367 . S
C1725 C1733 1.433 . S
C1726 H1722 0.929 . S
C1726 C1728 1.378 . S
C1726 C1730 1.350 . S
C1727 C1730 1.463 . S
C1727 C1732 1.350 . S
C1727 N1735 1.427 . S
C1728 H1719 0.930 . S
C1728 C1726 1.378 . S
C1728 C1729 1.367 . S
C1729 C1728 1.367 . S
C1729 C1731 1.433 . S
C1730 C1726 1.350 . S
C1730 C1727 1.463 . S
C1730 N1734 1.427 . S
C1731 H1721 0.929 . S
C1731 C1729 1.433 . S
C1731 N1734 1.384 . S
C1732 H1723 0.929 . S
C1732 C1724 1.378 . S
C1732 C1727 1.350 . S
C1733 H1720 0.929 . S
C1733 C1725 1.433 . S
C1733 N1735 1.384 . S
N1734 C1730 1.427 . S
N1734 C1731 1.384 . S
N1735 C1727 1.427 . S
N1735 C1733 1.384 . S
H1736 C1742 0.930 . S
H1737 C1746 0.930 . S
H1738 C1751 0.929 . S
H1739 C1749 0.929 . S
H1740 C1744 0.929 . S
H1741 C1750 0.929 . S
C1742 H1736 0.930 . S
C1742 C1743 1.367 . S
C1742 C1750 1.378 . S
C1743 C1742 1.367 . S
C1743 C1751 1.433 . S
C1744 H1740 0.929 . S
C1744 C1746 1.378 . S
C1744 C1748 1.350 . S
C1745 C1748 1.463 . S
C1745 C1750 1.350 . S
C1745 N1753 1.427 . S
C1746 H1737 0.930 . S
C1746 C1744 1.378 . S
C1746 C1747 1.367 . S
C1747 C1746 1.367 . S
C1747 C1749 1.433 . S
C1748 C1744 1.350 . S
C1748 C1745 1.463 . S
C1748 N1752 1.427 . S
C1749 H1739 0.929 . S
C1749 C1747 1.433 . S
C1749 N1752 1.384 . S
C1750 H1741 0.929 . S
C1750 C1742 1.378 . S
C1750 C1745 1.350 . S
C1751 H1738 0.929 . S
C1751 C1743 1.433 . S
C1751 N1753 1.384 . S
N1752 C1748 1.427 . S
N1752 C1749 1.384 . S
N1753 C1745 1.427 . S
N1753 C1751 1.384 . S
H1754 C1760 0.930 . S
H1755 C1764 0.930 . S
H1756 C1769 0.929 . S
H1757 C1767 0.929 . S
H1758 C1762 0.929 . S
H1759 C1768 0.929 . S
C1760 H1754 0.930 . S
C1760 C1761 1.367 1_565 S
C1760 C1768 1.378 . S
C1761 C1760 1.367 1_545 S
C1761 C1769 1.433 . S
C1762 H1758 0.929 . S
C1762 C1764 1.378 . S
C1762 C1766 1.358 . S
C1763 C1766 1.462 1_565 S
C1763 C1768 1.344 . S
C1763 N1771 1.434 1_565 S
C1764 H1755 0.930 . S
C1764 C1762 1.378 . S
C1764 C1765 1.367 1_545 S
C1765 C1764 1.367 1_565 S
C1765 C1767 1.433 . S
C1766 C1762 1.358 . S
C1766 C1763 1.462 1_545 S
C1766 N1770 1.419 1_545 S
C1767 H1757 0.929 . S
C1767 C1765 1.433 . S
C1767 N1770 1.384 . S
C1768 H1759 0.929 . S
C1768 C1760 1.378 . S
C1768 C1763 1.344 . S
C1769 H1756 0.929 . S
C1769 C1761 1.433 . S
C1769 N1771 1.384 . S
N1770 C1766 1.419 1_565 S
N1770 C1767 1.384 . S
N1771 C1763 1.434 1_545 S
N1771 C1769 1.384 . S
H1772 C1778 0.930 . S
H1773 C1782 0.930 . S
H1774 C1787 0.929 . S
H1775 C1785 0.929 . S
H1776 C1780 0.929 . S
H1777 C1786 0.929 . S
C1778 H1772 0.930 . S
C1778 C1779 1.367 1_565 S
C1778 C1786 1.378 . S
C1779 C1778 1.367 1_545 S
C1779 C1787 1.433 . S
C1780 H1776 0.929 . S
C1780 C1782 1.378 . S
C1780 C1784 1.352 . S
C1781 C1784 1.462 . S
C1781 C1786 1.352 1_545 S
C1781 N1789 1.425 . S
C1782 H1773 0.930 . S
C1782 C1780 1.378 . S
C1782 C1783 1.367 1_545 S
C1783 C1782 1.367 1_565 S
C1783 C1785 1.433 . S
C1784 C1780 1.352 . S
C1784 C1781 1.462 . S
C1784 N1788 1.425 1_545 S
C1785 H1775 0.929 . S
C1785 C1783 1.433 . S
C1785 N1788 1.384 . S
C1786 H1777 0.929 . S
C1786 C1778 1.378 . S
C1786 C1781 1.352 1_565 S
C1787 H1774 0.929 . S
C1787 C1779 1.433 . S
C1787 N1789 1.384 . S
N1788 C1784 1.425 1_565 S
N1788 C1785 1.384 . S
N1789 C1781 1.425 . S
N1789 C1787 1.384 . S
H1790 C1796 0.930 . S
H1791 C1800 0.930 . S
H1792 C1805 0.929 . S
H1793 C1803 0.929 . S
H1794 C1798 0.929 . S
H1795 C1804 0.929 . S
C1796 H1790 0.930 . S
C1796 C1797 1.367 . S
C1796 C1804 1.378 . S
C1797 C1796 1.367 . S
C1797 C1805 1.433 . S
C1798 H1794 0.929 . S
C1798 C1800 1.378 . S
C1798 C1802 1.350 . S
C1799 C1802 1.463 . S
C1799 C1804 1.350 . S
C1799 N1807 1.427 . S
C1800 H1791 0.930 . S
C1800 C1798 1.378 . S
C1800 C1801 1.367 . S
C1801 C1800 1.367 . S
C1801 C1803 1.433 . S
C1802 C1798 1.350 . S
C1802 C1799 1.463 . S
C1802 N1806 1.427 . S
C1803 H1793 0.929 . S
C1803 C1801 1.433 . S
C1803 N1806 1.384 . S
C1804 H1795 0.929 . S
C1804 C1796 1.378 . S
C1804 C1799 1.350 . S
C1805 H1792 0.929 . S
C1805 C1797 1.433 . S
C1805 N1807 1.384 . S
N1806 C1802 1.427 . S
N1806 C1803 1.384 . S
N1807 C1799 1.427 . S
N1807 C1805 1.384 . S
H1808 C1814 0.930 1_556 S
H1809 C1818 0.930 . S
H1810 C1823 0.929 1_556 S
H1811 C1821 0.929 . S
H1812 C1816 0.929 . S
H1813 C1822 0.929 . S
C1814 H1808 0.930 1_554 S
C1814 C1815 1.367 1_554 S
C1814 C1822 1.378 . S
C1815 C1814 1.367 1_556 S
C1815 C1823 1.433 1_556 S
C1816 H1812 0.929 . S
C1816 C1818 1.378 . S
C1816 C1820 1.350 . S
C1817 C1820 1.463 . S
C1817 C1822 1.350 . S
C1817 N1825 1.427 . S
C1818 H1809 0.930 . S
C1818 C1816 1.378 . S
C1818 C1819 1.367 . S
C1819 C1818 1.367 . S
C1819 C1821 1.433 . S
C1820 C1816 1.350 . S
C1820 C1817 1.463 . S
C1820 N1824 1.427 . S
C1821 H1811 0.929 . S
C1821 C1819 1.433 . S
C1821 N1824 1.384 . S
C1822 H1813 0.929 . S
C1822 C1814 1.378 . S
C1822 C1817 1.350 . S
C1823 H1810 0.929 1_554 S
C1823 C1815 1.433 1_554 S
C1823 N1825 1.384 . S
N1824 C1820 1.427 . S
N1824 C1821 1.384 . S
N1825 C1817 1.427 . S
N1825 C1823 1.384 . S
H1826 C1832 0.930 . S
H1827 C1836 0.928 1_556 S
H1828 C1841 0.929 . S
H1829 C1839 0.929 1_556 S
H1830 C1834 0.929 . S
H1831 C1840 0.929 . S
C1832 H1826 0.930 . S
C1832 C1833 1.367 . S
C1832 C1840 1.378 . S
C1833 C1832 1.367 . S
C1833 C1841 1.433 . S
C1834 H1830 0.929 . S
C1834 C1836 1.378 . S
C1834 C1838 1.350 . S
C1835 C1838 1.463 . S
C1835 C1840 1.350 . S
C1835 N1843 1.427 . S
C1836 H1827 0.928 1_554 S
C1836 C1834 1.378 . S
C1836 C1837 1.367 1_554 S
C1837 C1836 1.367 1_556 S
C1837 C1839 1.433 1_556 S
C1838 C1834 1.350 . S
C1838 C1835 1.463 . S
C1838 N1842 1.427 . S
C1839 H1829 0.929 1_554 S
C1839 C1837 1.433 1_554 S
C1839 N1842 1.384 . S
C1840 H1831 0.929 . S
C1840 C1832 1.378 . S
C1840 C1835 1.350 . S
C1841 H1828 0.929 . S
C1841 C1833 1.433 . S
C1841 N1843 1.384 . S
N1842 C1838 1.427 . S
N1842 C1839 1.384 . S
N1843 C1835 1.427 . S
N1843 C1841 1.384 . S
H1844 C1850 0.930 . S
H1845 C1854 0.930 . S
H1846 C1859 0.929 . S
H1847 C1857 0.929 . S
H1848 C1852 0.929 . S
H1849 C1858 0.929 . S
C1850 H1844 0.930 . S
C1850 C1851 1.367 . S
C1850 C1858 1.378 . S
C1851 C1850 1.367 . S
C1851 C1859 1.433 . S
C1852 H1848 0.929 . S
C1852 C1854 1.378 . S
C1852 C1856 1.350 . S
C1853 C1856 1.463 1_556 S
C1853 C1858 1.350 . S
C1853 N1861 1.427 . S
C1854 H1845 0.930 . S
C1854 C1852 1.378 . S
C1854 C1855 1.367 . S
C1855 C1854 1.367 . S
C1855 C1857 1.433 . S
C1856 C1852 1.350 . S
C1856 C1853 1.463 1_554 S
C1856 N1860 1.427 . S
C1857 H1847 0.929 . S
C1857 C1855 1.433 . S
C1857 N1860 1.384 . S
C1858 H1849 0.929 . S
C1858 C1850 1.378 . S
C1858 C1853 1.350 . S
C1859 H1846 0.929 . S
C1859 C1851 1.433 . S
C1859 N1861 1.384 . S
N1860 C1856 1.427 . S
N1860 C1857 1.384 . S
N1861 C1853 1.427 . S
N1861 C1859 1.384 . S
H1862 C1868 0.930 . S
H1863 C1872 0.930 . S
H1864 C1877 0.929 . S
H1865 C1875 0.929 . S
H1866 C1870 0.929 . S
H1867 C1876 0.929 . S
C1868 H1862 0.930 . S
C1868 C1869 1.367 . S
C1868 C1876 1.378 . S
C1869 C1868 1.367 . S
C1869 C1877 1.433 . S
C1870 H1866 0.929 . S
C1870 C1872 1.378 . S
C1870 C1874 1.350 . S
C1871 C1874 1.463 1_556 S
C1871 C1876 1.350 . S
C1871 N1879 1.427 . S
C1872 H1863 0.930 . S
C1872 C1870 1.378 . S
C1872 C1873 1.367 . S
C1873 C1872 1.367 . S
C1873 C1875 1.433 . S
C1874 C1870 1.350 . S
C1874 C1871 1.463 1_554 S
C1874 N1878 1.427 . S
C1875 H1865 0.929 . S
C1875 C1873 1.433 . S
C1875 N1878 1.384 . S
C1876 H1867 0.929 . S
C1876 C1868 1.378 . S
C1876 C1871 1.350 . S
C1877 H1864 0.929 . S
C1877 C1869 1.433 . S
C1877 N1879 1.384 . S
N1878 C1874 1.427 . S
N1878 C1875 1.384 . S
N1879 C1871 1.427 . S
N1879 C1877 1.384 . S
H1880 C1886 0.930 . S
H1881 C1890 0.930 1_554 S
H1882 C1895 0.929 . S
H1883 C1893 0.929 1_554 S
H1884 C1888 0.929 . S
H1885 C1894 0.929 . S
C1886 H1880 0.930 . S
C1886 C1887 1.367 . S
C1886 C1894 1.378 . S
C1887 C1886 1.367 . S
C1887 C1895 1.433 . S
C1888 H1884 0.929 . S
C1888 C1890 1.378 . S
C1888 C1892 1.350 . S
C1889 C1892 1.463 . S
C1889 C1894 1.350 . S
C1889 N1897 1.427 . S
C1890 H1881 0.930 1_556 S
C1890 C1888 1.378 . S
C1890 C1891 1.367 1_556 S
C1891 C1890 1.367 1_554 S
C1891 C1893 1.433 1_554 S
C1892 C1888 1.350 . S
C1892 C1889 1.463 . S
C1892 N1896 1.427 . S
C1893 H1883 0.929 1_556 S
C1893 C1891 1.433 1_556 S
C1893 N1896 1.384 . S
C1894 H1885 0.929 . S
C1894 C1886 1.378 . S
C1894 C1889 1.350 . S
C1895 H1882 0.929 . S
C1895 C1887 1.433 . S
C1895 N1897 1.384 . S
N1896 C1892 1.427 . S
N1896 C1893 1.384 . S
N1897 C1889 1.427 . S
N1897 C1895 1.384 . S
H1898 C1904 0.930 1_554 S
H1899 C1908 0.930 . S
H1900 C1913 0.928 1_554 S
H1901 C1911 0.929 . S
H1902 C1906 0.929 . S
H1903 C1912 0.929 . S
C1904 H1898 0.930 1_556 S
C1904 C1905 1.367 1_556 S
C1904 C1912 1.378 . S
C1905 C1904 1.367 1_554 S
C1905 C1913 1.433 1_554 S
C1906 H1902 0.929 . S
C1906 C1908 1.378 . S
C1906 C1910 1.350 . S
C1907 C1910 1.463 . S
C1907 C1912 1.350 . S
C1907 N1915 1.427 . S
C1908 H1899 0.930 . S
C1908 C1906 1.378 . S
C1908 C1909 1.367 . S
C1909 C1908 1.367 . S
C1909 C1911 1.433 . S
C1910 C1906 1.350 . S
C1910 C1907 1.463 . S
C1910 N1914 1.427 . S
C1911 H1901 0.929 . S
C1911 C1909 1.433 . S
C1911 N1914 1.384 . S
C1912 H1903 0.929 . S
C1912 C1904 1.378 . S
C1912 C1907 1.350 . S
C1913 H1900 0.928 1_556 S
C1913 C1905 1.433 1_556 S
C1913 N1915 1.384 . S
N1914 C1910 1.427 . S
N1914 C1911 1.384 . S
N1915 C1907 1.427 . S
N1915 C1913 1.384 . S
H1916 C1922 0.930 . S
H1917 C1926 0.930 . S
H1918 C1931 0.929 . S
H1919 C1929 0.929 . S
H1920 C1924 0.929 . S
H1921 C1930 0.929 . S
C1922 H1916 0.930 . S
C1922 C1923 1.367 . S
C1922 C1930 1.378 . S
C1923 C1922 1.367 . S
C1923 C1931 1.433 . S
C1924 H1920 0.929 . S
C1924 C1926 1.378 . S
C1924 C1928 1.350 . S
C1925 C1928 1.463 1_554 S
C1925 C1930 1.350 . S
C1925 N1933 1.427 . S
C1926 H1917 0.930 . S
C1926 C1924 1.378 . S
C1926 C1927 1.367 . S
C1927 C1926 1.367 . S
C1927 C1929 1.433 . S
C1928 C1924 1.350 . S
C1928 C1925 1.463 1_556 S
C1928 N1932 1.427 . S
C1929 H1919 0.929 . S
C1929 C1927 1.433 . S
C1929 N1932 1.384 . S
C1930 H1921 0.929 . S
C1930 C1922 1.378 . S
C1930 C1925 1.350 . S
C1931 H1918 0.929 . S
C1931 C1923 1.433 . S
C1931 N1933 1.384 . S
N1932 C1928 1.427 . S
N1932 C1929 1.384 . S
N1933 C1925 1.427 . S
N1933 C1931 1.384 . S
H1934 C1940 0.930 . S
H1935 C1944 0.930 . S
H1936 C1949 0.929 . S
H1937 C1947 0.929 . S
H1938 C1942 0.929 . S
H1939 C1948 0.929 . S
C1940 H1934 0.930 . S
C1940 C1941 1.367 . S
C1940 C1948 1.378 . S
C1941 C1940 1.367 . S
C1941 C1949 1.433 . S
C1942 H1938 0.929 . S
C1942 C1944 1.378 . S
C1942 C1946 1.350 . S
C1943 C1946 1.463 1_556 S
C1943 C1948 1.350 . S
C1943 N1951 1.427 . S
C1944 H1935 0.930 . S
C1944 C1942 1.378 . S
C1944 C1945 1.367 . S
C1945 C1944 1.367 . S
C1945 C1947 1.433 . S
C1946 C1942 1.350 . S
C1946 C1943 1.463 1_554 S
C1946 N1950 1.427 . S
C1947 H1937 0.929 . S
C1947 C1945 1.433 . S
C1947 N1950 1.384 . S
C1948 H1939 0.929 . S
C1948 C1940 1.378 . S
C1948 C1943 1.350 . S
C1949 H1936 0.929 . S
C1949 C1941 1.433 . S
C1949 N1951 1.384 . S
N1950 C1946 1.427 . S
N1950 C1947 1.384 . S
N1951 C1943 1.427 . S
N1951 C1949 1.384 . S
H1952 C1958 0.930 1_556 S
H1953 C1962 0.930 . S
H1954 C1967 0.929 1_556 S
H1955 C1965 0.929 . S
H1956 C1960 0.929 . S
H1957 C1966 0.929 . S
C1958 H1952 0.930 1_554 S
C1958 C1959 1.367 1_554 S
C1958 C1966 1.378 . S
C1959 C1958 1.367 1_556 S
C1959 C1967 1.433 1_556 S
C1960 H1956 0.929 . S
C1960 C1962 1.378 . S
C1960 C1964 1.350 . S
C1961 C1964 1.463 . S
C1961 C1966 1.350 . S
C1961 N1969 1.427 . S
C1962 H1953 0.930 . S
C1962 C1960 1.378 . S
C1962 C1963 1.367 . S
C1963 C1962 1.367 . S
C1963 C1965 1.433 . S
C1964 C1960 1.350 . S
C1964 C1961 1.463 . S
C1964 N1968 1.427 . S
C1965 H1955 0.929 . S
C1965 C1963 1.433 . S
C1965 N1968 1.384 . S
C1966 H1957 0.929 . S
C1966 C1958 1.378 . S
C1966 C1961 1.350 . S
C1967 H1954 0.929 1_554 S
C1967 C1959 1.433 1_554 S
C1967 N1969 1.384 . S
N1968 C1964 1.427 . S
N1968 C1965 1.384 . S
N1969 C1961 1.427 . S
N1969 C1967 1.384 . S
H1970 C1976 0.930 . S
H1971 C1980 0.930 . S
H1972 C1985 0.929 . S
H1973 C1983 0.929 1_556 S
H1974 C1978 0.929 . S
H1975 C1984 0.929 . S
C1976 H1970 0.930 . S
C1976 C1977 1.367 . S
C1976 C1984 1.378 . S
C1977 C1976 1.367 . S
C1977 C1985 1.433 1_565 S
C1978 H1974 0.929 . S
C1978 C1980 1.378 . S
C1978 C1982 1.378 . S
C1979 C1982 1.458 1_565 S
C1979 C1984 1.390 . S
C1979 N1987 1.390 1_565 S
C1980 H1971 0.930 . S
C1980 C1978 1.378 . S
C1980 C1981 1.367 1_554 S
C1981 C1980 1.367 1_556 S
C1981 C1983 1.433 1_546 S
C1982 C1978 1.378 . S
C1982 C1979 1.458 1_545 S
C1982 N1986 1.401 1_545 S
C1983 H1973 0.929 1_554 S
C1983 C1981 1.433 1_564 S
C1983 N1986 1.384 . S
C1984 H1975 0.929 . S
C1984 C1976 1.378 . S
C1984 C1979 1.390 . S
C1985 H1972 0.929 . S
C1985 C1977 1.433 1_545 S
C1985 N1987 1.384 . S
N1986 C1982 1.401 1_565 S
N1986 C1983 1.384 . S
N1987 C1979 1.390 1_545 S
N1987 C1985 1.384 . S
H1988 C1994 0.930 . S
H1989 C1998 0.930 . S
H1990 C2003 0.929 . S
H1991 C2001 0.929 . S
H1992 C1996 0.929 . S
H1993 C2002 0.929 . S
C1994 H1988 0.930 . S
C1994 C1995 1.367 1_545 S
C1994 C2002 1.378 . S
C1995 C1994 1.367 1_565 S
C1995 C2003 1.433 . S
C1996 H1992 0.929 . S
C1996 C1998 1.378 . S
C1996 C2000 1.356 . S
C1997 C2000 1.462 1_556 S
C1997 C2002 1.356 1_565 S
C1997 N2005 1.421 . S
C1998 H1989 0.930 . S
C1998 C1996 1.378 . S
C1998 C1999 1.367 1_565 S
C1999 C1998 1.367 1_545 S
C1999 C2001 1.433 . S
C2000 C1996 1.356 . S
C2000 C1997 1.462 1_554 S
C2000 N2004 1.421 1_565 S
C2001 H1991 0.929 . S
C2001 C1999 1.433 . S
C2001 N2004 1.384 . S
C2002 H1993 0.929 . S
C2002 C1994 1.378 . S
C2002 C1997 1.356 1_545 S
C2003 H1990 0.929 . S
C2003 C1995 1.433 . S
C2003 N2005 1.384 . S
N2004 C2000 1.421 1_545 S
N2004 C2001 1.384 . S
N2005 C1997 1.421 . S
N2005 C2003 1.384 . S
H2006 C2012 0.930 . S
H2007 C2016 0.930 . S
H2008 C2021 0.929 . S
H2009 C2019 0.929 . S
H2010 C2014 0.929 . S
H2011 C2020 0.929 . S
C2012 H2006 0.930 . S
C2012 C2013 1.367 . S
C2012 C2020 1.378 . S
C2013 C2012 1.367 . S
C2013 C2021 1.433 . S
C2014 H2010 0.929 . S
C2014 C2016 1.378 . S
C2014 C2018 1.350 . S
C2015 C2018 1.463 1_556 S
C2015 C2020 1.350 . S
C2015 N2023 1.427 . S
C2016 H2007 0.930 . S
C2016 C2014 1.378 . S
C2016 C2017 1.367 . S
C2017 C2016 1.367 . S
C2017 C2019 1.433 . S
C2018 C2014 1.350 . S
C2018 C2015 1.463 1_554 S
C2018 N2022 1.427 . S
C2019 H2009 0.929 . S
C2019 C2017 1.433 . S
C2019 N2022 1.384 . S
C2020 H2011 0.929 . S
C2020 C2012 1.378 . S
C2020 C2015 1.350 . S
C2021 H2008 0.929 . S
C2021 C2013 1.433 . S
C2021 N2023 1.384 . S
N2022 C2018 1.427 . S
N2022 C2019 1.384 . S
N2023 C2015 1.427 . S
N2023 C2021 1.384 . S
H2024 C2030 0.930 1_554 S
H2025 C2034 0.930 . S
H2026 C2039 0.929 1_554 S
H2027 C2037 0.929 . S
H2028 C2032 0.929 . S
H2029 C2038 0.929 . S
C2030 H2024 0.930 1_556 S
C2030 C2031 1.367 1_556 S
C2030 C2038 1.378 . S
C2031 C2030 1.367 1_554 S
C2031 C2039 1.433 1_554 S
C2032 H2028 0.929 . S
C2032 C2034 1.378 . S
C2032 C2036 1.350 . S
C2033 C2036 1.463 . S
C2033 C2038 1.350 . S
C2033 N2041 1.427 . S
C2034 H2025 0.930 . S
C2034 C2032 1.378 . S
C2034 C2035 1.367 . S
C2035 C2034 1.367 . S
C2035 C2037 1.433 . S
C2036 C2032 1.350 . S
C2036 C2033 1.463 . S
C2036 N2040 1.427 . S
C2037 H2027 0.929 . S
C2037 C2035 1.433 . S
C2037 N2040 1.384 . S
C2038 H2029 0.929 . S
C2038 C2030 1.378 . S
C2038 C2033 1.350 . S
C2039 H2026 0.929 1_556 S
C2039 C2031 1.433 1_556 S
C2039 N2041 1.384 . S
N2040 C2036 1.427 . S
N2040 C2037 1.384 . S
N2041 C2033 1.427 . S
N2041 C2039 1.384 . S
H2042 C2048 0.930 . S
H2043 C2052 0.930 1_554 S
H2044 C2057 0.929 . S
H2045 C2055 0.929 1_554 S
H2046 C2050 0.929 . S
H2047 C2056 0.929 . S
C2048 H2042 0.930 . S
C2048 C2049 1.367 1_565 S
C2048 C2056 1.378 . S
C2049 C2048 1.367 1_545 S
C2049 C2057 1.433 . S
C2050 H2046 0.929 . S
C2050 C2052 1.378 . S
C2050 C2054 1.361 . S
C2051 C2054 1.462 1_565 S
C2051 C2056 1.346 . S
C2051 N2059 1.432 1_565 S
C2052 H2043 0.930 1_556 S
C2052 C2050 1.378 . S
C2052 C2053 1.367 1_546 S
C2053 C2052 1.367 1_564 S
C2053 C2055 1.433 1_554 S
C2054 C2050 1.361 . S
C2054 C2051 1.462 1_545 S
C2054 N2058 1.416 1_545 S
C2055 H2045 0.929 1_556 S
C2055 C2053 1.433 1_556 S
C2055 N2058 1.384 . S
C2056 H2047 0.929 . S
C2056 C2048 1.378 . S
C2056 C2051 1.346 . S
C2057 H2044 0.929 . S
C2057 C2049 1.433 . S
C2057 N2059 1.384 . S
N2058 C2054 1.416 1_565 S
N2058 C2055 1.384 . S
N2059 C2051 1.432 1_545 S
N2059 C2057 1.384 . S
H2060 C2066 0.930 . S
H2061 C2070 0.930 . S
H2062 C2075 0.929 . S
H2063 C2073 0.929 . S
H2064 C2068 0.929 . S
H2065 C2074 0.929 . S
C2066 H2060 0.930 . S
C2066 C2067 1.367 1_545 S
C2066 C2074 1.378 . S
C2067 C2066 1.367 1_565 S
C2067 C2075 1.433 . S
C2068 H2064 0.929 . S
C2068 C2070 1.378 . S
C2068 C2072 1.357 1_565 S
C2069 C2072 1.462 1_556 S
C2069 C2074 1.357 . S
C2069 N2077 1.420 1_545 S
C2070 H2061 0.930 . S
C2070 C2068 1.378 . S
C2070 C2071 1.367 1_565 S
C2071 C2070 1.367 1_545 S
C2071 C2073 1.433 . S
C2072 C2068 1.357 1_545 S
C2072 C2069 1.462 1_554 S
C2072 N2076 1.420 . S
C2073 H2063 0.929 . S
C2073 C2071 1.433 . S
C2073 N2076 1.384 . S
C2074 H2065 0.929 . S
C2074 C2066 1.378 . S
C2074 C2069 1.357 . S
C2075 H2062 0.929 . S
C2075 C2067 1.433 . S
C2075 N2077 1.384 . S
N2076 C2072 1.420 . S
N2076 C2073 1.384 . S
N2077 C2069 1.420 1_565 S
N2077 C2075 1.384 . S
H2078 C2084 0.930 . S
H2079 C2088 0.930 . S
H2080 C2093 0.929 . S
H2081 C2091 0.929 . S
H2082 C2086 0.929 . S
H2083 C2092 0.929 . S
C2084 H2078 0.930 . S
C2084 C2085 1.367 . S
C2084 C2092 1.378 . S
C2085 C2084 1.367 . S
C2085 C2093 1.433 . S
C2086 H2082 0.929 . S
C2086 C2088 1.378 . S
C2086 C2090 1.350 . S
C2087 C2090 1.463 1_556 S
C2087 C2092 1.350 . S
C2087 N2095 1.427 . S
C2088 H2079 0.930 . S
C2088 C2086 1.378 . S
C2088 C2089 1.367 . S
C2089 C2088 1.367 . S
C2089 C2091 1.433 . S
C2090 C2086 1.350 . S
C2090 C2087 1.463 1_554 S
C2090 N2094 1.427 . S
C2091 H2081 0.929 . S
C2091 C2089 1.433 . S
C2091 N2094 1.384 . S
C2092 H2083 0.929 . S
C2092 C2084 1.378 . S
C2092 C2087 1.350 . S
C2093 H2080 0.929 . S
C2093 C2085 1.433 . S
C2093 N2095 1.384 . S
N2094 C2090 1.427 . S
N2094 C2091 1.384 . S
N2095 C2087 1.427 . S
N2095 C2093 1.384 . S
H2096 C2102 0.930 . S
H2097 C2106 0.930 . S
H2098 C2111 0.929 . S
H2099 C2109 0.929 . S
H2100 C2104 0.929 . S
H2101 C2110 0.929 . S
C2102 H2096 0.930 . S
C2102 C2103 1.367 . S
C2102 C2110 1.378 . S
C2103 C2102 1.367 . S
C2103 C2111 1.433 . S
C2104 H2100 0.929 . S
C2104 C2106 1.378 . S
C2104 C2108 1.350 . S
C2105 C2108 1.463 . S
C2105 C2110 1.350 . S
C2105 N2113 1.427 . S
C2106 H2097 0.930 . S
C2106 C2104 1.378 . S
C2106 C2107 1.367 . S
C2107 C2106 1.367 . S
C2107 C2109 1.433 . S
C2108 C2104 1.350 . S
C2108 C2105 1.463 . S
C2108 N2112 1.427 . S
C2109 H2099 0.929 . S
C2109 C2107 1.433 . S
C2109 N2112 1.384 . S
C2110 H2101 0.929 . S
C2110 C2102 1.378 . S
C2110 C2105 1.350 . S
C2111 H2098 0.929 . S
C2111 C2103 1.433 . S
C2111 N2113 1.384 . S
N2112 C2108 1.427 . S
N2112 C2109 1.384 . S
N2113 C2105 1.427 . S
N2113 C2111 1.384 . S
H2114 C2120 0.930 . S
H2115 C2124 0.930 . S
H2116 C2129 0.929 . S
H2117 C2127 0.929 . S
H2118 C2122 0.929 . S
H2119 C2128 0.929 . S
C2120 H2114 0.930 . S
C2120 C2121 1.367 . S
C2120 C2128 1.378 . S
C2121 C2120 1.367 . S
C2121 C2129 1.433 . S
C2122 H2118 0.929 . S
C2122 C2124 1.378 . S
C2122 C2126 1.350 . S
C2123 C2126 1.463 . S
C2123 C2128 1.350 . S
C2123 N2131 1.427 . S
C2124 H2115 0.930 . S
C2124 C2122 1.378 . S
C2124 C2125 1.367 . S
C2125 C2124 1.367 . S
C2125 C2127 1.433 . S
C2126 C2122 1.350 . S
C2126 C2123 1.463 . S
C2126 N2130 1.427 . S
C2127 H2117 0.929 . S
C2127 C2125 1.433 . S
C2127 N2130 1.384 . S
C2128 H2119 0.929 . S
C2128 C2120 1.378 . S
C2128 C2123 1.350 . S
C2129 H2116 0.929 . S
C2129 C2121 1.433 . S
C2129 N2131 1.384 . S
N2130 C2126 1.427 . S
N2130 C2127 1.384 . S
N2131 C2123 1.427 . S
N2131 C2129 1.384 . S
H2132 C2138 0.930 . S
H2133 C2142 0.930 . S
H2134 C2147 0.929 . S
H2135 C2145 0.929 . S
H2136 C2140 0.929 . S
H2137 C2146 0.929 . S
C2138 H2132 0.930 . S
C2138 C2139 1.367 . S
C2138 C2146 1.378 . S
C2139 C2138 1.367 . S
C2139 C2147 1.433 . S
C2140 H2136 0.929 . S
C2140 C2142 1.378 . S
C2140 C2144 1.350 . S
C2141 C2144 1.463 . S
C2141 C2146 1.350 . S
C2141 N2149 1.427 . S
C2142 H2133 0.930 . S
C2142 C2140 1.378 . S
C2142 C2143 1.367 . S
C2143 C2142 1.367 . S
C2143 C2145 1.433 . S
C2144 C2140 1.350 . S
C2144 C2141 1.463 . S
C2144 N2148 1.427 . S
C2145 H2135 0.929 . S
C2145 C2143 1.433 . S
C2145 N2148 1.384 . S
C2146 H2137 0.929 . S
C2146 C2138 1.378 . S
C2146 C2141 1.350 . S
C2147 H2134 0.929 . S
C2147 C2139 1.433 . S
C2147 N2149 1.384 . S
N2148 C2144 1.427 . S
N2148 C2145 1.384 . S
N2149 C2141 1.427 . S
N2149 C2147 1.384 . S
H2150 C2156 0.930 . S
H2151 C2160 0.930 . S
H2152 C2165 0.929 . S
H2153 C2163 0.929 . S
H2154 C2158 0.929 . S
H2155 C2164 0.929 . S
C2156 H2150 0.930 . S
C2156 C2157 1.367 . S
C2156 C2164 1.378 . S
C2157 C2156 1.367 . S
C2157 C2165 1.433 . S
C2158 H2154 0.929 . S
C2158 C2160 1.378 . S
C2158 C2162 1.350 . S
C2159 C2162 1.463 . S
C2159 C2164 1.350 . S
C2159 N2167 1.427 . S
C2160 H2151 0.930 . S
C2160 C2158 1.378 . S
C2160 C2161 1.367 . S
C2161 C2160 1.367 . S
C2161 C2163 1.433 . S
C2162 C2158 1.350 . S
C2162 C2159 1.463 . S
C2162 N2166 1.427 . S
C2163 H2153 0.929 . S
C2163 C2161 1.433 . S
C2163 N2166 1.384 . S
C2164 H2155 0.929 . S
C2164 C2156 1.378 . S
C2164 C2159 1.350 . S
C2165 H2152 0.929 . S
C2165 C2157 1.433 . S
C2165 N2167 1.384 . S
N2166 C2162 1.427 . S
N2166 C2163 1.384 . S
N2167 C2159 1.427 . S
N2167 C2165 1.384 . S
H2168 C2174 0.930 . S
H2169 C2178 0.930 . S
H2170 C2183 0.929 . S
H2171 C2181 0.929 . S
H2172 C2176 0.929 . S
H2173 C2182 0.929 . S
C2174 H2168 0.930 . S
C2174 C2175 1.367 . S
C2174 C2182 1.378 . S
C2175 C2174 1.367 . S
C2175 C2183 1.433 . S
C2176 H2172 0.929 . S
C2176 C2178 1.378 . S
C2176 C2180 1.350 . S
C2177 C2180 1.463 . S
C2177 C2182 1.350 . S
C2177 N2185 1.427 . S
C2178 H2169 0.930 . S
C2178 C2176 1.378 . S
C2178 C2179 1.367 . S
C2179 C2178 1.367 . S
C2179 C2181 1.433 . S
C2180 C2176 1.350 . S
C2180 C2177 1.463 . S
C2180 N2184 1.427 . S
C2181 H2171 0.929 . S
C2181 C2179 1.433 . S
C2181 N2184 1.384 . S
C2182 H2173 0.929 . S
C2182 C2174 1.378 . S
C2182 C2177 1.350 . S
C2183 H2170 0.929 . S
C2183 C2175 1.433 . S
C2183 N2185 1.384 . S
N2184 C2180 1.427 . S
N2184 C2181 1.384 . S
N2185 C2177 1.427 . S
N2185 C2183 1.384 . S
H2186 C2192 0.930 . S
H2187 C2196 0.930 . S
H2188 C2201 0.929 . S
H2189 C2199 0.929 . S
H2190 C2194 0.929 . S
H2191 C2200 0.929 . S
C2192 H2186 0.930 . S
C2192 C2193 1.367 . S
C2192 C2200 1.378 . S
C2193 C2192 1.367 . S
C2193 C2201 1.433 . S
C2194 H2190 0.929 . S
C2194 C2196 1.378 . S
C2194 C2198 1.350 . S
C2195 C2198 1.463 . S
C2195 C2200 1.350 . S
C2195 N2203 1.427 . S
C2196 H2187 0.930 . S
C2196 C2194 1.378 . S
C2196 C2197 1.367 . S
C2197 C2196 1.367 . S
C2197 C2199 1.433 . S
C2198 C2194 1.350 . S
C2198 C2195 1.463 . S
C2198 N2202 1.427 . S
C2199 H2189 0.929 . S
C2199 C2197 1.433 . S
C2199 N2202 1.384 . S
C2200 H2191 0.929 . S
C2200 C2192 1.378 . S
C2200 C2195 1.350 . S
C2201 H2188 0.929 . S
C2201 C2193 1.433 . S
C2201 N2203 1.384 . S
N2202 C2198 1.427 . S
N2202 C2199 1.384 . S
N2203 C2195 1.427 . S
N2203 C2201 1.384 . S
H2204 C2210 0.930 . S
H2205 C2214 0.930 . S
H2206 C2219 0.929 . S
H2207 C2217 0.929 . S
H2208 C2212 0.929 . S
H2209 C2218 0.929 . S
C2210 H2204 0.930 . S
C2210 C2211 1.367 . S
C2210 C2218 1.378 . S
C2211 C2210 1.367 . S
C2211 C2219 1.433 . S
C2212 H2208 0.929 . S
C2212 C2214 1.378 . S
C2212 C2216 1.350 . S
C2213 C2216 1.463 . S
C2213 C2218 1.350 . S
C2213 N2221 1.427 . S
C2214 H2205 0.930 . S
C2214 C2212 1.378 . S
C2214 C2215 1.367 . S
C2215 C2214 1.367 . S
C2215 C2217 1.433 . S
C2216 C2212 1.350 . S
C2216 C2213 1.463 . S
C2216 N2220 1.427 . S
C2217 H2207 0.929 . S
C2217 C2215 1.433 . S
C2217 N2220 1.384 . S
C2218 H2209 0.929 . S
C2218 C2210 1.378 . S
C2218 C2213 1.350 . S
C2219 H2206 0.929 . S
C2219 C2211 1.433 . S
C2219 N2221 1.384 . S
N2220 C2216 1.427 . S
N2220 C2217 1.384 . S
N2221 C2213 1.427 . S
N2221 C2219 1.384 . S
H2222 C2228 0.930 . S
H2223 C2232 0.930 . S
H2224 C2237 0.929 . S
H2225 C2235 0.929 . S
H2226 C2230 0.929 . S
H2227 C2236 0.929 . S
C2228 H2222 0.930 . S
C2228 C2229 1.367 . S
C2228 C2236 1.378 . S
C2229 C2228 1.367 . S
C2229 C2237 1.433 . S
C2230 H2226 0.929 . S
C2230 C2232 1.378 . S
C2230 C2234 1.350 . S
C2231 C2234 1.463 . S
C2231 C2236 1.350 . S
C2231 N2239 1.427 . S
C2232 H2223 0.930 . S
C2232 C2230 1.378 . S
C2232 C2233 1.367 . S
C2233 C2232 1.367 . S
C2233 C2235 1.433 . S
C2234 C2230 1.350 . S
C2234 C2231 1.463 . S
C2234 N2238 1.427 . S
C2235 H2225 0.929 . S
C2235 C2233 1.433 . S
C2235 N2238 1.384 . S
C2236 H2227 0.929 . S
C2236 C2228 1.378 . S
C2236 C2231 1.350 . S
C2237 H2224 0.929 . S
C2237 C2229 1.433 . S
C2237 N2239 1.384 . S
N2238 C2234 1.427 . S
N2238 C2235 1.384 . S
N2239 C2231 1.427 . S
N2239 C2237 1.384 . S
H2240 C2246 0.930 . S
H2241 C2250 0.930 . S
H2242 C2255 0.929 . S
H2243 C2253 0.929 . S
H2244 C2248 0.929 . S
H2245 C2254 0.929 . S
C2246 H2240 0.930 . S
C2246 C2247 1.367 . S
C2246 C2254 1.378 . S
C2247 C2246 1.367 . S
C2247 C2255 1.433 . S
C2248 H2244 0.929 . S
C2248 C2250 1.378 . S
C2248 C2252 1.350 . S
C2249 C2252 1.463 . S
C2249 C2254 1.350 . S
C2249 N2257 1.427 . S
C2250 H2241 0.930 . S
C2250 C2248 1.378 . S
C2250 C2251 1.367 . S
C2251 C2250 1.367 . S
C2251 C2253 1.433 . S
C2252 C2248 1.350 . S
C2252 C2249 1.463 . S
C2252 N2256 1.427 . S
C2253 H2243 0.929 . S
C2253 C2251 1.433 . S
C2253 N2256 1.384 . S
C2254 H2245 0.929 . S
C2254 C2246 1.378 . S
C2254 C2249 1.350 . S
C2255 H2242 0.929 . S
C2255 C2247 1.433 . S
C2255 N2257 1.384 . S
N2256 C2252 1.427 . S
N2256 C2253 1.384 . S
N2257 C2249 1.427 . S
N2257 C2255 1.384 . S
H2258 C2264 0.930 . S
H2259 C2268 0.930 . S
H2260 C2273 0.929 . S
H2261 C2271 0.929 . S
H2262 C2266 0.929 . S
H2263 C2272 0.929 . S
C2264 H2258 0.930 . S
C2264 C2265 1.367 . S
C2264 C2272 1.378 . S
C2265 C2264 1.367 . S
C2265 C2273 1.433 . S
C2266 H2262 0.929 . S
C2266 C2268 1.378 . S
C2266 C2270 1.350 . S
C2267 C2270 1.463 . S
C2267 C2272 1.350 . S
C2267 N2275 1.427 . S
C2268 H2259 0.930 . S
C2268 C2266 1.378 . S
C2268 C2269 1.367 . S
C2269 C2268 1.367 . S
C2269 C2271 1.433 . S
C2270 C2266 1.350 . S
C2270 C2267 1.463 . S
C2270 N2274 1.427 . S
C2271 H2261 0.929 . S
C2271 C2269 1.433 . S
C2271 N2274 1.384 . S
C2272 H2263 0.929 . S
C2272 C2264 1.378 . S
C2272 C2267 1.350 . S
C2273 H2260 0.929 . S
C2273 C2265 1.433 . S
C2273 N2275 1.384 . S
N2274 C2270 1.427 . S
N2274 C2271 1.384 . S
N2275 C2267 1.427 . S
N2275 C2273 1.384 . S
H2276 C2282 0.930 . S
H2277 C2286 0.930 . S
H2278 C2291 0.929 . S
H2279 C2289 0.929 . S
H2280 C2284 0.929 . S
H2281 C2290 0.929 1_554 S
C2282 H2276 0.930 . S
C2282 C2283 1.367 1_554 S
C2282 C2290 1.378 1_554 S
C2283 C2282 1.367 1_556 S
C2283 C2291 1.433 . S
C2284 H2280 0.929 . S
C2284 C2286 1.378 . S
C2284 C2288 1.350 . S
C2285 C2288 1.463 . S
C2285 C2290 1.350 . S
C2285 N2293 1.427 . S
C2286 H2277 0.930 . S
C2286 C2284 1.378 . S
C2286 C2287 1.367 . S
C2287 C2286 1.367 . S
C2287 C2289 1.433 . S
C2288 C2284 1.350 . S
C2288 C2285 1.463 . S
C2288 N2292 1.427 . S
C2289 H2279 0.929 . S
C2289 C2287 1.433 . S
C2289 N2292 1.384 . S
C2290 H2281 0.929 1_556 S
C2290 C2282 1.378 1_556 S
C2290 C2285 1.350 . S
C2291 H2278 0.929 . S
C2291 C2283 1.433 . S
C2291 N2293 1.384 . S
N2292 C2288 1.427 . S
N2292 C2289 1.384 . S
N2293 C2285 1.427 . S
N2293 C2291 1.384 . S
H2294 C2300 0.930 . S
H2295 C2304 0.930 . S
H2296 C2309 0.929 . S
H2297 C2307 0.929 . S
H2298 C2302 0.929 . S
H2299 C2308 0.929 . S
C2300 H2294 0.930 . S
C2300 C2301 1.367 . S
C2300 C2308 1.378 . S
C2301 C2300 1.367 . S
C2301 C2309 1.433 . S
C2302 H2298 0.929 . S
C2302 C2304 1.378 . S
C2302 C2306 1.350 . S
C2303 C2306 1.463 . S
C2303 C2308 1.350 . S
C2303 N2311 1.427 . S
C2304 H2295 0.930 . S
C2304 C2302 1.378 . S
C2304 C2305 1.367 . S
C2305 C2304 1.367 . S
C2305 C2307 1.433 1_556 S
C2306 C2302 1.350 . S
C2306 C2303 1.463 . S
C2306 N2310 1.427 . S
C2307 H2297 0.929 . S
C2307 C2305 1.433 1_554 S
C2307 N2310 1.384 1_554 S
C2308 H2299 0.929 . S
C2308 C2300 1.378 . S
C2308 C2303 1.350 . S
C2309 H2296 0.929 . S
C2309 C2301 1.433 . S
C2309 N2311 1.384 . S
N2310 C2306 1.427 . S
N2310 C2307 1.384 1_556 S
N2311 C2303 1.427 . S
N2311 C2309 1.384 . S
H2312 C2318 0.930 . S
H2313 C2322 0.930 . S
H2314 C2327 0.929 . S
H2315 C2325 0.929 . S
H2316 C2320 0.929 . S
H2317 C2326 0.929 . S
C2318 H2312 0.930 . S
C2318 C2319 1.367 . S
C2318 C2326 1.378 . S
C2319 C2318 1.367 . S
C2319 C2327 1.433 . S
C2320 H2316 0.929 . S
C2320 C2322 1.378 . S
C2320 C2324 1.350 . S
C2321 C2324 1.463 . S
C2321 C2326 1.350 . S
C2321 N2329 1.427 . S
C2322 H2313 0.930 . S
C2322 C2320 1.378 . S
C2322 C2323 1.367 . S
C2323 C2322 1.367 . S
C2323 C2325 1.433 . S
C2324 C2320 1.350 . S
C2324 C2321 1.463 . S
C2324 N2328 1.427 . S
C2325 H2315 0.929 . S
C2325 C2323 1.433 . S
C2325 N2328 1.384 . S
C2326 H2317 0.929 . S
C2326 C2318 1.378 . S
C2326 C2321 1.350 . S
C2327 H2314 0.929 . S
C2327 C2319 1.433 . S
C2327 N2329 1.384 . S
N2328 C2324 1.427 . S
N2328 C2325 1.384 . S
N2329 C2321 1.427 . S
N2329 C2327 1.384 . S
H2330 C2336 0.930 . S
H2331 C2340 0.930 . S
H2332 C2345 0.929 . S
H2333 C2343 0.929 . S
H2334 C2338 0.929 . S
H2335 C2344 0.929 . S
C2336 H2330 0.930 . S
C2336 C2337 1.367 . S
C2336 C2344 1.378 . S
C2337 C2336 1.367 . S
C2337 C2345 1.433 . S
C2338 H2334 0.929 . S
C2338 C2340 1.378 . S
C2338 C2342 1.350 . S
C2339 C2342 1.463 . S
C2339 C2344 1.350 . S
C2339 N2347 1.427 . S
C2340 H2331 0.930 . S
C2340 C2338 1.378 . S
C2340 C2341 1.367 . S
C2341 C2340 1.367 . S
C2341 C2343 1.433 . S
C2342 C2338 1.350 . S
C2342 C2339 1.463 . S
C2342 N2346 1.427 . S
C2343 H2333 0.929 . S
C2343 C2341 1.433 . S
C2343 N2346 1.384 . S
C2344 H2335 0.929 . S
C2344 C2336 1.378 . S
C2344 C2339 1.350 . S
C2345 H2332 0.929 . S
C2345 C2337 1.433 . S
C2345 N2347 1.384 . S
N2346 C2342 1.427 . S
N2346 C2343 1.384 . S
N2347 C2339 1.427 . S
N2347 C2345 1.384 . S
H2348 C2354 0.930 . S
H2349 C2358 0.930 . S
H2350 C2363 0.929 . S
H2351 C2361 0.929 . S
H2352 C2356 0.929 . S
H2353 C2362 0.929 . S
C2354 H2348 0.930 . S
C2354 C2355 1.367 . S
C2354 C2362 1.378 . S
C2355 C2354 1.367 . S
C2355 C2363 1.433 1_554 S
C2356 H2352 0.929 . S
C2356 C2358 1.378 . S
C2356 C2360 1.350 . S
C2357 C2360 1.463 . S
C2357 C2362 1.350 . S
C2357 N2365 1.427 . S
C2358 H2349 0.930 . S
C2358 C2356 1.378 . S
C2358 C2359 1.367 . S
C2359 C2358 1.367 . S
C2359 C2361 1.433 . S
C2360 C2356 1.350 . S
C2360 C2357 1.463 . S
C2360 N2364 1.427 . S
C2361 H2351 0.929 . S
C2361 C2359 1.433 . S
C2361 N2364 1.384 . S
C2362 H2353 0.929 . S
C2362 C2354 1.378 . S
C2362 C2357 1.350 . S
C2363 H2350 0.929 . S
C2363 C2355 1.433 1_556 S
C2363 N2365 1.384 1_556 S
N2364 C2360 1.427 . S
N2364 C2361 1.384 . S
N2365 C2357 1.427 . S
N2365 C2363 1.384 1_554 S
H2366 C2372 0.930 . S
H2367 C2376 0.930 . S
H2368 C2381 0.929 . S
H2369 C2379 0.929 . S
H2370 C2374 0.929 . S
H2371 C2380 0.929 . S
C2372 H2366 0.930 . S
C2372 C2373 1.367 . S
C2372 C2380 1.378 . S
C2373 C2372 1.367 . S
C2373 C2381 1.433 . S
C2374 H2370 0.929 . S
C2374 C2376 1.378 . S
C2374 C2378 1.350 . S
C2375 C2378 1.463 . S
C2375 C2380 1.350 . S
C2375 N2383 1.427 . S
C2376 H2367 0.930 . S
C2376 C2374 1.378 . S
C2376 C2377 1.367 . S
C2377 C2376 1.367 . S
C2377 C2379 1.433 . S
C2378 C2374 1.350 . S
C2378 C2375 1.463 . S
C2378 N2382 1.427 . S
C2379 H2369 0.929 . S
C2379 C2377 1.433 . S
C2379 N2382 1.384 . S
C2380 H2371 0.929 . S
C2380 C2372 1.378 . S
C2380 C2375 1.350 . S
C2381 H2368 0.929 . S
C2381 C2373 1.433 . S
C2381 N2383 1.384 . S
N2382 C2378 1.427 . S
N2382 C2379 1.384 . S
N2383 C2375 1.427 . S
N2383 C2381 1.384 . S
H2384 C2390 0.930 . S
H2385 C2394 0.930 . S
H2386 C2399 0.929 . S
H2387 C2397 0.929 . S
H2388 C2392 0.929 . S
H2389 C2398 0.929 1_554 S
C2390 H2384 0.930 . S
C2390 C2391 1.367 1_554 S
C2390 C2398 1.378 1_554 S
C2391 C2390 1.367 1_556 S
C2391 C2399 1.433 . S
C2392 H2388 0.929 . S
C2392 C2394 1.378 . S
C2392 C2396 1.350 . S
C2393 C2396 1.463 . S
C2393 C2398 1.350 . S
C2393 N2401 1.427 . S
C2394 H2385 0.930 . S
C2394 C2392 1.378 . S
C2394 C2395 1.367 . S
C2395 C2394 1.367 . S
C2395 C2397 1.433 . S
C2396 C2392 1.350 . S
C2396 C2393 1.463 . S
C2396 N2400 1.427 . S
C2397 H2387 0.929 . S
C2397 C2395 1.433 . S
C2397 N2400 1.384 . S
C2398 H2389 0.929 1_556 S
C2398 C2390 1.378 1_556 S
C2398 C2393 1.350 . S
C2399 H2386 0.929 . S
C2399 C2391 1.433 . S
C2399 N2401 1.384 . S
N2400 C2396 1.427 . S
N2400 C2397 1.384 . S
N2401 C2393 1.427 . S
N2401 C2399 1.384 . S
H2402 C2408 0.930 . S
H2403 C2412 0.930 . S
H2404 C2417 0.929 . S
H2405 C2415 0.929 . S
H2406 C2410 0.929 1_554 S
H2407 C2416 0.929 . S
C2408 H2402 0.930 . S
C2408 C2409 1.367 . S
C2408 C2416 1.378 . S
C2409 C2408 1.367 . S
C2409 C2417 1.433 . S
C2410 H2406 0.929 1_556 S
C2410 C2412 1.378 1_556 S
C2410 C2414 1.350 . S
C2411 C2414 1.463 . S
C2411 C2416 1.350 . S
C2411 N2419 1.427 . S
C2412 H2403 0.930 . S
C2412 C2410 1.378 1_554 S
C2412 C2413 1.367 1_554 S
C2413 C2412 1.367 1_556 S
C2413 C2415 1.433 . S
C2414 C2410 1.350 . S
C2414 C2411 1.463 . S
C2414 N2418 1.427 . S
C2415 H2405 0.929 . S
C2415 C2413 1.433 . S
C2415 N2418 1.384 . S
C2416 H2407 0.929 . S
C2416 C2408 1.378 . S
C2416 C2411 1.350 . S
C2417 H2404 0.929 . S
C2417 C2409 1.433 . S
C2417 N2419 1.384 . S
N2418 C2414 1.427 . S
N2418 C2415 1.384 . S
N2419 C2411 1.427 . S
N2419 C2417 1.384 . S
H2420 C2426 0.930 . S
H2421 C2430 0.930 . S
H2422 C2435 0.929 . S
H2423 C2433 0.929 . S
H2424 C2428 0.929 . S
H2425 C2434 0.929 . S
C2426 H2420 0.930 . S
C2426 C2427 1.367 . S
C2426 C2434 1.378 . S
C2427 C2426 1.367 . S
C2427 C2435 1.433 . S
C2428 H2424 0.929 . S
C2428 C2430 1.378 . S
C2428 C2432 1.350 . S
C2429 C2432 1.463 . S
C2429 C2434 1.350 . S
C2429 N2437 1.427 . S
C2430 H2421 0.930 . S
C2430 C2428 1.378 . S
C2430 C2431 1.367 . S
C2431 C2430 1.367 . S
C2431 C2433 1.433 . S
C2432 C2428 1.350 . S
C2432 C2429 1.463 . S
C2432 N2436 1.427 . S
C2433 H2423 0.929 . S
C2433 C2431 1.433 . S
C2433 N2436 1.384 . S
C2434 H2425 0.929 . S
C2434 C2426 1.378 . S
C2434 C2429 1.350 . S
C2435 H2422 0.929 . S
C2435 C2427 1.433 . S
C2435 N2437 1.384 . S
N2436 C2432 1.427 . S
N2436 C2433 1.384 . S
N2437 C2429 1.427 . S
N2437 C2435 1.384 . S
H2438 C2444 0.930 . S
H2439 C2448 0.930 . S
H2440 C2453 0.929 . S
H2441 C2451 0.929 . S
H2442 C2446 0.929 . S
H2443 C2452 0.929 . S
C2444 H2438 0.930 . S
C2444 C2445 1.367 . S
C2444 C2452 1.378 . S
C2445 C2444 1.367 . S
C2445 C2453 1.433 . S
C2446 H2442 0.929 . S
C2446 C2448 1.378 . S
C2446 C2450 1.350 . S
C2447 C2450 1.463 . S
C2447 C2452 1.350 . S
C2447 N2455 1.427 . S
C2448 H2439 0.930 . S
C2448 C2446 1.378 . S
C2448 C2449 1.367 . S
C2449 C2448 1.367 . S
C2449 C2451 1.433 . S
C2450 C2446 1.350 . S
C2450 C2447 1.463 . S
C2450 N2454 1.427 . S
C2451 H2441 0.929 . S
C2451 C2449 1.433 . S
C2451 N2454 1.384 . S
C2452 H2443 0.929 . S
C2452 C2444 1.378 . S
C2452 C2447 1.350 . S
C2453 H2440 0.929 . S
C2453 C2445 1.433 . S
C2453 N2455 1.384 . S
N2454 C2450 1.427 . S
N2454 C2451 1.384 . S
N2455 C2447 1.427 . S
N2455 C2453 1.384 . S
H2456 C2462 0.930 . S
H2457 C2466 0.930 . S
H2458 C2471 0.929 . S
H2459 C2469 0.929 . S
H2460 C2464 0.929 . S
H2461 C2470 0.929 . S
C2462 H2456 0.930 . S
C2462 C2463 1.367 . S
C2462 C2470 1.378 . S
C2463 C2462 1.367 . S
C2463 C2471 1.433 1_554 S
C2464 H2460 0.929 . S
C2464 C2466 1.378 . S
C2464 C2468 1.350 . S
C2465 C2468 1.463 . S
C2465 C2470 1.350 . S
C2465 N2473 1.427 . S
C2466 H2457 0.930 . S
C2466 C2464 1.378 . S
C2466 C2467 1.367 . S
C2467 C2466 1.367 . S
C2467 C2469 1.433 . S
C2468 C2464 1.350 . S
C2468 C2465 1.463 . S
C2468 N2472 1.427 . S
C2469 H2459 0.929 . S
C2469 C2467 1.433 . S
C2469 N2472 1.384 . S
C2470 H2461 0.929 . S
C2470 C2462 1.378 . S
C2470 C2465 1.350 . S
C2471 H2458 0.929 . S
C2471 C2463 1.433 1_556 S
C2471 N2473 1.384 1_556 S
N2472 C2468 1.427 . S
N2472 C2469 1.384 . S
N2473 C2465 1.427 . S
N2473 C2471 1.384 1_554 S
H2474 C2480 0.930 . S
H2475 C2484 0.930 1_556 S
H2476 C2489 0.929 . S
H2477 C2487 0.929 . S
H2478 C2482 0.929 . S
H2479 C2488 0.929 . S
C2480 H2474 0.930 . S
C2480 C2481 1.367 . S
C2480 C2488 1.378 . S
C2481 C2480 1.367 . S
C2481 C2489 1.433 . S
C2482 H2478 0.929 . S
C2482 C2484 1.378 . S
C2482 C2486 1.350 . S
C2483 C2486 1.463 . S
C2483 C2488 1.350 . S
C2483 N2491 1.427 . S
C2484 H2475 0.930 1_554 S
C2484 C2482 1.378 . S
C2484 C2485 1.367 . S
C2485 C2484 1.367 . S
C2485 C2487 1.433 . S
C2486 C2482 1.350 . S
C2486 C2483 1.463 . S
C2486 N2490 1.427 . S
C2487 H2477 0.929 . S
C2487 C2485 1.433 . S
C2487 N2490 1.384 . S
C2488 H2479 0.929 . S
C2488 C2480 1.378 . S
C2488 C2483 1.350 . S
C2489 H2476 0.929 . S
C2489 C2481 1.433 . S
C2489 N2491 1.384 . S
N2490 C2486 1.427 . S
N2490 C2487 1.384 . S
N2491 C2483 1.427 . S
N2491 C2489 1.384 . S
H2492 C2498 0.930 . S
H2493 C2502 0.930 . S
H2494 C2507 0.929 . S
H2495 C2505 0.929 . S
H2496 C2500 0.929 . S
H2497 C2506 0.929 . S
C2498 H2492 0.930 . S
C2498 C2499 1.367 . S
C2498 C2506 1.378 . S
C2499 C2498 1.367 . S
C2499 C2507 1.433 . S
C2500 H2496 0.929 . S
C2500 C2502 1.378 . S
C2500 C2504 1.350 . S
C2501 C2504 1.463 . S
C2501 C2506 1.350 . S
C2501 N2509 1.427 . S
C2502 H2493 0.930 . S
C2502 C2500 1.378 . S
C2502 C2503 1.367 . S
C2503 C2502 1.367 . S
C2503 C2505 1.433 . S
C2504 C2500 1.350 . S
C2504 C2501 1.463 . S
C2504 N2508 1.427 . S
C2505 H2495 0.929 . S
C2505 C2503 1.433 . S
C2505 N2508 1.384 . S
C2506 H2497 0.929 . S
C2506 C2498 1.378 . S
C2506 C2501 1.350 . S
C2507 H2494 0.929 . S
C2507 C2499 1.433 . S
C2507 N2509 1.384 . S
N2508 C2504 1.427 . S
N2508 C2505 1.384 . S
N2509 C2501 1.427 . S
N2509 C2507 1.384 . S
H2510 C2516 0.930 . S
H2511 C2520 0.930 . S
H2512 C2525 0.929 . S
H2513 C2523 0.929 . S
H2514 C2518 0.929 . S
H2515 C2524 0.929 . S
C2516 H2510 0.930 . S
C2516 C2517 1.367 . S
C2516 C2524 1.378 . S
C2517 C2516 1.367 . S
C2517 C2525 1.433 . S
C2518 H2514 0.929 . S
C2518 C2520 1.378 . S
C2518 C2522 1.350 . S
C2519 C2522 1.463 . S
C2519 C2524 1.350 . S
C2519 N2527 1.427 . S
C2520 H2511 0.930 . S
C2520 C2518 1.378 . S
C2520 C2521 1.367 . S
C2521 C2520 1.367 . S
C2521 C2523 1.433 . S
C2522 C2518 1.350 . S
C2522 C2519 1.463 . S
C2522 N2526 1.427 . S
C2523 H2513 0.929 . S
C2523 C2521 1.433 . S
C2523 N2526 1.384 . S
C2524 H2515 0.929 . S
C2524 C2516 1.378 . S
C2524 C2519 1.350 . S
C2525 H2512 0.929 . S
C2525 C2517 1.433 . S
C2525 N2527 1.384 . S
N2526 C2522 1.427 . S
N2526 C2523 1.384 . S
N2527 C2519 1.427 . S
N2527 C2525 1.384 . S
H2528 C2534 0.930 . S
H2529 C2538 0.930 . S
H2530 C2543 0.929 . S
H2531 C2541 0.929 1_556 S
H2532 C2536 0.929 . S
H2533 C2542 0.935 . S
C2534 H2528 0.930 . S
C2534 C2535 1.367 . S
C2534 C2542 1.378 . S
C2535 C2534 1.367 . S
C2535 C2543 1.433 . S
C2536 H2532 0.929 . S
C2536 C2538 1.378 . S
C2536 C2540 1.350 . S
C2537 C2540 1.463 . S
C2537 C2542 1.350 . S
C2537 N2545 1.427 . S
C2538 H2529 0.930 . S
C2538 C2536 1.378 . S
C2538 C2539 1.367 . S
C2539 C2538 1.367 . S
C2539 C2541 1.433 . S
C2540 C2536 1.350 . S
C2540 C2537 1.463 . S
C2540 N2544 1.427 . S
C2541 H2531 0.929 1_554 S
C2541 C2539 1.433 . S
C2541 N2544 1.384 . S
C2542 H2533 0.935 . S
C2542 C2534 1.378 . S
C2542 C2537 1.350 . S
C2543 H2530 0.929 . S
C2543 C2535 1.433 . S
C2543 N2545 1.384 . S
N2544 C2540 1.427 . S
N2544 C2541 1.384 . S
N2545 C2537 1.427 . S
N2545 C2543 1.384 . S
H2546 C2552 0.930 1_556 S
H2547 C2556 0.930 . S
H2548 C2561 0.929 . S
H2549 C2559 0.929 . S
H2550 C2554 0.929 . S
H2551 C2560 0.929 . S
C2552 H2546 0.930 1_554 S
C2552 C2553 1.367 . S
C2552 C2560 1.378 . S
C2553 C2552 1.367 . S
C2553 C2561 1.433 . S
C2554 H2550 0.929 . S
C2554 C2556 1.378 . S
C2554 C2558 1.350 . S
C2555 C2558 1.463 . S
C2555 C2560 1.350 . S
C2555 N2563 1.427 . S
C2556 H2547 0.930 . S
C2556 C2554 1.378 . S
C2556 C2557 1.367 . S
C2557 C2556 1.367 . S
C2557 C2559 1.433 . S
C2558 C2554 1.350 . S
C2558 C2555 1.463 . S
C2558 N2562 1.427 . S
C2559 H2549 0.929 . S
C2559 C2557 1.433 . S
C2559 N2562 1.384 . S
C2560 H2551 0.929 . S
C2560 C2552 1.378 . S
C2560 C2555 1.350 . S
C2561 H2548 0.929 . S
C2561 C2553 1.433 . S
C2561 N2563 1.384 . S
N2562 C2558 1.427 . S
N2562 C2559 1.384 . S
N2563 C2555 1.427 . S
N2563 C2561 1.384 . S
H2564 C2570 0.930 1_554 S
H2565 C2574 0.930 . S
H2566 C2579 0.929 . S
H2567 C2577 0.929 . S
H2568 C2572 0.929 . S
H2569 C2578 0.929 1_554 S
C2570 H2564 0.930 1_556 S
C2570 C2571 1.367 . S
C2570 C2578 1.378 . S
C2571 C2570 1.367 . S
C2571 C2579 1.433 . S
C2572 H2568 0.929 . S
C2572 C2574 1.378 . S
C2572 C2576 1.350 . S
C2573 C2576 1.463 . S
C2573 C2578 1.350 . S
C2573 N2581 1.427 . S
C2574 H2565 0.930 . S
C2574 C2572 1.378 . S
C2574 C2575 1.367 . S
C2575 C2574 1.367 . S
C2575 C2577 1.433 . S
C2576 C2572 1.350 . S
C2576 C2573 1.463 . S
C2576 N2580 1.427 . S
C2577 H2567 0.929 . S
C2577 C2575 1.433 . S
C2577 N2580 1.384 . S
C2578 H2569 0.929 1_556 S
C2578 C2570 1.378 . S
C2578 C2573 1.350 . S
C2579 H2566 0.929 . S
C2579 C2571 1.433 . S
C2579 N2581 1.384 . S
N2580 C2576 1.427 . S
N2580 C2577 1.384 . S
N2581 C2573 1.427 . S
N2581 C2579 1.384 . S
H2582 C2588 0.930 . S
H2583 C2592 0.930 1_554 S
H2584 C2597 0.929 . S
H2585 C2595 0.929 . S
H2586 C2590 0.929 1_554 S
H2587 C2596 0.929 . S
C2588 H2582 0.930 . S
C2588 C2589 1.367 . S
C2588 C2596 1.378 . S
C2589 C2588 1.367 . S
C2589 C2597 1.433 . S
C2590 H2586 0.929 1_556 S
C2590 C2592 1.378 . S
C2590 C2594 1.350 . S
C2591 C2594 1.463 . S
C2591 C2596 1.350 . S
C2591 N2599 1.427 . S
C2592 H2583 0.930 1_556 S
C2592 C2590 1.378 . S
C2592 C2593 1.367 . S
C2593 C2592 1.367 . S
C2593 C2595 1.433 . S
C2594 C2590 1.350 . S
C2594 C2591 1.463 . S
C2594 N2598 1.427 . S
C2595 H2585 0.929 . S
C2595 C2593 1.433 . S
C2595 N2598 1.384 . S
C2596 H2587 0.929 . S
C2596 C2588 1.378 . S
C2596 C2591 1.350 . S
C2597 H2584 0.929 . S
C2597 C2589 1.433 . S
C2597 N2599 1.384 . S
N2598 C2594 1.427 . S
N2598 C2595 1.384 . S
N2599 C2591 1.427 . S
N2599 C2597 1.384 . S
H2600 C2606 0.930 . S
H2601 C2610 0.930 . S
H2602 C2615 0.929 . S
H2603 C2613 0.929 . S
H2604 C2608 0.929 . S
H2605 C2614 0.929 . S
C2606 H2600 0.930 . S
C2606 C2607 1.367 . S
C2606 C2614 1.378 . S
C2607 C2606 1.367 . S
C2607 C2615 1.433 . S
C2608 H2604 0.929 . S
C2608 C2610 1.378 . S
C2608 C2612 1.350 . S
C2609 C2612 1.463 . S
C2609 C2614 1.350 . S
C2609 N2617 1.427 . S
C2610 H2601 0.930 . S
C2610 C2608 1.378 . S
C2610 C2611 1.367 . S
C2611 C2610 1.367 . S
C2611 C2613 1.433 . S
C2612 C2608 1.350 . S
C2612 C2609 1.463 . S
C2612 N2616 1.427 . S
C2613 H2603 0.929 . S
C2613 C2611 1.433 . S
C2613 N2616 1.384 . S
C2614 H2605 0.929 . S
C2614 C2606 1.378 . S
C2614 C2609 1.350 . S
C2615 H2602 0.929 . S
C2615 C2607 1.433 . S
C2615 N2617 1.384 . S
N2616 C2612 1.427 . S
N2616 C2613 1.384 . S
N2617 C2609 1.427 . S
N2617 C2615 1.384 . S
H2618 C2624 0.930 . S
H2619 C2628 0.930 . S
H2620 C2633 0.929 . S
H2621 C2631 0.929 . S
H2622 C2626 0.929 . S
H2623 C2632 0.929 . S
C2624 H2618 0.930 . S
C2624 C2625 1.367 . S
C2624 C2632 1.378 . S
C2625 C2624 1.367 . S
C2625 C2633 1.433 . S
C2626 H2622 0.929 . S
C2626 C2628 1.378 . S
C2626 C2630 1.350 . S
C2627 C2630 1.463 . S
C2627 C2632 1.350 . S
C2627 N2635 1.427 . S
C2628 H2619 0.930 . S
C2628 C2626 1.378 . S
C2628 C2629 1.367 . S
C2629 C2628 1.367 . S
C2629 C2631 1.433 . S
C2630 C2626 1.350 . S
C2630 C2627 1.463 . S
C2630 N2634 1.427 . S
C2631 H2621 0.929 . S
C2631 C2629 1.433 . S
C2631 N2634 1.384 . S
C2632 H2623 0.929 . S
C2632 C2624 1.378 . S
C2632 C2627 1.350 . S
C2633 H2620 0.929 . S
C2633 C2625 1.433 . S
C2633 N2635 1.384 . S
N2634 C2630 1.427 . S
N2634 C2631 1.384 . S
N2635 C2627 1.427 . S
N2635 C2633 1.384 . S
H2636 C2642 0.930 . S
H2637 C2646 0.930 . S
H2638 C2651 0.929 . S
H2639 C2649 0.929 . S
H2640 C2644 0.929 . S
H2641 C2650 0.929 . S
C2642 H2636 0.930 . S
C2642 C2643 1.367 . S
C2642 C2650 1.378 . S
C2643 C2642 1.367 . S
C2643 C2651 1.433 . S
C2644 H2640 0.929 . S
C2644 C2646 1.378 . S
C2644 C2648 1.350 . S
C2645 C2648 1.463 . S
C2645 C2650 1.350 . S
C2645 N2653 1.427 . S
C2646 H2637 0.930 . S
C2646 C2644 1.378 . S
C2646 C2647 1.367 . S
C2647 C2646 1.367 . S
C2647 C2649 1.433 . S
C2648 C2644 1.350 . S
C2648 C2645 1.463 . S
C2648 N2652 1.427 . S
C2649 H2639 0.929 . S
C2649 C2647 1.433 . S
C2649 N2652 1.384 . S
C2650 H2641 0.929 . S
C2650 C2642 1.378 . S
C2650 C2645 1.350 . S
C2651 H2638 0.929 . S
C2651 C2643 1.433 . S
C2651 N2653 1.384 . S
N2652 C2648 1.427 . S
N2652 C2649 1.384 . S
N2653 C2645 1.427 . S
N2653 C2651 1.384 . S
H2654 C2660 0.930 . S
H2655 C2664 0.930 . S
H2656 C2669 0.929 . S
H2657 C2667 0.929 . S
H2658 C2662 0.929 . S
H2659 C2668 0.929 . S
C2660 H2654 0.930 . S
C2660 C2661 1.367 . S
C2660 C2668 1.378 . S
C2661 C2660 1.367 . S
C2661 C2669 1.433 . S
C2662 H2658 0.929 . S
C2662 C2664 1.378 . S
C2662 C2666 1.350 . S
C2663 C2666 1.463 . S
C2663 C2668 1.350 . S
C2663 N2671 1.427 . S
C2664 H2655 0.930 . S
C2664 C2662 1.378 . S
C2664 C2665 1.367 . S
C2665 C2664 1.367 . S
C2665 C2667 1.433 . S
C2666 C2662 1.350 . S
C2666 C2663 1.463 . S
C2666 N2670 1.427 . S
C2667 H2657 0.929 . S
C2667 C2665 1.433 . S
C2667 N2670 1.384 . S
C2668 H2659 0.929 . S
C2668 C2660 1.378 . S
C2668 C2663 1.350 . S
C2669 H2656 0.929 . S
C2669 C2661 1.433 . S
C2669 N2671 1.384 . S
N2670 C2666 1.427 . S
N2670 C2667 1.384 . S
N2671 C2663 1.427 . S
N2671 C2669 1.384 . S
H2672 C2678 0.930 . S
H2673 C2682 0.930 . S
H2674 C2687 0.929 . S
H2675 C2685 0.929 . S
H2676 C2680 0.929 . S
H2677 C2686 0.929 . S
C2678 H2672 0.930 . S
C2678 C2679 1.367 . S
C2678 C2686 1.378 . S
C2679 C2678 1.367 . S
C2679 C2687 1.433 . S
C2680 H2676 0.929 . S
C2680 C2682 1.378 . S
C2680 C2684 1.350 . S
C2681 C2684 1.463 . S
C2681 C2686 1.350 . S
C2681 N2689 1.427 . S
C2682 H2673 0.930 . S
C2682 C2680 1.378 . S
C2682 C2683 1.367 . S
C2683 C2682 1.367 . S
C2683 C2685 1.433 . S
C2684 C2680 1.350 . S
C2684 C2681 1.463 . S
C2684 N2688 1.427 . S
C2685 H2675 0.929 . S
C2685 C2683 1.433 . S
C2685 N2688 1.384 . S
C2686 H2677 0.929 . S
C2686 C2678 1.378 . S
C2686 C2681 1.350 . S
C2687 H2674 0.929 . S
C2687 C2679 1.433 . S
C2687 N2689 1.384 . S
N2688 C2684 1.427 . S
N2688 C2685 1.384 . S
N2689 C2681 1.427 . S
N2689 C2687 1.384 . S
H2690 C2696 0.930 . S
H2691 C2700 0.930 . S
H2692 C2705 0.929 . S
H2693 C2703 0.929 . S
H2694 C2698 0.929 . S
H2695 C2704 0.929 . S
C2696 H2690 0.930 . S
C2696 C2697 1.367 . S
C2696 C2704 1.378 . S
C2697 C2696 1.367 . S
C2697 C2705 1.433 . S
C2698 H2694 0.929 . S
C2698 C2700 1.378 . S
C2698 C2702 1.350 . S
C2699 C2702 1.463 . S
C2699 C2704 1.350 . S
C2699 N2707 1.427 . S
C2700 H2691 0.930 . S
C2700 C2698 1.378 . S
C2700 C2701 1.367 . S
C2701 C2700 1.367 . S
C2701 C2703 1.433 . S
C2702 C2698 1.350 . S
C2702 C2699 1.463 . S
C2702 N2706 1.427 . S
C2703 H2693 0.929 . S
C2703 C2701 1.433 . S
C2703 N2706 1.384 . S
C2704 H2695 0.929 . S
C2704 C2696 1.378 . S
C2704 C2699 1.350 . S
C2705 H2692 0.929 . S
C2705 C2697 1.433 . S
C2705 N2707 1.384 . S
N2706 C2702 1.427 . S
N2706 C2703 1.384 . S
N2707 C2699 1.427 . S
N2707 C2705 1.384 . S
H2708 C2714 0.930 . S
H2709 C2718 0.930 . S
H2710 C2723 0.929 . S
H2711 C2721 0.929 . S
H2712 C2716 0.929 . S
H2713 C2722 0.929 . S
C2714 H2708 0.930 . S
C2714 C2715 1.367 . S
C2714 C2722 1.378 . S
C2715 C2714 1.367 . S
C2715 C2723 1.433 . S
C2716 H2712 0.929 . S
C2716 C2718 1.378 . S
C2716 C2720 1.350 . S
C2717 C2720 1.463 . S
C2717 C2722 1.350 . S
C2717 N2725 1.427 . S
C2718 H2709 0.930 . S
C2718 C2716 1.378 . S
C2718 C2719 1.367 . S
C2719 C2718 1.367 . S
C2719 C2721 1.433 . S
C2720 C2716 1.350 . S
C2720 C2717 1.463 . S
C2720 N2724 1.427 . S
C2721 H2711 0.929 . S
C2721 C2719 1.433 . S
C2721 N2724 1.384 . S
C2722 H2713 0.929 . S
C2722 C2714 1.378 . S
C2722 C2717 1.350 . S
C2723 H2710 0.929 . S
C2723 C2715 1.433 . S
C2723 N2725 1.384 . S
N2724 C2720 1.427 . S
N2724 C2721 1.384 . S
N2725 C2717 1.427 . S
N2725 C2723 1.384 . S
H2726 C2732 0.930 . S
H2727 C2736 0.930 . S
H2728 C2741 0.929 . S
H2729 C2739 0.929 . S
H2730 C2734 0.929 . S
H2731 C2740 0.929 . S
C2732 H2726 0.930 . S
C2732 C2733 1.367 . S
C2732 C2740 1.378 . S
C2733 C2732 1.367 . S
C2733 C2741 1.433 . S
C2734 H2730 0.929 . S
C2734 C2736 1.378 . S
C2734 C2738 1.350 . S
C2735 C2738 1.463 . S
C2735 C2740 1.350 . S
C2735 N2743 1.427 . S
C2736 H2727 0.930 . S
C2736 C2734 1.378 . S
C2736 C2737 1.367 . S
C2737 C2736 1.367 . S
C2737 C2739 1.433 . S
C2738 C2734 1.350 . S
C2738 C2735 1.463 . S
C2738 N2742 1.427 . S
C2739 H2729 0.929 . S
C2739 C2737 1.433 . S
C2739 N2742 1.384 . S
C2740 H2731 0.929 . S
C2740 C2732 1.378 . S
C2740 C2735 1.350 . S
C2741 H2728 0.929 . S
C2741 C2733 1.433 . S
C2741 N2743 1.384 . S
N2742 C2738 1.427 . S
N2742 C2739 1.384 . S
N2743 C2735 1.427 . S
N2743 C2741 1.384 . S
H2744 C2750 0.930 . S
H2745 C2754 0.930 . S
H2746 C2759 0.929 . S
H2747 C2757 0.929 1_556 S
H2748 C2752 0.929 . S
H2749 C2758 0.929 . S
C2750 H2744 0.930 . S
C2750 C2751 1.367 . S
C2750 C2758 1.378 . S
C2751 C2750 1.367 . S
C2751 C2759 1.433 . S
C2752 H2748 0.929 . S
C2752 C2754 1.378 . S
C2752 C2756 1.350 . S
C2753 C2756 1.463 . S
C2753 C2758 1.350 . S
C2753 N2761 1.427 . S
C2754 H2745 0.930 . S
C2754 C2752 1.378 . S
C2754 C2755 1.367 . S
C2755 C2754 1.367 . S
C2755 C2757 1.433 . S
C2756 C2752 1.350 . S
C2756 C2753 1.463 . S
C2756 N2760 1.427 . S
C2757 H2747 0.929 1_554 S
C2757 C2755 1.433 . S
C2757 N2760 1.384 . S
C2758 H2749 0.929 . S
C2758 C2750 1.378 . S
C2758 C2753 1.350 . S
C2759 H2746 0.929 . S
C2759 C2751 1.433 . S
C2759 N2761 1.384 . S
N2760 C2756 1.427 . S
N2760 C2757 1.384 . S
N2761 C2753 1.427 . S
N2761 C2759 1.384 . S
H2762 C2768 0.930 . S
H2763 C2772 0.930 1_556 S
H2764 C2777 0.929 . S
H2765 C2775 0.929 . S
H2766 C2770 0.929 1_556 S
H2767 C2776 0.929 . S
C2768 H2762 0.930 . S
C2768 C2769 1.367 . S
C2768 C2776 1.378 . S
C2769 C2768 1.367 . S
C2769 C2777 1.433 . S
C2770 H2766 0.929 1_554 S
C2770 C2772 1.378 . S
C2770 C2774 1.350 . S
C2771 C2774 1.463 . S
C2771 C2776 1.350 . S
C2771 N2779 1.427 . S
C2772 H2763 0.930 1_554 S
C2772 C2770 1.378 . S
C2772 C2773 1.367 . S
C2773 C2772 1.367 . S
C2773 C2775 1.433 . S
C2774 C2770 1.350 . S
C2774 C2771 1.463 . S
C2774 N2778 1.427 . S
C2775 H2765 0.929 . S
C2775 C2773 1.433 . S
C2775 N2778 1.384 . S
C2776 H2767 0.929 . S
C2776 C2768 1.378 . S
C2776 C2771 1.350 . S
C2777 H2764 0.929 . S
C2777 C2769 1.433 . S
C2777 N2779 1.384 . S
N2778 C2774 1.427 . S
N2778 C2775 1.384 . S
N2779 C2771 1.427 . S
N2779 C2777 1.384 . S
H2780 C2786 0.930 . S
H2781 C2790 0.930 . S
H2782 C2795 0.929 . S
H2783 C2793 0.929 1_554 S
H2784 C2788 0.929 . S
H2785 C2794 0.929 . S
C2786 H2780 0.930 . S
C2786 C2787 1.367 . S
C2786 C2794 1.378 . S
C2787 C2786 1.367 . S
C2787 C2795 1.433 . S
C2788 H2784 0.929 . S
C2788 C2790 1.378 . S
C2788 C2792 1.350 . S
C2789 C2792 1.463 . S
C2789 C2794 1.350 . S
C2789 N2797 1.427 . S
C2790 H2781 0.930 . S
C2790 C2788 1.378 . S
C2790 C2791 1.367 . S
C2791 C2790 1.367 . S
C2791 C2793 1.433 . S
C2792 C2788 1.350 . S
C2792 C2789 1.463 . S
C2792 N2796 1.427 . S
C2793 H2783 0.929 1_556 S
C2793 C2791 1.433 . S
C2793 N2796 1.384 . S
C2794 H2785 0.929 . S
C2794 C2786 1.378 . S
C2794 C2789 1.350 . S
C2795 H2782 0.929 . S
C2795 C2787 1.433 . S
C2795 N2797 1.384 . S
N2796 C2792 1.427 . S
N2796 C2793 1.384 . S
N2797 C2789 1.427 . S
N2797 C2795 1.384 . S
H2798 C2804 0.930 . S
H2799 C2808 0.930 . S
H2800 C2813 0.929 1_554 S
H2801 C2811 0.929 . S
H2802 C2806 0.929 . S
H2803 C2812 0.929 . S
C2804 H2798 0.930 . S
C2804 C2805 1.367 . S
C2804 C2812 1.378 . S
C2805 C2804 1.367 . S
C2805 C2813 1.433 . S
C2806 H2802 0.929 . S
C2806 C2808 1.378 . S
C2806 C2810 1.350 . S
C2807 C2810 1.463 . S
C2807 C2812 1.350 . S
C2807 N2815 1.427 . S
C2808 H2799 0.930 . S
C2808 C2806 1.378 . S
C2808 C2809 1.367 . S
C2809 C2808 1.367 . S
C2809 C2811 1.433 . S
C2810 C2806 1.350 . S
C2810 C2807 1.463 . S
C2810 N2814 1.427 . S
C2811 H2801 0.929 . S
C2811 C2809 1.433 . S
C2811 N2814 1.384 . S
C2812 H2803 0.929 . S
C2812 C2804 1.378 . S
C2812 C2807 1.350 . S
C2813 H2800 0.929 1_556 S
C2813 C2805 1.433 . S
C2813 N2815 1.384 . S
N2814 C2810 1.427 . S
N2814 C2811 1.384 . S
N2815 C2807 1.427 . S
N2815 C2813 1.384 . S
C1095 C960 1.620 . S
C1099 C17 1.620 . S
C1113 C178 1.607 . S
C1117 C51 1.607 . S
C1131 C756 1.607 . S
C1135 C85 1.607 . S
C1149 C518 1.625 . S
C1153 C119 1.625 . S
C1167 C144 1.620 . S
C1171 C833 1.620 . S
C1185 C629 1.613 . S
C1189 C212 1.611 . S
C1203 C391 1.626 . S
C1207 C246 1.626 . S
C1221 C688 1.623 . S
C1225 C289 1.623 . S
C1239 C323 1.616 . S
C1243 C450 1.616 . S
C1257 C357 1.619 . S
C1261 C1028 1.619 . S
C1275 C561 1.623 . S
C1279 C416 1.623 . S
C1293 C484 1.619 . S
C1297 C901 1.619 . S
C1311 C595 1.610 . S
C1315 C722 1.608 . S
C1329 C663 1.622 . S
C1333 C1062 1.622 . S
C1347 C935 1.623 . S
C1351 C790 1.623 . S
C1365 C994 1.617 . S
C1369 C867 1.617 . S
C1383 C654 1.518 . S
C1387 C8 1.520 . S
C1401 C620 1.520 . S
C1405 C42 1.522 . S
C1419 C586 1.520 . S
C1423 C76 1.523 . S
C1437 C552 1.518 . S
C1441 C110 1.520 . S
C1455 C799 1.520 . S
C1459 C153 1.518 . S
C1473 C187 1.520 . S
C1477 C765 1.520 . S
C1491 C221 1.520 . S
C1495 C731 1.522 . S
C1509 C255 1.518 . S
C1513 C697 1.520 . S
C1527 C280 1.528 . S
C1531 C926 1.530 . S
C1545 C314 1.521 . S
C1549 C892 1.520 . S
C1563 C348 1.521 . S
C1567 C858 1.520 . S
C1581 C824 1.529 . S
C1585 C382 1.530 . S
C1599 C425 1.529 . S
C1603 C1071 1.528 . S
C1617 C459 1.522 . S
C1621 C1037 1.519 . S
C1635 C493 1.520 . S
C1639 C1003 1.521 . S
C1653 C969 1.529 . S
C1657 C527 1.529 . S
C1671 C0 0.887 . S
C1675 C29 0.887 1_556 S
C1689 C34 0.888 . S
C1693 C63 0.888 1_556 S
C1707 C97 0.892 . S
C1711 C68 0.892 . S
C1725 C131 0.892 . S
C1729 C102 0.892 . S
C1743 C136 0.886 1_554 S
C1747 C165 0.886 . S
C1761 C170 0.883 1_554 S
C1765 C199 0.883 . S
C1779 C204 0.882 . S
C1783 C233 0.882 . S
C1797 C267 0.883 . S
C1801 C238 0.883 . S
C1815 C272 0.886 . S
C1819 C301 0.886 . S
C1833 C335 0.889 . S
C1837 C306 0.889 . S
C1851 C369 0.890 . S
C1855 C340 0.890 . S
C1869 C403 0.891 . S
C1873 C374 0.891 . S
C1887 C408 0.889 . S
C1891 C437 0.889 . S
C1905 C471 0.883 . S
C1909 C442 0.883 . S
C1923 C476 0.882 . S
C1927 C505 0.882 . S
C1941 C539 0.883 . S
C1945 C510 0.883 . S
C1959 C544 0.885 . S
C1963 C573 0.885 . S
C1977 C607 0.891 . S
C1981 C578 0.891 . S
C1995 C641 0.882 . S
C1999 C612 0.882 . S
C2013 C675 0.893 . S
C2017 C646 0.893 . S
C2031 C709 0.890 . S
C2035 C680 0.890 . S
C2049 C714 0.885 . S
C2053 C743 0.885 . S
C2067 C777 0.882 . S
C2071 C748 0.882 . S
C2085 C811 0.882 . S
C2089 C782 0.882 . S
C2103 C816 0.890 . S
C2107 C845 0.890 1_556 S
C2121 C879 0.891 1_556 S
C2125 C850 0.891 . S
C2139 C913 0.881 . S
C2143 C884 0.881 . S
C2157 C918 0.892 . S
C2161 C947 0.892 . S
C2175 C952 0.888 1_554 S
C2179 C981 0.888 . S
C2193 C1015 0.887 . S
C2197 C986 0.887 1_554 S
C2211 C1049 0.887 . S
C2215 C1020 0.887 . S
C2229 C1083 0.882 . S
C2233 C1054 0.882 . S
C2247 C344 1.701 . S
C2251 C4 1.701 . S
C2265 C378 1.674 . S
C2269 C38 1.666 . S
C2283 C72 1.677 . S
C2287 C276 1.668 . S
C2301 C310 1.698 . S
C2305 C106 1.698 . S
C2319 C149 1.699 . S
C2323 C489 1.698 . S
C2337 C183 1.677 . S
C2341 C523 1.668 . S
C2355 C217 1.675 . S
C2359 C421 1.666 . S
C2373 C251 1.699 . S
C2377 C455 1.700 . S
C2391 C888 1.701 . S
C2395 C548 1.701 . S
C2409 C582 1.677 . S
C2413 C922 1.668 . S
C2427 C820 1.675 . S
C2431 C616 1.667 . S
C2445 C650 1.700 . S
C2449 C854 1.699 . S
C2463 C1033 1.698 . S
C2467 C693 1.699 . S
C2481 C727 1.676 . S
C2485 C1067 1.668 . S
C2499 C761 1.675 . S
C2503 C965 1.666 . S
C2517 C999 1.699 . S
C2521 C795 1.700 . S
C2535 C13 1.393 . S
C2539 C81 1.401 . S
C2553 C115 1.391 . S
C2557 C47 1.400 . S
C2571 C208 1.391 . S
C2575 C140 1.400 . S
C2589 C174 1.391 . S
C2593 C242 1.400 . S
C2607 C285 1.367 . S
C2611 C353 1.366 . S
C2625 C387 1.367 . S
C2629 C319 1.366 . S
C2643 C480 1.367 . S
C2647 C412 1.367 . S
C2661 C514 1.365 . S
C2665 C446 1.366 . S
C2679 C625 1.391 . S
C2683 C557 1.400 . S
C2697 C659 1.393 . S
C2701 C591 1.401 . S
C2715 C752 1.391 . S
C2719 C684 1.400 . S
C2733 C786 1.391 . S
C2737 C718 1.400 . S
C2751 C829 1.367 . S
C2755 C897 1.366 . S
C2769 C863 1.365 . S
C2773 C931 1.365 . S
C2787 C956 1.366 . S
C2791 C1024 1.367 . S
C2805 C1058 1.367 . S
C2809 C990 1.366 . S
