# Generated by pormake.
# Topology sml, (6)-cn, num edge types: 1
# Building blocks:
#     Node 0, Type 0, BuildingBlock: UKALOJ_clean_sbu_0, # of connection points: 6
#     Node 1, Type 0, BuildingBlock: UKALOJ_clean_sbu_0, # of connection points: 6
#     Node 2, Type 0, BuildingBlock: UKALOJ_clean_sbu_0, # of connection points: 6
#     Node 3, Type 0, BuildingBlock: UKALOJ_clean_sbu_0, # of connection points: 6
#     Node 4, Type 0, BuildingBlock: UKALOJ_clean_sbu_0, # of connection points: 6
#     Node 5, Type 0, BuildingBlock: UKALOJ_clean_sbu_0, # of connection points: 6
#     Edge 6, Type (0, 0), BuildingBlock: XUDNAN_clean_linker_2, # of connection points: 2
#     Edge 7, Type (0, 0), BuildingBlock: XUDNAN_clean_linker_2, # of connection points: 2
#     Edge 8, Type (0, 0), BuildingBlock: XUDNAN_clean_linker_2, # of connection points: 2
#     Edge 9, Type (0, 0), BuildingBlock: XUDNAN_clean_linker_2, # of connection points: 2
#     Edge 10, Type (0, 0), BuildingBlock: XUDNAN_clean_linker_2, # of connection points: 2
#     Edge 11, Type (0, 0), BuildingBlock: XUDNAN_clean_linker_2, # of connection points: 2
#     Edge 12, Type (0, 0), BuildingBlock: XUDNAN_clean_linker_2, # of connection points: 2
#     Edge 13, Type (0, 0), BuildingBlock: XUDNAN_clean_linker_2, # of connection points: 2
#     Edge 14, Type (0, 0), BuildingBlock: XUDNAN_clean_linker_2, # of connection points: 2
#     Edge 15, Type (0, 0), BuildingBlock: XUDNAN_clean_linker_2, # of connection points: 2
#     Edge 16, Type (0, 0), BuildingBlock: XUDNAN_clean_linker_2, # of connection points: 2
#     Edge 17, Type (0, 0), BuildingBlock: XUDNAN_clean_linker_2, # of connection points: 2
#     Edge 18, Type (0, 0), BuildingBlock: XUDNAN_clean_linker_2, # of connection points: 2
#     Edge 19, Type (0, 0), BuildingBlock: XUDNAN_clean_linker_2, # of connection points: 2
#     Edge 20, Type (0, 0), BuildingBlock: XUDNAN_clean_linker_2, # of connection points: 2
#     Edge 21, Type (0, 0), BuildingBlock: XUDNAN_clean_linker_2, # of connection points: 2
#     Edge 22, Type (0, 0), BuildingBlock: XUDNAN_clean_linker_2, # of connection points: 2
#     Edge 23, Type (0, 0), BuildingBlock: XUDNAN_clean_linker_2, # of connection points: 2
# Relax obj value: 0.315
# Max RMSD: 0.226
# Mean RMSD: 0.226
data_MOF--net-sml--node1-UKALOJ_clean_sbu_0--edge1-XUDNAN_clean_linker_2
_symmetry_space_group_name_H-M    P1
_symmetry_Int_Tables_number       1
_symmetry_cell_setting            triclinic
loop_
_symmetry_equiv_pos_as_xyz
'x, y, z'
_cell_length_a     36.566571
_cell_length_b     36.659046
_cell_length_c     19.207515
_cell_angle_alpha  90.042943
_cell_angle_beta   89.983487
_cell_angle_gamma 120.07967
loop_
_atom_site_label
_atom_site_type_symbol
_atom_site_fract_x
_atom_site_fract_y
_atom_site_fract_z
_atom_type_partial_charge
Zn0 Zn 0.20903 0.41289 0.05458 0.0
O1 O 0.20187 0.4642 0.08371 0.0
C2 C 0.1152 0.35854 0.04293 0.0
Zn3 Zn 0.18389 0.41611 0.9509 0.0
C4 C 0.18718 0.48113 0.04359 0.0
O5 O 0.17624 0.46723 0.98209 0.0
C6 C 0.2065 0.34834 0.96184 0.0
O7 O 0.24568 0.45941 0.92196 0.0
O8 O 0.27231 0.45616 0.02235 0.0
N9 N 0.16418 0.41957 0.85342 0.0
C10 C 0.17932 0.41697 0.79078 0.0
C11 C 0.13262 0.43451 0.77286 0.0
N12 N 0.13503 0.4303 0.84221 0.0
N13 N 0.15978 0.4258 0.73973 0.0
C14 C 0.21821 0.42034 0.21367 0.0
C15 C 0.26952 0.40992 0.23465 0.0
N16 N 0.22997 0.41153 0.15241 0.0
N17 N 0.26175 0.40483 0.16548 0.0
N18 N 0.24269 0.41997 0.2654 0.0
H19 H 0.15964 0.41727 0.18141 0.0
H20 H 0.19642 0.46397 0.22837 0.0
H21 H 0.16617 0.41526 0.27387 0.0
C22 C 0.18284 0.4294 0.22424 0.0
C23 C 0.21549 0.40919 0.77886 0.0
H24 H 0.23723 0.43118 0.73881 0.0
H25 H 0.20281 0.37666 0.75886 0.0
H26 H 0.23378 0.41275 0.82642 0.0
O27 O 0.19225 0.36539 0.92079 0.0
O28 O 0.21621 0.36171 0.02394 0.0
C29 C 0.27754 0.47098 0.96097 0.0
O30 O 0.14609 0.37005 0.0845 0.0
O31 O 0.12178 0.37295 0.98125 0.0
Zn32 Zn 0.74425 0.17834 0.28361 0.0
O33 O 0.75362 0.23886 0.26358 0.0
C34 C 0.84049 0.21596 0.27322 0.0
Zn35 Zn 0.78256 0.20674 0.37983 0.0
C36 C 0.77401 0.2707 0.30267 0.0
O37 O 0.7896 0.26664 0.35924 0.0
C38 C 0.75443 0.11515 0.35958 0.0
O39 O 0.72153 0.18571 0.42142 0.0
O40 O 0.68399 0.16081 0.32573 0.0
N41 N 0.80694 0.22619 0.47834 0.0
C42 C 0.79222 0.20747 0.54078 0.0
C43 C 0.83931 0.27115 0.56066 0.0
N44 N 0.83656 0.26565 0.491 0.0
N45 N 0.81196 0.23502 0.59317 0.0
C46 C 0.73478 0.1829 0.12408 0.0
C47 C 0.68469 0.12175 0.09668 0.0
N48 N 0.72089 0.16054 0.18381 0.0
N49 N 0.68979 0.12248 0.16654 0.0
N50 N 0.71239 0.15948 0.06928 0.0
H51 H 0.79279 0.23735 0.16301 0.0
H52 H 0.76026 0.24906 0.10848 0.0
H53 H 0.79107 0.22872 0.07094 0.0
C54 C 0.77197 0.22682 0.11717 0.0
C55 C 0.75587 0.16353 0.55126 0.0
H56 H 0.74094 0.14756 0.50212 0.0
H57 H 0.73174 0.16433 0.58531 0.0
H58 H 0.76738 0.14439 0.57796 0.0
O59 O 0.77659 0.14759 0.39673 0.0
O60 O 0.73487 0.11771 0.3067 0.0
C61 C 0.68597 0.16803 0.39079 0.0
O62 O 0.80454 0.19545 0.24426 0.0
O63 O 0.8428 0.22741 0.33632 0.0
Zn64 Zn 0.58195 0.79548 0.69705 0.0
O65 O 0.53439 0.7398 0.74361 0.0
C66 C 0.62523 0.74596 0.66723 0.0
Zn67 Zn 0.55928 0.75639 0.60052 0.0
C68 C 0.51035 0.70447 0.71483 0.0
O69 O 0.51206 0.70063 0.64921 0.0
C70 C 0.63247 0.84687 0.58473 0.0
O71 O 0.51635 0.77741 0.59242 0.0
O72 O 0.53968 0.81974 0.68284 0.0
N73 N 0.5445 0.73089 0.50169 0.0
C74 C 0.53901 0.74874 0.44413 0.0
C75 C 0.55545 0.70369 0.40982 0.0
N76 N 0.55413 0.70241 0.4801 0.0
N77 N 0.54624 0.73271 0.38593 0.0
C78 C 0.57948 0.8146 0.85353 0.0
C79 C 0.64501 0.85276 0.87672 0.0
N80 N 0.60071 0.82266 0.79287 0.0
N81 N 0.64139 0.84664 0.80735 0.0
N82 N 0.60664 0.83263 0.90713 0.0
H83 H 0.51769 0.79456 0.81098 0.0
H84 H 0.52228 0.80377 0.90407 0.0
H85 H 0.52042 0.75751 0.86876 0.0
C86 C 0.53223 0.79143 0.85957 0.0
C87 C 0.52717 0.78255 0.44416 0.0
H88 H 0.49543 0.76982 0.46788 0.0
H89 H 0.52539 0.79298 0.39075 0.0
H90 H 0.55008 0.81013 0.47489 0.0
O91 O 0.6073 0.813 0.55307 0.0
O92 O 0.62982 0.84923 0.65016 0.0
C93 C 0.5146 0.80443 0.63131 0.0
O94 O 0.6236 0.77184 0.70921 0.0
O95 O 0.60185 0.73409 0.61351 0.0
Zn96 Zn 0.79296 0.57105 0.95956 0.0
O97 O 0.73146 0.52623 0.93378 0.0
C98 C 0.7615 0.6329 0.95845 0.0
Zn99 Zn 0.76866 0.57875 0.0611 0.0
C100 C 0.70037 0.51349 0.97495 0.0
O101 O 0.70599 0.5285 0.03631 0.0
C102 C 0.86183 0.63578 0.04375 0.0
O103 O 0.7845 0.53505 0.09853 0.0
O104 O 0.80394 0.52259 0.99705 0.0
N105 N 0.74988 0.58479 0.15844 0.0
C106 C 0.76606 0.58403 0.22115 0.0
C107 C 0.71585 0.59662 0.23891 0.0
N108 N 0.71869 0.59262 0.16955 0.0
N109 N 0.74498 0.59089 0.27218 0.0
C110 C 0.79511 0.56556 0.7997 0.0
C111 C 0.85893 0.58244 0.77923 0.0
N112 N 0.81354 0.56814 0.86169 0.0
N113 N 0.85315 0.57829 0.84882 0.0
N114 N 0.82277 0.57416 0.74745 0.0
H115 H 0.72872 0.5218 0.80093 0.0
H116 H 0.74412 0.56155 0.73547 0.0
H117 H 0.74247 0.57443 0.82531 0.0
C118 C 0.75028 0.55568 0.78965 0.0
C119 C 0.80401 0.57909 0.23295 0.0
H120 H 0.82551 0.58957 0.18781 0.0
H121 H 0.79319 0.54535 0.24272 0.0
H122 H 0.82218 0.59742 0.27912 0.0
O123 O 0.83138 0.62882 0.08394 0.0
O124 O 0.85408 0.61563 0.98694 0.0
C125 C 0.79826 0.51567 0.06213 0.0
O126 O 0.78154 0.61913 0.92365 0.0
O127 O 0.75164 0.62135 0.02117 0.0
Zn128 Zn 0.19736 0.77468 0.38525 0.0
O129 O 0.26027 0.80073 0.41828 0.0
C130 C 0.20963 0.86396 0.38854 0.0
Zn131 Zn 0.23043 0.81747 0.29447 0.0
C132 C 0.29436 0.82933 0.39143 0.0
O133 O 0.29323 0.84628 0.33439 0.0
C134 C 0.1331 0.76061 0.28712 0.0
O135 O 0.2354 0.76534 0.26527 0.0
O136 O 0.19853 0.7204 0.34802 0.0
N137 N 0.25187 0.8435 0.19577 0.0
C138 C 0.23845 0.82598 0.13206 0.0
C139 C 0.29023 0.88782 0.11577 0.0
N140 N 0.28411 0.88203 0.18528 0.0
N141 N 0.26158 0.85319 0.08109 0.0
C142 C 0.20055 0.75183 0.53947 0.0
C143 C 0.15016 0.75825 0.58095 0.0
N144 N 0.17713 0.75183 0.48497 0.0
N145 N 0.14555 0.7553 0.51124 0.0
N146 N 0.18497 0.75703 0.60052 0.0
H147 H 0.23073 0.72272 0.48475 0.0
H148 H 0.23471 0.72255 0.57898 0.0
H149 H 0.26616 0.77007 0.53074 0.0
C150 C 0.23492 0.74104 0.53308 0.0
C151 C 0.20437 0.78146 0.11898 0.0
H152 H 0.21342 0.76738 0.07588 0.0
H153 H 0.17525 0.78157 0.10359 0.0
H154 H 0.19725 0.76143 0.16515 0.0
O155 O 0.16708 0.78737 0.25693 0.0
O156 O 0.13448 0.74876 0.34871 0.0
C157 C 0.21924 0.72861 0.29118 0.0
O158 O 0.19686 0.82893 0.41906 0.0
O159 O 0.22578 0.86961 0.32809 0.0
Zn160 Zn 0.40495 0.20996 0.65948 0.0
O161 O 0.45508 0.19948 0.6329 0.0
C162 C 0.34526 0.11653 0.6595 0.0
Zn163 Zn 0.40521 0.17808 0.75792 0.0
C164 C 0.46859 0.1792 0.66769 0.0
O165 O 0.45302 0.16501 0.72746 0.0
C166 C 0.34133 0.20801 0.75006 0.0
O167 O 0.45127 0.23934 0.79406 0.0
O168 O 0.44888 0.2697 0.6971 0.0
N169 N 0.40026 0.15432 0.85557 0.0
C170 C 0.42826 0.16828 0.90841 0.0
C171 C 0.36689 0.13285 0.95266 0.0
N172 N 0.3622 0.13171 0.88315 0.0
N173 N 0.40803 0.15619 0.97041 0.0
C174 C 0.40982 0.21783 0.49894 0.0
C175 C 0.41468 0.27744 0.4805 0.0
N176 N 0.40808 0.2337 0.56154 0.0
N177 N 0.41104 0.27072 0.54993 0.0
N178 N 0.41357 0.24447 0.44749 0.0
H179 H 0.43863 0.18481 0.45316 0.0
H180 H 0.38247 0.15454 0.46064 0.0
H181 H 0.41399 0.16348 0.53583 0.0
C182 C 0.41154 0.1781 0.48748 0.0
C183 C 0.47517 0.18909 0.89846 0.0
H184 H 0.48246 0.17608 0.85182 0.0
H185 H 0.49035 0.18411 0.94469 0.0
H186 H 0.48885 0.22328 0.89037 0.0
O187 O 0.35736 0.19064 0.78628 0.0
O188 O 0.35523 0.22076 0.68895 0.0
C189 C 0.46332 0.27262 0.75824 0.0
O190 O 0.36001 0.14997 0.62358 0.0
O191 O 0.35856 0.11812 0.72114 0.0
H192 H 0.3121 0.26011 0.70504 0.0
H193 H 0.29831 0.17293 0.86964 0.0
H194 H 0.25321 0.19271 0.93512 0.0
H195 H 0.3241 0.33994 0.81019 0.0
H196 H 0.29443 0.35713 0.75842 0.0
H197 H 0.31902 0.33078 0.71752 0.0
H198 H 0.24681 0.27476 0.66646 0.0
H199 H 0.22203 0.30126 0.70698 0.0
H200 H 0.20234 0.24613 0.72385 0.0
H201 H 0.22236 0.23111 0.99293 0.0
H202 H 0.202 0.28234 0.03461 0.0
H203 H 0.23185 0.34206 0.83173 0.0
C204 C 0.29835 0.24418 0.75366 0.0
C205 C 0.30877 0.21509 0.78222 0.0
C206 C 0.29089 0.19545 0.84674 0.0
C207 C 0.26501 0.20629 0.88431 0.0
C208 C 0.25673 0.23633 0.85627 0.0
C209 C 0.27217 0.25453 0.79189 0.0
C210 C 0.26182 0.28892 0.777 0.0
C211 C 0.30225 0.3317 0.76514 0.0
C212 C 0.23143 0.27703 0.71489 0.0
C213 C 0.24019 0.28852 0.84448 0.0
C214 C 0.23724 0.25769 0.88926 0.0
C215 C 0.22319 0.25453 0.9577 0.0
C216 C 0.21199 0.28382 0.98108 0.0
C217 C 0.21461 0.31541 0.93582 0.0
C218 C 0.2282 0.31728 0.86651 0.0
H219 H 0.0853 0.34664 0.17624 0.0
H220 H 0.04743 0.30616 0.96293 0.0
H221 H 0.9739 0.25989 0.00195 0.0
H222 H 0.01219 0.24635 0.26209 0.0
H223 H 0.00163 0.27193 0.3331 0.0
H224 H 0.05219 0.29821 0.28993 0.0
H225 H 0.04255 0.36227 0.26451 0.0
H226 H -0.00796 0.33628 0.30754 0.0
H227 H -0.00406 0.35424 0.21906 0.0
H228 H 0.90496 0.22155 0.06178 0.0
H229 H 0.84281 0.1963 0.13731 0.0
H230 H 0.92417 0.2639 0.31236 0.0
C231 C 0.06162 0.3274 0.13803 0.0
C232 C 0.0719 0.3295 0.06671 0.0
C233 C 0.04006 0.30479 0.01783 0.0
C234 C -0.00165 0.27831 0.03953 0.0
C235 C 0.98913 0.27727 0.11012 0.0
C236 C 0.0197 0.30132 0.15866 0.0
C237 C 0.00062 0.29715 0.23031 0.0
C238 C 0.01767 0.27721 0.2819 0.0
C239 C 0.00824 0.34003 0.25688 0.0
C240 C 0.95439 0.26749 0.21413 0.0
C241 C 0.94873 0.25599 0.14468 0.0
C242 C 0.90894 0.23004 0.11636 0.0
C243 C 0.87382 0.21592 0.15987 0.0
C244 C 0.8786 0.22812 0.23091 0.0
C245 C 0.91954 0.2538 0.2585 0.0
H246 H 0.68873 0.036 0.33161 0.0
H247 H 0.80804 0.10349 0.4419 0.0
H248 H 0.7943 0.0375 0.49806 0.0
H249 H 0.63259 0.97755 0.47003 0.0
H250 H 0.59814 0.92969 0.42345 0.0
H251 H 0.6209 0.97955 0.37938 0.0
H252 H 0.65409 0.95348 0.28586 0.0
H253 H 0.62935 0.90319 0.32934 0.0
H254 H 0.68556 0.93082 0.3134 0.0
H255 H 0.76189 0.96976 0.56013 0.0
H256 H 0.71407 0.90216 0.61858 0.0
H257 H 0.61698 0.87655 0.4657 0.0
C258 C 0.7127 0.03643 0.36527 0.0
C259 C 0.74955 0.07461 0.38206 0.0
C260 C 0.77963 0.07442 0.42822 0.0
C261 C 0.77222 0.03708 0.46013 0.0
C262 C 0.73472 0.00019 0.44496 0.0
C263 C 0.70561 -0.00065 0.39798 0.0
C264 C 0.66538 0.95688 0.39818 0.0
C265 C 0.62703 0.96121 0.41903 0.0
C266 C 0.65825 0.9348 0.32742 0.0
C267 C 0.676 0.93455 0.45402 0.0
C268 C 0.71623 0.96007 0.48015 0.0
C269 C 0.73091 0.94882 0.53866 0.0
C270 C 0.7036 0.91064 0.5717 0.0
C271 C 0.6625 0.88414 0.5454 0.0
C272 C 0.64888 0.89575 0.48507 0.0
H273 H 0.70657 0.77488 0.71227 0.0
H274 H 0.58449 0.66229 0.68339 0.0
H275 H 0.6072 0.622 0.75643 0.0
H276 H 0.76732 0.71512 0.70832 0.0
H277 H 0.80537 0.75074 0.77058 0.0
H278 H 0.78086 0.76966 0.71031 0.0
H279 H 0.75658 0.7973 0.81442 0.0
H280 H 0.77968 0.77722 0.87513 0.0
H281 H 0.72444 0.76112 0.88175 0.0
H282 H 0.63619 0.59935 0.85187 0.0
H283 H 0.67881 0.58689 0.93776 0.0
H284 H 0.78754 0.70864 0.89008 0.0
C285 C 0.6855 0.74134 0.71908 0.0
C286 C 0.64404 0.72132 0.69196 0.0
C287 C 0.61667 0.67772 0.7027 0.0
C288 C 0.6291 0.65477 0.7447 0.0
C289 C 0.66948 0.6757 0.7733 0.0
C290 C 0.69813 0.71738 0.75846 0.0
C291 C 0.73978 0.73169 0.79574 0.0
C292 C 0.77545 0.74242 0.7431 0.0
C293 C 0.75074 0.76904 0.84465 0.0
C294 C 0.72912 0.69216 0.8365 0.0
C295 C 0.688 0.66071 0.82365 0.0
C296 C 0.66891 0.62303 0.86049 0.0
C297 C 0.69314 0.61641 0.90949 0.0
C298 C 0.73623 0.64656 0.9193 0.0
C299 C 0.75459 0.68512 0.88289 0.0
H300 H 0.05236 0.74589 0.31882 0.0
H301 H 0.12491 0.72377 0.16347 0.0
H302 H 0.06646 0.69939 0.08051 0.0
H303 H 0.9541 0.64835 0.27438 0.0
H304 H 0.92053 0.67024 0.29169 0.0
H305 H 0.96963 0.68965 0.33816 0.0
H306 H -0.00752 0.76545 0.29716 0.0
H307 H 0.94375 0.74608 0.2495 0.0
H308 H -0.00634 0.77618 0.20534 0.0
H309 H 0.00383 0.68176 0.0125 0.0
H310 H 0.9316 0.653 0.969 0.0
H311 H 0.89242 0.67534 0.17085 0.0
C312 C 0.05559 0.73573 0.26737 0.0
C313 C 0.09421 0.73946 0.2453 0.0
C314 C 0.09696 0.72451 0.17886 0.0
C315 C 0.06364 0.70997 0.13181 0.0
C316 C 0.0269 0.70894 0.15308 0.0
C317 C 0.0217 0.71968 0.21989 0.0
C318 C 0.97687 0.71124 0.23006 0.0
C319 C 0.95393 0.67788 0.28694 0.0
C320 C 0.9767 0.75219 0.24649 0.0
C321 C 0.95829 0.6944 0.15844 0.0
C322 C 0.98832 0.69448 0.11483 0.0
C323 C 0.97969 0.68096 0.04614 0.0
C324 C 0.93852 0.66485 0.02188 0.0
C325 C 0.90618 0.66155 0.06661 0.0
C326 C 0.91649 0.67764 0.13534 0.0
H327 H 0.33711 0.09592 0.52298 0.0
H328 H 0.2831 0.04652 0.72565 0.0
H329 H 0.23094 0.97907 0.67052 0.0
H330 H 0.23894 0.03969 0.41728 0.0
H331 H 0.26639 0.03071 0.34733 0.0
H332 H 0.29379 0.07724 0.4007 0.0
H333 H 0.35104 0.05781 0.42991 0.0
H334 H 0.3242 0.01169 0.37616 0.0
H335 H 0.33533 0.00661 0.46594 0.0
H336 H 0.19005 0.91609 0.59577 0.0
H337 H 0.171 0.85847 0.51238 0.0
H338 H 0.2547 0.94839 0.35866 0.0
C339 C 0.31364 0.07135 0.55548 0.0
C340 C 0.31358 0.07645 0.62819 0.0
C341 C 0.2834 0.04309 0.66967 0.0
C342 C 0.25344 0.00501 0.63871 0.0
C343 C 0.25448 0.00103 0.56652 0.0
C344 C 0.28422 0.03318 0.52557 0.0
C345 C 0.28305 0.01911 0.45113 0.0
C346 C 0.26973 0.04311 0.40118 0.0
C347 C 0.32592 0.02407 0.42961 0.0
C348 C 0.24907 0.97329 0.45709 0.0
C349 C 0.23205 0.96395 0.52351 0.0
C350 C 0.20271 0.92307 0.54345 0.0
C351 C 0.19213 0.89055 0.49558 0.0
C352 C 0.21155 0.89902 0.42908 0.0
C353 C 0.23886 0.9411 0.40862 0.0
H354 H 0.16193 0.36928 0.65274 0.0
H355 H 0.18404 0.49662 0.66599 0.0
H356 H 0.21407 0.51115 0.54665 0.0
H357 H 0.25682 0.39417 0.56143 0.0
H358 H 0.23262 0.3474 0.50808 0.0
H359 H 0.21175 0.34668 0.59338 0.0
H360 H 0.13769 0.32221 0.54062 0.0
H361 H 0.15809 0.32186 0.45548 0.0
H362 H 0.13246 0.35222 0.47095 0.0
H363 H 0.24278 0.5118 0.42822 0.0
H364 H 0.26022 0.49597 0.31157 0.0
H365 H 0.22034 0.36845 0.37633 0.0
C366 C 0.17287 0.40003 0.62992 0.0
C367 C 0.171 0.43201 0.66765 0.0
C368 C 0.18504 0.47184 0.63687 0.0
C369 C 0.20252 0.48039 0.56984 0.0
C370 C 0.20543 0.4486 0.53486 0.0
C371 C 0.19039 0.40901 0.56334 0.0
C372 C 0.19644 0.38012 0.51442 0.0
C373 C 0.22618 0.36629 0.54624 0.0
C374 C 0.15363 0.34186 0.49416 0.0
C375 C 0.21692 0.40954 0.45346 0.0
C376 C 0.22226 0.44904 0.46673 0.0
C377 C 0.23901 0.48113 0.41737 0.0
C378 C 0.24904 0.47205 0.35174 0.0
C379 C 0.24198 0.43131 0.33631 0.0
C380 C 0.22687 0.40004 0.38814 0.0
H381 H 0.73447 0.12518 0.96412 0.0
H382 H 0.70614 0.22346 0.01432 0.0
H383 H 0.72916 0.25397 0.89663 0.0
H384 H 0.82736 0.18865 0.86977 0.0
H385 H 0.81894 0.14995 0.80428 0.0
H386 H 0.79656 0.13324 0.88981 0.0
H387 H 0.72179 0.08872 0.83643 0.0
H388 H 0.74404 0.10471 0.75057 0.0
H389 H 0.70195 0.11343 0.77837 0.0
H390 H 0.76053 0.27689 0.77793 0.0
H391 H 0.79172 0.28689 0.66023 0.0
H392 H 0.80045 0.17416 0.68626 0.0
C393 C 0.732 0.15232 0.94913 0.0
C394 C 0.71841 0.17204 0.99747 0.0
C395 C 0.71644 0.20812 0.97741 0.0
C396 C 0.72953 0.22562 0.91098 0.0
C397 C 0.74426 0.20641 0.86512 0.0
C398 C 0.74501 0.17021 0.88278 0.0
C399 C 0.76372 0.1568 0.82443 0.0
C400 C 0.80404 0.1572 0.84854 0.0
C401 C 0.73091 0.11333 0.79575 0.0
C402 C 0.77379 0.19135 0.77173 0.0
C403 C 0.76236 0.21966 0.79639 0.0
C404 C 0.76928 0.25474 0.7578 0.0
C405 C 0.78735 0.26042 0.69147 0.0
C406 C 0.7981 0.23114 0.66429 0.0
C407 C 0.79184 0.19657 0.7055 0.0
H408 H 0.51698 0.69985 0.25727 0.0
H409 H 0.60765 0.81281 0.36645 0.0
H410 H 0.63064 0.85124 0.25483 0.0
H411 H 0.58436 0.71609 0.1075 0.0
H412 H 0.54146 0.69548 0.04575 0.0
H413 H 0.53187 0.67682 0.13427 0.0
H414 H 0.47372 0.69726 0.14477 0.0
H415 H 0.48371 0.71652 0.05653 0.0
H416 H 0.48669 0.75067 0.12658 0.0
H417 H 0.64197 0.87857 0.13421 0.0
H418 H 0.64734 0.89055 0.00694 0.0
H419 H 0.55226 0.75958 0.97443 0.0
C420 C 0.54146 0.73271 0.25719 0.0
C421 C 0.55987 0.75386 0.32008 0.0
C422 C 0.59251 0.79661 0.31861 0.0
C423 C 0.60563 0.81867 0.25579 0.0
C424 C 0.58592 0.79754 0.19482 0.0
C425 C 0.55503 0.75538 0.19455 0.0
C426 C 0.54054 0.74004 0.12086 0.0
C427 C 0.55015 0.70505 0.10093 0.0
C428 C 0.49336 0.72525 0.11168 0.0
C429 C 0.56798 0.78023 0.08033 0.0
C430 C 0.59362 0.81305 0.12419 0.0
C431 C 0.62202 0.85315 0.09917 0.0
C432 C 0.62481 0.85973 0.02708 0.0
C433 C 0.5994 0.82646 0.98091 0.0
C434 C 0.57067 0.78619 0.00818 0.0
H435 H 0.80415 0.52688 0.63125 0.0
H436 H 0.82971 0.6477 0.71122 0.0
H437 H 0.81077 0.66516 0.59701 0.0
H438 H 0.84397 0.56365 0.45292 0.0
H439 H 0.80353 0.51562 0.41353 0.0
H440 H 0.82222 0.51456 0.49987 0.0
H441 H 0.74522 0.47948 0.54568 0.0
H442 H 0.72644 0.48123 0.4598 0.0
H443 H 0.71486 0.50529 0.53195 0.0
H444 H 0.78432 0.66699 0.47725 0.0
H445 H 0.75956 0.65627 0.35462 0.0
H446 H 0.75092 0.53414 0.3533 0.0
C447 C 0.80682 0.55737 0.62347 0.0
C448 C 0.81893 0.58645 0.67853 0.0
C449 C 0.82117 0.6257 0.66835 0.0
C450 C 0.81018 0.6356 0.60419 0.0
C451 C 0.79724 0.60582 0.55103 0.0
C452 C 0.79614 0.56778 0.55953 0.0
C453 C 0.78025 0.54104 0.49447 0.0
C454 C 0.81454 0.53328 0.46337 0.0
C455 C 0.73926 0.4993 0.50888 0.0
C456 C 0.77214 0.56974 0.44855 0.0
C457 C 0.78197 0.60689 0.48215 0.0
C458 C 0.77677 0.63815 0.45018 0.0
C459 C 0.76239 0.63175 0.38112 0.0
C460 C 0.7538 0.59463 0.34527 0.0
C461 C 0.75778 0.56292 0.37991 0.0
H462 H 0.14557 0.74913 0.72399 0.0
H463 H 0.26993 0.80027 0.63134 0.0
H464 H 0.30271 0.82897 0.74411 0.0
H465 H 0.17323 0.83996 0.82626 0.0
H466 H 0.1405 0.81137 0.89943 0.0
H467 H 0.12613 0.7896 0.81308 0.0
H468 H 0.12466 0.72156 0.85424 0.0
H469 H 0.13862 0.743 0.94091 0.0
H470 H 0.17051 0.72547 0.89655 0.0
H471 H 0.32277 0.85507 0.86834 0.0
H472 H 0.32706 0.87461 0.99304 0.0
H473 H 0.19066 0.81573 4e-05 0.0
C474 C 0.1797 0.7655 0.72772 0.0
C475 C 0.20475 0.77013 0.66845 0.0
C476 C 0.24944 0.79333 0.67559 0.0
C477 C 0.26863 0.81078 0.73979 0.0
C478 C 0.24294 0.80589 0.79661 0.0
C479 C 0.19939 0.78396 0.79112 0.0
C480 C 0.17898 0.78571 0.85883 0.0
C481 C 0.1532 0.808 0.84877 0.0
C482 C 0.15158 0.7413 0.88943 0.0
C483 C 0.21785 0.81194 0.90314 0.0
C484 C 0.25447 0.82303 0.8666 0.0
C485 C 0.29423 0.84649 0.89744 0.0
C486 C 0.29645 0.85776 0.96801 0.0
C487 C 0.25922 0.84574 0.00686 0.0
C488 C 0.21961 0.82389 0.97283 0.0
H489 H 0.36522 0.17704 0.3655 0.0
H490 H 0.47372 0.30319 0.36393 0.0
H491 H 0.48805 0.29312 0.24105 0.0
H492 H 0.41616 0.12966 0.26934 0.0
H493 H 0.36837 0.09278 0.22462 0.0
H494 H 0.36553 0.11113 0.3104 0.0
H495 H 0.31554 0.13662 0.2648 0.0
H496 H 0.31768 0.11798 0.17908 0.0
H497 H 0.33159 0.17217 0.19164 0.0
H498 H 0.48806 0.26914 0.11759 0.0
H499 H 0.47324 0.23512 0.00324 0.0
H500 H 0.37145 0.12023 0.09254 0.0
C501 C 0.39259 0.20215 0.33989 0.0
C502 C 0.41915 0.24047 0.37441 0.0
C503 C 0.45317 0.27361 0.33798 0.0
C504 C 0.46172 0.26795 0.26873 0.0
C505 C 0.43611 0.22882 0.23742 0.0
C506 C 0.40224 0.19652 0.27197 0.0
C507 C 0.37969 0.15736 0.22738 0.0
C508 C 0.38264 0.12057 0.25988 0.0
C509 C 0.3334 0.14536 0.21498 0.0
C510 C 0.40561 0.17293 0.1614 0.0
C511 C 0.43794 0.2142 0.16816 0.0
C512 C 0.46366 0.23644 0.1122 0.0
C513 C 0.45542 0.21636 0.04723 0.0
C514 C 0.42224 0.17403 0.03886 0.0
C515 C 0.39778 0.15207 0.09753 0.0
H516 H 0.16381 0.49702 0.17004 0.0
H517 H 0.21463 0.55254 0.96848 0.0
H518 H 0.23006 0.62213 0.01292 0.0
H519 H 0.11483 0.56182 0.2071 0.0
H520 H 0.12662 0.56526 0.2988 0.0
H521 H 0.11769 0.51955 0.24989 0.0
H522 H 0.1903 0.53126 0.29079 0.0
H523 H 0.19991 0.57751 0.33867 0.0
H524 H 0.23731 0.5811 0.27402 0.0
H525 H 0.24824 0.68551 0.08176 0.0
H526 H 0.25491 0.73952 0.16347 0.0
H527 H 0.1868 0.64345 0.3206 0.0
C528 C 0.17773 0.52384 0.13532 0.0
C529 C 0.18839 0.51988 0.06614 0.0
C530 C 0.20594 0.55517 0.02141 0.0
C531 C 0.21518 0.59474 0.04641 0.0
C532 C 0.20585 0.59799 0.1157 0.0
C533 C 0.18641 0.56343 0.15911 0.0
C534 C 0.17923 0.57581 0.23111 0.0
C535 C 0.13177 0.55434 0.24768 0.0
C536 C 0.20311 0.56582 0.28692 0.0
C537 C 0.19834 0.62296 0.22152 0.0
C538 C 0.21409 0.63484 0.15477 0.0
C539 C 0.23518 0.67659 0.13364 0.0
C540 C 0.23887 0.70707 0.18093 0.0
C541 C 0.22057 0.69574 0.24836 0.0
C542 C 0.20074 0.65308 0.26937 0.0
H543 H 0.62484 0.18907 0.36889 0.0
H544 H 0.66406 0.12287 0.50967 0.0
H545 H 0.60961 0.11471 0.5942 0.0
H546 H 0.61121 0.24834 0.49515 0.0
H547 H 0.56541 0.24686 0.45715 0.0
H548 H 0.60253 0.24172 0.40246 0.0
H549 H 0.54245 0.17073 0.3543 0.0
H550 H 0.50503 0.17612 0.40806 0.0
H551 H 0.50928 0.12932 0.41409 0.0
H552 H 0.55642 0.12038 0.66847 0.0
H553 H 0.50564 0.13691 0.72513 0.0
H554 H 0.50259 0.20123 0.53728 0.0
C555 C 0.6207 0.17149 0.41638 0.0
C556 C 0.64807 0.15612 0.43284 0.0
C557 C 0.64311 0.13467 0.49643 0.0
C558 C 0.61227 0.12982 0.54459 0.0
C559 C 0.58671 0.14672 0.52832 0.0
C560 C 0.59022 0.16676 0.46548 0.0
C561 C 0.56132 0.18523 0.46359 0.0
C562 C 0.58665 0.23339 0.45405 0.0
C563 C 0.52751 0.16407 0.40664 0.0
C564 C 0.54199 0.17336 0.53561 0.0
C565 C 0.55666 0.15079 0.57188 0.0
C566 C 0.54428 0.13762 0.64032 0.0
C567 C 0.51566 0.14735 0.67223 0.0
C568 C 0.50011 0.17032 0.63577 0.0
C569 C 0.51373 0.18351 0.56666 0.0
H570 H 0.29837 0.49843 0.82726 0.0
H571 H 0.35121 0.51607 0.03523 0.0
H572 H 0.41906 0.57457 0.99154 0.0
H573 H 0.39589 0.524 0.73139 0.0
H574 H 0.38437 0.55035 0.66294 0.0
H575 H 0.34181 0.5072 0.70924 0.0
H576 H 0.31067 0.55488 0.74029 0.0
H577 H 0.35319 0.59828 0.69476 0.0
H578 H 0.34325 0.6041 0.78486 0.0
H579 H 0.47771 0.63544 0.92828 0.0
H580 H 0.52472 0.69283 0.84921 0.0
H581 H 0.43386 0.63488 0.68163 0.0
C582 C 0.3244 0.51407 0.86355 0.0
C583 C 0.31958 0.50276 0.93475 0.0
C584 C 0.35433 0.5241 0.98047 0.0
C585 C 0.39291 0.55733 0.9561 0.0
C586 C 0.39619 0.56829 0.88587 0.0
C587 C 0.363 0.54699 0.84009 0.0
C588 C 0.37378 0.56633 0.76802 0.0
C589 C 0.37399 0.53511 0.71476 0.0
C590 C 0.34342 0.58182 0.74573 0.0
C591 C 0.41792 0.60279 0.78078 0.0
C592 C 0.43027 0.60314 0.84903 0.0
C593 C 0.4686 0.63516 0.87458 0.0
C594 C 0.49488 0.66779 0.82939 0.0
C595 C 0.48273 0.66828 0.75945 0.0
C596 C 0.44406 0.63497 0.73459 0.0
H597 H 0.74227 0.28805 0.18664 0.0
H598 H 0.8256 0.3478 0.36295 0.0
H599 H 0.84526 0.41777 0.31458 0.0
H600 H 0.81014 0.36171 0.05767 0.0
H601 H 0.7675 0.3604 0.00855 0.0
H602 H 0.75873 0.31481 0.05746 0.0
H603 H 0.6971 0.31439 0.12437 0.0
H604 H 0.70479 0.35929 0.07466 0.0
H605 H 0.70582 0.36154 0.16844 0.0
H606 H 0.85455 0.48064 0.24846 0.0
H607 H 0.84993 0.53244 0.17213 0.0
H608 H 0.76409 0.43172 0.0353 0.0
C609 C 0.7648 0.31578 0.21508 0.0
C610 C 0.78268 0.31248 0.27833 0.0
C611 C 0.81145 0.34959 0.3145 0.0
C612 C 0.82304 0.38942 0.28716 0.0
C613 C 0.80577 0.39144 0.22354 0.0
C614 C 0.77709 0.35562 0.18816 0.0
C615 C 0.76272 0.36632 0.12117 0.0
C616 C 0.77556 0.34983 0.05747 0.0
C617 C 0.71477 0.3494 0.12228 0.0
C618 C 0.78752 0.41396 0.12467 0.0
C619 C 0.81222 0.42775 0.18414 0.0
C620 C 0.83584 0.47029 0.20133 0.0
C621 C 0.83315 0.49941 0.15772 0.0
C622 C 0.80742 0.48582 0.09754 0.0
C623 C 0.78506 0.44276 0.07988 0.0
H624 H 0.31355 0.77082 0.42853 0.0
H625 H 0.36367 0.90576 0.42884 0.0
H626 H 0.42503 0.91524 0.49973 0.0
H627 H 0.33947 0.76177 0.60178 0.0
H628 H 0.35256 0.72146 0.58297 0.0
H629 H 0.31442 0.72603 0.53005 0.0
H630 H 0.35758 0.73367 0.41841 0.0
H631 H 0.39511 0.72756 0.47031 0.0
H632 H 0.41285 0.77317 0.41532 0.0
H633 H 0.4801 0.90759 0.57532 0.0
H634 H 0.52623 0.88481 0.63338 0.0
H635 H 0.43623 0.75501 0.58172 0.0
C636 C 0.3377 0.80246 0.44298 0.0
C637 C 0.33422 0.83759 0.4237 0.0
C638 C 0.36628 0.87855 0.44289 0.0
C639 C 0.40082 0.88406 0.48364 0.0
C640 C 0.40247 0.84825 0.504 0.0
C641 C 0.37185 0.80834 0.48313 0.0
C642 C 0.3802 0.77467 0.51033 0.0
C643 C 0.34455 0.74421 0.55919 0.0
C644 C 0.38685 0.75089 0.45001 0.0
C645 C 0.4206 0.80159 0.5498 0.0
C646 C 0.43309 0.84395 0.5465 0.0
C647 C 0.47041 0.87448 0.57827 0.0
C648 C 0.49617 0.86132 0.61177 0.0
C649 C 0.4844 0.81819 0.61233 0.0
C650 C 0.44571 0.78816 0.58251 0.0
H651 H 0.64127 0.43376 0.01836 0.0
H652 H 0.66683 0.52943 0.86334 0.0
H653 H 0.60294 0.47991 0.79906 0.0
H654 H 0.6128 0.35323 0.90196 0.0
H655 H 0.57104 0.31186 0.9524 0.0
H656 H 0.61336 0.35669 0.99564 0.0
H657 H 0.55928 0.37156 0.0576 0.0
H658 H 0.51665 0.32647 0.01486 0.0
H659 H 0.52124 0.37758 0.00663 0.0
H660 H 0.5445 0.41889 0.74183 0.0
H661 H 0.49222 0.34919 0.69621 0.0
H662 H 0.5028 0.29099 0.88625 0.0
C663 C 0.63211 0.44451 0.9726 0.0
C664 C 0.65807 0.48562 0.94658 0.0
C665 C 0.64664 0.49836 0.88479 0.0
C666 C 0.61045 0.47042 0.84785 0.0
C667 C 0.58611 0.42964 0.87315 0.0
C668 C 0.59605 0.41656 0.93434 0.0
C669 C 0.56721 0.36953 0.94494 0.0
C670 C 0.59263 0.3465 0.94894 0.0
C671 C 0.53944 0.36079 0.00987 0.0
C672 C 0.54103 0.35829 0.87884 0.0
C673 C 0.55215 0.39358 0.83882 0.0
C674 C 0.53484 0.39102 0.7732 0.0
C675 C 0.50534 0.35122 0.74756 0.0
C676 C 0.49352 0.31446 0.78736 0.0
C677 C 0.51122 0.3183 0.85433 0.0
loop_
_geom_bond_atom_site_label_1
_geom_bond_atom_site_label_2
_geom_bond_distance
_geom_bond_site_symmetry_2
_ccdc_geom_bond_type
Zn0 O1 2.055 . S
Zn0 O8 2.046 . S
Zn0 N16 2.036 . S
Zn0 O28 2.053 . S
Zn0 O30 2.066 . S
O1 Zn0 2.055 . S
O1 C4 1.259 . S
C2 O30 1.256 . S
C2 O31 1.244 1_554 S
Zn3 O5 2.046 . S
Zn3 O7 2.055 . S
Zn3 N9 2.036 . S
Zn3 O27 2.066 . S
Zn3 O31 2.053 . S
C4 O1 1.259 . S
C4 O5 1.254 1_554 S
O5 Zn3 2.046 . S
O5 C4 1.254 1_556 S
C6 O27 1.256 . S
C6 O28 1.244 1_556 S
O7 Zn3 2.055 . S
O7 C29 1.259 . S
O8 Zn0 2.046 . S
O8 C29 1.254 1_554 S
N9 Zn3 2.036 . S
N9 C10 1.298 . S
N9 N12 1.398 . S
C10 N9 1.298 . S
C10 N13 1.367 . S
C10 C23 1.481 . S
C11 N12 1.299 . S
C11 N13 1.379 . S
N12 N9 1.398 . S
N12 C11 1.299 . S
N13 C10 1.367 . S
N13 C11 1.379 . S
C14 N16 1.298 . S
C14 N18 1.367 . S
C14 C22 1.481 . S
C15 N17 1.299 . S
C15 N18 1.379 . S
N16 Zn0 2.036 . S
N16 C14 1.298 . S
N16 N17 1.398 . S
N17 C15 1.299 . S
N17 N16 1.398 . S
N18 C14 1.367 . S
N18 C15 1.379 . S
H19 C22 0.980 . S
H20 C22 0.981 . S
H21 C22 0.981 . S
C22 C14 1.481 . S
C22 H19 0.980 . S
C22 H20 0.981 . S
C22 H21 0.981 . S
C23 C10 1.481 . S
C23 H24 0.980 . S
C23 H25 0.981 . S
C23 H26 0.981 . S
H24 C23 0.980 . S
H25 C23 0.981 . S
H26 C23 0.981 . S
O27 Zn3 2.066 . S
O27 C6 1.256 . S
O28 Zn0 2.053 . S
O28 C6 1.244 1_554 S
C29 O7 1.259 . S
C29 O8 1.254 1_556 S
O30 Zn0 2.066 . S
O30 C2 1.256 . S
O31 C2 1.244 1_556 S
O31 Zn3 2.053 . S
Zn32 O33 2.055 . S
Zn32 O40 2.046 . S
Zn32 N48 2.036 . S
Zn32 O60 2.053 . S
Zn32 O62 2.066 . S
O33 Zn32 2.055 . S
O33 C36 1.259 . S
C34 O62 1.256 . S
C34 O63 1.244 . S
Zn35 O37 2.046 . S
Zn35 O39 2.055 . S
Zn35 N41 2.036 . S
Zn35 O59 2.066 . S
Zn35 O63 2.053 . S
C36 O33 1.259 . S
C36 O37 1.254 . S
O37 Zn35 2.046 . S
O37 C36 1.254 . S
C38 O59 1.256 . S
C38 O60 1.244 . S
O39 Zn35 2.055 . S
O39 C61 1.259 . S
O40 Zn32 2.046 . S
O40 C61 1.254 . S
N41 Zn35 2.036 . S
N41 C42 1.298 . S
N41 N44 1.398 . S
C42 N41 1.298 . S
C42 N45 1.367 . S
C42 C55 1.481 . S
C43 N44 1.299 . S
C43 N45 1.379 . S
N44 N41 1.398 . S
N44 C43 1.299 . S
N45 C42 1.367 . S
N45 C43 1.379 . S
C46 N48 1.298 . S
C46 N50 1.367 . S
C46 C54 1.481 . S
C47 N49 1.299 . S
C47 N50 1.379 . S
N48 Zn32 2.036 . S
N48 C46 1.298 . S
N48 N49 1.398 . S
N49 C47 1.299 . S
N49 N48 1.398 . S
N50 C46 1.367 . S
N50 C47 1.379 . S
H51 C54 0.980 . S
H52 C54 0.981 . S
H53 C54 0.981 . S
C54 C46 1.481 . S
C54 H51 0.980 . S
C54 H52 0.981 . S
C54 H53 0.981 . S
C55 C42 1.481 . S
C55 H56 0.980 . S
C55 H57 0.981 . S
C55 H58 0.981 . S
H56 C55 0.980 . S
H57 C55 0.981 . S
H58 C55 0.981 . S
O59 Zn35 2.066 . S
O59 C38 1.256 . S
O60 Zn32 2.053 . S
O60 C38 1.244 . S
C61 O39 1.259 . S
C61 O40 1.254 . S
O62 Zn32 2.066 . S
O62 C34 1.256 . S
O63 C34 1.244 . S
O63 Zn35 2.053 . S
Zn64 O65 2.055 . S
Zn64 O72 2.046 . S
Zn64 N80 2.036 . S
Zn64 O92 2.053 . S
Zn64 O94 2.066 . S
O65 Zn64 2.055 . S
O65 C68 1.259 . S
C66 O94 1.256 . S
C66 O95 1.244 . S
Zn67 O69 2.046 . S
Zn67 O71 2.055 . S
Zn67 N73 2.036 . S
Zn67 O91 2.066 . S
Zn67 O95 2.053 . S
C68 O65 1.259 . S
C68 O69 1.254 . S
O69 Zn67 2.046 . S
O69 C68 1.254 . S
C70 O91 1.256 . S
C70 O92 1.244 . S
O71 Zn67 2.055 . S
O71 C93 1.259 . S
O72 Zn64 2.046 . S
O72 C93 1.254 . S
N73 Zn67 2.036 . S
N73 C74 1.298 . S
N73 N76 1.398 . S
C74 N73 1.298 . S
C74 N77 1.367 . S
C74 C87 1.481 . S
C75 N76 1.299 . S
C75 N77 1.379 . S
N76 N73 1.398 . S
N76 C75 1.299 . S
N77 C74 1.367 . S
N77 C75 1.379 . S
C78 N80 1.298 . S
C78 N82 1.367 . S
C78 C86 1.481 . S
C79 N81 1.299 . S
C79 N82 1.379 . S
N80 Zn64 2.036 . S
N80 C78 1.298 . S
N80 N81 1.398 . S
N81 C79 1.299 . S
N81 N80 1.398 . S
N82 C78 1.367 . S
N82 C79 1.379 . S
H83 C86 0.980 . S
H84 C86 0.981 . S
H85 C86 0.981 . S
C86 C78 1.481 . S
C86 H83 0.980 . S
C86 H84 0.981 . S
C86 H85 0.981 . S
C87 C74 1.481 . S
C87 H88 0.980 . S
C87 H89 0.981 . S
C87 H90 0.981 . S
H88 C87 0.980 . S
H89 C87 0.981 . S
H90 C87 0.981 . S
O91 Zn67 2.066 . S
O91 C70 1.256 . S
O92 Zn64 2.053 . S
O92 C70 1.244 . S
C93 O71 1.259 . S
C93 O72 1.254 . S
O94 Zn64 2.066 . S
O94 C66 1.256 . S
O95 C66 1.244 . S
O95 Zn67 2.053 . S
Zn96 O97 2.055 . S
Zn96 O104 2.046 . S
Zn96 N112 2.036 . S
Zn96 O124 2.053 . S
Zn96 O126 2.066 . S
O97 Zn96 2.055 . S
O97 C100 1.259 . S
C98 O126 1.256 . S
C98 O127 1.244 1_556 S
Zn99 O101 2.046 . S
Zn99 O103 2.055 . S
Zn99 N105 2.036 . S
Zn99 O123 2.066 . S
Zn99 O127 2.053 . S
C100 O97 1.259 . S
C100 O101 1.254 1_556 S
O101 Zn99 2.046 . S
O101 C100 1.254 1_554 S
C102 O123 1.256 . S
C102 O124 1.244 1_554 S
O103 Zn99 2.055 . S
O103 C125 1.259 . S
O104 Zn96 2.046 . S
O104 C125 1.254 1_556 S
N105 Zn99 2.036 . S
N105 C106 1.298 . S
N105 N108 1.398 . S
C106 N105 1.298 . S
C106 N109 1.367 . S
C106 C119 1.481 . S
C107 N108 1.299 . S
C107 N109 1.379 . S
N108 N105 1.398 . S
N108 C107 1.299 . S
N109 C106 1.367 . S
N109 C107 1.379 . S
C110 N112 1.298 . S
C110 N114 1.367 . S
C110 C118 1.481 . S
C111 N113 1.299 . S
C111 N114 1.379 . S
N112 Zn96 2.036 . S
N112 C110 1.298 . S
N112 N113 1.398 . S
N113 C111 1.299 . S
N113 N112 1.398 . S
N114 C110 1.367 . S
N114 C111 1.379 . S
H115 C118 0.980 . S
H116 C118 0.981 . S
H117 C118 0.981 . S
C118 C110 1.481 . S
C118 H115 0.980 . S
C118 H116 0.981 . S
C118 H117 0.981 . S
C119 C106 1.481 . S
C119 H120 0.980 . S
C119 H121 0.981 . S
C119 H122 0.981 . S
H120 C119 0.980 . S
H121 C119 0.981 . S
H122 C119 0.981 . S
O123 Zn99 2.066 . S
O123 C102 1.256 . S
O124 Zn96 2.053 . S
O124 C102 1.244 1_556 S
C125 O103 1.259 . S
C125 O104 1.254 1_554 S
O126 Zn96 2.066 . S
O126 C98 1.256 . S
O127 C98 1.244 1_554 S
O127 Zn99 2.053 . S
Zn128 O129 2.055 . S
Zn128 O136 2.046 . S
Zn128 N144 2.036 . S
Zn128 O156 2.053 . S
Zn128 O158 2.066 . S
O129 Zn128 2.055 . S
O129 C132 1.259 . S
C130 O158 1.256 . S
C130 O159 1.244 . S
Zn131 O133 2.046 . S
Zn131 O135 2.055 . S
Zn131 N137 2.036 . S
Zn131 O155 2.066 . S
Zn131 O159 2.053 . S
C132 O129 1.259 . S
C132 O133 1.254 . S
O133 Zn131 2.046 . S
O133 C132 1.254 . S
C134 O155 1.256 . S
C134 O156 1.244 . S
O135 Zn131 2.055 . S
O135 C157 1.259 . S
O136 Zn128 2.046 . S
O136 C157 1.254 . S
N137 Zn131 2.036 . S
N137 C138 1.298 . S
N137 N140 1.398 . S
C138 N137 1.298 . S
C138 N141 1.367 . S
C138 C151 1.481 . S
C139 N140 1.299 . S
C139 N141 1.379 . S
N140 N137 1.398 . S
N140 C139 1.299 . S
N141 C138 1.367 . S
N141 C139 1.379 . S
C142 N144 1.298 . S
C142 N146 1.367 . S
C142 C150 1.481 . S
C143 N145 1.299 . S
C143 N146 1.379 . S
N144 Zn128 2.036 . S
N144 C142 1.298 . S
N144 N145 1.398 . S
N145 C143 1.299 . S
N145 N144 1.398 . S
N146 C142 1.367 . S
N146 C143 1.379 . S
H147 C150 0.980 . S
H148 C150 0.981 . S
H149 C150 0.981 . S
C150 C142 1.481 . S
C150 H147 0.980 . S
C150 H148 0.981 . S
C150 H149 0.981 . S
C151 C138 1.481 . S
C151 H152 0.980 . S
C151 H153 0.981 . S
C151 H154 0.981 . S
H152 C151 0.980 . S
H153 C151 0.981 . S
H154 C151 0.981 . S
O155 Zn131 2.066 . S
O155 C134 1.256 . S
O156 Zn128 2.053 . S
O156 C134 1.244 . S
C157 O135 1.259 . S
C157 O136 1.254 . S
O158 Zn128 2.066 . S
O158 C130 1.256 . S
O159 C130 1.244 . S
O159 Zn131 2.053 . S
Zn160 O161 2.055 . S
Zn160 O168 2.046 . S
Zn160 N176 2.036 . S
Zn160 O188 2.053 . S
Zn160 O190 2.066 . S
O161 Zn160 2.055 . S
O161 C164 1.259 . S
C162 O190 1.256 . S
C162 O191 1.244 . S
Zn163 O165 2.046 . S
Zn163 O167 2.055 . S
Zn163 N169 2.036 . S
Zn163 O187 2.066 . S
Zn163 O191 2.053 . S
C164 O161 1.259 . S
C164 O165 1.254 . S
O165 Zn163 2.046 . S
O165 C164 1.254 . S
C166 O187 1.256 . S
C166 O188 1.244 . S
O167 Zn163 2.055 . S
O167 C189 1.259 . S
O168 Zn160 2.046 . S
O168 C189 1.254 . S
N169 Zn163 2.036 . S
N169 C170 1.298 . S
N169 N172 1.398 . S
C170 N169 1.298 . S
C170 N173 1.367 . S
C170 C183 1.481 . S
C171 N172 1.299 . S
C171 N173 1.379 . S
N172 N169 1.398 . S
N172 C171 1.299 . S
N173 C170 1.367 . S
N173 C171 1.379 . S
C174 N176 1.298 . S
C174 N178 1.367 . S
C174 C182 1.481 . S
C175 N177 1.299 . S
C175 N178 1.379 . S
N176 Zn160 2.036 . S
N176 C174 1.298 . S
N176 N177 1.398 . S
N177 C175 1.299 . S
N177 N176 1.398 . S
N178 C174 1.367 . S
N178 C175 1.379 . S
H179 C182 0.980 . S
H180 C182 0.981 . S
H181 C182 0.981 . S
C182 C174 1.481 . S
C182 H179 0.980 . S
C182 H180 0.981 . S
C182 H181 0.981 . S
C183 C170 1.481 . S
C183 H184 0.980 . S
C183 H185 0.981 . S
C183 H186 0.981 . S
H184 C183 0.980 . S
H185 C183 0.981 . S
H186 C183 0.981 . S
O187 Zn163 2.066 . S
O187 C166 1.256 . S
O188 Zn160 2.053 . S
O188 C166 1.244 . S
C189 O167 1.259 . S
C189 O168 1.254 . S
O190 Zn160 2.066 . S
O190 C162 1.256 . S
O191 C162 1.244 . S
O191 Zn163 2.053 . S
H192 C204 0.930 . S
H193 C206 0.930 . S
H194 C207 0.930 . S
H195 C211 0.959 . S
H196 C211 0.959 . S
H197 C211 0.961 . S
H198 C212 0.960 . S
H199 C212 0.961 . S
H200 C212 0.959 . S
H201 C215 0.929 . S
H202 C216 0.931 . S
H203 C218 0.930 . S
C204 H192 0.930 . S
C204 C205 1.399 . S
C204 C209 1.399 . S
C205 C204 1.399 . S
C205 C206 1.376 . S
C206 H193 0.930 . S
C206 C205 1.376 . S
C206 C207 1.388 . S
C207 H194 0.930 . S
C207 C206 1.388 . S
C207 C208 1.390 . S
C208 C207 1.390 . S
C208 C209 1.394 . S
C208 C214 1.465 . S
C209 C204 1.399 . S
C209 C208 1.394 . S
C209 C210 1.516 . S
C210 C209 1.516 . S
C210 C211 1.502 . S
C210 C212 1.561 . S
C210 C213 1.526 . S
C211 H195 0.959 . S
C211 H196 0.959 . S
C211 H197 0.961 . S
C211 C210 1.502 . S
C212 H198 0.960 . S
C212 H199 0.961 . S
C212 H200 0.959 . S
C212 C210 1.561 . S
C213 C210 1.526 . S
C213 C214 1.396 . S
C213 C218 1.390 . S
C214 C208 1.465 . S
C214 C213 1.396 . S
C214 C215 1.399 . S
C215 H201 0.929 . S
C215 C214 1.399 . S
C215 C216 1.385 . S
C216 H202 0.931 . S
C216 C215 1.385 . S
C216 C217 1.389 . S
C217 C216 1.389 . S
C217 C218 1.387 . S
C218 H203 0.930 . S
C218 C213 1.390 . S
C218 C217 1.387 . S
H219 C231 0.930 . S
H220 C233 0.930 1_556 S
H221 C234 0.930 1_655 S
H222 C238 0.959 . S
H223 C238 0.959 . S
H224 C238 0.961 . S
H225 C239 0.960 . S
H226 C239 0.961 . S
H227 C239 0.959 . S
H228 C242 0.929 . S
H229 C243 0.931 . S
H230 C245 0.930 . S
C231 H219 0.930 . S
C231 C232 1.399 . S
C231 C236 1.399 . S
C232 C231 1.399 . S
C232 C233 1.376 . S
C233 H220 0.930 1_554 S
C233 C232 1.376 . S
C233 C234 1.388 . S
C234 H221 0.930 1_455 S
C234 C233 1.388 . S
C234 C235 1.390 . S
C235 C234 1.390 . S
C235 C236 1.394 . S
C235 C241 1.465 1_455 S
C236 C231 1.399 . S
C236 C235 1.394 . S
C236 C237 1.516 . S
C237 C236 1.516 . S
C237 C238 1.502 . S
C237 C239 1.561 . S
C237 C240 1.526 1_455 S
C238 H222 0.959 . S
C238 H223 0.959 . S
C238 H224 0.961 . S
C238 C237 1.502 . S
C239 H225 0.960 . S
C239 H226 0.961 . S
C239 H227 0.959 . S
C239 C237 1.561 . S
C240 C237 1.526 1_655 S
C240 C241 1.396 . S
C240 C245 1.390 . S
C241 C235 1.465 1_655 S
C241 C240 1.396 . S
C241 C242 1.399 . S
C242 H228 0.929 . S
C242 C241 1.399 . S
C242 C243 1.385 . S
C243 H229 0.931 . S
C243 C242 1.385 . S
C243 C244 1.389 . S
C244 C243 1.389 . S
C244 C245 1.387 . S
C245 H230 0.930 . S
C245 C240 1.390 . S
C245 C244 1.387 . S
H246 C258 0.930 . S
H247 C260 0.930 . S
H248 C261 0.930 . S
H249 C265 0.959 . S
H250 C265 0.959 1_565 S
H251 C265 0.961 . S
H252 C266 0.960 . S
H253 C266 0.961 . S
H254 C266 0.959 . S
H255 C269 0.929 . S
H256 C270 0.931 . S
H257 C272 0.930 . S
C258 H246 0.930 . S
C258 C259 1.399 . S
C258 C263 1.399 . S
C259 C258 1.399 . S
C259 C260 1.376 . S
C260 H247 0.930 . S
C260 C259 1.376 . S
C260 C261 1.388 . S
C261 H248 0.930 . S
C261 C260 1.388 . S
C261 C262 1.390 . S
C262 C261 1.390 . S
C262 C263 1.394 . S
C262 C268 1.465 1_545 S
C263 C258 1.399 . S
C263 C262 1.394 . S
C263 C264 1.516 1_545 S
C264 C263 1.516 1_565 S
C264 C265 1.502 1_565 S
C264 C266 1.561 . S
C264 C267 1.526 . S
C265 H249 0.959 . S
C265 H250 0.959 1_545 S
C265 H251 0.961 . S
C265 C264 1.502 1_545 S
C266 H252 0.960 . S
C266 H253 0.961 . S
C266 H254 0.959 . S
C266 C264 1.561 . S
C267 C264 1.526 . S
C267 C268 1.396 . S
C267 C272 1.390 . S
C268 C262 1.465 1_565 S
C268 C267 1.396 . S
C268 C269 1.399 . S
C269 H255 0.929 . S
C269 C268 1.399 . S
C269 C270 1.385 . S
C270 H256 0.931 . S
C270 C269 1.385 . S
C270 C271 1.389 . S
C271 C270 1.389 . S
C271 C272 1.387 . S
C272 H257 0.930 . S
C272 C267 1.390 . S
C272 C271 1.387 . S
H273 C285 0.930 . S
H274 C287 0.930 . S
H275 C288 0.930 . S
H276 C292 0.959 . S
H277 C292 0.959 . S
H278 C292 0.961 . S
H279 C293 0.960 . S
H280 C293 0.961 . S
H281 C293 0.959 . S
H282 C296 0.929 . S
H283 C297 0.931 . S
H284 C299 0.930 . S
C285 H273 0.930 . S
C285 C286 1.399 . S
C285 C290 1.399 . S
C286 C285 1.399 . S
C286 C287 1.376 . S
C287 H274 0.930 . S
C287 C286 1.376 . S
C287 C288 1.388 . S
C288 H275 0.930 . S
C288 C287 1.388 . S
C288 C289 1.390 . S
C289 C288 1.390 . S
C289 C290 1.394 . S
C289 C295 1.465 . S
C290 C285 1.399 . S
C290 C289 1.394 . S
C290 C291 1.516 . S
C291 C290 1.516 . S
C291 C292 1.502 . S
C291 C293 1.561 . S
C291 C294 1.526 . S
C292 H276 0.959 . S
C292 H277 0.959 . S
C292 H278 0.961 . S
C292 C291 1.502 . S
C293 H279 0.960 . S
C293 H280 0.961 . S
C293 H281 0.959 . S
C293 C291 1.561 . S
C294 C291 1.526 . S
C294 C295 1.396 . S
C294 C299 1.390 . S
C295 C289 1.465 . S
C295 C294 1.396 . S
C295 C296 1.399 . S
C296 H282 0.929 . S
C296 C295 1.399 . S
C296 C297 1.385 . S
C297 H283 0.931 . S
C297 C296 1.385 . S
C297 C298 1.389 . S
C298 C297 1.389 . S
C298 C299 1.387 . S
C299 H284 0.930 . S
C299 C294 1.390 . S
C299 C298 1.387 . S
H300 C312 0.930 . S
H301 C314 0.930 . S
H302 C315 0.930 . S
H303 C319 0.959 . S
H304 C319 0.959 . S
H305 C319 0.961 1_455 S
H306 C320 0.960 . S
H307 C320 0.982 . S
H308 C320 0.959 . S
H309 C323 0.929 . S
H310 C324 0.931 . S
H311 C326 0.930 . S
C312 H300 0.930 . S
C312 C313 1.399 . S
C312 C317 1.399 . S
C313 C312 1.399 . S
C313 C314 1.376 . S
C314 H301 0.930 . S
C314 C313 1.376 . S
C314 C315 1.388 . S
C315 H302 0.930 . S
C315 C314 1.388 . S
C315 C316 1.390 . S
C316 C315 1.390 . S
C316 C317 1.394 . S
C316 C322 1.465 1_455 S
C317 C312 1.399 . S
C317 C316 1.394 . S
C317 C318 1.520 . S
C318 C317 1.520 . S
C318 C319 1.499 1_455 S
C318 C320 1.562 . S
C318 C321 1.525 1_455 S
C319 H303 0.959 . S
C319 H304 0.959 . S
C319 H305 0.961 1_655 S
C319 C318 1.499 1_655 S
C320 H306 0.960 . S
C320 H307 0.982 . S
C320 H308 0.959 . S
C320 C318 1.562 . S
C321 C318 1.525 1_655 S
C321 C322 1.396 . S
C321 C326 1.390 . S
C322 C316 1.465 1_655 S
C322 C321 1.396 . S
C322 C323 1.399 . S
C323 H309 0.929 . S
C323 C322 1.399 . S
C323 C324 1.385 . S
C324 H310 0.931 . S
C324 C323 1.385 . S
C324 C325 1.389 . S
C325 C324 1.389 . S
C325 C326 1.387 . S
C326 H311 0.930 . S
C326 C321 1.390 . S
C326 C325 1.387 . S
H327 C339 0.930 . S
H328 C341 0.930 . S
H329 C342 0.913 1_565 S
H330 C346 0.959 . S
H331 C346 0.959 . S
H332 C346 0.961 . S
H333 C347 0.960 . S
H334 C347 0.961 . S
H335 C347 0.959 . S
H336 C350 0.929 . S
H337 C351 0.931 . S
H338 C353 0.930 . S
C339 H327 0.930 . S
C339 C340 1.399 . S
C339 C344 1.399 . S
C340 C339 1.399 . S
C340 C341 1.376 . S
C341 H328 0.930 . S
C341 C340 1.376 . S
C341 C342 1.388 . S
C342 H329 0.913 1_545 S
C342 C341 1.388 . S
C342 C343 1.390 . S
C343 C342 1.390 . S
C343 C344 1.394 . S
C343 C349 1.465 1_545 S
C344 C339 1.399 . S
C344 C343 1.394 . S
C344 C345 1.516 . S
C345 C344 1.516 . S
C345 C346 1.502 . S
C345 C347 1.561 . S
C345 C348 1.526 1_545 S
C346 H330 0.959 . S
C346 H331 0.959 . S
C346 H332 0.961 . S
C346 C345 1.502 . S
C347 H333 0.960 . S
C347 H334 0.961 . S
C347 H335 0.959 . S
C347 C345 1.561 . S
C348 C345 1.526 1_565 S
C348 C349 1.396 . S
C348 C353 1.390 . S
C349 C343 1.465 1_565 S
C349 C348 1.396 . S
C349 C350 1.399 . S
C350 H336 0.929 . S
C350 C349 1.399 . S
C350 C351 1.385 . S
C351 H337 0.931 . S
C351 C350 1.385 . S
C351 C352 1.389 . S
C352 C351 1.389 . S
C352 C353 1.387 . S
C353 H338 0.930 . S
C353 C348 1.390 . S
C353 C352 1.387 . S
H354 C366 0.930 . S
H355 C368 0.930 . S
H356 C369 0.930 . S
H357 C373 0.959 . S
H358 C373 0.959 . S
H359 C373 0.961 . S
H360 C374 0.960 . S
H361 C374 0.961 . S
H362 C374 0.959 . S
H363 C377 0.929 . S
H364 C378 0.931 . S
H365 C380 0.930 . S
C366 H354 0.930 . S
C366 C367 1.399 . S
C366 C371 1.399 . S
C367 C366 1.399 . S
C367 C368 1.376 . S
C368 H355 0.930 . S
C368 C367 1.376 . S
C368 C369 1.388 . S
C369 H356 0.930 . S
C369 C368 1.388 . S
C369 C370 1.390 . S
C370 C369 1.390 . S
C370 C371 1.394 . S
C370 C376 1.465 . S
C371 C366 1.399 . S
C371 C370 1.394 . S
C371 C372 1.516 . S
C372 C371 1.516 . S
C372 C373 1.502 . S
C372 C374 1.561 . S
C372 C375 1.526 . S
C373 H357 0.959 . S
C373 H358 0.959 . S
C373 H359 0.961 . S
C373 C372 1.502 . S
C374 H360 0.960 . S
C374 H361 0.961 . S
C374 H362 0.959 . S
C374 C372 1.561 . S
C375 C372 1.526 . S
C375 C376 1.396 . S
C375 C380 1.390 . S
C376 C370 1.465 . S
C376 C375 1.396 . S
C376 C377 1.399 . S
C377 H363 0.929 . S
C377 C376 1.399 . S
C377 C378 1.385 . S
C378 H364 0.931 . S
C378 C377 1.385 . S
C378 C379 1.389 . S
C379 C378 1.389 . S
C379 C380 1.387 . S
C380 H365 0.930 . S
C380 C375 1.390 . S
C380 C379 1.387 . S
H381 C393 0.930 . S
H382 C395 0.930 1_554 S
H383 C396 0.930 . S
H384 C400 0.959 . S
H385 C400 0.959 . S
H386 C400 0.961 . S
H387 C401 0.960 . S
H388 C401 0.961 . S
H389 C401 0.959 . S
H390 C404 0.929 . S
H391 C405 0.931 . S
H392 C407 0.930 . S
C393 H381 0.930 . S
C393 C394 1.399 1_556 S
C393 C398 1.399 . S
C394 C393 1.399 1_554 S
C394 C395 1.376 1_554 S
C395 H382 0.930 1_556 S
C395 C394 1.376 1_556 S
C395 C396 1.388 . S
C396 H383 0.930 . S
C396 C395 1.388 . S
C396 C397 1.390 . S
C397 C396 1.390 . S
C397 C398 1.394 . S
C397 C403 1.465 . S
C398 C393 1.399 . S
C398 C397 1.394 . S
C398 C399 1.516 . S
C399 C398 1.516 . S
C399 C400 1.502 . S
C399 C401 1.561 . S
C399 C402 1.526 . S
C400 H384 0.959 . S
C400 H385 0.959 . S
C400 H386 0.961 . S
C400 C399 1.502 . S
C401 H387 0.960 . S
C401 H388 0.961 . S
C401 H389 0.959 . S
C401 C399 1.561 . S
C402 C399 1.526 . S
C402 C403 1.396 . S
C402 C407 1.390 . S
C403 C397 1.465 . S
C403 C402 1.396 . S
C403 C404 1.399 . S
C404 H390 0.929 . S
C404 C403 1.399 . S
C404 C405 1.385 . S
C405 H391 0.931 . S
C405 C404 1.385 . S
C405 C406 1.389 . S
C406 C405 1.389 . S
C406 C407 1.387 . S
C407 H392 0.930 . S
C407 C402 1.390 . S
C407 C406 1.387 . S
H408 C420 0.930 . S
H409 C422 0.930 . S
H410 C423 0.930 . S
H411 C427 0.959 . S
H412 C427 0.959 . S
H413 C427 0.961 . S
H414 C428 0.960 . S
H415 C428 0.961 . S
H416 C428 0.959 . S
H417 C431 0.929 . S
H418 C432 0.931 . S
H419 C434 0.930 . S
C420 H408 0.930 . S
C420 C421 1.399 . S
C420 C425 1.399 . S
C421 C420 1.399 . S
C421 C422 1.376 . S
C422 H409 0.930 . S
C422 C421 1.376 . S
C422 C423 1.388 . S
C423 H410 0.930 . S
C423 C422 1.388 . S
C423 C424 1.390 . S
C424 C423 1.390 . S
C424 C425 1.394 . S
C424 C430 1.465 . S
C425 C420 1.399 . S
C425 C424 1.394 . S
C425 C426 1.516 . S
C426 C425 1.516 . S
C426 C427 1.502 . S
C426 C428 1.561 . S
C426 C429 1.526 . S
C427 H411 0.959 . S
C427 H412 0.959 . S
C427 H413 0.961 . S
C427 C426 1.502 . S
C428 H414 0.960 . S
C428 H415 0.961 . S
C428 H416 0.959 . S
C428 C426 1.561 . S
C429 C426 1.526 . S
C429 C430 1.396 . S
C429 C434 1.390 . S
C430 C424 1.465 . S
C430 C429 1.396 . S
C430 C431 1.399 . S
C431 H417 0.929 . S
C431 C430 1.399 . S
C431 C432 1.385 . S
C432 H418 0.931 . S
C432 C431 1.385 . S
C432 C433 1.389 . S
C433 C432 1.389 . S
C433 C434 1.387 . S
C434 H419 0.930 . S
C434 C429 1.390 . S
C434 C433 1.387 . S
H435 C447 0.930 . S
H436 C449 0.930 . S
H437 C450 0.930 . S
H438 C454 0.959 . S
H439 C454 0.959 . S
H440 C454 0.961 . S
H441 C455 0.960 . S
H442 C455 0.961 . S
H443 C455 0.959 . S
H444 C458 0.929 . S
H445 C459 0.931 . S
H446 C461 0.930 . S
C447 H435 0.930 . S
C447 C448 1.399 . S
C447 C452 1.399 . S
C448 C447 1.399 . S
C448 C449 1.376 . S
C449 H436 0.930 . S
C449 C448 1.376 . S
C449 C450 1.388 . S
C450 H437 0.930 . S
C450 C449 1.388 . S
C450 C451 1.390 . S
C451 C450 1.390 . S
C451 C452 1.394 . S
C451 C457 1.465 . S
C452 C447 1.399 . S
C452 C451 1.394 . S
C452 C453 1.516 . S
C453 C452 1.516 . S
C453 C454 1.502 . S
C453 C455 1.561 . S
C453 C456 1.526 . S
C454 H438 0.959 . S
C454 H439 0.959 . S
C454 H440 0.961 . S
C454 C453 1.502 . S
C455 H441 0.960 . S
C455 H442 0.961 . S
C455 H443 0.959 . S
C455 C453 1.561 . S
C456 C453 1.526 . S
C456 C457 1.396 . S
C456 C461 1.390 . S
C457 C451 1.465 . S
C457 C456 1.396 . S
C457 C458 1.399 . S
C458 H444 0.929 . S
C458 C457 1.399 . S
C458 C459 1.385 . S
C459 H445 0.931 . S
C459 C458 1.385 . S
C459 C460 1.389 . S
C460 C459 1.389 . S
C460 C461 1.387 . S
C461 H446 0.930 . S
C461 C456 1.390 . S
C461 C460 1.387 . S
H462 C474 0.930 . S
H463 C476 0.930 . S
H464 C477 0.930 . S
H465 C481 0.959 . S
H466 C481 0.959 . S
H467 C481 0.961 . S
H468 C482 0.960 . S
H469 C482 0.961 . S
H470 C482 0.959 . S
H471 C485 0.929 . S
H472 C486 0.931 . S
H473 C488 0.930 1_554 S
C474 H462 0.930 . S
C474 C475 1.399 . S
C474 C479 1.399 . S
C475 C474 1.399 . S
C475 C476 1.376 . S
C476 H463 0.930 . S
C476 C475 1.376 . S
C476 C477 1.388 . S
C477 H464 0.930 . S
C477 C476 1.388 . S
C477 C478 1.390 . S
C478 C477 1.390 . S
C478 C479 1.394 . S
C478 C484 1.465 . S
C479 C474 1.399 . S
C479 C478 1.394 . S
C479 C480 1.516 . S
C480 C479 1.516 . S
C480 C481 1.502 . S
C480 C482 1.561 . S
C480 C483 1.526 . S
C481 H465 0.959 . S
C481 H466 0.959 . S
C481 H467 0.961 . S
C481 C480 1.502 . S
C482 H468 0.960 . S
C482 H469 0.961 . S
C482 H470 0.959 . S
C482 C480 1.561 . S
C483 C480 1.526 . S
C483 C484 1.396 . S
C483 C488 1.390 . S
C484 C478 1.465 . S
C484 C483 1.396 . S
C484 C485 1.399 . S
C485 H471 0.929 . S
C485 C484 1.399 . S
C485 C486 1.385 . S
C486 H472 0.931 . S
C486 C485 1.385 . S
C486 C487 1.378 1_556 S
C487 C486 1.378 1_554 S
C487 C488 1.382 1_554 S
C488 H473 0.930 1_556 S
C488 C483 1.390 . S
C488 C487 1.382 1_556 S
H489 C501 0.930 . S
H490 C503 0.930 . S
H491 C504 0.930 . S
H492 C508 0.959 . S
H493 C508 0.959 . S
H494 C508 0.961 . S
H495 C509 0.960 . S
H496 C509 0.961 . S
H497 C509 0.959 . S
H498 C512 0.929 . S
H499 C513 0.926 1_556 S
H500 C515 0.930 . S
C501 H489 0.930 . S
C501 C502 1.399 . S
C501 C506 1.399 . S
C502 C501 1.399 . S
C502 C503 1.376 . S
C503 H490 0.930 . S
C503 C502 1.376 . S
C503 C504 1.388 . S
C504 H491 0.930 . S
C504 C503 1.388 . S
C504 C505 1.390 . S
C505 C504 1.390 . S
C505 C506 1.394 . S
C505 C511 1.465 . S
C506 C501 1.399 . S
C506 C505 1.394 . S
C506 C507 1.516 . S
C507 C506 1.516 . S
C507 C508 1.502 . S
C507 C509 1.561 . S
C507 C510 1.526 . S
C508 H492 0.959 . S
C508 H493 0.959 . S
C508 H494 0.961 . S
C508 C507 1.502 . S
C509 H495 0.960 . S
C509 H496 0.961 . S
C509 H497 0.959 . S
C509 C507 1.561 . S
C510 C507 1.526 . S
C510 C511 1.396 . S
C510 C515 1.390 . S
C511 C505 1.465 . S
C511 C510 1.396 . S
C511 C512 1.399 . S
C512 H498 0.929 . S
C512 C511 1.399 . S
C512 C513 1.389 . S
C513 H499 0.926 1_554 S
C513 C512 1.389 . S
C513 C514 1.390 . S
C514 C513 1.390 . S
C514 C515 1.387 . S
C515 H500 0.930 . S
C515 C510 1.390 . S
C515 C514 1.387 . S
H516 C528 0.930 . S
H517 C530 0.930 . S
H518 C531 0.930 . S
H519 C535 0.959 . S
H520 C535 0.959 . S
H521 C535 0.961 . S
H522 C536 0.960 . S
H523 C536 0.961 . S
H524 C536 0.959 . S
H525 C539 0.929 . S
H526 C540 0.931 . S
H527 C542 0.930 . S
C528 H516 0.930 . S
C528 C529 1.399 . S
C528 C533 1.399 . S
C529 C528 1.399 . S
C529 C530 1.376 . S
C530 H517 0.930 . S
C530 C529 1.376 . S
C530 C531 1.388 . S
C531 H518 0.930 . S
C531 C530 1.388 . S
C531 C532 1.390 . S
C532 C531 1.390 . S
C532 C533 1.394 . S
C532 C538 1.465 . S
C533 C528 1.399 . S
C533 C532 1.394 . S
C533 C534 1.516 . S
C534 C533 1.516 . S
C534 C535 1.502 . S
C534 C536 1.561 . S
C534 C537 1.526 . S
C535 H519 0.959 . S
C535 H520 0.959 . S
C535 H521 0.961 . S
C535 C534 1.502 . S
C536 H522 0.960 . S
C536 H523 0.961 . S
C536 H524 0.959 . S
C536 C534 1.561 . S
C537 C534 1.526 . S
C537 C538 1.396 . S
C537 C542 1.390 . S
C538 C532 1.465 . S
C538 C537 1.396 . S
C538 C539 1.399 . S
C539 H525 0.929 . S
C539 C538 1.399 . S
C539 C540 1.385 . S
C540 H526 0.931 . S
C540 C539 1.385 . S
C540 C541 1.389 . S
C541 C540 1.389 . S
C541 C542 1.387 . S
C542 H527 0.930 . S
C542 C537 1.390 . S
C542 C541 1.387 . S
H543 C555 0.930 . S
H544 C557 0.930 . S
H545 C558 0.930 . S
H546 C562 0.959 . S
H547 C562 0.959 . S
H548 C562 0.961 . S
H549 C563 0.960 . S
H550 C563 0.961 . S
H551 C563 0.959 . S
H552 C566 0.929 . S
H553 C567 0.931 . S
H554 C569 0.930 . S
C555 H543 0.930 . S
C555 C556 1.399 . S
C555 C560 1.399 . S
C556 C555 1.399 . S
C556 C557 1.376 . S
C557 H544 0.930 . S
C557 C556 1.376 . S
C557 C558 1.388 . S
C558 H545 0.930 . S
C558 C557 1.388 . S
C558 C559 1.390 . S
C559 C558 1.390 . S
C559 C560 1.394 . S
C559 C565 1.465 . S
C560 C555 1.399 . S
C560 C559 1.394 . S
C560 C561 1.516 . S
C561 C560 1.516 . S
C561 C562 1.502 . S
C561 C563 1.561 . S
C561 C564 1.526 . S
C562 H546 0.959 . S
C562 H547 0.959 . S
C562 H548 0.961 . S
C562 C561 1.502 . S
C563 H549 0.960 . S
C563 H550 0.961 . S
C563 H551 0.959 . S
C563 C561 1.561 . S
C564 C561 1.526 . S
C564 C565 1.396 . S
C564 C569 1.390 . S
C565 C559 1.465 . S
C565 C564 1.396 . S
C565 C566 1.399 . S
C566 H552 0.929 . S
C566 C565 1.399 . S
C566 C567 1.385 . S
C567 H553 0.931 . S
C567 C566 1.385 . S
C567 C568 1.389 . S
C568 C567 1.389 . S
C568 C569 1.387 . S
C569 H554 0.930 . S
C569 C564 1.390 . S
C569 C568 1.387 . S
H570 C582 0.930 . S
H571 C584 0.930 1_554 S
H572 C585 0.930 . S
H573 C589 0.959 . S
H574 C589 0.959 . S
H575 C589 0.961 . S
H576 C590 0.960 . S
H577 C590 0.961 . S
H578 C590 0.959 . S
H579 C593 0.929 . S
H580 C594 0.931 . S
H581 C596 0.930 . S
C582 H570 0.930 . S
C582 C583 1.399 . S
C582 C587 1.399 . S
C583 C582 1.399 . S
C583 C584 1.376 . S
C584 H571 0.930 1_556 S
C584 C583 1.376 . S
C584 C585 1.388 . S
C585 H572 0.930 . S
C585 C584 1.388 . S
C585 C586 1.390 . S
C586 C585 1.390 . S
C586 C587 1.394 . S
C586 C592 1.465 . S
C587 C582 1.399 . S
C587 C586 1.394 . S
C587 C588 1.516 . S
C588 C587 1.516 . S
C588 C589 1.502 . S
C588 C590 1.561 . S
C588 C591 1.526 . S
C589 H573 0.959 . S
C589 H574 0.959 . S
C589 H575 0.961 . S
C589 C588 1.502 . S
C590 H576 0.960 . S
C590 H577 0.961 . S
C590 H578 0.959 . S
C590 C588 1.561 . S
C591 C588 1.526 . S
C591 C592 1.396 . S
C591 C596 1.390 . S
C592 C586 1.465 . S
C592 C591 1.396 . S
C592 C593 1.399 . S
C593 H579 0.929 . S
C593 C592 1.399 . S
C593 C594 1.385 . S
C594 H580 0.931 . S
C594 C593 1.385 . S
C594 C595 1.389 . S
C595 C594 1.389 . S
C595 C596 1.387 . S
C596 H581 0.930 . S
C596 C591 1.390 . S
C596 C595 1.387 . S
H597 C609 0.930 . S
H598 C611 0.930 . S
H599 C612 0.930 . S
H600 C616 0.959 . S
H601 C616 0.959 . S
H602 C616 0.961 . S
H603 C617 0.960 . S
H604 C617 0.961 . S
H605 C617 0.959 . S
H606 C620 0.929 . S
H607 C621 0.931 . S
H608 C623 0.930 . S
C609 H597 0.930 . S
C609 C610 1.399 . S
C609 C614 1.399 . S
C610 C609 1.399 . S
C610 C611 1.376 . S
C611 H598 0.930 . S
C611 C610 1.376 . S
C611 C612 1.388 . S
C612 H599 0.930 . S
C612 C611 1.388 . S
C612 C613 1.390 . S
C613 C612 1.390 . S
C613 C614 1.394 . S
C613 C619 1.465 . S
C614 C609 1.399 . S
C614 C613 1.394 . S
C614 C615 1.516 . S
C615 C614 1.516 . S
C615 C616 1.502 . S
C615 C617 1.561 . S
C615 C618 1.526 . S
C616 H600 0.959 . S
C616 H601 0.959 . S
C616 H602 0.961 . S
C616 C615 1.502 . S
C617 H603 0.960 . S
C617 H604 0.961 . S
C617 H605 0.959 . S
C617 C615 1.561 . S
C618 C615 1.526 . S
C618 C619 1.396 . S
C618 C623 1.390 . S
C619 C613 1.465 . S
C619 C618 1.396 . S
C619 C620 1.399 . S
C620 H606 0.929 . S
C620 C619 1.399 . S
C620 C621 1.385 . S
C621 H607 0.931 . S
C621 C620 1.385 . S
C621 C622 1.389 . S
C622 C621 1.389 . S
C622 C623 1.387 . S
C623 H608 0.930 . S
C623 C618 1.390 . S
C623 C622 1.387 . S
H624 C636 0.930 . S
H625 C638 0.930 . S
H626 C639 0.930 . S
H627 C643 0.959 . S
H628 C643 0.959 . S
H629 C643 0.961 . S
H630 C644 0.960 . S
H631 C644 0.961 . S
H632 C644 0.959 . S
H633 C647 0.929 . S
H634 C648 0.931 . S
H635 C650 0.930 . S
C636 H624 0.930 . S
C636 C637 1.399 . S
C636 C641 1.399 . S
C637 C636 1.399 . S
C637 C638 1.376 . S
C638 H625 0.930 . S
C638 C637 1.376 . S
C638 C639 1.388 . S
C639 H626 0.930 . S
C639 C638 1.388 . S
C639 C640 1.390 . S
C640 C639 1.390 . S
C640 C641 1.394 . S
C640 C646 1.465 . S
C641 C636 1.399 . S
C641 C640 1.394 . S
C641 C642 1.516 . S
C642 C641 1.516 . S
C642 C643 1.502 . S
C642 C644 1.561 . S
C642 C645 1.526 . S
C643 H627 0.959 . S
C643 H628 0.959 . S
C643 H629 0.961 . S
C643 C642 1.502 . S
C644 H630 0.960 . S
C644 H631 0.961 . S
C644 H632 0.959 . S
C644 C642 1.561 . S
C645 C642 1.526 . S
C645 C646 1.396 . S
C645 C650 1.390 . S
C646 C640 1.465 . S
C646 C645 1.396 . S
C646 C647 1.399 . S
C647 H633 0.929 . S
C647 C646 1.399 . S
C647 C648 1.385 . S
C648 H634 0.931 . S
C648 C647 1.385 . S
C648 C649 1.389 . S
C649 C648 1.389 . S
C649 C650 1.387 . S
C650 H635 0.930 . S
C650 C645 1.390 . S
C650 C649 1.387 . S
H651 C663 0.930 . S
H652 C665 0.930 . S
H653 C666 0.930 . S
H654 C670 0.959 . S
H655 C670 0.959 . S
H656 C670 0.961 . S
H657 C671 0.960 1_554 S
H658 C671 0.961 . S
H659 C671 0.959 . S
H660 C674 0.929 . S
H661 C675 0.931 . S
H662 C677 0.930 . S
C663 H651 0.930 . S
C663 C664 1.399 . S
C663 C668 1.399 . S
C664 C663 1.399 . S
C664 C665 1.376 . S
C665 H652 0.930 . S
C665 C664 1.376 . S
C665 C666 1.388 . S
C666 H653 0.930 . S
C666 C665 1.388 . S
C666 C667 1.390 . S
C667 C666 1.390 . S
C667 C668 1.394 . S
C667 C673 1.465 . S
C668 C663 1.399 . S
C668 C667 1.394 . S
C668 C669 1.516 . S
C669 C668 1.516 . S
C669 C670 1.502 . S
C669 C671 1.561 . S
C669 C672 1.526 . S
C670 H654 0.959 . S
C670 H655 0.959 . S
C670 H656 0.961 . S
C670 C669 1.502 . S
C671 H657 0.960 1_556 S
C671 H658 0.961 . S
C671 H659 0.959 . S
C671 C669 1.561 . S
C672 C669 1.526 . S
C672 C673 1.396 . S
C672 C677 1.390 . S
C673 C667 1.465 . S
C673 C672 1.396 . S
C673 C674 1.399 . S
C674 H660 0.929 . S
C674 C673 1.399 . S
C674 C675 1.385 . S
C675 H661 0.931 . S
C675 C674 1.385 . S
C675 C676 1.389 . S
C676 C675 1.389 . S
C676 C677 1.387 . S
C677 H662 0.930 . S
C677 C672 1.390 . S
C677 C676 1.387 . S
C205 C166 1.443 . S
C217 C6 1.469 . S
C232 C2 1.484 . S
C244 C34 1.452 . S
C259 C38 1.480 . S
C271 C70 1.478 . S
C286 C66 1.444 . S
C298 C98 1.460 . S
C313 C134 1.445 . S
C325 C102 1.458 . S
C340 C162 1.468 . S
C352 C130 1.443 . S
C367 N13 1.094 . S
C379 N18 1.073 . S
C394 N50 1.091 . S
C406 N45 1.076 . S
C421 N77 1.069 . S
C433 N82 1.111 1_554 S
C448 N114 1.083 . S
C460 N109 1.107 . S
C475 N146 1.067 . S
C487 N141 1.125 . S
C502 N178 1.110 . S
C514 N173 1.068 1_554 S
C529 C4 1.513 . S
C541 C157 1.508 . S
C556 C61 1.570 . S
C568 C164 1.567 . S
C583 C29 1.533 . S
C595 C68 1.519 . S
C610 C36 1.556 . S
C622 C125 1.541 . S
C637 C132 1.568 . S
C649 C93 1.559 . S
C664 C100 1.553 . S
C676 C189 1.565 . S
