# Generated by pormake.
# Topology unf, (4)-cn, num edge types: 1
# Building blocks:
#     Node 0, Type 0, BuildingBlock: AZAVOO_clean_sbu_0, # of connection points: 4
#     Node 1, Type 0, BuildingBlock: AZAVOO_clean_sbu_0, # of connection points: 4
#     Node 2, Type 0, BuildingBlock: AZAVOO_clean_sbu_0, # of connection points: 4
#     Node 3, Type 0, BuildingBlock: AZAVOO_clean_sbu_0, # of connection points: 4
#     Node 4, Type 0, BuildingBlock: AZAVOO_clean_sbu_0, # of connection points: 4
#     Node 5, Type 0, BuildingBlock: AZAVOO_clean_sbu_0, # of connection points: 4
#     Node 6, Type 0, BuildingBlock: AZAVOO_clean_sbu_0, # of connection points: 4
#     Node 7, Type 0, BuildingBlock: AZAVOO_clean_sbu_0, # of connection points: 4
#     Node 8, Type 0, BuildingBlock: AZAVOO_clean_sbu_0, # of connection points: 4
#     Node 9, Type 0, BuildingBlock: AZAVOO_clean_sbu_0, # of connection points: 4
#     Node 10, Type 0, BuildingBlock: AZAVOO_clean_sbu_0, # of connection points: 4
#     Node 11, Type 0, BuildingBlock: AZAVOO_clean_sbu_0, # of connection points: 4
#     Edge 12, Type (0, 0), BuildingBlock: TEMPAE_clean_linker_10, # of connection points: 2
#     Edge 13, Type (0, 0), BuildingBlock: TEMPAE_clean_linker_10, # of connection points: 2
#     Edge 14, Type (0, 0), BuildingBlock: TEMPAE_clean_linker_10, # of connection points: 2
#     Edge 15, Type (0, 0), BuildingBlock: TEMPAE_clean_linker_10, # of connection points: 2
#     Edge 16, Type (0, 0), BuildingBlock: TEMPAE_clean_linker_10, # of connection points: 2
#     Edge 17, Type (0, 0), BuildingBlock: TEMPAE_clean_linker_10, # of connection points: 2
#     Edge 18, Type (0, 0), BuildingBlock: TEMPAE_clean_linker_10, # of connection points: 2
#     Edge 19, Type (0, 0), BuildingBlock: TEMPAE_clean_linker_10, # of connection points: 2
#     Edge 20, Type (0, 0), BuildingBlock: TEMPAE_clean_linker_10, # of connection points: 2
#     Edge 21, Type (0, 0), BuildingBlock: TEMPAE_clean_linker_10, # of connection points: 2
#     Edge 22, Type (0, 0), BuildingBlock: TEMPAE_clean_linker_10, # of connection points: 2
#     Edge 23, Type (0, 0), BuildingBlock: TEMPAE_clean_linker_10, # of connection points: 2
#     Edge 24, Type (0, 0), BuildingBlock: TEMPAE_clean_linker_10, # of connection points: 2
#     Edge 25, Type (0, 0), BuildingBlock: TEMPAE_clean_linker_10, # of connection points: 2
#     Edge 26, Type (0, 0), BuildingBlock: TEMPAE_clean_linker_10, # of connection points: 2
#     Edge 27, Type (0, 0), BuildingBlock: TEMPAE_clean_linker_10, # of connection points: 2
#     Edge 28, Type (0, 0), BuildingBlock: TEMPAE_clean_linker_10, # of connection points: 2
#     Edge 29, Type (0, 0), BuildingBlock: TEMPAE_clean_linker_10, # of connection points: 2
#     Edge 30, Type (0, 0), BuildingBlock: TEMPAE_clean_linker_10, # of connection points: 2
#     Edge 31, Type (0, 0), BuildingBlock: TEMPAE_clean_linker_10, # of connection points: 2
#     Edge 32, Type (0, 0), BuildingBlock: TEMPAE_clean_linker_10, # of connection points: 2
#     Edge 33, Type (0, 0), BuildingBlock: TEMPAE_clean_linker_10, # of connection points: 2
#     Edge 34, Type (0, 0), BuildingBlock: TEMPAE_clean_linker_10, # of connection points: 2
#     Edge 35, Type (0, 0), BuildingBlock: TEMPAE_clean_linker_10, # of connection points: 2
# Relax obj value: 0.253
# Max RMSD: 0.199
# Mean RMSD: 0.199
data_MOF--net-unf--node1-AZAVOO_clean_sbu_0--edge1-TEMPAE_clean_linker_10
_symmetry_space_group_name_H-M    P1
_symmetry_Int_Tables_number       1
_symmetry_cell_setting            triclinic
loop_
_symmetry_equiv_pos_as_xyz
'x, y, z'
_cell_length_a     37.625413
_cell_length_b     37.9635
_cell_length_c     37.790038
_cell_angle_alpha  90.171753
_cell_angle_beta   89.764839
_cell_angle_gamma 119.95788
loop_
_atom_site_label
_atom_site_type_symbol
_atom_site_fract_x
_atom_site_fract_y
_atom_site_fract_z
_atom_type_partial_charge
Mg0 Mg 0.19662 0.4068 0.0423 0.0
O1 O 0.13456 0.34977 0.04814 0.0
O2 O 0.13906 0.29528 0.06285 0.0
Mg3 Mg 0.20825 0.32026 0.07024 0.0
C4 C 0.11795 0.31211 0.05544 0.0
C5 C 0.1591 0.45389 0.00565 0.0
O6 O 0.18079 0.45077 0.97977 0.0
O7 O 0.20023 0.41296 0.1029 0.0
O8 O 0.2082 0.35982 0.11594 0.0
O9 O 0.20412 0.38919 0.98661 0.0
O10 O 0.22477 0.37193 0.03455 0.0
C11 C 0.20534 0.39068 0.12536 0.0
C12 C 0.22105 0.37023 0.00077 0.0
O13 O 0.1612 0.44111 0.03623 0.0
Mg14 Mg 0.62222 0.74815 0.993 0.0
O15 O 0.67865 0.74107 0.99517 0.0
O16 O 0.7342 0.79863 0.01148 0.0
Mg17 Mg 0.71214 0.84456 0.02077 0.0
C18 C 0.71684 0.7614 0.00202 0.0
C19 C 0.57865 0.66171 0.95821 0.0
O20 O 0.58974 0.68455 0.92973 0.0
O21 O 0.61711 0.74706 0.05391 0.0
O22 O 0.67123 0.80771 0.0669 0.0
O23 O 0.63824 0.77269 0.93687 0.0
O24 O 0.65969 0.81029 0.98517 0.0
C25 C 0.63937 0.77472 0.07629 0.0
C26 C 0.66037 0.80796 0.95136 0.0
O27 O 0.58508 0.67865 0.98846 0.0
Mg28 Mg 0.27974 0.87501 0.09836 0.0
O29 O 0.29204 0.93973 0.09645 0.0
O30 O 0.23525 0.94333 0.10339 0.0
Mg31 Mg 0.18425 0.87729 0.11268 0.0
C32 C 0.27382 0.96027 0.09818 0.0
C33 C 0.36676 0.90583 0.06909 0.0
O34 O 0.34324 0.88538 0.04235 0.0
O35 O 0.27272 0.87175 0.15891 0.0
O36 O 0.21296 0.87095 0.16402 0.0
O37 O 0.26302 0.86717 0.0407 0.0
O38 O 0.21821 0.85238 0.08382 0.0
C39 C 0.24308 0.8692 0.17766 0.0
C40 C 0.22555 0.85429 0.05044 0.0
O41 O 0.34993 0.90424 0.0988 0.0
Mg42 Mg 0.55449 0.81394 0.40749 0.0
O43 O 0.61352 0.87392 0.41046 0.0
O44 O 0.66903 0.86742 0.40841 0.0
Mg45 Mg 0.64351 0.79832 0.40285 0.0
C46 C 0.65226 0.88942 0.41058 0.0
C47 C 0.50063 0.85128 0.42832 0.0
O48 O 0.49097 0.82351 0.45289 0.0
O49 O 0.56326 0.8099 0.34714 0.0
O50 O 0.61424 0.79558 0.34946 0.0
O51 O 0.55712 0.80558 0.46658 0.0
O52 O 0.58411 0.78356 0.4266 0.0
C53 C 0.58759 0.79989 0.33214 0.0
C54 C 0.57791 0.78773 0.45934 0.0
O55 O 0.52344 0.85266 0.40276 0.0
Mg56 Mg 0.09145 0.68834 0.45605 0.0
O57 O 0.02994 0.68817 0.45952 0.0
O58 O 0.03655 0.74885 0.44773 0.0
Mg59 Mg 0.09454 0.77608 0.41369 0.0
C60 C 0.01553 0.71238 0.45912 0.0
C61 C 0.03106 0.61115 0.49804 0.0
O62 O 0.02946 0.6399 0.51619 0.0
O63 O 0.08878 0.67354 0.39666 0.0
O64 O 0.0631 0.71279 0.3906 0.0
O65 O 0.11104 0.72551 0.50583 0.0
O66 O 0.12319 0.75277 0.45241 0.0
C67 C 0.08257 0.69695 0.37697 0.0
C68 C 0.12572 0.75772 0.48619 0.0
O69 O 0.05593 0.62115 0.47209 0.0
Mg70 Mg 0.21257 0.3915 0.46951 0.0
O71 O 0.21719 0.33517 0.45781 0.0
O72 O 0.15907 0.28527 0.43514 0.0
Mg73 Mg 0.11566 0.31144 0.43145 0.0
C74 C 0.19599 0.29934 0.4454 0.0
C75 C 0.29659 0.44172 0.50893 0.0
O76 O 0.2717 0.44202 0.53327 0.0
O77 O 0.22004 0.40681 0.41003 0.0
O78 O 0.15797 0.35889 0.39143 0.0
O79 O 0.18293 0.36641 0.52291 0.0
O80 O 0.14889 0.35634 0.47323 0.0
C81 C 0.19298 0.39024 0.38574 0.0
C82 C 0.14809 0.34978 0.50656 0.0
O83 O 0.28186 0.42507 0.47922 0.0
Mg84 Mg 0.90696 0.58005 0.91187 0.0
O85 O 0.9656 0.64333 0.91125 0.0
O86 O 0.95436 0.69236 0.89123 0.0
Mg87 Mg 0.89714 0.6547 0.85812 0.0
C88 C 0.97728 0.68092 0.90626 0.0
C89 C 0.9416 0.5203 0.93151 0.0
O90 O 0.90992 0.493 0.91351 0.0
O91 O 0.91261 0.56108 0.85507 0.0
O92 O 0.93239 0.62336 0.8427 0.0
O93 O 0.88598 0.60224 0.95757 0.0
O94 O 0.87125 0.60865 0.90216 0.0
C95 C 0.91339 0.58659 0.83301 0.0
C96 C 0.86962 0.61586 0.9353 0.0
O97 O 0.94673 0.55584 0.93511 0.0
Mg98 Mg 0.47779 0.27974 0.91824 0.0
O99 O 0.41642 0.27557 0.90769 0.0
O100 O 0.36638 0.21252 0.89667 0.0
Mg101 Mg 0.39862 0.17453 0.89703 0.0
C102 C 0.37907 0.25033 0.90076 0.0
C103 C 0.48828 0.36309 0.93691 0.0
O104 O 0.45652 0.33736 0.95584 0.0
O105 O 0.48685 0.27493 0.85843 0.0
O106 O 0.43905 0.20958 0.84986 0.0
O107 O 0.45984 0.26281 0.97522 0.0
O108 O 0.44707 0.21817 0.93273 0.0
C109 C 0.46822 0.24349 0.83867 0.0
C110 C 0.44307 0.2252 0.96538 0.0
O111 O 0.5066 0.34941 0.91764 0.0
Mg112 Mg 0.74809 0.1683 0.9818 0.0
O113 O 0.74939 0.11397 0.95762 0.0
O114 O 0.80406 0.13372 0.92272 0.0
Mg115 Mg 0.84044 0.20349 0.92638 0.0
C116 C 0.77093 0.10584 0.9366 0.0
C117 C 0.65336 0.1326 0.00311 0.0
O118 O 0.66027 0.16913 0.99503 0.0
O119 O 0.72798 0.1811 0.9279 0.0
O120 O 0.78827 0.20668 0.89955 0.0
O121 O 0.78735 0.16905 0.02719 0.0
O122 O 0.81196 0.20276 0.97744 0.0
C123 C 0.75099 0.19837 0.90106 0.0
C124 C 0.81886 0.19207 0.00768 0.0
O125 O 0.6822 0.12454 -0.00018 0.0
Mg126 Mg 0.39952 0.13155 0.51574 0.0
O127 O 0.34337 0.07131 0.53109 0.0
O128 O 0.29949 0.08063 0.56401 0.0
Mg129 Mg 0.32981 0.14931 0.57223 0.0
C130 C 0.30976 0.05734 0.54819 0.0
C131 C 0.45477 0.08785 0.50671 0.0
O132 O 0.47338 0.10716 0.5358 0.0
O133 O 0.42702 0.13884 0.57158 0.0
O134 O 0.38247 0.14998 0.60233 0.0
O135 O 0.36514 0.13794 0.46963 0.0
O136 O 0.36606 0.16171 0.52305 0.0
C137 C 0.4143 0.14624 0.60059 0.0
C138 C 0.35278 0.15626 0.4911 0.0
O139 O 0.42685 0.09344 0.49364 0.0
Mg140 Mg 0.78406 0.22649 0.56693 0.0
O141 O 0.84489 0.22957 0.5786 0.0
O142 O 0.83641 0.16942 0.59474 0.0
Mg143 Mg 0.76657 0.12724 0.5973 0.0
C144 C 0.85949 0.20712 0.58794 0.0
C145 C 0.82174 0.31475 0.53555 0.0
O146 O 0.79912 0.29397 0.50846 0.0
O147 O 0.77162 0.22708 0.62622 0.0
O148 O 0.76198 0.16597 0.64175 0.0
O149 O 0.7849 0.20418 0.51178 0.0
O150 O 0.7565 0.16412 0.55786 0.0
C151 C 0.76377 0.19964 0.64937 0.0
C152 C 0.7661 0.16782 0.52487 0.0
O153 O 0.82037 0.29592 0.56376 0.0
Mg154 Mg 0.6713 0.55821 0.61063 0.0
O155 O 0.66818 0.61732 0.61276 0.0
O156 O 0.72904 0.67268 0.62259 0.0
Mg157 Mg 0.7608 0.64323 0.65154 0.0
C158 C 0.69124 0.65593 0.61391 0.0
C159 C 0.59307 0.54105 0.57112 0.0
O160 O 0.6223 0.57245 0.55425 0.0
O161 O 0.65956 0.54296 0.66999 0.0
O162 O 0.69833 0.60762 0.67729 0.0
O163 O 0.70486 0.57946 0.5594 0.0
O164 O 0.73698 0.5932 0.61082 0.0
C165 C 0.68461 0.57213 0.68945 0.0
C166 C 0.73895 0.59716 0.57689 0.0
O167 O 0.60287 0.52538 0.59634 0.0
C168 C 0.25831 0.33166 0.99669 0.0
C169 C 0.2364 0.34761 0.97963 0.0
C170 C 0.27653 0.3132 0.97763 0.0
C171 C 0.27295 0.31054 0.94034 0.0
C172 C 0.24966 0.32521 0.92286 0.0
C173 C 0.23173 0.3438 0.94275 0.0
C174 C 0.30121 0.29815 -0.00255 0.0
C175 C 0.24496 0.32262 0.88316 0.0
C176 C 0.36424 0.30744 0.90303 0.0
C177 C 0.34951 0.2654 0.90192 0.0
C178 C 0.33844 0.32277 0.91217 0.0
C179 C 0.29676 0.29541 0.92025 0.0
C180 C 0.28073 0.25309 0.91555 0.0
C181 C 0.30736 0.23851 0.90647 0.0
C182 C 0.35689 0.36813 0.91669 0.0
C183 C 0.23631 0.22298 0.92334 0.0
H184 H 0.26256 0.33478 0.02508 0.0
H185 H 0.21486 0.35606 0.92937 0.0
H186 H 0.29038 0.26591 0.9907 0.0
H187 H 0.33396 0.31611 0.98954 0.0
H188 H 0.29916 0.3006 0.0266 0.0
H189 H 0.22105 0.32958 0.8742 0.0
H190 H 0.27453 0.34464 0.87063 0.0
H191 H 0.23696 0.29187 0.8736 0.0
H192 H 0.39662 0.32855 0.89883 0.0
H193 H 0.29557 0.206 0.90531 0.0
H194 H 0.3601 0.37562 0.94533 0.0
H195 H 0.33665 0.37853 0.90517 0.0
H196 H 0.38768 0.3854 0.90417 0.0
H197 H 0.23171 0.21932 0.95241 0.0
H198 H 0.22679 0.19268 0.91162 0.0
H199 H 0.21602 0.23403 0.91311 0.0
C200 C 0.72459 0.87296 0.94268 0.0
C201 C 0.68496 0.84546 0.93098 0.0
C202 C 0.74286 0.91442 0.93475 0.0
C203 C 0.7209 0.92837 0.91433 0.0
C204 C 0.68355 0.89977 0.89809 0.0
C205 C 0.66575 0.85835 0.90681 0.0
C206 C 0.78301 0.94362 0.95223 0.0
C207 C 0.66 0.91331 0.87502 0.0
C208 C 0.72752 0.03229 0.95102 0.0
C209 C 0.75714 0.06253 0.92911 0.0
C210 C 0.71491 0.98321 0.94573 0.0
C211 C 0.73179 0.97172 0.9174 0.0
C212 C 0.7606 0.00985 0.8943 0.0
C213 C 0.77336 0.05104 0.90069 0.0
C214 C 0.68433 0.9522 0.9713 0.0
C215 C 0.77873 -0.00115 0.86342 0.0
H216 H 0.73985 0.86261 0.96062 0.0
H217 H 0.63509 0.83697 0.89765 0.0
H218 H 0.80349 0.96787 0.9336 0.0
H219 H 0.77697 0.95845 0.97501 0.0
H220 H 0.79923 0.92793 0.96217 0.0
H221 H 0.63735 0.88804 0.8582 0.0
H222 H 0.64312 0.92397 0.89202 0.0
H223 H 0.68109 0.93899 0.85779 0.0
H224 H 0.7148 0.04077 0.97305 0.0
H225 H 0.79599 0.07419 0.88342 0.0
H226 H 0.69836 0.93633 0.98501 0.0
H227 H 0.65712 0.92891 0.95675 0.0
H228 H 0.67378 0.96617 0.99163 0.0
H229 H 0.80313 0.98504 0.87308 0.0
H230 H 0.79256 0.02373 0.8436 0.0
H231 H 0.75514 0.96273 0.85017 0.0
C232 C 0.19875 0.83717 0.98842 0.0
C233 C 0.19156 0.83921 0.02462 0.0
C234 C 0.16592 0.81663 0.96476 0.0
C235 C 0.12515 0.79765 0.97774 0.0
C236 C 0.1178 0.80201 0.0138 0.0
C237 C 0.15107 0.82275 0.03676 0.0
C238 C 0.17493 0.8131 0.92637 0.0
C239 C 0.07479 0.78231 0.02874 0.0
C240 C 0.03035 0.75342 0.91957 0.0
C241 C 0.01757 0.71179 0.92079 0.0
C242 C 0.06658 0.78223 0.93647 0.0
C243 C 0.09034 0.76901 0.95513 0.0
C244 C 0.07859 0.7273 0.95505 0.0
C245 C 0.04249 0.69929 0.93783 0.0
C246 C 0.07841 0.82651 0.93569 0.0
C247 C 0.10306 0.71189 0.97465 0.0
H248 H 0.22996 0.85 0.9788 0.0
H249 H 0.14515 0.82423 0.06464 0.0
H250 H 0.16862 0.78175 0.92098 0.0
H251 H 0.15475 0.8188 0.90885 0.0
H252 H 0.20743 0.83468 0.91938 0.0
H253 H 0.07419 0.79197 0.05641 0.0
H254 H 0.05514 0.78982 0.01229 0.0
H255 H 0.06105 0.74876 0.02832 0.0
H256 H 0.01149 0.76346 0.9063 0.0
H257 H 0.03322 0.66729 0.9387 0.0
H258 H 0.11141 0.84581 0.92905 0.0
H259 H 0.07361 0.8359 0.96229 0.0
H260 H 0.06 0.83252 0.91626 0.0
H261 H 0.13571 0.72897 0.96638 0.0
H262 H 0.09125 0.67896 0.97006 0.0
H263 H 0.10194 0.7169 0.00348 0.0
C264 C 0.63168 0.66274 0.59412 0.0
C265 C 0.6739 0.68109 0.60104 0.0
C266 C 0.61539 0.68374 0.57623 0.0
C267 C 0.64191 0.72419 0.56506 0.0
C268 C 0.68393 0.74398 0.57447 0.0
C269 C 0.69948 0.72218 0.59238 0.0
C270 C 0.57038 0.66144 0.56679 0.0
C271 C 0.71316 0.78713 0.5631 0.0
C272 C 0.6135 0.75027 0.47705 0.0
C273 C 0.59545 0.77341 0.48705 0.0
C274 C 0.62946 0.73503 0.50221 0.0
C275 C 0.62717 0.7428 0.53853 0.0
C276 C 0.60933 0.76644 0.54899 0.0
C277 C 0.59357 0.78148 0.52305 0.0
C278 C 0.64799 0.70977 0.48983 0.0
C279 C 0.6063 0.77517 0.58751 0.0
H280 H 0.61144 0.6312 0.6012 0.0
H281 H 0.73205 0.73673 0.59783 0.0
H282 H 0.55637 0.68047 0.57278 0.0
H283 H 0.56694 0.65497 0.53797 0.0
H284 H 0.55303 0.63212 0.58116 0.0
H285 H 0.74288 0.80029 0.57733 0.0
H286 H 0.71929 0.78764 0.5343 0.0
H287 H 0.6995 0.80675 0.56772 0.0
H288 H 0.61457 0.74327 0.4494 0.0
H289 H 0.57957 0.79926 0.53096 0.0
H290 H 0.62989 0.67842 0.50043 0.0
H291 H 0.67972 0.7228 0.5 0.0
H292 H 0.64889 0.70796 0.46052 0.0
H293 H 0.58601 0.74634 0.60162 0.0
H294 H 0.59391 0.79607 0.59117 0.0
H295 H 0.63693 0.78884 0.60013 0.0
C296 C 0.15836 0.806 0.53698 0.0
C297 C 0.1463 0.79921 0.50139 0.0
C298 C 0.18273 0.84574 0.55008 0.0
C299 C 0.19486 0.87924 0.52704 0.0
C300 C 0.1809 0.87249 0.49164 0.0
C301 C 0.15707 0.83264 0.47924 0.0
C302 C 0.19716 0.8518 0.58796 0.0
C303 C 0.19275 0.90735 0.46626 0.0
C304 C 0.23957 0.9888 0.55672 0.0
C305 C 0.28107 0.01287 0.54777 0.0
C306 C 0.21127 0.94726 0.55212 0.0
C307 C 0.22493 0.92126 0.53851 0.0
C308 C 0.26719 0.93685 0.53159 0.0
C309 C 0.29469 0.97846 0.53617 0.0
C310 C 0.16645 0.93175 0.55971 0.0
C311 C 0.2831 0.91007 0.5174 0.0
H312 H 0.15024 0.7803 0.55424 0.0
H313 H 0.14794 0.82781 0.45173 0.0
H314 H 0.23057 0.86279 0.5885 0.0
H315 H 0.19233 0.87528 0.60103 0.0
H316 H 0.18111 0.82322 0.60353 0.0
H317 H 0.17655 0.89708 0.44053 0.0
H318 H 0.18577 0.93005 0.47798 0.0
H319 H 0.22627 0.92295 0.46115 0.0
H320 H 0.22879 0.01695 0.56583 0.0
H321 H 0.3268 -0.00151 0.52968 0.0
H322 H 0.15302 0.90303 0.57502 0.0
H323 H 0.14946 0.92504 0.53438 0.0
H324 H 0.16159 0.95425 0.57466 0.0
H325 H 0.2713 0.88203 0.53352 0.0
H326 H 0.31716 0.92581 0.51714 0.0
H327 H 0.272 0.90064 0.48994 0.0
C328 C 0.92986 0.2677 0.58942 0.0
C329 C 0.90468 0.22529 0.58814 0.0
C330 C 0.97218 0.28615 0.58333 0.0
C331 C 0.98973 0.26163 0.57536 0.0
C332 C 0.96511 0.21874 0.57709 0.0
C333 C 0.92278 0.20102 0.58362 0.0
C334 C -0.00267 0.33199 0.58223 0.0
C335 C 0.98264 0.19153 0.56883 0.0
C336 C 0.07191 0.30886 0.5051 0.0
C337 C 0.10825 0.32418 0.52469 0.0
C338 C 0.03344 0.28695 0.52122 0.0
C339 C 0.03087 0.28064 0.55822 0.0
C340 C 0.0673 0.29514 0.57829 0.0
C341 C 0.10572 0.31676 0.56124 0.0
C342 C 0.99546 0.27194 0.49863 0.0
C343 C 0.06571 0.28916 0.61782 0.0
H344 H 0.91622 0.28668 0.59361 0.0
H345 H 0.90357 0.16821 0.58285 0.0
H346 H 0.02704 0.34298 0.59595 0.0
H347 H 0.00415 0.34218 0.55429 0.0
H348 H 0.98093 0.34646 0.5946 0.0
H349 H 0.96201 0.15982 0.57785 0.0
H350 H 0.98695 0.19105 0.5398 0.0
H351 H 0.01309 0.2032 0.58138 0.0
H352 H 0.07321 0.31497 0.47706 0.0
H353 H 0.13363 0.32866 0.57662 0.0
H354 H 0.97878 0.28808 0.50615 0.0
H355 H 0.97439 0.23901 0.50309 0.0
H356 H 0.0028 0.27686 0.46994 0.0
H357 H 0.05511 0.30859 0.63072 0.0
H358 H 0.09618 0.2972 0.62883 0.0
H359 H 0.0434 0.25717 0.6248 0.0
C360 C 0.78449 0.76409 0.99425 0.0
C361 C 0.7416 0.74123 -0.00302 0.0
C362 C 0.80763 0.74529 0.98617 0.0
C363 C 0.7874 0.70264 0.98107 0.0
C364 C 0.74429 0.67927 0.98511 0.0
C365 C 0.72194 0.69883 0.99287 0.0
C366 C 0.85352 0.77122 0.98182 0.0
C367 C 0.72155 0.63366 0.98022 0.0
C368 C 0.8348 0.65577 0.9223 0.0
C369 C 0.85064 0.63994 0.9472 0.0
C370 C 0.81516 0.67718 0.933 0.0
C371 C 0.81082 0.68255 0.96954 0.0
C372 C 0.82719 0.66713 0.99483 0.0
C373 C 0.84706 0.64611 0.98335 0.0
C374 C 0.7983 0.69333 0.90517 0.0
C375 C 0.8228 0.67193 0.03401 0.0
H376 H 0.79992 0.79684 -0.00272 0.0
H377 H 0.68884 0.68082 0.99521 0.0
H378 H 0.86939 0.75951 -0.00131 0.0
H379 H 0.86214 0.76969 0.95398 0.0
H380 H 0.86487 0.80357 0.98875 0.0
H381 H 0.68833 0.61967 0.98642 0.0
H382 H 0.72482 0.62613 0.95244 0.0
H383 H 0.73494 0.61966 -0.00259 0.0
H384 H 0.83723 0.65103 0.89432 0.0
H385 H 0.85913 0.63389 0.00276 0.0
H386 H 0.81061 0.72639 0.90912 0.0
H387 H 0.76444 0.6782 0.90767 0.0
H388 H 0.80597 0.6883 0.87788 0.0
H389 H 0.83535 0.70448 0.04071 0.0
H390 H 0.83875 0.65972 0.05025 0.0
H391 H 0.78983 0.65577 0.04141 0.0
C392 C 0.40164 0.15097 0.97798 0.0
C393 C 0.41793 0.19114 0.98981 0.0
C394 C 0.37745 0.11799 0.00011 0.0
C395 C 0.36994 0.12516 0.03539 0.0
C396 C 0.38662 0.16559 0.0478 0.0
C397 C 0.41031 0.19821 0.02476 0.0
C398 C 0.36019 0.07535 0.98569 0.0
C399 C 0.37983 0.17432 0.08543 0.0
C400 C 0.27881 0.03242 0.07517 0.0
C401 C 0.29794 0.01214 0.08956 0.0
C402 C 0.30211 0.07101 0.05969 0.0
C403 C 0.34547 0.0898 0.05903 0.0
C404 C 0.36494 0.07101 0.07637 0.0
C405 C 0.34094 0.03234 0.09127 0.0
C406 C 0.28018 0.08988 0.04124 0.0
C407 C 0.41108 0.09019 0.07669 0.0
H408 H 0.408 0.14507 0.95134 0.0
H409 H 0.423 0.22917 0.03418 0.0
H410 H 0.37303 0.05908 0.00051 0.0
H411 H 0.32639 0.05805 0.98925 0.0
H412 H 0.36723 0.07507 0.95715 0.0
H413 H 0.3942 0.20743 0.09081 0.0
H414 H 0.3465 0.15971 0.09115 0.0
H415 H 0.39281 0.16112 0.10399 0.0
H416 H 0.24562 0.01703 0.07375 0.0
H417 H 0.35597 0.01706 0.10278 0.0
H418 H 0.28233 0.08701 0.01218 0.0
H419 H 0.29477 0.12276 0.04747 0.0
H420 H 0.24723 0.07487 0.04872 0.0
H421 H 0.42205 0.08841 0.0498 0.0
H422 H 0.42149 0.07472 0.09543 0.0
H423 H 0.42573 0.12282 0.08394 0.0
C424 C 0.05171 0.24804 0.0434 0.0
C425 C 0.07273 0.28814 0.05587 0.0
C426 C 0.00883 0.22752 0.03933 0.0
C427 C 0.98672 0.24738 0.04879 0.0
C428 C 0.00768 0.28672 0.06395 0.0
C429 C 0.05045 0.30679 0.06685 0.0
C430 C 0.98769 0.18591 0.02248 0.0
C431 C 0.98529 0.30875 0.07503 0.0
C432 C 0.89414 0.22977 0.99605 0.0
C433 C 0.86139 0.2043 0.01831 0.0
C434 C 0.93474 0.24229 0.00508 0.0
C435 C 0.94323 0.23025 0.03787 0.0
C436 C 0.91047 0.20466 0.06071 0.0
C437 C 0.86979 0.19167 0.05052 0.0
C438 C 0.96867 0.26939 0.97976 0.0
C439 C 0.91849 0.19209 0.09628 0.0
H440 H 0.06896 0.23363 0.03492 0.0
H441 H 0.06666 0.33762 0.07705 0.0
H442 H 0.95943 0.16498 0.03731 0.0
H443 H 0.97837 0.1883 0.99516 0.0
H444 H 0.00794 0.17243 0.02115 0.0
H445 H 0.00488 0.33609 0.09129 0.0
H446 H 0.97551 0.31859 0.05116 0.0
H447 H 0.95727 0.28828 0.09036 0.0
H448 H 0.88833 0.24072 0.97161 0.0
H449 H 0.8447 0.17225 0.06801 0.0
H450 H 0.98939 0.25695 0.97485 0.0
H451 H 0.98736 0.30006 0.99156 0.0
H452 H 0.95666 0.27273 0.95394 0.0
H453 H 0.9384 0.17843 0.09325 0.0
H454 H 0.88969 0.16992 0.1099 0.0
H455 H 0.93509 0.21931 0.1134 0.0
C456 C 0.31217 0.16828 0.44463 0.0
C457 C 0.3242 0.17043 0.48005 0.0
C458 C 0.28805 0.18519 0.43396 0.0
C459 C 0.27531 0.20413 0.45943 0.0
C460 C 0.28596 0.2048 0.49536 0.0
C461 C 0.31066 0.18855 0.50506 0.0
C462 C 0.27777 0.18442 0.39532 0.0
C463 C 0.27273 0.22429 0.52352 0.0
C464 C 0.25811 0.29216 0.44094 0.0
C465 C 0.21531 0.27367 0.44354 0.0
C466 C 0.27781 0.26921 0.44313 0.0
C467 C 0.2542 0.22674 0.44877 0.0
C468 C 0.21081 0.20753 0.44945 0.0
C469 C 0.1918 0.23125 0.44651 0.0
C470 C 0.32411 0.29088 0.44168 0.0
C471 C 0.1846 0.16242 0.45582 0.0
H472 H 0.32268 0.15457 0.42506 0.0
H473 H 0.32022 0.19122 0.53231 0.0
H474 H 0.24462 0.17363 0.39198 0.0
H475 H 0.2949 0.21572 0.38447 0.0
H476 H 0.28581 0.16464 0.37954 0.0
H477 H 0.28011 0.21871 0.55064 0.0
H478 H 0.28838 0.25762 0.51918 0.0
H479 H 0.23922 0.21251 0.52195 0.0
H480 H 0.27641 0.3249 0.43803 0.0
H481 H 0.15869 0.21683 0.44846 0.0
H482 H 0.33459 0.27457 0.42388 0.0
H483 H 0.33632 0.29137 0.46847 0.0
H484 H 0.33751 0.32276 0.43235 0.0
H485 H 0.19501 0.14525 0.43906 0.0
H486 H 0.15167 0.15128 0.4504 0.0
H487 H 0.18767 0.15569 0.48383 0.0
C488 C 0.76998 0.13445 0.46839 0.0
C489 C 0.75654 0.13134 0.50353 0.0
C490 C 0.75892 0.09935 0.44801 0.0
C491 C 0.73377 0.06048 0.46319 0.0
C492 C 0.72094 0.05733 0.49885 0.0
C493 C 0.73236 0.09268 0.51845 0.0
C494 C 0.77315 0.10381 0.41007 0.0
C495 C 0.69392 0.01651 0.51611 0.0
C496 C 0.65923 0.9582 0.41333 0.0
C497 C 0.6774 0.93383 0.41675 0.0
C498 C 0.67896 0.00637 0.42562 0.0
C499 C 0.71795 0.02272 0.44169 0.0
C500 C 0.73807 -0.00041 0.44234 0.0
C501 C 0.71752 0.95129 0.42982 0.0
C502 C 0.65632 0.02986 0.42426 0.0
C503 C 0.7798 0.0161 0.45899 0.0
H504 H 0.78867 0.16422 0.45669 0.0
H505 H 0.72136 0.08984 0.5454 0.0
H506 H 0.78725 0.08466 0.40494 0.0
H507 H 0.74642 0.09306 0.39215 0.0
H508 H 0.79573 0.13583 0.40327 0.0
H509 H 0.68843 0.01934 0.54461 0.0
H510 H 0.66382 0.00061 0.5025 0.0
H511 H 0.70811 -0.00291 0.51362 0.0
H512 H 0.6285 0.94522 0.40267 0.0
H513 H 0.7319 0.9328 0.43234 0.0
H514 H 0.67701 0.06157 0.41547 0.0
H515 H 0.6451 0.0312 0.45117 0.0
H516 H 0.62949 0.0155 0.40623 0.0
H517 H 0.80049 0.04811 0.45093 0.0
H518 H 0.7943 -0.00224 0.45173 0.0
H519 H 0.77665 0.01567 0.48822 0.0
C520 C 0.95873 0.72443 0.47951 0.0
C521 C 0.97381 0.69769 0.47392 0.0
C522 C 0.92014 0.71094 0.49528 0.0
C523 C 0.89602 0.66972 0.50558 0.0
C524 C 0.91071 0.64242 0.49937 0.0
C525 C 0.94934 0.65671 0.48369 0.0
C526 C 0.90551 0.74093 0.50156 0.0
C527 C 0.88598 0.59819 0.50991 0.0
C528 C 0.81562 0.63755 0.5781 0.0
C529 C 0.77908 0.61971 0.55856 0.0
C530 C 0.85396 0.65527 0.56114 0.0
C531 C 0.85585 0.65509 0.52372 0.0
C532 C 0.81916 0.63849 0.50382 0.0
C533 C 0.7812 0.62104 0.52148 0.0
C534 C 0.89237 0.67282 0.58333 0.0
C535 C 0.81992 0.63764 0.46388 0.0
H536 H 0.97737 0.75612 0.47213 0.0
H537 H 0.96045 0.63564 0.47935 0.0
H538 H 0.87514 0.72989 0.48904 0.0
H539 H 0.90158 0.7437 0.53036 0.0
H540 H 0.92724 0.77158 0.49092 0.0
H541 H 0.90037 0.58032 0.50086 0.0
H542 H 0.88286 0.59577 0.53914 0.0
H543 H 0.85461 0.58423 0.49874 0.0
H544 H 0.81432 0.63672 0.60676 0.0
H545 H 0.75313 0.60736 0.50618 0.0
H546 H 0.91438 0.70428 0.57471 0.0
H547 H 0.90762 0.65448 0.57962 0.0
H548 H 0.88584 0.67329 0.61197 0.0
H549 H 0.84097 0.66848 0.45336 0.0
H550 H 0.78901 0.62641 0.45227 0.0
H551 H 0.83175 0.61755 0.45491 0.0
C552 C 0.24059 0.42403 0.33436 0.0
C553 C 0.2013 0.4065 0.34932 0.0
C554 C 0.24617 0.43135 0.2977 0.0
C555 C 0.21164 0.42089 0.27595 0.0
C556 C 0.17276 0.40724 0.29166 0.0
C557 C 0.1681 0.40019 0.32811 0.0
C558 C 0.28826 0.44671 0.28194 0.0
C559 C 0.1351 0.39584 0.26965 0.0
C560 C 0.21601 0.43799 0.17634 0.0
C561 C 0.20815 0.39996 0.16371 0.0
C562 C 0.21925 0.44626 0.21292 0.0
C563 C 0.21381 0.41555 0.23718 0.0
C564 C 0.20637 0.37739 0.22443 0.0
C565 C 0.2038 0.37018 0.18801 0.0
C566 C 0.22775 0.48746 0.22562 0.0
C567 C 0.19978 0.34348 0.24931 0.0
H568 H 0.2664 0.42934 0.35074 0.0
H569 H 0.13778 0.38755 0.33977 0.0
H570 H 0.29019 0.42076 0.2705 0.0
H571 H 0.29412 0.46862 0.26027 0.0
H572 H 0.3127 0.46157 0.30218 0.0
H573 H 0.14158 0.41923 0.24925 0.0
H574 H 0.12583 0.36675 0.25571 0.0
H575 H 0.10883 0.39193 0.2861 0.0
H576 H 0.21983 0.46129 0.15772 0.0
H577 H 0.19761 0.34064 0.17862 0.0
H578 H 0.25284 0.49985 0.2454 0.0
H579 H 0.20007 0.48456 0.23889 0.0
H580 H 0.23632 0.50953 0.20355 0.0
H581 H 0.22618 0.35402 0.26757 0.0
H582 H 0.19588 0.31616 0.23502 0.0
H583 H 0.172 0.33443 0.26569 0.0
C584 C 0.58558 0.74603 0.12425 0.0
C585 C 0.62653 0.77139 0.11389 0.0
C586 C 0.5727 0.74736 0.15905 0.0
C587 C 0.6015 0.77453 0.18394 0.0
C588 C 0.643 0.79939 0.17376 0.0
C589 C 0.65494 0.79746 0.13902 0.0
C590 C 0.52826 0.72023 0.16906 0.0
C591 C 0.67492 0.82834 0.19956 0.0
C592 C 0.5758 0.81162 0.26871 0.0
C593 C 0.58403 0.7898 0.29401 0.0
C594 C 0.5787 0.80516 0.2323 0.0
C595 C 0.58949 0.7759 0.2213 0.0
C596 C 0.59463 0.75176 0.24688 0.0
C597 C 0.59207 0.75917 0.28282 0.0
C598 C 0.57293 0.83145 0.20575 0.0
C599 C 0.60572 0.71997 0.23647 0.0
H600 H 0.56335 0.72612 0.10492 0.0
H601 H 0.6867 0.81704 0.13137 0.0
H602 H 0.52579 0.70085 0.19191 0.0
H603 H 0.51475 0.73907 0.17742 0.0
H604 H 0.50984 0.7003 0.14685 0.0
H605 H 0.70572 0.84624 0.18719 0.0
H606 H 0.66565 0.84978 0.21036 0.0
H607 H 0.67735 0.81113 0.2222 0.0
H608 H 0.56938 0.83515 0.2773 0.0
H609 H 0.59762 0.74159 0.30235 0.0
H610 H 0.55307 0.81269 0.18369 0.0
H611 H 0.60312 0.85361 0.19422 0.0
H612 H 0.55918 0.84856 0.21796 0.0
H613 H 0.63776 0.73517 0.22649 0.0
H614 H 0.58563 0.70052 0.21482 0.0
H615 H 0.60321 0.70021 0.25908 0.0
C616 C 0.21598 0.86513 0.23856 0.0
C617 C 0.23748 0.85439 0.21454 0.0
C618 C 0.19767 0.84172 0.26893 0.0
C619 C 0.20011 0.80618 0.27494 0.0
C620 C 0.22513 0.79749 0.25262 0.0
C621 C 0.24392 0.82202 0.22281 0.0
C622 C 0.17245 0.85292 0.29266 0.0
C623 C 0.22855 0.75992 0.25799 0.0
C624 C 0.15446 0.74821 0.36074 0.0
C625 C 0.11404 0.72108 0.35035 0.0
C626 C 0.18337 0.77556 0.33637 0.0
C627 C 0.17153 0.77526 0.30079 0.0
C628 C 0.13102 0.74672 0.29006 0.0
C629 C 0.10261 0.72036 0.31514 0.0
C630 C 0.22583 0.80598 0.34908 0.0
C631 C 0.11722 0.7449 0.25229 0.0
H632 H 0.21101 0.89019 0.23227 0.0
H633 H 0.26014 0.81332 0.20414 0.0
H634 H 0.13937 0.83206 0.28747 0.0
H635 H 0.17811 0.84961 0.32092 0.0
H636 H 0.17927 0.88459 0.28805 0.0
H637 H 0.25426 0.76112 0.24245 0.0
H638 H 0.23302 0.75578 0.28634 0.0
H639 H 0.1996 0.73282 0.2494 0.0
H640 H 0.16296 0.74914 0.38825 0.0
H641 H 0.07119 0.6996 0.30737 0.0
H642 H 0.23159 0.79935 0.3764 0.0
H643 H 0.22961 0.83689 0.34872 0.0
H644 H 0.24949 0.80643 0.33117 0.0
H645 H 0.11739 0.77344 0.24568 0.0
H646 H 0.08585 0.71891 0.24769 0.0
H647 H 0.13875 0.74217 0.23385 0.0
C648 C 0.8375 0.54693 0.82291 0.0
C649 C 0.87708 0.57423 0.8105 0.0
C650 C 0.80266 0.54105 0.8043 0.0
C651 C 0.80768 0.56247 0.77233 0.0
C652 C 0.84764 0.5883 0.75879 0.0
C653 C 0.88184 0.59428 0.77832 0.0
C654 C 0.76067 0.51388 0.81994 0.0
C655 C 0.85436 0.61112 0.72448 0.0
C656 C 0.72004 0.53399 0.70787 0.0
C657 C 0.71115 0.56528 0.71392 0.0
C658 C 0.75041 0.53167 0.72759 0.0
C659 C 0.77171 0.56083 0.75437 0.0
C660 C 0.761 0.59093 0.76196 0.0
C661 C 0.73124 0.59309 0.74133 0.0
C662 C 0.76136 0.49954 0.71834 0.0
C663 C 0.7823 0.62204 0.79084 0.0
H664 H 0.83376 0.53197 0.84816 0.0
H665 H 0.91248 0.61557 0.76891 0.0
H666 H 0.74745 0.53276 0.82902 0.0
H667 H 0.73964 0.49251 0.79969 0.0
H668 H 0.7617 0.49609 0.84281 0.0
H669 H 0.88696 0.62661 0.71584 0.0
H670 H 0.83515 0.59007 0.7032 0.0
H671 H 0.84498 0.6344 0.72773 0.0
H672 H 0.7049 0.51265 0.68645 0.0
H673 H 0.72431 0.61722 0.74606 0.0
H674 H 0.76233 0.48355 0.74251 0.0
H675 H 0.79243 0.5142 0.70627 0.0
H676 H 0.7393 0.47674 0.6994 0.0
H677 H 0.78256 0.60689 0.81583 0.0
H678 H 0.76738 0.6405 0.79595 0.0
H679 H 0.8147 0.64287 0.78319 0.0
C680 C 0.4608 0.25275 0.77498 0.0
C681 C 0.48086 0.24425 0.80177 0.0
C682 C 0.46092 0.24003 0.74008 0.0
C683 C 0.48129 0.21799 0.7321 0.0
C684 C 0.50495 0.21298 0.75851 0.0
C685 C 0.50413 0.2259 0.79323 0.0
C686 C 0.43566 0.24647 0.71265 0.0
C687 C 0.52768 0.19037 0.75111 0.0
C688 C 0.41936 0.13724 0.66451 0.0
C689 C 0.43895 0.15651 0.63302 0.0
C690 C 0.43523 0.15536 0.69737 0.0
C691 C 0.47118 0.19413 0.69861 0.0
C692 C 0.49327 0.2118 0.667 0.0
C693 C 0.47686 0.1926 0.6344 0.0
C694 C 0.41112 0.13485 0.73043 0.0
C695 C 0.53191 0.25277 0.66716 0.0
H696 H 0.44223 0.26629 0.78186 0.0
H697 H 0.5191 0.21879 0.81423 0.0
H698 H 0.45299 0.25741 0.68747 0.0
H699 H 0.40744 0.2171 0.7071 0.0
H700 H 0.42646 0.26868 0.72161 0.0
H701 H 0.55172 0.19726 0.77126 0.0
H702 H 0.50569 0.15718 0.75165 0.0
H703 H 0.54218 0.19799 0.72452 0.0
H704 H 0.38981 0.10952 0.66329 0.0
H705 H 0.49162 0.20786 0.60994 0.0
H706 H 0.39628 0.1518 0.74069 0.0
H707 H 0.43174 0.135 0.75139 0.0
H708 H 0.38687 0.1029 0.72541 0.0
H709 H 0.55005 0.25788 0.64252 0.0
H710 H 0.55142 0.25593 0.69025 0.0
H711 H 0.52361 0.27694 0.6692 0.0
C712 C 0.70197 0.17616 0.85075 0.0
C713 C 0.73513 0.20737 0.8689 0.0
C714 C 0.69789 0.17929 0.81407 0.0
C715 C 0.72799 0.21406 0.79571 0.0
C716 C 0.75742 0.248 0.81509 0.0
C717 C 0.76057 0.24421 0.85159 0.0
C718 C 0.6648 0.14327 0.79444 0.0
C719 C 0.78974 0.28595 0.79684 0.0
C720 C 0.77035 0.19118 0.71341 0.0
C721 C 0.75599 0.20594 0.68645 0.0
C722 C 0.76127 0.19376 0.74889 0.0
C723 C 0.73623 0.21068 0.75769 0.0
C724 C 0.72147 0.22564 0.73053 0.0
C725 C 0.73194 0.22347 0.69508 0.0
C726 C 0.77873 0.17838 0.77695 0.0
C727 C 0.69363 0.2426 0.73869 0.0
H728 H 0.68215 0.14772 0.86419 0.0
H729 H 0.78594 0.26854 0.86589 0.0
H730 H 0.65312 0.15333 0.77199 0.0
H731 H 0.67771 0.12486 0.78347 0.0
H732 H 0.63879 0.12353 0.81218 0.0
H733 H 0.80484 0.31197 0.8155 0.0
H734 H 0.81361 0.28007 0.78561 0.0
H735 H 0.77641 0.29461 0.77471 0.0
H736 H 0.78899 0.17767 0.70667 0.0
H737 H 0.72017 0.23417 0.67407 0.0
H738 H 0.75347 0.15311 0.79188 0.0
H739 H 0.79715 0.203 0.79611 0.0
H740 H 0.79859 0.16723 0.76557 0.0
H741 H 0.69067 0.25921 0.71577 0.0
H742 H 0.70484 0.26334 0.76184 0.0
H743 H 0.66266 0.21719 0.74552 0.0
C744 C 0.12846 0.48291 0.96449 0.0
C745 C 0.12909 0.46743 -0.00199 0.0
C746 C 0.09804 0.49236 0.95542 0.0
C747 C 0.0673 0.48612 0.98042 0.0
C748 C 0.06828 0.47144 0.01462 0.0
C749 C 0.09921 0.46234 0.02304 0.0
C750 C 0.09826 0.50815 0.91873 0.0
C751 C 0.03606 0.46435 0.04199 0.0
C752 C 0.00789 0.54107 0.96277 0.0
C753 C 0.97249 0.51073 0.94598 0.0
C754 C 0.03851 0.53323 0.97491 0.0
C755 C 0.03367 0.49406 0.97025 0.0
C756 C -0.00243 0.46301 0.95414 0.0
C757 C 0.96747 0.47173 0.94216 0.0
C758 C 0.07651 0.56718 0.99192 0.0
C759 C 0.99119 0.4208 0.94878 0.0
H760 H 0.15143 0.48705 0.94498 0.0
H761 H 0.09931 0.45021 0.04895 0.0
H762 H 0.06983 0.48645 0.90456 0.0
H763 H 0.09868 0.53754 0.9204 0.0
H764 H 0.12508 0.51265 0.90279 0.0
H765 H 0.04218 0.4546 0.06785 0.0
H766 H 0.03451 0.49251 0.04605 0.0
H767 H 0.00549 0.44056 0.0325 0.0
H768 H 0.01212 0.57132 0.96593 0.0
H769 H 0.94021 0.44804 0.92936 0.0
H770 H 0.10382 0.57428 0.97555 0.0
H771 H 0.0813 0.55756 0.01832 0.0
H772 H 0.07474 0.59537 0.99509 0.0
H773 H 0.01509 0.42212 0.93064 0.0
H774 H 0.96058 0.39953 0.93749 0.0
H775 H 0.99438 0.40831 0.97431 0.0
C776 C 0.56554 0.5954 0.98375 0.0
C777 C 0.56312 0.61743 0.95502 0.0
C778 C 0.55394 0.55417 0.98021 0.0
C779 C 0.5389 0.53426 0.94734 0.0
C780 C 0.5357 0.55616 0.91844 0.0
C781 C 0.54818 0.59755 0.92254 0.0
C782 C 0.55829 0.53204 0.01155 0.0
C783 C 0.51916 0.53589 0.88315 0.0
C784 C 0.54136 0.43671 0.92871 0.0
C785 C 0.50139 0.40694 0.93806 0.0
C786 C 0.55407 0.47833 0.9316 0.0
C787 C 0.52586 0.49034 0.94342 0.0
C788 C 0.48518 0.4603 0.952 0.0
C789 C 0.47359 0.41906 0.94953 0.0
C790 C 0.59786 0.50947 0.92264 0.0
C791 C 0.45389 0.47171 0.96397 0.0
H792 H 0.57751 0.61066 0.00881 0.0
H793 H 0.54622 0.61437 0.90023 0.0
H794 H 0.52796 0.50584 0.01873 0.0
H795 H 0.57866 0.51972 0.00454 0.0
H796 H 0.57111 0.55203 0.0351 0.0
H797 H 0.51788 0.55696 0.86352 0.0
H798 H 0.53869 0.52417 0.87229 0.0
H799 H 0.48783 0.50945 0.88656 0.0
H800 H 0.56298 0.42749 0.91995 0.0
H801 H 0.4425 0.3962 0.95648 0.0
H802 H 0.61303 0.52871 0.94614 0.0
H803 H 0.5985 0.52989 0.90141 0.0
H804 H 0.61597 0.49522 0.91378 0.0
H805 H 0.46445 0.49006 0.98858 0.0
H806 H 0.42332 0.44466 0.96904 0.0
H807 H 0.4505 0.49077 0.94356 0.0
C808 C 0.4358 0.9616 0.08952 0.0
C809 C 0.41087 0.93527 0.06272 0.0
C810 C 0.47626 0.00047 0.08228 0.0
C811 C 0.49198 0.0053 0.04739 0.0
C812 C 0.46727 0.97021 0.02049 0.0
C813 C 0.42721 0.93948 0.02851 0.0
C814 C 0.50184 0.02849 0.11176 0.0
C815 C 0.48271 0.97441 0.9829 0.0
C816 C 0.57894 0.10753 0.016 0.0
C817 C 0.61237 0.10078 0.01593 0.0
C818 C 0.53979 0.07708 0.02705 0.0
C819 C 0.53395 0.03904 0.03854 0.0
C820 C 0.56777 0.03241 0.03937 0.0
C821 C 0.60647 0.06324 0.02793 0.0
C822 C 0.50444 0.08526 0.0256 0.0
C823 C 0.56292 0.98443 0.05171 0.0
H824 H 0.42344 0.95871 0.11599 0.0
H825 H 0.40828 0.9194 0.00755 0.0
H826 H 0.53176 0.02946 0.11334 0.0
H827 H 0.5084 0.05985 0.1062 0.0
H828 H 0.48624 0.01895 0.13787 0.0
H829 H 0.45991 0.95042 0.96518 0.0
H830 H 0.49013 0.01253 0.97221 0.0
H831 H 0.51136 0.97284 0.98224 0.0
H832 H 0.58317 0.13642 0.00687 0.0
H833 H 0.63211 0.05777 0.02823 0.0
H834 H 0.48949 0.07988 0.05193 0.0
H835 H 0.48095 0.06393 0.00674 0.0
H836 H 0.51429 0.11687 0.01726 0.0
H837 H 0.54844 0.97671 0.07831 0.0
H838 H 0.59271 0.98502 0.05293 0.0
H839 H 0.54233 0.95975 0.03343 0.0
C840 C 0.46223 0.88003 0.45988 0.0
C841 C 0.49089 0.88431 0.43392 0.0
C842 C 0.45632 0.91263 0.46907 0.0
C843 C 0.47982 0.95068 0.45207 0.0
C844 C 0.50786 0.95487 0.425 0.0
C845 C 0.51298 0.92161 0.41616 0.0
C846 C 0.42587 0.90668 0.49788 0.0
C847 C 0.53363 0.00292 0.40632 0.0
C848 C 0.44037 0.03312 0.46209 0.0
C849 C 0.46361 0.05711 0.49077 0.0
C850 C 0.44619 0.00184 0.44848 0.0
C851 C 0.476 0.98627 0.46381 0.0
C852 C 0.50048 0.01921 0.49198 0.0
C853 C 0.49395 0.05024 0.50513 0.0
C854 C 0.41955 0.96806 0.41837 0.0
C855 C 0.53275 0.01231 0.50898 0.0
H856 H 0.44497 0.85133 0.47369 0.0
H857 H 0.53549 0.92537 0.39632 0.0
H858 H 0.44219 0.92663 0.52072 0.0
H859 H 0.40362 0.91551 0.48819 0.0
H860 H 0.4086 0.87472 0.5073 0.0
H861 H 0.55091 0.00016 0.38358 0.0
H862 H 0.51407 0.01506 0.39661 0.0
H863 H 0.55595 0.02548 0.4252 0.0
H864 H 0.41687 0.03813 0.4507 0.0
H865 H 0.5122 0.06864 0.52716 0.0
H866 H 0.39957 0.93637 0.4276 0.0
H867 H 0.43887 0.96709 0.39656 0.0
H868 H 0.39978 0.97958 0.40774 0.0
H869 H 0.51791 0.974 0.52184 0.0
H870 H 0.55081 0.03575 0.52921 0.0
H871 H 0.55413 0.01248 0.48859 0.0
C872 C 0.8831 0.37888 0.55668 0.0
C873 C 0.85122 0.35893 0.53213 0.0
C874 C 0.91291 0.42003 0.55239 0.0
C875 C 0.91053 0.44193 0.5231 0.0
C876 C 0.87793 0.4222 0.49865 0.0
C877 C 0.84884 0.38089 0.50334 0.0
C878 C 0.94738 0.43987 0.57885 0.0
C879 C 0.87403 0.44461 0.46731 0.0
C880 C 0.967 0.55746 0.52704 0.0
C881 C 0.00149 0.56784 0.50573 0.0
C882 C 0.93726 0.51667 0.53302 0.0
C883 C 0.94237 0.48538 0.51774 0.0
C884 C 0.97752 0.49563 0.49676 0.0
C885 C 0.00652 0.53674 0.49079 0.0
C886 C 0.89996 0.5071 0.5551 0.0
C887 C 0.98429 0.46314 0.48032 0.0
H888 H 0.88538 0.36209 0.57886 0.0
H889 H 0.82427 0.36574 0.4843 0.0
H890 H 0.97729 0.45098 0.56525 0.0
H891 H 0.94767 0.46668 0.59095 0.0
H892 H 0.94473 0.41872 0.60029 0.0
H893 H 0.84614 0.42528 0.45142 0.0
H894 H 0.87292 0.47186 0.47643 0.0
H895 H 0.90132 0.45538 0.44991 0.0
H896 H 0.96266 0.58129 0.53845 0.0
H897 H 0.03311 0.54453 0.47436 0.0
H898 H 0.89721 0.48712 0.57755 0.0
H899 H 0.87185 0.49034 0.53885 0.0
H900 H 0.90105 0.53492 0.56577 0.0
H901 H 0.98382 0.44233 0.5011 0.0
H902 H 0.0139 0.4761 0.46578 0.0
H903 H 0.95905 0.44459 0.46163 0.0
C904 C 0.35798 0.48083 0.54773 0.0
C905 C 0.3406 0.4577 0.51706 0.0
C906 C 0.3991 0.49463 0.55665 0.0
C907 C 0.42334 0.48468 0.53459 0.0
C908 C 0.40602 0.46147 0.50352 0.0
C909 C 0.36496 0.44847 0.49502 0.0
C910 C 0.41655 0.51972 0.58978 0.0
C911 C 0.43079 0.45006 0.4794 0.0
C912 C 0.53944 0.5496 0.53996 0.0
C913 C 0.54958 0.52603 0.56174 0.0
C914 C 0.49855 0.53656 0.53101 0.0
C915 C 0.46691 0.49882 0.54389 0.0
C916 C 0.4769 0.47477 0.56578 0.0
C917 C 0.51812 0.48877 0.57462 0.0
C918 C 0.48923 0.56343 0.50805 0.0
C919 C 0.44404 0.43422 0.57984 0.0
H920 H 0.33943 0.48817 0.56488 0.0
H921 H 0.35173 0.43039 0.47139 0.0
H922 H 0.4269 0.50394 0.60815 0.0
H923 H 0.4438 0.5494 0.58307 0.0
H924 H 0.39389 0.52543 0.60377 0.0
H925 H 0.41269 0.43148 0.45646 0.0
H926 H 0.45803 0.47792 0.46932 0.0
H927 H 0.44218 0.43262 0.4944 0.0
H928 H 0.56349 0.57865 0.53016 0.0
H929 H 0.52573 0.47041 0.59144 0.0
H930 H 0.47014 0.57308 0.52308 0.0
H931 H 0.47134 0.54632 0.48452 0.0
H932 H 0.51748 0.59104 0.49892 0.0
H933 H 0.4219 0.4384 0.59624 0.0
H934 H 0.4569 0.41893 0.59611 0.0
H935 H 0.42662 0.4139 0.55753 0.0
loop_
_geom_bond_atom_site_label_1
_geom_bond_atom_site_label_2
_geom_bond_distance
_geom_bond_site_symmetry_2
_ccdc_geom_bond_type
Mg0 O1 2.028 . S
Mg0 O7 1.986 . S
Mg0 O9 2.114 . S
Mg0 O10 2.251 . S
Mg0 O13 2.010 . S
O1 Mg0 2.028 . S
O1 C4 1.250 1_455 S
O2 Mg3 2.028 . S
O2 C4 1.248 1_455 S
Mg3 O2 2.028 . S
Mg3 O8 2.032 . S
Mg3 O10 2.079 . S
C4 O1 1.250 1_655 S
C4 O2 1.248 1_655 S
C5 O6 1.264 . S
C5 O13 1.249 . S
O6 C5 1.264 . S
O7 Mg0 1.986 . S
O7 C11 1.246 . S
O8 Mg3 2.032 . S
O8 C11 1.259 . S
O9 Mg0 2.114 . S
O9 C12 1.252 . S
O10 Mg0 2.251 . S
O10 Mg3 2.079 . S
O10 C12 1.273 . S
C11 O7 1.246 . S
C11 O8 1.259 . S
C12 O9 1.252 . S
C12 O10 1.273 . S
O13 Mg0 2.010 . S
O13 C5 1.249 . S
Mg14 O15 2.028 . S
Mg14 O21 1.986 . S
Mg14 O23 2.114 . S
Mg14 O24 2.251 . S
Mg14 O27 2.010 . S
O15 Mg14 2.028 . S
O15 C18 1.250 . S
O16 Mg17 2.028 . S
O16 C18 1.248 . S
Mg17 O16 2.028 . S
Mg17 O22 2.032 . S
Mg17 O24 2.079 . S
C18 O15 1.250 . S
C18 O16 1.248 . S
C19 O20 1.264 . S
C19 O27 1.249 . S
O20 C19 1.264 . S
O21 Mg14 1.986 . S
O21 C25 1.246 . S
O22 Mg17 2.032 . S
O22 C25 1.259 . S
O23 Mg14 2.114 . S
O23 C26 1.252 . S
O24 Mg14 2.251 . S
O24 Mg17 2.079 . S
O24 C26 1.273 . S
C25 O21 1.246 . S
C25 O22 1.259 . S
C26 O23 1.252 . S
C26 O24 1.273 . S
O27 Mg14 2.010 . S
O27 C19 1.249 . S
Mg28 O29 2.028 . S
Mg28 O35 1.986 . S
Mg28 O37 2.114 . S
Mg28 O38 2.251 . S
Mg28 O41 2.010 . S
O29 Mg28 2.028 . S
O29 C32 1.250 1_565 S
O30 Mg31 2.028 . S
O30 C32 1.248 1_565 S
Mg31 O30 2.028 . S
Mg31 O36 2.032 . S
Mg31 O38 2.079 . S
C32 O29 1.250 1_545 S
C32 O30 1.248 1_545 S
C33 O34 1.264 . S
C33 O41 1.249 . S
O34 C33 1.264 . S
O35 Mg28 1.986 . S
O35 C39 1.246 . S
O36 Mg31 2.032 . S
O36 C39 1.259 . S
O37 Mg28 2.114 . S
O37 C40 1.252 . S
O38 Mg28 2.251 . S
O38 Mg31 2.079 . S
O38 C40 1.273 . S
C39 O35 1.246 . S
C39 O36 1.259 . S
C40 O37 1.252 . S
C40 O38 1.273 . S
O41 Mg28 2.010 . S
O41 C33 1.249 . S
Mg42 O43 2.028 . S
Mg42 O49 1.986 . S
Mg42 O51 2.114 . S
Mg42 O52 2.251 . S
Mg42 O55 2.010 . S
O43 Mg42 2.028 . S
O43 C46 1.250 1_565 S
O44 Mg45 2.028 . S
O44 C46 1.248 1_565 S
Mg45 O44 2.028 . S
Mg45 O50 2.032 . S
Mg45 O52 2.079 . S
C46 O43 1.250 1_545 S
C46 O44 1.248 1_545 S
C47 O48 1.264 . S
C47 O55 1.249 . S
O48 C47 1.264 . S
O49 Mg42 1.986 . S
O49 C53 1.246 . S
O50 Mg45 2.032 . S
O50 C53 1.259 . S
O51 Mg42 2.114 . S
O51 C54 1.252 . S
O52 Mg42 2.251 . S
O52 Mg45 2.079 . S
O52 C54 1.273 . S
C53 O49 1.246 . S
C53 O50 1.259 . S
C54 O51 1.252 . S
C54 O52 1.273 . S
O55 Mg42 2.010 . S
O55 C47 1.249 . S
Mg56 O57 2.028 . S
Mg56 O63 1.986 . S
Mg56 O65 2.114 . S
Mg56 O66 2.251 . S
Mg56 O69 2.010 . S
O57 Mg56 2.028 . S
O57 C60 1.250 1_455 S
O58 Mg59 2.028 . S
O58 C60 1.248 1_455 S
Mg59 O58 2.028 . S
Mg59 O64 2.032 . S
Mg59 O66 2.079 . S
C60 O57 1.250 1_655 S
C60 O58 1.248 1_655 S
C61 O62 1.264 . S
C61 O69 1.249 . S
O62 C61 1.264 . S
O63 Mg56 1.986 . S
O63 C67 1.246 . S
O64 Mg59 2.032 . S
O64 C67 1.259 . S
O65 Mg56 2.114 . S
O65 C68 1.252 . S
O66 Mg56 2.251 . S
O66 Mg59 2.079 . S
O66 C68 1.273 . S
C67 O63 1.246 . S
C67 O64 1.259 . S
C68 O65 1.252 . S
C68 O66 1.273 . S
O69 Mg56 2.010 . S
O69 C61 1.249 . S
Mg70 O71 2.028 . S
Mg70 O77 1.986 . S
Mg70 O79 2.114 . S
Mg70 O80 2.251 . S
Mg70 O83 2.010 . S
O71 Mg70 2.028 . S
O71 C74 1.250 . S
O72 Mg73 2.028 . S
O72 C74 1.248 . S
Mg73 O72 2.028 . S
Mg73 O78 2.032 . S
Mg73 O80 2.079 . S
C74 O71 1.250 . S
C74 O72 1.248 . S
C75 O76 1.264 . S
C75 O83 1.249 . S
O76 C75 1.264 . S
O77 Mg70 1.986 . S
O77 C81 1.246 . S
O78 Mg73 2.032 . S
O78 C81 1.259 . S
O79 Mg70 2.114 . S
O79 C82 1.252 . S
O80 Mg70 2.251 . S
O80 Mg73 2.079 . S
O80 C82 1.273 . S
C81 O77 1.246 . S
C81 O78 1.259 . S
C82 O79 1.252 . S
C82 O80 1.273 . S
O83 Mg70 2.010 . S
O83 C75 1.249 . S
Mg84 O85 2.028 . S
Mg84 O91 1.986 . S
Mg84 O93 2.114 . S
Mg84 O94 2.251 . S
Mg84 O97 2.010 . S
O85 Mg84 2.028 . S
O85 C88 1.250 1_655 S
O86 Mg87 2.028 . S
O86 C88 1.248 1_655 S
Mg87 O86 2.028 . S
Mg87 O92 2.032 . S
Mg87 O94 2.079 . S
C88 O85 1.250 1_455 S
C88 O86 1.248 1_455 S
C89 O90 1.264 . S
C89 O97 1.249 . S
O90 C89 1.264 . S
O91 Mg84 1.986 . S
O91 C95 1.246 . S
O92 Mg87 2.032 . S
O92 C95 1.259 . S
O93 Mg84 2.114 . S
O93 C96 1.252 . S
O94 Mg84 2.251 . S
O94 Mg87 2.079 . S
O94 C96 1.273 . S
C95 O91 1.246 . S
C95 O92 1.259 . S
C96 O93 1.252 . S
C96 O94 1.273 . S
O97 Mg84 2.010 . S
O97 C89 1.249 . S
Mg98 O99 2.028 . S
Mg98 O105 1.986 . S
Mg98 O107 2.114 . S
Mg98 O108 2.251 . S
Mg98 O111 2.010 . S
O99 Mg98 2.028 . S
O99 C102 1.250 . S
O100 Mg101 2.028 . S
O100 C102 1.248 . S
Mg101 O100 2.028 . S
Mg101 O106 2.032 . S
Mg101 O108 2.079 . S
C102 O99 1.250 . S
C102 O100 1.248 . S
C103 O104 1.264 . S
C103 O111 1.249 . S
O104 C103 1.264 . S
O105 Mg98 1.986 . S
O105 C109 1.246 . S
O106 Mg101 2.032 . S
O106 C109 1.259 . S
O107 Mg98 2.114 . S
O107 C110 1.252 . S
O108 Mg98 2.251 . S
O108 Mg101 2.079 . S
O108 C110 1.273 . S
C109 O105 1.246 . S
C109 O106 1.259 . S
C110 O107 1.252 . S
C110 O108 1.273 . S
O111 Mg98 2.010 . S
O111 C103 1.249 . S
Mg112 O113 2.028 . S
Mg112 O119 1.986 . S
Mg112 O121 2.114 . S
Mg112 O122 2.251 . S
Mg112 O125 2.010 . S
O113 Mg112 2.028 . S
O113 C116 1.250 1_545 S
O114 Mg115 2.028 . S
O114 C116 1.248 1_545 S
Mg115 O114 2.028 . S
Mg115 O120 2.032 . S
Mg115 O122 2.079 . S
C116 O113 1.250 1_565 S
C116 O114 1.248 1_565 S
C117 O118 1.264 . S
C117 O125 1.249 . S
O118 C117 1.264 . S
O119 Mg112 1.986 . S
O119 C123 1.246 . S
O120 Mg115 2.032 . S
O120 C123 1.259 . S
O121 Mg112 2.114 . S
O121 C124 1.252 . S
O122 Mg112 2.251 . S
O122 Mg115 2.079 . S
O122 C124 1.273 . S
C123 O119 1.246 . S
C123 O120 1.259 . S
C124 O121 1.252 . S
C124 O122 1.273 . S
O125 Mg112 2.010 . S
O125 C117 1.249 . S
Mg126 O127 2.028 . S
Mg126 O133 1.986 . S
Mg126 O135 2.114 . S
Mg126 O136 2.251 . S
Mg126 O139 2.010 . S
O127 Mg126 2.028 . S
O127 C130 1.250 1_545 S
O128 Mg129 2.028 . S
O128 C130 1.248 1_545 S
Mg129 O128 2.028 . S
Mg129 O134 2.032 . S
Mg129 O136 2.079 . S
C130 O127 1.250 1_565 S
C130 O128 1.248 1_565 S
C131 O132 1.264 . S
C131 O139 1.249 . S
O132 C131 1.264 . S
O133 Mg126 1.986 . S
O133 C137 1.246 . S
O134 Mg129 2.032 . S
O134 C137 1.259 . S
O135 Mg126 2.114 . S
O135 C138 1.252 . S
O136 Mg126 2.251 . S
O136 Mg129 2.079 . S
O136 C138 1.273 . S
C137 O133 1.246 . S
C137 O134 1.259 . S
C138 O135 1.252 . S
C138 O136 1.273 . S
O139 Mg126 2.010 . S
O139 C131 1.249 . S
Mg140 O141 2.028 . S
Mg140 O147 1.986 . S
Mg140 O149 2.114 . S
Mg140 O150 2.251 . S
Mg140 O153 2.010 . S
O141 Mg140 2.028 . S
O141 C144 1.250 1_655 S
O142 Mg143 2.028 . S
O142 C144 1.248 1_655 S
Mg143 O142 2.028 . S
Mg143 O148 2.032 . S
Mg143 O150 2.079 . S
C144 O141 1.250 1_455 S
C144 O142 1.248 1_455 S
C145 O146 1.264 . S
C145 O153 1.249 . S
O146 C145 1.264 . S
O147 Mg140 1.986 . S
O147 C151 1.246 . S
O148 Mg143 2.032 . S
O148 C151 1.259 . S
O149 Mg140 2.114 . S
O149 C152 1.252 . S
O150 Mg140 2.251 . S
O150 Mg143 2.079 . S
O150 C152 1.273 . S
C151 O147 1.246 . S
C151 O148 1.259 . S
C152 O149 1.252 . S
C152 O150 1.273 . S
O153 Mg140 2.010 . S
O153 C145 1.249 . S
Mg154 O155 2.028 . S
Mg154 O161 1.986 . S
Mg154 O163 2.114 . S
Mg154 O164 2.251 . S
Mg154 O167 2.010 . S
O155 Mg154 2.028 . S
O155 C158 1.250 . S
O156 Mg157 2.028 . S
O156 C158 1.248 . S
Mg157 O156 2.028 . S
Mg157 O162 2.032 . S
Mg157 O164 2.079 . S
C158 O155 1.250 . S
C158 O156 1.248 . S
C159 O160 1.264 . S
C159 O167 1.249 . S
O160 C159 1.264 . S
O161 Mg154 1.986 . S
O161 C165 1.246 . S
O162 Mg157 2.032 . S
O162 C165 1.259 . S
O163 Mg154 2.114 . S
O163 C166 1.252 . S
O164 Mg154 2.251 . S
O164 Mg157 2.079 . S
O164 C166 1.273 . S
C165 O161 1.246 . S
C165 O162 1.259 . S
C166 O163 1.252 . S
C166 O164 1.273 . S
O167 Mg154 2.010 . S
O167 C159 1.249 . S
C168 C169 1.391 . S
C168 C170 1.394 . S
C168 H184 0.931 . S
C169 C168 1.391 . S
C169 C173 1.376 1_554 S
C170 C168 1.394 . S
C170 C171 1.369 1_554 S
C170 C174 1.531 . S
C171 C170 1.369 1_556 S
C171 C172 1.410 . S
C171 C179 1.503 . S
C172 C171 1.410 . S
C172 C173 1.392 . S
C172 C175 1.511 . S
C173 C169 1.376 1_556 S
C173 C172 1.392 . S
C173 H185 0.929 . S
C174 C170 1.531 . S
C174 H186 0.960 . S
C174 H187 0.962 . S
C174 H188 0.960 . S
C175 C172 1.511 . S
C175 H189 0.961 . S
C175 H190 0.961 . S
C175 H191 0.961 . S
C176 C177 1.370 . S
C176 C178 1.363 . S
C176 H192 0.931 . S
C177 C176 1.370 . S
C177 C181 1.408 . S
C178 C176 1.363 . S
C178 C179 1.370 . S
C178 C182 1.524 . S
C179 C171 1.503 . S
C179 C178 1.370 . S
C179 C180 1.403 . S
C180 C179 1.403 . S
C180 C181 1.404 . S
C180 C183 1.539 . S
C181 C177 1.408 . S
C181 C180 1.404 . S
C181 H193 0.930 . S
C182 C178 1.524 . S
C182 H194 0.956 . S
C182 H195 0.961 . S
C182 H196 0.961 . S
C183 C180 1.539 . S
C183 H197 0.961 1_556 S
C183 H198 0.961 . S
C183 H199 0.960 . S
H184 C168 0.931 . S
H185 C173 0.929 . S
H186 C174 0.960 . S
H187 C174 0.962 . S
H188 C174 0.960 . S
H189 C175 0.961 . S
H190 C175 0.961 . S
H191 C175 0.961 . S
H192 C176 0.931 . S
H193 C181 0.930 . S
H194 C182 0.956 . S
H195 C182 0.961 . S
H196 C182 0.961 . S
H197 C183 0.961 1_554 S
H198 C183 0.961 . S
H199 C183 0.960 . S
C200 C201 1.391 . S
C200 C202 1.394 . S
C200 H216 0.931 . S
C201 C200 1.391 . S
C201 C205 1.376 1_554 S
C202 C200 1.394 . S
C202 C203 1.369 1_554 S
C202 C206 1.531 . S
C203 C202 1.369 1_556 S
C203 C204 1.410 . S
C203 C211 1.503 . S
C204 C203 1.410 . S
C204 C205 1.392 . S
C204 C207 1.511 . S
C205 C201 1.376 1_556 S
C205 C204 1.392 . S
C205 H217 0.929 . S
C206 C202 1.531 . S
C206 H218 0.960 . S
C206 H219 0.962 . S
C206 H220 0.960 . S
C207 C204 1.511 . S
C207 H221 0.961 . S
C207 H222 0.961 . S
C207 H223 0.961 . S
C208 C209 1.370 . S
C208 C210 1.363 . S
C208 H224 0.931 . S
C209 C208 1.370 . S
C209 C213 1.408 . S
C210 C208 1.363 . S
C210 C211 1.370 . S
C210 C214 1.524 . S
C211 C203 1.503 . S
C211 C210 1.370 . S
C211 C212 1.403 . S
C212 C211 1.403 . S
C212 C213 1.404 . S
C212 C215 1.539 . S
C213 C209 1.408 . S
C213 C212 1.404 . S
C213 H225 0.930 1_565 S
C214 C210 1.524 . S
C214 H226 0.956 . S
C214 H227 0.961 . S
C214 H228 0.961 . S
C215 C212 1.539 . S
C215 H229 0.958 1_556 S
C215 H230 0.961 . S
C215 H231 0.960 . S
H216 C200 0.931 . S
H217 C205 0.929 . S
H218 C206 0.960 . S
H219 C206 0.962 . S
H220 C206 0.960 . S
H221 C207 0.961 . S
H222 C207 0.961 . S
H223 C207 0.961 . S
H224 C208 0.931 . S
H225 C213 0.930 1_545 S
H226 C214 0.956 . S
H227 C214 0.961 . S
H228 C214 0.961 . S
H229 C215 0.958 1_554 S
H230 C215 0.961 . S
H231 C215 0.960 . S
C232 C233 1.391 1_556 S
C232 C234 1.394 . S
C232 H248 0.931 . S
C233 C232 1.391 1_554 S
C233 C237 1.376 . S
C234 C232 1.394 . S
C234 C235 1.369 . S
C234 C238 1.531 . S
C235 C234 1.369 . S
C235 C236 1.410 1_556 S
C235 C243 1.503 . S
C236 C235 1.410 1_554 S
C236 C237 1.392 . S
C236 C239 1.511 . S
C237 C233 1.376 . S
C237 C236 1.392 . S
C237 H249 0.929 . S
C238 C234 1.531 . S
C238 H250 0.960 . S
C238 H251 0.962 . S
C238 H252 0.960 . S
C239 C236 1.511 . S
C239 H253 0.961 . S
C239 H254 0.961 . S
C239 H255 0.961 . S
C240 C241 1.370 . S
C240 C242 1.363 . S
C240 H256 0.931 . S
C241 C240 1.370 . S
C241 C245 1.408 . S
C242 C240 1.363 . S
C242 C243 1.370 . S
C242 C246 1.524 . S
C243 C235 1.503 . S
C243 C242 1.370 . S
C243 C244 1.403 . S
C244 C243 1.403 . S
C244 C245 1.404 . S
C244 C247 1.539 . S
C245 C241 1.408 . S
C245 C244 1.404 . S
C245 H257 0.930 . S
C246 C242 1.524 . S
C246 H258 0.956 . S
C246 H259 0.961 1_556 S
C246 H260 0.961 . S
C247 C244 1.539 . S
C247 H261 0.958 . S
C247 H262 0.961 . S
C247 H263 0.960 . S
H248 C232 0.931 . S
H249 C237 0.929 . S
H250 C238 0.960 . S
H251 C238 0.962 . S
H252 C238 0.960 . S
H253 C239 0.961 . S
H254 C239 0.961 . S
H255 C239 0.961 . S
H256 C240 0.931 . S
H257 C245 0.930 . S
H258 C246 0.956 . S
H259 C246 0.961 1_554 S
H260 C246 0.961 . S
H261 C247 0.958 . S
H262 C247 0.961 . S
H263 C247 0.960 . S
C264 C265 1.391 . S
C264 C266 1.394 . S
C264 H280 0.931 . S
C265 C264 1.391 . S
C265 C269 1.376 . S
C266 C264 1.394 . S
C266 C267 1.369 . S
C266 C270 1.531 . S
C267 C266 1.369 . S
C267 C268 1.410 . S
C267 C275 1.503 . S
C268 C267 1.410 . S
C268 C269 1.392 . S
C268 C271 1.511 . S
C269 C265 1.376 . S
C269 C268 1.392 . S
C269 H281 0.929 . S
C270 C266 1.531 . S
C270 H282 0.960 . S
C270 H283 0.962 . S
C270 H284 0.960 . S
C271 C268 1.511 . S
C271 H285 0.961 . S
C271 H286 0.961 . S
C271 H287 0.961 . S
C272 C273 1.370 . S
C272 C274 1.363 . S
C272 H288 0.931 . S
C273 C272 1.370 . S
C273 C277 1.408 . S
C274 C272 1.363 . S
C274 C275 1.370 . S
C274 C278 1.524 . S
C275 C267 1.503 . S
C275 C274 1.370 . S
C275 C276 1.403 . S
C276 C275 1.403 . S
C276 C277 1.404 . S
C276 C279 1.539 . S
C277 C273 1.408 . S
C277 C276 1.404 . S
C277 H289 0.930 . S
C278 C274 1.524 . S
C278 H290 0.956 . S
C278 H291 0.961 . S
C278 H292 0.961 . S
C279 C276 1.539 . S
C279 H293 0.958 . S
C279 H294 0.961 . S
C279 H295 0.960 . S
H280 C264 0.931 . S
H281 C269 0.929 . S
H282 C270 0.960 . S
H283 C270 0.962 . S
H284 C270 0.960 . S
H285 C271 0.961 . S
H286 C271 0.961 . S
H287 C271 0.961 . S
H288 C272 0.931 . S
H289 C277 0.930 . S
H290 C278 0.956 . S
H291 C278 0.961 . S
H292 C278 0.961 . S
H293 C279 0.958 . S
H294 C279 0.961 . S
H295 C279 0.960 . S
C296 C297 1.391 . S
C296 C298 1.394 . S
C296 H312 0.931 . S
C297 C296 1.391 . S
C297 C301 1.376 . S
C298 C296 1.394 . S
C298 C299 1.369 . S
C298 C302 1.531 . S
C299 C298 1.369 . S
C299 C300 1.410 . S
C299 C307 1.503 . S
C300 C299 1.410 . S
C300 C301 1.392 . S
C300 C303 1.511 . S
C301 C297 1.376 . S
C301 C300 1.392 . S
C301 H313 0.929 . S
C302 C298 1.531 . S
C302 H314 0.960 . S
C302 H315 0.962 . S
C302 H316 0.960 . S
C303 C300 1.511 . S
C303 H317 0.961 . S
C303 H318 0.961 . S
C303 H319 0.961 . S
C304 C305 1.370 . S
C304 C306 1.363 . S
C304 H320 0.931 . S
C305 C304 1.370 . S
C305 C309 1.408 . S
C306 C304 1.363 . S
C306 C307 1.370 . S
C306 C310 1.524 . S
C307 C299 1.503 . S
C307 C306 1.370 . S
C307 C308 1.403 . S
C308 C307 1.403 . S
C308 C309 1.404 . S
C308 C311 1.539 . S
C309 C305 1.408 . S
C309 C308 1.404 . S
C309 H321 0.930 . S
C310 C306 1.524 . S
C310 H322 0.956 . S
C310 H323 0.961 . S
C310 H324 0.961 . S
C311 C308 1.539 . S
C311 H325 0.958 . S
C311 H326 0.961 . S
C311 H327 0.960 . S
H312 C296 0.931 . S
H313 C301 0.929 . S
H314 C302 0.960 . S
H315 C302 0.962 . S
H316 C302 0.960 . S
H317 C303 0.961 . S
H318 C303 0.961 . S
H319 C303 0.961 . S
H320 C304 0.931 . S
H321 C309 0.930 . S
H322 C310 0.956 . S
H323 C310 0.961 . S
H324 C310 0.961 . S
H325 C311 0.958 . S
H326 C311 0.961 . S
H327 C311 0.960 . S
C328 C329 1.391 . S
C328 C330 1.394 . S
C328 H344 0.931 . S
C329 C328 1.391 . S
C329 C333 1.376 . S
C330 C328 1.394 . S
C330 C331 1.369 . S
C330 C334 1.531 . S
C331 C330 1.369 . S
C331 C332 1.410 . S
C331 C339 1.503 . S
C332 C331 1.410 . S
C332 C333 1.392 . S
C332 C335 1.511 . S
C333 C329 1.376 . S
C333 C332 1.392 . S
C333 H345 0.930 . S
C334 C330 1.531 . S
C334 H346 0.960 . S
C334 H347 0.962 . S
C334 H348 0.960 . S
C335 C332 1.511 . S
C335 H349 0.961 . S
C335 H350 0.961 . S
C335 H351 0.961 . S
C336 C337 1.370 . S
C336 C338 1.363 . S
C336 H352 0.931 . S
C337 C336 1.370 . S
C337 C341 1.408 . S
C338 C336 1.363 . S
C338 C339 1.370 . S
C338 C342 1.524 . S
C339 C331 1.503 . S
C339 C338 1.370 . S
C339 C340 1.403 . S
C340 C339 1.403 . S
C340 C341 1.404 . S
C340 C343 1.539 . S
C341 C337 1.408 . S
C341 C340 1.404 . S
C341 H353 0.930 . S
C342 C338 1.524 . S
C342 H354 0.956 . S
C342 H355 0.961 . S
C342 H356 0.961 . S
C343 C340 1.539 . S
C343 H357 0.958 . S
C343 H358 0.961 . S
C343 H359 0.960 . S
H344 C328 0.931 . S
H345 C333 0.930 . S
H346 C334 0.960 . S
H347 C334 0.962 . S
H348 C334 0.960 . S
H349 C335 0.961 . S
H350 C335 0.961 . S
H351 C335 0.961 . S
H352 C336 0.931 . S
H353 C341 0.930 . S
H354 C342 0.956 . S
H355 C342 0.961 . S
H356 C342 0.961 . S
H357 C343 0.958 . S
H358 C343 0.961 . S
H359 C343 0.960 . S
C360 C361 1.391 . S
C360 C362 1.394 . S
C360 H376 0.931 . S
C361 C360 1.391 . S
C361 C365 1.376 . S
C362 C360 1.394 . S
C362 C363 1.369 . S
C362 C366 1.531 . S
C363 C362 1.369 . S
C363 C364 1.410 . S
C363 C371 1.503 . S
C364 C363 1.410 . S
C364 C365 1.392 . S
C364 C367 1.511 1_554 S
C365 C361 1.376 . S
C365 C364 1.392 . S
C365 H377 0.929 . S
C366 C362 1.531 . S
C366 H378 0.960 . S
C366 H379 0.962 . S
C366 H380 0.960 . S
C367 C364 1.511 1_556 S
C367 H381 0.961 . S
C367 H382 0.961 . S
C367 H383 0.961 . S
C368 C369 1.370 . S
C368 C370 1.363 . S
C368 H384 0.931 . S
C369 C368 1.370 . S
C369 C373 1.408 . S
C370 C368 1.363 . S
C370 C371 1.370 1_556 S
C370 C374 1.524 1_556 S
C371 C363 1.503 . S
C371 C370 1.370 1_554 S
C371 C372 1.405 . S
C372 C371 1.405 . S
C372 C373 1.397 1_554 S
C372 C375 1.542 . S
C373 C369 1.408 . S
C373 C372 1.397 1_556 S
C373 H385 0.930 . S
C374 C370 1.524 1_554 S
C374 H386 0.956 . S
C374 H387 0.961 1_554 S
C374 H388 0.961 1_554 S
C375 C372 1.542 . S
C375 H389 0.958 . S
C375 H390 0.961 1_554 S
C375 H391 0.960 . S
H376 C360 0.931 . S
H377 C365 0.929 . S
H378 C366 0.960 . S
H379 C366 0.962 . S
H380 C366 0.960 . S
H381 C367 0.961 . S
H382 C367 0.961 . S
H383 C367 0.961 . S
H384 C368 0.931 . S
H385 C373 0.930 . S
H386 C374 0.956 . S
H387 C374 0.961 1_556 S
H388 C374 0.961 1_556 S
H389 C375 0.958 . S
H390 C375 0.961 1_556 S
H391 C375 0.960 . S
C392 C393 1.391 . S
C392 C394 1.394 . S
C392 H408 0.931 . S
C393 C392 1.391 . S
C393 C397 1.376 . S
C394 C392 1.394 . S
C394 C395 1.369 1_556 S
C394 C398 1.531 . S
C395 C394 1.369 1_554 S
C395 C396 1.410 1_554 S
C395 C403 1.503 . S
C396 C395 1.410 1_556 S
C396 C397 1.392 . S
C396 C399 1.511 1_556 S
C397 C393 1.376 . S
C397 C396 1.392 . S
C397 H409 0.929 . S
C398 C394 1.531 . S
C398 H410 0.960 . S
C398 H411 0.962 1_556 S
C398 H412 0.960 . S
C399 C396 1.511 1_554 S
C399 H413 0.961 . S
C399 H414 0.961 . S
C399 H415 0.961 1_554 S
C400 C401 1.370 . S
C400 C402 1.363 . S
C400 H416 0.931 . S
C401 C400 1.370 . S
C401 C405 1.408 . S
C402 C400 1.363 . S
C402 C403 1.370 . S
C402 C406 1.524 . S
C403 C395 1.503 . S
C403 C402 1.370 . S
C403 C404 1.403 . S
C404 C403 1.403 . S
C404 C405 1.404 . S
C404 C407 1.539 1_554 S
C405 C401 1.408 . S
C405 C404 1.404 . S
C405 H417 0.930 1_545 S
C406 C402 1.524 . S
C406 H418 0.956 . S
C406 H419 0.961 . S
C406 H420 0.961 . S
C407 C404 1.539 1_556 S
C407 H421 0.958 . S
C407 H422 0.961 . S
C407 H423 0.960 . S
H408 C392 0.931 . S
H409 C397 0.929 . S
H410 C398 0.960 . S
H411 C398 0.962 1_554 S
H412 C398 0.960 . S
H413 C399 0.961 . S
H414 C399 0.961 . S
H415 C399 0.961 1_556 S
H416 C400 0.931 . S
H417 C405 0.930 1_565 S
H418 C406 0.956 . S
H419 C406 0.961 . S
H420 C406 0.961 . S
H421 C407 0.958 . S
H422 C407 0.961 . S
H423 C407 0.960 . S
C424 C425 1.391 . S
C424 C426 1.394 . S
C424 H440 0.931 . S
C425 C424 1.391 . S
C425 C429 1.376 . S
C426 C424 1.394 . S
C426 C427 1.369 . S
C426 C430 1.531 . S
C427 C426 1.369 . S
C427 C428 1.410 . S
C427 C435 1.503 . S
C428 C427 1.410 . S
C428 C429 1.392 . S
C428 C431 1.511 . S
C429 C425 1.376 . S
C429 C428 1.392 . S
C429 H441 0.929 . S
C430 C426 1.531 . S
C430 H442 0.960 . S
C430 H443 0.962 . S
C430 H444 0.960 . S
C431 C428 1.511 . S
C431 H445 0.961 . S
C431 H446 0.961 . S
C431 H447 0.961 . S
C432 C433 1.370 . S
C432 C434 1.363 . S
C432 H448 0.931 . S
C433 C432 1.370 . S
C433 C437 1.408 1_556 S
C434 C432 1.363 . S
C434 C435 1.370 1_556 S
C434 C438 1.524 . S
C435 C427 1.503 . S
C435 C434 1.370 1_554 S
C435 C436 1.403 . S
C436 C435 1.403 . S
C436 C437 1.404 . S
C436 C439 1.539 . S
C437 C433 1.408 1_554 S
C437 C436 1.404 . S
C437 H449 0.930 . S
C438 C434 1.524 . S
C438 H450 0.956 . S
C438 H451 0.961 . S
C438 H452 0.961 . S
C439 C436 1.539 . S
C439 H453 0.958 . S
C439 H454 0.961 . S
C439 H455 0.960 . S
H440 C424 0.931 . S
H441 C429 0.929 . S
H442 C430 0.960 . S
H443 C430 0.962 . S
H444 C430 0.960 . S
H445 C431 0.961 . S
H446 C431 0.961 . S
H447 C431 0.961 . S
H448 C432 0.931 . S
H449 C437 0.930 . S
H450 C438 0.956 . S
H451 C438 0.961 . S
H452 C438 0.961 . S
H453 C439 0.958 . S
H454 C439 0.961 . S
H455 C439 0.960 . S
C456 C457 1.391 . S
C456 C458 1.394 . S
C456 H472 0.931 . S
C457 C456 1.391 . S
C457 C461 1.376 . S
C458 C456 1.394 . S
C458 C459 1.369 . S
C458 C462 1.531 . S
C459 C458 1.369 . S
C459 C460 1.410 . S
C459 C467 1.503 . S
C460 C459 1.410 . S
C460 C461 1.392 . S
C460 C463 1.511 . S
C461 C457 1.376 . S
C461 C460 1.392 . S
C461 H473 0.929 . S
C462 C458 1.531 . S
C462 H474 0.960 . S
C462 H475 0.962 . S
C462 H476 0.960 . S
C463 C460 1.511 . S
C463 H477 0.961 . S
C463 H478 0.961 . S
C463 H479 0.961 . S
C464 C465 1.370 . S
C464 C466 1.363 . S
C464 H480 0.931 . S
C465 C464 1.370 . S
C465 C469 1.408 . S
C466 C464 1.363 . S
C466 C467 1.370 . S
C466 C470 1.524 . S
C467 C459 1.503 . S
C467 C466 1.370 . S
C467 C468 1.403 . S
C468 C467 1.403 . S
C468 C469 1.404 . S
C468 C471 1.539 . S
C469 C465 1.408 . S
C469 C468 1.404 . S
C469 H481 0.930 . S
C470 C466 1.524 . S
C470 H482 0.956 . S
C470 H483 0.961 . S
C470 H484 0.961 . S
C471 C468 1.539 . S
C471 H485 0.958 . S
C471 H486 0.961 . S
C471 H487 0.960 . S
H472 C456 0.931 . S
H473 C461 0.929 . S
H474 C462 0.960 . S
H475 C462 0.962 . S
H476 C462 0.960 . S
H477 C463 0.961 . S
H478 C463 0.961 . S
H479 C463 0.961 . S
H480 C464 0.931 . S
H481 C469 0.930 . S
H482 C470 0.956 . S
H483 C470 0.961 . S
H484 C470 0.961 . S
H485 C471 0.958 . S
H486 C471 0.961 . S
H487 C471 0.960 . S
C488 C489 1.391 . S
C488 C490 1.394 . S
C488 H504 0.931 . S
C489 C488 1.391 . S
C489 C493 1.376 . S
C490 C488 1.394 . S
C490 C491 1.369 . S
C490 C494 1.531 . S
C491 C490 1.369 . S
C491 C492 1.410 . S
C491 C499 1.503 . S
C492 C491 1.410 . S
C492 C493 1.392 . S
C492 C495 1.511 . S
C493 C489 1.376 . S
C493 C492 1.392 . S
C493 H505 0.929 . S
C494 C490 1.531 . S
C494 H506 0.960 . S
C494 H507 0.962 . S
C494 H508 0.960 . S
C495 C492 1.511 . S
C495 H509 0.961 . S
C495 H510 0.961 . S
C495 H511 0.961 . S
C496 C497 1.370 . S
C496 C498 1.363 . S
C496 H512 0.931 . S
C497 C496 1.370 . S
C497 C501 1.408 . S
C498 C496 1.363 . S
C498 C499 1.370 . S
C498 C502 1.524 . S
C499 C491 1.503 . S
C499 C498 1.370 . S
C499 C500 1.403 . S
C500 C499 1.403 . S
C500 C501 1.404 . S
C500 C503 1.539 . S
C501 C497 1.408 . S
C501 C500 1.404 . S
C501 H513 0.930 . S
C502 C498 1.524 . S
C502 H514 0.956 . S
C502 H515 0.961 . S
C502 H516 0.961 . S
C503 C500 1.539 . S
C503 H517 0.958 . S
C503 H518 0.961 . S
C503 H519 0.960 . S
H504 C488 0.931 . S
H505 C493 0.929 . S
H506 C494 0.960 . S
H507 C494 0.962 . S
H508 C494 0.960 . S
H509 C495 0.961 . S
H510 C495 0.961 . S
H511 C495 0.961 . S
H512 C496 0.931 . S
H513 C501 0.930 . S
H514 C502 0.956 . S
H515 C502 0.961 . S
H516 C502 0.961 . S
H517 C503 0.958 . S
H518 C503 0.961 . S
H519 C503 0.960 . S
C520 C521 1.391 . S
C520 C522 1.394 . S
C520 H536 0.931 . S
C521 C520 1.391 . S
C521 C525 1.376 . S
C522 C520 1.394 . S
C522 C523 1.369 . S
C522 C526 1.531 . S
C523 C522 1.369 . S
C523 C524 1.410 . S
C523 C531 1.503 . S
C524 C523 1.410 . S
C524 C525 1.392 . S
C524 C527 1.511 . S
C525 C521 1.376 . S
C525 C524 1.392 . S
C525 H537 0.929 . S
C526 C522 1.531 . S
C526 H538 0.960 . S
C526 H539 0.962 . S
C526 H540 0.960 . S
C527 C524 1.511 . S
C527 H541 0.961 . S
C527 H542 0.961 . S
C527 H543 0.961 . S
C528 C529 1.370 . S
C528 C530 1.363 . S
C528 H544 0.931 . S
C529 C528 1.370 . S
C529 C533 1.408 . S
C530 C528 1.363 . S
C530 C531 1.370 . S
C530 C534 1.524 . S
C531 C523 1.503 . S
C531 C530 1.370 . S
C531 C532 1.403 . S
C532 C531 1.403 . S
C532 C533 1.404 . S
C532 C535 1.539 . S
C533 C529 1.408 . S
C533 C532 1.404 . S
C533 H545 0.930 . S
C534 C530 1.524 . S
C534 H546 0.956 . S
C534 H547 0.961 . S
C534 H548 0.961 . S
C535 C532 1.539 . S
C535 H549 0.958 . S
C535 H550 0.961 . S
C535 H551 0.960 . S
H536 C520 0.931 . S
H537 C525 0.929 . S
H538 C526 0.960 . S
H539 C526 0.962 . S
H540 C526 0.960 . S
H541 C527 0.961 . S
H542 C527 0.961 . S
H543 C527 0.961 . S
H544 C528 0.931 . S
H545 C533 0.930 . S
H546 C534 0.956 . S
H547 C534 0.961 . S
H548 C534 0.961 . S
H549 C535 0.958 . S
H550 C535 0.961 . S
H551 C535 0.960 . S
C552 C553 1.391 . S
C552 C554 1.394 . S
C552 H568 0.931 . S
C553 C552 1.391 . S
C553 C557 1.376 . S
C554 C552 1.394 . S
C554 C555 1.369 . S
C554 C558 1.531 . S
C555 C554 1.369 . S
C555 C556 1.410 . S
C555 C563 1.503 . S
C556 C555 1.410 . S
C556 C557 1.392 . S
C556 C559 1.511 . S
C557 C553 1.376 . S
C557 C556 1.392 . S
C557 H569 0.929 . S
C558 C554 1.531 . S
C558 H570 0.960 . S
C558 H571 0.962 . S
C558 H572 0.960 . S
C559 C556 1.511 . S
C559 H573 0.961 . S
C559 H574 0.961 . S
C559 H575 0.961 . S
C560 C561 1.370 . S
C560 C562 1.363 . S
C560 H576 0.931 . S
C561 C560 1.370 . S
C561 C565 1.408 . S
C562 C560 1.363 . S
C562 C563 1.370 . S
C562 C566 1.524 . S
C563 C555 1.503 . S
C563 C562 1.370 . S
C563 C564 1.403 . S
C564 C563 1.403 . S
C564 C565 1.404 . S
C564 C567 1.539 . S
C565 C561 1.408 . S
C565 C564 1.404 . S
C565 H577 0.930 . S
C566 C562 1.524 . S
C566 H578 0.956 . S
C566 H579 0.961 . S
C566 H580 0.961 . S
C567 C564 1.539 . S
C567 H581 0.958 . S
C567 H582 0.961 . S
C567 H583 0.960 . S
H568 C552 0.931 . S
H569 C557 0.929 . S
H570 C558 0.960 . S
H571 C558 0.962 . S
H572 C558 0.960 . S
H573 C559 0.961 . S
H574 C559 0.961 . S
H575 C559 0.961 . S
H576 C560 0.931 . S
H577 C565 0.930 . S
H578 C566 0.956 . S
H579 C566 0.961 . S
H580 C566 0.961 . S
H581 C567 0.958 . S
H582 C567 0.961 . S
H583 C567 0.960 . S
C584 C585 1.391 . S
C584 C586 1.394 . S
C584 H600 0.931 . S
C585 C584 1.391 . S
C585 C589 1.376 . S
C586 C584 1.394 . S
C586 C587 1.369 . S
C586 C590 1.531 . S
C587 C586 1.369 . S
C587 C588 1.410 . S
C587 C595 1.503 . S
C588 C587 1.410 . S
C588 C589 1.392 . S
C588 C591 1.511 . S
C589 C585 1.376 . S
C589 C588 1.392 . S
C589 H601 0.929 . S
C590 C586 1.531 . S
C590 H602 0.960 . S
C590 H603 0.962 . S
C590 H604 0.960 . S
C591 C588 1.511 . S
C591 H605 0.961 . S
C591 H606 0.961 . S
C591 H607 0.961 . S
C592 C593 1.370 . S
C592 C594 1.363 . S
C592 H608 0.931 . S
C593 C592 1.370 . S
C593 C597 1.408 . S
C594 C592 1.363 . S
C594 C595 1.370 . S
C594 C598 1.524 . S
C595 C587 1.503 . S
C595 C594 1.370 . S
C595 C596 1.403 . S
C596 C595 1.403 . S
C596 C597 1.404 . S
C596 C599 1.539 . S
C597 C593 1.408 . S
C597 C596 1.404 . S
C597 H609 0.930 . S
C598 C594 1.524 . S
C598 H610 0.956 . S
C598 H611 0.961 . S
C598 H612 0.961 . S
C599 C596 1.539 . S
C599 H613 0.958 . S
C599 H614 0.961 . S
C599 H615 0.960 . S
H600 C584 0.931 . S
H601 C589 0.929 . S
H602 C590 0.960 . S
H603 C590 0.962 . S
H604 C590 0.960 . S
H605 C591 0.961 . S
H606 C591 0.961 . S
H607 C591 0.961 . S
H608 C592 0.931 . S
H609 C597 0.930 . S
H610 C598 0.956 . S
H611 C598 0.961 . S
H612 C598 0.961 . S
H613 C599 0.958 . S
H614 C599 0.961 . S
H615 C599 0.960 . S
C616 C617 1.391 . S
C616 C618 1.394 . S
C616 H632 0.931 . S
C617 C616 1.391 . S
C617 C621 1.376 . S
C618 C616 1.394 . S
C618 C619 1.369 . S
C618 C622 1.531 . S
C619 C618 1.369 . S
C619 C620 1.410 . S
C619 C627 1.503 . S
C620 C619 1.410 . S
C620 C621 1.392 . S
C620 C623 1.511 . S
C621 C617 1.376 . S
C621 C620 1.392 . S
C621 H633 0.929 . S
C622 C618 1.531 . S
C622 H634 0.960 . S
C622 H635 0.962 . S
C622 H636 0.960 . S
C623 C620 1.511 . S
C623 H637 0.961 . S
C623 H638 0.961 . S
C623 H639 0.961 . S
C624 C625 1.370 . S
C624 C626 1.363 . S
C624 H640 0.931 . S
C625 C624 1.370 . S
C625 C629 1.408 . S
C626 C624 1.363 . S
C626 C627 1.370 . S
C626 C630 1.524 . S
C627 C619 1.503 . S
C627 C626 1.370 . S
C627 C628 1.403 . S
C628 C627 1.403 . S
C628 C629 1.404 . S
C628 C631 1.539 . S
C629 C625 1.408 . S
C629 C628 1.404 . S
C629 H641 0.930 . S
C630 C626 1.524 . S
C630 H642 0.956 . S
C630 H643 0.961 . S
C630 H644 0.961 . S
C631 C628 1.539 . S
C631 H645 0.958 . S
C631 H646 0.961 . S
C631 H647 0.960 . S
H632 C616 0.931 . S
H633 C621 0.929 . S
H634 C622 0.960 . S
H635 C622 0.962 . S
H636 C622 0.960 . S
H637 C623 0.961 . S
H638 C623 0.961 . S
H639 C623 0.961 . S
H640 C624 0.931 . S
H641 C629 0.930 . S
H642 C630 0.956 . S
H643 C630 0.961 . S
H644 C630 0.961 . S
H645 C631 0.958 . S
H646 C631 0.961 . S
H647 C631 0.960 . S
C648 C649 1.391 . S
C648 C650 1.394 . S
C648 H664 0.931 . S
C649 C648 1.391 . S
C649 C653 1.376 . S
C650 C648 1.394 . S
C650 C651 1.369 . S
C650 C654 1.531 . S
C651 C650 1.369 . S
C651 C652 1.410 . S
C651 C659 1.503 . S
C652 C651 1.410 . S
C652 C653 1.392 . S
C652 C655 1.511 . S
C653 C649 1.376 . S
C653 C652 1.392 . S
C653 H665 0.929 . S
C654 C650 1.531 . S
C654 H666 0.960 . S
C654 H667 0.962 . S
C654 H668 0.960 . S
C655 C652 1.511 . S
C655 H669 0.961 . S
C655 H670 0.961 . S
C655 H671 0.961 . S
C656 C657 1.370 . S
C656 C658 1.363 . S
C656 H672 0.931 . S
C657 C656 1.370 . S
C657 C661 1.408 . S
C658 C656 1.363 . S
C658 C659 1.370 . S
C658 C662 1.524 . S
C659 C651 1.503 . S
C659 C658 1.370 . S
C659 C660 1.403 . S
C660 C659 1.403 . S
C660 C661 1.404 . S
C660 C663 1.539 . S
C661 C657 1.408 . S
C661 C660 1.404 . S
C661 H673 0.930 . S
C662 C658 1.524 . S
C662 H674 0.956 . S
C662 H675 0.961 . S
C662 H676 0.961 . S
C663 C660 1.539 . S
C663 H677 0.958 . S
C663 H678 0.961 . S
C663 H679 0.960 . S
H664 C648 0.931 . S
H665 C653 0.929 . S
H666 C654 0.960 . S
H667 C654 0.962 . S
H668 C654 0.960 . S
H669 C655 0.961 . S
H670 C655 0.961 . S
H671 C655 0.961 . S
H672 C656 0.931 . S
H673 C661 0.930 . S
H674 C662 0.956 . S
H675 C662 0.961 . S
H676 C662 0.961 . S
H677 C663 0.958 . S
H678 C663 0.961 . S
H679 C663 0.960 . S
C680 C681 1.391 . S
C680 C682 1.394 . S
C680 H696 0.931 . S
C681 C680 1.391 . S
C681 C685 1.376 . S
C682 C680 1.394 . S
C682 C683 1.369 . S
C682 C686 1.531 . S
C683 C682 1.369 . S
C683 C684 1.410 . S
C683 C691 1.503 . S
C684 C683 1.410 . S
C684 C685 1.392 . S
C684 C687 1.511 . S
C685 C681 1.376 . S
C685 C684 1.392 . S
C685 H697 0.929 . S
C686 C682 1.531 . S
C686 H698 0.960 . S
C686 H699 0.962 . S
C686 H700 0.960 . S
C687 C684 1.511 . S
C687 H701 0.961 . S
C687 H702 0.961 . S
C687 H703 0.961 . S
C688 C689 1.370 . S
C688 C690 1.363 . S
C688 H704 0.931 . S
C689 C688 1.370 . S
C689 C693 1.408 . S
C690 C688 1.363 . S
C690 C691 1.370 . S
C690 C694 1.524 . S
C691 C683 1.503 . S
C691 C690 1.370 . S
C691 C692 1.403 . S
C692 C691 1.403 . S
C692 C693 1.404 . S
C692 C695 1.539 . S
C693 C689 1.408 . S
C693 C692 1.404 . S
C693 H705 0.930 . S
C694 C690 1.524 . S
C694 H706 0.956 . S
C694 H707 0.961 . S
C694 H708 0.961 . S
C695 C692 1.539 . S
C695 H709 0.958 . S
C695 H710 0.961 . S
C695 H711 0.960 . S
H696 C680 0.931 . S
H697 C685 0.929 . S
H698 C686 0.960 . S
H699 C686 0.962 . S
H700 C686 0.960 . S
H701 C687 0.961 . S
H702 C687 0.961 . S
H703 C687 0.961 . S
H704 C688 0.931 . S
H705 C693 0.930 . S
H706 C694 0.956 . S
H707 C694 0.961 . S
H708 C694 0.961 . S
H709 C695 0.958 . S
H710 C695 0.961 . S
H711 C695 0.960 . S
C712 C713 1.391 . S
C712 C714 1.394 . S
C712 H728 0.931 . S
C713 C712 1.391 . S
C713 C717 1.376 . S
C714 C712 1.394 . S
C714 C715 1.369 . S
C714 C718 1.531 . S
C715 C714 1.369 . S
C715 C716 1.410 . S
C715 C723 1.503 . S
C716 C715 1.410 . S
C716 C717 1.392 . S
C716 C719 1.511 . S
C717 C713 1.376 . S
C717 C716 1.392 . S
C717 H729 0.929 . S
C718 C714 1.531 . S
C718 H730 0.960 . S
C718 H731 0.962 . S
C718 H732 0.960 . S
C719 C716 1.511 . S
C719 H733 0.961 . S
C719 H734 0.961 . S
C719 H735 0.961 . S
C720 C721 1.370 . S
C720 C722 1.363 . S
C720 H736 0.931 . S
C721 C720 1.370 . S
C721 C725 1.408 . S
C722 C720 1.363 . S
C722 C723 1.370 . S
C722 C726 1.524 . S
C723 C715 1.503 . S
C723 C722 1.370 . S
C723 C724 1.403 . S
C724 C723 1.403 . S
C724 C725 1.404 . S
C724 C727 1.539 . S
C725 C721 1.408 . S
C725 C724 1.404 . S
C725 H737 0.930 . S
C726 C722 1.524 . S
C726 H738 0.956 . S
C726 H739 0.961 . S
C726 H740 0.961 . S
C727 C724 1.539 . S
C727 H741 0.958 . S
C727 H742 0.961 . S
C727 H743 0.960 . S
H728 C712 0.931 . S
H729 C717 0.929 . S
H730 C718 0.960 . S
H731 C718 0.962 . S
H732 C718 0.960 . S
H733 C719 0.961 . S
H734 C719 0.961 . S
H735 C719 0.961 . S
H736 C720 0.931 . S
H737 C725 0.930 . S
H738 C726 0.956 . S
H739 C726 0.961 . S
H740 C726 0.961 . S
H741 C727 0.958 . S
H742 C727 0.961 . S
H743 C727 0.960 . S
C744 C745 1.391 . S
C744 C746 1.394 1_554 S
C744 H760 0.931 1_554 S
C745 C744 1.391 . S
C745 C749 1.376 . S
C746 C744 1.394 1_556 S
C746 C747 1.369 1_456 S
C746 C750 1.531 1_455 S
C747 C746 1.369 1_654 S
C747 C748 1.410 1_655 S
C747 C755 1.503 1_554 S
C748 C747 1.410 1_455 S
C748 C749 1.392 . S
C748 C751 1.513 . S
C749 C745 1.376 . S
C749 C748 1.392 . S
C749 H761 0.929 . S
C750 C746 1.531 1_655 S
C750 H762 0.960 . S
C750 H763 0.962 1_655 S
C750 H764 0.960 . S
C751 C748 1.513 . S
C751 H765 0.962 . S
C751 H766 0.960 . S
C751 H767 0.958 1_455 S
C752 C753 1.370 1_455 S
C752 C754 1.363 . S
C752 H768 0.931 . S
C753 C752 1.370 1_655 S
C753 C757 1.408 . S
C754 C752 1.363 . S
C754 C755 1.370 1_455 S
C754 C758 1.524 . S
C755 C747 1.503 1_556 S
C755 C754 1.370 1_655 S
C755 C756 1.403 . S
C756 C755 1.403 . S
C756 C757 1.404 . S
C756 C759 1.539 1_556 S
C757 C753 1.408 . S
C757 C756 1.404 . S
C757 H769 0.930 . S
C758 C754 1.524 . S
C758 H770 0.956 . S
C758 H771 0.961 1_556 S
C758 H772 0.961 . S
C759 C756 1.539 1_554 S
C759 H773 0.958 1_554 S
C759 H774 0.961 . S
C759 H775 0.960 . S
H760 C744 0.931 1_556 S
H761 C749 0.929 . S
H762 C750 0.960 . S
H763 C750 0.962 1_455 S
H764 C750 0.960 . S
H765 C751 0.962 . S
H766 C751 0.960 . S
H767 C751 0.958 1_655 S
H768 C752 0.931 . S
H769 C757 0.930 . S
H770 C758 0.956 . S
H771 C758 0.961 1_554 S
H772 C758 0.961 . S
H773 C759 0.958 1_556 S
H774 C759 0.961 . S
H775 C759 0.960 . S
C776 C777 1.391 . S
C776 C778 1.394 . S
C776 H792 0.931 . S
C777 C776 1.391 . S
C777 C781 1.376 . S
C778 C776 1.394 . S
C778 C779 1.369 . S
C778 C782 1.531 . S
C779 C778 1.369 . S
C779 C780 1.410 . S
C779 C787 1.503 1_554 S
C780 C779 1.410 . S
C780 C781 1.392 . S
C780 C783 1.511 . S
C781 C777 1.376 . S
C781 C780 1.392 . S
C781 H793 0.929 . S
C782 C778 1.531 . S
C782 H794 0.960 . S
C782 H795 0.962 . S
C782 H796 0.960 . S
C783 C780 1.511 . S
C783 H797 0.961 1_554 S
C783 H798 0.961 1_554 S
C783 H799 0.961 . S
C784 C785 1.370 . S
C784 C786 1.363 . S
C784 H800 0.931 . S
C785 C784 1.370 . S
C785 C789 1.408 . S
C786 C784 1.363 . S
C786 C787 1.370 . S
C786 C790 1.524 . S
C787 C779 1.503 1_556 S
C787 C786 1.370 . S
C787 C788 1.403 1_556 S
C788 C787 1.403 1_554 S
C788 C789 1.404 1_554 S
C788 C791 1.539 . S
C789 C785 1.408 . S
C789 C788 1.404 1_556 S
C789 H801 0.930 1_556 S
C790 C786 1.524 . S
C790 H802 0.956 . S
C790 H803 0.961 . S
C790 H804 0.961 . S
C791 C788 1.539 . S
C791 H805 0.958 . S
C791 H806 0.961 . S
C791 H807 0.960 . S
H792 C776 0.931 . S
H793 C781 0.929 . S
H794 C782 0.960 . S
H795 C782 0.962 . S
H796 C782 0.960 . S
H797 C783 0.961 1_556 S
H798 C783 0.961 1_556 S
H799 C783 0.961 . S
H800 C784 0.931 . S
H801 C789 0.930 1_554 S
H802 C790 0.956 . S
H803 C790 0.961 . S
H804 C790 0.961 . S
H805 C791 0.958 . S
H806 C791 0.961 . S
H807 C791 0.960 . S
C808 C809 1.382 1_545 S
C808 C810 1.389 . S
C808 H824 0.945 . S
C809 C808 1.382 1_565 S
C809 C813 1.376 . S
C810 C808 1.389 . S
C810 C811 1.369 1_545 S
C810 C814 1.531 . S
C811 C810 1.369 1_565 S
C811 C812 1.410 . S
C811 C819 1.503 1_564 S
C812 C811 1.410 . S
C812 C813 1.392 . S
C812 C815 1.511 1_554 S
C813 C809 1.376 . S
C813 C812 1.392 . S
C813 H825 0.929 . S
C814 C810 1.531 . S
C814 H826 0.960 . S
C814 H827 0.962 . S
C814 H828 0.960 . S
C815 C812 1.511 1_556 S
C815 H829 0.961 . S
C815 H830 0.961 . S
C815 H831 0.961 . S
C816 C817 1.370 . S
C816 C818 1.363 . S
C816 H832 0.931 . S
C817 C816 1.370 . S
C817 C821 1.408 . S
C818 C816 1.363 . S
C818 C819 1.370 . S
C818 C822 1.524 . S
C819 C811 1.503 1_546 S
C819 C818 1.370 . S
C819 C820 1.403 1_546 S
C820 C819 1.403 1_564 S
C820 C821 1.404 1_564 S
C820 C823 1.539 . S
C821 C817 1.408 . S
C821 C820 1.404 1_546 S
C821 H833 0.930 1_545 S
C822 C818 1.524 . S
C822 H834 0.956 . S
C822 H835 0.961 . S
C822 H836 0.961 . S
C823 C820 1.539 . S
C823 H837 0.958 . S
C823 H838 0.961 . S
C823 H839 0.960 . S
H824 C808 0.945 . S
H825 C813 0.929 . S
H826 C814 0.960 . S
H827 C814 0.962 . S
H828 C814 0.960 . S
H829 C815 0.961 . S
H830 C815 0.961 . S
H831 C815 0.961 . S
H832 C816 0.931 . S
H833 C821 0.930 1_565 S
H834 C822 0.956 . S
H835 C822 0.961 . S
H836 C822 0.961 . S
H837 C823 0.958 . S
H838 C823 0.961 . S
H839 C823 0.960 . S
C840 C841 1.391 . S
C840 C842 1.394 . S
C840 H856 0.931 . S
C841 C840 1.391 . S
C841 C845 1.376 . S
C842 C840 1.394 . S
C842 C843 1.369 1_565 S
C842 C846 1.531 . S
C843 C842 1.369 1_545 S
C843 C844 1.410 . S
C843 C851 1.503 . S
C844 C843 1.410 . S
C844 C845 1.392 1_545 S
C844 C847 1.511 . S
C845 C841 1.376 . S
C845 C844 1.392 1_565 S
C845 H857 0.929 1_565 S
C846 C842 1.531 . S
C846 H858 0.960 . S
C846 H859 0.962 . S
C846 H860 0.960 . S
C847 C844 1.511 . S
C847 H861 0.961 . S
C847 H862 0.961 . S
C847 H863 0.961 . S
C848 C849 1.370 1_565 S
C848 C850 1.363 . S
C848 H864 0.931 . S
C849 C848 1.370 1_545 S
C849 C853 1.408 . S
C850 C848 1.363 . S
C850 C851 1.370 1_565 S
C850 C854 1.524 . S
C851 C843 1.503 . S
C851 C850 1.370 1_545 S
C851 C852 1.403 . S
C852 C851 1.403 . S
C852 C853 1.404 . S
C852 C855 1.539 . S
C853 C849 1.408 . S
C853 C852 1.404 . S
C853 H865 0.930 . S
C854 C850 1.524 . S
C854 H866 0.956 . S
C854 H867 0.961 . S
C854 H868 0.961 . S
C855 C852 1.539 . S
C855 H869 0.958 . S
C855 H870 0.961 . S
C855 H871 0.960 . S
H856 C840 0.931 . S
H857 C845 0.929 1_545 S
H858 C846 0.960 . S
H859 C846 0.962 . S
H860 C846 0.960 . S
H861 C847 0.961 . S
H862 C847 0.961 . S
H863 C847 0.961 . S
H864 C848 0.931 . S
H865 C853 0.930 . S
H866 C854 0.956 . S
H867 C854 0.961 . S
H868 C854 0.961 . S
H869 C855 0.958 . S
H870 C855 0.961 . S
H871 C855 0.960 . S
C872 C873 1.391 1_455 S
C872 C874 1.394 . S
C872 H888 0.931 . S
C873 C872 1.391 1_655 S
C873 C877 1.376 . S
C874 C872 1.394 . S
C874 C875 1.369 1_455 S
C874 C878 1.531 . S
C875 C874 1.369 1_655 S
C875 C876 1.410 . S
C875 C883 1.503 1_655 S
C876 C875 1.410 . S
C876 C877 1.392 . S
C876 C879 1.511 . S
C877 C873 1.376 . S
C877 C876 1.392 . S
C877 H889 0.929 . S
C878 C874 1.531 . S
C878 H890 0.960 . S
C878 H891 0.962 . S
C878 H892 0.960 . S
C879 C876 1.511 . S
C879 H893 0.961 . S
C879 H894 0.961 . S
C879 H895 0.961 . S
C880 C881 1.370 . S
C880 C882 1.363 . S
C880 H896 0.931 . S
C881 C880 1.370 . S
C881 C885 1.408 . S
C882 C880 1.363 . S
C882 C883 1.370 . S
C882 C886 1.524 . S
C883 C875 1.503 1_455 S
C883 C882 1.370 . S
C883 C884 1.403 . S
C884 C883 1.403 . S
C884 C885 1.404 . S
C884 C887 1.543 1_455 S
C885 C881 1.408 . S
C885 C884 1.404 . S
C885 H897 0.930 . S
C886 C882 1.524 . S
C886 H898 0.956 . S
C886 H899 0.961 1_455 S
C886 H900 0.961 . S
C887 C884 1.543 1_655 S
C887 H901 0.938 1_655 S
C887 H902 0.972 . S
C887 H903 0.966 . S
H888 C872 0.931 . S
H889 C877 0.929 . S
H890 C878 0.960 . S
H891 C878 0.962 . S
H892 C878 0.960 . S
H893 C879 0.961 . S
H894 C879 0.961 . S
H895 C879 0.961 . S
H896 C880 0.931 . S
H897 C885 0.930 . S
H898 C886 0.956 . S
H899 C886 0.961 1_655 S
H900 C886 0.961 . S
H901 C887 0.938 1_455 S
H902 C887 0.972 . S
H903 C887 0.966 . S
C904 C905 1.391 . S
C904 C906 1.394 . S
C904 H920 0.931 . S
C905 C904 1.391 . S
C905 C909 1.376 . S
C906 C904 1.394 . S
C906 C907 1.369 . S
C906 C910 1.531 . S
C907 C906 1.369 . S
C907 C908 1.410 . S
C907 C915 1.503 . S
C908 C907 1.410 . S
C908 C909 1.392 . S
C908 C911 1.511 . S
C909 C905 1.376 . S
C909 C908 1.392 . S
C909 H921 0.929 . S
C910 C906 1.531 . S
C910 H922 0.960 . S
C910 H923 0.962 . S
C910 H924 0.960 . S
C911 C908 1.511 . S
C911 H925 0.961 . S
C911 H926 0.961 . S
C911 H927 0.961 . S
C912 C913 1.370 . S
C912 C914 1.363 . S
C912 H928 0.931 . S
C913 C912 1.370 . S
C913 C917 1.408 . S
C914 C912 1.363 . S
C914 C915 1.370 . S
C914 C918 1.524 . S
C915 C907 1.503 . S
C915 C914 1.370 . S
C915 C916 1.403 . S
C916 C915 1.403 . S
C916 C917 1.404 . S
C916 C919 1.539 . S
C917 C913 1.408 . S
C917 C916 1.404 . S
C917 H929 0.930 . S
C918 C914 1.524 . S
C918 H930 0.956 . S
C918 H931 0.961 . S
C918 H932 0.961 . S
C919 C916 1.539 . S
C919 H933 0.958 . S
C919 H934 0.961 . S
C919 H935 0.960 . S
H920 C904 0.931 . S
H921 C909 0.929 . S
H922 C910 0.960 . S
H923 C910 0.962 . S
H924 C910 0.960 . S
H925 C911 0.961 . S
H926 C911 0.961 . S
H927 C911 0.961 . S
H928 C912 0.931 . S
H929 C917 0.930 . S
H930 C918 0.956 . S
H931 C918 0.961 . S
H932 C918 0.961 . S
H933 C919 0.958 . S
H934 C919 0.961 . S
H935 C919 0.960 . S
C169 C12 0.535 . S
C177 C102 0.539 . S
C201 C26 0.533 . S
C209 C116 0.538 . S
C233 C40 0.561 . S
C241 C88 0.578 . S
C265 C158 0.534 . S
C273 C54 0.542 . S
C297 C68 0.562 . S
C305 C130 0.579 . S
C329 C144 0.567 . S
C337 C82 0.547 . S
C361 C18 0.607 . S
C369 C96 0.547 . S
C393 C110 0.534 . S
C401 C32 0.555 . S
C425 C4 0.587 . S
C433 C124 0.551 . S
C457 C138 0.533 . S
C465 C74 0.536 . S
C489 C152 0.551 . S
C497 C46 0.549 . S
C521 C60 0.574 . S
C529 C166 0.550 . S
C553 C81 1.577 . S
C561 C11 1.617 . S
C585 C25 1.636 . S
C593 C53 1.596 . S
C617 C39 1.569 . S
C625 C67 1.623 . S
C649 C95 1.579 . S
C657 C165 1.628 . S
C681 C109 1.644 . S
C689 C137 1.607 . S
C713 C123 1.647 . S
C721 C151 1.602 . S
C745 C5 1.487 . S
C753 C89 1.426 . S
C777 C19 1.428 . S
C785 C103 1.453 . S
C809 C33 1.406 . S
C817 C117 1.461 . S
C841 C47 1.488 . S
C849 C131 1.424 . S
C873 C145 1.447 . S
C881 C61 1.445 . S
C905 C75 1.419 . S
C913 C159 1.451 . S
