# Generated by pormake.
# Topology noo, (5)-cn, num edge types: 1
# Building blocks:
#     Node 0, Type 0, BuildingBlock: XOMCOT_clean_sbu_1, # of connection points: 5
#     Node 1, Type 0, BuildingBlock: XOMCOT_clean_sbu_1, # of connection points: 5
#     Node 2, Type 0, BuildingBlock: XOMCOT_clean_sbu_1, # of connection points: 5
#     Node 3, Type 0, BuildingBlock: XOMCOT_clean_sbu_1, # of connection points: 5
#     Node 4, Type 0, BuildingBlock: XOMCOT_clean_sbu_1, # of connection points: 5
#     Node 5, Type 0, BuildingBlock: XOMCOT_clean_sbu_1, # of connection points: 5
#     Node 6, Type 0, BuildingBlock: XOMCOT_clean_sbu_1, # of connection points: 5
#     Node 7, Type 0, BuildingBlock: XOMCOT_clean_sbu_1, # of connection points: 5
#     Edge 8, Type (0, 0), BuildingBlock: CIFDUS_clean_linker_0, # of connection points: 2
#     Edge 9, Type (0, 0), BuildingBlock: CIFDUS_clean_linker_0, # of connection points: 2
#     Edge 10, Type (0, 0), BuildingBlock: CIFDUS_clean_linker_0, # of connection points: 2
#     Edge 11, Type (0, 0), BuildingBlock: CIFDUS_clean_linker_0, # of connection points: 2
#     Edge 12, Type (0, 0), BuildingBlock: CIFDUS_clean_linker_0, # of connection points: 2
#     Edge 13, Type (0, 0), BuildingBlock: CIFDUS_clean_linker_0, # of connection points: 2
#     Edge 14, Type (0, 0), BuildingBlock: CIFDUS_clean_linker_0, # of connection points: 2
#     Edge 15, Type (0, 0), BuildingBlock: CIFDUS_clean_linker_0, # of connection points: 2
#     Edge 16, Type (0, 0), BuildingBlock: CIFDUS_clean_linker_0, # of connection points: 2
#     Edge 17, Type (0, 0), BuildingBlock: CIFDUS_clean_linker_0, # of connection points: 2
#     Edge 18, Type (0, 0), BuildingBlock: CIFDUS_clean_linker_0, # of connection points: 2
#     Edge 19, Type (0, 0), BuildingBlock: CIFDUS_clean_linker_0, # of connection points: 2
#     Edge 20, Type (0, 0), BuildingBlock: CIFDUS_clean_linker_0, # of connection points: 2
#     Edge 21, Type (0, 0), BuildingBlock: CIFDUS_clean_linker_0, # of connection points: 2
#     Edge 22, Type (0, 0), BuildingBlock: CIFDUS_clean_linker_0, # of connection points: 2
#     Edge 23, Type (0, 0), BuildingBlock: CIFDUS_clean_linker_0, # of connection points: 2
#     Edge 24, Type (0, 0), BuildingBlock: CIFDUS_clean_linker_0, # of connection points: 2
#     Edge 25, Type (0, 0), BuildingBlock: CIFDUS_clean_linker_0, # of connection points: 2
#     Edge 26, Type (0, 0), BuildingBlock: CIFDUS_clean_linker_0, # of connection points: 2
#     Edge 27, Type (0, 0), BuildingBlock: CIFDUS_clean_linker_0, # of connection points: 2
# Relax obj value: 0.064
# Max RMSD: 0.099
# Mean RMSD: 0.099
data_MOF--net-noo--node1-XOMCOT_clean_sbu_1--edge1-CIFDUS_clean_linker_0
_symmetry_space_group_name_H-M    P1
_symmetry_Int_Tables_number       1
_symmetry_cell_setting            triclinic
loop_
_symmetry_equiv_pos_as_xyz
'x, y, z'
_cell_length_a     36.953248
_cell_length_b     36.880398
_cell_length_c     22.849949
_cell_angle_alpha  90.065563
_cell_angle_beta   89.976116
_cell_angle_gamma 89.110039
loop_
_atom_site_label
_atom_site_type_symbol
_atom_site_fract_x
_atom_site_fract_y
_atom_site_fract_z
_atom_type_partial_charge
C0 C 0.42964 0.28829 0.96998 0.0
C1 C 0.40827 0.31831 0.98046 0.0
N2 N 0.38345 0.30956 1.02092 0.0
N3 N 0.41867 0.26077 1.00408 0.0
C4 C 0.39003 0.2744 1.03437 0.0
H5 H 0.45239 0.2868 0.94027 0.0
Co6 Co 0.44424 0.21712 1.00631 0.0
C7 C 0.42676 0.18798 0.12589 0.0
O8 O 0.46112 0.18097 0.13649 0.0
N9 N 0.47079 0.17291 1.00562 0.0
C10 C 0.51272 0.13126 0.98285 0.0
C11 C 0.50276 0.16702 0.97823 0.0
C12 C 0.46117 0.13951 1.02421 0.0
N13 N 0.48655 0.11378 1.01177 0.0
O14 O 0.40868 0.19506 0.95762 0.0
H15 H 0.51779 0.18677 0.95406 0.0
H16 H 0.4355 0.13392 0.04479 0.0
O17 O 0.41732 0.20222 0.07698 0.0
C18 C 0.41585 0.19881 0.90334 0.0
O19 O 0.44457 0.21731 0.88868 0.0
N20 N 0.48091 0.24061 0.04866 0.0
C21 C 0.54059 0.27832 0.08952 0.0
C22 C 0.51074 0.27279 0.12621 0.0
C23 C 0.48063 0.25418 0.10446 0.0
C24 C 0.50821 0.2494 1.01153 0.0
C25 C 0.53873 0.26707 1.03132 0.0
H26 H 0.45701 0.25182 0.13187 0.0
H27 H 0.50568 0.24372 0.9654 0.0
H28 H 0.37508 0.25942 0.06686 0.0
H29 H 0.41074 0.34464 0.96006 0.0
H30 H 0.53752 0.11925 0.96604 0.0
H31 H 0.51055 0.28305 0.17064 0.0
H32 H 0.56031 0.27298 1.00079 0.0
C33 C 0.73209 0.45428 1.0246 0.0
C34 C 0.69714 0.4447 1.03651 0.0
N35 N 0.69795 0.41582 0.07258 0.0
N36 N 0.75501 0.43179 0.05329 0.0
C37 C 0.73346 0.40834 0.0818 0.0
H38 H 0.74034 0.47628 0.99662 0.0
Co39 Co 0.80505 0.43638 0.05103 0.0
C40 C 0.83185 0.41897 0.16886 0.0
O41 O 0.85141 0.44828 0.16463 0.0
N42 N 0.85622 0.44023 0.04695 0.0
C43 C 0.91375 0.421 0.04508 0.0
C44 C 0.87845 0.41089 0.05175 0.0
C45 C 0.8791 0.46796 1.03712 0.0
N46 N 0.91421 0.45699 1.03582 0.0
O47 O 0.80932 0.39185 1.00716 0.0
H48 H 0.86954 0.38355 0.05978 0.0
H49 H 0.87066 0.49582 1.03174 0.0
O50 O 0.81042 0.41037 0.12707 0.0
C51 C 0.80469 0.39763 0.95251 0.0
O52 O 0.79425 0.43027 0.93599 0.0
N53 N 0.79911 0.48214 0.08721 0.0
C54 C 0.76994 0.55095 0.11192 0.0
C55 C 0.76661 0.52247 0.15221 0.0
C56 C 0.78128 0.48811 0.13893 0.0
C57 C 0.80247 0.50969 0.04794 0.0
C58 C 0.78913 0.54444 0.06008 0.0
H59 H 0.77519 0.46579 0.16764 0.0
H60 H 0.81262 0.50391 1.00447 0.0
H61 H 0.74356 0.3864 0.10895 0.0
H62 H 0.67298 0.45739 1.01858 0.0
H63 H 0.93715 0.40301 0.04596 0.0
H64 H 0.75096 0.52617 0.19192 0.0
H65 H 0.7909 0.56516 1.02667 0.0
C66 C 0.57822 0.73582 1.03049 0.0
C67 C 0.59597 0.70296 1.0343 0.0
N68 N 0.62304 0.70605 0.07328 0.0
N69 N 0.5937 0.75955 0.0674 0.0
C70 C 0.62142 0.74074 0.09243 0.0
H71 H 0.55426 0.74161 1.00477 0.0
Co72 Co 0.57334 0.80544 0.08177 0.0
C73 C 0.60019 0.80729 0.20945 0.0
O74 O 0.57264 0.79035 0.23227 0.0
N75 N 0.55326 0.85179 0.09612 0.0
C76 C 0.52756 0.89903 0.14113 0.0
C77 C 0.54005 0.86407 0.14768 0.0
C78 C 0.5482 0.8798 0.05875 0.0
N79 N 0.53262 0.90901 0.08507 0.0
O80 O 0.6115 0.82699 1.03671 0.0
H81 H 0.53899 0.8485 0.18758 0.0
H82 H 0.55537 0.8786 1.01293 0.0
O83 O 0.60207 0.81206 0.15397 0.0
C84 C 0.6048 0.82427 0.98197 0.0
O85 O 0.57477 0.80841 0.96599 0.0
N86 N 0.53292 0.78315 0.118 0.0
C87 C 0.47105 0.74067 0.12564 0.0
C88 C 0.50307 0.72983 0.15387 0.0
C89 C 0.53398 0.75132 0.14892 0.0
C90 C 0.50116 0.79439 0.09268 0.0
C91 C 0.46997 0.77398 0.09681 0.0
H92 H 0.55941 0.74039 0.16482 0.0
H93 H 0.50047 0.81748 0.0637 0.0
H94 H 0.63862 0.75147 0.12642 0.0
H95 H 0.58892 0.67831 1.0115 0.0
H96 H 0.51622 0.9159 0.17551 0.0
H97 H 0.50511 0.70357 0.17491 0.0
H98 H 0.44594 0.78272 0.0732 0.0
C99 C 0.28014 0.57597 0.96168 0.0
C100 C 0.31459 0.58914 0.96564 0.0
N101 N 0.31433 0.61655 1.00462 0.0
N102 N 0.25814 0.59514 0.99761 0.0
C103 C 0.27977 0.61967 1.02353 0.0
H104 H 0.27153 0.55384 0.93416 0.0
Co105 Co 0.20897 0.58626 1.00442 0.0
C106 C 0.18811 0.60905 0.1226 0.0
O107 O 0.17313 0.57713 0.12793 0.0
N108 N 0.1585 0.57804 1.00983 0.0
C109 C 0.10004 0.5934 1.01614 0.0
C110 C 0.13457 0.60611 1.01289 0.0
C111 C 0.13739 0.54827 1.01143 0.0
N112 N 0.10176 0.55699 1.01517 0.0
O113 O 0.19858 0.6272 0.9551 0.0
H114 H 0.14177 0.63441 1.01404 0.0
H115 H 0.14748 0.5207 1.00993 0.0
O116 O 0.20507 0.61685 0.0754 0.0
C117 C 0.19991 0.6188 0.90096 0.0
O118 O 0.20979 0.58557 0.88667 0.0
N119 N 0.22117 0.544 0.04666 0.0
C120 C 0.25941 0.48079 0.07725 0.0
C121 C 0.26133 0.51205 0.11217 0.0
C122 C 0.24248 0.54359 0.09561 0.0
C123 C 0.2183 0.51352 1.01332 0.0
C124 C 0.23646 0.48145 1.02847 0.0
H125 H 0.24798 0.56835 0.11898 0.0
H126 H 0.20465 0.51503 0.97152 0.0
H127 H 0.27034 0.63994 0.05449 0.0
H128 H 0.33808 0.57936 0.94169 0.0
H129 H 0.07562 0.60975 1.02054 0.0
H130 H 0.27936 0.51295 0.14949 0.0
H131 H 0.23527 0.45852 0.9989 0.0
C132 C 0.94196 0.23222 0.58128 0.0
C133 C 0.92588 0.20011 0.56698 0.0
N134 N 0.8943 0.20776 0.54005 0.0
N135 N 0.92097 0.26013 0.56261 0.0
C136 C 0.89175 0.24437 0.53836 0.0
H137 H 0.96725 0.23502 0.60449 0.0
Co138 Co 0.93208 0.309 0.57195 0.0
C139 C 0.92196 0.34228 0.45623 0.0
O140 O 0.95318 0.35766 0.46594 0.0
N141 N 0.94263 0.3592 0.58326 0.0
C142 C 0.93132 0.41836 0.5959 0.0
C143 C 0.91637 0.38473 0.59153 0.0
C144 C 0.97355 0.3787 0.58215 0.0
N145 N 0.96729 0.41463 0.58965 0.0
O146 O 0.8874 0.31646 0.61419 0.0
H147 H 0.88764 0.37984 0.59133 0.0
H148 H 1.00006 0.36749 0.57286 0.0
O149 O 0.90874 0.32116 0.49516 0.0
C150 C 0.89061 0.30806 0.66821 0.0
O151 O 0.9208 0.29199 0.68524 0.0
N152 N 0.97761 0.29896 0.53686 0.0
C153 C 0.04221 0.26199 0.50981 0.0
C154 C 0.01379 0.26395 0.46914 0.0
C155 C 0.98156 0.28226 0.48367 0.0
C156 C 1.00542 0.29805 0.57615 0.0
C157 C 0.0382 0.2805 0.56303 0.0
H158 H 0.95877 0.27969 0.45451 0.0
H159 H 1.00113 0.30858 0.61986 0.0
H160 H 0.86898 0.25941 0.52032 0.0
H161 H 0.93591 0.17319 0.5777 0.0
H162 H 0.91658 0.44388 0.59926 0.0
H163 H 0.01553 0.24932 0.42808 0.0
H164 H 0.05895 0.27867 0.59642 0.0
C165 C 0.7821 0.90837 0.6397 0.0
C166 C 0.81415 0.89175 0.62398 0.0
N167 N 0.81122 0.8804 0.56825 0.0
N168 N 0.75905 0.90765 0.59404 0.0
C169 C 0.77753 0.89017 0.55096 0.0
H170 H 0.77684 0.92222 0.68059 0.0
Co171 Co 0.71649 0.93507 0.59267 0.0
C172 C 0.68606 0.9189 0.4732 0.0
O173 O 0.67994 0.9535 0.46284 0.0
N174 N 0.67349 0.9634 0.59349 0.0
C175 C 0.63363 1.00752 0.61371 0.0
C176 C 0.66904 0.99641 0.61843 0.0
C177 C 0.63973 0.95452 0.57596 0.0
N178 N 0.61509 0.98119 0.58687 0.0
O179 O 0.69304 0.90001 0.64138 0.0
H180 H 0.68969 0.01157 0.64039 0.0
H181 H 0.63312 0.92863 0.55677 0.0
O182 O 0.7004 0.90896 0.52178 0.0
C183 C 0.69435 0.90877 0.69547 0.0
O184 O 0.71045 0.93903 0.70981 0.0
N185 N 0.74143 0.97112 0.55145 0.0
C186 C 0.78247 0.02995 0.51556 0.0
C187 C 0.77405 1.00222 0.47588 0.0
C188 C 0.75368 0.97258 0.49498 0.0
C189 C 0.75261 0.99613 0.59109 0.0
C190 C 0.77201 0.02625 0.57395 0.0
H191 H 0.74907 0.95059 0.46492 0.0
H192 H 0.74683 0.99226 0.637 0.0
H193 H 0.76767 0.88709 0.50667 0.0
H194 H 0.83833 0.88948 0.65054 0.0
H195 H 0.62255 0.03327 0.62853 0.0
H196 H 0.78338 1.00331 0.43099 0.0
H197 H 0.77985 0.04593 0.60665 0.0
C198 C 0.06096 0.78758 0.53487 0.0
C199 C 0.07856 0.82015 0.53316 0.0
N200 N 0.11371 0.81318 0.52226 0.0
N201 N 0.08478 0.76035 0.52312 0.0
C202 C 0.11701 0.77684 0.51751 0.0
H203 H 0.03236 0.78408 0.54275 0.0
Co204 Co 0.07399 0.71112 0.51477 0.0
C205 C 0.12013 0.72087 0.4012 0.0
O206 O 0.12009 0.75621 0.39418 0.0
N207 N 0.06353 0.66195 0.50635 0.0
C208 C 0.05163 0.60884 0.46536 0.0
C209 C 0.05945 0.64445 0.4549 0.0
C210 C 0.05736 0.63652 0.54761 0.0
N211 N 0.05026 0.60384 0.52364 0.0
O212 O 0.11499 0.69822 0.56211 0.0
H213 H 0.06107 0.65698 0.41224 0.0
H214 H 0.05755 0.642 0.59416 0.0
O215 O 0.10338 0.7067 0.4442 0.0
C216 C 0.11019 0.70437 0.61656 0.0
O217 O 0.07991 0.72044 0.63324 0.0
N218 N 0.03155 0.72342 0.47329 0.0
C219 C 0.96411 0.7539 0.44654 0.0
C220 C 0.99493 0.76351 0.41443 0.0
C221 C 0.02856 0.74735 0.42787 0.0
C222 C 1.00142 0.71239 0.50232 0.0
C223 C 0.96741 0.7267 0.48885 0.0
H224 H 0.0524 0.757 0.40614 0.0
H225 H 1.00406 0.69461 0.5397 0.0
H226 H 0.14222 0.76263 0.50822 0.0
H227 H 0.0666 0.84686 0.53937 0.0
H228 H 0.04572 0.58855 0.43259 0.0
H229 H 0.99342 0.78491 0.38206 0.0
H230 H 0.94446 0.71916 0.51549 0.0
C231 C 0.2413 0.08471 0.56776 0.0
C232 C 0.21058 0.10613 0.56885 0.0
N233 N 0.21662 0.1358 0.53629 0.0
N234 N 0.26641 0.10044 0.53372 0.0
C235 C 0.25081 0.13201 0.51589 0.0
H236 H 0.2448 0.05862 0.58877 0.0
Co237 Co 0.31104 0.07833 0.51654 0.0
C238 C 0.31222 0.10839 0.39108 0.0
O239 O 0.29266 0.08277 0.36787 0.0
N240 N 0.35637 0.05685 0.50029 0.0
C241 C 0.40359 0.03196 0.45424 0.0
C242 C 0.3691 0.04573 0.44773 0.0
C243 C 0.3836 0.04935 0.53806 0.0
N244 N 0.41277 0.03426 0.51116 0.0
O245 O 0.33439 0.11441 0.56344 0.0
H246 H 0.35422 0.04716 0.40713 0.0
H247 H 0.38194 0.05464 0.58452 0.0
O248 O 0.31835 0.10866 0.44629 0.0
C249 C 0.33137 0.10762 0.61803 0.0
O250 O 0.31409 0.07831 0.63375 0.0
N251 N 0.2867 0.03989 0.47673 0.0
C252 C 0.24219 0.97969 0.45809 0.0
C253 C 0.23117 0.01468 0.44043 0.0
C254 C 0.25383 0.04425 0.44976 0.0
C255 C 0.29817 1.00577 0.49204 0.0
C256 C 0.27717 0.97548 0.48108 0.0
H257 H 0.24334 0.07104 0.43979 0.0
H258 H 0.3226 1.00162 0.51713 0.0
H259 H 0.26366 0.15114 0.48696 0.0
H260 H 0.18557 0.10029 0.59142 0.0
H261 H 0.42081 0.02183 0.41937 0.0
H262 H 0.2043 0.01991 0.42333 0.0
H263 H 0.28775 0.94917 0.49404 0.0
H264 H 0.48423 0.95907 0.12477 0.0
H265 H 0.56285 0.93866 0.98825 0.0
H266 H 0.55251 0.99954 0.95003 0.0
H267 H 0.52434 0.05962 0.95906 0.0
H268 H 0.44953 0.08196 0.10021 0.0
H269 H 0.45494 0.01904 0.13247 0.0
C270 C 0.49933 0.96788 0.08689 0.0
C271 C 0.5246 0.94416 0.05997 0.0
C272 C 0.49392 1.00332 0.0659 0.0
C273 C 0.54307 0.95599 1.00982 0.0
C274 C 0.53736 0.99098 0.98809 0.0
C275 C 0.50934 0.05096 0.99714 0.0
C276 C 0.48693 0.07586 1.02754 0.0
C277 C 0.51336 0.01505 1.01643 0.0
C278 C 0.46686 0.06354 0.07569 0.0
C279 C 0.47016 0.02757 0.09449 0.0
H280 H 0.98313 0.44197 0.06897 0.0
H281 H 0.91661 0.52175 0.97969 0.0
H282 H 0.96934 0.55932 0.96423 0.0
H283 H 0.03415 0.56983 0.97643 0.0
H284 H 0.10109 0.49017 0.06447 0.0
H285 H 0.04853 0.45152 0.07807 0.0
C286 C 0.98011 0.46733 0.04551 0.0
C287 C 0.94566 0.47896 1.02594 0.0
C288 C 0.01071 0.48869 1.03607 0.0
C289 C 0.94246 0.51228 0.99632 0.0
C290 C 0.97272 0.53371 0.98699 0.0
C291 C 0.03722 0.54409 0.99883 0.0
C292 C 0.07145 0.53302 1.01975 0.0
C293 C 1.00689 0.52227 1.00694 0.0
C294 C 0.07514 0.49919 0.04753 0.0
C295 C 0.04503 0.47724 0.05571 0.0
H296 H 0.966 0.47911 0.64442 0.0
H297 H 0.02361 0.41636 0.51413 0.0
H298 H 0.05823 0.46962 0.48666 0.0
H299 H 0.06639 0.53563 0.49128 0.0
H300 H 1.00791 0.5989 0.61974 0.0
H301 H 0.97964 0.54392 0.65706 0.0
C302 C 0.9865 0.4771 0.61058 0.0
C303 C 0.99198 0.44399 0.58092 0.0
C304 C 1.00589 0.50798 0.59448 0.0
C305 C 0.01902 0.44144 0.53782 0.0
C306 C 0.03859 0.47199 0.52175 0.0
C307 C 0.04779 0.5372 0.52793 0.0
C308 C 0.0388 0.57122 0.55225 0.0
C309 C 0.03139 0.50561 0.54848 0.0
C310 C 0.01526 0.573 0.60045 0.0
C311 C 0.9989 0.54162 0.62141 0.0
H312 H 0.56198 0.01995 0.63978 0.0
H313 H 0.58301 0.946 0.49689 0.0
H314 H 0.52064 0.95383 0.46318 0.0
H315 H 0.46162 0.98516 0.47026 0.0
H316 H 0.44226 0.06198 0.60994 0.0
H317 H 0.50248 0.04943 0.64901 0.0
C318 C 0.55303 1.0056 0.60115 0.0
C319 C 0.57738 0.98275 0.57056 0.0
C320 C 0.51743 0.01086 0.58131 0.0
C321 C 0.5649 0.96359 0.52151 0.0
C322 C 0.52928 0.9683 0.50192 0.0
C323 C 0.47055 0.99929 0.50911 0.0
C324 C 0.44737 0.02476 0.53668 0.0
C325 C 0.50556 0.99245 0.53079 0.0
C326 C 0.45923 0.04208 0.58792 0.0
C327 C 0.49384 0.0351 0.61013 0.0
H328 H 0.24762 0.40773 0.06983 0.0
H329 H 0.33155 0.486 0.09783 0.0
H330 H 0.37759 0.43841 0.0895 0.0
H331 H 0.39449 0.37632 0.06089 0.0
H332 H 0.31193 0.29734 1.03226 0.0
H333 H 0.26479 0.34312 0.0545 0.0
C334 C 0.27596 0.41416 0.07515 0.0
C335 C 0.28606 0.45045 0.0842 0.0
C336 C 0.30253 0.3866 0.06947 0.0
C337 C 0.32289 0.45835 0.09154 0.0
C338 C 0.34935 0.43117 0.08615 0.0
C339 C 0.36614 0.36915 0.06062 0.0
C340 C 0.35642 0.3339 0.04441 0.0
C341 C 0.33953 0.39552 0.07317 0.0
C342 C 0.31981 0.32443 0.04476 0.0
C343 C 0.29298 0.35064 0.05704 0.0
H344 H 0.54518 0.35005 0.11123 0.0
H345 H 0.60832 0.25108 0.10434 0.0
H346 H 0.66437 0.28559 0.10653 0.0
H347 H 0.69466 0.344 0.09384 0.0
H348 H 0.63114 0.44303 0.09534 0.0
H349 H 0.57614 0.40873 0.11193 0.0
C350 C 0.57129 0.33618 0.11244 0.0
C351 C 0.57289 0.29825 0.10825 0.0
C352 C 0.6033 0.35629 0.11124 0.0
C353 C 0.6067 0.28034 0.1083 0.0
C354 C 0.63866 0.30007 0.10889 0.0
C355 C 0.66893 0.3581 0.09929 0.0
C356 C 0.66693 0.39594 0.09225 0.0
C357 C 0.63726 0.3381 0.10787 0.0
C358 C 0.63328 0.41382 0.09918 0.0
C359 C 0.60181 0.39424 0.10891 0.0
H360 H 0.69568 0.70521 0.08345 0.0
H361 H 0.60079 0.64078 0.10816 0.0
H362 H 0.63852 0.58765 0.13122 0.0
H363 H 0.69827 0.55795 0.1333 0.0
H364 H 0.79363 0.62054 0.10066 0.0
H365 H 0.75641 0.67592 0.09244 0.0
C366 C 0.68352 0.67964 0.09505 0.0
C367 C 0.64565 0.67668 0.09402 0.0
C368 C 0.70552 0.64886 0.10645 0.0
C369 C 0.62994 0.64341 0.10834 0.0
C370 C 0.65148 0.61311 0.1215 0.0
C371 C 0.71096 0.58389 0.12605 0.0
C372 C 0.74863 0.58525 0.11808 0.0
C373 C 0.68929 0.61525 0.1192 0.0
C374 C 0.76466 0.61891 0.10718 0.0
C375 C 0.74337 0.65051 0.10219 0.0
H376 H 0.33243 0.64208 0.11145 0.0
H377 H 0.36412 0.64121 0.9299 0.0
H378 H 0.41624 0.67854 0.95238 0.0
H379 H 0.4523 0.71219 1.02288 0.0
H380 H 0.42334 0.71253 0.20536 0.0
H381 H 0.37084 0.67434 0.18395 0.0
C382 C 0.35076 0.65032 0.07706 0.0
C383 C 0.34449 0.63909 1.01906 0.0
C384 C 0.38116 0.67139 0.0906 0.0
C385 C 0.36861 0.64938 0.97481 0.0
C386 C 0.39833 0.67074 0.98762 0.0
C387 C 0.43452 0.70367 0.05794 0.0
C388 C 0.44129 0.71509 0.11544 0.0
C389 C 0.40484 0.68189 0.04522 0.0
C390 C 0.41849 0.70384 0.1608 0.0
C391 C 0.38848 0.68224 0.14843 0.0
H392 H 0.76539 0.1009 0.53011 0.0
H393 H 0.84985 0.02907 0.4671 0.0
H394 H 0.89189 0.07977 0.463 0.0
H395 H 0.90647 0.14259 0.49088 0.0
H396 H 0.82198 0.21421 0.55419 0.0
H397 H 0.77779 0.16582 0.54392 0.0
C398 C 0.79278 0.09666 0.5141 0.0
C399 C 0.80471 0.06142 0.49925 0.0
C400 C 0.81678 0.12579 0.51266 0.0
C401 C 0.84011 0.05605 0.47837 0.0
C402 C 0.86418 0.08495 0.47662 0.0
C403 C 0.87824 0.14762 0.5015 0.0
C404 C 0.86748 0.18166 0.52401 0.0
C405 C 0.85315 0.11961 0.49575 0.0
C406 C 0.8308 0.18824 0.53673 0.0
C407 C 0.80563 0.16051 0.53124 0.0
H408 H 0.95882 0.82534 0.46843 0.0
H409 H 0.8946 0.73205 0.4287 0.0
H410 H 0.83932 0.76577 0.45554 0.0
H411 H 0.81079 0.81876 0.50547 0.0
H412 H 0.87682 0.90892 0.55443 0.0
H413 H 0.92974 0.88003 0.50862 0.0
C414 C 0.93255 0.81291 0.46361 0.0
C415 C 0.93061 0.77649 0.4461 0.0
C416 C 0.90129 0.83182 0.48203 0.0
C417 C 0.89658 0.76024 0.44157 0.0
C418 C 0.86507 0.7794 0.45748 0.0
C419 C 0.83666 0.83221 0.50466 0.0
C420 C 0.84024 0.86567 0.5333 0.0
C421 C 0.86726 0.81471 0.48008 0.0
C422 C 0.8738 0.88297 0.53288 0.0
C423 C 0.90396 0.86647 0.50677 0.0
H424 H 0.24041 0.9224 0.53455 0.0
H425 H 0.18479 0.96677 0.38359 0.0
H426 H 0.13961 0.91955 0.39123 0.0
H427 H 0.11489 0.86617 0.44257 0.0
H428 H 0.17443 0.81852 0.58549 0.0
H429 H 0.22009 0.86597 0.57798 0.0
C430 C 0.21924 0.92148 0.50187 0.0
C431 C 0.21638 0.94871 0.45858 0.0
C432 C 0.194 0.89353 0.50517 0.0
C433 C 0.18761 0.94697 0.41825 0.0
C434 C 0.16179 0.91971 0.42226 0.0
C435 C 0.13809 0.86631 0.47161 0.0
C436 C 0.1415 0.83944 0.51487 0.0
C437 C 0.1645 0.89311 0.46593 0.0
C438 C 0.17161 0.83915 0.55205 0.0
C439 C 0.19748 0.86625 0.54776 0.0
H440 H 0.11466 0.27323 0.52626 0.0
H441 H 0.03804 0.1915 0.47726 0.0
H442 H 0.08602 0.14538 0.47763 0.0
H443 H 0.14866 0.12714 0.50035 0.0
H444 H 0.22642 0.20795 0.54602 0.0
H445 H 0.17943 0.2557 0.53824 0.0
C446 C 0.10869 0.2454 0.51485 0.0
C447 C 0.07283 0.23583 0.50171 0.0
C448 C 0.13657 0.21887 0.51504 0.0
C449 C 0.06545 0.1997 0.48678 0.0
C450 C 0.09282 0.17321 0.48748 0.0
C451 C 0.15523 0.15531 0.50788 0.0
C452 C 0.19061 0.16422 0.52426 0.0
C453 C 0.12826 0.18234 0.50276 0.0
C454 C 0.19926 0.20071 0.53326 0.0
C455 C 0.17238 0.22785 0.52911 0.0
H456 H 0.43522 0.18222 0.24378 0.0
H457 H 0.35621 0.17038 0.10653 0.0
H458 H 0.31253 0.14732 0.17742 0.0
H459 H 0.29854 0.12599 0.27723 0.0
H460 H 0.37683 0.14034 0.41505 0.0
H461 H 0.41867 0.16746 0.3455 0.0
C462 C 0.40832 0.17484 0.22948 0.0
C463 C 0.39914 0.17758 0.16979 0.0
C464 C 0.38317 0.16209 0.27068 0.0
C465 C 0.364 0.16848 0.15214 0.0
C466 C 0.33904 0.15519 0.19267 0.0
C467 C 0.32452 0.13561 0.29224 0.0
C468 C 0.33451 0.1309 0.35134 0.0
C469 C 0.34854 0.15126 0.2519 0.0
C470 C 0.36824 0.14376 0.37004 0.0
C471 C 0.39237 0.15901 0.33011 0.0
H472 H 0.89407 0.38548 0.1954 0.0
H473 H 0.78511 0.40132 0.25754 0.0
H474 H 0.80193 0.37427 0.35245 0.0
H475 H 0.85068 0.35372 0.42198 0.0
H476 H 0.95946 0.33983 0.3561 0.0
H477 H 0.93975 0.3577 0.25873 0.0
C478 C 0.8738 0.38201 0.22926 0.0
C479 C 0.83846 0.39505 0.2197 0.0
C480 C 0.88386 0.36706 0.28346 0.0
C481 C 0.8124 0.39091 0.26384 0.0
C482 C 0.82217 0.3758 0.31825 0.0
C483 C 0.8697 0.35373 0.38585 0.0
C484 C 0.9066 0.34582 0.39645 0.0
C485 C 0.8582 0.36481 0.32931 0.0
C486 C 0.93104 0.3462 0.34929 0.0
C487 C 0.91983 0.35648 0.29348 0.0
H488 H 0.68147 0.92658 0.35505 0.0
H489 H 0.66362 0.84989 0.49397 0.0
H490 H 0.63775 0.80723 0.42387 0.0
H491 H 0.61585 0.79376 0.3241 0.0
H492 H 0.63654 0.86936 0.18453 0.0
H493 H 0.6661 0.91 0.25347 0.0
C494 C 0.6722 0.90038 0.36985 0.0
C495 C 0.67409 0.89159 0.42977 0.0
C496 C 0.65787 0.87574 0.3291 0.0
C497 C 0.66247 0.85733 0.44815 0.0
C498 C 0.64755 0.83297 0.40807 0.0
C499 C 0.62736 0.81886 0.30861 0.0
C500 C 0.62376 0.8285 0.24917 0.0
C501 C 0.64452 0.84214 0.34858 0.0
C502 C 0.63907 0.86105 0.22983 0.0
C503 C 0.65574 0.88452 0.2694 0.0
H504 H 0.14723 0.73848 0.29294 0.0
H505 H 0.13277 0.64825 0.41063 0.0
H506 H 0.15482 0.60645 0.33605 0.0
H507 H 0.17399 0.5946 0.2357 0.0
H508 H 0.18999 0.68349 0.11661 0.0
H509 H 0.17236 0.72673 0.19371 0.0
C510 C 0.14926 0.70973 0.30244 0.0
C511 C 0.13745 0.69656 0.35707 0.0
C512 C 0.16228 0.68555 0.2591 0.0
C513 C 0.14071 0.6592 0.36868 0.0
C514 C 0.15353 0.63517 0.32608 0.0
C515 C 0.17396 0.62347 0.22666 0.0
C516 C 0.1829 0.63582 0.17038 0.0
C517 C 0.16364 0.64793 0.27085 0.0
C518 C 0.18326 0.67332 0.15964 0.0
C519 C 0.17294 0.698 0.20363 0.0
H520 H 0.60266 0.81119 0.86538 0.0
H521 H 0.65869 0.87416 0.99526 0.0
H522 H 0.69232 0.90472 0.91759 0.0
H523 H 0.70321 0.9157 0.81289 0.0
H524 H 0.64716 0.85254 0.68321 0.0
H525 H 0.61609 0.81968 0.76107 0.0
C526 C 0.62238 0.83148 0.87689 0.0
C527 C 0.62797 0.84057 0.93619 0.0
C528 C 0.64143 0.84894 0.83205 0.0
C529 C 0.6539 0.86661 0.95013 0.0
C530 C 0.67299 0.88418 0.90568 0.0
C531 C 0.6843 0.89464 0.8015 0.0
C532 C 0.6773 0.8868 0.74211 0.0
C533 C 0.66657 0.87592 0.8465 0.0
C534 C 0.65302 0.85915 0.72839 0.0
C535 C 0.63519 0.84044 0.77294 0.0
H536 H 0.112 0.72191 0.73188 0.0
H537 H 0.16474 0.65399 0.60257 0.0
H538 H 0.19989 0.62385 0.67962 0.0
H539 H 0.21092 0.61273 0.78414 0.0
H540 H 0.15773 0.6801 0.91365 0.0
H541 H 0.12773 0.71488 0.8359 0.0
C542 C 0.13151 0.70079 0.72041 0.0
C543 C 0.13544 0.68992 0.66155 0.0
C544 C 0.15135 0.68339 0.76499 0.0
C545 C 0.16114 0.66285 0.64744 0.0
C546 C 0.18111 0.64548 0.69154 0.0
C547 C 0.1931 0.63532 0.79541 0.0
C548 C 0.18625 0.64356 0.85467 0.0
C549 C 0.17572 0.6549 0.75054 0.0
C550 C 0.16346 0.67318 0.86847 0.0
C551 C 0.14614 0.69293 0.824 0.0
H552 H 0.3201 0.1042 0.73503 0.0
H553 H 0.38045 0.16212 0.6042 0.0
H554 H 0.41075 0.19643 0.68134 0.0
H555 H 0.42188 0.20789 0.7858 0.0
H556 H 0.36145 0.14976 0.91638 0.0
H557 H 0.32916 0.11762 0.83911 0.0
C558 C 0.3398 0.12442 0.7232 0.0
C559 C 0.34817 0.13042 0.6638 0.0
C560 C 0.35709 0.14391 0.76772 0.0
C561 C 0.37349 0.15697 0.64945 0.0
C562 C 0.39088 0.1765 0.69359 0.0
C563 C 0.40151 0.18832 0.7975 0.0
C564 C 0.39424 0.18111 0.85696 0.0
C565 C 0.38317 0.16989 0.75285 0.0
C566 C 0.36759 0.15585 0.87112 0.0
C567 C 0.3492 0.13739 0.82692 0.0
H568 H 0.88975 0.29143 0.78412 0.0
H569 H 0.83378 0.35616 0.65439 0.0
H570 H 0.79908 0.38671 0.73169 0.0
H571 H 0.78999 0.39994 0.83622 0.0
H572 H 0.84713 0.33643 0.96612 0.0
H573 H 0.87565 0.30012 0.88854 0.0
C574 C 0.86957 0.31184 0.77254 0.0
C575 C 0.86479 0.3218 0.71336 0.0
C576 C 0.85011 0.32968 0.81735 0.0
C577 C 0.83821 0.34803 0.69937 0.0
C578 C 0.81846 0.36565 0.74367 0.0
C579 C 0.80827 0.37779 0.84771 0.0
C580 C 0.81669 0.37119 0.90704 0.0
C581 C 0.825 0.35746 0.80284 0.0
C582 C 0.84013 0.34213 0.92099 0.0
C583 C 0.85664 0.32151 0.87655 0.0
loop_
_geom_bond_atom_site_label_1
_geom_bond_atom_site_label_2
_geom_bond_distance
_geom_bond_site_symmetry_2
_ccdc_geom_bond_type
C0 C1 1.351 . S
C0 N3 1.368 . S
C0 H5 0.931 . S
C1 C0 1.351 . S
C1 N2 1.373 1_556 S
C1 H29 0.930 . S
N2 C1 1.373 1_554 S
N2 C4 1.340 . S
N3 C0 1.368 . S
N3 C4 1.321 1_556 S
N3 Co6 2.133 1_556 S
C4 N2 1.340 . S
C4 N3 1.321 1_554 S
C4 H28 0.930 . S
H5 C0 0.931 . S
Co6 N3 2.133 1_554 S
Co6 N9 2.122 . S
Co6 O14 2.047 1_554 S
Co6 O17 2.047 . S
Co6 N20 2.141 . S
C7 O8 1.227 . S
C7 O17 1.265 . S
O8 C7 1.227 . S
N9 Co6 2.122 . S
N9 C11 1.375 . S
N9 C12 1.313 1_554 S
C10 C11 1.338 . S
C10 N13 1.376 . S
C10 H30 0.930 . S
C11 N9 1.375 . S
C11 C10 1.338 . S
C11 H15 0.931 . S
C12 N9 1.313 1_556 S
C12 N13 1.344 1_556 S
C12 H16 0.930 . S
N13 C10 1.376 . S
N13 C12 1.344 1_554 S
O14 Co6 2.047 1_556 S
O14 C18 1.253 . S
H15 C11 0.931 . S
H16 C12 0.930 . S
O17 Co6 2.047 . S
O17 C7 1.265 . S
C18 O14 1.253 . S
C18 O19 1.227 . S
O19 C18 1.227 . S
N20 Co6 2.141 . S
N20 C23 1.346 . S
N20 C24 1.345 1_554 S
C21 C22 1.387 . S
C21 C25 1.391 1_554 S
C22 C21 1.387 . S
C22 C23 1.369 . S
C22 H31 0.929 . S
C23 N20 1.346 . S
C23 C22 1.369 . S
C23 H26 0.928 . S
C24 N20 1.345 1_556 S
C24 C25 1.371 . S
C24 H27 0.931 . S
C25 C21 1.391 1_556 S
C25 C24 1.371 . S
C25 H32 0.930 . S
H26 C23 0.928 . S
H27 C24 0.931 . S
H28 C4 0.930 . S
H29 C1 0.930 . S
H30 C10 0.930 . S
H31 C22 0.929 . S
H32 C25 0.930 . S
C33 C34 1.351 . S
C33 N36 1.368 . S
C33 H38 0.931 . S
C34 C33 1.351 . S
C34 N35 1.373 1_556 S
C34 H62 0.930 . S
N35 C34 1.373 1_554 S
N35 C37 1.340 . S
N36 C33 1.368 . S
N36 C37 1.321 1_556 S
N36 Co39 2.133 1_556 S
C37 N35 1.340 . S
C37 N36 1.321 1_554 S
C37 H61 0.930 . S
H38 C33 0.931 . S
Co39 N36 2.133 1_554 S
Co39 N42 2.122 . S
Co39 O47 2.047 1_554 S
Co39 O50 2.047 . S
Co39 N53 2.141 . S
C40 O41 1.227 . S
C40 O50 1.265 . S
O41 C40 1.227 . S
N42 Co39 2.122 . S
N42 C44 1.375 . S
N42 C45 1.313 1_554 S
C43 C44 1.338 . S
C43 N46 1.376 . S
C43 H63 0.930 . S
C44 N42 1.375 . S
C44 C43 1.338 . S
C44 H48 0.931 . S
C45 N42 1.313 1_556 S
C45 N46 1.344 1_556 S
C45 H49 0.930 . S
N46 C43 1.376 . S
N46 C45 1.344 1_554 S
O47 Co39 2.047 1_556 S
O47 C51 1.253 . S
H48 C44 0.931 . S
H49 C45 0.930 . S
O50 Co39 2.047 . S
O50 C40 1.265 . S
C51 O47 1.253 . S
C51 O52 1.227 . S
O52 C51 1.227 . S
N53 Co39 2.141 . S
N53 C56 1.346 . S
N53 C57 1.345 1_554 S
C54 C55 1.387 . S
C54 C58 1.391 1_554 S
C55 C54 1.387 . S
C55 C56 1.369 . S
C55 H64 0.929 . S
C56 N53 1.346 . S
C56 C55 1.369 . S
C56 H59 0.928 . S
C57 N53 1.345 1_556 S
C57 C58 1.371 . S
C57 H60 0.931 . S
C58 C54 1.391 1_556 S
C58 C57 1.371 . S
C58 H65 0.930 . S
H59 C56 0.928 . S
H60 C57 0.931 . S
H61 C37 0.930 . S
H62 C34 0.930 . S
H63 C43 0.930 . S
H64 C55 0.929 . S
H65 C58 0.930 . S
C66 C67 1.351 . S
C66 N69 1.368 . S
C66 H71 0.931 . S
C67 C66 1.351 . S
C67 N68 1.373 1_556 S
C67 H95 0.930 . S
N68 C67 1.373 1_554 S
N68 C70 1.340 . S
N69 C66 1.368 . S
N69 C70 1.321 1_556 S
N69 Co72 2.133 1_556 S
C70 N68 1.340 . S
C70 N69 1.321 1_554 S
C70 H94 0.930 . S
H71 C66 0.931 . S
Co72 N69 2.133 1_554 S
Co72 N75 2.122 . S
Co72 O80 2.047 1_554 S
Co72 O83 2.047 . S
Co72 N86 2.141 . S
C73 O74 1.227 . S
C73 O83 1.265 . S
O74 C73 1.227 . S
N75 Co72 2.122 . S
N75 C77 1.375 . S
N75 C78 1.313 1_554 S
C76 C77 1.338 . S
C76 N79 1.376 . S
C76 H96 0.930 . S
C77 N75 1.375 . S
C77 C76 1.338 . S
C77 H81 0.931 . S
C78 N75 1.313 1_556 S
C78 N79 1.344 1_556 S
C78 H82 0.930 . S
N79 C76 1.376 . S
N79 C78 1.344 1_554 S
O80 Co72 2.047 1_556 S
O80 C84 1.253 . S
H81 C77 0.931 . S
H82 C78 0.930 . S
O83 Co72 2.047 . S
O83 C73 1.265 . S
C84 O80 1.253 . S
C84 O85 1.227 . S
O85 C84 1.227 . S
N86 Co72 2.141 . S
N86 C89 1.346 . S
N86 C90 1.345 1_554 S
C87 C88 1.387 . S
C87 C91 1.391 1_554 S
C88 C87 1.387 . S
C88 C89 1.369 . S
C88 H97 0.929 . S
C89 N86 1.346 . S
C89 C88 1.369 . S
C89 H92 0.928 . S
C90 N86 1.345 1_556 S
C90 C91 1.371 . S
C90 H93 0.931 . S
C91 C87 1.391 1_556 S
C91 C90 1.371 . S
C91 H98 0.930 . S
H92 C89 0.928 . S
H93 C90 0.931 . S
H94 C70 0.930 . S
H95 C67 0.930 . S
H96 C76 0.930 . S
H97 C88 0.929 . S
H98 C91 0.930 . S
C99 C100 1.351 . S
C99 N102 1.368 . S
C99 H104 0.931 . S
C100 C99 1.351 . S
C100 N101 1.373 1_556 S
C100 H128 0.930 . S
N101 C100 1.373 1_554 S
N101 C103 1.340 . S
N102 C99 1.368 . S
N102 C103 1.321 1_556 S
N102 Co105 2.133 1_556 S
C103 N101 1.340 . S
C103 N102 1.321 1_554 S
C103 H127 0.930 . S
H104 C99 0.931 . S
Co105 N102 2.133 1_554 S
Co105 N108 2.122 . S
Co105 O113 2.047 1_554 S
Co105 O116 2.047 . S
Co105 N119 2.141 . S
C106 O107 1.227 . S
C106 O116 1.265 . S
O107 C106 1.227 . S
N108 Co105 2.122 . S
N108 C110 1.375 . S
N108 C111 1.313 1_554 S
C109 C110 1.338 . S
C109 N112 1.376 . S
C109 H129 0.930 . S
C110 N108 1.375 . S
C110 C109 1.338 . S
C110 H114 0.931 . S
C111 N108 1.313 1_556 S
C111 N112 1.344 1_556 S
C111 H115 0.930 . S
N112 C109 1.376 . S
N112 C111 1.344 1_554 S
O113 Co105 2.047 1_556 S
O113 C117 1.253 . S
H114 C110 0.931 . S
H115 C111 0.930 . S
O116 Co105 2.047 . S
O116 C106 1.265 . S
C117 O113 1.253 . S
C117 O118 1.227 . S
O118 C117 1.227 . S
N119 Co105 2.141 . S
N119 C122 1.346 . S
N119 C123 1.345 1_554 S
C120 C121 1.387 . S
C120 C124 1.391 1_554 S
C121 C120 1.387 . S
C121 C122 1.369 . S
C121 H130 0.929 . S
C122 N119 1.346 . S
C122 C121 1.369 . S
C122 H125 0.928 . S
C123 N119 1.345 1_556 S
C123 C124 1.371 . S
C123 H126 0.931 . S
C124 C120 1.391 1_556 S
C124 C123 1.371 . S
C124 H131 0.930 . S
H125 C122 0.928 . S
H126 C123 0.931 . S
H127 C103 0.930 . S
H128 C100 0.930 . S
H129 C109 0.930 . S
H130 C121 0.929 . S
H131 C124 0.930 . S
C132 C133 1.351 . S
C132 N135 1.368 . S
C132 H137 0.931 . S
C133 C132 1.351 . S
C133 N134 1.373 . S
C133 H161 0.930 . S
N134 C133 1.373 . S
N134 C136 1.340 . S
N135 C132 1.368 . S
N135 C136 1.321 . S
N135 Co138 2.135 . S
C136 N134 1.340 . S
C136 N135 1.321 . S
C136 H160 0.930 . S
H137 C132 0.931 . S
Co138 N135 2.135 . S
Co138 N141 2.121 . S
Co138 O146 2.055 . S
Co138 O149 2.039 . S
Co138 N152 2.140 . S
C139 O140 1.227 . S
C139 O149 1.265 . S
O140 C139 1.227 . S
N141 Co138 2.121 . S
N141 C143 1.375 . S
N141 C144 1.313 . S
C142 C143 1.338 . S
C142 N145 1.377 . S
C142 H162 0.930 . S
C143 N141 1.375 . S
C143 C142 1.338 . S
C143 H147 0.931 . S
C144 N141 1.313 . S
C144 N145 1.344 . S
C144 H148 0.930 . S
N145 C142 1.377 . S
N145 C144 1.344 . S
O146 Co138 2.055 . S
O146 C150 1.253 . S
H147 C143 0.931 . S
H148 C144 0.930 . S
O149 Co138 2.039 . S
O149 C139 1.265 . S
C150 O146 1.253 . S
C150 O151 1.227 . S
O151 C150 1.227 . S
N152 Co138 2.140 . S
N152 C155 1.346 . S
N152 C156 1.345 . S
C153 C154 1.387 1_455 S
C153 C157 1.391 . S
C154 C153 1.387 1_655 S
C154 C155 1.369 . S
C154 H163 0.929 . S
C155 N152 1.346 . S
C155 C154 1.369 . S
C155 H158 0.928 . S
C156 N152 1.345 . S
C156 C157 1.371 1_655 S
C156 H159 0.931 . S
C157 C153 1.391 . S
C157 C156 1.371 1_455 S
C157 H164 0.930 . S
H158 C155 0.928 . S
H159 C156 0.931 . S
H160 C136 0.930 . S
H161 C133 0.930 . S
H162 C142 0.930 . S
H163 C154 0.929 . S
H164 C157 0.930 . S
C165 C166 1.351 . S
C165 N168 1.368 . S
C165 H170 0.931 . S
C166 C165 1.351 . S
C166 N167 1.373 . S
C166 H194 0.930 . S
N167 C166 1.373 . S
N167 C169 1.340 . S
N168 C165 1.368 . S
N168 C169 1.321 . S
N168 Co171 2.135 . S
C169 N167 1.340 . S
C169 N168 1.321 . S
C169 H193 0.930 . S
H170 C165 0.931 . S
Co171 N168 2.135 . S
Co171 N174 2.121 . S
Co171 O179 2.055 . S
Co171 O182 2.039 . S
Co171 N185 2.140 . S
C172 O173 1.227 . S
C172 O182 1.265 . S
O173 C172 1.227 . S
N174 Co171 2.121 . S
N174 C176 1.375 . S
N174 C177 1.313 . S
C175 C176 1.338 . S
C175 N178 1.377 . S
C175 H195 0.930 . S
C176 N174 1.375 . S
C176 C175 1.338 . S
C176 H180 0.931 . S
C177 N174 1.313 . S
C177 N178 1.344 . S
C177 H181 0.930 . S
N178 C175 1.377 . S
N178 C177 1.344 . S
O179 Co171 2.055 . S
O179 C183 1.253 . S
H180 C176 0.931 . S
H181 C177 0.930 . S
O182 Co171 2.039 . S
O182 C172 1.265 . S
C183 O179 1.253 . S
C183 O184 1.227 . S
O184 C183 1.227 . S
N185 Co171 2.140 . S
N185 C188 1.346 . S
N185 C189 1.345 . S
C186 C187 1.387 1_545 S
C186 C190 1.391 . S
C187 C186 1.387 1_565 S
C187 C188 1.369 . S
C187 H196 0.929 . S
C188 N185 1.346 . S
C188 C187 1.369 . S
C188 H191 0.928 . S
C189 N185 1.345 . S
C189 C190 1.371 1_565 S
C189 H192 0.931 . S
C190 C186 1.391 . S
C190 C189 1.371 1_545 S
C190 H197 0.930 . S
H191 C188 0.928 . S
H192 C189 0.931 . S
H193 C169 0.930 . S
H194 C166 0.930 . S
H195 C175 0.930 . S
H196 C187 0.929 . S
H197 C190 0.930 . S
C198 C199 1.351 . S
C198 N201 1.368 . S
C198 H203 0.931 . S
C199 C198 1.351 . S
C199 N200 1.373 . S
C199 H227 0.930 . S
N200 C199 1.373 . S
N200 C202 1.340 . S
N201 C198 1.368 . S
N201 C202 1.321 . S
N201 Co204 2.135 . S
C202 N200 1.340 . S
C202 N201 1.321 . S
C202 H226 0.930 . S
H203 C198 0.931 . S
Co204 N201 2.135 . S
Co204 N207 2.121 . S
Co204 O212 2.055 . S
Co204 O215 2.039 . S
Co204 N218 2.140 . S
C205 O206 1.227 . S
C205 O215 1.265 . S
O206 C205 1.227 . S
N207 Co204 2.121 . S
N207 C209 1.375 . S
N207 C210 1.313 . S
C208 C209 1.338 . S
C208 N211 1.377 . S
C208 H228 0.930 . S
C209 N207 1.375 . S
C209 C208 1.338 . S
C209 H213 0.931 . S
C210 N207 1.313 . S
C210 N211 1.344 . S
C210 H214 0.930 . S
N211 C208 1.377 . S
N211 C210 1.344 . S
O212 Co204 2.055 . S
O212 C216 1.253 . S
H213 C209 0.931 . S
H214 C210 0.930 . S
O215 Co204 2.039 . S
O215 C205 1.265 . S
C216 O212 1.253 . S
C216 O217 1.227 . S
O217 C216 1.227 . S
N218 Co204 2.140 . S
N218 C221 1.346 . S
N218 C222 1.345 . S
C219 C220 1.387 1_655 S
C219 C223 1.391 . S
C220 C219 1.387 1_455 S
C220 C221 1.369 . S
C220 H229 0.929 . S
C221 N218 1.346 . S
C221 C220 1.369 . S
C221 H224 0.928 . S
C222 N218 1.345 . S
C222 C223 1.371 1_455 S
C222 H225 0.931 . S
C223 C219 1.391 . S
C223 C222 1.371 1_655 S
C223 H230 0.930 . S
H224 C221 0.928 . S
H225 C222 0.931 . S
H226 C202 0.930 . S
H227 C199 0.930 . S
H228 C208 0.930 . S
H229 C220 0.929 . S
H230 C223 0.930 . S
C231 C232 1.351 . S
C231 N234 1.368 . S
C231 H236 0.931 . S
C232 C231 1.351 . S
C232 N233 1.373 . S
C232 H260 0.930 . S
N233 C232 1.373 . S
N233 C235 1.340 . S
N234 C231 1.368 . S
N234 C235 1.321 . S
N234 Co237 2.135 . S
C235 N233 1.340 . S
C235 N234 1.321 . S
C235 H259 0.930 . S
H236 C231 0.931 . S
Co237 N234 2.135 . S
Co237 N240 2.121 . S
Co237 O245 2.055 . S
Co237 O248 2.039 . S
Co237 N251 2.140 . S
C238 O239 1.227 . S
C238 O248 1.265 . S
O239 C238 1.227 . S
N240 Co237 2.121 . S
N240 C242 1.375 . S
N240 C243 1.313 . S
C241 C242 1.338 . S
C241 N244 1.377 . S
C241 H261 0.930 . S
C242 N240 1.375 . S
C242 C241 1.338 . S
C242 H246 0.931 . S
C243 N240 1.313 . S
C243 N244 1.344 . S
C243 H247 0.930 . S
N244 C241 1.377 . S
N244 C243 1.344 . S
O245 Co237 2.055 . S
O245 C249 1.253 . S
H246 C242 0.931 . S
H247 C243 0.930 . S
O248 Co237 2.039 . S
O248 C238 1.265 . S
C249 O245 1.253 . S
C249 O250 1.227 . S
O250 C249 1.227 . S
N251 Co237 2.140 . S
N251 C254 1.346 . S
N251 C255 1.345 . S
C252 C253 1.387 1_565 S
C252 C256 1.391 . S
C253 C252 1.387 1_545 S
C253 C254 1.369 . S
C253 H262 0.929 . S
C254 N251 1.346 . S
C254 C253 1.369 . S
C254 H257 0.928 . S
C255 N251 1.345 . S
C255 C256 1.371 1_545 S
C255 H258 0.931 . S
C256 C252 1.391 . S
C256 C255 1.371 1_565 S
C256 H263 0.930 . S
H257 C254 0.928 . S
H258 C255 0.931 . S
H259 C235 0.930 . S
H260 C232 0.930 . S
H261 C241 0.930 . S
H262 C253 0.929 . S
H263 C256 0.930 . S
H264 C270 0.930 . S
H265 C273 0.930 . S
H266 C274 0.930 . S
H267 C275 0.930 . S
H268 C278 0.930 . S
H269 C279 0.930 . S
C270 H264 0.930 . S
C270 C271 1.355 . S
C270 C272 1.415 . S
C271 C270 1.355 . S
C271 C273 1.419 1_556 S
C272 C270 1.415 . S
C272 C277 1.425 1_566 S
C272 C279 1.409 1_565 S
C273 H265 0.930 . S
C273 C271 1.419 1_554 S
C273 C274 1.362 . S
C274 H266 0.930 . S
C274 C273 1.362 . S
C274 C277 1.409 1_565 S
C275 H267 0.930 . S
C275 C276 1.355 1_554 S
C275 C277 1.415 . S
C276 C275 1.355 1_556 S
C276 C278 1.419 . S
C277 C272 1.425 1_544 S
C277 C274 1.409 1_545 S
C277 C275 1.415 . S
C278 H268 0.930 . S
C278 C276 1.419 . S
C278 C279 1.362 . S
C279 H269 0.930 . S
C279 C272 1.409 1_545 S
C279 C278 1.362 . S
H280 C286 0.930 . S
H281 C289 0.930 . S
H282 C290 0.930 . S
H283 C291 0.930 . S
H284 C294 0.930 . S
H285 C295 0.930 . S
C286 H280 0.930 . S
C286 C287 1.355 . S
C286 C288 1.388 1_655 S
C287 C286 1.355 . S
C287 C289 1.419 . S
C288 C286 1.388 1_455 S
C288 C293 1.424 1_455 S
C288 C295 1.437 . S
C289 H281 0.930 . S
C289 C287 1.419 . S
C289 C290 1.362 . S
C290 H282 0.930 . S
C290 C289 1.362 . S
C290 C293 1.437 . S
C291 H283 0.930 . S
C291 C292 1.355 . S
C291 C293 1.388 1_455 S
C292 C291 1.355 . S
C292 C294 1.419 . S
C293 C288 1.424 1_655 S
C293 C290 1.437 . S
C293 C291 1.388 1_655 S
C294 H284 0.930 . S
C294 C292 1.419 . S
C294 C295 1.362 . S
C295 H285 0.930 . S
C295 C288 1.437 . S
C295 C294 1.362 . S
H296 C302 0.930 . S
H297 C305 0.930 1_455 S
H298 C306 0.930 . S
H299 C307 0.930 . S
H300 C310 0.930 1_655 S
H301 C311 0.930 . S
C302 H296 0.930 . S
C302 C303 1.355 . S
C302 C304 1.415 . S
C303 C302 1.355 . S
C303 C305 1.419 . S
C304 C302 1.415 . S
C304 C309 1.425 1_655 S
C304 C311 1.409 . S
C305 H297 0.930 1_655 S
C305 C303 1.419 . S
C305 C306 1.362 1_655 S
C306 H298 0.930 . S
C306 C305 1.362 1_455 S
C306 C309 1.409 . S
C307 H299 0.930 . S
C307 C308 1.355 . S
C307 C309 1.415 . S
C308 C307 1.355 . S
C308 C310 1.419 . S
C309 C304 1.425 1_455 S
C309 C306 1.409 . S
C309 C307 1.415 . S
C310 H300 0.930 1_455 S
C310 C308 1.419 . S
C310 C311 1.362 1_455 S
C311 H301 0.930 . S
C311 C304 1.409 . S
C311 C310 1.362 1_655 S
H312 C318 0.930 1_545 S
H313 C321 0.930 . S
H314 C322 0.930 . S
H315 C323 0.930 1_565 S
H316 C326 0.930 . S
H317 C327 0.930 . S
C318 H312 0.930 1_565 S
C318 C319 1.355 . S
C318 C320 1.415 1_565 S
C319 C318 1.355 . S
C319 C321 1.419 . S
C320 C318 1.415 1_545 S
C320 C325 1.425 1_545 S
C320 C327 1.409 . S
C321 H313 0.930 . S
C321 C319 1.419 . S
C321 C322 1.362 . S
C322 H314 0.930 . S
C322 C321 1.362 . S
C322 C325 1.409 . S
C323 H315 0.930 1_545 S
C323 C324 1.355 . S
C323 C325 1.415 1_545 S
C324 C323 1.355 . S
C324 C326 1.419 . S
C325 C320 1.425 1_565 S
C325 C322 1.409 . S
C325 C323 1.415 1_565 S
C326 H316 0.930 . S
C326 C324 1.419 . S
C326 C327 1.362 . S
C327 H317 0.930 . S
C327 C320 1.409 . S
C327 C326 1.362 . S
H328 C334 0.930 . S
H329 C337 0.930 . S
H330 C338 0.930 . S
H331 C339 0.930 . S
H332 C342 0.930 . S
H333 C343 0.930 . S
C334 H328 0.930 . S
C334 C335 1.355 . S
C334 C336 1.415 . S
C335 C334 1.355 . S
C335 C337 1.419 1_554 S
C336 C334 1.415 . S
C336 C341 1.425 1_554 S
C336 C343 1.409 . S
C337 H329 0.930 . S
C337 C335 1.419 1_556 S
C337 C338 1.362 . S
C338 H330 0.930 . S
C338 C337 1.362 . S
C338 C341 1.409 . S
C339 H331 0.930 . S
C339 C340 1.355 1_556 S
C339 C341 1.415 . S
C340 C339 1.355 1_554 S
C340 C342 1.419 . S
C341 C336 1.425 1_556 S
C341 C338 1.409 . S
C341 C339 1.415 . S
C342 H332 0.930 . S
C342 C340 1.419 . S
C342 C343 1.362 . S
C343 H333 0.930 . S
C343 C336 1.409 . S
C343 C342 1.362 . S
H344 C350 0.930 . S
H345 C353 0.930 . S
H346 C354 0.930 . S
H347 C355 0.930 1_556 S
H348 C358 0.930 . S
H349 C359 0.930 . S
C350 H344 0.930 . S
C350 C351 1.355 . S
C350 C352 1.415 . S
C351 C350 1.355 . S
C351 C353 1.419 1_554 S
C352 C350 1.415 . S
C352 C357 1.425 . S
C352 C359 1.409 . S
C353 H345 0.930 . S
C353 C351 1.419 1_556 S
C353 C354 1.362 . S
C354 H346 0.930 . S
C354 C353 1.362 . S
C354 C357 1.409 1_556 S
C355 H347 0.930 1_554 S
C355 C356 1.355 . S
C355 C357 1.415 . S
C356 C355 1.355 . S
C356 C358 1.419 . S
C357 C352 1.425 . S
C357 C354 1.409 1_554 S
C357 C355 1.415 . S
C358 H348 0.930 . S
C358 C356 1.419 . S
C358 C359 1.362 . S
C359 H349 0.930 . S
C359 C352 1.409 . S
C359 C358 1.362 . S
H360 C366 0.930 . S
H361 C369 0.930 . S
H362 C370 0.930 . S
H363 C371 0.930 . S
H364 C374 0.930 . S
H365 C375 0.930 . S
C366 H360 0.930 . S
C366 C367 1.355 . S
C366 C368 1.415 . S
C367 C366 1.355 . S
C367 C369 1.419 . S
C368 C366 1.415 . S
C368 C373 1.425 . S
C368 C375 1.409 . S
C369 H361 0.930 . S
C369 C367 1.419 . S
C369 C370 1.362 . S
C370 H362 0.930 . S
C370 C369 1.362 . S
C370 C373 1.409 . S
C371 H363 0.930 . S
C371 C372 1.355 . S
C371 C373 1.415 . S
C372 C371 1.355 . S
C372 C374 1.419 . S
C373 C368 1.425 . S
C373 C370 1.409 . S
C373 C371 1.415 . S
C374 H364 0.930 . S
C374 C372 1.419 . S
C374 C375 1.362 . S
C375 H365 0.930 . S
C375 C368 1.409 . S
C375 C374 1.362 . S
H376 C382 0.930 . S
H377 C385 0.930 . S
H378 C386 0.930 . S
H379 C387 0.930 . S
H380 C390 0.930 . S
H381 C391 0.930 . S
C382 H376 0.930 . S
C382 C383 1.355 . S
C382 C384 1.415 . S
C383 C382 1.355 . S
C383 C385 1.419 1_554 S
C384 C382 1.415 . S
C384 C389 1.425 1_554 S
C384 C391 1.409 . S
C385 H377 0.930 . S
C385 C383 1.419 1_556 S
C385 C386 1.362 . S
C386 H378 0.930 . S
C386 C385 1.362 . S
C386 C389 1.409 . S
C387 H379 0.930 . S
C387 C388 1.355 1_556 S
C387 C389 1.415 . S
C388 C387 1.355 1_554 S
C388 C390 1.419 . S
C389 C384 1.425 1_556 S
C389 C386 1.409 . S
C389 C387 1.415 . S
C390 H380 0.930 . S
C390 C388 1.419 . S
C390 C391 1.362 . S
C391 H381 0.930 . S
C391 C384 1.409 . S
C391 C390 1.362 . S
H392 C398 0.930 . S
H393 C401 0.930 . S
H394 C402 0.930 . S
H395 C403 0.930 . S
H396 C406 0.930 . S
H397 C407 0.930 . S
C398 H392 0.930 . S
C398 C399 1.355 . S
C398 C400 1.415 . S
C399 C398 1.355 . S
C399 C401 1.419 . S
C400 C398 1.415 . S
C400 C405 1.425 . S
C400 C407 1.409 . S
C401 H393 0.930 . S
C401 C399 1.419 . S
C401 C402 1.362 . S
C402 H394 0.930 . S
C402 C401 1.362 . S
C402 C405 1.409 . S
C403 H395 0.930 . S
C403 C404 1.355 . S
C403 C405 1.415 . S
C404 C403 1.355 . S
C404 C406 1.419 . S
C405 C400 1.425 . S
C405 C402 1.409 . S
C405 C403 1.415 . S
C406 H396 0.930 . S
C406 C404 1.419 . S
C406 C407 1.362 . S
C407 H397 0.930 . S
C407 C400 1.409 . S
C407 C406 1.362 . S
H408 C414 0.930 . S
H409 C417 0.930 . S
H410 C418 0.930 . S
H411 C419 0.930 . S
H412 C422 0.930 . S
H413 C423 0.930 . S
C414 H408 0.930 . S
C414 C415 1.355 . S
C414 C416 1.415 . S
C415 C414 1.355 . S
C415 C417 1.419 . S
C416 C414 1.415 . S
C416 C421 1.425 . S
C416 C423 1.409 . S
C417 H409 0.930 . S
C417 C415 1.419 . S
C417 C418 1.362 . S
C418 H410 0.930 . S
C418 C417 1.362 . S
C418 C421 1.409 . S
C419 H411 0.930 . S
C419 C420 1.355 . S
C419 C421 1.415 . S
C420 C419 1.355 . S
C420 C422 1.419 . S
C421 C416 1.425 . S
C421 C418 1.409 . S
C421 C419 1.415 . S
C422 H412 0.930 . S
C422 C420 1.419 . S
C422 C423 1.362 . S
C423 H413 0.930 . S
C423 C416 1.409 . S
C423 C422 1.362 . S
H424 C430 0.930 . S
H425 C433 0.930 . S
H426 C434 0.930 . S
H427 C435 0.930 . S
H428 C438 0.930 . S
H429 C439 0.930 . S
C430 H424 0.930 . S
C430 C431 1.355 . S
C430 C432 1.415 . S
C431 C430 1.355 . S
C431 C433 1.419 . S
C432 C430 1.415 . S
C432 C437 1.425 . S
C432 C439 1.409 . S
C433 H425 0.930 . S
C433 C431 1.419 . S
C433 C434 1.362 . S
C434 H426 0.930 . S
C434 C433 1.362 . S
C434 C437 1.409 . S
C435 H427 0.930 . S
C435 C436 1.355 . S
C435 C437 1.415 . S
C436 C435 1.355 . S
C436 C438 1.419 . S
C437 C432 1.425 . S
C437 C434 1.409 . S
C437 C435 1.415 . S
C438 H428 0.930 . S
C438 C436 1.419 . S
C438 C439 1.362 . S
C439 H429 0.930 . S
C439 C432 1.409 . S
C439 C438 1.362 . S
H440 C446 0.930 . S
H441 C449 0.930 . S
H442 C450 0.930 . S
H443 C451 0.930 . S
H444 C454 0.930 . S
H445 C455 0.930 . S
C446 H440 0.930 . S
C446 C447 1.355 . S
C446 C448 1.415 . S
C447 C446 1.355 . S
C447 C449 1.419 . S
C448 C446 1.415 . S
C448 C453 1.425 . S
C448 C455 1.409 . S
C449 H441 0.930 . S
C449 C447 1.419 . S
C449 C450 1.362 . S
C450 H442 0.930 . S
C450 C449 1.362 . S
C450 C453 1.409 . S
C451 H443 0.930 . S
C451 C452 1.355 . S
C451 C453 1.415 . S
C452 C451 1.355 . S
C452 C454 1.419 . S
C453 C448 1.425 . S
C453 C450 1.409 . S
C453 C451 1.415 . S
C454 H444 0.930 . S
C454 C452 1.419 . S
C454 C455 1.362 . S
C455 H445 0.930 . S
C455 C448 1.409 . S
C455 C454 1.362 . S
H456 C462 0.930 . S
H457 C465 0.930 . S
H458 C466 0.930 . S
H459 C467 0.930 . S
H460 C470 0.930 . S
H461 C471 0.930 . S
C462 H456 0.930 . S
C462 C463 1.355 . S
C462 C464 1.415 . S
C463 C462 1.355 . S
C463 C465 1.419 . S
C464 C462 1.415 . S
C464 C469 1.425 . S
C464 C471 1.409 . S
C465 H457 0.930 . S
C465 C463 1.419 . S
C465 C466 1.362 . S
C466 H458 0.930 . S
C466 C465 1.362 . S
C466 C469 1.409 . S
C467 H459 0.930 . S
C467 C468 1.355 . S
C467 C469 1.415 . S
C468 C467 1.355 . S
C468 C470 1.419 . S
C469 C464 1.425 . S
C469 C466 1.409 . S
C469 C467 1.415 . S
C470 H460 0.930 . S
C470 C468 1.419 . S
C470 C471 1.362 . S
C471 H461 0.930 . S
C471 C464 1.409 . S
C471 C470 1.362 . S
H472 C478 0.930 . S
H473 C481 0.930 . S
H474 C482 0.930 . S
H475 C483 0.930 . S
H476 C486 0.930 . S
H477 C487 0.930 . S
C478 H472 0.930 . S
C478 C479 1.355 . S
C478 C480 1.415 . S
C479 C478 1.355 . S
C479 C481 1.419 . S
C480 C478 1.415 . S
C480 C485 1.425 . S
C480 C487 1.409 . S
C481 H473 0.930 . S
C481 C479 1.419 . S
C481 C482 1.362 . S
C482 H474 0.930 . S
C482 C481 1.362 . S
C482 C485 1.409 . S
C483 H475 0.930 . S
C483 C484 1.355 . S
C483 C485 1.415 . S
C484 C483 1.355 . S
C484 C486 1.419 . S
C485 C480 1.425 . S
C485 C482 1.409 . S
C485 C483 1.415 . S
C486 H476 0.930 . S
C486 C484 1.419 . S
C486 C487 1.362 . S
C487 H477 0.930 . S
C487 C480 1.409 . S
C487 C486 1.362 . S
H488 C494 0.930 . S
H489 C497 0.930 . S
H490 C498 0.930 . S
H491 C499 0.930 . S
H492 C502 0.930 . S
H493 C503 0.930 . S
C494 H488 0.930 . S
C494 C495 1.355 . S
C494 C496 1.415 . S
C495 C494 1.355 . S
C495 C497 1.419 . S
C496 C494 1.415 . S
C496 C501 1.425 . S
C496 C503 1.409 . S
C497 H489 0.930 . S
C497 C495 1.419 . S
C497 C498 1.362 . S
C498 H490 0.930 . S
C498 C497 1.362 . S
C498 C501 1.409 . S
C499 H491 0.930 . S
C499 C500 1.355 . S
C499 C501 1.415 . S
C500 C499 1.355 . S
C500 C502 1.419 . S
C501 C496 1.425 . S
C501 C498 1.409 . S
C501 C499 1.415 . S
C502 H492 0.930 . S
C502 C500 1.419 . S
C502 C503 1.362 . S
C503 H493 0.930 . S
C503 C496 1.409 . S
C503 C502 1.362 . S
H504 C510 0.930 . S
H505 C513 0.930 . S
H506 C514 0.930 . S
H507 C515 0.930 . S
H508 C518 0.930 . S
H509 C519 0.930 . S
C510 H504 0.930 . S
C510 C511 1.355 . S
C510 C512 1.415 . S
C511 C510 1.355 . S
C511 C513 1.419 . S
C512 C510 1.415 . S
C512 C517 1.425 . S
C512 C519 1.409 . S
C513 H505 0.930 . S
C513 C511 1.419 . S
C513 C514 1.362 . S
C514 H506 0.930 . S
C514 C513 1.362 . S
C514 C517 1.409 . S
C515 H507 0.930 . S
C515 C516 1.355 . S
C515 C517 1.415 . S
C516 C515 1.355 . S
C516 C518 1.419 . S
C517 C512 1.425 . S
C517 C514 1.409 . S
C517 C515 1.415 . S
C518 H508 0.930 . S
C518 C516 1.419 . S
C518 C519 1.362 . S
C519 H509 0.930 . S
C519 C512 1.409 . S
C519 C518 1.362 . S
H520 C526 0.930 . S
H521 C529 0.930 . S
H522 C530 0.930 . S
H523 C531 0.930 . S
H524 C534 0.930 . S
H525 C535 0.930 . S
C526 H520 0.930 . S
C526 C527 1.355 . S
C526 C528 1.415 . S
C527 C526 1.355 . S
C527 C529 1.419 . S
C528 C526 1.415 . S
C528 C533 1.425 . S
C528 C535 1.409 . S
C529 H521 0.930 . S
C529 C527 1.419 . S
C529 C530 1.362 . S
C530 H522 0.930 . S
C530 C529 1.362 . S
C530 C533 1.409 . S
C531 H523 0.930 . S
C531 C532 1.355 . S
C531 C533 1.415 . S
C532 C531 1.355 . S
C532 C534 1.419 . S
C533 C528 1.425 . S
C533 C530 1.409 . S
C533 C531 1.415 . S
C534 H524 0.930 . S
C534 C532 1.419 . S
C534 C535 1.362 . S
C535 H525 0.930 . S
C535 C528 1.409 . S
C535 C534 1.362 . S
H536 C542 0.930 . S
H537 C545 0.930 . S
H538 C546 0.930 . S
H539 C547 0.930 . S
H540 C550 0.930 . S
H541 C551 0.930 . S
C542 H536 0.930 . S
C542 C543 1.355 . S
C542 C544 1.415 . S
C543 C542 1.355 . S
C543 C545 1.419 . S
C544 C542 1.415 . S
C544 C549 1.425 . S
C544 C551 1.409 . S
C545 H537 0.930 . S
C545 C543 1.419 . S
C545 C546 1.362 . S
C546 H538 0.930 . S
C546 C545 1.362 . S
C546 C549 1.409 . S
C547 H539 0.930 . S
C547 C548 1.355 . S
C547 C549 1.415 . S
C548 C547 1.355 . S
C548 C550 1.419 . S
C549 C544 1.425 . S
C549 C546 1.409 . S
C549 C547 1.415 . S
C550 H540 0.930 . S
C550 C548 1.419 . S
C550 C551 1.362 . S
C551 H541 0.930 . S
C551 C544 1.409 . S
C551 C550 1.362 . S
H552 C558 0.930 . S
H553 C561 0.930 . S
H554 C562 0.930 . S
H555 C563 0.930 . S
H556 C566 0.930 . S
H557 C567 0.930 . S
C558 H552 0.930 . S
C558 C559 1.355 . S
C558 C560 1.415 . S
C559 C558 1.355 . S
C559 C561 1.419 . S
C560 C558 1.415 . S
C560 C565 1.425 . S
C560 C567 1.409 . S
C561 H553 0.930 . S
C561 C559 1.419 . S
C561 C562 1.362 . S
C562 H554 0.930 . S
C562 C561 1.362 . S
C562 C565 1.409 . S
C563 H555 0.930 . S
C563 C564 1.355 . S
C563 C565 1.415 . S
C564 C563 1.355 . S
C564 C566 1.419 . S
C565 C560 1.425 . S
C565 C562 1.409 . S
C565 C563 1.415 . S
C566 H556 0.930 . S
C566 C564 1.419 . S
C566 C567 1.362 . S
C567 H557 0.930 . S
C567 C560 1.409 . S
C567 C566 1.362 . S
H568 C574 0.930 . S
H569 C577 0.930 . S
H570 C578 0.930 . S
H571 C579 0.930 . S
H572 C582 0.930 . S
H573 C583 0.930 . S
C574 H568 0.930 . S
C574 C575 1.355 . S
C574 C576 1.415 . S
C575 C574 1.355 . S
C575 C577 1.419 . S
C576 C574 1.415 . S
C576 C581 1.425 . S
C576 C583 1.409 . S
C577 H569 0.930 . S
C577 C575 1.419 . S
C577 C578 1.362 . S
C578 H570 0.930 . S
C578 C577 1.362 . S
C578 C581 1.409 . S
C579 H571 0.930 . S
C579 C580 1.355 . S
C579 C581 1.415 . S
C580 C579 1.355 . S
C580 C582 1.419 . S
C581 C576 1.425 . S
C581 C578 1.409 . S
C581 C579 1.415 . S
C582 H572 0.930 . S
C582 C580 1.419 . S
C582 C583 1.362 . S
C583 H573 0.930 . S
C583 C576 1.409 . S
C583 C582 1.362 . S
C271 N79 1.266 1_556 S
C276 N13 1.335 1_556 S
C287 N46 1.296 1_556 S
C292 N112 1.313 1_556 S
C303 N145 1.266 . S
C308 N211 1.337 . S
C319 N178 1.275 . S
C324 N244 1.323 . S
C335 C120 1.548 . S
C340 N2 1.531 . S
C351 C21 1.545 . S
C356 N35 1.520 . S
C367 N68 1.485 . S
C372 C54 1.545 . S
C383 N101 1.471 . S
C388 C87 1.553 . S
C399 C186 1.553 . S
C404 N134 1.517 . S
C415 C219 1.544 . S
C420 N167 1.515 . S
C431 C252 1.549 . S
C436 N200 1.464 . S
C447 C153 1.554 . S
C452 N233 1.492 . S
C463 C7 1.524 . S
C468 C238 1.526 . S
C479 C40 1.523 . S
C484 C139 1.518 . S
C495 C172 1.522 . S
C500 C73 1.527 . S
C511 C205 1.518 . S
C516 C106 1.526 . S
C527 C84 1.462 . S
C532 C183 1.470 . S
C543 C216 1.452 . S
C548 C117 1.463 . S
C559 C249 1.467 . S
C564 C18 1.455 . S
C575 C150 1.470 . S
C580 C51 1.463 . S
