# Generated by pormake.
# Topology lcy-e, (6)-cn, num edge types: 1
# Building blocks:
#     Node 0, Type 0, BuildingBlock: CUWYAW_clean_sbu_0, # of connection points: 6
#     Node 1, Type 0, BuildingBlock: CUWYAW_clean_sbu_0, # of connection points: 6
#     Node 2, Type 0, BuildingBlock: CUWYAW_clean_sbu_0, # of connection points: 6
#     Node 3, Type 0, BuildingBlock: CUWYAW_clean_sbu_0, # of connection points: 6
#     Node 4, Type 0, BuildingBlock: CUWYAW_clean_sbu_0, # of connection points: 6
#     Node 5, Type 0, BuildingBlock: CUWYAW_clean_sbu_0, # of connection points: 6
#     Node 6, Type 0, BuildingBlock: CUWYAW_clean_sbu_0, # of connection points: 6
#     Node 7, Type 0, BuildingBlock: CUWYAW_clean_sbu_0, # of connection points: 6
#     Node 8, Type 0, BuildingBlock: CUWYAW_clean_sbu_0, # of connection points: 6
#     Node 9, Type 0, BuildingBlock: CUWYAW_clean_sbu_0, # of connection points: 6
#     Node 10, Type 0, BuildingBlock: CUWYAW_clean_sbu_0, # of connection points: 6
#     Node 11, Type 0, BuildingBlock: CUWYAW_clean_sbu_0, # of connection points: 6
#     Edge 12, Type (0, 0), BuildingBlock: XUDNAN_clean_linker_2, # of connection points: 2
#     Edge 13, Type (0, 0), BuildingBlock: XUDNAN_clean_linker_2, # of connection points: 2
#     Edge 14, Type (0, 0), BuildingBlock: XUDNAN_clean_linker_2, # of connection points: 2
#     Edge 15, Type (0, 0), BuildingBlock: XUDNAN_clean_linker_2, # of connection points: 2
#     Edge 16, Type (0, 0), BuildingBlock: XUDNAN_clean_linker_2, # of connection points: 2
#     Edge 17, Type (0, 0), BuildingBlock: XUDNAN_clean_linker_2, # of connection points: 2
#     Edge 18, Type (0, 0), BuildingBlock: XUDNAN_clean_linker_2, # of connection points: 2
#     Edge 19, Type (0, 0), BuildingBlock: XUDNAN_clean_linker_2, # of connection points: 2
#     Edge 20, Type (0, 0), BuildingBlock: XUDNAN_clean_linker_2, # of connection points: 2
#     Edge 21, Type (0, 0), BuildingBlock: XUDNAN_clean_linker_2, # of connection points: 2
#     Edge 22, Type (0, 0), BuildingBlock: XUDNAN_clean_linker_2, # of connection points: 2
#     Edge 23, Type (0, 0), BuildingBlock: XUDNAN_clean_linker_2, # of connection points: 2
#     Edge 24, Type (0, 0), BuildingBlock: XUDNAN_clean_linker_2, # of connection points: 2
#     Edge 25, Type (0, 0), BuildingBlock: XUDNAN_clean_linker_2, # of connection points: 2
#     Edge 26, Type (0, 0), BuildingBlock: XUDNAN_clean_linker_2, # of connection points: 2
#     Edge 27, Type (0, 0), BuildingBlock: XUDNAN_clean_linker_2, # of connection points: 2
#     Edge 28, Type (0, 0), BuildingBlock: XUDNAN_clean_linker_2, # of connection points: 2
#     Edge 29, Type (0, 0), BuildingBlock: XUDNAN_clean_linker_2, # of connection points: 2
#     Edge 30, Type (0, 0), BuildingBlock: XUDNAN_clean_linker_2, # of connection points: 2
#     Edge 31, Type (0, 0), BuildingBlock: XUDNAN_clean_linker_2, # of connection points: 2
#     Edge 32, Type (0, 0), BuildingBlock: XUDNAN_clean_linker_2, # of connection points: 2
#     Edge 33, Type (0, 0), BuildingBlock: XUDNAN_clean_linker_2, # of connection points: 2
#     Edge 34, Type (0, 0), BuildingBlock: XUDNAN_clean_linker_2, # of connection points: 2
#     Edge 35, Type (0, 0), BuildingBlock: XUDNAN_clean_linker_2, # of connection points: 2
#     Edge 36, Type (0, 0), BuildingBlock: XUDNAN_clean_linker_2, # of connection points: 2
#     Edge 37, Type (0, 0), BuildingBlock: XUDNAN_clean_linker_2, # of connection points: 2
#     Edge 38, Type (0, 0), BuildingBlock: XUDNAN_clean_linker_2, # of connection points: 2
#     Edge 39, Type (0, 0), BuildingBlock: XUDNAN_clean_linker_2, # of connection points: 2
#     Edge 40, Type (0, 0), BuildingBlock: XUDNAN_clean_linker_2, # of connection points: 2
#     Edge 41, Type (0, 0), BuildingBlock: XUDNAN_clean_linker_2, # of connection points: 2
#     Edge 42, Type (0, 0), BuildingBlock: XUDNAN_clean_linker_2, # of connection points: 2
#     Edge 43, Type (0, 0), BuildingBlock: XUDNAN_clean_linker_2, # of connection points: 2
#     Edge 44, Type (0, 0), BuildingBlock: XUDNAN_clean_linker_2, # of connection points: 2
#     Edge 45, Type (0, 0), BuildingBlock: XUDNAN_clean_linker_2, # of connection points: 2
#     Edge 46, Type (0, 0), BuildingBlock: XUDNAN_clean_linker_2, # of connection points: 2
#     Edge 47, Type (0, 0), BuildingBlock: XUDNAN_clean_linker_2, # of connection points: 2
# Relax obj value: 0.182
# Max RMSD: 0.288
# Mean RMSD: 0.270
data_MOF--net-lcy-e--node1-CUWYAW_clean_sbu_0--edge1-XUDNAN_clean_linker_2
_symmetry_space_group_name_H-M    P1
_symmetry_Int_Tables_number       1
_symmetry_cell_setting            triclinic
loop_
_symmetry_equiv_pos_as_xyz
'x, y, z'
_cell_length_a     42.048784
_cell_length_b     45.137245
_cell_length_c     45.210865
_cell_angle_alpha  91.147543
_cell_angle_beta   90.778781
_cell_angle_gamma 88.665444
loop_
_atom_site_label
_atom_site_type_symbol
_atom_site_fract_x
_atom_site_fract_y
_atom_site_fract_z
_atom_type_partial_charge
C0 C 0.10533 0.32593 0.46257 0.0
Eu1 Eu 0.11597 0.29997 0.51316 0.0
C2 C 0.1226 0.34126 0.43921 0.0
C3 C 0.10623 0.34972 0.41336 0.0
C4 C 0.12222 0.36305 0.39026 0.0
C5 C 0.15511 0.36812 0.39238 0.0
C6 C 0.17137 0.35988 0.41858 0.0
C7 C 0.15528 0.34668 0.44177 0.0
C8 C 0.0893 0.30759 0.56767 0.0
C9 C 0.17211 0.3192 0.55677 0.0
C10 C 0.14381 0.22599 0.61288 0.0
Eu11 Eu 0.13922 0.2557 0.56407 0.0
C12 C 0.12789 0.20169 0.62777 0.0
C13 C 0.11156 0.1798 0.61149 0.0
C14 C 0.10206 0.15387 0.62516 0.0
C15 C 0.10897 0.14935 0.65528 0.0
C16 C 0.12335 0.17228 0.67185 0.0
C17 C 0.13273 0.19815 0.65821 0.0
C18 C 0.17914 0.25177 0.51628 0.0
C19 C 0.08155 0.23539 0.51896 0.0
O20 O 0.11146 0.2975 0.46506 0.0
O21 O 0.10258 0.33955 0.48832 0.0
O22 O 0.09444 0.3294 0.55009 0.0
O23 O 0.09631 0.28335 0.5548 0.0
O24 O 0.16264 0.31862 0.52872 0.0
O25 O 0.16225 0.29978 0.57617 0.0
O26 O 0.12893 0.25179 0.61132 0.0
O27 O 0.15853 0.21847 0.58847 0.0
O28 O 0.18299 0.23636 0.53999 0.0
O29 O 0.15463 0.26784 0.51974 0.0
O30 O 0.10042 0.22894 0.54184 0.0
O31 O 0.08305 0.26085 0.50474 0.0
H32 H 0.08104 0.34564 0.41084 0.0
H33 H 0.10891 0.36867 0.3704 0.0
H34 H 0.19658 0.36375 0.42126 0.0
H35 H 0.16838 0.34052 0.46158 0.0
H36 H 0.10769 0.18203 0.5879 0.0
H37 H 0.09116 0.13663 0.61176 0.0
H38 H 0.12856 0.16966 0.6952 0.0
H39 H 0.14525 0.21474 0.67119 0.0
C40 C 0.10313 0.89485 0.81378 0.0
Eu41 Eu 0.05191 0.90585 0.78251 0.0
C42 C 0.12422 0.87388 0.83015 0.0
C43 C 0.1235 0.87372 0.86121 0.0
C44 C 0.14743 0.85903 0.87738 0.0
C45 C 0.17282 0.84429 0.86291 0.0
C46 C 0.17256 0.84299 0.83178 0.0
C47 C 0.14859 0.85773 0.81557 0.0
C48 C 1.00338 0.94549 0.79363 0.0
C49 C 0.99404 0.86181 0.79195 0.0
C50 C 0.94066 0.92064 0.70671 0.0
Eu51 Eu 0.99239 0.9073 0.73628 0.0
C52 C 0.93205 0.9268 0.67556 0.0
C53 C 0.95502 0.93539 0.65531 0.0
C54 C 0.9462 0.9423 0.62614 0.0
C55 C 0.91423 0.94078 0.61661 0.0
C56 C 0.89148 0.93164 0.63696 0.0
C57 C 0.90031 0.92479 0.66607 0.0
C58 C 0.04153 0.87189 0.71588 0.0
C59 C 0.05024 0.95471 0.73181 0.0
O60 O 0.10217 0.89319 0.78476 0.0
O61 O 0.07586 0.90317 0.82545 0.0
O62 O 0.0328 0.94999 0.80144 0.0
O63 O 1.00111 0.91988 0.78281 0.0
O64 O 0.02518 0.86505 0.79432 0.0
O65 O 0.97572 0.87811 0.77389 0.0
O66 O 0.95833 0.94043 0.72032 0.0
O67 O 0.94941 0.89325 0.71273 0.0
O68 O 0.01538 0.87662 0.70109 0.0
O69 O 0.03971 0.88647 0.7396 0.0
O70 O 0.01991 0.94894 0.72608 0.0
O71 O 0.06833 0.93813 0.74935 0.0
H72 H 0.10526 0.88615 0.87315 0.0
H73 H 0.14657 0.86002 0.90131 0.0
H74 H 0.19181 0.83199 0.81991 0.0
H75 H 0.15011 0.85769 0.79168 0.0
H76 H 0.97971 0.93709 0.66217 0.0
H77 H 0.96435 0.94944 0.61126 0.0
H78 H 0.86676 0.9296 0.63038 0.0
H79 H 0.88224 0.9181 0.68127 0.0
C80 C 0.40136 0.7164 0.94999 0.0
Eu81 Eu 0.39889 0.74455 1.00064 0.0
C82 C 0.38044 0.70437 0.92628 0.0
C83 C 0.37599 0.67369 0.92403 0.0
C84 C 0.35982 0.66144 0.89975 0.0
C85 C 0.34799 0.67954 0.87696 0.0
C86 C 0.35105 0.7104 0.87987 0.0
C87 C 0.36724 0.72271 0.90424 0.0
C88 C 0.42388 0.7336 0.05495 0.0
C89 C 0.3449 0.73878 0.0469 0.0
C90 C 0.39524 0.83012 0.09748 0.0
Eu91 Eu 0.38887 0.79693 0.05008 0.0
C92 C 0.39665 0.86145 0.10714 0.0
C93 C 0.37387 0.88279 0.09812 0.0
C94 C 0.37602 0.91226 0.10817 0.0
C95 C 0.40111 0.92089 0.12717 0.0
C96 C 0.42396 0.89944 0.13584 0.0
C97 C 0.42168 0.87007 0.12598 0.0
C98 C 0.35075 0.80531 1.0012 0.0
C99 C 0.44769 0.80024 1.00417 0.0
O100 O 0.40301 0.74531 0.95278 0.0
O101 O 0.40174 0.70297 0.97547 0.0
O102 O 0.41648 0.71258 0.03615 0.0
O103 O 0.42135 0.75839 0.04268 0.0
O104 O 0.35023 0.737 0.01816 0.0
O105 O 0.36086 0.75703 0.06484 0.0
O106 O 0.41928 0.82006 0.08182 0.0
O107 O 0.36781 0.81979 0.08833 0.0
O108 O 0.35125 0.82382 0.02361 0.0
O109 O 0.37092 0.78523 1.00632 0.0
O110 O 0.42966 0.8148 0.02377 0.0
O111 O 0.44144 0.77318 0.99404 0.0
H112 H 0.38594 0.65897 0.94056 0.0
H113 H 0.35738 0.6376 0.89839 0.0
H114 H 0.34236 0.72492 0.86261 0.0
H115 H 0.37036 0.74646 0.90522 0.0
H116 H 0.35443 0.87673 0.08342 0.0
H117 H 0.35818 0.92834 0.10096 0.0
H118 H 0.44326 0.90522 0.15082 0.0
H119 H 0.43946 0.85393 0.13326 0.0
C120 C 0.41849 0.15746 0.32011 0.0
Eu121 Eu 0.46723 0.1478 0.28534 0.0
C122 C 0.39684 0.17785 0.33724 0.0
C123 C 0.40044 0.1811 0.36811 0.0
C124 C 0.37685 0.1956 0.38509 0.0
C125 C 0.3488 0.20706 0.37174 0.0
C126 C 0.34585 0.20481 0.3407 0.0
C127 C 0.36946 0.19039 0.32374 0.0
C128 C 0.51542 0.10619 0.2925 0.0
C129 C 0.52661 0.18757 0.30062 0.0
C130 C 0.56953 0.13872 0.20598 0.0
Eu131 Eu 0.52138 0.14989 0.24051 0.0
C132 C 0.57774 0.13009 0.17541 0.0
C133 C 0.55799 0.11219 0.15759 0.0
C134 C 0.56806 0.10232 0.12953 0.0
C135 C 0.59807 0.11006 0.11908 0.0
C136 C 0.61711 0.12884 0.13668 0.0
C137 C 0.60704 0.1387 0.16452 0.0
C138 C 0.4772 0.19384 0.23517 0.0
C139 C 0.46194 0.1053 0.22805 0.0
O140 O 0.41666 0.15742 0.2912 0.0
O141 O 0.44737 0.15173 0.32997 0.0
O142 O 0.48594 0.10173 0.29907 0.0
O143 O 0.51782 0.13255 0.28506 0.0
O144 O 0.49518 0.18838 0.29941 0.0
O145 O 0.54276 0.1701 0.28201 0.0
O146 O 0.55621 0.11868 0.22194 0.0
O147 O 0.55744 0.16539 0.21046 0.0
O148 O 0.50718 0.19683 0.22998 0.0
O149 O 0.47129 0.1672 0.24068 0.0
O150 O 0.4907 0.11355 0.22061 0.0
O151 O 0.4469 0.11684 0.25109 0.0
H152 H 0.42098 0.17144 0.37934 0.0
H153 H 0.38037 0.19729 0.40883 0.0
H154 H 0.32456 0.21295 0.32951 0.0
H155 H 0.36551 0.18794 0.3001 0.0
H156 H 0.5352 0.10532 0.16563 0.0
H157 H 0.55293 0.08784 0.11649 0.0
H158 H 0.64009 0.13563 0.12904 0.0
H159 H 0.62254 0.15256 0.17789 0.0
C160 C 0.64862 0.33863 0.49263 0.0
Eu161 Eu 0.64612 0.29077 0.52416 0.0
C162 C 0.63255 0.36096 0.47337 0.0
C163 C 0.64379 0.3646 0.4446 0.0
C164 C 0.63444 0.38935 0.42817 0.0
C165 C 0.61365 0.41125 0.44007 0.0
C166 C 0.60058 0.40661 0.46803 0.0
C167 C 0.61005 0.3818 0.4846 0.0
C168 C 0.68111 0.23916 0.52001 0.0
C169 C 0.59334 0.24382 0.50146 0.0
C170 C 0.62457 0.19513 0.59966 0.0
Eu171 Eu 0.62657 0.24063 0.56518 0.0
C172 C 0.63898 0.18611 0.6281 0.0
C173 C 0.62139 0.16931 0.64752 0.0
C174 C 0.63446 0.1608 0.67476 0.0
C175 C 0.66547 0.16893 0.68314 0.0
C176 C 0.68304 0.18582 0.66352 0.0
C177 C 0.66991 0.19436 0.63631 0.0
C178 C 0.58741 0.28858 0.56549 0.0
C179 C 0.68486 0.2846 0.58511 0.0
O180 O 0.64155 0.33867 0.52073 0.0
O181 O 0.65537 0.31205 0.48194 0.0
O182 O 0.69343 0.26508 0.51684 0.0
O183 O 0.65175 0.24208 0.52327 0.0
O184 O 0.60223 0.27183 0.50091 0.0
O185 O 0.60321 0.2259 0.52269 0.0
O186 O 0.64374 0.19655 0.57715 0.0
O187 O 0.60399 0.2173 0.60085 0.0
O188 O 0.57785 0.26164 0.56813 0.0
O189 O 0.61745 0.28932 0.56486 0.0
O190 O 0.66887 0.26025 0.58975 0.0
O191 O 0.67907 0.3015 0.56211 0.0
H192 H 0.66125 0.34912 0.43538 0.0
H193 H 0.64462 0.39201 0.40653 0.0
H194 H 0.58461 0.42308 0.47788 0.0
H195 H 0.601 0.3798 0.50677 0.0
H196 H 0.59741 0.16287 0.64165 0.0
H197 H 0.62004 0.14821 0.68944 0.0
H198 H 0.70712 0.19217 0.66901 0.0
H199 H 0.68397 0.20734 0.62167 0.0
C200 C 0.06348 0.37849 0.87995 0.0
Eu201 Eu 0.03256 0.38512 0.82972 0.0
C202 C 0.07639 0.39607 0.90549 0.0
C203 C 0.10928 0.39564 0.91136 0.0
C204 C 0.12172 0.40955 0.93687 0.0
C205 C 0.10157 0.4241 0.95748 0.0
C206 C 0.06865 0.42518 0.95115 0.0
C207 C 0.05623 0.41138 0.92553 0.0
C208 C 0.04158 0.35344 0.77793 0.0
C209 C 0.05177 0.43389 0.78699 0.0
C210 C 0.95394 0.40371 0.73068 0.0
Eu211 Eu 0.98559 0.3985 0.78039 0.0
C212 C 0.92649 0.38841 0.71729 0.0
C213 C 0.90382 0.40443 0.70069 0.0
C214 C 0.87676 0.39054 0.68921 0.0
C215 C 0.87187 0.36026 0.69408 0.0
C216 C 0.89496 0.34422 0.71046 0.0
C217 C 0.92188 0.35817 0.72206 0.0
C218 C 0.97604 0.43113 0.83112 0.0
C219 C 0.96415 0.35307 0.82815 0.0
O220 O 0.03256 0.37709 0.87708 0.0
O221 O 0.07759 0.38025 0.85444 0.0
O222 O 0.06453 0.36346 0.79438 0.0
O223 O 0.01548 0.35915 0.79027 0.0
O224 O 0.04946 0.42865 0.81535 0.0
O225 O 0.03135 0.42205 0.76777 0.0
O226 O 0.98042 0.38811 0.7333 0.0
O227 O 0.94792 0.42 0.75424 0.0
O228 O 0.95325 0.42179 0.81396 0.0
O229 O 1.00245 0.42444 0.81981 0.0
O230 O 0.96081 0.35984 0.8 0.0
O231 O 0.98788 0.36311 0.84457 0.0
H232 H 0.12544 0.384 0.89644 0.0
H233 H 0.14723 0.4087 0.94047 0.0
H234 H 0.05224 0.43586 0.96645 0.0
H235 H 0.03072 0.41213 0.92184 0.0
H236 H 0.90679 0.42784 0.697 0.0
H237 H 0.85934 0.40372 0.67711 0.0
H238 H 0.89232 0.32081 0.7143 0.0
H239 H 0.93895 0.34534 0.73497 0.0
C240 C 0.87188 0.68025 0.99866 0.0
Eu241 Eu 0.87661 0.73649 1.01191 0.0
C242 C 0.8871 0.6555 0.98211 0.0
C243 C 0.91824 0.65708 0.97161 0.0
C244 C 0.93238 0.63257 0.95694 0.0
C245 C 0.91555 0.60614 0.95252 0.0
C246 C 0.88425 0.60495 0.96297 0.0
C247 C 0.87022 0.62938 0.97758 0.0
C248 C 0.84222 0.78468 0.99478 0.0
C249 C 0.92125 0.7827 0.98031 0.0
C250 C 0.88537 0.85227 0.06974 0.0
Eu251 Eu 0.89186 0.79946 0.04552 0.0
C252 C 0.8753 0.86255 0.09955 0.0
C253 C 0.87356 0.84237 0.12267 0.0
C254 C 0.86211 0.85153 0.1504 0.0
C255 C 0.85215 0.88115 0.15576 0.0
C256 C 0.85455 0.90147 0.13268 0.0
C257 C 0.86587 0.8922 0.1048 0.0
C258 C 0.93595 0.75554 0.05842 0.0
C259 C 0.84355 0.75335 0.0757 0.0
O260 O 0.88718 0.69036 0.02205 0.0
O261 O 0.85804 0.70127 0.98322 0.0
O262 O 0.849 0.76225 0.97722 0.0
O263 O 0.85182 0.77921 0.02071 0.0
O264 O 0.9169 0.75417 0.98559 0.0
O265 O 0.91077 0.80445 0.99848 0.0
O266 O 0.86333 0.83979 0.05343 0.0
O267 O 0.91264 0.83771 0.06828 0.0
O268 O 0.93677 0.78203 0.07011 0.0
O269 O 0.91207 0.75479 0.04165 0.0
O270 O 0.85974 0.77815 0.07838 0.0
O271 O 0.84558 0.73521 0.05233 0.0
H272 H 0.93163 0.67713 0.97487 0.0
H273 H 0.95637 0.63439 0.94889 0.0
H274 H 0.87075 0.5849 0.96041 0.0
H275 H 0.84621 0.62773 0.98571 0.0
H276 H 0.88077 0.81939 0.1192 0.0
H277 H 0.86104 0.83533 0.16769 0.0
H278 H 0.84684 0.92435 0.13589 0.0
H279 H 0.86681 0.90811 0.08723 0.0
C280 C 0.60045 0.62448 0.23585 0.0
Eu281 Eu 0.55086 0.62524 0.26983 0.0
C282 C 0.62299 0.64495 0.22247 0.0
C283 C 0.62447 0.64686 0.19157 0.0
C284 C 0.64764 0.66387 0.17847 0.0
C285 C 0.67 0.67926 0.19599 0.0
C286 C 0.66795 0.67793 0.22696 0.0
C287 C 0.64478 0.66095 0.24005 0.0
C288 C 0.49815 0.59094 0.26786 0.0
C289 C 0.49836 0.67469 0.25177 0.0
C290 C 0.44286 0.64216 0.34383 0.0
Eu291 Eu 0.49558 0.64208 0.31477 0.0
C292 C 0.43526 0.64156 0.37523 0.0
C293 C 0.45934 0.64506 0.3967 0.0
C294 C 0.45292 0.64071 0.42649 0.0
C295 C 0.42238 0.63267 0.43515 0.0
C296 C 0.39811 0.63015 0.41355 0.0
C297 C 0.40456 0.63454 0.38378 0.0
C298 C 0.5464 0.67772 0.32602 0.0
C299 C 0.55003 0.59207 0.33215 0.0
O300 O 0.60202 0.62168 0.26462 0.0
O301 O 0.57118 0.62443 0.22548 0.0
O302 O 0.52627 0.58072 0.26089 0.0
O303 O 0.4993 0.61831 0.27224 0.0
O304 O 0.52849 0.66604 0.24963 0.0
O305 O 0.47975 0.66581 0.27314 0.0
O306 O 0.45702 0.61797 0.33363 0.0
O307 O 0.45573 0.66646 0.33462 0.0
O308 O 0.52044 0.67845 0.34118 0.0
O309 O 0.54432 0.65725 0.30671 0.0
O310 O 0.52057 0.6023 0.33656 0.0
O311 O 0.56757 0.60114 0.31022 0.0
H312 H 0.60809 0.63468 0.17749 0.0
H313 H 0.64819 0.66475 0.15456 0.0
H314 H 0.68497 0.68917 0.24116 0.0
H315 H 0.64457 0.6598 0.26394 0.0
H316 H 0.48329 0.65025 0.39031 0.0
H317 H 0.47199 0.64305 0.44266 0.0
H318 H 0.37448 0.6235 0.41944 0.0
H319 H 0.38587 0.63142 0.36735 0.0
C320 C 0.16939 0.56948 0.18907 0.0
Eu321 Eu 0.22131 0.53688 0.18562 0.0
C322 C 0.1468 0.58676 0.17068 0.0
C323 C 0.12268 0.60354 0.18459 0.0
C324 C 0.10018 0.61949 0.16788 0.0
C325 C 0.10131 0.61903 0.13677 0.0
C326 C 0.12572 0.6022 0.12284 0.0
C327 C 0.14833 0.58624 0.13967 0.0
C328 C 0.27772 0.5441 0.21547 0.0
C329 C 0.2659 0.55723 0.132 0.0
C330 C 0.33558 0.46888 0.16707 0.0
Eu331 Eu 0.28075 0.49641 0.16609 0.0
C332 C 0.34485 0.43769 0.17185 0.0
C333 C 0.32425 0.41895 0.1864 0.0
C334 C 0.33361 0.38982 0.1926 0.0
C335 C 0.36365 0.3786 0.18397 0.0
C336 C 0.38384 0.39728 0.16854 0.0
C337 C 0.37456 0.4266 0.16269 0.0
C338 C 0.22778 0.48029 0.13421 0.0
C339 C 0.23382 0.47649 0.2203 0.0
O340 O 0.16961 0.54063 0.18506 0.0
O341 O 0.19795 0.58005 0.19295 0.0
O342 O 0.25027 0.54626 0.22837 0.0
O343 O 0.27357 0.53952 0.18837 0.0
O344 O 0.2366 0.5565 0.14236 0.0
O345 O 0.28878 0.53848 0.14075 0.0
O346 O 0.32342 0.48282 0.19018 0.0
O347 O 0.31995 0.4745 0.1424 0.0
O348 O 0.25562 0.46767 0.13136 0.0
O349 O 0.22979 0.49983 0.15441 0.0
O350 O 0.26178 0.47402 0.20701 0.0
O351 O 0.21234 0.4971 0.21325 0.0
H352 H 0.12101 0.60408 0.2085 0.0
H353 H 0.0815 0.63174 0.17939 0.0
H354 H 0.12753 0.60156 0.09897 0.0
H355 H 0.16686 0.57343 0.12851 0.0
H356 H 0.30107 0.42702 0.19346 0.0
H357 H 0.31755 0.37639 0.20483 0.0
H358 H 0.40687 0.3893 0.16098 0.0
H359 H 0.39067 0.44067 0.15123 0.0
C360 C 0.69052 0.97626 0.89547 0.0
Eu361 Eu 0.73897 1.01121 0.9 0.0
C362 C 0.66943 0.95761 0.91279 0.0
C363 C 0.63639 0.96246 0.9106 0.0
C364 C 0.61548 0.94345 0.92415 0.0
C365 C 0.62719 0.919 0.94006 0.0
C366 C 0.66037 0.91481 0.9432 0.0
C367 C 0.68131 0.93395 0.92973 0.0
C368 C 0.79604 1.00798 0.87159 0.0
C369 C 0.78868 0.99173 0.95078 0.0
C370 C 0.8354 0.09274 0.92416 0.0
Eu371 Eu 0.78874 0.05573 0.92166 0.0
C372 C 0.84197 0.12376 0.91725 0.0
C373 C 0.82338 0.14766 0.9283 0.0
C374 C 0.83028 0.17673 0.92067 0.0
C375 C 0.8556 0.18228 0.90165 0.0
C376 C 0.87389 0.15824 0.89052 0.0
C377 C 0.8672 0.12933 0.89832 0.0
C378 C 0.73619 0.05564 0.9548 0.0
C379 C 0.74157 0.07174 0.86496 0.0
O380 O 0.6877 1.00497 0.89966 0.0
O381 O 0.72004 0.96722 0.89163 0.0
O382 O 0.76938 1.00134 0.8584 0.0
O383 O 0.79092 1.01319 0.89831 0.0
O384 O 0.75819 0.99181 0.94312 0.0
O385 O 0.80732 1.0128 0.94133 0.0
O386 O 0.82919 0.0757 0.90122 0.0
O387 O 0.81746 0.08743 0.94687 0.0
O388 O 0.76458 0.06046 0.96518 0.0
O389 O 0.73617 0.05338 0.92677 0.0
O390 O 0.76523 0.0794 0.8829 0.0
O391 O 0.72655 0.04665 0.86758 0.0
H392 H 0.62666 0.98049 0.89756 0.0
H393 H 0.59013 0.94715 0.921 0.0
H394 H 0.67016 0.8964 0.95565 0.0
H395 H 0.70669 0.92977 0.932 0.0
H396 H 0.80358 0.14393 0.94272 0.0
H397 H 0.81572 0.19485 0.92949 0.0
H398 H 0.89387 0.16181 0.87624 0.0
H399 H 0.88181 0.11121 0.88953 0.0
C400 C 0.83352 0.06753 0.38642 0.0
Eu401 Eu 0.78681 0.03005 0.38757 0.0
C402 C 0.85762 0.08268 0.40547 0.0
C403 C 0.85966 0.11372 0.40507 0.0
C404 C 0.88382 0.12838 0.42088 0.0
C405 C 0.90676 0.11237 0.43746 0.0
C406 C 0.90444 0.08123 0.43799 0.0
C407 C 0.8802 0.06662 0.42231 0.0
C408 C 0.72668 0.03781 0.36358 0.0
C409 C 0.74643 0.04266 0.4459 0.0
C410 C 0.6908 0.94744 0.40398 0.0
Eu411 Eu 0.73756 0.98485 0.40523 0.0
C412 C 0.68373 0.91677 0.39329 0.0
C413 C 0.67229 0.89609 0.41312 0.0
C414 C 0.66317 0.86782 0.4032 0.0
C415 C 0.665 0.85943 0.37303 0.0
C416 C 0.67711 0.88004 0.35329 0.0
C417 C 0.68637 0.90827 0.36326 0.0
C418 C 0.7918 0.98017 0.43694 0.0
C419 C 0.78141 0.97323 0.3452 0.0
O420 O 0.83707 0.03891 0.38187 0.0
O421 O 0.80364 0.07574 0.3892 0.0
O422 O 0.75237 0.04423 0.34962 0.0
O423 O 0.73422 0.02995 0.3891 0.0
O424 O 0.77543 0.04167 0.4351 0.0
O425 O 0.72403 0.02545 0.4342 0.0
O426 O 0.69488 0.96748 0.38395 0.0
O427 O 0.71042 0.95041 0.42654 0.0
O428 O 0.76385 0.97425 0.44674 0.0
O429 O 0.7908 0.98568 0.40935 0.0
O430 O 0.75816 0.96499 0.36252 0.0
O431 O 0.79759 0.9974 0.3508 0.0
H432 H 0.84272 0.12668 0.39215 0.0
H433 H 0.88436 0.15233 0.42018 0.0
H434 H 0.9218 0.06792 0.45002 0.0
H435 H 0.87955 0.04266 0.423 0.0
H436 H 0.66994 0.90195 0.43636 0.0
H437 H 0.65461 0.85256 0.41928 0.0
H438 H 0.67862 0.87475 0.32988 0.0
H439 H 0.69501 0.92362 0.34728 0.0
C440 C 0.22798 0.62101 0.63819 0.0
Eu441 Eu 0.25287 0.568 0.64405 0.0
C442 C 0.20666 0.64477 0.65028 0.0
C443 C 0.17943 0.65313 0.63393 0.0
C444 C 0.16236 0.67911 0.64118 0.0
C445 C 0.17219 0.69753 0.66489 0.0
C446 C 0.19817 0.68822 0.68255 0.0
C447 C 0.21538 0.66213 0.67523 0.0
C448 C 0.24442 0.51652 0.61364 0.0
C449 C 0.2327 0.52032 0.69042 0.0
C450 C 0.33094 0.46195 0.6556 0.0
Eu451 Eu 0.30134 0.51311 0.65817 0.0
C452 C 0.35511 0.44733 0.63693 0.0
C453 C 0.36432 0.41798 0.64248 0.0
C454 C 0.39045 0.40502 0.62806 0.0
C455 C 0.4079 0.42128 0.60783 0.0
C456 C 0.39781 0.45043 0.60151 0.0
C457 C 0.37156 0.46335 0.61592 0.0
C458 C 0.30475 0.55687 0.70058 0.0
C459 C 0.32317 0.5627 0.61256 0.0
O460 O 0.25504 0.61556 0.65197 0.0
O461 O 0.2153 0.5972 0.62636 0.0
O462 O 0.22101 0.53439 0.62119 0.0
O463 O 0.27077 0.52761 0.62075 0.0
O464 O 0.22983 0.54854 0.68322 0.0
O465 O 0.25551 0.5019 0.68073 0.0
O466 O 0.30262 0.46655 0.6438 0.0
O467 O 0.34101 0.48465 0.67125 0.0
O468 O 0.32207 0.53272 0.70114 0.0
O469 O 0.28756 0.55589 0.67777 0.0
O470 O 0.33078 0.53785 0.62625 0.0
O471 O 0.29538 0.57687 0.61558 0.0
H472 H 0.17222 0.64036 0.61453 0.0
H473 H 0.14211 0.68545 0.62744 0.0
H474 H 0.20633 0.70196 0.70091 0.0
H475 H 0.23636 0.65641 0.68825 0.0
H476 H 0.35207 0.40543 0.65886 0.0
H477 H 0.39783 0.38269 0.63379 0.0
H478 H 0.41054 0.46341 0.58584 0.0
H479 H 0.36478 0.48613 0.61145 0.0
H480 H 0.16129 0.35913 0.60201 0.0
H481 H 0.22654 0.33652 0.53137 0.0
H482 H 0.2553 0.38296 0.54137 0.0
H483 H 0.15132 0.43126 0.58383 0.0
H484 H 0.14919 0.4476 0.6204 0.0
H485 H 0.13773 0.4098 0.61424 0.0
H486 H 0.17893 0.39043 0.65319 0.0
H487 H 0.18824 0.42849 0.66132 0.0
H488 H 0.21939 0.40213 0.65152 0.0
H489 H 0.27527 0.4332 0.55739 0.0
H490 H 0.28175 0.48513 0.57495 0.0
H491 H 0.19917 0.47787 0.63042 0.0
C492 C 0.18242 0.36349 0.58955 0.0
C493 C 0.19238 0.34395 0.5665 0.0
C494 C 0.21909 0.35097 0.54954 0.0
C495 C 0.23553 0.37727 0.55508 0.0
C496 C 0.22461 0.3966 0.57736 0.0
C497 C 0.19863 0.39008 0.59436 0.0
C498 C 0.18925 0.41633 0.61419 0.0
C499 C 0.15483 0.42685 0.60777 0.0
C500 C 0.19422 0.4089 0.64699 0.0
C501 C 0.21308 0.4389 0.60481 0.0
C502 C 0.23402 0.42673 0.58437 0.0
C503 C 0.2589 0.44297 0.57327 0.0
C504 C 0.26238 0.47241 0.58328 0.0
C505 C 0.24061 0.4855 0.60351 0.0
C506 C 0.21571 0.46849 0.61442 0.0
H507 H 0.81775 0.97862 0.82033 0.0
H508 H 0.84949 0.02551 0.89951 0.0
H509 H 0.90439 0.02202 0.88303 0.0
H510 H 0.88147 0.92542 0.82709 0.0
H511 H 0.88637 0.91911 0.78791 0.0
H512 H 0.84817 0.93075 0.80205 0.0
H513 H 0.84728 0.97554 0.767 0.0
H514 H 0.88567 0.96406 0.75297 0.0
H515 H 0.87978 1.00092 0.76829 0.0
H516 H 0.95617 1.01291 0.85961 0.0
H517 H 1.00315 0.98928 0.83595 0.0
H518 H 0.94093 0.93975 0.77686 0.0
C519 C 0.83624 0.9889 0.8336 0.0
C520 C 0.82884 1.00464 0.8601 0.0
C521 C 0.85399 0.01577 0.87796 0.0
C522 C 0.88553 1.01348 0.86898 0.0
C523 C 0.89213 0.99851 0.84263 0.0
C524 C 0.86848 0.98541 0.82564 0.0
C525 C 0.88312 0.96601 0.80129 0.0
C526 C 0.87426 0.93339 0.80481 0.0
C527 C 0.87337 0.97732 0.77056 0.0
C528 C 0.91836 0.97048 0.80749 0.0
C529 C 0.92284 0.99001 0.83092 0.0
C530 C 0.95309 0.99753 0.84118 0.0
C531 C 0.97963 0.9841 0.82759 0.0
C532 C 0.97566 0.96286 0.80455 0.0
C533 C 0.94463 0.95626 0.79417 0.0
H534 H 0.36067 0.70244 0.09256 0.0
H535 H 0.28706 0.72087 0.02704 0.0
H536 H 0.25881 0.67603 0.04164 0.0
H537 H 0.36445 0.62525 0.07891 0.0
H538 H 0.37168 0.61539 0.11691 0.0
H539 H 0.38399 0.65076 0.10397 0.0
H540 H 0.35166 0.6773 0.14526 0.0
H541 H 0.33908 0.64209 0.1584 0.0
H542 H 0.30985 0.67014 0.14861 0.0
H543 H 0.23922 0.62885 0.06262 0.0
H544 H 0.22969 0.58204 0.08833 0.0
H545 H 0.31877 0.59136 0.13671 0.0
C546 C 0.33805 0.69749 0.08205 0.0
C547 C 0.3254 0.71545 0.05929 0.0
C548 C 0.2966 0.70765 0.04497 0.0
C549 C 0.28056 0.68218 0.053 0.0
C550 C 0.29404 0.66442 0.07496 0.0
C551 C 0.32215 0.67168 0.08929 0.0
C552 C 0.33263 0.64773 0.11067 0.0
C553 C 0.36511 0.63397 0.10208 0.0
C554 C 0.33333 0.66005 0.14263 0.0
C555 C 0.3061 0.6258 0.10596 0.0
C556 C 0.28391 0.63608 0.08553 0.0
C557 C 0.25656 0.62042 0.07843 0.0
C558 C 0.25142 0.59382 0.09298 0.0
C559 C 0.27385 0.58281 0.11386 0.0
C560 C 0.30173 0.59885 0.12013 0.0
H561 H 0.57755 0.11125 0.27643 0.0
H562 H 0.5167 0.06247 0.33381 0.0
H563 H 0.56438 0.03857 0.35661 0.0
H564 H 0.63722 0.05043 0.26479 0.0
H565 H 0.6699 0.07556 0.26427 0.0
H566 H 0.63095 0.08757 0.25158 0.0
H567 H 0.63233 0.13188 0.28873 0.0
H568 H 0.67106 0.11991 0.30189 0.0
H569 H 0.63883 0.12509 0.32752 0.0
H570 H 0.61826 0.02629 0.37794 0.0
H571 H 0.67453 0.01945 0.39162 0.0
H572 H 0.70197 0.07032 0.31611 0.0
C573 C 0.57421 0.09491 0.29321 0.0
C574 C 0.54333 0.08852 0.3032 0.0
C575 C 0.54002 0.06747 0.32562 0.0
C576 C 0.567 0.05393 0.33878 0.0
C577 C 0.5971 0.06119 0.32881 0.0
C578 C 0.60087 0.08066 0.30606 0.0
C579 C 0.63594 0.08481 0.29973 0.0
C580 C 0.64397 0.07394 0.26822 0.0
C581 C 0.64507 0.11735 0.30477 0.0
C582 C 0.65143 0.06495 0.32284 0.0
C583 C 0.62842 0.05198 0.3396 0.0
C584 C 0.63643 0.03532 0.36423 0.0
C585 C 0.66865 0.03132 0.37167 0.0
C586 C 0.69293 0.0429 0.35408 0.0
C587 C 0.68409 0.06015 0.32933 0.0
H588 H 0.65395 0.19128 0.49371 0.0
H589 H 0.74307 0.22147 0.53126 0.0
H590 H 0.76721 0.17136 0.52213 0.0
H591 H 0.65756 0.11577 0.51964 0.0
H592 H 0.6412 0.1003 0.48583 0.0
H593 H 0.6304 0.1376 0.49733 0.0
H594 H 0.64919 0.15756 0.44727 0.0
H595 H 0.6592 0.12024 0.43544 0.0
H596 H 0.68886 0.14843 0.43491 0.0
H597 H 0.78125 0.11811 0.50849 0.0
H598 H 0.78757 0.06898 0.48432 0.0
H599 H 0.68976 0.07429 0.45275 0.0
C600 C 0.67847 0.18724 0.50027 0.0
C601 C 0.69665 0.21005 0.51351 0.0
C602 C 0.72884 0.20424 0.52112 0.0
C603 C 0.74256 0.17582 0.51624 0.0
C604 C 0.7238 0.15369 0.50339 0.0
C605 C 0.6926 0.15929 0.49499 0.0
C606 C 0.67832 0.13261 0.47922 0.0
C607 C 0.6502 0.12088 0.49655 0.0
C608 C 0.66832 0.14016 0.44732 0.0
C609 C 0.70645 0.11096 0.47984 0.0
C610 C 0.73222 0.12343 0.49442 0.0
C611 C 0.76124 0.1082 0.49708 0.0
C612 C 0.76452 0.08019 0.48335 0.0
C613 C 0.73912 0.06766 0.46674 0.0
C614 C 0.70937 0.08291 0.46582 0.0
H615 H 0.06404 0.45754 0.73223 0.0
H616 H 0.10386 0.44549 0.8206 0.0
H617 H 0.1537 0.46695 0.80537 0.0
H618 H 0.13316 0.4407 0.69216 0.0
H619 H 0.12849 0.46957 0.66534 0.0
H620 H 0.09401 0.45481 0.68227 0.0
H621 H 0.07559 0.50665 0.70055 0.0
H622 H 0.10923 0.52225 0.68269 0.0
H623 H 0.10272 0.52948 0.72152 0.0
H624 H 0.20079 0.48486 0.78044 0.0
H625 H 0.24132 0.50461 0.74729 0.0
H626 H 0.17127 0.50934 0.67625 0.0
C627 C 0.08311 0.45985 0.74839 0.0
C628 C 0.07993 0.44986 0.77756 0.0
C629 C 0.10548 0.45316 0.79813 0.0
C630 C 0.13408 0.46522 0.78974 0.0
C631 C 0.1367 0.47444 0.76084 0.0
C632 C 0.11186 0.47255 0.74055 0.0
C633 C 0.12127 0.48472 0.71102 0.0
C634 C 0.11913 0.46098 0.68627 0.0
C635 C 0.101 0.51243 0.70351 0.0
C636 C 0.15546 0.49264 0.7178 0.0
C637 C 0.16382 0.48639 0.74668 0.0
C638 C 0.19451 0.49037 0.75789 0.0
C639 C 0.2173 0.50143 0.73905 0.0
C640 C 0.20891 0.5086 0.70973 0.0
C641 C 0.17777 0.50426 0.69889 0.0
H642 H 0.77551 0.95299 0.99567 0.0
H643 H 0.83428 0.96451 0.91876 0.0
H644 H 0.85259 0.91248 0.92115 0.0
H645 H 0.83581 0.90396 0.03384 0.0
H646 H 0.80581 0.88184 0.05017 0.0
H647 H 0.7976 0.9204 0.04292 0.0
H648 H 0.7478 0.90565 1.01205 0.0
H649 H 0.75625 0.86703 0.01868 0.0
H650 H 0.75218 0.8799 0.9813 0.0
H651 H 0.85706 0.8581 0.92641 0.0
H652 H 0.8624 0.80669 0.94331 0.0
H653 H 0.8073 0.83016 0.02111 0.0
C654 C 0.79286 0.94462 0.97991 0.0
C655 C 0.80369 0.96272 0.95715 0.0
C656 C 0.82611 0.95111 0.93664 0.0
C657 C 0.83639 0.9215 0.9376 0.0
C658 C 0.82475 0.90397 0.95975 0.0
C659 C 0.80454 0.91522 0.9813 0.0
C660 C 0.79708 0.89149 1.00342 0.0
C661 C 0.80983 0.89993 0.03442 0.0
C662 C 0.76119 0.88568 1.00387 0.0
C663 C 0.81554 0.86515 0.99031 0.0
C664 C 0.83063 0.87285 0.96474 0.0
C665 C 0.84683 0.85204 0.94713 0.0
C666 C 0.84929 0.82283 0.9567 0.0
C667 C 0.83602 0.8148 0.98387 0.0
C668 C 0.81839 0.83607 1.00064 0.0
H669 H 0.46145 0.58611 0.21779 0.0
H670 H 0.46547 0.56318 0.31027 0.0
H671 H 0.40922 0.54785 0.30737 0.0
H672 H 0.38438 0.61604 0.21585 0.0
H673 H 0.37373 0.60096 0.17994 0.0
H674 H 0.41473 0.60792 0.1889 0.0
H675 H 0.42958 0.55313 0.17603 0.0
H676 H 0.38852 0.5463 0.16688 0.0
H677 H 0.40913 0.52386 0.19389 0.0
H678 H 0.35017 0.54072 0.29536 0.0
H679 H 0.29582 0.53621 0.27365 0.0
H680 H 0.33178 0.56039 0.18827 0.0
C681 C 0.45073 0.57686 0.23709 0.0
C682 C 0.46775 0.57541 0.2642 0.0
C683 C 0.4528 0.56411 0.28927 0.0
C684 C 0.42085 0.55548 0.28782 0.0
C685 C 0.40431 0.55792 0.26096 0.0
C686 C 0.41901 0.56767 0.23584 0.0
C687 C 0.39589 0.56864 0.20979 0.0
C688 C 0.39196 0.60028 0.19795 0.0
C689 C 0.40641 0.54667 0.1852 0.0
C690 C 0.36572 0.55873 0.22433 0.0
C691 C 0.37091 0.55278 0.25388 0.0
C692 C 0.346 0.54484 0.27212 0.0
C693 C 0.31518 0.5425 0.25971 0.0
C694 C 0.30966 0.54771 0.22931 0.0
C695 C 0.33536 0.55591 0.21154 0.0
H696 H 0.52152 0.23825 0.33604 0.0
H697 H 0.56418 0.14977 0.33089 0.0
H698 H 0.58096 0.15385 0.38292 0.0
H699 H 0.58687 0.26816 0.38291 0.0
H700 H 0.56072 0.29292 0.40345 0.0
H701 H 0.55121 0.28301 0.36562 0.0
H702 H 0.49629 0.26501 0.38221 0.0
H703 H 0.50596 0.27418 0.4202 0.0
H704 H 0.49444 0.23709 0.41005 0.0
H705 H 0.58677 0.16419 0.43601 0.0
H706 H 0.59725 0.18576 0.48517 0.0
H707 H 0.55954 0.27096 0.45601 0.0
C708 C 0.53495 0.22011 0.34586 0.0
C709 C 0.54158 0.19371 0.32955 0.0
C710 C 0.55914 0.17029 0.34292 0.0
C711 C 0.56844 0.17222 0.37258 0.0
C712 C 0.56078 0.19805 0.38836 0.0
C713 C 0.5457 0.22211 0.37536 0.0
C714 C 0.54285 0.24798 0.39725 0.0
C715 C 0.56153 0.27459 0.38668 0.0
C716 C 0.50779 0.25656 0.40274 0.0
C717 C 0.55828 0.23435 0.42451 0.0
C718 C 0.5674 0.20522 0.41889 0.0
C719 C 0.58052 0.1872 0.44061 0.0
C720 C 0.58616 0.1997 0.46858 0.0
C721 C 0.57978 0.23023 0.47431 0.0
C722 C 0.5649 0.24763 0.45216 0.0
H723 H 0.10179 0.35161 0.60941 0.0
H724 H 0.05205 0.26927 0.59641 0.0
H725 H 0.03306 0.27278 0.648 0.0
H726 H 0.1291 0.3349 0.68427 0.0
H727 H 0.12643 0.37331 0.69604 0.0
H728 H 0.1334 0.36367 0.65774 0.0
H729 H 0.08483 0.39747 0.64457 0.0
H730 H 0.07585 0.40442 0.68301 0.0
H731 H 0.04625 0.38879 0.65858 0.0
H732 H 0.01685 0.28706 0.70065 0.0
H733 H 0.01155 0.3066 0.75207 0.0
H734 H 0.07792 0.37561 0.73352 0.0
C735 C 0.08665 0.33451 0.61741 0.0
C736 C 0.07791 0.31039 0.59871 0.0
C737 C 0.05875 0.28806 0.61022 0.0
C738 C 0.04781 0.28992 0.6395 0.0
C739 C 0.05683 0.31391 0.65743 0.0
C740 C 0.07634 0.33551 0.647 0.0
C741 C 0.08453 0.35769 0.67157 0.0
C742 C 0.12052 0.35738 0.67783 0.0
C743 C 0.07213 0.38895 0.66393 0.0
C744 C 0.06647 0.34536 0.69734 0.0
C745 C 0.05004 0.32045 0.68851 0.0
C746 C 0.03011 0.3062 0.7079 0.0
C747 C 0.02721 0.31743 0.73705 0.0
C748 C 0.04486 0.3421 0.74695 0.0
C749 C 0.06475 0.35622 0.72675 0.0
H750 H 0.9637 0.88276 0.84102 0.0
H751 H 0.99539 0.80173 0.79659 0.0
H752 H 0.98042 0.77297 0.84026 0.0
H753 H 0.99554 0.86249 0.91144 0.0
H754 H 0.96426 0.88024 0.93267 0.0
H755 H 0.97422 0.89429 0.89703 0.0
H756 H 0.91592 0.88842 0.87782 0.0
H757 H 0.90657 0.87698 0.91448 0.0
H758 H 0.89669 0.85362 0.88289 0.0
H759 H 0.96504 0.75364 0.88953 0.0
H760 H 0.94745 0.74383 0.93988 0.0
H761 H 0.92658 0.83778 0.95404 0.0
C762 C 0.96635 0.85882 0.84021 0.0
C763 C 0.97948 0.84415 0.8151 0.0
C764 C 0.98436 0.81309 0.81527 0.0
C765 C 0.9762 0.79671 0.84007 0.0
C766 C 0.96383 0.81185 0.86476 0.0
C767 C 0.95886 0.84221 0.86504 0.0
C768 C 0.94732 0.85326 0.89513 0.0
C769 C 0.9718 0.87378 0.90993 0.0
C770 C 0.91463 0.86894 0.89239 0.0
C771 C 0.94548 0.82421 0.91147 0.0
C772 C 0.95559 0.80074 0.89356 0.0
C773 C 0.95687 0.77181 0.90367 0.0
C774 C 0.94687 0.76652 0.93251 0.0
C775 C 0.93547 0.78995 0.95124 0.0
C776 C 0.93525 0.81931 0.94052 0.0
H777 H 0.50043 0.65393 0.19559 0.0
H778 H 0.46216 0.72602 0.24997 0.0
H779 H 0.43755 0.74866 0.20519 0.0
H780 H 0.5187 0.69373 0.1319 0.0
H781 H 0.50577 0.66548 0.10599 0.0
H782 H 0.52002 0.65533 0.1422 0.0
H783 H 0.46722 0.62859 0.15161 0.0
H784 H 0.4528 0.63863 0.11536 0.0
H785 H 0.42993 0.6487 0.1476 0.0
H786 H 0.42012 0.76433 0.15398 0.0
H787 H 0.40776 0.77036 0.10099 0.0
H788 H 0.45445 0.68624 0.08057 0.0
C789 C 0.48701 0.67462 0.19794 0.0
C790 C 0.48361 0.68879 0.22585 0.0
C791 C 0.4652 0.71523 0.22855 0.0
C792 C 0.45118 0.72809 0.20332 0.0
C793 C 0.45516 0.71362 0.17596 0.0
C794 C 0.47218 0.68719 0.17324 0.0
C795 C 0.47212 0.67557 0.14157 0.0
C796 C 0.50618 0.67235 0.12972 0.0
C797 C 0.45447 0.64613 0.13889 0.0
C798 C 0.4536 0.70027 0.12652 0.0
C799 C 0.44397 0.72194 0.14677 0.0
C800 C 0.42752 0.74745 0.13801 0.0
C801 C 0.421 0.75097 0.1078 0.0
C802 C 0.43072 0.72921 0.0867 0.0
C803 C 0.44676 0.70327 0.09628 0.0
H804 H 0.13497 0.41324 0.35534 0.0
H805 H 0.21444 0.35238 0.37163 0.0
H806 H 0.24274 0.37291 0.32945 0.0
H807 H 0.13797 0.40945 0.27561 0.0
H808 H 0.12785 0.44813 0.27109 0.0
H809 H 0.11391 0.42889 0.30277 0.0
H810 H 0.13979 0.46793 0.33767 0.0
H811 H 0.15373 0.48732 0.30609 0.0
H812 H 0.18154 0.47526 0.33431 0.0
H813 H 0.2624 0.39989 0.28483 0.0
H814 H 0.27241 0.432 0.2426 0.0
H815 H 0.17998 0.47513 0.25479 0.0
C816 C 0.15824 0.40406 0.34998 0.0
C817 C 0.17241 0.38113 0.36707 0.0
C818 C 0.20316 0.37017 0.35934 0.0
C819 C 0.21937 0.38157 0.33521 0.0
C820 C 0.20467 0.40403 0.31885 0.0
C821 C 0.17483 0.41524 0.32597 0.0
C822 C 0.16446 0.43959 0.30496 0.0
C823 C 0.13426 0.43099 0.28758 0.0
C824 C 0.1596 0.46928 0.32176 0.0
C825 C 0.19307 0.44029 0.28485 0.0
C826 C 0.21598 0.41956 0.29322 0.0
C827 C 0.24458 0.41617 0.27811 0.0
C828 C 0.25002 0.43455 0.25401 0.0
C829 C 0.22702 0.45618 0.24507 0.0
C830 C 0.1981 0.45883 0.26081 0.0
H831 H 0.86009 0.97118 0.59905 0.0
H832 H 0.94566 0.92878 0.56417 0.0
H833 H 0.9274 0.94031 0.51329 0.0
H834 H 0.80807 0.94293 0.54539 0.0
H835 H 0.78295 0.9758 0.54422 0.0
H836 H 0.80497 0.96722 0.57742 0.0
H837 H 0.83071 0.01887 0.57651 0.0
H838 H 0.80899 0.02744 0.54299 0.0
H839 H 0.85173 0.02968 0.5441 0.0
H840 H 0.89622 0.95305 0.46494 0.0
H841 H 0.85468 0.96284 0.42624 0.0
H842 H 0.79081 0.99602 0.4942 0.0
C843 C 0.87516 0.96436 0.5808 0.0
C844 C 0.90435 0.94898 0.58581 0.0
C845 C 0.92337 0.94088 0.56109 0.0
C846 C 0.91315 0.94732 0.53203 0.0
C847 C 0.88396 0.96214 0.52793 0.0
C848 C 0.86536 0.97058 0.55181 0.0
C849 C 0.834 0.98435 0.54186 0.0
C850 C 0.80585 0.9665 0.55286 0.0
C851 C 0.83121 0.01702 0.55197 0.0
C852 C 0.8373 0.98158 0.50865 0.0
C853 C 0.86638 0.96919 0.50073 0.0
C854 C 0.87355 0.96309 0.47099 0.0
C855 C 0.84999 0.96888 0.44909 0.0
C856 C 0.81968 0.98024 0.45729 0.0
C857 C 0.81389 0.98744 0.48729 0.0
H858 H 0.34802 0.56156 0.74469 0.0
H859 H 0.26283 0.60423 0.70912 0.0
H860 H 0.26445 0.64171 0.75013 0.0
H861 H 0.32854 0.56969 0.82019 0.0
H862 H 0.36886 0.57616 0.83225 0.0
H863 H 0.36139 0.55409 0.79941 0.0
H864 H 0.39621 0.5887 0.76894 0.0
H865 H 0.404 0.61076 0.80175 0.0
H866 H 0.38738 0.62798 0.76921 0.0
H867 H 0.27574 0.67376 0.79693 0.0
H868 H 0.29532 0.69689 0.84381 0.0
H869 H 0.37269 0.63173 0.84694 0.0
C870 C 0.32978 0.57891 0.74537 0.0
C871 C 0.30547 0.5803 0.72369 0.0
C872 C 0.28194 0.60318 0.72534 0.0
C873 C 0.28262 0.62438 0.74862 0.0
C874 C 0.30699 0.62221 0.76987 0.0
C875 C 0.33015 0.60001 0.76824 0.0
C876 C 0.35357 0.60186 0.79376 0.0
C877 C 0.35303 0.57379 0.8125 0.0
C878 C 0.38727 0.60768 0.78275 0.0
C879 C 0.33991 0.62841 0.81037 0.0
C880 C 0.31314 0.64006 0.79636 0.0
C881 C 0.2967 0.66478 0.80799 0.0
C882 C 0.30801 0.6778 0.83455 0.0
C883 C 0.33532 0.6659 0.84919 0.0
C884 C 0.35137 0.64099 0.83669 0.0
H885 H 0.65713 0.08641 0.1095 0.0
H886 H 0.56759 0.10604 0.06467 0.0
H887 H 0.59122 0.08918 0.01697 0.0
H888 H 0.70622 0.11342 0.05578 0.0
H889 H 0.73712 0.08552 0.06061 0.0
H890 H 0.7117 0.09575 0.09096 0.0
H891 H 0.69611 0.04083 0.09611 0.0
H892 H 0.72153 0.03042 0.06568 0.0
H893 H 0.68011 0.02098 0.06448 0.0
H894 H 0.62774 0.07432 0.97303 0.0
H895 H 0.67265 0.06369 0.93875 0.0
H896 H 0.73658 0.05442 0.01417 0.0
C897 C 0.64235 0.08696 0.0897 0.0
C898 C 0.61062 0.09771 0.09071 0.0
C899 C 0.59195 0.09773 0.06437 0.0
C900 C 0.6052 0.08823 0.03722 0.0
C901 C 0.63696 0.07843 0.03694 0.0
C902 C 0.65509 0.07755 0.06269 0.0
C903 C 0.68903 0.06788 0.05676 0.0
C904 C 0.71237 0.09209 0.0666 0.0
C905 C 0.69716 0.03826 0.07164 0.0
C906 C 0.68763 0.06427 0.02352 0.0
C907 C 0.65745 0.07004 1.01226 0.0
C908 C 0.65135 0.06945 0.98174 0.0
C909 C 0.67689 0.06337 0.96243 0.0
C910 C 0.70799 0.05834 0.97388 0.0
C911 C 0.71303 0.05818 1.00475 0.0
H912 H 0.65942 0.11571 0.71112 0.0
H913 H 0.70301 0.20167 0.72114 0.0
H914 H 0.72657 0.1865 0.76895 0.0
H915 H 0.63946 0.10806 0.78818 0.0
H916 H 0.64786 0.06872 0.7881 0.0
H917 H 0.63452 0.08634 0.75461 0.0
H918 H 0.68433 0.06545 0.72745 0.0
H919 H 0.69782 0.04777 0.76084 0.0
H920 H 0.72334 0.07291 0.74245 0.0
H921 H 0.74622 0.16156 0.81541 0.0
H922 H 0.76015 0.12888 0.857 0.0
H923 H 0.70214 0.0599 0.81737 0.0
C924 C 0.6736 0.13153 0.72347 0.0
C925 C 0.67938 0.15991 0.71221 0.0
C926 C 0.69859 0.17965 0.72898 0.0
C927 C 0.7119 0.17132 0.7563 0.0
C928 C 0.70572 0.1432 0.76669 0.0
C929 C 0.68696 0.12363 0.75082 0.0
C930 C 0.68418 0.09463 0.7668 0.0
C931 C 0.64944 0.08913 0.7749 0.0
C932 C 0.69826 0.06866 0.74828 0.0
C933 C 0.70437 0.10091 0.79411 0.0
C934 C 0.71662 0.12903 0.79361 0.0
C935 C 0.73662 0.13955 0.8161 0.0
C936 C 0.74441 0.12079 0.83965 0.0
C937 C 0.73213 0.09184 0.84062 0.0
C938 C 0.71169 0.08198 0.81753 0.0
H939 H 0.22277 0.43474 0.09484 0.0
H940 H 0.17425 0.51574 0.12372 0.0
H941 H 0.1351 0.50988 0.08235 0.0
H942 H 0.21616 0.4463 0.01869 0.0
H943 H 0.21018 0.40793 1.0088 0.0
H944 H 0.2323 0.41743 0.04186 0.0
H945 H 0.19418 0.38695 0.07324 0.0
H946 H 0.17217 0.37701 0.04019 0.0
H947 H 0.15194 0.39452 0.07103 0.0
H948 H 0.10365 0.49609 0.03449 0.0
H949 H 0.08194 0.47524 0.98761 0.0
H950 H 0.15133 0.40268 0.99194 0.0
C951 C 0.20356 0.45102 0.09283 0.0
C952 C 0.20139 0.47562 0.11259 0.0
C953 C 0.1761 0.49655 0.10903 0.0
C954 C 0.15391 0.49343 0.08549 0.0
C955 C 0.15726 0.46914 0.06592 0.0
C956 C 0.18134 0.44815 0.06969 0.0
C957 C 0.18069 0.42452 0.04542 0.0
C958 C 0.21167 0.42404 0.02765 0.0
C959 C 0.17436 0.39394 0.05824 0.0
C960 C 0.15275 0.43556 0.02695 0.0
C961 C 0.13941 0.46127 0.03903 0.0
C962 C 0.11378 0.47578 0.02515 0.0
C963 C 0.1015 0.46365 0.9985 0.0
C964 C 0.11476 0.43717 0.98578 0.0
C965 C 0.14073 0.42311 1.00055 0.0
H966 H 0.82195 0.98564 0.29951 0.0
H967 H 0.75805 0.91874 0.32988 0.0
H968 H 0.76945 0.88826 0.28526 0.0
H969 H 0.80078 0.97905 0.22239 0.0
H970 H 0.84058 0.98438 0.20952 0.0
H971 H 0.82817 1.00082 0.24424 0.0
H972 H 0.87552 0.97463 0.27099 0.0
H973 H 0.88814 0.95818 0.23633 0.0
H974 H 0.88062 0.93496 0.26733 0.0
H975 H 0.78749 0.86489 0.2372 0.0
H976 H 0.81031 0.85062 0.18887 0.0
H977 H 0.86236 0.93255 0.18885 0.0
C978 C 0.81047 0.96451 0.29691 0.0
C979 C 0.78912 0.95465 0.31845 0.0
C980 C 0.77448 0.92691 0.31387 0.0
C981 C 0.78082 0.90936 0.28854 0.0
C982 C 0.80182 0.91978 0.26775 0.0
C983 C 0.81641 0.94672 0.27159 0.0
C984 C 0.83762 0.95291 0.24556 0.0
C985 C 0.82609 0.98095 0.22948 0.0
C986 C 0.87255 0.9553 0.25567 0.0
C987 C 0.83264 0.92526 0.2265 0.0
C988 C 0.81198 0.90642 0.23981 0.0
C989 C 0.80377 0.87944 0.22663 0.0
C990 C 0.81703 0.87145 0.19919 0.0
C991 C 0.83832 0.89032 0.18497 0.0
C992 C 0.84602 0.91769 0.19893 0.0
H993 H 0.31163 0.6052 0.57133 0.0
H994 H 0.38556 0.54543 0.60473 0.0
H995 H 0.42172 0.56188 0.56607 0.0
H996 H 0.32548 0.5907 0.49733 0.0
H997 H 0.31723 0.62795 0.48526 0.0
H998 H 0.29888 0.61487 0.51807 0.0
H999 H 0.32187 0.65892 0.54847 0.0
H1000 H 0.34026 0.67224 0.51566 0.0
H1001 H 0.36408 0.66507 0.5483 0.0
H1002 H 0.44766 0.58087 0.52091 0.0
H1003 H 0.4607 0.59943 0.47168 0.0
H1004 H 0.36974 0.64678 0.46805 0.0
C1005 C 0.33565 0.59603 0.57103 0.0
C1006 C 0.34583 0.57417 0.59118 0.0
C1007 C 0.37726 0.56229 0.58956 0.0
C1008 C 0.39802 0.5716 0.56779 0.0
C1009 C 0.38699 0.59281 0.54792 0.0
C1010 C 0.35654 0.6049 0.54938 0.0
C1011 C 0.34939 0.62515 0.52377 0.0
C1012 C 0.32108 0.61398 0.50501 0.0
C1013 C 0.34357 0.65725 0.53471 0.0
C1014 C 0.38026 0.6219 0.50717 0.0
C1015 C 0.40184 0.60354 0.52168 0.0
C1016 C 0.43121 0.5957 0.50959 0.0
C1017 C 0.43845 0.60647 0.48168 0.0
C1018 C 0.41629 0.62468 0.46613 0.0
C1019 C 0.38714 0.63291 0.47942 0.0
H1020 H 0.22999 0.21429 0.50881 0.0
H1021 H 0.17826 0.28626 0.46645 0.0
H1022 H 0.21668 0.28397 0.42509 0.0
H1023 H 0.30854 0.23559 0.48947 0.0
H1024 H 0.32285 0.19802 0.48354 0.0
H1025 H 0.29146 0.20582 0.50946 0.0
H1026 H 0.25539 0.16844 0.48161 0.0
H1027 H 0.28673 0.16038 0.45572 0.0
H1028 H 0.24803 0.17251 0.4425 0.0
H1029 H 0.26212 0.2731 0.38827 0.0
H1030 H 0.30801 0.25432 0.35923 0.0
H1031 H 0.32827 0.18839 0.42591 0.0
C1032 C 0.22669 0.22961 0.49083 0.0
C1033 C 0.20116 0.25057 0.49083 0.0
C1034 C 0.19765 0.2701 0.46685 0.0
C1035 C 0.21942 0.26892 0.44334 0.0
C1036 C 0.24447 0.24797 0.44411 0.0
C1037 C 0.248 0.22858 0.46727 0.0
C1038 C 0.27645 0.20778 0.46291 0.0
C1039 C 0.30129 0.21207 0.48783 0.0
C1040 C 0.26602 0.17536 0.46054 0.0
C1041 C 0.2886 0.21836 0.43366 0.0
C1042 C 0.26997 0.24161 0.42313 0.0
C1043 C 0.27669 0.25483 0.39636 0.0
C1044 C 0.30281 0.24386 0.3799 0.0
C1045 C 0.32204 0.21976 0.39009 0.0
C1046 C 0.31464 0.20711 0.41752 0.0
H1047 H 0.05705 0.11231 0.65122 0.0
H1048 H 0.15217 0.11914 0.68896 0.0
H1049 H 0.14761 0.06982 0.71044 0.0
H1050 H 0.02321 0.07531 0.71319 0.0
H1051 H 0.99834 0.05156 0.69079 0.0
H1052 H 1.00898 0.0873 0.67749 0.0
H1053 H 0.03187 0.06231 0.63006 0.0
H1054 H 0.02144 0.02646 0.64331 0.0
H1055 H 0.06191 0.03336 0.63331 0.0
H1056 H 0.13395 0.02028 0.7273 0.0
H1057 H 0.11045 0.97387 0.74222 0.0
H1058 H 0.02279 0.99771 0.69541 0.0
C1059 C 0.07687 0.10333 0.66398 0.0
C1060 C 0.10491 0.11977 0.66861 0.0
C1061 C 0.13028 0.10729 0.68553 0.0
C1062 C 0.12804 0.07914 0.69762 0.0
C1063 C 0.10022 0.06358 0.69273 0.0
C1064 C 0.07492 0.07516 0.67656 0.0
C1065 C 0.04745 0.05377 0.67559 0.0
C1066 C 0.01774 0.06783 0.69014 0.0
C1067 C 0.04025 0.04336 0.64367 0.0
C1068 C 0.06132 0.02854 0.6939 0.0
C1069 C 0.09193 0.03473 0.70317 0.0
C1070 C 0.10996 0.01517 0.72025 0.0
C1071 C 0.09628 0.98872 0.72858 0.0
C1072 C 0.0646 0.98191 0.72013 0.0
C1073 C 0.04703 1.00211 0.70224 0.0
H1074 H 0.20215 0.87033 0.91088 0.0
H1075 H 0.20685 0.79197 0.85379 0.0
H1076 H 0.25412 0.77377 0.88191 0.0
H1077 H 0.28596 0.88004 0.91874 0.0
H1078 H 0.28385 0.8921 0.95693 0.0
H1079 H 0.25054 0.89872 0.93229 0.0
H1080 H 0.21362 0.8714 0.96765 0.0
H1081 H 0.24676 0.8649 0.9925 0.0
H1082 H 0.22401 0.83416 0.97852 0.0
H1083 H 0.30088 0.76398 0.9174 0.0
H1084 H 0.34205 0.76347 0.95715 0.0
H1085 H 0.30627 0.84853 0.99004 0.0
C1086 C 0.21279 0.84913 0.90446 0.0
C1087 C 0.20059 0.83248 0.88021 0.0
C1088 C 0.21582 0.80519 0.87219 0.0
C1089 C 0.24263 0.79465 0.88808 0.0
C1090 C 0.25402 0.81172 0.91184 0.0
C1091 C 0.2395 0.83838 0.91997 0.0
C1092 C 0.25623 0.85265 0.94625 0.0
C1093 C 0.26996 0.88265 0.93805 0.0
C1094 C 0.23382 0.85596 0.9728 0.0
C1095 C 0.2824 0.82981 0.95187 0.0
C1096 C 0.28085 0.80635 0.9318 0.0
C1097 C 0.30236 0.78236 0.93307 0.0
C1098 C 0.32579 0.78231 0.95558 0.0
C1099 C 0.32756 0.80611 0.97636 0.0
C1100 C 0.30564 0.83015 0.97428 0.0
H1101 H 0.48978 0.063 0.19168 0.0
H1102 H 0.39843 0.09387 0.2254 0.0
H1103 H 0.37225 0.05239 0.19925 0.0
H1104 H 0.46078 0.03502 0.11909 0.0
H1105 H 0.48768 1.00334 0.11942 0.0
H1106 H 0.49873 0.0374 0.13793 0.0
H1107 H 0.50832 1.00906 0.18663 0.0
H1108 H 0.49719 0.975 0.16837 0.0
H1109 H 0.47678 0.98753 0.20128 0.0
H1110 H 0.35643 1.00578 0.17243 0.0
H1111 H 0.35254 0.95623 0.14863 0.0
H1112 H 0.45419 0.95504 0.13309 0.0
C1113 C 0.46418 0.06138 0.19304 0.0
C1114 C 0.44611 0.08179 0.21041 0.0
C1115 C 0.41276 0.07852 0.21219 0.0
C1116 C 0.39764 0.0551 0.19731 0.0
C1117 C 0.41619 0.03506 0.1808 0.0
C1118 C 0.44874 0.03792 0.1786 0.0
C1119 C 0.46349 1.01206 0.16139 0.0
C1120 C 0.47855 0.02259 0.13276 0.0
C1121 C 0.48787 0.9949 0.18057 0.0
C1122 C 0.43425 0.99392 0.15483 0.0
C1123 C 0.40715 1.0078 0.16583 0.0
C1124 C 0.37743 0.99483 0.16342 0.0
C1125 C 0.37542 0.96674 0.14976 0.0
C1126 C 0.40301 0.95179 0.13894 0.0
C1127 C 0.43269 0.96586 0.14123 0.0
H1128 H 0.84036 0.36899 0.64085 0.0
H1129 H 0.83668 0.31841 0.72142 0.0
H1130 H 0.78864 0.29372 0.70243 0.0
H1131 H 0.75533 0.38098 0.63302 0.0
H1132 H 0.75565 0.37771 0.59322 0.0
H1133 H 0.79008 0.39113 0.61297 0.0
H1134 H 0.82509 0.35005 0.58796 0.0
H1135 H 0.79076 0.3365 0.56816 0.0
H1136 H 0.81428 0.31182 0.59096 0.0
H1137 H 0.7412 0.27397 0.67439 0.0
H1138 H 0.69751 0.26135 0.63974 0.0
H1139 H 0.73091 0.32615 0.5783 0.0
C1140 C 0.82934 0.35295 0.65469 0.0
C1141 C 0.84259 0.34559 0.68263 0.0
C1142 C 0.82748 0.3241 0.69973 0.0
C1143 C 0.79999 0.31009 0.68923 0.0
C1144 C 0.78766 0.31786 0.66163 0.0
C1145 C 0.80177 0.33886 0.64464 0.0
C1146 C 0.78369 0.34323 0.61576 0.0
C1147 C 0.7704 0.37516 0.61363 0.0
C1148 C 0.80471 0.33489 0.58914 0.0
C1149 C 0.75725 0.32135 0.61914 0.0
C1150 C 0.76002 0.30688 0.64573 0.0
C1151 C 0.73873 0.28526 0.65356 0.0
C1152 C 0.71399 0.2782 0.63367 0.0
C1153 C 0.71062 0.29279 0.60628 0.0
C1154 C 0.73258 0.31474 0.59913 0.0
H1155 H 0.92206 0.46386 0.84405 0.0
H1156 H 0.02128 0.45183 0.86949 0.0
H1157 H 0.01646 0.4945 0.90444 0.0
H1158 H 0.92157 0.542 0.84417 0.0
H1159 H 0.88204 0.54671 0.85873 0.0
H1160 H 0.89251 0.51378 0.83759 0.0
H1161 H 0.8757 0.48111 0.88093 0.0
H1162 H 0.86492 0.51396 0.90213 0.0
H1163 H 0.89291 0.48725 0.91721 0.0
H1164 H 1.00149 0.54049 0.93441 0.0
H1165 H 0.97703 0.58481 0.95862 0.0
H1166 H 0.88797 0.56746 0.91249 0.0
C1167 C 0.9426 0.46991 0.85736 0.0
C1168 C 0.97205 0.45459 0.85413 0.0
C1169 C 0.99852 0.46336 0.87163 0.0
C1170 C 0.996 0.48755 0.89152 0.0
C1171 C 0.96683 0.50273 0.89364 0.0
C1172 C 0.94054 0.49414 0.87717 0.0
C1173 C 0.9123 0.51488 0.88271 0.0
C1174 C 0.90148 0.53025 0.8541 0.0
C1175 C 0.88484 0.49831 0.89658 0.0
C1176 C 0.92688 0.53666 0.90461 0.0
C1177 C 0.95831 0.52924 0.9107 0.0
C1178 C 0.97685 0.54644 0.92987 0.0
C1179 C 0.96282 0.57175 0.94332 0.0
C1180 C 0.93054 0.57971 0.93753 0.0
C1181 C 0.91253 0.56182 0.91779 0.0
H1182 H 0.8061 0.70452 0.07844 0.0
H1183 H 0.82742 0.78696 0.12501 0.0
H1184 H 0.78564 0.77701 0.16116 0.0
H1185 H 0.72246 0.70938 0.08627 0.0
H1186 H 0.71789 0.67022 0.0914 0.0
H1187 H 0.75044 0.68313 0.07003 0.0
H1188 H 0.79065 0.65505 0.1039 0.0
H1189 H 0.75821 0.6418 0.12521 0.0
H1190 H 0.78984 0.66176 0.14334 0.0
H1191 H 0.73964 0.75872 0.19117 0.0
H1192 H 0.69487 0.73288 0.21336 0.0
H1193 H 0.70474 0.66233 0.1472 0.0
C1194 C 0.80229 0.72044 0.09634 0.0
C1195 C 0.82018 0.74654 0.0988 0.0
C1196 C 0.81418 0.76674 0.12263 0.0
C1197 C 0.79041 0.76132 0.14326 0.0
C1198 C 0.77291 0.73558 0.13985 0.0
C1199 C 0.77874 0.7154 0.11707 0.0
C1200 C 0.75636 0.68965 0.11796 0.0
C1201 C 0.73556 0.68802 0.08974 0.0
C1202 C 0.77487 0.66033 0.12291 0.0
C1203 C 0.73681 0.69855 0.14468 0.0
C1204 C 0.74668 0.72509 0.15705 0.0
C1205 C 0.73189 0.73782 0.18177 0.0
C1206 C 0.70654 0.72291 0.19428 0.0
C1207 C 0.69618 0.69553 0.18208 0.0
C1208 C 0.71166 0.68339 0.15688 0.0
H1209 H 0.55748 0.44374 0.42928 0.0
H1210 H 0.65962 0.44446 0.41662 0.0
H1211 H 0.654 0.49195 0.39114 0.0
H1212 H 0.53616 0.47358 0.35845 0.0
H1213 H 0.50303 0.49592 0.3717 0.0
H1214 H 0.51475 0.46256 0.39056 0.0
H1215 H 0.52071 0.49264 0.4396 0.0
H1216 H 0.50914 0.52615 0.42082 0.0
H1217 H 0.54631 0.52414 0.4411 0.0
H1218 H 0.63832 0.53808 0.36616 0.0
H1219 H 0.61298 0.5797 0.34006 0.0
H1220 H 0.52004 0.55094 0.36704 0.0
C1221 C 0.57861 0.45408 0.4213 0.0
C1222 C 0.60904 0.44016 0.4248 0.0
C1223 C 0.63606 0.45433 0.41385 0.0
C1224 C 0.63316 0.4815 0.39954 0.0
C1225 C 0.60301 0.49448 0.39621 0.0
C1226 C 0.57611 0.48133 0.40657 0.0
C1227 C 0.54647 0.49978 0.39866 0.0
C1228 C 0.52376 0.48189 0.37865 0.0
C1229 C 0.52967 0.51136 0.42672 0.0
C1230 C 0.56102 0.52503 0.38196 0.0
C1231 C 0.59373 0.52148 0.38123 0.0
C1232 C 0.61273 0.54116 0.36663 0.0
C1233 C 0.59801 0.56479 0.35179 0.0
C1234 C 0.56445 0.56877 0.35139 0.0
C1235 C 0.54574 0.5488 0.3672 0.0
H1236 H 0.42374 0.35912 0.2001 0.0
H1237 H 0.32756 0.32833 0.18574 0.0
H1238 H 0.34505 0.27806 0.20035 0.0
H1239 H 0.46258 0.29455 0.16926 0.0
H1240 H 0.49547 0.2958 0.1952 0.0
H1241 H 0.47468 0.32951 0.1852 0.0
H1242 H 0.46385 0.34116 0.24061 0.0
H1243 H 0.48438 0.30733 0.25076 0.0
H1244 H 0.44404 0.31433 0.26242 0.0
H1245 H 0.37381 0.23041 0.21655 0.0
H1246 H 0.41211 0.18966 0.22908 0.0
H1247 H 0.48898 0.25207 0.22985 0.0
C1248 C 0.4063 0.34185 0.19965 0.0
C1249 C 0.37418 0.34792 0.19183 0.0
C1250 C 0.35219 0.32453 0.19213 0.0
C1251 C 0.36192 0.29581 0.20029 0.0
C1252 C 0.39375 0.29071 0.20795 0.0
C1253 C 0.41561 0.3131 0.20743 0.0
C1254 C 0.44866 0.30182 0.2155 0.0
C1255 C 0.47169 0.30564 0.18975 0.0
C1256 C 0.46094 0.31707 0.24402 0.0
C1257 C 0.4421 0.26952 0.22039 0.0
C1258 C 0.41026 0.26346 0.21633 0.0
C1259 C 0.39881 0.23493 0.2197 0.0
C1260 C 0.42062 0.21196 0.22688 0.0
C1261 C 0.45341 0.21779 0.23019 0.0
C1262 C 0.46403 0.24697 0.22726 0.0
H1263 H 0.9343 0.30478 0.80369 0.0
H1264 H 0.94398 0.35698 0.88473 0.0
H1265 H 0.91058 0.32189 0.91071 0.0
H1266 H 0.85173 0.27845 0.81644 0.0
H1267 H 0.86106 0.24205 0.8014 0.0
H1268 H 0.88089 0.27392 0.78774 0.0
H1269 H 0.93553 0.24895 0.79978 0.0
H1270 H 0.91592 0.21715 0.81356 0.0
H1271 H 0.94386 0.23673 0.83687 0.0
H1272 H 0.88117 0.27906 0.92924 0.0
H1273 H 0.86044 0.22971 0.9398 0.0
H1274 H 0.87127 0.20382 0.84747 0.0
C1275 C 0.92852 0.30919 0.82666 0.0
C1276 C 0.94132 0.33367 0.8422 0.0
C1277 C 0.93423 0.33835 0.87247 0.0
C1278 C 0.91514 0.31865 0.88736 0.0
C1279 C 0.90349 0.29426 0.8717 0.0
C1280 C 0.90992 0.28936 0.84204 0.0
C1281 C 0.89762 0.25965 0.83138 0.0
C1282 C 0.87125 0.26377 0.80784 0.0
C1283 C 0.92486 0.23944 0.81973 0.0
C1284 C 0.88436 0.24825 0.85992 0.0
C1285 C 0.88732 0.26887 0.88271 0.0
C1286 C 0.87828 0.26287 0.91149 0.0
C1287 C 0.86643 0.23482 0.91727 0.0
C1288 C 0.86417 0.213 0.89447 0.0
C1289 C 0.87274 0.22009 0.86534 0.0
H1290 H 0.07556 0.67449 0.14881 0.0
H1291 H 0.07117 0.6015 0.08504 0.0
H1292 H 0.02882 0.62848 0.05736 0.0
H1293 H 0.99203 0.69018 0.15098 0.0
H1294 H 0.99639 0.72973 0.15451 0.0
H1295 H 0.02713 0.70512 0.16845 0.0
H1296 H 0.06871 0.73074 0.13643 0.0
H1297 H 0.0381 0.75549 0.12245 0.0
H1298 H 0.06194 0.73344 0.0971 0.0
H1299 H 0.98533 0.66352 0.03731 0.0
H1300 H 0.94617 0.70389 0.02639 0.0
H1301 H 0.97864 0.75278 0.10406 0.0
C1302 C 0.06568 0.66405 0.12909 0.0
C1303 C 0.07678 0.63577 0.11919 0.0
C1304 C 0.06342 0.62326 0.09294 0.0
C1305 C 0.03917 0.63835 0.07716 0.0
C1306 C 0.02855 0.66602 0.0878 0.0
C1307 C 0.04153 0.67877 0.11311 0.0
C1308 C 0.02587 0.70859 0.12015 0.0
C1309 C 0.00938 0.70838 0.15031 0.0
C1310 C 0.0501 0.73354 0.11895 0.0
C1311 C 1.00186 0.71061 0.09498 0.0
C1312 C 1.00368 0.68588 0.07649 0.0
C1313 C 0.98365 0.68288 0.05177 0.0
C1314 C 0.96124 0.70573 0.04588 0.0
C1315 C 0.959 0.73112 0.06467 0.0
C1316 C 0.97973 0.73353 0.08938 0.0
H1317 H 0.61392 0.82831 0.39284 0.0
H1318 H 0.68937 0.82305 0.32825 0.0
H1319 H 0.66891 0.77518 0.30959 0.0
H1320 H 0.61468 0.74999 0.40956 0.0
H1321 H 0.57214 0.74931 0.41381 0.0
H1322 H 0.5932 0.78285 0.422 0.0
H1323 H 0.5567 0.81131 0.38506 0.0
H1324 H 0.53556 0.77788 0.37677 0.0
H1325 H 0.55329 0.79791 0.34734 0.0
H1326 H 0.63796 0.72723 0.29687 0.0
H1327 H 0.60011 0.68569 0.29228 0.0
H1328 H 0.54758 0.72252 0.3667 0.0
C1329 C 0.62663 0.817 0.37511 0.0
C1330 C 0.65343 0.82979 0.36217 0.0
C1331 C 0.66859 0.81418 0.33845 0.0
C1332 C 0.65724 0.78675 0.32778 0.0
C1333 C 0.63073 0.7749 0.34107 0.0
C1334 C 0.61577 0.78961 0.36433 0.0
C1335 C 0.58744 0.77269 0.37466 0.0
C1336 C 0.59216 0.76314 0.40692 0.0
C1337 C 0.55642 0.79104 0.37071 0.0
C1338 C 0.58857 0.74621 0.35354 0.0
C1339 C 0.61364 0.74768 0.33422 0.0
C1340 C 0.61846 0.72586 0.31214 0.0
C1341 C 0.59698 0.70226 0.30969 0.0
C1342 C 0.57112 0.70066 0.32927 0.0
C1343 C 0.56728 0.72288 0.35153 0.0
H1344 H 0.52327 0.28745 0.56371 0.0
H1345 H 0.60188 0.34783 0.56966 0.0
H1346 H 0.5635 0.39017 0.57515 0.0
H1347 H 0.46681 0.33701 0.52396 0.0
H1348 H 0.43346 0.32397 0.54426 0.0
H1349 H 0.46702 0.29948 0.53688 0.0
H1350 H 0.47339 0.28977 0.59301 0.0
H1351 H 0.44002 0.31423 0.60057 0.0
H1352 H 0.47787 0.32073 0.61843 0.0
H1353 H 0.51614 0.42483 0.58575 0.0
H1354 H 0.46507 0.44838 0.60085 0.0
H1355 H 0.4182 0.36453 0.58704 0.0
C1356 C 0.53245 0.30963 0.56566 0.0
C1357 C 0.56545 0.3145 0.56623 0.0
C1358 C 0.57661 0.34376 0.56899 0.0
C1359 C 0.55499 0.36786 0.57208 0.0
C1360 C 0.52246 0.36217 0.57208 0.0
C1361 C 0.51133 0.33371 0.56873 0.0
C1362 C 0.4756 0.33292 0.57167 0.0
C1363 C 0.45979 0.32275 0.54245 0.0
C1364 C 0.46619 0.31326 0.59745 0.0
C1365 C 0.46828 0.36526 0.5783 0.0
C1366 C 0.49546 0.38193 0.57805 0.0
C1367 C 0.49467 0.41206 0.58548 0.0
C1368 C 0.4655 0.42528 0.59391 0.0
C1369 C 0.4376 0.4083 0.59506 0.0
C1370 C 0.43909 0.37808 0.58646 0.0
H1371 H 0.15154 0.72566 0.71662 0.0
H1372 H 0.15944 0.73737 0.62196 0.0
H1373 H 0.13274 0.78625 0.62657 0.0
H1374 H 0.07475 0.75705 0.72327 0.0
H1375 H 0.08142 0.77546 0.75848 0.0
H1376 H 0.10438 0.74267 0.74871 0.0
H1377 H 0.15647 0.77134 0.75759 0.0
H1378 H 0.13347 0.8042 0.76741 0.0
H1379 H 0.16233 0.80536 0.73837 0.0
H1380 H 0.10043 0.83032 0.63947 0.0
H1381 H 0.06328 0.86794 0.66042 0.0
H1382 H 0.07691 0.8308 0.74746 0.0
C1383 C 0.1481 0.73883 0.69703 0.0
C1384 C 0.15735 0.72758 0.66886 0.0
C1385 C 0.15212 0.74528 0.64366 0.0
C1386 C 0.13726 0.77323 0.64609 0.0
C1387 C 0.12793 0.78347 0.67394 0.0
C1388 C 0.13314 0.767 0.69906 0.0
C1389 C 0.11846 0.78263 0.72591 0.0
C1390 C 0.09326 0.7633 0.7399 0.0
C1391 C 0.14423 0.7914 0.74866 0.0
C1392 C 0.10336 0.80985 0.71164 0.0
C1393 C 0.10954 0.80988 0.68167 0.0
C1394 C 0.09597 0.83097 0.663 0.0
C1395 C 0.07492 0.85223 0.67506 0.0
C1396 C 0.0679 0.85253 0.70552 0.0
C1397 C 0.08281 0.83153 0.72425 0.0
H1398 H 0.46421 0.85939 1.00518 0.0
H1399 H 0.49909 0.77102 0.98077 0.0
H1400 H 0.54931 0.79175 0.96451 0.0
H1401 H 0.49765 0.89553 0.94311 0.0
H1402 H 0.50764 0.92878 0.96358 0.0
H1403 H 0.4747 0.90706 0.97489 0.0
H1404 H 0.49983 0.90278 0.0273 0.0
H1405 H 0.53292 0.92443 0.01611 0.0
H1406 H 0.53992 0.88824 0.03139 0.0
H1407 H 0.59557 0.82133 0.9505 0.0
H1408 H 0.63386 0.85877 0.93614 0.0
H1409 H 0.56964 0.92866 0.96807 0.0
C1410 C 0.4825 0.84444 0.99656 0.0
C1411 C 0.47761 0.81354 0.99431 0.0
C1412 C 0.50206 0.79476 0.9826 0.0
C1413 C 0.53084 0.80629 0.97343 0.0
C1414 C 0.5349 0.83673 0.97587 0.0
C1415 C 0.5114 0.85566 0.98688 0.0
C1416 C 0.52159 0.88767 0.98574 0.0
C1417 C 0.49905 0.90583 0.96563 0.0
C1418 C 0.52369 0.90159 0.017 0.0
C1419 C 0.55433 0.88367 0.97224 0.0
C1420 C 0.56159 0.85404 0.96707 0.0
C1421 C 0.59025 0.84462 0.95454 0.0
C1422 C 0.61198 0.86607 0.94665 0.0
C1423 C 0.60492 0.89667 0.95111 0.0
C1424 C 0.57572 0.90546 0.9643 0.0
H1425 H 0.93984 0.16247 0.42198 0.0
H1426 H 0.93309 0.09782 0.49142 0.0
H1427 H 0.97707 0.12163 0.51848 0.0
H1428 H 0.02484 0.16882 0.42399 0.0
H1429 H 0.02432 0.20823 0.41829 0.0
H1430 H 0.99237 0.18609 0.4038 0.0
H1431 H 0.95147 0.21946 0.4319 0.0
H1432 H 0.98329 0.2418 0.44636 0.0
H1433 H 0.95607 0.2252 0.47129 0.0
H1434 H 0.02227 0.1516 0.53798 0.0
H1435 H 0.0642 0.18705 0.54987 0.0
H1436 H 0.04135 0.23446 0.46934 0.0
C1437 C 0.94731 0.15343 0.44302 0.0
C1438 C 0.9329 0.12785 0.45423 0.0
C1439 C 0.94394 0.11682 0.4818 0.0
C1440 C 0.96887 0.13037 0.49754 0.0
C1441 C 0.98263 0.15523 0.48572 0.0
C1442 C 0.97216 0.16685 0.45921 0.0
C1443 C 0.99103 0.19405 0.45174 0.0
C1444 C 0.00922 0.18898 0.42273 0.0
C1445 C 0.96916 0.22177 0.45024 0.0
C1446 C 0.01375 0.19581 0.47818 0.0
C1447 C 1.00848 0.17304 0.49737 0.0
C1448 C 0.02655 0.16956 0.52314 0.0
C1449 C 0.05051 0.18988 0.52964 0.0
C1450 C 0.05639 0.21373 0.51061 0.0
C1451 C 0.03758 0.21661 0.48446 0.0
loop_
_geom_bond_atom_site_label_1
_geom_bond_atom_site_label_2
_geom_bond_distance
_geom_bond_site_symmetry_2
_ccdc_geom_bond_type
C0 Eu1 2.835 . S
C0 C2 1.500 . S
C0 O20 1.257 . S
C0 O21 1.260 . S
Eu1 C0 2.835 . S
Eu1 O20 2.473 . S
Eu1 O21 2.480 . S
Eu1 O22 2.430 . S
Eu1 O23 2.670 . S
Eu1 O24 2.394 . S
Eu1 O29 2.355 . S
Eu1 O31 2.374 . S
C2 C0 1.500 . S
C2 C3 1.377 . S
C2 C7 1.377 . S
C3 C2 1.377 . S
C3 C4 1.395 . S
C3 H32 0.931 . S
C4 C3 1.395 . S
C4 C5 1.383 . S
C4 H33 0.931 . S
C5 C4 1.383 . S
C5 C6 1.394 . S
C6 C5 1.394 . S
C6 C7 1.378 . S
C6 H34 0.931 . S
C7 C2 1.377 . S
C7 C6 1.378 . S
C7 H35 0.931 . S
C8 O22 1.259 . S
C8 O23 1.270 . S
C9 O24 1.251 . S
C9 O25 1.251 . S
C10 Eu11 2.835 . S
C10 C12 1.500 . S
C10 O26 1.257 . S
C10 O27 1.260 . S
Eu11 C10 2.835 . S
Eu11 O23 2.355 . S
Eu11 O25 2.374 . S
Eu11 O26 2.473 . S
Eu11 O27 2.480 . S
Eu11 O28 2.430 . S
Eu11 O29 2.670 . S
Eu11 O30 2.394 . S
C12 C10 1.500 . S
C12 C13 1.377 . S
C12 C17 1.377 . S
C13 C12 1.377 . S
C13 C14 1.395 . S
C13 H36 0.931 . S
C14 C13 1.395 . S
C14 C15 1.383 . S
C14 H37 0.931 . S
C15 C14 1.383 . S
C15 C16 1.394 . S
C16 C15 1.394 . S
C16 C17 1.378 . S
C16 H38 0.931 . S
C17 C12 1.377 . S
C17 C16 1.378 . S
C17 H39 0.931 . S
C18 O28 1.259 . S
C18 O29 1.270 . S
C19 O30 1.251 . S
C19 O31 1.251 . S
O20 C0 1.257 . S
O20 Eu1 2.473 . S
O21 C0 1.260 . S
O21 Eu1 2.480 . S
O22 Eu1 2.430 . S
O22 C8 1.259 . S
O23 Eu1 2.670 . S
O23 C8 1.270 . S
O23 Eu11 2.355 . S
O24 Eu1 2.394 . S
O24 C9 1.251 . S
O25 C9 1.251 . S
O25 Eu11 2.374 . S
O26 C10 1.257 . S
O26 Eu11 2.473 . S
O27 C10 1.260 . S
O27 Eu11 2.480 . S
O28 Eu11 2.430 . S
O28 C18 1.259 . S
O29 Eu1 2.355 . S
O29 Eu11 2.670 . S
O29 C18 1.270 . S
O30 Eu11 2.394 . S
O30 C19 1.251 . S
O31 Eu1 2.374 . S
O31 C19 1.251 . S
H32 C3 0.931 . S
H33 C4 0.931 . S
H34 C6 0.931 . S
H35 C7 0.931 . S
H36 C13 0.931 . S
H37 C14 0.931 . S
H38 C16 0.931 . S
H39 C17 0.931 . S
C40 Eu41 2.835 . S
C40 C42 1.500 . S
C40 O60 1.257 . S
C40 O61 1.260 . S
Eu41 C40 2.835 . S
Eu41 O60 2.473 . S
Eu41 O61 2.480 . S
Eu41 O62 2.430 1_455 S
Eu41 O63 2.670 1_455 S
Eu41 O64 2.394 1_455 S
Eu41 O69 2.355 . S
Eu41 O71 2.374 . S
C42 C40 1.500 . S
C42 C43 1.377 . S
C42 C47 1.377 . S
C43 C42 1.377 . S
C43 C44 1.395 . S
C43 H72 0.931 . S
C44 C43 1.395 . S
C44 C45 1.383 . S
C44 H73 0.931 . S
C45 C44 1.383 . S
C45 C46 1.394 . S
C46 C45 1.394 . S
C46 C47 1.378 . S
C46 H74 0.931 . S
C47 C42 1.377 . S
C47 C46 1.378 . S
C47 H75 0.931 . S
C48 O62 1.259 . S
C48 O63 1.270 . S
C49 O64 1.251 . S
C49 O65 1.251 . S
C50 Eu51 2.835 . S
C50 C52 1.500 . S
C50 O66 1.257 . S
C50 O67 1.260 . S
Eu51 C50 2.835 . S
Eu51 O63 2.355 . S
Eu51 O65 2.374 . S
Eu51 O66 2.473 . S
Eu51 O67 2.480 . S
Eu51 O68 2.430 1_655 S
Eu51 O69 2.670 1_655 S
Eu51 O70 2.394 1_655 S
C52 C50 1.500 . S
C52 C53 1.377 . S
C52 C57 1.377 . S
C53 C52 1.377 . S
C53 C54 1.395 . S
C53 H76 0.931 . S
C54 C53 1.395 . S
C54 C55 1.383 . S
C54 H77 0.931 . S
C55 C54 1.383 . S
C55 C56 1.394 . S
C56 C55 1.394 . S
C56 C57 1.378 . S
C56 H78 0.931 . S
C57 C52 1.377 . S
C57 C56 1.378 . S
C57 H79 0.931 . S
C58 O68 1.259 . S
C58 O69 1.270 . S
C59 O70 1.251 . S
C59 O71 1.251 . S
O60 C40 1.257 . S
O60 Eu41 2.473 . S
O61 C40 1.260 . S
O61 Eu41 2.480 . S
O62 Eu41 2.430 1_655 S
O62 C48 1.259 . S
O63 Eu41 2.670 1_655 S
O63 C48 1.270 . S
O63 Eu51 2.355 . S
O64 Eu41 2.394 1_655 S
O64 C49 1.251 . S
O65 C49 1.251 . S
O65 Eu51 2.374 . S
O66 C50 1.257 . S
O66 Eu51 2.473 . S
O67 C50 1.260 . S
O67 Eu51 2.480 . S
O68 Eu51 2.430 1_455 S
O68 C58 1.259 . S
O69 Eu41 2.355 . S
O69 Eu51 2.670 1_455 S
O69 C58 1.270 . S
O70 Eu51 2.394 1_455 S
O70 C59 1.251 . S
O71 Eu41 2.374 . S
O71 C59 1.251 . S
H72 C43 0.931 . S
H73 C44 0.931 . S
H74 C46 0.931 . S
H75 C47 0.931 . S
H76 C53 0.931 . S
H77 C54 0.931 . S
H78 C56 0.931 . S
H79 C57 0.931 . S
C80 Eu81 2.835 . S
C80 C82 1.500 . S
C80 O100 1.257 . S
C80 O101 1.260 . S
Eu81 C80 2.835 . S
Eu81 O100 2.473 . S
Eu81 O101 2.480 . S
Eu81 O102 2.430 1_556 S
Eu81 O103 2.670 1_556 S
Eu81 O104 2.394 1_556 S
Eu81 O109 2.355 . S
Eu81 O111 2.374 . S
C82 C80 1.500 . S
C82 C83 1.377 . S
C82 C87 1.377 . S
C83 C82 1.377 . S
C83 C84 1.395 . S
C83 H112 0.931 . S
C84 C83 1.395 . S
C84 C85 1.383 . S
C84 H113 0.931 . S
C85 C84 1.383 . S
C85 C86 1.394 . S
C86 C85 1.394 . S
C86 C87 1.378 . S
C86 H114 0.931 . S
C87 C82 1.377 . S
C87 C86 1.378 . S
C87 H115 0.931 . S
C88 O102 1.259 . S
C88 O103 1.270 . S
C89 O104 1.251 . S
C89 O105 1.251 . S
C90 Eu91 2.835 . S
C90 C92 1.500 . S
C90 O106 1.257 . S
C90 O107 1.260 . S
Eu91 C90 2.835 . S
Eu91 O103 2.355 . S
Eu91 O105 2.374 . S
Eu91 O106 2.473 . S
Eu91 O107 2.480 . S
Eu91 O108 2.430 1_554 S
Eu91 O109 2.670 1_554 S
Eu91 O110 2.394 1_554 S
C92 C90 1.500 . S
C92 C93 1.377 . S
C92 C97 1.377 . S
C93 C92 1.377 . S
C93 C94 1.395 . S
C93 H116 0.931 . S
C94 C93 1.395 . S
C94 C95 1.383 . S
C94 H117 0.931 . S
C95 C94 1.383 . S
C95 C96 1.394 . S
C96 C95 1.394 . S
C96 C97 1.378 . S
C96 H118 0.931 . S
C97 C92 1.377 . S
C97 C96 1.378 . S
C97 H119 0.931 . S
C98 O108 1.259 . S
C98 O109 1.270 . S
C99 O110 1.251 . S
C99 O111 1.251 . S
O100 C80 1.257 . S
O100 Eu81 2.473 . S
O101 C80 1.260 . S
O101 Eu81 2.480 . S
O102 Eu81 2.430 1_554 S
O102 C88 1.259 . S
O103 Eu81 2.670 1_554 S
O103 C88 1.270 . S
O103 Eu91 2.355 . S
O104 Eu81 2.394 1_554 S
O104 C89 1.251 . S
O105 C89 1.251 . S
O105 Eu91 2.374 . S
O106 C90 1.257 . S
O106 Eu91 2.473 . S
O107 C90 1.260 . S
O107 Eu91 2.480 . S
O108 Eu91 2.430 1_556 S
O108 C98 1.259 . S
O109 Eu81 2.355 . S
O109 Eu91 2.670 1_556 S
O109 C98 1.270 . S
O110 Eu91 2.394 1_556 S
O110 C99 1.251 . S
O111 Eu81 2.374 . S
O111 C99 1.251 . S
H112 C83 0.931 . S
H113 C84 0.931 . S
H114 C86 0.931 . S
H115 C87 0.931 . S
H116 C93 0.931 . S
H117 C94 0.931 . S
H118 C96 0.931 . S
H119 C97 0.931 . S
C120 Eu121 2.835 . S
C120 C122 1.500 . S
C120 O140 1.257 . S
C120 O141 1.260 . S
Eu121 C120 2.835 . S
Eu121 O140 2.473 . S
Eu121 O141 2.480 . S
Eu121 O142 2.430 . S
Eu121 O143 2.670 . S
Eu121 O144 2.394 . S
Eu121 O149 2.355 . S
Eu121 O151 2.374 . S
C122 C120 1.500 . S
C122 C123 1.377 . S
C122 C127 1.377 . S
C123 C122 1.377 . S
C123 C124 1.395 . S
C123 H152 0.931 . S
C124 C123 1.395 . S
C124 C125 1.383 . S
C124 H153 0.931 . S
C125 C124 1.383 . S
C125 C126 1.394 . S
C126 C125 1.394 . S
C126 C127 1.378 . S
C126 H154 0.931 . S
C127 C122 1.377 . S
C127 C126 1.378 . S
C127 H155 0.931 . S
C128 O142 1.259 . S
C128 O143 1.270 . S
C129 O144 1.251 . S
C129 O145 1.251 . S
C130 Eu131 2.835 . S
C130 C132 1.500 . S
C130 O146 1.257 . S
C130 O147 1.260 . S
Eu131 C130 2.835 . S
Eu131 O143 2.355 . S
Eu131 O145 2.374 . S
Eu131 O146 2.473 . S
Eu131 O147 2.480 . S
Eu131 O148 2.430 . S
Eu131 O149 2.670 . S
Eu131 O150 2.394 . S
C132 C130 1.500 . S
C132 C133 1.377 . S
C132 C137 1.377 . S
C133 C132 1.377 . S
C133 C134 1.395 . S
C133 H156 0.931 . S
C134 C133 1.395 . S
C134 C135 1.383 . S
C134 H157 0.931 . S
C135 C134 1.383 . S
C135 C136 1.394 . S
C136 C135 1.394 . S
C136 C137 1.378 . S
C136 H158 0.931 . S
C137 C132 1.377 . S
C137 C136 1.378 . S
C137 H159 0.931 . S
C138 O148 1.259 . S
C138 O149 1.270 . S
C139 O150 1.251 . S
C139 O151 1.251 . S
O140 C120 1.257 . S
O140 Eu121 2.473 . S
O141 C120 1.260 . S
O141 Eu121 2.480 . S
O142 Eu121 2.430 . S
O142 C128 1.259 . S
O143 Eu121 2.670 . S
O143 C128 1.270 . S
O143 Eu131 2.355 . S
O144 Eu121 2.394 . S
O144 C129 1.251 . S
O145 C129 1.251 . S
O145 Eu131 2.374 . S
O146 C130 1.257 . S
O146 Eu131 2.473 . S
O147 C130 1.260 . S
O147 Eu131 2.480 . S
O148 Eu131 2.430 . S
O148 C138 1.259 . S
O149 Eu121 2.355 . S
O149 Eu131 2.670 . S
O149 C138 1.270 . S
O150 Eu131 2.394 . S
O150 C139 1.251 . S
O151 Eu121 2.374 . S
O151 C139 1.251 . S
H152 C123 0.931 . S
H153 C124 0.931 . S
H154 C126 0.931 . S
H155 C127 0.931 . S
H156 C133 0.931 . S
H157 C134 0.931 . S
H158 C136 0.931 . S
H159 C137 0.931 . S
C160 Eu161 2.835 . S
C160 C162 1.500 . S
C160 O180 1.257 . S
C160 O181 1.260 . S
Eu161 C160 2.835 . S
Eu161 O180 2.473 . S
Eu161 O181 2.480 . S
Eu161 O182 2.430 . S
Eu161 O183 2.670 . S
Eu161 O184 2.394 . S
Eu161 O189 2.355 . S
Eu161 O191 2.374 . S
C162 C160 1.500 . S
C162 C163 1.377 . S
C162 C167 1.377 . S
C163 C162 1.377 . S
C163 C164 1.395 . S
C163 H192 0.931 . S
C164 C163 1.395 . S
C164 C165 1.383 . S
C164 H193 0.931 . S
C165 C164 1.383 . S
C165 C166 1.394 . S
C166 C165 1.394 . S
C166 C167 1.378 . S
C166 H194 0.931 . S
C167 C162 1.377 . S
C167 C166 1.378 . S
C167 H195 0.931 . S
C168 O182 1.259 . S
C168 O183 1.270 . S
C169 O184 1.251 . S
C169 O185 1.251 . S
C170 Eu171 2.835 . S
C170 C172 1.500 . S
C170 O186 1.257 . S
C170 O187 1.260 . S
Eu171 C170 2.835 . S
Eu171 O183 2.355 . S
Eu171 O185 2.374 . S
Eu171 O186 2.473 . S
Eu171 O187 2.480 . S
Eu171 O188 2.430 . S
Eu171 O189 2.670 . S
Eu171 O190 2.394 . S
C172 C170 1.500 . S
C172 C173 1.377 . S
C172 C177 1.377 . S
C173 C172 1.377 . S
C173 C174 1.395 . S
C173 H196 0.931 . S
C174 C173 1.395 . S
C174 C175 1.383 . S
C174 H197 0.931 . S
C175 C174 1.383 . S
C175 C176 1.394 . S
C176 C175 1.394 . S
C176 C177 1.378 . S
C176 H198 0.931 . S
C177 C172 1.377 . S
C177 C176 1.378 . S
C177 H199 0.931 . S
C178 O188 1.259 . S
C178 O189 1.270 . S
C179 O190 1.251 . S
C179 O191 1.251 . S
O180 C160 1.257 . S
O180 Eu161 2.473 . S
O181 C160 1.260 . S
O181 Eu161 2.480 . S
O182 Eu161 2.430 . S
O182 C168 1.259 . S
O183 Eu161 2.670 . S
O183 C168 1.270 . S
O183 Eu171 2.355 . S
O184 Eu161 2.394 . S
O184 C169 1.251 . S
O185 C169 1.251 . S
O185 Eu171 2.374 . S
O186 C170 1.257 . S
O186 Eu171 2.473 . S
O187 C170 1.260 . S
O187 Eu171 2.480 . S
O188 Eu171 2.430 . S
O188 C178 1.259 . S
O189 Eu161 2.355 . S
O189 Eu171 2.670 . S
O189 C178 1.270 . S
O190 Eu171 2.394 . S
O190 C179 1.251 . S
O191 Eu161 2.374 . S
O191 C179 1.251 . S
H192 C163 0.931 . S
H193 C164 0.931 . S
H194 C166 0.931 . S
H195 C167 0.931 . S
H196 C173 0.931 . S
H197 C174 0.931 . S
H198 C176 0.931 . S
H199 C177 0.931 . S
C200 Eu201 2.835 . S
C200 C202 1.500 . S
C200 O220 1.257 . S
C200 O221 1.260 . S
Eu201 C200 2.835 . S
Eu201 O220 2.473 . S
Eu201 O221 2.480 . S
Eu201 O222 2.430 . S
Eu201 O223 2.670 . S
Eu201 O224 2.394 . S
Eu201 O229 2.355 1_455 S
Eu201 O231 2.374 1_455 S
C202 C200 1.500 . S
C202 C203 1.377 . S
C202 C207 1.377 . S
C203 C202 1.377 . S
C203 C204 1.395 . S
C203 H232 0.931 . S
C204 C203 1.395 . S
C204 C205 1.383 . S
C204 H233 0.931 . S
C205 C204 1.383 . S
C205 C206 1.394 . S
C206 C205 1.394 . S
C206 C207 1.378 . S
C206 H234 0.931 . S
C207 C202 1.377 . S
C207 C206 1.378 . S
C207 H235 0.931 . S
C208 O222 1.259 . S
C208 O223 1.270 . S
C209 O224 1.251 . S
C209 O225 1.251 . S
C210 Eu211 2.835 . S
C210 C212 1.500 . S
C210 O226 1.257 . S
C210 O227 1.260 . S
Eu211 C210 2.835 . S
Eu211 O223 2.355 1_655 S
Eu211 O225 2.374 1_655 S
Eu211 O226 2.473 . S
Eu211 O227 2.480 . S
Eu211 O228 2.430 . S
Eu211 O229 2.670 . S
Eu211 O230 2.394 . S
C212 C210 1.500 . S
C212 C213 1.377 . S
C212 C217 1.377 . S
C213 C212 1.377 . S
C213 C214 1.395 . S
C213 H236 0.931 . S
C214 C213 1.395 . S
C214 C215 1.383 . S
C214 H237 0.931 . S
C215 C214 1.383 . S
C215 C216 1.394 . S
C216 C215 1.394 . S
C216 C217 1.378 . S
C216 H238 0.931 . S
C217 C212 1.377 . S
C217 C216 1.378 . S
C217 H239 0.931 . S
C218 O228 1.259 . S
C218 O229 1.270 . S
C219 O230 1.251 . S
C219 O231 1.251 . S
O220 C200 1.257 . S
O220 Eu201 2.473 . S
O221 C200 1.260 . S
O221 Eu201 2.480 . S
O222 Eu201 2.430 . S
O222 C208 1.259 . S
O223 Eu201 2.670 . S
O223 C208 1.270 . S
O223 Eu211 2.355 1_455 S
O224 Eu201 2.394 . S
O224 C209 1.251 . S
O225 C209 1.251 . S
O225 Eu211 2.374 1_455 S
O226 C210 1.257 . S
O226 Eu211 2.473 . S
O227 C210 1.260 . S
O227 Eu211 2.480 . S
O228 Eu211 2.430 . S
O228 C218 1.259 . S
O229 Eu201 2.355 1_655 S
O229 Eu211 2.670 . S
O229 C218 1.270 . S
O230 Eu211 2.394 . S
O230 C219 1.251 . S
O231 Eu201 2.374 1_655 S
O231 C219 1.251 . S
H232 C203 0.931 . S
H233 C204 0.931 . S
H234 C206 0.931 . S
H235 C207 0.931 . S
H236 C213 0.931 . S
H237 C214 0.931 . S
H238 C216 0.931 . S
H239 C217 0.931 . S
C240 Eu241 2.835 . S
C240 C242 1.500 . S
C240 O260 1.257 . S
C240 O261 1.260 . S
Eu241 C240 2.835 . S
Eu241 O260 2.473 . S
Eu241 O261 2.480 . S
Eu241 O262 2.430 . S
Eu241 O263 2.670 1_556 S
Eu241 O264 2.394 . S
Eu241 O269 2.355 1_556 S
Eu241 O271 2.374 1_556 S
C242 C240 1.500 . S
C242 C243 1.377 . S
C242 C247 1.377 . S
C243 C242 1.377 . S
C243 C244 1.395 . S
C243 H272 0.931 . S
C244 C243 1.395 . S
C244 C245 1.383 . S
C244 H273 0.931 . S
C245 C244 1.383 . S
C245 C246 1.394 . S
C246 C245 1.394 . S
C246 C247 1.378 . S
C246 H274 0.931 . S
C247 C242 1.377 . S
C247 C246 1.378 . S
C247 H275 0.931 . S
C248 O262 1.259 . S
C248 O263 1.270 1_556 S
C249 O264 1.251 . S
C249 O265 1.251 . S
C250 Eu251 2.835 . S
C250 C252 1.500 . S
C250 O266 1.257 . S
C250 O267 1.260 . S
Eu251 C250 2.835 . S
Eu251 O263 2.355 . S
Eu251 O265 2.374 1_554 S
Eu251 O266 2.473 . S
Eu251 O267 2.480 . S
Eu251 O268 2.430 . S
Eu251 O269 2.670 . S
Eu251 O270 2.394 . S
C252 C250 1.500 . S
C252 C253 1.377 . S
C252 C257 1.377 . S
C253 C252 1.377 . S
C253 C254 1.395 . S
C253 H276 0.931 . S
C254 C253 1.395 . S
C254 C255 1.383 . S
C254 H277 0.931 . S
C255 C254 1.383 . S
C255 C256 1.394 . S
C256 C255 1.394 . S
C256 C257 1.378 . S
C256 H278 0.931 . S
C257 C252 1.377 . S
C257 C256 1.378 . S
C257 H279 0.931 . S
C258 O268 1.259 . S
C258 O269 1.270 . S
C259 O270 1.251 . S
C259 O271 1.251 . S
O260 C240 1.257 . S
O260 Eu241 2.473 . S
O261 C240 1.260 . S
O261 Eu241 2.480 . S
O262 Eu241 2.430 . S
O262 C248 1.259 . S
O263 Eu241 2.670 1_554 S
O263 C248 1.270 1_554 S
O263 Eu251 2.355 . S
O264 Eu241 2.394 . S
O264 C249 1.251 . S
O265 C249 1.251 . S
O265 Eu251 2.374 1_556 S
O266 C250 1.257 . S
O266 Eu251 2.473 . S
O267 C250 1.260 . S
O267 Eu251 2.480 . S
O268 Eu251 2.430 . S
O268 C258 1.259 . S
O269 Eu241 2.355 1_554 S
O269 Eu251 2.670 . S
O269 C258 1.270 . S
O270 Eu251 2.394 . S
O270 C259 1.251 . S
O271 Eu241 2.374 1_554 S
O271 C259 1.251 . S
H272 C243 0.931 . S
H273 C244 0.931 . S
H274 C246 0.931 . S
H275 C247 0.931 . S
H276 C253 0.931 . S
H277 C254 0.931 . S
H278 C256 0.931 . S
H279 C257 0.931 . S
C280 Eu281 2.835 . S
C280 C282 1.500 . S
C280 O300 1.257 . S
C280 O301 1.260 . S
Eu281 C280 2.835 . S
Eu281 O300 2.473 . S
Eu281 O301 2.480 . S
Eu281 O302 2.430 . S
Eu281 O303 2.670 . S
Eu281 O304 2.394 . S
Eu281 O309 2.355 . S
Eu281 O311 2.374 . S
C282 C280 1.500 . S
C282 C283 1.377 . S
C282 C287 1.377 . S
C283 C282 1.377 . S
C283 C284 1.395 . S
C283 H312 0.931 . S
C284 C283 1.395 . S
C284 C285 1.383 . S
C284 H313 0.931 . S
C285 C284 1.383 . S
C285 C286 1.394 . S
C286 C285 1.394 . S
C286 C287 1.378 . S
C286 H314 0.931 . S
C287 C282 1.377 . S
C287 C286 1.378 . S
C287 H315 0.931 . S
C288 O302 1.259 . S
C288 O303 1.270 . S
C289 O304 1.251 . S
C289 O305 1.251 . S
C290 Eu291 2.835 . S
C290 C292 1.500 . S
C290 O306 1.257 . S
C290 O307 1.260 . S
Eu291 C290 2.835 . S
Eu291 O303 2.355 . S
Eu291 O305 2.374 . S
Eu291 O306 2.473 . S
Eu291 O307 2.480 . S
Eu291 O308 2.430 . S
Eu291 O309 2.670 . S
Eu291 O310 2.394 . S
C292 C290 1.500 . S
C292 C293 1.377 . S
C292 C297 1.377 . S
C293 C292 1.377 . S
C293 C294 1.395 . S
C293 H316 0.931 . S
C294 C293 1.395 . S
C294 C295 1.383 . S
C294 H317 0.931 . S
C295 C294 1.383 . S
C295 C296 1.394 . S
C296 C295 1.394 . S
C296 C297 1.378 . S
C296 H318 0.931 . S
C297 C292 1.377 . S
C297 C296 1.378 . S
C297 H319 0.931 . S
C298 O308 1.259 . S
C298 O309 1.270 . S
C299 O310 1.251 . S
C299 O311 1.251 . S
O300 C280 1.257 . S
O300 Eu281 2.473 . S
O301 C280 1.260 . S
O301 Eu281 2.480 . S
O302 Eu281 2.430 . S
O302 C288 1.259 . S
O303 Eu281 2.670 . S
O303 C288 1.270 . S
O303 Eu291 2.355 . S
O304 Eu281 2.394 . S
O304 C289 1.251 . S
O305 C289 1.251 . S
O305 Eu291 2.374 . S
O306 C290 1.257 . S
O306 Eu291 2.473 . S
O307 C290 1.260 . S
O307 Eu291 2.480 . S
O308 Eu291 2.430 . S
O308 C298 1.259 . S
O309 Eu281 2.355 . S
O309 Eu291 2.670 . S
O309 C298 1.270 . S
O310 Eu291 2.394 . S
O310 C299 1.251 . S
O311 Eu281 2.374 . S
O311 C299 1.251 . S
H312 C283 0.931 . S
H313 C284 0.931 . S
H314 C286 0.931 . S
H315 C287 0.931 . S
H316 C293 0.931 . S
H317 C294 0.931 . S
H318 C296 0.931 . S
H319 C297 0.931 . S
C320 Eu321 2.835 . S
C320 C322 1.500 . S
C320 O340 1.257 . S
C320 O341 1.260 . S
Eu321 C320 2.835 . S
Eu321 O340 2.473 . S
Eu321 O341 2.480 . S
Eu321 O342 2.430 . S
Eu321 O343 2.670 . S
Eu321 O344 2.394 . S
Eu321 O349 2.355 . S
Eu321 O351 2.374 . S
C322 C320 1.500 . S
C322 C323 1.377 . S
C322 C327 1.377 . S
C323 C322 1.377 . S
C323 C324 1.395 . S
C323 H352 0.931 . S
C324 C323 1.395 . S
C324 C325 1.383 . S
C324 H353 0.931 . S
C325 C324 1.383 . S
C325 C326 1.394 . S
C326 C325 1.394 . S
C326 C327 1.378 . S
C326 H354 0.931 . S
C327 C322 1.377 . S
C327 C326 1.378 . S
C327 H355 0.931 . S
C328 O342 1.259 . S
C328 O343 1.270 . S
C329 O344 1.251 . S
C329 O345 1.251 . S
C330 Eu331 2.835 . S
C330 C332 1.500 . S
C330 O346 1.257 . S
C330 O347 1.260 . S
Eu331 C330 2.835 . S
Eu331 O343 2.355 . S
Eu331 O345 2.374 . S
Eu331 O346 2.473 . S
Eu331 O347 2.480 . S
Eu331 O348 2.430 . S
Eu331 O349 2.670 . S
Eu331 O350 2.394 . S
C332 C330 1.500 . S
C332 C333 1.377 . S
C332 C337 1.377 . S
C333 C332 1.377 . S
C333 C334 1.395 . S
C333 H356 0.931 . S
C334 C333 1.395 . S
C334 C335 1.383 . S
C334 H357 0.931 . S
C335 C334 1.383 . S
C335 C336 1.394 . S
C336 C335 1.394 . S
C336 C337 1.378 . S
C336 H358 0.931 . S
C337 C332 1.377 . S
C337 C336 1.378 . S
C337 H359 0.931 . S
C338 O348 1.259 . S
C338 O349 1.270 . S
C339 O350 1.251 . S
C339 O351 1.251 . S
O340 C320 1.257 . S
O340 Eu321 2.473 . S
O341 C320 1.260 . S
O341 Eu321 2.480 . S
O342 Eu321 2.430 . S
O342 C328 1.259 . S
O343 Eu321 2.670 . S
O343 C328 1.270 . S
O343 Eu331 2.355 . S
O344 Eu321 2.394 . S
O344 C329 1.251 . S
O345 C329 1.251 . S
O345 Eu331 2.374 . S
O346 C330 1.257 . S
O346 Eu331 2.473 . S
O347 C330 1.260 . S
O347 Eu331 2.480 . S
O348 Eu331 2.430 . S
O348 C338 1.259 . S
O349 Eu321 2.355 . S
O349 Eu331 2.670 . S
O349 C338 1.270 . S
O350 Eu331 2.394 . S
O350 C339 1.251 . S
O351 Eu321 2.374 . S
O351 C339 1.251 . S
H352 C323 0.931 . S
H353 C324 0.931 . S
H354 C326 0.931 . S
H355 C327 0.931 . S
H356 C333 0.931 . S
H357 C334 0.931 . S
H358 C336 0.931 . S
H359 C337 0.931 . S
C360 Eu361 2.835 . S
C360 C362 1.500 . S
C360 O380 1.257 . S
C360 O381 1.260 . S
Eu361 C360 2.835 . S
Eu361 O380 2.473 . S
Eu361 O381 2.480 . S
Eu361 O382 2.430 . S
Eu361 O383 2.670 1_565 S
Eu361 O384 2.394 . S
Eu361 O389 2.355 1_565 S
Eu361 O391 2.374 1_565 S
C362 C360 1.500 . S
C362 C363 1.377 . S
C362 C367 1.377 . S
C363 C362 1.377 . S
C363 C364 1.395 . S
C363 H392 0.931 . S
C364 C363 1.395 . S
C364 C365 1.383 . S
C364 H393 0.931 . S
C365 C364 1.383 . S
C365 C366 1.394 . S
C366 C365 1.394 . S
C366 C367 1.378 . S
C366 H394 0.931 . S
C367 C362 1.377 . S
C367 C366 1.378 . S
C367 H395 0.931 . S
C368 O382 1.259 . S
C368 O383 1.270 1_565 S
C369 O384 1.251 . S
C369 O385 1.251 1_565 S
C370 Eu371 2.835 . S
C370 C372 1.500 . S
C370 O386 1.257 . S
C370 O387 1.260 . S
Eu371 C370 2.835 . S
Eu371 O383 2.355 . S
Eu371 O385 2.374 . S
Eu371 O386 2.473 . S
Eu371 O387 2.480 . S
Eu371 O388 2.430 . S
Eu371 O389 2.670 . S
Eu371 O390 2.394 . S
C372 C370 1.500 . S
C372 C373 1.377 . S
C372 C377 1.377 . S
C373 C372 1.377 . S
C373 C374 1.395 . S
C373 H396 0.931 . S
C374 C373 1.395 . S
C374 C375 1.383 . S
C374 H397 0.931 . S
C375 C374 1.383 . S
C375 C376 1.394 . S
C376 C375 1.394 . S
C376 C377 1.378 . S
C376 H398 0.931 . S
C377 C372 1.377 . S
C377 C376 1.378 . S
C377 H399 0.931 . S
C378 O388 1.259 . S
C378 O389 1.270 . S
C379 O390 1.251 . S
C379 O391 1.251 . S
O380 C360 1.257 . S
O380 Eu361 2.473 . S
O381 C360 1.260 . S
O381 Eu361 2.480 . S
O382 Eu361 2.430 . S
O382 C368 1.259 . S
O383 Eu361 2.670 1_545 S
O383 C368 1.270 1_545 S
O383 Eu371 2.355 . S
O384 Eu361 2.394 . S
O384 C369 1.251 . S
O385 C369 1.251 1_545 S
O385 Eu371 2.374 . S
O386 C370 1.257 . S
O386 Eu371 2.473 . S
O387 C370 1.260 . S
O387 Eu371 2.480 . S
O388 Eu371 2.430 . S
O388 C378 1.259 . S
O389 Eu361 2.355 1_545 S
O389 Eu371 2.670 . S
O389 C378 1.270 . S
O390 Eu371 2.394 . S
O390 C379 1.251 . S
O391 Eu361 2.374 1_545 S
O391 C379 1.251 . S
H392 C363 0.931 . S
H393 C364 0.931 . S
H394 C366 0.931 . S
H395 C367 0.931 . S
H396 C373 0.931 . S
H397 C374 0.931 . S
H398 C376 0.931 . S
H399 C377 0.931 . S
C400 Eu401 2.835 . S
C400 C402 1.500 . S
C400 O420 1.257 . S
C400 O421 1.260 . S
Eu401 C400 2.835 . S
Eu401 O420 2.473 . S
Eu401 O421 2.480 . S
Eu401 O422 2.430 . S
Eu401 O423 2.670 1_545 S
Eu401 O424 2.394 . S
Eu401 O429 2.355 1_545 S
Eu401 O431 2.374 1_545 S
C402 C400 1.500 . S
C402 C403 1.377 . S
C402 C407 1.377 . S
C403 C402 1.377 . S
C403 C404 1.395 . S
C403 H432 0.931 . S
C404 C403 1.395 . S
C404 C405 1.383 . S
C404 H433 0.931 . S
C405 C404 1.383 . S
C405 C406 1.394 . S
C406 C405 1.394 . S
C406 C407 1.378 . S
C406 H434 0.931 . S
C407 C402 1.377 . S
C407 C406 1.378 . S
C407 H435 0.931 . S
C408 O422 1.259 . S
C408 O423 1.270 1_545 S
C409 O424 1.251 . S
C409 O425 1.251 . S
C410 Eu411 2.835 . S
C410 C412 1.500 . S
C410 O426 1.257 . S
C410 O427 1.260 . S
Eu411 C410 2.835 . S
Eu411 O423 2.355 . S
Eu411 O425 2.374 1_565 S
Eu411 O426 2.473 . S
Eu411 O427 2.480 . S
Eu411 O428 2.430 . S
Eu411 O429 2.670 . S
Eu411 O430 2.394 . S
C412 C410 1.500 . S
C412 C413 1.377 . S
C412 C417 1.377 . S
C413 C412 1.377 . S
C413 C414 1.395 . S
C413 H436 0.931 . S
C414 C413 1.395 . S
C414 C415 1.383 . S
C414 H437 0.931 . S
C415 C414 1.383 . S
C415 C416 1.394 . S
C416 C415 1.394 . S
C416 C417 1.378 . S
C416 H438 0.931 . S
C417 C412 1.377 . S
C417 C416 1.378 . S
C417 H439 0.931 . S
C418 O428 1.259 . S
C418 O429 1.270 . S
C419 O430 1.251 . S
C419 O431 1.251 . S
O420 C400 1.257 . S
O420 Eu401 2.473 . S
O421 C400 1.260 . S
O421 Eu401 2.480 . S
O422 Eu401 2.430 . S
O422 C408 1.259 . S
O423 Eu401 2.670 1_565 S
O423 C408 1.270 1_565 S
O423 Eu411 2.355 . S
O424 Eu401 2.394 . S
O424 C409 1.251 . S
O425 C409 1.251 . S
O425 Eu411 2.374 1_545 S
O426 C410 1.257 . S
O426 Eu411 2.473 . S
O427 C410 1.260 . S
O427 Eu411 2.480 . S
O428 Eu411 2.430 . S
O428 C418 1.259 . S
O429 Eu401 2.355 1_565 S
O429 Eu411 2.670 . S
O429 C418 1.270 . S
O430 Eu411 2.394 . S
O430 C419 1.251 . S
O431 Eu401 2.374 1_565 S
O431 C419 1.251 . S
H432 C403 0.931 . S
H433 C404 0.931 . S
H434 C406 0.931 . S
H435 C407 0.931 . S
H436 C413 0.931 . S
H437 C414 0.931 . S
H438 C416 0.931 . S
H439 C417 0.931 . S
C440 Eu441 2.835 . S
C440 C442 1.500 . S
C440 O460 1.257 . S
C440 O461 1.260 . S
Eu441 C440 2.835 . S
Eu441 O460 2.473 . S
Eu441 O461 2.480 . S
Eu441 O462 2.430 . S
Eu441 O463 2.670 . S
Eu441 O464 2.394 . S
Eu441 O469 2.355 . S
Eu441 O471 2.374 . S
C442 C440 1.500 . S
C442 C443 1.377 . S
C442 C447 1.377 . S
C443 C442 1.377 . S
C443 C444 1.395 . S
C443 H472 0.931 . S
C444 C443 1.395 . S
C444 C445 1.383 . S
C444 H473 0.931 . S
C445 C444 1.383 . S
C445 C446 1.394 . S
C446 C445 1.394 . S
C446 C447 1.378 . S
C446 H474 0.931 . S
C447 C442 1.377 . S
C447 C446 1.378 . S
C447 H475 0.931 . S
C448 O462 1.259 . S
C448 O463 1.270 . S
C449 O464 1.251 . S
C449 O465 1.251 . S
C450 Eu451 2.835 . S
C450 C452 1.500 . S
C450 O466 1.257 . S
C450 O467 1.260 . S
Eu451 C450 2.835 . S
Eu451 O463 2.355 . S
Eu451 O465 2.374 . S
Eu451 O466 2.473 . S
Eu451 O467 2.480 . S
Eu451 O468 2.430 . S
Eu451 O469 2.670 . S
Eu451 O470 2.394 . S
C452 C450 1.500 . S
C452 C453 1.377 . S
C452 C457 1.377 . S
C453 C452 1.377 . S
C453 C454 1.395 . S
C453 H476 0.931 . S
C454 C453 1.395 . S
C454 C455 1.383 . S
C454 H477 0.931 . S
C455 C454 1.383 . S
C455 C456 1.394 . S
C456 C455 1.394 . S
C456 C457 1.378 . S
C456 H478 0.931 . S
C457 C452 1.377 . S
C457 C456 1.378 . S
C457 H479 0.931 . S
C458 O468 1.259 . S
C458 O469 1.270 . S
C459 O470 1.251 . S
C459 O471 1.251 . S
O460 C440 1.257 . S
O460 Eu441 2.473 . S
O461 C440 1.260 . S
O461 Eu441 2.480 . S
O462 Eu441 2.430 . S
O462 C448 1.259 . S
O463 Eu441 2.670 . S
O463 C448 1.270 . S
O463 Eu451 2.355 . S
O464 Eu441 2.394 . S
O464 C449 1.251 . S
O465 C449 1.251 . S
O465 Eu451 2.374 . S
O466 C450 1.257 . S
O466 Eu451 2.473 . S
O467 C450 1.260 . S
O467 Eu451 2.480 . S
O468 Eu451 2.430 . S
O468 C458 1.259 . S
O469 Eu441 2.355 . S
O469 Eu451 2.670 . S
O469 C458 1.270 . S
O470 Eu451 2.394 . S
O470 C459 1.251 . S
O471 Eu441 2.374 . S
O471 C459 1.251 . S
H472 C443 0.931 . S
H473 C444 0.931 . S
H474 C446 0.931 . S
H475 C447 0.931 . S
H476 C453 0.931 . S
H477 C454 0.931 . S
H478 C456 0.931 . S
H479 C457 0.931 . S
H480 C492 0.930 . S
H481 C494 0.930 . S
H482 C495 0.930 . S
H483 C499 0.959 . S
H484 C499 0.959 . S
H485 C499 0.961 . S
H486 C500 0.960 . S
H487 C500 0.961 . S
H488 C500 0.959 . S
H489 C503 0.929 . S
H490 C504 0.931 . S
H491 C506 0.930 . S
C492 H480 0.930 . S
C492 C493 1.399 . S
C492 C497 1.399 . S
C493 C492 1.399 . S
C493 C494 1.376 . S
C494 H481 0.930 . S
C494 C493 1.376 . S
C494 C495 1.388 . S
C495 H482 0.930 . S
C495 C494 1.388 . S
C495 C496 1.390 . S
C496 C495 1.390 . S
C496 C497 1.394 . S
C496 C502 1.465 . S
C497 C492 1.399 . S
C497 C496 1.394 . S
C497 C498 1.516 . S
C498 C497 1.516 . S
C498 C499 1.502 . S
C498 C500 1.561 . S
C498 C501 1.526 . S
C499 H483 0.959 . S
C499 H484 0.959 . S
C499 H485 0.961 . S
C499 C498 1.502 . S
C500 H486 0.960 . S
C500 H487 0.961 . S
C500 H488 0.959 . S
C500 C498 1.561 . S
C501 C498 1.526 . S
C501 C502 1.396 . S
C501 C506 1.390 . S
C502 C496 1.465 . S
C502 C501 1.396 . S
C502 C503 1.399 . S
C503 H489 0.929 . S
C503 C502 1.399 . S
C503 C504 1.385 . S
C504 H490 0.931 . S
C504 C503 1.385 . S
C504 C505 1.389 . S
C505 C504 1.389 . S
C505 C506 1.387 . S
C506 H491 0.930 . S
C506 C501 1.390 . S
C506 C505 1.387 . S
H507 C519 0.950 . S
H508 C521 0.930 . S
H509 C522 0.930 . S
H510 C526 0.959 . S
H511 C526 0.959 . S
H512 C526 0.961 . S
H513 C527 0.960 . S
H514 C527 0.961 . S
H515 C527 0.959 . S
H516 C530 0.929 . S
H517 C531 0.931 . S
H518 C533 0.930 . S
C519 H507 0.950 . S
C519 C520 1.399 . S
C519 C524 1.399 . S
C520 C519 1.399 . S
C520 C521 1.376 . S
C521 H508 0.930 . S
C521 C520 1.376 . S
C521 C522 1.388 . S
C522 H509 0.930 . S
C522 C521 1.388 . S
C522 C523 1.390 . S
C523 C522 1.390 . S
C523 C524 1.394 . S
C523 C529 1.465 . S
C524 C519 1.399 . S
C524 C523 1.394 . S
C524 C525 1.516 . S
C525 C524 1.516 . S
C525 C526 1.502 . S
C525 C527 1.561 1_565 S
C525 C528 1.526 . S
C526 H510 0.959 . S
C526 H511 0.959 . S
C526 H512 0.961 . S
C526 C525 1.502 . S
C527 H513 0.960 . S
C527 H514 0.961 . S
C527 H515 0.959 . S
C527 C525 1.561 1_545 S
C528 C525 1.526 . S
C528 C529 1.396 . S
C528 C533 1.390 . S
C529 C523 1.465 . S
C529 C528 1.396 . S
C529 C530 1.399 . S
C530 H516 0.929 . S
C530 C529 1.399 . S
C530 C531 1.385 . S
C531 H517 0.931 . S
C531 C530 1.385 . S
C531 C532 1.389 . S
C532 C531 1.389 . S
C532 C533 1.387 . S
C533 H518 0.930 . S
C533 C528 1.390 . S
C533 C532 1.387 . S
H534 C546 0.930 . S
H535 C548 0.930 . S
H536 C549 0.930 1_556 S
H537 C553 0.959 . S
H538 C553 0.959 . S
H539 C553 0.961 . S
H540 C554 0.960 . S
H541 C554 0.961 . S
H542 C554 0.959 . S
H543 C557 0.929 . S
H544 C558 0.931 . S
H545 C560 0.930 . S
C546 H534 0.930 . S
C546 C547 1.399 . S
C546 C551 1.399 . S
C547 C546 1.399 . S
C547 C548 1.376 1_554 S
C548 H535 0.930 . S
C548 C547 1.376 1_556 S
C548 C549 1.388 1_556 S
C549 H536 0.930 1_554 S
C549 C548 1.388 1_554 S
C549 C550 1.390 . S
C550 C549 1.390 . S
C550 C551 1.394 . S
C550 C556 1.465 . S
C551 C546 1.399 . S
C551 C550 1.394 . S
C551 C552 1.516 . S
C552 C551 1.516 . S
C552 C553 1.502 . S
C552 C554 1.561 . S
C552 C555 1.526 . S
C553 H537 0.959 . S
C553 H538 0.959 . S
C553 H539 0.961 . S
C553 C552 1.502 . S
C554 H540 0.960 . S
C554 H541 0.961 . S
C554 H542 0.959 . S
C554 C552 1.561 . S
C555 C552 1.526 . S
C555 C556 1.396 . S
C555 C560 1.390 . S
C556 C550 1.465 . S
C556 C555 1.396 . S
C556 C557 1.399 . S
C557 H543 0.929 . S
C557 C556 1.399 . S
C557 C558 1.385 . S
C558 H544 0.931 . S
C558 C557 1.385 . S
C558 C559 1.389 . S
C559 C558 1.389 . S
C559 C560 1.387 . S
C560 H545 0.930 . S
C560 C555 1.390 . S
C560 C559 1.387 . S
H561 C573 0.930 . S
H562 C575 0.930 . S
H563 C576 0.930 . S
H564 C580 0.959 . S
H565 C580 0.959 . S
H566 C580 0.961 . S
H567 C581 0.960 . S
H568 C581 0.961 . S
H569 C581 0.959 . S
H570 C584 0.929 . S
H571 C585 0.931 . S
H572 C587 0.930 . S
C573 H561 0.930 . S
C573 C574 1.399 . S
C573 C578 1.399 . S
C574 C573 1.399 . S
C574 C575 1.376 . S
C575 H562 0.930 . S
C575 C574 1.376 . S
C575 C576 1.388 . S
C576 H563 0.930 . S
C576 C575 1.388 . S
C576 C577 1.390 . S
C577 C576 1.390 . S
C577 C578 1.394 . S
C577 C583 1.465 . S
C578 C573 1.399 . S
C578 C577 1.394 . S
C578 C579 1.516 . S
C579 C578 1.516 . S
C579 C580 1.502 . S
C579 C581 1.561 . S
C579 C582 1.526 . S
C580 H564 0.959 . S
C580 H565 0.959 . S
C580 H566 0.961 . S
C580 C579 1.502 . S
C581 H567 0.960 . S
C581 H568 0.961 . S
C581 H569 0.959 . S
C581 C579 1.561 . S
C582 C579 1.526 . S
C582 C583 1.396 . S
C582 C587 1.390 . S
C583 C577 1.465 . S
C583 C582 1.396 . S
C583 C584 1.399 . S
C584 H570 0.929 . S
C584 C583 1.399 . S
C584 C585 1.385 . S
C585 H571 0.931 . S
C585 C584 1.385 . S
C585 C586 1.389 . S
C586 C585 1.389 . S
C586 C587 1.387 . S
C587 H572 0.930 . S
C587 C582 1.390 . S
C587 C586 1.387 . S
H588 C600 0.930 . S
H589 C602 0.930 . S
H590 C603 0.930 . S
H591 C607 0.959 . S
H592 C607 0.959 . S
H593 C607 0.961 . S
H594 C608 0.960 . S
H595 C608 0.961 . S
H596 C608 0.959 . S
H597 C611 0.929 . S
H598 C612 0.931 . S
H599 C614 0.930 . S
C600 H588 0.930 . S
C600 C601 1.399 . S
C600 C605 1.399 . S
C601 C600 1.399 . S
C601 C602 1.376 . S
C602 H589 0.930 . S
C602 C601 1.376 . S
C602 C603 1.388 . S
C603 H590 0.930 . S
C603 C602 1.388 . S
C603 C604 1.390 . S
C604 C603 1.390 . S
C604 C605 1.394 . S
C604 C610 1.465 . S
C605 C600 1.399 . S
C605 C604 1.394 . S
C605 C606 1.516 . S
C606 C605 1.516 . S
C606 C607 1.502 . S
C606 C608 1.561 . S
C606 C609 1.526 . S
C607 H591 0.959 . S
C607 H592 0.959 . S
C607 H593 0.961 . S
C607 C606 1.502 . S
C608 H594 0.960 . S
C608 H595 0.961 . S
C608 H596 0.959 . S
C608 C606 1.561 . S
C609 C606 1.526 . S
C609 C610 1.396 . S
C609 C614 1.390 . S
C610 C604 1.465 . S
C610 C609 1.396 . S
C610 C611 1.399 . S
C611 H597 0.929 . S
C611 C610 1.399 . S
C611 C612 1.385 . S
C612 H598 0.931 . S
C612 C611 1.385 . S
C612 C613 1.389 . S
C613 C612 1.389 . S
C613 C614 1.387 . S
C614 H599 0.930 . S
C614 C609 1.390 . S
C614 C613 1.387 . S
H615 C627 0.930 . S
H616 C629 0.930 . S
H617 C630 0.930 . S
H618 C634 0.959 . S
H619 C634 0.959 . S
H620 C634 0.961 . S
H621 C635 0.960 . S
H622 C635 0.961 . S
H623 C635 0.959 . S
H624 C638 0.929 . S
H625 C639 0.931 . S
H626 C641 0.930 . S
C627 H615 0.930 . S
C627 C628 1.399 . S
C627 C632 1.399 . S
C628 C627 1.399 . S
C628 C629 1.376 . S
C629 H616 0.930 . S
C629 C628 1.376 . S
C629 C630 1.388 . S
C630 H617 0.930 . S
C630 C629 1.388 . S
C630 C631 1.390 . S
C631 C630 1.390 . S
C631 C632 1.394 . S
C631 C637 1.465 . S
C632 C627 1.399 . S
C632 C631 1.394 . S
C632 C633 1.516 . S
C633 C632 1.516 . S
C633 C634 1.502 . S
C633 C635 1.561 . S
C633 C636 1.526 . S
C634 H618 0.959 . S
C634 H619 0.959 . S
C634 H620 0.961 . S
C634 C633 1.502 . S
C635 H621 0.960 . S
C635 H622 0.961 . S
C635 H623 0.959 . S
C635 C633 1.561 . S
C636 C633 1.526 . S
C636 C637 1.396 . S
C636 C641 1.390 . S
C637 C631 1.465 . S
C637 C636 1.396 . S
C637 C638 1.399 . S
C638 H624 0.929 . S
C638 C637 1.399 . S
C638 C639 1.385 . S
C639 H625 0.931 . S
C639 C638 1.385 . S
C639 C640 1.389 . S
C640 C639 1.389 . S
C640 C641 1.387 . S
C641 H626 0.930 . S
C641 C636 1.390 . S
C641 C640 1.387 . S
H642 C654 0.930 . S
H643 C656 0.930 . S
H644 C657 0.930 . S
H645 C661 0.959 . S
H646 C661 0.959 . S
H647 C661 0.961 . S
H648 C662 0.960 . S
H649 C662 0.961 . S
H650 C662 0.959 . S
H651 C665 0.929 . S
H652 C666 0.931 . S
H653 C668 0.930 1_554 S
C654 H642 0.930 . S
C654 C655 1.399 . S
C654 C659 1.399 . S
C655 C654 1.399 . S
C655 C656 1.376 . S
C656 H643 0.930 . S
C656 C655 1.376 . S
C656 C657 1.388 . S
C657 H644 0.930 . S
C657 C656 1.388 . S
C657 C658 1.390 . S
C658 C657 1.390 . S
C658 C659 1.394 . S
C658 C664 1.465 . S
C659 C654 1.399 . S
C659 C658 1.394 . S
C659 C660 1.516 . S
C660 C659 1.516 . S
C660 C661 1.502 1_556 S
C660 C662 1.561 1_556 S
C660 C663 1.526 . S
C661 H645 0.959 . S
C661 H646 0.959 . S
C661 H647 0.961 . S
C661 C660 1.502 1_554 S
C662 H648 0.960 . S
C662 H649 0.961 . S
C662 H650 0.959 . S
C662 C660 1.561 1_554 S
C663 C660 1.526 . S
C663 C664 1.396 . S
C663 C668 1.390 . S
C664 C658 1.465 . S
C664 C663 1.396 . S
C664 C665 1.399 . S
C665 H651 0.929 . S
C665 C664 1.399 . S
C665 C666 1.385 . S
C666 H652 0.931 . S
C666 C665 1.385 . S
C666 C667 1.389 . S
C667 C666 1.389 . S
C667 C668 1.387 . S
C668 H653 0.930 1_556 S
C668 C663 1.390 . S
C668 C667 1.387 . S
H669 C681 0.930 . S
H670 C683 0.930 . S
H671 C684 0.930 . S
H672 C688 0.959 . S
H673 C688 0.959 . S
H674 C688 0.961 . S
H675 C689 0.960 . S
H676 C689 0.961 . S
H677 C689 0.959 . S
H678 C692 0.929 . S
H679 C693 0.931 . S
H680 C695 0.930 . S
C681 H669 0.930 . S
C681 C682 1.399 . S
C681 C686 1.399 . S
C682 C681 1.399 . S
C682 C683 1.376 . S
C683 H670 0.930 . S
C683 C682 1.376 . S
C683 C684 1.388 . S
C684 H671 0.930 . S
C684 C683 1.388 . S
C684 C685 1.390 . S
C685 C684 1.390 . S
C685 C686 1.394 . S
C685 C691 1.465 . S
C686 C681 1.399 . S
C686 C685 1.394 . S
C686 C687 1.516 . S
C687 C686 1.516 . S
C687 C688 1.502 . S
C687 C689 1.561 . S
C687 C690 1.526 . S
C688 H672 0.959 . S
C688 H673 0.959 . S
C688 H674 0.961 . S
C688 C687 1.502 . S
C689 H675 0.960 . S
C689 H676 0.961 . S
C689 H677 0.959 . S
C689 C687 1.561 . S
C690 C687 1.526 . S
C690 C691 1.396 . S
C690 C695 1.390 . S
C691 C685 1.465 . S
C691 C690 1.396 . S
C691 C692 1.399 . S
C692 H678 0.929 . S
C692 C691 1.399 . S
C692 C693 1.385 . S
C693 H679 0.931 . S
C693 C692 1.385 . S
C693 C694 1.389 . S
C694 C693 1.389 . S
C694 C695 1.387 . S
C695 H680 0.930 . S
C695 C690 1.390 . S
C695 C694 1.387 . S
H696 C708 0.930 . S
H697 C710 0.930 . S
H698 C711 0.930 . S
H699 C715 0.959 . S
H700 C715 0.959 . S
H701 C715 0.961 . S
H702 C716 0.960 . S
H703 C716 0.961 . S
H704 C716 0.959 . S
H705 C719 0.929 . S
H706 C720 0.931 . S
H707 C722 0.930 . S
C708 H696 0.930 . S
C708 C709 1.399 . S
C708 C713 1.399 . S
C709 C708 1.399 . S
C709 C710 1.376 . S
C710 H697 0.930 . S
C710 C709 1.376 . S
C710 C711 1.388 . S
C711 H698 0.930 . S
C711 C710 1.388 . S
C711 C712 1.390 . S
C712 C711 1.390 . S
C712 C713 1.394 . S
C712 C718 1.465 . S
C713 C708 1.399 . S
C713 C712 1.394 . S
C713 C714 1.516 . S
C714 C713 1.516 . S
C714 C715 1.502 . S
C714 C716 1.561 . S
C714 C717 1.526 . S
C715 H699 0.959 . S
C715 H700 0.959 . S
C715 H701 0.961 . S
C715 C714 1.502 . S
C716 H702 0.960 . S
C716 H703 0.961 . S
C716 H704 0.959 . S
C716 C714 1.561 . S
C717 C714 1.526 . S
C717 C718 1.396 . S
C717 C722 1.390 . S
C718 C712 1.465 . S
C718 C717 1.396 . S
C718 C719 1.399 . S
C719 H705 0.929 . S
C719 C718 1.399 . S
C719 C720 1.385 . S
C720 H706 0.931 . S
C720 C719 1.385 . S
C720 C721 1.389 . S
C721 C720 1.389 . S
C721 C722 1.387 . S
C722 H707 0.930 . S
C722 C717 1.390 . S
C722 C721 1.387 . S
H723 C735 0.930 . S
H724 C737 0.930 . S
H725 C738 0.930 . S
H726 C742 0.959 . S
H727 C742 0.959 . S
H728 C742 0.961 . S
H729 C743 0.960 . S
H730 C743 0.961 . S
H731 C743 0.959 . S
H732 C746 0.929 . S
H733 C747 0.931 . S
H734 C749 0.930 . S
C735 H723 0.930 . S
C735 C736 1.399 . S
C735 C740 1.399 . S
C736 C735 1.399 . S
C736 C737 1.376 . S
C737 H724 0.930 . S
C737 C736 1.376 . S
C737 C738 1.388 . S
C738 H725 0.930 . S
C738 C737 1.388 . S
C738 C739 1.390 . S
C739 C738 1.390 . S
C739 C740 1.394 . S
C739 C745 1.465 . S
C740 C735 1.399 . S
C740 C739 1.394 . S
C740 C741 1.516 . S
C741 C740 1.516 . S
C741 C742 1.502 . S
C741 C743 1.561 . S
C741 C744 1.526 . S
C742 H726 0.959 . S
C742 H727 0.959 . S
C742 H728 0.961 . S
C742 C741 1.502 . S
C743 H729 0.960 . S
C743 H730 0.961 . S
C743 H731 0.959 . S
C743 C741 1.561 . S
C744 C741 1.526 . S
C744 C745 1.396 . S
C744 C749 1.390 . S
C745 C739 1.465 . S
C745 C744 1.396 . S
C745 C746 1.399 . S
C746 H732 0.929 . S
C746 C745 1.399 . S
C746 C747 1.385 . S
C747 H733 0.931 . S
C747 C746 1.385 . S
C747 C748 1.389 . S
C748 C747 1.389 . S
C748 C749 1.387 . S
C749 H734 0.930 . S
C749 C744 1.390 . S
C749 C748 1.387 . S
H750 C762 0.930 . S
H751 C764 0.930 . S
H752 C765 0.930 . S
H753 C769 0.959 . S
H754 C769 0.959 . S
H755 C769 0.961 . S
H756 C770 0.960 . S
H757 C770 0.961 . S
H758 C770 0.959 . S
H759 C773 0.929 . S
H760 C774 0.931 . S
H761 C776 0.930 . S
C762 H750 0.930 . S
C762 C763 1.399 . S
C762 C767 1.399 . S
C763 C762 1.399 . S
C763 C764 1.376 . S
C764 H751 0.930 . S
C764 C763 1.376 . S
C764 C765 1.388 . S
C765 H752 0.930 . S
C765 C764 1.388 . S
C765 C766 1.390 . S
C766 C765 1.390 . S
C766 C767 1.394 . S
C766 C772 1.465 . S
C767 C762 1.399 . S
C767 C766 1.394 . S
C767 C768 1.516 . S
C768 C767 1.516 . S
C768 C769 1.502 . S
C768 C770 1.561 . S
C768 C771 1.526 . S
C769 H753 0.959 . S
C769 H754 0.959 . S
C769 H755 0.961 . S
C769 C768 1.502 . S
C770 H756 0.960 . S
C770 H757 0.961 . S
C770 H758 0.959 . S
C770 C768 1.561 . S
C771 C768 1.526 . S
C771 C772 1.396 . S
C771 C776 1.390 . S
C772 C766 1.465 . S
C772 C771 1.396 . S
C772 C773 1.399 . S
C773 H759 0.929 . S
C773 C772 1.399 . S
C773 C774 1.385 . S
C774 H760 0.931 . S
C774 C773 1.385 . S
C774 C775 1.389 . S
C775 C774 1.389 . S
C775 C776 1.387 . S
C776 H761 0.930 . S
C776 C771 1.390 . S
C776 C775 1.387 . S
H777 C789 0.930 . S
H778 C791 0.930 . S
H779 C792 0.930 . S
H780 C796 0.959 . S
H781 C796 0.959 . S
H782 C796 0.961 . S
H783 C797 0.960 . S
H784 C797 0.961 . S
H785 C797 0.959 . S
H786 C800 0.929 . S
H787 C801 0.931 . S
H788 C803 0.930 . S
C789 H777 0.930 . S
C789 C790 1.399 . S
C789 C794 1.399 . S
C790 C789 1.399 . S
C790 C791 1.376 . S
C791 H778 0.930 . S
C791 C790 1.376 . S
C791 C792 1.388 . S
C792 H779 0.930 . S
C792 C791 1.388 . S
C792 C793 1.390 . S
C793 C792 1.390 . S
C793 C794 1.394 . S
C793 C799 1.465 . S
C794 C789 1.399 . S
C794 C793 1.394 . S
C794 C795 1.516 . S
C795 C794 1.516 . S
C795 C796 1.502 . S
C795 C797 1.561 . S
C795 C798 1.526 . S
C796 H780 0.959 . S
C796 H781 0.959 . S
C796 H782 0.961 . S
C796 C795 1.502 . S
C797 H783 0.960 . S
C797 H784 0.961 . S
C797 H785 0.959 . S
C797 C795 1.561 . S
C798 C795 1.526 . S
C798 C799 1.396 . S
C798 C803 1.390 . S
C799 C793 1.465 . S
C799 C798 1.396 . S
C799 C800 1.399 . S
C800 H786 0.929 . S
C800 C799 1.399 . S
C800 C801 1.385 . S
C801 H787 0.931 . S
C801 C800 1.385 . S
C801 C802 1.389 . S
C802 C801 1.389 . S
C802 C803 1.387 . S
C803 H788 0.930 . S
C803 C798 1.390 . S
C803 C802 1.387 . S
H804 C816 0.930 . S
H805 C818 0.930 . S
H806 C819 0.930 . S
H807 C823 0.959 . S
H808 C823 0.959 . S
H809 C823 0.961 . S
H810 C824 0.960 . S
H811 C824 0.961 . S
H812 C824 0.959 . S
H813 C827 0.929 . S
H814 C828 0.931 . S
H815 C830 0.930 . S
C816 H804 0.930 . S
C816 C817 1.399 . S
C816 C821 1.399 . S
C817 C816 1.399 . S
C817 C818 1.376 . S
C818 H805 0.930 . S
C818 C817 1.376 . S
C818 C819 1.388 . S
C819 H806 0.930 . S
C819 C818 1.388 . S
C819 C820 1.390 . S
C820 C819 1.390 . S
C820 C821 1.394 . S
C820 C826 1.465 . S
C821 C816 1.399 . S
C821 C820 1.394 . S
C821 C822 1.516 . S
C822 C821 1.516 . S
C822 C823 1.502 . S
C822 C824 1.561 . S
C822 C825 1.526 . S
C823 H807 0.959 . S
C823 H808 0.959 . S
C823 H809 0.961 . S
C823 C822 1.502 . S
C824 H810 0.960 . S
C824 H811 0.961 . S
C824 H812 0.959 . S
C824 C822 1.561 . S
C825 C822 1.526 . S
C825 C826 1.396 . S
C825 C830 1.390 . S
C826 C820 1.465 . S
C826 C825 1.396 . S
C826 C827 1.399 . S
C827 H813 0.929 . S
C827 C826 1.399 . S
C827 C828 1.385 . S
C828 H814 0.931 . S
C828 C827 1.385 . S
C828 C829 1.389 . S
C829 C828 1.389 . S
C829 C830 1.387 . S
C830 H815 0.930 . S
C830 C825 1.390 . S
C830 C829 1.387 . S
H831 C843 0.930 . S
H832 C845 0.930 . S
H833 C846 0.930 . S
H834 C850 0.959 . S
H835 C850 0.959 . S
H836 C850 0.961 . S
H837 C851 0.960 . S
H838 C851 0.961 1_545 S
H839 C851 0.959 . S
H840 C854 0.929 . S
H841 C855 0.931 . S
H842 C857 0.930 . S
C843 H831 0.930 . S
C843 C844 1.399 . S
C843 C848 1.399 . S
C844 C843 1.399 . S
C844 C845 1.376 . S
C845 H832 0.930 . S
C845 C844 1.376 . S
C845 C846 1.388 . S
C846 H833 0.930 . S
C846 C845 1.388 . S
C846 C847 1.390 . S
C847 C846 1.390 . S
C847 C848 1.394 . S
C847 C853 1.465 . S
C848 C843 1.399 . S
C848 C847 1.394 . S
C848 C849 1.516 . S
C849 C848 1.516 . S
C849 C850 1.502 . S
C849 C851 1.561 . S
C849 C852 1.526 . S
C850 H834 0.959 . S
C850 H835 0.959 . S
C850 H836 0.961 . S
C850 C849 1.502 . S
C851 H837 0.960 . S
C851 H838 0.961 1_565 S
C851 H839 0.959 . S
C851 C849 1.561 . S
C852 C849 1.526 . S
C852 C853 1.396 . S
C852 C857 1.390 . S
C853 C847 1.465 . S
C853 C852 1.396 . S
C853 C854 1.399 . S
C854 H840 0.929 . S
C854 C853 1.399 . S
C854 C855 1.385 . S
C855 H841 0.931 . S
C855 C854 1.385 . S
C855 C856 1.389 . S
C856 C855 1.389 . S
C856 C857 1.387 . S
C857 H842 0.930 . S
C857 C852 1.390 . S
C857 C856 1.387 . S
H858 C870 0.930 . S
H859 C872 0.930 . S
H860 C873 0.930 . S
H861 C877 0.959 . S
H862 C877 0.959 . S
H863 C877 0.961 . S
H864 C878 0.960 . S
H865 C878 0.961 . S
H866 C878 0.959 . S
H867 C881 0.929 . S
H868 C882 0.931 . S
H869 C884 0.930 . S
C870 H858 0.930 . S
C870 C871 1.399 . S
C870 C875 1.399 . S
C871 C870 1.399 . S
C871 C872 1.376 . S
C872 H859 0.930 . S
C872 C871 1.376 . S
C872 C873 1.388 . S
C873 H860 0.930 . S
C873 C872 1.388 . S
C873 C874 1.390 . S
C874 C873 1.390 . S
C874 C875 1.394 . S
C874 C880 1.465 . S
C875 C870 1.399 . S
C875 C874 1.394 . S
C875 C876 1.516 . S
C876 C875 1.516 . S
C876 C877 1.502 . S
C876 C878 1.561 . S
C876 C879 1.526 . S
C877 H861 0.959 . S
C877 H862 0.959 . S
C877 H863 0.961 . S
C877 C876 1.502 . S
C878 H864 0.960 . S
C878 H865 0.961 . S
C878 H866 0.959 . S
C878 C876 1.561 . S
C879 C876 1.526 . S
C879 C880 1.396 . S
C879 C884 1.390 . S
C880 C874 1.465 . S
C880 C879 1.396 . S
C880 C881 1.399 . S
C881 H867 0.929 . S
C881 C880 1.399 . S
C881 C882 1.385 . S
C882 H868 0.931 . S
C882 C881 1.385 . S
C882 C883 1.389 . S
C883 C882 1.389 . S
C883 C884 1.387 . S
C884 H869 0.930 . S
C884 C879 1.390 . S
C884 C883 1.387 . S
H885 C897 0.930 . S
H886 C899 0.930 . S
H887 C900 0.930 . S
H888 C904 0.959 . S
H889 C904 0.959 . S
H890 C904 0.961 . S
H891 C905 0.960 . S
H892 C905 0.961 . S
H893 C905 0.959 . S
H894 C908 0.929 . S
H895 C909 0.931 . S
H896 C911 0.930 . S
C897 H885 0.930 . S
C897 C898 1.399 . S
C897 C902 1.399 . S
C898 C897 1.399 . S
C898 C899 1.376 . S
C899 H886 0.930 . S
C899 C898 1.376 . S
C899 C900 1.388 . S
C900 H887 0.930 . S
C900 C899 1.388 . S
C900 C901 1.390 . S
C901 C900 1.390 . S
C901 C902 1.394 . S
C901 C907 1.465 . S
C902 C897 1.399 . S
C902 C901 1.394 . S
C902 C903 1.516 . S
C903 C902 1.516 . S
C903 C904 1.502 . S
C903 C905 1.561 . S
C903 C906 1.536 . S
C904 H888 0.959 . S
C904 H889 0.959 . S
C904 H890 0.961 . S
C904 C903 1.502 . S
C905 H891 0.960 . S
C905 H892 0.961 . S
C905 H893 0.959 . S
C905 C903 1.561 . S
C906 C903 1.536 . S
C906 C907 1.397 . S
C906 C911 1.379 1_554 S
C907 C901 1.465 . S
C907 C906 1.397 . S
C907 C908 1.399 1_554 S
C908 H894 0.929 . S
C908 C907 1.399 1_556 S
C908 C909 1.385 . S
C909 H895 0.931 . S
C909 C908 1.385 . S
C909 C910 1.389 . S
C910 C909 1.389 . S
C910 C911 1.387 . S
C911 H896 0.930 . S
C911 C906 1.379 1_556 S
C911 C910 1.387 . S
H912 C924 0.930 . S
H913 C926 0.930 . S
H914 C927 0.930 . S
H915 C931 0.959 . S
H916 C931 0.959 . S
H917 C931 0.961 . S
H918 C932 0.960 . S
H919 C932 0.961 . S
H920 C932 0.959 . S
H921 C935 0.929 . S
H922 C936 0.931 . S
H923 C938 0.930 . S
C924 H912 0.930 . S
C924 C925 1.399 . S
C924 C929 1.399 . S
C925 C924 1.399 . S
C925 C926 1.376 . S
C926 H913 0.930 . S
C926 C925 1.376 . S
C926 C927 1.388 . S
C927 H914 0.930 . S
C927 C926 1.388 . S
C927 C928 1.390 . S
C928 C927 1.390 . S
C928 C929 1.394 . S
C928 C934 1.465 . S
C929 C924 1.399 . S
C929 C928 1.394 . S
C929 C930 1.516 . S
C930 C929 1.516 . S
C930 C931 1.502 . S
C930 C932 1.561 . S
C930 C933 1.526 . S
C931 H915 0.959 . S
C931 H916 0.959 . S
C931 H917 0.961 . S
C931 C930 1.502 . S
C932 H918 0.960 . S
C932 H919 0.961 . S
C932 H920 0.959 . S
C932 C930 1.561 . S
C933 C930 1.526 . S
C933 C934 1.396 . S
C933 C938 1.390 . S
C934 C928 1.465 . S
C934 C933 1.396 . S
C934 C935 1.399 . S
C935 H921 0.929 . S
C935 C934 1.399 . S
C935 C936 1.385 . S
C936 H922 0.931 . S
C936 C935 1.385 . S
C936 C937 1.389 . S
C937 C936 1.389 . S
C937 C938 1.387 . S
C938 H923 0.930 . S
C938 C933 1.390 . S
C938 C937 1.387 . S
H939 C951 0.930 . S
H940 C953 0.930 . S
H941 C954 0.930 . S
H942 C958 0.959 . S
H943 C958 0.959 . S
H944 C958 0.961 1_554 S
H945 C959 0.960 . S
H946 C959 0.961 1_556 S
H947 C959 0.959 . S
H948 C962 0.929 . S
H949 C963 0.931 . S
H950 C965 0.930 . S
C951 H939 0.930 . S
C951 C952 1.399 . S
C951 C956 1.399 . S
C952 C951 1.399 . S
C952 C953 1.376 . S
C953 H940 0.930 . S
C953 C952 1.376 . S
C953 C954 1.388 . S
C954 H941 0.930 . S
C954 C953 1.388 . S
C954 C955 1.390 . S
C955 C954 1.390 . S
C955 C956 1.394 . S
C955 C961 1.465 1_554 S
C956 C951 1.399 . S
C956 C955 1.394 . S
C956 C957 1.516 . S
C957 C956 1.516 . S
C957 C958 1.502 1_554 S
C957 C959 1.561 . S
C957 C960 1.526 1_554 S
C958 H942 0.959 . S
C958 H943 0.959 . S
C958 H944 0.961 1_556 S
C958 C957 1.502 1_556 S
C959 H945 0.960 . S
C959 H946 0.961 1_554 S
C959 H947 0.959 . S
C959 C957 1.561 . S
C960 C957 1.526 1_556 S
C960 C961 1.396 . S
C960 C965 1.390 . S
C961 C955 1.465 1_556 S
C961 C960 1.396 . S
C961 C962 1.399 . S
C962 H948 0.929 . S
C962 C961 1.399 . S
C962 C963 1.385 . S
C963 H949 0.931 . S
C963 C962 1.385 . S
C963 C964 1.389 . S
C964 C963 1.389 . S
C964 C965 1.387 . S
C965 H950 0.930 . S
C965 C960 1.390 . S
C965 C964 1.387 . S
H966 C978 0.930 . S
H967 C980 0.930 . S
H968 C981 0.930 . S
H969 C985 0.959 . S
H970 C985 0.959 . S
H971 C985 0.961 . S
H972 C986 0.960 . S
H973 C986 0.961 . S
H974 C986 0.959 . S
H975 C989 0.929 . S
H976 C990 0.931 . S
H977 C992 0.930 . S
C978 H966 0.930 . S
C978 C979 1.399 . S
C978 C983 1.399 . S
C979 C978 1.399 . S
C979 C980 1.376 . S
C980 H967 0.930 . S
C980 C979 1.376 . S
C980 C981 1.388 . S
C981 H968 0.930 . S
C981 C980 1.388 . S
C981 C982 1.390 . S
C982 C981 1.390 . S
C982 C983 1.394 . S
C982 C988 1.465 . S
C983 C978 1.399 . S
C983 C982 1.394 . S
C983 C984 1.516 . S
C984 C983 1.516 . S
C984 C985 1.502 . S
C984 C986 1.561 . S
C984 C987 1.526 . S
C985 H969 0.959 . S
C985 H970 0.959 . S
C985 H971 0.961 . S
C985 C984 1.502 . S
C986 H972 0.960 . S
C986 H973 0.961 . S
C986 H974 0.959 . S
C986 C984 1.561 . S
C987 C984 1.526 . S
C987 C988 1.396 . S
C987 C992 1.390 . S
C988 C982 1.465 . S
C988 C987 1.396 . S
C988 C989 1.399 . S
C989 H975 0.929 . S
C989 C988 1.399 . S
C989 C990 1.385 . S
C990 H976 0.931 . S
C990 C989 1.385 . S
C990 C991 1.389 . S
C991 C990 1.389 . S
C991 C992 1.387 . S
C992 H977 0.930 . S
C992 C987 1.390 . S
C992 C991 1.387 . S
H993 C1005 0.930 . S
H994 C1007 0.930 . S
H995 C1008 0.930 . S
H996 C1012 0.959 . S
H997 C1012 0.959 . S
H998 C1012 0.961 . S
H999 C1013 0.960 . S
H1000 C1013 0.961 . S
H1001 C1013 0.959 . S
H1002 C1016 0.929 . S
H1003 C1017 0.931 . S
H1004 C1019 0.930 . S
C1005 H993 0.930 . S
C1005 C1006 1.399 . S
C1005 C1010 1.399 . S
C1006 C1005 1.399 . S
C1006 C1007 1.376 . S
C1007 H994 0.930 . S
C1007 C1006 1.376 . S
C1007 C1008 1.388 . S
C1008 H995 0.930 . S
C1008 C1007 1.388 . S
C1008 C1009 1.390 . S
C1009 C1008 1.390 . S
C1009 C1010 1.394 . S
C1009 C1015 1.465 . S
C1010 C1005 1.399 . S
C1010 C1009 1.394 . S
C1010 C1011 1.516 . S
C1011 C1010 1.516 . S
C1011 C1012 1.502 . S
C1011 C1013 1.561 . S
C1011 C1014 1.526 . S
C1012 H996 0.959 . S
C1012 H997 0.959 . S
C1012 H998 0.961 . S
C1012 C1011 1.502 . S
C1013 H999 0.960 . S
C1013 H1000 0.961 . S
C1013 H1001 0.959 . S
C1013 C1011 1.561 . S
C1014 C1011 1.526 . S
C1014 C1015 1.396 . S
C1014 C1019 1.390 . S
C1015 C1009 1.465 . S
C1015 C1014 1.396 . S
C1015 C1016 1.399 . S
C1016 H1002 0.929 . S
C1016 C1015 1.399 . S
C1016 C1017 1.385 . S
C1017 H1003 0.931 . S
C1017 C1016 1.385 . S
C1017 C1018 1.389 . S
C1018 C1017 1.389 . S
C1018 C1019 1.387 . S
C1019 H1004 0.930 . S
C1019 C1014 1.390 . S
C1019 C1018 1.387 . S
H1020 C1032 0.930 . S
H1021 C1034 0.930 . S
H1022 C1035 0.930 . S
H1023 C1039 0.959 . S
H1024 C1039 0.959 . S
H1025 C1039 0.961 . S
H1026 C1040 0.960 . S
H1027 C1040 0.961 . S
H1028 C1040 0.959 . S
H1029 C1043 0.929 . S
H1030 C1044 0.931 . S
H1031 C1046 0.930 . S
C1032 H1020 0.930 . S
C1032 C1033 1.399 . S
C1032 C1037 1.399 . S
C1033 C1032 1.399 . S
C1033 C1034 1.376 . S
C1034 H1021 0.930 . S
C1034 C1033 1.376 . S
C1034 C1035 1.388 . S
C1035 H1022 0.930 . S
C1035 C1034 1.388 . S
C1035 C1036 1.390 . S
C1036 C1035 1.390 . S
C1036 C1037 1.394 . S
C1036 C1042 1.465 . S
C1037 C1032 1.399 . S
C1037 C1036 1.394 . S
C1037 C1038 1.516 . S
C1038 C1037 1.516 . S
C1038 C1039 1.502 . S
C1038 C1040 1.561 . S
C1038 C1041 1.526 . S
C1039 H1023 0.959 . S
C1039 H1024 0.959 . S
C1039 H1025 0.961 . S
C1039 C1038 1.502 . S
C1040 H1026 0.960 . S
C1040 H1027 0.961 . S
C1040 H1028 0.959 . S
C1040 C1038 1.561 . S
C1041 C1038 1.526 . S
C1041 C1042 1.396 . S
C1041 C1046 1.390 . S
C1042 C1036 1.465 . S
C1042 C1041 1.396 . S
C1042 C1043 1.399 . S
C1043 H1029 0.929 . S
C1043 C1042 1.399 . S
C1043 C1044 1.385 . S
C1044 H1030 0.931 . S
C1044 C1043 1.385 . S
C1044 C1045 1.389 . S
C1045 C1044 1.389 . S
C1045 C1046 1.387 . S
C1046 H1031 0.930 . S
C1046 C1041 1.390 . S
C1046 C1045 1.387 . S
H1047 C1059 0.930 . S
H1048 C1061 0.930 . S
H1049 C1062 0.930 . S
H1050 C1066 0.959 . S
H1051 C1066 0.959 . S
H1052 C1066 0.961 . S
H1053 C1067 0.960 . S
H1054 C1067 0.961 . S
H1055 C1067 0.959 . S
H1056 C1070 0.929 1_545 S
H1057 C1071 0.931 . S
H1058 C1073 0.930 . S
C1059 H1047 0.930 . S
C1059 C1060 1.399 . S
C1059 C1064 1.399 . S
C1060 C1059 1.399 . S
C1060 C1061 1.376 . S
C1061 H1048 0.930 . S
C1061 C1060 1.376 . S
C1061 C1062 1.388 . S
C1062 H1049 0.930 . S
C1062 C1061 1.388 . S
C1062 C1063 1.390 . S
C1063 C1062 1.390 . S
C1063 C1064 1.394 . S
C1063 C1069 1.465 1_545 S
C1064 C1059 1.399 . S
C1064 C1063 1.394 . S
C1064 C1065 1.516 1_545 S
C1065 C1064 1.516 1_565 S
C1065 C1066 1.502 . S
C1065 C1067 1.561 . S
C1065 C1068 1.526 . S
C1066 H1050 0.959 . S
C1066 H1051 0.959 . S
C1066 H1052 0.961 . S
C1066 C1065 1.502 . S
C1067 H1053 0.960 . S
C1067 H1054 0.961 . S
C1067 H1055 0.959 . S
C1067 C1065 1.561 . S
C1068 C1065 1.526 . S
C1068 C1069 1.396 . S
C1068 C1073 1.390 . S
C1069 C1063 1.465 1_565 S
C1069 C1068 1.396 . S
C1069 C1070 1.399 . S
C1070 H1056 0.929 1_565 S
C1070 C1069 1.399 . S
C1070 C1071 1.385 . S
C1071 H1057 0.931 . S
C1071 C1070 1.385 . S
C1071 C1072 1.389 . S
C1072 C1071 1.389 . S
C1072 C1073 1.387 . S
C1073 H1058 0.930 . S
C1073 C1068 1.390 . S
C1073 C1072 1.387 . S
H1074 C1086 0.930 . S
H1075 C1088 0.930 . S
H1076 C1089 0.930 . S
H1077 C1093 0.959 . S
H1078 C1093 0.959 . S
H1079 C1093 0.961 . S
H1080 C1094 0.960 . S
H1081 C1094 0.961 . S
H1082 C1094 0.959 . S
H1083 C1097 0.929 . S
H1084 C1098 0.931 . S
H1085 C1100 0.930 . S
C1086 H1074 0.930 . S
C1086 C1087 1.399 . S
C1086 C1091 1.399 . S
C1087 C1086 1.399 . S
C1087 C1088 1.376 . S
C1088 H1075 0.930 . S
C1088 C1087 1.376 . S
C1088 C1089 1.388 . S
C1089 H1076 0.930 . S
C1089 C1088 1.388 . S
C1089 C1090 1.390 . S
C1090 C1089 1.390 . S
C1090 C1091 1.394 . S
C1090 C1096 1.465 . S
C1091 C1086 1.399 . S
C1091 C1090 1.394 . S
C1091 C1092 1.516 . S
C1092 C1091 1.516 . S
C1092 C1093 1.502 . S
C1092 C1094 1.561 . S
C1092 C1095 1.526 . S
C1093 H1077 0.959 . S
C1093 H1078 0.959 . S
C1093 H1079 0.961 . S
C1093 C1092 1.502 . S
C1094 H1080 0.960 . S
C1094 H1081 0.961 . S
C1094 H1082 0.959 . S
C1094 C1092 1.561 . S
C1095 C1092 1.526 . S
C1095 C1096 1.396 . S
C1095 C1100 1.390 . S
C1096 C1090 1.465 . S
C1096 C1095 1.396 . S
C1096 C1097 1.399 . S
C1097 H1083 0.929 . S
C1097 C1096 1.399 . S
C1097 C1098 1.385 . S
C1098 H1084 0.931 . S
C1098 C1097 1.385 . S
C1098 C1099 1.389 . S
C1099 C1098 1.389 . S
C1099 C1100 1.387 . S
C1100 H1085 0.930 . S
C1100 C1095 1.390 . S
C1100 C1099 1.387 . S
H1101 C1113 0.930 . S
H1102 C1115 0.930 . S
H1103 C1116 0.930 . S
H1104 C1120 0.976 . S
H1105 C1120 0.927 1_565 S
H1106 C1120 0.985 . S
H1107 C1121 0.960 . S
H1108 C1121 0.961 . S
H1109 C1121 0.959 . S
H1110 C1124 0.929 . S
H1111 C1125 0.931 . S
H1112 C1127 0.930 . S
C1113 H1101 0.930 . S
C1113 C1114 1.399 . S
C1113 C1118 1.399 . S
C1114 C1113 1.399 . S
C1114 C1115 1.376 . S
C1115 H1102 0.930 . S
C1115 C1114 1.376 . S
C1115 C1116 1.388 . S
C1116 H1103 0.930 . S
C1116 C1115 1.388 . S
C1116 C1117 1.390 . S
C1117 C1116 1.390 . S
C1117 C1118 1.394 . S
C1117 C1123 1.465 1_545 S
C1118 C1113 1.399 . S
C1118 C1117 1.394 . S
C1118 C1119 1.516 1_545 S
C1119 C1118 1.516 1_565 S
C1119 C1120 1.496 1_565 S
C1119 C1121 1.561 . S
C1119 C1122 1.526 . S
C1120 H1104 0.976 . S
C1120 H1105 0.927 1_545 S
C1120 H1106 0.985 . S
C1120 C1119 1.496 1_545 S
C1121 H1107 0.960 . S
C1121 H1108 0.961 . S
C1121 H1109 0.959 . S
C1121 C1119 1.561 . S
C1122 C1119 1.526 . S
C1122 C1123 1.396 . S
C1122 C1127 1.390 . S
C1123 C1117 1.465 1_565 S
C1123 C1122 1.396 . S
C1123 C1124 1.399 . S
C1124 H1110 0.929 . S
C1124 C1123 1.399 . S
C1124 C1125 1.385 . S
C1125 H1111 0.931 . S
C1125 C1124 1.385 . S
C1125 C1126 1.389 . S
C1126 C1125 1.389 . S
C1126 C1127 1.387 . S
C1127 H1112 0.930 . S
C1127 C1122 1.390 . S
C1127 C1126 1.387 . S
H1128 C1140 0.930 . S
H1129 C1142 0.930 . S
H1130 C1143 0.930 . S
H1131 C1147 0.959 . S
H1132 C1147 0.959 . S
H1133 C1147 0.961 . S
H1134 C1148 0.960 . S
H1135 C1148 0.961 . S
H1136 C1148 0.959 . S
H1137 C1151 0.929 . S
H1138 C1152 0.931 . S
H1139 C1154 0.930 . S
C1140 H1128 0.930 . S
C1140 C1141 1.399 . S
C1140 C1145 1.399 . S
C1141 C1140 1.399 . S
C1141 C1142 1.376 . S
C1142 H1129 0.930 . S
C1142 C1141 1.376 . S
C1142 C1143 1.388 . S
C1143 H1130 0.930 . S
C1143 C1142 1.388 . S
C1143 C1144 1.390 . S
C1144 C1143 1.390 . S
C1144 C1145 1.394 . S
C1144 C1150 1.465 . S
C1145 C1140 1.399 . S
C1145 C1144 1.394 . S
C1145 C1146 1.516 . S
C1146 C1145 1.516 . S
C1146 C1147 1.502 . S
C1146 C1148 1.561 . S
C1146 C1149 1.526 . S
C1147 H1131 0.959 . S
C1147 H1132 0.959 . S
C1147 H1133 0.961 . S
C1147 C1146 1.502 . S
C1148 H1134 0.960 . S
C1148 H1135 0.961 . S
C1148 H1136 0.959 . S
C1148 C1146 1.561 . S
C1149 C1146 1.526 . S
C1149 C1150 1.396 . S
C1149 C1154 1.390 . S
C1150 C1144 1.465 . S
C1150 C1149 1.396 . S
C1150 C1151 1.399 . S
C1151 H1137 0.929 . S
C1151 C1150 1.399 . S
C1151 C1152 1.385 . S
C1152 H1138 0.931 . S
C1152 C1151 1.385 . S
C1152 C1153 1.389 . S
C1153 C1152 1.389 . S
C1153 C1154 1.387 . S
C1154 H1139 0.930 . S
C1154 C1149 1.390 . S
C1154 C1153 1.387 . S
H1155 C1167 0.930 . S
H1156 C1169 0.930 . S
H1157 C1170 0.930 . S
H1158 C1174 0.959 . S
H1159 C1174 0.959 . S
H1160 C1174 0.961 . S
H1161 C1175 0.960 . S
H1162 C1175 0.961 . S
H1163 C1175 0.959 . S
H1164 C1178 0.929 . S
H1165 C1179 0.931 . S
H1166 C1181 0.930 . S
C1167 H1155 0.930 . S
C1167 C1168 1.399 . S
C1167 C1172 1.399 . S
C1168 C1167 1.399 . S
C1168 C1169 1.376 . S
C1169 H1156 0.930 . S
C1169 C1168 1.376 . S
C1169 C1170 1.388 . S
C1170 H1157 0.930 . S
C1170 C1169 1.388 . S
C1170 C1171 1.390 . S
C1171 C1170 1.390 . S
C1171 C1172 1.394 . S
C1171 C1177 1.465 . S
C1172 C1167 1.399 . S
C1172 C1171 1.394 . S
C1172 C1173 1.516 . S
C1173 C1172 1.516 . S
C1173 C1174 1.502 . S
C1173 C1175 1.561 . S
C1173 C1176 1.526 . S
C1174 H1158 0.959 . S
C1174 H1159 0.959 . S
C1174 H1160 0.961 . S
C1174 C1173 1.502 . S
C1175 H1161 0.960 . S
C1175 H1162 0.961 . S
C1175 H1163 0.959 . S
C1175 C1173 1.561 . S
C1176 C1173 1.526 . S
C1176 C1177 1.396 . S
C1176 C1181 1.390 . S
C1177 C1171 1.465 . S
C1177 C1176 1.396 . S
C1177 C1178 1.399 . S
C1178 H1164 0.929 . S
C1178 C1177 1.399 . S
C1178 C1179 1.385 . S
C1179 H1165 0.931 . S
C1179 C1178 1.385 . S
C1179 C1180 1.389 . S
C1180 C1179 1.389 . S
C1180 C1181 1.387 . S
C1181 H1166 0.930 . S
C1181 C1176 1.390 . S
C1181 C1180 1.387 . S
H1182 C1194 0.930 . S
H1183 C1196 0.930 . S
H1184 C1197 0.930 . S
H1185 C1201 0.959 . S
H1186 C1201 0.959 . S
H1187 C1201 0.961 . S
H1188 C1202 0.960 . S
H1189 C1202 0.961 . S
H1190 C1202 0.959 . S
H1191 C1205 0.929 . S
H1192 C1206 0.931 . S
H1193 C1208 0.930 . S
C1194 H1182 0.930 . S
C1194 C1195 1.399 . S
C1194 C1199 1.399 . S
C1195 C1194 1.399 . S
C1195 C1196 1.376 . S
C1196 H1183 0.930 . S
C1196 C1195 1.376 . S
C1196 C1197 1.388 . S
C1197 H1184 0.930 . S
C1197 C1196 1.388 . S
C1197 C1198 1.390 . S
C1198 C1197 1.390 . S
C1198 C1199 1.394 . S
C1198 C1204 1.465 . S
C1199 C1194 1.399 . S
C1199 C1198 1.394 . S
C1199 C1200 1.516 . S
C1200 C1199 1.516 . S
C1200 C1201 1.502 . S
C1200 C1202 1.561 . S
C1200 C1203 1.526 . S
C1201 H1185 0.959 . S
C1201 H1186 0.959 . S
C1201 H1187 0.961 . S
C1201 C1200 1.502 . S
C1202 H1188 0.960 . S
C1202 H1189 0.961 . S
C1202 H1190 0.959 . S
C1202 C1200 1.561 . S
C1203 C1200 1.526 . S
C1203 C1204 1.396 . S
C1203 C1208 1.390 . S
C1204 C1198 1.465 . S
C1204 C1203 1.396 . S
C1204 C1205 1.399 . S
C1205 H1191 0.929 . S
C1205 C1204 1.399 . S
C1205 C1206 1.385 . S
C1206 H1192 0.931 . S
C1206 C1205 1.385 . S
C1206 C1207 1.389 . S
C1207 C1206 1.389 . S
C1207 C1208 1.387 . S
C1208 H1193 0.930 . S
C1208 C1203 1.390 . S
C1208 C1207 1.387 . S
H1209 C1221 0.930 . S
H1210 C1223 0.930 . S
H1211 C1224 0.930 . S
H1212 C1228 0.959 . S
H1213 C1228 0.959 . S
H1214 C1228 0.961 . S
H1215 C1229 0.960 . S
H1216 C1229 0.961 . S
H1217 C1229 0.959 . S
H1218 C1232 0.929 . S
H1219 C1233 0.931 . S
H1220 C1235 0.930 . S
C1221 H1209 0.930 . S
C1221 C1222 1.399 . S
C1221 C1226 1.399 . S
C1222 C1221 1.399 . S
C1222 C1223 1.376 . S
C1223 H1210 0.930 . S
C1223 C1222 1.376 . S
C1223 C1224 1.388 . S
C1224 H1211 0.930 . S
C1224 C1223 1.388 . S
C1224 C1225 1.390 . S
C1225 C1224 1.390 . S
C1225 C1226 1.394 . S
C1225 C1231 1.465 . S
C1226 C1221 1.399 . S
C1226 C1225 1.394 . S
C1226 C1227 1.516 . S
C1227 C1226 1.516 . S
C1227 C1228 1.502 . S
C1227 C1229 1.561 . S
C1227 C1230 1.526 . S
C1228 H1212 0.959 . S
C1228 H1213 0.959 . S
C1228 H1214 0.961 . S
C1228 C1227 1.502 . S
C1229 H1215 0.960 . S
C1229 H1216 0.961 . S
C1229 H1217 0.959 . S
C1229 C1227 1.561 . S
C1230 C1227 1.526 . S
C1230 C1231 1.396 . S
C1230 C1235 1.390 . S
C1231 C1225 1.465 . S
C1231 C1230 1.396 . S
C1231 C1232 1.399 . S
C1232 H1218 0.929 . S
C1232 C1231 1.399 . S
C1232 C1233 1.385 . S
C1233 H1219 0.931 . S
C1233 C1232 1.385 . S
C1233 C1234 1.389 . S
C1234 C1233 1.389 . S
C1234 C1235 1.387 . S
C1235 H1220 0.930 . S
C1235 C1230 1.390 . S
C1235 C1234 1.387 . S
H1236 C1248 0.930 . S
H1237 C1250 0.930 . S
H1238 C1251 0.930 . S
H1239 C1255 0.959 . S
H1240 C1255 0.959 . S
H1241 C1255 0.961 . S
H1242 C1256 0.960 . S
H1243 C1256 0.961 . S
H1244 C1256 0.959 . S
H1245 C1259 0.929 . S
H1246 C1260 0.931 . S
H1247 C1262 0.930 . S
C1248 H1236 0.930 . S
C1248 C1249 1.399 . S
C1248 C1253 1.399 . S
C1249 C1248 1.399 . S
C1249 C1250 1.376 . S
C1250 H1237 0.930 . S
C1250 C1249 1.376 . S
C1250 C1251 1.388 . S
C1251 H1238 0.930 . S
C1251 C1250 1.388 . S
C1251 C1252 1.390 . S
C1252 C1251 1.390 . S
C1252 C1253 1.394 . S
C1252 C1258 1.465 . S
C1253 C1248 1.399 . S
C1253 C1252 1.394 . S
C1253 C1254 1.516 . S
C1254 C1253 1.516 . S
C1254 C1255 1.502 . S
C1254 C1256 1.561 . S
C1254 C1257 1.526 . S
C1255 H1239 0.959 . S
C1255 H1240 0.959 . S
C1255 H1241 0.961 . S
C1255 C1254 1.502 . S
C1256 H1242 0.960 . S
C1256 H1243 0.961 . S
C1256 H1244 0.959 . S
C1256 C1254 1.561 . S
C1257 C1254 1.526 . S
C1257 C1258 1.396 . S
C1257 C1262 1.390 . S
C1258 C1252 1.465 . S
C1258 C1257 1.396 . S
C1258 C1259 1.399 . S
C1259 H1245 0.929 . S
C1259 C1258 1.399 . S
C1259 C1260 1.385 . S
C1260 H1246 0.931 . S
C1260 C1259 1.385 . S
C1260 C1261 1.389 . S
C1261 C1260 1.389 . S
C1261 C1262 1.387 . S
C1262 H1247 0.930 . S
C1262 C1257 1.390 . S
C1262 C1261 1.387 . S
H1263 C1275 0.930 . S
H1264 C1277 0.930 . S
H1265 C1278 0.930 . S
H1266 C1282 0.959 . S
H1267 C1282 0.959 . S
H1268 C1282 0.961 . S
H1269 C1283 0.960 . S
H1270 C1283 0.961 . S
H1271 C1283 0.959 . S
H1272 C1286 0.929 . S
H1273 C1287 0.931 . S
H1274 C1289 0.930 . S
C1275 H1263 0.930 . S
C1275 C1276 1.399 . S
C1275 C1280 1.399 . S
C1276 C1275 1.399 . S
C1276 C1277 1.376 . S
C1277 H1264 0.930 . S
C1277 C1276 1.376 . S
C1277 C1278 1.388 . S
C1278 H1265 0.930 . S
C1278 C1277 1.388 . S
C1278 C1279 1.390 . S
C1279 C1278 1.390 . S
C1279 C1280 1.394 . S
C1279 C1285 1.465 . S
C1280 C1275 1.399 . S
C1280 C1279 1.394 . S
C1280 C1281 1.516 . S
C1281 C1280 1.516 . S
C1281 C1282 1.502 . S
C1281 C1283 1.561 . S
C1281 C1284 1.526 . S
C1282 H1266 0.959 . S
C1282 H1267 0.959 . S
C1282 H1268 0.961 . S
C1282 C1281 1.502 . S
C1283 H1269 0.960 . S
C1283 H1270 0.961 . S
C1283 H1271 0.959 . S
C1283 C1281 1.561 . S
C1284 C1281 1.526 . S
C1284 C1285 1.396 . S
C1284 C1289 1.390 . S
C1285 C1279 1.465 . S
C1285 C1284 1.396 . S
C1285 C1286 1.399 . S
C1286 H1272 0.929 . S
C1286 C1285 1.399 . S
C1286 C1287 1.385 . S
C1287 H1273 0.931 . S
C1287 C1286 1.385 . S
C1287 C1288 1.389 . S
C1288 C1287 1.389 . S
C1288 C1289 1.387 . S
C1289 H1274 0.930 . S
C1289 C1284 1.390 . S
C1289 C1288 1.387 . S
H1290 C1302 0.930 . S
H1291 C1304 0.930 . S
H1292 C1305 0.930 . S
H1293 C1309 0.959 . S
H1294 C1309 0.959 1_655 S
H1295 C1309 0.961 . S
H1296 C1310 0.960 . S
H1297 C1310 0.961 . S
H1298 C1310 0.959 . S
H1299 C1313 0.929 . S
H1300 C1314 0.931 . S
H1301 C1316 0.930 . S
C1302 H1290 0.930 . S
C1302 C1303 1.399 . S
C1302 C1307 1.399 . S
C1303 C1302 1.399 . S
C1303 C1304 1.376 . S
C1304 H1291 0.930 . S
C1304 C1303 1.376 . S
C1304 C1305 1.388 . S
C1305 H1292 0.930 . S
C1305 C1304 1.388 . S
C1305 C1306 1.390 . S
C1306 C1305 1.390 . S
C1306 C1307 1.394 . S
C1306 C1312 1.465 . S
C1307 C1302 1.399 . S
C1307 C1306 1.394 . S
C1307 C1308 1.516 . S
C1308 C1307 1.516 . S
C1308 C1309 1.502 . S
C1308 C1310 1.561 . S
C1308 C1311 1.526 1_455 S
C1309 H1293 0.959 . S
C1309 H1294 0.959 1_455 S
C1309 H1295 0.961 . S
C1309 C1308 1.502 . S
C1310 H1296 0.960 . S
C1310 H1297 0.961 . S
C1310 H1298 0.959 . S
C1310 C1308 1.561 . S
C1311 C1308 1.526 1_655 S
C1311 C1312 1.396 1_655 S
C1311 C1316 1.390 . S
C1312 C1306 1.465 . S
C1312 C1311 1.396 1_455 S
C1312 C1313 1.399 1_455 S
C1313 H1299 0.929 . S
C1313 C1312 1.399 1_655 S
C1313 C1314 1.385 . S
C1314 H1300 0.931 . S
C1314 C1313 1.385 . S
C1314 C1315 1.389 . S
C1315 C1314 1.389 . S
C1315 C1316 1.387 . S
C1316 H1301 0.930 . S
C1316 C1311 1.390 . S
C1316 C1315 1.387 . S
H1317 C1329 0.930 . S
H1318 C1331 0.930 . S
H1319 C1332 0.930 . S
H1320 C1336 0.959 . S
H1321 C1336 0.959 . S
H1322 C1336 0.961 . S
H1323 C1337 0.960 . S
H1324 C1337 0.961 . S
H1325 C1337 0.959 . S
H1326 C1340 0.929 . S
H1327 C1341 0.931 . S
H1328 C1343 0.930 . S
C1329 H1317 0.930 . S
C1329 C1330 1.399 . S
C1329 C1334 1.399 . S
C1330 C1329 1.399 . S
C1330 C1331 1.376 . S
C1331 H1318 0.930 . S
C1331 C1330 1.376 . S
C1331 C1332 1.388 . S
C1332 H1319 0.930 . S
C1332 C1331 1.388 . S
C1332 C1333 1.390 . S
C1333 C1332 1.390 . S
C1333 C1334 1.394 . S
C1333 C1339 1.465 . S
C1334 C1329 1.399 . S
C1334 C1333 1.394 . S
C1334 C1335 1.516 . S
C1335 C1334 1.516 . S
C1335 C1336 1.502 . S
C1335 C1337 1.561 . S
C1335 C1338 1.526 . S
C1336 H1320 0.959 . S
C1336 H1321 0.959 . S
C1336 H1322 0.961 . S
C1336 C1335 1.502 . S
C1337 H1323 0.960 . S
C1337 H1324 0.961 . S
C1337 H1325 0.959 . S
C1337 C1335 1.561 . S
C1338 C1335 1.526 . S
C1338 C1339 1.396 . S
C1338 C1343 1.390 . S
C1339 C1333 1.465 . S
C1339 C1338 1.396 . S
C1339 C1340 1.399 . S
C1340 H1326 0.929 . S
C1340 C1339 1.399 . S
C1340 C1341 1.385 . S
C1341 H1327 0.931 . S
C1341 C1340 1.385 . S
C1341 C1342 1.389 . S
C1342 C1341 1.389 . S
C1342 C1343 1.387 . S
C1343 H1328 0.930 . S
C1343 C1338 1.390 . S
C1343 C1342 1.387 . S
H1344 C1356 0.930 . S
H1345 C1358 0.930 . S
H1346 C1359 0.930 . S
H1347 C1363 0.959 . S
H1348 C1363 0.959 . S
H1349 C1363 0.961 . S
H1350 C1364 0.960 . S
H1351 C1364 0.961 . S
H1352 C1364 0.959 . S
H1353 C1367 0.929 . S
H1354 C1368 0.931 . S
H1355 C1370 0.930 . S
C1356 H1344 0.930 . S
C1356 C1357 1.399 . S
C1356 C1361 1.399 . S
C1357 C1356 1.399 . S
C1357 C1358 1.376 . S
C1358 H1345 0.930 . S
C1358 C1357 1.376 . S
C1358 C1359 1.388 . S
C1359 H1346 0.930 . S
C1359 C1358 1.388 . S
C1359 C1360 1.390 . S
C1360 C1359 1.390 . S
C1360 C1361 1.394 . S
C1360 C1366 1.465 . S
C1361 C1356 1.399 . S
C1361 C1360 1.394 . S
C1361 C1362 1.516 . S
C1362 C1361 1.516 . S
C1362 C1363 1.502 . S
C1362 C1364 1.561 . S
C1362 C1365 1.526 . S
C1363 H1347 0.959 . S
C1363 H1348 0.959 . S
C1363 H1349 0.961 . S
C1363 C1362 1.502 . S
C1364 H1350 0.960 . S
C1364 H1351 0.961 . S
C1364 H1352 0.959 . S
C1364 C1362 1.561 . S
C1365 C1362 1.526 . S
C1365 C1366 1.396 . S
C1365 C1370 1.390 . S
C1366 C1360 1.465 . S
C1366 C1365 1.396 . S
C1366 C1367 1.399 . S
C1367 H1353 0.929 . S
C1367 C1366 1.399 . S
C1367 C1368 1.385 . S
C1368 H1354 0.931 . S
C1368 C1367 1.385 . S
C1368 C1369 1.389 . S
C1369 C1368 1.389 . S
C1369 C1370 1.387 . S
C1370 H1355 0.930 . S
C1370 C1365 1.390 . S
C1370 C1369 1.387 . S
H1371 C1383 0.930 . S
H1372 C1385 0.930 . S
H1373 C1386 0.930 . S
H1374 C1390 0.959 . S
H1375 C1390 0.959 . S
H1376 C1390 0.961 . S
H1377 C1391 0.960 . S
H1378 C1391 0.961 . S
H1379 C1391 0.959 . S
H1380 C1394 0.929 . S
H1381 C1395 0.931 . S
H1382 C1397 0.930 . S
C1383 H1371 0.930 . S
C1383 C1384 1.399 . S
C1383 C1388 1.399 . S
C1384 C1383 1.399 . S
C1384 C1385 1.376 . S
C1385 H1372 0.930 . S
C1385 C1384 1.376 . S
C1385 C1386 1.388 . S
C1386 H1373 0.930 . S
C1386 C1385 1.388 . S
C1386 C1387 1.390 . S
C1387 C1386 1.390 . S
C1387 C1388 1.394 . S
C1387 C1393 1.465 . S
C1388 C1383 1.399 . S
C1388 C1387 1.394 . S
C1388 C1389 1.516 . S
C1389 C1388 1.516 . S
C1389 C1390 1.502 . S
C1389 C1391 1.561 . S
C1389 C1392 1.526 . S
C1390 H1374 0.959 . S
C1390 H1375 0.959 . S
C1390 H1376 0.961 . S
C1390 C1389 1.502 . S
C1391 H1377 0.960 . S
C1391 H1378 0.961 . S
C1391 H1379 0.959 . S
C1391 C1389 1.561 . S
C1392 C1389 1.526 . S
C1392 C1393 1.396 . S
C1392 C1397 1.390 . S
C1393 C1387 1.465 . S
C1393 C1392 1.396 . S
C1393 C1394 1.399 . S
C1394 H1380 0.929 . S
C1394 C1393 1.399 . S
C1394 C1395 1.385 . S
C1395 H1381 0.931 . S
C1395 C1394 1.385 . S
C1395 C1396 1.389 . S
C1396 C1395 1.389 . S
C1396 C1397 1.387 . S
C1397 H1382 0.930 . S
C1397 C1392 1.390 . S
C1397 C1396 1.387 . S
H1398 C1410 0.930 . S
H1399 C1412 0.930 1_554 S
H1400 C1413 0.930 1_554 S
H1401 C1417 0.959 . S
H1402 C1417 0.959 . S
H1403 C1417 0.961 . S
H1404 C1418 0.960 . S
H1405 C1418 0.961 . S
H1406 C1418 0.959 . S
H1407 C1421 0.929 . S
H1408 C1422 0.931 . S
H1409 C1424 0.930 . S
C1410 H1398 0.930 . S
C1410 C1411 1.399 . S
C1410 C1415 1.399 . S
C1411 C1410 1.399 . S
C1411 C1412 1.376 . S
C1412 H1399 0.930 1_556 S
C1412 C1411 1.376 . S
C1412 C1413 1.388 . S
C1413 H1400 0.930 1_556 S
C1413 C1412 1.388 . S
C1413 C1414 1.390 . S
C1414 C1413 1.390 . S
C1414 C1415 1.394 . S
C1414 C1420 1.465 . S
C1415 C1410 1.399 . S
C1415 C1414 1.394 . S
C1415 C1416 1.516 . S
C1416 C1415 1.516 . S
C1416 C1417 1.502 . S
C1416 C1418 1.561 . S
C1416 C1419 1.526 . S
C1417 H1401 0.959 . S
C1417 H1402 0.959 . S
C1417 H1403 0.961 . S
C1417 C1416 1.502 . S
C1418 H1404 0.960 . S
C1418 H1405 0.961 . S
C1418 H1406 0.959 . S
C1418 C1416 1.561 . S
C1419 C1416 1.526 . S
C1419 C1420 1.396 . S
C1419 C1424 1.390 . S
C1420 C1414 1.465 . S
C1420 C1419 1.396 . S
C1420 C1421 1.399 . S
C1421 H1407 0.929 . S
C1421 C1420 1.399 . S
C1421 C1422 1.385 . S
C1422 H1408 0.931 . S
C1422 C1421 1.385 . S
C1422 C1423 1.389 . S
C1423 C1422 1.389 . S
C1423 C1424 1.387 . S
C1424 H1409 0.930 . S
C1424 C1419 1.390 . S
C1424 C1423 1.387 . S
H1425 C1437 0.930 . S
H1426 C1439 0.930 . S
H1427 C1440 0.930 . S
H1428 C1444 0.961 . S
H1429 C1444 0.935 1_455 S
H1430 C1444 0.976 . S
H1431 C1445 0.960 . S
H1432 C1445 0.961 1_455 S
H1433 C1445 0.959 . S
H1434 C1448 0.929 . S
H1435 C1449 0.931 . S
H1436 C1451 0.930 . S
C1437 H1425 0.930 . S
C1437 C1438 1.399 . S
C1437 C1442 1.399 . S
C1438 C1437 1.399 . S
C1438 C1439 1.376 . S
C1439 H1426 0.930 . S
C1439 C1438 1.376 . S
C1439 C1440 1.388 . S
C1440 H1427 0.930 . S
C1440 C1439 1.388 . S
C1440 C1441 1.390 . S
C1441 C1440 1.390 . S
C1441 C1442 1.394 . S
C1441 C1447 1.465 . S
C1442 C1437 1.399 . S
C1442 C1441 1.394 . S
C1442 C1443 1.516 . S
C1443 C1442 1.516 . S
C1443 C1444 1.510 . S
C1443 C1445 1.561 . S
C1443 C1446 1.526 1_655 S
C1444 H1428 0.961 . S
C1444 H1429 0.935 1_655 S
C1444 H1430 0.976 . S
C1444 C1443 1.510 . S
C1445 H1431 0.960 . S
C1445 H1432 0.961 1_655 S
C1445 H1433 0.959 . S
C1445 C1443 1.561 . S
C1446 C1443 1.526 1_455 S
C1446 C1447 1.396 1_455 S
C1446 C1451 1.390 . S
C1447 C1441 1.465 . S
C1447 C1446 1.396 1_655 S
C1447 C1448 1.399 . S
C1448 H1434 0.929 . S
C1448 C1447 1.399 . S
C1448 C1449 1.385 1_655 S
C1449 H1435 0.931 . S
C1449 C1448 1.385 1_455 S
C1449 C1450 1.389 . S
C1450 C1449 1.389 . S
C1450 C1451 1.387 . S
C1451 H1436 0.930 . S
C1451 C1446 1.390 . S
C1451 C1450 1.387 . S
C493 C9 1.622 . S
C505 C448 1.678 . S
C520 C368 1.649 . S
C532 C48 1.650 . S
C547 C89 1.418 . S
C559 C329 1.429 . S
C574 C128 1.622 . S
C586 C408 1.640 . S
C601 C168 1.996 . S
C613 C409 1.912 . S
C628 C209 1.348 . S
C640 C449 1.356 . S
C655 C369 1.705 . S
C667 C248 1.817 . S
C682 C288 1.418 . S
C694 C328 1.417 . S
C709 C129 1.800 . S
C721 C169 1.793 . S
C736 C8 1.791 . S
C748 C208 1.792 . S
C763 C49 1.464 . S
C775 C249 1.454 . S
C790 C289 1.679 . S
C802 C88 1.739 . S
C817 C5 2.500 . S
C829 C339 2.612 . S
C844 C55 1.119 . S
C856 C418 1.102 . S
C871 C458 1.557 . S
C883 C85 1.692 . S
C898 C135 1.389 . S
C910 C378 1.333 . S
C925 C175 1.455 . S
C937 C379 1.470 . S
C952 C338 1.697 . S
C964 C205 1.728 . S
C979 C419 1.884 . S
C991 C255 1.875 . S
C1006 C459 1.728 . S
C1018 C295 1.736 . S
C1033 C18 1.533 . S
C1045 C125 1.557 . S
C1060 C15 2.132 . S
C1072 C59 2.090 . S
C1087 C45 1.961 . S
C1099 C98 1.838 . S
C1114 C139 1.824 . S
C1126 C95 1.846 . S
C1141 C215 1.067 . S
C1153 C179 1.086 . S
C1168 C218 1.608 . S
C1180 C245 1.801 . S
C1195 C259 1.376 . S
C1207 C285 1.327 . S
C1222 C165 1.674 . S
C1234 C299 1.750 . S
C1249 C335 1.224 . S
C1261 C138 1.198 . S
C1276 C219 1.596 . S
C1288 C375 1.637 . S
C1303 C325 1.909 . S
C1315 C258 1.841 . S
C1330 C415 1.595 . S
C1342 C298 1.462 . S
C1357 C178 0.862 . S
C1369 C455 0.786 . S
C1384 C445 1.522 . S
C1396 C58 1.488 . S
C1411 C99 1.368 . S
C1423 C365 1.366 . S
C1438 C405 1.836 . S
C1450 C19 1.830 . S
