# Generated by pormake.
# Topology wjf, (4)-cn, num edge types: 1
# Building blocks:
#     Node 0, Type 0, BuildingBlock: CEKHIL_clean_sbu_0, # of connection points: 4
#     Node 1, Type 0, BuildingBlock: CEKHIL_clean_sbu_0, # of connection points: 4
#     Node 2, Type 0, BuildingBlock: CEKHIL_clean_sbu_0, # of connection points: 4
#     Node 3, Type 0, BuildingBlock: CEKHIL_clean_sbu_0, # of connection points: 4
#     Node 4, Type 0, BuildingBlock: CEKHIL_clean_sbu_0, # of connection points: 4
#     Node 5, Type 0, BuildingBlock: CEKHIL_clean_sbu_0, # of connection points: 4
#     Node 6, Type 0, BuildingBlock: CEKHIL_clean_sbu_0, # of connection points: 4
#     Node 7, Type 0, BuildingBlock: CEKHIL_clean_sbu_0, # of connection points: 4
#     Node 8, Type 0, BuildingBlock: CEKHIL_clean_sbu_0, # of connection points: 4
#     Node 9, Type 0, BuildingBlock: CEKHIL_clean_sbu_0, # of connection points: 4
#     Node 10, Type 0, BuildingBlock: CEKHIL_clean_sbu_0, # of connection points: 4
#     Node 11, Type 0, BuildingBlock: CEKHIL_clean_sbu_0, # of connection points: 4
#     Edge 12, Type (0, 0), BuildingBlock: CIFDUS_clean_linker_0, # of connection points: 2
#     Edge 13, Type (0, 0), BuildingBlock: CIFDUS_clean_linker_0, # of connection points: 2
#     Edge 14, Type (0, 0), BuildingBlock: CIFDUS_clean_linker_0, # of connection points: 2
#     Edge 15, Type (0, 0), BuildingBlock: CIFDUS_clean_linker_0, # of connection points: 2
#     Edge 16, Type (0, 0), BuildingBlock: CIFDUS_clean_linker_0, # of connection points: 2
#     Edge 17, Type (0, 0), BuildingBlock: CIFDUS_clean_linker_0, # of connection points: 2
#     Edge 18, Type (0, 0), BuildingBlock: CIFDUS_clean_linker_0, # of connection points: 2
#     Edge 19, Type (0, 0), BuildingBlock: CIFDUS_clean_linker_0, # of connection points: 2
#     Edge 20, Type (0, 0), BuildingBlock: CIFDUS_clean_linker_0, # of connection points: 2
#     Edge 21, Type (0, 0), BuildingBlock: CIFDUS_clean_linker_0, # of connection points: 2
#     Edge 22, Type (0, 0), BuildingBlock: CIFDUS_clean_linker_0, # of connection points: 2
#     Edge 23, Type (0, 0), BuildingBlock: CIFDUS_clean_linker_0, # of connection points: 2
#     Edge 24, Type (0, 0), BuildingBlock: CIFDUS_clean_linker_0, # of connection points: 2
#     Edge 25, Type (0, 0), BuildingBlock: CIFDUS_clean_linker_0, # of connection points: 2
#     Edge 26, Type (0, 0), BuildingBlock: CIFDUS_clean_linker_0, # of connection points: 2
#     Edge 27, Type (0, 0), BuildingBlock: CIFDUS_clean_linker_0, # of connection points: 2
#     Edge 28, Type (0, 0), BuildingBlock: CIFDUS_clean_linker_0, # of connection points: 2
#     Edge 29, Type (0, 0), BuildingBlock: CIFDUS_clean_linker_0, # of connection points: 2
#     Edge 30, Type (0, 0), BuildingBlock: CIFDUS_clean_linker_0, # of connection points: 2
#     Edge 31, Type (0, 0), BuildingBlock: CIFDUS_clean_linker_0, # of connection points: 2
#     Edge 32, Type (0, 0), BuildingBlock: CIFDUS_clean_linker_0, # of connection points: 2
#     Edge 33, Type (0, 0), BuildingBlock: CIFDUS_clean_linker_0, # of connection points: 2
#     Edge 34, Type (0, 0), BuildingBlock: CIFDUS_clean_linker_0, # of connection points: 2
#     Edge 35, Type (0, 0), BuildingBlock: CIFDUS_clean_linker_0, # of connection points: 2
# Relax obj value: 0.110
# Max RMSD: 0.132
# Mean RMSD: 0.132
data_MOF--net-wjf--node1-CEKHIL_clean_sbu_0--edge1-CIFDUS_clean_linker_0
_symmetry_space_group_name_H-M    P1
_symmetry_Int_Tables_number       1
_symmetry_cell_setting            triclinic
loop_
_symmetry_equiv_pos_as_xyz
'x, y, z'
_cell_length_a     44.716064
_cell_length_b     44.670702
_cell_length_c     23.711544
_cell_angle_alpha  89.837094
_cell_angle_beta   90.163947
_cell_angle_gamma 120.22976
loop_
_atom_site_label
_atom_site_type_symbol
_atom_site_fract_x
_atom_site_fract_y
_atom_site_fract_z
_atom_type_partial_charge
Co0 Co 0.32407 0.39631 0.09548 0.0
O1 O 0.27475 0.37406 0.08703 0.0
O2 O 0.3117 0.42844 0.06312 0.0
C3 C 0.32474 0.37861 0.18424 0.0
O4 O 0.37639 0.42822 0.09992 0.0
Co5 Co 0.35889 0.35204 0.10826 0.0
O6 O 0.40136 0.39701 0.12335 0.0
C7 C 0.33524 0.35907 -0.00395 0.0
C8 C 0.27983 0.40309 0.06589 0.0
C9 C 0.40309 0.42589 0.11343 0.0
O10 O 0.32772 0.38089 0.0173 0.0
O11 O 0.34618 0.34262 0.02596 0.0
O12 O 0.32062 0.40495 0.17468 0.0
O13 O 0.32427 0.36135 0.14001 0.0
Co14 Co 0.94776 0.33788 0.4081 0.0
O15 O 0.91809 0.28898 0.39851 0.0
O16 O 0.90547 0.32849 0.36939 0.0
C17 C 0.96081 0.33601 0.49922 0.0
O18 O 0.97251 0.39081 0.41262 0.0
Co19 Co 0.02566 0.36571 0.43279 0.0
O20 O 0.02845 0.41133 0.43651 0.0
C21 C 0.99908 0.34304 0.31821 0.0
C22 C 0.89655 0.29594 0.37326 0.0
C23 C 0.00319 0.41584 0.42457 0.0
O24 O 0.97021 0.34019 0.33347 0.0
O25 O 0.02386 0.35023 0.35274 0.0
O26 O 0.93211 0.33487 0.48551 0.0
O27 O 0.97865 0.33443 0.45769 0.0
Co28 Co 0.60323 0.94003 0.75968 0.0
O29 O 0.62611 0.91359 0.75146 0.0
O30 O 0.57044 0.89368 0.73467 0.0
C31 C 0.62608 0.96412 0.84295 0.0
O32 O 0.57026 0.95893 0.76487 0.0
Co33 Co 0.6449 0.02079 0.76419 0.0
O34 O 0.59943 0.01638 0.78078 0.0
C35 C 0.64041 0.98413 0.65913 0.0
C36 C 0.59637 0.88819 0.73492 0.0
C37 C 0.57119 0.98768 0.7753 0.0
O38 O 0.61534 0.95605 0.67968 0.0
O39 O 0.65782 0.01183 0.68797 0.0
O40 O 0.59982 0.93265 0.84114 0.0
O41 O 0.6394 0.97816 0.79514 0.0
Co42 Co 0.67964 0.61218 0.10033 0.0
O43 O 0.72891 0.63733 0.09271 0.0
O44 O 0.69509 0.5826 0.06727 0.0
C45 C 0.67746 0.62865 0.1892 0.0
O46 O 0.62762 0.57807 0.10376 0.0
Co47 Co 0.64217 0.65403 0.11216 0.0
O48 O 0.60111 0.60788 0.1266 0.0
C49 C 0.66735 0.64891 0.00078 0.0
C50 C 0.72609 0.60961 0.07016 0.0
C51 C 0.60035 0.57946 0.11673 0.0
O52 O 0.67523 0.62737 0.02228 0.0
O53 O 0.65574 0.66477 0.03038 0.0
O54 O 0.68336 0.60347 0.1797 0.0
O55 O 0.6772 0.64563 0.14494 0.0
Co56 Co 0.06477 0.67871 0.41837 0.0
O57 O 0.08904 0.7278 0.40682 0.0
O58 O 0.10998 0.6938 0.3849 0.0
C59 C 0.04687 0.67894 0.50719 0.0
O60 O 0.04592 0.62646 0.4264 0.0
Co61 Co 0.98519 0.64246 0.43202 0.0
O62 O 0.99104 0.60341 0.45728 0.0
C63 C 0.01467 0.66267 0.31861 0.0
C64 C 0.11399 0.7248 0.38528 0.0
C65 C 0.01755 0.60088 0.44607 0.0
O66 O 0.04444 0.672 0.34032 0.0
O67 O 0.98726 0.65174 0.34841 0.0
O68 O 0.07793 0.68474 0.49768 0.0
O69 O 0.02939 0.67759 0.46261 0.0
Co70 Co 0.37392 0.06191 0.76168 0.0
O71 O 0.34817 0.08544 0.75376 0.0
O72 O 0.40391 0.1085 0.73403 0.0
C73 C 0.35417 0.03841 0.84669 0.0
O74 O 0.40919 0.04573 0.76612 0.0
Co75 Co 0.33503 0.98114 0.76937 0.0
O76 O 0.3818 0.98871 0.78623 0.0
C77 C 0.33983 0.01505 0.66092 0.0
C78 C 0.37659 0.11176 0.73522 0.0
C79 C 0.40942 0.0177 0.77833 0.0
O80 O 0.36149 0.04456 0.68238 0.0
O81 O 0.32402 0.98708 0.68974 0.0
O82 O 0.37887 0.07057 0.84271 0.0
O83 O 0.33986 0.02342 0.79987 0.0
Co84 Co 0.61506 0.68667 0.57032 0.0
O85 O 0.64121 0.73595 0.57901 0.0
O86 O 0.58627 0.70304 0.60361 0.0
C87 C 0.63144 0.68453 0.48141 0.0
O88 O 0.58011 0.63475 0.56564 0.0
Co89 Co 0.65571 0.6479 0.55778 0.0
O90 O 0.60929 0.60782 0.54123 0.0
C91 C 0.65031 0.67222 0.66978 0.0
C92 C 0.61374 0.73377 0.60129 0.0
C93 C 0.58108 0.60737 0.55132 0.0
O94 O 0.62955 0.68112 0.64828 0.0
O95 O 0.66581 0.66026 0.64007 0.0
O96 O 0.6069 0.69134 0.49104 0.0
O97 O 0.64805 0.68356 0.52562 0.0
Co98 Co 0.92582 0.59873 0.88693 0.0
O99 O 0.8988 0.62053 0.89913 0.0
O100 O 0.88132 0.56552 0.91828 0.0
C101 C 0.94427 0.61904 0.79915 0.0
O102 O 0.9461 0.56713 0.87856 0.0
Co103 Co 0.00511 0.64345 0.87532 0.0
O104 O 0.00281 0.59891 0.85807 0.0
C105 C 0.97416 0.63453 0.98741 0.0
C106 C 0.875 0.59093 0.91908 0.0
C107 C 0.9753 0.56981 0.86548 0.0
O108 O 0.94505 0.61212 0.96566 0.0
O109 O 0.00147 0.65221 0.95775 0.0
O110 O 0.91368 0.59238 0.8074 0.0
O111 O 0.96111 0.63499 0.84435 0.0
Co112 Co 0.33441 0.93323 0.23548 0.0
O113 O 0.28486 0.9057 0.24151 0.0
O114 O 0.32103 0.88684 0.26076 0.0
C115 C 0.33647 0.95743 0.15175 0.0
O116 O 0.38684 0.95378 0.23268 0.0
Co117 Co 0.37148 0.01404 0.23169 0.0
O118 O 0.41374 0.01137 0.21772 0.0
C119 C 0.33901 0.97631 0.33616 0.0
C120 C 0.28931 0.8806 0.25884 0.0
C121 C 0.41435 0.98331 0.22353 0.0
O122 O 0.33666 0.94865 0.31545 0.0
O123 O 0.34896 0.00406 0.30754 0.0
O124 O 0.33194 0.92629 0.15386 0.0
O125 O 0.33596 0.97095 0.19933 0.0
Co126 Co 0.39654 0.3311 0.56674 0.0
O127 O 0.37368 0.28183 0.57687 0.0
O128 O 0.42833 0.31842 0.59971 0.0
C129 C 0.37841 0.33103 0.47799 0.0
O130 O 0.42886 0.38341 0.56088 0.0
Co131 Co 0.35274 0.36636 0.55342 0.0
O132 O 0.39784 0.40878 0.53863 0.0
C133 C 0.35922 0.34248 0.6656 0.0
C134 C 0.40249 0.28671 0.59849 0.0
C135 C 0.42665 0.41028 0.5478 0.0
O136 O 0.38162 0.33571 0.64471 0.0
O137 O 0.34246 0.35292 0.63538 0.0
O138 O 0.40458 0.32666 0.48753 0.0
O139 O 0.36162 0.33127 0.52234 0.0
Co140 Co 0.05933 0.38037 0.89495 0.0
O141 O 0.08233 0.35469 0.90914 0.0
O142 O 0.10185 0.40892 0.93621 0.0
C143 C 0.0472 0.36665 0.80347 0.0
O144 O 0.04252 0.415 0.88619 0.0
Co145 Co 0.98108 0.34 0.86519 0.0
O146 O 0.98846 0.38695 0.85056 0.0
C147 C 0.00233 0.34111 0.98262 0.0
C148 C 0.10588 0.38202 0.93505 0.0
C149 C 0.01547 0.41467 0.86633 0.0
O150 O 0.03358 0.36293 0.96813 0.0
O151 O 0.97739 0.32681 0.94716 0.0
O152 O 0.07773 0.39116 0.81872 0.0
O153 O 0.02666 0.34862 0.8441 0.0
Co154 Co 0.69015 0.06906 0.23338 0.0
O155 O 0.73961 0.09274 0.23799 0.0
O156 O 0.70779 0.1162 0.25988 0.0
C157 C 0.68493 0.04505 0.14856 0.0
O158 O 0.6382 0.05193 0.232 0.0
Co159 Co 0.64943 0.98803 0.22806 0.0
O160 O 0.60949 0.99465 0.21346 0.0
C161 C 0.6801 0.02332 0.33484 0.0
C162 C 0.73833 0.11941 0.25629 0.0
C163 C 0.61007 0.02317 0.22133 0.0
O164 O 0.68699 0.05246 0.31298 0.0
O165 O 0.66811 0.99522 0.30659 0.0
O166 O 0.69214 0.07707 0.15217 0.0
O167 O 0.68533 0.03057 0.19535 0.0
H168 H 0.35615 0.34258 0.21722 0.0
H169 H 0.30519 0.3956 0.28141 0.0
H170 H 0.31542 0.38399 0.37807 0.0
H171 H 0.34073 0.36055 0.44487 0.0
H172 H 0.39541 0.31127 0.38079 0.0
H173 H 0.38188 0.31949 0.28414 0.0
C174 C 0.34706 0.35128 0.25244 0.0
C175 C 0.32985 0.36978 0.24224 0.0
C176 C 0.35384 0.34531 0.3081 0.0
C177 C 0.31859 0.38135 0.28821 0.0
C178 C 0.32441 0.37472 0.34354 0.0
C179 C 0.34943 0.35142 0.40971 0.0
C180 C 0.36892 0.33525 0.41994 0.0
C181 C 0.34228 0.35699 0.35407 0.0
C182 C 0.38041 0.3239 0.37398 0.0
C183 C 0.37267 0.32855 0.31865 0.0
H184 H 0.02608 0.36284 0.53994 0.0
H185 H 0.9192 0.31381 0.59114 0.0
H186 H 0.93623 0.31696 0.68996 0.0
H187 H 0.98166 0.33486 0.76201 0.0
H188 H 0.08882 0.38809 0.71137 0.0
H189 H 0.07165 0.38209 0.61227 0.0
C190 C 0.0066 0.35273 0.57281 0.0
C191 C 0.9715 0.338 0.55852 0.0
C192 C 0.01664 0.35543 0.6296 0.0
C193 C 0.94643 0.32539 0.60135 0.0
C194 C 0.95612 0.3271 0.65779 0.0
C195 C 0.00119 0.3449 0.72923 0.0
C196 C 0.0364 0.36167 0.74383 0.0
C197 C 0.99116 0.34221 0.67245 0.0
C198 C 0.06151 0.37503 0.70104 0.0
C199 C 0.05173 0.37162 0.6444 0.0
H200 H 0.61902 0.93881 0.94883 0.0
H201 H 0.66155 0.03413 0.85407 0.0
H202 H 0.68295 0.06766 0.94042 0.0
H203 H 0.69007 0.07003 0.04298 0.0
H204 H 0.65176 0.97487 0.13712 0.0
H205 H 0.62839 0.94125 0.0512 0.0
C206 C 0.63283 0.9669 0.94732 0.0
C207 C 0.63846 0.98397 0.89546 0.0
C208 C 0.64596 0.98609 -0.00299 0.0
C209 C 0.65682 0.02037 0.89362 0.0
C210 C 0.66911 0.03962 0.94297 0.0
C211 C 0.67663 0.04195 0.04457 0.0
C212 C 0.67235 0.02499 0.09621 0.0
C213 C 0.66392 0.02275 -0.00514 0.0
C214 C 0.65525 0.9886 0.09782 0.0
C215 C 0.64183 0.96928 0.04872 0.0
H216 H 0.64841 0.66686 0.22126 0.0
H217 H 0.69461 0.60939 0.28719 0.0
H218 H 0.68601 0.62277 0.38345 0.0
H219 H 0.66449 0.65011 0.44941 0.0
H220 H 0.61492 0.70437 0.38353 0.0
H221 H 0.62575 0.69311 0.28722 0.0
C222 C 0.65671 0.65744 0.25674 0.0
C223 C 0.67225 0.63734 0.24711 0.0
C224 C 0.65107 0.66466 0.31215 0.0
C225 C 0.68253 0.62492 0.29348 0.0
C226 C 0.67768 0.63258 0.3486 0.0
C227 C 0.65629 0.65962 0.41392 0.0
C228 C 0.63913 0.67818 0.42354 0.0
C229 C 0.66189 0.65236 0.35851 0.0
C230 C 0.62819 0.68997 0.37719 0.0
C231 C 0.63438 0.68357 0.32206 0.0
H232 H 0.01182 0.65874 0.76747 0.0
H233 H 0.90787 0.60292 0.70129 0.0
H234 H 0.93 0.61826 0.60523 0.0
H235 H 0.97911 0.64586 0.53933 0.0
H236 H 0.08321 0.69816 0.60516 0.0
H237 H 0.06097 0.68615 0.70149 0.0
C238 C 0.99407 0.6502 0.73199 0.0
C239 C 0.95829 0.62982 0.7415 0.0
C240 C 0.00703 0.65844 0.6766 0.0
C241 C 0.93557 0.61857 0.69509 0.0
C242 C 0.94819 0.62736 0.64008 0.0
C243 C 0.99686 0.65483 0.5748 0.0
C244 C 0.03272 0.67293 0.56512 0.0
C245 C 0.98389 0.64704 0.63022 0.0
C246 C 0.05545 0.68409 0.6115 0.0
C247 C 0.04277 0.67724 0.66666 0.0
H248 H 0.31527 0.93218 0.04671 0.0
H249 H 0.37357 0.02733 0.1398 0.0
H250 H 0.38453 0.06095 0.05353 0.0
H251 H 0.37705 0.06341 0.95156 0.0
H252 H 0.31481 0.96845 0.85955 0.0
H253 H 0.30572 0.93478 0.94518 0.0
C254 C 0.33054 0.96025 0.04781 0.0
C255 C 0.3438 0.97727 0.09917 0.0
C256 C 0.33586 0.97949 -0.0017 0.0
C257 C 0.36308 0.01365 0.10061 0.0
C258 C 0.36936 0.03293 0.05132 0.0
C259 C 0.36144 0.03536 0.95038 0.0
C260 C 0.34696 0.01848 0.89933 0.0
C261 C 0.35572 0.01613 -2e-05 0.0
C262 C 0.32648 0.98213 0.89833 0.0
C263 C 0.32126 0.96278 0.94727 0.0
H264 H 0.17002 0.43678 0.95937 0.0
H265 H 0.10669 0.32565 0.97415 0.0
H266 H 0.15437 0.32281 0.01853 0.0
H267 H 0.21429 0.35119 0.05001 0.0
H268 H 0.27981 0.46177 0.03123 0.0
H269 H 0.23114 0.4656 0.99153 0.0
C270 C 0.16675 0.41205 0.97265 0.0
C271 C 0.13498 0.38146 0.9634 0.0
C272 C 0.19465 0.41048 -0.00285 0.0
C273 C 0.13102 0.34952 0.98038 0.0
C274 C 0.15823 0.34785 0.00588 0.0
C275 C 0.21795 0.37621 0.0376 0.0
C276 C 0.25056 0.40616 0.04369 0.0
C277 C 0.1902 0.37807 0.01395 0.0
C278 C 0.25491 0.43832 0.02694 0.0
C279 C 0.22711 0.44051 0.00424 0.0
H280 H 0.88488 0.23318 0.34343 0.0
H281 H 0.836 0.29522 0.34758 0.0
H282 H 0.78204 0.24598 0.31137 0.0
H283 H 0.74848 0.18416 0.28092 0.0
H284 H 0.80045 0.12478 0.27444 0.0
H285 H 0.85338 0.17409 0.30914 0.0
C286 C 0.86243 0.23601 0.33648 0.0
C287 C 0.86424 0.26759 0.34872 0.0
C288 C 0.832 0.20797 0.31524 0.0
C289 C 0.83516 0.27106 0.33851 0.0
C290 C 0.80433 0.24289 0.31799 0.0
C291 C 0.77146 0.18217 0.28699 0.0
C292 C 0.77038 0.15071 0.27526 0.0
C293 C 0.80236 0.21105 0.30657 0.0
C294 C 0.80045 0.14859 0.28295 0.0
C295 C 0.83082 0.17679 0.30296 0.0
H296 H 0.64816 0.87757 0.70342 0.0
H297 H 0.53701 0.826 0.71703 0.0
H298 H 0.53213 0.77303 0.67757 0.0
H299 H 0.5599 0.74172 0.63756 0.0
H300 H 0.67116 0.79578 0.62063 0.0
H301 H 0.67546 0.8473 0.66276 0.0
C302 C 0.62285 0.85467 0.69821 0.0
C303 C 0.59303 0.8556 0.7135 0.0
C304 C 0.62025 0.82476 0.67447 0.0
C305 C 0.56039 0.82587 0.70568 0.0
C306 C 0.55759 0.79562 0.68305 0.0
C307 C 0.58501 0.76481 0.6431 0.0
C308 C 0.61512 0.76485 0.62584 0.0
C309 C 0.58738 0.7948 0.66696 0.0
C310 C 0.64751 0.79501 0.63316 0.0
C311 C 0.65007 0.82455 0.65748 0.0
H312 H 0.73193 0.55535 0.02912 0.0
H313 H 0.78916 0.66618 0.05425 0.0
H314 H 0.83937 0.66992 0.00834 0.0
H315 H 0.86717 0.64248 0.96021 0.0
H316 H 0.8128 0.53165 0.93826 0.0
H317 H 0.76135 0.52712 0.98353 0.0
C318 C 0.75546 0.58023 0.02471 0.0
C319 C 0.7567 0.61041 0.04503 0.0
C320 C 0.78469 0.58227 -0.00146 0.0
C321 C 0.78743 0.64248 0.03922 0.0
C322 C 0.81622 0.64474 0.01273 0.0
C323 C 0.84399 0.61732 0.96497 0.0
C324 C 0.84355 0.5875 0.94537 0.0
C325 C 0.81507 0.6149 0.99198 0.0
C326 C 0.81362 0.555 0.95285 0.0
C327 C 0.78426 0.55242 0.97875 0.0
H328 H 0.17775 0.73377 0.35666 0.0
H329 H 0.11752 0.78487 0.35595 0.0
H330 H 0.16553 0.83629 0.31447 0.0
H331 H 0.22473 0.86769 0.28041 0.0
H332 H 0.28756 0.8196 0.28419 0.0
H333 H 0.2386 0.76625 0.32207 0.0
C334 C 0.17523 0.75616 0.34726 0.0
C335 C 0.14407 0.75542 0.35966 0.0
C336 C 0.2034 0.78626 0.32389 0.0
C337 C 0.14123 0.78472 0.34737 0.0
C338 C 0.16867 0.81422 0.32342 0.0
C339 C 0.22774 0.84548 0.28906 0.0
C340 C 0.25968 0.84757 0.2792 0.0
C341 C 0.19987 0.81536 0.31179 0.0
C342 C 0.26318 0.81864 0.29132 0.0
C343 C 0.2352 0.78815 0.31305 0.0
H344 H 0.43235 0.17391 0.70375 0.0
H345 H 0.32082 0.11897 0.71569 0.0
H346 H 0.31932 0.16787 0.67352 0.0
H347 H 0.34906 0.22554 0.63191 0.0
H348 H 0.46051 0.28279 0.62285 0.0
H349 H 0.46271 0.2337 0.66513 0.0
C350 C 0.40779 0.17278 0.69732 0.0
C351 C 0.37675 0.14276 0.71276 0.0
C352 C 0.40706 0.20128 0.67331 0.0
C353 C 0.34511 0.14173 0.7044 0.0
C354 C 0.34418 0.16966 0.68006 0.0
C355 C 0.37388 0.22727 0.6389 0.0
C356 C 0.40455 0.25753 0.62372 0.0
C357 C 0.37491 0.1994 0.66404 0.0
C358 C 0.43652 0.25964 0.63401 0.0
C359 C 0.43776 0.23161 0.65818 0.0
H360 H 0.32386 0.36479 0.73088 0.0
H361 H 0.38306 0.31275 0.74061 0.0
H362 H 0.37882 0.31109 0.84303 0.0
H363 H 0.36156 0.32756 0.93048 0.0
H364 H 0.30349 0.38076 0.92106 0.0
H365 H 0.30387 0.37846 0.8184 0.0
C366 C 0.33557 0.3528 0.7553 0.0
C367 C 0.354 0.33923 0.72774 0.0
C368 C 0.3334 0.35222 0.81456 0.0
C369 C 0.36897 0.32376 0.7604 0.0
C370 C 0.36657 0.32274 0.81917 0.0
C371 C 0.34865 0.33832 0.90608 0.0
C372 C 0.33278 0.35453 0.93376 0.0
C373 C 0.34933 0.33738 0.84679 0.0
C374 C 0.31622 0.36837 0.90112 0.0
C375 C 0.3164 0.3671 0.84224 0.0
H376 H 0.95065 0.31864 0.23448 0.0
H377 H 0.05991 0.36054 0.26482 0.0
H378 H 0.06994 0.36115 0.16371 0.0
H379 H 0.04858 0.35409 0.06673 0.0
H380 H 0.93947 0.31235 0.03579 0.0
H381 H 0.92855 0.30708 0.13727 0.0
C382 C 0.97666 0.32772 0.21909 0.0
C383 C 0.00454 0.33996 0.25733 0.0
C384 C 0.98233 0.32817 0.16079 0.0
C385 C 0.03796 0.35111 0.23651 0.0
C386 C 0.04377 0.35158 0.17861 0.0
C387 C 0.02234 0.34363 0.08208 0.0
C388 C 0.99496 0.33407 0.04363 0.0
C389 C 0.01627 0.34085 0.14037 0.0
C390 C 0.96106 0.32001 0.06436 0.0
C391 C 0.95481 0.31713 0.12242 0.0
H392 H 0.68325 0.04057 0.59675 0.0
H393 H 0.61676 0.92944 0.58649 0.0
H394 H 0.62731 0.93158 0.48532 0.0
H395 H 0.65058 0.96544 0.39931 0.0
H396 H 0.71448 0.07686 0.40881 0.0
H397 H 0.71022 0.07398 0.51148 0.0
C398 C 0.67126 0.01674 0.57258 0.0
C399 C 0.64878 0.98498 0.59892 0.0
C400 C 0.67694 0.01819 0.51446 0.0
C401 C 0.63371 0.95433 0.56702 0.0
C402 C 0.6398 0.95549 0.50925 0.0
C403 C 0.6641 0.98909 0.42378 0.0
C404 C 0.68245 0.02134 0.39651 0.0
C405 C 0.66068 0.98736 0.48242 0.0
C406 C 0.69984 0.05172 0.42886 0.0
C407 C 0.69735 0.05012 0.48749 0.0
H408 H 0.68162 0.64562 0.73604 0.0
H409 H 0.62866 0.70396 0.74418 0.0
H410 H 0.63099 0.70369 0.84676 0.0
H411 H 0.64482 0.68398 0.93464 0.0
H412 H 0.69704 0.62491 0.92648 0.0
H413 H 0.69832 0.62867 0.82401 0.0
C414 C 0.6709 0.65859 0.76015 0.0
C415 C 0.65476 0.6745 0.73209 0.0
C416 C 0.67197 0.6581 0.81946 0.0
C417 C 0.641 0.69118 0.76437 0.0
C418 C 0.6423 0.69108 0.82322 0.0
C419 C 0.65678 0.6722 0.91056 0.0
C420 C 0.67051 0.65396 0.93859 0.0
C421 C 0.65721 0.67414 0.85129 0.0
C422 C 0.68594 0.6389 0.90634 0.0
C423 C 0.68673 0.64101 0.84753 0.0
H424 H 0.95652 0.63203 0.2525 0.0
H425 H 0.06789 0.69488 0.2436 0.0
H426 H 0.0652 0.69298 0.14098 0.0
H427 H 0.03165 0.67141 0.05337 0.0
H428 H 0.92035 0.60759 0.06222 0.0
H429 H 0.92278 0.61213 0.16465 0.0
C430 C 0.98019 0.64561 0.22817 0.0
C431 C 0.01233 0.66344 0.25607 0.0
C432 C 0.97858 0.64411 0.16885 0.0
C433 C 0.04273 0.68072 0.22355 0.0
C434 C 0.04128 0.67968 0.16467 0.0
C435 C 0.00788 0.65866 0.07759 0.0
C436 C 0.97593 0.63904 0.04975 0.0
C437 C 0.00939 0.6611 0.13682 0.0
C438 C 0.94542 0.6227 0.08219 0.0
C439 C 0.94672 0.62529 0.14098 0.0
H440 H 0.3514 0.03212 0.39862 0.0
H441 H 0.3095 0.92145 0.40918 0.0
H442 H 0.30206 0.92333 0.51073 0.0
H443 H 0.31278 0.95709 0.59688 0.0
H444 H 0.35746 0.06812 0.5866 0.0
H445 H 0.35798 0.06522 0.48392 0.0
C446 C 0.34033 0.0083 0.42292 0.0
C447 C 0.33156 0.97679 0.39652 0.0
C448 C 0.3367 0.00963 0.48122 0.0
C449 C 0.31699 0.94616 0.42864 0.0
C450 C 0.31265 0.94718 0.48665 0.0
C451 C 0.32212 0.98061 0.57223 0.0
C452 C 0.33544 0.0128 0.59926 0.0
C453 C 0.32322 0.9789 0.51347 0.0
C454 C 0.34745 0.04305 0.56672 0.0
C455 C 0.3478 0.04143 0.50808 0.0
H456 H 0.46632 0.43076 0.11743 0.0
H457 H 0.41736 0.49303 0.11459 0.0
H458 H 0.47402 0.54568 0.1169 0.0
H459 H 0.53709 0.57396 0.11814 0.0
H460 H 0.58655 0.5122 0.11788 0.0
H461 H 0.52981 0.45928 0.11844 0.0
C462 C 0.46797 0.45583 0.11762 0.0
C463 C 0.43751 0.45786 0.11597 0.0
C464 C 0.50066 0.48604 0.1183 0.0
C465 C 0.44028 0.49063 0.11572 0.0
C466 C 0.47269 0.52077 0.1171 0.0
C467 C 0.53561 0.54897 0.11855 0.0
C468 C 0.56615 0.54713 0.11818 0.0
C469 C 0.503 0.51876 0.11819 0.0
C470 C 0.56353 0.51443 0.11809 0.0
C471 C 0.53108 0.48416 0.11845 0.0
H472 H 0.05557 0.57534 0.39691 0.0
H473 H 0.96994 0.5476 0.50996 0.0
H474 H 0.95708 0.48784 0.5118 0.0
H475 H 0.96819 0.44232 0.478 0.0
H476 H 0.05525 0.46991 0.36917 0.0
H477 H 0.06913 0.53041 0.36818 0.0
C478 C 0.03442 0.55633 0.42252 0.0
C479 C 0.01357 0.566 0.45264 0.0
C480 C 0.02695 0.52169 0.42333 0.0
C481 C 0.98621 0.5409 0.48566 0.0
C482 C 0.9787 0.50659 0.48671 0.0
C483 C 0.99002 0.46165 0.45388 0.0
C484 C 0.01039 0.45184 0.42307 0.0
C485 C 0.99841 0.4965 0.45485 0.0
C486 C 0.03913 0.47706 0.39292 0.0
C487 C 0.04713 0.51161 0.3925 0.0
H488 H 0.56198 0.04358 0.77653 0.0
H489 H 0.50584 0.9317 0.78317 0.0
H490 H 0.45122 0.93145 0.78695 0.0
H491 H 0.41938 0.9626 0.78565 0.0
H492 H 0.475 0.07438 0.77618 0.0
H493 H 0.52992 0.07492 0.77646 0.0
C494 C 0.53784 0.0191 0.77914 0.0
C495 C 0.53812 0.98769 0.77949 0.0
C496 C 0.50643 0.01909 0.78068 0.0
C497 C 0.50649 0.95627 0.78257 0.0
C498 C 0.4752 0.95608 0.7848 0.0
C499 C 0.44346 0.98719 0.78401 0.0
C500 C 0.44294 0.01842 0.7809 0.0
C501 C 0.47487 0.9873 0.78348 0.0
C502 C 0.47453 0.04993 0.77847 0.0
C503 C 0.50598 0.05027 0.77862 0.0
H504 H 0.57491 0.5439 0.54313 0.0
H505 H 0.51396 0.59402 0.5538 0.0
H506 H 0.46084 0.53742 0.55153 0.0
H507 H 0.43194 0.47379 0.54878 0.0
H508 H 0.49351 0.42421 0.54155 0.0
H509 H 0.54631 0.48082 0.54006 0.0
C510 C 0.55007 0.54264 0.54465 0.0
C511 C 0.54854 0.57334 0.54853 0.0
C512 C 0.51975 0.51011 0.54406 0.0
C513 C 0.51599 0.57091 0.55091 0.0
C514 C 0.48559 0.53854 0.54958 0.0
C515 C 0.45688 0.47531 0.54652 0.0
C516 C 0.45869 0.44468 0.54522 0.0
C517 C 0.4872 0.50797 0.54647 0.0
C518 C 0.4913 0.44726 0.5428 0.0
C519 C 0.52152 0.47964 0.5419 0.0
H520 H 0.03309 0.56418 0.87126 0.0
H521 H 0.92218 0.5036 0.85 0.0
H522 H 0.9253 0.45064 0.84591 0.0
H523 H 0.95901 0.4215 0.85135 0.0
H524 H 0.06962 0.48136 0.87681 0.0
H525 H 0.06706 0.53479 0.87616 0.0
C526 C 0.00961 0.53942 0.8653 0.0
C527 C 0.97743 0.53789 0.86089 0.0
C528 C 0.01151 0.50899 0.86394 0.0
C529 C 0.94725 0.50553 0.85376 0.0
C530 C 0.94901 0.47524 0.85135 0.0
C531 C 0.98269 0.4462 0.85636 0.0
C532 C 0.01451 0.44735 0.864 0.0
C533 C 0.98095 0.47666 0.85685 0.0
C534 C 0.04479 0.47966 0.87097 0.0
C535 C 0.04333 0.51023 0.87057 0.0
H536 H 0.5459 0.96614 0.21642 0.0
H537 H 0.59814 0.07787 0.22402 0.0
H538 H 0.54216 0.0753 0.22403 0.0
H539 H 0.47853 0.04123 0.22342 0.0
H540 H 0.42692 0.92945 0.21821 0.0
H541 H 0.48283 0.93233 0.21568 0.0
C542 C 0.54524 0.99007 0.2178 0.0
C543 C 0.57637 0.02221 0.22007 0.0
C544 C 0.51308 0.98839 0.21835 0.0
C545 C 0.57471 0.05278 0.22227 0.0
C546 C 0.54268 0.05132 0.22227 0.0
C547 C 0.47942 0.01745 0.22147 0.0
C548 C 0.4484 0.98513 0.22095 0.0
C549 C 0.51171 0.01925 0.22053 0.0
C550 C 0.45024 0.95466 0.2188 0.0
C551 C 0.48224 0.95627 0.2173 0.0
loop_
_geom_bond_atom_site_label_1
_geom_bond_atom_site_label_2
_geom_bond_distance
_geom_bond_site_symmetry_2
_ccdc_geom_bond_type
Co0 O1 2.216 . S
Co0 O2 2.091 . S
Co0 O4 2.004 . S
Co0 O10 2.021 1_554 S
Co0 O12 2.137 . S
Co0 O13 2.244 . S
O1 Co0 2.216 . S
O1 C8 1.247 . S
O2 Co0 2.091 . S
O2 C8 1.261 . S
C3 O12 1.247 . S
C3 O13 1.272 . S
O4 Co0 2.004 . S
O4 C9 1.259 . S
Co5 O6 2.061 . S
Co5 O11 2.052 . S
Co5 O13 2.135 . S
O6 Co5 2.061 . S
O6 C9 1.235 . S
C7 O10 1.238 . S
C7 O11 1.241 1_556 S
C8 O1 1.247 . S
C8 O2 1.261 . S
C9 O4 1.259 . S
C9 O6 1.235 . S
O10 Co0 2.021 1_556 S
O10 C7 1.238 . S
O11 Co5 2.052 . S
O11 C7 1.241 1_554 S
O12 Co0 2.137 . S
O12 C3 1.247 . S
O13 Co0 2.244 . S
O13 C3 1.272 . S
O13 Co5 2.135 . S
Co14 O15 2.216 . S
Co14 O16 2.091 . S
Co14 O18 2.004 . S
Co14 O24 2.021 . S
Co14 O26 2.137 . S
Co14 O27 2.248 . S
O15 Co14 2.216 . S
O15 C22 1.247 . S
O16 Co14 2.091 . S
O16 C22 1.261 . S
C17 O26 1.247 . S
C17 O27 1.274 . S
O18 Co14 2.004 . S
O18 C23 1.259 . S
Co19 O20 2.061 . S
Co19 O25 2.052 . S
Co19 O27 2.133 1_455 S
O20 Co19 2.061 . S
O20 C23 1.235 1_455 S
C21 O24 1.238 . S
C21 O25 1.241 1_655 S
C22 O15 1.247 . S
C22 O16 1.261 . S
C23 O18 1.259 . S
C23 O20 1.235 1_655 S
O24 Co14 2.021 . S
O24 C21 1.238 . S
O25 Co19 2.052 . S
O25 C21 1.241 1_455 S
O26 Co14 2.137 . S
O26 C17 1.247 . S
O27 Co14 2.248 . S
O27 C17 1.274 . S
O27 Co19 2.133 1_655 S
Co28 O29 2.216 . S
Co28 O30 2.091 . S
Co28 O32 2.004 . S
Co28 O38 2.021 . S
Co28 O40 2.137 . S
Co28 O41 2.247 . S
O29 Co28 2.216 . S
O29 C36 1.247 . S
O30 Co28 2.091 . S
O30 C36 1.261 . S
C31 O40 1.247 . S
C31 O41 1.274 . S
O32 Co28 2.004 . S
O32 C37 1.259 . S
Co33 O34 2.061 . S
Co33 O39 2.052 . S
Co33 O41 2.130 1_545 S
O34 Co33 2.061 . S
O34 C37 1.235 1_545 S
C35 O38 1.238 . S
C35 O39 1.241 1_565 S
C36 O29 1.247 . S
C36 O30 1.261 . S
C37 O32 1.259 . S
C37 O34 1.235 1_565 S
O38 Co28 2.021 . S
O38 C35 1.238 . S
O39 Co33 2.052 . S
O39 C35 1.241 1_545 S
O40 Co28 2.137 . S
O40 C31 1.247 . S
O41 Co28 2.247 . S
O41 C31 1.274 . S
O41 Co33 2.130 1_565 S
Co42 O43 2.216 . S
Co42 O44 2.091 . S
Co42 O46 2.004 . S
Co42 O52 2.021 1_554 S
Co42 O54 2.137 . S
Co42 O55 2.244 . S
O43 Co42 2.216 . S
O43 C50 1.247 . S
O44 Co42 2.091 . S
O44 C50 1.261 . S
C45 O54 1.247 . S
C45 O55 1.272 . S
O46 Co42 2.004 . S
O46 C51 1.259 . S
Co47 O48 2.061 . S
Co47 O53 2.052 . S
Co47 O55 2.135 . S
O48 Co47 2.061 . S
O48 C51 1.235 . S
C49 O52 1.238 . S
C49 O53 1.241 1_556 S
C50 O43 1.247 . S
C50 O44 1.261 . S
C51 O46 1.259 . S
C51 O48 1.235 . S
O52 Co42 2.021 1_556 S
O52 C49 1.238 . S
O53 Co47 2.052 . S
O53 C49 1.241 1_554 S
O54 Co42 2.137 . S
O54 C45 1.247 . S
O55 Co42 2.244 . S
O55 C45 1.272 . S
O55 Co47 2.135 . S
Co56 O57 2.216 . S
Co56 O58 2.091 . S
Co56 O60 2.004 . S
Co56 O66 2.021 . S
Co56 O68 2.137 . S
Co56 O69 2.248 . S
O57 Co56 2.216 . S
O57 C64 1.247 . S
O58 Co56 2.091 . S
O58 C64 1.261 . S
C59 O68 1.247 . S
C59 O69 1.274 . S
O60 Co56 2.004 . S
O60 C65 1.259 . S
Co61 O62 2.061 . S
Co61 O67 2.052 . S
Co61 O69 2.133 1_655 S
O62 Co61 2.061 . S
O62 C65 1.235 1_655 S
C63 O66 1.238 . S
C63 O67 1.241 1_455 S
C64 O57 1.247 . S
C64 O58 1.261 . S
C65 O60 1.259 . S
C65 O62 1.235 1_455 S
O66 Co56 2.021 . S
O66 C63 1.238 . S
O67 Co61 2.052 . S
O67 C63 1.241 1_655 S
O68 Co56 2.137 . S
O68 C59 1.247 . S
O69 Co56 2.248 . S
O69 C59 1.274 . S
O69 Co61 2.133 1_455 S
Co70 O71 2.216 . S
Co70 O72 2.091 . S
Co70 O74 2.004 . S
Co70 O80 2.021 . S
Co70 O82 2.137 . S
Co70 O83 2.247 . S
O71 Co70 2.216 . S
O71 C78 1.247 . S
O72 Co70 2.091 . S
O72 C78 1.261 . S
C73 O82 1.247 . S
C73 O83 1.274 . S
O74 Co70 2.004 . S
O74 C79 1.259 . S
Co75 O76 2.061 . S
Co75 O81 2.052 . S
Co75 O83 2.130 1_565 S
O76 Co75 2.061 . S
O76 C79 1.235 1_565 S
C77 O80 1.238 . S
C77 O81 1.241 1_545 S
C78 O71 1.247 . S
C78 O72 1.261 . S
C79 O74 1.259 . S
C79 O76 1.235 1_545 S
O80 Co70 2.021 . S
O80 C77 1.238 . S
O81 Co75 2.052 . S
O81 C77 1.241 1_565 S
O82 Co70 2.137 . S
O82 C73 1.247 . S
O83 Co70 2.247 . S
O83 C73 1.274 . S
O83 Co75 2.130 1_545 S
Co84 O85 2.216 . S
Co84 O86 2.091 . S
Co84 O88 2.004 . S
Co84 O94 2.021 . S
Co84 O96 2.137 . S
Co84 O97 2.244 . S
O85 Co84 2.216 . S
O85 C92 1.247 . S
O86 Co84 2.091 . S
O86 C92 1.261 . S
C87 O96 1.247 . S
C87 O97 1.272 . S
O88 Co84 2.004 . S
O88 C93 1.259 . S
Co89 O90 2.061 . S
Co89 O95 2.052 . S
Co89 O97 2.135 . S
O90 Co89 2.061 . S
O90 C93 1.235 . S
C91 O94 1.238 . S
C91 O95 1.241 . S
C92 O85 1.247 . S
C92 O86 1.261 . S
C93 O88 1.259 . S
C93 O90 1.235 . S
O94 Co84 2.021 . S
O94 C91 1.238 . S
O95 Co89 2.052 . S
O95 C91 1.241 . S
O96 Co84 2.137 . S
O96 C87 1.247 . S
O97 Co84 2.244 . S
O97 C87 1.272 . S
O97 Co89 2.135 . S
Co98 O99 2.216 . S
Co98 O100 2.091 . S
Co98 O102 2.004 . S
Co98 O108 2.021 1_556 S
Co98 O110 2.137 . S
Co98 O111 2.247 . S
O99 Co98 2.216 . S
O99 C106 1.247 . S
O100 Co98 2.091 . S
O100 C106 1.261 . S
C101 O110 1.247 . S
C101 O111 1.274 . S
O102 Co98 2.004 . S
O102 C107 1.259 . S
Co103 O104 2.061 . S
Co103 O109 2.052 . S
Co103 O111 2.130 1_455 S
O104 Co103 2.061 . S
O104 C107 1.235 1_455 S
C105 O108 1.238 . S
C105 O109 1.241 1_654 S
C106 O99 1.247 . S
C106 O100 1.261 . S
C107 O102 1.259 . S
C107 O104 1.235 1_655 S
O108 Co98 2.021 1_554 S
O108 C105 1.238 . S
O109 Co103 2.052 . S
O109 C105 1.241 1_456 S
O110 Co98 2.137 . S
O110 C101 1.247 . S
O111 Co98 2.247 . S
O111 C101 1.274 . S
O111 Co103 2.130 1_655 S
Co112 O113 2.216 . S
Co112 O114 2.091 . S
Co112 O116 2.004 . S
Co112 O122 2.021 . S
Co112 O124 2.137 . S
Co112 O125 2.248 . S
O113 Co112 2.216 . S
O113 C120 1.247 . S
O114 Co112 2.091 . S
O114 C120 1.261 . S
C115 O124 1.247 . S
C115 O125 1.274 . S
O116 Co112 2.004 . S
O116 C121 1.259 . S
Co117 O118 2.061 . S
Co117 O123 2.052 . S
Co117 O125 2.133 1_545 S
O118 Co117 2.061 . S
O118 C121 1.235 1_545 S
C119 O122 1.238 . S
C119 O123 1.241 1_565 S
C120 O113 1.247 . S
C120 O114 1.261 . S
C121 O116 1.259 . S
C121 O118 1.235 1_565 S
O122 Co112 2.021 . S
O122 C119 1.238 . S
O123 Co117 2.052 . S
O123 C119 1.241 1_545 S
O124 Co112 2.137 . S
O124 C115 1.247 . S
O125 Co112 2.248 . S
O125 C115 1.274 . S
O125 Co117 2.133 1_565 S
Co126 O127 2.216 . S
Co126 O128 2.091 . S
Co126 O130 2.004 . S
Co126 O136 2.021 . S
Co126 O138 2.137 . S
Co126 O139 2.244 . S
O127 Co126 2.216 . S
O127 C134 1.247 . S
O128 Co126 2.091 . S
O128 C134 1.261 . S
C129 O138 1.247 . S
C129 O139 1.272 . S
O130 Co126 2.004 . S
O130 C135 1.259 . S
Co131 O132 2.061 . S
Co131 O137 2.052 . S
Co131 O139 2.135 . S
O132 Co131 2.061 . S
O132 C135 1.235 . S
C133 O136 1.238 . S
C133 O137 1.241 . S
C134 O127 1.247 . S
C134 O128 1.261 . S
C135 O130 1.259 . S
C135 O132 1.235 . S
O136 Co126 2.021 . S
O136 C133 1.238 . S
O137 Co131 2.052 . S
O137 C133 1.241 . S
O138 Co126 2.137 . S
O138 C129 1.247 . S
O139 Co126 2.244 . S
O139 C129 1.272 . S
O139 Co131 2.135 . S
Co140 O141 2.216 . S
Co140 O142 2.091 . S
Co140 O144 2.004 . S
Co140 O150 2.021 1_556 S
Co140 O152 2.137 . S
Co140 O153 2.247 . S
O141 Co140 2.216 . S
O141 C148 1.247 . S
O142 Co140 2.091 . S
O142 C148 1.261 . S
C143 O152 1.247 . S
C143 O153 1.274 . S
O144 Co140 2.004 . S
O144 C149 1.259 . S
Co145 O146 2.061 . S
Co145 O151 2.052 . S
Co145 O153 2.130 1_655 S
O146 Co145 2.061 . S
O146 C149 1.235 1_655 S
C147 O150 1.238 . S
C147 O151 1.241 1_454 S
C148 O141 1.247 . S
C148 O142 1.261 . S
C149 O144 1.259 . S
C149 O146 1.235 1_455 S
O150 Co140 2.021 1_554 S
O150 C147 1.238 . S
O151 Co145 2.052 . S
O151 C147 1.241 1_656 S
O152 Co140 2.137 . S
O152 C143 1.247 . S
O153 Co140 2.247 . S
O153 C143 1.274 . S
O153 Co145 2.130 1_455 S
Co154 O155 2.216 . S
Co154 O156 2.091 . S
Co154 O158 2.004 . S
Co154 O164 2.021 . S
Co154 O166 2.137 . S
Co154 O167 2.248 . S
O155 Co154 2.216 . S
O155 C162 1.247 . S
O156 Co154 2.091 . S
O156 C162 1.261 . S
C157 O166 1.247 . S
C157 O167 1.274 . S
O158 Co154 2.004 . S
O158 C163 1.259 . S
Co159 O160 2.061 . S
Co159 O165 2.052 . S
Co159 O167 2.133 1_565 S
O160 Co159 2.061 . S
O160 C163 1.235 1_565 S
C161 O164 1.238 . S
C161 O165 1.241 1_545 S
C162 O155 1.247 . S
C162 O156 1.261 . S
C163 O158 1.259 . S
C163 O160 1.235 1_545 S
O164 Co154 2.021 . S
O164 C161 1.238 . S
O165 Co159 2.052 . S
O165 C161 1.241 1_565 S
O166 Co154 2.137 . S
O166 C157 1.247 . S
O167 Co154 2.248 . S
O167 C157 1.274 . S
O167 Co159 2.133 1_545 S
H168 C174 0.930 . S
H169 C177 0.930 . S
H170 C178 0.930 . S
H171 C179 0.930 . S
H172 C182 0.930 . S
H173 C183 0.930 . S
C174 H168 0.930 . S
C174 C175 1.355 . S
C174 C176 1.415 . S
C175 C174 1.355 . S
C175 C177 1.419 . S
C176 C174 1.415 . S
C176 C181 1.425 . S
C176 C183 1.409 . S
C177 H169 0.930 . S
C177 C175 1.419 . S
C177 C178 1.362 . S
C178 H170 0.930 . S
C178 C177 1.362 . S
C178 C181 1.409 . S
C179 H171 0.930 . S
C179 C180 1.355 . S
C179 C181 1.415 . S
C180 C179 1.355 . S
C180 C182 1.419 . S
C181 C176 1.425 . S
C181 C178 1.409 . S
C181 C179 1.415 . S
C182 H172 0.930 . S
C182 C180 1.419 . S
C182 C183 1.362 . S
C183 H173 0.930 . S
C183 C176 1.409 . S
C183 C182 1.362 . S
H184 C190 0.930 . S
H185 C193 0.930 . S
H186 C194 0.915 1_455 S
H187 C195 0.930 . S
H188 C198 0.930 . S
H189 C199 0.915 1_655 S
C190 H184 0.930 . S
C190 C191 1.355 . S
C190 C192 1.422 . S
C191 C190 1.355 . S
C191 C193 1.419 . S
C192 C190 1.422 . S
C192 C197 1.386 1_655 S
C192 C199 1.433 1_655 S
C193 H185 0.930 . S
C193 C191 1.419 . S
C193 C194 1.368 . S
C194 H186 0.915 1_655 S
C194 C193 1.368 . S
C194 C197 1.433 1_655 S
C195 H187 0.930 . S
C195 C196 1.355 . S
C195 C197 1.422 . S
C196 C195 1.355 . S
C196 C198 1.419 . S
C197 C192 1.386 1_455 S
C197 C194 1.433 1_455 S
C197 C195 1.422 . S
C198 H188 0.930 . S
C198 C196 1.419 . S
C198 C199 1.368 . S
C199 H189 0.915 1_455 S
C199 C192 1.433 1_455 S
C199 C198 1.368 . S
H200 C206 0.930 . S
H201 C209 0.930 . S
H202 C210 0.930 . S
H203 C211 0.930 . S
H204 C214 0.930 . S
H205 C215 0.930 . S
C206 H200 0.930 . S
C206 C207 1.355 . S
C206 C208 1.415 . S
C207 C206 1.355 . S
C207 C209 1.419 1_565 S
C208 C206 1.415 . S
C208 C213 1.425 1_566 S
C208 C215 1.409 1_556 S
C209 H201 0.930 . S
C209 C207 1.419 1_545 S
C209 C210 1.362 . S
C210 H202 0.930 . S
C210 C209 1.362 . S
C210 C213 1.409 1_556 S
C211 H203 0.930 . S
C211 C212 1.355 . S
C211 C213 1.415 . S
C212 C211 1.355 . S
C212 C214 1.419 1_545 S
C213 C208 1.425 1_544 S
C213 C210 1.409 1_554 S
C213 C211 1.415 . S
C214 H204 0.930 . S
C214 C212 1.419 1_565 S
C214 C215 1.362 . S
C215 H205 0.930 . S
C215 C208 1.409 1_554 S
C215 C214 1.362 . S
H216 C222 0.930 . S
H217 C225 0.930 . S
H218 C226 0.930 . S
H219 C227 0.930 . S
H220 C230 0.930 . S
H221 C231 0.930 . S
C222 H216 0.930 . S
C222 C223 1.355 . S
C222 C224 1.415 . S
C223 C222 1.355 . S
C223 C225 1.419 . S
C224 C222 1.415 . S
C224 C229 1.425 . S
C224 C231 1.409 . S
C225 H217 0.930 . S
C225 C223 1.419 . S
C225 C226 1.362 . S
C226 H218 0.930 . S
C226 C225 1.362 . S
C226 C229 1.409 . S
C227 H219 0.930 . S
C227 C228 1.355 . S
C227 C229 1.415 . S
C228 C227 1.355 . S
C228 C230 1.419 . S
C229 C224 1.425 . S
C229 C226 1.409 . S
C229 C227 1.415 . S
C230 H220 0.930 . S
C230 C228 1.419 . S
C230 C231 1.362 . S
C231 H221 0.930 . S
C231 C224 1.409 . S
C231 C230 1.362 . S
H232 C238 0.930 . S
H233 C241 0.930 . S
H234 C242 0.930 . S
H235 C243 0.930 . S
H236 C246 0.930 . S
H237 C247 0.930 . S
C238 H232 0.930 . S
C238 C239 1.355 1_455 S
C238 C240 1.415 . S
C239 C238 1.355 1_655 S
C239 C241 1.419 . S
C240 C238 1.415 . S
C240 C245 1.425 1_455 S
C240 C247 1.409 . S
C241 H233 0.930 . S
C241 C239 1.419 . S
C241 C242 1.362 . S
C242 H234 0.930 . S
C242 C241 1.362 . S
C242 C245 1.409 . S
C243 H235 0.930 . S
C243 C244 1.355 1_655 S
C243 C245 1.415 . S
C244 C243 1.355 1_455 S
C244 C246 1.419 . S
C245 C240 1.425 1_655 S
C245 C242 1.409 . S
C245 C243 1.415 . S
C246 H236 0.930 . S
C246 C244 1.419 . S
C246 C247 1.362 . S
C247 H237 0.930 . S
C247 C240 1.409 . S
C247 C246 1.362 . S
H248 C254 0.930 . S
H249 C257 0.930 . S
H250 C258 0.930 . S
H251 C259 0.930 . S
H252 C262 0.930 . S
H253 C263 0.930 . S
C254 H248 0.930 . S
C254 C255 1.355 . S
C254 C256 1.415 . S
C255 C254 1.355 . S
C255 C257 1.419 1_565 S
C256 C254 1.415 . S
C256 C261 1.425 1_564 S
C256 C263 1.409 1_554 S
C257 H249 0.930 . S
C257 C255 1.419 1_545 S
C257 C258 1.362 . S
C258 H250 0.930 . S
C258 C257 1.362 . S
C258 C261 1.409 1_554 S
C259 H251 0.930 . S
C259 C260 1.355 . S
C259 C261 1.415 . S
C260 C259 1.355 . S
C260 C262 1.419 1_545 S
C261 C256 1.425 1_546 S
C261 C258 1.409 1_556 S
C261 C259 1.415 . S
C262 H252 0.930 . S
C262 C260 1.419 1_565 S
C262 C263 1.362 . S
C263 H253 0.930 . S
C263 C256 1.409 1_556 S
C263 C262 1.362 . S
H264 C270 0.930 . S
H265 C273 0.930 . S
H266 C274 0.930 . S
H267 C275 0.930 . S
H268 C278 0.930 . S
H269 C279 0.930 . S
C270 H264 0.930 . S
C270 C271 1.355 . S
C270 C272 1.415 . S
C271 C270 1.355 . S
C271 C273 1.419 1_556 S
C272 C270 1.415 . S
C272 C277 1.425 1_556 S
C272 C279 1.409 . S
C273 H265 0.930 . S
C273 C271 1.419 1_554 S
C273 C274 1.362 . S
C274 H266 0.930 . S
C274 C273 1.362 . S
C274 C277 1.409 . S
C275 H267 0.930 . S
C275 C276 1.355 . S
C275 C277 1.415 . S
C276 C275 1.355 . S
C276 C278 1.419 1_554 S
C277 C272 1.425 1_554 S
C277 C274 1.409 . S
C277 C275 1.415 . S
C278 H268 0.930 . S
C278 C276 1.419 1_556 S
C278 C279 1.362 . S
C279 H269 0.930 . S
C279 C272 1.409 . S
C279 C278 1.362 . S
H280 C286 0.930 . S
H281 C289 0.930 . S
H282 C290 0.930 . S
H283 C291 0.930 . S
H284 C294 0.930 . S
H285 C295 0.930 . S
C286 H280 0.930 . S
C286 C287 1.355 . S
C286 C288 1.415 . S
C287 C286 1.355 . S
C287 C289 1.419 . S
C288 C286 1.415 . S
C288 C293 1.425 . S
C288 C295 1.409 . S
C289 H281 0.930 . S
C289 C287 1.419 . S
C289 C290 1.362 . S
C290 H282 0.930 . S
C290 C289 1.362 . S
C290 C293 1.409 . S
C291 H283 0.930 . S
C291 C292 1.355 . S
C291 C293 1.415 . S
C292 C291 1.355 . S
C292 C294 1.419 . S
C293 C288 1.425 . S
C293 C290 1.409 . S
C293 C291 1.415 . S
C294 H284 0.930 . S
C294 C292 1.419 . S
C294 C295 1.362 . S
C295 H285 0.930 . S
C295 C288 1.409 . S
C295 C294 1.362 . S
H296 C302 0.930 . S
H297 C305 0.930 . S
H298 C306 0.930 . S
H299 C307 0.930 . S
H300 C310 0.930 . S
H301 C311 0.930 . S
C302 H296 0.930 . S
C302 C303 1.355 . S
C302 C304 1.415 . S
C303 C302 1.355 . S
C303 C305 1.419 . S
C304 C302 1.415 . S
C304 C309 1.425 . S
C304 C311 1.409 . S
C305 H297 0.930 . S
C305 C303 1.419 . S
C305 C306 1.362 . S
C306 H298 0.930 . S
C306 C305 1.362 . S
C306 C309 1.409 . S
C307 H299 0.930 . S
C307 C308 1.355 . S
C307 C309 1.415 . S
C308 C307 1.355 . S
C308 C310 1.419 . S
C309 C304 1.425 . S
C309 C306 1.409 . S
C309 C307 1.415 . S
C310 H300 0.930 . S
C310 C308 1.419 . S
C310 C311 1.362 . S
C311 H301 0.930 . S
C311 C304 1.409 . S
C311 C310 1.362 . S
H312 C318 0.930 1_556 S
H313 C321 0.930 . S
H314 C322 0.930 . S
H315 C323 0.930 1_554 S
H316 C326 0.930 . S
H317 C327 0.930 . S
C318 H312 0.930 1_554 S
C318 C319 1.355 . S
C318 C320 1.415 1_554 S
C319 C318 1.355 . S
C319 C321 1.419 . S
C320 C318 1.415 1_556 S
C320 C325 1.425 1_556 S
C320 C327 1.409 . S
C321 H313 0.930 . S
C321 C319 1.419 . S
C321 C322 1.362 . S
C322 H314 0.930 . S
C322 C321 1.362 . S
C322 C325 1.409 . S
C323 H315 0.930 1_556 S
C323 C324 1.355 . S
C323 C325 1.415 1_556 S
C324 C323 1.355 . S
C324 C326 1.419 . S
C325 C320 1.425 1_554 S
C325 C322 1.409 . S
C325 C323 1.415 1_554 S
C326 H316 0.930 . S
C326 C324 1.419 . S
C326 C327 1.362 . S
C327 H317 0.930 . S
C327 C320 1.409 . S
C327 C326 1.362 . S
H328 C334 0.930 . S
H329 C337 0.930 . S
H330 C338 0.930 . S
H331 C339 0.930 . S
H332 C342 0.930 . S
H333 C343 0.930 . S
C334 H328 0.930 . S
C334 C335 1.355 . S
C334 C336 1.415 . S
C335 C334 1.355 . S
C335 C337 1.419 . S
C336 C334 1.415 . S
C336 C341 1.425 . S
C336 C343 1.409 . S
C337 H329 0.930 . S
C337 C335 1.419 . S
C337 C338 1.362 . S
C338 H330 0.930 . S
C338 C337 1.362 . S
C338 C341 1.409 . S
C339 H331 0.930 . S
C339 C340 1.355 . S
C339 C341 1.415 . S
C340 C339 1.355 . S
C340 C342 1.419 . S
C341 C336 1.425 . S
C341 C338 1.409 . S
C341 C339 1.415 . S
C342 H332 0.930 . S
C342 C340 1.419 . S
C342 C343 1.362 . S
C343 H333 0.930 . S
C343 C336 1.409 . S
C343 C342 1.362 . S
H344 C350 0.930 . S
H345 C353 0.930 . S
H346 C354 0.930 . S
H347 C355 0.930 . S
H348 C358 0.930 . S
H349 C359 0.930 . S
C350 H344 0.930 . S
C350 C351 1.355 . S
C350 C352 1.415 . S
C351 C350 1.355 . S
C351 C353 1.419 . S
C352 C350 1.415 . S
C352 C357 1.425 . S
C352 C359 1.409 . S
C353 H345 0.930 . S
C353 C351 1.419 . S
C353 C354 1.362 . S
C354 H346 0.930 . S
C354 C353 1.362 . S
C354 C357 1.409 . S
C355 H347 0.930 . S
C355 C356 1.355 . S
C355 C357 1.415 . S
C356 C355 1.355 . S
C356 C358 1.419 . S
C357 C352 1.425 . S
C357 C354 1.409 . S
C357 C355 1.415 . S
C358 H348 0.930 . S
C358 C356 1.419 . S
C358 C359 1.362 . S
C359 H349 0.930 . S
C359 C352 1.409 . S
C359 C358 1.362 . S
H360 C366 0.930 . S
H361 C369 0.930 . S
H362 C370 0.930 . S
H363 C371 0.930 . S
H364 C374 0.930 . S
H365 C375 0.930 . S
C366 H360 0.930 . S
C366 C367 1.355 . S
C366 C368 1.415 . S
C367 C366 1.355 . S
C367 C369 1.419 . S
C368 C366 1.415 . S
C368 C373 1.425 . S
C368 C375 1.409 . S
C369 H361 0.930 . S
C369 C367 1.419 . S
C369 C370 1.362 . S
C370 H362 0.930 . S
C370 C369 1.362 . S
C370 C373 1.409 . S
C371 H363 0.930 . S
C371 C372 1.355 . S
C371 C373 1.415 . S
C372 C371 1.355 . S
C372 C374 1.419 . S
C373 C368 1.425 . S
C373 C370 1.409 . S
C373 C371 1.415 . S
C374 H364 0.930 . S
C374 C372 1.419 . S
C374 C375 1.362 . S
C375 H365 0.930 . S
C375 C368 1.409 . S
C375 C374 1.362 . S
H376 C382 0.930 . S
H377 C385 0.930 . S
H378 C386 0.930 . S
H379 C387 0.930 . S
H380 C390 0.930 . S
H381 C391 0.930 . S
C382 H376 0.930 . S
C382 C383 1.355 1_655 S
C382 C384 1.415 . S
C383 C382 1.355 1_455 S
C383 C385 1.419 . S
C384 C382 1.415 . S
C384 C389 1.425 1_655 S
C384 C391 1.409 . S
C385 H377 0.930 . S
C385 C383 1.419 . S
C385 C386 1.362 . S
C386 H378 0.930 . S
C386 C385 1.362 . S
C386 C389 1.409 . S
C387 H379 0.930 . S
C387 C388 1.355 1_455 S
C387 C389 1.415 . S
C388 C387 1.355 1_655 S
C388 C390 1.419 . S
C389 C384 1.425 1_455 S
C389 C386 1.409 . S
C389 C387 1.415 . S
C390 H380 0.930 . S
C390 C388 1.419 . S
C390 C391 1.362 . S
C391 H381 0.930 . S
C391 C384 1.409 . S
C391 C390 1.362 . S
H392 C398 0.930 . S
H393 C401 0.930 . S
H394 C402 0.930 . S
H395 C403 0.930 . S
H396 C406 0.930 . S
H397 C407 0.930 . S
C398 H392 0.930 . S
C398 C399 1.355 1_545 S
C398 C400 1.415 . S
C399 C398 1.355 1_565 S
C399 C401 1.419 . S
C400 C398 1.415 . S
C400 C405 1.425 1_545 S
C400 C407 1.409 . S
C401 H393 0.930 . S
C401 C399 1.419 . S
C401 C402 1.362 . S
C402 H394 0.930 . S
C402 C401 1.362 . S
C402 C405 1.409 . S
C403 H395 0.930 . S
C403 C404 1.355 1_565 S
C403 C405 1.415 . S
C404 C403 1.355 1_545 S
C404 C406 1.419 . S
C405 C400 1.425 1_565 S
C405 C402 1.409 . S
C405 C403 1.415 . S
C406 H396 0.930 . S
C406 C404 1.419 . S
C406 C407 1.362 . S
C407 H397 0.930 . S
C407 C400 1.409 . S
C407 C406 1.362 . S
H408 C414 0.930 . S
H409 C417 0.930 . S
H410 C418 0.930 . S
H411 C419 0.930 . S
H412 C422 0.930 . S
H413 C423 0.930 . S
C414 H408 0.930 . S
C414 C415 1.355 . S
C414 C416 1.415 . S
C415 C414 1.355 . S
C415 C417 1.419 . S
C416 C414 1.415 . S
C416 C421 1.425 . S
C416 C423 1.409 . S
C417 H409 0.930 . S
C417 C415 1.419 . S
C417 C418 1.362 . S
C418 H410 0.930 . S
C418 C417 1.362 . S
C418 C421 1.409 . S
C419 H411 0.930 . S
C419 C420 1.355 . S
C419 C421 1.415 . S
C420 C419 1.355 . S
C420 C422 1.419 . S
C421 C416 1.425 . S
C421 C418 1.409 . S
C421 C419 1.415 . S
C422 H412 0.930 . S
C422 C420 1.419 . S
C422 C423 1.362 . S
C423 H413 0.930 . S
C423 C416 1.409 . S
C423 C422 1.362 . S
H424 C430 0.930 . S
H425 C433 0.930 . S
H426 C434 0.930 . S
H427 C435 0.930 . S
H428 C438 0.930 . S
H429 C439 0.930 . S
C430 H424 0.930 . S
C430 C431 1.355 1_655 S
C430 C432 1.415 . S
C431 C430 1.355 1_455 S
C431 C433 1.419 . S
C432 C430 1.415 . S
C432 C437 1.425 1_655 S
C432 C439 1.409 . S
C433 H425 0.930 . S
C433 C431 1.419 . S
C433 C434 1.362 . S
C434 H426 0.930 . S
C434 C433 1.362 . S
C434 C437 1.409 . S
C435 H427 0.930 . S
C435 C436 1.355 1_455 S
C435 C437 1.415 . S
C436 C435 1.355 1_655 S
C436 C438 1.419 . S
C437 C432 1.425 1_455 S
C437 C434 1.409 . S
C437 C435 1.415 . S
C438 H428 0.930 . S
C438 C436 1.419 . S
C438 C439 1.362 . S
C439 H429 0.930 . S
C439 C432 1.409 . S
C439 C438 1.362 . S
H440 C446 0.930 . S
H441 C449 0.930 . S
H442 C450 0.930 . S
H443 C451 0.930 . S
H444 C454 0.930 . S
H445 C455 0.930 . S
C446 H440 0.930 . S
C446 C447 1.355 1_545 S
C446 C448 1.415 . S
C447 C446 1.355 1_565 S
C447 C449 1.419 . S
C448 C446 1.415 . S
C448 C453 1.425 1_545 S
C448 C455 1.409 . S
C449 H441 0.930 . S
C449 C447 1.419 . S
C449 C450 1.362 . S
C450 H442 0.930 . S
C450 C449 1.362 . S
C450 C453 1.409 . S
C451 H443 0.930 . S
C451 C452 1.355 1_565 S
C451 C453 1.415 . S
C452 C451 1.355 1_545 S
C452 C454 1.419 . S
C453 C448 1.425 1_565 S
C453 C450 1.409 . S
C453 C451 1.415 . S
C454 H444 0.930 . S
C454 C452 1.419 . S
C454 C455 1.362 . S
C455 H445 0.930 . S
C455 C448 1.409 . S
C455 C454 1.362 . S
H456 C462 0.930 . S
H457 C465 0.930 1_556 S
H458 C466 0.916 1_556 S
H459 C467 0.920 1_556 S
H460 C470 0.930 . S
H461 C471 0.930 . S
C462 H456 0.930 . S
C462 C463 1.355 . S
C462 C464 1.415 . S
C463 C462 1.355 . S
C463 C465 1.419 . S
C464 C462 1.415 . S
C464 C469 1.425 . S
C464 C471 1.409 . S
C465 H457 0.930 1_554 S
C465 C463 1.419 . S
C465 C466 1.365 . S
C466 H458 0.916 1_554 S
C466 C465 1.365 . S
C466 C469 1.421 . S
C467 H459 0.920 1_554 S
C467 C468 1.355 . S
C467 C469 1.415 . S
C468 C467 1.355 . S
C468 C470 1.419 . S
C469 C464 1.425 . S
C469 C466 1.421 . S
C469 C467 1.415 . S
C470 H460 0.930 . S
C470 C468 1.419 . S
C470 C471 1.362 . S
C471 H461 0.930 . S
C471 C464 1.409 . S
C471 C470 1.362 . S
H472 C478 0.930 . S
H473 C481 0.930 . S
H474 C482 0.930 . S
H475 C483 0.930 . S
H476 C486 0.930 . S
H477 C487 0.930 . S
C478 H472 0.930 . S
C478 C479 1.355 . S
C478 C480 1.415 . S
C479 C478 1.355 . S
C479 C481 1.419 1_455 S
C480 C478 1.415 . S
C480 C485 1.425 1_455 S
C480 C487 1.409 . S
C481 H473 0.930 . S
C481 C479 1.419 1_655 S
C481 C482 1.362 . S
C482 H474 0.930 . S
C482 C481 1.362 . S
C482 C485 1.409 . S
C483 H475 0.930 . S
C483 C484 1.355 . S
C483 C485 1.415 . S
C484 C483 1.355 . S
C484 C486 1.419 1_655 S
C485 C480 1.425 1_655 S
C485 C482 1.409 . S
C485 C483 1.415 . S
C486 H476 0.930 . S
C486 C484 1.419 1_455 S
C486 C487 1.362 . S
C487 H477 0.930 . S
C487 C480 1.409 . S
C487 C486 1.362 . S
H488 C494 0.930 . S
H489 C497 0.930 . S
H490 C498 0.930 . S
H491 C499 0.930 . S
H492 C502 0.930 . S
H493 C503 0.930 . S
C494 H488 0.930 . S
C494 C495 1.355 1_545 S
C494 C496 1.415 . S
C495 C494 1.355 1_565 S
C495 C497 1.419 . S
C496 C494 1.415 . S
C496 C501 1.425 1_545 S
C496 C503 1.409 . S
C497 H489 0.930 . S
C497 C495 1.419 . S
C497 C498 1.362 . S
C498 H490 0.930 . S
C498 C497 1.362 . S
C498 C501 1.409 . S
C499 H491 0.930 . S
C499 C500 1.355 1_565 S
C499 C501 1.415 . S
C500 C499 1.355 1_545 S
C500 C502 1.419 . S
C501 C496 1.425 1_565 S
C501 C498 1.409 . S
C501 C499 1.415 . S
C502 H492 0.930 . S
C502 C500 1.419 . S
C502 C503 1.362 . S
C503 H493 0.930 . S
C503 C496 1.409 . S
C503 C502 1.362 . S
H504 C510 0.930 . S
H505 C513 0.930 . S
H506 C514 0.930 . S
H507 C515 0.930 . S
H508 C518 0.930 . S
H509 C519 0.930 . S
C510 H504 0.930 . S
C510 C511 1.355 . S
C510 C512 1.415 . S
C511 C510 1.355 . S
C511 C513 1.419 . S
C512 C510 1.415 . S
C512 C517 1.425 . S
C512 C519 1.409 . S
C513 H505 0.930 . S
C513 C511 1.419 . S
C513 C514 1.362 . S
C514 H506 0.930 . S
C514 C513 1.362 . S
C514 C517 1.409 . S
C515 H507 0.930 . S
C515 C516 1.355 . S
C515 C517 1.415 . S
C516 C515 1.355 . S
C516 C518 1.419 . S
C517 C512 1.425 . S
C517 C514 1.409 . S
C517 C515 1.415 . S
C518 H508 0.930 . S
C518 C516 1.419 . S
C518 C519 1.362 . S
C519 H509 0.930 . S
C519 C512 1.409 . S
C519 C518 1.362 . S
H520 C526 0.930 . S
H521 C529 0.930 . S
H522 C530 0.930 . S
H523 C531 0.930 . S
H524 C534 0.930 . S
H525 C535 0.930 . S
C526 H520 0.930 . S
C526 C527 1.355 1_455 S
C526 C528 1.415 . S
C527 C526 1.355 1_655 S
C527 C529 1.419 . S
C528 C526 1.415 . S
C528 C533 1.425 1_455 S
C528 C535 1.409 . S
C529 H521 0.930 . S
C529 C527 1.419 . S
C529 C530 1.362 . S
C530 H522 0.930 . S
C530 C529 1.362 . S
C530 C533 1.409 . S
C531 H523 0.930 . S
C531 C532 1.355 1_655 S
C531 C533 1.415 . S
C532 C531 1.355 1_455 S
C532 C534 1.419 . S
C533 C528 1.425 1_655 S
C533 C530 1.409 . S
C533 C531 1.415 . S
C534 H524 0.930 . S
C534 C532 1.419 . S
C534 C535 1.362 . S
C535 H525 0.930 . S
C535 C528 1.409 . S
C535 C534 1.362 . S
H536 C542 0.930 . S
H537 C545 0.930 . S
H538 C546 0.930 . S
H539 C547 0.930 . S
H540 C550 0.930 . S
H541 C551 0.930 . S
C542 H536 0.930 . S
C542 C543 1.355 1_565 S
C542 C544 1.415 . S
C543 C542 1.355 1_545 S
C543 C545 1.419 . S
C544 C542 1.415 . S
C544 C549 1.425 1_565 S
C544 C551 1.409 . S
C545 H537 0.930 . S
C545 C543 1.419 . S
C545 C546 1.362 . S
C546 H538 0.930 . S
C546 C545 1.362 . S
C546 C549 1.409 . S
C547 H539 0.930 . S
C547 C548 1.355 1_545 S
C547 C549 1.415 . S
C548 C547 1.355 1_565 S
C548 C550 1.419 . S
C549 C544 1.425 1_545 S
C549 C546 1.409 . S
C549 C547 1.415 . S
C550 H540 0.930 . S
C550 C548 1.419 . S
C550 C551 1.362 . S
C551 H541 0.930 . S
C551 C544 1.409 . S
C551 C550 1.362 . S
C175 C3 1.474 . S
C180 C129 1.497 . S
C191 C17 1.524 . S
C196 C143 1.491 . S
C207 C31 1.509 . S
C212 C157 1.526 . S
C223 C45 1.474 . S
C228 C87 1.501 . S
C239 C101 1.477 . S
C244 C59 1.488 . S
C255 C115 1.525 . S
C260 C73 1.513 . S
C271 C148 1.568 . S
C276 C8 1.564 . S
C287 C22 1.583 . S
C292 C162 1.593 . S
C303 C36 1.577 . S
C308 C92 1.590 . S
C319 C50 1.594 . S
C324 C106 1.586 . S
C335 C64 1.582 . S
C340 C120 1.569 . S
C351 C78 1.574 . S
C356 C134 1.565 . S
C367 C133 0.871 . S
C372 C7 0.865 . S
C383 C21 0.915 1_455 S
C388 C147 0.843 1_655 S
C399 C35 0.863 . S
C404 C161 0.872 . S
C415 C91 0.888 . S
C420 C49 0.850 . S
C431 C63 0.884 . S
C436 C105 0.853 . S
C447 C119 0.867 . S
C452 C77 0.869 . S
C463 C9 1.509 . S
C468 C51 1.506 . S
C479 C65 1.489 . S
C484 C23 1.491 . S
C495 C37 1.526 . S
C500 C79 1.526 . S
C511 C93 1.525 . S
C516 C135 1.524 . S
C527 C107 1.521 . S
C532 C149 1.523 . S
C543 C163 1.507 . S
C548 C121 1.511 . S
