# Generated by pormake.
# Topology umo, (4)-cn, num edge types: 1
# Building blocks:
#     Node 0, Type 0, BuildingBlock: MUDLON_clean_sbu_0, # of connection points: 4
#     Node 1, Type 0, BuildingBlock: MUDLON_clean_sbu_0, # of connection points: 4
#     Node 2, Type 0, BuildingBlock: MUDLON_clean_sbu_0, # of connection points: 4
#     Node 3, Type 0, BuildingBlock: MUDLON_clean_sbu_0, # of connection points: 4
#     Node 4, Type 0, BuildingBlock: MUDLON_clean_sbu_0, # of connection points: 4
#     Node 5, Type 0, BuildingBlock: MUDLON_clean_sbu_0, # of connection points: 4
#     Node 6, Type 0, BuildingBlock: MUDLON_clean_sbu_0, # of connection points: 4
#     Node 7, Type 0, BuildingBlock: MUDLON_clean_sbu_0, # of connection points: 4
#     Node 8, Type 0, BuildingBlock: MUDLON_clean_sbu_0, # of connection points: 4
#     Node 9, Type 0, BuildingBlock: MUDLON_clean_sbu_0, # of connection points: 4
#     Node 10, Type 0, BuildingBlock: MUDLON_clean_sbu_0, # of connection points: 4
#     Node 11, Type 0, BuildingBlock: MUDLON_clean_sbu_0, # of connection points: 4
#     Edge 12, Type (0, 0), BuildingBlock: AJUNOK_clean_linker_0, # of connection points: 2
#     Edge 13, Type (0, 0), BuildingBlock: AJUNOK_clean_linker_0, # of connection points: 2
#     Edge 14, Type (0, 0), BuildingBlock: AJUNOK_clean_linker_0, # of connection points: 2
#     Edge 15, Type (0, 0), BuildingBlock: AJUNOK_clean_linker_0, # of connection points: 2
#     Edge 16, Type (0, 0), BuildingBlock: AJUNOK_clean_linker_0, # of connection points: 2
#     Edge 17, Type (0, 0), BuildingBlock: AJUNOK_clean_linker_0, # of connection points: 2
#     Edge 18, Type (0, 0), BuildingBlock: AJUNOK_clean_linker_0, # of connection points: 2
#     Edge 19, Type (0, 0), BuildingBlock: AJUNOK_clean_linker_0, # of connection points: 2
#     Edge 20, Type (0, 0), BuildingBlock: AJUNOK_clean_linker_0, # of connection points: 2
#     Edge 21, Type (0, 0), BuildingBlock: AJUNOK_clean_linker_0, # of connection points: 2
#     Edge 22, Type (0, 0), BuildingBlock: AJUNOK_clean_linker_0, # of connection points: 2
#     Edge 23, Type (0, 0), BuildingBlock: AJUNOK_clean_linker_0, # of connection points: 2
#     Edge 24, Type (0, 0), BuildingBlock: AJUNOK_clean_linker_0, # of connection points: 2
#     Edge 25, Type (0, 0), BuildingBlock: AJUNOK_clean_linker_0, # of connection points: 2
#     Edge 26, Type (0, 0), BuildingBlock: AJUNOK_clean_linker_0, # of connection points: 2
#     Edge 27, Type (0, 0), BuildingBlock: AJUNOK_clean_linker_0, # of connection points: 2
#     Edge 28, Type (0, 0), BuildingBlock: AJUNOK_clean_linker_0, # of connection points: 2
#     Edge 29, Type (0, 0), BuildingBlock: AJUNOK_clean_linker_0, # of connection points: 2
#     Edge 30, Type (0, 0), BuildingBlock: AJUNOK_clean_linker_0, # of connection points: 2
#     Edge 31, Type (0, 0), BuildingBlock: AJUNOK_clean_linker_0, # of connection points: 2
#     Edge 32, Type (0, 0), BuildingBlock: AJUNOK_clean_linker_0, # of connection points: 2
#     Edge 33, Type (0, 0), BuildingBlock: AJUNOK_clean_linker_0, # of connection points: 2
#     Edge 34, Type (0, 0), BuildingBlock: AJUNOK_clean_linker_0, # of connection points: 2
#     Edge 35, Type (0, 0), BuildingBlock: AJUNOK_clean_linker_0, # of connection points: 2
# Relax obj value: 0.142
# Max RMSD: 0.180
# Mean RMSD: 0.180
data_MOF--net-umo--node1-MUDLON_clean_sbu_0--edge1-AJUNOK_clean_linker_0
_symmetry_space_group_name_H-M    P1
_symmetry_Int_Tables_number       1
_symmetry_cell_setting            triclinic
loop_
_symmetry_equiv_pos_as_xyz
'x, y, z'
_cell_length_a     38.424516
_cell_length_b     38.356879
_cell_length_c     28.480632
_cell_angle_alpha  90.170025
_cell_angle_beta   89.973032
_cell_angle_gamma 119.84574
loop_
_atom_site_label
_atom_site_type_symbol
_atom_site_fract_x
_atom_site_fract_y
_atom_site_fract_z
_atom_type_partial_charge
Mg0 Mg 0.14455 0.52191 0.42982 0.0
C1 C 0.11713 0.52905 0.52326 0.0
O2 O 0.10679 0.5497 0.49558 0.0
C3 C 0.18637 0.5101 0.34971 0.0
O4 O 0.16287 0.52177 0.33024 0.0
C5 C 0.06585 0.51078 0.38973 0.0
O6 O 0.08046 0.54839 0.40272 0.0
O7 O 0.08697 0.49403 0.39505 0.0
O8 O 0.13303 0.50998 0.50482 0.0
O9 O 0.17759 0.58685 0.42633 0.0
C10 C 0.20098 0.60323 0.46111 0.0
O11 O 0.20234 0.58026 0.49428 0.0
O12 O 0.18412 0.50472 0.394 0.0
Mg13 Mg 0.60968 0.15185 0.58846 0.0
C14 C 0.56891 0.13032 0.67944 0.0
O15 O 0.54086 0.1238 0.64861 0.0
C16 C 0.66752 0.18647 0.51001 0.0
O17 O 0.63305 0.16321 0.48907 0.0
C18 C 0.56328 0.06257 0.57497 0.0
O19 O 0.57322 0.06431 0.61937 0.0
O20 O 0.57446 0.09506 0.55265 0.0
O21 O 0.60416 0.14124 0.6644 0.0
O22 O 0.58421 0.19035 0.57917 0.0
C23 C 0.59337 0.21608 0.61187 0.0
O24 O 0.61622 0.21666 0.64648 0.0
O25 O 0.66849 0.18636 0.55478 0.0
Mg26 Mg 0.44069 0.61273 0.75981 0.0
C27 C 0.42609 0.57756 0.85334 0.0
O28 O 0.40309 0.54772 0.82511 0.0
C29 C 0.46412 0.66771 0.6783 0.0
O30 O 0.45565 0.63309 0.6594 0.0
C31 C 0.48123 0.56348 0.74553 0.0
O32 O 0.48741 0.57 0.79084 0.0
O33 O 0.4617 0.5771 0.72379 0.0
O34 O 0.45014 0.61168 0.83536 0.0
O35 O 0.37628 0.58564 0.75557 0.0
C36 C 0.36145 0.59604 0.78904 0.0
O37 O 0.38565 0.62242 0.81998 0.0
O38 O 0.46283 0.66987 0.72291 0.0
Mg39 Mg 0.8097 0.44875 0.92686 0.0
C40 C 0.83149 0.43393 1.0204 0.0
O41 O 0.83841 0.41106 0.99189 0.0
C42 C 0.77733 0.47102 0.84509 0.0
O43 O 0.80146 0.45985 0.82618 0.0
C44 C 0.89897 0.49049 0.91449 0.0
O45 O 0.8975 0.49915 0.95882 0.0
O46 O 0.86649 0.46922 0.89215 0.0
O47 O 0.81994 0.45702 1.00269 0.0
O48 O 0.7721 0.38453 0.92067 0.0
C49 C 0.74683 0.36912 0.95381 0.0
O50 O 0.74525 0.39275 0.98615 0.0
O51 O 0.77574 0.47215 0.88977 0.0
Mg52 Mg 0.35297 0.81618 0.0906 0.0
C53 C 0.38279 0.84516 0.18759 0.0
O54 O 0.41102 0.87374 0.16215 0.0
C55 C 0.29591 0.78078 1.01093 0.0
O56 O 0.32945 0.80683 0.99023 0.0
C57 C 0.41475 0.89995 0.05551 0.0
O58 O 0.44054 0.88738 0.06217 0.0
O59 O 0.37789 0.87641 0.06402 0.0
O60 O 0.35176 0.81749 0.16721 0.0
O61 O 0.38679 0.78648 0.07397 0.0
C62 C 0.41409 0.78794 0.10054 0.0
O63 O 0.42914 0.81538 0.13359 0.0
O64 O 0.29553 0.77872 0.0556 0.0
Mg65 Mg 0.51453 0.35498 0.25353 0.0
C66 C 0.53561 0.395 0.34447 0.0
O67 O 0.55801 0.42246 0.31359 0.0
C68 C 0.49071 0.2977 0.17383 0.0
O69 O 0.50248 0.33251 0.15347 0.0
C70 C 0.47643 0.40613 0.24189 0.0
O71 O 0.46891 0.3968 0.28647 0.0
O72 O 0.49553 0.39275 0.21856 0.0
O73 O 0.50935 0.3603 0.32954 0.0
O74 O 0.57827 0.37827 0.24717 0.0
C75 C 0.59155 0.36556 0.27986 0.0
O76 O 0.5662 0.33945 0.31004 0.0
O77 O 0.48937 0.29637 0.21858 0.0
Mg78 Mg 0.42841 0.81622 0.47923 0.0
C79 C 0.40809 0.83378 0.3868 0.0
O80 O 0.38412 0.83813 0.41616 0.0
C81 C 0.45541 0.78601 0.5586 0.0
O82 O 0.44352 0.80915 0.57878 0.0
C83 C 0.47701 0.90487 0.48777 0.0
O84 O 0.48719 0.89894 0.44575 0.0
O85 O 0.45166 0.87476 0.51129 0.0
O86 O 0.4336 0.82492 0.4032 0.0
O87 O 0.36463 0.77751 0.4892 0.0
C88 C 0.34904 0.75059 0.45757 0.0
O89 O 0.37222 0.74906 0.42469 0.0
O90 O 0.45493 0.78416 0.51388 0.0
Mg91 Mg 0.60101 0.44018 0.63826 0.0
C92 C 0.56466 0.42691 0.54518 0.0
O93 O 0.53478 0.40558 0.57396 0.0
C94 C 0.6553 0.46812 0.72105 0.0
O95 O 0.62003 0.45795 0.73905 0.0
C96 C 0.5601 0.48741 0.65143 0.0
O97 O 0.58018 0.50276 0.61246 0.0
O98 O 0.56269 0.45918 0.6713 0.0
O99 O 0.59948 0.44907 0.56272 0.0
O100 O 0.57754 0.37616 0.64251 0.0
C101 C 0.58856 0.36235 0.60852 0.0
O102 O 0.61265 0.38727 0.57656 0.0
O103 O 0.65799 0.46614 0.67658 0.0
Mg104 Mg 0.14278 0.598 0.81517 0.0
C105 C 0.12064 0.55755 0.72461 0.0
O106 O 0.1142 0.52947 0.75532 0.0
C107 C 0.17249 0.65531 0.8941 0.0
O108 O 0.14855 0.62048 0.9138 0.0
C109 C 0.05561 0.56136 0.8268 0.0
O110 O 0.06193 0.58045 0.78675 0.0
O111 O 0.08525 0.56294 0.84848 0.0
O112 O 0.1319 0.59296 0.73961 0.0
O113 O 0.18269 0.57402 0.82368 0.0
C114 C 0.20811 0.58474 0.79054 0.0
O115 O 0.20703 0.60755 0.75695 0.0
O116 O 0.17509 0.6567 0.84944 0.0
Mg117 Mg 0.52575 0.1493 0.97445 0.0
C118 C 0.53926 0.12635 0.88097 0.0
O119 O 0.56149 0.11857 0.90936 0.0
C120 C 0.4959 0.17574 0.05631 0.0
O121 O 0.50732 0.15206 0.07582 0.0
C122 C 0.47186 0.06532 0.99873 0.0
O123 O 0.44859 0.07556 0.97596 0.0
O124 O 0.50832 0.09175 1.00527 0.0
O125 O 0.51699 0.13884 0.89885 0.0
O126 O 0.58916 0.19064 0.98151 0.0
C127 C 0.60449 0.21541 0.94789 0.0
O128 O 0.5816 0.21318 0.91248 0.0
O129 O 0.49766 0.17904 1.0117 0.0
Mg130 Mg 0.37414 0.55099 0.15179 0.0
C131 C 0.40596 0.56126 0.05638 0.0
O132 O 0.43743 0.58323 0.08293 0.0
C133 C 0.31729 0.52267 0.23341 0.0
O134 O 0.35079 0.52876 0.25309 0.0
C135 C 0.40915 0.49778 0.15945 0.0
O136 O 0.38919 0.48559 0.11979 0.0
O137 O 0.40866 0.52614 0.18213 0.0
O138 O 0.37195 0.54064 0.07621 0.0
O139 O 0.40346 0.61598 0.15462 0.0
C140 C 0.38915 0.62892 0.12332 0.0
O141 O 0.35895 0.60266 0.09771 0.0
O142 O 0.31717 0.5281 0.18927 0.0
Mg143 Mg 0.81461 0.37024 0.31323 0.0
C144 C 0.8347 0.40865 0.22201 0.0
O145 O 0.84055 0.43682 0.25252 0.0
C146 C 0.78927 0.3139 0.39436 0.0
O147 O 0.81176 0.34912 0.41423 0.0
C148 C 0.90079 0.40738 0.32969 0.0
O149 O 0.89299 0.37754 0.30086 0.0
O150 O 0.87191 0.41191 0.34375 0.0
O151 O 0.82506 0.37382 0.23752 0.0
O152 O 0.77082 0.3896 0.31975 0.0
C153 C 0.74534 0.37669 0.2865 0.0
O154 O 0.7481 0.3541 0.25365 0.0
O155 O 0.78657 0.31231 0.34967 0.0
C156 C 0.2507 0.66356 0.41756 0.0
C157 C 0.23228 0.6458 0.46027 0.0
C158 C 0.28753 0.69938 0.41702 0.0
C159 C 0.30665 0.71884 0.45908 0.0
H160 H 0.23839 0.64812 0.3846 0.0
H161 H 0.30215 0.71076 0.38352 0.0
S162 S 0.26664 0.68815 0.57951 0.0
N163 N 0.23274 0.65276 0.54519 0.0
N164 N 0.30183 0.72065 0.54409 0.0
C165 C 0.28649 0.70354 0.50169 0.0
C166 C 0.24926 0.66676 0.50229 0.0
C167 C 0.57971 0.26569 0.65134 0.0
C168 C 0.58287 0.248 0.6094 0.0
C169 C 0.57804 0.30127 0.65073 0.0
C170 C 0.58025 0.32059 0.60816 0.0
H171 H 0.58043 0.25296 0.68501 0.0
H172 H 0.57795 0.31514 0.6839 0.0
S173 S 0.58291 0.28353 0.48849 0.0
N174 N 0.58337 0.24981 0.52404 0.0
N175 N 0.58087 0.31721 0.52286 0.0
C176 C 0.58028 0.30161 0.56585 0.0
C177 C 0.58138 0.26505 0.56646 0.0
C178 C 0.26007 0.57621 0.74918 0.0
C179 C 0.24194 0.57708 0.79178 0.0
C180 C 0.29768 0.57886 0.74855 0.0
C181 C 0.31855 0.58319 0.79053 0.0
H182 H 0.24606 0.57569 0.71596 0.0
H183 H 0.3117 0.58058 0.71496 0.0
S184 S 0.28131 0.58023 0.91143 0.0
N185 N 0.24519 0.57699 0.87706 0.0
N186 N 0.31643 0.58268 0.87588 0.0
C187 C 0.29932 0.58062 0.83344 0.0
C188 C 0.26073 0.57728 0.83409 0.0
C189 C 0.70016 0.30694 0.91033 0.0
C190 C 0.71605 0.32641 0.95328 0.0
C191 C 0.66516 0.26941 0.9091 0.0
C192 C 0.64544 0.24996 0.95076 0.0
H193 H 0.71316 0.3219 0.87744 0.0
H194 H 0.65243 0.25643 0.87521 0.0
S195 S 0.67933 0.28571 0.07229 0.0
N196 N 0.71271 0.32175 0.03845 0.0
N197 N 0.64712 0.25075 0.03619 0.0
C198 C 0.66315 0.26752 0.99399 0.0
C199 C 0.69845 0.306 0.99521 0.0
C200 C 0.40285 0.72345 0.06653 0.0
C201 C 0.41869 0.7519 0.10304 0.0
C202 C 0.39576 0.68437 0.07275 0.0
C203 C 0.40442 0.67219 0.11562 0.0
H204 H 0.39343 0.7306 1.03382 0.0
H205 H 0.3816 0.66303 0.04433 0.0
S206 S 0.45294 0.73697 0.21943 0.0
N207 N 0.44803 0.76673 0.18152 0.0
N208 N 0.43467 0.69293 0.19296 0.0
C209 C 0.42394 0.70125 0.15082 0.0
C210 C 0.43116 0.74127 0.14454 0.0
C211 C 0.69286 0.38286 0.24299 0.0
C212 C 0.71046 0.38271 0.28625 0.0
C213 C 0.65534 0.3804 0.2411 0.0
C214 C 0.634 0.37685 0.28244 0.0
H215 H 0.70743 0.38315 0.21027 0.0
H216 H 0.64187 0.37855 0.2071 0.0
S217 S 0.66913 0.38041 0.40456 0.0
N218 N 0.70577 0.38331 0.37139 0.0
N219 N 0.63466 0.3778 0.36784 0.0
C220 C 0.6524 0.37944 0.32596 0.0
C221 C 0.69092 0.38268 0.3279 0.0
C222 C 0.11226 0.57265 0.64137 0.0
C223 C 0.1183 0.54861 0.67368 0.0
C224 C 0.11085 0.56523 0.59301 0.0
C225 C 0.11607 0.53386 0.57489 0.0
H226 H 0.10855 0.5974 0.6535 0.0
H227 H 0.10645 0.58494 0.56965 0.0
S228 S 0.13342 0.46249 0.64481 0.0
N229 N 0.12963 0.49203 0.68428 0.0
N230 N 0.12749 0.47854 0.59333 0.0
C231 C 0.12207 0.50952 0.60684 0.0
C232 C 0.12302 0.51676 0.65621 0.0
C233 C 0.58516 0.12426 0.76327 0.0
C234 C 0.5599 0.12793 0.73048 0.0
C235 C 0.57754 0.12278 0.81163 0.0
C236 C 0.54466 0.1255 0.82933 0.0
H237 H 0.61106 0.12247 0.75155 0.0
H238 H 0.5982 0.12023 0.83533 0.0
S239 S 0.46944 0.1358 0.7582 0.0
N240 N 0.5004 0.13422 0.71916 0.0
N241 N 0.48651 0.13187 0.80993 0.0
C242 C 0.51906 0.12906 0.79691 0.0
C243 C 0.52656 0.13015 0.74759 0.0
C244 C 0.44702 0.59246 0.9843 0.0
C245 C 0.41033 0.56362 1.00447 0.0
C246 C 0.45196 0.59687 0.93548 0.0
C247 C 0.42063 0.57222 0.90483 0.0
H248 H 0.47217 0.61231 1.00633 0.0
H249 H 0.48062 0.61963 0.92168 0.0
S250 S 0.3182 0.49273 0.93924 0.0
N251 N 0.34185 0.51052 0.98957 0.0
N252 N 0.35121 0.51841 0.89795 0.0
C253 C 0.3838 0.54314 0.92438 0.0
C254 C 0.37862 0.53895 0.97412 0.0
C255 C 0.83877 0.39118 0.13803 0.0
C256 C 0.83524 0.4166 0.1709 0.0
C257 C 0.83831 0.39764 0.08963 0.0
C258 C 0.83376 0.4295 0.072 0.0
H259 H 0.84196 0.36605 0.14972 0.0
H260 H 0.84092 0.37695 0.0659 0.0
S261 S 0.82247 0.50432 0.14337 0.0
N262 N 0.82671 0.4749 0.18236 0.0
N263 N 0.8255 0.48667 0.09154 0.0
C264 C 0.83018 0.45517 0.10449 0.0
C265 C 0.83103 0.44883 0.15383 0.0
C266 C 0.358 0.82838 0.27015 0.0
C267 C 0.38985 0.8423 0.23809 0.0
C268 C 0.36439 0.82592 0.31821 0.0
C269 C 0.40263 0.83618 0.33574 0.0
H270 H 0.32807 0.81999 0.25814 0.0
H271 H 0.33901 0.81547 0.34177 0.0
S272 S 0.49547 0.87182 0.26571 0.0
N273 N 0.46085 0.86538 0.22685 0.0
N274 N 0.47244 0.85942 0.317 0.0
C275 C 0.43451 0.84909 0.30386 0.0
C276 C 0.42823 0.85255 0.25508 0.0
C277 C 0.51282 0.38348 0.4283 0.0
C278 C 0.54342 0.40399 0.39528 0.0
C279 C 0.51988 0.39193 0.47645 0.0
C280 C 0.55799 0.42084 0.49363 0.0
H281 H 0.4831 0.36094 0.41687 0.0
H282 H 0.49519 0.37517 0.50038 0.0
S283 S 0.64893 0.48136 0.42145 0.0
N284 N 0.61368 0.45373 0.38299 0.0
N285 N 0.62698 0.46921 0.47333 0.0
C286 C 0.58895 0.44133 0.46088 0.0
C287 C 0.58166 0.433 0.4118 0.0
C288 C 0.97203 0.42404 0.3372 0.0
C289 C 0.94261 0.43506 0.34469 0.0
C290 C 0.01183 0.44913 0.35106 0.0
C291 C 0.02404 0.48652 0.37261 0.0
H292 H 0.96426 0.39548 0.32101 0.0
H293 H 0.03314 0.43889 0.34502 0.0
S294 S 0.95899 0.53033 0.39858 0.0
N295 N 0.92856 0.48646 0.37399 0.0
N296 N 0.00358 0.53384 0.39987 0.0
C297 C -0.00487 0.49839 0.37952 0.0
C298 C 0.95437 0.47258 0.36571 0.0
C299 C 0.49762 0.95018 0.55774 0.0
C300 C 0.49711 0.94559 0.50871 0.0
C301 C 0.51884 -0.01181 0.57871 0.0
C302 C 0.53991 0.02312 0.55145 0.0
H303 H 0.48234 0.92415 0.58029 0.0
H304 H 0.51881 -0.0099 0.61667 0.0
S305 S 0.54625 0.02764 0.42134 0.0
N306 N 0.51833 0.97933 0.43323 0.0
N307 N 0.55791 0.05082 0.47266 0.0
C308 C 0.53876 0.0191 0.50228 0.0
C309 C 0.51748 0.98032 0.48092 0.0
C310 C 0.50976 0.51763 0.74464 0.0
C311 C 0.49875 0.54235 0.71992 0.0
C312 C 0.52846 0.49896 0.72187 0.0
C313 C 0.53742 0.50482 0.67367 0.0
H314 H 0.50415 0.51283 0.78199 0.0
H315 H 0.53693 0.48069 0.74257 0.0
S316 S 0.51357 0.56571 0.59261 0.0
N317 N 0.49699 0.57073 0.64422 0.0
N318 N 0.53254 0.53598 0.60151 0.0
C319 C 0.52589 0.52886 0.6483 0.0
C320 C 0.50641 0.54751 0.6714 0.0
C321 C 0.01069 0.53462 0.89652 0.0
C322 C 0.01513 0.54089 0.84776 0.0
C323 C 0.9729 0.51797 0.9177 0.0
C324 C 0.93812 0.50636 0.89081 0.0
H325 H 0.03669 0.54361 0.91874 0.0
H326 H 0.971 0.5143 0.95548 0.0
S327 S 0.9333 0.51463 0.76144 0.0
N328 N -0.01857 0.53303 0.77289 0.0
N329 N 0.91032 0.50125 0.81268 0.0
C330 C 0.94198 0.51143 0.84185 0.0
C331 C 0.98052 0.52887 0.82034 0.0
C332 C 0.48348 0.01011 1.02649 0.0
C333 C 0.4565 0.0233 1.01394 0.0
C334 C 0.46977 0.97012 0.03935 0.0
C335 C 0.42852 0.94181 0.04055 0.0
H336 H 0.51554 0.0307 1.02589 0.0
H337 H 0.49175 0.96148 0.04869 0.0
S338 S 0.34536 0.9613 1.01177 0.0
N339 N 0.38653 0.00499 1.00417 0.0
N340 N 0.36071 0.92998 1.0283 0.0
C341 C 0.40118 0.95469 1.02834 0.0
C342 C 0.41517 -0.00464 1.01506 0.0
C343 C 0.43576 0.47744 0.22761 0.0
C344 C 0.42912 0.47659 0.17899 0.0
C345 C 0.45154 0.4549 0.24746 0.0
C346 C 0.46186 0.43116 0.21937 0.0
H347 H 0.42764 0.49471 0.25076 0.0
H348 H 0.45541 0.45593 0.28521 0.0
S349 S 0.45275 0.42072 0.0897 0.0
N350 N 0.43568 0.45144 0.10288 0.0
N351 N 0.4658 0.40943 0.14016 0.0
C352 C 0.45662 0.43109 0.17051 0.0
C353 C 0.44009 0.45367 0.15034 0.0
C354 C 0.21837 0.51403 0.27169 0.0
C355 C 0.21762 0.50807 0.32061 0.0
C356 C 0.24975 0.51704 0.24357 0.0
C357 C 0.28197 0.51438 0.26308 0.0
H358 H 0.19501 0.51752 0.25486 0.0
H359 H 0.24931 0.52286 0.20646 0.0
S360 S 0.29261 0.49477 0.38858 0.0
N361 N 0.25061 0.4966 0.38676 0.0
N362 N 0.30952 0.50219 0.33413 0.0
C363 C 0.28071 0.50652 0.31162 0.0
C364 C 0.24861 0.50335 0.34029 0.0
C365 C 0.72857 0.24544 0.4039 0.0
C366 C 0.76236 0.27854 0.42394 0.0
C367 C 0.69922 0.21493 0.432 0.0
C368 C 0.70235 0.21598 0.48142 0.0
H369 H 0.72368 0.24391 0.36633 0.0
H370 H 0.67308 0.19104 0.41469 0.0
S371 S 0.78786 0.29318 0.55103 0.0
N372 N 0.79935 0.30833 0.49615 0.0
N373 N 0.74425 0.25109 0.54875 0.0
C374 C 0.73728 0.24754 0.50173 0.0
C375 C 0.76718 0.27874 0.47308 0.0
C376 C 0.46397 0.73252 0.66662 0.0
C377 C 0.46848 0.7011 0.64765 0.0
C378 C 0.46165 0.76078 0.63755 0.0
C379 C 0.46382 0.75901 0.58821 0.0
H380 H 0.46043 0.73436 0.70412 0.0
H381 H 0.45667 0.78341 0.65407 0.0
S382 S 0.48124 0.68593 0.52118 0.0
N383 N 0.47926 0.67238 0.57651 0.0
N384 N 0.47478 0.72538 0.52208 0.0
C385 C 0.47084 0.72924 0.56894 0.0
C386 C 0.47316 0.70037 0.59857 0.0
C387 C 0.7515 0.47384 0.76509 0.0
C388 C 0.74905 0.4766 0.81428 0.0
C389 C 0.7223 0.47331 0.73499 0.0
C390 C 0.68921 0.47538 0.75271 0.0
H391 H 0.7755 0.47065 0.74952 0.0
H392 H 0.72487 0.46948 0.69769 0.0
S393 S 0.67123 0.48827 0.87823 0.0
N394 N 0.71265 0.48533 0.87887 0.0
N395 N 0.6579 0.48444 0.82253 0.0
C396 C 0.68761 0.48058 0.80161 0.0
C397 C 0.71745 0.48119 0.83229 0.0
C398 C 0.26472 0.75234 0.93253 0.0
C399 C 0.2613 0.75145 0.98189 0.0
C400 C 0.23492 0.72237 0.90415 0.0
C401 C 0.20037 0.6901 0.92389 0.0
H402 H 0.29134 0.77566 0.91548 0.0
H403 H 0.23991 0.72366 0.86661 0.0
S404 S 0.17404 0.67642 0.05069 0.0
N405 N 0.21849 0.7175 0.04883 0.0
N406 N 0.16252 0.66132 0.9957 0.0
C407 C 0.1954 0.69008 0.97297 0.0
C408 C 0.22578 0.72066 1.0019 0.0
C409 C 0.48765 0.26634 0.09535 0.0
C410 C 0.48527 0.26287 0.14472 0.0
C411 C 0.48877 0.23699 0.06682 0.0
C412 C 0.48774 0.20284 0.08636 0.0
H413 H 0.49014 0.29275 0.07843 0.0
H414 H 0.49233 0.24212 1.02932 0.0
S415 S 0.47611 0.17643 0.2131 0.0
N416 N 0.4779 0.22031 0.21144 0.0
N417 N 0.47996 0.1652 0.15804 0.0
C418 C 0.48285 0.1977 0.13543 0.0
C419 C 0.48159 0.22761 0.16452 0.0
loop_
_geom_bond_atom_site_label_1
_geom_bond_atom_site_label_2
_geom_bond_distance
_geom_bond_site_symmetry_2
_ccdc_geom_bond_type
Mg0 O7 2.141 . S
Mg0 O8 2.048 . S
Mg0 O9 2.048 . S
Mg0 O12 2.141 . S
C1 O2 1.313 . S
C1 O8 1.195 . S
O2 C1 1.313 . S
C3 O4 1.245 . S
C3 O12 1.289 . S
O4 C3 1.245 . S
C5 O6 1.245 . S
C5 O7 1.289 . S
O6 C5 1.245 . S
O7 Mg0 2.141 . S
O7 C5 1.289 . S
O8 Mg0 2.048 . S
O8 C1 1.195 . S
O9 Mg0 2.048 . S
O9 C10 1.195 . S
C10 O9 1.195 . S
C10 O11 1.313 . S
O11 C10 1.313 . S
O12 Mg0 2.141 . S
O12 C3 1.289 . S
Mg13 O20 2.141 . S
Mg13 O21 2.048 . S
Mg13 O22 2.048 . S
Mg13 O25 2.141 . S
C14 O15 1.313 . S
C14 O21 1.195 . S
O15 C14 1.313 . S
C16 O17 1.245 . S
C16 O25 1.289 . S
O17 C16 1.245 . S
C18 O19 1.245 . S
C18 O20 1.289 . S
O19 C18 1.245 . S
O20 Mg13 2.141 . S
O20 C18 1.289 . S
O21 Mg13 2.048 . S
O21 C14 1.195 . S
O22 Mg13 2.048 . S
O22 C23 1.195 . S
C23 O22 1.195 . S
C23 O24 1.313 . S
O24 C23 1.313 . S
O25 Mg13 2.141 . S
O25 C16 1.289 . S
Mg26 O33 2.141 . S
Mg26 O34 2.048 . S
Mg26 O35 2.048 . S
Mg26 O38 2.141 . S
C27 O28 1.313 . S
C27 O34 1.195 . S
O28 C27 1.313 . S
C29 O30 1.245 . S
C29 O38 1.289 . S
O30 C29 1.245 . S
C31 O32 1.245 . S
C31 O33 1.289 . S
O32 C31 1.245 . S
O33 Mg26 2.141 . S
O33 C31 1.289 . S
O34 Mg26 2.048 . S
O34 C27 1.195 . S
O35 Mg26 2.048 . S
O35 C36 1.195 . S
C36 O35 1.195 . S
C36 O37 1.313 . S
O37 C36 1.313 . S
O38 Mg26 2.141 . S
O38 C29 1.289 . S
Mg39 O46 2.141 . S
Mg39 O47 2.048 . S
Mg39 O48 2.048 . S
Mg39 O51 2.141 . S
C40 O41 1.313 . S
C40 O47 1.195 . S
O41 C40 1.313 . S
C42 O43 1.245 . S
C42 O51 1.289 . S
O43 C42 1.245 . S
C44 O45 1.245 . S
C44 O46 1.289 . S
O45 C44 1.245 . S
O46 Mg39 2.141 . S
O46 C44 1.289 . S
O47 Mg39 2.048 . S
O47 C40 1.195 . S
O48 Mg39 2.048 . S
O48 C49 1.195 . S
C49 O48 1.195 . S
C49 O50 1.313 . S
O50 C49 1.313 . S
O51 Mg39 2.141 . S
O51 C42 1.289 . S
Mg52 O59 2.141 . S
Mg52 O60 2.048 . S
Mg52 O61 2.048 . S
Mg52 O64 2.141 . S
C53 O54 1.313 . S
C53 O60 1.195 . S
O54 C53 1.313 . S
C55 O56 1.245 . S
C55 O64 1.289 1_556 S
O56 C55 1.245 . S
C57 O58 1.245 . S
C57 O59 1.289 . S
O58 C57 1.245 . S
O59 Mg52 2.141 . S
O59 C57 1.289 . S
O60 Mg52 2.048 . S
O60 C53 1.195 . S
O61 Mg52 2.048 . S
O61 C62 1.195 . S
C62 O61 1.195 . S
C62 O63 1.313 . S
O63 C62 1.313 . S
O64 Mg52 2.141 . S
O64 C55 1.289 1_554 S
Mg65 O72 2.141 . S
Mg65 O73 2.048 . S
Mg65 O74 2.048 . S
Mg65 O77 2.141 . S
C66 O67 1.313 . S
C66 O73 1.195 . S
O67 C66 1.313 . S
C68 O69 1.245 . S
C68 O77 1.289 . S
O69 C68 1.245 . S
C70 O71 1.245 . S
C70 O72 1.289 . S
O71 C70 1.245 . S
O72 Mg65 2.141 . S
O72 C70 1.289 . S
O73 Mg65 2.048 . S
O73 C66 1.195 . S
O74 Mg65 2.048 . S
O74 C75 1.195 . S
C75 O74 1.195 . S
C75 O76 1.313 . S
O76 C75 1.313 . S
O77 Mg65 2.141 . S
O77 C68 1.289 . S
Mg78 O85 2.141 . S
Mg78 O86 2.048 . S
Mg78 O87 2.048 . S
Mg78 O90 2.141 . S
C79 O80 1.313 . S
C79 O86 1.195 . S
O80 C79 1.313 . S
C81 O82 1.245 . S
C81 O90 1.289 . S
O82 C81 1.245 . S
C83 O84 1.245 . S
C83 O85 1.289 . S
O84 C83 1.245 . S
O85 Mg78 2.141 . S
O85 C83 1.289 . S
O86 Mg78 2.048 . S
O86 C79 1.195 . S
O87 Mg78 2.048 . S
O87 C88 1.195 . S
C88 O87 1.195 . S
C88 O89 1.313 . S
O89 C88 1.313 . S
O90 Mg78 2.141 . S
O90 C81 1.289 . S
Mg91 O98 2.141 . S
Mg91 O99 2.048 . S
Mg91 O100 2.048 . S
Mg91 O103 2.141 . S
C92 O93 1.313 . S
C92 O99 1.195 . S
O93 C92 1.313 . S
C94 O95 1.245 . S
C94 O103 1.289 . S
O95 C94 1.245 . S
C96 O97 1.245 . S
C96 O98 1.289 . S
O97 C96 1.245 . S
O98 Mg91 2.141 . S
O98 C96 1.289 . S
O99 Mg91 2.048 . S
O99 C92 1.195 . S
O100 Mg91 2.048 . S
O100 C101 1.195 . S
C101 O100 1.195 . S
C101 O102 1.313 . S
O102 C101 1.313 . S
O103 Mg91 2.141 . S
O103 C94 1.289 . S
Mg104 O111 2.141 . S
Mg104 O112 2.048 . S
Mg104 O113 2.048 . S
Mg104 O116 2.141 . S
C105 O106 1.313 . S
C105 O112 1.195 . S
O106 C105 1.313 . S
C107 O108 1.245 . S
C107 O116 1.289 . S
O108 C107 1.245 . S
C109 O110 1.245 . S
C109 O111 1.289 . S
O110 C109 1.245 . S
O111 Mg104 2.141 . S
O111 C109 1.289 . S
O112 Mg104 2.048 . S
O112 C105 1.195 . S
O113 Mg104 2.048 . S
O113 C114 1.195 . S
C114 O113 1.195 . S
C114 O115 1.313 . S
O115 C114 1.313 . S
O116 Mg104 2.141 . S
O116 C107 1.289 . S
Mg117 O124 2.141 . S
Mg117 O125 2.048 . S
Mg117 O126 2.048 . S
Mg117 O129 2.141 . S
C118 O119 1.313 . S
C118 O125 1.195 . S
O119 C118 1.313 . S
C120 O121 1.245 . S
C120 O129 1.289 1_554 S
O121 C120 1.245 . S
C122 O123 1.245 . S
C122 O124 1.289 . S
O123 C122 1.245 . S
O124 Mg117 2.141 . S
O124 C122 1.289 . S
O125 Mg117 2.048 . S
O125 C118 1.195 . S
O126 Mg117 2.048 . S
O126 C127 1.195 . S
C127 O126 1.195 . S
C127 O128 1.313 . S
O128 C127 1.313 . S
O129 Mg117 2.141 . S
O129 C120 1.289 1_556 S
Mg130 O137 2.141 . S
Mg130 O138 2.048 . S
Mg130 O139 2.048 . S
Mg130 O142 2.141 . S
C131 O132 1.313 . S
C131 O138 1.195 . S
O132 C131 1.313 . S
C133 O134 1.245 . S
C133 O142 1.289 . S
O134 C133 1.245 . S
C135 O136 1.245 . S
C135 O137 1.289 . S
O136 C135 1.245 . S
O137 Mg130 2.141 . S
O137 C135 1.289 . S
O138 Mg130 2.048 . S
O138 C131 1.195 . S
O139 Mg130 2.048 . S
O139 C140 1.195 . S
C140 O139 1.195 . S
C140 O141 1.313 . S
O141 C140 1.313 . S
O142 Mg130 2.141 . S
O142 C133 1.289 . S
Mg143 O150 2.141 . S
Mg143 O151 2.048 . S
Mg143 O152 2.048 . S
Mg143 O155 2.141 . S
C144 O145 1.313 . S
C144 O151 1.195 . S
O145 C144 1.313 . S
C146 O147 1.245 . S
C146 O155 1.289 . S
O147 C146 1.245 . S
C148 O149 1.245 . S
C148 O150 1.289 . S
O149 C148 1.245 . S
O150 Mg143 2.141 . S
O150 C148 1.289 . S
O151 Mg143 2.048 . S
O151 C144 1.195 . S
O152 Mg143 2.048 . S
O152 C153 1.195 . S
C153 O152 1.195 . S
C153 O154 1.313 . S
O154 C153 1.313 . S
O155 Mg143 2.141 . S
O155 C146 1.289 . S
C156 C157 1.369 . S
C156 C158 1.419 . S
C156 H160 0.930 . S
C157 C156 1.369 . S
C157 C166 1.429 . S
C158 C156 1.419 . S
C158 C159 1.363 . S
C158 H161 0.929 . S
C159 C158 1.363 . S
C159 C165 1.428 . S
H160 C156 0.930 . S
H161 C158 0.929 . S
S162 N163 1.613 . S
S162 N164 1.610 . S
N163 S162 1.613 . S
N163 C166 1.350 . S
N164 S162 1.610 . S
N164 C165 1.351 . S
C165 C159 1.428 . S
C165 N164 1.351 . S
C165 C166 1.434 . S
C166 C157 1.429 . S
C166 N163 1.350 . S
C166 C165 1.434 . S
C167 C168 1.369 . S
C167 C169 1.419 . S
C167 H171 0.930 . S
C168 C167 1.369 . S
C168 C177 1.429 . S
C169 C167 1.419 . S
C169 C170 1.363 . S
C169 H172 0.929 . S
C170 C169 1.363 . S
C170 C176 1.428 . S
H171 C167 0.930 . S
H172 C169 0.929 . S
S173 N174 1.613 . S
S173 N175 1.610 . S
N174 S173 1.613 . S
N174 C177 1.350 . S
N175 S173 1.610 . S
N175 C176 1.351 . S
C176 C170 1.428 . S
C176 N175 1.351 . S
C176 C177 1.434 . S
C177 C168 1.429 . S
C177 N174 1.350 . S
C177 C176 1.434 . S
C178 C179 1.369 . S
C178 C180 1.419 . S
C178 H182 0.930 . S
C179 C178 1.369 . S
C179 C188 1.429 . S
C180 C178 1.419 . S
C180 C181 1.363 . S
C180 H183 0.929 . S
C181 C180 1.363 . S
C181 C187 1.428 . S
H182 C178 0.930 . S
H183 C180 0.929 . S
S184 N185 1.613 . S
S184 N186 1.610 . S
N185 S184 1.613 . S
N185 C188 1.350 . S
N186 S184 1.610 . S
N186 C187 1.351 . S
C187 C181 1.428 . S
C187 N186 1.351 . S
C187 C188 1.434 . S
C188 C179 1.429 . S
C188 N185 1.350 . S
C188 C187 1.434 . S
C189 C190 1.369 . S
C189 C191 1.419 . S
C189 H193 0.930 . S
C190 C189 1.369 . S
C190 C199 1.429 . S
C191 C189 1.419 . S
C191 C192 1.363 . S
C191 H194 0.929 . S
C192 C191 1.363 . S
C192 C198 1.428 . S
H193 C189 0.930 . S
H194 C191 0.929 . S
S195 N196 1.613 1_554 S
S195 N197 1.610 1_554 S
N196 S195 1.613 1_556 S
N196 C199 1.350 . S
N197 S195 1.610 1_556 S
N197 C198 1.351 . S
C198 C192 1.428 . S
C198 N197 1.351 . S
C198 C199 1.434 . S
C199 C190 1.429 . S
C199 N196 1.350 . S
C199 C198 1.434 . S
C200 C201 1.369 . S
C200 C202 1.419 . S
C200 H204 0.930 . S
C201 C200 1.369 . S
C201 C210 1.429 . S
C202 C200 1.419 . S
C202 C203 1.363 . S
C202 H205 0.929 . S
C203 C202 1.363 . S
C203 C209 1.428 . S
H204 C200 0.930 . S
H205 C202 0.929 . S
S206 N207 1.613 . S
S206 N208 1.610 . S
N207 S206 1.613 . S
N207 C210 1.350 . S
N208 S206 1.610 . S
N208 C209 1.351 . S
C209 C203 1.428 . S
C209 N208 1.351 . S
C209 C210 1.434 . S
C210 C201 1.429 . S
C210 N207 1.350 . S
C210 C209 1.434 . S
C211 C212 1.369 . S
C211 C213 1.419 . S
C211 H215 0.930 . S
C212 C211 1.369 . S
C212 C221 1.429 . S
C213 C211 1.419 . S
C213 C214 1.363 . S
C213 H216 0.929 . S
C214 C213 1.363 . S
C214 C220 1.428 . S
H215 C211 0.930 . S
H216 C213 0.929 . S
S217 N218 1.613 . S
S217 N219 1.610 . S
N218 S217 1.613 . S
N218 C221 1.350 . S
N219 S217 1.610 . S
N219 C220 1.351 . S
C220 C214 1.428 . S
C220 N219 1.351 . S
C220 C221 1.434 . S
C221 C212 1.429 . S
C221 N218 1.350 . S
C221 C220 1.434 . S
C222 C223 1.369 . S
C222 C224 1.419 . S
C222 H226 0.930 . S
C223 C222 1.369 . S
C223 C232 1.429 . S
C224 C222 1.419 . S
C224 C225 1.363 . S
C224 H227 0.929 . S
C225 C224 1.363 . S
C225 C231 1.428 . S
H226 C222 0.930 . S
H227 C224 0.929 . S
S228 N229 1.613 . S
S228 N230 1.610 . S
N229 S228 1.613 . S
N229 C232 1.350 . S
N230 S228 1.610 . S
N230 C231 1.351 . S
C231 C225 1.428 . S
C231 N230 1.351 . S
C231 C232 1.434 . S
C232 C223 1.429 . S
C232 N229 1.350 . S
C232 C231 1.434 . S
C233 C234 1.369 . S
C233 C235 1.419 . S
C233 H237 0.930 . S
C234 C233 1.369 . S
C234 C243 1.429 . S
C235 C233 1.419 . S
C235 C236 1.363 . S
C235 H238 0.929 . S
C236 C235 1.363 . S
C236 C242 1.428 . S
H237 C233 0.930 . S
H238 C235 0.929 . S
S239 N240 1.613 . S
S239 N241 1.610 . S
N240 S239 1.613 . S
N240 C243 1.350 . S
N241 S239 1.610 . S
N241 C242 1.351 . S
C242 C236 1.428 . S
C242 N241 1.351 . S
C242 C243 1.434 . S
C243 C234 1.429 . S
C243 N240 1.350 . S
C243 C242 1.434 . S
C244 C245 1.369 . S
C244 C246 1.419 . S
C244 H248 0.930 . S
C245 C244 1.369 . S
C245 C254 1.429 . S
C246 C244 1.419 . S
C246 C247 1.363 . S
C246 H249 0.929 . S
C247 C246 1.363 . S
C247 C253 1.428 . S
H248 C244 0.930 . S
H249 C246 0.929 . S
S250 N251 1.613 . S
S250 N252 1.610 . S
N251 S250 1.613 . S
N251 C254 1.350 . S
N252 S250 1.610 . S
N252 C253 1.351 . S
C253 C247 1.428 . S
C253 N252 1.351 . S
C253 C254 1.434 . S
C254 C245 1.429 . S
C254 N251 1.350 . S
C254 C253 1.434 . S
C255 C256 1.369 . S
C255 C257 1.419 . S
C255 H259 0.930 . S
C256 C255 1.369 . S
C256 C265 1.429 . S
C257 C255 1.419 . S
C257 C258 1.363 . S
C257 H260 0.929 . S
C258 C257 1.363 . S
C258 C264 1.428 . S
H259 C255 0.930 . S
H260 C257 0.929 . S
S261 N262 1.613 . S
S261 N263 1.610 . S
N262 S261 1.613 . S
N262 C265 1.350 . S
N263 S261 1.610 . S
N263 C264 1.351 . S
C264 C258 1.428 . S
C264 N263 1.351 . S
C264 C265 1.434 . S
C265 C256 1.429 . S
C265 N262 1.350 . S
C265 C264 1.434 . S
C266 C267 1.369 . S
C266 C268 1.419 . S
C266 H270 0.930 . S
C267 C266 1.369 . S
C267 C276 1.429 . S
C268 C266 1.419 . S
C268 C269 1.363 . S
C268 H271 0.929 . S
C269 C268 1.363 . S
C269 C275 1.428 . S
H270 C266 0.930 . S
H271 C268 0.929 . S
S272 N273 1.613 . S
S272 N274 1.610 . S
N273 S272 1.613 . S
N273 C276 1.350 . S
N274 S272 1.610 . S
N274 C275 1.351 . S
C275 C269 1.428 . S
C275 N274 1.351 . S
C275 C276 1.434 . S
C276 C267 1.429 . S
C276 N273 1.350 . S
C276 C275 1.434 . S
C277 C278 1.369 . S
C277 C279 1.419 . S
C277 H281 0.930 . S
C278 C277 1.369 . S
C278 C287 1.429 . S
C279 C277 1.419 . S
C279 C280 1.363 . S
C279 H282 0.929 . S
C280 C279 1.363 . S
C280 C286 1.428 . S
H281 C277 0.930 . S
H282 C279 0.929 . S
S283 N284 1.613 . S
S283 N285 1.610 . S
N284 S283 1.613 . S
N284 C287 1.350 . S
N285 S283 1.610 . S
N285 C286 1.351 . S
C286 C280 1.428 . S
C286 N285 1.351 . S
C286 C287 1.434 . S
C287 C278 1.429 . S
C287 N284 1.350 . S
C287 C286 1.434 . S
C288 C289 1.369 . S
C288 C290 1.419 1_655 S
C288 H292 0.930 . S
C289 C288 1.369 . S
C289 C298 1.429 . S
C290 C288 1.419 1_455 S
C290 C291 1.363 . S
C290 H293 0.929 . S
C291 C290 1.363 . S
C291 C297 1.428 . S
H292 C288 0.930 . S
H293 C290 0.929 . S
S294 N295 1.613 . S
S294 N296 1.610 1_655 S
N295 S294 1.613 . S
N295 C298 1.350 . S
N296 S294 1.610 1_455 S
N296 C297 1.351 . S
C297 C291 1.428 . S
C297 N296 1.351 . S
C297 C298 1.434 1_455 S
C298 C289 1.429 . S
C298 N295 1.350 . S
C298 C297 1.434 1_655 S
C299 C300 1.369 . S
C299 C301 1.419 . S
C299 H303 0.930 . S
C300 C299 1.369 . S
C300 C309 1.429 1_565 S
C301 C299 1.419 . S
C301 C302 1.363 1_565 S
C301 H304 0.929 . S
C302 C301 1.363 1_545 S
C302 C308 1.428 . S
H303 C299 0.930 . S
H304 C301 0.929 . S
S305 N306 1.613 . S
S305 N307 1.610 . S
N306 S305 1.613 . S
N306 C309 1.350 . S
N307 S305 1.610 . S
N307 C308 1.351 . S
C308 C302 1.428 . S
C308 N307 1.351 . S
C308 C309 1.434 . S
C309 C300 1.429 1_545 S
C309 N306 1.350 . S
C309 C308 1.434 . S
C310 C311 1.369 . S
C310 C312 1.419 . S
C310 H314 0.930 . S
C311 C310 1.369 . S
C311 C320 1.429 . S
C312 C310 1.419 . S
C312 C313 1.363 . S
C312 H315 0.929 . S
C313 C312 1.363 . S
C313 C319 1.428 . S
H314 C310 0.930 . S
H315 C312 0.929 . S
S316 N317 1.613 . S
S316 N318 1.610 . S
N317 S316 1.613 . S
N317 C320 1.350 . S
N318 S316 1.610 . S
N318 C319 1.351 . S
C319 C313 1.428 . S
C319 N318 1.351 . S
C319 C320 1.434 . S
C320 C311 1.429 . S
C320 N317 1.350 . S
C320 C319 1.434 . S
C321 C322 1.369 . S
C321 C323 1.435 . S
C321 H325 0.930 . S
C322 C321 1.369 . S
C322 C331 1.429 1_455 S
C323 C321 1.435 . S
C323 C324 1.340 1_455 S
C323 H326 0.937 . S
C324 C323 1.340 1_655 S
C324 C330 1.428 . S
H325 C321 0.930 . S
H326 C323 0.937 . S
S327 N328 1.613 . S
S327 N329 1.610 . S
N328 S327 1.613 . S
N328 C331 1.350 . S
N329 S327 1.610 . S
N329 C330 1.351 . S
C330 C324 1.428 . S
C330 N329 1.351 . S
C330 C331 1.434 . S
C331 C322 1.429 1_655 S
C331 N328 1.350 . S
C331 C330 1.434 . S
C332 C333 1.369 1_554 S
C332 C334 1.419 1_545 S
C332 H336 0.930 . S
C333 C332 1.369 1_556 S
C333 C342 1.429 . S
C334 C332 1.419 1_565 S
C334 C335 1.363 . S
C334 H337 0.929 . S
C335 C334 1.363 . S
C335 C341 1.428 1_554 S
H336 C332 0.930 . S
H337 C334 0.929 . S
S338 N339 1.613 1_565 S
S338 N340 1.610 . S
N339 S338 1.613 1_545 S
N339 C342 1.350 . S
N340 S338 1.610 . S
N340 C341 1.351 . S
C341 C335 1.428 1_556 S
C341 N340 1.351 . S
C341 C342 1.434 1_565 S
C342 C333 1.429 . S
C342 N339 1.350 . S
C342 C341 1.434 1_545 S
C343 C344 1.369 . S
C343 C345 1.419 . S
C343 H347 0.930 . S
C344 C343 1.369 . S
C344 C353 1.429 . S
C345 C343 1.419 . S
C345 C346 1.363 . S
C345 H348 0.929 . S
C346 C345 1.363 . S
C346 C352 1.428 . S
H347 C343 0.930 . S
H348 C345 0.929 . S
S349 N350 1.613 . S
S349 N351 1.610 . S
N350 S349 1.613 . S
N350 C353 1.350 . S
N351 S349 1.610 . S
N351 C352 1.351 . S
C352 C346 1.428 . S
C352 N351 1.351 . S
C352 C353 1.434 . S
C353 C344 1.429 . S
C353 N350 1.350 . S
C353 C352 1.434 . S
C354 C355 1.369 . S
C354 C356 1.419 . S
C354 H358 0.930 . S
C355 C354 1.369 . S
C355 C364 1.429 . S
C356 C354 1.419 . S
C356 C357 1.363 . S
C356 H359 0.929 . S
C357 C356 1.363 . S
C357 C363 1.428 . S
H358 C354 0.930 . S
H359 C356 0.929 . S
S360 N361 1.613 . S
S360 N362 1.610 . S
N361 S360 1.613 . S
N361 C364 1.350 . S
N362 S360 1.610 . S
N362 C363 1.351 . S
C363 C357 1.428 . S
C363 N362 1.351 . S
C363 C364 1.434 . S
C364 C355 1.429 . S
C364 N361 1.350 . S
C364 C363 1.434 . S
C365 C366 1.369 . S
C365 C367 1.419 . S
C365 H369 0.930 . S
C366 C365 1.369 . S
C366 C375 1.429 . S
C367 C365 1.419 . S
C367 C368 1.363 . S
C367 H370 0.929 . S
C368 C367 1.363 . S
C368 C374 1.428 . S
H369 C365 0.930 . S
H370 C367 0.929 . S
S371 N372 1.613 . S
S371 N373 1.610 . S
N372 S371 1.613 . S
N372 C375 1.350 . S
N373 S371 1.610 . S
N373 C374 1.351 . S
C374 C368 1.428 . S
C374 N373 1.351 . S
C374 C375 1.434 . S
C375 C366 1.429 . S
C375 N372 1.350 . S
C375 C374 1.434 . S
C376 C377 1.369 . S
C376 C378 1.419 . S
C376 H380 0.930 . S
C377 C376 1.369 . S
C377 C386 1.429 . S
C378 C376 1.419 . S
C378 C379 1.363 . S
C378 H381 0.929 . S
C379 C378 1.363 . S
C379 C385 1.428 . S
H380 C376 0.930 . S
H381 C378 0.929 . S
S382 N383 1.613 . S
S382 N384 1.610 . S
N383 S382 1.613 . S
N383 C386 1.350 . S
N384 S382 1.610 . S
N384 C385 1.351 . S
C385 C379 1.428 . S
C385 N384 1.351 . S
C385 C386 1.434 . S
C386 C377 1.429 . S
C386 N383 1.350 . S
C386 C385 1.434 . S
C387 C388 1.369 . S
C387 C389 1.419 . S
C387 H391 0.930 . S
C388 C387 1.369 . S
C388 C397 1.429 . S
C389 C387 1.419 . S
C389 C390 1.363 . S
C389 H392 0.929 . S
C390 C389 1.363 . S
C390 C396 1.428 . S
H391 C387 0.930 . S
H392 C389 0.929 . S
S393 N394 1.613 . S
S393 N395 1.610 . S
N394 S393 1.613 . S
N394 C397 1.350 . S
N395 S393 1.610 . S
N395 C396 1.351 . S
C396 C390 1.428 . S
C396 N395 1.351 . S
C396 C397 1.434 . S
C397 C388 1.429 . S
C397 N394 1.350 . S
C397 C396 1.434 . S
C398 C399 1.369 . S
C398 C400 1.419 . S
C398 H402 0.930 . S
C399 C398 1.369 . S
C399 C408 1.429 . S
C400 C398 1.419 . S
C400 C401 1.363 . S
C400 H403 0.929 . S
C401 C400 1.363 . S
C401 C407 1.428 . S
H402 C398 0.930 . S
H403 C400 0.929 . S
S404 N405 1.613 . S
S404 N406 1.610 . S
N405 S404 1.613 . S
N405 C408 1.350 . S
N406 S404 1.610 . S
N406 C407 1.351 . S
C407 C401 1.428 . S
C407 N406 1.351 . S
C407 C408 1.434 . S
C408 C399 1.429 . S
C408 N405 1.350 . S
C408 C407 1.434 . S
C409 C410 1.369 . S
C409 C411 1.419 . S
C409 H413 0.930 . S
C410 C409 1.369 . S
C410 C419 1.429 . S
C411 C409 1.419 . S
C411 C412 1.363 . S
C411 H414 0.929 . S
C412 C411 1.363 . S
C412 C418 1.428 . S
H413 C409 0.930 . S
H414 C411 0.929 . S
S415 N416 1.613 . S
S415 N417 1.610 . S
N416 S415 1.613 . S
N416 C419 1.350 . S
N417 S415 1.610 . S
N417 C418 1.351 . S
C418 C412 1.428 . S
C418 N417 1.351 . S
C418 C419 1.434 . S
C419 C410 1.429 . S
C419 N416 1.350 . S
C419 C418 1.434 . S
C157 C10 1.554 . S
C159 C88 1.551 . S
C168 C23 1.552 . S
C170 C101 1.557 . S
C179 C114 1.553 . S
C181 C36 1.557 . S
C190 C49 1.557 . S
C192 C127 1.552 . S
C201 C62 1.552 . S
C203 C140 1.551 . S
C212 C153 1.556 . S
C214 C75 1.558 . S
C223 C105 1.681 . S
C225 C1 1.685 . S
C234 C14 1.682 . S
C236 C118 1.686 . S
C245 C131 1.685 1_556 S
C247 C27 1.681 . S
C256 C144 1.680 . S
C258 C40 1.683 1_554 S
C267 C53 1.681 . S
C269 C79 1.685 . S
C278 C66 1.681 . S
C280 C92 1.681 . S
C289 C148 1.825 . S
C291 C5 1.825 . S
C300 C83 1.832 . S
C302 C18 1.825 . S
C311 C31 1.825 . S
C313 C96 1.831 . S
C322 C109 1.832 . S
C324 C44 1.828 . S
C333 C122 1.831 . S
C335 C57 1.829 . S
C344 C135 1.832 . S
C346 C70 1.825 . S
C355 C3 1.475 . S
C357 C133 1.477 . S
C366 C146 1.480 . S
C368 C16 1.479 . S
C377 C29 1.478 . S
C379 C81 1.476 . S
C388 C42 1.476 . S
C390 C94 1.478 . S
C399 C55 1.478 . S
C401 C107 1.479 . S
C410 C68 1.476 . S
C412 C120 1.479 . S
