# Generated by pormake.
# Topology wjh, (4)-cn, num edge types: 1
# Building blocks:
#     Node 0, Type 0, BuildingBlock: CEKHIL_clean_sbu_0, # of connection points: 4
#     Node 1, Type 0, BuildingBlock: CEKHIL_clean_sbu_0, # of connection points: 4
#     Node 2, Type 0, BuildingBlock: CEKHIL_clean_sbu_0, # of connection points: 4
#     Node 3, Type 0, BuildingBlock: CEKHIL_clean_sbu_0, # of connection points: 4
#     Node 4, Type 0, BuildingBlock: CEKHIL_clean_sbu_0, # of connection points: 4
#     Node 5, Type 0, BuildingBlock: CEKHIL_clean_sbu_0, # of connection points: 4
#     Node 6, Type 0, BuildingBlock: CEKHIL_clean_sbu_0, # of connection points: 4
#     Node 7, Type 0, BuildingBlock: CEKHIL_clean_sbu_0, # of connection points: 4
#     Node 8, Type 0, BuildingBlock: CEKHIL_clean_sbu_0, # of connection points: 4
#     Node 9, Type 0, BuildingBlock: CEKHIL_clean_sbu_0, # of connection points: 4
#     Node 10, Type 0, BuildingBlock: CEKHIL_clean_sbu_0, # of connection points: 4
#     Node 11, Type 0, BuildingBlock: CEKHIL_clean_sbu_0, # of connection points: 4
#     Edge 12, Type (0, 0), BuildingBlock: XIVTED_clean_linker_0, # of connection points: 2
#     Edge 13, Type (0, 0), BuildingBlock: XIVTED_clean_linker_0, # of connection points: 2
#     Edge 14, Type (0, 0), BuildingBlock: XIVTED_clean_linker_0, # of connection points: 2
#     Edge 15, Type (0, 0), BuildingBlock: XIVTED_clean_linker_0, # of connection points: 2
#     Edge 16, Type (0, 0), BuildingBlock: XIVTED_clean_linker_0, # of connection points: 2
#     Edge 17, Type (0, 0), BuildingBlock: XIVTED_clean_linker_0, # of connection points: 2
#     Edge 18, Type (0, 0), BuildingBlock: XIVTED_clean_linker_0, # of connection points: 2
#     Edge 19, Type (0, 0), BuildingBlock: XIVTED_clean_linker_0, # of connection points: 2
#     Edge 20, Type (0, 0), BuildingBlock: XIVTED_clean_linker_0, # of connection points: 2
#     Edge 21, Type (0, 0), BuildingBlock: XIVTED_clean_linker_0, # of connection points: 2
#     Edge 22, Type (0, 0), BuildingBlock: XIVTED_clean_linker_0, # of connection points: 2
#     Edge 23, Type (0, 0), BuildingBlock: XIVTED_clean_linker_0, # of connection points: 2
#     Edge 24, Type (0, 0), BuildingBlock: XIVTED_clean_linker_0, # of connection points: 2
#     Edge 25, Type (0, 0), BuildingBlock: XIVTED_clean_linker_0, # of connection points: 2
#     Edge 26, Type (0, 0), BuildingBlock: XIVTED_clean_linker_0, # of connection points: 2
#     Edge 27, Type (0, 0), BuildingBlock: XIVTED_clean_linker_0, # of connection points: 2
#     Edge 28, Type (0, 0), BuildingBlock: XIVTED_clean_linker_0, # of connection points: 2
#     Edge 29, Type (0, 0), BuildingBlock: XIVTED_clean_linker_0, # of connection points: 2
#     Edge 30, Type (0, 0), BuildingBlock: XIVTED_clean_linker_0, # of connection points: 2
#     Edge 31, Type (0, 0), BuildingBlock: XIVTED_clean_linker_0, # of connection points: 2
#     Edge 32, Type (0, 0), BuildingBlock: XIVTED_clean_linker_0, # of connection points: 2
#     Edge 33, Type (0, 0), BuildingBlock: XIVTED_clean_linker_0, # of connection points: 2
#     Edge 34, Type (0, 0), BuildingBlock: XIVTED_clean_linker_0, # of connection points: 2
#     Edge 35, Type (0, 0), BuildingBlock: XIVTED_clean_linker_0, # of connection points: 2
# Relax obj value: 0.078
# Max RMSD: 0.099
# Mean RMSD: 0.099
data_MOF--net-wjh--node1-CEKHIL_clean_sbu_0--edge1-XIVTED_clean_linker_0
_symmetry_space_group_name_H-M    P1
_symmetry_Int_Tables_number       1
_symmetry_cell_setting            triclinic
loop_
_symmetry_equiv_pos_as_xyz
'x, y, z'
_cell_length_a     61.102493
_cell_length_b     61.078766
_cell_length_c     26.671898
_cell_angle_alpha  90.008352
_cell_angle_beta   90.016742
_cell_angle_gamma 119.991
loop_
_atom_site_label
_atom_site_type_symbol
_atom_site_fract_x
_atom_site_fract_y
_atom_site_fract_z
_atom_type_partial_charge
Co0 Co 0.52173 0.15153 0.02238 0.0
O1 O 0.53797 0.18736 0.03391 0.0
O2 O 0.49786 0.16022 0.05103 0.0
C3 C 0.53825 0.1548 0.94533 0.0
O4 O 0.49811 0.11341 0.01541 0.0
Co5 Co 0.55211 0.12383 0.00126 0.0
O6 O 0.51877 0.09537 0.98072 0.0
C7 C 0.55113 0.14323 0.1029 0.0
C8 C 0.5165 0.18342 0.05161 0.0
C9 C 0.4985 0.09433 -0.00418 0.0
O10 O 0.53286 0.147 0.09067 0.0
O11 O 0.56235 0.13623 0.07164 0.0
O12 O 0.51793 0.15647 0.9505 0.0
O13 O 0.54797 0.15235 0.98605 0.0
Co14 Co 0.37579 0.52422 0.1874 0.0
O15 O 0.35591 0.54031 0.19585 0.0
O16 O 0.34281 0.50036 0.21473 0.0
C17 C 0.39008 0.5404 0.11055 0.0
O18 O 0.39087 0.50097 0.18304 0.0
Co19 Co 0.43422 0.55587 0.17068 0.0
O20 O 0.4303 0.52267 0.15173 0.0
C21 C 0.41168 0.55442 0.26986 0.0
C22 C 0.33815 0.51896 0.2134 0.0
C23 C 0.41103 0.50205 0.16543 0.0
O24 O 0.39028 0.53556 0.25646 0.0
O25 O 0.43033 0.56636 0.23982 0.0
O26 O 0.36811 0.52 0.11506 0.0
O27 O 0.40152 0.55048 0.15174 0.0
Co28 Co 0.85744 0.37206 0.354 0.0
O29 O 0.82153 0.3539 0.36555 0.0
O30 O 0.84713 0.33899 0.38212 0.0
C31 C 0.85485 0.38608 0.27714 0.0
O32 O 0.89523 0.3847 0.34693 0.0
Co33 Co 0.88794 0.43012 0.33299 0.0
O34 O 0.91477 0.42308 0.31089 0.0
C35 C 0.86956 0.41048 0.43569 0.0
C36 C 0.82433 0.33554 0.38262 0.0
C37 C 0.91476 0.4034 0.32662 0.0
O38 O 0.86299 0.38769 0.42261 0.0
O39 O 0.87791 0.42901 0.40484 0.0
O40 O 0.85195 0.36356 0.28204 0.0
O41 O 0.85812 0.3984 0.31802 0.0
Co42 Co 0.48537 0.85481 0.51972 0.0
O43 O 0.46942 0.81867 0.5255 0.0
O44 O 0.50889 0.84542 0.54764 0.0
C45 C 0.47062 0.85443 0.44206 0.0
O46 O 0.50858 0.8932 0.51848 0.0
Co47 Co 0.4541 0.88193 0.50309 0.0
O48 O 0.48752 0.91142 0.48624 0.0
C49 C 0.45378 0.85904 0.60133 0.0
C50 C 0.49052 0.82215 0.54426 0.0
C51 C 0.50786 0.91253 0.50117 0.0
O52 O 0.47267 0.85644 0.58839 0.0
O53 O 0.4426 0.86665 0.5713 0.0
O54 O 0.49098 0.85286 0.44745 0.0
O55 O 0.45972 0.8549 0.4828 0.0
Co56 Co 0.63523 0.48579 0.68749 0.0
O57 O 0.65465 0.46893 0.69254 0.0
O58 O 0.66836 0.50861 0.71486 0.0
C59 C 0.62004 0.47159 0.60986 0.0
O60 O 0.62137 0.51006 0.68728 0.0
Co61 Co 0.57674 0.4565 0.67246 0.0
O62 O 0.58179 0.49047 0.65661 0.0
C63 C 0.59937 0.4548 0.76967 0.0
C64 C 0.67266 0.48986 0.71126 0.0
C65 C 0.60167 0.51034 0.67108 0.0
O66 O 0.62107 0.47325 0.7564 0.0
O67 O 0.58031 0.4443 0.74011 0.0
O68 O 0.64247 0.49131 0.61514 0.0
O69 O 0.60871 0.46076 0.65071 0.0
Co70 Co 0.1528 0.63173 0.85643 0.0
O71 O 0.1889 0.6508 0.86427 0.0
O72 O 0.16287 0.66472 0.88465 0.0
C73 C 0.15379 0.61745 0.77896 0.0
O74 O 0.11467 0.61794 0.85341 0.0
Co75 Co 0.12372 0.57342 0.83803 0.0
O76 O 0.09508 0.57869 0.82096 0.0
C77 C 0.14635 0.59484 0.93721 0.0
C78 C 0.18589 0.66879 0.88274 0.0
C79 C 0.09489 0.5984 0.83596 0.0
O80 O 0.14974 0.61672 0.92493 0.0
O81 O 0.13845 0.57627 0.90652 0.0
O82 O 0.15607 0.63971 0.78416 0.0
O83 O 0.15209 0.60563 0.81979 0.0
Co84 Co 0.85866 0.48584 0.87559 0.0
O85 O 0.82255 0.46846 0.86798 0.0
O86 O 0.84807 0.50867 0.84889 0.0
C87 C 0.85804 0.47006 0.95244 0.0
O88 O 0.89674 0.51036 0.87884 0.0
Co89 Co 0.88772 0.45629 0.89079 0.0
O90 O 0.91646 0.49015 0.90793 0.0
C91 C 0.86557 0.45679 0.79234 0.0
C92 C 0.82516 0.48949 0.85069 0.0
C93 C 0.9166 0.51027 0.89474 0.0
O94 O 0.86209 0.47501 0.80626 0.0
O95 O 0.87307 0.44533 0.82189 0.0
O96 O 0.85528 0.48978 0.94806 0.0
O97 O 0.85969 0.46025 0.9111 0.0
Co98 Co 0.37528 0.85709 0.04061 0.0
O99 O 0.35564 0.82079 0.03816 0.0
O100 O 0.34209 0.84649 0.01303 0.0
C101 C 0.39045 0.85922 0.1186 0.0
O102 O 0.38971 0.89532 0.03804 0.0
Co103 Co 0.43387 0.88547 0.05475 0.0
O104 O 0.42955 0.91509 0.0676 0.0
C105 C 0.41058 0.85994 0.95899 0.0
C106 C 0.33762 0.82347 0.01874 0.0
C107 C 0.40984 0.91532 0.05281 0.0
O108 O 0.38915 0.85742 0.97209 0.0
O109 O 0.42972 0.86843 0.98832 0.0
O110 O 0.36811 0.85661 0.11268 0.0
O111 O 0.40168 0.85884 0.07822 0.0
Co112 Co 0.52169 0.3745 0.2089 0.0
O113 O 0.53716 0.3538 0.20773 0.0
O114 O 0.4981 0.34113 0.18274 0.0
C115 C 0.53562 0.39031 0.2863 0.0
O116 O 0.49902 0.39029 0.20578 0.0
Co117 Co 0.55401 0.43317 0.22058 0.0
O118 O 0.52076 0.43024 0.2347 0.0
C119 C 0.5544 0.40825 0.12557 0.0
C120 C 0.51615 0.33595 0.18915 0.0
C121 C 0.50024 0.41096 0.22061 0.0
O122 O 0.53514 0.38729 0.13967 0.0
O123 O 0.5658 0.42764 0.1541 0.0
O124 O 0.51524 0.36836 0.28136 0.0
O125 O 0.54716 0.40076 0.24537 0.0
Co126 Co 0.14997 0.51841 0.37692 0.0
O127 O 0.18618 0.53547 0.3715 0.0
O128 O 0.16051 0.49558 0.35022 0.0
C129 C 0.14946 0.5333 0.45405 0.0
O130 O 0.11184 0.49407 0.37774 0.0
Co131 Co 0.1208 0.54787 0.39127 0.0
O132 O 0.09184 0.51396 0.40703 0.0
C133 C 0.14503 0.54899 0.29435 0.0
C134 C 0.18348 0.5145 0.35351 0.0
C135 C 0.09184 0.49399 0.39326 0.0
O136 O 0.14794 0.53035 0.30775 0.0
O137 O 0.13688 0.5599 0.32381 0.0
O138 O 0.15216 0.51355 0.44939 0.0
O139 O 0.14855 0.54368 0.41288 0.0
Co140 Co 0.63268 0.14988 0.54341 0.0
O141 O 0.65205 0.18608 0.53772 0.0
O142 O 0.66599 0.16021 0.51631 0.0
C143 C 0.61768 0.14976 0.62071 0.0
O144 O 0.61837 0.11158 0.54468 0.0
Co145 Co 0.57408 0.1216 0.55853 0.0
O146 O 0.57867 0.09248 0.57498 0.0
C147 C 0.59704 0.14505 0.46108 0.0
C148 C 0.67021 0.18327 0.51966 0.0
C149 C 0.59831 0.09191 0.56094 0.0
O150 O 0.61852 0.14777 0.47439 0.0
O151 O 0.57811 0.13734 0.49074 0.0
O152 O 0.64 0.1522 0.61582 0.0
O153 O 0.60635 0.14892 0.57966 0.0
Co154 Co 0.48995 0.6336 0.70841 0.0
O155 O 0.47167 0.65143 0.69978 0.0
O156 O 0.5119 0.66677 0.68 0.0
C157 C 0.47496 0.61927 0.78595 0.0
O158 O 0.51548 0.62128 0.7123 0.0
Co159 Co 0.46294 0.5754 0.72778 0.0
O160 O 0.49723 0.58258 0.747 0.0
C161 C 0.46134 0.59569 0.62752 0.0
C162 C 0.49239 0.66995 0.68164 0.0
C163 C 0.51665 0.6025 0.73124 0.0
O164 O 0.47866 0.61814 0.64001 0.0
O165 O 0.45147 0.57708 0.65824 0.0
O166 O 0.49419 0.64198 0.78043 0.0
O167 O 0.4652 0.60703 0.74529 0.0
H168 H 0.59136 0.14074 0.14057 0.0
H169 H 0.56045 0.15381 0.42455 0.0
H170 H 0.53145 0.15483 0.18489 0.0
H171 H 0.6249 0.14763 0.37835 0.0
H172 H 0.55135 0.15733 0.33702 0.0
H173 H 0.60528 0.14576 0.22709 0.0
C174 C 0.5811 0.14494 0.16845 0.0
C175 C 0.55996 0.14708 0.15539 0.0
C176 C 0.56759 0.1554 0.34598 0.0
C177 C 0.57601 0.15293 0.25494 0.0
C178 C 0.57278 0.15331 0.39595 0.0
C179 C 0.59323 0.14998 0.40866 0.0
C180 C 0.58281 0.1539 0.30837 0.0
C181 C 0.60883 0.14998 0.37018 0.0
C182 C 0.58919 0.14792 0.21795 0.0
C183 C 0.54769 0.1528 0.19325 0.0
N184 N 0.6031 0.15157 0.32162 0.0
N185 N 0.55579 0.15534 0.24147 0.0
H186 H 0.44706 0.60003 0.30739 0.0
H187 H 0.42298 0.55171 0.58922 0.0
H188 H 0.38574 0.52711 0.35259 0.0
H189 H 0.4779 0.62821 0.54702 0.0
H190 H 0.40799 0.54313 0.50328 0.0
H191 H 0.45702 0.6116 0.39522 0.0
C192 C 0.43559 0.58648 0.33587 0.0
C193 C 0.41578 0.5624 0.32274 0.0
C194 C 0.4232 0.56185 0.5128 0.0
C195 C 0.42721 0.57552 0.42333 0.0
C196 C 0.43192 0.56678 0.56193 0.0
C197 C 0.45196 0.59071 0.5754 0.0
C198 C 0.43467 0.58088 0.47657 0.0
C199 C 0.46255 0.60945 0.53832 0.0
C200 C 0.44126 0.59315 0.38601 0.0
C201 C 0.40126 0.5458 0.3611 0.0
N202 N 0.45388 0.60407 0.49043 0.0
N203 N 0.40749 0.55257 0.40979 0.0
H204 H 0.87055 0.48565 0.71005 0.0
H205 H 0.84789 0.37703 0.51399 0.0
H206 H 0.85253 0.4105 0.75448 0.0
H207 H 0.88551 0.45668 0.47806 0.0
H208 H 0.84345 0.3874 0.60078 0.0
H209 H 0.86921 0.47345 0.62217 0.0
C210 C 0.86596 0.4665 0.70123 0.0
C211 C 0.86194 0.44912 0.73936 0.0
C212 C 0.85266 0.40253 0.5737 0.0
C213 C 0.86041 0.43508 0.63948 0.0
C214 C 0.85527 0.39664 0.52428 0.0
C215 C 0.86712 0.41599 0.48864 0.0
C216 C 0.86187 0.42787 0.58734 0.0
C217 C 0.87615 0.44107 0.50406 0.0
C218 C 0.86536 0.45959 0.65121 0.0
C219 C 0.85614 0.42456 0.72605 0.0
N220 N 0.87333 0.44627 0.55219 0.0
N221 N 0.85563 0.41827 0.67714 0.0
H222 H 0.4102 0.85475 0.63852 0.0
H223 H 0.44853 0.85317 0.92255 0.0
H224 H 0.47614 0.85082 0.68311 0.0
H225 H 0.38037 0.85262 0.87724 0.0
H226 H 0.45649 0.84756 0.83541 0.0
H227 H 0.39674 0.84941 0.72551 0.0
C228 C 0.42185 0.85267 0.66658 0.0
C229 C 0.44461 0.85368 0.65354 0.0
C230 C 0.43969 0.84846 0.84451 0.0
C231 C 0.42919 0.84755 0.75352 0.0
C232 C 0.43514 0.85175 0.89428 0.0
C233 C 0.41398 0.85385 0.90709 0.0
C234 C 0.42308 0.84748 0.80715 0.0
C235 C 0.39705 0.85136 0.86901 0.0
C236 C 0.41405 0.84951 0.71632 0.0
C237 C 0.45861 0.85041 0.6915 0.0
N238 N 0.40215 0.84862 0.82061 0.0
N239 N 0.45081 0.84778 0.73993 0.0
H240 H 0.53018 0.37771 0.04473 0.0
H241 H 0.63177 0.47485 0.84987 0.0
H242 H 0.59933 0.44492 0.0875 0.0
H243 H 0.55862 0.41267 0.80794 0.0
H244 H 0.62341 0.45998 0.93664 0.0
H245 H 0.54375 0.38596 0.95712 0.0
C246 C 0.54831 0.39402 0.03581 0.0
C247 C 0.56339 0.41094 0.07335 0.0
C248 C 0.60928 0.44953 0.90829 0.0
C249 C 0.57897 0.42051 0.97347 0.0
C250 C 0.61405 0.45802 0.85877 0.0
C251 C 0.5957 0.44528 0.82169 0.0
C252 C 0.58605 0.42816 0.9207 0.0
C253 C 0.57317 0.4234 0.83537 0.0
C254 C 0.55603 0.39876 0.98581 0.0
C255 C 0.58683 0.43165 0.05967 0.0
N256 N 0.56891 0.41566 0.88379 0.0
N257 N 0.59378 0.43598 0.01081 0.0
H258 H 0.15293 0.59412 0.25828 0.0
H259 H 0.14793 0.55387 0.97348 0.0
H260 H 0.1501 0.52499 0.21185 0.0
H261 H 0.15618 0.62545 0.01961 0.0
H262 H 0.15272 0.54484 0.06017 0.0
H263 H 0.15828 0.60769 0.17123 0.0
C264 C 0.15352 0.5818 0.22975 0.0
C265 C 0.15062 0.55816 0.24224 0.0
C266 C 0.15367 0.56261 0.05137 0.0
C267 C 0.1567 0.57364 0.14238 0.0
C268 C 0.15083 0.56778 0.00182 0.0
C269 C 0.15119 0.5903 -0.0107 0.0
C270 C 0.15673 0.57997 0.08891 0.0
C271 C 0.15547 0.60773 0.02759 0.0
C272 C 0.15668 0.58964 0.18003 0.0
C273 C 0.15205 0.54326 0.20384 0.0
N274 N 0.15781 0.60206 0.07583 0.0
N275 N 0.15469 0.55113 0.15546 0.0
H276 H 0.5508 0.32101 0.20246 0.0
H277 H 0.47334 0.18602 0.06969 0.0
H278 H 0.47639 0.29522 0.14146 0.0
H279 H 0.55451 0.22858 0.08403 0.0
H280 H 0.47114 0.22193 0.10659 0.0
H281 H 0.5491 0.2827 0.17202 0.0
C282 C 0.534 0.30723 0.18277 0.0
C283 C 0.51383 0.31152 0.174 0.0
C284 C 0.48936 0.22328 0.10157 0.0
C285 C 0.51183 0.26738 0.13866 0.0
C286 C 0.49063 0.20285 0.08068 0.0
C287 C 0.51417 0.20442 0.07356 0.0
C288 C 0.51175 0.24507 0.11627 0.0
C289 C 0.53599 0.22661 0.08838 0.0
C290 C 0.53309 0.28534 0.16524 0.0
C291 C 0.49244 0.29273 0.14874 0.0
N292 N 0.53423 0.24593 0.10918 0.0
N293 N 0.49202 0.27145 0.13168 0.0
H294 H 0.32773 0.55691 0.22541 0.0
H295 H 0.18564 0.47279 0.32015 0.0
H296 H 0.2947 0.47641 0.24615 0.0
H297 H 0.23182 0.55312 0.34477 0.0
H298 H 0.22289 0.47235 0.28598 0.0
H299 H 0.28991 0.55452 0.26023 0.0
C300 C 0.31245 0.53864 0.23715 0.0
C301 C 0.31447 0.51683 0.23298 0.0
C302 C 0.22477 0.48998 0.29917 0.0
C303 C 0.27079 0.51398 0.27325 0.0
C304 C 0.20357 0.49027 0.31857 0.0
C305 C 0.20561 0.51306 0.3352 0.0
C306 C 0.24795 0.5127 0.29579 0.0
C307 C 0.22929 0.53512 0.3324 0.0
C308 C 0.29084 0.53732 0.25732 0.0
C309 C 0.29395 0.49371 0.24888 0.0
N310 N 0.24939 0.5344 0.3128 0.0
N311 N 0.27285 0.49284 0.26828 0.0
H312 H 0.68082 0.23204 0.51479 0.0
H313 H 0.82172 0.29069 0.40994 0.0
H314 H 0.71366 0.18519 0.48408 0.0
H315 H 0.77719 0.3275 0.40199 0.0
H316 H 0.78483 0.25292 0.44475 0.0
H317 H 0.71874 0.26846 0.48258 0.0
C318 C 0.69607 0.2294 0.50141 0.0
C319 C 0.69395 0.20545 0.50194 0.0
C320 C 0.78323 0.26929 0.43523 0.0
C321 C 0.73773 0.24738 0.46469 0.0
C322 C 0.80424 0.29084 0.41549 0.0
C323 C 0.80252 0.31228 0.40299 0.0
C324 C 0.76054 0.26942 0.44309 0.0
C325 C 0.77942 0.31143 0.41089 0.0
C326 C 0.71775 0.25025 0.4828 0.0
C327 C 0.71446 0.2033 0.48415 0.0
N328 N 0.75947 0.29047 0.43057 0.0
N329 N 0.73556 0.22403 0.46621 0.0
H330 H 0.53267 0.82164 0.58031 0.0
H331 H 0.45251 0.67713 0.66547 0.0
H332 H 0.45306 0.77314 0.55128 0.0
H333 H 0.53378 0.71524 0.65342 0.0
H334 H 0.45313 0.71443 0.63171 0.0
H335 H 0.53433 0.78495 0.61401 0.0
C336 C 0.51561 0.80332 0.58084 0.0
C337 C 0.49268 0.80046 0.56297 0.0
C338 C 0.47087 0.71471 0.63635 0.0
C339 C 0.4944 0.75869 0.60181 0.0
C340 C 0.47055 0.69342 0.65588 0.0
C341 C 0.49312 0.69302 0.66221 0.0
C342 C 0.49397 0.73604 0.62334 0.0
C343 C 0.51592 0.71472 0.64895 0.0
C344 C 0.51658 0.78243 0.6 0.0
C345 C 0.47116 0.77631 0.56457 0.0
N346 N 0.51579 0.73545 0.63025 0.0
N347 N 0.47253 0.75648 0.58385 0.0
H348 H 0.71648 0.53206 0.74242 0.0
H349 H 0.77692 0.45066 0.84173 0.0
H350 H 0.68241 0.45135 0.72372 0.0
H351 H 0.82274 0.53101 0.81687 0.0
H352 H 0.7406 0.45179 0.8077 0.0
H353 H 0.7544 0.53326 0.77715 0.0
C354 C 0.717 0.51464 0.74545 0.0
C355 C 0.69625 0.49155 0.73014 0.0
C356 C 0.75857 0.46922 0.80957 0.0
C357 C 0.73923 0.49278 0.7703 0.0
C358 C 0.77936 0.46862 0.82925 0.0
C359 C 0.80299 0.49076 0.83196 0.0
C360 C 0.7612 0.49217 0.79265 0.0
C361 C 0.80488 0.51348 0.81525 0.0
C362 C 0.73862 0.51536 0.76519 0.0
C363 C 0.69793 0.46958 0.73488 0.0
N364 N 0.78421 0.51362 0.79631 0.0
N365 N 0.71892 0.47073 0.75478 0.0
H366 H 0.23324 0.67715 0.90036 0.0
H367 H 0.29444 0.82159 0.98231 0.0
H368 H 0.18827 0.71341 0.91108 0.0
H369 H 0.32673 0.77453 0.01585 0.0
H370 H 0.25641 0.78412 0.95004 0.0
H371 H 0.26909 0.71482 0.93518 0.0
C372 C 0.23092 0.69311 0.90985 0.0
C373 C 0.2077 0.69211 0.90275 0.0
C374 C 0.27181 0.78208 0.96477 0.0
C375 C 0.24891 0.73555 0.94283 0.0
C376 C 0.2935 0.80341 0.9831 0.0
C377 C 0.31384 0.8012 0.00163 0.0
C378 C 0.27072 0.75854 0.96439 0.0
C379 C 0.31159 0.77719 0.00187 0.0
C380 C 0.25141 0.71461 0.93003 0.0
C381 C 0.20584 0.7134 0.91604 0.0
N382 N 0.29057 0.75692 0.98323 0.0
N383 N 0.22625 0.73436 0.93528 0.0
H384 H 0.56985 0.14047 0.63519 0.0
H385 H 0.5841 0.15934 0.93133 0.0
H386 H 0.63744 0.15638 0.71609 0.0
H387 H 0.51868 0.14923 0.84963 0.0
H388 H 0.6032 0.15702 0.85328 0.0
H389 H 0.55015 0.14156 0.71346 0.0
C390 C 0.58056 0.14405 0.66956 0.0
C391 C 0.60543 0.14842 0.66911 0.0
C392 C 0.58469 0.1553 0.8522 0.0
C393 C 0.58285 0.14989 0.75911 0.0
C394 C 0.57368 0.1566 0.89681 0.0
C395 C 0.54965 0.15435 0.89695 0.0
C396 C 0.57159 0.1516 0.8071 0.0
C397 C 0.53723 0.15107 0.85111 0.0
C398 C 0.56924 0.14476 0.71427 0.0
C399 C 0.61825 0.15289 0.7148 0.0
N400 N 0.54834 0.1497 0.80787 0.0
N401 N 0.60682 0.15361 0.75805 0.0
H402 H 0.43766 0.57102 0.8016 0.0
H403 H 0.43177 0.58614 0.09706 0.0
H404 H 0.48695 0.64018 0.88076 0.0
H405 H 0.37666 0.52074 0.01495 0.0
H406 H 0.45336 0.60531 0.01907 0.0
H407 H 0.41699 0.55153 0.87998 0.0
C408 C 0.44428 0.58214 0.83561 0.0
C409 C 0.46409 0.60736 0.83462 0.0
C410 C 0.43657 0.58679 0.01794 0.0
C411 C 0.44016 0.58498 0.92481 0.0
C412 C 0.42419 0.57574 0.06249 0.0
C413 C 0.40239 0.55172 0.06245 0.0
C414 C 0.42723 0.57371 0.97278 0.0
C415 C 0.39338 0.53929 0.01657 0.0
C416 C 0.43233 0.57093 0.88039 0.0
C417 C 0.4718 0.6207 0.8799 0.0
N418 N 0.40593 0.55043 0.97344 0.0
N419 N 0.45973 0.60933 0.92329 0.0
H420 H 0.8636 0.42909 0.96578 0.0
H421 H 0.85615 0.43061 0.26384 0.0
H422 H 0.8542 0.48461 0.04849 0.0
H423 H 0.85495 0.36934 0.18078 0.0
H424 H 0.8576 0.45156 0.18564 0.0
H425 H 0.86297 0.40841 0.04402 0.0
C426 C 0.86152 0.43705 0.00051 0.0
C427 C 0.85893 0.45866 0.00062 0.0
C428 C 0.85701 0.43355 0.18431 0.0
C429 C 0.85809 0.43483 0.09059 0.0
C430 C 0.85624 0.42152 0.22902 0.0
C431 C 0.8555 0.39815 0.22883 0.0
C432 C 0.85717 0.42228 0.13874 0.0
C433 C 0.8555 0.38731 0.18257 0.0
C434 C 0.86107 0.42511 0.0452 0.0
C435 C 0.85627 0.46803 0.04674 0.0
N436 N 0.85639 0.39954 0.13923 0.0
N437 N 0.8559 0.45601 0.08999 0.0
H438 H 0.49268 0.86421 0.34824 0.0
H439 H 0.36959 0.85196 0.2128 0.0
H440 H 0.42449 0.84889 0.42589 0.0
H441 H 0.43916 0.87186 0.13557 0.0
H442 H 0.38993 0.85202 0.29214 0.0
H443 H 0.47375 0.86775 0.26948 0.0
C444 C 0.47377 0.86153 0.34864 0.0
C445 C 0.46016 0.8563 0.39349 0.0
C446 C 0.40078 0.85657 0.2578 0.0
C447 C 0.43842 0.86027 0.30426 0.0
C448 C 0.38918 0.85664 0.21265 0.0
C449 C 0.40264 0.86177 0.16763 0.0
C450 C 0.42597 0.86168 0.25769 0.0
C451 C 0.42799 0.86761 0.1694 0.0
C452 C 0.46299 0.86364 0.30388 0.0
C453 C 0.43575 0.85311 0.39216 0.0
N454 N 0.43878 0.86727 0.21359 0.0
N455 N 0.42566 0.85508 0.34834 0.0
H456 H 0.6375 0.48929 0.51452 0.0
H457 H 0.51739 0.37369 0.38159 0.0
H458 H 0.57335 0.43122 0.59485 0.0
H459 H 0.57752 0.43603 0.30098 0.0
H460 H 0.53728 0.3949 0.46066 0.0
H461 H 0.61559 0.47042 0.43533 0.0
C462 C 0.61882 0.47271 0.51549 0.0
C463 C 0.6073 0.46179 0.56124 0.0
C464 C 0.54601 0.40397 0.42557 0.0
C465 C 0.5822 0.44008 0.47135 0.0
C466 C 0.53462 0.39186 0.38054 0.0
C467 C 0.54584 0.40304 0.33475 0.0
C468 C 0.56879 0.42731 0.42456 0.0
C469 C 0.56822 0.42664 0.33545 0.0
C470 C 0.6063 0.46193 0.47041 0.0
C471 C 0.58303 0.44029 0.56045 0.0
N472 N 0.579 0.4379 0.37955 0.0
N473 N 0.57137 0.4301 0.51632 0.0
H474 H 0.14013 0.57188 0.46821 0.0
H475 H 0.15684 0.57528 0.76488 0.0
H476 H 0.1556 0.52001 0.5496 0.0
H477 H 0.14846 0.63168 0.68321 0.0
H478 H 0.15457 0.55396 0.68676 0.0
H479 H 0.14067 0.59246 0.54656 0.0
C480 C 0.1435 0.56467 0.50269 0.0
C481 C 0.14789 0.54417 0.50238 0.0
C482 C 0.15318 0.57095 0.68569 0.0
C483 C 0.1487 0.56794 0.59243 0.0
C484 C 0.15443 0.58319 0.73037 0.0
C485 C 0.15273 0.60529 0.73056 0.0
C486 C 0.15008 0.58073 0.64051 0.0
C487 C 0.14987 0.61472 0.68467 0.0
C488 C 0.14388 0.57656 0.54743 0.0
C489 C 0.15209 0.53571 0.54819 0.0
N490 N 0.14855 0.6023 0.64133 0.0
N491 N 0.15248 0.54772 0.59145 0.0
H492 H 0.46424 0.07499 0.0719 0.0
H493 H 0.39887 0.93341 0.969 0.0
H494 H 0.48177 0.05598 0.92739 0.0
H495 H 0.42706 0.95407 0.11988 0.0
H496 H 0.41268 0.97802 0.95138 0.0
H497 H 0.43368 0.03006 0.08598 0.0
C498 C 0.46098 0.0615 0.0424 0.0
C499 C 0.47568 0.06907 -0.00137 0.0
C500 C 0.41509 0.97256 0.98872 0.0
C501 C 0.44077 0.01804 0.01431 0.0
C502 C 0.40712 0.94721 -0.00112 0.0
C503 C 0.41199 0.94024 0.04588 0.0
C504 C 0.42738 0.99079 0.02625 0.0
C505 C 0.4231 0.95881 0.08315 0.0
C506 C 0.44371 0.03593 0.05063 0.0
C507 C 0.47094 0.0508 0.96183 0.0
N508 N 0.43054 0.98331 0.07249 0.0
N509 N 0.454 0.02605 0.97064 0.0
H510 H 0.48091 0.42924 0.29008 0.0
H511 H 0.43183 0.48544 0.09531 0.0
H512 H 0.47029 0.40146 0.1384 0.0
H513 H 0.39827 0.46854 0.24251 0.0
H514 H 0.44567 0.45447 0.10853 0.0
H515 H 0.45038 0.44344 0.27471 0.0
C516 C 0.47161 0.42558 0.25395 0.0
C517 C 0.47798 0.41416 0.21545 0.0
C518 C 0.43469 0.45705 0.13739 0.0
C519 C 0.44393 0.43114 0.19705 0.0
C520 C 0.42683 0.4747 0.12988 0.0
C521 C 0.41395 0.4795 0.16792 0.0
C522 C 0.43045 0.44487 0.18396 0.0
C523 C 0.40805 0.46524 0.21219 0.0
C524 C 0.45422 0.43364 0.2452 0.0
C525 C 0.46567 0.41004 0.1691 0.0
N526 N 0.41696 0.44904 0.2196 0.0
N527 N 0.4497 0.41914 0.16069 0.0
H528 H 0.05289 0.47447 0.45998 0.0
H529 H 0.95295 0.42194 0.25784 0.0
H530 H 0.0742 0.46199 0.3133 0.0
H531 H 0.93325 0.38968 0.406 0.0
H532 H 0.9973 0.43523 0.27506 0.0
H533 H 0.00898 0.44233 0.44228 0.0
C534 C 0.04837 0.46443 0.42457 0.0
C535 C 0.06705 0.47082 0.38799 0.0
C536 C 0.98315 0.42457 0.30323 0.0
C537 C 0.01694 0.43487 0.36683 0.0
C538 C 0.9579 0.417 0.29341 0.0
C539 C 0.93953 0.40484 0.33066 0.0
C540 C 0.99011 0.42078 0.35123 0.0
C541 C 0.94688 0.39898 0.37626 0.0
C542 C 0.02338 0.4461 0.4145 0.0
C543 C 0.06028 0.45746 0.34253 0.0
N544 N 0.97175 0.4077 0.3859 0.0
N545 N 0.03559 0.44059 0.33259 0.0
H546 H 0.52572 0.95059 0.43236 0.0
H547 H 0.58014 0.05416 0.6303 0.0
H548 H 0.5403 0.93235 0.5802 0.0
H549 H 0.60941 0.07217 0.47977 0.0
H550 H 0.56628 0.00956 0.61433 0.0
H551 H 0.55696 0.99512 0.44739 0.0
C552 C 0.53599 0.95593 0.46751 0.0
C553 C 0.53046 0.93789 0.50517 0.0
C554 C 0.57637 0.02336 0.58526 0.0
C555 C 0.56543 0.98872 0.52323 0.0
C556 C 0.58426 0.04876 0.59436 0.0
C557 C 0.59593 0.06675 0.55629 0.0
C558 C 0.57929 0.01584 0.53715 0.0
C559 C 0.60063 0.05883 0.51017 0.0
C560 C 0.55382 0.98128 0.47604 0.0
C561 C 0.54416 0.94573 0.55017 0.0
N562 N 0.59165 0.03381 0.50135 0.0
N563 N 0.56054 0.97071 0.55854 0.0
H564 H 0.61778 0.5435 0.74935 0.0
H565 H 0.54739 0.61534 0.64973 0.0
H566 H 0.58146 0.52944 0.60493 0.0
H567 H 0.53801 0.5856 0.79967 0.0
H568 H 0.57779 0.60107 0.63253 0.0
H569 H 0.60598 0.57591 0.76556 0.0
C570 C 0.6081 0.54786 0.7204 0.0
C571 C 0.60029 0.53367 0.67596 0.0
C572 C 0.56968 0.59849 0.66966 0.0
C573 C 0.58724 0.57073 0.69391 0.0
C574 C 0.55253 0.60676 0.67964 0.0
C575 C 0.54008 0.60138 0.72603 0.0
C576 C 0.57473 0.58532 0.70675 0.0
C577 C 0.54711 0.58989 0.76332 0.0
C578 C 0.60132 0.56621 0.72978 0.0
C579 C 0.58758 0.53984 0.63984 0.0
N580 N 0.56384 0.58201 0.75274 0.0
N581 N 0.58128 0.55783 0.64972 0.0
H582 H 0.07687 0.61251 0.91564 0.0
H583 H 0.9348 0.54224 0.81495 0.0
H584 H 0.05608 0.57909 0.76851 0.0
H585 H 0.95531 0.52958 0.96229 0.0
H586 H 0.97951 0.5729 0.7984 0.0
H587 H 0.03231 0.59915 0.93194 0.0
C588 C 0.06307 0.6032 0.88613 0.0
C589 C 0.07 0.59665 0.84083 0.0
C590 C 0.97401 0.56396 0.83486 0.0
C591 C 0.01943 0.58173 0.85898 0.0
C592 C 0.94858 0.54666 0.84447 0.0
C593 C 0.94151 0.53334 0.88995 0.0
C594 C 0.99225 0.56833 0.87148 0.0
C595 C 0.9601 0.53942 0.9267 0.0
C596 C 0.03772 0.59548 0.89559 0.0
C597 C 0.05138 0.58428 0.80405 0.0
N598 N 0.9847 0.55639 0.91656 0.0
N599 N 0.02687 0.57705 0.81403 0.0
loop_
_geom_bond_atom_site_label_1
_geom_bond_atom_site_label_2
_geom_bond_distance
_geom_bond_site_symmetry_2
_ccdc_geom_bond_type
Co0 O1 2.216 . S
Co0 O2 2.091 . S
Co0 O4 2.004 . S
Co0 O10 2.021 . S
Co0 O12 2.137 1_554 S
Co0 O13 2.244 . S
O1 Co0 2.216 . S
O1 C8 1.247 . S
O2 Co0 2.091 . S
O2 C8 1.261 . S
C3 O12 1.247 . S
C3 O13 1.272 1_556 S
O4 Co0 2.004 . S
O4 C9 1.259 . S
Co5 O6 2.061 . S
Co5 O11 2.052 . S
Co5 O13 2.135 . S
O6 Co5 2.061 . S
O6 C9 1.235 . S
C7 O10 1.238 . S
C7 O11 1.241 . S
C8 O1 1.247 . S
C8 O2 1.261 . S
C9 O4 1.259 . S
C9 O6 1.235 . S
O10 Co0 2.021 . S
O10 C7 1.238 . S
O11 Co5 2.052 . S
O11 C7 1.241 . S
O12 Co0 2.137 1_556 S
O12 C3 1.247 . S
O13 Co0 2.244 . S
O13 C3 1.272 1_554 S
O13 Co5 2.135 . S
Co14 O15 2.216 . S
Co14 O16 2.091 . S
Co14 O18 2.004 . S
Co14 O24 2.021 . S
Co14 O26 2.137 . S
Co14 O27 2.244 . S
O15 Co14 2.216 . S
O15 C22 1.247 . S
O16 Co14 2.091 . S
O16 C22 1.261 . S
C17 O26 1.247 . S
C17 O27 1.272 . S
O18 Co14 2.004 . S
O18 C23 1.259 . S
Co19 O20 2.061 . S
Co19 O25 2.052 . S
Co19 O27 2.135 . S
O20 Co19 2.061 . S
O20 C23 1.235 . S
C21 O24 1.238 . S
C21 O25 1.241 . S
C22 O15 1.247 . S
C22 O16 1.261 . S
C23 O18 1.259 . S
C23 O20 1.235 . S
O24 Co14 2.021 . S
O24 C21 1.238 . S
O25 Co19 2.052 . S
O25 C21 1.241 . S
O26 Co14 2.137 . S
O26 C17 1.247 . S
O27 Co14 2.244 . S
O27 C17 1.272 . S
O27 Co19 2.135 . S
Co28 O29 2.216 . S
Co28 O30 2.091 . S
Co28 O32 2.004 . S
Co28 O38 2.021 . S
Co28 O40 2.137 . S
Co28 O41 2.244 . S
O29 Co28 2.216 . S
O29 C36 1.247 . S
O30 Co28 2.091 . S
O30 C36 1.261 . S
C31 O40 1.247 . S
C31 O41 1.272 . S
O32 Co28 2.004 . S
O32 C37 1.259 . S
Co33 O34 2.061 . S
Co33 O39 2.052 . S
Co33 O41 2.135 . S
O34 Co33 2.061 . S
O34 C37 1.235 . S
C35 O38 1.238 . S
C35 O39 1.241 . S
C36 O29 1.247 . S
C36 O30 1.261 . S
C37 O32 1.259 . S
C37 O34 1.235 . S
O38 Co28 2.021 . S
O38 C35 1.238 . S
O39 Co33 2.052 . S
O39 C35 1.241 . S
O40 Co28 2.137 . S
O40 C31 1.247 . S
O41 Co28 2.244 . S
O41 C31 1.272 . S
O41 Co33 2.135 . S
Co42 O43 2.216 . S
Co42 O44 2.091 . S
Co42 O46 2.004 . S
Co42 O52 2.021 . S
Co42 O54 2.137 . S
Co42 O55 2.244 . S
O43 Co42 2.216 . S
O43 C50 1.247 . S
O44 Co42 2.091 . S
O44 C50 1.261 . S
C45 O54 1.247 . S
C45 O55 1.272 . S
O46 Co42 2.004 . S
O46 C51 1.259 . S
Co47 O48 2.061 . S
Co47 O53 2.052 . S
Co47 O55 2.135 . S
O48 Co47 2.061 . S
O48 C51 1.235 . S
C49 O52 1.238 . S
C49 O53 1.241 . S
C50 O43 1.247 . S
C50 O44 1.261 . S
C51 O46 1.259 . S
C51 O48 1.235 . S
O52 Co42 2.021 . S
O52 C49 1.238 . S
O53 Co47 2.052 . S
O53 C49 1.241 . S
O54 Co42 2.137 . S
O54 C45 1.247 . S
O55 Co42 2.244 . S
O55 C45 1.272 . S
O55 Co47 2.135 . S
Co56 O57 2.216 . S
Co56 O58 2.091 . S
Co56 O60 2.004 . S
Co56 O66 2.021 . S
Co56 O68 2.137 . S
Co56 O69 2.244 . S
O57 Co56 2.216 . S
O57 C64 1.247 . S
O58 Co56 2.091 . S
O58 C64 1.261 . S
C59 O68 1.247 . S
C59 O69 1.272 . S
O60 Co56 2.004 . S
O60 C65 1.259 . S
Co61 O62 2.061 . S
Co61 O67 2.052 . S
Co61 O69 2.135 . S
O62 Co61 2.061 . S
O62 C65 1.235 . S
C63 O66 1.238 . S
C63 O67 1.241 . S
C64 O57 1.247 . S
C64 O58 1.261 . S
C65 O60 1.259 . S
C65 O62 1.235 . S
O66 Co56 2.021 . S
O66 C63 1.238 . S
O67 Co61 2.052 . S
O67 C63 1.241 . S
O68 Co56 2.137 . S
O68 C59 1.247 . S
O69 Co56 2.244 . S
O69 C59 1.272 . S
O69 Co61 2.135 . S
Co70 O71 2.216 . S
Co70 O72 2.091 . S
Co70 O74 2.004 . S
Co70 O80 2.021 . S
Co70 O82 2.137 . S
Co70 O83 2.244 . S
O71 Co70 2.216 . S
O71 C78 1.247 . S
O72 Co70 2.091 . S
O72 C78 1.261 . S
C73 O82 1.247 . S
C73 O83 1.272 . S
O74 Co70 2.004 . S
O74 C79 1.259 . S
Co75 O76 2.061 . S
Co75 O81 2.052 . S
Co75 O83 2.135 . S
O76 Co75 2.061 . S
O76 C79 1.235 . S
C77 O80 1.238 . S
C77 O81 1.241 . S
C78 O71 1.247 . S
C78 O72 1.261 . S
C79 O74 1.259 . S
C79 O76 1.235 . S
O80 Co70 2.021 . S
O80 C77 1.238 . S
O81 Co75 2.052 . S
O81 C77 1.241 . S
O82 Co70 2.137 . S
O82 C73 1.247 . S
O83 Co70 2.244 . S
O83 C73 1.272 . S
O83 Co75 2.135 . S
Co84 O85 2.216 . S
Co84 O86 2.091 . S
Co84 O88 2.004 . S
Co84 O94 2.021 . S
Co84 O96 2.137 . S
Co84 O97 2.244 . S
O85 Co84 2.216 . S
O85 C92 1.247 . S
O86 Co84 2.091 . S
O86 C92 1.261 . S
C87 O96 1.247 . S
C87 O97 1.272 . S
O88 Co84 2.004 . S
O88 C93 1.259 . S
Co89 O90 2.061 . S
Co89 O95 2.052 . S
Co89 O97 2.135 . S
O90 Co89 2.061 . S
O90 C93 1.235 . S
C91 O94 1.238 . S
C91 O95 1.241 . S
C92 O85 1.247 . S
C92 O86 1.261 . S
C93 O88 1.259 . S
C93 O90 1.235 . S
O94 Co84 2.021 . S
O94 C91 1.238 . S
O95 Co89 2.052 . S
O95 C91 1.241 . S
O96 Co84 2.137 . S
O96 C87 1.247 . S
O97 Co84 2.244 . S
O97 C87 1.272 . S
O97 Co89 2.135 . S
Co98 O99 2.216 . S
Co98 O100 2.091 . S
Co98 O102 2.004 . S
Co98 O108 2.021 1_554 S
Co98 O110 2.137 . S
Co98 O111 2.244 . S
O99 Co98 2.216 . S
O99 C106 1.247 . S
O100 Co98 2.091 . S
O100 C106 1.261 . S
C101 O110 1.247 . S
C101 O111 1.272 . S
O102 Co98 2.004 . S
O102 C107 1.259 . S
Co103 O104 2.061 . S
Co103 O109 2.052 1_554 S
Co103 O111 2.135 . S
O104 Co103 2.061 . S
O104 C107 1.235 . S
C105 O108 1.238 . S
C105 O109 1.241 . S
C106 O99 1.247 . S
C106 O100 1.261 . S
C107 O102 1.259 . S
C107 O104 1.235 . S
O108 Co98 2.021 1_556 S
O108 C105 1.238 . S
O109 Co103 2.052 1_556 S
O109 C105 1.241 . S
O110 Co98 2.137 . S
O110 C101 1.247 . S
O111 Co98 2.244 . S
O111 C101 1.272 . S
O111 Co103 2.135 . S
Co112 O113 2.216 . S
Co112 O114 2.091 . S
Co112 O116 2.004 . S
Co112 O122 2.021 . S
Co112 O124 2.137 . S
Co112 O125 2.244 . S
O113 Co112 2.216 . S
O113 C120 1.247 . S
O114 Co112 2.091 . S
O114 C120 1.261 . S
C115 O124 1.247 . S
C115 O125 1.272 . S
O116 Co112 2.004 . S
O116 C121 1.259 . S
Co117 O118 2.061 . S
Co117 O123 2.052 . S
Co117 O125 2.135 . S
O118 Co117 2.061 . S
O118 C121 1.235 . S
C119 O122 1.238 . S
C119 O123 1.241 . S
C120 O113 1.247 . S
C120 O114 1.261 . S
C121 O116 1.259 . S
C121 O118 1.235 . S
O122 Co112 2.021 . S
O122 C119 1.238 . S
O123 Co117 2.052 . S
O123 C119 1.241 . S
O124 Co112 2.137 . S
O124 C115 1.247 . S
O125 Co112 2.244 . S
O125 C115 1.272 . S
O125 Co117 2.135 . S
Co126 O127 2.216 . S
Co126 O128 2.091 . S
Co126 O130 2.004 . S
Co126 O136 2.021 . S
Co126 O138 2.137 . S
Co126 O139 2.244 . S
O127 Co126 2.216 . S
O127 C134 1.247 . S
O128 Co126 2.091 . S
O128 C134 1.261 . S
C129 O138 1.247 . S
C129 O139 1.272 . S
O130 Co126 2.004 . S
O130 C135 1.259 . S
Co131 O132 2.061 . S
Co131 O137 2.052 . S
Co131 O139 2.135 . S
O132 Co131 2.061 . S
O132 C135 1.235 . S
C133 O136 1.238 . S
C133 O137 1.241 . S
C134 O127 1.247 . S
C134 O128 1.261 . S
C135 O130 1.259 . S
C135 O132 1.235 . S
O136 Co126 2.021 . S
O136 C133 1.238 . S
O137 Co131 2.052 . S
O137 C133 1.241 . S
O138 Co126 2.137 . S
O138 C129 1.247 . S
O139 Co126 2.244 . S
O139 C129 1.272 . S
O139 Co131 2.135 . S
Co140 O141 2.216 . S
Co140 O142 2.091 . S
Co140 O144 2.004 . S
Co140 O150 2.021 . S
Co140 O152 2.137 . S
Co140 O153 2.244 . S
O141 Co140 2.216 . S
O141 C148 1.247 . S
O142 Co140 2.091 . S
O142 C148 1.261 . S
C143 O152 1.247 . S
C143 O153 1.272 . S
O144 Co140 2.004 . S
O144 C149 1.259 . S
Co145 O146 2.061 . S
Co145 O151 2.052 . S
Co145 O153 2.135 . S
O146 Co145 2.061 . S
O146 C149 1.235 . S
C147 O150 1.238 . S
C147 O151 1.241 . S
C148 O141 1.247 . S
C148 O142 1.261 . S
C149 O144 1.259 . S
C149 O146 1.235 . S
O150 Co140 2.021 . S
O150 C147 1.238 . S
O151 Co145 2.052 . S
O151 C147 1.241 . S
O152 Co140 2.137 . S
O152 C143 1.247 . S
O153 Co140 2.244 . S
O153 C143 1.272 . S
O153 Co145 2.135 . S
Co154 O155 2.216 . S
Co154 O156 2.091 . S
Co154 O158 2.004 . S
Co154 O164 2.021 . S
Co154 O166 2.137 . S
Co154 O167 2.244 . S
O155 Co154 2.216 . S
O155 C162 1.247 . S
O156 Co154 2.091 . S
O156 C162 1.261 . S
C157 O166 1.247 . S
C157 O167 1.272 . S
O158 Co154 2.004 . S
O158 C163 1.259 . S
Co159 O160 2.061 . S
Co159 O165 2.052 . S
Co159 O167 2.135 . S
O160 Co159 2.061 . S
O160 C163 1.235 . S
C161 O164 1.238 . S
C161 O165 1.241 . S
C162 O155 1.247 . S
C162 O156 1.261 . S
C163 O158 1.259 . S
C163 O160 1.235 . S
O164 Co154 2.021 . S
O164 C161 1.238 . S
O165 Co159 2.052 . S
O165 C161 1.241 . S
O166 Co154 2.137 . S
O166 C157 1.247 . S
O167 Co154 2.244 . S
O167 C157 1.272 . S
O167 Co159 2.135 . S
H168 C174 0.930 . S
H169 C178 0.930 . S
H170 C183 0.929 . S
H171 C181 0.929 . S
H172 C176 0.929 . S
H173 C182 0.929 . S
C174 H168 0.930 . S
C174 C175 1.367 . S
C174 C182 1.378 . S
C175 C174 1.367 . S
C175 C183 1.433 . S
C176 H172 0.929 . S
C176 C178 1.378 . S
C176 C180 1.350 . S
C177 C180 1.463 . S
C177 C182 1.350 . S
C177 N185 1.427 . S
C178 H169 0.930 . S
C178 C176 1.378 . S
C178 C179 1.367 . S
C179 C178 1.367 . S
C179 C181 1.433 . S
C180 C176 1.350 . S
C180 C177 1.463 . S
C180 N184 1.427 . S
C181 H171 0.929 . S
C181 C179 1.433 . S
C181 N184 1.384 . S
C182 H173 0.929 . S
C182 C174 1.378 . S
C182 C177 1.350 . S
C183 H170 0.929 . S
C183 C175 1.433 . S
C183 N185 1.384 . S
N184 C180 1.427 . S
N184 C181 1.384 . S
N185 C177 1.427 . S
N185 C183 1.384 . S
H186 C192 0.930 . S
H187 C196 0.930 . S
H188 C201 0.929 . S
H189 C199 0.929 . S
H190 C194 0.929 . S
H191 C200 0.929 . S
C192 H186 0.930 . S
C192 C193 1.367 . S
C192 C200 1.378 . S
C193 C192 1.367 . S
C193 C201 1.433 . S
C194 H190 0.929 . S
C194 C196 1.378 . S
C194 C198 1.350 . S
C195 C198 1.463 . S
C195 C200 1.350 . S
C195 N203 1.427 . S
C196 H187 0.930 . S
C196 C194 1.378 . S
C196 C197 1.367 . S
C197 C196 1.367 . S
C197 C199 1.433 . S
C198 C194 1.350 . S
C198 C195 1.463 . S
C198 N202 1.427 . S
C199 H189 0.929 . S
C199 C197 1.433 . S
C199 N202 1.384 . S
C200 H191 0.929 . S
C200 C192 1.378 . S
C200 C195 1.350 . S
C201 H188 0.929 . S
C201 C193 1.433 . S
C201 N203 1.384 . S
N202 C198 1.427 . S
N202 C199 1.384 . S
N203 C195 1.427 . S
N203 C201 1.384 . S
H204 C210 0.930 . S
H205 C214 0.930 . S
H206 C219 0.929 . S
H207 C217 0.929 . S
H208 C212 0.929 . S
H209 C218 0.929 . S
C210 H204 0.930 . S
C210 C211 1.367 . S
C210 C218 1.378 . S
C211 C210 1.367 . S
C211 C219 1.433 . S
C212 H208 0.929 . S
C212 C214 1.378 . S
C212 C216 1.350 . S
C213 C216 1.463 . S
C213 C218 1.350 . S
C213 N221 1.427 . S
C214 H205 0.930 . S
C214 C212 1.378 . S
C214 C215 1.367 . S
C215 C214 1.367 . S
C215 C217 1.433 . S
C216 C212 1.350 . S
C216 C213 1.463 . S
C216 N220 1.427 . S
C217 H207 0.929 . S
C217 C215 1.433 . S
C217 N220 1.384 . S
C218 H209 0.929 . S
C218 C210 1.378 . S
C218 C213 1.350 . S
C219 H206 0.929 . S
C219 C211 1.433 . S
C219 N221 1.384 . S
N220 C216 1.427 . S
N220 C217 1.384 . S
N221 C213 1.427 . S
N221 C219 1.384 . S
H222 C228 0.930 . S
H223 C232 0.930 . S
H224 C237 0.929 . S
H225 C235 0.929 . S
H226 C230 0.929 . S
H227 C236 0.929 . S
C228 H222 0.930 . S
C228 C229 1.367 . S
C228 C236 1.378 . S
C229 C228 1.367 . S
C229 C237 1.433 . S
C230 H226 0.929 . S
C230 C232 1.378 . S
C230 C234 1.350 . S
C231 C234 1.463 . S
C231 C236 1.350 . S
C231 N239 1.427 . S
C232 H223 0.930 . S
C232 C230 1.378 . S
C232 C233 1.367 . S
C233 C232 1.367 . S
C233 C235 1.433 . S
C234 C230 1.350 . S
C234 C231 1.463 . S
C234 N238 1.427 . S
C235 H225 0.929 . S
C235 C233 1.433 . S
C235 N238 1.384 . S
C236 H227 0.929 . S
C236 C228 1.378 . S
C236 C231 1.350 . S
C237 H224 0.929 . S
C237 C229 1.433 . S
C237 N239 1.384 . S
N238 C234 1.427 . S
N238 C235 1.384 . S
N239 C231 1.427 . S
N239 C237 1.384 . S
H240 C246 0.930 . S
H241 C250 0.930 . S
H242 C255 0.929 . S
H243 C253 0.929 . S
H244 C248 0.929 . S
H245 C254 0.929 . S
C246 H240 0.930 . S
C246 C247 1.367 . S
C246 C254 1.378 1_554 S
C247 C246 1.367 . S
C247 C255 1.433 . S
C248 H244 0.929 . S
C248 C250 1.378 . S
C248 C252 1.350 . S
C249 C252 1.463 . S
C249 C254 1.350 . S
C249 N257 1.427 1_556 S
C250 H241 0.930 . S
C250 C248 1.378 . S
C250 C251 1.367 . S
C251 C250 1.367 . S
C251 C253 1.433 . S
C252 C248 1.350 . S
C252 C249 1.463 . S
C252 N256 1.427 . S
C253 H243 0.929 . S
C253 C251 1.433 . S
C253 N256 1.384 . S
C254 H245 0.929 . S
C254 C246 1.378 1_556 S
C254 C249 1.350 . S
C255 H242 0.929 . S
C255 C247 1.433 . S
C255 N257 1.384 . S
N256 C252 1.427 . S
N256 C253 1.384 . S
N257 C249 1.427 1_554 S
N257 C255 1.384 . S
H258 C264 0.930 . S
H259 C268 0.930 1_556 S
H260 C273 0.929 . S
H261 C271 0.929 . S
H262 C266 0.929 . S
H263 C272 0.929 . S
C264 H258 0.930 . S
C264 C265 1.367 . S
C264 C272 1.378 . S
C265 C264 1.367 . S
C265 C273 1.433 . S
C266 H262 0.929 . S
C266 C268 1.378 . S
C266 C270 1.350 . S
C267 C270 1.463 . S
C267 C272 1.350 . S
C267 N275 1.427 . S
C268 H259 0.930 1_554 S
C268 C266 1.378 . S
C268 C269 1.367 . S
C269 C268 1.367 . S
C269 C271 1.433 . S
C270 C266 1.350 . S
C270 C267 1.463 . S
C270 N274 1.427 . S
C271 H261 0.929 . S
C271 C269 1.433 . S
C271 N274 1.384 . S
C272 H263 0.929 . S
C272 C264 1.378 . S
C272 C267 1.350 . S
C273 H260 0.929 . S
C273 C265 1.433 . S
C273 N275 1.384 . S
N274 C270 1.427 . S
N274 C271 1.384 . S
N275 C267 1.427 . S
N275 C273 1.384 . S
H276 C282 0.930 . S
H277 C286 0.930 . S
H278 C291 0.929 . S
H279 C289 0.929 . S
H280 C284 0.929 . S
H281 C290 0.929 . S
C282 H276 0.930 . S
C282 C283 1.367 . S
C282 C290 1.378 . S
C283 C282 1.367 . S
C283 C291 1.433 . S
C284 H280 0.929 . S
C284 C286 1.378 . S
C284 C288 1.350 . S
C285 C288 1.463 . S
C285 C290 1.350 . S
C285 N293 1.427 . S
C286 H277 0.930 . S
C286 C284 1.378 . S
C286 C287 1.367 . S
C287 C286 1.367 . S
C287 C289 1.433 . S
C288 C284 1.350 . S
C288 C285 1.463 . S
C288 N292 1.427 . S
C289 H279 0.929 . S
C289 C287 1.433 . S
C289 N292 1.384 . S
C290 H281 0.929 . S
C290 C282 1.378 . S
C290 C285 1.350 . S
C291 H278 0.929 . S
C291 C283 1.433 . S
C291 N293 1.384 . S
N292 C288 1.427 . S
N292 C289 1.384 . S
N293 C285 1.427 . S
N293 C291 1.384 . S
H294 C300 0.930 . S
H295 C304 0.930 . S
H296 C309 0.929 . S
H297 C307 0.929 . S
H298 C302 0.929 . S
H299 C308 0.929 . S
C300 H294 0.930 . S
C300 C301 1.367 . S
C300 C308 1.378 . S
C301 C300 1.367 . S
C301 C309 1.433 . S
C302 H298 0.929 . S
C302 C304 1.378 . S
C302 C306 1.350 . S
C303 C306 1.463 . S
C303 C308 1.350 . S
C303 N311 1.427 . S
C304 H295 0.930 . S
C304 C302 1.378 . S
C304 C305 1.367 . S
C305 C304 1.367 . S
C305 C307 1.433 . S
C306 C302 1.350 . S
C306 C303 1.463 . S
C306 N310 1.427 . S
C307 H297 0.929 . S
C307 C305 1.433 . S
C307 N310 1.384 . S
C308 H299 0.929 . S
C308 C300 1.378 . S
C308 C303 1.350 . S
C309 H296 0.929 . S
C309 C301 1.433 . S
C309 N311 1.384 . S
N310 C306 1.427 . S
N310 C307 1.384 . S
N311 C303 1.427 . S
N311 C309 1.384 . S
H312 C318 0.930 . S
H313 C322 0.930 . S
H314 C327 0.929 . S
H315 C325 0.929 . S
H316 C320 0.929 . S
H317 C326 0.929 . S
C318 H312 0.930 . S
C318 C319 1.367 . S
C318 C326 1.378 . S
C319 C318 1.367 . S
C319 C327 1.433 . S
C320 H316 0.929 . S
C320 C322 1.378 . S
C320 C324 1.350 . S
C321 C324 1.463 . S
C321 C326 1.350 . S
C321 N329 1.427 . S
C322 H313 0.930 . S
C322 C320 1.378 . S
C322 C323 1.367 . S
C323 C322 1.367 . S
C323 C325 1.433 . S
C324 C320 1.350 . S
C324 C321 1.463 . S
C324 N328 1.427 . S
C325 H315 0.929 . S
C325 C323 1.433 . S
C325 N328 1.384 . S
C326 H317 0.929 . S
C326 C318 1.378 . S
C326 C321 1.350 . S
C327 H314 0.929 . S
C327 C319 1.433 . S
C327 N329 1.384 . S
N328 C324 1.427 . S
N328 C325 1.384 . S
N329 C321 1.427 . S
N329 C327 1.384 . S
H330 C336 0.930 . S
H331 C340 0.930 . S
H332 C345 0.929 . S
H333 C343 0.929 . S
H334 C338 0.929 . S
H335 C344 0.929 . S
C336 H330 0.930 . S
C336 C337 1.367 . S
C336 C344 1.378 . S
C337 C336 1.367 . S
C337 C345 1.433 . S
C338 H334 0.929 . S
C338 C340 1.378 . S
C338 C342 1.350 . S
C339 C342 1.463 . S
C339 C344 1.350 . S
C339 N347 1.427 . S
C340 H331 0.930 . S
C340 C338 1.378 . S
C340 C341 1.367 . S
C341 C340 1.367 . S
C341 C343 1.433 . S
C342 C338 1.350 . S
C342 C339 1.463 . S
C342 N346 1.427 . S
C343 H333 0.929 . S
C343 C341 1.433 . S
C343 N346 1.384 . S
C344 H335 0.929 . S
C344 C336 1.378 . S
C344 C339 1.350 . S
C345 H332 0.929 . S
C345 C337 1.433 . S
C345 N347 1.384 . S
N346 C342 1.427 . S
N346 C343 1.384 . S
N347 C339 1.427 . S
N347 C345 1.384 . S
H348 C354 0.930 . S
H349 C358 0.930 . S
H350 C363 0.929 . S
H351 C361 0.929 . S
H352 C356 0.929 . S
H353 C362 0.929 . S
C354 H348 0.930 . S
C354 C355 1.367 . S
C354 C362 1.378 . S
C355 C354 1.367 . S
C355 C363 1.433 . S
C356 H352 0.929 . S
C356 C358 1.378 . S
C356 C360 1.350 . S
C357 C360 1.463 . S
C357 C362 1.350 . S
C357 N365 1.427 . S
C358 H349 0.930 . S
C358 C356 1.378 . S
C358 C359 1.367 . S
C359 C358 1.367 . S
C359 C361 1.433 . S
C360 C356 1.350 . S
C360 C357 1.463 . S
C360 N364 1.427 . S
C361 H351 0.929 . S
C361 C359 1.433 . S
C361 N364 1.384 . S
C362 H353 0.929 . S
C362 C354 1.378 . S
C362 C357 1.350 . S
C363 H350 0.929 . S
C363 C355 1.433 . S
C363 N365 1.384 . S
N364 C360 1.427 . S
N364 C361 1.384 . S
N365 C357 1.427 . S
N365 C363 1.384 . S
H366 C372 0.930 . S
H367 C376 0.930 . S
H368 C381 0.929 . S
H369 C379 0.929 . S
H370 C374 0.929 . S
H371 C380 0.929 . S
C372 H366 0.930 . S
C372 C373 1.367 . S
C372 C380 1.378 . S
C373 C372 1.367 . S
C373 C381 1.433 . S
C374 H370 0.929 . S
C374 C376 1.378 . S
C374 C378 1.350 . S
C375 C378 1.463 . S
C375 C380 1.350 . S
C375 N383 1.427 . S
C376 H367 0.930 . S
C376 C374 1.378 . S
C376 C377 1.367 1_556 S
C377 C376 1.367 1_554 S
C377 C379 1.433 . S
C378 C374 1.350 . S
C378 C375 1.463 . S
C378 N382 1.427 . S
C379 H369 0.929 . S
C379 C377 1.433 . S
C379 N382 1.384 1_554 S
C380 H371 0.929 . S
C380 C372 1.378 . S
C380 C375 1.350 . S
C381 H368 0.929 . S
C381 C373 1.433 . S
C381 N383 1.384 . S
N382 C378 1.427 . S
N382 C379 1.384 1_556 S
N383 C375 1.427 . S
N383 C381 1.384 . S
H384 C390 0.930 . S
H385 C394 0.930 . S
H386 C399 0.929 . S
H387 C397 0.929 . S
H388 C392 0.929 . S
H389 C398 0.929 . S
C390 H384 0.930 . S
C390 C391 1.367 . S
C390 C398 1.378 . S
C391 C390 1.367 . S
C391 C399 1.433 . S
C392 H388 0.929 . S
C392 C394 1.378 . S
C392 C396 1.350 . S
C393 C396 1.463 . S
C393 C398 1.350 . S
C393 N401 1.427 . S
C394 H385 0.930 . S
C394 C392 1.378 . S
C394 C395 1.367 . S
C395 C394 1.367 . S
C395 C397 1.433 . S
C396 C392 1.350 . S
C396 C393 1.463 . S
C396 N400 1.427 . S
C397 H387 0.929 . S
C397 C395 1.433 . S
C397 N400 1.384 . S
C398 H389 0.929 . S
C398 C390 1.378 . S
C398 C393 1.350 . S
C399 H386 0.929 . S
C399 C391 1.433 . S
C399 N401 1.384 . S
N400 C396 1.427 . S
N400 C397 1.384 . S
N401 C393 1.427 . S
N401 C399 1.384 . S
H402 C408 0.930 . S
H403 C412 0.930 . S
H404 C417 0.929 . S
H405 C415 0.929 . S
H406 C410 0.929 . S
H407 C416 0.929 . S
C408 H402 0.930 . S
C408 C409 1.367 . S
C408 C416 1.378 . S
C409 C408 1.367 . S
C409 C417 1.433 . S
C410 H406 0.929 . S
C410 C412 1.378 . S
C410 C414 1.350 1_554 S
C411 C414 1.463 . S
C411 C416 1.350 . S
C411 N419 1.427 . S
C412 H403 0.930 . S
C412 C410 1.378 . S
C412 C413 1.367 . S
C413 C412 1.367 . S
C413 C415 1.433 . S
C414 C410 1.350 1_556 S
C414 C411 1.463 . S
C414 N418 1.427 . S
C415 H405 0.929 . S
C415 C413 1.433 . S
C415 N418 1.384 1_554 S
C416 H407 0.929 . S
C416 C408 1.378 . S
C416 C411 1.350 . S
C417 H404 0.929 . S
C417 C409 1.433 . S
C417 N419 1.384 . S
N418 C414 1.427 . S
N418 C415 1.384 1_556 S
N419 C411 1.427 . S
N419 C417 1.384 . S
H420 C426 0.930 1_556 S
H421 C430 0.930 . S
H422 C435 0.929 . S
H423 C433 0.929 . S
H424 C428 0.929 . S
H425 C434 0.929 . S
C426 H420 0.930 1_554 S
C426 C427 1.367 . S
C426 C434 1.378 . S
C427 C426 1.367 . S
C427 C435 1.433 . S
C428 H424 0.929 . S
C428 C430 1.378 . S
C428 C432 1.350 . S
C429 C432 1.463 . S
C429 C434 1.350 . S
C429 N437 1.427 . S
C430 H421 0.930 . S
C430 C428 1.378 . S
C430 C431 1.367 . S
C431 C430 1.367 . S
C431 C433 1.433 . S
C432 C428 1.350 . S
C432 C429 1.463 . S
C432 N436 1.427 . S
C433 H423 0.929 . S
C433 C431 1.433 . S
C433 N436 1.384 . S
C434 H425 0.929 . S
C434 C426 1.378 . S
C434 C429 1.350 . S
C435 H422 0.929 . S
C435 C427 1.433 . S
C435 N437 1.384 . S
N436 C432 1.427 . S
N436 C433 1.384 . S
N437 C429 1.427 . S
N437 C435 1.384 . S
H438 C444 0.930 . S
H439 C448 0.930 . S
H440 C453 0.929 . S
H441 C451 0.929 . S
H442 C446 0.929 . S
H443 C452 0.929 . S
C444 H438 0.930 . S
C444 C445 1.367 . S
C444 C452 1.378 . S
C445 C444 1.367 . S
C445 C453 1.433 . S
C446 H442 0.929 . S
C446 C448 1.378 . S
C446 C450 1.350 . S
C447 C450 1.463 . S
C447 C452 1.350 . S
C447 N455 1.427 . S
C448 H439 0.930 . S
C448 C446 1.378 . S
C448 C449 1.367 . S
C449 C448 1.367 . S
C449 C451 1.433 . S
C450 C446 1.350 . S
C450 C447 1.463 . S
C450 N454 1.427 . S
C451 H441 0.929 . S
C451 C449 1.433 . S
C451 N454 1.384 . S
C452 H443 0.929 . S
C452 C444 1.378 . S
C452 C447 1.350 . S
C453 H440 0.929 . S
C453 C445 1.433 . S
C453 N455 1.384 . S
N454 C450 1.427 . S
N454 C451 1.384 . S
N455 C447 1.427 . S
N455 C453 1.384 . S
H456 C462 0.930 . S
H457 C466 0.930 . S
H458 C471 0.929 . S
H459 C469 0.929 . S
H460 C464 0.929 . S
H461 C470 0.929 . S
C462 H456 0.930 . S
C462 C463 1.367 . S
C462 C470 1.378 . S
C463 C462 1.367 . S
C463 C471 1.433 . S
C464 H460 0.929 . S
C464 C466 1.378 . S
C464 C468 1.350 . S
C465 C468 1.463 . S
C465 C470 1.350 . S
C465 N473 1.427 . S
C466 H457 0.930 . S
C466 C464 1.378 . S
C466 C467 1.367 . S
C467 C466 1.367 . S
C467 C469 1.433 . S
C468 C464 1.350 . S
C468 C465 1.463 . S
C468 N472 1.427 . S
C469 H459 0.929 . S
C469 C467 1.433 . S
C469 N472 1.384 . S
C470 H461 0.929 . S
C470 C462 1.378 . S
C470 C465 1.350 . S
C471 H458 0.929 . S
C471 C463 1.433 . S
C471 N473 1.384 . S
N472 C468 1.427 . S
N472 C469 1.384 . S
N473 C465 1.427 . S
N473 C471 1.384 . S
H474 C480 0.930 . S
H475 C484 0.930 . S
H476 C489 0.929 . S
H477 C487 0.929 . S
H478 C482 0.929 . S
H479 C488 0.929 . S
C480 H474 0.930 . S
C480 C481 1.367 . S
C480 C488 1.378 . S
C481 C480 1.367 . S
C481 C489 1.433 . S
C482 H478 0.929 . S
C482 C484 1.378 . S
C482 C486 1.350 . S
C483 C486 1.463 . S
C483 C488 1.350 . S
C483 N491 1.427 . S
C484 H475 0.930 . S
C484 C482 1.378 . S
C484 C485 1.367 . S
C485 C484 1.367 . S
C485 C487 1.433 . S
C486 C482 1.350 . S
C486 C483 1.463 . S
C486 N490 1.427 . S
C487 H477 0.929 . S
C487 C485 1.433 . S
C487 N490 1.384 . S
C488 H479 0.929 . S
C488 C480 1.378 . S
C488 C483 1.350 . S
C489 H476 0.929 . S
C489 C481 1.433 . S
C489 N491 1.384 . S
N490 C486 1.427 . S
N490 C487 1.384 . S
N491 C483 1.427 . S
N491 C489 1.384 . S
H492 C498 0.930 . S
H493 C502 0.930 1_556 S
H494 C507 0.929 1_556 S
H495 C505 0.929 . S
H496 C500 0.929 1_556 S
H497 C506 0.929 . S
C498 H492 0.930 . S
C498 C499 1.367 . S
C498 C506 1.378 . S
C499 C498 1.367 . S
C499 C507 1.433 . S
C500 H496 0.929 1_554 S
C500 C502 1.378 . S
C500 C504 1.350 . S
C501 C504 1.463 1_545 S
C501 C506 1.350 . S
C501 N509 1.427 . S
C502 H493 0.930 1_554 S
C502 C500 1.378 . S
C502 C503 1.367 . S
C503 C502 1.367 . S
C503 C505 1.433 . S
C504 C500 1.350 . S
C504 C501 1.463 1_565 S
C504 N508 1.427 . S
C505 H495 0.929 . S
C505 C503 1.433 . S
C505 N508 1.384 . S
C506 H497 0.929 . S
C506 C498 1.378 . S
C506 C501 1.350 . S
C507 H494 0.929 1_554 S
C507 C499 1.433 . S
C507 N509 1.384 . S
N508 C504 1.427 . S
N508 C505 1.384 . S
N509 C501 1.427 . S
N509 C507 1.384 . S
H510 C516 0.930 . S
H511 C520 0.930 . S
H512 C525 0.929 . S
H513 C523 0.929 . S
H514 C518 0.929 . S
H515 C524 0.929 . S
C516 H510 0.930 . S
C516 C517 1.367 . S
C516 C524 1.378 . S
C517 C516 1.367 . S
C517 C525 1.433 . S
C518 H514 0.929 . S
C518 C520 1.378 . S
C518 C522 1.350 . S
C519 C522 1.463 . S
C519 C524 1.350 . S
C519 N527 1.427 . S
C520 H511 0.930 . S
C520 C518 1.378 . S
C520 C521 1.367 . S
C521 C520 1.367 . S
C521 C523 1.433 . S
C522 C518 1.350 . S
C522 C519 1.463 . S
C522 N526 1.427 . S
C523 H513 0.929 . S
C523 C521 1.433 . S
C523 N526 1.384 . S
C524 H515 0.929 . S
C524 C516 1.378 . S
C524 C519 1.350 . S
C525 H512 0.929 . S
C525 C517 1.433 . S
C525 N527 1.384 . S
N526 C522 1.427 . S
N526 C523 1.384 . S
N527 C519 1.427 . S
N527 C525 1.384 . S
H528 C534 0.930 . S
H529 C538 0.930 . S
H530 C543 0.929 . S
H531 C541 0.929 . S
H532 C536 0.929 . S
H533 C542 0.929 . S
C534 H528 0.930 . S
C534 C535 1.367 . S
C534 C542 1.378 . S
C535 C534 1.367 . S
C535 C543 1.433 . S
C536 H532 0.929 . S
C536 C538 1.378 . S
C536 C540 1.350 . S
C537 C540 1.463 1_455 S
C537 C542 1.350 . S
C537 N545 1.427 . S
C538 H529 0.930 . S
C538 C536 1.378 . S
C538 C539 1.367 . S
C539 C538 1.367 . S
C539 C541 1.433 . S
C540 C536 1.350 . S
C540 C537 1.463 1_655 S
C540 N544 1.427 . S
C541 H531 0.929 . S
C541 C539 1.433 . S
C541 N544 1.384 . S
C542 H533 0.929 . S
C542 C534 1.378 . S
C542 C537 1.350 . S
C543 H530 0.929 . S
C543 C535 1.433 . S
C543 N545 1.384 . S
N544 C540 1.427 . S
N544 C541 1.384 . S
N545 C537 1.427 . S
N545 C543 1.384 . S
H546 C552 0.930 . S
H547 C556 0.930 . S
H548 C561 0.929 . S
H549 C559 0.929 . S
H550 C554 0.929 . S
H551 C560 0.929 . S
C552 H546 0.930 . S
C552 C553 1.367 . S
C552 C560 1.378 . S
C553 C552 1.367 . S
C553 C561 1.433 . S
C554 H550 0.929 . S
C554 C556 1.378 . S
C554 C558 1.350 . S
C555 C558 1.463 1_565 S
C555 C560 1.350 . S
C555 N563 1.427 . S
C556 H547 0.930 . S
C556 C554 1.378 . S
C556 C557 1.367 . S
C557 C556 1.367 . S
C557 C559 1.433 . S
C558 C554 1.350 . S
C558 C555 1.463 1_545 S
C558 N562 1.427 . S
C559 H549 0.929 . S
C559 C557 1.433 . S
C559 N562 1.384 . S
C560 H551 0.929 . S
C560 C552 1.378 . S
C560 C555 1.350 . S
C561 H548 0.929 . S
C561 C553 1.433 . S
C561 N563 1.384 . S
N562 C558 1.427 . S
N562 C559 1.384 . S
N563 C555 1.427 . S
N563 C561 1.384 . S
H564 C570 0.930 . S
H565 C574 0.930 . S
H566 C579 0.929 . S
H567 C577 0.929 . S
H568 C572 0.929 . S
H569 C578 0.929 . S
C570 H564 0.930 . S
C570 C571 1.367 . S
C570 C578 1.378 . S
C571 C570 1.367 . S
C571 C579 1.433 . S
C572 H568 0.929 . S
C572 C574 1.378 . S
C572 C576 1.350 . S
C573 C576 1.463 . S
C573 C578 1.350 . S
C573 N581 1.427 . S
C574 H565 0.930 . S
C574 C572 1.378 . S
C574 C575 1.367 . S
C575 C574 1.367 . S
C575 C577 1.433 . S
C576 C572 1.350 . S
C576 C573 1.463 . S
C576 N580 1.427 . S
C577 H567 0.929 . S
C577 C575 1.433 . S
C577 N580 1.384 . S
C578 H569 0.929 . S
C578 C570 1.378 . S
C578 C573 1.350 . S
C579 H566 0.929 . S
C579 C571 1.433 . S
C579 N581 1.384 . S
N580 C576 1.427 . S
N580 C577 1.384 . S
N581 C573 1.427 . S
N581 C579 1.384 . S
H582 C588 0.930 . S
H583 C592 0.930 . S
H584 C597 0.929 . S
H585 C595 0.929 . S
H586 C590 0.929 . S
H587 C596 0.929 . S
C588 H582 0.930 . S
C588 C589 1.367 . S
C588 C596 1.378 . S
C589 C588 1.367 . S
C589 C597 1.433 . S
C590 H586 0.929 . S
C590 C592 1.378 . S
C590 C594 1.350 . S
C591 C594 1.463 1_455 S
C591 C596 1.350 . S
C591 N599 1.427 . S
C592 H583 0.930 . S
C592 C590 1.378 . S
C592 C593 1.367 . S
C593 C592 1.367 . S
C593 C595 1.433 . S
C594 C590 1.350 . S
C594 C591 1.463 1_655 S
C594 N598 1.427 . S
C595 H585 0.929 . S
C595 C593 1.433 . S
C595 N598 1.384 . S
C596 H587 0.929 . S
C596 C588 1.378 . S
C596 C591 1.350 . S
C597 H584 0.929 . S
C597 C589 1.433 . S
C597 N599 1.384 . S
N598 C594 1.427 . S
N598 C595 1.384 . S
N599 C591 1.427 . S
N599 C597 1.384 . S
C175 C7 1.077 . S
C179 C147 1.087 . S
C193 C21 1.088 . S
C197 C161 1.078 . S
C211 C91 1.079 . S
C215 C35 1.089 . S
C229 C49 1.077 . S
C233 C105 1.085 . S
C247 C119 1.086 . S
C251 C63 1.090 . S
C265 C133 1.083 . S
C269 C77 1.077 1_554 S
C283 C120 1.367 . S
C287 C8 1.367 . S
C301 C22 1.364 . S
C305 C134 1.366 . S
C319 C148 1.364 . S
C323 C36 1.366 . S
C337 C50 1.361 . S
C341 C162 1.360 . S
C355 C64 1.367 . S
C359 C92 1.366 . S
C373 C78 1.362 . S
C377 C106 1.364 . S
C391 C143 1.633 . S
C395 C3 1.633 . S
C409 C157 1.631 . S
C413 C17 1.634 . S
C427 C87 1.633 1_554 S
C431 C31 1.633 . S
C445 C45 1.631 . S
C449 C101 1.634 . S
C463 C59 1.633 . S
C467 C115 1.632 . S
C481 C129 1.631 . S
C485 C73 1.633 . S
C499 C9 1.331 . S
C503 C107 1.322 . S
C517 C121 1.329 . S
C521 C23 1.322 . S
C535 C135 1.323 . S
C539 C37 1.328 . S
C553 C51 1.322 . S
C557 C149 1.330 . S
C571 C65 1.327 . S
C575 C163 1.327 . S
C589 C79 1.328 . S
C593 C93 1.325 . S
