# Generated by pormake.
# Topology wkf, (6)-cn, num edge types: 1
# Building blocks:
#     Node 0, Type 0, BuildingBlock: CUKXOW_clean_sbu_0, # of connection points: 6
#     Node 1, Type 0, BuildingBlock: CUKXOW_clean_sbu_0, # of connection points: 6
#     Node 2, Type 0, BuildingBlock: CUKXOW_clean_sbu_0, # of connection points: 6
#     Node 3, Type 0, BuildingBlock: CUKXOW_clean_sbu_0, # of connection points: 6
#     Node 4, Type 0, BuildingBlock: CUKXOW_clean_sbu_0, # of connection points: 6
#     Node 5, Type 0, BuildingBlock: CUKXOW_clean_sbu_0, # of connection points: 6
#     Node 6, Type 0, BuildingBlock: CUKXOW_clean_sbu_0, # of connection points: 6
#     Node 7, Type 0, BuildingBlock: CUKXOW_clean_sbu_0, # of connection points: 6
#     Node 8, Type 0, BuildingBlock: CUKXOW_clean_sbu_0, # of connection points: 6
#     Node 9, Type 0, BuildingBlock: CUKXOW_clean_sbu_0, # of connection points: 6
#     Node 10, Type 0, BuildingBlock: CUKXOW_clean_sbu_0, # of connection points: 6
#     Node 11, Type 0, BuildingBlock: CUKXOW_clean_sbu_0, # of connection points: 6
#     Edge 12, Type (0, 0), BuildingBlock: XIVTED_clean_linker_0, # of connection points: 2
#     Edge 13, Type (0, 0), BuildingBlock: XIVTED_clean_linker_0, # of connection points: 2
#     Edge 14, Type (0, 0), BuildingBlock: XIVTED_clean_linker_0, # of connection points: 2
#     Edge 15, Type (0, 0), BuildingBlock: XIVTED_clean_linker_0, # of connection points: 2
#     Edge 16, Type (0, 0), BuildingBlock: XIVTED_clean_linker_0, # of connection points: 2
#     Edge 17, Type (0, 0), BuildingBlock: XIVTED_clean_linker_0, # of connection points: 2
#     Edge 18, Type (0, 0), BuildingBlock: XIVTED_clean_linker_0, # of connection points: 2
#     Edge 19, Type (0, 0), BuildingBlock: XIVTED_clean_linker_0, # of connection points: 2
#     Edge 20, Type (0, 0), BuildingBlock: XIVTED_clean_linker_0, # of connection points: 2
#     Edge 21, Type (0, 0), BuildingBlock: XIVTED_clean_linker_0, # of connection points: 2
#     Edge 22, Type (0, 0), BuildingBlock: XIVTED_clean_linker_0, # of connection points: 2
#     Edge 23, Type (0, 0), BuildingBlock: XIVTED_clean_linker_0, # of connection points: 2
#     Edge 24, Type (0, 0), BuildingBlock: XIVTED_clean_linker_0, # of connection points: 2
#     Edge 25, Type (0, 0), BuildingBlock: XIVTED_clean_linker_0, # of connection points: 2
#     Edge 26, Type (0, 0), BuildingBlock: XIVTED_clean_linker_0, # of connection points: 2
#     Edge 27, Type (0, 0), BuildingBlock: XIVTED_clean_linker_0, # of connection points: 2
#     Edge 28, Type (0, 0), BuildingBlock: XIVTED_clean_linker_0, # of connection points: 2
#     Edge 29, Type (0, 0), BuildingBlock: XIVTED_clean_linker_0, # of connection points: 2
#     Edge 30, Type (0, 0), BuildingBlock: XIVTED_clean_linker_0, # of connection points: 2
#     Edge 31, Type (0, 0), BuildingBlock: XIVTED_clean_linker_0, # of connection points: 2
#     Edge 32, Type (0, 0), BuildingBlock: XIVTED_clean_linker_0, # of connection points: 2
#     Edge 33, Type (0, 0), BuildingBlock: XIVTED_clean_linker_0, # of connection points: 2
#     Edge 34, Type (0, 0), BuildingBlock: XIVTED_clean_linker_0, # of connection points: 2
#     Edge 35, Type (0, 0), BuildingBlock: XIVTED_clean_linker_0, # of connection points: 2
#     Edge 36, Type (0, 0), BuildingBlock: XIVTED_clean_linker_0, # of connection points: 2
#     Edge 37, Type (0, 0), BuildingBlock: XIVTED_clean_linker_0, # of connection points: 2
#     Edge 38, Type (0, 0), BuildingBlock: XIVTED_clean_linker_0, # of connection points: 2
#     Edge 39, Type (0, 0), BuildingBlock: XIVTED_clean_linker_0, # of connection points: 2
#     Edge 40, Type (0, 0), BuildingBlock: XIVTED_clean_linker_0, # of connection points: 2
#     Edge 41, Type (0, 0), BuildingBlock: XIVTED_clean_linker_0, # of connection points: 2
#     Edge 42, Type (0, 0), BuildingBlock: XIVTED_clean_linker_0, # of connection points: 2
#     Edge 43, Type (0, 0), BuildingBlock: XIVTED_clean_linker_0, # of connection points: 2
#     Edge 44, Type (0, 0), BuildingBlock: XIVTED_clean_linker_0, # of connection points: 2
#     Edge 45, Type (0, 0), BuildingBlock: XIVTED_clean_linker_0, # of connection points: 2
#     Edge 46, Type (0, 0), BuildingBlock: XIVTED_clean_linker_0, # of connection points: 2
#     Edge 47, Type (0, 0), BuildingBlock: XIVTED_clean_linker_0, # of connection points: 2
# Relax obj value: 0.112
# Max RMSD: 0.281
# Mean RMSD: 0.281
data_MOF--net-wkf--node1-CUKXOW_clean_sbu_0--edge1-XIVTED_clean_linker_0
_symmetry_space_group_name_H-M    P1
_symmetry_Int_Tables_number       1
_symmetry_cell_setting            triclinic
loop_
_symmetry_equiv_pos_as_xyz
'x, y, z'
_cell_length_a     27.079115
_cell_length_b     27.124041
_cell_length_c     77.929048
_cell_angle_alpha  89.945877
_cell_angle_beta   89.923799
_cell_angle_gamma 120.11416
loop_
_atom_site_label
_atom_site_type_symbol
_atom_site_fract_x
_atom_site_fract_y
_atom_site_fract_z
_atom_type_partial_charge
Tb0 Tb 0.34159 0.17011 0.39619 0.0
C1 C 0.31916 0.04647 0.40596 0.0
Tb2 Tb 0.41464 0.12632 0.37961 0.0
O3 O 0.29181 0.15364 0.37222 0.0
O4 O 0.32896 0.10518 0.379 0.0
O5 O 0.31484 0.0912 0.41065 0.0
C6 C 0.46439 0.07906 0.36174 0.0
O7 O 0.35106 0.0489 0.39269 0.0
C8 C 0.45908 0.18934 0.40752 0.0
C9 C 0.42935 0.2465 0.36797 0.0
O10 O 0.47513 0.09589 0.37751 0.0
O11 O 0.42692 0.09098 0.35564 0.0
O12 O 0.46462 0.14627 0.40318 0.0
O13 O 0.42935 0.19436 0.39604 0.0
O14 O 0.43787 0.20337 0.36383 0.0
O15 O 0.39839 0.24502 0.38142 0.0
C16 C 0.30508 0.20926 0.42191 0.0
O17 O 0.27853 0.19008 0.40737 0.0
O18 O 0.35173 0.20696 0.42165 0.0
C19 C 0.30314 0.11443 0.36721 0.0
Tb20 Tb 0.1814 0.34516 0.56387 0.0
C21 C 0.27423 0.31129 0.57369 0.0
Tb22 Tb 0.2985 0.40533 0.5453 0.0
O23 O 0.14117 0.29997 0.5395 0.0
O24 O 0.22502 0.3248 0.54553 0.0
O25 O 0.22507 0.30822 0.57765 0.0
C26 C 0.39676 0.43286 0.5299 0.0
O27 O 0.30847 0.34492 0.56137 0.0
C28 C 0.28366 0.47048 0.56662 0.0
C29 C 0.20072 0.42983 0.53422 0.0
O30 O 0.39059 0.44089 0.54599 0.0
O31 O 0.34737 0.41002 0.52225 0.0
O32 O 0.31879 0.48899 0.55379 0.0
O33 O 0.26397 0.41732 0.56855 0.0
O34 O 0.24436 0.42441 0.52851 0.0
O35 O 0.17489 0.40884 0.5491 0.0
C36 C 0.10104 0.30818 0.58843 0.0
O37 O 0.10732 0.27609 0.5773 0.0
O38 O 0.13889 0.36099 0.58534 0.0
C39 C 0.18808 0.30284 0.53404 0.0
Tb40 Tb 0.84736 0.18015 0.73181 0.0
C41 C 0.97012 0.28965 0.7376 0.0
Tb42 Tb 0.87876 0.29 0.71256 0.0
O43 O 0.86625 0.14327 0.70899 0.0
O44 O 0.90652 0.23061 0.71298 0.0
O45 O 0.92953 0.2401 0.74378 0.0
C46 C 0.91662 0.38295 0.69291 0.0
O47 O 0.96127 0.31372 0.72403 0.0
C48 C 0.81973 0.2735 0.74144 0.0
C49 C 0.76143 0.17688 0.70416 0.0
O50 O 0.89742 0.37722 0.70843 0.0
O51 O 0.9118 0.33492 0.68802 0.0
O52 O 0.86063 0.32222 0.73603 0.0
O53 O 0.81532 0.2372 0.73065 0.0
O54 O 0.8019 0.22769 0.69828 0.0
O55 O 0.76742 0.15424 0.71862 0.0
C56 C 0.82272 0.11554 0.75998 0.0
O57 O 0.81906 0.0971 0.74431 0.0
O58 O 0.83932 0.1694 0.75958 0.0
C59 C 0.8994 0.19337 0.70223 0.0
Tb60 Tb 0.66415 0.85231 0.90071 0.0
C61 C 0.6985 0.97918 0.90264 0.0
Tb62 Tb 0.59767 0.89329 0.87837 0.0
O63 O 0.7427 0.90798 0.88566 0.0
O64 O 0.66237 0.87339 0.87477 0.0
O65 O 0.69403 0.93591 0.91171 0.0
C66 C 0.56485 0.95715 0.86143 0.0
O67 O 0.67061 0.97183 0.88806 0.0
C68 C 0.53929 0.82922 0.90399 0.0
C69 C 0.5734 0.76831 0.87313 0.0
O70 O 0.56116 0.94852 0.87784 0.0
O71 O 0.58621 0.92852 0.85422 0.0
O72 O 0.51684 0.83605 0.89017 0.0
O73 O 0.59283 0.86429 0.90408 0.0
O74 O 0.57002 0.81128 0.86591 0.0
O75 O 0.60462 0.7745 0.88705 0.0
C76 C 0.69445 0.80526 0.92586 0.0
O77 O 0.71983 0.8218 0.91107 0.0
O78 O 0.65163 0.81406 0.92622 0.0
C79 C 0.71426 0.90656 0.87204 0.0
Tb80 Tb 0.84463 0.67044 0.06349 0.0
C81 C 0.74333 0.69186 0.07399 0.0
Tb82 Tb 0.72697 0.5983 0.04711 0.0
O83 O 0.87741 0.72112 0.03959 0.0
O84 O 0.79183 0.68378 0.04674 0.0
O85 O 0.79227 0.69549 0.07855 0.0
C86 C 0.62955 0.55027 0.02941 0.0
O87 O 0.71402 0.66145 0.06053 0.0
C88 C 0.74618 0.5534 0.07478 0.0
C89 C 0.83247 0.58457 0.03473 0.0
O90 O 0.6353 0.53993 0.04526 0.0
O91 O 0.67943 0.58636 0.02314 0.0
O92 O 0.69724 0.54749 0.07056 0.0
O93 O 0.78073 0.58297 0.0632 0.0
O94 O 0.7804 0.57576 0.03093 0.0
O95 O 0.86259 0.61509 0.04811 0.0
C96 C 0.92097 0.70507 0.08898 0.0
O97 O 0.9272 0.73364 0.07489 0.0
O98 O 0.87281 0.65752 0.08837 0.0
C99 C 0.82658 0.71002 0.03487 0.0
Tb100 Tb 0.17553 0.82028 0.23152 0.0
C101 C 0.04778 0.73008 0.24179 0.0
Tb102 Tb 0.11445 0.70264 0.21328 0.0
O103 O 0.17237 0.86074 0.20701 0.0
O104 O 0.11071 0.77789 0.21329 0.0
O105 O 0.09503 0.77846 0.24553 0.0
C106 C 0.04151 0.60573 0.19777 0.0
O107 O 0.04538 0.6952 0.22949 0.0
C108 C 0.19337 0.71455 0.23466 0.0
C109 C 0.2388 0.7967 0.20211 0.0
O110 O 0.0556 0.61102 0.21385 0.0
O111 O 0.06928 0.65522 0.1902 0.0
O112 O 0.17495 0.67871 0.22206 0.0
O113 O 0.16203 0.73679 0.23634 0.0
O114 O 0.18883 0.75419 0.19651 0.0
O115 O 0.24456 0.82352 0.21684 0.0
C116 C 0.21961 0.90184 0.25564 0.0
O117 O 0.1827 0.89633 0.24406 0.0
O118 O 0.23279 0.86246 0.25325 0.0
C119 C 0.12712 0.81475 0.20169 0.0
Tb120 Tb 0.84354 0.65925 0.4431 0.0
C121 C 0.96787 0.68507 0.43286 0.0
Tb122 Tb 0.8925 0.59016 0.45988 0.0
O123 O 0.85772 0.70872 0.46683 0.0
O124 O 0.90968 0.67485 0.46029 0.0
O125 O 0.92118 0.68557 0.42801 0.0
C126 C 0.94512 0.54521 0.47749 0.0
O127 O 0.96794 0.6558 0.4465 0.0
C128 C 0.82694 0.54258 0.43247 0.0
C129 C 0.77106 0.57141 0.47202 0.0
O130 O 0.92986 0.53543 0.46156 0.0
O131 O 0.92876 0.57904 0.48388 0.0
O132 O 0.86965 0.5364 0.4369 0.0
O133 O 0.82313 0.57322 0.44381 0.0
O134 O 0.81569 0.56503 0.47601 0.0
O135 O 0.77066 0.60143 0.45854 0.0
C136 C 0.80071 0.69396 0.41798 0.0
O137 O 0.82526 0.723 0.43177 0.0
O138 O 0.79952 0.64562 0.41866 0.0
C139 C 0.89839 0.6997 0.47196 0.0
Tb140 Tb 0.17173 0.83261 0.61176 0.0
C141 C 0.27277 0.95557 0.60149 0.0
Tb142 Tb 0.28798 0.87997 0.62931 0.0
O143 O 0.13586 0.85063 0.63485 0.0
O144 O 0.22235 0.89949 0.62865 0.0
O145 O 0.22561 0.90912 0.59645 0.0
C146 C 0.38413 0.93085 0.64762 0.0
O147 O 0.30003 0.95557 0.61562 0.0
C148 C 0.27119 0.81342 0.60236 0.0
C149 C 0.18144 0.76156 0.64189 0.0
O150 O 0.38038 0.92045 0.63133 0.0
O151 O 0.33306 0.91085 0.65393 0.0
O152 O 0.31999 0.85606 0.60689 0.0
O153 O 0.23575 0.80967 0.61341 0.0
O154 O 0.23345 0.80491 0.64569 0.0
O155 O 0.15217 0.76062 0.6281 0.0
C156 C 0.09724 0.78947 0.58587 0.0
O157 O 0.09127 0.81465 0.59929 0.0
O158 O 0.14405 0.78782 0.58736 0.0
C159 C 0.18595 0.89067 0.64002 0.0
Tb160 Tb 0.34866 0.18859 0.77538 0.0
C161 C 0.32082 0.28783 0.76884 0.0
Tb162 Tb 0.41709 0.30571 0.79584 0.0
O163 O 0.30132 0.14753 0.7995 0.0
O164 O 0.33504 0.23385 0.79479 0.0
O165 O 0.31767 0.24043 0.76278 0.0
C166 C 0.44471 0.39738 0.81458 0.0
O167 O 0.35269 0.31607 0.78224 0.0
C168 C 0.47771 0.29991 0.77005 0.0
C169 C 0.43832 0.2027 0.80342 0.0
O170 O 0.44474 0.3954 0.79797 0.0
O171 O 0.43004 0.34731 0.82095 0.0
O172 O 0.49595 0.34215 0.78071 0.0
O173 O 0.42619 0.26662 0.77396 0.0
O174 O 0.43935 0.24894 0.8099 0.0
O175 O 0.4108 0.17648 0.78917 0.0
C176 C 0.31233 0.1123 0.74994 0.0
O177 O 0.28009 0.11476 0.76191 0.0
O178 O 0.3648 0.15211 0.75253 0.0
C179 C 0.31047 0.19589 0.8059 0.0
Tb180 Tb 0.17351 0.34248 0.9444 0.0
C181 C 0.05248 0.32795 0.93562 0.0
Tb182 Tb 0.13615 0.41702 0.96277 0.0
O183 O 0.15479 0.28878 0.96769 0.0
O184 O 0.10966 0.33025 0.96207 0.0
O185 O 0.09574 0.32237 0.93004 0.0
C186 C 0.09126 0.46682 0.98174 0.0
O187 O 0.05709 0.3574 0.9497 0.0
C188 C 0.20071 0.46463 0.93516 0.0
C189 C 0.25311 0.42306 0.97345 0.0
O190 O 0.10754 0.47858 0.96592 0.0
O191 O 0.10282 0.4285 0.98729 0.0
O192 O 0.15805 0.47044 0.9399 0.0
O193 O 0.20392 0.43173 0.94591 0.0
O194 O 0.21192 0.43384 0.97822 0.0
O195 O 0.24945 0.3934 0.95947 0.0
C196 C 0.21042 0.3055 0.91823 0.0
O197 O 0.18917 0.27762 0.93249 0.0
O198 O 0.2112 0.35362 0.91898 0.0
C199 C 0.11713 0.30151 0.97329 0.0
Tb200 Tb 0.8263 0.17053 0.11025 0.0
C201 C 0.73531 0.04314 0.10023 0.0
Tb202 Tb 0.70866 0.11025 0.12875 0.0
O203 O 0.86705 0.16719 0.13464 0.0
O204 O 0.78377 0.10598 0.12864 0.0
O205 O 0.78387 0.09012 0.09636 0.0
C206 C 0.61133 0.03762 0.1443 0.0
O207 O 0.70062 0.04105 0.11259 0.0
C208 C 0.72106 0.18944 0.10737 0.0
C209 C 0.80354 0.23403 0.13977 0.0
O210 O 0.6168 0.05202 0.12824 0.0
O211 O 0.66088 0.06496 0.15184 0.0
O212 O 0.68528 0.1712 0.12004 0.0
O213 O 0.74291 0.15779 0.10563 0.0
O214 O 0.76068 0.1843 0.14544 0.0
O215 O 0.83032 0.2396 0.12501 0.0
C216 C 0.90738 0.2144 0.08583 0.0
O217 O 0.90169 0.17701 0.09727 0.0
O218 O 0.86852 0.22817 0.08854 0.0
C219 C 0.8209 0.12229 0.14014 0.0
Tb220 Tb 0.67283 0.83884 0.27858 0.0
C221 C 0.69625 0.73844 0.26873 0.0
Tb222 Tb 0.60303 0.72173 0.29589 0.0
O223 O 0.72392 0.87439 0.30215 0.0
O224 O 0.68816 0.78836 0.29577 0.0
O225 O 0.69891 0.78668 0.2639 0.0
C226 C 0.55628 0.62457 0.31387 0.0
O227 O 0.66645 0.70943 0.28236 0.0
C228 C 0.5566 0.73842 0.26812 0.0
C229 C 0.58716 0.82603 0.30771 0.0
O230 O 0.54336 0.63054 0.29833 0.0
O231 O 0.59431 0.67422 0.31973 0.0
O232 O 0.55155 0.6901 0.27261 0.0
O233 O 0.58609 0.77361 0.27949 0.0
O234 O 0.57988 0.77486 0.31187 0.0
O235 O 0.61651 0.8556 0.29403 0.0
C236 C 0.7055 0.91387 0.25269 0.0
O237 O 0.73499 0.92085 0.2666 0.0
O238 O 0.65805 0.86568 0.25369 0.0
C239 C 0.71421 0.82447 0.30732 0.0
H240 H 0.19015 0.98259 0.26355 0.0
H241 H 0.31285 0.02285 0.35882 0.0
H242 H 0.28579 0.90608 0.28248 0.0
H243 H 0.26147 0.13703 0.33757 0.0
H244 H 0.29651 0.97594 0.33116 0.0
H245 H 0.21069 0.03715 0.2904 0.0
C246 C 0.216 0.97779 0.27327 0.0
C247 C 0.23632 0.93977 0.2708 0.0
C248 C 0.28886 0.01131 0.33243 0.0
C249 C 0.25907 1.00111 0.30157 0.0
C250 C 0.29825 0.03826 0.34827 0.0
C251 C 0.28935 0.08454 0.35046 0.0
C252 C 0.26936 0.02992 0.31856 0.0
C253 C 0.2691 0.10164 0.3364 0.0
C254 C 0.22756 0.00881 0.28859 0.0
C255 C 0.2693 0.93491 0.28383 0.0
N256 N 0.25969 0.07426 0.321 0.0
N257 N 0.27922 0.9648 0.29865 0.0
H258 H 0.27829 0.29143 0.52605 0.0
H259 H 0.20144 0.20444 0.42739 0.0
H260 H 0.12594 0.2766 0.50361 0.0
H261 H 0.36248 0.25184 0.45148 0.0
H262 H 0.16887 0.22657 0.45446 0.0
H263 H 0.30488 0.27103 0.49846 0.0
C264 C 0.25025 0.28381 0.51523 0.0
C265 C 0.20007 0.28626 0.51712 0.0
C266 C 0.2114 0.23237 0.45371 0.0
C267 C 0.23033 0.26223 0.48509 0.0
C268 C 0.23001 0.21993 0.43829 0.0
C269 C 0.28468 0.22618 0.43723 0.0
C270 C 0.24778 0.2508 0.46806 0.0
C271 C 0.31995 0.24615 0.4517 0.0
C272 C 0.26554 0.27213 0.49939 0.0
C273 C 0.16505 0.27511 0.50267 0.0
N274 N 0.30084 0.25742 0.46643 0.0
N275 N 0.1809 0.26362 0.48717 0.0
H276 H 0.98448 0.29585 0.69144 0.0
H277 H 0.02605 0.19792 0.59848 0.0
H278 H 0.8801 0.1223 0.67438 0.0
H279 H 0.09378 0.37282 0.61385 0.0
H280 H 0.9742 0.16686 0.62595 0.0
H281 H 0.02838 0.32218 0.66327 0.0
C282 C 0.97054 0.26315 0.6817 0.0
C283 C 0.92786 0.20693 0.68522 0.0
C284 C 1.0 0.21197 0.62321 0.0
C285 C 0.97909 0.2368 0.65268 0.0
C286 C 0.02943 0.22972 0.60754 0.0
C287 C 0.06427 0.28805 0.60391 0.0
C288 C 1.00606 0.25294 0.63535 0.0
C289 C 0.06744 0.32745 0.61611 0.0
C290 C 0.9958 0.27828 0.66555 0.0
C291 C 0.91271 0.1662 0.67217 0.0
N292 N 0.03914 0.3092 0.63128 0.0
N293 N 0.93835 0.18192 0.65642 0.0
H294 H 0.7622 0.99923 0.7642 0.0
H295 H 0.8148 0.00651 0.86564 0.0
H296 H 0.85756 0.15649 0.79216 0.0
H297 H 0.6642 0.87392 0.84093 0.0
H298 H 0.84584 0.05675 0.83784 0.0
H299 H 0.74034 0.94658 0.79151 0.0
C300 C 0.77888 0.02254 0.77606 0.0
C301 C 0.8113 0.08217 0.77599 0.0
C302 C 0.80625 0.01639 0.83855 0.0
C303 C 0.7874 0.02259 0.8071 0.0
C304 C 0.7888 0.98772 0.85434 0.0
C305 C 0.73696 0.9362 0.85551 0.0
C306 C 0.77214 0.99253 0.82389 0.0
C307 C 0.7044 0.91375 0.84056 0.0
C308 C 0.76634 0.99262 0.79161 0.0
C309 C 0.83197 0.11045 0.7917 0.0
N310 N 0.72259 0.94187 0.82537 0.0
N311 N 0.81983 0.08046 0.80662 0.0
H312 H 0.79486 0.80371 0.92962 0.0
H313 H 0.72638 0.70481 0.02797 0.0
H314 H 0.63999 0.76542 0.95629 0.0
H315 H 0.8877 0.74893 0.00449 0.0
H316 H 0.69434 0.72406 1.00108 0.0
H317 H 0.82945 0.78029 0.9559 0.0
C318 C 0.76795 0.7898 0.94094 0.0
C319 C 0.71449 0.78648 0.94082 0.0
C320 C 0.73684 0.72975 1.00168 0.0
C321 C 0.75377 0.76019 0.97083 0.0
C322 C 0.75523 0.71865 0.0171 0.0
C323 C 0.80975 0.72501 0.01847 0.0
C324 C 0.7732 0.74776 0.98733 0.0
C325 C 0.84536 0.74362 1.00396 0.0
C326 C 0.7878 0.77675 0.95593 0.0
C327 C 0.68147 0.76864 0.95582 0.0
N328 N 0.82642 0.7543 0.98893 0.0
N329 N 0.70166 0.75634 0.97016 0.0
H330 H 0.02422 0.72651 0.19342 0.0
H331 H 0.01802 0.80938 0.09524 0.0
H332 H 0.16579 0.87726 0.17142 0.0
H333 H 0.90745 0.64448 0.11782 0.0
H334 H 0.07181 0.84006 0.12248 0.0
H335 H 0.97848 0.70162 0.16559 0.0
C336 C 0.04581 0.75449 0.18265 0.0
C337 C 0.09924 0.80366 0.18469 0.0
C338 C 0.03601 0.7971 0.12134 0.0
C339 C 0.04642 0.77552 0.15247 0.0
C340 C 1.00548 0.77958 0.10583 0.0
C341 C 0.95812 0.72438 0.10432 0.0
C342 C 0.0185 0.75914 0.13533 0.0
C343 C 0.94346 0.68748 0.1184 0.0
C344 C 0.01958 0.7402 0.16669 0.0
C345 C 0.12459 0.83885 0.17033 0.0
N346 N 0.97321 0.70559 0.13326 0.0
N347 N 0.09793 0.82406 0.15473 0.0
H348 H 1.0051 0.80257 0.57798 0.0
H349 H 0.99212 0.69493 0.48144 0.0
H350 H 0.10982 0.7376 0.55793 0.0
H351 H 0.86878 0.7369 0.50104 0.0
H352 H 0.03636 0.71319 0.5096 0.0
H353 H 0.95408 0.78036 0.55037 0.0
C354 C 0.01688 0.78312 0.56785 0.0
C355 C 0.06173 0.77194 0.5702 0.0
C356 C 0.99958 0.71843 0.50786 0.0
C357 C 1.00441 0.74718 0.53868 0.0
C358 C 0.97423 0.70791 0.49173 0.0
C359 C 0.92636 0.71384 0.48895 0.0
C360 C 0.97743 0.73568 0.5214 0.0
C361 C 0.90563 0.73175 0.50269 0.0
C362 C 0.98797 0.77066 0.5521 0.0
C363 C 0.07558 0.74703 0.55667 0.0
N364 N 0.9313 0.74207 0.51838 0.0
N365 N 0.0473 0.7358 0.54152 0.0
H366 H 0.11751 0.87013 0.66857 0.0
H367 H 0.37714 0.10915 0.72384 0.0
H368 H 0.28758 0.98076 0.64921 0.0
H369 H 0.20263 0.03101 0.74126 0.0
H370 H 0.34459 0.05309 0.69758 0.0
H371 H 0.14668 0.92097 0.69625 0.0
C372 C 0.1608 0.90507 0.67013 0.0
C373 C 0.20031 0.92102 0.65664 0.0
C374 C 0.31322 0.04795 0.70712 0.0
C375 C 0.23401 0.97861 0.6881 0.0
C376 C 0.33189 0.07983 0.72217 0.0
C377 C 0.2925 0.07484 0.7347 0.0
C378 C 0.25459 0.01056 0.70451 0.0
C379 C 0.23434 0.03609 0.73187 0.0
C380 C 0.17745 0.93393 0.6859 0.0
C381 C 0.25585 0.96652 0.65931 0.0
N382 N 0.21702 0.00545 0.71703 0.0
N383 N 0.27102 0.9934 0.67468 0.0
H384 H 0.19968 0.2 0.91175 0.0
H385 H 0.31215 0.29186 0.81538 0.0
H386 H 0.25962 0.36624 0.88955 0.0
H387 H 0.27118 0.12693 0.83508 0.0
H388 H 0.29041 0.31644 0.84299 0.0
H389 H 0.22379 0.16938 0.88467 0.0
C390 C 0.21826 0.23006 0.90126 0.0
C391 C 0.22755 0.28569 0.90285 0.0
C392 C 0.28605 0.27476 0.84148 0.0
C393 C 0.25466 0.25112 0.87202 0.0
C394 C 0.29865 0.26063 0.82561 0.0
C395 C 0.29413 0.20744 0.82293 0.0
C396 C 0.26805 0.23534 0.85502 0.0
C397 C 0.27536 0.1685 0.83665 0.0
C398 C 0.23184 0.21257 0.88583 0.0
C399 C 0.2515 0.32292 0.8889 0.0
N400 N 0.26297 0.18324 0.8522 0.0
N401 N 0.26396 0.30494 0.87416 0.0
H402 H 0.98585 0.18259 0.07694 0.0
H403 H 0.02861 0.31526 0.98276 0.0
H404 H 0.91286 0.28313 0.05956 0.0
H405 H 0.13716 0.25393 1.00208 0.0
H406 H 0.98239 0.29771 0.01061 0.0
H407 H 0.03952 0.20363 0.04981 0.0
C408 C 0.98165 0.20961 0.06751 0.0
C409 C 0.94486 0.23118 0.07049 0.0
C410 C 0.01635 0.28808 0.00888 0.0
C411 C 1.00521 0.25457 0.03941 0.0
C412 C 0.0429 0.29815 0.99292 0.0
C413 C 0.08742 0.28679 0.99013 0.0
C414 C 0.03357 0.26549 0.02228 0.0
C415 C 0.10313 0.26348 1.00372 0.0
C416 C 0.01214 0.22145 0.05203 0.0
C417 C 0.94073 0.26563 0.05782 0.0
N418 N 0.07618 0.25351 0.01925 0.0
N419 N 0.97011 0.27586 0.04284 0.0
H420 H 0.64293 0.8998 0.22426 0.0
H421 H 0.88408 0.16206 0.17014 0.0
H422 H 0.80969 0.01019 0.24564 0.0
H423 H 0.73209 0.02014 0.14904 0.0
H424 H 0.85784 0.11503 0.19858 0.0
H425 H 0.67345 0.95303 0.19753 0.0
C426 C 0.68606 0.93562 0.22335 0.0
C427 C 0.7239 0.95041 0.23717 0.0
C428 C 0.83047 0.0944 0.18766 0.0
C429 C 0.75975 0.01174 0.20631 0.0
C430 C 0.8455 0.12106 0.17148 0.0
C431 C 0.80987 0.09516 0.15728 0.0
C432 C 0.77943 0.04188 0.18953 0.0
C433 C 0.76039 0.04211 0.15967 0.0
C434 C 0.70364 0.96595 0.20801 0.0
C435 C 0.77924 0.99745 0.23525 0.0
N436 N 0.7466 0.01757 0.17541 0.0
N437 N 0.7957 0.02647 0.22004 0.0
H438 H 0.74655 0.63262 0.38979 0.0
H439 H 0.75114 0.88904 0.33696 0.0
H440 H 0.81585 0.80082 0.41137 0.0
H441 H 0.71137 0.72644 0.31576 0.0
H442 H 0.76999 0.85867 0.3649 0.0
H443 H 0.72533 0.66618 0.36341 0.0
C444 C 0.75695 0.67669 0.389 0.0
C445 C 0.78315 0.71403 0.40276 0.0
C446 C 0.75713 0.82981 0.35409 0.0
C447 C 0.75957 0.75335 0.37233 0.0
C448 C 0.74661 0.84718 0.33817 0.0
C449 C 0.7292 0.80998 0.32409 0.0
C450 C 0.74994 0.77491 0.35582 0.0
C451 C 0.72392 0.75624 0.32631 0.0
C452 C 0.74506 0.69599 0.37387 0.0
C453 C 0.79555 0.77068 0.40102 0.0
N454 N 0.73397 0.74036 0.34181 0.0
N455 N 0.78387 0.7888 0.38602 0.0
H456 H 0.51487 0.85636 0.29432 0.0
H457 H 0.53449 0.04458 0.37528 0.0
H458 H 0.59416 0.85309 0.34186 0.0
H459 H 0.43382 0.02676 0.33039 0.0
H460 H 0.55682 0.97469 0.36337 0.0
H461 H 0.48161 0.91561 0.30775 0.0
C462 C 0.5241 0.86723 0.30776 0.0
C463 C 0.55688 0.84978 0.31709 0.0
C464 C 0.52992 0.98605 0.3561 0.0
C465 C 0.52071 0.91917 0.33241 0.0
C466 C 0.51758 0.02632 0.36281 0.0
C467 C 0.48268 0.04171 0.3537 0.0
C468 C 0.50734 0.96112 0.34014 0.0
C469 C 0.46139 0.01643 0.33772 0.0
C470 C 0.50546 0.90135 0.31539 0.0
C471 C 0.56831 0.86525 0.33437 0.0
N472 N 0.47414 0.97737 0.33143 0.0
N473 N 0.55083 0.89985 0.34146 0.0
H474 H 0.50028 0.47695 0.54548 0.0
H475 H 0.66673 0.51465 0.45774 0.0
H476 H 0.4176 0.41893 0.49642 0.0
H477 H 0.751 0.55545 0.50687 0.0
H478 H 0.57477 0.47329 0.47215 0.0
H479 H 0.59167 0.50133 0.53214 0.0
C480 C 0.50143 0.46926 0.53188 0.0
C481 C 0.45156 0.44646 0.52196 0.0
C482 C 0.61309 0.49064 0.47987 0.0
C483 C 0.55578 0.474 0.50666 0.0
C484 C 0.66568 0.51427 0.47164 0.0
C485 C 0.71638 0.53886 0.48117 0.0
C486 C 0.61096 0.49235 0.49782 0.0
C487 C 0.71271 0.53678 0.49911 0.0
C488 C 0.55354 0.48295 0.52431 0.0
C489 C 0.4552 0.4369 0.50448 0.0
N490 N 0.66072 0.51464 0.5069 0.0
N491 N 0.50652 0.45106 0.49736 0.0
H492 H 0.16961 0.66146 0.63175 0.0
H493 H 0.93584 0.48614 0.70386 0.0
H494 H 0.13123 0.74095 0.67344 0.0
H495 H 0.98194 0.40676 0.66388 0.0
H496 H 0.00735 0.57971 0.693 0.0
H497 H 0.10485 0.56787 0.64415 0.0
C498 C 0.14871 0.659 0.64385 0.0
C499 C 0.15626 0.70857 0.65182 0.0
C500 C 1.00169 0.54192 0.68652 0.0
C501 C 0.08033 0.6019 0.66571 0.0
C502 C 0.96047 0.48849 0.69261 0.0
C503 C 0.95279 0.43875 0.68467 0.0
C504 C 0.03557 0.54569 0.67238 0.0
C505 C 0.98619 0.44414 0.67026 0.0
C506 C 0.11125 0.60565 0.65081 0.0
C507 C 0.12728 0.70351 0.66718 0.0
N508 N 0.02629 0.49672 0.6646 0.0
N509 N 0.09005 0.65093 0.67357 0.0
H510 H 0.48649 0.1467 0.7886 0.0
H511 H 0.52655 0.02159 0.87661 0.0
H512 H 0.4572 0.19888 0.83805 0.0
H513 H 0.5719 0.98424 0.8272 0.0
H514 H 0.50432 0.08915 0.86297 0.0
H515 H 0.5231 0.09172 0.80268 0.0
C516 C 0.48834 0.14707 0.80248 0.0
C517 C 0.46829 0.17704 0.81219 0.0
C518 C 0.5193 0.06641 0.85509 0.0
C519 C 0.50955 0.11309 0.82847 0.0
C520 C 0.53173 0.0276 0.86284 0.0
C521 C 0.55066 0.99703 0.85296 0.0
C522 C 0.52557 0.07459 0.83728 0.0
C523 C 0.55702 0.0067 0.83524 0.0
C524 C 0.50925 0.11551 0.81051 0.0
C525 C 0.47228 0.17639 0.8301 0.0
N526 N 0.54424 0.04452 0.82794 0.0
N527 N 0.49181 0.14417 0.8377 0.0
H528 H 0.35663 0.46989 0.95846 0.0
H529 H 0.52428 0.4889 0.04383 0.0
H530 H 0.27611 0.43681 0.0082 0.0
H531 H 0.60879 0.57148 0.99663 0.0
H532 H 0.43238 0.46436 0.03095 0.0
H533 H 0.44864 0.50418 0.97216 0.0
C534 C 0.35849 0.47045 0.97233 0.0
C535 C 0.30872 0.45038 0.98224 0.0
C536 C 0.471 0.48789 0.02342 0.0
C537 C 0.41422 0.4886 0.99806 0.0
C538 C 0.52338 0.50145 0.03069 0.0
C539 C 0.57403 0.5318 0.02118 0.0
C540 C 0.46925 0.5043 0.00647 0.0
C541 C 0.57063 0.54756 0.00431 0.0
C542 C 0.41114 0.49006 0.98015 0.0
C543 C 0.31362 0.4522 1.00015 0.0
N544 N 0.51902 0.53337 0.99745 0.0
N545 N 0.36556 0.47026 0.00753 0.0
H546 H 1.00284 0.58826 0.16473 0.0
H547 H 0.81424 0.24841 0.17489 0.0
H548 H 0.9844 0.50066 0.2126 0.0
H549 H 0.84139 0.33978 0.12728 0.0
H550 H 0.86585 0.34034 0.19001 0.0
H551 H 0.93445 0.49738 0.15158 0.0
C552 C 0.9843 0.54981 0.17245 0.0
C553 C 0.99958 0.55167 0.18968 0.0
C554 C 0.85972 0.34009 0.17628 0.0
C555 C 0.92126 0.44756 0.17483 0.0
C556 C 0.8299 0.28771 0.16771 0.0
C557 C 0.82414 0.28672 0.14983 0.0
C558 C 0.88339 0.39129 0.16682 0.0
C559 C 0.84558 0.33871 0.14106 0.0
C560 C 0.94513 0.49794 0.16499 0.0
C561 C 0.97396 0.50081 0.1992 0.0
N562 N 0.87455 0.38873 0.1496 0.0
N563 N 0.93628 0.4507 0.19163 0.0
H564 H 0.98371 0.47823 0.4641 0.0
H565 H 0.17504 0.50795 0.54565 0.0
H566 H 0.99608 0.57633 0.50907 0.0
H567 H 0.17006 0.41531 0.50019 0.0
H568 H 0.11557 0.53944 0.53143 0.0
H569 H 0.05444 0.45766 0.47644 0.0
C570 C 1.00102 0.49503 0.47666 0.0
C571 C 0.98375 0.52863 0.48567 0.0
C572 C 0.12799 0.51294 0.5244 0.0
C573 C 0.06537 0.50598 0.49974 0.0
C574 C 0.16232 0.49531 0.53248 0.0
C575 C 0.17746 0.45917 0.52403 0.0
C576 C 0.10775 0.49358 0.50778 0.0
C577 C 0.15976 0.44373 0.50703 0.0
C578 C 0.04171 0.48361 0.48363 0.0
C579 C 0.00784 0.54976 0.50179 0.0
N580 N 0.12507 0.46044 0.49951 0.0
N581 N 0.04743 0.53805 0.50832 0.0
H582 H 0.40181 0.9575 0.68188 0.0
H583 H 0.73602 0.1795 0.67011 0.0
H584 H 0.4898 0.98745 0.63345 0.0
H585 H 0.65928 0.1038 0.71882 0.0
H586 H 0.64262 0.12096 0.65633 0.0
H587 H 0.49355 0.02188 0.69574 0.0
C588 C 0.44045 0.97736 0.67422 0.0
C589 C 0.43851 0.96686 0.65657 0.0
C590 C 0.64641 0.11745 0.67005 0.0
C591 C 0.54283 0.04105 0.67213 0.0
C592 C 0.6995 0.15102 0.67789 0.0
C593 C 0.70544 0.14597 0.69556 0.0
C594 C 0.59904 0.07947 0.68003 0.0
C595 C 0.65679 0.1084 0.7051 0.0
C596 C 0.49265 0.01415 0.68208 0.0
C597 C 0.4896 0.9941 0.64714 0.0
N598 N 0.6057 0.07664 0.69723 0.0
N599 N 0.53966 0.0301 0.65502 0.0
H600 H 0.53123 0.74009 0.8404 0.0
H601 H 0.45226 0.41383 0.84952 0.0
H602 H 0.54971 0.66709 0.88754 0.0
H603 H 0.46445 0.49768 0.80133 0.0
H604 H 0.47531 0.50251 0.86457 0.0
H605 H 0.49234 0.64678 0.82671 0.0
C606 C 0.5266 0.70437 0.8479 0.0
C607 C 0.54453 0.71155 0.86503 0.0
C608 C 0.47272 0.50128 0.8507 0.0
C609 C 0.50039 0.60492 0.8495 0.0
C610 C 0.45971 0.45085 0.84216 0.0
C611 C 0.45716 0.4489 0.82421 0.0
C612 C 0.48275 0.54955 0.84115 0.0
C613 C 0.46657 0.49766 0.8152 0.0
C614 C 0.50465 0.65118 0.84009 0.0
C615 C 0.53737 0.66371 0.87419 0.0
N616 N 0.47907 0.546 0.82376 0.0
N617 N 0.51617 0.61251 0.86629 0.0
H618 H 0.85442 0.58757 1.00022 0.0
H619 H 0.03997 0.43418 0.01325 0.0
H620 H 0.86931 0.5177 0.04832 0.0
H621 H 0.05415 0.53554 0.96883 0.0
H622 H 0.96832 0.4546 0.0252 0.0
H623 H 0.916 0.55564 0.98677 0.0
C624 C 0.86934 0.56409 0.00778 0.0
C625 C 0.85695 0.55498 0.02532 0.0
C626 C 0.98732 0.47259 0.01287 0.0
C627 C 0.92781 0.51974 0.01035 0.0
C628 C 0.02851 0.46133 0.00615 0.0
C629 C 0.05332 0.48375 0.99016 0.0
C630 C 0.97059 0.50607 1.00344 0.0
C631 C 0.03634 0.51787 0.9813 0.0
C632 C 0.905 0.54659 1.00022 0.0
C633 C 0.87807 0.52545 0.03473 0.0
N634 N 0.9959 0.52788 0.98803 0.0
N635 N 0.91269 0.50916 0.02717 0.0
H636 H 0.59355 0.99743 0.17722 0.0
H637 H 0.25336 0.80958 0.16704 0.0
H638 H 0.50623 0.98136 0.12951 0.0
H639 H 0.34435 0.83217 0.21442 0.0
H640 H 0.34557 0.86204 0.15193 0.0
H641 H 0.50247 0.9281 0.19026 0.0
C642 C 0.55512 0.97925 0.16952 0.0
C643 C 0.55712 0.99542 0.15236 0.0
C644 C 0.34519 0.8547 0.1656 0.0
C645 C 0.4528 0.91601 0.16708 0.0
C646 C 0.29265 0.82437 0.17415 0.0
C647 C 0.29149 0.81713 0.19198 0.0
C648 C 0.39639 0.87744 0.17502 0.0
C649 C 0.34346 0.83751 0.20068 0.0
C650 C 0.50314 0.93952 0.17691 0.0
C651 C 0.50628 0.97022 0.14285 0.0
N652 N 0.39365 0.86707 0.19216 0.0
N653 N 0.45607 0.93199 0.15036 0.0
H654 H 0.48768 0.51977 0.30022 0.0
H655 H 0.49485 0.34931 0.38241 0.0
H656 H 0.58623 0.60274 0.34541 0.0
H657 H 0.43049 0.26865 0.3335 0.0
H658 H 0.52977 0.44237 0.36904 0.0
H659 H 0.46462 0.42747 0.31232 0.0
C660 C 0.50406 0.51846 0.31279 0.0
C661 C 0.53852 0.56886 0.32192 0.0
C662 C 0.50885 0.40458 0.36112 0.0
C663 C 0.51278 0.46335 0.33576 0.0
C664 C 0.48915 0.35147 0.36872 0.0
C665 C 0.46006 0.30152 0.35898 0.0
C666 C 0.4983 0.40781 0.34366 0.0
C667 C 0.45331 0.30637 0.34136 0.0
C668 C 0.49129 0.46578 0.31961 0.0
C669 C 0.55907 0.56481 0.33804 0.0
N670 N 0.47162 0.35873 0.33428 0.0
N671 N 0.54571 0.51289 0.34448 0.0
H672 H 0.98713 0.77246 0.41138 0.0
H673 H 0.31639 0.94401 0.40251 0.0
H674 H 0.07514 0.70053 0.43868 0.0
H675 H 0.22205 0.01939 0.4237 0.0
H676 H 0.23328 0.8488 0.40803 0.0
H677 H 0.07866 0.85792 0.40579 0.0
C678 C 0.02565 0.77382 0.41584 0.0
C679 C 0.02326 0.72947 0.42577 0.0
C680 C 0.23168 0.8865 0.41167 0.0
C681 C 0.1279 0.8272 0.41927 0.0
C682 C 0.27886 0.94064 0.40861 0.0
C683 C 0.27608 0.9898 0.41256 0.0
C684 C 0.18141 0.88209 0.4182 0.0
C685 C 0.22632 0.98294 0.4204 0.0
C686 C 0.07774 0.82284 0.41274 0.0
C687 C 0.07501 0.73399 0.43113 0.0
N688 N 0.18054 0.93012 0.42261 0.0
N689 N 0.12555 0.78243 0.42791 0.0
H690 H 0.37387 0.30714 0.57292 0.0
H691 H 0.20674 0.97586 0.57946 0.0
H692 H 0.19771 0.2122 0.58933 0.0
H693 H 0.36573 0.06183 0.60742 0.0
H694 H 0.21472 0.06788 0.57367 0.0
H695 H 0.38244 0.22231 0.57857 0.0
C696 C 0.33745 0.26905 0.57801 0.0
C697 C 0.28489 0.26671 0.58059 0.0
C698 C 0.24824 0.06641 0.58083 0.0
C699 C 0.29406 0.17011 0.58631 0.0
C700 C 0.24412 0.01404 0.58402 0.0
C701 C 0.2852 0.01098 0.5942 0.0
C702 C 0.29424 0.11614 0.58752 0.0
C703 C 0.33278 0.06226 0.59968 0.0
C704 C 0.34241 0.22087 0.58112 0.0
C705 C 0.23906 0.2162 0.58715 0.0
N706 N 0.33591 0.11307 0.59637 0.0
N707 N 0.24439 0.16957 0.58943 0.0
H708 H 0.27949 0.34508 0.78688 0.0
H709 H 0.06325 0.33436 0.71679 0.0
H710 H 0.26504 0.26521 0.73778 0.0
H711 H 0.01071 0.28416 0.76925 0.0
H712 H 0.15654 0.34495 0.72352 0.0
H713 H 0.19966 0.35848 0.77918 0.0
C714 C 0.26051 0.33155 0.7743 0.0
C715 C 0.27886 0.30372 0.76293 0.0
C716 C 0.12486 0.33285 0.73358 0.0
C717 C 0.18812 0.31981 0.75412 0.0
C718 C 0.07198 0.32739 0.72986 0.0
C719 C 0.02941 0.30852 0.74255 0.0
C720 C 0.13554 0.32088 0.75019 0.0
C721 C 0.04253 0.29891 0.75916 0.0
C722 C 0.21479 0.33899 0.77002 0.0
C723 C 0.25204 0.28659 0.74691 0.0
N724 N 0.09465 0.30527 0.76253 0.0
N725 N 0.20781 0.29494 0.74295 0.0
H726 H 0.73548 0.02071 0.9349 0.0
H727 H 0.95003 0.29765 0.95078 0.0
H728 H 0.76275 0.06906 0.88146 0.0
H729 H 0.02288 0.26759 0.90542 0.0
H730 H 0.85672 0.21816 0.94274 0.0
H731 H 0.81624 0.11447 0.94236 0.0
C732 C 0.7579 0.05145 0.92479 0.0
C733 C 0.74229 0.03745 0.90758 0.0
C734 C 0.89311 0.22947 0.93449 0.0
C735 C 0.83473 0.14405 0.91594 0.0
C736 C 0.94633 0.27522 0.93893 0.0
C737 C 0.99466 0.28883 0.92887 0.0
C738 C 0.88802 0.19756 0.91978 0.0
C739 C 0.98694 0.25812 0.91365 0.0
C740 C 0.80364 0.10496 0.92904 0.0
C741 C 0.77304 0.07856 0.89492 0.0
N742 N 0.93457 0.21362 0.90959 0.0
N743 N 0.81863 0.12969 0.89932 0.0
H744 H 0.81009 0.02551 0.08147 0.0
H745 H 0.64451 0.69616 0.07039 0.0
H746 H 0.64005 0.93635 0.10311 0.0
H747 H 0.81358 0.787 0.09236 0.0
H748 H 0.63427 0.78012 0.07564 0.0
H749 H 0.80413 0.93422 0.07622 0.0
C750 C 0.7709 0.98684 0.08475 0.0
C751 C 0.72582 0.98871 0.09302 0.0
C752 C 0.67301 0.7808 0.07951 0.0
C753 C 0.71919 0.88439 0.08701 0.0
C754 C 0.67888 0.7331 0.07663 0.0
C755 C 0.7302 0.73475 0.08081 0.0
C756 C 0.71934 0.83041 0.08614 0.0
C757 C 0.77336 0.78369 0.08886 0.0
C758 C 0.7679 0.93487 0.08189 0.0
C759 C 0.67606 0.93684 0.09689 0.0
N760 N 0.76743 0.83004 0.0909 0.0
N761 N 0.6741 0.88642 0.09394 0.0
H762 H 0.70073 0.63985 0.27218 0.0
H763 H 0.03069 0.80555 0.26025 0.0
H764 H 0.79153 0.80911 0.25032 0.0
H765 H 0.94068 0.63509 0.23934 0.0
H766 H 0.93946 0.79997 0.26565 0.0
H767 H 0.78485 0.62982 0.26671 0.0
C768 C 0.73771 0.67432 0.26592 0.0
C769 C 0.7393 0.7256 0.26183 0.0
C770 C 0.93991 0.76358 0.26009 0.0
C771 C 0.83515 0.71498 0.25625 0.0
C772 C 0.99185 0.76636 0.25717 0.0
C773 C 0.99344 0.72101 0.24906 0.0
C774 C 0.88919 0.71482 0.25522 0.0
C775 C 0.94137 0.67128 0.24543 0.0
C776 C 0.7855 0.66856 0.26291 0.0
C777 C 0.78828 0.7689 0.25375 0.0
N778 N 0.89099 0.66953 0.24845 0.0
N779 N 0.83472 0.76307 0.25158 0.0
H780 H 0.81076 0.43956 0.42156 0.0
H781 H 0.47248 0.29556 0.41149 0.0
H782 H 0.72284 0.53401 0.42813 0.0
H783 H 0.55972 0.20087 0.41906 0.0
H784 H 0.56301 0.38435 0.41599 0.0
H785 H 0.71888 0.35296 0.41705 0.0
C786 C 0.77225 0.44238 0.42167 0.0
C787 C 0.77446 0.49407 0.42534 0.0
C788 C 0.56214 0.34407 0.41687 0.0
C789 C 0.66899 0.39481 0.42056 0.0
C790 C 0.51041 0.2934 0.41447 0.0
C791 C 0.50863 0.24077 0.41474 0.0
C792 C 0.61243 0.34201 0.41942 0.0
C793 C 0.55906 0.24043 0.41865 0.0
C794 C 0.71971 0.39274 0.41934 0.0
C795 C 0.72306 0.49503 0.42538 0.0
N796 N 0.60899 0.29027 0.42059 0.0
N797 N 0.67236 0.44606 0.42317 0.0
H798 H 0.35752 0.80376 0.58789 0.0
H799 H 0.18367 0.46642 0.57668 0.0
H800 H 0.17851 0.70526 0.60068 0.0
H801 H 0.36694 0.56804 0.57957 0.0
H802 H 0.17704 0.55016 0.58503 0.0
H803 H 0.35769 0.71569 0.58199 0.0
C804 C 0.31795 0.76357 0.58917 0.0
C805 C 0.26811 0.76182 0.59496 0.0
C806 C 0.21859 0.55362 0.58424 0.0
C807 C 0.26816 0.66042 0.58856 0.0
C808 C 0.22233 0.50548 0.5798 0.0
C809 C 0.27595 0.51023 0.57758 0.0
C810 C 0.26892 0.60651 0.58624 0.0
C811 C 0.32475 0.56258 0.58122 0.0
C812 C 0.31821 0.71317 0.58603 0.0
C813 C 0.21799 0.70842 0.59634 0.0
N814 N 0.32014 0.60876 0.58513 0.0
N815 N 0.2193 0.65965 0.59328 0.0
H816 H 0.57636 0.37869 0.75636 0.0
H817 H 0.71229 0.1797 0.74433 0.0
H818 H 0.47424 0.19695 0.76339 0.0
H819 H 0.80773 0.36041 0.75434 0.0
H820 H 0.62319 0.18115 0.74883 0.0
H821 H 0.65895 0.36872 0.75038 0.0
C822 C 0.571 0.3363 0.75625 0.0
C823 C 0.51859 0.28872 0.76075 0.0
C824 C 0.66371 0.22022 0.75024 0.0
C825 C 0.61387 0.27707 0.75448 0.0
C826 C 0.71459 0.21941 0.74783 0.0
C827 C 0.76763 0.27023 0.74874 0.0
C828 C 0.66609 0.27227 0.75343 0.0
C829 C 0.768 0.32032 0.75337 0.0
C830 C 0.61848 0.33076 0.75312 0.0
C831 C 0.51403 0.23485 0.76031 0.0
N832 N 0.7181 0.32018 0.75529 0.0
N833 N 0.56148 0.23044 0.7575 0.0
H834 H 0.54939 0.73645 0.91411 0.0
H835 H 0.21089 0.56328 0.92268 0.0
H836 H 0.4441 0.81301 0.9193 0.0
H837 H 0.31039 0.48317 0.93369 0.0
H838 H 0.29875 0.65399 0.91897 0.0
H839 H 0.46658 0.64349 0.92132 0.0
C840 C 0.50969 0.73435 0.91744 0.0
C841 C 0.50365 0.78269 0.91601 0.0
C842 C 0.30163 0.61666 0.92218 0.0
C843 C 0.40837 0.67631 0.92363 0.0
C844 C 0.25131 0.56454 0.92405 0.0
C845 C 0.25319 0.51559 0.92876 0.0
C846 C 0.35465 0.62021 0.92484 0.0
C847 C 0.30706 0.52005 0.93028 0.0
C848 C 0.46209 0.68097 0.92132 0.0
C849 C 0.45074 0.77691 0.92034 0.0
N850 N 0.35578 0.57155 0.92842 0.0
N851 N 0.40506 0.72474 0.92362 0.0
H852 H 0.82264 0.28437 0.09707 0.0
H853 H 0.6597 0.4599 0.09035 0.0
H854 H 0.63982 0.2098 0.09631 0.0
H855 H 0.83711 0.53526 0.07616 0.0
H856 H 0.65644 0.36998 0.09583 0.0
H857 H 0.83285 0.37716 0.09003 0.0
C858 C 0.78471 0.28681 0.09473 0.0
C859 C 0.73028 0.23918 0.09722 0.0
C860 C 0.69627 0.40616 0.09157 0.0
C861 C 0.74153 0.34533 0.09001 0.0
C862 C 0.69833 0.45781 0.08868 0.0
C863 C 0.74846 0.50479 0.08247 0.0
C864 C 0.74477 0.40137 0.08836 0.0
C865 C 0.79735 0.49965 0.08068 0.0
C866 C 0.79055 0.34012 0.09103 0.0
C867 C 0.68261 0.24551 0.0945 0.0
N868 N 0.79422 0.44856 0.08344 0.0
N869 N 0.68931 0.29759 0.0913 0.0
H870 H 0.46211 0.65057 0.25345 0.0
H871 H 0.28858 0.81546 0.24496 0.0
H872 H 0.5387 0.8291 0.2658 0.0
H873 H 0.21259 0.63279 0.2459 0.0
H874 H 0.38094 0.82485 0.25225 0.0
H875 H 0.37214 0.64733 0.24776 0.0
C876 C 0.46028 0.68941 0.25466 0.0
C877 C 0.50767 0.73995 0.26037 0.0
C878 C 0.34368 0.78275 0.25122 0.0
C879 C 0.40426 0.73634 0.25426 0.0
C880 C 0.29063 0.7774 0.24738 0.0
C881 C 0.24276 0.72325 0.24488 0.0
C882 C 0.3484 0.73353 0.2524 0.0
C883 C 0.24853 0.67537 0.24771 0.0
C884 C 0.40863 0.68739 0.25165 0.0
C885 C 0.50285 0.78908 0.26162 0.0
N886 N 0.30039 0.68159 0.25108 0.0
N887 N 0.45179 0.786 0.25876 0.0
loop_
_geom_bond_atom_site_label_1
_geom_bond_atom_site_label_2
_geom_bond_distance
_geom_bond_site_symmetry_2
_ccdc_geom_bond_type
Tb0 O3 2.453 . S
Tb0 O4 2.596 . S
Tb0 O5 2.374 . S
Tb0 O13 2.343 . S
Tb0 O15 2.353 . S
Tb0 O17 2.427 . S
Tb0 O18 2.513 . S
C1 O5 1.251 1_565 S
C1 O7 1.263 1_565 S
Tb2 O4 2.343 . S
Tb2 O7 2.353 . S
Tb2 O10 2.427 1_545 S
Tb2 O11 2.513 . S
Tb2 O12 2.453 . S
Tb2 O13 2.596 . S
Tb2 O14 2.374 . S
O3 Tb0 2.453 . S
O3 C19 1.245 . S
O4 Tb0 2.596 . S
O4 Tb2 2.343 . S
O4 C19 1.259 . S
O5 Tb0 2.374 . S
O5 C1 1.251 1_545 S
C6 O10 1.274 . S
C6 O11 1.247 1_565 S
O7 C1 1.263 1_545 S
O7 Tb2 2.353 . S
C8 O12 1.245 . S
C8 O13 1.259 . S
C9 O14 1.250 . S
C9 O15 1.263 . S
O10 Tb2 2.427 1_565 S
O10 C6 1.274 . S
O11 Tb2 2.513 . S
O11 C6 1.247 1_545 S
O12 Tb2 2.453 . S
O12 C8 1.245 . S
O13 Tb0 2.343 . S
O13 Tb2 2.596 . S
O13 C8 1.259 . S
O14 Tb2 2.374 . S
O14 C9 1.250 . S
O15 Tb0 2.353 . S
O15 C9 1.263 . S
C16 O17 1.275 . S
C16 O18 1.246 . S
O17 Tb0 2.427 . S
O17 C16 1.275 . S
O18 Tb0 2.513 . S
O18 C16 1.246 . S
C19 O3 1.245 . S
C19 O4 1.259 . S
Tb20 O23 2.453 . S
Tb20 O24 2.596 . S
Tb20 O25 2.374 . S
Tb20 O33 2.343 . S
Tb20 O35 2.353 . S
Tb20 O37 2.427 . S
Tb20 O38 2.513 . S
C21 O25 1.251 . S
C21 O27 1.263 . S
Tb22 O24 2.343 . S
Tb22 O27 2.353 . S
Tb22 O30 2.427 . S
Tb22 O31 2.513 . S
Tb22 O32 2.453 . S
Tb22 O33 2.596 . S
Tb22 O34 2.374 . S
O23 Tb20 2.453 . S
O23 C39 1.245 . S
O24 Tb20 2.596 . S
O24 Tb22 2.343 . S
O24 C39 1.259 . S
O25 Tb20 2.374 . S
O25 C21 1.251 . S
C26 O30 1.275 . S
C26 O31 1.246 . S
O27 C21 1.263 . S
O27 Tb22 2.353 . S
C28 O32 1.245 . S
C28 O33 1.259 . S
C29 O34 1.250 . S
C29 O35 1.263 . S
O30 Tb22 2.427 . S
O30 C26 1.275 . S
O31 Tb22 2.513 . S
O31 C26 1.246 . S
O32 Tb22 2.453 . S
O32 C28 1.245 . S
O33 Tb20 2.343 . S
O33 Tb22 2.596 . S
O33 C28 1.259 . S
O34 Tb22 2.374 . S
O34 C29 1.250 . S
O35 Tb20 2.353 . S
O35 C29 1.263 . S
C36 O37 1.275 . S
C36 O38 1.246 . S
O37 Tb20 2.427 . S
O37 C36 1.275 . S
O38 Tb20 2.513 . S
O38 C36 1.246 . S
C39 O23 1.245 . S
C39 O24 1.259 . S
Tb40 O43 2.453 . S
Tb40 O44 2.596 . S
Tb40 O45 2.374 . S
Tb40 O53 2.343 . S
Tb40 O55 2.353 . S
Tb40 O57 2.427 . S
Tb40 O58 2.513 . S
C41 O45 1.251 1_455 S
C41 O47 1.263 1_455 S
Tb42 O44 2.343 . S
Tb42 O47 2.353 . S
Tb42 O50 2.427 1_655 S
Tb42 O51 2.513 . S
Tb42 O52 2.453 . S
Tb42 O53 2.596 . S
Tb42 O54 2.374 . S
O43 Tb40 2.453 . S
O43 C59 1.245 . S
O44 Tb40 2.596 . S
O44 Tb42 2.343 . S
O44 C59 1.259 . S
O45 Tb40 2.374 . S
O45 C41 1.251 1_655 S
C46 O50 1.274 . S
C46 O51 1.247 1_455 S
O47 C41 1.263 1_655 S
O47 Tb42 2.353 . S
C48 O52 1.245 . S
C48 O53 1.259 . S
C49 O54 1.250 . S
C49 O55 1.263 . S
O50 Tb42 2.427 1_455 S
O50 C46 1.274 . S
O51 Tb42 2.513 . S
O51 C46 1.247 1_655 S
O52 Tb42 2.453 . S
O52 C48 1.245 . S
O53 Tb40 2.343 . S
O53 Tb42 2.596 . S
O53 C48 1.259 . S
O54 Tb42 2.374 . S
O54 C49 1.250 . S
O55 Tb40 2.353 . S
O55 C49 1.263 . S
C56 O57 1.275 . S
C56 O58 1.246 . S
O57 Tb40 2.427 . S
O57 C56 1.275 . S
O58 Tb40 2.513 . S
O58 C56 1.246 . S
C59 O43 1.245 . S
C59 O44 1.259 . S
Tb60 O63 2.453 . S
Tb60 O64 2.596 . S
Tb60 O65 2.374 . S
Tb60 O73 2.343 . S
Tb60 O75 2.353 . S
Tb60 O77 2.427 . S
Tb60 O78 2.513 . S
C61 O65 1.251 1_545 S
C61 O67 1.263 1_545 S
Tb62 O64 2.343 . S
Tb62 O67 2.353 . S
Tb62 O70 2.427 1_565 S
Tb62 O71 2.513 . S
Tb62 O72 2.453 . S
Tb62 O73 2.596 . S
Tb62 O74 2.374 . S
O63 Tb60 2.453 . S
O63 C79 1.245 . S
O64 Tb60 2.596 . S
O64 Tb62 2.343 . S
O64 C79 1.259 . S
O65 Tb60 2.374 . S
O65 C61 1.251 1_565 S
C66 O70 1.274 . S
C66 O71 1.247 1_545 S
O67 C61 1.263 1_565 S
O67 Tb62 2.353 . S
C68 O72 1.245 . S
C68 O73 1.259 . S
C69 O74 1.250 . S
C69 O75 1.263 . S
O70 Tb62 2.427 1_545 S
O70 C66 1.274 . S
O71 Tb62 2.513 . S
O71 C66 1.247 1_565 S
O72 Tb62 2.453 . S
O72 C68 1.245 . S
O73 Tb60 2.343 . S
O73 Tb62 2.596 . S
O73 C68 1.259 . S
O74 Tb62 2.374 . S
O74 C69 1.250 . S
O75 Tb60 2.353 . S
O75 C69 1.263 . S
C76 O77 1.275 . S
C76 O78 1.246 . S
O77 Tb60 2.427 . S
O77 C76 1.275 . S
O78 Tb60 2.513 . S
O78 C76 1.246 . S
C79 O63 1.245 . S
C79 O64 1.259 . S
Tb80 O83 2.453 . S
Tb80 O84 2.596 . S
Tb80 O85 2.374 . S
Tb80 O93 2.343 . S
Tb80 O95 2.353 . S
Tb80 O97 2.427 . S
Tb80 O98 2.513 . S
C81 O85 1.251 . S
C81 O87 1.263 . S
Tb82 O84 2.343 . S
Tb82 O87 2.353 . S
Tb82 O90 2.427 . S
Tb82 O91 2.513 . S
Tb82 O92 2.453 . S
Tb82 O93 2.596 . S
Tb82 O94 2.374 . S
O83 Tb80 2.453 . S
O83 C99 1.245 . S
O84 Tb80 2.596 . S
O84 Tb82 2.343 . S
O84 C99 1.259 . S
O85 Tb80 2.374 . S
O85 C81 1.251 . S
C86 O90 1.275 . S
C86 O91 1.246 . S
O87 C81 1.263 . S
O87 Tb82 2.353 . S
C88 O92 1.245 . S
C88 O93 1.259 . S
C89 O94 1.250 . S
C89 O95 1.263 . S
O90 Tb82 2.427 . S
O90 C86 1.275 . S
O91 Tb82 2.513 . S
O91 C86 1.246 . S
O92 Tb82 2.453 . S
O92 C88 1.245 . S
O93 Tb80 2.343 . S
O93 Tb82 2.596 . S
O93 C88 1.259 . S
O94 Tb82 2.374 . S
O94 C89 1.250 . S
O95 Tb80 2.353 . S
O95 C89 1.263 . S
C96 O97 1.275 . S
C96 O98 1.246 . S
O97 Tb80 2.427 . S
O97 C96 1.275 . S
O98 Tb80 2.513 . S
O98 C96 1.246 . S
C99 O83 1.245 . S
C99 O84 1.259 . S
Tb100 O103 2.453 . S
Tb100 O104 2.596 . S
Tb100 O105 2.374 . S
Tb100 O113 2.343 . S
Tb100 O115 2.353 . S
Tb100 O117 2.427 . S
Tb100 O118 2.513 . S
C101 O105 1.251 1_655 S
C101 O107 1.263 1_655 S
Tb102 O104 2.343 . S
Tb102 O107 2.353 . S
Tb102 O110 2.427 1_455 S
Tb102 O111 2.513 . S
Tb102 O112 2.453 . S
Tb102 O113 2.596 . S
Tb102 O114 2.374 . S
O103 Tb100 2.453 . S
O103 C119 1.245 . S
O104 Tb100 2.596 . S
O104 Tb102 2.343 . S
O104 C119 1.259 . S
O105 Tb100 2.374 . S
O105 C101 1.251 1_455 S
C106 O110 1.274 . S
C106 O111 1.247 1_655 S
O107 C101 1.263 1_455 S
O107 Tb102 2.353 . S
C108 O112 1.245 . S
C108 O113 1.259 . S
C109 O114 1.250 . S
C109 O115 1.263 . S
O110 Tb102 2.427 1_655 S
O110 C106 1.274 . S
O111 Tb102 2.513 . S
O111 C106 1.247 1_455 S
O112 Tb102 2.453 . S
O112 C108 1.245 . S
O113 Tb100 2.343 . S
O113 Tb102 2.596 . S
O113 C108 1.259 . S
O114 Tb102 2.374 . S
O114 C109 1.250 . S
O115 Tb100 2.353 . S
O115 C109 1.263 . S
C116 O117 1.275 . S
C116 O118 1.246 . S
O117 Tb100 2.427 . S
O117 C116 1.275 . S
O118 Tb100 2.513 . S
O118 C116 1.246 . S
C119 O103 1.245 . S
C119 O104 1.259 . S
Tb120 O123 2.453 . S
Tb120 O124 2.596 . S
Tb120 O125 2.374 . S
Tb120 O133 2.343 . S
Tb120 O135 2.353 . S
Tb120 O137 2.427 . S
Tb120 O138 2.513 . S
C121 O125 1.251 1_455 S
C121 O127 1.263 1_455 S
Tb122 O124 2.343 . S
Tb122 O127 2.353 . S
Tb122 O130 2.427 1_655 S
Tb122 O131 2.513 . S
Tb122 O132 2.453 . S
Tb122 O133 2.596 . S
Tb122 O134 2.374 . S
O123 Tb120 2.453 . S
O123 C139 1.245 . S
O124 Tb120 2.596 . S
O124 Tb122 2.343 . S
O124 C139 1.259 . S
O125 Tb120 2.374 . S
O125 C121 1.251 1_655 S
C126 O130 1.275 . S
C126 O131 1.247 1_455 S
O127 C121 1.263 1_655 S
O127 Tb122 2.353 . S
C128 O132 1.245 . S
C128 O133 1.259 . S
C129 O134 1.250 . S
C129 O135 1.263 . S
O130 Tb122 2.427 1_455 S
O130 C126 1.275 . S
O131 Tb122 2.513 . S
O131 C126 1.247 1_655 S
O132 Tb122 2.453 . S
O132 C128 1.245 . S
O133 Tb120 2.343 . S
O133 Tb122 2.596 . S
O133 C128 1.259 . S
O134 Tb122 2.374 . S
O134 C129 1.250 . S
O135 Tb120 2.353 . S
O135 C129 1.263 . S
C136 O137 1.275 . S
C136 O138 1.246 . S
O137 Tb120 2.427 . S
O137 C136 1.275 . S
O138 Tb120 2.513 . S
O138 C136 1.246 . S
C139 O123 1.245 . S
C139 O124 1.259 . S
Tb140 O143 2.453 . S
Tb140 O144 2.596 . S
Tb140 O145 2.374 . S
Tb140 O153 2.343 . S
Tb140 O155 2.353 . S
Tb140 O157 2.427 . S
Tb140 O158 2.513 . S
C141 O145 1.251 1_545 S
C141 O147 1.263 1_545 S
Tb142 O144 2.343 . S
Tb142 O147 2.353 . S
Tb142 O150 2.427 1_565 S
Tb142 O151 2.513 . S
Tb142 O152 2.453 . S
Tb142 O153 2.596 . S
Tb142 O154 2.374 . S
O143 Tb140 2.453 . S
O143 C159 1.245 . S
O144 Tb140 2.596 . S
O144 Tb142 2.343 . S
O144 C159 1.259 . S
O145 Tb140 2.374 . S
O145 C141 1.251 1_565 S
C146 O150 1.274 . S
C146 O151 1.247 1_545 S
O147 C141 1.263 1_565 S
O147 Tb142 2.353 . S
C148 O152 1.245 . S
C148 O153 1.259 . S
C149 O154 1.250 . S
C149 O155 1.263 . S
O150 Tb142 2.427 1_545 S
O150 C146 1.274 . S
O151 Tb142 2.513 . S
O151 C146 1.247 1_565 S
O152 Tb142 2.453 . S
O152 C148 1.245 . S
O153 Tb140 2.343 . S
O153 Tb142 2.596 . S
O153 C148 1.259 . S
O154 Tb142 2.374 . S
O154 C149 1.250 . S
O155 Tb140 2.353 . S
O155 C149 1.263 . S
C156 O157 1.275 . S
C156 O158 1.246 . S
O157 Tb140 2.427 . S
O157 C156 1.275 . S
O158 Tb140 2.513 . S
O158 C156 1.246 . S
C159 O143 1.245 . S
C159 O144 1.259 . S
Tb160 O163 2.453 . S
Tb160 O164 2.596 . S
Tb160 O165 2.374 . S
Tb160 O173 2.343 . S
Tb160 O175 2.353 . S
Tb160 O177 2.427 . S
Tb160 O178 2.513 . S
C161 O165 1.251 . S
C161 O167 1.263 . S
Tb162 O164 2.343 . S
Tb162 O167 2.353 . S
Tb162 O170 2.427 . S
Tb162 O171 2.513 . S
Tb162 O172 2.453 . S
Tb162 O173 2.596 . S
Tb162 O174 2.374 . S
O163 Tb160 2.453 . S
O163 C179 1.245 . S
O164 Tb160 2.596 . S
O164 Tb162 2.343 . S
O164 C179 1.259 . S
O165 Tb160 2.374 . S
O165 C161 1.251 . S
C166 O170 1.275 . S
C166 O171 1.246 . S
O167 C161 1.263 . S
O167 Tb162 2.353 . S
C168 O172 1.245 . S
C168 O173 1.259 . S
C169 O174 1.250 . S
C169 O175 1.263 . S
O170 Tb162 2.427 . S
O170 C166 1.275 . S
O171 Tb162 2.513 . S
O171 C166 1.246 . S
O172 Tb162 2.453 . S
O172 C168 1.245 . S
O173 Tb160 2.343 . S
O173 Tb162 2.596 . S
O173 C168 1.259 . S
O174 Tb162 2.374 . S
O174 C169 1.250 . S
O175 Tb160 2.353 . S
O175 C169 1.263 . S
C176 O177 1.275 . S
C176 O178 1.246 . S
O177 Tb160 2.427 . S
O177 C176 1.275 . S
O178 Tb160 2.513 . S
O178 C176 1.246 . S
C179 O163 1.245 . S
C179 O164 1.259 . S
Tb180 O183 2.453 . S
Tb180 O184 2.596 . S
Tb180 O185 2.374 . S
Tb180 O193 2.343 . S
Tb180 O195 2.353 . S
Tb180 O197 2.427 . S
Tb180 O198 2.513 . S
C181 O185 1.251 1_655 S
C181 O187 1.263 1_655 S
Tb182 O184 2.343 . S
Tb182 O187 2.353 . S
Tb182 O190 2.427 1_455 S
Tb182 O191 2.513 . S
Tb182 O192 2.453 . S
Tb182 O193 2.596 . S
Tb182 O194 2.374 . S
O183 Tb180 2.453 . S
O183 C199 1.245 . S
O184 Tb180 2.596 . S
O184 Tb182 2.343 . S
O184 C199 1.259 . S
O185 Tb180 2.374 . S
O185 C181 1.251 1_455 S
C186 O190 1.275 . S
C186 O191 1.247 1_655 S
O187 C181 1.263 1_455 S
O187 Tb182 2.353 . S
C188 O192 1.245 . S
C188 O193 1.259 . S
C189 O194 1.250 . S
C189 O195 1.263 . S
O190 Tb182 2.427 1_655 S
O190 C186 1.275 . S
O191 Tb182 2.513 . S
O191 C186 1.247 1_455 S
O192 Tb182 2.453 . S
O192 C188 1.245 . S
O193 Tb180 2.343 . S
O193 Tb182 2.596 . S
O193 C188 1.259 . S
O194 Tb182 2.374 . S
O194 C189 1.250 . S
O195 Tb180 2.353 . S
O195 C189 1.263 . S
C196 O197 1.275 . S
C196 O198 1.246 . S
O197 Tb180 2.427 . S
O197 C196 1.275 . S
O198 Tb180 2.513 . S
O198 C196 1.246 . S
C199 O183 1.245 . S
C199 O184 1.259 . S
Tb200 O203 2.453 . S
Tb200 O204 2.596 . S
Tb200 O205 2.374 . S
Tb200 O213 2.343 . S
Tb200 O215 2.353 . S
Tb200 O217 2.427 . S
Tb200 O218 2.513 . S
C201 O205 1.251 1_565 S
C201 O207 1.263 1_565 S
Tb202 O204 2.343 . S
Tb202 O207 2.353 . S
Tb202 O210 2.427 1_545 S
Tb202 O211 2.513 . S
Tb202 O212 2.453 . S
Tb202 O213 2.596 . S
Tb202 O214 2.374 . S
O203 Tb200 2.453 . S
O203 C219 1.245 . S
O204 Tb200 2.596 . S
O204 Tb202 2.343 . S
O204 C219 1.259 . S
O205 Tb200 2.374 . S
O205 C201 1.251 1_545 S
C206 O210 1.274 . S
C206 O211 1.247 1_565 S
O207 C201 1.263 1_545 S
O207 Tb202 2.353 . S
C208 O212 1.245 . S
C208 O213 1.259 . S
C209 O214 1.250 . S
C209 O215 1.263 . S
O210 Tb202 2.427 1_565 S
O210 C206 1.274 . S
O211 Tb202 2.513 . S
O211 C206 1.247 1_545 S
O212 Tb202 2.453 . S
O212 C208 1.245 . S
O213 Tb200 2.343 . S
O213 Tb202 2.596 . S
O213 C208 1.259 . S
O214 Tb202 2.374 . S
O214 C209 1.250 . S
O215 Tb200 2.353 . S
O215 C209 1.263 . S
C216 O217 1.275 . S
C216 O218 1.246 . S
O217 Tb200 2.427 . S
O217 C216 1.275 . S
O218 Tb200 2.513 . S
O218 C216 1.246 . S
C219 O203 1.245 . S
C219 O204 1.259 . S
Tb220 O223 2.453 . S
Tb220 O224 2.596 . S
Tb220 O225 2.374 . S
Tb220 O233 2.343 . S
Tb220 O235 2.353 . S
Tb220 O237 2.427 . S
Tb220 O238 2.513 . S
C221 O225 1.251 . S
C221 O227 1.263 . S
Tb222 O224 2.343 . S
Tb222 O227 2.353 . S
Tb222 O230 2.427 . S
Tb222 O231 2.513 . S
Tb222 O232 2.453 . S
Tb222 O233 2.596 . S
Tb222 O234 2.374 . S
O223 Tb220 2.453 . S
O223 C239 1.245 . S
O224 Tb220 2.596 . S
O224 Tb222 2.343 . S
O224 C239 1.259 . S
O225 Tb220 2.374 . S
O225 C221 1.251 . S
C226 O230 1.275 . S
C226 O231 1.246 . S
O227 C221 1.263 . S
O227 Tb222 2.353 . S
C228 O232 1.245 . S
C228 O233 1.259 . S
C229 O234 1.250 . S
C229 O235 1.263 . S
O230 Tb222 2.427 . S
O230 C226 1.275 . S
O231 Tb222 2.513 . S
O231 C226 1.246 . S
O232 Tb222 2.453 . S
O232 C228 1.245 . S
O233 Tb220 2.343 . S
O233 Tb222 2.596 . S
O233 C228 1.259 . S
O234 Tb222 2.374 . S
O234 C229 1.250 . S
O235 Tb220 2.353 . S
O235 C229 1.263 . S
C236 O237 1.275 . S
C236 O238 1.246 . S
O237 Tb220 2.427 . S
O237 C236 1.275 . S
O238 Tb220 2.513 . S
O238 C236 1.246 . S
C239 O223 1.245 . S
C239 O224 1.259 . S
H240 C246 0.930 . S
H241 C250 0.930 . S
H242 C255 0.929 . S
H243 C253 0.929 . S
H244 C248 0.929 . S
H245 C254 0.929 . S
C246 H240 0.930 . S
C246 C247 1.367 . S
C246 C254 1.378 . S
C247 C246 1.367 . S
C247 C255 1.433 . S
C248 H244 0.929 . S
C248 C250 1.378 . S
C248 C252 1.350 . S
C249 C252 1.463 . S
C249 C254 1.350 . S
C249 N257 1.427 . S
C250 H241 0.930 . S
C250 C248 1.378 . S
C250 C251 1.367 . S
C251 C250 1.367 . S
C251 C253 1.433 1_565 S
C252 C248 1.350 . S
C252 C249 1.463 . S
C252 N256 1.427 . S
C253 H243 0.929 . S
C253 C251 1.433 1_545 S
C253 N256 1.384 1_545 S
C254 H245 0.929 . S
C254 C246 1.378 . S
C254 C249 1.350 . S
C255 H242 0.929 . S
C255 C247 1.433 . S
C255 N257 1.384 . S
N256 C252 1.427 . S
N256 C253 1.384 1_565 S
N257 C249 1.427 . S
N257 C255 1.384 . S
H258 C264 0.930 . S
H259 C268 0.930 . S
H260 C273 0.929 . S
H261 C271 0.929 . S
H262 C266 0.929 . S
H263 C272 0.929 . S
C264 H258 0.930 . S
C264 C265 1.367 . S
C264 C272 1.378 . S
C265 C264 1.367 . S
C265 C273 1.433 . S
C266 H262 0.929 . S
C266 C268 1.378 . S
C266 C270 1.350 . S
C267 C270 1.463 . S
C267 C272 1.350 . S
C267 N275 1.427 . S
C268 H259 0.930 . S
C268 C266 1.378 . S
C268 C269 1.367 . S
C269 C268 1.367 . S
C269 C271 1.433 . S
C270 C266 1.350 . S
C270 C267 1.463 . S
C270 N274 1.427 . S
C271 H261 0.929 . S
C271 C269 1.433 . S
C271 N274 1.384 . S
C272 H263 0.929 . S
C272 C264 1.378 . S
C272 C267 1.350 . S
C273 H260 0.929 . S
C273 C265 1.433 . S
C273 N275 1.384 . S
N274 C270 1.427 . S
N274 C271 1.384 . S
N275 C267 1.427 . S
N275 C273 1.384 . S
H276 C282 0.930 . S
H277 C286 0.930 . S
H278 C291 0.929 . S
H279 C289 0.929 . S
H280 C284 0.929 . S
H281 C290 0.929 . S
C282 H276 0.930 . S
C282 C283 1.367 . S
C282 C290 1.378 . S
C283 C282 1.367 . S
C283 C291 1.433 1_455 S
C284 H280 0.929 . S
C284 C286 1.378 . S
C284 C288 1.350 . S
C285 C288 1.463 . S
C285 C290 1.350 . S
C285 N293 1.427 . S
C286 H277 0.930 . S
C286 C284 1.378 . S
C286 C287 1.367 . S
C287 C286 1.367 . S
C287 C289 1.433 . S
C288 C284 1.350 . S
C288 C285 1.463 . S
C288 N292 1.427 . S
C289 H279 0.929 . S
C289 C287 1.433 . S
C289 N292 1.384 . S
C290 H281 0.929 . S
C290 C282 1.378 . S
C290 C285 1.350 . S
C291 H278 0.929 . S
C291 C283 1.433 1_655 S
C291 N293 1.384 1_655 S
N292 C288 1.427 . S
N292 C289 1.384 . S
N293 C285 1.427 . S
N293 C291 1.384 1_455 S
H294 C300 0.930 . S
H295 C304 0.930 . S
H296 C309 0.929 . S
H297 C307 0.929 . S
H298 C302 0.929 . S
H299 C308 0.929 . S
C300 H294 0.930 . S
C300 C301 1.367 . S
C300 C308 1.378 . S
C301 C300 1.367 . S
C301 C309 1.433 . S
C302 H298 0.929 . S
C302 C304 1.378 . S
C302 C306 1.350 . S
C303 C306 1.463 . S
C303 C308 1.350 . S
C303 N311 1.427 . S
C304 H295 0.930 . S
C304 C302 1.378 . S
C304 C305 1.367 . S
C305 C304 1.367 . S
C305 C307 1.433 1_545 S
C306 C302 1.350 . S
C306 C303 1.463 . S
C306 N310 1.427 . S
C307 H297 0.929 . S
C307 C305 1.433 1_565 S
C307 N310 1.384 1_565 S
C308 H299 0.929 . S
C308 C300 1.378 . S
C308 C303 1.350 . S
C309 H296 0.929 . S
C309 C301 1.433 . S
C309 N311 1.384 . S
N310 C306 1.427 . S
N310 C307 1.384 1_545 S
N311 C303 1.427 . S
N311 C309 1.384 . S
H312 C318 0.930 . S
H313 C322 0.930 . S
H314 C327 0.929 . S
H315 C325 0.929 . S
H316 C320 0.929 . S
H317 C326 0.929 . S
C318 H312 0.930 . S
C318 C319 1.367 . S
C318 C326 1.378 . S
C319 C318 1.367 . S
C319 C327 1.433 . S
C320 H316 0.929 . S
C320 C322 1.378 1_556 S
C320 C324 1.350 . S
C321 C324 1.463 . S
C321 C326 1.350 . S
C321 N329 1.427 . S
C322 H313 0.930 . S
C322 C320 1.378 1_554 S
C322 C323 1.367 . S
C323 C322 1.367 . S
C323 C325 1.433 1_554 S
C324 C320 1.350 . S
C324 C321 1.463 . S
C324 N328 1.427 . S
C325 H315 0.929 . S
C325 C323 1.433 1_556 S
C325 N328 1.384 . S
C326 H317 0.929 . S
C326 C318 1.378 . S
C326 C321 1.350 . S
C327 H314 0.929 . S
C327 C319 1.433 . S
C327 N329 1.384 . S
N328 C324 1.427 . S
N328 C325 1.384 . S
N329 C321 1.427 . S
N329 C327 1.384 . S
H330 C336 0.930 . S
H331 C340 0.930 . S
H332 C345 0.929 . S
H333 C343 0.929 . S
H334 C338 0.929 . S
H335 C344 0.929 . S
C336 H330 0.930 . S
C336 C337 1.367 . S
C336 C344 1.378 . S
C337 C336 1.367 . S
C337 C345 1.433 1_655 S
C338 H334 0.929 . S
C338 C340 1.378 . S
C338 C342 1.350 . S
C339 C342 1.463 . S
C339 C344 1.350 . S
C339 N347 1.427 . S
C340 H331 0.930 . S
C340 C338 1.378 . S
C340 C341 1.367 . S
C341 C340 1.367 . S
C341 C343 1.433 . S
C342 C338 1.350 . S
C342 C339 1.463 . S
C342 N346 1.427 . S
C343 H333 0.929 . S
C343 C341 1.433 . S
C343 N346 1.384 . S
C344 H335 0.929 . S
C344 C336 1.378 . S
C344 C339 1.350 . S
C345 H332 0.929 . S
C345 C337 1.433 1_455 S
C345 N347 1.384 1_455 S
N346 C342 1.427 . S
N346 C343 1.384 . S
N347 C339 1.427 . S
N347 C345 1.384 1_655 S
H348 C354 0.930 . S
H349 C358 0.930 . S
H350 C363 0.929 . S
H351 C361 0.929 . S
H352 C356 0.929 . S
H353 C362 0.929 . S
C354 H348 0.930 . S
C354 C355 1.367 . S
C354 C362 1.378 . S
C355 C354 1.367 . S
C355 C363 1.433 . S
C356 H352 0.929 . S
C356 C358 1.378 . S
C356 C360 1.350 . S
C357 C360 1.463 . S
C357 C362 1.350 . S
C357 N365 1.427 . S
C358 H349 0.930 . S
C358 C356 1.378 . S
C358 C359 1.367 . S
C359 C358 1.367 . S
C359 C361 1.433 1_455 S
C360 C356 1.350 . S
C360 C357 1.463 . S
C360 N364 1.427 . S
C361 H351 0.929 . S
C361 C359 1.433 1_655 S
C361 N364 1.384 1_655 S
C362 H353 0.929 . S
C362 C354 1.378 . S
C362 C357 1.350 . S
C363 H350 0.929 . S
C363 C355 1.433 . S
C363 N365 1.384 . S
N364 C360 1.427 . S
N364 C361 1.384 1_455 S
N365 C357 1.427 . S
N365 C363 1.384 . S
H366 C372 0.930 1_565 S
H367 C376 0.930 . S
H368 C381 0.929 . S
H369 C379 0.929 . S
H370 C374 0.929 . S
H371 C380 0.929 . S
C372 H366 0.930 1_545 S
C372 C373 1.367 . S
C372 C380 1.378 . S
C373 C372 1.367 . S
C373 C381 1.433 . S
C374 H370 0.929 . S
C374 C376 1.378 . S
C374 C378 1.350 . S
C375 C378 1.463 . S
C375 C380 1.350 . S
C375 N383 1.427 . S
C376 H367 0.930 . S
C376 C374 1.378 . S
C376 C377 1.367 . S
C377 C376 1.367 . S
C377 C379 1.433 . S
C378 C374 1.350 . S
C378 C375 1.463 . S
C378 N382 1.427 . S
C379 H369 0.929 . S
C379 C377 1.433 . S
C379 N382 1.384 . S
C380 H371 0.929 . S
C380 C372 1.378 . S
C380 C375 1.350 . S
C381 H368 0.929 . S
C381 C373 1.433 . S
C381 N383 1.384 . S
N382 C378 1.427 . S
N382 C379 1.384 . S
N383 C375 1.427 . S
N383 C381 1.384 . S
H384 C390 0.930 . S
H385 C394 0.930 . S
H386 C399 0.929 . S
H387 C397 0.929 . S
H388 C392 0.929 . S
H389 C398 0.929 . S
C390 H384 0.930 . S
C390 C391 1.367 . S
C390 C398 1.378 . S
C391 C390 1.367 . S
C391 C399 1.433 . S
C392 H388 0.929 . S
C392 C394 1.378 . S
C392 C396 1.350 . S
C393 C396 1.463 . S
C393 C398 1.350 . S
C393 N401 1.427 . S
C394 H385 0.930 . S
C394 C392 1.378 . S
C394 C395 1.367 . S
C395 C394 1.367 . S
C395 C397 1.433 . S
C396 C392 1.350 . S
C396 C393 1.463 . S
C396 N400 1.427 . S
C397 H387 0.929 . S
C397 C395 1.433 . S
C397 N400 1.384 . S
C398 H389 0.929 . S
C398 C390 1.378 . S
C398 C393 1.350 . S
C399 H386 0.929 . S
C399 C391 1.433 . S
C399 N401 1.384 . S
N400 C396 1.427 . S
N400 C397 1.384 . S
N401 C393 1.427 . S
N401 C399 1.384 . S
H402 C408 0.930 . S
H403 C412 0.930 . S
H404 C417 0.929 . S
H405 C415 0.929 . S
H406 C410 0.929 . S
H407 C416 0.929 . S
C408 H402 0.930 . S
C408 C409 1.367 . S
C408 C416 1.378 . S
C409 C408 1.367 . S
C409 C417 1.433 . S
C410 H406 0.929 . S
C410 C412 1.378 1_554 S
C410 C414 1.350 . S
C411 C414 1.463 . S
C411 C416 1.350 . S
C411 N419 1.427 . S
C412 H403 0.930 . S
C412 C410 1.378 1_556 S
C412 C413 1.367 . S
C413 C412 1.367 . S
C413 C415 1.433 1_656 S
C414 C410 1.350 . S
C414 C411 1.463 . S
C414 N418 1.427 . S
C415 H405 0.929 . S
C415 C413 1.433 1_454 S
C415 N418 1.384 1_455 S
C416 H407 0.929 . S
C416 C408 1.378 . S
C416 C411 1.350 . S
C417 H404 0.929 . S
C417 C409 1.433 . S
C417 N419 1.384 . S
N418 C414 1.427 . S
N418 C415 1.384 1_655 S
N419 C411 1.427 . S
N419 C417 1.384 . S
H420 C426 0.930 . S
H421 C430 0.936 . S
H422 C435 0.929 . S
H423 C433 0.929 . S
H424 C428 0.929 . S
H425 C434 0.929 . S
C426 H420 0.930 . S
C426 C427 1.367 . S
C426 C434 1.378 . S
C427 C426 1.367 . S
C427 C435 1.433 . S
C428 H424 0.929 . S
C428 C430 1.371 1_565 S
C428 C432 1.350 . S
C429 C432 1.463 . S
C429 C434 1.350 . S
C429 N437 1.427 . S
C430 H421 0.936 . S
C430 C428 1.371 1_545 S
C430 C431 1.368 1_545 S
C431 C430 1.368 1_565 S
C431 C433 1.433 . S
C432 C428 1.350 . S
C432 C429 1.463 . S
C432 N436 1.427 . S
C433 H423 0.929 . S
C433 C431 1.433 . S
C433 N436 1.384 . S
C434 H425 0.929 . S
C434 C426 1.378 . S
C434 C429 1.350 . S
C435 H422 0.929 . S
C435 C427 1.433 . S
C435 N437 1.384 . S
N436 C432 1.427 . S
N436 C433 1.384 . S
N437 C429 1.427 . S
N437 C435 1.384 . S
H438 C444 0.930 . S
H439 C448 0.930 . S
H440 C453 0.929 . S
H441 C451 0.929 . S
H442 C446 0.929 . S
H443 C452 0.929 . S
C444 H438 0.930 . S
C444 C445 1.367 . S
C444 C452 1.378 . S
C445 C444 1.367 . S
C445 C453 1.433 . S
C446 H442 0.929 . S
C446 C448 1.378 . S
C446 C450 1.350 . S
C447 C450 1.463 . S
C447 C452 1.350 . S
C447 N455 1.427 . S
C448 H439 0.930 . S
C448 C446 1.378 . S
C448 C449 1.367 . S
C449 C448 1.367 . S
C449 C451 1.433 . S
C450 C446 1.350 . S
C450 C447 1.463 . S
C450 N454 1.427 . S
C451 H441 0.929 . S
C451 C449 1.433 . S
C451 N454 1.384 . S
C452 H443 0.929 . S
C452 C444 1.378 . S
C452 C447 1.350 . S
C453 H440 0.929 . S
C453 C445 1.433 . S
C453 N455 1.384 . S
N454 C450 1.427 . S
N454 C451 1.384 . S
N455 C447 1.427 . S
N455 C453 1.384 . S
H456 C462 0.930 . S
H457 C466 0.930 . S
H458 C471 0.929 . S
H459 C469 0.929 . S
H460 C464 0.929 . S
H461 C470 0.929 . S
C462 H456 0.930 . S
C462 C463 1.367 . S
C462 C470 1.378 . S
C463 C462 1.367 . S
C463 C471 1.433 . S
C464 H460 0.929 . S
C464 C466 1.378 . S
C464 C468 1.350 . S
C465 C468 1.463 . S
C465 C470 1.350 . S
C465 N473 1.427 . S
C466 H457 0.930 . S
C466 C464 1.378 . S
C466 C467 1.367 . S
C467 C466 1.367 . S
C467 C469 1.433 . S
C468 C464 1.350 . S
C468 C465 1.463 . S
C468 N472 1.427 . S
C469 H459 0.929 . S
C469 C467 1.433 . S
C469 N472 1.384 . S
C470 H461 0.929 . S
C470 C462 1.378 . S
C470 C465 1.350 . S
C471 H458 0.929 . S
C471 C463 1.433 . S
C471 N473 1.384 . S
N472 C468 1.427 . S
N472 C469 1.384 . S
N473 C465 1.427 . S
N473 C471 1.384 . S
H474 C480 0.930 . S
H475 C484 0.930 . S
H476 C489 0.929 . S
H477 C487 0.929 . S
H478 C482 0.929 . S
H479 C488 0.929 . S
C480 H474 0.930 . S
C480 C481 1.367 . S
C480 C488 1.378 . S
C481 C480 1.367 . S
C481 C489 1.433 . S
C482 H478 0.929 . S
C482 C484 1.378 . S
C482 C486 1.350 . S
C483 C486 1.463 . S
C483 C488 1.350 . S
C483 N491 1.427 . S
C484 H475 0.930 . S
C484 C482 1.378 . S
C484 C485 1.367 . S
C485 C484 1.367 . S
C485 C487 1.433 . S
C486 C482 1.350 . S
C486 C483 1.463 . S
C486 N490 1.427 . S
C487 H477 0.929 . S
C487 C485 1.433 . S
C487 N490 1.384 . S
C488 H479 0.929 . S
C488 C480 1.378 . S
C488 C483 1.350 . S
C489 H476 0.929 . S
C489 C481 1.433 . S
C489 N491 1.384 . S
N490 C486 1.427 . S
N490 C487 1.384 . S
N491 C483 1.427 . S
N491 C489 1.384 . S
H492 C498 0.930 . S
H493 C502 0.930 . S
H494 C507 0.929 . S
H495 C505 0.929 . S
H496 C500 0.929 . S
H497 C506 0.929 . S
C498 H492 0.930 . S
C498 C499 1.367 . S
C498 C506 1.378 . S
C499 C498 1.367 . S
C499 C507 1.433 . S
C500 H496 0.929 . S
C500 C502 1.378 . S
C500 C504 1.350 . S
C501 C504 1.463 . S
C501 C506 1.350 . S
C501 N509 1.427 . S
C502 H493 0.930 . S
C502 C500 1.378 . S
C502 C503 1.367 . S
C503 C502 1.367 . S
C503 C505 1.433 . S
C504 C500 1.350 . S
C504 C501 1.463 . S
C504 N508 1.427 . S
C505 H495 0.929 . S
C505 C503 1.433 . S
C505 N508 1.384 . S
C506 H497 0.929 . S
C506 C498 1.378 . S
C506 C501 1.350 . S
C507 H494 0.929 . S
C507 C499 1.433 . S
C507 N509 1.384 . S
N508 C504 1.427 . S
N508 C505 1.384 . S
N509 C501 1.427 . S
N509 C507 1.384 . S
H510 C516 0.930 . S
H511 C520 0.930 . S
H512 C525 0.929 . S
H513 C523 0.929 . S
H514 C518 0.929 . S
H515 C524 0.929 . S
C516 H510 0.930 . S
C516 C517 1.367 . S
C516 C524 1.378 . S
C517 C516 1.367 . S
C517 C525 1.433 . S
C518 H514 0.929 . S
C518 C520 1.378 . S
C518 C522 1.350 . S
C519 C522 1.463 . S
C519 C524 1.350 . S
C519 N527 1.427 . S
C520 H511 0.930 . S
C520 C518 1.378 . S
C520 C521 1.367 . S
C521 C520 1.367 . S
C521 C523 1.433 . S
C522 C518 1.350 . S
C522 C519 1.463 . S
C522 N526 1.427 . S
C523 H513 0.929 . S
C523 C521 1.433 . S
C523 N526 1.384 . S
C524 H515 0.929 . S
C524 C516 1.378 . S
C524 C519 1.350 . S
C525 H512 0.929 . S
C525 C517 1.433 . S
C525 N527 1.384 . S
N526 C522 1.427 . S
N526 C523 1.384 . S
N527 C519 1.427 . S
N527 C525 1.384 . S
H528 C534 0.930 . S
H529 C538 0.930 . S
H530 C543 0.929 . S
H531 C541 0.929 . S
H532 C536 0.929 . S
H533 C542 0.929 . S
C534 H528 0.930 . S
C534 C535 1.367 . S
C534 C542 1.378 . S
C535 C534 1.367 . S
C535 C543 1.433 . S
C536 H532 0.929 . S
C536 C538 1.378 . S
C536 C540 1.350 1_554 S
C537 C540 1.463 . S
C537 C542 1.350 . S
C537 N545 1.427 . S
C538 H529 0.930 . S
C538 C536 1.378 . S
C538 C539 1.367 . S
C539 C538 1.367 . S
C539 C541 1.433 1_554 S
C540 C536 1.350 1_556 S
C540 C537 1.463 . S
C540 N544 1.427 . S
C541 H531 0.929 . S
C541 C539 1.433 1_556 S
C541 N544 1.384 . S
C542 H533 0.929 . S
C542 C534 1.378 . S
C542 C537 1.350 . S
C543 H530 0.929 . S
C543 C535 1.433 . S
C543 N545 1.384 . S
N544 C540 1.427 . S
N544 C541 1.384 . S
N545 C537 1.427 . S
N545 C543 1.384 . S
H546 C552 0.930 . S
H547 C556 0.930 . S
H548 C561 0.929 . S
H549 C559 0.929 . S
H550 C554 0.929 . S
H551 C560 0.929 . S
C552 H546 0.930 . S
C552 C553 1.367 . S
C552 C560 1.378 . S
C553 C552 1.367 . S
C553 C561 1.433 . S
C554 H550 0.929 . S
C554 C556 1.378 . S
C554 C558 1.350 . S
C555 C558 1.463 . S
C555 C560 1.350 . S
C555 N563 1.427 . S
C556 H547 0.930 . S
C556 C554 1.378 . S
C556 C557 1.367 . S
C557 C556 1.367 . S
C557 C559 1.433 . S
C558 C554 1.350 . S
C558 C555 1.463 . S
C558 N562 1.427 . S
C559 H549 0.929 . S
C559 C557 1.433 . S
C559 N562 1.384 . S
C560 H551 0.929 . S
C560 C552 1.378 . S
C560 C555 1.350 . S
C561 H548 0.929 . S
C561 C553 1.433 . S
C561 N563 1.384 . S
N562 C558 1.427 . S
N562 C559 1.384 . S
N563 C555 1.427 . S
N563 C561 1.384 . S
H564 C570 0.930 1_655 S
H565 C574 0.930 . S
H566 C579 0.929 . S
H567 C577 0.929 . S
H568 C572 0.929 . S
H569 C578 0.929 . S
C570 H564 0.930 1_455 S
C570 C571 1.367 . S
C570 C578 1.378 . S
C571 C570 1.367 . S
C571 C579 1.433 . S
C572 H568 0.929 . S
C572 C574 1.378 . S
C572 C576 1.350 . S
C573 C576 1.463 . S
C573 C578 1.350 . S
C573 N581 1.427 . S
C574 H565 0.930 . S
C574 C572 1.378 . S
C574 C575 1.367 . S
C575 C574 1.367 . S
C575 C577 1.433 . S
C576 C572 1.350 . S
C576 C573 1.463 . S
C576 N580 1.427 . S
C577 H567 0.929 . S
C577 C575 1.433 . S
C577 N580 1.384 . S
C578 H569 0.929 . S
C578 C570 1.378 . S
C578 C573 1.350 . S
C579 H566 0.929 . S
C579 C571 1.433 . S
C579 N581 1.384 . S
N580 C576 1.427 . S
N580 C577 1.384 . S
N581 C573 1.427 . S
N581 C579 1.384 . S
H582 C588 0.930 . S
H583 C592 0.930 . S
H584 C597 0.929 . S
H585 C595 0.929 . S
H586 C590 0.929 . S
H587 C596 0.929 . S
C588 H582 0.930 . S
C588 C589 1.367 . S
C588 C596 1.378 . S
C589 C588 1.367 . S
C589 C597 1.433 . S
C590 H586 0.929 . S
C590 C592 1.378 . S
C590 C594 1.350 . S
C591 C594 1.463 . S
C591 C596 1.350 . S
C591 N599 1.427 . S
C592 H583 0.930 . S
C592 C590 1.378 . S
C592 C593 1.367 . S
C593 C592 1.367 . S
C593 C595 1.433 . S
C594 C590 1.350 . S
C594 C591 1.463 . S
C594 N598 1.427 . S
C595 H585 0.929 . S
C595 C593 1.433 . S
C595 N598 1.384 . S
C596 H587 0.929 . S
C596 C588 1.378 . S
C596 C591 1.350 . S
C597 H584 0.929 . S
C597 C589 1.433 . S
C597 N599 1.384 . S
N598 C594 1.427 . S
N598 C595 1.384 . S
N599 C591 1.427 . S
N599 C597 1.384 . S
H600 C606 0.930 . S
H601 C610 0.930 . S
H602 C615 0.929 . S
H603 C613 0.929 . S
H604 C608 0.929 . S
H605 C614 0.929 . S
C606 H600 0.930 . S
C606 C607 1.367 . S
C606 C614 1.378 . S
C607 C606 1.367 . S
C607 C615 1.433 . S
C608 H604 0.929 . S
C608 C610 1.378 . S
C608 C612 1.350 . S
C609 C612 1.463 . S
C609 C614 1.350 . S
C609 N617 1.427 . S
C610 H601 0.930 . S
C610 C608 1.378 . S
C610 C611 1.367 . S
C611 C610 1.367 . S
C611 C613 1.433 . S
C612 C608 1.350 . S
C612 C609 1.463 . S
C612 N616 1.427 . S
C613 H603 0.929 . S
C613 C611 1.433 . S
C613 N616 1.384 . S
C614 H605 0.929 . S
C614 C606 1.378 . S
C614 C609 1.350 . S
C615 H602 0.929 . S
C615 C607 1.433 . S
C615 N617 1.384 . S
N616 C612 1.427 . S
N616 C613 1.384 . S
N617 C609 1.427 . S
N617 C615 1.384 . S
H618 C624 0.930 . S
H619 C628 0.930 . S
H620 C633 0.929 . S
H621 C631 0.929 . S
H622 C626 0.929 . S
H623 C632 0.927 . S
C624 H618 0.930 . S
C624 C625 1.367 . S
C624 C632 1.378 . S
C625 C624 1.367 . S
C625 C633 1.433 . S
C626 H622 0.929 . S
C626 C628 1.378 . S
C626 C630 1.350 . S
C627 C630 1.463 . S
C627 C632 1.350 . S
C627 N635 1.427 . S
C628 H619 0.930 . S
C628 C626 1.378 . S
C628 C629 1.367 1_554 S
C629 C628 1.367 1_556 S
C629 C631 1.433 . S
C630 C626 1.350 . S
C630 C627 1.463 . S
C630 N634 1.427 1_554 S
C631 H621 0.929 . S
C631 C629 1.433 . S
C631 N634 1.384 . S
C632 H623 0.927 . S
C632 C624 1.378 . S
C632 C627 1.350 . S
C633 H620 0.929 . S
C633 C625 1.433 . S
C633 N635 1.384 . S
N634 C630 1.427 1_556 S
N634 C631 1.384 . S
N635 C627 1.427 . S
N635 C633 1.384 . S
H636 C642 0.930 . S
H637 C646 0.930 . S
H638 C651 0.929 1_545 S
H639 C649 0.929 . S
H640 C644 0.929 . S
H641 C650 0.929 . S
C642 H636 0.930 . S
C642 C643 1.367 . S
C642 C650 1.378 . S
C643 C642 1.367 . S
C643 C651 1.433 . S
C644 H640 0.929 . S
C644 C646 1.378 . S
C644 C648 1.350 . S
C645 C648 1.463 . S
C645 C650 1.350 . S
C645 N653 1.427 . S
C646 H637 0.930 . S
C646 C644 1.378 . S
C646 C647 1.367 . S
C647 C646 1.367 . S
C647 C649 1.433 . S
C648 C644 1.350 . S
C648 C645 1.463 . S
C648 N652 1.427 . S
C649 H639 0.929 . S
C649 C647 1.433 . S
C649 N652 1.384 . S
C650 H641 0.929 . S
C650 C642 1.378 . S
C650 C645 1.350 . S
C651 H638 0.929 1_565 S
C651 C643 1.433 . S
C651 N653 1.384 . S
N652 C648 1.427 . S
N652 C649 1.384 . S
N653 C645 1.427 . S
N653 C651 1.384 . S
H654 C660 0.930 . S
H655 C664 0.930 . S
H656 C669 0.929 . S
H657 C667 0.929 . S
H658 C662 0.929 . S
H659 C668 0.929 . S
C660 H654 0.930 . S
C660 C661 1.367 . S
C660 C668 1.378 . S
C661 C660 1.367 . S
C661 C669 1.433 . S
C662 H658 0.929 . S
C662 C664 1.378 . S
C662 C666 1.350 . S
C663 C666 1.463 . S
C663 C668 1.350 . S
C663 N671 1.427 . S
C664 H655 0.930 . S
C664 C662 1.378 . S
C664 C665 1.367 . S
C665 C664 1.367 . S
C665 C667 1.433 . S
C666 C662 1.350 . S
C666 C663 1.463 . S
C666 N670 1.427 . S
C667 H657 0.929 . S
C667 C665 1.433 . S
C667 N670 1.384 . S
C668 H659 0.929 . S
C668 C660 1.378 . S
C668 C663 1.350 . S
C669 H656 0.929 . S
C669 C661 1.433 . S
C669 N671 1.384 . S
N670 C666 1.427 . S
N670 C667 1.384 . S
N671 C663 1.427 . S
N671 C669 1.384 . S
H672 C678 0.930 . S
H673 C682 0.930 . S
H674 C687 0.929 . S
H675 C685 0.929 . S
H676 C680 0.929 . S
H677 C686 0.929 . S
C678 H672 0.930 . S
C678 C679 1.367 . S
C678 C686 1.378 . S
C679 C678 1.367 . S
C679 C687 1.433 . S
C680 H676 0.929 . S
C680 C682 1.378 . S
C680 C684 1.350 . S
C681 C684 1.463 . S
C681 C686 1.350 . S
C681 N689 1.427 . S
C682 H673 0.930 . S
C682 C680 1.378 . S
C682 C683 1.367 . S
C683 C682 1.367 . S
C683 C685 1.433 . S
C684 C680 1.350 . S
C684 C681 1.463 . S
C684 N688 1.427 . S
C685 H675 0.929 . S
C685 C683 1.433 . S
C685 N688 1.384 . S
C686 H677 0.929 . S
C686 C678 1.378 . S
C686 C681 1.350 . S
C687 H674 0.929 . S
C687 C679 1.433 . S
C687 N689 1.384 . S
N688 C684 1.427 . S
N688 C685 1.384 . S
N689 C681 1.427 . S
N689 C687 1.384 . S
H690 C696 0.930 . S
H691 C700 0.930 . S
H692 C705 0.929 . S
H693 C703 0.929 . S
H694 C698 0.929 . S
H695 C704 0.929 . S
C696 H690 0.930 . S
C696 C697 1.367 . S
C696 C704 1.378 . S
C697 C696 1.367 . S
C697 C705 1.433 . S
C698 H694 0.929 . S
C698 C700 1.378 . S
C698 C702 1.350 . S
C699 C702 1.463 . S
C699 C704 1.350 . S
C699 N707 1.427 . S
C700 H691 0.930 . S
C700 C698 1.378 . S
C700 C701 1.367 . S
C701 C700 1.367 . S
C701 C703 1.433 . S
C702 C698 1.350 . S
C702 C699 1.463 . S
C702 N706 1.427 . S
C703 H693 0.929 . S
C703 C701 1.433 . S
C703 N706 1.384 . S
C704 H695 0.929 . S
C704 C696 1.378 . S
C704 C699 1.350 . S
C705 H692 0.929 . S
C705 C697 1.433 . S
C705 N707 1.384 . S
N706 C702 1.427 . S
N706 C703 1.384 . S
N707 C699 1.427 . S
N707 C705 1.384 . S
H708 C714 0.930 . S
H709 C718 0.930 . S
H710 C723 0.929 . S
H711 C721 0.929 . S
H712 C716 0.929 . S
H713 C722 0.929 . S
C714 H708 0.930 . S
C714 C715 1.367 . S
C714 C722 1.378 . S
C715 C714 1.367 . S
C715 C723 1.433 . S
C716 H712 0.929 . S
C716 C718 1.378 . S
C716 C720 1.350 . S
C717 C720 1.463 . S
C717 C722 1.350 . S
C717 N725 1.427 . S
C718 H709 0.930 . S
C718 C716 1.378 . S
C718 C719 1.367 . S
C719 C718 1.367 . S
C719 C721 1.433 . S
C720 C716 1.350 . S
C720 C717 1.463 . S
C720 N724 1.427 . S
C721 H711 0.929 . S
C721 C719 1.433 . S
C721 N724 1.384 . S
C722 H713 0.929 . S
C722 C714 1.378 . S
C722 C717 1.350 . S
C723 H710 0.929 . S
C723 C715 1.433 . S
C723 N725 1.384 . S
N724 C720 1.427 . S
N724 C721 1.384 . S
N725 C717 1.427 . S
N725 C723 1.384 . S
H726 C732 0.930 . S
H727 C736 0.930 . S
H728 C741 0.929 . S
H729 C739 0.929 . S
H730 C734 0.929 . S
H731 C740 0.929 . S
C732 H726 0.930 . S
C732 C733 1.367 . S
C732 C740 1.378 . S
C733 C732 1.367 . S
C733 C741 1.433 . S
C734 H730 0.929 . S
C734 C736 1.378 . S
C734 C738 1.350 . S
C735 C738 1.463 . S
C735 C740 1.350 . S
C735 N743 1.427 . S
C736 H727 0.930 . S
C736 C734 1.378 . S
C736 C737 1.367 . S
C737 C736 1.367 . S
C737 C739 1.433 . S
C738 C734 1.350 . S
C738 C735 1.463 . S
C738 N742 1.427 . S
C739 H729 0.929 . S
C739 C737 1.433 . S
C739 N742 1.384 . S
C740 H731 0.929 . S
C740 C732 1.378 . S
C740 C735 1.350 . S
C741 H728 0.929 . S
C741 C733 1.433 . S
C741 N743 1.384 . S
N742 C738 1.427 . S
N742 C739 1.384 . S
N743 C735 1.427 . S
N743 C741 1.384 . S
H744 C750 0.930 . S
H745 C754 0.930 . S
H746 C759 0.929 . S
H747 C757 0.929 . S
H748 C752 0.929 . S
H749 C758 0.929 . S
C750 H744 0.930 . S
C750 C751 1.367 . S
C750 C758 1.378 . S
C751 C750 1.367 . S
C751 C759 1.433 . S
C752 H748 0.929 . S
C752 C754 1.378 . S
C752 C756 1.350 . S
C753 C756 1.463 . S
C753 C758 1.350 . S
C753 N761 1.427 . S
C754 H745 0.930 . S
C754 C752 1.378 . S
C754 C755 1.367 . S
C755 C754 1.367 . S
C755 C757 1.433 . S
C756 C752 1.350 . S
C756 C753 1.463 . S
C756 N760 1.427 . S
C757 H747 0.929 . S
C757 C755 1.433 . S
C757 N760 1.384 . S
C758 H749 0.929 . S
C758 C750 1.378 . S
C758 C753 1.350 . S
C759 H746 0.929 . S
C759 C751 1.433 . S
C759 N761 1.384 . S
N760 C756 1.427 . S
N760 C757 1.384 . S
N761 C753 1.427 . S
N761 C759 1.384 . S
H762 C768 0.930 . S
H763 C772 0.930 . S
H764 C777 0.929 . S
H765 C775 0.929 . S
H766 C770 0.929 . S
H767 C776 0.929 . S
C768 H762 0.930 . S
C768 C769 1.367 . S
C768 C776 1.378 . S
C769 C768 1.367 . S
C769 C777 1.433 . S
C770 H766 0.929 . S
C770 C772 1.378 . S
C770 C774 1.350 . S
C771 C774 1.463 . S
C771 C776 1.350 . S
C771 N779 1.427 . S
C772 H763 0.930 . S
C772 C770 1.378 . S
C772 C773 1.367 . S
C773 C772 1.367 . S
C773 C775 1.433 . S
C774 C770 1.350 . S
C774 C771 1.463 . S
C774 N778 1.427 . S
C775 H765 0.929 . S
C775 C773 1.433 . S
C775 N778 1.384 . S
C776 H767 0.929 . S
C776 C768 1.378 . S
C776 C771 1.350 . S
C777 H764 0.929 . S
C777 C769 1.433 . S
C777 N779 1.384 . S
N778 C774 1.427 . S
N778 C775 1.384 . S
N779 C771 1.427 . S
N779 C777 1.384 . S
H780 C786 0.930 . S
H781 C790 0.930 . S
H782 C795 0.929 . S
H783 C793 0.929 . S
H784 C788 0.929 . S
H785 C794 0.929 . S
C786 H780 0.930 . S
C786 C787 1.367 . S
C786 C794 1.378 . S
C787 C786 1.367 . S
C787 C795 1.433 . S
C788 H784 0.929 . S
C788 C790 1.378 . S
C788 C792 1.350 . S
C789 C792 1.463 . S
C789 C794 1.350 . S
C789 N797 1.427 . S
C790 H781 0.930 . S
C790 C788 1.378 . S
C790 C791 1.367 . S
C791 C790 1.367 . S
C791 C793 1.433 . S
C792 C788 1.350 . S
C792 C789 1.463 . S
C792 N796 1.427 . S
C793 H783 0.929 . S
C793 C791 1.433 . S
C793 N796 1.384 . S
C794 H785 0.929 . S
C794 C786 1.378 . S
C794 C789 1.350 . S
C795 H782 0.929 . S
C795 C787 1.433 . S
C795 N797 1.384 . S
N796 C792 1.427 . S
N796 C793 1.384 . S
N797 C789 1.427 . S
N797 C795 1.384 . S
H798 C804 0.930 . S
H799 C808 0.930 . S
H800 C813 0.929 . S
H801 C811 0.929 . S
H802 C806 0.929 . S
H803 C812 0.929 . S
C804 H798 0.930 . S
C804 C805 1.367 . S
C804 C812 1.378 . S
C805 C804 1.367 . S
C805 C813 1.433 . S
C806 H802 0.929 . S
C806 C808 1.378 . S
C806 C810 1.350 . S
C807 C810 1.463 . S
C807 C812 1.350 . S
C807 N815 1.427 . S
C808 H799 0.930 . S
C808 C806 1.378 . S
C808 C809 1.367 . S
C809 C808 1.367 . S
C809 C811 1.433 . S
C810 C806 1.350 . S
C810 C807 1.463 . S
C810 N814 1.427 . S
C811 H801 0.929 . S
C811 C809 1.433 . S
C811 N814 1.384 . S
C812 H803 0.929 . S
C812 C804 1.378 . S
C812 C807 1.350 . S
C813 H800 0.929 . S
C813 C805 1.433 . S
C813 N815 1.384 . S
N814 C810 1.427 . S
N814 C811 1.384 . S
N815 C807 1.427 . S
N815 C813 1.384 . S
H816 C822 0.930 . S
H817 C826 0.930 . S
H818 C831 0.929 . S
H819 C829 0.929 . S
H820 C824 0.929 . S
H821 C830 0.929 . S
C822 H816 0.930 . S
C822 C823 1.367 . S
C822 C830 1.378 . S
C823 C822 1.367 . S
C823 C831 1.433 . S
C824 H820 0.929 . S
C824 C826 1.378 . S
C824 C828 1.350 . S
C825 C828 1.463 . S
C825 C830 1.350 . S
C825 N833 1.427 . S
C826 H817 0.930 . S
C826 C824 1.378 . S
C826 C827 1.367 . S
C827 C826 1.367 . S
C827 C829 1.433 . S
C828 C824 1.350 . S
C828 C825 1.463 . S
C828 N832 1.427 . S
C829 H819 0.929 . S
C829 C827 1.433 . S
C829 N832 1.384 . S
C830 H821 0.929 . S
C830 C822 1.378 . S
C830 C825 1.350 . S
C831 H818 0.929 . S
C831 C823 1.433 . S
C831 N833 1.384 . S
N832 C828 1.427 . S
N832 C829 1.384 . S
N833 C825 1.427 . S
N833 C831 1.384 . S
H834 C840 0.930 . S
H835 C844 0.930 . S
H836 C849 0.929 . S
H837 C847 0.929 . S
H838 C842 0.929 . S
H839 C848 0.929 . S
C840 H834 0.930 . S
C840 C841 1.367 . S
C840 C848 1.378 . S
C841 C840 1.367 . S
C841 C849 1.433 . S
C842 H838 0.929 . S
C842 C844 1.378 . S
C842 C846 1.350 . S
C843 C846 1.463 . S
C843 C848 1.350 . S
C843 N851 1.427 . S
C844 H835 0.930 . S
C844 C842 1.378 . S
C844 C845 1.367 . S
C845 C844 1.367 . S
C845 C847 1.433 . S
C846 C842 1.350 . S
C846 C843 1.463 . S
C846 N850 1.427 . S
C847 H837 0.929 . S
C847 C845 1.433 . S
C847 N850 1.384 . S
C848 H839 0.929 . S
C848 C840 1.378 . S
C848 C843 1.350 . S
C849 H836 0.929 . S
C849 C841 1.433 . S
C849 N851 1.384 . S
N850 C846 1.427 . S
N850 C847 1.384 . S
N851 C843 1.427 . S
N851 C849 1.384 . S
H852 C858 0.930 . S
H853 C862 0.930 . S
H854 C867 0.929 . S
H855 C865 0.929 . S
H856 C860 0.929 . S
H857 C866 0.929 . S
C858 H852 0.930 . S
C858 C859 1.367 . S
C858 C866 1.378 . S
C859 C858 1.367 . S
C859 C867 1.433 . S
C860 H856 0.929 . S
C860 C862 1.378 . S
C860 C864 1.350 . S
C861 C864 1.463 . S
C861 C866 1.350 . S
C861 N869 1.427 . S
C862 H853 0.930 . S
C862 C860 1.378 . S
C862 C863 1.367 . S
C863 C862 1.367 . S
C863 C865 1.433 . S
C864 C860 1.350 . S
C864 C861 1.463 . S
C864 N868 1.427 . S
C865 H855 0.929 . S
C865 C863 1.433 . S
C865 N868 1.384 . S
C866 H857 0.929 . S
C866 C858 1.378 . S
C866 C861 1.350 . S
C867 H854 0.929 . S
C867 C859 1.433 . S
C867 N869 1.384 . S
N868 C864 1.427 . S
N868 C865 1.384 . S
N869 C861 1.427 . S
N869 C867 1.384 . S
H870 C876 0.930 . S
H871 C880 0.930 . S
H872 C885 0.929 . S
H873 C883 0.929 . S
H874 C878 0.929 . S
H875 C884 0.929 . S
C876 H870 0.930 . S
C876 C877 1.367 . S
C876 C884 1.378 . S
C877 C876 1.367 . S
C877 C885 1.433 . S
C878 H874 0.929 . S
C878 C880 1.378 . S
C878 C882 1.350 . S
C879 C882 1.463 . S
C879 C884 1.350 . S
C879 N887 1.427 . S
C880 H871 0.930 . S
C880 C878 1.378 . S
C880 C881 1.367 . S
C881 C880 1.367 . S
C881 C883 1.433 . S
C882 C878 1.350 . S
C882 C879 1.463 . S
C882 N886 1.427 . S
C883 H873 0.929 . S
C883 C881 1.433 . S
C883 N886 1.384 . S
C884 H875 0.929 . S
C884 C876 1.378 . S
C884 C879 1.350 . S
C885 H872 0.929 . S
C885 C877 1.433 . S
C885 N887 1.384 . S
N886 C882 1.427 . S
N886 C883 1.384 . S
N887 C879 1.427 . S
N887 C885 1.384 . S
C247 C116 1.757 . S
C251 C19 1.725 1_565 S
C265 C39 1.725 . S
C269 C16 1.758 . S
C283 C59 1.725 1_455 S
C287 C36 1.757 . S
C301 C56 1.760 . S
C305 C79 1.723 1_545 S
C319 C76 1.758 . S
C323 C99 1.725 . S
C337 C119 1.724 1_655 S
C341 C96 1.760 . S
C355 C156 1.760 . S
C359 C139 1.723 1_455 S
C373 C159 1.717 1_545 S
C377 C176 1.753 . S
C391 C196 1.755 . S
C395 C179 1.724 . S
C409 C216 1.760 . S
C413 C199 1.724 1_655 S
C427 C236 1.759 . S
C431 C219 1.712 1_565 S
C445 C136 1.760 . S
C449 C239 1.713 . S
C463 C229 1.366 . S
C467 C6 1.352 . S
C481 C26 1.352 . S
C485 C129 1.373 . S
C499 C149 1.370 . S
C503 C46 1.351 . S
C517 C169 1.371 . S
C521 C66 1.350 . S
C535 C189 1.372 . S
C539 C86 1.351 . S
C553 C106 1.366 . S
C557 C209 1.362 . S
C571 C126 1.355 . S
C575 C29 1.374 . S
C589 C146 1.363 . S
C593 C49 1.369 . S
C607 C69 1.365 . S
C611 C166 1.367 . S
C625 C89 1.361 . S
C629 C186 1.365 . S
C643 C206 1.363 . S
C647 C109 1.360 . S
C661 C226 1.353 . S
C665 C9 1.366 . S
C679 C121 1.578 . S
C683 C1 1.586 . S
C697 C21 1.586 . S
C701 C141 1.577 . S
C715 C161 1.585 . S
C719 C41 1.578 . S
C733 C61 1.578 . S
C737 C181 1.587 . S
C751 C201 1.580 . S
C755 C81 1.585 . S
C769 C221 1.586 . S
C773 C101 1.577 . S
C787 C128 1.586 . S
C791 C8 1.597 . S
C805 C148 1.586 . S
C809 C28 1.594 . S
C823 C168 1.590 . S
C827 C48 1.603 . S
C841 C68 1.596 . S
C845 C188 1.586 . S
C859 C208 1.593 . S
C863 C88 1.587 . S
C877 C228 1.587 . S
C881 C108 1.592 . S
