# Generated by pormake.
# Topology umh, (4)-cn, num edge types: 1
# Building blocks:
#     Node 0, Type 0, BuildingBlock: GALJAG_clean_sbu_0, # of connection points: 4
#     Node 1, Type 0, BuildingBlock: GALJAG_clean_sbu_0, # of connection points: 4
#     Node 2, Type 0, BuildingBlock: GALJAG_clean_sbu_0, # of connection points: 4
#     Node 3, Type 0, BuildingBlock: GALJAG_clean_sbu_0, # of connection points: 4
#     Node 4, Type 0, BuildingBlock: GALJAG_clean_sbu_0, # of connection points: 4
#     Node 5, Type 0, BuildingBlock: GALJAG_clean_sbu_0, # of connection points: 4
#     Node 6, Type 0, BuildingBlock: GALJAG_clean_sbu_0, # of connection points: 4
#     Node 7, Type 0, BuildingBlock: GALJAG_clean_sbu_0, # of connection points: 4
#     Node 8, Type 0, BuildingBlock: GALJAG_clean_sbu_0, # of connection points: 4
#     Node 9, Type 0, BuildingBlock: GALJAG_clean_sbu_0, # of connection points: 4
#     Node 10, Type 0, BuildingBlock: GALJAG_clean_sbu_0, # of connection points: 4
#     Node 11, Type 0, BuildingBlock: GALJAG_clean_sbu_0, # of connection points: 4
#     Node 12, Type 0, BuildingBlock: GALJAG_clean_sbu_0, # of connection points: 4
#     Node 13, Type 0, BuildingBlock: GALJAG_clean_sbu_0, # of connection points: 4
#     Node 14, Type 0, BuildingBlock: GALJAG_clean_sbu_0, # of connection points: 4
#     Node 15, Type 0, BuildingBlock: GALJAG_clean_sbu_0, # of connection points: 4
#     Edge 16, Type (0, 0), BuildingBlock: MIFKUJ_clean_linker_0, # of connection points: 2
#     Edge 17, Type (0, 0), BuildingBlock: MIFKUJ_clean_linker_0, # of connection points: 2
#     Edge 18, Type (0, 0), BuildingBlock: MIFKUJ_clean_linker_0, # of connection points: 2
#     Edge 19, Type (0, 0), BuildingBlock: MIFKUJ_clean_linker_0, # of connection points: 2
#     Edge 20, Type (0, 0), BuildingBlock: MIFKUJ_clean_linker_0, # of connection points: 2
#     Edge 21, Type (0, 0), BuildingBlock: MIFKUJ_clean_linker_0, # of connection points: 2
#     Edge 22, Type (0, 0), BuildingBlock: MIFKUJ_clean_linker_0, # of connection points: 2
#     Edge 23, Type (0, 0), BuildingBlock: MIFKUJ_clean_linker_0, # of connection points: 2
#     Edge 24, Type (0, 0), BuildingBlock: MIFKUJ_clean_linker_0, # of connection points: 2
#     Edge 25, Type (0, 0), BuildingBlock: MIFKUJ_clean_linker_0, # of connection points: 2
#     Edge 26, Type (0, 0), BuildingBlock: MIFKUJ_clean_linker_0, # of connection points: 2
#     Edge 27, Type (0, 0), BuildingBlock: MIFKUJ_clean_linker_0, # of connection points: 2
#     Edge 28, Type (0, 0), BuildingBlock: MIFKUJ_clean_linker_0, # of connection points: 2
#     Edge 29, Type (0, 0), BuildingBlock: MIFKUJ_clean_linker_0, # of connection points: 2
#     Edge 30, Type (0, 0), BuildingBlock: MIFKUJ_clean_linker_0, # of connection points: 2
#     Edge 31, Type (0, 0), BuildingBlock: MIFKUJ_clean_linker_0, # of connection points: 2
#     Edge 32, Type (0, 0), BuildingBlock: MIFKUJ_clean_linker_0, # of connection points: 2
#     Edge 33, Type (0, 0), BuildingBlock: MIFKUJ_clean_linker_0, # of connection points: 2
#     Edge 34, Type (0, 0), BuildingBlock: MIFKUJ_clean_linker_0, # of connection points: 2
#     Edge 35, Type (0, 0), BuildingBlock: MIFKUJ_clean_linker_0, # of connection points: 2
#     Edge 36, Type (0, 0), BuildingBlock: MIFKUJ_clean_linker_0, # of connection points: 2
#     Edge 37, Type (0, 0), BuildingBlock: MIFKUJ_clean_linker_0, # of connection points: 2
#     Edge 38, Type (0, 0), BuildingBlock: MIFKUJ_clean_linker_0, # of connection points: 2
#     Edge 39, Type (0, 0), BuildingBlock: MIFKUJ_clean_linker_0, # of connection points: 2
#     Edge 40, Type (0, 0), BuildingBlock: MIFKUJ_clean_linker_0, # of connection points: 2
#     Edge 41, Type (0, 0), BuildingBlock: MIFKUJ_clean_linker_0, # of connection points: 2
#     Edge 42, Type (0, 0), BuildingBlock: MIFKUJ_clean_linker_0, # of connection points: 2
#     Edge 43, Type (0, 0), BuildingBlock: MIFKUJ_clean_linker_0, # of connection points: 2
#     Edge 44, Type (0, 0), BuildingBlock: MIFKUJ_clean_linker_0, # of connection points: 2
#     Edge 45, Type (0, 0), BuildingBlock: MIFKUJ_clean_linker_0, # of connection points: 2
#     Edge 46, Type (0, 0), BuildingBlock: MIFKUJ_clean_linker_0, # of connection points: 2
#     Edge 47, Type (0, 0), BuildingBlock: MIFKUJ_clean_linker_0, # of connection points: 2
# Relax obj value: 0.114
# Max RMSD: 0.280
# Mean RMSD: 0.280
data_MOF--net-umh--node1-GALJAG_clean_sbu_0--edge1-MIFKUJ_clean_linker_0
_symmetry_space_group_name_H-M    P1
_symmetry_Int_Tables_number       1
_symmetry_cell_setting            triclinic
loop_
_symmetry_equiv_pos_as_xyz
'x, y, z'
_cell_length_a     52.286006
_cell_length_b     52.294331
_cell_length_c     68.951261
_cell_angle_alpha  89.993866
_cell_angle_beta   90.027357
_cell_angle_gamma 90.099317
loop_
_atom_site_label
_atom_site_type_symbol
_atom_site_fract_x
_atom_site_fract_y
_atom_site_fract_z
_atom_type_partial_charge
In0 In 0.35776 0.10124 0.1463 0.0
O1 O 0.3492 0.08611 0.11548 0.0
O2 O 0.37267 0.11919 0.11882 0.0
C3 C 0.33356 0.07547 0.17468 0.0
C4 C 0.40468 0.08404 0.15414 0.0
C5 C 0.33119 0.14393 0.15296 0.0
O6 O 0.32757 0.07225 0.15698 0.0
O7 O 0.3518 0.09084 0.1776 0.0
O8 O 0.35482 0.1425 0.15692 0.0
O9 O 0.3216 0.12423 0.14526 0.0
C10 C 0.3624 0.10346 0.10733 0.0
O11 O 0.39889 0.10739 0.15634 0.0
O12 O 0.38691 0.06984 0.14783 0.0
In13 In 0.40144 0.3489 0.64096 0.0
O14 O 0.39533 0.39004 0.65081 0.0
O15 O 0.43185 0.37916 0.63944 0.0
C16 C 0.35946 0.32093 0.6467 0.0
C17 C 0.39801 0.35166 0.60211 0.0
C18 C 0.4265 0.32679 0.67057 0.0
O19 O 0.3599 0.34467 0.65049 0.0
O20 O 0.37984 0.31192 0.63966 0.0
O21 O 0.433 0.32254 0.65309 0.0
O22 O 0.40849 0.34261 0.67265 0.0
C23 C 0.41788 0.39672 0.64628 0.0
O24 O 0.41459 0.33749 0.61025 0.0
O25 O 0.38366 0.36382 0.61358 0.0
In26 In 0.13661 0.39894 0.14967 0.0
O27 O 0.09647 0.39272 0.16197 0.0
O28 O 0.10662 0.42951 0.15072 0.0
C29 C 0.16506 0.35789 0.15776 0.0
C30 C 0.13076 0.39408 0.11094 0.0
C31 C 0.1625 0.428 0.17516 0.0
O32 O 0.14125 0.3581 0.16123 0.0
O33 O 0.1738 0.37781 0.14985 0.0
O34 O 0.16704 0.42914 0.15709 0.0
O35 O 0.14455 0.41308 0.17994 0.0
C36 C 0.08982 0.41561 0.15868 0.0
O37 O 0.14307 0.41264 0.11827 0.0
O38 O 0.12186 0.37841 0.12311 0.0
In39 In 0.0928 0.1444 0.64633 0.0
O40 O 0.08114 0.15526 0.61507 0.0
O41 O 0.11495 0.13336 0.61961 0.0
C42 C 0.0641 0.16871 0.67298 0.0
C43 C 0.07417 0.09707 0.6499 0.0
C44 C 0.13613 0.16755 0.65691 0.0
O45 O 0.06482 0.17607 0.65544 0.0
O46 O 0.07678 0.14874 0.67654 0.0
O47 O 0.13342 0.14356 0.65851 0.0
O48 O 0.11721 0.17933 0.64993 0.0
C49 C 0.10014 0.14387 0.60758 0.0
O50 O 0.09587 0.10313 0.6567 0.0
O51 O 0.06216 0.11494 0.64156 0.0
In52 In 0.34412 0.39473 0.3611 0.0
O53 O 0.38622 0.39199 0.35233 0.0
O54 O 0.37367 0.42398 0.3691 0.0
C55 C 0.32078 0.35465 0.34479 0.0
C56 C 0.34231 0.38355 0.39929 0.0
C57 C 0.32141 0.42795 0.33683 0.0
O58 O 0.34497 0.35614 0.34536 0.0
O59 O 0.30895 0.37269 0.35294 0.0
O60 O 0.3128 0.42385 0.35375 0.0
O61 O 0.34199 0.41647 0.33289 0.0
C62 C 0.39205 0.41261 0.36094 0.0
O63 O 0.33282 0.40399 0.39256 0.0
O64 O 0.3515 0.36869 0.38669 0.0
In65 In 0.09041 0.34954 0.86684 0.0
O66 O 0.0759 0.34045 0.89779 0.0
O67 O 0.10759 0.36563 0.89422 0.0
C68 C 0.06413 0.32308 0.83987 0.0
C69 C 0.0727 0.39589 0.85787 0.0
C70 C 0.1348 0.32627 0.8595 0.0
O71 O 0.06288 0.31714 0.85769 0.0
O72 O 0.07774 0.3424 0.83615 0.0
O73 O 0.13185 0.34995 0.85653 0.0
O74 O 0.11566 0.31482 0.86648 0.0
C75 C 0.09254 0.35462 0.90581 0.0
O76 O 0.09578 0.38974 0.85494 0.0
O77 O 0.05889 0.37872 0.8655 0.0
In78 In 0.1501 0.09439 0.36552 0.0
O79 O 0.1611 0.08599 0.39726 0.0
O80 O 0.13613 0.1172 0.39121 0.0
C81 C 0.17671 0.06511 0.34054 0.0
C82 C 0.1037 0.07323 0.36302 0.0
C83 C 0.17195 0.13732 0.35253 0.0
O84 O 0.18356 0.0676 0.3581 0.0
O85 O 0.15594 0.07598 0.33627 0.0
O86 O 0.14858 0.1325 0.34925 0.0
O87 O 0.18346 0.12107 0.36283 0.0
C88 C 0.14754 0.10409 0.40391 0.0
O89 O 0.10851 0.09489 0.35559 0.0
O90 O 0.12241 0.06236 0.3712 0.0
In91 In 0.39918 0.14262 0.86253 0.0
O92 O 0.39027 0.10273 0.85105 0.0
O93 O 0.4285 0.11153 0.85998 0.0
C94 C 0.35746 0.17144 0.85922 0.0
C95 C 0.39857 0.13675 0.90139 0.0
C96 C 0.42304 0.16679 0.83323 0.0
O97 O 0.35723 0.14792 0.85479 0.0
O98 O 0.37843 0.17988 0.86574 0.0
O99 O 0.43085 0.16921 0.85061 0.0
O100 O 0.40425 0.15185 0.83107 0.0
C101 C 0.41308 0.09511 0.85324 0.0
O102 O 0.41538 0.15056 0.89315 0.0
O103 O 0.38269 0.12642 0.89004 0.0
In104 In 0.63498 0.90255 0.8633 0.0
O105 O 0.59425 0.89402 0.85365 0.0
O106 O 0.60296 0.93091 0.86553 0.0
C107 C 0.66343 0.86122 0.85696 0.0
C108 C 0.63401 0.90114 0.90234 0.0
C109 C 0.65494 0.92748 0.83274 0.0
O110 O 0.63931 0.8606 0.85512 0.0
O111 O 0.67268 0.8823 0.86247 0.0
O112 O 0.66196 0.93275 0.84993 0.0
O113 O 0.63731 0.91105 0.83149 0.0
C114 C 0.58625 0.91595 0.85856 0.0
O115 O 0.64609 0.91861 0.89336 0.0
O116 O 0.62318 0.88484 0.89161 0.0
In117 In 0.59583 0.64397 0.36337 0.0
O118 O 0.58207 0.65617 0.39372 0.0
O119 O 0.61588 0.63352 0.39109 0.0
C120 C 0.57166 0.66528 0.33301 0.0
C121 C 0.57664 0.59677 0.36174 0.0
C122 C 0.63877 0.66883 0.35463 0.0
O123 O 0.56793 0.67332 0.35018 0.0
O124 O 0.58608 0.64601 0.33175 0.0
O125 O 0.63664 0.64493 0.3518 0.0
O126 O 0.61969 0.67948 0.36243 0.0
C127 C 0.60023 0.64456 0.40224 0.0
O128 O 0.59934 0.60152 0.35634 0.0
O129 O 0.56389 0.61589 0.36745 0.0
In130 In 0.85137 0.59976 0.86404 0.0
O131 O 0.84091 0.58383 0.89417 0.0
O132 O 0.86751 0.61473 0.89218 0.0
C133 C 0.82745 0.57642 0.83445 0.0
C134 C 0.89728 0.58078 0.85574 0.0
C135 C 0.82537 0.64308 0.85909 0.0
O136 O 0.82139 0.57165 0.85194 0.0
O137 O 0.84552 0.59221 0.83232 0.0
O138 O 0.84902 0.64181 0.85514 0.0
O139 O 0.81563 0.62293 0.86597 0.0
C140 C 0.85545 0.59943 0.90301 0.0
O141 O 0.89258 0.60444 0.8538 0.0
O142 O 0.87903 0.56734 0.86221 0.0
In143 In 0.89768 0.84145 0.36732 0.0
O144 O 0.90995 0.82936 0.39813 0.0
O145 O 0.87284 0.84509 0.39418 0.0
C146 C 0.9279 0.8175 0.34136 0.0
C147 C 0.91613 0.88926 0.36671 0.0
C148 C 0.8555 0.82191 0.35117 0.0
O149 O 0.92365 0.8082 0.35803 0.0
O150 O 0.91847 0.8394 0.33859 0.0
O151 O 0.85786 0.84578 0.35374 0.0
O152 O 0.8737 0.80843 0.3574 0.0
C153 C 0.8892 0.83646 0.40591 0.0
O154 O 0.89515 0.88357 0.35861 0.0
O155 O 0.92751 0.87087 0.37484 0.0
In156 In 0.63888 0.60349 0.64648 0.0
O157 O 0.64637 0.58973 0.61531 0.0
O158 O 0.61986 0.6201 0.61979 0.0
C159 C 0.66885 0.57571 0.67027 0.0
C160 C 0.59299 0.58471 0.65576 0.0
C161 C 0.66284 0.64766 0.65438 0.0
O162 O 0.67324 0.57695 0.65221 0.0
O163 O 0.64921 0.58755 0.67581 0.0
O164 O 0.64242 0.64145 0.66303 0.0
O165 O 0.67007 0.63227 0.64145 0.0
C166 C 0.63096 0.60561 0.60781 0.0
O167 O 0.59802 0.60831 0.65754 0.0
O168 O 0.61102 0.57109 0.64926 0.0
In169 In 0.88519 0.6377 0.14856 0.0
O170 O 0.88001 0.5965 0.15912 0.0
O171 O 0.91685 0.60904 0.1494 0.0
C172 C 0.84378 0.66554 0.15678 0.0
C173 C 0.88134 0.63227 0.10979 0.0
C174 C 0.91318 0.66346 0.17485 0.0
O175 O 0.84591 0.64273 0.16283 0.0
O176 O 0.86173 0.67323 0.14602 0.0
O177 O 0.91467 0.6686 0.15689 0.0
O178 O 0.89848 0.64513 0.17906 0.0
C179 C 0.90337 0.59113 0.15631 0.0
O180 O 0.89932 0.64503 0.11752 0.0
O181 O 0.86556 0.62267 0.12162 0.0
In182 In 0.85092 0.88012 0.65053 0.0
O183 O 0.83353 0.88394 0.61972 0.0
O184 O 0.87115 0.86926 0.62267 0.0
C185 C 0.81219 0.90613 0.66768 0.0
C186 C 0.8948 0.90516 0.65727 0.0
C187 C 0.8459 0.83392 0.66767 0.0
O188 O 0.80822 0.88737 0.65652 0.0
O189 O 0.83531 0.91272 0.66893 0.0
O190 O 0.84859 0.85421 0.67729 0.0
O191 O 0.84688 0.83689 0.64957 0.0
C192 C 0.85324 0.87524 0.61135 0.0
O193 O 0.8913 0.88253 0.66315 0.0
O194 O 0.87614 0.91492 0.64831 0.0
In195 In 0.61216 0.86121 0.14874 0.0
O196 O 0.59841 0.85044 0.11788 0.0
O197 O 0.62812 0.87787 0.12091 0.0
C198 C 0.58604 0.82324 0.16676 0.0
C199 C 0.5922 0.90682 0.1582 0.0
C200 C 0.65796 0.84909 0.16412 0.0
O201 O 0.60307 0.81875 0.15422 0.0
O202 O 0.58093 0.84659 0.16891 0.0
O203 O 0.63982 0.85744 0.17435 0.0
O204 O 0.65337 0.84814 0.1462 0.0
C205 C 0.61388 0.86549 0.10954 0.0
O206 O 0.61583 0.90236 0.16001 0.0
O207 O 0.57912 0.88851 0.15158 0.0
H208 H 0.36777 0.10321 0.92028 0.0
H209 H 0.3628 0.09711 0.95506 0.0
H210 H 0.41981 0.15514 0.96578 0.0
H211 H 0.42531 0.161 0.93061 0.0
H212 H 0.42589 0.11517 0.99006 0.0
H213 H 0.35598 0.16818 0.97097 0.0
H214 H 0.31868 0.18094 0.95134 0.0
H215 H 0.27877 0.11293 0.96885 0.0
H216 H 0.31599 0.09957 0.98836 0.0
H217 H 0.39334 0.13689 0.08835 0.0
H218 H 0.4001 0.1412 0.05355 0.0
H219 H 0.34702 0.07954 0.04303 0.0
H220 H 0.34005 0.07508 0.07817 0.0
H221 H 0.33908 0.12131 0.01878 0.0
H222 H 0.40982 0.06904 0.03844 0.0
H223 H 0.4473 0.05752 0.05829 0.0
H224 H 0.48578 0.12603 0.04007 0.0
H225 H 0.44836 0.13815 0.02031 0.0
C226 C 0.37934 0.1147 0.92998 0.0
C227 C 0.39681 0.13277 0.92266 0.0
C228 C 0.37638 0.11124 0.94992 0.0
C229 C 0.39053 0.126 0.96311 0.0
C230 C 0.40856 0.14362 0.95589 0.0
C231 C 0.41167 0.14699 0.93581 0.0
C232 C 0.38618 0.12301 0.98435 0.0
C233 C 0.40697 0.11689 0.99637 0.0
C234 C 0.36139 0.12469 0.99259 0.0
C235 C 0.33887 0.13276 0.981 0.0
C236 C 0.33932 0.15586 0.97053 0.0
C237 C 0.31818 0.16321 0.95944 0.0
C238 C 0.29639 0.14773 0.95882 0.0
C239 C 0.29567 0.12489 0.96933 0.0
C240 C 0.31677 0.11743 0.98042 0.0
C241 C 0.38308 0.12415 0.07869 0.0
C242 C 0.36617 0.10557 0.08606 0.0
C243 C 0.38708 0.12661 0.05876 0.0
C244 C 0.37431 0.11053 0.04566 0.0
C245 C 0.35716 0.0921 0.05289 0.0
C246 C 0.35323 0.08952 0.07295 0.0
C247 C 0.37876 0.11339 0.02444 0.0
C248 C 0.35798 0.11954 0.01244 0.0
C249 C 0.40358 0.11194 0.01626 0.0
C250 C 0.42618 0.10461 0.02803 0.0
C251 C 0.42619 0.08175 0.03878 0.0
C252 C 0.44744 0.0751 0.04999 0.0
C253 C 0.46889 0.09107 0.05047 0.0
C254 C 0.46914 0.11369 0.03969 0.0
C255 C 0.44793 0.12045 0.02847 0.0
H256 H 0.48532 0.08588 0.05917 0.0
H257 H 0.28005 0.15345 0.95022 0.0
H258 H 0.33033 0.41485 0.42989 0.0
H259 H 0.34029 0.40776 0.46423 0.0
H260 H 0.37153 0.33371 0.45032 0.0
H261 H 0.36131 0.34049 0.41615 0.0
H262 H 0.34561 0.33121 0.48344 0.0
H263 H 0.40985 0.38462 0.45635 0.0
H264 H 0.42709 0.4216 0.43848 0.0
H265 H 0.3965 0.47252 0.48142 0.0
H266 H 0.3783 0.43585 0.49925 0.0
H267 H 0.41545 0.31962 0.5733 0.0
H268 H 0.40717 0.32337 0.53825 0.0
H269 H 0.36554 0.39327 0.54818 0.0
H270 H 0.37339 0.38951 0.58293 0.0
H271 H 0.39951 0.39609 0.51653 0.0
H272 H 0.33315 0.34045 0.54212 0.0
H273 H 0.31737 0.30219 0.55929 0.0
H274 H 0.35606 0.25386 0.51843 0.0
H275 H 0.37237 0.29189 0.50117 0.0
C276 C 0.33895 0.39691 0.43421 0.0
C277 C 0.34516 0.37831 0.4203 0.0
C278 C 0.34479 0.39293 0.45381 0.0
C279 C 0.35707 0.37036 0.45982 0.0
C280 C 0.36215 0.35129 0.44605 0.0
C281 C 0.35632 0.35524 0.4265 0.0
C282 C 0.36562 0.36703 0.48026 0.0
C283 C 0.35765 0.34526 0.49058 0.0
C284 C 0.38139 0.38532 0.48963 0.0
C285 C 0.39246 0.40747 0.47904 0.0
C286 C 0.40657 0.40371 0.4619 0.0
C287 C 0.41655 0.42463 0.45178 0.0
C288 C 0.41294 0.4494 0.45882 0.0
C289 C 0.39927 0.45331 0.47598 0.0
C290 C 0.38907 0.43247 0.48608 0.0
C291 C 0.40473 0.33585 0.56794 0.0
C292 C 0.39497 0.3542 0.58085 0.0
C293 C 0.39994 0.33794 0.54796 0.0
C294 C 0.38563 0.35856 0.54064 0.0
C295 C 0.37663 0.37724 0.55349 0.0
C296 C 0.38107 0.37498 0.57337 0.0
C297 C 0.37914 0.36054 0.51972 0.0
C298 C 0.38757 0.38203 0.50931 0.0
C299 C 0.36414 0.34183 0.51018 0.0
C300 C 0.35422 0.319 0.52049 0.0
C301 C 0.33847 0.32167 0.5369 0.0
C302 C 0.3294 0.30003 0.54663 0.0
C303 C 0.33577 0.27561 0.53999 0.0
C304 C 0.35118 0.27279 0.52357 0.0
C305 C 0.36033 0.29437 0.51381 0.0
H306 H 0.32872 0.25887 0.54754 0.0
H307 H 0.42077 0.46556 0.45099 0.0
H308 H 0.06894 0.32796 0.9353 0.0
H309 H 0.07465 0.33429 0.97034 0.0
H310 H 0.12636 0.39695 0.959 0.0
H311 H 0.12138 0.3902 0.92428 0.0
H312 H 0.14578 0.36873 0.98585 0.0
H313 H 0.06267 0.4054 0.97482 0.0
H314 H 0.01781 0.40584 0.96376 0.0
H315 H -7e-05 0.34437 1.00278 0.0
H316 H 0.04478 0.34335 0.01391 0.0
H317 H 0.1492 0.42334 0.08085 0.0
H318 H 0.14195 0.41673 0.04601 0.0
H319 H 0.09583 0.35034 0.05867 0.0
H320 H 0.10279 0.35689 0.09329 0.0
H321 H 0.07337 0.37979 0.03149 0.0
H322 H 0.15681 0.34391 0.04265 0.0
H323 H 0.20164 0.34422 0.05377 0.0
H324 H 0.21876 0.40546 0.01434 0.0
H325 H 0.17392 0.40575 1.00317 0.0
C326 C 0.08143 0.34311 0.94034 0.0
C327 C 0.09472 0.35854 0.92703 0.0
C328 C 0.08462 0.3468 0.96036 0.0
C329 C 0.10081 0.36627 0.96739 0.0
C330 C 0.11387 0.38174 0.95403 0.0
C331 C 0.11092 0.37789 0.93413 0.0
C332 C 0.10474 0.37045 0.98859 0.0
C333 C 0.1299 0.37147 0.99576 0.0
C334 C 0.08411 0.3735 1.00169 0.0
C335 C 0.05713 0.37412 0.99505 0.0
C336 C 0.04921 0.39185 0.98094 0.0
C337 C 0.02378 0.39223 0.97467 0.0
C338 C 0.00605 0.3751 0.98252 0.0
C339 C 0.0137 0.3576 0.99669 0.0
C340 C 0.03911 0.35713 1.00299 0.0
C341 C 0.13752 0.40736 0.07618 0.0
C342 C 0.12665 0.39061 0.08982 0.0
C343 C 0.13345 0.40355 0.05628 0.0
C344 C 0.11848 0.3829 0.0497 0.0
C345 C 0.1074 0.36639 0.06336 0.0
C346 C 0.11151 0.37013 0.08317 0.0
C347 C 0.11435 0.37829 0.02863 0.0
C348 C 0.08919 0.3771 0.02153 0.0
C349 C 0.13497 0.37522 0.01556 0.0
C350 C 0.16195 0.37502 0.02222 0.0
C351 C 0.17009 0.35758 0.03646 0.0
C352 C 0.19551 0.35762 0.04276 0.0
C353 C 0.21302 0.37489 0.03481 0.0
C354 C 0.20517 0.39212 0.02051 0.0
C355 C 0.17976 0.39217 0.01418 0.0
H356 H 0.2327 0.3749 0.0397 0.0
H357 H 0.98637 0.37542 0.97765 0.0
H358 H 0.13997 0.12032 0.5898 0.0
H359 H 0.14792 0.11559 0.55523 0.0
H360 H 0.07948 0.15842 0.54256 0.0
H361 H 0.07109 0.16287 0.57749 0.0
H362 H 0.08263 0.11707 0.51978 0.0
H363 H 0.13881 0.18512 0.53663 0.0
H364 H 0.17207 0.20769 0.55537 0.0
H365 H 0.22665 0.1497 0.54047 0.0
H366 H 0.1936 0.12653 0.52187 0.0
H367 H 0.11311 0.13626 0.42045 0.0
H368 H 0.10556 0.14396 0.45488 0.0
H369 H 0.16615 0.09156 0.4695 0.0
H370 H 0.17368 0.08344 0.43481 0.0
H371 H 0.1667 0.13923 0.49084 0.0
H372 H 0.10868 0.07105 0.47437 0.0
H373 H 0.07488 0.05018 0.45507 0.0
H374 H 0.02304 0.11114 0.46878 0.0
H375 H 0.05668 0.1326 0.48794 0.0
C376 C 0.1266 0.12888 0.57971 0.0
C377 C 0.10491 0.14207 0.58642 0.0
C378 C 0.13127 0.12624 0.55989 0.0
C379 C 0.11453 0.13694 0.54622 0.0
C380 C 0.09274 0.15008 0.55283 0.0
C381 C 0.088 0.15269 0.57277 0.0
C382 C 0.11968 0.13374 0.52511 0.0
C383 C 0.10086 0.12233 0.51341 0.0
C384 C 0.14367 0.14011 0.5168 0.0
C385 C 0.16365 0.15398 0.52797 0.0
C386 C 0.15785 0.17706 0.53747 0.0
C387 C 0.17668 0.18998 0.54804 0.0
C388 C 0.20145 0.18014 0.5491 0.0
C389 C 0.20745 0.15731 0.53962 0.0
C390 C 0.18868 0.14428 0.52904 0.0
C391 C 0.12494 0.1264 0.43095 0.0
C392 C 0.14399 0.10918 0.42489 0.0
C393 C 0.12053 0.13079 0.45064 0.0
C394 C 0.13517 0.11822 0.46475 0.0
C395 C 0.15462 0.10144 0.45881 0.0
C396 C 0.15886 0.09677 0.43903 0.0
C397 C 0.12973 0.12244 0.48566 0.0
C398 C 0.14848 0.13406 0.49727 0.0
C399 C 0.10561 0.11651 0.49384 0.0
C400 C 0.08529 0.10357 0.48243 0.0
C401 C 0.09015 0.08013 0.47313 0.0
C402 C 0.071 0.06817 0.46224 0.0
C403 C 0.04685 0.07936 0.46065 0.0
C404 C 0.04177 0.10251 0.47 0.0
C405 C 0.06086 0.11457 0.48089 0.0
H406 H 0.03205 0.07007 0.45222 0.0
H407 H 0.21602 0.19023 0.55723 0.0
H408 H 0.58195 0.84624 0.08134 0.0
H409 H 0.58485 0.85316 0.0462 0.0
H410 H 0.65277 0.89884 0.05457 0.0
H411 H 0.64955 0.89261 0.08953 0.0
H412 H 0.62302 0.92138 0.02936 0.0
H413 H 0.65442 0.83526 0.03772 0.0
H414 H 0.65206 0.79034 0.04851 0.0
H415 H 0.58546 0.77852 0.01315 0.0
H416 H 0.58725 0.82346 1.00233 0.0
H417 H 0.66413 0.92415 0.93017 0.0
H418 H 0.66104 0.91879 0.9655 0.0
H419 H 0.59532 0.86973 0.95785 0.0
H420 H 0.59904 0.87414 0.92284 0.0
H421 H 0.62435 0.84906 0.9829 0.0
H422 H 0.5922 0.93464 0.97455 0.0
H423 H 0.59365 0.97961 0.96379 0.0
H424 H 0.66019 0.99265 0.99897 0.0
H425 H 0.65932 0.94767 0.00976 0.0
C426 C 0.59751 0.85769 0.07565 0.0
C427 C 0.61554 0.86881 0.08821 0.0
C428 C 0.59922 0.86158 0.05555 0.0
C429 C 0.61922 0.87633 0.04764 0.0
C430 C 0.63715 0.88744 0.06024 0.0
C431 C 0.63532 0.88376 0.08026 0.0
C432 C 0.62159 0.8804 0.0263 0.0
C433 C 0.62359 0.90553 0.01921 0.0
C434 C 0.62182 0.85983 0.01295 0.0
C435 C 0.62084 0.83278 0.01936 0.0
C436 C 0.63918 0.82312 0.03235 0.0
C437 C 0.63796 0.79765 0.03845 0.0
C438 C 0.61858 0.7816 0.03156 0.0
C439 C 0.60043 0.79098 0.0185 0.0
C440 C 0.60156 0.81643 0.01236 0.0
C441 C 0.649 0.91235 0.9361 0.0
C442 C 0.63189 0.89952 0.92374 0.0
C443 C 0.64714 0.90936 0.9563 0.0
C444 C 0.62777 0.89398 0.96447 0.0
C445 C 0.61052 0.88155 0.95203 0.0
C446 C 0.61264 0.88417 0.93196 0.0
C447 C 0.62562 0.89009 0.98587 0.0
C448 C 0.62373 0.86495 0.993 0.0
C449 C 0.62535 0.91067 0.99923 0.0
C450 C 0.62584 0.93773 0.99281 0.0
C451 C 0.60724 0.94706 0.97988 0.0
C452 C 0.60794 0.97256 0.9738 0.0
C453 C 0.62704 0.98896 0.98065 0.0
C454 C 0.64543 0.97992 0.99365 0.0
C455 C 0.64483 0.95443 0.99977 0.0
H456 H 0.62756 0.00869 0.97592 0.0
H457 H 0.61766 0.7619 0.03631 0.0
H458 H 0.59267 0.63154 0.5897 0.0
H459 H 0.58623 0.63751 0.55488 0.0
H460 H 0.65261 0.5912 0.54315 0.0
H461 H 0.65908 0.58496 0.57811 0.0
H462 H 0.65298 0.63694 0.52306 0.0
H463 H 0.59476 0.56774 0.53391 0.0
H464 H 0.55888 0.54411 0.54871 0.0
H465 H 0.50702 0.60369 0.53188 0.0
H466 H 0.54265 0.62788 0.51722 0.0
H467 H 0.63813 0.62088 0.42225 0.0
H468 H 0.64212 0.61526 0.45714 0.0
H469 H 0.57263 0.65808 0.46587 0.0
H470 H 0.56825 0.66345 0.43058 0.0
H471 H 0.57312 0.61534 0.48776 0.0
H472 H 0.63129 0.68429 0.47641 0.0
H473 H 0.66692 0.70698 0.46047 0.0
H474 H 0.71881 0.64777 0.47801 0.0
H475 H 0.68342 0.62454 0.49384 0.0
C476 C 0.60581 0.62244 0.57971 0.0
C477 C 0.62644 0.60781 0.58665 0.0
C478 C 0.60202 0.62579 0.5598 0.0
C479 C 0.61885 0.61472 0.54638 0.0
C480 C 0.63936 0.5999 0.55325 0.0
C481 C 0.643 0.59628 0.57321 0.0
C482 C 0.6157 0.61968 0.52526 0.0
C483 C 0.63566 0.63189 0.51528 0.0
C484 C 0.59276 0.61385 0.51525 0.0
C485 C 0.57144 0.59975 0.52463 0.0
C486 C 0.57576 0.57596 0.53356 0.0
C487 C 0.55545 0.56241 0.54184 0.0
C488 C 0.53068 0.57236 0.54117 0.0
C489 C 0.5262 0.59598 0.53234 0.0
C490 C 0.54645 0.60962 0.52404 0.0
C491 C 0.62373 0.6293 0.43154 0.0
C492 C 0.60289 0.64272 0.42362 0.0
C493 C 0.62612 0.62614 0.45155 0.0
C494 C 0.60788 0.63652 0.46421 0.0
C495 C 0.58701 0.64998 0.45639 0.0
C496 C 0.58457 0.65314 0.43625 0.0
C497 C 0.61044 0.63252 0.48552 0.0
C498 C 0.59039 0.62052 0.49556 0.0
C499 C 0.63328 0.63859 0.49562 0.0
C500 C 0.65464 0.65257 0.48618 0.0
C501 C 0.65026 0.67601 0.47675 0.0
C502 C 0.67042 0.68899 0.46775 0.0
C503 C 0.6951 0.67879 0.46819 0.0
C504 C 0.69968 0.65563 0.47767 0.0
C505 C 0.67958 0.64257 0.48667 0.0
H506 H 0.71068 0.68887 0.46121 0.0
H507 H 0.51497 0.5618 0.54754 0.0
H508 H 0.82639 0.57519 0.93077 0.0
H509 H 0.83065 0.57891 0.96618 0.0
H510 H 0.89515 0.62947 0.95874 0.0
H511 H 0.891 0.62592 0.9236 0.0
H512 H 0.90385 0.59369 0.9871 0.0
H513 H 0.83799 0.65368 0.96929 0.0
H514 H 0.79723 0.66687 0.95437 0.0
H515 H 0.75633 0.61498 0.9914 0.0
H516 H 0.79693 0.60121 0.00636 0.0
H517 H 0.9125 0.65029 0.08076 0.0
H518 H 0.90804 0.64307 0.04578 0.0
H519 H 0.84028 0.59786 0.05599 0.0
H520 H 0.84439 0.60533 0.09081 0.0
H521 H 0.83268 0.62902 0.02633 0.0
H522 H 0.89784 0.56981 0.04502 0.0
H523 H 0.93839 0.556 0.05996 0.0
H524 H 0.98033 0.60512 0.02146 0.0
H525 H 0.93998 0.61951 0.00646 0.0
C526 C 0.84154 0.58697 0.93672 0.0
C527 C 0.85827 0.60035 0.9244 0.0
C528 C 0.84391 0.58915 0.95693 0.0
C529 C 0.86313 0.60462 0.96511 0.0
C530 C 0.8802 0.61743 0.95279 0.0
C531 C 0.87771 0.61545 0.93268 0.0
C532 C 0.86529 0.60807 0.98647 0.0
C533 C 0.88837 0.60162 0.99567 0.0
C534 C 0.84493 0.61792 0.99772 0.0
C535 C 0.82052 0.62621 0.98878 0.0
C536 C 0.82033 0.64492 0.97413 0.0
C537 C 0.79725 0.65253 0.96569 0.0
C538 C 0.77421 0.64171 0.97189 0.0
C539 C 0.7742 0.62331 0.98659 0.0
C540 C 0.79723 0.6156 0.99506 0.0
C541 C 0.89665 0.63885 0.07553 0.0
C542 C 0.87884 0.62835 0.08856 0.0
C543 C 0.89418 0.63462 0.05554 0.0
C544 C 0.87396 0.61966 0.04822 0.0
C545 C 0.85603 0.60944 0.06124 0.0
C546 C 0.85847 0.61369 0.08117 0.0
C547 C 0.87131 0.61475 0.02702 0.0
C548 C 0.84814 0.62095 0.01783 0.0
C549 C 0.89156 0.60456 0.01579 0.0
C550 C 0.91586 0.59593 0.02475 0.0
C551 C 0.91569 0.57783 0.03985 0.0
C552 C 0.93864 0.56987 0.0483 0.0
C553 C 0.96191 0.57973 0.0417 0.0
C554 C 0.96228 0.59753 0.02658 0.0
C555 C 0.93938 0.60558 0.01809 0.0
H556 H 0.97966 0.57354 0.04826 0.0
H557 H 0.75636 0.64764 0.96534 0.0
H558 H 0.92449 0.83141 0.43511 0.0
H559 H 0.91732 0.83678 0.46999 0.0
H560 H 0.83666 0.84749 0.4595 0.0
H561 H 0.84391 0.84301 0.42468 0.0
H562 H 0.85216 0.88227 0.48343 0.0
H563 H 0.86285 0.79102 0.4803 0.0
H564 H 0.88482 0.75081 0.47192 0.0
H565 H 0.94933 0.77304 0.50664 0.0
H566 H 0.92787 0.81353 0.51503 0.0
H567 H 0.81543 0.87701 0.58357 0.0
H568 H 0.82006 0.86904 0.54864 0.0
H569 H 0.90124 0.85822 0.55631 0.0
H570 H 0.89658 0.86535 0.59106 0.0
H571 H 0.88396 0.82255 0.53377 0.0
H572 H 0.8742 0.91417 0.53602 0.0
H573 H 0.85271 0.95469 0.54428 0.0
H574 H 0.78691 0.93194 0.51119 0.0
H575 H 0.80789 0.89114 0.50292 0.0
C576 C 0.9052 0.83456 0.4403 0.0
C577 C 0.88477 0.83673 0.42715 0.0
C578 C 0.90107 0.83758 0.46026 0.0
C579 C 0.87636 0.84235 0.46751 0.0
C580 C 0.8559 0.84392 0.45436 0.0
C581 C 0.86006 0.84122 0.43443 0.0
C582 C 0.87187 0.84675 0.48865 0.0
C583 C 0.85879 0.86897 0.49441 0.0
C584 C 0.88098 0.82981 0.5031 0.0
C585 C 0.89384 0.8054 0.49815 0.0
C586 C 0.88179 0.7874 0.48604 0.0
C587 C 0.89414 0.76455 0.48131 0.0
C588 C 0.91847 0.7594 0.48871 0.0
C589 C 0.93048 0.77706 0.50091 0.0
C590 C 0.91823 0.79995 0.50567 0.0
C591 C 0.83424 0.87306 0.57774 0.0
C592 C 0.85561 0.8718 0.59007 0.0
C593 C 0.83691 0.86858 0.55776 0.0
C594 C 0.86108 0.86319 0.54972 0.0
C595 C 0.88239 0.86219 0.56208 0.0
C596 C 0.87969 0.86638 0.58198 0.0
C597 C 0.86437 0.85811 0.52855 0.0
C598 C 0.87723 0.83578 0.52278 0.0
C599 C 0.85511 0.87497 0.51409 0.0
C600 C 0.84251 0.8995 0.51903 0.0
C601 C 0.85507 0.91774 0.53062 0.0
C602 C 0.843 0.94076 0.53528 0.0
C603 C 0.81843 0.94586 0.52831 0.0
C604 C 0.80592 0.92796 0.51661 0.0
C605 C 0.8179 0.90489 0.51192 0.0
H606 H 0.80912 0.96369 0.53193 0.0
H607 H 0.92801 0.7417 0.48502 0.0
H608 H 0.15244 0.30737 0.16233 0.0
H609 H 0.18221 0.27163 0.16683 0.0
H610 H 0.24537 0.32486 0.16936 0.0
H611 H 0.21594 0.36024 0.16405 0.0
H612 H 0.25623 0.28982 0.1452 0.0
H613 H 0.22423 0.28966 0.20993 0.0
H614 H 0.19189 0.28911 0.23594 0.0
H615 H 0.16473 0.21608 0.21617 0.0
H616 H 0.19671 0.21634 0.18988 0.0
H617 H 0.34717 0.19144 0.16462 0.0
H618 H 0.3202 0.22901 0.17075 0.0
H619 H 0.25288 0.18446 0.1576 0.0
H620 H 0.27951 0.14711 0.15141 0.0
H621 H 0.24697 0.2164 0.19022 0.0
H622 H 0.27694 0.22026 0.12346 0.0
H623 H 0.31035 0.22121 0.09822 0.0
H624 H 0.34263 0.28888 0.12372 0.0
H625 H 0.30958 0.28812 0.14927 0.0
C626 C 0.17264 0.31133 0.1641 0.0
C627 C 0.18199 0.33641 0.16262 0.0
C628 C 0.18963 0.29098 0.16679 0.0
C629 C 0.21606 0.29557 0.16851 0.0
C630 C 0.22512 0.32081 0.16794 0.0
C631 C 0.20829 0.341 0.1649 0.0
C632 C 0.23457 0.27414 0.16908 0.0
C633 C 0.25444 0.27407 0.15537 0.0
C634 C 0.23209 0.25333 0.18208 0.0
C635 C 0.21274 0.25313 0.19782 0.0
C636 C 0.21123 0.27358 0.21102 0.0
C637 C 0.19299 0.2733 0.22584 0.0
C638 C 0.17623 0.2526 0.22768 0.0
C639 C 0.17771 0.23211 0.21472 0.0
C640 C 0.19591 0.2323 0.19987 0.0
C641 C 0.32662 0.1897 0.16315 0.0
C642 C 0.31543 0.1665 0.15735 0.0
C643 C 0.31128 0.21108 0.16669 0.0
C644 C 0.28461 0.20941 0.16457 0.0
C645 C 0.27341 0.18605 0.15939 0.0
C646 C 0.28868 0.16482 0.1557 0.0
C647 C 0.2683 0.2323 0.16638 0.0
C648 C 0.24884 0.2325 0.18039 0.0
C649 C 0.27126 0.25341 0.15382 0.0
C650 C 0.29099 0.25396 0.13839 0.0
C651 C 0.29129 0.23522 0.12376 0.0
C652 C 0.31013 0.23575 0.10939 0.0
C653 C 0.32865 0.25505 0.1094 0.0
C654 C 0.32831 0.27391 0.12375 0.0
C655 C 0.30952 0.27345 0.13817 0.0
H656 H 0.34322 0.25542 0.09826 0.0
H657 H 0.16212 0.25241 0.23916 0.0
H658 H 0.31103 0.33526 0.65716 0.0
H659 H 0.2744 0.30705 0.66324 0.0
H660 H 0.32183 0.24118 0.65209 0.0
H661 H 0.35808 0.26916 0.64547 0.0
H662 H 0.27895 0.23663 0.63349 0.0
H663 H 0.30255 0.25783 0.69853 0.0
H664 H 0.3129 0.28594 0.72616 0.0
H665 H 0.23792 0.31908 0.72326 0.0
H666 H 0.22723 0.29144 0.69541 0.0
H667 H 0.18399 0.14741 0.66153 0.0
H668 H 0.22414 0.17148 0.66478 0.0
H669 H 0.18172 0.24214 0.66626 0.0
H670 H 0.14177 0.21837 0.66294 0.0
H671 H 0.22381 0.24135 0.69193 0.0
H672 H 0.20291 0.22311 0.62455 0.0
H673 H 0.19237 0.19407 0.59748 0.0
H674 H 0.26334 0.15435 0.60583 0.0
H675 H 0.27413 0.18298 0.63311 0.0
C676 C 0.31357 0.31476 0.65605 0.0
C677 C 0.33729 0.30439 0.65074 0.0
C678 C 0.29273 0.29866 0.65966 0.0
C679 C 0.29549 0.27198 0.65832 0.0
C680 C 0.31927 0.26168 0.65319 0.0
C681 C 0.33995 0.27771 0.6494 0.0
C682 C 0.27335 0.25475 0.66128 0.0
C683 C 0.26722 0.23738 0.64645 0.0
C684 C 0.25778 0.25598 0.67805 0.0
C685 C 0.26418 0.27272 0.69475 0.0
C686 C 0.28834 0.27127 0.70367 0.0
C687 C 0.29425 0.28709 0.71939 0.0
C688 C 0.2761 0.30433 0.72643 0.0
C689 C 0.25197 0.30575 0.71778 0.0
C690 C 0.24597 0.28999 0.70203 0.0
C691 C 0.18328 0.16802 0.66294 0.0
C692 C 0.15992 0.18111 0.66174 0.0
C693 C 0.20614 0.18171 0.66478 0.0
C694 C 0.20577 0.20854 0.66557 0.0
C695 C 0.18233 0.22145 0.66568 0.0
C696 C 0.15958 0.20785 0.66365 0.0
C697 C 0.22964 0.22347 0.66418 0.0
C698 C 0.23592 0.24045 0.67918 0.0
C699 C 0.24546 0.22187 0.64763 0.0
C700 C 0.23918 0.20497 0.631 0.0
C701 C 0.21618 0.20807 0.62069 0.0
C702 C 0.21017 0.19171 0.6053 0.0
C703 C 0.22713 0.1723 0.6 0.0
C704 C 0.2502 0.16934 0.60999 0.0
C705 C 0.25628 0.18564 0.6254 0.0
H706 H 0.22242 0.15958 0.58814 0.0
H707 H 0.28071 0.31655 0.73861 0.0
H708 H 0.33546 0.30468 0.34191 0.0
H709 H 0.3081 0.26858 0.33277 0.0
H710 H 0.24748 0.32102 0.31778 0.0
H711 H 0.27434 0.35687 0.32782 0.0
H712 H 0.23031 0.28892 0.34189 0.0
H713 H 0.27687 0.28039 0.2835 0.0
H714 H 0.31444 0.2774 0.26206 0.0
H715 H 0.33749 0.20804 0.29039 0.0
H716 H 0.3003 0.2108 0.31223 0.0
H717 H 0.15192 0.17775 0.33218 0.0
H718 H 0.17511 0.21574 0.32062 0.0
H719 H 0.2454 0.18508 0.34364 0.0
H720 H 0.22267 0.14728 0.35492 0.0
H721 H 0.25214 0.20848 0.30766 0.0
H722 H 0.21142 0.22507 0.3704 0.0
H723 H 0.17402 0.22833 0.39206 0.0
H724 H 0.14002 0.28358 0.35389 0.0
H725 H 0.17713 0.28037 0.33189 0.0
C726 C 0.31651 0.30841 0.33622 0.0
C727 C 0.30676 0.33336 0.33583 0.0
C728 C 0.30092 0.28783 0.33086 0.0
C729 C 0.27566 0.29206 0.32456 0.0
C730 C 0.26679 0.31725 0.32272 0.0
C731 C 0.28211 0.33769 0.32849 0.0
C732 C 0.25741 0.27042 0.32288 0.0
C733 C 0.23481 0.27165 0.33387 0.0
C734 C 0.26332 0.24768 0.3127 0.0
C735 C 0.28581 0.24591 0.29961 0.0
C736 C 0.29005 0.2646 0.28528 0.0
C737 C 0.31127 0.26293 0.27303 0.0
C738 C 0.32836 0.24257 0.27488 0.0
C739 C 0.32424 0.22381 0.28897 0.0
C740 C 0.30306 0.2254 0.30128 0.0
C741 C 0.17235 0.17908 0.33458 0.0
C742 C 0.18544 0.15979 0.34468 0.0
C743 C 0.18555 0.20066 0.32791 0.0
C744 C 0.21195 0.20311 0.33129 0.0
C745 C 0.22509 0.18342 0.34074 0.0
C746 C 0.21199 0.16198 0.34738 0.0
C747 C 0.22573 0.2271 0.32695 0.0
C748 C 0.24744 0.2262 0.315 0.0
C749 C 0.21904 0.25026 0.33615 0.0
C750 C 0.19684 0.25224 0.3494 0.0
C751 C 0.19587 0.23775 0.36657 0.0
C752 C 0.17475 0.23962 0.37891 0.0
C753 C 0.15461 0.25608 0.37432 0.0
C754 C 0.15559 0.27078 0.3574 0.0
C755 C 0.17666 0.26895 0.345 0.0
H756 H 0.13828 0.25751 0.38389 0.0
H757 H 0.34478 0.2413 0.26538 0.0
H758 H 0.35732 0.22325 0.85993 0.0
H759 H 0.32086 0.2517 0.85578 0.0
H760 H 0.27112 0.18645 0.84836 0.0
H761 H 0.3079 0.15776 0.85188 0.0
H762 H 0.25863 0.22381 0.82356 0.0
H763 H 0.27514 0.2174 0.89187 0.0
H764 H 0.30136 0.21916 0.92159 0.0
H765 H 0.31699 0.29867 0.91139 0.0
H766 H 0.29113 0.29729 0.88146 0.0
H767 H 0.1408 0.27518 0.85545 0.0
H768 H 0.18062 0.25179 0.85062 0.0
H769 H 0.22253 0.32291 0.84938 0.0
H770 H 0.18245 0.34663 0.85402 0.0
H771 H 0.2407 0.28581 0.87632 0.0
H772 H 0.21943 0.29188 0.80896 0.0
H773 H 0.19096 0.28877 0.78055 0.0
H774 H 0.18142 0.2083 0.79061 0.0
H775 H 0.20974 0.21094 0.81918 0.0
C776 C 0.33862 0.21494 0.8574 0.0
C777 C 0.3353 0.18831 0.85646 0.0
C778 C 0.31782 0.23122 0.85502 0.0
C779 C 0.29325 0.22116 0.85209 0.0
C780 C 0.28996 0.19457 0.85065 0.0
C781 C 0.31089 0.17823 0.85277 0.0
C782 C 0.27092 0.23841 0.85129 0.0
C783 C 0.25459 0.23723 0.83515 0.0
C784 C 0.26598 0.25625 0.86626 0.0
C785 C 0.28142 0.25718 0.88432 0.0
C786 C 0.28432 0.23521 0.89589 0.0
C787 C 0.29909 0.23615 0.91279 0.0
C788 C 0.31089 0.25899 0.91834 0.0
C789 C 0.30788 0.28098 0.90705 0.0
C790 C 0.29315 0.28014 0.89013 0.0
C791 C 0.15846 0.28586 0.85396 0.0
C792 C 0.15868 0.31266 0.85525 0.0
C793 C 0.18112 0.2725 0.85107 0.0
C794 C 0.20437 0.2857 0.84954 0.0
C795 C 0.20465 0.3125 0.85044 0.0
C796 C 0.18185 0.32596 0.85308 0.0
C797 C 0.22842 0.27113 0.84867 0.0
C798 C 0.24501 0.27269 0.86458 0.0
C799 C 0.23333 0.25343 0.83365 0.0
C800 C 0.2166 0.25165 0.81629 0.0
C801 C 0.21115 0.27354 0.80518 0.0
C802 C 0.19506 0.27186 0.78903 0.0
C803 C 0.18431 0.24837 0.78381 0.0
C804 C 0.18975 0.22648 0.79468 0.0
C805 C 0.20589 0.22805 0.81082 0.0
H806 H 0.17178 0.24713 0.77134 0.0
H807 H 0.32232 0.25968 0.93143 0.0
H808 H 0.6495 0.81099 0.85442 0.0
H809 H 0.67819 0.77419 0.85091 0.0
H810 H 0.74295 0.82511 0.8468 0.0
H811 H 0.71457 0.86185 0.85071 0.0
H812 H 0.74282 0.78101 0.81993 0.0
H813 H 0.73454 0.80352 0.88772 0.0
H814 H 0.71013 0.81355 0.91734 0.0
H815 H 0.67403 0.7398 0.91502 0.0
H816 H 0.69794 0.7295 0.88517 0.0
H817 H 0.84092 0.69071 0.84702 0.0
H818 H 0.81383 0.72863 0.84262 0.0
H819 H 0.74736 0.68423 0.85838 0.0
H820 H 0.77408 0.64676 0.86309 0.0
H821 H 0.74971 0.72681 0.87878 0.0
H822 H 0.75521 0.70394 0.81123 0.0
H823 H 0.7759 0.69377 0.78006 0.0
H824 H 0.81528 0.76583 0.78109 0.0
H825 H 0.79455 0.7766 0.8122 0.0
C826 C 0.66981 0.81428 0.85254 0.0
C827 C 0.67993 0.83913 0.85308 0.0
C828 C 0.6861 0.79335 0.8505 0.0
C829 C 0.71258 0.79711 0.84869 0.0
C830 C 0.72254 0.82195 0.84816 0.0
C831 C 0.70635 0.84283 0.85054 0.0
C832 C 0.7301 0.77515 0.84928 0.0
C833 C 0.74462 0.76924 0.83281 0.0
C834 C 0.73201 0.7598 0.86606 0.0
C835 C 0.71781 0.76586 0.8841 0.0
C836 C 0.72122 0.78954 0.89343 0.0
C837 C 0.70751 0.79525 0.91027 0.0
C838 C 0.69048 0.77735 0.91803 0.0
C839 C 0.68719 0.75366 0.90898 0.0
C840 C 0.70083 0.74787 0.8921 0.0
C841 C 0.82051 0.68912 0.84944 0.0
C842 C 0.80963 0.66593 0.85561 0.0
C843 C 0.80507 0.71067 0.84679 0.0
C844 C 0.7786 0.70915 0.85014 0.0
C845 C 0.76775 0.68581 0.8558 0.0
C846 C 0.78308 0.66444 0.85853 0.0
C847 C 0.76223 0.73211 0.84924 0.0
C848 C 0.74802 0.73844 0.86581 0.0
C849 C 0.76048 0.74762 0.83249 0.0
C850 C 0.7736 0.74092 0.81414 0.0
C851 C 0.76849 0.71749 0.80491 0.0
C852 C 0.78015 0.71166 0.78722 0.0
C853 C 0.79706 0.72902 0.77867 0.0
C854 C 0.80224 0.75236 0.78775 0.0
C855 C 0.79046 0.75839 0.80537 0.0
H856 H 0.80606 0.72444 0.76497 0.0
H857 H 0.67988 0.78181 0.93107 0.0
H858 H 0.64516 0.72009 0.35783 0.0
H859 H 0.68204 0.74549 0.34819 0.0
H860 H 0.71999 0.67738 0.32784 0.0
H861 H 0.68292 0.65157 0.3377 0.0
H862 H 0.74979 0.7055 0.35143 0.0
H863 H 0.69888 0.72157 0.29575 0.0
H864 H 0.65954 0.73273 0.27797 0.0
H865 H 0.66062 0.80778 0.30316 0.0
H866 H 0.69965 0.79693 0.32145 0.0
H867 H 0.85519 0.77906 0.32946 0.0
H868 H 0.81792 0.7537 0.32015 0.0
H869 H 0.7682 0.8115 0.34397 0.0
H870 H 0.80566 0.83751 0.35268 0.0
H871 H 0.74595 0.7854 0.31262 0.0
H872 H 0.78945 0.76596 0.37302 0.0
H873 H 0.82733 0.7553 0.39275 0.0
H874 H 0.83844 0.68674 0.35954 0.0
H875 H 0.80082 0.69725 0.33941 0.0
C876 C 0.66128 0.71047 0.35123 0.0
C877 C 0.66127 0.68382 0.34861 0.0
C878 C 0.68223 0.72508 0.34552 0.0
C879 C 0.70352 0.71338 0.33698 0.0
C880 C 0.70358 0.68676 0.33425 0.0
C881 C 0.68251 0.67206 0.33994 0.0
C882 C 0.72652 0.72886 0.33272 0.0
C883 C 0.74913 0.72257 0.34249 0.0
C884 C 0.72537 0.75149 0.32144 0.0
C885 C 0.70217 0.75834 0.31011 0.0
C886 C 0.69066 0.74041 0.29762 0.0
C887 C 0.66839 0.74668 0.28744 0.0
C888 C 0.65754 0.77092 0.28949 0.0
C889 C 0.66903 0.78899 0.30162 0.0
C890 C 0.69125 0.7828 0.31188 0.0
C891 C 0.83626 0.78666 0.33222 0.0
C892 C 0.83311 0.80989 0.34212 0.0
C893 C 0.81503 0.77223 0.32682 0.0
C894 C 0.7904 0.78048 0.33181 0.0
C895 C 0.78711 0.80481 0.34007 0.0
C896 C 0.80844 0.81957 0.34512 0.0
C897 C 0.7689 0.76209 0.33154 0.0
C898 C 0.74666 0.76793 0.32108 0.0
C899 C 0.77017 0.73907 0.34231 0.0
C900 C 0.79253 0.73253 0.35459 0.0
C901 C 0.80008 0.7487 0.36986 0.0
C902 C 0.82148 0.74268 0.38111 0.0
C903 C 0.83532 0.72039 0.37736 0.0
C904 C 0.82773 0.70403 0.3624 0.0
C905 C 0.80637 0.71 0.35106 0.0
H906 H 0.8519 0.71576 0.38609 0.0
H907 H 0.64025 0.77571 0.28167 0.0
H908 H 0.84708 0.78658 0.65166 0.0
H909 H 0.81743 0.75204 0.65938 0.0
H910 H 0.79197 0.79311 0.70998 0.0
H911 H 0.82201 0.8277 0.70253 0.0
H912 H 0.78748 0.73095 0.7078 0.0
H913 H 0.76107 0.81276 0.67861 0.0
H914 H 0.77045 0.84876 0.65663 0.0
H915 H 0.7766 0.79684 0.60865 0.0
H916 H 0.7677 0.76043 0.63046 0.0
H917 H 0.66248 0.67443 0.68864 0.0
H918 H 0.69409 0.70658 0.69911 0.0
H919 H 0.73142 0.70108 0.64346 0.0
H920 H 0.7002 0.66942 0.63302 0.0
H921 H 0.72583 0.74998 0.6549 0.0
H922 H 0.75227 0.6686 0.68262 0.0
H923 H 0.74721 0.6309 0.70376 0.0
H924 H 0.74341 0.67962 0.75379 0.0
H925 H 0.74798 0.71769 0.7329 0.0
C926 C 0.83615 0.78766 0.66498 0.0
C927 C 0.83634 0.80999 0.67625 0.0
C928 C 0.81933 0.76785 0.66945 0.0
C929 C 0.80229 0.77034 0.68504 0.0
C930 C 0.80506 0.79089 0.69792 0.0
C931 C 0.82216 0.81068 0.69358 0.0
C932 C 0.77795 0.75612 0.68421 0.0
C933 C 0.77362 0.7353 0.69657 0.0
C934 C 0.76006 0.76194 0.66949 0.0
C935 C 0.76386 0.78391 0.65617 0.0
C936 C 0.76447 0.80903 0.66338 0.0
C937 C 0.76974 0.8295 0.65096 0.0
C938 C 0.77418 0.82511 0.63127 0.0
C939 C 0.77317 0.80022 0.62392 0.0
C940 C 0.76798 0.77966 0.63629 0.0
C941 C 0.67718 0.68054 0.67858 0.0
C942 C 0.67894 0.66953 0.66002 0.0
C943 C 0.69531 0.69864 0.68463 0.0
C944 C 0.7152 0.70596 0.67211 0.0
C945 C 0.71624 0.69567 0.65335 0.0
C946 C 0.69837 0.67759 0.64739 0.0
C947 C 0.73541 0.7241 0.67813 0.0
C948 C 0.73907 0.74589 0.66663 0.0
C949 C 0.75255 0.71897 0.69362 0.0
C950 C 0.74993 0.69604 0.70614 0.0
C951 C 0.75004 0.67132 0.6981 0.0
C952 C 0.74733 0.64987 0.71005 0.0
C953 C 0.74479 0.65289 0.73009 0.0
C954 C 0.74522 0.67734 0.73825 0.0
C955 C 0.74784 0.69885 0.72636 0.0
H956 H 0.74252 0.6363 0.7393 0.0
H957 H 0.77838 0.84099 0.6217 0.0
H958 H 0.835 0.71315 0.14312 0.0
H959 H 0.80518 0.74472 0.15544 0.0
H960 H 0.77725 0.69045 0.19759 0.0
H961 H 0.80738 0.65827 0.1851 0.0
H962 H 0.73862 0.71595 0.18065 0.0
H963 H 0.81226 0.73964 0.21401 0.0
H964 H 0.85769 0.74877 0.22067 0.0
H965 H 0.85579 0.81164 0.18067 0.0
H966 H 0.81043 0.80273 0.17355 0.0
H967 H 0.6621 0.82543 0.19915 0.0
H968 H 0.69588 0.7953 0.20868 0.0
H969 H 0.73826 0.81424 0.15712 0.0
H970 H 0.70444 0.84373 0.14718 0.0
H971 H 0.76925 0.80461 0.19208 0.0
H972 H 0.69649 0.76854 0.15443 0.0
H973 H 0.6507 0.75821 0.15055 0.0
H974 H 0.65152 0.7173 0.20455 0.0
H975 H 0.69725 0.72776 0.20888 0.0
C976 C 0.82248 0.70779 0.15497 0.0
C977 C 0.82356 0.68325 0.16319 0.0
C978 C 0.80562 0.72599 0.16215 0.0
C979 C 0.78953 0.72018 0.1778 0.0
C980 C 0.78982 0.69539 0.18567 0.0
C981 C 0.80685 0.67703 0.17845 0.0
C982 C 0.77166 0.74003 0.18487 0.0
C983 C 0.74533 0.73516 0.18378 0.0
C984 C 0.78038 0.76504 0.18924 0.0
C985 C 0.80785 0.77044 0.1932 0.0
C986 C 0.82155 0.7553 0.2065 0.0
C987 C 0.8473 0.76046 0.21039 0.0
C988 C 0.85962 0.78076 0.20109 0.0
C989 C 0.8462 0.79594 0.18788 0.0
C990 C 0.82044 0.79087 0.18395 0.0
C991 C 0.67909 0.82386 0.19024 0.0
C992 C 0.68075 0.83679 0.17241 0.0
C993 C 0.69823 0.80667 0.19571 0.0
C994 C 0.71936 0.80261 0.18361 0.0
C995 C 0.72211 0.81725 0.16669 0.0
C996 C 0.7028 0.83402 0.16101 0.0
C997 C 0.73656 0.78063 0.18672 0.0
C998 C 0.76268 0.78518 0.18971 0.0
C999 C 0.72764 0.75521 0.18468 0.0
C1000 C 0.70017 0.74913 0.18207 0.0
C1001 C 0.68684 0.75754 0.16555 0.0
C1002 C 0.66092 0.75163 0.16326 0.0
C1003 C 0.64824 0.73709 0.17729 0.0
C1004 C 0.66139 0.72855 0.19369 0.0
C1005 C 0.68729 0.73447 0.19608 0.0
H1006 H 0.62825 0.73231 0.1754 0.0
H1007 H 0.87954 0.78473 0.20414 0.0
H1008 H 0.22832 0.05639 0.34211 0.0
H1009 H 0.25677 0.04927 0.31436 0.0
H1010 H 0.19139 0.0442 0.2764 0.0
H1011 H 0.16295 0.05126 0.30398 0.0
H1012 H 0.23023 0.01125 0.26513 0.0
H1013 H 0.21939 0.0999 0.28261 0.0
H1014 H 0.22064 0.13748 0.30422 0.0
H1015 H 0.30135 0.12715 0.31253 0.0
H1016 H 0.3005 0.08921 0.29126 0.0
H1017 H 0.28441 0.05664 0.17524 0.0
H1018 H 0.25899 0.04616 0.20413 0.0
H1019 H 0.32514 0.05925 0.24026 0.0
H1020 H 0.35022 0.07026 0.21166 0.0
H1021 H 0.28677 0.08584 0.25316 0.0
H1022 H 0.2982 -0.00137 0.23364 0.0
H1023 H 0.29677 0.96183 0.21132 0.0
H1024 H 0.21533 0.96979 0.20608 0.0
H1025 H 0.21632 0.00688 0.22817 0.0
C1026 C 0.22 0.05294 0.32795 0.0
C1027 C 0.19343 0.05458 0.32519 0.0
C1028 C 0.23627 0.04904 0.31209 0.0
C1029 C 0.22621 0.04663 0.29325 0.0
C1030 C 0.19959 0.04608 0.29076 0.0
C1031 C 0.18336 0.05016 0.30656 0.0
C1032 C 0.24317 0.04765 0.27597 0.0
C1033 C 0.24256 0.02757 0.26244 0.0
C1034 C 0.25939 0.06887 0.27253 0.0
C1035 C 0.25982 0.09152 0.28553 0.0
C1036 C 0.23735 0.10546 0.28921 0.0
C1037 C 0.238 0.12686 0.30138 0.0
C1038 C 0.26106 0.13466 0.30976 0.0
C1039 C 0.2835 0.12105 0.30605 0.0
C1040 C 0.28294 0.0996 0.29396 0.0
C1041 C 0.29361 0.05666 0.18932 0.0
C1042 C 0.31924 0.06441 0.19121 0.0
C1043 C 0.27909 0.05066 0.20584 0.0
C1044 C 0.29011 0.05196 0.22445 0.0
C1045 C 0.31611 0.05828 0.22613 0.0
C1046 C 0.33047 0.0645 0.20974 0.0
C1047 C 0.27426 0.04923 0.24231 0.0
C1048 C 0.27483 0.06924 0.25591 0.0
C1049 C 0.25803 0.02798 0.24572 0.0
C1050 C 0.25738 0.0057 0.23242 0.0
C1051 C 0.28001 0.99267 0.2276 0.0
C1052 C 0.27928 0.97173 0.21501 0.0
C1053 C 0.25598 0.96352 0.20724 0.0
C1054 C 0.23337 0.97619 0.21209 0.0
C1055 C 0.234 -0.00284 0.22466 0.0
H1056 H 0.25545 0.94729 0.1975 0.0
H1057 H 0.2616 0.15129 0.31908 0.0
H1058 H 0.46639 0.29218 0.672 0.0
H1059 H 0.47918 0.26592 0.69995 0.0
H1060 H 0.42109 0.30236 0.73475 0.0
H1061 H 0.40939 0.32918 0.70755 0.0
H1062 H 0.45801 0.29377 0.75696 0.0
H1063 H 0.4129 0.2422 0.70913 0.0
H1064 H 0.40671 0.22254 0.67693 0.0
H1065 H 0.47906 0.18437 0.68209 0.0
H1066 H 0.48577 0.20406 0.71425 0.0
H1067 H 0.40305 0.16872 0.79712 0.0
H1068 H 0.41573 0.19557 0.7702 0.0
H1069 H 0.47905 0.22487 0.80379 0.0
H1070 H 0.46541 0.19853 0.83152 0.0
H1071 H 0.45265 0.19999 0.74731 0.0
H1072 H 0.49188 0.28621 0.78912 0.0
H1073 H 0.48891 0.30638 0.82142 0.0
H1074 H 0.41322 0.27582 0.82865 0.0
H1075 H 0.41568 0.25572 0.79633 0.0
C1076 C 0.45676 0.29484 0.68575 0.0
C1077 C 0.43676 0.31262 0.6875 0.0
C1078 C 0.46396 0.27974 0.7017 0.0
C1079 C 0.45083 0.28175 0.71949 0.0
C1080 C 0.43167 0.30036 0.72134 0.0
C1081 C 0.42486 0.31566 0.70563 0.0
C1082 C 0.45512 0.2635 0.73583 0.0
C1083 C 0.45716 0.27323 0.7548 0.0
C1084 C 0.45396 0.23665 0.73322 0.0
C1085 C 0.44999 0.22485 0.71392 0.0
C1086 C 0.42755 0.22974 0.70332 0.0
C1087 C 0.42394 0.21859 0.6851 0.0
C1088 C 0.44253 0.20229 0.67744 0.0
C1089 C 0.46472 0.19706 0.68801 0.0
C1090 C 0.46844 0.20821 0.70623 0.0
C1091 C 0.41981 0.18071 0.79885 0.0
C1092 C 0.43311 0.18161 0.81656 0.0
C1093 C 0.42718 0.19602 0.7833 0.0
C1094 C 0.44828 0.21251 0.78485 0.0
C1095 C 0.46242 0.21266 0.80227 0.0
C1096 C 0.45471 0.19753 0.81809 0.0
C1097 C 0.45393 0.23033 0.76846 0.0
C1098 C 0.45415 0.22049 0.74948 0.0
C1099 C 0.45587 0.25713 0.77109 0.0
C1100 C 0.45414 0.26919 0.79047 0.0
C1101 C 0.47462 0.28383 0.79762 0.0
C1102 C 0.47302 0.29525 0.81592 0.0
C1103 C 0.45094 0.29229 0.82712 0.0
C1104 C 0.43036 0.278 0.82 0.0
C1105 C 0.43185 0.26659 0.80171 0.0
H1106 H 0.44974 0.30112 0.84128 0.0
H1107 H 0.4397 0.19366 0.66333 0.0
H1108 H 0.14974 0.4382 0.21251 0.0
H1109 H 0.17859 0.44984 0.23894 0.0
H1110 H 0.24113 0.45561 0.19841 0.0
H1111 H 0.21214 0.44414 0.17174 0.0
H1112 H 0.25008 0.42181 0.22868 0.0
H1113 H 0.22185 0.50813 0.22145 0.0
H1114 H 0.19033 0.54288 0.21829 0.0
H1115 H 0.15974 0.52455 0.27438 0.0
H1116 H 0.19085 0.48943 0.27777 0.0
H1117 H 0.33873 0.44401 0.30172 0.0
H1118 H 0.31285 0.45521 0.27351 0.0
H1119 H 0.24457 0.45115 0.30844 0.0
H1120 H 0.2705 0.44027 0.33691 0.0
H1121 H 0.24089 0.48828 0.27957 0.0
H1122 H 0.26262 0.39956 0.28526 0.0
H1123 H 0.29153 0.36273 0.28934 0.0
H1124 H 0.33098 0.38313 0.23696 0.0
H1125 H 0.30251 0.42034 0.23271 0.0
C1126 C 0.16949 0.44264 0.20914 0.0
C1127 C 0.17873 0.44022 0.19008 0.0
C1128 C 0.18595 0.44938 0.22426 0.0
C1129 C 0.21201 0.45364 0.22066 0.0
C1130 C 0.22105 0.45249 0.20148 0.0
C1131 C 0.20447 0.44608 0.18626 0.0
C1132 C 0.23009 0.45598 0.23719 0.0
C1133 C 0.2485 0.43675 0.23953 0.0
C1134 C 0.22731 0.47486 0.25176 0.0
C1135 C 0.20859 0.49601 0.2498 0.0
C1136 C 0.20827 0.51136 0.23305 0.0
C1137 C 0.1905 0.53116 0.23123 0.0
C1138 C 0.17301 0.53589 0.24611 0.0
C1139 C 0.17329 0.52086 0.26286 0.0
C1140 C 0.19102 0.50103 0.26475 0.0
C1141 C 0.31828 0.44624 0.30355 0.0
C1142 C 0.3066 0.44098 0.32147 0.0
C1143 C 0.3035 0.45258 0.28739 0.0
C1144 C 0.27674 0.45346 0.28878 0.0
C1145 C 0.26519 0.45048 0.30704 0.0
C1146 C 0.28003 0.44428 0.3233 0.0
C1147 C 0.26088 0.4542 0.27091 0.0
C1148 C 0.24278 0.47373 0.26846 0.0
C1149 C 0.26355 0.43531 0.25633 0.0
C1150 C 0.28064 0.41291 0.25879 0.0
C1151 C 0.2776 0.39632 0.2747 0.0
C1152 C 0.29388 0.37536 0.27703 0.0
C1153 C 0.31313 0.37065 0.26346 0.0
C1154 C 0.31609 0.38685 0.24749 0.0
C1155 C 0.29989 0.40787 0.2451 0.0
H1156 H 0.32569 0.3544 0.26528 0.0
H1157 H 0.15927 0.55123 0.24467 0.0
H1158 H 0.0515 0.15233 0.70917 0.0
H1159 H 0.04203 0.17882 0.73749 0.0
H1160 H 0.04351 0.24627 0.70152 0.0
H1161 H 0.05274 0.21975 0.67302 0.0
H1162 H 0.07784 0.24738 0.73287 0.0
H1163 H 0.98886 0.22893 0.72182 0.0
H1164 H 0.9515 0.20098 0.71646 0.0
H1165 H 0.96435 0.16471 0.77147 0.0
H1166 H 0.00202 0.1922 0.77705 0.0
H1167 H 0.05467 0.33842 0.80309 0.0
H1168 H 0.04579 0.31149 0.77502 0.0
H1169 H 0.04149 0.24521 0.81211 0.0
H1170 H 0.05008 0.27237 0.84053 0.0
H1171 H 0.00693 0.24278 0.7806 0.0
H1172 H 0.09582 0.25655 0.79151 0.0
H1173 H 0.13473 0.28178 0.79816 0.0
H1174 H 0.12464 0.32261 0.74467 0.0
H1175 H 0.08538 0.29791 0.73786 0.0
C1176 C 0.04909 0.17274 0.70719 0.0
C1177 C 0.05291 0.184 0.68889 0.0
C1178 C 0.04363 0.18784 0.72339 0.0
C1179 C 0.0421 0.21452 0.72163 0.0
C1180 C 0.04456 0.2257 0.70318 0.0
C1181 C 0.04968 0.21053 0.68689 0.0
C1182 C 0.04109 0.23078 0.73927 0.0
C1183 C 0.06207 0.24675 0.74309 0.0
C1184 C 0.02111 0.22899 0.75308 0.0
C1185 C -0.00158 0.21248 0.74977 0.0
C1186 C 0.98386 0.21484 0.7327 0.0
C1187 C 0.96259 0.19911 0.72964 0.0
C1188 C 0.95559 0.18104 0.7436 0.0
C1189 C 0.96981 0.1787 0.76067 0.0
C1190 C 0.9911 0.19438 0.7638 0.0
C1191 C 0.05124 0.3182 0.80537 0.0
C1192 C 0.05334 0.30743 0.82397 0.0
C1193 C 0.0462 0.30282 0.78929 0.0
C1194 C 0.0435 0.27628 0.79142 0.0
C1195 C 0.0436 0.26566 0.81015 0.0
C1196 C 0.04848 0.28117 0.82636 0.0
C1197 C 0.04342 0.25973 0.7739 0.0
C1198 C 0.02251 0.24356 0.77023 0.0
C1199 C 0.06375 0.26082 0.76035 0.0
C1200 C 0.08749 0.27557 0.76428 0.0
C1201 C 0.10178 0.27105 0.78124 0.0
C1202 C 0.1239 0.28524 0.78503 0.0
C1203 C 0.1321 0.30384 0.77187 0.0
C1204 C 0.11823 0.30823 0.75486 0.0
C1205 C 0.09604 0.29414 0.75103 0.0
H1206 H 0.14921 0.31484 0.77484 0.0
H1207 H 0.93912 0.16888 0.7412 0.0
H1208 H 0.63994 0.92065 0.79549 0.0
H1209 H 0.66599 0.92518 0.76642 0.0
H1210 H 0.72696 0.95797 0.8004 0.0
H1211 H 0.70098 0.95304 0.82995 0.0
H1212 H 0.71395 0.97914 0.75716 0.0
H1213 H 0.74055 0.90583 0.79535 0.0
H1214 H 0.73216 0.86777 0.81547 0.0
H1215 H 0.68986 0.8336 0.76876 0.0
H1216 H 0.69785 0.87165 0.7484 0.0
H1217 H 0.81743 0.9453 0.69351 0.0
H1218 H 0.78849 0.95637 0.72 0.0
H1219 H 0.73385 0.90095 0.6991 0.0
H1220 H 0.76284 0.88968 0.6726 0.0
H1221 H 0.74445 0.89344 0.73666 0.0
H1222 H 0.72156 0.9653 0.69728 0.0
H1223 H 0.72911 0.00374 0.67738 0.0
H1224 H 0.764 0.04131 0.72606 0.0
H1225 H 0.75698 0.00293 0.7462 0.0
C1226 C 0.65864 0.92944 0.7968 0.0
C1227 C 0.66851 0.93624 0.81508 0.0
C1228 C 0.67347 0.93205 0.78012 0.0
C1229 C 0.6984 0.94174 0.7813 0.0
C1230 C 0.70767 0.95054 0.79923 0.0
C1231 C 0.69282 0.94773 0.81608 0.0
C1232 C 0.7155 0.93913 0.76428 0.0
C1233 C 0.72107 0.96054 0.75279 0.0
C1234 C 0.72413 0.91474 0.75841 0.0
C1235 C 0.71955 0.89168 0.77045 0.0
C1236 C 0.72927 0.89029 0.78944 0.0
C1237 C 0.72462 0.8687 0.80087 0.0
C1238 C 0.71036 0.84831 0.79345 0.0
C1239 C 0.70085 0.84943 0.77452 0.0
C1240 C 0.70547 0.87098 0.76301 0.0
C1241 C 0.79898 0.9359 0.69426 0.0
C1242 C 0.7925 0.91648 0.681 0.0
C1243 C 0.78242 0.94229 0.70943 0.0
C1244 C 0.75898 0.92947 0.71161 0.0
C1245 C 0.75188 0.91104 0.69777 0.0
C1246 C 0.76841 0.90469 0.68255 0.0
C1247 C 0.74309 0.9335 0.72926 0.0
C1248 C 0.73759 0.91218 0.74094 0.0
C1249 C 0.73471 0.95803 0.73527 0.0
C1250 C 0.73897 0.98113 0.72319 0.0
C1251 C 0.73105 0.98167 0.7037 0.0
C1252 C 0.73519 0.00347 0.69238 0.0
C1253 C 0.74709 0.02493 0.70043 0.0
C1254 C 0.75482 0.02465 0.71983 0.0
C1255 C 0.75074 0.00289 0.73121 0.0
H1256 H 0.75027 0.04179 0.69165 0.0
H1257 H 0.70676 0.83163 0.80234 0.0
H1258 H 0.54657 0.7115 0.33017 0.0
H1259 H 0.54104 0.73725 0.30054 0.0
H1260 H 0.57431 0.6767 0.26659 0.0
H1261 H 0.57931 0.65078 0.29571 0.0
H1262 H 0.59826 0.73369 0.2691 0.0
H1263 H 0.52364 0.67994 0.25469 0.0
H1264 H 0.48116 0.66218 0.26253 0.0
H1265 H 0.45052 0.73809 0.26697 0.0
H1266 H 0.49296 0.75629 0.25943 0.0
H1267 H 0.60511 0.77543 0.17299 0.0
H1268 H 0.59599 0.74741 0.20065 0.0
H1269 H 0.53756 0.79947 0.22012 0.0
H1270 H 0.54672 0.82765 0.19259 0.0
H1271 H 0.52351 0.74913 0.2263 0.0
H1272 H 0.59247 0.80411 0.24118 0.0
H1273 H 0.63367 0.82686 0.23887 0.0
H1274 H 0.67359 0.75521 0.23795 0.0
H1275 H 0.63254 0.73197 0.24005 0.0
C1276 C 0.55197 0.70342 0.31631 0.0
C1277 C 0.56347 0.67915 0.31531 0.0
C1278 C 0.54885 0.71814 0.29943 0.0
C1279 C 0.55728 0.70879 0.28144 0.0
C1280 C 0.56759 0.68416 0.28034 0.0
C1281 C 0.57041 0.66939 0.29704 0.0
C1282 C 0.55845 0.72556 0.26416 0.0
C1283 C 0.58203 0.7368 0.25957 0.0
C1284 C 0.53698 0.73041 0.25228 0.0
C1285 C 0.51153 0.71946 0.25678 0.0
C1286 C 0.50792 0.69284 0.25758 0.0
C1287 C 0.48383 0.6827 0.2619 0.0
C1288 C 0.46317 0.699 0.26532 0.0
C1289 C 0.46655 0.72549 0.26436 0.0
C1290 C 0.49061 0.73572 0.26005 0.0
C1291 C 0.58986 0.78054 0.18287 0.0
C1292 C 0.57669 0.80375 0.18065 0.0
C1293 C 0.58481 0.76464 0.19874 0.0
C1294 C 0.56636 0.77154 0.21259 0.0
C1295 C 0.55191 0.79379 0.20965 0.0
C1296 C 0.55715 0.80985 0.19389 0.0
C1297 C 0.56365 0.7566 0.23082 0.0
C1298 C 0.53982 0.74589 0.23571 0.0
C1299 C 0.58479 0.75264 0.2433 0.0
C1300 C 0.60941 0.76631 0.24059 0.0
C1301 C 0.61 0.79319 0.24015 0.0
C1302 C 0.63332 0.80617 0.23898 0.0
C1303 C 0.65621 0.79248 0.23834 0.0
C1304 C 0.65582 0.76577 0.23845 0.0
C1305 C 0.63253 0.75267 0.23966 0.0
H1306 H 0.67424 0.80263 0.23796 0.0
H1307 H 0.44454 0.69111 0.26866 0.0
H1308 H 0.84474 0.57382 0.7975 0.0
H1309 H 0.82003 0.56484 0.76828 0.0
H1310 H 0.75353 0.54879 0.80327 0.0
H1311 H 0.77855 0.55722 0.83279 0.0
H1312 H 0.75502 0.51777 0.77176 0.0
H1313 H 0.76315 0.60708 0.78426 0.0
H1314 H 0.78485 0.64806 0.79064 0.0
H1315 H 0.82289 0.6434 0.73558 0.0
H1316 H 0.80202 0.60193 0.72912 0.0
H1317 H 0.65739 0.55877 0.70639 0.0
H1318 H 0.68737 0.54914 0.73254 0.0
H1319 H 0.75059 0.55913 0.69308 0.0
H1320 H 0.72048 0.56857 0.66668 0.0
H1321 H 0.75292 0.59033 0.72543 0.0
H1322 H 0.74023 0.50153 0.7124 0.0
H1323 H 0.71528 0.46224 0.70656 0.0
H1324 H 0.68135 0.46861 0.76305 0.0
H1325 H 0.70583 0.50817 0.76913 0.0
C1326 C 0.82497 0.5679 0.79902 0.0
C1327 C 0.81346 0.56647 0.81741 0.0
C1328 C 0.81085 0.56285 0.78229 0.0
C1329 C 0.78477 0.55674 0.78354 0.0
C1330 C 0.77361 0.55361 0.80195 0.0
C1331 C 0.78789 0.5584 0.8188 0.0
C1332 C 0.76888 0.55572 0.76566 0.0
C1333 C 0.75439 0.5337 0.76169 0.0
C1334 C 0.76835 0.5764 0.75235 0.0
C1335 C 0.78134 0.60114 0.75636 0.0
C1336 C 0.77643 0.61458 0.77363 0.0
C1337 C 0.78855 0.63794 0.77725 0.0
C1338 C 0.80531 0.6483 0.76355 0.0
C1339 C 0.81 0.63529 0.74622 0.0
C1340 C 0.79809 0.61181 0.7426 0.0
C1341 C 0.67766 0.55817 0.70314 0.0
C1342 C 0.68665 0.56443 0.68452 0.0
C1343 C 0.69477 0.55258 0.71809 0.0
C1344 C 0.72121 0.55336 0.71476 0.0
C1345 C 0.73023 0.55831 0.69592 0.0
C1346 C 0.71304 0.56355 0.68084 0.0
C1347 C 0.73914 0.55239 0.73145 0.0
C1348 C 0.75387 0.57422 0.73531 0.0
C1349 C 0.73949 0.53176 0.74475 0.0
C1350 C 0.72475 0.50795 0.74116 0.0
C1351 C 0.72729 0.49469 0.72352 0.0
C1352 C 0.71326 0.47234 0.72018 0.0
C1353 C 0.6967 0.46297 0.73441 0.0
C1354 C 0.69418 0.4759 0.75203 0.0
C1355 C 0.70816 0.49827 0.75544 0.0
H1356 H 0.68586 0.44566 0.73179 0.0
H1357 H 0.8146 0.66644 0.76634 0.0
H1358 H 0.94232 0.83495 0.30581 0.0
H1359 H 0.94901 0.80952 0.27655 0.0
H1360 H 0.94162 0.74028 0.31008 0.0
H1361 H 0.93529 0.76569 0.33954 0.0
H1362 H 0.9762 0.73417 0.28125 0.0
H1363 H 0.89089 0.76561 0.28751 0.0
H1364 H 0.85642 0.79731 0.29126 0.0
H1365 H 0.8788 0.83329 0.23792 0.0
H1366 H 0.91379 0.80213 0.23405 0.0
H1367 H 0.92122 0.64948 0.21221 0.0
H1368 H 0.93355 0.67685 0.23928 0.0
H1369 H 0.94358 0.74025 0.19996 0.0
H1370 H 0.93114 0.71272 0.17263 0.0
H1371 H 0.91152 0.75129 0.2302 0.0
H1372 H 0.99495 0.71461 0.22318 0.0
H1373 H 0.0259 0.67937 0.21976 0.0
H1374 H 0.00304 0.64934 0.27507 0.0
H1375 H 0.97169 0.68419 0.27871 0.0
C1376 C 0.9428 0.81431 0.30706 0.0
C1377 C 0.93808 0.80232 0.32497 0.0
C1378 C 0.94647 0.79979 0.29028 0.0
C1379 C 0.94521 0.77299 0.29102 0.0
C1380 C 0.94254 0.76093 0.30913 0.0
C1381 C 0.939 0.77548 0.32599 0.0
C1382 C 0.94437 0.75775 0.2728 0.0
C1383 C 0.96201 0.73784 0.27012 0.0
C1384 C 0.92599 0.76267 0.25814 0.0
C1385 C 0.90526 0.78178 0.26066 0.0
C1386 C 0.88871 0.78049 0.27672 0.0
C1387 C 0.86903 0.79833 0.27885 0.0
C1388 C 0.86551 0.81738 0.26489 0.0
C1389 C 0.88163 0.8186 0.24876 0.0
C1390 C 0.90141 0.80088 0.24661 0.0
C1391 C 0.92662 0.6691 0.20924 0.0
C1392 C 0.9252 0.67899 0.19031 0.0
C1393 C 0.93378 0.68471 0.22474 0.0
C1394 C 0.93965 0.71058 0.22167 0.0
C1395 C 0.93925 0.72029 0.20264 0.0
C1396 C 0.93229 0.70455 0.18704 0.0
C1397 C 0.94345 0.72783 0.23856 0.0
C1398 C 0.92612 0.74798 0.24111 0.0
C1399 C 0.96178 0.72278 0.2532 0.0
C1400 C 0.98085 0.70196 0.25116 0.0
C1401 C 0.9964 0.70041 0.23457 0.0
C1402 C 0.01404 0.68051 0.2326 0.0
C1403 C 0.0164 0.66211 0.24718 0.0
C1404 C 0.00119 0.66361 0.26379 0.0
C1405 C 0.98351 0.68346 0.26583 0.0
H1406 H 0.03005 0.6467 0.24561 0.0
H1407 H 0.85022 0.83114 0.26654 0.0
H1408 H 0.41617 0.0345 0.16081 0.0
H1409 H 0.45776 0.01614 0.16832 0.0
H1410 H 0.49231 0.09101 0.16576 0.0
H1411 H 0.45015 0.10984 0.15853 0.0
H1412 H 0.51686 0.04932 0.14278 0.0
H1413 H 0.49387 0.06909 0.20721 0.0
H1414 H 0.46524 0.07346 0.23539 0.0
H1415 H 0.45356 0.99219 0.23634 0.0
H1416 H 0.48179 0.98733 0.20797 0.0
H1417 H 0.61489 0.95406 0.16133 0.0
H1418 H 0.59315 0.99513 0.16717 0.0
H1419 H 0.52115 0.95534 0.17261 0.0
H1420 H 0.54246 0.91478 0.16654 0.0
H1421 H 0.52837 0.99414 0.20068 0.0
H1422 H 0.53698 0.97906 0.13024 0.0
H1423 H 0.56276 0.97328 0.1006 0.0
H1424 H 0.60004 0.04528 0.11079 0.0
H1425 H 0.57465 0.0513 0.14064 0.0
C1426 C 0.43255 0.04714 0.16193 0.0
C1427 C 0.42999 0.07357 0.15905 0.0
C1428 C 0.45626 0.03664 0.16633 0.0
C1429 C 0.47797 0.05229 0.16777 0.0
C1430 C 0.47566 0.07873 0.16484 0.0
C1431 C 0.45167 0.08939 0.16074 0.0
C1432 C 0.50295 0.04003 0.17133 0.0
C1433 C 0.52004 0.03799 0.15575 0.0
C1434 C 0.50689 0.0252 0.18821 0.0
C1435 C 0.49001 0.02786 0.20542 0.0
C1436 C 0.48511 0.05215 0.21335 0.0
C1437 C 0.46895 0.05472 0.22938 0.0
C1438 C 0.4576 0.03312 0.23766 0.0
C1439 C 0.46241 0.0089 0.22994 0.0
C1440 C 0.47855 0.00623 0.2139 0.0
C1441 C 0.59449 0.95419 0.16403 0.0
C1442 C 0.58026 0.93137 0.16335 0.0
C1443 C 0.58216 0.97756 0.16736 0.0
C1444 C 0.5556 0.97817 0.17036 0.0
C1445 C 0.54169 0.95523 0.17047 0.0
C1446 C 0.55385 0.9321 0.16685 0.0
C1447 C 0.54129 0.00244 0.17173 0.0
C1448 C 0.52612 0.00656 0.1882 0.0
C1449 C 0.53903 0.01908 0.15565 0.0
C1450 C 0.55424 0.01545 0.13777 0.0
C1451 C 0.55084 0.99354 0.12623 0.0
C1452 C 0.56534 0.99024 0.10939 0.0
C1453 C 0.58311 0.00886 0.10386 0.0
C1454 C 0.58634 0.03084 0.11513 0.0
C1455 C 0.57191 0.0342 0.13201 0.0
H1456 H 0.5943 0.00628 0.09081 0.0
H1457 H 0.44508 0.03515 0.25006 0.0
H1458 H 0.58161 0.53448 0.65889 0.0
H1459 H 0.53947 0.51506 0.66177 0.0
H1460 H 0.50496 0.58972 0.66535 0.0
H1461 H 0.54755 0.60961 0.66242 0.0
H1462 H 0.48955 0.53184 0.69193 0.0
H1463 H 0.48467 0.58155 0.63133 0.0
H1464 H 0.50794 0.60146 0.60408 0.0
H1465 H 0.53771 0.52817 0.58756 0.0
H1466 H 0.51486 0.50789 0.61492 0.0
H1467 H 0.39422 0.43766 0.66365 0.0
H1468 H 0.41163 0.48111 0.66762 0.0
H1469 H 0.48031 0.45822 0.63765 0.0
H1470 H 0.46322 0.41531 0.63363 0.0
H1471 H 0.46376 0.50517 0.62566 0.0
H1472 H 0.47731 0.45807 0.68695 0.0
H1473 H 0.46157 0.43583 0.71618 0.0
H1474 H 0.41864 0.50244 0.73236 0.0
H1475 H 0.43396 0.52495 0.70308 0.0
C1476 C 0.56516 0.54684 0.66062 0.0
C1477 C 0.56777 0.57354 0.66016 0.0
C1478 C 0.54114 0.5357 0.66243 0.0
C1479 C 0.51926 0.551 0.66376 0.0
C1480 C 0.52176 0.57769 0.66445 0.0
C1481 C 0.546 0.58896 0.66269 0.0
C1482 C 0.49426 0.53839 0.66134 0.0
C1483 C 0.48292 0.52681 0.67751 0.0
C1484 C 0.4861 0.53163 0.6425 0.0
C1485 C 0.49812 0.54327 0.62515 0.0
C1486 C 0.49612 0.5697 0.62184 0.0
C1487 C 0.50927 0.58104 0.60642 0.0
C1488 C 0.52437 0.5661 0.59417 0.0
C1489 C 0.52602 0.53971 0.5971 0.0
C1490 C 0.51293 0.52827 0.61253 0.0
C1491 C 0.41295 0.44206 0.65783 0.0
C1492 C 0.42745 0.4231 0.64844 0.0
C1493 C 0.42281 0.46682 0.66007 0.0
C1494 C 0.4472 0.47286 0.65287 0.0
C1495 C 0.46135 0.45404 0.64316 0.0
C1496 C 0.45163 0.42944 0.64101 0.0
C1497 C 0.45934 0.49803 0.65628 0.0
C1498 C 0.46869 0.51152 0.64017 0.0
C1499 C 0.46556 0.50655 0.6752 0.0
C1500 C 0.45647 0.49303 0.69275 0.0
C1501 C 0.46437 0.46788 0.69668 0.0
C1502 C 0.45556 0.45525 0.71326 0.0
C1503 C 0.43904 0.46768 0.72608 0.0
C1504 C 0.43137 0.49281 0.72239 0.0
C1505 C 0.44011 0.5055 0.70581 0.0
H1506 H 0.43224 0.45788 0.73891 0.0
H1507 H 0.53488 0.57502 0.58248 0.0
H1508 H 0.04549 0.38948 0.16719 0.0
H1509 H 0.00339 0.40827 0.17467 0.0
H1510 H 0.03611 0.48382 0.17005 0.0
H1511 H 0.07755 0.46544 0.1624 0.0
H1512 H 0.00357 0.47721 0.20264 0.0
H1513 H 0.00714 0.45914 0.13198 0.0
H1514 H 0.00975 0.42907 0.10447 0.0
H1515 H 0.94372 0.38891 0.12566 0.0
H1516 H 0.94093 0.41863 0.15343 0.0
H1517 H 0.95375 0.58043 0.15826 0.0
H1518 H 0.97396 0.54021 0.16674 0.0
H1519 H 0.89998 0.50499 0.17426 0.0
H1520 H 0.87923 0.54593 0.1659 0.0
H1521 H 0.93896 0.47713 0.14991 0.0
H1522 H 0.92825 0.50947 0.21336 0.0
H1523 H 0.9269 0.54252 0.23883 0.0
H1524 H 0.00702 0.55727 0.23088 0.0
H1525 H 0.00881 0.52461 0.20516 0.0
C1526 C 0.04359 0.41007 0.16795 0.0
C1527 C 0.06466 0.42605 0.1641 0.0
C1528 C 0.01965 0.42072 0.17223 0.0
C1529 C 0.01676 0.4474 0.17301 0.0
C1530 C 0.038 0.46319 0.16969 0.0
C1531 C 0.06163 0.45266 0.16516 0.0
C1532 C 0.99163 0.45971 0.17588 0.0
C1533 C 0.98907 0.47687 0.19138 0.0
C1534 C 0.97235 0.45856 0.16153 0.0
C1535 C 0.97403 0.44083 0.14486 0.0
C1536 C 0.99331 0.44377 0.13084 0.0
C1537 C 0.9948 0.42683 0.11519 0.0
C1538 C 0.97697 0.40703 0.11336 0.0
C1539 C 0.95756 0.4042 0.12713 0.0
C1540 C 0.95602 0.42107 0.14282 0.0
C1541 C 0.94165 0.56423 0.16173 0.0
C1542 C 0.9149 0.56631 0.16141 0.0
C1543 C 0.95326 0.54127 0.16667 0.0
C1544 C 0.93844 0.51979 0.17133 0.0
C1545 C 0.91166 0.5215 0.17083 0.0
C1546 C 0.89991 0.54479 0.16608 0.0
C1547 C 0.95187 0.49575 0.17601 0.0
C1548 C 0.9524 0.47646 0.16189 0.0
C1549 C 0.9694 0.49502 0.19162 0.0
C1550 C 0.96865 0.51447 0.20734 0.0
C1551 C 0.94558 0.51981 0.21699 0.0
C1552 C 0.94473 0.53849 0.23148 0.0
C1553 C 0.96687 0.55196 0.23648 0.0
C1554 C 0.9899 0.54676 0.22703 0.0
C1555 C 0.99085 0.5281 0.21252 0.0
H1556 H 0.96616 0.56645 0.24768 0.0
H1557 H 0.97814 0.39394 0.10124 0.0
H1558 H 0.90511 0.95357 0.64584 0.0
H1559 H 0.94592 0.97589 0.64703 0.0
H1560 H 0.98067 0.91091 0.67505 0.0
H1561 H 0.93942 0.88809 0.67389 0.0
H1562 H 0.99318 0.96371 0.69074 0.0
H1563 H -0.0027 0.91453 0.63277 0.0
H1564 H 0.9798 0.89536 0.6029 0.0
H1565 H 0.96615 0.9702 0.5795 0.0
H1566 H 0.98318 0.98983 0.60934 0.0
H1567 H 0.094 0.05537 0.66892 0.0
H1568 H 0.07431 0.01278 0.67193 0.0
H1569 H 0.0102 0.03835 0.63763 0.0
H1570 H 0.02962 0.08037 0.63446 0.0
H1571 H 0.02637 0.9912 0.6266 0.0
H1572 H 0.00849 0.03771 0.68756 0.0
H1573 H 0.02233 0.05856 0.71792 0.0
H1574 H 0.06039 0.98964 0.73553 0.0
H1575 H 0.04697 0.9685 0.70515 0.0
C1576 C 0.92131 0.944 0.65239 0.0
C1577 C 0.91916 0.91902 0.65963 0.0
C1578 C 0.94461 0.95678 0.65304 0.0
C1579 C 0.96625 0.94485 0.66089 0.0
C1580 C 0.9641 0.92029 0.66887 0.0
C1581 C 0.94063 0.90734 0.66817 0.0
C1582 C 0.99098 0.95838 0.65982 0.0
C1583 C 0.00113 0.9691 0.67679 0.0
C1584 C 0.00119 0.96531 0.64158 0.0
C1585 C 0.99157 0.95365 0.62332 0.0
C1586 C 0.99051 0.9269 0.62128 0.0
C1587 C 0.98065 0.91595 0.60435 0.0
C1588 C 0.97188 0.93155 0.5893 0.0
C1589 C 0.97301 0.95814 0.59114 0.0
C1590 C 0.98282 0.96919 0.60805 0.0
C1591 C 0.07578 0.05174 0.66195 0.0
C1592 C 0.06326 0.07116 0.65152 0.0
C1593 C 0.06461 0.02748 0.66369 0.0
C1594 C 0.04084 0.02246 0.65498 0.0
C1595 C 0.02866 0.04176 0.64432 0.0
C1596 C 0.03971 0.06584 0.64262 0.0
C1597 C 0.02745 -0.00225 0.65742 0.0
C1598 C 0.01942 0.98489 0.64063 0.0
C1599 C 0.01915 0.98898 0.67579 0.0
C1600 C 0.02703 0.00167 0.69403 0.0
C1601 C 0.01996 0.02709 0.69786 0.0
C1602 C 0.0277 0.03894 0.71507 0.0
C1603 C 0.04231 0.02546 0.72862 0.0
C1604 C 0.04913 8e-05 0.725 0.0
C1605 C 0.04146 0.98815 0.7078 0.0
H1606 H 0.04829 0.03467 0.74193 0.0
H1607 H 0.96421 0.92304 0.57623 0.0
H1608 H 0.59581 0.55291 0.34528 0.0
H1609 H 0.57588 0.51019 0.34546 0.0
H1610 H 0.51306 0.5399 0.37914 0.0
H1611 H 0.53253 0.58213 0.37892 0.0
H1612 H 0.53103 0.49279 0.3927 0.0
H1613 H 0.50798 0.53506 0.33089 0.0
H1614 H 0.51931 0.55366 0.29913 0.0
H1615 H 0.55601 0.48351 0.28273 0.0
H1616 H 0.54511 0.46462 0.31451 0.0
H1617 H 0.4079 0.45407 0.38106 0.0
H1618 H 0.45021 0.47309 0.38171 0.0
H1619 H 0.47822 0.41413 0.34346 0.0
H1620 H 0.43521 0.39491 0.34253 0.0
H1621 H 0.49236 0.46133 0.33145 0.0
H1622 H 0.50037 0.41563 0.39002 0.0
H1623 H 0.48748 0.39777 0.42164 0.0
H1624 H 0.47897 0.47354 0.44465 0.0
H1625 H 0.49149 0.49192 0.41313 0.0
C1626 C 0.57782 0.55017 0.35278 0.0
C1627 C 0.5656 0.57082 0.36197 0.0
C1628 C 0.56653 0.52584 0.3529 0.0
C1629 C 0.54308 0.52195 0.36239 0.0
C1630 C 0.53128 0.54246 0.37189 0.0
C1631 C 0.54233 0.56665 0.37161 0.0
C1632 C 0.52945 0.49719 0.3617 0.0
C1633 C 0.52277 0.4856 0.37933 0.0
C1634 C 0.51962 0.48723 0.34416 0.0
C1635 C 0.52605 0.49858 0.32511 0.0
C1636 C 0.51863 0.5237 0.32055 0.0
C1637 C 0.52494 0.53427 0.30255 0.0
C1638 C 0.53846 0.51981 0.28895 0.0
C1639 C 0.54561 0.49471 0.2933 0.0
C1640 C 0.53938 0.48407 0.31129 0.0
C1641 C 0.42304 0.44494 0.37288 0.0
C1642 C 0.41824 0.42303 0.36169 0.0
C1643 C 0.44734 0.45571 0.37343 0.0
C1644 C 0.46753 0.44472 0.36297 0.0
C1645 C 0.46294 0.42271 0.35182 0.0
C1646 C 0.43843 0.41181 0.35128 0.0
C1647 C 0.49252 0.45805 0.36262 0.0
C1648 C 0.50144 0.4675 0.34481 0.0
C1649 C 0.50443 0.46605 0.38005 0.0
C1650 C 0.497 0.45516 0.39917 0.0
C1651 C 0.49568 0.42851 0.4018 0.0
C1652 C 0.48846 0.41829 0.41972 0.0
C1653 C 0.48254 0.43451 0.43516 0.0
C1654 C 0.48372 0.461 0.4327 0.0
C1655 C 0.49096 0.47133 0.41482 0.0
H1656 H 0.47697 0.42656 0.44903 0.0
H1657 H 0.54332 0.52803 0.27502 0.0
H1658 H 0.02274 0.40897 0.85618 0.0
H1659 H 0.00455 0.4499 0.84672 0.0
H1660 H 0.08021 0.48056 0.83747 0.0
H1661 H 0.0988 0.43907 0.84679 0.0
H1662 H 0.04494 0.51163 0.86121 0.0
H1663 H 0.04969 0.47528 0.79871 0.0
H1664 H 0.0472 0.44101 0.77422 0.0
H1665 H 0.96664 0.43308 0.78468 0.0
H1666 H 0.96867 0.46698 0.80944 0.0
H1667 H 0.94268 0.60457 0.84647 0.0
H1668 H 0.98331 0.58359 0.83784 0.0
H1669 H 0.94694 0.50985 0.8437 0.0
H1670 H 0.90695 0.53035 0.85231 0.0
H1671 H 0.97759 0.51381 0.81053 0.0
H1672 H 0.97996 0.53491 0.88106 0.0
H1673 H 0.98118 0.56642 0.9077 0.0
H1674 H 0.04754 0.60166 0.88245 0.0
H1675 H 0.0465 0.57045 0.85556 0.0
C1676 C 0.03557 0.42434 0.8521 0.0
C1677 C 0.06216 0.42088 0.85222 0.0
C1678 C 0.02516 0.44766 0.84658 0.0
C1679 C 0.04108 0.46804 0.84116 0.0
C1680 C 0.06769 0.46489 0.84145 0.0
C1681 C 0.07821 0.44128 0.84677 0.0
C1682 C 0.0291 0.4927 0.83618 0.0
C1683 C 0.03089 0.51269 0.84965 0.0
C1684 C 0.0109 0.494 0.82105 0.0
C1685 C 0.00935 0.47381 0.80592 0.0
C1686 C 0.03145 0.46619 0.79583 0.0
C1687 C 0.03011 0.4468 0.78191 0.0
C1688 C 0.00677 0.4349 0.77788 0.0
C1689 C 0.9847 0.44237 0.78777 0.0
C1690 C 0.98592 0.46173 0.80172 0.0
C1691 C 0.94347 0.5839 0.84578 0.0
C1692 C 0.92177 0.56905 0.85017 0.0
C1693 C 0.96657 0.572 0.84081 0.0
C1694 C 0.96799 0.54522 0.84 0.0
C1695 C 0.94616 0.53056 0.84402 0.0
C1696 C 0.92336 0.54231 0.84913 0.0
C1697 C 0.99221 0.53154 0.83643 0.0
C1698 C 0.9927 0.51361 0.82132 0.0
C1699 C 0.01236 0.53203 0.85009 0.0
C1700 C 0.01297 0.55063 0.86624 0.0
C1701 C 0.99469 0.5495 0.88115 0.0
C1702 C 0.99536 0.56727 0.89629 0.0
C1703 C 0.01437 0.58609 0.89673 0.0
C1704 C 0.03279 0.58712 0.88206 0.0
C1705 C 0.03217 0.56941 0.86687 0.0
H1706 H 0.01487 0.59983 0.90846 0.0
H1707 H 0.00578 0.41988 0.76711 0.0
H1708 H 0.95647 0.90615 0.38771 0.0
H1709 H 0.97706 0.9478 0.38628 0.0
H1710 H 0.92186 0.97295 0.34385 0.0
H1711 H 0.90097 0.93077 0.34519 0.0
H1712 H 0.97133 0.98296 0.33284 0.0
H1713 H 0.92046 0.0007 0.38745 0.0
H1714 H 0.89915 0.99289 0.41877 0.0
H1715 H 0.97218 0.98658 0.44684 0.0
H1716 H 0.99397 0.99394 0.41565 0.0
H1717 H 0.06138 0.08835 0.34239 0.0
H1718 H 0.01912 0.06755 0.34198 0.0
H1719 H 0.0463 0.01124 0.38278 0.0
H1720 H 0.08816 0.03163 0.38319 0.0
H1721 H -0.00211 0.03009 0.39198 0.0
H1722 H 0.0457 -0.00165 0.33523 0.0
H1723 H 0.06738 0.00463 0.30381 0.0
H1724 H -0.00101 0.03759 0.28009 0.0
H1725 H 0.97702 0.03175 0.31149 0.0
C1726 C 0.94849 0.92058 0.37821 0.0
C1727 C 0.92716 0.91522 0.36653 0.0
C1728 C 0.96016 0.94448 0.37752 0.0
C1729 C 0.95074 0.96361 0.36518 0.0
C1730 C 0.92924 0.95849 0.3536 0.0
C1731 C 0.91736 0.93447 0.35439 0.0
C1732 C 0.96511 0.98792 0.36352 0.0
C1733 C 0.9765 0.99387 0.34565 0.0
C1734 C 0.97182 0.00214 0.38022 0.0
C1735 C 0.95886 -0.00211 0.39914 0.0
C1736 C 0.932 -0.00248 0.40027 0.0
C1737 C 0.91983 0.99318 0.41802 0.0
C1738 C 0.9343 0.98925 0.43479 0.0
C1739 C 0.96099 0.98968 0.43385 0.0
C1740 C 0.97326 0.994 0.41613 0.0
C1741 C 0.05821 0.07159 0.3513 0.0
C1742 C 0.07806 0.06148 0.36272 0.0
C1743 C 0.03412 0.0598 0.35107 0.0
C1744 C 0.02965 0.03793 0.36239 0.0
C1745 C 0.04933 0.02821 0.37406 0.0
C1746 C 0.07331 0.03977 0.37416 0.0
C1747 C 0.00512 0.02386 0.36163 0.0
C1748 C 0.99184 0.01993 0.37905 0.0
C1749 C -0.00335 0.01154 0.34454 0.0
C1750 C 0.00986 0.01495 0.32573 0.0
C1751 C 0.03537 0.00713 0.32335 0.0
C1752 C 0.04769 0.01057 0.30555 0.0
C1753 C 0.0346 0.02159 0.28998 0.0
C1754 C 0.00913 0.02912 0.29218 0.0
C1755 C -0.00326 0.02575 0.30996 0.0
H1756 H 0.04417 0.02423 0.27621 0.0
H1757 H 0.92484 0.98587 0.44851 0.0
H1758 H 0.54853 0.89344 0.83667 0.0
H1759 H 0.50465 0.90926 0.83182 0.0
H1760 H 0.52012 0.97179 0.87097 0.0
H1761 H 0.56351 0.95638 0.8757 0.0
H1762 H 0.47177 0.95032 0.87654 0.0
H1763 H 0.52866 0.9799 0.82297 0.0
H1764 H 0.55585 0.97099 0.7945 0.0
H1765 H 0.49387 0.93048 0.76742 0.0
H1766 H 0.46643 0.93898 0.79586 0.0
H1767 H 0.46095 0.07614 0.85653 0.0
H1768 H 0.47474 0.03214 0.85217 0.0
H1769 H 0.39816 0.01012 0.83594 0.0
H1770 H 0.38388 0.05462 0.84051 0.0
H1771 H 0.45808 0.9939 0.81349 0.0
H1772 H 0.39765 0.98041 0.86594 0.0
H1773 H 0.3742 0.99484 0.89498 0.0
H1774 H 0.44525 0.00762 0.92473 0.0
H1775 H 0.4691 0.99361 0.89576 0.0
C1776 C 0.54234 0.91037 0.84438 0.0
C1777 C 0.5594 0.92386 0.85642 0.0
C1778 C 0.51734 0.9193 0.84164 0.0
C1779 C 0.50917 0.94159 0.85113 0.0
C1780 C 0.52597 0.9544 0.86368 0.0
C1781 C 0.55085 0.94571 0.86623 0.0
C1782 C 0.48428 0.95367 0.8469 0.0
C1783 C 0.46813 0.95917 0.86258 0.0
C1784 C 0.47924 0.96476 0.82859 0.0
C1785 C 0.49566 0.95978 0.81156 0.0
C1786 C 0.52093 0.96897 0.81097 0.0
C1787 C 0.53636 0.96401 0.79486 0.0
C1788 C 0.52662 0.9501 0.77919 0.0
C1789 C 0.50141 0.94119 0.77959 0.0
C1790 C 0.48591 0.94606 0.79569 0.0
C1791 C 0.44699 0.06208 0.85188 0.0
C1792 C 0.4213 0.06876 0.849 0.0
C1793 C 0.45494 0.03698 0.84933 0.0
C1794 C 0.43742 0.01805 0.8438 0.0
C1795 C 0.41187 0.02461 0.84022 0.0
C1796 C 0.4038 0.04992 0.84286 0.0
C1797 C 0.44651 0.99143 0.84339 0.0
C1798 C 0.46013 0.98342 0.82699 0.0
C1799 C 0.44931 0.97808 0.86106 0.0
C1800 C 0.43512 0.986 0.87868 0.0
C1801 C 0.40825 0.98642 0.87865 0.0
C1802 C 0.39489 0.99451 0.8951 0.0
C1803 C 0.40822 0.00215 0.91169 0.0
C1804 C 0.43494 0.00166 0.91188 0.0
C1805 C 0.44839 0.99359 0.89546 0.0
H1806 H 0.39785 0.00844 0.9244 0.0
H1807 H 0.53859 0.94629 0.76672 0.0
loop_
_geom_bond_atom_site_label_1
_geom_bond_atom_site_label_2
_geom_bond_distance
_geom_bond_site_symmetry_2
_ccdc_geom_bond_type
In0 O1 2.294 . S
In0 O2 2.326 . S
In0 O6 2.266 . S
In0 O7 2.326 . S
In0 O8 2.266 . S
In0 O9 2.326 . S
In0 O11 2.294 . S
In0 O12 2.326 . S
O1 In0 2.294 . S
O1 C10 1.240 . S
O2 In0 2.326 . S
O2 C10 1.252 . S
C3 O6 1.252 . S
C3 O7 1.260 . S
C4 O11 1.240 . S
C4 O12 1.252 . S
C5 O8 1.252 . S
C5 O9 1.260 . S
O6 In0 2.266 . S
O6 C3 1.252 . S
O7 In0 2.326 . S
O7 C3 1.260 . S
O8 In0 2.266 . S
O8 C5 1.252 . S
O9 In0 2.326 . S
O9 C5 1.260 . S
C10 O1 1.240 . S
C10 O2 1.252 . S
O11 In0 2.294 . S
O11 C4 1.240 . S
O12 In0 2.326 . S
O12 C4 1.252 . S
In13 O14 2.294 . S
In13 O15 2.326 . S
In13 O19 2.266 . S
In13 O20 2.326 . S
In13 O21 2.266 . S
In13 O22 2.326 . S
In13 O24 2.294 . S
In13 O25 2.326 . S
O14 In13 2.294 . S
O14 C23 1.240 . S
O15 In13 2.326 . S
O15 C23 1.252 . S
C16 O19 1.252 . S
C16 O20 1.260 . S
C17 O24 1.240 . S
C17 O25 1.252 . S
C18 O21 1.252 . S
C18 O22 1.260 . S
O19 In13 2.266 . S
O19 C16 1.252 . S
O20 In13 2.326 . S
O20 C16 1.260 . S
O21 In13 2.266 . S
O21 C18 1.252 . S
O22 In13 2.326 . S
O22 C18 1.260 . S
C23 O14 1.240 . S
C23 O15 1.252 . S
O24 In13 2.294 . S
O24 C17 1.240 . S
O25 In13 2.326 . S
O25 C17 1.252 . S
In26 O27 2.294 . S
In26 O28 2.326 . S
In26 O32 2.266 . S
In26 O33 2.326 . S
In26 O34 2.266 . S
In26 O35 2.326 . S
In26 O37 2.294 . S
In26 O38 2.326 . S
O27 In26 2.294 . S
O27 C36 1.240 . S
O28 In26 2.326 . S
O28 C36 1.252 . S
C29 O32 1.252 . S
C29 O33 1.260 . S
C30 O37 1.240 . S
C30 O38 1.252 . S
C31 O34 1.252 . S
C31 O35 1.260 . S
O32 In26 2.266 . S
O32 C29 1.252 . S
O33 In26 2.326 . S
O33 C29 1.260 . S
O34 In26 2.266 . S
O34 C31 1.252 . S
O35 In26 2.326 . S
O35 C31 1.260 . S
C36 O27 1.240 . S
C36 O28 1.252 . S
O37 In26 2.294 . S
O37 C30 1.240 . S
O38 In26 2.326 . S
O38 C30 1.252 . S
In39 O40 2.294 . S
In39 O41 2.326 . S
In39 O45 2.266 . S
In39 O46 2.326 . S
In39 O47 2.266 . S
In39 O48 2.326 . S
In39 O50 2.294 . S
In39 O51 2.326 . S
O40 In39 2.294 . S
O40 C49 1.240 . S
O41 In39 2.326 . S
O41 C49 1.252 . S
C42 O45 1.252 . S
C42 O46 1.260 . S
C43 O50 1.240 . S
C43 O51 1.252 . S
C44 O47 1.252 . S
C44 O48 1.260 . S
O45 In39 2.266 . S
O45 C42 1.252 . S
O46 In39 2.326 . S
O46 C42 1.260 . S
O47 In39 2.266 . S
O47 C44 1.252 . S
O48 In39 2.326 . S
O48 C44 1.260 . S
C49 O40 1.240 . S
C49 O41 1.252 . S
O50 In39 2.294 . S
O50 C43 1.240 . S
O51 In39 2.326 . S
O51 C43 1.252 . S
In52 O53 2.294 . S
In52 O54 2.326 . S
In52 O58 2.266 . S
In52 O59 2.326 . S
In52 O60 2.266 . S
In52 O61 2.326 . S
In52 O63 2.294 . S
In52 O64 2.326 . S
O53 In52 2.294 . S
O53 C62 1.240 . S
O54 In52 2.326 . S
O54 C62 1.252 . S
C55 O58 1.252 . S
C55 O59 1.260 . S
C56 O63 1.240 . S
C56 O64 1.252 . S
C57 O60 1.252 . S
C57 O61 1.260 . S
O58 In52 2.266 . S
O58 C55 1.252 . S
O59 In52 2.326 . S
O59 C55 1.260 . S
O60 In52 2.266 . S
O60 C57 1.252 . S
O61 In52 2.326 . S
O61 C57 1.260 . S
C62 O53 1.240 . S
C62 O54 1.252 . S
O63 In52 2.294 . S
O63 C56 1.240 . S
O64 In52 2.326 . S
O64 C56 1.252 . S
In65 O66 2.294 . S
In65 O67 2.326 . S
In65 O71 2.266 . S
In65 O72 2.326 . S
In65 O73 2.266 . S
In65 O74 2.326 . S
In65 O76 2.294 . S
In65 O77 2.326 . S
O66 In65 2.294 . S
O66 C75 1.240 . S
O67 In65 2.326 . S
O67 C75 1.252 . S
C68 O71 1.252 . S
C68 O72 1.260 . S
C69 O76 1.240 . S
C69 O77 1.252 . S
C70 O73 1.252 . S
C70 O74 1.260 . S
O71 In65 2.266 . S
O71 C68 1.252 . S
O72 In65 2.326 . S
O72 C68 1.260 . S
O73 In65 2.266 . S
O73 C70 1.252 . S
O74 In65 2.326 . S
O74 C70 1.260 . S
C75 O66 1.240 . S
C75 O67 1.252 . S
O76 In65 2.294 . S
O76 C69 1.240 . S
O77 In65 2.326 . S
O77 C69 1.252 . S
In78 O79 2.294 . S
In78 O80 2.326 . S
In78 O84 2.266 . S
In78 O85 2.326 . S
In78 O86 2.266 . S
In78 O87 2.326 . S
In78 O89 2.294 . S
In78 O90 2.326 . S
O79 In78 2.294 . S
O79 C88 1.240 . S
O80 In78 2.326 . S
O80 C88 1.252 . S
C81 O84 1.252 . S
C81 O85 1.260 . S
C82 O89 1.240 . S
C82 O90 1.252 . S
C83 O86 1.252 . S
C83 O87 1.260 . S
O84 In78 2.266 . S
O84 C81 1.252 . S
O85 In78 2.326 . S
O85 C81 1.260 . S
O86 In78 2.266 . S
O86 C83 1.252 . S
O87 In78 2.326 . S
O87 C83 1.260 . S
C88 O79 1.240 . S
C88 O80 1.252 . S
O89 In78 2.294 . S
O89 C82 1.240 . S
O90 In78 2.326 . S
O90 C82 1.252 . S
In91 O92 2.294 . S
In91 O93 2.326 . S
In91 O97 2.266 . S
In91 O98 2.326 . S
In91 O99 2.266 . S
In91 O100 2.326 . S
In91 O102 2.294 . S
In91 O103 2.326 . S
O92 In91 2.294 . S
O92 C101 1.240 . S
O93 In91 2.326 . S
O93 C101 1.252 . S
C94 O97 1.252 . S
C94 O98 1.260 . S
C95 O102 1.240 . S
C95 O103 1.252 . S
C96 O99 1.252 . S
C96 O100 1.260 . S
O97 In91 2.266 . S
O97 C94 1.252 . S
O98 In91 2.326 . S
O98 C94 1.260 . S
O99 In91 2.266 . S
O99 C96 1.252 . S
O100 In91 2.326 . S
O100 C96 1.260 . S
C101 O92 1.240 . S
C101 O93 1.252 . S
O102 In91 2.294 . S
O102 C95 1.240 . S
O103 In91 2.326 . S
O103 C95 1.252 . S
In104 O105 2.294 . S
In104 O106 2.326 . S
In104 O110 2.266 . S
In104 O111 2.326 . S
In104 O112 2.266 . S
In104 O113 2.326 . S
In104 O115 2.294 . S
In104 O116 2.326 . S
O105 In104 2.294 . S
O105 C114 1.240 . S
O106 In104 2.326 . S
O106 C114 1.252 . S
C107 O110 1.252 . S
C107 O111 1.260 . S
C108 O115 1.240 . S
C108 O116 1.252 . S
C109 O112 1.252 . S
C109 O113 1.260 . S
O110 In104 2.266 . S
O110 C107 1.252 . S
O111 In104 2.326 . S
O111 C107 1.260 . S
O112 In104 2.266 . S
O112 C109 1.252 . S
O113 In104 2.326 . S
O113 C109 1.260 . S
C114 O105 1.240 . S
C114 O106 1.252 . S
O115 In104 2.294 . S
O115 C108 1.240 . S
O116 In104 2.326 . S
O116 C108 1.252 . S
In117 O118 2.294 . S
In117 O119 2.326 . S
In117 O123 2.266 . S
In117 O124 2.326 . S
In117 O125 2.266 . S
In117 O126 2.326 . S
In117 O128 2.294 . S
In117 O129 2.326 . S
O118 In117 2.294 . S
O118 C127 1.240 . S
O119 In117 2.326 . S
O119 C127 1.252 . S
C120 O123 1.252 . S
C120 O124 1.260 . S
C121 O128 1.240 . S
C121 O129 1.252 . S
C122 O125 1.252 . S
C122 O126 1.260 . S
O123 In117 2.266 . S
O123 C120 1.252 . S
O124 In117 2.326 . S
O124 C120 1.260 . S
O125 In117 2.266 . S
O125 C122 1.252 . S
O126 In117 2.326 . S
O126 C122 1.260 . S
C127 O118 1.240 . S
C127 O119 1.252 . S
O128 In117 2.294 . S
O128 C121 1.240 . S
O129 In117 2.326 . S
O129 C121 1.252 . S
In130 O131 2.294 . S
In130 O132 2.326 . S
In130 O136 2.266 . S
In130 O137 2.326 . S
In130 O138 2.266 . S
In130 O139 2.326 . S
In130 O141 2.294 . S
In130 O142 2.326 . S
O131 In130 2.294 . S
O131 C140 1.240 . S
O132 In130 2.326 . S
O132 C140 1.252 . S
C133 O136 1.252 . S
C133 O137 1.260 . S
C134 O141 1.240 . S
C134 O142 1.252 . S
C135 O138 1.252 . S
C135 O139 1.260 . S
O136 In130 2.266 . S
O136 C133 1.252 . S
O137 In130 2.326 . S
O137 C133 1.260 . S
O138 In130 2.266 . S
O138 C135 1.252 . S
O139 In130 2.326 . S
O139 C135 1.260 . S
C140 O131 1.240 . S
C140 O132 1.252 . S
O141 In130 2.294 . S
O141 C134 1.240 . S
O142 In130 2.326 . S
O142 C134 1.252 . S
In143 O144 2.294 . S
In143 O145 2.326 . S
In143 O149 2.266 . S
In143 O150 2.326 . S
In143 O151 2.266 . S
In143 O152 2.326 . S
In143 O154 2.294 . S
In143 O155 2.326 . S
O144 In143 2.294 . S
O144 C153 1.240 . S
O145 In143 2.326 . S
O145 C153 1.252 . S
C146 O149 1.252 . S
C146 O150 1.260 . S
C147 O154 1.240 . S
C147 O155 1.252 . S
C148 O151 1.252 . S
C148 O152 1.260 . S
O149 In143 2.266 . S
O149 C146 1.252 . S
O150 In143 2.326 . S
O150 C146 1.260 . S
O151 In143 2.266 . S
O151 C148 1.252 . S
O152 In143 2.326 . S
O152 C148 1.260 . S
C153 O144 1.240 . S
C153 O145 1.252 . S
O154 In143 2.294 . S
O154 C147 1.240 . S
O155 In143 2.326 . S
O155 C147 1.252 . S
In156 O157 2.294 . S
In156 O158 2.326 . S
In156 O162 2.266 . S
In156 O163 2.326 . S
In156 O164 2.266 . S
In156 O165 2.326 . S
In156 O167 2.294 . S
In156 O168 2.326 . S
O157 In156 2.294 . S
O157 C166 1.240 . S
O158 In156 2.326 . S
O158 C166 1.252 . S
C159 O162 1.252 . S
C159 O163 1.260 . S
C160 O167 1.240 . S
C160 O168 1.252 . S
C161 O164 1.252 . S
C161 O165 1.260 . S
O162 In156 2.266 . S
O162 C159 1.252 . S
O163 In156 2.326 . S
O163 C159 1.260 . S
O164 In156 2.266 . S
O164 C161 1.252 . S
O165 In156 2.326 . S
O165 C161 1.260 . S
C166 O157 1.240 . S
C166 O158 1.252 . S
O167 In156 2.294 . S
O167 C160 1.240 . S
O168 In156 2.326 . S
O168 C160 1.252 . S
In169 O170 2.294 . S
In169 O171 2.326 . S
In169 O175 2.266 . S
In169 O176 2.326 . S
In169 O177 2.266 . S
In169 O178 2.326 . S
In169 O180 2.294 . S
In169 O181 2.326 . S
O170 In169 2.294 . S
O170 C179 1.240 . S
O171 In169 2.326 . S
O171 C179 1.252 . S
C172 O175 1.252 . S
C172 O176 1.260 . S
C173 O180 1.240 . S
C173 O181 1.252 . S
C174 O177 1.252 . S
C174 O178 1.260 . S
O175 In169 2.266 . S
O175 C172 1.252 . S
O176 In169 2.326 . S
O176 C172 1.260 . S
O177 In169 2.266 . S
O177 C174 1.252 . S
O178 In169 2.326 . S
O178 C174 1.260 . S
C179 O170 1.240 . S
C179 O171 1.252 . S
O180 In169 2.294 . S
O180 C173 1.240 . S
O181 In169 2.326 . S
O181 C173 1.252 . S
In182 O183 2.294 . S
In182 O184 2.326 . S
In182 O188 2.266 . S
In182 O189 2.326 . S
In182 O190 2.266 . S
In182 O191 2.326 . S
In182 O193 2.294 . S
In182 O194 2.326 . S
O183 In182 2.294 . S
O183 C192 1.240 . S
O184 In182 2.326 . S
O184 C192 1.252 . S
C185 O188 1.252 . S
C185 O189 1.260 . S
C186 O193 1.240 . S
C186 O194 1.252 . S
C187 O190 1.252 . S
C187 O191 1.260 . S
O188 In182 2.266 . S
O188 C185 1.252 . S
O189 In182 2.326 . S
O189 C185 1.260 . S
O190 In182 2.266 . S
O190 C187 1.252 . S
O191 In182 2.326 . S
O191 C187 1.260 . S
C192 O183 1.240 . S
C192 O184 1.252 . S
O193 In182 2.294 . S
O193 C186 1.240 . S
O194 In182 2.326 . S
O194 C186 1.252 . S
In195 O196 2.294 . S
In195 O197 2.326 . S
In195 O201 2.266 . S
In195 O202 2.326 . S
In195 O203 2.266 . S
In195 O204 2.326 . S
In195 O206 2.294 . S
In195 O207 2.326 . S
O196 In195 2.294 . S
O196 C205 1.240 . S
O197 In195 2.326 . S
O197 C205 1.252 . S
C198 O201 1.252 . S
C198 O202 1.260 . S
C199 O206 1.240 . S
C199 O207 1.252 . S
C200 O203 1.252 . S
C200 O204 1.260 . S
O201 In195 2.266 . S
O201 C198 1.252 . S
O202 In195 2.326 . S
O202 C198 1.260 . S
O203 In195 2.266 . S
O203 C200 1.252 . S
O204 In195 2.326 . S
O204 C200 1.260 . S
C205 O196 1.240 . S
C205 O197 1.252 . S
O206 In195 2.294 . S
O206 C199 1.240 . S
O207 In195 2.326 . S
O207 C199 1.252 . S
H208 C226 0.951 . S
H209 C228 0.951 . S
H210 C230 0.950 . S
H211 C231 0.950 . S
H212 C233 0.950 . S
H213 C236 0.950 . S
H214 C237 0.950 . S
H215 C239 0.950 . S
H216 C240 0.950 . S
H217 C241 0.951 . S
H218 C243 0.951 . S
H219 C245 0.950 . S
H220 C246 0.950 . S
H221 C248 0.950 . S
H222 C251 0.950 . S
H223 C252 0.950 . S
H224 C254 0.950 . S
H225 C255 0.950 . S
C226 H208 0.951 . S
C226 C227 1.366 . S
C226 C228 1.388 . S
C227 C226 1.366 . S
C227 C231 1.385 . S
C228 H209 0.951 . S
C228 C226 1.388 . S
C228 C229 1.366 . S
C229 C228 1.366 . S
C229 C230 1.414 . S
C229 C232 1.499 . S
C230 H210 0.950 . S
C230 C229 1.414 . S
C230 C231 1.374 . S
C231 H211 0.950 . S
C231 C227 1.385 . S
C231 C230 1.374 . S
C232 C229 1.499 . S
C232 C233 1.373 . S
C232 C234 1.389 . S
C233 H212 0.950 . S
C233 C232 1.373 . S
C233 C249 1.377 1_556 S
C234 C232 1.389 . S
C234 C235 1.524 . S
C234 C248 1.377 1_556 S
C235 C234 1.524 . S
C235 C236 1.397 . S
C235 C240 1.363 . S
C236 H213 0.950 . S
C236 C235 1.397 . S
C236 C237 1.334 . S
C237 H214 0.950 . S
C237 C236 1.334 . S
C237 C238 1.287 . S
C238 C237 1.287 . S
C238 C239 1.524 . S
C238 H257 0.913 . S
C239 H215 0.950 . S
C239 C238 1.524 . S
C239 C240 1.415 . S
C240 H216 0.950 . S
C240 C235 1.363 . S
C240 C239 1.415 . S
C241 H217 0.951 . S
C241 C242 1.366 . S
C241 C243 1.388 . S
C242 C241 1.366 . S
C242 C246 1.385 . S
C243 H218 0.951 . S
C243 C241 1.388 . S
C243 C244 1.366 . S
C244 C243 1.366 . S
C244 C245 1.414 . S
C244 C247 1.499 . S
C245 H219 0.950 . S
C245 C244 1.414 . S
C245 C246 1.374 . S
C246 H220 0.950 . S
C246 C242 1.385 . S
C246 C245 1.374 . S
C247 C244 1.499 . S
C247 C248 1.373 . S
C247 C249 1.389 . S
C248 H221 0.950 . S
C248 C234 1.377 1_554 S
C248 C247 1.373 . S
C249 C233 1.377 1_554 S
C249 C247 1.389 . S
C249 C250 1.524 . S
C250 C249 1.524 . S
C250 C251 1.397 . S
C250 C255 1.363 . S
C251 H222 0.950 . S
C251 C250 1.397 . S
C251 C252 1.334 . S
C252 H223 0.950 . S
C252 C251 1.334 . S
C252 C253 1.287 . S
C253 C252 1.287 . S
C253 C254 1.524 . S
C253 H256 0.999 . S
C254 H224 0.950 . S
C254 C253 1.524 . S
C254 C255 1.415 . S
C255 H225 0.950 . S
C255 C250 1.363 . S
C255 C254 1.415 . S
H256 C253 0.999 . S
H257 C238 0.913 . S
H258 C276 0.951 . S
H259 C278 0.951 . S
H260 C280 0.950 . S
H261 C281 0.950 . S
H262 C283 0.950 . S
H263 C286 0.950 . S
H264 C287 0.950 . S
H265 C289 0.950 . S
H266 C290 0.950 . S
H267 C291 0.951 . S
H268 C293 0.951 . S
H269 C295 0.950 . S
H270 C296 0.950 . S
H271 C298 0.950 . S
H272 C301 0.950 . S
H273 C302 0.950 . S
H274 C304 0.950 . S
H275 C305 0.950 . S
C276 H258 0.951 . S
C276 C277 1.366 . S
C276 C278 1.388 . S
C277 C276 1.366 . S
C277 C281 1.385 . S
C278 H259 0.951 . S
C278 C276 1.388 . S
C278 C279 1.366 . S
C279 C278 1.366 . S
C279 C280 1.414 . S
C279 C282 1.499 . S
C280 H260 0.950 . S
C280 C279 1.414 . S
C280 C281 1.374 . S
C281 H261 0.950 . S
C281 C277 1.385 . S
C281 C280 1.374 . S
C282 C279 1.499 . S
C282 C283 1.373 . S
C282 C284 1.389 . S
C283 H262 0.950 . S
C283 C282 1.373 . S
C283 C299 1.377 . S
C284 C282 1.389 . S
C284 C285 1.524 . S
C284 C298 1.377 . S
C285 C284 1.524 . S
C285 C286 1.397 . S
C285 C290 1.363 . S
C286 H263 0.950 . S
C286 C285 1.397 . S
C286 C287 1.334 . S
C287 H264 0.950 . S
C287 C286 1.334 . S
C287 C288 1.287 . S
C288 C287 1.287 . S
C288 C289 1.524 . S
C288 H307 0.913 . S
C289 H265 0.950 . S
C289 C288 1.524 . S
C289 C290 1.415 . S
C290 H266 0.950 . S
C290 C285 1.363 . S
C290 C289 1.415 . S
C291 H267 0.951 . S
C291 C292 1.366 . S
C291 C293 1.388 . S
C292 C291 1.366 . S
C292 C296 1.385 . S
C293 H268 0.951 . S
C293 C291 1.388 . S
C293 C294 1.366 . S
C294 C293 1.366 . S
C294 C295 1.414 . S
C294 C297 1.499 . S
C295 H269 0.950 . S
C295 C294 1.414 . S
C295 C296 1.374 . S
C296 H270 0.950 . S
C296 C292 1.385 . S
C296 C295 1.374 . S
C297 C294 1.499 . S
C297 C298 1.373 . S
C297 C299 1.389 . S
C298 H271 0.950 . S
C298 C284 1.377 . S
C298 C297 1.373 . S
C299 C283 1.377 . S
C299 C297 1.389 . S
C299 C300 1.524 . S
C300 C299 1.524 . S
C300 C301 1.397 . S
C300 C305 1.363 . S
C301 H272 0.950 . S
C301 C300 1.397 . S
C301 C302 1.334 . S
C302 H273 0.950 . S
C302 C301 1.334 . S
C302 C303 1.287 . S
C303 C302 1.287 . S
C303 C304 1.524 . S
C303 H306 0.999 . S
C304 H274 0.950 . S
C304 C303 1.524 . S
C304 C305 1.415 . S
C305 H275 0.950 . S
C305 C300 1.363 . S
C305 C304 1.415 . S
H306 C303 0.999 . S
H307 C288 0.913 . S
H308 C326 0.951 . S
H309 C328 0.951 . S
H310 C330 0.950 . S
H311 C331 0.950 . S
H312 C333 0.950 . S
H313 C336 0.950 . S
H314 C337 0.950 . S
H315 C339 0.950 . S
H316 C340 0.950 . S
H317 C341 0.951 . S
H318 C343 0.951 . S
H319 C345 0.950 . S
H320 C346 0.950 . S
H321 C348 0.950 . S
H322 C351 0.950 . S
H323 C352 0.950 . S
H324 C354 0.950 . S
H325 C355 0.950 . S
C326 H308 0.951 . S
C326 C327 1.366 . S
C326 C328 1.388 . S
C327 C326 1.366 . S
C327 C331 1.385 . S
C328 H309 0.951 . S
C328 C326 1.388 . S
C328 C329 1.366 . S
C329 C328 1.366 . S
C329 C330 1.414 . S
C329 C332 1.499 . S
C330 H310 0.950 . S
C330 C329 1.414 . S
C330 C331 1.374 . S
C331 H311 0.950 . S
C331 C327 1.385 . S
C331 C330 1.374 . S
C332 C329 1.499 . S
C332 C333 1.373 . S
C332 C334 1.389 . S
C333 H312 0.950 . S
C333 C332 1.373 . S
C333 C349 1.377 1_556 S
C334 C332 1.389 . S
C334 C335 1.524 . S
C334 C348 1.377 1_556 S
C335 C334 1.524 . S
C335 C336 1.397 . S
C335 C340 1.363 1_556 S
C336 H313 0.950 . S
C336 C335 1.397 . S
C336 C337 1.334 . S
C337 H314 0.950 . S
C337 C336 1.334 . S
C337 C338 1.287 . S
C338 C337 1.287 . S
C338 C339 1.524 1_556 S
C338 H357 0.913 . S
C339 H315 0.950 . S
C339 C338 1.524 1_554 S
C339 C340 1.415 . S
C340 H316 0.950 . S
C340 C335 1.363 1_554 S
C340 C339 1.415 . S
C341 H317 0.951 . S
C341 C342 1.366 . S
C341 C343 1.388 . S
C342 C341 1.366 . S
C342 C346 1.385 . S
C343 H318 0.951 . S
C343 C341 1.388 . S
C343 C344 1.366 . S
C344 C343 1.366 . S
C344 C345 1.414 . S
C344 C347 1.499 . S
C345 H319 0.950 . S
C345 C344 1.414 . S
C345 C346 1.374 . S
C346 H320 0.950 . S
C346 C342 1.385 . S
C346 C345 1.374 . S
C347 C344 1.499 . S
C347 C348 1.373 . S
C347 C349 1.389 . S
C348 H321 0.950 . S
C348 C334 1.377 1_554 S
C348 C347 1.373 . S
C349 C333 1.377 1_554 S
C349 C347 1.389 . S
C349 C350 1.524 . S
C350 C349 1.524 . S
C350 C351 1.397 . S
C350 C355 1.363 1_554 S
C351 H322 0.950 . S
C351 C350 1.397 . S
C351 C352 1.334 . S
C352 H323 0.950 . S
C352 C351 1.334 . S
C352 C353 1.287 . S
C353 C352 1.287 . S
C353 C354 1.524 1_554 S
C353 H356 0.999 . S
C354 H324 0.950 . S
C354 C353 1.524 1_556 S
C354 C355 1.415 . S
C355 H325 0.950 . S
C355 C350 1.363 1_556 S
C355 C354 1.415 . S
H356 C353 0.999 . S
H357 C338 0.913 . S
H358 C376 0.951 . S
H359 C378 0.951 . S
H360 C380 0.950 . S
H361 C381 0.950 . S
H362 C383 0.950 . S
H363 C386 0.950 . S
H364 C387 0.950 . S
H365 C389 0.950 . S
H366 C390 0.950 . S
H367 C391 0.951 . S
H368 C393 0.951 . S
H369 C395 0.950 . S
H370 C396 0.950 . S
H371 C398 0.950 . S
H372 C401 0.950 . S
H373 C402 0.950 . S
H374 C404 0.950 . S
H375 C405 0.950 . S
C376 H358 0.951 . S
C376 C377 1.366 . S
C376 C378 1.388 . S
C377 C376 1.366 . S
C377 C381 1.385 . S
C378 H359 0.951 . S
C378 C376 1.388 . S
C378 C379 1.366 . S
C379 C378 1.366 . S
C379 C380 1.414 . S
C379 C382 1.499 . S
C380 H360 0.950 . S
C380 C379 1.414 . S
C380 C381 1.374 . S
C381 H361 0.950 . S
C381 C377 1.385 . S
C381 C380 1.374 . S
C382 C379 1.499 . S
C382 C383 1.373 . S
C382 C384 1.389 . S
C383 H362 0.950 . S
C383 C382 1.373 . S
C383 C399 1.377 . S
C384 C382 1.389 . S
C384 C385 1.524 . S
C384 C398 1.377 . S
C385 C384 1.524 . S
C385 C386 1.397 . S
C385 C390 1.363 . S
C386 H363 0.950 . S
C386 C385 1.397 . S
C386 C387 1.334 . S
C387 H364 0.950 . S
C387 C386 1.334 . S
C387 C388 1.287 . S
C388 C387 1.287 . S
C388 C389 1.524 . S
C388 H407 0.913 . S
C389 H365 0.950 . S
C389 C388 1.524 . S
C389 C390 1.415 . S
C390 H366 0.950 . S
C390 C385 1.363 . S
C390 C389 1.415 . S
C391 H367 0.951 . S
C391 C392 1.366 . S
C391 C393 1.388 . S
C392 C391 1.366 . S
C392 C396 1.385 . S
C393 H368 0.951 . S
C393 C391 1.388 . S
C393 C394 1.366 . S
C394 C393 1.366 . S
C394 C395 1.414 . S
C394 C397 1.499 . S
C395 H369 0.950 . S
C395 C394 1.414 . S
C395 C396 1.374 . S
C396 H370 0.950 . S
C396 C392 1.385 . S
C396 C395 1.374 . S
C397 C394 1.499 . S
C397 C398 1.373 . S
C397 C399 1.389 . S
C398 H371 0.950 . S
C398 C384 1.377 . S
C398 C397 1.373 . S
C399 C383 1.377 . S
C399 C397 1.389 . S
C399 C400 1.524 . S
C400 C399 1.524 . S
C400 C401 1.397 . S
C400 C405 1.363 . S
C401 H372 0.950 . S
C401 C400 1.397 . S
C401 C402 1.334 . S
C402 H373 0.950 . S
C402 C401 1.334 . S
C402 C403 1.287 . S
C403 C402 1.287 . S
C403 C404 1.524 . S
C403 H406 0.999 . S
C404 H374 0.950 . S
C404 C403 1.524 . S
C404 C405 1.415 . S
C405 H375 0.950 . S
C405 C400 1.363 . S
C405 C404 1.415 . S
H406 C403 0.999 . S
H407 C388 0.913 . S
H408 C426 0.951 . S
H409 C428 0.951 . S
H410 C430 0.950 . S
H411 C431 0.950 . S
H412 C433 0.950 . S
H413 C436 0.950 . S
H414 C437 0.950 . S
H415 C439 0.950 . S
H416 C440 0.950 . S
H417 C441 0.951 . S
H418 C443 0.951 . S
H419 C445 0.950 . S
H420 C446 0.950 . S
H421 C448 0.950 . S
H422 C451 0.950 . S
H423 C452 0.950 . S
H424 C454 0.950 . S
H425 C455 0.950 . S
C426 H408 0.951 . S
C426 C427 1.366 . S
C426 C428 1.388 . S
C427 C426 1.366 . S
C427 C431 1.385 . S
C428 H409 0.951 . S
C428 C426 1.388 . S
C428 C429 1.366 . S
C429 C428 1.366 . S
C429 C430 1.414 . S
C429 C432 1.499 . S
C430 H410 0.950 . S
C430 C429 1.414 . S
C430 C431 1.374 . S
C431 H411 0.950 . S
C431 C427 1.385 . S
C431 C430 1.374 . S
C432 C429 1.499 . S
C432 C433 1.373 . S
C432 C434 1.389 . S
C433 H412 0.950 . S
C433 C432 1.373 . S
C433 C449 1.377 1_554 S
C434 C432 1.389 . S
C434 C435 1.524 . S
C434 C448 1.377 1_554 S
C435 C434 1.524 . S
C435 C436 1.397 . S
C435 C440 1.363 1_554 S
C436 H413 0.950 . S
C436 C435 1.397 . S
C436 C437 1.334 . S
C437 H414 0.950 . S
C437 C436 1.334 . S
C437 C438 1.287 . S
C438 C437 1.287 . S
C438 C439 1.524 1_554 S
C438 H457 0.913 . S
C439 H415 0.950 . S
C439 C438 1.524 1_556 S
C439 C440 1.415 . S
C440 H416 0.950 . S
C440 C435 1.363 1_556 S
C440 C439 1.415 . S
C441 H417 0.951 . S
C441 C442 1.366 . S
C441 C443 1.388 . S
C442 C441 1.366 . S
C442 C446 1.385 . S
C443 H418 0.951 . S
C443 C441 1.388 . S
C443 C444 1.366 . S
C444 C443 1.366 . S
C444 C445 1.414 . S
C444 C447 1.499 . S
C445 H419 0.950 . S
C445 C444 1.414 . S
C445 C446 1.374 . S
C446 H420 0.950 . S
C446 C442 1.385 . S
C446 C445 1.374 . S
C447 C444 1.499 . S
C447 C448 1.373 . S
C447 C449 1.389 . S
C448 H421 0.950 . S
C448 C434 1.377 1_556 S
C448 C447 1.373 . S
C449 C433 1.377 1_556 S
C449 C447 1.389 . S
C449 C450 1.524 . S
C450 C449 1.524 . S
C450 C451 1.397 . S
C450 C455 1.363 1_556 S
C451 H422 0.950 . S
C451 C450 1.397 . S
C451 C452 1.334 . S
C452 H423 0.950 . S
C452 C451 1.334 . S
C452 C453 1.287 . S
C453 C452 1.287 . S
C453 C454 1.524 1_556 S
C453 H456 0.999 . S
C454 H424 0.950 . S
C454 C453 1.524 1_554 S
C454 C455 1.415 . S
C455 H425 0.950 . S
C455 C450 1.363 1_554 S
C455 C454 1.415 . S
H456 C453 0.999 . S
H457 C438 0.913 . S
H458 C476 0.951 . S
H459 C478 0.951 . S
H460 C480 0.950 . S
H461 C481 0.950 . S
H462 C483 0.950 . S
H463 C486 0.950 . S
H464 C487 0.950 . S
H465 C489 0.950 . S
H466 C490 0.950 . S
H467 C491 0.951 . S
H468 C493 0.951 . S
H469 C495 0.950 . S
H470 C496 0.950 . S
H471 C498 0.950 . S
H472 C501 0.950 . S
H473 C502 0.950 . S
H474 C504 0.950 . S
H475 C505 0.950 . S
C476 H458 0.951 . S
C476 C477 1.366 . S
C476 C478 1.388 . S
C477 C476 1.366 . S
C477 C481 1.385 . S
C478 H459 0.951 . S
C478 C476 1.388 . S
C478 C479 1.366 . S
C479 C478 1.366 . S
C479 C480 1.414 . S
C479 C482 1.499 . S
C480 H460 0.950 . S
C480 C479 1.414 . S
C480 C481 1.374 . S
C481 H461 0.950 . S
C481 C477 1.385 . S
C481 C480 1.374 . S
C482 C479 1.499 . S
C482 C483 1.373 . S
C482 C484 1.389 . S
C483 H462 0.950 . S
C483 C482 1.373 . S
C483 C499 1.377 . S
C484 C482 1.389 . S
C484 C485 1.524 . S
C484 C498 1.377 . S
C485 C484 1.524 . S
C485 C486 1.397 . S
C485 C490 1.363 . S
C486 H463 0.950 . S
C486 C485 1.397 . S
C486 C487 1.334 . S
C487 H464 0.950 . S
C487 C486 1.334 . S
C487 C488 1.287 . S
C488 C487 1.287 . S
C488 C489 1.524 . S
C488 H507 0.913 . S
C489 H465 0.950 . S
C489 C488 1.524 . S
C489 C490 1.415 . S
C490 H466 0.950 . S
C490 C485 1.363 . S
C490 C489 1.415 . S
C491 H467 0.951 . S
C491 C492 1.366 . S
C491 C493 1.388 . S
C492 C491 1.366 . S
C492 C496 1.385 . S
C493 H468 0.951 . S
C493 C491 1.388 . S
C493 C494 1.366 . S
C494 C493 1.366 . S
C494 C495 1.414 . S
C494 C497 1.499 . S
C495 H469 0.950 . S
C495 C494 1.414 . S
C495 C496 1.374 . S
C496 H470 0.950 . S
C496 C492 1.385 . S
C496 C495 1.374 . S
C497 C494 1.499 . S
C497 C498 1.373 . S
C497 C499 1.389 . S
C498 H471 0.950 . S
C498 C484 1.377 . S
C498 C497 1.373 . S
C499 C483 1.377 . S
C499 C497 1.389 . S
C499 C500 1.524 . S
C500 C499 1.524 . S
C500 C501 1.397 . S
C500 C505 1.363 . S
C501 H472 0.950 . S
C501 C500 1.397 . S
C501 C502 1.334 . S
C502 H473 0.950 . S
C502 C501 1.334 . S
C502 C503 1.287 . S
C503 C502 1.287 . S
C503 C504 1.524 . S
C503 H506 0.999 . S
C504 H474 0.950 . S
C504 C503 1.524 . S
C504 C505 1.415 . S
C505 H475 0.950 . S
C505 C500 1.363 . S
C505 C504 1.415 . S
H506 C503 0.999 . S
H507 C488 0.913 . S
H508 C526 0.951 . S
H509 C528 0.951 . S
H510 C530 0.950 . S
H511 C531 0.950 . S
H512 C533 0.950 . S
H513 C536 0.950 . S
H514 C537 0.950 . S
H515 C539 0.950 . S
H516 C540 0.950 1_554 S
H517 C541 0.951 . S
H518 C543 0.951 . S
H519 C545 0.950 . S
H520 C546 0.950 . S
H521 C548 0.950 . S
H522 C551 0.950 . S
H523 C552 0.950 . S
H524 C554 0.950 . S
H525 C555 0.950 1_556 S
C526 H508 0.951 . S
C526 C527 1.366 . S
C526 C528 1.388 . S
C527 C526 1.366 . S
C527 C531 1.385 . S
C528 H509 0.951 . S
C528 C526 1.388 . S
C528 C529 1.366 . S
C529 C528 1.366 . S
C529 C530 1.414 . S
C529 C532 1.499 . S
C530 H510 0.950 . S
C530 C529 1.414 . S
C530 C531 1.374 . S
C531 H511 0.950 . S
C531 C527 1.385 . S
C531 C530 1.374 . S
C532 C529 1.499 . S
C532 C533 1.373 . S
C532 C534 1.389 . S
C533 H512 0.950 . S
C533 C532 1.373 . S
C533 C549 1.377 1_556 S
C534 C532 1.389 . S
C534 C535 1.524 . S
C534 C548 1.377 1_556 S
C535 C534 1.524 . S
C535 C536 1.397 . S
C535 C540 1.363 . S
C536 H513 0.950 . S
C536 C535 1.397 . S
C536 C537 1.334 . S
C537 H514 0.950 . S
C537 C536 1.334 . S
C537 C538 1.287 . S
C538 C537 1.287 . S
C538 C539 1.524 . S
C538 H557 0.913 . S
C539 H515 0.950 . S
C539 C538 1.524 . S
C539 C540 1.415 . S
C540 H516 0.950 1_556 S
C540 C535 1.363 . S
C540 C539 1.415 . S
C541 H517 0.951 . S
C541 C542 1.366 . S
C541 C543 1.388 . S
C542 C541 1.366 . S
C542 C546 1.385 . S
C543 H518 0.951 . S
C543 C541 1.388 . S
C543 C544 1.366 . S
C544 C543 1.366 . S
C544 C545 1.414 . S
C544 C547 1.499 . S
C545 H519 0.950 . S
C545 C544 1.414 . S
C545 C546 1.374 . S
C546 H520 0.950 . S
C546 C542 1.385 . S
C546 C545 1.374 . S
C547 C544 1.499 . S
C547 C548 1.373 . S
C547 C549 1.389 . S
C548 H521 0.950 . S
C548 C534 1.377 1_554 S
C548 C547 1.373 . S
C549 C533 1.377 1_554 S
C549 C547 1.389 . S
C549 C550 1.524 . S
C550 C549 1.524 . S
C550 C551 1.397 . S
C550 C555 1.363 . S
C551 H522 0.950 . S
C551 C550 1.397 . S
C551 C552 1.334 . S
C552 H523 0.950 . S
C552 C551 1.334 . S
C552 C553 1.287 . S
C553 C552 1.287 . S
C553 C554 1.524 . S
C553 H556 0.999 . S
C554 H524 0.950 . S
C554 C553 1.524 . S
C554 C555 1.415 . S
C555 H525 0.950 1_554 S
C555 C550 1.363 . S
C555 C554 1.415 . S
H556 C553 0.999 . S
H557 C538 0.913 . S
H558 C576 0.951 . S
H559 C578 0.951 . S
H560 C580 0.950 . S
H561 C581 0.950 . S
H562 C583 0.950 . S
H563 C586 0.950 . S
H564 C587 0.950 . S
H565 C589 0.950 . S
H566 C590 0.950 . S
H567 C591 0.951 . S
H568 C593 0.951 . S
H569 C595 0.950 . S
H570 C596 0.950 . S
H571 C598 0.950 . S
H572 C601 0.950 . S
H573 C602 0.950 . S
H574 C604 0.950 . S
H575 C605 0.950 . S
C576 H558 0.951 . S
C576 C577 1.366 . S
C576 C578 1.388 . S
C577 C576 1.366 . S
C577 C581 1.385 . S
C578 H559 0.951 . S
C578 C576 1.388 . S
C578 C579 1.366 . S
C579 C578 1.366 . S
C579 C580 1.414 . S
C579 C582 1.499 . S
C580 H560 0.950 . S
C580 C579 1.414 . S
C580 C581 1.374 . S
C581 H561 0.950 . S
C581 C577 1.385 . S
C581 C580 1.374 . S
C582 C579 1.499 . S
C582 C583 1.373 . S
C582 C584 1.389 . S
C583 H562 0.950 . S
C583 C582 1.373 . S
C583 C599 1.377 . S
C584 C582 1.389 . S
C584 C585 1.524 . S
C584 C598 1.377 . S
C585 C584 1.524 . S
C585 C586 1.397 . S
C585 C590 1.363 . S
C586 H563 0.950 . S
C586 C585 1.397 . S
C586 C587 1.334 . S
C587 H564 0.950 . S
C587 C586 1.334 . S
C587 C588 1.287 . S
C588 C587 1.287 . S
C588 C589 1.524 . S
C588 H607 0.913 . S
C589 H565 0.950 . S
C589 C588 1.524 . S
C589 C590 1.415 . S
C590 H566 0.950 . S
C590 C585 1.363 . S
C590 C589 1.415 . S
C591 H567 0.951 . S
C591 C592 1.366 . S
C591 C593 1.388 . S
C592 C591 1.366 . S
C592 C596 1.385 . S
C593 H568 0.951 . S
C593 C591 1.388 . S
C593 C594 1.366 . S
C594 C593 1.366 . S
C594 C595 1.414 . S
C594 C597 1.499 . S
C595 H569 0.950 . S
C595 C594 1.414 . S
C595 C596 1.374 . S
C596 H570 0.950 . S
C596 C592 1.385 . S
C596 C595 1.374 . S
C597 C594 1.499 . S
C597 C598 1.373 . S
C597 C599 1.389 . S
C598 H571 0.950 . S
C598 C584 1.377 . S
C598 C597 1.373 . S
C599 C583 1.377 . S
C599 C597 1.389 . S
C599 C600 1.524 . S
C600 C599 1.524 . S
C600 C601 1.397 . S
C600 C605 1.363 . S
C601 H572 0.950 . S
C601 C600 1.397 . S
C601 C602 1.334 . S
C602 H573 0.950 . S
C602 C601 1.334 . S
C602 C603 1.287 . S
C603 C602 1.287 . S
C603 C604 1.524 . S
C603 H606 0.999 . S
C604 H574 0.950 . S
C604 C603 1.524 . S
C604 C605 1.415 . S
C605 H575 0.950 . S
C605 C600 1.363 . S
C605 C604 1.415 . S
H606 C603 0.999 . S
H607 C588 0.913 . S
H608 C626 0.951 . S
H609 C628 0.951 . S
H610 C630 0.950 . S
H611 C631 0.950 . S
H612 C633 0.950 . S
H613 C636 0.950 . S
H614 C637 0.950 . S
H615 C639 0.950 . S
H616 C640 0.950 . S
H617 C641 0.951 . S
H618 C643 0.951 . S
H619 C645 0.950 . S
H620 C646 0.950 . S
H621 C648 0.950 . S
H622 C651 0.950 . S
H623 C652 0.950 . S
H624 C654 0.950 . S
H625 C655 0.950 . S
C626 H608 0.951 . S
C626 C627 1.366 . S
C626 C628 1.388 . S
C627 C626 1.366 . S
C627 C631 1.385 . S
C628 H609 0.951 . S
C628 C626 1.388 . S
C628 C629 1.366 . S
C629 C628 1.366 . S
C629 C630 1.414 . S
C629 C632 1.499 . S
C630 H610 0.950 . S
C630 C629 1.414 . S
C630 C631 1.374 . S
C631 H611 0.950 . S
C631 C627 1.385 . S
C631 C630 1.374 . S
C632 C629 1.499 . S
C632 C633 1.373 . S
C632 C634 1.389 . S
C633 H612 0.950 . S
C633 C632 1.373 . S
C633 C649 1.377 . S
C634 C632 1.389 . S
C634 C635 1.524 . S
C634 C648 1.377 . S
C635 C634 1.524 . S
C635 C636 1.397 . S
C635 C640 1.363 . S
C636 H613 0.950 . S
C636 C635 1.397 . S
C636 C637 1.334 . S
C637 H614 0.950 . S
C637 C636 1.334 . S
C637 C638 1.287 . S
C638 C637 1.287 . S
C638 C639 1.524 . S
C638 H657 0.913 . S
C639 H615 0.950 . S
C639 C638 1.524 . S
C639 C640 1.415 . S
C640 H616 0.950 . S
C640 C635 1.363 . S
C640 C639 1.415 . S
C641 H617 0.951 . S
C641 C642 1.366 . S
C641 C643 1.388 . S
C642 C641 1.366 . S
C642 C646 1.385 . S
C643 H618 0.951 . S
C643 C641 1.388 . S
C643 C644 1.366 . S
C644 C643 1.366 . S
C644 C645 1.414 . S
C644 C647 1.499 . S
C645 H619 0.950 . S
C645 C644 1.414 . S
C645 C646 1.374 . S
C646 H620 0.950 . S
C646 C642 1.385 . S
C646 C645 1.374 . S
C647 C644 1.499 . S
C647 C648 1.373 . S
C647 C649 1.389 . S
C648 H621 0.950 . S
C648 C634 1.377 . S
C648 C647 1.373 . S
C649 C633 1.377 . S
C649 C647 1.389 . S
C649 C650 1.524 . S
C650 C649 1.524 . S
C650 C651 1.397 . S
C650 C655 1.363 . S
C651 H622 0.950 . S
C651 C650 1.397 . S
C651 C652 1.334 . S
C652 H623 0.950 . S
C652 C651 1.334 . S
C652 C653 1.287 . S
C653 C652 1.287 . S
C653 C654 1.524 . S
C653 H656 0.999 . S
C654 H624 0.950 . S
C654 C653 1.524 . S
C654 C655 1.415 . S
C655 H625 0.950 . S
C655 C650 1.363 . S
C655 C654 1.415 . S
H656 C653 0.999 . S
H657 C638 0.913 . S
H658 C676 0.951 . S
H659 C678 0.951 . S
H660 C680 0.950 . S
H661 C681 0.950 . S
H662 C683 0.950 . S
H663 C686 0.950 . S
H664 C687 0.950 . S
H665 C689 0.950 . S
H666 C690 0.950 . S
H667 C691 0.951 . S
H668 C693 0.951 . S
H669 C695 0.950 . S
H670 C696 0.950 . S
H671 C698 0.950 . S
H672 C701 0.950 . S
H673 C702 0.950 . S
H674 C704 0.950 . S
H675 C705 0.950 . S
C676 H658 0.951 . S
C676 C677 1.366 . S
C676 C678 1.388 . S
C677 C676 1.366 . S
C677 C681 1.385 . S
C678 H659 0.951 . S
C678 C676 1.388 . S
C678 C679 1.366 . S
C679 C678 1.366 . S
C679 C680 1.414 . S
C679 C682 1.499 . S
C680 H660 0.950 . S
C680 C679 1.414 . S
C680 C681 1.374 . S
C681 H661 0.950 . S
C681 C677 1.385 . S
C681 C680 1.374 . S
C682 C679 1.499 . S
C682 C683 1.373 . S
C682 C684 1.389 . S
C683 H662 0.950 . S
C683 C682 1.373 . S
C683 C699 1.377 . S
C684 C682 1.389 . S
C684 C685 1.524 . S
C684 C698 1.377 . S
C685 C684 1.524 . S
C685 C686 1.397 . S
C685 C690 1.363 . S
C686 H663 0.950 . S
C686 C685 1.397 . S
C686 C687 1.334 . S
C687 H664 0.950 . S
C687 C686 1.334 . S
C687 C688 1.287 . S
C688 C687 1.287 . S
C688 C689 1.524 . S
C688 H707 0.913 . S
C689 H665 0.950 . S
C689 C688 1.524 . S
C689 C690 1.415 . S
C690 H666 0.950 . S
C690 C685 1.363 . S
C690 C689 1.415 . S
C691 H667 0.951 . S
C691 C692 1.366 . S
C691 C693 1.388 . S
C692 C691 1.366 . S
C692 C696 1.385 . S
C693 H668 0.951 . S
C693 C691 1.388 . S
C693 C694 1.366 . S
C694 C693 1.366 . S
C694 C695 1.414 . S
C694 C697 1.499 . S
C695 H669 0.950 . S
C695 C694 1.414 . S
C695 C696 1.374 . S
C696 H670 0.950 . S
C696 C692 1.385 . S
C696 C695 1.374 . S
C697 C694 1.499 . S
C697 C698 1.373 . S
C697 C699 1.389 . S
C698 H671 0.950 . S
C698 C684 1.377 . S
C698 C697 1.373 . S
C699 C683 1.377 . S
C699 C697 1.389 . S
C699 C700 1.524 . S
C700 C699 1.524 . S
C700 C701 1.397 . S
C700 C705 1.363 . S
C701 H672 0.950 . S
C701 C700 1.397 . S
C701 C702 1.334 . S
C702 H673 0.950 . S
C702 C701 1.334 . S
C702 C703 1.287 . S
C703 C702 1.287 . S
C703 C704 1.524 . S
C703 H706 0.999 . S
C704 H674 0.950 . S
C704 C703 1.524 . S
C704 C705 1.415 . S
C705 H675 0.950 . S
C705 C700 1.363 . S
C705 C704 1.415 . S
H706 C703 0.999 . S
H707 C688 0.913 . S
H708 C726 0.951 . S
H709 C728 0.951 . S
H710 C730 0.950 . S
H711 C731 0.950 . S
H712 C733 0.950 . S
H713 C736 0.950 . S
H714 C737 0.950 . S
H715 C739 0.950 . S
H716 C740 0.950 . S
H717 C741 0.951 . S
H718 C743 0.951 . S
H719 C745 0.950 . S
H720 C746 0.950 . S
H721 C748 0.950 . S
H722 C751 0.950 . S
H723 C752 0.950 . S
H724 C754 0.950 . S
H725 C755 0.950 . S
C726 H708 0.951 . S
C726 C727 1.366 . S
C726 C728 1.388 . S
C727 C726 1.366 . S
C727 C731 1.385 . S
C728 H709 0.951 . S
C728 C726 1.388 . S
C728 C729 1.366 . S
C729 C728 1.366 . S
C729 C730 1.414 . S
C729 C732 1.499 . S
C730 H710 0.950 . S
C730 C729 1.414 . S
C730 C731 1.374 . S
C731 H711 0.950 . S
C731 C727 1.385 . S
C731 C730 1.374 . S
C732 C729 1.499 . S
C732 C733 1.373 . S
C732 C734 1.389 . S
C733 H712 0.950 . S
C733 C732 1.373 . S
C733 C749 1.377 . S
C734 C732 1.389 . S
C734 C735 1.524 . S
C734 C748 1.377 . S
C735 C734 1.524 . S
C735 C736 1.397 . S
C735 C740 1.363 . S
C736 H713 0.950 . S
C736 C735 1.397 . S
C736 C737 1.334 . S
C737 H714 0.950 . S
C737 C736 1.334 . S
C737 C738 1.287 . S
C738 C737 1.287 . S
C738 C739 1.524 . S
C738 H757 0.913 . S
C739 H715 0.950 . S
C739 C738 1.524 . S
C739 C740 1.415 . S
C740 H716 0.950 . S
C740 C735 1.363 . S
C740 C739 1.415 . S
C741 H717 0.951 . S
C741 C742 1.366 . S
C741 C743 1.388 . S
C742 C741 1.366 . S
C742 C746 1.385 . S
C743 H718 0.951 . S
C743 C741 1.388 . S
C743 C744 1.366 . S
C744 C743 1.366 . S
C744 C745 1.414 . S
C744 C747 1.499 . S
C745 H719 0.950 . S
C745 C744 1.414 . S
C745 C746 1.374 . S
C746 H720 0.950 . S
C746 C742 1.385 . S
C746 C745 1.374 . S
C747 C744 1.499 . S
C747 C748 1.373 . S
C747 C749 1.389 . S
C748 H721 0.950 . S
C748 C734 1.377 . S
C748 C747 1.373 . S
C749 C733 1.377 . S
C749 C747 1.389 . S
C749 C750 1.524 . S
C750 C749 1.524 . S
C750 C751 1.397 . S
C750 C755 1.363 . S
C751 H722 0.950 . S
C751 C750 1.397 . S
C751 C752 1.334 . S
C752 H723 0.950 . S
C752 C751 1.334 . S
C752 C753 1.287 . S
C753 C752 1.287 . S
C753 C754 1.524 . S
C753 H756 0.999 . S
C754 H724 0.950 . S
C754 C753 1.524 . S
C754 C755 1.415 . S
C755 H725 0.950 . S
C755 C750 1.363 . S
C755 C754 1.415 . S
H756 C753 0.999 . S
H757 C738 0.913 . S
H758 C776 0.951 . S
H759 C778 0.951 . S
H760 C780 0.950 . S
H761 C781 0.950 . S
H762 C783 0.950 . S
H763 C786 0.950 . S
H764 C787 0.950 . S
H765 C789 0.950 . S
H766 C790 0.950 . S
H767 C791 0.951 . S
H768 C793 0.951 . S
H769 C795 0.950 . S
H770 C796 0.950 . S
H771 C798 0.950 . S
H772 C801 0.950 . S
H773 C802 0.950 . S
H774 C804 0.950 . S
H775 C805 0.950 . S
C776 H758 0.951 . S
C776 C777 1.366 . S
C776 C778 1.388 . S
C777 C776 1.366 . S
C777 C781 1.385 . S
C778 H759 0.951 . S
C778 C776 1.388 . S
C778 C779 1.366 . S
C779 C778 1.366 . S
C779 C780 1.414 . S
C779 C782 1.499 . S
C780 H760 0.950 . S
C780 C779 1.414 . S
C780 C781 1.374 . S
C781 H761 0.950 . S
C781 C777 1.385 . S
C781 C780 1.374 . S
C782 C779 1.499 . S
C782 C783 1.373 . S
C782 C784 1.389 . S
C783 H762 0.950 . S
C783 C782 1.373 . S
C783 C799 1.377 . S
C784 C782 1.389 . S
C784 C785 1.524 . S
C784 C798 1.377 . S
C785 C784 1.524 . S
C785 C786 1.397 . S
C785 C790 1.363 . S
C786 H763 0.950 . S
C786 C785 1.397 . S
C786 C787 1.334 . S
C787 H764 0.950 . S
C787 C786 1.334 . S
C787 C788 1.287 . S
C788 C787 1.287 . S
C788 C789 1.524 . S
C788 H807 0.913 . S
C789 H765 0.950 . S
C789 C788 1.524 . S
C789 C790 1.415 . S
C790 H766 0.950 . S
C790 C785 1.363 . S
C790 C789 1.415 . S
C791 H767 0.951 . S
C791 C792 1.366 . S
C791 C793 1.388 . S
C792 C791 1.366 . S
C792 C796 1.385 . S
C793 H768 0.951 . S
C793 C791 1.388 . S
C793 C794 1.366 . S
C794 C793 1.366 . S
C794 C795 1.414 . S
C794 C797 1.499 . S
C795 H769 0.950 . S
C795 C794 1.414 . S
C795 C796 1.374 . S
C796 H770 0.950 . S
C796 C792 1.385 . S
C796 C795 1.374 . S
C797 C794 1.499 . S
C797 C798 1.373 . S
C797 C799 1.389 . S
C798 H771 0.950 . S
C798 C784 1.377 . S
C798 C797 1.373 . S
C799 C783 1.377 . S
C799 C797 1.389 . S
C799 C800 1.524 . S
C800 C799 1.524 . S
C800 C801 1.397 . S
C800 C805 1.363 . S
C801 H772 0.950 . S
C801 C800 1.397 . S
C801 C802 1.334 . S
C802 H773 0.950 . S
C802 C801 1.334 . S
C802 C803 1.287 . S
C803 C802 1.287 . S
C803 C804 1.524 . S
C803 H806 0.999 . S
C804 H774 0.950 . S
C804 C803 1.524 . S
C804 C805 1.415 . S
C805 H775 0.950 . S
C805 C800 1.363 . S
C805 C804 1.415 . S
H806 C803 0.999 . S
H807 C788 0.913 . S
H808 C826 0.951 . S
H809 C828 0.951 . S
H810 C830 0.950 . S
H811 C831 0.950 . S
H812 C833 0.950 . S
H813 C836 0.950 . S
H814 C837 0.950 . S
H815 C839 0.950 . S
H816 C840 0.950 . S
H817 C841 0.951 . S
H818 C843 0.951 . S
H819 C845 0.950 . S
H820 C846 0.950 . S
H821 C848 0.950 . S
H822 C851 0.950 . S
H823 C852 0.950 . S
H824 C854 0.950 . S
H825 C855 0.950 . S
C826 H808 0.951 . S
C826 C827 1.366 . S
C826 C828 1.388 . S
C827 C826 1.366 . S
C827 C831 1.385 . S
C828 H809 0.951 . S
C828 C826 1.388 . S
C828 C829 1.366 . S
C829 C828 1.366 . S
C829 C830 1.414 . S
C829 C832 1.499 . S
C830 H810 0.950 . S
C830 C829 1.414 . S
C830 C831 1.374 . S
C831 H811 0.950 . S
C831 C827 1.385 . S
C831 C830 1.374 . S
C832 C829 1.499 . S
C832 C833 1.373 . S
C832 C834 1.389 . S
C833 H812 0.950 . S
C833 C832 1.373 . S
C833 C849 1.377 . S
C834 C832 1.389 . S
C834 C835 1.524 . S
C834 C848 1.377 . S
C835 C834 1.524 . S
C835 C836 1.397 . S
C835 C840 1.363 . S
C836 H813 0.950 . S
C836 C835 1.397 . S
C836 C837 1.334 . S
C837 H814 0.950 . S
C837 C836 1.334 . S
C837 C838 1.287 . S
C838 C837 1.287 . S
C838 C839 1.524 . S
C838 H857 0.913 . S
C839 H815 0.950 . S
C839 C838 1.524 . S
C839 C840 1.415 . S
C840 H816 0.950 . S
C840 C835 1.363 . S
C840 C839 1.415 . S
C841 H817 0.951 . S
C841 C842 1.366 . S
C841 C843 1.388 . S
C842 C841 1.366 . S
C842 C846 1.385 . S
C843 H818 0.951 . S
C843 C841 1.388 . S
C843 C844 1.366 . S
C844 C843 1.366 . S
C844 C845 1.414 . S
C844 C847 1.499 . S
C845 H819 0.950 . S
C845 C844 1.414 . S
C845 C846 1.374 . S
C846 H820 0.950 . S
C846 C842 1.385 . S
C846 C845 1.374 . S
C847 C844 1.499 . S
C847 C848 1.373 . S
C847 C849 1.389 . S
C848 H821 0.950 . S
C848 C834 1.377 . S
C848 C847 1.373 . S
C849 C833 1.377 . S
C849 C847 1.389 . S
C849 C850 1.524 . S
C850 C849 1.524 . S
C850 C851 1.397 . S
C850 C855 1.363 . S
C851 H822 0.950 . S
C851 C850 1.397 . S
C851 C852 1.334 . S
C852 H823 0.950 . S
C852 C851 1.334 . S
C852 C853 1.287 . S
C853 C852 1.287 . S
C853 C854 1.524 . S
C853 H856 0.999 . S
C854 H824 0.950 . S
C854 C853 1.524 . S
C854 C855 1.415 . S
C855 H825 0.950 . S
C855 C850 1.363 . S
C855 C854 1.415 . S
H856 C853 0.999 . S
H857 C838 0.913 . S
H858 C876 0.951 . S
H859 C878 0.951 . S
H860 C880 0.950 . S
H861 C881 0.950 . S
H862 C883 0.950 . S
H863 C886 0.950 . S
H864 C887 0.950 . S
H865 C889 0.950 . S
H866 C890 0.950 . S
H867 C891 0.951 . S
H868 C893 0.951 . S
H869 C895 0.950 . S
H870 C896 0.950 . S
H871 C898 0.950 . S
H872 C901 0.950 . S
H873 C902 0.950 . S
H874 C904 0.950 . S
H875 C905 0.950 . S
C876 H858 0.951 . S
C876 C877 1.366 . S
C876 C878 1.388 . S
C877 C876 1.366 . S
C877 C881 1.385 . S
C878 H859 0.951 . S
C878 C876 1.388 . S
C878 C879 1.366 . S
C879 C878 1.366 . S
C879 C880 1.414 . S
C879 C882 1.499 . S
C880 H860 0.950 . S
C880 C879 1.414 . S
C880 C881 1.374 . S
C881 H861 0.950 . S
C881 C877 1.385 . S
C881 C880 1.374 . S
C882 C879 1.499 . S
C882 C883 1.373 . S
C882 C884 1.389 . S
C883 H862 0.950 . S
C883 C882 1.373 . S
C883 C899 1.377 . S
C884 C882 1.389 . S
C884 C885 1.524 . S
C884 C898 1.377 . S
C885 C884 1.524 . S
C885 C886 1.397 . S
C885 C890 1.363 . S
C886 H863 0.950 . S
C886 C885 1.397 . S
C886 C887 1.334 . S
C887 H864 0.950 . S
C887 C886 1.334 . S
C887 C888 1.287 . S
C888 C887 1.287 . S
C888 C889 1.524 . S
C888 H907 0.913 . S
C889 H865 0.950 . S
C889 C888 1.524 . S
C889 C890 1.415 . S
C890 H866 0.950 . S
C890 C885 1.363 . S
C890 C889 1.415 . S
C891 H867 0.951 . S
C891 C892 1.366 . S
C891 C893 1.388 . S
C892 C891 1.366 . S
C892 C896 1.385 . S
C893 H868 0.951 . S
C893 C891 1.388 . S
C893 C894 1.366 . S
C894 C893 1.366 . S
C894 C895 1.414 . S
C894 C897 1.499 . S
C895 H869 0.950 . S
C895 C894 1.414 . S
C895 C896 1.374 . S
C896 H870 0.950 . S
C896 C892 1.385 . S
C896 C895 1.374 . S
C897 C894 1.499 . S
C897 C898 1.373 . S
C897 C899 1.389 . S
C898 H871 0.950 . S
C898 C884 1.377 . S
C898 C897 1.373 . S
C899 C883 1.377 . S
C899 C897 1.389 . S
C899 C900 1.524 . S
C900 C899 1.524 . S
C900 C901 1.397 . S
C900 C905 1.363 . S
C901 H872 0.950 . S
C901 C900 1.397 . S
C901 C902 1.334 . S
C902 H873 0.950 . S
C902 C901 1.334 . S
C902 C903 1.287 . S
C903 C902 1.287 . S
C903 C904 1.524 . S
C903 H906 0.999 . S
C904 H874 0.950 . S
C904 C903 1.524 . S
C904 C905 1.415 . S
C905 H875 0.950 . S
C905 C900 1.363 . S
C905 C904 1.415 . S
H906 C903 0.999 . S
H907 C888 0.913 . S
H908 C926 0.951 . S
H909 C928 0.951 . S
H910 C930 0.950 . S
H911 C931 0.950 . S
H912 C933 0.950 . S
H913 C936 0.950 . S
H914 C937 0.950 . S
H915 C939 0.950 . S
H916 C940 0.950 . S
H917 C941 0.951 . S
H918 C943 0.951 . S
H919 C945 0.950 . S
H920 C946 0.950 . S
H921 C948 0.950 . S
H922 C951 0.950 . S
H923 C952 0.950 . S
H924 C954 0.950 . S
H925 C955 0.950 . S
C926 H908 0.951 . S
C926 C927 1.366 . S
C926 C928 1.388 . S
C927 C926 1.366 . S
C927 C931 1.385 . S
C928 H909 0.951 . S
C928 C926 1.388 . S
C928 C929 1.366 . S
C929 C928 1.366 . S
C929 C930 1.414 . S
C929 C932 1.499 . S
C930 H910 0.950 . S
C930 C929 1.414 . S
C930 C931 1.374 . S
C931 H911 0.950 . S
C931 C927 1.385 . S
C931 C930 1.374 . S
C932 C929 1.499 . S
C932 C933 1.373 . S
C932 C934 1.389 . S
C933 H912 0.950 . S
C933 C932 1.373 . S
C933 C949 1.377 . S
C934 C932 1.389 . S
C934 C935 1.524 . S
C934 C948 1.377 . S
C935 C934 1.524 . S
C935 C936 1.397 . S
C935 C940 1.363 . S
C936 H913 0.950 . S
C936 C935 1.397 . S
C936 C937 1.334 . S
C937 H914 0.950 . S
C937 C936 1.334 . S
C937 C938 1.287 . S
C938 C937 1.287 . S
C938 C939 1.524 . S
C938 H957 0.913 . S
C939 H915 0.950 . S
C939 C938 1.524 . S
C939 C940 1.415 . S
C940 H916 0.950 . S
C940 C935 1.363 . S
C940 C939 1.415 . S
C941 H917 0.951 . S
C941 C942 1.366 . S
C941 C943 1.388 . S
C942 C941 1.366 . S
C942 C946 1.385 . S
C943 H918 0.951 . S
C943 C941 1.388 . S
C943 C944 1.366 . S
C944 C943 1.366 . S
C944 C945 1.414 . S
C944 C947 1.499 . S
C945 H919 0.950 . S
C945 C944 1.414 . S
C945 C946 1.374 . S
C946 H920 0.950 . S
C946 C942 1.385 . S
C946 C945 1.374 . S
C947 C944 1.499 . S
C947 C948 1.373 . S
C947 C949 1.389 . S
C948 H921 0.950 . S
C948 C934 1.377 . S
C948 C947 1.373 . S
C949 C933 1.377 . S
C949 C947 1.389 . S
C949 C950 1.524 . S
C950 C949 1.524 . S
C950 C951 1.397 . S
C950 C955 1.363 . S
C951 H922 0.950 . S
C951 C950 1.397 . S
C951 C952 1.334 . S
C952 H923 0.950 . S
C952 C951 1.334 . S
C952 C953 1.287 . S
C953 C952 1.287 . S
C953 C954 1.524 . S
C953 H956 0.999 . S
C954 H924 0.950 . S
C954 C953 1.524 . S
C954 C955 1.415 . S
C955 H925 0.950 . S
C955 C950 1.363 . S
C955 C954 1.415 . S
H956 C953 0.999 . S
H957 C938 0.913 . S
H958 C976 0.951 . S
H959 C978 0.951 . S
H960 C980 0.950 . S
H961 C981 0.950 . S
H962 C983 0.950 . S
H963 C986 0.950 . S
H964 C987 0.950 . S
H965 C989 0.950 . S
H966 C990 0.950 . S
H967 C991 0.951 . S
H968 C993 0.951 . S
H969 C995 0.950 . S
H970 C996 0.950 . S
H971 C998 0.950 . S
H972 C1001 0.950 . S
H973 C1002 0.950 . S
H974 C1004 0.950 . S
H975 C1005 0.950 . S
C976 H958 0.951 . S
C976 C977 1.366 . S
C976 C978 1.388 . S
C977 C976 1.366 . S
C977 C981 1.385 . S
C978 H959 0.951 . S
C978 C976 1.388 . S
C978 C979 1.366 . S
C979 C978 1.366 . S
C979 C980 1.414 . S
C979 C982 1.499 . S
C980 H960 0.950 . S
C980 C979 1.414 . S
C980 C981 1.374 . S
C981 H961 0.950 . S
C981 C977 1.385 . S
C981 C980 1.374 . S
C982 C979 1.499 . S
C982 C983 1.373 . S
C982 C984 1.389 . S
C983 H962 0.950 . S
C983 C982 1.373 . S
C983 C999 1.377 . S
C984 C982 1.389 . S
C984 C985 1.524 . S
C984 C998 1.377 . S
C985 C984 1.524 . S
C985 C986 1.397 . S
C985 C990 1.363 . S
C986 H963 0.950 . S
C986 C985 1.397 . S
C986 C987 1.334 . S
C987 H964 0.950 . S
C987 C986 1.334 . S
C987 C988 1.287 . S
C988 C987 1.287 . S
C988 C989 1.524 . S
C988 H1007 0.913 . S
C989 H965 0.950 . S
C989 C988 1.524 . S
C989 C990 1.415 . S
C990 H966 0.950 . S
C990 C985 1.363 . S
C990 C989 1.415 . S
C991 H967 0.951 . S
C991 C992 1.366 . S
C991 C993 1.388 . S
C992 C991 1.366 . S
C992 C996 1.385 . S
C993 H968 0.951 . S
C993 C991 1.388 . S
C993 C994 1.366 . S
C994 C993 1.366 . S
C994 C995 1.414 . S
C994 C997 1.499 . S
C995 H969 0.950 . S
C995 C994 1.414 . S
C995 C996 1.374 . S
C996 H970 0.950 . S
C996 C992 1.385 . S
C996 C995 1.374 . S
C997 C994 1.499 . S
C997 C998 1.373 . S
C997 C999 1.389 . S
C998 H971 0.950 . S
C998 C984 1.377 . S
C998 C997 1.373 . S
C999 C983 1.377 . S
C999 C997 1.389 . S
C999 C1000 1.524 . S
C1000 C999 1.524 . S
C1000 C1001 1.397 . S
C1000 C1005 1.363 . S
C1001 H972 0.950 . S
C1001 C1000 1.397 . S
C1001 C1002 1.334 . S
C1002 H973 0.950 . S
C1002 C1001 1.334 . S
C1002 C1003 1.287 . S
C1003 C1002 1.287 . S
C1003 C1004 1.524 . S
C1003 H1006 0.999 . S
C1004 H974 0.950 . S
C1004 C1003 1.524 . S
C1004 C1005 1.415 . S
C1005 H975 0.950 . S
C1005 C1000 1.363 . S
C1005 C1004 1.415 . S
H1006 C1003 0.999 . S
H1007 C988 0.913 . S
H1008 C1026 0.951 . S
H1009 C1028 0.951 . S
H1010 C1030 0.950 . S
H1011 C1031 0.950 . S
H1012 C1033 0.950 . S
H1013 C1036 0.950 . S
H1014 C1037 0.950 . S
H1015 C1039 0.950 . S
H1016 C1040 0.950 . S
H1017 C1041 0.951 . S
H1018 C1043 0.951 . S
H1019 C1045 0.950 . S
H1020 C1046 0.950 . S
H1021 C1048 0.950 . S
H1022 C1051 0.950 . S
H1023 C1052 0.956 . S
H1024 C1054 0.950 . S
H1025 C1055 0.950 . S
C1026 H1008 0.951 . S
C1026 C1027 1.366 . S
C1026 C1028 1.388 . S
C1027 C1026 1.366 . S
C1027 C1031 1.385 . S
C1028 H1009 0.951 . S
C1028 C1026 1.388 . S
C1028 C1029 1.366 . S
C1029 C1028 1.366 . S
C1029 C1030 1.414 . S
C1029 C1032 1.499 . S
C1030 H1010 0.950 . S
C1030 C1029 1.414 . S
C1030 C1031 1.374 . S
C1031 H1011 0.950 . S
C1031 C1027 1.385 . S
C1031 C1030 1.374 . S
C1032 C1029 1.499 . S
C1032 C1033 1.373 . S
C1032 C1034 1.389 . S
C1033 H1012 0.950 . S
C1033 C1032 1.373 . S
C1033 C1049 1.377 . S
C1034 C1032 1.389 . S
C1034 C1035 1.524 . S
C1034 C1048 1.377 . S
C1035 C1034 1.524 . S
C1035 C1036 1.397 . S
C1035 C1040 1.363 . S
C1036 H1013 0.950 . S
C1036 C1035 1.397 . S
C1036 C1037 1.334 . S
C1037 H1014 0.950 . S
C1037 C1036 1.334 . S
C1037 C1038 1.287 . S
C1038 C1037 1.287 . S
C1038 C1039 1.524 . S
C1038 H1057 0.913 . S
C1039 H1015 0.950 . S
C1039 C1038 1.524 . S
C1039 C1040 1.415 . S
C1040 H1016 0.950 . S
C1040 C1035 1.363 . S
C1040 C1039 1.415 . S
C1041 H1017 0.951 . S
C1041 C1042 1.366 . S
C1041 C1043 1.388 . S
C1042 C1041 1.366 . S
C1042 C1046 1.385 . S
C1043 H1018 0.951 . S
C1043 C1041 1.388 . S
C1043 C1044 1.366 . S
C1044 C1043 1.366 . S
C1044 C1045 1.414 . S
C1044 C1047 1.499 . S
C1045 H1019 0.950 . S
C1045 C1044 1.414 . S
C1045 C1046 1.374 . S
C1046 H1020 0.950 . S
C1046 C1042 1.385 . S
C1046 C1045 1.374 . S
C1047 C1044 1.499 . S
C1047 C1048 1.373 . S
C1047 C1049 1.389 . S
C1048 H1021 0.950 . S
C1048 C1034 1.377 . S
C1048 C1047 1.373 . S
C1049 C1033 1.377 . S
C1049 C1047 1.389 . S
C1049 C1050 1.524 . S
C1050 C1049 1.524 . S
C1050 C1051 1.397 . S
C1050 C1055 1.363 . S
C1051 H1022 0.950 . S
C1051 C1050 1.397 . S
C1051 C1052 1.334 . S
C1052 H1023 0.956 . S
C1052 C1051 1.334 . S
C1052 C1053 1.287 1_545 S
C1053 C1052 1.287 1_565 S
C1053 C1054 1.524 . S
C1053 H1056 0.999 . S
C1054 H1024 0.950 . S
C1054 C1053 1.524 . S
C1054 C1055 1.415 1_565 S
C1055 H1025 0.950 . S
C1055 C1050 1.363 . S
C1055 C1054 1.415 1_545 S
H1056 C1053 0.999 . S
H1057 C1038 0.913 . S
H1058 C1076 0.951 . S
H1059 C1078 0.951 . S
H1060 C1080 0.950 . S
H1061 C1081 0.950 . S
H1062 C1083 0.950 . S
H1063 C1086 0.950 . S
H1064 C1087 0.950 . S
H1065 C1089 0.950 . S
H1066 C1090 0.950 . S
H1067 C1091 0.951 . S
H1068 C1093 0.951 . S
H1069 C1095 0.950 . S
H1070 C1096 0.950 . S
H1071 C1098 0.950 . S
H1072 C1101 0.950 . S
H1073 C1102 0.950 . S
H1074 C1104 0.950 . S
H1075 C1105 0.950 . S
C1076 H1058 0.951 . S
C1076 C1077 1.366 . S
C1076 C1078 1.388 . S
C1077 C1076 1.366 . S
C1077 C1081 1.385 . S
C1078 H1059 0.951 . S
C1078 C1076 1.388 . S
C1078 C1079 1.366 . S
C1079 C1078 1.366 . S
C1079 C1080 1.414 . S
C1079 C1082 1.499 . S
C1080 H1060 0.950 . S
C1080 C1079 1.414 . S
C1080 C1081 1.374 . S
C1081 H1061 0.950 . S
C1081 C1077 1.385 . S
C1081 C1080 1.374 . S
C1082 C1079 1.499 . S
C1082 C1083 1.373 . S
C1082 C1084 1.389 . S
C1083 H1062 0.950 . S
C1083 C1082 1.373 . S
C1083 C1099 1.377 . S
C1084 C1082 1.389 . S
C1084 C1085 1.524 . S
C1084 C1098 1.377 . S
C1085 C1084 1.524 . S
C1085 C1086 1.397 . S
C1085 C1090 1.363 . S
C1086 H1063 0.950 . S
C1086 C1085 1.397 . S
C1086 C1087 1.334 . S
C1087 H1064 0.950 . S
C1087 C1086 1.334 . S
C1087 C1088 1.287 . S
C1088 C1087 1.287 . S
C1088 C1089 1.524 . S
C1088 H1107 0.913 . S
C1089 H1065 0.950 . S
C1089 C1088 1.524 . S
C1089 C1090 1.415 . S
C1090 H1066 0.950 . S
C1090 C1085 1.363 . S
C1090 C1089 1.415 . S
C1091 H1067 0.951 . S
C1091 C1092 1.366 . S
C1091 C1093 1.388 . S
C1092 C1091 1.366 . S
C1092 C1096 1.385 . S
C1093 H1068 0.951 . S
C1093 C1091 1.388 . S
C1093 C1094 1.366 . S
C1094 C1093 1.366 . S
C1094 C1095 1.414 . S
C1094 C1097 1.499 . S
C1095 H1069 0.950 . S
C1095 C1094 1.414 . S
C1095 C1096 1.374 . S
C1096 H1070 0.950 . S
C1096 C1092 1.385 . S
C1096 C1095 1.374 . S
C1097 C1094 1.499 . S
C1097 C1098 1.373 . S
C1097 C1099 1.389 . S
C1098 H1071 0.950 . S
C1098 C1084 1.377 . S
C1098 C1097 1.373 . S
C1099 C1083 1.377 . S
C1099 C1097 1.389 . S
C1099 C1100 1.524 . S
C1100 C1099 1.524 . S
C1100 C1101 1.397 . S
C1100 C1105 1.363 . S
C1101 H1072 0.950 . S
C1101 C1100 1.397 . S
C1101 C1102 1.334 . S
C1102 H1073 0.950 . S
C1102 C1101 1.334 . S
C1102 C1103 1.287 . S
C1103 C1102 1.287 . S
C1103 C1104 1.524 . S
C1103 H1106 0.999 . S
C1104 H1074 0.950 . S
C1104 C1103 1.524 . S
C1104 C1105 1.415 . S
C1105 H1075 0.950 . S
C1105 C1100 1.363 . S
C1105 C1104 1.415 . S
H1106 C1103 0.999 . S
H1107 C1088 0.913 . S
H1108 C1126 0.951 . S
H1109 C1128 0.951 . S
H1110 C1130 0.950 . S
H1111 C1131 0.950 . S
H1112 C1133 0.950 . S
H1113 C1136 0.950 . S
H1114 C1137 0.950 . S
H1115 C1139 0.950 . S
H1116 C1140 0.950 . S
H1117 C1141 0.951 . S
H1118 C1143 0.951 . S
H1119 C1145 0.950 . S
H1120 C1146 0.950 . S
H1121 C1148 0.950 . S
H1122 C1151 0.950 . S
H1123 C1152 0.950 . S
H1124 C1154 0.950 . S
H1125 C1155 0.950 . S
C1126 H1108 0.951 . S
C1126 C1127 1.366 . S
C1126 C1128 1.388 . S
C1127 C1126 1.366 . S
C1127 C1131 1.385 . S
C1128 H1109 0.951 . S
C1128 C1126 1.388 . S
C1128 C1129 1.366 . S
C1129 C1128 1.366 . S
C1129 C1130 1.414 . S
C1129 C1132 1.499 . S
C1130 H1110 0.950 . S
C1130 C1129 1.414 . S
C1130 C1131 1.374 . S
C1131 H1111 0.950 . S
C1131 C1127 1.385 . S
C1131 C1130 1.374 . S
C1132 C1129 1.499 . S
C1132 C1133 1.373 . S
C1132 C1134 1.389 . S
C1133 H1112 0.950 . S
C1133 C1132 1.373 . S
C1133 C1149 1.377 . S
C1134 C1132 1.389 . S
C1134 C1135 1.524 . S
C1134 C1148 1.377 . S
C1135 C1134 1.524 . S
C1135 C1136 1.397 . S
C1135 C1140 1.363 . S
C1136 H1113 0.950 . S
C1136 C1135 1.397 . S
C1136 C1137 1.334 . S
C1137 H1114 0.950 . S
C1137 C1136 1.334 . S
C1137 C1138 1.287 . S
C1138 C1137 1.287 . S
C1138 C1139 1.524 . S
C1138 H1157 0.913 . S
C1139 H1115 0.950 . S
C1139 C1138 1.524 . S
C1139 C1140 1.415 . S
C1140 H1116 0.950 . S
C1140 C1135 1.363 . S
C1140 C1139 1.415 . S
C1141 H1117 0.951 . S
C1141 C1142 1.366 . S
C1141 C1143 1.388 . S
C1142 C1141 1.366 . S
C1142 C1146 1.385 . S
C1143 H1118 0.951 . S
C1143 C1141 1.388 . S
C1143 C1144 1.366 . S
C1144 C1143 1.366 . S
C1144 C1145 1.414 . S
C1144 C1147 1.499 . S
C1145 H1119 0.950 . S
C1145 C1144 1.414 . S
C1145 C1146 1.374 . S
C1146 H1120 0.950 . S
C1146 C1142 1.385 . S
C1146 C1145 1.374 . S
C1147 C1144 1.499 . S
C1147 C1148 1.373 . S
C1147 C1149 1.389 . S
C1148 H1121 0.950 . S
C1148 C1134 1.377 . S
C1148 C1147 1.373 . S
C1149 C1133 1.377 . S
C1149 C1147 1.389 . S
C1149 C1150 1.524 . S
C1150 C1149 1.524 . S
C1150 C1151 1.397 . S
C1150 C1155 1.363 . S
C1151 H1122 0.950 . S
C1151 C1150 1.397 . S
C1151 C1152 1.334 . S
C1152 H1123 0.950 . S
C1152 C1151 1.334 . S
C1152 C1153 1.287 . S
C1153 C1152 1.287 . S
C1153 C1154 1.524 . S
C1153 H1156 0.999 . S
C1154 H1124 0.950 . S
C1154 C1153 1.524 . S
C1154 C1155 1.415 . S
C1155 H1125 0.950 . S
C1155 C1150 1.363 . S
C1155 C1154 1.415 . S
H1156 C1153 0.999 . S
H1157 C1138 0.913 . S
H1158 C1176 0.951 . S
H1159 C1178 0.951 . S
H1160 C1180 0.950 . S
H1161 C1181 0.950 . S
H1162 C1183 0.950 . S
H1163 C1186 0.950 . S
H1164 C1187 0.950 . S
H1165 C1189 0.950 . S
H1166 C1190 0.950 . S
H1167 C1191 0.951 . S
H1168 C1193 0.951 . S
H1169 C1195 0.950 . S
H1170 C1196 0.950 . S
H1171 C1198 0.950 . S
H1172 C1201 0.950 . S
H1173 C1202 0.950 . S
H1174 C1204 0.950 . S
H1175 C1205 0.950 . S
C1176 H1158 0.951 . S
C1176 C1177 1.366 . S
C1176 C1178 1.388 . S
C1177 C1176 1.366 . S
C1177 C1181 1.385 . S
C1178 H1159 0.951 . S
C1178 C1176 1.388 . S
C1178 C1179 1.366 . S
C1179 C1178 1.366 . S
C1179 C1180 1.414 . S
C1179 C1182 1.499 . S
C1180 H1160 0.950 . S
C1180 C1179 1.414 . S
C1180 C1181 1.374 . S
C1181 H1161 0.950 . S
C1181 C1177 1.385 . S
C1181 C1180 1.374 . S
C1182 C1179 1.499 . S
C1182 C1183 1.373 . S
C1182 C1184 1.389 . S
C1183 H1162 0.950 . S
C1183 C1182 1.373 . S
C1183 C1199 1.377 . S
C1184 C1182 1.389 . S
C1184 C1185 1.524 . S
C1184 C1198 1.377 . S
C1185 C1184 1.524 . S
C1185 C1186 1.397 . S
C1185 C1190 1.363 . S
C1186 H1163 0.950 . S
C1186 C1185 1.397 . S
C1186 C1187 1.334 . S
C1187 H1164 0.950 . S
C1187 C1186 1.334 . S
C1187 C1188 1.287 . S
C1188 C1187 1.287 . S
C1188 C1189 1.524 . S
C1188 H1207 0.913 . S
C1189 H1165 0.950 . S
C1189 C1188 1.524 . S
C1189 C1190 1.415 . S
C1190 H1166 0.950 . S
C1190 C1185 1.363 . S
C1190 C1189 1.415 . S
C1191 H1167 0.951 . S
C1191 C1192 1.366 . S
C1191 C1193 1.388 . S
C1192 C1191 1.366 . S
C1192 C1196 1.385 . S
C1193 H1168 0.951 . S
C1193 C1191 1.388 . S
C1193 C1194 1.366 . S
C1194 C1193 1.366 . S
C1194 C1195 1.414 . S
C1194 C1197 1.499 . S
C1195 H1169 0.950 . S
C1195 C1194 1.414 . S
C1195 C1196 1.374 . S
C1196 H1170 0.950 . S
C1196 C1192 1.385 . S
C1196 C1195 1.374 . S
C1197 C1194 1.499 . S
C1197 C1198 1.373 . S
C1197 C1199 1.389 . S
C1198 H1171 0.950 . S
C1198 C1184 1.377 . S
C1198 C1197 1.373 . S
C1199 C1183 1.377 . S
C1199 C1197 1.389 . S
C1199 C1200 1.524 . S
C1200 C1199 1.524 . S
C1200 C1201 1.397 . S
C1200 C1205 1.363 . S
C1201 H1172 0.950 . S
C1201 C1200 1.397 . S
C1201 C1202 1.334 . S
C1202 H1173 0.950 . S
C1202 C1201 1.334 . S
C1202 C1203 1.287 . S
C1203 C1202 1.287 . S
C1203 C1204 1.524 . S
C1203 H1206 0.999 . S
C1204 H1174 0.950 . S
C1204 C1203 1.524 . S
C1204 C1205 1.415 . S
C1205 H1175 0.950 . S
C1205 C1200 1.363 . S
C1205 C1204 1.415 . S
H1206 C1203 0.999 . S
H1207 C1188 0.913 . S
H1208 C1226 0.951 . S
H1209 C1228 0.951 . S
H1210 C1230 0.950 . S
H1211 C1231 0.950 . S
H1212 C1233 0.950 . S
H1213 C1236 0.950 . S
H1214 C1237 0.950 . S
H1215 C1239 0.950 . S
H1216 C1240 0.950 . S
H1217 C1241 0.951 . S
H1218 C1243 0.951 . S
H1219 C1245 0.950 . S
H1220 C1246 0.950 . S
H1221 C1248 0.950 . S
H1222 C1251 0.950 . S
H1223 C1252 0.950 . S
H1224 C1254 0.950 . S
H1225 C1255 0.950 . S
C1226 H1208 0.951 . S
C1226 C1227 1.366 . S
C1226 C1228 1.388 . S
C1227 C1226 1.366 . S
C1227 C1231 1.385 . S
C1228 H1209 0.951 . S
C1228 C1226 1.388 . S
C1228 C1229 1.366 . S
C1229 C1228 1.366 . S
C1229 C1230 1.414 . S
C1229 C1232 1.499 . S
C1230 H1210 0.950 . S
C1230 C1229 1.414 . S
C1230 C1231 1.374 . S
C1231 H1211 0.950 . S
C1231 C1227 1.385 . S
C1231 C1230 1.374 . S
C1232 C1229 1.499 . S
C1232 C1233 1.373 . S
C1232 C1234 1.389 . S
C1233 H1212 0.950 . S
C1233 C1232 1.373 . S
C1233 C1249 1.377 . S
C1234 C1232 1.389 . S
C1234 C1235 1.524 . S
C1234 C1248 1.377 . S
C1235 C1234 1.524 . S
C1235 C1236 1.397 . S
C1235 C1240 1.363 . S
C1236 H1213 0.950 . S
C1236 C1235 1.397 . S
C1236 C1237 1.334 . S
C1237 H1214 0.950 . S
C1237 C1236 1.334 . S
C1237 C1238 1.287 . S
C1238 C1237 1.287 . S
C1238 C1239 1.524 . S
C1238 H1257 0.913 . S
C1239 H1215 0.950 . S
C1239 C1238 1.524 . S
C1239 C1240 1.415 . S
C1240 H1216 0.950 . S
C1240 C1235 1.363 . S
C1240 C1239 1.415 . S
C1241 H1217 0.951 . S
C1241 C1242 1.366 . S
C1241 C1243 1.388 . S
C1242 C1241 1.366 . S
C1242 C1246 1.385 . S
C1243 H1218 0.951 . S
C1243 C1241 1.388 . S
C1243 C1244 1.366 . S
C1244 C1243 1.366 . S
C1244 C1245 1.414 . S
C1244 C1247 1.499 . S
C1245 H1219 0.950 . S
C1245 C1244 1.414 . S
C1245 C1246 1.374 . S
C1246 H1220 0.950 . S
C1246 C1242 1.385 . S
C1246 C1245 1.374 . S
C1247 C1244 1.499 . S
C1247 C1248 1.373 . S
C1247 C1249 1.389 . S
C1248 H1221 0.950 . S
C1248 C1234 1.377 . S
C1248 C1247 1.373 . S
C1249 C1233 1.377 . S
C1249 C1247 1.389 . S
C1249 C1250 1.524 . S
C1250 C1249 1.524 . S
C1250 C1251 1.397 . S
C1250 C1255 1.363 . S
C1251 H1222 0.950 . S
C1251 C1250 1.397 . S
C1251 C1252 1.334 . S
C1252 H1223 0.950 . S
C1252 C1251 1.334 . S
C1252 C1253 1.287 1_565 S
C1253 C1252 1.287 1_545 S
C1253 C1254 1.524 . S
C1253 H1256 0.999 . S
C1254 H1224 0.950 . S
C1254 C1253 1.524 . S
C1254 C1255 1.415 1_545 S
C1255 H1225 0.950 . S
C1255 C1250 1.363 . S
C1255 C1254 1.415 1_565 S
H1256 C1253 0.999 . S
H1257 C1238 0.913 . S
H1258 C1276 0.951 . S
H1259 C1278 0.951 . S
H1260 C1280 0.950 . S
H1261 C1281 0.950 . S
H1262 C1283 0.950 . S
H1263 C1286 0.950 . S
H1264 C1287 0.950 . S
H1265 C1289 0.950 . S
H1266 C1290 0.950 . S
H1267 C1291 0.951 . S
H1268 C1293 0.951 . S
H1269 C1295 0.950 . S
H1270 C1296 0.950 . S
H1271 C1298 0.950 . S
H1272 C1301 0.950 . S
H1273 C1302 0.950 . S
H1274 C1304 0.950 . S
H1275 C1305 0.950 . S
C1276 H1258 0.951 . S
C1276 C1277 1.366 . S
C1276 C1278 1.388 . S
C1277 C1276 1.366 . S
C1277 C1281 1.385 . S
C1278 H1259 0.951 . S
C1278 C1276 1.388 . S
C1278 C1279 1.366 . S
C1279 C1278 1.366 . S
C1279 C1280 1.414 . S
C1279 C1282 1.499 . S
C1280 H1260 0.950 . S
C1280 C1279 1.414 . S
C1280 C1281 1.374 . S
C1281 H1261 0.950 . S
C1281 C1277 1.385 . S
C1281 C1280 1.374 . S
C1282 C1279 1.499 . S
C1282 C1283 1.373 . S
C1282 C1284 1.389 . S
C1283 H1262 0.950 . S
C1283 C1282 1.373 . S
C1283 C1299 1.377 . S
C1284 C1282 1.389 . S
C1284 C1285 1.524 . S
C1284 C1298 1.377 . S
C1285 C1284 1.524 . S
C1285 C1286 1.397 . S
C1285 C1290 1.363 . S
C1286 H1263 0.950 . S
C1286 C1285 1.397 . S
C1286 C1287 1.334 . S
C1287 H1264 0.950 . S
C1287 C1286 1.334 . S
C1287 C1288 1.287 . S
C1288 C1287 1.287 . S
C1288 C1289 1.524 . S
C1288 H1307 0.913 . S
C1289 H1265 0.950 . S
C1289 C1288 1.524 . S
C1289 C1290 1.415 . S
C1290 H1266 0.950 . S
C1290 C1285 1.363 . S
C1290 C1289 1.415 . S
C1291 H1267 0.951 . S
C1291 C1292 1.366 . S
C1291 C1293 1.388 . S
C1292 C1291 1.366 . S
C1292 C1296 1.385 . S
C1293 H1268 0.951 . S
C1293 C1291 1.388 . S
C1293 C1294 1.366 . S
C1294 C1293 1.366 . S
C1294 C1295 1.414 . S
C1294 C1297 1.499 . S
C1295 H1269 0.950 . S
C1295 C1294 1.414 . S
C1295 C1296 1.374 . S
C1296 H1270 0.950 . S
C1296 C1292 1.385 . S
C1296 C1295 1.374 . S
C1297 C1294 1.499 . S
C1297 C1298 1.373 . S
C1297 C1299 1.389 . S
C1298 H1271 0.950 . S
C1298 C1284 1.377 . S
C1298 C1297 1.373 . S
C1299 C1283 1.377 . S
C1299 C1297 1.389 . S
C1299 C1300 1.524 . S
C1300 C1299 1.524 . S
C1300 C1301 1.397 . S
C1300 C1305 1.363 . S
C1301 H1272 0.950 . S
C1301 C1300 1.397 . S
C1301 C1302 1.334 . S
C1302 H1273 0.950 . S
C1302 C1301 1.334 . S
C1302 C1303 1.287 . S
C1303 C1302 1.287 . S
C1303 C1304 1.524 . S
C1303 H1306 0.999 . S
C1304 H1274 0.950 . S
C1304 C1303 1.524 . S
C1304 C1305 1.415 . S
C1305 H1275 0.950 . S
C1305 C1300 1.363 . S
C1305 C1304 1.415 . S
H1306 C1303 0.999 . S
H1307 C1288 0.913 . S
H1308 C1326 0.951 . S
H1309 C1328 0.951 . S
H1310 C1330 0.950 . S
H1311 C1331 0.950 . S
H1312 C1333 0.950 . S
H1313 C1336 0.950 . S
H1314 C1337 0.950 . S
H1315 C1339 0.950 . S
H1316 C1340 0.950 . S
H1317 C1341 0.951 . S
H1318 C1343 0.951 . S
H1319 C1345 0.950 . S
H1320 C1346 0.950 . S
H1321 C1348 0.950 . S
H1322 C1351 0.950 . S
H1323 C1352 0.950 . S
H1324 C1354 0.950 . S
H1325 C1355 0.950 . S
C1326 H1308 0.951 . S
C1326 C1327 1.366 . S
C1326 C1328 1.388 . S
C1327 C1326 1.366 . S
C1327 C1331 1.385 . S
C1328 H1309 0.951 . S
C1328 C1326 1.388 . S
C1328 C1329 1.366 . S
C1329 C1328 1.366 . S
C1329 C1330 1.414 . S
C1329 C1332 1.499 . S
C1330 H1310 0.950 . S
C1330 C1329 1.414 . S
C1330 C1331 1.374 . S
C1331 H1311 0.950 . S
C1331 C1327 1.385 . S
C1331 C1330 1.374 . S
C1332 C1329 1.499 . S
C1332 C1333 1.373 . S
C1332 C1334 1.389 . S
C1333 H1312 0.950 . S
C1333 C1332 1.373 . S
C1333 C1349 1.377 . S
C1334 C1332 1.389 . S
C1334 C1335 1.524 . S
C1334 C1348 1.377 . S
C1335 C1334 1.524 . S
C1335 C1336 1.397 . S
C1335 C1340 1.363 . S
C1336 H1313 0.950 . S
C1336 C1335 1.397 . S
C1336 C1337 1.334 . S
C1337 H1314 0.950 . S
C1337 C1336 1.334 . S
C1337 C1338 1.287 . S
C1338 C1337 1.287 . S
C1338 C1339 1.524 . S
C1338 H1357 0.913 . S
C1339 H1315 0.950 . S
C1339 C1338 1.524 . S
C1339 C1340 1.415 . S
C1340 H1316 0.950 . S
C1340 C1335 1.363 . S
C1340 C1339 1.415 . S
C1341 H1317 0.951 . S
C1341 C1342 1.366 . S
C1341 C1343 1.388 . S
C1342 C1341 1.366 . S
C1342 C1346 1.385 . S
C1343 H1318 0.951 . S
C1343 C1341 1.388 . S
C1343 C1344 1.366 . S
C1344 C1343 1.366 . S
C1344 C1345 1.414 . S
C1344 C1347 1.499 . S
C1345 H1319 0.950 . S
C1345 C1344 1.414 . S
C1345 C1346 1.374 . S
C1346 H1320 0.950 . S
C1346 C1342 1.385 . S
C1346 C1345 1.374 . S
C1347 C1344 1.499 . S
C1347 C1348 1.373 . S
C1347 C1349 1.389 . S
C1348 H1321 0.950 . S
C1348 C1334 1.377 . S
C1348 C1347 1.373 . S
C1349 C1333 1.377 . S
C1349 C1347 1.389 . S
C1349 C1350 1.524 . S
C1350 C1349 1.524 . S
C1350 C1351 1.397 . S
C1350 C1355 1.363 . S
C1351 H1322 0.950 . S
C1351 C1350 1.397 . S
C1351 C1352 1.334 . S
C1352 H1323 0.950 . S
C1352 C1351 1.334 . S
C1352 C1353 1.287 . S
C1353 C1352 1.287 . S
C1353 C1354 1.524 . S
C1353 H1356 0.999 . S
C1354 H1324 0.950 . S
C1354 C1353 1.524 . S
C1354 C1355 1.415 . S
C1355 H1325 0.950 . S
C1355 C1350 1.363 . S
C1355 C1354 1.415 . S
H1356 C1353 0.999 . S
H1357 C1338 0.913 . S
H1358 C1376 0.951 . S
H1359 C1378 0.951 . S
H1360 C1380 0.950 . S
H1361 C1381 0.950 . S
H1362 C1383 0.950 . S
H1363 C1386 0.950 . S
H1364 C1387 0.950 . S
H1365 C1389 0.950 . S
H1366 C1390 0.950 . S
H1367 C1391 0.951 . S
H1368 C1393 0.951 . S
H1369 C1395 0.950 . S
H1370 C1396 0.950 . S
H1371 C1398 0.950 . S
H1372 C1401 0.950 . S
H1373 C1402 0.950 . S
H1374 C1404 0.950 . S
H1375 C1405 0.950 . S
C1376 H1358 0.951 . S
C1376 C1377 1.366 . S
C1376 C1378 1.388 . S
C1377 C1376 1.366 . S
C1377 C1381 1.385 . S
C1378 H1359 0.951 . S
C1378 C1376 1.388 . S
C1378 C1379 1.366 . S
C1379 C1378 1.366 . S
C1379 C1380 1.414 . S
C1379 C1382 1.499 . S
C1380 H1360 0.950 . S
C1380 C1379 1.414 . S
C1380 C1381 1.374 . S
C1381 H1361 0.950 . S
C1381 C1377 1.385 . S
C1381 C1380 1.374 . S
C1382 C1379 1.499 . S
C1382 C1383 1.373 . S
C1382 C1384 1.389 . S
C1383 H1362 0.950 . S
C1383 C1382 1.373 . S
C1383 C1399 1.377 . S
C1384 C1382 1.389 . S
C1384 C1385 1.524 . S
C1384 C1398 1.377 . S
C1385 C1384 1.524 . S
C1385 C1386 1.397 . S
C1385 C1390 1.363 . S
C1386 H1363 0.950 . S
C1386 C1385 1.397 . S
C1386 C1387 1.334 . S
C1387 H1364 0.950 . S
C1387 C1386 1.334 . S
C1387 C1388 1.287 . S
C1388 C1387 1.287 . S
C1388 C1389 1.524 . S
C1388 H1407 0.913 . S
C1389 H1365 0.950 . S
C1389 C1388 1.524 . S
C1389 C1390 1.415 . S
C1390 H1366 0.950 . S
C1390 C1385 1.363 . S
C1390 C1389 1.415 . S
C1391 H1367 0.951 . S
C1391 C1392 1.366 . S
C1391 C1393 1.388 . S
C1392 C1391 1.366 . S
C1392 C1396 1.385 . S
C1393 H1368 0.951 . S
C1393 C1391 1.388 . S
C1393 C1394 1.366 . S
C1394 C1393 1.366 . S
C1394 C1395 1.414 . S
C1394 C1397 1.499 . S
C1395 H1369 0.950 . S
C1395 C1394 1.414 . S
C1395 C1396 1.374 . S
C1396 H1370 0.950 . S
C1396 C1392 1.385 . S
C1396 C1395 1.374 . S
C1397 C1394 1.499 . S
C1397 C1398 1.373 . S
C1397 C1399 1.389 . S
C1398 H1371 0.950 . S
C1398 C1384 1.377 . S
C1398 C1397 1.373 . S
C1399 C1383 1.377 . S
C1399 C1397 1.389 . S
C1399 C1400 1.524 . S
C1400 C1399 1.524 . S
C1400 C1401 1.397 . S
C1400 C1405 1.363 . S
C1401 H1372 0.950 . S
C1401 C1400 1.397 . S
C1401 C1402 1.334 . S
C1402 H1373 0.950 . S
C1402 C1401 1.334 . S
C1402 C1403 1.287 . S
C1403 C1402 1.287 . S
C1403 C1404 1.524 . S
C1403 H1406 0.999 . S
C1404 H1374 0.950 . S
C1404 C1403 1.524 . S
C1404 C1405 1.415 . S
C1405 H1375 0.950 . S
C1405 C1400 1.363 . S
C1405 C1404 1.415 . S
H1406 C1403 0.999 . S
H1407 C1388 0.913 . S
H1408 C1426 0.951 . S
H1409 C1428 0.951 . S
H1410 C1430 0.950 . S
H1411 C1431 0.950 . S
H1412 C1433 0.961 . S
H1413 C1436 0.950 . S
H1414 C1437 0.950 . S
H1415 C1439 0.950 . S
H1416 C1440 0.950 . S
H1417 C1441 0.951 . S
H1418 C1443 0.951 . S
H1419 C1445 0.950 . S
H1420 C1446 0.950 . S
H1421 C1448 0.950 . S
H1422 C1451 0.950 . S
H1423 C1452 0.950 . S
H1424 C1454 0.950 . S
H1425 C1455 0.950 . S
C1426 H1408 0.951 . S
C1426 C1427 1.366 . S
C1426 C1428 1.388 . S
C1427 C1426 1.366 . S
C1427 C1431 1.385 . S
C1428 H1409 0.951 . S
C1428 C1426 1.388 . S
C1428 C1429 1.366 . S
C1429 C1428 1.366 . S
C1429 C1430 1.414 . S
C1429 C1432 1.499 . S
C1430 H1410 0.950 . S
C1430 C1429 1.414 . S
C1430 C1431 1.374 . S
C1431 H1411 0.950 . S
C1431 C1427 1.385 . S
C1431 C1430 1.374 . S
C1432 C1429 1.499 . S
C1432 C1433 1.373 1_545 S
C1432 C1434 1.389 1_545 S
C1433 H1412 0.961 . S
C1433 C1432 1.373 1_565 S
C1433 C1449 1.377 . S
C1434 C1432 1.389 1_565 S
C1434 C1435 1.524 1_565 S
C1434 C1448 1.377 . S
C1435 C1434 1.524 1_545 S
C1435 C1436 1.397 . S
C1435 C1440 1.363 1_545 S
C1436 H1413 0.950 . S
C1436 C1435 1.397 . S
C1436 C1437 1.334 . S
C1437 H1414 0.950 . S
C1437 C1436 1.334 . S
C1437 C1438 1.287 . S
C1438 C1437 1.287 . S
C1438 C1439 1.524 1_545 S
C1438 H1457 0.913 . S
C1439 H1415 0.950 . S
C1439 C1438 1.524 1_565 S
C1439 C1440 1.415 . S
C1440 H1416 0.950 . S
C1440 C1435 1.363 1_565 S
C1440 C1439 1.415 . S
C1441 H1417 0.951 . S
C1441 C1442 1.366 . S
C1441 C1443 1.388 . S
C1442 C1441 1.366 . S
C1442 C1446 1.385 . S
C1443 H1418 0.951 . S
C1443 C1441 1.388 . S
C1443 C1444 1.366 . S
C1444 C1443 1.366 . S
C1444 C1445 1.414 . S
C1444 C1447 1.499 . S
C1445 H1419 0.950 . S
C1445 C1444 1.414 . S
C1445 C1446 1.374 . S
C1446 H1420 0.950 . S
C1446 C1442 1.385 . S
C1446 C1445 1.374 . S
C1447 C1444 1.499 . S
C1447 C1448 1.373 . S
C1447 C1449 1.389 . S
C1448 H1421 0.950 . S
C1448 C1434 1.377 . S
C1448 C1447 1.373 . S
C1449 C1433 1.377 . S
C1449 C1447 1.389 . S
C1449 C1450 1.524 . S
C1450 C1449 1.524 . S
C1450 C1451 1.397 . S
C1450 C1455 1.363 . S
C1451 H1422 0.950 . S
C1451 C1450 1.397 . S
C1451 C1452 1.334 . S
C1452 H1423 0.950 . S
C1452 C1451 1.334 . S
C1452 C1453 1.287 . S
C1453 C1452 1.287 . S
C1453 C1454 1.524 . S
C1453 H1456 0.999 . S
C1454 H1424 0.950 . S
C1454 C1453 1.524 . S
C1454 C1455 1.415 . S
C1455 H1425 0.950 . S
C1455 C1450 1.363 . S
C1455 C1454 1.415 . S
H1456 C1453 0.999 . S
H1457 C1438 0.913 . S
H1458 C1476 0.951 . S
H1459 C1478 0.951 . S
H1460 C1480 0.950 . S
H1461 C1481 0.950 . S
H1462 C1483 0.950 . S
H1463 C1486 0.950 . S
H1464 C1487 0.950 . S
H1465 C1489 0.950 . S
H1466 C1490 0.950 . S
H1467 C1491 0.951 . S
H1468 C1493 0.951 . S
H1469 C1495 0.950 . S
H1470 C1496 0.950 . S
H1471 C1498 0.950 . S
H1472 C1501 0.950 . S
H1473 C1502 0.950 . S
H1474 C1504 0.950 . S
H1475 C1505 0.950 . S
C1476 H1458 0.951 . S
C1476 C1477 1.366 . S
C1476 C1478 1.388 . S
C1477 C1476 1.366 . S
C1477 C1481 1.385 . S
C1478 H1459 0.951 . S
C1478 C1476 1.388 . S
C1478 C1479 1.366 . S
C1479 C1478 1.366 . S
C1479 C1480 1.414 . S
C1479 C1482 1.499 . S
C1480 H1460 0.950 . S
C1480 C1479 1.414 . S
C1480 C1481 1.374 . S
C1481 H1461 0.950 . S
C1481 C1477 1.385 . S
C1481 C1480 1.374 . S
C1482 C1479 1.499 . S
C1482 C1483 1.373 . S
C1482 C1484 1.389 . S
C1483 H1462 0.950 . S
C1483 C1482 1.373 . S
C1483 C1499 1.377 . S
C1484 C1482 1.389 . S
C1484 C1485 1.524 . S
C1484 C1498 1.377 . S
C1485 C1484 1.524 . S
C1485 C1486 1.397 . S
C1485 C1490 1.363 . S
C1486 H1463 0.950 . S
C1486 C1485 1.397 . S
C1486 C1487 1.334 . S
C1487 H1464 0.950 . S
C1487 C1486 1.334 . S
C1487 C1488 1.287 . S
C1488 C1487 1.287 . S
C1488 C1489 1.524 . S
C1488 H1507 0.913 . S
C1489 H1465 0.950 . S
C1489 C1488 1.524 . S
C1489 C1490 1.415 . S
C1490 H1466 0.950 . S
C1490 C1485 1.363 . S
C1490 C1489 1.415 . S
C1491 H1467 0.951 . S
C1491 C1492 1.366 . S
C1491 C1493 1.388 . S
C1492 C1491 1.366 . S
C1492 C1496 1.385 . S
C1493 H1468 0.951 . S
C1493 C1491 1.388 . S
C1493 C1494 1.366 . S
C1494 C1493 1.366 . S
C1494 C1495 1.414 . S
C1494 C1497 1.499 . S
C1495 H1469 0.950 . S
C1495 C1494 1.414 . S
C1495 C1496 1.374 . S
C1496 H1470 0.950 . S
C1496 C1492 1.385 . S
C1496 C1495 1.374 . S
C1497 C1494 1.499 . S
C1497 C1498 1.373 . S
C1497 C1499 1.389 . S
C1498 H1471 0.950 . S
C1498 C1484 1.377 . S
C1498 C1497 1.373 . S
C1499 C1483 1.377 . S
C1499 C1497 1.389 . S
C1499 C1500 1.524 . S
C1500 C1499 1.524 . S
C1500 C1501 1.397 . S
C1500 C1505 1.363 . S
C1501 H1472 0.950 . S
C1501 C1500 1.397 . S
C1501 C1502 1.334 . S
C1502 H1473 0.950 . S
C1502 C1501 1.334 . S
C1502 C1503 1.287 . S
C1503 C1502 1.287 . S
C1503 C1504 1.524 . S
C1503 H1506 0.999 . S
C1504 H1474 0.950 . S
C1504 C1503 1.524 . S
C1504 C1505 1.415 . S
C1505 H1475 0.950 . S
C1505 C1500 1.363 . S
C1505 C1504 1.415 . S
H1506 C1503 0.999 . S
H1507 C1488 0.913 . S
H1508 C1526 0.951 . S
H1509 C1528 0.951 . S
H1510 C1530 0.950 . S
H1511 C1531 0.950 . S
H1512 C1533 0.950 . S
H1513 C1536 0.950 . S
H1514 C1537 0.950 . S
H1515 C1539 0.960 . S
H1516 C1540 0.950 . S
H1517 C1541 0.951 . S
H1518 C1543 0.951 1_455 S
H1519 C1545 0.950 . S
H1520 C1546 0.950 . S
H1521 C1548 0.975 . S
H1522 C1551 0.950 . S
H1523 C1552 0.950 . S
H1524 C1554 0.950 . S
H1525 C1555 0.950 . S
C1526 H1508 0.951 . S
C1526 C1527 1.366 . S
C1526 C1528 1.388 . S
C1527 C1526 1.366 . S
C1527 C1531 1.385 . S
C1528 H1509 0.951 . S
C1528 C1526 1.388 . S
C1528 C1529 1.366 . S
C1529 C1528 1.366 . S
C1529 C1530 1.414 . S
C1529 C1532 1.499 . S
C1530 H1510 0.950 . S
C1530 C1529 1.414 . S
C1530 C1531 1.374 . S
C1531 H1511 0.950 . S
C1531 C1527 1.385 . S
C1531 C1530 1.374 . S
C1532 C1529 1.499 . S
C1532 C1533 1.373 . S
C1532 C1534 1.389 . S
C1533 H1512 0.950 . S
C1533 C1532 1.373 . S
C1533 C1549 1.377 . S
C1534 C1532 1.389 . S
C1534 C1535 1.524 . S
C1534 C1548 1.350 1_455 S
C1535 C1534 1.524 . S
C1535 C1536 1.397 . S
C1535 C1540 1.363 1_455 S
C1536 H1513 0.950 . S
C1536 C1535 1.397 . S
C1536 C1537 1.334 . S
C1537 H1514 0.950 . S
C1537 C1536 1.334 . S
C1537 C1538 1.287 . S
C1538 C1537 1.287 . S
C1538 C1539 1.512 1_455 S
C1538 H1557 0.913 . S
C1539 H1515 0.960 . S
C1539 C1538 1.512 1_655 S
C1539 C1540 1.415 . S
C1540 H1516 0.950 . S
C1540 C1535 1.363 1_655 S
C1540 C1539 1.415 . S
C1541 H1517 0.951 . S
C1541 C1542 1.366 . S
C1541 C1543 1.388 . S
C1542 C1541 1.366 . S
C1542 C1546 1.385 . S
C1543 H1518 0.951 1_655 S
C1543 C1541 1.388 . S
C1543 C1544 1.366 . S
C1544 C1543 1.366 . S
C1544 C1545 1.414 . S
C1544 C1547 1.499 . S
C1545 H1519 0.950 . S
C1545 C1544 1.414 . S
C1545 C1546 1.374 . S
C1546 H1520 0.950 . S
C1546 C1542 1.385 . S
C1546 C1545 1.374 . S
C1547 C1544 1.499 . S
C1547 C1548 1.376 . S
C1547 C1549 1.389 1_655 S
C1548 H1521 0.975 . S
C1548 C1534 1.350 1_655 S
C1548 C1547 1.376 . S
C1549 C1533 1.377 . S
C1549 C1547 1.389 1_455 S
C1549 C1550 1.524 . S
C1550 C1549 1.524 . S
C1550 C1551 1.397 1_455 S
C1550 C1555 1.363 . S
C1551 H1522 0.950 . S
C1551 C1550 1.397 1_655 S
C1551 C1552 1.334 . S
C1552 H1523 0.950 . S
C1552 C1551 1.334 . S
C1552 C1553 1.287 1_655 S
C1553 C1552 1.287 1_455 S
C1553 C1554 1.524 . S
C1553 H1556 0.999 . S
C1554 H1524 0.950 . S
C1554 C1553 1.524 . S
C1554 C1555 1.415 . S
C1555 H1525 0.950 . S
C1555 C1550 1.363 . S
C1555 C1554 1.415 . S
H1556 C1553 0.999 . S
H1557 C1538 0.913 . S
H1558 C1576 0.951 . S
H1559 C1578 0.951 1_545 S
H1560 C1580 0.950 . S
H1561 C1581 0.950 . S
H1562 C1583 0.950 . S
H1563 C1586 0.950 1_565 S
H1564 C1587 0.950 1_565 S
H1565 C1589 0.950 . S
H1566 C1590 0.950 . S
H1567 C1591 0.951 . S
H1568 C1593 0.951 . S
H1569 C1595 0.950 1_655 S
H1570 C1596 0.950 . S
H1571 C1598 0.950 . S
H1572 C1601 0.950 . S
H1573 C1602 0.950 . S
H1574 C1604 0.950 . S
H1575 C1605 0.950 . S
C1576 H1558 0.951 . S
C1576 C1577 1.366 . S
C1576 C1578 1.388 . S
C1577 C1576 1.366 . S
C1577 C1581 1.385 . S
C1578 H1559 0.951 1_565 S
C1578 C1576 1.388 . S
C1578 C1579 1.366 . S
C1579 C1578 1.366 . S
C1579 C1580 1.414 . S
C1579 C1582 1.499 . S
C1580 H1560 0.950 . S
C1580 C1579 1.414 . S
C1580 C1581 1.374 . S
C1581 H1561 0.950 . S
C1581 C1577 1.385 . S
C1581 C1580 1.374 . S
C1582 C1579 1.499 . S
C1582 C1583 1.373 . S
C1582 C1584 1.389 1_565 S
C1583 H1562 0.950 . S
C1583 C1582 1.373 . S
C1583 C1599 1.377 1_665 S
C1584 C1582 1.389 1_545 S
C1584 C1585 1.524 . S
C1584 C1598 1.377 . S
C1585 C1584 1.524 . S
C1585 C1586 1.397 . S
C1585 C1590 1.363 . S
C1586 H1563 0.950 1_545 S
C1586 C1585 1.397 . S
C1586 C1587 1.334 . S
C1587 H1564 0.950 1_545 S
C1587 C1586 1.334 . S
C1587 C1588 1.287 . S
C1588 C1587 1.287 . S
C1588 C1589 1.524 . S
C1588 H1607 0.913 . S
C1589 H1565 0.950 . S
C1589 C1588 1.524 . S
C1589 C1590 1.415 . S
C1590 H1566 0.950 . S
C1590 C1585 1.363 . S
C1590 C1589 1.415 . S
C1591 H1567 0.951 . S
C1591 C1592 1.366 . S
C1591 C1593 1.388 . S
C1592 C1591 1.366 . S
C1592 C1596 1.385 . S
C1593 H1568 0.951 . S
C1593 C1591 1.388 . S
C1593 C1594 1.366 . S
C1594 C1593 1.366 . S
C1594 C1595 1.414 . S
C1594 C1597 1.499 . S
C1595 H1569 0.950 1_455 S
C1595 C1594 1.414 . S
C1595 C1596 1.374 . S
C1596 H1570 0.950 . S
C1596 C1592 1.385 . S
C1596 C1595 1.374 . S
C1597 C1594 1.499 . S
C1597 C1598 1.373 1_455 S
C1597 C1599 1.389 . S
C1598 H1571 0.950 . S
C1598 C1584 1.377 . S
C1598 C1597 1.373 1_655 S
C1599 C1583 1.377 1_445 S
C1599 C1597 1.389 . S
C1599 C1600 1.524 . S
C1600 C1599 1.524 . S
C1600 C1601 1.397 . S
C1600 C1605 1.363 1_545 S
C1601 H1572 0.950 . S
C1601 C1600 1.397 . S
C1601 C1602 1.334 . S
C1602 H1573 0.950 . S
C1602 C1601 1.334 . S
C1602 C1603 1.287 . S
C1603 C1602 1.287 . S
C1603 C1604 1.524 1_545 S
C1603 H1606 0.999 . S
C1604 H1574 0.950 . S
C1604 C1603 1.524 1_565 S
C1604 C1605 1.415 . S
C1605 H1575 0.950 . S
C1605 C1600 1.363 1_565 S
C1605 C1604 1.415 . S
H1606 C1603 0.999 . S
H1607 C1588 0.913 . S
H1608 C1626 0.951 . S
H1609 C1628 0.951 . S
H1610 C1630 0.950 . S
H1611 C1631 0.950 . S
H1612 C1633 0.950 . S
H1613 C1636 0.950 . S
H1614 C1637 0.950 . S
H1615 C1639 0.950 . S
H1616 C1640 0.950 . S
H1617 C1641 0.951 . S
H1618 C1643 0.951 . S
H1619 C1645 0.950 . S
H1620 C1646 0.950 . S
H1621 C1648 0.950 . S
H1622 C1651 0.950 . S
H1623 C1652 0.950 . S
H1624 C1654 0.950 . S
H1625 C1655 0.950 . S
C1626 H1608 0.951 . S
C1626 C1627 1.366 . S
C1626 C1628 1.388 . S
C1627 C1626 1.366 . S
C1627 C1631 1.385 . S
C1628 H1609 0.951 . S
C1628 C1626 1.388 . S
C1628 C1629 1.366 . S
C1629 C1628 1.366 . S
C1629 C1630 1.414 . S
C1629 C1632 1.499 . S
C1630 H1610 0.950 . S
C1630 C1629 1.414 . S
C1630 C1631 1.374 . S
C1631 H1611 0.950 . S
C1631 C1627 1.385 . S
C1631 C1630 1.374 . S
C1632 C1629 1.499 . S
C1632 C1633 1.373 . S
C1632 C1634 1.389 . S
C1633 H1612 0.950 . S
C1633 C1632 1.373 . S
C1633 C1649 1.377 . S
C1634 C1632 1.389 . S
C1634 C1635 1.524 . S
C1634 C1648 1.377 . S
C1635 C1634 1.524 . S
C1635 C1636 1.397 . S
C1635 C1640 1.363 . S
C1636 H1613 0.950 . S
C1636 C1635 1.397 . S
C1636 C1637 1.334 . S
C1637 H1614 0.950 . S
C1637 C1636 1.334 . S
C1637 C1638 1.287 . S
C1638 C1637 1.287 . S
C1638 C1639 1.524 . S
C1638 H1657 0.913 . S
C1639 H1615 0.950 . S
C1639 C1638 1.524 . S
C1639 C1640 1.415 . S
C1640 H1616 0.950 . S
C1640 C1635 1.363 . S
C1640 C1639 1.415 . S
C1641 H1617 0.951 . S
C1641 C1642 1.366 . S
C1641 C1643 1.388 . S
C1642 C1641 1.366 . S
C1642 C1646 1.385 . S
C1643 H1618 0.951 . S
C1643 C1641 1.388 . S
C1643 C1644 1.366 . S
C1644 C1643 1.366 . S
C1644 C1645 1.414 . S
C1644 C1647 1.499 . S
C1645 H1619 0.950 . S
C1645 C1644 1.414 . S
C1645 C1646 1.374 . S
C1646 H1620 0.950 . S
C1646 C1642 1.385 . S
C1646 C1645 1.374 . S
C1647 C1644 1.499 . S
C1647 C1648 1.373 . S
C1647 C1649 1.389 . S
C1648 H1621 0.950 . S
C1648 C1634 1.377 . S
C1648 C1647 1.373 . S
C1649 C1633 1.377 . S
C1649 C1647 1.389 . S
C1649 C1650 1.524 . S
C1650 C1649 1.524 . S
C1650 C1651 1.397 . S
C1650 C1655 1.363 . S
C1651 H1622 0.950 . S
C1651 C1650 1.397 . S
C1651 C1652 1.334 . S
C1652 H1623 0.950 . S
C1652 C1651 1.334 . S
C1652 C1653 1.287 . S
C1653 C1652 1.287 . S
C1653 C1654 1.524 . S
C1653 H1656 0.999 . S
C1654 H1624 0.950 . S
C1654 C1653 1.524 . S
C1654 C1655 1.415 . S
C1655 H1625 0.950 . S
C1655 C1650 1.363 . S
C1655 C1654 1.415 . S
H1656 C1653 0.999 . S
H1657 C1638 0.913 . S
H1658 C1676 0.951 . S
H1659 C1678 0.951 . S
H1660 C1680 0.950 . S
H1661 C1681 0.950 . S
H1662 C1683 0.950 . S
H1663 C1686 0.950 . S
H1664 C1687 0.950 . S
H1665 C1689 0.950 . S
H1666 C1690 0.950 . S
H1667 C1691 0.951 . S
H1668 C1693 0.951 . S
H1669 C1695 0.950 . S
H1670 C1696 0.950 . S
H1671 C1698 0.950 . S
H1672 C1701 0.950 . S
H1673 C1702 0.940 1_655 S
H1674 C1704 0.950 . S
H1675 C1705 0.950 . S
C1676 H1658 0.951 . S
C1676 C1677 1.366 . S
C1676 C1678 1.388 . S
C1677 C1676 1.366 . S
C1677 C1681 1.385 . S
C1678 H1659 0.951 . S
C1678 C1676 1.388 . S
C1678 C1679 1.366 . S
C1679 C1678 1.366 . S
C1679 C1680 1.414 . S
C1679 C1682 1.499 . S
C1680 H1660 0.950 . S
C1680 C1679 1.414 . S
C1680 C1681 1.374 . S
C1681 H1661 0.950 . S
C1681 C1677 1.385 . S
C1681 C1680 1.374 . S
C1682 C1679 1.499 . S
C1682 C1683 1.373 . S
C1682 C1684 1.389 1_455 S
C1683 H1662 0.950 . S
C1683 C1682 1.373 . S
C1683 C1699 1.377 1_455 S
C1684 C1682 1.389 1_655 S
C1684 C1685 1.524 . S
C1684 C1698 1.377 . S
C1685 C1684 1.524 . S
C1685 C1686 1.397 . S
C1685 C1690 1.363 . S
C1686 H1663 0.950 . S
C1686 C1685 1.397 . S
C1686 C1687 1.334 . S
C1687 H1664 0.950 . S
C1687 C1686 1.334 . S
C1687 C1688 1.287 . S
C1688 C1687 1.287 . S
C1688 C1689 1.524 . S
C1688 H1707 0.913 . S
C1689 H1665 0.950 . S
C1689 C1688 1.524 . S
C1689 C1690 1.415 . S
C1690 H1666 0.950 . S
C1690 C1685 1.363 . S
C1690 C1689 1.415 . S
C1691 H1667 0.951 . S
C1691 C1692 1.366 . S
C1691 C1693 1.388 . S
C1692 C1691 1.366 . S
C1692 C1696 1.385 . S
C1693 H1668 0.951 . S
C1693 C1691 1.388 . S
C1693 C1694 1.366 . S
C1694 C1693 1.366 . S
C1694 C1695 1.414 . S
C1694 C1697 1.499 . S
C1695 H1669 0.950 . S
C1695 C1694 1.414 . S
C1695 C1696 1.374 . S
C1696 H1670 0.950 . S
C1696 C1692 1.385 . S
C1696 C1695 1.374 . S
C1697 C1694 1.499 . S
C1697 C1698 1.373 . S
C1697 C1699 1.389 . S
C1698 H1671 0.950 . S
C1698 C1684 1.377 . S
C1698 C1697 1.373 . S
C1699 C1683 1.377 1_655 S
C1699 C1697 1.389 . S
C1699 C1700 1.519 1_655 S
C1700 C1699 1.519 1_455 S
C1700 C1701 1.394 1_455 S
C1700 C1705 1.372 . S
C1701 H1672 0.950 . S
C1701 C1700 1.394 1_655 S
C1701 C1702 1.334 1_655 S
C1702 H1673 0.940 1_455 S
C1702 C1701 1.334 1_455 S
C1702 C1703 1.287 . S
C1703 C1702 1.287 . S
C1703 C1704 1.524 . S
C1703 H1706 0.999 . S
C1704 H1674 0.950 . S
C1704 C1703 1.524 . S
C1704 C1705 1.415 . S
C1705 H1675 0.950 . S
C1705 C1700 1.372 . S
C1705 C1704 1.415 . S
H1706 C1703 0.999 . S
H1707 C1688 0.913 . S
H1708 C1726 0.951 . S
H1709 C1728 0.951 1_455 S
H1710 C1730 0.950 . S
H1711 C1731 0.950 . S
H1712 C1733 0.950 . S
H1713 C1736 0.950 . S
H1714 C1737 0.950 . S
H1715 C1739 0.950 . S
H1716 C1740 0.950 . S
H1717 C1741 0.951 . S
H1718 C1743 0.951 . S
H1719 C1745 0.950 1_565 S
H1720 C1746 0.950 . S
H1721 C1748 0.950 . S
H1722 C1751 0.950 . S
H1723 C1752 0.950 . S
H1724 C1754 0.950 . S
H1725 C1755 0.950 . S
C1726 H1708 0.951 . S
C1726 C1727 1.366 . S
C1726 C1728 1.388 . S
C1727 C1726 1.366 . S
C1727 C1731 1.385 . S
C1728 H1709 0.951 1_655 S
C1728 C1726 1.388 . S
C1728 C1729 1.366 . S
C1729 C1728 1.366 . S
C1729 C1730 1.414 . S
C1729 C1732 1.499 . S
C1730 H1710 0.950 . S
C1730 C1729 1.414 . S
C1730 C1731 1.374 . S
C1731 H1711 0.950 . S
C1731 C1727 1.385 . S
C1731 C1730 1.374 . S
C1732 C1729 1.499 . S
C1732 C1733 1.373 . S
C1732 C1734 1.389 1_655 S
C1733 H1712 0.950 . S
C1733 C1732 1.373 . S
C1733 C1749 1.373 1_665 S
C1734 C1732 1.389 1_455 S
C1734 C1735 1.524 . S
C1734 C1748 1.377 . S
C1735 C1734 1.524 . S
C1735 C1736 1.397 1_455 S
C1735 C1740 1.363 . S
C1736 H1713 0.950 . S
C1736 C1735 1.397 1_655 S
C1736 C1737 1.334 . S
C1737 H1714 0.950 . S
C1737 C1736 1.334 . S
C1737 C1738 1.287 1_655 S
C1738 C1737 1.287 1_455 S
C1738 C1739 1.524 . S
C1738 H1757 0.913 . S
C1739 H1715 0.950 . S
C1739 C1738 1.524 . S
C1739 C1740 1.415 . S
C1740 H1716 0.950 . S
C1740 C1735 1.363 . S
C1740 C1739 1.415 . S
C1741 H1717 0.951 . S
C1741 C1742 1.366 . S
C1741 C1743 1.388 . S
C1742 C1741 1.366 . S
C1742 C1746 1.385 . S
C1743 H1718 0.951 . S
C1743 C1741 1.388 . S
C1743 C1744 1.366 . S
C1744 C1743 1.366 . S
C1744 C1745 1.414 . S
C1744 C1747 1.531 . S
C1745 H1719 0.950 1_545 S
C1745 C1744 1.414 . S
C1745 C1746 1.374 . S
C1746 H1720 0.950 . S
C1746 C1742 1.385 . S
C1746 C1745 1.374 . S
C1747 C1744 1.531 . S
C1747 C1748 1.344 1_545 S
C1747 C1749 1.389 . S
C1748 H1721 0.950 . S
C1748 C1734 1.377 . S
C1748 C1747 1.344 1_565 S
C1749 C1733 1.373 1_445 S
C1749 C1747 1.389 . S
C1749 C1750 1.528 . S
C1750 C1749 1.528 . S
C1750 C1751 1.397 . S
C1750 C1755 1.363 1_455 S
C1751 H1722 0.950 . S
C1751 C1750 1.397 . S
C1751 C1752 1.334 . S
C1752 H1723 0.950 . S
C1752 C1751 1.334 . S
C1752 C1753 1.287 . S
C1753 C1752 1.287 . S
C1753 C1754 1.524 1_455 S
C1753 H1756 0.999 . S
C1754 H1724 0.950 . S
C1754 C1753 1.524 1_655 S
C1754 C1755 1.415 . S
C1755 H1725 0.950 . S
C1755 C1750 1.363 1_655 S
C1755 C1754 1.415 . S
H1756 C1753 0.999 . S
H1757 C1738 0.913 . S
H1758 C1776 0.951 . S
H1759 C1778 0.951 . S
H1760 C1780 0.981 . S
H1761 C1781 0.950 . S
H1762 C1783 0.950 . S
H1763 C1786 0.950 1_545 S
H1764 C1787 0.950 . S
H1765 C1789 0.950 . S
H1766 C1790 0.950 . S
H1767 C1791 0.951 . S
H1768 C1793 0.951 . S
H1769 C1795 0.950 . S
H1770 C1796 0.950 . S
H1771 C1798 0.950 . S
H1772 C1801 0.950 . S
H1773 C1802 0.950 . S
H1774 C1804 0.950 . S
H1775 C1805 0.950 . S
C1776 H1758 0.951 . S
C1776 C1777 1.366 . S
C1776 C1778 1.388 . S
C1777 C1776 1.366 . S
C1777 C1781 1.385 . S
C1778 H1759 0.951 . S
C1778 C1776 1.388 . S
C1778 C1779 1.366 . S
C1779 C1778 1.366 . S
C1779 C1780 1.414 . S
C1779 C1782 1.519 . S
C1780 H1760 0.981 . S
C1780 C1779 1.414 . S
C1780 C1781 1.374 . S
C1781 H1761 0.950 . S
C1781 C1777 1.385 . S
C1781 C1780 1.374 . S
C1782 C1779 1.519 . S
C1782 C1783 1.360 1_565 S
C1782 C1784 1.383 1_565 S
C1783 H1762 0.950 . S
C1783 C1782 1.360 1_545 S
C1783 C1799 1.377 . S
C1784 C1782 1.383 1_545 S
C1784 C1785 1.524 1_545 S
C1784 C1798 1.377 . S
C1785 C1784 1.524 1_565 S
C1785 C1786 1.397 . S
C1785 C1790 1.363 . S
C1786 H1763 0.950 1_565 S
C1786 C1785 1.397 . S
C1786 C1787 1.334 . S
C1787 H1764 0.950 . S
C1787 C1786 1.334 . S
C1787 C1788 1.287 . S
C1788 C1787 1.287 . S
C1788 C1789 1.524 . S
C1788 H1807 0.913 . S
C1789 H1765 0.950 . S
C1789 C1788 1.524 . S
C1789 C1790 1.415 . S
C1790 H1766 0.950 . S
C1790 C1785 1.363 . S
C1790 C1789 1.415 . S
C1791 H1767 0.951 . S
C1791 C1792 1.366 . S
C1791 C1793 1.388 . S
C1792 C1791 1.366 . S
C1792 C1796 1.385 . S
C1793 H1768 0.951 . S
C1793 C1791 1.388 . S
C1793 C1794 1.366 . S
C1794 C1793 1.366 . S
C1794 C1795 1.414 . S
C1794 C1797 1.499 . S
C1795 H1769 0.950 . S
C1795 C1794 1.414 . S
C1795 C1796 1.374 . S
C1796 H1770 0.950 . S
C1796 C1792 1.385 . S
C1796 C1795 1.374 . S
C1797 C1794 1.499 . S
C1797 C1798 1.373 . S
C1797 C1799 1.389 . S
C1798 H1771 0.950 . S
C1798 C1784 1.377 . S
C1798 C1797 1.373 . S
C1799 C1783 1.377 . S
C1799 C1797 1.389 . S
C1799 C1800 1.524 . S
C1800 C1799 1.524 . S
C1800 C1801 1.397 . S
C1800 C1805 1.363 . S
C1801 H1772 0.950 . S
C1801 C1800 1.397 . S
C1801 C1802 1.334 . S
C1802 H1773 0.950 . S
C1802 C1801 1.334 . S
C1802 C1803 1.287 . S
C1803 C1802 1.287 . S
C1803 C1804 1.524 . S
C1803 H1806 0.999 . S
C1804 H1774 0.950 . S
C1804 C1803 1.524 . S
C1804 C1805 1.415 . S
C1805 H1775 0.950 . S
C1805 C1800 1.363 . S
C1805 C1804 1.415 . S
H1806 C1803 0.999 . S
H1807 C1788 0.913 . S
C227 C95 1.425 . S
C242 C10 1.425 . S
C277 C56 1.424 . S
C292 C17 1.424 . S
C327 C75 1.424 . S
C342 C30 1.424 . S
C377 C49 1.424 . S
C392 C88 1.424 . S
C427 C205 1.424 . S
C442 C108 1.424 . S
C477 C166 1.424 . S
C492 C127 1.425 . S
C527 C140 1.425 . S
C542 C173 1.424 . S
C577 C153 1.424 . S
C592 C192 1.424 . S
C627 C29 1.008 . S
C642 C5 1.009 . S
C677 C16 1.008 . S
C692 C44 1.009 . S
C727 C55 1.008 . S
C742 C83 1.008 . S
C777 C94 1.009 . S
C792 C70 1.009 . S
C827 C107 1.009 . S
C842 C135 1.008 . S
C877 C122 1.009 . S
C892 C148 1.009 . S
C927 C187 1.010 . S
C942 C161 1.009 . S
C977 C172 1.010 . S
C992 C200 1.009 . S
C1027 C81 1.264 . S
C1042 C3 1.263 . S
C1077 C18 1.263 . S
C1092 C96 1.263 . S
C1127 C31 1.263 . S
C1142 C57 1.264 . S
C1177 C42 1.263 . S
C1192 C68 1.264 . S
C1227 C109 1.264 . S
C1242 C185 1.263 . S
C1277 C120 1.264 . S
C1292 C198 1.264 . S
C1327 C133 1.264 . S
C1342 C159 1.263 . S
C1377 C146 1.264 . S
C1392 C174 1.264 . S
C1427 C4 1.214 . S
C1442 C199 1.215 . S
C1477 C160 1.215 . S
C1492 C23 1.214 . S
C1527 C36 1.214 . S
C1542 C179 1.214 . S
C1577 C186 1.215 . S
C1592 C43 1.214 . S
C1627 C121 1.214 . S
C1642 C62 1.215 . S
C1677 C69 1.215 . S
C1692 C134 1.214 . S
C1727 C147 1.215 . S
C1742 C82 1.214 . S
C1777 C114 1.214 . S
C1792 C101 1.214 . S
