# Generated by pormake.
# Topology fnk, (5)-cn, num edge types: 1
# Building blocks:
#     Node 0, Type 0, BuildingBlock: XOMCOT_clean_sbu_0, # of connection points: 5
#     Node 1, Type 0, BuildingBlock: XOMCOT_clean_sbu_0, # of connection points: 5
#     Node 2, Type 0, BuildingBlock: XOMCOT_clean_sbu_0, # of connection points: 5
#     Node 3, Type 0, BuildingBlock: XOMCOT_clean_sbu_0, # of connection points: 5
#     Node 4, Type 0, BuildingBlock: XOMCOT_clean_sbu_0, # of connection points: 5
#     Node 5, Type 0, BuildingBlock: XOMCOT_clean_sbu_0, # of connection points: 5
#     Node 6, Type 0, BuildingBlock: XOMCOT_clean_sbu_0, # of connection points: 5
#     Node 7, Type 0, BuildingBlock: XOMCOT_clean_sbu_0, # of connection points: 5
#     Node 8, Type 0, BuildingBlock: XOMCOT_clean_sbu_0, # of connection points: 5
#     Node 9, Type 0, BuildingBlock: XOMCOT_clean_sbu_0, # of connection points: 5
#     Node 10, Type 0, BuildingBlock: XOMCOT_clean_sbu_0, # of connection points: 5
#     Node 11, Type 0, BuildingBlock: XOMCOT_clean_sbu_0, # of connection points: 5
#     Node 12, Type 0, BuildingBlock: XOMCOT_clean_sbu_0, # of connection points: 5
#     Node 13, Type 0, BuildingBlock: XOMCOT_clean_sbu_0, # of connection points: 5
#     Node 14, Type 0, BuildingBlock: XOMCOT_clean_sbu_0, # of connection points: 5
#     Node 15, Type 0, BuildingBlock: XOMCOT_clean_sbu_0, # of connection points: 5
#     Edge 16, Type (0, 0), BuildingBlock: CIFDUS_clean_linker_0, # of connection points: 2
#     Edge 17, Type (0, 0), BuildingBlock: CIFDUS_clean_linker_0, # of connection points: 2
#     Edge 18, Type (0, 0), BuildingBlock: CIFDUS_clean_linker_0, # of connection points: 2
#     Edge 19, Type (0, 0), BuildingBlock: CIFDUS_clean_linker_0, # of connection points: 2
#     Edge 20, Type (0, 0), BuildingBlock: CIFDUS_clean_linker_0, # of connection points: 2
#     Edge 21, Type (0, 0), BuildingBlock: CIFDUS_clean_linker_0, # of connection points: 2
#     Edge 22, Type (0, 0), BuildingBlock: CIFDUS_clean_linker_0, # of connection points: 2
#     Edge 23, Type (0, 0), BuildingBlock: CIFDUS_clean_linker_0, # of connection points: 2
#     Edge 24, Type (0, 0), BuildingBlock: CIFDUS_clean_linker_0, # of connection points: 2
#     Edge 25, Type (0, 0), BuildingBlock: CIFDUS_clean_linker_0, # of connection points: 2
#     Edge 26, Type (0, 0), BuildingBlock: CIFDUS_clean_linker_0, # of connection points: 2
#     Edge 27, Type (0, 0), BuildingBlock: CIFDUS_clean_linker_0, # of connection points: 2
#     Edge 28, Type (0, 0), BuildingBlock: CIFDUS_clean_linker_0, # of connection points: 2
#     Edge 29, Type (0, 0), BuildingBlock: CIFDUS_clean_linker_0, # of connection points: 2
#     Edge 30, Type (0, 0), BuildingBlock: CIFDUS_clean_linker_0, # of connection points: 2
#     Edge 31, Type (0, 0), BuildingBlock: CIFDUS_clean_linker_0, # of connection points: 2
#     Edge 32, Type (0, 0), BuildingBlock: CIFDUS_clean_linker_0, # of connection points: 2
#     Edge 33, Type (0, 0), BuildingBlock: CIFDUS_clean_linker_0, # of connection points: 2
#     Edge 34, Type (0, 0), BuildingBlock: CIFDUS_clean_linker_0, # of connection points: 2
#     Edge 35, Type (0, 0), BuildingBlock: CIFDUS_clean_linker_0, # of connection points: 2
#     Edge 36, Type (0, 0), BuildingBlock: CIFDUS_clean_linker_0, # of connection points: 2
#     Edge 37, Type (0, 0), BuildingBlock: CIFDUS_clean_linker_0, # of connection points: 2
#     Edge 38, Type (0, 0), BuildingBlock: CIFDUS_clean_linker_0, # of connection points: 2
#     Edge 39, Type (0, 0), BuildingBlock: CIFDUS_clean_linker_0, # of connection points: 2
#     Edge 40, Type (0, 0), BuildingBlock: CIFDUS_clean_linker_0, # of connection points: 2
#     Edge 41, Type (0, 0), BuildingBlock: CIFDUS_clean_linker_0, # of connection points: 2
#     Edge 42, Type (0, 0), BuildingBlock: CIFDUS_clean_linker_0, # of connection points: 2
#     Edge 43, Type (0, 0), BuildingBlock: CIFDUS_clean_linker_0, # of connection points: 2
#     Edge 44, Type (0, 0), BuildingBlock: CIFDUS_clean_linker_0, # of connection points: 2
#     Edge 45, Type (0, 0), BuildingBlock: CIFDUS_clean_linker_0, # of connection points: 2
#     Edge 46, Type (0, 0), BuildingBlock: CIFDUS_clean_linker_0, # of connection points: 2
#     Edge 47, Type (0, 0), BuildingBlock: CIFDUS_clean_linker_0, # of connection points: 2
#     Edge 48, Type (0, 0), BuildingBlock: CIFDUS_clean_linker_0, # of connection points: 2
#     Edge 49, Type (0, 0), BuildingBlock: CIFDUS_clean_linker_0, # of connection points: 2
#     Edge 50, Type (0, 0), BuildingBlock: CIFDUS_clean_linker_0, # of connection points: 2
#     Edge 51, Type (0, 0), BuildingBlock: CIFDUS_clean_linker_0, # of connection points: 2
#     Edge 52, Type (0, 0), BuildingBlock: CIFDUS_clean_linker_0, # of connection points: 2
#     Edge 53, Type (0, 0), BuildingBlock: CIFDUS_clean_linker_0, # of connection points: 2
#     Edge 54, Type (0, 0), BuildingBlock: CIFDUS_clean_linker_0, # of connection points: 2
#     Edge 55, Type (0, 0), BuildingBlock: CIFDUS_clean_linker_0, # of connection points: 2
# Relax obj value: 0.404
# Max RMSD: 0.219
# Mean RMSD: 0.212
data_MOF--net-fnk--node1-XOMCOT_clean_sbu_0--edge1-CIFDUS_clean_linker_0
_symmetry_space_group_name_H-M    P1
_symmetry_Int_Tables_number       1
_symmetry_cell_setting            triclinic
loop_
_symmetry_equiv_pos_as_xyz
'x, y, z'
_cell_length_a     41.852042
_cell_length_b     41.638686
_cell_length_c     44.811751
_cell_angle_alpha  90.119939
_cell_angle_beta   90.187768
_cell_angle_gamma 89.850842
loop_
_atom_site_label
_atom_site_type_symbol
_atom_site_fract_x
_atom_site_fract_y
_atom_site_fract_z
_atom_type_partial_charge
Co0 Co 0.09792 0.35932 0.21849 0.0
C1 C 0.15449 0.32028 0.23542 0.0
C2 C 0.14085 0.35324 0.26991 0.0
C3 C 0.16581 0.3348 0.28028 0.0
N4 N 0.13406 0.34441 0.24162 0.0
N5 N 0.17428 0.31401 0.25856 0.0
H6 H 0.15407 0.30654 0.21503 0.0
H7 H 0.12817 0.37158 0.28229 0.0
C8 C 0.13885 0.41808 0.23065 0.0
O9 O 0.16532 0.40118 0.22895 0.0
N10 N 0.06141 0.37335 0.19569 0.0
C11 C 0.04299 0.35469 0.178 0.0
C12 C 0.02012 0.37358 0.16459 0.0
C13 C 0.04988 0.40331 0.19254 0.0
N14 N 0.02481 0.40404 0.17364 0.0
C15 C 0.12033 0.32426 0.16756 0.0
C16 C 0.13425 0.37725 0.13296 0.0
C17 C 0.13289 0.34704 0.1191 0.0
C18 C 0.12698 0.32021 0.13719 0.0
C19 C 0.12765 0.38026 0.16348 0.0
N20 N 0.1202 0.35402 0.18044 0.0
H21 H 0.11319 0.30349 0.18025 0.0
H22 H 0.12588 0.40418 0.17248 0.0
H23 H 0.04624 0.32917 0.17465 0.0
H24 H 0.05939 0.42419 0.20376 0.0
O25 O 0.07773 0.31729 0.22258 0.0
O26 O 0.07237 0.35813 0.25393 0.0
O27 O 0.1119 0.40541 0.22411 0.0
C28 C 0.06475 0.32901 0.24667 0.0
H29 H 0.17666 0.33648 0.30217 0.0
H30 H 0.00201 0.3658 0.14888 0.0
H31 H 0.13803 0.39881 0.11999 0.0
H32 H 0.12596 0.29629 0.12771 0.0
Co33 Co 0.6466 0.097 0.20832 0.0
C34 C 0.68464 0.15338 0.2258 0.0
C35 C 0.69462 0.11355 0.25468 0.0
C36 C 0.71157 0.13966 0.26471 0.0
N37 N 0.67777 0.1221 0.23016 0.0
N38 N 0.70525 0.16455 0.2465 0.0
H39 H 0.67401 0.16804 0.2085 0.0
H40 H 0.69438 0.09029 0.26521 0.0
C41 C 0.58198 0.12979 0.22019 0.0
O42 O 0.57013 0.12142 0.19415 0.0
N43 N 0.61589 0.07181 0.18659 0.0
C44 C 0.61605 0.06405 0.15734 0.0
C45 C 0.58853 0.04737 0.15088 0.0
C46 C 0.58939 0.05846 0.1978 0.0
N47 N 0.57174 0.04453 0.17631 0.0
C48 C 0.68198 0.11589 0.15704 0.0
C49 C 0.63442 0.15112 0.12943 0.0
C50 C 0.66079 0.14117 0.11247 0.0
C51 C 0.68557 0.12485 0.12714 0.0
C52 C 0.6321 0.14219 0.15952 0.0
N53 N 0.6545 0.12258 0.17229 0.0
H54 H 0.70056 0.10164 0.16732 0.0
H55 H 0.61179 0.15031 0.17183 0.0
H56 H 0.6343 0.07077 0.14156 0.0
H57 H 0.58221 0.06063 0.22092 0.0
O58 O 0.67745 0.06269 0.20137 0.0
O59 O 0.64529 0.06596 0.24039 0.0
O60 O 0.6119 0.12616 0.22583 0.0
C61 C 0.66717 0.05007 0.22606 0.0
H62 H 0.72736 0.14031 0.28388 0.0
H63 H 0.58066 0.03949 0.12903 0.0
H64 H 0.61529 0.16489 0.11929 0.0
H65 H 0.70664 0.1171 0.11512 0.0
Co66 Co 0.89138 0.63518 0.18383 0.0
C67 C 0.83757 0.67764 0.2057 0.0
C68 C 0.86355 0.65321 0.2403 0.0
C69 C 0.84018 0.67122 0.25339 0.0
N70 N 0.8624 0.6574 0.21045 0.0
N71 N 0.82389 0.68653 0.23175 0.0
H72 H 0.82919 0.68528 0.18403 0.0
H73 H 0.87974 0.63727 0.25192 0.0
C74 C 0.84128 0.58737 0.20114 0.0
O75 O 0.81887 0.60785 0.19333 0.0
N76 N 0.9208 0.61259 0.1586 0.0
C77 C 0.9375 0.62432 0.13538 0.0
C78 C 0.95811 0.60074 0.12543 0.0
C79 C 0.93103 0.58233 0.16239 0.0
N80 N 0.95363 0.57446 0.14239 0.0
C81 C 0.86351 0.67027 0.13518 0.0
C82 C 0.84424 0.61657 0.10349 0.0
C83 C 0.84484 0.64624 0.08899 0.0
C84 C 0.85386 0.67349 0.1053 0.0
C85 C 0.85428 0.61431 0.1332 0.0
N86 N 0.86417 0.64087 0.14872 0.0
H87 H 0.87256 0.69111 0.14682 0.0
H88 H 0.8569 0.59064 0.1426 0.0
H89 H 0.93547 0.64853 0.12686 0.0
H90 H 0.92324 0.56682 0.18029 0.0
O91 O 0.9181 0.67344 0.18081 0.0
O92 O 0.92303 0.63537 0.21503 0.0
O93 O 0.87066 0.5935 0.19599 0.0
C94 C 0.93304 0.66233 0.20418 0.0
H95 H 0.83466 0.67201 0.27697 0.0
H96 H 0.97531 0.60281 0.10756 0.0
H97 H 0.83806 0.59492 0.09134 0.0
H98 H 0.85503 0.69676 0.09461 0.0
Co99 Co 0.35794 0.87284 0.20483 0.0
C100 C 0.39649 0.92666 0.1835 0.0
C101 C 0.3725 0.93803 0.22439 0.0
C102 C 0.39326 0.9624 0.21795 0.0
N103 N 0.37433 0.91583 0.20264 0.0
N104 N 0.40865 0.95516 0.1923 0.0
H105 H 0.40471 0.91278 0.16462 0.0
H106 H 0.35948 0.9353 0.24499 0.0
C107 C 0.29743 0.90949 0.22136 0.0
O108 O 0.28611 0.91085 0.1941 0.0
N109 N 0.34272 0.8291 0.20966 0.0
C110 C 0.35873 0.80228 0.20143 0.0
C111 C 0.34492 0.77614 0.21449 0.0
C112 C 0.31986 0.81869 0.22854 0.0
N113 N 0.32075 0.78643 0.23185 0.0
C114 C 0.33428 0.85058 0.14682 0.0
C115 C 0.32664 0.91023 0.12117 0.0
C116 C 0.32503 0.88307 0.10273 0.0
C117 C 0.32778 0.85297 0.11629 0.0
C118 C 0.33302 0.90682 0.15178 0.0
N119 N 0.33783 0.8772 0.16459 0.0
H120 H 0.33773 0.82684 0.15514 0.0
H121 H 0.33468 0.92856 0.16481 0.0
H122 H 0.37953 0.8016 0.18721 0.0
H123 H 0.30425 0.83438 0.24108 0.0
O124 O 0.39944 0.85706 0.19219 0.0
O125 O 0.38524 0.86597 0.23909 0.0
O126 O 0.32009 0.89016 0.22799 0.0
C127 C 0.40731 0.8572 0.22036 0.0
H128 H 0.39863 0.98222 0.23275 0.0
H129 H 0.35255 0.75146 0.21175 0.0
H130 H 0.32447 0.93414 0.11189 0.0
H131 H 0.32588 0.83113 0.10324 0.0
Co132 Co 0.1089 0.63594 0.33779 0.0
C133 C 0.16331 0.67951 0.32225 0.0
C134 C 0.15903 0.63843 0.2935 0.0
C135 C 0.18398 0.65666 0.28364 0.0
N136 N 0.14665 0.65205 0.31827 0.0
N137 N 0.18655 0.68235 0.30166 0.0
H138 H 0.15827 0.69747 0.33897 0.0
H139 H 0.1498 0.61716 0.28266 0.0
C140 C 0.15122 0.57672 0.33118 0.0
O141 O 0.17639 0.59175 0.3418 0.0
N142 N 0.071 0.61934 0.35587 0.0
C143 C 0.05602 0.62888 0.38097 0.0
C144 C 0.03088 0.60823 0.38609 0.0
C145 C 0.05471 0.59391 0.3457 0.0
N146 N 0.03022 0.58653 0.36371 0.0
C147 C 0.13115 0.66874 0.39044 0.0
C148 C 0.13795 0.61462 0.4255 0.0
C149 C 0.14054 0.64486 0.43921 0.0
C150 C 0.13778 0.67213 0.42096 0.0
C151 C 0.13148 0.61228 0.39488 0.0
N152 N 0.12808 0.63913 0.3776 0.0
H153 H 0.12625 0.69009 0.37764 0.0
H154 H 0.12665 0.58879 0.3858 0.0
H155 H 0.06328 0.64883 0.39489 0.0
H156 H 0.06141 0.58031 0.32607 0.0
O157 O 0.08787 0.67769 0.33484 0.0
O158 O 0.08664 0.63937 0.30046 0.0
O159 O 0.12391 0.59044 0.33098 0.0
C160 C 0.07726 0.66757 0.30907 0.0
H161 H 0.1983 0.65222 0.26396 0.0
H162 H 0.01465 0.60884 0.40484 0.0
H163 H 0.13884 0.5928 0.43859 0.0
H164 H 0.13954 0.69606 0.43031 0.0
Co165 Co 0.3604 0.10997 0.32883 0.0
C166 C 0.31279 0.16053 0.31382 0.0
C167 C 0.34763 0.15281 0.27943 0.0
C168 C 0.32716 0.17654 0.27023 0.0
N169 N 0.33876 0.14296 0.30671 0.0
N170 N 0.30514 0.18138 0.29176 0.0
H171 H 0.29968 0.15783 0.33442 0.0
H172 H 0.36763 0.14327 0.26702 0.0
C173 C 0.4305 0.13512 0.32785 0.0
O174 O 0.43716 0.12707 0.35552 0.0
N175 N 0.38227 0.07643 0.35043 0.0
C176 C 0.37188 0.05939 0.37412 0.0
C177 C 0.39564 0.03856 0.38296 0.0
C178 C 0.41133 0.06452 0.34426 0.0
N179 N 0.42047 0.04245 0.36439 0.0
C180 C 0.33249 0.12321 0.38596 0.0
C181 C 0.37347 0.17143 0.40349 0.0
C182 C 0.35385 0.15732 0.42537 0.0
C183 C 0.33219 0.13375 0.41563 0.0
C184 C 0.37341 0.15961 0.37406 0.0
N185 N 0.35475 0.13407 0.36622 0.0
H186 H 0.31591 0.10468 0.37944 0.0
H187 H 0.38886 0.17075 0.35795 0.0
H188 H 0.34866 0.0614 0.38429 0.0
H189 H 0.42562 0.07168 0.32536 0.0
O190 O 0.32173 0.0835 0.32878 0.0
O191 O 0.35907 0.08285 0.29395 0.0
O192 O 0.40216 0.13169 0.31745 0.0
C193 C 0.3322 0.07169 0.30368 0.0
H194 H 0.32881 0.18953 0.24942 0.0
H195 H 0.39503 0.02236 0.40181 0.0
H196 H 0.38932 0.19106 0.40904 0.0
H197 H 0.31607 0.12204 0.43093 0.0
Co198 Co 0.86414 0.37525 0.3288 0.0
C199 C 0.80957 0.33458 0.31107 0.0
C200 C 0.82196 0.36824 0.27697 0.0
C201 C 0.79848 0.34836 0.26604 0.0
N202 N 0.82845 0.35997 0.30541 0.0
N203 N 0.79086 0.32702 0.28747 0.0
H204 H 0.81125 0.32034 0.33106 0.0
H205 H 0.83439 0.38663 0.2646 0.0
C206 C 0.82835 0.43625 0.31004 0.0
O207 O 0.80024 0.42234 0.3109 0.0
N208 N 0.90003 0.38999 0.35176 0.0
C209 C 0.91244 0.37676 0.37666 0.0
C210 C 0.93547 0.39711 0.38788 0.0
C211 C 0.91587 0.41756 0.34778 0.0
N212 N 0.93739 0.42279 0.36966 0.0
C213 C 0.83701 0.34699 0.38104 0.0
C214 C 0.82139 0.40376 0.4095 0.0
C215 C 0.82053 0.37514 0.42599 0.0
C216 C 0.82766 0.34639 0.41095 0.0
C217 C 0.83124 0.40336 0.37966 0.0
N218 N 0.83936 0.37522 0.36575 0.0
H219 H 0.8448 0.32477 0.37097 0.0
H220 H 0.83439 0.42614 0.3688 0.0
H221 H 0.90467 0.35441 0.38647 0.0
H222 H 0.91082 0.43404 0.32983 0.0
O223 O 0.88237 0.33204 0.32974 0.0
O224 O 0.89133 0.36863 0.29494 0.0
O225 O 0.85343 0.42134 0.31869 0.0
C226 C 0.89699 0.34013 0.30527 0.0
H227 H 0.78877 0.34894 0.24365 0.0
H228 H 0.94926 0.39353 0.40808 0.0
H229 H 0.81581 0.42661 0.41985 0.0
H230 H 0.82818 0.32365 0.4226 0.0
Co231 Co 0.62201 0.8548 0.32394 0.0
C232 C 0.58012 0.90432 0.34964 0.0
C233 C 0.60749 0.92232 0.31281 0.0
C234 C 0.58746 0.94618 0.32247 0.0
N235 N 0.60301 0.89626 0.33001 0.0
N236 N 0.57021 0.9348 0.34553 0.0
H237 H 0.57028 0.88787 0.36583 0.0
H238 H 0.62289 0.92345 0.29354 0.0
C239 C 0.6859 0.88942 0.31522 0.0
O240 O 0.69842 0.88018 0.34069 0.0
N241 N 0.64133 0.81322 0.31629 0.0
C242 C 0.62636 0.78535 0.30964 0.0
C243 C 0.64866 0.76331 0.30008 0.0
C244 C 0.67252 0.80741 0.3112 0.0
N245 N 0.67753 0.77739 0.30106 0.0
C246 C 0.6347 0.82839 0.3819 0.0
C247 C 0.65142 0.88534 0.4095 0.0
C248 C 0.64629 0.85821 0.42739 0.0
C249 C 0.63865 0.82922 0.41299 0.0
C250 C 0.64692 0.88358 0.3786 0.0
N251 N 0.6385 0.85538 0.36497 0.0
H252 H 0.62644 0.80639 0.3717 0.0
H253 H 0.6491 0.90543 0.36582 0.0
H254 H 0.60089 0.78137 0.31046 0.0
H255 H 0.69116 0.82509 0.31327 0.0
O256 O 0.58102 0.83533 0.3321 0.0
O257 O 0.59741 0.85121 0.28752 0.0
O258 O 0.65978 0.87745 0.30564 0.0
C259 C 0.57447 0.83988 0.30395 0.0
H260 H 0.58421 0.9693 0.31187 0.0
H261 H 0.64399 0.7391 0.29237 0.0
H262 H 0.65779 0.90823 0.41933 0.0
H263 H 0.6338 0.80772 0.42572 0.0
Co264 Co 0.83928 0.58818 0.81162 0.0
C265 C 0.7971 0.64388 0.80008 0.0
C266 C 0.83841 0.64326 0.77175 0.0
C267 C 0.81978 0.66904 0.764 0.0
N268 N 0.8243 0.62764 0.79442 0.0
N269 N 0.7937 0.66932 0.78162 0.0
H270 H 0.77975 0.63653 0.81654 0.0
H271 H 0.86034 0.63603 0.76094 0.0
C272 C 0.91231 0.59612 0.81003 0.0
O273 O 0.91702 0.58385 0.83668 0.0
N274 N 0.85448 0.54803 0.82803 0.0
C275 C 0.84391 0.5319 0.85213 0.0
C276 C 0.8621 0.5046 0.85564 0.0
C277 C 0.87759 0.52941 0.81632 0.0
N278 N 0.88337 0.50328 0.83318 0.0
C279 C 0.81704 0.60148 0.87103 0.0
C280 C 0.8674 0.63947 0.8892 0.0
C281 C 0.84531 0.62926 0.91077 0.0
C282 C 0.81916 0.61103 0.90093 0.0
C283 C 0.86434 0.6293 0.85945 0.0
N284 N 0.84069 0.60852 0.85115 0.0
H285 H 0.79693 0.58701 0.86426 0.0
H286 H 0.88128 0.63803 0.84338 0.0
H287 H 0.82451 0.53909 0.86641 0.0
H288 H 0.89108 0.53572 0.79664 0.0
O289 O 0.79611 0.57052 0.81185 0.0
O290 O 0.83058 0.56675 0.77458 0.0
O291 O 0.88409 0.60104 0.80016 0.0
C292 C 0.80273 0.55974 0.78524 0.0
H293 H 0.82503 0.68611 0.74652 0.0
H294 H 0.86044 0.48755 0.87377 0.0
H295 H 0.88715 0.65492 0.89529 0.0
H296 H 0.80111 0.60285 0.91639 0.0
Co297 Co 0.36167 0.88167 0.82086 0.0
C298 C 0.30697 0.83907 0.80862 0.0
C299 C 0.30994 0.87724 0.77684 0.0
C300 C 0.2867 0.85609 0.76745 0.0
N301 N 0.32237 0.86673 0.80288 0.0
N302 N 0.28501 0.8321 0.78751 0.0
H303 H 0.31341 0.8228 0.82628 0.0
H304 H 0.31856 0.89776 0.76452 0.0
C305 C 0.32217 0.94277 0.81323 0.0
O306 O 0.29568 0.92911 0.82232 0.0
N307 N 0.4011 0.8961 0.83822 0.0
C308 C 0.41965 0.87974 0.85761 0.0
C309 C 0.44554 0.8985 0.86494 0.0
C310 C 0.41568 0.92442 0.83399 0.0
N311 N 0.44276 0.92654 0.85018 0.0
C312 C 0.34274 0.85036 0.87487 0.0
C313 C 0.33604 0.90519 0.90916 0.0
C314 C 0.3353 0.87523 0.92343 0.0
C315 C 0.33771 0.84762 0.90557 0.0
C316 C 0.34084 0.90689 0.87821 0.0
N317 N 0.34423 0.87966 0.86131 0.0
H318 H 0.34786 0.82875 0.86252 0.0
H319 H 0.34434 0.93028 0.86853 0.0
H320 H 0.41459 0.85596 0.86597 0.0
H321 H 0.40694 0.94298 0.81918 0.0
O322 O 0.38028 0.8388 0.81723 0.0
O323 O 0.38222 0.87693 0.78289 0.0
O324 O 0.34869 0.92765 0.8142 0.0
C325 C 0.39018 0.84818 0.79112 0.0
H326 H 0.27307 0.8576 0.74694 0.0
H327 H 0.46458 0.89231 0.88031 0.0
H328 H 0.33513 0.92724 0.92198 0.0
H329 H 0.33727 0.82389 0.9154 0.0
Co330 Co 0.11843 0.3624 0.83716 0.0
C331 C 0.06928 0.40783 0.85817 0.0
C332 C 0.10271 0.43027 0.82862 0.0
C333 C 0.07743 0.45078 0.83277 0.0
N334 N 0.09747 0.40315 0.8443 0.0
N335 N 0.05642 0.43646 0.85107 0.0
H336 H 0.05659 0.38932 0.87016 0.0
H337 H 0.12163 0.43376 0.81263 0.0
C338 C 0.18214 0.3987 0.82879 0.0
O339 O 0.19305 0.39393 0.85588 0.0
N340 N 0.13959 0.3219 0.82815 0.0
C341 C 0.12605 0.29408 0.81904 0.0
C342 C 0.14964 0.27359 0.80915 0.0
C343 C 0.17123 0.3175 0.8242 0.0
N344 N 0.17793 0.28852 0.81229 0.0
C345 C 0.13374 0.33351 0.89355 0.0
C346 C 0.14658 0.38962 0.92432 0.0
C347 C 0.14551 0.3607 0.94035 0.0
C348 C 0.13947 0.33234 0.92433 0.0
C349 C 0.14075 0.38974 0.89351 0.0
N350 N 0.13458 0.36188 0.87829 0.0
H351 H 0.12715 0.31156 0.88227 0.0
H352 H 0.14065 0.41255 0.88207 0.0
H353 H 0.10074 0.28915 0.81837 0.0
H354 H 0.18905 0.33557 0.82848 0.0
O355 O 0.07822 0.34073 0.8441 0.0
O356 O 0.09448 0.35924 0.80035 0.0
O357 O 0.15581 0.3865 0.81994 0.0
C358 C 0.07186 0.34622 0.81606 0.0
H359 H 0.07317 0.47298 0.82083 0.0
H360 H 0.14619 0.24987 0.79975 0.0
H361 H 0.15054 0.41228 0.93561 0.0
H362 H 0.13847 0.30936 0.93555 0.0
Co363 Co 0.62439 0.12579 0.8299 0.0
C364 C 0.68572 0.16101 0.81967 0.0
C365 C 0.68274 0.11653 0.7957 0.0
C366 C 0.71102 0.13091 0.78853 0.0
N367 N 0.6673 0.13462 0.81614 0.0
N368 N 0.71284 0.15881 0.80355 0.0
H369 H 0.6789 0.18209 0.8322 0.0
H370 H 0.67326 0.09529 0.78506 0.0
C371 C 0.65613 0.05974 0.83149 0.0
O372 O 0.68029 0.07021 0.84755 0.0
N373 N 0.5815 0.11671 0.84246 0.0
C374 C 0.5624 0.13484 0.8599 0.0
C375 C 0.53429 0.11835 0.86456 0.0
C376 C 0.565 0.08985 0.83656 0.0
N377 N 0.53635 0.09004 0.85005 0.0
C378 C 0.64596 0.1547 0.88531 0.0
C379 C 0.63272 0.10194 0.92047 0.0
C380 C 0.64158 0.13067 0.93452 0.0
C381 C 0.64899 0.15711 0.9165 0.0
C382 C 0.63041 0.10041 0.88939 0.0
N383 N 0.637 0.12653 0.87201 0.0
H384 H 0.64873 0.17611 0.87216 0.0
H385 H 0.62111 0.07869 0.87955 0.0
H386 H 0.56881 0.15794 0.8692 0.0
H387 H 0.57386 0.07025 0.82301 0.0
O388 O 0.61152 0.17043 0.82393 0.0
O389 O 0.60936 0.13179 0.78989 0.0
O390 O 0.63266 0.07827 0.82541 0.0
C391 C 0.60335 0.16136 0.79705 0.0
H392 H 0.72787 0.12274 0.77185 0.0
H393 H 0.51456 0.12589 0.87849 0.0
H394 H 0.62642 0.08102 0.93351 0.0
H395 H 0.65511 0.18001 0.92647 0.0
Co396 Co 0.86153 0.37526 0.70564 0.0
C397 C 0.90993 0.42608 0.69647 0.0
C398 C 0.86714 0.44537 0.71552 0.0
C399 C 0.88978 0.46912 0.71506 0.0
N400 N 0.87973 0.41819 0.70389 0.0
N401 N 0.91689 0.45683 0.70351 0.0
H402 H 0.92723 0.40906 0.6881 0.0
H403 H 0.84365 0.44787 0.7251 0.0
C404 C 0.79281 0.39739 0.71646 0.0
O405 O 0.78161 0.38443 0.69185 0.0
N406 N 0.84348 0.33241 0.70906 0.0
C407 C 0.85721 0.30449 0.70038 0.0
C408 C 0.84046 0.27926 0.71215 0.0
C409 C 0.81905 0.32346 0.72685 0.0
N410 N 0.8166 0.29127 0.72888 0.0
C411 C 0.85301 0.35655 0.64436 0.0
C412 C 0.82483 0.41268 0.62462 0.0
C413 C 0.83157 0.38838 0.60382 0.0
C414 C 0.84554 0.35994 0.61416 0.0
C415 C 0.83215 0.40803 0.65489 0.0
N416 N 0.84581 0.38001 0.66462 0.0
H417 H 0.8661 0.33556 0.65098 0.0
H418 H 0.82726 0.4273 0.67036 0.0
H419 H 0.87914 0.30222 0.6879 0.0
H420 H 0.80483 0.33981 0.74003 0.0
O421 O 0.90293 0.3569 0.69692 0.0
O422 O 0.88505 0.36785 0.74232 0.0
O423 O 0.82211 0.3945 0.72387 0.0
C424 C 0.90827 0.35746 0.72556 0.0
H425 H 0.88673 0.49317 0.72381 0.0
H426 H 0.84607 0.25404 0.70941 0.0
H427 H 0.81436 0.43523 0.61751 0.0
H428 H 0.85223 0.34101 0.59875 0.0
Co429 Co 0.59623 0.85666 0.70156 0.0
C430 C 0.64695 0.81073 0.72096 0.0
C431 C 0.628 0.8385 0.75718 0.0
C432 C 0.65054 0.81776 0.76843 0.0
N433 N 0.62593 0.8343 0.72737 0.0
N434 N 0.6624 0.80029 0.74564 0.0
H435 H 0.65065 0.80096 0.69895 0.0
H436 H 0.61434 0.85584 0.76987 0.0
C437 C 0.64348 0.90692 0.72373 0.0
O438 O 0.66666 0.88582 0.72643 0.0
N439 N 0.56614 0.87872 0.6764 0.0
C440 C 0.55109 0.86728 0.65201 0.0
C441 C 0.53315 0.89172 0.6397 0.0
C442 C 0.55713 0.90955 0.67881 0.0
N443 N 0.5371 0.91831 0.65661 0.0
C444 C 0.6197 0.82106 0.65134 0.0
C445 C 0.64652 0.87281 0.62227 0.0
C446 C 0.64232 0.84406 0.60637 0.0
C447 C 0.62974 0.81763 0.6217 0.0
C448 C 0.63629 0.87523 0.6519 0.0
N449 N 0.62239 0.84975 0.66601 0.0
H450 H 0.60792 0.80106 0.66189 0.0
H451 H 0.63743 0.89849 0.66238 0.0
H452 H 0.55329 0.84302 0.64358 0.0
H453 H 0.56564 0.92532 0.69621 0.0
O454 O 0.56898 0.81865 0.70022 0.0
O455 O 0.56616 0.85784 0.73372 0.0
O456 O 0.6168 0.89916 0.71179 0.0
C457 C 0.55529 0.83074 0.72381 0.0
H458 H 0.65796 0.81614 0.79153 0.0
H459 H 0.51831 0.88992 0.61996 0.0
H460 H 0.65636 0.89382 0.6115 0.0
H461 H 0.62564 0.79501 0.61037 0.0
Co462 Co 0.14629 0.59248 0.71728 0.0
C463 C 0.18471 0.65152 0.73124 0.0
C464 C 0.15191 0.63775 0.76564 0.0
C465 C 0.16711 0.66514 0.77459 0.0
N466 N 0.1628 0.62913 0.73856 0.0
N467 N 0.18782 0.67385 0.75309 0.0
H468 H 0.19806 0.65155 0.71065 0.0
H469 H 0.13373 0.62508 0.77796 0.0
C470 C 0.07407 0.60363 0.71547 0.0
O471 O 0.07009 0.58825 0.69011 0.0
N472 N 0.12912 0.55523 0.69715 0.0
C473 C 0.13354 0.545 0.66888 0.0
C474 C 0.11253 0.52029 0.66325 0.0
C475 C 0.10692 0.53562 0.70868 0.0
N476 N 0.09536 0.51493 0.68817 0.0
C477 C 0.18123 0.60991 0.66496 0.0
C478 C 0.13062 0.63492 0.63278 0.0
C479 C 0.159 0.62747 0.61755 0.0
C480 C 0.18504 0.61649 0.63458 0.0
C481 C 0.12797 0.62841 0.66341 0.0
N482 N 0.15238 0.61392 0.67869 0.0
H483 H 0.20116 0.59966 0.67695 0.0
H484 H 0.10574 0.63397 0.67414 0.0
H485 H 0.14934 0.5557 0.65277 0.0
H486 H 0.09741 0.53854 0.73095 0.0
O487 O 0.18701 0.56971 0.72095 0.0
O488 O 0.14776 0.56853 0.75391 0.0
O489 O 0.10209 0.61081 0.72477 0.0
C490 C 0.17601 0.55899 0.74618 0.0
H491 H 0.16254 0.67812 0.79509 0.0
H492 H 0.1083 0.50919 0.64174 0.0
H493 H 0.10993 0.64406 0.62096 0.0
H494 H 0.20793 0.61165 0.62431 0.0
Co495 Co 0.39987 0.15464 0.69955 0.0
C496 C 0.34503 0.19633 0.72006 0.0
C497 C 0.37383 0.17766 0.75579 0.0
C498 C 0.34984 0.19559 0.76795 0.0
N499 N 0.37124 0.17817 0.72575 0.0
N500 N 0.33168 0.2073 0.74564 0.0
H501 H 0.33538 0.20076 0.69804 0.0
H502 H 0.39121 0.16409 0.76844 0.0
C503 C 0.35193 0.10537 0.7224 0.0
O504 O 0.32973 0.12716 0.72676 0.0
N505 N 0.42887 0.13087 0.67485 0.0
C506 C 0.4394 0.13676 0.64698 0.0
C507 C 0.46022 0.11243 0.63896 0.0
C508 C 0.44354 0.10381 0.68355 0.0
N509 N 0.4628 0.09206 0.66221 0.0
C510 C 0.37666 0.1908 0.64953 0.0
C511 C 0.34723 0.13998 0.6208 0.0
C512 C 0.35297 0.16814 0.60464 0.0
C513 C 0.36712 0.19409 0.61962 0.0
C514 C 0.35787 0.13735 0.65038 0.0
N515 N 0.37321 0.16228 0.66424 0.0
H516 H 0.38891 0.21054 0.66019 0.0
H517 H 0.35584 0.11427 0.66099 0.0
H518 H 0.43259 0.15714 0.63347 0.0
H519 H 0.43985 0.09274 0.70509 0.0
O520 O 0.42849 0.19175 0.69779 0.0
O521 O 0.43085 0.15276 0.73126 0.0
O522 O 0.37834 0.11273 0.7099 0.0
C523 C 0.44239 0.17942 0.7212 0.0
H524 H 0.34509 0.19842 0.79155 0.0
H525 H 0.47271 0.11007 0.61796 0.0
H526 H 0.33661 0.11926 0.61002 0.0
H527 H 0.37177 0.21638 0.60801 0.0
H528 H 0.92928 0.51585 0.14791 0.0
H529 H 0.01731 0.56761 0.13668 0.0
H530 H 0.04795 0.51799 0.14433 0.0
H531 H 0.04923 0.46084 0.15853 0.0
H532 H 0.96106 0.40896 0.16849 0.0
H533 H 0.93048 0.45769 0.15696 0.0
C534 C 0.95517 0.51598 0.14678 0.0
C535 C 0.97123 0.545 0.14204 0.0
C536 C 0.97235 0.48756 0.15125 0.0
C537 C 0.00467 0.54528 0.14017 0.0
C538 C 0.02208 0.51708 0.14479 0.0
C539 C 0.02333 0.46039 0.158 0.0
C540 C 0.00718 0.43184 0.16467 0.0
C541 C 0.00614 0.48827 0.15106 0.0
C542 C 0.97372 0.43092 0.16341 0.0
C543 C 0.95636 0.45868 0.15693 0.0
H544 H 0.54539 0.99353 0.1498 0.0
H545 H 0.52576 0.07293 0.20882 0.0
H546 H 0.47096 0.05451 0.2153 0.0
H547 H 0.43028 0.01412 0.2068 0.0
H548 H 0.45167 0.93129 0.1519 0.0
H549 H 0.5034 0.9536 0.13998 0.0
C550 C 0.52888 0.00676 0.16383 0.0
C551 C 0.5394 0.03412 0.17912 0.0
C552 C 0.4977 -0.00438 0.16797 0.0
C553 C 0.51814 0.05136 0.19733 0.0
C554 C 0.48683 0.04099 0.20086 0.0
C555 C 0.44616 0.00066 0.19241 0.0
C556 C 0.43703 0.97053 0.18116 0.0
C557 C 0.47661 0.01278 0.18677 0.0
C558 C 0.4577 0.95437 0.16135 0.0
C559 C 0.48763 0.96699 0.1546 0.0
H560 H 0.95651 0.46318 0.32685 0.0
H561 H 0.9593 0.4475 0.42198 0.0
H562 H 0.98715 0.4985 0.42893 0.0
H563 H 0.0106 0.54771 0.40764 0.0
H564 H 0.00623 0.56308 0.31265 0.0
H565 H 0.97785 0.51239 0.30596 0.0
C566 C 0.96283 0.471 0.34917 0.0
C567 C 0.95568 0.45162 0.37383 0.0
C568 C 0.97811 0.50048 0.35301 0.0
C569 C 0.96486 0.46178 0.40254 0.0
C570 C 0.98046 0.4911 0.40657 0.0
C571 C 0.00285 0.5401 0.38563 0.0
C572 C 0.01028 0.55887 0.36065 0.0
C573 C 0.98702 0.51072 0.38196 0.0
C574 C 0.00077 0.54873 0.33209 0.0
C575 C 0.9847 0.51982 0.32828 0.0
H576 H 0.56122 -0.00212 0.3517 0.0
H577 H 0.51732 0.90598 0.36785 0.0
H578 H 0.46686 0.93243 0.37968 0.0
H579 H 0.4333 0.98112 0.37745 0.0
H580 H 0.47652 0.07188 0.3558 0.0
H581 H 0.5291 0.0466 0.35345 0.0
C582 C 0.54065 0.9837 0.35802 0.0
C583 C 0.54279 0.95013 0.35833 0.0
C584 C 0.51147 -0.00112 0.36322 0.0
C585 C 0.51631 0.93194 0.36746 0.0
C586 C 0.48733 0.94701 0.37389 0.0
C587 C 0.45443 -0.00476 0.37278 0.0
C588 C 0.45135 0.02799 0.36636 0.0
C589 C 0.48434 0.98034 0.37063 0.0
C590 C 0.47857 0.04641 0.36022 0.0
C591 C 0.50853 0.03204 0.35902 0.0
H592 H 0.91756 0.48072 0.87934 0.0
H593 H 0.91273 0.48264 0.78326 0.0
H594 H 0.96658 0.45982 0.78028 0.0
H595 H 0.01691 0.44534 0.80529 0.0
H596 H 0.02206 0.44353 0.90116 0.0
H597 H 0.96574 0.4602 0.9043 0.0
C598 C 0.92794 0.47529 0.85779 0.0
C599 C 0.91151 0.48365 0.83152 0.0
C600 C 0.95901 0.46288 0.85635 0.0
C601 C 0.92531 0.47681 0.80369 0.0
C602 C 0.95601 0.4639 0.80202 0.0
C603 C 0.00548 0.44866 0.82678 0.0
C604 C 0.02327 0.44428 0.85303 0.0
C605 C 0.97344 0.45802 0.82821 0.0
C606 C 0.00851 0.44743 0.88085 0.0
C607 C 0.97651 0.45684 0.88255 0.0
H608 H 0.42619 0.98873 0.84859 0.0
H609 H 0.50681 0.92446 0.8552 0.0
H610 H 0.54331 0.97021 0.85634 0.0
H611 H 0.55209 0.02818 0.85446 0.0
H612 H 0.47192 0.09297 0.84872 0.0
H613 H 0.435 0.04722 0.8484 0.0
C614 C 0.45177 0.98487 0.85012 0.0
C615 C 0.46397 0.95344 0.8516 0.0
C616 C 0.47245 0.01124 0.85097 0.0
C617 C 0.49703 0.94854 0.85421 0.0
C618 C 0.51783 0.97461 0.85474 0.0
C619 C 0.52652 0.03219 0.85296 0.0
C620 C 0.51455 0.06363 0.85122 0.0
C621 C 0.50577 0.00598 0.85296 0.0
C622 C 0.48145 0.06881 0.85009 0.0
C623 C 0.46048 0.04275 0.84978 0.0
H624 H 0.9681 0.43876 0.67083 0.0
H625 H 0.93671 0.50773 0.73687 0.0
H626 H 0.99 0.53017 0.73922 0.0
H627 H 0.04475 0.53141 0.72183 0.0
H628 H 0.07757 0.46216 0.65696 0.0
H629 H 0.02419 0.43824 0.65524 0.0
C630 C 0.97284 0.45851 0.68594 0.0
C631 C 0.94812 0.47135 0.70362 0.0
C632 C 0.00377 0.47122 0.68749 0.0
C633 C 0.95484 0.49747 0.7226 0.0
C634 C 0.98549 0.51027 0.72418 0.0
C635 C 0.04064 0.51064 0.70778 0.0
C636 C 0.06524 0.49846 0.68964 0.0
C637 C 0.01005 0.49736 0.70672 0.0
C638 C 0.05898 0.47202 0.67102 0.0
C639 C 0.0285 0.45843 0.67 0.0
H640 H 0.47319 0.04884 0.61859 0.0
H641 H 0.49289 0.07008 0.71102 0.0
H642 H 0.51778 0.01757 0.71741 0.0
H643 H 0.53046 0.96495 0.69782 0.0
H644 H 0.51296 0.94299 0.60497 0.0
H645 H 0.48989 -0.00365 0.59778 0.0
C646 C 0.4835 0.04205 0.63989 0.0
C647 C 0.48104 0.06299 0.66438 0.0
C648 C 0.49752 0.01163 0.64347 0.0
C649 C 0.49415 0.05402 0.69203 0.0
C650 C 0.50835 0.02408 0.69568 0.0
C651 C 0.52224 0.97178 0.6758 0.0
C652 C 0.52355 0.94977 0.65202 0.0
C653 C 0.50959 0.00252 0.67171 0.0
C654 C 0.51188 0.95916 0.62386 0.0
C655 C 0.49892 0.9898 0.61963 0.0
H656 H 0.1976 0.28523 0.30817 0.0
H657 H 0.20546 0.28681 0.2121 0.0
H658 H 0.24533 0.24427 0.21406 0.0
H659 H 0.27822 0.20727 0.24274 0.0
H660 H 0.27369 0.20762 0.33896 0.0
H661 H 0.23182 0.24859 0.33718 0.0
C662 C 0.20824 0.27656 0.28767 0.0
C663 C 0.19836 0.28925 0.26002 0.0
C664 C 0.23159 0.25232 0.28896 0.0
C665 C 0.21213 0.27723 0.23367 0.0
C666 C 0.23511 0.25299 0.23476 0.0
C667 C 0.26848 0.21649 0.26342 0.0
C668 C 0.27943 0.20448 0.29094 0.0
C669 C 0.24504 0.24046 0.26226 0.0
C670 C 0.26564 0.21617 0.31742 0.0
C671 C 0.24185 0.2398 0.31643 0.0
H672 H 0.77262 0.29757 0.23626 0.0
H673 H 0.76373 0.29291 0.33217 0.0
H674 H 0.73551 0.24205 0.3278 0.0
H675 H 0.71596 0.19743 0.2969 0.0
H676 H 0.72294 0.20296 0.20118 0.0
H677 H 0.7487 0.25555 0.20524 0.0
C678 C 0.76407 0.2859 0.25625 0.0
C679 C 0.77093 0.29896 0.28456 0.0
C680 C 0.74756 0.25677 0.25359 0.0
C681 C 0.75961 0.28311 0.31012 0.0
C682 C 0.74329 0.25406 0.30766 0.0
C683 C 0.72312 0.21027 0.277 0.0
C684 C 0.71802 0.19639 0.24883 0.0
C685 C 0.73772 0.24038 0.27955 0.0
C686 C 0.72667 0.21336 0.22308 0.0
C687 C 0.74148 0.24327 0.22542 0.0
H688 H 0.68674 0.74147 0.25197 0.0
H689 H 0.735 0.78543 0.32661 0.0
H690 H 0.78609 0.76364 0.30947 0.0
H691 H 0.81619 0.7296 0.27496 0.0
H692 H 0.76879 0.68542 0.20011 0.0
H693 H 0.71804 0.71046 0.21497 0.0
C694 C 0.7085 0.74604 0.26444 0.0
C695 C 0.7073 0.76451 0.29071 0.0
C696 C 0.73775 0.73379 0.2542 0.0
C697 C 0.73558 0.77113 0.3064 0.0
C698 C 0.76467 0.75874 0.29661 0.0
C699 C 0.79475 0.72587 0.26177 0.0
C700 C 0.7959 0.70567 0.2367 0.0
C701 C 0.76593 0.7398 0.27075 0.0
C702 C 0.7683 0.70115 0.21937 0.0
C703 C 0.73933 0.71512 0.22808 0.0
H704 H 0.24932 0.6769 0.29833 0.0
H705 H 0.17206 0.74487 0.29364 0.0
H706 H 0.2084 0.78578 0.27357 0.0
H707 H 0.26062 0.79877 0.25081 0.0
H708 H 0.33757 0.72976 0.2567 0.0
H709 H 0.303 0.69255 0.28281 0.0
C710 C 0.24086 0.70102 0.29362 0.0
C711 C 0.20843 0.70817 0.2972 0.0
C712 C 0.26165 0.72384 0.28176 0.0
C713 C 0.19719 0.73924 0.29116 0.0
C714 C 0.21785 0.76236 0.27943 0.0
C715 C 0.26997 0.77588 0.25834 0.0
C716 C 0.30137 0.76671 0.25093 0.0
C717 C 0.24991 0.75449 0.27361 0.0
C718 C 0.31318 0.73699 0.26106 0.0
C719 C 0.29353 0.71575 0.27626 0.0
H720 H 0.67783 0.76412 0.7935 0.0
H721 H 0.70232 0.78158 0.70142 0.0
H722 H 0.74429 0.74114 0.70427 0.0
H723 H 0.77467 0.70191 0.73297 0.0
H724 H 0.75277 0.68618 0.82581 0.0
H725 H 0.70886 0.7249 0.82255 0.0
C726 C 0.69251 0.75933 0.77412 0.0
C727 C 0.68686 0.77597 0.74729 0.0
C728 C 0.71698 0.73636 0.77604 0.0
C729 C 0.70576 0.7689 0.72223 0.0
C730 C 0.72995 0.74591 0.72389 0.0
C731 C 0.76062 0.70717 0.75265 0.0
C732 C 0.76724 0.69138 0.77968 0.0
C733 C 0.73587 0.7297 0.75071 0.0
C734 C 0.74808 0.69784 0.80469 0.0
C735 C 0.7231 0.72011 0.80287 0.0
H736 H 0.21049 0.7034 0.80194 0.0
H737 H 0.21033 0.70774 0.70579 0.0
H738 H 0.24074 0.75791 0.70778 0.0
H739 H 0.26596 0.80132 0.7373 0.0
H740 H 0.26313 0.79711 0.83347 0.0
H741 H 0.23457 0.74628 0.83103 0.0
C742 C 0.21674 0.71541 0.78136 0.0
C743 C 0.20778 0.70199 0.75377 0.0
C744 C 0.23346 0.7444 0.78272 0.0
C745 C 0.21706 0.71743 0.72733 0.0
C746 C 0.23419 0.74626 0.72848 0.0
C747 C 0.25873 0.78945 0.75767 0.0
C748 C 0.26667 0.80298 0.78555 0.0
C749 C 0.24218 0.76016 0.7561 0.0
C750 C 0.25762 0.78703 0.81177 0.0
C751 C 0.24124 0.75801 0.8104 0.0
H752 H 0.32018 0.25114 0.78765 0.0
H753 H 0.27682 0.20101 0.71383 0.0
H754 H 0.22428 0.22259 0.72778 0.0
H755 H 0.19043 0.25232 0.76372 0.0
H756 H 0.23463 0.30078 0.83824 0.0
H757 H 0.28724 0.28288 0.82161 0.0
C758 C 0.29921 0.2452 0.7745 0.0
C759 C 0.30217 0.22436 0.74997 0.0
C760 C 0.2693 0.25693 0.78312 0.0
C761 C 0.27507 0.21722 0.73269 0.0
C762 C 0.24505 0.22921 0.7409 0.0
C763 C 0.2116 0.25871 0.77636 0.0
C764 C 0.20871 0.27753 0.80236 0.0
C765 C 0.2418 0.2484 0.76657 0.0
C766 C 0.23634 0.28636 0.81818 0.0
C767 C 0.26636 0.27614 0.80869 0.0
H768 H 0.82881 0.23605 0.7573 0.0
H769 H 0.75525 0.30658 0.74137 0.0
H770 H 0.7165 0.27326 0.76799 0.0
H771 H 0.70246 0.22083 0.79037 0.0
H772 H 0.776 0.14978 0.80355 0.0
H773 H 0.81615 0.18654 0.78376 0.0
C774 C 0.80431 0.24411 0.75969 0.0
C775 C 0.79467 0.27333 0.74693 0.0
C776 C 0.78229 0.22473 0.77461 0.0
C777 C 0.7631 0.28404 0.75094 0.0
C778 C 0.74098 0.26497 0.76605 0.0
C779 C 0.72745 0.21397 0.78967 0.0
C780 C 0.73654 0.18286 0.7983 0.0
C781 C 0.75013 0.23488 0.77732 0.0
C782 C 0.76878 0.17373 0.79693 0.0
C783 C 0.79158 0.1946 0.78548 0.0
H784 H 0.17062 0.37986 0.07925 0.0
H785 H 0.09669 0.30788 0.08355 0.0
H786 H 0.09522 0.30478 0.02936 0.0
H787 H 0.11245 0.32442 0.98053 0.0
H788 H 0.18597 0.39666 0.97546 0.0
H789 H 0.18936 0.39823 0.0299 0.0
C790 C 0.15419 0.36347 0.06837 0.0
C791 C 0.13398 0.34399 0.08579 0.0
C792 C 0.15305 0.36208 0.0369 0.0
C793 C 0.11306 0.32272 0.07104 0.0
C794 C 0.11193 0.32114 0.0399 0.0
C795 C 0.12965 0.34015 0.99121 0.0
C796 C 0.14889 0.36041 0.97365 0.0
C797 C 0.13159 0.34088 0.02258 0.0
C798 C 0.17052 0.38107 0.98822 0.0
C799 C 0.17261 0.38188 0.01943 0.0
H800 H 0.6871 0.15358 0.97336 0.0
H801 H 0.59202 0.11408 0.97011 0.0
H802 H 0.58869 0.11618 0.02445 0.0
H803 H 0.61355 0.1267 0.07317 0.0
H804 H 0.70965 0.16333 0.07739 0.0
H805 H 0.71186 0.16506 0.02273 0.0
C806 C 0.66563 0.14568 0.98462 0.0
C807 C 0.63992 0.13349 0.96768 0.0
C808 C 0.66408 0.1464 1.01613 0.0
C809 C 0.61229 0.12317 0.98261 0.0
C810 C 0.61031 0.12447 1.01371 0.0
C811 C 0.63478 0.13558 0.06213 0.0
C812 C 0.66129 0.14513 0.07937 0.0
C813 C 0.63614 0.13571 0.03073 0.0
C814 C 0.68891 0.15586 0.06466 0.0
C815 C 0.69018 0.15681 0.03339 0.0
H816 H 0.80048 0.64298 0.95394 0.0
H817 H 0.90192 0.62955 0.94147 0.0
H818 H 0.91074 0.63579 0.99492 0.0
H819 H 0.88956 0.64174 0.04595 0.0
H820 H 0.78833 0.65293 0.05913 0.0
H821 H 0.77943 0.65063 1.00493 0.0
C822 C 0.82454 0.64138 0.96285 0.0
C823 C 0.85046 0.6358 0.94337 0.0
C824 C 0.82947 0.64446 0.9939 0.0
C825 C 0.88149 0.63433 0.95557 0.0
C826 C 0.88658 0.63762 0.98629 0.0
C827 C 0.86564 0.64406 0.0368 0.0
C828 C 0.83961 0.64773 0.05627 0.0
C829 C 0.86077 0.6423 1.00571 0.0
C830 C 0.80866 0.65032 0.04441 0.0
C831 C 0.80362 0.6489 1.01348 0.0
H832 H 0.30215 0.91144 0.96473 0.0
H833 H 0.37012 0.83359 0.95749 0.0
H834 H 0.37214 0.82891 1.01148 0.0
H835 H 0.35612 0.84741 0.06092 0.0
H836 H 0.28868 0.92536 0.06952 0.0
H837 H 0.28566 0.92996 1.01509 0.0
C838 C 0.31745 0.8935 0.97496 0.0
C839 C 0.33558 0.87262 0.95676 0.0
C840 C 0.31885 0.89107 1.00639 0.0
C841 C 0.35521 0.84949 0.97063 0.0
C842 C 0.35666 0.84694 1.00165 0.0
C843 C 0.34033 0.86513 0.051 0.0
C844 C 0.32247 0.88582 0.06949 0.0
C845 C 0.33863 0.86756 0.01975 0.0
C846 C 0.30288 0.90921 0.05598 0.0
C847 C 0.30103 0.91176 0.02479 0.0
H848 H 0.17444 0.60671 0.47797 0.0
H849 H 0.1122 0.68952 0.47591 0.0
H850 H 0.11386 0.69272 0.5302 0.0
H851 H 0.131 0.67071 0.57877 0.0
H852 H 0.19053 0.58583 0.58049 0.0
H853 H 0.19183 0.585 0.52627 0.0
C854 C 0.16111 0.62543 0.48931 0.0
C855 C 0.14329 0.64783 0.47251 0.0
C856 C 0.16163 0.62684 0.52075 0.0
C857 C 0.12664 0.67219 0.48791 0.0
C858 C 0.1273 0.6739 0.51913 0.0
C859 C 0.14421 0.65195 0.56736 0.0
C860 C 0.1608 0.62853 0.58411 0.0
C861 C 0.14443 0.65115 0.53585 0.0
C862 C 0.17805 0.60468 0.56857 0.0
C863 C 0.17859 0.60394 0.53738 0.0
H864 H 0.30824 0.15459 0.4701 0.0
H865 H 0.40763 0.17783 0.45554 0.0
H866 H 0.41488 0.18651 0.50873 0.0
H867 H 0.39464 0.18322 0.56031 0.0
H868 H 0.2973 0.1542 0.57537 0.0
H869 H 0.28802 0.15127 0.5214 0.0
C870 C 0.33168 0.16124 0.47831 0.0
C871 C 0.35727 0.16539 0.4581 0.0
C872 C 0.33622 0.16491 0.50938 0.0
C873 C 0.38709 0.17496 0.46987 0.0
C874 C 0.39147 0.1796 0.50058 0.0
C875 C 0.37127 0.17673 0.55172 0.0
C876 C 0.3466 0.16918 0.57185 0.0
C877 C 0.3664 0.17415 0.52062 0.0
C878 C 0.31663 0.16018 0.56037 0.0
C879 C 0.31136 0.15848 0.5295 0.0
H880 H 0.83911 0.42081 0.46671 0.0
H881 H 0.79034 0.32971 0.46031 0.0
H882 H 0.78824 0.32646 0.51457 0.0
H883 H 0.80338 0.34771 0.56403 0.0
H884 H 0.84982 0.43977 0.57036 0.0
H885 H 0.84869 0.44485 0.51598 0.0
C886 C 0.82725 0.40057 0.47698 0.0
C887 C 0.8153 0.37534 0.45907 0.0
C888 C 0.82569 0.39899 0.50833 0.0
C889 C 0.80049 0.34917 0.47326 0.0
C890 C 0.79909 0.34734 0.5044 0.0
C891 C 0.81293 0.36903 0.55346 0.0
C892 C 0.82682 0.39325 0.5712 0.0
C893 C 0.8122 0.37178 0.52216 0.0
C894 C 0.83881 0.4209 0.55725 0.0
C895 C 0.83837 0.42369 0.52613 0.0
H896 H 0.66707 0.8143 0.46922 0.0
H897 H 0.62387 0.90822 0.46106 0.0
H898 H 0.62089 0.91276 0.51505 0.0
H899 H 0.62765 0.88931 0.56469 0.0
H900 H 0.66928 0.79495 0.57378 0.0
H901 H 0.6751 0.79119 0.51954 0.0
C902 C 0.65695 0.83575 0.47921 0.0
C903 C 0.64599 0.86096 0.46075 0.0
C904 C 0.65474 0.83809 0.51058 0.0
C905 C 0.63321 0.88865 0.47439 0.0
C906 C 0.63118 0.8912 0.50541 0.0
C907 C 0.63855 0.86811 0.55493 0.0
C908 C 0.64812 0.84251 0.57347 0.0
C909 C 0.64164 0.86603 0.52372 0.0
C910 C 0.66148 0.81496 0.56015 0.0
C911 C 0.66489 0.81282 0.52909 0.0
H912 H 0.109 0.55067 0.29226 0.0
H913 H 0.20165 0.53401 0.3319 0.0
H914 H 0.20724 0.48443 0.30262 0.0
H915 H 0.18483 0.44508 0.26649 0.0
H916 H 0.09252 0.46383 0.2268 0.0
H917 H 0.08809 0.51357 0.25506 0.0
C918 C 0.13041 0.53618 0.29477 0.0
C919 C 0.1547 0.5459 0.31465 0.0
C920 C 0.13367 0.50818 0.27755 0.0
C921 C 0.18246 0.52699 0.317 0.0
C922 C 0.18571 0.4987 0.30015 0.0
C923 C 0.164 0.46033 0.26366 0.0
C924 C 0.13897 0.45053 0.24454 0.0
C925 C 0.16142 0.48902 0.28033 0.0
C926 C 0.11204 0.47052 0.24141 0.0
C927 C 0.10942 0.499 0.25767 0.0
H928 H 0.52001 0.14948 0.21562 0.0
H929 H 0.59248 0.12565 0.28058 0.0
H930 H 0.55263 0.12775 0.32037 0.0
H931 H 0.49583 0.13083 0.336 0.0
H932 H 0.4242 0.15582 0.27043 0.0
H933 H 0.46493 0.15898 0.23205 0.0
C934 C 0.52727 0.14535 0.23855 0.0
C935 C 0.5593 0.1373 0.24492 0.0
C936 C 0.50418 0.14645 0.26137 0.0
C937 C 0.56813 0.13211 0.27489 0.0
C938 C 0.54523 0.13305 0.29771 0.0
C939 C 0.48918 0.13759 0.31346 0.0
C940 C 0.45665 0.1426 0.30626 0.0
C941 C 0.51297 0.13942 0.29114 0.0
C942 C 0.44877 0.15138 0.27679 0.0
C943 C 0.47214 0.1532 0.25467 0.0
H944 H 0.78801 0.46625 0.27039 0.0
H945 H 0.87872 0.47701 0.31538 0.0
H946 H 0.89114 0.5234 0.28477 0.0
H947 H 0.87764 0.55968 0.24378 0.0
H948 H 0.78599 0.55217 0.20023 0.0
H949 H 0.77256 0.50584 0.23154 0.0
C950 C 0.81022 0.47909 0.27385 0.0
C951 C 0.8326 0.4677 0.29493 0.0
C952 C 0.81727 0.50611 0.25608 0.0
C953 C 0.8613 0.48471 0.29901 0.0
C954 C 0.86847 0.51134 0.28147 0.0
C955 C 0.8548 0.54775 0.24097 0.0
C956 C 0.83308 0.55891 0.21933 0.0
C957 C 0.84697 0.52184 0.25954 0.0
C958 C 0.80324 0.54379 0.21654 0.0
C959 C 0.79553 0.51739 0.23451 0.0
H960 H 0.55496 0.8431 0.24599 0.0
H961 H 0.51993 0.82983 0.33557 0.0
H962 H 0.46495 0.83239 0.31736 0.0
H963 H 0.42681 0.84273 0.2766 0.0
H964 H 0.4616 0.85543 0.18691 0.0
H965 H 0.51658 0.84862 0.20448 0.0
C966 C 0.53529 0.84027 0.26145 0.0
C967 C 0.54158 0.83638 0.29211 0.0
C968 C 0.50366 0.84194 0.25083 0.0
C969 C 0.51581 0.8327 0.31185 0.0
C970 C 0.48432 0.83437 0.30148 0.0
C971 C 0.44643 0.8437 0.26087 0.0
C972 C 0.44017 0.84979 0.23054 0.0
C973 C 0.47797 0.83967 0.27112 0.0
C974 C 0.46578 0.85071 0.21037 0.0
C975 C 0.49724 0.84694 0.22042 0.0
H976 H 0.77927 0.50487 0.80789 0.0
H977 H 0.78553 0.56013 0.72707 0.0
H978 H 0.77233 0.51267 0.69737 0.0
H979 H 0.77356 0.45389 0.69419 0.0
H980 H 0.77628 0.39792 0.77475 0.0
H981 H 0.77029 0.44662 0.80482 0.0
C982 C 0.77609 0.50671 0.78391 0.0
C983 C 0.7831 0.53578 0.76957 0.0
C984 C 0.77063 0.47881 0.76691 0.0
C985 C 0.77994 0.53792 0.73846 0.0
C986 C 0.77274 0.5107 0.72148 0.0
C987 C 0.77102 0.45236 0.71824 0.0
C988 C 0.77499 0.42254 0.73234 0.0
C989 C 0.77004 0.48068 0.73535 0.0
C990 C 0.77279 0.4207 0.76354 0.0
C991 C 0.76988 0.4486 0.78071 0.0
H992 H 0.49704 0.82395 0.69923 0.0
H993 H 0.55019 0.81002 0.78055 0.0
H994 H 0.50049 0.80574 0.80883 0.0
H995 H 0.44324 0.81869 0.81169 0.0
H996 H 0.39128 0.8406 0.73116 0.0
H997 H 0.43846 0.82829 0.70117 0.0
C998 C 0.4975 0.81844 0.72289 0.0
C999 C 0.52693 0.81683 0.73787 0.0
C1000 C 0.46886 0.81807 0.73921 0.0
C1001 C 0.52761 0.81084 0.76866 0.0
C1002 C 0.49921 0.80877 0.78484 0.0
C1003 C 0.44198 0.8193 0.78751 0.0
C1004 C 0.41399 0.83035 0.77353 0.0
C1005 C 0.46979 0.81413 0.7706 0.0
C1006 C 0.41267 0.83197 0.74226 0.0
C1007 C 0.43972 0.82523 0.72516 0.0
H1008 H 0.19897 0.45859 0.84542 0.0
H1009 H 0.19306 0.39563 0.76926 0.0
H1010 H 0.19867 0.44141 0.73558 0.0
H1011 H 0.19341 0.49977 0.72817 0.0
H1012 H 0.19135 0.56246 0.80462 0.0
H1013 H 0.2014 0.51692 0.83779 0.0
C1014 C 0.20033 0.45487 0.82148 0.0
C1015 C 0.19586 0.42391 0.80974 0.0
C1016 C 0.2016 0.48152 0.8023 0.0
C1017 C 0.19671 0.41933 0.77869 0.0
C1018 C 0.1996 0.44553 0.75946 0.0
C1019 C 0.19661 0.50346 0.75197 0.0
C1020 C 0.19215 0.53425 0.76406 0.0
C1021 C 0.2004 0.47686 0.77099 0.0
C1022 C 0.19516 0.53888 0.79496 0.0
C1023 C 0.20058 0.51282 0.81391 0.0
H1024 H 0.5022 0.18309 0.6992 0.0
H1025 H 0.44559 0.20335 0.777 0.0
H1026 H 0.49395 0.20819 0.80744 0.0
H1027 H 0.55065 0.19417 0.81375 0.0
H1028 H 0.60615 0.16709 0.73694 0.0
H1029 H 0.5607 0.17837 0.70418 0.0
C1030 C 0.50072 0.19008 0.7225 0.0
C1031 C 0.47062 0.19334 0.73588 0.0
C1032 C 0.52862 0.1911 0.74015 0.0
C1033 C 0.46867 0.20125 0.76628 0.0
C1034 C 0.49631 0.20368 0.78372 0.0
C1035 C 0.55318 0.19232 0.78971 0.0
C1036 C 0.58166 0.18002 0.77769 0.0
C1037 C 0.52628 0.19695 0.77123 0.0
C1038 C 0.58446 0.17679 0.7466 0.0
C1039 C 0.55833 0.18285 0.7279 0.0
H1040 H 0.62157 0.042 0.78312 0.0
H1041 H 0.69651 0.00848 0.84173 0.0
H1042 H 0.70109 0.95896 0.81218 0.0
H1043 H 0.68257 0.9247 0.7701 0.0
H1044 H 0.60862 0.96044 0.71144 0.0
H1045 H 0.60529 0.00981 0.74042 0.0
C1046 C 0.63882 0.02384 0.78971 0.0
C1047 C 0.65838 0.02883 0.81494 0.0
C1048 C 0.64174 -0.00406 0.77235 0.0
C1049 C 0.68096 0.00517 0.8226 0.0
C1050 C 0.68368 0.97693 0.80561 0.0
C1051 C 0.66616 0.94355 0.76336 0.0
C1052 C 0.64572 0.93871 0.73866 0.0
C1053 C 0.66417 0.97204 0.78038 0.0
C1054 C 0.62439 0.96331 0.73045 0.0
C1055 C 0.62241 0.99158 0.74707 0.0
H1056 H 0.97522 0.60948 0.82203 0.0
H1057 H 0.9096 0.5898 0.74988 0.0
H1058 H 0.95315 0.5919 0.71405 0.0
H1059 H 0.01041 0.59691 0.70313 0.0
H1060 H 0.07592 0.61926 0.77473 0.0
H1061 H 0.03216 0.61899 0.81039 0.0
C1062 C 0.97051 0.60591 0.79845 0.0
C1063 C 0.93919 0.59954 0.78874 0.0
C1064 C -0.00429 0.60773 0.77767 0.0
C1065 C 0.93342 0.59508 0.75803 0.0
C1066 C 0.95835 0.59618 0.73743 0.0
C1067 C 0.01507 0.60224 0.72644 0.0
C1068 C 0.04656 0.60807 0.73606 0.0
C1069 C 0.98966 0.60227 0.74698 0.0
C1070 C 0.05201 0.61485 0.76647 0.0
C1071 C 0.02695 0.6145 0.78704 0.0
H1072 H 0.3037 0.08186 0.75775 0.0
H1073 H 0.39264 0.05478 0.71577 0.0
H1074 H 0.39124 0.00306 0.74064 0.0
H1075 H 0.3663 0.96611 0.77533 0.0
H1076 H 0.27654 0.9906 0.81669 0.0
H1077 H 0.27678 0.04272 0.79106 0.0
C1078 C 0.32257 0.0645 0.75377 0.0
C1079 C 0.34836 0.07252 0.73497 0.0
C1080 C 0.32168 0.03444 0.76826 0.0
C1081 C 0.37257 0.04959 0.73016 0.0
C1082 C 0.37188 0.01991 0.74447 0.0
C1083 C 0.34679 0.98284 0.77898 0.0
C1084 C 0.32165 0.97461 0.79831 0.0
C1085 C 0.34685 0.01229 0.76386 0.0
C1086 C 0.29629 -0.00359 0.80212 0.0
C1087 C 0.29642 0.02617 0.78742 0.0
H1088 H 0.92514 0.34887 0.78389 0.0
H1089 H 0.96376 0.35086 0.69474 0.0
H1090 H 0.01777 0.34543 0.71473 0.0
H1091 H 0.05443 0.34395 0.75766 0.0
H1092 H 0.01611 0.34063 0.84682 0.0
H1093 H 0.96176 0.3424 0.82676 0.0
C1094 C 0.94536 0.34771 0.76885 0.0
C1095 C 0.9404 0.35038 0.73789 0.0
C1096 C 0.97648 0.3444 0.7805 0.0
C1097 C 0.96685 0.34874 0.71867 0.0
C1098 C -0.00219 0.34576 0.73008 0.0
C1099 C 0.03416 0.34309 0.77266 0.0
C1100 C 0.0393 0.34215 0.80366 0.0
C1101 C 0.00296 0.34408 0.76097 0.0
C1102 C 0.01281 0.34104 0.82284 0.0
C1103 C 0.9817 0.3423 0.81139 0.0
H1104 H 0.29004 0.97201 0.20676 0.0
H1105 H 0.29583 0.9084 0.28229 0.0
H1106 H 0.30195 0.95448 0.3159 0.0
H1107 H 0.31423 0.01232 0.32268 0.0
H1108 H 0.31499 0.07421 0.24582 0.0
H1109 H 0.29752 0.02981 0.21397 0.0
C1110 C 0.29142 0.9683 0.23069 0.0
C1111 C 0.29208 0.93683 0.24206 0.0
C1112 C 0.29672 0.99479 0.24963 0.0
C1113 C 0.29491 0.93241 0.27305 0.0
C1114 C 0.29875 0.95876 0.29224 0.0
C1115 C 0.30956 0.01613 0.29913 0.0
C1116 C 0.31542 0.04647 0.28657 0.0
C1117 C 0.30092 0.99 0.28067 0.0
C1118 C 0.31029 0.05107 0.25591 0.0
C1119 C 0.30046 0.02566 0.23769 0.0
H1120 H 0.00959 0.30889 0.22235 0.0
H1121 H 0.05959 0.3183 0.30596 0.0
H1122 H 0.00929 0.31341 0.3332 0.0
H1123 H 0.95095 0.32038 0.33219 0.0
H1124 H 0.90136 0.32044 0.24791 0.0
H1125 H 0.95097 0.30704 0.22191 0.0
C1126 C 0.00949 0.30826 0.24655 0.0
C1127 C 0.03806 0.3136 0.26225 0.0
C1128 C 0.98022 0.30783 0.26187 0.0
C1129 C 0.03777 0.3138 0.29356 0.0
C1130 C 0.00897 0.31142 0.30908 0.0
C1131 C 0.95089 0.31587 0.30832 0.0
C1132 C 0.92273 0.32094 0.2919 0.0
C1133 C 0.97993 0.31041 0.2934 0.0
C1134 C 0.92285 0.31621 0.26089 0.0
C1135 C 0.95127 0.30891 0.24604 0.0
H1136 H 0.68893 0.90465 0.25647 0.0
H1137 H 0.70075 0.94424 0.34474 0.0
H1138 H 0.69786 -0.00138 0.32449 0.0
H1139 H 0.6837 0.03441 0.28265 0.0
H1140 H 0.67531 -0.00456 0.19385 0.0
H1141 H 0.68516 0.94124 0.21318 0.0
C1142 C 0.69209 0.92524 0.27105 0.0
C1143 C 0.69509 0.9205 0.30202 0.0
C1144 C 0.69029 0.95646 0.25922 0.0
C1145 C 0.69891 0.94728 0.32079 0.0
C1146 C 0.69675 0.97839 0.30926 0.0
C1147 C 0.68475 0.01409 0.26751 0.0
C1148 C 0.67851 0.01866 0.23698 0.0
C1149 C 0.69115 0.98321 0.2787 0.0
C1150 C 0.68011 0.99234 0.21745 0.0
C1151 C 0.68562 0.96139 0.22851 0.0
H1152 H 0.94084 0.68524 0.25999 0.0
H1153 H 0.98999 0.66987 0.17691 0.0
H1154 H 0.04158 0.67663 0.20213 0.0
H1155 H 0.07179 0.67538 0.24952 0.0
H1156 H 0.0227 0.69182 0.3325 0.0
H1157 H 0.97192 0.69723 0.3057 0.0
C1158 C 0.96289 0.68476 0.24731 0.0
C1159 C 0.96191 0.67714 0.21676 0.0
C1160 C 0.99235 0.68854 0.26204 0.0
C1161 C 0.99037 0.67615 0.20039 0.0
C1162 C 0.01982 0.67965 0.21489 0.0
C1163 C 0.05014 0.68159 0.2615 0.0
C1164 C 0.05079 0.68311 0.29285 0.0
C1165 C 0.02106 0.68427 0.24593 0.0
C1166 C 0.02274 0.69094 0.30833 0.0
C1167 C -0.00635 0.69355 0.29303 0.0
loop_
_geom_bond_atom_site_label_1
_geom_bond_atom_site_label_2
_geom_bond_distance
_geom_bond_site_symmetry_2
_ccdc_geom_bond_type
Co0 N4 2.148 . S
Co0 N10 2.128 . S
Co0 N20 2.194 . S
Co0 O25 2.351 . S
Co0 O26 2.155 . S
Co0 O27 2.096 . S
C1 N4 1.301 . S
C1 N5 1.328 . S
C1 H6 0.930 . S
C2 C3 1.333 . S
C2 N4 1.317 . S
C2 H7 0.930 . S
C3 C2 1.333 . S
C3 N5 1.350 . S
C3 H29 0.931 . S
N4 Co0 2.148 . S
N4 C1 1.301 . S
N4 C2 1.317 . S
N5 C1 1.328 . S
N5 C3 1.350 . S
H6 C1 0.930 . S
H7 C2 0.930 . S
C8 O9 1.224 . S
C8 O27 1.247 . S
O9 C8 1.224 . S
N10 Co0 2.128 . S
N10 C11 1.355 . S
N10 C13 1.311 . S
C11 N10 1.355 . S
C11 C12 1.363 . S
C11 H23 0.929 . S
C12 C11 1.363 . S
C12 N14 1.375 . S
C12 H30 0.931 . S
C13 N10 1.311 . S
C13 N14 1.347 . S
C13 H24 0.929 . S
N14 C12 1.375 . S
N14 C13 1.347 . S
C15 C18 1.365 . S
C15 N20 1.328 . S
C15 H21 0.929 . S
C16 C17 1.362 . S
C16 C19 1.378 . S
C16 H31 0.929 . S
C17 C16 1.362 . S
C17 C18 1.366 . S
C18 C15 1.365 . S
C18 C17 1.366 . S
C18 H32 0.930 . S
C19 C16 1.378 . S
C19 N20 1.315 . S
C19 H22 0.930 . S
N20 Co0 2.194 . S
N20 C15 1.328 . S
N20 C19 1.315 . S
H21 C15 0.929 . S
H22 C19 0.930 . S
H23 C11 0.929 . S
H24 C13 0.929 . S
O25 Co0 2.351 . S
O25 C28 1.244 . S
O26 Co0 2.155 . S
O26 C28 1.240 . S
O27 Co0 2.096 . S
O27 C8 1.247 . S
C28 O25 1.244 . S
C28 O26 1.240 . S
H29 C3 0.931 . S
H30 C12 0.931 . S
H31 C16 0.929 . S
H32 C18 0.930 . S
Co33 N37 2.148 . S
Co33 N43 2.128 . S
Co33 N53 2.194 . S
Co33 O58 2.351 . S
Co33 O59 2.155 . S
Co33 O60 2.096 . S
C34 N37 1.301 . S
C34 N38 1.328 . S
C34 H39 0.930 . S
C35 C36 1.333 . S
C35 N37 1.317 . S
C35 H40 0.930 . S
C36 C35 1.333 . S
C36 N38 1.350 . S
C36 H62 0.931 . S
N37 Co33 2.148 . S
N37 C34 1.301 . S
N37 C35 1.317 . S
N38 C34 1.328 . S
N38 C36 1.350 . S
H39 C34 0.930 . S
H40 C35 0.930 . S
C41 O42 1.224 . S
C41 O60 1.247 . S
O42 C41 1.224 . S
N43 Co33 2.128 . S
N43 C44 1.355 . S
N43 C46 1.311 . S
C44 N43 1.355 . S
C44 C45 1.363 . S
C44 H56 0.929 . S
C45 C44 1.363 . S
C45 N47 1.375 . S
C45 H63 0.931 . S
C46 N43 1.311 . S
C46 N47 1.347 . S
C46 H57 0.929 . S
N47 C45 1.375 . S
N47 C46 1.347 . S
C48 C51 1.365 . S
C48 N53 1.328 . S
C48 H54 0.929 . S
C49 C50 1.362 . S
C49 C52 1.378 . S
C49 H64 0.929 . S
C50 C49 1.362 . S
C50 C51 1.366 . S
C51 C48 1.365 . S
C51 C50 1.366 . S
C51 H65 0.930 . S
C52 C49 1.378 . S
C52 N53 1.315 . S
C52 H55 0.930 . S
N53 Co33 2.194 . S
N53 C48 1.328 . S
N53 C52 1.315 . S
H54 C48 0.929 . S
H55 C52 0.930 . S
H56 C44 0.929 . S
H57 C46 0.929 . S
O58 Co33 2.351 . S
O58 C61 1.244 . S
O59 Co33 2.155 . S
O59 C61 1.240 . S
O60 Co33 2.096 . S
O60 C41 1.247 . S
C61 O58 1.244 . S
C61 O59 1.240 . S
H62 C36 0.931 . S
H63 C45 0.931 . S
H64 C49 0.929 . S
H65 C51 0.930 . S
Co66 N70 2.148 . S
Co66 N76 2.128 . S
Co66 N86 2.194 . S
Co66 O91 2.351 . S
Co66 O92 2.155 . S
Co66 O93 2.096 . S
C67 N70 1.301 . S
C67 N71 1.328 . S
C67 H72 0.930 . S
C68 C69 1.333 . S
C68 N70 1.317 . S
C68 H73 0.930 . S
C69 C68 1.333 . S
C69 N71 1.350 . S
C69 H95 0.931 . S
N70 Co66 2.148 . S
N70 C67 1.301 . S
N70 C68 1.317 . S
N71 C67 1.328 . S
N71 C69 1.350 . S
H72 C67 0.930 . S
H73 C68 0.930 . S
C74 O75 1.224 . S
C74 O93 1.247 . S
O75 C74 1.224 . S
N76 Co66 2.128 . S
N76 C77 1.355 . S
N76 C79 1.311 . S
C77 N76 1.355 . S
C77 C78 1.363 . S
C77 H89 0.929 . S
C78 C77 1.363 . S
C78 N80 1.375 . S
C78 H96 0.931 . S
C79 N76 1.311 . S
C79 N80 1.347 . S
C79 H90 0.929 . S
N80 C78 1.375 . S
N80 C79 1.347 . S
C81 C84 1.365 . S
C81 N86 1.328 . S
C81 H87 0.929 . S
C82 C83 1.362 . S
C82 C85 1.378 . S
C82 H97 0.929 . S
C83 C82 1.362 . S
C83 C84 1.366 . S
C84 C81 1.365 . S
C84 C83 1.366 . S
C84 H98 0.930 . S
C85 C82 1.378 . S
C85 N86 1.315 . S
C85 H88 0.930 . S
N86 Co66 2.194 . S
N86 C81 1.328 . S
N86 C85 1.315 . S
H87 C81 0.929 . S
H88 C85 0.930 . S
H89 C77 0.929 . S
H90 C79 0.929 . S
O91 Co66 2.351 . S
O91 C94 1.244 . S
O92 Co66 2.155 . S
O92 C94 1.240 . S
O93 Co66 2.096 . S
O93 C74 1.247 . S
C94 O91 1.244 . S
C94 O92 1.240 . S
H95 C69 0.931 . S
H96 C78 0.931 . S
H97 C82 0.929 . S
H98 C84 0.930 . S
Co99 N103 2.148 . S
Co99 N109 2.128 . S
Co99 N119 2.194 . S
Co99 O124 2.351 . S
Co99 O125 2.155 . S
Co99 O126 2.096 . S
C100 N103 1.301 . S
C100 N104 1.328 . S
C100 H105 0.930 . S
C101 C102 1.333 . S
C101 N103 1.317 . S
C101 H106 0.930 . S
C102 C101 1.333 . S
C102 N104 1.350 . S
C102 H128 0.931 1_565 S
N103 Co99 2.148 . S
N103 C100 1.301 . S
N103 C101 1.317 . S
N104 C100 1.328 . S
N104 C102 1.350 . S
H105 C100 0.930 . S
H106 C101 0.930 . S
C107 O108 1.224 . S
C107 O126 1.247 . S
O108 C107 1.224 . S
N109 Co99 2.128 . S
N109 C110 1.355 . S
N109 C112 1.311 . S
C110 N109 1.355 . S
C110 C111 1.363 . S
C110 H122 0.929 . S
C111 C110 1.363 . S
C111 N113 1.375 . S
C111 H129 0.931 . S
C112 N109 1.311 . S
C112 N113 1.347 . S
C112 H123 0.929 . S
N113 C111 1.375 . S
N113 C112 1.347 . S
C114 C117 1.365 . S
C114 N119 1.328 . S
C114 H120 0.929 . S
C115 C116 1.362 . S
C115 C118 1.378 . S
C115 H130 0.929 . S
C116 C115 1.362 . S
C116 C117 1.366 . S
C117 C114 1.365 . S
C117 C116 1.366 . S
C117 H131 0.930 . S
C118 C115 1.378 . S
C118 N119 1.315 . S
C118 H121 0.930 . S
N119 Co99 2.194 . S
N119 C114 1.328 . S
N119 C118 1.315 . S
H120 C114 0.929 . S
H121 C118 0.930 . S
H122 C110 0.929 . S
H123 C112 0.929 . S
O124 Co99 2.351 . S
O124 C127 1.244 . S
O125 Co99 2.155 . S
O125 C127 1.240 . S
O126 Co99 2.096 . S
O126 C107 1.247 . S
C127 O124 1.244 . S
C127 O125 1.240 . S
H128 C102 0.931 1_545 S
H129 C111 0.931 . S
H130 C115 0.929 . S
H131 C117 0.930 . S
Co132 N136 2.148 . S
Co132 N142 2.128 . S
Co132 N152 2.194 . S
Co132 O157 2.351 . S
Co132 O158 2.155 . S
Co132 O159 2.096 . S
C133 N136 1.301 . S
C133 N137 1.328 . S
C133 H138 0.930 . S
C134 C135 1.333 . S
C134 N136 1.317 . S
C134 H139 0.930 . S
C135 C134 1.333 . S
C135 N137 1.350 . S
C135 H161 0.931 . S
N136 Co132 2.148 . S
N136 C133 1.301 . S
N136 C134 1.317 . S
N137 C133 1.328 . S
N137 C135 1.350 . S
H138 C133 0.930 . S
H139 C134 0.930 . S
C140 O141 1.224 . S
C140 O159 1.247 . S
O141 C140 1.224 . S
N142 Co132 2.128 . S
N142 C143 1.355 . S
N142 C145 1.311 . S
C143 N142 1.355 . S
C143 C144 1.363 . S
C143 H155 0.929 . S
C144 C143 1.363 . S
C144 N146 1.375 . S
C144 H162 0.931 . S
C145 N142 1.311 . S
C145 N146 1.347 . S
C145 H156 0.929 . S
N146 C144 1.375 . S
N146 C145 1.347 . S
C147 C150 1.365 . S
C147 N152 1.328 . S
C147 H153 0.929 . S
C148 C149 1.362 . S
C148 C151 1.378 . S
C148 H163 0.929 . S
C149 C148 1.362 . S
C149 C150 1.366 . S
C150 C147 1.365 . S
C150 C149 1.366 . S
C150 H164 0.930 . S
C151 C148 1.378 . S
C151 N152 1.315 . S
C151 H154 0.930 . S
N152 Co132 2.194 . S
N152 C147 1.328 . S
N152 C151 1.315 . S
H153 C147 0.929 . S
H154 C151 0.930 . S
H155 C143 0.929 . S
H156 C145 0.929 . S
O157 Co132 2.351 . S
O157 C160 1.244 . S
O158 Co132 2.155 . S
O158 C160 1.240 . S
O159 Co132 2.096 . S
O159 C140 1.247 . S
C160 O157 1.244 . S
C160 O158 1.240 . S
H161 C135 0.931 . S
H162 C144 0.931 . S
H163 C148 0.929 . S
H164 C150 0.930 . S
Co165 N169 2.148 . S
Co165 N175 2.128 . S
Co165 N185 2.194 . S
Co165 O190 2.351 . S
Co165 O191 2.155 . S
Co165 O192 2.096 . S
C166 N169 1.301 . S
C166 N170 1.328 . S
C166 H171 0.930 . S
C167 C168 1.333 . S
C167 N169 1.317 . S
C167 H172 0.930 . S
C168 C167 1.333 . S
C168 N170 1.350 . S
C168 H194 0.931 . S
N169 Co165 2.148 . S
N169 C166 1.301 . S
N169 C167 1.317 . S
N170 C166 1.328 . S
N170 C168 1.350 . S
H171 C166 0.930 . S
H172 C167 0.930 . S
C173 O174 1.224 . S
C173 O192 1.247 . S
O174 C173 1.224 . S
N175 Co165 2.128 . S
N175 C176 1.355 . S
N175 C178 1.311 . S
C176 N175 1.355 . S
C176 C177 1.363 . S
C176 H188 0.929 . S
C177 C176 1.363 . S
C177 N179 1.375 . S
C177 H195 0.931 . S
C178 N175 1.311 . S
C178 N179 1.347 . S
C178 H189 0.929 . S
N179 C177 1.375 . S
N179 C178 1.347 . S
C180 C183 1.365 . S
C180 N185 1.328 . S
C180 H186 0.929 . S
C181 C182 1.362 . S
C181 C184 1.378 . S
C181 H196 0.929 . S
C182 C181 1.362 . S
C182 C183 1.366 . S
C183 C180 1.365 . S
C183 C182 1.366 . S
C183 H197 0.930 . S
C184 C181 1.378 . S
C184 N185 1.315 . S
C184 H187 0.930 . S
N185 Co165 2.194 . S
N185 C180 1.328 . S
N185 C184 1.315 . S
H186 C180 0.929 . S
H187 C184 0.930 . S
H188 C176 0.929 . S
H189 C178 0.929 . S
O190 Co165 2.351 . S
O190 C193 1.244 . S
O191 Co165 2.155 . S
O191 C193 1.240 . S
O192 Co165 2.096 . S
O192 C173 1.247 . S
C193 O190 1.244 . S
C193 O191 1.240 . S
H194 C168 0.931 . S
H195 C177 0.931 . S
H196 C181 0.929 . S
H197 C183 0.930 . S
Co198 N202 2.148 . S
Co198 N208 2.128 . S
Co198 N218 2.194 . S
Co198 O223 2.351 . S
Co198 O224 2.155 . S
Co198 O225 2.096 . S
C199 N202 1.301 . S
C199 N203 1.328 . S
C199 H204 0.930 . S
C200 C201 1.333 . S
C200 N202 1.317 . S
C200 H205 0.930 . S
C201 C200 1.333 . S
C201 N203 1.350 . S
C201 H227 0.931 . S
N202 Co198 2.148 . S
N202 C199 1.301 . S
N202 C200 1.317 . S
N203 C199 1.328 . S
N203 C201 1.350 . S
H204 C199 0.930 . S
H205 C200 0.930 . S
C206 O207 1.224 . S
C206 O225 1.247 . S
O207 C206 1.224 . S
N208 Co198 2.128 . S
N208 C209 1.355 . S
N208 C211 1.311 . S
C209 N208 1.355 . S
C209 C210 1.363 . S
C209 H221 0.929 . S
C210 C209 1.363 . S
C210 N212 1.375 . S
C210 H228 0.931 . S
C211 N208 1.311 . S
C211 N212 1.347 . S
C211 H222 0.929 . S
N212 C210 1.375 . S
N212 C211 1.347 . S
C213 C216 1.365 . S
C213 N218 1.328 . S
C213 H219 0.929 . S
C214 C215 1.362 . S
C214 C217 1.378 . S
C214 H229 0.929 . S
C215 C214 1.362 . S
C215 C216 1.366 . S
C216 C213 1.365 . S
C216 C215 1.366 . S
C216 H230 0.930 . S
C217 C214 1.378 . S
C217 N218 1.315 . S
C217 H220 0.930 . S
N218 Co198 2.194 . S
N218 C213 1.328 . S
N218 C217 1.315 . S
H219 C213 0.929 . S
H220 C217 0.930 . S
H221 C209 0.929 . S
H222 C211 0.929 . S
O223 Co198 2.351 . S
O223 C226 1.244 . S
O224 Co198 2.155 . S
O224 C226 1.240 . S
O225 Co198 2.096 . S
O225 C206 1.247 . S
C226 O223 1.244 . S
C226 O224 1.240 . S
H227 C201 0.931 . S
H228 C210 0.931 . S
H229 C214 0.929 . S
H230 C216 0.930 . S
Co231 N235 2.148 . S
Co231 N241 2.128 . S
Co231 N251 2.194 . S
Co231 O256 2.351 . S
Co231 O257 2.155 . S
Co231 O258 2.096 . S
C232 N235 1.301 . S
C232 N236 1.328 . S
C232 H237 0.930 . S
C233 C234 1.333 . S
C233 N235 1.317 . S
C233 H238 0.930 . S
C234 C233 1.333 . S
C234 N236 1.350 . S
C234 H260 0.931 1_565 S
N235 Co231 2.148 . S
N235 C232 1.301 . S
N235 C233 1.317 . S
N236 C232 1.328 . S
N236 C234 1.350 . S
H237 C232 0.930 . S
H238 C233 0.930 . S
C239 O240 1.224 . S
C239 O258 1.247 . S
O240 C239 1.224 . S
N241 Co231 2.128 . S
N241 C242 1.355 . S
N241 C244 1.311 . S
C242 N241 1.355 . S
C242 C243 1.363 . S
C242 H254 0.929 . S
C243 C242 1.363 . S
C243 N245 1.375 . S
C243 H261 0.931 . S
C244 N241 1.311 . S
C244 N245 1.347 . S
C244 H255 0.929 . S
N245 C243 1.375 . S
N245 C244 1.347 . S
C246 C249 1.365 . S
C246 N251 1.328 . S
C246 H252 0.929 . S
C247 C248 1.362 . S
C247 C250 1.378 . S
C247 H262 0.929 . S
C248 C247 1.362 . S
C248 C249 1.366 . S
C249 C246 1.365 . S
C249 C248 1.366 . S
C249 H263 0.930 . S
C250 C247 1.378 . S
C250 N251 1.315 . S
C250 H253 0.930 . S
N251 Co231 2.194 . S
N251 C246 1.328 . S
N251 C250 1.315 . S
H252 C246 0.929 . S
H253 C250 0.930 . S
H254 C242 0.929 . S
H255 C244 0.929 . S
O256 Co231 2.351 . S
O256 C259 1.244 . S
O257 Co231 2.155 . S
O257 C259 1.240 . S
O258 Co231 2.096 . S
O258 C239 1.247 . S
C259 O256 1.244 . S
C259 O257 1.240 . S
H260 C234 0.931 1_545 S
H261 C243 0.931 . S
H262 C247 0.929 . S
H263 C249 0.930 . S
Co264 N268 2.148 . S
Co264 N274 2.128 . S
Co264 N284 2.194 . S
Co264 O289 2.351 . S
Co264 O290 2.155 . S
Co264 O291 2.096 . S
C265 N268 1.301 . S
C265 N269 1.328 . S
C265 H270 0.930 . S
C266 C267 1.333 . S
C266 N268 1.317 . S
C266 H271 0.930 . S
C267 C266 1.333 . S
C267 N269 1.350 . S
C267 H293 0.931 . S
N268 Co264 2.148 . S
N268 C265 1.301 . S
N268 C266 1.317 . S
N269 C265 1.328 . S
N269 C267 1.350 . S
H270 C265 0.930 . S
H271 C266 0.930 . S
C272 O273 1.224 . S
C272 O291 1.247 . S
O273 C272 1.224 . S
N274 Co264 2.128 . S
N274 C275 1.355 . S
N274 C277 1.311 . S
C275 N274 1.355 . S
C275 C276 1.363 . S
C275 H287 0.929 . S
C276 C275 1.363 . S
C276 N278 1.375 . S
C276 H294 0.931 . S
C277 N274 1.311 . S
C277 N278 1.347 . S
C277 H288 0.929 . S
N278 C276 1.375 . S
N278 C277 1.347 . S
C279 C282 1.365 . S
C279 N284 1.328 . S
C279 H285 0.929 . S
C280 C281 1.362 . S
C280 C283 1.378 . S
C280 H295 0.929 . S
C281 C280 1.362 . S
C281 C282 1.366 . S
C282 C279 1.365 . S
C282 C281 1.366 . S
C282 H296 0.930 . S
C283 C280 1.378 . S
C283 N284 1.315 . S
C283 H286 0.930 . S
N284 Co264 2.194 . S
N284 C279 1.328 . S
N284 C283 1.315 . S
H285 C279 0.929 . S
H286 C283 0.930 . S
H287 C275 0.929 . S
H288 C277 0.929 . S
O289 Co264 2.351 . S
O289 C292 1.244 . S
O290 Co264 2.155 . S
O290 C292 1.240 . S
O291 Co264 2.096 . S
O291 C272 1.247 . S
C292 O289 1.244 . S
C292 O290 1.240 . S
H293 C267 0.931 . S
H294 C276 0.931 . S
H295 C280 0.929 . S
H296 C282 0.930 . S
Co297 N301 2.148 . S
Co297 N307 2.128 . S
Co297 N317 2.194 . S
Co297 O322 2.351 . S
Co297 O323 2.155 . S
Co297 O324 2.096 . S
C298 N301 1.301 . S
C298 N302 1.328 . S
C298 H303 0.930 . S
C299 C300 1.333 . S
C299 N301 1.317 . S
C299 H304 0.930 . S
C300 C299 1.333 . S
C300 N302 1.350 . S
C300 H326 0.931 . S
N301 Co297 2.148 . S
N301 C298 1.301 . S
N301 C299 1.317 . S
N302 C298 1.328 . S
N302 C300 1.350 . S
H303 C298 0.930 . S
H304 C299 0.930 . S
C305 O306 1.224 . S
C305 O324 1.247 . S
O306 C305 1.224 . S
N307 Co297 2.128 . S
N307 C308 1.355 . S
N307 C310 1.311 . S
C308 N307 1.355 . S
C308 C309 1.363 . S
C308 H320 0.929 . S
C309 C308 1.363 . S
C309 N311 1.375 . S
C309 H327 0.931 . S
C310 N307 1.311 . S
C310 N311 1.347 . S
C310 H321 0.929 . S
N311 C309 1.375 . S
N311 C310 1.347 . S
C312 C315 1.365 . S
C312 N317 1.328 . S
C312 H318 0.929 . S
C313 C314 1.362 . S
C313 C316 1.378 . S
C313 H328 0.929 . S
C314 C313 1.362 . S
C314 C315 1.366 . S
C315 C312 1.365 . S
C315 C314 1.366 . S
C315 H329 0.930 . S
C316 C313 1.378 . S
C316 N317 1.315 . S
C316 H319 0.930 . S
N317 Co297 2.194 . S
N317 C312 1.328 . S
N317 C316 1.315 . S
H318 C312 0.929 . S
H319 C316 0.930 . S
H320 C308 0.929 . S
H321 C310 0.929 . S
O322 Co297 2.351 . S
O322 C325 1.244 . S
O323 Co297 2.155 . S
O323 C325 1.240 . S
O324 Co297 2.096 . S
O324 C305 1.247 . S
C325 O322 1.244 . S
C325 O323 1.240 . S
H326 C300 0.931 . S
H327 C309 0.931 . S
H328 C313 0.929 . S
H329 C315 0.930 . S
Co330 N334 2.148 . S
Co330 N340 2.128 . S
Co330 N350 2.194 . S
Co330 O355 2.351 . S
Co330 O356 2.155 . S
Co330 O357 2.096 . S
C331 N334 1.301 . S
C331 N335 1.328 . S
C331 H336 0.930 . S
C332 C333 1.333 . S
C332 N334 1.317 . S
C332 H337 0.930 . S
C333 C332 1.333 . S
C333 N335 1.350 . S
C333 H359 0.931 . S
N334 Co330 2.148 . S
N334 C331 1.301 . S
N334 C332 1.317 . S
N335 C331 1.328 . S
N335 C333 1.350 . S
H336 C331 0.930 . S
H337 C332 0.930 . S
C338 O339 1.224 . S
C338 O357 1.247 . S
O339 C338 1.224 . S
N340 Co330 2.128 . S
N340 C341 1.355 . S
N340 C343 1.311 . S
C341 N340 1.355 . S
C341 C342 1.363 . S
C341 H353 0.929 . S
C342 C341 1.363 . S
C342 N344 1.375 . S
C342 H360 0.931 . S
C343 N340 1.311 . S
C343 N344 1.347 . S
C343 H354 0.929 . S
N344 C342 1.375 . S
N344 C343 1.347 . S
C345 C348 1.365 . S
C345 N350 1.328 . S
C345 H351 0.929 . S
C346 C347 1.362 . S
C346 C349 1.378 . S
C346 H361 0.929 . S
C347 C346 1.362 . S
C347 C348 1.366 . S
C348 C345 1.365 . S
C348 C347 1.366 . S
C348 H362 0.930 . S
C349 C346 1.378 . S
C349 N350 1.315 . S
C349 H352 0.930 . S
N350 Co330 2.194 . S
N350 C345 1.328 . S
N350 C349 1.315 . S
H351 C345 0.929 . S
H352 C349 0.930 . S
H353 C341 0.929 . S
H354 C343 0.929 . S
O355 Co330 2.351 . S
O355 C358 1.244 . S
O356 Co330 2.155 . S
O356 C358 1.240 . S
O357 Co330 2.096 . S
O357 C338 1.247 . S
C358 O355 1.244 . S
C358 O356 1.240 . S
H359 C333 0.931 . S
H360 C342 0.931 . S
H361 C346 0.929 . S
H362 C348 0.930 . S
Co363 N367 2.148 . S
Co363 N373 2.128 . S
Co363 N383 2.194 . S
Co363 O388 2.351 . S
Co363 O389 2.155 . S
Co363 O390 2.096 . S
C364 N367 1.301 . S
C364 N368 1.328 . S
C364 H369 0.930 . S
C365 C366 1.333 . S
C365 N367 1.317 . S
C365 H370 0.930 . S
C366 C365 1.333 . S
C366 N368 1.350 . S
C366 H392 0.931 . S
N367 Co363 2.148 . S
N367 C364 1.301 . S
N367 C365 1.317 . S
N368 C364 1.328 . S
N368 C366 1.350 . S
H369 C364 0.930 . S
H370 C365 0.930 . S
C371 O372 1.224 . S
C371 O390 1.247 . S
O372 C371 1.224 . S
N373 Co363 2.128 . S
N373 C374 1.355 . S
N373 C376 1.311 . S
C374 N373 1.355 . S
C374 C375 1.363 . S
C374 H386 0.929 . S
C375 C374 1.363 . S
C375 N377 1.375 . S
C375 H393 0.931 . S
C376 N373 1.311 . S
C376 N377 1.347 . S
C376 H387 0.929 . S
N377 C375 1.375 . S
N377 C376 1.347 . S
C378 C381 1.365 . S
C378 N383 1.328 . S
C378 H384 0.929 . S
C379 C380 1.362 . S
C379 C382 1.378 . S
C379 H394 0.929 . S
C380 C379 1.362 . S
C380 C381 1.366 . S
C381 C378 1.365 . S
C381 C380 1.366 . S
C381 H395 0.930 . S
C382 C379 1.378 . S
C382 N383 1.315 . S
C382 H385 0.930 . S
N383 Co363 2.194 . S
N383 C378 1.328 . S
N383 C382 1.315 . S
H384 C378 0.929 . S
H385 C382 0.930 . S
H386 C374 0.929 . S
H387 C376 0.929 . S
O388 Co363 2.351 . S
O388 C391 1.244 . S
O389 Co363 2.155 . S
O389 C391 1.240 . S
O390 Co363 2.096 . S
O390 C371 1.247 . S
C391 O388 1.244 . S
C391 O389 1.240 . S
H392 C366 0.931 . S
H393 C375 0.931 . S
H394 C379 0.929 . S
H395 C381 0.930 . S
Co396 N400 2.148 . S
Co396 N406 2.128 . S
Co396 N416 2.194 . S
Co396 O421 2.351 . S
Co396 O422 2.155 . S
Co396 O423 2.096 . S
C397 N400 1.301 . S
C397 N401 1.328 . S
C397 H402 0.930 . S
C398 C399 1.333 . S
C398 N400 1.317 . S
C398 H403 0.930 . S
C399 C398 1.333 . S
C399 N401 1.350 . S
C399 H425 0.931 . S
N400 Co396 2.148 . S
N400 C397 1.301 . S
N400 C398 1.317 . S
N401 C397 1.328 . S
N401 C399 1.350 . S
H402 C397 0.930 . S
H403 C398 0.930 . S
C404 O405 1.224 . S
C404 O423 1.247 . S
O405 C404 1.224 . S
N406 Co396 2.128 . S
N406 C407 1.355 . S
N406 C409 1.311 . S
C407 N406 1.355 . S
C407 C408 1.363 . S
C407 H419 0.929 . S
C408 C407 1.363 . S
C408 N410 1.375 . S
C408 H426 0.931 . S
C409 N406 1.311 . S
C409 N410 1.347 . S
C409 H420 0.929 . S
N410 C408 1.375 . S
N410 C409 1.347 . S
C411 C414 1.365 . S
C411 N416 1.328 . S
C411 H417 0.929 . S
C412 C413 1.362 . S
C412 C415 1.378 . S
C412 H427 0.929 . S
C413 C412 1.362 . S
C413 C414 1.366 . S
C414 C411 1.365 . S
C414 C413 1.366 . S
C414 H428 0.930 . S
C415 C412 1.378 . S
C415 N416 1.315 . S
C415 H418 0.930 . S
N416 Co396 2.194 . S
N416 C411 1.328 . S
N416 C415 1.315 . S
H417 C411 0.929 . S
H418 C415 0.930 . S
H419 C407 0.929 . S
H420 C409 0.929 . S
O421 Co396 2.351 . S
O421 C424 1.244 . S
O422 Co396 2.155 . S
O422 C424 1.240 . S
O423 Co396 2.096 . S
O423 C404 1.247 . S
C424 O421 1.244 . S
C424 O422 1.240 . S
H425 C399 0.931 . S
H426 C408 0.931 . S
H427 C412 0.929 . S
H428 C414 0.930 . S
Co429 N433 2.148 . S
Co429 N439 2.128 . S
Co429 N449 2.194 . S
Co429 O454 2.351 . S
Co429 O455 2.155 . S
Co429 O456 2.096 . S
C430 N433 1.301 . S
C430 N434 1.328 . S
C430 H435 0.930 . S
C431 C432 1.333 . S
C431 N433 1.317 . S
C431 H436 0.930 . S
C432 C431 1.333 . S
C432 N434 1.350 . S
C432 H458 0.931 . S
N433 Co429 2.148 . S
N433 C430 1.301 . S
N433 C431 1.317 . S
N434 C430 1.328 . S
N434 C432 1.350 . S
H435 C430 0.930 . S
H436 C431 0.930 . S
C437 O438 1.224 . S
C437 O456 1.247 . S
O438 C437 1.224 . S
N439 Co429 2.128 . S
N439 C440 1.355 . S
N439 C442 1.311 . S
C440 N439 1.355 . S
C440 C441 1.363 . S
C440 H452 0.929 . S
C441 C440 1.363 . S
C441 N443 1.375 . S
C441 H459 0.931 . S
C442 N439 1.311 . S
C442 N443 1.347 . S
C442 H453 0.929 . S
N443 C441 1.375 . S
N443 C442 1.347 . S
C444 C447 1.365 . S
C444 N449 1.328 . S
C444 H450 0.929 . S
C445 C446 1.362 . S
C445 C448 1.378 . S
C445 H460 0.929 . S
C446 C445 1.362 . S
C446 C447 1.366 . S
C447 C444 1.365 . S
C447 C446 1.366 . S
C447 H461 0.930 . S
C448 C445 1.378 . S
C448 N449 1.315 . S
C448 H451 0.930 . S
N449 Co429 2.194 . S
N449 C444 1.328 . S
N449 C448 1.315 . S
H450 C444 0.929 . S
H451 C448 0.930 . S
H452 C440 0.929 . S
H453 C442 0.929 . S
O454 Co429 2.351 . S
O454 C457 1.244 . S
O455 Co429 2.155 . S
O455 C457 1.240 . S
O456 Co429 2.096 . S
O456 C437 1.247 . S
C457 O454 1.244 . S
C457 O455 1.240 . S
H458 C432 0.931 . S
H459 C441 0.931 . S
H460 C445 0.929 . S
H461 C447 0.930 . S
Co462 N466 2.148 . S
Co462 N472 2.128 . S
Co462 N482 2.194 . S
Co462 O487 2.351 . S
Co462 O488 2.155 . S
Co462 O489 2.096 . S
C463 N466 1.301 . S
C463 N467 1.328 . S
C463 H468 0.930 . S
C464 C465 1.333 . S
C464 N466 1.317 . S
C464 H469 0.930 . S
C465 C464 1.333 . S
C465 N467 1.350 . S
C465 H491 0.931 . S
N466 Co462 2.148 . S
N466 C463 1.301 . S
N466 C464 1.317 . S
N467 C463 1.328 . S
N467 C465 1.350 . S
H468 C463 0.930 . S
H469 C464 0.930 . S
C470 O471 1.224 . S
C470 O489 1.247 . S
O471 C470 1.224 . S
N472 Co462 2.128 . S
N472 C473 1.355 . S
N472 C475 1.311 . S
C473 N472 1.355 . S
C473 C474 1.363 . S
C473 H485 0.929 . S
C474 C473 1.363 . S
C474 N476 1.375 . S
C474 H492 0.931 . S
C475 N472 1.311 . S
C475 N476 1.347 . S
C475 H486 0.929 . S
N476 C474 1.375 . S
N476 C475 1.347 . S
C477 C480 1.365 . S
C477 N482 1.328 . S
C477 H483 0.929 . S
C478 C479 1.362 . S
C478 C481 1.378 . S
C478 H493 0.929 . S
C479 C478 1.362 . S
C479 C480 1.366 . S
C480 C477 1.365 . S
C480 C479 1.366 . S
C480 H494 0.930 . S
C481 C478 1.378 . S
C481 N482 1.315 . S
C481 H484 0.930 . S
N482 Co462 2.194 . S
N482 C477 1.328 . S
N482 C481 1.315 . S
H483 C477 0.929 . S
H484 C481 0.930 . S
H485 C473 0.929 . S
H486 C475 0.929 . S
O487 Co462 2.351 . S
O487 C490 1.244 . S
O488 Co462 2.155 . S
O488 C490 1.240 . S
O489 Co462 2.096 . S
O489 C470 1.247 . S
C490 O487 1.244 . S
C490 O488 1.240 . S
H491 C465 0.931 . S
H492 C474 0.931 . S
H493 C478 0.929 . S
H494 C480 0.930 . S
Co495 N499 2.148 . S
Co495 N505 2.128 . S
Co495 N515 2.194 . S
Co495 O520 2.351 . S
Co495 O521 2.155 . S
Co495 O522 2.096 . S
C496 N499 1.301 . S
C496 N500 1.328 . S
C496 H501 0.930 . S
C497 C498 1.333 . S
C497 N499 1.317 . S
C497 H502 0.930 . S
C498 C497 1.333 . S
C498 N500 1.350 . S
C498 H524 0.931 . S
N499 Co495 2.148 . S
N499 C496 1.301 . S
N499 C497 1.317 . S
N500 C496 1.328 . S
N500 C498 1.350 . S
H501 C496 0.930 . S
H502 C497 0.930 . S
C503 O504 1.224 . S
C503 O522 1.247 . S
O504 C503 1.224 . S
N505 Co495 2.128 . S
N505 C506 1.355 . S
N505 C508 1.311 . S
C506 N505 1.355 . S
C506 C507 1.363 . S
C506 H518 0.929 . S
C507 C506 1.363 . S
C507 N509 1.375 . S
C507 H525 0.931 . S
C508 N505 1.311 . S
C508 N509 1.347 . S
C508 H519 0.929 . S
N509 C507 1.375 . S
N509 C508 1.347 . S
C510 C513 1.365 . S
C510 N515 1.328 . S
C510 H516 0.929 . S
C511 C512 1.362 . S
C511 C514 1.378 . S
C511 H526 0.929 . S
C512 C511 1.362 . S
C512 C513 1.366 . S
C513 C510 1.365 . S
C513 C512 1.366 . S
C513 H527 0.930 . S
C514 C511 1.378 . S
C514 N515 1.315 . S
C514 H517 0.930 . S
N515 Co495 2.194 . S
N515 C510 1.328 . S
N515 C514 1.315 . S
H516 C510 0.929 . S
H517 C514 0.930 . S
H518 C506 0.929 . S
H519 C508 0.929 . S
O520 Co495 2.351 . S
O520 C523 1.244 . S
O521 Co495 2.155 . S
O521 C523 1.240 . S
O522 Co495 2.096 . S
O522 C503 1.247 . S
C523 O520 1.244 . S
C523 O521 1.240 . S
H524 C498 0.931 . S
H525 C507 0.931 . S
H526 C511 0.929 . S
H527 C513 0.930 . S
H528 C534 0.930 . S
H529 C537 0.930 . S
H530 C538 0.930 . S
H531 C539 0.930 . S
H532 C542 0.930 . S
H533 C543 0.930 . S
C534 H528 0.930 . S
C534 C535 1.355 . S
C534 C536 1.415 . S
C535 C534 1.355 . S
C535 C537 1.419 1_655 S
C536 C534 1.415 . S
C536 C541 1.425 1_655 S
C536 C543 1.409 . S
C537 H529 0.930 . S
C537 C535 1.419 1_455 S
C537 C538 1.362 . S
C538 H530 0.930 . S
C538 C537 1.362 . S
C538 C541 1.409 . S
C539 H531 0.930 . S
C539 C540 1.355 . S
C539 C541 1.415 . S
C540 C539 1.355 . S
C540 C542 1.419 1_455 S
C541 C536 1.425 1_455 S
C541 C538 1.409 . S
C541 C539 1.415 . S
C542 H532 0.930 . S
C542 C540 1.419 1_655 S
C542 C543 1.362 . S
C543 H533 0.930 . S
C543 C536 1.409 . S
C543 C542 1.362 . S
H544 C550 0.925 1_565 S
H545 C553 0.930 . S
H546 C554 0.930 . S
H547 C555 0.930 1_545 S
H548 C558 0.930 . S
H549 C559 0.930 . S
C550 H544 0.925 1_545 S
C550 C551 1.362 . S
C550 C552 1.411 1_545 S
C551 C550 1.362 . S
C551 C553 1.419 . S
C552 C550 1.411 1_565 S
C552 C557 1.425 1_565 S
C552 C559 1.409 . S
C553 H545 0.930 . S
C553 C551 1.419 . S
C553 C554 1.362 . S
C554 H546 0.930 . S
C554 C553 1.362 . S
C554 C557 1.409 . S
C555 H547 0.930 1_565 S
C555 C556 1.355 . S
C555 C557 1.415 1_565 S
C556 C555 1.355 . S
C556 C558 1.419 . S
C557 C552 1.425 1_545 S
C557 C554 1.409 . S
C557 C555 1.415 1_545 S
C558 H548 0.930 . S
C558 C556 1.419 . S
C558 C559 1.362 . S
C559 H549 0.930 . S
C559 C552 1.409 . S
C559 C558 1.362 . S
H560 C566 0.930 . S
H561 C569 0.930 . S
H562 C570 0.930 . S
H563 C571 0.930 . S
H564 C574 0.930 . S
H565 C575 0.930 . S
C566 H560 0.930 . S
C566 C567 1.355 . S
C566 C568 1.415 . S
C567 C566 1.355 . S
C567 C569 1.419 . S
C568 C566 1.415 . S
C568 C573 1.425 1_655 S
C568 C575 1.409 . S
C569 H561 0.930 . S
C569 C567 1.419 . S
C569 C570 1.363 1_655 S
C570 H562 0.930 . S
C570 C569 1.363 1_455 S
C570 C573 1.409 . S
C571 H563 0.930 . S
C571 C572 1.355 . S
C571 C573 1.415 . S
C572 C571 1.355 . S
C572 C574 1.419 . S
C573 C568 1.425 1_455 S
C573 C570 1.409 . S
C573 C571 1.415 . S
C574 H564 0.930 . S
C574 C572 1.419 . S
C574 C575 1.362 1_455 S
C575 H565 0.930 . S
C575 C568 1.409 . S
C575 C574 1.362 1_655 S
H576 C582 0.930 1_545 S
H577 C585 0.930 . S
H578 C586 0.930 . S
H579 C587 0.933 . S
H580 C590 0.930 . S
H581 C591 0.930 . S
C582 H576 0.930 1_565 S
C582 C583 1.355 . S
C582 C584 1.415 1_565 S
C583 C582 1.355 . S
C583 C585 1.419 . S
C584 C582 1.415 1_545 S
C584 C589 1.425 1_545 S
C584 C591 1.409 . S
C585 H577 0.930 . S
C585 C583 1.419 . S
C585 C586 1.362 . S
C586 H578 0.930 . S
C586 C585 1.362 . S
C586 C589 1.409 . S
C587 H579 0.933 . S
C587 C588 1.348 1_565 S
C587 C589 1.417 . S
C588 C587 1.348 1_545 S
C588 C590 1.419 . S
C589 C584 1.425 1_565 S
C589 C586 1.409 . S
C589 C587 1.417 . S
C590 H580 0.930 . S
C590 C588 1.419 . S
C590 C591 1.362 . S
C591 H581 0.930 . S
C591 C584 1.409 . S
C591 C590 1.362 . S
H592 C598 0.930 . S
H593 C601 0.930 . S
H594 C602 0.930 1_455 S
H595 C603 0.930 . S
H596 C606 0.930 . S
H597 C607 0.913 1_655 S
C598 H592 0.930 . S
C598 C599 1.355 . S
C598 C600 1.415 . S
C599 C598 1.355 . S
C599 C601 1.419 . S
C600 C598 1.415 . S
C600 C605 1.425 1_655 S
C600 C607 1.397 1_655 S
C601 H593 0.930 . S
C601 C599 1.419 . S
C601 C602 1.362 . S
C602 H594 0.930 1_655 S
C602 C601 1.362 . S
C602 C605 1.409 1_655 S
C603 H595 0.930 . S
C603 C604 1.355 . S
C603 C605 1.415 . S
C604 C603 1.355 . S
C604 C606 1.419 . S
C605 C600 1.425 1_455 S
C605 C602 1.409 1_455 S
C605 C603 1.415 . S
C606 H596 0.930 . S
C606 C604 1.419 . S
C606 C607 1.392 . S
C607 H597 0.913 1_455 S
C607 C600 1.397 1_455 S
C607 C606 1.392 . S
H608 C614 0.930 . S
H609 C617 0.930 . S
H610 C618 0.930 . S
H611 C619 0.930 . S
H612 C622 0.930 . S
H613 C623 0.930 . S
C614 H608 0.930 . S
C614 C615 1.355 . S
C614 C616 1.415 1_565 S
C615 C614 1.355 . S
C615 C617 1.419 . S
C616 C614 1.415 1_545 S
C616 C621 1.422 1_545 S
C616 C623 1.409 . S
C617 H609 0.930 . S
C617 C615 1.419 . S
C617 C618 1.362 . S
C618 H610 0.930 . S
C618 C617 1.362 . S
C618 C621 1.422 . S
C619 H611 0.930 . S
C619 C620 1.355 . S
C619 C621 1.405 1_545 S
C620 C619 1.355 . S
C620 C622 1.419 . S
C621 C616 1.422 1_565 S
C621 C618 1.422 . S
C621 C619 1.405 1_565 S
C622 H612 0.930 . S
C622 C620 1.419 . S
C622 C623 1.362 . S
C623 H613 0.930 . S
C623 C616 1.409 . S
C623 C622 1.362 . S
H624 C630 0.930 . S
H625 C633 0.930 . S
H626 C634 0.930 . S
H627 C635 0.930 . S
H628 C638 0.930 . S
H629 C639 0.930 . S
C630 H624 0.930 . S
C630 C631 1.355 . S
C630 C632 1.415 1_655 S
C631 C630 1.355 . S
C631 C633 1.419 . S
C632 C630 1.415 1_455 S
C632 C637 1.425 . S
C632 C639 1.409 . S
C633 H625 0.930 . S
C633 C631 1.419 . S
C633 C634 1.362 . S
C634 H626 0.930 . S
C634 C633 1.362 . S
C634 C637 1.409 1_655 S
C635 H627 0.930 . S
C635 C636 1.355 . S
C635 C637 1.415 . S
C636 C635 1.355 . S
C636 C638 1.419 . S
C637 C632 1.425 . S
C637 C634 1.409 1_455 S
C637 C635 1.415 . S
C638 H628 0.930 . S
C638 C636 1.419 . S
C638 C639 1.362 . S
C639 H629 0.930 . S
C639 C632 1.409 . S
C639 C638 1.362 . S
H640 C646 0.930 . S
H641 C649 0.930 . S
H642 C650 0.930 1_565 S
H643 C651 0.930 . S
H644 C654 0.930 . S
H645 C655 0.920 1_545 S
C646 H640 0.930 . S
C646 C647 1.355 . S
C646 C648 1.415 . S
C647 C646 1.355 . S
C647 C649 1.419 . S
C648 C646 1.415 . S
C648 C653 1.425 1_545 S
C648 C655 1.401 1_545 S
C649 H641 0.930 . S
C649 C647 1.419 . S
C649 C650 1.362 . S
C650 H642 0.930 1_545 S
C650 C649 1.362 . S
C650 C653 1.409 1_545 S
C651 H643 0.930 . S
C651 C652 1.355 . S
C651 C653 1.415 . S
C652 C651 1.355 . S
C652 C654 1.419 . S
C653 C648 1.425 1_565 S
C653 C650 1.409 1_565 S
C653 C651 1.415 . S
C654 H644 0.930 . S
C654 C652 1.419 . S
C654 C655 1.380 . S
C655 H645 0.920 1_565 S
C655 C648 1.401 1_565 S
C655 C654 1.380 . S
H656 C662 0.930 . S
H657 C665 0.930 . S
H658 C666 0.930 . S
H659 C667 0.930 . S
H660 C670 0.930 . S
H661 C671 0.930 . S
C662 H656 0.930 . S
C662 C663 1.355 . S
C662 C664 1.415 . S
C663 C662 1.355 . S
C663 C665 1.419 . S
C664 C662 1.415 . S
C664 C669 1.425 . S
C664 C671 1.409 . S
C665 H657 0.930 . S
C665 C663 1.419 . S
C665 C666 1.362 . S
C666 H658 0.930 . S
C666 C665 1.362 . S
C666 C669 1.409 . S
C667 H659 0.930 . S
C667 C668 1.355 . S
C667 C669 1.415 . S
C668 C667 1.355 . S
C668 C670 1.419 . S
C669 C664 1.425 . S
C669 C666 1.409 . S
C669 C667 1.415 . S
C670 H660 0.930 . S
C670 C668 1.419 . S
C670 C671 1.362 . S
C671 H661 0.930 . S
C671 C664 1.409 . S
C671 C670 1.362 . S
H672 C678 0.930 . S
H673 C681 0.930 . S
H674 C682 0.930 . S
H675 C683 0.930 . S
H676 C686 0.930 . S
H677 C687 0.930 . S
C678 H672 0.930 . S
C678 C679 1.355 . S
C678 C680 1.415 . S
C679 C678 1.355 . S
C679 C681 1.419 . S
C680 C678 1.415 . S
C680 C685 1.425 . S
C680 C687 1.409 . S
C681 H673 0.930 . S
C681 C679 1.419 . S
C681 C682 1.362 . S
C682 H674 0.930 . S
C682 C681 1.362 . S
C682 C685 1.409 . S
C683 H675 0.930 . S
C683 C684 1.355 . S
C683 C685 1.415 . S
C684 C683 1.355 . S
C684 C686 1.419 . S
C685 C680 1.425 . S
C685 C682 1.409 . S
C685 C683 1.415 . S
C686 H676 0.930 . S
C686 C684 1.419 . S
C686 C687 1.362 . S
C687 H677 0.930 . S
C687 C680 1.409 . S
C687 C686 1.362 . S
H688 C694 0.930 . S
H689 C697 0.930 . S
H690 C698 0.930 . S
H691 C699 0.930 . S
H692 C702 0.930 . S
H693 C703 0.930 . S
C694 H688 0.930 . S
C694 C695 1.355 . S
C694 C696 1.415 . S
C695 C694 1.355 . S
C695 C697 1.419 . S
C696 C694 1.415 . S
C696 C701 1.425 . S
C696 C703 1.409 . S
C697 H689 0.930 . S
C697 C695 1.419 . S
C697 C698 1.362 . S
C698 H690 0.930 . S
C698 C697 1.362 . S
C698 C701 1.409 . S
C699 H691 0.930 . S
C699 C700 1.355 . S
C699 C701 1.415 . S
C700 C699 1.355 . S
C700 C702 1.419 . S
C701 C696 1.425 . S
C701 C698 1.409 . S
C701 C699 1.415 . S
C702 H692 0.930 . S
C702 C700 1.419 . S
C702 C703 1.362 . S
C703 H693 0.930 . S
C703 C696 1.409 . S
C703 C702 1.362 . S
H704 C710 0.930 . S
H705 C713 0.930 . S
H706 C714 0.930 . S
H707 C715 0.930 . S
H708 C718 0.930 . S
H709 C719 0.930 . S
C710 H704 0.930 . S
C710 C711 1.355 . S
C710 C712 1.415 . S
C711 C710 1.355 . S
C711 C713 1.419 . S
C712 C710 1.415 . S
C712 C717 1.425 . S
C712 C719 1.409 . S
C713 H705 0.930 . S
C713 C711 1.419 . S
C713 C714 1.362 . S
C714 H706 0.930 . S
C714 C713 1.362 . S
C714 C717 1.409 . S
C715 H707 0.930 . S
C715 C716 1.355 . S
C715 C717 1.415 . S
C716 C715 1.355 . S
C716 C718 1.419 . S
C717 C712 1.425 . S
C717 C714 1.409 . S
C717 C715 1.415 . S
C718 H708 0.930 . S
C718 C716 1.419 . S
C718 C719 1.362 . S
C719 H709 0.930 . S
C719 C712 1.409 . S
C719 C718 1.362 . S
H720 C726 0.930 . S
H721 C729 0.930 . S
H722 C730 0.930 . S
H723 C731 0.930 . S
H724 C734 0.930 . S
H725 C735 0.930 . S
C726 H720 0.930 . S
C726 C727 1.355 . S
C726 C728 1.415 . S
C727 C726 1.355 . S
C727 C729 1.419 . S
C728 C726 1.415 . S
C728 C733 1.425 . S
C728 C735 1.409 . S
C729 H721 0.930 . S
C729 C727 1.419 . S
C729 C730 1.362 . S
C730 H722 0.930 . S
C730 C729 1.362 . S
C730 C733 1.409 . S
C731 H723 0.930 . S
C731 C732 1.355 . S
C731 C733 1.415 . S
C732 C731 1.355 . S
C732 C734 1.419 . S
C733 C728 1.425 . S
C733 C730 1.409 . S
C733 C731 1.415 . S
C734 H724 0.930 . S
C734 C732 1.419 . S
C734 C735 1.362 . S
C735 H725 0.930 . S
C735 C728 1.409 . S
C735 C734 1.362 . S
H736 C742 0.930 . S
H737 C745 0.930 . S
H738 C746 0.930 . S
H739 C747 0.930 . S
H740 C750 0.930 . S
H741 C751 0.930 . S
C742 H736 0.930 . S
C742 C743 1.355 . S
C742 C744 1.415 . S
C743 C742 1.355 . S
C743 C745 1.419 . S
C744 C742 1.415 . S
C744 C749 1.425 . S
C744 C751 1.409 . S
C745 H737 0.930 . S
C745 C743 1.419 . S
C745 C746 1.362 . S
C746 H738 0.930 . S
C746 C745 1.362 . S
C746 C749 1.409 . S
C747 H739 0.930 . S
C747 C748 1.355 . S
C747 C749 1.415 . S
C748 C747 1.355 . S
C748 C750 1.419 . S
C749 C744 1.425 . S
C749 C746 1.409 . S
C749 C747 1.415 . S
C750 H740 0.930 . S
C750 C748 1.419 . S
C750 C751 1.362 . S
C751 H741 0.930 . S
C751 C744 1.409 . S
C751 C750 1.362 . S
H752 C758 0.930 . S
H753 C761 0.930 . S
H754 C762 0.930 . S
H755 C763 0.930 . S
H756 C766 0.930 . S
H757 C767 0.930 . S
C758 H752 0.930 . S
C758 C759 1.355 . S
C758 C760 1.415 . S
C759 C758 1.355 . S
C759 C761 1.419 . S
C760 C758 1.415 . S
C760 C765 1.425 . S
C760 C767 1.409 . S
C761 H753 0.930 . S
C761 C759 1.419 . S
C761 C762 1.362 . S
C762 H754 0.930 . S
C762 C761 1.362 . S
C762 C765 1.409 . S
C763 H755 0.930 . S
C763 C764 1.355 . S
C763 C765 1.415 . S
C764 C763 1.355 . S
C764 C766 1.419 . S
C765 C760 1.425 . S
C765 C762 1.409 . S
C765 C763 1.415 . S
C766 H756 0.930 . S
C766 C764 1.419 . S
C766 C767 1.362 . S
C767 H757 0.930 . S
C767 C760 1.409 . S
C767 C766 1.362 . S
H768 C774 0.930 . S
H769 C777 0.930 . S
H770 C778 0.930 . S
H771 C779 0.930 . S
H772 C782 0.930 . S
H773 C783 0.930 . S
C774 H768 0.930 . S
C774 C775 1.355 . S
C774 C776 1.415 . S
C775 C774 1.355 . S
C775 C777 1.419 . S
C776 C774 1.415 . S
C776 C781 1.425 . S
C776 C783 1.409 . S
C777 H769 0.930 . S
C777 C775 1.419 . S
C777 C778 1.362 . S
C778 H770 0.930 . S
C778 C777 1.362 . S
C778 C781 1.409 . S
C779 H771 0.930 . S
C779 C780 1.355 . S
C779 C781 1.415 . S
C780 C779 1.355 . S
C780 C782 1.419 . S
C781 C776 1.425 . S
C781 C778 1.409 . S
C781 C779 1.415 . S
C782 H772 0.930 . S
C782 C780 1.419 . S
C782 C783 1.362 . S
C783 H773 0.930 . S
C783 C776 1.409 . S
C783 C782 1.362 . S
H784 C790 0.930 . S
H785 C793 0.930 . S
H786 C794 0.949 . S
H787 C795 0.930 . S
H788 C798 0.930 . S
H789 C799 0.930 1_554 S
C790 H784 0.930 . S
C790 C791 1.355 . S
C790 C792 1.415 . S
C791 C790 1.355 . S
C791 C793 1.419 . S
C792 C790 1.415 . S
C792 C797 1.425 1_554 S
C792 C799 1.409 1_554 S
C793 H785 0.930 . S
C793 C791 1.419 . S
C793 C794 1.362 . S
C794 H786 0.949 . S
C794 C793 1.362 . S
C794 C797 1.409 1_554 S
C795 H787 0.930 . S
C795 C796 1.355 . S
C795 C797 1.415 . S
C796 C795 1.355 . S
C796 C798 1.419 . S
C797 C792 1.425 1_556 S
C797 C794 1.409 1_556 S
C797 C795 1.415 . S
C798 H788 0.930 . S
C798 C796 1.419 . S
C798 C799 1.362 . S
C799 H789 0.930 1_556 S
C799 C792 1.409 1_556 S
C799 C798 1.362 . S
H800 C806 0.930 . S
H801 C809 0.930 . S
H802 C810 0.930 1_554 S
H803 C811 0.930 . S
H804 C814 0.930 . S
H805 C815 0.930 1_556 S
C806 H800 0.930 . S
C806 C807 1.355 . S
C806 C808 1.415 . S
C807 C806 1.355 . S
C807 C809 1.419 . S
C808 C806 1.415 . S
C808 C813 1.425 1_556 S
C808 C815 1.409 1_556 S
C809 H801 0.930 . S
C809 C807 1.419 . S
C809 C810 1.362 . S
C810 H802 0.930 1_556 S
C810 C809 1.362 . S
C810 C813 1.409 1_556 S
C811 H803 0.930 . S
C811 C812 1.355 . S
C811 C813 1.415 . S
C812 C811 1.355 . S
C812 C814 1.419 . S
C813 C808 1.425 1_554 S
C813 C810 1.409 1_554 S
C813 C811 1.415 . S
C814 H804 0.930 . S
C814 C812 1.419 . S
C814 C815 1.362 . S
C815 H805 0.930 1_554 S
C815 C808 1.409 1_554 S
C815 C814 1.362 . S
H816 C822 0.930 . S
H817 C825 0.930 . S
H818 C826 0.930 . S
H819 C827 0.930 . S
H820 C830 0.930 . S
H821 C831 0.930 . S
C822 H816 0.930 . S
C822 C823 1.355 . S
C822 C824 1.415 . S
C823 C822 1.355 . S
C823 C825 1.419 . S
C824 C822 1.415 . S
C824 C829 1.425 1_556 S
C824 C831 1.409 1_556 S
C825 H817 0.930 . S
C825 C823 1.419 . S
C825 C826 1.362 . S
C826 H818 0.930 . S
C826 C825 1.362 . S
C826 C829 1.409 1_556 S
C827 H819 0.930 . S
C827 C828 1.355 . S
C827 C829 1.415 . S
C828 C827 1.355 . S
C828 C830 1.419 . S
C829 C824 1.425 1_554 S
C829 C826 1.409 1_554 S
C829 C827 1.415 . S
C830 H820 0.930 . S
C830 C828 1.419 . S
C830 C831 1.362 . S
C831 H821 0.930 . S
C831 C824 1.409 1_554 S
C831 C830 1.362 . S
H832 C838 0.930 . S
H833 C841 0.930 . S
H834 C842 0.940 . S
H835 C843 0.930 . S
H836 C846 0.930 . S
H837 C847 0.930 1_556 S
C838 H832 0.930 . S
C838 C839 1.355 . S
C838 C840 1.415 . S
C839 C838 1.355 . S
C839 C841 1.419 . S
C840 C838 1.415 . S
C840 C845 1.425 1_556 S
C840 C847 1.409 1_556 S
C841 H833 0.930 . S
C841 C839 1.419 . S
C841 C842 1.362 . S
C842 H834 0.940 . S
C842 C841 1.362 . S
C842 C845 1.409 1_556 S
C843 H835 0.930 . S
C843 C844 1.355 . S
C843 C845 1.415 . S
C844 C843 1.355 . S
C844 C846 1.419 . S
C845 C840 1.425 1_554 S
C845 C842 1.409 1_554 S
C845 C843 1.415 . S
C846 H836 0.930 . S
C846 C844 1.419 . S
C846 C847 1.362 . S
C847 H837 0.930 1_554 S
C847 C840 1.409 1_554 S
C847 C846 1.362 . S
H848 C854 0.930 . S
H849 C857 0.930 . S
H850 C858 0.930 . S
H851 C859 0.930 . S
H852 C862 0.930 . S
H853 C863 0.930 . S
C854 H848 0.930 . S
C854 C855 1.355 . S
C854 C856 1.415 . S
C855 C854 1.355 . S
C855 C857 1.419 . S
C856 C854 1.415 . S
C856 C861 1.425 . S
C856 C863 1.409 . S
C857 H849 0.930 . S
C857 C855 1.419 . S
C857 C858 1.362 . S
C858 H850 0.930 . S
C858 C857 1.362 . S
C858 C861 1.409 . S
C859 H851 0.930 . S
C859 C860 1.355 . S
C859 C861 1.415 . S
C860 C859 1.355 . S
C860 C862 1.419 . S
C861 C856 1.425 . S
C861 C858 1.409 . S
C861 C859 1.415 . S
C862 H852 0.930 . S
C862 C860 1.419 . S
C862 C863 1.362 . S
C863 H853 0.930 . S
C863 C856 1.409 . S
C863 C862 1.362 . S
H864 C870 0.930 . S
H865 C873 0.930 . S
H866 C874 0.930 . S
H867 C875 0.930 . S
H868 C878 0.930 . S
H869 C879 0.930 . S
C870 H864 0.930 . S
C870 C871 1.355 . S
C870 C872 1.415 . S
C871 C870 1.355 . S
C871 C873 1.419 . S
C872 C870 1.415 . S
C872 C877 1.425 . S
C872 C879 1.409 . S
C873 H865 0.930 . S
C873 C871 1.419 . S
C873 C874 1.362 . S
C874 H866 0.930 . S
C874 C873 1.362 . S
C874 C877 1.409 . S
C875 H867 0.930 . S
C875 C876 1.355 . S
C875 C877 1.415 . S
C876 C875 1.355 . S
C876 C878 1.419 . S
C877 C872 1.425 . S
C877 C874 1.409 . S
C877 C875 1.415 . S
C878 H868 0.930 . S
C878 C876 1.419 . S
C878 C879 1.362 . S
C879 H869 0.930 . S
C879 C872 1.409 . S
C879 C878 1.362 . S
H880 C886 0.930 . S
H881 C889 0.930 . S
H882 C890 0.930 . S
H883 C891 0.930 . S
H884 C894 0.930 . S
H885 C895 0.930 . S
C886 H880 0.930 . S
C886 C887 1.355 . S
C886 C888 1.415 . S
C887 C886 1.355 . S
C887 C889 1.419 . S
C888 C886 1.415 . S
C888 C893 1.425 . S
C888 C895 1.409 . S
C889 H881 0.930 . S
C889 C887 1.419 . S
C889 C890 1.362 . S
C890 H882 0.930 . S
C890 C889 1.362 . S
C890 C893 1.409 . S
C891 H883 0.930 . S
C891 C892 1.355 . S
C891 C893 1.415 . S
C892 C891 1.355 . S
C892 C894 1.419 . S
C893 C888 1.425 . S
C893 C890 1.409 . S
C893 C891 1.415 . S
C894 H884 0.930 . S
C894 C892 1.419 . S
C894 C895 1.362 . S
C895 H885 0.930 . S
C895 C888 1.409 . S
C895 C894 1.362 . S
H896 C902 0.930 . S
H897 C905 0.930 . S
H898 C906 0.930 . S
H899 C907 0.930 . S
H900 C910 0.930 . S
H901 C911 0.930 . S
C902 H896 0.930 . S
C902 C903 1.355 . S
C902 C904 1.415 . S
C903 C902 1.355 . S
C903 C905 1.419 . S
C904 C902 1.415 . S
C904 C909 1.425 . S
C904 C911 1.409 . S
C905 H897 0.930 . S
C905 C903 1.419 . S
C905 C906 1.362 . S
C906 H898 0.930 . S
C906 C905 1.362 . S
C906 C909 1.409 . S
C907 H899 0.930 . S
C907 C908 1.355 . S
C907 C909 1.415 . S
C908 C907 1.355 . S
C908 C910 1.419 . S
C909 C904 1.425 . S
C909 C906 1.409 . S
C909 C907 1.415 . S
C910 H900 0.930 . S
C910 C908 1.419 . S
C910 C911 1.362 . S
C911 H901 0.930 . S
C911 C904 1.409 . S
C911 C910 1.362 . S
H912 C918 0.930 . S
H913 C921 0.930 . S
H914 C922 0.930 . S
H915 C923 0.930 . S
H916 C926 0.930 . S
H917 C927 0.930 . S
C918 H912 0.930 . S
C918 C919 1.355 . S
C918 C920 1.415 . S
C919 C918 1.355 . S
C919 C921 1.419 . S
C920 C918 1.415 . S
C920 C925 1.425 . S
C920 C927 1.409 . S
C921 H913 0.930 . S
C921 C919 1.419 . S
C921 C922 1.362 . S
C922 H914 0.930 . S
C922 C921 1.362 . S
C922 C925 1.409 . S
C923 H915 0.930 . S
C923 C924 1.355 . S
C923 C925 1.415 . S
C924 C923 1.355 . S
C924 C926 1.419 . S
C925 C920 1.425 . S
C925 C922 1.409 . S
C925 C923 1.415 . S
C926 H916 0.930 . S
C926 C924 1.419 . S
C926 C927 1.362 . S
C927 H917 0.930 . S
C927 C920 1.409 . S
C927 C926 1.362 . S
H928 C934 0.930 . S
H929 C937 0.930 . S
H930 C938 0.930 . S
H931 C939 0.930 . S
H932 C942 0.930 . S
H933 C943 0.930 . S
C934 H928 0.930 . S
C934 C935 1.355 . S
C934 C936 1.415 . S
C935 C934 1.355 . S
C935 C937 1.419 . S
C936 C934 1.415 . S
C936 C941 1.425 . S
C936 C943 1.409 . S
C937 H929 0.930 . S
C937 C935 1.419 . S
C937 C938 1.362 . S
C938 H930 0.930 . S
C938 C937 1.362 . S
C938 C941 1.409 . S
C939 H931 0.930 . S
C939 C940 1.355 . S
C939 C941 1.415 . S
C940 C939 1.355 . S
C940 C942 1.419 . S
C941 C936 1.425 . S
C941 C938 1.409 . S
C941 C939 1.415 . S
C942 H932 0.930 . S
C942 C940 1.419 . S
C942 C943 1.362 . S
C943 H933 0.930 . S
C943 C936 1.409 . S
C943 C942 1.362 . S
H944 C950 0.930 . S
H945 C953 0.930 . S
H946 C954 0.930 . S
H947 C955 0.930 . S
H948 C958 0.930 . S
H949 C959 0.930 . S
C950 H944 0.930 . S
C950 C951 1.355 . S
C950 C952 1.415 . S
C951 C950 1.355 . S
C951 C953 1.419 . S
C952 C950 1.415 . S
C952 C957 1.425 . S
C952 C959 1.409 . S
C953 H945 0.930 . S
C953 C951 1.419 . S
C953 C954 1.362 . S
C954 H946 0.930 . S
C954 C953 1.362 . S
C954 C957 1.409 . S
C955 H947 0.930 . S
C955 C956 1.355 . S
C955 C957 1.415 . S
C956 C955 1.355 . S
C956 C958 1.419 . S
C957 C952 1.425 . S
C957 C954 1.409 . S
C957 C955 1.415 . S
C958 H948 0.930 . S
C958 C956 1.419 . S
C958 C959 1.362 . S
C959 H949 0.930 . S
C959 C952 1.409 . S
C959 C958 1.362 . S
H960 C966 0.930 . S
H961 C969 0.930 . S
H962 C970 0.930 . S
H963 C971 0.930 . S
H964 C974 0.930 . S
H965 C975 0.930 . S
C966 H960 0.930 . S
C966 C967 1.355 . S
C966 C968 1.415 . S
C967 C966 1.355 . S
C967 C969 1.419 . S
C968 C966 1.415 . S
C968 C973 1.425 . S
C968 C975 1.409 . S
C969 H961 0.930 . S
C969 C967 1.419 . S
C969 C970 1.362 . S
C970 H962 0.930 . S
C970 C969 1.362 . S
C970 C973 1.409 . S
C971 H963 0.930 . S
C971 C972 1.355 . S
C971 C973 1.415 . S
C972 C971 1.355 . S
C972 C974 1.419 . S
C973 C968 1.425 . S
C973 C970 1.409 . S
C973 C971 1.415 . S
C974 H964 0.930 . S
C974 C972 1.419 . S
C974 C975 1.362 . S
C975 H965 0.930 . S
C975 C968 1.409 . S
C975 C974 1.362 . S
H976 C982 0.930 . S
H977 C985 0.930 . S
H978 C986 0.930 . S
H979 C987 0.930 . S
H980 C990 0.930 . S
H981 C991 0.930 . S
C982 H976 0.930 . S
C982 C983 1.355 . S
C982 C984 1.415 . S
C983 C982 1.355 . S
C983 C985 1.419 . S
C984 C982 1.415 . S
C984 C989 1.425 . S
C984 C991 1.409 . S
C985 H977 0.930 . S
C985 C983 1.419 . S
C985 C986 1.362 . S
C986 H978 0.930 . S
C986 C985 1.362 . S
C986 C989 1.409 . S
C987 H979 0.930 . S
C987 C988 1.355 . S
C987 C989 1.415 . S
C988 C987 1.355 . S
C988 C990 1.419 . S
C989 C984 1.425 . S
C989 C986 1.409 . S
C989 C987 1.415 . S
C990 H980 0.930 . S
C990 C988 1.419 . S
C990 C991 1.362 . S
C991 H981 0.930 . S
C991 C984 1.409 . S
C991 C990 1.362 . S
H992 C998 0.930 . S
H993 C1001 0.930 . S
H994 C1002 0.930 . S
H995 C1003 0.930 . S
H996 C1006 0.930 . S
H997 C1007 0.930 . S
C998 H992 0.930 . S
C998 C999 1.355 . S
C998 C1000 1.415 . S
C999 C998 1.355 . S
C999 C1001 1.419 . S
C1000 C998 1.415 . S
C1000 C1005 1.425 . S
C1000 C1007 1.409 . S
C1001 H993 0.930 . S
C1001 C999 1.419 . S
C1001 C1002 1.362 . S
C1002 H994 0.930 . S
C1002 C1001 1.362 . S
C1002 C1005 1.409 . S
C1003 H995 0.930 . S
C1003 C1004 1.355 . S
C1003 C1005 1.415 . S
C1004 C1003 1.355 . S
C1004 C1006 1.419 . S
C1005 C1000 1.425 . S
C1005 C1002 1.409 . S
C1005 C1003 1.415 . S
C1006 H996 0.930 . S
C1006 C1004 1.419 . S
C1006 C1007 1.362 . S
C1007 H997 0.930 . S
C1007 C1000 1.409 . S
C1007 C1006 1.362 . S
H1008 C1014 0.930 . S
H1009 C1017 0.930 . S
H1010 C1018 0.930 . S
H1011 C1019 0.930 . S
H1012 C1022 0.930 . S
H1013 C1023 0.930 . S
C1014 H1008 0.930 . S
C1014 C1015 1.355 . S
C1014 C1016 1.415 . S
C1015 C1014 1.355 . S
C1015 C1017 1.419 . S
C1016 C1014 1.415 . S
C1016 C1021 1.425 . S
C1016 C1023 1.409 . S
C1017 H1009 0.930 . S
C1017 C1015 1.419 . S
C1017 C1018 1.362 . S
C1018 H1010 0.930 . S
C1018 C1017 1.362 . S
C1018 C1021 1.409 . S
C1019 H1011 0.930 . S
C1019 C1020 1.355 . S
C1019 C1021 1.415 . S
C1020 C1019 1.355 . S
C1020 C1022 1.419 . S
C1021 C1016 1.425 . S
C1021 C1018 1.409 . S
C1021 C1019 1.415 . S
C1022 H1012 0.930 . S
C1022 C1020 1.419 . S
C1022 C1023 1.362 . S
C1023 H1013 0.930 . S
C1023 C1016 1.409 . S
C1023 C1022 1.362 . S
H1024 C1030 0.930 . S
H1025 C1033 0.930 . S
H1026 C1034 0.930 . S
H1027 C1035 0.930 . S
H1028 C1038 0.930 . S
H1029 C1039 0.930 . S
C1030 H1024 0.930 . S
C1030 C1031 1.355 . S
C1030 C1032 1.415 . S
C1031 C1030 1.355 . S
C1031 C1033 1.419 . S
C1032 C1030 1.415 . S
C1032 C1037 1.425 . S
C1032 C1039 1.409 . S
C1033 H1025 0.930 . S
C1033 C1031 1.419 . S
C1033 C1034 1.362 . S
C1034 H1026 0.930 . S
C1034 C1033 1.362 . S
C1034 C1037 1.409 . S
C1035 H1027 0.930 . S
C1035 C1036 1.355 . S
C1035 C1037 1.415 . S
C1036 C1035 1.355 . S
C1036 C1038 1.419 . S
C1037 C1032 1.425 . S
C1037 C1034 1.409 . S
C1037 C1035 1.415 . S
C1038 H1028 0.930 . S
C1038 C1036 1.419 . S
C1038 C1039 1.362 . S
C1039 H1029 0.930 . S
C1039 C1032 1.409 . S
C1039 C1038 1.362 . S
H1040 C1046 0.930 . S
H1041 C1049 0.930 . S
H1042 C1050 0.930 . S
H1043 C1051 0.930 . S
H1044 C1054 0.930 . S
H1045 C1055 0.930 . S
C1046 H1040 0.930 . S
C1046 C1047 1.355 . S
C1046 C1048 1.415 . S
C1047 C1046 1.355 . S
C1047 C1049 1.419 . S
C1048 C1046 1.415 . S
C1048 C1053 1.425 . S
C1048 C1055 1.409 1_545 S
C1049 H1041 0.930 . S
C1049 C1047 1.419 . S
C1049 C1050 1.362 . S
C1050 H1042 0.930 . S
C1050 C1049 1.362 . S
C1050 C1053 1.409 . S
C1051 H1043 0.930 . S
C1051 C1052 1.355 . S
C1051 C1053 1.415 1_565 S
C1052 C1051 1.355 . S
C1052 C1054 1.419 . S
C1053 C1048 1.425 . S
C1053 C1050 1.409 . S
C1053 C1051 1.415 1_545 S
C1054 H1044 0.930 . S
C1054 C1052 1.419 . S
C1054 C1055 1.362 . S
C1055 H1045 0.930 . S
C1055 C1048 1.409 1_565 S
C1055 C1054 1.362 . S
H1056 C1062 0.930 . S
H1057 C1065 0.930 . S
H1058 C1066 0.930 . S
H1059 C1067 0.930 . S
H1060 C1070 0.930 . S
H1061 C1071 0.930 . S
C1062 H1056 0.930 . S
C1062 C1063 1.355 . S
C1062 C1064 1.415 1_655 S
C1063 C1062 1.355 . S
C1063 C1065 1.419 . S
C1064 C1062 1.415 1_455 S
C1064 C1069 1.425 1_455 S
C1064 C1071 1.409 . S
C1065 H1057 0.930 . S
C1065 C1063 1.419 . S
C1065 C1066 1.362 . S
C1066 H1058 0.930 . S
C1066 C1065 1.362 . S
C1066 C1069 1.409 . S
C1067 H1059 0.930 . S
C1067 C1068 1.355 . S
C1067 C1069 1.415 1_455 S
C1068 C1067 1.355 . S
C1068 C1070 1.419 . S
C1069 C1064 1.425 1_655 S
C1069 C1066 1.409 . S
C1069 C1067 1.415 1_655 S
C1070 H1060 0.930 . S
C1070 C1068 1.419 . S
C1070 C1071 1.362 . S
C1071 H1061 0.930 . S
C1071 C1064 1.409 . S
C1071 C1070 1.362 . S
H1072 C1078 0.930 . S
H1073 C1081 0.930 . S
H1074 C1082 0.930 . S
H1075 C1083 0.930 . S
H1076 C1086 0.930 . S
H1077 C1087 0.930 . S
C1078 H1072 0.930 . S
C1078 C1079 1.355 . S
C1078 C1080 1.415 . S
C1079 C1078 1.355 . S
C1079 C1081 1.419 . S
C1080 C1078 1.415 . S
C1080 C1085 1.425 1_545 S
C1080 C1087 1.409 . S
C1081 H1073 0.930 . S
C1081 C1079 1.419 . S
C1081 C1082 1.362 1_545 S
C1082 H1074 0.930 . S
C1082 C1081 1.362 1_565 S
C1082 C1085 1.409 . S
C1083 H1075 0.930 . S
C1083 C1084 1.355 . S
C1083 C1085 1.415 . S
C1084 C1083 1.355 . S
C1084 C1086 1.419 . S
C1085 C1080 1.425 1_565 S
C1085 C1082 1.409 . S
C1085 C1083 1.415 . S
C1086 H1076 0.930 . S
C1086 C1084 1.419 . S
C1086 C1087 1.362 1_565 S
C1087 H1077 0.930 . S
C1087 C1080 1.409 . S
C1087 C1086 1.362 1_545 S
H1088 C1094 0.930 . S
H1089 C1097 0.930 . S
H1090 C1098 0.930 . S
H1091 C1099 0.930 . S
H1092 C1102 0.930 . S
H1093 C1103 0.930 . S
C1094 H1088 0.930 . S
C1094 C1095 1.355 . S
C1094 C1096 1.415 . S
C1095 C1094 1.355 . S
C1095 C1097 1.419 . S
C1096 C1094 1.415 . S
C1096 C1101 1.425 1_655 S
C1096 C1103 1.409 . S
C1097 H1089 0.930 . S
C1097 C1095 1.419 . S
C1097 C1098 1.362 1_655 S
C1098 H1090 0.930 . S
C1098 C1097 1.362 1_455 S
C1098 C1101 1.409 . S
C1099 H1091 0.930 . S
C1099 C1100 1.355 . S
C1099 C1101 1.415 . S
C1100 C1099 1.355 . S
C1100 C1102 1.419 . S
C1101 C1096 1.425 1_455 S
C1101 C1098 1.409 . S
C1101 C1099 1.415 . S
C1102 H1092 0.930 . S
C1102 C1100 1.419 . S
C1102 C1103 1.362 1_455 S
C1103 H1093 0.930 . S
C1103 C1096 1.409 . S
C1103 C1102 1.362 1_655 S
H1104 C1110 0.930 . S
H1105 C1113 0.930 . S
H1106 C1114 0.930 . S
H1107 C1115 0.930 . S
H1108 C1118 0.930 . S
H1109 C1119 0.930 . S
C1110 H1104 0.930 . S
C1110 C1111 1.355 . S
C1110 C1112 1.415 . S
C1111 C1110 1.355 . S
C1111 C1113 1.419 . S
C1112 C1110 1.415 . S
C1112 C1117 1.425 . S
C1112 C1119 1.409 1_565 S
C1113 H1105 0.930 . S
C1113 C1111 1.419 . S
C1113 C1114 1.362 . S
C1114 H1106 0.930 . S
C1114 C1113 1.362 . S
C1114 C1117 1.409 . S
C1115 H1107 0.930 . S
C1115 C1116 1.355 . S
C1115 C1117 1.415 1_545 S
C1116 C1115 1.355 . S
C1116 C1118 1.419 . S
C1117 C1112 1.425 . S
C1117 C1114 1.409 . S
C1117 C1115 1.415 1_565 S
C1118 H1108 0.930 . S
C1118 C1116 1.419 . S
C1118 C1119 1.362 . S
C1119 H1109 0.930 . S
C1119 C1112 1.409 1_545 S
C1119 C1118 1.362 . S
H1120 C1126 0.930 . S
H1121 C1129 0.930 . S
H1122 C1130 0.930 . S
H1123 C1131 0.930 . S
H1124 C1134 0.930 . S
H1125 C1135 0.930 . S
C1126 H1120 0.930 . S
C1126 C1127 1.355 . S
C1126 C1128 1.415 1_455 S
C1127 C1126 1.355 . S
C1127 C1129 1.419 . S
C1128 C1126 1.415 1_655 S
C1128 C1133 1.425 1_655 S
C1128 C1135 1.409 . S
C1129 H1121 0.930 . S
C1129 C1127 1.419 . S
C1129 C1130 1.362 . S
C1130 H1122 0.930 . S
C1130 C1129 1.362 . S
C1130 C1133 1.409 . S
C1131 H1123 0.930 . S
C1131 C1132 1.355 . S
C1131 C1133 1.415 1_655 S
C1132 C1131 1.355 . S
C1132 C1134 1.419 . S
C1133 C1128 1.425 1_455 S
C1133 C1130 1.409 . S
C1133 C1131 1.415 1_455 S
C1134 H1124 0.930 . S
C1134 C1132 1.419 . S
C1134 C1135 1.362 . S
C1135 H1125 0.930 . S
C1135 C1128 1.409 . S
C1135 C1134 1.362 . S
H1136 C1142 0.930 . S
H1137 C1145 0.930 . S
H1138 C1146 0.930 . S
H1139 C1147 0.930 . S
H1140 C1150 0.930 . S
H1141 C1151 0.930 . S
C1142 H1136 0.930 . S
C1142 C1143 1.355 . S
C1142 C1144 1.415 . S
C1143 C1142 1.355 . S
C1143 C1145 1.419 . S
C1144 C1142 1.415 . S
C1144 C1149 1.425 . S
C1144 C1151 1.409 1_565 S
C1145 H1137 0.930 . S
C1145 C1143 1.419 . S
C1145 C1146 1.362 . S
C1146 H1138 0.930 . S
C1146 C1145 1.362 . S
C1146 C1149 1.409 . S
C1147 H1139 0.930 . S
C1147 C1148 1.355 . S
C1147 C1149 1.415 1_545 S
C1148 C1147 1.355 . S
C1148 C1150 1.419 . S
C1149 C1144 1.425 . S
C1149 C1146 1.409 . S
C1149 C1147 1.415 1_565 S
C1150 H1140 0.930 . S
C1150 C1148 1.419 . S
C1150 C1151 1.362 . S
C1151 H1141 0.930 . S
C1151 C1144 1.409 1_545 S
C1151 C1150 1.362 . S
H1152 C1158 0.930 . S
H1153 C1161 0.930 . S
H1154 C1162 0.930 . S
H1155 C1163 0.930 . S
H1156 C1166 0.930 . S
H1157 C1167 0.930 . S
C1158 H1152 0.930 . S
C1158 C1159 1.355 . S
C1158 C1160 1.415 . S
C1159 C1158 1.355 . S
C1159 C1161 1.419 . S
C1160 C1158 1.415 . S
C1160 C1165 1.425 1_655 S
C1160 C1167 1.409 . S
C1161 H1153 0.930 . S
C1161 C1159 1.419 . S
C1161 C1162 1.362 1_655 S
C1162 H1154 0.930 . S
C1162 C1161 1.362 1_455 S
C1162 C1165 1.409 . S
C1163 H1155 0.930 . S
C1163 C1164 1.355 . S
C1163 C1165 1.415 . S
C1164 C1163 1.355 . S
C1164 C1166 1.419 . S
C1165 C1160 1.425 1_455 S
C1165 C1162 1.409 . S
C1165 C1163 1.415 . S
C1166 H1156 0.930 . S
C1166 C1164 1.419 . S
C1166 C1167 1.362 1_455 S
C1167 H1157 0.930 . S
C1167 C1160 1.409 . S
C1167 C1166 1.362 1_655 S
C535 N80 0.588 . S
C540 N14 0.587 . S
C551 N47 0.654 . S
C556 N104 0.672 . S
C567 N212 0.603 . S
C572 N146 0.602 . S
C583 N236 0.689 . S
C588 N179 0.654 . S
C599 N278 0.647 . S
C604 N335 0.713 . S
C615 N311 0.589 . S
C620 N377 0.592 . S
C631 N401 0.557 . S
C636 N476 0.605 . S
C647 N509 0.647 . S
C652 N443 0.652 . S
C663 N5 1.431 . S
C668 N170 1.437 . S
C679 N203 1.438 . S
C684 N38 1.432 . S
C695 N245 1.441 . S
C700 N71 1.397 . S
C711 N137 1.402 . S
C716 N113 1.397 . S
C727 N434 1.445 . S
C732 N269 1.381 . S
C743 N467 1.442 . S
C748 N302 1.421 . S
C759 N500 1.370 . S
C764 N344 1.453 . S
C775 N410 1.452 . S
C780 N368 1.370 . S
C791 C17 1.474 . S
C796 C347 1.481 . S
C807 C380 1.496 . S
C812 C50 1.516 . S
C823 C281 1.487 . S
C828 C83 1.489 . S
C839 C314 1.475 . S
C844 C116 1.480 . S
C855 C149 1.508 . S
C860 C479 1.512 . S
C871 C182 1.484 . S
C876 C512 1.498 . S
C887 C215 1.488 . S
C892 C413 1.463 . S
C903 C248 1.454 . S
C908 C446 1.491 . S
C919 C140 1.509 . S
C924 C8 1.513 . S
C935 C41 1.622 . S
C940 C173 1.610 . S
C951 C206 1.493 . S
C956 C74 1.527 . S
C967 C259 1.428 . S
C972 C127 1.471 . S
C983 C292 0.850 . S
C988 C404 0.993 . S
C999 C457 0.797 . S
C1004 C325 0.909 . S
C1015 C338 0.883 . S
C1020 C490 0.990 . S
C1031 C523 0.837 . S
C1036 C391 0.943 . S
C1047 C371 1.541 . S
C1052 C437 1.482 . S
C1063 C272 1.616 . S
C1068 C470 1.616 . S
C1079 C503 1.494 . S
C1084 C305 1.530 . S
C1095 C424 1.438 . S
C1100 C358 1.464 . S
C1111 C107 0.882 . S
C1116 C193 0.992 . S
C1127 C28 0.801 . S
C1132 C226 0.906 . S
C1143 C239 0.989 . S
C1148 C61 0.857 . S
C1159 C94 0.912 . S
C1164 C160 0.879 . S
