# Generated by pormake.
# Topology wlu, (5)-cn, num edge types: 1
# Building blocks:
#     Node 0, Type 0, BuildingBlock: BEQFEK_clean_sbu_0, # of connection points: 5
#     Node 1, Type 0, BuildingBlock: BEQFEK_clean_sbu_0, # of connection points: 5
#     Node 2, Type 0, BuildingBlock: BEQFEK_clean_sbu_0, # of connection points: 5
#     Node 3, Type 0, BuildingBlock: BEQFEK_clean_sbu_0, # of connection points: 5
#     Node 4, Type 0, BuildingBlock: BEQFEK_clean_sbu_0, # of connection points: 5
#     Node 5, Type 0, BuildingBlock: BEQFEK_clean_sbu_0, # of connection points: 5
#     Node 6, Type 0, BuildingBlock: BEQFEK_clean_sbu_0, # of connection points: 5
#     Node 7, Type 0, BuildingBlock: BEQFEK_clean_sbu_0, # of connection points: 5
#     Node 8, Type 0, BuildingBlock: BEQFEK_clean_sbu_0, # of connection points: 5
#     Node 9, Type 0, BuildingBlock: BEQFEK_clean_sbu_0, # of connection points: 5
#     Node 10, Type 0, BuildingBlock: BEQFEK_clean_sbu_0, # of connection points: 5
#     Node 11, Type 0, BuildingBlock: BEQFEK_clean_sbu_0, # of connection points: 5
#     Node 12, Type 0, BuildingBlock: BEQFEK_clean_sbu_0, # of connection points: 5
#     Node 13, Type 0, BuildingBlock: BEQFEK_clean_sbu_0, # of connection points: 5
#     Node 14, Type 0, BuildingBlock: BEQFEK_clean_sbu_0, # of connection points: 5
#     Node 15, Type 0, BuildingBlock: BEQFEK_clean_sbu_0, # of connection points: 5
#     Node 16, Type 0, BuildingBlock: BEQFEK_clean_sbu_0, # of connection points: 5
#     Node 17, Type 0, BuildingBlock: BEQFEK_clean_sbu_0, # of connection points: 5
#     Node 18, Type 0, BuildingBlock: BEQFEK_clean_sbu_0, # of connection points: 5
#     Node 19, Type 0, BuildingBlock: BEQFEK_clean_sbu_0, # of connection points: 5
#     Node 20, Type 0, BuildingBlock: BEQFEK_clean_sbu_0, # of connection points: 5
#     Node 21, Type 0, BuildingBlock: BEQFEK_clean_sbu_0, # of connection points: 5
#     Node 22, Type 0, BuildingBlock: BEQFEK_clean_sbu_0, # of connection points: 5
#     Node 23, Type 0, BuildingBlock: BEQFEK_clean_sbu_0, # of connection points: 5
#     Node 24, Type 0, BuildingBlock: BEQFEK_clean_sbu_0, # of connection points: 5
#     Node 25, Type 0, BuildingBlock: BEQFEK_clean_sbu_0, # of connection points: 5
#     Node 26, Type 0, BuildingBlock: BEQFEK_clean_sbu_0, # of connection points: 5
#     Node 27, Type 0, BuildingBlock: BEQFEK_clean_sbu_0, # of connection points: 5
#     Node 28, Type 0, BuildingBlock: BEQFEK_clean_sbu_0, # of connection points: 5
#     Node 29, Type 0, BuildingBlock: BEQFEK_clean_sbu_0, # of connection points: 5
#     Node 30, Type 0, BuildingBlock: BEQFEK_clean_sbu_0, # of connection points: 5
#     Node 31, Type 0, BuildingBlock: BEQFEK_clean_sbu_0, # of connection points: 5
#     Node 32, Type 0, BuildingBlock: BEQFEK_clean_sbu_0, # of connection points: 5
#     Node 33, Type 0, BuildingBlock: BEQFEK_clean_sbu_0, # of connection points: 5
#     Node 34, Type 0, BuildingBlock: BEQFEK_clean_sbu_0, # of connection points: 5
#     Node 35, Type 0, BuildingBlock: BEQFEK_clean_sbu_0, # of connection points: 5
#     Edge 36, Type (0, 0), BuildingBlock: ZUJKAS_clean_linker_0, # of connection points: 2
#     Edge 37, Type (0, 0), BuildingBlock: ZUJKAS_clean_linker_0, # of connection points: 2
#     Edge 38, Type (0, 0), BuildingBlock: ZUJKAS_clean_linker_0, # of connection points: 2
#     Edge 39, Type (0, 0), BuildingBlock: ZUJKAS_clean_linker_0, # of connection points: 2
#     Edge 40, Type (0, 0), BuildingBlock: ZUJKAS_clean_linker_0, # of connection points: 2
#     Edge 41, Type (0, 0), BuildingBlock: ZUJKAS_clean_linker_0, # of connection points: 2
#     Edge 42, Type (0, 0), BuildingBlock: ZUJKAS_clean_linker_0, # of connection points: 2
#     Edge 43, Type (0, 0), BuildingBlock: ZUJKAS_clean_linker_0, # of connection points: 2
#     Edge 44, Type (0, 0), BuildingBlock: ZUJKAS_clean_linker_0, # of connection points: 2
#     Edge 45, Type (0, 0), BuildingBlock: ZUJKAS_clean_linker_0, # of connection points: 2
#     Edge 46, Type (0, 0), BuildingBlock: ZUJKAS_clean_linker_0, # of connection points: 2
#     Edge 47, Type (0, 0), BuildingBlock: ZUJKAS_clean_linker_0, # of connection points: 2
#     Edge 48, Type (0, 0), BuildingBlock: ZUJKAS_clean_linker_0, # of connection points: 2
#     Edge 49, Type (0, 0), BuildingBlock: ZUJKAS_clean_linker_0, # of connection points: 2
#     Edge 50, Type (0, 0), BuildingBlock: ZUJKAS_clean_linker_0, # of connection points: 2
#     Edge 51, Type (0, 0), BuildingBlock: ZUJKAS_clean_linker_0, # of connection points: 2
#     Edge 52, Type (0, 0), BuildingBlock: ZUJKAS_clean_linker_0, # of connection points: 2
#     Edge 53, Type (0, 0), BuildingBlock: ZUJKAS_clean_linker_0, # of connection points: 2
#     Edge 54, Type (0, 0), BuildingBlock: ZUJKAS_clean_linker_0, # of connection points: 2
#     Edge 55, Type (0, 0), BuildingBlock: ZUJKAS_clean_linker_0, # of connection points: 2
#     Edge 56, Type (0, 0), BuildingBlock: ZUJKAS_clean_linker_0, # of connection points: 2
#     Edge 57, Type (0, 0), BuildingBlock: ZUJKAS_clean_linker_0, # of connection points: 2
#     Edge 58, Type (0, 0), BuildingBlock: ZUJKAS_clean_linker_0, # of connection points: 2
#     Edge 59, Type (0, 0), BuildingBlock: ZUJKAS_clean_linker_0, # of connection points: 2
#     Edge 60, Type (0, 0), BuildingBlock: ZUJKAS_clean_linker_0, # of connection points: 2
#     Edge 61, Type (0, 0), BuildingBlock: ZUJKAS_clean_linker_0, # of connection points: 2
#     Edge 62, Type (0, 0), BuildingBlock: ZUJKAS_clean_linker_0, # of connection points: 2
#     Edge 63, Type (0, 0), BuildingBlock: ZUJKAS_clean_linker_0, # of connection points: 2
#     Edge 64, Type (0, 0), BuildingBlock: ZUJKAS_clean_linker_0, # of connection points: 2
#     Edge 65, Type (0, 0), BuildingBlock: ZUJKAS_clean_linker_0, # of connection points: 2
#     Edge 66, Type (0, 0), BuildingBlock: ZUJKAS_clean_linker_0, # of connection points: 2
#     Edge 67, Type (0, 0), BuildingBlock: ZUJKAS_clean_linker_0, # of connection points: 2
#     Edge 68, Type (0, 0), BuildingBlock: ZUJKAS_clean_linker_0, # of connection points: 2
#     Edge 69, Type (0, 0), BuildingBlock: ZUJKAS_clean_linker_0, # of connection points: 2
#     Edge 70, Type (0, 0), BuildingBlock: ZUJKAS_clean_linker_0, # of connection points: 2
#     Edge 71, Type (0, 0), BuildingBlock: ZUJKAS_clean_linker_0, # of connection points: 2
#     Edge 72, Type (0, 0), BuildingBlock: ZUJKAS_clean_linker_0, # of connection points: 2
#     Edge 73, Type (0, 0), BuildingBlock: ZUJKAS_clean_linker_0, # of connection points: 2
#     Edge 74, Type (0, 0), BuildingBlock: ZUJKAS_clean_linker_0, # of connection points: 2
#     Edge 75, Type (0, 0), BuildingBlock: ZUJKAS_clean_linker_0, # of connection points: 2
#     Edge 76, Type (0, 0), BuildingBlock: ZUJKAS_clean_linker_0, # of connection points: 2
#     Edge 77, Type (0, 0), BuildingBlock: ZUJKAS_clean_linker_0, # of connection points: 2
#     Edge 78, Type (0, 0), BuildingBlock: ZUJKAS_clean_linker_0, # of connection points: 2
#     Edge 79, Type (0, 0), BuildingBlock: ZUJKAS_clean_linker_0, # of connection points: 2
#     Edge 80, Type (0, 0), BuildingBlock: ZUJKAS_clean_linker_0, # of connection points: 2
#     Edge 81, Type (0, 0), BuildingBlock: ZUJKAS_clean_linker_0, # of connection points: 2
#     Edge 82, Type (0, 0), BuildingBlock: ZUJKAS_clean_linker_0, # of connection points: 2
#     Edge 83, Type (0, 0), BuildingBlock: ZUJKAS_clean_linker_0, # of connection points: 2
#     Edge 84, Type (0, 0), BuildingBlock: ZUJKAS_clean_linker_0, # of connection points: 2
#     Edge 85, Type (0, 0), BuildingBlock: ZUJKAS_clean_linker_0, # of connection points: 2
#     Edge 86, Type (0, 0), BuildingBlock: ZUJKAS_clean_linker_0, # of connection points: 2
#     Edge 87, Type (0, 0), BuildingBlock: ZUJKAS_clean_linker_0, # of connection points: 2
#     Edge 88, Type (0, 0), BuildingBlock: ZUJKAS_clean_linker_0, # of connection points: 2
#     Edge 89, Type (0, 0), BuildingBlock: ZUJKAS_clean_linker_0, # of connection points: 2
#     Edge 90, Type (0, 0), BuildingBlock: ZUJKAS_clean_linker_0, # of connection points: 2
#     Edge 91, Type (0, 0), BuildingBlock: ZUJKAS_clean_linker_0, # of connection points: 2
#     Edge 92, Type (0, 0), BuildingBlock: ZUJKAS_clean_linker_0, # of connection points: 2
#     Edge 93, Type (0, 0), BuildingBlock: ZUJKAS_clean_linker_0, # of connection points: 2
#     Edge 94, Type (0, 0), BuildingBlock: ZUJKAS_clean_linker_0, # of connection points: 2
#     Edge 95, Type (0, 0), BuildingBlock: ZUJKAS_clean_linker_0, # of connection points: 2
#     Edge 96, Type (0, 0), BuildingBlock: ZUJKAS_clean_linker_0, # of connection points: 2
#     Edge 97, Type (0, 0), BuildingBlock: ZUJKAS_clean_linker_0, # of connection points: 2
#     Edge 98, Type (0, 0), BuildingBlock: ZUJKAS_clean_linker_0, # of connection points: 2
#     Edge 99, Type (0, 0), BuildingBlock: ZUJKAS_clean_linker_0, # of connection points: 2
#     Edge 100, Type (0, 0), BuildingBlock: ZUJKAS_clean_linker_0, # of connection points: 2
#     Edge 101, Type (0, 0), BuildingBlock: ZUJKAS_clean_linker_0, # of connection points: 2
#     Edge 102, Type (0, 0), BuildingBlock: ZUJKAS_clean_linker_0, # of connection points: 2
#     Edge 103, Type (0, 0), BuildingBlock: ZUJKAS_clean_linker_0, # of connection points: 2
#     Edge 104, Type (0, 0), BuildingBlock: ZUJKAS_clean_linker_0, # of connection points: 2
#     Edge 105, Type (0, 0), BuildingBlock: ZUJKAS_clean_linker_0, # of connection points: 2
#     Edge 106, Type (0, 0), BuildingBlock: ZUJKAS_clean_linker_0, # of connection points: 2
#     Edge 107, Type (0, 0), BuildingBlock: ZUJKAS_clean_linker_0, # of connection points: 2
#     Edge 108, Type (0, 0), BuildingBlock: ZUJKAS_clean_linker_0, # of connection points: 2
#     Edge 109, Type (0, 0), BuildingBlock: ZUJKAS_clean_linker_0, # of connection points: 2
#     Edge 110, Type (0, 0), BuildingBlock: ZUJKAS_clean_linker_0, # of connection points: 2
#     Edge 111, Type (0, 0), BuildingBlock: ZUJKAS_clean_linker_0, # of connection points: 2
#     Edge 112, Type (0, 0), BuildingBlock: ZUJKAS_clean_linker_0, # of connection points: 2
#     Edge 113, Type (0, 0), BuildingBlock: ZUJKAS_clean_linker_0, # of connection points: 2
#     Edge 114, Type (0, 0), BuildingBlock: ZUJKAS_clean_linker_0, # of connection points: 2
#     Edge 115, Type (0, 0), BuildingBlock: ZUJKAS_clean_linker_0, # of connection points: 2
#     Edge 116, Type (0, 0), BuildingBlock: ZUJKAS_clean_linker_0, # of connection points: 2
#     Edge 117, Type (0, 0), BuildingBlock: ZUJKAS_clean_linker_0, # of connection points: 2
#     Edge 118, Type (0, 0), BuildingBlock: ZUJKAS_clean_linker_0, # of connection points: 2
#     Edge 119, Type (0, 0), BuildingBlock: ZUJKAS_clean_linker_0, # of connection points: 2
#     Edge 120, Type (0, 0), BuildingBlock: ZUJKAS_clean_linker_0, # of connection points: 2
#     Edge 121, Type (0, 0), BuildingBlock: ZUJKAS_clean_linker_0, # of connection points: 2
#     Edge 122, Type (0, 0), BuildingBlock: ZUJKAS_clean_linker_0, # of connection points: 2
#     Edge 123, Type (0, 0), BuildingBlock: ZUJKAS_clean_linker_0, # of connection points: 2
#     Edge 124, Type (0, 0), BuildingBlock: ZUJKAS_clean_linker_0, # of connection points: 2
#     Edge 125, Type (0, 0), BuildingBlock: ZUJKAS_clean_linker_0, # of connection points: 2
# Relax obj value: 0.085
# Max RMSD: 0.145
# Mean RMSD: 0.145
data_MOF--net-wlu--node1-BEQFEK_clean_sbu_0--edge1-ZUJKAS_clean_linker_0
_symmetry_space_group_name_H-M    P1
_symmetry_Int_Tables_number       1
_symmetry_cell_setting            triclinic
loop_
_symmetry_equiv_pos_as_xyz
'x, y, z'
_cell_length_a     85.363332
_cell_length_b     85.352712
_cell_length_c     73.317492
_cell_angle_alpha  89.999289
_cell_angle_beta   90.009441
_cell_angle_gamma 119.98467
loop_
_atom_site_label
_atom_site_type_symbol
_atom_site_fract_x
_atom_site_fract_y
_atom_site_fract_z
_atom_type_partial_charge
Co0 Co 0.29528 0.20926 0.04022 0.0
Co1 Co 0.26745 0.16813 0.03409 0.0
C2 C 0.29703 0.19005 0.00706 0.0
O3 O 0.30347 0.2043 0.01681 0.0
O4 O 0.28318 0.1754 0.01213 0.0
C5 C 0.32934 0.2428 0.04367 0.0
O6 O 0.33563 0.23535 0.03233 0.0
C7 C 0.25524 0.13033 0.02564 0.0
C8 C 0.22702 0.11638 0.03552 0.0
C9 C 0.23973 0.11347 0.02675 0.0
N10 N 0.25177 0.14262 0.03317 0.0
N11 N 0.23489 0.13421 0.0391 0.0
C12 C 0.27341 0.13475 0.01848 0.0
H13 H 0.28422 0.14661 0.02582 0.0
H14 H 0.27558 0.12303 0.02001 0.0
H15 H 0.27426 0.13824 0.0038 0.0
C16 C 0.30176 0.19463 0.07417 0.0
N17 N 0.29305 0.19239 0.05824 0.0
N18 N 0.28145 0.17509 0.05581 0.0
C19 C 0.2824 0.16574 0.07019 0.0
C20 C 0.29528 0.17784 0.08233 0.0
C21 C 0.3169 0.21242 0.08069 0.0
H22 H 0.32755 0.21819 0.07006 0.0
H23 H 0.32306 0.21112 0.09349 0.0
H24 H 0.31179 0.22195 0.08284 0.0
O25 O 0.27196 0.20858 0.03633 0.0
O26 O 0.25211 0.17942 0.03268 0.0
H27 H 0.2723 0.14122 0.08622 0.0
H28 H 0.27454 0.13878 0.062 0.0
C29 C 0.27079 0.14571 0.07246 0.0
H30 H 0.25642 0.14174 0.0703 0.0
H31 H 0.2287 0.14067 0.04541 0.0
O32 O 0.31283 0.23404 0.04846 0.0
C33 C 0.25585 0.19583 0.03353 0.0
Co34 Co 0.78664 0.08392 0.0407 0.0
Co35 Co 0.82799 0.09832 0.03462 0.0
C36 C 0.80594 0.10581 0.0078 0.0
O37 O 0.79166 0.09721 0.01737 0.0
O38 O 0.82093 0.10737 0.01291 0.0
C39 C 0.75323 0.08459 0.04513 0.0
O40 O 0.7613 0.09974 0.03578 0.0
C41 C 0.8663 0.12333 0.02675 0.0
C42 C 0.87927 0.10856 0.03791 0.0
C43 C 0.88289 0.12417 0.02866 0.0
N44 N 0.85349 0.10786 0.03432 0.0
N45 N 0.86133 0.0991 0.041 0.0
C46 C 0.86266 0.13733 0.01878 0.0
H47 H 0.85064 0.13668 0.02536 0.0
H48 H 0.87454 0.15108 0.02052 0.0
H49 H 0.85984 0.13464 0.004 0.0
C50 C 0.80071 0.10443 0.07511 0.0
N51 N 0.80322 0.09843 0.059 0.0
N52 N 0.82061 0.10464 0.05653 0.0
C53 C 0.82977 0.11491 0.071 0.0
C54 C 0.81744 0.11506 0.08328 0.0
C55 C 0.78273 0.10113 0.08176 0.0
H56 H 0.77723 0.10694 0.07183 0.0
H57 H 0.78362 0.1074 0.09523 0.0
H58 H 0.77319 0.08636 0.08261 0.0
O59 O 0.78765 0.06158 0.03661 0.0
O60 O 0.81688 0.07174 0.03236 0.0
H61 H 0.85424 0.11384 0.07159 0.0
H62 H 0.85435 0.13059 0.08667 0.0
C63 C 0.84986 0.12399 0.07315 0.0
H64 H 0.85644 0.13426 0.06225 0.0
H65 H 0.8544 0.08658 0.04752 0.0
O66 O 0.76164 0.07614 0.04849 0.0
C67 C 0.80065 0.05873 0.03332 0.0
Co68 Co 0.91319 0.70071 0.04104 0.0
Co69 Co 0.89795 0.72704 0.03493 0.0
C70 C 0.89191 0.6984 0.0076 0.0
O71 O 0.90069 0.69297 0.01724 0.0
O72 O 0.88964 0.71136 0.01288 0.0
C73 C 0.91216 0.66655 0.04512 0.0
O74 O 0.8969 0.65981 0.03599 0.0
C75 C 0.87454 0.74202 0.0253 0.0
C76 C 0.88636 0.7669 0.04203 0.0
C77 C 0.87288 0.75701 0.02944 0.0
N78 N 0.88822 0.74292 0.0352 0.0
N79 N 0.89524 0.75783 0.04514 0.0
C80 C 0.86506 0.72833 0.0106 0.0
H81 H 0.87519 0.72996 0.0002 0.0
H82 H 0.85916 0.71452 0.01642 0.0
H83 H 0.85442 0.72993 0.00369 0.0
C84 C 0.89163 0.69304 0.07492 0.0
N85 N 0.89791 0.70192 0.05903 0.0
N86 N 0.89118 0.71265 0.05641 0.0
C87 C 0.88014 0.71072 0.07045 0.0
C88 C 0.88015 0.6983 0.08268 0.0
C89 C 0.89563 0.67891 0.08185 0.0
H90 H 0.88963 0.66721 0.0724 0.0
H91 H 0.88996 0.67401 0.09563 0.0
H92 H 0.91047 0.68445 0.08217 0.0
O93 O 0.93537 0.72437 0.03797 0.0
O94 O 0.92456 0.74289 0.03349 0.0
H95 H 0.86095 0.71634 0.08419 0.0
H96 H 0.86232 0.71926 0.05965 0.0
C97 C 0.87017 0.72091 0.07227 0.0
H98 H 0.88009 0.73549 0.07397 0.0
H99 H 0.90625 0.76193 0.05389 0.0
O100 O 0.92095 0.6834 0.04854 0.0
C101 C 0.93784 0.74012 0.03486 0.0
Co102 Co 0.2107 0.29487 0.4593 0.0
Co103 Co 0.16889 0.26973 0.46476 0.0
C104 C 0.19134 0.29837 0.49193 0.0
O105 O 0.20567 0.3031 0.4827 0.0
O106 O 0.17602 0.28573 0.48649 0.0
C107 C 0.24304 0.32905 0.45397 0.0
O108 O 0.23348 0.33575 0.46101 0.0
C109 C 0.13043 0.25416 0.47465 0.0
C110 C 0.11719 0.23203 0.45452 0.0
C111 C 0.11368 0.24029 0.46896 0.0
N112 N 0.14322 0.25428 0.46385 0.0
N113 N 0.13521 0.24096 0.45192 0.0
C114 C 0.13453 0.26589 0.49115 0.0
H115 H 0.14468 0.26476 0.49962 0.0
H116 H 0.14043 0.28019 0.48681 0.0
H117 H 0.1224 0.26193 0.49967 0.0
C118 C 0.19799 0.30266 0.42464 0.0
N119 N 0.19483 0.2939 0.44069 0.0
N120 N 0.17725 0.28395 0.44319 0.0
C121 C 0.16868 0.28648 0.42901 0.0
C122 C 0.18156 0.2984 0.41679 0.0
C123 C 0.21637 0.31425 0.41655 0.0
H124 H 0.22514 0.30843 0.41957 0.0
H125 H 0.22255 0.328 0.42256 0.0
H126 H 0.21559 0.31542 0.40154 0.0
O127 O 0.20862 0.27105 0.46295 0.0
O128 O 0.17911 0.25337 0.46711 0.0
H129 H 0.14227 0.26472 0.42278 0.0
H130 H 0.14518 0.28679 0.41844 0.0
C131 C 0.14865 0.27882 0.42788 0.0
H132 H 0.14311 0.2787 0.44158 0.0
H133 H 0.14208 0.23792 0.44203 0.0
O134 O 0.23594 0.31201 0.45235 0.0
C135 C 0.19498 0.25557 0.46614 0.0
Co136 Co 0.70068 0.91187 0.45844 0.0
Co137 Co 0.72914 0.89925 0.464 0.0
C138 C 0.70081 0.89263 0.49227 0.0
O139 O 0.69411 0.90022 0.48258 0.0
O140 O 0.71424 0.89128 0.4867 0.0
C141 C 0.66671 0.91184 0.4571 0.0
O142 O 0.6615 0.89977 0.47021 0.0
C143 C 0.74295 0.87481 0.47238 0.0
C144 C 0.76981 0.88843 0.45919 0.0
C145 C 0.75827 0.87349 0.46954 0.0
N146 N 0.7453 0.88992 0.46422 0.0
N147 N 0.76142 0.89804 0.45639 0.0
C148 C 0.72599 0.86149 0.48196 0.0
H149 H 0.71415 0.86174 0.47605 0.0
H150 H 0.72398 0.84763 0.48096 0.0
H151 H 0.72712 0.86522 0.49658 0.0
C152 C 0.6925 0.88896 0.42566 0.0
N153 N 0.70202 0.89626 0.44101 0.0
N154 N 0.71427 0.89133 0.44287 0.0
C155 C 0.71319 0.88097 0.42848 0.0
C156 C 0.69933 0.87913 0.41706 0.0
C157 C 0.67639 0.89042 0.42014 0.0
H158 H 0.66734 0.88741 0.43206 0.0
H159 H 0.66856 0.88085 0.40905 0.0
H160 H 0.68093 0.90446 0.41564 0.0
O161 O 0.72401 0.93479 0.46051 0.0
O162 O 0.74416 0.92591 0.46442 0.0
H163 H 0.72445 0.86821 0.41144 0.0
H164 H 0.72355 0.8636 0.43564 0.0
C165 C 0.72596 0.87404 0.42527 0.0
H166 H 0.74005 0.88528 0.42684 0.0
H167 H 0.76668 0.91015 0.44913 0.0
O168 O 0.68256 0.91845 0.45056 0.0
C169 C 0.74024 0.93842 0.46299 0.0
Co170 Co 0.0844 0.78767 0.45755 0.0
Co171 Co 0.09768 0.82889 0.4635 0.0
C172 C 0.10558 0.80747 0.49073 0.0
O173 O 0.09722 0.79313 0.4812 0.0
O174 O 0.10699 0.82237 0.48547 0.0
C175 C 0.08392 0.75344 0.45647 0.0
O176 O 0.09528 0.75982 0.47022 0.0
C177 C 0.12111 0.86762 0.47135 0.0
C178 C 0.10565 0.87929 0.45881 0.0
C179 C 0.12115 0.88376 0.46872 0.0
N180 N 0.10631 0.85428 0.46327 0.0
N181 N 0.09718 0.86135 0.45572 0.0
C182 C 0.13341 0.86428 0.48322 0.0
H183 H 0.12626 0.85818 0.49618 0.0
H184 H 0.13649 0.85449 0.47648 0.0
H185 H 0.14613 0.87681 0.48657 0.0
C186 C 0.10575 0.80218 0.42381 0.0
N187 N 0.09906 0.80448 0.43956 0.0
N188 N 0.10475 0.82179 0.4419 0.0
C189 C 0.1153 0.8311 0.42764 0.0
C190 C 0.11622 0.81895 0.41567 0.0
C191 C 0.10318 0.78436 0.41749 0.0
H192 H 0.10727 0.77827 0.42855 0.0
H193 H 0.11129 0.78572 0.40517 0.0
H194 H 0.08865 0.77506 0.41455 0.0
O195 O 0.06152 0.78783 0.46092 0.0
O196 O 0.07097 0.81692 0.46536 0.0
H197 H 0.11332 0.85504 0.42612 0.0
H198 H 0.13109 0.85582 0.41218 0.0
C199 C 0.1239 0.85115 0.42539 0.0
H200 H 0.13354 0.85799 0.43674 0.0
H201 H 0.08496 0.85385 0.44879 0.0
O202 O 0.07784 0.763 0.44956 0.0
C203 C 0.05824 0.80057 0.46413 0.0
Co204 Co 0.70199 0.78638 0.95848 0.0
Co205 Co 0.72858 0.82785 0.9639 0.0
C206 C 0.70017 0.80585 0.99166 0.0
O207 O 0.69426 0.79149 0.98216 0.0
O208 O 0.71336 0.82083 0.98619 0.0
C209 C 0.66766 0.75358 0.95354 0.0
O210 O 0.66069 0.76241 0.9617 0.0
C211 C 0.7421 0.86613 0.97212 0.0
C212 C 0.7688 0.87929 0.9586 0.0
C213 C 0.75752 0.8828 0.96929 0.0
N214 N 0.7443 0.85338 0.96371 0.0
N215 N 0.76026 0.86134 0.95561 0.0
C216 C 0.72504 0.86238 0.98158 0.0
H217 H 0.71328 0.85022 0.97566 0.0
H218 H 0.72286 0.87412 0.98042 0.0
H219 H 0.72606 0.85978 0.99623 0.0
C220 C 0.69422 0.79995 0.92434 0.0
N221 N 0.7032 0.80265 0.94019 0.0
N222 N 0.71402 0.82013 0.9426 0.0
C223 C 0.71208 0.82913 0.92847 0.0
C224 C 0.69942 0.81662 0.91645 0.0
C225 C 0.68152 0.78172 0.91649 0.0
H226 H 0.68699 0.77251 0.9186 0.0
H227 H 0.66829 0.77599 0.92353 0.0
H228 H 0.67941 0.78255 0.90167 0.0
O229 O 0.72558 0.78773 0.96177 0.0
O230 O 0.74446 0.81712 0.96521 0.0
H231 H 0.73603 0.85478 0.92501 0.0
H232 H 0.71586 0.85381 0.91591 0.0
C233 C 0.72134 0.84931 0.92718 0.0
H234 H 0.7196 0.85489 0.94018 0.0
H235 H 0.7654 0.85447 0.94819 0.0
O236 O 0.68466 0.7613 0.95119 0.0
C237 C 0.74146 0.80096 0.96437 0.0
Co238 Co 0.20812 0.91027 0.95768 0.0
Co239 Co 0.16741 0.89812 0.96454 0.0
C240 C 0.18904 0.89024 0.99152 0.0
O241 O 0.20315 0.89791 0.98158 0.0
O242 O 0.17428 0.88929 0.98655 0.0
C243 C 0.24603 0.92243 0.95963 0.0
O244 O 0.24431 0.92593 0.97673 0.0
C245 C 0.12917 0.87508 0.97382 0.0
C246 C 0.11676 0.88985 0.96135 0.0
C247 C 0.11286 0.87476 0.97174 0.0
N248 N 0.14214 0.88979 0.9653 0.0
N249 N 0.13464 0.89856 0.95784 0.0
C250 C 0.13229 0.86106 0.98264 0.0
H251 H 0.14402 0.86094 0.9763 0.0
H252 H 0.12011 0.84744 0.98141 0.0
H253 H 0.13522 0.86435 0.99731 0.0
C254 C 0.19242 0.88835 0.92447 0.0
N255 N 0.1907 0.8955 0.94018 0.0
N256 N 0.17352 0.89009 0.94298 0.0
C257 C 0.16369 0.87918 0.92913 0.0
C258 C 0.17537 0.87767 0.91697 0.0
C259 C 0.21022 0.89237 0.91654 0.0
H260 H 0.21958 0.9072 0.91654 0.0
H261 H 0.21624 0.88607 0.92519 0.0
H262 H 0.20881 0.88731 0.90236 0.0
O263 O 0.20877 0.93359 0.96074 0.0
O264 O 0.17991 0.92493 0.96553 0.0
H265 H 0.13899 0.87965 0.9268 0.0
H266 H 0.13812 0.85987 0.91672 0.0
C267 C 0.14348 0.86956 0.92825 0.0
H268 H 0.1378 0.86209 0.94116 0.0
H269 H 0.14176 0.91055 0.95045 0.0
O270 O 0.23223 0.91559 0.94932 0.0
C271 C 0.19636 0.93735 0.96394 0.0
Co272 Co 0.08334 0.29684 0.95832 0.0
Co273 Co 0.09884 0.27081 0.96506 0.0
C274 C 0.10512 0.29987 0.99172 0.0
O275 O 0.0961 0.30495 0.98199 0.0
O276 O 0.10748 0.28691 0.98672 0.0
C277 C 0.08602 0.33136 0.95225 0.0
O278 O 0.10258 0.33792 0.95843 0.0
C279 C 0.12173 0.25538 0.97556 0.0
C280 C 0.11236 0.23245 0.95637 0.0
C281 C 0.12453 0.24133 0.97035 0.0
N282 N 0.10871 0.255 0.96492 0.0
N283 N 0.1031 0.24119 0.95356 0.0
C284 C 0.12989 0.26788 0.99145 0.0
H285 H 0.11887 0.26685 0.00027 0.0
H286 H 0.13781 0.28201 0.98644 0.0
H287 H 0.13863 0.26456 -0.00016 0.0
C288 C 0.1047 0.30399 0.92429 0.0
N289 N 0.09843 0.29531 0.94029 0.0
N290 N 0.10552 0.28496 0.94335 0.0
C291 C 0.11695 0.28714 0.92961 0.0
C292 C 0.11676 0.29924 0.91706 0.0
C293 C 0.09867 0.316 0.91569 0.0
H294 H 0.08413 0.31075 0.91849 0.0
H295 H 0.10659 0.32979 0.92152 0.0
H296 H 0.10082 0.31687 0.90071 0.0
O297 O 0.06122 0.27333 0.96185 0.0
O298 O 0.07211 0.25495 0.96695 0.0
H299 H 0.12101 0.26477 0.92464 0.0
H300 H 0.14056 0.28648 0.91988 0.0
C301 C 0.12896 0.27902 0.92927 0.0
H302 H 0.13418 0.27921 0.94316 0.0
H303 H 0.09296 0.23777 0.94384 0.0
O304 O 0.07575 0.31433 0.95108 0.0
C305 C 0.05879 0.25768 0.96544 0.0
Co306 Co 0.78564 0.69882 0.53887 0.0
Co307 Co 0.82672 0.72691 0.53315 0.0
C308 C 0.8053 0.69723 0.50605 0.0
O309 O 0.79104 0.6905 0.51579 0.0
O310 O 0.81976 0.71133 0.51108 0.0
C311 C 0.75335 0.66413 0.54513 0.0
O312 O 0.76245 0.65706 0.5378 0.0
C313 C 0.86487 0.74075 0.52426 0.0
C314 C 0.87804 0.76787 0.53692 0.0
C315 C 0.8815 0.75636 0.52655 0.0
N316 N 0.85218 0.74304 0.5327 0.0
N317 N 0.86014 0.75926 0.54027 0.0
C318 C 0.8611 0.72342 0.51537 0.0
H319 H 0.84938 0.71179 0.52202 0.0
H320 H 0.87307 0.72159 0.51618 0.0
H321 H 0.85771 0.7237 0.50081 0.0
C322 C 0.80012 0.69301 0.57347 0.0
N323 N 0.80234 0.70145 0.55736 0.0
N324 N 0.81968 0.71278 0.55476 0.0
C325 C 0.82908 0.71172 0.56903 0.0
C326 C 0.81697 0.69911 0.58135 0.0
C327 C 0.78213 0.67997 0.58156 0.0
H328 H 0.7724 0.68476 0.57912 0.0
H329 H 0.7769 0.66658 0.57496 0.0
H330 H 0.78315 0.67843 0.59647 0.0
O331 O 0.78602 0.72183 0.5342 0.0
O332 O 0.81523 0.74209 0.53178 0.0
H333 H 0.85418 0.73641 0.57192 0.0
H334 H 0.85425 0.71697 0.58167 0.0
C335 C 0.84929 0.72177 0.57018 0.0
H336 H 0.855 0.71998 0.5573 0.0
H337 H 0.85331 0.76451 0.5476 0.0
O338 O 0.76074 0.68121 0.54656 0.0
C339 C 0.79872 0.73804 0.53188 0.0
Co340 Co 0.29397 0.08185 0.53984 0.0
Co341 Co 0.26873 0.09841 0.53441 0.0
C342 C 0.29724 0.10452 0.50711 0.0
O343 O 0.30243 0.09544 0.51658 0.0
O344 O 0.28424 0.10674 0.51233 0.0
C345 C 0.32812 0.08362 0.54557 0.0
O346 O 0.33497 0.10009 0.53901 0.0
C347 C 0.25231 0.12038 0.52385 0.0
C348 C 0.23206 0.1136 0.54567 0.0
C349 C 0.23903 0.12392 0.53006 0.0
N350 N 0.25336 0.10874 0.53546 0.0
N351 N 0.24113 0.10466 0.5484 0.0
C352 C 0.26248 0.12627 0.50623 0.0
H353 H 0.26089 0.1142 0.49892 0.0
H354 H 0.27708 0.13532 0.50911 0.0
H355 H 0.2575 0.13328 0.49724 0.0
C356 C 0.30168 0.10218 0.57451 0.0
N357 N 0.29289 0.09661 0.55849 0.0
N358 N 0.28342 0.1047 0.55572 0.0
C359 C 0.28657 0.11636 0.56955 0.0
C360 C 0.29821 0.11509 0.58198 0.0
C361 C 0.31234 0.0945 0.583 0.0
H362 H 0.30622 0.07996 0.57953 0.0
H363 H 0.32639 0.10183 0.57772 0.0
H364 H 0.31277 0.09591 0.59807 0.0
O365 O 0.27021 0.06015 0.53602 0.0
O366 O 0.25226 0.07178 0.53258 0.0
H367 H 0.26644 0.12327 0.5763 0.0
H368 H 0.28928 0.14186 0.57795 0.0
C369 C 0.28003 0.12968 0.56991 0.0
H370 H 0.27904 0.13388 0.55585 0.0
H371 H 0.23896 0.09571 0.55908 0.0
O372 O 0.31105 0.07366 0.54678 0.0
C373 C 0.25462 0.05819 0.53325 0.0
Co374 Co 0.91295 0.21099 0.53904 0.0
Co375 Co 0.8979 0.16964 0.53225 0.0
C376 C 0.89135 0.19238 0.50562 0.0
O377 O 0.90014 0.20652 0.51536 0.0
O378 O 0.88937 0.17719 0.51058 0.0
C379 C 0.91137 0.24371 0.54395 0.0
O380 O 0.89644 0.23536 0.5343 0.0
C381 C 0.87316 0.13158 0.52312 0.0
C382 C 0.88675 0.11804 0.53575 0.0
C383 C 0.87192 0.11485 0.52529 0.0
N384 N 0.88815 0.1441 0.53166 0.0
N385 N 0.89619 0.13592 0.53923 0.0
C386 C 0.85979 0.13555 0.51414 0.0
H387 H 0.86023 0.14758 0.52047 0.0
H388 H 0.84588 0.12379 0.51524 0.0
H389 H 0.86329 0.13843 0.4995 0.0
C390 C 0.89176 0.19647 0.57308 0.0
N391 N 0.8979 0.19417 0.55696 0.0
N392 N 0.89124 0.17677 0.55403 0.0
C393 C 0.88043 0.1674 0.56811 0.0
C394 C 0.88039 0.1796 0.58064 0.0
C395 C 0.89737 0.21452 0.58144 0.0
H396 H 0.91211 0.22363 0.5796 0.0
H397 H 0.89016 0.22062 0.57449 0.0
H398 H 0.89422 0.21335 0.59623 0.0
O399 O 0.93526 0.20978 0.53546 0.0
O400 O 0.92451 0.1805 0.53066 0.0
H401 H 0.87878 0.14169 0.57066 0.0
H402 H 0.85959 0.1424 0.5802 0.0
C403 C 0.86953 0.14719 0.56889 0.0
H404 H 0.86218 0.14194 0.55585 0.0
H405 H 0.90823 0.14258 0.54663 0.0
O406 O 0.92034 0.2358 0.54719 0.0
C407 C 0.93777 0.19657 0.5321 0.0
Co408 Co 0.96245 0.54455 0.37371 0.0
Co409 Co 0.93609 0.50302 0.36766 0.0
C410 C 0.96553 0.52539 0.34093 0.0
O411 O 0.97122 0.5396 0.35062 0.0
O412 O 0.95199 0.5104 0.34584 0.0
C413 C 0.99664 0.57697 0.37978 0.0
O414 O 0.00363 0.56782 0.3724 0.0
C415 C 0.92131 0.46468 0.35788 0.0
C416 C 0.89682 0.45142 0.37515 0.0
C417 C 0.90656 0.44796 0.36226 0.0
N418 N 0.9204 0.47739 0.36791 0.0
N419 N 0.90574 0.46937 0.3782 0.0
C420 C 0.935 0.46894 0.34315 0.0
H421 H 0.9488 0.47643 0.34907 0.0
H422 H 0.93312 0.45674 0.33593 0.0
H423 H 0.93373 0.47785 0.33299 0.0
C424 C 0.96919 0.53075 0.40821 0.0
N425 N 0.9606 0.52815 0.39213 0.0
N426 N 0.95016 0.51068 0.38934 0.0
C427 C 0.9521 0.50159 0.40339 0.0
C428 C 0.96423 0.51403 0.41581 0.0
C429 C 0.98137 0.54891 0.4165 0.0
H430 H 0.97594 0.55809 0.41389 0.0
H431 H 0.99498 0.55479 0.41023 0.0
H432 H 0.9827 0.54787 0.43144 0.0
O433 O 0.93895 0.54312 0.3693 0.0
O434 O 0.92019 0.51369 0.36579 0.0
H435 H 0.92915 0.47545 0.40794 0.0
H436 H 0.95039 0.4772 0.41435 0.0
C437 C 0.94361 0.48144 0.40418 0.0
H438 H 0.94439 0.47617 0.39059 0.0
H439 H 0.90174 0.4762 0.38716 0.0
O440 O 0.97958 0.56959 0.38133 0.0
C441 C 0.92316 0.52985 0.3664 0.0
Co442 Co 0.45147 0.41748 0.37242 0.0
Co443 Co 0.49296 0.43181 0.36764 0.0
C444 C 0.47156 0.43874 0.33955 0.0
O445 O 0.45714 0.4307 0.34899 0.0
O446 O 0.4863 0.44002 0.34509 0.0
C447 C 0.41931 0.42002 0.37735 0.0
O448 O 0.4292 0.43657 0.37109 0.0
C449 C 0.53153 0.45588 0.35953 0.0
C450 C 0.54432 0.44363 0.37603 0.0
C451 C 0.54814 0.45767 0.36409 0.0
N452 N 0.51853 0.44156 0.36855 0.0
N453 N 0.52627 0.43431 0.37839 0.0
C454 C 0.52767 0.46631 0.34557 0.0
H455 H 0.51972 0.45702 0.33436 0.0
H456 H 0.51934 0.47154 0.3518 0.0
H457 H 0.54009 0.47758 0.33957 0.0
C458 C 0.46468 0.43826 0.40693 0.0
N459 N 0.46749 0.43214 0.39103 0.0
N460 N 0.48498 0.43877 0.38875 0.0
C461 C 0.49388 0.44965 0.40295 0.0
C462 C 0.48129 0.44967 0.41496 0.0
C463 C 0.44641 0.43257 0.41476 0.0
H464 H 0.43702 0.41807 0.41183 0.0
H465 H 0.441 0.44069 0.40842 0.0
H466 H 0.44712 0.43468 0.42974 0.0
O467 O 0.45261 0.39513 0.36897 0.0
O468 O 0.48201 0.40516 0.36637 0.0
H469 H 0.51953 0.45176 0.40779 0.0
H470 H 0.51835 0.47141 0.4149 0.0
C471 C 0.51404 0.46073 0.40434 0.0
H472 H 0.51976 0.46723 0.39102 0.0
H473 H 0.51918 0.42289 0.3866 0.0
O474 O 0.42625 0.40994 0.37889 0.0
C475 C 0.46572 0.3922 0.36677 0.0
Co476 Co 0.57706 0.03147 0.37521 0.0
Co477 Co 0.56255 0.05818 0.36775 0.0
C478 C 0.55622 0.02868 0.34138 0.0
O479 O 0.56429 0.02287 0.3516 0.0
O480 O 0.55468 0.04226 0.34593 0.0
C481 C 0.57534 0.99723 0.38136 0.0
O482 O 0.55988 0.99024 0.37255 0.0
C483 C 0.53935 0.07305 0.35675 0.0
C484 C 0.55029 0.09769 0.37378 0.0
C485 C 0.53729 0.08783 0.36075 0.0
N486 N 0.55281 0.07405 0.36713 0.0
N487 N 0.55929 0.08881 0.37725 0.0
C488 C 0.5301 0.05918 0.34213 0.0
H489 H 0.54042 0.06011 0.33236 0.0
H490 H 0.52345 0.04546 0.34828 0.0
H491 H 0.52007 0.06116 0.33442 0.0
C492 C 0.55543 0.02496 0.40882 0.0
N493 N 0.56193 0.03345 0.39279 0.0
N494 N 0.55527 0.04414 0.38949 0.0
C495 C 0.54399 0.04248 0.4032 0.0
C496 C 0.54374 0.03027 0.4159 0.0
C497 C 0.56097 0.01263 0.41758 0.0
H498 H 0.57569 0.01811 0.41574 0.0
H499 H 0.55362 -0.00085 0.41097 0.0
H500 H 0.55788 0.01102 0.43238 0.0
O501 O 0.59941 0.05489 0.3715 0.0
O502 O 0.58921 0.07388 0.3667 0.0
H503 H 0.54147 0.06591 0.4071 0.0
H504 H 0.52158 0.04502 0.41352 0.0
C505 C 0.53276 0.05145 0.40347 0.0
H506 H 0.52695 0.05067 0.38975 0.0
H507 H 0.56997 0.09288 0.38645 0.0
O508 O 0.58454 0.01424 0.38368 0.0
C509 C 0.60225 0.07074 0.3682 0.0
Co510 Co 0.8781 0.62965 0.79088 0.0
Co511 Co 0.83659 0.60358 0.79731 0.0
C512 C 0.8592 0.63252 0.8242 0.0
O513 O 0.87338 0.6377 0.81458 0.0
O514 O 0.84394 0.61956 0.81904 0.0
C515 C 0.91013 0.66414 0.78513 0.0
O516 O 0.90061 0.67076 0.79244 0.0
C517 C 0.79833 0.58752 0.80808 0.0
C518 C 0.78485 0.56521 0.78819 0.0
C519 C 0.78153 0.57352 0.80271 0.0
N520 N 0.81097 0.58768 0.79702 0.0
N521 N 0.80282 0.57424 0.78524 0.0
C522 C 0.80266 0.59937 0.82451 0.0
H523 H 0.81294 0.5983 0.83281 0.0
H524 H 0.80848 0.61365 0.82009 0.0
H525 H 0.79066 0.59546 0.83323 0.0
C526 C 0.86408 0.63701 0.75685 0.0
N527 N 0.86157 0.62822 0.77279 0.0
N528 N 0.84411 0.61783 0.77571 0.0
C529 C 0.83495 0.62009 0.76192 0.0
C530 C 0.84731 0.63228 0.7495 0.0
C531 C 0.88216 0.64911 0.7484 0.0
H532 H 0.89134 0.64367 0.75092 0.0
H533 H 0.88812 0.66275 0.75462 0.0
H534 H 0.88098 0.65038 0.73347 0.0
O535 O 0.87675 0.60612 0.7943 0.0
O536 O 0.84746 0.58776 0.79913 0.0
H537 H 0.80862 0.59784 0.75639 0.0
H538 H 0.81079 0.61965 0.75223 0.0
C539 C 0.81483 0.61196 0.76142 0.0
H540 H 0.80963 0.61178 0.77531 0.0
H541 H 0.80956 0.57123 0.77517 0.0
O542 O 0.90308 0.64711 0.78343 0.0
C543 C 0.86349 0.59046 0.79772 0.0
Co544 Co 0.36465 0.24368 0.79114 0.0
Co545 Co 0.39447 0.23318 0.79784 0.0
C546 C 0.36377 0.22328 0.82428 0.0
O547 O 0.35668 0.23036 0.8144 0.0
O548 O 0.37828 0.22359 0.81948 0.0
C549 C 0.3299 0.24204 0.78662 0.0
O550 O 0.32321 0.22793 0.79749 0.0
C551 C 0.40884 0.20923 0.80567 0.0
C552 C 0.43779 0.22642 0.7989 0.0
C553 C 0.42531 0.20959 0.80578 0.0
N554 N 0.41158 0.22515 0.79928 0.0
N555 N 0.42889 0.23536 0.79519 0.0
C556 C 0.39055 0.19392 0.81065 0.0
H557 H 0.3799 0.19498 0.80299 0.0
H558 H 0.38959 0.18071 0.80771 0.0
H559 H 0.38819 0.19467 0.82543 0.0
C560 C 0.3598 0.22266 0.75743 0.0
N561 N 0.36825 0.22971 0.77335 0.0
N562 N 0.38107 0.22564 0.77577 0.0
C563 C 0.38146 0.21617 0.76123 0.0
C564 C 0.36796 0.21394 0.74909 0.0
C565 C 0.34328 0.22305 0.75124 0.0
H566 H 0.33354 0.21892 0.76269 0.0
H567 H 0.33648 0.21378 0.73964 0.0
H568 H 0.3471 0.23706 0.74727 0.0
O569 O 0.3871 0.26718 0.7953 0.0
O570 O 0.40829 0.25975 0.7994 0.0
H571 H 0.39572 0.20656 0.74428 0.0
H572 H 0.39141 0.19827 0.76748 0.0
C573 C 0.39508 0.21019 0.75868 0.0
H574 H 0.40864 0.22117 0.76288 0.0
H575 H 0.43466 0.24851 0.79012 0.0
O576 O 0.34658 0.25002 0.78246 0.0
C577 C 0.40349 0.27162 0.79834 0.0
Co578 Co 0.75135 0.12117 0.79134 0.0
Co579 Co 0.76765 0.16289 0.79708 0.0
C580 C 0.77217 0.14006 0.82516 0.0
O581 O 0.76331 0.12586 0.81551 0.0
O582 O 0.77499 0.15542 0.81966 0.0
C583 C 0.75296 0.08851 0.78651 0.0
O584 O 0.76912 0.09784 0.79382 0.0
C585 C 0.7904 0.20111 0.80758 0.0
C586 C 0.7817 0.21476 0.78776 0.0
C587 C 0.79305 0.2179 0.80248 0.0
N588 N 0.7779 0.18854 0.7965 0.0
N589 N 0.77274 0.19679 0.7847 0.0
C590 C 0.80025 0.19715 0.82209 0.0
H591 H 0.7914 0.19171 0.83425 0.0
H592 H 0.80347 0.1868 0.81714 0.0
H593 H 0.81298 0.20949 0.82605 0.0
C594 C 0.77361 0.13442 0.75769 0.0
N595 N 0.76732 0.1373 0.77345 0.0
N596 N 0.77473 0.15483 0.77615 0.0
C597 C 0.78633 0.16366 0.7624 0.0
C598 C 0.78596 0.15101 0.75023 0.0
C599 C 0.76712 0.11617 0.7494 0.0
H600 H 0.75243 0.10737 0.75188 0.0
H601 H 0.77442 0.10987 0.75576 0.0
H602 H 0.76962 0.11717 0.73448 0.0
O603 O 0.72946 0.12329 0.79346 0.0
O604 O 0.74105 0.15277 0.79763 0.0
H605 H 0.79054 0.18995 0.75631 0.0
H606 H 0.81009 0.18757 0.75236 0.0
C607 C 0.79839 0.18375 0.76154 0.0
H608 H 0.80345 0.18919 0.77536 0.0
H609 H 0.76303 0.19013 0.77458 0.0
O610 O 0.74335 0.09592 0.78443 0.0
C611 C 0.72746 0.13692 0.79611 0.0
Co612 Co 0.36732 0.12063 0.29106 0.0
Co613 Co 0.39531 0.16172 0.29734 0.0
C614 C 0.36612 0.13947 0.32469 0.0
O615 O 0.3594 0.1254 0.31468 0.0
O616 O 0.38001 0.15413 0.3197 0.0
C617 C 0.33311 0.08728 0.28737 0.0
O618 O 0.32673 0.09482 0.29847 0.0
C619 C 0.40863 0.20048 0.30417 0.0
C620 C 0.43762 0.21228 0.29755 0.0
C621 C 0.42504 0.21668 0.30398 0.0
N622 N 0.41151 0.18722 0.29818 0.0
N623 N 0.42883 0.19443 0.29407 0.0
C624 C 0.39077 0.19737 0.31099 0.0
H625 H 0.38109 0.1828 0.31288 0.0
H626 H 0.38486 0.20254 0.30081 0.0
H627 H 0.39255 0.2047 0.32402 0.0
C628 C 0.36066 0.1355 0.25741 0.0
N629 N 0.36941 0.13766 0.2733 0.0
N630 N 0.38106 0.15494 0.27579 0.0
C631 C 0.38015 0.16435 0.26144 0.0
C632 C 0.3672 0.15233 0.24931 0.0
C633 C 0.34549 0.11776 0.25082 0.0
H634 H 0.33483 0.11199 0.26142 0.0
H635 H 0.33937 0.11913 0.23803 0.0
H636 H 0.35056 0.10821 0.24863 0.0
O637 O 0.39061 0.12112 0.29454 0.0
O638 O 0.41049 0.15028 0.29806 0.0
H639 H 0.39111 0.18866 0.245 0.0
H640 H 0.38776 0.19142 0.26885 0.0
C641 C 0.39198 0.18434 0.25905 0.0
H642 H 0.40622 0.1883 0.26205 0.0
H643 H 0.43475 0.18705 0.28937 0.0
O644 O 0.34969 0.09593 0.2828 0.0
C645 C 0.40676 0.13388 0.29709 0.0
Co646 Co 0.87265 0.24552 0.29076 0.0
Co647 Co 0.8316 0.2321 0.29724 0.0
C648 C 0.85393 0.22501 0.32431 0.0
O649 O 0.86806 0.2329 0.31442 0.0
O650 O 0.83906 0.22378 0.31926 0.0
C651 C 0.90972 0.25293 0.2915 0.0
O652 O 0.90681 0.2484 0.30881 0.0
C653 C 0.79371 0.20682 0.30566 0.0
C654 C 0.78012 0.2215 0.29588 0.0
C655 C 0.77697 0.20576 0.30456 0.0
N656 N 0.80616 0.22253 0.29821 0.0
N657 N 0.79796 0.23124 0.29234 0.0
C658 C 0.79783 0.19282 0.31269 0.0
H659 H 0.80988 0.19398 0.30567 0.0
H660 H 0.7861 0.17902 0.31068 0.0
H661 H 0.80083 0.19503 0.32749 0.0
C662 C 0.85778 0.22359 0.25745 0.0
N663 N 0.8556 0.23044 0.27314 0.0
N664 N 0.83832 0.22475 0.27561 0.0
C665 C 0.8289 0.21413 0.26143 0.0
C666 C 0.84096 0.2131 0.24942 0.0
C667 C 0.87554 0.2261 0.25102 0.0
H668 H 0.88243 0.22348 0.26246 0.0
H669 H 0.87389 0.21689 0.23958 0.0
H670 H 0.88428 0.24032 0.24656 0.0
O671 O 0.87204 0.26818 0.2943 0.0
O672 O 0.84291 0.25874 0.29834 0.0
H673 H 0.8048 0.21596 0.26146 0.0
H674 H 0.80436 0.19966 0.24545 0.0
C675 C 0.80886 0.20563 0.25922 0.0
H676 H 0.80201 0.19491 0.26966 0.0
H677 H 0.80459 0.24392 0.28609 0.0
O678 O 0.89715 0.25258 0.28193 0.0
C679 C 0.85926 0.27146 0.29721 0.0
Co680 Co 0.75012 0.6276 0.29078 0.0
Co681 Co 0.76293 0.59937 0.29714 0.0
C682 C 0.77163 0.62957 0.32364 0.0
O683 O 0.76383 0.63599 0.31387 0.0
O684 O 0.7721 0.61547 0.31882 0.0
C685 C 0.75108 0.66188 0.28727 0.0
O686 O 0.76456 0.668 0.29892 0.0
C687 C 0.7872 0.58525 0.30533 0.0
C688 C 0.77195 0.55751 0.29413 0.0
C689 C 0.7877 0.56931 0.30329 0.0
N690 N 0.77192 0.58294 0.29758 0.0
N691 N 0.7629 0.56638 0.29085 0.0
C692 C 0.79973 0.6017 0.31613 0.0
H693 H 0.80298 0.61403 0.30818 0.0
H694 H 0.81234 0.60195 0.32013 0.0
H695 H 0.79273 0.60194 0.32878 0.0
C696 C 0.77042 0.63301 0.25649 0.0
N697 N 0.76413 0.62463 0.2726 0.0
N698 N 0.7698 0.61303 0.27524 0.0
C699 C 0.78 0.61374 0.26088 0.0
C700 C 0.78065 0.62637 0.2485 0.0
C701 C 0.76771 0.64802 0.24963 0.0
H702 H 0.77303 0.65906 0.25986 0.0
H703 H 0.77472 0.65361 0.2365 0.0
H704 H 0.75303 0.64296 0.24796 0.0
O705 O 0.7273 0.60469 0.29534 0.0
O706 O 0.73632 0.58462 0.29909 0.0
H707 H 0.79551 0.60436 0.24561 0.0
H708 H 0.79849 0.60545 0.27012 0.0
C709 C 0.78859 0.60224 0.25893 0.0
H710 H 0.77806 0.5878 0.26018 0.0
H711 H 0.75041 0.56103 0.28431 0.0
O712 O 0.7433 0.6454 0.28238 0.0
C713 C 0.7238 0.58857 0.29839 0.0
Co714 Co 0.45683 0.03983 0.87601 0.0
Co715 Co 0.49819 0.06505 0.86805 0.0
C716 C 0.47431 0.03551 0.84228 0.0
O717 O 0.46046 0.03093 0.85226 0.0
O718 O 0.48988 0.04835 0.84687 0.0
C719 C 0.42311 0.00641 0.88195 0.0
O720 O 0.43047 0.99864 0.87255 0.0
C721 C 0.53606 0.08096 0.85573 0.0
C722 C 0.55024 0.10321 0.87556 0.0
C723 C 0.55304 0.09501 0.8606 0.0
N724 N 0.52384 0.0807 0.86748 0.0
N725 N 0.5324 0.0941 0.87922 0.0
C726 C 0.53116 0.06914 0.8392 0.0
H727 H 0.52007 0.0696 0.8318 0.0
H728 H 0.52621 0.05497 0.84353 0.0
H729 H 0.5427 0.07352 0.82971 0.0
C730 C 0.47155 0.03255 0.90942 0.0
N731 N 0.47378 0.04128 0.89351 0.0
N732 N 0.49118 0.05139 0.89008 0.0
C733 C 0.50058 0.04901 0.90355 0.0
C734 C 0.48843 0.03702 0.91627 0.0
C735 C 0.45357 0.02058 0.91815 0.0
H736 H 0.44481 0.02665 0.91666 0.0
H737 H 0.44694 0.00723 0.91124 0.0
H738 H 0.45501 0.01856 0.93288 0.0
O739 O 0.45863 0.06349 0.87242 0.0
O740 O 0.48771 0.08125 0.8661 0.0
H741 H 0.5273 0.07085 0.90843 0.0
H742 H 0.52469 0.04882 0.91229 0.0
C743 C 0.52064 0.05671 0.9034 0.0
H744 H 0.52536 0.05675 0.88931 0.0
H745 H 0.52603 0.09706 0.88971 0.0
O746 O 0.43201 0.02338 0.88466 0.0
C747 C 0.47187 0.07889 0.86823 0.0
Co748 Co 0.96291 0.41828 0.87308 0.0
Co749 Co 0.93526 0.43193 0.86809 0.0
C750 C 0.96319 0.43834 0.83965 0.0
O751 O 0.97 0.43082 0.8493 0.0
O752 O 0.94965 0.43946 0.8452 0.0
C753 C 0.99774 0.42076 0.878 0.0
O754 O 0.00452 0.43695 0.87076 0.0
C755 C 0.92109 0.45598 0.85925 0.0
C756 C 0.89482 0.44284 0.87362 0.0
C757 C 0.90567 0.45721 0.86226 0.0
N758 N 0.91929 0.44145 0.86822 0.0
N759 N 0.90358 0.43367 0.87681 0.0
C760 C 0.93782 0.46896 0.84909 0.0
H761 H 0.94984 0.46923 0.85521 0.0
H762 H 0.9397 0.48281 0.84932 0.0
H763 H 0.93663 0.46445 0.83472 0.0
C764 C 0.97084 0.44005 0.90695 0.0
N765 N 0.96167 0.43343 0.89126 0.0
N766 N 0.9505 0.43968 0.88894 0.0
C767 C 0.9524 0.45071 0.90298 0.0
C768 C 0.9654 0.45134 0.91483 0.0
C769 C 0.98381 0.43487 0.91479 0.0
H770 H 0.97872 0.42027 0.91251 0.0
H771 H 0.99708 0.44275 0.90789 0.0
H772 H 0.98574 0.43765 0.92964 0.0
O773 O 0.93947 0.39568 0.87031 0.0
O774 O 0.91972 0.40527 0.86791 0.0
H775 H 0.92808 0.45158 0.90714 0.0
H776 H 0.9482 0.47137 0.91544 0.0
C777 C 0.94261 0.46111 0.90443 0.0
H778 H 0.94365 0.46802 0.89131 0.0
H779 H 0.89878 0.42199 0.88473 0.0
O780 O 0.98073 0.41101 0.87995 0.0
C781 C 0.92331 0.39249 0.86852 0.0
Co782 Co 0.58034 0.54344 0.8731 0.0
Co783 Co 0.56594 0.50219 0.86648 0.0
C784 C 0.55921 0.52489 0.83974 0.0
O785 O 0.56736 0.53898 0.84964 0.0
O786 O 0.55787 0.50994 0.84462 0.0
C787 C 0.58069 0.57735 0.8761 0.0
O788 O 0.56775 0.57041 0.86384 0.0
C789 C 0.53939 0.46478 0.85813 0.0
C790 C 0.55302 0.44996 0.86735 0.0
C791 C 0.5374 0.44764 0.85905 0.0
N792 N 0.55548 0.47665 0.86534 0.0
N793 N 0.56358 0.46774 0.87085 0.0
C794 C 0.52593 0.46987 0.85153 0.0
H795 H 0.52768 0.48196 0.85898 0.0
H796 H 0.5119 0.45852 0.8534 0.0
H797 H 0.52826 0.47328 0.83681 0.0
C798 C 0.55908 0.5289 0.90695 0.0
N799 N 0.56534 0.52658 0.89092 0.0
N800 N 0.55917 0.50922 0.88826 0.0
C801 C 0.54876 0.4999 0.90259 0.0
C802 C 0.54841 0.51208 0.91491 0.0
C803 C 0.56235 0.54682 0.91379 0.0
H804 H 0.57705 0.55588 0.91609 0.0
H805 H 0.55791 0.55312 0.90329 0.0
H806 H 0.55491 0.54556 0.92659 0.0
O807 O 0.60268 0.54214 0.86925 0.0
O808 O 0.59243 0.51282 0.8652 0.0
H809 H 0.55002 0.47549 0.90222 0.0
H810 H 0.53409 0.47535 0.91852 0.0
C811 C 0.53993 0.47982 0.9047 0.0
H812 H 0.52904 0.47317 0.89438 0.0
H813 H 0.57636 0.47381 0.87687 0.0
O814 O 0.58782 0.56821 0.88158 0.0
C815 C 0.60547 0.52903 0.86629 0.0
Co816 Co 0.62972 0.87812 0.70772 0.0
Co817 Co 0.60299 0.83684 0.7011 0.0
C818 C 0.63234 0.85907 0.67446 0.0
O819 O 0.63782 0.87323 0.68418 0.0
O820 O 0.61901 0.84396 0.6794 0.0
C821 C 0.66439 0.90994 0.71406 0.0
O822 O 0.67109 0.9 0.70806 0.0
C823 C 0.58896 0.79856 0.69217 0.0
C824 C 0.562 0.78557 0.70513 0.0
C825 C 0.57329 0.78199 0.69455 0.0
N826 N 0.58689 0.81134 0.70072 0.0
N827 N 0.57076 0.80348 0.70849 0.0
C828 C 0.60608 0.80215 0.68297 0.0
H829 H 0.61787 0.81401 0.68924 0.0
H830 H 0.60792 0.79019 0.68392 0.0
H831 H 0.60541 0.80515 0.66837 0.0
C832 C 0.63615 0.86357 0.74197 0.0
N833 N 0.62774 0.86137 0.72584 0.0
N834 N 0.61686 0.84398 0.72292 0.0
C835 C 0.61825 0.83455 0.73697 0.0
C836 C 0.63056 0.84668 0.74949 0.0
C837 C 0.64866 0.88154 0.75044 0.0
H838 H 0.64381 0.89116 0.74765 0.0
H839 H 0.66234 0.88699 0.74447 0.0
H840 H 0.64961 0.88032 0.76542 0.0
O841 O 0.60642 0.87723 0.70409 0.0
O842 O 0.58751 0.84806 0.69924 0.0
H843 H 0.59415 0.80889 0.73957 0.0
H844 H 0.61404 0.80948 0.74895 0.0
C845 C 0.60887 0.81434 0.7377 0.0
H846 H 0.61087 0.80908 0.72462 0.0
H847 H 0.56568 0.81038 0.71593 0.0
O848 O 0.64735 0.90314 0.71503 0.0
C849 C 0.59062 0.86423 0.70065 0.0
Co850 Co 0.11865 0.75053 0.70522 0.0
Co851 Co 0.16014 0.76515 0.70063 0.0
C852 C 0.13913 0.77256 0.67267 0.0
O853 O 0.1246 0.76387 0.68186 0.0
O854 O 0.154 0.77422 0.67833 0.0
C855 C 0.08685 0.75363 0.70997 0.0
O856 O 0.09724 0.77037 0.70444 0.0
C857 C 0.19871 0.78928 0.69318 0.0
C858 C 0.2111 0.77515 0.70704 0.0
C859 C 0.21512 0.79004 0.69628 0.0
N860 N 0.1856 0.77448 0.70148 0.0
N861 N 0.1931 0.76613 0.7098 0.0
C862 C 0.19553 0.80287 0.68349 0.0
H863 H 0.18359 0.80297 0.68931 0.0
H864 H 0.20756 0.81661 0.68454 0.0
H865 H 0.19286 0.79911 0.66888 0.0
C866 C 0.13157 0.77094 0.74001 0.0
N867 N 0.13452 0.76501 0.72407 0.0
N868 N 0.15202 0.77161 0.72196 0.0
C869 C 0.16079 0.7822 0.73639 0.0
C870 C 0.1481 0.78215 0.74828 0.0
C871 C 0.11324 0.76529 0.74766 0.0
H872 H 0.10376 0.75089 0.74442 0.0
H873 H 0.10806 0.77368 0.74146 0.0
H874 H 0.11379 0.76712 0.76267 0.0
O875 O 0.11966 0.72813 0.70177 0.0
O876 O 0.14906 0.73849 0.6986 0.0
H877 H 0.18625 0.78364 0.74047 0.0
H878 H 0.18526 0.80287 0.74944 0.0
C879 C 0.18095 0.79297 0.73809 0.0
H880 H 0.18684 0.80034 0.72519 0.0
H881 H 0.18588 0.75414 0.71717 0.0
O882 O 0.09338 0.74317 0.71127 0.0
C883 C 0.13284 0.7254 0.69916 0.0
Co884 Co 0.24706 0.36852 0.70719 0.0
Co885 Co 0.23255 0.39544 0.70158 0.0
C886 C 0.2254 0.36665 0.67417 0.0
O887 O 0.2339 0.36082 0.6837 0.0
O888 O 0.22377 0.37997 0.67949 0.0
C889 C 0.2435 0.33359 0.71308 0.0
O890 O 0.22672 0.32743 0.70777 0.0
C891 C 0.20809 0.40934 0.69338 0.0
C892 C 0.22205 0.43624 0.70649 0.0
C893 C 0.20709 0.42493 0.69601 0.0
N894 N 0.22306 0.41147 0.70169 0.0
N895 N 0.23132 0.42755 0.70955 0.0
C896 C 0.19452 0.39222 0.6842 0.0
H897 H 0.19479 0.38045 0.69028 0.0
H898 H 0.1807 0.39027 0.68544 0.0
H899 H 0.19797 0.39297 0.66953 0.0
C900 C 0.22653 0.36183 0.74184 0.0
N901 N 0.23248 0.37031 0.72571 0.0
N902 N 0.22588 0.38116 0.72312 0.0
C903 C 0.21522 0.37965 0.73737 0.0
C904 C 0.21526 0.36731 0.7497 0.0
C905 C 0.2323 0.34947 0.75009 0.0
H906 H 0.24665 0.35424 0.74675 0.0
H907 H 0.22382 0.33566 0.74447 0.0
H908 H 0.23069 0.34881 0.76514 0.0
O909 O 0.26949 0.39187 0.70353 0.0
O910 O 0.25922 0.41094 0.69975 0.0
H911 H 0.21366 0.4037 0.74063 0.0
H912 H 0.19437 0.38363 0.74975 0.0
C913 C 0.20439 0.38901 0.7385 0.0
H914 H 0.19711 0.38725 0.72548 0.0
H915 H 0.24339 0.43267 0.71685 0.0
O916 O 0.25425 0.35056 0.71384 0.0
C917 C 0.27227 0.40776 0.70059 0.0
Co918 Co 0.54367 0.95992 0.12481 0.0
Co919 Co 0.50192 0.93417 0.12963 0.0
C920 C 0.52417 0.96099 0.15839 0.0
O921 O 0.53848 0.967 0.14881 0.0
O922 O 0.50908 0.94819 0.15267 0.0
C923 C 0.57578 0.99437 0.12009 0.0
O924 O 0.56549 0.00083 0.12568 0.0
C925 C 0.46377 0.92048 0.13892 0.0
C926 C 0.44976 0.89716 0.12026 0.0
C927 C 0.44681 0.9066 0.13391 0.0
N928 N 0.47623 0.91924 0.12882 0.0
N929 N 0.46777 0.90524 0.11772 0.0
C930 C 0.468 0.93543 0.15215 0.0
H931 H 0.47934 0.94833 0.14693 0.0
H932 H 0.45606 0.93708 0.15452 0.0
H933 H 0.47217 0.93224 0.16532 0.0
C934 C 0.53105 0.96914 0.09082 0.0
N935 N 0.52793 0.95991 0.10658 0.0
N936 N 0.51036 0.94976 0.10898 0.0
C937 C 0.50174 0.9526 0.09505 0.0
C938 C 0.51459 0.96495 0.08307 0.0
C939 C 0.5494 0.98078 0.08269 0.0
H940 H 0.55831 0.97515 0.08587 0.0
H941 H 0.55545 0.99459 0.08851 0.0
H942 H 0.54858 0.98174 0.06766 0.0
O943 O 0.54147 0.93583 0.12696 0.0
O944 O 0.51189 0.91756 0.12997 0.0
H945 H 0.47556 0.93024 0.08918 0.0
H946 H 0.47787 0.95199 0.08413 0.0
C947 C 0.48166 0.94446 0.09383 0.0
H948 H 0.47608 0.94455 0.10745 0.0
H949 H 0.47431 0.90124 0.10836 0.0
O950 O 0.56911 0.97736 0.11876 0.0
C951 C 0.52787 0.92006 0.12901 0.0
Co952 Co 0.03483 0.57974 0.12511 0.0
Co953 Co 0.06248 0.56623 0.13099 0.0
C954 C 0.03373 0.55923 0.15854 0.0
O955 O 0.02719 0.56691 0.14874 0.0
O956 O 0.04741 0.5582 0.15334 0.0
C957 C -5e-05 0.5766 0.11922 0.0
O958 O 0.99337 0.55995 0.12516 0.0
C959 C 0.07603 0.54181 0.14026 0.0
C960 C 0.10303 0.55523 0.12737 0.0
C961 C 0.09152 0.54055 0.13809 0.0
N962 N 0.0784 0.55665 0.13147 0.0
N963 N 0.09455 0.56459 0.12375 0.0
C964 C 0.05875 0.52859 0.14946 0.0
H965 H 0.0471 0.5286 0.14272 0.0
H966 H 0.0568 0.51473 0.14906 0.0
H967 H 0.05918 0.53267 0.1639 0.0
C968 C 0.02802 0.55851 0.091 0.0
N969 N 0.03669 0.56494 0.10696 0.0
N970 N 0.04792 0.5588 0.10961 0.0
C971 C 0.04652 0.54801 0.09552 0.0
C972 C 0.03381 0.54744 0.08328 0.0
C973 C 0.01518 0.56367 0.08276 0.0
H974 H 0.01988 0.57812 0.08551 0.0
H975 H 0.00162 0.55531 0.08894 0.0
H976 H 0.01402 0.56143 0.0678 0.0
O977 O 0.05813 0.60236 0.1284 0.0
O978 O 0.07787 0.59291 0.13198 0.0
H979 H 0.07109 0.54739 0.09245 0.0
H980 H 0.05147 0.52783 0.08302 0.0
C981 C 0.05646 0.53773 0.09438 0.0
H982 H 0.05479 0.53039 0.10735 0.0
H983 H 0.09984 0.57651 0.11616 0.0
O984 O 0.01697 0.58691 0.11812 0.0
C985 C 0.07423 0.60565 0.13102 0.0
Co986 Co 0.41842 0.45355 0.1229 0.0
Co987 Co 0.43187 0.49472 0.12949 0.0
C988 C 0.43939 0.47262 0.15628 0.0
O989 O 0.43147 0.45847 0.14641 0.0
O990 O 0.44042 0.48744 0.15138 0.0
C991 C 0.41906 0.42003 0.11911 0.0
O992 O 0.43286 0.42738 0.13038 0.0
C993 C 0.45551 0.53317 0.13854 0.0
C994 C 0.44111 0.54559 0.12522 0.0
C995 C 0.4561 0.54957 0.13577 0.0
N996 N 0.44091 0.52018 0.12985 0.0
N997 N 0.43239 0.52769 0.12191 0.0
C998 C 0.4672 0.52929 0.15079 0.0
H999 H 0.47202 0.52122 0.14327 0.0
H1000 H 0.47884 0.54168 0.15638 0.0
H1001 H 0.45893 0.52102 0.16244 0.0
C1002 C 0.43963 0.46849 0.0891 0.0
N1003 N 0.43311 0.47058 0.10506 0.0
N1004 N 0.43902 0.48788 0.1078 0.0
C1005 C 0.44961 0.4974 0.09366 0.0
C1006 C 0.45027 0.4854 0.08132 0.0
C1007 C 0.43669 0.45071 0.08218 0.0
H1008 H 0.42199 0.44128 0.08034 0.0
H1009 H 0.44176 0.44478 0.09244 0.0
H1010 H 0.44381 0.45209 0.06912 0.0
O1011 O 0.3957 0.45403 0.12666 0.0
O1012 O 0.40529 0.48317 0.1309 0.0
H1013 H 0.44794 0.5215 0.09209 0.0
H1014 H 0.46626 0.52245 0.07899 0.0
C1015 C 0.45846 0.51751 0.09185 0.0
H1016 H 0.4676 0.52403 0.10364 0.0
H1017 H 0.42044 0.52054 0.11444 0.0
O1018 O 0.41131 0.42885 0.11451 0.0
C1019 C 0.39251 0.46685 0.12973 0.0
Co1020 Co 0.03446 0.45323 0.62436 0.0
Co1021 Co 0.06125 0.49459 0.63111 0.0
C1022 C 0.03137 0.47226 0.65734 0.0
O1023 O 0.02574 0.45813 0.64752 0.0
O1024 O 0.04503 0.48726 0.65266 0.0
C1025 C 7e-05 0.42065 0.6193 0.0
O1026 O 0.99349 0.42912 0.62876 0.0
C1027 C 0.07626 0.53303 0.64068 0.0
C1028 C 0.10114 0.54601 0.62397 0.0
C1029 C 0.09113 0.54968 0.63633 0.0
N1030 N 0.07734 0.52016 0.63111 0.0
N1031 N 0.09226 0.52801 0.6212 0.0
C1032 C 0.06211 0.52901 0.65483 0.0
H1033 H 0.06256 0.51971 0.66508 0.0
H1034 H 0.04854 0.52205 0.64836 0.0
H1035 H 0.06418 0.54129 0.66207 0.0
C1036 C 0.02821 0.46772 0.5902 0.0
N1037 N 0.03677 0.47001 0.60624 0.0
N1038 N 0.04746 0.48741 0.60923 0.0
C1039 C 0.04576 0.49678 0.5953 0.0
C1040 C 0.03349 0.48459 0.58278 0.0
C1041 C 0.01563 0.44968 0.5819 0.0
H1042 H 0.0211 0.44044 0.58381 0.0
H1043 H 0.00231 0.44375 0.5888 0.0
H1044 H 0.01372 0.45086 0.5671 0.0
O1045 O 0.05774 0.45412 0.62872 0.0
O1046 O 0.07667 0.48337 0.63321 0.0
H1047 H 0.06908 0.5228 0.59143 0.0
H1048 H 0.04818 0.52152 0.58445 0.0
C1049 C 0.05454 0.51696 0.59477 0.0
H1050 H 0.0535 0.52208 0.60835 0.0
H1051 H 0.0964 0.52105 0.61256 0.0
O1052 O 0.01697 0.42844 0.61623 0.0
C1053 C 0.07353 0.46716 0.63215 0.0
Co1054 Co 0.54379 0.5805 0.62415 0.0
Co1055 Co 0.50246 0.56642 0.63041 0.0
C1056 C 0.52455 0.5595 0.65756 0.0
O1057 O 0.5387 0.56751 0.64772 0.0
O1058 O 0.50966 0.5582 0.65253 0.0
C1059 C 0.57544 0.57727 0.61847 0.0
O1060 O 0.56541 0.5609 0.62512 0.0
C1061 C 0.4641 0.54274 0.63977 0.0
C1062 C 0.45103 0.55521 0.62408 0.0
C1063 C 0.44744 0.54119 0.63595 0.0
N1064 N 0.47689 0.55691 0.6304 0.0
N1065 N 0.46898 0.56429 0.62105 0.0
C1066 C 0.46826 0.53222 0.65335 0.0
H1067 H 0.4766 0.54148 0.66442 0.0
H1068 H 0.47631 0.52689 0.64669 0.0
H1069 H 0.45597 0.52102 0.65963 0.0
C1070 C 0.52931 0.55928 0.59008 0.0
N1071 N 0.52708 0.56569 0.60607 0.0
N1072 N 0.5097 0.55923 0.60893 0.0
C1073 C 0.50029 0.54818 0.59501 0.0
C1074 C 0.51242 0.54787 0.58259 0.0
C1075 C 0.5473 0.56467 0.5817 0.0
H1076 H 0.55689 0.57918 0.58435 0.0
H1077 H 0.55277 0.55653 0.58787 0.0
H1078 H 0.54611 0.56233 0.56675 0.0
O1079 O 0.54297 0.60304 0.62767 0.0
O1080 O 0.51374 0.5931 0.63172 0.0
H1081 H 0.47458 0.54625 0.5912 0.0
H1082 H 0.47535 0.52646 0.58377 0.0
C1083 C 0.48008 0.53721 0.5943 0.0
H1084 H 0.47479 0.53084 0.60776 0.0
H1085 H 0.47589 0.57565 0.61272 0.0
O1086 O 0.56878 0.5876 0.61693 0.0
C1087 C 0.53001 0.60603 0.63062 0.0
Co1088 Co 0.4159 0.96239 0.62729 0.0
Co1089 Co 0.4311 0.9361 0.63311 0.0
C1090 C 0.43727 0.9645 0.66063 0.0
O1091 O 0.42863 0.9701 0.651 0.0
O1092 O 0.43936 0.95145 0.65532 0.0
C1093 C 0.41819 0.9969 0.62186 0.0
O1094 O 0.43468 0.00365 0.62833 0.0
C1095 C 0.45592 0.92266 0.64147 0.0
C1096 C 0.44259 0.89602 0.62781 0.0
C1097 C 0.4573 0.90732 0.63859 0.0
N1098 N 0.44097 0.92041 0.633 0.0
N1099 N 0.43309 0.90448 0.62482 0.0
C1100 C 0.46912 0.93971 0.65101 0.0
H1101 H 0.46878 0.95147 0.64502 0.0
H1102 H 0.48305 0.94189 0.65003 0.0
H1103 H 0.46535 0.93867 0.66562 0.0
C1104 C 0.43694 0.96979 0.59299 0.0
N1105 N 0.43096 0.96115 0.60904 0.0
N1106 N 0.43778 0.9505 0.61164 0.0
C1107 C 0.44859 0.95226 0.59744 0.0
C1108 C 0.44843 0.96459 0.58516 0.0
C1109 C 0.43096 0.98201 0.5848 0.0
H1110 H 0.41642 0.97672 0.58766 0.0
H1111 H 0.43887 0.99566 0.59094 0.0
H1112 H 0.43308 0.9832 0.56982 0.0
O1113 O 0.39371 0.93878 0.63049 0.0
O1114 O 0.40448 0.92018 0.63467 0.0
H1115 H 0.45045 0.9284 0.59397 0.0
H1116 H 0.46965 0.94866 0.58503 0.0
C1117 C 0.4596 0.94309 0.59624 0.0
H1118 H 0.46683 0.9448 0.60929 0.0
H1119 H 0.42113 0.89932 0.61732 0.0
O1120 O 0.4082 0.97986 0.62038 0.0
C1121 C 0.39121 0.92301 0.63349 0.0
Co1122 Co 0.12216 0.36934 0.20898 0.0
Co1123 Co 0.16298 0.39689 0.20146 0.0
C1124 C 0.14019 0.36786 0.17456 0.0
O1125 O 0.1263 0.36173 0.1848 0.0
O1126 O 0.15526 0.38133 0.1794 0.0
C1127 C 0.08372 0.34561 0.20847 0.0
O1128 O 0.08475 0.3523 0.19208 0.0
C1129 C 0.20084 0.41071 0.19161 0.0
C1130 C 0.21422 0.43814 0.20356 0.0
C1131 C 0.21748 0.42641 0.19333 0.0
N1132 N 0.18834 0.41316 0.20021 0.0
N1133 N 0.19641 0.42957 0.20735 0.0
C1134 C 0.19695 0.39319 0.18311 0.0
H1135 H 0.18501 0.38172 0.18966 0.0
H1136 H 0.2088 0.39119 0.18439 0.0
H1137 H 0.19396 0.39339 0.16843 0.0
C1138 C 0.13792 0.36257 0.24179 0.0
N1139 N 0.13967 0.3714 0.22606 0.0
N1140 N 0.1569 0.38272 0.22297 0.0
C1141 C 0.16674 0.38135 0.23662 0.0
C1142 C 0.15501 0.36845 0.24898 0.0
C1143 C 0.12009 0.34941 0.25013 0.0
H1144 H 0.11114 0.35536 0.25017 0.0
H1145 H 0.11355 0.33692 0.24173 0.0
H1146 H 0.12158 0.3459 0.26434 0.0
O1147 O 0.12223 0.39242 0.20628 0.0
O1148 O 0.15121 0.41188 0.20098 0.0
H1149 H 0.19188 0.40615 0.23853 0.0
H1150 H 0.19228 0.387 0.24866 0.0
C1151 C 0.18697 0.39147 0.2372 0.0
H1152 H 0.19231 0.38933 0.22424 0.0
H1153 H 0.18973 0.43495 0.21472 0.0
O1154 O 0.09807 0.35097 0.21773 0.0
C1155 C 0.13496 0.40841 0.20294 0.0
Co1156 Co 0.62856 0.74899 0.20658 0.0
Co1157 Co 0.60321 0.76532 0.2002 0.0
C1158 C 0.63249 0.77191 0.17378 0.0
O1159 O 0.63727 0.76248 0.18325 0.0
O1160 O 0.61957 0.77432 0.17882 0.0
C1161 C 0.66271 0.75059 0.212 0.0
O1162 O 0.66949 0.7663 0.20372 0.0
C1163 C 0.58652 0.78691 0.189 0.0
C1164 C 0.56533 0.77923 0.20998 0.0
C1165 C 0.57273 0.78992 0.19466 0.0
N1166 N 0.58744 0.77521 0.20064 0.0
N1167 N 0.57466 0.77061 0.21308 0.0
C1168 C 0.59748 0.79353 0.1719 0.0
H1169 H 0.59705 0.78193 0.16463 0.0
H1170 H 0.61175 0.80321 0.17551 0.0
H1171 H 0.59232 0.80013 0.16255 0.0
C1172 C 0.63523 0.76919 0.24122 0.0
N1173 N 0.62683 0.76361 0.225 0.0
N1174 N 0.61718 0.77145 0.22193 0.0
C1175 C 0.61979 0.78294 0.23575 0.0
C1176 C 0.63125 0.78182 0.24853 0.0
C1177 C 0.64607 0.76181 0.24991 0.0
H1178 H 0.63998 0.74721 0.24676 0.0
H1179 H 0.66004 0.76904 0.24441 0.0
H1180 H 0.64665 0.76353 0.26494 0.0
O1181 O 0.60507 0.72715 0.20235 0.0
O1182 O 0.58712 0.73865 0.19788 0.0
H1183 H 0.59918 0.78941 0.24171 0.0
H1184 H 0.62185 0.80822 0.24401 0.0
C1185 C 0.61297 0.79605 0.23577 0.0
H1186 H 0.61234 0.80033 0.22164 0.0
H1187 H 0.57226 0.7615 0.22366 0.0
O1188 O 0.64571 0.74111 0.21428 0.0
C1189 C 0.58956 0.72511 0.19891 0.0
Co1190 Co 0.24518 0.87745 0.20617 0.0
Co1191 Co 0.23238 0.8364 0.20064 0.0
C1192 C 0.22377 0.85762 0.17349 0.0
O1193 O 0.23169 0.87202 0.18298 0.0
O1194 O 0.22313 0.84306 0.17874 0.0
C1195 C 0.24428 0.91085 0.20974 0.0
O1196 O 0.23009 0.90318 0.19897 0.0
C1197 C 0.20738 0.79821 0.19314 0.0
C1198 C 0.22279 0.78525 0.20254 0.0
C1199 C 0.20672 0.78166 0.19427 0.0
N1200 N 0.22317 0.81098 0.20017 0.0
N1201 N 0.23231 0.80316 0.20583 0.0
C1202 C 0.19295 0.80185 0.18644 0.0
H1203 H 0.19406 0.81394 0.19335 0.0
H1204 H 0.17933 0.78999 0.18888 0.0
H1205 H 0.19469 0.80456 0.17158 0.0
C1206 C 0.22467 0.86307 0.24055 0.0
N1207 N 0.23104 0.86074 0.22459 0.0
N1208 N 0.22555 0.84346 0.22237 0.0
C1209 C 0.2155 0.83421 0.2369 0.0
C1210 C 0.21464 0.84634 0.24892 0.0
C1211 C 0.22706 0.88082 0.24685 0.0
H1212 H 0.22175 0.8862 0.23626 0.0
H1213 H 0.21983 0.87959 0.2598 0.0
H1214 H 0.24168 0.89062 0.24865 0.0
O1215 O 0.26793 0.8772 0.20174 0.0
O1216 O 0.259 0.84804 0.19884 0.0
H1217 H 0.20171 0.80989 0.25332 0.0
H1218 H 0.1964 0.80708 0.22923 0.0
C1219 C 0.20734 0.81423 0.23941 0.0
H1220 H 0.21778 0.81036 0.23699 0.0
H1221 H 0.24515 0.81009 0.21171 0.0
O1222 O 0.2523 0.90224 0.21412 0.0
C1223 C 0.27147 0.86454 0.19917 0.0
H1224 H 0.37881 0.21426 0.85246 0.0
H1225 H 0.36691 0.20539 0.88335 0.0
H1226 H 0.3185 0.206 0.86767 0.0
H1227 H 0.33052 0.2154 0.83692 0.0
H1228 H 0.33302 0.22545 0.89755 0.0
H1229 H 0.32866 0.15889 0.90597 0.0
H1230 H 0.35073 0.17634 0.89907 0.0
H1231 H 0.33178 0.16961 0.88401 0.0
C1232 C 0.36549 0.21222 0.85549 0.0
C1233 C 0.35566 0.21566 0.84225 0.0
C1234 C 0.35865 0.20702 0.87315 0.0
C1235 C 0.34173 0.20484 0.87779 0.0
C1236 C 0.33159 0.20758 0.86439 0.0
H1237 H 0.28314 0.165 0.97962 0.0
H1238 H 0.2946 0.16815 0.9485 0.0
C1239 C 0.33848 0.21296 0.84681 0.0
C1240 C 0.33532 0.20144 0.89695 0.0
H1241 H 0.32622 0.17301 0.93318 0.0
C1242 C 0.33143 0.21391 0.90529 0.0
C1243 C 0.33311 0.18631 0.907 0.0
C1244 C 0.33611 0.17193 0.89851 0.0
C1245 C 0.32556 0.2118 0.92343 0.0
C1246 C 0.32405 0.19708 0.93371 0.0
C1247 C 0.32767 0.18443 0.92534 0.0
C1248 C 0.31821 0.19441 0.95304 0.0
C1249 C 0.32069 0.22518 0.93126 0.0
C1250 C 0.32803 0.20785 0.96606 0.0
C1251 C 0.32144 0.2062 0.9838 0.0
C1252 C 0.30503 0.19092 0.98892 0.0
C1253 C 0.29578 0.17698 0.97612 0.0
C1254 C 0.30231 0.17873 0.95832 0.0
H1255 H 0.31784 0.23246 0.92036 0.0
H1256 H 0.30867 0.21834 0.94027 0.0
H1257 H 0.33221 0.23539 0.93945 0.0
H1258 H 0.34058 0.21985 0.96237 0.0
H1259 H 0.32902 0.21707 0.99339 0.0
H1260 H 0.77563 0.10186 0.99087 0.0
H1261 H 0.77312 0.11079 0.9599 0.0
H1262 H 0.83081 0.13519 0.95293 0.0
H1263 H 0.83344 0.12589 0.98379 0.0
H1264 H 0.78781 0.14346 0.94252 0.0
H1265 H 0.81123 0.09967 0.91067 0.0
H1266 H 0.80545 0.09817 0.93451 0.0
H1267 H 0.8269 0.11605 0.92652 0.0
C1268 C 0.78784 0.10923 0.98283 0.0
C1269 C 0.80473 0.11297 0.98977 0.0
C1270 C 0.78636 0.11434 0.96512 0.0
C1271 C 0.80172 0.12333 0.954 0.0
C1272 C 0.81873 0.12788 0.96114 0.0
H1273 H 0.79544 0.16738 0.84785 0.0
H1274 H 0.80432 0.16461 0.87884 0.0
C1275 C 0.82021 0.12265 0.97884 0.0
C1276 C 0.79969 0.12736 0.93477 0.0
H1277 H 0.80481 0.11749 0.89082 0.0
C1278 C 0.79161 0.13788 0.93119 0.0
C1279 C 0.80447 0.11985 0.92006 0.0
C1280 C 0.81234 0.10767 0.92305 0.0
C1281 C 0.78795 0.14091 0.91329 0.0
C1282 C 0.79288 0.13354 0.89856 0.0
C1283 C 0.80119 0.12323 0.90214 0.0
C1284 C 0.7885 0.13537 0.87941 0.0
C1285 C 0.77818 0.15135 0.91035 0.0
C1286 C 0.77726 0.11984 0.86919 0.0
C1287 C 0.77233 0.12136 0.8514 0.0
C1288 C 0.77851 0.13848 0.8435 0.0
C1289 C 0.79023 0.15401 0.8536 0.0
C1290 C 0.79526 0.15246 0.87135 0.0
H1291 H 0.77152 0.15223 0.92303 0.0
H1292 H 0.78805 0.16533 0.906 0.0
H1293 H 0.76776 0.145 0.89953 0.0
H1294 H 0.77197 0.10651 0.87512 0.0
H1295 H 0.76332 0.10911 0.84403 0.0
H1296 H 0.89014 0.65612 0.8423 0.0
H1297 H 0.89281 0.66733 0.87344 0.0
H1298 H 0.83471 0.63937 0.87826 0.0
H1299 H 0.83186 0.62791 0.84719 0.0
H1300 H 0.87992 0.68784 0.89035 0.0
H1301 H 0.8502 0.61927 0.921 0.0
H1302 H 0.85729 0.62374 0.89748 0.0
H1303 H 0.83622 0.62187 0.90437 0.0
C1304 C 0.8779 0.65244 0.8499 0.0
C1305 C 0.86077 0.64086 0.84232 0.0
C1306 C 0.87947 0.65887 0.8677 0.0
C1307 C 0.86397 0.65386 0.87825 0.0
C1308 C 0.84684 0.64302 0.87047 0.0
H1309 H 0.86932 0.70319 0.98453 0.0
H1310 H 0.86091 0.69197 0.95336 0.0
C1311 C 0.84525 0.63653 0.85268 0.0
C1312 C 0.86585 0.65962 0.89755 0.0
H1313 H 0.85787 0.64357 0.94121 0.0
C1314 C 0.87502 0.67819 0.90149 0.0
C1315 C 0.85962 0.64695 0.91201 0.0
C1316 C 0.85042 0.62684 0.90859 0.0
C1317 C 0.87828 0.68446 0.91955 0.0
C1318 C 0.87189 0.67179 0.93401 0.0
C1319 C 0.86259 0.65322 0.93007 0.0
C1320 C 0.87575 0.67754 0.95332 0.0
C1321 C 0.88908 0.70458 0.92298 0.0
C1322 C 0.88623 0.67251 0.96386 0.0
C1323 C 0.89097 0.6788 0.98172 0.0
C1324 C 0.88532 0.69029 0.98936 0.0
C1325 C 0.87418 0.69467 0.97899 0.0
C1326 C 0.86939 0.6883 0.96114 0.0
H1327 H 0.89641 0.71218 0.91057 0.0
H1328 H 0.87979 0.70947 0.9272 0.0
H1329 H 0.89906 0.70773 0.93409 0.0
H1330 H 0.89117 0.6641 0.9581 0.0
H1331 H 0.89951 0.67508 0.98931 0.0
H1332 H 0.22214 0.32097 0.51071 0.0
H1333 H 0.22453 0.33267 0.54155 0.0
H1334 H 0.16644 0.3073 0.54466 0.0
H1335 H 0.16387 0.29521 0.51388 0.0
H1336 H 0.21348 0.35472 0.55702 0.0
H1337 H 0.17843 0.28656 0.589 0.0
H1338 H 0.18591 0.29009 0.56559 0.0
H1339 H 0.16558 0.29017 0.57181 0.0
C1340 C 0.20985 0.31794 0.51787 0.0
C1341 C 0.19278 0.30691 0.5099 0.0
C1342 C 0.21125 0.32465 0.53551 0.0
C1343 C 0.19565 0.32054 0.54552 0.0
C1344 C 0.17863 0.31024 0.53733 0.0
H1345 H 0.2054 0.37437 0.65036 0.0
H1346 H 0.19605 0.36273 0.61943 0.0
C1347 C 0.17719 0.30341 0.5197 0.0
C1348 C 0.19737 0.32672 0.56467 0.0
H1349 H 0.18761 0.31156 0.60859 0.0
C1350 C 0.20773 0.34531 0.56831 0.0
C1351 C 0.19001 0.31436 0.57935 0.0
C1352 C 0.17949 0.29417 0.57633 0.0
C1353 C 0.21121 0.3519 0.58625 0.0
C1354 C 0.20376 0.33955 0.60093 0.0
C1355 C 0.19315 0.32098 0.59729 0.0
C1356 C 0.20793 0.34551 0.62017 0.0
C1357 C 0.22344 0.37193 0.58933 0.0
C1358 C 0.21698 0.33906 0.63111 0.0
C1359 C 0.22212 0.34549 0.64887 0.0
C1360 C 0.21835 0.35854 0.65603 0.0
C1361 C 0.20865 0.36445 0.64525 0.0
C1362 C 0.2034 0.35791 0.62751 0.0
H1363 H 0.23134 0.37886 0.57691 0.0
H1364 H 0.21511 0.37811 0.59299 0.0
H1365 H 0.23303 0.37446 0.60068 0.0
H1366 H 0.22052 0.32941 0.62573 0.0
H1367 H 0.22951 0.34058 0.65679 0.0
H1368 H 0.65603 0.88984 0.65625 0.0
H1369 H 0.66807 0.89225 0.62557 0.0
H1370 H 0.64082 0.83408 0.62158 0.0
H1371 H 0.62827 0.83152 0.65212 0.0
H1372 H 0.68938 0.88075 0.61006 0.0
H1373 H 0.62163 0.84727 0.57724 0.0
H1374 H 0.62496 0.85425 0.60081 0.0
H1375 H 0.6246 0.83379 0.59418 0.0
C1376 C 0.65265 0.87753 0.64892 0.0
C1377 C 0.64097 0.86047 0.65656 0.0
C1378 C 0.65957 0.87894 0.63137 0.0
C1379 C 0.65504 0.86335 0.62115 0.0
C1380 C 0.6441 0.84629 0.62905 0.0
H1381 H 0.70949 0.87348 0.51633 0.0
H1382 H 0.69821 0.86434 0.54742 0.0
C1383 C 0.63701 0.84486 0.64655 0.0
C1384 C 0.66143 0.86512 0.60207 0.0
H1385 H 0.64673 0.85587 0.55799 0.0
C1386 C 0.68008 0.87523 0.59865 0.0
C1387 C 0.64923 0.85805 0.58724 0.0
C1388 C 0.62898 0.84787 0.58997 0.0
C1389 C 0.68688 0.87879 0.58078 0.0
C1390 C 0.67467 0.87163 0.56596 0.0
C1391 C 0.65605 0.8612 0.5694 0.0
C1392 C 0.68079 0.87601 0.54678 0.0
C1393 C 0.70697 0.89084 0.57796 0.0
C1394 C 0.67419 0.88493 0.53586 0.0
C1395 C 0.68037 0.88991 0.51802 0.0
C1396 C 0.69336 0.88612 0.51073 0.0
C1397 C 0.69959 0.87673 0.52154 0.0
C1398 C 0.69326 0.8716 0.53937 0.0
H1399 H 0.71381 0.89862 0.59047 0.0
H1400 H 0.71303 0.88238 0.57438 0.0
H1401 H 0.70976 0.90054 0.56665 0.0
H1402 H 0.6645 0.88841 0.54128 0.0
H1403 H 0.67524 0.89709 0.51011 0.0
H1404 H 0.09913 0.77708 0.50927 0.0
H1405 H 0.10872 0.77511 0.54009 0.0
H1406 H 0.13827 0.83332 0.5439 0.0
H1407 H 0.12839 0.83544 0.51314 0.0
H1408 H 0.14178 0.78766 0.55568 0.0
H1409 H 0.10544 0.81923 0.58815 0.0
H1410 H 0.10202 0.81215 0.56461 0.0
H1411 H 0.12177 0.83292 0.57121 0.0
C1412 C 0.10775 0.7895 0.51658 0.0
C1413 C 0.11279 0.80644 0.50879 0.0
C1414 C 0.11323 0.78834 0.53421 0.0
C1415 C 0.12391 0.80405 0.54442 0.0
C1416 C 0.12964 0.82101 0.53643 0.0
H1417 H 0.16735 0.79377 0.64979 0.0
H1418 H 0.16561 0.80383 0.61901 0.0
C1419 C 0.12404 0.8222 0.51881 0.0
C1420 C 0.12854 0.80246 0.56355 0.0
H1421 H 0.12187 0.81073 0.6076 0.0
C1422 C 0.13756 0.79281 0.56705 0.0
C1423 C 0.12284 0.80906 0.57834 0.0
C1424 C 0.11234 0.81878 0.57548 0.0
C1425 C 0.14066 0.78919 0.58495 0.0
C1426 C 0.13497 0.7958 0.59973 0.0
C1427 C 0.12634 0.80582 0.59623 0.0
C1428 C 0.13643 0.79114 0.61889 0.0
C1429 C 0.14924 0.77762 0.58782 0.0
C1430 C 0.12068 0.78136 0.62932 0.0
C1431 C 0.12164 0.77582 0.64699 0.0
C1432 C 0.13839 0.77989 0.65458 0.0
C1433 C 0.15423 0.79025 0.64432 0.0
C1434 C 0.15325 0.79592 0.62667 0.0
H1435 H 0.14897 0.77026 0.57522 0.0
H1436 H 0.16358 0.78637 0.59188 0.0
H1437 H 0.14224 0.76757 0.59885 0.0
H1438 H 0.10755 0.77759 0.62361 0.0
H1439 H 0.10916 0.76791 0.65449 0.0
H1440 H 0.67359 0.77591 0.00893 0.0
H1441 H 0.66236 0.77391 0.03992 0.0
H1442 H 0.69734 0.8314 0.04674 0.0
H1443 H 0.70901 0.8335 0.01588 0.0
H1444 H 0.70003 0.8125 0.07497 0.0
H1445 H 0.62788 0.7887 0.06095 0.0
H1446 H 0.63535 0.77465 0.0503 0.0
H1447 H 0.64497 0.79791 0.04338 0.0
C1448 C 0.67876 0.78819 0.01691 0.0
C1449 C 0.69221 0.80488 0.00987 0.0
C1450 C 0.67223 0.78703 0.03461 0.0
C1451 C 0.67882 0.80255 0.04554 0.0
C1452 C 0.692 0.81928 0.03848 0.0
H1453 H 0.62892 0.79573 0.15152 0.0
H1454 H 0.64156 0.8057 0.12104 0.0
C1455 C 0.69862 0.82045 0.02081 0.0
C1456 C 0.67282 0.80106 0.06474 0.0
H1457 H 0.6352 0.78451 0.09153 0.0
C1458 C 0.68587 0.80659 0.0786 0.0
C1459 C 0.65439 0.79363 0.06946 0.0
C1460 C 0.63987 0.78856 0.05523 0.0
C1461 C 0.68092 0.80419 0.09707 0.0
C1462 C 0.66238 0.79567 0.10176 0.0
C1463 C 0.6494 0.79085 0.08792 0.0
C1464 C 0.65605 0.79092 0.12084 0.0
C1465 C 0.69558 0.81079 0.11136 0.0
C1466 C 0.66009 0.77939 0.13089 0.0
C1467 C 0.65295 0.77373 0.14836 0.0
C1468 C 0.6414 0.77928 0.15601 0.0
C1469 C 0.63766 0.79111 0.14602 0.0
C1470 C 0.64489 0.79684 0.12859 0.0
H1471 H 0.70861 0.82189 0.10603 0.0
H1472 H 0.69182 0.8157 0.12371 0.0
H1473 H 0.69775 0.79949 0.1154 0.0
H1474 H 0.66832 0.7743 0.12502 0.0
H1475 H 0.65604 0.76454 0.1556 0.0
H1476 H 0.21939 0.89598 0.00973 0.0
H1477 H 0.22134 0.88619 0.04046 0.0
H1478 H 0.16319 0.85845 0.04506 0.0
H1479 H 0.16115 0.86866 0.01446 0.0
H1480 H 0.17861 0.8784 0.07441 0.0
H1481 H 0.21149 0.83813 0.05964 0.0
H1482 H 0.22428 0.86049 0.05039 0.0
H1483 H 0.20183 0.8454 0.04194 0.0
C1484 C 0.20698 0.8876 0.01716 0.0
C1485 C 0.19009 0.88309 0.0096 0.0
C1486 C 0.20811 0.8819 0.03471 0.0
C1487 C 0.19239 0.8713 0.04495 0.0
C1488 C 0.17549 0.86654 0.03736 0.0
H1489 H 0.20445 0.82946 0.14992 0.0
H1490 H 0.19383 0.8309 0.11935 0.0
C1491 C 0.17435 0.87239 0.01986 0.0
C1492 C 0.19374 0.86631 0.06403 0.0
H1493 H 0.21378 0.8485 0.09063 0.0
C1494 C 0.18607 0.87162 0.07794 0.0
C1495 C 0.20316 0.85714 0.06864 0.0
C1496 C 0.21047 0.84979 0.05433 0.0
C1497 C 0.18832 0.8688 0.09638 0.0
C1498 C 0.19895 0.86092 0.10102 0.0
C1499 C 0.20585 0.85479 0.08709 0.0
C1500 C 0.20389 0.85973 0.12016 0.0
C1501 C 0.17931 0.87435 0.11067 0.0
C1502 C 0.21302 0.87544 0.13081 0.0
C1503 C 0.21893 0.87463 0.14836 0.0
C1504 C 0.21611 0.85813 0.15552 0.0
C1505 C 0.20679 0.84237 0.14488 0.0
C1506 C 0.20074 0.84317 0.12738 0.0
H1507 H 0.16705 0.87406 0.10514 0.0
H1508 H 0.17539 0.8654 0.12281 0.0
H1509 H 0.18884 0.88842 0.11506 0.0
H1510 H 0.21606 0.88845 0.12536 0.0
H1511 H 0.22618 0.88706 0.15608 0.0
H1512 H 0.12887 0.29654 0.01438 0.0
H1513 H 0.13773 0.30852 0.04527 0.0
H1514 H 0.10539 0.33424 0.04092 0.0
H1515 H 0.0967 0.3226 0.00995 0.0
H1516 H 0.13819 0.3561 0.05701 0.0
H1517 H 0.10411 0.28798 0.089 0.0
H1518 H 0.12077 0.29132 0.07217 0.0
H1519 H 0.10064 0.29156 0.06545 0.0
C1520 C 0.12367 0.30477 0.01996 0.0
C1521 C 0.11187 0.30839 0.00976 0.0
C1522 C 0.1287 0.31155 0.03765 0.0
C1523 C 0.12189 0.32192 0.04552 0.0
C1524 C 0.11071 0.32616 0.03513 0.0
H1525 H 0.10936 0.34235 0.15761 0.0
H1526 H 0.10625 0.33126 0.12638 0.0
C1527 C 0.10576 0.31949 0.01742 0.0
C1528 C 0.12603 0.32809 0.06469 0.0
H1529 H 0.12039 0.31293 0.10862 0.0
C1530 C 0.13438 0.34669 0.06831 0.0
C1531 C 0.12081 0.31572 0.07939 0.0
C1532 C 0.11094 0.29552 0.07639 0.0
C1533 C 0.13753 0.35329 0.08625 0.0
C1534 C 0.13256 0.34095 0.10094 0.0
C1535 C 0.12434 0.32235 0.09732 0.0
C1536 C 0.13482 0.34698 0.12018 0.0
C1537 C 0.14556 0.37336 0.08929 0.0
C1538 C 0.15197 0.35916 0.12719 0.0
C1539 C 0.15379 0.36565 0.14501 0.0
C1540 C 0.1385 0.35989 0.15622 0.0
C1541 C 0.12142 0.34711 0.14937 0.0
C1542 C 0.11961 0.34073 0.13151 0.0
H1543 H 0.1444 0.38028 0.07695 0.0
H1544 H 0.13881 0.37603 0.10084 0.0
H1545 H 0.16013 0.37943 0.09262 0.0
H1546 H 0.16393 0.36381 0.11881 0.0
H1547 H 0.16715 0.37536 0.14988 0.0
H1548 H 0.83023 0.71163 0.47854 0.0
H1549 H 0.82718 0.70036 0.44735 0.0
H1550 H 0.77602 0.65366 0.46125 0.0
H1551 H 0.77874 0.66499 0.49237 0.0
H1552 H 0.82276 0.66882 0.43181 0.0
H1553 H 0.76275 0.67639 0.41958 0.0
H1554 H 0.77699 0.68569 0.43939 0.0
H1555 H 0.76013 0.66208 0.43863 0.0
C1556 C 0.81842 0.69886 0.47504 0.0
C1557 C 0.8046 0.68933 0.48789 0.0
C1558 C 0.81671 0.69244 0.4572 0.0
C1559 C 0.80119 0.6764 0.45191 0.0
C1560 C 0.78789 0.66632 0.46496 0.0
H1561 H 0.78087 0.6151 0.35213 0.0
H1562 H 0.79005 0.62758 0.38276 0.0
C1563 C 0.78951 0.67278 0.48276 0.0
C1564 C 0.79851 0.67066 0.43257 0.0
H1565 H 0.76978 0.6613 0.39664 0.0
C1566 C 0.81123 0.66723 0.42406 0.0
C1567 C 0.78365 0.66898 0.4224 0.0
C1568 C 0.77019 0.67365 0.43039 0.0
C1569 C 0.80924 0.66173 0.40574 0.0
C1570 C 0.79394 0.65928 0.39584 0.0
C1571 C 0.78145 0.66307 0.40427 0.0
C1572 C 0.79032 0.65255 0.37679 0.0
C1573 C 0.82366 0.65887 0.39712 0.0
C1574 C 0.78728 0.66237 0.36326 0.0
C1575 C 0.78176 0.65515 0.3458 0.0
C1576 C 0.77924 0.63799 0.34152 0.0
C1577 C 0.78288 0.62844 0.35491 0.0
C1578 C 0.78823 0.6356 0.37243 0.0
H1579 H 0.83678 0.66656 0.4044 0.0
H1580 H 0.81946 0.64431 0.39783 0.0
H1581 H 0.82573 0.66304 0.38257 0.0
H1582 H 0.78876 0.67546 0.36634 0.0
H1583 H 0.77913 0.66288 0.33578 0.0
H1584 H 0.2844 0.11617 0.47911 0.0
H1585 H 0.29662 0.12443 0.44829 0.0
H1586 H 0.34162 0.11756 0.46356 0.0
H1587 H 0.32921 0.10875 0.49431 0.0
H1588 H 0.32809 0.15067 0.4337 0.0
H1589 H 0.32043 0.08312 0.42104 0.0
H1590 H 0.31092 0.08788 0.44079 0.0
H1591 H 0.33451 0.09449 0.44032 0.0
C1592 C 0.29699 0.11657 0.476 0.0
C1593 C 0.3057 0.11157 0.48912 0.0
C1594 C 0.30395 0.1213 0.45835 0.0
C1595 C 0.3198 0.1212 0.45352 0.0
C1596 C 0.3291 0.11723 0.46686 0.0
H1597 H 0.38104 0.1632 0.35311 0.0
H1598 H 0.36931 0.15965 0.38414 0.0
C1599 C 0.32203 0.11229 0.48446 0.0
C1600 C 0.32616 0.12453 0.43435 0.0
H1601 H 0.33595 0.10547 0.39845 0.0
C1602 C 0.32978 0.14079 0.42595 0.0
C1603 C 0.32799 0.11145 0.42417 0.0
C1604 C 0.32309 0.09319 0.43196 0.0
C1605 C 0.33544 0.14443 0.40768 0.0
C1606 C 0.33795 0.13164 0.39774 0.0
C1607 C 0.33414 0.11532 0.40612 0.0
C1608 C 0.34443 0.1347 0.3786 0.0
C1609 C 0.33827 0.16174 0.39913 0.0
C1610 C 0.33447 0.12176 0.36518 0.0
C1611 C 0.34129 0.12356 0.34753 0.0
C1612 C 0.3582 0.13841 0.3429 0.0
C1613 C 0.36791 0.15166 0.3562 0.0
C1614 C 0.36117 0.14972 0.37393 0.0
H1615 H 0.3306 0.16715 0.40647 0.0
H1616 H 0.35284 0.1721 0.39985 0.0
H1617 H 0.33408 0.15969 0.38459 0.0
H1618 H 0.32153 0.11005 0.36848 0.0
H1619 H 0.33343 0.11316 0.3376 0.0
H1620 H 0.8983 0.22316 0.4874 0.0
H1621 H 0.88803 0.22547 0.45698 0.0
H1622 H 0.85737 0.16727 0.45308 0.0
H1623 H 0.86797 0.16484 0.48331 0.0
H1624 H 0.87716 0.18175 0.42324 0.0
H1625 H 0.84019 0.21789 0.43917 0.0
H1626 H 0.86288 0.22973 0.44777 0.0
H1627 H 0.8471 0.20768 0.45662 0.0
C1628 C 0.88919 0.21083 0.48018 0.0
C1629 C 0.88398 0.19379 0.4878 0.0
C1630 C 0.88323 0.21218 0.46282 0.0
C1631 C 0.87169 0.19654 0.45286 0.0
C1632 C 0.8662 0.17952 0.46056 0.0
H1633 H 0.82672 0.20686 0.34917 0.0
H1634 H 0.82932 0.19736 0.37994 0.0
C1635 C 0.87229 0.17816 0.47785 0.0
C1636 C 0.86641 0.19798 0.43394 0.0
H1637 H 0.84887 0.21862 0.40783 0.0
C1638 C 0.87075 0.18962 0.41989 0.0
C1639 C 0.85775 0.20796 0.42959 0.0
C1640 C 0.85153 0.21615 0.44412 0.0
C1641 C 0.86739 0.19162 0.40156 0.0
C1642 C 0.85991 0.20265 0.39714 0.0
C1643 C 0.85483 0.21035 0.41122 0.0
C1644 C 0.85803 0.2071 0.37802 0.0
C1645 C 0.87192 0.1819 0.38713 0.0
C1646 C 0.8733 0.2157 0.36671 0.0
C1647 C 0.87185 0.22101 0.34908 0.0
C1648 C 0.85511 0.21805 0.34246 0.0
C1649 C 0.83979 0.20928 0.35377 0.0
C1650 C 0.84125 0.20387 0.37139 0.0
H1651 H 0.87165 0.16969 0.39278 0.0
H1652 H 0.86234 0.17774 0.37548 0.0
H1653 H 0.88578 0.19106 0.38194 0.0
H1654 H 0.88648 0.21876 0.37169 0.0
H1655 H 0.88396 0.22785 0.34083 0.0
H1656 H 0.95159 0.50214 0.31207 0.0
H1657 H 0.96448 0.50589 0.28163 0.0
H1658 H 0.01178 0.5552 0.2988 0.0
H1659 H -0.00125 0.55177 0.32923 0.0
H1660 H -0.00177 0.56008 0.26821 0.0
H1661 H 0.0039 0.49857 0.26075 0.0
H1662 H 0.98147 0.49338 0.26689 0.0
H1663 H -0.00011 0.50587 0.28249 0.0
C1664 C 0.9649 0.51358 0.30951 0.0
C1665 C 0.97416 0.52664 0.32309 0.0
C1666 C 0.9723 0.51566 0.29209 0.0
C1667 C 0.98922 0.53067 0.288 0.0
C1668 C -0.00128 0.54347 0.30168 0.0
H1669 H 0.04822 0.54896 0.18617 0.0
H1670 H 0.03725 0.54132 0.21752 0.0
C1671 C 0.99125 0.5415 0.31906 0.0
C1672 C 0.99624 0.53391 0.26906 0.0
H1673 H 0.00602 0.51469 0.23322 0.0
C1674 C 8e-05 0.55021 0.26062 0.0
C1675 C -0.00119 0.5211 0.25922 0.0
C1676 C 0.99598 0.50384 0.26787 0.0
C1677 C 0.00609 0.55393 0.24252 0.0
C1678 C 0.0078 0.54076 0.2324 0.0
C1679 C 0.00439 0.52462 0.24093 0.0
C1680 C 0.01349 0.54373 0.21304 0.0
C1681 C 0.01079 0.57207 0.23453 0.0
C1682 C 0.00342 0.547 0.2 0.0
C1683 C 0.00972 0.55151 0.18211 0.0
C1684 C 0.02607 0.55256 0.17688 0.0
C1685 C 0.03559 0.54829 0.18975 0.0
C1686 C 0.02936 0.54393 0.20768 0.0
H1687 H 0.01364 0.58228 0.24535 0.0
H1688 H 0.02277 0.57725 0.22545 0.0
H1689 H -0.00081 0.57061 0.22638 0.0
H1690 H 0.99088 0.54643 0.20375 0.0
H1691 H 0.00193 0.55449 0.17249 0.0
H1692 H 0.44858 0.49621 0.18486 0.0
H1693 H 0.4572 0.49259 0.21562 0.0
H1694 H 0.45481 0.44284 0.19948 0.0
H1695 H 0.44577 0.44614 0.16874 0.0
H1696 H 0.43581 0.43858 0.22979 0.0
H1697 H 0.50357 0.49934 0.23735 0.0
H1698 H 0.48663 0.50475 0.23061 0.0
H1699 H 0.4925 0.49185 0.21552 0.0
C1700 C 0.45024 0.48468 0.18772 0.0
C1701 C 0.4465 0.47147 0.17433 0.0
C1702 C 0.45525 0.48268 0.20533 0.0
C1703 C 0.4569 0.46758 0.20979 0.0
C1704 C 0.45368 0.45464 0.1963 0.0
H1705 H 0.49605 0.44806 0.31177 0.0
H1706 H 0.49299 0.45596 0.28047 0.0
C1707 C 0.44851 0.45654 0.17875 0.0
C1708 C 0.46036 0.46443 0.22888 0.0
H1709 H 0.48931 0.48338 0.2648 0.0
C1710 C 0.44759 0.44832 0.23739 0.0
C1711 C 0.47579 0.47708 0.23874 0.0
C1712 C 0.4905 0.49414 0.23003 0.0
C1713 C 0.44966 0.44463 0.25557 0.0
C1714 C 0.46468 0.45763 0.26568 0.0
C1715 C 0.47766 0.47358 0.25709 0.0
C1716 C 0.4673 0.45459 0.28505 0.0
C1717 C 0.43589 0.42668 0.26366 0.0
C1718 C 0.45415 0.45178 0.29813 0.0
C1719 C 0.4558 0.44717 0.31602 0.0
C1720 C 0.47078 0.44554 0.3212 0.0
C1721 C 0.4844 0.44929 0.30828 0.0
C1722 C 0.48266 0.45377 0.29035 0.0
H1723 H 0.42825 0.4165 0.25291 0.0
H1724 H 0.44244 0.42123 0.27273 0.0
H1725 H 0.42602 0.42855 0.27186 0.0
H1726 H 0.4424 0.45278 0.2944 0.0
H1727 H 0.44518 0.44457 0.32569 0.0
H1728 H 0.55187 0.99195 0.173 0.0
H1729 H 0.55483 0.00269 0.20439 0.0
H1730 H 0.50249 0.95718 0.21732 0.0
H1731 H 0.49922 0.94654 0.18585 0.0
H1732 H 0.50745 0.98835 0.23286 0.0
H1733 H 0.56648 0.97963 0.24661 0.0
H1734 H 0.56999 0.99428 0.22761 0.0
H1735 H 0.55277 0.9708 0.22639 0.0
C1736 C 0.54093 0.98427 0.18248 0.0
C1737 C 0.52536 0.96831 0.17695 0.0
C1738 C 0.54269 0.99038 0.20045 0.0
C1739 C 0.52906 0.98049 0.21328 0.0
C1740 C 0.51322 0.96494 0.20765 0.0
H1741 H 0.54967 0.99544 0.32999 0.0
H1742 H 0.54085 0.98241 0.29945 0.0
C1743 C 0.51136 0.9589 0.18964 0.0
C1744 C 0.53151 0.98616 0.23266 0.0
H1745 H 0.55974 0.99552 0.26904 0.0
C1746 C 0.51882 0.98983 0.24082 0.0
C1747 C 0.54614 0.9877 0.24313 0.0
C1748 C 0.55952 0.98271 0.23556 0.0
C1749 C 0.52063 0.99548 0.25908 0.0
C1750 C 0.53578 0.99791 0.26925 0.0
C1751 C 0.54821 0.9938 0.26119 0.0
C1752 C 0.53932 0.00504 0.28816 0.0
C1753 C 0.50619 0.99855 0.26731 0.0
C1754 C 0.54128 0.02204 0.29199 0.0
C1755 C 0.54615 0.02944 0.30947 0.0
C1756 C 0.54944 0.02011 0.32338 0.0
C1757 C 0.54725 0.00298 0.31957 0.0
C1758 C 0.5422 0.99551 0.30213 0.0
H1759 H 0.4931 0.99069 0.26002 0.0
H1760 H 0.50406 0.99474 0.28195 0.0
H1761 H 0.51038 0.01309 0.26615 0.0
H1762 H 0.53965 0.02988 0.28132 0.0
H1763 H 0.54802 0.04278 0.31185 0.0
H1764 H 0.45705 0.95694 0.68492 0.0
H1765 H 0.46608 0.96876 0.71585 0.0
H1766 H 0.44132 0.00173 0.70877 0.0
H1767 H 0.43262 0.99036 0.67773 0.0
H1768 H 0.47428 0.01999 0.72568 0.0
H1769 H 0.43101 0.95325 0.75858 0.0
H1770 H 0.44712 0.95372 0.74252 0.0
H1771 H 0.42913 0.95722 0.73472 0.0
C1772 C 0.45364 0.9668 0.68987 0.0
C1773 C 0.44399 0.97259 0.67886 0.0
C1774 C 0.4587 0.97344 0.70761 0.0
C1775 C 0.45404 0.98583 0.71472 0.0
C1776 C 0.44496 0.99209 0.70357 0.0
H1777 H 0.4427 0.01265 0.82476 0.0
H1778 H 0.43903 0.00026 0.79403 0.0
C1779 C 0.43999 0.98555 0.68582 0.0
C1780 C 0.45829 0.99213 0.73385 0.0
H1781 H 0.44931 0.97772 0.77805 0.0
C1782 C 0.4689 0.01076 0.73715 0.0
C1783 C 0.45105 0.98004 0.74876 0.0
C1784 C 0.43881 0.95996 0.74605 0.0
C1785 C 0.47235 0.01769 0.75497 0.0
C1786 C 0.4653 0.00558 0.76988 0.0
C1787 C 0.45483 0.98693 0.76659 0.0
C1788 C 0.46772 0.01211 0.78896 0.0
C1789 C 0.48292 0.03793 0.75761 0.0
C1790 C 0.48506 0.02245 0.79649 0.0
C1791 C 0.48721 0.02966 0.81403 0.0
C1792 C 0.47205 0.02651 0.82442 0.0
C1793 C 0.45467 0.01541 0.81713 0.0
C1794 C 0.45254 0.00831 0.79956 0.0
H1795 H 0.48352 0.04531 0.74491 0.0
H1796 H 0.47686 0.04219 0.76857 0.0
H1797 H 0.49699 0.04204 0.76164 0.0
H1798 H 0.49693 0.02514 0.78871 0.0
H1799 H 0.50077 0.03789 0.81932 0.0
H1800 H 0.99797 0.44581 0.66853 0.0
H1801 H 0.98445 0.4422 0.69873 0.0
H1802 H 0.03147 0.4914 0.71661 0.0
H1803 H 0.04485 0.49534 0.68638 0.0
H1804 H 0.99743 0.43703 0.72946 0.0
H1805 H 0.99182 0.49855 0.73703 0.0
H1806 H 0.99615 0.49145 0.71533 0.0
H1807 H 0.01435 0.50383 0.7312 0.0
C1808 C 0.0053 0.45602 0.67881 0.0
C1809 C 0.02247 0.4709 0.67504 0.0
C1810 C 0.99755 0.45395 0.69605 0.0
C1811 C 0.00683 0.46665 0.70988 0.0
C1812 C 0.02382 0.48169 0.70604 0.0
H1813 H 0.99466 0.4429 0.82506 0.0
H1814 H 0.00515 0.45071 0.79361 0.0
C1815 C 0.0315 0.48388 0.68874 0.0
C1816 C -0.00046 0.46326 0.72871 0.0
H1817 H 0.9897 0.48239 0.7646 0.0
C1818 C 0.99557 0.44689 0.73707 0.0
C1819 C 0.99694 0.47603 0.73858 0.0
C1820 C -0.00014 0.49336 0.73 0.0
C1821 C 0.98949 0.4431 0.75514 0.0
C1822 C 0.98783 0.45628 0.76533 0.0
C1823 C 0.99129 0.47245 0.75685 0.0
C1824 C 0.98239 0.45336 0.78476 0.0
C1825 C 0.98472 0.42492 0.76307 0.0
C1826 C 0.96661 0.4532 0.79042 0.0
C1827 C 0.96069 0.44897 0.80846 0.0
C1828 C 0.97045 0.4448 0.82113 0.0
C1829 C 0.9867 0.4458 0.81559 0.0
C1830 C 0.99267 0.45017 0.7976 0.0
H1831 H 0.98171 0.41471 0.75221 0.0
H1832 H 0.99635 0.42628 0.77109 0.0
H1833 H 0.97282 0.4198 0.77225 0.0
H1834 H 0.95857 0.45576 0.78073 0.0
H1835 H 0.94814 0.44835 0.81229 0.0
H1836 H 0.55454 0.55235 0.82696 0.0
H1837 H 0.54538 0.55571 0.79632 0.0
H1838 H 0.53955 0.50428 0.78092 0.0
H1839 H 0.54814 0.50053 0.81168 0.0
H1840 H 0.56323 0.55846 0.76579 0.0
H1841 H 0.49391 0.49972 0.75993 0.0
H1842 H 0.5056 0.50704 0.78148 0.0
H1843 H 0.51024 0.49332 0.76625 0.0
C1844 C 0.55104 0.54161 0.81714 0.0
C1845 C 0.55211 0.52619 0.82175 0.0
C1846 C 0.5458 0.54356 0.79964 0.0
C1847 C 0.5416 0.53017 0.78637 0.0
C1848 C 0.5423 0.51458 0.79103 0.0
H1849 H 0.55085 0.5529 0.67013 0.0
H1850 H 0.55433 0.54443 0.7011 0.0
C1851 C 0.54734 0.51252 0.80861 0.0
C1852 C 0.53801 0.53328 0.76732 0.0
H1853 H 0.50789 0.51509 0.73219 0.0
C1854 C 0.55107 0.54902 0.75849 0.0
C1855 C 0.52207 0.52104 0.75786 0.0
C1856 C 0.50707 0.50443 0.76692 0.0
C1857 C 0.54875 0.5528 0.74042 0.0
C1858 C 0.53317 0.5402 0.73071 0.0
C1859 C 0.51996 0.52457 0.73959 0.0
C1860 C 0.53011 0.54342 0.71153 0.0
C1861 C 0.56283 0.57045 0.73207 0.0
C1862 C 0.51487 0.54475 0.70691 0.0
C1863 C 0.51271 0.54933 0.68917 0.0
C1864 C 0.52579 0.5527 0.67574 0.0
C1865 C 0.54065 0.5506 0.68022 0.0
C1866 C 0.5427 0.54585 0.69793 0.0
H1867 H 0.57107 0.58054 0.74267 0.0
H1868 H 0.57213 0.56801 0.72353 0.0
H1869 H 0.55648 0.57633 0.72329 0.0
H1870 H 0.50496 0.54285 0.7172 0.0
H1871 H 0.50117 0.55093 0.68622 0.0
H1872 H 0.43247 0.39726 0.12543 0.0
H1873 H 0.42198 0.3673 0.11203 0.0
H1874 H 0.38116 0.37197 0.08179 0.0
H1875 H 0.39163 0.40184 0.09481 0.0
H1876 H 0.38825 0.33694 0.11468 0.0
H1877 H 0.40466 0.35699 0.04241 0.0
H1878 H 0.4139 0.37306 0.06091 0.0
H1879 H 0.39156 0.36594 0.05234 0.0
C1880 C 0.42133 0.39194 0.11583 0.0
C1881 C 0.41291 0.40195 0.11115 0.0
C1882 C 0.41538 0.37485 0.10819 0.0
C1883 C 0.40103 0.36759 0.09565 0.0
C1884 C 0.39256 0.37751 0.09107 0.0
H1885 H 0.32053 0.26123 0.06813 0.0
H1886 H 0.34027 0.29106 0.08111 0.0
C1887 C 0.39847 0.39454 0.09867 0.0
C1888 C 0.3941 0.34922 0.08804 0.0
H1889 H 0.3823 0.32579 0.04794 0.0
C1890 C 0.38721 0.3345 0.10009 0.0
C1891 C 0.39308 0.34607 0.06902 0.0
C1892 C 0.40138 0.36138 0.05543 0.0
C1893 C 0.3783 0.31665 0.0936 0.0
C1894 C 0.37597 0.31351 0.07459 0.0
C1895 C 0.38386 0.32822 0.06253 0.0
C1896 C 0.36431 0.29518 0.06699 0.0
C1897 C 0.37124 0.30133 0.10718 0.0
C1898 C 0.37116 0.28779 0.05433 0.0
C1899 C 0.35983 0.27074 0.04671 0.0
C1900 C 0.34144 0.26088 0.05155 0.0
C1901 C 0.33464 0.26841 0.06415 0.0
C1902 C 0.34594 0.28541 0.07172 0.0
H1903 H 0.37902 0.30563 0.12014 0.0
H1904 H 0.35692 0.29695 0.1104 0.0
H1905 H 0.37185 0.28954 0.10163 0.0
H1906 H 0.38527 0.29521 0.05037 0.0
H1907 H 0.36548 0.26533 0.03703 0.0
H1908 H 0.73217 0.05257 0.06251 0.0
H1909 H 0.70237 0.0416 0.07593 0.0
H1910 H 0.70319 0.09046 0.05922 0.0
H1911 H 0.73302 0.10147 0.04533 0.0
H1912 H 0.69276 0.05711 0.10355 0.0
H1913 H 0.65444 0.05093 0.03992 0.0
H1914 H 0.6769 0.05388 0.03959 0.0
H1915 H 0.67377 0.07279 0.04428 0.0
C1916 C 0.72601 0.06098 0.06156 0.0
C1917 C 0.73494 0.07787 0.05278 0.0
C1918 C 0.70898 0.05469 0.06928 0.0
C1919 C 0.70051 0.06513 0.06843 0.0
C1920 C 0.70936 0.08205 0.05973 0.0
H1921 H 0.592 0.03067 0.11285 0.0
H1922 H 0.62282 0.05044 0.10145 0.0
C1923 C 0.72642 0.08833 0.05187 0.0
C1924 C 0.68253 0.0582 0.07699 0.0
H1925 H 0.63793 0.04227 0.06737 0.0
C1926 C 0.6808 0.05403 0.09567 0.0
C1927 C 0.66697 0.0543 0.06669 0.0
C1928 C 0.66798 0.05806 0.04648 0.0
C1929 C 0.66383 0.04548 0.10419 0.0
C1930 C 0.64825 0.04093 0.09374 0.0
C1931 C 0.65 0.04585 0.07529 0.0
C1932 C 0.62994 0.02943 0.10127 0.0
C1933 C 0.6626 0.04093 0.12421 0.0
C1934 C 0.62386 0.01114 0.10481 0.0
C1935 C 0.60632 -0.00017 0.11115 0.0
C1936 C 0.59457 0.00665 0.11414 0.0
C1937 C 0.60079 0.02507 0.11078 0.0
C1938 C 0.61833 0.03635 0.10424 0.0
H1939 H 0.67585 0.04892 0.13119 0.0
H1940 H 0.65246 0.04343 0.1311 0.0
H1941 H 0.65819 0.02637 0.12575 0.0
H1942 H 0.63261 0.00555 0.1024 0.0
H1943 H 0.60195 0.98572 0.1136 0.0
H1944 H 0.94426 0.67671 0.06199 0.0
H1945 H 0.95466 0.65726 0.0751 0.0
H1946 H 0.90489 0.61002 0.05884 0.0
H1947 H 0.89446 0.62946 0.04528 0.0
H1948 H 0.93878 0.63225 0.10283 0.0
H1949 H 0.94334 0.59936 0.03902 0.0
H1950 H 0.94109 0.6193 0.03879 0.0
H1951 H 0.92181 0.59755 0.04361 0.0
C1952 C 0.93554 0.66219 0.06106 0.0
C1953 C 0.91856 0.65462 0.05252 0.0
C1954 C 0.94149 0.65109 0.06861 0.0
C1955 C 0.93062 0.63221 0.0678 0.0
C1956 C 0.91363 0.62456 0.05932 0.0
H1957 H 0.96353 0.55679 0.11227 0.0
H1958 H 0.94396 0.5681 0.10081 0.0
C1959 C 0.90767 0.63569 0.05164 0.0
C1960 C 0.93717 0.62079 0.07624 0.0
H1961 H 0.95203 0.5913 0.06633 0.0
C1962 C 0.94149 0.62314 0.09489 0.0
C1963 C 0.94058 0.60884 0.06585 0.0
C1964 C 0.93662 0.60614 0.04568 0.0
C1965 C 0.94977 0.6144 0.10328 0.0
C1966 C 0.95388 0.6031 0.09273 0.0
C1967 C 0.94878 0.59999 0.07432 0.0
C1968 C 0.96529 0.59608 0.10006 0.0
C1969 C 0.95455 0.61768 0.12325 0.0
C1970 C 0.98367 0.60811 0.10326 0.0
C1971 C 0.99485 0.60174 0.10962 0.0
C1972 C 0.98781 0.5832 0.11299 0.0
C1973 C 0.96931 0.57116 0.1099 0.0
C1974 C 0.95814 0.57756 0.10333 0.0
H1975 H 0.94685 0.6232 0.13035 0.0
H1976 H 0.95188 0.60498 0.13012 0.0
H1977 H 0.96919 0.62762 0.12465 0.0
H1978 H 0.98943 0.62244 0.10063 0.0
H1979 H 0.00903 0.61137 0.11186 0.0
H1980 H 0.26096 0.36606 0.45121 0.0
H1981 H 0.29019 0.38552 0.43643 0.0
H1982 H 0.29523 0.33874 0.4246 0.0
H1983 H 0.26611 0.31925 0.43904 0.0
H1984 H 0.32457 0.39023 0.44422 0.0
H1985 H 0.3024 0.36285 0.37467 0.0
H1986 H 0.28663 0.35906 0.39286 0.0
H1987 H 0.29716 0.34537 0.39115 0.0
C1988 C 0.26832 0.35994 0.44549 0.0
C1989 C 0.26116 0.34109 0.44618 0.0
C1990 C 0.28498 0.37107 0.43703 0.0
C1991 C 0.29463 0.3635 0.42908 0.0
C1992 C 0.28775 0.34478 0.43024 0.0
H1993 H 0.39462 0.38568 0.38744 0.0
H1994 H 0.3641 0.37467 0.39903 0.0
C1995 C 0.27116 0.33368 0.43863 0.0
C1996 C 0.31211 0.375 0.41983 0.0
H1997 H 0.33455 0.37856 0.38015 0.0
C1998 C 0.32672 0.38799 0.4301 0.0
C1999 C 0.31478 0.37215 0.40135 0.0
C2000 C 0.29935 0.35923 0.38931 0.0
C2001 C 0.34422 0.39731 0.42271 0.0
C2002 C 0.34704 0.39354 0.40464 0.0
C2003 C 0.33229 0.38131 0.39406 0.0
C2004 C 0.36539 0.40057 0.39716 0.0
C2005 C 0.35978 0.41035 0.43453 0.0
C2006 C 0.37609 0.41877 0.39209 0.0
C2007 C 0.39359 0.42513 0.38534 0.0
C2008 C 0.40059 0.41337 0.38367 0.0
C2009 C 0.38967 0.39511 0.3886 0.0
C2010 C 0.37222 0.38877 0.3952 0.0
H2011 H 0.35547 0.41084 0.44871 0.0
H2012 H 0.37039 0.40644 0.43491 0.0
H2013 H 0.36595 0.42413 0.42859 0.0
H2014 H 0.37093 0.42801 0.39341 0.0
H2015 H 0.40168 0.43927 0.38167 0.0
H2016 H 0.63189 0.90077 0.46767 0.0
H2017 H 0.61139 0.91021 0.45482 0.0
H2018 H 0.65274 0.94485 0.41666 0.0
H2019 H 0.67313 0.93537 0.42915 0.0
H2020 H 0.61631 0.94457 0.45357 0.0
H2021 H 0.60895 0.91742 0.38368 0.0
H2022 H 0.61785 0.91032 0.40227 0.0
H2023 H 0.63225 0.93097 0.39014 0.0
C2024 C 0.63656 0.91029 0.45645 0.0
C2025 C 0.65413 0.9173 0.44942 0.0
C2026 C 0.62482 0.91564 0.44912 0.0
C2027 C 0.63043 0.92795 0.43456 0.0
C2028 C 0.64797 0.93498 0.42757 0.0
H2029 H 0.60588 0.00769 0.4014 0.0
H2030 H 0.61637 0.98854 0.41502 0.0
C2031 C 0.65968 0.92966 0.43486 0.0
C2032 C 0.61852 0.93447 0.42733 0.0
H2033 H 0.60216 0.94151 0.38757 0.0
C2034 C 0.61293 0.94363 0.4392 0.0
C2035 C 0.61383 0.93295 0.40865 0.0
C2036 C 0.61837 0.9222 0.39549 0.0
C2037 C 0.60379 0.95231 0.43265 0.0
C2038 C 0.60045 0.95205 0.41373 0.0
C2039 C 0.60497 0.9419 0.40204 0.0
C2040 C 0.59364 0.96339 0.40564 0.0
C2041 C 0.59809 0.96196 0.44602 0.0
C2042 C 0.57763 0.95562 0.39537 0.0
C2043 C 0.57162 0.96657 0.3874 0.0
C2044 C 0.58164 0.98548 0.38946 0.0
C2045 C 0.59778 0.99318 0.39959 0.0
C2046 C 0.60374 0.98225 0.40753 0.0
H2047 H 0.59627 0.95615 0.45993 0.0
H2048 H 0.60878 0.97641 0.44676 0.0
H2049 H 0.58528 0.96126 0.44171 0.0
H2050 H 0.56975 0.94108 0.39361 0.0
H2051 H 0.55915 0.96024 0.37965 0.0
H2052 H 0.0337 0.59588 0.38181 0.0
H2053 H 0.05278 0.62546 0.39613 0.0
H2054 H 0.00526 0.62861 0.40961 0.0
H2055 H 0.98615 0.59915 0.39562 0.0
H2056 H 0.05597 0.65885 0.38789 0.0
H2057 H 0.03147 0.63832 0.45854 0.0
H2058 H 0.02744 0.62213 0.44071 0.0
H2059 H 0.01329 0.63213 0.44268 0.0
C2060 C 0.02733 0.60288 0.38784 0.0
C2061 C 0.0084 0.59512 0.38766 0.0
C2062 C 0.03824 0.61974 0.39603 0.0
C2063 C 0.03039 0.629 0.40425 0.0
C2064 C 0.01156 0.62146 0.40374 0.0
H2065 H 0.06351 0.73811 0.42608 0.0
H2066 H 0.05354 0.70807 0.4137 0.0
C2067 C 0.00066 0.60466 0.39561 0.0
C2068 C 0.04174 0.64687 0.41289 0.0
H2069 H 0.04628 0.67024 0.45215 0.0
C2070 C 0.0541 0.66131 0.40202 0.0
C2071 C 0.03953 0.64997 0.43142 0.0
C2072 C 0.02735 0.63477 0.44407 0.0
C2073 C 0.06345 0.67901 0.4089 0.0
C2074 C 0.06011 0.68231 0.42699 0.0
C2075 C 0.04864 0.6677 0.4382 0.0
C2076 C 0.06717 0.70086 0.43409 0.0
C2077 C 0.07658 0.69406 0.39664 0.0
C2078 C 0.07785 0.70664 0.44991 0.0
C2079 C 0.08351 0.72383 0.45713 0.0
C2080 C 0.07838 0.7354 0.44875 0.0
C2081 C 0.06771 0.72954 0.43288 0.0
C2082 C 0.06213 0.71243 0.42567 0.0
H2083 H 0.08192 0.68887 0.38583 0.0
H2084 H 0.0695 0.70039 0.38985 0.0
H2085 H 0.08813 0.70466 0.40453 0.0
H2086 H 0.08172 0.69781 0.4567 0.0
H2087 H 0.09169 0.72794 0.46939 0.0
H2088 H 0.60419 0.59363 0.90429 0.0
H2089 H 0.61414 0.62344 0.91732 0.0
H2090 H 0.58032 0.63164 0.87933 0.0
H2091 H 0.57032 0.60175 0.86603 0.0
H2092 H 0.61595 0.66052 0.88113 0.0
H2093 H 0.5863 0.64018 0.95016 0.0
H2094 H 0.59904 0.62958 0.94353 0.0
H2095 H 0.57892 0.62469 0.93111 0.0
C2096 C 0.59878 0.60171 0.89872 0.0
C2097 C 0.58648 0.59533 0.8841 0.0
C2098 C 0.60436 0.61868 0.90631 0.0
C2099 C 0.59771 0.62958 0.89949 0.0
C2100 C 0.58546 0.62332 0.88488 0.0
H2101 H 0.63057 0.73353 0.95389 0.0
H2102 H 0.61142 0.70378 0.93991 0.0
C2103 C 0.5798 0.60627 0.8773 0.0
C2104 C 0.60456 0.64796 0.90696 0.0
H2105 H 0.61067 0.67086 0.9469 0.0
C2106 C 0.61455 0.66281 0.89544 0.0
C2107 C 0.60246 0.65091 0.92556 0.0
C2108 C 0.59093 0.6355 0.93828 0.0
C2109 C 0.62344 0.68052 0.90229 0.0
C2110 C 0.62248 0.68335 0.92117 0.0
C2111 C 0.61156 0.66861 0.93247 0.0
C2112 C 0.63383 0.70131 0.92961 0.0
C2113 C 0.63408 0.696 0.88932 0.0
C2114 C 0.65272 0.70951 0.92875 0.0
C2115 C 0.66364 0.72638 0.93671 0.0
C2116 C 0.6559 0.73537 0.94581 0.0
C2117 C 0.63694 0.72697 0.94696 0.0
C2118 C 0.62599 0.71001 0.93897 0.0
H2119 H 0.62905 0.69233 0.8751 0.0
H2120 H 0.63343 0.7082 0.89338 0.0
H2121 H 0.64846 0.69948 0.88949 0.0
H2122 H 0.65903 0.7028 0.92196 0.0
H2123 H 0.67818 0.7324 0.93564 0.0
H2124 H 0.27892 0.94031 0.97671 0.0
H2125 H 0.30876 0.95141 0.96293 0.0
H2126 H 0.28363 0.92726 0.9116 0.0
H2127 H 0.25379 0.91625 0.92514 0.0
H2128 H 0.32485 0.93325 0.94355 0.0
H2129 H 0.31602 0.98203 0.9006 0.0
H2130 H 0.30167 0.97065 0.9199 0.0
H2131 H 0.29842 0.9588 0.89874 0.0
C2132 C 0.27973 0.93721 0.96254 0.0
C2133 C 0.26399 0.92762 0.95195 0.0
C2134 C 0.29677 0.94351 0.95471 0.0
C2135 C 0.29834 0.94035 0.93621 0.0
C2136 C 0.28267 0.93005 0.92584 0.0
H2137 H 0.39955 0.96994 0.87855 0.0
H2138 H 0.36907 0.95255 0.89153 0.0
C2139 C 0.26564 0.92377 0.93362 0.0
C2140 C 0.31634 0.94877 0.92749 0.0
H2141 H 0.34284 0.98098 0.89647 0.0
C2142 C 0.32881 0.94362 0.93319 0.0
C2143 C 0.32142 0.96241 0.91412 0.0
C2144 C 0.30878 0.96896 0.90803 0.0
C2145 C 0.34636 0.95186 0.92587 0.0
C2146 C 0.35139 0.96544 0.91244 0.0
C2147 C 0.33885 0.97046 0.90668 0.0
C2148 C 0.36994 0.97553 0.90501 0.0
C2149 C 0.35954 0.9464 0.9329 0.0
C2150 C 0.38036 0.99419 0.90811 0.0
C2151 C 0.39763 0.00414 0.90067 0.0
C2152 C 0.40483 0.99562 0.88988 0.0
C2153 C 0.39439 0.97688 0.88683 0.0
C2154 C 0.37704 0.96691 0.89431 0.0
H2155 H 0.35465 0.93825 0.94561 0.0
H2156 H 0.36147 0.93814 0.92241 0.0
H2157 H 0.37292 0.95852 0.93563 0.0
H2158 H 0.37508 0.00108 0.91631 0.0
H2159 H 0.4053 0.01853 0.90335 0.0
H2160 H 0.10575 0.36803 0.94683 0.0
H2161 H 0.09468 0.38781 0.93545 0.0
H2162 H 0.04072 0.34195 0.93181 0.0
H2163 H 0.05156 0.32215 0.94302 0.0
H2164 H 0.07421 0.38239 0.90043 0.0
H2165 H 0.03673 0.38158 0.96259 0.0
H2166 H 0.05487 0.37646 0.96303 0.0
H2167 H 0.0327 0.35974 0.95542 0.0
C2168 C 0.09152 0.3622 0.9437 0.0
C2169 C 0.07952 0.34354 0.94587 0.0
C2170 C 0.08525 0.37349 0.93718 0.0
C2171 C 0.06689 0.36631 0.933 0.0
C2172 C 0.05491 0.34774 0.93519 0.0
H2173 H 0.98767 0.38722 0.89117 0.0
H2174 H 0.0069 0.37665 0.9044 0.0
C2175 C 0.06116 0.33645 0.94153 0.0
C2176 C 0.06003 0.37792 0.92587 0.0
H2177 H 0.02917 0.3911 0.93498 0.0
C2178 C 0.06462 0.38465 0.90804 0.0
C2179 C 0.04758 0.3808 0.93592 0.0
C2180 C 0.04276 0.37442 0.95537 0.0
C2181 C 0.05614 0.39321 0.89954 0.0
C2182 C 0.04301 0.39529 0.90932 0.0
C2183 C 0.03917 0.38939 0.92749 0.0
C2184 C 0.03184 0.40196 0.90056 0.0
C2185 C 0.06053 0.39902 0.87989 0.0
C2186 C 0.03952 0.41971 0.89391 0.0
C2187 C 0.02852 0.42581 0.88619 0.0
C2188 C 0.00968 0.41427 0.88517 0.0
C2189 C 0.00212 0.39648 0.89175 0.0
C2190 C 0.01308 0.39041 0.89936 0.0
H2191 H 0.06855 0.39357 0.87338 0.0
H2192 H 0.04793 0.39452 0.8719 0.0
H2193 H 0.06852 0.41401 0.87922 0.0
H2194 H 0.05395 0.42892 0.89498 0.0
H2195 H 0.03473 0.43962 0.88135 0.0
H2196 H 0.6004 0.61115 0.60724 0.0
H2197 H 0.63098 0.62149 0.59611 0.0
H2198 H 0.62337 0.56807 0.60382 0.0
H2199 H 0.5926 0.55749 0.61513 0.0
H2200 H 0.65984 0.61675 0.61696 0.0
H2201 H 0.64029 0.58484 0.54813 0.0
H2202 H 0.62554 0.59023 0.56098 0.0
H2203 H 0.62867 0.57189 0.5681 0.0
C2204 C 0.60518 0.60156 0.60661 0.0
C2205 C 0.59406 0.58348 0.61206 0.0
C2206 C 0.62266 0.60751 0.60026 0.0
C2207 C 0.6293 0.5955 0.59909 0.0
C2208 C 0.61836 0.57747 0.60456 0.0
H2209 H 0.73442 0.62708 0.54788 0.0
H2210 H 0.70472 0.60827 0.56213 0.0
C2211 C 0.60085 0.57149 0.61105 0.0
C2212 C 0.6478 0.60215 0.59217 0.0
H2213 H 0.67121 0.60487 0.55346 0.0
C2214 C 0.66239 0.61396 0.60318 0.0
C2215 C 0.651 0.5983 0.57427 0.0
C2216 C 0.63562 0.58566 0.56205 0.0
C2217 C 0.68014 0.62262 0.59647 0.0
C2218 C 0.68325 0.61972 0.57815 0.0
C2219 C 0.66875 0.60714 0.56746 0.0
C2220 C 0.70113 0.63083 0.56943 0.0
C2221 C 0.69536 0.63505 0.60899 0.0
C2222 C 0.70868 0.64965 0.56846 0.0
C2223 C 0.72553 0.66037 0.56039 0.0
C2224 C 0.73514 0.65249 0.55294 0.0
C2225 C 0.72737 0.63356 0.55353 0.0
C2226 C 0.71044 0.62281 0.56168 0.0
H2227 H 0.69177 0.63128 0.62352 0.0
H2228 H 0.70797 0.63481 0.60586 0.0
H2229 H 0.69806 0.6491 0.6072 0.0
H2230 H 0.70149 0.65607 0.57393 0.0
H2231 H 0.73103 0.67488 0.56005 0.0
H2232 H 0.38401 0.98703 0.6109 0.0
H2233 H 0.37293 0.00648 0.59924 0.0
H2234 H 0.42588 0.05324 0.60616 0.0
H2235 H 0.43721 0.03382 0.61797 0.0
H2236 H 0.37596 0.03924 0.61861 0.0
H2237 H 0.40979 0.05267 0.55072 0.0
H2238 H 0.40538 0.03314 0.56415 0.0
H2239 H 0.42276 0.05521 0.57103 0.0
C2240 C 0.39334 0.00145 0.61 0.0
C2241 C 0.41151 0.00889 0.61534 0.0
C2242 C 0.38697 0.01253 0.60335 0.0
C2243 C 0.39864 0.03121 0.60176 0.0
C2244 C 0.41674 0.03879 0.60719 0.0
H2245 H 0.36504 0.10259 0.54928 0.0
H2246 H 0.38415 0.09227 0.56389 0.0
C2247 C 0.42314 0.0277 0.61398 0.0
C2248 C 0.39155 0.04254 0.59438 0.0
H2249 H 0.38907 0.06284 0.55526 0.0
C2250 C 0.379 0.04465 0.60486 0.0
C2251 C 0.39572 0.04966 0.57652 0.0
C2252 C 0.4091 0.04759 0.56481 0.0
C2253 C 0.36995 0.05315 0.59766 0.0
C2254 C 0.37325 0.05927 0.57938 0.0
C2255 C 0.38651 0.05802 0.56922 0.0
C2256 C 0.36197 0.06556 0.57018 0.0
C2257 C 0.3567 0.05523 0.6096 0.0
C2258 C 0.34329 0.05379 0.56847 0.0
C2259 C 0.33239 0.05959 0.56017 0.0
C2260 C 0.33998 0.07727 0.55326 0.0
C2261 C 0.35879 0.0889 0.55449 0.0
C2262 C 0.36972 0.08306 0.56286 0.0
H2263 H 0.35994 0.0553 0.62429 0.0
H2264 H 0.35661 0.0679 0.60641 0.0
H2265 H 0.34291 0.04363 0.60725 0.0
H2266 H 0.33712 0.04008 0.57362 0.0
H2267 H 0.31798 0.05024 0.55933 0.0
H2268 H 0.00918 0.4015 0.59614 0.0
H2269 H 0.98937 0.37173 0.58306 0.0
H2270 H 0.94375 0.36902 0.61125 0.0
H2271 H 0.96357 0.39893 0.62459 0.0
H2272 H 0.94689 0.33776 0.61494 0.0
H2273 H 0.95133 0.35804 0.54255 0.0
H2274 H 0.97311 0.36695 0.55313 0.0
H2275 H 0.95766 0.37398 0.56114 0.0
C2276 C 0.99493 0.39464 0.59956 0.0
C2277 C 0.98795 0.40259 0.61142 0.0
C2278 C 0.98361 0.37769 0.59193 0.0
C2279 C 0.96507 0.36835 0.59593 0.0
C2280 C 0.95801 0.37613 0.60787 0.0
H2281 H 0.89688 0.26565 0.53836 0.0
H2282 H 0.90707 0.29561 0.55165 0.0
C2283 C 0.96935 0.39318 0.61548 0.0
C2284 C 0.9534 0.35006 0.58831 0.0
H2285 H 0.94157 0.3267 0.54818 0.0
C2286 C 0.94544 0.33533 0.60035 0.0
C2287 C 0.9513 0.34696 0.56929 0.0
C2288 C 0.95865 0.36234 0.55577 0.0
C2289 C 0.93639 0.3175 0.59382 0.0
C2290 C 0.93552 0.3144 0.57481 0.0
C2291 C 0.94246 0.32913 0.56276 0.0
C2292 C 0.92884 0.29609 0.56722 0.0
C2293 C 0.92817 0.30213 0.60734 0.0
C2294 C 0.93789 0.28663 0.57138 0.0
C2295 C 0.9322 0.26964 0.56379 0.0
C2296 C 0.91736 0.26179 0.5518 0.0
C2297 C 0.90833 0.27133 0.54758 0.0
C2298 C 0.91411 0.28841 0.55516 0.0
H2299 H 0.92509 0.30647 0.6205 0.0
H2300 H 0.91555 0.29054 0.6019 0.0
H2301 H 0.93794 0.29743 0.61012 0.0
H2302 H 0.94953 0.2925 0.58035 0.0
H2303 H 0.93947 0.26269 0.56733 0.0
H2304 H 0.93335 0.65445 0.77042 0.0
H2305 H 0.96279 0.67408 0.75664 0.0
H2306 H 0.95745 0.72074 0.76819 0.0
H2307 H 0.92792 0.70114 0.78234 0.0
H2308 H 0.96995 0.69728 0.72662 0.0
H2309 H 0.00778 0.73478 0.78871 0.0
H2310 H 0.98633 0.71401 0.79001 0.0
H2311 H 0.98711 0.73471 0.78373 0.0
C2312 C 0.93845 0.6689 0.77018 0.0
C2313 C 0.92831 0.67625 0.77753 0.0
C2314 C 0.95526 0.68008 0.76225 0.0
C2315 C 0.96233 0.69884 0.76151 0.0
C2316 C 0.95234 0.7063 0.76888 0.0
H2317 H 0.07044 0.7737 0.71647 0.0
H2318 H 0.03949 0.76265 0.72753 0.0
C2319 C 0.93546 0.69509 0.77691 0.0
C2320 C 0.98001 0.71029 0.75259 0.0
H2321 H 0.02423 0.74109 0.76136 0.0
C2322 C 0.98178 0.70703 0.73415 0.0
C2323 C 0.99535 0.7231 0.76243 0.0
C2324 C 0.9942 0.72686 0.78235 0.0
C2325 C -0.00133 0.71568 0.72549 0.0
C2326 C 0.01414 0.72774 0.73559 0.0
C2327 C 0.01226 0.7318 0.75372 0.0
C2328 C 0.03252 0.73457 0.72823 0.0
C2329 C -7e-05 0.71147 0.70574 0.0
C2330 C 0.03875 0.72241 0.72512 0.0
C2331 C 0.05633 0.72863 0.71898 0.0
C2332 C 0.06802 0.74716 0.71577 0.0
C2333 C 0.0617 0.75934 0.71872 0.0
C2334 C 0.04408 0.75308 0.72506 0.0
H2335 H 0.9867 0.706 0.69868 0.0
H2336 H 0.01014 0.72373 0.69839 0.0
H2337 H 0.00416 0.70113 0.70498 0.0
H2338 H 0.03006 0.70809 0.72775 0.0
H2339 H 0.06078 0.7189 0.71685 0.0
H2340 H 0.34042 0.27265 0.76673 0.0
H2341 H 0.32142 0.28357 0.75366 0.0
H2342 H 0.27385 0.23688 0.77483 0.0
H2343 H 0.2929 0.22598 0.78843 0.0
H2344 H 0.29449 0.26769 0.72819 0.0
H2345 H 0.26764 0.2784 0.79335 0.0
H2346 H 0.28649 0.2744 0.79266 0.0
H2347 H 0.26383 0.25595 0.78962 0.0
C2348 C 0.32592 0.26469 0.7687 0.0
C2349 C 0.31818 0.24849 0.77873 0.0
C2350 C 0.31508 0.27095 0.76117 0.0
C2351 C 0.29625 0.26115 0.76343 0.0
C2352 C 0.28839 0.24483 0.77323 0.0
H2353 H 0.22282 0.2975 0.72108 0.0
H2354 H 0.23338 0.27728 0.73241 0.0
C2355 C 0.29928 0.23859 0.78092 0.0
C2356 C 0.28512 0.26824 0.75535 0.0
H2357 H 0.25852 0.2863 0.76624 0.0
C2358 C 0.28646 0.27157 0.73649 0.0
C2359 C 0.2746 0.27323 0.76621 0.0
C2360 C 0.2731 0.27047 0.7866 0.0
C2361 C 0.27813 0.28037 0.72831 0.0
C2362 C 0.26824 0.28598 0.73927 0.0
C2363 C 0.26612 0.28189 0.75794 0.0
C2364 C 0.26169 0.29777 0.73194 0.0
C2365 C 0.28035 0.28412 0.7081 0.0
C2366 C 0.27416 0.3159 0.72807 0.0
C2367 C 0.26822 0.32747 0.72178 0.0
C2368 C 0.24967 0.32106 0.71916 0.0
C2369 C 0.2372 0.30279 0.72288 0.0
C2370 C 0.24317 0.29125 0.72937 0.0
H2371 H 0.28506 0.27573 0.70098 0.0
H2372 H 0.2674 0.28154 0.70191 0.0
H2373 H 0.2905 0.29858 0.70583 0.0
H2374 H 0.2885 0.32116 0.73013 0.0
H2375 H 0.27817 0.34145 0.71904 0.0
H2376 H 0.7197 0.06542 0.77242 0.0
H2377 H 0.70903 0.03541 0.75963 0.0
H2378 H 0.7606 0.03978 0.77123 0.0
H2379 H 0.77138 0.06987 0.7844 0.0
H2380 H 0.72386 0.02671 0.73006 0.0
H2381 H 0.72419 0.99042 0.79308 0.0
H2382 H 0.72554 0.0122 0.79376 0.0
H2383 H 0.74499 0.01058 0.78743 0.0
C2384 C 0.72877 0.05999 0.7724 0.0
C2385 C 0.74638 0.07002 0.77948 0.0
C2386 C 0.72265 0.04284 0.76505 0.0
C2387 C 0.73397 0.03533 0.76462 0.0
C2388 C 0.75156 0.04522 0.77172 0.0
H2389 H 0.70097 0.92702 0.72021 0.0
H2390 H 0.72045 0.95799 0.73146 0.0
C2391 C 0.7577 0.06243 0.77917 0.0
C2392 C 0.72728 0.01732 0.75623 0.0
H2393 H 0.71392 0.97329 0.76607 0.0
C2394 C 0.72187 0.01506 0.73788 0.0
C2395 C 0.72482 0.0022 0.76645 0.0
C2396 C 0.73005 0.00383 0.78631 0.0
C2397 C 0.71345 0.99796 0.72966 0.0
C2398 C 0.71026 0.98275 0.7401 0.0
C2399 C 0.71644 0.98506 0.75816 0.0
C2400 C 0.69884 0.9642 0.73307 0.0
C2401 C 0.7076 0.99617 0.70999 0.0
C2402 C 0.68031 0.95754 0.73047 0.0
C2403 C 0.66919 0.93994 0.72421 0.0
C2404 C 0.67641 0.92868 0.72037 0.0
C2405 C 0.69504 0.93541 0.72295 0.0
C2406 C 0.70616 0.95304 0.7294 0.0
H2407 H 0.71486 0.00931 0.70267 0.0
H2408 H 0.70997 0.98611 0.70276 0.0
H2409 H 0.6929 0.99141 0.70944 0.0
H2410 H 0.67442 0.96593 0.73344 0.0
H2411 H 0.65491 0.93518 0.72238 0.0
H2412 H 0.29664 0.06525 0.29276 0.0
H2413 H 0.27702 0.03533 0.27938 0.0
H2414 H 0.32278 0.03861 0.25093 0.0
H2415 H 0.34236 0.06847 0.26392 0.0
H2416 H 0.29184 0.02662 0.22907 0.0
H2417 H 0.27674 0.98876 0.29459 0.0
H2418 H 0.27179 0.00689 0.29365 0.0
H2419 H 0.29483 0.01187 0.29241 0.0
C2420 C 0.30252 0.05958 0.28367 0.0
C2421 C 0.32108 0.06919 0.2795 0.0
C2422 C 0.2913 0.04248 0.27609 0.0
C2423 C 0.29851 0.03472 0.26432 0.0
C2424 C 0.31697 0.04438 0.25999 0.0
H2425 H 0.27287 0.92986 0.23252 0.0
H2426 H 0.28339 0.95978 0.24544 0.0
C2427 C 0.32815 0.06142 0.2675 0.0
C2428 C 0.2871 0.01644 0.25657 0.0
H2429 H 0.26474 0.97167 0.26789 0.0
C2430 C 0.28569 0.01458 0.23753 0.0
C2431 C 0.27921 0.00083 0.2677 0.0
C2432 C 0.28076 0.00205 0.28822 0.0
C2433 C 0.27718 0.99746 0.22926 0.0
C2434 C 0.26967 0.98185 0.24038 0.0
C2435 C 0.27047 0.98371 0.25944 0.0
C2436 C 0.2627 0.96356 0.2326 0.0
C2437 C 0.27712 0.99623 0.20872 0.0
C2438 C 0.24749 0.95574 0.22115 0.0
C2439 C 0.24146 0.93859 0.2136 0.0
C2440 C 0.25052 0.92901 0.2175 0.0
C2441 C 0.26561 0.93687 0.22916 0.0
C2442 C 0.27162 0.95395 0.23663 0.0
H2443 H 0.28623 0.00953 0.20228 0.0
H2444 H 0.28135 0.98645 0.20431 0.0
H2445 H 0.2632 0.99133 0.20358 0.0
H2446 H 0.24028 0.96286 0.21809 0.0
H2447 H 0.22972 0.93285 0.20478 0.0
H2448 H 0.05005 0.33334 0.19385 0.0
H2449 H 0.02083 0.31422 0.20869 0.0
H2450 H 0.04812 0.30986 0.25625 0.0
H2451 H 0.07733 0.32903 0.24168 0.0
H2452 H 0.00522 0.27828 0.22441 0.0
H2453 H 0.01722 0.33142 0.27545 0.0
H2454 H 0.03052 0.33623 0.25492 0.0
H2455 H 0.03454 0.32537 0.27387 0.0
C2456 C 0.04983 0.32822 0.20742 0.0
C2457 C 0.06601 0.33289 0.21667 0.0
C2458 C 0.03314 0.31728 0.21584 0.0
C2459 C 0.03239 0.3109 0.23364 0.0
C2460 C 0.04847 0.31492 0.24262 0.0
H2461 H 0.94065 0.25812 0.30828 0.0
H2462 H 0.97064 0.26997 0.29455 0.0
C2463 C 0.06514 0.32585 0.23424 0.0
C2464 C 0.01482 0.30068 0.24308 0.0
H2465 H 0.99014 0.30358 0.27816 0.0
C2466 C 0.0019 0.28375 0.2362 0.0
C2467 C 0.01065 0.30787 0.2585 0.0
C2468 C 0.02387 0.32628 0.26609 0.0
C2469 C 0.98479 0.27379 0.24433 0.0
C2470 C 0.98047 0.28118 0.25948 0.0
C2471 C 0.99355 0.29794 0.26659 0.0
C2472 C 0.9621 0.27244 0.26743 0.0
C2473 C 0.97153 0.25545 0.23667 0.0
C2474 C 0.94742 0.26995 0.25672 0.0
C2475 C 0.93034 0.26324 0.26449 0.0
C2476 C 0.92763 0.25902 0.28319 0.0
C2477 C 0.94229 0.26124 0.29385 0.0
C2478 C 0.95942 0.26798 0.28603 0.0
H2479 H 0.97854 0.24946 0.22909 0.0
H2480 H 0.9632 0.24597 0.24764 0.0
H2481 H 0.96233 0.2569 0.227 0.0
H2482 H 0.94928 0.27369 0.24244 0.0
H2483 H 0.91934 0.26171 0.25589 0.0
H2484 H 0.72557 0.65385 0.26098 0.0
H2485 H 0.71555 0.67368 0.24809 0.0
H2486 H 0.75336 0.7174 0.28232 0.0
H2487 H 0.76343 0.69751 0.29553 0.0
H2488 H 0.71856 0.71238 0.28313 0.0
H2489 H 0.74134 0.71539 0.21191 0.0
H2490 H 0.72831 0.6926 0.22012 0.0
H2491 H 0.74972 0.70781 0.23057 0.0
C2492 C 0.73186 0.6677 0.26574 0.0
C2493 C 0.7453 0.67411 0.2793 0.0
C2494 C 0.72621 0.67907 0.25822 0.0
C2495 C 0.73396 0.69709 0.264 0.0
C2496 C 0.74736 0.70356 0.27756 0.0
H2497 H 0.69958 0.76663 0.20891 0.0
H2498 H 0.7192 0.75631 0.22231 0.0
C2499 C 0.75306 0.69219 0.28509 0.0
C2500 C 0.7271 0.70866 0.25662 0.0
H2501 H 0.71793 0.72294 0.21663 0.0
C2502 C 0.71869 0.71498 0.26863 0.0
C2503 C 0.72755 0.71228 0.23774 0.0
C2504 C 0.73739 0.70683 0.22436 0.0
C2505 C 0.70972 0.72383 0.2621 0.0
C2506 C 0.70895 0.72617 0.24309 0.0
C2507 C 0.71834 0.7209 0.23119 0.0
C2508 C 0.69733 0.73274 0.23524 0.0
C2509 C 0.70081 0.73028 0.27558 0.0
C2510 C 0.67856 0.72271 0.23784 0.0
C2511 C 0.66735 0.72848 0.23019 0.0
C2512 C 0.6747 0.74438 0.2197 0.0
C2513 C 0.69352 0.75434 0.21695 0.0
C2514 C 0.70474 0.7485 0.2246 0.0
H2515 H 0.70713 0.73251 0.2893 0.0
H2516 H 0.70162 0.74305 0.27094 0.0
H2517 H 0.68633 0.71984 0.27694 0.0
H2518 H 0.67254 0.71029 0.24569 0.0
H2519 H 0.65292 0.72046 0.23255 0.0
H2520 H 0.29608 0.19226 0.11554 0.0
H2521 H 0.30859 0.18793 0.14398 0.0
H2522 H 0.32026 0.15012 0.11672 0.0
H2523 H 0.30806 0.15474 0.08815 0.0
H2524 H 0.29889 0.15623 0.16414 0.0
H2525 H 0.3694 0.18785 0.13827 0.0
H2526 H 0.352 0.1902 0.12675 0.0
H2527 H 0.35286 0.16968 0.12451 0.0
C2528 C 0.3013 0.18301 0.1157 0.0
C2529 C 0.3013 0.17393 0.09974 0.0
C2530 C 0.30839 0.18052 0.1319 0.0
C2531 C 0.31563 0.16896 0.13234 0.0
C2532 C 0.31504 0.15937 0.11655 0.0
H2533 H 0.36625 0.13787 0.21608 0.0
H2534 H 0.35385 0.14238 0.18765 0.0
C2535 C 0.30794 0.16186 0.10033 0.0
C2536 C 0.32395 0.16711 0.14933 0.0
H2537 H 0.36384 0.17434 0.16754 0.0
C2538 C 0.3131 0.16023 0.16493 0.0
C2539 C 0.3425 0.1724 0.15027 0.0
C2540 C 0.35495 0.1806 0.13412 0.0
C2541 C 0.32024 0.15818 0.18141 0.0
C2542 C 0.33879 0.16346 0.18235 0.0
C2543 C 0.34964 0.17034 0.16675 0.0
C2544 C 0.34707 0.16153 0.19931 0.0
C2545 C 0.3078 0.15 0.19757 0.0
C2546 C 0.34779 0.17118 0.21511 0.0
C2547 C 0.35483 0.16858 0.23132 0.0
C2548 C 0.36127 0.15635 0.2319 0.0
C2549 C 0.36117 0.14723 0.21593 0.0
C2550 C 0.35415 0.14982 0.19974 0.0
H2551 H 0.29334 0.14286 0.19345 0.0
H2552 H 0.31068 0.14031 0.20487 0.0
H2553 H 0.31 0.16091 0.20725 0.0
H2554 H 0.3427 0.18054 0.21495 0.0
H2555 H 0.35481 0.17576 0.2435 0.0
H2556 H 0.80382 0.10114 0.11666 0.0
H2557 H 0.80755 0.11786 0.14506 0.0
H2558 H 0.84333 0.16788 0.11746 0.0
H2559 H 0.83921 0.15118 0.08893 0.0
H2560 H 0.83836 0.14065 0.16518 0.0
H2561 H 0.8047 0.17748 0.13908 0.0
H2562 H 0.80337 0.15823 0.12743 0.0
H2563 H 0.8233 0.18013 0.12537 0.0
C2564 C 0.81249 0.11571 0.11674 0.0
C2565 C 0.82111 0.12496 0.10069 0.0
C2566 C 0.81464 0.12522 0.13291 0.0
C2567 C 0.82543 0.14413 0.13325 0.0
C2568 C 0.83463 0.15333 0.11737 0.0
H2569 H 0.85577 0.22616 0.21623 0.0
H2570 H 0.85137 0.20892 0.18806 0.0
C2571 C 0.83244 0.1438 0.10117 0.0
C2572 C 0.82689 0.1542 0.15021 0.0
H2573 H 0.81869 0.18635 0.16813 0.0
C2574 C 0.83399 0.15058 0.16587 0.0
C2575 C 0.82109 0.16709 0.15105 0.0
C2576 C 0.81253 0.17088 0.1349 0.0
C2577 C 0.83582 0.15981 0.18229 0.0
C2578 C 0.83016 0.17279 0.18307 0.0
C2579 C 0.823 0.17637 0.16744 0.0
C2580 C 0.83204 0.18317 0.19988 0.0
C2581 C 0.84419 0.15592 0.19854 0.0
C2582 C 0.82229 0.17442 0.21569 0.0
C2583 C 0.82479 0.18424 0.23175 0.0
C2584 C 0.83704 0.20292 0.23216 0.0
C2585 C 0.84634 0.21172 0.2162 0.0
C2586 C 0.84382 0.20193 0.20016 0.0
H2587 H 0.85129 0.1485 0.19462 0.0
H2588 H 0.85395 0.16867 0.20552 0.0
H2589 H 0.8334 0.14747 0.20844 0.0
H2590 H 0.81293 0.15998 0.21565 0.0
H2591 H 0.81753 0.1772 0.24395 0.0
H2592 H 0.81673 0.64031 0.2431 0.0
H2593 H 0.83355 0.65234 0.21451 0.0
H2594 H 0.78361 0.63741 0.18637 0.0
H2595 H 0.76686 0.62559 0.21497 0.0
H2596 H 0.8307 0.63598 0.18082 0.0
H2597 H 0.81456 0.69124 0.17489 0.0
H2598 H 0.81073 0.67834 0.19556 0.0
H2599 H 0.79505 0.66909 0.17689 0.0
C2600 C 0.80941 0.63949 0.23073 0.0
C2601 C 0.7906 0.63219 0.23111 0.0
C2602 C 0.81898 0.64638 0.21448 0.0
C2603 C 0.80985 0.64609 0.19843 0.0
C2604 C 0.79095 0.63816 0.1987 0.0
H2605 H 0.84366 0.68144 0.08709 0.0
H2606 H 0.82651 0.66876 0.1154 0.0
C2607 C 0.7814 0.63134 0.21495 0.0
C2608 C 0.82011 0.65418 0.18144 0.0
H2609 H 0.82932 0.68687 0.1496 0.0
C2610 C 0.83047 0.64715 0.17402 0.0
C2611 C 0.81978 0.66877 0.17265 0.0
C2612 C 0.80957 0.67744 0.18047 0.0
C2613 C 0.84029 0.65415 0.15783 0.0
C2614 C 0.83989 0.66868 0.14901 0.0
C2615 C 0.82953 0.6757 0.15641 0.0
C2616 C 0.85024 0.67684 0.13212 0.0
C2617 C 0.85077 0.64575 0.15009 0.0
C2618 C 0.86921 0.6859 0.13232 0.0
C2619 C 0.87895 0.69322 0.11626 0.0
C2620 C 0.86986 0.69159 0.09981 0.0
C2621 C 0.85091 0.68291 0.09968 0.0
C2622 C 0.84115 0.67563 0.11577 0.0
H2623 H 0.8464 0.63223 0.15611 0.0
H2624 H 0.84917 0.64433 0.13505 0.0
H2625 H 0.86536 0.65463 0.15313 0.0
H2626 H 0.87646 0.68726 0.14489 0.0
H2627 H 0.89359 0.70002 0.11663 0.0
H2628 H 0.15956 0.27953 0.38841 0.0
H2629 H 0.15565 0.29179 0.35952 0.0
H2630 H 0.19324 0.34587 0.37786 0.0
H2631 H 0.19699 0.33368 0.40678 0.0
H2632 H 0.15971 0.3406 0.362 0.0
H2633 H 0.19487 0.31431 0.31853 0.0
H2634 H 0.17741 0.29806 0.33319 0.0
H2635 H 0.19756 0.31629 0.34301 0.0
C2636 C 0.16687 0.29402 0.38625 0.0
C2637 C 0.17865 0.30569 0.39967 0.0
C2638 C 0.16475 0.30098 0.36976 0.0
C2639 C 0.17437 0.3197 0.36652 0.0
C2640 C 0.18583 0.33138 0.38009 0.0
H2641 H 0.17591 0.38847 0.27755 0.0
H2642 H 0.18166 0.37717 0.30612 0.0
C2643 C 0.188 0.32443 0.39652 0.0
C2644 C 0.17238 0.32715 0.34904 0.0
H2645 H 0.18072 0.32842 0.30339 0.0
C2646 C 0.16435 0.33802 0.34917 0.0
C2647 C 0.17847 0.32371 0.3324 0.0
C2648 C 0.1877 0.31258 0.33167 0.0
C2649 C 0.16185 0.34525 0.33296 0.0
C2650 C 0.16798 0.34185 0.31629 0.0
C2651 C 0.17609 0.33104 0.3162 0.0
C2652 C 0.16555 0.3489 0.2987 0.0
C2653 C 0.15222 0.35601 0.33379 0.0
C2654 C 0.15523 0.3368 0.28482 0.0
C2655 C 0.15221 0.34325 0.26847 0.0
C2656 C 0.15945 0.36188 0.26574 0.0
C2657 C 0.17023 0.37404 0.27938 0.0
C2658 C 0.17333 0.36759 0.29573 0.0
H2659 H 0.1444 0.35346 0.34663 0.0
H2660 H 0.16235 0.37065 0.3332 0.0
H2661 H 0.14285 0.35273 0.32207 0.0
H2662 H 0.14922 0.32235 0.28678 0.0
H2663 H 0.144 0.33365 0.25803 0.0
H2664 H 0.69337 0.89162 0.38523 0.0
H2665 H 0.68128 0.87496 0.35678 0.0
H2666 H 0.68123 0.82856 0.3803 0.0
H2667 H 0.69192 0.84477 0.40929 0.0
H2668 H 0.69359 0.86163 0.33319 0.0
H2669 H 0.63087 0.80481 0.36177 0.0
H2670 H 0.64549 0.82467 0.37493 0.0
H2671 H 0.65066 0.80673 0.3724 0.0
C2672 C 0.69051 0.87777 0.38438 0.0
C2673 C 0.69333 0.86938 0.39949 0.0
C2674 C 0.68374 0.8683 0.36809 0.0
C2675 C 0.67993 0.85034 0.36648 0.0
C2676 C 0.68349 0.84219 0.38136 0.0
H2677 H 0.66591 0.79802 0.26127 0.0
H2678 H 0.67752 0.81428 0.28993 0.0
C2679 C 0.6899 0.85155 0.39781 0.0
C2680 C 0.67247 0.84034 0.34914 0.0
H2681 H 0.63826 0.80119 0.3313 0.0
C2682 C 0.68142 0.84845 0.33278 0.0
C2683 C 0.65638 0.82331 0.34852 0.0
C2684 C 0.64519 0.81447 0.36532 0.0
C2685 C 0.67485 0.83998 0.31588 0.0
C2686 C 0.65933 0.82251 0.31536 0.0
C2687 C 0.65027 0.81448 0.33169 0.0
C2688 C 0.6522 0.81232 0.29806 0.0
C2689 C 0.68439 0.85013 0.29878 0.0
C2690 C 0.6339 0.80507 0.2934 0.0
C2691 C 0.62706 0.79512 0.27734 0.0
C2692 C 0.63844 0.79239 0.26556 0.0
C2693 C 0.65674 0.79969 0.2702 0.0
C2694 C 0.66349 0.8093 0.28643 0.0
H2695 H 0.69164 0.86499 0.30104 0.0
H2696 H 0.69461 0.84635 0.29479 0.0
H2697 H 0.67476 0.84691 0.28731 0.0
H2698 H 0.62488 0.8071 0.30222 0.0
H2699 H 0.61283 0.78941 0.27424 0.0
H2700 H 0.10305 0.80442 0.38238 0.0
H2701 H 0.12018 0.80905 0.35409 0.0
H2702 H 0.1693 0.84691 0.38186 0.0
H2703 H 0.1522 0.84197 0.41027 0.0
H2704 H 0.14182 0.841 0.33439 0.0
H2705 H 0.18173 0.81023 0.35965 0.0
H2706 H 0.16182 0.8074 0.37125 0.0
H2707 H 0.18301 0.8281 0.37366 0.0
C2708 C 0.11751 0.81373 0.38237 0.0
C2709 C 0.12639 0.8228 0.39841 0.0
C2710 C 0.12725 0.81638 0.36626 0.0
C2711 C 0.14603 0.82809 0.36598 0.0
C2712 C 0.15486 0.83756 0.38189 0.0
H2713 H 0.22808 0.86113 0.2821 0.0
H2714 H 0.21116 0.85642 0.31057 0.0
C2715 C 0.1451 0.83489 0.39802 0.0
C2716 C 0.15634 0.83035 0.349 0.0
H2717 H 0.18962 0.8242 0.33057 0.0
C2718 C 0.15223 0.83728 0.33351 0.0
C2719 C 0.16988 0.82545 0.34794 0.0
C2720 C 0.17431 0.81723 0.36394 0.0
C2721 C 0.16155 0.83974 0.31703 0.0
C2722 C 0.17508 0.83483 0.31597 0.0
C2723 C 0.1792 0.82792 0.33146 0.0
C2724 C 0.18531 0.83703 0.29895 0.0
C2725 C 0.15709 0.84792 0.30101 0.0
C2726 C 0.17642 0.82736 0.28316 0.0
C2727 C 0.18605 0.83007 0.26693 0.0
C2728 C 0.20468 0.84243 0.26633 0.0
C2729 C 0.21366 0.85165 0.28227 0.0
C2730 C 0.20404 0.84894 0.29848 0.0
H2731 H 0.14959 0.85484 0.30527 0.0
H2732 H 0.16958 0.8578 0.29374 0.0
H2733 H 0.14848 0.83704 0.29126 0.0
H2734 H 0.16201 0.81786 0.28334 0.0
H2735 H 0.17888 0.82283 0.25476 0.0
H2736 H 0.61051 0.82515 0.7777 0.0
H2737 H 0.62175 0.8194 0.80633 0.0
H2738 H 0.67666 0.85392 0.78821 0.0
H2739 H 0.66546 0.85933 0.75948 0.0
H2740 H 0.67003 0.82071 0.80332 0.0
H2741 H 0.64518 0.85616 0.8482 0.0
H2742 H 0.62834 0.839 0.83375 0.0
H2743 H 0.6467 0.85895 0.82374 0.0
C2744 C 0.62496 0.83137 0.77984 0.0
C2745 C 0.63716 0.84271 0.76652 0.0
C2746 C 0.63136 0.82822 0.79621 0.0
C2747 C 0.65003 0.83647 0.79946 0.0
C2748 C 0.66221 0.84754 0.78599 0.0
H2749 H 0.71872 0.83734 0.88751 0.0
H2750 H 0.70676 0.84229 0.85896 0.0
C2751 C 0.65582 0.85067 0.76966 0.0
C2752 C 0.65698 0.83351 0.81684 0.0
H2753 H 0.65825 0.84068 0.86275 0.0
C2754 C 0.6675 0.82509 0.81633 0.0
C2755 C 0.65363 0.83927 0.83374 0.0
C2756 C 0.64298 0.84899 0.83498 0.0
C2757 C 0.67459 0.82206 0.83234 0.0
C2758 C 0.67133 0.82791 0.84923 0.0
C2759 C 0.66074 0.83625 0.84976 0.0
C2760 C 0.67866 0.82536 0.86656 0.0
C2761 C 0.68522 0.81231 0.83109 0.0
C2762 C 0.66682 0.81466 0.88044 0.0
C2763 C 0.67363 0.812 0.89674 0.0
C2764 C 0.69236 0.82007 0.89945 0.0
C2765 C 0.70422 0.83104 0.88571 0.0
C2766 C 0.69741 0.83372 0.86939 0.0
H2767 H 0.68267 0.80482 0.81803 0.0
H2768 H 0.69988 0.82234 0.83186 0.0
H2769 H 0.6818 0.80263 0.84255 0.0
H2770 H 0.65232 0.8082 0.87856 0.0
H2771 H 0.66425 0.80362 0.90724 0.0
H2772 H 0.15565 0.87793 0.88784 0.0
H2773 H 0.14966 0.86071 0.85933 0.0
H2774 H 0.17969 0.83609 0.87977 0.0
H2775 H 0.18524 0.85288 0.90838 0.0
H2776 H 0.17538 0.86241 0.83499 0.0
H2777 H 0.13333 0.79257 0.86133 0.0
H2778 H 0.13769 0.81227 0.87439 0.0
H2779 H 0.15443 0.80539 0.87315 0.0
C2780 C 0.16066 0.86859 0.88629 0.0
C2781 C 0.17084 0.86663 0.90021 0.0
C2782 C 0.15733 0.85885 0.87003 0.0
C2783 C 0.16404 0.84695 0.86754 0.0
C2784 C 0.17408 0.84491 0.88154 0.0
H2785 H 0.16805 0.78281 0.77764 0.0
H2786 H 0.17238 0.79915 0.80651 0.0
C2787 C 0.17737 0.8546 0.89778 0.0
C2788 C 0.16139 0.83741 0.84995 0.0
H2789 H 0.14441 0.79547 0.83096 0.0
C2790 C 0.16848 0.84777 0.83407 0.0
C2791 C 0.15246 0.81831 0.84883 0.0
C2792 C 0.14389 0.80646 0.8653 0.0
C2793 C 0.1672 0.83956 0.81713 0.0
C2794 C 0.15839 0.82049 0.81604 0.0
C2795 C 0.15124 0.81011 0.83189 0.0
C2796 C 0.15619 0.81103 0.7985 0.0
C2797 C 0.17562 0.85136 0.80059 0.0
C2798 C 0.1456 0.81227 0.78456 0.0
C2799 C 0.14318 0.80303 0.76816 0.0
C2800 C 0.15126 0.79237 0.76545 0.0
C2801 C 0.16187 0.79113 0.77938 0.0
C2802 C 0.16425 0.80034 0.79584 0.0
H2803 H 0.18552 0.86553 0.80443 0.0
H2804 H 0.18255 0.84598 0.79196 0.0
H2805 H 0.16484 0.85154 0.79228 0.0
H2806 H 0.13904 0.82022 0.78646 0.0
H2807 H 0.13497 0.8042 0.75756 0.0
H2808 H 0.19379 0.33238 0.76017 0.0
H2809 H 0.17734 0.32122 0.78899 0.0
H2810 H 0.19729 0.37615 0.80681 0.0
H2811 H 0.21391 0.38736 0.778 0.0
H2812 H 0.19198 0.32879 0.82485 0.0
H2813 H 0.14199 0.35159 0.8142 0.0
H2814 H 0.15521 0.35003 0.7958 0.0
H2815 H 0.16527 0.36877 0.81137 0.0
C2816 C 0.19467 0.34204 0.77028 0.0
C2817 C 0.20502 0.3607 0.76692 0.0
C2818 C 0.18525 0.33567 0.78667 0.0
C2819 C 0.18594 0.34786 0.79991 0.0
C2820 C 0.19633 0.36653 0.79661 0.0
H2821 H 0.13739 0.33441 0.90684 0.0
H2822 H 0.15473 0.34618 0.8786 0.0
C2823 C 0.20578 0.37291 0.7802 0.0
C2824 C 0.17609 0.34097 0.81732 0.0
H2825 H 0.14198 0.33925 0.8431 0.0
C2826 C 0.18102 0.33102 0.82885 0.0
C2827 C 0.16184 0.34396 0.82246 0.0
C2828 C 0.15561 0.35404 0.81027 0.0
C2829 C 0.1722 0.32417 0.84557 0.0
C2830 C 0.15786 0.32706 0.85066 0.0
C2831 C 0.15299 0.33706 0.83914 0.0
C2832 C 0.14772 0.31984 0.8679 0.0
C2833 C 0.17857 0.31423 0.85778 0.0
C2834 C 0.13795 0.30113 0.87118 0.0
C2835 C 0.12804 0.2944 0.88728 0.0
C2836 C 0.12762 0.30629 0.90025 0.0
C2837 C 0.13738 0.32499 0.89695 0.0
C2838 C 0.14731 0.33171 0.88089 0.0
H2839 H 0.19251 0.31737 0.85427 0.0
H2840 H 0.1783 0.31768 0.87233 0.0
H2841 H 0.16944 0.29945 0.85611 0.0
H2842 H 0.13776 0.29172 0.86115 0.0
H2843 H 0.12043 0.27992 0.88946 0.0
H2844 H 0.8617 0.66748 0.73944 0.0
H2845 H 0.8563 0.67927 0.7111 0.0
H2846 H 0.8194 0.62478 0.69327 0.0
H2847 H 0.82472 0.61297 0.72169 0.0
H2848 H 0.86269 0.67283 0.67583 0.0
H2849 H 0.78991 0.6498 0.68575 0.0
H2850 H 0.80423 0.6501 0.70404 0.0
H2851 H 0.79524 0.63201 0.68764 0.0
C2852 C 0.85243 0.65806 0.72944 0.0
C2853 C 0.8436 0.63935 0.73266 0.0
C2854 C 0.84932 0.66479 0.71332 0.0
C2855 C 0.83727 0.65292 0.7002 0.0
C2856 C 0.82844 0.63419 0.7034 0.0
H2857 H 0.80505 0.66439 0.59162 0.0
H2858 H 0.81055 0.65366 0.62062 0.0
C2859 C 0.83151 0.62746 0.71956 0.0
C2860 C 0.83447 0.66013 0.68289 0.0
H2861 H 0.80212 0.66114 0.65636 0.0
C2862 C 0.84948 0.67039 0.67161 0.0
C2863 C 0.8172 0.65692 0.67747 0.0
C2864 C 0.80075 0.64675 0.68942 0.0
C2865 C 0.84762 0.6772 0.65483 0.0
C2866 C 0.83034 0.67381 0.64933 0.0
C2867 C 0.81534 0.66365 0.66064 0.0
C2868 C 0.82745 0.68046 0.63174 0.0
C2869 C 0.86406 0.6876 0.64291 0.0
C2870 C 0.83508 0.69908 0.62848 0.0
C2871 C 0.83187 0.70521 0.61198 0.0
C2872 C 0.82096 0.6928 0.59856 0.0
C2873 C 0.81341 0.67419 0.60183 0.0
C2874 C 0.81657 0.66807 0.61832 0.0
H2875 H 0.87548 0.68572 0.64727 0.0
H2876 H 0.86081 0.68335 0.62844 0.0
H2877 H 0.86858 0.70224 0.64372 0.0
H2878 H 0.84327 0.70883 0.6388 0.0
H2879 H 0.83762 0.71961 0.60982 0.0
H2880 H 0.36282 0.18037 0.74155 0.0
H2881 H 0.35329 0.16397 0.71254 0.0
H2882 H 0.35109 0.20895 0.68834 0.0
H2883 H 0.36187 0.22579 0.71687 0.0
H2884 H 0.32295 0.15221 0.69508 0.0
H2885 H 0.37766 0.19964 0.64942 0.0
H2886 H 0.37917 0.20212 0.67388 0.0
H2887 H 0.36718 0.21064 0.66073 0.0
C2888 C 0.36074 0.18689 0.72987 0.0
C2889 C 0.36309 0.20432 0.73139 0.0
C2890 C 0.35515 0.17747 0.71336 0.0
C2891 C 0.35171 0.18531 0.69814 0.0
C2892 C 0.35412 0.20277 0.69969 0.0
H2893 H 0.28093 0.12338 0.60845 0.0
H2894 H 0.29401 0.1407 0.63644 0.0
C2895 C 0.36001 0.21229 0.71608 0.0
C2896 C 0.34459 0.17484 0.68099 0.0
H2897 H 0.35043 0.17729 0.63482 0.0
C2898 C 0.32908 0.15762 0.68192 0.0
C2899 C 0.35271 0.18176 0.66382 0.0
C2900 C 0.37021 0.19947 0.66192 0.0
C2901 C 0.32127 0.14729 0.66616 0.0
C2902 C 0.32877 0.15467 0.6489 0.0
C2903 C 0.34449 0.17173 0.64801 0.0
C2904 C 0.32084 0.14477 0.63162 0.0
C2905 C 0.30532 0.12842 0.66829 0.0
C2906 C 0.33174 0.14208 0.61913 0.0
C2907 C 0.32443 0.13276 0.60287 0.0
C2908 C 0.30602 0.12571 0.59887 0.0
C2909 C 0.29517 0.12868 0.61118 0.0
C2910 C 0.30257 0.13832 0.62732 0.0
H2911 H 0.30503 0.12285 0.68206 0.0
H2912 H 0.29262 0.12883 0.66658 0.0
H2913 H 0.3056 0.11906 0.65794 0.0
H2914 H 0.34591 0.1471 0.62202 0.0
H2915 H 0.33323 0.13109 0.59342 0.0
H2916 H 0.87935 0.1581 0.60866 0.0
H2917 H 0.86274 0.15229 0.63754 0.0
H2918 H 0.8424 0.18714 0.62035 0.0
H2919 H 0.85852 0.19252 0.59134 0.0
H2920 H 0.8665 0.17748 0.66384 0.0
H2921 H 0.79657 0.14151 0.63644 0.0
H2922 H 0.8159 0.14509 0.62316 0.0
H2923 H 0.81083 0.16304 0.62586 0.0
C2924 C 0.8711 0.16427 0.61101 0.0
C2925 C 0.87008 0.17566 0.59784 0.0
C2926 C 0.86173 0.16104 0.62749 0.0
C2927 C 0.85115 0.16908 0.63095 0.0
C2928 C 0.85019 0.18051 0.61779 0.0
H2929 H 0.78917 0.17349 0.72233 0.0
H2930 H 0.80576 0.17826 0.69361 0.0
C2931 C 0.85952 0.18371 0.60133 0.0
C2932 C 0.84163 0.16609 0.6486 0.0
H2933 H 0.79993 0.1508 0.66749 0.0
C2934 C 0.85194 0.17152 0.66468 0.0
C2935 C 0.82264 0.15835 0.6496 0.0
C2936 C 0.8108 0.1515 0.63287 0.0
C2937 C 0.84377 0.16979 0.68174 0.0
C2938 C 0.8248 0.16222 0.6827 0.0
C2939 C 0.81449 0.15669 0.66665 0.0
C2940 C 0.81535 0.15979 0.70027 0.0
C2941 C 0.85552 0.17643 0.69855 0.0
C2942 C 0.81525 0.1478 0.71343 0.0
C2943 C 0.80585 0.14512 0.72978 0.0
C2944 C 0.79637 0.15434 0.73318 0.0
C2945 C 0.79654 0.16638 0.72005 0.0
C2946 C 0.8059 0.16903 0.70366 0.0
H2947 H 0.86997 0.18561 0.69507 0.0
H2948 H 0.85096 0.18368 0.70779 0.0
H2949 H 0.85448 0.16467 0.70607 0.0
H2950 H 0.82224 0.14036 0.71094 0.0
H2951 H 0.80596 0.13583 0.73977 0.0
H2952 H -0.00157 0.47132 0.57293 0.0
H2953 H 0.98691 0.47647 0.54427 0.0
H2954 H 0.04161 0.51223 0.52626 0.0
H2955 H 0.05317 0.50673 0.55479 0.0
H2956 H 0.9923 0.50902 0.52913 0.0
H2957 H 0.01938 0.47557 0.48432 0.0
H2958 H 0.01796 0.4728 0.50878 0.0
H2959 H 0.03587 0.49306 0.49874 0.0
C2960 C 0.00796 0.48019 0.56278 0.0
C2961 C 0.02665 0.48851 0.5659 0.0
C2962 C 0.00139 0.48318 0.54649 0.0
C2963 C 0.01342 0.49449 0.53305 0.0
C2964 C 0.03212 0.50319 0.53634 0.0
H2965 H -0.00065 0.52812 0.42585 0.0
H2966 H 0.01105 0.52338 0.45461 0.0
C2967 C 0.0387 0.50018 0.55265 0.0
C2968 C 0.00631 0.49718 0.51565 0.0
H2969 H 0.00584 0.49059 0.46968 0.0
C2970 C 0.9952 0.50495 0.51612 0.0
C2971 C 0.01012 0.49181 0.49874 0.0
C2972 C 0.02135 0.4827 0.49753 0.0
C2973 C 0.98802 0.50778 0.50006 0.0
C2974 C 0.99183 0.50242 0.48317 0.0
C2975 C 0.00295 0.49466 0.48269 0.0
C2976 C 0.98463 0.50499 0.46577 0.0
C2977 C 0.97673 0.51683 0.50126 0.0
C2978 C 0.96593 0.49598 0.46246 0.0
C2979 C 0.95924 0.49873 0.44609 0.0
C2980 C 0.97119 0.51047 0.43282 0.0
C2981 C 0.98989 0.51918 0.43601 0.0
C2982 C 0.99657 0.51643 0.45235 0.0
H2983 H 0.97859 0.52388 0.5145 0.0
H2984 H 0.98016 0.52678 0.49005 0.0
H2985 H 0.96222 0.50644 0.49994 0.0
H2986 H 0.95652 0.48686 0.47254 0.0
H2987 H 0.94476 0.4919 0.4439 0.0
H2988 H 0.52536 0.52589 0.5723 0.0
H2989 H 0.51982 0.5093 0.54354 0.0
H2990 H 0.48465 0.52914 0.52602 0.0
H2991 H 0.49053 0.54612 0.55465 0.0
H2992 H 0.48665 0.48249 0.52866 0.0
H2993 H 0.52095 0.54284 0.48373 0.0
H2994 H 0.524 0.54414 0.50816 0.0
H2995 H 0.50386 0.54235 0.49841 0.0
C2996 C 0.51654 0.52677 0.56224 0.0
C2997 C 0.50844 0.53732 0.56555 0.0
C2998 C 0.51333 0.51725 0.54589 0.0
C2999 C 0.50204 0.51821 0.53257 0.0
C3000 C 0.49365 0.52848 0.53601 0.0
H3001 H 0.46774 0.4712 0.42499 0.0
H3002 H 0.47251 0.48746 0.45387 0.0
C3003 C 0.49687 0.53801 0.55238 0.0
C3004 C 0.49899 0.50834 0.51516 0.0
H3005 H 0.5053 0.5143 0.46915 0.0
C3006 C 0.49076 0.48942 0.51564 0.0
C3007 C 0.50439 0.51746 0.49824 0.0
C3008 C 0.51393 0.53783 0.49702 0.0
C3009 C 0.48753 0.47932 0.49957 0.0
C3010 C 0.49297 0.48845 0.48265 0.0
C3011 C 0.50116 0.50737 0.48217 0.0
C3012 C 0.49019 0.47861 0.46526 0.0
C3013 C 0.478 0.45896 0.5008 0.0
C3014 C 0.49874 0.46846 0.46204 0.0
C3015 C 0.49596 0.45912 0.44561 0.0
C3016 C 0.48467 0.45989 0.43215 0.0
C3017 C 0.47635 0.47026 0.43528 0.0
C3018 C 0.47912 0.47959 0.45169 0.0
H3019 H 0.47082 0.45394 0.514 0.0
H3020 H 0.46809 0.45262 0.48953 0.0
H3021 H 0.48812 0.45447 0.49964 0.0
H3022 H 0.50759 0.4678 0.47222 0.0
H3023 H 0.50246 0.45114 0.44349 0.0
H3024 H 0.54154 0.05061 0.44337 0.0
H3025 H 0.5249 0.03974 0.47222 0.0
H3026 H 0.50571 0.98463 0.45551 0.0
H3027 H 0.52198 0.99544 0.42655 0.0
H3028 H 0.47877 0.99069 0.47088 0.0
H3029 H 0.54027 0.01825 0.51434 0.0
H3030 H 0.53909 0.03441 0.49953 0.0
H3031 H 0.54101 0.01609 0.4899 0.0
C3032 C 0.53362 0.03619 0.44585 0.0
C3033 C 0.53309 0.02383 0.43289 0.0
C3034 C 0.52429 0.03001 0.46234 0.0
C3035 C 0.51435 0.0114 0.46608 0.0
C3036 C 0.51342 -0.00096 0.45292 0.0
H3037 H 0.44969 0.94457 0.55679 0.0
H3038 H 0.46577 0.95581 0.52772 0.0
C3039 C 0.52275 0.00522 0.43646 0.0
C3040 C 0.50492 0.00472 0.48374 0.0
H3041 H 0.51208 0.00502 0.52958 0.0
C3042 C 0.48602 0.99377 0.48372 0.0
C3043 C 0.51447 0.00878 0.50043 0.0
C3044 C 0.53484 0.0199 0.50114 0.0
C3045 C 0.47636 0.98697 0.50004 0.0
C3046 C 0.48592 0.99098 0.51673 0.0
C3047 C 0.50481 0.00197 0.51674 0.0
C3048 C 0.47654 0.98408 0.53438 0.0
C3049 C 0.45599 0.97587 0.49931 0.0
C3050 C 0.47774 0.99627 0.54789 0.0
C3051 C 0.46875 0.98988 0.56449 0.0
C3052 C 0.45851 0.97122 0.56787 0.0
C3053 C 0.45758 0.95903 0.55449 0.0
C3054 C 0.46659 0.96542 0.53786 0.0
H3055 H 0.45057 0.9778 0.48624 0.0
H3056 H 0.45175 0.96133 0.50055 0.0
H3057 H 0.44981 0.97944 0.51074 0.0
H3058 H 0.48546 0.01072 0.5455 0.0
H3059 H 0.46979 -0.00047 0.5747 0.0
H3060 H 0.53031 0.00025 0.07288 0.0
H3061 H 0.52606 0.01247 0.04424 0.0
H3062 H 0.48804 0.95842 0.02616 0.0
H3063 H 0.49232 0.94615 0.0548 0.0
H3064 H 0.53222 0.00481 0.00848 0.0
H3065 H 0.46045 0.98595 0.01895 0.0
H3066 H 0.47462 0.98603 0.03727 0.0
H3067 H 0.46489 0.96757 0.02133 0.0
C3068 C 0.52107 0.99101 0.06276 0.0
C3069 C 0.51158 0.97229 0.066 0.0
C3070 C 0.51863 0.99799 0.04647 0.0
C3071 C 0.50658 0.98637 0.0332 0.0
C3072 C 0.49712 0.96764 0.03639 0.0
H3073 H 0.47363 0.00173 0.92614 0.0
H3074 H 0.47886 0.98962 0.95434 0.0
C3075 C 0.49957 0.96065 0.0527 0.0
C3076 C 0.50425 0.99385 0.01586 0.0
H3077 H 0.47304 0.99745 0.98984 0.0
C3078 C 0.51931 0.00328 0.00441 0.0
C3079 C 0.48738 0.9918 0.01063 0.0
C3080 C 0.47093 0.98243 0.02273 0.0
C3081 C 0.51788 0.01045 0.98768 0.0
C3082 C 0.501 0.00838 0.98244 0.0
C3083 C 0.48595 -0.00103 0.9939 0.0
C3084 C 0.49857 0.01579 0.96509 0.0
C3085 C 0.53432 0.01983 0.97556 0.0
C3086 C 0.50793 0.03451 0.96181 0.0
C3087 C 0.50491 0.04143 0.94574 0.0
C3088 C 0.49239 0.02974 0.93282 0.0
C3089 C 0.4832 0.01102 0.93602 0.0
C3090 C 0.48622 0.0041 0.95206 0.0
H3091 H 0.54479 0.01631 0.97933 0.0
H3092 H 0.53062 0.01625 0.96102 0.0
H3093 H 0.54036 0.03469 0.97699 0.0
H3094 H 0.51727 0.04378 0.97185 0.0
H3095 H 0.51202 0.05593 0.94361 0.0
H3096 H 0.00047 0.474 0.924 0.0
H3097 H 0.01224 0.49015 0.95289 0.0
H3098 H 0.9577 0.4687 0.97268 0.0
H3099 H 0.94591 0.45218 0.9439 0.0
H3100 H 0.00575 0.51605 0.96971 0.0
H3101 H 0.98231 0.45472 0.01268 0.0
H3102 H 0.98325 0.45409 0.98811 0.0
H3103 H 0.96497 0.45511 0.99913 0.0
C3104 C 0.99104 0.47272 0.93457 0.0
C3105 C 0.97233 0.46184 0.93186 0.0
C3106 C 0.99774 0.48197 0.95099 0.0
C3107 C 0.98584 0.48038 0.96499 0.0
C3108 C 0.96711 0.46983 0.96215 0.0
H3109 H -0.00104 0.52464 0.07355 0.0
H3110 H 0.98776 0.50855 0.04456 0.0
C3111 C 0.96039 0.46057 0.9457 0.0
C3112 C 0.99309 0.48986 0.98253 0.0
H3113 H 0.99478 0.48282 0.02814 0.0
C3114 C 0.00343 0.50882 0.98249 0.0
C3115 C 0.99004 0.48033 0.99913 0.0
C3116 C 0.97968 0.45993 -0.00016 0.0
C3117 C 0.01052 0.51855 0.99872 0.0
C3118 C 0.00742 0.50902 0.01533 0.0
C3119 C 0.99713 0.49006 0.01536 0.0
C3120 C 0.01437 0.5185 0.03292 0.0
C3121 C 0.02088 0.53895 0.99802 0.0
C3122 C 0.03305 0.52916 0.03606 0.0
C3123 C 0.03945 0.5384 0.05258 0.0
C3124 C 0.02725 0.537 0.06618 0.0
C3125 C 0.0086 0.52602 0.06316 0.0
C3126 C 0.00221 0.5168 0.04668 0.0
H3127 H 0.01843 0.54417 0.98508 0.0
H3128 H 0.01713 0.54477 0.00963 0.0
H3129 H 0.03558 0.54379 0.99898 0.0
H3130 H 0.04265 0.53039 0.02571 0.0
H3131 H 0.05389 0.54687 0.0546 0.0
H3132 H 0.48645 0.50726 0.07622 0.0
H3133 H 0.5034 0.51249 0.04764 0.0
H3134 H 0.45366 0.47735 0.01926 0.0
H3135 H 0.43672 0.47242 0.04772 0.0
H3136 H 0.50461 0.48574 0.02627 0.0
H3137 H 0.4775 0.52249 0.98682 0.0
H3138 H 0.47516 0.5198 0.01127 0.0
H3139 H 0.46044 0.5015 0.99648 0.0
C3140 C 0.47918 0.50094 0.06377 0.0
C3141 C 0.46036 0.48952 0.06401 0.0
C3142 C 0.48883 0.50384 0.04754 0.0
C3143 C 0.47974 0.49546 0.03133 0.0
C3144 C 0.46089 0.4842 0.03155 0.0
H3145 H 0.5124 0.48986 0.92059 0.0
H3146 H 0.49577 0.48495 0.94934 0.0
C3147 C 0.45126 0.4813 0.04777 0.0
C3148 C 0.49004 0.49776 0.01436 0.0
H3149 H 0.49485 0.51248 0.97034 0.0
C3150 C 0.50259 0.49169 0.01406 0.0
C3151 C 0.48727 0.50545 0.99847 0.0
C3152 C 0.47449 0.51284 0.99825 0.0
C3153 C 0.51223 0.49282 0.99816 0.0
C3154 C 0.50941 0.50045 0.98226 0.0
C3155 C 0.49689 0.50656 0.98256 0.0
C3156 C 0.51955 0.50256 0.96523 0.0
C3157 C 0.52508 0.48551 0.99838 0.0
C3158 C 0.53837 0.51403 0.96473 0.0
C3159 C 0.54781 0.51677 0.94841 0.0
C3160 C 0.53856 0.50817 0.93235 0.0
C3161 C 0.51978 0.4965 0.93289 0.0
C3162 C 0.51031 0.49378 0.94921 0.0
H3163 H 0.52234 0.47613 0.01 0.0
H3164 H 0.52417 0.47828 0.98548 0.0
H3165 H 0.53914 0.49693 -0.00025 0.0
H3166 H 0.54569 0.52115 0.97688 0.0
H3167 H 0.56232 0.52581 0.94825 0.0
H3168 H 0.21943 0.08027 0.04205 0.0
H3169 H 0.21308 0.05098 0.02969 0.0
H3170 H 0.24572 0.07773 0.9825 0.0
H3171 H 0.25177 0.10695 0.99455 0.0
H3172 H 0.2112 0.04713 0.97463 0.0
H3173 H 0.2492 0.03193 0.02649 0.0
H3174 H 0.23337 0.03792 0.03565 0.0
H3175 H 0.25265 0.05439 0.02304 0.0
C3176 C 0.22535 0.07989 0.02911 0.0
C3177 C 0.2365 0.09593 0.01951 0.0
C3178 C 0.22178 0.0632 0.02211 0.0
C3179 C 0.22921 0.06227 0.00536 0.0
C3180 C 0.24007 0.07822 0.99558 0.0
H3181 H 0.23026 0.96722 0.96438 0.0
H3182 H 0.23853 0.99815 0.97266 0.0
C3183 C 0.2437 0.09492 0.0026 0.0
C3184 C 0.22527 0.04459 0.99782 0.0
H3185 H 0.23043 0.00813 0.00627 0.0
C3186 C 0.21547 0.03861 0.98147 0.0
C3187 C 0.23106 0.03367 0.00669 0.0
C3188 C 0.24229 0.03982 0.02386 0.0
C3189 C 0.21091 0.02172 0.97397 0.0
C3190 C 0.21616 0.01053 0.98319 0.0
C3191 C 0.22633 0.01672 -0.0007 0.0
C3192 C 0.21098 0.99218 0.9766 0.0
C3193 C 0.20062 0.01604 0.95621 0.0
C3194 C 0.19272 0.97862 0.97594 0.0
C3195 C 0.18792 0.96091 0.97122 0.0
C3196 C 0.20131 0.95642 0.96716 0.0
C3197 C 0.21958 0.97018 0.9674 0.0
C3198 C 0.22436 0.98787 0.97215 0.0
H3199 H 0.20175 0.02782 0.94859 0.0
H3200 H 0.20558 0.00886 0.9474 0.0
H3201 H 0.18609 0.00667 0.9591 0.0
H3202 H 0.1822 0.98161 0.97963 0.0
H3203 H 0.17373 0.95067 0.97122 0.0
H3204 H 0.89084 0.14211 0.99596 0.0
H3205 H 0.92071 0.1642 0.98431 0.0
H3206 H 0.94539 0.15847 0.03328 0.0
H3207 H 0.91545 0.13658 0.04521 0.0
H3208 H 0.95759 0.1952 0.02199 0.0
H3209 H 0.95988 0.15233 0.96615 0.0
H3210 H 0.93987 0.15429 0.96685 0.0
H3211 H 0.9444 0.14312 0.98513 0.0
C3212 C 0.90257 0.14581 0.00442 0.0
C3213 C 0.9008 0.13793 0.02168 0.0
C3214 C 0.91964 0.15821 0.99761 0.0
C3215 C 0.93521 0.16282 0.00789 0.0
C3216 C 0.9335 0.15503 0.02514 0.0
H3217 H 0.04818 0.2229 0.97584 0.0
H3218 H 0.01797 0.19952 0.98551 0.0
C3219 C 0.91643 0.14255 0.03192 0.0
C3220 C 0.9533 0.17602 0.00078 0.0
H3221 H 0.98348 0.18297 0.96682 0.0
C3222 C 0.96329 0.19254 0.00995 0.0
C3223 C 0.9607 0.17237 0.98519 0.0
C3224 C 0.95077 0.15452 0.97529 0.0
C3225 C 0.98043 0.20569 0.00376 0.0
C3226 C 0.98764 0.20225 0.98787 0.0
C3227 C 0.9778 0.1856 0.97888 0.0
C3228 C 0.0055 0.21581 0.98056 0.0
C3229 C 0.9908 0.22307 0.01437 0.0
C3230 C 0.00829 0.23246 0.97406 0.0
C3231 C 0.02549 0.24583 0.96852 0.0
C3232 C 0.04023 0.24278 0.96934 0.0
C3233 C 0.03717 0.22574 0.9751 0.0
C3234 C 0.01993 0.21236 0.98063 0.0
H3235 H 0.98529 0.22189 0.02835 0.0
H3236 H 0.00532 0.22712 0.01541 0.0
H3237 H 0.98987 0.23402 0.00718 0.0
H3238 H 0.99722 0.23523 0.97361 0.0
H3239 H 0.0273 0.25872 0.96403 0.0
H3240 H 0.73932 0.76813 0.96876 0.0
H3241 H 0.76346 0.76237 0.97797 0.0
H3242 H 0.80168 0.81963 0.97689 0.0
H3243 H 0.77754 0.82561 0.96807 0.0
H3244 H 0.79593 0.77032 0.96231 0.0
H3245 H 0.80688 0.80578 0.0287 0.0
H3246 H 0.78764 0.80025 0.01434 0.0
H3247 H 0.80936 0.81942 0.00908 0.0
C3248 C 0.75288 0.77952 0.97034 0.0
C3249 C 0.75645 0.79736 0.96789 0.0
C3250 C 0.76666 0.77619 0.9756 0.0
C3251 C 0.78425 0.79059 0.97849 0.0
C3252 C 0.78808 0.80835 0.97518 0.0
H3253 H 0.88058 0.79051 0.0184 0.0
H3254 H 0.85968 0.79935 0.00525 0.0
C3255 C 0.77428 0.81173 0.97003 0.0
C3256 C 0.79839 0.78694 0.98546 0.0
H3257 H 0.82636 0.79441 0.02176 0.0
C3258 C 0.80262 0.77561 0.97529 0.0
C3259 C 0.80704 0.79384 0.00243 0.0
C3260 C 0.80242 0.80537 0.01438 0.0
C3261 C 0.81527 0.77098 0.98165 0.0
C3262 C 0.82376 0.77774 0.99866 0.0
C3263 C 0.8198 0.78931 0.00869 0.0
C3264 C 0.83634 0.77245 0.00659 0.0
C3265 C 0.81952 0.75892 0.97014 0.0
C3266 C 0.82996 0.75452 0.01208 0.0
C3267 C 0.8418 0.7495 0.01969 0.0
C3268 C 0.86023 0.76229 0.02172 0.0
C3269 C 0.86647 0.78035 0.01673 0.0
C3270 C 0.8546 0.78539 0.0092 0.0
H3271 H 0.81501 0.7582 0.95579 0.0
H3272 H 0.83427 0.7638 0.97023 0.0
H3273 H 0.81245 0.74503 0.97587 0.0
H3274 H 0.81579 0.74446 0.01062 0.0
H3275 H 0.83651 0.73566 0.02416 0.0
H3276 H 0.94845 0.17184 0.52469 0.0
H3277 H 0.97872 0.17795 0.5164 0.0
H3278 H -0.00075 0.23518 0.52283 0.0
H3279 H 0.96915 0.22925 0.53138 0.0
H3280 H -0.0018 0.19801 0.48668 0.0
H3281 H 0.03649 0.22788 0.55047 0.0
H3282 H 0.01208 0.21531 0.54975 0.0
H3283 H 0.02422 0.23859 0.54264 0.0
C3284 C 0.95944 0.18572 0.52461 0.0
C3285 C 0.95635 0.20007 0.52869 0.0
C3286 C 0.97673 0.18917 0.51985 0.0
C3287 C 0.99125 0.20699 0.5192 0.0
C3288 C 0.98831 0.2213 0.52362 0.0
H3289 H 0.10049 0.2623 0.47899 0.0
H3290 H 0.07056 0.25324 0.49156 0.0
C3291 C 0.97105 0.21788 0.52841 0.0
C3292 C 0.00917 0.21072 0.51256 0.0
H3293 H 0.05399 0.23192 0.52362 0.0
C3294 C 0.01038 0.20524 0.49482 0.0
C3295 C 0.02501 0.2202 0.52321 0.0
C3296 C 0.02442 0.22569 0.54264 0.0
C3297 C 0.02712 0.20948 0.48721 0.0
C3298 C 0.04299 0.21923 0.49774 0.0
C3299 C 0.04177 0.22448 0.51558 0.0
C3300 C 0.06107 0.22454 0.49032 0.0
C3301 C 0.02776 0.204 0.46777 0.0
C3302 C 0.0656 0.21138 0.48553 0.0
C3303 C 0.08272 0.21653 0.47849 0.0
C3304 C 0.09562 0.23492 0.47641 0.0
C3305 C 0.09098 0.24805 0.48103 0.0
C3306 C 0.07388 0.2429 0.48807 0.0
H3307 H 0.01499 0.20012 0.46033 0.0
H3308 H 0.03917 0.21517 0.46026 0.0
H3309 H 0.02989 0.19219 0.46777 0.0
H3310 H 0.05593 0.19714 0.48735 0.0
H3311 H 0.08596 0.20616 0.47493 0.0
H3312 H 0.76785 0.73357 0.51627 0.0
H3313 H 0.76135 0.75707 0.50657 0.0
H3314 H 0.81219 0.79789 0.52929 0.0
H3315 H 0.81924 0.77442 0.53805 0.0
H3316 H 0.75638 0.78077 0.52284 0.0
H3317 H 0.81723 0.81773 0.47951 0.0
H3318 H 0.81098 0.79615 0.48963 0.0
H3319 H 0.82298 0.81664 0.5028 0.0
C3320 C 0.77762 0.74756 0.51925 0.0
C3321 C 0.79413 0.7522 0.52776 0.0
C3322 C 0.7739 0.761 0.51368 0.0
C3323 C 0.78647 0.77933 0.51677 0.0
C3324 C 0.80257 0.78392 0.52614 0.0
H3325 H 0.75552 0.86207 0.50457 0.0
H3326 H 0.76262 0.83956 0.51648 0.0
C3327 C 0.80651 0.77049 0.53131 0.0
C3328 C 0.78262 0.79349 0.51008 0.0
H3329 H 0.79992 0.8321 0.48464 0.0
C3330 C 0.76588 0.79194 0.51441 0.0
C3331 C 0.79486 0.80791 0.49878 0.0
C3332 C 0.81242 0.80962 0.49224 0.0
C3333 C 0.76101 0.80434 0.50778 0.0
C3334 C 0.77359 0.81924 0.49721 0.0
C3335 C 0.79034 0.8208 0.49289 0.0
C3336 C 0.76958 0.83318 0.49016 0.0
C3337 C 0.74218 0.8009 0.51169 0.0
C3338 C 0.77195 0.83777 0.47154 0.0
C3339 C 0.76844 0.85104 0.46485 0.0
C3340 C 0.76215 0.85965 0.4766 0.0
C3341 C 0.75994 0.85524 0.4952 0.0
C3342 C 0.76388 0.84231 0.50198 0.0
H3343 H 0.73264 0.78634 0.51439 0.0
H3344 H 0.7425 0.80855 0.52405 0.0
H3345 H 0.73682 0.80524 0.50014 0.0
H3346 H 0.77645 0.83102 0.46215 0.0
H3347 H 0.77033 0.85436 0.45046 0.0
H3348 H 0.219 0.04816 0.52792 0.0
H3349 H 0.19418 0.0182 0.51955 0.0
H3350 H 0.23066 0.99704 0.5212 0.0
H3351 H 0.25539 0.02669 0.52993 0.0
H3352 H 0.19196 -0.00076 0.48903 0.0
H3353 H 0.1883 0.95917 0.54989 0.0
H3354 H 0.2005 0.98359 0.54988 0.0
H3355 H 0.21072 0.97128 0.54062 0.0
C3356 C 0.22169 0.03707 0.52677 0.0
C3357 C 0.2392 0.03984 0.52963 0.0
C3358 C 0.20749 0.01996 0.52197 0.0
C3359 C 0.21051 0.00533 0.52001 0.0
C3360 C 0.2279 0.00801 0.52308 0.0
H3361 H 0.15809 0.90186 0.46742 0.0
H3362 H 0.17892 0.93161 0.48054 0.0
C3363 C 0.24207 0.02505 0.52797 0.0
C3364 C 0.19589 0.98757 0.51346 0.0
H3365 H 0.17403 0.94229 0.52269 0.0
C3366 C 0.18785 0.98682 0.49652 0.0
C3367 C 0.19051 0.97138 0.52327 0.0
C3368 C 0.19783 0.97138 0.54201 0.0
C3369 C 0.17509 0.97023 0.48882 0.0
C3370 C 0.17031 0.95408 0.49831 0.0
C3371 C 0.17793 0.95479 0.51543 0.0
C3372 C 0.15771 0.93625 0.49042 0.0
C3373 C 0.16708 0.96992 0.4704 0.0
C3374 C 0.13899 0.9292 0.49161 0.0
C3375 C 0.12711 0.91215 0.48439 0.0
C3376 C 0.13382 0.90187 0.47604 0.0
C3377 C 0.15259 0.90919 0.47445 0.0
C3378 C 0.16446 0.92621 0.48174 0.0
H3379 H 0.17279 0.98366 0.46441 0.0
H3380 H 0.16958 0.96128 0.46088 0.0
H3381 H 0.15221 0.96388 0.47169 0.0
H3382 H 0.1336 0.93686 0.49822 0.0
H3383 H 0.11267 0.90685 0.4856 0.0
H3384 H 0.82454 0.04758 0.02369 0.0
H3385 H 0.81742 0.01736 0.01382 0.0
H3386 H 0.7608 0.99751 0.02383 0.0
H3387 H 0.76768 0.02767 0.03353 0.0
H3388 H 0.79936 0.98334 0.03158 0.0
H3389 H 0.76275 0.98528 0.96974 0.0
H3390 H 0.77713 0.00522 0.983 0.0
H3391 H 0.75466 0.98949 0.99075 0.0
C3392 C 0.81058 0.03677 0.02394 0.0
C3393 C 0.79666 0.04011 0.02922 0.0
C3394 C 0.80655 0.01952 0.01829 0.0
C3395 C 0.78857 0.00534 0.01778 0.0
C3396 C 0.77473 0.0084 0.02379 0.0
H3397 H 0.74936 0.89093 0.0029 0.0
H3398 H 0.75704 0.92071 0.01459 0.0
C3399 C 0.77872 0.02563 0.02942 0.0
C3400 C 0.78424 0.98746 0.01049 0.0
H3401 H 0.76147 0.95747 0.97628 0.0
C3402 C 0.7911 0.97766 0.01948 0.0
C3403 C 0.7737 0.98028 0.99454 0.0
C3404 C 0.76675 0.99065 0.98382 0.0
C3405 C 0.7874 0.96064 0.01311 0.0
C3406 C 0.77637 0.95321 0.9975 0.0
C3407 C 0.76979 0.96316 0.98834 0.0
C3408 C 0.77156 0.93514 0.99037 0.0
C3409 C 0.79555 0.95089 0.02296 0.0
C3410 C 0.77682 0.93336 0.97272 0.0
C3411 C 0.77215 0.9163 0.96587 0.0
C3412 C 0.76192 0.90073 0.97647 0.0
C3413 C 0.75671 0.90257 0.99416 0.0
C3414 C 0.76138 0.91963 0.001 0.0
H3415 H 0.80723 0.96025 0.03158 0.0
H3416 H 0.78518 0.9404 0.03199 0.0
H3417 H 0.80011 0.94407 0.01316 0.0
H3418 H 0.78465 0.9452 0.96429 0.0
H3419 H 0.77644 0.91527 0.95224 0.0
H3420 H 0.96941 0.73919 0.03583 0.0
H3421 H -0.00042 0.76327 0.02726 0.0
H3422 H 0.97855 0.79907 0.01714 0.0
H3423 H 0.94832 0.77516 0.02588 0.0
H3424 H 0.00833 0.7796 0.99295 0.0
H3425 H 0.0241 0.8303 0.04773 0.0
H3426 H 0.00637 0.80699 0.04986 0.0
H3427 H 0.00269 0.82261 0.03668 0.0
C3428 C 0.97121 0.75225 0.03205 0.0
C3429 C 0.95641 0.75521 0.0315 0.0
C3430 C 0.98847 0.76599 0.02714 0.0
C3431 C 0.99129 0.78296 0.0217 0.0
C3432 C 0.97669 0.78615 0.0216 0.0
H3433 H 0.08015 0.86186 0.95527 0.0
H3434 H 0.05037 0.83983 0.96746 0.0
C3435 C 0.95941 0.77242 0.02652 0.0
C3436 C 0.00923 0.79684 0.01486 0.0
H3437 H 0.04399 0.83975 0.02224 0.0
C3438 C 0.01617 0.79273 -0.00062 0.0
C3439 C 0.01941 0.81389 0.02336 0.0
C3440 C 0.01288 0.81872 0.04042 0.0
C3441 C 0.03299 0.80532 0.99203 0.0
C3442 C 0.04298 0.82253 0.00026 0.0
C3443 C 0.03616 0.82658 0.01588 0.0
C3444 C 0.06079 0.83632 0.99311 0.0
C3445 C 0.04007 0.80002 0.9757 0.0
C3446 C 0.07636 0.84194 0.00372 0.0
C3447 C 0.09331 0.8545 0.99681 0.0
C3448 C 0.09495 0.8616 0.97918 0.0
C3449 C 0.07926 0.85639 0.96881 0.0
C3450 C 0.0623 0.84379 0.97571 0.0
H3451 H 0.03272 0.78514 0.97355 0.0
H3452 H 0.03834 0.80645 0.9633 0.0
H3453 H 0.05471 0.80475 0.97728 0.0
H3454 H 0.07541 0.83648 0.01727 0.0
H3455 H 0.10507 0.85879 0.0054 0.0
H3456 H 0.25923 0.2294 0.03128 0.0
H3457 H 0.23607 0.23674 0.02234 0.0
H3458 H 0.19687 0.17993 0.01816 0.0
H3459 H 0.21987 0.17238 0.0272 0.0
H3460 H 0.21708 0.22587 0.98861 0.0
H3461 H 0.17041 0.20086 0.04799 0.0
H3462 H 0.19344 0.20538 0.0492 0.0
H3463 H 0.17628 0.18503 0.03857 0.0
C3464 C 0.24563 0.21843 0.02873 0.0
C3465 C 0.24144 0.20028 0.02992 0.0
C3466 C 0.23243 0.22267 0.0236 0.0
C3467 C 0.21476 0.20888 0.01973 0.0
C3468 C 0.21037 0.19076 0.02137 0.0
H3469 H 0.11905 0.20767 0.97737 0.0
H3470 H 0.14106 0.19962 0.98904 0.0
C3471 C 0.22357 0.18649 0.02645 0.0
C3472 C 0.2013 0.21347 0.01272 0.0
H3473 H 0.16047 0.20994 0.02194 0.0
C3474 C 0.20474 0.22248 0.99592 0.0
C3475 C 0.18518 0.20888 0.02225 0.0
C3476 C 0.18109 0.19963 0.04058 0.0
C3477 C 0.19236 0.22685 0.98826 0.0
C3478 C 0.1763 0.22242 0.99786 0.0
C3479 C 0.17281 0.21333 0.01463 0.0
C3480 C 0.16304 0.22728 0.9908 0.0
C3481 C 0.19641 0.23582 0.96977 0.0
C3482 C 0.16812 0.24548 0.988 0.0
C3483 C 0.15563 0.25006 0.98128 0.0
C3484 C 0.13776 0.23655 0.97758 0.0
C3485 C 0.13271 0.21834 0.98027 0.0
C3486 C 0.14523 0.21374 0.98698 0.0
H3487 H 0.20648 0.23374 0.96216 0.0
H3488 H 0.18394 0.23056 0.96141 0.0
H3489 H 0.20211 0.2506 0.97158 0.0
H3490 H 0.18175 0.25614 0.99104 0.0
H3491 H 0.16003 0.26417 0.97878 0.0
H3492 H 0.91416 0.77601 0.54307 0.0
H3493 H 0.94397 0.78393 0.53093 0.0
H3494 H 0.91902 0.75467 0.48148 0.0
H3495 H 0.88931 0.74722 0.49326 0.0
H3496 H 0.95619 0.76038 0.51985 0.0
H3497 H 0.95831 0.80444 0.46304 0.0
H3498 H 0.94234 0.79788 0.48159 0.0
H3499 H 0.93854 0.78232 0.46333 0.0
C3500 C 0.91506 0.77129 0.5296 0.0
C3501 C 0.89938 0.76067 0.51928 0.0
C3502 C 0.93206 0.7758 0.52271 0.0
C3503 C 0.93368 0.76999 0.50528 0.0
C3504 C 0.91806 0.75944 0.4949 0.0
H3505 H 0.02764 0.76718 0.46393 0.0
H3506 H 0.99712 0.75968 0.47297 0.0
C3507 C 0.90106 0.75492 0.50179 0.0
C3508 C 0.95171 0.77466 0.49813 0.0
H3509 H 0.98177 0.79717 0.46386 0.0
C3510 C 0.96181 0.76843 0.50762 0.0
C3511 C 0.95904 0.78533 0.48228 0.0
C3512 C 0.9491 0.79304 0.47203 0.0
C3513 C 0.979 0.77243 0.50158 0.0
C3514 C 0.98613 0.7827 0.48547 0.0
C3515 C 0.97614 0.78912 0.47609 0.0
C3516 C 0.00421 0.78735 0.4785 0.0
C3517 C 0.98954 0.76593 0.51269 0.0
C3518 C 0.01811 0.80546 0.47792 0.0
C3519 C 0.03556 0.80983 0.47266 0.0
C3520 C 0.0394 0.79614 0.46783 0.0
C3521 C 0.02522 0.77806 0.46769 0.0
C3522 C 0.00778 0.77372 0.47294 0.0
H3523 H 0.98405 0.762 0.52673 0.0
H3524 H 0.98875 0.7539 0.50599 0.0
H3525 H 0.00401 0.77655 0.5136 0.0
H3526 H 0.01557 0.81618 0.48206 0.0
H3527 H 0.04612 0.8239 0.47285 0.0
H3528 H 0.20465 0.11776 0.52692 0.0
H3529 H 0.19489 0.13799 0.51388 0.0
H3530 H 0.25053 0.17795 0.50329 0.0
H3531 H 0.26032 0.15789 0.5164 0.0
H3532 H 0.20442 0.17294 0.52514 0.0
H3533 H 0.22606 0.17314 0.45379 0.0
H3534 H 0.22378 0.15642 0.4703 0.0
H3535 H 0.24357 0.17856 0.4703 0.0
C3536 C 0.21475 0.13083 0.52169 0.0
C3537 C 0.23318 0.13608 0.52214 0.0
C3538 C 0.20918 0.14233 0.51424 0.0
C3539 C 0.22197 0.15925 0.50719 0.0
C3540 C 0.24042 0.1647 0.5081 0.0
H3541 H 0.22701 0.25557 0.4669 0.0
H3542 H 0.23195 0.23086 0.476 0.0
C3543 C 0.24598 0.15322 0.51554 0.0
C3544 C 0.21617 0.17161 0.49963 0.0
H3545 H 0.21865 0.19583 0.4616 0.0
C3546 C 0.20731 0.1778 0.51119 0.0
C3547 C 0.21998 0.17787 0.48142 0.0
C3548 C 0.22872 0.17104 0.46816 0.0
C3549 C 0.20281 0.19068 0.50525 0.0
C3550 C 0.20701 0.19726 0.48716 0.0
C3551 C 0.21548 0.19075 0.47546 0.0
C3552 C 0.20362 0.21166 0.48045 0.0
C3553 C 0.19428 0.19767 0.51859 0.0
C3554 C 0.186 0.20886 0.47949 0.0
C3555 C 0.1831 0.22298 0.47433 0.0
C3556 C 0.1978 0.24011 0.46996 0.0
C3557 C 0.21538 0.24259 0.47025 0.0
C3558 C 0.21825 0.22849 0.47543 0.0
H3559 H 0.19553 0.19415 0.5329 0.0
H3560 H 0.20058 0.2126 0.51752 0.0
H3561 H 0.17968 0.19158 0.5154 0.0
H3562 H 0.17451 0.19584 0.48297 0.0
H3563 H 0.16937 0.22056 0.47412 0.0
H3564 H 0.73695 0.9687 0.46168 0.0
H3565 H 0.75989 -0.00035 0.46946 0.0
H3566 H 0.79872 0.98222 0.47877 0.0
H3567 H 0.776 0.95127 0.4708 0.0
H3568 H 0.77671 0.00995 0.50307 0.0
H3569 H 0.82729 0.02779 0.44787 0.0
H3570 H 0.80451 0.00891 0.44619 0.0
H3571 H 0.82128 0.00684 0.45911 0.0
C3572 C 0.75045 0.97147 0.46509 0.0
C3573 C 0.75461 0.95747 0.46567 0.0
C3574 C 0.76353 0.98917 0.46954 0.0
C3575 C 0.78102 0.99323 0.47454 0.0
C3576 C 0.78539 0.97943 0.47463 0.0
H3577 H 0.858 0.08192 0.5415 0.0
H3578 H 0.83575 0.05245 0.52891 0.0
C3579 C 0.77233 0.96171 0.47015 0.0
C3580 C 0.79423 0.01157 0.48111 0.0
H3581 H 0.83656 0.04736 0.47376 0.0
C3582 C 0.78975 0.01819 0.49659 0.0
C3583 C 0.81115 0.02231 0.47254 0.0
C3584 C 0.81632 0.01621 0.4554 0.0
C3585 C 0.80192 0.03515 0.50398 0.0
C3586 C 0.81909 0.04561 0.49581 0.0
C3587 C 0.82343 0.03919 0.48009 0.0
C3588 C 0.83269 0.06333 0.50335 0.0
C3589 C 0.79623 0.04181 0.52037 0.0
C3590 C 0.83864 0.07907 0.49294 0.0
C3591 C 0.85136 0.09586 0.50006 0.0
C3592 C 0.8583 0.09717 0.51773 0.0
C3593 C 0.85266 0.08131 0.52795 0.0
C3594 C 0.83992 0.06452 0.52082 0.0
H3595 H 0.78131 0.03434 0.52218 0.0
H3596 H 0.80239 0.03977 0.53282 0.0
H3597 H 0.80093 0.05647 0.51915 0.0
H3598 H 0.8334 0.07837 0.47932 0.0
H3599 H 0.85598 0.10773 0.49157 0.0
H3600 H 0.89273 0.30131 0.30163 0.0
H3601 H 0.89972 0.33158 0.31101 0.0
H3602 H 0.84294 0.31474 0.31 0.0
H3603 H 0.83573 0.28427 0.30101 0.0
H3604 H 0.89306 0.35714 0.29564 0.0
H3605 H 0.8573 0.33321 0.36191 0.0
H3606 H 0.86213 0.31908 0.34741 0.0
H3607 H 0.84342 0.32244 0.34232 0.0
C3608 C 0.88171 0.30405 0.30325 0.0
C3609 C 0.86364 0.29029 0.30078 0.0
C3610 C 0.88574 0.32137 0.30862 0.0
C3611 C 0.87182 0.32527 0.31159 0.0
C3612 C 0.85385 0.31186 0.30824 0.0
H3613 H 0.87307 0.42191 0.35162 0.0
H3614 H 0.86433 0.39216 0.33861 0.0
C3615 C 0.84977 0.29449 0.30299 0.0
C3616 C 0.87615 0.34323 0.31869 0.0
H3617 H 0.86912 0.36415 0.35489 0.0
C3618 C 0.88783 0.35869 0.30859 0.0
C3619 C 0.86935 0.34518 0.33564 0.0
C3620 C 0.85749 0.32913 0.34756 0.0
C3621 C 0.8928 0.37608 0.31492 0.0
C3622 C 0.88603 0.37799 0.33186 0.0
C3623 C 0.87422 0.36256 0.34188 0.0
C3624 C 0.89134 0.39595 0.33962 0.0
C3625 C 0.90513 0.39226 0.3034 0.0
C3626 C 0.90931 0.40767 0.34486 0.0
C3627 C 0.91429 0.42456 0.35236 0.0
C3628 C 0.90139 0.43004 0.35457 0.0
C3629 C 0.8833 0.41807 0.34981 0.0
C3630 C 0.87832 0.40115 0.34237 0.0
H3631 H 0.90576 0.38839 0.28907 0.0
H3632 H 0.90056 0.40238 0.30345 0.0
H3633 H 0.919 0.39881 0.30915 0.0
H3634 H 0.91944 0.40366 0.34333 0.0
H3635 H 0.92816 0.43325 0.35663 0.0
H3636 H 0.57472 0.45134 0.35269 0.0
H3637 H 0.60479 0.47345 0.34121 0.0
H3638 H 0.59238 0.51618 0.34912 0.0
H3639 H 0.56269 0.49426 0.36136 0.0
H3640 H 0.61328 0.49561 0.31126 0.0
H3641 H 0.64091 0.53642 0.37417 0.0
H3642 H 0.62058 0.51455 0.37416 0.0
H3643 H 0.61984 0.53436 0.36709 0.0
C3644 C 0.57851 0.46548 0.35207 0.0
C3645 C 0.56629 0.47108 0.35746 0.0
C3646 C 0.59562 0.47806 0.34548 0.0
C3647 C 0.60084 0.49645 0.3444 0.0
C3648 C 0.58871 0.50209 0.35003 0.0
H3649 H 0.69438 0.59283 0.30347 0.0
H3650 H 0.6641 0.56993 0.31336 0.0
C3651 C 0.57166 0.48953 0.35672 0.0
C3652 C 0.61877 0.50968 0.33694 0.0
H3653 H 0.65778 0.54879 0.34688 0.0
C3654 C 0.62306 0.50718 0.31908 0.0
C3655 C 0.6315 0.52474 0.3472 0.0
C3656 C 0.62808 0.52762 0.36678 0.0
C3657 C 0.63964 0.51956 0.31107 0.0
C3658 C 0.65221 0.53471 0.32124 0.0
C3659 C 0.64798 0.53719 0.33911 0.0
C3660 C 0.67002 0.54808 0.31376 0.0
C3661 C 0.6435 0.51656 0.2917 0.0
C3662 C 0.68326 0.54327 0.3106 0.0
C3663 C 0.70061 0.55631 0.30502 0.0
C3664 C 0.70498 0.5744 0.30252 0.0
C3665 C 0.69147 0.57903 0.30522 0.0
C3666 C 0.67418 0.56599 0.3109 0.0
H3667 H 0.63109 0.50631 0.28455 0.0
H3668 H 0.64954 0.52941 0.28387 0.0
H3669 H 0.65339 0.51173 0.29178 0.0
H3670 H 0.68033 0.52953 0.31296 0.0
H3671 H 0.71068 0.55229 0.30307 0.0
H3672 H 0.40327 0.10041 0.30128 0.0
H3673 H 0.42672 0.09349 0.31025 0.0
H3674 H 0.46649 0.15032 0.30919 0.0
H3675 H 0.44309 0.15744 0.30057 0.0
H3676 H 0.4592 0.10064 0.29435 0.0
H3677 H 0.47076 0.13562 0.36107 0.0
H3678 H 0.45163 0.1306 0.34673 0.0
H3679 H 0.47354 0.14959 0.34165 0.0
C3680 C 0.41702 0.11145 0.3028 0.0
C3681 C 0.42125 0.1295 0.30042 0.0
C3682 C 0.43041 0.10746 0.30793 0.0
C3683 C 0.44824 0.12142 0.31076 0.0
C3684 C 0.4527 0.13938 0.3075 0.0
H3685 H 0.54434 0.12123 0.35021 0.0
H3686 H 0.5231 0.12968 0.33722 0.0
C3687 C 0.43932 0.14341 0.30248 0.0
C3688 C 0.462 0.11719 0.31766 0.0
H3689 H 0.49015 0.12421 0.35367 0.0
C3690 C 0.46598 0.10578 0.30731 0.0
C3691 C 0.47075 0.12388 0.33462 0.0
C3692 C 0.46637 0.13547 0.34677 0.0
C3693 C 0.47862 0.101 0.31341 0.0
C3694 C 0.4873 0.10767 0.33037 0.0
C3695 C 0.48347 0.1192 0.34064 0.0
C3696 C 0.50014 0.10251 0.33793 0.0
C3697 C 0.48272 0.08902 0.30162 0.0
C3698 C 0.49411 0.08452 0.34296 0.0
C3699 C 0.50616 0.07972 0.35046 0.0
C3700 C 0.52445 0.09279 0.35286 0.0
C3701 C 0.53035 0.11087 0.34824 0.0
C3702 C 0.51828 0.11569 0.34081 0.0
H3703 H 0.47816 0.0885 0.28732 0.0
H3704 H 0.49745 0.09381 0.3016 0.0
H3705 H 0.47559 0.07506 0.30718 0.0
H3706 H 0.48003 0.07427 0.34133 0.0
H3707 H 0.50111 0.06583 0.35464 0.0
H3708 H 0.63639 0.56202 0.86377 0.0
H3709 H 0.66648 0.56811 0.85471 0.0
H3710 H 0.647 0.51083 0.85185 0.0
H3711 H 0.61679 0.50453 0.86064 0.0
H3712 H 0.69024 0.55776 0.87003 0.0
H3713 H 0.66749 0.52896 0.80065 0.0
H3714 H 0.65384 0.53407 0.81559 0.0
H3715 H 0.6552 0.51394 0.81907 0.0
C3716 C 0.6385 0.55069 0.86136 0.0
C3717 C 0.62411 0.53278 0.86273 0.0
C3718 C 0.65571 0.55421 0.85619 0.0
C3719 C 0.65883 0.53992 0.85227 0.0
C3720 C 0.64474 0.52204 0.85443 0.0
H3721 H 0.7538 0.53945 0.80901 0.0
H3722 H 0.72398 0.53062 0.82193 0.0
C3723 C 0.62751 0.51849 0.85955 0.0
C3724 C 0.67671 0.54378 0.84542 0.0
H3725 H 0.6979 0.53879 0.80824 0.0
C3726 C 0.69194 0.5536 0.85654 0.0
C3727 C 0.67883 0.53832 0.8278 0.0
C3728 C 0.66302 0.52837 0.81499 0.0
C3729 C 0.70928 0.55808 0.85051 0.0
C3730 C 0.71141 0.5528 0.83282 0.0
C3731 C 0.69616 0.54276 0.82181 0.0
C3732 C 0.72943 0.55809 0.82524 0.0
C3733 C 0.72517 0.56828 0.86316 0.0
C3734 C 0.74213 0.57641 0.82245 0.0
C3735 C 0.75906 0.58144 0.81505 0.0
C3736 C 0.7636 0.56824 0.81042 0.0
C3737 C 0.75068 0.54988 0.81271 0.0
C3738 C 0.73372 0.54484 0.8201 0.0
H3739 H 0.7208 0.56714 0.87761 0.0
H3740 H 0.73487 0.56325 0.862 0.0
H3741 H 0.73237 0.58282 0.85941 0.0
H3742 H 0.73885 0.5868 0.8258 0.0
H3743 H 0.76851 0.59565 0.81273 0.0
H3744 H 0.45155 0.20318 0.79324 0.0
H3745 H 0.46001 0.18158 0.80511 0.0
H3746 H 0.418 0.16389 0.84566 0.0
H3747 H 0.40989 0.18582 0.83441 0.0
H3748 H 0.46819 0.17907 0.84679 0.0
H3749 H 0.41183 0.11744 0.81467 0.0
H3750 H 0.42031 0.13973 0.80503 0.0
H3751 H 0.40676 0.13344 0.82529 0.0
C3752 C 0.44406 0.19463 0.80464 0.0
C3753 C 0.42968 0.19586 0.81251 0.0
C3754 C 0.44892 0.18234 0.81138 0.0
C3755 C 0.43947 0.17108 0.82608 0.0
C3756 C 0.42524 0.17232 0.8341 0.0
H3757 H 0.4417 0.08075 0.87679 0.0
H3758 H 0.43474 0.1042 0.86802 0.0
C3759 C 0.42045 0.1847 0.82745 0.0
C3760 C 0.44464 0.15815 0.83324 0.0
H3761 H 0.43158 0.11334 0.83385 0.0
C3762 C 0.46025 0.16469 0.84399 0.0
C3763 C 0.43412 0.13946 0.82961 0.0
C3764 C 0.41733 0.13197 0.81796 0.0
C3765 C 0.46556 0.15289 0.85143 0.0
C3766 C 0.45517 0.13416 0.84758 0.0
C3767 C 0.43952 0.12769 0.83682 0.0
C3768 C 0.46027 0.12096 0.85437 0.0
C3769 C 0.48196 0.16055 0.86367 0.0
C3770 C 0.47704 0.1227 0.84979 0.0
C3771 C 0.48116 0.1094 0.85497 0.0
C3772 C 0.46843 0.09396 0.86453 0.0
C3773 C 0.45179 0.09244 0.86939 0.0
C3774 C 0.44778 0.10582 0.86437 0.0
H3775 H 0.48496 0.17374 0.86963 0.0
H3776 H 0.48008 0.15109 0.87495 0.0
H3777 H 0.49389 0.16285 0.85554 0.0
H3778 H 0.48673 0.13404 0.8417 0.0
H3779 H 0.49403 0.1109 0.85087 0.0
H3780 H 0.79619 0.22617 0.83865 0.0
H3781 H 0.81586 0.25561 0.85285 0.0
H3782 H 0.83642 0.27865 0.79978 0.0
H3783 H 0.81624 0.24937 0.78555 0.0
H3784 H 0.85098 0.27524 0.85411 0.0
H3785 H 0.82514 0.3153 0.8196 0.0
H3786 H 0.81362 0.29095 0.81828 0.0
H3787 H 0.83229 0.30454 0.80326 0.0
C3788 C 0.80494 0.23756 0.83007 0.0
C3789 C 0.80489 0.23558 0.81106 0.0
C3790 C 0.8161 0.25436 0.83816 0.0
C3791 C 0.82742 0.26944 0.82737 0.0
C3792 C 0.82743 0.26738 0.80835 0.0
H3793 H 0.92644 0.36346 0.85835 0.0
H3794 H 0.90218 0.33322 0.85056 0.0
C3795 C 0.81604 0.25064 0.80024 0.0
C3796 C 0.8398 0.28709 0.83605 0.0
H3797 H 0.8545 0.33225 0.83348 0.0
C3798 C 0.85158 0.28768 0.84976 0.0
C3799 C 0.84033 0.30328 0.83073 0.0
C3800 C 0.82701 0.30347 0.81731 0.0
C3801 C 0.86437 0.3041 0.85774 0.0
C3802 C 0.86585 0.32044 0.85136 0.0
C3803 C 0.85357 0.31976 0.83821 0.0
C3804 C 0.88051 0.33842 0.85745 0.0
C3805 C 0.87604 0.30368 0.87298 0.0
C3806 C 0.87648 0.35161 0.86355 0.0
C3807 C 0.89038 0.36909 0.86762 0.0
C3808 C 0.90857 0.37366 0.86579 0.0
C3809 C 0.91257 0.36031 0.86013 0.0
C3810 C 0.89868 0.34294 0.85579 0.0
H3811 H 0.86903 0.29066 0.88054 0.0
H3812 H 0.8886 0.30491 0.86712 0.0
H3813 H 0.8798 0.31491 0.88279 0.0
H3814 H 0.86256 0.34846 0.86486 0.0
H3815 H 0.88687 0.37909 0.87196 0.0
H3816 H 0.45608 0.24145 0.3206 0.0
H3817 H 0.46348 0.27105 0.33283 0.0
H3818 H 0.41154 0.26242 0.31539 0.0
H3819 H 0.40429 0.23318 0.30249 0.0
H3820 H 0.46157 0.30067 0.31137 0.0
H3821 H 0.41717 0.27523 0.37259 0.0
H3822 H 0.42545 0.26208 0.36106 0.0
H3823 H 0.40762 0.26453 0.35107 0.0
C3824 C 0.44623 0.24585 0.31932 0.0
C3825 C 0.42936 0.23468 0.31103 0.0
C3826 C 0.45047 0.26271 0.32637 0.0
C3827 C 0.4379 0.26867 0.32529 0.0
C3828 C 0.42123 0.2578 0.31669 0.0
H3829 H 0.43288 0.3623 0.35997 0.0
H3830 H 0.42689 0.33234 0.35072 0.0
C3831 C 0.41702 0.24098 0.30951 0.0
C3832 C 0.4424 0.28649 0.33276 0.0
H3833 H 0.43196 0.30669 0.36707 0.0
C3834 C 0.45521 0.30207 0.3236 0.0
C3835 C 0.43396 0.2881 0.34864 0.0
C3836 C 0.42034 0.27164 0.35906 0.0
C3837 C 0.45951 0.31935 0.32967 0.0
C3838 C 0.45113 0.32103 0.34565 0.0
C3839 C 0.43842 0.30538 0.35489 0.0
C3840 C 0.45481 0.33887 0.35254 0.0
C3841 C 0.4725 0.33559 0.31855 0.0
C3842 C 0.47243 0.35232 0.35717 0.0
C3843 C 0.47595 0.36955 0.36231 0.0
C3844 C 0.46184 0.37353 0.36317 0.0
C3845 C 0.44407 0.35973 0.35941 0.0
C3846 C 0.44061 0.34258 0.35411 0.0
H3847 H 0.47388 0.33174 0.30441 0.0
H3848 H 0.46803 0.34576 0.31788 0.0
H3849 H 0.48606 0.34201 0.32501 0.0
H3850 H 0.48352 0.34959 0.35653 0.0
H3851 H 0.48976 0.37982 0.36531 0.0
H3852 H 0.77023 0.18714 0.33672 0.0
H3853 H 0.74091 0.16412 0.34866 0.0
H3854 H 0.71446 0.17051 0.30148 0.0
H3855 H 0.74386 0.19331 0.28922 0.0
H3856 H 0.71009 0.16828 0.35627 0.0
H3857 H 0.69574 0.11519 0.30446 0.0
H3858 H 0.71815 0.13415 0.30825 0.0
H3859 H 0.70186 0.13711 0.29547 0.0
C3860 C 0.75825 0.18333 0.32865 0.0
C3861 C 0.75936 0.19162 0.31176 0.0
C3862 C 0.74149 0.17036 0.33562 0.0
C3863 C 0.7256 0.16546 0.32581 0.0
C3864 C 0.72663 0.17391 0.30909 0.0
H3865 H 0.61373 0.10623 0.36019 0.0
H3866 H 0.64418 0.12965 0.35137 0.0
C3867 C 0.74338 0.18695 0.30215 0.0
C3868 C 0.70791 0.15168 0.33321 0.0
H3869 H 0.67208 0.10962 0.32497 0.0
C3870 C 0.70176 0.15542 0.34949 0.0
C3871 C 0.69725 0.13489 0.32439 0.0
C3872 C 0.70359 0.12995 0.30725 0.0
C3873 C 0.68499 0.14287 0.35703 0.0
C3874 C 0.67413 0.12627 0.34795 0.0
C3875 C 0.68043 0.12242 0.33184 0.0
C3876 C 0.6561 0.11264 0.35482 0.0
C3877 C 0.67911 0.14735 0.37473 0.0
C3878 C 0.65276 0.09536 0.35968 0.0
C3879 C 0.63539 0.08192 0.36468 0.0
C3880 C 0.62098 0.0855 0.36475 0.0
C3881 C 0.6245 0.10301 0.36031 0.0
C3882 C 0.64192 0.11645 0.35535 0.0
H3883 H 0.69066 0.15854 0.3821 0.0
H3884 H 0.66906 0.15165 0.37181 0.0
H3885 H 0.67261 0.13533 0.38379 0.0
H3886 H 0.66355 0.09217 0.35929 0.0
H3887 H 0.63318 0.06861 0.36801 0.0
H3888 H 0.78109 0.53855 0.32069 0.0
H3889 H 0.80332 0.53096 0.33275 0.0
H3890 H 0.84668 0.58199 0.31333 0.0
H3891 H 0.82454 0.58938 0.30069 0.0
H3892 H 0.83542 0.5329 0.30998 0.0
H3893 H 0.85352 0.57674 0.37162 0.0
H3894 H 0.83182 0.56775 0.36046 0.0
H3895 H 0.85161 0.58593 0.35015 0.0
C3896 C 0.79537 0.54812 0.319 0.0
C3897 C 0.80116 0.5648 0.31032 0.0
C3898 C 0.808 0.5438 0.32591 0.0
C3899 C 0.82655 0.55609 0.32418 0.0
C3900 C 0.83237 0.57253 0.31508 0.0
H3901 H 0.92554 0.56247 0.35965 0.0
H3902 H 0.90134 0.56799 0.35007 0.0
C3903 C 0.81976 0.5768 0.30805 0.0
C3904 C 0.83988 0.55164 0.33167 0.0
H3905 H 0.87029 0.56207 0.3662 0.0
C3906 C 0.84301 0.53915 0.32232 0.0
C3907 C 0.84972 0.55996 0.34768 0.0
C3908 C 0.84653 0.5733 0.35821 0.0
C3909 C 0.85614 0.53505 0.32837 0.0
C3910 C 0.86599 0.54332 0.34449 0.0
C3911 C 0.86267 0.55569 0.35391 0.0
C3912 C 0.88031 0.53987 0.35137 0.0
C3913 C 0.85978 0.52242 0.31708 0.0
C3914 C 0.87643 0.52229 0.35578 0.0
C3915 C 0.89028 0.51905 0.3611 0.0
C3916 C 0.90821 0.5334 0.36239 0.0
C3917 C 0.91189 0.5511 0.35878 0.0
C3918 C 0.89807 0.55429 0.35329 0.0
H3919 H 0.85467 0.52116 0.3029 0.0
H3920 H 0.87448 0.52713 0.31652 0.0
H3921 H 0.85278 0.50875 0.32333 0.0
H3922 H 0.86272 0.51103 0.35487 0.0
H3923 H 0.88695 0.50528 0.36398 0.0
H3924 H 0.56585 0.07321 0.84863 0.0
H3925 H 0.5954 0.08255 0.83495 0.0
H3926 H 0.61002 0.13853 0.84065 0.0
H3927 H 0.58036 0.12924 0.85421 0.0
H3928 H 0.61175 0.1045 0.80316 0.0
H3929 H 0.6511 0.13501 0.86662 0.0
H3930 H 0.62692 0.12 0.86674 0.0
H3931 H 0.63621 0.14311 0.85967 0.0
C3932 C 0.57524 0.08749 0.84664 0.0
C3933 C 0.57072 0.10052 0.8521 0.0
C3934 C 0.59213 0.0928 0.83896 0.0
C3935 C 0.60487 0.11121 0.83686 0.0
C3936 C 0.60041 0.12426 0.84233 0.0
H3937 H 0.71779 0.16249 0.80311 0.0
H3938 H 0.68769 0.15734 0.81074 0.0
C3939 C 0.58351 0.11895 0.85002 0.0
C3940 C 0.62289 0.11667 0.82918 0.0
H3941 H 0.66768 0.13722 0.84013 0.0
C3942 C 0.62401 0.11171 0.81119 0.0
C3943 C 0.63882 0.12613 0.83971 0.0
C3944 C 0.6383 0.13128 0.85931 0.0
C3945 C 0.64069 0.11592 0.80343 0.0
C3946 C 0.65657 0.12501 0.8141 0.0
C3947 C 0.65548 0.13029 0.83197 0.0
C3948 C 0.67434 0.12829 0.80747 0.0
C3949 C 0.64117 0.11066 0.78388 0.0
C3950 C 0.67675 0.11366 0.80296 0.0
C3951 C 0.6939 0.11653 0.79857 0.0
C3952 C 0.70902 0.1341 0.79878 0.0
C3953 C 0.70646 0.14878 0.80282 0.0
C3954 C 0.68927 0.14588 0.80719 0.0
H3955 H 0.62925 0.10899 0.77611 0.0
H3956 H 0.65367 0.12093 0.7769 0.0
H3957 H 0.64093 0.09754 0.7836 0.0
H3958 H 0.66547 0.09994 0.80347 0.0
H3959 H 0.69538 0.10491 0.79559 0.0
H3960 H 0.83914 0.55576 0.80806 0.0
H3961 H 0.84572 0.53221 0.81774 0.0
H3962 H 0.90221 0.56749 0.80574 0.0
H3963 H 0.89588 0.59119 0.79621 0.0
H3964 H 0.86272 0.51504 0.79962 0.0
H3965 H 0.90133 0.55458 0.86021 0.0
H3966 H 0.88683 0.56017 0.8472 0.0
H3967 H 0.90899 0.56636 0.83888 0.0
C3968 C 0.85295 0.55848 0.80731 0.0
C3969 C 0.86702 0.57546 0.80156 0.0
C3970 C 0.85666 0.545 0.81284 0.0
C3971 C 0.87448 0.54828 0.81277 0.0
C3972 C 0.88842 0.56486 0.80622 0.0
H3973 H 0.91266 0.47225 0.82806 0.0
H3974 H 0.9047 0.49405 0.81602 0.0
C3975 C 0.88474 0.57835 0.80071 0.0
C3976 C 0.87861 0.53462 0.82016 0.0
H3977 H 0.90189 0.52762 0.85399 0.0
C3978 C 0.87126 0.51774 0.81152 0.0
C3979 C 0.88951 0.53814 0.83585 0.0
C3980 C 0.89701 0.55572 0.84621 0.0
C3981 C 0.87484 0.50435 0.81798 0.0
C3982 C 0.88623 0.5081 0.83332 0.0
C3983 C 0.89329 0.52487 0.84214 0.0
C3984 C 0.89097 0.49482 0.84053 0.0
C3985 C 0.8662 0.48624 0.80851 0.0
C3986 C 0.88622 0.48833 0.85843 0.0
C3987 C 0.89104 0.47611 0.86545 0.0
C3988 C 0.90094 0.4704 0.85478 0.0
C3989 C 0.90557 0.47684 0.83682 0.0
C3990 C 0.90074 0.48905 0.8298 0.0
H3991 H 0.85437 0.48393 0.80016 0.0
H3992 H 0.87624 0.48574 0.79928 0.0
H3993 H 0.86173 0.47506 0.81854 0.0
H3994 H 0.87872 0.49267 0.86693 0.0
H3995 H 0.88719 0.47125 0.87929 0.0
H3996 H 0.39797 0.30059 0.80003 0.0
H3997 H 0.42009 0.33185 0.80792 0.0
H3998 H 0.46159 0.31732 0.81263 0.0
H3999 H 0.43971 0.28613 0.80461 0.0
H4000 H 0.43963 0.34296 0.8406 0.0
H4001 H 0.48552 0.36303 0.78087 0.0
H4002 H 0.46302 0.34354 0.78064 0.0
H4003 H 0.48132 0.34223 0.79127 0.0
C4004 C 0.41186 0.30407 0.8025 0.0
C4005 C 0.41706 0.29083 0.80169 0.0
C4006 C 0.42445 0.32194 0.80703 0.0
C4007 C 0.44248 0.32691 0.81066 0.0
C4008 C 0.4478 0.31383 0.80955 0.0
H4009 H 0.52388 0.41438 0.87435 0.0
H4010 H 0.49997 0.38542 0.86237 0.0
C4011 C 0.43523 0.29597 0.80506 0.0
C4012 C 0.4555 0.34546 0.81679 0.0
H4013 H 0.49655 0.38221 0.80705 0.0
C4014 C 0.452 0.35163 0.83319 0.0
C4015 C 0.47152 0.35677 0.80699 0.0
C4016 C 0.47553 0.35116 0.78887 0.0
C4017 C 0.4644 0.36862 0.84037 0.0
C4018 C 0.4808 0.37957 0.83099 0.0
C4019 C 0.48403 0.37367 0.81429 0.0
C4020 C 0.49491 0.39709 0.83844 0.0
C4021 C 0.45988 0.37471 0.85792 0.0
C4022 C 0.50021 0.41313 0.82874 0.0
C4023 C 0.51388 0.42964 0.83552 0.0
C4024 C 0.52246 0.43035 0.85211 0.0
C4025 C 0.51732 0.41423 0.86165 0.0
C4026 C 0.50361 0.39773 0.85489 0.0
H4027 H 0.44513 0.36703 0.86082 0.0
H4028 H 0.46698 0.37243 0.86939 0.0
H4029 H 0.46436 0.38937 0.85744 0.0
H4030 H 0.49382 0.41285 0.81588 0.0
H4031 H 0.51801 0.44172 0.8275 0.0
H4032 H 0.56308 0.637 0.63033 0.0
H4033 H 0.57007 0.66731 0.63962 0.0
H4034 H 0.5134 0.64789 0.64883 0.0
H4035 H 0.50619 0.61754 0.63938 0.0
H4036 H 0.53202 0.682 0.63107 0.0
H4037 H 0.56741 0.67944 0.69364 0.0
H4038 H 0.57569 0.67519 0.67278 0.0
H4039 H 0.55308 0.65959 0.68025 0.0
C4040 C 0.55206 0.63917 0.63415 0.0
C4041 C 0.53408 0.62477 0.63429 0.0
C4042 C 0.5561 0.65649 0.63954 0.0
C4043 C 0.54228 0.65971 0.64524 0.0
C4044 C 0.52426 0.64561 0.64459 0.0
H4045 H 0.55368 0.74928 0.711 0.0
H4046 H 0.54548 0.71947 0.69862 0.0
C4047 C 0.52018 0.62828 0.63919 0.0
C4048 C 0.54666 0.67762 0.65248 0.0
H4049 H 0.56884 0.7073 0.6871 0.0
C4050 C 0.54006 0.68756 0.64331 0.0
C4051 C 0.5569 0.68465 0.66862 0.0
C4052 C 0.56356 0.67413 0.67953 0.0
C4053 C 0.5437 0.70456 0.64972 0.0
C4054 C 0.5544 0.71182 0.66557 0.0
C4055 C 0.56076 0.70174 0.67487 0.0
C4056 C 0.5591 0.72982 0.67282 0.0
C4057 C 0.53583 0.71446 0.63967 0.0
C4058 C 0.56954 0.74546 0.66245 0.0
C4059 C 0.57421 0.76245 0.66948 0.0
C4060 C 0.56874 0.76411 0.68711 0.0
C4061 C 0.55819 0.7484 0.69743 0.0
C4062 C 0.55352 0.73141 0.69039 0.0
H4063 H 0.52434 0.70522 0.63079 0.0
H4064 H 0.53108 0.7212 0.64936 0.0
H4065 H 0.54643 0.72503 0.63089 0.0
H4066 H 0.57413 0.74453 0.64893 0.0
H4067 H 0.58182 0.77421 0.66094 0.0
H4068 H 0.35969 0.92403 0.63258 0.0
H4069 H 0.32965 0.90028 0.64198 0.0
H4070 H 0.35056 0.86445 0.65243 0.0
H4071 H 0.38069 0.88804 0.64288 0.0
H4072 H 0.31633 0.84786 0.63452 0.0
H4073 H 0.31785 0.88629 0.69627 0.0
H4074 H 0.32194 0.89855 0.67525 0.0
H4075 H 0.33783 0.89202 0.68302 0.0
C4076 C 0.35791 0.91105 0.6367 0.0
C4077 C 0.37266 0.90802 0.63717 0.0
C4078 C 0.34074 0.89754 0.64214 0.0
C4079 C 0.33802 0.88078 0.64823 0.0
C4080 C 0.35247 0.87737 0.64789 0.0
H4081 H 0.2474 0.80306 0.71363 0.0
H4082 H 0.27756 0.82432 0.70173 0.0
C4083 C 0.36966 0.89087 0.64243 0.0
C4084 C 0.32025 0.86707 0.65556 0.0
H4085 H 0.29012 0.85969 0.68966 0.0
C4086 C 0.31059 0.85039 0.64659 0.0
C4087 C 0.31299 0.87036 0.67149 0.0
C4088 C 0.32323 0.8877 0.6822 0.0
C4089 C 0.29358 0.837 0.65292 0.0
C4090 C 0.28604 0.84055 0.66847 0.0
C4091 C 0.2959 0.85709 0.67765 0.0
C4092 C 0.26788 0.82735 0.67542 0.0
C4093 C 0.28394 0.8191 0.64306 0.0
C4094 C 0.25251 0.82214 0.6646 0.0
C4095 C 0.23533 0.81003 0.67135 0.0
C4096 C 0.23322 0.80314 0.68914 0.0
C4097 C 0.24865 0.80828 0.69991 0.0
C4098 C 0.26584 0.82041 0.69316 0.0
H4099 H 0.29341 0.81677 0.63464 0.0
H4100 H 0.27698 0.80772 0.65284 0.0
H4101 H 0.27359 0.81901 0.63384 0.0
H4102 H 0.25379 0.82751 0.65095 0.0
H4103 H 0.22379 0.80586 0.66248 0.0
H4104 H 0.07175 0.43422 0.63229 0.0
H4105 H 0.09518 0.42754 0.64197 0.0
H4106 H 0.13185 0.48431 0.65136 0.0
H4107 H 0.1086 0.49122 0.64152 0.0
H4108 H 0.14774 0.46611 0.6336 0.0
H4109 H 0.10993 0.43018 0.696 0.0
H4110 H 0.09744 0.42185 0.67512 0.0
H4111 H 0.1042 0.44438 0.68267 0.0
C4112 C 0.08483 0.44533 0.63626 0.0
C4113 C 0.08822 0.46325 0.63629 0.0
C4114 C 0.09817 0.44146 0.64188 0.0
C4115 C 0.11509 0.4554 0.6477 0.0
C4116 C 0.11881 0.47336 0.64703 0.0
H4117 H 0.1939 0.44427 0.71291 0.0
H4118 H 0.1721 0.4524 0.70089 0.0
C4119 C 0.10549 0.47726 0.64141 0.0
C4120 C 0.12876 0.45122 0.65494 0.0
H4121 H 0.13649 0.42899 0.68935 0.0
C4122 C 0.14533 0.45802 0.64579 0.0
C4123 C 0.12562 0.4409 0.67102 0.0
C4124 C 0.10841 0.43402 0.68191 0.0
C4125 C 0.15877 0.45447 0.65212 0.0
C4126 C 0.15539 0.44367 0.66787 0.0
C4127 C 0.13895 0.43715 0.67719 0.0
C4128 C 0.16876 0.43898 0.67495 0.0
C4129 C 0.17655 0.46253 0.64207 0.0
C4130 C 0.17397 0.42866 0.66439 0.0
C4131 C 0.1864 0.42402 0.67121 0.0
C4132 C 0.19362 0.42942 0.68882 0.0
C4133 C 0.18844 0.43983 0.69934 0.0
C4134 C 0.176 0.44445 0.69251 0.0
H4135 H 0.17872 0.47408 0.63332 0.0
H4136 H 0.18804 0.46725 0.65175 0.0
H4137 H 0.17659 0.45205 0.63315 0.0
H4138 H 0.1684 0.42414 0.65087 0.0
H4139 H 0.19056 0.41653 0.66252 0.0
H4140 H 0.29887 0.89665 0.18656 0.0
H4141 H 0.32889 0.90334 0.17668 0.0
H4142 H 0.3169 0.84997 0.19333 0.0
H4143 H 0.28647 0.84288 0.20242 0.0
H4144 H 0.35701 0.90526 0.19283 0.0
H4145 H 0.33187 0.84998 0.14188 0.0
H4146 H 0.31705 0.85601 0.15352 0.0
H4147 H 0.32425 0.8418 0.16452 0.0
C4148 C 0.30265 0.88636 0.1882 0.0
C4149 C 0.29025 0.86917 0.19508 0.0
C4150 C 0.31982 0.8902 0.18254 0.0
C4151 C 0.32501 0.87701 0.18383 0.0
C4152 C 0.31299 0.86015 0.19161 0.0
H4153 H 0.43735 0.90387 0.16969 0.0
H4154 H 0.40786 0.89642 0.18226 0.0
C4155 C 0.29566 0.85617 0.19695 0.0
C4156 C 0.34292 0.88094 0.17681 0.0
H4157 H 0.36346 0.86571 0.14753 0.0
C4158 C 0.35842 0.89664 0.18288 0.0
C4159 C 0.34474 0.86987 0.16356 0.0
C4160 C 0.32858 0.85359 0.15534 0.0
C4161 C 0.37566 0.90157 0.17613 0.0
C4162 C 0.37754 0.89009 0.16346 0.0
C4163 C 0.36205 0.87441 0.15737 0.0
C4164 C 0.39537 0.89429 0.15595 0.0
C4165 C 0.39153 0.91932 0.18222 0.0
C4166 C 0.39796 0.89476 0.13698 0.0
C4167 C 0.41467 0.89858 0.12981 0.0
C4168 C 0.42913 0.90229 0.14149 0.0
C4169 C 0.42649 0.90153 0.16044 0.0
C4170 C 0.40969 0.89736 0.16761 0.0
H4171 H 0.38712 0.92884 0.18708 0.0
H4172 H 0.39844 0.91684 0.19374 0.0
H4173 H 0.40144 0.92593 0.17101 0.0
H4174 H 0.38708 0.8923 0.12771 0.0
H4175 H 0.4164 0.89898 0.11515 0.0
H4176 H 0.08272 0.52479 0.17193 0.0
H4177 H 0.08992 0.50264 0.18453 0.0
H4178 H 0.11833 0.50486 0.13509 0.0
H4179 H 0.11064 0.52664 0.12213 0.0
H4180 H 0.09438 0.46955 0.14735 0.0
H4181 H 0.1397 0.51286 0.20279 0.0
H4182 H 0.11777 0.51095 0.20245 0.0
H4183 H 0.13315 0.52189 0.18386 0.0
C4184 C 0.09017 0.5203 0.16358 0.0
C4185 C 0.09575 0.52711 0.14586 0.0
C4186 C 0.09455 0.50789 0.17094 0.0
C4187 C 0.10478 0.50225 0.1608 0.0
C4188 C 0.11044 0.50908 0.14314 0.0
H4189 H 0.15825 0.44376 0.19395 0.0
H4190 H 0.15047 0.46657 0.18484 0.0
C4191 C 0.10607 0.52152 0.13578 0.0
C4192 C 0.10925 0.48891 0.16842 0.0
H4193 H 0.13205 0.48203 0.20289 0.0
C4194 C 0.10261 0.47226 0.15949 0.0
C4195 C 0.12014 0.49261 0.18416 0.0
C4196 C 0.12826 0.5106 0.19382 0.0
C4197 C 0.10647 0.45908 0.16594 0.0
C4198 C 0.117 0.4626 0.18192 0.0
C4199 C 0.12379 0.47932 0.19077 0.0
C4200 C 0.12172 0.4493 0.18915 0.0
C4201 C 0.09956 0.44168 0.15538 0.0
C4202 C 0.10817 0.43226 0.19516 0.0
C4203 C 0.11254 0.41915 0.20035 0.0
C4204 C 0.13058 0.42292 0.19969 0.0
C4205 C 0.14422 0.44035 0.19453 0.0
C4206 C 0.13981 0.45343 0.18933 0.0
H4207 H 0.09532 0.44282 0.14134 0.0
H4208 H 0.11007 0.43766 0.15447 0.0
H4209 H 0.08765 0.43073 0.16252 0.0
H4210 H 0.09416 0.42895 0.19544 0.0
H4211 H 0.10172 0.40592 0.20437 0.0
H4212 H 0.59106 0.69417 0.1941 0.0
H4213 H 0.56665 0.66452 0.18477 0.0
H4214 H 0.52918 0.68452 0.18563 0.0
H4215 H 0.55369 0.71448 0.19449 0.0
H4216 H 0.53483 0.64062 0.2005 0.0
H4217 H 0.52239 0.66446 0.13445 0.0
H4218 H 0.54184 0.6784 0.14846 0.0
H4219 H 0.52014 0.67576 0.15406 0.0
C4220 C 0.57762 0.69229 0.1924 0.0
C4221 C 0.57437 0.70677 0.19486 0.0
C4222 C 0.56368 0.67531 0.18706 0.0
C4223 C 0.54619 0.67242 0.18414 0.0
C4224 C 0.54269 0.6866 0.18734 0.0
H4225 H 0.4483 0.57407 0.15045 0.0
H4226 H 0.4696 0.60407 0.16278 0.0
C4227 C 0.55669 0.70368 0.19252 0.0
C4228 C 0.5318 0.65458 0.17749 0.0
H4229 H 0.5029 0.6337 0.14189 0.0
C4230 C 0.52783 0.63911 0.18771 0.0
C4231 C 0.52274 0.65266 0.16074 0.0
C4232 C 0.52707 0.66867 0.14868 0.0
C4233 C 0.51508 0.62177 0.18159 0.0
C4234 C 0.50615 0.6199 0.16485 0.0
C4235 C 0.50982 0.6353 0.15477 0.0
C4236 C 0.49335 0.60194 0.1573 0.0
C4237 C 0.51125 0.60551 0.19297 0.0
C4238 C 0.4998 0.59111 0.14984 0.0
C4239 C 0.48772 0.57411 0.14266 0.0
C4240 C 0.46902 0.5676 0.14312 0.0
C4241 C 0.46266 0.57869 0.15018 0.0
C4242 C 0.47475 0.59576 0.15723 0.0
H4243 H 0.51718 0.60937 0.20685 0.0
H4244 H 0.49643 0.59623 0.19421 0.0
H4245 H 0.51707 0.59796 0.18613 0.0
H4246 H 0.51418 0.59588 0.14946 0.0
H4247 H 0.49303 0.56617 0.13654 0.0
H4248 H 0.09988 0.69482 0.69506 0.0
H4249 H 0.09383 0.66481 0.68576 0.0
H4250 H 0.15104 0.68376 0.68501 0.0
H4251 H 0.15733 0.71389 0.69432 0.0
H4252 H 0.10873 0.65893 0.65203 0.0
H4253 H 0.12756 0.63492 0.71441 0.0
H4254 H 0.12172 0.65255 0.71503 0.0
H4255 H 0.14339 0.65737 0.70657 0.0
C4256 C 0.11121 0.69259 0.69319 0.0
C4257 C 0.12911 0.7068 0.69539 0.0
C4258 C 0.1077 0.67543 0.68784 0.0
C4259 C 0.12198 0.67211 0.68481 0.0
C4260 C 0.13984 0.68605 0.6875 0.0
H4261 H 0.12429 0.57661 0.64679 0.0
H4262 H 0.13237 0.60683 0.65795 0.0
C4263 C 0.14339 0.70327 0.69276 0.0
C4264 C 0.11819 0.65439 0.67761 0.0
H4265 H 0.11965 0.61624 0.68832 0.0
C4266 C 0.11107 0.64955 0.65994 0.0
C4267 C 0.12147 0.64236 0.68795 0.0
C4268 C 0.12885 0.64691 0.7071 0.0
C4269 C 0.10717 0.63294 0.65227 0.0
C4270 C 0.11005 0.62069 0.66275 0.0
C4271 C 0.1174 0.62565 0.68035 0.0
C4272 C 0.10522 0.60254 0.6558 0.0
C4273 C 0.10031 0.62883 0.63289 0.0
C4274 C 0.08728 0.59014 0.65095 0.0
C4275 C 0.0827 0.57299 0.64447 0.0
C4276 C 0.09589 0.5678 0.64314 0.0
C4277 C 0.11385 0.58025 0.64786 0.0
C4278 C 0.11846 0.59745 0.65428 0.0
H4279 H 0.10394 0.64138 0.62515 0.0
H4280 H 0.10582 0.62125 0.62557 0.0
H4281 H 0.08534 0.62041 0.63304 0.0
H4282 H 0.07681 0.59371 0.65222 0.0
H4283 H 0.06887 0.56385 0.64035 0.0
H4284 H 0.28392 0.44373 0.6952 0.0
H4285 H 0.31405 0.4673 0.68547 0.0
H4286 H 0.33275 0.42885 0.68706 0.0
H4287 H 0.30279 0.40518 0.69683 0.0
H4288 H 0.35085 0.47871 0.70295 0.0
H4289 H 0.34047 0.44995 0.63293 0.0
H4290 H 0.32187 0.44514 0.64804 0.0
H4291 H 0.33511 0.4344 0.6516 0.0
C4292 C 0.29448 0.4403 0.69368 0.0
C4293 C 0.29089 0.42251 0.69666 0.0
C4294 C 0.31166 0.4538 0.68814 0.0
C4295 C 0.32546 0.44969 0.68538 0.0
C4296 C 0.32216 0.43217 0.68899 0.0
H4297 H 0.43248 0.50455 0.63856 0.0
H4298 H 0.40298 0.48289 0.6514 0.0
C4299 C 0.30504 0.4187 0.69462 0.0
C4300 C 0.34311 0.46347 0.67796 0.0
H4301 H 0.3694 0.47444 0.63983 0.0
C4302 C 0.35495 0.47788 0.68914 0.0
C4303 C 0.34828 0.46223 0.65996 0.0
C4304 C 0.33577 0.44719 0.64731 0.0
C4305 C 0.37214 0.49095 0.68289 0.0
C4306 C 0.37735 0.48972 0.66484 0.0
C4307 C 0.36538 0.47535 0.65365 0.0
C4308 C 0.39529 0.50298 0.65737 0.0
C4309 C 0.38475 0.50562 0.69582 0.0
C4310 C 0.40059 0.52139 0.65614 0.0
C4311 C 0.41756 0.5338 0.64909 0.0
C4312 C 0.42946 0.52798 0.64317 0.0
C4313 C 0.42386 0.50947 0.64376 0.0
C4314 C 0.40695 0.49709 0.65089 0.0
H4315 H 0.38067 0.5019 0.71027 0.0
H4316 H 0.39887 0.5085 0.69414 0.0
H4317 H 0.38444 0.51821 0.69286 0.0
H4318 H 0.39158 0.52615 0.66055 0.0
H4319 H 0.42146 0.54797 0.64845 0.0
H4320 H 0.59232 0.89707 0.70212 0.0
H4321 H 0.56884 0.90404 0.69356 0.0
H4322 H 0.53228 0.84768 0.68201 0.0
H4323 H 0.5556 0.84047 0.69074 0.0
H4324 H 0.55289 0.89779 0.65921 0.0
H4325 H 0.50143 0.86206 0.71312 0.0
H4326 H 0.52456 0.86706 0.71527 0.0
H4327 H 0.50878 0.84829 0.70159 0.0
C4328 C 0.57922 0.88609 0.69801 0.0
C4329 C 0.57587 0.8682 0.69709 0.0
C4330 C 0.56583 0.89012 0.6931 0.0
C4331 C 0.5488 0.87636 0.6873 0.0
C4332 C 0.54524 0.85844 0.68675 0.0
H4333 H 0.47139 0.88897 0.62133 0.0
H4334 H 0.49361 0.88136 0.63321 0.0
C4335 C 0.55863 0.85438 0.69167 0.0
C4336 C 0.53524 0.88098 0.68065 0.0
H4337 H 0.49252 0.87341 0.68795 0.0
C4338 C 0.53971 0.89252 0.66552 0.0
C4339 C 0.51814 0.87418 0.68902 0.0
C4340 C 0.51294 0.86234 0.70575 0.0
C4341 C 0.52742 0.89727 0.65838 0.0
C4342 C 0.51014 0.89008 0.66643 0.0
C4343 C 0.50574 0.87875 0.68172 0.0
C4344 C 0.49653 0.89439 0.65931 0.0
C4345 C 0.53311 0.91015 0.64243 0.0
C4346 C 0.49051 0.90382 0.67023 0.0
C4347 C 0.47781 0.90812 0.6635 0.0
C4348 C 0.47095 0.90308 0.64572 0.0
C4349 C 0.47666 0.89323 0.63498 0.0
C4350 C 0.48939 0.88897 0.64171 0.0
H4351 H 0.54804 0.9177 0.64065 0.0
H4352 H 0.52699 0.90237 0.62975 0.0
H4353 H 0.52836 0.92003 0.64418 0.0
H4354 H 0.4957 0.90791 0.68394 0.0
H4355 H 0.47315 0.91507 0.67237 0.0
H4356 H 0.25048 0.44624 0.20913 0.0
H4357 H 0.27995 0.45346 0.19657 0.0
H4358 H 0.25381 0.42324 0.14791 0.0
H4359 H 0.22447 0.41652 0.16008 0.0
H4360 H 0.29119 0.42897 0.18592 0.0
H4361 H 0.29347 0.47221 0.1282 0.0
H4362 H 0.27785 0.46641 0.14699 0.0
H4363 H 0.2734 0.45034 0.12908 0.0
C4364 C 0.25106 0.44119 0.19573 0.0
C4365 C 0.23515 0.43049 0.18576 0.0
C4366 C 0.26785 0.44529 0.18861 0.0
C4367 C 0.26903 0.43896 0.17129 0.0
C4368 C 0.25319 0.42838 0.16124 0.0
H4369 H 0.36174 0.43357 0.12996 0.0
H4370 H 0.33132 0.42651 0.13894 0.0
C4371 C 0.2364 0.42428 0.16836 0.0
C4372 C 0.28681 0.44307 0.16395 0.0
H4373 H 0.31647 0.46431 0.12906 0.0
C4374 C 0.29675 0.4367 0.1735 0.0
C4375 C 0.29403 0.4533 0.14783 0.0
C4376 C 0.28424 0.46112 0.13748 0.0
C4377 C 0.31372 0.44019 0.16729 0.0
C4378 C 0.32076 0.45005 0.15094 0.0
C4379 C 0.3109 0.45656 0.14147 0.0
C4380 C 0.3387 0.45435 0.14392 0.0
C4381 C 0.32415 0.43362 0.17848 0.0
C4382 C 0.3527 0.47239 0.14304 0.0
C4383 C 0.37007 0.4765 0.13782 0.0
C4384 C 0.37373 0.46262 0.13333 0.0
C4385 C 0.35944 0.44458 0.13346 0.0
C4386 C 0.34206 0.4405 0.13867 0.0
H4387 H 0.31879 0.42998 0.1926 0.0
H4388 H 0.32309 0.42139 0.17197 0.0
H4389 H 0.33869 0.44409 0.17919 0.0
H4390 H 0.35031 0.48327 0.14694 0.0
H4391 H 0.38072 0.49054 0.13778 0.0
H4392 H 0.59386 0.82426 0.18181 0.0
H4393 H 0.58385 0.84401 0.16828 0.0
H4394 H 0.52822 0.80265 0.17634 0.0
H4395 H 0.53819 0.78279 0.18982 0.0
H4396 H 0.56127 0.83756 0.13737 0.0
H4397 H 0.53168 0.84762 0.20084 0.0
H4398 H 0.54671 0.83847 0.20102 0.0
H4399 H 0.52346 0.82449 0.19443 0.0
C4400 C 0.5795 0.81929 0.18043 0.0
C4401 C 0.56677 0.80188 0.18649 0.0
C4402 C 0.57381 0.83061 0.17282 0.0
C4403 C 0.55531 0.8248 0.17138 0.0
C4404 C 0.54256 0.80745 0.17752 0.0
H4405 H 0.50255 0.88479 0.13628 0.0
H4406 H 0.50803 0.86015 0.14437 0.0
C4407 C 0.54826 0.79613 0.18517 0.0
C4408 C 0.54948 0.83702 0.16349 0.0
H4409 H 0.52868 0.86113 0.17403 0.0
C4410 C 0.55409 0.84268 0.14534 0.0
C4411 C 0.54005 0.84358 0.17393 0.0
C4412 C 0.53528 0.83838 0.19368 0.0
C4413 C 0.5496 0.85487 0.13736 0.0
C4414 C 0.54055 0.86176 0.14793 0.0
C4415 C 0.53558 0.85577 0.16595 0.0
C4416 C 0.53705 0.87603 0.14103 0.0
C4417 C 0.55455 0.86022 0.11768 0.0
C4418 C 0.55155 0.89306 0.1363 0.0
C4419 C 0.54849 0.90717 0.13166 0.0
C4420 C 0.53086 0.90455 0.1318 0.0
C4421 C 0.5163 0.88729 0.13601 0.0
C4422 C 0.51939 0.87318 0.14067 0.0
H4423 H 0.55633 0.84994 0.11011 0.0
H4424 H 0.54407 0.86211 0.11069 0.0
H4425 H 0.56754 0.87321 0.1171 0.0
H4426 H 0.56533 0.89564 0.13685 0.0
H4427 H 0.56003 0.92028 0.12854 0.0
H4428 H 0.07117 0.63605 0.13171 0.0
H4429 H 0.09427 0.66661 0.14045 0.0
H4430 H 0.13297 0.64862 0.14722 0.0
H4431 H 0.11001 0.61798 0.13837 0.0
H4432 H 0.11207 0.67536 0.17447 0.0
H4433 H 0.16059 0.69541 0.11683 0.0
H4434 H 0.13759 0.6769 0.11529 0.0
H4435 H 0.15442 0.67391 0.12696 0.0
C4436 C 0.08465 0.6386 0.13479 0.0
C4437 C 0.08871 0.62453 0.13438 0.0
C4438 C 0.09782 0.65608 0.1398 0.0
C4439 C 0.11532 0.65987 0.14436 0.0
C4440 C 0.11961 0.64602 0.14348 0.0
H4441 H 0.19518 0.74872 0.20969 0.0
H4442 H 0.17278 0.71905 0.1976 0.0
C4443 C 0.10643 0.6285 0.13849 0.0
C4444 C 0.12868 0.67799 0.15127 0.0
H4445 H 0.17013 0.71471 0.14277 0.0
C4446 C 0.12474 0.684 0.16752 0.0
C4447 C 0.14511 0.68923 0.14208 0.0
C4448 C 0.14969 0.68366 0.12424 0.0
C4449 C 0.13694 0.70092 0.17499 0.0
C4450 C 0.15356 0.71197 0.16604 0.0
C4451 C 0.15741 0.70609 0.14964 0.0
C4452 C 0.16704 0.72982 0.1734 0.0
C4453 C 0.13188 0.70695 0.19226 0.0
C4454 C 0.17142 0.74559 0.16361 0.0
C4455 C 0.18416 0.76249 0.17048 0.0
C4456 C 0.19274 0.76388 0.18725 0.0
C4457 C 0.18858 0.74803 0.19685 0.0
C4458 C 0.17577 0.73112 0.19001 0.0
H4459 H 0.11716 0.69873 0.19519 0.0
H4460 H 0.13933 0.70547 0.20391 0.0
H4461 H 0.13565 0.7214 0.19135 0.0
H4462 H 0.16497 0.74481 0.15065 0.0
H4463 H 0.18759 0.77438 0.1624 0.0
loop_
_geom_bond_atom_site_label_1
_geom_bond_atom_site_label_2
_geom_bond_distance
_geom_bond_site_symmetry_2
_ccdc_geom_bond_type
Co0 O3 1.970 . S
Co0 N17 1.989 . S
Co0 O25 1.967 . S
Co0 O32 1.920 . S
Co1 O4 1.966 . S
Co1 N10 2.022 . S
Co1 N18 1.993 . S
Co1 O26 1.941 . S
C2 O3 1.258 . S
C2 O4 1.263 . S
O3 Co0 1.970 . S
O3 C2 1.258 . S
O4 Co1 1.966 . S
O4 C2 1.263 . S
C5 O6 1.235 . S
C5 O32 1.289 . S
O6 C5 1.235 . S
C7 C9 1.400 . S
C7 N10 1.351 . S
C7 C12 1.501 . S
C8 C9 1.387 . S
C8 N11 1.341 . S
C9 C7 1.400 . S
C9 C8 1.387 . S
N10 Co1 2.022 . S
N10 C7 1.351 . S
N10 N11 1.365 . S
N11 C8 1.341 . S
N11 N10 1.365 . S
N11 H31 0.862 . S
C12 C7 1.501 . S
C12 H13 0.961 . S
C12 H14 0.961 . S
C12 H15 0.960 1_554 S
H13 C12 0.961 . S
H14 C12 0.961 . S
H15 C12 0.960 1_556 S
C16 N17 1.342 . S
C16 C20 1.401 . S
C16 C21 1.499 . S
N17 Co0 1.989 . S
N17 C16 1.342 . S
N17 N18 1.388 . S
N18 Co1 1.993 . S
N18 N17 1.388 . S
N18 C19 1.346 . S
C19 N18 1.346 . S
C19 C20 1.396 . S
C19 C29 1.510 . S
C20 C16 1.401 . S
C20 C19 1.396 . S
C21 C16 1.499 . S
C21 H22 0.959 . S
C21 H23 0.960 . S
C21 H24 0.961 . S
H22 C21 0.959 . S
H23 C21 0.960 . S
H24 C21 0.961 . S
O25 Co0 1.967 . S
O25 C33 1.258 . S
O26 Co1 1.941 . S
O26 C33 1.266 . S
H27 C29 0.959 . S
H28 C29 0.961 . S
C29 C19 1.510 . S
C29 H27 0.959 . S
C29 H28 0.961 . S
C29 H30 0.960 . S
H30 C29 0.960 . S
H31 N11 0.862 . S
O32 Co0 1.920 . S
O32 C5 1.289 . S
C33 O25 1.258 . S
C33 O26 1.266 . S
Co34 O37 1.970 . S
Co34 N51 1.989 . S
Co34 O59 1.967 . S
Co34 O66 1.920 . S
Co35 O38 1.966 . S
Co35 N44 2.022 . S
Co35 N52 1.993 . S
Co35 O60 1.941 . S
C36 O37 1.258 . S
C36 O38 1.263 . S
O37 Co34 1.970 . S
O37 C36 1.258 . S
O38 Co35 1.966 . S
O38 C36 1.263 . S
C39 O40 1.235 . S
C39 O66 1.289 . S
O40 C39 1.235 . S
C41 C43 1.400 . S
C41 N44 1.351 . S
C41 C46 1.501 . S
C42 C43 1.387 . S
C42 N45 1.341 . S
C43 C41 1.400 . S
C43 C42 1.387 . S
N44 Co35 2.022 . S
N44 C41 1.351 . S
N44 N45 1.365 . S
N45 C42 1.341 . S
N45 N44 1.365 . S
N45 H65 0.862 . S
C46 C41 1.501 . S
C46 H47 0.961 . S
C46 H48 0.961 . S
C46 H49 0.960 1_554 S
H47 C46 0.961 . S
H48 C46 0.961 . S
H49 C46 0.960 1_556 S
C50 N51 1.342 . S
C50 C54 1.401 . S
C50 C55 1.499 . S
N51 Co34 1.989 . S
N51 C50 1.342 . S
N51 N52 1.388 . S
N52 Co35 1.993 . S
N52 N51 1.388 . S
N52 C53 1.346 . S
C53 N52 1.346 . S
C53 C54 1.396 . S
C53 C63 1.510 . S
C54 C50 1.401 . S
C54 C53 1.396 . S
C55 C50 1.499 . S
C55 H56 0.959 . S
C55 H57 0.960 . S
C55 H58 0.961 . S
H56 C55 0.959 . S
H57 C55 0.960 . S
H58 C55 0.961 . S
O59 Co34 1.967 . S
O59 C67 1.258 . S
O60 Co35 1.941 . S
O60 C67 1.266 . S
H61 C63 0.959 . S
H62 C63 0.961 . S
C63 C53 1.510 . S
C63 H61 0.959 . S
C63 H62 0.961 . S
C63 H64 0.960 . S
H64 C63 0.960 . S
H65 N45 0.862 . S
O66 Co34 1.920 . S
O66 C39 1.289 . S
C67 O59 1.258 . S
C67 O60 1.266 . S
Co68 O71 1.970 . S
Co68 N85 1.989 . S
Co68 O93 1.967 . S
Co68 O100 1.920 . S
Co69 O72 1.966 . S
Co69 N78 2.022 . S
Co69 N86 1.993 . S
Co69 O94 1.941 . S
C70 O71 1.258 . S
C70 O72 1.263 . S
O71 Co68 1.970 . S
O71 C70 1.258 . S
O72 Co69 1.966 . S
O72 C70 1.263 . S
C73 O74 1.235 . S
C73 O100 1.289 . S
O74 C73 1.235 . S
C75 C77 1.400 . S
C75 N78 1.351 . S
C75 C80 1.501 . S
C76 C77 1.387 . S
C76 N79 1.341 . S
C77 C75 1.400 . S
C77 C76 1.387 . S
N78 Co69 2.022 . S
N78 C75 1.351 . S
N78 N79 1.365 . S
N79 C76 1.341 . S
N79 N78 1.365 . S
N79 H99 0.862 . S
C80 C75 1.501 . S
C80 H81 0.961 . S
C80 H82 0.961 . S
C80 H83 0.960 1_554 S
H81 C80 0.961 . S
H82 C80 0.961 . S
H83 C80 0.960 1_556 S
C84 N85 1.342 . S
C84 C88 1.401 . S
C84 C89 1.499 . S
N85 Co68 1.989 . S
N85 C84 1.342 . S
N85 N86 1.388 . S
N86 Co69 1.993 . S
N86 N85 1.388 . S
N86 C87 1.346 . S
C87 N86 1.346 . S
C87 C88 1.396 . S
C87 C97 1.510 . S
C88 C84 1.401 . S
C88 C87 1.396 . S
C89 C84 1.499 . S
C89 H90 0.959 . S
C89 H91 0.960 . S
C89 H92 0.961 . S
H90 C89 0.959 . S
H91 C89 0.960 . S
H92 C89 0.961 . S
O93 Co68 1.967 . S
O93 C101 1.258 . S
O94 Co69 1.941 . S
O94 C101 1.266 . S
H95 C97 0.959 . S
H96 C97 0.961 . S
C97 C87 1.510 . S
C97 H95 0.959 . S
C97 H96 0.961 . S
C97 H98 0.960 . S
H98 C97 0.960 . S
H99 N79 0.862 . S
O100 Co68 1.920 . S
O100 C73 1.289 . S
C101 O93 1.258 . S
C101 O94 1.266 . S
Co102 O105 1.970 . S
Co102 N119 1.989 . S
Co102 O127 1.967 . S
Co102 O134 1.920 . S
Co103 O106 1.966 . S
Co103 N112 2.022 . S
Co103 N120 1.993 . S
Co103 O128 1.941 . S
C104 O105 1.258 . S
C104 O106 1.263 . S
O105 Co102 1.970 . S
O105 C104 1.258 . S
O106 Co103 1.966 . S
O106 C104 1.263 . S
C107 O108 1.235 . S
C107 O134 1.289 . S
O108 C107 1.235 . S
C109 C111 1.400 . S
C109 N112 1.351 . S
C109 C114 1.501 . S
C110 C111 1.387 . S
C110 N113 1.341 . S
C111 C109 1.400 . S
C111 C110 1.387 . S
N112 Co103 2.022 . S
N112 C109 1.351 . S
N112 N113 1.365 . S
N113 C110 1.341 . S
N113 N112 1.365 . S
N113 H133 0.862 . S
C114 C109 1.501 . S
C114 H115 0.961 . S
C114 H116 0.961 . S
C114 H117 0.960 . S
H115 C114 0.961 . S
H116 C114 0.961 . S
H117 C114 0.960 . S
C118 N119 1.342 . S
C118 C122 1.401 . S
C118 C123 1.499 . S
N119 Co102 1.989 . S
N119 C118 1.342 . S
N119 N120 1.388 . S
N120 Co103 1.993 . S
N120 N119 1.388 . S
N120 C121 1.346 . S
C121 N120 1.346 . S
C121 C122 1.396 . S
C121 C131 1.510 . S
C122 C118 1.401 . S
C122 C121 1.396 . S
C123 C118 1.499 . S
C123 H124 0.959 . S
C123 H125 0.960 . S
C123 H126 0.961 . S
H124 C123 0.959 . S
H125 C123 0.960 . S
H126 C123 0.961 . S
O127 Co102 1.967 . S
O127 C135 1.258 . S
O128 Co103 1.941 . S
O128 C135 1.266 . S
H129 C131 0.959 . S
H130 C131 0.961 . S
C131 C121 1.510 . S
C131 H129 0.959 . S
C131 H130 0.961 . S
C131 H132 0.960 . S
H132 C131 0.960 . S
H133 N113 0.862 . S
O134 Co102 1.920 . S
O134 C107 1.289 . S
C135 O127 1.258 . S
C135 O128 1.266 . S
Co136 O139 1.970 . S
Co136 N153 1.989 . S
Co136 O161 1.967 . S
Co136 O168 1.920 . S
Co137 O140 1.966 . S
Co137 N146 2.022 . S
Co137 N154 1.993 . S
Co137 O162 1.941 . S
C138 O139 1.258 . S
C138 O140 1.263 . S
O139 Co136 1.970 . S
O139 C138 1.258 . S
O140 Co137 1.966 . S
O140 C138 1.263 . S
C141 O142 1.235 . S
C141 O168 1.289 . S
O142 C141 1.235 . S
C143 C145 1.400 . S
C143 N146 1.351 . S
C143 C148 1.501 . S
C144 C145 1.387 . S
C144 N147 1.341 . S
C145 C143 1.400 . S
C145 C144 1.387 . S
N146 Co137 2.022 . S
N146 C143 1.351 . S
N146 N147 1.365 . S
N147 C144 1.341 . S
N147 N146 1.365 . S
N147 H167 0.862 . S
C148 C143 1.501 . S
C148 H149 0.961 . S
C148 H150 0.961 . S
C148 H151 0.960 . S
H149 C148 0.961 . S
H150 C148 0.961 . S
H151 C148 0.960 . S
C152 N153 1.342 . S
C152 C156 1.401 . S
C152 C157 1.499 . S
N153 Co136 1.989 . S
N153 C152 1.342 . S
N153 N154 1.388 . S
N154 Co137 1.993 . S
N154 N153 1.388 . S
N154 C155 1.346 . S
C155 N154 1.346 . S
C155 C156 1.396 . S
C155 C165 1.510 . S
C156 C152 1.401 . S
C156 C155 1.396 . S
C157 C152 1.499 . S
C157 H158 0.959 . S
C157 H159 0.960 . S
C157 H160 0.961 . S
H158 C157 0.959 . S
H159 C157 0.960 . S
H160 C157 0.961 . S
O161 Co136 1.967 . S
O161 C169 1.258 . S
O162 Co137 1.941 . S
O162 C169 1.266 . S
H163 C165 0.959 . S
H164 C165 0.961 . S
C165 C155 1.510 . S
C165 H163 0.959 . S
C165 H164 0.961 . S
C165 H166 0.960 . S
H166 C165 0.960 . S
H167 N147 0.862 . S
O168 Co136 1.920 . S
O168 C141 1.289 . S
C169 O161 1.258 . S
C169 O162 1.266 . S
Co170 O173 1.970 . S
Co170 N187 1.989 . S
Co170 O195 1.967 . S
Co170 O202 1.920 . S
Co171 O174 1.966 . S
Co171 N180 2.022 . S
Co171 N188 1.993 . S
Co171 O196 1.941 . S
C172 O173 1.258 . S
C172 O174 1.263 . S
O173 Co170 1.970 . S
O173 C172 1.258 . S
O174 Co171 1.966 . S
O174 C172 1.263 . S
C175 O176 1.235 . S
C175 O202 1.289 . S
O176 C175 1.235 . S
C177 C179 1.400 . S
C177 N180 1.351 . S
C177 C182 1.501 . S
C178 C179 1.387 . S
C178 N181 1.341 . S
C179 C177 1.400 . S
C179 C178 1.387 . S
N180 Co171 2.022 . S
N180 C177 1.351 . S
N180 N181 1.365 . S
N181 C178 1.341 . S
N181 N180 1.365 . S
N181 H201 0.862 . S
C182 C177 1.501 . S
C182 H183 0.961 . S
C182 H184 0.961 . S
C182 H185 0.960 . S
H183 C182 0.961 . S
H184 C182 0.961 . S
H185 C182 0.960 . S
C186 N187 1.342 . S
C186 C190 1.401 . S
C186 C191 1.499 . S
N187 Co170 1.989 . S
N187 C186 1.342 . S
N187 N188 1.388 . S
N188 Co171 1.993 . S
N188 N187 1.388 . S
N188 C189 1.346 . S
C189 N188 1.346 . S
C189 C190 1.396 . S
C189 C199 1.510 . S
C190 C186 1.401 . S
C190 C189 1.396 . S
C191 C186 1.499 . S
C191 H192 0.959 . S
C191 H193 0.960 . S
C191 H194 0.961 . S
H192 C191 0.959 . S
H193 C191 0.960 . S
H194 C191 0.961 . S
O195 Co170 1.967 . S
O195 C203 1.258 . S
O196 Co171 1.941 . S
O196 C203 1.266 . S
H197 C199 0.959 . S
H198 C199 0.961 . S
C199 C189 1.510 . S
C199 H197 0.959 . S
C199 H198 0.961 . S
C199 H200 0.960 . S
H200 C199 0.960 . S
H201 N181 0.862 . S
O202 Co170 1.920 . S
O202 C175 1.289 . S
C203 O195 1.258 . S
C203 O196 1.266 . S
Co204 O207 1.970 . S
Co204 N221 1.989 . S
Co204 O229 1.967 . S
Co204 O236 1.920 . S
Co205 O208 1.966 . S
Co205 N214 2.022 . S
Co205 N222 1.993 . S
Co205 O230 1.941 . S
C206 O207 1.258 . S
C206 O208 1.263 . S
O207 Co204 1.970 . S
O207 C206 1.258 . S
O208 Co205 1.966 . S
O208 C206 1.263 . S
C209 O210 1.235 . S
C209 O236 1.289 . S
O210 C209 1.235 . S
C211 C213 1.400 . S
C211 N214 1.351 . S
C211 C216 1.501 . S
C212 C213 1.387 . S
C212 N215 1.341 . S
C213 C211 1.400 . S
C213 C212 1.387 . S
N214 Co205 2.022 . S
N214 C211 1.351 . S
N214 N215 1.365 . S
N215 C212 1.341 . S
N215 N214 1.365 . S
N215 H235 0.862 . S
C216 C211 1.501 . S
C216 H217 0.961 . S
C216 H218 0.961 . S
C216 H219 0.960 1_556 S
H217 C216 0.961 . S
H218 C216 0.961 . S
H219 C216 0.960 1_554 S
C220 N221 1.342 . S
C220 C224 1.401 . S
C220 C225 1.499 . S
N221 Co204 1.989 . S
N221 C220 1.342 . S
N221 N222 1.388 . S
N222 Co205 1.993 . S
N222 N221 1.388 . S
N222 C223 1.346 . S
C223 N222 1.346 . S
C223 C224 1.396 . S
C223 C233 1.510 . S
C224 C220 1.401 . S
C224 C223 1.396 . S
C225 C220 1.499 . S
C225 H226 0.959 . S
C225 H227 0.960 . S
C225 H228 0.961 . S
H226 C225 0.959 . S
H227 C225 0.960 . S
H228 C225 0.961 . S
O229 Co204 1.967 . S
O229 C237 1.258 . S
O230 Co205 1.941 . S
O230 C237 1.266 . S
H231 C233 0.959 . S
H232 C233 0.961 . S
C233 C223 1.510 . S
C233 H231 0.959 . S
C233 H232 0.961 . S
C233 H234 0.960 . S
H234 C233 0.960 . S
H235 N215 0.862 . S
O236 Co204 1.920 . S
O236 C209 1.289 . S
C237 O229 1.258 . S
C237 O230 1.266 . S
Co238 O241 1.970 . S
Co238 N255 1.989 . S
Co238 O263 1.967 . S
Co238 O270 1.920 . S
Co239 O242 1.966 . S
Co239 N248 2.022 . S
Co239 N256 1.993 . S
Co239 O264 1.941 . S
C240 O241 1.258 . S
C240 O242 1.263 . S
O241 Co238 1.970 . S
O241 C240 1.258 . S
O242 Co239 1.966 . S
O242 C240 1.263 . S
C243 O244 1.235 . S
C243 O270 1.289 . S
O244 C243 1.235 . S
C245 C247 1.400 . S
C245 N248 1.351 . S
C245 C250 1.501 . S
C246 C247 1.387 . S
C246 N249 1.341 . S
C247 C245 1.400 . S
C247 C246 1.387 . S
N248 Co239 2.022 . S
N248 C245 1.351 . S
N248 N249 1.365 . S
N249 C246 1.341 . S
N249 N248 1.365 . S
N249 H269 0.862 . S
C250 C245 1.501 . S
C250 H251 0.961 . S
C250 H252 0.961 . S
C250 H253 0.960 1_556 S
H251 C250 0.961 . S
H252 C250 0.961 . S
H253 C250 0.960 1_554 S
C254 N255 1.342 . S
C254 C258 1.401 . S
C254 C259 1.499 . S
N255 Co238 1.989 . S
N255 C254 1.342 . S
N255 N256 1.388 . S
N256 Co239 1.993 . S
N256 N255 1.388 . S
N256 C257 1.346 . S
C257 N256 1.346 . S
C257 C258 1.396 . S
C257 C267 1.510 . S
C258 C254 1.401 . S
C258 C257 1.396 . S
C259 C254 1.499 . S
C259 H260 0.959 . S
C259 H261 0.960 . S
C259 H262 0.961 . S
H260 C259 0.959 . S
H261 C259 0.960 . S
H262 C259 0.961 . S
O263 Co238 1.967 . S
O263 C271 1.258 . S
O264 Co239 1.941 . S
O264 C271 1.266 . S
H265 C267 0.959 . S
H266 C267 0.961 . S
C267 C257 1.510 . S
C267 H265 0.959 . S
C267 H266 0.961 . S
C267 H268 0.960 . S
H268 C267 0.960 . S
H269 N249 0.862 . S
O270 Co238 1.920 . S
O270 C243 1.289 . S
C271 O263 1.258 . S
C271 O264 1.266 . S
Co272 O275 1.970 . S
Co272 N289 1.989 . S
Co272 O297 1.967 . S
Co272 O304 1.920 . S
Co273 O276 1.966 . S
Co273 N282 2.022 . S
Co273 N290 1.993 . S
Co273 O298 1.941 . S
C274 O275 1.258 . S
C274 O276 1.263 . S
O275 Co272 1.970 . S
O275 C274 1.258 . S
O276 Co273 1.966 . S
O276 C274 1.263 . S
C277 O278 1.235 . S
C277 O304 1.289 . S
O278 C277 1.235 . S
C279 C281 1.400 . S
C279 N282 1.351 . S
C279 C284 1.501 . S
C280 C281 1.387 . S
C280 N283 1.341 . S
C281 C279 1.400 . S
C281 C280 1.387 . S
N282 Co273 2.022 . S
N282 C279 1.351 . S
N282 N283 1.365 . S
N283 C280 1.341 . S
N283 N282 1.365 . S
N283 H303 0.862 . S
C284 C279 1.501 . S
C284 H285 0.961 . S
C284 H286 0.961 . S
C284 H287 0.960 1_556 S
H285 C284 0.961 . S
H286 C284 0.961 . S
H287 C284 0.960 1_554 S
C288 N289 1.342 . S
C288 C292 1.401 . S
C288 C293 1.499 . S
N289 Co272 1.989 . S
N289 C288 1.342 . S
N289 N290 1.388 . S
N290 Co273 1.993 . S
N290 N289 1.388 . S
N290 C291 1.346 . S
C291 N290 1.346 . S
C291 C292 1.396 . S
C291 C301 1.510 . S
C292 C288 1.401 . S
C292 C291 1.396 . S
C293 C288 1.499 . S
C293 H294 0.959 . S
C293 H295 0.960 . S
C293 H296 0.961 . S
H294 C293 0.959 . S
H295 C293 0.960 . S
H296 C293 0.961 . S
O297 Co272 1.967 . S
O297 C305 1.258 . S
O298 Co273 1.941 . S
O298 C305 1.266 . S
H299 C301 0.959 . S
H300 C301 0.961 . S
C301 C291 1.510 . S
C301 H299 0.959 . S
C301 H300 0.961 . S
C301 H302 0.960 . S
H302 C301 0.960 . S
H303 N283 0.862 . S
O304 Co272 1.920 . S
O304 C277 1.289 . S
C305 O297 1.258 . S
C305 O298 1.266 . S
Co306 O309 1.970 . S
Co306 N323 1.989 . S
Co306 O331 1.967 . S
Co306 O338 1.920 . S
Co307 O310 1.966 . S
Co307 N316 2.022 . S
Co307 N324 1.993 . S
Co307 O332 1.941 . S
C308 O309 1.258 . S
C308 O310 1.263 . S
O309 Co306 1.970 . S
O309 C308 1.258 . S
O310 Co307 1.966 . S
O310 C308 1.263 . S
C311 O312 1.235 . S
C311 O338 1.289 . S
O312 C311 1.235 . S
C313 C315 1.400 . S
C313 N316 1.351 . S
C313 C318 1.501 . S
C314 C315 1.387 . S
C314 N317 1.341 . S
C315 C313 1.400 . S
C315 C314 1.387 . S
N316 Co307 2.022 . S
N316 C313 1.351 . S
N316 N317 1.365 . S
N317 C314 1.341 . S
N317 N316 1.365 . S
N317 H337 0.862 . S
C318 C313 1.501 . S
C318 H319 0.961 . S
C318 H320 0.961 . S
C318 H321 0.960 . S
H319 C318 0.961 . S
H320 C318 0.961 . S
H321 C318 0.960 . S
C322 N323 1.342 . S
C322 C326 1.401 . S
C322 C327 1.499 . S
N323 Co306 1.989 . S
N323 C322 1.342 . S
N323 N324 1.388 . S
N324 Co307 1.993 . S
N324 N323 1.388 . S
N324 C325 1.346 . S
C325 N324 1.346 . S
C325 C326 1.396 . S
C325 C335 1.510 . S
C326 C322 1.401 . S
C326 C325 1.396 . S
C327 C322 1.499 . S
C327 H328 0.959 . S
C327 H329 0.960 . S
C327 H330 0.961 . S
H328 C327 0.959 . S
H329 C327 0.960 . S
H330 C327 0.961 . S
O331 Co306 1.967 . S
O331 C339 1.258 . S
O332 Co307 1.941 . S
O332 C339 1.266 . S
H333 C335 0.959 . S
H334 C335 0.961 . S
C335 C325 1.510 . S
C335 H333 0.959 . S
C335 H334 0.961 . S
C335 H336 0.960 . S
H336 C335 0.960 . S
H337 N317 0.862 . S
O338 Co306 1.920 . S
O338 C311 1.289 . S
C339 O331 1.258 . S
C339 O332 1.266 . S
Co340 O343 1.970 . S
Co340 N357 1.989 . S
Co340 O365 1.967 . S
Co340 O372 1.920 . S
Co341 O344 1.966 . S
Co341 N350 2.022 . S
Co341 N358 1.993 . S
Co341 O366 1.941 . S
C342 O343 1.258 . S
C342 O344 1.263 . S
O343 Co340 1.970 . S
O343 C342 1.258 . S
O344 Co341 1.966 . S
O344 C342 1.263 . S
C345 O346 1.235 . S
C345 O372 1.289 . S
O346 C345 1.235 . S
C347 C349 1.400 . S
C347 N350 1.351 . S
C347 C352 1.501 . S
C348 C349 1.387 . S
C348 N351 1.341 . S
C349 C347 1.400 . S
C349 C348 1.387 . S
N350 Co341 2.022 . S
N350 C347 1.351 . S
N350 N351 1.365 . S
N351 C348 1.341 . S
N351 N350 1.365 . S
N351 H371 0.862 . S
C352 C347 1.501 . S
C352 H353 0.961 . S
C352 H354 0.961 . S
C352 H355 0.960 . S
H353 C352 0.961 . S
H354 C352 0.961 . S
H355 C352 0.960 . S
C356 N357 1.342 . S
C356 C360 1.401 . S
C356 C361 1.499 . S
N357 Co340 1.989 . S
N357 C356 1.342 . S
N357 N358 1.388 . S
N358 Co341 1.993 . S
N358 N357 1.388 . S
N358 C359 1.346 . S
C359 N358 1.346 . S
C359 C360 1.396 . S
C359 C369 1.510 . S
C360 C356 1.401 . S
C360 C359 1.396 . S
C361 C356 1.499 . S
C361 H362 0.959 . S
C361 H363 0.960 . S
C361 H364 0.961 . S
H362 C361 0.959 . S
H363 C361 0.960 . S
H364 C361 0.961 . S
O365 Co340 1.967 . S
O365 C373 1.258 . S
O366 Co341 1.941 . S
O366 C373 1.266 . S
H367 C369 0.959 . S
H368 C369 0.961 . S
C369 C359 1.510 . S
C369 H367 0.959 . S
C369 H368 0.961 . S
C369 H370 0.960 . S
H370 C369 0.960 . S
H371 N351 0.862 . S
O372 Co340 1.920 . S
O372 C345 1.289 . S
C373 O365 1.258 . S
C373 O366 1.266 . S
Co374 O377 1.970 . S
Co374 N391 1.989 . S
Co374 O399 1.967 . S
Co374 O406 1.920 . S
Co375 O378 1.966 . S
Co375 N384 2.022 . S
Co375 N392 1.993 . S
Co375 O400 1.941 . S
C376 O377 1.258 . S
C376 O378 1.263 . S
O377 Co374 1.970 . S
O377 C376 1.258 . S
O378 Co375 1.966 . S
O378 C376 1.263 . S
C379 O380 1.235 . S
C379 O406 1.289 . S
O380 C379 1.235 . S
C381 C383 1.400 . S
C381 N384 1.351 . S
C381 C386 1.501 . S
C382 C383 1.387 . S
C382 N385 1.341 . S
C383 C381 1.400 . S
C383 C382 1.387 . S
N384 Co375 2.022 . S
N384 C381 1.351 . S
N384 N385 1.365 . S
N385 C382 1.341 . S
N385 N384 1.365 . S
N385 H405 0.862 . S
C386 C381 1.501 . S
C386 H387 0.961 . S
C386 H388 0.961 . S
C386 H389 0.960 . S
H387 C386 0.961 . S
H388 C386 0.961 . S
H389 C386 0.960 . S
C390 N391 1.342 . S
C390 C394 1.401 . S
C390 C395 1.499 . S
N391 Co374 1.989 . S
N391 C390 1.342 . S
N391 N392 1.388 . S
N392 Co375 1.993 . S
N392 N391 1.388 . S
N392 C393 1.346 . S
C393 N392 1.346 . S
C393 C394 1.396 . S
C393 C403 1.510 . S
C394 C390 1.401 . S
C394 C393 1.396 . S
C395 C390 1.499 . S
C395 H396 0.959 . S
C395 H397 0.960 . S
C395 H398 0.961 . S
H396 C395 0.959 . S
H397 C395 0.960 . S
H398 C395 0.961 . S
O399 Co374 1.967 . S
O399 C407 1.258 . S
O400 Co375 1.941 . S
O400 C407 1.266 . S
H401 C403 0.959 . S
H402 C403 0.961 . S
C403 C393 1.510 . S
C403 H401 0.959 . S
C403 H402 0.961 . S
C403 H404 0.960 . S
H404 C403 0.960 . S
H405 N385 0.862 . S
O406 Co374 1.920 . S
O406 C379 1.289 . S
C407 O399 1.258 . S
C407 O400 1.266 . S
Co408 O411 1.970 . S
Co408 N425 1.989 . S
Co408 O433 1.967 . S
Co408 O440 1.920 . S
Co409 O412 1.966 . S
Co409 N418 2.022 . S
Co409 N426 1.993 . S
Co409 O434 1.941 . S
C410 O411 1.258 . S
C410 O412 1.263 . S
O411 Co408 1.970 . S
O411 C410 1.258 . S
O412 Co409 1.966 . S
O412 C410 1.263 . S
C413 O414 1.204 1_655 S
C413 O440 1.289 . S
O414 C413 1.204 1_455 S
C415 C417 1.400 . S
C415 N418 1.351 . S
C415 C420 1.501 . S
C416 C417 1.387 . S
C416 N419 1.341 . S
C417 C415 1.400 . S
C417 C416 1.387 . S
N418 Co409 2.022 . S
N418 C415 1.351 . S
N418 N419 1.365 . S
N419 C416 1.341 . S
N419 N418 1.365 . S
N419 H439 0.862 . S
C420 C415 1.501 . S
C420 H421 0.961 . S
C420 H422 0.961 . S
C420 H423 0.960 . S
H421 C420 0.961 . S
H422 C420 0.961 . S
H423 C420 0.960 . S
C424 N425 1.342 . S
C424 C428 1.401 . S
C424 C429 1.499 . S
N425 Co408 1.989 . S
N425 C424 1.342 . S
N425 N426 1.388 . S
N426 Co409 1.993 . S
N426 N425 1.388 . S
N426 C427 1.346 . S
C427 N426 1.346 . S
C427 C428 1.396 . S
C427 C437 1.510 . S
C428 C424 1.401 . S
C428 C427 1.396 . S
C429 C424 1.499 . S
C429 H430 0.959 . S
C429 H431 0.960 . S
C429 H432 0.961 . S
H430 C429 0.959 . S
H431 C429 0.960 . S
H432 C429 0.961 . S
O433 Co408 1.967 . S
O433 C441 1.258 . S
O434 Co409 1.941 . S
O434 C441 1.266 . S
H435 C437 0.959 . S
H436 C437 0.961 . S
C437 C427 1.510 . S
C437 H435 0.959 . S
C437 H436 0.961 . S
C437 H438 0.960 . S
H438 C437 0.960 . S
H439 N419 0.862 . S
O440 Co408 1.920 . S
O440 C413 1.289 . S
C441 O433 1.258 . S
C441 O434 1.266 . S
Co442 O445 1.970 . S
Co442 N459 1.989 . S
Co442 O467 1.967 . S
Co442 O474 1.920 . S
Co443 O446 1.966 . S
Co443 N452 2.022 . S
Co443 N460 1.993 . S
Co443 O468 1.941 . S
C444 O445 1.258 . S
C444 O446 1.263 . S
O445 Co442 1.970 . S
O445 C444 1.258 . S
O446 Co443 1.966 . S
O446 C444 1.263 . S
C447 O448 1.235 . S
C447 O474 1.289 . S
O448 C447 1.235 . S
C449 C451 1.400 . S
C449 N452 1.351 . S
C449 C454 1.501 . S
C450 C451 1.387 . S
C450 N453 1.341 . S
C451 C449 1.400 . S
C451 C450 1.387 . S
N452 Co443 2.022 . S
N452 C449 1.351 . S
N452 N453 1.365 . S
N453 C450 1.341 . S
N453 N452 1.365 . S
N453 H473 0.862 . S
C454 C449 1.501 . S
C454 H455 0.961 . S
C454 H456 0.961 . S
C454 H457 0.960 . S
H455 C454 0.961 . S
H456 C454 0.961 . S
H457 C454 0.960 . S
C458 N459 1.342 . S
C458 C462 1.401 . S
C458 C463 1.499 . S
N459 Co442 1.989 . S
N459 C458 1.342 . S
N459 N460 1.388 . S
N460 Co443 1.993 . S
N460 N459 1.388 . S
N460 C461 1.346 . S
C461 N460 1.346 . S
C461 C462 1.396 . S
C461 C471 1.510 . S
C462 C458 1.401 . S
C462 C461 1.396 . S
C463 C458 1.499 . S
C463 H464 0.959 . S
C463 H465 0.960 . S
C463 H466 0.961 . S
H464 C463 0.959 . S
H465 C463 0.960 . S
H466 C463 0.961 . S
O467 Co442 1.967 . S
O467 C475 1.258 . S
O468 Co443 1.941 . S
O468 C475 1.266 . S
H469 C471 0.959 . S
H470 C471 0.961 . S
C471 C461 1.510 . S
C471 H469 0.959 . S
C471 H470 0.961 . S
C471 H472 0.960 . S
H472 C471 0.960 . S
H473 N453 0.862 . S
O474 Co442 1.920 . S
O474 C447 1.289 . S
C475 O467 1.258 . S
C475 O468 1.266 . S
Co476 O479 1.970 . S
Co476 N493 1.989 . S
Co476 O501 1.967 . S
Co476 O508 1.920 . S
Co477 O480 1.966 . S
Co477 N486 2.022 . S
Co477 N494 1.993 . S
Co477 O502 1.941 . S
C478 O479 1.258 . S
C478 O480 1.263 . S
O479 Co476 1.970 . S
O479 C478 1.258 . S
O480 Co477 1.966 . S
O480 C478 1.263 . S
C481 O482 1.231 1_545 S
C481 O508 1.289 . S
O482 C481 1.231 1_565 S
C483 C485 1.400 . S
C483 N486 1.351 . S
C483 C488 1.501 . S
C484 C485 1.387 . S
C484 N487 1.341 . S
C485 C483 1.400 . S
C485 C484 1.387 . S
N486 Co477 2.022 . S
N486 C483 1.351 . S
N486 N487 1.365 . S
N487 C484 1.341 . S
N487 N486 1.365 . S
N487 H507 0.862 . S
C488 C483 1.501 . S
C488 H489 0.961 . S
C488 H490 0.961 . S
C488 H491 0.960 . S
H489 C488 0.961 . S
H490 C488 0.961 . S
H491 C488 0.960 . S
C492 N493 1.342 . S
C492 C496 1.401 . S
C492 C497 1.499 . S
N493 Co476 1.989 . S
N493 C492 1.342 . S
N493 N494 1.388 . S
N494 Co477 1.993 . S
N494 N493 1.388 . S
N494 C495 1.346 . S
C495 N494 1.346 . S
C495 C496 1.396 . S
C495 C505 1.510 . S
C496 C492 1.401 . S
C496 C495 1.396 . S
C497 C492 1.499 . S
C497 H498 0.959 . S
C497 H499 0.960 . S
C497 H500 0.961 . S
H498 C497 0.959 . S
H499 C497 0.960 . S
H500 C497 0.961 . S
O501 Co476 1.967 . S
O501 C509 1.258 . S
O502 Co477 1.941 . S
O502 C509 1.266 . S
H503 C505 0.959 . S
H504 C505 0.961 . S
C505 C495 1.510 . S
C505 H503 0.959 . S
C505 H504 0.961 . S
C505 H506 0.960 . S
H506 C505 0.960 . S
H507 N487 0.862 . S
O508 Co476 1.920 . S
O508 C481 1.289 . S
C509 O501 1.258 . S
C509 O502 1.266 . S
Co510 O513 1.970 . S
Co510 N527 1.989 . S
Co510 O535 1.967 . S
Co510 O542 1.920 . S
Co511 O514 1.966 . S
Co511 N520 2.022 . S
Co511 N528 1.993 . S
Co511 O536 1.941 . S
C512 O513 1.258 . S
C512 O514 1.263 . S
O513 Co510 1.970 . S
O513 C512 1.258 . S
O514 Co511 1.966 . S
O514 C512 1.263 . S
C515 O516 1.235 . S
C515 O542 1.289 . S
O516 C515 1.235 . S
C517 C519 1.400 . S
C517 N520 1.351 . S
C517 C522 1.501 . S
C518 C519 1.387 . S
C518 N521 1.341 . S
C519 C517 1.400 . S
C519 C518 1.387 . S
N520 Co511 2.022 . S
N520 C517 1.351 . S
N520 N521 1.365 . S
N521 C518 1.341 . S
N521 N520 1.365 . S
N521 H541 0.862 . S
C522 C517 1.501 . S
C522 H523 0.961 . S
C522 H524 0.961 . S
C522 H525 0.960 . S
H523 C522 0.961 . S
H524 C522 0.961 . S
H525 C522 0.960 . S
C526 N527 1.342 . S
C526 C530 1.401 . S
C526 C531 1.499 . S
N527 Co510 1.989 . S
N527 C526 1.342 . S
N527 N528 1.388 . S
N528 Co511 1.993 . S
N528 N527 1.388 . S
N528 C529 1.346 . S
C529 N528 1.346 . S
C529 C530 1.396 . S
C529 C539 1.510 . S
C530 C526 1.401 . S
C530 C529 1.396 . S
C531 C526 1.499 . S
C531 H532 0.959 . S
C531 H533 0.960 . S
C531 H534 0.961 . S
H532 C531 0.959 . S
H533 C531 0.960 . S
H534 C531 0.961 . S
O535 Co510 1.967 . S
O535 C543 1.258 . S
O536 Co511 1.941 . S
O536 C543 1.266 . S
H537 C539 0.959 . S
H538 C539 0.961 . S
C539 C529 1.510 . S
C539 H537 0.959 . S
C539 H538 0.961 . S
C539 H540 0.960 . S
H540 C539 0.960 . S
H541 N521 0.862 . S
O542 Co510 1.920 . S
O542 C515 1.289 . S
C543 O535 1.258 . S
C543 O536 1.266 . S
Co544 O547 1.970 . S
Co544 N561 1.989 . S
Co544 O569 1.967 . S
Co544 O576 1.920 . S
Co545 O548 1.966 . S
Co545 N554 2.022 . S
Co545 N562 1.993 . S
Co545 O570 1.941 . S
C546 O547 1.258 . S
C546 O548 1.263 . S
O547 Co544 1.970 . S
O547 C546 1.258 . S
O548 Co545 1.966 . S
O548 C546 1.263 . S
C549 O550 1.235 . S
C549 O576 1.289 . S
O550 C549 1.235 . S
C551 C553 1.400 . S
C551 N554 1.351 . S
C551 C556 1.501 . S
C552 C553 1.387 . S
C552 N555 1.341 . S
C553 C551 1.400 . S
C553 C552 1.387 . S
N554 Co545 2.022 . S
N554 C551 1.351 . S
N554 N555 1.365 . S
N555 C552 1.341 . S
N555 N554 1.365 . S
N555 H575 0.862 . S
C556 C551 1.501 . S
C556 H557 0.961 . S
C556 H558 0.961 . S
C556 H559 0.960 . S
H557 C556 0.961 . S
H558 C556 0.961 . S
H559 C556 0.960 . S
C560 N561 1.342 . S
C560 C564 1.401 . S
C560 C565 1.499 . S
N561 Co544 1.989 . S
N561 C560 1.342 . S
N561 N562 1.388 . S
N562 Co545 1.993 . S
N562 N561 1.388 . S
N562 C563 1.346 . S
C563 N562 1.346 . S
C563 C564 1.396 . S
C563 C573 1.510 . S
C564 C560 1.401 . S
C564 C563 1.396 . S
C565 C560 1.499 . S
C565 H566 0.959 . S
C565 H567 0.960 . S
C565 H568 0.961 . S
H566 C565 0.959 . S
H567 C565 0.960 . S
H568 C565 0.961 . S
O569 Co544 1.967 . S
O569 C577 1.258 . S
O570 Co545 1.941 . S
O570 C577 1.266 . S
H571 C573 0.959 . S
H572 C573 0.961 . S
C573 C563 1.510 . S
C573 H571 0.959 . S
C573 H572 0.961 . S
C573 H574 0.960 . S
H574 C573 0.960 . S
H575 N555 0.862 . S
O576 Co544 1.920 . S
O576 C549 1.289 . S
C577 O569 1.258 . S
C577 O570 1.266 . S
Co578 O581 1.970 . S
Co578 N595 1.989 . S
Co578 O603 1.967 . S
Co578 O610 1.920 . S
Co579 O582 1.966 . S
Co579 N588 2.022 . S
Co579 N596 1.993 . S
Co579 O604 1.941 . S
C580 O581 1.258 . S
C580 O582 1.263 . S
O581 Co578 1.970 . S
O581 C580 1.258 . S
O582 Co579 1.966 . S
O582 C580 1.263 . S
C583 O584 1.235 . S
C583 O610 1.289 . S
O584 C583 1.235 . S
C585 C587 1.400 . S
C585 N588 1.351 . S
C585 C590 1.501 . S
C586 C587 1.387 . S
C586 N589 1.341 . S
C587 C585 1.400 . S
C587 C586 1.387 . S
N588 Co579 2.022 . S
N588 C585 1.351 . S
N588 N589 1.365 . S
N589 C586 1.341 . S
N589 N588 1.365 . S
N589 H609 0.862 . S
C590 C585 1.501 . S
C590 H591 0.961 . S
C590 H592 0.961 . S
C590 H593 0.960 . S
H591 C590 0.961 . S
H592 C590 0.961 . S
H593 C590 0.960 . S
C594 N595 1.342 . S
C594 C598 1.401 . S
C594 C599 1.499 . S
N595 Co578 1.989 . S
N595 C594 1.342 . S
N595 N596 1.388 . S
N596 Co579 1.993 . S
N596 N595 1.388 . S
N596 C597 1.346 . S
C597 N596 1.346 . S
C597 C598 1.396 . S
C597 C607 1.510 . S
C598 C594 1.401 . S
C598 C597 1.396 . S
C599 C594 1.499 . S
C599 H600 0.959 . S
C599 H601 0.960 . S
C599 H602 0.961 . S
H600 C599 0.959 . S
H601 C599 0.960 . S
H602 C599 0.961 . S
O603 Co578 1.967 . S
O603 C611 1.258 . S
O604 Co579 1.941 . S
O604 C611 1.266 . S
H605 C607 0.959 . S
H606 C607 0.961 . S
C607 C597 1.510 . S
C607 H605 0.959 . S
C607 H606 0.961 . S
C607 H608 0.960 . S
H608 C607 0.960 . S
H609 N589 0.862 . S
O610 Co578 1.920 . S
O610 C583 1.289 . S
C611 O603 1.258 . S
C611 O604 1.266 . S
Co612 O615 1.970 . S
Co612 N629 1.989 . S
Co612 O637 1.967 . S
Co612 O644 1.920 . S
Co613 O616 1.966 . S
Co613 N622 2.022 . S
Co613 N630 1.993 . S
Co613 O638 1.941 . S
C614 O615 1.258 . S
C614 O616 1.263 . S
O615 Co612 1.970 . S
O615 C614 1.258 . S
O616 Co613 1.966 . S
O616 C614 1.263 . S
C617 O618 1.235 . S
C617 O644 1.289 . S
O618 C617 1.235 . S
C619 C621 1.400 . S
C619 N622 1.351 . S
C619 C624 1.501 . S
C620 C621 1.387 . S
C620 N623 1.341 . S
C621 C619 1.400 . S
C621 C620 1.387 . S
N622 Co613 2.022 . S
N622 C619 1.351 . S
N622 N623 1.365 . S
N623 C620 1.341 . S
N623 N622 1.365 . S
N623 H643 0.862 . S
C624 C619 1.501 . S
C624 H625 0.961 . S
C624 H626 0.961 . S
C624 H627 0.960 . S
H625 C624 0.961 . S
H626 C624 0.961 . S
H627 C624 0.960 . S
C628 N629 1.342 . S
C628 C632 1.401 . S
C628 C633 1.499 . S
N629 Co612 1.989 . S
N629 C628 1.342 . S
N629 N630 1.388 . S
N630 Co613 1.993 . S
N630 N629 1.388 . S
N630 C631 1.346 . S
C631 N630 1.346 . S
C631 C632 1.396 . S
C631 C641 1.510 . S
C632 C628 1.401 . S
C632 C631 1.396 . S
C633 C628 1.499 . S
C633 H634 0.959 . S
C633 H635 0.960 . S
C633 H636 0.961 . S
H634 C633 0.959 . S
H635 C633 0.960 . S
H636 C633 0.961 . S
O637 Co612 1.967 . S
O637 C645 1.258 . S
O638 Co613 1.941 . S
O638 C645 1.266 . S
H639 C641 0.959 . S
H640 C641 0.961 . S
C641 C631 1.510 . S
C641 H639 0.959 . S
C641 H640 0.961 . S
C641 H642 0.960 . S
H642 C641 0.960 . S
H643 N623 0.862 . S
O644 Co612 1.920 . S
O644 C617 1.289 . S
C645 O637 1.258 . S
C645 O638 1.266 . S
Co646 O649 1.970 . S
Co646 N663 1.989 . S
Co646 O671 1.967 . S
Co646 O678 1.920 . S
Co647 O650 1.966 . S
Co647 N656 2.022 . S
Co647 N664 1.993 . S
Co647 O672 1.941 . S
C648 O649 1.258 . S
C648 O650 1.263 . S
O649 Co646 1.970 . S
O649 C648 1.258 . S
O650 Co647 1.966 . S
O650 C648 1.263 . S
C651 O652 1.235 . S
C651 O678 1.289 . S
O652 C651 1.235 . S
C653 C655 1.400 . S
C653 N656 1.351 . S
C653 C658 1.501 . S
C654 C655 1.387 . S
C654 N657 1.341 . S
C655 C653 1.400 . S
C655 C654 1.387 . S
N656 Co647 2.022 . S
N656 C653 1.351 . S
N656 N657 1.365 . S
N657 C654 1.341 . S
N657 N656 1.365 . S
N657 H677 0.862 . S
C658 C653 1.501 . S
C658 H659 0.961 . S
C658 H660 0.961 . S
C658 H661 0.960 . S
H659 C658 0.961 . S
H660 C658 0.961 . S
H661 C658 0.960 . S
C662 N663 1.342 . S
C662 C666 1.401 . S
C662 C667 1.499 . S
N663 Co646 1.989 . S
N663 C662 1.342 . S
N663 N664 1.388 . S
N664 Co647 1.993 . S
N664 N663 1.388 . S
N664 C665 1.346 . S
C665 N664 1.346 . S
C665 C666 1.396 . S
C665 C675 1.510 . S
C666 C662 1.401 . S
C666 C665 1.396 . S
C667 C662 1.499 . S
C667 H668 0.959 . S
C667 H669 0.960 . S
C667 H670 0.961 . S
H668 C667 0.959 . S
H669 C667 0.960 . S
H670 C667 0.961 . S
O671 Co646 1.967 . S
O671 C679 1.258 . S
O672 Co647 1.941 . S
O672 C679 1.266 . S
H673 C675 0.959 . S
H674 C675 0.961 . S
C675 C665 1.510 . S
C675 H673 0.959 . S
C675 H674 0.961 . S
C675 H676 0.960 . S
H676 C675 0.960 . S
H677 N657 0.862 . S
O678 Co646 1.920 . S
O678 C651 1.289 . S
C679 O671 1.258 . S
C679 O672 1.266 . S
Co680 O683 1.970 . S
Co680 N697 1.989 . S
Co680 O705 1.967 . S
Co680 O712 1.920 . S
Co681 O684 1.966 . S
Co681 N690 2.022 . S
Co681 N698 1.993 . S
Co681 O706 1.941 . S
C682 O683 1.258 . S
C682 O684 1.263 . S
O683 Co680 1.970 . S
O683 C682 1.258 . S
O684 Co681 1.966 . S
O684 C682 1.263 . S
C685 O686 1.235 . S
C685 O712 1.289 . S
O686 C685 1.235 . S
C687 C689 1.400 . S
C687 N690 1.351 . S
C687 C692 1.501 . S
C688 C689 1.387 . S
C688 N691 1.341 . S
C689 C687 1.400 . S
C689 C688 1.387 . S
N690 Co681 2.022 . S
N690 C687 1.351 . S
N690 N691 1.365 . S
N691 C688 1.341 . S
N691 N690 1.365 . S
N691 H711 0.862 . S
C692 C687 1.501 . S
C692 H693 0.961 . S
C692 H694 0.961 . S
C692 H695 0.960 . S
H693 C692 0.961 . S
H694 C692 0.961 . S
H695 C692 0.960 . S
C696 N697 1.342 . S
C696 C700 1.401 . S
C696 C701 1.499 . S
N697 Co680 1.989 . S
N697 C696 1.342 . S
N697 N698 1.388 . S
N698 Co681 1.993 . S
N698 N697 1.388 . S
N698 C699 1.346 . S
C699 N698 1.346 . S
C699 C700 1.396 . S
C699 C709 1.510 . S
C700 C696 1.401 . S
C700 C699 1.396 . S
C701 C696 1.499 . S
C701 H702 0.959 . S
C701 H703 0.960 . S
C701 H704 0.961 . S
H702 C701 0.959 . S
H703 C701 0.960 . S
H704 C701 0.961 . S
O705 Co680 1.967 . S
O705 C713 1.258 . S
O706 Co681 1.941 . S
O706 C713 1.266 . S
H707 C709 0.959 . S
H708 C709 0.961 . S
C709 C699 1.510 . S
C709 H707 0.959 . S
C709 H708 0.961 . S
C709 H710 0.960 . S
H710 C709 0.960 . S
H711 N691 0.862 . S
O712 Co680 1.920 . S
O712 C685 1.289 . S
C713 O705 1.258 . S
C713 O706 1.266 . S
Co714 O717 1.970 . S
Co714 N731 1.989 . S
Co714 O739 1.967 . S
Co714 O746 1.920 . S
Co715 O718 1.966 . S
Co715 N724 2.022 . S
Co715 N732 1.993 . S
Co715 O740 1.941 . S
C716 O717 1.258 . S
C716 O718 1.263 . S
O717 Co714 1.970 . S
O717 C716 1.258 . S
O718 Co715 1.966 . S
O718 C716 1.263 . S
C719 O720 1.204 1_545 S
C719 O746 1.289 . S
O720 C719 1.204 1_565 S
C721 C723 1.400 . S
C721 N724 1.351 . S
C721 C726 1.501 . S
C722 C723 1.387 . S
C722 N725 1.341 . S
C723 C721 1.400 . S
C723 C722 1.387 . S
N724 Co715 2.022 . S
N724 C721 1.351 . S
N724 N725 1.365 . S
N725 C722 1.341 . S
N725 N724 1.365 . S
N725 H745 0.862 . S
C726 C721 1.501 . S
C726 H727 0.961 . S
C726 H728 0.961 . S
C726 H729 0.960 . S
H727 C726 0.961 . S
H728 C726 0.961 . S
H729 C726 0.960 . S
C730 N731 1.342 . S
C730 C734 1.401 . S
C730 C735 1.499 . S
N731 Co714 1.989 . S
N731 C730 1.342 . S
N731 N732 1.388 . S
N732 Co715 1.993 . S
N732 N731 1.388 . S
N732 C733 1.346 . S
C733 N732 1.346 . S
C733 C734 1.396 . S
C733 C743 1.510 . S
C734 C730 1.401 . S
C734 C733 1.396 . S
C735 C730 1.499 . S
C735 H736 0.959 . S
C735 H737 0.960 . S
C735 H738 0.961 . S
H736 C735 0.959 . S
H737 C735 0.960 . S
H738 C735 0.961 . S
O739 Co714 1.967 . S
O739 C747 1.258 . S
O740 Co715 1.941 . S
O740 C747 1.266 . S
H741 C743 0.959 . S
H742 C743 0.961 . S
C743 C733 1.510 . S
C743 H741 0.959 . S
C743 H742 0.961 . S
C743 H744 0.960 . S
H744 C743 0.960 . S
H745 N725 0.862 . S
O746 Co714 1.920 . S
O746 C719 1.289 . S
C747 O739 1.258 . S
C747 O740 1.266 . S
Co748 O751 1.970 . S
Co748 N765 1.989 . S
Co748 O773 1.967 . S
Co748 O780 1.920 . S
Co749 O752 1.966 . S
Co749 N758 2.022 . S
Co749 N766 1.993 . S
Co749 O774 1.941 . S
C750 O751 1.258 . S
C750 O752 1.263 . S
O751 Co748 1.970 . S
O751 C750 1.258 . S
O752 Co749 1.966 . S
O752 C750 1.263 . S
C753 O754 1.231 1_655 S
C753 O780 1.289 . S
O754 C753 1.231 1_455 S
C755 C757 1.400 . S
C755 N758 1.351 . S
C755 C760 1.501 . S
C756 C757 1.387 . S
C756 N759 1.341 . S
C757 C755 1.400 . S
C757 C756 1.387 . S
N758 Co749 2.022 . S
N758 C755 1.351 . S
N758 N759 1.365 . S
N759 C756 1.341 . S
N759 N758 1.365 . S
N759 H779 0.862 . S
C760 C755 1.501 . S
C760 H761 0.961 . S
C760 H762 0.961 . S
C760 H763 0.960 . S
H761 C760 0.961 . S
H762 C760 0.961 . S
H763 C760 0.960 . S
C764 N765 1.342 . S
C764 C768 1.401 . S
C764 C769 1.499 . S
N765 Co748 1.989 . S
N765 C764 1.342 . S
N765 N766 1.388 . S
N766 Co749 1.993 . S
N766 N765 1.388 . S
N766 C767 1.346 . S
C767 N766 1.346 . S
C767 C768 1.396 . S
C767 C777 1.510 . S
C768 C764 1.401 . S
C768 C767 1.396 . S
C769 C764 1.499 . S
C769 H770 0.959 . S
C769 H771 0.960 . S
C769 H772 0.961 . S
H770 C769 0.959 . S
H771 C769 0.960 . S
H772 C769 0.961 . S
O773 Co748 1.967 . S
O773 C781 1.258 . S
O774 Co749 1.941 . S
O774 C781 1.266 . S
H775 C777 0.959 . S
H776 C777 0.961 . S
C777 C767 1.510 . S
C777 H775 0.959 . S
C777 H776 0.961 . S
C777 H778 0.960 . S
H778 C777 0.960 . S
H779 N759 0.862 . S
O780 Co748 1.920 . S
O780 C753 1.289 . S
C781 O773 1.258 . S
C781 O774 1.266 . S
Co782 O785 1.970 . S
Co782 N799 1.989 . S
Co782 O807 1.967 . S
Co782 O814 1.920 . S
Co783 O786 1.966 . S
Co783 N792 2.022 . S
Co783 N800 1.993 . S
Co783 O808 1.941 . S
C784 O785 1.258 . S
C784 O786 1.263 . S
O785 Co782 1.970 . S
O785 C784 1.258 . S
O786 Co783 1.966 . S
O786 C784 1.263 . S
C787 O788 1.235 . S
C787 O814 1.289 . S
O788 C787 1.235 . S
C789 C791 1.400 . S
C789 N792 1.351 . S
C789 C794 1.501 . S
C790 C791 1.387 . S
C790 N793 1.341 . S
C791 C789 1.400 . S
C791 C790 1.387 . S
N792 Co783 2.022 . S
N792 C789 1.351 . S
N792 N793 1.365 . S
N793 C790 1.341 . S
N793 N792 1.365 . S
N793 H813 0.862 . S
C794 C789 1.501 . S
C794 H795 0.961 . S
C794 H796 0.961 . S
C794 H797 0.960 . S
H795 C794 0.961 . S
H796 C794 0.961 . S
H797 C794 0.960 . S
C798 N799 1.342 . S
C798 C802 1.401 . S
C798 C803 1.499 . S
N799 Co782 1.989 . S
N799 C798 1.342 . S
N799 N800 1.388 . S
N800 Co783 1.993 . S
N800 N799 1.388 . S
N800 C801 1.346 . S
C801 N800 1.346 . S
C801 C802 1.396 . S
C801 C811 1.510 . S
C802 C798 1.401 . S
C802 C801 1.396 . S
C803 C798 1.499 . S
C803 H804 0.959 . S
C803 H805 0.960 . S
C803 H806 0.961 . S
H804 C803 0.959 . S
H805 C803 0.960 . S
H806 C803 0.961 . S
O807 Co782 1.967 . S
O807 C815 1.258 . S
O808 Co783 1.941 . S
O808 C815 1.266 . S
H809 C811 0.959 . S
H810 C811 0.961 . S
C811 C801 1.510 . S
C811 H809 0.959 . S
C811 H810 0.961 . S
C811 H812 0.960 . S
H812 C811 0.960 . S
H813 N793 0.862 . S
O814 Co782 1.920 . S
O814 C787 1.289 . S
C815 O807 1.258 . S
C815 O808 1.266 . S
Co816 O819 1.970 . S
Co816 N833 1.989 . S
Co816 O841 1.967 . S
Co816 O848 1.920 . S
Co817 O820 1.966 . S
Co817 N826 2.022 . S
Co817 N834 1.993 . S
Co817 O842 1.941 . S
C818 O819 1.258 . S
C818 O820 1.263 . S
O819 Co816 1.970 . S
O819 C818 1.258 . S
O820 Co817 1.966 . S
O820 C818 1.263 . S
C821 O822 1.235 . S
C821 O848 1.289 . S
O822 C821 1.235 . S
C823 C825 1.400 . S
C823 N826 1.351 . S
C823 C828 1.501 . S
C824 C825 1.387 . S
C824 N827 1.341 . S
C825 C823 1.400 . S
C825 C824 1.387 . S
N826 Co817 2.022 . S
N826 C823 1.351 . S
N826 N827 1.365 . S
N827 C824 1.341 . S
N827 N826 1.365 . S
N827 H847 0.862 . S
C828 C823 1.501 . S
C828 H829 0.961 . S
C828 H830 0.961 . S
C828 H831 0.960 . S
H829 C828 0.961 . S
H830 C828 0.961 . S
H831 C828 0.960 . S
C832 N833 1.342 . S
C832 C836 1.401 . S
C832 C837 1.499 . S
N833 Co816 1.989 . S
N833 C832 1.342 . S
N833 N834 1.388 . S
N834 Co817 1.993 . S
N834 N833 1.388 . S
N834 C835 1.346 . S
C835 N834 1.346 . S
C835 C836 1.396 . S
C835 C845 1.510 . S
C836 C832 1.401 . S
C836 C835 1.396 . S
C837 C832 1.499 . S
C837 H838 0.959 . S
C837 H839 0.960 . S
C837 H840 0.961 . S
H838 C837 0.959 . S
H839 C837 0.960 . S
H840 C837 0.961 . S
O841 Co816 1.967 . S
O841 C849 1.258 . S
O842 Co817 1.941 . S
O842 C849 1.266 . S
H843 C845 0.959 . S
H844 C845 0.961 . S
C845 C835 1.510 . S
C845 H843 0.959 . S
C845 H844 0.961 . S
C845 H846 0.960 . S
H846 C845 0.960 . S
H847 N827 0.862 . S
O848 Co816 1.920 . S
O848 C821 1.289 . S
C849 O841 1.258 . S
C849 O842 1.266 . S
Co850 O853 1.970 . S
Co850 N867 1.989 . S
Co850 O875 1.967 . S
Co850 O882 1.920 . S
Co851 O854 1.966 . S
Co851 N860 2.022 . S
Co851 N868 1.993 . S
Co851 O876 1.941 . S
C852 O853 1.258 . S
C852 O854 1.263 . S
O853 Co850 1.970 . S
O853 C852 1.258 . S
O854 Co851 1.966 . S
O854 C852 1.263 . S
C855 O856 1.235 . S
C855 O882 1.289 . S
O856 C855 1.235 . S
C857 C859 1.400 . S
C857 N860 1.351 . S
C857 C862 1.501 . S
C858 C859 1.387 . S
C858 N861 1.341 . S
C859 C857 1.400 . S
C859 C858 1.387 . S
N860 Co851 2.022 . S
N860 C857 1.351 . S
N860 N861 1.365 . S
N861 C858 1.341 . S
N861 N860 1.365 . S
N861 H881 0.862 . S
C862 C857 1.501 . S
C862 H863 0.961 . S
C862 H864 0.961 . S
C862 H865 0.960 . S
H863 C862 0.961 . S
H864 C862 0.961 . S
H865 C862 0.960 . S
C866 N867 1.342 . S
C866 C870 1.401 . S
C866 C871 1.499 . S
N867 Co850 1.989 . S
N867 C866 1.342 . S
N867 N868 1.388 . S
N868 Co851 1.993 . S
N868 N867 1.388 . S
N868 C869 1.346 . S
C869 N868 1.346 . S
C869 C870 1.396 . S
C869 C879 1.510 . S
C870 C866 1.401 . S
C870 C869 1.396 . S
C871 C866 1.499 . S
C871 H872 0.959 . S
C871 H873 0.960 . S
C871 H874 0.961 . S
H872 C871 0.959 . S
H873 C871 0.960 . S
H874 C871 0.961 . S
O875 Co850 1.967 . S
O875 C883 1.258 . S
O876 Co851 1.941 . S
O876 C883 1.266 . S
H877 C879 0.959 . S
H878 C879 0.961 . S
C879 C869 1.510 . S
C879 H877 0.959 . S
C879 H878 0.961 . S
C879 H880 0.960 . S
H880 C879 0.960 . S
H881 N861 0.862 . S
O882 Co850 1.920 . S
O882 C855 1.289 . S
C883 O875 1.258 . S
C883 O876 1.266 . S
Co884 O887 1.970 . S
Co884 N901 1.989 . S
Co884 O909 1.967 . S
Co884 O916 1.920 . S
Co885 O888 1.966 . S
Co885 N894 2.022 . S
Co885 N902 1.993 . S
Co885 O910 1.941 . S
C886 O887 1.258 . S
C886 O888 1.263 . S
O887 Co884 1.970 . S
O887 C886 1.258 . S
O888 Co885 1.966 . S
O888 C886 1.263 . S
C889 O890 1.235 . S
C889 O916 1.289 . S
O890 C889 1.235 . S
C891 C893 1.400 . S
C891 N894 1.351 . S
C891 C896 1.501 . S
C892 C893 1.387 . S
C892 N895 1.341 . S
C893 C891 1.400 . S
C893 C892 1.387 . S
N894 Co885 2.022 . S
N894 C891 1.351 . S
N894 N895 1.365 . S
N895 C892 1.341 . S
N895 N894 1.365 . S
N895 H915 0.862 . S
C896 C891 1.501 . S
C896 H897 0.961 . S
C896 H898 0.961 . S
C896 H899 0.960 . S
H897 C896 0.961 . S
H898 C896 0.961 . S
H899 C896 0.960 . S
C900 N901 1.342 . S
C900 C904 1.401 . S
C900 C905 1.499 . S
N901 Co884 1.989 . S
N901 C900 1.342 . S
N901 N902 1.388 . S
N902 Co885 1.993 . S
N902 N901 1.388 . S
N902 C903 1.346 . S
C903 N902 1.346 . S
C903 C904 1.396 . S
C903 C913 1.510 . S
C904 C900 1.401 . S
C904 C903 1.396 . S
C905 C900 1.499 . S
C905 H906 0.959 . S
C905 H907 0.960 . S
C905 H908 0.961 . S
H906 C905 0.959 . S
H907 C905 0.960 . S
H908 C905 0.961 . S
O909 Co884 1.967 . S
O909 C917 1.258 . S
O910 Co885 1.941 . S
O910 C917 1.266 . S
H911 C913 0.959 . S
H912 C913 0.961 . S
C913 C903 1.510 . S
C913 H911 0.959 . S
C913 H912 0.961 . S
C913 H914 0.960 . S
H914 C913 0.960 . S
H915 N895 0.862 . S
O916 Co884 1.920 . S
O916 C889 1.289 . S
C917 O909 1.258 . S
C917 O910 1.266 . S
Co918 O921 1.970 . S
Co918 N935 1.989 . S
Co918 O943 1.967 . S
Co918 O950 1.920 . S
Co919 O922 1.966 . S
Co919 N928 2.022 . S
Co919 N936 1.993 . S
Co919 O944 1.941 . S
C920 O921 1.258 . S
C920 O922 1.263 . S
O921 Co918 1.970 . S
O921 C920 1.258 . S
O922 Co919 1.966 . S
O922 C920 1.263 . S
C923 O924 1.204 1_565 S
C923 O950 1.289 . S
O924 C923 1.204 1_545 S
C925 C927 1.400 . S
C925 N928 1.351 . S
C925 C930 1.501 . S
C926 C927 1.387 . S
C926 N929 1.341 . S
C927 C925 1.400 . S
C927 C926 1.387 . S
N928 Co919 2.022 . S
N928 C925 1.351 . S
N928 N929 1.365 . S
N929 C926 1.341 . S
N929 N928 1.365 . S
N929 H949 0.862 . S
C930 C925 1.501 . S
C930 H931 0.961 . S
C930 H932 0.961 . S
C930 H933 0.960 . S
H931 C930 0.961 . S
H932 C930 0.961 . S
H933 C930 0.960 . S
C934 N935 1.342 . S
C934 C938 1.401 . S
C934 C939 1.499 . S
N935 Co918 1.989 . S
N935 C934 1.342 . S
N935 N936 1.388 . S
N936 Co919 1.993 . S
N936 N935 1.388 . S
N936 C937 1.346 . S
C937 N936 1.346 . S
C937 C938 1.396 . S
C937 C947 1.510 . S
C938 C934 1.401 . S
C938 C937 1.396 . S
C939 C934 1.499 . S
C939 H940 0.959 . S
C939 H941 0.960 . S
C939 H942 0.961 . S
H940 C939 0.959 . S
H941 C939 0.960 . S
H942 C939 0.961 . S
O943 Co918 1.967 . S
O943 C951 1.258 . S
O944 Co919 1.941 . S
O944 C951 1.266 . S
H945 C947 0.959 . S
H946 C947 0.961 . S
C947 C937 1.510 . S
C947 H945 0.959 . S
C947 H946 0.961 . S
C947 H948 0.960 . S
H948 C947 0.960 . S
H949 N929 0.862 . S
O950 Co918 1.920 . S
O950 C923 1.289 . S
C951 O943 1.258 . S
C951 O944 1.266 . S
Co952 O955 1.970 . S
Co952 N969 1.989 . S
Co952 O977 1.967 . S
Co952 O984 1.920 . S
Co953 O956 1.966 . S
Co953 N962 2.022 . S
Co953 N970 1.993 . S
Co953 O978 1.941 . S
C954 O955 1.258 . S
C954 O956 1.263 . S
O955 Co952 1.970 . S
O955 C954 1.258 . S
O956 Co953 1.966 . S
O956 C954 1.263 . S
C957 O958 1.231 1_455 S
C957 O984 1.289 . S
O958 C957 1.231 1_655 S
C959 C961 1.400 . S
C959 N962 1.351 . S
C959 C964 1.501 . S
C960 C961 1.387 . S
C960 N963 1.341 . S
C961 C959 1.400 . S
C961 C960 1.387 . S
N962 Co953 2.022 . S
N962 C959 1.351 . S
N962 N963 1.365 . S
N963 C960 1.341 . S
N963 N962 1.365 . S
N963 H983 0.862 . S
C964 C959 1.501 . S
C964 H965 0.961 . S
C964 H966 0.961 . S
C964 H967 0.960 . S
H965 C964 0.961 . S
H966 C964 0.961 . S
H967 C964 0.960 . S
C968 N969 1.342 . S
C968 C972 1.401 . S
C968 C973 1.499 . S
N969 Co952 1.989 . S
N969 C968 1.342 . S
N969 N970 1.388 . S
N970 Co953 1.993 . S
N970 N969 1.388 . S
N970 C971 1.346 . S
C971 N970 1.346 . S
C971 C972 1.396 . S
C971 C981 1.510 . S
C972 C968 1.401 . S
C972 C971 1.396 . S
C973 C968 1.499 . S
C973 H974 0.959 . S
C973 H975 0.960 . S
C973 H976 0.961 . S
H974 C973 0.959 . S
H975 C973 0.960 . S
H976 C973 0.961 . S
O977 Co952 1.967 . S
O977 C985 1.258 . S
O978 Co953 1.941 . S
O978 C985 1.266 . S
H979 C981 0.959 . S
H980 C981 0.961 . S
C981 C971 1.510 . S
C981 H979 0.959 . S
C981 H980 0.961 . S
C981 H982 0.960 . S
H982 C981 0.960 . S
H983 N963 0.862 . S
O984 Co952 1.920 . S
O984 C957 1.289 . S
C985 O977 1.258 . S
C985 O978 1.266 . S
Co986 O989 1.970 . S
Co986 N1003 1.989 . S
Co986 O1011 1.967 . S
Co986 O1018 1.920 . S
Co987 O990 1.966 . S
Co987 N996 2.022 . S
Co987 N1004 1.993 . S
Co987 O1012 1.941 . S
C988 O989 1.258 . S
C988 O990 1.263 . S
O989 Co986 1.970 . S
O989 C988 1.258 . S
O990 Co987 1.966 . S
O990 C988 1.263 . S
C991 O992 1.235 . S
C991 O1018 1.289 . S
O992 C991 1.235 . S
C993 C995 1.400 . S
C993 N996 1.351 . S
C993 C998 1.501 . S
C994 C995 1.387 . S
C994 N997 1.341 . S
C995 C993 1.400 . S
C995 C994 1.387 . S
N996 Co987 2.022 . S
N996 C993 1.351 . S
N996 N997 1.365 . S
N997 C994 1.341 . S
N997 N996 1.365 . S
N997 H1017 0.862 . S
C998 C993 1.501 . S
C998 H999 0.961 . S
C998 H1000 0.961 . S
C998 H1001 0.960 . S
H999 C998 0.961 . S
H1000 C998 0.961 . S
H1001 C998 0.960 . S
C1002 N1003 1.342 . S
C1002 C1006 1.401 . S
C1002 C1007 1.499 . S
N1003 Co986 1.989 . S
N1003 C1002 1.342 . S
N1003 N1004 1.388 . S
N1004 Co987 1.993 . S
N1004 N1003 1.388 . S
N1004 C1005 1.346 . S
C1005 N1004 1.346 . S
C1005 C1006 1.396 . S
C1005 C1015 1.510 . S
C1006 C1002 1.401 . S
C1006 C1005 1.396 . S
C1007 C1002 1.499 . S
C1007 H1008 0.959 . S
C1007 H1009 0.960 . S
C1007 H1010 0.961 . S
H1008 C1007 0.959 . S
H1009 C1007 0.960 . S
H1010 C1007 0.961 . S
O1011 Co986 1.967 . S
O1011 C1019 1.258 . S
O1012 Co987 1.941 . S
O1012 C1019 1.266 . S
H1013 C1015 0.959 . S
H1014 C1015 0.961 . S
C1015 C1005 1.510 . S
C1015 H1013 0.959 . S
C1015 H1014 0.961 . S
C1015 H1016 0.960 . S
H1016 C1015 0.960 . S
H1017 N997 0.862 . S
O1018 Co986 1.920 . S
O1018 C991 1.289 . S
C1019 O1011 1.258 . S
C1019 O1012 1.266 . S
Co1020 O1023 1.970 . S
Co1020 N1037 1.989 . S
Co1020 O1045 1.967 . S
Co1020 O1052 1.920 . S
Co1021 O1024 1.966 . S
Co1021 N1030 2.022 . S
Co1021 N1038 1.993 . S
Co1021 O1046 1.941 . S
C1022 O1023 1.258 . S
C1022 O1024 1.263 . S
O1023 Co1020 1.970 . S
O1023 C1022 1.258 . S
O1024 Co1021 1.966 . S
O1024 C1022 1.263 . S
C1025 O1026 1.204 1_455 S
C1025 O1052 1.289 . S
O1026 C1025 1.204 1_655 S
C1027 C1029 1.400 . S
C1027 N1030 1.351 . S
C1027 C1032 1.501 . S
C1028 C1029 1.387 . S
C1028 N1031 1.341 . S
C1029 C1027 1.400 . S
C1029 C1028 1.387 . S
N1030 Co1021 2.022 . S
N1030 C1027 1.351 . S
N1030 N1031 1.365 . S
N1031 C1028 1.341 . S
N1031 N1030 1.365 . S
N1031 H1051 0.862 . S
C1032 C1027 1.501 . S
C1032 H1033 0.961 . S
C1032 H1034 0.961 . S
C1032 H1035 0.960 . S
H1033 C1032 0.961 . S
H1034 C1032 0.961 . S
H1035 C1032 0.960 . S
C1036 N1037 1.342 . S
C1036 C1040 1.401 . S
C1036 C1041 1.499 . S
N1037 Co1020 1.989 . S
N1037 C1036 1.342 . S
N1037 N1038 1.388 . S
N1038 Co1021 1.993 . S
N1038 N1037 1.388 . S
N1038 C1039 1.346 . S
C1039 N1038 1.346 . S
C1039 C1040 1.396 . S
C1039 C1049 1.510 . S
C1040 C1036 1.401 . S
C1040 C1039 1.396 . S
C1041 C1036 1.499 . S
C1041 H1042 0.959 . S
C1041 H1043 0.960 . S
C1041 H1044 0.961 . S
H1042 C1041 0.959 . S
H1043 C1041 0.960 . S
H1044 C1041 0.961 . S
O1045 Co1020 1.967 . S
O1045 C1053 1.258 . S
O1046 Co1021 1.941 . S
O1046 C1053 1.266 . S
H1047 C1049 0.959 . S
H1048 C1049 0.961 . S
C1049 C1039 1.510 . S
C1049 H1047 0.959 . S
C1049 H1048 0.961 . S
C1049 H1050 0.960 . S
H1050 C1049 0.960 . S
H1051 N1031 0.862 . S
O1052 Co1020 1.920 . S
O1052 C1025 1.289 . S
C1053 O1045 1.258 . S
C1053 O1046 1.266 . S
Co1054 O1057 1.970 . S
Co1054 N1071 1.989 . S
Co1054 O1079 1.967 . S
Co1054 O1086 1.920 . S
Co1055 O1058 1.966 . S
Co1055 N1064 2.022 . S
Co1055 N1072 1.993 . S
Co1055 O1080 1.941 . S
C1056 O1057 1.258 . S
C1056 O1058 1.263 . S
O1057 Co1054 1.970 . S
O1057 C1056 1.258 . S
O1058 Co1055 1.966 . S
O1058 C1056 1.263 . S
C1059 O1060 1.235 . S
C1059 O1086 1.289 . S
O1060 C1059 1.235 . S
C1061 C1063 1.400 . S
C1061 N1064 1.351 . S
C1061 C1066 1.501 . S
C1062 C1063 1.387 . S
C1062 N1065 1.341 . S
C1063 C1061 1.400 . S
C1063 C1062 1.387 . S
N1064 Co1055 2.022 . S
N1064 C1061 1.351 . S
N1064 N1065 1.365 . S
N1065 C1062 1.341 . S
N1065 N1064 1.365 . S
N1065 H1085 0.862 . S
C1066 C1061 1.501 . S
C1066 H1067 0.961 . S
C1066 H1068 0.961 . S
C1066 H1069 0.960 . S
H1067 C1066 0.961 . S
H1068 C1066 0.961 . S
H1069 C1066 0.960 . S
C1070 N1071 1.342 . S
C1070 C1074 1.401 . S
C1070 C1075 1.499 . S
N1071 Co1054 1.989 . S
N1071 C1070 1.342 . S
N1071 N1072 1.388 . S
N1072 Co1055 1.993 . S
N1072 N1071 1.388 . S
N1072 C1073 1.346 . S
C1073 N1072 1.346 . S
C1073 C1074 1.396 . S
C1073 C1083 1.510 . S
C1074 C1070 1.401 . S
C1074 C1073 1.396 . S
C1075 C1070 1.499 . S
C1075 H1076 0.959 . S
C1075 H1077 0.960 . S
C1075 H1078 0.961 . S
H1076 C1075 0.959 . S
H1077 C1075 0.960 . S
H1078 C1075 0.961 . S
O1079 Co1054 1.967 . S
O1079 C1087 1.258 . S
O1080 Co1055 1.941 . S
O1080 C1087 1.266 . S
H1081 C1083 0.959 . S
H1082 C1083 0.961 . S
C1083 C1073 1.510 . S
C1083 H1081 0.959 . S
C1083 H1082 0.961 . S
C1083 H1084 0.960 . S
H1084 C1083 0.960 . S
H1085 N1065 0.862 . S
O1086 Co1054 1.920 . S
O1086 C1059 1.289 . S
C1087 O1079 1.258 . S
C1087 O1080 1.266 . S
Co1088 O1091 1.970 . S
Co1088 N1105 1.989 . S
Co1088 O1113 1.967 . S
Co1088 O1120 1.920 . S
Co1089 O1092 1.966 . S
Co1089 N1098 2.022 . S
Co1089 N1106 1.993 . S
Co1089 O1114 1.941 . S
C1090 O1091 1.258 . S
C1090 O1092 1.263 . S
O1091 Co1088 1.970 . S
O1091 C1090 1.258 . S
O1092 Co1089 1.966 . S
O1092 C1090 1.263 . S
C1093 O1094 1.231 1_565 S
C1093 O1120 1.289 . S
O1094 C1093 1.231 1_545 S
C1095 C1097 1.400 . S
C1095 N1098 1.351 . S
C1095 C1100 1.501 . S
C1096 C1097 1.387 . S
C1096 N1099 1.341 . S
C1097 C1095 1.400 . S
C1097 C1096 1.387 . S
N1098 Co1089 2.022 . S
N1098 C1095 1.351 . S
N1098 N1099 1.365 . S
N1099 C1096 1.341 . S
N1099 N1098 1.365 . S
N1099 H1119 0.862 . S
C1100 C1095 1.501 . S
C1100 H1101 0.961 . S
C1100 H1102 0.961 . S
C1100 H1103 0.960 . S
H1101 C1100 0.961 . S
H1102 C1100 0.961 . S
H1103 C1100 0.960 . S
C1104 N1105 1.342 . S
C1104 C1108 1.401 . S
C1104 C1109 1.499 . S
N1105 Co1088 1.989 . S
N1105 C1104 1.342 . S
N1105 N1106 1.388 . S
N1106 Co1089 1.993 . S
N1106 N1105 1.388 . S
N1106 C1107 1.346 . S
C1107 N1106 1.346 . S
C1107 C1108 1.396 . S
C1107 C1117 1.510 . S
C1108 C1104 1.401 . S
C1108 C1107 1.396 . S
C1109 C1104 1.499 . S
C1109 H1110 0.959 . S
C1109 H1111 0.960 . S
C1109 H1112 0.961 . S
H1110 C1109 0.959 . S
H1111 C1109 0.960 . S
H1112 C1109 0.961 . S
O1113 Co1088 1.967 . S
O1113 C1121 1.258 . S
O1114 Co1089 1.941 . S
O1114 C1121 1.266 . S
H1115 C1117 0.959 . S
H1116 C1117 0.961 . S
C1117 C1107 1.510 . S
C1117 H1115 0.959 . S
C1117 H1116 0.961 . S
C1117 H1118 0.960 . S
H1118 C1117 0.960 . S
H1119 N1099 0.862 . S
O1120 Co1088 1.920 . S
O1120 C1093 1.289 . S
C1121 O1113 1.258 . S
C1121 O1114 1.266 . S
Co1122 O1125 1.970 . S
Co1122 N1139 1.989 . S
Co1122 O1147 1.967 . S
Co1122 O1154 1.920 . S
Co1123 O1126 1.966 . S
Co1123 N1132 2.022 . S
Co1123 N1140 1.993 . S
Co1123 O1148 1.941 . S
C1124 O1125 1.258 . S
C1124 O1126 1.263 . S
O1125 Co1122 1.970 . S
O1125 C1124 1.258 . S
O1126 Co1123 1.966 . S
O1126 C1124 1.263 . S
C1127 O1128 1.235 . S
C1127 O1154 1.289 . S
O1128 C1127 1.235 . S
C1129 C1131 1.400 . S
C1129 N1132 1.351 . S
C1129 C1134 1.501 . S
C1130 C1131 1.387 . S
C1130 N1133 1.341 . S
C1131 C1129 1.400 . S
C1131 C1130 1.387 . S
N1132 Co1123 2.022 . S
N1132 C1129 1.351 . S
N1132 N1133 1.365 . S
N1133 C1130 1.341 . S
N1133 N1132 1.365 . S
N1133 H1153 0.862 . S
C1134 C1129 1.501 . S
C1134 H1135 0.961 . S
C1134 H1136 0.961 . S
C1134 H1137 0.960 . S
H1135 C1134 0.961 . S
H1136 C1134 0.961 . S
H1137 C1134 0.960 . S
C1138 N1139 1.342 . S
C1138 C1142 1.401 . S
C1138 C1143 1.499 . S
N1139 Co1122 1.989 . S
N1139 C1138 1.342 . S
N1139 N1140 1.388 . S
N1140 Co1123 1.993 . S
N1140 N1139 1.388 . S
N1140 C1141 1.346 . S
C1141 N1140 1.346 . S
C1141 C1142 1.396 . S
C1141 C1151 1.510 . S
C1142 C1138 1.401 . S
C1142 C1141 1.396 . S
C1143 C1138 1.499 . S
C1143 H1144 0.959 . S
C1143 H1145 0.960 . S
C1143 H1146 0.961 . S
H1144 C1143 0.959 . S
H1145 C1143 0.960 . S
H1146 C1143 0.961 . S
O1147 Co1122 1.967 . S
O1147 C1155 1.258 . S
O1148 Co1123 1.941 . S
O1148 C1155 1.266 . S
H1149 C1151 0.959 . S
H1150 C1151 0.961 . S
C1151 C1141 1.510 . S
C1151 H1149 0.959 . S
C1151 H1150 0.961 . S
C1151 H1152 0.960 . S
H1152 C1151 0.960 . S
H1153 N1133 0.862 . S
O1154 Co1122 1.920 . S
O1154 C1127 1.289 . S
C1155 O1147 1.258 . S
C1155 O1148 1.266 . S
Co1156 O1159 1.970 . S
Co1156 N1173 1.989 . S
Co1156 O1181 1.967 . S
Co1156 O1188 1.920 . S
Co1157 O1160 1.966 . S
Co1157 N1166 2.022 . S
Co1157 N1174 1.993 . S
Co1157 O1182 1.941 . S
C1158 O1159 1.258 . S
C1158 O1160 1.263 . S
O1159 Co1156 1.970 . S
O1159 C1158 1.258 . S
O1160 Co1157 1.966 . S
O1160 C1158 1.263 . S
C1161 O1162 1.235 . S
C1161 O1188 1.289 . S
O1162 C1161 1.235 . S
C1163 C1165 1.400 . S
C1163 N1166 1.351 . S
C1163 C1168 1.501 . S
C1164 C1165 1.387 . S
C1164 N1167 1.341 . S
C1165 C1163 1.400 . S
C1165 C1164 1.387 . S
N1166 Co1157 2.022 . S
N1166 C1163 1.351 . S
N1166 N1167 1.365 . S
N1167 C1164 1.341 . S
N1167 N1166 1.365 . S
N1167 H1187 0.862 . S
C1168 C1163 1.501 . S
C1168 H1169 0.961 . S
C1168 H1170 0.961 . S
C1168 H1171 0.960 . S
H1169 C1168 0.961 . S
H1170 C1168 0.961 . S
H1171 C1168 0.960 . S
C1172 N1173 1.342 . S
C1172 C1176 1.401 . S
C1172 C1177 1.499 . S
N1173 Co1156 1.989 . S
N1173 C1172 1.342 . S
N1173 N1174 1.388 . S
N1174 Co1157 1.993 . S
N1174 N1173 1.388 . S
N1174 C1175 1.346 . S
C1175 N1174 1.346 . S
C1175 C1176 1.396 . S
C1175 C1185 1.510 . S
C1176 C1172 1.401 . S
C1176 C1175 1.396 . S
C1177 C1172 1.499 . S
C1177 H1178 0.959 . S
C1177 H1179 0.960 . S
C1177 H1180 0.961 . S
H1178 C1177 0.959 . S
H1179 C1177 0.960 . S
H1180 C1177 0.961 . S
O1181 Co1156 1.967 . S
O1181 C1189 1.258 . S
O1182 Co1157 1.941 . S
O1182 C1189 1.266 . S
H1183 C1185 0.959 . S
H1184 C1185 0.961 . S
C1185 C1175 1.510 . S
C1185 H1183 0.959 . S
C1185 H1184 0.961 . S
C1185 H1186 0.960 . S
H1186 C1185 0.960 . S
H1187 N1167 0.862 . S
O1188 Co1156 1.920 . S
O1188 C1161 1.289 . S
C1189 O1181 1.258 . S
C1189 O1182 1.266 . S
Co1190 O1193 1.970 . S
Co1190 N1207 1.989 . S
Co1190 O1215 1.967 . S
Co1190 O1222 1.920 . S
Co1191 O1194 1.966 . S
Co1191 N1200 2.022 . S
Co1191 N1208 1.993 . S
Co1191 O1216 1.941 . S
C1192 O1193 1.258 . S
C1192 O1194 1.263 . S
O1193 Co1190 1.970 . S
O1193 C1192 1.258 . S
O1194 Co1191 1.966 . S
O1194 C1192 1.263 . S
C1195 O1196 1.235 . S
C1195 O1222 1.289 . S
O1196 C1195 1.235 . S
C1197 C1199 1.400 . S
C1197 N1200 1.351 . S
C1197 C1202 1.501 . S
C1198 C1199 1.387 . S
C1198 N1201 1.341 . S
C1199 C1197 1.400 . S
C1199 C1198 1.387 . S
N1200 Co1191 2.022 . S
N1200 C1197 1.351 . S
N1200 N1201 1.365 . S
N1201 C1198 1.341 . S
N1201 N1200 1.365 . S
N1201 H1221 0.862 . S
C1202 C1197 1.501 . S
C1202 H1203 0.961 . S
C1202 H1204 0.961 . S
C1202 H1205 0.960 . S
H1203 C1202 0.961 . S
H1204 C1202 0.961 . S
H1205 C1202 0.960 . S
C1206 N1207 1.342 . S
C1206 C1210 1.401 . S
C1206 C1211 1.499 . S
N1207 Co1190 1.989 . S
N1207 C1206 1.342 . S
N1207 N1208 1.388 . S
N1208 Co1191 1.993 . S
N1208 N1207 1.388 . S
N1208 C1209 1.346 . S
C1209 N1208 1.346 . S
C1209 C1210 1.396 . S
C1209 C1219 1.510 . S
C1210 C1206 1.401 . S
C1210 C1209 1.396 . S
C1211 C1206 1.499 . S
C1211 H1212 0.959 . S
C1211 H1213 0.960 . S
C1211 H1214 0.961 . S
H1212 C1211 0.959 . S
H1213 C1211 0.960 . S
H1214 C1211 0.961 . S
O1215 Co1190 1.967 . S
O1215 C1223 1.258 . S
O1216 Co1191 1.941 . S
O1216 C1223 1.266 . S
H1217 C1219 0.959 . S
H1218 C1219 0.961 . S
C1219 C1209 1.510 . S
C1219 H1217 0.959 . S
C1219 H1218 0.961 . S
C1219 H1220 0.960 . S
H1220 C1219 0.960 . S
H1221 N1201 0.862 . S
O1222 Co1190 1.920 . S
O1222 C1195 1.289 . S
C1223 O1215 1.258 . S
C1223 O1216 1.266 . S
H1224 C1232 0.929 . S
H1225 C1234 0.930 . S
H1226 C1236 0.930 . S
H1227 C1239 0.929 . S
H1228 C1242 0.930 . S
H1229 C1244 0.960 . S
H1230 C1244 0.960 . S
H1231 C1244 0.960 . S
C1232 H1224 0.929 . S
C1232 C1233 1.377 . S
C1232 C1234 1.384 . S
C1233 C1232 1.377 . S
C1233 C1239 1.390 . S
C1234 H1225 0.930 . S
C1234 C1232 1.384 . S
C1234 C1235 1.372 . S
C1235 C1234 1.372 . S
C1235 C1236 1.400 . S
C1235 C1240 1.490 . S
C1236 H1226 0.930 . S
C1236 C1235 1.400 . S
C1236 C1239 1.386 . S
H1237 C1253 0.930 . S
H1238 C1254 0.931 . S
C1239 H1227 0.929 . S
C1239 C1233 1.390 . S
C1239 C1236 1.386 . S
C1240 C1235 1.490 . S
C1240 C1242 1.395 . S
C1240 C1243 1.403 . S
H1241 C1247 0.930 . S
C1242 H1228 0.930 . S
C1242 C1240 1.395 . S
C1242 C1245 1.403 . S
C1243 C1240 1.403 . S
C1243 C1244 1.524 . S
C1243 C1247 1.400 . S
C1244 H1229 0.960 . S
C1244 H1230 0.960 . S
C1244 H1231 0.960 . S
C1244 C1243 1.524 . S
C1245 C1242 1.403 . S
C1245 C1246 1.392 . S
C1245 C1249 1.495 . S
C1246 C1245 1.392 . S
C1246 C1247 1.385 . S
C1246 C1248 1.478 . S
C1247 H1241 0.930 . S
C1247 C1243 1.400 . S
C1247 C1246 1.385 . S
C1248 C1246 1.478 . S
C1248 C1250 1.381 . S
C1248 C1254 1.383 . S
C1249 C1245 1.495 . S
C1249 H1255 0.959 . S
C1249 H1256 0.961 . S
C1249 H1257 0.960 . S
C1250 C1248 1.381 . S
C1250 C1251 1.394 . S
C1250 H1258 0.930 . S
C1251 C1250 1.394 . S
C1251 C1252 1.383 . S
C1251 H1259 0.929 . S
C1252 C1251 1.383 . S
C1252 C1253 1.377 . S
C1253 H1237 0.930 . S
C1253 C1252 1.377 . S
C1253 C1254 1.379 . S
C1254 H1238 0.931 . S
C1254 C1248 1.383 . S
C1254 C1253 1.379 . S
H1255 C1249 0.959 . S
H1256 C1249 0.961 . S
H1257 C1249 0.960 . S
H1258 C1250 0.930 . S
H1259 C1251 0.929 . S
H1260 C1268 0.929 . S
H1261 C1270 0.930 . S
H1262 C1272 0.930 . S
H1263 C1275 0.929 . S
H1264 C1278 0.930 . S
H1265 C1280 0.960 . S
H1266 C1280 0.960 . S
H1267 C1280 0.960 . S
C1268 H1260 0.929 . S
C1268 C1269 1.377 . S
C1268 C1270 1.384 . S
C1269 C1268 1.377 . S
C1269 C1275 1.390 . S
C1270 H1261 0.930 . S
C1270 C1268 1.384 . S
C1270 C1271 1.372 . S
C1271 C1270 1.372 . S
C1271 C1272 1.400 . S
C1271 C1276 1.490 . S
C1272 H1262 0.930 . S
C1272 C1271 1.400 . S
C1272 C1275 1.386 . S
H1273 C1289 0.930 . S
H1274 C1290 0.931 . S
C1275 H1263 0.929 . S
C1275 C1269 1.390 . S
C1275 C1272 1.386 . S
C1276 C1271 1.490 . S
C1276 C1278 1.395 . S
C1276 C1279 1.403 . S
H1277 C1283 0.930 . S
C1278 H1264 0.930 . S
C1278 C1276 1.395 . S
C1278 C1281 1.403 . S
C1279 C1276 1.403 . S
C1279 C1280 1.524 . S
C1279 C1283 1.400 . S
C1280 H1265 0.960 . S
C1280 H1266 0.960 . S
C1280 H1267 0.960 . S
C1280 C1279 1.524 . S
C1281 C1278 1.403 . S
C1281 C1282 1.392 . S
C1281 C1285 1.495 . S
C1282 C1281 1.392 . S
C1282 C1283 1.385 . S
C1282 C1284 1.478 . S
C1283 H1277 0.930 . S
C1283 C1279 1.400 . S
C1283 C1282 1.385 . S
C1284 C1282 1.478 . S
C1284 C1286 1.381 . S
C1284 C1290 1.383 . S
C1285 C1281 1.495 . S
C1285 H1291 0.959 . S
C1285 H1292 0.961 . S
C1285 H1293 0.960 . S
C1286 C1284 1.381 . S
C1286 C1287 1.394 . S
C1286 H1294 0.930 . S
C1287 C1286 1.394 . S
C1287 C1288 1.383 . S
C1287 H1295 0.929 . S
C1288 C1287 1.383 . S
C1288 C1289 1.377 . S
C1289 H1273 0.930 . S
C1289 C1288 1.377 . S
C1289 C1290 1.379 . S
C1290 H1274 0.931 . S
C1290 C1284 1.383 . S
C1290 C1289 1.379 . S
H1291 C1285 0.959 . S
H1292 C1285 0.961 . S
H1293 C1285 0.960 . S
H1294 C1286 0.930 . S
H1295 C1287 0.929 . S
H1296 C1304 0.929 . S
H1297 C1306 0.930 . S
H1298 C1308 0.930 . S
H1299 C1311 0.929 . S
H1300 C1314 0.930 . S
H1301 C1316 0.960 . S
H1302 C1316 0.960 . S
H1303 C1316 0.960 . S
C1304 H1296 0.929 . S
C1304 C1305 1.377 . S
C1304 C1306 1.384 . S
C1305 C1304 1.377 . S
C1305 C1311 1.390 . S
C1306 H1297 0.930 . S
C1306 C1304 1.384 . S
C1306 C1307 1.372 . S
C1307 C1306 1.372 . S
C1307 C1308 1.400 . S
C1307 C1312 1.490 . S
C1308 H1298 0.930 . S
C1308 C1307 1.400 . S
C1308 C1311 1.386 . S
H1309 C1325 0.930 . S
H1310 C1326 0.931 . S
C1311 H1299 0.929 . S
C1311 C1305 1.390 . S
C1311 C1308 1.386 . S
C1312 C1307 1.490 . S
C1312 C1314 1.395 . S
C1312 C1315 1.403 . S
H1313 C1319 0.930 . S
C1314 H1300 0.930 . S
C1314 C1312 1.395 . S
C1314 C1317 1.403 . S
C1315 C1312 1.403 . S
C1315 C1316 1.524 . S
C1315 C1319 1.400 . S
C1316 H1301 0.960 . S
C1316 H1302 0.960 . S
C1316 H1303 0.960 . S
C1316 C1315 1.524 . S
C1317 C1314 1.403 . S
C1317 C1318 1.392 . S
C1317 C1321 1.495 . S
C1318 C1317 1.392 . S
C1318 C1319 1.385 . S
C1318 C1320 1.478 . S
C1319 H1313 0.930 . S
C1319 C1315 1.400 . S
C1319 C1318 1.385 . S
C1320 C1318 1.478 . S
C1320 C1322 1.381 . S
C1320 C1326 1.383 . S
C1321 C1317 1.495 . S
C1321 H1327 0.959 . S
C1321 H1328 0.961 . S
C1321 H1329 0.960 . S
C1322 C1320 1.381 . S
C1322 C1323 1.394 . S
C1322 H1330 0.930 . S
C1323 C1322 1.394 . S
C1323 C1324 1.383 . S
C1323 H1331 0.929 . S
C1324 C1323 1.383 . S
C1324 C1325 1.377 . S
C1325 H1309 0.930 . S
C1325 C1324 1.377 . S
C1325 C1326 1.379 . S
C1326 H1310 0.931 . S
C1326 C1320 1.383 . S
C1326 C1325 1.379 . S
H1327 C1321 0.959 . S
H1328 C1321 0.961 . S
H1329 C1321 0.960 . S
H1330 C1322 0.930 . S
H1331 C1323 0.929 . S
H1332 C1340 0.929 . S
H1333 C1342 0.930 . S
H1334 C1344 0.930 . S
H1335 C1347 0.929 . S
H1336 C1350 0.930 . S
H1337 C1352 0.960 . S
H1338 C1352 0.960 . S
H1339 C1352 0.960 . S
C1340 H1332 0.929 . S
C1340 C1341 1.377 . S
C1340 C1342 1.384 . S
C1341 C1340 1.377 . S
C1341 C1347 1.390 . S
C1342 H1333 0.930 . S
C1342 C1340 1.384 . S
C1342 C1343 1.372 . S
C1343 C1342 1.372 . S
C1343 C1344 1.400 . S
C1343 C1348 1.490 . S
C1344 H1334 0.930 . S
C1344 C1343 1.400 . S
C1344 C1347 1.386 . S
H1345 C1361 0.930 . S
H1346 C1362 0.931 . S
C1347 H1335 0.929 . S
C1347 C1341 1.390 . S
C1347 C1344 1.386 . S
C1348 C1343 1.490 . S
C1348 C1350 1.395 . S
C1348 C1351 1.403 . S
H1349 C1355 0.930 . S
C1350 H1336 0.930 . S
C1350 C1348 1.395 . S
C1350 C1353 1.403 . S
C1351 C1348 1.403 . S
C1351 C1352 1.524 . S
C1351 C1355 1.400 . S
C1352 H1337 0.960 . S
C1352 H1338 0.960 . S
C1352 H1339 0.960 . S
C1352 C1351 1.524 . S
C1353 C1350 1.403 . S
C1353 C1354 1.392 . S
C1353 C1357 1.495 . S
C1354 C1353 1.392 . S
C1354 C1355 1.385 . S
C1354 C1356 1.478 . S
C1355 H1349 0.930 . S
C1355 C1351 1.400 . S
C1355 C1354 1.385 . S
C1356 C1354 1.478 . S
C1356 C1358 1.381 . S
C1356 C1362 1.383 . S
C1357 C1353 1.495 . S
C1357 H1363 0.959 . S
C1357 H1364 0.961 . S
C1357 H1365 0.960 . S
C1358 C1356 1.381 . S
C1358 C1359 1.394 . S
C1358 H1366 0.930 . S
C1359 C1358 1.394 . S
C1359 C1360 1.383 . S
C1359 H1367 0.929 . S
C1360 C1359 1.383 . S
C1360 C1361 1.377 . S
C1361 H1345 0.930 . S
C1361 C1360 1.377 . S
C1361 C1362 1.379 . S
C1362 H1346 0.931 . S
C1362 C1356 1.383 . S
C1362 C1361 1.379 . S
H1363 C1357 0.959 . S
H1364 C1357 0.961 . S
H1365 C1357 0.960 . S
H1366 C1358 0.930 . S
H1367 C1359 0.929 . S
H1368 C1376 0.929 . S
H1369 C1378 0.930 . S
H1370 C1380 0.930 . S
H1371 C1383 0.929 . S
H1372 C1386 0.930 . S
H1373 C1388 0.960 . S
H1374 C1388 0.960 . S
H1375 C1388 0.960 . S
C1376 H1368 0.929 . S
C1376 C1377 1.377 . S
C1376 C1378 1.384 . S
C1377 C1376 1.377 . S
C1377 C1383 1.390 . S
C1378 H1369 0.930 . S
C1378 C1376 1.384 . S
C1378 C1379 1.372 . S
C1379 C1378 1.372 . S
C1379 C1380 1.400 . S
C1379 C1384 1.490 . S
C1380 H1370 0.930 . S
C1380 C1379 1.400 . S
C1380 C1383 1.386 . S
H1381 C1397 0.930 . S
H1382 C1398 0.931 . S
C1383 H1371 0.929 . S
C1383 C1377 1.390 . S
C1383 C1380 1.386 . S
C1384 C1379 1.490 . S
C1384 C1386 1.395 . S
C1384 C1387 1.403 . S
H1385 C1391 0.930 . S
C1386 H1372 0.930 . S
C1386 C1384 1.395 . S
C1386 C1389 1.403 . S
C1387 C1384 1.403 . S
C1387 C1388 1.524 . S
C1387 C1391 1.400 . S
C1388 H1373 0.960 . S
C1388 H1374 0.960 . S
C1388 H1375 0.960 . S
C1388 C1387 1.524 . S
C1389 C1386 1.403 . S
C1389 C1390 1.392 . S
C1389 C1393 1.495 . S
C1390 C1389 1.392 . S
C1390 C1391 1.385 . S
C1390 C1392 1.478 . S
C1391 H1385 0.930 . S
C1391 C1387 1.400 . S
C1391 C1390 1.385 . S
C1392 C1390 1.478 . S
C1392 C1394 1.381 . S
C1392 C1398 1.383 . S
C1393 C1389 1.495 . S
C1393 H1399 0.959 . S
C1393 H1400 0.961 . S
C1393 H1401 0.960 . S
C1394 C1392 1.381 . S
C1394 C1395 1.394 . S
C1394 H1402 0.930 . S
C1395 C1394 1.394 . S
C1395 C1396 1.383 . S
C1395 H1403 0.929 . S
C1396 C1395 1.383 . S
C1396 C1397 1.377 . S
C1397 H1381 0.930 . S
C1397 C1396 1.377 . S
C1397 C1398 1.379 . S
C1398 H1382 0.931 . S
C1398 C1392 1.383 . S
C1398 C1397 1.379 . S
H1399 C1393 0.959 . S
H1400 C1393 0.961 . S
H1401 C1393 0.960 . S
H1402 C1394 0.930 . S
H1403 C1395 0.929 . S
H1404 C1412 0.929 . S
H1405 C1414 0.930 . S
H1406 C1416 0.930 . S
H1407 C1419 0.929 . S
H1408 C1422 0.930 . S
H1409 C1424 0.960 . S
H1410 C1424 0.960 . S
H1411 C1424 0.960 . S
C1412 H1404 0.929 . S
C1412 C1413 1.377 . S
C1412 C1414 1.384 . S
C1413 C1412 1.377 . S
C1413 C1419 1.390 . S
C1414 H1405 0.930 . S
C1414 C1412 1.384 . S
C1414 C1415 1.372 . S
C1415 C1414 1.372 . S
C1415 C1416 1.400 . S
C1415 C1420 1.490 . S
C1416 H1406 0.930 . S
C1416 C1415 1.400 . S
C1416 C1419 1.386 . S
H1417 C1433 0.930 . S
H1418 C1434 0.931 . S
C1419 H1407 0.929 . S
C1419 C1413 1.390 . S
C1419 C1416 1.386 . S
C1420 C1415 1.490 . S
C1420 C1422 1.395 . S
C1420 C1423 1.403 . S
H1421 C1427 0.930 . S
C1422 H1408 0.930 . S
C1422 C1420 1.395 . S
C1422 C1425 1.403 . S
C1423 C1420 1.403 . S
C1423 C1424 1.524 . S
C1423 C1427 1.400 . S
C1424 H1409 0.960 . S
C1424 H1410 0.960 . S
C1424 H1411 0.960 . S
C1424 C1423 1.524 . S
C1425 C1422 1.403 . S
C1425 C1426 1.392 . S
C1425 C1429 1.495 . S
C1426 C1425 1.392 . S
C1426 C1427 1.385 . S
C1426 C1428 1.478 . S
C1427 H1421 0.930 . S
C1427 C1423 1.400 . S
C1427 C1426 1.385 . S
C1428 C1426 1.478 . S
C1428 C1430 1.381 . S
C1428 C1434 1.383 . S
C1429 C1425 1.495 . S
C1429 H1435 0.959 . S
C1429 H1436 0.961 . S
C1429 H1437 0.960 . S
C1430 C1428 1.381 . S
C1430 C1431 1.394 . S
C1430 H1438 0.930 . S
C1431 C1430 1.394 . S
C1431 C1432 1.383 . S
C1431 H1439 0.929 . S
C1432 C1431 1.383 . S
C1432 C1433 1.377 . S
C1433 H1417 0.930 . S
C1433 C1432 1.377 . S
C1433 C1434 1.379 . S
C1434 H1418 0.931 . S
C1434 C1428 1.383 . S
C1434 C1433 1.379 . S
H1435 C1429 0.959 . S
H1436 C1429 0.961 . S
H1437 C1429 0.960 . S
H1438 C1430 0.930 . S
H1439 C1431 0.929 . S
H1440 C1448 0.929 . S
H1441 C1450 0.930 . S
H1442 C1452 0.930 . S
H1443 C1455 0.929 . S
H1444 C1458 0.930 . S
H1445 C1460 0.960 . S
H1446 C1460 0.960 . S
H1447 C1460 0.960 . S
C1448 H1440 0.929 . S
C1448 C1449 1.377 . S
C1448 C1450 1.384 . S
C1449 C1448 1.377 . S
C1449 C1455 1.390 . S
C1450 H1441 0.930 . S
C1450 C1448 1.384 . S
C1450 C1451 1.372 . S
C1451 C1450 1.372 . S
C1451 C1452 1.400 . S
C1451 C1456 1.490 . S
C1452 H1442 0.930 . S
C1452 C1451 1.400 . S
C1452 C1455 1.386 . S
H1453 C1469 0.930 . S
H1454 C1470 0.931 . S
C1455 H1443 0.929 . S
C1455 C1449 1.390 . S
C1455 C1452 1.386 . S
C1456 C1451 1.490 . S
C1456 C1458 1.395 . S
C1456 C1459 1.403 . S
H1457 C1463 0.930 . S
C1458 H1444 0.930 . S
C1458 C1456 1.395 . S
C1458 C1461 1.403 . S
C1459 C1456 1.403 . S
C1459 C1460 1.524 . S
C1459 C1463 1.400 . S
C1460 H1445 0.960 . S
C1460 H1446 0.960 . S
C1460 H1447 0.960 . S
C1460 C1459 1.524 . S
C1461 C1458 1.403 . S
C1461 C1462 1.392 . S
C1461 C1465 1.495 . S
C1462 C1461 1.392 . S
C1462 C1463 1.385 . S
C1462 C1464 1.478 . S
C1463 H1457 0.930 . S
C1463 C1459 1.400 . S
C1463 C1462 1.385 . S
C1464 C1462 1.478 . S
C1464 C1466 1.381 . S
C1464 C1470 1.383 . S
C1465 C1461 1.495 . S
C1465 H1471 0.959 . S
C1465 H1472 0.961 . S
C1465 H1473 0.960 . S
C1466 C1464 1.381 . S
C1466 C1467 1.394 . S
C1466 H1474 0.930 . S
C1467 C1466 1.394 . S
C1467 C1468 1.383 . S
C1467 H1475 0.929 . S
C1468 C1467 1.383 . S
C1468 C1469 1.377 . S
C1469 H1453 0.930 . S
C1469 C1468 1.377 . S
C1469 C1470 1.379 . S
C1470 H1454 0.931 . S
C1470 C1464 1.383 . S
C1470 C1469 1.379 . S
H1471 C1465 0.959 . S
H1472 C1465 0.961 . S
H1473 C1465 0.960 . S
H1474 C1466 0.930 . S
H1475 C1467 0.929 . S
H1476 C1484 0.929 . S
H1477 C1486 0.930 . S
H1478 C1488 0.930 . S
H1479 C1491 0.929 . S
H1480 C1494 0.930 . S
H1481 C1496 0.960 . S
H1482 C1496 0.960 . S
H1483 C1496 0.960 . S
C1484 H1476 0.929 . S
C1484 C1485 1.377 . S
C1484 C1486 1.384 . S
C1485 C1484 1.377 . S
C1485 C1491 1.390 . S
C1486 H1477 0.930 . S
C1486 C1484 1.384 . S
C1486 C1487 1.372 . S
C1487 C1486 1.372 . S
C1487 C1488 1.400 . S
C1487 C1492 1.490 . S
C1488 H1478 0.930 . S
C1488 C1487 1.400 . S
C1488 C1491 1.386 . S
H1489 C1505 0.930 . S
H1490 C1506 0.931 . S
C1491 H1479 0.929 . S
C1491 C1485 1.390 . S
C1491 C1488 1.386 . S
C1492 C1487 1.490 . S
C1492 C1494 1.395 . S
C1492 C1495 1.403 . S
H1493 C1499 0.930 . S
C1494 H1480 0.930 . S
C1494 C1492 1.395 . S
C1494 C1497 1.403 . S
C1495 C1492 1.403 . S
C1495 C1496 1.524 . S
C1495 C1499 1.400 . S
C1496 H1481 0.960 . S
C1496 H1482 0.960 . S
C1496 H1483 0.960 . S
C1496 C1495 1.524 . S
C1497 C1494 1.403 . S
C1497 C1498 1.392 . S
C1497 C1501 1.495 . S
C1498 C1497 1.392 . S
C1498 C1499 1.385 . S
C1498 C1500 1.478 . S
C1499 H1493 0.930 . S
C1499 C1495 1.400 . S
C1499 C1498 1.385 . S
C1500 C1498 1.478 . S
C1500 C1502 1.381 . S
C1500 C1506 1.383 . S
C1501 C1497 1.495 . S
C1501 H1507 0.959 . S
C1501 H1508 0.961 . S
C1501 H1509 0.960 . S
C1502 C1500 1.381 . S
C1502 C1503 1.394 . S
C1502 H1510 0.930 . S
C1503 C1502 1.394 . S
C1503 C1504 1.383 . S
C1503 H1511 0.929 . S
C1504 C1503 1.383 . S
C1504 C1505 1.377 . S
C1505 H1489 0.930 . S
C1505 C1504 1.377 . S
C1505 C1506 1.379 . S
C1506 H1490 0.931 . S
C1506 C1500 1.383 . S
C1506 C1505 1.379 . S
H1507 C1501 0.959 . S
H1508 C1501 0.961 . S
H1509 C1501 0.960 . S
H1510 C1502 0.930 . S
H1511 C1503 0.929 . S
H1512 C1520 0.929 . S
H1513 C1522 0.930 . S
H1514 C1524 0.930 . S
H1515 C1527 0.929 . S
H1516 C1530 0.930 . S
H1517 C1532 0.960 . S
H1518 C1532 0.960 . S
H1519 C1532 0.960 . S
C1520 H1512 0.929 . S
C1520 C1521 1.377 . S
C1520 C1522 1.384 . S
C1521 C1520 1.377 . S
C1521 C1527 1.390 . S
C1522 H1513 0.930 . S
C1522 C1520 1.384 . S
C1522 C1523 1.372 . S
C1523 C1522 1.372 . S
C1523 C1524 1.400 . S
C1523 C1528 1.490 . S
C1524 H1514 0.930 . S
C1524 C1523 1.400 . S
C1524 C1527 1.386 . S
H1525 C1541 0.930 . S
H1526 C1542 0.931 . S
C1527 H1515 0.929 . S
C1527 C1521 1.390 . S
C1527 C1524 1.386 . S
C1528 C1523 1.490 . S
C1528 C1530 1.395 . S
C1528 C1531 1.403 . S
H1529 C1535 0.930 . S
C1530 H1516 0.930 . S
C1530 C1528 1.395 . S
C1530 C1533 1.403 . S
C1531 C1528 1.403 . S
C1531 C1532 1.524 . S
C1531 C1535 1.400 . S
C1532 H1517 0.960 . S
C1532 H1518 0.960 . S
C1532 H1519 0.960 . S
C1532 C1531 1.524 . S
C1533 C1530 1.403 . S
C1533 C1534 1.392 . S
C1533 C1537 1.495 . S
C1534 C1533 1.392 . S
C1534 C1535 1.385 . S
C1534 C1536 1.478 . S
C1535 H1529 0.930 . S
C1535 C1531 1.400 . S
C1535 C1534 1.385 . S
C1536 C1534 1.478 . S
C1536 C1538 1.381 . S
C1536 C1542 1.383 . S
C1537 C1533 1.495 . S
C1537 H1543 0.959 . S
C1537 H1544 0.961 . S
C1537 H1545 0.960 . S
C1538 C1536 1.381 . S
C1538 C1539 1.394 . S
C1538 H1546 0.930 . S
C1539 C1538 1.394 . S
C1539 C1540 1.383 . S
C1539 H1547 0.929 . S
C1540 C1539 1.383 . S
C1540 C1541 1.377 . S
C1541 H1525 0.930 . S
C1541 C1540 1.377 . S
C1541 C1542 1.379 . S
C1542 H1526 0.931 . S
C1542 C1536 1.383 . S
C1542 C1541 1.379 . S
H1543 C1537 0.959 . S
H1544 C1537 0.961 . S
H1545 C1537 0.960 . S
H1546 C1538 0.930 . S
H1547 C1539 0.929 . S
H1548 C1556 0.929 . S
H1549 C1558 0.930 . S
H1550 C1560 0.930 . S
H1551 C1563 0.929 . S
H1552 C1566 0.930 . S
H1553 C1568 0.960 . S
H1554 C1568 0.960 . S
H1555 C1568 0.960 . S
C1556 H1548 0.929 . S
C1556 C1557 1.377 . S
C1556 C1558 1.384 . S
C1557 C1556 1.377 . S
C1557 C1563 1.390 . S
C1558 H1549 0.930 . S
C1558 C1556 1.384 . S
C1558 C1559 1.372 . S
C1559 C1558 1.372 . S
C1559 C1560 1.400 . S
C1559 C1564 1.490 . S
C1560 H1550 0.930 . S
C1560 C1559 1.400 . S
C1560 C1563 1.386 . S
H1561 C1577 0.930 . S
H1562 C1578 0.931 . S
C1563 H1551 0.929 . S
C1563 C1557 1.390 . S
C1563 C1560 1.386 . S
C1564 C1559 1.490 . S
C1564 C1566 1.395 . S
C1564 C1567 1.403 . S
H1565 C1571 0.930 . S
C1566 H1552 0.930 . S
C1566 C1564 1.395 . S
C1566 C1569 1.403 . S
C1567 C1564 1.403 . S
C1567 C1568 1.524 . S
C1567 C1571 1.400 . S
C1568 H1553 0.960 . S
C1568 H1554 0.960 . S
C1568 H1555 0.960 . S
C1568 C1567 1.524 . S
C1569 C1566 1.403 . S
C1569 C1570 1.392 . S
C1569 C1573 1.495 . S
C1570 C1569 1.392 . S
C1570 C1571 1.385 . S
C1570 C1572 1.478 . S
C1571 H1565 0.930 . S
C1571 C1567 1.400 . S
C1571 C1570 1.385 . S
C1572 C1570 1.478 . S
C1572 C1574 1.381 . S
C1572 C1578 1.383 . S
C1573 C1569 1.495 . S
C1573 H1579 0.959 . S
C1573 H1580 0.961 . S
C1573 H1581 0.960 . S
C1574 C1572 1.381 . S
C1574 C1575 1.394 . S
C1574 H1582 0.930 . S
C1575 C1574 1.394 . S
C1575 C1576 1.383 . S
C1575 H1583 0.929 . S
C1576 C1575 1.383 . S
C1576 C1577 1.377 . S
C1577 H1561 0.930 . S
C1577 C1576 1.377 . S
C1577 C1578 1.379 . S
C1578 H1562 0.931 . S
C1578 C1572 1.383 . S
C1578 C1577 1.379 . S
H1579 C1573 0.959 . S
H1580 C1573 0.961 . S
H1581 C1573 0.960 . S
H1582 C1574 0.930 . S
H1583 C1575 0.929 . S
H1584 C1592 0.929 . S
H1585 C1594 0.930 . S
H1586 C1596 0.930 . S
H1587 C1599 0.929 . S
H1588 C1602 0.930 . S
H1589 C1604 0.960 . S
H1590 C1604 0.960 . S
H1591 C1604 0.960 . S
C1592 H1584 0.929 . S
C1592 C1593 1.377 . S
C1592 C1594 1.384 . S
C1593 C1592 1.377 . S
C1593 C1599 1.390 . S
C1594 H1585 0.930 . S
C1594 C1592 1.384 . S
C1594 C1595 1.372 . S
C1595 C1594 1.372 . S
C1595 C1596 1.400 . S
C1595 C1600 1.490 . S
C1596 H1586 0.930 . S
C1596 C1595 1.400 . S
C1596 C1599 1.386 . S
H1597 C1613 0.930 . S
H1598 C1614 0.931 . S
C1599 H1587 0.929 . S
C1599 C1593 1.390 . S
C1599 C1596 1.386 . S
C1600 C1595 1.490 . S
C1600 C1602 1.395 . S
C1600 C1603 1.403 . S
H1601 C1607 0.930 . S
C1602 H1588 0.930 . S
C1602 C1600 1.395 . S
C1602 C1605 1.403 . S
C1603 C1600 1.403 . S
C1603 C1604 1.524 . S
C1603 C1607 1.400 . S
C1604 H1589 0.960 . S
C1604 H1590 0.960 . S
C1604 H1591 0.960 . S
C1604 C1603 1.524 . S
C1605 C1602 1.403 . S
C1605 C1606 1.392 . S
C1605 C1609 1.495 . S
C1606 C1605 1.392 . S
C1606 C1607 1.385 . S
C1606 C1608 1.478 . S
C1607 H1601 0.930 . S
C1607 C1603 1.400 . S
C1607 C1606 1.385 . S
C1608 C1606 1.478 . S
C1608 C1610 1.381 . S
C1608 C1614 1.383 . S
C1609 C1605 1.495 . S
C1609 H1615 0.959 . S
C1609 H1616 0.961 . S
C1609 H1617 0.960 . S
C1610 C1608 1.381 . S
C1610 C1611 1.394 . S
C1610 H1618 0.930 . S
C1611 C1610 1.394 . S
C1611 C1612 1.383 . S
C1611 H1619 0.929 . S
C1612 C1611 1.383 . S
C1612 C1613 1.377 . S
C1613 H1597 0.930 . S
C1613 C1612 1.377 . S
C1613 C1614 1.379 . S
C1614 H1598 0.931 . S
C1614 C1608 1.383 . S
C1614 C1613 1.379 . S
H1615 C1609 0.959 . S
H1616 C1609 0.961 . S
H1617 C1609 0.960 . S
H1618 C1610 0.930 . S
H1619 C1611 0.929 . S
H1620 C1628 0.929 . S
H1621 C1630 0.930 . S
H1622 C1632 0.930 . S
H1623 C1635 0.929 . S
H1624 C1638 0.930 . S
H1625 C1640 0.960 . S
H1626 C1640 0.960 . S
H1627 C1640 0.960 . S
C1628 H1620 0.929 . S
C1628 C1629 1.377 . S
C1628 C1630 1.384 . S
C1629 C1628 1.377 . S
C1629 C1635 1.390 . S
C1630 H1621 0.930 . S
C1630 C1628 1.384 . S
C1630 C1631 1.372 . S
C1631 C1630 1.372 . S
C1631 C1632 1.400 . S
C1631 C1636 1.490 . S
C1632 H1622 0.930 . S
C1632 C1631 1.400 . S
C1632 C1635 1.386 . S
H1633 C1649 0.930 . S
H1634 C1650 0.931 . S
C1635 H1623 0.929 . S
C1635 C1629 1.390 . S
C1635 C1632 1.386 . S
C1636 C1631 1.490 . S
C1636 C1638 1.395 . S
C1636 C1639 1.403 . S
H1637 C1643 0.930 . S
C1638 H1624 0.930 . S
C1638 C1636 1.395 . S
C1638 C1641 1.403 . S
C1639 C1636 1.403 . S
C1639 C1640 1.524 . S
C1639 C1643 1.400 . S
C1640 H1625 0.960 . S
C1640 H1626 0.960 . S
C1640 H1627 0.960 . S
C1640 C1639 1.524 . S
C1641 C1638 1.403 . S
C1641 C1642 1.392 . S
C1641 C1645 1.495 . S
C1642 C1641 1.392 . S
C1642 C1643 1.385 . S
C1642 C1644 1.478 . S
C1643 H1637 0.930 . S
C1643 C1639 1.400 . S
C1643 C1642 1.385 . S
C1644 C1642 1.478 . S
C1644 C1646 1.381 . S
C1644 C1650 1.383 . S
C1645 C1641 1.495 . S
C1645 H1651 0.959 . S
C1645 H1652 0.961 . S
C1645 H1653 0.960 . S
C1646 C1644 1.381 . S
C1646 C1647 1.394 . S
C1646 H1654 0.930 . S
C1647 C1646 1.394 . S
C1647 C1648 1.383 . S
C1647 H1655 0.929 . S
C1648 C1647 1.383 . S
C1648 C1649 1.377 . S
C1649 H1633 0.930 . S
C1649 C1648 1.377 . S
C1649 C1650 1.379 . S
C1650 H1634 0.931 . S
C1650 C1644 1.383 . S
C1650 C1649 1.379 . S
H1651 C1645 0.959 . S
H1652 C1645 0.961 . S
H1653 C1645 0.960 . S
H1654 C1646 0.930 . S
H1655 C1647 0.929 . S
H1656 C1664 0.929 . S
H1657 C1666 0.930 . S
H1658 C1668 0.930 1_455 S
H1659 C1671 0.929 . S
H1660 C1674 0.930 . S
H1661 C1676 0.960 . S
H1662 C1676 0.960 . S
H1663 C1676 0.960 . S
C1664 H1656 0.929 . S
C1664 C1665 1.377 . S
C1664 C1666 1.384 . S
C1665 C1664 1.377 . S
C1665 C1671 1.390 . S
C1666 H1657 0.930 . S
C1666 C1664 1.384 . S
C1666 C1667 1.372 . S
C1667 C1666 1.372 . S
C1667 C1668 1.400 . S
C1667 C1672 1.490 . S
C1668 H1658 0.930 1_655 S
C1668 C1667 1.400 . S
C1668 C1671 1.386 . S
H1669 C1685 0.930 . S
H1670 C1686 0.931 . S
C1671 H1659 0.929 . S
C1671 C1665 1.390 . S
C1671 C1668 1.386 . S
C1672 C1667 1.490 . S
C1672 C1674 1.395 . S
C1672 C1675 1.403 1_655 S
H1673 C1679 0.930 . S
C1674 H1660 0.930 . S
C1674 C1672 1.395 . S
C1674 C1677 1.403 . S
C1675 C1672 1.403 1_455 S
C1675 C1676 1.524 . S
C1675 C1679 1.400 . S
C1676 H1661 0.960 . S
C1676 H1662 0.960 . S
C1676 H1663 0.960 . S
C1676 C1675 1.524 . S
C1677 C1674 1.403 . S
C1677 C1678 1.392 1_655 S
C1677 C1681 1.495 . S
C1678 C1677 1.392 1_455 S
C1678 C1679 1.385 . S
C1678 C1680 1.478 . S
C1679 H1673 0.930 . S
C1679 C1675 1.400 . S
C1679 C1678 1.385 . S
C1680 C1678 1.478 . S
C1680 C1682 1.381 . S
C1680 C1686 1.383 . S
C1681 C1677 1.495 . S
C1681 H1687 0.959 . S
C1681 H1688 0.961 . S
C1681 H1689 0.960 . S
C1682 C1680 1.381 . S
C1682 C1683 1.394 . S
C1682 H1690 0.930 1_455 S
C1683 C1682 1.394 . S
C1683 C1684 1.383 . S
C1683 H1691 0.929 . S
C1684 C1683 1.383 . S
C1684 C1685 1.377 . S
C1685 H1669 0.930 . S
C1685 C1684 1.377 . S
C1685 C1686 1.379 . S
C1686 H1670 0.931 . S
C1686 C1680 1.383 . S
C1686 C1685 1.379 . S
H1687 C1681 0.959 . S
H1688 C1681 0.961 . S
H1689 C1681 0.960 . S
H1690 C1682 0.930 1_655 S
H1691 C1683 0.929 . S
H1692 C1700 0.929 . S
H1693 C1702 0.930 . S
H1694 C1704 0.930 . S
H1695 C1707 0.929 . S
H1696 C1710 0.930 . S
H1697 C1712 0.960 . S
H1698 C1712 0.960 . S
H1699 C1712 0.960 . S
C1700 H1692 0.929 . S
C1700 C1701 1.377 . S
C1700 C1702 1.384 . S
C1701 C1700 1.377 . S
C1701 C1707 1.390 . S
C1702 H1693 0.930 . S
C1702 C1700 1.384 . S
C1702 C1703 1.372 . S
C1703 C1702 1.372 . S
C1703 C1704 1.400 . S
C1703 C1708 1.490 . S
C1704 H1694 0.930 . S
C1704 C1703 1.400 . S
C1704 C1707 1.386 . S
H1705 C1721 0.930 . S
H1706 C1722 0.931 . S
C1707 H1695 0.929 . S
C1707 C1701 1.390 . S
C1707 C1704 1.386 . S
C1708 C1703 1.490 . S
C1708 C1710 1.395 . S
C1708 C1711 1.403 . S
H1709 C1715 0.930 . S
C1710 H1696 0.930 . S
C1710 C1708 1.395 . S
C1710 C1713 1.403 . S
C1711 C1708 1.403 . S
C1711 C1712 1.524 . S
C1711 C1715 1.400 . S
C1712 H1697 0.960 . S
C1712 H1698 0.960 . S
C1712 H1699 0.960 . S
C1712 C1711 1.524 . S
C1713 C1710 1.403 . S
C1713 C1714 1.392 . S
C1713 C1717 1.495 . S
C1714 C1713 1.392 . S
C1714 C1715 1.385 . S
C1714 C1716 1.478 . S
C1715 H1709 0.930 . S
C1715 C1711 1.400 . S
C1715 C1714 1.385 . S
C1716 C1714 1.478 . S
C1716 C1718 1.381 . S
C1716 C1722 1.383 . S
C1717 C1713 1.495 . S
C1717 H1723 0.959 . S
C1717 H1724 0.961 . S
C1717 H1725 0.960 . S
C1718 C1716 1.381 . S
C1718 C1719 1.394 . S
C1718 H1726 0.930 . S
C1719 C1718 1.394 . S
C1719 C1720 1.383 . S
C1719 H1727 0.929 . S
C1720 C1719 1.383 . S
C1720 C1721 1.377 . S
C1721 H1705 0.930 . S
C1721 C1720 1.377 . S
C1721 C1722 1.379 . S
C1722 H1706 0.931 . S
C1722 C1716 1.383 . S
C1722 C1721 1.379 . S
H1723 C1717 0.959 . S
H1724 C1717 0.961 . S
H1725 C1717 0.960 . S
H1726 C1718 0.930 . S
H1727 C1719 0.929 . S
H1728 C1736 0.929 . S
H1729 C1738 0.930 1_545 S
H1730 C1740 0.930 . S
H1731 C1743 0.929 . S
H1732 C1746 0.930 . S
H1733 C1748 0.960 . S
H1734 C1748 0.960 . S
H1735 C1748 0.960 . S
C1736 H1728 0.929 . S
C1736 C1737 1.377 . S
C1736 C1738 1.384 . S
C1737 C1736 1.377 . S
C1737 C1743 1.390 . S
C1738 H1729 0.930 1_565 S
C1738 C1736 1.384 . S
C1738 C1739 1.372 . S
C1739 C1738 1.372 . S
C1739 C1740 1.400 . S
C1739 C1744 1.490 . S
C1740 H1730 0.930 . S
C1740 C1739 1.400 . S
C1740 C1743 1.386 . S
H1741 C1757 0.930 . S
H1742 C1758 0.931 1_565 S
C1743 H1731 0.929 . S
C1743 C1737 1.390 . S
C1743 C1740 1.386 . S
C1744 C1739 1.490 . S
C1744 C1746 1.395 1_565 S
C1744 C1747 1.403 . S
H1745 C1751 0.930 . S
C1746 H1732 0.930 . S
C1746 C1744 1.395 1_545 S
C1746 C1749 1.403 . S
C1747 C1744 1.403 . S
C1747 C1748 1.524 . S
C1747 C1751 1.400 . S
C1748 H1733 0.960 . S
C1748 H1734 0.960 . S
C1748 H1735 0.960 . S
C1748 C1747 1.524 . S
C1749 C1746 1.403 . S
C1749 C1750 1.392 . S
C1749 C1753 1.495 . S
C1750 C1749 1.392 . S
C1750 C1751 1.385 1_545 S
C1750 C1752 1.478 . S
C1751 H1745 0.930 . S
C1751 C1747 1.400 . S
C1751 C1750 1.385 1_565 S
C1752 C1750 1.478 . S
C1752 C1754 1.381 . S
C1752 C1758 1.383 . S
C1753 C1749 1.495 . S
C1753 H1759 0.959 . S
C1753 H1760 0.961 . S
C1753 H1761 0.960 . S
C1754 C1752 1.381 . S
C1754 C1755 1.394 . S
C1754 H1762 0.930 . S
C1755 C1754 1.394 . S
C1755 C1756 1.383 . S
C1755 H1763 0.929 . S
C1756 C1755 1.383 . S
C1756 C1757 1.377 . S
C1757 H1741 0.930 . S
C1757 C1756 1.377 . S
C1757 C1758 1.379 . S
C1758 H1742 0.931 1_545 S
C1758 C1752 1.383 . S
C1758 C1757 1.379 . S
H1759 C1753 0.959 . S
H1760 C1753 0.961 . S
H1761 C1753 0.960 . S
H1762 C1754 0.930 . S
H1763 C1755 0.929 . S
H1764 C1772 0.929 . S
H1765 C1774 0.930 . S
H1766 C1776 0.930 . S
H1767 C1779 0.929 . S
H1768 C1782 0.930 . S
H1769 C1784 0.960 . S
H1770 C1784 0.960 . S
H1771 C1784 0.960 . S
C1772 H1764 0.929 . S
C1772 C1773 1.377 . S
C1772 C1774 1.384 . S
C1773 C1772 1.377 . S
C1773 C1779 1.390 . S
C1774 H1765 0.930 . S
C1774 C1772 1.384 . S
C1774 C1775 1.372 . S
C1775 C1774 1.372 . S
C1775 C1776 1.400 . S
C1775 C1780 1.490 . S
C1776 H1766 0.930 . S
C1776 C1775 1.400 . S
C1776 C1779 1.386 . S
H1777 C1793 0.930 . S
H1778 C1794 0.931 . S
C1779 H1767 0.929 . S
C1779 C1773 1.390 . S
C1779 C1776 1.386 . S
C1780 C1775 1.490 . S
C1780 C1782 1.395 1_565 S
C1780 C1783 1.403 . S
H1781 C1787 0.930 . S
C1782 H1768 0.930 . S
C1782 C1780 1.395 1_545 S
C1782 C1785 1.403 . S
C1783 C1780 1.403 . S
C1783 C1784 1.524 . S
C1783 C1787 1.400 . S
C1784 H1769 0.960 . S
C1784 H1770 0.960 . S
C1784 H1771 0.960 . S
C1784 C1783 1.524 . S
C1785 C1782 1.403 . S
C1785 C1786 1.392 . S
C1785 C1789 1.495 . S
C1786 C1785 1.392 . S
C1786 C1787 1.385 1_545 S
C1786 C1788 1.478 . S
C1787 H1781 0.930 . S
C1787 C1783 1.400 . S
C1787 C1786 1.385 1_565 S
C1788 C1786 1.478 . S
C1788 C1790 1.381 . S
C1788 C1794 1.383 . S
C1789 C1785 1.495 . S
C1789 H1795 0.959 . S
C1789 H1796 0.961 . S
C1789 H1797 0.960 . S
C1790 C1788 1.381 . S
C1790 C1791 1.394 . S
C1790 H1798 0.930 . S
C1791 C1790 1.394 . S
C1791 C1792 1.383 . S
C1791 H1799 0.929 . S
C1792 C1791 1.383 . S
C1792 C1793 1.377 . S
C1793 H1777 0.930 . S
C1793 C1792 1.377 . S
C1793 C1794 1.379 . S
C1794 H1778 0.931 . S
C1794 C1788 1.383 . S
C1794 C1793 1.379 . S
H1795 C1789 0.959 . S
H1796 C1789 0.961 . S
H1797 C1789 0.960 . S
H1798 C1790 0.930 . S
H1799 C1791 0.929 . S
H1800 C1808 0.929 . S
H1801 C1810 0.930 1_655 S
H1802 C1812 0.930 . S
H1803 C1815 0.929 . S
H1804 C1818 0.930 . S
H1805 C1820 0.960 . S
H1806 C1820 0.960 . S
H1807 C1820 0.960 . S
C1808 H1800 0.929 . S
C1808 C1809 1.377 . S
C1808 C1810 1.384 . S
C1809 C1808 1.377 . S
C1809 C1815 1.390 . S
C1810 H1801 0.930 1_455 S
C1810 C1808 1.384 . S
C1810 C1811 1.372 . S
C1811 C1810 1.372 . S
C1811 C1812 1.400 . S
C1811 C1816 1.490 . S
C1812 H1802 0.930 . S
C1812 C1811 1.400 . S
C1812 C1815 1.386 . S
H1813 C1829 0.930 . S
H1814 C1830 0.931 1_455 S
C1815 H1803 0.929 . S
C1815 C1809 1.390 . S
C1815 C1812 1.386 . S
C1816 C1811 1.490 . S
C1816 C1818 1.395 1_455 S
C1816 C1819 1.403 . S
H1817 C1823 0.930 . S
C1818 H1804 0.930 . S
C1818 C1816 1.395 1_655 S
C1818 C1821 1.403 . S
C1819 C1816 1.403 . S
C1819 C1820 1.524 . S
C1819 C1823 1.400 . S
C1820 H1805 0.960 . S
C1820 H1806 0.960 . S
C1820 H1807 0.960 . S
C1820 C1819 1.524 . S
C1821 C1818 1.403 . S
C1821 C1822 1.392 . S
C1821 C1825 1.495 . S
C1822 C1821 1.392 . S
C1822 C1823 1.385 1_655 S
C1822 C1824 1.478 . S
C1823 H1817 0.930 . S
C1823 C1819 1.400 . S
C1823 C1822 1.385 1_455 S
C1824 C1822 1.478 . S
C1824 C1826 1.381 . S
C1824 C1830 1.383 . S
C1825 C1821 1.495 . S
C1825 H1831 0.959 . S
C1825 H1832 0.961 . S
C1825 H1833 0.960 . S
C1826 C1824 1.381 . S
C1826 C1827 1.394 . S
C1826 H1834 0.930 . S
C1827 C1826 1.394 . S
C1827 C1828 1.383 . S
C1827 H1835 0.929 . S
C1828 C1827 1.383 . S
C1828 C1829 1.377 . S
C1829 H1813 0.930 . S
C1829 C1828 1.377 . S
C1829 C1830 1.379 . S
C1830 H1814 0.931 1_655 S
C1830 C1824 1.383 . S
C1830 C1829 1.379 . S
H1831 C1825 0.959 . S
H1832 C1825 0.961 . S
H1833 C1825 0.960 . S
H1834 C1826 0.930 . S
H1835 C1827 0.929 . S
H1836 C1844 0.929 . S
H1837 C1846 0.930 . S
H1838 C1848 0.930 . S
H1839 C1851 0.929 . S
H1840 C1854 0.930 . S
H1841 C1856 0.960 . S
H1842 C1856 0.960 . S
H1843 C1856 0.960 . S
C1844 H1836 0.929 . S
C1844 C1845 1.377 . S
C1844 C1846 1.384 . S
C1845 C1844 1.377 . S
C1845 C1851 1.390 . S
C1846 H1837 0.930 . S
C1846 C1844 1.384 . S
C1846 C1847 1.372 . S
C1847 C1846 1.372 . S
C1847 C1848 1.400 . S
C1847 C1852 1.490 . S
C1848 H1838 0.930 . S
C1848 C1847 1.400 . S
C1848 C1851 1.386 . S
H1849 C1865 0.930 . S
H1850 C1866 0.931 . S
C1851 H1839 0.929 . S
C1851 C1845 1.390 . S
C1851 C1848 1.386 . S
C1852 C1847 1.490 . S
C1852 C1854 1.395 . S
C1852 C1855 1.403 . S
H1853 C1859 0.930 . S
C1854 H1840 0.930 . S
C1854 C1852 1.395 . S
C1854 C1857 1.403 . S
C1855 C1852 1.403 . S
C1855 C1856 1.524 . S
C1855 C1859 1.400 . S
C1856 H1841 0.960 . S
C1856 H1842 0.960 . S
C1856 H1843 0.960 . S
C1856 C1855 1.524 . S
C1857 C1854 1.403 . S
C1857 C1858 1.392 . S
C1857 C1861 1.495 . S
C1858 C1857 1.392 . S
C1858 C1859 1.385 . S
C1858 C1860 1.478 . S
C1859 H1853 0.930 . S
C1859 C1855 1.400 . S
C1859 C1858 1.385 . S
C1860 C1858 1.478 . S
C1860 C1862 1.381 . S
C1860 C1866 1.383 . S
C1861 C1857 1.495 . S
C1861 H1867 0.959 . S
C1861 H1868 0.961 . S
C1861 H1869 0.960 . S
C1862 C1860 1.381 . S
C1862 C1863 1.394 . S
C1862 H1870 0.930 . S
C1863 C1862 1.394 . S
C1863 C1864 1.383 . S
C1863 H1871 0.929 . S
C1864 C1863 1.383 . S
C1864 C1865 1.377 . S
C1865 H1849 0.930 . S
C1865 C1864 1.377 . S
C1865 C1866 1.379 . S
C1866 H1850 0.931 . S
C1866 C1860 1.383 . S
C1866 C1865 1.379 . S
H1867 C1861 0.959 . S
H1868 C1861 0.961 . S
H1869 C1861 0.960 . S
H1870 C1862 0.930 . S
H1871 C1863 0.929 . S
H1872 C1880 0.929 . S
H1873 C1882 0.930 . S
H1874 C1884 0.930 . S
H1875 C1887 0.929 . S
H1876 C1890 0.930 . S
H1877 C1892 0.960 . S
H1878 C1892 0.960 . S
H1879 C1892 0.960 . S
C1880 H1872 0.929 . S
C1880 C1881 1.377 . S
C1880 C1882 1.384 . S
C1881 C1880 1.377 . S
C1881 C1887 1.390 . S
C1882 H1873 0.930 . S
C1882 C1880 1.384 . S
C1882 C1883 1.372 . S
C1883 C1882 1.372 . S
C1883 C1884 1.400 . S
C1883 C1888 1.490 . S
C1884 H1874 0.930 . S
C1884 C1883 1.400 . S
C1884 C1887 1.386 . S
H1885 C1901 0.930 . S
H1886 C1902 0.931 . S
C1887 H1875 0.929 . S
C1887 C1881 1.390 . S
C1887 C1884 1.386 . S
C1888 C1883 1.490 . S
C1888 C1890 1.395 . S
C1888 C1891 1.403 . S
H1889 C1895 0.930 . S
C1890 H1876 0.930 . S
C1890 C1888 1.395 . S
C1890 C1893 1.403 . S
C1891 C1888 1.403 . S
C1891 C1892 1.524 . S
C1891 C1895 1.400 . S
C1892 H1877 0.960 . S
C1892 H1878 0.960 . S
C1892 H1879 0.960 . S
C1892 C1891 1.524 . S
C1893 C1890 1.403 . S
C1893 C1894 1.392 . S
C1893 C1897 1.495 . S
C1894 C1893 1.392 . S
C1894 C1895 1.385 . S
C1894 C1896 1.478 . S
C1895 H1889 0.930 . S
C1895 C1891 1.400 . S
C1895 C1894 1.385 . S
C1896 C1894 1.478 . S
C1896 C1898 1.381 . S
C1896 C1902 1.383 . S
C1897 C1893 1.495 . S
C1897 H1903 0.959 . S
C1897 H1904 0.961 . S
C1897 H1905 0.960 . S
C1898 C1896 1.381 . S
C1898 C1899 1.394 . S
C1898 H1906 0.930 . S
C1899 C1898 1.394 . S
C1899 C1900 1.383 . S
C1899 H1907 0.929 . S
C1900 C1899 1.383 . S
C1900 C1901 1.377 . S
C1901 H1885 0.930 . S
C1901 C1900 1.377 . S
C1901 C1902 1.379 . S
C1902 H1886 0.931 . S
C1902 C1896 1.383 . S
C1902 C1901 1.379 . S
H1903 C1897 0.959 . S
H1904 C1897 0.961 . S
H1905 C1897 0.960 . S
H1906 C1898 0.930 . S
H1907 C1899 0.929 . S
H1908 C1916 0.929 . S
H1909 C1918 0.930 . S
H1910 C1920 0.930 . S
H1911 C1923 0.929 . S
H1912 C1926 0.930 . S
H1913 C1928 0.960 . S
H1914 C1928 0.960 . S
H1915 C1928 0.960 . S
C1916 H1908 0.929 . S
C1916 C1917 1.377 . S
C1916 C1918 1.384 . S
C1917 C1916 1.377 . S
C1917 C1923 1.390 . S
C1918 H1909 0.930 . S
C1918 C1916 1.384 . S
C1918 C1919 1.372 . S
C1919 C1918 1.372 . S
C1919 C1920 1.400 . S
C1919 C1924 1.490 . S
C1920 H1910 0.930 . S
C1920 C1919 1.400 . S
C1920 C1923 1.386 . S
H1921 C1937 0.930 . S
H1922 C1938 0.931 . S
C1923 H1911 0.929 . S
C1923 C1917 1.390 . S
C1923 C1920 1.386 . S
C1924 C1919 1.490 . S
C1924 C1926 1.395 . S
C1924 C1927 1.403 . S
H1925 C1931 0.930 . S
C1926 H1912 0.930 . S
C1926 C1924 1.395 . S
C1926 C1929 1.403 . S
C1927 C1924 1.403 . S
C1927 C1928 1.524 . S
C1927 C1931 1.400 . S
C1928 H1913 0.960 . S
C1928 H1914 0.960 . S
C1928 H1915 0.960 . S
C1928 C1927 1.524 . S
C1929 C1926 1.403 . S
C1929 C1930 1.392 . S
C1929 C1933 1.495 . S
C1930 C1929 1.392 . S
C1930 C1931 1.385 . S
C1930 C1932 1.478 . S
C1931 H1925 0.930 . S
C1931 C1927 1.400 . S
C1931 C1930 1.385 . S
C1932 C1930 1.478 . S
C1932 C1934 1.381 1_545 S
C1932 C1938 1.383 . S
C1933 C1929 1.495 . S
C1933 H1939 0.959 . S
C1933 H1940 0.961 . S
C1933 H1941 0.960 . S
C1934 C1932 1.381 1_565 S
C1934 C1935 1.394 . S
C1934 H1942 0.930 . S
C1935 C1934 1.394 . S
C1935 C1936 1.383 . S
C1935 H1943 0.929 . S
C1936 C1935 1.383 . S
C1936 C1937 1.377 1_565 S
C1937 H1921 0.930 . S
C1937 C1936 1.377 1_545 S
C1937 C1938 1.379 . S
C1938 H1922 0.931 . S
C1938 C1932 1.383 . S
C1938 C1937 1.379 . S
H1939 C1933 0.959 . S
H1940 C1933 0.961 . S
H1941 C1933 0.960 . S
H1942 C1934 0.930 . S
H1943 C1935 0.929 . S
H1944 C1952 0.929 . S
H1945 C1954 0.930 . S
H1946 C1956 0.930 . S
H1947 C1959 0.929 . S
H1948 C1962 0.930 . S
H1949 C1964 0.960 . S
H1950 C1964 0.960 . S
H1951 C1964 0.960 . S
C1952 H1944 0.929 . S
C1952 C1953 1.377 . S
C1952 C1954 1.384 . S
C1953 C1952 1.377 . S
C1953 C1959 1.390 . S
C1954 H1945 0.930 . S
C1954 C1952 1.384 . S
C1954 C1955 1.372 . S
C1955 C1954 1.372 . S
C1955 C1956 1.400 . S
C1955 C1960 1.490 . S
C1956 H1946 0.930 . S
C1956 C1955 1.400 . S
C1956 C1959 1.386 . S
H1957 C1973 0.930 . S
H1958 C1974 0.931 . S
C1959 H1947 0.929 . S
C1959 C1953 1.390 . S
C1959 C1956 1.386 . S
C1960 C1955 1.490 . S
C1960 C1962 1.395 . S
C1960 C1963 1.403 . S
H1961 C1967 0.930 . S
C1962 H1948 0.930 . S
C1962 C1960 1.395 . S
C1962 C1965 1.403 . S
C1963 C1960 1.403 . S
C1963 C1964 1.524 . S
C1963 C1967 1.400 . S
C1964 H1949 0.960 . S
C1964 H1950 0.960 . S
C1964 H1951 0.960 . S
C1964 C1963 1.524 . S
C1965 C1962 1.403 . S
C1965 C1966 1.392 . S
C1965 C1969 1.495 . S
C1966 C1965 1.392 . S
C1966 C1967 1.385 . S
C1966 C1968 1.478 . S
C1967 H1961 0.930 . S
C1967 C1963 1.400 . S
C1967 C1966 1.385 . S
C1968 C1966 1.478 . S
C1968 C1970 1.381 1_655 S
C1968 C1974 1.383 . S
C1969 C1965 1.495 . S
C1969 H1975 0.959 . S
C1969 H1976 0.961 . S
C1969 H1977 0.960 1_655 S
C1970 C1968 1.381 1_455 S
C1970 C1971 1.394 . S
C1970 H1978 0.930 . S
C1971 C1970 1.394 . S
C1971 C1972 1.383 . S
C1971 H1979 0.929 . S
C1972 C1971 1.383 . S
C1972 C1973 1.377 1_455 S
C1973 H1957 0.930 . S
C1973 C1972 1.377 1_655 S
C1973 C1974 1.379 . S
C1974 H1958 0.931 . S
C1974 C1968 1.383 . S
C1974 C1973 1.379 . S
H1975 C1969 0.959 . S
H1976 C1969 0.961 . S
H1977 C1969 0.960 1_455 S
H1978 C1970 0.930 . S
H1979 C1971 0.929 . S
H1980 C1988 0.929 . S
H1981 C1990 0.930 . S
H1982 C1992 0.930 . S
H1983 C1995 0.929 . S
H1984 C1998 0.930 . S
H1985 C2000 0.960 . S
H1986 C2000 0.960 . S
H1987 C2000 0.960 . S
C1988 H1980 0.929 . S
C1988 C1989 1.377 . S
C1988 C1990 1.384 . S
C1989 C1988 1.377 . S
C1989 C1995 1.390 . S
C1990 H1981 0.930 . S
C1990 C1988 1.384 . S
C1990 C1991 1.372 . S
C1991 C1990 1.372 . S
C1991 C1992 1.400 . S
C1991 C1996 1.490 . S
C1992 H1982 0.930 . S
C1992 C1991 1.400 . S
C1992 C1995 1.386 . S
H1993 C2009 0.930 . S
H1994 C2010 0.931 . S
C1995 H1983 0.929 . S
C1995 C1989 1.390 . S
C1995 C1992 1.386 . S
C1996 C1991 1.490 . S
C1996 C1998 1.395 . S
C1996 C1999 1.403 . S
H1997 C2003 0.930 . S
C1998 H1984 0.930 . S
C1998 C1996 1.395 . S
C1998 C2001 1.403 . S
C1999 C1996 1.403 . S
C1999 C2000 1.524 . S
C1999 C2003 1.400 . S
C2000 H1985 0.960 . S
C2000 H1986 0.960 . S
C2000 H1987 0.960 . S
C2000 C1999 1.524 . S
C2001 C1998 1.403 . S
C2001 C2002 1.392 . S
C2001 C2005 1.495 . S
C2002 C2001 1.392 . S
C2002 C2003 1.385 . S
C2002 C2004 1.478 . S
C2003 H1997 0.930 . S
C2003 C1999 1.400 . S
C2003 C2002 1.385 . S
C2004 C2002 1.478 . S
C2004 C2006 1.381 . S
C2004 C2010 1.383 . S
C2005 C2001 1.495 . S
C2005 H2011 0.959 . S
C2005 H2012 0.961 . S
C2005 H2013 0.960 . S
C2006 C2004 1.381 . S
C2006 C2007 1.394 . S
C2006 H2014 0.930 . S
C2007 C2006 1.394 . S
C2007 C2008 1.383 . S
C2007 H2015 0.929 . S
C2008 C2007 1.383 . S
C2008 C2009 1.377 . S
C2009 H1993 0.930 . S
C2009 C2008 1.377 . S
C2009 C2010 1.379 . S
C2010 H1994 0.931 . S
C2010 C2004 1.383 . S
C2010 C2009 1.379 . S
H2011 C2005 0.959 . S
H2012 C2005 0.961 . S
H2013 C2005 0.960 . S
H2014 C2006 0.930 . S
H2015 C2007 0.929 . S
H2016 C2024 0.929 . S
H2017 C2026 0.930 . S
H2018 C2028 0.930 . S
H2019 C2031 0.929 . S
H2020 C2034 0.930 . S
H2021 C2036 0.960 . S
H2022 C2036 0.960 . S
H2023 C2036 0.960 . S
C2024 H2016 0.929 . S
C2024 C2025 1.377 . S
C2024 C2026 1.384 . S
C2025 C2024 1.377 . S
C2025 C2031 1.390 . S
C2026 H2017 0.930 . S
C2026 C2024 1.384 . S
C2026 C2027 1.372 . S
C2027 C2026 1.372 . S
C2027 C2028 1.400 . S
C2027 C2032 1.490 . S
C2028 H2018 0.930 . S
C2028 C2027 1.400 . S
C2028 C2031 1.386 . S
H2029 C2045 0.930 . S
H2030 C2046 0.931 . S
C2031 H2019 0.929 . S
C2031 C2025 1.390 . S
C2031 C2028 1.386 . S
C2032 C2027 1.490 . S
C2032 C2034 1.395 . S
C2032 C2035 1.403 . S
H2033 C2039 0.930 . S
C2034 H2020 0.930 . S
C2034 C2032 1.395 . S
C2034 C2037 1.403 . S
C2035 C2032 1.403 . S
C2035 C2036 1.524 . S
C2035 C2039 1.400 . S
C2036 H2021 0.960 . S
C2036 H2022 0.960 . S
C2036 H2023 0.960 . S
C2036 C2035 1.524 . S
C2037 C2034 1.403 . S
C2037 C2038 1.392 . S
C2037 C2041 1.495 . S
C2038 C2037 1.392 . S
C2038 C2039 1.385 . S
C2038 C2040 1.478 . S
C2039 H2033 0.930 . S
C2039 C2035 1.400 . S
C2039 C2038 1.385 . S
C2040 C2038 1.478 . S
C2040 C2042 1.381 . S
C2040 C2046 1.383 1_565 S
C2041 C2037 1.495 . S
C2041 H2047 0.959 . S
C2041 H2048 0.961 . S
C2041 H2049 0.960 . S
C2042 C2040 1.381 . S
C2042 C2043 1.394 . S
C2042 H2050 0.930 . S
C2043 C2042 1.394 . S
C2043 C2044 1.383 1_565 S
C2043 H2051 0.929 . S
C2044 C2043 1.383 1_545 S
C2044 C2045 1.377 . S
C2045 H2029 0.930 . S
C2045 C2044 1.377 . S
C2045 C2046 1.379 . S
C2046 H2030 0.931 . S
C2046 C2040 1.383 1_545 S
C2046 C2045 1.379 . S
H2047 C2041 0.959 . S
H2048 C2041 0.961 . S
H2049 C2041 0.960 . S
H2050 C2042 0.930 . S
H2051 C2043 0.929 . S
H2052 C2060 0.919 . S
H2053 C2062 0.930 . S
H2054 C2064 0.930 . S
H2055 C2067 0.927 1_655 S
H2056 C2070 0.930 . S
H2057 C2072 0.960 . S
H2058 C2072 0.960 . S
H2059 C2072 0.960 . S
C2060 H2052 0.919 . S
C2060 C2061 1.377 1_455 S
C2060 C2062 1.384 . S
C2061 C2060 1.377 1_655 S
C2061 C2067 1.392 1_655 S
C2062 H2053 0.930 . S
C2062 C2060 1.384 . S
C2062 C2063 1.372 . S
C2063 C2062 1.372 . S
C2063 C2064 1.400 . S
C2063 C2068 1.490 . S
C2064 H2054 0.930 . S
C2064 C2063 1.400 . S
C2064 C2067 1.386 . S
H2065 C2081 0.930 . S
H2066 C2082 0.931 . S
C2067 H2055 0.927 1_455 S
C2067 C2061 1.392 1_455 S
C2067 C2064 1.386 . S
C2068 C2063 1.490 . S
C2068 C2070 1.395 . S
C2068 C2071 1.403 . S
H2069 C2075 0.930 . S
C2070 H2056 0.930 . S
C2070 C2068 1.395 . S
C2070 C2073 1.403 . S
C2071 C2068 1.403 . S
C2071 C2072 1.524 1_455 S
C2071 C2075 1.400 . S
C2072 H2057 0.960 . S
C2072 H2058 0.960 . S
C2072 H2059 0.960 . S
C2072 C2071 1.524 1_655 S
C2073 C2070 1.403 . S
C2073 C2074 1.392 . S
C2073 C2077 1.495 . S
C2074 C2073 1.392 . S
C2074 C2075 1.385 . S
C2074 C2076 1.478 . S
C2075 H2069 0.930 . S
C2075 C2071 1.400 . S
C2075 C2074 1.385 . S
C2076 C2074 1.478 . S
C2076 C2078 1.381 . S
C2076 C2082 1.383 . S
C2077 C2073 1.495 . S
C2077 H2083 0.959 . S
C2077 H2084 0.961 . S
C2077 H2085 0.960 . S
C2078 C2076 1.381 . S
C2078 C2079 1.394 . S
C2078 H2086 0.930 . S
C2079 C2078 1.394 . S
C2079 C2080 1.383 . S
C2079 H2087 0.929 . S
C2080 C2079 1.383 . S
C2080 C2081 1.377 . S
C2081 H2065 0.930 . S
C2081 C2080 1.377 . S
C2081 C2082 1.379 . S
C2082 H2066 0.931 . S
C2082 C2076 1.383 . S
C2082 C2081 1.379 . S
H2083 C2077 0.959 . S
H2084 C2077 0.961 . S
H2085 C2077 0.960 . S
H2086 C2078 0.930 . S
H2087 C2079 0.929 . S
H2088 C2096 0.929 . S
H2089 C2098 0.930 . S
H2090 C2100 0.930 . S
H2091 C2103 0.929 . S
H2092 C2106 0.930 . S
H2093 C2108 0.960 . S
H2094 C2108 0.960 . S
H2095 C2108 0.960 . S
C2096 H2088 0.929 . S
C2096 C2097 1.377 . S
C2096 C2098 1.384 . S
C2097 C2096 1.377 . S
C2097 C2103 1.390 . S
C2098 H2089 0.930 . S
C2098 C2096 1.384 . S
C2098 C2099 1.372 . S
C2099 C2098 1.372 . S
C2099 C2100 1.400 . S
C2099 C2104 1.490 . S
C2100 H2090 0.930 . S
C2100 C2099 1.400 . S
C2100 C2103 1.386 . S
H2101 C2117 0.930 . S
H2102 C2118 0.931 . S
C2103 H2091 0.929 . S
C2103 C2097 1.390 . S
C2103 C2100 1.386 . S
C2104 C2099 1.490 . S
C2104 C2106 1.395 . S
C2104 C2107 1.403 . S
H2105 C2111 0.930 . S
C2106 H2092 0.930 . S
C2106 C2104 1.395 . S
C2106 C2109 1.403 . S
C2107 C2104 1.403 . S
C2107 C2108 1.524 . S
C2107 C2111 1.400 . S
C2108 H2093 0.960 . S
C2108 H2094 0.960 . S
C2108 H2095 0.960 . S
C2108 C2107 1.524 . S
C2109 C2106 1.403 . S
C2109 C2110 1.392 . S
C2109 C2113 1.495 . S
C2110 C2109 1.392 . S
C2110 C2111 1.385 . S
C2110 C2112 1.478 . S
C2111 H2105 0.930 . S
C2111 C2107 1.400 . S
C2111 C2110 1.385 . S
C2112 C2110 1.478 . S
C2112 C2114 1.381 . S
C2112 C2118 1.383 . S
C2113 C2109 1.495 . S
C2113 H2119 0.959 . S
C2113 H2120 0.961 . S
C2113 H2121 0.960 . S
C2114 C2112 1.381 . S
C2114 C2115 1.394 . S
C2114 H2122 0.930 . S
C2115 C2114 1.394 . S
C2115 C2116 1.383 . S
C2115 H2123 0.929 . S
C2116 C2115 1.383 . S
C2116 C2117 1.377 . S
C2117 H2101 0.930 . S
C2117 C2116 1.377 . S
C2117 C2118 1.379 . S
C2118 H2102 0.931 . S
C2118 C2112 1.383 . S
C2118 C2117 1.379 . S
H2119 C2113 0.959 . S
H2120 C2113 0.961 . S
H2121 C2113 0.960 . S
H2122 C2114 0.930 . S
H2123 C2115 0.929 . S
H2124 C2132 0.929 . S
H2125 C2134 0.930 . S
H2126 C2136 0.930 . S
H2127 C2139 0.929 . S
H2128 C2142 0.930 . S
H2129 C2144 0.960 . S
H2130 C2144 0.960 . S
H2131 C2144 0.960 . S
C2132 H2124 0.929 . S
C2132 C2133 1.377 . S
C2132 C2134 1.384 . S
C2133 C2132 1.377 . S
C2133 C2139 1.390 . S
C2134 H2125 0.930 . S
C2134 C2132 1.384 . S
C2134 C2135 1.372 . S
C2135 C2134 1.372 . S
C2135 C2136 1.400 . S
C2135 C2140 1.490 . S
C2136 H2126 0.930 . S
C2136 C2135 1.400 . S
C2136 C2139 1.386 . S
H2137 C2153 0.930 . S
H2138 C2154 0.931 . S
C2139 H2127 0.929 . S
C2139 C2133 1.390 . S
C2139 C2136 1.386 . S
C2140 C2135 1.490 . S
C2140 C2142 1.395 . S
C2140 C2143 1.403 . S
H2141 C2147 0.930 . S
C2142 H2128 0.930 . S
C2142 C2140 1.395 . S
C2142 C2145 1.403 . S
C2143 C2140 1.403 . S
C2143 C2144 1.524 . S
C2143 C2147 1.400 . S
C2144 H2129 0.960 . S
C2144 H2130 0.960 . S
C2144 H2131 0.960 . S
C2144 C2143 1.524 . S
C2145 C2142 1.403 . S
C2145 C2146 1.392 . S
C2145 C2149 1.495 . S
C2146 C2145 1.392 . S
C2146 C2147 1.385 . S
C2146 C2148 1.478 . S
C2147 H2141 0.930 . S
C2147 C2143 1.400 . S
C2147 C2146 1.385 . S
C2148 C2146 1.478 . S
C2148 C2150 1.381 . S
C2148 C2154 1.383 . S
C2149 C2145 1.495 . S
C2149 H2155 0.959 . S
C2149 H2156 0.961 . S
C2149 H2157 0.960 . S
C2150 C2148 1.381 . S
C2150 C2151 1.394 1_565 S
C2150 H2158 0.930 . S
C2151 C2150 1.394 1_545 S
C2151 C2152 1.383 . S
C2151 H2159 0.929 . S
C2152 C2151 1.383 . S
C2152 C2153 1.377 1_545 S
C2153 H2137 0.930 . S
C2153 C2152 1.377 1_565 S
C2153 C2154 1.379 . S
C2154 H2138 0.931 . S
C2154 C2148 1.383 . S
C2154 C2153 1.379 . S
H2155 C2149 0.959 . S
H2156 C2149 0.961 . S
H2157 C2149 0.960 . S
H2158 C2150 0.930 . S
H2159 C2151 0.929 . S
H2160 C2168 0.929 . S
H2161 C2170 0.930 . S
H2162 C2172 0.930 . S
H2163 C2175 0.929 . S
H2164 C2178 0.930 . S
H2165 C2180 0.960 . S
H2166 C2180 0.960 . S
H2167 C2180 0.960 . S
C2168 H2160 0.929 . S
C2168 C2169 1.377 . S
C2168 C2170 1.384 . S
C2169 C2168 1.377 . S
C2169 C2175 1.390 . S
C2170 H2161 0.930 . S
C2170 C2168 1.384 . S
C2170 C2171 1.372 . S
C2171 C2170 1.372 . S
C2171 C2172 1.400 . S
C2171 C2176 1.490 . S
C2172 H2162 0.930 . S
C2172 C2171 1.400 . S
C2172 C2175 1.386 . S
H2173 C2189 0.930 . S
H2174 C2190 0.928 . S
C2175 H2163 0.929 . S
C2175 C2169 1.390 . S
C2175 C2172 1.386 . S
C2176 C2171 1.490 . S
C2176 C2178 1.395 . S
C2176 C2179 1.403 . S
H2177 C2183 0.930 . S
C2178 H2164 0.930 . S
C2178 C2176 1.395 . S
C2178 C2181 1.403 . S
C2179 C2176 1.403 . S
C2179 C2180 1.524 . S
C2179 C2183 1.400 . S
C2180 H2165 0.960 . S
C2180 H2166 0.960 . S
C2180 H2167 0.960 . S
C2180 C2179 1.524 . S
C2181 C2178 1.403 . S
C2181 C2182 1.392 . S
C2181 C2185 1.495 . S
C2182 C2181 1.392 . S
C2182 C2183 1.385 . S
C2182 C2184 1.478 . S
C2183 H2177 0.930 . S
C2183 C2179 1.400 . S
C2183 C2182 1.385 . S
C2184 C2182 1.478 . S
C2184 C2186 1.381 . S
C2184 C2190 1.383 . S
C2185 C2181 1.495 . S
C2185 H2191 0.959 . S
C2185 H2192 0.961 . S
C2185 H2193 0.960 . S
C2186 C2184 1.381 . S
C2186 C2187 1.394 . S
C2186 H2194 0.930 . S
C2187 C2186 1.394 . S
C2187 C2188 1.383 1_455 S
C2187 H2195 0.929 . S
C2188 C2187 1.383 1_655 S
C2188 C2189 1.377 . S
C2189 H2173 0.930 . S
C2189 C2188 1.377 . S
C2189 C2190 1.379 1_655 S
C2190 H2174 0.928 . S
C2190 C2184 1.383 . S
C2190 C2189 1.379 1_455 S
H2191 C2185 0.959 . S
H2192 C2185 0.961 . S
H2193 C2185 0.960 . S
H2194 C2186 0.930 . S
H2195 C2187 0.929 . S
H2196 C2204 0.929 . S
H2197 C2206 0.930 . S
H2198 C2208 0.930 . S
H2199 C2211 0.929 . S
H2200 C2214 0.930 . S
H2201 C2216 0.960 . S
H2202 C2216 0.960 . S
H2203 C2216 0.960 . S
C2204 H2196 0.929 . S
C2204 C2205 1.377 . S
C2204 C2206 1.384 . S
C2205 C2204 1.377 . S
C2205 C2211 1.390 . S
C2206 H2197 0.930 . S
C2206 C2204 1.384 . S
C2206 C2207 1.372 . S
C2207 C2206 1.372 . S
C2207 C2208 1.400 . S
C2207 C2212 1.490 . S
C2208 H2198 0.930 . S
C2208 C2207 1.400 . S
C2208 C2211 1.386 . S
H2209 C2225 0.930 . S
H2210 C2226 0.931 . S
C2211 H2199 0.929 . S
C2211 C2205 1.390 . S
C2211 C2208 1.386 . S
C2212 C2207 1.490 . S
C2212 C2214 1.395 . S
C2212 C2215 1.403 . S
H2213 C2219 0.930 . S
C2214 H2200 0.930 . S
C2214 C2212 1.395 . S
C2214 C2217 1.403 . S
C2215 C2212 1.403 . S
C2215 C2216 1.524 . S
C2215 C2219 1.400 . S
C2216 H2201 0.960 . S
C2216 H2202 0.960 . S
C2216 H2203 0.960 . S
C2216 C2215 1.524 . S
C2217 C2214 1.403 . S
C2217 C2218 1.392 . S
C2217 C2221 1.495 . S
C2218 C2217 1.392 . S
C2218 C2219 1.385 . S
C2218 C2220 1.478 . S
C2219 H2213 0.930 . S
C2219 C2215 1.400 . S
C2219 C2218 1.385 . S
C2220 C2218 1.478 . S
C2220 C2222 1.381 . S
C2220 C2226 1.383 . S
C2221 C2217 1.495 . S
C2221 H2227 0.959 . S
C2221 H2228 0.961 . S
C2221 H2229 0.960 . S
C2222 C2220 1.381 . S
C2222 C2223 1.394 . S
C2222 H2230 0.930 . S
C2223 C2222 1.394 . S
C2223 C2224 1.383 . S
C2223 H2231 0.929 . S
C2224 C2223 1.383 . S
C2224 C2225 1.377 . S
C2225 H2209 0.930 . S
C2225 C2224 1.377 . S
C2225 C2226 1.379 . S
C2226 H2210 0.931 . S
C2226 C2220 1.383 . S
C2226 C2225 1.379 . S
H2227 C2221 0.959 . S
H2228 C2221 0.961 . S
H2229 C2221 0.960 . S
H2230 C2222 0.930 . S
H2231 C2223 0.929 . S
H2232 C2240 0.929 . S
H2233 C2242 0.930 . S
H2234 C2244 0.930 . S
H2235 C2247 0.929 . S
H2236 C2250 0.930 . S
H2237 C2252 0.960 . S
H2238 C2252 0.960 . S
H2239 C2252 0.960 . S
C2240 H2232 0.929 . S
C2240 C2241 1.377 . S
C2240 C2242 1.384 . S
C2241 C2240 1.377 . S
C2241 C2247 1.390 1_565 S
C2242 H2233 0.930 . S
C2242 C2240 1.384 . S
C2242 C2243 1.372 1_565 S
C2243 C2242 1.372 1_545 S
C2243 C2244 1.400 . S
C2243 C2248 1.490 . S
C2244 H2234 0.930 . S
C2244 C2243 1.400 . S
C2244 C2247 1.386 . S
H2245 C2261 0.930 . S
H2246 C2262 0.931 . S
C2247 H2235 0.929 . S
C2247 C2241 1.390 1_545 S
C2247 C2244 1.386 . S
C2248 C2243 1.490 . S
C2248 C2250 1.395 . S
C2248 C2251 1.403 . S
H2249 C2255 0.930 . S
C2250 H2236 0.930 . S
C2250 C2248 1.395 . S
C2250 C2253 1.403 . S
C2251 C2248 1.403 . S
C2251 C2252 1.524 . S
C2251 C2255 1.400 . S
C2252 H2237 0.960 . S
C2252 H2238 0.960 . S
C2252 H2239 0.960 . S
C2252 C2251 1.524 . S
C2253 C2250 1.403 . S
C2253 C2254 1.392 . S
C2253 C2257 1.495 . S
C2254 C2253 1.392 . S
C2254 C2255 1.385 . S
C2254 C2256 1.478 . S
C2255 H2249 0.930 . S
C2255 C2251 1.400 . S
C2255 C2254 1.385 . S
C2256 C2254 1.478 . S
C2256 C2258 1.381 . S
C2256 C2262 1.383 . S
C2257 C2253 1.495 . S
C2257 H2263 1.010 . S
C2257 H2264 0.961 . S
C2257 H2265 0.960 . S
C2258 C2256 1.381 . S
C2258 C2259 1.394 . S
C2258 H2266 0.930 . S
C2259 C2258 1.394 . S
C2259 C2260 1.383 . S
C2259 H2267 0.929 . S
C2260 C2259 1.383 . S
C2260 C2261 1.377 . S
C2261 H2245 0.930 . S
C2261 C2260 1.377 . S
C2261 C2262 1.379 . S
C2262 H2246 0.931 . S
C2262 C2256 1.383 . S
C2262 C2261 1.379 . S
H2263 C2257 1.010 . S
H2264 C2257 0.961 . S
H2265 C2257 0.960 . S
H2266 C2258 0.930 . S
H2267 C2259 0.929 . S
H2268 C2276 0.929 . S
H2269 C2278 0.910 1_455 S
H2270 C2280 0.930 . S
H2271 C2283 0.929 . S
H2272 C2286 0.930 . S
H2273 C2288 0.960 . S
H2274 C2288 0.960 . S
H2275 C2288 0.960 . S
C2276 H2268 0.929 . S
C2276 C2277 1.377 . S
C2276 C2278 1.384 1_455 S
C2277 C2276 1.377 . S
C2277 C2283 1.390 1_455 S
C2278 H2269 0.910 1_655 S
C2278 C2276 1.384 1_655 S
C2278 C2279 1.392 . S
C2279 C2278 1.392 . S
C2279 C2280 1.400 . S
C2279 C2284 1.490 . S
C2280 H2270 0.930 . S
C2280 C2279 1.400 . S
C2280 C2283 1.386 . S
H2281 C2297 0.930 . S
H2282 C2298 0.931 . S
C2283 H2271 0.929 . S
C2283 C2277 1.390 1_655 S
C2283 C2280 1.386 . S
C2284 C2279 1.490 . S
C2284 C2286 1.395 . S
C2284 C2287 1.403 . S
H2285 C2291 0.930 . S
C2286 H2272 0.930 . S
C2286 C2284 1.395 . S
C2286 C2289 1.403 . S
C2287 C2284 1.403 . S
C2287 C2288 1.524 . S
C2287 C2291 1.400 . S
C2288 H2273 0.960 . S
C2288 H2274 0.960 . S
C2288 H2275 0.960 . S
C2288 C2287 1.524 . S
C2289 C2286 1.403 . S
C2289 C2290 1.392 . S
C2289 C2293 1.495 . S
C2290 C2289 1.392 . S
C2290 C2291 1.385 . S
C2290 C2292 1.478 . S
C2291 H2285 0.930 . S
C2291 C2287 1.400 . S
C2291 C2290 1.385 . S
C2292 C2290 1.478 . S
C2292 C2294 1.381 . S
C2292 C2298 1.383 . S
C2293 C2289 1.495 . S
C2293 H2299 0.959 . S
C2293 H2300 0.961 . S
C2293 H2301 0.960 . S
C2294 C2292 1.381 . S
C2294 C2295 1.394 . S
C2294 H2302 0.930 . S
C2295 C2294 1.394 . S
C2295 C2296 1.383 . S
C2295 H2303 0.929 . S
C2296 C2295 1.383 . S
C2296 C2297 1.377 . S
C2297 H2281 0.930 . S
C2297 C2296 1.377 . S
C2297 C2298 1.379 . S
C2298 H2282 0.931 . S
C2298 C2292 1.383 . S
C2298 C2297 1.379 . S
H2299 C2293 0.959 . S
H2300 C2293 0.961 . S
H2301 C2293 0.960 . S
H2302 C2294 0.930 . S
H2303 C2295 0.929 . S
H2304 C2312 0.929 . S
H2305 C2314 0.930 . S
H2306 C2316 0.930 . S
H2307 C2319 0.929 . S
H2308 C2322 0.930 . S
H2309 C2324 0.960 1_455 S
H2310 C2324 0.960 . S
H2311 C2324 0.960 . S
C2312 H2304 0.929 . S
C2312 C2313 1.377 . S
C2312 C2314 1.384 . S
C2313 C2312 1.377 . S
C2313 C2319 1.390 . S
C2314 H2305 0.930 . S
C2314 C2312 1.384 . S
C2314 C2315 1.372 . S
C2315 C2314 1.372 . S
C2315 C2316 1.400 . S
C2315 C2320 1.490 . S
C2316 H2306 0.930 . S
C2316 C2315 1.400 . S
C2316 C2319 1.386 . S
H2317 C2333 0.930 . S
H2318 C2334 0.931 . S
C2319 H2307 0.929 . S
C2319 C2313 1.390 . S
C2319 C2316 1.386 . S
C2320 C2315 1.490 . S
C2320 C2322 1.395 . S
C2320 C2323 1.403 . S
H2321 C2327 0.930 . S
C2322 H2308 0.930 . S
C2322 C2320 1.395 . S
C2322 C2325 1.403 1_655 S
C2323 C2320 1.403 . S
C2323 C2324 1.524 . S
C2323 C2327 1.400 1_655 S
C2324 H2309 0.960 1_655 S
C2324 H2310 0.960 . S
C2324 H2311 0.960 . S
C2324 C2323 1.524 . S
C2325 C2322 1.403 1_455 S
C2325 C2326 1.392 . S
C2325 C2329 1.495 . S
C2326 C2325 1.392 . S
C2326 C2327 1.385 . S
C2326 C2328 1.478 . S
C2327 H2321 0.930 . S
C2327 C2323 1.400 1_455 S
C2327 C2326 1.385 . S
C2328 C2326 1.478 . S
C2328 C2330 1.381 . S
C2328 C2334 1.383 . S
C2329 C2325 1.495 . S
C2329 H2335 0.959 1_455 S
C2329 H2336 0.961 . S
C2329 H2337 0.960 . S
C2330 C2328 1.381 . S
C2330 C2331 1.394 . S
C2330 H2338 0.930 . S
C2331 C2330 1.394 . S
C2331 C2332 1.383 . S
C2331 H2339 0.929 . S
C2332 C2331 1.383 . S
C2332 C2333 1.377 . S
C2333 H2317 0.930 . S
C2333 C2332 1.377 . S
C2333 C2334 1.379 . S
C2334 H2318 0.931 . S
C2334 C2328 1.383 . S
C2334 C2333 1.379 . S
H2335 C2329 0.959 1_655 S
H2336 C2329 0.961 . S
H2337 C2329 0.960 . S
H2338 C2330 0.930 . S
H2339 C2331 0.929 . S
H2340 C2348 0.929 . S
H2341 C2350 0.930 . S
H2342 C2352 0.930 . S
H2343 C2355 0.929 . S
H2344 C2358 0.930 . S
H2345 C2360 0.960 . S
H2346 C2360 0.960 . S
H2347 C2360 0.960 . S
C2348 H2340 0.929 . S
C2348 C2349 1.377 . S
C2348 C2350 1.384 . S
C2349 C2348 1.377 . S
C2349 C2355 1.390 . S
C2350 H2341 0.930 . S
C2350 C2348 1.384 . S
C2350 C2351 1.372 . S
C2351 C2350 1.372 . S
C2351 C2352 1.400 . S
C2351 C2356 1.490 . S
C2352 H2342 0.930 . S
C2352 C2351 1.400 . S
C2352 C2355 1.386 . S
H2353 C2369 0.930 . S
H2354 C2370 0.931 . S
C2355 H2343 0.929 . S
C2355 C2349 1.390 . S
C2355 C2352 1.386 . S
C2356 C2351 1.490 . S
C2356 C2358 1.395 . S
C2356 C2359 1.403 . S
H2357 C2363 0.930 . S
C2358 H2344 0.930 . S
C2358 C2356 1.395 . S
C2358 C2361 1.403 . S
C2359 C2356 1.403 . S
C2359 C2360 1.524 . S
C2359 C2363 1.400 . S
C2360 H2345 0.960 . S
C2360 H2346 0.960 . S
C2360 H2347 0.960 . S
C2360 C2359 1.524 . S
C2361 C2358 1.403 . S
C2361 C2362 1.392 . S
C2361 C2365 1.495 . S
C2362 C2361 1.392 . S
C2362 C2363 1.385 . S
C2362 C2364 1.478 . S
C2363 H2357 0.930 . S
C2363 C2359 1.400 . S
C2363 C2362 1.385 . S
C2364 C2362 1.478 . S
C2364 C2366 1.381 . S
C2364 C2370 1.383 . S
C2365 C2361 1.495 . S
C2365 H2371 0.959 . S
C2365 H2372 0.961 . S
C2365 H2373 0.960 . S
C2366 C2364 1.381 . S
C2366 C2367 1.394 . S
C2366 H2374 0.930 . S
C2367 C2366 1.394 . S
C2367 C2368 1.383 . S
C2367 H2375 0.929 . S
C2368 C2367 1.383 . S
C2368 C2369 1.377 . S
C2369 H2353 0.930 . S
C2369 C2368 1.377 . S
C2369 C2370 1.379 . S
C2370 H2354 0.931 . S
C2370 C2364 1.383 . S
C2370 C2369 1.379 . S
H2371 C2365 0.959 . S
H2372 C2365 0.961 . S
H2373 C2365 0.960 . S
H2374 C2366 0.930 . S
H2375 C2367 0.929 . S
H2376 C2384 0.929 . S
H2377 C2386 0.930 . S
H2378 C2388 0.930 . S
H2379 C2391 0.929 . S
H2380 C2394 0.930 . S
H2381 C2396 0.960 1_565 S
H2382 C2396 0.960 . S
H2383 C2396 0.960 . S
C2384 H2376 0.929 . S
C2384 C2385 1.377 . S
C2384 C2386 1.384 . S
C2385 C2384 1.377 . S
C2385 C2391 1.390 . S
C2386 H2377 0.930 . S
C2386 C2384 1.384 . S
C2386 C2387 1.372 . S
C2387 C2386 1.372 . S
C2387 C2388 1.400 . S
C2387 C2392 1.490 . S
C2388 H2378 0.930 . S
C2388 C2387 1.400 . S
C2388 C2391 1.386 . S
H2389 C2405 0.930 . S
H2390 C2406 0.931 . S
C2391 H2379 0.929 . S
C2391 C2385 1.390 . S
C2391 C2388 1.386 . S
C2392 C2387 1.490 . S
C2392 C2394 1.395 . S
C2392 C2395 1.403 . S
H2393 C2399 0.930 . S
C2394 H2380 0.930 . S
C2394 C2392 1.395 . S
C2394 C2397 1.403 1_545 S
C2395 C2392 1.403 . S
C2395 C2396 1.524 . S
C2395 C2399 1.400 1_545 S
C2396 H2381 0.960 1_545 S
C2396 H2382 0.960 . S
C2396 H2383 0.960 . S
C2396 C2395 1.524 . S
C2397 C2394 1.403 1_565 S
C2397 C2398 1.392 . S
C2397 C2401 1.495 . S
C2398 C2397 1.392 . S
C2398 C2399 1.385 . S
C2398 C2400 1.478 . S
C2399 H2393 0.930 . S
C2399 C2395 1.400 1_565 S
C2399 C2398 1.385 . S
C2400 C2398 1.478 . S
C2400 C2402 1.381 . S
C2400 C2406 1.383 . S
C2401 C2397 1.495 . S
C2401 H2407 0.959 1_565 S
C2401 H2408 0.961 . S
C2401 H2409 0.960 . S
C2402 C2400 1.381 . S
C2402 C2403 1.394 . S
C2402 H2410 0.930 . S
C2403 C2402 1.394 . S
C2403 C2404 1.383 . S
C2403 H2411 0.929 . S
C2404 C2403 1.383 . S
C2404 C2405 1.377 . S
C2405 H2389 0.930 . S
C2405 C2404 1.377 . S
C2405 C2406 1.379 . S
C2406 H2390 0.931 . S
C2406 C2400 1.383 . S
C2406 C2405 1.379 . S
H2407 C2401 0.959 1_545 S
H2408 C2401 0.961 . S
H2409 C2401 0.960 . S
H2410 C2402 0.930 . S
H2411 C2403 0.929 . S
H2412 C2420 0.929 . S
H2413 C2422 0.930 . S
H2414 C2424 0.930 . S
H2415 C2427 0.929 . S
H2416 C2430 0.930 . S
H2417 C2432 0.960 1_565 S
H2418 C2432 0.960 . S
H2419 C2432 0.960 . S
C2420 H2412 0.929 . S
C2420 C2421 1.377 . S
C2420 C2422 1.384 . S
C2421 C2420 1.377 . S
C2421 C2427 1.390 . S
C2422 H2413 0.930 . S
C2422 C2420 1.384 . S
C2422 C2423 1.372 . S
C2423 C2422 1.372 . S
C2423 C2424 1.400 . S
C2423 C2428 1.490 . S
C2424 H2414 0.930 . S
C2424 C2423 1.400 . S
C2424 C2427 1.386 . S
H2425 C2441 0.930 . S
H2426 C2442 0.931 . S
C2427 H2415 0.929 . S
C2427 C2421 1.390 . S
C2427 C2424 1.386 . S
C2428 C2423 1.490 . S
C2428 C2430 1.395 . S
C2428 C2431 1.403 . S
H2429 C2435 0.930 . S
C2430 H2416 0.930 . S
C2430 C2428 1.395 . S
C2430 C2433 1.403 1_545 S
C2431 C2428 1.403 . S
C2431 C2432 1.524 . S
C2431 C2435 1.400 1_545 S
C2432 H2417 0.960 1_545 S
C2432 H2418 0.960 . S
C2432 H2419 0.960 . S
C2432 C2431 1.524 . S
C2433 C2430 1.403 1_565 S
C2433 C2434 1.392 . S
C2433 C2437 1.495 . S
C2434 C2433 1.392 . S
C2434 C2435 1.385 . S
C2434 C2436 1.478 . S
C2435 H2429 0.930 . S
C2435 C2431 1.400 1_565 S
C2435 C2434 1.385 . S
C2436 C2434 1.478 . S
C2436 C2438 1.381 . S
C2436 C2442 1.383 . S
C2437 C2433 1.495 . S
C2437 H2443 0.959 1_565 S
C2437 H2444 0.961 . S
C2437 H2445 0.960 . S
C2438 C2436 1.381 . S
C2438 C2439 1.394 . S
C2438 H2446 0.930 . S
C2439 C2438 1.394 . S
C2439 C2440 1.383 . S
C2439 H2447 0.929 . S
C2440 C2439 1.383 . S
C2440 C2441 1.377 . S
C2441 H2425 0.930 . S
C2441 C2440 1.377 . S
C2441 C2442 1.379 . S
C2442 H2426 0.931 . S
C2442 C2436 1.383 . S
C2442 C2441 1.379 . S
H2443 C2437 0.959 1_545 S
H2444 C2437 0.961 . S
H2445 C2437 0.960 . S
H2446 C2438 0.930 . S
H2447 C2439 0.929 . S
H2448 C2456 0.929 . S
H2449 C2458 0.930 . S
H2450 C2460 0.930 . S
H2451 C2463 0.929 . S
H2452 C2466 0.930 . S
H2453 C2468 0.960 . S
H2454 C2468 0.960 . S
H2455 C2468 0.960 . S
C2456 H2448 0.929 . S
C2456 C2457 1.377 . S
C2456 C2458 1.384 . S
C2457 C2456 1.377 . S
C2457 C2463 1.390 . S
C2458 H2449 0.930 . S
C2458 C2456 1.384 . S
C2458 C2459 1.372 . S
C2459 C2458 1.372 . S
C2459 C2460 1.400 . S
C2459 C2464 1.490 . S
C2460 H2450 0.930 . S
C2460 C2459 1.400 . S
C2460 C2463 1.386 . S
H2461 C2477 0.930 . S
H2462 C2478 0.931 . S
C2463 H2451 0.929 . S
C2463 C2457 1.390 . S
C2463 C2460 1.386 . S
C2464 C2459 1.490 . S
C2464 C2466 1.395 . S
C2464 C2467 1.403 . S
H2465 C2471 0.930 . S
C2466 H2452 0.930 . S
C2466 C2464 1.395 . S
C2466 C2469 1.403 1_455 S
C2467 C2464 1.403 . S
C2467 C2468 1.524 . S
C2467 C2471 1.400 1_455 S
C2468 H2453 0.960 . S
C2468 H2454 0.960 . S
C2468 H2455 0.960 . S
C2468 C2467 1.524 . S
C2469 C2466 1.403 1_655 S
C2469 C2470 1.392 . S
C2469 C2473 1.495 . S
C2470 C2469 1.392 . S
C2470 C2471 1.385 . S
C2470 C2472 1.478 . S
C2471 H2465 0.930 . S
C2471 C2467 1.400 1_655 S
C2471 C2470 1.385 . S
C2472 C2470 1.478 . S
C2472 C2474 1.381 . S
C2472 C2478 1.383 . S
C2473 C2469 1.495 . S
C2473 H2479 0.959 . S
C2473 H2480 0.961 . S
C2473 H2481 0.960 . S
C2474 C2472 1.381 . S
C2474 C2475 1.394 . S
C2474 H2482 0.930 . S
C2475 C2474 1.394 . S
C2475 C2476 1.383 . S
C2475 H2483 0.929 . S
C2476 C2475 1.383 . S
C2476 C2477 1.377 . S
C2477 H2461 0.930 . S
C2477 C2476 1.377 . S
C2477 C2478 1.379 . S
C2478 H2462 0.931 . S
C2478 C2472 1.383 . S
C2478 C2477 1.379 . S
H2479 C2473 0.959 . S
H2480 C2473 0.961 . S
H2481 C2473 0.960 . S
H2482 C2474 0.930 . S
H2483 C2475 0.929 . S
H2484 C2492 0.929 . S
H2485 C2494 0.930 . S
H2486 C2496 0.930 . S
H2487 C2499 0.929 . S
H2488 C2502 0.930 . S
H2489 C2504 0.960 . S
H2490 C2504 0.960 . S
H2491 C2504 0.960 . S
C2492 H2484 0.929 . S
C2492 C2493 1.377 . S
C2492 C2494 1.384 . S
C2493 C2492 1.377 . S
C2493 C2499 1.390 . S
C2494 H2485 0.930 . S
C2494 C2492 1.384 . S
C2494 C2495 1.372 . S
C2495 C2494 1.372 . S
C2495 C2496 1.400 . S
C2495 C2500 1.490 . S
C2496 H2486 0.930 . S
C2496 C2495 1.400 . S
C2496 C2499 1.386 . S
H2497 C2513 0.930 . S
H2498 C2514 0.931 . S
C2499 H2487 0.929 . S
C2499 C2493 1.390 . S
C2499 C2496 1.386 . S
C2500 C2495 1.490 . S
C2500 C2502 1.395 . S
C2500 C2503 1.403 . S
H2501 C2507 0.930 . S
C2502 H2488 0.930 . S
C2502 C2500 1.395 . S
C2502 C2505 1.403 . S
C2503 C2500 1.403 . S
C2503 C2504 1.524 . S
C2503 C2507 1.400 . S
C2504 H2489 0.960 . S
C2504 H2490 0.960 . S
C2504 H2491 0.960 . S
C2504 C2503 1.524 . S
C2505 C2502 1.403 . S
C2505 C2506 1.392 . S
C2505 C2509 1.495 . S
C2506 C2505 1.392 . S
C2506 C2507 1.385 . S
C2506 C2508 1.478 . S
C2507 H2501 0.930 . S
C2507 C2503 1.400 . S
C2507 C2506 1.385 . S
C2508 C2506 1.478 . S
C2508 C2510 1.381 . S
C2508 C2514 1.383 . S
C2509 C2505 1.495 . S
C2509 H2515 0.959 . S
C2509 H2516 0.961 . S
C2509 H2517 0.960 . S
C2510 C2508 1.381 . S
C2510 C2511 1.394 . S
C2510 H2518 0.930 . S
C2511 C2510 1.394 . S
C2511 C2512 1.383 . S
C2511 H2519 0.929 . S
C2512 C2511 1.383 . S
C2512 C2513 1.377 . S
C2513 H2497 0.930 . S
C2513 C2512 1.377 . S
C2513 C2514 1.379 . S
C2514 H2498 0.931 . S
C2514 C2508 1.383 . S
C2514 C2513 1.379 . S
H2515 C2509 0.959 . S
H2516 C2509 0.961 . S
H2517 C2509 0.960 . S
H2518 C2510 0.930 . S
H2519 C2511 0.929 . S
H2520 C2528 0.929 . S
H2521 C2530 0.930 . S
H2522 C2532 0.930 . S
H2523 C2535 0.929 . S
H2524 C2538 0.930 . S
H2525 C2540 0.960 . S
H2526 C2540 0.960 . S
H2527 C2540 0.960 . S
C2528 H2520 0.929 . S
C2528 C2529 1.377 . S
C2528 C2530 1.384 . S
C2529 C2528 1.377 . S
C2529 C2535 1.390 . S
C2530 H2521 0.930 . S
C2530 C2528 1.384 . S
C2530 C2531 1.372 . S
C2531 C2530 1.372 . S
C2531 C2532 1.400 . S
C2531 C2536 1.490 . S
C2532 H2522 0.930 . S
C2532 C2531 1.400 . S
C2532 C2535 1.386 . S
H2533 C2549 0.930 . S
H2534 C2550 0.931 . S
C2535 H2523 0.929 . S
C2535 C2529 1.390 . S
C2535 C2532 1.386 . S
C2536 C2531 1.490 . S
C2536 C2538 1.395 . S
C2536 C2539 1.403 . S
H2537 C2543 0.930 . S
C2538 H2524 0.930 . S
C2538 C2536 1.395 . S
C2538 C2541 1.403 . S
C2539 C2536 1.403 . S
C2539 C2540 1.524 . S
C2539 C2543 1.400 . S
C2540 H2525 0.960 . S
C2540 H2526 0.960 . S
C2540 H2527 0.960 . S
C2540 C2539 1.524 . S
C2541 C2538 1.403 . S
C2541 C2542 1.392 . S
C2541 C2545 1.495 . S
C2542 C2541 1.392 . S
C2542 C2543 1.385 . S
C2542 C2544 1.478 . S
C2543 H2537 0.930 . S
C2543 C2539 1.400 . S
C2543 C2542 1.385 . S
C2544 C2542 1.478 . S
C2544 C2546 1.381 . S
C2544 C2550 1.383 . S
C2545 C2541 1.495 . S
C2545 H2551 0.959 . S
C2545 H2552 0.961 . S
C2545 H2553 0.960 . S
C2546 C2544 1.381 . S
C2546 C2547 1.394 . S
C2546 H2554 0.930 . S
C2547 C2546 1.394 . S
C2547 C2548 1.383 . S
C2547 H2555 0.929 . S
C2548 C2547 1.383 . S
C2548 C2549 1.377 . S
C2549 H2533 0.930 . S
C2549 C2548 1.377 . S
C2549 C2550 1.379 . S
C2550 H2534 0.931 . S
C2550 C2544 1.383 . S
C2550 C2549 1.379 . S
H2551 C2545 0.959 . S
H2552 C2545 0.961 . S
H2553 C2545 0.960 . S
H2554 C2546 0.930 . S
H2555 C2547 0.929 . S
H2556 C2564 0.929 . S
H2557 C2566 0.930 . S
H2558 C2568 0.930 . S
H2559 C2571 0.929 . S
H2560 C2574 0.930 . S
H2561 C2576 0.960 . S
H2562 C2576 0.960 . S
H2563 C2576 0.960 . S
C2564 H2556 0.929 . S
C2564 C2565 1.377 . S
C2564 C2566 1.384 . S
C2565 C2564 1.377 . S
C2565 C2571 1.390 . S
C2566 H2557 0.930 . S
C2566 C2564 1.384 . S
C2566 C2567 1.372 . S
C2567 C2566 1.372 . S
C2567 C2568 1.400 . S
C2567 C2572 1.490 . S
C2568 H2558 0.930 . S
C2568 C2567 1.400 . S
C2568 C2571 1.386 . S
H2569 C2585 0.930 . S
H2570 C2586 0.931 . S
C2571 H2559 0.929 . S
C2571 C2565 1.390 . S
C2571 C2568 1.386 . S
C2572 C2567 1.490 . S
C2572 C2574 1.395 . S
C2572 C2575 1.403 . S
H2573 C2579 0.930 . S
C2574 H2560 0.930 . S
C2574 C2572 1.395 . S
C2574 C2577 1.403 . S
C2575 C2572 1.403 . S
C2575 C2576 1.524 . S
C2575 C2579 1.400 . S
C2576 H2561 0.960 . S
C2576 H2562 0.960 . S
C2576 H2563 0.960 . S
C2576 C2575 1.524 . S
C2577 C2574 1.403 . S
C2577 C2578 1.392 . S
C2577 C2581 1.495 . S
C2578 C2577 1.392 . S
C2578 C2579 1.385 . S
C2578 C2580 1.478 . S
C2579 H2573 0.930 . S
C2579 C2575 1.400 . S
C2579 C2578 1.385 . S
C2580 C2578 1.478 . S
C2580 C2582 1.381 . S
C2580 C2586 1.383 . S
C2581 C2577 1.495 . S
C2581 H2587 0.959 . S
C2581 H2588 0.961 . S
C2581 H2589 0.960 . S
C2582 C2580 1.381 . S
C2582 C2583 1.394 . S
C2582 H2590 0.930 . S
C2583 C2582 1.394 . S
C2583 C2584 1.383 . S
C2583 H2591 0.929 . S
C2584 C2583 1.383 . S
C2584 C2585 1.377 . S
C2585 H2569 0.930 . S
C2585 C2584 1.377 . S
C2585 C2586 1.379 . S
C2586 H2570 0.931 . S
C2586 C2580 1.383 . S
C2586 C2585 1.379 . S
H2587 C2581 0.959 . S
H2588 C2581 0.961 . S
H2589 C2581 0.960 . S
H2590 C2582 0.930 . S
H2591 C2583 0.929 . S
H2592 C2600 0.929 . S
H2593 C2602 0.930 . S
H2594 C2604 0.930 . S
H2595 C2607 0.929 . S
H2596 C2610 0.930 . S
H2597 C2612 0.960 . S
H2598 C2612 0.960 . S
H2599 C2612 0.960 . S
C2600 H2592 0.929 . S
C2600 C2601 1.377 . S
C2600 C2602 1.384 . S
C2601 C2600 1.377 . S
C2601 C2607 1.390 . S
C2602 H2593 0.930 . S
C2602 C2600 1.384 . S
C2602 C2603 1.372 . S
C2603 C2602 1.372 . S
C2603 C2604 1.400 . S
C2603 C2608 1.490 . S
C2604 H2594 0.930 . S
C2604 C2603 1.400 . S
C2604 C2607 1.386 . S
H2605 C2621 0.930 . S
H2606 C2622 0.931 . S
C2607 H2595 0.929 . S
C2607 C2601 1.390 . S
C2607 C2604 1.386 . S
C2608 C2603 1.490 . S
C2608 C2610 1.395 . S
C2608 C2611 1.403 . S
H2609 C2615 0.930 . S
C2610 H2596 0.930 . S
C2610 C2608 1.395 . S
C2610 C2613 1.403 . S
C2611 C2608 1.403 . S
C2611 C2612 1.524 . S
C2611 C2615 1.400 . S
C2612 H2597 0.960 . S
C2612 H2598 0.960 . S
C2612 H2599 0.960 . S
C2612 C2611 1.524 . S
C2613 C2610 1.403 . S
C2613 C2614 1.392 . S
C2613 C2617 1.495 . S
C2614 C2613 1.392 . S
C2614 C2615 1.385 . S
C2614 C2616 1.478 . S
C2615 H2609 0.930 . S
C2615 C2611 1.400 . S
C2615 C2614 1.385 . S
C2616 C2614 1.478 . S
C2616 C2618 1.381 . S
C2616 C2622 1.383 . S
C2617 C2613 1.495 . S
C2617 H2623 0.959 . S
C2617 H2624 0.961 . S
C2617 H2625 0.960 . S
C2618 C2616 1.381 . S
C2618 C2619 1.394 . S
C2618 H2626 0.930 . S
C2619 C2618 1.394 . S
C2619 C2620 1.383 . S
C2619 H2627 0.929 . S
C2620 C2619 1.383 . S
C2620 C2621 1.377 . S
C2621 H2605 0.930 . S
C2621 C2620 1.377 . S
C2621 C2622 1.379 . S
C2622 H2606 0.931 . S
C2622 C2616 1.383 . S
C2622 C2621 1.379 . S
H2623 C2617 0.959 . S
H2624 C2617 0.961 . S
H2625 C2617 0.960 . S
H2626 C2618 0.930 . S
H2627 C2619 0.929 . S
H2628 C2636 0.929 . S
H2629 C2638 0.930 . S
H2630 C2640 0.930 . S
H2631 C2643 0.929 . S
H2632 C2646 0.930 . S
H2633 C2648 0.960 . S
H2634 C2648 0.960 . S
H2635 C2648 0.960 . S
C2636 H2628 0.929 . S
C2636 C2637 1.377 . S
C2636 C2638 1.384 . S
C2637 C2636 1.377 . S
C2637 C2643 1.390 . S
C2638 H2629 0.930 . S
C2638 C2636 1.384 . S
C2638 C2639 1.372 . S
C2639 C2638 1.372 . S
C2639 C2640 1.400 . S
C2639 C2644 1.490 . S
C2640 H2630 0.930 . S
C2640 C2639 1.400 . S
C2640 C2643 1.386 . S
H2641 C2657 0.930 . S
H2642 C2658 0.931 . S
C2643 H2631 0.929 . S
C2643 C2637 1.390 . S
C2643 C2640 1.386 . S
C2644 C2639 1.490 . S
C2644 C2646 1.395 . S
C2644 C2647 1.403 . S
H2645 C2651 0.930 . S
C2646 H2632 0.930 . S
C2646 C2644 1.395 . S
C2646 C2649 1.403 . S
C2647 C2644 1.403 . S
C2647 C2648 1.524 . S
C2647 C2651 1.400 . S
C2648 H2633 0.960 . S
C2648 H2634 0.960 . S
C2648 H2635 0.960 . S
C2648 C2647 1.524 . S
C2649 C2646 1.403 . S
C2649 C2650 1.392 . S
C2649 C2653 1.495 . S
C2650 C2649 1.392 . S
C2650 C2651 1.385 . S
C2650 C2652 1.478 . S
C2651 H2645 0.930 . S
C2651 C2647 1.400 . S
C2651 C2650 1.385 . S
C2652 C2650 1.478 . S
C2652 C2654 1.381 . S
C2652 C2658 1.383 . S
C2653 C2649 1.495 . S
C2653 H2659 0.959 . S
C2653 H2660 0.961 . S
C2653 H2661 0.960 . S
C2654 C2652 1.381 . S
C2654 C2655 1.394 . S
C2654 H2662 0.930 . S
C2655 C2654 1.394 . S
C2655 C2656 1.383 . S
C2655 H2663 0.929 . S
C2656 C2655 1.383 . S
C2656 C2657 1.377 . S
C2657 H2641 0.930 . S
C2657 C2656 1.377 . S
C2657 C2658 1.379 . S
C2658 H2642 0.931 . S
C2658 C2652 1.383 . S
C2658 C2657 1.379 . S
H2659 C2653 0.959 . S
H2660 C2653 0.961 . S
H2661 C2653 0.960 . S
H2662 C2654 0.930 . S
H2663 C2655 0.929 . S
H2664 C2672 0.929 . S
H2665 C2674 0.930 . S
H2666 C2676 0.930 . S
H2667 C2679 0.929 . S
H2668 C2682 0.930 . S
H2669 C2684 0.960 . S
H2670 C2684 0.960 . S
H2671 C2684 0.960 . S
C2672 H2664 0.929 . S
C2672 C2673 1.377 . S
C2672 C2674 1.384 . S
C2673 C2672 1.377 . S
C2673 C2679 1.390 . S
C2674 H2665 0.930 . S
C2674 C2672 1.384 . S
C2674 C2675 1.372 . S
C2675 C2674 1.372 . S
C2675 C2676 1.400 . S
C2675 C2680 1.490 . S
C2676 H2666 0.930 . S
C2676 C2675 1.400 . S
C2676 C2679 1.386 . S
H2677 C2693 0.930 . S
H2678 C2694 0.931 . S
C2679 H2667 0.929 . S
C2679 C2673 1.390 . S
C2679 C2676 1.386 . S
C2680 C2675 1.490 . S
C2680 C2682 1.395 . S
C2680 C2683 1.403 . S
H2681 C2687 0.930 . S
C2682 H2668 0.930 . S
C2682 C2680 1.395 . S
C2682 C2685 1.403 . S
C2683 C2680 1.403 . S
C2683 C2684 1.524 . S
C2683 C2687 1.400 . S
C2684 H2669 0.960 . S
C2684 H2670 0.960 . S
C2684 H2671 0.960 . S
C2684 C2683 1.524 . S
C2685 C2682 1.403 . S
C2685 C2686 1.392 . S
C2685 C2689 1.495 . S
C2686 C2685 1.392 . S
C2686 C2687 1.385 . S
C2686 C2688 1.478 . S
C2687 H2681 0.930 . S
C2687 C2683 1.400 . S
C2687 C2686 1.385 . S
C2688 C2686 1.478 . S
C2688 C2690 1.381 . S
C2688 C2694 1.383 . S
C2689 C2685 1.495 . S
C2689 H2695 0.959 . S
C2689 H2696 0.961 . S
C2689 H2697 0.960 . S
C2690 C2688 1.381 . S
C2690 C2691 1.394 . S
C2690 H2698 0.930 . S
C2691 C2690 1.394 . S
C2691 C2692 1.383 . S
C2691 H2699 0.929 . S
C2692 C2691 1.383 . S
C2692 C2693 1.377 . S
C2693 H2677 0.930 . S
C2693 C2692 1.377 . S
C2693 C2694 1.379 . S
C2694 H2678 0.931 . S
C2694 C2688 1.383 . S
C2694 C2693 1.379 . S
H2695 C2689 0.959 . S
H2696 C2689 0.961 . S
H2697 C2689 0.960 . S
H2698 C2690 0.930 . S
H2699 C2691 0.929 . S
H2700 C2708 0.929 . S
H2701 C2710 0.930 . S
H2702 C2712 0.930 . S
H2703 C2715 0.929 . S
H2704 C2718 0.930 . S
H2705 C2720 0.960 . S
H2706 C2720 0.960 . S
H2707 C2720 0.960 . S
C2708 H2700 0.929 . S
C2708 C2709 1.377 . S
C2708 C2710 1.384 . S
C2709 C2708 1.377 . S
C2709 C2715 1.390 . S
C2710 H2701 0.930 . S
C2710 C2708 1.384 . S
C2710 C2711 1.372 . S
C2711 C2710 1.372 . S
C2711 C2712 1.400 . S
C2711 C2716 1.490 . S
C2712 H2702 0.930 . S
C2712 C2711 1.400 . S
C2712 C2715 1.386 . S
H2713 C2729 0.930 . S
H2714 C2730 0.931 . S
C2715 H2703 0.929 . S
C2715 C2709 1.390 . S
C2715 C2712 1.386 . S
C2716 C2711 1.490 . S
C2716 C2718 1.395 . S
C2716 C2719 1.403 . S
H2717 C2723 0.930 . S
C2718 H2704 0.930 . S
C2718 C2716 1.395 . S
C2718 C2721 1.403 . S
C2719 C2716 1.403 . S
C2719 C2720 1.524 . S
C2719 C2723 1.400 . S
C2720 H2705 0.960 . S
C2720 H2706 0.960 . S
C2720 H2707 0.960 . S
C2720 C2719 1.524 . S
C2721 C2718 1.403 . S
C2721 C2722 1.392 . S
C2721 C2725 1.495 . S
C2722 C2721 1.392 . S
C2722 C2723 1.385 . S
C2722 C2724 1.478 . S
C2723 H2717 0.930 . S
C2723 C2719 1.400 . S
C2723 C2722 1.385 . S
C2724 C2722 1.478 . S
C2724 C2726 1.381 . S
C2724 C2730 1.383 . S
C2725 C2721 1.495 . S
C2725 H2731 0.959 . S
C2725 H2732 0.961 . S
C2725 H2733 0.960 . S
C2726 C2724 1.381 . S
C2726 C2727 1.394 . S
C2726 H2734 0.930 . S
C2727 C2726 1.394 . S
C2727 C2728 1.383 . S
C2727 H2735 0.929 . S
C2728 C2727 1.383 . S
C2728 C2729 1.377 . S
C2729 H2713 0.930 . S
C2729 C2728 1.377 . S
C2729 C2730 1.379 . S
C2730 H2714 0.931 . S
C2730 C2724 1.383 . S
C2730 C2729 1.379 . S
H2731 C2725 0.959 . S
H2732 C2725 0.961 . S
H2733 C2725 0.960 . S
H2734 C2726 0.930 . S
H2735 C2727 0.929 . S
H2736 C2744 0.929 . S
H2737 C2746 0.930 . S
H2738 C2748 0.930 . S
H2739 C2751 0.929 . S
H2740 C2754 0.930 . S
H2741 C2756 0.960 . S
H2742 C2756 0.960 . S
H2743 C2756 0.960 . S
C2744 H2736 0.929 . S
C2744 C2745 1.377 . S
C2744 C2746 1.384 . S
C2745 C2744 1.377 . S
C2745 C2751 1.390 . S
C2746 H2737 0.930 . S
C2746 C2744 1.384 . S
C2746 C2747 1.372 . S
C2747 C2746 1.372 . S
C2747 C2748 1.400 . S
C2747 C2752 1.490 . S
C2748 H2738 0.930 . S
C2748 C2747 1.400 . S
C2748 C2751 1.386 . S
H2749 C2765 0.930 . S
H2750 C2766 0.931 . S
C2751 H2739 0.929 . S
C2751 C2745 1.390 . S
C2751 C2748 1.386 . S
C2752 C2747 1.490 . S
C2752 C2754 1.395 . S
C2752 C2755 1.403 . S
H2753 C2759 0.930 . S
C2754 H2740 0.930 . S
C2754 C2752 1.395 . S
C2754 C2757 1.403 . S
C2755 C2752 1.403 . S
C2755 C2756 1.524 . S
C2755 C2759 1.400 . S
C2756 H2741 0.960 . S
C2756 H2742 0.960 . S
C2756 H2743 0.960 . S
C2756 C2755 1.524 . S
C2757 C2754 1.403 . S
C2757 C2758 1.392 . S
C2757 C2761 1.495 . S
C2758 C2757 1.392 . S
C2758 C2759 1.385 . S
C2758 C2760 1.478 . S
C2759 H2753 0.930 . S
C2759 C2755 1.400 . S
C2759 C2758 1.385 . S
C2760 C2758 1.478 . S
C2760 C2762 1.381 . S
C2760 C2766 1.383 . S
C2761 C2757 1.495 . S
C2761 H2767 0.959 . S
C2761 H2768 0.961 . S
C2761 H2769 0.960 . S
C2762 C2760 1.381 . S
C2762 C2763 1.394 . S
C2762 H2770 0.930 . S
C2763 C2762 1.394 . S
C2763 C2764 1.383 . S
C2763 H2771 0.929 . S
C2764 C2763 1.383 . S
C2764 C2765 1.377 . S
C2765 H2749 0.930 . S
C2765 C2764 1.377 . S
C2765 C2766 1.379 . S
C2766 H2750 0.931 . S
C2766 C2760 1.383 . S
C2766 C2765 1.379 . S
H2767 C2761 0.959 . S
H2768 C2761 0.961 . S
H2769 C2761 0.960 . S
H2770 C2762 0.930 . S
H2771 C2763 0.929 . S
H2772 C2780 0.929 . S
H2773 C2782 0.930 . S
H2774 C2784 0.930 . S
H2775 C2787 0.929 . S
H2776 C2790 0.930 . S
H2777 C2792 0.960 . S
H2778 C2792 0.960 . S
H2779 C2792 0.960 . S
C2780 H2772 0.929 . S
C2780 C2781 1.377 . S
C2780 C2782 1.384 . S
C2781 C2780 1.377 . S
C2781 C2787 1.390 . S
C2782 H2773 0.930 . S
C2782 C2780 1.384 . S
C2782 C2783 1.372 . S
C2783 C2782 1.372 . S
C2783 C2784 1.400 . S
C2783 C2788 1.490 . S
C2784 H2774 0.930 . S
C2784 C2783 1.400 . S
C2784 C2787 1.386 . S
H2785 C2801 0.930 . S
H2786 C2802 0.931 . S
C2787 H2775 0.929 . S
C2787 C2781 1.390 . S
C2787 C2784 1.386 . S
C2788 C2783 1.490 . S
C2788 C2790 1.395 . S
C2788 C2791 1.403 . S
H2789 C2795 0.930 . S
C2790 H2776 0.930 . S
C2790 C2788 1.395 . S
C2790 C2793 1.403 . S
C2791 C2788 1.403 . S
C2791 C2792 1.524 . S
C2791 C2795 1.400 . S
C2792 H2777 0.960 . S
C2792 H2778 0.960 . S
C2792 H2779 0.960 . S
C2792 C2791 1.524 . S
C2793 C2790 1.403 . S
C2793 C2794 1.392 . S
C2793 C2797 1.495 . S
C2794 C2793 1.392 . S
C2794 C2795 1.385 . S
C2794 C2796 1.478 . S
C2795 H2789 0.930 . S
C2795 C2791 1.400 . S
C2795 C2794 1.385 . S
C2796 C2794 1.478 . S
C2796 C2798 1.381 . S
C2796 C2802 1.383 . S
C2797 C2793 1.495 . S
C2797 H2803 0.959 . S
C2797 H2804 0.961 . S
C2797 H2805 0.960 . S
C2798 C2796 1.381 . S
C2798 C2799 1.394 . S
C2798 H2806 0.930 . S
C2799 C2798 1.394 . S
C2799 C2800 1.383 . S
C2799 H2807 0.929 . S
C2800 C2799 1.383 . S
C2800 C2801 1.377 . S
C2801 H2785 0.930 . S
C2801 C2800 1.377 . S
C2801 C2802 1.379 . S
C2802 H2786 0.931 . S
C2802 C2796 1.383 . S
C2802 C2801 1.379 . S
H2803 C2797 0.959 . S
H2804 C2797 0.961 . S
H2805 C2797 0.960 . S
H2806 C2798 0.930 . S
H2807 C2799 0.929 . S
H2808 C2816 0.929 . S
H2809 C2818 0.930 . S
H2810 C2820 0.930 . S
H2811 C2823 0.929 . S
H2812 C2826 0.930 . S
H2813 C2828 0.960 . S
H2814 C2828 0.960 . S
H2815 C2828 0.960 . S
C2816 H2808 0.929 . S
C2816 C2817 1.377 . S
C2816 C2818 1.384 . S
C2817 C2816 1.377 . S
C2817 C2823 1.390 . S
C2818 H2809 0.930 . S
C2818 C2816 1.384 . S
C2818 C2819 1.372 . S
C2819 C2818 1.372 . S
C2819 C2820 1.400 . S
C2819 C2824 1.490 . S
C2820 H2810 0.930 . S
C2820 C2819 1.400 . S
C2820 C2823 1.386 . S
H2821 C2837 0.930 . S
H2822 C2838 0.931 . S
C2823 H2811 0.929 . S
C2823 C2817 1.390 . S
C2823 C2820 1.386 . S
C2824 C2819 1.490 . S
C2824 C2826 1.395 . S
C2824 C2827 1.403 . S
H2825 C2831 0.930 . S
C2826 H2812 0.930 . S
C2826 C2824 1.395 . S
C2826 C2829 1.403 . S
C2827 C2824 1.403 . S
C2827 C2828 1.524 . S
C2827 C2831 1.400 . S
C2828 H2813 0.960 . S
C2828 H2814 0.960 . S
C2828 H2815 0.960 . S
C2828 C2827 1.524 . S
C2829 C2826 1.403 . S
C2829 C2830 1.392 . S
C2829 C2833 1.495 . S
C2830 C2829 1.392 . S
C2830 C2831 1.385 . S
C2830 C2832 1.478 . S
C2831 H2825 0.930 . S
C2831 C2827 1.400 . S
C2831 C2830 1.385 . S
C2832 C2830 1.478 . S
C2832 C2834 1.381 . S
C2832 C2838 1.383 . S
C2833 C2829 1.495 . S
C2833 H2839 0.959 . S
C2833 H2840 0.961 . S
C2833 H2841 0.960 . S
C2834 C2832 1.381 . S
C2834 C2835 1.394 . S
C2834 H2842 0.930 . S
C2835 C2834 1.394 . S
C2835 C2836 1.383 . S
C2835 H2843 0.929 . S
C2836 C2835 1.383 . S
C2836 C2837 1.377 . S
C2837 H2821 0.930 . S
C2837 C2836 1.377 . S
C2837 C2838 1.379 . S
C2838 H2822 0.931 . S
C2838 C2832 1.383 . S
C2838 C2837 1.379 . S
H2839 C2833 0.959 . S
H2840 C2833 0.961 . S
H2841 C2833 0.960 . S
H2842 C2834 0.930 . S
H2843 C2835 0.929 . S
H2844 C2852 0.929 . S
H2845 C2854 0.930 . S
H2846 C2856 0.930 . S
H2847 C2859 0.929 . S
H2848 C2862 0.930 . S
H2849 C2864 0.960 . S
H2850 C2864 0.960 . S
H2851 C2864 0.960 . S
C2852 H2844 0.929 . S
C2852 C2853 1.377 . S
C2852 C2854 1.384 . S
C2853 C2852 1.377 . S
C2853 C2859 1.390 . S
C2854 H2845 0.930 . S
C2854 C2852 1.384 . S
C2854 C2855 1.372 . S
C2855 C2854 1.372 . S
C2855 C2856 1.400 . S
C2855 C2860 1.490 . S
C2856 H2846 0.930 . S
C2856 C2855 1.400 . S
C2856 C2859 1.386 . S
H2857 C2873 0.930 . S
H2858 C2874 0.931 . S
C2859 H2847 0.929 . S
C2859 C2853 1.390 . S
C2859 C2856 1.386 . S
C2860 C2855 1.490 . S
C2860 C2862 1.395 . S
C2860 C2863 1.403 . S
H2861 C2867 0.930 . S
C2862 H2848 0.930 . S
C2862 C2860 1.395 . S
C2862 C2865 1.403 . S
C2863 C2860 1.403 . S
C2863 C2864 1.524 . S
C2863 C2867 1.400 . S
C2864 H2849 0.960 . S
C2864 H2850 0.960 . S
C2864 H2851 0.960 . S
C2864 C2863 1.524 . S
C2865 C2862 1.403 . S
C2865 C2866 1.392 . S
C2865 C2869 1.495 . S
C2866 C2865 1.392 . S
C2866 C2867 1.385 . S
C2866 C2868 1.478 . S
C2867 H2861 0.930 . S
C2867 C2863 1.400 . S
C2867 C2866 1.385 . S
C2868 C2866 1.478 . S
C2868 C2870 1.381 . S
C2868 C2874 1.383 . S
C2869 C2865 1.495 . S
C2869 H2875 0.959 . S
C2869 H2876 0.961 . S
C2869 H2877 0.960 . S
C2870 C2868 1.381 . S
C2870 C2871 1.394 . S
C2870 H2878 0.930 . S
C2871 C2870 1.394 . S
C2871 C2872 1.383 . S
C2871 H2879 0.929 . S
C2872 C2871 1.383 . S
C2872 C2873 1.377 . S
C2873 H2857 0.930 . S
C2873 C2872 1.377 . S
C2873 C2874 1.379 . S
C2874 H2858 0.931 . S
C2874 C2868 1.383 . S
C2874 C2873 1.379 . S
H2875 C2869 0.959 . S
H2876 C2869 0.961 . S
H2877 C2869 0.960 . S
H2878 C2870 0.930 . S
H2879 C2871 0.929 . S
H2880 C2888 0.929 . S
H2881 C2890 0.930 . S
H2882 C2892 0.930 . S
H2883 C2895 0.929 . S
H2884 C2898 0.930 . S
H2885 C2900 0.960 . S
H2886 C2900 0.960 . S
H2887 C2900 0.960 . S
C2888 H2880 0.929 . S
C2888 C2889 1.377 . S
C2888 C2890 1.384 . S
C2889 C2888 1.377 . S
C2889 C2895 1.390 . S
C2890 H2881 0.930 . S
C2890 C2888 1.384 . S
C2890 C2891 1.372 . S
C2891 C2890 1.372 . S
C2891 C2892 1.400 . S
C2891 C2896 1.490 . S
C2892 H2882 0.930 . S
C2892 C2891 1.400 . S
C2892 C2895 1.386 . S
H2893 C2909 0.930 . S
H2894 C2910 0.931 . S
C2895 H2883 0.929 . S
C2895 C2889 1.390 . S
C2895 C2892 1.386 . S
C2896 C2891 1.490 . S
C2896 C2898 1.395 . S
C2896 C2899 1.403 . S
H2897 C2903 0.930 . S
C2898 H2884 0.930 . S
C2898 C2896 1.395 . S
C2898 C2901 1.403 . S
C2899 C2896 1.403 . S
C2899 C2900 1.524 . S
C2899 C2903 1.400 . S
C2900 H2885 0.960 . S
C2900 H2886 0.960 . S
C2900 H2887 0.960 . S
C2900 C2899 1.524 . S
C2901 C2898 1.403 . S
C2901 C2902 1.392 . S
C2901 C2905 1.495 . S
C2902 C2901 1.392 . S
C2902 C2903 1.385 . S
C2902 C2904 1.478 . S
C2903 H2897 0.930 . S
C2903 C2899 1.400 . S
C2903 C2902 1.385 . S
C2904 C2902 1.478 . S
C2904 C2906 1.381 . S
C2904 C2910 1.383 . S
C2905 C2901 1.495 . S
C2905 H2911 0.959 . S
C2905 H2912 0.961 . S
C2905 H2913 0.960 . S
C2906 C2904 1.381 . S
C2906 C2907 1.394 . S
C2906 H2914 0.930 . S
C2907 C2906 1.394 . S
C2907 C2908 1.383 . S
C2907 H2915 0.929 . S
C2908 C2907 1.383 . S
C2908 C2909 1.377 . S
C2909 H2893 0.930 . S
C2909 C2908 1.377 . S
C2909 C2910 1.379 . S
C2910 H2894 0.931 . S
C2910 C2904 1.383 . S
C2910 C2909 1.379 . S
H2911 C2905 0.959 . S
H2912 C2905 0.961 . S
H2913 C2905 0.960 . S
H2914 C2906 0.930 . S
H2915 C2907 0.929 . S
H2916 C2924 0.929 . S
H2917 C2926 0.930 . S
H2918 C2928 0.930 . S
H2919 C2931 0.929 . S
H2920 C2934 0.930 . S
H2921 C2936 0.960 . S
H2922 C2936 0.960 . S
H2923 C2936 0.960 . S
C2924 H2916 0.929 . S
C2924 C2925 1.377 . S
C2924 C2926 1.384 . S
C2925 C2924 1.377 . S
C2925 C2931 1.390 . S
C2926 H2917 0.930 . S
C2926 C2924 1.384 . S
C2926 C2927 1.372 . S
C2927 C2926 1.372 . S
C2927 C2928 1.400 . S
C2927 C2932 1.490 . S
C2928 H2918 0.930 . S
C2928 C2927 1.400 . S
C2928 C2931 1.386 . S
H2929 C2945 0.930 . S
H2930 C2946 0.931 . S
C2931 H2919 0.929 . S
C2931 C2925 1.390 . S
C2931 C2928 1.386 . S
C2932 C2927 1.490 . S
C2932 C2934 1.395 . S
C2932 C2935 1.403 . S
H2933 C2939 0.930 . S
C2934 H2920 0.930 . S
C2934 C2932 1.395 . S
C2934 C2937 1.403 . S
C2935 C2932 1.403 . S
C2935 C2936 1.524 . S
C2935 C2939 1.400 . S
C2936 H2921 0.960 . S
C2936 H2922 0.960 . S
C2936 H2923 0.960 . S
C2936 C2935 1.524 . S
C2937 C2934 1.403 . S
C2937 C2938 1.392 . S
C2937 C2941 1.495 . S
C2938 C2937 1.392 . S
C2938 C2939 1.385 . S
C2938 C2940 1.478 . S
C2939 H2933 0.930 . S
C2939 C2935 1.400 . S
C2939 C2938 1.385 . S
C2940 C2938 1.478 . S
C2940 C2942 1.381 . S
C2940 C2946 1.383 . S
C2941 C2937 1.495 . S
C2941 H2947 0.959 . S
C2941 H2948 0.961 . S
C2941 H2949 0.960 . S
C2942 C2940 1.381 . S
C2942 C2943 1.394 . S
C2942 H2950 0.930 . S
C2943 C2942 1.394 . S
C2943 C2944 1.383 . S
C2943 H2951 0.929 . S
C2944 C2943 1.383 . S
C2944 C2945 1.377 . S
C2945 H2929 0.930 . S
C2945 C2944 1.377 . S
C2945 C2946 1.379 . S
C2946 H2930 0.931 . S
C2946 C2940 1.383 . S
C2946 C2945 1.379 . S
H2947 C2941 0.959 . S
H2948 C2941 0.961 . S
H2949 C2941 0.960 . S
H2950 C2942 0.930 . S
H2951 C2943 0.929 . S
H2952 C2960 0.929 . S
H2953 C2962 0.930 1_655 S
H2954 C2964 0.930 . S
H2955 C2967 0.929 . S
H2956 C2970 0.930 . S
H2957 C2972 0.960 . S
H2958 C2972 0.960 . S
H2959 C2972 0.960 . S
C2960 H2952 0.929 . S
C2960 C2961 1.377 . S
C2960 C2962 1.384 . S
C2961 C2960 1.377 . S
C2961 C2967 1.390 . S
C2962 H2953 0.930 1_455 S
C2962 C2960 1.384 . S
C2962 C2963 1.372 . S
C2963 C2962 1.372 . S
C2963 C2964 1.400 . S
C2963 C2968 1.490 . S
C2964 H2954 0.930 . S
C2964 C2963 1.400 . S
C2964 C2967 1.386 . S
H2965 C2981 0.930 . S
H2966 C2982 0.931 1_455 S
C2967 H2955 0.929 . S
C2967 C2961 1.390 . S
C2967 C2964 1.386 . S
C2968 C2963 1.490 . S
C2968 C2970 1.395 . S
C2968 C2971 1.403 . S
H2969 C2975 0.930 . S
C2970 H2956 0.930 . S
C2970 C2968 1.395 . S
C2970 C2973 1.403 1_455 S
C2971 C2968 1.403 . S
C2971 C2972 1.524 . S
C2971 C2975 1.400 1_455 S
C2972 H2957 0.960 . S
C2972 H2958 0.960 . S
C2972 H2959 0.960 . S
C2972 C2971 1.524 . S
C2973 C2970 1.403 1_655 S
C2973 C2974 1.392 . S
C2973 C2977 1.495 . S
C2974 C2973 1.392 . S
C2974 C2975 1.385 . S
C2974 C2976 1.478 . S
C2975 H2969 0.930 . S
C2975 C2971 1.400 1_655 S
C2975 C2974 1.385 . S
C2976 C2974 1.478 . S
C2976 C2978 1.381 . S
C2976 C2982 1.383 . S
C2977 C2973 1.495 . S
C2977 H2983 0.959 . S
C2977 H2984 0.961 . S
C2977 H2985 0.960 . S
C2978 C2976 1.381 . S
C2978 C2979 1.394 . S
C2978 H2986 0.930 . S
C2979 C2978 1.394 . S
C2979 C2980 1.383 . S
C2979 H2987 0.929 . S
C2980 C2979 1.383 . S
C2980 C2981 1.377 . S
C2981 H2965 0.930 . S
C2981 C2980 1.377 . S
C2981 C2982 1.379 . S
C2982 H2966 0.931 1_655 S
C2982 C2976 1.383 . S
C2982 C2981 1.379 . S
H2983 C2977 0.959 . S
H2984 C2977 0.961 . S
H2985 C2977 0.960 . S
H2986 C2978 0.930 . S
H2987 C2979 0.929 . S
H2988 C2996 0.929 . S
H2989 C2998 0.930 . S
H2990 C3000 0.930 . S
H2991 C3003 0.929 . S
H2992 C3006 0.930 . S
H2993 C3008 0.960 . S
H2994 C3008 0.960 . S
H2995 C3008 0.960 . S
C2996 H2988 0.929 . S
C2996 C2997 1.377 . S
C2996 C2998 1.384 . S
C2997 C2996 1.377 . S
C2997 C3003 1.390 . S
C2998 H2989 0.930 . S
C2998 C2996 1.384 . S
C2998 C2999 1.372 . S
C2999 C2998 1.372 . S
C2999 C3000 1.400 . S
C2999 C3004 1.490 . S
C3000 H2990 0.930 . S
C3000 C2999 1.400 . S
C3000 C3003 1.386 . S
H3001 C3017 0.930 . S
H3002 C3018 0.931 . S
C3003 H2991 0.929 . S
C3003 C2997 1.390 . S
C3003 C3000 1.386 . S
C3004 C2999 1.490 . S
C3004 C3006 1.395 . S
C3004 C3007 1.403 . S
H3005 C3011 0.930 . S
C3006 H2992 0.930 . S
C3006 C3004 1.395 . S
C3006 C3009 1.403 . S
C3007 C3004 1.403 . S
C3007 C3008 1.524 . S
C3007 C3011 1.400 . S
C3008 H2993 0.960 . S
C3008 H2994 0.960 . S
C3008 H2995 0.960 . S
C3008 C3007 1.524 . S
C3009 C3006 1.403 . S
C3009 C3010 1.392 . S
C3009 C3013 1.495 . S
C3010 C3009 1.392 . S
C3010 C3011 1.385 . S
C3010 C3012 1.478 . S
C3011 H3005 0.930 . S
C3011 C3007 1.400 . S
C3011 C3010 1.385 . S
C3012 C3010 1.478 . S
C3012 C3014 1.381 . S
C3012 C3018 1.383 . S
C3013 C3009 1.495 . S
C3013 H3019 0.959 . S
C3013 H3020 0.961 . S
C3013 H3021 0.960 . S
C3014 C3012 1.381 . S
C3014 C3015 1.394 . S
C3014 H3022 0.930 . S
C3015 C3014 1.394 . S
C3015 C3016 1.383 . S
C3015 H3023 0.929 . S
C3016 C3015 1.383 . S
C3016 C3017 1.377 . S
C3017 H3001 0.930 . S
C3017 C3016 1.377 . S
C3017 C3018 1.379 . S
C3018 H3002 0.931 . S
C3018 C3012 1.383 . S
C3018 C3017 1.379 . S
H3019 C3013 0.959 . S
H3020 C3013 0.961 . S
H3021 C3013 0.960 . S
H3022 C3014 0.930 . S
H3023 C3015 0.929 . S
H3024 C3032 0.929 . S
H3025 C3034 0.930 . S
H3026 C3036 0.956 . S
H3027 C3039 0.929 . S
H3028 C3042 0.930 . S
H3029 C3044 0.960 . S
H3030 C3044 0.960 . S
H3031 C3044 0.960 . S
C3032 H3024 0.929 . S
C3032 C3033 1.377 . S
C3032 C3034 1.384 . S
C3033 C3032 1.377 . S
C3033 C3039 1.390 . S
C3034 H3025 0.930 . S
C3034 C3032 1.384 . S
C3034 C3035 1.372 . S
C3035 C3034 1.372 . S
C3035 C3036 1.400 . S
C3035 C3040 1.490 . S
C3036 H3026 0.956 . S
C3036 C3035 1.400 . S
C3036 C3039 1.386 . S
H3037 C3053 0.930 . S
H3038 C3054 0.931 . S
C3039 H3027 0.929 . S
C3039 C3033 1.390 . S
C3039 C3036 1.386 . S
C3040 C3035 1.490 . S
C3040 C3042 1.395 . S
C3040 C3043 1.403 . S
H3041 C3047 0.930 . S
C3042 H3028 0.930 . S
C3042 C3040 1.395 . S
C3042 C3045 1.403 1_545 S
C3043 C3040 1.403 . S
C3043 C3044 1.524 . S
C3043 C3047 1.400 1_545 S
C3044 H3029 0.960 . S
C3044 H3030 0.960 . S
C3044 H3031 0.960 . S
C3044 C3043 1.524 . S
C3045 C3042 1.403 1_565 S
C3045 C3046 1.392 . S
C3045 C3049 1.495 . S
C3046 C3045 1.392 . S
C3046 C3047 1.385 . S
C3046 C3048 1.478 . S
C3047 H3041 0.930 . S
C3047 C3043 1.400 1_565 S
C3047 C3046 1.385 . S
C3048 C3046 1.478 . S
C3048 C3050 1.381 . S
C3048 C3054 1.383 . S
C3049 C3045 1.495 . S
C3049 H3055 0.959 . S
C3049 H3056 0.961 . S
C3049 H3057 0.960 . S
C3050 C3048 1.381 . S
C3050 C3051 1.394 . S
C3050 H3058 0.871 1_565 S
C3051 C3050 1.394 . S
C3051 C3052 1.383 . S
C3051 H3059 0.929 . S
C3052 C3051 1.383 . S
C3052 C3053 1.377 . S
C3053 H3037 0.930 . S
C3053 C3052 1.377 . S
C3053 C3054 1.379 . S
C3054 H3038 0.931 . S
C3054 C3048 1.383 . S
C3054 C3053 1.379 . S
H3055 C3049 0.959 . S
H3056 C3049 0.961 . S
H3057 C3049 0.960 . S
H3058 C3050 0.871 1_545 S
H3059 C3051 0.929 . S
H3060 C3068 0.929 . S
H3061 C3070 0.930 1_545 S
H3062 C3072 0.930 . S
H3063 C3075 0.929 . S
H3064 C3078 0.930 . S
H3065 C3080 0.974 . S
H3066 C3080 0.960 1_545 S
H3067 C3080 0.960 . S
C3068 H3060 0.929 . S
C3068 C3069 1.377 . S
C3068 C3070 1.384 . S
C3069 C3068 1.377 . S
C3069 C3075 1.390 . S
C3070 H3061 0.930 1_565 S
C3070 C3068 1.384 . S
C3070 C3071 1.372 . S
C3071 C3070 1.372 . S
C3071 C3072 1.400 . S
C3071 C3076 1.490 . S
C3072 H3062 0.930 . S
C3072 C3071 1.400 . S
C3072 C3075 1.386 . S
H3073 C3089 0.930 . S
H3074 C3090 0.931 1_565 S
C3075 H3063 0.929 . S
C3075 C3069 1.390 . S
C3075 C3072 1.386 . S
C3076 C3071 1.490 . S
C3076 C3078 1.395 . S
C3076 C3079 1.403 . S
H3077 C3083 0.930 . S
C3078 H3064 0.930 . S
C3078 C3076 1.395 . S
C3078 C3081 1.403 1_564 S
C3079 C3076 1.403 . S
C3079 C3080 1.524 . S
C3079 C3083 1.400 1_564 S
C3080 H3065 0.974 . S
C3080 H3066 0.960 1_565 S
C3080 H3067 0.960 . S
C3080 C3079 1.524 . S
C3081 C3078 1.403 1_546 S
C3081 C3082 1.392 . S
C3081 C3085 1.495 . S
C3082 C3081 1.392 . S
C3082 C3083 1.385 . S
C3082 C3084 1.478 . S
C3083 H3077 0.930 . S
C3083 C3079 1.400 1_546 S
C3083 C3082 1.385 . S
C3084 C3082 1.478 . S
C3084 C3086 1.381 . S
C3084 C3090 1.383 . S
C3085 C3081 1.495 . S
C3085 H3091 0.959 . S
C3085 H3092 0.968 . S
C3085 H3093 0.960 . S
C3086 C3084 1.381 . S
C3086 C3087 1.394 . S
C3086 H3094 0.930 . S
C3087 C3086 1.394 . S
C3087 C3088 1.383 . S
C3087 H3095 0.929 . S
C3088 C3087 1.383 . S
C3088 C3089 1.377 . S
C3089 H3073 0.930 . S
C3089 C3088 1.377 . S
C3089 C3090 1.379 . S
C3090 H3074 0.931 1_545 S
C3090 C3084 1.383 . S
C3090 C3089 1.379 . S
H3091 C3085 0.959 . S
H3092 C3085 0.968 . S
H3093 C3085 0.960 . S
H3094 C3086 0.930 . S
H3095 C3087 0.929 . S
H3096 C3104 0.929 . S
H3097 C3106 0.930 1_455 S
H3098 C3108 0.930 . S
H3099 C3111 0.929 . S
H3100 C3114 0.930 . S
H3101 C3116 0.960 . S
H3102 C3116 0.935 1_556 S
H3103 C3116 0.971 . S
C3104 H3096 0.929 . S
C3104 C3105 1.377 . S
C3104 C3106 1.384 . S
C3105 C3104 1.377 . S
C3105 C3111 1.390 . S
C3106 H3097 0.930 1_655 S
C3106 C3104 1.384 . S
C3106 C3107 1.372 . S
C3107 C3106 1.372 . S
C3107 C3108 1.400 . S
C3107 C3112 1.490 . S
C3108 H3098 0.930 . S
C3108 C3107 1.400 . S
C3108 C3111 1.386 . S
H3109 C3125 0.930 . S
H3110 C3126 0.931 1_655 S
C3111 H3099 0.929 . S
C3111 C3105 1.390 . S
C3111 C3108 1.386 . S
C3112 C3107 1.490 . S
C3112 C3114 1.395 1_655 S
C3112 C3115 1.403 1_556 S
H3113 C3119 0.930 . S
C3114 H3100 0.930 . S
C3114 C3112 1.395 1_455 S
C3114 C3117 1.403 . S
C3115 C3112 1.403 1_554 S
C3115 C3116 1.524 . S
C3115 C3119 1.400 . S
C3116 H3101 0.960 . S
C3116 H3102 0.935 1_554 S
C3116 H3103 0.971 . S
C3116 C3115 1.524 . S
C3117 C3114 1.403 . S
C3117 C3118 1.392 1_556 S
C3117 C3121 1.495 . S
C3118 C3117 1.392 1_554 S
C3118 C3119 1.385 1_455 S
C3118 C3120 1.478 . S
C3119 H3113 0.930 . S
C3119 C3115 1.400 . S
C3119 C3118 1.385 1_655 S
C3120 C3118 1.478 . S
C3120 C3122 1.381 . S
C3120 C3126 1.383 . S
C3121 C3117 1.495 . S
C3121 H3127 0.959 . S
C3121 H3128 0.992 . S
C3121 H3129 0.960 . S
C3122 C3120 1.381 . S
C3122 C3123 1.394 . S
C3122 H3130 0.930 . S
C3123 C3122 1.394 . S
C3123 C3124 1.383 . S
C3123 H3131 0.929 . S
C3124 C3123 1.383 . S
C3124 C3125 1.377 . S
C3125 H3109 0.930 . S
C3125 C3124 1.377 . S
C3125 C3126 1.379 . S
C3126 H3110 0.931 1_455 S
C3126 C3120 1.383 . S
C3126 C3125 1.379 . S
H3127 C3121 0.959 . S
H3128 C3121 0.992 . S
H3129 C3121 0.960 . S
H3130 C3122 0.930 . S
H3131 C3123 0.929 . S
H3132 C3140 0.929 . S
H3133 C3142 0.930 . S
H3134 C3144 0.930 . S
H3135 C3147 0.929 . S
H3136 C3150 0.930 . S
H3137 C3152 0.960 1_556 S
H3138 C3152 0.960 . S
H3139 C3152 0.960 . S
C3140 H3132 0.929 . S
C3140 C3141 1.377 . S
C3140 C3142 1.384 . S
C3141 C3140 1.377 . S
C3141 C3147 1.390 . S
C3142 H3133 0.930 . S
C3142 C3140 1.384 . S
C3142 C3143 1.372 . S
C3143 C3142 1.372 . S
C3143 C3144 1.400 . S
C3143 C3148 1.490 . S
C3144 H3134 0.930 . S
C3144 C3143 1.400 . S
C3144 C3147 1.386 . S
H3145 C3161 0.930 . S
H3146 C3162 0.931 . S
C3147 H3135 0.929 . S
C3147 C3141 1.390 . S
C3147 C3144 1.386 . S
C3148 C3143 1.490 . S
C3148 C3150 1.395 . S
C3148 C3151 1.403 . S
H3149 C3155 0.930 . S
C3150 H3136 0.930 . S
C3150 C3148 1.395 . S
C3150 C3153 1.403 1_554 S
C3151 C3148 1.403 . S
C3151 C3152 1.524 . S
C3151 C3155 1.400 1_554 S
C3152 H3137 0.960 1_554 S
C3152 H3138 0.960 . S
C3152 H3139 0.960 . S
C3152 C3151 1.524 . S
C3153 C3150 1.403 1_556 S
C3153 C3154 1.392 . S
C3153 C3157 1.495 . S
C3154 C3153 1.392 . S
C3154 C3155 1.385 . S
C3154 C3156 1.478 . S
C3155 H3149 0.930 . S
C3155 C3151 1.400 1_556 S
C3155 C3154 1.385 . S
C3156 C3154 1.478 . S
C3156 C3158 1.381 . S
C3156 C3162 1.383 . S
C3157 C3153 1.495 . S
C3157 H3163 0.959 1_556 S
C3157 H3164 0.961 . S
C3157 H3165 0.960 . S
C3158 C3156 1.381 . S
C3158 C3159 1.394 . S
C3158 H3166 0.930 . S
C3159 C3158 1.394 . S
C3159 C3160 1.383 . S
C3159 H3167 0.929 . S
C3160 C3159 1.383 . S
C3160 C3161 1.377 . S
C3161 H3145 0.930 . S
C3161 C3160 1.377 . S
C3161 C3162 1.379 . S
C3162 H3146 0.931 . S
C3162 C3156 1.383 . S
C3162 C3161 1.379 . S
H3163 C3157 0.959 1_554 S
H3164 C3157 0.961 . S
H3165 C3157 0.960 . S
H3166 C3158 0.930 . S
H3167 C3159 0.929 . S
H3168 C3176 0.929 . S
H3169 C3178 0.930 . S
H3170 C3180 0.930 1_556 S
H3171 C3183 0.929 . S
H3172 C3186 0.930 . S
H3173 C3188 0.960 . S
H3174 C3188 0.960 . S
H3175 C3188 0.960 . S
C3176 H3168 0.929 . S
C3176 C3177 1.377 . S
C3176 C3178 1.384 . S
C3177 C3176 1.377 . S
C3177 C3183 1.390 . S
C3178 H3169 0.930 . S
C3178 C3176 1.384 . S
C3178 C3179 1.372 . S
C3179 C3178 1.372 . S
C3179 C3180 1.400 . S
C3179 C3184 1.490 . S
C3180 H3170 0.930 1_554 S
C3180 C3179 1.400 . S
C3180 C3183 1.386 . S
H3181 C3197 0.930 . S
H3182 C3198 0.931 . S
C3183 H3171 0.929 . S
C3183 C3177 1.390 . S
C3183 C3180 1.386 . S
C3184 C3179 1.490 . S
C3184 C3186 1.395 1_554 S
C3184 C3187 1.403 . S
H3185 C3191 0.937 . S
C3186 H3172 0.930 . S
C3186 C3184 1.395 1_556 S
C3186 C3189 1.403 . S
C3187 C3184 1.403 . S
C3187 C3188 1.524 . S
C3187 C3191 1.400 1_554 S
C3188 H3173 0.960 . S
C3188 H3174 0.960 . S
C3188 H3175 0.960 . S
C3188 C3187 1.524 . S
C3189 C3186 1.403 . S
C3189 C3190 1.392 . S
C3189 C3193 1.495 . S
C3190 C3189 1.392 . S
C3190 C3191 1.385 . S
C3190 C3192 1.478 1_545 S
C3191 H3185 0.937 . S
C3191 C3187 1.400 1_556 S
C3191 C3190 1.385 . S
C3192 C3190 1.478 1_565 S
C3192 C3194 1.381 . S
C3192 C3198 1.383 . S
C3193 C3189 1.495 . S
C3193 H3199 0.959 . S
C3193 H3200 0.961 . S
C3193 H3201 0.960 1_545 S
C3194 C3192 1.381 . S
C3194 C3195 1.394 . S
C3194 H3202 0.931 . S
C3195 C3194 1.394 . S
C3195 C3196 1.383 . S
C3195 H3203 0.929 . S
C3196 C3195 1.383 . S
C3196 C3197 1.377 . S
C3197 H3181 0.930 . S
C3197 C3196 1.377 . S
C3197 C3198 1.379 . S
C3198 H3182 0.931 . S
C3198 C3192 1.383 . S
C3198 C3197 1.379 . S
H3199 C3193 0.959 . S
H3200 C3193 0.961 . S
H3201 C3193 0.960 1_565 S
H3202 C3194 0.931 . S
H3203 C3195 0.929 . S
H3204 C3212 0.923 1_556 S
H3205 C3214 0.930 . S
H3206 C3216 0.930 . S
H3207 C3219 0.929 . S
H3208 C3222 0.930 . S
H3209 C3224 0.960 . S
H3210 C3224 0.960 . S
H3211 C3224 0.960 . S
C3212 H3204 0.923 1_554 S
C3212 C3213 1.386 . S
C3212 C3214 1.381 1_554 S
C3213 C3212 1.386 . S
C3213 C3219 1.390 . S
C3214 H3205 0.930 . S
C3214 C3212 1.381 1_556 S
C3214 C3215 1.372 1_556 S
C3215 C3214 1.372 1_554 S
C3215 C3216 1.400 . S
C3215 C3220 1.490 . S
C3216 H3206 0.930 . S
C3216 C3215 1.400 . S
C3216 C3219 1.386 . S
H3217 C3233 0.956 . S
H3218 C3234 0.931 1_554 S
C3219 H3207 0.929 . S
C3219 C3213 1.390 . S
C3219 C3216 1.386 . S
C3220 C3215 1.490 . S
C3220 C3222 1.395 1_554 S
C3220 C3223 1.403 . S
H3221 C3227 0.936 . S
C3222 H3208 0.930 . S
C3222 C3220 1.395 1_556 S
C3222 C3225 1.403 . S
C3223 C3220 1.403 . S
C3223 C3224 1.524 . S
C3223 C3227 1.400 1_554 S
C3224 H3209 0.960 . S
C3224 H3210 0.960 . S
C3224 H3211 0.960 . S
C3224 C3223 1.524 . S
C3225 C3222 1.403 . S
C3225 C3226 1.392 . S
C3225 C3229 1.495 . S
C3226 C3225 1.392 . S
C3226 C3227 1.385 . S
C3226 C3228 1.478 1_655 S
C3227 H3221 0.936 . S
C3227 C3223 1.400 1_556 S
C3227 C3226 1.385 . S
C3228 C3226 1.478 1_455 S
C3228 C3230 1.381 . S
C3228 C3234 1.383 . S
C3229 C3225 1.495 . S
C3229 H3235 0.959 . S
C3229 H3236 0.961 . S
C3229 H3237 0.960 . S
C3230 C3228 1.381 . S
C3230 C3231 1.394 . S
C3230 H3238 0.930 . S
C3231 C3230 1.394 . S
C3231 C3232 1.383 . S
C3231 H3239 0.929 . S
C3232 C3231 1.383 . S
C3232 C3233 1.377 . S
C3233 H3217 0.956 . S
C3233 C3232 1.377 . S
C3233 C3234 1.379 . S
C3234 H3218 0.931 1_556 S
C3234 C3228 1.383 . S
C3234 C3233 1.379 . S
H3235 C3229 0.959 . S
H3236 C3229 0.961 . S
H3237 C3229 0.960 . S
H3238 C3230 0.930 . S
H3239 C3231 0.929 . S
H3240 C3248 0.929 . S
H3241 C3250 0.930 . S
H3242 C3252 0.930 . S
H3243 C3255 0.929 . S
H3244 C3258 0.930 . S
H3245 C3260 0.960 . S
H3246 C3260 0.960 . S
H3247 C3260 0.960 . S
C3248 H3240 0.929 . S
C3248 C3249 1.377 . S
C3248 C3250 1.384 . S
C3249 C3248 1.377 . S
C3249 C3255 1.390 . S
C3250 H3241 0.930 . S
C3250 C3248 1.384 . S
C3250 C3251 1.372 . S
C3251 C3250 1.372 . S
C3251 C3252 1.400 . S
C3251 C3256 1.490 . S
C3252 H3242 0.930 . S
C3252 C3251 1.400 . S
C3252 C3255 1.386 . S
H3253 C3269 0.930 . S
H3254 C3270 0.931 . S
C3255 H3243 0.929 . S
C3255 C3249 1.390 . S
C3255 C3252 1.386 . S
C3256 C3251 1.490 . S
C3256 C3258 1.395 . S
C3256 C3259 1.403 1_556 S
H3257 C3263 0.930 . S
C3258 H3244 0.930 . S
C3258 C3256 1.395 . S
C3258 C3261 1.403 . S
C3259 C3256 1.403 1_554 S
C3259 C3260 1.524 . S
C3259 C3263 1.400 . S
C3260 H3245 0.960 . S
C3260 H3246 0.960 . S
C3260 H3247 0.960 . S
C3260 C3259 1.524 . S
C3261 C3258 1.403 . S
C3261 C3262 1.392 . S
C3261 C3265 1.495 . S
C3262 C3261 1.392 . S
C3262 C3263 1.385 1_556 S
C3262 C3264 1.478 1_556 S
C3263 H3257 0.930 . S
C3263 C3259 1.400 . S
C3263 C3262 1.385 1_554 S
C3264 C3262 1.478 1_554 S
C3264 C3266 1.381 . S
C3264 C3270 1.383 . S
C3265 C3261 1.495 . S
C3265 H3271 0.959 . S
C3265 H3272 0.961 . S
C3265 H3273 0.960 . S
C3266 C3264 1.381 . S
C3266 C3267 1.394 . S
C3266 H3274 0.930 . S
C3267 C3266 1.394 . S
C3267 C3268 1.383 . S
C3267 H3275 0.929 . S
C3268 C3267 1.383 . S
C3268 C3269 1.377 . S
C3269 H3253 0.930 . S
C3269 C3268 1.377 . S
C3269 C3270 1.379 . S
C3270 H3254 0.931 . S
C3270 C3264 1.383 . S
C3270 C3269 1.379 . S
H3271 C3265 0.959 . S
H3272 C3265 0.961 . S
H3273 C3265 0.960 . S
H3274 C3266 0.930 . S
H3275 C3267 0.929 . S
H3276 C3284 0.929 . S
H3277 C3286 0.930 . S
H3278 C3288 0.930 . S
H3279 C3291 0.929 . S
H3280 C3294 0.930 . S
H3281 C3296 0.960 . S
H3282 C3296 0.960 . S
H3283 C3296 0.960 . S
C3284 H3276 0.929 . S
C3284 C3285 1.377 . S
C3284 C3286 1.384 . S
C3285 C3284 1.377 . S
C3285 C3291 1.390 . S
C3286 H3277 0.930 . S
C3286 C3284 1.384 . S
C3286 C3287 1.372 . S
C3287 C3286 1.372 . S
C3287 C3288 1.400 . S
C3287 C3292 1.490 1_655 S
C3288 H3278 0.930 . S
C3288 C3287 1.400 . S
C3288 C3291 1.386 . S
H3289 C3305 0.930 . S
H3290 C3306 0.931 . S
C3291 H3279 0.929 . S
C3291 C3285 1.390 . S
C3291 C3288 1.386 . S
C3292 C3287 1.490 1_455 S
C3292 C3294 1.395 . S
C3292 C3295 1.403 . S
H3293 C3299 0.930 . S
C3294 H3280 0.930 . S
C3294 C3292 1.395 . S
C3294 C3297 1.403 . S
C3295 C3292 1.403 . S
C3295 C3296 1.524 . S
C3295 C3299 1.400 . S
C3296 H3281 0.960 . S
C3296 H3282 0.960 . S
C3296 H3283 0.960 . S
C3296 C3295 1.524 . S
C3297 C3294 1.403 . S
C3297 C3298 1.392 . S
C3297 C3301 1.495 . S
C3298 C3297 1.392 . S
C3298 C3299 1.385 . S
C3298 C3300 1.478 . S
C3299 H3293 0.930 . S
C3299 C3295 1.400 . S
C3299 C3298 1.385 . S
C3300 C3298 1.478 . S
C3300 C3302 1.381 . S
C3300 C3306 1.383 . S
C3301 C3297 1.495 . S
C3301 H3307 0.959 . S
C3301 H3308 0.961 . S
C3301 H3309 0.960 . S
C3302 C3300 1.381 . S
C3302 C3303 1.394 . S
C3302 H3310 0.930 . S
C3303 C3302 1.394 . S
C3303 C3304 1.383 . S
C3303 H3311 0.929 . S
C3304 C3303 1.383 . S
C3304 C3305 1.377 . S
C3305 H3289 0.930 . S
C3305 C3304 1.377 . S
C3305 C3306 1.379 . S
C3306 H3290 0.931 . S
C3306 C3300 1.383 . S
C3306 C3305 1.379 . S
H3307 C3301 0.959 . S
H3308 C3301 0.961 . S
H3309 C3301 0.960 . S
H3310 C3302 0.930 . S
H3311 C3303 0.929 . S
H3312 C3320 0.929 . S
H3313 C3322 0.930 . S
H3314 C3324 0.930 . S
H3315 C3327 0.929 . S
H3316 C3330 0.930 . S
H3317 C3332 0.960 . S
H3318 C3332 0.960 . S
H3319 C3332 0.960 . S
C3320 H3312 0.929 . S
C3320 C3321 1.377 . S
C3320 C3322 1.384 . S
C3321 C3320 1.377 . S
C3321 C3327 1.390 . S
C3322 H3313 0.930 . S
C3322 C3320 1.384 . S
C3322 C3323 1.372 . S
C3323 C3322 1.372 . S
C3323 C3324 1.400 . S
C3323 C3328 1.490 . S
C3324 H3314 0.930 . S
C3324 C3323 1.400 . S
C3324 C3327 1.386 . S
H3325 C3341 0.930 . S
H3326 C3342 0.931 . S
C3327 H3315 0.929 . S
C3327 C3321 1.390 . S
C3327 C3324 1.386 . S
C3328 C3323 1.490 . S
C3328 C3330 1.395 . S
C3328 C3331 1.403 . S
H3329 C3335 0.930 . S
C3330 H3316 0.930 . S
C3330 C3328 1.395 . S
C3330 C3333 1.403 . S
C3331 C3328 1.403 . S
C3331 C3332 1.524 . S
C3331 C3335 1.400 . S
C3332 H3317 0.960 . S
C3332 H3318 0.960 . S
C3332 H3319 0.960 . S
C3332 C3331 1.524 . S
C3333 C3330 1.403 . S
C3333 C3334 1.392 . S
C3333 C3337 1.495 . S
C3334 C3333 1.392 . S
C3334 C3335 1.385 . S
C3334 C3336 1.478 . S
C3335 H3329 0.930 . S
C3335 C3331 1.400 . S
C3335 C3334 1.385 . S
C3336 C3334 1.478 . S
C3336 C3338 1.381 . S
C3336 C3342 1.383 . S
C3337 C3333 1.495 . S
C3337 H3343 0.959 . S
C3337 H3344 0.961 . S
C3337 H3345 0.960 . S
C3338 C3336 1.381 . S
C3338 C3339 1.394 . S
C3338 H3346 0.930 . S
C3339 C3338 1.394 . S
C3339 C3340 1.383 . S
C3339 H3347 0.929 . S
C3340 C3339 1.383 . S
C3340 C3341 1.377 . S
C3341 H3325 0.930 . S
C3341 C3340 1.377 . S
C3341 C3342 1.379 . S
C3342 H3326 0.931 . S
C3342 C3336 1.383 . S
C3342 C3341 1.379 . S
H3343 C3337 0.959 . S
H3344 C3337 0.961 . S
H3345 C3337 0.960 . S
H3346 C3338 0.930 . S
H3347 C3339 0.929 . S
H3348 C3356 0.929 . S
H3349 C3358 0.930 . S
H3350 C3360 0.930 . S
H3351 C3363 0.929 . S
H3352 C3366 0.984 . S
H3353 C3368 0.960 . S
H3354 C3368 0.960 . S
H3355 C3368 0.960 . S
C3356 H3348 0.929 . S
C3356 C3357 1.377 . S
C3356 C3358 1.384 . S
C3357 C3356 1.377 . S
C3357 C3363 1.390 . S
C3358 H3349 0.930 . S
C3358 C3356 1.384 . S
C3358 C3359 1.372 . S
C3359 C3358 1.372 . S
C3359 C3360 1.400 . S
C3359 C3364 1.490 1_545 S
C3360 H3350 0.930 . S
C3360 C3359 1.400 . S
C3360 C3363 1.386 . S
H3361 C3377 0.930 . S
H3362 C3378 0.931 . S
C3363 H3351 0.929 . S
C3363 C3357 1.390 . S
C3363 C3360 1.386 . S
C3364 C3359 1.490 1_565 S
C3364 C3366 1.395 . S
C3364 C3367 1.403 . S
H3365 C3371 0.930 . S
C3366 H3352 0.984 . S
C3366 C3364 1.395 . S
C3366 C3369 1.403 . S
C3367 C3364 1.403 . S
C3367 C3368 1.524 . S
C3367 C3371 1.400 . S
C3368 H3353 0.960 . S
C3368 H3354 0.960 . S
C3368 H3355 0.960 . S
C3368 C3367 1.524 . S
C3369 C3366 1.403 . S
C3369 C3370 1.392 . S
C3369 C3373 1.495 . S
C3370 C3369 1.392 . S
C3370 C3371 1.385 . S
C3370 C3372 1.478 . S
C3371 H3365 0.930 . S
C3371 C3367 1.400 . S
C3371 C3370 1.385 . S
C3372 C3370 1.478 . S
C3372 C3374 1.381 . S
C3372 C3378 1.383 . S
C3373 C3369 1.495 . S
C3373 H3379 0.959 . S
C3373 H3380 0.961 . S
C3373 H3381 0.960 . S
C3374 C3372 1.381 . S
C3374 C3375 1.394 . S
C3374 H3382 0.930 . S
C3375 C3374 1.394 . S
C3375 C3376 1.383 . S
C3375 H3383 0.929 . S
C3376 C3375 1.383 . S
C3376 C3377 1.377 . S
C3377 H3361 0.930 . S
C3377 C3376 1.377 . S
C3377 C3378 1.379 . S
C3378 H3362 0.931 . S
C3378 C3372 1.383 . S
C3378 C3377 1.379 . S
H3379 C3373 0.959 . S
H3380 C3373 0.961 . S
H3381 C3373 0.960 . S
H3382 C3374 0.930 . S
H3383 C3375 0.929 . S
H3384 C3392 0.929 . S
H3385 C3394 0.930 . S
H3386 C3396 0.930 . S
H3387 C3399 0.929 . S
H3388 C3402 0.930 . S
H3389 C3404 0.960 . S
H3390 C3404 0.953 1_545 S
H3391 C3404 0.960 1_554 S
C3392 H3384 0.929 . S
C3392 C3393 1.377 . S
C3392 C3394 1.384 . S
C3393 C3392 1.377 . S
C3393 C3399 1.390 . S
C3394 H3385 0.930 . S
C3394 C3392 1.384 . S
C3394 C3395 1.372 . S
C3395 C3394 1.372 . S
C3395 C3396 1.400 . S
C3395 C3400 1.490 1_545 S
C3396 H3386 0.930 . S
C3396 C3395 1.400 . S
C3396 C3399 1.386 . S
H3397 C3413 0.915 1_554 S
H3398 C3414 0.931 . S
C3399 H3387 0.929 . S
C3399 C3393 1.390 . S
C3399 C3396 1.386 . S
C3400 C3395 1.490 1_565 S
C3400 C3402 1.395 . S
C3400 C3403 1.400 1_554 S
H3401 C3407 0.930 . S
C3402 H3388 0.930 . S
C3402 C3400 1.395 . S
C3402 C3405 1.403 . S
C3403 C3400 1.400 1_556 S
C3403 C3404 1.525 . S
C3403 C3407 1.401 . S
C3404 H3389 0.960 . S
C3404 H3390 0.953 1_565 S
C3404 H3391 0.960 1_556 S
C3404 C3403 1.525 . S
C3405 C3402 1.403 . S
C3405 C3406 1.380 1_554 S
C3405 C3409 1.495 . S
C3406 C3405 1.380 1_556 S
C3406 C3407 1.391 . S
C3406 C3408 1.485 . S
C3407 H3401 0.930 . S
C3407 C3403 1.401 . S
C3407 C3406 1.391 . S
C3408 C3406 1.485 . S
C3408 C3410 1.381 . S
C3408 C3414 1.383 1_556 S
C3409 C3405 1.495 . S
C3409 H3415 0.959 . S
C3409 H3416 0.961 . S
C3409 H3417 0.960 . S
C3410 C3408 1.381 . S
C3410 C3411 1.394 . S
C3410 H3418 0.930 . S
C3411 C3410 1.394 . S
C3411 C3412 1.383 . S
C3411 H3419 0.929 . S
C3412 C3411 1.383 . S
C3412 C3413 1.377 . S
C3413 H3397 0.915 1_556 S
C3413 C3412 1.377 . S
C3413 C3414 1.379 1_556 S
C3414 H3398 0.931 . S
C3414 C3408 1.383 1_554 S
C3414 C3413 1.379 1_554 S
H3415 C3409 0.959 . S
H3416 C3409 0.961 . S
H3417 C3409 0.960 . S
H3418 C3410 0.930 . S
H3419 C3411 0.929 . S
H3420 C3428 0.929 . S
H3421 C3430 0.930 . S
H3422 C3432 0.930 1_556 S
H3423 C3435 0.929 . S
H3424 C3438 0.930 . S
H3425 C3440 0.948 1_556 S
H3426 C3440 0.981 . S
H3427 C3440 0.960 1_656 S
C3428 H3420 0.929 . S
C3428 C3429 1.377 . S
C3428 C3430 1.384 . S
C3429 C3428 1.377 . S
C3429 C3435 1.390 . S
C3430 H3421 0.930 . S
C3430 C3428 1.384 . S
C3430 C3431 1.372 . S
C3431 C3430 1.372 . S
C3431 C3432 1.400 . S
C3431 C3436 1.490 1_655 S
C3432 H3422 0.930 1_554 S
C3432 C3431 1.400 . S
C3432 C3435 1.386 . S
H3433 C3449 0.930 . S
H3434 C3450 0.931 . S
C3435 H3423 0.929 . S
C3435 C3429 1.390 . S
C3435 C3432 1.386 . S
C3436 C3431 1.490 1_455 S
C3436 C3438 1.395 . S
C3436 C3439 1.403 . S
H3437 C3443 0.953 . S
C3438 H3424 0.930 . S
C3438 C3436 1.395 . S
C3438 C3441 1.403 . S
C3439 C3436 1.403 . S
C3439 C3440 1.524 . S
C3439 C3443 1.383 1_554 S
C3440 H3425 0.948 1_554 S
C3440 H3426 0.981 . S
C3440 H3427 0.960 1_454 S
C3440 C3439 1.524 . S
C3441 C3438 1.403 . S
C3441 C3442 1.389 1_554 S
C3441 C3445 1.495 . S
C3442 C3441 1.389 1_556 S
C3442 C3443 1.384 . S
C3442 C3444 1.480 . S
C3443 H3437 0.953 . S
C3443 C3439 1.383 1_556 S
C3443 C3442 1.384 . S
C3444 C3442 1.480 . S
C3444 C3446 1.381 1_556 S
C3444 C3450 1.383 . S
C3445 C3441 1.495 . S
C3445 H3451 0.959 . S
C3445 H3452 0.961 1_554 S
C3445 H3453 0.960 . S
C3446 C3444 1.381 1_554 S
C3446 C3447 1.387 1_554 S
C3446 H3454 0.930 . S
C3447 C3446 1.387 1_556 S
C3447 C3448 1.407 . S
C3447 H3455 0.913 1_556 S
C3448 C3447 1.407 . S
C3448 C3449 1.377 . S
C3449 H3433 0.930 . S
C3449 C3448 1.377 . S
C3449 C3450 1.379 . S
C3450 H3434 0.931 . S
C3450 C3444 1.383 . S
C3450 C3449 1.379 . S
H3451 C3445 0.959 . S
H3452 C3445 0.961 1_556 S
H3453 C3445 0.960 . S
H3454 C3446 0.930 . S
H3455 C3447 0.913 1_554 S
H3456 C3464 0.929 . S
H3457 C3466 0.930 . S
H3458 C3468 0.930 . S
H3459 C3471 0.929 . S
H3460 C3474 0.930 . S
H3461 C3476 0.960 . S
H3462 C3476 0.960 . S
H3463 C3476 0.960 . S
C3464 H3456 0.929 . S
C3464 C3465 1.377 . S
C3464 C3466 1.384 . S
C3465 C3464 1.377 . S
C3465 C3471 1.390 . S
C3466 H3457 0.930 . S
C3466 C3464 1.384 . S
C3466 C3467 1.372 . S
C3467 C3466 1.372 . S
C3467 C3468 1.400 . S
C3467 C3472 1.490 . S
C3468 H3458 0.930 . S
C3468 C3467 1.400 . S
C3468 C3471 1.386 . S
H3469 C3485 0.930 . S
H3470 C3486 0.931 . S
C3471 H3459 0.929 . S
C3471 C3465 1.390 . S
C3471 C3468 1.386 . S
C3472 C3467 1.490 . S
C3472 C3474 1.395 1_554 S
C3472 C3475 1.403 . S
H3473 C3479 0.930 . S
C3474 H3460 0.930 . S
C3474 C3472 1.395 1_556 S
C3474 C3477 1.403 . S
C3475 C3472 1.403 . S
C3475 C3476 1.524 . S
C3475 C3479 1.400 . S
C3476 H3461 0.960 . S
C3476 H3462 0.960 . S
C3476 H3463 0.960 . S
C3476 C3475 1.524 . S
C3477 C3474 1.403 . S
C3477 C3478 1.392 . S
C3477 C3481 1.495 . S
C3478 C3477 1.392 . S
C3478 C3479 1.385 1_556 S
C3478 C3480 1.478 . S
C3479 H3473 0.930 . S
C3479 C3475 1.400 . S
C3479 C3478 1.385 1_554 S
C3480 C3478 1.478 . S
C3480 C3482 1.381 . S
C3480 C3486 1.383 . S
C3481 C3477 1.495 . S
C3481 H3487 0.959 . S
C3481 H3488 0.961 . S
C3481 H3489 0.960 . S
C3482 C3480 1.381 . S
C3482 C3483 1.394 . S
C3482 H3490 0.930 . S
C3483 C3482 1.394 . S
C3483 C3484 1.383 . S
C3483 H3491 0.929 . S
C3484 C3483 1.383 . S
C3484 C3485 1.377 . S
C3485 H3469 0.930 . S
C3485 C3484 1.377 . S
C3485 C3486 1.379 . S
C3486 H3470 0.931 . S
C3486 C3480 1.383 . S
C3486 C3485 1.379 . S
H3487 C3481 0.959 . S
H3488 C3481 0.961 . S
H3489 C3481 0.960 . S
H3490 C3482 0.930 . S
H3491 C3483 0.929 . S
H3492 C3500 0.929 . S
H3493 C3502 0.930 . S
H3494 C3504 0.930 . S
H3495 C3507 0.929 . S
H3496 C3510 0.930 . S
H3497 C3512 0.960 . S
H3498 C3512 0.960 . S
H3499 C3512 0.960 . S
C3500 H3492 0.929 . S
C3500 C3501 1.377 . S
C3500 C3502 1.384 . S
C3501 C3500 1.377 . S
C3501 C3507 1.390 . S
C3502 H3493 0.930 . S
C3502 C3500 1.384 . S
C3502 C3503 1.372 . S
C3503 C3502 1.372 . S
C3503 C3504 1.400 . S
C3503 C3508 1.490 . S
C3504 H3494 0.930 . S
C3504 C3503 1.400 . S
C3504 C3507 1.386 . S
H3505 C3521 0.930 . S
H3506 C3522 0.931 . S
C3507 H3495 0.929 . S
C3507 C3501 1.390 . S
C3507 C3504 1.386 . S
C3508 C3503 1.490 . S
C3508 C3510 1.395 . S
C3508 C3511 1.403 . S
H3509 C3515 0.930 . S
C3510 H3496 0.930 . S
C3510 C3508 1.395 . S
C3510 C3513 1.403 . S
C3511 C3508 1.403 . S
C3511 C3512 1.524 . S
C3511 C3515 1.400 . S
C3512 H3497 0.960 . S
C3512 H3498 0.960 . S
C3512 H3499 0.960 . S
C3512 C3511 1.524 . S
C3513 C3510 1.403 . S
C3513 C3514 1.392 . S
C3513 C3517 1.495 . S
C3514 C3513 1.392 . S
C3514 C3515 1.385 . S
C3514 C3516 1.478 1_655 S
C3515 H3509 0.930 . S
C3515 C3511 1.400 . S
C3515 C3514 1.385 . S
C3516 C3514 1.478 1_455 S
C3516 C3518 1.381 . S
C3516 C3522 1.383 . S
C3517 C3513 1.495 . S
C3517 H3523 0.959 . S
C3517 H3524 0.961 . S
C3517 H3525 0.992 . S
C3518 C3516 1.381 . S
C3518 C3519 1.394 . S
C3518 H3526 0.930 . S
C3519 C3518 1.394 . S
C3519 C3520 1.383 . S
C3519 H3527 0.929 . S
C3520 C3519 1.383 . S
C3520 C3521 1.377 . S
C3521 H3505 0.930 . S
C3521 C3520 1.377 . S
C3521 C3522 1.379 . S
C3522 H3506 0.931 . S
C3522 C3516 1.383 . S
C3522 C3521 1.379 . S
H3523 C3517 0.959 . S
H3524 C3517 0.961 . S
H3525 C3517 0.992 . S
H3526 C3518 0.930 . S
H3527 C3519 0.929 . S
H3528 C3536 0.929 . S
H3529 C3538 0.930 . S
H3530 C3540 0.930 . S
H3531 C3543 0.929 . S
H3532 C3546 0.930 . S
H3533 C3548 0.960 . S
H3534 C3548 0.960 . S
H3535 C3548 0.960 . S
C3536 H3528 0.929 . S
C3536 C3537 1.377 . S
C3536 C3538 1.384 . S
C3537 C3536 1.377 . S
C3537 C3543 1.390 . S
C3538 H3529 0.930 . S
C3538 C3536 1.384 . S
C3538 C3539 1.372 . S
C3539 C3538 1.372 . S
C3539 C3540 1.400 . S
C3539 C3544 1.490 . S
C3540 H3530 0.930 . S
C3540 C3539 1.400 . S
C3540 C3543 1.386 . S
H3541 C3557 0.930 . S
H3542 C3558 0.931 . S
C3543 H3531 0.929 . S
C3543 C3537 1.390 . S
C3543 C3540 1.386 . S
C3544 C3539 1.490 . S
C3544 C3546 1.395 . S
C3544 C3547 1.403 . S
H3545 C3551 0.930 . S
C3546 H3532 0.930 . S
C3546 C3544 1.395 . S
C3546 C3549 1.403 . S
C3547 C3544 1.403 . S
C3547 C3548 1.524 . S
C3547 C3551 1.400 . S
C3548 H3533 0.960 . S
C3548 H3534 0.960 . S
C3548 H3535 0.960 . S
C3548 C3547 1.524 . S
C3549 C3546 1.403 . S
C3549 C3550 1.392 . S
C3549 C3553 1.495 . S
C3550 C3549 1.392 . S
C3550 C3551 1.385 . S
C3550 C3552 1.478 . S
C3551 H3545 0.930 . S
C3551 C3547 1.400 . S
C3551 C3550 1.385 . S
C3552 C3550 1.478 . S
C3552 C3554 1.381 . S
C3552 C3558 1.383 . S
C3553 C3549 1.495 . S
C3553 H3559 0.959 . S
C3553 H3560 0.961 . S
C3553 H3561 0.960 . S
C3554 C3552 1.381 . S
C3554 C3555 1.394 . S
C3554 H3562 0.930 . S
C3555 C3554 1.394 . S
C3555 C3556 1.383 . S
C3555 H3563 0.929 . S
C3556 C3555 1.383 . S
C3556 C3557 1.377 . S
C3557 H3541 0.930 . S
C3557 C3556 1.377 . S
C3557 C3558 1.379 . S
C3558 H3542 0.931 . S
C3558 C3552 1.383 . S
C3558 C3557 1.379 . S
H3559 C3553 0.959 . S
H3560 C3553 0.961 . S
H3561 C3553 0.960 . S
H3562 C3554 0.930 . S
H3563 C3555 0.929 . S
H3564 C3572 0.929 . S
H3565 C3574 0.930 . S
H3566 C3576 0.930 . S
H3567 C3579 0.929 . S
H3568 C3582 0.930 . S
H3569 C3584 0.960 . S
H3570 C3584 0.960 1_565 S
H3571 C3584 0.960 1_565 S
C3572 H3564 0.929 . S
C3572 C3573 1.377 . S
C3572 C3574 1.384 . S
C3573 C3572 1.377 . S
C3573 C3579 1.390 . S
C3574 H3565 0.930 . S
C3574 C3572 1.384 . S
C3574 C3575 1.372 . S
C3575 C3574 1.372 . S
C3575 C3576 1.400 . S
C3575 C3580 1.490 1_565 S
C3576 H3566 0.930 . S
C3576 C3575 1.400 . S
C3576 C3579 1.386 . S
H3577 C3593 0.930 . S
H3578 C3594 0.931 . S
C3579 H3567 0.929 . S
C3579 C3573 1.390 . S
C3579 C3576 1.386 . S
C3580 C3575 1.490 1_545 S
C3580 C3582 1.395 . S
C3580 C3583 1.403 . S
H3581 C3587 0.930 . S
C3582 H3568 0.930 . S
C3582 C3580 1.395 . S
C3582 C3585 1.403 . S
C3583 C3580 1.403 . S
C3583 C3584 1.524 . S
C3583 C3587 1.400 . S
C3584 H3569 0.960 . S
C3584 H3570 0.960 1_545 S
C3584 H3571 0.960 1_545 S
C3584 C3583 1.524 . S
C3585 C3582 1.403 . S
C3585 C3586 1.392 . S
C3585 C3589 1.495 . S
C3586 C3585 1.392 . S
C3586 C3587 1.385 . S
C3586 C3588 1.478 . S
C3587 H3581 0.930 . S
C3587 C3583 1.400 . S
C3587 C3586 1.385 . S
C3588 C3586 1.478 . S
C3588 C3590 1.381 . S
C3588 C3594 1.383 . S
C3589 C3585 1.495 . S
C3589 H3595 0.959 . S
C3589 H3596 0.961 . S
C3589 H3597 0.960 . S
C3590 C3588 1.381 . S
C3590 C3591 1.394 . S
C3590 H3598 0.930 . S
C3591 C3590 1.394 . S
C3591 C3592 1.383 . S
C3591 H3599 0.929 . S
C3592 C3591 1.383 . S
C3592 C3593 1.377 . S
C3593 H3577 0.930 . S
C3593 C3592 1.377 . S
C3593 C3594 1.379 . S
C3594 H3578 0.931 . S
C3594 C3588 1.383 . S
C3594 C3593 1.379 . S
H3595 C3589 0.959 . S
H3596 C3589 0.961 . S
H3597 C3589 0.960 . S
H3598 C3590 0.930 . S
H3599 C3591 0.929 . S
H3600 C3608 0.929 . S
H3601 C3610 0.930 . S
H3602 C3612 0.930 . S
H3603 C3615 0.929 . S
H3604 C3618 0.930 . S
H3605 C3620 0.960 . S
H3606 C3620 0.960 . S
H3607 C3620 0.960 . S
C3608 H3600 0.929 . S
C3608 C3609 1.377 . S
C3608 C3610 1.384 . S
C3609 C3608 1.377 . S
C3609 C3615 1.390 . S
C3610 H3601 0.930 . S
C3610 C3608 1.384 . S
C3610 C3611 1.372 . S
C3611 C3610 1.372 . S
C3611 C3612 1.400 . S
C3611 C3616 1.490 . S
C3612 H3602 0.930 . S
C3612 C3611 1.400 . S
C3612 C3615 1.386 . S
H3613 C3629 0.930 . S
H3614 C3630 0.931 . S
C3615 H3603 0.929 . S
C3615 C3609 1.390 . S
C3615 C3612 1.386 . S
C3616 C3611 1.490 . S
C3616 C3618 1.395 . S
C3616 C3619 1.403 . S
H3617 C3623 0.930 . S
C3618 H3604 0.930 . S
C3618 C3616 1.395 . S
C3618 C3621 1.403 . S
C3619 C3616 1.403 . S
C3619 C3620 1.524 . S
C3619 C3623 1.400 . S
C3620 H3605 0.960 . S
C3620 H3606 0.960 . S
C3620 H3607 0.960 . S
C3620 C3619 1.524 . S
C3621 C3618 1.403 . S
C3621 C3622 1.392 . S
C3621 C3625 1.495 . S
C3622 C3621 1.392 . S
C3622 C3623 1.385 . S
C3622 C3624 1.478 . S
C3623 H3617 0.930 . S
C3623 C3619 1.400 . S
C3623 C3622 1.385 . S
C3624 C3622 1.478 . S
C3624 C3626 1.381 . S
C3624 C3630 1.383 . S
C3625 C3621 1.495 . S
C3625 H3631 0.959 . S
C3625 H3632 0.961 . S
C3625 H3633 0.960 . S
C3626 C3624 1.381 . S
C3626 C3627 1.394 . S
C3626 H3634 0.930 . S
C3627 C3626 1.394 . S
C3627 C3628 1.383 . S
C3627 H3635 0.929 . S
C3628 C3627 1.383 . S
C3628 C3629 1.377 . S
C3629 H3613 0.930 . S
C3629 C3628 1.377 . S
C3629 C3630 1.379 . S
C3630 H3614 0.931 . S
C3630 C3624 1.383 . S
C3630 C3629 1.379 . S
H3631 C3625 0.959 . S
H3632 C3625 0.961 . S
H3633 C3625 0.960 . S
H3634 C3626 0.930 . S
H3635 C3627 0.929 . S
H3636 C3644 0.929 . S
H3637 C3646 0.930 . S
H3638 C3648 0.930 . S
H3639 C3651 0.929 . S
H3640 C3654 0.930 . S
H3641 C3656 0.960 . S
H3642 C3656 0.960 . S
H3643 C3656 0.960 . S
C3644 H3636 0.929 . S
C3644 C3645 1.377 . S
C3644 C3646 1.384 . S
C3645 C3644 1.377 . S
C3645 C3651 1.390 . S
C3646 H3637 0.930 . S
C3646 C3644 1.384 . S
C3646 C3647 1.372 . S
C3647 C3646 1.372 . S
C3647 C3648 1.400 . S
C3647 C3652 1.490 . S
C3648 H3638 0.930 . S
C3648 C3647 1.400 . S
C3648 C3651 1.386 . S
H3649 C3665 0.930 . S
H3650 C3666 0.931 . S
C3651 H3639 0.929 . S
C3651 C3645 1.390 . S
C3651 C3648 1.386 . S
C3652 C3647 1.490 . S
C3652 C3654 1.395 . S
C3652 C3655 1.403 . S
H3653 C3659 0.930 . S
C3654 H3640 0.930 . S
C3654 C3652 1.395 . S
C3654 C3657 1.403 . S
C3655 C3652 1.403 . S
C3655 C3656 1.524 . S
C3655 C3659 1.400 . S
C3656 H3641 0.960 . S
C3656 H3642 0.960 . S
C3656 H3643 0.960 . S
C3656 C3655 1.524 . S
C3657 C3654 1.403 . S
C3657 C3658 1.392 . S
C3657 C3661 1.495 . S
C3658 C3657 1.392 . S
C3658 C3659 1.385 . S
C3658 C3660 1.478 . S
C3659 H3653 0.930 . S
C3659 C3655 1.400 . S
C3659 C3658 1.385 . S
C3660 C3658 1.478 . S
C3660 C3662 1.381 . S
C3660 C3666 1.383 . S
C3661 C3657 1.495 . S
C3661 H3667 0.959 . S
C3661 H3668 0.961 . S
C3661 H3669 0.960 . S
C3662 C3660 1.381 . S
C3662 C3663 1.394 . S
C3662 H3670 0.930 . S
C3663 C3662 1.394 . S
C3663 C3664 1.383 . S
C3663 H3671 0.929 . S
C3664 C3663 1.383 . S
C3664 C3665 1.377 . S
C3665 H3649 0.930 . S
C3665 C3664 1.377 . S
C3665 C3666 1.379 . S
C3666 H3650 0.931 . S
C3666 C3660 1.383 . S
C3666 C3665 1.379 . S
H3667 C3661 0.959 . S
H3668 C3661 0.961 . S
H3669 C3661 0.960 . S
H3670 C3662 0.930 . S
H3671 C3663 0.929 . S
H3672 C3680 0.929 . S
H3673 C3682 0.930 . S
H3674 C3684 0.930 . S
H3675 C3687 0.929 . S
H3676 C3690 0.930 . S
H3677 C3692 0.960 . S
H3678 C3692 0.960 . S
H3679 C3692 0.960 . S
C3680 H3672 0.929 . S
C3680 C3681 1.377 . S
C3680 C3682 1.384 . S
C3681 C3680 1.377 . S
C3681 C3687 1.390 . S
C3682 H3673 0.930 . S
C3682 C3680 1.384 . S
C3682 C3683 1.372 . S
C3683 C3682 1.372 . S
C3683 C3684 1.400 . S
C3683 C3688 1.490 . S
C3684 H3674 0.930 . S
C3684 C3683 1.400 . S
C3684 C3687 1.386 . S
H3685 C3701 0.930 . S
H3686 C3702 0.931 . S
C3687 H3675 0.929 . S
C3687 C3681 1.390 . S
C3687 C3684 1.386 . S
C3688 C3683 1.490 . S
C3688 C3690 1.395 . S
C3688 C3691 1.403 . S
H3689 C3695 0.930 . S
C3690 H3676 0.930 . S
C3690 C3688 1.395 . S
C3690 C3693 1.403 . S
C3691 C3688 1.403 . S
C3691 C3692 1.524 . S
C3691 C3695 1.400 . S
C3692 H3677 0.960 . S
C3692 H3678 0.960 . S
C3692 H3679 0.960 . S
C3692 C3691 1.524 . S
C3693 C3690 1.403 . S
C3693 C3694 1.392 . S
C3693 C3697 1.495 . S
C3694 C3693 1.392 . S
C3694 C3695 1.385 . S
C3694 C3696 1.478 . S
C3695 H3689 0.930 . S
C3695 C3691 1.400 . S
C3695 C3694 1.385 . S
C3696 C3694 1.478 . S
C3696 C3698 1.381 . S
C3696 C3702 1.383 . S
C3697 C3693 1.495 . S
C3697 H3703 0.959 . S
C3697 H3704 0.961 . S
C3697 H3705 0.960 . S
C3698 C3696 1.381 . S
C3698 C3699 1.394 . S
C3698 H3706 0.930 . S
C3699 C3698 1.394 . S
C3699 C3700 1.383 . S
C3699 H3707 0.929 . S
C3700 C3699 1.383 . S
C3700 C3701 1.377 . S
C3701 H3685 0.930 . S
C3701 C3700 1.377 . S
C3701 C3702 1.379 . S
C3702 H3686 0.931 . S
C3702 C3696 1.383 . S
C3702 C3701 1.379 . S
H3703 C3697 0.959 . S
H3704 C3697 0.961 . S
H3705 C3697 0.960 . S
H3706 C3698 0.930 . S
H3707 C3699 0.929 . S
H3708 C3716 0.929 . S
H3709 C3718 0.930 . S
H3710 C3720 0.930 . S
H3711 C3723 0.929 . S
H3712 C3726 0.930 . S
H3713 C3728 0.960 . S
H3714 C3728 0.960 . S
H3715 C3728 0.960 . S
C3716 H3708 0.929 . S
C3716 C3717 1.377 . S
C3716 C3718 1.384 . S
C3717 C3716 1.377 . S
C3717 C3723 1.390 . S
C3718 H3709 0.930 . S
C3718 C3716 1.384 . S
C3718 C3719 1.372 . S
C3719 C3718 1.372 . S
C3719 C3720 1.400 . S
C3719 C3724 1.490 . S
C3720 H3710 0.930 . S
C3720 C3719 1.400 . S
C3720 C3723 1.386 . S
H3721 C3737 0.930 . S
H3722 C3738 0.931 . S
C3723 H3711 0.929 . S
C3723 C3717 1.390 . S
C3723 C3720 1.386 . S
C3724 C3719 1.490 . S
C3724 C3726 1.395 . S
C3724 C3727 1.403 . S
H3725 C3731 0.930 . S
C3726 H3712 0.930 . S
C3726 C3724 1.395 . S
C3726 C3729 1.403 . S
C3727 C3724 1.403 . S
C3727 C3728 1.524 . S
C3727 C3731 1.400 . S
C3728 H3713 0.960 . S
C3728 H3714 0.960 . S
C3728 H3715 0.960 . S
C3728 C3727 1.524 . S
C3729 C3726 1.403 . S
C3729 C3730 1.392 . S
C3729 C3733 1.495 . S
C3730 C3729 1.392 . S
C3730 C3731 1.385 . S
C3730 C3732 1.478 . S
C3731 H3725 0.930 . S
C3731 C3727 1.400 . S
C3731 C3730 1.385 . S
C3732 C3730 1.478 . S
C3732 C3734 1.381 . S
C3732 C3738 1.383 . S
C3733 C3729 1.495 . S
C3733 H3739 0.959 . S
C3733 H3740 0.961 . S
C3733 H3741 0.960 . S
C3734 C3732 1.381 . S
C3734 C3735 1.394 . S
C3734 H3742 0.930 . S
C3735 C3734 1.394 . S
C3735 C3736 1.383 . S
C3735 H3743 0.929 . S
C3736 C3735 1.383 . S
C3736 C3737 1.377 . S
C3737 H3721 0.930 . S
C3737 C3736 1.377 . S
C3737 C3738 1.379 . S
C3738 H3722 0.931 . S
C3738 C3732 1.383 . S
C3738 C3737 1.379 . S
H3739 C3733 0.959 . S
H3740 C3733 0.961 . S
H3741 C3733 0.960 . S
H3742 C3734 0.930 . S
H3743 C3735 0.929 . S
H3744 C3752 0.929 . S
H3745 C3754 0.930 . S
H3746 C3756 0.930 . S
H3747 C3759 0.929 . S
H3748 C3762 0.930 . S
H3749 C3764 0.960 . S
H3750 C3764 0.960 . S
H3751 C3764 0.960 . S
C3752 H3744 0.929 . S
C3752 C3753 1.377 . S
C3752 C3754 1.384 . S
C3753 C3752 1.377 . S
C3753 C3759 1.390 . S
C3754 H3745 0.930 . S
C3754 C3752 1.384 . S
C3754 C3755 1.372 . S
C3755 C3754 1.372 . S
C3755 C3756 1.400 . S
C3755 C3760 1.490 . S
C3756 H3746 0.930 . S
C3756 C3755 1.400 . S
C3756 C3759 1.386 . S
H3757 C3773 0.930 . S
H3758 C3774 0.931 . S
C3759 H3747 0.929 . S
C3759 C3753 1.390 . S
C3759 C3756 1.386 . S
C3760 C3755 1.490 . S
C3760 C3762 1.395 . S
C3760 C3763 1.403 . S
H3761 C3767 0.930 . S
C3762 H3748 0.930 . S
C3762 C3760 1.395 . S
C3762 C3765 1.403 . S
C3763 C3760 1.403 . S
C3763 C3764 1.524 . S
C3763 C3767 1.400 . S
C3764 H3749 0.960 . S
C3764 H3750 0.960 . S
C3764 H3751 0.960 . S
C3764 C3763 1.524 . S
C3765 C3762 1.403 . S
C3765 C3766 1.392 . S
C3765 C3769 1.495 . S
C3766 C3765 1.392 . S
C3766 C3767 1.385 . S
C3766 C3768 1.478 . S
C3767 H3761 0.930 . S
C3767 C3763 1.400 . S
C3767 C3766 1.385 . S
C3768 C3766 1.478 . S
C3768 C3770 1.381 . S
C3768 C3774 1.383 . S
C3769 C3765 1.495 . S
C3769 H3775 0.959 . S
C3769 H3776 0.961 . S
C3769 H3777 0.960 . S
C3770 C3768 1.381 . S
C3770 C3771 1.394 . S
C3770 H3778 0.930 . S
C3771 C3770 1.394 . S
C3771 C3772 1.383 . S
C3771 H3779 0.929 . S
C3772 C3771 1.383 . S
C3772 C3773 1.377 . S
C3773 H3757 0.930 . S
C3773 C3772 1.377 . S
C3773 C3774 1.379 . S
C3774 H3758 0.931 . S
C3774 C3768 1.383 . S
C3774 C3773 1.379 . S
H3775 C3769 0.959 . S
H3776 C3769 0.961 . S
H3777 C3769 0.960 . S
H3778 C3770 0.930 . S
H3779 C3771 0.929 . S
H3780 C3788 0.929 . S
H3781 C3790 0.930 . S
H3782 C3792 0.930 . S
H3783 C3795 0.929 . S
H3784 C3798 0.930 . S
H3785 C3800 0.960 . S
H3786 C3800 0.960 . S
H3787 C3800 0.960 . S
C3788 H3780 0.929 . S
C3788 C3789 1.377 . S
C3788 C3790 1.384 . S
C3789 C3788 1.377 . S
C3789 C3795 1.390 . S
C3790 H3781 0.930 . S
C3790 C3788 1.384 . S
C3790 C3791 1.372 . S
C3791 C3790 1.372 . S
C3791 C3792 1.400 . S
C3791 C3796 1.490 . S
C3792 H3782 0.930 . S
C3792 C3791 1.400 . S
C3792 C3795 1.386 . S
H3793 C3809 0.930 . S
H3794 C3810 0.931 . S
C3795 H3783 0.929 . S
C3795 C3789 1.390 . S
C3795 C3792 1.386 . S
C3796 C3791 1.490 . S
C3796 C3798 1.395 . S
C3796 C3799 1.403 . S
H3797 C3803 0.930 . S
C3798 H3784 0.930 . S
C3798 C3796 1.395 . S
C3798 C3801 1.403 . S
C3799 C3796 1.403 . S
C3799 C3800 1.524 . S
C3799 C3803 1.400 . S
C3800 H3785 0.960 . S
C3800 H3786 0.960 . S
C3800 H3787 0.960 . S
C3800 C3799 1.524 . S
C3801 C3798 1.403 . S
C3801 C3802 1.392 . S
C3801 C3805 1.495 . S
C3802 C3801 1.392 . S
C3802 C3803 1.385 . S
C3802 C3804 1.478 . S
C3803 H3797 0.930 . S
C3803 C3799 1.400 . S
C3803 C3802 1.385 . S
C3804 C3802 1.478 . S
C3804 C3806 1.381 . S
C3804 C3810 1.383 . S
C3805 C3801 1.495 . S
C3805 H3811 0.959 . S
C3805 H3812 0.961 . S
C3805 H3813 0.960 . S
C3806 C3804 1.381 . S
C3806 C3807 1.394 . S
C3806 H3814 0.930 . S
C3807 C3806 1.394 . S
C3807 C3808 1.383 . S
C3807 H3815 0.929 . S
C3808 C3807 1.383 . S
C3808 C3809 1.377 . S
C3809 H3793 0.930 . S
C3809 C3808 1.377 . S
C3809 C3810 1.379 . S
C3810 H3794 0.931 . S
C3810 C3804 1.383 . S
C3810 C3809 1.379 . S
H3811 C3805 0.959 . S
H3812 C3805 0.961 . S
H3813 C3805 0.960 . S
H3814 C3806 0.930 . S
H3815 C3807 0.929 . S
H3816 C3824 0.929 . S
H3817 C3826 0.930 . S
H3818 C3828 0.930 . S
H3819 C3831 0.929 . S
H3820 C3834 0.930 . S
H3821 C3836 0.960 . S
H3822 C3836 0.960 . S
H3823 C3836 0.960 . S
C3824 H3816 0.929 . S
C3824 C3825 1.377 . S
C3824 C3826 1.384 . S
C3825 C3824 1.377 . S
C3825 C3831 1.390 . S
C3826 H3817 0.930 . S
C3826 C3824 1.384 . S
C3826 C3827 1.372 . S
C3827 C3826 1.372 . S
C3827 C3828 1.400 . S
C3827 C3832 1.490 . S
C3828 H3818 0.930 . S
C3828 C3827 1.400 . S
C3828 C3831 1.386 . S
H3829 C3845 0.930 . S
H3830 C3846 0.931 . S
C3831 H3819 0.929 . S
C3831 C3825 1.390 . S
C3831 C3828 1.386 . S
C3832 C3827 1.490 . S
C3832 C3834 1.395 . S
C3832 C3835 1.403 . S
H3833 C3839 0.930 . S
C3834 H3820 0.930 . S
C3834 C3832 1.395 . S
C3834 C3837 1.403 . S
C3835 C3832 1.403 . S
C3835 C3836 1.524 . S
C3835 C3839 1.400 . S
C3836 H3821 0.960 . S
C3836 H3822 0.960 . S
C3836 H3823 0.960 . S
C3836 C3835 1.524 . S
C3837 C3834 1.403 . S
C3837 C3838 1.392 . S
C3837 C3841 1.495 . S
C3838 C3837 1.392 . S
C3838 C3839 1.385 . S
C3838 C3840 1.478 . S
C3839 H3833 0.930 . S
C3839 C3835 1.400 . S
C3839 C3838 1.385 . S
C3840 C3838 1.478 . S
C3840 C3842 1.381 . S
C3840 C3846 1.383 . S
C3841 C3837 1.495 . S
C3841 H3847 0.959 . S
C3841 H3848 0.961 . S
C3841 H3849 0.960 . S
C3842 C3840 1.381 . S
C3842 C3843 1.394 . S
C3842 H3850 0.930 . S
C3843 C3842 1.394 . S
C3843 C3844 1.383 . S
C3843 H3851 0.929 . S
C3844 C3843 1.383 . S
C3844 C3845 1.377 . S
C3845 H3829 0.930 . S
C3845 C3844 1.377 . S
C3845 C3846 1.379 . S
C3846 H3830 0.931 . S
C3846 C3840 1.383 . S
C3846 C3845 1.379 . S
H3847 C3841 0.959 . S
H3848 C3841 0.961 . S
H3849 C3841 0.960 . S
H3850 C3842 0.930 . S
H3851 C3843 0.929 . S
H3852 C3860 0.929 . S
H3853 C3862 0.930 . S
H3854 C3864 0.930 . S
H3855 C3867 0.929 . S
H3856 C3870 0.930 . S
H3857 C3872 0.960 . S
H3858 C3872 0.960 . S
H3859 C3872 0.960 . S
C3860 H3852 0.929 . S
C3860 C3861 1.377 . S
C3860 C3862 1.384 . S
C3861 C3860 1.377 . S
C3861 C3867 1.390 . S
C3862 H3853 0.930 . S
C3862 C3860 1.384 . S
C3862 C3863 1.372 . S
C3863 C3862 1.372 . S
C3863 C3864 1.400 . S
C3863 C3868 1.490 . S
C3864 H3854 0.930 . S
C3864 C3863 1.400 . S
C3864 C3867 1.386 . S
H3865 C3881 0.930 . S
H3866 C3882 0.931 . S
C3867 H3855 0.929 . S
C3867 C3861 1.390 . S
C3867 C3864 1.386 . S
C3868 C3863 1.490 . S
C3868 C3870 1.395 . S
C3868 C3871 1.403 . S
H3869 C3875 0.930 . S
C3870 H3856 0.930 . S
C3870 C3868 1.395 . S
C3870 C3873 1.403 . S
C3871 C3868 1.403 . S
C3871 C3872 1.524 . S
C3871 C3875 1.400 . S
C3872 H3857 0.960 . S
C3872 H3858 0.960 . S
C3872 H3859 0.960 . S
C3872 C3871 1.524 . S
C3873 C3870 1.403 . S
C3873 C3874 1.392 . S
C3873 C3877 1.495 . S
C3874 C3873 1.392 . S
C3874 C3875 1.385 . S
C3874 C3876 1.478 . S
C3875 H3869 0.930 . S
C3875 C3871 1.400 . S
C3875 C3874 1.385 . S
C3876 C3874 1.478 . S
C3876 C3878 1.381 . S
C3876 C3882 1.383 . S
C3877 C3873 1.495 . S
C3877 H3883 0.959 . S
C3877 H3884 0.961 . S
C3877 H3885 0.960 . S
C3878 C3876 1.381 . S
C3878 C3879 1.394 . S
C3878 H3886 0.930 . S
C3879 C3878 1.394 . S
C3879 C3880 1.383 . S
C3879 H3887 0.929 . S
C3880 C3879 1.383 . S
C3880 C3881 1.377 . S
C3881 H3865 0.930 . S
C3881 C3880 1.377 . S
C3881 C3882 1.379 . S
C3882 H3866 0.931 . S
C3882 C3876 1.383 . S
C3882 C3881 1.379 . S
H3883 C3877 0.959 . S
H3884 C3877 0.961 . S
H3885 C3877 0.960 . S
H3886 C3878 0.930 . S
H3887 C3879 0.929 . S
H3888 C3896 0.929 . S
H3889 C3898 0.930 . S
H3890 C3900 0.930 . S
H3891 C3903 0.929 . S
H3892 C3906 0.930 . S
H3893 C3908 0.960 . S
H3894 C3908 0.960 . S
H3895 C3908 0.960 . S
C3896 H3888 0.929 . S
C3896 C3897 1.377 . S
C3896 C3898 1.384 . S
C3897 C3896 1.377 . S
C3897 C3903 1.390 . S
C3898 H3889 0.930 . S
C3898 C3896 1.384 . S
C3898 C3899 1.372 . S
C3899 C3898 1.372 . S
C3899 C3900 1.400 . S
C3899 C3904 1.490 . S
C3900 H3890 0.930 . S
C3900 C3899 1.400 . S
C3900 C3903 1.386 . S
H3901 C3917 0.930 . S
H3902 C3918 0.931 . S
C3903 H3891 0.929 . S
C3903 C3897 1.390 . S
C3903 C3900 1.386 . S
C3904 C3899 1.490 . S
C3904 C3906 1.395 . S
C3904 C3907 1.403 . S
H3905 C3911 0.930 . S
C3906 H3892 0.930 . S
C3906 C3904 1.395 . S
C3906 C3909 1.403 . S
C3907 C3904 1.403 . S
C3907 C3908 1.524 . S
C3907 C3911 1.400 . S
C3908 H3893 0.960 . S
C3908 H3894 0.960 . S
C3908 H3895 0.960 . S
C3908 C3907 1.524 . S
C3909 C3906 1.403 . S
C3909 C3910 1.392 . S
C3909 C3913 1.495 . S
C3910 C3909 1.392 . S
C3910 C3911 1.385 . S
C3910 C3912 1.478 . S
C3911 H3905 0.930 . S
C3911 C3907 1.400 . S
C3911 C3910 1.385 . S
C3912 C3910 1.478 . S
C3912 C3914 1.381 . S
C3912 C3918 1.383 . S
C3913 C3909 1.495 . S
C3913 H3919 0.959 . S
C3913 H3920 0.961 . S
C3913 H3921 0.960 . S
C3914 C3912 1.381 . S
C3914 C3915 1.394 . S
C3914 H3922 0.930 . S
C3915 C3914 1.394 . S
C3915 C3916 1.383 . S
C3915 H3923 0.929 . S
C3916 C3915 1.383 . S
C3916 C3917 1.377 . S
C3917 H3901 0.930 . S
C3917 C3916 1.377 . S
C3917 C3918 1.379 . S
C3918 H3902 0.931 . S
C3918 C3912 1.383 . S
C3918 C3917 1.379 . S
H3919 C3913 0.959 . S
H3920 C3913 0.961 . S
H3921 C3913 0.960 . S
H3922 C3914 0.930 . S
H3923 C3915 0.929 . S
H3924 C3932 0.929 . S
H3925 C3934 0.930 . S
H3926 C3936 0.930 . S
H3927 C3939 0.929 . S
H3928 C3942 0.930 . S
H3929 C3944 0.960 . S
H3930 C3944 0.960 . S
H3931 C3944 0.960 . S
C3932 H3924 0.929 . S
C3932 C3933 1.377 . S
C3932 C3934 1.384 . S
C3933 C3932 1.377 . S
C3933 C3939 1.390 . S
C3934 H3925 0.930 . S
C3934 C3932 1.384 . S
C3934 C3935 1.372 . S
C3935 C3934 1.372 . S
C3935 C3936 1.400 . S
C3935 C3940 1.490 . S
C3936 H3926 0.930 . S
C3936 C3935 1.400 . S
C3936 C3939 1.386 . S
H3937 C3953 0.930 . S
H3938 C3954 0.931 . S
C3939 H3927 0.929 . S
C3939 C3933 1.390 . S
C3939 C3936 1.386 . S
C3940 C3935 1.490 . S
C3940 C3942 1.395 . S
C3940 C3943 1.403 . S
H3941 C3947 0.930 . S
C3942 H3928 0.930 . S
C3942 C3940 1.395 . S
C3942 C3945 1.403 . S
C3943 C3940 1.403 . S
C3943 C3944 1.524 . S
C3943 C3947 1.400 . S
C3944 H3929 0.960 . S
C3944 H3930 0.960 . S
C3944 H3931 0.960 . S
C3944 C3943 1.524 . S
C3945 C3942 1.403 . S
C3945 C3946 1.392 . S
C3945 C3949 1.495 . S
C3946 C3945 1.392 . S
C3946 C3947 1.385 . S
C3946 C3948 1.478 . S
C3947 H3941 0.930 . S
C3947 C3943 1.400 . S
C3947 C3946 1.385 . S
C3948 C3946 1.478 . S
C3948 C3950 1.381 . S
C3948 C3954 1.383 . S
C3949 C3945 1.495 . S
C3949 H3955 0.959 . S
C3949 H3956 0.961 . S
C3949 H3957 0.960 . S
C3950 C3948 1.381 . S
C3950 C3951 1.394 . S
C3950 H3958 0.930 . S
C3951 C3950 1.394 . S
C3951 C3952 1.383 . S
C3951 H3959 0.929 . S
C3952 C3951 1.383 . S
C3952 C3953 1.377 . S
C3953 H3937 0.930 . S
C3953 C3952 1.377 . S
C3953 C3954 1.379 . S
C3954 H3938 0.931 . S
C3954 C3948 1.383 . S
C3954 C3953 1.379 . S
H3955 C3949 0.959 . S
H3956 C3949 0.961 . S
H3957 C3949 0.960 . S
H3958 C3950 0.930 . S
H3959 C3951 0.929 . S
H3960 C3968 0.929 . S
H3961 C3970 0.930 . S
H3962 C3972 0.930 . S
H3963 C3975 0.929 . S
H3964 C3978 0.930 . S
H3965 C3980 0.960 . S
H3966 C3980 0.960 . S
H3967 C3980 0.960 . S
C3968 H3960 0.929 . S
C3968 C3969 1.377 . S
C3968 C3970 1.384 . S
C3969 C3968 1.377 . S
C3969 C3975 1.390 . S
C3970 H3961 0.930 . S
C3970 C3968 1.384 . S
C3970 C3971 1.372 . S
C3971 C3970 1.372 . S
C3971 C3972 1.400 . S
C3971 C3976 1.490 . S
C3972 H3962 0.930 . S
C3972 C3971 1.400 . S
C3972 C3975 1.386 . S
H3973 C3989 0.930 . S
H3974 C3990 0.931 . S
C3975 H3963 0.929 . S
C3975 C3969 1.390 . S
C3975 C3972 1.386 . S
C3976 C3971 1.490 . S
C3976 C3978 1.395 . S
C3976 C3979 1.403 . S
H3977 C3983 0.930 . S
C3978 H3964 0.930 . S
C3978 C3976 1.395 . S
C3978 C3981 1.403 . S
C3979 C3976 1.403 . S
C3979 C3980 1.524 . S
C3979 C3983 1.400 . S
C3980 H3965 0.960 . S
C3980 H3966 0.960 . S
C3980 H3967 0.960 . S
C3980 C3979 1.524 . S
C3981 C3978 1.403 . S
C3981 C3982 1.392 . S
C3981 C3985 1.495 . S
C3982 C3981 1.392 . S
C3982 C3983 1.385 . S
C3982 C3984 1.478 . S
C3983 H3977 0.930 . S
C3983 C3979 1.400 . S
C3983 C3982 1.385 . S
C3984 C3982 1.478 . S
C3984 C3986 1.381 . S
C3984 C3990 1.383 . S
C3985 C3981 1.495 . S
C3985 H3991 0.959 . S
C3985 H3992 0.961 . S
C3985 H3993 0.960 . S
C3986 C3984 1.381 . S
C3986 C3987 1.394 . S
C3986 H3994 0.930 . S
C3987 C3986 1.394 . S
C3987 C3988 1.383 . S
C3987 H3995 0.929 . S
C3988 C3987 1.383 . S
C3988 C3989 1.377 . S
C3989 H3973 0.930 . S
C3989 C3988 1.377 . S
C3989 C3990 1.379 . S
C3990 H3974 0.931 . S
C3990 C3984 1.383 . S
C3990 C3989 1.379 . S
H3991 C3985 0.959 . S
H3992 C3985 0.961 . S
H3993 C3985 0.960 . S
H3994 C3986 0.930 . S
H3995 C3987 0.929 . S
H3996 C4004 0.929 . S
H3997 C4006 0.930 . S
H3998 C4008 0.930 . S
H3999 C4011 0.929 . S
H4000 C4014 0.930 . S
H4001 C4016 0.960 . S
H4002 C4016 0.960 . S
H4003 C4016 0.960 . S
C4004 H3996 0.929 . S
C4004 C4005 1.377 . S
C4004 C4006 1.384 . S
C4005 C4004 1.377 . S
C4005 C4011 1.390 . S
C4006 H3997 0.930 . S
C4006 C4004 1.384 . S
C4006 C4007 1.372 . S
C4007 C4006 1.372 . S
C4007 C4008 1.400 . S
C4007 C4012 1.490 . S
C4008 H3998 0.930 . S
C4008 C4007 1.400 . S
C4008 C4011 1.386 . S
H4009 C4025 0.930 . S
H4010 C4026 0.931 . S
C4011 H3999 0.929 . S
C4011 C4005 1.390 . S
C4011 C4008 1.386 . S
C4012 C4007 1.490 . S
C4012 C4014 1.395 . S
C4012 C4015 1.403 . S
H4013 C4019 0.930 . S
C4014 H4000 0.930 . S
C4014 C4012 1.395 . S
C4014 C4017 1.403 . S
C4015 C4012 1.403 . S
C4015 C4016 1.524 . S
C4015 C4019 1.400 . S
C4016 H4001 0.960 . S
C4016 H4002 0.960 . S
C4016 H4003 0.960 . S
C4016 C4015 1.524 . S
C4017 C4014 1.403 . S
C4017 C4018 1.392 . S
C4017 C4021 1.495 . S
C4018 C4017 1.392 . S
C4018 C4019 1.385 . S
C4018 C4020 1.478 . S
C4019 H4013 0.930 . S
C4019 C4015 1.400 . S
C4019 C4018 1.385 . S
C4020 C4018 1.478 . S
C4020 C4022 1.381 . S
C4020 C4026 1.383 . S
C4021 C4017 1.495 . S
C4021 H4027 0.959 . S
C4021 H4028 0.961 . S
C4021 H4029 0.960 . S
C4022 C4020 1.381 . S
C4022 C4023 1.394 . S
C4022 H4030 0.930 . S
C4023 C4022 1.394 . S
C4023 C4024 1.383 . S
C4023 H4031 0.929 . S
C4024 C4023 1.383 . S
C4024 C4025 1.377 . S
C4025 H4009 0.930 . S
C4025 C4024 1.377 . S
C4025 C4026 1.379 . S
C4026 H4010 0.931 . S
C4026 C4020 1.383 . S
C4026 C4025 1.379 . S
H4027 C4021 0.959 . S
H4028 C4021 0.961 . S
H4029 C4021 0.960 . S
H4030 C4022 0.930 . S
H4031 C4023 0.929 . S
H4032 C4040 0.929 . S
H4033 C4042 0.930 . S
H4034 C4044 0.930 . S
H4035 C4047 0.929 . S
H4036 C4050 0.930 . S
H4037 C4052 0.960 . S
H4038 C4052 0.960 . S
H4039 C4052 0.960 . S
C4040 H4032 0.929 . S
C4040 C4041 1.377 . S
C4040 C4042 1.384 . S
C4041 C4040 1.377 . S
C4041 C4047 1.390 . S
C4042 H4033 0.930 . S
C4042 C4040 1.384 . S
C4042 C4043 1.372 . S
C4043 C4042 1.372 . S
C4043 C4044 1.400 . S
C4043 C4048 1.490 . S
C4044 H4034 0.930 . S
C4044 C4043 1.400 . S
C4044 C4047 1.386 . S
H4045 C4061 0.930 . S
H4046 C4062 0.931 . S
C4047 H4035 0.929 . S
C4047 C4041 1.390 . S
C4047 C4044 1.386 . S
C4048 C4043 1.490 . S
C4048 C4050 1.395 . S
C4048 C4051 1.403 . S
H4049 C4055 0.930 . S
C4050 H4036 0.930 . S
C4050 C4048 1.395 . S
C4050 C4053 1.403 . S
C4051 C4048 1.403 . S
C4051 C4052 1.524 . S
C4051 C4055 1.400 . S
C4052 H4037 0.960 . S
C4052 H4038 0.960 . S
C4052 H4039 0.960 . S
C4052 C4051 1.524 . S
C4053 C4050 1.403 . S
C4053 C4054 1.392 . S
C4053 C4057 1.495 . S
C4054 C4053 1.392 . S
C4054 C4055 1.385 . S
C4054 C4056 1.478 . S
C4055 H4049 0.930 . S
C4055 C4051 1.400 . S
C4055 C4054 1.385 . S
C4056 C4054 1.478 . S
C4056 C4058 1.381 . S
C4056 C4062 1.383 . S
C4057 C4053 1.495 . S
C4057 H4063 0.959 . S
C4057 H4064 0.961 . S
C4057 H4065 0.960 . S
C4058 C4056 1.381 . S
C4058 C4059 1.394 . S
C4058 H4066 0.930 . S
C4059 C4058 1.394 . S
C4059 C4060 1.383 . S
C4059 H4067 0.929 . S
C4060 C4059 1.383 . S
C4060 C4061 1.377 . S
C4061 H4045 0.930 . S
C4061 C4060 1.377 . S
C4061 C4062 1.379 . S
C4062 H4046 0.931 . S
C4062 C4056 1.383 . S
C4062 C4061 1.379 . S
H4063 C4057 0.959 . S
H4064 C4057 0.961 . S
H4065 C4057 0.960 . S
H4066 C4058 0.930 . S
H4067 C4059 0.929 . S
H4068 C4076 0.929 . S
H4069 C4078 0.930 . S
H4070 C4080 0.930 . S
H4071 C4083 0.929 . S
H4072 C4086 0.930 . S
H4073 C4088 0.960 . S
H4074 C4088 0.960 . S
H4075 C4088 0.960 . S
C4076 H4068 0.929 . S
C4076 C4077 1.377 . S
C4076 C4078 1.384 . S
C4077 C4076 1.377 . S
C4077 C4083 1.390 . S
C4078 H4069 0.930 . S
C4078 C4076 1.384 . S
C4078 C4079 1.372 . S
C4079 C4078 1.372 . S
C4079 C4080 1.400 . S
C4079 C4084 1.490 . S
C4080 H4070 0.930 . S
C4080 C4079 1.400 . S
C4080 C4083 1.386 . S
H4081 C4097 0.930 . S
H4082 C4098 0.931 . S
C4083 H4071 0.929 . S
C4083 C4077 1.390 . S
C4083 C4080 1.386 . S
C4084 C4079 1.490 . S
C4084 C4086 1.395 . S
C4084 C4087 1.403 . S
H4085 C4091 0.930 . S
C4086 H4072 0.930 . S
C4086 C4084 1.395 . S
C4086 C4089 1.403 . S
C4087 C4084 1.403 . S
C4087 C4088 1.524 . S
C4087 C4091 1.400 . S
C4088 H4073 0.960 . S
C4088 H4074 0.960 . S
C4088 H4075 0.960 . S
C4088 C4087 1.524 . S
C4089 C4086 1.403 . S
C4089 C4090 1.392 . S
C4089 C4093 1.495 . S
C4090 C4089 1.392 . S
C4090 C4091 1.385 . S
C4090 C4092 1.478 . S
C4091 H4085 0.930 . S
C4091 C4087 1.400 . S
C4091 C4090 1.385 . S
C4092 C4090 1.478 . S
C4092 C4094 1.381 . S
C4092 C4098 1.383 . S
C4093 C4089 1.495 . S
C4093 H4099 0.959 . S
C4093 H4100 0.961 . S
C4093 H4101 0.960 . S
C4094 C4092 1.381 . S
C4094 C4095 1.394 . S
C4094 H4102 0.930 . S
C4095 C4094 1.394 . S
C4095 C4096 1.383 . S
C4095 H4103 0.929 . S
C4096 C4095 1.383 . S
C4096 C4097 1.377 . S
C4097 H4081 0.930 . S
C4097 C4096 1.377 . S
C4097 C4098 1.379 . S
C4098 H4082 0.931 . S
C4098 C4092 1.383 . S
C4098 C4097 1.379 . S
H4099 C4093 0.959 . S
H4100 C4093 0.961 . S
H4101 C4093 0.960 . S
H4102 C4094 0.930 . S
H4103 C4095 0.929 . S
H4104 C4112 0.929 . S
H4105 C4114 0.930 . S
H4106 C4116 0.930 . S
H4107 C4119 0.929 . S
H4108 C4122 0.930 . S
H4109 C4124 0.960 . S
H4110 C4124 0.960 . S
H4111 C4124 0.960 . S
C4112 H4104 0.929 . S
C4112 C4113 1.377 . S
C4112 C4114 1.384 . S
C4113 C4112 1.377 . S
C4113 C4119 1.390 . S
C4114 H4105 0.930 . S
C4114 C4112 1.384 . S
C4114 C4115 1.372 . S
C4115 C4114 1.372 . S
C4115 C4116 1.400 . S
C4115 C4120 1.490 . S
C4116 H4106 0.930 . S
C4116 C4115 1.400 . S
C4116 C4119 1.386 . S
H4117 C4133 0.930 . S
H4118 C4134 0.931 . S
C4119 H4107 0.929 . S
C4119 C4113 1.390 . S
C4119 C4116 1.386 . S
C4120 C4115 1.490 . S
C4120 C4122 1.395 . S
C4120 C4123 1.403 . S
H4121 C4127 0.930 . S
C4122 H4108 0.930 . S
C4122 C4120 1.395 . S
C4122 C4125 1.403 . S
C4123 C4120 1.403 . S
C4123 C4124 1.524 . S
C4123 C4127 1.400 . S
C4124 H4109 0.960 . S
C4124 H4110 0.960 . S
C4124 H4111 0.960 . S
C4124 C4123 1.524 . S
C4125 C4122 1.403 . S
C4125 C4126 1.392 . S
C4125 C4129 1.495 . S
C4126 C4125 1.392 . S
C4126 C4127 1.385 . S
C4126 C4128 1.478 . S
C4127 H4121 0.930 . S
C4127 C4123 1.400 . S
C4127 C4126 1.385 . S
C4128 C4126 1.478 . S
C4128 C4130 1.381 . S
C4128 C4134 1.383 . S
C4129 C4125 1.495 . S
C4129 H4135 0.959 . S
C4129 H4136 0.961 . S
C4129 H4137 0.960 . S
C4130 C4128 1.381 . S
C4130 C4131 1.394 . S
C4130 H4138 0.930 . S
C4131 C4130 1.394 . S
C4131 C4132 1.383 . S
C4131 H4139 0.929 . S
C4132 C4131 1.383 . S
C4132 C4133 1.377 . S
C4133 H4117 0.930 . S
C4133 C4132 1.377 . S
C4133 C4134 1.379 . S
C4134 H4118 0.931 . S
C4134 C4128 1.383 . S
C4134 C4133 1.379 . S
H4135 C4129 0.959 . S
H4136 C4129 0.961 . S
H4137 C4129 0.960 . S
H4138 C4130 0.930 . S
H4139 C4131 0.929 . S
H4140 C4148 0.929 . S
H4141 C4150 0.930 . S
H4142 C4152 0.930 . S
H4143 C4155 0.929 . S
H4144 C4158 0.930 . S
H4145 C4160 0.960 . S
H4146 C4160 0.960 . S
H4147 C4160 0.960 . S
C4148 H4140 0.929 . S
C4148 C4149 1.377 . S
C4148 C4150 1.384 . S
C4149 C4148 1.377 . S
C4149 C4155 1.390 . S
C4150 H4141 0.930 . S
C4150 C4148 1.384 . S
C4150 C4151 1.372 . S
C4151 C4150 1.372 . S
C4151 C4152 1.400 . S
C4151 C4156 1.490 . S
C4152 H4142 0.930 . S
C4152 C4151 1.400 . S
C4152 C4155 1.386 . S
H4153 C4169 0.930 . S
H4154 C4170 0.931 . S
C4155 H4143 0.929 . S
C4155 C4149 1.390 . S
C4155 C4152 1.386 . S
C4156 C4151 1.490 . S
C4156 C4158 1.395 . S
C4156 C4159 1.403 . S
H4157 C4163 0.930 . S
C4158 H4144 0.930 . S
C4158 C4156 1.395 . S
C4158 C4161 1.403 . S
C4159 C4156 1.403 . S
C4159 C4160 1.524 . S
C4159 C4163 1.400 . S
C4160 H4145 0.960 . S
C4160 H4146 0.960 . S
C4160 H4147 0.960 . S
C4160 C4159 1.524 . S
C4161 C4158 1.403 . S
C4161 C4162 1.392 . S
C4161 C4165 1.495 . S
C4162 C4161 1.392 . S
C4162 C4163 1.385 . S
C4162 C4164 1.478 . S
C4163 H4157 0.930 . S
C4163 C4159 1.400 . S
C4163 C4162 1.385 . S
C4164 C4162 1.478 . S
C4164 C4166 1.381 . S
C4164 C4170 1.383 . S
C4165 C4161 1.495 . S
C4165 H4171 0.959 . S
C4165 H4172 0.961 . S
C4165 H4173 0.960 . S
C4166 C4164 1.381 . S
C4166 C4167 1.394 . S
C4166 H4174 0.930 . S
C4167 C4166 1.394 . S
C4167 C4168 1.383 . S
C4167 H4175 0.929 . S
C4168 C4167 1.383 . S
C4168 C4169 1.377 . S
C4169 H4153 0.930 . S
C4169 C4168 1.377 . S
C4169 C4170 1.379 . S
C4170 H4154 0.931 . S
C4170 C4164 1.383 . S
C4170 C4169 1.379 . S
H4171 C4165 0.959 . S
H4172 C4165 0.961 . S
H4173 C4165 0.960 . S
H4174 C4166 0.930 . S
H4175 C4167 0.929 . S
H4176 C4184 0.929 . S
H4177 C4186 0.930 . S
H4178 C4188 0.930 . S
H4179 C4191 0.929 . S
H4180 C4194 0.930 . S
H4181 C4196 0.960 . S
H4182 C4196 0.960 . S
H4183 C4196 0.960 . S
C4184 H4176 0.929 . S
C4184 C4185 1.377 . S
C4184 C4186 1.384 . S
C4185 C4184 1.377 . S
C4185 C4191 1.390 . S
C4186 H4177 0.930 . S
C4186 C4184 1.384 . S
C4186 C4187 1.372 . S
C4187 C4186 1.372 . S
C4187 C4188 1.400 . S
C4187 C4192 1.490 . S
C4188 H4178 0.930 . S
C4188 C4187 1.400 . S
C4188 C4191 1.386 . S
H4189 C4205 0.930 . S
H4190 C4206 0.931 . S
C4191 H4179 0.929 . S
C4191 C4185 1.390 . S
C4191 C4188 1.386 . S
C4192 C4187 1.490 . S
C4192 C4194 1.395 . S
C4192 C4195 1.403 . S
H4193 C4199 0.930 . S
C4194 H4180 0.930 . S
C4194 C4192 1.395 . S
C4194 C4197 1.403 . S
C4195 C4192 1.403 . S
C4195 C4196 1.524 . S
C4195 C4199 1.400 . S
C4196 H4181 0.960 . S
C4196 H4182 0.960 . S
C4196 H4183 0.960 . S
C4196 C4195 1.524 . S
C4197 C4194 1.403 . S
C4197 C4198 1.392 . S
C4197 C4201 1.495 . S
C4198 C4197 1.392 . S
C4198 C4199 1.385 . S
C4198 C4200 1.478 . S
C4199 H4193 0.930 . S
C4199 C4195 1.400 . S
C4199 C4198 1.385 . S
C4200 C4198 1.478 . S
C4200 C4202 1.381 . S
C4200 C4206 1.383 . S
C4201 C4197 1.495 . S
C4201 H4207 0.959 . S
C4201 H4208 0.961 . S
C4201 H4209 0.960 . S
C4202 C4200 1.381 . S
C4202 C4203 1.394 . S
C4202 H4210 0.930 . S
C4203 C4202 1.394 . S
C4203 C4204 1.383 . S
C4203 H4211 0.929 . S
C4204 C4203 1.383 . S
C4204 C4205 1.377 . S
C4205 H4189 0.930 . S
C4205 C4204 1.377 . S
C4205 C4206 1.379 . S
C4206 H4190 0.931 . S
C4206 C4200 1.383 . S
C4206 C4205 1.379 . S
H4207 C4201 0.959 . S
H4208 C4201 0.961 . S
H4209 C4201 0.960 . S
H4210 C4202 0.930 . S
H4211 C4203 0.929 . S
H4212 C4220 0.929 . S
H4213 C4222 0.930 . S
H4214 C4224 0.930 . S
H4215 C4227 0.929 . S
H4216 C4230 0.930 . S
H4217 C4232 0.960 . S
H4218 C4232 0.960 . S
H4219 C4232 0.960 . S
C4220 H4212 0.929 . S
C4220 C4221 1.377 . S
C4220 C4222 1.384 . S
C4221 C4220 1.377 . S
C4221 C4227 1.390 . S
C4222 H4213 0.930 . S
C4222 C4220 1.384 . S
C4222 C4223 1.372 . S
C4223 C4222 1.372 . S
C4223 C4224 1.400 . S
C4223 C4228 1.490 . S
C4224 H4214 0.930 . S
C4224 C4223 1.400 . S
C4224 C4227 1.386 . S
H4225 C4241 0.930 . S
H4226 C4242 0.931 . S
C4227 H4215 0.929 . S
C4227 C4221 1.390 . S
C4227 C4224 1.386 . S
C4228 C4223 1.490 . S
C4228 C4230 1.395 . S
C4228 C4231 1.403 . S
H4229 C4235 0.930 . S
C4230 H4216 0.930 . S
C4230 C4228 1.395 . S
C4230 C4233 1.403 . S
C4231 C4228 1.403 . S
C4231 C4232 1.524 . S
C4231 C4235 1.400 . S
C4232 H4217 0.960 . S
C4232 H4218 0.960 . S
C4232 H4219 0.960 . S
C4232 C4231 1.524 . S
C4233 C4230 1.403 . S
C4233 C4234 1.392 . S
C4233 C4237 1.495 . S
C4234 C4233 1.392 . S
C4234 C4235 1.385 . S
C4234 C4236 1.478 . S
C4235 H4229 0.930 . S
C4235 C4231 1.400 . S
C4235 C4234 1.385 . S
C4236 C4234 1.478 . S
C4236 C4238 1.381 . S
C4236 C4242 1.383 . S
C4237 C4233 1.495 . S
C4237 H4243 0.959 . S
C4237 H4244 0.961 . S
C4237 H4245 0.960 . S
C4238 C4236 1.381 . S
C4238 C4239 1.394 . S
C4238 H4246 0.930 . S
C4239 C4238 1.394 . S
C4239 C4240 1.383 . S
C4239 H4247 0.929 . S
C4240 C4239 1.383 . S
C4240 C4241 1.377 . S
C4241 H4225 0.930 . S
C4241 C4240 1.377 . S
C4241 C4242 1.379 . S
C4242 H4226 0.931 . S
C4242 C4236 1.383 . S
C4242 C4241 1.379 . S
H4243 C4237 0.959 . S
H4244 C4237 0.961 . S
H4245 C4237 0.960 . S
H4246 C4238 0.930 . S
H4247 C4239 0.929 . S
H4248 C4256 0.929 . S
H4249 C4258 0.930 . S
H4250 C4260 0.930 . S
H4251 C4263 0.929 . S
H4252 C4266 0.930 . S
H4253 C4268 0.960 . S
H4254 C4268 0.960 . S
H4255 C4268 0.960 . S
C4256 H4248 0.929 . S
C4256 C4257 1.377 . S
C4256 C4258 1.384 . S
C4257 C4256 1.377 . S
C4257 C4263 1.390 . S
C4258 H4249 0.930 . S
C4258 C4256 1.384 . S
C4258 C4259 1.372 . S
C4259 C4258 1.372 . S
C4259 C4260 1.400 . S
C4259 C4264 1.490 . S
C4260 H4250 0.930 . S
C4260 C4259 1.400 . S
C4260 C4263 1.386 . S
H4261 C4277 0.930 . S
H4262 C4278 0.931 . S
C4263 H4251 0.929 . S
C4263 C4257 1.390 . S
C4263 C4260 1.386 . S
C4264 C4259 1.490 . S
C4264 C4266 1.395 . S
C4264 C4267 1.403 . S
H4265 C4271 0.930 . S
C4266 H4252 0.930 . S
C4266 C4264 1.395 . S
C4266 C4269 1.403 . S
C4267 C4264 1.403 . S
C4267 C4268 1.524 . S
C4267 C4271 1.400 . S
C4268 H4253 0.960 . S
C4268 H4254 0.960 . S
C4268 H4255 0.960 . S
C4268 C4267 1.524 . S
C4269 C4266 1.403 . S
C4269 C4270 1.392 . S
C4269 C4273 1.495 . S
C4270 C4269 1.392 . S
C4270 C4271 1.385 . S
C4270 C4272 1.478 . S
C4271 H4265 0.930 . S
C4271 C4267 1.400 . S
C4271 C4270 1.385 . S
C4272 C4270 1.478 . S
C4272 C4274 1.381 . S
C4272 C4278 1.383 . S
C4273 C4269 1.495 . S
C4273 H4279 0.959 . S
C4273 H4280 0.961 . S
C4273 H4281 0.960 . S
C4274 C4272 1.381 . S
C4274 C4275 1.394 . S
C4274 H4282 0.930 . S
C4275 C4274 1.394 . S
C4275 C4276 1.383 . S
C4275 H4283 0.929 . S
C4276 C4275 1.383 . S
C4276 C4277 1.377 . S
C4277 H4261 0.930 . S
C4277 C4276 1.377 . S
C4277 C4278 1.379 . S
C4278 H4262 0.931 . S
C4278 C4272 1.383 . S
C4278 C4277 1.379 . S
H4279 C4273 0.959 . S
H4280 C4273 0.961 . S
H4281 C4273 0.960 . S
H4282 C4274 0.930 . S
H4283 C4275 0.929 . S
H4284 C4292 0.929 . S
H4285 C4294 0.930 . S
H4286 C4296 0.930 . S
H4287 C4299 0.929 . S
H4288 C4302 0.930 . S
H4289 C4304 0.960 . S
H4290 C4304 0.960 . S
H4291 C4304 0.960 . S
C4292 H4284 0.929 . S
C4292 C4293 1.377 . S
C4292 C4294 1.384 . S
C4293 C4292 1.377 . S
C4293 C4299 1.390 . S
C4294 H4285 0.930 . S
C4294 C4292 1.384 . S
C4294 C4295 1.372 . S
C4295 C4294 1.372 . S
C4295 C4296 1.400 . S
C4295 C4300 1.490 . S
C4296 H4286 0.930 . S
C4296 C4295 1.400 . S
C4296 C4299 1.386 . S
H4297 C4313 0.930 . S
H4298 C4314 0.931 . S
C4299 H4287 0.929 . S
C4299 C4293 1.390 . S
C4299 C4296 1.386 . S
C4300 C4295 1.490 . S
C4300 C4302 1.395 . S
C4300 C4303 1.403 . S
H4301 C4307 0.930 . S
C4302 H4288 0.930 . S
C4302 C4300 1.395 . S
C4302 C4305 1.403 . S
C4303 C4300 1.403 . S
C4303 C4304 1.524 . S
C4303 C4307 1.400 . S
C4304 H4289 0.960 . S
C4304 H4290 0.960 . S
C4304 H4291 0.960 . S
C4304 C4303 1.524 . S
C4305 C4302 1.403 . S
C4305 C4306 1.392 . S
C4305 C4309 1.495 . S
C4306 C4305 1.392 . S
C4306 C4307 1.385 . S
C4306 C4308 1.478 . S
C4307 H4301 0.930 . S
C4307 C4303 1.400 . S
C4307 C4306 1.385 . S
C4308 C4306 1.478 . S
C4308 C4310 1.381 . S
C4308 C4314 1.383 . S
C4309 C4305 1.495 . S
C4309 H4315 0.959 . S
C4309 H4316 0.961 . S
C4309 H4317 0.960 . S
C4310 C4308 1.381 . S
C4310 C4311 1.394 . S
C4310 H4318 0.930 . S
C4311 C4310 1.394 . S
C4311 C4312 1.383 . S
C4311 H4319 0.929 . S
C4312 C4311 1.383 . S
C4312 C4313 1.377 . S
C4313 H4297 0.930 . S
C4313 C4312 1.377 . S
C4313 C4314 1.379 . S
C4314 H4298 0.931 . S
C4314 C4308 1.383 . S
C4314 C4313 1.379 . S
H4315 C4309 0.959 . S
H4316 C4309 0.961 . S
H4317 C4309 0.960 . S
H4318 C4310 0.930 . S
H4319 C4311 0.929 . S
H4320 C4328 0.929 . S
H4321 C4330 0.930 . S
H4322 C4332 0.930 . S
H4323 C4335 0.929 . S
H4324 C4338 0.930 . S
H4325 C4340 0.960 . S
H4326 C4340 0.960 . S
H4327 C4340 0.960 . S
C4328 H4320 0.929 . S
C4328 C4329 1.377 . S
C4328 C4330 1.384 . S
C4329 C4328 1.377 . S
C4329 C4335 1.390 . S
C4330 H4321 0.930 . S
C4330 C4328 1.384 . S
C4330 C4331 1.372 . S
C4331 C4330 1.372 . S
C4331 C4332 1.400 . S
C4331 C4336 1.490 . S
C4332 H4322 0.930 . S
C4332 C4331 1.400 . S
C4332 C4335 1.386 . S
H4333 C4349 0.930 . S
H4334 C4350 0.931 . S
C4335 H4323 0.929 . S
C4335 C4329 1.390 . S
C4335 C4332 1.386 . S
C4336 C4331 1.490 . S
C4336 C4338 1.395 . S
C4336 C4339 1.403 . S
H4337 C4343 0.930 . S
C4338 H4324 0.930 . S
C4338 C4336 1.395 . S
C4338 C4341 1.403 . S
C4339 C4336 1.403 . S
C4339 C4340 1.524 . S
C4339 C4343 1.400 . S
C4340 H4325 0.960 . S
C4340 H4326 0.960 . S
C4340 H4327 0.960 . S
C4340 C4339 1.524 . S
C4341 C4338 1.403 . S
C4341 C4342 1.392 . S
C4341 C4345 1.495 . S
C4342 C4341 1.392 . S
C4342 C4343 1.385 . S
C4342 C4344 1.478 . S
C4343 H4337 0.930 . S
C4343 C4339 1.400 . S
C4343 C4342 1.385 . S
C4344 C4342 1.478 . S
C4344 C4346 1.381 . S
C4344 C4350 1.383 . S
C4345 C4341 1.495 . S
C4345 H4351 0.959 . S
C4345 H4352 0.961 . S
C4345 H4353 0.960 . S
C4346 C4344 1.381 . S
C4346 C4347 1.394 . S
C4346 H4354 0.930 . S
C4347 C4346 1.394 . S
C4347 C4348 1.383 . S
C4347 H4355 0.929 . S
C4348 C4347 1.383 . S
C4348 C4349 1.377 . S
C4349 H4333 0.930 . S
C4349 C4348 1.377 . S
C4349 C4350 1.379 . S
C4350 H4334 0.931 . S
C4350 C4344 1.383 . S
C4350 C4349 1.379 . S
H4351 C4345 0.959 . S
H4352 C4345 0.961 . S
H4353 C4345 0.960 . S
H4354 C4346 0.930 . S
H4355 C4347 0.929 . S
H4356 C4364 0.929 . S
H4357 C4366 0.930 . S
H4358 C4368 0.930 . S
H4359 C4371 0.929 . S
H4360 C4374 0.930 . S
H4361 C4376 0.960 . S
H4362 C4376 0.960 . S
H4363 C4376 0.960 . S
C4364 H4356 0.929 . S
C4364 C4365 1.377 . S
C4364 C4366 1.384 . S
C4365 C4364 1.377 . S
C4365 C4371 1.390 . S
C4366 H4357 0.930 . S
C4366 C4364 1.384 . S
C4366 C4367 1.372 . S
C4367 C4366 1.372 . S
C4367 C4368 1.400 . S
C4367 C4372 1.490 . S
C4368 H4358 0.930 . S
C4368 C4367 1.400 . S
C4368 C4371 1.386 . S
H4369 C4385 0.930 . S
H4370 C4386 0.931 . S
C4371 H4359 0.929 . S
C4371 C4365 1.390 . S
C4371 C4368 1.386 . S
C4372 C4367 1.490 . S
C4372 C4374 1.395 . S
C4372 C4375 1.403 . S
H4373 C4379 0.930 . S
C4374 H4360 0.930 . S
C4374 C4372 1.395 . S
C4374 C4377 1.403 . S
C4375 C4372 1.403 . S
C4375 C4376 1.524 . S
C4375 C4379 1.400 . S
C4376 H4361 0.960 . S
C4376 H4362 0.960 . S
C4376 H4363 0.960 . S
C4376 C4375 1.524 . S
C4377 C4374 1.403 . S
C4377 C4378 1.392 . S
C4377 C4381 1.495 . S
C4378 C4377 1.392 . S
C4378 C4379 1.385 . S
C4378 C4380 1.478 . S
C4379 H4373 0.930 . S
C4379 C4375 1.400 . S
C4379 C4378 1.385 . S
C4380 C4378 1.478 . S
C4380 C4382 1.381 . S
C4380 C4386 1.383 . S
C4381 C4377 1.495 . S
C4381 H4387 0.959 . S
C4381 H4388 0.961 . S
C4381 H4389 0.960 . S
C4382 C4380 1.381 . S
C4382 C4383 1.394 . S
C4382 H4390 0.930 . S
C4383 C4382 1.394 . S
C4383 C4384 1.383 . S
C4383 H4391 0.929 . S
C4384 C4383 1.383 . S
C4384 C4385 1.377 . S
C4385 H4369 0.930 . S
C4385 C4384 1.377 . S
C4385 C4386 1.379 . S
C4386 H4370 0.931 . S
C4386 C4380 1.383 . S
C4386 C4385 1.379 . S
H4387 C4381 0.959 . S
H4388 C4381 0.961 . S
H4389 C4381 0.960 . S
H4390 C4382 0.930 . S
H4391 C4383 0.929 . S
H4392 C4400 0.929 . S
H4393 C4402 0.930 . S
H4394 C4404 0.930 . S
H4395 C4407 0.929 . S
H4396 C4410 0.930 . S
H4397 C4412 0.960 . S
H4398 C4412 0.960 . S
H4399 C4412 0.960 . S
C4400 H4392 0.929 . S
C4400 C4401 1.377 . S
C4400 C4402 1.384 . S
C4401 C4400 1.377 . S
C4401 C4407 1.390 . S
C4402 H4393 0.930 . S
C4402 C4400 1.384 . S
C4402 C4403 1.372 . S
C4403 C4402 1.372 . S
C4403 C4404 1.400 . S
C4403 C4408 1.490 . S
C4404 H4394 0.930 . S
C4404 C4403 1.400 . S
C4404 C4407 1.386 . S
H4405 C4421 0.930 . S
H4406 C4422 0.931 . S
C4407 H4395 0.929 . S
C4407 C4401 1.390 . S
C4407 C4404 1.386 . S
C4408 C4403 1.490 . S
C4408 C4410 1.395 . S
C4408 C4411 1.403 . S
H4409 C4415 0.930 . S
C4410 H4396 0.930 . S
C4410 C4408 1.395 . S
C4410 C4413 1.403 . S
C4411 C4408 1.403 . S
C4411 C4412 1.524 . S
C4411 C4415 1.400 . S
C4412 H4397 0.960 . S
C4412 H4398 0.960 . S
C4412 H4399 0.960 . S
C4412 C4411 1.524 . S
C4413 C4410 1.403 . S
C4413 C4414 1.392 . S
C4413 C4417 1.495 . S
C4414 C4413 1.392 . S
C4414 C4415 1.385 . S
C4414 C4416 1.478 . S
C4415 H4409 0.930 . S
C4415 C4411 1.400 . S
C4415 C4414 1.385 . S
C4416 C4414 1.478 . S
C4416 C4418 1.381 . S
C4416 C4422 1.383 . S
C4417 C4413 1.495 . S
C4417 H4423 0.959 . S
C4417 H4424 0.961 . S
C4417 H4425 0.960 . S
C4418 C4416 1.381 . S
C4418 C4419 1.394 . S
C4418 H4426 0.930 . S
C4419 C4418 1.394 . S
C4419 C4420 1.383 . S
C4419 H4427 0.929 . S
C4420 C4419 1.383 . S
C4420 C4421 1.377 . S
C4421 H4405 0.930 . S
C4421 C4420 1.377 . S
C4421 C4422 1.379 . S
C4422 H4406 0.931 . S
C4422 C4416 1.383 . S
C4422 C4421 1.379 . S
H4423 C4417 0.959 . S
H4424 C4417 0.961 . S
H4425 C4417 0.960 . S
H4426 C4418 0.930 . S
H4427 C4419 0.929 . S
H4428 C4436 0.929 . S
H4429 C4438 0.930 . S
H4430 C4440 0.930 . S
H4431 C4443 0.929 . S
H4432 C4446 0.930 . S
H4433 C4448 0.960 . S
H4434 C4448 0.960 . S
H4435 C4448 0.960 . S
C4436 H4428 0.929 . S
C4436 C4437 1.377 . S
C4436 C4438 1.384 . S
C4437 C4436 1.377 . S
C4437 C4443 1.390 . S
C4438 H4429 0.930 . S
C4438 C4436 1.384 . S
C4438 C4439 1.372 . S
C4439 C4438 1.372 . S
C4439 C4440 1.400 . S
C4439 C4444 1.490 . S
C4440 H4430 0.930 . S
C4440 C4439 1.400 . S
C4440 C4443 1.386 . S
H4441 C4457 0.930 . S
H4442 C4458 0.931 . S
C4443 H4431 0.929 . S
C4443 C4437 1.390 . S
C4443 C4440 1.386 . S
C4444 C4439 1.490 . S
C4444 C4446 1.395 . S
C4444 C4447 1.403 . S
H4445 C4451 0.930 . S
C4446 H4432 0.930 . S
C4446 C4444 1.395 . S
C4446 C4449 1.403 . S
C4447 C4444 1.403 . S
C4447 C4448 1.524 . S
C4447 C4451 1.400 . S
C4448 H4433 0.960 . S
C4448 H4434 0.960 . S
C4448 H4435 0.960 . S
C4448 C4447 1.524 . S
C4449 C4446 1.403 . S
C4449 C4450 1.392 . S
C4449 C4453 1.495 . S
C4450 C4449 1.392 . S
C4450 C4451 1.385 . S
C4450 C4452 1.478 . S
C4451 H4445 0.930 . S
C4451 C4447 1.400 . S
C4451 C4450 1.385 . S
C4452 C4450 1.478 . S
C4452 C4454 1.381 . S
C4452 C4458 1.383 . S
C4453 C4449 1.495 . S
C4453 H4459 0.959 . S
C4453 H4460 0.961 . S
C4453 H4461 0.960 . S
C4454 C4452 1.381 . S
C4454 C4455 1.394 . S
C4454 H4462 0.930 . S
C4455 C4454 1.394 . S
C4455 C4456 1.383 . S
C4455 H4463 0.929 . S
C4456 C4455 1.383 . S
C4456 C4457 1.377 . S
C4457 H4441 0.930 . S
C4457 C4456 1.377 . S
C4457 C4458 1.379 . S
C4458 H4442 0.931 . S
C4458 C4452 1.383 . S
C4458 C4457 1.379 . S
H4459 C4453 0.959 . S
H4460 C4453 0.961 . S
H4461 C4453 0.960 . S
H4462 C4454 0.930 . S
H4463 C4455 0.929 . S
C1233 C546 1.371 . S
C1252 C2 1.365 1_556 S
C1269 C36 1.370 1_556 S
C1288 C580 1.369 . S
C1305 C512 1.370 . S
C1324 C70 1.369 1_556 S
C1341 C104 1.371 . S
C1360 C886 1.367 . S
C1377 C818 1.370 . S
C1396 C138 1.368 . S
C1413 C172 1.370 . S
C1432 C852 1.369 . S
C1449 C206 1.370 1_554 S
C1468 C1158 1.366 . S
C1485 C240 1.370 1_554 S
C1504 C1192 1.367 . S
C1521 C274 1.371 1_554 S
C1540 C1124 1.369 . S
C1557 C308 1.370 . S
C1576 C682 1.369 . S
C1593 C342 1.370 . S
C1612 C614 1.367 . S
C1629 C376 1.370 . S
C1648 C648 1.366 . S
C1665 C410 1.371 . S
C1684 C954 1.365 . S
C1701 C988 1.371 . S
C1720 C444 1.365 . S
C1737 C920 1.370 . S
C1756 C478 1.370 . S
C1773 C1090 1.371 . S
C1792 C716 1.369 . S
C1809 C1022 1.370 . S
C1828 C750 1.366 . S
C1845 C784 1.370 . S
C1864 C1056 1.366 . S
C1881 C991 1.282 . S
C1900 C5 1.275 . S
C1917 C39 1.286 . S
C1936 C923 1.289 . S
C1953 C73 1.286 . S
C1972 C957 1.291 . S
C1989 C107 1.283 . S
C2008 C447 1.271 . S
C2025 C141 1.282 . S
C2044 C481 1.278 . S
C2061 C413 1.284 . S
C2080 C175 1.273 . S
C2097 C787 1.283 . S
C2116 C209 1.286 . S
C2133 C243 1.286 . S
C2152 C719 1.271 . S
C2169 C277 1.285 . S
C2188 C753 1.278 . S
C2205 C1059 1.283 . S
C2224 C311 1.286 . S
C2241 C1093 1.283 . S
C2260 C345 1.287 . S
C2277 C1025 1.285 . S
C2296 C379 1.274 . S
C2313 C515 1.286 . S
C2332 C855 1.290 . S
C2349 C549 1.286 . S
C2368 C889 1.291 . S
C2385 C583 1.286 . S
C2404 C821 1.289 . S
C2421 C617 1.283 . S
C2440 C1195 1.286 . S
C2457 C1127 1.286 . S
C2476 C651 1.271 . S
C2493 C685 1.286 . S
C2512 C1161 1.274 . S
C2529 C20 1.588 . S
C2548 C632 1.569 . S
C2565 C54 1.589 . S
C2584 C666 1.569 . S
C2601 C700 1.587 . S
C2620 C88 1.571 . S
C2637 C122 1.594 . S
C2656 C1142 1.598 . S
C2673 C156 1.587 . S
C2692 C1176 1.572 . S
C2709 C190 1.588 . S
C2728 C1210 1.569 . S
C2745 C836 1.594 . S
C2764 C224 1.599 . S
C2781 C258 1.589 . S
C2800 C870 1.569 . S
C2817 C904 1.588 . S
C2836 C292 1.592 . S
C2853 C530 1.587 . S
C2872 C326 1.581 . S
C2889 C564 1.594 . S
C2908 C360 1.602 . S
C2925 C394 1.593 . S
C2944 C598 1.581 . S
C2961 C1040 1.587 . S
C2980 C428 1.589 . S
C2997 C1074 1.588 . S
C3016 C462 1.592 . S
C3033 C496 1.594 . S
C3052 C1108 1.594 . S
C3069 C938 1.587 . S
C3088 C734 1.583 . S
C3105 C768 1.589 . S
C3124 C972 1.598 . S
C3141 C1006 1.590 . S
C3160 C802 1.603 . S
C3177 C9 1.259 . S
C3196 C271 1.307 . S
C3213 C43 1.256 . S
C3232 C305 1.285 . S
C3249 C237 1.291 . S
C3268 C77 1.270 . S
C3285 C407 1.298 . S
C3304 C111 1.254 . S
C3321 C339 1.293 . S
C3340 C145 1.288 . S
C3357 C373 1.298 . S
C3376 C179 1.243 . S
C3393 C67 1.292 . S
C3412 C213 1.233 . S
C3429 C101 1.298 . S
C3448 C247 1.288 . S
C3465 C33 1.296 . S
C3484 C281 1.273 . S
C3501 C315 1.255 . S
C3520 C203 1.278 . S
C3537 C349 1.258 . S
C3556 C135 1.290 . S
C3573 C169 1.298 . S
C3592 C383 1.288 . S
C3609 C679 1.292 . S
C3628 C417 1.287 . S
C3645 C451 1.258 . S
C3664 C713 1.307 . S
C3681 C645 1.292 . S
C3700 C485 1.258 . S
C3717 C815 1.291 . S
C3736 C519 1.269 . S
C3753 C553 1.263 . S
C3772 C747 1.303 . S
C3789 C587 1.253 . S
C3808 C781 1.295 . S
C3825 C621 1.259 . S
C3844 C475 1.293 . S
C3861 C655 1.266 . S
C3880 C509 1.307 . S
C3897 C689 1.261 . S
C3916 C441 1.296 . S
C3933 C723 1.266 . S
C3952 C611 1.305 . S
C3969 C543 1.292 . S
C3988 C757 1.227 . S
C4005 C577 1.297 . S
C4024 C791 1.287 . S
C4041 C1087 1.292 . S
C4060 C825 1.247 . S
C4077 C1121 1.293 . S
C4096 C859 1.234 . S
C4113 C1053 1.294 . S
C4132 C893 1.234 . S
C4149 C1223 1.293 . S
C4168 C927 1.287 . S
C4185 C961 1.256 . S
C4204 C1155 1.286 . S
C4221 C1189 1.292 . S
C4240 C995 1.282 . S
C4257 C883 1.294 . S
C4276 C1029 1.262 . S
C4293 C917 1.294 . S
C4312 C1063 1.246 . S
C4329 C849 1.298 . S
C4348 C1097 1.286 . S
C4365 C1131 1.254 . S
C4384 C1019 1.277 . S
C4401 C1165 1.265 . S
C4420 C951 1.303 . S
C4437 C985 1.297 . S
C4456 C1199 1.286 . S
