# Generated by pormake.
# Topology wiu, (6)-cn, num edge types: 1
# Building blocks:
#     Node 0, Type 0, BuildingBlock: BETGAK_clean_sbu_0, # of connection points: 6
#     Node 1, Type 0, BuildingBlock: BETGAK_clean_sbu_0, # of connection points: 6
#     Node 2, Type 0, BuildingBlock: BETGAK_clean_sbu_0, # of connection points: 6
#     Node 3, Type 0, BuildingBlock: BETGAK_clean_sbu_0, # of connection points: 6
#     Node 4, Type 0, BuildingBlock: BETGAK_clean_sbu_0, # of connection points: 6
#     Node 5, Type 0, BuildingBlock: BETGAK_clean_sbu_0, # of connection points: 6
#     Node 6, Type 0, BuildingBlock: BETGAK_clean_sbu_0, # of connection points: 6
#     Node 7, Type 0, BuildingBlock: BETGAK_clean_sbu_0, # of connection points: 6
#     Node 8, Type 0, BuildingBlock: BETGAK_clean_sbu_0, # of connection points: 6
#     Node 9, Type 0, BuildingBlock: BETGAK_clean_sbu_0, # of connection points: 6
#     Node 10, Type 0, BuildingBlock: BETGAK_clean_sbu_0, # of connection points: 6
#     Node 11, Type 0, BuildingBlock: BETGAK_clean_sbu_0, # of connection points: 6
#     Node 12, Type 0, BuildingBlock: BETGAK_clean_sbu_0, # of connection points: 6
#     Node 13, Type 0, BuildingBlock: BETGAK_clean_sbu_0, # of connection points: 6
#     Node 14, Type 0, BuildingBlock: BETGAK_clean_sbu_0, # of connection points: 6
#     Node 15, Type 0, BuildingBlock: BETGAK_clean_sbu_0, # of connection points: 6
#     Edge 16, Type (0, 0), BuildingBlock: KIFKEQ_clean_linker_1, # of connection points: 2
#     Edge 17, Type (0, 0), BuildingBlock: KIFKEQ_clean_linker_1, # of connection points: 2
#     Edge 18, Type (0, 0), BuildingBlock: KIFKEQ_clean_linker_1, # of connection points: 2
#     Edge 19, Type (0, 0), BuildingBlock: KIFKEQ_clean_linker_1, # of connection points: 2
#     Edge 20, Type (0, 0), BuildingBlock: KIFKEQ_clean_linker_1, # of connection points: 2
#     Edge 21, Type (0, 0), BuildingBlock: KIFKEQ_clean_linker_1, # of connection points: 2
#     Edge 22, Type (0, 0), BuildingBlock: KIFKEQ_clean_linker_1, # of connection points: 2
#     Edge 23, Type (0, 0), BuildingBlock: KIFKEQ_clean_linker_1, # of connection points: 2
#     Edge 24, Type (0, 0), BuildingBlock: KIFKEQ_clean_linker_1, # of connection points: 2
#     Edge 25, Type (0, 0), BuildingBlock: KIFKEQ_clean_linker_1, # of connection points: 2
#     Edge 26, Type (0, 0), BuildingBlock: KIFKEQ_clean_linker_1, # of connection points: 2
#     Edge 27, Type (0, 0), BuildingBlock: KIFKEQ_clean_linker_1, # of connection points: 2
#     Edge 28, Type (0, 0), BuildingBlock: KIFKEQ_clean_linker_1, # of connection points: 2
#     Edge 29, Type (0, 0), BuildingBlock: KIFKEQ_clean_linker_1, # of connection points: 2
#     Edge 30, Type (0, 0), BuildingBlock: KIFKEQ_clean_linker_1, # of connection points: 2
#     Edge 31, Type (0, 0), BuildingBlock: KIFKEQ_clean_linker_1, # of connection points: 2
#     Edge 32, Type (0, 0), BuildingBlock: KIFKEQ_clean_linker_1, # of connection points: 2
#     Edge 33, Type (0, 0), BuildingBlock: KIFKEQ_clean_linker_1, # of connection points: 2
#     Edge 34, Type (0, 0), BuildingBlock: KIFKEQ_clean_linker_1, # of connection points: 2
#     Edge 35, Type (0, 0), BuildingBlock: KIFKEQ_clean_linker_1, # of connection points: 2
#     Edge 36, Type (0, 0), BuildingBlock: KIFKEQ_clean_linker_1, # of connection points: 2
#     Edge 37, Type (0, 0), BuildingBlock: KIFKEQ_clean_linker_1, # of connection points: 2
#     Edge 38, Type (0, 0), BuildingBlock: KIFKEQ_clean_linker_1, # of connection points: 2
#     Edge 39, Type (0, 0), BuildingBlock: KIFKEQ_clean_linker_1, # of connection points: 2
#     Edge 40, Type (0, 0), BuildingBlock: KIFKEQ_clean_linker_1, # of connection points: 2
#     Edge 41, Type (0, 0), BuildingBlock: KIFKEQ_clean_linker_1, # of connection points: 2
#     Edge 42, Type (0, 0), BuildingBlock: KIFKEQ_clean_linker_1, # of connection points: 2
#     Edge 43, Type (0, 0), BuildingBlock: KIFKEQ_clean_linker_1, # of connection points: 2
#     Edge 44, Type (0, 0), BuildingBlock: KIFKEQ_clean_linker_1, # of connection points: 2
#     Edge 45, Type (0, 0), BuildingBlock: KIFKEQ_clean_linker_1, # of connection points: 2
#     Edge 46, Type (0, 0), BuildingBlock: KIFKEQ_clean_linker_1, # of connection points: 2
#     Edge 47, Type (0, 0), BuildingBlock: KIFKEQ_clean_linker_1, # of connection points: 2
#     Edge 48, Type (0, 0), BuildingBlock: KIFKEQ_clean_linker_1, # of connection points: 2
#     Edge 49, Type (0, 0), BuildingBlock: KIFKEQ_clean_linker_1, # of connection points: 2
#     Edge 50, Type (0, 0), BuildingBlock: KIFKEQ_clean_linker_1, # of connection points: 2
#     Edge 51, Type (0, 0), BuildingBlock: KIFKEQ_clean_linker_1, # of connection points: 2
#     Edge 52, Type (0, 0), BuildingBlock: KIFKEQ_clean_linker_1, # of connection points: 2
#     Edge 53, Type (0, 0), BuildingBlock: KIFKEQ_clean_linker_1, # of connection points: 2
#     Edge 54, Type (0, 0), BuildingBlock: KIFKEQ_clean_linker_1, # of connection points: 2
#     Edge 55, Type (0, 0), BuildingBlock: KIFKEQ_clean_linker_1, # of connection points: 2
#     Edge 56, Type (0, 0), BuildingBlock: KIFKEQ_clean_linker_1, # of connection points: 2
#     Edge 57, Type (0, 0), BuildingBlock: KIFKEQ_clean_linker_1, # of connection points: 2
#     Edge 58, Type (0, 0), BuildingBlock: KIFKEQ_clean_linker_1, # of connection points: 2
#     Edge 59, Type (0, 0), BuildingBlock: KIFKEQ_clean_linker_1, # of connection points: 2
#     Edge 60, Type (0, 0), BuildingBlock: KIFKEQ_clean_linker_1, # of connection points: 2
#     Edge 61, Type (0, 0), BuildingBlock: KIFKEQ_clean_linker_1, # of connection points: 2
#     Edge 62, Type (0, 0), BuildingBlock: KIFKEQ_clean_linker_1, # of connection points: 2
#     Edge 63, Type (0, 0), BuildingBlock: KIFKEQ_clean_linker_1, # of connection points: 2
# Relax obj value: 0.558
# Max RMSD: 0.321
# Mean RMSD: 0.321
data_MOF--net-wiu--node1-BETGAK_clean_sbu_0--edge1-KIFKEQ_clean_linker_1
_symmetry_space_group_name_H-M    P1
_symmetry_Int_Tables_number       1
_symmetry_cell_setting            triclinic
loop_
_symmetry_equiv_pos_as_xyz
'x, y, z'
_cell_length_a     37.489186
_cell_length_b     37.51408
_cell_length_c     54.770865
_cell_angle_alpha  89.683601
_cell_angle_beta   89.892586
_cell_angle_gamma 90.062032
loop_
_atom_site_label
_atom_site_type_symbol
_atom_site_fract_x
_atom_site_fract_y
_atom_site_fract_z
_atom_type_partial_charge
La0 La 0.36428 0.18786 0.32422 0.0
La1 La 0.40861 0.13215 0.30366 0.0
C2 C 0.32486 0.23446 0.34357 0.0
C3 C 0.31518 0.27076 0.3354 0.0
C4 C 0.30138 0.29548 0.35201 0.0
C5 C 0.29286 0.33015 0.34433 0.0
C6 C 0.29805 0.34081 0.31985 0.0
C7 C 0.31206 0.31585 0.30331 0.0
C8 C 0.32055 0.28124 0.31101 0.0
C9 C 0.42718 0.21182 0.30694 0.0
C10 C 0.39598 0.12612 0.36011 0.0
C11 C 0.46108 0.10241 0.28353 0.0
C12 C 0.49062 0.11527 0.26844 0.0
C13 C 0.51509 0.09087 0.25909 0.0
C14 C 0.54451 0.10289 0.24582 0.0
C15 C 0.55022 0.13965 0.24191 0.0
C16 C 0.52562 0.16409 0.25161 0.0
C17 C 0.49593 0.15193 0.26469 0.0
C18 C 0.34432 0.1081 0.31627 0.0
C19 C 0.35482 0.17245 0.26747 0.0
O20 O 0.31286 0.20837 0.33017 0.0
O21 O 0.35835 0.22982 0.34928 0.0
O22 O 0.39653 0.22666 0.30372 0.0
O23 O 0.42169 0.1834 0.31905 0.0
O24 O 0.37291 0.15297 0.35729 0.0
O25 O 0.4154 0.11529 0.34146 0.0
O26 O 0.42926 0.10356 0.27382 0.0
O27 O 0.46129 0.11451 0.3058 0.0
O28 O 0.3726 0.08822 0.31474 0.0
O29 O 0.35276 0.13823 0.30814 0.0
O30 O 0.38623 0.15603 0.26942 0.0
O31 O 0.33938 0.18507 0.28754 0.0
H32 H 0.29734 0.28802 0.37095 0.0
H33 H 0.28259 0.34873 0.35766 0.0
H34 H 0.31597 0.32284 0.28428 0.0
H35 H 0.33124 0.26261 0.29786 0.0
H36 H 0.51138 0.0625 0.26197 0.0
H37 H 0.56221 0.08318 0.23803 0.0
H38 H 0.52918 0.1925 0.24899 0.0
H39 H 0.47716 0.17107 0.27195 0.0
La40 La 0.6426 0.60818 0.5749 0.0
La41 La 0.69754 0.65335 0.55396 0.0
C42 C 0.59677 0.5681 0.59476 0.0
C43 C 0.55941 0.55965 0.58818 0.0
C44 C 0.5352 0.58664 0.58157 0.0
C45 C 0.50066 0.57805 0.57387 0.0
C46 C 0.48953 0.54226 0.57243 0.0
C47 C 0.51384 0.51536 0.57923 0.0
C48 C 0.54832 0.52399 0.58704 0.0
C49 C 0.61732 0.67075 0.55798 0.0
C50 C 0.70435 0.6401 0.61029 0.0
C51 C 0.72669 0.70625 0.53359 0.0
C52 C 0.71343 0.7359 0.5188 0.0
C53 C 0.73755 0.76077 0.50935 0.0
C54 C 0.72515 0.79036 0.49646 0.0
C55 C 0.68827 0.79587 0.49306 0.0
C56 C 0.66412 0.77084 0.50284 0.0
C57 C 0.67667 0.74095 0.51549 0.0
C58 C 0.72253 0.58943 0.56645 0.0
C59 C 0.65783 0.59909 0.51806 0.0
O60 O 0.62107 0.55672 0.57957 0.0
O61 O 0.60336 0.60065 0.60192 0.0
O62 O 0.60287 0.63989 0.55507 0.0
O63 O 0.64607 0.66572 0.5697 0.0
O64 O 0.67803 0.61644 0.60755 0.0
O65 O 0.71451 0.66018 0.59167 0.0
O66 O 0.72544 0.67458 0.52378 0.0
O67 O 0.71502 0.70609 0.55603 0.0
O68 O 0.74209 0.61797 0.56477 0.0
O69 O 0.69229 0.59744 0.55849 0.0
O70 O 0.67392 0.63069 0.51986 0.0
O71 O 0.6455 0.58345 0.53825 0.0
H72 H 0.54299 0.61443 0.58209 0.0
H73 H 0.48264 0.59953 0.56914 0.0
H74 H 0.50656 0.48749 0.578 0.0
H75 H 0.5666 0.5027 0.59178 0.0
H76 H 0.76599 0.75726 0.51187 0.0
H77 H 0.74466 0.80838 0.48858 0.0
H78 H 0.63563 0.77422 0.50061 0.0
H79 H 0.65775 0.72185 0.52281 0.0
La80 La 0.22322 0.8849 0.82639 0.0
La81 La 0.17839 0.93908 0.80415 0.0
C82 C 0.26271 0.83915 0.84664 0.0
C83 C 0.27151 0.80216 0.8394 0.0
C84 C 0.24474 0.77827 0.83194 0.0
C85 C 0.25364 0.74456 0.82296 0.0
C86 C 0.28952 0.73398 0.82105 0.0
C87 C 0.31622 0.75771 0.82893 0.0
C88 C 0.30729 0.79139 0.83802 0.0
C89 C 0.16141 0.85913 0.80878 0.0
C90 C 0.18941 0.94712 0.86063 0.0
C91 C 0.12603 0.96613 0.78224 0.0
C92 C 0.10002 0.95157 0.76516 0.0
C93 C 0.07419 0.97395 0.75506 0.0
C94 C 0.04839 0.96006 0.73949 0.0
C95 C 0.04785 0.92342 0.73392 0.0
C96 C 0.07372 0.90097 0.74436 0.0
C97 C 0.09968 0.915 0.75985 0.0
C98 C 0.24173 0.96474 0.81703 0.0
C99 C 0.23429 0.89896 0.76952 0.0
O100 O 0.27472 0.86414 0.8321 0.0
O101 O 0.22977 0.84529 0.85334 0.0
O102 O 0.19242 0.84478 0.8064 0.0
O103 O 0.16595 0.88795 0.82037 0.0
O104 O 0.2133 0.92086 0.85851 0.0
O105 O 0.17006 0.95687 0.84159 0.0
O106 O 0.15889 0.96876 0.77434 0.0
O107 O 0.1243 0.9523 0.80413 0.0
O108 O 0.21305 0.98401 0.81495 0.0
O109 O 0.23413 0.93424 0.80942 0.0
O110 O 0.20239 0.91456 0.7707 0.0
O111 O 0.24942 0.88759 0.79008 0.0
H112 H 0.21688 0.78584 0.83254 0.0
H113 H 0.23241 0.72718 0.81683 0.0
H114 H 0.34409 0.75026 0.82804 0.0
H115 H 0.32841 0.80934 0.84354 0.0
H116 H 0.07408 1.0022 0.7591 0.0
H117 H 1.02952 0.97833 0.73125 0.0
H118 H 0.07402 0.87271 0.74045 0.0
H119 H 0.11947 0.89737 0.76773 0.0
La120 La 0.94279 0.46366 1.07466 0.0
La121 La 0.8876 0.41965 1.05327 0.0
C122 C 0.98921 0.50275 1.09432 0.0
C123 C 1.02612 0.51174 1.08675 0.0
C124 C 0.04975 0.48525 1.07851 0.0
C125 C 0.08352 0.49443 1.06948 0.0
C126 C 0.09437 0.5303 1.06831 0.0
C127 C 0.07086 0.55669 1.07691 0.0
C128 C 0.03713 0.54748 1.08603 0.0
C129 C 0.96726 0.40141 1.05701 0.0
C130 C 0.88054 0.43123 1.10977 0.0
C131 C 0.85871 0.36709 1.03288 0.0
C132 C 0.87243 0.33701 1.0189 0.0
C133 C 0.8514 0.30645 1.01672 0.0
C134 C 0.86459 0.27666 1.00464 0.0
C135 C 0.89911 0.27699 0.99452 0.0
C136 C 0.92053 0.30748 0.99725 0.0
C137 C 0.90734 0.33727 1.00955 0.0
C138 C 0.86303 0.48346 1.06596 0.0
C139 C 0.92834 0.47462 1.01787 0.0
O140 O 0.96402 0.51498 1.08013 0.0
O141 O 0.98313 0.46973 1.10093 0.0
O142 O 0.98211 0.43218 1.05435 0.0
O143 O 0.93869 0.40639 1.06894 0.0
O144 O 0.90718 0.45466 1.10726 0.0
O145 O 0.87031 0.41193 1.09096 0.0
O146 O 0.86096 0.39868 1.02275 0.0
O147 O 0.86897 0.36726 1.05558 0.0
O148 O 0.84322 0.45517 1.06394 0.0
O149 O 0.89336 0.47536 1.05816 0.0
O150 O 0.91174 0.44321 1.01935 0.0
O151 O 0.94054 0.48948 1.03821 0.0
H152 H 0.04197 0.45745 1.07859 0.0
H153 H 0.10075 0.47346 1.0628 0.0
H154 H 0.07852 0.58453 1.07658 0.0
H155 H 1.01937 0.56838 1.09217 0.0
H156 H 0.82465 0.30568 1.02425 0.0
H157 H 0.84714 0.25389 1.00237 0.0
H158 H 0.94716 0.30844 0.98956 0.0
H159 H 0.92422 0.36051 1.01168 0.0
La160 La 0.68116 0.94337 1.02995 0.0
La161 La 0.72143 0.88505 1.01178 0.0
C162 C 0.63795 0.98419 1.05104 0.0
C163 C 0.64152 1.01405 1.06815 0.0
C164 C 0.62878 0.04766 1.06104 0.0
C165 C 0.6324 0.07687 1.07644 0.0
C166 C 0.6484 0.07295 1.09947 0.0
C167 C 0.66206 0.0394 1.1063 0.0
C168 C 0.6588 1.01021 1.09073 0.0
C169 C 0.74692 0.96323 1.01641 0.0
C170 C 0.73474 0.90466 1.06775 0.0
C171 C 0.75812 0.83629 0.99248 0.0
C172 C 0.76628 0.79934 1.00029 0.0
C173 C 0.73918 0.77588 1.00809 0.0
C174 C 0.74765 0.74178 1.01685 0.0
C175 C 0.78337 0.73058 1.01826 0.0
C176 C 0.81036 0.754 1.01025 0.0
C177 C 0.80188 0.78796 1.0013 0.0
C178 C 0.65736 0.86438 1.02888 0.0
C179 C 0.6865 0.94069 0.97413 0.0
O180 O 0.65138 0.99036 1.02947 0.0
O181 O 0.64525 0.95196 1.05895 0.0
O182 O 0.71936 0.98387 1.01625 0.0
O183 O 0.7371 0.93463 1.0261 0.0
O184 O 0.70665 0.92602 1.06501 0.0
O185 O 0.74686 0.88691 1.04845 0.0
O186 O 0.77164 0.86142 1.00602 0.0
O187 O 0.72512 0.84323 0.98649 0.0
O188 O 0.68762 0.84939 1.03336 0.0
O189 O 0.66376 0.89207 1.01603 0.0
O190 O 0.71424 0.91941 0.97838 0.0
O191 O 0.66403 0.94689 0.9921 0.0
H192 H 0.61587 0.05131 1.04351 0.0
H193 H 0.622 0.10241 1.0705 0.0
H194 H 0.67403 1.03531 1.12408 0.0
H195 H 0.66938 0.98466 1.0965 0.0
H196 H 0.71147 0.78399 1.00781 0.0
H197 H 0.72628 0.72451 1.02308 0.0
H198 H 0.83811 0.74601 1.01083 0.0
H199 H 0.82322 0.80557 0.99547 0.0
La200 La 0.38385 0.42311 0.78025 0.0
La201 La 0.44307 0.4624 0.76224 0.0
C202 C 0.34219 0.38093 0.80186 0.0
C203 C 0.3127 0.38551 0.81931 0.0
C204 C 0.27842 0.37434 0.81253 0.0
C205 C 0.24954 0.37919 0.82821 0.0
C206 C 0.25444 0.39489 0.85119 0.0
C207 C 0.28869 0.40695 0.8577 0.0
C208 C 0.31757 0.40244 0.84186 0.0
C209 C 0.36536 0.48906 0.76645 0.0
C210 C 0.42283 0.47619 0.81819 0.0
C211 C 0.49199 0.49893 0.74251 0.0
C212 C 0.52872 0.50795 0.75013 0.0
C213 C 0.5513 0.48221 0.76064 0.0
C214 C 0.58538 0.49162 0.76882 0.0
C215 C 0.59757 0.52703 0.76686 0.0
C216 C 0.57481 0.55268 0.7563 0.0
C217 C 0.54082 0.5432 0.748 0.0
C218 C 0.46282 0.39822 0.77946 0.0
C219 C 0.38718 0.42771 0.72456 0.0
O220 O 0.33611 0.39445 0.78029 0.0
O221 O 0.37479 0.38729 0.80936 0.0
O222 O 0.34437 0.46172 0.76596 0.0
O223 O 0.39357 0.47889 0.77637 0.0
O224 O 0.39954 0.44979 0.81503 0.0
O225 O 0.44275 0.48676 0.79931 0.0
O226 O 0.46649 0.51261 0.75572 0.0
O227 O 0.48562 0.46558 0.73726 0.0
O228 O 0.47804 0.42834 0.78391 0.0
O229 O 0.43528 0.40485 0.76658 0.0
O230 O 0.40889 0.45518 0.72874 0.0
O231 O 0.38043 0.4055 0.74263 0.0
H232 H 0.27398 0.36174 0.79503 0.0
H233 H 0.22347 0.36998 0.82253 0.0
H234 H 0.29353 0.41861 0.87544 0.0
H235 H 0.34365 0.41178 0.8474 0.0
H236 H 0.54261 0.45481 0.76268 0.0
H237 H 0.60223 0.47104 0.77653 0.0
H238 H 0.58292 0.58032 0.75486 0.0
H239 H 0.52374 0.56357 0.74022 0.0
La240 La 0.90699 0.1289 0.52826 0.0
La241 La 0.86579 0.1883 0.51247 0.0
C242 C 0.95236 0.0872 0.54645 0.0
C243 C 0.95198 0.05513 0.5619 0.0
C244 C 0.97017 1.02486 0.55367 0.0
C245 C 0.9701 0.99357 0.56747 0.0
C246 C 0.95213 0.99209 0.58998 0.0
C247 C 0.9329 1.02217 0.59784 0.0
C248 C 0.93268 0.05344 0.58384 0.0
C249 C 0.84098 0.10969 0.51556 0.0
C250 C 0.85487 0.16571 0.56819 0.0
C251 C 0.82828 0.23758 0.49436 0.0
C252 C 0.82031 0.27433 0.5024 0.0
C253 C 0.8475 0.2975 0.5102 0.0
C254 C 0.83918 0.33148 0.51901 0.0
C255 C 0.80351 0.34283 0.52049 0.0
C256 C 0.77642 0.31967 0.51252 0.0
C257 C 0.78476 0.28584 0.50351 0.0
C258 C 0.93043 0.20798 0.52876 0.0
C259 C 0.89943 0.13556 0.47294 0.0
O260 O 0.93771 0.08285 0.52512 0.0
O261 O 0.94388 0.11787 0.55628 0.0
O262 O 0.86863 0.08925 0.51408 0.0
O263 O 0.85088 0.13761 0.52589 0.0
O264 O 0.88143 0.14281 0.56405 0.0
O265 O 0.84322 0.18613 0.54994 0.0
O266 O 0.81538 0.21213 0.50815 0.0
O267 O 0.86106 0.2309 0.4876 0.0
O268 O 0.90041 0.22293 0.53389 0.0
O269 O 0.92358 0.18121 0.51537 0.0
O270 O 0.87095 0.15497 0.47863 0.0
O271 O 0.92329 0.12975 0.49005 0.0
H272 H 0.98467 1.0255 0.53653 0.0
H273 H 0.98478 0.97077 0.56077 0.0
H274 H 0.91922 1.02208 0.61527 0.0
H275 H 0.9179 0.07631 0.59034 0.0
H276 H 0.87517 0.28925 0.50984 0.0
H277 H 0.86061 0.34855 0.5252 0.0
H278 H 0.74871 0.32778 0.51314 0.0
H279 H 0.76335 0.26844 0.49768 0.0
La280 La 0.19654 0.65308 0.28173 0.0
La281 La 0.14108 0.60905 0.26129 0.0
C282 C 0.22639 0.70546 0.30179 0.0
C283 C 0.21348 0.73496 0.31667 0.0
C284 C 0.23785 0.75941 0.32608 0.0
C285 C 0.22577 0.78868 0.33927 0.0
C286 C 0.18897 0.79426 0.34301 0.0
C287 C 0.16456 0.76973 0.33321 0.0
C288 C 0.17678 0.74016 0.32025 0.0
C289 C 0.22083 0.58877 0.26973 0.0
C290 C 0.1567 0.59911 0.3181 0.0
C291 C 0.0943 0.56986 0.24204 0.0
C292 C 0.05706 0.5617 0.24927 0.0
C293 C 1.03321 0.58892 0.25596 0.0
C294 C 0.99895 0.5806 0.26451 0.0
C295 C 0.98789 0.5449 0.2668 0.0
C296 C 1.01167 0.51776 0.25982 0.0
C297 C 0.04584 0.5261 0.25111 0.0
C298 C 0.11659 0.67178 0.27828 0.0
C299 C 0.20319 0.64029 0.22543 0.0
O300 O 0.22498 0.67366 0.31164 0.0
O301 O 0.2145 0.70569 0.27943 0.0
O302 O 0.24065 0.61711 0.27121 0.0
O303 O 0.19056 0.59714 0.27751 0.0
O304 O 0.1729 0.63064 0.31608 0.0
O305 O 0.14418 0.58376 0.298 0.0
O306 O 0.11891 0.55791 0.25679 0.0
O307 O 0.10108 0.60246 0.23482 0.0
O308 O 0.10207 0.64096 0.28153 0.0
O309 O 0.14508 0.66652 0.26625 0.0
O310 O 0.17634 0.61718 0.22835 0.0
O311 O 0.21387 0.65983 0.24399 0.0
H312 H 0.26625 0.75577 0.32335 0.0
H313 H 0.24547 0.80631 0.34714 0.0
H314 H 0.13611 0.77319 0.33568 0.0
H315 H 0.15767 0.72138 0.31298 0.0
H316 H 0.04116 0.61666 0.25501 0.0
H317 H 0.98146 0.60212 0.26994 0.0
H318 H 1.00384 0.49001 0.26106 0.0
H319 H 0.06375 0.50466 0.24618 0.0
La320 La 0.86907 0.68416 0.82319 0.0
La321 La 0.90914 0.62518 0.80544 0.0
C322 C 0.83222 0.73318 0.84207 0.0
C323 C 0.82314 0.76971 0.83381 0.0
C324 C 0.84925 0.79278 0.82409 0.0
C325 C 0.8398 0.82649 0.81511 0.0
C326 C 0.80402 0.83774 0.8154 0.0
C327 C 0.77803 0.81468 0.82528 0.0
C328 C 0.78752 0.78108 0.83443 0.0
C329 C 0.93327 0.70403 0.80596 0.0
C330 C 0.90392 0.62879 0.8611 0.0
C331 C 0.95186 0.58344 0.78476 0.0
C332 C 0.94788 0.5535 0.76777 0.0
C333 C 0.96039 0.51983 0.77493 0.0
C334 C 0.95631 0.49053 0.75966 0.0
C335 C 0.94007 0.49443 0.7367 0.0
C336 C 0.92662 0.52805 0.72984 0.0
C337 C 0.93033 0.55733 0.74529 0.0
C338 C 0.84302 0.60642 0.819 0.0
C339 C 0.85635 0.66419 0.76725 0.0
O340 O 0.81869 0.70734 0.82919 0.0
O341 O 0.86555 0.72704 0.84764 0.0
O342 O 0.90316 0.71928 0.8014 0.0
O343 O 0.92666 0.67662 0.81902 0.0
O344 O 0.87616 0.65003 0.85673 0.0
O345 O 0.92652 0.62264 0.84322 0.0
O346 O 0.93812 0.5777 0.8063 0.0
O347 O 0.9452 0.61572 0.77667 0.0
O348 O 0.87031 0.58544 0.81951 0.0
O349 O 0.8534 0.63455 0.80901 0.0
O350 O 0.88416 0.64253 0.77024 0.0
O351 O 0.84419 0.6823 0.78637 0.0
H352 H 0.87692 0.78463 0.8231 0.0
H353 H 0.86041 0.84344 0.80742 0.0
H354 H 0.7503 0.82268 0.82605 0.0
H355 H 0.76692 0.76376 0.84174 0.0
H356 H 0.97346 0.51619 0.7924 0.0
H357 H 0.96657 0.46495 0.76562 0.0
H358 H 0.91448 0.53214 0.71211 0.0
H359 H 0.9199 0.58292 0.7395 0.0
La360 La 0.14449 0.10972 1.07395 0.0
La361 La 0.2001 0.15374 1.05265 0.0
C362 C 0.09776 0.0705 1.09366 0.0
C363 C 0.0609 0.06145 1.08615 0.0
C364 C 0.03718 0.08789 1.0778 0.0
C365 C 1.0034 0.07864 1.06898 0.0
C366 C 0.99262 0.04274 1.06811 0.0
C367 C 1.01624 1.0164 1.07678 0.0
C368 C 0.04996 1.02569 1.08571 0.0
C369 C 0.12032 0.17233 1.05631 0.0
C370 C 0.20609 0.14218 1.10922 0.0
C371 C 0.23 0.20583 1.03175 0.0
C372 C 0.21661 0.23624 1.01776 0.0
C373 C 0.24067 0.26119 1.00834 0.0
C374 C 0.22815 0.29133 0.99613 0.0
C375 C 0.19122 0.29732 0.99339 0.0
C376 C 0.16715 0.27226 1.00322 0.0
C377 C 0.1798 0.24183 1.01518 0.0
C378 C 0.22428 0.08962 1.06559 0.0
C379 C 0.15983 0.09927 1.01722 0.0
O380 O 0.12306 0.0584 1.07954 0.0
O381 O 0.10376 0.10348 1.1001 0.0
O382 O 0.10551 0.14161 1.05348 0.0
O383 O 0.14883 0.16709 1.06822 0.0
O384 O 0.17966 0.11856 1.10669 0.0
O385 O 0.21651 0.16162 1.09037 0.0
O386 O 0.22666 0.17445 1.02175 0.0
O387 O 0.22018 0.2056 1.05458 0.0
O388 O 0.24419 0.11786 1.06349 0.0
O389 O 0.19409 0.098 1.05771 0.0
O390 O 0.17623 0.13073 1.01875 0.0
O391 O 0.14731 0.08417 1.03755 0.0
H392 H 0.04491 0.11571 1.07767 0.0
H393 H 0.98608 0.09957 1.06224 0.0
H394 H 1.00863 0.98854 1.07668 0.0
H395 H 0.06778 1.00482 1.09194 0.0
H396 H 0.26915 0.25727 1.01033 0.0
H397 H 0.24759 0.30937 0.98819 0.0
H398 H 0.13862 0.27599 1.00151 0.0
H399 H 0.16095 0.22266 1.02248 0.0
La400 La 0.71935 0.38874 0.32457 0.0
La401 La 0.67547 0.44449 0.30339 0.0
C402 C 0.75864 0.34201 0.344 0.0
C403 C 0.76782 0.30534 0.33625 0.0
C404 C 0.74148 0.28178 0.32767 0.0
C405 C 0.75082 0.24818 0.3187 0.0
C406 C 0.78673 0.23738 0.31792 0.0
C407 C 0.81298 0.26086 0.32679 0.0
C408 C 0.8036 0.29443 0.33586 0.0
C409 C 0.65667 0.36474 0.30727 0.0
C410 C 0.68723 0.45054 0.35987 0.0
C411 C 0.62343 0.47436 0.28273 0.0
C412 C 0.59402 0.46117 0.26782 0.0
C413 C 0.56944 0.48527 0.25813 0.0
C414 C 0.54019 0.47287 0.24499 0.0
C415 C 0.53477 0.43601 0.24159 0.0
C416 C 0.55944 0.41189 0.25167 0.0
C417 C 0.58898 0.42443 0.26457 0.0
C418 C 0.73987 0.4682 0.31587 0.0
C419 C 0.72927 0.4037 0.26767 0.0
O420 O 0.77078 0.36761 0.33001 0.0
O421 O 0.72557 0.34771 0.35053 0.0
O422 O 0.68734 0.34985 0.3044 0.0
O423 O 0.66198 0.39322 0.31912 0.0
O424 O 0.71056 0.42388 0.35729 0.0
O425 O 0.66794 0.46117 0.34108 0.0
O426 O 0.65534 0.47282 0.27312 0.0
O427 O 0.62296 0.46276 0.30521 0.0
O428 O 0.71173 0.48827 0.31419 0.0
O429 O 0.73123 0.43816 0.308 0.0
O430 O 0.69795 0.42032 0.26941 0.0
O431 O 0.74449 0.3912 0.2879 0.0
H432 H 0.71365 0.28948 0.3275 0.0
H433 H 0.72995 0.23101 0.31179 0.0
H434 H 0.84084 0.25325 0.32677 0.0
H435 H 0.8244 0.31212 0.34226 0.0
H436 H 0.57294 0.5137 0.26061 0.0
H437 H 0.52244 0.49235 0.2369 0.0
H438 H 0.55611 0.38341 0.24947 0.0
H439 H 0.60785 0.40553 0.27208 0.0
La440 La 0.44168 0.96206 0.57409 0.0
La441 La 0.38251 0.92219 0.55655 0.0
C442 C 0.49109 0.99871 0.59273 0.0
C443 C 0.52751 1.00777 0.5842 0.0
C444 C 0.54999 0.98182 0.57392 0.0
C445 C 0.58356 0.99126 0.56465 0.0
C446 C 0.59525 1.0269 0.56521 0.0
C447 C 0.57277 0.05272 0.57566 0.0
C448 C 0.53931 0.04323 0.58508 0.0
C449 C 0.46141 0.89811 0.5569 0.0
C450 C 0.38671 0.92671 0.61222 0.0
C451 C 0.34056 0.87966 0.5359 0.0
C452 C 0.31099 0.88363 0.51852 0.0
C453 C 0.27713 0.87108 0.52529 0.0
C454 C 0.24822 0.87498 0.50955 0.0
C455 C 0.25271 0.8911 0.48654 0.0
C456 C 0.28649 0.90464 0.48007 0.0
C457 C 0.31538 0.90109 0.49597 0.0
C458 C 0.364 0.98822 0.56997 0.0
C459 C 0.42131 0.97501 0.51814 0.0
O460 O 0.46503 1.01236 0.57999 0.0
O461 O 0.48494 0.96537 0.59837 0.0
O462 O 0.47652 0.92829 0.55222 0.0
O463 O 0.4341 0.9045 0.57002 0.0
O464 O 0.40788 0.95456 0.60777 0.0
O465 O 0.38032 0.90434 0.59433 0.0
O466 O 0.33459 0.89375 0.55722 0.0
O467 O 0.37307 0.88592 0.52808 0.0
O468 O 0.34298 0.96092 0.57065 0.0
O469 O 0.39202 0.97794 0.55993 0.0
O470 O 0.39963 0.9472 0.52125 0.0
O471 O 0.43955 0.98714 0.53721 0.0
H472 H 0.5415 0.95428 0.57273 0.0
H473 H 0.60002 0.97079 0.55652 0.0
H474 H 0.58112 0.08032 0.57666 0.0
H475 H 0.52243 0.06371 0.59281 0.0
H476 H 0.27307 0.85807 0.54279 0.0
H477 H 0.22248 0.86466 0.5152 0.0
H478 H 0.29102 0.91671 0.46232 0.0
H479 H 0.34113 0.91155 0.49047 0.0
La480 La 0.17889 0.44151 0.53292 0.0
La481 La 0.22234 0.38651 0.51122 0.0
C482 C 0.1271 0.47082 0.55418 0.0
C483 C 0.09743 0.45717 0.56881 0.0
C484 C 0.07248 0.48095 0.57831 0.0
C485 C 0.04298 0.46815 0.59116 0.0
C486 C 0.03768 0.43121 0.59447 0.0
C487 C 0.06273 0.40739 0.58459 0.0
C488 C 0.0925 0.42034 0.57196 0.0
C489 C 0.24305 0.46594 0.52014 0.0
C490 C 0.23364 0.40055 0.56803 0.0
C491 C 0.26116 0.34009 0.49127 0.0
C492 C 0.26986 0.30308 0.49874 0.0
C493 C 0.24316 0.27952 0.50702 0.0
C494 C 0.25207 0.24565 0.51595 0.0
C495 C 0.28788 0.23461 0.51698 0.0
C496 C 0.31449 0.25806 0.50834 0.0
C497 C 0.30554 0.29189 0.49931 0.0
C498 C 0.15969 0.36196 0.52882 0.0
C499 C 0.18981 0.44896 0.47635 0.0
O500 O 0.15891 0.46826 0.56374 0.0
O501 O 0.12662 0.46058 0.53148 0.0
O502 O 0.21481 0.48576 0.5222 0.0
O503 O 0.23466 0.43554 0.52777 0.0
O504 O 0.20212 0.41687 0.5667 0.0
O505 O 0.24844 0.38856 0.54757 0.0
O506 O 0.27354 0.36506 0.50545 0.0
O507 O 0.22818 0.34641 0.48483 0.0
O508 O 0.19046 0.3472 0.5316 0.0
O509 O 0.16501 0.39067 0.51702 0.0
O510 O 0.21324 0.42233 0.47867 0.0
O511 O 0.17081 0.45916 0.49536 0.0
H512 H 0.07589 0.50944 0.57589 0.0
H513 H 1.02492 0.48739 0.5991 0.0
H514 H 0.05949 0.37886 0.58675 0.0
H515 H 0.11165 0.40168 0.56458 0.0
H516 H 0.21539 0.28744 0.50705 0.0
H517 H 0.23094 0.22848 0.52267 0.0
H518 H 0.34229 0.25025 0.50856 0.0
H519 H 0.3266 0.30959 0.49314 0.0
La520 La 0.88249 0.9257 0.28026 0.0
La521 La 0.94251 0.96421 0.26271 0.0
C522 C 0.84005 0.88383 0.30148 0.0
C523 C 0.81033 0.88815 0.31876 0.0
C524 C 0.77624 0.87667 0.31178 0.0
C525 C 0.74722 0.88082 0.32743 0.0
C526 C 0.75179 0.8961 0.35058 0.0
C527 C 0.78581 0.9086 0.35726 0.0
C528 C 0.81484 0.90478 0.34145 0.0
C529 C 0.865 0.99175 0.26616 0.0
C530 C 0.92158 0.97833 0.31844 0.0
C531 C 0.99221 1.0 0.24312 0.0
C532 C 1.0283 1.00945 0.25153 0.0
C533 C 0.05347 1.02304 0.23499 0.0
C534 C 0.08784 1.03194 0.2429 0.0
C535 C 0.09768 1.02743 0.26755 0.0
C536 C 0.0723 1.01347 0.28401 0.0
C537 C 0.03799 1.00454 0.27607 0.0
C538 C 0.96097 0.89985 0.2802 0.0
C539 C 0.88707 0.92989 0.22461 0.0
O540 O 0.83433 0.89775 0.27998 0.0
O541 O 0.87258 0.88987 0.30923 0.0
O542 O 0.84378 0.96459 0.26544 0.0
O543 O 0.89291 0.98139 0.27641 0.0
O544 O 0.898 0.95222 0.31513 0.0
O545 O 0.94192 0.98865 0.29971 0.0
O546 O 0.96585 1.01409 0.25532 0.0
O547 O 0.98674 0.9662 0.23901 0.0
O548 O 0.97645 0.92977 0.28488 0.0
O549 O 0.93385 0.90681 0.26698 0.0
O550 O 0.90913 0.95703 0.22888 0.0
O551 O 0.87957 0.90793 0.24268 0.0
H552 H 0.77209 0.86427 0.29419 0.0
H553 H 0.72132 0.87128 0.32163 0.0
H554 H 0.79039 0.91998 0.37511 0.0
H555 H 0.84078 0.91434 0.34714 0.0
H556 H 0.04657 1.02674 0.21594 0.0
H557 H 0.10679 0.0421 0.22963 0.0
H558 H 0.07871 1.01004 0.30315 0.0
H559 H 1.01893 0.99399 0.28913 0.0
La560 La 0.40601 0.62915 1.02802 0.0
La561 La 0.36501 0.68786 1.01101 0.0
C562 C 0.44944 0.58761 1.04838 0.0
C563 C 0.44589 0.55791 1.06583 0.0
C564 C 0.45886 0.52429 1.05919 0.0
C565 C 0.45504 0.4952 1.07491 0.0
C566 C 0.43856 0.49927 1.09779 0.0
C567 C 0.42468 0.53283 1.10414 0.0
C568 C 0.42815 0.56189 1.08825 0.0
C569 C 0.33993 0.60966 1.01534 0.0
C570 C 0.35327 0.66689 1.06694 0.0
C571 C 0.32785 0.73682 0.99193 0.0
C572 C 0.3189 0.77306 1.00022 0.0
C573 C 0.30459 0.79802 0.98385 0.0
C574 C 0.29611 0.83247 0.9917 0.0
C575 C 0.30181 0.84263 1.01613 0.0
C576 C 0.31646 0.81747 1.03242 0.0
C577 C 0.32494 0.78308 1.02453 0.0
C578 C 0.42931 0.70813 1.0276 0.0
C579 C 0.39971 0.63396 0.97251 0.0
O580 O 0.43499 0.58165 1.02715 0.0
O581 O 0.44308 0.61998 1.05618 0.0
O582 O 0.36755 0.58916 1.01427 0.0
O583 O 0.34994 0.63783 1.02526 0.0
O584 O 0.38123 0.64552 1.06356 0.0
O585 O 0.34063 0.6853 1.04801 0.0
O586 O 0.31463 0.71074 1.00499 0.0
O587 O 0.36136 0.73133 0.98665 0.0
O588 O 0.39908 0.72277 1.03263 0.0
O589 O 0.42283 0.68102 1.01441 0.0
O590 O 0.37124 0.65376 0.97764 0.0
O591 O 0.42314 0.62829 0.98996 0.0
H592 H 0.47206 0.52054 1.04177 0.0
H593 H 0.46563 0.46965 1.06934 0.0
H594 H 0.41235 0.53706 1.12178 0.0
H595 H 0.41735 0.58743 1.09364 0.0
H596 H 0.29998 0.79086 0.96498 0.0
H597 H 0.28537 0.85125 0.97856 0.0
H598 H 0.32079 0.82411 1.0514 0.0
H599 H 0.33602 0.7642 1.03749 0.0
La600 La 0.69932 0.1485 0.7795 0.0
La601 La 0.64189 0.10754 0.76115 0.0
C602 C 0.73797 0.19056 0.80315 0.0
C603 C 0.76352 0.18421 0.82312 0.0
C604 C 0.79265 0.1609 0.82014 0.0
C605 C 0.81634 0.15475 0.83933 0.0
C606 C 0.81103 0.17135 0.86191 0.0
C607 C 0.78171 0.1943 0.86494 0.0
C608 C 0.75825 0.20076 0.84569 0.0
C609 C 0.72031 0.08333 0.76644 0.0
C610 C 0.66035 0.0938 0.81709 0.0
C611 C 0.59372 0.07076 0.74111 0.0
C612 C 0.55737 0.06162 0.74934 0.0
C613 C 0.54713 0.0676 0.77365 0.0
C614 C 0.51264 0.05917 0.78156 0.0
C615 C 0.48759 0.0446 0.76531 0.0
C616 C 0.49797 0.03888 0.74089 0.0
C617 C 0.53255 0.04735 0.73299 0.0
C618 C 0.62038 0.17126 0.77791 0.0
C619 C 0.69789 0.14302 0.72379 0.0
O620 O 0.74679 0.17754 0.78191 0.0
O621 O 0.70427 0.18508 0.80832 0.0
O622 O 0.74048 0.1113 0.76593 0.0
O623 O 0.69147 0.09245 0.77604 0.0
O624 O 0.68182 0.12186 0.81432 0.0
O625 O 0.64276 0.08174 0.79775 0.0
O626 O 0.61961 0.05723 0.75408 0.0
O627 O 0.59929 0.10442 0.73625 0.0
O628 O 0.6059 0.14078 0.78263 0.0
O629 O 0.6481 0.16532 0.76507 0.0
O630 O 0.67731 0.11479 0.72837 0.0
O631 O 0.70345 0.166 0.74151 0.0
H632 H 0.79725 0.14738 0.803 0.0
H633 H 0.83874 0.13699 0.83657 0.0
H634 H 0.77739 0.20797 0.88206 0.0
H635 H 0.73601 0.21873 0.84841 0.0
H636 H 0.56592 0.07859 0.78659 0.0
H637 H 0.50582 0.06346 0.80053 0.0
H638 H 0.47927 1.02812 0.7278 0.0
H639 H 0.53989 0.04279 0.71413 0.0
H640 H 0.43615 0.28135 0.29268 0.0
H641 H 0.49636 0.19155 0.31944 0.0
H642 H 0.48994 0.31801 0.29264 0.0
H643 H 0.55068 0.22834 0.31931 0.0
H644 H 0.64808 0.29509 0.29378 0.0
H645 H 0.5943 0.25846 0.29354 0.0
H646 H 0.53282 0.34829 0.31861 0.0
H647 H 0.58715 0.38507 0.31896 0.0
C648 C 0.46093 0.26925 0.29854 0.0
C649 C 0.4615 0.23319 0.30611 0.0
C650 C 0.49199 0.29056 0.29869 0.0
C651 C 0.5252 0.27667 0.30612 0.0
C652 C 0.52593 0.24032 0.3133 0.0
C653 C 0.49463 0.21906 0.31346 0.0
C654 C 0.62314 0.30724 0.29925 0.0
C655 C 0.62236 0.34336 0.30641 0.0
C656 C 0.59208 0.28594 0.29928 0.0
C657 C 0.55866 0.29988 0.30619 0.0
C658 C 0.55774 0.33627 0.313 0.0
C659 C 0.58905 0.35753 0.31328 0.0
H660 H 0.6371 0.74069 0.56874 0.0
H661 H 0.54667 0.67798 0.54628 0.0
H662 H 0.59949 0.79437 0.56858 0.0
H663 H 0.50919 0.7311 0.54638 0.0
H664 H 0.4424 0.82921 0.57186 0.0
H665 H 0.47984 0.77531 0.57232 0.0
H666 H 0.56741 0.83582 0.54206 0.0
H667 H 0.53024 0.88903 0.54147 0.0
C668 C 0.60928 0.73825 0.56373 0.0
C669 C 0.59527 0.70464 0.55748 0.0
C670 C 0.58753 0.76918 0.56357 0.0
C671 C 0.55079 0.76758 0.55759 0.0
C672 C 0.53696 0.73384 0.55144 0.0
C673 C 0.55875 0.70317 0.55122 0.0
C674 C 0.46956 0.83096 0.56519 0.0
C675 C 0.48293 0.86386 0.55661 0.0
C676 C 0.4912 0.79991 0.5654 0.0
C677 C 0.52718 0.80073 0.55736 0.0
C678 C 0.54031 0.83372 0.54878 0.0
C679 C 0.51864 0.86445 0.54826 0.0
H680 H 0.0909 0.87965 0.81687 0.0
H681 H 0.15462 0.78808 0.79849 0.0
H682 H 0.03703 0.84223 0.81621 0.0
H683 H 0.10128 0.75082 0.79792 0.0
H684 H 1.00144 0.68526 0.82213 0.0
H685 H 0.05548 0.72254 0.82287 0.0
H686 H 0.99679 0.80923 0.79009 0.0
H687 H 0.94337 0.77222 0.78934 0.0
C688 C 0.09352 0.85161 0.81265 0.0
C689 C 0.12747 0.83719 0.80777 0.0
C690 C 0.06247 0.82996 0.81217 0.0
C691 C 0.06426 0.79297 0.80714 0.0
C692 C 0.09834 0.77879 0.80225 0.0
C693 C 0.12916 0.80044 0.8024 0.0
C694 C 1.00013 0.71218 0.81495 0.0
C695 C 0.96766 0.72537 0.80565 0.0
C696 C 1.03127 0.73374 0.81532 0.0
C697 C 1.031 0.76944 0.80668 0.0
C698 C 0.99846 0.78236 0.79731 0.0
C699 C 0.96762 0.76078 0.7967 0.0
H700 H 0.13989 0.24127 1.06957 0.0
H701 H 0.05124 0.18128 1.04122 0.0
H702 H 0.10301 0.29535 1.0694 0.0
H703 H 1.01448 0.23491 1.04101 0.0
H704 H 0.94592 0.33139 1.06638 0.0
H705 H 0.98264 0.27712 1.06594 0.0
H706 H 0.07421 0.3397 1.04444 0.0
H707 H 0.0377 0.39342 1.04496 0.0
C708 C 0.11262 0.23955 1.06319 0.0
C709 C 0.09885 0.20654 1.05541 0.0
C710 C 0.09129 0.27074 1.063 0.0
C711 C 0.05521 0.27006 1.05531 0.0
C712 C 0.04168 0.23695 1.04745 0.0
C713 C 0.06306 0.20598 1.0474 0.0
C714 C 0.97385 0.33353 1.06151 0.0
C715 C 0.98858 0.36716 1.05582 0.0
C716 C 0.99509 0.30226 1.06114 0.0
C717 C 1.03195 0.30347 1.05534 0.0
C718 C 0.04636 0.33719 1.04945 0.0
C719 C 1.02514 0.36824 1.04956 0.0
H720 H 0.58785 0.88416 1.0161 0.0
H721 H 0.64902 0.79395 1.04117 0.0
H722 H 0.53396 0.84656 1.01532 0.0
H723 H 0.59582 0.75661 1.04015 0.0
H724 H 0.49863 0.68931 1.01359 0.0
H725 H 0.55256 0.7269 1.01344 0.0
H726 H 0.49117 0.81476 1.04156 0.0
H727 H 0.43795 0.77741 1.04195 0.0
C728 C 0.58993 0.85642 1.02149 0.0
C729 C 0.6232 0.8425 1.02876 0.0
C730 C 0.55888 0.83467 1.0211 0.0
C731 C 0.56002 0.79802 1.02756 0.0
C732 C 0.59342 0.78428 1.0347 0.0
C733 C 0.62416 0.80604 1.03546 0.0
C734 C 0.49667 0.71658 1.01983 0.0
C735 C 0.46352 0.72993 1.02781 0.0
C736 C 0.52774 0.73832 1.0198 0.0
C737 C 0.52674 0.77441 1.02737 0.0
C738 C 0.49346 0.78756 1.03524 0.0
C739 C 0.46271 0.76579 1.03563 0.0
H740 H 0.55035 0.17888 0.79127 0.0
H741 H 0.63921 0.24109 0.76483 0.0
H742 H 0.51261 0.23175 0.79092 0.0
H743 H 0.60123 0.29463 0.76472 0.0
H744 H 0.5328 0.38973 0.7925 0.0
H745 H 0.57033 0.33683 0.79139 0.0
H746 H 0.48139 0.27521 0.76498 0.0
H747 H 0.44356 0.32887 0.76585 0.0
C748 C 0.56205 0.2039 0.78538 0.0
C749 C 0.59825 0.20523 0.77809 0.0
C750 C 0.54006 0.23445 0.78501 0.0
C751 C 0.5533 0.26805 0.7777 0.0
C752 C 0.58971 0.26956 0.77065 0.0
C753 C 0.61168 0.2387 0.77065 0.0
C754 C 0.52095 0.36499 0.78642 0.0
C755 C 0.4847 0.36408 0.7793 0.0
C756 C 0.54284 0.33441 0.7856 0.0
C757 C 0.52948 0.30116 0.77798 0.0
C758 C 0.49301 0.30001 0.77113 0.0
C759 C 0.47112 0.33094 0.77158 0.0
H760 H 0.08985 0.38264 0.51835 0.0
H761 H 0.15173 0.29106 0.53997 0.0
H762 H 1.03572 0.34555 0.51818 0.0
H763 H 0.09814 0.25409 0.53956 0.0
H764 H 0.99909 0.18891 0.51359 0.0
H765 H 0.05342 0.22587 0.51345 0.0
H766 H 0.99391 0.3131 0.54427 0.0
H767 H 0.94026 0.2764 0.54454 0.0
C768 C 0.09201 0.35467 0.52311 0.0
C769 C 0.12554 0.34019 0.52921 0.0
C770 C 0.06081 0.33321 0.52308 0.0
C771 C 0.06202 0.2963 0.52873 0.0
C772 C 0.09567 0.28201 0.53475 0.0
C773 C 0.12663 0.3035 0.53516 0.0
C774 C 0.99764 0.2159 0.52044 0.0
C775 C 0.96489 0.2293 0.5291 0.0
C776 C 1.02895 0.23726 0.52042 0.0
C777 C 1.02857 0.27301 0.52873 0.0
C778 C 0.9957 0.28618 0.53736 0.0
C779 C 0.96471 0.26478 0.53768 0.0
H780 H 0.13648 0.74203 0.26761 0.0
H781 H 0.04577 0.67895 0.28973 0.0
H782 H 0.09893 0.79579 0.26795 0.0
H783 H 1.00836 0.73212 0.28975 0.0
H784 H 0.94188 0.83131 0.26476 0.0
H785 H 0.97918 0.77729 0.26401 0.0
H786 H 0.06665 0.8366 0.29479 0.0
H787 H 1.02961 0.88988 0.29575 0.0
C788 C 0.10861 0.73951 0.27256 0.0
C789 C 0.09454 0.70574 0.2787 0.0
C790 C 0.08688 0.77049 0.27283 0.0
C791 C 0.05007 0.76884 0.27877 0.0
C792 C 1.03617 0.73495 0.28474 0.0
C793 C 0.05794 0.70422 0.28489 0.0
C794 C 0.96897 0.83278 0.2715 0.0
C795 C 0.98233 0.8654 0.28033 0.0
C796 C 0.99056 0.80165 0.27111 0.0
C797 C 1.0265 0.80208 0.27918 0.0
C798 C 0.0396 0.83478 0.28803 0.0
C799 C 1.01799 0.86556 0.28874 0.0
H800 H 0.61807 0.11307 0.23874 0.0
H801 H 0.54896 0.19343 0.20771 0.0
H802 H 0.65495 0.11515 0.20256 0.0
H803 H 0.58777 0.19791 0.17232 0.0
H804 H 0.59285 0.11789 1.10738 0.0
H805 H 0.58265 0.15403 1.14265 0.0
H806 H 0.68927 0.13115 0.16848 0.0
H807 H 0.69933 0.09397 1.13263 0.0
C808 C 0.61152 0.1322 0.22455 0.0
C809 C 0.57943 0.15145 0.22541 0.0
C810 C 0.63315 0.13393 0.20386 0.0
C811 C 0.62327 0.15542 0.18386 0.0
C812 C 0.59517 0.17985 0.18695 0.0
C813 C 0.57302 0.1775 0.20742 0.0
C814 C 0.61476 0.12158 1.11998 0.0
C815 C 0.64656 0.10222 1.11752 0.0
C816 C 0.60898 0.14271 1.14038 0.0
C817 C 0.63484 0.14495 1.15891 0.0
C818 C 0.6684 0.12921 1.15491 0.0
C819 C 0.67413 0.1078 1.13444 0.0
H820 H 0.63346 0.79536 0.45983 0.0
H821 H 0.71475 0.86385 0.48999 0.0
H822 H 0.62791 0.83504 0.42493 0.0
H823 H 0.71172 0.90152 0.45418 0.0
H824 H 0.73225 0.94664 0.38435 0.0
H825 H 0.69562 0.93632 0.42065 0.0
H826 H 0.67023 0.83078 0.39423 0.0
H827 H 0.70571 0.84133 0.35848 0.0
C828 C 0.64942 0.81943 0.45945 0.0
C829 C 0.67603 0.82543 0.47701 0.0
C830 C 0.64646 0.84208 0.43925 0.0
C831 C 0.67088 0.87024 0.43592 0.0
C832 C 0.69295 0.87967 0.45562 0.0
C833 C 0.69524 0.85757 0.47609 0.0
C834 C 0.71795 0.92165 0.38614 0.0
C835 C 0.72267 0.89443 0.3689 0.0
C836 C 0.69687 0.91576 0.40688 0.0
C837 C 0.68069 0.88234 0.41087 0.0
C838 C 0.68196 0.85698 0.39203 0.0
C839 C 0.70271 0.86295 0.37134 0.0
H840 H 0.0609 0.87557 0.69733 0.0
H841 H 0.9776 0.94091 0.72815 0.0
H842 H 1.02684 0.87011 0.65983 0.0
H843 H 0.94494 0.93788 0.69023 0.0
H844 H 0.9029 0.95899 0.61981 0.0
H845 H 0.91625 0.91974 0.65435 0.0
H846 H 1.0271 0.91779 0.63222 0.0
H847 H 1.01371 0.95591 0.59814 0.0
C848 C 1.03478 0.88781 0.69645 0.0
C849 C 1.02264 0.91012 0.71523 0.0
C850 C 1.01534 0.88491 0.67483 0.0
C851 C 0.98406 0.90506 0.67148 0.0
C852 C 0.9692 0.92242 0.6918 0.0
C853 C 0.98827 0.92473 0.71354 0.0
C854 C 0.92989 0.94926 0.62209 0.0
C855 C 0.95743 0.96133 0.60667 0.0
C856 C 0.93753 0.92668 0.64179 0.0
C857 C 0.97292 0.91628 0.64656 0.0
C858 C 0.99946 0.92489 0.62929 0.0
C859 C 0.9918 0.94716 0.60962 0.0
H860 H 0.89326 0.20504 1.00247 0.0
H861 H 0.92805 0.28292 0.94921 0.0
H862 H 0.88751 0.16071 0.97025 0.0
H863 H 0.92188 0.23934 0.9172 0.0
H864 H 0.88362 0.1763 0.85927 0.0
H865 H 0.92415 0.18546 0.89356 0.0
H866 H 0.83673 0.16695 0.94372 0.0
H867 H 0.79698 0.15694 0.90963 0.0
C868 C 0.90106 0.21223 0.98403 0.0
C869 C 0.90978 0.24768 0.97811 0.0
C870 C 0.89781 0.18688 0.96559 0.0
C871 C 0.90279 0.19689 0.94105 0.0
C872 C 0.91748 0.23064 0.93584 0.0
C873 C 0.92094 0.25588 0.95428 0.0
C874 C 0.87356 0.17277 0.87768 0.0
C875 C 0.83703 0.16701 0.88193 0.0
C876 C 0.89673 0.17807 0.8973 0.0
C877 C 0.88359 0.1778 0.92137 0.0
C878 C 0.84798 0.16738 0.92549 0.0
C879 C 0.82492 0.16215 0.90594 0.0
H880 H 0.20707 0.34136 0.85958 0.0
H881 H 0.23612 0.44647 0.88456 0.0
H882 H 0.17144 0.33226 0.89542 0.0
H883 H 0.1994 0.4376 0.92099 0.0
H884 H 0.21836 0.36508 0.99041 0.0
H885 H 0.2151 0.40289 0.95469 0.0
H886 H 0.12951 0.3379 0.92629 0.0
H887 H 0.13524 0.29803 0.96106 0.0
C888 C 0.20461 0.36327 0.87226 0.0
C889 C 0.22532 0.39422 0.86955 0.0
C890 C 0.18377 0.35815 0.893 0.0
C891 C 0.18318 0.38383 0.91165 0.0
C892 C 0.20011 0.4168 0.90737 0.0
C893 C 0.22125 0.42185 0.88656 0.0
C894 C 0.19839 0.35919 0.97674 0.0
C895 C 0.17876 0.3273 0.97779 0.0
C896 C 0.19598 0.38137 0.95632 0.0
C897 C 0.17337 0.37228 0.93683 0.0
C898 C 0.14849 0.34462 0.94043 0.0
C899 C 0.15156 0.32185 0.96057 0.0
H900 H 0.23265 0.94225 0.453 0.0
H901 H 0.20772 0.83573 0.47815 0.0
H902 H 0.19643 0.93242 0.41661 0.0
H903 H 0.17252 0.82574 0.44234 0.0
H904 H 0.13461 0.79264 0.3767 0.0
H905 H 0.1295 0.83103 0.41201 0.0
H906 H 0.21318 0.8984 0.38283 0.0
H907 H 0.21585 0.86199 0.34664 0.0
C908 C 0.21878 0.91709 0.45105 0.0
C909 C 0.22383 0.88944 0.46812 0.0
C910 C 0.19793 0.91149 0.43026 0.0
C911 C 0.18221 0.87798 0.42609 0.0
C912 C 0.18386 0.85204 0.44473 0.0
C913 C 0.20443 0.8577 0.46544 0.0
C914 C 0.15063 0.81665 0.37718 0.0
C915 C 0.17707 0.82324 0.35948 0.0
C916 C 0.14792 0.83856 0.39762 0.0
C917 C 0.17237 0.86658 0.40101 0.0
C918 C 0.19436 0.87663 0.38129 0.0
C919 C 0.19643 0.85527 0.3606 0.0
H920 H 0.03911 0.37624 0.62778 0.0
H921 H 0.96947 0.45691 0.59772 0.0
H922 H 1.00013 0.37031 0.66298 0.0
H923 H 0.93242 0.45343 0.63376 0.0
H924 H 0.8887 0.47365 0.70378 0.0
H925 H 0.89841 0.43679 0.66775 0.0
H926 H 1.00508 0.41323 0.69321 0.0
H927 H 0.99521 0.44904 0.72866 0.0
C928 C 1.0149 0.39194 0.62823 0.0
C929 C 1.0084 0.41852 0.61062 0.0
C930 C 0.99265 0.38875 0.6486 0.0
C931 C 0.96438 0.4129 0.65199 0.0
C932 C 0.95439 0.43487 0.63225 0.0
C933 C 0.97611 0.43741 0.61164 0.0
C934 C 0.91383 0.45972 0.70186 0.0
C935 C 0.94154 0.46509 0.7187 0.0
C936 C 0.91936 0.43848 0.68128 0.0
C937 C 0.95287 0.42274 0.67708 0.0
C938 C 0.9788 0.42461 0.6956 0.0
C939 C 0.97321 0.44555 0.71611 0.0
H940 H 0.46685 0.4623 0.23761 0.0
H941 H 0.53664 0.38142 0.2084 0.0
H942 H 0.43046 0.45917 0.20135 0.0
H943 H 0.49831 0.37588 0.17299 0.0
H944 H 0.494 0.45445 1.10659 0.0
H945 H 0.50373 0.41903 1.1425 0.0
H946 H 0.39667 0.44215 1.16744 0.0
H947 H 0.38706 0.47856 1.13092 0.0
C948 C 0.47367 0.44285 0.22383 0.0
C949 C 0.50582 0.42375 0.22518 0.0
C950 C 0.45232 0.44051 0.2031 0.0
C951 C 0.46253 0.41853 0.18356 0.0
C952 C 0.49066 0.39429 0.18723 0.0
C953 C 0.51254 0.39726 0.20772 0.0
C954 C 0.4719 0.45093 1.11913 0.0
C955 C 0.44011 0.4702 1.11621 0.0
C956 C 0.4774 0.43022 1.13991 0.0
C957 C 0.45128 0.42832 1.15837 0.0
C958 C 0.41774 0.44386 1.15393 0.0
C959 C 0.41227 0.46483 1.13308 0.0
H960 H 0.2399 0.38055 0.3331 0.0
H961 H 0.33407 0.38444 0.28757 0.0
H962 H 0.22339 0.43995 0.31917 0.0
H963 H 0.31672 0.44353 0.27287 0.0
H964 H 0.29033 0.56591 0.27448 0.0
H965 H 0.31027 0.50581 0.28581 0.0
H966 H 0.20132 0.46854 0.28267 0.0
H967 H 0.18163 0.52825 0.27182 0.0
C968 C 0.2572 0.39408 0.32017 0.0
C969 C 0.28832 0.37752 0.31148 0.0
C970 C 0.24746 0.42805 0.31191 0.0
C971 C 0.26851 0.44648 0.29466 0.0
C972 C 0.29993 0.4302 0.2862 0.0
C973 C 0.30967 0.39613 0.29446 0.0
C974 C 0.27082 0.54467 0.27581 0.0
C975 C 0.23438 0.55185 0.27241 0.0
C976 C 0.2822 0.51024 0.28233 0.0
C977 C 0.25733 0.48239 0.28558 0.0
C978 C 0.22114 0.48943 0.28093 0.0
C979 C 0.20986 0.52365 0.27445 0.0
H980 H 0.45043 0.57449 0.53592 0.0
H981 H 0.44537 0.48896 0.58902 0.0
H982 H 0.39125 0.55807 0.52107 0.0
H983 H 0.38679 0.47223 0.57378 0.0
H984 H 0.30317 0.42648 0.52394 0.0
H985 H 0.36249 0.44627 0.53556 0.0
H986 H 0.32643 0.55554 0.53477 0.0
H987 H 0.26644 0.53549 0.52314 0.0
C988 C 0.43668 0.55241 0.5446 0.0
C989 C 0.45297 0.53294 0.56363 0.0
C990 C 0.40277 0.54296 0.536 0.0
C991 C 0.38448 0.51364 0.54606 0.0
C992 C 0.40049 0.49453 0.56529 0.0
C993 C 0.43418 0.5041 0.574 0.0
C994 C 0.30791 0.45478 0.5259 0.0
C995 C 0.28001 0.47939 0.52281 0.0
C996 C 0.34189 0.4661 0.53276 0.0
C997 C 0.34904 0.50241 0.53651 0.0
C998 C 0.32172 0.52735 0.53203 0.0
C999 C 0.28742 0.51592 0.52533 0.0
H1000 H 0.34351 0.71876 0.78901 0.0
H1001 H 0.25696 0.66926 0.82881 0.0
H1002 H 0.3599 0.66108 0.77213 0.0
H1003 H 0.27355 0.61142 0.81211 0.0
H1004 H 0.40598 0.54738 0.77474 0.0
H1005 H 0.38639 0.60677 0.78591 0.0
H1006 H 0.27666 0.5748 0.77575 0.0
H1007 H 0.29656 0.51463 0.76505 0.0
C1008 C 0.32811 0.69552 0.79431 0.0
C1009 C 0.29909 0.69868 0.81045 0.0
C1010 C 0.33747 0.66239 0.78457 0.0
C1011 C 0.31815 0.63143 0.79077 0.0
C1012 C 0.28872 0.63469 0.8066 0.0
C1013 C 0.27928 0.66788 0.81628 0.0
C1014 C 0.37768 0.55315 0.77447 0.0
C1015 C 0.35282 0.52629 0.76905 0.0
C1016 C 0.3664 0.58734 0.78082 0.0
C1017 C 0.32988 0.59571 0.78188 0.0
C1018 C 0.30498 0.56917 0.77548 0.0
C1019 C 0.31635 0.53481 0.76908 0.0
H1020 H 0.1589 0.49716 1.07523 0.0
H1021 H 0.11007 0.58574 1.03737 0.0
H1022 H 0.21704 0.51464 1.05898 0.0
H1023 H 0.16803 0.60302 1.02093 0.0
H1024 H 0.28144 0.64935 1.02497 0.0
H1025 H 0.222 0.62884 1.0357 0.0
H1026 H 0.25439 0.52001 1.0228 0.0
H1027 H 0.31468 0.54083 1.01258 0.0
C1028 C 0.16049 0.52011 1.06319 0.0
C1029 C 0.12981 0.54024 1.05782 0.0
C1030 C 0.19385 0.53007 1.05378 0.0
C1031 C 0.19738 0.56036 1.03868 0.0
C1032 C 0.16651 0.57994 1.03285 0.0
C1033 C 0.13322 0.57007 1.04232 0.0
C1034 C 0.27579 0.62107 1.02404 0.0
C1035 C 0.30278 0.59671 1.01797 0.0
C1036 C 0.24156 0.60927 1.03012 0.0
C1037 C 0.23326 0.5727 1.03022 0.0
C1038 C 0.25996 0.54833 1.02325 0.0
C1039 C 0.29439 0.56023 1.01714 0.0
H1040 H 0.79337 0.50645 1.06632 0.0
H1041 H 0.90199 0.54386 1.06077 0.0
H1042 H 0.77191 0.56693 1.05768 0.0
H1043 H 0.88097 0.60342 1.05136 0.0
H1044 H 0.83601 0.71386 1.05079 0.0
H1045 H 0.85272 0.65519 1.06622 0.0
H1046 H 0.76856 0.60747 1.02357 0.0
H1047 H 0.75138 0.66642 1.00862 0.0
C1048 C 0.81262 0.52765 1.06355 0.0
C1049 C 0.84935 0.52039 1.06416 0.0
C1050 C 0.80038 0.56222 1.05834 0.0
C1051 C 0.82466 0.59018 1.05366 0.0
C1052 C 0.86138 0.5829 1.05519 0.0
C1053 C 0.87351 0.54856 1.06048 0.0
C1054 C 0.8211 0.69082 1.04471 0.0
C1055 C 0.79259 0.69478 1.0283 0.0
C1056 C 0.83067 0.65713 1.05354 0.0
C1057 C 0.81221 0.62639 1.04604 0.0
C1058 C 0.78311 0.63048 1.03005 0.0
C1059 C 0.77334 0.66429 1.02136 0.0
H1060 H 0.64471 0.57452 0.74634 0.0
H1061 H 0.6327 0.50277 0.80784 0.0
H1062 H 0.70275 0.59287 0.76163 0.0
H1063 H 0.69137 0.52073 0.82283 0.0
H1064 H 0.81677 0.53802 0.82275 0.0
H1065 H 0.7568 0.5177 0.81136 0.0
H1066 H 0.72587 0.62668 0.79708 0.0
H1067 H 0.78524 0.64678 0.80839 0.0
C1068 C 0.65425 0.5628 0.76322 0.0
C1069 C 0.63371 0.53732 0.7759 0.0
C1070 C 0.68763 0.5733 0.77196 0.0
C1071 C 0.70155 0.55846 0.79357 0.0
C1072 C 0.68147 0.53247 0.80605 0.0
C1073 C 0.64788 0.52213 0.79739 0.0
C1074 C 0.79688 0.55759 0.81762 0.0
C1075 C 0.80577 0.59395 0.81629 0.0
C1076 C 0.7626 0.54599 0.81107 0.0
C1077 C 0.73678 0.57056 0.80293 0.0
C1078 C 0.74533 0.60702 0.80279 0.0
C1079 C 0.77931 0.61856 0.80947 0.0
H1080 H 0.75087 0.35932 0.55306 0.0
H1081 H 0.83574 0.40701 0.51068 0.0
H1082 H 0.73396 0.41791 0.56813 0.0
H1083 H 0.81839 0.46591 0.52528 0.0
H1084 H 0.79237 0.5669 0.56727 0.0
H1085 H 0.81436 0.50655 0.55917 0.0
H1086 H 0.70562 0.46943 0.55247 0.0
H1087 H 0.68409 0.52887 0.56128 0.0
C1088 C 0.76581 0.3824 0.54687 0.0
C1089 C 0.7944 0.37854 0.53047 0.0
C1090 C 0.75613 0.41604 0.5555 0.0
C1091 C 0.77456 0.44684 0.54779 0.0
C1092 C 0.80383 0.44284 0.53189 0.0
C1093 C 0.8137 0.40907 0.52341 0.0
C1094 C 0.77331 0.54559 0.56451 0.0
C1095 C 0.73652 0.55263 0.56486 0.0
C1096 C 0.78585 0.5111 0.55963 0.0
C1097 C 0.76181 0.483 0.55503 0.0
C1098 C 0.72502 0.49007 0.55627 0.0
C1099 C 0.7126 0.52433 0.5612 0.0
H1100 H 0.7638 0.53763 0.31527 0.0
H1101 H 0.79974 0.42862 0.31087 0.0
H1102 H 0.82447 0.55828 0.30605 0.0
H1103 H 0.8595 0.44883 0.30102 0.0
H1104 H 0.97067 0.49301 0.30007 0.0
H1105 H 0.91184 0.47699 0.31562 0.0
H1106 H 0.86469 0.56032 0.27153 0.0
H1107 H 0.92376 0.5767 0.25632 0.0
C1108 C 0.78472 0.51813 0.31265 0.0
C1109 C 0.77698 0.48151 0.31377 0.0
C1110 C 0.8194 0.5299 0.30712 0.0
C1111 C 0.847 0.50526 0.30264 0.0
C1112 C 0.83926 0.46868 0.30467 0.0
C1113 C 0.80481 0.45701 0.31024 0.0
C1114 C 0.94773 0.50785 0.29364 0.0
C1115 C 0.95192 0.53592 0.27677 0.0
C1116 C 0.91394 0.4987 0.30258 0.0
C1117 C 0.88332 0.51717 0.29475 0.0
C1118 C 0.88762 0.54578 0.27826 0.0
C1119 C 0.92151 0.55509 0.26944 0.0
H1120 H 0.74723 0.85356 0.78602 0.0
H1121 H 0.83758 0.9021 0.82158 0.0
H1122 H 0.72888 0.91167 0.7705 0.0
H1123 H 0.81891 0.9605 0.80645 0.0
H1124 H 0.78942 0.05937 0.76244 0.0
H1125 H 0.81135 0.99918 0.7715 0.0
H1126 H 0.70328 0.96467 0.78599 0.0
H1127 H 0.68165 1.02397 0.77623 0.0
C1128 C 0.76307 0.87671 0.79065 0.0
C1129 C 0.79369 0.8732 0.80524 0.0
C1130 C 0.75256 0.9101 0.78174 0.0
C1131 C 0.77222 0.94099 0.78732 0.0
C1132 C 0.80334 0.93733 0.80146 0.0
C1133 C 0.81399 0.90384 0.81025 0.0
C1134 C 0.77042 0.03865 0.76711 0.0
C1135 C 0.73384 0.04638 0.76864 0.0
C1136 C 0.78296 1.00426 0.77256 0.0
C1137 C 0.75915 0.97695 0.77962 0.0
C1138 C 0.72245 0.98467 0.7803 0.0
C1139 C 0.71 1.01884 0.7748 0.0
H1140 H 0.80567 0.92343 1.0255 0.0
H1141 H 0.77199 1.03214 1.01379 0.0
H1142 H 0.86507 0.94389 1.03609 0.0
H1143 H 0.83223 0.05291 1.02375 0.0
H1144 H 0.92801 0.07555 1.07528 0.0
H1145 H 0.86981 0.05794 1.05946 0.0
H1146 H 0.91894 0.97006 1.02145 0.0
H1147 H 0.97692 0.98744 1.03752 0.0
C1148 C 0.81121 0.95175 1.02469 0.0
C1149 C 0.78409 0.97617 1.01888 0.0
C1150 C 0.84543 0.96353 1.03068 0.0
C1151 C 0.85361 1.00013 1.03089 0.0
C1152 C 0.82678 1.02456 1.02414 0.0
C1153 C 0.79237 1.01269 1.01816 0.0
C1154 C 0.92642 0.05267 1.06336 0.0
C1155 C 0.95714 1.03272 1.05788 0.0
C1156 C 0.89302 0.04263 1.05419 0.0
C1157 C 0.8895 1.01245 1.03921 0.0
C1158 C 0.92042 0.99304 1.03329 0.0
C1159 C 0.95373 1.00298 1.04254 0.0
H1160 H 0.79662 1.01783 0.2625 0.0
H1161 H 0.90539 0.0498 0.27598 0.0
H1162 H 0.77635 0.07814 0.27243 0.0
H1163 H 0.88538 0.10938 0.28641 0.0
H1164 H 0.84298 0.22172 0.28782 0.0
H1165 H 0.86033 0.16386 0.27167 0.0
H1166 H 0.77066 0.11491 0.3085 0.0
H1167 H 0.75315 0.17291 0.32447 0.0
C1168 C 0.81621 0.03786 0.26723 0.0
C1169 C 0.85258 1.02907 0.26847 0.0
C1170 C 0.80461 0.07232 0.27318 0.0
C1171 C 0.82917 0.0987 0.28041 0.0
C1172 C 0.86567 0.09006 0.28066 0.0
C1173 C 0.87719 0.05577 0.27474 0.0
C1174 C 0.82705 0.1986 0.29258 0.0
C1175 C 0.79682 0.20201 0.30762 0.0
C1176 C 0.83696 0.16537 0.28326 0.0
C1177 C 0.81701 0.13455 0.2888 0.0
C1178 C 0.78639 0.13807 0.3035 0.0
C1179 C 0.7764 0.17136 0.31276 0.0
H1180 H 0.81572 0.04128 0.51005 0.0
H1181 H 0.78248 0.14854 0.52671 0.0
H1182 H 0.75534 1.0197 0.51913 0.0
H1183 H 0.72294 0.12722 0.53636 0.0
H1184 H 0.65932 0.99224 0.57002 0.0
H1185 H 0.71756 1.01083 0.5545 0.0
H1186 H 0.66907 0.10313 0.52072 0.0
H1187 H 0.61108 0.0848 0.53658 0.0
C1188 C 0.79541 0.06027 0.51534 0.0
C1189 C 0.80382 0.09658 0.5177 0.0
C1190 C 0.76092 0.04791 0.52078 0.0
C1191 C 0.73416 0.07165 0.52862 0.0
C1192 C 0.74252 0.10814 0.53007 0.0
C1193 C 0.77681 0.12041 0.52463 0.0
C1194 C 0.66107 1.01631 0.55907 0.0
C1195 C 0.63057 0.03723 0.55478 0.0
C1196 C 0.69447 1.02692 0.55006 0.0
C1197 C 0.69819 0.05864 0.53643 0.0
C1198 C 0.66744 0.07894 0.53155 0.0
C1199 C 0.63413 0.06845 0.54066 0.0
H1200 H 0.25426 0.17039 0.51005 0.0
H1201 H 0.34311 0.21834 0.54773 0.0
H1202 H 0.27106 0.11209 0.52628 0.0
H1203 H 0.35972 0.1602 0.56416 0.0
H1204 H 0.40465 0.04631 0.56044 0.0
H1205 H 0.38504 0.10597 0.54963 0.0
H1206 H 0.27557 0.07474 0.56247 0.0
H1207 H 0.29548 1.01425 0.57275 0.0
C1208 C 0.27713 0.16857 0.52203 0.0
C1209 C 0.29751 0.19906 0.52739 0.0
C1210 C 0.2867 0.13512 0.53144 0.0
C1211 C 0.31684 0.13129 0.54651 0.0
C1212 C 0.33672 0.16195 0.55227 0.0
C1213 C 0.32724 0.19534 0.54281 0.0
C1214 C 0.37643 0.05227 0.56135 0.0
C1215 C 0.35161 1.02554 0.5674 0.0
C1216 C 0.36514 0.08662 0.55521 0.0
C1217 C 0.32866 0.09531 0.55506 0.0
C1218 C 0.30384 0.06887 0.56206 0.0
C1219 C 0.31522 1.03432 0.5682 0.0
H1220 H 0.14075 0.99291 0.30073 0.0
H1221 H 0.13688 0.08586 0.2539 0.0
H1222 H 0.19936 1.01139 0.31551 0.0
H1223 H 0.19582 0.10343 0.26783 0.0
H1224 H 0.28371 0.14706 0.31382 0.0
H1225 H 0.22396 0.12669 0.30381 0.0
H1226 H 0.2616 1.0179 0.3025 0.0
H1227 H 0.32164 0.03851 0.31311 0.0
C1228 C 0.15234 1.01728 0.29359 0.0
C1229 C 0.13395 0.03793 0.27614 0.0
C1230 C 0.18613 1.02767 0.30189 0.0
C1231 C 0.20227 0.05903 0.29302 0.0
C1232 C 0.18399 0.07944 0.27541 0.0
C1233 C 0.15032 0.06908 0.26713 0.0
C1234 C 0.27915 0.11874 0.31182 0.0
C1235 C 0.30741 0.09443 0.31413 0.0
C1236 C 0.24493 0.10706 0.30581 0.0
C1237 C 0.23802 0.0707 0.30188 0.0
C1238 C 0.26593 0.04609 0.30544 0.0
C1239 C 0.30033 0.05786 0.31153 0.0
H1240 H 0.18508 1.02906 1.06469 0.0
H1241 H 0.29368 0.06687 1.06066 0.0
H1242 H 0.20475 0.96929 1.05433 0.0
H1243 H 0.31357 1.0068 1.04975 0.0
H1244 H 0.33807 0.88597 1.04801 0.0
H1245 H 0.3205 0.94466 1.06292 0.0
H1246 H 0.22619 0.94091 1.01783 0.0
H1247 H 0.2429 0.88186 1.00376 0.0
C1248 C 0.21328 1.02446 1.06189 0.0
C1249 C 0.23779 0.05271 1.06337 0.0
C1250 C 0.22454 0.99023 1.05569 0.0
C1251 C 0.26068 0.98328 1.05074 0.0
C1252 C 0.28555 1.01116 1.05348 0.0
C1253 C 0.27419 0.04558 1.05975 0.0
C1254 C 0.3134 0.89753 1.04146 0.0
C1255 C 0.29187 0.87902 1.02471 0.0
C1256 C 0.30353 0.93137 1.04983 0.0
C1257 C 0.2718 0.94748 1.04174 0.0
C1258 C 0.2505 0.9291 1.0248 0.0
C1259 C 0.26036 0.89537 1.01644 0.0
H1260 H 0.4486 0.98542 0.7535 0.0
H1261 H 0.44395 0.08117 0.79684 0.0
H1262 H 0.38967 0.96836 0.76817 0.0
H1263 H 0.38534 0.06334 0.81229 0.0
H1264 H 0.26314 1.03444 0.81091 0.0
H1265 H 0.32291 0.05517 0.79932 0.0
H1266 H 0.36245 0.94741 0.80575 0.0
H1267 H 0.30304 0.9269 0.81689 0.0
C1268 C 0.43497 1.00294 0.76609 0.0
C1269 C 0.45114 1.03467 0.77398 0.0
C1270 C 0.40133 0.99291 0.77479 0.0
C1271 C 0.38289 1.01428 0.79165 0.0
C1272 C 0.39875 0.04631 0.79928 0.0
C1273 C 0.4325 0.05634 0.7906 0.0
C1274 C 0.28482 1.0154 0.81029 0.0
C1275 C 0.27839 0.97901 0.81463 0.0
C1276 C 0.31904 1.02723 0.80362 0.0
C1277 C 0.34736 1.00283 0.80116 0.0
C1278 C 0.34113 0.96679 0.80688 0.0
C1279 C 0.30711 0.95507 0.81352 0.0
H1280 H 0.37781 0.15676 0.2204 0.0
H1281 H 0.28229 0.18117 0.26086 0.0
H1282 H 0.34206 0.1488 0.18335 0.0
H1283 H 0.24654 0.17274 0.22398 0.0
H1284 H 0.18915 0.11958 1.15684 0.0
H1285 H 0.2243 0.12737 0.19442 0.0
H1286 H 0.30633 0.18109 1.15299 0.0
H1287 H 0.27145 0.17378 1.11592 0.0
C1288 C 0.34925 0.1608 0.22146 0.0
C1289 C 0.33341 0.17021 0.24391 0.0
C1290 C 0.32853 0.15617 0.20006 0.0
C1291 C 0.29094 0.15997 0.20026 0.0
C1292 C 0.27515 0.16919 0.22278 0.0
C1293 C 0.29592 0.17449 0.24405 0.0
C1294 C 0.21465 0.13309 1.15571 0.0
C1295 C 0.22696 0.14607 1.13296 0.0
C1296 C 0.23491 0.13775 0.17741 0.0
C1297 C 0.26864 0.1549 0.17714 0.0
C1298 C 0.28093 0.16744 1.1543 0.0
C1299 C 0.26052 0.16338 1.13284 0.0
H1300 H 0.65637 0.51616 0.36655 0.0
H1301 H 0.70954 0.4334 0.40745 0.0
H1302 H 0.64932 0.55105 0.40357 0.0
H1303 H 0.70204 0.46856 0.44497 0.0
H1304 H 0.64871 0.52666 0.51152 0.0
H1305 H 0.65694 0.49104 0.47466 0.0
H1306 H 0.6816 0.58651 0.43382 0.0
H1307 H 0.6738 0.62216 0.47087 0.0
C1308 C 0.6666 0.50514 0.38345 0.0
C1309 C 0.68354 0.47143 0.38357 0.0
C1310 C 0.6627 0.52555 0.40489 0.0
C1311 C 0.67503 0.51314 0.42771 0.0
C1312 C 0.69182 0.47928 0.42798 0.0
C1313 C 0.69633 0.459 0.40631 0.0
C1314 C 0.65553 0.54032 0.49468 0.0
C1315 C 0.66004 0.57778 0.49449 0.0
C1316 C 0.6607 0.51961 0.47341 0.0
C1317 C 0.67007 0.53541 0.45083 0.0
C1318 C 0.67411 0.57297 0.45057 0.0
C1319 C 0.66958 0.59363 0.47197 0.0
H1320 H 0.21225 0.90724 0.72126 0.0
H1321 H 0.3075 0.89698 0.76465 0.0
H1322 H 0.24912 0.91396 0.68435 0.0
H1323 H 0.34423 0.90458 0.72798 0.0
H1324 H 0.39794 0.95753 0.65814 0.0
H1325 H 0.36197 0.9503 0.69557 0.0
H1326 H 0.29096 0.87948 0.65747 0.0
H1327 H 0.32699 0.88594 0.6206 0.0
C1328 C 0.241 0.90616 0.72301 0.0
C1329 C 0.25649 0.90094 0.74622 0.0
C1330 C 0.26233 0.91008 0.70172 0.0
C1331 C 0.30008 0.90996 0.70281 0.0
C1332 C 0.31548 0.90511 0.72609 0.0
C1333 C 0.29419 0.90033 0.74725 0.0
C1334 C 0.37484 0.9402 0.65775 0.0
C1335 C 0.36596 0.92219 0.63602 0.0
C1336 C 0.35407 0.93597 0.67934 0.0
C1337 C 0.32306 0.91432 0.67987 0.0
C1338 C 0.31419 0.89663 0.65806 0.0
C1339 C 0.33529 0.90019 0.63677 0.0
H1340 H 0.94323 0.56811 0.86898 0.0
H1341 H 0.87335 0.64006 0.90717 0.0
H1342 H 0.94881 0.53145 0.90569 0.0
H1343 H 0.87977 0.60349 0.94443 0.0
H1344 H 0.9331 0.5476 1.01284 0.0
H1345 H 0.92625 0.58464 0.97624 0.0
H1346 H 0.91246 0.49018 0.93285 0.0
H1347 H 0.91836 0.45296 0.96974 0.0
C1348 C 0.9292 0.57649 0.88526 0.0
C1349 C 0.90794 0.60763 0.88476 0.0
C1350 C 0.93224 0.55505 0.90645 0.0
C1351 C 0.9148 0.56405 0.92838 0.0
C1352 C 0.89388 0.5955 0.92809 0.0
C1353 C 0.89012 0.6166 0.90661 0.0
C1354 C 0.9289 0.53447 0.99552 0.0
C1355 C 0.92679 0.49685 0.99455 0.0
C1356 C 0.92457 0.55596 0.97441 0.0
C1357 C 0.9187 0.54082 0.95124 0.0
C1358 C 0.91713 0.50314 0.95017 0.0
C1359 C 0.92058 0.48163 0.97143 0.0
H1360 H 0.82344 0.89547 0.21746 0.0
H1361 H 0.90237 0.95582 0.17751 0.0
H1362 H 0.7876 0.8898 0.18056 0.0
H1363 H 0.86661 0.94906 1.14 0.0
H1364 H 0.80687 0.89198 1.0736 0.0
H1365 H 0.844 0.8993 1.1101 0.0
H1366 H 0.751 0.92939 1.15143 0.0
H1367 H 0.71402 0.92323 1.11469 0.0
C1368 C 0.83352 0.90735 0.20075 0.0
C1369 C 0.86634 0.92601 0.20084 0.0
C1370 C 0.81259 0.90424 0.17944 0.0
C1371 C 0.82379 0.91889 1.15695 0.0
C1372 C 0.8569 0.93717 1.15681 0.0
C1373 C 0.87752 0.94113 0.17842 0.0
C1374 C 0.79412 0.89989 1.09048 0.0
C1375 C 0.75698 0.90646 1.09095 0.0
C1376 C 0.81566 0.90447 1.11149 0.0
C1377 C 0.80088 0.91499 1.13406 0.0
C1378 C 0.76364 0.92107 1.1346 0.0
C1379 C 0.74225 0.91744 1.11343 0.0
H1380 H 0.46032 0.60423 0.95244 0.0
H1381 H 0.34803 0.61641 0.93813 0.0
H1382 H 0.46647 0.5672 0.91603 0.0
H1383 H 0.35404 0.57876 0.90178 0.0
H1384 H 0.37093 0.47683 0.8542 0.0
H1385 H 0.36535 0.51583 0.88967 0.0
H1386 H 0.46491 0.5665 0.87067 0.0
H1387 H 0.4702 0.52777 0.83486 0.0
C1388 C 0.43687 0.59939 0.94144 0.0
C1389 C 0.40367 0.61397 0.94849 0.0
C1390 C 0.44044 0.57797 0.92035 0.0
C1391 C 0.41083 0.5694 0.90558 0.0
C1392 C 0.3776 0.58418 0.91255 0.0
C1393 C 0.37416 0.60625 0.93341 0.0
C1394 C 0.39193 0.49601 0.85758 0.0
C1395 C 0.42129 0.49846 0.8414 0.0
C1396 C 0.38849 0.51885 0.87798 0.0
C1397 C 0.41454 0.54488 0.88343 0.0
C1398 C 0.44425 0.54689 0.86749 0.0
C1399 C 0.44734 0.52448 0.84679 0.0
H1400 H 0.73066 0.20303 0.70462 0.0
H1401 H 0.71401 0.09186 0.68891 0.0
H1402 H 0.76817 0.20887 0.66818 0.0
H1403 H 0.7521 0.09754 0.65255 0.0
H1404 H 0.85386 0.1125 0.60362 0.0
H1405 H 0.81548 0.107 0.63976 0.0
H1406 H 0.76793 0.20873 0.62292 0.0
H1407 H 0.80587 0.21393 0.58659 0.0
C1408 C 0.73466 0.17977 0.69333 0.0
C1409 C 0.71864 0.14699 0.69997 0.0
C1410 C 0.75635 0.18316 0.67223 0.0
C1411 C 0.76373 0.15373 0.65703 0.0
C1412 C 0.74763 0.12091 0.66365 0.0
C1413 C 0.72531 0.11769 0.68452 0.0
C1414 C 0.83552 0.13397 0.60766 0.0
C1415 C 0.8336 0.16389 0.59192 0.0
C1416 C 0.81305 0.13061 0.62843 0.0
C1417 C 0.78807 0.15731 0.63465 0.0
C1418 C 0.78673 0.18757 0.61916 0.0
C1419 C 0.80869 0.19059 0.59814 0.0
H1420 H 0.21156 0.43262 0.42859 0.0
H1421 H 0.15818 0.51437 0.46982 0.0
H1422 H 0.20311 0.4681 0.39106 0.0
H1423 H 0.15016 0.54958 0.43278 0.0
H1424 H 0.17271 0.62174 0.36514 0.0
H1425 H 0.18135 0.58573 0.40218 0.0
H1426 H 0.15766 0.49045 0.36165 0.0
H1427 H 0.14859 0.52645 0.32478 0.0
C1428 C 0.1981 0.45807 0.4298 0.0
C1429 C 0.18555 0.47013 0.45264 0.0
C1430 C 0.19304 0.47853 0.40812 0.0
C1431 C 0.17589 0.51221 0.40847 0.0
C1432 C 0.1638 0.52424 0.43139 0.0
C1433 C 0.16826 0.50364 0.45285 0.0
C1434 C 0.16886 0.59318 0.36411 0.0
C1435 C 0.15933 0.57749 0.34168 0.0
C1436 C 0.17389 0.5723 0.38551 0.0
C1437 C 0.17037 0.5347 0.38534 0.0
C1438 C 0.16101 0.51906 0.36284 0.0
C1439 C 0.15534 0.53998 0.34157 0.0
H1440 H 0.68613 0.61995 0.65813 0.0
H1441 H 0.77192 0.66677 0.61633 0.0
H1442 H 0.72198 0.62629 0.69557 0.0
H1443 H 0.8076 0.67232 0.65326 0.0
H1444 H 0.87672 0.64176 0.7211 0.0
H1445 H 0.84005 0.63535 0.68431 0.0
H1446 H 0.74838 0.67366 0.7238 0.0
H1447 H 0.78522 0.68088 0.76039 0.0
C1448 C 0.71256 0.63147 0.65679 0.0
C1449 C 0.72567 0.64294 0.63386 0.0
C1450 C 0.73321 0.63529 0.67838 0.0
C1451 C 0.7681 0.64985 0.67778 0.0
C1452 C 0.78121 0.66075 0.65478 0.0
C1453 C 0.7604 0.6577 0.63342 0.0
C1454 C 0.84887 0.64929 0.72194 0.0
C1455 C 0.83444 0.66245 0.74394 0.0
C1456 C 0.82765 0.64554 0.70072 0.0
C1457 C 0.79084 0.65387 0.70073 0.0
C1458 C 0.77636 0.66668 0.72282 0.0
C1459 C 0.79776 0.67122 0.74388 0.0
H1460 H 0.21223 0.93164 0.90828 0.0
H1461 H 0.15727 1.01238 0.86662 0.0
H1462 H 0.20458 0.96765 0.94539 0.0
H1463 H 0.1501 0.04819 0.90327 0.0
H1464 H 0.17488 0.12138 0.96967 0.0
H1465 H 0.18245 0.08493 0.93295 0.0
H1466 H 0.15949 0.99019 0.97503 0.0
H1467 H 0.15142 1.02661 1.01155 0.0
C1468 C 0.19856 0.95697 0.90689 0.0
C1469 C 0.18533 0.96858 0.88407 0.0
C1470 C 0.19399 0.97775 0.92833 0.0
C1471 C 0.17668 1.01133 0.92773 0.0
C1472 C 0.16387 1.02293 0.90482 0.0
C1473 C 0.16784 1.00199 0.88361 0.0
C1474 C 0.17098 0.09284 0.97112 0.0
C1475 C 0.16195 0.07743 0.99387 0.0
C1476 C 0.17538 0.07172 0.94991 0.0
C1477 C 0.17174 1.03413 0.95061 0.0
C1478 C 0.16289 1.01877 0.97343 0.0
C1479 C 0.15782 0.03994 0.9945 0.0
H1480 H 0.89688 0.45377 1.15722 0.0
H1481 H 0.8147 0.4003 1.11637 0.0
H1482 H 0.861 0.44661 0.19466 0.0
H1483 H 0.77906 0.39362 1.15332 0.0
H1484 H 0.70694 0.41945 0.22036 0.0
H1485 H 0.74322 0.42662 0.18331 0.0
H1486 H 0.83791 0.40149 0.22444 0.0
H1487 H 0.80168 0.39385 0.26129 0.0
C1488 C 0.87126 0.44054 1.15608 0.0
C1489 C 0.8592 0.42756 1.13339 0.0
C1490 C 0.85057 0.43625 0.1777 0.0
C1491 C 0.81665 0.4195 0.17741 0.0
C1492 C 0.8046 0.40697 1.15464 0.0
C1493 C 0.82544 0.41064 1.13325 0.0
C1494 C 0.73543 0.415 0.22153 0.0
C1495 C 0.7509 0.40551 0.24412 0.0
C1496 C 0.75644 0.41917 0.20013 0.0
C1497 C 0.79397 0.41482 0.20048 0.0
C1498 C 0.80938 0.40548 0.22313 0.0
C1499 C 0.78831 0.40065 0.24439 0.0
H1500 H 0.39769 0.95475 0.47231 0.0
H1501 H 0.43895 0.04589 0.51064 0.0
H1502 H 0.39094 0.99128 0.43534 0.0
H1503 H 0.43149 0.08262 0.47381 0.0
H1504 H 0.37742 0.14517 0.40798 0.0
H1505 H 0.38413 0.10959 0.4457 0.0
H1506 H 0.4274 1.02288 0.40376 0.0
H1507 H 0.42144 0.05824 0.36656 0.0
C1508 C 0.40563 0.98249 0.4729 0.0
C1509 C 0.41946 0.99686 0.49469 0.0
C1510 C 0.40169 1.00364 0.45156 0.0
C1511 C 0.41054 0.04031 0.45123 0.0
C1512 C 0.42407 0.05474 0.47311 0.0
C1513 C 0.42876 1.0334 0.4943 0.0
C1514 C 0.3884 0.11855 0.40678 0.0
C1515 C 0.39897 0.10503 0.38387 0.0
C1516 C 0.39243 0.09805 0.42853 0.0
C1517 C 0.40633 0.06294 0.42812 0.0
C1518 C 0.41634 0.04945 0.40514 0.0
C1519 C 0.41307 0.07008 0.38362 0.0
H1520 H 0.32638 0.38845 0.71694 0.0
H1521 H 0.39897 0.45766 0.67808 0.0
H1522 H 0.29017 0.38219 0.68029 0.0
H1523 H 0.36278 0.4506 0.64086 0.0
H1524 H 0.30687 0.39716 0.57273 0.0
H1525 H 0.34384 0.4048 0.60914 0.0
H1526 H 0.24906 0.41687 0.65293 0.0
H1527 H 0.21197 0.41016 0.61628 0.0
C1528 C 0.335 0.40223 0.70053 0.0
C1529 C 0.3662 0.42349 0.70087 0.0
C1530 C 0.31379 0.39878 0.67935 0.0
C1531 C 0.32303 0.41583 0.65721 0.0
C1532 C 0.35455 0.43676 0.65733 0.0
C1533 C 0.37546 0.44091 0.67881 0.0
C1534 C 0.29367 0.40112 0.59011 0.0
C1535 C 0.25597 0.40248 0.59124 0.0
C1536 C 0.31512 0.40592 0.61112 0.0
C1537 C 0.2999 0.41152 0.63439 0.0
C1538 C 0.26216 0.41239 0.63558 0.0
C1539 C 0.24069 0.40847 0.61443 0.0
H1540 H 0.95987 0.10681 0.45217 0.0
H1541 H 0.84714 0.11773 0.43902 0.0
H1542 H 0.96567 0.06989 0.41573 0.0
H1543 H 0.85282 0.08025 0.40254 0.0
H1544 H 0.86979 0.97883 0.35455 0.0
H1545 H 0.86431 1.01783 0.39001 0.0
H1546 H 0.96363 0.06875 0.37073 0.0
H1547 H 0.96888 1.02996 0.33498 0.0
C1548 C 0.93623 0.10174 0.44139 0.0
C1549 C 0.90302 0.11591 0.44879 0.0
C1550 C 0.93961 0.08038 0.42028 0.0
C1551 C 0.90979 0.0715 0.4058 0.0
C1552 C 0.87654 0.08591 0.41308 0.0
C1553 C 0.87328 0.1079 0.43401 0.0
C1554 C 0.89076 0.99807 0.35787 0.0
C1555 C 0.92005 1.00057 0.34163 0.0
C1556 C 0.88737 1.02092 0.37826 0.0
C1557 C 0.91337 0.04701 0.38363 0.0
C1558 C 0.943 0.04909 0.36762 0.0
C1559 C 0.94608 1.02664 0.34695 0.0
H1560 H 0.27139 0.66532 0.21895 0.0
H1561 H 0.18391 0.62209 0.17758 0.0
H1562 H 0.30666 0.67136 0.18172 0.0
H1563 H 0.21934 0.62894 1.13985 0.0
H1564 H 0.28251 0.68434 1.07481 0.0
H1565 H 0.24623 0.67647 1.11175 0.0
H1566 H 0.33798 0.63537 1.14987 0.0
H1567 H 0.37409 0.64249 1.11274 0.0
C1568 C 0.25942 0.65713 0.2019 0.0
C1569 C 0.22432 0.64322 0.20168 0.0
C1570 C 0.27999 0.66046 0.18036 0.0
C1571 C 0.2663 0.65075 1.15737 0.0
C1572 C 0.23106 0.63702 1.15701 0.0
C1573 C 0.21064 0.6329 0.17877 0.0
C1574 C 0.29521 0.67391 1.09109 0.0
C1575 C 0.33175 0.66458 1.09052 0.0
C1576 C 0.27411 0.66899 1.11235 0.0
C1577 C 0.28875 0.6552 1.13419 0.0
C1578 C 0.32543 0.64631 1.1337 0.0
C1579 C 0.34634 0.65046 1.11226 0.0
H1580 H 0.71304 0.92666 0.92727 0.0
H1581 H 0.65073 1.00362 0.96693 0.0
H1582 H 0.70587 0.96268 0.88976 0.0
H1583 H 0.64468 0.03982 0.92997 0.0
H1584 H 0.67829 0.11453 0.86408 0.0
H1585 H 0.68446 0.07745 0.90096 0.0
H1586 H 0.65538 0.98443 0.85972 0.0
H1587 H 0.648 1.02163 0.82307 0.0
C1588 C 0.69783 0.95114 0.92811 0.0
C1589 C 0.68229 0.9617 0.95043 0.0
C1590 C 0.69363 0.9719 0.90649 0.0
C1591 C 0.6747 1.00456 0.90655 0.0
C1592 C 0.65961 1.01517 0.92895 0.0
C1593 C 0.66294 0.99406 0.95027 0.0
C1594 C 0.67271 0.08626 0.86287 0.0
C1595 C 0.66202 0.07153 0.84037 0.0
C1596 C 0.67635 0.06484 0.88413 0.0
C1597 C 0.67058 1.02757 0.88363 0.0
C1598 C 0.6603 1.0128 0.86105 0.0
C1599 C 0.65569 1.03437 0.83996 0.0
loop_
_geom_bond_atom_site_label_1
_geom_bond_atom_site_label_2
_geom_bond_distance
_geom_bond_site_symmetry_2
_ccdc_geom_bond_type
La0 C2 2.928 . S
La0 O20 2.521 . S
La0 O21 2.628 . S
La0 O22 2.554 . S
La0 O23 2.757 . S
La0 O24 2.470 . S
La0 O29 2.482 . S
La0 O31 2.503 . S
La1 C11 2.928 . S
La1 O23 2.482 . S
La1 O25 2.503 . S
La1 O26 2.521 . S
La1 O27 2.628 . S
La1 O28 2.554 . S
La1 O29 2.757 . S
La1 O30 2.470 . S
C2 La0 2.928 . S
C2 C3 1.503 . S
C2 O20 1.261 . S
C2 O21 1.243 . S
C3 C2 1.503 . S
C3 C4 1.394 . S
C3 C8 1.373 . S
C4 C3 1.394 . S
C4 C5 1.380 . S
C4 H32 0.930 . S
C5 C4 1.380 . S
C5 C6 1.376 . S
C5 H33 0.930 . S
C6 C5 1.376 . S
C6 C7 1.370 . S
C7 C6 1.370 . S
C7 C8 1.396 . S
C7 H34 0.929 . S
C8 C3 1.373 . S
C8 C7 1.396 . S
C8 H35 0.929 . S
C9 O22 1.240 . S
C9 O23 1.289 . S
C10 O24 1.258 . S
C10 O25 1.256 . S
C11 La1 2.928 . S
C11 C12 1.503 . S
C11 O26 1.261 . S
C11 O27 1.243 . S
C12 C11 1.503 . S
C12 C13 1.394 . S
C12 C17 1.373 . S
C13 C12 1.394 . S
C13 C14 1.380 1_545 S
C13 H36 0.930 1_545 S
C14 C13 1.380 1_565 S
C14 C15 1.388 . S
C14 H37 0.930 . S
C15 C14 1.388 . S
C15 C16 1.341 1_565 S
C16 C15 1.341 1_545 S
C16 C17 1.396 . S
C16 H38 0.929 . S
C17 C12 1.373 . S
C17 C16 1.396 . S
C17 H39 0.929 . S
C18 O28 1.240 . S
C18 O29 1.289 . S
C19 O30 1.258 . S
C19 O31 1.256 . S
O20 La0 2.521 . S
O20 C2 1.261 . S
O21 La0 2.628 . S
O21 C2 1.243 . S
O22 La0 2.554 . S
O22 C9 1.240 . S
O23 La0 2.757 . S
O23 La1 2.482 . S
O23 C9 1.289 . S
O24 La0 2.470 . S
O24 C10 1.258 . S
O25 La1 2.503 . S
O25 C10 1.256 . S
O26 La1 2.521 . S
O26 C11 1.261 . S
O27 La1 2.628 . S
O27 C11 1.243 . S
O28 La1 2.554 . S
O28 C18 1.240 . S
O29 La0 2.482 . S
O29 La1 2.757 . S
O29 C18 1.289 . S
O30 La1 2.470 . S
O30 C19 1.258 . S
O31 La0 2.503 . S
O31 C19 1.256 . S
H32 C4 0.930 . S
H33 C5 0.930 . S
H34 C7 0.929 . S
H35 C8 0.929 . S
H36 C13 0.930 1_565 S
H37 C14 0.930 . S
H38 C16 0.929 . S
H39 C17 0.929 . S
La40 C42 2.928 . S
La40 O60 2.521 . S
La40 O61 2.628 . S
La40 O62 2.554 . S
La40 O63 2.757 . S
La40 O64 2.470 . S
La40 O69 2.482 . S
La40 O71 2.503 . S
La41 C51 2.928 . S
La41 O63 2.482 . S
La41 O65 2.503 . S
La41 O66 2.521 . S
La41 O67 2.628 . S
La41 O68 2.554 . S
La41 O69 2.757 . S
La41 O70 2.470 . S
C42 La40 2.928 . S
C42 C43 1.503 . S
C42 O60 1.261 . S
C42 O61 1.243 . S
C43 C42 1.503 . S
C43 C44 1.394 . S
C43 C48 1.373 . S
C44 C43 1.394 . S
C44 C45 1.380 . S
C44 H72 0.930 . S
C45 C44 1.380 . S
C45 C46 1.376 . S
C45 H73 0.930 . S
C46 C45 1.376 . S
C46 C47 1.370 . S
C47 C46 1.370 . S
C47 C48 1.396 . S
C47 H74 0.929 . S
C48 C43 1.373 . S
C48 C47 1.396 . S
C48 H75 0.929 . S
C49 O62 1.240 . S
C49 O63 1.289 . S
C50 O64 1.258 . S
C50 O65 1.256 . S
C51 La41 2.928 . S
C51 C52 1.503 . S
C51 O66 1.261 . S
C51 O67 1.243 . S
C52 C51 1.503 . S
C52 C53 1.394 . S
C52 C57 1.373 . S
C53 C52 1.394 . S
C53 C54 1.380 . S
C53 H76 0.930 . S
C54 C53 1.380 . S
C54 C55 1.376 . S
C54 H77 0.930 . S
C55 C54 1.376 . S
C55 C56 1.370 . S
C56 C55 1.370 . S
C56 C57 1.396 . S
C56 H78 0.929 . S
C57 C52 1.373 . S
C57 C56 1.396 . S
C57 H79 0.929 . S
C58 O68 1.240 . S
C58 O69 1.289 . S
C59 O70 1.258 . S
C59 O71 1.256 . S
O60 La40 2.521 . S
O60 C42 1.261 . S
O61 La40 2.628 . S
O61 C42 1.243 . S
O62 La40 2.554 . S
O62 C49 1.240 . S
O63 La40 2.757 . S
O63 La41 2.482 . S
O63 C49 1.289 . S
O64 La40 2.470 . S
O64 C50 1.258 . S
O65 La41 2.503 . S
O65 C50 1.256 . S
O66 La41 2.521 . S
O66 C51 1.261 . S
O67 La41 2.628 . S
O67 C51 1.243 . S
O68 La41 2.554 . S
O68 C58 1.240 . S
O69 La40 2.482 . S
O69 La41 2.757 . S
O69 C58 1.289 . S
O70 La41 2.470 . S
O70 C59 1.258 . S
O71 La40 2.503 . S
O71 C59 1.256 . S
H72 C44 0.930 . S
H73 C45 0.930 . S
H74 C47 0.929 . S
H75 C48 0.929 . S
H76 C53 0.930 . S
H77 C54 0.930 . S
H78 C56 0.929 . S
H79 C57 0.929 . S
La80 C82 2.928 . S
La80 O100 2.521 . S
La80 O101 2.628 . S
La80 O102 2.554 . S
La80 O103 2.757 . S
La80 O104 2.470 . S
La80 O109 2.482 . S
La80 O111 2.503 . S
La81 C91 2.928 . S
La81 O103 2.482 . S
La81 O105 2.503 . S
La81 O106 2.521 . S
La81 O107 2.628 . S
La81 O108 2.554 . S
La81 O109 2.757 . S
La81 O110 2.470 . S
C82 La80 2.928 . S
C82 C83 1.503 . S
C82 O100 1.261 . S
C82 O101 1.243 . S
C83 C82 1.503 . S
C83 C84 1.394 . S
C83 C88 1.373 . S
C84 C83 1.394 . S
C84 C85 1.380 . S
C84 H112 0.930 . S
C85 C84 1.380 . S
C85 C86 1.376 . S
C85 H113 0.930 . S
C86 C85 1.376 . S
C86 C87 1.370 . S
C87 C86 1.370 . S
C87 C88 1.396 . S
C87 H114 0.929 . S
C88 C83 1.373 . S
C88 C87 1.396 . S
C88 H115 0.929 . S
C89 O102 1.240 . S
C89 O103 1.289 . S
C90 O104 1.258 . S
C90 O105 1.256 . S
C91 La81 2.928 . S
C91 C92 1.503 . S
C91 O106 1.261 . S
C91 O107 1.243 . S
C92 C91 1.503 . S
C92 C93 1.394 . S
C92 C97 1.373 . S
C93 C92 1.394 . S
C93 C94 1.380 1_565 S
C93 H116 0.930 1_565 S
C94 C93 1.380 1_545 S
C94 C95 1.388 . S
C94 H117 0.930 . S
C95 C94 1.388 . S
C95 C96 1.341 1_545 S
C96 C95 1.341 1_565 S
C96 C97 1.396 . S
C96 H118 0.929 . S
C97 C92 1.373 . S
C97 C96 1.396 . S
C97 H119 0.929 . S
C98 O108 1.240 . S
C98 O109 1.289 . S
C99 O110 1.258 . S
C99 O111 1.256 . S
O100 La80 2.521 . S
O100 C82 1.261 . S
O101 La80 2.628 . S
O101 C82 1.243 . S
O102 La80 2.554 . S
O102 C89 1.240 . S
O103 La80 2.757 . S
O103 La81 2.482 . S
O103 C89 1.289 . S
O104 La80 2.470 . S
O104 C90 1.258 . S
O105 La81 2.503 . S
O105 C90 1.256 . S
O106 La81 2.521 . S
O106 C91 1.261 . S
O107 La81 2.628 . S
O107 C91 1.243 . S
O108 La81 2.554 . S
O108 C98 1.240 . S
O109 La80 2.482 . S
O109 La81 2.757 . S
O109 C98 1.289 . S
O110 La81 2.470 . S
O110 C99 1.258 . S
O111 La80 2.503 . S
O111 C99 1.256 . S
H112 C84 0.930 . S
H113 C85 0.930 . S
H114 C87 0.929 . S
H115 C88 0.929 . S
H116 C93 0.930 1_545 S
H117 C94 0.930 . S
H118 C96 0.929 . S
H119 C97 0.929 . S
La120 C122 2.928 . S
La120 O140 2.521 . S
La120 O141 2.628 . S
La120 O142 2.554 . S
La120 O143 2.757 . S
La120 O144 2.470 . S
La120 O149 2.482 . S
La120 O151 2.503 . S
La121 C131 2.928 . S
La121 O143 2.482 . S
La121 O145 2.503 . S
La121 O146 2.521 . S
La121 O147 2.628 . S
La121 O148 2.554 . S
La121 O149 2.757 . S
La121 O150 2.470 . S
C122 La120 2.928 . S
C122 C123 1.503 1_655 S
C122 O140 1.261 . S
C122 O141 1.243 . S
C123 C122 1.503 1_455 S
C123 C124 1.394 . S
C123 C128 1.373 1_455 S
C124 C123 1.394 . S
C124 C125 1.380 . S
C124 H152 0.930 . S
C125 C124 1.380 . S
C125 C126 1.376 . S
C125 H153 0.930 . S
C126 C125 1.376 . S
C126 C127 1.370 . S
C127 C126 1.370 . S
C127 C128 1.396 1_455 S
C127 H154 0.929 . S
C128 C123 1.373 1_655 S
C128 C127 1.396 1_655 S
C128 H155 0.929 . S
C129 O142 1.240 . S
C129 O143 1.289 . S
C130 O144 1.258 . S
C130 O145 1.256 . S
C131 La121 2.928 . S
C131 C132 1.503 . S
C131 O146 1.261 . S
C131 O147 1.243 . S
C132 C131 1.503 . S
C132 C133 1.394 . S
C132 C137 1.373 . S
C133 C132 1.394 . S
C133 C134 1.380 . S
C133 H156 0.930 . S
C134 C133 1.380 . S
C134 C135 1.376 . S
C134 H157 0.930 . S
C135 C134 1.376 . S
C135 C136 1.370 . S
C136 C135 1.370 . S
C136 C137 1.396 . S
C136 H158 0.929 . S
C137 C132 1.373 . S
C137 C136 1.396 . S
C137 H159 0.929 . S
C138 O148 1.240 . S
C138 O149 1.289 . S
C139 O150 1.258 . S
C139 O151 1.256 . S
O140 La120 2.521 . S
O140 C122 1.261 . S
O141 La120 2.628 . S
O141 C122 1.243 . S
O142 La120 2.554 . S
O142 C129 1.240 . S
O143 La120 2.757 . S
O143 La121 2.482 . S
O143 C129 1.289 . S
O144 La120 2.470 . S
O144 C130 1.258 . S
O145 La121 2.503 . S
O145 C130 1.256 . S
O146 La121 2.521 . S
O146 C131 1.261 . S
O147 La121 2.628 . S
O147 C131 1.243 . S
O148 La121 2.554 . S
O148 C138 1.240 . S
O149 La120 2.482 . S
O149 La121 2.757 . S
O149 C138 1.289 . S
O150 La121 2.470 . S
O150 C139 1.258 . S
O151 La120 2.503 . S
O151 C139 1.256 . S
H152 C124 0.930 . S
H153 C125 0.930 . S
H154 C127 0.929 . S
H155 C128 0.929 . S
H156 C133 0.930 . S
H157 C134 0.930 . S
H158 C136 0.929 . S
H159 C137 0.929 . S
La160 C162 2.928 . S
La160 O180 2.521 . S
La160 O181 2.628 . S
La160 O182 2.554 . S
La160 O183 2.757 . S
La160 O184 2.470 . S
La160 O189 2.482 . S
La160 O191 2.503 . S
La161 C171 2.928 . S
La161 O183 2.482 . S
La161 O185 2.503 . S
La161 O186 2.521 . S
La161 O187 2.628 . S
La161 O188 2.554 . S
La161 O189 2.757 . S
La161 O190 2.470 . S
C162 La160 2.928 . S
C162 C163 1.503 . S
C162 O180 1.261 . S
C162 O181 1.243 . S
C163 C162 1.503 . S
C163 C164 1.394 . S
C163 C168 1.373 . S
C164 C163 1.394 . S
C164 C165 1.380 1_565 S
C164 H192 0.930 1_565 S
C165 C164 1.380 1_545 S
C165 C166 1.388 . S
C165 H193 0.930 . S
C166 C165 1.388 . S
C166 C167 1.341 1_545 S
C167 C166 1.341 1_565 S
C167 C168 1.396 . S
C167 H194 0.929 . S
C168 C163 1.373 . S
C168 C167 1.396 . S
C168 H195 0.929 . S
C169 O182 1.240 . S
C169 O183 1.289 . S
C170 O184 1.258 . S
C170 O185 1.256 . S
C171 La161 2.928 . S
C171 C172 1.503 . S
C171 O186 1.261 . S
C171 O187 1.243 . S
C172 C171 1.503 . S
C172 C173 1.394 . S
C172 C177 1.373 . S
C173 C172 1.394 . S
C173 C174 1.380 . S
C173 H196 0.930 . S
C174 C173 1.380 . S
C174 C175 1.376 . S
C174 H197 0.930 . S
C175 C174 1.376 . S
C175 C176 1.370 . S
C176 C175 1.370 . S
C176 C177 1.396 . S
C176 H198 0.929 . S
C177 C172 1.373 . S
C177 C176 1.396 . S
C177 H199 0.929 . S
C178 O188 1.240 . S
C178 O189 1.289 . S
C179 O190 1.258 . S
C179 O191 1.256 . S
O180 La160 2.521 . S
O180 C162 1.261 . S
O181 La160 2.628 . S
O181 C162 1.243 . S
O182 La160 2.554 . S
O182 C169 1.240 . S
O183 La160 2.757 . S
O183 La161 2.482 . S
O183 C169 1.289 . S
O184 La160 2.470 . S
O184 C170 1.258 . S
O185 La161 2.503 . S
O185 C170 1.256 . S
O186 La161 2.521 . S
O186 C171 1.261 . S
O187 La161 2.628 . S
O187 C171 1.243 . S
O188 La161 2.554 . S
O188 C178 1.240 . S
O189 La160 2.482 . S
O189 La161 2.757 . S
O189 C178 1.289 . S
O190 La161 2.470 . S
O190 C179 1.258 . S
O191 La160 2.503 . S
O191 C179 1.256 . S
H192 C164 0.930 1_545 S
H193 C165 0.930 . S
H194 C167 0.929 . S
H195 C168 0.929 . S
H196 C173 0.930 . S
H197 C174 0.930 . S
H198 C176 0.929 . S
H199 C177 0.929 . S
La200 C202 2.928 . S
La200 O220 2.521 . S
La200 O221 2.628 . S
La200 O222 2.554 . S
La200 O223 2.757 . S
La200 O224 2.470 . S
La200 O229 2.482 . S
La200 O231 2.503 . S
La201 C211 2.928 . S
La201 O223 2.482 . S
La201 O225 2.503 . S
La201 O226 2.521 . S
La201 O227 2.628 . S
La201 O228 2.554 . S
La201 O229 2.757 . S
La201 O230 2.470 . S
C202 La200 2.928 . S
C202 C203 1.503 . S
C202 O220 1.261 . S
C202 O221 1.243 . S
C203 C202 1.503 . S
C203 C204 1.394 . S
C203 C208 1.373 . S
C204 C203 1.394 . S
C204 C205 1.380 . S
C204 H232 0.930 . S
C205 C204 1.380 . S
C205 C206 1.376 . S
C205 H233 0.930 . S
C206 C205 1.376 . S
C206 C207 1.370 . S
C207 C206 1.370 . S
C207 C208 1.396 . S
C207 H234 0.929 . S
C208 C203 1.373 . S
C208 C207 1.396 . S
C208 H235 0.929 . S
C209 O222 1.240 . S
C209 O223 1.289 . S
C210 O224 1.258 . S
C210 O225 1.256 . S
C211 La201 2.928 . S
C211 C212 1.503 . S
C211 O226 1.261 . S
C211 O227 1.243 . S
C212 C211 1.503 . S
C212 C213 1.394 . S
C212 C217 1.373 . S
C213 C212 1.394 . S
C213 C214 1.380 . S
C213 H236 0.930 . S
C214 C213 1.380 . S
C214 C215 1.376 . S
C214 H237 0.930 . S
C215 C214 1.376 . S
C215 C216 1.370 . S
C216 C215 1.370 . S
C216 C217 1.396 . S
C216 H238 0.929 . S
C217 C212 1.373 . S
C217 C216 1.396 . S
C217 H239 0.929 . S
C218 O228 1.240 . S
C218 O229 1.289 . S
C219 O230 1.258 . S
C219 O231 1.256 . S
O220 La200 2.521 . S
O220 C202 1.261 . S
O221 La200 2.628 . S
O221 C202 1.243 . S
O222 La200 2.554 . S
O222 C209 1.240 . S
O223 La200 2.757 . S
O223 La201 2.482 . S
O223 C209 1.289 . S
O224 La200 2.470 . S
O224 C210 1.258 . S
O225 La201 2.503 . S
O225 C210 1.256 . S
O226 La201 2.521 . S
O226 C211 1.261 . S
O227 La201 2.628 . S
O227 C211 1.243 . S
O228 La201 2.554 . S
O228 C218 1.240 . S
O229 La200 2.482 . S
O229 La201 2.757 . S
O229 C218 1.289 . S
O230 La201 2.470 . S
O230 C219 1.258 . S
O231 La200 2.503 . S
O231 C219 1.256 . S
H232 C204 0.930 . S
H233 C205 0.930 . S
H234 C207 0.929 . S
H235 C208 0.929 . S
H236 C213 0.930 . S
H237 C214 0.930 . S
H238 C216 0.929 . S
H239 C217 0.929 . S
La240 C242 2.928 . S
La240 O260 2.521 . S
La240 O261 2.628 . S
La240 O262 2.554 . S
La240 O263 2.757 . S
La240 O264 2.470 . S
La240 O269 2.482 . S
La240 O271 2.503 . S
La241 C251 2.928 . S
La241 O263 2.482 . S
La241 O265 2.503 . S
La241 O266 2.521 . S
La241 O267 2.628 . S
La241 O268 2.554 . S
La241 O269 2.757 . S
La241 O270 2.470 . S
C242 La240 2.928 . S
C242 C243 1.503 . S
C242 O260 1.261 . S
C242 O261 1.243 . S
C243 C242 1.503 . S
C243 C244 1.394 . S
C243 C248 1.373 . S
C244 C243 1.394 . S
C244 C245 1.380 1_545 S
C244 H272 0.930 1_545 S
C245 C244 1.380 1_565 S
C245 C246 1.388 . S
C245 H273 0.930 . S
C246 C245 1.388 . S
C246 C247 1.341 1_565 S
C247 C246 1.341 1_545 S
C247 C248 1.396 . S
C247 H274 0.929 . S
C248 C243 1.373 . S
C248 C247 1.396 . S
C248 H275 0.929 . S
C249 O262 1.240 . S
C249 O263 1.289 . S
C250 O264 1.258 . S
C250 O265 1.256 . S
C251 La241 2.928 . S
C251 C252 1.503 . S
C251 O266 1.261 . S
C251 O267 1.243 . S
C252 C251 1.503 . S
C252 C253 1.394 . S
C252 C257 1.373 . S
C253 C252 1.394 . S
C253 C254 1.380 . S
C253 H276 0.930 . S
C254 C253 1.380 . S
C254 C255 1.376 . S
C254 H277 0.930 . S
C255 C254 1.376 . S
C255 C256 1.370 . S
C256 C255 1.370 . S
C256 C257 1.396 . S
C256 H278 0.929 . S
C257 C252 1.373 . S
C257 C256 1.396 . S
C257 H279 0.929 . S
C258 O268 1.240 . S
C258 O269 1.289 . S
C259 O270 1.258 . S
C259 O271 1.256 . S
O260 La240 2.521 . S
O260 C242 1.261 . S
O261 La240 2.628 . S
O261 C242 1.243 . S
O262 La240 2.554 . S
O262 C249 1.240 . S
O263 La240 2.757 . S
O263 La241 2.482 . S
O263 C249 1.289 . S
O264 La240 2.470 . S
O264 C250 1.258 . S
O265 La241 2.503 . S
O265 C250 1.256 . S
O266 La241 2.521 . S
O266 C251 1.261 . S
O267 La241 2.628 . S
O267 C251 1.243 . S
O268 La241 2.554 . S
O268 C258 1.240 . S
O269 La240 2.482 . S
O269 La241 2.757 . S
O269 C258 1.289 . S
O270 La241 2.470 . S
O270 C259 1.258 . S
O271 La240 2.503 . S
O271 C259 1.256 . S
H272 C244 0.930 1_565 S
H273 C245 0.930 . S
H274 C247 0.929 . S
H275 C248 0.929 . S
H276 C253 0.930 . S
H277 C254 0.930 . S
H278 C256 0.929 . S
H279 C257 0.929 . S
La280 C282 2.928 . S
La280 O300 2.521 . S
La280 O301 2.628 . S
La280 O302 2.554 . S
La280 O303 2.757 . S
La280 O304 2.470 . S
La280 O309 2.482 . S
La280 O311 2.503 . S
La281 C291 2.928 . S
La281 O303 2.482 . S
La281 O305 2.503 . S
La281 O306 2.521 . S
La281 O307 2.628 . S
La281 O308 2.554 . S
La281 O309 2.757 . S
La281 O310 2.470 . S
C282 La280 2.928 . S
C282 C283 1.503 . S
C282 O300 1.261 . S
C282 O301 1.243 . S
C283 C282 1.503 . S
C283 C284 1.394 . S
C283 C288 1.373 . S
C284 C283 1.394 . S
C284 C285 1.380 . S
C284 H312 0.930 . S
C285 C284 1.380 . S
C285 C286 1.376 . S
C285 H313 0.930 . S
C286 C285 1.376 . S
C286 C287 1.370 . S
C287 C286 1.370 . S
C287 C288 1.396 . S
C287 H314 0.929 . S
C288 C283 1.373 . S
C288 C287 1.396 . S
C288 H315 0.929 . S
C289 O302 1.240 . S
C289 O303 1.289 . S
C290 O304 1.258 . S
C290 O305 1.256 . S
C291 La281 2.928 . S
C291 C292 1.503 1_455 S
C291 O306 1.261 . S
C291 O307 1.243 . S
C292 C291 1.503 1_655 S
C292 C293 1.394 . S
C292 C297 1.373 1_655 S
C293 C292 1.394 . S
C293 C294 1.380 . S
C293 H316 0.930 . S
C294 C293 1.380 . S
C294 C295 1.376 . S
C294 H317 0.930 . S
C295 C294 1.376 . S
C295 C296 1.370 . S
C296 C295 1.370 . S
C296 C297 1.396 1_655 S
C296 H318 0.929 . S
C297 C292 1.373 1_455 S
C297 C296 1.396 1_455 S
C297 H319 0.929 . S
C298 O308 1.240 . S
C298 O309 1.289 . S
C299 O310 1.258 . S
C299 O311 1.256 . S
O300 La280 2.521 . S
O300 C282 1.261 . S
O301 La280 2.628 . S
O301 C282 1.243 . S
O302 La280 2.554 . S
O302 C289 1.240 . S
O303 La280 2.757 . S
O303 La281 2.482 . S
O303 C289 1.289 . S
O304 La280 2.470 . S
O304 C290 1.258 . S
O305 La281 2.503 . S
O305 C290 1.256 . S
O306 La281 2.521 . S
O306 C291 1.261 . S
O307 La281 2.628 . S
O307 C291 1.243 . S
O308 La281 2.554 . S
O308 C298 1.240 . S
O309 La280 2.482 . S
O309 La281 2.757 . S
O309 C298 1.289 . S
O310 La281 2.470 . S
O310 C299 1.258 . S
O311 La280 2.503 . S
O311 C299 1.256 . S
H312 C284 0.930 . S
H313 C285 0.930 . S
H314 C287 0.929 . S
H315 C288 0.929 . S
H316 C293 0.930 . S
H317 C294 0.930 . S
H318 C296 0.929 . S
H319 C297 0.929 . S
La320 C322 2.928 . S
La320 O340 2.521 . S
La320 O341 2.628 . S
La320 O342 2.554 . S
La320 O343 2.757 . S
La320 O344 2.470 . S
La320 O349 2.482 . S
La320 O351 2.503 . S
La321 C331 2.928 . S
La321 O343 2.482 . S
La321 O345 2.503 . S
La321 O346 2.521 . S
La321 O347 2.628 . S
La321 O348 2.554 . S
La321 O349 2.757 . S
La321 O350 2.470 . S
C322 La320 2.928 . S
C322 C323 1.503 . S
C322 O340 1.261 . S
C322 O341 1.243 . S
C323 C322 1.503 . S
C323 C324 1.394 . S
C323 C328 1.373 . S
C324 C323 1.394 . S
C324 C325 1.380 . S
C324 H352 0.930 . S
C325 C324 1.380 . S
C325 C326 1.376 . S
C325 H353 0.930 . S
C326 C325 1.376 . S
C326 C327 1.370 . S
C327 C326 1.370 . S
C327 C328 1.396 . S
C327 H354 0.929 . S
C328 C323 1.373 . S
C328 C327 1.396 . S
C328 H355 0.929 . S
C329 O342 1.240 . S
C329 O343 1.289 . S
C330 O344 1.258 . S
C330 O345 1.256 . S
C331 La321 2.928 . S
C331 C332 1.503 . S
C331 O346 1.261 . S
C331 O347 1.243 . S
C332 C331 1.503 . S
C332 C333 1.394 . S
C332 C337 1.373 . S
C333 C332 1.394 . S
C333 C334 1.380 . S
C333 H356 0.930 . S
C334 C333 1.380 . S
C334 C335 1.376 . S
C334 H357 0.930 . S
C335 C334 1.376 . S
C335 C336 1.370 . S
C336 C335 1.370 . S
C336 C337 1.396 . S
C336 H358 0.929 . S
C337 C332 1.373 . S
C337 C336 1.396 . S
C337 H359 0.929 . S
C338 O348 1.240 . S
C338 O349 1.289 . S
C339 O350 1.258 . S
C339 O351 1.256 . S
O340 La320 2.521 . S
O340 C322 1.261 . S
O341 La320 2.628 . S
O341 C322 1.243 . S
O342 La320 2.554 . S
O342 C329 1.240 . S
O343 La320 2.757 . S
O343 La321 2.482 . S
O343 C329 1.289 . S
O344 La320 2.470 . S
O344 C330 1.258 . S
O345 La321 2.503 . S
O345 C330 1.256 . S
O346 La321 2.521 . S
O346 C331 1.261 . S
O347 La321 2.628 . S
O347 C331 1.243 . S
O348 La321 2.554 . S
O348 C338 1.240 . S
O349 La320 2.482 . S
O349 La321 2.757 . S
O349 C338 1.289 . S
O350 La321 2.470 . S
O350 C339 1.258 . S
O351 La320 2.503 . S
O351 C339 1.256 . S
H352 C324 0.930 . S
H353 C325 0.930 . S
H354 C327 0.929 . S
H355 C328 0.929 . S
H356 C333 0.930 . S
H357 C334 0.930 . S
H358 C336 0.929 . S
H359 C337 0.929 . S
La360 C362 2.928 . S
La360 O380 2.521 . S
La360 O381 2.628 1_545 S
La360 O382 2.554 . S
La360 O383 2.757 . S
La360 O384 2.470 . S
La360 O389 2.482 . S
La360 O391 2.503 . S
La361 C371 2.928 . S
La361 O383 2.482 . S
La361 O385 2.503 . S
La361 O386 2.521 . S
La361 O387 2.628 . S
La361 O388 2.554 . S
La361 O389 2.757 . S
La361 O390 2.470 . S
C362 La360 2.928 . S
C362 C363 1.503 1_445 S
C362 O380 1.261 . S
C362 O381 1.243 1_545 S
C363 C362 1.503 1_665 S
C363 C364 1.394 1_565 S
C363 C368 1.373 1_655 S
C364 C363 1.394 1_545 S
C364 C365 1.380 1_545 S
C364 H392 0.930 . S
C365 C364 1.380 1_565 S
C365 C366 1.376 . S
C365 H393 0.930 . S
C366 C365 1.376 . S
C366 C367 1.370 . S
C367 C366 1.370 . S
C367 C368 1.396 1_655 S
C367 H394 0.929 . S
C368 C363 1.373 1_455 S
C368 C367 1.396 1_455 S
C368 H395 0.929 . S
C369 O382 1.240 . S
C369 O383 1.289 . S
C370 O384 1.258 . S
C370 O385 1.256 . S
C371 La361 2.928 . S
C371 C372 1.503 . S
C371 O386 1.261 . S
C371 O387 1.243 . S
C372 C371 1.503 . S
C372 C373 1.394 . S
C372 C377 1.373 . S
C373 C372 1.394 . S
C373 C374 1.380 . S
C373 H396 0.930 . S
C374 C373 1.380 . S
C374 C375 1.376 . S
C374 H397 0.930 . S
C375 C374 1.376 . S
C375 C376 1.370 . S
C376 C375 1.370 . S
C376 C377 1.396 . S
C376 H398 0.929 . S
C377 C372 1.373 . S
C377 C376 1.396 . S
C377 H399 0.929 . S
C378 O388 1.240 . S
C378 O389 1.289 . S
C379 O390 1.258 . S
C379 O391 1.256 . S
O380 La360 2.521 . S
O380 C362 1.261 . S
O381 La360 2.628 1_565 S
O381 C362 1.243 1_565 S
O382 La360 2.554 . S
O382 C369 1.240 . S
O383 La360 2.757 . S
O383 La361 2.482 . S
O383 C369 1.289 . S
O384 La360 2.470 . S
O384 C370 1.258 . S
O385 La361 2.503 . S
O385 C370 1.256 . S
O386 La361 2.521 . S
O386 C371 1.261 . S
O387 La361 2.628 . S
O387 C371 1.243 . S
O388 La361 2.554 . S
O388 C378 1.240 . S
O389 La360 2.482 . S
O389 La361 2.757 . S
O389 C378 1.289 . S
O390 La361 2.470 . S
O390 C379 1.258 . S
O391 La360 2.503 . S
O391 C379 1.256 . S
H392 C364 0.930 . S
H393 C365 0.930 . S
H394 C367 0.929 . S
H395 C368 0.929 . S
H396 C373 0.930 . S
H397 C374 0.930 . S
H398 C376 0.929 . S
H399 C377 0.929 . S
La400 C402 2.928 . S
La400 O420 2.521 . S
La400 O421 2.628 . S
La400 O422 2.554 . S
La400 O423 2.757 . S
La400 O424 2.470 . S
La400 O429 2.482 . S
La400 O431 2.503 . S
La401 C411 2.928 . S
La401 O423 2.482 . S
La401 O425 2.503 . S
La401 O426 2.521 . S
La401 O427 2.628 . S
La401 O428 2.554 . S
La401 O429 2.757 . S
La401 O430 2.470 . S
C402 La400 2.928 . S
C402 C403 1.503 . S
C402 O420 1.261 . S
C402 O421 1.243 . S
C403 C402 1.503 . S
C403 C404 1.394 . S
C403 C408 1.373 . S
C404 C403 1.394 . S
C404 C405 1.380 . S
C404 H432 0.930 . S
C405 C404 1.380 . S
C405 C406 1.376 . S
C405 H433 0.930 . S
C406 C405 1.376 . S
C406 C407 1.370 . S
C407 C406 1.370 . S
C407 C408 1.396 . S
C407 H434 0.929 . S
C408 C403 1.373 . S
C408 C407 1.396 . S
C408 H435 0.929 . S
C409 O422 1.240 . S
C409 O423 1.289 . S
C410 O424 1.258 . S
C410 O425 1.256 . S
C411 La401 2.928 . S
C411 C412 1.503 . S
C411 O426 1.261 . S
C411 O427 1.243 . S
C412 C411 1.503 . S
C412 C413 1.394 . S
C412 C417 1.373 . S
C413 C412 1.394 . S
C413 C414 1.380 . S
C413 H436 0.930 . S
C414 C413 1.380 . S
C414 C415 1.376 . S
C414 H437 0.930 . S
C415 C414 1.376 . S
C415 C416 1.370 . S
C416 C415 1.370 . S
C416 C417 1.396 . S
C416 H438 0.929 . S
C417 C412 1.373 . S
C417 C416 1.396 . S
C417 H439 0.929 . S
C418 O428 1.240 . S
C418 O429 1.289 . S
C419 O430 1.258 . S
C419 O431 1.256 . S
O420 La400 2.521 . S
O420 C402 1.261 . S
O421 La400 2.628 . S
O421 C402 1.243 . S
O422 La400 2.554 . S
O422 C409 1.240 . S
O423 La400 2.757 . S
O423 La401 2.482 . S
O423 C409 1.289 . S
O424 La400 2.470 . S
O424 C410 1.258 . S
O425 La401 2.503 . S
O425 C410 1.256 . S
O426 La401 2.521 . S
O426 C411 1.261 . S
O427 La401 2.628 . S
O427 C411 1.243 . S
O428 La401 2.554 . S
O428 C418 1.240 . S
O429 La400 2.482 . S
O429 La401 2.757 . S
O429 C418 1.289 . S
O430 La401 2.470 . S
O430 C419 1.258 . S
O431 La400 2.503 . S
O431 C419 1.256 . S
H432 C404 0.930 . S
H433 C405 0.930 . S
H434 C407 0.929 . S
H435 C408 0.929 . S
H436 C413 0.930 . S
H437 C414 0.930 . S
H438 C416 0.929 . S
H439 C417 0.929 . S
La440 C442 2.928 . S
La440 O460 2.521 . S
La440 O461 2.628 1_565 S
La440 O462 2.554 . S
La440 O463 2.757 . S
La440 O464 2.470 . S
La440 O469 2.482 . S
La440 O471 2.503 . S
La441 C451 2.928 . S
La441 O463 2.482 . S
La441 O465 2.503 . S
La441 O466 2.521 . S
La441 O467 2.628 . S
La441 O468 2.554 . S
La441 O469 2.757 . S
La441 O470 2.470 . S
C442 La440 2.928 . S
C442 C443 1.503 1_565 S
C442 O460 1.261 . S
C442 O461 1.243 1_565 S
C443 C442 1.503 1_545 S
C443 C444 1.394 1_545 S
C443 C448 1.373 . S
C444 C443 1.394 1_565 S
C444 C445 1.380 1_565 S
C444 H472 0.930 . S
C445 C444 1.380 1_545 S
C445 C446 1.376 . S
C445 H473 0.930 . S
C446 C445 1.376 . S
C446 C447 1.370 . S
C447 C446 1.370 . S
C447 C448 1.396 . S
C447 H474 0.929 . S
C448 C443 1.373 . S
C448 C447 1.396 . S
C448 H475 0.929 . S
C449 O462 1.240 . S
C449 O463 1.289 . S
C450 O464 1.258 . S
C450 O465 1.256 . S
C451 La441 2.928 . S
C451 C452 1.503 . S
C451 O466 1.261 . S
C451 O467 1.243 . S
C452 C451 1.503 . S
C452 C453 1.394 . S
C452 C457 1.373 . S
C453 C452 1.394 . S
C453 C454 1.380 . S
C453 H476 0.930 . S
C454 C453 1.380 . S
C454 C455 1.376 . S
C454 H477 0.930 . S
C455 C454 1.376 . S
C455 C456 1.370 . S
C456 C455 1.370 . S
C456 C457 1.396 . S
C456 H478 0.929 . S
C457 C452 1.373 . S
C457 C456 1.396 . S
C457 H479 0.929 . S
C458 O468 1.240 . S
C458 O469 1.289 . S
C459 O470 1.258 . S
C459 O471 1.256 . S
O460 La440 2.521 . S
O460 C442 1.261 . S
O461 La440 2.628 1_545 S
O461 C442 1.243 1_545 S
O462 La440 2.554 . S
O462 C449 1.240 . S
O463 La440 2.757 . S
O463 La441 2.482 . S
O463 C449 1.289 . S
O464 La440 2.470 . S
O464 C450 1.258 . S
O465 La441 2.503 . S
O465 C450 1.256 . S
O466 La441 2.521 . S
O466 C451 1.261 . S
O467 La441 2.628 . S
O467 C451 1.243 . S
O468 La441 2.554 . S
O468 C458 1.240 . S
O469 La440 2.482 . S
O469 La441 2.757 . S
O469 C458 1.289 . S
O470 La441 2.470 . S
O470 C459 1.258 . S
O471 La440 2.503 . S
O471 C459 1.256 . S
H472 C444 0.930 . S
H473 C445 0.930 . S
H474 C447 0.929 . S
H475 C448 0.929 . S
H476 C453 0.930 . S
H477 C454 0.930 . S
H478 C456 0.929 . S
H479 C457 0.929 . S
La480 C482 2.928 . S
La480 O500 2.521 . S
La480 O501 2.628 . S
La480 O502 2.554 . S
La480 O503 2.757 . S
La480 O504 2.470 . S
La480 O509 2.482 . S
La480 O511 2.503 . S
La481 C491 2.928 . S
La481 O503 2.482 . S
La481 O505 2.503 . S
La481 O506 2.521 . S
La481 O507 2.628 . S
La481 O508 2.554 . S
La481 O509 2.757 . S
La481 O510 2.470 . S
C482 La480 2.928 . S
C482 C483 1.503 . S
C482 O500 1.261 . S
C482 O501 1.243 . S
C483 C482 1.503 . S
C483 C484 1.394 . S
C483 C488 1.373 . S
C484 C483 1.394 . S
C484 C485 1.380 . S
C484 H512 0.930 . S
C485 C484 1.380 . S
C485 C486 1.376 . S
C485 H513 0.930 . S
C486 C485 1.376 . S
C486 C487 1.370 . S
C487 C486 1.370 . S
C487 C488 1.396 . S
C487 H514 0.929 . S
C488 C483 1.373 . S
C488 C487 1.396 . S
C488 H515 0.929 . S
C489 O502 1.240 . S
C489 O503 1.289 . S
C490 O504 1.258 . S
C490 O505 1.256 . S
C491 La481 2.928 . S
C491 C492 1.503 . S
C491 O506 1.261 . S
C491 O507 1.243 . S
C492 C491 1.503 . S
C492 C493 1.394 . S
C492 C497 1.373 . S
C493 C492 1.394 . S
C493 C494 1.380 . S
C493 H516 0.930 . S
C494 C493 1.380 . S
C494 C495 1.376 . S
C494 H517 0.930 . S
C495 C494 1.376 . S
C495 C496 1.370 . S
C496 C495 1.370 . S
C496 C497 1.396 . S
C496 H518 0.929 . S
C497 C492 1.373 . S
C497 C496 1.396 . S
C497 H519 0.929 . S
C498 O508 1.240 . S
C498 O509 1.289 . S
C499 O510 1.258 . S
C499 O511 1.256 . S
O500 La480 2.521 . S
O500 C482 1.261 . S
O501 La480 2.628 . S
O501 C482 1.243 . S
O502 La480 2.554 . S
O502 C489 1.240 . S
O503 La480 2.757 . S
O503 La481 2.482 . S
O503 C489 1.289 . S
O504 La480 2.470 . S
O504 C490 1.258 . S
O505 La481 2.503 . S
O505 C490 1.256 . S
O506 La481 2.521 . S
O506 C491 1.261 . S
O507 La481 2.628 . S
O507 C491 1.243 . S
O508 La481 2.554 . S
O508 C498 1.240 . S
O509 La480 2.482 . S
O509 La481 2.757 . S
O509 C498 1.289 . S
O510 La481 2.470 . S
O510 C499 1.258 . S
O511 La480 2.503 . S
O511 C499 1.256 . S
H512 C484 0.930 . S
H513 C485 0.930 . S
H514 C487 0.929 . S
H515 C488 0.929 . S
H516 C493 0.930 . S
H517 C494 0.930 . S
H518 C496 0.929 . S
H519 C497 0.929 . S
La520 C522 2.928 . S
La520 O540 2.521 . S
La520 O541 2.628 . S
La520 O542 2.554 . S
La520 O543 2.757 . S
La520 O544 2.470 . S
La520 O549 2.482 . S
La520 O551 2.503 . S
La521 C531 2.928 . S
La521 O543 2.482 . S
La521 O545 2.503 . S
La521 O546 2.521 . S
La521 O547 2.628 1_565 S
La521 O548 2.554 . S
La521 O549 2.757 . S
La521 O550 2.470 . S
C522 La520 2.928 . S
C522 C523 1.503 . S
C522 O540 1.261 . S
C522 O541 1.243 . S
C523 C522 1.503 . S
C523 C524 1.394 . S
C523 C528 1.373 . S
C524 C523 1.394 . S
C524 C525 1.380 . S
C524 H552 0.930 . S
C525 C524 1.380 . S
C525 C526 1.376 . S
C525 H553 0.930 . S
C526 C525 1.376 . S
C526 C527 1.370 . S
C527 C526 1.370 . S
C527 C528 1.396 . S
C527 H554 0.929 . S
C528 C523 1.373 . S
C528 C527 1.396 . S
C528 H555 0.929 . S
C529 O542 1.240 . S
C529 O543 1.289 . S
C530 O544 1.258 . S
C530 O545 1.256 . S
C531 La521 2.928 . S
C531 C532 1.503 1_665 S
C531 O546 1.261 . S
C531 O547 1.243 1_565 S
C532 C531 1.503 1_445 S
C532 C533 1.394 1_545 S
C532 C537 1.373 1_455 S
C533 C532 1.394 1_565 S
C533 C534 1.380 1_565 S
C533 H556 0.930 . S
C534 C533 1.380 1_545 S
C534 C535 1.376 . S
C534 H557 0.930 . S
C535 C534 1.376 . S
C535 C536 1.370 . S
C536 C535 1.370 . S
C536 C537 1.396 1_455 S
C536 H558 0.929 . S
C537 C532 1.373 1_655 S
C537 C536 1.396 1_655 S
C537 H559 0.929 . S
C538 O548 1.240 . S
C538 O549 1.289 . S
C539 O550 1.258 . S
C539 O551 1.256 . S
O540 La520 2.521 . S
O540 C522 1.261 . S
O541 La520 2.628 . S
O541 C522 1.243 . S
O542 La520 2.554 . S
O542 C529 1.240 . S
O543 La520 2.757 . S
O543 La521 2.482 . S
O543 C529 1.289 . S
O544 La520 2.470 . S
O544 C530 1.258 . S
O545 La521 2.503 . S
O545 C530 1.256 . S
O546 La521 2.521 . S
O546 C531 1.261 . S
O547 La521 2.628 1_545 S
O547 C531 1.243 1_545 S
O548 La521 2.554 . S
O548 C538 1.240 . S
O549 La520 2.482 . S
O549 La521 2.757 . S
O549 C538 1.289 . S
O550 La521 2.470 . S
O550 C539 1.258 . S
O551 La520 2.503 . S
O551 C539 1.256 . S
H552 C524 0.930 . S
H553 C525 0.930 . S
H554 C527 0.929 . S
H555 C528 0.929 . S
H556 C533 0.930 . S
H557 C534 0.930 . S
H558 C536 0.929 . S
H559 C537 0.929 . S
La560 C562 2.928 . S
La560 O580 2.521 . S
La560 O581 2.628 . S
La560 O582 2.554 . S
La560 O583 2.757 . S
La560 O584 2.470 . S
La560 O589 2.482 . S
La560 O591 2.503 . S
La561 C571 2.928 . S
La561 O583 2.482 . S
La561 O585 2.503 . S
La561 O586 2.521 . S
La561 O587 2.628 . S
La561 O588 2.554 . S
La561 O589 2.757 . S
La561 O590 2.470 . S
C562 La560 2.928 . S
C562 C563 1.503 . S
C562 O580 1.261 . S
C562 O581 1.243 . S
C563 C562 1.503 . S
C563 C564 1.394 . S
C563 C568 1.373 . S
C564 C563 1.394 . S
C564 C565 1.380 . S
C564 H592 0.930 . S
C565 C564 1.380 . S
C565 C566 1.376 . S
C565 H593 0.930 . S
C566 C565 1.376 . S
C566 C567 1.370 . S
C567 C566 1.370 . S
C567 C568 1.396 . S
C567 H594 0.929 . S
C568 C563 1.373 . S
C568 C567 1.396 . S
C568 H595 0.929 . S
C569 O582 1.240 . S
C569 O583 1.289 . S
C570 O584 1.258 . S
C570 O585 1.256 . S
C571 La561 2.928 . S
C571 C572 1.503 . S
C571 O586 1.261 . S
C571 O587 1.243 . S
C572 C571 1.503 . S
C572 C573 1.394 . S
C572 C577 1.373 . S
C573 C572 1.394 . S
C573 C574 1.380 . S
C573 H596 0.930 . S
C574 C573 1.380 . S
C574 C575 1.376 . S
C574 H597 0.930 . S
C575 C574 1.376 . S
C575 C576 1.370 . S
C576 C575 1.370 . S
C576 C577 1.396 . S
C576 H598 0.929 . S
C577 C572 1.373 . S
C577 C576 1.396 . S
C577 H599 0.929 . S
C578 O588 1.240 . S
C578 O589 1.289 . S
C579 O590 1.258 . S
C579 O591 1.256 . S
O580 La560 2.521 . S
O580 C562 1.261 . S
O581 La560 2.628 . S
O581 C562 1.243 . S
O582 La560 2.554 . S
O582 C569 1.240 . S
O583 La560 2.757 . S
O583 La561 2.482 . S
O583 C569 1.289 . S
O584 La560 2.470 . S
O584 C570 1.258 . S
O585 La561 2.503 . S
O585 C570 1.256 . S
O586 La561 2.521 . S
O586 C571 1.261 . S
O587 La561 2.628 . S
O587 C571 1.243 . S
O588 La561 2.554 . S
O588 C578 1.240 . S
O589 La560 2.482 . S
O589 La561 2.757 . S
O589 C578 1.289 . S
O590 La561 2.470 . S
O590 C579 1.258 . S
O591 La560 2.503 . S
O591 C579 1.256 . S
H592 C564 0.930 . S
H593 C565 0.930 . S
H594 C567 0.929 . S
H595 C568 0.929 . S
H596 C573 0.930 . S
H597 C574 0.930 . S
H598 C576 0.929 . S
H599 C577 0.929 . S
La600 C602 2.928 . S
La600 O620 2.521 . S
La600 O621 2.628 . S
La600 O622 2.554 . S
La600 O623 2.757 . S
La600 O624 2.470 . S
La600 O629 2.482 . S
La600 O631 2.503 . S
La601 C611 2.928 . S
La601 O623 2.482 . S
La601 O625 2.503 . S
La601 O626 2.521 . S
La601 O627 2.628 1_545 S
La601 O628 2.554 . S
La601 O629 2.757 . S
La601 O630 2.470 . S
C602 La600 2.928 . S
C602 C603 1.503 . S
C602 O620 1.261 . S
C602 O621 1.243 . S
C603 C602 1.503 . S
C603 C604 1.394 . S
C603 C608 1.373 . S
C604 C603 1.394 . S
C604 C605 1.380 . S
C604 H632 0.930 . S
C605 C604 1.380 . S
C605 C606 1.376 . S
C605 H633 0.930 . S
C606 C605 1.376 . S
C606 C607 1.370 . S
C607 C606 1.370 . S
C607 C608 1.396 . S
C607 H634 0.929 . S
C608 C603 1.373 . S
C608 C607 1.396 . S
C608 H635 0.929 . S
C609 O622 1.240 . S
C609 O623 1.289 . S
C610 O624 1.258 . S
C610 O625 1.256 . S
C611 La601 2.928 . S
C611 C612 1.503 1_545 S
C611 O626 1.261 . S
C611 O627 1.243 1_545 S
C612 C611 1.503 1_565 S
C612 C613 1.394 1_565 S
C612 C617 1.373 . S
C613 C612 1.394 1_545 S
C613 C614 1.380 1_545 S
C613 H636 0.930 . S
C614 C613 1.380 1_565 S
C614 C615 1.376 . S
C614 H637 0.930 . S
C615 C614 1.376 . S
C615 C616 1.370 . S
C616 C615 1.370 . S
C616 C617 1.396 . S
C616 H638 0.929 . S
C617 C612 1.373 . S
C617 C616 1.396 . S
C617 H639 0.929 . S
C618 O628 1.240 . S
C618 O629 1.289 . S
C619 O630 1.258 . S
C619 O631 1.256 . S
O620 La600 2.521 . S
O620 C602 1.261 . S
O621 La600 2.628 . S
O621 C602 1.243 . S
O622 La600 2.554 . S
O622 C609 1.240 . S
O623 La600 2.757 . S
O623 La601 2.482 . S
O623 C609 1.289 . S
O624 La600 2.470 . S
O624 C610 1.258 . S
O625 La601 2.503 . S
O625 C610 1.256 . S
O626 La601 2.521 . S
O626 C611 1.261 . S
O627 La601 2.628 1_565 S
O627 C611 1.243 1_565 S
O628 La601 2.554 . S
O628 C618 1.240 . S
O629 La600 2.482 . S
O629 La601 2.757 . S
O629 C618 1.289 . S
O630 La601 2.470 . S
O630 C619 1.258 . S
O631 La600 2.503 . S
O631 C619 1.256 . S
H632 C604 0.930 . S
H633 C605 0.930 . S
H634 C607 0.929 . S
H635 C608 0.929 . S
H636 C613 0.930 . S
H637 C614 0.930 . S
H638 C616 0.929 . S
H639 C617 0.929 . S
H640 C648 0.950 . S
H641 C653 0.950 . S
H642 C650 0.950 . S
H643 C652 0.950 . S
H644 C654 0.950 . S
H645 C656 0.950 . S
H646 C658 0.950 . S
H647 C659 0.950 . S
C648 H640 0.950 . S
C648 C649 1.386 . S
C648 C650 1.391 . S
C649 C648 1.386 . S
C649 C653 1.393 . S
C650 H642 0.950 . S
C650 C648 1.391 . S
C650 C651 1.400 . S
C651 C650 1.400 . S
C651 C652 1.398 . S
C651 C657 1.491 . S
C652 H643 0.950 . S
C652 C651 1.398 . S
C652 C653 1.391 . S
C653 H641 0.950 . S
C653 C649 1.393 . S
C653 C652 1.391 . S
C654 H644 0.950 . S
C654 C655 1.386 . S
C654 C656 1.391 . S
C655 C654 1.386 . S
C655 C659 1.393 . S
C656 H645 0.950 . S
C656 C654 1.391 . S
C656 C657 1.400 . S
C657 C651 1.491 . S
C657 C656 1.400 . S
C657 C658 1.398 . S
C658 H646 0.950 . S
C658 C657 1.398 . S
C658 C659 1.391 . S
C659 H647 0.950 . S
C659 C655 1.393 . S
C659 C658 1.391 . S
H660 C668 0.950 . S
H661 C673 0.950 . S
H662 C670 0.950 . S
H663 C672 0.950 . S
H664 C674 0.950 . S
H665 C676 0.950 . S
H666 C678 0.950 . S
H667 C679 0.950 . S
C668 H660 0.950 . S
C668 C669 1.386 . S
C668 C670 1.391 . S
C669 C668 1.386 . S
C669 C673 1.393 . S
C670 H662 0.950 . S
C670 C668 1.391 . S
C670 C671 1.400 . S
C671 C670 1.400 . S
C671 C672 1.398 . S
C671 C677 1.491 . S
C672 H663 0.950 . S
C672 C671 1.398 . S
C672 C673 1.391 . S
C673 H661 0.950 . S
C673 C669 1.393 . S
C673 C672 1.391 . S
C674 H664 0.950 . S
C674 C675 1.386 . S
C674 C676 1.391 . S
C675 C674 1.386 . S
C675 C679 1.393 . S
C676 H665 0.950 . S
C676 C674 1.391 . S
C676 C677 1.400 . S
C677 C671 1.491 . S
C677 C676 1.400 . S
C677 C678 1.398 . S
C678 H666 0.950 . S
C678 C677 1.398 . S
C678 C679 1.391 . S
C679 H667 0.950 . S
C679 C675 1.393 . S
C679 C678 1.391 . S
H680 C688 0.950 . S
H681 C693 0.950 . S
H682 C690 0.950 . S
H683 C692 0.950 . S
H684 C694 0.950 . S
H685 C696 0.950 . S
H686 C698 0.950 . S
H687 C699 0.950 . S
C688 H680 0.950 . S
C688 C689 1.386 . S
C688 C690 1.391 . S
C689 C688 1.386 . S
C689 C693 1.393 . S
C690 H682 0.950 . S
C690 C688 1.391 . S
C690 C691 1.400 . S
C691 C690 1.400 . S
C691 C692 1.398 . S
C691 C697 1.491 1_455 S
C692 H683 0.950 . S
C692 C691 1.398 . S
C692 C693 1.391 . S
C693 H681 0.950 . S
C693 C689 1.393 . S
C693 C692 1.391 . S
C694 H684 0.950 . S
C694 C695 1.386 . S
C694 C696 1.391 . S
C695 C694 1.386 . S
C695 C699 1.393 . S
C696 H685 0.950 . S
C696 C694 1.391 . S
C696 C697 1.400 . S
C697 C691 1.491 1_655 S
C697 C696 1.400 . S
C697 C698 1.398 . S
C698 H686 0.950 . S
C698 C697 1.398 . S
C698 C699 1.391 . S
C699 H687 0.950 . S
C699 C695 1.393 . S
C699 C698 1.391 . S
H700 C708 0.950 . S
H701 C713 0.950 . S
H702 C710 0.950 . S
H703 C712 0.950 . S
H704 C714 0.950 . S
H705 C716 0.950 . S
H706 C718 0.950 . S
H707 C719 0.950 . S
C708 H700 0.950 . S
C708 C709 1.386 . S
C708 C710 1.391 . S
C709 C708 1.386 . S
C709 C713 1.393 . S
C710 H702 0.950 . S
C710 C708 1.391 . S
C710 C711 1.400 . S
C711 C710 1.400 . S
C711 C712 1.398 1_455 S
C711 C717 1.491 1_455 S
C712 H703 0.950 . S
C712 C711 1.398 1_655 S
C712 C713 1.391 1_655 S
C713 H701 0.950 . S
C713 C709 1.393 . S
C713 C712 1.391 1_455 S
C714 H704 0.950 . S
C714 C715 1.386 . S
C714 C716 1.391 . S
C715 C714 1.386 . S
C715 C719 1.393 . S
C716 H705 0.950 . S
C716 C714 1.391 . S
C716 C717 1.400 . S
C717 C711 1.491 1_655 S
C717 C716 1.400 . S
C717 C718 1.398 1_655 S
C718 H706 0.950 . S
C718 C717 1.398 1_455 S
C718 C719 1.391 1_455 S
C719 H707 0.950 . S
C719 C715 1.393 . S
C719 C718 1.391 1_655 S
H720 C728 0.950 . S
H721 C733 0.950 . S
H722 C730 0.950 . S
H723 C732 0.950 . S
H724 C734 0.950 . S
H725 C736 0.950 . S
H726 C738 0.950 . S
H727 C739 0.950 . S
C728 H720 0.950 . S
C728 C729 1.386 . S
C728 C730 1.391 . S
C729 C728 1.386 . S
C729 C733 1.393 . S
C730 H722 0.950 . S
C730 C728 1.391 . S
C730 C731 1.400 . S
C731 C730 1.400 . S
C731 C732 1.398 . S
C731 C737 1.491 . S
C732 H723 0.950 . S
C732 C731 1.398 . S
C732 C733 1.391 . S
C733 H721 0.950 . S
C733 C729 1.393 . S
C733 C732 1.391 . S
C734 H724 0.950 . S
C734 C735 1.386 . S
C734 C736 1.391 . S
C735 C734 1.386 . S
C735 C739 1.393 . S
C736 H725 0.950 . S
C736 C734 1.391 . S
C736 C737 1.400 . S
C737 C731 1.491 . S
C737 C736 1.400 . S
C737 C738 1.398 . S
C738 H726 0.950 . S
C738 C737 1.398 . S
C738 C739 1.391 . S
C739 H727 0.950 . S
C739 C735 1.393 . S
C739 C738 1.391 . S
H740 C748 0.950 . S
H741 C753 0.950 . S
H742 C750 0.950 . S
H743 C752 0.950 . S
H744 C754 0.950 . S
H745 C756 0.950 . S
H746 C758 0.950 . S
H747 C759 0.950 . S
C748 H740 0.950 . S
C748 C749 1.386 . S
C748 C750 1.391 . S
C749 C748 1.386 . S
C749 C753 1.393 . S
C750 H742 0.950 . S
C750 C748 1.391 . S
C750 C751 1.400 . S
C751 C750 1.400 . S
C751 C752 1.398 . S
C751 C757 1.491 . S
C752 H743 0.950 . S
C752 C751 1.398 . S
C752 C753 1.391 . S
C753 H741 0.950 . S
C753 C749 1.393 . S
C753 C752 1.391 . S
C754 H744 0.950 . S
C754 C755 1.386 . S
C754 C756 1.391 . S
C755 C754 1.386 . S
C755 C759 1.393 . S
C756 H745 0.950 . S
C756 C754 1.391 . S
C756 C757 1.400 . S
C757 C751 1.491 . S
C757 C756 1.400 . S
C757 C758 1.398 . S
C758 H746 0.950 . S
C758 C757 1.398 . S
C758 C759 1.391 . S
C759 H747 0.950 . S
C759 C755 1.393 . S
C759 C758 1.391 . S
H760 C768 0.950 . S
H761 C773 0.950 . S
H762 C770 0.950 . S
H763 C772 0.950 . S
H764 C774 0.950 . S
H765 C776 0.950 . S
H766 C778 0.950 . S
H767 C779 0.950 . S
C768 H760 0.950 . S
C768 C769 1.386 . S
C768 C770 1.391 . S
C769 C768 1.386 . S
C769 C773 1.393 . S
C770 H762 0.950 . S
C770 C768 1.391 . S
C770 C771 1.400 . S
C771 C770 1.400 . S
C771 C772 1.398 . S
C771 C777 1.491 1_455 S
C772 H763 0.950 . S
C772 C771 1.398 . S
C772 C773 1.391 . S
C773 H761 0.950 . S
C773 C769 1.393 . S
C773 C772 1.391 . S
C774 H764 0.950 . S
C774 C775 1.386 . S
C774 C776 1.391 . S
C775 C774 1.386 . S
C775 C779 1.393 . S
C776 H765 0.950 . S
C776 C774 1.391 . S
C776 C777 1.400 . S
C777 C771 1.491 1_655 S
C777 C776 1.400 . S
C777 C778 1.398 . S
C778 H766 0.950 . S
C778 C777 1.398 . S
C778 C779 1.391 . S
C779 H767 0.950 . S
C779 C775 1.393 . S
C779 C778 1.391 . S
H780 C788 0.950 . S
H781 C793 0.950 . S
H782 C790 0.950 . S
H783 C792 0.950 1_655 S
H784 C794 0.950 . S
H785 C796 0.950 . S
H786 C798 0.950 1_455 S
H787 C799 0.950 . S
C788 H780 0.950 . S
C788 C789 1.386 . S
C788 C790 1.391 . S
C789 C788 1.386 . S
C789 C793 1.393 . S
C790 H782 0.950 . S
C790 C788 1.391 . S
C790 C791 1.400 . S
C791 C790 1.400 . S
C791 C792 1.398 . S
C791 C797 1.491 1_455 S
C792 H783 0.950 1_455 S
C792 C791 1.398 . S
C792 C793 1.391 . S
C793 H781 0.950 . S
C793 C789 1.393 . S
C793 C792 1.391 . S
C794 H784 0.950 . S
C794 C795 1.386 . S
C794 C796 1.391 . S
C795 C794 1.386 . S
C795 C799 1.393 . S
C796 H785 0.950 . S
C796 C794 1.391 . S
C796 C797 1.400 . S
C797 C791 1.491 1_655 S
C797 C796 1.400 . S
C797 C798 1.398 . S
C798 H786 0.950 1_655 S
C798 C797 1.398 . S
C798 C799 1.391 . S
C799 H787 0.950 . S
C799 C795 1.393 . S
C799 C798 1.391 . S
H800 C808 0.950 . S
H801 C813 0.950 . S
H802 C810 0.950 . S
H803 C812 0.935 1_556 S
H804 C814 0.950 . S
H805 C816 0.950 . S
H806 C818 0.935 1_554 S
H807 C819 0.950 . S
C808 H800 0.950 . S
C808 C809 1.386 . S
C808 C810 1.391 . S
C809 C808 1.386 . S
C809 C813 1.393 1_565 S
C810 H802 0.950 . S
C810 C808 1.391 . S
C810 C811 1.400 . S
C811 C810 1.400 . S
C811 C812 1.403 1_565 S
C811 C817 1.491 1_564 S
C812 H803 0.935 1_554 S
C812 C811 1.403 1_545 S
C812 C813 1.405 . S
C813 H801 0.950 . S
C813 C809 1.393 1_545 S
C813 C812 1.405 . S
C814 H804 0.950 . S
C814 C815 1.386 . S
C814 C816 1.391 . S
C815 C814 1.386 . S
C815 C819 1.393 1_545 S
C816 H805 0.950 . S
C816 C814 1.391 . S
C816 C817 1.400 . S
C817 C811 1.491 1_546 S
C817 C816 1.400 . S
C817 C818 1.403 1_545 S
C818 H806 0.935 1_556 S
C818 C817 1.403 1_565 S
C818 C819 1.405 . S
C819 H807 0.950 . S
C819 C815 1.393 1_565 S
C819 C818 1.405 . S
H820 C828 0.950 . S
H821 C833 0.950 . S
H822 C830 0.950 . S
H823 C832 0.950 . S
H824 C834 0.950 . S
H825 C836 0.950 . S
H826 C838 0.950 . S
H827 C839 0.950 . S
C828 H820 0.950 . S
C828 C829 1.386 . S
C828 C830 1.391 . S
C829 C828 1.386 . S
C829 C833 1.393 . S
C830 H822 0.950 . S
C830 C828 1.391 . S
C830 C831 1.400 . S
C831 C830 1.400 . S
C831 C832 1.398 . S
C831 C837 1.491 . S
C832 H823 0.950 . S
C832 C831 1.398 . S
C832 C833 1.391 . S
C833 H821 0.950 . S
C833 C829 1.393 . S
C833 C832 1.391 . S
C834 H824 0.950 . S
C834 C835 1.386 . S
C834 C836 1.391 . S
C835 C834 1.386 . S
C835 C839 1.393 . S
C836 H825 0.950 . S
C836 C834 1.391 . S
C836 C837 1.400 . S
C837 C831 1.491 . S
C837 C836 1.400 . S
C837 C838 1.398 . S
C838 H826 0.950 . S
C838 C837 1.398 . S
C838 C839 1.391 . S
C839 H827 0.950 . S
C839 C835 1.393 . S
C839 C838 1.391 . S
H840 C848 0.950 . S
H841 C853 0.950 . S
H842 C850 0.950 . S
H843 C852 0.950 . S
H844 C854 0.950 . S
H845 C856 0.950 . S
H846 C858 0.950 . S
H847 C859 0.950 . S
C848 H840 0.950 . S
C848 C849 1.386 . S
C848 C850 1.391 . S
C849 C848 1.386 . S
C849 C853 1.393 1_545 S
C850 H842 0.950 . S
C850 C848 1.391 . S
C850 C851 1.400 . S
C851 C850 1.400 . S
C851 C852 1.398 1_545 S
C851 C857 1.491 1_445 S
C852 H843 0.950 . S
C852 C851 1.398 1_565 S
C852 C853 1.391 . S
C853 H841 0.950 . S
C853 C849 1.393 1_565 S
C853 C852 1.391 . S
C854 H844 0.950 . S
C854 C855 1.386 . S
C854 C856 1.391 . S
C855 C854 1.386 . S
C855 C859 1.393 1_565 S
C856 H845 0.950 . S
C856 C854 1.391 . S
C856 C857 1.400 . S
C857 C851 1.491 1_665 S
C857 C856 1.400 . S
C857 C858 1.398 1_565 S
C858 H846 0.950 . S
C858 C857 1.398 1_545 S
C858 C859 1.391 . S
C859 H847 0.950 . S
C859 C855 1.393 1_545 S
C859 C858 1.391 . S
H860 C868 0.950 . S
H861 C873 0.950 . S
H862 C870 0.950 . S
H863 C872 0.950 . S
H864 C874 0.950 . S
H865 C876 0.950 . S
H866 C878 0.950 . S
H867 C879 0.950 . S
C868 H860 0.950 . S
C868 C869 1.386 . S
C868 C870 1.391 . S
C869 C868 1.386 . S
C869 C873 1.393 . S
C870 H862 0.950 . S
C870 C868 1.391 . S
C870 C871 1.400 . S
C871 C870 1.400 . S
C871 C872 1.398 . S
C871 C877 1.491 . S
C872 H863 0.950 . S
C872 C871 1.398 . S
C872 C873 1.391 . S
C873 H861 0.950 . S
C873 C869 1.393 . S
C873 C872 1.391 . S
C874 H864 0.950 . S
C874 C875 1.386 . S
C874 C876 1.391 . S
C875 C874 1.386 . S
C875 C879 1.393 . S
C876 H865 0.950 . S
C876 C874 1.391 . S
C876 C877 1.400 . S
C877 C871 1.491 . S
C877 C876 1.400 . S
C877 C878 1.398 . S
C878 H866 0.950 . S
C878 C877 1.398 . S
C878 C879 1.391 . S
C879 H867 0.950 . S
C879 C875 1.393 . S
C879 C878 1.391 . S
H880 C888 0.950 . S
H881 C893 0.950 . S
H882 C890 0.950 . S
H883 C892 0.950 . S
H884 C894 0.950 . S
H885 C896 0.950 . S
H886 C898 0.950 . S
H887 C899 0.950 . S
C888 H880 0.950 . S
C888 C889 1.386 . S
C888 C890 1.391 . S
C889 C888 1.386 . S
C889 C893 1.393 . S
C890 H882 0.950 . S
C890 C888 1.391 . S
C890 C891 1.400 . S
C891 C890 1.400 . S
C891 C892 1.398 . S
C891 C897 1.491 . S
C892 H883 0.950 . S
C892 C891 1.398 . S
C892 C893 1.391 . S
C893 H881 0.950 . S
C893 C889 1.393 . S
C893 C892 1.391 . S
C894 H884 0.950 . S
C894 C895 1.386 . S
C894 C896 1.391 . S
C895 C894 1.386 . S
C895 C899 1.393 . S
C896 H885 0.950 . S
C896 C894 1.391 . S
C896 C897 1.400 . S
C897 C891 1.491 . S
C897 C896 1.400 . S
C897 C898 1.398 . S
C898 H886 0.950 . S
C898 C897 1.398 . S
C898 C899 1.391 . S
C899 H887 0.950 . S
C899 C895 1.393 . S
C899 C898 1.391 . S
H900 C908 0.950 . S
H901 C913 0.950 . S
H902 C910 0.950 . S
H903 C912 0.950 . S
H904 C914 0.950 . S
H905 C916 0.950 . S
H906 C918 0.950 . S
H907 C919 0.950 . S
C908 H900 0.950 . S
C908 C909 1.386 . S
C908 C910 1.391 . S
C909 C908 1.386 . S
C909 C913 1.393 . S
C910 H902 0.950 . S
C910 C908 1.391 . S
C910 C911 1.400 . S
C911 C910 1.400 . S
C911 C912 1.398 . S
C911 C917 1.491 . S
C912 H903 0.950 . S
C912 C911 1.398 . S
C912 C913 1.391 . S
C913 H901 0.950 . S
C913 C909 1.393 . S
C913 C912 1.391 . S
C914 H904 0.950 . S
C914 C915 1.386 . S
C914 C916 1.391 . S
C915 C914 1.386 . S
C915 C919 1.393 . S
C916 H905 0.950 . S
C916 C914 1.391 . S
C916 C917 1.400 . S
C917 C911 1.491 . S
C917 C916 1.400 . S
C917 C918 1.398 . S
C918 H906 0.950 . S
C918 C917 1.398 . S
C918 C919 1.391 . S
C919 H907 0.950 . S
C919 C915 1.393 . S
C919 C918 1.391 . S
H920 C928 0.950 . S
H921 C933 0.950 . S
H922 C930 0.950 . S
H923 C932 0.950 . S
H924 C934 0.950 . S
H925 C936 0.950 . S
H926 C938 0.950 . S
H927 C939 0.950 . S
C928 H920 0.950 . S
C928 C929 1.386 . S
C928 C930 1.391 . S
C929 C928 1.386 . S
C929 C933 1.393 . S
C930 H922 0.950 . S
C930 C928 1.391 . S
C930 C931 1.400 . S
C931 C930 1.400 . S
C931 C932 1.398 . S
C931 C937 1.491 1_455 S
C932 H923 0.950 . S
C932 C931 1.398 . S
C932 C933 1.391 . S
C933 H921 0.950 . S
C933 C929 1.393 . S
C933 C932 1.391 . S
C934 H924 0.950 . S
C934 C935 1.386 . S
C934 C936 1.391 . S
C935 C934 1.386 . S
C935 C939 1.393 . S
C936 H925 0.950 . S
C936 C934 1.391 . S
C936 C937 1.400 . S
C937 C931 1.491 1_655 S
C937 C936 1.400 . S
C937 C938 1.398 . S
C938 H926 0.950 . S
C938 C937 1.398 . S
C938 C939 1.391 . S
C939 H927 0.950 . S
C939 C935 1.393 . S
C939 C938 1.391 . S
H940 C948 0.950 . S
H941 C953 0.950 . S
H942 C950 0.950 . S
H943 C952 0.950 . S
H944 C954 0.950 . S
H945 C956 0.950 . S
H946 C958 0.950 . S
H947 C959 0.950 . S
C948 H940 0.950 . S
C948 C949 1.386 . S
C948 C950 1.391 . S
C949 C948 1.386 . S
C949 C953 1.393 1_554 S
C950 H942 0.950 . S
C950 C948 1.391 . S
C950 C951 1.400 . S
C951 C950 1.400 . S
C951 C952 1.398 1_554 S
C951 C957 1.491 1_554 S
C952 H943 0.950 . S
C952 C951 1.398 1_556 S
C952 C953 1.391 . S
C953 H941 0.950 . S
C953 C949 1.393 1_556 S
C953 C952 1.391 . S
C954 H944 0.950 . S
C954 C955 1.386 . S
C954 C956 1.391 . S
C955 C954 1.386 . S
C955 C959 1.393 1_556 S
C956 H945 0.950 . S
C956 C954 1.391 . S
C956 C957 1.400 . S
C957 C951 1.491 1_556 S
C957 C956 1.400 . S
C957 C958 1.398 1_556 S
C958 H946 0.950 . S
C958 C957 1.398 1_554 S
C958 C959 1.391 . S
C959 H947 0.950 . S
C959 C955 1.393 1_554 S
C959 C958 1.391 . S
H960 C968 0.950 . S
H961 C973 0.950 . S
H962 C970 0.950 . S
H963 C972 0.950 . S
H964 C974 0.950 . S
H965 C976 0.950 . S
H966 C978 0.950 . S
H967 C979 0.950 . S
C968 H960 0.950 . S
C968 C969 1.386 . S
C968 C970 1.391 . S
C969 C968 1.386 . S
C969 C973 1.393 . S
C970 H962 0.950 . S
C970 C968 1.391 . S
C970 C971 1.400 . S
C971 C970 1.400 . S
C971 C972 1.398 . S
C971 C977 1.491 . S
C972 H963 0.950 . S
C972 C971 1.398 . S
C972 C973 1.391 . S
C973 H961 0.950 . S
C973 C969 1.393 . S
C973 C972 1.391 . S
C974 H964 0.950 . S
C974 C975 1.386 . S
C974 C976 1.391 . S
C975 C974 1.386 . S
C975 C979 1.393 . S
C976 H965 0.950 . S
C976 C974 1.391 . S
C976 C977 1.400 . S
C977 C971 1.491 . S
C977 C976 1.400 . S
C977 C978 1.398 . S
C978 H966 0.950 . S
C978 C977 1.398 . S
C978 C979 1.391 . S
C979 H967 0.950 . S
C979 C975 1.393 . S
C979 C978 1.391 . S
H980 C988 0.950 . S
H981 C993 0.950 . S
H982 C990 0.950 . S
H983 C992 0.950 . S
H984 C994 0.950 . S
H985 C996 0.950 . S
H986 C998 0.950 . S
H987 C999 0.950 . S
C988 H980 0.950 . S
C988 C989 1.386 . S
C988 C990 1.391 . S
C989 C988 1.386 . S
C989 C993 1.393 . S
C990 H982 0.950 . S
C990 C988 1.391 . S
C990 C991 1.400 . S
C991 C990 1.400 . S
C991 C992 1.398 . S
C991 C997 1.491 . S
C992 H983 0.950 . S
C992 C991 1.398 . S
C992 C993 1.391 . S
C993 H981 0.950 . S
C993 C989 1.393 . S
C993 C992 1.391 . S
C994 H984 0.950 . S
C994 C995 1.386 . S
C994 C996 1.391 . S
C995 C994 1.386 . S
C995 C999 1.393 . S
C996 H985 0.950 . S
C996 C994 1.391 . S
C996 C997 1.400 . S
C997 C991 1.491 . S
C997 C996 1.400 . S
C997 C998 1.398 . S
C998 H986 0.950 . S
C998 C997 1.398 . S
C998 C999 1.391 . S
C999 H987 0.950 . S
C999 C995 1.393 . S
C999 C998 1.391 . S
H1000 C1008 0.950 . S
H1001 C1013 0.950 . S
H1002 C1010 0.950 . S
H1003 C1012 0.950 . S
H1004 C1014 0.950 . S
H1005 C1016 0.950 . S
H1006 C1018 0.950 . S
H1007 C1019 0.950 . S
C1008 H1000 0.950 . S
C1008 C1009 1.386 . S
C1008 C1010 1.391 . S
C1009 C1008 1.386 . S
C1009 C1013 1.393 . S
C1010 H1002 0.950 . S
C1010 C1008 1.391 . S
C1010 C1011 1.400 . S
C1011 C1010 1.400 . S
C1011 C1012 1.398 . S
C1011 C1017 1.491 . S
C1012 H1003 0.950 . S
C1012 C1011 1.398 . S
C1012 C1013 1.391 . S
C1013 H1001 0.950 . S
C1013 C1009 1.393 . S
C1013 C1012 1.391 . S
C1014 H1004 0.950 . S
C1014 C1015 1.386 . S
C1014 C1016 1.391 . S
C1015 C1014 1.386 . S
C1015 C1019 1.393 . S
C1016 H1005 0.950 . S
C1016 C1014 1.391 . S
C1016 C1017 1.400 . S
C1017 C1011 1.491 . S
C1017 C1016 1.400 . S
C1017 C1018 1.398 . S
C1018 H1006 0.950 . S
C1018 C1017 1.398 . S
C1018 C1019 1.391 . S
C1019 H1007 0.950 . S
C1019 C1015 1.393 . S
C1019 C1018 1.391 . S
H1020 C1028 0.950 . S
H1021 C1033 0.950 . S
H1022 C1030 0.950 . S
H1023 C1032 0.950 . S
H1024 C1034 0.950 . S
H1025 C1036 0.950 . S
H1026 C1038 0.950 . S
H1027 C1039 0.950 . S
C1028 H1020 0.950 . S
C1028 C1029 1.386 . S
C1028 C1030 1.391 . S
C1029 C1028 1.386 . S
C1029 C1033 1.393 . S
C1030 H1022 0.950 . S
C1030 C1028 1.391 . S
C1030 C1031 1.400 . S
C1031 C1030 1.400 . S
C1031 C1032 1.398 . S
C1031 C1037 1.491 . S
C1032 H1023 0.950 . S
C1032 C1031 1.398 . S
C1032 C1033 1.391 . S
C1033 H1021 0.950 . S
C1033 C1029 1.393 . S
C1033 C1032 1.391 . S
C1034 H1024 0.950 . S
C1034 C1035 1.386 . S
C1034 C1036 1.391 . S
C1035 C1034 1.386 . S
C1035 C1039 1.393 . S
C1036 H1025 0.950 . S
C1036 C1034 1.391 . S
C1036 C1037 1.400 . S
C1037 C1031 1.491 . S
C1037 C1036 1.400 . S
C1037 C1038 1.398 . S
C1038 H1026 0.950 . S
C1038 C1037 1.398 . S
C1038 C1039 1.391 . S
C1039 H1027 0.950 . S
C1039 C1035 1.393 . S
C1039 C1038 1.391 . S
H1040 C1048 0.950 . S
H1041 C1053 0.950 . S
H1042 C1050 0.950 . S
H1043 C1052 0.950 . S
H1044 C1054 0.950 . S
H1045 C1056 0.950 . S
H1046 C1058 0.950 . S
H1047 C1059 0.950 . S
C1048 H1040 0.950 . S
C1048 C1049 1.386 . S
C1048 C1050 1.391 . S
C1049 C1048 1.386 . S
C1049 C1053 1.393 . S
C1050 H1042 0.950 . S
C1050 C1048 1.391 . S
C1050 C1051 1.400 . S
C1051 C1050 1.400 . S
C1051 C1052 1.398 . S
C1051 C1057 1.491 . S
C1052 H1043 0.950 . S
C1052 C1051 1.398 . S
C1052 C1053 1.391 . S
C1053 H1041 0.950 . S
C1053 C1049 1.393 . S
C1053 C1052 1.391 . S
C1054 H1044 0.950 . S
C1054 C1055 1.386 . S
C1054 C1056 1.391 . S
C1055 C1054 1.386 . S
C1055 C1059 1.393 . S
C1056 H1045 0.950 . S
C1056 C1054 1.391 . S
C1056 C1057 1.400 . S
C1057 C1051 1.491 . S
C1057 C1056 1.400 . S
C1057 C1058 1.398 . S
C1058 H1046 0.950 . S
C1058 C1057 1.398 . S
C1058 C1059 1.391 . S
C1059 H1047 0.950 . S
C1059 C1055 1.393 . S
C1059 C1058 1.391 . S
H1060 C1068 0.950 . S
H1061 C1073 0.950 . S
H1062 C1070 0.950 . S
H1063 C1072 0.950 . S
H1064 C1074 0.950 . S
H1065 C1076 0.950 . S
H1066 C1078 0.950 . S
H1067 C1079 0.950 . S
C1068 H1060 0.950 . S
C1068 C1069 1.386 . S
C1068 C1070 1.391 . S
C1069 C1068 1.386 . S
C1069 C1073 1.393 . S
C1070 H1062 0.950 . S
C1070 C1068 1.391 . S
C1070 C1071 1.400 . S
C1071 C1070 1.400 . S
C1071 C1072 1.398 . S
C1071 C1077 1.491 . S
C1072 H1063 0.950 . S
C1072 C1071 1.398 . S
C1072 C1073 1.391 . S
C1073 H1061 0.950 . S
C1073 C1069 1.393 . S
C1073 C1072 1.391 . S
C1074 H1064 0.950 . S
C1074 C1075 1.386 . S
C1074 C1076 1.391 . S
C1075 C1074 1.386 . S
C1075 C1079 1.393 . S
C1076 H1065 0.950 . S
C1076 C1074 1.391 . S
C1076 C1077 1.400 . S
C1077 C1071 1.491 . S
C1077 C1076 1.400 . S
C1077 C1078 1.398 . S
C1078 H1066 0.950 . S
C1078 C1077 1.398 . S
C1078 C1079 1.391 . S
C1079 H1067 0.950 . S
C1079 C1075 1.393 . S
C1079 C1078 1.391 . S
H1080 C1088 0.950 . S
H1081 C1093 0.950 . S
H1082 C1090 0.950 . S
H1083 C1092 0.950 . S
H1084 C1094 0.950 . S
H1085 C1096 0.950 . S
H1086 C1098 0.950 . S
H1087 C1099 0.950 . S
C1088 H1080 0.950 . S
C1088 C1089 1.386 . S
C1088 C1090 1.391 . S
C1089 C1088 1.386 . S
C1089 C1093 1.393 . S
C1090 H1082 0.950 . S
C1090 C1088 1.391 . S
C1090 C1091 1.400 . S
C1091 C1090 1.400 . S
C1091 C1092 1.398 . S
C1091 C1097 1.491 . S
C1092 H1083 0.950 . S
C1092 C1091 1.398 . S
C1092 C1093 1.391 . S
C1093 H1081 0.950 . S
C1093 C1089 1.393 . S
C1093 C1092 1.391 . S
C1094 H1084 0.950 . S
C1094 C1095 1.386 . S
C1094 C1096 1.391 . S
C1095 C1094 1.386 . S
C1095 C1099 1.393 . S
C1096 H1085 0.950 . S
C1096 C1094 1.391 . S
C1096 C1097 1.400 . S
C1097 C1091 1.491 . S
C1097 C1096 1.400 . S
C1097 C1098 1.398 . S
C1098 H1086 0.950 . S
C1098 C1097 1.398 . S
C1098 C1099 1.391 . S
C1099 H1087 0.950 . S
C1099 C1095 1.393 . S
C1099 C1098 1.391 . S
H1100 C1108 0.950 . S
H1101 C1113 0.950 . S
H1102 C1110 0.950 . S
H1103 C1112 0.950 . S
H1104 C1114 0.950 . S
H1105 C1116 0.950 . S
H1106 C1118 0.950 . S
H1107 C1119 0.950 . S
C1108 H1100 0.950 . S
C1108 C1109 1.386 . S
C1108 C1110 1.391 . S
C1109 C1108 1.386 . S
C1109 C1113 1.393 . S
C1110 H1102 0.950 . S
C1110 C1108 1.391 . S
C1110 C1111 1.400 . S
C1111 C1110 1.400 . S
C1111 C1112 1.398 . S
C1111 C1117 1.491 . S
C1112 H1103 0.950 . S
C1112 C1111 1.398 . S
C1112 C1113 1.391 . S
C1113 H1101 0.950 . S
C1113 C1109 1.393 . S
C1113 C1112 1.391 . S
C1114 H1104 0.950 . S
C1114 C1115 1.386 . S
C1114 C1116 1.391 . S
C1115 C1114 1.386 . S
C1115 C1119 1.393 . S
C1116 H1105 0.950 . S
C1116 C1114 1.391 . S
C1116 C1117 1.400 . S
C1117 C1111 1.491 . S
C1117 C1116 1.400 . S
C1117 C1118 1.398 . S
C1118 H1106 0.950 . S
C1118 C1117 1.398 . S
C1118 C1119 1.391 . S
C1119 H1107 0.950 . S
C1119 C1115 1.393 . S
C1119 C1118 1.391 . S
H1120 C1128 0.950 . S
H1121 C1133 0.950 . S
H1122 C1130 0.950 . S
H1123 C1132 0.950 . S
H1124 C1134 0.950 . S
H1125 C1136 0.950 . S
H1126 C1138 0.950 . S
H1127 C1139 0.950 . S
C1128 H1120 0.950 . S
C1128 C1129 1.386 . S
C1128 C1130 1.391 . S
C1129 C1128 1.386 . S
C1129 C1133 1.393 . S
C1130 H1122 0.950 . S
C1130 C1128 1.391 . S
C1130 C1131 1.400 . S
C1131 C1130 1.400 . S
C1131 C1132 1.398 . S
C1131 C1137 1.491 . S
C1132 H1123 0.950 . S
C1132 C1131 1.398 . S
C1132 C1133 1.391 . S
C1133 H1121 0.950 . S
C1133 C1129 1.393 . S
C1133 C1132 1.391 . S
C1134 H1124 0.950 . S
C1134 C1135 1.386 . S
C1134 C1136 1.391 . S
C1135 C1134 1.386 . S
C1135 C1139 1.393 . S
C1136 H1125 0.950 . S
C1136 C1134 1.391 . S
C1136 C1137 1.400 . S
C1137 C1131 1.491 . S
C1137 C1136 1.400 . S
C1137 C1138 1.398 . S
C1138 H1126 0.950 . S
C1138 C1137 1.398 . S
C1138 C1139 1.391 . S
C1139 H1127 0.950 . S
C1139 C1135 1.393 . S
C1139 C1138 1.391 . S
H1140 C1148 0.950 . S
H1141 C1153 0.950 . S
H1142 C1150 0.950 . S
H1143 C1152 0.950 . S
H1144 C1154 0.935 1_545 S
H1145 C1156 0.950 . S
H1146 C1158 0.950 . S
H1147 C1159 0.950 . S
C1148 H1140 0.950 . S
C1148 C1149 1.386 . S
C1148 C1150 1.391 . S
C1149 C1148 1.386 . S
C1149 C1153 1.393 . S
C1150 H1142 0.950 . S
C1150 C1148 1.391 . S
C1150 C1151 1.400 . S
C1151 C1150 1.400 . S
C1151 C1152 1.398 . S
C1151 C1157 1.491 . S
C1152 H1143 0.950 . S
C1152 C1151 1.398 . S
C1152 C1153 1.391 . S
C1153 H1141 0.950 . S
C1153 C1149 1.393 . S
C1153 C1152 1.391 . S
C1154 H1144 0.935 1_565 S
C1154 C1155 1.386 . S
C1154 C1156 1.391 . S
C1155 C1154 1.386 . S
C1155 C1159 1.393 . S
C1156 H1145 0.950 . S
C1156 C1154 1.391 . S
C1156 C1157 1.400 . S
C1157 C1151 1.491 . S
C1157 C1156 1.400 . S
C1157 C1158 1.398 . S
C1158 H1146 0.950 . S
C1158 C1157 1.398 . S
C1158 C1159 1.391 . S
C1159 H1147 0.950 . S
C1159 C1155 1.393 . S
C1159 C1158 1.391 . S
H1160 C1168 0.950 . S
H1161 C1173 0.950 . S
H1162 C1170 0.950 . S
H1163 C1172 0.950 . S
H1164 C1174 0.950 . S
H1165 C1176 0.950 . S
H1166 C1178 0.950 . S
H1167 C1179 0.950 . S
C1168 H1160 0.950 . S
C1168 C1169 1.386 . S
C1168 C1170 1.391 . S
C1169 C1168 1.386 . S
C1169 C1173 1.393 . S
C1170 H1162 0.950 . S
C1170 C1168 1.391 . S
C1170 C1171 1.400 . S
C1171 C1170 1.400 . S
C1171 C1172 1.398 . S
C1171 C1177 1.491 . S
C1172 H1163 0.950 . S
C1172 C1171 1.398 . S
C1172 C1173 1.391 . S
C1173 H1161 0.950 . S
C1173 C1169 1.393 . S
C1173 C1172 1.391 . S
C1174 H1164 0.950 . S
C1174 C1175 1.386 . S
C1174 C1176 1.391 . S
C1175 C1174 1.386 . S
C1175 C1179 1.393 . S
C1176 H1165 0.950 . S
C1176 C1174 1.391 . S
C1176 C1177 1.400 . S
C1177 C1171 1.491 . S
C1177 C1176 1.400 . S
C1177 C1178 1.398 . S
C1178 H1166 0.950 . S
C1178 C1177 1.398 . S
C1178 C1179 1.391 . S
C1179 H1167 0.950 . S
C1179 C1175 1.393 . S
C1179 C1178 1.391 . S
H1180 C1188 0.950 . S
H1181 C1193 0.950 . S
H1182 C1190 0.950 . S
H1183 C1192 0.950 . S
H1184 C1194 0.950 . S
H1185 C1196 0.950 . S
H1186 C1198 0.950 . S
H1187 C1199 0.950 . S
C1188 H1180 0.950 . S
C1188 C1189 1.386 . S
C1188 C1190 1.391 . S
C1189 C1188 1.386 . S
C1189 C1193 1.393 . S
C1190 H1182 0.950 . S
C1190 C1188 1.391 . S
C1190 C1191 1.400 . S
C1191 C1190 1.400 . S
C1191 C1192 1.398 . S
C1191 C1197 1.491 . S
C1192 H1183 0.950 . S
C1192 C1191 1.398 . S
C1192 C1193 1.391 . S
C1193 H1181 0.950 . S
C1193 C1189 1.393 . S
C1193 C1192 1.391 . S
C1194 H1184 0.950 . S
C1194 C1195 1.386 . S
C1194 C1196 1.391 . S
C1195 C1194 1.386 . S
C1195 C1199 1.393 . S
C1196 H1185 0.950 . S
C1196 C1194 1.391 . S
C1196 C1197 1.400 . S
C1197 C1191 1.491 . S
C1197 C1196 1.400 . S
C1197 C1198 1.398 . S
C1198 H1186 0.950 . S
C1198 C1197 1.398 . S
C1198 C1199 1.391 . S
C1199 H1187 0.950 . S
C1199 C1195 1.393 . S
C1199 C1198 1.391 . S
H1200 C1208 0.950 . S
H1201 C1213 0.950 . S
H1202 C1210 0.950 . S
H1203 C1212 0.950 . S
H1204 C1214 0.950 . S
H1205 C1216 0.950 . S
H1206 C1218 0.950 . S
H1207 C1219 0.950 . S
C1208 H1200 0.950 . S
C1208 C1209 1.386 . S
C1208 C1210 1.391 . S
C1209 C1208 1.386 . S
C1209 C1213 1.393 . S
C1210 H1202 0.950 . S
C1210 C1208 1.391 . S
C1210 C1211 1.400 . S
C1211 C1210 1.400 . S
C1211 C1212 1.398 . S
C1211 C1217 1.491 . S
C1212 H1203 0.950 . S
C1212 C1211 1.398 . S
C1212 C1213 1.391 . S
C1213 H1201 0.950 . S
C1213 C1209 1.393 . S
C1213 C1212 1.391 . S
C1214 H1204 0.950 . S
C1214 C1215 1.386 . S
C1214 C1216 1.391 . S
C1215 C1214 1.386 . S
C1215 C1219 1.393 . S
C1216 H1205 0.950 . S
C1216 C1214 1.391 . S
C1216 C1217 1.400 . S
C1217 C1211 1.491 . S
C1217 C1216 1.400 . S
C1217 C1218 1.398 . S
C1218 H1206 0.950 . S
C1218 C1217 1.398 . S
C1218 C1219 1.391 . S
C1219 H1207 0.950 . S
C1219 C1215 1.393 . S
C1219 C1218 1.391 . S
H1220 C1228 0.950 . S
H1221 C1233 0.950 . S
H1222 C1230 0.950 . S
H1223 C1232 0.950 . S
H1224 C1234 0.950 . S
H1225 C1236 0.950 . S
H1226 C1238 0.950 . S
H1227 C1239 0.950 . S
C1228 H1220 0.950 . S
C1228 C1229 1.386 . S
C1228 C1230 1.391 . S
C1229 C1228 1.386 . S
C1229 C1233 1.393 . S
C1230 H1222 0.950 . S
C1230 C1228 1.391 . S
C1230 C1231 1.400 . S
C1231 C1230 1.400 . S
C1231 C1232 1.398 . S
C1231 C1237 1.491 . S
C1232 H1223 0.950 . S
C1232 C1231 1.398 . S
C1232 C1233 1.391 . S
C1233 H1221 0.950 . S
C1233 C1229 1.393 . S
C1233 C1232 1.391 . S
C1234 H1224 0.950 . S
C1234 C1235 1.386 . S
C1234 C1236 1.391 . S
C1235 C1234 1.386 . S
C1235 C1239 1.393 . S
C1236 H1225 0.950 . S
C1236 C1234 1.391 . S
C1236 C1237 1.400 . S
C1237 C1231 1.491 . S
C1237 C1236 1.400 . S
C1237 C1238 1.398 . S
C1238 H1226 0.950 . S
C1238 C1237 1.398 . S
C1238 C1239 1.391 . S
C1239 H1227 0.950 . S
C1239 C1235 1.393 . S
C1239 C1238 1.391 . S
H1240 C1248 0.950 . S
H1241 C1253 0.950 . S
H1242 C1250 0.950 . S
H1243 C1252 0.950 . S
H1244 C1254 0.950 . S
H1245 C1256 0.950 . S
H1246 C1258 0.950 . S
H1247 C1259 0.950 . S
C1248 H1240 0.950 . S
C1248 C1249 1.386 . S
C1248 C1250 1.391 . S
C1249 C1248 1.386 . S
C1249 C1253 1.393 . S
C1250 H1242 0.950 . S
C1250 C1248 1.391 . S
C1250 C1251 1.400 . S
C1251 C1250 1.400 . S
C1251 C1252 1.398 . S
C1251 C1257 1.491 . S
C1252 H1243 0.950 . S
C1252 C1251 1.398 . S
C1252 C1253 1.391 . S
C1253 H1241 0.950 . S
C1253 C1249 1.393 . S
C1253 C1252 1.391 . S
C1254 H1244 0.950 . S
C1254 C1255 1.386 . S
C1254 C1256 1.391 . S
C1255 C1254 1.386 . S
C1255 C1259 1.393 . S
C1256 H1245 0.950 . S
C1256 C1254 1.391 . S
C1256 C1257 1.400 . S
C1257 C1251 1.491 . S
C1257 C1256 1.400 . S
C1257 C1258 1.398 . S
C1258 H1246 0.950 . S
C1258 C1257 1.398 . S
C1258 C1259 1.391 . S
C1259 H1247 0.950 . S
C1259 C1255 1.393 . S
C1259 C1258 1.391 . S
H1260 C1268 0.950 . S
H1261 C1273 0.950 . S
H1262 C1270 0.950 . S
H1263 C1272 0.950 . S
H1264 C1274 0.950 . S
H1265 C1276 0.950 . S
H1266 C1278 0.950 . S
H1267 C1279 0.950 . S
C1268 H1260 0.950 . S
C1268 C1269 1.386 . S
C1268 C1270 1.391 . S
C1269 C1268 1.386 . S
C1269 C1273 1.393 . S
C1270 H1262 0.950 . S
C1270 C1268 1.391 . S
C1270 C1271 1.400 . S
C1271 C1270 1.400 . S
C1271 C1272 1.398 . S
C1271 C1277 1.491 . S
C1272 H1263 0.950 . S
C1272 C1271 1.398 . S
C1272 C1273 1.391 . S
C1273 H1261 0.950 . S
C1273 C1269 1.393 . S
C1273 C1272 1.391 . S
C1274 H1264 0.950 . S
C1274 C1275 1.386 . S
C1274 C1276 1.391 . S
C1275 C1274 1.386 . S
C1275 C1279 1.393 . S
C1276 H1265 0.950 . S
C1276 C1274 1.391 . S
C1276 C1277 1.400 . S
C1277 C1271 1.491 . S
C1277 C1276 1.400 . S
C1277 C1278 1.398 . S
C1278 H1266 0.950 . S
C1278 C1277 1.398 . S
C1278 C1279 1.391 . S
C1279 H1267 0.950 . S
C1279 C1275 1.393 . S
C1279 C1278 1.391 . S
H1280 C1288 0.950 . S
H1281 C1293 0.950 . S
H1282 C1290 0.950 . S
H1283 C1292 0.950 . S
H1284 C1294 0.950 . S
H1285 C1296 0.950 . S
H1286 C1298 0.950 . S
H1287 C1299 0.950 . S
C1288 H1280 0.950 . S
C1288 C1289 1.386 1_556 S
C1288 C1290 1.391 . S
C1289 C1288 1.386 1_554 S
C1289 C1293 1.393 . S
C1290 H1282 0.950 . S
C1290 C1288 1.391 . S
C1290 C1291 1.400 . S
C1291 C1290 1.400 . S
C1291 C1292 1.398 . S
C1291 C1297 1.491 . S
C1292 H1283 0.950 . S
C1292 C1291 1.398 . S
C1292 C1293 1.391 1_556 S
C1293 H1281 0.950 . S
C1293 C1289 1.393 . S
C1293 C1292 1.391 1_554 S
C1294 H1284 0.950 . S
C1294 C1295 1.386 . S
C1294 C1296 1.391 . S
C1295 C1294 1.386 . S
C1295 C1299 1.393 . S
C1296 H1285 0.950 . S
C1296 C1294 1.391 . S
C1296 C1297 1.400 . S
C1297 C1291 1.491 . S
C1297 C1296 1.400 . S
C1297 C1298 1.398 . S
C1298 H1286 0.950 . S
C1298 C1297 1.398 . S
C1298 C1299 1.391 . S
C1299 H1287 0.950 . S
C1299 C1295 1.393 . S
C1299 C1298 1.391 . S
H1300 C1308 0.950 . S
H1301 C1313 0.950 . S
H1302 C1310 0.950 . S
H1303 C1312 0.950 . S
H1304 C1314 0.950 . S
H1305 C1316 0.950 . S
H1306 C1318 0.950 . S
H1307 C1319 0.950 . S
C1308 H1300 0.950 . S
C1308 C1309 1.386 . S
C1308 C1310 1.391 . S
C1309 C1308 1.386 . S
C1309 C1313 1.393 . S
C1310 H1302 0.950 . S
C1310 C1308 1.391 . S
C1310 C1311 1.400 . S
C1311 C1310 1.400 . S
C1311 C1312 1.398 . S
C1311 C1317 1.491 . S
C1312 H1303 0.950 . S
C1312 C1311 1.398 . S
C1312 C1313 1.391 . S
C1313 H1301 0.950 . S
C1313 C1309 1.393 . S
C1313 C1312 1.391 . S
C1314 H1304 0.950 . S
C1314 C1315 1.386 . S
C1314 C1316 1.391 . S
C1315 C1314 1.386 . S
C1315 C1319 1.393 . S
C1316 H1305 0.950 . S
C1316 C1314 1.391 . S
C1316 C1317 1.400 . S
C1317 C1311 1.491 . S
C1317 C1316 1.400 . S
C1317 C1318 1.398 . S
C1318 H1306 0.950 . S
C1318 C1317 1.398 . S
C1318 C1319 1.391 . S
C1319 H1307 0.950 . S
C1319 C1315 1.393 . S
C1319 C1318 1.391 . S
H1320 C1328 0.950 . S
H1321 C1333 0.950 . S
H1322 C1330 0.950 . S
H1323 C1332 0.950 . S
H1324 C1334 0.950 . S
H1325 C1336 0.950 . S
H1326 C1338 0.950 . S
H1327 C1339 0.950 . S
C1328 H1320 0.950 . S
C1328 C1329 1.386 . S
C1328 C1330 1.391 . S
C1329 C1328 1.386 . S
C1329 C1333 1.393 . S
C1330 H1322 0.950 . S
C1330 C1328 1.391 . S
C1330 C1331 1.400 . S
C1331 C1330 1.400 . S
C1331 C1332 1.398 . S
C1331 C1337 1.491 . S
C1332 H1323 0.950 . S
C1332 C1331 1.398 . S
C1332 C1333 1.391 . S
C1333 H1321 0.950 . S
C1333 C1329 1.393 . S
C1333 C1332 1.391 . S
C1334 H1324 0.950 . S
C1334 C1335 1.386 . S
C1334 C1336 1.391 . S
C1335 C1334 1.386 . S
C1335 C1339 1.393 . S
C1336 H1325 0.950 . S
C1336 C1334 1.391 . S
C1336 C1337 1.400 . S
C1337 C1331 1.491 . S
C1337 C1336 1.400 . S
C1337 C1338 1.398 . S
C1338 H1326 0.950 . S
C1338 C1337 1.398 . S
C1338 C1339 1.391 . S
C1339 H1327 0.950 . S
C1339 C1335 1.393 . S
C1339 C1338 1.391 . S
H1340 C1348 0.950 . S
H1341 C1353 0.950 . S
H1342 C1350 0.950 . S
H1343 C1352 0.950 . S
H1344 C1354 0.950 . S
H1345 C1356 0.950 . S
H1346 C1358 0.950 . S
H1347 C1359 0.950 . S
C1348 H1340 0.950 . S
C1348 C1349 1.386 . S
C1348 C1350 1.391 . S
C1349 C1348 1.386 . S
C1349 C1353 1.393 . S
C1350 H1342 0.950 . S
C1350 C1348 1.391 . S
C1350 C1351 1.400 . S
C1351 C1350 1.400 . S
C1351 C1352 1.398 . S
C1351 C1357 1.491 . S
C1352 H1343 0.950 . S
C1352 C1351 1.398 . S
C1352 C1353 1.391 . S
C1353 H1341 0.950 . S
C1353 C1349 1.393 . S
C1353 C1352 1.391 . S
C1354 H1344 0.950 . S
C1354 C1355 1.386 . S
C1354 C1356 1.391 . S
C1355 C1354 1.386 . S
C1355 C1359 1.393 . S
C1356 H1345 0.950 . S
C1356 C1354 1.391 . S
C1356 C1357 1.400 . S
C1357 C1351 1.491 . S
C1357 C1356 1.400 . S
C1357 C1358 1.398 . S
C1358 H1346 0.950 . S
C1358 C1357 1.398 . S
C1358 C1359 1.391 . S
C1359 H1347 0.950 . S
C1359 C1355 1.393 . S
C1359 C1358 1.391 . S
H1360 C1368 0.950 . S
H1361 C1373 0.950 . S
H1362 C1370 0.950 . S
H1363 C1372 0.950 . S
H1364 C1374 0.950 . S
H1365 C1376 0.950 . S
H1366 C1378 0.950 . S
H1367 C1379 0.950 . S
C1368 H1360 0.950 . S
C1368 C1369 1.386 . S
C1368 C1370 1.391 . S
C1369 C1368 1.386 . S
C1369 C1373 1.393 . S
C1370 H1362 0.950 . S
C1370 C1368 1.391 . S
C1370 C1371 1.400 . S
C1371 C1370 1.400 . S
C1371 C1372 1.398 . S
C1371 C1377 1.491 . S
C1372 H1363 0.950 . S
C1372 C1371 1.398 . S
C1372 C1373 1.391 . S
C1373 H1361 0.950 . S
C1373 C1369 1.393 . S
C1373 C1372 1.391 . S
C1374 H1364 0.950 . S
C1374 C1375 1.386 . S
C1374 C1376 1.391 1_556 S
C1375 C1374 1.386 . S
C1375 C1379 1.393 1_556 S
C1376 H1365 0.950 . S
C1376 C1374 1.391 1_554 S
C1376 C1377 1.400 . S
C1377 C1371 1.491 . S
C1377 C1376 1.400 . S
C1377 C1378 1.398 . S
C1378 H1366 0.950 . S
C1378 C1377 1.398 . S
C1378 C1379 1.391 . S
C1379 H1367 0.950 . S
C1379 C1375 1.393 1_554 S
C1379 C1378 1.391 . S
H1380 C1388 0.950 . S
H1381 C1393 0.950 . S
H1382 C1390 0.950 . S
H1383 C1392 0.950 . S
H1384 C1394 0.950 . S
H1385 C1396 0.950 . S
H1386 C1398 0.950 . S
H1387 C1399 0.950 . S
C1388 H1380 0.950 . S
C1388 C1389 1.386 . S
C1388 C1390 1.391 . S
C1389 C1388 1.386 . S
C1389 C1393 1.393 . S
C1390 H1382 0.950 . S
C1390 C1388 1.391 . S
C1390 C1391 1.400 . S
C1391 C1390 1.400 . S
C1391 C1392 1.398 . S
C1391 C1397 1.491 . S
C1392 H1383 0.950 . S
C1392 C1391 1.398 . S
C1392 C1393 1.391 . S
C1393 H1381 0.950 . S
C1393 C1389 1.393 . S
C1393 C1392 1.391 . S
C1394 H1384 0.950 . S
C1394 C1395 1.386 . S
C1394 C1396 1.391 . S
C1395 C1394 1.386 . S
C1395 C1399 1.393 . S
C1396 H1385 0.950 . S
C1396 C1394 1.391 . S
C1396 C1397 1.400 . S
C1397 C1391 1.491 . S
C1397 C1396 1.400 . S
C1397 C1398 1.398 . S
C1398 H1386 0.950 . S
C1398 C1397 1.398 . S
C1398 C1399 1.391 . S
C1399 H1387 0.950 . S
C1399 C1395 1.393 . S
C1399 C1398 1.391 . S
H1400 C1408 0.950 . S
H1401 C1413 0.950 . S
H1402 C1410 0.950 . S
H1403 C1412 0.950 . S
H1404 C1414 0.950 . S
H1405 C1416 0.950 . S
H1406 C1418 0.950 . S
H1407 C1419 0.950 . S
C1408 H1400 0.950 . S
C1408 C1409 1.386 . S
C1408 C1410 1.391 . S
C1409 C1408 1.386 . S
C1409 C1413 1.393 . S
C1410 H1402 0.950 . S
C1410 C1408 1.391 . S
C1410 C1411 1.400 . S
C1411 C1410 1.400 . S
C1411 C1412 1.398 . S
C1411 C1417 1.491 . S
C1412 H1403 0.950 . S
C1412 C1411 1.398 . S
C1412 C1413 1.391 . S
C1413 H1401 0.950 . S
C1413 C1409 1.393 . S
C1413 C1412 1.391 . S
C1414 H1404 0.950 . S
C1414 C1415 1.386 . S
C1414 C1416 1.391 . S
C1415 C1414 1.386 . S
C1415 C1419 1.393 . S
C1416 H1405 0.950 . S
C1416 C1414 1.391 . S
C1416 C1417 1.400 . S
C1417 C1411 1.491 . S
C1417 C1416 1.400 . S
C1417 C1418 1.398 . S
C1418 H1406 0.950 . S
C1418 C1417 1.398 . S
C1418 C1419 1.391 . S
C1419 H1407 0.950 . S
C1419 C1415 1.393 . S
C1419 C1418 1.391 . S
H1420 C1428 0.950 . S
H1421 C1433 0.950 . S
H1422 C1430 0.950 . S
H1423 C1432 0.950 . S
H1424 C1434 0.950 . S
H1425 C1436 0.950 . S
H1426 C1438 0.950 . S
H1427 C1439 0.950 . S
C1428 H1420 0.950 . S
C1428 C1429 1.386 . S
C1428 C1430 1.391 . S
C1429 C1428 1.386 . S
C1429 C1433 1.393 . S
C1430 H1422 0.950 . S
C1430 C1428 1.391 . S
C1430 C1431 1.400 . S
C1431 C1430 1.400 . S
C1431 C1432 1.398 . S
C1431 C1437 1.491 . S
C1432 H1423 0.950 . S
C1432 C1431 1.398 . S
C1432 C1433 1.391 . S
C1433 H1421 0.950 . S
C1433 C1429 1.393 . S
C1433 C1432 1.391 . S
C1434 H1424 0.950 . S
C1434 C1435 1.386 . S
C1434 C1436 1.391 . S
C1435 C1434 1.386 . S
C1435 C1439 1.393 . S
C1436 H1425 0.950 . S
C1436 C1434 1.391 . S
C1436 C1437 1.400 . S
C1437 C1431 1.491 . S
C1437 C1436 1.400 . S
C1437 C1438 1.398 . S
C1438 H1426 0.950 . S
C1438 C1437 1.398 . S
C1438 C1439 1.391 . S
C1439 H1427 0.950 . S
C1439 C1435 1.393 . S
C1439 C1438 1.391 . S
H1440 C1448 0.950 . S
H1441 C1453 0.950 . S
H1442 C1450 0.950 . S
H1443 C1452 0.950 . S
H1444 C1454 0.950 . S
H1445 C1456 0.950 . S
H1446 C1458 0.950 . S
H1447 C1459 0.950 . S
C1448 H1440 0.950 . S
C1448 C1449 1.386 . S
C1448 C1450 1.391 . S
C1449 C1448 1.386 . S
C1449 C1453 1.393 . S
C1450 H1442 0.950 . S
C1450 C1448 1.391 . S
C1450 C1451 1.400 . S
C1451 C1450 1.400 . S
C1451 C1452 1.398 . S
C1451 C1457 1.491 . S
C1452 H1443 0.950 . S
C1452 C1451 1.398 . S
C1452 C1453 1.391 . S
C1453 H1441 0.950 . S
C1453 C1449 1.393 . S
C1453 C1452 1.391 . S
C1454 H1444 0.950 . S
C1454 C1455 1.386 . S
C1454 C1456 1.391 . S
C1455 C1454 1.386 . S
C1455 C1459 1.393 . S
C1456 H1445 0.950 . S
C1456 C1454 1.391 . S
C1456 C1457 1.400 . S
C1457 C1451 1.491 . S
C1457 C1456 1.400 . S
C1457 C1458 1.398 . S
C1458 H1446 0.950 . S
C1458 C1457 1.398 . S
C1458 C1459 1.391 . S
C1459 H1447 0.950 . S
C1459 C1455 1.393 . S
C1459 C1458 1.391 . S
H1460 C1468 0.950 . S
H1461 C1473 0.950 . S
H1462 C1470 0.950 . S
H1463 C1472 0.950 . S
H1464 C1474 0.950 . S
H1465 C1476 0.950 1_545 S
H1466 C1478 0.950 . S
H1467 C1479 0.950 . S
C1468 H1460 0.950 . S
C1468 C1469 1.386 . S
C1468 C1470 1.391 . S
C1469 C1468 1.386 . S
C1469 C1473 1.393 . S
C1470 H1462 0.950 . S
C1470 C1468 1.391 . S
C1470 C1471 1.400 . S
C1471 C1470 1.400 . S
C1471 C1472 1.398 . S
C1471 C1477 1.491 . S
C1472 H1463 0.950 . S
C1472 C1471 1.398 . S
C1472 C1473 1.391 . S
C1473 H1461 0.950 . S
C1473 C1469 1.393 . S
C1473 C1472 1.391 . S
C1474 H1464 0.950 . S
C1474 C1475 1.388 . S
C1474 C1476 1.391 1_545 S
C1475 C1474 1.388 . S
C1475 C1479 1.388 1_545 S
C1476 H1465 0.950 1_565 S
C1476 C1474 1.391 1_565 S
C1476 C1477 1.400 . S
C1477 C1471 1.491 . S
C1477 C1476 1.400 . S
C1477 C1478 1.398 . S
C1478 H1466 0.950 . S
C1478 C1477 1.398 . S
C1478 C1479 1.391 . S
C1479 H1467 0.950 . S
C1479 C1475 1.388 1_565 S
C1479 C1478 1.391 . S
H1480 C1488 0.950 . S
H1481 C1493 0.950 . S
H1482 C1490 0.950 . S
H1483 C1492 0.950 . S
H1484 C1494 0.950 . S
H1485 C1496 0.950 . S
H1486 C1498 0.950 . S
H1487 C1499 0.950 . S
C1488 H1480 0.950 . S
C1488 C1489 1.386 . S
C1488 C1490 1.391 . S
C1489 C1488 1.386 . S
C1489 C1493 1.393 . S
C1490 H1482 0.950 . S
C1490 C1488 1.391 . S
C1490 C1491 1.400 . S
C1491 C1490 1.400 . S
C1491 C1492 1.398 . S
C1491 C1497 1.491 . S
C1492 H1483 0.950 . S
C1492 C1491 1.398 . S
C1492 C1493 1.391 . S
C1493 H1481 0.950 . S
C1493 C1489 1.393 . S
C1493 C1492 1.391 . S
C1494 H1484 0.950 . S
C1494 C1495 1.386 1_556 S
C1494 C1496 1.391 . S
C1495 C1494 1.386 1_554 S
C1495 C1499 1.393 . S
C1496 H1485 0.950 . S
C1496 C1494 1.391 . S
C1496 C1497 1.400 . S
C1497 C1491 1.491 . S
C1497 C1496 1.400 . S
C1497 C1498 1.398 . S
C1498 H1486 0.950 . S
C1498 C1497 1.398 . S
C1498 C1499 1.391 1_556 S
C1499 H1487 0.950 . S
C1499 C1495 1.393 . S
C1499 C1498 1.391 1_554 S
H1500 C1508 0.950 . S
H1501 C1513 0.950 . S
H1502 C1510 0.950 1_565 S
H1503 C1512 0.950 . S
H1504 C1514 0.950 . S
H1505 C1516 0.950 . S
H1506 C1518 0.950 . S
H1507 C1519 0.950 . S
C1508 H1500 0.950 . S
C1508 C1509 1.395 . S
C1508 C1510 1.391 1_565 S
C1509 C1508 1.395 . S
C1509 C1513 1.371 1_565 S
C1510 H1502 0.950 1_545 S
C1510 C1508 1.391 1_545 S
C1510 C1511 1.400 . S
C1511 C1510 1.400 . S
C1511 C1512 1.398 . S
C1511 C1517 1.491 . S
C1512 H1503 0.950 . S
C1512 C1511 1.398 . S
C1512 C1513 1.391 . S
C1513 H1501 0.950 . S
C1513 C1509 1.371 1_545 S
C1513 C1512 1.391 . S
C1514 H1504 0.950 . S
C1514 C1515 1.386 . S
C1514 C1516 1.391 . S
C1515 C1514 1.386 . S
C1515 C1519 1.393 . S
C1516 H1505 0.950 . S
C1516 C1514 1.391 . S
C1516 C1517 1.400 . S
C1517 C1511 1.491 . S
C1517 C1516 1.400 . S
C1517 C1518 1.398 . S
C1518 H1506 0.950 . S
C1518 C1517 1.398 . S
C1518 C1519 1.391 . S
C1519 H1507 0.950 . S
C1519 C1515 1.393 . S
C1519 C1518 1.391 . S
H1520 C1528 0.950 . S
H1521 C1533 0.950 . S
H1522 C1530 0.950 . S
H1523 C1532 0.950 . S
H1524 C1534 0.950 . S
H1525 C1536 0.950 . S
H1526 C1538 0.950 . S
H1527 C1539 0.950 . S
C1528 H1520 0.950 . S
C1528 C1529 1.386 . S
C1528 C1530 1.391 . S
C1529 C1528 1.386 . S
C1529 C1533 1.393 . S
C1530 H1522 0.950 . S
C1530 C1528 1.391 . S
C1530 C1531 1.400 . S
C1531 C1530 1.400 . S
C1531 C1532 1.398 . S
C1531 C1537 1.491 . S
C1532 H1523 0.950 . S
C1532 C1531 1.398 . S
C1532 C1533 1.391 . S
C1533 H1521 0.950 . S
C1533 C1529 1.393 . S
C1533 C1532 1.391 . S
C1534 H1524 0.950 . S
C1534 C1535 1.386 . S
C1534 C1536 1.391 . S
C1535 C1534 1.386 . S
C1535 C1539 1.393 . S
C1536 H1525 0.950 . S
C1536 C1534 1.391 . S
C1536 C1537 1.400 . S
C1537 C1531 1.491 . S
C1537 C1536 1.400 . S
C1537 C1538 1.398 . S
C1538 H1526 0.950 . S
C1538 C1537 1.398 . S
C1538 C1539 1.391 . S
C1539 H1527 0.950 . S
C1539 C1535 1.393 . S
C1539 C1538 1.391 . S
H1540 C1548 0.950 . S
H1541 C1553 0.950 . S
H1542 C1550 0.950 . S
H1543 C1552 0.950 . S
H1544 C1554 0.950 1_565 S
H1545 C1556 0.950 . S
H1546 C1558 0.950 . S
H1547 C1559 0.950 . S
C1548 H1540 0.950 . S
C1548 C1549 1.386 . S
C1548 C1550 1.391 . S
C1549 C1548 1.386 . S
C1549 C1553 1.393 . S
C1550 H1542 0.950 . S
C1550 C1548 1.391 . S
C1550 C1551 1.400 . S
C1551 C1550 1.400 . S
C1551 C1552 1.398 . S
C1551 C1557 1.491 . S
C1552 H1543 0.950 . S
C1552 C1551 1.398 . S
C1552 C1553 1.391 . S
C1553 H1541 0.950 . S
C1553 C1549 1.393 . S
C1553 C1552 1.391 . S
C1554 H1544 0.950 1_545 S
C1554 C1555 1.386 . S
C1554 C1556 1.391 . S
C1555 C1554 1.386 . S
C1555 C1559 1.400 . S
C1556 H1545 0.950 . S
C1556 C1554 1.391 . S
C1556 C1557 1.400 . S
C1557 C1551 1.491 . S
C1557 C1556 1.400 . S
C1557 C1558 1.398 . S
C1558 H1546 0.950 . S
C1558 C1557 1.398 . S
C1558 C1559 1.391 . S
C1559 H1547 0.950 . S
C1559 C1555 1.400 . S
C1559 C1558 1.391 . S
H1560 C1568 0.950 . S
H1561 C1573 0.950 . S
H1562 C1570 0.950 . S
H1563 C1572 0.950 . S
H1564 C1574 0.950 . S
H1565 C1576 0.950 . S
H1566 C1578 0.950 . S
H1567 C1579 0.955 . S
C1568 H1560 0.950 . S
C1568 C1569 1.386 . S
C1568 C1570 1.391 . S
C1569 C1568 1.386 . S
C1569 C1573 1.393 . S
C1570 H1562 0.950 . S
C1570 C1568 1.391 . S
C1570 C1571 1.400 . S
C1571 C1570 1.400 . S
C1571 C1572 1.398 . S
C1571 C1577 1.491 . S
C1572 H1563 0.950 . S
C1572 C1571 1.398 . S
C1572 C1573 1.391 . S
C1573 H1561 0.950 . S
C1573 C1569 1.393 . S
C1573 C1572 1.391 . S
C1574 H1564 0.950 . S
C1574 C1575 1.386 . S
C1574 C1576 1.391 1_556 S
C1575 C1574 1.386 . S
C1575 C1579 1.393 1_556 S
C1576 H1565 0.950 . S
C1576 C1574 1.391 1_554 S
C1576 C1577 1.400 . S
C1577 C1571 1.491 . S
C1577 C1576 1.400 . S
C1577 C1578 1.398 . S
C1578 H1566 0.950 . S
C1578 C1577 1.398 . S
C1578 C1579 1.391 . S
C1579 H1567 0.955 . S
C1579 C1575 1.393 1_554 S
C1579 C1578 1.391 . S
H1580 C1588 0.950 . S
H1581 C1593 0.950 . S
H1582 C1590 0.950 . S
H1583 C1592 0.950 . S
H1584 C1594 0.950 . S
H1585 C1596 0.950 1_545 S
H1586 C1598 0.950 . S
H1587 C1599 0.950 . S
C1588 H1580 0.950 . S
C1588 C1589 1.386 . S
C1588 C1590 1.391 . S
C1589 C1588 1.386 . S
C1589 C1593 1.393 . S
C1590 H1582 0.950 . S
C1590 C1588 1.391 . S
C1590 C1591 1.400 . S
C1591 C1590 1.400 . S
C1591 C1592 1.398 . S
C1591 C1597 1.491 . S
C1592 H1583 0.950 . S
C1592 C1591 1.398 . S
C1592 C1593 1.391 . S
C1593 H1581 0.950 . S
C1593 C1589 1.393 . S
C1593 C1592 1.391 . S
C1594 H1584 0.950 . S
C1594 C1595 1.392 . S
C1594 C1596 1.391 1_545 S
C1595 C1594 1.392 . S
C1595 C1599 1.378 1_545 S
C1596 H1585 0.950 1_565 S
C1596 C1594 1.391 1_565 S
C1596 C1597 1.400 . S
C1597 C1591 1.491 . S
C1597 C1596 1.400 . S
C1597 C1598 1.398 . S
C1598 H1586 0.950 . S
C1598 C1597 1.398 . S
C1598 C1599 1.391 . S
C1599 H1587 0.950 . S
C1599 C1595 1.378 1_565 S
C1599 C1598 1.391 . S
C649 C9 2.630 . S
C655 C409 2.632 . S
C669 C49 2.626 . S
C675 C449 2.621 . S
C689 C89 2.626 . S
C695 C329 2.622 . S
C709 C369 2.631 . S
C715 C129 2.627 . S
C729 C178 2.620 . S
C735 C578 2.622 . S
C749 C618 2.632 . S
C755 C218 2.629 . S
C769 C498 2.621 . S
C775 C258 2.626 . S
C789 C298 2.628 . S
C795 C538 2.631 . S
C809 C15 0.993 . S
C815 C166 0.993 . S
C829 C55 0.921 . S
C835 C526 0.921 . S
C849 C95 0.969 . S
C855 C246 0.969 . S
C869 C135 0.961 . S
C875 C606 0.961 . S
C889 C206 0.924 . S
C895 C375 0.924 . S
C909 C455 0.935 . S
C915 C286 0.935 . S
C929 C486 0.985 . S
C935 C335 0.985 . S
C949 C415 0.984 . S
C955 C566 0.984 . S
C969 C6 1.050 . S
C975 C289 1.165 . S
C989 C46 1.084 . S
C995 C489 1.160 . S
C1009 C86 1.097 . S
C1015 C209 1.168 . S
C1029 C126 1.047 . S
C1035 C569 1.159 . S
C1049 C138 1.183 . S
C1055 C175 1.092 . S
C1069 C215 1.067 . S
C1075 C338 1.154 . S
C1089 C255 1.050 . S
C1095 C58 1.156 . S
C1109 C418 1.178 . S
C1115 C295 1.103 . S
C1129 C326 1.097 . S
C1135 C609 1.183 1_565 S
C1149 C169 1.176 . S
C1155 C366 1.103 . S
C1169 C529 1.157 1_545 S
C1175 C406 1.048 . S
C1189 C249 1.162 . S
C1195 C446 1.088 . S
C1209 C495 1.100 . S
C1215 C458 1.182 1_545 S
C1229 C535 1.072 . S
C1235 C18 1.178 . S
C1249 C378 1.164 1_565 S
C1255 C575 1.092 . S
C1269 C615 1.052 . S
C1275 C98 1.167 . S
C1289 C19 4.042 . S
C1295 C370 4.097 . S
C1309 C410 4.098 . S
C1315 C59 4.045 . S
C1329 C99 4.042 . S
C1335 C450 4.097 . S
C1349 C330 4.097 . S
C1355 C139 4.042 . S
C1369 C539 4.108 . S
C1375 C170 4.053 . S
C1389 C579 4.098 . S
C1395 C210 4.042 . S
C1409 C619 4.102 . S
C1415 C250 4.046 . S
C1429 C499 4.099 . S
C1435 C290 4.046 . S
C1449 C50 4.103 . S
C1455 C339 4.046 . S
C1469 C90 4.105 . S
C1475 C379 4.050 . S
C1489 C130 4.103 . S
C1495 C419 4.047 . S
C1509 C459 4.056 . S
C1515 C10 4.099 . S
C1529 C219 4.106 . S
C1535 C490 4.051 . S
C1549 C259 4.097 . S
C1555 C530 4.035 1_545 S
C1569 C299 4.108 . S
C1575 C570 4.054 . S
C1589 C179 4.098 . S
C1595 C610 4.051 . S
