# Generated by pormake.
# Topology zga, (5)-cn, num edge types: 1
# Building blocks:
#     Node 0, Type 0, BuildingBlock: XOMCOT_clean_sbu_0, # of connection points: 5
#     Node 1, Type 0, BuildingBlock: XOMCOT_clean_sbu_0, # of connection points: 5
#     Node 2, Type 0, BuildingBlock: XOMCOT_clean_sbu_0, # of connection points: 5
#     Node 3, Type 0, BuildingBlock: XOMCOT_clean_sbu_0, # of connection points: 5
#     Node 4, Type 0, BuildingBlock: XOMCOT_clean_sbu_0, # of connection points: 5
#     Node 5, Type 0, BuildingBlock: XOMCOT_clean_sbu_0, # of connection points: 5
#     Node 6, Type 0, BuildingBlock: XOMCOT_clean_sbu_0, # of connection points: 5
#     Node 7, Type 0, BuildingBlock: XOMCOT_clean_sbu_0, # of connection points: 5
#     Node 8, Type 0, BuildingBlock: XOMCOT_clean_sbu_0, # of connection points: 5
#     Node 9, Type 0, BuildingBlock: XOMCOT_clean_sbu_0, # of connection points: 5
#     Node 10, Type 0, BuildingBlock: XOMCOT_clean_sbu_0, # of connection points: 5
#     Node 11, Type 0, BuildingBlock: XOMCOT_clean_sbu_0, # of connection points: 5
#     Node 12, Type 0, BuildingBlock: XOMCOT_clean_sbu_0, # of connection points: 5
#     Node 13, Type 0, BuildingBlock: XOMCOT_clean_sbu_0, # of connection points: 5
#     Node 14, Type 0, BuildingBlock: XOMCOT_clean_sbu_0, # of connection points: 5
#     Node 15, Type 0, BuildingBlock: XOMCOT_clean_sbu_0, # of connection points: 5
#     Edge 16, Type (0, 0), BuildingBlock: CIFDUS_clean_linker_0, # of connection points: 2
#     Edge 17, Type (0, 0), BuildingBlock: CIFDUS_clean_linker_0, # of connection points: 2
#     Edge 18, Type (0, 0), BuildingBlock: CIFDUS_clean_linker_0, # of connection points: 2
#     Edge 19, Type (0, 0), BuildingBlock: CIFDUS_clean_linker_0, # of connection points: 2
#     Edge 20, Type (0, 0), BuildingBlock: CIFDUS_clean_linker_0, # of connection points: 2
#     Edge 21, Type (0, 0), BuildingBlock: CIFDUS_clean_linker_0, # of connection points: 2
#     Edge 22, Type (0, 0), BuildingBlock: CIFDUS_clean_linker_0, # of connection points: 2
#     Edge 23, Type (0, 0), BuildingBlock: CIFDUS_clean_linker_0, # of connection points: 2
#     Edge 24, Type (0, 0), BuildingBlock: CIFDUS_clean_linker_0, # of connection points: 2
#     Edge 25, Type (0, 0), BuildingBlock: CIFDUS_clean_linker_0, # of connection points: 2
#     Edge 26, Type (0, 0), BuildingBlock: CIFDUS_clean_linker_0, # of connection points: 2
#     Edge 27, Type (0, 0), BuildingBlock: CIFDUS_clean_linker_0, # of connection points: 2
#     Edge 28, Type (0, 0), BuildingBlock: CIFDUS_clean_linker_0, # of connection points: 2
#     Edge 29, Type (0, 0), BuildingBlock: CIFDUS_clean_linker_0, # of connection points: 2
#     Edge 30, Type (0, 0), BuildingBlock: CIFDUS_clean_linker_0, # of connection points: 2
#     Edge 31, Type (0, 0), BuildingBlock: CIFDUS_clean_linker_0, # of connection points: 2
#     Edge 32, Type (0, 0), BuildingBlock: CIFDUS_clean_linker_0, # of connection points: 2
#     Edge 33, Type (0, 0), BuildingBlock: CIFDUS_clean_linker_0, # of connection points: 2
#     Edge 34, Type (0, 0), BuildingBlock: CIFDUS_clean_linker_0, # of connection points: 2
#     Edge 35, Type (0, 0), BuildingBlock: CIFDUS_clean_linker_0, # of connection points: 2
#     Edge 36, Type (0, 0), BuildingBlock: CIFDUS_clean_linker_0, # of connection points: 2
#     Edge 37, Type (0, 0), BuildingBlock: CIFDUS_clean_linker_0, # of connection points: 2
#     Edge 38, Type (0, 0), BuildingBlock: CIFDUS_clean_linker_0, # of connection points: 2
#     Edge 39, Type (0, 0), BuildingBlock: CIFDUS_clean_linker_0, # of connection points: 2
#     Edge 40, Type (0, 0), BuildingBlock: CIFDUS_clean_linker_0, # of connection points: 2
#     Edge 41, Type (0, 0), BuildingBlock: CIFDUS_clean_linker_0, # of connection points: 2
#     Edge 42, Type (0, 0), BuildingBlock: CIFDUS_clean_linker_0, # of connection points: 2
#     Edge 43, Type (0, 0), BuildingBlock: CIFDUS_clean_linker_0, # of connection points: 2
#     Edge 44, Type (0, 0), BuildingBlock: CIFDUS_clean_linker_0, # of connection points: 2
#     Edge 45, Type (0, 0), BuildingBlock: CIFDUS_clean_linker_0, # of connection points: 2
#     Edge 46, Type (0, 0), BuildingBlock: CIFDUS_clean_linker_0, # of connection points: 2
#     Edge 47, Type (0, 0), BuildingBlock: CIFDUS_clean_linker_0, # of connection points: 2
#     Edge 48, Type (0, 0), BuildingBlock: CIFDUS_clean_linker_0, # of connection points: 2
#     Edge 49, Type (0, 0), BuildingBlock: CIFDUS_clean_linker_0, # of connection points: 2
#     Edge 50, Type (0, 0), BuildingBlock: CIFDUS_clean_linker_0, # of connection points: 2
#     Edge 51, Type (0, 0), BuildingBlock: CIFDUS_clean_linker_0, # of connection points: 2
#     Edge 52, Type (0, 0), BuildingBlock: CIFDUS_clean_linker_0, # of connection points: 2
#     Edge 53, Type (0, 0), BuildingBlock: CIFDUS_clean_linker_0, # of connection points: 2
#     Edge 54, Type (0, 0), BuildingBlock: CIFDUS_clean_linker_0, # of connection points: 2
#     Edge 55, Type (0, 0), BuildingBlock: CIFDUS_clean_linker_0, # of connection points: 2
# Relax obj value: 0.029
# Max RMSD: 0.076
# Mean RMSD: 0.076
data_MOF--net-zga--node1-XOMCOT_clean_sbu_0--edge1-CIFDUS_clean_linker_0
_symmetry_space_group_name_H-M    P1
_symmetry_Int_Tables_number       1
_symmetry_cell_setting            triclinic
loop_
_symmetry_equiv_pos_as_xyz
'x, y, z'
_cell_length_a     44.078861
_cell_length_b     93.281042
_cell_length_c     15.809247
_cell_angle_alpha  91.953867
_cell_angle_beta   90.041923
_cell_angle_gamma 89.90603
loop_
_atom_site_label
_atom_site_type_symbol
_atom_site_fract_x
_atom_site_fract_y
_atom_site_fract_z
_atom_type_partial_charge
Co0 Co 0.12806 0.54626 0.11759 0.0
C1 C 0.127 0.54576 0.93032 0.0
C2 C 0.16054 0.53139 0.97621 0.0
C3 C 0.15939 0.52981 0.88937 0.0
N4 N 0.14088 0.54177 1.00199 0.0
N5 N 0.13814 0.53884 0.86088 0.0
H6 H 0.10785 0.55292 0.92869 0.0
H7 H 0.17344 0.52467 0.01732 0.0
C8 C 0.19563 0.54076 0.14528 0.0
O9 O 0.20188 0.55028 0.08849 0.0
N10 N 0.11506 0.55015 0.23194 0.0
C11 C 0.09671 0.56077 0.26108 0.0
C12 C 0.09582 0.56038 0.3482 0.0
C13 C 0.12481 0.5434 0.30063 0.0
N14 N 0.11373 0.54951 0.37255 0.0
C15 C 0.13065 0.57484 0.05598 0.0
C16 C 0.16888 0.58687 0.17691 0.0
C17 C 0.15663 0.59578 0.1153 0.0
C18 C 0.13735 0.58944 0.05448 0.0
C19 C 0.162 0.57206 0.17503 0.0
N20 N 0.14346 0.56609 0.1137 0.0
H21 H 0.11358 0.57086 0.01312 0.0
H22 H 0.17075 0.56552 0.22468 0.0
H23 H 0.08574 0.56854 0.22203 0.0
H24 H 0.14013 0.53433 0.2983 0.0
O25 O 0.08706 0.5498 0.07821 0.0
O26 O 0.10413 0.52858 0.11349 0.0
O27 O 0.16788 0.53817 0.16342 0.0
C28 C 0.08169 0.5362 0.08524 0.0
H29 H 0.17195 0.52205 0.85082 0.0
H30 H 0.0841 0.5679 0.39042 0.0
H31 H 0.18345 0.59131 0.22633 0.0
H32 H 0.12626 0.59589 1.00782 0.0
Co33 Co 0.12787 0.73158 0.12963 0.0
C34 C 0.13295 0.7326 0.32204 0.0
C35 C 0.15471 0.75021 0.26358 0.0
C36 C 0.15623 0.75235 0.34999 0.0
N37 N 0.14073 0.73766 0.24494 0.0
N38 N 0.14234 0.74136 0.38767 0.0
H39 H 0.1192 0.72322 0.3305 0.0
H40 H 0.1624 0.75764 0.21716 0.0
C41 C 0.19531 0.73861 0.10757 0.0
O42 O 0.20241 0.7335 0.18143 0.0
N43 N 0.11468 0.72584 0.0151 0.0
C44 C 0.09558 0.71498 0.9956 0.0
C45 C 0.09384 0.7132 0.90878 0.0
C46 C 0.12408 0.73064 0.93907 0.0
N47 N 0.11185 0.72297 0.87266 0.0
C48 C 0.12249 0.70351 0.19707 0.0
C49 C 0.16961 0.69037 0.10922 0.0
C50 C 0.15172 0.68197 0.16212 0.0
C51 C 0.12794 0.68886 0.20627 0.0
C52 C 0.16354 0.70515 0.10238 0.0
N53 N 0.14045 0.71164 0.14721 0.0
H54 H 0.10286 0.70815 0.22801 0.0
H55 H 0.1768 0.71115 0.05854 0.0
H56 H 0.08419 0.70855 0.0415 0.0
H57 H 0.14015 0.73926 0.9324 0.0
O58 O 0.08614 0.73082 0.17031 0.0
O59 O 0.10798 0.74997 0.11929 0.0
O60 O 0.16818 0.73751 0.07937 0.0
C61 C 0.08409 0.74433 0.15285 0.0
H62 H 0.16639 0.76157 0.38216 0.0
H63 H 0.08035 0.7052 0.87488 0.0
H64 H 0.18803 0.68557 0.07284 0.0
H65 H 0.1127 0.68287 0.24546 0.0
Co66 Co 0.8861 0.48074 0.91651 0.0
C67 C 0.88281 0.47817 0.10162 0.0
C68 C 0.8593 0.4968 0.05969 0.0
C69 C 0.85875 0.497 0.14669 0.0
N70 N 0.87419 0.48496 0.03168 0.0
N71 N 0.87365 0.48531 0.1729 0.0
H72 H 0.89691 0.46867 0.10046 0.0
H73 H 0.85071 0.50508 0.01989 0.0
C74 C 0.82748 0.48827 0.8154 0.0
O75 O 0.83275 0.47873 0.7541 0.0
N76 N 0.89876 0.47664 0.80118 0.0
C77 C 0.91463 0.46504 0.77363 0.0
C78 C 0.91866 0.46571 0.68785 0.0
C79 C 0.89465 0.48457 0.73229 0.0
N80 N 0.90569 0.47788 0.66158 0.0
C81 C 0.89129 0.45075 0.94935 0.0
C82 C 0.83447 0.44174 0.89833 0.0
C83 C 0.85615 0.43123 0.91789 0.0
C84 C 0.88466 0.4361 0.94546 0.0
C85 C 0.84214 0.45645 0.90298 0.0
N86 N 0.87085 0.46084 0.92443 0.0
H87 H 0.91381 0.45378 0.9692 0.0
H88 H 0.82475 0.4641 0.88914 0.0
H89 H 0.92286 0.45661 0.81271 0.0
H90 H 0.88261 0.49469 0.73334 0.0
O91 O 0.92759 0.4776 0.95348 0.0
O92 O 0.90977 0.49861 0.91872 0.0
O93 O 0.84525 0.48923 0.87986 0.0
C94 C 0.9326 0.49118 0.94602 0.0
H95 H 0.84868 0.50527 0.18738 0.0
H96 H 0.93005 0.45774 0.64782 0.0
H97 H 0.81172 0.43867 0.87945 0.0
H98 H 0.9025 0.42865 0.96099 0.0
Co99 Co 0.87961 0.29426 0.86161 0.0
C100 C 0.88425 0.29111 0.67519 0.0
C101 C 0.83817 0.29417 0.7151 0.0
C102 C 0.83874 0.29286 0.62807 0.0
N103 N 0.86675 0.29298 0.74461 0.0
N104 N 0.86778 0.29094 0.60332 0.0
H105 H 0.90859 0.2899 0.67656 0.0
H106 H 0.81827 0.29613 0.75368 0.0
C107 C 0.82013 0.28911 0.96063 0.0
O108 O 0.82739 0.29806 0.02334 0.0
N109 N 0.89288 0.2956 0.97795 0.0
C110 C 0.91181 0.30554 1.01205 0.0
C111 C 0.91505 0.30316 0.09662 0.0
C112 C 0.88612 0.28686 0.04143 0.0
N113 N 0.89858 0.29152 0.1154 0.0
C114 C 0.8933 0.32419 0.8484 0.0
C115 C 0.8373 0.33554 0.89136 0.0
C116 C 0.86188 0.34493 0.88304 0.0
C117 C 0.88992 0.33906 0.8592 0.0
C118 C 0.84178 0.32059 0.8812 0.0
N119 N 0.87 0.31499 0.86434 0.0
H120 H 0.91539 0.32013 0.83089 0.0
H121 H 0.82244 0.31371 0.88741 0.0
H122 H 0.92236 0.31409 0.97868 0.0
H123 H 0.87152 0.27758 0.03427 0.0
O124 O 0.92221 0.29485 0.82724 0.0
O125 O 0.89691 0.27506 0.8513 0.0
O126 O 0.83717 0.28779 0.89511 0.0
C127 C 0.92237 0.28092 0.82988 0.0
H128 H 0.8194 0.29372 0.58634 0.0
H129 H 0.92725 0.31 0.14161 0.0
H130 H 0.81506 0.33967 0.90831 0.0
H131 H 0.90941 0.34593 0.85072 0.0
Co132 Co 0.13368 0.04512 0.62204 0.0
C133 C 0.13806 0.04405 0.42935 0.0
C134 C 0.16684 0.02882 0.4881 0.0
C135 C 0.16894 0.02676 0.40173 0.0
N136 N 0.1481 0.03993 0.50661 0.0
N137 N 0.15074 0.03628 0.364 0.0
H138 H 0.12033 0.05182 0.4204 0.0
H139 H 0.17731 0.02211 0.53427 0.0
C140 C 0.20145 0.04119 0.64953 0.0
O141 O 0.20718 0.04951 0.58608 0.0
N142 N 0.11913 0.0499 0.73657 0.0
C143 C 0.09719 0.05952 0.75575 0.0
C144 C 0.09489 0.06113 0.84247 0.0
C145 C 0.12983 0.04572 0.81273 0.0
N146 N 0.11547 0.05254 0.87888 0.0
C147 C 0.12948 0.07326 0.55439 0.0
C148 C 0.16918 0.0872 0.66435 0.0
C149 C 0.15399 0.09531 0.60391 0.0
C150 C 0.13399 0.08804 0.54855 0.0
C151 C 0.16446 0.07225 0.66688 0.0
N152 N 0.14522 0.06536 0.61092 0.0
H153 H 0.11197 0.06838 0.51592 0.0
H154 H 0.17543 0.06636 0.716 0.0
H155 H 0.08424 0.06527 0.70968 0.0
H156 H 0.1484 0.03826 0.81977 0.0
O157 O 0.09243 0.04592 0.57828 0.0
O158 O 0.11447 0.02647 0.62561 0.0
O159 O 0.17404 0.03923 0.67268 0.0
C160 C 0.0907 0.03226 0.59179 0.0
H161 H 0.18246 0.01858 0.36954 0.0
H162 H 0.07926 0.06823 0.87611 0.0
H163 H 0.18442 0.09236 0.70963 0.0
H164 H 0.12078 0.09385 0.50311 0.0
Co165 Co 0.12031 0.23147 0.627 0.0
C166 C 0.1248 0.22967 0.81229 0.0
C167 C 0.1469 0.24842 0.7683 0.0
C168 C 0.1462 0.24924 0.85549 0.0
N169 N 0.13392 0.23601 0.74124 0.0
N170 N 0.13198 0.23748 0.88277 0.0
H171 H 0.11147 0.22003 0.81293 0.0
H172 H 0.15448 0.25676 0.72742 0.0
C173 C 0.18789 0.23905 0.60453 0.0
O174 O 0.19566 0.23355 0.67682 0.0
N175 N 0.10644 0.22728 0.51348 0.0
C176 C 0.09021 0.21592 0.48451 0.0
C177 C 0.08949 0.2161 0.39729 0.0
C178 C 0.11483 0.23431 0.44447 0.0
N179 N 0.10527 0.22762 0.37232 0.0
C180 C 0.11355 0.20237 0.67826 0.0
C181 C 0.16344 0.19048 0.59695 0.0
C182 C 0.14481 0.18151 0.64427 0.0
C183 C 0.11955 0.18773 0.68474 0.0
C184 C 0.15693 0.20529 0.59347 0.0
N185 N 0.13256 0.21119 0.63575 0.0
H186 H 0.09295 0.2065 0.70651 0.0
H187 H 0.17111 0.2118 0.55474 0.0
H188 H 0.08077 0.20775 0.52356 0.0
H189 H 0.12827 0.24398 0.44721 0.0
O190 O 0.07866 0.23044 0.66899 0.0
O191 O 0.10061 0.25009 0.62563 0.0
O192 O 0.16058 0.23787 0.57744 0.0
C193 C 0.07672 0.24416 0.65737 0.0
H194 H 0.15357 0.25826 0.89523 0.0
H195 H 0.0795 0.20796 0.35561 0.0
H196 H 0.18292 0.18611 0.5632 0.0
H197 H 0.10387 0.18122 0.71955 0.0
Co198 Co 0.89619 0.98298 0.36728 0.0
C199 C 0.8886 0.98194 0.55858 0.0
C200 C 0.86403 0.9991 0.50356 0.0
C201 C 0.86046 1.00013 0.59002 0.0
N202 N 0.8809 0.98744 0.48254 0.0
N203 N 0.87593 0.98938 0.6252 0.0
H204 H 0.90386 0.97302 0.566 0.0
H205 H 0.85581 1.00677 0.45917 0.0
C206 C 0.82895 0.98868 0.33844 0.0
O207 O 0.82172 0.98095 0.40337 0.0
N208 N 0.91183 0.97883 0.25308 0.0
C209 C 0.93384 0.96923 0.23435 0.0
C210 C 0.93768 0.96827 0.14794 0.0
C211 C 0.90241 0.98355 0.17677 0.0
N212 N 0.91801 0.97726 0.11096 0.0
C213 C 0.89948 0.9538 0.4212 0.0
C214 C 0.85883 0.94225 0.30473 0.0
C215 C 0.875 0.93283 0.35576 0.0
C216 C 0.89521 0.93889 0.41553 0.0
C217 C 0.8636 0.95713 0.31288 0.0
N218 N 0.88357 0.96282 0.37115 0.0
H219 H 0.91711 0.95794 0.46234 0.0
H220 H 0.85243 0.96392 0.26856 0.0
H221 H 0.94582 0.96305 0.28043 0.0
H222 H 0.88457 0.99137 0.16946 0.0
O223 O 0.93708 0.98163 0.41409 0.0
O224 O 0.91588 1.00148 0.3695 0.0
O225 O 0.85665 0.98959 0.31521 0.0
C226 C 0.93923 0.99539 0.4034 0.0
H227 H 0.84847 1.00859 0.62471 0.0
H228 H 0.95333 0.9611 0.11491 0.0
H229 H 0.84311 0.93817 0.25714 0.0
H230 H 0.909 0.93213 0.45456 0.0
Co231 Co 0.8882 0.79556 0.35236 0.0
C232 C 0.88824 0.79067 0.16018 0.0
C233 C 0.8442 0.79505 0.21256 0.0
C234 C 0.84147 0.79338 0.12623 0.0
N235 N 0.87339 0.79318 0.23507 0.0
N236 N 0.86904 0.79058 0.09251 0.0
H237 H 0.91246 0.78903 0.15488 0.0
H238 H 0.82598 0.79791 0.25565 0.0
C239 C 0.83113 0.78852 0.46064 0.0
O240 O 0.84053 0.79527 0.52988 0.0
N241 N 0.90355 0.79838 0.46875 0.0
C242 C 0.92038 0.80984 0.49336 0.0
C243 C 0.92674 0.80921 0.57821 0.0
C244 C 0.90105 0.79056 0.53974 0.0
N245 N 0.91432 0.79722 0.60835 0.0
C246 C 0.89269 0.82432 0.29397 0.0
C247 C 0.85539 0.83744 0.41371 0.0
C248 C 0.87187 0.84619 0.35971 0.0
C249 C 0.8901 0.83936 0.29755 0.0
C250 C 0.85848 0.82248 0.40763 0.0
N251 N 0.87762 0.81604 0.34998 0.0
H252 H 0.90785 0.81932 0.24801 0.0
H253 H 0.84635 0.81627 0.45196 0.0
H254 H 0.92706 0.81834 0.45252 0.0
H255 H 0.88913 0.78044 0.54184 0.0
O256 O 0.92997 0.79639 0.31206 0.0
O257 O 0.90594 0.77661 0.34603 0.0
O258 O 0.8462 0.78911 0.39138 0.0
C259 C 0.93064 0.7825 0.31894 0.0
H260 H 0.82069 0.79466 0.09071 0.0
H261 H 0.93854 0.81737 0.61576 0.0
H262 H 0.84056 0.84213 0.46177 0.0
H263 H 0.90338 0.84558 0.25444 0.0
Co264 Co 0.62353 0.54642 0.616 0.0
C265 C 0.62654 0.54879 0.42997 0.0
C266 C 0.65022 0.53028 0.4725 0.0
C267 C 0.65055 0.52993 0.3854 0.0
N268 N 0.63541 0.54218 0.50036 0.0
N269 N 0.6356 0.54157 0.3589 0.0
H270 H 0.61222 0.55819 0.43022 0.0
H271 H 0.65884 0.52204 0.51248 0.0
C272 C 0.68104 0.53757 0.71909 0.0
O273 O 0.6747 0.5461 0.78453 0.0
N274 N 0.61076 0.55056 0.73121 0.0
C275 C 0.59679 0.56268 0.75886 0.0
C276 C 0.59211 0.56203 0.84437 0.0
C277 C 0.61299 0.54236 0.79965 0.0
N278 N 0.60284 0.54936 0.8705 0.0
C279 C 0.62036 0.57614 0.57463 0.0
C280 C 0.67128 0.5858 0.66034 0.0
C281 C 0.6507 0.59591 0.63026 0.0
C282 C 0.62558 0.59089 0.58447 0.0
C283 C 0.66538 0.57101 0.64823 0.0
N284 N 0.63926 0.56626 0.60956 0.0
H285 H 0.59967 0.57286 0.54355 0.0
H286 H 0.68154 0.56364 0.67261 0.0
H287 H 0.59059 0.57151 0.71997 0.0
H288 H 0.62343 0.53184 0.79833 0.0
O289 O 0.5822 0.54999 0.57934 0.0
O290 O 0.59928 0.52875 0.61284 0.0
O291 O 0.6643 0.53762 0.65233 0.0
C292 C 0.57673 0.53643 0.58597 0.0
H293 H 0.66048 0.52161 0.34484 0.0
H294 H 0.58205 0.57039 0.88435 0.0
H295 H 0.69119 0.58928 0.69554 0.0
H296 H 0.6091 0.59835 0.56027 0.0
Co297 Co 0.63115 0.73228 0.66693 0.0
C298 C 0.63169 0.7306 0.85198 0.0
C299 C 0.66047 0.7474 0.80904 0.0
C300 C 0.65914 0.74838 0.89583 0.0
N301 N 0.64339 0.73621 0.78187 0.0
N302 N 0.64087 0.73788 0.9228 0.0
H303 H 0.6157 0.72182 0.8506 0.0
H304 H 0.67132 0.75495 0.76851 0.0
C305 C 0.68999 0.7375 0.56479 0.0
O306 O 0.68301 0.72836 0.5028 0.0
N307 N 0.61828 0.72863 0.55158 0.0
C308 C 0.60294 0.71717 0.51999 0.0
C309 C 0.59986 0.71846 0.43411 0.0
C310 C 0.62294 0.73706 0.48541 0.0
N311 N 0.61286 0.73088 0.41228 0.0
C312 C 0.62102 0.70242 0.69945 0.0
C313 C 0.67748 0.69207 0.65309 0.0
C314 C 0.65451 0.68211 0.6696 0.0
C315 C 0.62622 0.68757 0.69572 0.0
C316 C 0.67138 0.70687 0.65817 0.0
N317 N 0.6429 0.71194 0.67658 0.0
H318 H 0.59864 0.70617 0.71672 0.0
H319 H 0.68979 0.71406 0.6466 0.0
H320 H 0.59498 0.70829 0.55575 0.0
H321 H 0.63478 0.74721 0.49026 0.0
O322 O 0.58882 0.73147 0.70342 0.0
O323 O 0.61235 0.75109 0.66575 0.0
O324 O 0.67314 0.73882 0.63063 0.0
C325 C 0.58773 0.74526 0.69363 0.0
H326 H 0.66926 0.75679 0.93533 0.0
H327 H 0.59035 0.71045 0.39062 0.0
H328 H 0.70008 0.68846 0.63583 0.0
H329 H 0.60768 0.68043 0.70964 0.0
Co330 Co 0.38034 0.48264 0.40798 0.0
C331 C 0.3808 0.48273 0.59512 0.0
C332 C 0.34728 0.49712 0.54941 0.0
C333 C 0.34834 0.49863 0.63627 0.0
N334 N 0.36702 0.48679 0.52346 0.0
N335 N 0.3696 0.4896 0.66465 0.0
H336 H 0.40003 0.4756 0.59669 0.0
H337 H 0.33449 0.50391 0.50843 0.0
C338 C 0.31288 0.48807 0.37869 0.0
O339 O 0.30657 0.47834 0.43423 0.0
N340 N 0.39387 0.47906 0.29378 0.0
C341 C 0.41248 0.46854 0.26462 0.0
C342 C 0.41342 0.46897 0.17754 0.0
C343 C 0.38405 0.48579 0.22511 0.0
N344 N 0.3953 0.47975 0.15319 0.0
C345 C 0.37852 0.45381 0.46501 0.0
C346 C 0.34301 0.4419 0.33712 0.0
C347 C 0.35748 0.43273 0.39327 0.0
C348 C 0.37475 0.43896 0.45879 0.0
C349 C 0.34732 0.45691 0.3458 0.0
N350 N 0.36513 0.46275 0.40925 0.0
H351 H 0.39457 0.45784 0.51068 0.0
H352 H 0.33803 0.46367 0.29804 0.0
H353 H 0.42348 0.46076 0.30358 0.0
H354 H 0.36845 0.49476 0.22743 0.0
O355 O 0.42114 0.47898 0.44819 0.0
O356 O 0.40429 0.50032 0.41463 0.0
O357 O 0.34067 0.4908 0.36169 0.0
C358 C 0.42662 0.49259 0.4426 0.0
H359 H 0.33581 0.5064 0.67489 0.0
H360 H 0.42525 0.46148 0.13534 0.0
H361 H 0.33017 0.4375 0.28394 0.0
H362 H 0.38701 0.43229 0.50206 0.0
Co363 Co 0.38523 0.29709 0.37883 0.0
C364 C 0.37833 0.29692 0.18665 0.0
C365 C 0.35623 0.27927 0.2436 0.0
C366 C 0.35313 0.27777 0.15704 0.0
N367 N 0.37123 0.29152 0.26345 0.0
N368 N 0.36702 0.28884 0.1206 0.0
H369 H 0.39226 0.30623 0.17813 0.0
H370 H 0.34898 0.27156 0.28889 0.0
C371 C 0.31922 0.28848 0.41059 0.0
O372 O 0.30995 0.29533 0.34405 0.0
N373 N 0.39951 0.30231 0.49321 0.0
C374 C 0.41809 0.31336 0.51283 0.0
C375 C 0.42168 0.31443 0.59941 0.0
C376 C 0.39197 0.2968 0.56907 0.0
N377 N 0.4053 0.30403 0.63553 0.0
C378 C 0.38265 0.32563 0.31771 0.0
C379 C 0.33953 0.33673 0.4282 0.0
C380 C 0.35408 0.34617 0.37351 0.0
C381 C 0.37542 0.34021 0.31664 0.0
C382 C 0.34719 0.32201 0.42632 0.0
N383 N 0.36843 0.31656 0.37084 0.0
H384 H 0.40115 0.3219 0.27854 0.0
H385 H 0.33716 0.31524 0.47274 0.0
H386 H 0.42786 0.32041 0.46727 0.0
H387 H 0.37714 0.28769 0.57557 0.0
O388 O 0.42544 0.3005 0.3334 0.0
O389 O 0.4096 0.27966 0.37836 0.0
O390 O 0.34723 0.28886 0.43192 0.0
C391 C 0.43123 0.28703 0.34453 0.0
H392 H 0.34252 0.2688 0.12335 0.0
H393 H 0.4348 0.32257 0.63315 0.0
H394 H 0.32339 0.34074 0.47485 0.0
H395 H 0.38728 0.34682 0.27249 0.0
Co396 Co 0.62307 0.04351 0.15408 0.0
C397 C 0.62827 0.04316 0.96192 0.0
C398 C 0.65531 0.02711 0.01945 0.0
C399 C 0.65714 0.02514 0.93312 0.0
N400 N 0.6379 0.03865 0.03879 0.0
N401 N 0.63994 0.03512 0.89603 0.0
H402 H 0.61135 0.05137 0.95393 0.0
H403 H 0.66474 0.01996 0.065 0.0
C404 C 0.69019 0.03759 0.18387 0.0
O405 O 0.6976 0.04557 0.12019 0.0
N406 N 0.60787 0.04801 0.2684 0.0
C407 C 0.58632 0.05785 0.28725 0.0
C408 C 0.58407 0.05961 0.37391 0.0
C409 C 0.61837 0.04384 0.34479 0.0
N410 N 0.60429 0.05088 0.41061 0.0
C411 C 0.62307 0.07259 0.09596 0.0
C412 C 0.66115 0.08377 0.22035 0.0
C413 C 0.64667 0.09332 0.16659 0.0
C414 C 0.62796 0.08747 0.10243 0.0
C415 C 0.656 0.06896 0.21101 0.0
N416 N 0.63707 0.06345 0.14948 0.0
H417 H 0.60635 0.0686 0.05152 0.0
H418 H 0.66576 0.06207 0.25727 0.0
H419 H 0.57382 0.06378 0.24099 0.0
H420 H 0.63677 0.03632 0.35228 0.0
O421 O 0.58216 0.04537 0.10788 0.0
O422 O 0.60232 0.02531 0.15298 0.0
O423 O 0.66237 0.03648 0.20575 0.0
C424 C 0.57925 0.03166 0.1192 0.0
H425 H 0.66959 0.01661 0.90054 0.0
H426 H 0.56889 0.06696 0.40731 0.0
H427 H 0.67563 0.08775 0.27129 0.0
H428 H 0.61562 0.0944 0.06085 0.0
Co429 Co 0.6226 0.22936 0.17504 0.0
C430 C 0.62644 0.22959 0.36781 0.0
C431 C 0.65013 0.24687 0.31132 0.0
C432 C 0.65267 0.24848 0.39768 0.0
N433 N 0.6342 0.23491 0.29154 0.0
N434 N 0.63788 0.23763 0.4339 0.0
H435 H 0.61245 0.22023 0.37535 0.0
H436 H 0.65834 0.25436 0.26604 0.0
C437 C 0.67943 0.23779 0.06922 0.0
O438 O 0.67263 0.22938 1.00373 0.0
N439 N 0.61021 0.22402 0.05884 0.0
C440 C 0.59711 0.21142 0.03603 0.0
C441 C 0.59158 0.21103 0.95039 0.0
C442 C 0.61138 0.23138 0.986 0.0
N443 N 0.60087 0.22348 0.91828 0.0
C444 C 0.6209 0.20049 0.23296 0.0
C445 C 0.66867 0.18954 0.1384 0.0
C446 C 0.64962 0.17989 0.17909 0.0
C447 C 0.62614 0.18566 0.22939 0.0
C448 C 0.66293 0.20438 0.14473 0.0
N449 N 0.63845 0.20974 0.18867 0.0
H450 H 0.60123 0.20435 0.26714 0.0
H451 H 0.67767 0.21128 0.11118 0.0
H452 H 0.59205 0.20293 0.07859 0.0
H453 H 0.62035 0.24214 0.98217 0.0
O454 O 0.58126 0.22622 0.21192 0.0
O455 O 0.59882 0.247 0.17098 0.0
O456 O 0.66341 0.23765 0.1371 0.0
C457 C 0.5762 0.23974 0.20065 0.0
H458 H 0.66371 0.25732 0.43134 0.0
H459 H 0.58232 0.20202 0.9139 0.0
H460 H 0.68753 0.18565 0.10014 0.0
H461 H 0.61064 0.17871 0.26173 0.0
Co462 Co 0.38352 0.98278 0.90189 0.0
C463 C 0.38114 0.98152 0.08815 0.0
C464 C 0.35313 0.99835 0.04264 0.0
C465 C 0.35372 0.99945 0.12973 0.0
N466 N 0.36984 0.9869 0.01656 0.0
N467 N 0.37161 0.9889 0.1579 0.0
H468 H 0.39749 0.97297 0.08977 0.0
H469 H 0.34286 1.00597 1.00121 0.0
C470 C 0.31539 0.98732 0.88139 0.0
O471 O 0.30991 0.97922 0.946 0.0
N472 N 0.39723 0.97911 0.78806 0.0
C473 C 0.41607 0.96868 0.75927 0.0
C474 C 0.41664 0.9689 0.67209 0.0
C475 C 0.38693 0.98562 0.71911 0.0
N476 N 0.39807 0.9795 0.64718 0.0
C477 C 0.39106 0.95386 0.95568 0.0
C478 C 0.34584 0.94094 0.8595 0.0
C479 C 0.36342 0.93236 0.91225 0.0
C480 C 0.38633 0.93909 0.9602 0.0
C481 C 0.35091 0.95589 0.8583 0.0
N482 N 0.37275 0.96231 0.90835 0.0
H483 H 0.41049 0.95831 0.98815 0.0
H484 H 0.3379 0.96214 0.81493 0.0
H485 H 0.42754 0.9611 0.79857 0.0
H486 H 0.37109 0.99448 0.72155 0.0
O487 O 0.42518 0.98199 0.94273 0.0
O488 O 0.40217 1.00165 0.90239 0.0
O489 O 0.34259 0.98881 0.85518 0.0
C490 C 0.42641 0.99577 0.93293 0.0
H491 H 0.34352 1.0079 0.1688 0.0
H492 H 0.42861 0.9614 0.63035 0.0
H493 H 0.32836 0.93616 0.81957 0.0
H494 H 0.40136 0.93288 0.99903 0.0
Co495 Co 0.39183 0.79634 0.89434 0.0
C496 C 0.38436 0.79647 0.70256 0.0
C497 C 0.36338 0.77845 0.7588 0.0
C498 C 0.36015 0.77705 0.6722 0.0
N499 N 0.37783 0.79083 0.77903 0.0
N500 N 0.37338 0.78835 0.63626 0.0
H501 H 0.39745 0.80607 0.69451 0.0
H502 H 0.3564 0.77067 0.80405 0.0
C503 C 0.32455 0.78955 0.92006 0.0
O504 O 0.317 0.79501 0.8475 0.0
N505 N 0.40614 0.80153 1.00865 0.0
C506 C 0.42588 0.81212 0.02786 0.0
C507 C 0.42941 0.81323 0.11443 0.0
C508 C 0.3979 0.79629 0.0847 0.0
N509 N 0.4119 0.80328 0.15099 0.0
C510 C 0.3968 0.82472 0.83054 0.0
C511 C 0.35088 0.83762 0.92455 0.0
C512 C 0.36792 0.84612 0.87025 0.0
C513 C 0.3911 0.83938 0.82299 0.0
C514 C 0.35698 0.8228 0.92904 0.0
N515 N 0.37939 0.81642 0.88097 0.0
H516 H 0.4161 0.82017 0.79751 0.0
H517 H 0.34431 0.81666 0.97353 0.0
H518 H 0.43661 0.8188 0.98199 0.0
H519 H 0.38218 0.78753 0.09134 0.0
O520 O 0.43321 0.79711 0.85074 0.0
O521 O 0.41149 0.77782 0.90042 0.0
O522 O 0.35192 0.79035 0.94661 0.0
C523 C 0.43519 0.78351 0.86614 0.0
H524 H 0.34986 0.76805 0.63809 0.0
H525 H 0.4434 0.82109 0.14777 0.0
H526 H 0.33306 0.84237 0.96346 0.0
H527 H 0.4056 0.84552 0.78247 0.0
H528 H 0.31668 0.51011 0.26707 0.0
H529 H 0.25176 0.48532 0.40442 0.0
H530 H 0.21028 0.49933 0.34673 0.0
H531 H 0.19186 0.51875 0.25712 0.0
H532 H 0.25676 0.54352 0.11956 0.0
H533 H 0.29825 0.52953 0.17737 0.0
C534 C 0.29348 0.50772 0.28436 0.0
C535 C 0.28765 0.49657 0.34044 0.0
C536 C 0.26945 0.51591 0.25089 0.0
C537 C 0.25723 0.49376 0.36165 0.0
C538 C 0.23334 0.50182 0.32864 0.0
C539 C 0.21507 0.52114 0.23982 0.0
C540 C 0.22088 0.53228 0.18365 0.0
C541 C 0.2391 0.51296 0.27328 0.0
C542 C 0.2513 0.53508 0.1624 0.0
C543 C 0.2752 0.52704 0.19548 0.0
H544 H 0.03248 0.73611 0.23408 0.0
H545 H 0.07474 0.77264 0.12283 0.0
H546 H 0.03166 0.78772 0.16514 0.0
H547 H 0.98188 0.79072 0.23538 0.0
H548 H 0.93955 0.7541 0.34551 0.0
H549 H 0.98252 0.73903 0.30255 0.0
C550 C 0.03219 0.74735 0.21863 0.0
C551 C 0.05689 0.75318 0.17507 0.0
C552 C 0.00728 0.75603 0.24353 0.0
C553 C 0.05609 0.76781 0.15606 0.0
C554 C 0.03144 0.77648 0.18048 0.0
C555 C 0.98213 0.77946 0.25027 0.0
C556 C 0.95748 0.7736 0.294 0.0
C557 C 0.00694 0.77075 0.22467 0.0
C558 C 0.95814 0.75894 0.31205 0.0
C559 C 0.98275 0.75027 0.28739 0.0
H560 H 0.27152 0.77736 0.86273 0.0
H561 H 0.32779 0.7819 0.08534 0.0
H562 H 0.29403 0.76613 0.16146 0.0
H563 H 0.24839 0.75081 0.16533 0.0
H564 H 0.19237 0.7462 0.94223 0.0
H565 H 0.22606 0.762 0.86643 0.0
C566 C 0.27625 0.77503 0.92817 0.0
C567 C 0.30226 0.78091 0.968 0.0
C568 C 0.25684 0.76575 0.97161 0.0
C569 C 0.30809 0.77756 0.05267 0.0
C570 C 0.28876 0.76848 0.0964 0.0
C571 C 0.2437 0.75313 0.09986 0.0
C572 C 0.21772 0.74723 0.05988 0.0
C573 C 0.26316 0.76241 0.05642 0.0
C574 C 0.212 0.75056 0.97511 0.0
C575 C 0.2313 0.75966 0.93152 0.0
H576 H 0.94939 0.51966 0.95377 0.0
H577 H 0.98318 0.4771 0.99711 0.0
H578 H 0.0316 0.48702 0.04492 0.0
H579 H 0.06487 0.50782 0.07598 0.0
H580 H 0.03135 0.5504 0.03235 0.0
H581 H 0.98289 0.5405 0.98401 0.0
C582 C 0.96739 0.51255 0.97327 0.0
C583 C 0.96243 0.49761 0.97148 0.0
C584 C 0.99545 0.51836 1.00137 0.0
C585 C 0.98614 0.48863 0.99753 0.0
C586 C 0.01397 0.4943 0.02517 0.0
C587 C 0.04693 0.51494 0.05624 0.0
C588 C 0.05191 0.52987 0.05838 0.0
C589 C 0.01893 0.50915 0.02779 0.0
C590 C 0.02832 0.53888 0.03182 0.0
C591 C 1.00048 0.53322 1.00388 0.0
H592 H 0.79012 0.49284 0.67916 0.0
H593 H 0.80349 0.50581 0.94109 0.0
H594 H 0.76038 0.52215 0.93411 0.0
H595 H 0.7185 0.53289 0.85429 0.0
H596 H 0.70509 0.52013 0.59208 0.0
H597 H 0.74821 0.50373 0.59882 0.0
C598 C 0.78358 0.49918 0.73493 0.0
C599 C 0.80037 0.49799 0.81067 0.0
C600 C 0.75858 0.5087 0.73046 0.0
C601 C 0.79139 0.50645 0.88179 0.0
C602 C 0.76657 0.51584 0.87791 0.0
C603 C 0.72499 0.52658 0.79832 0.0
C604 C 0.70819 0.52784 0.72268 0.0
C605 C 0.75 0.5171 0.80259 0.0
C606 C 0.71721 0.51944 0.65131 0.0
C607 C 0.74202 0.51002 0.6551 0.0
H608 H 0.02449 0.2351 0.73324 0.0
H609 H 0.06801 0.27288 0.64078 0.0
H610 H 0.02487 0.28756 0.68727 0.0
H611 H 0.9746 0.28984 0.75478 0.0
H612 H 0.93058 0.25209 0.84565 0.0
H613 H 0.97386 0.23736 0.7998 0.0
C614 C 0.02448 0.24653 0.7229 0.0
C615 C 0.04957 0.25282 0.68321 0.0
C616 C 0.99945 0.25499 0.75004 0.0
C617 C 0.04909 0.26769 0.67083 0.0
C618 C 0.02439 0.27613 0.69763 0.0
C619 C 0.97453 0.2784 0.76496 0.0
C620 C 0.94932 0.27213 0.80408 0.0
C621 C 0.99946 0.26993 0.73758 0.0
C622 C 0.94961 0.25725 0.81591 0.0
C623 C 0.97439 0.24879 0.78955 0.0
H624 H 0.71164 0.24462 0.92837 0.0
H625 H 0.70699 0.25361 0.19757 0.0
H626 H 0.7487 0.27067 0.1875 0.0
H627 H 0.78713 0.28303 0.10231 0.0
H628 H 0.79217 0.27354 0.83356 0.0
H629 H 0.74987 0.25685 0.84362 0.0
C630 C 0.71979 0.25023 0.9851 0.0
C631 C 0.70589 0.24777 0.06371 0.0
C632 C 0.74392 0.26008 0.97888 0.0
C633 C 0.71687 0.25529 0.1361 0.0
C634 C 0.74085 0.26508 0.13041 0.0
C635 C 0.7788 0.27743 0.04575 0.0
C636 C 0.7929 0.27968 0.96712 0.0
C637 C 0.75454 0.26762 0.05208 0.0
C638 C 0.7819 0.27211 0.89491 0.0
C639 C 0.75767 0.2625 0.9006 0.0
H640 H 0.31987 1.00787 0.762 0.0
H641 H 0.25452 0.98644 0.91657 0.0
H642 H 0.21401 1.00138 0.8611 0.0
H643 H 0.1969 0.02065 0.76913 0.0
H644 H 0.26234 0.04213 0.61503 0.0
H645 H 0.30281 0.02717 0.67038 0.0
C646 C 0.29676 1.00637 0.78334 0.0
C647 C 0.29043 0.99592 0.8435 0.0
C648 C 0.27348 0.01513 0.75166 0.0
C649 C 0.26024 0.99431 0.87037 0.0
C650 C 0.23698 1.0029 0.83878 0.0
C651 C 0.22003 0.02216 0.74789 0.0
C652 C 0.22638 0.03262 0.68785 0.0
C653 C 0.24332 1.01341 0.77968 0.0
C654 C 0.2566 0.03426 0.66117 0.0
C655 C 0.27983 0.02565 0.69267 0.0
H656 H 0.24571 0.24748 0.65047 0.0
H657 H 0.17989 0.25086 0.45017 0.0
H658 H 0.21372 0.26649 0.37425 0.0
H659 H 0.26198 0.27966 0.36449 0.0
H660 H 0.32813 0.27629 0.56405 0.0
H661 H 0.29439 0.26049 0.63985 0.0
C662 C 0.23882 0.25153 0.58991 0.0
C663 C 0.21006 0.24783 0.55637 0.0
C664 C 0.25849 0.26073 0.54636 0.0
C665 C 0.20172 0.25337 0.47787 0.0
C666 C 0.22111 0.26241 0.43428 0.0
C667 C 0.269 0.27555 0.4248 0.0
C668 C 0.29771 0.27931 0.45823 0.0
C669 C 0.2495 0.26627 0.46806 0.0
C670 C 0.30631 0.27368 0.5363 0.0
C671 C 0.28696 0.26457 0.57989 0.0
H672 H 0.98881 0.98661 0.49334 0.0
H673 H 0.94983 0.02366 0.37811 0.0
H674 H 0.99243 0.03833 0.42759 0.0
H675 H 0.04095 0.04081 0.50361 0.0
H676 H 0.08033 1.00389 0.6189 0.0
H677 H 0.03756 0.98914 0.57008 0.0
C678 C 0.98972 0.99787 0.47873 0.0
C679 C 0.96609 1.00397 0.43168 0.0
C680 C 0.01437 1.00635 0.50792 0.0
C681 C 0.96763 0.01863 0.41396 0.0
C682 C 0.99202 0.02707 0.44241 0.0
C683 C 0.04012 0.02956 0.51851 0.0
C684 C 0.06386 0.02352 0.56522 0.0
C685 C 0.0155 0.02108 0.48964 0.0
C686 C 0.0624 1.00887 0.5833 0.0
C687 C 0.03794 1.00039 0.55518 0.0
H688 H 0.74841 0.03183 0.13173 0.0
H689 H 0.68405 0.02228 0.32747 0.0
H690 H 0.72042 1.00604 0.39034 0.0
H691 H 0.77063 0.99434 0.39018 0.0
H692 H 0.83491 1.0038 0.19408 0.0
H693 H 0.79852 0.02002 0.13114 0.0
C694 C 0.74238 0.0263 0.18854 0.0
C695 C 0.71342 0.02842 0.22477 0.0
C696 C 0.76339 0.01677 0.22416 0.0
C697 C 0.70609 0.02097 0.29801 0.0
C698 C 0.7269 1.0116 0.33405 0.0
C699 C 0.77663 0.99984 0.33327 0.0
C700 C 0.80561 0.99773 0.29709 0.0
C701 C 0.75559 1.00934 0.2975 0.0
C702 C 0.81289 1.00513 0.2236 0.0
C703 C 0.79206 0.01449 0.18751 0.0
H704 H 0.72132 0.74463 0.42226 0.0
H705 H 0.71989 0.75165 0.69347 0.0
H706 H 0.76213 0.76835 0.6847 0.0
H707 H 0.79951 0.78111 0.60086 0.0
H708 H 0.80177 0.77421 0.32958 0.0
H709 H 0.75927 0.75749 0.33769 0.0
C710 C 0.73043 0.74971 0.47951 0.0
C711 C 0.71727 0.74684 0.55849 0.0
C712 C 0.7548 0.75947 0.47402 0.0
C713 C 0.72928 0.75368 0.63179 0.0
C714 C 0.75352 0.76326 0.62687 0.0
C715 C 0.79062 0.77607 0.54322 0.0
C716 C 0.80389 0.77906 0.46462 0.0
C717 C 0.76634 0.76633 0.54836 0.0
C718 C 0.79207 0.77222 0.39099 0.0
C719 C 0.76777 0.76259 0.39559 0.0
H720 H 0.48584 0.79162 0.77958 0.0
H721 H 0.44493 0.75526 0.89632 0.0
H722 H 0.48768 0.74016 0.85173 0.0
H723 H 0.53694 0.73712 0.77911 0.0
H724 H 0.57805 0.77351 0.66325 0.0
H725 H 0.53517 0.7886 0.70725 0.0
C726 C 0.48635 0.78042 0.79565 0.0
C727 C 0.46214 0.77465 0.8416 0.0
C728 C 0.51107 0.77171 0.76937 0.0
C729 C 0.4632 0.76005 0.86128 0.0
C730 C 0.48766 0.75136 0.83558 0.0
C731 C 0.53642 0.74833 0.76301 0.0
C732 C 0.56071 0.75412 0.71751 0.0
C733 C 0.51171 0.75704 0.7893 0.0
C734 C 0.55971 0.76872 0.698 0.0
C735 C 0.53517 0.7774 0.72333 0.0
H736 H 0.55911 0.5081 0.57616 0.0
H737 H 0.5266 0.55097 0.53577 0.0
H738 H 0.47791 0.54146 0.48706 0.0
H739 H 0.44407 0.5209 0.45426 0.0
H740 H 0.47648 0.47803 0.49488 0.0
H741 H 0.52511 0.48754 0.54425 0.0
C742 C 0.54133 0.51536 0.55713 0.0
C743 C 0.54671 0.53026 0.56001 0.0
C744 C 0.51314 0.5098 0.52849 0.0
C745 C 0.52329 0.53946 0.53452 0.0
C746 C 0.49531 0.53403 0.50636 0.0
C747 C 0.4618 0.51364 0.47361 0.0
C748 C 0.45645 0.49874 0.47032 0.0
C749 C 0.48994 0.5192 0.50264 0.0
C750 C 0.47979 0.48954 0.49632 0.0
C751 C 0.50773 0.49497 0.52485 0.0
H752 H 0.44674 0.25861 0.3397 0.0
H753 H 0.48123 0.30045 0.28311 0.0
H754 H 0.52856 0.28966 0.2314 0.0
H755 H 0.5606 0.26826 0.20244 0.0
H756 H 0.52571 0.22646 0.25861 0.0
H757 H 0.47839 0.23726 0.3093 0.0
C758 C 0.46465 0.26538 0.31642 0.0
C759 C 0.46037 0.28035 0.31585 0.0
C760 C 0.49184 0.25908 0.286 0.0
C761 C 0.48383 0.28891 0.28467 0.0
C762 C 0.51096 0.28274 0.25483 0.0
C763 C 0.54256 0.26151 0.22521 0.0
C764 C 0.54683 0.24653 0.22634 0.0
C765 C 0.51525 0.26782 0.25499 0.0
C766 C 0.52318 0.23799 0.25668 0.0
C767 C 0.49604 0.24417 0.28601 0.0
H768 H 0.47622 0.98693 0.0193 0.0
H769 H 0.43679 0.02426 0.90862 0.0
H770 H 0.47998 0.03878 0.95726 0.0
H771 H 0.52931 0.04093 0.03202 0.0
H772 H 0.56799 1.00343 0.14317 0.0
H773 H 0.52493 0.98908 0.09419 0.0
C774 C 0.47713 0.99823 1.00535 0.0
C775 C 0.45329 1.00444 0.95988 0.0
C776 C 0.50195 1.00656 0.03419 0.0
C777 C 0.45481 0.01915 0.94322 0.0
C778 C 0.47952 0.02749 0.97121 0.0
C779 C 0.52822 0.02964 0.04586 0.0
C780 C 0.55196 0.02333 0.09153 0.0
C781 C 0.50324 0.02133 0.01705 0.0
C782 C 0.55015 1.00864 0.10837 0.0
C783 C 0.52549 1.00037 0.08019 0.0
H784 H 0.07881 0.5521 0.51136 0.0
H785 H 0.16782 0.53931 0.42424 0.0
H786 H 0.1829 0.53419 0.56851 0.0
H787 H 0.17155 0.5344 0.72032 0.0
H788 H 0.08224 0.54681 0.80748 0.0
H789 H 0.06669 0.55121 0.66283 0.0
C790 C 0.10149 0.54822 0.52424 0.0
C791 C 0.12212 0.54609 0.45741 0.0
C792 C 0.11005 0.54533 0.60741 0.0
C793 C 0.15137 0.54087 0.47451 0.0
C794 C 0.16009 0.53802 0.55706 0.0
C795 C 0.14858 0.53788 0.70754 0.0
C796 C 0.1283 0.54044 0.77485 0.0
C797 C 0.13968 0.5403 0.62406 0.0
C798 C 0.09862 0.54507 0.75724 0.0
C799 C 0.0896 0.54751 0.67437 0.0
H800 H 0.12631 0.74689 0.78667 0.0
H801 H 0.11045 0.70148 0.75269 0.0
H802 H 0.11787 0.70304 0.60048 0.0
H803 H 0.129 0.71727 0.47466 0.0
H804 H 0.14341 0.76286 0.50907 0.0
H805 H 0.13685 0.76116 0.66071 0.0
C806 C 0.12468 0.73732 0.74611 0.0
C807 C 0.11759 0.7241 0.78222 0.0
C808 C 0.12881 0.73829 0.65741 0.0
C809 C 0.11537 0.71186 0.72757 0.0
C810 C 0.11976 0.71273 0.63996 0.0
C811 C 0.13052 0.72687 0.51496 0.0
C812 C 0.13713 0.74015 0.47857 0.0
C813 C 0.12634 0.72589 0.60371 0.0
C814 C 0.13907 0.75239 0.53353 0.0
C815 C 0.13509 0.75147 0.62119 0.0
H816 H 0.90158 0.45984 0.5257 0.0
H817 H 0.89831 0.50463 0.60272 0.0
H818 H 0.88786 0.51098 0.45663 0.0
H819 H 0.87964 0.5037 0.30743 0.0
H820 H 0.88271 0.45882 0.23205 0.0
H821 H 0.89407 0.45261 0.37739 0.0
C822 C 0.89912 0.47102 0.51059 0.0
C823 C 0.90093 0.48176 0.57513 0.0
C824 C 0.89311 0.47456 0.42683 0.0
C825 C 0.89685 0.49616 0.5544 0.0
C826 C 0.89096 0.49979 0.47087 0.0
C827 C 0.88249 0.49255 0.32288 0.0
C828 C 0.88023 0.48173 0.25888 0.0
C829 C 0.88888 0.48906 0.4067 0.0
C830 C 0.88462 0.46736 0.27984 0.0
C831 C 0.89097 0.4638 0.363 0.0
H832 H 0.93322 0.29455 0.25424 0.0
H833 H 0.84616 0.27917 0.16598 0.0
H834 H 0.82955 0.27648 0.31173 0.0
H835 H 0.83791 0.28108 0.46422 0.0
H836 H 0.92384 0.29835 0.55011 0.0
H837 H 0.94262 0.29777 0.4057 0.0
C838 C 0.91068 0.29053 0.2669 0.0
C839 C 0.89087 0.28729 0.19936 0.0
C840 C 0.90091 0.28952 0.35064 0.0
C841 C 0.86198 0.28171 0.21664 0.0
C842 C 0.85231 0.28032 0.30011 0.0
C843 C 0.8607 0.28474 0.45129 0.0
C844 C 0.87927 0.28984 0.51811 0.0
C845 C 0.87125 0.28466 0.36756 0.0
C846 C 0.90905 0.29424 0.50038 0.0
C847 C 0.91982 0.294 0.41757 0.0
H848 H 0.13008 0.05915 0.27709 0.0
H849 H 0.15829 0.01501 0.24333 0.0
H850 H 0.15131 0.01625 0.09125 0.0
H851 H 0.13672 0.02973 0.96501 0.0
H852 H 0.10764 0.0737 0.99884 0.0
H853 H 0.11507 0.07256 0.15118 0.0
C854 C 0.13449 0.04976 0.23676 0.0
C855 C 0.14504 0.03706 0.2732 0.0
C856 C 0.13021 0.05047 0.148 0.0
C857 C 0.15075 0.02507 0.21849 0.0
C858 C 0.14659 0.02572 0.13073 0.0
C859 C 0.13221 0.03909 1.00558 0.0
C860 C 0.12138 0.05175 0.9694 0.0
C861 C 0.13644 0.03837 0.09437 0.0
C862 C 0.11549 0.06371 0.02401 0.0
C863 C 0.11988 0.0631 0.1117 0.0
H864 H 0.07485 0.22051 0.22878 0.0
H865 H 0.15492 0.24233 0.32287 0.0
H866 H 0.16981 0.24765 0.17945 0.0
H867 H 0.16109 0.24551 0.02611 0.0
H868 H 0.08148 0.22341 0.93157 0.0
H869 H 0.06594 0.21851 0.07554 0.0
C870 C 0.09561 0.22637 0.21795 0.0
C871 C 0.11353 0.23106 0.28706 0.0
C872 C 0.10438 0.22923 0.13481 0.0
C873 C 0.14026 0.2388 0.27155 0.0
C874 C 0.14901 0.24176 0.18919 0.0
C875 C 0.14025 0.23971 0.03717 0.0
C876 C 0.12271 0.23473 0.96808 0.0
C877 C 0.13132 0.23698 0.1203 0.0
C878 C 0.09583 0.22711 0.98335 0.0
C879 C 0.08675 0.2244 0.06582 0.0
H880 H 0.8682 0.98646 0.02444 0.0
H881 H 0.96081 0.97241 0.98973 0.0
H882 H 0.95564 0.97403 0.83724 0.0
H883 H 0.92511 0.97965 0.71091 0.0
H884 H 0.83314 0.99441 0.74499 0.0
H885 H 0.83784 0.99237 0.89811 0.0
C886 C 0.88735 0.98386 0.98377 0.0
C887 C 0.91478 0.97915 0.02003 0.0
C888 C 0.88435 0.9849 0.89472 0.0
C889 C 0.93916 0.97578 0.96493 0.0
C890 C 0.93631 0.97677 0.87698 0.0
C891 C 0.90602 0.98227 0.75175 0.0
C892 C 0.87878 0.98717 0.71567 0.0
C893 C 0.90899 0.98124 0.84076 0.0
C894 C 0.85446 0.99072 0.77045 0.0
C895 C 0.85712 0.98954 0.85841 0.0
H896 H 0.92092 0.79703 1.00707 0.0
H897 H 0.83112 0.77955 0.97232 0.0
H898 H 0.83788 0.77885 0.81937 0.0
H899 H 0.86764 0.78507 0.69292 0.0
H900 H 0.95749 0.80241 0.72692 0.0
H901 H 0.95259 0.80108 0.88032 0.0
C902 C 0.90304 0.79285 0.96621 0.0
C903 C 0.87531 0.78859 1.00226 0.0
C904 C 0.90702 0.7925 0.87699 0.0
C905 C 0.85245 0.78324 0.94723 0.0
C906 C 0.85633 0.78275 0.85919 0.0
C907 C 0.88639 0.78824 0.73376 0.0
C908 C 0.91284 0.79393 0.69766 0.0
C909 C 0.88327 0.78763 0.82292 0.0
C910 C 0.93673 0.79814 0.75244 0.0
C911 C 0.93393 0.7974 0.84057 0.0
H912 H 0.60837 0.56729 1.00674 0.0
H913 H 0.60817 0.52247 0.9297 0.0
H914 H 0.6187 0.51598 0.07553 0.0
H915 H 0.62818 0.52318 0.22477 0.0
H916 H 0.62802 0.5681 0.29951 0.0
H917 H 0.61663 0.57442 0.15444 0.0
C918 C 0.61002 0.55608 0.02163 0.0
C919 C 0.60725 0.54539 0.95706 0.0
C920 C 0.61602 0.55246 0.10525 0.0
C921 C 0.61035 0.53092 0.97788 0.0
C922 C 0.61631 0.52721 0.06131 0.0
C923 C 0.6259 0.53435 0.20914 0.0
C924 C 0.62901 0.54516 0.27292 0.0
C925 C 0.61938 0.53791 0.12541 0.0
C926 C 0.62543 0.55958 0.25187 0.0
C927 C 0.61906 0.5632 0.16887 0.0
H928 H 0.6697 0.74652 0.06578 0.0
H929 H 0.58896 0.72499 0.97337 0.0
H930 H 0.57222 0.72169 0.11808 0.0
H931 H 0.58095 0.7245 0.27103 0.0
H932 H 0.66158 0.74615 0.36267 0.0
H933 H 0.67715 0.7504 0.21802 0.0
C934 C 0.64826 0.74126 0.077 0.0
C935 C 0.63084 0.73593 1.00837 0.0
C936 C 0.6385 0.73958 0.16037 0.0
C937 C 0.60326 0.72895 0.02459 0.0
C938 C 0.59346 0.72718 0.10749 0.0
C939 C 0.60187 0.73018 0.25927 0.0
C940 C 0.62006 0.73493 0.32765 0.0
C941 C 0.61101 0.73237 0.17581 0.0
C942 C 0.6469 0.7425 0.31149 0.0
C943 C 0.65603 0.74481 0.22863 0.0
H944 H 0.42995 0.47709 0.0139 0.0
H945 H 0.34095 0.48974 0.10188 0.0
H946 H 0.32545 0.49455 0.95757 0.0
H947 H 0.33643 0.4941 0.80555 0.0
H948 H 0.4257 0.4818 0.71747 0.0
H949 H 0.44166 0.4777 0.86211 0.0
C950 C 0.40718 0.48087 1.00122 0.0
C951 C 0.38669 0.48305 0.06833 0.0
C952 C 0.39837 0.48357 0.918 0.0
C953 C 0.35732 0.48815 0.05143 0.0
C954 C 0.34835 0.49081 0.96885 0.0
C955 C 0.35948 0.49071 0.81812 0.0
C956 C 0.37963 0.48809 0.75057 0.0
C957 C 0.36862 0.48847 0.90159 0.0
C958 C 0.40941 0.48357 0.7679 0.0
C959 C 0.41868 0.48131 0.85077 0.0
H960 H 0.41312 0.30155 0.03555 0.0
H961 H 0.32667 0.28074 0.99886 0.0
H962 H 0.33095 0.28308 0.84604 0.0
H963 H 0.3591 0.29122 0.72058 0.0
H964 H 0.4461 0.3116 0.75789 0.0
H965 H 0.44157 0.30935 0.91018 0.0
C966 C 0.3951 0.29764 0.99431 0.0
C967 C 0.3696 0.29094 0.0298 0.0
C968 C 0.39777 0.29894 0.90537 0.0
C969 C 0.34673 0.28579 0.97419 0.0
C970 C 0.34911 0.28717 0.88628 0.0
C971 C 0.37721 0.29506 0.76175 0.0
C972 C 0.40279 0.30174 0.72628 0.0
C973 C 0.37459 0.29367 0.85072 0.0
C974 C 0.42582 0.30668 0.78208 0.0
C975 C 0.42335 0.30534 0.86991 0.0
H976 H 0.6236 0.02795 0.4982 0.0
H977 H 0.59881 0.07253 0.5286 0.0
H978 H 0.6068 0.07166 0.68103 0.0
H979 H 0.62111 0.05826 0.80801 0.0
H980 H 0.64445 1.01344 0.77683 0.0
H981 H 0.63709 0.01449 0.62507 0.0
C982 C 0.62015 0.03749 0.53807 0.0
C983 C 0.61042 0.05026 0.50103 0.0
C984 C 0.62459 0.03692 0.62677 0.0
C985 C 0.60584 0.06247 0.55462 0.0
C986 C 0.61053 0.06201 0.6423 0.0
C987 C 0.62438 0.04869 0.76828 0.0
C988 C 0.6338 0.03585 0.80542 0.0
C989 C 0.61979 0.04928 0.67952 0.0
C990 C 0.63795 0.02362 0.7515 0.0
C991 C 0.63353 0.02415 0.66387 0.0
H992 H 0.64565 0.23675 0.83342 0.0
H993 H 0.55878 0.2163 0.80023 0.0
H994 H 0.5625 0.21841 0.64675 0.0
H995 H 0.59116 0.22563 0.5199 0.0
H996 H 0.67877 0.24549 0.55425 0.0
H997 H 0.67411 0.24405 0.70719 0.0
C998 C 0.62734 0.233 0.79263 0.0
C999 C 0.60187 0.22645 0.82874 0.0
C1000 C 0.62991 0.234 0.70371 0.0
C1001 C 0.57863 0.22137 0.77438 0.0
C1002 C 0.5808 0.22254 0.68636 0.0
C1003 C 0.60931 0.22952 0.56078 0.0
C1004 C 0.63521 0.23575 0.52465 0.0
C1005 C 0.60652 0.22867 0.64988 0.0
C1006 C 0.65835 0.24084 0.57951 0.0
C1007 C 0.65576 0.24 0.66747 0.0
H1008 H 0.43127 0.97507 0.50589 0.0
H1009 H 0.34476 0.99095 0.59638 0.0
H1010 H 0.32931 0.99576 0.45227 0.0
H1011 H 0.33958 0.99468 0.29948 0.0
H1012 H 0.42591 0.97865 0.20902 0.0
H1013 H 0.4419 0.9744 0.35356 0.0
C1014 C 0.409 0.97951 0.49401 0.0
C1015 C 0.38933 0.98266 0.56201 0.0
C1016 C 0.40007 0.98212 0.41075 0.0
C1017 C 0.36064 0.98862 0.54559 0.0
C1018 C 0.35164 0.99128 0.46298 0.0
C1019 C 0.36196 0.99037 0.31163 0.0
C1020 C 0.38132 0.98684 0.24356 0.0
C1021 C 0.3711 0.98801 0.39504 0.0
C1022 C 0.41024 0.98116 0.26006 0.0
C1023 C 0.41953 0.97883 0.34281 0.0
H1024 H 0.36509 0.79097 0.23645 0.0
H1025 H 0.4529 0.8106 0.27355 0.0
H1026 H 0.44821 0.80848 0.42571 0.0
H1027 H 0.41955 0.80093 0.55122 0.0
H1028 H 0.33258 0.78062 0.51506 0.0
H1029 H 0.33672 0.78303 0.36211 0.0
C1030 C 0.38333 0.79469 0.27752 0.0
C1031 C 0.40919 0.80112 0.24188 0.0
C1032 C 0.38067 0.79334 0.36653 0.0
C1033 C 0.43239 0.80589 0.29767 0.0
C1034 C 0.42984 0.80462 0.38551 0.0
C1035 C 0.40138 0.79716 0.51002 0.0
C1036 C 0.37576 0.79059 0.5456 0.0
C1037 C 0.40404 0.79844 0.42108 0.0
C1038 C 0.3527 0.78559 0.49018 0.0
C1039 C 0.35502 0.787 0.40225 0.0
H1040 H 0.15371 0.61573 0.24764 0.0
H1041 H 0.17131 0.61167 0.9797 0.0
H1042 H 0.17333 0.63774 0.97092 0.0
H1043 H 0.166 0.66186 0.03668 0.0
H1044 H 0.14795 0.66604 0.30451 0.0
H1045 H 0.15021 0.64003 0.31565 0.0
C1046 C 0.15859 0.62055 0.1877 0.0
C1047 C 0.16221 0.61165 0.11438 0.0
C1048 C 0.15924 0.63568 0.18268 0.0
C1049 C 0.16815 0.61819 0.03707 0.0
C1050 C 0.16929 0.63314 0.03192 0.0
C1051 C 0.1631 0.65714 0.09783 0.0
C1052 C 0.1565 0.66606 0.1694 0.0
C1053 C 0.16424 0.64204 0.1039 0.0
C1054 C 0.15251 0.65955 0.24783 0.0
C1055 C 0.15393 0.64461 0.25444 0.0
H1056 H 0.87757 0.40929 0.01365 0.0
H1057 H 0.82108 0.41704 0.79677 0.0
H1058 H 0.81549 0.39119 0.77069 0.0
H1059 H 0.83004 0.36606 0.80285 0.0
H1060 H 0.88968 0.35894 0.01335 0.0
H1061 H 0.89102 0.38469 0.04735 0.0
C1062 C 0.86415 0.40543 0.96014 0.0
C1063 C 0.85006 0.41535 0.90697 0.0
C1064 C 0.86175 0.3905 0.94386 0.0
C1065 C 0.83205 0.40986 0.83963 0.0
C1066 C 0.82905 0.39499 0.82405 0.0
C1067 C 0.84297 0.37019 0.8567 0.0
C1068 C 0.85968 0.36058 0.90579 0.0
C1069 C 0.84422 0.38517 0.87484 0.0
C1070 C 0.87663 0.36609 0.97477 0.0
C1071 C 0.87744 0.38083 0.99414 0.0
H1072 H 0.15253 0.11566 0.73382 0.0
H1073 H 0.16261 0.111 0.46313 0.0
H1074 H 0.16309 0.13707 0.45165 0.0
H1075 H 0.15718 0.16141 0.51735 0.0
H1076 H 0.1449 0.16598 0.78737 0.0
H1077 H 0.14897 0.14001 0.80019 0.0
C1078 C 0.15534 0.12035 0.6725 0.0
C1079 C 0.15749 0.11129 0.59946 0.0
C1080 C 0.15499 0.13546 0.66607 0.0
C1081 C 0.16068 0.11765 0.52041 0.0
C1082 C 0.16097 0.1326 0.51375 0.0
C1083 C 0.15589 0.15674 0.5791 0.0
C1084 C 0.15068 0.16572 0.65125 0.0
C1085 C 0.15764 0.14165 0.58593 0.0
C1086 C 0.14867 0.15938 0.73064 0.0
C1087 C 0.15101 0.14449 0.73808 0.0
H1088 H 0.874 0.91218 0.4757 0.0
H1089 H 0.87106 0.91727 0.20562 0.0
H1090 H 0.86942 0.89127 0.18266 0.0
H1091 H 0.86999 0.86681 0.23884 0.0
H1092 H 0.87317 0.86186 0.50905 0.0
H1093 H 0.87359 0.88784 0.53181 0.0
C1094 C 0.87307 0.90762 0.41173 0.0
C1095 C 0.8726 0.91683 0.34265 0.0
C1096 C 0.8722 0.89256 0.39875 0.0
C1097 C 0.871 0.91059 0.26031 0.0
C1098 C 0.8703 0.89565 0.24697 0.0
C1099 C 0.87086 0.87141 0.30271 0.0
C1100 C 0.87143 0.86224 0.37201 0.0
C1101 C 0.87106 0.8865 0.31564 0.0
C1102 C 0.87224 0.86852 0.45432 0.0
C1103 C 0.87268 0.88344 0.46752 0.0
H1104 H 0.63418 0.66005 0.76592 0.0
H1105 H 0.68573 0.66828 0.54089 0.0
H1106 H 0.69096 0.64252 0.51127 0.0
H1107 H 0.67819 0.61737 0.54429 0.0
H1108 H 0.6266 0.60927 0.76871 0.0
H1109 H 0.62393 0.63505 0.80313 0.0
C1110 C 0.64658 0.65624 0.71037 0.0
C1111 C 0.65943 0.66624 0.65574 0.0
C1112 C 0.64944 0.64132 0.69335 0.0
C1113 C 0.67582 0.66095 0.58479 0.0
C1114 C 0.67867 0.64616 0.56735 0.0
C1115 C 0.66683 0.6213 0.60134 0.0
C1116 C 0.65283 0.61145 0.65442 0.0
C1117 C 0.66529 0.63622 0.62055 0.0
C1118 C 0.63781 0.61665 0.72755 0.0
C1119 C 0.63616 0.6314 0.74696 0.0
H1120 H 0.31287 0.41205 0.40662 0.0
H1121 H 0.40741 0.41783 0.34764 0.0
H1122 H 0.41468 0.3919 0.33667 0.0
H1123 H 0.39531 0.36766 0.35086 0.0
H1124 H 0.30074 0.36103 0.40768 0.0
H1125 H 0.2926 0.38704 0.41468 0.0
C1126 C 0.33487 0.40757 0.39006 0.0
C1127 C 0.35956 0.41688 0.37735 0.0
C1128 C 0.33906 0.39247 0.38495 0.0
C1129 C 0.38806 0.41092 0.35727 0.0
C1130 C 0.39227 0.39607 0.35139 0.0
C1131 C 0.37268 0.37177 0.36316 0.0
C1132 C 0.34867 0.36216 0.378 0.0
C1133 C 0.36807 0.38674 0.36605 0.0
C1134 C 0.31983 0.36801 0.39666 0.0
C1135 C 0.31508 0.38294 0.40005 0.0
H1136 H 0.64566 0.15867 0.29493 0.0
H1137 H 0.65959 0.16515 0.02901 0.0
H1138 H 0.66038 0.13921 1.00126 0.0
H1139 H 0.65517 0.11446 0.05163 0.0
H1140 H 0.64232 0.10811 0.31814 0.0
H1141 H 0.64305 0.134 0.34615 0.0
C1142 C 0.64896 0.15442 0.23091 0.0
C1143 C 0.65255 0.16396 0.16426 0.0
C1144 C 0.64949 0.13941 0.21529 0.0
C1145 C 0.65713 0.15815 0.08184 0.0
C1146 C 0.65736 0.14327 0.06575 0.0
C1147 C 0.6526 0.11875 0.11584 0.0
C1148 C 0.64874 0.10925 0.1826 0.0
C1149 C 0.65327 0.13376 0.13181 0.0
C1150 C 0.6457 0.11507 0.26553 0.0
C1151 C 0.64594 0.12993 0.28163 0.0
H1152 H 0.36011 0.86637 0.99888 0.0
H1153 H 0.36471 0.86168 0.72701 0.0
H1154 H 0.36119 0.88769 0.71493 0.0
H1155 H 0.36021 0.91211 0.78191 0.0
H1156 H 0.35797 0.91676 0.05396 0.0
H1157 H 0.35683 0.8907 0.06551 0.0
C1158 C 0.35985 0.87102 0.93696 0.0
C1159 C 0.36275 0.86198 0.86401 0.0
C1160 C 0.35839 0.88611 0.93042 0.0
C1161 C 0.36279 0.86831 0.78435 0.0
C1162 C 0.36073 0.88323 0.77733 0.0
C1163 C 0.35895 0.90741 0.84359 0.0
C1164 C 0.35915 0.91645 0.91696 0.0
C1165 C 0.35901 0.89229 0.84992 0.0
C1166 C 0.35797 0.9101 0.99644 0.0
C1167 C 0.35735 0.89516 1.00313 0.0
loop_
_geom_bond_atom_site_label_1
_geom_bond_atom_site_label_2
_geom_bond_distance
_geom_bond_site_symmetry_2
_ccdc_geom_bond_type
Co0 N4 2.148 1_554 S
Co0 N10 2.128 . S
Co0 N20 2.194 . S
Co0 O25 2.351 . S
Co0 O26 2.155 . S
Co0 O27 2.096 . S
C1 N4 1.301 . S
C1 N5 1.328 . S
C1 H6 0.930 . S
C2 C3 1.333 . S
C2 N4 1.317 . S
C2 H7 0.930 . S
C3 C2 1.333 . S
C3 N5 1.350 . S
C3 H29 0.931 . S
N4 Co0 2.148 1_556 S
N4 C1 1.301 . S
N4 C2 1.317 . S
N5 C1 1.328 . S
N5 C3 1.350 . S
H6 C1 0.930 . S
H7 C2 0.930 . S
C8 O9 1.224 . S
C8 O27 1.247 . S
O9 C8 1.224 . S
N10 Co0 2.128 . S
N10 C11 1.355 . S
N10 C13 1.311 . S
C11 N10 1.355 . S
C11 C12 1.363 . S
C11 H23 0.929 . S
C12 C11 1.363 . S
C12 N14 1.375 . S
C12 H30 0.931 . S
C13 N10 1.311 . S
C13 N14 1.347 . S
C13 H24 0.929 . S
N14 C12 1.375 . S
N14 C13 1.347 . S
C15 C18 1.365 . S
C15 N20 1.328 . S
C15 H21 0.929 . S
C16 C17 1.362 . S
C16 C19 1.378 . S
C16 H31 0.929 . S
C17 C16 1.362 . S
C17 C18 1.366 . S
C18 C15 1.365 . S
C18 C17 1.366 . S
C18 H32 0.930 . S
C19 C16 1.378 . S
C19 N20 1.315 . S
C19 H22 0.930 . S
N20 Co0 2.194 . S
N20 C15 1.328 . S
N20 C19 1.315 . S
H21 C15 0.929 . S
H22 C19 0.930 . S
H23 C11 0.929 . S
H24 C13 0.929 . S
O25 Co0 2.351 . S
O25 C28 1.244 . S
O26 Co0 2.155 . S
O26 C28 1.240 . S
O27 Co0 2.096 . S
O27 C8 1.247 . S
C28 O25 1.244 . S
C28 O26 1.240 . S
H29 C3 0.931 . S
H30 C12 0.931 . S
H31 C16 0.929 . S
H32 C18 0.930 . S
Co33 N37 2.148 . S
Co33 N43 2.128 . S
Co33 N53 2.194 . S
Co33 O58 2.351 . S
Co33 O59 2.155 . S
Co33 O60 2.096 . S
C34 N37 1.301 . S
C34 N38 1.328 . S
C34 H39 0.930 . S
C35 C36 1.333 . S
C35 N37 1.317 . S
C35 H40 0.930 . S
C36 C35 1.333 . S
C36 N38 1.350 . S
C36 H62 0.931 . S
N37 Co33 2.148 . S
N37 C34 1.301 . S
N37 C35 1.317 . S
N38 C34 1.328 . S
N38 C36 1.350 . S
H39 C34 0.930 . S
H40 C35 0.930 . S
C41 O42 1.224 . S
C41 O60 1.247 . S
O42 C41 1.224 . S
N43 Co33 2.128 . S
N43 C44 1.355 1_554 S
N43 C46 1.311 1_554 S
C44 N43 1.355 1_556 S
C44 C45 1.363 . S
C44 H56 0.929 1_556 S
C45 C44 1.363 . S
C45 N47 1.375 . S
C45 H63 0.931 . S
C46 N43 1.311 1_556 S
C46 N47 1.347 . S
C46 H57 0.929 . S
N47 C45 1.375 . S
N47 C46 1.347 . S
C48 C51 1.365 . S
C48 N53 1.328 . S
C48 H54 0.929 . S
C49 C50 1.362 . S
C49 C52 1.378 . S
C49 H64 0.929 . S
C50 C49 1.362 . S
C50 C51 1.366 . S
C51 C48 1.365 . S
C51 C50 1.366 . S
C51 H65 0.930 . S
C52 C49 1.378 . S
C52 N53 1.315 . S
C52 H55 0.930 . S
N53 Co33 2.194 . S
N53 C48 1.328 . S
N53 C52 1.315 . S
H54 C48 0.929 . S
H55 C52 0.930 . S
H56 C44 0.929 1_554 S
H57 C46 0.929 . S
O58 Co33 2.351 . S
O58 C61 1.244 . S
O59 Co33 2.155 . S
O59 C61 1.240 . S
O60 Co33 2.096 . S
O60 C41 1.247 . S
C61 O58 1.244 . S
C61 O59 1.240 . S
H62 C36 0.931 . S
H63 C45 0.931 . S
H64 C49 0.929 . S
H65 C51 0.930 . S
Co66 N70 2.148 1_556 S
Co66 N76 2.128 . S
Co66 N86 2.194 . S
Co66 O91 2.351 . S
Co66 O92 2.155 . S
Co66 O93 2.096 . S
C67 N70 1.301 . S
C67 N71 1.328 . S
C67 H72 0.930 . S
C68 C69 1.333 . S
C68 N70 1.317 . S
C68 H73 0.930 . S
C69 C68 1.333 . S
C69 N71 1.350 . S
C69 H95 0.931 . S
N70 Co66 2.148 1_554 S
N70 C67 1.301 . S
N70 C68 1.317 . S
N71 C67 1.328 . S
N71 C69 1.350 . S
H72 C67 0.930 . S
H73 C68 0.930 . S
C74 O75 1.224 . S
C74 O93 1.247 . S
O75 C74 1.224 . S
N76 Co66 2.128 . S
N76 C77 1.355 . S
N76 C79 1.311 . S
C77 N76 1.355 . S
C77 C78 1.363 . S
C77 H89 0.929 . S
C78 C77 1.363 . S
C78 N80 1.375 . S
C78 H96 0.931 . S
C79 N76 1.311 . S
C79 N80 1.347 . S
C79 H90 0.929 . S
N80 C78 1.375 . S
N80 C79 1.347 . S
C81 C84 1.365 . S
C81 N86 1.328 . S
C81 H87 0.929 . S
C82 C83 1.362 . S
C82 C85 1.378 . S
C82 H97 0.929 . S
C83 C82 1.362 . S
C83 C84 1.366 . S
C84 C81 1.365 . S
C84 C83 1.366 . S
C84 H98 0.930 . S
C85 C82 1.378 . S
C85 N86 1.315 . S
C85 H88 0.930 . S
N86 Co66 2.194 . S
N86 C81 1.328 . S
N86 C85 1.315 . S
H87 C81 0.929 . S
H88 C85 0.930 . S
H89 C77 0.929 . S
H90 C79 0.929 . S
O91 Co66 2.351 . S
O91 C94 1.244 . S
O92 Co66 2.155 . S
O92 C94 1.240 . S
O93 Co66 2.096 . S
O93 C74 1.247 . S
C94 O91 1.244 . S
C94 O92 1.240 . S
H95 C69 0.931 . S
H96 C78 0.931 . S
H97 C82 0.929 . S
H98 C84 0.930 . S
Co99 N103 2.148 . S
Co99 N109 2.128 . S
Co99 N119 2.194 . S
Co99 O124 2.351 . S
Co99 O125 2.155 . S
Co99 O126 2.096 . S
C100 N103 1.301 . S
C100 N104 1.328 . S
C100 H105 0.930 . S
C101 C102 1.333 . S
C101 N103 1.317 . S
C101 H106 0.930 . S
C102 C101 1.333 . S
C102 N104 1.350 . S
C102 H128 0.931 . S
N103 Co99 2.148 . S
N103 C100 1.301 . S
N103 C101 1.317 . S
N104 C100 1.328 . S
N104 C102 1.350 . S
H105 C100 0.930 . S
H106 C101 0.930 . S
C107 O108 1.224 . S
C107 O126 1.247 . S
O108 C107 1.224 . S
N109 Co99 2.128 . S
N109 C110 1.355 1_556 S
N109 C112 1.311 1_556 S
C110 N109 1.355 1_554 S
C110 C111 1.363 . S
C110 H122 0.929 1_554 S
C111 C110 1.363 . S
C111 N113 1.375 . S
C111 H129 0.931 . S
C112 N109 1.311 1_554 S
C112 N113 1.347 . S
C112 H123 0.929 . S
N113 C111 1.375 . S
N113 C112 1.347 . S
C114 C117 1.365 . S
C114 N119 1.328 . S
C114 H120 0.929 . S
C115 C116 1.362 . S
C115 C118 1.378 . S
C115 H130 0.929 . S
C116 C115 1.362 . S
C116 C117 1.366 . S
C117 C114 1.365 . S
C117 C116 1.366 . S
C117 H131 0.930 . S
C118 C115 1.378 . S
C118 N119 1.315 . S
C118 H121 0.930 . S
N119 Co99 2.194 . S
N119 C114 1.328 . S
N119 C118 1.315 . S
H120 C114 0.929 . S
H121 C118 0.930 . S
H122 C110 0.929 1_556 S
H123 C112 0.929 . S
O124 Co99 2.351 . S
O124 C127 1.244 . S
O125 Co99 2.155 . S
O125 C127 1.240 . S
O126 Co99 2.096 . S
O126 C107 1.247 . S
C127 O124 1.244 . S
C127 O125 1.240 . S
H128 C102 0.931 . S
H129 C111 0.931 . S
H130 C115 0.929 . S
H131 C117 0.930 . S
Co132 N136 2.148 . S
Co132 N142 2.128 . S
Co132 N152 2.194 . S
Co132 O157 2.351 . S
Co132 O158 2.155 . S
Co132 O159 2.096 . S
C133 N136 1.301 . S
C133 N137 1.328 . S
C133 H138 0.930 . S
C134 C135 1.333 . S
C134 N136 1.317 . S
C134 H139 0.930 . S
C135 C134 1.333 . S
C135 N137 1.350 . S
C135 H161 0.931 . S
N136 Co132 2.148 . S
N136 C133 1.301 . S
N136 C134 1.317 . S
N137 C133 1.328 . S
N137 C135 1.350 . S
H138 C133 0.930 . S
H139 C134 0.930 . S
C140 O141 1.224 . S
C140 O159 1.247 . S
O141 C140 1.224 . S
N142 Co132 2.128 . S
N142 C143 1.355 . S
N142 C145 1.311 . S
C143 N142 1.355 . S
C143 C144 1.363 . S
C143 H155 0.929 . S
C144 C143 1.363 . S
C144 N146 1.375 . S
C144 H162 0.931 . S
C145 N142 1.311 . S
C145 N146 1.347 . S
C145 H156 0.929 . S
N146 C144 1.375 . S
N146 C145 1.347 . S
C147 C150 1.365 . S
C147 N152 1.328 . S
C147 H153 0.929 . S
C148 C149 1.362 . S
C148 C151 1.378 . S
C148 H163 0.929 . S
C149 C148 1.362 . S
C149 C150 1.366 . S
C150 C147 1.365 . S
C150 C149 1.366 . S
C150 H164 0.930 . S
C151 C148 1.378 . S
C151 N152 1.315 . S
C151 H154 0.930 . S
N152 Co132 2.194 . S
N152 C147 1.328 . S
N152 C151 1.315 . S
H153 C147 0.929 . S
H154 C151 0.930 . S
H155 C143 0.929 . S
H156 C145 0.929 . S
O157 Co132 2.351 . S
O157 C160 1.244 . S
O158 Co132 2.155 . S
O158 C160 1.240 . S
O159 Co132 2.096 . S
O159 C140 1.247 . S
C160 O157 1.244 . S
C160 O158 1.240 . S
H161 C135 0.931 . S
H162 C144 0.931 . S
H163 C148 0.929 . S
H164 C150 0.930 . S
Co165 N169 2.148 . S
Co165 N175 2.128 . S
Co165 N185 2.194 . S
Co165 O190 2.351 . S
Co165 O191 2.155 . S
Co165 O192 2.096 . S
C166 N169 1.301 . S
C166 N170 1.328 . S
C166 H171 0.930 . S
C167 C168 1.333 . S
C167 N169 1.317 . S
C167 H172 0.930 . S
C168 C167 1.333 . S
C168 N170 1.350 . S
C168 H194 0.931 . S
N169 Co165 2.148 . S
N169 C166 1.301 . S
N169 C167 1.317 . S
N170 C166 1.328 . S
N170 C168 1.350 . S
H171 C166 0.930 . S
H172 C167 0.930 . S
C173 O174 1.224 . S
C173 O192 1.247 . S
O174 C173 1.224 . S
N175 Co165 2.128 . S
N175 C176 1.355 . S
N175 C178 1.311 . S
C176 N175 1.355 . S
C176 C177 1.363 . S
C176 H188 0.929 . S
C177 C176 1.363 . S
C177 N179 1.375 . S
C177 H195 0.931 . S
C178 N175 1.311 . S
C178 N179 1.347 . S
C178 H189 0.929 . S
N179 C177 1.375 . S
N179 C178 1.347 . S
C180 C183 1.365 . S
C180 N185 1.328 . S
C180 H186 0.929 . S
C181 C182 1.362 . S
C181 C184 1.378 . S
C181 H196 0.929 . S
C182 C181 1.362 . S
C182 C183 1.366 . S
C183 C180 1.365 . S
C183 C182 1.366 . S
C183 H197 0.930 . S
C184 C181 1.378 . S
C184 N185 1.315 . S
C184 H187 0.930 . S
N185 Co165 2.194 . S
N185 C180 1.328 . S
N185 C184 1.315 . S
H186 C180 0.929 . S
H187 C184 0.930 . S
H188 C176 0.929 . S
H189 C178 0.929 . S
O190 Co165 2.351 . S
O190 C193 1.244 . S
O191 Co165 2.155 . S
O191 C193 1.240 . S
O192 Co165 2.096 . S
O192 C173 1.247 . S
C193 O190 1.244 . S
C193 O191 1.240 . S
H194 C168 0.931 . S
H195 C177 0.931 . S
H196 C181 0.929 . S
H197 C183 0.930 . S
Co198 N202 2.148 . S
Co198 N208 2.128 . S
Co198 N218 2.194 . S
Co198 O223 2.351 . S
Co198 O224 2.155 . S
Co198 O225 2.096 . S
C199 N202 1.301 . S
C199 N203 1.328 . S
C199 H204 0.930 . S
C200 C201 1.333 . S
C200 N202 1.317 . S
C200 H205 0.930 . S
C201 C200 1.333 . S
C201 N203 1.350 . S
C201 H227 0.931 . S
N202 Co198 2.148 . S
N202 C199 1.301 . S
N202 C200 1.317 . S
N203 C199 1.328 . S
N203 C201 1.350 . S
H204 C199 0.930 . S
H205 C200 0.930 . S
C206 O207 1.224 . S
C206 O225 1.247 . S
O207 C206 1.224 . S
N208 Co198 2.128 . S
N208 C209 1.355 . S
N208 C211 1.311 . S
C209 N208 1.355 . S
C209 C210 1.363 . S
C209 H221 0.929 . S
C210 C209 1.363 . S
C210 N212 1.375 . S
C210 H228 0.931 . S
C211 N208 1.311 . S
C211 N212 1.347 . S
C211 H222 0.929 . S
N212 C210 1.375 . S
N212 C211 1.347 . S
C213 C216 1.365 . S
C213 N218 1.328 . S
C213 H219 0.929 . S
C214 C215 1.362 . S
C214 C217 1.378 . S
C214 H229 0.929 . S
C215 C214 1.362 . S
C215 C216 1.366 . S
C216 C213 1.365 . S
C216 C215 1.366 . S
C216 H230 0.930 . S
C217 C214 1.378 . S
C217 N218 1.315 . S
C217 H220 0.930 . S
N218 Co198 2.194 . S
N218 C213 1.328 . S
N218 C217 1.315 . S
H219 C213 0.929 . S
H220 C217 0.930 . S
H221 C209 0.929 . S
H222 C211 0.929 . S
O223 Co198 2.351 . S
O223 C226 1.244 . S
O224 Co198 2.155 . S
O224 C226 1.240 . S
O225 Co198 2.096 . S
O225 C206 1.247 . S
C226 O223 1.244 . S
C226 O224 1.240 . S
H227 C201 0.931 . S
H228 C210 0.931 . S
H229 C214 0.929 . S
H230 C216 0.930 . S
Co231 N235 2.148 . S
Co231 N241 2.128 . S
Co231 N251 2.194 . S
Co231 O256 2.351 . S
Co231 O257 2.155 . S
Co231 O258 2.096 . S
C232 N235 1.301 . S
C232 N236 1.328 . S
C232 H237 0.930 . S
C233 C234 1.333 . S
C233 N235 1.317 . S
C233 H238 0.930 . S
C234 C233 1.333 . S
C234 N236 1.350 . S
C234 H260 0.931 . S
N235 Co231 2.148 . S
N235 C232 1.301 . S
N235 C233 1.317 . S
N236 C232 1.328 . S
N236 C234 1.350 . S
H237 C232 0.930 . S
H238 C233 0.930 . S
C239 O240 1.224 . S
C239 O258 1.247 . S
O240 C239 1.224 . S
N241 Co231 2.128 . S
N241 C242 1.355 . S
N241 C244 1.311 . S
C242 N241 1.355 . S
C242 C243 1.363 . S
C242 H254 0.929 . S
C243 C242 1.363 . S
C243 N245 1.375 . S
C243 H261 0.931 . S
C244 N241 1.311 . S
C244 N245 1.347 . S
C244 H255 0.929 . S
N245 C243 1.375 . S
N245 C244 1.347 . S
C246 C249 1.365 . S
C246 N251 1.328 . S
C246 H252 0.929 . S
C247 C248 1.362 . S
C247 C250 1.378 . S
C247 H262 0.929 . S
C248 C247 1.362 . S
C248 C249 1.366 . S
C249 C246 1.365 . S
C249 C248 1.366 . S
C249 H263 0.930 . S
C250 C247 1.378 . S
C250 N251 1.315 . S
C250 H253 0.930 . S
N251 Co231 2.194 . S
N251 C246 1.328 . S
N251 C250 1.315 . S
H252 C246 0.929 . S
H253 C250 0.930 . S
H254 C242 0.929 . S
H255 C244 0.929 . S
O256 Co231 2.351 . S
O256 C259 1.244 . S
O257 Co231 2.155 . S
O257 C259 1.240 . S
O258 Co231 2.096 . S
O258 C239 1.247 . S
C259 O256 1.244 . S
C259 O257 1.240 . S
H260 C234 0.931 . S
H261 C243 0.931 . S
H262 C247 0.929 . S
H263 C249 0.930 . S
Co264 N268 2.148 . S
Co264 N274 2.128 . S
Co264 N284 2.194 . S
Co264 O289 2.351 . S
Co264 O290 2.155 . S
Co264 O291 2.096 . S
C265 N268 1.301 . S
C265 N269 1.328 . S
C265 H270 0.930 . S
C266 C267 1.333 . S
C266 N268 1.317 . S
C266 H271 0.930 . S
C267 C266 1.333 . S
C267 N269 1.350 . S
C267 H293 0.931 . S
N268 Co264 2.148 . S
N268 C265 1.301 . S
N268 C266 1.317 . S
N269 C265 1.328 . S
N269 C267 1.350 . S
H270 C265 0.930 . S
H271 C266 0.930 . S
C272 O273 1.224 . S
C272 O291 1.247 . S
O273 C272 1.224 . S
N274 Co264 2.128 . S
N274 C275 1.355 . S
N274 C277 1.311 . S
C275 N274 1.355 . S
C275 C276 1.363 . S
C275 H287 0.929 . S
C276 C275 1.363 . S
C276 N278 1.375 . S
C276 H294 0.931 . S
C277 N274 1.311 . S
C277 N278 1.347 . S
C277 H288 0.929 . S
N278 C276 1.375 . S
N278 C277 1.347 . S
C279 C282 1.365 . S
C279 N284 1.328 . S
C279 H285 0.929 . S
C280 C281 1.362 . S
C280 C283 1.378 . S
C280 H295 0.929 . S
C281 C280 1.362 . S
C281 C282 1.366 . S
C282 C279 1.365 . S
C282 C281 1.366 . S
C282 H296 0.930 . S
C283 C280 1.378 . S
C283 N284 1.315 . S
C283 H286 0.930 . S
N284 Co264 2.194 . S
N284 C279 1.328 . S
N284 C283 1.315 . S
H285 C279 0.929 . S
H286 C283 0.930 . S
H287 C275 0.929 . S
H288 C277 0.929 . S
O289 Co264 2.351 . S
O289 C292 1.244 . S
O290 Co264 2.155 . S
O290 C292 1.240 . S
O291 Co264 2.096 . S
O291 C272 1.247 . S
C292 O289 1.244 . S
C292 O290 1.240 . S
H293 C267 0.931 . S
H294 C276 0.931 . S
H295 C280 0.929 . S
H296 C282 0.930 . S
Co297 N301 2.148 . S
Co297 N307 2.128 . S
Co297 N317 2.194 . S
Co297 O322 2.351 . S
Co297 O323 2.155 . S
Co297 O324 2.096 . S
C298 N301 1.301 . S
C298 N302 1.328 . S
C298 H303 0.930 . S
C299 C300 1.333 . S
C299 N301 1.317 . S
C299 H304 0.930 . S
C300 C299 1.333 . S
C300 N302 1.350 . S
C300 H326 0.931 . S
N301 Co297 2.148 . S
N301 C298 1.301 . S
N301 C299 1.317 . S
N302 C298 1.328 . S
N302 C300 1.350 . S
H303 C298 0.930 . S
H304 C299 0.930 . S
C305 O306 1.224 . S
C305 O324 1.247 . S
O306 C305 1.224 . S
N307 Co297 2.128 . S
N307 C308 1.355 . S
N307 C310 1.311 . S
C308 N307 1.355 . S
C308 C309 1.363 . S
C308 H320 0.929 . S
C309 C308 1.363 . S
C309 N311 1.375 . S
C309 H327 0.931 . S
C310 N307 1.311 . S
C310 N311 1.347 . S
C310 H321 0.929 . S
N311 C309 1.375 . S
N311 C310 1.347 . S
C312 C315 1.365 . S
C312 N317 1.328 . S
C312 H318 0.929 . S
C313 C314 1.362 . S
C313 C316 1.378 . S
C313 H328 0.929 . S
C314 C313 1.362 . S
C314 C315 1.366 . S
C315 C312 1.365 . S
C315 C314 1.366 . S
C315 H329 0.930 . S
C316 C313 1.378 . S
C316 N317 1.315 . S
C316 H319 0.930 . S
N317 Co297 2.194 . S
N317 C312 1.328 . S
N317 C316 1.315 . S
H318 C312 0.929 . S
H319 C316 0.930 . S
H320 C308 0.929 . S
H321 C310 0.929 . S
O322 Co297 2.351 . S
O322 C325 1.244 . S
O323 Co297 2.155 . S
O323 C325 1.240 . S
O324 Co297 2.096 . S
O324 C305 1.247 . S
C325 O322 1.244 . S
C325 O323 1.240 . S
H326 C300 0.931 . S
H327 C309 0.931 . S
H328 C313 0.929 . S
H329 C315 0.930 . S
Co330 N334 2.148 . S
Co330 N340 2.128 . S
Co330 N350 2.194 . S
Co330 O355 2.351 . S
Co330 O356 2.155 . S
Co330 O357 2.096 . S
C331 N334 1.301 . S
C331 N335 1.328 . S
C331 H336 0.930 . S
C332 C333 1.333 . S
C332 N334 1.317 . S
C332 H337 0.930 . S
C333 C332 1.333 . S
C333 N335 1.350 . S
C333 H359 0.931 . S
N334 Co330 2.148 . S
N334 C331 1.301 . S
N334 C332 1.317 . S
N335 C331 1.328 . S
N335 C333 1.350 . S
H336 C331 0.930 . S
H337 C332 0.930 . S
C338 O339 1.224 . S
C338 O357 1.247 . S
O339 C338 1.224 . S
N340 Co330 2.128 . S
N340 C341 1.355 . S
N340 C343 1.311 . S
C341 N340 1.355 . S
C341 C342 1.363 . S
C341 H353 0.929 . S
C342 C341 1.363 . S
C342 N344 1.375 . S
C342 H360 0.931 . S
C343 N340 1.311 . S
C343 N344 1.347 . S
C343 H354 0.929 . S
N344 C342 1.375 . S
N344 C343 1.347 . S
C345 C348 1.365 . S
C345 N350 1.328 . S
C345 H351 0.929 . S
C346 C347 1.362 . S
C346 C349 1.378 . S
C346 H361 0.929 . S
C347 C346 1.362 . S
C347 C348 1.366 . S
C348 C345 1.365 . S
C348 C347 1.366 . S
C348 H362 0.930 . S
C349 C346 1.378 . S
C349 N350 1.315 . S
C349 H352 0.930 . S
N350 Co330 2.194 . S
N350 C345 1.328 . S
N350 C349 1.315 . S
H351 C345 0.929 . S
H352 C349 0.930 . S
H353 C341 0.929 . S
H354 C343 0.929 . S
O355 Co330 2.351 . S
O355 C358 1.244 . S
O356 Co330 2.155 . S
O356 C358 1.240 . S
O357 Co330 2.096 . S
O357 C338 1.247 . S
C358 O355 1.244 . S
C358 O356 1.240 . S
H359 C333 0.931 . S
H360 C342 0.931 . S
H361 C346 0.929 . S
H362 C348 0.930 . S
Co363 N367 2.148 . S
Co363 N373 2.128 . S
Co363 N383 2.194 . S
Co363 O388 2.351 . S
Co363 O389 2.155 . S
Co363 O390 2.096 . S
C364 N367 1.301 . S
C364 N368 1.328 . S
C364 H369 0.930 . S
C365 C366 1.333 . S
C365 N367 1.317 . S
C365 H370 0.930 . S
C366 C365 1.333 . S
C366 N368 1.350 . S
C366 H392 0.931 . S
N367 Co363 2.148 . S
N367 C364 1.301 . S
N367 C365 1.317 . S
N368 C364 1.328 . S
N368 C366 1.350 . S
H369 C364 0.930 . S
H370 C365 0.930 . S
C371 O372 1.224 . S
C371 O390 1.247 . S
O372 C371 1.224 . S
N373 Co363 2.128 . S
N373 C374 1.355 . S
N373 C376 1.311 . S
C374 N373 1.355 . S
C374 C375 1.363 . S
C374 H386 0.929 . S
C375 C374 1.363 . S
C375 N377 1.375 . S
C375 H393 0.931 . S
C376 N373 1.311 . S
C376 N377 1.347 . S
C376 H387 0.929 . S
N377 C375 1.375 . S
N377 C376 1.347 . S
C378 C381 1.365 . S
C378 N383 1.328 . S
C378 H384 0.929 . S
C379 C380 1.362 . S
C379 C382 1.378 . S
C379 H394 0.929 . S
C380 C379 1.362 . S
C380 C381 1.366 . S
C381 C378 1.365 . S
C381 C380 1.366 . S
C381 H395 0.930 . S
C382 C379 1.378 . S
C382 N383 1.315 . S
C382 H385 0.930 . S
N383 Co363 2.194 . S
N383 C378 1.328 . S
N383 C382 1.315 . S
H384 C378 0.929 . S
H385 C382 0.930 . S
H386 C374 0.929 . S
H387 C376 0.929 . S
O388 Co363 2.351 . S
O388 C391 1.244 . S
O389 Co363 2.155 . S
O389 C391 1.240 . S
O390 Co363 2.096 . S
O390 C371 1.247 . S
C391 O388 1.244 . S
C391 O389 1.240 . S
H392 C366 0.931 . S
H393 C375 0.931 . S
H394 C379 0.929 . S
H395 C381 0.930 . S
Co396 N400 2.148 1_554 S
Co396 N406 2.128 . S
Co396 N416 2.194 . S
Co396 O421 2.351 . S
Co396 O422 2.155 . S
Co396 O423 2.096 . S
C397 N400 1.301 . S
C397 N401 1.328 . S
C397 H402 0.930 . S
C398 C399 1.333 . S
C398 N400 1.317 . S
C398 H403 0.930 . S
C399 C398 1.333 . S
C399 N401 1.350 . S
C399 H425 0.931 . S
N400 Co396 2.148 1_556 S
N400 C397 1.301 . S
N400 C398 1.317 . S
N401 C397 1.328 . S
N401 C399 1.350 . S
H402 C397 0.930 . S
H403 C398 0.930 . S
C404 O405 1.224 . S
C404 O423 1.247 . S
O405 C404 1.224 . S
N406 Co396 2.128 . S
N406 C407 1.355 . S
N406 C409 1.311 . S
C407 N406 1.355 . S
C407 C408 1.363 . S
C407 H419 0.929 . S
C408 C407 1.363 . S
C408 N410 1.375 . S
C408 H426 0.931 . S
C409 N406 1.311 . S
C409 N410 1.347 . S
C409 H420 0.929 . S
N410 C408 1.375 . S
N410 C409 1.347 . S
C411 C414 1.365 . S
C411 N416 1.328 . S
C411 H417 0.929 . S
C412 C413 1.362 . S
C412 C415 1.378 . S
C412 H427 0.929 . S
C413 C412 1.362 . S
C413 C414 1.366 . S
C414 C411 1.365 . S
C414 C413 1.366 . S
C414 H428 0.930 . S
C415 C412 1.378 . S
C415 N416 1.315 . S
C415 H418 0.930 . S
N416 Co396 2.194 . S
N416 C411 1.328 . S
N416 C415 1.315 . S
H417 C411 0.929 . S
H418 C415 0.930 . S
H419 C407 0.929 . S
H420 C409 0.929 . S
O421 Co396 2.351 . S
O421 C424 1.244 . S
O422 Co396 2.155 . S
O422 C424 1.240 . S
O423 Co396 2.096 . S
O423 C404 1.247 . S
C424 O421 1.244 . S
C424 O422 1.240 . S
H425 C399 0.931 . S
H426 C408 0.931 . S
H427 C412 0.929 . S
H428 C414 0.930 . S
Co429 N433 2.148 . S
Co429 N439 2.128 . S
Co429 N449 2.194 . S
Co429 O454 2.351 . S
Co429 O455 2.155 . S
Co429 O456 2.096 . S
C430 N433 1.301 . S
C430 N434 1.328 . S
C430 H435 0.930 . S
C431 C432 1.333 . S
C431 N433 1.317 . S
C431 H436 0.930 . S
C432 C431 1.333 . S
C432 N434 1.350 . S
C432 H458 0.931 . S
N433 Co429 2.148 . S
N433 C430 1.301 . S
N433 C431 1.317 . S
N434 C430 1.328 . S
N434 C432 1.350 . S
H435 C430 0.930 . S
H436 C431 0.930 . S
C437 O438 1.224 . S
C437 O456 1.247 . S
O438 C437 1.224 . S
N439 Co429 2.128 . S
N439 C440 1.355 1_554 S
N439 C442 1.311 1_554 S
C440 N439 1.355 1_556 S
C440 C441 1.363 . S
C440 H452 0.929 1_556 S
C441 C440 1.363 . S
C441 N443 1.375 . S
C441 H459 0.931 . S
C442 N439 1.311 1_556 S
C442 N443 1.347 . S
C442 H453 0.929 . S
N443 C441 1.375 . S
N443 C442 1.347 . S
C444 C447 1.365 . S
C444 N449 1.328 . S
C444 H450 0.929 . S
C445 C446 1.362 . S
C445 C448 1.378 . S
C445 H460 0.929 . S
C446 C445 1.362 . S
C446 C447 1.366 . S
C447 C444 1.365 . S
C447 C446 1.366 . S
C447 H461 0.930 . S
C448 C445 1.378 . S
C448 N449 1.315 . S
C448 H451 0.930 . S
N449 Co429 2.194 . S
N449 C444 1.328 . S
N449 C448 1.315 . S
H450 C444 0.929 . S
H451 C448 0.930 . S
H452 C440 0.929 1_554 S
H453 C442 0.929 . S
O454 Co429 2.351 . S
O454 C457 1.244 . S
O455 Co429 2.155 . S
O455 C457 1.240 . S
O456 Co429 2.096 . S
O456 C437 1.247 . S
C457 O454 1.244 . S
C457 O455 1.240 . S
H458 C432 0.931 . S
H459 C441 0.931 . S
H460 C445 0.929 . S
H461 C447 0.930 . S
Co462 N466 2.148 1_556 S
Co462 N472 2.128 . S
Co462 N482 2.194 . S
Co462 O487 2.351 . S
Co462 O488 2.155 . S
Co462 O489 2.096 . S
C463 N466 1.301 . S
C463 N467 1.328 . S
C463 H468 0.930 . S
C464 C465 1.333 . S
C464 N466 1.317 . S
C464 H469 0.930 . S
C465 C464 1.333 . S
C465 N467 1.350 . S
C465 H491 0.931 . S
N466 Co462 2.148 1_554 S
N466 C463 1.301 . S
N466 C464 1.317 . S
N467 C463 1.328 . S
N467 C465 1.350 . S
H468 C463 0.930 . S
H469 C464 0.930 . S
C470 O471 1.224 . S
C470 O489 1.247 . S
O471 C470 1.224 . S
N472 Co462 2.128 . S
N472 C473 1.355 . S
N472 C475 1.311 . S
C473 N472 1.355 . S
C473 C474 1.363 . S
C473 H485 0.929 . S
C474 C473 1.363 . S
C474 N476 1.375 . S
C474 H492 0.931 . S
C475 N472 1.311 . S
C475 N476 1.347 . S
C475 H486 0.929 . S
N476 C474 1.375 . S
N476 C475 1.347 . S
C477 C480 1.365 . S
C477 N482 1.328 . S
C477 H483 0.929 . S
C478 C479 1.362 . S
C478 C481 1.378 . S
C478 H493 0.929 . S
C479 C478 1.362 . S
C479 C480 1.366 . S
C480 C477 1.365 . S
C480 C479 1.366 . S
C480 H494 0.930 . S
C481 C478 1.378 . S
C481 N482 1.315 . S
C481 H484 0.930 . S
N482 Co462 2.194 . S
N482 C477 1.328 . S
N482 C481 1.315 . S
H483 C477 0.929 . S
H484 C481 0.930 . S
H485 C473 0.929 . S
H486 C475 0.929 . S
O487 Co462 2.351 . S
O487 C490 1.244 . S
O488 Co462 2.155 . S
O488 C490 1.240 . S
O489 Co462 2.096 . S
O489 C470 1.247 . S
C490 O487 1.244 . S
C490 O488 1.240 . S
H491 C465 0.931 . S
H492 C474 0.931 . S
H493 C478 0.929 . S
H494 C480 0.930 . S
Co495 N499 2.148 . S
Co495 N505 2.128 . S
Co495 N515 2.194 . S
Co495 O520 2.351 . S
Co495 O521 2.155 . S
Co495 O522 2.096 . S
C496 N499 1.301 . S
C496 N500 1.328 . S
C496 H501 0.930 . S
C497 C498 1.333 . S
C497 N499 1.317 . S
C497 H502 0.930 . S
C498 C497 1.333 . S
C498 N500 1.350 . S
C498 H524 0.931 . S
N499 Co495 2.148 . S
N499 C496 1.301 . S
N499 C497 1.317 . S
N500 C496 1.328 . S
N500 C498 1.350 . S
H501 C496 0.930 . S
H502 C497 0.930 . S
C503 O504 1.224 . S
C503 O522 1.247 . S
O504 C503 1.224 . S
N505 Co495 2.128 . S
N505 C506 1.355 1_556 S
N505 C508 1.311 1_556 S
C506 N505 1.355 1_554 S
C506 C507 1.363 . S
C506 H518 0.929 1_554 S
C507 C506 1.363 . S
C507 N509 1.375 . S
C507 H525 0.931 . S
C508 N505 1.311 1_554 S
C508 N509 1.347 . S
C508 H519 0.929 . S
N509 C507 1.375 . S
N509 C508 1.347 . S
C510 C513 1.365 . S
C510 N515 1.328 . S
C510 H516 0.929 . S
C511 C512 1.362 . S
C511 C514 1.378 . S
C511 H526 0.929 . S
C512 C511 1.362 . S
C512 C513 1.366 . S
C513 C510 1.365 . S
C513 C512 1.366 . S
C513 H527 0.930 . S
C514 C511 1.378 . S
C514 N515 1.315 . S
C514 H517 0.930 . S
N515 Co495 2.194 . S
N515 C510 1.328 . S
N515 C514 1.315 . S
H516 C510 0.929 . S
H517 C514 0.930 . S
H518 C506 0.929 1_556 S
H519 C508 0.929 . S
O520 Co495 2.351 . S
O520 C523 1.244 . S
O521 Co495 2.155 . S
O521 C523 1.240 . S
O522 Co495 2.096 . S
O522 C503 1.247 . S
C523 O520 1.244 . S
C523 O521 1.240 . S
H524 C498 0.931 . S
H525 C507 0.931 . S
H526 C511 0.929 . S
H527 C513 0.930 . S
H528 C534 0.930 . S
H529 C537 0.930 . S
H530 C538 0.930 . S
H531 C539 0.930 . S
H532 C542 0.930 . S
H533 C543 0.930 . S
C534 H528 0.930 . S
C534 C535 1.355 . S
C534 C536 1.415 . S
C535 C534 1.355 . S
C535 C537 1.419 . S
C536 C534 1.415 . S
C536 C541 1.425 . S
C536 C543 1.409 . S
C537 H529 0.930 . S
C537 C535 1.419 . S
C537 C538 1.362 . S
C538 H530 0.930 . S
C538 C537 1.362 . S
C538 C541 1.409 . S
C539 H531 0.930 . S
C539 C540 1.355 . S
C539 C541 1.415 . S
C540 C539 1.355 . S
C540 C542 1.419 . S
C541 C536 1.425 . S
C541 C538 1.409 . S
C541 C539 1.415 . S
C542 H532 0.930 . S
C542 C540 1.419 . S
C542 C543 1.362 . S
C543 H533 0.930 . S
C543 C536 1.409 . S
C543 C542 1.362 . S
H544 C550 0.930 . S
H545 C553 0.930 . S
H546 C554 0.930 . S
H547 C555 0.930 . S
H548 C558 0.930 . S
H549 C559 0.930 . S
C550 H544 0.930 . S
C550 C551 1.355 . S
C550 C552 1.415 1_455 S
C551 C550 1.355 . S
C551 C553 1.419 . S
C552 C550 1.415 1_655 S
C552 C557 1.425 1_655 S
C552 C559 1.409 . S
C553 H545 0.930 . S
C553 C551 1.419 . S
C553 C554 1.362 . S
C554 H546 0.930 . S
C554 C553 1.362 . S
C554 C557 1.409 . S
C555 H547 0.930 . S
C555 C556 1.355 . S
C555 C557 1.415 1_655 S
C556 C555 1.355 . S
C556 C558 1.419 . S
C557 C552 1.425 1_455 S
C557 C554 1.409 . S
C557 C555 1.415 1_455 S
C558 H548 0.930 . S
C558 C556 1.419 . S
C558 C559 1.362 . S
C559 H549 0.930 . S
C559 C552 1.409 . S
C559 C558 1.362 . S
H560 C566 0.930 . S
H561 C569 0.930 . S
H562 C570 0.930 1_554 S
H563 C571 0.930 . S
H564 C574 0.930 . S
H565 C575 0.930 1_556 S
C566 H560 0.930 . S
C566 C567 1.355 . S
C566 C568 1.415 . S
C567 C566 1.355 . S
C567 C569 1.419 . S
C568 C566 1.415 . S
C568 C573 1.425 1_556 S
C568 C575 1.409 1_556 S
C569 H561 0.930 . S
C569 C567 1.419 . S
C569 C570 1.362 . S
C570 H562 0.930 1_556 S
C570 C569 1.362 . S
C570 C573 1.409 1_556 S
C571 H563 0.930 . S
C571 C572 1.355 . S
C571 C573 1.415 . S
C572 C571 1.355 . S
C572 C574 1.419 . S
C573 C568 1.425 1_554 S
C573 C570 1.409 1_554 S
C573 C571 1.415 . S
C574 H564 0.930 . S
C574 C572 1.419 . S
C574 C575 1.362 . S
C575 H565 0.930 1_554 S
C575 C568 1.409 1_554 S
C575 C574 1.362 . S
H576 C582 0.930 . S
H577 C585 0.930 . S
H578 C586 0.930 1_455 S
H579 C587 0.930 . S
H580 C590 0.930 . S
H581 C591 0.930 1_655 S
C582 H576 0.930 . S
C582 C583 1.355 . S
C582 C584 1.415 . S
C583 C582 1.355 . S
C583 C585 1.419 1_556 S
C584 C582 1.415 . S
C584 C589 1.425 1_656 S
C584 C591 1.409 1_655 S
C585 H577 0.930 . S
C585 C583 1.419 1_554 S
C585 C586 1.362 . S
C586 H578 0.930 1_655 S
C586 C585 1.362 . S
C586 C589 1.409 1_655 S
C587 H579 0.930 . S
C587 C588 1.355 . S
C587 C589 1.415 . S
C588 C587 1.355 . S
C588 C590 1.419 1_554 S
C589 C584 1.425 1_454 S
C589 C586 1.409 1_455 S
C589 C587 1.415 . S
C590 H580 0.930 . S
C590 C588 1.419 1_556 S
C590 C591 1.362 . S
C591 H581 0.930 1_455 S
C591 C584 1.409 1_455 S
C591 C590 1.362 . S
H592 C598 0.930 . S
H593 C601 0.930 . S
H594 C602 0.930 . S
H595 C603 0.930 . S
H596 C606 0.930 . S
H597 C607 0.930 . S
C598 H592 0.930 . S
C598 C599 1.355 . S
C598 C600 1.415 . S
C599 C598 1.355 . S
C599 C601 1.419 . S
C600 C598 1.415 . S
C600 C605 1.425 . S
C600 C607 1.409 . S
C601 H593 0.930 . S
C601 C599 1.419 . S
C601 C602 1.362 . S
C602 H594 0.930 . S
C602 C601 1.362 . S
C602 C605 1.409 . S
C603 H595 0.930 . S
C603 C604 1.355 . S
C603 C605 1.415 . S
C604 C603 1.355 . S
C604 C606 1.419 . S
C605 C600 1.425 . S
C605 C602 1.409 . S
C605 C603 1.415 . S
C606 H596 0.930 . S
C606 C604 1.419 . S
C606 C607 1.362 . S
C607 H597 0.930 . S
C607 C600 1.409 . S
C607 C606 1.362 . S
H608 C614 0.930 . S
H609 C617 0.930 . S
H610 C618 0.930 . S
H611 C619 0.930 . S
H612 C622 0.930 . S
H613 C623 0.930 . S
C614 H608 0.930 . S
C614 C615 1.355 . S
C614 C616 1.415 1_455 S
C615 C614 1.355 . S
C615 C617 1.419 . S
C616 C614 1.415 1_655 S
C616 C621 1.425 1_655 S
C616 C623 1.409 . S
C617 H609 0.930 . S
C617 C615 1.419 . S
C617 C618 1.362 . S
C618 H610 0.930 . S
C618 C617 1.362 . S
C618 C621 1.409 . S
C619 H611 0.930 . S
C619 C620 1.355 . S
C619 C621 1.415 1_655 S
C620 C619 1.355 . S
C620 C622 1.419 . S
C621 C616 1.425 1_455 S
C621 C618 1.409 . S
C621 C619 1.415 1_455 S
C622 H612 0.930 . S
C622 C620 1.419 . S
C622 C623 1.362 . S
C623 H613 0.930 . S
C623 C616 1.409 . S
C623 C622 1.362 . S
H624 C630 0.930 . S
H625 C633 0.930 . S
H626 C634 0.930 . S
H627 C635 0.930 . S
H628 C638 0.930 . S
H629 C639 0.930 . S
C630 H624 0.930 . S
C630 C631 1.355 1_556 S
C630 C632 1.415 . S
C631 C630 1.355 1_554 S
C631 C633 1.419 . S
C632 C630 1.415 . S
C632 C637 1.425 1_556 S
C632 C639 1.409 . S
C633 H625 0.930 . S
C633 C631 1.419 . S
C633 C634 1.362 . S
C634 H626 0.930 . S
C634 C633 1.362 . S
C634 C637 1.409 . S
C635 H627 0.930 . S
C635 C636 1.355 1_554 S
C635 C637 1.415 . S
C636 C635 1.355 1_556 S
C636 C638 1.419 . S
C637 C632 1.425 1_554 S
C637 C634 1.409 . S
C637 C635 1.415 . S
C638 H628 0.930 . S
C638 C636 1.419 . S
C638 C639 1.362 . S
C639 H629 0.930 . S
C639 C632 1.409 . S
C639 C638 1.362 . S
H640 C646 0.930 1_545 S
H641 C649 0.930 . S
H642 C650 0.930 . S
H643 C651 0.930 1_565 S
H644 C654 0.930 . S
H645 C655 0.930 . S
C646 H640 0.930 1_565 S
C646 C647 1.355 . S
C646 C648 1.415 1_565 S
C647 C646 1.355 . S
C647 C649 1.419 . S
C648 C646 1.415 1_545 S
C648 C653 1.425 1_545 S
C648 C655 1.409 . S
C649 H641 0.930 . S
C649 C647 1.419 . S
C649 C650 1.362 . S
C650 H642 0.930 . S
C650 C649 1.362 . S
C650 C653 1.409 . S
C651 H643 0.930 1_545 S
C651 C652 1.355 . S
C651 C653 1.415 1_545 S
C652 C651 1.355 . S
C652 C654 1.419 . S
C653 C648 1.425 1_565 S
C653 C650 1.409 . S
C653 C651 1.415 1_565 S
C654 H644 0.930 . S
C654 C652 1.419 . S
C654 C655 1.362 . S
C655 H645 0.930 . S
C655 C648 1.409 . S
C655 C654 1.362 . S
H656 C662 0.930 . S
H657 C665 0.930 . S
H658 C666 0.930 . S
H659 C667 0.930 . S
H660 C670 0.930 . S
H661 C671 0.930 . S
C662 H656 0.930 . S
C662 C663 1.355 . S
C662 C664 1.415 . S
C663 C662 1.355 . S
C663 C665 1.419 . S
C664 C662 1.415 . S
C664 C669 1.425 . S
C664 C671 1.409 . S
C665 H657 0.930 . S
C665 C663 1.419 . S
C665 C666 1.362 . S
C666 H658 0.930 . S
C666 C665 1.362 . S
C666 C669 1.409 . S
C667 H659 0.930 . S
C667 C668 1.355 . S
C667 C669 1.415 . S
C668 C667 1.355 . S
C668 C670 1.419 . S
C669 C664 1.425 . S
C669 C666 1.409 . S
C669 C667 1.415 . S
C670 H660 0.930 . S
C670 C668 1.419 . S
C670 C671 1.362 . S
C671 H661 0.930 . S
C671 C664 1.409 . S
C671 C670 1.362 . S
H672 C678 0.930 . S
H673 C681 0.930 . S
H674 C682 0.959 . S
H675 C683 0.930 . S
H676 C686 0.930 . S
H677 C687 0.959 . S
C678 H672 0.930 . S
C678 C679 1.355 . S
C678 C680 1.415 1_655 S
C679 C678 1.355 . S
C679 C681 1.419 . S
C680 C678 1.415 1_455 S
C680 C685 1.425 1_465 S
C680 C687 1.423 . S
C681 H673 0.930 . S
C681 C679 1.419 . S
C681 C682 1.325 1_565 S
C682 H674 0.959 . S
C682 C681 1.325 1_545 S
C682 C685 1.423 . S
C683 H675 0.930 . S
C683 C684 1.355 . S
C683 C685 1.415 1_455 S
C684 C683 1.355 . S
C684 C686 1.419 . S
C685 C680 1.425 1_645 S
C685 C682 1.423 . S
C685 C683 1.415 1_655 S
C686 H676 0.930 . S
C686 C684 1.419 . S
C686 C687 1.325 1_545 S
C687 H677 0.959 . S
C687 C680 1.423 . S
C687 C686 1.325 1_565 S
H688 C694 0.930 . S
H689 C697 0.930 . S
H690 C698 0.930 . S
H691 C699 0.930 . S
H692 C702 0.930 . S
H693 C703 0.930 . S
C694 H688 0.930 . S
C694 C695 1.355 . S
C694 C696 1.415 . S
C695 C694 1.355 . S
C695 C697 1.419 1_545 S
C696 C694 1.415 . S
C696 C701 1.425 1_545 S
C696 C703 1.409 . S
C697 H689 0.930 . S
C697 C695 1.419 1_565 S
C697 C698 1.362 . S
C698 H690 0.930 . S
C698 C697 1.362 . S
C698 C701 1.409 . S
C699 H691 0.930 . S
C699 C700 1.355 . S
C699 C701 1.415 . S
C700 C699 1.355 . S
C700 C702 1.419 1_565 S
C701 C696 1.425 1_565 S
C701 C698 1.409 . S
C701 C699 1.415 . S
C702 H692 0.930 . S
C702 C700 1.419 1_545 S
C702 C703 1.362 . S
C703 H693 0.930 . S
C703 C696 1.409 . S
C703 C702 1.362 . S
H704 C710 0.930 . S
H705 C713 0.930 . S
H706 C714 0.930 . S
H707 C715 0.930 . S
H708 C718 0.930 . S
H709 C719 0.930 . S
C710 H704 0.930 . S
C710 C711 1.355 . S
C710 C712 1.415 . S
C711 C710 1.355 . S
C711 C713 1.419 . S
C712 C710 1.415 . S
C712 C717 1.425 . S
C712 C719 1.409 . S
C713 H705 0.930 . S
C713 C711 1.419 . S
C713 C714 1.362 . S
C714 H706 0.930 . S
C714 C713 1.362 . S
C714 C717 1.409 . S
C715 H707 0.930 . S
C715 C716 1.355 . S
C715 C717 1.415 . S
C716 C715 1.355 . S
C716 C718 1.419 . S
C717 C712 1.425 . S
C717 C714 1.409 . S
C717 C715 1.415 . S
C718 H708 0.930 . S
C718 C716 1.419 . S
C718 C719 1.362 . S
C719 H709 0.930 . S
C719 C712 1.409 . S
C719 C718 1.362 . S
H720 C726 0.930 . S
H721 C729 0.930 . S
H722 C730 0.930 . S
H723 C731 0.930 . S
H724 C734 0.930 . S
H725 C735 0.930 . S
C726 H720 0.930 . S
C726 C727 1.355 . S
C726 C728 1.415 . S
C727 C726 1.355 . S
C727 C729 1.419 . S
C728 C726 1.415 . S
C728 C733 1.425 . S
C728 C735 1.409 . S
C729 H721 0.930 . S
C729 C727 1.419 . S
C729 C730 1.362 . S
C730 H722 0.930 . S
C730 C729 1.362 . S
C730 C733 1.409 . S
C731 H723 0.930 . S
C731 C732 1.355 . S
C731 C733 1.415 . S
C732 C731 1.355 . S
C732 C734 1.419 . S
C733 C728 1.425 . S
C733 C730 1.409 . S
C733 C731 1.415 . S
C734 H724 0.930 . S
C734 C732 1.419 . S
C734 C735 1.362 . S
C735 H725 0.930 . S
C735 C728 1.409 . S
C735 C734 1.362 . S
H736 C742 0.930 . S
H737 C745 0.930 . S
H738 C746 0.930 . S
H739 C747 0.930 . S
H740 C750 0.930 . S
H741 C751 0.930 . S
C742 H736 0.930 . S
C742 C743 1.355 . S
C742 C744 1.415 . S
C743 C742 1.355 . S
C743 C745 1.419 . S
C744 C742 1.415 . S
C744 C749 1.425 . S
C744 C751 1.409 . S
C745 H737 0.930 . S
C745 C743 1.419 . S
C745 C746 1.362 . S
C746 H738 0.930 . S
C746 C745 1.362 . S
C746 C749 1.409 . S
C747 H739 0.930 . S
C747 C748 1.355 . S
C747 C749 1.415 . S
C748 C747 1.355 . S
C748 C750 1.419 . S
C749 C744 1.425 . S
C749 C746 1.409 . S
C749 C747 1.415 . S
C750 H740 0.930 . S
C750 C748 1.419 . S
C750 C751 1.362 . S
C751 H741 0.930 . S
C751 C744 1.409 . S
C751 C750 1.362 . S
H752 C758 0.930 . S
H753 C761 0.930 . S
H754 C762 0.930 . S
H755 C763 0.930 . S
H756 C766 0.930 . S
H757 C767 0.930 . S
C758 H752 0.930 . S
C758 C759 1.355 . S
C758 C760 1.415 . S
C759 C758 1.355 . S
C759 C761 1.419 . S
C760 C758 1.415 . S
C760 C765 1.425 . S
C760 C767 1.409 . S
C761 H753 0.930 . S
C761 C759 1.419 . S
C761 C762 1.362 . S
C762 H754 0.930 . S
C762 C761 1.362 . S
C762 C765 1.409 . S
C763 H755 0.930 . S
C763 C764 1.355 . S
C763 C765 1.415 . S
C764 C763 1.355 . S
C764 C766 1.419 . S
C765 C760 1.425 . S
C765 C762 1.409 . S
C765 C763 1.415 . S
C766 H756 0.930 . S
C766 C764 1.419 . S
C766 C767 1.362 . S
C767 H757 0.930 . S
C767 C760 1.409 . S
C767 C766 1.362 . S
H768 C774 0.930 . S
H769 C777 0.930 . S
H770 C778 0.956 . S
H771 C779 0.930 . S
H772 C782 0.930 . S
H773 C783 0.956 . S
C774 H768 0.930 . S
C774 C775 1.355 . S
C774 C776 1.415 . S
C775 C774 1.355 . S
C775 C777 1.419 1_556 S
C776 C774 1.415 . S
C776 C781 1.425 1_566 S
C776 C783 1.422 . S
C777 H769 0.930 . S
C777 C775 1.419 1_554 S
C777 C778 1.328 1_565 S
C778 H770 0.956 . S
C778 C777 1.328 1_545 S
C778 C781 1.422 . S
C779 H771 0.930 . S
C779 C780 1.355 . S
C779 C781 1.415 . S
C780 C779 1.355 . S
C780 C782 1.419 1_554 S
C781 C776 1.425 1_544 S
C781 C778 1.422 . S
C781 C779 1.415 . S
C782 H772 0.930 . S
C782 C780 1.419 1_556 S
C782 C783 1.328 1_545 S
C783 H773 0.956 . S
C783 C776 1.422 . S
C783 C782 1.328 1_565 S
H784 C790 0.930 . S
H785 C793 0.930 . S
H786 C794 0.930 . S
H787 C795 0.930 . S
H788 C798 0.930 . S
H789 C799 0.930 . S
C790 H784 0.930 . S
C790 C791 1.355 . S
C790 C792 1.415 . S
C791 C790 1.355 . S
C791 C793 1.419 . S
C792 C790 1.415 . S
C792 C797 1.425 . S
C792 C799 1.409 . S
C793 H785 0.930 . S
C793 C791 1.419 . S
C793 C794 1.362 . S
C794 H786 0.930 . S
C794 C793 1.362 . S
C794 C797 1.409 . S
C795 H787 0.930 . S
C795 C796 1.355 . S
C795 C797 1.415 . S
C796 C795 1.355 . S
C796 C798 1.419 . S
C797 C792 1.425 . S
C797 C794 1.409 . S
C797 C795 1.415 . S
C798 H788 0.930 . S
C798 C796 1.419 . S
C798 C799 1.362 . S
C799 H789 0.930 . S
C799 C792 1.409 . S
C799 C798 1.362 . S
H800 C806 0.930 . S
H801 C809 0.930 . S
H802 C810 0.930 . S
H803 C811 0.930 . S
H804 C814 0.930 . S
H805 C815 0.930 . S
C806 H800 0.930 . S
C806 C807 1.355 . S
C806 C808 1.415 . S
C807 C806 1.355 . S
C807 C809 1.419 . S
C808 C806 1.415 . S
C808 C813 1.425 . S
C808 C815 1.409 . S
C809 H801 0.930 . S
C809 C807 1.419 . S
C809 C810 1.362 . S
C810 H802 0.930 . S
C810 C809 1.362 . S
C810 C813 1.409 . S
C811 H803 0.930 . S
C811 C812 1.355 . S
C811 C813 1.415 . S
C812 C811 1.355 . S
C812 C814 1.419 . S
C813 C808 1.425 . S
C813 C810 1.409 . S
C813 C811 1.415 . S
C814 H804 0.930 . S
C814 C812 1.419 . S
C814 C815 1.362 . S
C815 H805 0.930 . S
C815 C808 1.409 . S
C815 C814 1.362 . S
H816 C822 0.930 . S
H817 C825 0.930 . S
H818 C826 0.930 . S
H819 C827 0.930 . S
H820 C830 0.930 . S
H821 C831 0.930 . S
C822 H816 0.930 . S
C822 C823 1.355 . S
C822 C824 1.415 . S
C823 C822 1.355 . S
C823 C825 1.419 . S
C824 C822 1.415 . S
C824 C829 1.425 . S
C824 C831 1.409 . S
C825 H817 0.930 . S
C825 C823 1.419 . S
C825 C826 1.362 . S
C826 H818 0.930 . S
C826 C825 1.362 . S
C826 C829 1.409 . S
C827 H819 0.930 . S
C827 C828 1.355 . S
C827 C829 1.415 . S
C828 C827 1.355 . S
C828 C830 1.419 . S
C829 C824 1.425 . S
C829 C826 1.409 . S
C829 C827 1.415 . S
C830 H820 0.930 . S
C830 C828 1.419 . S
C830 C831 1.362 . S
C831 H821 0.930 . S
C831 C824 1.409 . S
C831 C830 1.362 . S
H832 C838 0.930 . S
H833 C841 0.930 . S
H834 C842 0.930 . S
H835 C843 0.930 . S
H836 C846 0.930 . S
H837 C847 0.930 . S
C838 H832 0.930 . S
C838 C839 1.355 . S
C838 C840 1.415 . S
C839 C838 1.355 . S
C839 C841 1.419 . S
C840 C838 1.415 . S
C840 C845 1.425 . S
C840 C847 1.409 . S
C841 H833 0.930 . S
C841 C839 1.419 . S
C841 C842 1.362 . S
C842 H834 0.930 . S
C842 C841 1.362 . S
C842 C845 1.409 . S
C843 H835 0.930 . S
C843 C844 1.355 . S
C843 C845 1.415 . S
C844 C843 1.355 . S
C844 C846 1.419 . S
C845 C840 1.425 . S
C845 C842 1.409 . S
C845 C843 1.415 . S
C846 H836 0.930 . S
C846 C844 1.419 . S
C846 C847 1.362 . S
C847 H837 0.930 . S
C847 C840 1.409 . S
C847 C846 1.362 . S
H848 C854 0.930 . S
H849 C857 0.930 . S
H850 C858 0.930 . S
H851 C859 0.930 1_556 S
H852 C862 0.930 . S
H853 C863 0.930 . S
C854 H848 0.930 . S
C854 C855 1.355 . S
C854 C856 1.415 . S
C855 C854 1.355 . S
C855 C857 1.419 . S
C856 C854 1.415 . S
C856 C861 1.425 . S
C856 C863 1.409 . S
C857 H849 0.930 . S
C857 C855 1.419 . S
C857 C858 1.362 . S
C858 H850 0.930 . S
C858 C857 1.362 . S
C858 C861 1.409 . S
C859 H851 0.930 1_554 S
C859 C860 1.355 1_554 S
C859 C861 1.415 . S
C860 C859 1.355 1_556 S
C860 C862 1.419 . S
C861 C856 1.425 . S
C861 C858 1.409 . S
C861 C859 1.415 . S
C862 H852 0.930 . S
C862 C860 1.419 . S
C862 C863 1.362 1_556 S
C863 H853 0.930 . S
C863 C856 1.409 . S
C863 C862 1.362 1_554 S
H864 C870 0.930 . S
H865 C873 0.930 . S
H866 C874 0.930 . S
H867 C875 0.930 . S
H868 C878 0.930 1_556 S
H869 C879 0.930 . S
C870 H864 0.930 . S
C870 C871 1.355 . S
C870 C872 1.415 . S
C871 C870 1.355 . S
C871 C873 1.419 . S
C872 C870 1.415 . S
C872 C877 1.425 . S
C872 C879 1.409 . S
C873 H865 0.930 . S
C873 C871 1.419 . S
C873 C874 1.362 . S
C874 H866 0.930 . S
C874 C873 1.362 . S
C874 C877 1.409 . S
C875 H867 0.930 . S
C875 C876 1.355 1_554 S
C875 C877 1.415 . S
C876 C875 1.355 1_556 S
C876 C878 1.419 1_556 S
C877 C872 1.425 . S
C877 C874 1.409 . S
C877 C875 1.415 . S
C878 H868 0.930 1_554 S
C878 C876 1.419 1_554 S
C878 C879 1.362 . S
C879 H869 0.930 . S
C879 C872 1.409 . S
C879 C878 1.362 . S
H880 C886 0.930 1_554 S
H881 C889 0.927 1_554 S
H882 C890 0.930 . S
H883 C891 0.930 . S
H884 C894 0.930 . S
H885 C895 0.930 . S
C886 H880 0.930 1_556 S
C886 C887 1.355 1_556 S
C886 C888 1.415 . S
C887 C886 1.355 1_554 S
C887 C889 1.417 1_554 S
C888 C886 1.415 . S
C888 C893 1.425 . S
C888 C895 1.409 . S
C889 H881 0.927 1_556 S
C889 C887 1.417 1_556 S
C889 C890 1.367 . S
C890 H882 0.930 . S
C890 C889 1.367 . S
C890 C893 1.409 . S
C891 H883 0.930 . S
C891 C892 1.355 . S
C891 C893 1.415 . S
C892 C891 1.355 . S
C892 C894 1.419 . S
C893 C888 1.425 . S
C893 C890 1.409 . S
C893 C891 1.415 . S
C894 H884 0.930 . S
C894 C892 1.419 . S
C894 C895 1.362 . S
C895 H885 0.930 . S
C895 C888 1.409 . S
C895 C894 1.362 . S
H896 C902 0.930 . S
H897 C905 0.930 1_554 S
H898 C906 0.930 . S
H899 C907 0.930 . S
H900 C910 0.930 . S
H901 C911 0.930 . S
C902 H896 0.930 . S
C902 C903 1.355 1_556 S
C902 C904 1.415 . S
C903 C902 1.355 1_554 S
C903 C905 1.419 1_554 S
C904 C902 1.415 . S
C904 C909 1.425 . S
C904 C911 1.409 . S
C905 H897 0.930 1_556 S
C905 C903 1.419 1_556 S
C905 C906 1.362 . S
C906 H898 0.930 . S
C906 C905 1.362 . S
C906 C909 1.409 . S
C907 H899 0.930 . S
C907 C908 1.355 . S
C907 C909 1.415 . S
C908 C907 1.355 . S
C908 C910 1.419 . S
C909 C904 1.425 . S
C909 C906 1.409 . S
C909 C907 1.415 . S
C910 H900 0.930 . S
C910 C908 1.419 . S
C910 C911 1.362 . S
C911 H901 0.930 . S
C911 C904 1.409 . S
C911 C910 1.362 . S
H912 C918 0.930 1_556 S
H913 C921 0.930 . S
H914 C922 0.930 . S
H915 C923 0.930 . S
H916 C926 0.930 . S
H917 C927 0.930 . S
C918 H912 0.930 1_554 S
C918 C919 1.355 1_554 S
C918 C920 1.415 . S
C919 C918 1.355 1_556 S
C919 C921 1.419 . S
C920 C918 1.415 . S
C920 C925 1.425 . S
C920 C927 1.409 . S
C921 H913 0.930 . S
C921 C919 1.419 . S
C921 C922 1.362 1_556 S
C922 H914 0.930 . S
C922 C921 1.362 1_554 S
C922 C925 1.409 . S
C923 H915 0.930 . S
C923 C924 1.355 . S
C923 C925 1.415 . S
C924 C923 1.355 . S
C924 C926 1.419 . S
C925 C920 1.425 . S
C925 C922 1.409 . S
C925 C923 1.415 . S
C926 H916 0.930 . S
C926 C924 1.419 . S
C926 C927 1.362 . S
C927 H917 0.930 . S
C927 C920 1.409 . S
C927 C926 1.362 . S
H928 C934 0.930 . S
H929 C937 0.930 1_556 S
H930 C938 0.930 . S
H931 C939 0.930 . S
H932 C942 0.930 . S
H933 C943 0.930 . S
C934 H928 0.930 . S
C934 C935 1.355 1_554 S
C934 C936 1.415 . S
C935 C934 1.355 1_556 S
C935 C937 1.419 1_556 S
C936 C934 1.415 . S
C936 C941 1.425 . S
C936 C943 1.409 . S
C937 H929 0.930 1_554 S
C937 C935 1.419 1_554 S
C937 C938 1.362 . S
C938 H930 0.930 . S
C938 C937 1.362 . S
C938 C941 1.409 . S
C939 H931 0.930 . S
C939 C940 1.355 . S
C939 C941 1.415 . S
C940 C939 1.355 . S
C940 C942 1.419 . S
C941 C936 1.425 . S
C941 C938 1.409 . S
C941 C939 1.415 . S
C942 H932 0.930 . S
C942 C940 1.419 . S
C942 C943 1.362 . S
C943 H933 0.930 . S
C943 C936 1.409 . S
C943 C942 1.362 . S
H944 C950 0.930 . S
H945 C953 0.930 . S
H946 C954 0.930 . S
H947 C955 0.930 . S
H948 C958 0.930 . S
H949 C959 0.930 . S
C950 H944 0.930 . S
C950 C951 1.355 1_556 S
C950 C952 1.415 . S
C951 C950 1.355 1_554 S
C951 C953 1.419 . S
C952 C950 1.415 . S
C952 C957 1.425 . S
C952 C959 1.409 . S
C953 H945 0.930 . S
C953 C951 1.419 . S
C953 C954 1.362 1_554 S
C954 H946 0.930 . S
C954 C953 1.362 1_556 S
C954 C957 1.409 . S
C955 H947 0.930 . S
C955 C956 1.355 . S
C955 C957 1.415 . S
C956 C955 1.355 . S
C956 C958 1.419 . S
C957 C952 1.425 . S
C957 C954 1.409 . S
C957 C955 1.415 . S
C958 H948 0.930 . S
C958 C956 1.419 . S
C958 C959 1.362 . S
C959 H949 0.930 . S
C959 C952 1.409 . S
C959 C958 1.362 . S
H960 C966 0.930 . S
H961 C969 0.930 1_554 S
H962 C970 0.930 . S
H963 C971 0.930 . S
H964 C974 0.930 . S
H965 C975 0.930 . S
C966 H960 0.930 . S
C966 C967 1.355 1_556 S
C966 C968 1.415 . S
C967 C966 1.355 1_554 S
C967 C969 1.419 1_554 S
C968 C966 1.415 . S
C968 C973 1.425 . S
C968 C975 1.409 . S
C969 H961 0.930 1_556 S
C969 C967 1.419 1_556 S
C969 C970 1.362 . S
C970 H962 0.930 . S
C970 C969 1.362 . S
C970 C973 1.409 . S
C971 H963 0.930 . S
C971 C972 1.355 . S
C971 C973 1.415 . S
C972 C971 1.355 . S
C972 C974 1.419 . S
C973 C968 1.425 . S
C973 C970 1.409 . S
C973 C971 1.415 . S
C974 H964 0.930 . S
C974 C972 1.419 . S
C974 C975 1.362 . S
C975 H965 0.930 . S
C975 C968 1.409 . S
C975 C974 1.362 . S
H976 C982 0.930 . S
H977 C985 0.930 . S
H978 C986 0.930 . S
H979 C987 0.930 . S
H980 C990 0.930 . S
H981 C991 0.930 . S
C982 H976 0.930 . S
C982 C983 1.355 . S
C982 C984 1.415 . S
C983 C982 1.355 . S
C983 C985 1.419 . S
C984 C982 1.415 . S
C984 C989 1.425 . S
C984 C991 1.409 . S
C985 H977 0.930 . S
C985 C983 1.419 . S
C985 C986 1.362 . S
C986 H978 0.930 . S
C986 C985 1.362 . S
C986 C989 1.409 . S
C987 H979 0.930 . S
C987 C988 1.355 . S
C987 C989 1.415 . S
C988 C987 1.355 . S
C988 C990 1.419 . S
C989 C984 1.425 . S
C989 C986 1.409 . S
C989 C987 1.415 . S
C990 H980 0.930 . S
C990 C988 1.419 . S
C990 C991 1.362 . S
C991 H981 0.930 . S
C991 C984 1.409 . S
C991 C990 1.362 . S
H992 C998 0.930 . S
H993 C1001 0.930 . S
H994 C1002 0.930 . S
H995 C1003 0.930 . S
H996 C1006 0.930 . S
H997 C1007 0.930 . S
C998 H992 0.930 . S
C998 C999 1.355 . S
C998 C1000 1.415 . S
C999 C998 1.355 . S
C999 C1001 1.419 . S
C1000 C998 1.415 . S
C1000 C1005 1.425 . S
C1000 C1007 1.409 . S
C1001 H993 0.930 . S
C1001 C999 1.419 . S
C1001 C1002 1.362 . S
C1002 H994 0.930 . S
C1002 C1001 1.362 . S
C1002 C1005 1.409 . S
C1003 H995 0.930 . S
C1003 C1004 1.355 . S
C1003 C1005 1.415 . S
C1004 C1003 1.355 . S
C1004 C1006 1.419 . S
C1005 C1000 1.425 . S
C1005 C1002 1.409 . S
C1005 C1003 1.415 . S
C1006 H996 0.930 . S
C1006 C1004 1.419 . S
C1006 C1007 1.362 . S
C1007 H997 0.930 . S
C1007 C1000 1.409 . S
C1007 C1006 1.362 . S
H1008 C1014 0.930 . S
H1009 C1017 0.930 . S
H1010 C1018 0.930 . S
H1011 C1019 0.930 . S
H1012 C1022 0.930 . S
H1013 C1023 0.930 . S
C1014 H1008 0.930 . S
C1014 C1015 1.355 . S
C1014 C1016 1.415 . S
C1015 C1014 1.355 . S
C1015 C1017 1.419 . S
C1016 C1014 1.415 . S
C1016 C1021 1.425 . S
C1016 C1023 1.409 . S
C1017 H1009 0.930 . S
C1017 C1015 1.419 . S
C1017 C1018 1.362 . S
C1018 H1010 0.930 . S
C1018 C1017 1.362 . S
C1018 C1021 1.409 . S
C1019 H1011 0.930 . S
C1019 C1020 1.355 . S
C1019 C1021 1.415 . S
C1020 C1019 1.355 . S
C1020 C1022 1.419 . S
C1021 C1016 1.425 . S
C1021 C1018 1.409 . S
C1021 C1019 1.415 . S
C1022 H1012 0.930 . S
C1022 C1020 1.419 . S
C1022 C1023 1.362 . S
C1023 H1013 0.930 . S
C1023 C1016 1.409 . S
C1023 C1022 1.362 . S
H1024 C1030 0.930 . S
H1025 C1033 0.930 . S
H1026 C1034 0.930 . S
H1027 C1035 0.930 . S
H1028 C1038 0.930 . S
H1029 C1039 0.930 . S
C1030 H1024 0.930 . S
C1030 C1031 1.355 . S
C1030 C1032 1.415 . S
C1031 C1030 1.355 . S
C1031 C1033 1.419 . S
C1032 C1030 1.415 . S
C1032 C1037 1.425 . S
C1032 C1039 1.409 . S
C1033 H1025 0.930 . S
C1033 C1031 1.419 . S
C1033 C1034 1.362 . S
C1034 H1026 0.930 . S
C1034 C1033 1.362 . S
C1034 C1037 1.409 . S
C1035 H1027 0.930 . S
C1035 C1036 1.355 . S
C1035 C1037 1.415 . S
C1036 C1035 1.355 . S
C1036 C1038 1.419 . S
C1037 C1032 1.425 . S
C1037 C1034 1.409 . S
C1037 C1035 1.415 . S
C1038 H1028 0.930 . S
C1038 C1036 1.419 . S
C1038 C1039 1.362 . S
C1039 H1029 0.930 . S
C1039 C1032 1.409 . S
C1039 C1038 1.362 . S
H1040 C1046 0.930 . S
H1041 C1049 0.930 . S
H1042 C1050 0.930 1_556 S
H1043 C1051 0.930 . S
H1044 C1054 0.930 . S
H1045 C1055 0.930 . S
C1046 H1040 0.930 . S
C1046 C1047 1.355 . S
C1046 C1048 1.415 . S
C1047 C1046 1.355 . S
C1047 C1049 1.419 . S
C1048 C1046 1.415 . S
C1048 C1053 1.425 . S
C1048 C1055 1.409 . S
C1049 H1041 0.930 . S
C1049 C1047 1.419 . S
C1049 C1050 1.362 . S
C1050 H1042 0.930 1_554 S
C1050 C1049 1.362 . S
C1050 C1053 1.409 . S
C1051 H1043 0.930 . S
C1051 C1052 1.355 . S
C1051 C1053 1.415 . S
C1052 C1051 1.355 . S
C1052 C1054 1.419 . S
C1053 C1048 1.425 . S
C1053 C1050 1.409 . S
C1053 C1051 1.415 . S
C1054 H1044 0.930 . S
C1054 C1052 1.419 . S
C1054 C1055 1.362 . S
C1055 H1045 0.930 . S
C1055 C1048 1.409 . S
C1055 C1054 1.362 . S
H1056 C1062 0.930 . S
H1057 C1065 0.930 . S
H1058 C1066 0.930 . S
H1059 C1067 0.930 . S
H1060 C1070 0.930 . S
H1061 C1071 0.930 . S
C1062 H1056 0.930 . S
C1062 C1063 1.355 . S
C1062 C1064 1.415 . S
C1063 C1062 1.355 . S
C1063 C1065 1.419 . S
C1064 C1062 1.415 . S
C1064 C1069 1.425 . S
C1064 C1071 1.409 . S
C1065 H1057 0.930 . S
C1065 C1063 1.419 . S
C1065 C1066 1.362 . S
C1066 H1058 0.930 . S
C1066 C1065 1.362 . S
C1066 C1069 1.409 . S
C1067 H1059 0.930 . S
C1067 C1068 1.355 . S
C1067 C1069 1.415 . S
C1068 C1067 1.355 . S
C1068 C1070 1.419 . S
C1069 C1064 1.425 . S
C1069 C1066 1.409 . S
C1069 C1067 1.415 . S
C1070 H1060 0.930 . S
C1070 C1068 1.419 . S
C1070 C1071 1.362 . S
C1071 H1061 0.930 . S
C1071 C1064 1.409 . S
C1071 C1070 1.362 . S
H1072 C1078 0.930 . S
H1073 C1081 0.930 . S
H1074 C1082 0.930 . S
H1075 C1083 0.930 . S
H1076 C1086 0.930 . S
H1077 C1087 0.930 . S
C1078 H1072 0.930 . S
C1078 C1079 1.355 . S
C1078 C1080 1.415 . S
C1079 C1078 1.355 . S
C1079 C1081 1.419 . S
C1080 C1078 1.415 . S
C1080 C1085 1.425 . S
C1080 C1087 1.409 . S
C1081 H1073 0.930 . S
C1081 C1079 1.419 . S
C1081 C1082 1.362 . S
C1082 H1074 0.930 . S
C1082 C1081 1.362 . S
C1082 C1085 1.409 . S
C1083 H1075 0.930 . S
C1083 C1084 1.355 . S
C1083 C1085 1.415 . S
C1084 C1083 1.355 . S
C1084 C1086 1.419 . S
C1085 C1080 1.425 . S
C1085 C1082 1.409 . S
C1085 C1083 1.415 . S
C1086 H1076 0.930 . S
C1086 C1084 1.419 . S
C1086 C1087 1.362 . S
C1087 H1077 0.930 . S
C1087 C1080 1.409 . S
C1087 C1086 1.362 . S
H1088 C1094 0.930 . S
H1089 C1097 0.930 . S
H1090 C1098 0.930 . S
H1091 C1099 0.930 . S
H1092 C1102 0.930 . S
H1093 C1103 0.930 . S
C1094 H1088 0.930 . S
C1094 C1095 1.355 . S
C1094 C1096 1.415 . S
C1095 C1094 1.355 . S
C1095 C1097 1.419 . S
C1096 C1094 1.415 . S
C1096 C1101 1.425 . S
C1096 C1103 1.409 . S
C1097 H1089 0.930 . S
C1097 C1095 1.419 . S
C1097 C1098 1.362 . S
C1098 H1090 0.930 . S
C1098 C1097 1.362 . S
C1098 C1101 1.409 . S
C1099 H1091 0.930 . S
C1099 C1100 1.355 . S
C1099 C1101 1.415 . S
C1100 C1099 1.355 . S
C1100 C1102 1.419 . S
C1101 C1096 1.425 . S
C1101 C1098 1.409 . S
C1101 C1099 1.415 . S
C1102 H1092 0.930 . S
C1102 C1100 1.419 . S
C1102 C1103 1.362 . S
C1103 H1093 0.930 . S
C1103 C1096 1.409 . S
C1103 C1102 1.362 . S
H1104 C1110 0.930 . S
H1105 C1113 0.930 . S
H1106 C1114 0.930 . S
H1107 C1115 0.930 . S
H1108 C1118 0.930 . S
H1109 C1119 0.930 . S
C1110 H1104 0.930 . S
C1110 C1111 1.355 . S
C1110 C1112 1.415 . S
C1111 C1110 1.355 . S
C1111 C1113 1.419 . S
C1112 C1110 1.415 . S
C1112 C1117 1.425 . S
C1112 C1119 1.409 . S
C1113 H1105 0.930 . S
C1113 C1111 1.419 . S
C1113 C1114 1.362 . S
C1114 H1106 0.930 . S
C1114 C1113 1.362 . S
C1114 C1117 1.409 . S
C1115 H1107 0.930 . S
C1115 C1116 1.355 . S
C1115 C1117 1.415 . S
C1116 C1115 1.355 . S
C1116 C1118 1.419 . S
C1117 C1112 1.425 . S
C1117 C1114 1.409 . S
C1117 C1115 1.415 . S
C1118 H1108 0.930 . S
C1118 C1116 1.419 . S
C1118 C1119 1.362 . S
C1119 H1109 0.930 . S
C1119 C1112 1.409 . S
C1119 C1118 1.362 . S
H1120 C1126 0.930 . S
H1121 C1129 0.930 . S
H1122 C1130 0.930 . S
H1123 C1131 0.930 . S
H1124 C1134 0.930 . S
H1125 C1135 0.930 . S
C1126 H1120 0.930 . S
C1126 C1127 1.355 . S
C1126 C1128 1.415 . S
C1127 C1126 1.355 . S
C1127 C1129 1.419 . S
C1128 C1126 1.415 . S
C1128 C1133 1.425 . S
C1128 C1135 1.409 . S
C1129 H1121 0.930 . S
C1129 C1127 1.419 . S
C1129 C1130 1.362 . S
C1130 H1122 0.930 . S
C1130 C1129 1.362 . S
C1130 C1133 1.409 . S
C1131 H1123 0.930 . S
C1131 C1132 1.355 . S
C1131 C1133 1.415 . S
C1132 C1131 1.355 . S
C1132 C1134 1.419 . S
C1133 C1128 1.425 . S
C1133 C1130 1.409 . S
C1133 C1131 1.415 . S
C1134 H1124 0.930 . S
C1134 C1132 1.419 . S
C1134 C1135 1.362 . S
C1135 H1125 0.930 . S
C1135 C1128 1.409 . S
C1135 C1134 1.362 . S
H1136 C1142 0.930 . S
H1137 C1145 0.930 . S
H1138 C1146 0.930 1_556 S
H1139 C1147 0.930 . S
H1140 C1150 0.930 . S
H1141 C1151 0.930 . S
C1142 H1136 0.930 . S
C1142 C1143 1.355 . S
C1142 C1144 1.415 . S
C1143 C1142 1.355 . S
C1143 C1145 1.419 . S
C1144 C1142 1.415 . S
C1144 C1149 1.425 . S
C1144 C1151 1.409 . S
C1145 H1137 0.930 . S
C1145 C1143 1.419 . S
C1145 C1146 1.362 . S
C1146 H1138 0.930 1_554 S
C1146 C1145 1.362 . S
C1146 C1149 1.409 . S
C1147 H1139 0.930 . S
C1147 C1148 1.355 . S
C1147 C1149 1.415 . S
C1148 C1147 1.355 . S
C1148 C1150 1.419 . S
C1149 C1144 1.425 . S
C1149 C1146 1.409 . S
C1149 C1147 1.415 . S
C1150 H1140 0.930 . S
C1150 C1148 1.419 . S
C1150 C1151 1.362 . S
C1151 H1141 0.930 . S
C1151 C1144 1.409 . S
C1151 C1150 1.362 . S
H1152 C1158 0.930 . S
H1153 C1161 0.930 . S
H1154 C1162 0.930 . S
H1155 C1163 0.930 . S
H1156 C1166 0.930 . S
H1157 C1167 0.930 . S
C1158 H1152 0.930 . S
C1158 C1159 1.355 . S
C1158 C1160 1.415 . S
C1159 C1158 1.355 . S
C1159 C1161 1.419 . S
C1160 C1158 1.415 . S
C1160 C1165 1.425 . S
C1160 C1167 1.409 . S
C1161 H1153 0.930 . S
C1161 C1159 1.419 . S
C1161 C1162 1.362 . S
C1162 H1154 0.930 . S
C1162 C1161 1.362 . S
C1162 C1165 1.409 . S
C1163 H1155 0.930 . S
C1163 C1164 1.355 . S
C1163 C1165 1.415 . S
C1164 C1163 1.355 . S
C1164 C1166 1.419 . S
C1165 C1160 1.425 . S
C1165 C1162 1.409 . S
C1165 C1163 1.415 . S
C1166 H1156 0.930 . S
C1166 C1164 1.419 . S
C1166 C1167 1.362 . S
C1167 H1157 0.930 . S
C1167 C1160 1.409 . S
C1167 C1166 1.362 . S
C535 C338 1.505 . S
C540 C8 1.505 . S
C551 C61 1.497 . S
C556 C259 1.497 . S
C567 C503 1.498 . S
C572 C41 1.498 . S
C583 C94 1.509 . S
C588 C28 1.509 . S
C599 C74 1.516 . S
C604 C272 1.516 . S
C615 C193 1.499 . S
C620 C127 1.499 . S
C631 C437 1.513 . S
C636 C107 1.513 . S
C647 C470 1.504 . S
C652 C140 1.504 . S
C663 C173 1.504 . S
C668 C371 1.504 . S
C679 C226 1.500 . S
C684 C160 1.500 . S
C695 C404 1.507 . S
C700 C206 1.507 . S
C711 C305 1.511 . S
C716 C239 1.511 . S
C727 C523 1.499 . S
C732 C325 1.499 . S
C743 C292 1.499 . S
C748 C358 1.499 . S
C759 C391 1.508 . S
C764 C457 1.508 . S
C775 C490 1.500 . S
C780 C424 1.500 . S
C791 N14 1.374 . S
C796 N5 1.382 . S
C807 N47 1.355 . S
C812 N38 1.364 . S
C823 N80 1.369 . S
C828 N71 1.373 . S
C839 N113 1.378 . S
C844 N104 1.385 . S
C855 N137 1.380 . S
C860 N146 1.373 . S
C871 N179 1.362 . S
C876 N170 1.371 . S
C887 N212 1.356 . S
C892 N203 1.363 . S
C903 N236 1.365 . S
C908 N245 1.356 . S
C919 N278 1.393 . S
C924 N269 1.394 . S
C935 N302 1.386 . S
C940 N311 1.379 . S
C951 N344 1.401 . S
C956 N335 1.403 . S
C967 N368 1.372 . S
C972 N377 1.367 . S
C983 N410 1.358 . S
C988 N401 1.367 . S
C999 N443 1.365 . S
C1004 N434 1.370 . S
C1015 N476 1.378 . S
C1020 N467 1.385 . S
C1031 N509 1.363 . S
C1036 N500 1.369 . S
C1047 C17 1.485 . S
C1052 C50 1.485 . S
C1063 C83 1.499 . S
C1068 C116 1.498 . S
C1079 C149 1.488 . S
C1084 C182 1.491 . S
C1095 C215 1.498 . S
C1100 C248 1.499 . S
C1111 C314 1.495 . S
C1116 C281 1.493 . S
C1127 C347 1.489 . S
C1132 C380 1.491 . S
C1143 C446 1.499 . S
C1148 C413 1.500 . S
C1159 C512 1.485 . S
C1164 C479 1.487 . S
