# Generated by pormake.
# Topology wim, (6)-cn, num edge types: 1
# Building blocks:
#     Node 0, Type 0, BuildingBlock: IZENUY_clean_sbu_0, # of connection points: 6
#     Node 1, Type 0, BuildingBlock: IZENUY_clean_sbu_0, # of connection points: 6
#     Node 2, Type 0, BuildingBlock: IZENUY_clean_sbu_0, # of connection points: 6
#     Node 3, Type 0, BuildingBlock: IZENUY_clean_sbu_0, # of connection points: 6
#     Node 4, Type 0, BuildingBlock: IZENUY_clean_sbu_0, # of connection points: 6
#     Node 5, Type 0, BuildingBlock: IZENUY_clean_sbu_0, # of connection points: 6
#     Node 6, Type 0, BuildingBlock: IZENUY_clean_sbu_0, # of connection points: 6
#     Node 7, Type 0, BuildingBlock: IZENUY_clean_sbu_0, # of connection points: 6
#     Node 8, Type 0, BuildingBlock: IZENUY_clean_sbu_0, # of connection points: 6
#     Node 9, Type 0, BuildingBlock: IZENUY_clean_sbu_0, # of connection points: 6
#     Node 10, Type 0, BuildingBlock: IZENUY_clean_sbu_0, # of connection points: 6
#     Node 11, Type 0, BuildingBlock: IZENUY_clean_sbu_0, # of connection points: 6
#     Node 12, Type 0, BuildingBlock: IZENUY_clean_sbu_0, # of connection points: 6
#     Node 13, Type 0, BuildingBlock: IZENUY_clean_sbu_0, # of connection points: 6
#     Node 14, Type 0, BuildingBlock: IZENUY_clean_sbu_0, # of connection points: 6
#     Node 15, Type 0, BuildingBlock: IZENUY_clean_sbu_0, # of connection points: 6
#     Node 16, Type 0, BuildingBlock: IZENUY_clean_sbu_0, # of connection points: 6
#     Node 17, Type 0, BuildingBlock: IZENUY_clean_sbu_0, # of connection points: 6
#     Node 18, Type 0, BuildingBlock: IZENUY_clean_sbu_0, # of connection points: 6
#     Node 19, Type 0, BuildingBlock: IZENUY_clean_sbu_0, # of connection points: 6
#     Node 20, Type 0, BuildingBlock: IZENUY_clean_sbu_0, # of connection points: 6
#     Node 21, Type 0, BuildingBlock: IZENUY_clean_sbu_0, # of connection points: 6
#     Node 22, Type 0, BuildingBlock: IZENUY_clean_sbu_0, # of connection points: 6
#     Node 23, Type 0, BuildingBlock: IZENUY_clean_sbu_0, # of connection points: 6
#     Node 24, Type 0, BuildingBlock: IZENUY_clean_sbu_0, # of connection points: 6
#     Node 25, Type 0, BuildingBlock: IZENUY_clean_sbu_0, # of connection points: 6
#     Node 26, Type 0, BuildingBlock: IZENUY_clean_sbu_0, # of connection points: 6
#     Node 27, Type 0, BuildingBlock: IZENUY_clean_sbu_0, # of connection points: 6
#     Node 28, Type 0, BuildingBlock: IZENUY_clean_sbu_0, # of connection points: 6
#     Node 29, Type 0, BuildingBlock: IZENUY_clean_sbu_0, # of connection points: 6
#     Node 30, Type 0, BuildingBlock: IZENUY_clean_sbu_0, # of connection points: 6
#     Node 31, Type 0, BuildingBlock: IZENUY_clean_sbu_0, # of connection points: 6
#     Edge 32, Type (0, 0), BuildingBlock: KIFKEQ_clean_linker_1, # of connection points: 2
#     Edge 33, Type (0, 0), BuildingBlock: KIFKEQ_clean_linker_1, # of connection points: 2
#     Edge 34, Type (0, 0), BuildingBlock: KIFKEQ_clean_linker_1, # of connection points: 2
#     Edge 35, Type (0, 0), BuildingBlock: KIFKEQ_clean_linker_1, # of connection points: 2
#     Edge 36, Type (0, 0), BuildingBlock: KIFKEQ_clean_linker_1, # of connection points: 2
#     Edge 37, Type (0, 0), BuildingBlock: KIFKEQ_clean_linker_1, # of connection points: 2
#     Edge 38, Type (0, 0), BuildingBlock: KIFKEQ_clean_linker_1, # of connection points: 2
#     Edge 39, Type (0, 0), BuildingBlock: KIFKEQ_clean_linker_1, # of connection points: 2
#     Edge 40, Type (0, 0), BuildingBlock: KIFKEQ_clean_linker_1, # of connection points: 2
#     Edge 41, Type (0, 0), BuildingBlock: KIFKEQ_clean_linker_1, # of connection points: 2
#     Edge 42, Type (0, 0), BuildingBlock: KIFKEQ_clean_linker_1, # of connection points: 2
#     Edge 43, Type (0, 0), BuildingBlock: KIFKEQ_clean_linker_1, # of connection points: 2
#     Edge 44, Type (0, 0), BuildingBlock: KIFKEQ_clean_linker_1, # of connection points: 2
#     Edge 45, Type (0, 0), BuildingBlock: KIFKEQ_clean_linker_1, # of connection points: 2
#     Edge 46, Type (0, 0), BuildingBlock: KIFKEQ_clean_linker_1, # of connection points: 2
#     Edge 47, Type (0, 0), BuildingBlock: KIFKEQ_clean_linker_1, # of connection points: 2
#     Edge 48, Type (0, 0), BuildingBlock: KIFKEQ_clean_linker_1, # of connection points: 2
#     Edge 49, Type (0, 0), BuildingBlock: KIFKEQ_clean_linker_1, # of connection points: 2
#     Edge 50, Type (0, 0), BuildingBlock: KIFKEQ_clean_linker_1, # of connection points: 2
#     Edge 51, Type (0, 0), BuildingBlock: KIFKEQ_clean_linker_1, # of connection points: 2
#     Edge 52, Type (0, 0), BuildingBlock: KIFKEQ_clean_linker_1, # of connection points: 2
#     Edge 53, Type (0, 0), BuildingBlock: KIFKEQ_clean_linker_1, # of connection points: 2
#     Edge 54, Type (0, 0), BuildingBlock: KIFKEQ_clean_linker_1, # of connection points: 2
#     Edge 55, Type (0, 0), BuildingBlock: KIFKEQ_clean_linker_1, # of connection points: 2
#     Edge 56, Type (0, 0), BuildingBlock: KIFKEQ_clean_linker_1, # of connection points: 2
#     Edge 57, Type (0, 0), BuildingBlock: KIFKEQ_clean_linker_1, # of connection points: 2
#     Edge 58, Type (0, 0), BuildingBlock: KIFKEQ_clean_linker_1, # of connection points: 2
#     Edge 59, Type (0, 0), BuildingBlock: KIFKEQ_clean_linker_1, # of connection points: 2
#     Edge 60, Type (0, 0), BuildingBlock: KIFKEQ_clean_linker_1, # of connection points: 2
#     Edge 61, Type (0, 0), BuildingBlock: KIFKEQ_clean_linker_1, # of connection points: 2
#     Edge 62, Type (0, 0), BuildingBlock: KIFKEQ_clean_linker_1, # of connection points: 2
#     Edge 63, Type (0, 0), BuildingBlock: KIFKEQ_clean_linker_1, # of connection points: 2
#     Edge 64, Type (0, 0), BuildingBlock: KIFKEQ_clean_linker_1, # of connection points: 2
#     Edge 65, Type (0, 0), BuildingBlock: KIFKEQ_clean_linker_1, # of connection points: 2
#     Edge 66, Type (0, 0), BuildingBlock: KIFKEQ_clean_linker_1, # of connection points: 2
#     Edge 67, Type (0, 0), BuildingBlock: KIFKEQ_clean_linker_1, # of connection points: 2
#     Edge 68, Type (0, 0), BuildingBlock: KIFKEQ_clean_linker_1, # of connection points: 2
#     Edge 69, Type (0, 0), BuildingBlock: KIFKEQ_clean_linker_1, # of connection points: 2
#     Edge 70, Type (0, 0), BuildingBlock: KIFKEQ_clean_linker_1, # of connection points: 2
#     Edge 71, Type (0, 0), BuildingBlock: KIFKEQ_clean_linker_1, # of connection points: 2
#     Edge 72, Type (0, 0), BuildingBlock: KIFKEQ_clean_linker_1, # of connection points: 2
#     Edge 73, Type (0, 0), BuildingBlock: KIFKEQ_clean_linker_1, # of connection points: 2
#     Edge 74, Type (0, 0), BuildingBlock: KIFKEQ_clean_linker_1, # of connection points: 2
#     Edge 75, Type (0, 0), BuildingBlock: KIFKEQ_clean_linker_1, # of connection points: 2
#     Edge 76, Type (0, 0), BuildingBlock: KIFKEQ_clean_linker_1, # of connection points: 2
#     Edge 77, Type (0, 0), BuildingBlock: KIFKEQ_clean_linker_1, # of connection points: 2
#     Edge 78, Type (0, 0), BuildingBlock: KIFKEQ_clean_linker_1, # of connection points: 2
#     Edge 79, Type (0, 0), BuildingBlock: KIFKEQ_clean_linker_1, # of connection points: 2
#     Edge 80, Type (0, 0), BuildingBlock: KIFKEQ_clean_linker_1, # of connection points: 2
#     Edge 81, Type (0, 0), BuildingBlock: KIFKEQ_clean_linker_1, # of connection points: 2
#     Edge 82, Type (0, 0), BuildingBlock: KIFKEQ_clean_linker_1, # of connection points: 2
#     Edge 83, Type (0, 0), BuildingBlock: KIFKEQ_clean_linker_1, # of connection points: 2
#     Edge 84, Type (0, 0), BuildingBlock: KIFKEQ_clean_linker_1, # of connection points: 2
#     Edge 85, Type (0, 0), BuildingBlock: KIFKEQ_clean_linker_1, # of connection points: 2
#     Edge 86, Type (0, 0), BuildingBlock: KIFKEQ_clean_linker_1, # of connection points: 2
#     Edge 87, Type (0, 0), BuildingBlock: KIFKEQ_clean_linker_1, # of connection points: 2
#     Edge 88, Type (0, 0), BuildingBlock: KIFKEQ_clean_linker_1, # of connection points: 2
#     Edge 89, Type (0, 0), BuildingBlock: KIFKEQ_clean_linker_1, # of connection points: 2
#     Edge 90, Type (0, 0), BuildingBlock: KIFKEQ_clean_linker_1, # of connection points: 2
#     Edge 91, Type (0, 0), BuildingBlock: KIFKEQ_clean_linker_1, # of connection points: 2
#     Edge 92, Type (0, 0), BuildingBlock: KIFKEQ_clean_linker_1, # of connection points: 2
#     Edge 93, Type (0, 0), BuildingBlock: KIFKEQ_clean_linker_1, # of connection points: 2
#     Edge 94, Type (0, 0), BuildingBlock: KIFKEQ_clean_linker_1, # of connection points: 2
#     Edge 95, Type (0, 0), BuildingBlock: KIFKEQ_clean_linker_1, # of connection points: 2
#     Edge 96, Type (0, 0), BuildingBlock: KIFKEQ_clean_linker_1, # of connection points: 2
#     Edge 97, Type (0, 0), BuildingBlock: KIFKEQ_clean_linker_1, # of connection points: 2
#     Edge 98, Type (0, 0), BuildingBlock: KIFKEQ_clean_linker_1, # of connection points: 2
#     Edge 99, Type (0, 0), BuildingBlock: KIFKEQ_clean_linker_1, # of connection points: 2
#     Edge 100, Type (0, 0), BuildingBlock: KIFKEQ_clean_linker_1, # of connection points: 2
#     Edge 101, Type (0, 0), BuildingBlock: KIFKEQ_clean_linker_1, # of connection points: 2
#     Edge 102, Type (0, 0), BuildingBlock: KIFKEQ_clean_linker_1, # of connection points: 2
#     Edge 103, Type (0, 0), BuildingBlock: KIFKEQ_clean_linker_1, # of connection points: 2
#     Edge 104, Type (0, 0), BuildingBlock: KIFKEQ_clean_linker_1, # of connection points: 2
#     Edge 105, Type (0, 0), BuildingBlock: KIFKEQ_clean_linker_1, # of connection points: 2
#     Edge 106, Type (0, 0), BuildingBlock: KIFKEQ_clean_linker_1, # of connection points: 2
#     Edge 107, Type (0, 0), BuildingBlock: KIFKEQ_clean_linker_1, # of connection points: 2
#     Edge 108, Type (0, 0), BuildingBlock: KIFKEQ_clean_linker_1, # of connection points: 2
#     Edge 109, Type (0, 0), BuildingBlock: KIFKEQ_clean_linker_1, # of connection points: 2
#     Edge 110, Type (0, 0), BuildingBlock: KIFKEQ_clean_linker_1, # of connection points: 2
#     Edge 111, Type (0, 0), BuildingBlock: KIFKEQ_clean_linker_1, # of connection points: 2
#     Edge 112, Type (0, 0), BuildingBlock: KIFKEQ_clean_linker_1, # of connection points: 2
#     Edge 113, Type (0, 0), BuildingBlock: KIFKEQ_clean_linker_1, # of connection points: 2
#     Edge 114, Type (0, 0), BuildingBlock: KIFKEQ_clean_linker_1, # of connection points: 2
#     Edge 115, Type (0, 0), BuildingBlock: KIFKEQ_clean_linker_1, # of connection points: 2
#     Edge 116, Type (0, 0), BuildingBlock: KIFKEQ_clean_linker_1, # of connection points: 2
#     Edge 117, Type (0, 0), BuildingBlock: KIFKEQ_clean_linker_1, # of connection points: 2
#     Edge 118, Type (0, 0), BuildingBlock: KIFKEQ_clean_linker_1, # of connection points: 2
#     Edge 119, Type (0, 0), BuildingBlock: KIFKEQ_clean_linker_1, # of connection points: 2
#     Edge 120, Type (0, 0), BuildingBlock: KIFKEQ_clean_linker_1, # of connection points: 2
#     Edge 121, Type (0, 0), BuildingBlock: KIFKEQ_clean_linker_1, # of connection points: 2
#     Edge 122, Type (0, 0), BuildingBlock: KIFKEQ_clean_linker_1, # of connection points: 2
#     Edge 123, Type (0, 0), BuildingBlock: KIFKEQ_clean_linker_1, # of connection points: 2
#     Edge 124, Type (0, 0), BuildingBlock: KIFKEQ_clean_linker_1, # of connection points: 2
#     Edge 125, Type (0, 0), BuildingBlock: KIFKEQ_clean_linker_1, # of connection points: 2
#     Edge 126, Type (0, 0), BuildingBlock: KIFKEQ_clean_linker_1, # of connection points: 2
#     Edge 127, Type (0, 0), BuildingBlock: KIFKEQ_clean_linker_1, # of connection points: 2
# Relax obj value: 0.276
# Max RMSD: 0.228
# Mean RMSD: 0.228
data_MOF--net-wim--node1-IZENUY_clean_sbu_0--edge1-KIFKEQ_clean_linker_1
_symmetry_space_group_name_H-M    P1
_symmetry_Int_Tables_number       1
_symmetry_cell_setting            triclinic
loop_
_symmetry_equiv_pos_as_xyz
'x, y, z'
_cell_length_a     73.131627
_cell_length_b     73.149224
_cell_length_c     29.535089
_cell_angle_alpha  89.966589
_cell_angle_beta   89.980758
_cell_angle_gamma 90.054445
loop_
_atom_site_label
_atom_site_type_symbol
_atom_site_fract_x
_atom_site_fract_y
_atom_site_fract_z
_atom_type_partial_charge
Fe0 Fe 0.03794 0.12997 0.25178 0.0
Fe1 Fe 0.01801 0.09677 0.29009 0.0
O2 O 0.03812 0.11015 0.28609 0.0
Fe3 Fe 0.0582 0.10363 0.31591 0.0
O4 O 0.05932 0.1253 0.34577 0.0
O5 O 0.05416 0.14284 0.28667 0.0
O6 O 0.01972 0.14028 0.28502 0.0
C7 C 1.00432 0.13287 0.29099 0.0
C8 C 0.07149 0.11576 0.23056 0.0
O9 O 1.00213 0.116 0.28306 0.0
C10 C 0.04584 0.06996 0.28897 0.0
O11 O 0.02172 0.12077 0.21034 0.0
O12 O 0.01825 0.09199 0.22965 0.0
O13 O 0.07411 0.11187 0.2719 0.0
O14 O 0.05603 0.12089 0.21652 0.0
C15 C 0.02921 0.09752 0.37828 0.0
O16 O 0.02984 0.07508 0.29877 0.0
O17 O 0.05884 0.08131 0.28819 0.0
C18 C 0.01776 0.10444 0.20008 0.0
O19 O 0.01669 0.1008 0.35007 0.0
O20 O 0.04557 0.09469 0.36548 0.0
C21 C 0.05945 0.14082 0.32713 0.0
Fe22 Fe 0.15365 0.80766 0.55431 0.0
Fe23 Fe 0.12505 0.78533 0.50235 0.0
O24 O 0.14614 0.78641 0.53156 0.0
Fe25 Fe 0.15962 0.76644 0.53832 0.0
O26 O 0.16752 0.77268 0.59577 0.0
O27 O 0.15301 0.79838 0.61088 0.0
O28 O 0.13045 0.81658 0.56472 0.0
C29 C 0.11532 0.8084 0.57012 0.0
C30 C 0.18681 0.79145 0.52393 0.0
O31 O 0.11251 0.79307 0.5519 0.0
C32 C 0.14696 0.76445 0.44735 0.0
O33 O 0.15436 0.81826 0.49873 0.0
O34 O 0.12692 0.80854 0.47933 0.0
O35 O 0.17904 0.777 0.51128 0.0
O36 O 0.17838 0.80292 0.54838 0.0
C37 C 0.12557 0.75158 0.55017 0.0
O38 O 0.1362 0.77778 0.45127 0.0
O39 O 0.15393 0.75687 0.48201 0.0
C40 C 0.14066 0.81878 0.47278 0.0
O41 O 0.11936 0.7618 0.51923 0.0
O42 O 0.14135 0.75404 0.56586 0.0
C43 C 0.16082 0.78395 0.62401 0.0
Fe44 Fe 0.49278 0.91208 0.78908 0.0
Fe45 Fe 0.45265 0.90372 0.8125 0.0
O46 O 0.47303 0.89831 0.78283 0.0
Fe47 Fe 0.47383 0.87916 0.74644 0.0
O48 O 0.49187 0.86863 0.77967 0.0
O49 O 0.50907 0.89323 0.78101 0.0
O50 O 0.49377 0.90711 0.84872 0.0
C51 C 0.48099 0.90966 0.87667 0.0
C52 C 0.49393 0.90587 0.69843 0.0
O53 O 0.46466 0.91221 0.8634 0.0
C54 C 0.44012 0.89258 0.72536 0.0
O55 O 0.48035 0.93337 0.79933 0.0
O56 O 0.45159 0.92643 0.78688 0.0
O57 O 0.4903 0.88931 0.70701 0.0
O58 O 0.49288 0.91784 0.72908 0.0
C59 C 0.45181 0.86639 0.81919 0.0
O60 O 0.4373 0.89585 0.76699 0.0
O61 O 0.4559 0.88855 0.71125 0.0
C62 C 0.46426 0.9381 0.78929 0.0
O63 O 0.45201 0.88144 0.84013 0.0
O64 O 0.4574 0.86544 0.77874 0.0
C65 C 0.50708 0.87621 0.78721 0.0
Fe66 Fe 0.38227 0.22391 -0.00214 0.0
Fe67 Fe 0.34862 0.24252 0.0375 0.0
O68 O 0.3626 0.22291 0.03243 0.0
Fe69 Fe 0.357 0.20248 0.06158 0.0
O70 O 0.37886 0.20229 0.09128 0.0
O71 O 0.39557 0.20745 0.03094 0.0
O72 O 0.39215 0.24183 0.03274 0.0
C73 C 0.38444 0.25702 0.03951 0.0
C74 C 0.36927 0.19023 0.97525 0.0
O75 O 0.36754 0.259 0.03125 0.0
C76 C 0.32288 0.21359 0.0354 0.0
O77 O 0.37268 0.24047 0.95778 0.0
O78 O 0.34381 0.24259 0.97713 0.0
O79 O 0.36575 0.18729 0.01673 0.0
O80 O 0.37345 0.20604 0.96153 0.0
C81 C 0.34955 0.23063 0.12508 0.0
O82 O 0.32728 0.22979 0.04556 0.0
O83 O 0.33472 0.20107 0.03401 0.0
C84 C 0.35621 0.24381 0.94761 0.0
O85 O 0.35256 0.24348 0.09759 0.0
O86 O 0.34754 0.21428 0.11154 0.0
C87 C 0.39418 0.20222 0.07159 0.0
Fe88 Fe 0.0565 0.90274 0.18175 0.0
Fe89 Fe 0.03521 0.87723 0.24567 0.0
O90 O 0.03603 0.89678 0.2105 0.0
Fe91 Fe 0.01617 0.91034 0.20448 0.0
O92 O 0.01558 0.90613 0.14447 0.0
O93 O 0.04473 0.91163 0.13104 0.0
O94 O 0.05746 0.88072 0.15287 0.0
C95 C 0.05766 0.86548 0.17297 0.0
C96 C 0.04444 0.93676 0.20701 0.0
O97 O 0.05197 0.86411 0.21324 0.0
C98 C 0.01459 0.90313 0.29467 0.0
O99 O 0.07165 0.89459 0.22733 0.0
O100 O 0.05285 0.88648 0.28211 0.0
O101 O 0.02844 0.93186 0.19641 0.0
O102 O 0.05726 0.92523 0.20854 0.0
C103 C 1.00231 0.87431 0.20278 0.0
O104 O 0.01835 0.8867 0.28514 0.0
O105 O 0.01566 0.9154 0.26477 0.0
C106 C 0.06865 0.8909 0.26869 0.0
O107 O 0.01751 0.86682 0.2109 0.0
O108 O 1.00006 0.89119 0.21053 0.0
C109 C 0.02848 0.90918 0.11714 0.0
Fe110 Fe 0.34924 0.76677 0.45553 0.0
Fe111 Fe 0.35592 0.80742 0.43531 0.0
O112 O 0.36227 0.78691 0.46313 0.0
Fe113 Fe 0.38166 0.78622 0.49858 0.0
O114 O 0.39253 0.76897 0.46316 0.0
O115 O 0.36856 0.75096 0.46291 0.0
O116 O 0.35448 0.76676 0.39599 0.0
C117 C 0.35153 0.77984 0.36914 0.0
C118 C 0.35565 0.76487 0.54576 0.0
O119 O 0.34763 0.7957 0.38375 0.0
C120 C 0.36725 0.81918 0.52301 0.0
O121 O 0.32749 0.77855 0.4459 0.0
O122 O 0.33333 0.80724 0.46172 0.0
O123 O 0.37212 0.76897 0.53704 0.0
O124 O 0.34353 0.76587 0.51542 0.0
C125 C 0.39318 0.80971 0.42749 0.0
O126 O 0.36347 0.82243 0.48182 0.0
O127 O 0.372 0.80339 0.53562 0.0
C128 C 0.32213 0.79422 0.45798 0.0
O129 O 0.37801 0.80932 0.40708 0.0
O130 O 0.39463 0.80348 0.46724 0.0
C131 C 0.38544 0.75353 0.45574 0.0
Fe132 Fe 0.49204 0.09908 0.70058 0.0
Fe133 Fe 0.45086 0.10508 0.68323 0.0
O134 O 0.47217 0.11288 0.70506 0.0
Fe135 Fe 0.47342 0.13458 0.73138 0.0
O136 O 0.49698 0.13961 0.71393 0.0
O137 O 0.50471 0.11657 0.67045 0.0
O138 O 0.4858 0.08978 0.64463 0.0
C139 C 0.47441 0.09539 0.61532 0.0
C140 C 0.49425 0.11404 0.78921 0.0
O141 O 0.46019 0.10397 0.62684 0.0
C142 C 0.43992 0.12002 0.76298 0.0
O143 O 0.48122 0.08045 0.73042 0.0
O144 O 0.45529 0.08054 0.69324 0.0
O145 O 0.48085 0.12459 0.78378 0.0
O146 O 0.50163 0.10602 0.75581 0.0
C147 C 0.45058 0.14313 0.66218 0.0
O148 O 0.44016 0.10587 0.73864 0.0
O149 O 0.45021 0.13352 0.75453 0.0
C150 C 0.46664 0.07259 0.71894 0.0
O151 O 0.44229 0.12811 0.66881 0.0
O152 O 0.46588 0.14604 0.68038 0.0
C153 C 0.50723 0.13268 0.68405 0.0
Fe154 Fe 0.1613 0.23969 0.95776 0.0
Fe155 Fe 0.155 0.19894 0.93634 0.0
O156 O 0.14764 0.21976 0.96132 0.0
Fe157 Fe 0.12641 0.22064 0.98993 0.0
O158 O 0.12168 0.24481 0.97762 0.0
O159 O 0.14332 0.25254 0.93023 0.0
O160 O 0.16997 0.23466 0.9007 0.0
C161 C 0.16367 0.22412 0.87043 0.0
C162 C 0.14837 0.23959 0.04816 0.0
O163 O 0.15572 0.20941 0.88085 0.0
C164 C 0.13986 0.18557 0.01351 0.0
O165 O 0.18031 0.22852 0.98481 0.0
O166 O 0.17969 0.20295 0.94591 0.0
O167 O 0.13765 0.22625 0.04259 0.0
O168 O 0.15497 0.24811 0.01445 0.0
C169 C 0.11671 0.19999 0.91747 0.0
O170 O 0.15438 0.18688 0.99054 0.0
O171 O 0.12691 0.19677 0.00792 0.0
C172 C 0.18798 0.21408 0.97171 0.0
O173 O 0.13166 0.19129 0.92181 0.0
O174 O 0.11411 0.21477 0.93864 0.0
C175 C 0.12772 0.2552 0.94685 0.0
Fe176 Fe 0.94879 0.90464 0.68228 0.0
Fe177 Fe 0.98952 0.91188 0.70229 0.0
O178 O 0.97002 0.89744 0.70572 0.0
Fe179 Fe 0.9715 0.87582 0.73236 0.0
O180 O 0.96442 0.86406 0.68136 0.0
O181 O 0.94063 0.88145 0.66864 0.0
O182 O 0.95874 0.90544 0.62648 0.0
C183 C 0.97286 0.91437 0.61563 0.0
C184 C 0.9375 0.88998 0.7623 0.0
O185 O 0.98354 0.92079 0.64565 0.0
C186 C 0.9916 0.89691 0.79093 0.0
O187 O 0.95276 0.92928 0.69084 0.0
O188 O 0.97778 0.93024 0.73145 0.0
O189 O 0.94814 0.87664 0.75494 0.0
O190 O 0.93762 0.90399 0.73726 0.0
C191 C 0.00547 0.8785 0.68603 0.0
O192 O 0.99885 0.90531 0.75793 0.0
O193 O 0.97855 0.88595 0.78497 0.0
C194 C 0.96324 0.93761 0.71796 0.0
O195 O 1.00302 0.89475 0.67325 0.0
O196 O 0.99515 0.87117 0.71522 0.0
C197 C 0.94925 0.86666 0.66234 0.0
Fe198 Fe 0.88544 0.22154 0.48041 0.0
Fe199 Fe 0.85638 0.19995 0.42804 0.0
O200 O 0.86377 0.22052 0.45405 0.0
Fe201 Fe 0.84955 0.24006 0.45411 0.0
O202 O 0.86656 0.25353 0.4244 0.0
O203 O 0.88937 0.24599 0.46874 0.0
O204 O 0.89697 0.21657 0.42768 0.0
C205 C 0.89437 0.20208 0.40543 0.0
C206 C 0.8645 0.23959 0.5422 0.0
O207 O 0.87964 0.193 0.41018 0.0
C208 C 0.82403 0.21346 0.46995 0.0
O209 O 0.88573 0.19739 0.49697 0.0
O210 O 0.85812 0.18735 0.48116 0.0
O211 O 0.85721 0.24834 0.50988 0.0
O212 O 0.87503 0.22631 0.53464 0.0
C213 C 0.84513 0.22546 0.36618 0.0
O214 O 0.83183 0.20336 0.44085 0.0
O215 O 0.83161 0.22791 0.48369 0.0
C216 C 0.87283 0.18615 0.50326 0.0
O217 O 0.85429 0.21117 0.37365 0.0
O218 O 0.83939 0.23529 0.39849 0.0
C219 C 0.88255 0.2563 0.43872 0.0
Fe220 Fe 0.55616 0.10586 0.18282 0.0
Fe221 Fe 0.51555 0.09848 0.20297 0.0
O222 O 0.53544 0.11194 0.21036 0.0
Fe223 Fe 0.5344 0.13144 0.24571 0.0
O224 O 0.55146 0.1446 0.21415 0.0
O225 O 0.55766 0.12796 0.15425 0.0
O226 O 0.5448 0.09718 0.13129 0.0
C227 C 0.52872 0.09985 0.11642 0.0
C228 C 0.56763 0.11769 0.27042 0.0
O229 O 0.51558 0.10289 0.14301 0.0
C230 C 0.51326 0.10543 0.29315 0.0
O231 O 0.55643 0.08324 0.2094 0.0
O232 O 0.5277 0.07695 0.19531 0.0
O233 O 0.55173 0.12213 0.28293 0.0
O234 O 0.57095 0.11382 0.22933 0.0
C235 C 0.50183 0.13451 0.20143 0.0
O236 O 0.51446 0.09326 0.2631 0.0
O237 O 0.51723 0.12188 0.28422 0.0
C238 C 0.54345 0.07187 0.2074 0.0
O239 O 0.49949 0.1176 0.20839 0.0
O240 O 0.51695 0.14201 0.21047 0.0
C241 C 0.55771 0.14319 0.17438 0.0
Fe242 Fe 0.62437 0.78734 0.98036 0.0
Fe243 Fe 0.65374 0.80895 0.92926 0.0
O244 O 0.64631 0.78836 0.95525 0.0
Fe245 Fe 0.66078 0.76895 0.95635 0.0
O246 O 0.64409 0.75488 0.92709 0.0
O247 O 0.6205 0.76302 0.96832 0.0
O248 O 0.61333 0.79233 0.92702 0.0
C249 C 0.61605 0.80687 0.90509 0.0
C250 C 0.6448 0.76934 0.04368 0.0
O251 O 0.63064 0.81601 0.91093 0.0
C252 C 0.68615 0.79574 0.97114 0.0
O253 O 0.62407 0.81148 -0.00286 0.0
O254 O 0.65181 0.82149 0.98232 0.0
O255 O 0.65306 0.76099 0.01216 0.0
O256 O 0.63408 0.78237 0.03519 0.0
C257 C 0.66538 0.78348 0.86815 0.0
O258 O 0.67818 0.80564 0.94202 0.0
O259 O 0.67862 0.78142 0.98582 0.0
C260 C 0.637 0.82264 0.00404 0.0
O261 O 0.65604 0.79769 0.8752 0.0
O262 O 0.67093 0.77357 0.90058 0.0
C263 C 0.62785 0.75234 0.94001 0.0
Fe264 Fe 0.98945 0.09819 0.79246 0.0
Fe265 Fe 0.97136 0.13393 0.76206 0.0
O266 O 0.97001 0.11259 0.79007 0.0
Fe267 Fe 0.94915 0.10577 0.81559 0.0
O268 O 0.95982 0.10463 0.87051 0.0
O269 O 0.98423 0.08922 0.84943 0.0
O270 O 1.00301 0.11558 0.8205 0.0
C271 C 0.00584 0.13141 0.80516 0.0
C272 C 0.96282 0.07257 0.7787 0.0
O273 O 0.99562 0.13796 0.77467 0.0
C274 C 0.93621 0.12101 0.73807 0.0
O275 O 0.99802 0.1047 0.73598 0.0
O276 O 0.97672 0.12293 0.70903 0.0
O277 O 0.95252 0.08105 0.80606 0.0
O278 O 0.97739 0.07975 0.76454 0.0
C279 C 0.95138 0.14382 0.83555 0.0
O280 O 0.94736 0.13401 0.74408 0.0
O281 O 0.9371 0.10665 0.76162 0.0
C282 C 0.98989 0.11212 0.70277 0.0
O283 O 0.96598 0.14616 0.81357 0.0
O284 O 0.94209 0.12925 0.8307 0.0
C285 C 0.97392 0.09554 0.88024 0.0
Fe286 Fe 0.65504 0.20259 0.55849 0.0
Fe287 Fe 0.66162 0.24324 0.53746 0.0
O288 O 0.64845 0.22309 0.53052 0.0
Fe289 Fe 0.62878 0.2238 0.49584 0.0
O290 O 0.61567 0.20733 0.52931 0.0
O291 O 0.63319 0.20063 0.58761 0.0
O292 O 0.66362 0.21451 0.60947 0.0
C293 C 0.65951 0.23034 0.62395 0.0
C294 C 0.64252 0.19035 0.47216 0.0
O295 O 0.65654 0.24338 0.59702 0.0
C296 C 0.65511 0.24406 0.44698 0.0
O297 O 0.67751 0.20272 0.53123 0.0
O298 O 0.6833 0.2314 0.54668 0.0
O299 O 0.63768 0.20607 0.45938 0.0
O300 O 0.64711 0.18735 0.5129 0.0
C301 C 0.62574 0.25689 0.53806 0.0
O302 O 0.66712 0.244 0.47766 0.0
O303 O 0.63856 0.24026 0.45576 0.0
C304 C 0.68869 0.21585 0.53389 0.0
O305 O 0.64256 0.25918 0.53013 0.0
O306 O 0.61836 0.24163 0.53029 0.0
C307 C 0.61768 0.20102 0.56887 0.0
Fe308 Fe 0.55972 0.90432 0.31359 0.0
Fe309 Fe 0.51927 0.91182 0.29168 0.0
O310 O 0.53858 0.89726 0.28991 0.0
Fe311 Fe 0.53682 0.87549 0.26418 0.0
O312 O 0.5423 0.8641 0.31682 0.0
O313 O 0.56652 0.88101 0.33113 0.0
O314 O 0.54954 0.90665 0.36883 0.0
C315 C 0.53555 0.91592 0.37836 0.0
C316 C 0.57201 0.88746 0.23761 0.0
O317 O 0.52489 0.92163 0.34753 0.0
C318 C 0.51832 0.89656 0.20331 0.0
O319 O 0.55663 0.9289 0.30118 0.0
O320 O 0.53126 0.9297 0.26155 0.0
O321 O 0.56075 0.87473 0.24559 0.0
O322 O 0.57132 0.9023 0.25925 0.0
C323 C 0.50252 0.87908 0.30775 0.0
O324 O 0.51036 0.90453 0.23603 0.0
O325 O 0.53141 0.8857 0.21028 0.0
C326 C 0.5461 0.93695 0.27355 0.0
O327 O 0.50577 0.89497 0.32199 0.0
O328 O 0.51251 0.87198 0.27757 0.0
C329 C 0.55712 0.86661 0.33781 0.0
Fe330 Fe 0.84719 0.76832 0.03624 0.0
Fe331 Fe 0.88212 0.78664 0.00089 0.0
O332 O 0.86155 0.78778 0.03238 0.0
Fe333 Fe 0.85532 0.80841 0.06012 0.0
O334 O 0.85585 0.7972 0.11462 0.0
O335 O 0.83965 0.77321 0.09449 0.0
O336 O 0.86513 0.75467 0.06128 0.0
C337 C 0.88063 0.75193 0.04403 0.0
C338 C 0.82137 0.79496 0.02725 0.0
O339 O 0.88672 0.76237 0.01327 0.0
C340 C 0.86801 0.82165 0.9797 0.0
O341 O 0.85228 0.75987 0.97887 0.0
O342 O 0.86984 0.7812 0.94957 0.0
O343 O 0.83039 0.80489 0.05446 0.0
O344 O 0.82822 0.78056 0.01132 0.0
C345 C 0.89382 0.80667 0.07315 0.0
O346 O 0.88122 0.81054 0.9826 0.0
O347 O 0.85473 0.82102 0.007 0.0
C348 C 0.85879 0.76813 0.94474 0.0
O349 O 0.89582 0.79227 0.05018 0.0
O350 O 0.87901 0.81565 0.07133 0.0
C351 C 0.84719 0.78288 0.12485 0.0
Fe352 Fe 0.5359 0.63151 0.75059 0.0
Fe353 Fe 0.51782 0.59743 0.78998 0.0
O354 O 0.53743 0.61145 0.78384 0.0
Fe355 Fe 0.55834 0.60532 0.81039 0.0
O356 O 0.55972 0.62685 0.84092 0.0
O357 O 0.55256 0.64462 0.78359 0.0
O358 O 0.51825 0.64099 0.78693 0.0
C359 C 0.50319 0.63316 0.79456 0.0
C360 C 0.56933 0.61864 0.72388 0.0
O361 O 0.50125 0.61628 0.78616 0.0
C362 C 0.54637 0.57148 0.78412 0.0
O363 O 0.519 0.62213 0.71107 0.0
O364 O 0.51688 0.59311 0.72937 0.0
O365 O 0.57288 0.61417 0.76444 0.0
O366 O 0.5534 0.62335 0.71231 0.0
C367 C 0.53101 0.5978 0.87647 0.0
O368 O 0.53043 0.57598 0.79609 0.0
O369 O 0.55894 0.58323 0.7817 0.0
C370 C 0.51545 0.60574 0.70047 0.0
O371 O 0.51778 0.60094 0.85022 0.0
O372 O 0.54717 0.59575 0.86138 0.0
C373 C 0.5591 0.64247 0.82285 0.0
Fe374 Fe 0.65556 0.30819 0.06 0.0
Fe375 Fe 0.62632 0.28649 0.00816 0.0
O376 O 0.64772 0.28734 0.03596 0.0
Fe377 Fe 0.66123 0.26729 0.03951 0.0
O378 O 0.67092 0.27292 0.09499 0.0
O379 O 0.65662 0.29798 0.11579 0.0
O380 O 0.63246 0.31641 0.07503 0.0
C381 C 0.61726 0.30817 0.07951 0.0
C382 C 0.68789 0.29256 0.02237 0.0
O383 O 0.61429 0.2933 0.05907 0.0
C384 C 0.64742 0.26639 0.95056 0.0
O385 O 0.65488 0.3199 0.00577 0.0
O386 O 0.6274 0.31007 0.98743 0.0
O387 O 0.67993 0.27812 0.00996 0.0
O388 O 0.68008 0.30368 0.04912 0.0
C389 C 0.62754 0.25247 0.05456 0.0
O390 O 0.63713 0.28 0.95576 0.0
O391 O 0.654 0.25801 0.98432 0.0
C392 C 0.64084 0.32067 0.98109 0.0
O393 O 0.62123 0.26252 0.0233 0.0
O394 O 0.64344 0.25505 0.06959 0.0
C395 C 0.66522 0.28358 0.12561 0.0
Fe396 Fe 0.99478 0.40949 0.28748 0.0
Fe397 Fe 0.95467 0.40246 0.31335 0.0
O398 O 0.97442 0.39657 0.28171 0.0
Fe399 Fe 0.97401 0.37779 0.24416 0.0
O400 O 0.99219 0.36629 0.2752 0.0
O401 O 0.01021 0.39025 0.27673 0.0
O402 O 0.99623 0.40375 0.3467 0.0
C403 C 0.98385 0.40658 0.37556 0.0
C404 C 0.99393 0.40454 0.19622 0.0
O405 O 0.96761 0.41026 0.36335 0.0
C406 C 0.94047 0.39243 0.22716 0.0
O407 O 0.98318 0.43107 0.2997 0.0
O408 O 0.95409 0.42536 0.2886 0.0
O409 O 0.99004 0.38793 0.20361 0.0
O410 O 0.99448 0.41594 0.22818 0.0
C411 C 0.95267 0.36516 0.31841 0.0
O412 O 0.9384 0.39526 0.26919 0.0
O413 O 0.95585 0.3881 0.21117 0.0
C414 C 0.96728 0.43651 0.28978 0.0
O415 O 0.9537 0.38001 0.34008 0.0
O416 O 0.95768 0.36432 0.27744 0.0
C417 C 0.00767 0.37331 0.28275 0.0
Fe418 Fe 0.85538 0.6994 0.56061 0.0
Fe419 Fe 0.88349 0.72131 0.50572 0.0
O420 O 0.86226 0.72009 0.53425 0.0
Fe421 Fe 0.84797 0.73956 0.53617 0.0
O422 O 0.83889 0.73462 0.59303 0.0
O423 O 0.85423 0.71039 0.61523 0.0
O424 O 0.87887 0.69256 0.57608 0.0
C425 C 0.8935 0.70184 0.58005 0.0
C426 C 0.8225 0.71278 0.52186 0.0
O427 O 0.89587 0.71623 0.5572 0.0
C428 C 0.86143 0.73947 0.4463 0.0
O429 O 0.85632 0.68695 0.50728 0.0
O430 O 0.88359 0.69721 0.48881 0.0
O431 O 0.82966 0.72744 0.50831 0.0
O432 O 0.83065 0.70268 0.55035 0.0
C433 C 0.88112 0.75592 0.54822 0.0
O434 O 0.87224 0.72628 0.45253 0.0
O435 O 0.85456 0.74796 0.47965 0.0
C436 C 0.87071 0.68584 0.4839 0.0
O437 O 0.88752 0.74569 0.51749 0.0
O438 O 0.86539 0.75306 0.56405 0.0
C439 C 0.84539 0.72469 0.62433 0.0
Fe440 Fe 0.55954 0.4031 0.68654 0.0
Fe441 Fe 0.53705 0.37564 0.74226 0.0
O442 O 0.53843 0.39633 0.71131 0.0
Fe443 Fe 0.51869 0.41012 0.70496 0.0
O444 O 0.52457 0.41794 0.6473 0.0
O445 O 0.54956 0.40266 0.63071 0.0
O446 O 0.56727 0.37953 0.67522 0.0
C447 C 0.55841 0.36464 0.67182 0.0
C448 C 0.54438 0.43673 0.71782 0.0
O449 O 0.54369 0.36231 0.69332 0.0
C450 C 0.51726 0.39849 0.7966 0.0
O451 O 0.57104 0.40361 0.74106 0.0
O452 O 0.5606 0.37679 0.7631 0.0
O453 O 0.52981 0.42934 0.7311 0.0
O454 O 0.55556 0.428 0.69301 0.0
C455 C 0.5032 0.3764 0.69541 0.0
O456 O 0.53059 0.38772 0.79294 0.0
O457 O 0.50932 0.40477 0.76167 0.0
C458 C 0.5714 0.39018 0.76786 0.0
O459 O 0.51309 0.37063 0.72755 0.0
O460 O 0.50608 0.39187 0.67822 0.0
C461 C 0.53527 0.41087 0.61842 0.0
Fe462 Fe 0.88149 0.28709 -0.00121 0.0
Fe463 Fe 0.84904 0.26722 0.95618 0.0
O464 O 0.86249 0.28726 0.96192 0.0
Fe465 Fe 0.8568 0.30719 0.93066 0.0
O466 O 0.87904 0.30795 0.90325 0.0
O467 O 0.89542 0.3027 0.96444 0.0
O468 O 0.89221 0.26838 0.96796 0.0
C469 C 0.8847 0.2531 0.96127 0.0
C470 C 0.86788 0.32114 0.01622 0.0
O471 O 0.86771 0.2512 0.96748 0.0
C472 C 0.82264 0.29526 0.9536 0.0
O473 O 0.87078 0.27164 0.03991 0.0
O474 O 0.84257 0.26774 0.0155 0.0
O475 O 0.86455 0.3233 0.97449 0.0
O476 O 0.87214 0.3057 0.03189 0.0
C477 C 0.85256 0.27819 0.86844 0.0
O478 O 0.82773 0.2793 0.94322 0.0
O479 O 0.8341 0.30811 0.95633 0.0
C480 C 0.85407 0.26811 0.04738 0.0
O481 O 0.85508 0.2657 0.89719 0.0
O482 O 0.84854 0.29435 0.8807 0.0
C483 C 0.89419 0.30808 0.92379 0.0
Fe484 Fe 0.98892 0.59745 0.20081 0.0
Fe485 Fe 0.94809 0.60311 0.17971 0.0
O486 O 0.96894 0.61107 0.20319 0.0
Fe487 Fe 0.96971 0.63276 0.22939 0.0
O488 O 0.99378 0.6375 0.21542 0.0
O489 O 1.00152 0.61496 0.17055 0.0
O490 O 0.98352 0.58753 0.14497 0.0
C491 C 0.97267 0.59306 0.11435 0.0
C492 C 0.98921 0.61213 0.28938 0.0
O493 O 0.95826 0.60161 0.12428 0.0
C494 C 0.93523 0.61897 0.25629 0.0
O495 O 0.97785 0.579 0.23097 0.0
O496 O 0.95245 0.57867 0.19138 0.0
O497 O 0.9757 0.62249 0.28296 0.0
O498 O 0.99774 0.60505 0.25631 0.0
C499 C 0.94866 0.64102 0.15669 0.0
O500 O 0.93654 0.60428 0.23425 0.0
O501 O 0.94585 0.63226 0.24848 0.0
C502 C 0.9633 0.57113 0.21915 0.0
O503 O 0.94003 0.62614 0.16319 0.0
O504 O 0.96351 0.64407 0.17708 0.0
C505 C 1.004 0.63099 0.18482 0.0
Fe506 Fe 0.66137 0.74429 0.45803 0.0
Fe507 Fe 0.65372 0.70416 0.43368 0.0
O508 O 0.64801 0.72423 0.46425 0.0
Fe509 Fe 0.62903 0.72447 0.50128 0.0
O510 O 0.61809 0.74277 0.46948 0.0
O511 O 0.64246 0.76021 0.46813 0.0
O512 O 0.65578 0.74554 0.39884 0.0
C513 C 0.65846 0.73296 0.37047 0.0
C514 C 0.65614 0.74381 0.54907 0.0
O515 O 0.66176 0.71669 0.38318 0.0
C516 C 0.64299 0.69074 0.52033 0.0
O517 O 0.68273 0.73227 0.44626 0.0
O518 O 0.67654 0.7034 0.45871 0.0
O519 O 0.63944 0.74044 0.54145 0.0
O520 O 0.66766 0.74406 0.51733 0.0
C521 C 0.61637 0.70275 0.4278 0.0
O522 O 0.64628 0.68828 0.4786 0.0
O523 O 0.63871 0.70632 0.53516 0.0
C524 C 0.68792 0.71636 0.45678 0.0
O525 O 0.63136 0.70325 0.40664 0.0
O526 O 0.61533 0.70827 0.46831 0.0
C527 C 0.62547 0.75809 0.46213 0.0
Fe528 Fe 0.45076 0.40436 0.18521 0.0
Fe529 Fe 0.49132 0.41169 0.20619 0.0
O530 O 0.47176 0.39746 0.21042 0.0
Fe531 Fe 0.47303 0.37629 0.23938 0.0
O532 O 0.46633 0.36371 0.18902 0.0
O533 O 0.44267 0.381 0.17353 0.0
O534 O 0.46107 0.40424 0.12958 0.0
C535 C 0.47538 0.41282 0.11861 0.0
C536 C 0.43877 0.39093 0.26591 0.0
O537 O 0.48576 0.41974 0.14858 0.0
C538 C 0.49274 0.39832 0.29657 0.0
O539 O 0.45476 0.42916 0.19168 0.0
O540 O 0.47956 0.43055 0.23312 0.0
O541 O 0.44947 0.37748 0.26044 0.0
O542 O 0.43917 0.40458 0.23969 0.0
C543 C 0.50733 0.37806 0.19423 0.0
O544 O 0.50021 0.40605 0.26285 0.0
O545 O 0.47971 0.38724 0.29152 0.0
C546 C 0.46512 0.43779 0.21857 0.0
O547 O 0.50475 0.39397 0.17917 0.0
O548 O 0.49689 0.37142 0.22422 0.0
C549 C 0.45134 0.36613 0.16887 0.0
Fe550 Fe 0.34868 0.74172 0.95249 0.0
Fe551 Fe 0.38359 0.72347 0.98727 0.0
O552 O 0.36254 0.72197 0.95799 0.0
Fe553 Fe 0.35545 0.70079 0.93452 0.0
O554 O 0.35466 0.7105 0.87843 0.0
O555 O 0.33977 0.73559 0.89622 0.0
O556 O 0.36662 0.7541 0.92332 0.0
C557 C 0.38225 0.75712 0.93959 0.0
C558 C 0.32236 0.71597 0.96921 0.0
O559 O 0.38824 0.74749 0.97199 0.0
C560 C 0.36978 0.68905 0.01448 0.0
O561 O 0.35503 0.75141 0.00809 0.0
O562 O 0.37196 0.72985 0.03859 0.0
O563 O 0.33073 0.70475 0.9438 0.0
O564 O 0.32982 0.73074 0.98105 0.0
C565 C 0.39386 0.70191 0.9167 0.0
O566 O 0.38299 0.69994 0.0084 0.0
O567 O 0.35591 0.68943 0.98922 0.0
C568 C 0.36133 0.74327 0.04261 0.0
O569 O 0.39634 0.7168 0.93743 0.0
O570 O 0.37891 0.69316 0.92081 0.0
C571 C 0.34581 0.7245 0.86687 0.0
Fe572 Fe 0.05587 0.60465 0.67965 0.0
Fe573 Fe 0.01556 0.59815 0.70411 0.0
O574 O 0.0358 0.61123 0.7094 0.0
Fe575 Fe 0.03564 0.63079 0.74443 0.0
O576 O 0.05193 0.64384 0.71009 0.0
O577 O 0.05739 0.62654 0.65069 0.0
O578 O 0.04323 0.5962 0.6295 0.0
C579 C 0.02718 0.60027 0.61638 0.0
C580 C 0.06919 0.61664 0.76545 0.0
O581 O 0.01454 0.60325 0.64449 0.0
C582 C 0.01532 0.60474 0.79454 0.0
O583 O 0.05608 0.58214 0.70659 0.0
O584 O 0.02716 0.57646 0.69384 0.0
O585 O 0.05366 0.62152 0.77953 0.0
O586 O 0.07172 0.61245 0.72422 0.0
C587 C 1.00216 0.63417 0.70487 0.0
O588 O 0.01566 0.59262 0.76413 0.0
O589 O 0.01934 0.6212 0.78536 0.0
C590 C 0.04289 0.57101 0.70509 0.0
O591 O 0.99984 0.61734 0.71268 0.0
O592 O 0.01757 0.64144 0.71134 0.0
C593 C 0.05743 0.64198 0.66974 0.0
Fe594 Fe 0.12471 0.28508 0.49026 0.0
Fe595 Fe 0.15239 0.30692 0.43395 0.0
O596 O 0.14578 0.28624 0.46084 0.0
Fe597 Fe 0.16024 0.26684 0.45848 0.0
O598 O 0.1427 0.25299 0.43222 0.0
O599 O 0.12046 0.26077 0.47824 0.0
O600 O 0.11189 0.29034 0.43937 0.0
C601 C 0.1142 0.30471 0.41642 0.0
C602 C 0.14729 0.26688 0.54894 0.0
O603 O 0.12884 0.31395 0.42018 0.0
C604 C 0.1859 0.29364 0.46955 0.0
O605 O 0.12497 0.30916 0.50754 0.0
O606 O 0.15211 0.31933 0.48738 0.0
O607 O 0.15432 0.2586 0.5155 0.0
O608 O 0.13625 0.27991 0.543 0.0
C609 C 0.16168 0.28159 0.36986 0.0
O610 O 0.17718 0.30359 0.44191 0.0
O611 O 0.1789 0.27917 0.48481 0.0
C612 C 0.13801 0.32041 0.51187 0.0
O613 O 0.15285 0.29586 0.37942 0.0
O614 O 0.16855 0.27168 0.40077 0.0
C615 C 0.12696 0.2503 0.44816 0.0
Fe616 Fe 0.45157 0.6064 0.31019 0.0
Fe617 Fe 0.49224 0.59876 0.29139 0.0
O618 O 0.47286 0.61316 0.28653 0.0
Fe619 Fe 0.47468 0.6344 0.25822 0.0
O620 O 0.46795 0.6469 0.30861 0.0
O621 O 0.44389 0.62986 0.32278 0.0
O622 O 0.46137 0.60587 0.3662 0.0
C623 C 0.47528 0.59679 0.37764 0.0
C624 C 0.44041 0.6206 0.22965 0.0
O625 O 0.48598 0.59014 0.34806 0.0
C626 C 0.49446 0.61244 0.20159 0.0
O627 O 0.45528 0.58163 0.30241 0.0
O628 O 0.48061 0.58018 0.26276 0.0
O629 O 0.45124 0.63385 0.23634 0.0
O630 O 0.44042 0.60676 0.25523 0.0
C631 C 0.50839 0.63208 0.3053 0.0
O632 O 0.5019 0.6049 0.23562 0.0
O633 O 0.48131 0.62335 0.20642 0.0
C634 C 0.46587 0.57305 0.27594 0.0
O635 O 0.50535 0.61625 0.32036 0.0
O636 O 0.49858 0.63873 0.27412 0.0
C637 C 0.4528 0.64459 0.32821 0.0
Fe638 Fe 0.15295 0.70004 0.05498 0.0
Fe639 Fe 0.15995 0.74093 0.03736 0.0
O640 O 0.14595 0.72131 0.03131 0.0
Fe641 Fe 0.12487 0.72289 0.00201 0.0
O642 O 0.11214 0.7156 0.05157 0.0
O643 O 0.12954 0.69191 0.06655 0.0
O644 O 0.15293 0.70964 0.11149 0.0
C645 C 0.16131 0.72391 0.12357 0.0
C646 C 0.13945 0.68889 0.97357 0.0
O647 O 0.16809 0.73471 0.09438 0.0
C648 C 0.14695 0.74331 0.94679 0.0
O649 O 0.17779 0.70416 0.04793 0.0
O650 O 0.17888 0.72983 0.00973 0.0
O651 O 0.12606 0.69959 0.97952 0.0
O652 O 0.15308 0.68903 -0.00018 0.0
C653 C 0.12631 0.75652 0.04986 0.0
O654 O 0.15429 0.75057 0.98131 0.0
O655 O 0.13603 0.7301 0.95063 0.0
C656 C 0.18635 0.71524 0.02253 0.0
O657 O 0.14203 0.75362 0.06551 0.0
O658 O 0.11992 0.74665 0.01845 0.0
C659 C 0.11453 0.70041 0.07092 0.0
Fe660 Fe 0.06046 0.40449 0.81513 0.0
Fe661 Fe 0.02005 0.41015 0.78958 0.0
O662 O 0.03986 0.39626 0.79058 0.0
Fe663 Fe 0.03924 0.37407 0.76692 0.0
O664 O 0.04489 0.36379 0.82082 0.0
O665 O 0.06833 0.38175 0.83416 0.0
O666 O 0.04951 0.4069 0.86966 0.0
C667 C 0.03497 0.4157 0.87699 0.0
C668 C 0.07408 0.3874 0.74086 0.0
O669 O 0.02477 0.42085 0.84467 0.0
C670 C 0.02035 0.39344 0.70303 0.0
O671 O 0.05641 0.42875 0.80117 0.0
O672 O 0.03186 0.42797 0.75864 0.0
O673 O 0.06327 0.37428 0.74905 0.0
O674 O 0.07266 0.40242 0.76157 0.0
C675 C 1.00439 0.37699 0.80842 0.0
O676 O 0.01197 0.40177 0.73441 0.0
O677 O 0.03365 0.38306 0.71168 0.0
C678 C 0.04612 0.43603 0.77176 0.0
O679 O 0.00658 0.39338 0.82029 0.0
O680 O 0.01512 0.36963 0.78024 0.0
C681 C 0.05966 0.36697 0.84134 0.0
Fe682 Fe 0.347 0.26968 0.53982 0.0
Fe683 Fe 0.38247 0.28805 0.50798 0.0
O684 O 0.3612 0.28929 0.53624 0.0
Fe685 Fe 0.3542 0.31027 0.56103 0.0
O686 O 0.35367 0.29993 0.61638 0.0
O687 O 0.33832 0.27522 0.59686 0.0
O688 O 0.3646 0.25639 0.56788 0.0
C689 C 0.38046 0.2537 0.55262 0.0
C690 C 0.32104 0.2959 0.52584 0.0
O691 O 0.38704 0.26405 0.52238 0.0
C692 C 0.36843 0.32244 0.4814 0.0
O693 O 0.35328 0.26075 0.48351 0.0
O694 O 0.37153 0.28188 0.45571 0.0
O695 O 0.32949 0.30637 0.55283 0.0
O696 O 0.32833 0.28138 0.5119 0.0
C697 C 0.39234 0.30921 0.57946 0.0
O698 O 0.38177 0.31172 0.48767 0.0
O699 O 0.35452 0.32198 0.50671 0.0
C700 C 0.36077 0.26864 0.45004 0.0
O701 O 0.3948 0.29433 0.55884 0.0
O702 O 0.37756 0.31805 0.57439 0.0
C703 C 0.34478 0.28578 0.62701 0.0
H704 H 0.07554 0.05285 0.24901 0.0
H705 H 0.02294 0.04215 0.31042 0.0
H706 H 0.07792 0.02028 0.22836 0.0
H707 H 0.0254 0.0102 0.2902 0.0
H708 H 0.02122 0.9648 0.18992 0.0
H709 H 0.02441 0.99665 0.2105 0.0
H710 H 0.07812 0.98601 0.26481 0.0
H711 H 0.07501 0.95354 0.24384 0.0
C712 C 0.06467 0.04358 0.25867 0.0
C713 C 0.04891 0.05018 0.28066 0.0
C714 C 0.06605 0.02498 0.24695 0.0
C715 C 0.05169 0.01282 0.25703 0.0
C716 C 0.03651 0.01932 0.28119 0.0
C717 C 0.03513 0.03769 0.29277 0.0
C718 C 0.03382 0.96911 0.20599 0.0
C719 C 0.04775 0.95648 0.21584 0.0
C720 C 0.03562 0.98742 0.21781 0.0
C721 C 0.05138 0.99374 0.23991 0.0
C722 C 0.06581 0.98145 0.24783 0.0
C723 C 0.064 0.96291 0.23595 0.0
H724 H 0.20829 0.8224 0.53184 0.0
H725 H 0.21023 0.76552 0.4929 0.0
H726 H 0.24085 0.82548 0.51312 0.0
H727 H 0.24241 0.76831 0.47631 0.0
H728 H 0.29492 0.77882 0.40925 0.0
H729 H 0.26223 0.78048 0.42259 0.0
H730 H 0.27155 0.8172 0.53493 0.0
H731 H 0.30453 0.81622 0.51957 0.0
C732 C 0.21565 0.81057 0.5195 0.0
C733 C 0.20656 0.79377 0.51346 0.0
C734 C 0.23433 0.81229 0.50897 0.0
C735 C 0.24431 0.79722 0.49249 0.0
C736 C 0.23518 0.78041 0.48747 0.0
C737 C 0.21663 0.77876 0.49739 0.0
C738 C 0.28997 0.78743 0.43647 0.0
C739 C 0.30226 0.79723 0.46369 0.0
C740 C 0.2712 0.78828 0.44444 0.0
C741 C 0.26416 0.79859 0.48068 0.0
C742 C 0.27642 0.80914 0.50669 0.0
C743 C 0.29531 0.80856 0.49802 0.0
H744 H 0.43601 0.0509 0.70858 0.0
H745 H 0.49155 0.05003 0.75839 0.0
H746 H 0.43256 0.01864 0.7294 0.0
H747 H 0.48844 0.01807 0.77715 0.0
H748 H 0.47714 0.9654 0.84171 0.0
H749 H 0.47501 0.99811 0.82856 0.0
H750 H 0.44182 0.98814 0.70993 0.0
H751 H 0.44318 0.95518 0.72512 0.0
C752 C 0.44746 0.04386 0.7239 0.0
C753 C 0.46401 0.05313 0.73203 0.0
C754 C 0.44553 0.02533 0.73561 0.0
C755 C 0.46014 0.01568 0.75548 0.0
C756 C 0.47666 0.02505 0.76319 0.0
C757 C 0.47852 0.04347 0.75201 0.0
C758 C 0.46912 0.97024 0.81328 0.0
C759 C 0.46045 0.95781 0.78422 0.0
C760 C 0.46803 0.989 0.8054 0.0
C761 C 0.45866 0.99586 0.7674 0.0
C762 C 0.44913 0.98342 0.73958 0.0
C763 C 0.44991 0.96454 0.74815 0.0
H764 H 0.21008 0.18402 0.95621 0.0
H765 H 0.21049 0.23845 0.01309 0.0
H766 H 0.24261 0.1808 0.97497 0.0
H767 H 0.24257 0.23558 0.0298 0.0
H768 H 0.29567 0.22433 0.09073 0.0
H769 H 0.26293 0.22136 0.07893 0.0
H770 H 0.27293 0.19141 0.95517 0.0
H771 H 0.30599 0.19354 0.96897 0.0
C772 C 0.21706 0.19526 0.97266 0.0
C773 C 0.20758 0.21143 0.98337 0.0
C774 C 0.23572 0.19347 0.98319 0.0
C775 C 0.24527 0.20783 0.00448 0.0
C776 C 0.2357 0.22397 0.01471 0.0
C777 C 0.21718 0.22569 0.00469 0.0
C778 C 0.29084 0.21684 0.06143 0.0
C779 C 0.30327 0.20931 0.03053 0.0
C780 C 0.27206 0.21525 0.05436 0.0
C781 C 0.26519 0.20658 0.01537 0.0
C782 C 0.27768 0.19815 0.9856 0.0
C783 C 0.2966 0.1994 0.99334 0.0
H784 H 0.97444 0.95645 0.79272 0.0
H785 H 0.94497 0.96291 0.66703 0.0
H786 H 0.97137 0.98926 0.80737 0.0
H787 H 0.9424 0.99582 0.68124 0.0
H788 H 0.9725 0.05397 0.7025 0.0
H789 H 0.96977 0.0211 0.68838 0.0
H790 H 0.94364 0.01404 0.81819 0.0
H791 H 0.94587 0.04705 0.83191 0.0
C792 C 0.96719 0.96485 0.76845 0.0
C793 C 0.95996 0.95712 0.72872 0.0
C794 C 0.96537 0.98359 0.77694 0.0
C795 C 0.95667 0.99501 0.74539 0.0
C796 C 0.94917 0.98727 0.70604 0.0
C797 C 0.95059 0.96845 0.69806 0.0
C798 C 0.9659 0.04545 0.72769 0.0
C799 C 0.95938 0.05307 0.76828 0.0
C800 C 0.96429 0.02668 0.71954 0.0
C801 C 0.95653 0.01509 0.75226 0.0
C802 C 0.9497 0.02272 0.79249 0.0
C803 C 0.95089 0.04158 0.80018 0.0
H804 H 0.70736 0.18426 0.51019 0.0
H805 H 0.71527 0.24173 0.53815 0.0
H806 H 0.74044 0.18098 0.49763 0.0
H807 H 0.74769 0.23852 0.52511 0.0
H808 H 0.79813 0.19219 0.42727 0.0
H809 H 0.76537 0.1906 0.4445 0.0
H810 H 0.77391 0.22506 0.5613 0.0
H811 H 0.8063 0.22701 0.54357 0.0
C812 C 0.71608 0.19615 0.5137 0.0
C813 C 0.7086 0.21321 0.52563 0.0
C814 C 0.73501 0.19429 0.50634 0.0
C815 C 0.74679 0.20943 0.51103 0.0
C816 C 0.73917 0.22645 0.52233 0.0
C817 C 0.72044 0.2283 0.52955 0.0
C818 C 0.79302 0.19919 0.45699 0.0
C819 C 0.80478 0.20999 0.48359 0.0
C820 C 0.77425 0.19823 0.46693 0.0
C821 C 0.76693 0.208 0.50377 0.0
C822 C 0.77898 0.21776 0.53195 0.0
C823 C 0.79759 0.21883 0.52189 0.0
H824 H 0.56816 0.96266 0.31444 0.0
H825 H 0.53216 0.95455 0.20031 0.0
H826 H 0.56992 0.99538 0.29655 0.0
H827 H 0.53428 0.98686 0.18191 0.0
H828 H 0.51761 0.04525 0.20677 0.0
H829 H 0.52111 0.01293 0.22011 0.0
H830 H 0.57904 0.02034 0.24168 0.0
H831 H 0.5755 0.0534 0.2287 0.0
C832 C 0.56096 0.96777 0.28502 0.0
C833 C 0.54975 0.95607 0.25928 0.0
C834 C 0.56201 0.9865 0.2747 0.0
C835 C 0.55195 0.99381 0.23835 0.0
C836 C 0.54182 0.98179 0.21087 0.0
C837 C 0.54065 0.96323 0.22133 0.0
C838 C 0.53119 0.04015 0.2141 0.0
C839 C 0.54632 0.05203 0.21616 0.0
C840 C 0.5332 0.02148 0.22151 0.0
C841 C 0.55041 0.01393 0.23116 0.0
C842 C 0.5656 0.02574 0.23418 0.0
C843 C 0.56358 0.04464 0.22661 0.0
H844 H 0.80193 0.78656 0.95163 0.0
H845 H 0.79652 0.81122 0.08375 0.0
H846 H 0.769 0.78977 0.93963 0.0
H847 H 0.76339 0.81396 0.07209 0.0
H848 H 0.70494 0.78457 0.04625 0.0
H849 H 0.73781 0.78747 0.06067 0.0
H850 H 0.74432 0.81684 0.93502 0.0
H851 H 0.71143 0.81438 0.92095 0.0
C852 C 0.79371 0.79282 0.97792 0.0
C853 C 0.80178 0.79865 0.0186 0.0
C854 C 0.7749 0.79471 0.97097 0.0
C855 C 0.76369 0.80209 0.00497 0.0
C856 C 0.77176 0.80821 0.0454 0.0
C857 C 0.79069 0.80673 0.05193 0.0
C858 C 0.71334 0.79191 0.02208 0.0
C859 C 0.7056 0.79921 0.98242 0.0
C860 C 0.73211 0.79363 0.03045 0.0
C861 C 0.74356 0.80234 -0.00112 0.0
C862 C 0.73577 0.81004 0.95982 0.0
C863 C 0.71695 0.80868 0.95192 0.0
H864 H 0.57512 0.4583 0.70461 0.0
H865 H 0.5195 0.46002 0.75395 0.0
H866 H 0.57862 0.49088 0.72319 0.0
H867 H 0.52272 0.49206 0.77062 0.0
H868 H 0.53453 0.5439 0.83698 0.0
H869 H 0.53702 0.51127 0.82343 0.0
H870 H 0.56865 0.52184 0.70251 0.0
H871 H 0.5669 0.55484 0.71791 0.0
C872 C 0.56367 0.46557 0.71927 0.0
C873 C 0.54711 0.45643 0.72819 0.0
C874 C 0.56564 0.48424 0.72973 0.0
C875 C 0.55106 0.49409 0.74917 0.0
C876 C 0.53447 0.48491 0.75708 0.0
C877 C 0.53258 0.46642 0.74712 0.0
C878 C 0.54226 0.53924 0.80788 0.0
C879 C 0.55033 0.55184 0.77818 0.0
C880 C 0.54359 0.52052 0.79985 0.0
C881 C 0.55259 0.51387 0.76111 0.0
C882 C 0.5616 0.52646 0.73265 0.0
C883 C 0.56058 0.54534 0.74133 0.0
H884 H 0.80521 0.31666 0.01641 0.0
H885 H 0.79551 0.28144 0.90187 0.0
H886 H 0.77222 0.31784 0.0312 0.0
H887 H 0.76276 0.28342 0.91448 0.0
H888 H 0.71055 0.2675 0.98401 0.0
H889 H 0.74255 0.27053 0.96561 0.0
H890 H 0.74181 0.32665 0.01146 0.0
H891 H 0.70952 0.32326 0.03207 0.0
C892 C 0.79595 0.30959 0.99374 0.0
C893 C 0.80285 0.29877 0.95841 0.0
C894 C 0.77705 0.31028 0.00206 0.0
C895 C 0.76473 0.30038 0.97467 0.0
C896 C 0.77176 0.29068 0.93736 0.0
C897 C 0.79055 0.28967 0.92978 0.0
C898 C 0.71709 0.28056 0.99003 0.0
C899 C 0.70737 0.29515 0.00946 0.0
C900 C 0.73554 0.28237 0.97905 0.0
C901 C 0.74488 0.29894 0.98635 0.0
C902 C 0.73516 0.31364 0.00561 0.0
C903 C 0.71661 0.31174 0.0172 0.0
H904 H 0.97803 0.55437 0.29267 0.0
H905 H 0.94188 0.54458 0.17964 0.0
H906 H 0.97647 0.52223 0.31305 0.0
H907 H 0.94073 0.51205 0.19939 0.0
H908 H 0.93539 0.45491 0.26795 0.0
H909 H 0.93183 0.48786 0.25428 0.0
H910 H 0.98954 0.49558 0.27898 0.0
H911 H 0.99301 0.46328 0.2933 0.0
C912 C 0.96967 0.54534 0.27223 0.0
C913 C 0.96032 0.55199 0.2341 0.0
C914 C 0.96883 0.52687 0.28383 0.0
C915 C 0.95878 0.51445 0.25731 0.0
C916 C 0.94857 0.52124 0.22059 0.0
C917 C 0.94928 0.53987 0.20917 0.0
C918 C 0.94724 0.46372 0.27077 0.0
C919 C 0.96445 0.4564 0.28209 0.0
C920 C 0.94523 0.48256 0.26271 0.0
C921 C 0.96036 0.49443 0.26606 0.0
C922 C 0.97748 0.48699 0.27716 0.0
C923 C 0.97949 0.46834 0.28511 0.0
H924 H 0.71528 0.74117 0.44734 0.0
H925 H 0.70566 0.68465 0.48309 0.0
H926 H 0.7476 0.73722 0.46047 0.0
H927 H 0.73864 0.6806 0.49573 0.0
H928 H 0.79624 0.69282 0.56702 0.0
H929 H 0.76355 0.69111 0.54864 0.0
H930 H 0.7734 0.72194 0.42625 0.0
H931 H 0.80566 0.72407 0.44513 0.0
C932 C 0.72006 0.72779 0.45764 0.0
C933 C 0.70778 0.71319 0.46388 0.0
C934 C 0.73871 0.72549 0.46489 0.0
C935 C 0.74579 0.70853 0.47855 0.0
C936 C 0.7336 0.69385 0.4852 0.0
C937 C 0.71474 0.69615 0.47774 0.0
C938 C 0.79141 0.69894 0.53585 0.0
C939 C 0.80343 0.70889 0.50796 0.0
C940 C 0.77271 0.69792 0.52525 0.0
C941 C 0.76582 0.70672 0.48645 0.0
C942 C 0.77817 0.71544 0.45702 0.0
C943 C 0.79668 0.71661 0.46776 0.0
H944 H 0.44747 0.54794 0.32742 0.0
H945 H 0.4769 0.55398 0.20149 0.0
H946 H 0.44485 0.51496 0.3139 0.0
H947 H 0.47378 0.52111 0.18751 0.0
H948 H 0.44824 0.46309 0.16459 0.0
H949 H 0.44603 0.49617 0.17743 0.0
H950 H 0.47234 0.48974 0.30714 0.0
H951 H 0.47507 0.45682 0.29388 0.0
C952 C 0.45306 0.54229 0.29647 0.0
C953 C 0.46244 0.55353 0.26555 0.0
C954 C 0.45162 0.52344 0.28888 0.0
C955 C 0.4591 0.51556 0.24967 0.0
C956 C 0.46779 0.52689 0.21785 0.0
C957 C 0.46963 0.54565 0.22595 0.0
C958 C 0.45332 0.46872 0.19608 0.0
C959 C 0.46186 0.45739 0.22821 0.0
C960 C 0.45213 0.48762 0.20328 0.0
C961 C 0.459 0.49544 0.24327 0.0
C962 C 0.46683 0.48402 0.27618 0.0
C963 C 0.46845 0.46522 0.2685 0.0
H964 H 0.20894 0.68638 0.04565 0.0
H965 H 0.20866 0.73841 0.97602 0.0
H966 H 0.24218 0.68426 0.03369 0.0
H967 H 0.24145 0.7363 0.965 0.0
H968 H 0.30003 0.73925 0.01534 0.0
H969 H 0.26731 0.73675 0.02756 0.0
H970 H 0.26692 0.68407 0.9621 0.0
H971 H 0.30005 0.68655 0.949 0.0
C972 C 0.21586 0.69725 0.02755 0.0
C973 C 0.2061 0.71266 0.0123 0.0
C974 C 0.23484 0.69599 0.02063 0.0
C975 C 0.24435 0.71023 -0.00108 0.0
C976 C 0.23449 0.72524 0.98237 0.0
C977 C 0.21565 0.7264 0.9887 0.0
C978 C 0.29314 0.72701 0.00372 0.0
C979 C 0.30273 0.7132 0.98059 0.0
C980 C 0.27434 0.72563 0.01074 0.0
C981 C 0.26459 0.71032 0.99538 0.0
C982 C 0.27417 0.69601 0.97428 0.0
C983 C 0.29309 0.69748 0.96669 0.0
H984 H 0.07477 0.55227 0.72554 0.0
H985 H 0.01683 0.54457 0.70347 0.0
H986 H 0.07811 0.51922 0.73809 0.0
H987 H 0.02012 0.51217 0.71656 0.0
H988 H 0.03108 0.45337 0.69919 0.0
H989 H 0.03277 0.48565 0.68012 0.0
H990 H 0.06933 0.49476 0.79272 0.0
H991 H 0.06801 0.46216 0.81121 0.0
C992 C 0.06279 0.5436 0.7233 0.0
C993 C 0.04557 0.55112 0.71308 0.0
C994 C 0.06469 0.52469 0.73065 0.0
C995 C 0.04943 0.51299 0.72769 0.0
C996 C 0.03227 0.52064 0.71797 0.0
C997 C 0.03037 0.53935 0.71074 0.0
C998 C 0.03966 0.46218 0.71964 0.0
C999 C 0.04918 0.45521 0.75715 0.0
C1000 C 0.04057 0.48073 0.70881 0.0
C1001 C 0.05089 0.4929 0.73544 0.0
C1002 C 0.06128 0.48578 0.77145 0.0
C1003 C 0.06047 0.4671 0.78214 0.0
H1004 H 0.30209 0.28514 0.45101 0.0
H1005 H 0.29575 0.31349 0.57827 0.0
H1006 H 0.26916 0.28765 0.43754 0.0
H1007 H 0.2627 0.31553 0.56521 0.0
H1008 H 0.20517 0.28424 0.54499 0.0
H1009 H 0.23803 0.28788 0.55814 0.0
H1010 H 0.24369 0.31441 0.42841 0.0
H1011 H 0.21071 0.31126 0.41563 0.0
C1012 C 0.29368 0.29206 0.47585 0.0
C1013 C 0.30148 0.2991 0.51569 0.0
C1014 C 0.27488 0.29355 0.46805 0.0
C1015 C 0.26345 0.30175 0.50039 0.0
C1016 C 0.27125 0.30913 0.53981 0.0
C1017 C 0.29014 0.30803 0.54713 0.0
C1018 C 0.21339 0.2911 0.51959 0.0
C1019 C 0.20539 0.29745 0.47927 0.0
C1020 C 0.23214 0.29324 0.52721 0.0
C1021 C 0.24333 0.3014 0.49424 0.0
C1022 C 0.23532 0.30807 0.4543 0.0
C1023 C 0.21647 0.30632 0.44712 0.0
H1024 H 0.01551 0.07153 0.15522 0.0
H1025 H 1.00323 0.12908 0.14182 0.0
H1026 H 1.00366 0.06629 0.07832 0.0
H1027 H 0.99141 0.1238 0.06621 0.0
H1028 H 0.95462 0.10698 0.95391 0.0
H1029 H 0.96414 0.1064 0.03272 0.0
H1030 H 0.01327 0.0774 0.9957 0.0
H1031 H 1.0038 0.07792 0.91615 0.0
C1032 C 0.01019 0.08298 0.13606 0.0
C1033 C 0.0103 0.10071 0.15452 0.0
C1034 C 1.00351 0.08 0.09217 0.0
C1035 C 0.99651 0.09463 0.06665 0.0
C1036 C 0.9965 0.11224 0.08538 0.0
C1037 C 1.00339 0.11527 0.12862 0.0
C1038 C 0.96733 0.1002 0.96241 0.0
C1039 C 0.97857 0.09271 0.92855 0.0
C1040 C 0.97277 0.0999 0.00761 0.0
C1041 C 0.98951 0.09203 0.0201 0.0
C1042 C 1.00026 0.08349 0.98687 0.0
C1043 C 0.99486 0.08388 0.94137 0.0
H1044 H 0.17388 0.75556 0.16181 0.0
H1045 H 0.1516 0.70259 0.19628 0.0
H1046 H 0.17259 0.76446 0.24126 0.0
H1047 H 0.15027 0.71162 0.27586 0.0
H1048 H 0.16313 0.7319 0.42211 0.0
H1049 H 0.16916 0.72111 0.34478 0.0
H1050 H 0.14588 0.77084 0.29127 0.0
H1051 H 0.13985 0.78152 0.36753 0.0
C1052 C 0.16898 0.74569 0.18635 0.0
C1053 C 0.16274 0.72839 0.1725 0.0
C1054 C 0.16815 0.75085 0.23188 0.0
C1055 C 0.16117 0.7388 0.26476 0.0
C1056 C 0.15581 0.72117 0.25136 0.0
C1057 C 0.1565 0.71604 0.2057 0.0
C1058 C 0.15936 0.74051 0.39378 0.0
C1059 C 0.15094 0.75754 0.4011 0.0
C1060 C 0.16276 0.73432 0.34957 0.0
C1061 C 0.15811 0.7452 0.31196 0.0
C1062 C 0.14988 0.76225 0.31946 0.0
C1063 C 0.14629 0.7683 0.36332 0.0
H1064 H 0.49329 0.93885 0.65355 0.0
H1065 H 0.51179 0.88296 0.64188 0.0
H1066 H 0.50476 0.94509 0.57662 0.0
H1067 H 0.52324 0.8892 0.56634 0.0
H1068 H 0.55689 0.90819 0.4515 0.0
H1069 H 0.54821 0.90914 0.5309 0.0
H1070 H 0.496 0.93239 0.49483 0.0
H1071 H 0.50463 0.93149 0.41471 0.0
C1072 C 0.49997 0.92802 0.63482 0.0
C1073 C 0.50162 0.91043 0.65359 0.0
C1074 C 0.50642 0.93155 0.59092 0.0
C1075 C 0.51498 0.91765 0.56582 0.0
C1076 C 0.51692 0.90024 0.58514 0.0
C1077 C 0.51024 0.89664 0.62832 0.0
C1078 C 0.54367 0.91382 0.46032 0.0
C1079 C 0.53133 0.9195 0.42661 0.0
C1080 C 0.53873 0.91436 0.50586 0.0
C1081 C 0.52138 0.92064 0.51884 0.0
C1082 C 0.5095 0.92756 0.48564 0.0
C1083 C 0.51442 0.92696 0.43981 0.0
H1084 H 0.32316 0.24474 0.90335 0.0
H1085 H 0.38014 0.25947 0.88917 0.0
H1086 H 0.31727 0.25623 0.82645 0.0
H1087 H 0.37423 0.2709 0.81343 0.0
H1088 H 0.35594 0.30599 0.69942 0.0
H1089 H 0.35597 0.29703 0.77866 0.0
H1090 H 0.32827 0.24677 0.74462 0.0
H1091 H 0.32817 0.25567 0.66469 0.0
C1092 C 0.33435 0.25054 0.88403 0.0
C1093 C 0.3521 0.25121 0.90223 0.0
C1094 C 0.33099 0.25701 0.84013 0.0
C1095 C 0.34528 0.26455 0.81431 0.0
C1096 C 0.36292 0.26539 0.83285 0.0
C1097 C 0.36632 0.25871 0.87614 0.0
C1098 C 0.34959 0.29314 0.70868 0.0
C1099 C 0.34227 0.28142 0.67555 0.0
C1100 C 0.34963 0.28803 0.75412 0.0
C1101 C 0.34231 0.27114 0.76755 0.0
C1102 C 0.33394 0.2599 0.73506 0.0
C1103 C 0.33397 0.26497 0.68934 0.0
H1104 H 0.95255 0.90307 0.54347 0.0
H1105 H 1.00269 0.93132 0.57738 0.0
H1106 H 0.96129 0.90313 0.46408 0.0
H1107 H 0.01139 0.9313 0.49731 0.0
H1108 H 0.01329 0.93625 0.33859 0.0
H1109 H 1.00177 0.94213 0.4155 0.0
H1110 H 0.98743 0.88512 0.4288 0.0
H1111 H 0.99889 0.87922 0.3531 0.0
C1112 C 0.96531 0.90955 0.534 0.0
C1113 C 0.97704 0.91697 0.56696 0.0
C1114 C 0.97031 0.90956 0.48846 0.0
C1115 C 0.98709 0.91704 0.47472 0.0
C1116 C 0.99833 0.92551 0.50707 0.0
C1117 C 0.99338 0.92543 0.55288 0.0
C1118 C 0.00753 0.92506 0.35796 0.0
C1119 C 0.007 0.90728 0.33987 0.0
C1120 C 1.00105 0.9284 0.40188 0.0
C1121 C 0.99361 0.91409 0.42783 0.0
C1122 C 0.99286 0.89645 0.40933 0.0
C1123 C 0.99955 0.89306 0.36604 0.0
H1124 H 0.32265 0.76402 0.59023 0.0
H1125 H 0.37923 0.74771 0.60208 0.0
H1126 H 0.31681 0.75232 0.66702 0.0
H1127 H 0.37341 0.73609 0.67767 0.0
H1128 H 0.35604 0.70315 0.79554 0.0
H1129 H 0.35523 0.71098 0.71552 0.0
H1130 H 0.32836 0.76191 0.74718 0.0
H1131 H 0.32903 0.75411 0.82768 0.0
C1132 C 0.33373 0.75775 0.60896 0.0
C1133 C 0.35139 0.75683 0.59034 0.0
C1134 C 0.33042 0.75116 0.65279 0.0
C1135 C 0.34465 0.74322 0.67804 0.0
C1136 C 0.36213 0.74191 0.65876 0.0
C1137 C 0.36548 0.74871 0.61558 0.0
C1138 C 0.34967 0.7159 0.78556 0.0
C1139 C 0.34284 0.72813 0.81812 0.0
C1140 C 0.34923 0.72036 0.7397 0.0
C1141 C 0.34191 0.73712 0.72532 0.0
C1142 C 0.33399 0.74885 0.75741 0.0
C1143 C 0.33449 0.74442 0.80349 0.0
H1144 H 0.49543 0.09878 0.07563 0.0
H1145 H 0.55333 0.09936 0.0459 0.0
H1146 H 0.48864 0.10087 0.99548 0.0
H1147 H 0.54638 0.10172 0.96484 0.0
H1148 H 0.48327 0.13184 0.86515 0.0
H1149 H 0.49293 0.12674 0.9424 0.0
H1150 H 0.53088 0.08536 0.89748 0.0
H1151 H 0.52126 0.09058 0.81884 0.0
C1152 C 0.50675 0.09924 0.05198 0.0
C1153 C 0.52494 0.09913 0.06725 0.0
C1154 C 0.50283 0.10049 0.006 0.0
C1155 C 0.51698 0.10177 0.97403 0.0
C1156 C 0.53521 0.10074 0.98884 0.0
C1157 C 0.53917 0.09945 0.03517 0.0
C1158 C 0.49374 0.12168 0.87135 0.0
C1159 C 0.50138 0.1115 0.83569 0.0
C1160 C 0.4992 0.1187 0.91581 0.0
C1161 C 0.51242 0.10544 0.92602 0.0
C1162 C 0.52063 0.09565 0.89046 0.0
C1163 C 0.5151 0.09862 0.84557 0.0
H1164 H 0.1732 0.24875 0.3359 0.0
H1165 H 0.15389 0.30211 0.29504 0.0
H1166 H 0.17228 0.23869 0.25709 0.0
H1167 H 0.15285 0.29198 0.21658 0.0
H1168 H 0.16571 0.27111 0.07429 0.0
H1169 H 0.17191 0.28146 0.15146 0.0
H1170 H 0.14639 0.23263 0.20423 0.0
H1171 H 0.14029 0.22221 0.12746 0.0
C1172 C 0.16906 0.25842 0.31009 0.0
C1173 C 0.16353 0.2762 0.3218 0.0
C1174 C 0.1684 0.25261 0.26503 0.0
C1175 C 0.16236 0.26451 0.23076 0.0
C1176 C 0.15769 0.28254 0.24219 0.0
C1177 C 0.1582 0.28831 0.28722 0.0
C1178 C 0.16148 0.26256 0.10236 0.0
C1179 C 0.15237 0.24591 0.09471 0.0
C1180 C 0.165 0.26851 0.1465 0.0
C1181 C 0.15968 0.25783 0.18383 0.0
C1182 C 0.15088 0.24105 0.17614 0.0
C1183 C 0.14722 0.23517 0.13212 0.0
H1184 H 0.99481 0.91149 0.0786 0.0
H1185 H 0.05233 0.9092 0.04513 0.0
H1186 H 0.98712 0.91006 -0.00117 0.0
H1187 H 0.04447 0.90747 0.96453 0.0
H1188 H 0.01931 0.91956 0.82037 0.0
H1189 H 0.02929 0.92441 0.89879 0.0
H1190 H 0.98962 0.88469 0.94445 0.0
H1191 H 0.97958 0.87999 0.86731 0.0
C1192 C 0.00585 0.91078 0.0542 0.0
C1193 C 0.02419 0.91023 0.06828 0.0
C1194 C 1.00142 0.9099 0.00845 0.0
C1195 C 0.01519 0.90834 0.97555 0.0
C1196 C 0.03359 0.90869 0.98923 0.0
C1197 C 0.03807 0.90963 0.03531 0.0
C1198 C 0.0128 0.91184 0.84722 0.0
C1199 C 0.99857 0.89948 0.83754 0.0
C1200 C 0.01854 0.91459 0.89199 0.0
C1201 C 0.01005 0.90511 0.9277 0.0
C1202 C 0.99616 0.89249 0.91775 0.0
C1203 C 0.99049 0.88972 0.87336 0.0
H1204 H 0.85717 0.27414 0.57247 0.0
H1205 H 0.86538 0.21865 0.61783 0.0
H1206 H 0.85412 0.28417 0.65095 0.0
H1207 H 0.86121 0.22828 0.69578 0.0
H1208 H 0.87379 0.252 0.83147 0.0
H1209 H 0.87648 0.24351 0.75254 0.0
H1210 H 0.83633 0.28451 0.71702 0.0
H1211 H 0.83457 0.29376 0.79651 0.0
C1212 C 0.85809 0.26408 0.59929 0.0
C1213 C 0.86175 0.24568 0.58926 0.0
C1214 C 0.85621 0.26977 0.64427 0.0
C1215 C 0.8576 0.2571 0.68002 0.0
C1216 C 0.86062 0.23857 0.66947 0.0
C1217 C 0.86289 0.23298 0.62472 0.0
C1218 C 0.86552 0.2592 0.80677 0.0
C1219 C 0.85385 0.27343 0.82007 0.0
C1220 C 0.86695 0.25424 0.76142 0.0
C1221 C 0.8564 0.26308 0.72816 0.0
C1222 C 0.8448 0.27749 0.74151 0.0
C1223 C 0.84369 0.28274 0.78704 0.0
H1224 H 0.45254 0.10486 0.54431 0.0
H1225 H 0.50424 0.07913 0.57572 0.0
H1226 H 0.46012 0.10412 0.46418 0.0
H1227 H 0.51176 0.07848 0.49502 0.0
H1228 H 0.51301 0.07247 0.33772 0.0
H1229 H 0.50181 0.06653 0.41491 0.0
H1230 H 0.48496 0.12291 0.42597 0.0
H1231 H 0.49613 0.12885 0.34997 0.0
C1232 C 0.4654 0.09877 0.53417 0.0
C1233 C 0.47791 0.0923 0.56656 0.0
C1234 C 0.46971 0.09837 0.48822 0.0
C1235 C 0.48659 0.09143 0.47358 0.0
C1236 C 0.49862 0.08382 0.50549 0.0
C1237 C 0.49434 0.0843 0.55167 0.0
C1238 C 0.50672 0.08348 0.35663 0.0
C1239 C 0.50548 0.10112 0.33798 0.0
C1240 C 0.50041 0.08011 0.40069 0.0
C1241 C 0.49245 0.09424 0.42615 0.0
C1242 C 0.49082 0.1117 0.40688 0.0
C1243 C 0.49734 0.11513 0.36346 0.0
H1244 H 0.65787 0.76699 0.33327 0.0
H1245 H 0.65846 0.70965 0.29773 0.0
H1246 H 0.65529 0.77508 0.2539 0.0
H1247 H 0.65546 0.71785 0.21777 0.0
H1248 H 0.62748 0.78245 0.11873 0.0
H1249 H 0.63157 0.77286 0.1968 0.0
H1250 H 0.67156 0.73294 0.15435 0.0
H1251 H 0.66721 0.74227 0.07572 0.0
C1252 C 0.65749 0.75608 0.3085 0.0
C1253 C 0.65828 0.73765 0.32184 0.0
C1254 C 0.65589 0.76074 0.26299 0.0
C1255 C 0.65492 0.7471 0.22967 0.0
C1256 C 0.65627 0.72866 0.24273 0.0
C1257 C 0.65794 0.72397 0.28847 0.0
C1258 C 0.63711 0.77158 0.1259 0.0
C1259 C 0.64704 0.76315 0.09097 0.0
C1260 C 0.63954 0.76617 0.17072 0.0
C1261 C 0.65201 0.75225 0.18173 0.0
C1262 C 0.66176 0.74361 0.14682 0.0
C1263 C 0.65931 0.74902 0.10185 0.0
H1264 H 0.99512 0.09474 0.4144 0.0
H1265 H 0.05211 0.09872 0.45197 0.0
H1266 H 0.98638 0.09679 0.49345 0.0
H1267 H 0.04322 0.10117 0.53172 0.0
H1268 H 0.97624 0.12666 0.62485 0.0
H1269 H 0.98659 0.12155 0.54792 0.0
H1270 H 0.02868 0.08516 0.59688 0.0
H1271 H 0.0185 0.09056 0.67467 0.0
C1272 C 0.00582 0.09597 0.43959 0.0
C1273 C 0.02433 0.09675 0.42684 0.0
C1274 C 1.00078 0.09724 0.48494 0.0
C1275 C 0.01408 0.09947 0.51876 0.0
C1276 C 0.03266 0.09942 0.50638 0.0
C1277 C 0.03775 0.09805 0.46076 0.0
C1278 C 0.98773 0.11758 0.61944 0.0
C1279 C 0.99652 0.10901 0.65602 0.0
C1280 C 0.99359 0.11455 0.5752 0.0
C1281 C 0.00834 0.10279 0.56626 0.0
C1282 C 0.01732 0.09435 0.60276 0.0
C1283 C 0.01144 0.0974 0.64725 0.0
H1284 H 0.6808 0.26913 0.41979 0.0
H1285 H 0.63985 0.2316 0.3699 0.0
H1286 H 0.68669 0.27945 0.34175 0.0
H1287 H 0.64605 0.24153 0.29258 0.0
H1288 H 0.67499 0.25034 0.15904 0.0
H1289 H 0.67577 0.24086 0.23814 0.0
H1290 H 0.66302 0.2959 0.27988 0.0
H1291 H 0.66193 0.30551 0.20043 0.0
C1292 C 0.67327 0.26297 0.39214 0.0
C1293 C 0.65981 0.24969 0.40063 0.0
C1294 C 0.67659 0.26889 0.34778 0.0
C1295 C 0.66685 0.26118 0.31153 0.0
C1296 C 0.65381 0.24754 0.32006 0.0
C1297 C 0.6502 0.24197 0.36422 0.0
C1298 C 0.6727 0.26055 0.18499 0.0
C1299 C 0.66824 0.27866 0.1735 0.0
C1300 C 0.67314 0.25508 0.23019 0.0
C1301 C 0.66944 0.26768 0.26474 0.0
C1302 C 0.66606 0.28602 0.25363 0.0
C1303 C 0.66532 0.29145 0.20827 0.0
H1304 H 0.53139 0.88031 0.12696 0.0
H1305 H 0.49031 0.9185 0.1731 0.0
H1306 H 0.52139 0.88472 0.04952 0.0
H1307 H 0.48046 0.92315 0.09467 0.0
H1308 H 0.45751 0.90906 0.94945 0.0
H1309 H 0.46572 0.90674 0.02968 0.0
H1310 H 0.52294 0.90919 0.99389 0.0
H1311 H 0.51489 0.91116 0.91443 0.0
C1312 C 0.52021 0.88968 0.12065 0.0
C1313 C 0.51169 0.89909 0.15635 0.0
C1314 C 0.51456 0.8923 0.0761 0.0
C1315 C 0.50027 0.90445 0.06591 0.0
C1316 C 0.49147 0.91365 0.10154 0.0
C1317 C 0.49715 0.91103 0.14638 0.0
C1318 C 0.47182 0.90929 0.95885 0.0
C1319 C 0.48553 0.9101 0.9255 0.0
C1320 C 0.47651 0.90801 0.00476 0.0
C1321 C 0.49498 0.90751 0.018 0.0
C1322 C 0.5086 0.90912 0.98471 0.0
C1323 C 0.50395 0.91033 0.9391 0.0
H1324 H 0.83371 0.75766 0.65718 0.0
H1325 H 0.85283 0.70447 0.69995 0.0
H1326 H 0.83442 0.7681 0.73567 0.0
H1327 H 0.85364 0.715 0.77815 0.0
H1328 H 0.86644 0.78523 0.86482 0.0
H1329 H 0.86016 0.77446 0.78846 0.0
H1330 H 0.83467 0.72592 0.84299 0.0
H1331 H 0.84104 0.73665 0.91979 0.0
C1332 C 0.83775 0.7481 0.68335 0.0
C1333 C 0.84329 0.73026 0.67225 0.0
C1334 C 0.83829 0.75413 0.72824 0.0
C1335 C 0.84422 0.74241 0.76299 0.0
C1336 C 0.84888 0.72431 0.75219 0.0
C1337 C 0.84849 0.71831 0.7073 0.0
C1338 C 0.85944 0.77228 0.86065 0.0
C1339 C 0.85438 0.76172 0.89845 0.0
C1340 C 0.85569 0.76619 0.81684 0.0
C1341 C 0.84688 0.74937 0.80973 0.0
C1342 C 0.84158 0.7389 0.84747 0.0
C1343 C 0.84519 0.74507 0.89141 0.0
H1344 H 0.50463 0.57946 0.41673 0.0
H1345 H 0.45477 0.60838 0.44922 0.0
H1346 H 0.51277 0.57904 0.49707 0.0
H1347 H 0.46292 0.60783 0.52899 0.0
H1348 H 0.49963 0.63013 0.64352 0.0
H1349 H 0.48846 0.62499 0.56727 0.0
H1350 H 0.50298 0.56792 0.57717 0.0
H1351 H 0.51426 0.57307 0.65454 0.0
C1352 C 0.49526 0.58542 0.44097 0.0
C1353 C 0.47916 0.59417 0.42643 0.0
C1354 C 0.49989 0.58508 0.48696 0.0
C1355 C 0.48856 0.59357 0.51909 0.0
C1356 C 0.47202 0.6014 0.50482 0.0
C1357 C 0.46735 0.60168 0.45907 0.0
C1358 C 0.50038 0.61643 0.62973 0.0
C1359 C 0.50785 0.602 0.65505 0.0
C1360 C 0.49384 0.61347 0.5861 0.0
C1361 C 0.49475 0.59604 0.56644 0.0
C1362 C 0.50214 0.5815 0.59163 0.0
C1363 C 0.50849 0.58442 0.63584 0.0
H1364 H 0.6507 0.28738 0.87619 0.0
H1365 H 0.65296 0.23125 0.92088 0.0
H1366 H 0.65518 0.2777 0.79853 0.0
H1367 H 0.65656 0.22125 0.84207 0.0
H1368 H 0.677 0.21269 0.69404 0.0
H1369 H 0.67557 0.22064 0.77472 0.0
H1370 H 0.63685 0.26352 0.74371 0.0
H1371 H 0.63898 0.25621 0.66408 0.0
C1372 C 0.65199 0.27291 0.86918 0.0
C1373 C 0.65115 0.26003 0.90425 0.0
C1374 C 0.65448 0.26732 0.82464 0.0
C1375 C 0.65577 0.24865 0.81385 0.0
C1376 C 0.65563 0.23573 0.84923 0.0
C1377 C 0.65348 0.24142 0.89423 0.0
C1378 C 0.66826 0.22382 0.70478 0.0
C1379 C 0.65838 0.23407 0.67286 0.0
C1380 C 0.66736 0.22832 0.75088 0.0
C1381 C 0.65637 0.24296 0.76561 0.0
C1382 C 0.64596 0.2526 0.73354 0.0
C1383 C 0.64709 0.24834 0.68781 0.0
H1384 H 0.98101 0.3904 0.11813 0.0
H1385 H 0.01859 0.43082 0.17025 0.0
H1386 H 0.9907 0.39751 0.04112 0.0
H1387 H 0.02865 0.43767 0.09258 0.0
H1388 H 0.05609 0.41451 0.9534 0.0
H1389 H 0.04553 0.41583 0.03191 0.0
H1390 H 0.99049 0.42586 0.98565 0.0
H1391 H 1.00096 0.4248 0.9072 0.0
C1392 C 0.99129 0.40087 0.113 0.0
C1393 C 0.99916 0.40999 0.15 0.0
C1394 C 0.99672 0.40503 0.06899 0.0
C1395 C 0.01035 0.41816 0.06111 0.0
C1396 C 0.01808 0.42751 0.09798 0.0
C1397 C 0.01232 0.42363 0.14219 0.0
C1398 C 0.04181 0.4174 0.96 0.0
C1399 C 0.02933 0.4194 0.92414 0.0
C1400 C 0.03582 0.41827 0.00488 0.0
C1401 C 0.01722 0.42087 0.01457 0.0
C1402 C 0.0049 0.4238 0.97887 0.0
C1403 C 0.01092 0.42323 0.93405 0.0
H1404 H 0.84448 0.7711 0.41989 0.0
H1405 H 0.86992 0.72225 0.36695 0.0
H1406 H 0.8388 0.78172 0.34277 0.0
H1407 H 0.86429 0.73295 0.29001 0.0
H1408 H 0.8365 0.74972 0.15863 0.0
H1409 H 0.83831 0.73923 0.23702 0.0
H1410 H 0.85807 0.79237 0.27785 0.0
H1411 H 0.85621 0.80292 0.19969 0.0
C1412 C 0.84883 0.76261 0.39186 0.0
C1413 C 0.85777 0.74588 0.3996 0.0
C1414 C 0.84562 0.76873 0.34772 0.0
C1415 C 0.85108 0.75816 0.31039 0.0
C1416 C 0.85974 0.7413 0.31811 0.0
C1417 C 0.86311 0.73526 0.36221 0.0
C1418 C 0.84095 0.75926 0.18442 0.0
C1419 C 0.84623 0.77715 0.17288 0.0
C1420 C 0.84212 0.7532 0.22924 0.0
C1421 C 0.84843 0.76495 0.26349 0.0
C1422 C 0.85303 0.78304 0.25225 0.0
C1423 C 0.85203 0.78905 0.20741 0.0
H1424 H 0.50726 0.42581 0.08215 0.0
H1425 H 0.4547 0.40328 0.04496 0.0
H1426 H 0.51672 0.42491 0.00299 0.0
H1427 H 0.46428 0.40229 0.96588 0.0
H1428 H 0.48474 0.41475 0.82105 0.0
H1429 H 0.47384 0.42114 0.898 0.0
H1430 H 0.52374 0.39863 0.95262 0.0
H1431 H 0.53457 0.39229 0.87659 0.0
C1432 C 0.49761 0.42094 0.05708 0.0
C1433 C 0.48026 0.4145 0.07003 0.0
C1434 C 0.50308 0.42033 0.01175 0.0
C1435 C 0.4913 0.41338 0.97828 0.0
C1436 C 0.47362 0.40783 0.99083 0.0
C1437 C 0.46818 0.40831 0.03623 0.0
C1438 C 0.49338 0.41126 0.84953 0.0
C1439 C 0.51048 0.40292 0.84263 0.0
C1440 C 0.48713 0.41487 0.89353 0.0
C1441 C 0.49799 0.41048 0.93133 0.0
C1442 C 0.51517 0.40244 0.92424 0.0
C1443 C 0.5213 0.39865 0.88055 0.0
H1444 H 0.82888 0.24234 0.07335 0.0
H1445 H 0.86747 0.2818 0.12534 0.0
H1446 H 0.82285 0.23169 0.151 0.0
H1447 H 0.86116 0.27152 0.20235 0.0
H1448 H 0.83477 0.25919 0.33672 0.0
H1449 H 0.83316 0.26996 0.2586 0.0
H1450 H 0.84585 0.21572 0.21075 0.0
H1451 H 0.84773 0.20486 0.289 0.0
C1452 C 0.83578 0.24892 0.10141 0.0
C1453 C 0.8487 0.26279 0.09358 0.0
C1454 C 0.83239 0.24281 0.14559 0.0
C1455 C 0.84152 0.25085 0.18242 0.0
C1456 C 0.85383 0.26522 0.17454 0.0
C1457 C 0.85752 0.27101 0.13054 0.0
C1458 C 0.83685 0.24945 0.3096 0.0
C1459 C 0.84152 0.2312 0.31902 0.0
C1460 C 0.83596 0.25565 0.26495 0.0
C1461 C 0.83941 0.24366 0.22888 0.0
C1462 C 0.84299 0.22517 0.23807 0.0
C1463 C 0.84418 0.21901 0.2828 0.0
H1464 H 1.00105 0.62116 0.578 0.0
H1465 H 0.04347 0.58238 0.54495 0.0
H1466 H 0.99298 0.62362 0.49884 0.0
H1467 H 0.03467 0.58399 0.46497 0.0
H1468 H 0.02403 0.60505 0.31936 0.0
H1469 H 0.03411 0.60181 0.39798 0.0
H1470 H 0.97806 0.60757 0.4427 0.0
H1471 H 0.96837 0.61186 0.36494 0.0
C1472 C 0.00849 0.61292 0.55369 0.0
C1473 C 0.02275 0.6014 0.56769 0.0
C1474 C 1.00377 0.61423 0.50816 0.0
C1475 C 0.01289 0.60373 0.47528 0.0
C1476 C 0.0274 0.59237 0.48921 0.0
C1477 C 0.0324 0.59134 0.53501 0.0
C1478 C 0.01395 0.60562 0.3462 0.0
C1479 C 0.99548 0.60901 0.33623 0.0
C1480 C 0.01968 0.60365 0.39124 0.0
C1481 C 0.00697 0.60471 0.42701 0.0
C1482 C 0.98838 0.6073 0.41642 0.0
C1483 C 0.98276 0.60964 0.37174 0.0
H1484 H 0.66411 0.80473 0.79208 0.0
H1485 H 0.67567 0.74983 0.83817 0.0
H1486 H 0.66636 0.79441 0.71357 0.0
H1487 H 0.67766 0.73958 0.75966 0.0
H1488 H 0.64212 0.73027 0.62651 0.0
H1489 H 0.64916 0.73956 0.70381 0.0
H1490 H 0.68916 0.778 0.65355 0.0
H1491 H 0.68239 0.76832 0.57556 0.0
C1492 C 0.66747 0.79056 0.78546 0.0
C1493 C 0.66953 0.77804 0.82121 0.0
C1494 C 0.6689 0.78472 0.74061 0.0
C1495 C 0.67213 0.76623 0.7309 0.0
C1496 C 0.67515 0.75391 0.76652 0.0
C1497 C 0.67402 0.7598 0.81134 0.0
C1498 C 0.65256 0.74056 0.632 0.0
C1499 C 0.66163 0.74871 0.59531 0.0
C1500 C 0.65669 0.74574 0.67613 0.0
C1501 C 0.66972 0.75942 0.68436 0.0
C1502 C 0.67909 0.76738 0.64779 0.0
C1503 C 0.67525 0.76185 0.60345 0.0
H1504 H 0.54897 0.38912 0.55197 0.0
H1505 H 0.51101 0.43349 0.57446 0.0
H1506 H 0.53936 0.38742 0.47304 0.0
H1507 H 0.50176 0.43194 0.49454 0.0
H1508 H 0.51004 0.42876 0.32966 0.0
H1509 H 0.52115 0.43374 0.40735 0.0
H1510 H 0.50306 0.37963 0.44441 0.0
H1511 H 0.49155 0.37478 0.36773 0.0
C1512 C 0.53883 0.39876 0.53991 0.0
C1513 C 0.53072 0.41144 0.56956 0.0
C1514 C 0.53333 0.39772 0.49477 0.0
C1515 C 0.51988 0.40955 0.47801 0.0
C1516 C 0.51226 0.42276 0.50686 0.0
C1517 C 0.5175 0.42358 0.55247 0.0
C1518 C 0.5085 0.41795 0.35445 0.0
C1519 C 0.49999 0.40137 0.34267 0.0
C1520 C 0.51472 0.42085 0.39877 0.0
C1521 C 0.51293 0.40703 0.43149 0.0
C1522 C 0.50461 0.39044 0.41959 0.0
C1523 C 0.49802 0.3877 0.3758 0.0
H1524 H 0.33417 0.79811 0.29981 0.0
H1525 H 0.37081 0.75323 0.32789 0.0
H1526 H 0.3346 0.7901 0.21909 0.0
H1527 H 0.37189 0.74578 0.24819 0.0
H1528 H 0.35655 0.72244 0.11665 0.0
H1529 H 0.3524 0.73231 0.19433 0.0
H1530 H 0.35323 0.78876 0.1507 0.0
H1531 H 0.3565 0.7786 0.07186 0.0
C1532 C 0.3424 0.78666 0.28866 0.0
C1533 C 0.35218 0.77607 0.32012 0.0
C1534 C 0.34271 0.78211 0.24253 0.0
C1535 C 0.35298 0.76706 0.22726 0.0
C1536 C 0.36331 0.75705 0.25881 0.0
C1537 C 0.36278 0.76139 0.30459 0.0
C1538 C 0.35571 0.73695 0.12364 0.0
C1539 C 0.35714 0.74978 0.08856 0.0
C1540 C 0.35344 0.74264 0.16817 0.0
C1541 C 0.35299 0.76135 0.17897 0.0
C1542 C 0.35354 0.77425 0.14355 0.0
C1543 C 0.35547 0.76847 0.09852 0.0
H1544 H 1.00321 0.57682 0.07778 0.0
H1545 H 0.95237 0.60315 0.04111 0.0
H1546 H 0.0124 0.57682 -0.00201 0.0
H1547 H 0.96167 0.60315 0.9621 0.0
H1548 H 1.00003 0.6285 0.85381 0.0
H1549 H 0.98848 0.62228 0.92936 0.0
H1550 H 1.0026 0.56531 0.91474 0.0
H1551 H 0.01411 0.57149 0.8379 0.0
C1552 C 0.99385 0.58225 0.05275 0.0
C1553 C 0.97716 0.59021 0.06596 0.0
C1554 C 0.9991 0.58217 0.00713 0.0
C1555 C 0.9878 0.59016 0.97418 0.0
C1556 C 0.97069 0.59708 0.98702 0.0
C1557 C 0.96539 0.59705 0.03233 0.0
C1558 C 1.00065 0.61461 0.86645 0.0
C1559 C 0.00797 0.60047 0.83991 0.0
C1560 C 0.99392 0.61105 0.90963 0.0
C1561 C 0.99456 0.59331 0.92763 0.0
C1562 C 1.00196 0.5791 0.90144 0.0
C1563 C 0.00845 0.58262 0.85759 0.0
H1564 H 0.17339 0.25747 0.83596 0.0
H1565 H 0.15568 0.20347 0.79573 0.0
H1566 H 0.17105 0.26773 0.75756 0.0
H1567 H 0.15325 0.21382 0.71747 0.0
H1568 H 0.16516 0.23567 0.57482 0.0
H1569 H 0.17148 0.22516 0.65172 0.0
H1570 H 0.14479 0.27311 0.70541 0.0
H1571 H 0.13854 0.28371 0.6287 0.0
C1572 C 0.16929 0.2477 0.81035 0.0
C1573 C 0.1647 0.22964 0.82219 0.0
C1574 C 0.16779 0.25364 0.7655 0.0
C1575 C 0.16182 0.24163 0.73144 0.0
C1576 C 0.158 0.22337 0.74291 0.0
C1577 C 0.15935 0.21746 0.78781 0.0
C1578 C 0.16067 0.244 0.60301 0.0
C1579 C 0.15124 0.26049 0.59557 0.0
C1580 C 0.16425 0.23794 0.64704 0.0
C1581 C 0.15866 0.24832 0.68459 0.0
C1582 C 0.14946 0.26491 0.67716 0.0
C1583 C 0.14574 0.2709 0.63318 0.0
H1584 H 0.49801 0.59219 0.91622 0.0
H1585 H 0.55523 0.60003 0.94755 0.0
H1586 H 0.49056 0.59381 0.99614 0.0
H1587 H 0.54757 0.60191 0.02836 0.0
H1588 H 0.48132 0.6267 0.12317 0.0
H1589 H 0.4915 0.62087 0.04666 0.0
H1590 H 0.53357 0.5848 0.09693 0.0
H1591 H 0.52338 0.59076 0.17481 0.0
C1592 C 0.50905 0.59411 0.94022 0.0
C1593 C 0.52719 0.59627 0.92548 0.0
C1594 C 0.50475 0.59507 0.98604 0.0
C1595 C 0.51844 0.59833 0.01833 0.0
C1596 C 0.53676 0.59938 0.0041 0.0
C1597 C 0.54112 0.59834 0.95793 0.0
C1598 C 0.49277 0.61753 0.1183 0.0
C1599 C 0.50147 0.60912 0.15527 0.0
C1600 C 0.49853 0.61411 0.07426 0.0
C1601 C 0.51315 0.60218 0.0658 0.0
C1602 C 0.52224 0.59405 0.10259 0.0
C1603 C 0.51638 0.59743 0.14704 0.0
H1604 H 0.1825 0.75919 0.66927 0.0
H1605 H 0.14008 0.79947 0.69006 0.0
H1606 H 0.18078 0.75089 0.74983 0.0
H1607 H 0.13822 0.79082 0.76965 0.0
H1608 H 0.1234 0.74342 0.87581 0.0
H1609 H 0.12877 0.75478 0.79921 0.0
H1610 H 0.18338 0.77107 0.83681 0.0
H1611 H 0.17787 0.76011 0.91453 0.0
C1612 C 0.17301 0.7664 0.69101 0.0
C1613 C 0.16143 0.77997 0.67322 0.0
C1614 C 0.1721 0.76171 0.73701 0.0
C1615 C 0.15938 0.77027 0.7656 0.0
C1616 C 0.14816 0.7841 0.74816 0.0
C1617 C 0.14929 0.78903 0.7026 0.0
C1618 C 0.13652 0.74952 0.86792 0.0
C1619 C 0.1502 0.75097 0.90116 0.0
C1620 C 0.13957 0.75602 0.82416 0.0
C1621 C 0.15647 0.76372 0.81238 0.0
C1622 C 0.17025 0.76513 0.84531 0.0
C1623 C 0.16705 0.75899 0.88963 0.0
H1624 H 0.96078 0.40783 0.44877 0.0
H1625 H 0.01792 0.40404 0.41231 0.0
H1626 H 0.96898 0.40471 0.52862 0.0
H1627 H 0.02606 0.40139 0.49168 0.0
H1628 H 0.9938 0.41624 0.66993 0.0
H1629 H 0.98457 0.42024 0.59114 0.0
H1630 H 0.02323 0.37873 0.55057 0.0
H1631 H 0.03276 0.37502 0.62881 0.0
C1632 C 0.97508 0.40656 0.45779 0.0
C1633 C 0.98868 0.40611 0.42416 0.0
C1634 C 0.97978 0.40483 0.50351 0.0
C1635 C 0.99815 0.40263 0.51643 0.0
C1636 C 0.01174 0.40267 0.48281 0.0
C1637 C 0.00707 0.40433 0.43727 0.0
C1638 C 1.00028 0.40792 0.64419 0.0
C1639 C 0.01406 0.39534 0.65567 0.0
C1640 C 0.99493 0.41017 0.59909 0.0
C1641 C 1.00325 0.3999 0.56458 0.0
C1642 C 0.01679 0.38711 0.57624 0.0
C1643 C 0.02217 0.38489 0.62119 0.0
H1644 H 0.35141 0.20726 0.19766 0.0
H1645 H 0.34393 0.26412 0.16227 0.0
H1646 H 0.35237 0.21564 0.27794 0.0
H1647 H 0.34452 0.27232 0.24185 0.0
H1648 H 0.37482 0.28282 0.37244 0.0
H1649 H 0.36995 0.27261 0.29556 0.0
H1650 H 0.33481 0.22926 0.34371 0.0
H1651 H 0.33992 0.23939 0.42187 0.0
C1652 C 0.34964 0.22146 0.20704 0.0
C1653 C 0.34789 0.23506 0.17367 0.0
C1654 C 0.35012 0.22624 0.25293 0.0
C1655 C 0.34881 0.24466 0.26601 0.0
C1656 C 0.34599 0.25806 0.23269 0.0
C1657 C 0.34561 0.25334 0.18708 0.0
C1658 C 0.36605 0.27109 0.36697 0.0
C1659 C 0.35773 0.26194 0.40342 0.0
C1660 C 0.36315 0.26532 0.32272 0.0
C1661 C 0.35181 0.25028 0.31358 0.0
C1662 C 0.34364 0.24089 0.34988 0.0
C1663 C 0.34652 0.24672 0.3945 0.0
H1664 H 0.14028 0.2189 0.41052 0.0
H1665 H 0.09006 0.24474 0.45337 0.0
H1666 H 0.123 0.19202 0.38614 0.0
H1667 H 0.07279 0.21791 0.42804 0.0
H1668 H 0.0522 0.17688 0.31363 0.0
H1669 H 0.06792 0.20317 0.34682 0.0
H1670 H 0.10192 0.1668 0.42514 0.0
H1671 H 0.08593 0.14041 0.39266 0.0
C1672 C 0.12556 0.21884 0.41474 0.0
C1673 C 0.11652 0.23394 0.43387 0.0
C1674 C 0.11572 0.20341 0.40107 0.0
C1675 C 0.0966 0.20291 0.4054 0.0
C1676 C 0.08753 0.21799 0.42436 0.0
C1677 C 0.09741 0.23329 0.43892 0.0
C1678 C 0.06289 0.1745 0.33835 0.0
C1679 C 0.06787 0.1566 0.3505 0.0
C1680 C 0.07181 0.18953 0.35743 0.0
C1681 C 0.08615 0.18697 0.38835 0.0
C1682 C 0.09095 0.1691 0.40118 0.0
C1683 C 0.08174 0.15404 0.38282 0.0
H1684 H 0.08759 0.79521 0.62301 0.0
H1685 H 0.10766 0.84439 0.55958 0.0
H1686 H 0.06155 0.81209 0.65324 0.0
H1687 H 0.08107 0.86102 0.58604 0.0
H1688 H 0.03944 0.8918 0.66749 0.0
H1689 H 0.06627 0.87485 0.64332 0.0
H1690 H 0.03402 0.82518 0.63949 0.0
H1691 H 0.0077 0.84211 0.66748 0.0
C1692 C 0.08631 0.80964 0.61535 0.0
C1693 C 0.09969 0.81855 0.58945 0.0
C1694 C 0.07126 0.81935 0.6322 0.0
C1695 C 0.06893 0.8381 0.62229 0.0
C1696 C 0.0824 0.84683 0.59579 0.0
C1697 C 0.09768 0.83726 0.58022 0.0
C1698 C 0.03817 0.87724 0.66146 0.0
C1699 C 0.02152 0.86826 0.66931 0.0
C1700 C 0.05355 0.86745 0.6472 0.0
C1701 C 0.05255 0.84847 0.63893 0.0
C1702 C 0.03567 0.83961 0.64632 0.0
C1703 C 0.02044 0.84934 0.66196 0.0
H1704 H 0.37679 0.77689 0.86232 0.0
H1705 H 0.41173 0.77365 0.98004 0.0
H1706 H 0.39406 0.80328 0.83541 0.0
H1707 H 0.42899 0.80019 0.95294 0.0
H1708 H 0.44042 0.86108 0.90727 0.0
H1709 H 0.42397 0.83455 0.9379 0.0
H1710 H 0.42606 0.80862 0.8068 0.0
H1711 H 0.44241 0.83479 0.7763 0.0
C1712 C 0.38814 0.78181 0.88251 0.0
C1713 C 0.39289 0.77311 0.92329 0.0
C1714 C 0.39808 0.79689 0.86698 0.0
C1715 C 0.4129 0.80379 0.89205 0.0
C1716 C 0.41755 0.79526 0.93309 0.0
C1717 C 0.40774 0.77999 0.94839 0.0
C1718 C 0.43745 0.84966 0.88511 0.0
C1719 C 0.44271 0.85013 0.83929 0.0
C1720 C 0.42809 0.83447 0.90268 0.0
C1721 C 0.42361 0.81958 0.87462 0.0
C1722 C 0.42911 0.81997 0.8291 0.0
C1723 C 0.4386 0.83497 0.81174 0.0
H1724 H 0.42341 0.18699 0.02939 0.0
H1725 H 0.40126 0.19771 0.16246 0.0
H1726 H 0.44951 0.17156 0.06353 0.0
H1727 H 0.42793 0.18248 0.19665 0.0
H1728 H 0.49484 0.1711 0.21461 0.0
H1729 H 0.46841 0.18856 0.1864 0.0
H1730 H 0.4476 0.14 0.12161 0.0
H1731 H 0.47352 0.12249 0.15041 0.0
C1732 C 0.42421 0.18625 0.06598 0.0
C1733 C 0.41024 0.19355 0.09327 0.0
C1734 C 0.43915 0.1774 0.08539 0.0
C1735 C 0.44068 0.17595 0.13254 0.0
C1736 C 0.42703 0.18358 0.16014 0.0
C1737 C 0.41178 0.19216 0.14062 0.0
C1738 C 0.48456 0.16418 0.19451 0.0
C1739 C 0.4862 0.14544 0.18478 0.0
C1740 C 0.46945 0.17412 0.17871 0.0
C1741 C 0.45604 0.16551 0.15214 0.0
C1742 C 0.45776 0.14686 0.14223 0.0
C1743 C 0.47257 0.13688 0.15874 0.0
H1744 H 0.13228 0.77628 0.12674 0.0
H1745 H 0.09672 0.77311 0.01012 0.0
H1746 H 0.11533 0.80276 0.15397 0.0
H1747 H 0.07978 0.79978 0.03757 0.0
H1748 H 0.06904 0.86079 0.08464 0.0
H1749 H 0.08533 0.83437 0.05298 0.0
H1750 H 0.0832 0.80766 0.18321 0.0
H1751 H 0.06704 0.83367 0.21469 0.0
C1752 C 0.12087 0.78125 0.10685 0.0
C1753 C 0.11582 0.77254 0.06632 0.0
C1754 C 0.11112 0.79638 0.12255 0.0
C1755 C 0.09623 0.80331 0.0979 0.0
C1756 C 0.09129 0.79479 0.05707 0.0
C1757 C 0.1009 0.77946 0.04159 0.0
C1758 C 0.072 0.84924 0.10638 0.0
C1759 C 0.06678 0.84942 0.15223 0.0
C1760 C 0.08124 0.83411 0.08823 0.0
C1761 C 0.08565 0.81904 0.11578 0.0
C1762 C 0.08021 0.81917 0.16132 0.0
C1763 C 0.07083 0.83409 0.17924 0.0
H1764 H 0.4815 0.88667 0.382 0.0
H1765 H 0.48614 0.84916 0.26956 0.0
H1766 H 0.4546 0.87009 0.40889 0.0
H1767 H 0.45916 0.83267 0.29653 0.0
H1768 H 0.39849 0.82064 0.33914 0.0
H1769 H 0.42462 0.83777 0.30856 0.0
H1770 H 0.44945 0.83845 0.4411 0.0
H1771 H 0.42369 0.82142 0.47152 0.0
C1772 C 0.47675 0.87495 0.36291 0.0
C1773 C 0.48602 0.86921 0.32374 0.0
C1774 C 0.46138 0.86543 0.3784 0.0
C1775 C 0.4548 0.85008 0.35479 0.0
C1776 C 0.46384 0.84453 0.31518 0.0
C1777 C 0.47937 0.8539 0.29999 0.0
C1778 C 0.40956 0.82443 0.36164 0.0
C1779 C 0.40898 0.81964 0.40774 0.0
C1780 C 0.42451 0.83417 0.34413 0.0
C1781 C 0.43899 0.83953 0.37256 0.0
C1782 C 0.43839 0.8347 0.41851 0.0
C1783 C 0.42365 0.8248 0.43581 0.0
H1784 H 0.41477 0.24332 0.52601 0.0
H1785 H 0.3699 0.22694 0.61233 0.0
H1786 H 0.43173 0.21614 0.54853 0.0
H1787 H 0.38703 0.19989 0.63532 0.0
H1788 H 0.41497 0.14432 0.63327 0.0
H1789 H 0.39818 0.17076 0.60496 0.0
H1790 H 0.4471 0.20363 0.61487 0.0
H1791 H 0.46398 0.17719 0.64246 0.0
C1792 C 0.40853 0.23397 0.5499 0.0
C1793 C 0.39093 0.23734 0.56727 0.0
C1794 C 0.4183 0.21841 0.56294 0.0
C1795 C 0.41073 0.2058 0.59362 0.0
C1796 C 0.39315 0.20918 0.61108 0.0
C1797 C 0.38339 0.22477 0.59814 0.0
C1798 C 0.42222 0.15712 0.62889 0.0
C1799 C 0.44084 0.15861 0.64035 0.0
C1800 C 0.41254 0.17232 0.61305 0.0
C1801 C 0.42124 0.18936 0.60804 0.0
C1802 C 0.43999 0.19069 0.61802 0.0
C1803 C 0.44967 0.17552 0.63401 0.0
H1804 H 0.11535 0.16547 0.88214 0.0
H1805 H 0.08233 0.21375 0.90279 0.0
H1806 H 0.08871 0.14927 0.85321 0.0
H1807 H 0.05563 0.1974 0.87419 0.0
H1808 H 0.03307 0.12021 0.86251 0.0
H1809 H 0.06004 0.13732 0.88618 0.0
H1810 H 0.04267 0.18328 0.80514 0.0
H1811 H 0.01557 0.16629 0.78171 0.0
C1812 C 0.10247 0.17271 0.88012 0.0
C1813 C 0.10099 0.19091 0.89506 0.0
C1814 C 0.08716 0.16335 0.86388 0.0
C1815 C 0.07002 0.17198 0.86188 0.0
C1816 C 0.06866 0.19039 0.87513 0.0
C1817 C 0.08397 0.19974 0.89163 0.0
C1818 C 0.03498 0.13396 0.84969 0.0
C1819 C 0.02216 0.14184 0.82007 0.0
C1820 C 0.05051 0.14372 0.86304 0.0
C1821 C 0.05355 0.16162 0.84732 0.0
C1822 C 0.04066 0.16957 0.81806 0.0
C1823 C 0.02517 0.15978 0.80449 0.0
H1824 H 0.91421 0.86523 0.63009 0.0
H1825 H 0.96333 0.83282 0.64335 0.0
H1826 H 0.89808 0.83875 0.59987 0.0
H1827 H 0.94707 0.8063 0.61361 0.0
H1828 H 0.91542 0.76662 0.52176 0.0
H1829 H 0.93221 0.79389 0.54512 0.0
H1830 H 0.88715 0.80951 0.63133 0.0
H1831 H 0.87027 0.78243 0.60776 0.0
C1832 C 0.92163 0.85252 0.62621 0.0
C1833 C 0.94004 0.85114 0.63948 0.0
C1834 C 0.91233 0.8373 0.6092 0.0
C1835 C 0.92124 0.82038 0.6048 0.0
C1836 C 0.93984 0.81916 0.61637 0.0
C1837 C 0.94913 0.83436 0.63359 0.0
C1838 C 0.90907 0.77588 0.54564 0.0
C1839 C 0.89146 0.77235 0.56275 0.0
C1840 C 0.91873 0.79147 0.55914 0.0
C1841 C 0.91097 0.80391 0.58987 0.0
C1842 C 0.89339 0.80035 0.60702 0.0
C1843 C 0.88377 0.78475 0.59372 0.0
H1844 H 0.89427 0.17217 0.34961 0.0
H1845 H 0.93016 0.2131 0.40649 0.0
H1846 H 0.92061 0.15658 0.31705 0.0
H1847 H 0.95647 0.19716 0.3757 0.0
H1848 H 1.00078 0.17032 0.29102 0.0
H1849 H 0.97386 0.18817 0.31202 0.0
H1850 H 0.94482 0.13821 0.34322 0.0
H1851 H 0.97132 0.12052 0.3207 0.0
C1852 C 0.90776 0.1779 0.35497 0.0
C1853 C 0.91007 0.19381 0.38099 0.0
C1854 C 0.92291 0.16887 0.33663 0.0
C1855 C 0.94078 0.17541 0.34425 0.0
C1856 C 0.94298 0.19176 0.36868 0.0
C1857 C 0.92783 0.20089 0.38659 0.0
C1858 C 0.9886 0.16319 0.30219 0.0
C1859 C 0.98819 0.14399 0.30398 0.0
C1860 C 0.97317 0.17341 0.31441 0.0
C1861 C 0.95704 0.16468 0.32914 0.0
C1862 C 0.95676 0.14547 0.33104 0.0
C1863 C 0.97207 0.13528 0.31843 0.0
H1864 H 0.5977 0.23626 0.01481 0.0
H1865 H 0.63346 0.23223 0.13084 0.0
H1866 H 0.58063 0.20951 0.04155 0.0
H1867 H 0.61637 0.20567 0.15743 0.0
H1868 H 0.56781 0.1745 0.21745 0.0
H1869 H 0.58432 0.20055 0.18697 0.0
H1870 H 0.58587 0.17482 0.05559 0.0
H1871 H 0.56925 0.14835 0.08627 0.0
C1872 C 0.6019 0.22972 0.04602 0.0
C1873 C 0.61692 0.23643 0.07076 0.0
C1874 C 0.59221 0.21433 0.06109 0.0
C1875 C 0.59716 0.20552 0.10157 0.0
C1876 C 0.61215 0.21225 0.12627 0.0
C1877 C 0.62197 0.22745 0.11095 0.0
C1878 C 0.57155 0.17431 0.18196 0.0
C1879 C 0.56721 0.15924 0.15433 0.0
C1880 C 0.58114 0.18925 0.16461 0.0
C1881 C 0.58649 0.18969 0.11901 0.0
C1882 C 0.58185 0.17486 0.09089 0.0
C1883 C 0.57242 0.1597 0.10847 0.0
H1884 H 0.51091 0.83884 0.7849 0.0
H1885 H 0.53976 0.88852 0.81906 0.0
H1886 H 0.53771 0.82095 0.80646 0.0
H1887 H 0.56616 0.87074 0.84206 0.0
H1888 H 0.61669 0.83689 0.84973 0.0
H1889 H 0.59067 0.85255 0.81591 0.0
H1890 H 0.55429 0.81169 0.87156 0.0
H1891 H 0.58032 0.79568 0.90371 0.0
C1892 C 0.52294 0.84593 0.79713 0.0
C1893 C 0.52321 0.86511 0.8001 0.0
C1894 C 0.53829 0.83568 0.80966 0.0
C1895 C 0.55419 0.84436 0.82585 0.0
C1896 C 0.55437 0.86355 0.82878 0.0
C1897 C 0.53914 0.87378 0.8159 0.0
C1898 C 0.60316 0.83111 0.85417 0.0
C1899 C 0.6006 0.81512 0.87979 0.0
C1900 C 0.5882 0.84017 0.83508 0.0
C1901 C 0.57029 0.83358 0.84154 0.0
C1902 C 0.56785 0.81713 0.86547 0.0
C1903 C 0.58282 0.80797 0.88416 0.0
H1904 H 0.92256 0.14344 0.89455 0.0
H1905 H 0.96232 0.17962 0.83371 0.0
H1906 H 0.90782 0.16952 0.93045 0.0
H1907 H 0.94718 0.20576 0.86802 0.0
H1908 H 0.92217 0.24936 0.95857 0.0
H1909 H 0.93959 0.22255 0.93444 0.0
H1910 H 0.88905 0.19392 0.90704 0.0
H1911 H 0.87184 0.22023 0.93249 0.0
C1912 C 0.92818 0.15696 0.88892 0.0
C1913 C 0.9435 0.15943 0.86089 0.0
C1914 C 0.91966 0.17196 0.90927 0.0
C1915 C 0.92612 0.18985 0.90167 0.0
C1916 C 0.94189 0.19222 0.87505 0.0
C1917 C 0.95053 0.1772 0.85511 0.0
C1918 C 0.91483 0.23726 0.94773 0.0
C1919 C 0.89562 0.23692 0.94774 0.0
C1920 C 0.92481 0.22191 0.93367 0.0
C1921 C 0.91577 0.20596 0.91897 0.0
C1922 C 0.89655 0.20572 0.91912 0.0
C1923 C 0.88663 0.22093 0.93347 0.0
H1924 H 0.58179 0.2091 0.55616 0.0
H1925 H 0.61752 0.17285 0.63021 0.0
H1926 H 0.55518 0.1929 0.58606 0.0
H1927 H 0.59077 0.15642 0.65963 0.0
H1928 H 0.53831 0.11933 0.64432 0.0
H1929 H 0.56539 0.13651 0.62055 0.0
H1930 H 0.53982 0.1867 0.66378 0.0
H1931 H 0.51283 0.16957 0.68818 0.0
C1932 C 0.58394 0.19775 0.57913 0.0
C1933 C 0.60174 0.19223 0.59083 0.0
C1934 C 0.56871 0.18852 0.59631 0.0
C1935 C 0.57093 0.17336 0.62493 0.0
C1936 C 0.58871 0.168 0.63734 0.0
C1937 C 0.60398 0.17748 0.62082 0.0
C1938 C 0.53844 0.13403 0.64869 0.0
C1939 C 0.5234 0.14309 0.6681 0.0
C1940 C 0.554 0.14383 0.63545 0.0
C1941 C 0.55472 0.16291 0.64057 0.0
C1942 C 0.53961 0.172 0.65942 0.0
C1943 C 0.52419 0.16218 0.67341 0.0
H1944 H 0.58798 0.76173 0.4622 0.0
H1945 H 0.63787 0.79076 0.43071 0.0
H1946 H 0.57019 0.7884 0.43874 0.0
H1947 H 0.62027 0.81693 0.40593 0.0
H1948 H 0.58664 0.86733 0.39463 0.0
H1949 H 0.60185 0.84143 0.4302 0.0
H1950 H 0.56156 0.80491 0.37278 0.0
H1951 H 0.54597 0.83086 0.33887 0.0
C1952 C 0.59514 0.77377 0.45025 0.0
C1953 C 0.61434 0.77413 0.44859 0.0
C1954 C 0.58495 0.78904 0.43661 0.0
C1955 C 0.59375 0.80494 0.42065 0.0
C1956 C 0.61297 0.80518 0.41904 0.0
C1957 C 0.6231 0.79005 0.43299 0.0
C1958 C 0.5809 0.8538 0.3901 0.0
C1959 C 0.56519 0.85118 0.36353 0.0
C1960 C 0.58969 0.8389 0.41023 0.0
C1961 C 0.58313 0.82097 0.40385 0.0
C1962 C 0.56696 0.81848 0.37884 0.0
C1963 C 0.55805 0.8334 0.35914 0.0
H1964 H 0.9996 0.83689 0.19464 0.0
H1965 H 0.9693 0.88688 0.1738 0.0
H1966 H 0.97335 0.81925 0.16759 0.0
H1967 H 0.9435 0.86944 0.14572 0.0
H1968 H 0.89367 0.83449 0.13462 0.0
H1969 H 0.9198 0.8495 0.16945 0.0
H1970 H 0.95626 0.81245 0.10003 0.0
H1971 H 0.93001 0.79701 0.06631 0.0
C1972 C 0.98737 0.84412 0.18428 0.0
C1973 C 0.98653 0.8633 0.18675 0.0
C1974 C 0.97235 0.83401 0.16854 0.0
C1975 C 0.9562 0.84288 0.15474 0.0
C1976 C 0.95549 0.86207 0.15703 0.0
C1977 C 0.97039 0.87211 0.17293 0.0
C1978 C 0.90725 0.82943 0.12706 0.0
C1979 C 0.90973 0.81465 0.09731 0.0
C1980 C 0.92227 0.83812 0.14683 0.0
C1981 C 0.94021 0.8324 0.13707 0.0
C1982 C 0.94267 0.81717 0.10861 0.0
C1983 C 0.9276 0.80835 0.08909 0.0
H1984 H 0.59101 0.74669 0.94333 0.0
H1985 H 0.64148 0.72097 0.90195 0.0
H1986 H 0.57394 0.71981 0.91833 0.0
H1987 H 0.62432 0.69396 0.87747 0.0
H1988 H 0.58709 0.64215 0.88469 0.0
H1989 H 0.60379 0.66859 0.91471 0.0
H1990 H 0.5682 0.70482 0.84042 0.0
H1991 H 0.55171 0.67853 0.80995 0.0
C1992 C 0.59847 0.73527 0.9291 0.0
C1993 C 0.61761 0.73598 0.92461 0.0
C1994 C 0.58868 0.71992 0.91469 0.0
C1995 C 0.59782 0.70479 0.89616 0.0
C1996 C 0.61696 0.70537 0.89207 0.0
C1997 C 0.62675 0.72088 0.90577 0.0
C1998 C 0.58272 0.65577 0.87522 0.0
C1999 C 0.5681 0.65827 0.84493 0.0
C2000 C 0.59236 0.67087 0.89209 0.0
C2001 C 0.58732 0.68873 0.87973 0.0
C2002 C 0.57233 0.69122 0.85067 0.0
C2003 C 0.56293 0.67616 0.83316 0.0
H2004 H 0.58286 0.29485 0.09641 0.0
H2005 H 0.61636 0.3431 0.11292 0.0
H2006 H 0.5565 0.31153 0.1255 0.0
H2007 H 0.59004 0.35966 0.14249 0.0
H2008 H 0.53444 0.38897 0.136 0.0
H2009 H 0.56121 0.37172 0.11178 0.0
H2010 H 0.54391 0.32598 0.19384 0.0
H2011 H 0.517 0.34313 0.21779 0.0
C2012 C 0.58468 0.30894 0.10675 0.0
C2013 C 0.60175 0.31763 0.10205 0.0
C2014 C 0.56956 0.31849 0.12359 0.0
C2015 C 0.57111 0.33699 0.13596 0.0
C2016 C 0.5883 0.34551 0.13257 0.0
C2017 C 0.60344 0.33595 0.11597 0.0
C2018 C 0.53631 0.37524 0.14894 0.0
C2019 C 0.52354 0.36748 0.17896 0.0
C2020 C 0.55175 0.36539 0.13527 0.0
C2021 C 0.55477 0.3475 0.15106 0.0
C2022 C 0.54193 0.33968 0.18079 0.0
C2023 C 0.52653 0.34956 0.19466 0.0
H2024 H 0.87506 0.27791 0.36557 0.0
H2025 H 0.91333 0.27157 0.47594 0.0
H2026 H 0.89217 0.30443 0.33867 0.0
H2027 H 0.93042 0.29819 0.44887 0.0
H2028 H 0.94334 0.35899 0.40756 0.0
H2029 H 0.92636 0.33282 0.43834 0.0
H2030 H 0.92335 0.30919 0.30468 0.0
H2031 H 0.94019 0.33502 0.27402 0.0
C2032 C 0.88707 0.28221 0.38421 0.0
C2033 C 0.89284 0.27258 0.42285 0.0
C2034 C 0.89692 0.29735 0.36867 0.0
C2035 C 0.91266 0.30336 0.39163 0.0
C2036 C 0.91827 0.29395 0.4307 0.0
C2037 C 0.90854 0.27864 0.44597 0.0
C2038 C 0.93911 0.34816 0.38486 0.0
C2039 C 0.94314 0.34913 0.33834 0.0
C2040 C 0.92945 0.33317 0.40249 0.0
C2041 C 0.92342 0.31904 0.37382 0.0
C2042 C 0.9276 0.31997 0.32751 0.0
C2043 C 0.9374 0.33475 0.31004 0.0
H2044 H 0.99924 0.67166 0.7006 0.0
H2045 H 0.96907 0.62178 0.67648 0.0
H2046 H 0.97266 0.68948 0.67662 0.0
H2047 H 0.94297 0.63939 0.65126 0.0
H2048 H 0.89305 0.67369 0.64086 0.0
H2049 H 0.91915 0.65877 0.67621 0.0
H2050 H 0.95558 0.69698 0.61017 0.0
H2051 H 0.92943 0.7123 0.5763 0.0
C2052 C 0.98697 0.66451 0.69016 0.0
C2053 C 0.98624 0.64531 0.69075 0.0
C2054 C 0.97176 0.67471 0.67624 0.0
C2055 C 0.95557 0.6659 0.6623 0.0
C2056 C 0.95498 0.6467 0.66282 0.0
C2057 C 0.97005 0.63656 0.677 0.0
C2058 C 0.90661 0.67903 0.63434 0.0
C2059 C 0.90915 0.69406 0.60537 0.0
C2060 C 0.92161 0.67042 0.65437 0.0
C2061 C 0.93954 0.67647 0.6455 0.0
C2062 C 0.942 0.692 0.6181 0.0
C2063 C 0.92698 0.70075 0.59844 0.0
H2064 H 0.58829 0.25992 0.54518 0.0
H2065 H 0.63857 0.28944 0.56908 0.0
H2066 H 0.57086 0.28615 0.57306 0.0
H2067 H 0.62137 0.31516 0.59812 0.0
H2068 H 0.58707 0.36528 0.61247 0.0
H2069 H 0.60203 0.33942 0.57629 0.0
H2070 H 0.56385 0.30256 0.6409 0.0
H2071 H 0.54847 0.32852 0.67572 0.0
C2072 C 0.59562 0.27197 0.55639 0.0
C2073 C 0.61481 0.27262 0.55451 0.0
C2074 C 0.58565 0.28698 0.57261 0.0
C2075 C 0.59467 0.30289 0.58759 0.0
C2076 C 0.61388 0.30339 0.58589 0.0
C2077 C 0.62378 0.28852 0.56944 0.0
C2078 C 0.58178 0.35167 0.6187 0.0
C2079 C 0.56668 0.34898 0.64734 0.0
C2080 C 0.59043 0.3368 0.59815 0.0
C2081 C 0.58434 0.31881 0.60609 0.0
C2082 C 0.56885 0.31618 0.63362 0.0
C2083 C 0.56008 0.33109 0.65383 0.0
H2084 H 0.93009 0.30188 0.94283 0.0
H2085 H 0.89475 0.33451 0.85804 0.0
H2086 H 0.95672 0.31828 0.91344 0.0
H2087 H 0.92145 0.35114 0.82927 0.0
H2088 H 0.97238 0.39046 0.84331 0.0
H2089 H 0.94552 0.37309 0.86804 0.0
H2090 H 0.97312 0.32268 0.8354 0.0
H2091 H 0.99986 0.33997 0.80994 0.0
C2092 C 0.92803 0.31247 0.91767 0.0
C2093 C 0.91033 0.31689 0.90268 0.0
C2094 C 0.94327 0.32181 0.90082 0.0
C2095 C 0.94111 0.33603 0.8693 0.0
C2096 C 0.92346 0.34031 0.85381 0.0
C2097 C 0.90822 0.3307 0.86998 0.0
C2098 C 0.97272 0.37568 0.84141 0.0
C2099 C 0.98824 0.36659 0.82459 0.0
C2100 C 0.95731 0.36576 0.85526 0.0
C2101 C 0.95725 0.34657 0.85343 0.0
C2102 C 0.97283 0.33747 0.83722 0.0
C2103 C 0.98809 0.34738 0.82256 0.0
H2104 H 0.96297 0.67458 0.13549 0.0
H2105 H 0.91364 0.64231 0.12403 0.0
H2106 H 0.94681 0.70103 0.10512 0.0
H2107 H 0.8976 0.66872 0.09317 0.0
H2108 H 0.87019 0.72514 0.10326 0.0
H2109 H 0.88705 0.69791 0.12526 0.0
H2110 H 0.93153 0.71373 0.03732 0.0
H2111 H 0.9147 0.74121 0.01541 0.0
C2112 C 0.94876 0.67304 0.1259 0.0
C2113 C 0.93957 0.65634 0.13262 0.0
C2114 C 0.93952 0.68819 0.1083 0.0
C2115 C 0.92087 0.68703 0.09719 0.0
C2116 C 0.91189 0.67014 0.10213 0.0
C2117 C 0.92114 0.65495 0.1195 0.0
C2118 C 0.88355 0.72285 0.08845 0.0
C2119 C 0.89106 0.73539 0.05745 0.0
C2120 C 0.89316 0.70714 0.10085 0.0
C2121 C 0.91058 0.70357 0.08278 0.0
C2122 C 0.91817 0.71614 0.05199 0.0
C2123 C 0.9085 0.73185 0.03935 0.0
H2124 H 0.52441 0.66221 0.26699 0.0
H2125 H 0.52866 0.6256 0.38143 0.0
H2126 H 0.55068 0.67952 0.29496 0.0
H2127 H 0.55486 0.64298 0.40929 0.0
H2128 H 0.58537 0.69173 0.47125 0.0
H2129 H 0.55964 0.67475 0.44048 0.0
H2130 H 0.58501 0.67506 0.30851 0.0
H2131 H 0.61104 0.69213 0.33936 0.0
C2132 C 0.53094 0.65785 0.29809 0.0
C2133 C 0.52441 0.64253 0.32204 0.0
C2134 C 0.54605 0.6677 0.31389 0.0
C2135 C 0.55479 0.66262 0.3543 0.0
C2136 C 0.54829 0.64731 0.37821 0.0
C2137 C 0.53334 0.63731 0.36214 0.0
C2138 C 0.5855 0.68832 0.43557 0.0
C2139 C 0.60033 0.6933 0.40777 0.0
C2140 C 0.57078 0.67845 0.41807 0.0
C2141 C 0.57037 0.67346 0.37221 0.0
C2142 C 0.58495 0.67878 0.344 0.0
C2143 C 0.59986 0.68849 0.36168 0.0
H2144 H 0.37677 0.29305 0.02591 0.0
H2145 H 0.41671 0.25713 0.0863 0.0
H2146 H 0.39387 0.31946 0.05235 0.0
H2147 H 0.43339 0.28354 0.11521 0.0
H2148 H 0.46722 0.33493 0.13568 0.0
H2149 H 0.45201 0.30885 0.10034 0.0
H2150 H 0.3998 0.3357 0.11773 0.0
H2151 H 0.41508 0.36193 0.15055 0.0
C2152 C 0.38919 0.29081 0.04513 0.0
C2153 C 0.39536 0.27301 0.05415 0.0
C2154 C 0.39896 0.30598 0.06065 0.0
C2155 C 0.41498 0.30378 0.08654 0.0
C2156 C 0.4213 0.28589 0.09491 0.0
C2157 C 0.41168 0.2707 0.07857 0.0
C2158 C 0.4525 0.33526 0.13148 0.0
C2159 C 0.44238 0.35053 0.14574 0.0
C2160 C 0.44374 0.32025 0.11153 0.0
C2161 C 0.4246 0.32003 0.10601 0.0
C2162 C 0.41456 0.33541 0.12027 0.0
C2163 C 0.42334 0.35049 0.13944 0.0
H2164 H 0.49927 0.67049 0.79729 0.0
H2165 H 0.47074 0.62013 0.82674 0.0
H2166 H 0.4726 0.68787 0.82191 0.0
H2167 H 0.44443 0.6374 0.85288 0.0
H2168 H 0.39361 0.67161 0.86228 0.0
H2169 H 0.41976 0.65586 0.82934 0.0
H2170 H 0.45601 0.69623 0.88742 0.0
H2171 H 0.42984 0.71232 0.91876 0.0
C2172 C 0.48735 0.66313 0.80923 0.0
C2173 C 0.48713 0.64391 0.80986 0.0
C2174 C 0.47206 0.6731 0.82356 0.0
C2175 C 0.45625 0.6641 0.83931 0.0
C2176 C 0.45614 0.64486 0.84008 0.0
C2177 C 0.47133 0.63492 0.82537 0.0
C2178 C 0.40715 0.67722 0.86762 0.0
C2179 C 0.40959 0.69318 0.8934 0.0
C2180 C 0.42219 0.66811 0.84901 0.0
C2181 C 0.4401 0.67461 0.85606 0.0
C2182 C 0.44247 0.69088 0.88076 0.0
C2183 C 0.42741 0.70009 0.89899 0.0
H2184 H 0.08421 0.64197 0.60489 0.0
H2185 H 0.04992 0.67797 0.68371 0.0
H2186 H 0.10019 0.66857 0.57334 0.0
H2187 H 0.06565 0.70448 0.65143 0.0
H2188 H 0.08852 0.74644 0.54536 0.0
H2189 H 0.071 0.7197 0.57068 0.0
H2190 H 0.12096 0.69358 0.61351 0.0
H2191 H 0.13844 0.72032 0.58922 0.0
C2192 C 0.07989 0.65555 0.61488 0.0
C2193 C 0.06587 0.6579 0.64689 0.0
C2194 C 0.08909 0.67073 0.59704 0.0
C2195 C 0.08415 0.68853 0.61009 0.0
C2196 C 0.06965 0.6909 0.64067 0.0
C2197 C 0.06073 0.67574 0.65923 0.0
C2198 C 0.09574 0.73498 0.56016 0.0
C2199 C 0.11485 0.73551 0.5654 0.0
C2200 C 0.08573 0.71973 0.57468 0.0
C2201 C 0.09467 0.70457 0.59373 0.0
C2202 C 0.11377 0.70501 0.59849 0.0
C2203 C 0.12373 0.72038 0.5849 0.0
H2204 H 0.0779 0.29539 0.42138 0.0
H2205 H 0.11543 0.33161 0.35257 0.0
H2206 H 0.0522 0.31077 0.3851 0.0
H2207 H 0.08986 0.34651 0.31504 0.0
H2208 H 0.04127 0.38503 0.30948 0.0
H2209 H 0.06666 0.36708 0.33729 0.0
H2210 H 0.03544 0.31755 0.31706 0.0
H2211 H 0.00953 0.33577 0.29029 0.0
C2212 C 0.08069 0.30642 0.39788 0.0
C2213 C 0.0987 0.31246 0.39038 0.0
C2214 C 0.06593 0.31519 0.37686 0.0
C2215 C 0.06889 0.33008 0.34756 0.0
C2216 C 0.087 0.33542 0.33829 0.0
C2217 C 0.1017 0.3268 0.35963 0.0
C2218 C 0.03978 0.3703 0.31052 0.0
C2219 C 0.02334 0.36186 0.29741 0.0
C2220 C 0.05446 0.35995 0.32626 0.0
C2221 C 0.05324 0.3408 0.32909 0.0
C2222 C 0.03683 0.33228 0.31566 0.0
C2223 C 0.02201 0.3427 0.30007 0.0
H2224 H 0.37908 0.71759 0.47288 0.0
H2225 H 0.41758 0.75388 0.40793 0.0
H2226 H 0.39649 0.69135 0.44708 0.0
H2227 H 0.43463 0.7275 0.37969 0.0
H2228 H 0.46883 0.67609 0.35962 0.0
H2229 H 0.45379 0.70232 0.39466 0.0
H2230 H 0.4016 0.67501 0.38124 0.0
H2231 H 0.41669 0.64868 0.34856 0.0
C2232 C 0.39128 0.71994 0.45284 0.0
C2233 C 0.39691 0.73779 0.44219 0.0
C2234 C 0.40122 0.70486 0.43768 0.0
C2235 C 0.41687 0.70716 0.41053 0.0
C2236 C 0.42278 0.72511 0.40085 0.0
C2237 C 0.41297 0.74026 0.41684 0.0
C2238 C 0.45416 0.67567 0.36464 0.0
C2239 C 0.44398 0.66024 0.35147 0.0
C2240 C 0.4455 0.69078 0.38442 0.0
C2241 C 0.42642 0.6909 0.391 0.0
C2242 C 0.41633 0.67537 0.37787 0.0
C2243 C 0.425 0.66022 0.35878 0.0
H2244 H 0.01354 0.66609 0.20715 0.0
H2245 H 0.03093 0.62002 0.12635 0.0
H2246 H 0.04044 0.68322 0.18262 0.0
H2247 H 0.05767 0.63724 0.10157 0.0
H2248 H 0.11304 0.66552 0.10429 0.0
H2249 H 0.08642 0.64919 0.13306 0.0
H2250 H 0.05335 0.69745 0.11393 0.0
H2251 H 0.08003 0.71393 0.08555 0.0
C2252 C 0.02306 0.65962 0.18408 0.0
C2253 C 0.02008 0.64162 0.1689 0.0
C2254 C 0.03844 0.66948 0.16988 0.0
C2255 C 0.05126 0.66157 0.14034 0.0
C2256 C 0.04821 0.64363 0.12492 0.0
C2257 C 0.0328 0.6338 0.13891 0.0
C2258 C 0.10015 0.67275 0.10658 0.0
C2259 C 0.0987 0.69105 0.09234 0.0
C2260 C 0.08484 0.66331 0.12275 0.0
C2261 C 0.06771 0.67195 0.12537 0.0
C2262 C 0.06636 0.69042 0.11257 0.0
C2263 C 0.08166 0.69985 0.09615 0.0
H2264 H 0.04517 0.33369 0.86394 0.0
H2265 H 0.09497 0.36542 0.87191 0.0
H2266 H 0.06146 0.30697 0.89213 0.0
H2267 H 0.11116 0.33871 0.90074 0.0
H2268 H 0.09407 0.26605 0.97742 0.0
H2269 H 0.0774 0.29381 0.95772 0.0
H2270 H 0.12101 0.30955 0.86704 0.0
H2271 H 0.1378 0.28197 0.88702 0.0
C2272 C 0.05952 0.33506 0.87242 0.0
C2273 C 0.0688 0.35168 0.86526 0.0
C2274 C 0.06884 0.31974 0.88873 0.0
C2275 C 0.08765 0.32066 0.89814 0.0
C2276 C 0.09673 0.33749 0.89301 0.0
C2277 C 0.0874 0.35284 0.8769 0.0
C2278 C 0.10012 0.27542 0.95328 0.0
C2279 C 0.11731 0.27178 0.93389 0.0
C2280 C 0.09053 0.29131 0.94193 0.0
C2281 C 0.09793 0.30394 0.91107 0.0
C2282 C 0.11507 0.30026 0.89156 0.0
C2283 C 0.12463 0.28436 0.90275 0.0
H2284 H 0.49281 0.34189 0.72167 0.0
H2285 H 0.47686 0.38689 0.63533 0.0
H2286 H 0.46557 0.32495 0.69802 0.0
H2287 H 0.44987 0.36996 0.61179 0.0
H2288 H 0.42614 0.2946 0.59704 0.0
H2289 H 0.45286 0.31032 0.62781 0.0
H2290 H 0.42071 0.35927 0.64568 0.0
H2291 H 0.39406 0.34371 0.6147 0.0
C2292 C 0.48353 0.34816 0.69768 0.0
C2293 C 0.487 0.36579 0.68057 0.0
C2294 C 0.46798 0.33843 0.68406 0.0
C2295 C 0.45551 0.3462 0.65338 0.0
C2296 C 0.45905 0.36374 0.63609 0.0
C2297 C 0.47462 0.37339 0.64939 0.0
C2298 C 0.42471 0.30866 0.60796 0.0
C2299 C 0.40798 0.31795 0.60294 0.0
C2300 C 0.44001 0.31763 0.62577 0.0
C2301 C 0.43893 0.33608 0.63867 0.0
C2302 C 0.42204 0.34513 0.63532 0.0
C2303 C 0.40673 0.33616 0.61781 0.0
H2304 H 0.11022 0.16471 0.00233 0.0
H2305 H 0.15925 0.16927 0.0826 0.0
H2306 H 0.09814 0.14216 0.05379 0.0
H2307 H 0.14739 0.14578 0.13461 0.0
H2308 H 0.10297 0.13421 0.24768 0.0
H2309 H 0.12442 0.14579 0.19132 0.0
H2310 H 0.09706 0.11391 0.0882 0.0
H2311 H 0.07484 0.1036 0.14427 0.0
C2312 C 0.11868 0.16034 0.03048 0.0
C2313 C 0.13555 0.16879 0.03886 0.0
C2314 C 0.11183 0.14721 0.05998 0.0
C2315 C 0.12169 0.14208 0.09886 0.0
C2316 C 0.1393 0.14956 0.10537 0.0
C2317 C 0.14621 0.16284 0.07546 0.0
C2318 C 0.10193 0.12932 0.21315 0.0
C2319 C 0.08717 0.11827 0.19996 0.0
C2320 C 0.11428 0.13588 0.18075 0.0
C2321 C 0.11225 0.1312 0.13475 0.0
C2322 C 0.0987 0.11834 0.12294 0.0
C2323 C 0.08605 0.11226 0.15503 0.0
H2324 H 0.13794 0.85494 0.49161 0.0
H2325 H 0.13681 0.81589 0.38242 0.0
H2326 H 0.12493 0.87827 0.44125 0.0
H2327 H 0.12424 0.83911 0.33187 0.0
H2328 H 0.06837 0.88958 0.36103 0.0
H2329 H 0.09201 0.87668 0.40969 0.0
H2330 H 0.12766 0.87068 0.29415 0.0
H2331 H 0.10409 0.88375 0.24535 0.0
C2332 C 0.13571 0.85166 0.45626 0.0
C2333 C 0.13848 0.8338 0.44044 0.0
C2334 C 0.12816 0.86491 0.42763 0.0
C2335 C 0.12358 0.86048 0.38272 0.0
C2336 C 0.12787 0.84299 0.36611 0.0
C2337 C 0.13504 0.8297 0.39492 0.0
C2338 C 0.08146 0.88603 0.34623 0.0
C2339 C 0.08427 0.88743 0.2993 0.0
C2340 C 0.09504 0.87877 0.37415 0.0
C2341 C 0.1116 0.87256 0.35556 0.0
C2342 C 0.11498 0.87531 0.30924 0.0
C2343 C 0.10148 0.88283 0.28139 0.0
H2344 H 0.40466 0.88529 0.74896 0.0
H2345 H 0.44028 0.89132 0.63312 0.0
H2346 H 0.38114 0.87203 0.70032 0.0
H2347 H 0.41685 0.87805 0.58476 0.0
H2348 H 0.36973 0.81784 0.61507 0.0
H2349 H 0.3826 0.84118 0.66433 0.0
H2350 H 0.38547 0.87865 0.55148 0.0
H2351 H 0.37262 0.85522 0.50192 0.0
C2352 C 0.40727 0.88434 0.71294 0.0
C2353 C 0.42444 0.88906 0.69495 0.0
C2354 C 0.39381 0.87666 0.68516 0.0
C2355 C 0.39722 0.87381 0.63887 0.0
C2356 C 0.41374 0.88017 0.62024 0.0
C2357 C 0.42723 0.88766 0.64802 0.0
C2358 C 0.37261 0.83122 0.60101 0.0
C2359 C 0.37046 0.83457 0.55447 0.0
C2360 C 0.37987 0.84466 0.62933 0.0
C2361 C 0.38525 0.86168 0.61162 0.0
C2362 C 0.38162 0.86558 0.5659 0.0
C2363 C 0.37417 0.85218 0.53761 0.0
H2364 H 0.44516 0.12624 0.85172 0.0
H2365 H 0.40311 0.12069 0.75034 0.0
H2366 H 0.42269 0.13809 0.90531 0.0
H2367 H 0.3805 0.13306 0.80376 0.0
H2368 H 0.36831 0.19006 0.88304 0.0
H2369 H 0.38125 0.16684 0.83315 0.0
H2370 H 0.39217 0.13235 0.94862 0.0
H2371 H 0.37899 0.15547 -0.00135 0.0
C2372 C 0.43093 0.12698 0.84161 0.0
C2373 C 0.42571 0.12248 0.79738 0.0
C2374 C 0.41807 0.1337 0.8722 0.0
C2375 C 0.39987 0.13648 0.8586 0.0
C2376 C 0.39444 0.13096 0.81503 0.0
C2377 C 0.40728 0.12382 0.78468 0.0
C2378 C 0.37294 0.17727 0.89761 0.0
C2379 C 0.37286 0.17466 0.94473 0.0
C2380 C 0.38022 0.16393 0.86903 0.0
C2381 C 0.38779 0.14788 0.88716 0.0
C2382 C 0.38643 0.14465 0.93391 0.0
C2383 C 0.37885 0.15786 0.96245 0.0
H2384 H 0.90056 0.8891 0.75042 0.0
H2385 H 0.94289 0.88409 0.8512 0.0
H2386 H 0.87804 0.87723 0.80491 0.0
H2387 H 0.92053 0.87274 0.90581 0.0
H2388 H 0.87738 0.85634 0.00174 0.0
H2389 H 0.89053 0.87905 0.94989 0.0
H2390 H 0.87814 0.84385 0.83666 0.0
H2391 H 0.86537 0.82114 0.88863 0.0
C2392 C 0.90484 0.88617 0.78478 0.0
C2393 C 0.92333 0.88756 0.79701 0.0
C2394 C 0.89203 0.87931 0.81578 0.0
C2395 C 0.89754 0.87413 0.85959 0.0
C2396 C 0.91582 0.87688 0.87257 0.0
C2397 C 0.92864 0.88331 0.84137 0.0
C2398 C 0.87677 0.85391 0.96559 0.0
C2399 C 0.87022 0.83721 0.94884 0.0
C2400 C 0.88439 0.8668 0.93601 0.0
C2401 C 0.88537 0.86319 0.8893 0.0
C2402 C 0.87734 0.84712 0.87238 0.0
C2403 C 0.87003 0.83412 0.90202 0.0
H2404 H 0.92692 0.10203 0.66208 0.0
H2405 H 0.91142 0.14804 0.74474 0.0
H2406 H 0.9062 0.11269 0.60209 0.0
H2407 H 0.8906 0.15853 0.6857 0.0
H2408 H 0.85266 0.17425 0.57534 0.0
H2409 H 0.863 0.15283 0.63423 0.0
H2410 H 0.91176 0.14181 0.55635 0.0
H2411 H 0.90159 0.16329 0.49853 0.0
C2412 C 0.91851 0.11398 0.66802 0.0
C2413 C 0.92065 0.12426 0.70771 0.0
C2414 C 0.90675 0.12012 0.63379 0.0
C2415 C 0.89681 0.13646 0.63922 0.0
C2416 C 0.89787 0.14579 0.6807 0.0
C2417 C 0.90983 0.13985 0.7144 0.0
C2418 C 0.86525 0.16672 0.57035 0.0
C2419 C 0.8764 0.17036 0.53276 0.0
C2420 C 0.8712 0.15456 0.60397 0.0
C2421 C 0.88819 0.14566 0.59986 0.0
C2422 C 0.89851 0.14824 0.56026 0.0
C2423 C 0.89276 0.16062 0.52729 0.0
H2424 H 0.64052 0.19093 0.38008 0.0
H2425 H 0.63503 0.15492 0.49529 0.0
H2426 H 0.62659 0.16785 0.33177 0.0
H2427 H 0.62102 0.13177 0.44674 0.0
H2428 H 0.56631 0.12084 0.36246 0.0
H2429 H 0.58976 0.13384 0.41135 0.0
H2430 H 0.6271 0.13627 0.29823 0.0
H2431 H 0.60362 0.12324 0.24911 0.0
C2432 C 0.63684 0.17786 0.3948 0.0
C2433 C 0.63866 0.17483 0.44156 0.0
C2434 C 0.62895 0.16458 0.36706 0.0
C2435 C 0.62254 0.14807 0.3856 0.0
C2436 C 0.6257 0.14444 0.43167 0.0
C2437 C 0.63383 0.15766 0.45937 0.0
C2438 C 0.57968 0.12367 0.34826 0.0
C2439 C 0.583 0.12127 0.30178 0.0
C2440 C 0.59317 0.13101 0.37636 0.0
C2441 C 0.61021 0.13625 0.35848 0.0
C2442 C 0.61403 0.13251 0.31279 0.0
C2443 C 0.60059 0.12496 0.28475 0.0
H2444 H 0.65617 0.83321 0.07871 0.0
H2445 H 0.60907 0.84644 -0.0027 0.0
H2446 H 0.64532 0.85421 0.13787 0.0
H2447 H 0.59844 0.8676 0.05542 0.0
H2448 H 0.58345 0.90701 0.16409 0.0
H2449 H 0.6046 0.89626 0.10503 0.0
H2450 H 0.61592 0.848 0.18447 0.0
H2451 H 0.59462 0.85851 0.2424 0.0
C2452 C 0.64392 0.84117 0.07281 0.0
C2453 C 0.63338 0.83829 0.03382 0.0
C2454 C 0.63769 0.8531 0.10656 0.0
C2455 C 0.62104 0.86252 0.10117 0.0
C2456 C 0.61141 0.86073 0.06028 0.0
C2457 C 0.61742 0.84856 0.02715 0.0
C2458 C 0.59095 0.89442 0.1693 0.0
C2459 C 0.58745 0.8835 0.20738 0.0
C2460 C 0.60297 0.88826 0.13564 0.0
C2461 C 0.61191 0.87132 0.14027 0.0
C2462 C 0.60944 0.8612 0.18023 0.0
C2463 C 0.59717 0.86714 0.21321 0.0
H2464 H 0.60572 0.62282 0.74304 0.0
H2465 H 0.56714 0.62258 0.63222 0.0
H2466 H 0.62917 0.63518 0.69268 0.0
H2467 H 0.5905 0.63496 0.58219 0.0
H2468 H 0.63444 0.65574 0.49553 0.0
H2469 H 0.62089 0.63232 0.54411 0.0
H2470 H 0.62972 0.66678 0.66079 0.0
H2471 H 0.64326 0.69009 0.61247 0.0
C2472 C 0.60238 0.6249 0.70768 0.0
C2473 C 0.58448 0.62204 0.69176 0.0
C2474 C 0.6158 0.63204 0.67893 0.0
C2475 C 0.61163 0.63621 0.63364 0.0
C2476 C 0.5942 0.63177 0.61681 0.0
C2477 C 0.58075 0.62482 0.64561 0.0
C2478 C 0.63408 0.65803 0.53175 0.0
C2479 C 0.63964 0.67487 0.55016 0.0
C2480 C 0.62622 0.64466 0.55949 0.0
C2481 C 0.62403 0.64781 0.60613 0.0
C2482 C 0.6313 0.66388 0.62504 0.0
C2483 C 0.63896 0.6773 0.5973 0.0
H2484 H 0.6076 0.38615 0.75005 0.0
H2485 H 0.56823 0.38815 0.85855 0.0
H2486 H 0.63051 0.37374 0.80252 0.0
H2487 H 0.59106 0.37623 0.91115 0.0
H2488 H 0.63562 0.35653 0.0006 0.0
H2489 H 0.62314 0.37967 0.94883 0.0
H2490 H 0.62711 0.34126 0.83831 0.0
H2491 H 0.63907 0.3182 0.89021 0.0
C2492 C 0.60416 0.38472 0.78556 0.0
C2493 C 0.58631 0.38817 0.80065 0.0
C2494 C 0.61718 0.37755 0.81544 0.0
C2495 C 0.61254 0.37405 0.86085 0.0
C2496 C 0.5951 0.37904 0.87654 0.0
C2497 C 0.58203 0.38581 0.84652 0.0
C2498 C 0.63447 0.35338 0.96487 0.0
C2499 C 0.63842 0.33576 0.94898 0.0
C2500 C 0.62727 0.36654 0.93539 0.0
C2501 C 0.62422 0.36226 0.88959 0.0
C2502 C 0.62959 0.34504 0.87323 0.0
C2503 C 0.6364 0.33183 0.90285 0.0
H2504 H 0.89119 0.34832 0.99534 0.0
H2505 H 0.85502 0.32926 0.10044 0.0
H2506 H 0.90481 0.36992 0.04716 0.0
H2507 H 0.86712 0.35233 0.15192 0.0
H2508 H 0.93212 0.4057 0.14339 0.0
H2509 H 0.9088 0.39396 0.09206 0.0
H2510 H 0.89144 0.35584 0.19611 0.0
H2511 H 0.9133 0.36908 0.24779 0.0
C2512 C 0.88559 0.34944 0.02922 0.0
C2513 C 0.87218 0.33716 0.04416 0.0
C2514 C 0.89334 0.36196 0.05924 0.0
C2515 C 0.88747 0.36287 0.10471 0.0
C2516 C 0.87266 0.35168 0.118 0.0
C2517 C 0.86543 0.33863 0.08836 0.0
C2518 C 0.92275 0.39528 0.15535 0.0
C2519 C 0.92435 0.38831 0.19933 0.0
C2520 C 0.90955 0.38826 0.1258 0.0
C2521 C 0.89832 0.37345 0.13893 0.0
C2522 C 0.8994 0.36733 0.18418 0.0
C2523 C 0.91208 0.37487 0.21412 0.0
H2524 H 0.91003 0.64546 0.24722 0.0
H2525 H 0.92585 0.60047 0.33305 0.0
H2526 H 0.88867 0.65607 0.30479 0.0
H2527 H 0.9045 0.61123 0.39156 0.0
H2528 H 0.8992 0.66287 0.49138 0.0
H2529 H 0.90948 0.64059 0.43569 0.0
H2530 H 0.86109 0.65085 0.35576 0.0
H2531 H 0.85067 0.67313 0.41252 0.0
C2532 C 0.90841 0.63752 0.27797 0.0
C2533 C 0.9195 0.62223 0.28605 0.0
C2534 C 0.89611 0.6435 0.31081 0.0
C2535 C 0.89495 0.63451 0.35275 0.0
C2536 C 0.90513 0.61839 0.35949 0.0
C2537 C 0.91726 0.61221 0.32612 0.0
C2538 C 0.89048 0.65987 0.46265 0.0
C2539 C 0.87424 0.66966 0.45586 0.0
C2540 C 0.89627 0.64702 0.43093 0.0
C2541 C 0.88611 0.64401 0.3913 0.0
C2542 C 0.86917 0.65292 0.38606 0.0
C2543 C 0.86318 0.66559 0.41843 0.0
H2544 H 0.40253 0.38681 0.24852 0.0
H2545 H 0.44213 0.38857 0.35651 0.0
H2546 H 0.37962 0.3745 0.30127 0.0
H2547 H 0.41929 0.37675 0.40939 0.0
H2548 H 0.3745 0.35826 0.49993 0.0
H2549 H 0.38747 0.38087 0.44741 0.0
H2550 H 0.38218 0.34216 0.33786 0.0
H2551 H 0.36965 0.31959 0.39052 0.0
C2552 C 0.40602 0.38533 0.28398 0.0
C2553 C 0.42392 0.38875 0.29886 0.0
C2554 C 0.39301 0.3782 0.31401 0.0
C2555 C 0.39769 0.37471 0.35939 0.0
C2556 C 0.41521 0.37956 0.37482 0.0
C2557 C 0.42828 0.38629 0.34465 0.0
C2558 C 0.37545 0.35495 0.46425 0.0
C2559 C 0.37096 0.33737 0.44886 0.0
C2560 C 0.38295 0.36779 0.43434 0.0
C2561 C 0.3858 0.36326 0.3886 0.0
C2562 C 0.37989 0.34613 0.37273 0.0
C2563 C 0.37275 0.33321 0.40277 0.0
H2564 H 0.40363 0.62199 0.24333 0.0
H2565 H 0.44525 0.62604 0.14038 0.0
H2566 H 0.38091 0.63409 0.18977 0.0
H2567 H 0.42266 0.63759 0.08669 0.0
H2568 H 0.37855 0.65421 0.99305 0.0
H2569 H 0.39191 0.63152 0.04459 0.0
H2570 H 0.38185 0.66761 0.1575 0.0
H2571 H 0.36891 0.69031 0.1058 0.0
C2572 C 0.40768 0.62475 0.2087 0.0
C2573 C 0.42604 0.62304 0.19557 0.0
C2574 C 0.39477 0.63173 0.17825 0.0
C2575 C 0.40004 0.63672 0.13412 0.0
C2576 C 0.41815 0.63362 0.12023 0.0
C2577 C 0.43109 0.62706 0.15089 0.0
C2578 C 0.37855 0.65688 0.02914 0.0
C2579 C 0.37259 0.67379 0.04585 0.0
C2580 C 0.38625 0.64399 0.0585 0.0
C2581 C 0.38788 0.64783 0.10497 0.0
C2582 C 0.38052 0.66419 0.12197 0.0
C2583 C 0.37314 0.67718 0.0925 0.0
H2584 H 0.07003 0.61559 0.8576 0.0
H2585 H 0.10388 0.62623 0.74064 0.0
H2586 H 0.0934 0.62888 0.90647 0.0
H2587 H 0.12718 0.63979 0.78966 0.0
H2588 H 0.1333 0.69331 0.88443 0.0
H2589 H 0.12162 0.67033 0.83197 0.0
H2590 H 0.12705 0.62898 0.9355 0.0
H2591 H 0.13925 0.6521 0.98781 0.0
C2592 C 0.08272 0.62024 0.84252 0.0
C2593 C 0.08505 0.62006 0.7953 0.0
C2594 C 0.09615 0.62776 0.87053 0.0
C2595 C 0.11203 0.63548 0.85176 0.0
C2596 C 0.11503 0.63395 0.80491 0.0
C2597 C 0.10172 0.62613 0.77693 0.0
C2598 C 0.1327 0.67916 0.89524 0.0
C2599 C 0.13725 0.67435 0.93977 0.0
C2600 C 0.12607 0.66599 0.86527 0.0
C2601 C 0.12342 0.64788 0.87972 0.0
C2602 C 0.12903 0.64284 0.92354 0.0
C2603 C 0.13609 0.65599 0.95328 0.0
H2604 H 0.08514 0.40641 0.66612 0.0
H2605 H 0.0978 0.35949 0.74879 0.0
H2606 H 0.10646 0.39535 0.60785 0.0
H2607 H 0.11914 0.3486 0.69154 0.0
H2608 H 0.15768 0.33132 0.58551 0.0
H2609 H 0.14754 0.35329 0.64325 0.0
H2610 H 0.10075 0.36682 0.56056 0.0
H2611 H 0.11075 0.34481 0.5038 0.0
C2612 C 0.09302 0.39414 0.67246 0.0
C2613 C 0.08986 0.3837 0.71152 0.0
C2614 C 0.10513 0.38778 0.63922 0.0
C2615 C 0.11443 0.37109 0.64513 0.0
C2616 C 0.11239 0.3616 0.68618 0.0
C2617 C 0.10008 0.36775 0.71882 0.0
C2618 C 0.14562 0.33952 0.57923 0.0
C2619 C 0.13492 0.33647 0.54059 0.0
C2620 C 0.13978 0.35201 0.61217 0.0
C2621 C 0.12333 0.36174 0.60641 0.0
C2622 C 0.11358 0.35974 0.56575 0.0
C2623 C 0.11923 0.34708 0.53339 0.0
loop_
_geom_bond_atom_site_label_1
_geom_bond_atom_site_label_2
_geom_bond_distance
_geom_bond_site_symmetry_2
_ccdc_geom_bond_type
Fe0 O2 1.918 . S
Fe0 O5 1.997 . S
Fe0 O6 2.002 . S
Fe0 O11 1.976 . S
Fe0 O14 1.996 . S
Fe1 O2 1.918 . S
Fe1 O9 1.997 . S
Fe1 O12 1.996 . S
Fe1 O16 1.976 . S
Fe1 O19 2.002 . S
O2 Fe0 1.918 . S
O2 Fe1 1.918 . S
O2 Fe3 1.918 . S
Fe3 O2 1.918 . S
Fe3 O4 2.002 . S
Fe3 O13 1.976 . S
Fe3 O17 1.996 . S
Fe3 O20 1.997 . S
O4 Fe3 2.002 . S
O4 C21 1.295 . S
O5 Fe0 1.997 . S
O5 C21 1.235 . S
O6 Fe0 2.002 . S
O6 C7 1.295 . S
C7 O6 1.295 . S
C7 O9 1.235 . S
C8 O13 1.287 . S
C8 O14 1.255 . S
O9 Fe1 1.997 . S
O9 C7 1.235 . S
C10 O16 1.287 . S
C10 O17 1.255 . S
O11 Fe0 1.976 . S
O11 C18 1.287 . S
O12 Fe1 1.996 . S
O12 C18 1.255 . S
O13 Fe3 1.976 . S
O13 C8 1.287 . S
O14 Fe0 1.996 . S
O14 C8 1.255 . S
C15 O19 1.295 . S
C15 O20 1.235 . S
O16 Fe1 1.976 . S
O16 C10 1.287 . S
O17 Fe3 1.996 . S
O17 C10 1.255 . S
C18 O11 1.287 . S
C18 O12 1.255 . S
O19 Fe1 2.002 . S
O19 C15 1.295 . S
O20 Fe3 1.997 . S
O20 C15 1.235 . S
C21 O4 1.295 . S
C21 O5 1.235 . S
Fe22 O24 1.918 . S
Fe22 O27 1.997 . S
Fe22 O28 2.002 . S
Fe22 O33 1.976 . S
Fe22 O36 1.996 . S
Fe23 O24 1.918 . S
Fe23 O31 1.997 . S
Fe23 O34 1.996 . S
Fe23 O38 1.976 . S
Fe23 O41 2.002 . S
O24 Fe22 1.918 . S
O24 Fe23 1.918 . S
O24 Fe25 1.918 . S
Fe25 O24 1.918 . S
Fe25 O26 2.002 . S
Fe25 O35 1.976 . S
Fe25 O39 1.996 . S
Fe25 O42 1.997 . S
O26 Fe25 2.002 . S
O26 C43 1.295 . S
O27 Fe22 1.997 . S
O27 C43 1.235 . S
O28 Fe22 2.002 . S
O28 C29 1.295 . S
C29 O28 1.295 . S
C29 O31 1.235 . S
C30 O35 1.287 . S
C30 O36 1.255 . S
O31 Fe23 1.997 . S
O31 C29 1.235 . S
C32 O38 1.287 . S
C32 O39 1.255 . S
O33 Fe22 1.976 . S
O33 C40 1.287 . S
O34 Fe23 1.996 . S
O34 C40 1.255 . S
O35 Fe25 1.976 . S
O35 C30 1.287 . S
O36 Fe22 1.996 . S
O36 C30 1.255 . S
C37 O41 1.295 . S
C37 O42 1.235 . S
O38 Fe23 1.976 . S
O38 C32 1.287 . S
O39 Fe25 1.996 . S
O39 C32 1.255 . S
C40 O33 1.287 . S
C40 O34 1.255 . S
O41 Fe23 2.002 . S
O41 C37 1.295 . S
O42 Fe25 1.997 . S
O42 C37 1.235 . S
C43 O26 1.295 . S
C43 O27 1.235 . S
Fe44 O46 1.918 . S
Fe44 O49 1.997 . S
Fe44 O50 2.002 . S
Fe44 O55 1.976 . S
Fe44 O58 1.996 . S
Fe45 O46 1.918 . S
Fe45 O53 1.997 . S
Fe45 O56 1.996 . S
Fe45 O60 1.976 . S
Fe45 O63 2.002 . S
O46 Fe44 1.918 . S
O46 Fe45 1.918 . S
O46 Fe47 1.918 . S
Fe47 O46 1.918 . S
Fe47 O48 2.002 . S
Fe47 O57 1.976 . S
Fe47 O61 1.996 . S
Fe47 O64 1.997 . S
O48 Fe47 2.002 . S
O48 C65 1.295 . S
O49 Fe44 1.997 . S
O49 C65 1.235 . S
O50 Fe44 2.002 . S
O50 C51 1.295 . S
C51 O50 1.295 . S
C51 O53 1.235 . S
C52 O57 1.287 . S
C52 O58 1.255 . S
O53 Fe45 1.997 . S
O53 C51 1.235 . S
C54 O60 1.287 . S
C54 O61 1.255 . S
O55 Fe44 1.976 . S
O55 C62 1.287 . S
O56 Fe45 1.996 . S
O56 C62 1.255 . S
O57 Fe47 1.976 . S
O57 C52 1.287 . S
O58 Fe44 1.996 . S
O58 C52 1.255 . S
C59 O63 1.295 . S
C59 O64 1.235 . S
O60 Fe45 1.976 . S
O60 C54 1.287 . S
O61 Fe47 1.996 . S
O61 C54 1.255 . S
C62 O55 1.287 . S
C62 O56 1.255 . S
O63 Fe45 2.002 . S
O63 C59 1.295 . S
O64 Fe47 1.997 . S
O64 C59 1.235 . S
C65 O48 1.295 . S
C65 O49 1.235 . S
Fe66 O68 1.918 . S
Fe66 O71 1.997 . S
Fe66 O72 2.002 . S
Fe66 O77 1.976 1_554 S
Fe66 O80 1.996 1_554 S
Fe67 O68 1.918 . S
Fe67 O75 1.997 . S
Fe67 O78 1.996 1_554 S
Fe67 O82 1.976 . S
Fe67 O85 2.002 . S
O68 Fe66 1.918 . S
O68 Fe67 1.918 . S
O68 Fe69 1.918 . S
Fe69 O68 1.918 . S
Fe69 O70 2.002 . S
Fe69 O79 1.976 . S
Fe69 O83 1.996 . S
Fe69 O86 1.997 . S
O70 Fe69 2.002 . S
O70 C87 1.295 . S
O71 Fe66 1.997 . S
O71 C87 1.235 . S
O72 Fe66 2.002 . S
O72 C73 1.295 . S
C73 O72 1.295 . S
C73 O75 1.235 . S
C74 O79 1.287 1_556 S
C74 O80 1.255 . S
O75 Fe67 1.997 . S
O75 C73 1.235 . S
C76 O82 1.287 . S
C76 O83 1.255 . S
O77 Fe66 1.976 1_556 S
O77 C84 1.287 . S
O78 Fe67 1.996 1_556 S
O78 C84 1.255 . S
O79 Fe69 1.976 . S
O79 C74 1.287 1_554 S
O80 Fe66 1.996 1_556 S
O80 C74 1.255 . S
C81 O85 1.295 . S
C81 O86 1.235 . S
O82 Fe67 1.976 . S
O82 C76 1.287 . S
O83 Fe69 1.996 . S
O83 C76 1.255 . S
C84 O77 1.287 . S
C84 O78 1.255 . S
O85 Fe67 2.002 . S
O85 C81 1.295 . S
O86 Fe69 1.997 . S
O86 C81 1.235 . S
C87 O70 1.295 . S
C87 O71 1.235 . S
Fe88 O90 1.918 . S
Fe88 O93 1.997 . S
Fe88 O94 2.002 . S
Fe88 O99 1.976 . S
Fe88 O102 1.996 . S
Fe89 O90 1.918 . S
Fe89 O97 1.997 . S
Fe89 O100 1.996 . S
Fe89 O104 1.976 . S
Fe89 O107 2.002 . S
O90 Fe88 1.918 . S
O90 Fe89 1.918 . S
O90 Fe91 1.918 . S
Fe91 O90 1.918 . S
Fe91 O92 2.002 . S
Fe91 O101 1.976 . S
Fe91 O105 1.996 . S
Fe91 O108 1.997 . S
O92 Fe91 2.002 . S
O92 C109 1.295 . S
O93 Fe88 1.997 . S
O93 C109 1.235 . S
O94 Fe88 2.002 . S
O94 C95 1.295 . S
C95 O94 1.295 . S
C95 O97 1.235 . S
C96 O101 1.287 . S
C96 O102 1.255 . S
O97 Fe89 1.997 . S
O97 C95 1.235 . S
C98 O104 1.287 . S
C98 O105 1.255 . S
O99 Fe88 1.976 . S
O99 C106 1.287 . S
O100 Fe89 1.996 . S
O100 C106 1.255 . S
O101 Fe91 1.976 . S
O101 C96 1.287 . S
O102 Fe88 1.996 . S
O102 C96 1.255 . S
C103 O107 1.295 . S
C103 O108 1.235 . S
O104 Fe89 1.976 . S
O104 C98 1.287 . S
O105 Fe91 1.996 . S
O105 C98 1.255 . S
C106 O99 1.287 . S
C106 O100 1.255 . S
O107 Fe89 2.002 . S
O107 C103 1.295 . S
O108 Fe91 1.997 . S
O108 C103 1.235 . S
C109 O92 1.295 . S
C109 O93 1.235 . S
Fe110 O112 1.918 . S
Fe110 O115 1.997 . S
Fe110 O116 2.002 . S
Fe110 O121 1.976 . S
Fe110 O124 1.996 . S
Fe111 O112 1.918 . S
Fe111 O119 1.997 . S
Fe111 O122 1.996 . S
Fe111 O126 1.976 . S
Fe111 O129 2.002 . S
O112 Fe110 1.918 . S
O112 Fe111 1.918 . S
O112 Fe113 1.918 . S
Fe113 O112 1.918 . S
Fe113 O114 2.002 . S
Fe113 O123 1.976 . S
Fe113 O127 1.996 . S
Fe113 O130 1.997 . S
O114 Fe113 2.002 . S
O114 C131 1.295 . S
O115 Fe110 1.997 . S
O115 C131 1.235 . S
O116 Fe110 2.002 . S
O116 C117 1.295 . S
C117 O116 1.295 . S
C117 O119 1.235 . S
C118 O123 1.287 . S
C118 O124 1.255 . S
O119 Fe111 1.997 . S
O119 C117 1.235 . S
C120 O126 1.287 . S
C120 O127 1.255 . S
O121 Fe110 1.976 . S
O121 C128 1.287 . S
O122 Fe111 1.996 . S
O122 C128 1.255 . S
O123 Fe113 1.976 . S
O123 C118 1.287 . S
O124 Fe110 1.996 . S
O124 C118 1.255 . S
C125 O129 1.295 . S
C125 O130 1.235 . S
O126 Fe111 1.976 . S
O126 C120 1.287 . S
O127 Fe113 1.996 . S
O127 C120 1.255 . S
C128 O121 1.287 . S
C128 O122 1.255 . S
O129 Fe111 2.002 . S
O129 C125 1.295 . S
O130 Fe113 1.997 . S
O130 C125 1.235 . S
C131 O114 1.295 . S
C131 O115 1.235 . S
Fe132 O134 1.918 . S
Fe132 O137 1.997 . S
Fe132 O138 2.002 . S
Fe132 O143 1.976 . S
Fe132 O146 1.996 . S
Fe133 O134 1.918 . S
Fe133 O141 1.997 . S
Fe133 O144 1.996 . S
Fe133 O148 1.976 . S
Fe133 O151 2.002 . S
O134 Fe132 1.918 . S
O134 Fe133 1.918 . S
O134 Fe135 1.918 . S
Fe135 O134 1.918 . S
Fe135 O136 2.002 . S
Fe135 O145 1.976 . S
Fe135 O149 1.996 . S
Fe135 O152 1.997 . S
O136 Fe135 2.002 . S
O136 C153 1.295 . S
O137 Fe132 1.997 . S
O137 C153 1.235 . S
O138 Fe132 2.002 . S
O138 C139 1.295 . S
C139 O138 1.295 . S
C139 O141 1.235 . S
C140 O145 1.287 . S
C140 O146 1.255 . S
O141 Fe133 1.997 . S
O141 C139 1.235 . S
C142 O148 1.287 . S
C142 O149 1.255 . S
O143 Fe132 1.976 . S
O143 C150 1.287 . S
O144 Fe133 1.996 . S
O144 C150 1.255 . S
O145 Fe135 1.976 . S
O145 C140 1.287 . S
O146 Fe132 1.996 . S
O146 C140 1.255 . S
C147 O151 1.295 . S
C147 O152 1.235 . S
O148 Fe133 1.976 . S
O148 C142 1.287 . S
O149 Fe135 1.996 . S
O149 C142 1.255 . S
C150 O143 1.287 . S
C150 O144 1.255 . S
O151 Fe133 2.002 . S
O151 C147 1.295 . S
O152 Fe135 1.997 . S
O152 C147 1.235 . S
C153 O136 1.295 . S
C153 O137 1.235 . S
Fe154 O156 1.918 . S
Fe154 O159 1.997 . S
Fe154 O160 2.002 . S
Fe154 O165 1.976 . S
Fe154 O168 1.996 1_556 S
Fe155 O156 1.918 . S
Fe155 O163 1.997 . S
Fe155 O166 1.996 . S
Fe155 O170 1.976 . S
Fe155 O173 2.002 . S
O156 Fe154 1.918 . S
O156 Fe155 1.918 . S
O156 Fe157 1.918 . S
Fe157 O156 1.918 . S
Fe157 O158 2.002 . S
Fe157 O167 1.976 1_556 S
Fe157 O171 1.996 1_556 S
Fe157 O174 1.997 . S
O158 Fe157 2.002 . S
O158 C175 1.295 . S
O159 Fe154 1.997 . S
O159 C175 1.235 . S
O160 Fe154 2.002 . S
O160 C161 1.295 . S
C161 O160 1.295 . S
C161 O163 1.235 . S
C162 O167 1.287 . S
C162 O168 1.255 . S
O163 Fe155 1.997 . S
O163 C161 1.235 . S
C164 O170 1.287 1_554 S
C164 O171 1.255 . S
O165 Fe154 1.976 . S
O165 C172 1.287 . S
O166 Fe155 1.996 . S
O166 C172 1.255 . S
O167 Fe157 1.976 1_554 S
O167 C162 1.287 . S
O168 Fe154 1.996 1_554 S
O168 C162 1.255 . S
C169 O173 1.295 . S
C169 O174 1.235 . S
O170 Fe155 1.976 . S
O170 C164 1.287 1_556 S
O171 Fe157 1.996 1_554 S
O171 C164 1.255 . S
C172 O165 1.287 . S
C172 O166 1.255 . S
O173 Fe155 2.002 . S
O173 C169 1.295 . S
O174 Fe157 1.997 . S
O174 C169 1.235 . S
C175 O158 1.295 . S
C175 O159 1.235 . S
Fe176 O178 1.918 . S
Fe176 O181 1.997 . S
Fe176 O182 2.002 . S
Fe176 O187 1.976 . S
Fe176 O190 1.996 . S
Fe177 O178 1.918 . S
Fe177 O185 1.997 . S
Fe177 O188 1.996 . S
Fe177 O192 1.976 . S
Fe177 O195 2.002 . S
O178 Fe176 1.918 . S
O178 Fe177 1.918 . S
O178 Fe179 1.918 . S
Fe179 O178 1.918 . S
Fe179 O180 2.002 . S
Fe179 O189 1.976 . S
Fe179 O193 1.996 . S
Fe179 O196 1.997 . S
O180 Fe179 2.002 . S
O180 C197 1.295 . S
O181 Fe176 1.997 . S
O181 C197 1.235 . S
O182 Fe176 2.002 . S
O182 C183 1.295 . S
C183 O182 1.295 . S
C183 O185 1.235 . S
C184 O189 1.287 . S
C184 O190 1.255 . S
O185 Fe177 1.997 . S
O185 C183 1.235 . S
C186 O192 1.287 . S
C186 O193 1.255 . S
O187 Fe176 1.976 . S
O187 C194 1.287 . S
O188 Fe177 1.996 . S
O188 C194 1.255 . S
O189 Fe179 1.976 . S
O189 C184 1.287 . S
O190 Fe176 1.996 . S
O190 C184 1.255 . S
C191 O195 1.295 . S
C191 O196 1.235 . S
O192 Fe177 1.976 . S
O192 C186 1.287 . S
O193 Fe179 1.996 . S
O193 C186 1.255 . S
C194 O187 1.287 . S
C194 O188 1.255 . S
O195 Fe177 2.002 . S
O195 C191 1.295 . S
O196 Fe179 1.997 . S
O196 C191 1.235 . S
C197 O180 1.295 . S
C197 O181 1.235 . S
Fe198 O200 1.918 . S
Fe198 O203 1.997 . S
Fe198 O204 2.002 . S
Fe198 O209 1.976 . S
Fe198 O212 1.996 . S
Fe199 O200 1.918 . S
Fe199 O207 1.997 . S
Fe199 O210 1.996 . S
Fe199 O214 1.976 . S
Fe199 O217 2.002 . S
O200 Fe198 1.918 . S
O200 Fe199 1.918 . S
O200 Fe201 1.918 . S
Fe201 O200 1.918 . S
Fe201 O202 2.002 . S
Fe201 O211 1.976 . S
Fe201 O215 1.996 . S
Fe201 O218 1.997 . S
O202 Fe201 2.002 . S
O202 C219 1.295 . S
O203 Fe198 1.997 . S
O203 C219 1.235 . S
O204 Fe198 2.002 . S
O204 C205 1.295 . S
C205 O204 1.295 . S
C205 O207 1.235 . S
C206 O211 1.287 . S
C206 O212 1.255 . S
O207 Fe199 1.997 . S
O207 C205 1.235 . S
C208 O214 1.287 . S
C208 O215 1.255 . S
O209 Fe198 1.976 . S
O209 C216 1.287 . S
O210 Fe199 1.996 . S
O210 C216 1.255 . S
O211 Fe201 1.976 . S
O211 C206 1.287 . S
O212 Fe198 1.996 . S
O212 C206 1.255 . S
C213 O217 1.295 . S
C213 O218 1.235 . S
O214 Fe199 1.976 . S
O214 C208 1.287 . S
O215 Fe201 1.996 . S
O215 C208 1.255 . S
C216 O209 1.287 . S
C216 O210 1.255 . S
O217 Fe199 2.002 . S
O217 C213 1.295 . S
O218 Fe201 1.997 . S
O218 C213 1.235 . S
C219 O202 1.295 . S
C219 O203 1.235 . S
Fe220 O222 1.918 . S
Fe220 O225 1.997 . S
Fe220 O226 2.002 . S
Fe220 O231 1.976 . S
Fe220 O234 1.996 . S
Fe221 O222 1.918 . S
Fe221 O229 1.997 . S
Fe221 O232 1.996 . S
Fe221 O236 1.976 . S
Fe221 O239 2.002 . S
O222 Fe220 1.918 . S
O222 Fe221 1.918 . S
O222 Fe223 1.918 . S
Fe223 O222 1.918 . S
Fe223 O224 2.002 . S
Fe223 O233 1.976 . S
Fe223 O237 1.996 . S
Fe223 O240 1.997 . S
O224 Fe223 2.002 . S
O224 C241 1.295 . S
O225 Fe220 1.997 . S
O225 C241 1.235 . S
O226 Fe220 2.002 . S
O226 C227 1.295 . S
C227 O226 1.295 . S
C227 O229 1.235 . S
C228 O233 1.287 . S
C228 O234 1.255 . S
O229 Fe221 1.997 . S
O229 C227 1.235 . S
C230 O236 1.287 . S
C230 O237 1.255 . S
O231 Fe220 1.976 . S
O231 C238 1.287 . S
O232 Fe221 1.996 . S
O232 C238 1.255 . S
O233 Fe223 1.976 . S
O233 C228 1.287 . S
O234 Fe220 1.996 . S
O234 C228 1.255 . S
C235 O239 1.295 . S
C235 O240 1.235 . S
O236 Fe221 1.976 . S
O236 C230 1.287 . S
O237 Fe223 1.996 . S
O237 C230 1.255 . S
C238 O231 1.287 . S
C238 O232 1.255 . S
O239 Fe221 2.002 . S
O239 C235 1.295 . S
O240 Fe223 1.997 . S
O240 C235 1.235 . S
C241 O224 1.295 . S
C241 O225 1.235 . S
Fe242 O244 1.918 . S
Fe242 O247 1.997 . S
Fe242 O248 2.002 . S
Fe242 O253 1.976 1_556 S
Fe242 O256 1.996 1_556 S
Fe243 O244 1.918 . S
Fe243 O251 1.997 . S
Fe243 O254 1.996 . S
Fe243 O258 1.976 . S
Fe243 O261 2.002 . S
O244 Fe242 1.918 . S
O244 Fe243 1.918 . S
O244 Fe245 1.918 . S
Fe245 O244 1.918 . S
Fe245 O246 2.002 . S
Fe245 O255 1.976 1_556 S
Fe245 O259 1.996 . S
Fe245 O262 1.997 . S
O246 Fe245 2.002 . S
O246 C263 1.295 . S
O247 Fe242 1.997 . S
O247 C263 1.235 . S
O248 Fe242 2.002 . S
O248 C249 1.295 . S
C249 O248 1.295 . S
C249 O251 1.235 . S
C250 O255 1.287 . S
C250 O256 1.255 . S
O251 Fe243 1.997 . S
O251 C249 1.235 . S
C252 O258 1.287 . S
C252 O259 1.255 . S
O253 Fe242 1.976 1_554 S
O253 C260 1.287 . S
O254 Fe243 1.996 . S
O254 C260 1.255 1_556 S
O255 Fe245 1.976 1_554 S
O255 C250 1.287 . S
O256 Fe242 1.996 1_554 S
O256 C250 1.255 . S
C257 O261 1.295 . S
C257 O262 1.235 . S
O258 Fe243 1.976 . S
O258 C252 1.287 . S
O259 Fe245 1.996 . S
O259 C252 1.255 . S
C260 O253 1.287 . S
C260 O254 1.255 1_554 S
O261 Fe243 2.002 . S
O261 C257 1.295 . S
O262 Fe245 1.997 . S
O262 C257 1.235 . S
C263 O246 1.295 . S
C263 O247 1.235 . S
Fe264 O266 1.918 . S
Fe264 O269 1.997 . S
Fe264 O270 2.002 . S
Fe264 O275 1.976 . S
Fe264 O278 1.996 . S
Fe265 O266 1.918 . S
Fe265 O273 1.997 . S
Fe265 O276 1.996 . S
Fe265 O280 1.976 . S
Fe265 O283 2.002 . S
O266 Fe264 1.918 . S
O266 Fe265 1.918 . S
O266 Fe267 1.918 . S
Fe267 O266 1.918 . S
Fe267 O268 2.002 . S
Fe267 O277 1.976 . S
Fe267 O281 1.996 . S
Fe267 O284 1.997 . S
O268 Fe267 2.002 . S
O268 C285 1.295 . S
O269 Fe264 1.997 . S
O269 C285 1.235 . S
O270 Fe264 2.002 . S
O270 C271 1.295 . S
C271 O270 1.295 . S
C271 O273 1.235 . S
C272 O277 1.287 . S
C272 O278 1.255 . S
O273 Fe265 1.997 . S
O273 C271 1.235 . S
C274 O280 1.287 . S
C274 O281 1.255 . S
O275 Fe264 1.976 . S
O275 C282 1.287 . S
O276 Fe265 1.996 . S
O276 C282 1.255 . S
O277 Fe267 1.976 . S
O277 C272 1.287 . S
O278 Fe264 1.996 . S
O278 C272 1.255 . S
C279 O283 1.295 . S
C279 O284 1.235 . S
O280 Fe265 1.976 . S
O280 C274 1.287 . S
O281 Fe267 1.996 . S
O281 C274 1.255 . S
C282 O275 1.287 . S
C282 O276 1.255 . S
O283 Fe265 2.002 . S
O283 C279 1.295 . S
O284 Fe267 1.997 . S
O284 C279 1.235 . S
C285 O268 1.295 . S
C285 O269 1.235 . S
Fe286 O288 1.918 . S
Fe286 O291 1.997 . S
Fe286 O292 2.002 . S
Fe286 O297 1.976 . S
Fe286 O300 1.996 . S
Fe287 O288 1.918 . S
Fe287 O295 1.997 . S
Fe287 O298 1.996 . S
Fe287 O302 1.976 . S
Fe287 O305 2.002 . S
O288 Fe286 1.918 . S
O288 Fe287 1.918 . S
O288 Fe289 1.918 . S
Fe289 O288 1.918 . S
Fe289 O290 2.002 . S
Fe289 O299 1.976 . S
Fe289 O303 1.996 . S
Fe289 O306 1.997 . S
O290 Fe289 2.002 . S
O290 C307 1.295 . S
O291 Fe286 1.997 . S
O291 C307 1.235 . S
O292 Fe286 2.002 . S
O292 C293 1.295 . S
C293 O292 1.295 . S
C293 O295 1.235 . S
C294 O299 1.287 . S
C294 O300 1.255 . S
O295 Fe287 1.997 . S
O295 C293 1.235 . S
C296 O302 1.287 . S
C296 O303 1.255 . S
O297 Fe286 1.976 . S
O297 C304 1.287 . S
O298 Fe287 1.996 . S
O298 C304 1.255 . S
O299 Fe289 1.976 . S
O299 C294 1.287 . S
O300 Fe286 1.996 . S
O300 C294 1.255 . S
C301 O305 1.295 . S
C301 O306 1.235 . S
O302 Fe287 1.976 . S
O302 C296 1.287 . S
O303 Fe289 1.996 . S
O303 C296 1.255 . S
C304 O297 1.287 . S
C304 O298 1.255 . S
O305 Fe287 2.002 . S
O305 C301 1.295 . S
O306 Fe289 1.997 . S
O306 C301 1.235 . S
C307 O290 1.295 . S
C307 O291 1.235 . S
Fe308 O310 1.918 . S
Fe308 O313 1.997 . S
Fe308 O314 2.002 . S
Fe308 O319 1.976 . S
Fe308 O322 1.996 . S
Fe309 O310 1.918 . S
Fe309 O317 1.997 . S
Fe309 O320 1.996 . S
Fe309 O324 1.976 . S
Fe309 O327 2.002 . S
O310 Fe308 1.918 . S
O310 Fe309 1.918 . S
O310 Fe311 1.918 . S
Fe311 O310 1.918 . S
Fe311 O312 2.002 . S
Fe311 O321 1.976 . S
Fe311 O325 1.996 . S
Fe311 O328 1.997 . S
O312 Fe311 2.002 . S
O312 C329 1.295 . S
O313 Fe308 1.997 . S
O313 C329 1.235 . S
O314 Fe308 2.002 . S
O314 C315 1.295 . S
C315 O314 1.295 . S
C315 O317 1.235 . S
C316 O321 1.287 . S
C316 O322 1.255 . S
O317 Fe309 1.997 . S
O317 C315 1.235 . S
C318 O324 1.287 . S
C318 O325 1.255 . S
O319 Fe308 1.976 . S
O319 C326 1.287 . S
O320 Fe309 1.996 . S
O320 C326 1.255 . S
O321 Fe311 1.976 . S
O321 C316 1.287 . S
O322 Fe308 1.996 . S
O322 C316 1.255 . S
C323 O327 1.295 . S
C323 O328 1.235 . S
O324 Fe309 1.976 . S
O324 C318 1.287 . S
O325 Fe311 1.996 . S
O325 C318 1.255 . S
C326 O319 1.287 . S
C326 O320 1.255 . S
O327 Fe309 2.002 . S
O327 C323 1.295 . S
O328 Fe311 1.997 . S
O328 C323 1.235 . S
C329 O312 1.295 . S
C329 O313 1.235 . S
Fe330 O332 1.918 . S
Fe330 O335 1.997 . S
Fe330 O336 2.002 . S
Fe330 O341 1.976 1_554 S
Fe330 O344 1.996 . S
Fe331 O332 1.918 . S
Fe331 O339 1.997 . S
Fe331 O342 1.996 1_554 S
Fe331 O346 1.976 1_554 S
Fe331 O349 2.002 . S
O332 Fe330 1.918 . S
O332 Fe331 1.918 . S
O332 Fe333 1.918 . S
Fe333 O332 1.918 . S
Fe333 O334 2.002 . S
Fe333 O343 1.976 . S
Fe333 O347 1.996 . S
Fe333 O350 1.997 . S
O334 Fe333 2.002 . S
O334 C351 1.295 . S
O335 Fe330 1.997 . S
O335 C351 1.235 . S
O336 Fe330 2.002 . S
O336 C337 1.295 . S
C337 O336 1.295 . S
C337 O339 1.235 . S
C338 O343 1.287 . S
C338 O344 1.255 . S
O339 Fe331 1.997 . S
O339 C337 1.235 . S
C340 O346 1.287 . S
C340 O347 1.255 1_556 S
O341 Fe330 1.976 1_556 S
O341 C348 1.287 . S
O342 Fe331 1.996 1_556 S
O342 C348 1.255 . S
O343 Fe333 1.976 . S
O343 C338 1.287 . S
O344 Fe330 1.996 . S
O344 C338 1.255 . S
C345 O349 1.295 . S
C345 O350 1.235 . S
O346 Fe331 1.976 1_556 S
O346 C340 1.287 . S
O347 Fe333 1.996 . S
O347 C340 1.255 1_554 S
C348 O341 1.287 . S
C348 O342 1.255 . S
O349 Fe331 2.002 . S
O349 C345 1.295 . S
O350 Fe333 1.997 . S
O350 C345 1.235 . S
C351 O334 1.295 . S
C351 O335 1.235 . S
Fe352 O354 1.918 . S
Fe352 O357 1.997 . S
Fe352 O358 2.002 . S
Fe352 O363 1.976 . S
Fe352 O366 1.996 . S
Fe353 O354 1.918 . S
Fe353 O361 1.997 . S
Fe353 O364 1.996 . S
Fe353 O368 1.976 . S
Fe353 O371 2.002 . S
O354 Fe352 1.918 . S
O354 Fe353 1.918 . S
O354 Fe355 1.918 . S
Fe355 O354 1.918 . S
Fe355 O356 2.002 . S
Fe355 O365 1.976 . S
Fe355 O369 1.996 . S
Fe355 O372 1.997 . S
O356 Fe355 2.002 . S
O356 C373 1.295 . S
O357 Fe352 1.997 . S
O357 C373 1.235 . S
O358 Fe352 2.002 . S
O358 C359 1.295 . S
C359 O358 1.295 . S
C359 O361 1.235 . S
C360 O365 1.287 . S
C360 O366 1.255 . S
O361 Fe353 1.997 . S
O361 C359 1.235 . S
C362 O368 1.287 . S
C362 O369 1.255 . S
O363 Fe352 1.976 . S
O363 C370 1.287 . S
O364 Fe353 1.996 . S
O364 C370 1.255 . S
O365 Fe355 1.976 . S
O365 C360 1.287 . S
O366 Fe352 1.996 . S
O366 C360 1.255 . S
C367 O371 1.295 . S
C367 O372 1.235 . S
O368 Fe353 1.976 . S
O368 C362 1.287 . S
O369 Fe355 1.996 . S
O369 C362 1.255 . S
C370 O363 1.287 . S
C370 O364 1.255 . S
O371 Fe353 2.002 . S
O371 C367 1.295 . S
O372 Fe355 1.997 . S
O372 C367 1.235 . S
C373 O356 1.295 . S
C373 O357 1.235 . S
Fe374 O376 1.918 . S
Fe374 O379 1.997 . S
Fe374 O380 2.002 . S
Fe374 O385 1.976 . S
Fe374 O388 1.996 . S
Fe375 O376 1.918 . S
Fe375 O383 1.997 . S
Fe375 O386 1.996 1_554 S
Fe375 O390 1.976 1_554 S
Fe375 O393 2.002 . S
O376 Fe374 1.918 . S
O376 Fe375 1.918 . S
O376 Fe377 1.918 . S
Fe377 O376 1.918 . S
Fe377 O378 2.002 . S
Fe377 O387 1.976 . S
Fe377 O391 1.996 1_554 S
Fe377 O394 1.997 . S
O378 Fe377 2.002 . S
O378 C395 1.295 . S
O379 Fe374 1.997 . S
O379 C395 1.235 . S
O380 Fe374 2.002 . S
O380 C381 1.295 . S
C381 O380 1.295 . S
C381 O383 1.235 . S
C382 O387 1.287 . S
C382 O388 1.255 . S
O383 Fe375 1.997 . S
O383 C381 1.235 . S
C384 O390 1.287 . S
C384 O391 1.255 . S
O385 Fe374 1.976 . S
O385 C392 1.287 1_554 S
O386 Fe375 1.996 1_556 S
O386 C392 1.255 . S
O387 Fe377 1.976 . S
O387 C382 1.287 . S
O388 Fe374 1.996 . S
O388 C382 1.255 . S
C389 O393 1.295 . S
C389 O394 1.235 . S
O390 Fe375 1.976 1_556 S
O390 C384 1.287 . S
O391 Fe377 1.996 1_556 S
O391 C384 1.255 . S
C392 O385 1.287 1_556 S
C392 O386 1.255 . S
O393 Fe375 2.002 . S
O393 C389 1.295 . S
O394 Fe377 1.997 . S
O394 C389 1.235 . S
C395 O378 1.295 . S
C395 O379 1.235 . S
Fe396 O398 1.918 . S
Fe396 O401 1.997 . S
Fe396 O402 2.002 . S
Fe396 O407 1.976 . S
Fe396 O410 1.996 . S
Fe397 O398 1.918 . S
Fe397 O405 1.997 . S
Fe397 O408 1.996 . S
Fe397 O412 1.976 . S
Fe397 O415 2.002 . S
O398 Fe396 1.918 . S
O398 Fe397 1.918 . S
O398 Fe399 1.918 . S
Fe399 O398 1.918 . S
Fe399 O400 2.002 . S
Fe399 O409 1.976 . S
Fe399 O413 1.996 . S
Fe399 O416 1.997 . S
O400 Fe399 2.002 . S
O400 C417 1.295 . S
O401 Fe396 1.997 . S
O401 C417 1.235 . S
O402 Fe396 2.002 . S
O402 C403 1.295 . S
C403 O402 1.295 . S
C403 O405 1.235 . S
C404 O409 1.287 . S
C404 O410 1.255 . S
O405 Fe397 1.997 . S
O405 C403 1.235 . S
C406 O412 1.287 . S
C406 O413 1.255 . S
O407 Fe396 1.976 . S
O407 C414 1.287 . S
O408 Fe397 1.996 . S
O408 C414 1.255 . S
O409 Fe399 1.976 . S
O409 C404 1.287 . S
O410 Fe396 1.996 . S
O410 C404 1.255 . S
C411 O415 1.295 . S
C411 O416 1.235 . S
O412 Fe397 1.976 . S
O412 C406 1.287 . S
O413 Fe399 1.996 . S
O413 C406 1.255 . S
C414 O407 1.287 . S
C414 O408 1.255 . S
O415 Fe397 2.002 . S
O415 C411 1.295 . S
O416 Fe399 1.997 . S
O416 C411 1.235 . S
C417 O400 1.295 . S
C417 O401 1.235 . S
Fe418 O420 1.918 . S
Fe418 O423 1.997 . S
Fe418 O424 2.002 . S
Fe418 O429 1.976 . S
Fe418 O432 1.996 . S
Fe419 O420 1.918 . S
Fe419 O427 1.997 . S
Fe419 O430 1.996 . S
Fe419 O434 1.976 . S
Fe419 O437 2.002 . S
O420 Fe418 1.918 . S
O420 Fe419 1.918 . S
O420 Fe421 1.918 . S
Fe421 O420 1.918 . S
Fe421 O422 2.002 . S
Fe421 O431 1.976 . S
Fe421 O435 1.996 . S
Fe421 O438 1.997 . S
O422 Fe421 2.002 . S
O422 C439 1.295 . S
O423 Fe418 1.997 . S
O423 C439 1.235 . S
O424 Fe418 2.002 . S
O424 C425 1.295 . S
C425 O424 1.295 . S
C425 O427 1.235 . S
C426 O431 1.287 . S
C426 O432 1.255 . S
O427 Fe419 1.997 . S
O427 C425 1.235 . S
C428 O434 1.287 . S
C428 O435 1.255 . S
O429 Fe418 1.976 . S
O429 C436 1.287 . S
O430 Fe419 1.996 . S
O430 C436 1.255 . S
O431 Fe421 1.976 . S
O431 C426 1.287 . S
O432 Fe418 1.996 . S
O432 C426 1.255 . S
C433 O437 1.295 . S
C433 O438 1.235 . S
O434 Fe419 1.976 . S
O434 C428 1.287 . S
O435 Fe421 1.996 . S
O435 C428 1.255 . S
C436 O429 1.287 . S
C436 O430 1.255 . S
O437 Fe419 2.002 . S
O437 C433 1.295 . S
O438 Fe421 1.997 . S
O438 C433 1.235 . S
C439 O422 1.295 . S
C439 O423 1.235 . S
Fe440 O442 1.918 . S
Fe440 O445 1.997 . S
Fe440 O446 2.002 . S
Fe440 O451 1.976 . S
Fe440 O454 1.996 . S
Fe441 O442 1.918 . S
Fe441 O449 1.997 . S
Fe441 O452 1.996 . S
Fe441 O456 1.976 . S
Fe441 O459 2.002 . S
O442 Fe440 1.918 . S
O442 Fe441 1.918 . S
O442 Fe443 1.918 . S
Fe443 O442 1.918 . S
Fe443 O444 2.002 . S
Fe443 O453 1.976 . S
Fe443 O457 1.996 . S
Fe443 O460 1.997 . S
O444 Fe443 2.002 . S
O444 C461 1.295 . S
O445 Fe440 1.997 . S
O445 C461 1.235 . S
O446 Fe440 2.002 . S
O446 C447 1.295 . S
C447 O446 1.295 . S
C447 O449 1.235 . S
C448 O453 1.287 . S
C448 O454 1.255 . S
O449 Fe441 1.997 . S
O449 C447 1.235 . S
C450 O456 1.287 . S
C450 O457 1.255 . S
O451 Fe440 1.976 . S
O451 C458 1.287 . S
O452 Fe441 1.996 . S
O452 C458 1.255 . S
O453 Fe443 1.976 . S
O453 C448 1.287 . S
O454 Fe440 1.996 . S
O454 C448 1.255 . S
C455 O459 1.295 . S
C455 O460 1.235 . S
O456 Fe441 1.976 . S
O456 C450 1.287 . S
O457 Fe443 1.996 . S
O457 C450 1.255 . S
C458 O451 1.287 . S
C458 O452 1.255 . S
O459 Fe441 2.002 . S
O459 C455 1.295 . S
O460 Fe443 1.997 . S
O460 C455 1.235 . S
C461 O444 1.295 . S
C461 O445 1.235 . S
Fe462 O464 1.918 . S
Fe462 O467 1.997 . S
Fe462 O468 2.002 . S
Fe462 O473 1.976 1_556 S
Fe462 O476 1.996 1_556 S
Fe463 O464 1.918 . S
Fe463 O471 1.997 . S
Fe463 O474 1.996 1_556 S
Fe463 O478 1.976 . S
Fe463 O481 2.002 . S
O464 Fe462 1.918 . S
O464 Fe463 1.918 . S
O464 Fe465 1.918 . S
Fe465 O464 1.918 . S
Fe465 O466 2.002 . S
Fe465 O475 1.976 . S
Fe465 O479 1.996 . S
Fe465 O482 1.997 . S
O466 Fe465 2.002 . S
O466 C483 1.295 . S
O467 Fe462 1.997 . S
O467 C483 1.235 . S
O468 Fe462 2.002 . S
O468 C469 1.295 . S
C469 O468 1.295 . S
C469 O471 1.235 . S
C470 O475 1.287 1_554 S
C470 O476 1.255 . S
O471 Fe463 1.997 . S
O471 C469 1.235 . S
C472 O478 1.287 . S
C472 O479 1.255 . S
O473 Fe462 1.976 1_554 S
O473 C480 1.287 . S
O474 Fe463 1.996 1_554 S
O474 C480 1.255 . S
O475 Fe465 1.976 . S
O475 C470 1.287 1_556 S
O476 Fe462 1.996 1_554 S
O476 C470 1.255 . S
C477 O481 1.295 . S
C477 O482 1.235 . S
O478 Fe463 1.976 . S
O478 C472 1.287 . S
O479 Fe465 1.996 . S
O479 C472 1.255 . S
C480 O473 1.287 . S
C480 O474 1.255 . S
O481 Fe463 2.002 . S
O481 C477 1.295 . S
O482 Fe465 1.997 . S
O482 C477 1.235 . S
C483 O466 1.295 . S
C483 O467 1.235 . S
Fe484 O486 1.918 . S
Fe484 O489 1.997 . S
Fe484 O490 2.002 . S
Fe484 O495 1.976 . S
Fe484 O498 1.996 . S
Fe485 O486 1.918 . S
Fe485 O493 1.997 . S
Fe485 O496 1.996 . S
Fe485 O500 1.976 . S
Fe485 O503 2.002 . S
O486 Fe484 1.918 . S
O486 Fe485 1.918 . S
O486 Fe487 1.918 . S
Fe487 O486 1.918 . S
Fe487 O488 2.002 . S
Fe487 O497 1.976 . S
Fe487 O501 1.996 . S
Fe487 O504 1.997 . S
O488 Fe487 2.002 . S
O488 C505 1.295 . S
O489 Fe484 1.997 . S
O489 C505 1.235 . S
O490 Fe484 2.002 . S
O490 C491 1.295 . S
C491 O490 1.295 . S
C491 O493 1.235 . S
C492 O497 1.287 . S
C492 O498 1.255 . S
O493 Fe485 1.997 . S
O493 C491 1.235 . S
C494 O500 1.287 . S
C494 O501 1.255 . S
O495 Fe484 1.976 . S
O495 C502 1.287 . S
O496 Fe485 1.996 . S
O496 C502 1.255 . S
O497 Fe487 1.976 . S
O497 C492 1.287 . S
O498 Fe484 1.996 . S
O498 C492 1.255 . S
C499 O503 1.295 . S
C499 O504 1.235 . S
O500 Fe485 1.976 . S
O500 C494 1.287 . S
O501 Fe487 1.996 . S
O501 C494 1.255 . S
C502 O495 1.287 . S
C502 O496 1.255 . S
O503 Fe485 2.002 . S
O503 C499 1.295 . S
O504 Fe487 1.997 . S
O504 C499 1.235 . S
C505 O488 1.295 . S
C505 O489 1.235 . S
Fe506 O508 1.918 . S
Fe506 O511 1.997 . S
Fe506 O512 2.002 . S
Fe506 O517 1.976 . S
Fe506 O520 1.996 . S
Fe507 O508 1.918 . S
Fe507 O515 1.997 . S
Fe507 O518 1.996 . S
Fe507 O522 1.976 . S
Fe507 O525 2.002 . S
O508 Fe506 1.918 . S
O508 Fe507 1.918 . S
O508 Fe509 1.918 . S
Fe509 O508 1.918 . S
Fe509 O510 2.002 . S
Fe509 O519 1.976 . S
Fe509 O523 1.996 . S
Fe509 O526 1.997 . S
O510 Fe509 2.002 . S
O510 C527 1.295 . S
O511 Fe506 1.997 . S
O511 C527 1.235 . S
O512 Fe506 2.002 . S
O512 C513 1.295 . S
C513 O512 1.295 . S
C513 O515 1.235 . S
C514 O519 1.287 . S
C514 O520 1.255 . S
O515 Fe507 1.997 . S
O515 C513 1.235 . S
C516 O522 1.287 . S
C516 O523 1.255 . S
O517 Fe506 1.976 . S
O517 C524 1.287 . S
O518 Fe507 1.996 . S
O518 C524 1.255 . S
O519 Fe509 1.976 . S
O519 C514 1.287 . S
O520 Fe506 1.996 . S
O520 C514 1.255 . S
C521 O525 1.295 . S
C521 O526 1.235 . S
O522 Fe507 1.976 . S
O522 C516 1.287 . S
O523 Fe509 1.996 . S
O523 C516 1.255 . S
C524 O517 1.287 . S
C524 O518 1.255 . S
O525 Fe507 2.002 . S
O525 C521 1.295 . S
O526 Fe509 1.997 . S
O526 C521 1.235 . S
C527 O510 1.295 . S
C527 O511 1.235 . S
Fe528 O530 1.918 . S
Fe528 O533 1.997 . S
Fe528 O534 2.002 . S
Fe528 O539 1.976 . S
Fe528 O542 1.996 . S
Fe529 O530 1.918 . S
Fe529 O537 1.997 . S
Fe529 O540 1.996 . S
Fe529 O544 1.976 . S
Fe529 O547 2.002 . S
O530 Fe528 1.918 . S
O530 Fe529 1.918 . S
O530 Fe531 1.918 . S
Fe531 O530 1.918 . S
Fe531 O532 2.002 . S
Fe531 O541 1.976 . S
Fe531 O545 1.996 . S
Fe531 O548 1.997 . S
O532 Fe531 2.002 . S
O532 C549 1.295 . S
O533 Fe528 1.997 . S
O533 C549 1.235 . S
O534 Fe528 2.002 . S
O534 C535 1.295 . S
C535 O534 1.295 . S
C535 O537 1.235 . S
C536 O541 1.287 . S
C536 O542 1.255 . S
O537 Fe529 1.997 . S
O537 C535 1.235 . S
C538 O544 1.287 . S
C538 O545 1.255 . S
O539 Fe528 1.976 . S
O539 C546 1.287 . S
O540 Fe529 1.996 . S
O540 C546 1.255 . S
O541 Fe531 1.976 . S
O541 C536 1.287 . S
O542 Fe528 1.996 . S
O542 C536 1.255 . S
C543 O547 1.295 . S
C543 O548 1.235 . S
O544 Fe529 1.976 . S
O544 C538 1.287 . S
O545 Fe531 1.996 . S
O545 C538 1.255 . S
C546 O539 1.287 . S
C546 O540 1.255 . S
O547 Fe529 2.002 . S
O547 C543 1.295 . S
O548 Fe531 1.997 . S
O548 C543 1.235 . S
C549 O532 1.295 . S
C549 O533 1.235 . S
Fe550 O552 1.918 . S
Fe550 O555 1.997 . S
Fe550 O556 2.002 . S
Fe550 O561 1.976 1_556 S
Fe550 O564 1.996 . S
Fe551 O552 1.918 . S
Fe551 O559 1.997 . S
Fe551 O562 1.996 1_556 S
Fe551 O566 1.976 1_556 S
Fe551 O569 2.002 . S
O552 Fe550 1.918 . S
O552 Fe551 1.918 . S
O552 Fe553 1.918 . S
Fe553 O552 1.918 . S
Fe553 O554 2.002 . S
Fe553 O563 1.976 . S
Fe553 O567 1.996 . S
Fe553 O570 1.997 . S
O554 Fe553 2.002 . S
O554 C571 1.295 . S
O555 Fe550 1.997 . S
O555 C571 1.235 . S
O556 Fe550 2.002 . S
O556 C557 1.295 . S
C557 O556 1.295 . S
C557 O559 1.235 . S
C558 O563 1.287 . S
C558 O564 1.255 . S
O559 Fe551 1.997 . S
O559 C557 1.235 . S
C560 O566 1.287 . S
C560 O567 1.255 1_554 S
O561 Fe550 1.976 1_554 S
O561 C568 1.287 . S
O562 Fe551 1.996 1_554 S
O562 C568 1.255 . S
O563 Fe553 1.976 . S
O563 C558 1.287 . S
O564 Fe550 1.996 . S
O564 C558 1.255 . S
C565 O569 1.295 . S
C565 O570 1.235 . S
O566 Fe551 1.976 1_554 S
O566 C560 1.287 . S
O567 Fe553 1.996 . S
O567 C560 1.255 1_556 S
C568 O561 1.287 . S
C568 O562 1.255 . S
O569 Fe551 2.002 . S
O569 C565 1.295 . S
O570 Fe553 1.997 . S
O570 C565 1.235 . S
C571 O554 1.295 . S
C571 O555 1.235 . S
Fe572 O574 1.918 . S
Fe572 O577 1.997 . S
Fe572 O578 2.002 . S
Fe572 O583 1.976 . S
Fe572 O586 1.996 . S
Fe573 O574 1.918 . S
Fe573 O581 1.997 . S
Fe573 O584 1.996 . S
Fe573 O588 1.976 . S
Fe573 O591 2.002 . S
O574 Fe572 1.918 . S
O574 Fe573 1.918 . S
O574 Fe575 1.918 . S
Fe575 O574 1.918 . S
Fe575 O576 2.002 . S
Fe575 O585 1.976 . S
Fe575 O589 1.996 . S
Fe575 O592 1.997 . S
O576 Fe575 2.002 . S
O576 C593 1.295 . S
O577 Fe572 1.997 . S
O577 C593 1.235 . S
O578 Fe572 2.002 . S
O578 C579 1.295 . S
C579 O578 1.295 . S
C579 O581 1.235 . S
C580 O585 1.287 . S
C580 O586 1.255 . S
O581 Fe573 1.997 . S
O581 C579 1.235 . S
C582 O588 1.287 . S
C582 O589 1.255 . S
O583 Fe572 1.976 . S
O583 C590 1.287 . S
O584 Fe573 1.996 . S
O584 C590 1.255 . S
O585 Fe575 1.976 . S
O585 C580 1.287 . S
O586 Fe572 1.996 . S
O586 C580 1.255 . S
C587 O591 1.295 . S
C587 O592 1.235 . S
O588 Fe573 1.976 . S
O588 C582 1.287 . S
O589 Fe575 1.996 . S
O589 C582 1.255 . S
C590 O583 1.287 . S
C590 O584 1.255 . S
O591 Fe573 2.002 . S
O591 C587 1.295 . S
O592 Fe575 1.997 . S
O592 C587 1.235 . S
C593 O576 1.295 . S
C593 O577 1.235 . S
Fe594 O596 1.918 . S
Fe594 O599 1.997 . S
Fe594 O600 2.002 . S
Fe594 O605 1.976 . S
Fe594 O608 1.996 . S
Fe595 O596 1.918 . S
Fe595 O603 1.997 . S
Fe595 O606 1.996 . S
Fe595 O610 1.976 . S
Fe595 O613 2.002 . S
O596 Fe594 1.918 . S
O596 Fe595 1.918 . S
O596 Fe597 1.918 . S
Fe597 O596 1.918 . S
Fe597 O598 2.002 . S
Fe597 O607 1.976 . S
Fe597 O611 1.996 . S
Fe597 O614 1.997 . S
O598 Fe597 2.002 . S
O598 C615 1.295 . S
O599 Fe594 1.997 . S
O599 C615 1.235 . S
O600 Fe594 2.002 . S
O600 C601 1.295 . S
C601 O600 1.295 . S
C601 O603 1.235 . S
C602 O607 1.287 . S
C602 O608 1.255 . S
O603 Fe595 1.997 . S
O603 C601 1.235 . S
C604 O610 1.287 . S
C604 O611 1.255 . S
O605 Fe594 1.976 . S
O605 C612 1.287 . S
O606 Fe595 1.996 . S
O606 C612 1.255 . S
O607 Fe597 1.976 . S
O607 C602 1.287 . S
O608 Fe594 1.996 . S
O608 C602 1.255 . S
C609 O613 1.295 . S
C609 O614 1.235 . S
O610 Fe595 1.976 . S
O610 C604 1.287 . S
O611 Fe597 1.996 . S
O611 C604 1.255 . S
C612 O605 1.287 . S
C612 O606 1.255 . S
O613 Fe595 2.002 . S
O613 C609 1.295 . S
O614 Fe597 1.997 . S
O614 C609 1.235 . S
C615 O598 1.295 . S
C615 O599 1.235 . S
Fe616 O618 1.918 . S
Fe616 O621 1.997 . S
Fe616 O622 2.002 . S
Fe616 O627 1.976 . S
Fe616 O630 1.996 . S
Fe617 O618 1.918 . S
Fe617 O625 1.997 . S
Fe617 O628 1.996 . S
Fe617 O632 1.976 . S
Fe617 O635 2.002 . S
O618 Fe616 1.918 . S
O618 Fe617 1.918 . S
O618 Fe619 1.918 . S
Fe619 O618 1.918 . S
Fe619 O620 2.002 . S
Fe619 O629 1.976 . S
Fe619 O633 1.996 . S
Fe619 O636 1.997 . S
O620 Fe619 2.002 . S
O620 C637 1.295 . S
O621 Fe616 1.997 . S
O621 C637 1.235 . S
O622 Fe616 2.002 . S
O622 C623 1.295 . S
C623 O622 1.295 . S
C623 O625 1.235 . S
C624 O629 1.287 . S
C624 O630 1.255 . S
O625 Fe617 1.997 . S
O625 C623 1.235 . S
C626 O632 1.287 . S
C626 O633 1.255 . S
O627 Fe616 1.976 . S
O627 C634 1.287 . S
O628 Fe617 1.996 . S
O628 C634 1.255 . S
O629 Fe619 1.976 . S
O629 C624 1.287 . S
O630 Fe616 1.996 . S
O630 C624 1.255 . S
C631 O635 1.295 . S
C631 O636 1.235 . S
O632 Fe617 1.976 . S
O632 C626 1.287 . S
O633 Fe619 1.996 . S
O633 C626 1.255 . S
C634 O627 1.287 . S
C634 O628 1.255 . S
O635 Fe617 2.002 . S
O635 C631 1.295 . S
O636 Fe619 1.997 . S
O636 C631 1.235 . S
C637 O620 1.295 . S
C637 O621 1.235 . S
Fe638 O640 1.918 . S
Fe638 O643 1.997 . S
Fe638 O644 2.002 . S
Fe638 O649 1.976 . S
Fe638 O652 1.996 . S
Fe639 O640 1.918 . S
Fe639 O647 1.997 . S
Fe639 O650 1.996 . S
Fe639 O654 1.976 1_554 S
Fe639 O657 2.002 . S
O640 Fe638 1.918 . S
O640 Fe639 1.918 . S
O640 Fe641 1.918 . S
Fe641 O640 1.918 . S
Fe641 O642 2.002 . S
Fe641 O651 1.976 1_554 S
Fe641 O655 1.996 1_554 S
Fe641 O658 1.997 . S
O642 Fe641 2.002 . S
O642 C659 1.295 . S
O643 Fe638 1.997 . S
O643 C659 1.235 . S
O644 Fe638 2.002 . S
O644 C645 1.295 . S
C645 O644 1.295 . S
C645 O647 1.235 . S
C646 O651 1.287 . S
C646 O652 1.255 1_556 S
O647 Fe639 1.997 . S
O647 C645 1.235 . S
C648 O654 1.287 . S
C648 O655 1.255 . S
O649 Fe638 1.976 . S
O649 C656 1.287 . S
O650 Fe639 1.996 . S
O650 C656 1.255 . S
O651 Fe641 1.976 1_556 S
O651 C646 1.287 . S
O652 Fe638 1.996 . S
O652 C646 1.255 1_554 S
C653 O657 1.295 . S
C653 O658 1.235 . S
O654 Fe639 1.976 1_556 S
O654 C648 1.287 . S
O655 Fe641 1.996 1_556 S
O655 C648 1.255 . S
C656 O649 1.287 . S
C656 O650 1.255 . S
O657 Fe639 2.002 . S
O657 C653 1.295 . S
O658 Fe641 1.997 . S
O658 C653 1.235 . S
C659 O642 1.295 . S
C659 O643 1.235 . S
Fe660 O662 1.918 . S
Fe660 O665 1.997 . S
Fe660 O666 2.002 . S
Fe660 O671 1.976 . S
Fe660 O674 1.996 . S
Fe661 O662 1.918 . S
Fe661 O669 1.997 . S
Fe661 O672 1.996 . S
Fe661 O676 1.976 . S
Fe661 O679 2.002 . S
O662 Fe660 1.918 . S
O662 Fe661 1.918 . S
O662 Fe663 1.918 . S
Fe663 O662 1.918 . S
Fe663 O664 2.002 . S
Fe663 O673 1.976 . S
Fe663 O677 1.996 . S
Fe663 O680 1.997 . S
O664 Fe663 2.002 . S
O664 C681 1.295 . S
O665 Fe660 1.997 . S
O665 C681 1.235 . S
O666 Fe660 2.002 . S
O666 C667 1.295 . S
C667 O666 1.295 . S
C667 O669 1.235 . S
C668 O673 1.287 . S
C668 O674 1.255 . S
O669 Fe661 1.997 . S
O669 C667 1.235 . S
C670 O676 1.287 . S
C670 O677 1.255 . S
O671 Fe660 1.976 . S
O671 C678 1.287 . S
O672 Fe661 1.996 . S
O672 C678 1.255 . S
O673 Fe663 1.976 . S
O673 C668 1.287 . S
O674 Fe660 1.996 . S
O674 C668 1.255 . S
C675 O679 1.295 . S
C675 O680 1.235 . S
O676 Fe661 1.976 . S
O676 C670 1.287 . S
O677 Fe663 1.996 . S
O677 C670 1.255 . S
C678 O671 1.287 . S
C678 O672 1.255 . S
O679 Fe661 2.002 . S
O679 C675 1.295 . S
O680 Fe663 1.997 . S
O680 C675 1.235 . S
C681 O664 1.295 . S
C681 O665 1.235 . S
Fe682 O684 1.918 . S
Fe682 O687 1.997 . S
Fe682 O688 2.002 . S
Fe682 O693 1.976 . S
Fe682 O696 1.996 . S
Fe683 O684 1.918 . S
Fe683 O691 1.997 . S
Fe683 O694 1.996 . S
Fe683 O698 1.976 . S
Fe683 O701 2.002 . S
O684 Fe682 1.918 . S
O684 Fe683 1.918 . S
O684 Fe685 1.918 . S
Fe685 O684 1.918 . S
Fe685 O686 2.002 . S
Fe685 O695 1.976 . S
Fe685 O699 1.996 . S
Fe685 O702 1.997 . S
O686 Fe685 2.002 . S
O686 C703 1.295 . S
O687 Fe682 1.997 . S
O687 C703 1.235 . S
O688 Fe682 2.002 . S
O688 C689 1.295 . S
C689 O688 1.295 . S
C689 O691 1.235 . S
C690 O695 1.287 . S
C690 O696 1.255 . S
O691 Fe683 1.997 . S
O691 C689 1.235 . S
C692 O698 1.287 . S
C692 O699 1.255 . S
O693 Fe682 1.976 . S
O693 C700 1.287 . S
O694 Fe683 1.996 . S
O694 C700 1.255 . S
O695 Fe685 1.976 . S
O695 C690 1.287 . S
O696 Fe682 1.996 . S
O696 C690 1.255 . S
C697 O701 1.295 . S
C697 O702 1.235 . S
O698 Fe683 1.976 . S
O698 C692 1.287 . S
O699 Fe685 1.996 . S
O699 C692 1.255 . S
C700 O693 1.287 . S
C700 O694 1.255 . S
O701 Fe683 2.002 . S
O701 C697 1.295 . S
O702 Fe685 1.997 . S
O702 C697 1.235 . S
C703 O686 1.295 . S
C703 O687 1.235 . S
H704 C712 0.950 . S
H705 C717 0.950 . S
H706 C714 0.950 . S
H707 C716 0.950 . S
H708 C718 0.950 . S
H709 C720 0.950 . S
H710 C722 0.950 . S
H711 C723 0.950 . S
C712 H704 0.950 . S
C712 C713 1.386 . S
C712 C714 1.391 . S
C713 C712 1.386 . S
C713 C717 1.393 . S
C714 H706 0.950 . S
C714 C712 1.391 . S
C714 C715 1.400 . S
C715 C714 1.400 . S
C715 C716 1.398 . S
C715 C721 1.491 1_545 S
C716 H707 0.950 . S
C716 C715 1.398 . S
C716 C717 1.391 . S
C717 H705 0.950 . S
C717 C713 1.393 . S
C717 C716 1.391 . S
C718 H708 0.950 . S
C718 C719 1.386 . S
C718 C720 1.391 . S
C719 C718 1.386 . S
C719 C723 1.393 . S
C720 H709 0.950 . S
C720 C718 1.391 . S
C720 C721 1.400 . S
C721 C715 1.491 1_565 S
C721 C720 1.400 . S
C721 C722 1.398 . S
C722 H710 0.950 . S
C722 C721 1.398 . S
C722 C723 1.391 . S
C723 H711 0.950 . S
C723 C719 1.393 . S
C723 C722 1.391 . S
H724 C732 0.950 . S
H725 C737 0.950 . S
H726 C734 0.950 . S
H727 C736 0.950 . S
H728 C738 0.950 . S
H729 C740 0.950 . S
H730 C742 0.950 . S
H731 C743 0.950 . S
C732 H724 0.950 . S
C732 C733 1.386 . S
C732 C734 1.391 . S
C733 C732 1.386 . S
C733 C737 1.393 . S
C734 H726 0.950 . S
C734 C732 1.391 . S
C734 C735 1.400 . S
C735 C734 1.400 . S
C735 C736 1.398 . S
C735 C741 1.491 . S
C736 H727 0.950 . S
C736 C735 1.398 . S
C736 C737 1.391 . S
C737 H725 0.950 . S
C737 C733 1.393 . S
C737 C736 1.391 . S
C738 H728 0.950 . S
C738 C739 1.386 . S
C738 C740 1.391 . S
C739 C738 1.386 . S
C739 C743 1.393 . S
C740 H729 0.950 . S
C740 C738 1.391 . S
C740 C741 1.400 . S
C741 C735 1.491 . S
C741 C740 1.400 . S
C741 C742 1.398 . S
C742 H730 0.950 . S
C742 C741 1.398 . S
C742 C743 1.391 . S
C743 H731 0.950 . S
C743 C739 1.393 . S
C743 C742 1.391 . S
H744 C752 0.950 . S
H745 C757 0.950 . S
H746 C754 0.950 . S
H747 C756 0.950 . S
H748 C758 0.950 . S
H749 C760 0.950 . S
H750 C762 0.950 . S
H751 C763 0.950 . S
C752 H744 0.950 . S
C752 C753 1.386 . S
C752 C754 1.391 . S
C753 C752 1.386 . S
C753 C757 1.393 . S
C754 H746 0.950 . S
C754 C752 1.391 . S
C754 C755 1.400 . S
C755 C754 1.400 . S
C755 C756 1.398 . S
C755 C761 1.491 1_545 S
C756 H747 0.950 . S
C756 C755 1.398 . S
C756 C757 1.391 . S
C757 H745 0.950 . S
C757 C753 1.393 . S
C757 C756 1.391 . S
C758 H748 0.950 . S
C758 C759 1.386 . S
C758 C760 1.391 . S
C759 C758 1.386 . S
C759 C763 1.393 . S
C760 H749 0.950 . S
C760 C758 1.391 . S
C760 C761 1.400 . S
C761 C755 1.491 1_565 S
C761 C760 1.400 . S
C761 C762 1.398 . S
C762 H750 0.950 . S
C762 C761 1.398 . S
C762 C763 1.391 . S
C763 H751 0.950 . S
C763 C759 1.393 . S
C763 C762 1.391 . S
H764 C772 0.950 . S
H765 C777 0.950 . S
H766 C774 0.950 . S
H767 C776 0.950 . S
H768 C778 0.950 . S
H769 C780 0.950 . S
H770 C782 0.950 . S
H771 C783 0.950 . S
C772 H764 0.950 . S
C772 C773 1.386 . S
C772 C774 1.391 . S
C773 C772 1.386 . S
C773 C777 1.393 1_556 S
C774 H766 0.950 . S
C774 C772 1.391 . S
C774 C775 1.400 . S
C775 C774 1.400 . S
C775 C776 1.398 1_556 S
C775 C781 1.491 1_556 S
C776 H767 0.950 . S
C776 C775 1.398 1_554 S
C776 C777 1.391 . S
C777 H765 0.950 . S
C777 C773 1.393 1_554 S
C777 C776 1.391 . S
C778 H768 0.950 . S
C778 C779 1.386 . S
C778 C780 1.391 . S
C779 C778 1.386 . S
C779 C783 1.393 1_554 S
C780 H769 0.950 . S
C780 C778 1.391 . S
C780 C781 1.400 . S
C781 C775 1.491 1_554 S
C781 C780 1.400 . S
C781 C782 1.398 1_554 S
C782 H770 0.950 . S
C782 C781 1.398 1_556 S
C782 C783 1.391 . S
C783 H771 0.950 . S
C783 C779 1.393 1_556 S
C783 C782 1.391 . S
H784 C792 0.950 . S
H785 C797 0.950 . S
H786 C794 0.950 . S
H787 C796 0.950 . S
H788 C798 0.950 . S
H789 C800 0.950 . S
H790 C802 0.950 . S
H791 C803 0.950 . S
C792 H784 0.950 . S
C792 C793 1.386 . S
C792 C794 1.391 . S
C793 C792 1.386 . S
C793 C797 1.393 . S
C794 H786 0.950 . S
C794 C792 1.391 . S
C794 C795 1.400 . S
C795 C794 1.400 . S
C795 C796 1.398 . S
C795 C801 1.491 1_565 S
C796 H787 0.950 . S
C796 C795 1.398 . S
C796 C797 1.391 . S
C797 H785 0.950 . S
C797 C793 1.393 . S
C797 C796 1.391 . S
C798 H788 0.950 . S
C798 C799 1.386 . S
C798 C800 1.391 . S
C799 C798 1.386 . S
C799 C803 1.393 . S
C800 H789 0.950 . S
C800 C798 1.391 . S
C800 C801 1.400 . S
C801 C795 1.491 1_545 S
C801 C800 1.400 . S
C801 C802 1.398 . S
C802 H790 0.950 . S
C802 C801 1.398 . S
C802 C803 1.391 . S
C803 H791 0.950 . S
C803 C799 1.393 . S
C803 C802 1.391 . S
H804 C812 0.950 . S
H805 C817 0.950 . S
H806 C814 0.950 . S
H807 C816 0.950 . S
H808 C818 0.950 . S
H809 C820 0.950 . S
H810 C822 0.950 . S
H811 C823 0.950 . S
C812 H804 0.950 . S
C812 C813 1.386 . S
C812 C814 1.391 . S
C813 C812 1.386 . S
C813 C817 1.393 . S
C814 H806 0.950 . S
C814 C812 1.391 . S
C814 C815 1.400 . S
C815 C814 1.400 . S
C815 C816 1.398 . S
C815 C821 1.491 . S
C816 H807 0.950 . S
C816 C815 1.398 . S
C816 C817 1.391 . S
C817 H805 0.950 . S
C817 C813 1.393 . S
C817 C816 1.391 . S
C818 H808 0.950 . S
C818 C819 1.386 . S
C818 C820 1.391 . S
C819 C818 1.386 . S
C819 C823 1.393 . S
C820 H809 0.950 . S
C820 C818 1.391 . S
C820 C821 1.400 . S
C821 C815 1.491 . S
C821 C820 1.400 . S
C821 C822 1.398 . S
C822 H810 0.950 . S
C822 C821 1.398 . S
C822 C823 1.391 . S
C823 H811 0.950 . S
C823 C819 1.393 . S
C823 C822 1.391 . S
H824 C832 0.950 . S
H825 C837 0.950 . S
H826 C834 0.950 . S
H827 C836 0.950 . S
H828 C838 0.950 . S
H829 C840 0.950 . S
H830 C842 0.950 . S
H831 C843 0.950 . S
C832 H824 0.950 . S
C832 C833 1.386 . S
C832 C834 1.391 . S
C833 C832 1.386 . S
C833 C837 1.393 . S
C834 H826 0.950 . S
C834 C832 1.391 . S
C834 C835 1.400 . S
C835 C834 1.400 . S
C835 C836 1.398 . S
C835 C841 1.491 1_565 S
C836 H827 0.950 . S
C836 C835 1.398 . S
C836 C837 1.391 . S
C837 H825 0.950 . S
C837 C833 1.393 . S
C837 C836 1.391 . S
C838 H828 0.950 . S
C838 C839 1.386 . S
C838 C840 1.391 . S
C839 C838 1.386 . S
C839 C843 1.393 . S
C840 H829 0.950 . S
C840 C838 1.391 . S
C840 C841 1.400 . S
C841 C835 1.491 1_545 S
C841 C840 1.400 . S
C841 C842 1.398 . S
C842 H830 0.950 . S
C842 C841 1.398 . S
C842 C843 1.391 . S
C843 H831 0.950 . S
C843 C839 1.393 . S
C843 C842 1.391 . S
H844 C852 0.950 . S
H845 C857 0.950 . S
H846 C854 0.950 . S
H847 C856 0.950 . S
H848 C858 0.950 . S
H849 C860 0.950 . S
H850 C862 0.950 . S
H851 C863 0.950 . S
C852 H844 0.950 . S
C852 C853 1.386 1_556 S
C852 C854 1.391 . S
C853 C852 1.386 1_554 S
C853 C857 1.393 . S
C854 H846 0.950 . S
C854 C852 1.391 . S
C854 C855 1.400 1_556 S
C855 C854 1.400 1_554 S
C855 C856 1.398 . S
C855 C861 1.491 1_554 S
C856 H847 0.950 . S
C856 C855 1.398 . S
C856 C857 1.391 . S
C857 H845 0.950 . S
C857 C853 1.393 . S
C857 C856 1.391 . S
C858 H848 0.950 . S
C858 C859 1.386 1_554 S
C858 C860 1.391 . S
C859 C858 1.386 1_556 S
C859 C863 1.393 . S
C860 H849 0.950 . S
C860 C858 1.391 . S
C860 C861 1.400 1_554 S
C861 C855 1.491 1_556 S
C861 C860 1.400 1_556 S
C861 C862 1.398 . S
C862 H850 0.950 . S
C862 C861 1.398 . S
C862 C863 1.391 . S
C863 H851 0.950 . S
C863 C859 1.393 . S
C863 C862 1.391 . S
H864 C872 0.950 . S
H865 C877 0.950 . S
H866 C874 0.950 . S
H867 C876 0.950 . S
H868 C878 0.950 . S
H869 C880 0.950 . S
H870 C882 0.950 . S
H871 C883 0.950 . S
C872 H864 0.950 . S
C872 C873 1.386 . S
C872 C874 1.391 . S
C873 C872 1.386 . S
C873 C877 1.393 . S
C874 H866 0.950 . S
C874 C872 1.391 . S
C874 C875 1.400 . S
C875 C874 1.400 . S
C875 C876 1.398 . S
C875 C881 1.491 . S
C876 H867 0.950 . S
C876 C875 1.398 . S
C876 C877 1.391 . S
C877 H865 0.950 . S
C877 C873 1.393 . S
C877 C876 1.391 . S
C878 H868 0.950 . S
C878 C879 1.386 . S
C878 C880 1.391 . S
C879 C878 1.386 . S
C879 C883 1.393 . S
C880 H869 0.950 . S
C880 C878 1.391 . S
C880 C881 1.400 . S
C881 C875 1.491 . S
C881 C880 1.400 . S
C881 C882 1.398 . S
C882 H870 0.950 . S
C882 C881 1.398 . S
C882 C883 1.391 . S
C883 H871 0.950 . S
C883 C879 1.393 . S
C883 C882 1.391 . S
H884 C892 0.950 . S
H885 C897 0.950 . S
H886 C894 0.950 . S
H887 C896 0.950 . S
H888 C898 0.950 . S
H889 C900 0.950 . S
H890 C902 0.950 . S
H891 C903 0.950 . S
C892 H884 0.950 . S
C892 C893 1.386 . S
C892 C894 1.391 1_556 S
C893 C892 1.386 . S
C893 C897 1.393 . S
C894 H886 0.950 . S
C894 C892 1.391 1_554 S
C894 C895 1.400 1_554 S
C895 C894 1.400 1_556 S
C895 C896 1.398 . S
C895 C901 1.491 1_556 S
C896 H887 0.950 . S
C896 C895 1.398 . S
C896 C897 1.391 . S
C897 H885 0.950 . S
C897 C893 1.393 . S
C897 C896 1.391 . S
C898 H888 0.950 . S
C898 C899 1.386 . S
C898 C900 1.391 1_554 S
C899 C898 1.386 . S
C899 C903 1.393 . S
C900 H889 0.950 . S
C900 C898 1.391 1_556 S
C900 C901 1.400 1_556 S
C901 C895 1.491 1_554 S
C901 C900 1.400 1_554 S
C901 C902 1.398 . S
C902 H890 0.950 . S
C902 C901 1.398 . S
C902 C903 1.391 . S
C903 H891 0.950 . S
C903 C899 1.393 . S
C903 C902 1.391 . S
H904 C912 0.950 . S
H905 C917 0.950 . S
H906 C914 0.950 . S
H907 C916 0.950 . S
H908 C918 0.950 . S
H909 C920 0.950 . S
H910 C922 0.950 . S
H911 C923 0.950 . S
C912 H904 0.950 . S
C912 C913 1.386 . S
C912 C914 1.391 . S
C913 C912 1.386 . S
C913 C917 1.393 . S
C914 H906 0.950 . S
C914 C912 1.391 . S
C914 C915 1.400 . S
C915 C914 1.400 . S
C915 C916 1.398 . S
C915 C921 1.491 . S
C916 H907 0.950 . S
C916 C915 1.398 . S
C916 C917 1.391 . S
C917 H905 0.950 . S
C917 C913 1.393 . S
C917 C916 1.391 . S
C918 H908 0.950 . S
C918 C919 1.386 . S
C918 C920 1.391 . S
C919 C918 1.386 . S
C919 C923 1.393 . S
C920 H909 0.950 . S
C920 C918 1.391 . S
C920 C921 1.400 . S
C921 C915 1.491 . S
C921 C920 1.400 . S
C921 C922 1.398 . S
C922 H910 0.950 . S
C922 C921 1.398 . S
C922 C923 1.391 . S
C923 H911 0.950 . S
C923 C919 1.393 . S
C923 C922 1.391 . S
H924 C932 0.950 . S
H925 C937 0.950 . S
H926 C934 0.950 . S
H927 C936 0.950 . S
H928 C938 0.950 . S
H929 C940 0.950 . S
H930 C942 0.950 . S
H931 C943 0.950 . S
C932 H924 0.950 . S
C932 C933 1.386 . S
C932 C934 1.391 . S
C933 C932 1.386 . S
C933 C937 1.393 . S
C934 H926 0.950 . S
C934 C932 1.391 . S
C934 C935 1.400 . S
C935 C934 1.400 . S
C935 C936 1.398 . S
C935 C941 1.491 . S
C936 H927 0.950 . S
C936 C935 1.398 . S
C936 C937 1.391 . S
C937 H925 0.950 . S
C937 C933 1.393 . S
C937 C936 1.391 . S
C938 H928 0.950 . S
C938 C939 1.386 . S
C938 C940 1.391 . S
C939 C938 1.386 . S
C939 C943 1.393 . S
C940 H929 0.950 . S
C940 C938 1.391 . S
C940 C941 1.400 . S
C941 C935 1.491 . S
C941 C940 1.400 . S
C941 C942 1.398 . S
C942 H930 0.950 . S
C942 C941 1.398 . S
C942 C943 1.391 . S
C943 H931 0.950 . S
C943 C939 1.393 . S
C943 C942 1.391 . S
H944 C952 0.950 . S
H945 C957 0.950 . S
H946 C954 0.950 . S
H947 C956 0.950 . S
H948 C958 0.950 . S
H949 C960 0.950 . S
H950 C962 0.950 . S
H951 C963 0.950 . S
C952 H944 0.950 . S
C952 C953 1.386 . S
C952 C954 1.391 . S
C953 C952 1.386 . S
C953 C957 1.393 . S
C954 H946 0.950 . S
C954 C952 1.391 . S
C954 C955 1.400 . S
C955 C954 1.400 . S
C955 C956 1.398 . S
C955 C961 1.491 . S
C956 H947 0.950 . S
C956 C955 1.398 . S
C956 C957 1.391 . S
C957 H945 0.950 . S
C957 C953 1.393 . S
C957 C956 1.391 . S
C958 H948 0.950 . S
C958 C959 1.386 . S
C958 C960 1.391 . S
C959 C958 1.386 . S
C959 C963 1.393 . S
C960 H949 0.950 . S
C960 C958 1.391 . S
C960 C961 1.400 . S
C961 C955 1.491 . S
C961 C960 1.400 . S
C961 C962 1.398 . S
C962 H950 0.950 . S
C962 C961 1.398 . S
C962 C963 1.391 . S
C963 H951 0.950 . S
C963 C959 1.393 . S
C963 C962 1.391 . S
H964 C972 0.950 . S
H965 C977 0.950 . S
H966 C974 0.950 . S
H967 C976 0.950 . S
H968 C978 0.950 . S
H969 C980 0.950 . S
H970 C982 0.950 . S
H971 C983 0.950 . S
C972 H964 0.950 . S
C972 C973 1.386 . S
C972 C974 1.391 . S
C973 C972 1.386 . S
C973 C977 1.393 . S
C974 H966 0.950 . S
C974 C972 1.391 . S
C974 C975 1.400 . S
C975 C974 1.400 . S
C975 C976 1.398 1_554 S
C975 C981 1.491 1_554 S
C976 H967 0.950 . S
C976 C975 1.398 1_556 S
C976 C977 1.391 1_556 S
C977 H965 0.950 . S
C977 C973 1.393 . S
C977 C976 1.391 1_554 S
C978 H968 0.950 . S
C978 C979 1.386 . S
C978 C980 1.391 . S
C979 C978 1.386 . S
C979 C983 1.393 . S
C980 H969 0.950 . S
C980 C978 1.391 . S
C980 C981 1.400 . S
C981 C975 1.491 1_556 S
C981 C980 1.400 . S
C981 C982 1.398 1_556 S
C982 H970 0.950 . S
C982 C981 1.398 1_554 S
C982 C983 1.391 1_554 S
C983 H971 0.950 . S
C983 C979 1.393 . S
C983 C982 1.391 1_556 S
H984 C992 0.950 . S
H985 C997 0.950 . S
H986 C994 0.950 . S
H987 C996 0.950 . S
H988 C998 0.950 . S
H989 C1000 0.950 . S
H990 C1002 0.950 . S
H991 C1003 0.950 . S
C992 H984 0.950 . S
C992 C993 1.386 . S
C992 C994 1.391 . S
C993 C992 1.386 . S
C993 C997 1.393 . S
C994 H986 0.950 . S
C994 C992 1.391 . S
C994 C995 1.400 . S
C995 C994 1.400 . S
C995 C996 1.398 . S
C995 C1001 1.491 . S
C996 H987 0.950 . S
C996 C995 1.398 . S
C996 C997 1.391 . S
C997 H985 0.950 . S
C997 C993 1.393 . S
C997 C996 1.391 . S
C998 H988 0.950 . S
C998 C999 1.386 . S
C998 C1000 1.391 . S
C999 C998 1.386 . S
C999 C1003 1.393 . S
C1000 H989 0.950 . S
C1000 C998 1.391 . S
C1000 C1001 1.400 . S
C1001 C995 1.491 . S
C1001 C1000 1.400 . S
C1001 C1002 1.398 . S
C1002 H990 0.950 . S
C1002 C1001 1.398 . S
C1002 C1003 1.391 . S
C1003 H991 0.950 . S
C1003 C999 1.393 . S
C1003 C1002 1.391 . S
H1004 C1012 0.950 . S
H1005 C1017 0.950 . S
H1006 C1014 0.950 . S
H1007 C1016 0.950 . S
H1008 C1018 0.950 . S
H1009 C1020 0.950 . S
H1010 C1022 0.950 . S
H1011 C1023 0.950 . S
C1012 H1004 0.950 . S
C1012 C1013 1.386 . S
C1012 C1014 1.391 . S
C1013 C1012 1.386 . S
C1013 C1017 1.393 . S
C1014 H1006 0.950 . S
C1014 C1012 1.391 . S
C1014 C1015 1.400 . S
C1015 C1014 1.400 . S
C1015 C1016 1.398 . S
C1015 C1021 1.491 . S
C1016 H1007 0.950 . S
C1016 C1015 1.398 . S
C1016 C1017 1.391 . S
C1017 H1005 0.950 . S
C1017 C1013 1.393 . S
C1017 C1016 1.391 . S
C1018 H1008 0.950 . S
C1018 C1019 1.386 . S
C1018 C1020 1.391 . S
C1019 C1018 1.386 . S
C1019 C1023 1.393 . S
C1020 H1009 0.950 . S
C1020 C1018 1.391 . S
C1020 C1021 1.400 . S
C1021 C1015 1.491 . S
C1021 C1020 1.400 . S
C1021 C1022 1.398 . S
C1022 H1010 0.950 . S
C1022 C1021 1.398 . S
C1022 C1023 1.391 . S
C1023 H1011 0.950 . S
C1023 C1019 1.393 . S
C1023 C1022 1.391 . S
H1024 C1032 0.950 . S
H1025 C1037 0.950 . S
H1026 C1034 0.950 . S
H1027 C1036 0.950 . S
H1028 C1038 0.950 . S
H1029 C1040 0.950 . S
H1030 C1042 0.950 1_455 S
H1031 C1043 0.950 . S
C1032 H1024 0.950 . S
C1032 C1033 1.386 . S
C1032 C1034 1.391 . S
C1033 C1032 1.386 . S
C1033 C1037 1.393 1_455 S
C1034 H1026 0.950 . S
C1034 C1032 1.391 . S
C1034 C1035 1.400 1_455 S
C1035 C1034 1.400 1_655 S
C1035 C1036 1.398 . S
C1035 C1041 1.491 . S
C1036 H1027 0.950 . S
C1036 C1035 1.398 . S
C1036 C1037 1.391 . S
C1037 H1025 0.950 . S
C1037 C1033 1.393 1_655 S
C1037 C1036 1.391 . S
C1038 H1028 0.950 . S
C1038 C1039 1.386 . S
C1038 C1040 1.391 1_556 S
C1039 C1038 1.386 . S
C1039 C1043 1.393 . S
C1040 H1029 0.950 . S
C1040 C1038 1.391 1_554 S
C1040 C1041 1.400 . S
C1041 C1035 1.491 . S
C1041 C1040 1.400 . S
C1041 C1042 1.398 1_554 S
C1042 H1030 0.950 1_655 S
C1042 C1041 1.398 1_556 S
C1042 C1043 1.391 . S
C1043 H1031 0.950 . S
C1043 C1039 1.393 . S
C1043 C1042 1.391 . S
H1044 C1052 0.950 . S
H1045 C1057 0.950 . S
H1046 C1054 0.950 . S
H1047 C1056 0.950 . S
H1048 C1058 0.950 . S
H1049 C1060 0.950 . S
H1050 C1062 0.950 . S
H1051 C1063 0.950 . S
C1052 H1044 0.950 . S
C1052 C1053 1.386 . S
C1052 C1054 1.391 . S
C1053 C1052 1.386 . S
C1053 C1057 1.393 . S
C1054 H1046 0.950 . S
C1054 C1052 1.391 . S
C1054 C1055 1.400 . S
C1055 C1054 1.400 . S
C1055 C1056 1.398 . S
C1055 C1061 1.491 . S
C1056 H1047 0.950 . S
C1056 C1055 1.398 . S
C1056 C1057 1.391 . S
C1057 H1045 0.950 . S
C1057 C1053 1.393 . S
C1057 C1056 1.391 . S
C1058 H1048 0.950 . S
C1058 C1059 1.386 . S
C1058 C1060 1.391 . S
C1059 C1058 1.386 . S
C1059 C1063 1.393 . S
C1060 H1049 0.950 . S
C1060 C1058 1.391 . S
C1060 C1061 1.400 . S
C1061 C1055 1.491 . S
C1061 C1060 1.400 . S
C1061 C1062 1.398 . S
C1062 H1050 0.950 . S
C1062 C1061 1.398 . S
C1062 C1063 1.391 . S
C1063 H1051 0.950 . S
C1063 C1059 1.393 . S
C1063 C1062 1.391 . S
H1064 C1072 0.950 . S
H1065 C1077 0.950 . S
H1066 C1074 0.950 . S
H1067 C1076 0.950 . S
H1068 C1078 0.950 . S
H1069 C1080 0.950 . S
H1070 C1082 0.950 . S
H1071 C1083 0.950 . S
C1072 H1064 0.950 . S
C1072 C1073 1.386 . S
C1072 C1074 1.391 . S
C1073 C1072 1.386 . S
C1073 C1077 1.393 . S
C1074 H1066 0.950 . S
C1074 C1072 1.391 . S
C1074 C1075 1.400 . S
C1075 C1074 1.400 . S
C1075 C1076 1.398 . S
C1075 C1081 1.491 . S
C1076 H1067 0.950 . S
C1076 C1075 1.398 . S
C1076 C1077 1.391 . S
C1077 H1065 0.950 . S
C1077 C1073 1.393 . S
C1077 C1076 1.391 . S
C1078 H1068 0.950 . S
C1078 C1079 1.386 . S
C1078 C1080 1.391 . S
C1079 C1078 1.386 . S
C1079 C1083 1.393 . S
C1080 H1069 0.950 . S
C1080 C1078 1.391 . S
C1080 C1081 1.400 . S
C1081 C1075 1.491 . S
C1081 C1080 1.400 . S
C1081 C1082 1.398 . S
C1082 H1070 0.950 . S
C1082 C1081 1.398 . S
C1082 C1083 1.391 . S
C1083 H1071 0.950 . S
C1083 C1079 1.393 . S
C1083 C1082 1.391 . S
H1084 C1092 0.950 . S
H1085 C1097 0.950 . S
H1086 C1094 0.950 . S
H1087 C1096 0.950 . S
H1088 C1098 0.950 . S
H1089 C1100 0.950 . S
H1090 C1102 0.950 . S
H1091 C1103 0.950 . S
C1092 H1084 0.950 . S
C1092 C1093 1.386 . S
C1092 C1094 1.391 . S
C1093 C1092 1.386 . S
C1093 C1097 1.393 . S
C1094 H1086 0.950 . S
C1094 C1092 1.391 . S
C1094 C1095 1.400 . S
C1095 C1094 1.400 . S
C1095 C1096 1.398 . S
C1095 C1101 1.491 . S
C1096 H1087 0.950 . S
C1096 C1095 1.398 . S
C1096 C1097 1.391 . S
C1097 H1085 0.950 . S
C1097 C1093 1.393 . S
C1097 C1096 1.391 . S
C1098 H1088 0.950 . S
C1098 C1099 1.386 . S
C1098 C1100 1.391 . S
C1099 C1098 1.386 . S
C1099 C1103 1.393 . S
C1100 H1089 0.950 . S
C1100 C1098 1.391 . S
C1100 C1101 1.400 . S
C1101 C1095 1.491 . S
C1101 C1100 1.400 . S
C1101 C1102 1.398 . S
C1102 H1090 0.950 . S
C1102 C1101 1.398 . S
C1102 C1103 1.391 . S
C1103 H1091 0.950 . S
C1103 C1099 1.393 . S
C1103 C1102 1.391 . S
H1104 C1112 0.950 . S
H1105 C1117 0.950 . S
H1106 C1114 0.950 . S
H1107 C1116 0.950 . S
H1108 C1118 0.950 . S
H1109 C1120 0.950 . S
H1110 C1122 0.950 . S
H1111 C1123 0.950 . S
C1112 H1104 0.950 . S
C1112 C1113 1.386 . S
C1112 C1114 1.391 . S
C1113 C1112 1.386 . S
C1113 C1117 1.393 . S
C1114 H1106 0.950 . S
C1114 C1112 1.391 . S
C1114 C1115 1.400 . S
C1115 C1114 1.400 . S
C1115 C1116 1.398 . S
C1115 C1121 1.491 . S
C1116 H1107 0.950 . S
C1116 C1115 1.398 . S
C1116 C1117 1.391 . S
C1117 H1105 0.950 . S
C1117 C1113 1.393 . S
C1117 C1116 1.391 . S
C1118 H1108 0.950 . S
C1118 C1119 1.386 . S
C1118 C1120 1.391 . S
C1119 C1118 1.386 . S
C1119 C1123 1.393 1_455 S
C1120 H1109 0.950 . S
C1120 C1118 1.391 . S
C1120 C1121 1.400 1_455 S
C1121 C1115 1.491 . S
C1121 C1120 1.400 1_655 S
C1121 C1122 1.398 . S
C1122 H1110 0.950 . S
C1122 C1121 1.398 . S
C1122 C1123 1.391 . S
C1123 H1111 0.950 . S
C1123 C1119 1.393 1_655 S
C1123 C1122 1.391 . S
H1124 C1132 0.950 . S
H1125 C1137 0.950 . S
H1126 C1134 0.950 . S
H1127 C1136 0.950 . S
H1128 C1138 0.950 . S
H1129 C1140 0.950 . S
H1130 C1142 0.950 . S
H1131 C1143 0.950 . S
C1132 H1124 0.950 . S
C1132 C1133 1.386 . S
C1132 C1134 1.391 . S
C1133 C1132 1.386 . S
C1133 C1137 1.393 . S
C1134 H1126 0.950 . S
C1134 C1132 1.391 . S
C1134 C1135 1.400 . S
C1135 C1134 1.400 . S
C1135 C1136 1.398 . S
C1135 C1141 1.491 . S
C1136 H1127 0.950 . S
C1136 C1135 1.398 . S
C1136 C1137 1.391 . S
C1137 H1125 0.950 . S
C1137 C1133 1.393 . S
C1137 C1136 1.391 . S
C1138 H1128 0.950 . S
C1138 C1139 1.386 . S
C1138 C1140 1.391 . S
C1139 C1138 1.386 . S
C1139 C1143 1.393 . S
C1140 H1129 0.950 . S
C1140 C1138 1.391 . S
C1140 C1141 1.400 . S
C1141 C1135 1.491 . S
C1141 C1140 1.400 . S
C1141 C1142 1.398 . S
C1142 H1130 0.950 . S
C1142 C1141 1.398 . S
C1142 C1143 1.391 . S
C1143 H1131 0.950 . S
C1143 C1139 1.393 . S
C1143 C1142 1.391 . S
H1144 C1152 0.950 . S
H1145 C1157 0.950 . S
H1146 C1154 0.950 . S
H1147 C1156 0.946 1_556 S
H1148 C1158 0.950 . S
H1149 C1160 0.950 . S
H1150 C1162 0.950 . S
H1151 C1163 0.950 . S
C1152 H1144 0.950 . S
C1152 C1153 1.386 . S
C1152 C1154 1.391 1_554 S
C1153 C1152 1.386 . S
C1153 C1157 1.393 . S
C1154 H1146 0.950 . S
C1154 C1152 1.391 1_556 S
C1154 C1155 1.400 . S
C1155 C1154 1.400 . S
C1155 C1156 1.389 1_556 S
C1155 C1161 1.491 . S
C1156 H1147 0.946 1_554 S
C1156 C1155 1.389 1_554 S
C1156 C1157 1.404 . S
C1157 H1145 0.950 . S
C1157 C1153 1.393 . S
C1157 C1156 1.404 . S
C1158 H1148 0.950 . S
C1158 C1159 1.386 . S
C1158 C1160 1.391 . S
C1159 C1158 1.386 . S
C1159 C1163 1.393 . S
C1160 H1149 0.950 . S
C1160 C1158 1.391 . S
C1160 C1161 1.400 . S
C1161 C1155 1.491 . S
C1161 C1160 1.400 . S
C1161 C1162 1.398 . S
C1162 H1150 0.950 . S
C1162 C1161 1.398 . S
C1162 C1163 1.391 . S
C1163 H1151 0.950 . S
C1163 C1159 1.393 . S
C1163 C1162 1.391 . S
H1164 C1172 0.950 . S
H1165 C1177 0.950 . S
H1166 C1174 0.950 . S
H1167 C1176 0.950 . S
H1168 C1178 0.950 . S
H1169 C1180 0.950 . S
H1170 C1182 0.950 . S
H1171 C1183 0.950 . S
C1172 H1164 0.950 . S
C1172 C1173 1.386 . S
C1172 C1174 1.391 . S
C1173 C1172 1.386 . S
C1173 C1177 1.393 . S
C1174 H1166 0.950 . S
C1174 C1172 1.391 . S
C1174 C1175 1.400 . S
C1175 C1174 1.400 . S
C1175 C1176 1.398 . S
C1175 C1181 1.491 . S
C1176 H1167 0.950 . S
C1176 C1175 1.398 . S
C1176 C1177 1.391 . S
C1177 H1165 0.950 . S
C1177 C1173 1.393 . S
C1177 C1176 1.391 . S
C1178 H1168 0.950 . S
C1178 C1179 1.386 . S
C1178 C1180 1.391 . S
C1179 C1178 1.386 . S
C1179 C1183 1.393 . S
C1180 H1169 0.950 . S
C1180 C1178 1.391 . S
C1180 C1181 1.400 . S
C1181 C1175 1.491 . S
C1181 C1180 1.400 . S
C1181 C1182 1.398 . S
C1182 H1170 0.950 . S
C1182 C1181 1.398 . S
C1182 C1183 1.391 . S
C1183 H1171 0.950 . S
C1183 C1179 1.393 . S
C1183 C1182 1.391 . S
H1184 C1192 0.950 . S
H1185 C1197 0.950 . S
H1186 C1194 0.950 1_655 S
H1187 C1196 0.950 . S
H1188 C1198 0.950 . S
H1189 C1200 0.950 . S
H1190 C1202 0.950 . S
H1191 C1203 0.950 . S
C1192 H1184 0.950 . S
C1192 C1193 1.386 . S
C1192 C1194 1.391 . S
C1193 C1192 1.386 . S
C1193 C1197 1.393 . S
C1194 H1186 0.950 1_455 S
C1194 C1192 1.391 . S
C1194 C1195 1.400 1_554 S
C1195 C1194 1.400 1_556 S
C1195 C1196 1.398 . S
C1195 C1201 1.491 . S
C1196 H1187 0.950 . S
C1196 C1195 1.398 . S
C1196 C1197 1.391 1_556 S
C1197 H1185 0.950 . S
C1197 C1193 1.393 . S
C1197 C1196 1.391 1_554 S
C1198 H1188 0.950 . S
C1198 C1199 1.386 1_455 S
C1198 C1200 1.391 . S
C1199 C1198 1.386 1_655 S
C1199 C1203 1.393 . S
C1200 H1189 0.950 . S
C1200 C1198 1.391 . S
C1200 C1201 1.400 . S
C1201 C1195 1.491 . S
C1201 C1200 1.400 . S
C1201 C1202 1.398 1_455 S
C1202 H1190 0.950 . S
C1202 C1201 1.398 1_655 S
C1202 C1203 1.391 . S
C1203 H1191 0.950 . S
C1203 C1199 1.393 . S
C1203 C1202 1.391 . S
H1204 C1212 0.950 . S
H1205 C1217 0.950 . S
H1206 C1214 0.950 . S
H1207 C1216 0.950 . S
H1208 C1218 0.950 . S
H1209 C1220 0.950 . S
H1210 C1222 0.950 . S
H1211 C1223 0.950 . S
C1212 H1204 0.950 . S
C1212 C1213 1.386 . S
C1212 C1214 1.391 . S
C1213 C1212 1.386 . S
C1213 C1217 1.393 . S
C1214 H1206 0.950 . S
C1214 C1212 1.391 . S
C1214 C1215 1.400 . S
C1215 C1214 1.400 . S
C1215 C1216 1.398 . S
C1215 C1221 1.491 . S
C1216 H1207 0.950 . S
C1216 C1215 1.398 . S
C1216 C1217 1.391 . S
C1217 H1205 0.950 . S
C1217 C1213 1.393 . S
C1217 C1216 1.391 . S
C1218 H1208 0.950 . S
C1218 C1219 1.386 . S
C1218 C1220 1.391 . S
C1219 C1218 1.386 . S
C1219 C1223 1.393 . S
C1220 H1209 0.950 . S
C1220 C1218 1.391 . S
C1220 C1221 1.400 . S
C1221 C1215 1.491 . S
C1221 C1220 1.400 . S
C1221 C1222 1.398 . S
C1222 H1210 0.950 . S
C1222 C1221 1.398 . S
C1222 C1223 1.391 . S
C1223 H1211 0.950 . S
C1223 C1219 1.393 . S
C1223 C1222 1.391 . S
H1224 C1232 0.950 . S
H1225 C1237 0.950 . S
H1226 C1234 0.950 . S
H1227 C1236 0.950 . S
H1228 C1238 0.950 . S
H1229 C1240 0.950 . S
H1230 C1242 0.950 . S
H1231 C1243 0.950 . S
C1232 H1224 0.950 . S
C1232 C1233 1.386 . S
C1232 C1234 1.391 . S
C1233 C1232 1.386 . S
C1233 C1237 1.393 . S
C1234 H1226 0.950 . S
C1234 C1232 1.391 . S
C1234 C1235 1.400 . S
C1235 C1234 1.400 . S
C1235 C1236 1.398 . S
C1235 C1241 1.491 . S
C1236 H1227 0.950 . S
C1236 C1235 1.398 . S
C1236 C1237 1.391 . S
C1237 H1225 0.950 . S
C1237 C1233 1.393 . S
C1237 C1236 1.391 . S
C1238 H1228 0.950 . S
C1238 C1239 1.386 . S
C1238 C1240 1.391 . S
C1239 C1238 1.386 . S
C1239 C1243 1.393 . S
C1240 H1229 0.950 . S
C1240 C1238 1.391 . S
C1240 C1241 1.400 . S
C1241 C1235 1.491 . S
C1241 C1240 1.400 . S
C1241 C1242 1.398 . S
C1242 H1230 0.950 . S
C1242 C1241 1.398 . S
C1242 C1243 1.391 . S
C1243 H1231 0.950 . S
C1243 C1239 1.393 . S
C1243 C1242 1.391 . S
H1244 C1252 0.950 . S
H1245 C1257 0.950 . S
H1246 C1254 0.950 . S
H1247 C1256 0.950 . S
H1248 C1258 0.950 . S
H1249 C1260 0.950 . S
H1250 C1262 0.950 . S
H1251 C1263 0.950 . S
C1252 H1244 0.950 . S
C1252 C1253 1.386 . S
C1252 C1254 1.391 . S
C1253 C1252 1.386 . S
C1253 C1257 1.393 . S
C1254 H1246 0.950 . S
C1254 C1252 1.391 . S
C1254 C1255 1.400 . S
C1255 C1254 1.400 . S
C1255 C1256 1.398 . S
C1255 C1261 1.491 . S
C1256 H1247 0.950 . S
C1256 C1255 1.398 . S
C1256 C1257 1.391 . S
C1257 H1245 0.950 . S
C1257 C1253 1.393 . S
C1257 C1256 1.391 . S
C1258 H1248 0.950 . S
C1258 C1259 1.386 . S
C1258 C1260 1.391 . S
C1259 C1258 1.386 . S
C1259 C1263 1.393 . S
C1260 H1249 0.950 . S
C1260 C1258 1.391 . S
C1260 C1261 1.400 . S
C1261 C1255 1.491 . S
C1261 C1260 1.400 . S
C1261 C1262 1.398 . S
C1262 H1250 0.950 . S
C1262 C1261 1.398 . S
C1262 C1263 1.391 . S
C1263 H1251 0.950 . S
C1263 C1259 1.393 . S
C1263 C1262 1.391 . S
H1264 C1272 0.950 . S
H1265 C1277 0.950 . S
H1266 C1274 0.950 . S
H1267 C1276 0.950 . S
H1268 C1278 0.950 . S
H1269 C1280 0.950 . S
H1270 C1282 0.950 . S
H1271 C1283 0.950 . S
C1272 H1264 0.950 . S
C1272 C1273 1.386 . S
C1272 C1274 1.391 . S
C1273 C1272 1.386 . S
C1273 C1277 1.393 . S
C1274 H1266 0.950 . S
C1274 C1272 1.391 . S
C1274 C1275 1.400 . S
C1275 C1274 1.400 . S
C1275 C1276 1.398 . S
C1275 C1281 1.491 . S
C1276 H1267 0.950 . S
C1276 C1275 1.398 . S
C1276 C1277 1.391 . S
C1277 H1265 0.950 . S
C1277 C1273 1.393 . S
C1277 C1276 1.391 . S
C1278 H1268 0.950 . S
C1278 C1279 1.386 1_455 S
C1278 C1280 1.391 . S
C1279 C1278 1.386 1_655 S
C1279 C1283 1.393 . S
C1280 H1269 0.950 . S
C1280 C1278 1.391 . S
C1280 C1281 1.400 . S
C1281 C1275 1.491 . S
C1281 C1280 1.400 . S
C1281 C1282 1.398 1_455 S
C1282 H1270 0.950 . S
C1282 C1281 1.398 1_655 S
C1282 C1283 1.391 . S
C1283 H1271 0.950 . S
C1283 C1279 1.393 . S
C1283 C1282 1.391 . S
H1284 C1292 0.950 . S
H1285 C1297 0.950 . S
H1286 C1294 0.950 . S
H1287 C1296 0.950 . S
H1288 C1298 0.950 . S
H1289 C1300 0.950 . S
H1290 C1302 0.950 . S
H1291 C1303 0.950 . S
C1292 H1284 0.950 . S
C1292 C1293 1.386 . S
C1292 C1294 1.391 . S
C1293 C1292 1.386 . S
C1293 C1297 1.393 . S
C1294 H1286 0.950 . S
C1294 C1292 1.391 . S
C1294 C1295 1.400 . S
C1295 C1294 1.400 . S
C1295 C1296 1.398 . S
C1295 C1301 1.491 . S
C1296 H1287 0.950 . S
C1296 C1295 1.398 . S
C1296 C1297 1.391 . S
C1297 H1285 0.950 . S
C1297 C1293 1.393 . S
C1297 C1296 1.391 . S
C1298 H1288 0.950 . S
C1298 C1299 1.386 . S
C1298 C1300 1.391 . S
C1299 C1298 1.386 . S
C1299 C1303 1.393 . S
C1300 H1289 0.950 . S
C1300 C1298 1.391 . S
C1300 C1301 1.400 . S
C1301 C1295 1.491 . S
C1301 C1300 1.400 . S
C1301 C1302 1.398 . S
C1302 H1290 0.950 . S
C1302 C1301 1.398 . S
C1302 C1303 1.391 . S
C1303 H1291 0.950 . S
C1303 C1299 1.393 . S
C1303 C1302 1.391 . S
H1304 C1312 0.950 . S
H1305 C1317 0.950 . S
H1306 C1314 0.950 . S
H1307 C1316 0.950 . S
H1308 C1318 0.950 . S
H1309 C1320 0.950 . S
H1310 C1322 0.950 . S
H1311 C1323 0.950 . S
C1312 H1304 0.950 . S
C1312 C1313 1.386 . S
C1312 C1314 1.391 . S
C1313 C1312 1.386 . S
C1313 C1317 1.393 . S
C1314 H1306 0.950 . S
C1314 C1312 1.391 . S
C1314 C1315 1.400 . S
C1315 C1314 1.400 . S
C1315 C1316 1.398 . S
C1315 C1321 1.491 . S
C1316 H1307 0.950 . S
C1316 C1315 1.398 . S
C1316 C1317 1.391 . S
C1317 H1305 0.950 . S
C1317 C1313 1.393 . S
C1317 C1316 1.391 . S
C1318 H1308 0.950 . S
C1318 C1319 1.386 . S
C1318 C1320 1.391 1_556 S
C1319 C1318 1.386 . S
C1319 C1323 1.393 . S
C1320 H1309 0.950 . S
C1320 C1318 1.391 1_554 S
C1320 C1321 1.400 . S
C1321 C1315 1.491 . S
C1321 C1320 1.400 . S
C1321 C1322 1.398 1_554 S
C1322 H1310 0.950 . S
C1322 C1321 1.398 1_556 S
C1322 C1323 1.391 . S
C1323 H1311 0.950 . S
C1323 C1319 1.393 . S
C1323 C1322 1.391 . S
H1324 C1332 0.950 . S
H1325 C1337 0.950 . S
H1326 C1334 0.950 . S
H1327 C1336 0.950 . S
H1328 C1338 0.950 . S
H1329 C1340 0.950 . S
H1330 C1342 0.950 . S
H1331 C1343 0.950 . S
C1332 H1324 0.950 . S
C1332 C1333 1.386 . S
C1332 C1334 1.391 . S
C1333 C1332 1.386 . S
C1333 C1337 1.393 . S
C1334 H1326 0.950 . S
C1334 C1332 1.391 . S
C1334 C1335 1.400 . S
C1335 C1334 1.400 . S
C1335 C1336 1.398 . S
C1335 C1341 1.491 . S
C1336 H1327 0.950 . S
C1336 C1335 1.398 . S
C1336 C1337 1.391 . S
C1337 H1325 0.950 . S
C1337 C1333 1.393 . S
C1337 C1336 1.391 . S
C1338 H1328 0.950 . S
C1338 C1339 1.386 . S
C1338 C1340 1.391 . S
C1339 C1338 1.386 . S
C1339 C1343 1.393 . S
C1340 H1329 0.950 . S
C1340 C1338 1.391 . S
C1340 C1341 1.400 . S
C1341 C1335 1.491 . S
C1341 C1340 1.400 . S
C1341 C1342 1.398 . S
C1342 H1330 0.950 . S
C1342 C1341 1.398 . S
C1342 C1343 1.391 . S
C1343 H1331 0.950 . S
C1343 C1339 1.393 . S
C1343 C1342 1.391 . S
H1344 C1352 0.950 . S
H1345 C1357 0.950 . S
H1346 C1354 0.950 . S
H1347 C1356 0.950 . S
H1348 C1358 0.950 . S
H1349 C1360 0.950 . S
H1350 C1362 0.950 . S
H1351 C1363 0.950 . S
C1352 H1344 0.950 . S
C1352 C1353 1.386 . S
C1352 C1354 1.391 . S
C1353 C1352 1.386 . S
C1353 C1357 1.393 . S
C1354 H1346 0.950 . S
C1354 C1352 1.391 . S
C1354 C1355 1.400 . S
C1355 C1354 1.400 . S
C1355 C1356 1.398 . S
C1355 C1361 1.491 . S
C1356 H1347 0.950 . S
C1356 C1355 1.398 . S
C1356 C1357 1.391 . S
C1357 H1345 0.950 . S
C1357 C1353 1.393 . S
C1357 C1356 1.391 . S
C1358 H1348 0.950 . S
C1358 C1359 1.386 . S
C1358 C1360 1.391 . S
C1359 C1358 1.386 . S
C1359 C1363 1.393 . S
C1360 H1349 0.950 . S
C1360 C1358 1.391 . S
C1360 C1361 1.400 . S
C1361 C1355 1.491 . S
C1361 C1360 1.400 . S
C1361 C1362 1.398 . S
C1362 H1350 0.950 . S
C1362 C1361 1.398 . S
C1362 C1363 1.391 . S
C1363 H1351 0.950 . S
C1363 C1359 1.393 . S
C1363 C1362 1.391 . S
H1364 C1372 0.950 . S
H1365 C1377 0.950 . S
H1366 C1374 0.950 . S
H1367 C1376 0.950 . S
H1368 C1378 0.950 . S
H1369 C1380 0.950 . S
H1370 C1382 0.950 . S
H1371 C1383 0.950 . S
C1372 H1364 0.950 . S
C1372 C1373 1.386 . S
C1372 C1374 1.391 . S
C1373 C1372 1.386 . S
C1373 C1377 1.393 . S
C1374 H1366 0.950 . S
C1374 C1372 1.391 . S
C1374 C1375 1.400 . S
C1375 C1374 1.400 . S
C1375 C1376 1.398 . S
C1375 C1381 1.491 . S
C1376 H1367 0.950 . S
C1376 C1375 1.398 . S
C1376 C1377 1.391 . S
C1377 H1365 0.950 . S
C1377 C1373 1.393 . S
C1377 C1376 1.391 . S
C1378 H1368 0.950 . S
C1378 C1379 1.386 . S
C1378 C1380 1.391 . S
C1379 C1378 1.386 . S
C1379 C1383 1.393 . S
C1380 H1369 0.950 . S
C1380 C1378 1.391 . S
C1380 C1381 1.400 . S
C1381 C1375 1.491 . S
C1381 C1380 1.400 . S
C1381 C1382 1.398 . S
C1382 H1370 0.950 . S
C1382 C1381 1.398 . S
C1382 C1383 1.391 . S
C1383 H1371 0.950 . S
C1383 C1379 1.393 . S
C1383 C1382 1.391 . S
H1384 C1392 0.950 . S
H1385 C1397 0.950 . S
H1386 C1394 0.950 . S
H1387 C1396 0.950 . S
H1388 C1398 0.950 . S
H1389 C1400 0.950 . S
H1390 C1402 0.950 . S
H1391 C1403 0.950 . S
C1392 H1384 0.950 . S
C1392 C1393 1.386 . S
C1392 C1394 1.391 . S
C1393 C1392 1.386 . S
C1393 C1397 1.393 1_655 S
C1394 H1386 0.950 . S
C1394 C1392 1.391 . S
C1394 C1395 1.400 1_655 S
C1395 C1394 1.400 1_455 S
C1395 C1396 1.398 . S
C1395 C1401 1.491 . S
C1396 H1387 0.950 . S
C1396 C1395 1.398 . S
C1396 C1397 1.391 . S
C1397 H1385 0.950 . S
C1397 C1393 1.393 1_455 S
C1397 C1396 1.391 . S
C1398 H1388 0.950 . S
C1398 C1399 1.386 . S
C1398 C1400 1.391 1_556 S
C1399 C1398 1.386 . S
C1399 C1403 1.393 . S
C1400 H1389 0.950 . S
C1400 C1398 1.391 1_554 S
C1400 C1401 1.400 . S
C1401 C1395 1.491 . S
C1401 C1400 1.400 . S
C1401 C1402 1.398 1_554 S
C1402 H1390 0.950 . S
C1402 C1401 1.398 1_556 S
C1402 C1403 1.391 . S
C1403 H1391 0.950 . S
C1403 C1399 1.393 . S
C1403 C1402 1.391 . S
H1404 C1412 0.950 . S
H1405 C1417 0.950 . S
H1406 C1414 0.950 . S
H1407 C1416 0.950 . S
H1408 C1418 0.950 . S
H1409 C1420 0.950 . S
H1410 C1422 0.950 . S
H1411 C1423 0.950 . S
C1412 H1404 0.950 . S
C1412 C1413 1.386 . S
C1412 C1414 1.391 . S
C1413 C1412 1.386 . S
C1413 C1417 1.393 . S
C1414 H1406 0.950 . S
C1414 C1412 1.391 . S
C1414 C1415 1.400 . S
C1415 C1414 1.400 . S
C1415 C1416 1.398 . S
C1415 C1421 1.491 . S
C1416 H1407 0.950 . S
C1416 C1415 1.398 . S
C1416 C1417 1.391 . S
C1417 H1405 0.950 . S
C1417 C1413 1.393 . S
C1417 C1416 1.391 . S
C1418 H1408 0.950 . S
C1418 C1419 1.386 . S
C1418 C1420 1.391 . S
C1419 C1418 1.386 . S
C1419 C1423 1.393 . S
C1420 H1409 0.950 . S
C1420 C1418 1.391 . S
C1420 C1421 1.400 . S
C1421 C1415 1.491 . S
C1421 C1420 1.400 . S
C1421 C1422 1.398 . S
C1422 H1410 0.950 . S
C1422 C1421 1.398 . S
C1422 C1423 1.391 . S
C1423 H1411 0.950 . S
C1423 C1419 1.393 . S
C1423 C1422 1.391 . S
H1424 C1432 0.950 . S
H1425 C1437 0.950 . S
H1426 C1434 0.950 . S
H1427 C1436 0.950 . S
H1428 C1438 0.950 . S
H1429 C1440 0.950 . S
H1430 C1442 0.950 . S
H1431 C1443 0.950 . S
C1432 H1424 0.950 . S
C1432 C1433 1.386 . S
C1432 C1434 1.391 . S
C1433 C1432 1.386 . S
C1433 C1437 1.393 . S
C1434 H1426 0.950 . S
C1434 C1432 1.391 . S
C1434 C1435 1.400 1_554 S
C1435 C1434 1.400 1_556 S
C1435 C1436 1.398 . S
C1435 C1441 1.491 . S
C1436 H1427 0.950 . S
C1436 C1435 1.398 . S
C1436 C1437 1.391 1_556 S
C1437 H1425 0.950 . S
C1437 C1433 1.393 . S
C1437 C1436 1.391 1_554 S
C1438 H1428 0.950 . S
C1438 C1439 1.386 . S
C1438 C1440 1.391 . S
C1439 C1438 1.386 . S
C1439 C1443 1.393 . S
C1440 H1429 0.950 . S
C1440 C1438 1.391 . S
C1440 C1441 1.400 . S
C1441 C1435 1.491 . S
C1441 C1440 1.400 . S
C1441 C1442 1.398 . S
C1442 H1430 0.950 . S
C1442 C1441 1.398 . S
C1442 C1443 1.391 . S
C1443 H1431 0.950 . S
C1443 C1439 1.393 . S
C1443 C1442 1.391 . S
H1444 C1452 0.950 . S
H1445 C1457 0.950 . S
H1446 C1454 0.950 . S
H1447 C1456 0.950 . S
H1448 C1458 0.950 . S
H1449 C1460 0.950 . S
H1450 C1462 0.950 . S
H1451 C1463 0.950 . S
C1452 H1444 0.950 . S
C1452 C1453 1.386 . S
C1452 C1454 1.391 . S
C1453 C1452 1.386 . S
C1453 C1457 1.393 . S
C1454 H1446 0.950 . S
C1454 C1452 1.391 . S
C1454 C1455 1.400 . S
C1455 C1454 1.400 . S
C1455 C1456 1.398 . S
C1455 C1461 1.491 . S
C1456 H1447 0.950 . S
C1456 C1455 1.398 . S
C1456 C1457 1.391 . S
C1457 H1445 0.950 . S
C1457 C1453 1.393 . S
C1457 C1456 1.391 . S
C1458 H1448 0.950 . S
C1458 C1459 1.386 . S
C1458 C1460 1.391 . S
C1459 C1458 1.386 . S
C1459 C1463 1.393 . S
C1460 H1449 0.950 . S
C1460 C1458 1.391 . S
C1460 C1461 1.400 . S
C1461 C1455 1.491 . S
C1461 C1460 1.400 . S
C1461 C1462 1.398 . S
C1462 H1450 0.950 . S
C1462 C1461 1.398 . S
C1462 C1463 1.391 . S
C1463 H1451 0.950 . S
C1463 C1459 1.393 . S
C1463 C1462 1.391 . S
H1464 C1472 0.950 . S
H1465 C1477 0.950 . S
H1466 C1474 0.950 1_655 S
H1467 C1476 0.950 . S
H1468 C1478 0.950 . S
H1469 C1480 0.950 . S
H1470 C1482 0.950 . S
H1471 C1483 0.950 . S
C1472 H1464 0.950 . S
C1472 C1473 1.386 . S
C1472 C1474 1.391 . S
C1473 C1472 1.386 . S
C1473 C1477 1.393 . S
C1474 H1466 0.950 1_455 S
C1474 C1472 1.391 . S
C1474 C1475 1.400 . S
C1475 C1474 1.400 . S
C1475 C1476 1.398 . S
C1475 C1481 1.491 . S
C1476 H1467 0.950 . S
C1476 C1475 1.398 . S
C1476 C1477 1.391 . S
C1477 H1465 0.950 . S
C1477 C1473 1.393 . S
C1477 C1476 1.391 . S
C1478 H1468 0.950 . S
C1478 C1479 1.386 1_455 S
C1478 C1480 1.391 . S
C1479 C1478 1.386 1_655 S
C1479 C1483 1.393 . S
C1480 H1469 0.950 . S
C1480 C1478 1.391 . S
C1480 C1481 1.400 . S
C1481 C1475 1.491 . S
C1481 C1480 1.400 . S
C1481 C1482 1.398 1_455 S
C1482 H1470 0.950 . S
C1482 C1481 1.398 1_655 S
C1482 C1483 1.391 . S
C1483 H1471 0.950 . S
C1483 C1479 1.393 . S
C1483 C1482 1.391 . S
H1484 C1492 0.950 . S
H1485 C1497 0.950 . S
H1486 C1494 0.950 . S
H1487 C1496 0.950 . S
H1488 C1498 0.950 . S
H1489 C1500 0.950 . S
H1490 C1502 0.950 . S
H1491 C1503 0.950 . S
C1492 H1484 0.950 . S
C1492 C1493 1.386 . S
C1492 C1494 1.391 . S
C1493 C1492 1.386 . S
C1493 C1497 1.393 . S
C1494 H1486 0.950 . S
C1494 C1492 1.391 . S
C1494 C1495 1.400 . S
C1495 C1494 1.400 . S
C1495 C1496 1.398 . S
C1495 C1501 1.491 . S
C1496 H1487 0.950 . S
C1496 C1495 1.398 . S
C1496 C1497 1.391 . S
C1497 H1485 0.950 . S
C1497 C1493 1.393 . S
C1497 C1496 1.391 . S
C1498 H1488 0.950 . S
C1498 C1499 1.386 . S
C1498 C1500 1.391 . S
C1499 C1498 1.386 . S
C1499 C1503 1.393 . S
C1500 H1489 0.950 . S
C1500 C1498 1.391 . S
C1500 C1501 1.400 . S
C1501 C1495 1.491 . S
C1501 C1500 1.400 . S
C1501 C1502 1.398 . S
C1502 H1490 0.950 . S
C1502 C1501 1.398 . S
C1502 C1503 1.391 . S
C1503 H1491 0.950 . S
C1503 C1499 1.393 . S
C1503 C1502 1.391 . S
H1504 C1512 0.950 . S
H1505 C1517 0.950 . S
H1506 C1514 0.950 . S
H1507 C1516 0.950 . S
H1508 C1518 0.950 . S
H1509 C1520 0.950 . S
H1510 C1522 0.950 . S
H1511 C1523 0.950 . S
C1512 H1504 0.950 . S
C1512 C1513 1.386 . S
C1512 C1514 1.391 . S
C1513 C1512 1.386 . S
C1513 C1517 1.393 . S
C1514 H1506 0.950 . S
C1514 C1512 1.391 . S
C1514 C1515 1.400 . S
C1515 C1514 1.400 . S
C1515 C1516 1.398 . S
C1515 C1521 1.491 . S
C1516 H1507 0.950 . S
C1516 C1515 1.398 . S
C1516 C1517 1.391 . S
C1517 H1505 0.950 . S
C1517 C1513 1.393 . S
C1517 C1516 1.391 . S
C1518 H1508 0.950 . S
C1518 C1519 1.386 . S
C1518 C1520 1.391 . S
C1519 C1518 1.386 . S
C1519 C1523 1.393 . S
C1520 H1509 0.950 . S
C1520 C1518 1.391 . S
C1520 C1521 1.400 . S
C1521 C1515 1.491 . S
C1521 C1520 1.400 . S
C1521 C1522 1.398 . S
C1522 H1510 0.950 . S
C1522 C1521 1.398 . S
C1522 C1523 1.391 . S
C1523 H1511 0.950 . S
C1523 C1519 1.393 . S
C1523 C1522 1.391 . S
H1524 C1532 0.950 . S
H1525 C1537 0.950 . S
H1526 C1534 0.950 . S
H1527 C1536 0.950 . S
H1528 C1538 0.950 . S
H1529 C1540 0.950 . S
H1530 C1542 0.950 . S
H1531 C1543 0.950 . S
C1532 H1524 0.950 . S
C1532 C1533 1.386 . S
C1532 C1534 1.391 . S
C1533 C1532 1.386 . S
C1533 C1537 1.393 . S
C1534 H1526 0.950 . S
C1534 C1532 1.391 . S
C1534 C1535 1.400 . S
C1535 C1534 1.400 . S
C1535 C1536 1.398 . S
C1535 C1541 1.491 . S
C1536 H1527 0.950 . S
C1536 C1535 1.398 . S
C1536 C1537 1.391 . S
C1537 H1525 0.950 . S
C1537 C1533 1.393 . S
C1537 C1536 1.391 . S
C1538 H1528 0.950 . S
C1538 C1539 1.386 . S
C1538 C1540 1.391 . S
C1539 C1538 1.386 . S
C1539 C1543 1.393 . S
C1540 H1529 0.950 . S
C1540 C1538 1.391 . S
C1540 C1541 1.400 . S
C1541 C1535 1.491 . S
C1541 C1540 1.400 . S
C1541 C1542 1.398 . S
C1542 H1530 0.950 . S
C1542 C1541 1.398 . S
C1542 C1543 1.391 . S
C1543 H1531 0.950 . S
C1543 C1539 1.393 . S
C1543 C1542 1.391 . S
H1544 C1552 0.950 . S
H1545 C1557 0.950 . S
H1546 C1554 0.950 . S
H1547 C1556 0.953 . S
H1548 C1558 0.950 . S
H1549 C1560 0.950 . S
H1550 C1562 0.950 . S
H1551 C1563 0.950 . S
C1552 H1544 0.950 . S
C1552 C1553 1.386 . S
C1552 C1554 1.391 1_554 S
C1553 C1552 1.386 . S
C1553 C1557 1.393 . S
C1554 H1546 0.950 . S
C1554 C1552 1.391 1_556 S
C1554 C1555 1.400 . S
C1555 C1554 1.400 . S
C1555 C1556 1.405 . S
C1555 C1561 1.491 . S
C1556 H1547 0.953 . S
C1556 C1555 1.405 . S
C1556 C1557 1.381 1_556 S
C1557 H1545 0.950 . S
C1557 C1553 1.393 . S
C1557 C1556 1.381 1_554 S
C1558 H1548 0.950 . S
C1558 C1559 1.386 . S
C1558 C1560 1.391 1_455 S
C1559 C1558 1.386 . S
C1559 C1563 1.393 . S
C1560 H1549 0.950 . S
C1560 C1558 1.391 1_655 S
C1560 C1561 1.400 . S
C1561 C1555 1.491 . S
C1561 C1560 1.400 . S
C1561 C1562 1.398 . S
C1562 H1550 0.950 . S
C1562 C1561 1.398 . S
C1562 C1563 1.391 1_655 S
C1563 H1551 0.950 . S
C1563 C1559 1.393 . S
C1563 C1562 1.391 1_455 S
H1564 C1572 0.950 . S
H1565 C1577 0.950 . S
H1566 C1574 0.950 . S
H1567 C1576 0.950 . S
H1568 C1578 0.950 . S
H1569 C1580 0.950 . S
H1570 C1582 0.950 . S
H1571 C1583 0.950 . S
C1572 H1564 0.950 . S
C1572 C1573 1.386 . S
C1572 C1574 1.391 . S
C1573 C1572 1.386 . S
C1573 C1577 1.393 . S
C1574 H1566 0.950 . S
C1574 C1572 1.391 . S
C1574 C1575 1.400 . S
C1575 C1574 1.400 . S
C1575 C1576 1.398 . S
C1575 C1581 1.491 . S
C1576 H1567 0.950 . S
C1576 C1575 1.398 . S
C1576 C1577 1.391 . S
C1577 H1565 0.950 . S
C1577 C1573 1.393 . S
C1577 C1576 1.391 . S
C1578 H1568 0.950 . S
C1578 C1579 1.386 . S
C1578 C1580 1.391 . S
C1579 C1578 1.386 . S
C1579 C1583 1.393 . S
C1580 H1569 0.950 . S
C1580 C1578 1.391 . S
C1580 C1581 1.400 . S
C1581 C1575 1.491 . S
C1581 C1580 1.400 . S
C1581 C1582 1.398 . S
C1582 H1570 0.950 . S
C1582 C1581 1.398 . S
C1582 C1583 1.391 . S
C1583 H1571 0.950 . S
C1583 C1579 1.393 . S
C1583 C1582 1.391 . S
H1584 C1592 0.950 . S
H1585 C1597 0.950 . S
H1586 C1594 0.950 . S
H1587 C1596 0.950 . S
H1588 C1598 0.950 . S
H1589 C1600 0.950 . S
H1590 C1602 0.950 . S
H1591 C1603 0.950 . S
C1592 H1584 0.950 . S
C1592 C1593 1.386 . S
C1592 C1594 1.391 1_556 S
C1593 C1592 1.386 . S
C1593 C1597 1.393 . S
C1594 H1586 0.950 . S
C1594 C1592 1.391 1_554 S
C1594 C1595 1.400 . S
C1595 C1594 1.400 . S
C1595 C1596 1.398 . S
C1595 C1601 1.491 . S
C1596 H1587 0.950 . S
C1596 C1595 1.398 . S
C1596 C1597 1.391 1_554 S
C1597 H1585 0.950 . S
C1597 C1593 1.393 . S
C1597 C1596 1.391 1_556 S
C1598 H1588 0.950 . S
C1598 C1599 1.386 . S
C1598 C1600 1.391 . S
C1599 C1598 1.386 . S
C1599 C1603 1.393 . S
C1600 H1589 0.950 . S
C1600 C1598 1.391 . S
C1600 C1601 1.400 . S
C1601 C1595 1.491 . S
C1601 C1600 1.400 . S
C1601 C1602 1.398 . S
C1602 H1590 0.950 . S
C1602 C1601 1.398 . S
C1602 C1603 1.391 . S
C1603 H1591 0.950 . S
C1603 C1599 1.393 . S
C1603 C1602 1.391 . S
H1604 C1612 0.950 . S
H1605 C1617 0.950 . S
H1606 C1614 0.950 . S
H1607 C1616 0.950 . S
H1608 C1618 0.950 . S
H1609 C1620 0.950 . S
H1610 C1622 0.950 . S
H1611 C1623 0.950 . S
C1612 H1604 0.950 . S
C1612 C1613 1.386 . S
C1612 C1614 1.391 . S
C1613 C1612 1.386 . S
C1613 C1617 1.393 . S
C1614 H1606 0.950 . S
C1614 C1612 1.391 . S
C1614 C1615 1.400 . S
C1615 C1614 1.400 . S
C1615 C1616 1.398 . S
C1615 C1621 1.491 . S
C1616 H1607 0.950 . S
C1616 C1615 1.398 . S
C1616 C1617 1.391 . S
C1617 H1605 0.950 . S
C1617 C1613 1.393 . S
C1617 C1616 1.391 . S
C1618 H1608 0.950 . S
C1618 C1619 1.386 . S
C1618 C1620 1.391 . S
C1619 C1618 1.386 . S
C1619 C1623 1.393 . S
C1620 H1609 0.950 . S
C1620 C1618 1.391 . S
C1620 C1621 1.400 . S
C1621 C1615 1.491 . S
C1621 C1620 1.400 . S
C1621 C1622 1.398 . S
C1622 H1610 0.950 . S
C1622 C1621 1.398 . S
C1622 C1623 1.391 . S
C1623 H1611 0.950 . S
C1623 C1619 1.393 . S
C1623 C1622 1.391 . S
H1624 C1632 0.950 . S
H1625 C1637 0.950 . S
H1626 C1634 0.950 . S
H1627 C1636 0.950 . S
H1628 C1638 0.950 . S
H1629 C1640 0.950 . S
H1630 C1642 0.950 . S
H1631 C1643 0.950 . S
C1632 H1624 0.950 . S
C1632 C1633 1.386 . S
C1632 C1634 1.391 . S
C1633 C1632 1.386 . S
C1633 C1637 1.393 . S
C1634 H1626 0.950 . S
C1634 C1632 1.391 . S
C1634 C1635 1.400 . S
C1635 C1634 1.400 . S
C1635 C1636 1.398 . S
C1635 C1641 1.491 . S
C1636 H1627 0.950 . S
C1636 C1635 1.398 . S
C1636 C1637 1.391 . S
C1637 H1625 0.950 . S
C1637 C1633 1.393 . S
C1637 C1636 1.391 . S
C1638 H1628 0.950 . S
C1638 C1639 1.386 . S
C1638 C1640 1.391 . S
C1639 C1638 1.386 . S
C1639 C1643 1.393 1_455 S
C1640 H1629 0.950 . S
C1640 C1638 1.391 . S
C1640 C1641 1.400 1_455 S
C1641 C1635 1.491 . S
C1641 C1640 1.400 1_655 S
C1641 C1642 1.398 . S
C1642 H1630 0.950 . S
C1642 C1641 1.398 . S
C1642 C1643 1.391 . S
C1643 H1631 0.950 . S
C1643 C1639 1.393 1_655 S
C1643 C1642 1.391 . S
H1644 C1652 0.950 . S
H1645 C1657 0.950 . S
H1646 C1654 0.950 . S
H1647 C1656 0.950 . S
H1648 C1658 0.950 . S
H1649 C1660 0.950 . S
H1650 C1662 0.950 . S
H1651 C1663 0.950 . S
C1652 H1644 0.950 . S
C1652 C1653 1.386 . S
C1652 C1654 1.391 . S
C1653 C1652 1.386 . S
C1653 C1657 1.393 . S
C1654 H1646 0.950 . S
C1654 C1652 1.391 . S
C1654 C1655 1.400 . S
C1655 C1654 1.400 . S
C1655 C1656 1.398 . S
C1655 C1661 1.491 . S
C1656 H1647 0.950 . S
C1656 C1655 1.398 . S
C1656 C1657 1.391 . S
C1657 H1645 0.950 . S
C1657 C1653 1.393 . S
C1657 C1656 1.391 . S
C1658 H1648 0.950 . S
C1658 C1659 1.386 . S
C1658 C1660 1.391 . S
C1659 C1658 1.386 . S
C1659 C1663 1.393 . S
C1660 H1649 0.950 . S
C1660 C1658 1.391 . S
C1660 C1661 1.400 . S
C1661 C1655 1.491 . S
C1661 C1660 1.400 . S
C1661 C1662 1.398 . S
C1662 H1650 0.950 . S
C1662 C1661 1.398 . S
C1662 C1663 1.391 . S
C1663 H1651 0.950 . S
C1663 C1659 1.393 . S
C1663 C1662 1.391 . S
H1664 C1672 0.950 . S
H1665 C1677 0.950 . S
H1666 C1674 0.950 . S
H1667 C1676 0.950 . S
H1668 C1678 0.950 . S
H1669 C1680 0.950 . S
H1670 C1682 0.950 . S
H1671 C1683 0.950 . S
C1672 H1664 0.950 . S
C1672 C1673 1.386 . S
C1672 C1674 1.391 . S
C1673 C1672 1.386 . S
C1673 C1677 1.393 . S
C1674 H1666 0.950 . S
C1674 C1672 1.391 . S
C1674 C1675 1.400 . S
C1675 C1674 1.400 . S
C1675 C1676 1.398 . S
C1675 C1681 1.491 . S
C1676 H1667 0.950 . S
C1676 C1675 1.398 . S
C1676 C1677 1.391 . S
C1677 H1665 0.950 . S
C1677 C1673 1.393 . S
C1677 C1676 1.391 . S
C1678 H1668 0.950 . S
C1678 C1679 1.386 . S
C1678 C1680 1.391 . S
C1679 C1678 1.386 . S
C1679 C1683 1.393 . S
C1680 H1669 0.950 . S
C1680 C1678 1.391 . S
C1680 C1681 1.400 . S
C1681 C1675 1.491 . S
C1681 C1680 1.400 . S
C1681 C1682 1.398 . S
C1682 H1670 0.950 . S
C1682 C1681 1.398 . S
C1682 C1683 1.391 . S
C1683 H1671 0.950 . S
C1683 C1679 1.393 . S
C1683 C1682 1.391 . S
H1684 C1692 0.950 . S
H1685 C1697 0.950 . S
H1686 C1694 0.950 . S
H1687 C1696 0.950 . S
H1688 C1698 0.950 . S
H1689 C1700 0.950 . S
H1690 C1702 0.950 . S
H1691 C1703 0.950 . S
C1692 H1684 0.950 . S
C1692 C1693 1.386 . S
C1692 C1694 1.391 . S
C1693 C1692 1.386 . S
C1693 C1697 1.393 . S
C1694 H1686 0.950 . S
C1694 C1692 1.391 . S
C1694 C1695 1.400 . S
C1695 C1694 1.400 . S
C1695 C1696 1.398 . S
C1695 C1701 1.491 . S
C1696 H1687 0.950 . S
C1696 C1695 1.398 . S
C1696 C1697 1.391 . S
C1697 H1685 0.950 . S
C1697 C1693 1.393 . S
C1697 C1696 1.391 . S
C1698 H1688 0.950 . S
C1698 C1699 1.386 . S
C1698 C1700 1.391 . S
C1699 C1698 1.386 . S
C1699 C1703 1.393 . S
C1700 H1689 0.950 . S
C1700 C1698 1.391 . S
C1700 C1701 1.400 . S
C1701 C1695 1.491 . S
C1701 C1700 1.400 . S
C1701 C1702 1.398 . S
C1702 H1690 0.950 . S
C1702 C1701 1.398 . S
C1702 C1703 1.391 . S
C1703 H1691 0.950 . S
C1703 C1699 1.393 . S
C1703 C1702 1.391 . S
H1704 C1712 0.950 . S
H1705 C1717 0.950 . S
H1706 C1714 0.950 . S
H1707 C1716 0.950 . S
H1708 C1718 0.950 . S
H1709 C1720 0.950 . S
H1710 C1722 0.950 . S
H1711 C1723 0.950 . S
C1712 H1704 0.950 . S
C1712 C1713 1.386 . S
C1712 C1714 1.391 . S
C1713 C1712 1.386 . S
C1713 C1717 1.393 . S
C1714 H1706 0.950 . S
C1714 C1712 1.391 . S
C1714 C1715 1.400 . S
C1715 C1714 1.400 . S
C1715 C1716 1.398 . S
C1715 C1721 1.491 . S
C1716 H1707 0.950 . S
C1716 C1715 1.398 . S
C1716 C1717 1.391 . S
C1717 H1705 0.950 . S
C1717 C1713 1.393 . S
C1717 C1716 1.391 . S
C1718 H1708 0.950 . S
C1718 C1719 1.386 . S
C1718 C1720 1.391 . S
C1719 C1718 1.386 . S
C1719 C1723 1.393 . S
C1720 H1709 0.950 . S
C1720 C1718 1.391 . S
C1720 C1721 1.400 . S
C1721 C1715 1.491 . S
C1721 C1720 1.400 . S
C1721 C1722 1.398 . S
C1722 H1710 0.950 . S
C1722 C1721 1.398 . S
C1722 C1723 1.391 . S
C1723 H1711 0.950 . S
C1723 C1719 1.393 . S
C1723 C1722 1.391 . S
H1724 C1732 0.950 . S
H1725 C1737 0.950 . S
H1726 C1734 0.950 . S
H1727 C1736 0.950 . S
H1728 C1738 0.950 . S
H1729 C1740 0.950 . S
H1730 C1742 0.950 . S
H1731 C1743 0.950 . S
C1732 H1724 0.950 . S
C1732 C1733 1.386 . S
C1732 C1734 1.391 . S
C1733 C1732 1.386 . S
C1733 C1737 1.393 . S
C1734 H1726 0.950 . S
C1734 C1732 1.391 . S
C1734 C1735 1.400 . S
C1735 C1734 1.400 . S
C1735 C1736 1.398 . S
C1735 C1741 1.491 . S
C1736 H1727 0.950 . S
C1736 C1735 1.398 . S
C1736 C1737 1.391 . S
C1737 H1725 0.950 . S
C1737 C1733 1.393 . S
C1737 C1736 1.391 . S
C1738 H1728 0.950 . S
C1738 C1739 1.386 . S
C1738 C1740 1.391 . S
C1739 C1738 1.386 . S
C1739 C1743 1.393 . S
C1740 H1729 0.950 . S
C1740 C1738 1.391 . S
C1740 C1741 1.400 . S
C1741 C1735 1.491 . S
C1741 C1740 1.400 . S
C1741 C1742 1.398 . S
C1742 H1730 0.950 . S
C1742 C1741 1.398 . S
C1742 C1743 1.391 . S
C1743 H1731 0.950 . S
C1743 C1739 1.393 . S
C1743 C1742 1.391 . S
H1744 C1752 0.950 . S
H1745 C1757 0.950 . S
H1746 C1754 0.950 . S
H1747 C1756 0.950 . S
H1748 C1758 0.950 . S
H1749 C1760 0.950 . S
H1750 C1762 0.950 . S
H1751 C1763 0.950 . S
C1752 H1744 0.950 . S
C1752 C1753 1.386 . S
C1752 C1754 1.391 . S
C1753 C1752 1.386 . S
C1753 C1757 1.393 . S
C1754 H1746 0.950 . S
C1754 C1752 1.391 . S
C1754 C1755 1.400 . S
C1755 C1754 1.400 . S
C1755 C1756 1.398 . S
C1755 C1761 1.491 . S
C1756 H1747 0.950 . S
C1756 C1755 1.398 . S
C1756 C1757 1.391 . S
C1757 H1745 0.950 . S
C1757 C1753 1.393 . S
C1757 C1756 1.391 . S
C1758 H1748 0.950 . S
C1758 C1759 1.386 . S
C1758 C1760 1.391 . S
C1759 C1758 1.386 . S
C1759 C1763 1.393 . S
C1760 H1749 0.950 . S
C1760 C1758 1.391 . S
C1760 C1761 1.400 . S
C1761 C1755 1.491 . S
C1761 C1760 1.400 . S
C1761 C1762 1.398 . S
C1762 H1750 0.950 . S
C1762 C1761 1.398 . S
C1762 C1763 1.391 . S
C1763 H1751 0.950 . S
C1763 C1759 1.393 . S
C1763 C1762 1.391 . S
H1764 C1772 0.950 . S
H1765 C1777 0.950 . S
H1766 C1774 0.950 . S
H1767 C1776 0.950 . S
H1768 C1778 0.950 . S
H1769 C1780 0.950 . S
H1770 C1782 0.950 . S
H1771 C1783 0.950 . S
C1772 H1764 0.950 . S
C1772 C1773 1.386 . S
C1772 C1774 1.391 . S
C1773 C1772 1.386 . S
C1773 C1777 1.393 . S
C1774 H1766 0.950 . S
C1774 C1772 1.391 . S
C1774 C1775 1.400 . S
C1775 C1774 1.400 . S
C1775 C1776 1.398 . S
C1775 C1781 1.491 . S
C1776 H1767 0.950 . S
C1776 C1775 1.398 . S
C1776 C1777 1.391 . S
C1777 H1765 0.950 . S
C1777 C1773 1.393 . S
C1777 C1776 1.391 . S
C1778 H1768 0.950 . S
C1778 C1779 1.386 . S
C1778 C1780 1.391 . S
C1779 C1778 1.386 . S
C1779 C1783 1.393 . S
C1780 H1769 0.950 . S
C1780 C1778 1.391 . S
C1780 C1781 1.400 . S
C1781 C1775 1.491 . S
C1781 C1780 1.400 . S
C1781 C1782 1.398 . S
C1782 H1770 0.950 . S
C1782 C1781 1.398 . S
C1782 C1783 1.391 . S
C1783 H1771 0.950 . S
C1783 C1779 1.393 . S
C1783 C1782 1.391 . S
H1784 C1792 0.950 . S
H1785 C1797 0.950 . S
H1786 C1794 0.950 . S
H1787 C1796 0.950 . S
H1788 C1798 0.950 . S
H1789 C1800 0.950 . S
H1790 C1802 0.950 . S
H1791 C1803 0.950 . S
C1792 H1784 0.950 . S
C1792 C1793 1.386 . S
C1792 C1794 1.391 . S
C1793 C1792 1.386 . S
C1793 C1797 1.393 . S
C1794 H1786 0.950 . S
C1794 C1792 1.391 . S
C1794 C1795 1.400 . S
C1795 C1794 1.400 . S
C1795 C1796 1.398 . S
C1795 C1801 1.491 . S
C1796 H1787 0.950 . S
C1796 C1795 1.398 . S
C1796 C1797 1.391 . S
C1797 H1785 0.950 . S
C1797 C1793 1.393 . S
C1797 C1796 1.391 . S
C1798 H1788 0.950 . S
C1798 C1799 1.386 . S
C1798 C1800 1.391 . S
C1799 C1798 1.386 . S
C1799 C1803 1.393 . S
C1800 H1789 0.950 . S
C1800 C1798 1.391 . S
C1800 C1801 1.400 . S
C1801 C1795 1.491 . S
C1801 C1800 1.400 . S
C1801 C1802 1.398 . S
C1802 H1790 0.950 . S
C1802 C1801 1.398 . S
C1802 C1803 1.391 . S
C1803 H1791 0.950 . S
C1803 C1799 1.393 . S
C1803 C1802 1.391 . S
H1804 C1812 0.950 . S
H1805 C1817 0.950 . S
H1806 C1814 0.950 . S
H1807 C1816 0.950 . S
H1808 C1818 0.950 . S
H1809 C1820 0.950 . S
H1810 C1822 0.950 . S
H1811 C1823 0.950 . S
C1812 H1804 0.950 . S
C1812 C1813 1.386 . S
C1812 C1814 1.391 . S
C1813 C1812 1.386 . S
C1813 C1817 1.393 . S
C1814 H1806 0.950 . S
C1814 C1812 1.391 . S
C1814 C1815 1.400 . S
C1815 C1814 1.400 . S
C1815 C1816 1.398 . S
C1815 C1821 1.491 . S
C1816 H1807 0.950 . S
C1816 C1815 1.398 . S
C1816 C1817 1.391 . S
C1817 H1805 0.950 . S
C1817 C1813 1.393 . S
C1817 C1816 1.391 . S
C1818 H1808 0.950 . S
C1818 C1819 1.386 . S
C1818 C1820 1.391 . S
C1819 C1818 1.386 . S
C1819 C1823 1.393 . S
C1820 H1809 0.950 . S
C1820 C1818 1.391 . S
C1820 C1821 1.400 . S
C1821 C1815 1.491 . S
C1821 C1820 1.400 . S
C1821 C1822 1.398 . S
C1822 H1810 0.950 . S
C1822 C1821 1.398 . S
C1822 C1823 1.391 . S
C1823 H1811 0.950 . S
C1823 C1819 1.393 . S
C1823 C1822 1.391 . S
H1824 C1832 0.950 . S
H1825 C1837 0.950 . S
H1826 C1834 0.950 . S
H1827 C1836 0.950 . S
H1828 C1838 0.950 . S
H1829 C1840 0.950 . S
H1830 C1842 0.950 . S
H1831 C1843 0.950 . S
C1832 H1824 0.950 . S
C1832 C1833 1.386 . S
C1832 C1834 1.391 . S
C1833 C1832 1.386 . S
C1833 C1837 1.393 . S
C1834 H1826 0.950 . S
C1834 C1832 1.391 . S
C1834 C1835 1.400 . S
C1835 C1834 1.400 . S
C1835 C1836 1.398 . S
C1835 C1841 1.491 . S
C1836 H1827 0.950 . S
C1836 C1835 1.398 . S
C1836 C1837 1.391 . S
C1837 H1825 0.950 . S
C1837 C1833 1.393 . S
C1837 C1836 1.391 . S
C1838 H1828 0.950 . S
C1838 C1839 1.386 . S
C1838 C1840 1.391 . S
C1839 C1838 1.386 . S
C1839 C1843 1.393 . S
C1840 H1829 0.950 . S
C1840 C1838 1.391 . S
C1840 C1841 1.400 . S
C1841 C1835 1.491 . S
C1841 C1840 1.400 . S
C1841 C1842 1.398 . S
C1842 H1830 0.950 . S
C1842 C1841 1.398 . S
C1842 C1843 1.391 . S
C1843 H1831 0.950 . S
C1843 C1839 1.393 . S
C1843 C1842 1.391 . S
H1844 C1852 0.950 . S
H1845 C1857 0.950 . S
H1846 C1854 0.950 . S
H1847 C1856 0.950 . S
H1848 C1858 0.950 . S
H1849 C1860 0.950 . S
H1850 C1862 0.950 . S
H1851 C1863 0.950 . S
C1852 H1844 0.950 . S
C1852 C1853 1.386 . S
C1852 C1854 1.391 . S
C1853 C1852 1.386 . S
C1853 C1857 1.393 . S
C1854 H1846 0.950 . S
C1854 C1852 1.391 . S
C1854 C1855 1.400 . S
C1855 C1854 1.400 . S
C1855 C1856 1.398 . S
C1855 C1861 1.491 . S
C1856 H1847 0.950 . S
C1856 C1855 1.398 . S
C1856 C1857 1.391 . S
C1857 H1845 0.950 . S
C1857 C1853 1.393 . S
C1857 C1856 1.391 . S
C1858 H1848 0.950 . S
C1858 C1859 1.386 . S
C1858 C1860 1.391 . S
C1859 C1858 1.386 . S
C1859 C1863 1.393 . S
C1860 H1849 0.950 . S
C1860 C1858 1.391 . S
C1860 C1861 1.400 . S
C1861 C1855 1.491 . S
C1861 C1860 1.400 . S
C1861 C1862 1.398 . S
C1862 H1850 0.950 . S
C1862 C1861 1.398 . S
C1862 C1863 1.391 . S
C1863 H1851 0.950 . S
C1863 C1859 1.393 . S
C1863 C1862 1.391 . S
H1864 C1872 0.950 . S
H1865 C1877 0.950 . S
H1866 C1874 0.950 . S
H1867 C1876 0.950 . S
H1868 C1878 0.950 . S
H1869 C1880 0.950 . S
H1870 C1882 0.950 . S
H1871 C1883 0.950 . S
C1872 H1864 0.950 . S
C1872 C1873 1.386 . S
C1872 C1874 1.391 . S
C1873 C1872 1.386 . S
C1873 C1877 1.393 . S
C1874 H1866 0.950 . S
C1874 C1872 1.391 . S
C1874 C1875 1.400 . S
C1875 C1874 1.400 . S
C1875 C1876 1.398 . S
C1875 C1881 1.491 . S
C1876 H1867 0.950 . S
C1876 C1875 1.398 . S
C1876 C1877 1.391 . S
C1877 H1865 0.950 . S
C1877 C1873 1.393 . S
C1877 C1876 1.391 . S
C1878 H1868 0.950 . S
C1878 C1879 1.386 . S
C1878 C1880 1.391 . S
C1879 C1878 1.386 . S
C1879 C1883 1.393 . S
C1880 H1869 0.950 . S
C1880 C1878 1.391 . S
C1880 C1881 1.400 . S
C1881 C1875 1.491 . S
C1881 C1880 1.400 . S
C1881 C1882 1.398 . S
C1882 H1870 0.950 . S
C1882 C1881 1.398 . S
C1882 C1883 1.391 . S
C1883 H1871 0.950 . S
C1883 C1879 1.393 . S
C1883 C1882 1.391 . S
H1884 C1892 0.950 . S
H1885 C1897 0.950 . S
H1886 C1894 0.950 . S
H1887 C1896 0.950 . S
H1888 C1898 0.950 . S
H1889 C1900 0.950 . S
H1890 C1902 0.950 . S
H1891 C1903 0.950 . S
C1892 H1884 0.950 . S
C1892 C1893 1.386 . S
C1892 C1894 1.391 . S
C1893 C1892 1.386 . S
C1893 C1897 1.393 . S
C1894 H1886 0.950 . S
C1894 C1892 1.391 . S
C1894 C1895 1.400 . S
C1895 C1894 1.400 . S
C1895 C1896 1.398 . S
C1895 C1901 1.491 . S
C1896 H1887 0.950 . S
C1896 C1895 1.398 . S
C1896 C1897 1.391 . S
C1897 H1885 0.950 . S
C1897 C1893 1.393 . S
C1897 C1896 1.391 . S
C1898 H1888 0.950 . S
C1898 C1899 1.386 . S
C1898 C1900 1.391 . S
C1899 C1898 1.386 . S
C1899 C1903 1.393 . S
C1900 H1889 0.950 . S
C1900 C1898 1.391 . S
C1900 C1901 1.400 . S
C1901 C1895 1.491 . S
C1901 C1900 1.400 . S
C1901 C1902 1.398 . S
C1902 H1890 0.950 . S
C1902 C1901 1.398 . S
C1902 C1903 1.391 . S
C1903 H1891 0.950 . S
C1903 C1899 1.393 . S
C1903 C1902 1.391 . S
H1904 C1912 0.950 . S
H1905 C1917 0.950 . S
H1906 C1914 0.950 . S
H1907 C1916 0.950 . S
H1908 C1918 0.950 . S
H1909 C1920 0.950 . S
H1910 C1922 0.950 . S
H1911 C1923 0.950 . S
C1912 H1904 0.950 . S
C1912 C1913 1.386 . S
C1912 C1914 1.391 . S
C1913 C1912 1.386 . S
C1913 C1917 1.393 . S
C1914 H1906 0.950 . S
C1914 C1912 1.391 . S
C1914 C1915 1.400 . S
C1915 C1914 1.400 . S
C1915 C1916 1.398 . S
C1915 C1921 1.491 . S
C1916 H1907 0.950 . S
C1916 C1915 1.398 . S
C1916 C1917 1.391 . S
C1917 H1905 0.950 . S
C1917 C1913 1.393 . S
C1917 C1916 1.391 . S
C1918 H1908 0.950 . S
C1918 C1919 1.386 . S
C1918 C1920 1.391 . S
C1919 C1918 1.386 . S
C1919 C1923 1.393 . S
C1920 H1909 0.950 . S
C1920 C1918 1.391 . S
C1920 C1921 1.400 . S
C1921 C1915 1.491 . S
C1921 C1920 1.400 . S
C1921 C1922 1.398 . S
C1922 H1910 0.950 . S
C1922 C1921 1.398 . S
C1922 C1923 1.391 . S
C1923 H1911 0.950 . S
C1923 C1919 1.393 . S
C1923 C1922 1.391 . S
H1924 C1932 0.950 . S
H1925 C1937 0.950 . S
H1926 C1934 0.950 . S
H1927 C1936 0.950 . S
H1928 C1938 0.950 . S
H1929 C1940 0.950 . S
H1930 C1942 0.950 . S
H1931 C1943 0.950 . S
C1932 H1924 0.950 . S
C1932 C1933 1.386 . S
C1932 C1934 1.391 . S
C1933 C1932 1.386 . S
C1933 C1937 1.393 . S
C1934 H1926 0.950 . S
C1934 C1932 1.391 . S
C1934 C1935 1.400 . S
C1935 C1934 1.400 . S
C1935 C1936 1.398 . S
C1935 C1941 1.491 . S
C1936 H1927 0.950 . S
C1936 C1935 1.398 . S
C1936 C1937 1.391 . S
C1937 H1925 0.950 . S
C1937 C1933 1.393 . S
C1937 C1936 1.391 . S
C1938 H1928 0.950 . S
C1938 C1939 1.386 . S
C1938 C1940 1.391 . S
C1939 C1938 1.386 . S
C1939 C1943 1.393 . S
C1940 H1929 0.950 . S
C1940 C1938 1.391 . S
C1940 C1941 1.400 . S
C1941 C1935 1.491 . S
C1941 C1940 1.400 . S
C1941 C1942 1.398 . S
C1942 H1930 0.950 . S
C1942 C1941 1.398 . S
C1942 C1943 1.391 . S
C1943 H1931 0.950 . S
C1943 C1939 1.393 . S
C1943 C1942 1.391 . S
H1944 C1952 0.950 . S
H1945 C1957 0.950 . S
H1946 C1954 0.950 . S
H1947 C1956 0.950 . S
H1948 C1958 0.950 . S
H1949 C1960 0.950 . S
H1950 C1962 0.950 . S
H1951 C1963 0.950 . S
C1952 H1944 0.950 . S
C1952 C1953 1.386 . S
C1952 C1954 1.391 . S
C1953 C1952 1.386 . S
C1953 C1957 1.393 . S
C1954 H1946 0.950 . S
C1954 C1952 1.391 . S
C1954 C1955 1.400 . S
C1955 C1954 1.400 . S
C1955 C1956 1.398 . S
C1955 C1961 1.491 . S
C1956 H1947 0.950 . S
C1956 C1955 1.398 . S
C1956 C1957 1.391 . S
C1957 H1945 0.950 . S
C1957 C1953 1.393 . S
C1957 C1956 1.391 . S
C1958 H1948 0.950 . S
C1958 C1959 1.386 . S
C1958 C1960 1.391 . S
C1959 C1958 1.386 . S
C1959 C1963 1.393 . S
C1960 H1949 0.950 . S
C1960 C1958 1.391 . S
C1960 C1961 1.400 . S
C1961 C1955 1.491 . S
C1961 C1960 1.400 . S
C1961 C1962 1.398 . S
C1962 H1950 0.950 . S
C1962 C1961 1.398 . S
C1962 C1963 1.391 . S
C1963 H1951 0.950 . S
C1963 C1959 1.393 . S
C1963 C1962 1.391 . S
H1964 C1972 0.950 . S
H1965 C1977 0.950 . S
H1966 C1974 0.950 . S
H1967 C1976 0.950 . S
H1968 C1978 0.950 . S
H1969 C1980 0.950 . S
H1970 C1982 0.950 . S
H1971 C1983 0.950 . S
C1972 H1964 0.950 . S
C1972 C1973 1.386 . S
C1972 C1974 1.391 . S
C1973 C1972 1.386 . S
C1973 C1977 1.393 . S
C1974 H1966 0.950 . S
C1974 C1972 1.391 . S
C1974 C1975 1.400 . S
C1975 C1974 1.400 . S
C1975 C1976 1.398 . S
C1975 C1981 1.491 . S
C1976 H1967 0.950 . S
C1976 C1975 1.398 . S
C1976 C1977 1.391 . S
C1977 H1965 0.950 . S
C1977 C1973 1.393 . S
C1977 C1976 1.391 . S
C1978 H1968 0.950 . S
C1978 C1979 1.386 . S
C1978 C1980 1.391 . S
C1979 C1978 1.386 . S
C1979 C1983 1.393 . S
C1980 H1969 0.950 . S
C1980 C1978 1.391 . S
C1980 C1981 1.400 . S
C1981 C1975 1.491 . S
C1981 C1980 1.400 . S
C1981 C1982 1.398 . S
C1982 H1970 0.950 . S
C1982 C1981 1.398 . S
C1982 C1983 1.391 . S
C1983 H1971 0.950 . S
C1983 C1979 1.393 . S
C1983 C1982 1.391 . S
H1984 C1992 0.950 . S
H1985 C1997 0.950 . S
H1986 C1994 0.950 . S
H1987 C1996 0.950 . S
H1988 C1998 0.950 . S
H1989 C2000 0.950 . S
H1990 C2002 0.950 . S
H1991 C2003 0.950 . S
C1992 H1984 0.950 . S
C1992 C1993 1.386 . S
C1992 C1994 1.391 . S
C1993 C1992 1.386 . S
C1993 C1997 1.393 . S
C1994 H1986 0.950 . S
C1994 C1992 1.391 . S
C1994 C1995 1.400 . S
C1995 C1994 1.400 . S
C1995 C1996 1.398 . S
C1995 C2001 1.491 . S
C1996 H1987 0.950 . S
C1996 C1995 1.398 . S
C1996 C1997 1.391 . S
C1997 H1985 0.950 . S
C1997 C1993 1.393 . S
C1997 C1996 1.391 . S
C1998 H1988 0.950 . S
C1998 C1999 1.386 . S
C1998 C2000 1.391 . S
C1999 C1998 1.386 . S
C1999 C2003 1.393 . S
C2000 H1989 0.950 . S
C2000 C1998 1.391 . S
C2000 C2001 1.400 . S
C2001 C1995 1.491 . S
C2001 C2000 1.400 . S
C2001 C2002 1.398 . S
C2002 H1990 0.950 . S
C2002 C2001 1.398 . S
C2002 C2003 1.391 . S
C2003 H1991 0.950 . S
C2003 C1999 1.393 . S
C2003 C2002 1.391 . S
H2004 C2012 0.950 . S
H2005 C2017 0.950 . S
H2006 C2014 0.950 . S
H2007 C2016 0.950 . S
H2008 C2018 0.950 . S
H2009 C2020 0.950 . S
H2010 C2022 0.950 . S
H2011 C2023 0.950 . S
C2012 H2004 0.950 . S
C2012 C2013 1.386 . S
C2012 C2014 1.391 . S
C2013 C2012 1.386 . S
C2013 C2017 1.393 . S
C2014 H2006 0.950 . S
C2014 C2012 1.391 . S
C2014 C2015 1.400 . S
C2015 C2014 1.400 . S
C2015 C2016 1.398 . S
C2015 C2021 1.491 . S
C2016 H2007 0.950 . S
C2016 C2015 1.398 . S
C2016 C2017 1.391 . S
C2017 H2005 0.950 . S
C2017 C2013 1.393 . S
C2017 C2016 1.391 . S
C2018 H2008 0.950 . S
C2018 C2019 1.386 . S
C2018 C2020 1.391 . S
C2019 C2018 1.386 . S
C2019 C2023 1.393 . S
C2020 H2009 0.950 . S
C2020 C2018 1.391 . S
C2020 C2021 1.400 . S
C2021 C2015 1.491 . S
C2021 C2020 1.400 . S
C2021 C2022 1.398 . S
C2022 H2010 0.950 . S
C2022 C2021 1.398 . S
C2022 C2023 1.391 . S
C2023 H2011 0.950 . S
C2023 C2019 1.393 . S
C2023 C2022 1.391 . S
H2024 C2032 0.950 . S
H2025 C2037 0.950 . S
H2026 C2034 0.950 . S
H2027 C2036 0.950 . S
H2028 C2038 0.950 . S
H2029 C2040 0.950 . S
H2030 C2042 0.950 . S
H2031 C2043 0.950 . S
C2032 H2024 0.950 . S
C2032 C2033 1.386 . S
C2032 C2034 1.391 . S
C2033 C2032 1.386 . S
C2033 C2037 1.393 . S
C2034 H2026 0.950 . S
C2034 C2032 1.391 . S
C2034 C2035 1.400 . S
C2035 C2034 1.400 . S
C2035 C2036 1.398 . S
C2035 C2041 1.491 . S
C2036 H2027 0.950 . S
C2036 C2035 1.398 . S
C2036 C2037 1.391 . S
C2037 H2025 0.950 . S
C2037 C2033 1.393 . S
C2037 C2036 1.391 . S
C2038 H2028 0.950 . S
C2038 C2039 1.386 . S
C2038 C2040 1.391 . S
C2039 C2038 1.386 . S
C2039 C2043 1.393 . S
C2040 H2029 0.950 . S
C2040 C2038 1.391 . S
C2040 C2041 1.400 . S
C2041 C2035 1.491 . S
C2041 C2040 1.400 . S
C2041 C2042 1.398 . S
C2042 H2030 0.950 . S
C2042 C2041 1.398 . S
C2042 C2043 1.391 . S
C2043 H2031 0.950 . S
C2043 C2039 1.393 . S
C2043 C2042 1.391 . S
H2044 C2052 0.997 . S
H2045 C2057 0.950 . S
H2046 C2054 0.950 . S
H2047 C2056 0.950 . S
H2048 C2058 0.950 . S
H2049 C2060 0.950 . S
H2050 C2062 0.950 . S
H2051 C2063 0.950 . S
C2052 H2044 0.997 . S
C2052 C2053 1.386 . S
C2052 C2054 1.391 . S
C2053 C2052 1.386 . S
C2053 C2057 1.393 . S
C2054 H2046 0.950 . S
C2054 C2052 1.391 . S
C2054 C2055 1.400 . S
C2055 C2054 1.400 . S
C2055 C2056 1.398 . S
C2055 C2061 1.491 . S
C2056 H2047 0.950 . S
C2056 C2055 1.398 . S
C2056 C2057 1.391 . S
C2057 H2045 0.950 . S
C2057 C2053 1.393 . S
C2057 C2056 1.391 . S
C2058 H2048 0.950 . S
C2058 C2059 1.386 . S
C2058 C2060 1.391 . S
C2059 C2058 1.386 . S
C2059 C2063 1.393 . S
C2060 H2049 0.950 . S
C2060 C2058 1.391 . S
C2060 C2061 1.400 . S
C2061 C2055 1.491 . S
C2061 C2060 1.400 . S
C2061 C2062 1.398 . S
C2062 H2050 0.950 . S
C2062 C2061 1.398 . S
C2062 C2063 1.391 . S
C2063 H2051 0.950 . S
C2063 C2059 1.393 . S
C2063 C2062 1.391 . S
H2064 C2072 0.950 . S
H2065 C2077 0.950 . S
H2066 C2074 0.950 . S
H2067 C2076 0.950 . S
H2068 C2078 0.950 . S
H2069 C2080 0.950 . S
H2070 C2082 0.950 . S
H2071 C2083 0.950 . S
C2072 H2064 0.950 . S
C2072 C2073 1.386 . S
C2072 C2074 1.391 . S
C2073 C2072 1.386 . S
C2073 C2077 1.393 . S
C2074 H2066 0.950 . S
C2074 C2072 1.391 . S
C2074 C2075 1.400 . S
C2075 C2074 1.400 . S
C2075 C2076 1.398 . S
C2075 C2081 1.491 . S
C2076 H2067 0.950 . S
C2076 C2075 1.398 . S
C2076 C2077 1.391 . S
C2077 H2065 0.950 . S
C2077 C2073 1.393 . S
C2077 C2076 1.391 . S
C2078 H2068 0.950 . S
C2078 C2079 1.386 . S
C2078 C2080 1.391 . S
C2079 C2078 1.386 . S
C2079 C2083 1.393 . S
C2080 H2069 0.950 . S
C2080 C2078 1.391 . S
C2080 C2081 1.400 . S
C2081 C2075 1.491 . S
C2081 C2080 1.400 . S
C2081 C2082 1.398 . S
C2082 H2070 0.950 . S
C2082 C2081 1.398 . S
C2082 C2083 1.391 . S
C2083 H2071 0.950 . S
C2083 C2079 1.393 . S
C2083 C2082 1.391 . S
H2084 C2092 0.950 . S
H2085 C2097 0.950 . S
H2086 C2094 0.950 . S
H2087 C2096 0.950 . S
H2088 C2098 0.950 . S
H2089 C2100 0.950 . S
H2090 C2102 0.950 . S
H2091 C2103 0.950 . S
C2092 H2084 0.950 . S
C2092 C2093 1.386 . S
C2092 C2094 1.391 . S
C2093 C2092 1.386 . S
C2093 C2097 1.393 . S
C2094 H2086 0.950 . S
C2094 C2092 1.391 . S
C2094 C2095 1.400 . S
C2095 C2094 1.400 . S
C2095 C2096 1.398 . S
C2095 C2101 1.491 . S
C2096 H2087 0.950 . S
C2096 C2095 1.398 . S
C2096 C2097 1.391 . S
C2097 H2085 0.950 . S
C2097 C2093 1.393 . S
C2097 C2096 1.391 . S
C2098 H2088 0.950 . S
C2098 C2099 1.386 . S
C2098 C2100 1.391 . S
C2099 C2098 1.386 . S
C2099 C2103 1.393 . S
C2100 H2089 0.950 . S
C2100 C2098 1.391 . S
C2100 C2101 1.400 . S
C2101 C2095 1.491 . S
C2101 C2100 1.400 . S
C2101 C2102 1.398 . S
C2102 H2090 0.950 . S
C2102 C2101 1.398 . S
C2102 C2103 1.391 . S
C2103 H2091 0.950 . S
C2103 C2099 1.393 . S
C2103 C2102 1.391 . S
H2104 C2112 0.950 . S
H2105 C2117 0.950 . S
H2106 C2114 0.950 . S
H2107 C2116 0.950 . S
H2108 C2118 0.950 . S
H2109 C2120 0.950 . S
H2110 C2122 0.950 . S
H2111 C2123 0.950 . S
C2112 H2104 0.950 . S
C2112 C2113 1.386 . S
C2112 C2114 1.391 . S
C2113 C2112 1.386 . S
C2113 C2117 1.393 . S
C2114 H2106 0.950 . S
C2114 C2112 1.391 . S
C2114 C2115 1.400 . S
C2115 C2114 1.400 . S
C2115 C2116 1.398 . S
C2115 C2121 1.491 . S
C2116 H2107 0.950 . S
C2116 C2115 1.398 . S
C2116 C2117 1.391 . S
C2117 H2105 0.950 . S
C2117 C2113 1.393 . S
C2117 C2116 1.391 . S
C2118 H2108 0.950 . S
C2118 C2119 1.386 . S
C2118 C2120 1.391 . S
C2119 C2118 1.386 . S
C2119 C2123 1.393 . S
C2120 H2109 0.950 . S
C2120 C2118 1.391 . S
C2120 C2121 1.400 . S
C2121 C2115 1.491 . S
C2121 C2120 1.400 . S
C2121 C2122 1.398 . S
C2122 H2110 0.950 . S
C2122 C2121 1.398 . S
C2122 C2123 1.391 . S
C2123 H2111 0.950 . S
C2123 C2119 1.393 . S
C2123 C2122 1.391 . S
H2124 C2132 0.950 . S
H2125 C2137 0.950 . S
H2126 C2134 0.950 . S
H2127 C2136 0.950 . S
H2128 C2138 0.950 . S
H2129 C2140 0.950 . S
H2130 C2142 0.950 . S
H2131 C2143 0.950 . S
C2132 H2124 0.950 . S
C2132 C2133 1.386 . S
C2132 C2134 1.391 . S
C2133 C2132 1.386 . S
C2133 C2137 1.393 . S
C2134 H2126 0.950 . S
C2134 C2132 1.391 . S
C2134 C2135 1.400 . S
C2135 C2134 1.400 . S
C2135 C2136 1.398 . S
C2135 C2141 1.491 . S
C2136 H2127 0.950 . S
C2136 C2135 1.398 . S
C2136 C2137 1.391 . S
C2137 H2125 0.950 . S
C2137 C2133 1.393 . S
C2137 C2136 1.391 . S
C2138 H2128 0.950 . S
C2138 C2139 1.386 . S
C2138 C2140 1.391 . S
C2139 C2138 1.386 . S
C2139 C2143 1.393 . S
C2140 H2129 0.950 . S
C2140 C2138 1.391 . S
C2140 C2141 1.400 . S
C2141 C2135 1.491 . S
C2141 C2140 1.400 . S
C2141 C2142 1.398 . S
C2142 H2130 0.950 . S
C2142 C2141 1.398 . S
C2142 C2143 1.391 . S
C2143 H2131 0.950 . S
C2143 C2139 1.393 . S
C2143 C2142 1.391 . S
H2144 C2152 0.950 . S
H2145 C2157 0.950 . S
H2146 C2154 0.950 . S
H2147 C2156 0.950 . S
H2148 C2158 0.950 . S
H2149 C2160 0.950 . S
H2150 C2162 0.950 . S
H2151 C2163 0.950 . S
C2152 H2144 0.950 . S
C2152 C2153 1.386 . S
C2152 C2154 1.391 . S
C2153 C2152 1.386 . S
C2153 C2157 1.393 . S
C2154 H2146 0.950 . S
C2154 C2152 1.391 . S
C2154 C2155 1.400 . S
C2155 C2154 1.400 . S
C2155 C2156 1.398 . S
C2155 C2161 1.491 . S
C2156 H2147 0.950 . S
C2156 C2155 1.398 . S
C2156 C2157 1.391 . S
C2157 H2145 0.950 . S
C2157 C2153 1.393 . S
C2157 C2156 1.391 . S
C2158 H2148 0.950 . S
C2158 C2159 1.386 . S
C2158 C2160 1.391 . S
C2159 C2158 1.386 . S
C2159 C2163 1.393 . S
C2160 H2149 0.950 . S
C2160 C2158 1.391 . S
C2160 C2161 1.400 . S
C2161 C2155 1.491 . S
C2161 C2160 1.400 . S
C2161 C2162 1.398 . S
C2162 H2150 0.950 . S
C2162 C2161 1.398 . S
C2162 C2163 1.391 . S
C2163 H2151 0.950 . S
C2163 C2159 1.393 . S
C2163 C2162 1.391 . S
H2164 C2172 0.950 . S
H2165 C2177 0.950 . S
H2166 C2174 0.950 . S
H2167 C2176 0.950 . S
H2168 C2178 0.950 . S
H2169 C2180 0.950 . S
H2170 C2182 0.950 . S
H2171 C2183 0.950 . S
C2172 H2164 0.950 . S
C2172 C2173 1.386 . S
C2172 C2174 1.391 . S
C2173 C2172 1.386 . S
C2173 C2177 1.393 . S
C2174 H2166 0.950 . S
C2174 C2172 1.391 . S
C2174 C2175 1.400 . S
C2175 C2174 1.400 . S
C2175 C2176 1.398 . S
C2175 C2181 1.491 . S
C2176 H2167 0.950 . S
C2176 C2175 1.398 . S
C2176 C2177 1.391 . S
C2177 H2165 0.950 . S
C2177 C2173 1.393 . S
C2177 C2176 1.391 . S
C2178 H2168 0.950 . S
C2178 C2179 1.386 . S
C2178 C2180 1.391 . S
C2179 C2178 1.386 . S
C2179 C2183 1.393 . S
C2180 H2169 0.950 . S
C2180 C2178 1.391 . S
C2180 C2181 1.400 . S
C2181 C2175 1.491 . S
C2181 C2180 1.400 . S
C2181 C2182 1.398 . S
C2182 H2170 0.950 . S
C2182 C2181 1.398 . S
C2182 C2183 1.391 . S
C2183 H2171 0.950 . S
C2183 C2179 1.393 . S
C2183 C2182 1.391 . S
H2184 C2192 0.950 . S
H2185 C2197 0.950 . S
H2186 C2194 0.950 . S
H2187 C2196 0.950 . S
H2188 C2198 0.950 . S
H2189 C2200 0.950 . S
H2190 C2202 0.950 . S
H2191 C2203 0.950 . S
C2192 H2184 0.950 . S
C2192 C2193 1.386 . S
C2192 C2194 1.391 . S
C2193 C2192 1.386 . S
C2193 C2197 1.393 . S
C2194 H2186 0.950 . S
C2194 C2192 1.391 . S
C2194 C2195 1.400 . S
C2195 C2194 1.400 . S
C2195 C2196 1.398 . S
C2195 C2201 1.491 . S
C2196 H2187 0.950 . S
C2196 C2195 1.398 . S
C2196 C2197 1.391 . S
C2197 H2185 0.950 . S
C2197 C2193 1.393 . S
C2197 C2196 1.391 . S
C2198 H2188 0.950 . S
C2198 C2199 1.386 . S
C2198 C2200 1.391 . S
C2199 C2198 1.386 . S
C2199 C2203 1.393 . S
C2200 H2189 0.950 . S
C2200 C2198 1.391 . S
C2200 C2201 1.400 . S
C2201 C2195 1.491 . S
C2201 C2200 1.400 . S
C2201 C2202 1.398 . S
C2202 H2190 0.950 . S
C2202 C2201 1.398 . S
C2202 C2203 1.391 . S
C2203 H2191 0.950 . S
C2203 C2199 1.393 . S
C2203 C2202 1.391 . S
H2204 C2212 0.950 . S
H2205 C2217 0.950 . S
H2206 C2214 0.950 . S
H2207 C2216 0.950 . S
H2208 C2218 0.950 . S
H2209 C2220 0.950 . S
H2210 C2222 0.950 . S
H2211 C2223 0.950 . S
C2212 H2204 0.950 . S
C2212 C2213 1.386 . S
C2212 C2214 1.391 . S
C2213 C2212 1.386 . S
C2213 C2217 1.393 . S
C2214 H2206 0.950 . S
C2214 C2212 1.391 . S
C2214 C2215 1.400 . S
C2215 C2214 1.400 . S
C2215 C2216 1.398 . S
C2215 C2221 1.491 . S
C2216 H2207 0.950 . S
C2216 C2215 1.398 . S
C2216 C2217 1.391 . S
C2217 H2205 0.950 . S
C2217 C2213 1.393 . S
C2217 C2216 1.391 . S
C2218 H2208 0.950 . S
C2218 C2219 1.386 . S
C2218 C2220 1.391 . S
C2219 C2218 1.386 . S
C2219 C2223 1.393 . S
C2220 H2209 0.950 . S
C2220 C2218 1.391 . S
C2220 C2221 1.400 . S
C2221 C2215 1.491 . S
C2221 C2220 1.400 . S
C2221 C2222 1.398 . S
C2222 H2210 0.950 . S
C2222 C2221 1.398 . S
C2222 C2223 1.391 . S
C2223 H2211 0.950 . S
C2223 C2219 1.393 . S
C2223 C2222 1.391 . S
H2224 C2232 0.950 . S
H2225 C2237 0.950 . S
H2226 C2234 0.950 . S
H2227 C2236 0.950 . S
H2228 C2238 0.950 . S
H2229 C2240 0.950 . S
H2230 C2242 0.950 . S
H2231 C2243 0.950 . S
C2232 H2224 0.950 . S
C2232 C2233 1.386 . S
C2232 C2234 1.391 . S
C2233 C2232 1.386 . S
C2233 C2237 1.393 . S
C2234 H2226 0.950 . S
C2234 C2232 1.391 . S
C2234 C2235 1.400 . S
C2235 C2234 1.400 . S
C2235 C2236 1.398 . S
C2235 C2241 1.491 . S
C2236 H2227 0.950 . S
C2236 C2235 1.398 . S
C2236 C2237 1.391 . S
C2237 H2225 0.950 . S
C2237 C2233 1.393 . S
C2237 C2236 1.391 . S
C2238 H2228 0.950 . S
C2238 C2239 1.386 . S
C2238 C2240 1.391 . S
C2239 C2238 1.386 . S
C2239 C2243 1.393 . S
C2240 H2229 0.950 . S
C2240 C2238 1.391 . S
C2240 C2241 1.400 . S
C2241 C2235 1.491 . S
C2241 C2240 1.400 . S
C2241 C2242 1.398 . S
C2242 H2230 0.950 . S
C2242 C2241 1.398 . S
C2242 C2243 1.391 . S
C2243 H2231 0.950 . S
C2243 C2239 1.393 . S
C2243 C2242 1.391 . S
H2244 C2252 0.950 . S
H2245 C2257 0.950 . S
H2246 C2254 0.950 . S
H2247 C2256 0.950 . S
H2248 C2258 0.950 . S
H2249 C2260 0.950 . S
H2250 C2262 0.950 . S
H2251 C2263 0.950 . S
C2252 H2244 0.950 . S
C2252 C2253 1.386 . S
C2252 C2254 1.391 . S
C2253 C2252 1.386 . S
C2253 C2257 1.393 . S
C2254 H2246 0.950 . S
C2254 C2252 1.391 . S
C2254 C2255 1.400 . S
C2255 C2254 1.400 . S
C2255 C2256 1.398 . S
C2255 C2261 1.491 . S
C2256 H2247 0.950 . S
C2256 C2255 1.398 . S
C2256 C2257 1.391 . S
C2257 H2245 0.950 . S
C2257 C2253 1.393 . S
C2257 C2256 1.391 . S
C2258 H2248 0.950 . S
C2258 C2259 1.386 . S
C2258 C2260 1.391 . S
C2259 C2258 1.386 . S
C2259 C2263 1.393 . S
C2260 H2249 0.950 . S
C2260 C2258 1.391 . S
C2260 C2261 1.400 . S
C2261 C2255 1.491 . S
C2261 C2260 1.400 . S
C2261 C2262 1.398 . S
C2262 H2250 0.950 . S
C2262 C2261 1.398 . S
C2262 C2263 1.391 . S
C2263 H2251 0.950 . S
C2263 C2259 1.393 . S
C2263 C2262 1.391 . S
H2264 C2272 0.950 . S
H2265 C2277 0.950 . S
H2266 C2274 0.950 . S
H2267 C2276 0.950 . S
H2268 C2278 0.950 . S
H2269 C2280 0.950 . S
H2270 C2282 0.950 . S
H2271 C2283 0.950 . S
C2272 H2264 0.950 . S
C2272 C2273 1.386 . S
C2272 C2274 1.391 . S
C2273 C2272 1.386 . S
C2273 C2277 1.393 . S
C2274 H2266 0.950 . S
C2274 C2272 1.391 . S
C2274 C2275 1.400 . S
C2275 C2274 1.400 . S
C2275 C2276 1.398 . S
C2275 C2281 1.491 . S
C2276 H2267 0.950 . S
C2276 C2275 1.398 . S
C2276 C2277 1.391 . S
C2277 H2265 0.950 . S
C2277 C2273 1.393 . S
C2277 C2276 1.391 . S
C2278 H2268 0.950 . S
C2278 C2279 1.386 . S
C2278 C2280 1.391 . S
C2279 C2278 1.386 . S
C2279 C2283 1.393 . S
C2280 H2269 0.950 . S
C2280 C2278 1.391 . S
C2280 C2281 1.400 . S
C2281 C2275 1.491 . S
C2281 C2280 1.400 . S
C2281 C2282 1.398 . S
C2282 H2270 0.950 . S
C2282 C2281 1.398 . S
C2282 C2283 1.391 . S
C2283 H2271 0.950 . S
C2283 C2279 1.393 . S
C2283 C2282 1.391 . S
H2284 C2292 0.950 . S
H2285 C2297 0.950 . S
H2286 C2294 0.950 . S
H2287 C2296 0.950 . S
H2288 C2298 0.950 . S
H2289 C2300 0.950 . S
H2290 C2302 0.950 . S
H2291 C2303 0.950 . S
C2292 H2284 0.950 . S
C2292 C2293 1.386 . S
C2292 C2294 1.391 . S
C2293 C2292 1.386 . S
C2293 C2297 1.393 . S
C2294 H2286 0.950 . S
C2294 C2292 1.391 . S
C2294 C2295 1.400 . S
C2295 C2294 1.400 . S
C2295 C2296 1.398 . S
C2295 C2301 1.491 . S
C2296 H2287 0.950 . S
C2296 C2295 1.398 . S
C2296 C2297 1.391 . S
C2297 H2285 0.950 . S
C2297 C2293 1.393 . S
C2297 C2296 1.391 . S
C2298 H2288 0.950 . S
C2298 C2299 1.386 . S
C2298 C2300 1.391 . S
C2299 C2298 1.386 . S
C2299 C2303 1.393 . S
C2300 H2289 0.950 . S
C2300 C2298 1.391 . S
C2300 C2301 1.400 . S
C2301 C2295 1.491 . S
C2301 C2300 1.400 . S
C2301 C2302 1.398 . S
C2302 H2290 0.950 . S
C2302 C2301 1.398 . S
C2302 C2303 1.391 . S
C2303 H2291 0.950 . S
C2303 C2299 1.393 . S
C2303 C2302 1.391 . S
H2304 C2312 0.950 . S
H2305 C2317 0.950 . S
H2306 C2314 0.950 . S
H2307 C2316 0.950 . S
H2308 C2318 0.950 . S
H2309 C2320 0.950 . S
H2310 C2322 0.950 . S
H2311 C2323 0.950 . S
C2312 H2304 0.950 . S
C2312 C2313 1.386 . S
C2312 C2314 1.391 . S
C2313 C2312 1.386 . S
C2313 C2317 1.393 . S
C2314 H2306 0.950 . S
C2314 C2312 1.391 . S
C2314 C2315 1.400 . S
C2315 C2314 1.400 . S
C2315 C2316 1.398 . S
C2315 C2321 1.491 . S
C2316 H2307 0.950 . S
C2316 C2315 1.398 . S
C2316 C2317 1.391 . S
C2317 H2305 0.950 . S
C2317 C2313 1.393 . S
C2317 C2316 1.391 . S
C2318 H2308 0.950 . S
C2318 C2319 1.386 . S
C2318 C2320 1.391 . S
C2319 C2318 1.386 . S
C2319 C2323 1.393 . S
C2320 H2309 0.950 . S
C2320 C2318 1.391 . S
C2320 C2321 1.400 . S
C2321 C2315 1.491 . S
C2321 C2320 1.400 . S
C2321 C2322 1.398 . S
C2322 H2310 0.950 . S
C2322 C2321 1.398 . S
C2322 C2323 1.391 . S
C2323 H2311 0.950 . S
C2323 C2319 1.393 . S
C2323 C2322 1.391 . S
H2324 C2332 0.950 . S
H2325 C2337 0.950 . S
H2326 C2334 0.950 . S
H2327 C2336 0.950 . S
H2328 C2338 0.950 . S
H2329 C2340 0.950 . S
H2330 C2342 0.950 . S
H2331 C2343 0.950 . S
C2332 H2324 0.950 . S
C2332 C2333 1.386 . S
C2332 C2334 1.391 . S
C2333 C2332 1.386 . S
C2333 C2337 1.393 . S
C2334 H2326 0.950 . S
C2334 C2332 1.391 . S
C2334 C2335 1.400 . S
C2335 C2334 1.400 . S
C2335 C2336 1.398 . S
C2335 C2341 1.491 . S
C2336 H2327 0.950 . S
C2336 C2335 1.398 . S
C2336 C2337 1.391 . S
C2337 H2325 0.950 . S
C2337 C2333 1.393 . S
C2337 C2336 1.391 . S
C2338 H2328 0.950 . S
C2338 C2339 1.386 . S
C2338 C2340 1.391 . S
C2339 C2338 1.386 . S
C2339 C2343 1.393 . S
C2340 H2329 0.950 . S
C2340 C2338 1.391 . S
C2340 C2341 1.400 . S
C2341 C2335 1.491 . S
C2341 C2340 1.400 . S
C2341 C2342 1.398 . S
C2342 H2330 0.950 . S
C2342 C2341 1.398 . S
C2342 C2343 1.391 . S
C2343 H2331 0.950 . S
C2343 C2339 1.393 . S
C2343 C2342 1.391 . S
H2344 C2352 0.950 . S
H2345 C2357 0.950 . S
H2346 C2354 0.950 . S
H2347 C2356 0.950 . S
H2348 C2358 0.950 . S
H2349 C2360 0.950 . S
H2350 C2362 0.950 . S
H2351 C2363 0.950 . S
C2352 H2344 0.950 . S
C2352 C2353 1.386 . S
C2352 C2354 1.391 . S
C2353 C2352 1.386 . S
C2353 C2357 1.393 . S
C2354 H2346 0.950 . S
C2354 C2352 1.391 . S
C2354 C2355 1.400 . S
C2355 C2354 1.400 . S
C2355 C2356 1.398 . S
C2355 C2361 1.491 . S
C2356 H2347 0.950 . S
C2356 C2355 1.398 . S
C2356 C2357 1.391 . S
C2357 H2345 0.950 . S
C2357 C2353 1.393 . S
C2357 C2356 1.391 . S
C2358 H2348 0.950 . S
C2358 C2359 1.386 . S
C2358 C2360 1.391 . S
C2359 C2358 1.386 . S
C2359 C2363 1.393 . S
C2360 H2349 0.950 . S
C2360 C2358 1.391 . S
C2360 C2361 1.400 . S
C2361 C2355 1.491 . S
C2361 C2360 1.400 . S
C2361 C2362 1.398 . S
C2362 H2350 0.950 . S
C2362 C2361 1.398 . S
C2362 C2363 1.391 . S
C2363 H2351 0.950 . S
C2363 C2359 1.393 . S
C2363 C2362 1.391 . S
H2364 C2372 0.950 . S
H2365 C2377 0.950 . S
H2366 C2374 0.950 . S
H2367 C2376 0.950 . S
H2368 C2378 0.950 . S
H2369 C2380 0.950 . S
H2370 C2382 0.950 . S
H2371 C2383 0.950 . S
C2372 H2364 0.950 . S
C2372 C2373 1.386 . S
C2372 C2374 1.391 . S
C2373 C2372 1.386 . S
C2373 C2377 1.393 . S
C2374 H2366 0.950 . S
C2374 C2372 1.391 . S
C2374 C2375 1.400 . S
C2375 C2374 1.400 . S
C2375 C2376 1.398 . S
C2375 C2381 1.491 . S
C2376 H2367 0.950 . S
C2376 C2375 1.398 . S
C2376 C2377 1.391 . S
C2377 H2365 0.950 . S
C2377 C2373 1.393 . S
C2377 C2376 1.391 . S
C2378 H2368 0.950 . S
C2378 C2379 1.386 . S
C2378 C2380 1.391 . S
C2379 C2378 1.386 . S
C2379 C2383 1.393 . S
C2380 H2369 0.950 . S
C2380 C2378 1.391 . S
C2380 C2381 1.400 . S
C2381 C2375 1.491 . S
C2381 C2380 1.400 . S
C2381 C2382 1.398 . S
C2382 H2370 0.950 . S
C2382 C2381 1.398 . S
C2382 C2383 1.391 . S
C2383 H2371 0.950 . S
C2383 C2379 1.393 . S
C2383 C2382 1.391 . S
H2384 C2392 0.950 . S
H2385 C2397 0.950 . S
H2386 C2394 0.950 . S
H2387 C2396 0.950 . S
H2388 C2398 0.950 1_554 S
H2389 C2400 0.950 . S
H2390 C2402 0.950 . S
H2391 C2403 0.950 . S
C2392 H2384 0.950 . S
C2392 C2393 1.386 . S
C2392 C2394 1.391 . S
C2393 C2392 1.386 . S
C2393 C2397 1.393 . S
C2394 H2386 0.950 . S
C2394 C2392 1.391 . S
C2394 C2395 1.400 . S
C2395 C2394 1.400 . S
C2395 C2396 1.398 . S
C2395 C2401 1.491 . S
C2396 H2387 0.950 . S
C2396 C2395 1.398 . S
C2396 C2397 1.391 . S
C2397 H2385 0.950 . S
C2397 C2393 1.393 . S
C2397 C2396 1.391 . S
C2398 H2388 0.950 1_556 S
C2398 C2399 1.386 . S
C2398 C2400 1.391 . S
C2399 C2398 1.386 . S
C2399 C2403 1.393 . S
C2400 H2389 0.950 . S
C2400 C2398 1.391 . S
C2400 C2401 1.400 . S
C2401 C2395 1.491 . S
C2401 C2400 1.400 . S
C2401 C2402 1.398 . S
C2402 H2390 0.950 . S
C2402 C2401 1.398 . S
C2402 C2403 1.391 . S
C2403 H2391 0.950 . S
C2403 C2399 1.393 . S
C2403 C2402 1.391 . S
H2404 C2412 0.950 . S
H2405 C2417 0.950 . S
H2406 C2414 0.950 . S
H2407 C2416 0.950 . S
H2408 C2418 0.950 . S
H2409 C2420 0.950 . S
H2410 C2422 0.950 . S
H2411 C2423 0.950 . S
C2412 H2404 0.950 . S
C2412 C2413 1.386 . S
C2412 C2414 1.391 . S
C2413 C2412 1.386 . S
C2413 C2417 1.393 . S
C2414 H2406 0.950 . S
C2414 C2412 1.391 . S
C2414 C2415 1.400 . S
C2415 C2414 1.400 . S
C2415 C2416 1.398 . S
C2415 C2421 1.491 . S
C2416 H2407 0.950 . S
C2416 C2415 1.398 . S
C2416 C2417 1.391 . S
C2417 H2405 0.950 . S
C2417 C2413 1.393 . S
C2417 C2416 1.391 . S
C2418 H2408 0.950 . S
C2418 C2419 1.386 . S
C2418 C2420 1.391 . S
C2419 C2418 1.386 . S
C2419 C2423 1.393 . S
C2420 H2409 0.950 . S
C2420 C2418 1.391 . S
C2420 C2421 1.400 . S
C2421 C2415 1.491 . S
C2421 C2420 1.400 . S
C2421 C2422 1.398 . S
C2422 H2410 0.950 . S
C2422 C2421 1.398 . S
C2422 C2423 1.391 . S
C2423 H2411 0.950 . S
C2423 C2419 1.393 . S
C2423 C2422 1.391 . S
H2424 C2432 0.950 . S
H2425 C2437 0.950 . S
H2426 C2434 0.950 . S
H2427 C2436 0.950 . S
H2428 C2438 0.950 . S
H2429 C2440 0.950 . S
H2430 C2442 0.950 . S
H2431 C2443 0.950 . S
C2432 H2424 0.950 . S
C2432 C2433 1.386 . S
C2432 C2434 1.391 . S
C2433 C2432 1.386 . S
C2433 C2437 1.393 . S
C2434 H2426 0.950 . S
C2434 C2432 1.391 . S
C2434 C2435 1.400 . S
C2435 C2434 1.400 . S
C2435 C2436 1.398 . S
C2435 C2441 1.491 . S
C2436 H2427 0.950 . S
C2436 C2435 1.398 . S
C2436 C2437 1.391 . S
C2437 H2425 0.950 . S
C2437 C2433 1.393 . S
C2437 C2436 1.391 . S
C2438 H2428 0.950 . S
C2438 C2439 1.386 . S
C2438 C2440 1.391 . S
C2439 C2438 1.386 . S
C2439 C2443 1.393 . S
C2440 H2429 0.950 . S
C2440 C2438 1.391 . S
C2440 C2441 1.400 . S
C2441 C2435 1.491 . S
C2441 C2440 1.400 . S
C2441 C2442 1.398 . S
C2442 H2430 0.950 . S
C2442 C2441 1.398 . S
C2442 C2443 1.391 . S
C2443 H2431 0.950 . S
C2443 C2439 1.393 . S
C2443 C2442 1.391 . S
H2444 C2452 0.950 . S
H2445 C2457 0.950 . S
H2446 C2454 0.950 . S
H2447 C2456 0.950 . S
H2448 C2458 0.950 . S
H2449 C2460 0.950 . S
H2450 C2462 0.950 . S
H2451 C2463 0.950 . S
C2452 H2444 0.950 . S
C2452 C2453 1.386 . S
C2452 C2454 1.391 . S
C2453 C2452 1.386 . S
C2453 C2457 1.393 . S
C2454 H2446 0.950 . S
C2454 C2452 1.391 . S
C2454 C2455 1.400 . S
C2455 C2454 1.400 . S
C2455 C2456 1.398 . S
C2455 C2461 1.491 . S
C2456 H2447 0.950 . S
C2456 C2455 1.398 . S
C2456 C2457 1.391 . S
C2457 H2445 0.950 . S
C2457 C2453 1.393 . S
C2457 C2456 1.391 . S
C2458 H2448 0.950 . S
C2458 C2459 1.386 . S
C2458 C2460 1.391 . S
C2459 C2458 1.386 . S
C2459 C2463 1.393 . S
C2460 H2449 0.950 . S
C2460 C2458 1.391 . S
C2460 C2461 1.400 . S
C2461 C2455 1.491 . S
C2461 C2460 1.400 . S
C2461 C2462 1.398 . S
C2462 H2450 0.950 . S
C2462 C2461 1.398 . S
C2462 C2463 1.391 . S
C2463 H2451 0.950 . S
C2463 C2459 1.393 . S
C2463 C2462 1.391 . S
H2464 C2472 0.950 . S
H2465 C2477 0.950 . S
H2466 C2474 0.950 . S
H2467 C2476 0.950 . S
H2468 C2478 0.950 . S
H2469 C2480 0.950 . S
H2470 C2482 0.950 . S
H2471 C2483 0.950 . S
C2472 H2464 0.950 . S
C2472 C2473 1.386 . S
C2472 C2474 1.391 . S
C2473 C2472 1.386 . S
C2473 C2477 1.393 . S
C2474 H2466 0.950 . S
C2474 C2472 1.391 . S
C2474 C2475 1.400 . S
C2475 C2474 1.400 . S
C2475 C2476 1.398 . S
C2475 C2481 1.491 . S
C2476 H2467 0.950 . S
C2476 C2475 1.398 . S
C2476 C2477 1.391 . S
C2477 H2465 0.950 . S
C2477 C2473 1.393 . S
C2477 C2476 1.391 . S
C2478 H2468 0.950 . S
C2478 C2479 1.386 . S
C2478 C2480 1.391 . S
C2479 C2478 1.386 . S
C2479 C2483 1.393 . S
C2480 H2469 0.950 . S
C2480 C2478 1.391 . S
C2480 C2481 1.400 . S
C2481 C2475 1.491 . S
C2481 C2480 1.400 . S
C2481 C2482 1.398 . S
C2482 H2470 0.950 . S
C2482 C2481 1.398 . S
C2482 C2483 1.391 . S
C2483 H2471 0.950 . S
C2483 C2479 1.393 . S
C2483 C2482 1.391 . S
H2484 C2492 0.950 . S
H2485 C2497 0.950 . S
H2486 C2494 0.950 . S
H2487 C2496 0.950 . S
H2488 C2498 0.950 1_554 S
H2489 C2500 0.950 . S
H2490 C2502 0.950 . S
H2491 C2503 0.950 . S
C2492 H2484 0.950 . S
C2492 C2493 1.386 . S
C2492 C2494 1.391 . S
C2493 C2492 1.386 . S
C2493 C2497 1.393 . S
C2494 H2486 0.950 . S
C2494 C2492 1.391 . S
C2494 C2495 1.400 . S
C2495 C2494 1.400 . S
C2495 C2496 1.398 . S
C2495 C2501 1.491 . S
C2496 H2487 0.950 . S
C2496 C2495 1.398 . S
C2496 C2497 1.391 . S
C2497 H2485 0.950 . S
C2497 C2493 1.393 . S
C2497 C2496 1.391 . S
C2498 H2488 0.950 1_556 S
C2498 C2499 1.386 . S
C2498 C2500 1.391 . S
C2499 C2498 1.386 . S
C2499 C2503 1.393 . S
C2500 H2489 0.950 . S
C2500 C2498 1.391 . S
C2500 C2501 1.400 . S
C2501 C2495 1.491 . S
C2501 C2500 1.400 . S
C2501 C2502 1.398 . S
C2502 H2490 0.950 . S
C2502 C2501 1.398 . S
C2502 C2503 1.391 . S
C2503 H2491 0.950 . S
C2503 C2499 1.393 . S
C2503 C2502 1.391 . S
H2504 C2512 0.950 . S
H2505 C2517 0.950 . S
H2506 C2514 0.950 . S
H2507 C2516 0.950 . S
H2508 C2518 0.950 . S
H2509 C2520 0.950 . S
H2510 C2522 0.950 . S
H2511 C2523 0.950 . S
C2512 H2504 0.950 . S
C2512 C2513 1.386 . S
C2512 C2514 1.391 . S
C2513 C2512 1.386 . S
C2513 C2517 1.393 . S
C2514 H2506 0.950 . S
C2514 C2512 1.391 . S
C2514 C2515 1.400 . S
C2515 C2514 1.400 . S
C2515 C2516 1.398 . S
C2515 C2521 1.491 . S
C2516 H2507 0.950 . S
C2516 C2515 1.398 . S
C2516 C2517 1.391 . S
C2517 H2505 0.950 . S
C2517 C2513 1.393 . S
C2517 C2516 1.391 . S
C2518 H2508 0.950 . S
C2518 C2519 1.386 . S
C2518 C2520 1.391 . S
C2519 C2518 1.386 . S
C2519 C2523 1.393 . S
C2520 H2509 0.950 . S
C2520 C2518 1.391 . S
C2520 C2521 1.400 . S
C2521 C2515 1.491 . S
C2521 C2520 1.400 . S
C2521 C2522 1.398 . S
C2522 H2510 0.950 . S
C2522 C2521 1.398 . S
C2522 C2523 1.391 . S
C2523 H2511 0.950 . S
C2523 C2519 1.393 . S
C2523 C2522 1.391 . S
H2524 C2532 0.950 . S
H2525 C2537 0.950 . S
H2526 C2534 0.950 . S
H2527 C2536 0.950 . S
H2528 C2538 0.950 . S
H2529 C2540 0.950 . S
H2530 C2542 0.950 . S
H2531 C2543 0.950 . S
C2532 H2524 0.950 . S
C2532 C2533 1.386 . S
C2532 C2534 1.391 . S
C2533 C2532 1.386 . S
C2533 C2537 1.393 . S
C2534 H2526 0.950 . S
C2534 C2532 1.391 . S
C2534 C2535 1.400 . S
C2535 C2534 1.400 . S
C2535 C2536 1.398 . S
C2535 C2541 1.491 . S
C2536 H2527 0.950 . S
C2536 C2535 1.398 . S
C2536 C2537 1.391 . S
C2537 H2525 0.950 . S
C2537 C2533 1.393 . S
C2537 C2536 1.391 . S
C2538 H2528 0.950 . S
C2538 C2539 1.386 . S
C2538 C2540 1.391 . S
C2539 C2538 1.386 . S
C2539 C2543 1.393 . S
C2540 H2529 0.950 . S
C2540 C2538 1.391 . S
C2540 C2541 1.400 . S
C2541 C2535 1.491 . S
C2541 C2540 1.400 . S
C2541 C2542 1.398 . S
C2542 H2530 0.950 . S
C2542 C2541 1.398 . S
C2542 C2543 1.391 . S
C2543 H2531 0.950 . S
C2543 C2539 1.393 . S
C2543 C2542 1.391 . S
H2544 C2552 0.950 . S
H2545 C2557 0.950 . S
H2546 C2554 0.950 . S
H2547 C2556 0.950 . S
H2548 C2558 0.950 . S
H2549 C2560 0.950 . S
H2550 C2562 0.950 . S
H2551 C2563 0.950 . S
C2552 H2544 0.950 . S
C2552 C2553 1.386 . S
C2552 C2554 1.391 . S
C2553 C2552 1.386 . S
C2553 C2557 1.393 . S
C2554 H2546 0.950 . S
C2554 C2552 1.391 . S
C2554 C2555 1.400 . S
C2555 C2554 1.400 . S
C2555 C2556 1.398 . S
C2555 C2561 1.491 . S
C2556 H2547 0.950 . S
C2556 C2555 1.398 . S
C2556 C2557 1.391 . S
C2557 H2545 0.950 . S
C2557 C2553 1.393 . S
C2557 C2556 1.391 . S
C2558 H2548 0.950 . S
C2558 C2559 1.386 . S
C2558 C2560 1.391 . S
C2559 C2558 1.386 . S
C2559 C2563 1.393 . S
C2560 H2549 0.950 . S
C2560 C2558 1.391 . S
C2560 C2561 1.400 . S
C2561 C2555 1.491 . S
C2561 C2560 1.400 . S
C2561 C2562 1.398 . S
C2562 H2550 0.950 . S
C2562 C2561 1.398 . S
C2562 C2563 1.391 . S
C2563 H2551 0.950 . S
C2563 C2559 1.393 . S
C2563 C2562 1.391 . S
H2564 C2572 0.950 . S
H2565 C2577 0.950 . S
H2566 C2574 0.950 . S
H2567 C2576 0.950 . S
H2568 C2578 0.950 . S
H2569 C2580 0.950 . S
H2570 C2582 0.950 . S
H2571 C2583 0.950 . S
C2572 H2564 0.950 . S
C2572 C2573 1.386 . S
C2572 C2574 1.391 . S
C2573 C2572 1.386 . S
C2573 C2577 1.393 . S
C2574 H2566 0.950 . S
C2574 C2572 1.391 . S
C2574 C2575 1.400 . S
C2575 C2574 1.400 . S
C2575 C2576 1.398 . S
C2575 C2581 1.491 . S
C2576 H2567 0.950 . S
C2576 C2575 1.398 . S
C2576 C2577 1.391 . S
C2577 H2565 0.950 . S
C2577 C2573 1.393 . S
C2577 C2576 1.391 . S
C2578 H2568 0.950 . S
C2578 C2579 1.386 . S
C2578 C2580 1.391 . S
C2579 C2578 1.386 . S
C2579 C2583 1.393 . S
C2580 H2569 0.950 . S
C2580 C2578 1.391 . S
C2580 C2581 1.400 . S
C2581 C2575 1.491 . S
C2581 C2580 1.400 . S
C2581 C2582 1.398 . S
C2582 H2570 0.950 . S
C2582 C2581 1.398 . S
C2582 C2583 1.391 . S
C2583 H2571 0.950 . S
C2583 C2579 1.393 . S
C2583 C2582 1.391 . S
H2584 C2592 0.950 . S
H2585 C2597 0.950 . S
H2586 C2594 0.950 . S
H2587 C2596 0.950 . S
H2588 C2598 0.950 . S
H2589 C2600 0.950 . S
H2590 C2602 0.950 . S
H2591 C2603 0.950 . S
C2592 H2584 0.950 . S
C2592 C2593 1.386 . S
C2592 C2594 1.391 . S
C2593 C2592 1.386 . S
C2593 C2597 1.393 . S
C2594 H2586 0.950 . S
C2594 C2592 1.391 . S
C2594 C2595 1.400 . S
C2595 C2594 1.400 . S
C2595 C2596 1.398 . S
C2595 C2601 1.491 . S
C2596 H2587 0.950 . S
C2596 C2595 1.398 . S
C2596 C2597 1.391 . S
C2597 H2585 0.950 . S
C2597 C2593 1.393 . S
C2597 C2596 1.391 . S
C2598 H2588 0.950 . S
C2598 C2599 1.386 . S
C2598 C2600 1.391 . S
C2599 C2598 1.386 . S
C2599 C2603 1.393 . S
C2600 H2589 0.950 . S
C2600 C2598 1.391 . S
C2600 C2601 1.400 . S
C2601 C2595 1.491 . S
C2601 C2600 1.400 . S
C2601 C2602 1.398 . S
C2602 H2590 0.950 . S
C2602 C2601 1.398 . S
C2602 C2603 1.391 . S
C2603 H2591 0.950 . S
C2603 C2599 1.393 . S
C2603 C2602 1.391 . S
H2604 C2612 0.950 . S
H2605 C2617 0.950 . S
H2606 C2614 0.950 . S
H2607 C2616 0.950 . S
H2608 C2618 0.950 . S
H2609 C2620 0.950 . S
H2610 C2622 0.950 . S
H2611 C2623 0.950 . S
C2612 H2604 0.950 . S
C2612 C2613 1.386 . S
C2612 C2614 1.391 . S
C2613 C2612 1.386 . S
C2613 C2617 1.393 . S
C2614 H2606 0.950 . S
C2614 C2612 1.391 . S
C2614 C2615 1.400 . S
C2615 C2614 1.400 . S
C2615 C2616 1.398 . S
C2615 C2621 1.491 . S
C2616 H2607 0.950 . S
C2616 C2615 1.398 . S
C2616 C2617 1.391 . S
C2617 H2605 0.950 . S
C2617 C2613 1.393 . S
C2617 C2616 1.391 . S
C2618 H2608 0.950 . S
C2618 C2619 1.386 . S
C2618 C2620 1.391 . S
C2619 C2618 1.386 . S
C2619 C2623 1.393 . S
C2620 H2609 0.950 . S
C2620 C2618 1.391 . S
C2620 C2621 1.400 . S
C2621 C2615 1.491 . S
C2621 C2620 1.400 . S
C2621 C2622 1.398 . S
C2622 H2610 0.950 . S
C2622 C2621 1.398 . S
C2622 C2623 1.391 . S
C2623 H2611 0.950 . S
C2623 C2619 1.393 . S
C2623 C2622 1.391 . S
C713 C10 1.213 . S
C719 C96 1.205 . S
C733 C30 1.211 . S
C739 C128 1.209 . S
C753 C150 1.203 . S
C759 C62 1.214 . S
C773 C172 1.203 . S
C779 C76 1.214 . S
C793 C194 1.191 . S
C799 C272 1.199 . S
C813 C304 1.197 . S
C819 C208 1.184 . S
C833 C326 1.198 . S
C839 C238 1.183 . S
C853 C338 1.185 . S
C859 C252 1.201 . S
C873 C448 1.210 . S
C879 C362 1.210 . S
C893 C472 1.212 . S
C899 C382 1.208 . S
C913 C502 1.213 . S
C919 C414 1.200 . S
C933 C524 1.200 . S
C939 C426 1.211 . S
C953 C634 1.201 . S
C959 C546 1.186 . S
C973 C656 1.191 . S
C979 C558 1.187 . S
C993 C590 1.184 . S
C999 C678 1.197 . S
C1013 C690 1.186 . S
C1019 C604 1.201 . S
C1033 C18 1.439 . S
C1039 C285 1.410 . S
C1053 C645 1.419 . S
C1059 C32 1.438 . S
C1073 C52 1.439 . S
C1079 C315 1.410 . S
C1093 C84 1.439 . S
C1099 C703 1.411 . S
C1113 C183 1.427 . S
C1119 C98 1.437 . S
C1133 C118 1.439 . S
C1139 C571 1.412 . S
C1153 C227 1.413 . S
C1159 C140 1.439 . S
C1173 C609 1.415 . S
C1179 C162 1.439 . S
C1193 C109 1.417 . S
C1199 C186 1.428 . S
C1213 C206 1.429 . S
C1219 C477 1.416 . S
C1233 C139 1.399 . S
C1239 C230 1.433 . S
C1253 C513 1.418 . S
C1259 C250 1.428 . S
C1273 C15 1.418 . S
C1279 C282 1.428 . S
C1293 C296 1.431 . S
C1299 C395 1.409 . S
C1313 C318 1.429 . S
C1319 C51 1.411 . S
C1333 C439 1.418 . S
C1339 C348 1.428 . S
C1353 C623 1.413 . S
C1359 C370 1.439 . S
C1373 C384 1.438 . S
C1379 C293 1.416 . S
C1393 C404 1.438 . S
C1399 C667 1.418 . S
C1413 C428 1.437 . S
C1419 C351 1.424 . S
C1433 C535 1.412 . S
C1439 C450 1.439 . S
C1453 C480 1.437 . S
C1459 C213 1.427 . S
C1473 C579 1.417 . S
C1479 C492 1.438 . S
C1493 C257 1.418 . S
C1499 C514 1.438 . S
C1513 C461 1.402 . S
C1519 C538 1.432 . S
C1533 C117 1.412 . S
C1539 C568 1.430 . S
C1553 C491 1.414 . S
C1559 C582 1.430 . S
C1573 C161 1.409 . S
C1579 C602 1.430 . S
C1593 C367 1.415 . S
C1599 C626 1.429 . S
C1613 C43 1.410 . S
C1619 C648 1.431 . S
C1633 C403 1.399 . S
C1639 C670 1.433 . S
C1653 C81 1.403 . S
C1659 C700 1.433 . S
C1673 C615 1.482 . S
C1679 C21 1.464 . S
C1693 C29 1.469 . S
C1699 C191 1.492 1_455 S
C1713 C557 1.483 . S
C1719 C59 1.474 . S
C1733 C87 1.471 . S
C1739 C235 1.482 . S
C1753 C653 1.485 . S
C1759 C95 1.477 . S
C1773 C323 1.484 . S
C1779 C125 1.475 . S
C1793 C689 1.490 . S
C1799 C147 1.478 . S
C1813 C169 1.462 . S
C1819 C271 1.488 1_455 S
C1833 C197 1.481 . S
C1839 C433 1.498 . S
C1853 C205 1.480 . S
C1859 C7 1.494 1_655 S
C1873 C389 1.491 . S
C1879 C241 1.474 . S
C1893 C65 1.489 . S
C1899 C249 1.467 . S
C1913 C279 1.481 . S
C1919 C469 1.496 . S
C1933 C307 1.464 . S
C1939 C153 1.493 . S
C1953 C527 1.493 . S
C1959 C329 1.464 . S
C1973 C103 1.489 1_655 S
C1979 C345 1.468 . S
C1993 C263 1.487 . S
C1999 C373 1.479 . S
C2013 C381 1.477 . S
C2019 C543 1.491 . S
C2033 C219 1.482 . S
C2039 C411 1.470 . S
C2053 C587 1.488 1_655 S
C2059 C425 1.479 . S
C2073 C301 1.492 . S
C2079 C447 1.475 . S
C2093 C483 1.474 . S
C2099 C675 1.492 1_655 S
C2113 C499 1.477 . S
C2119 C337 1.491 . S
C2133 C631 1.491 . S
C2139 C521 1.466 . S
C2153 C73 1.498 . S
C2159 C549 1.475 . S
C2173 C359 1.489 . S
C2179 C565 1.467 . S
C2193 C593 1.478 . S
C2199 C37 1.498 . S
C2213 C601 1.463 . S
C2219 C417 1.491 1_455 S
C2233 C131 1.494 . S
C2239 C637 1.480 . S
C2253 C505 1.489 1_455 S
C2259 C659 1.465 . S
C2273 C681 1.468 . S
C2279 C175 1.495 . S
C2293 C455 1.493 . S
C2299 C697 1.478 . S
C2313 C164 0.967 . S
C2319 C8 0.937 . S
C2333 C40 0.960 . S
C2339 C106 0.944 . S
C2353 C54 0.945 . S
C2359 C120 0.960 . S
C2373 C142 0.948 . S
C2379 C74 0.955 . S
C2393 C184 0.958 . S
C2399 C340 0.989 . S
C2413 C274 0.988 . S
C2419 C216 0.959 . S
C2433 C294 0.969 . S
C2439 C228 0.975 . S
C2453 C260 0.987 . S
C2459 C316 0.961 . S
C2473 C360 0.952 . S
C2479 C516 0.952 . S
C2493 C458 0.971 . S
C2499 C392 0.932 . S
C2513 C470 0.953 . S
C2519 C406 0.950 . S
C2533 C494 0.967 . S
C2539 C436 0.937 . S
C2553 C536 0.956 . S
C2559 C692 0.989 . S
C2573 C624 0.961 . S
C2579 C560 0.983 . S
C2593 C580 0.976 . S
C2599 C646 0.967 . S
C2613 C668 0.984 . S
C2619 C612 0.964 . S
