# Generated by pormake.
# Topology lcy-e, (6)-cn, num edge types: 1
# Building blocks:
#     Node 0, Type 0, BuildingBlock: UKALOJ_clean_sbu_0, # of connection points: 6
#     Node 1, Type 0, BuildingBlock: UKALOJ_clean_sbu_0, # of connection points: 6
#     Node 2, Type 0, BuildingBlock: UKALOJ_clean_sbu_0, # of connection points: 6
#     Node 3, Type 0, BuildingBlock: UKALOJ_clean_sbu_0, # of connection points: 6
#     Node 4, Type 0, BuildingBlock: UKALOJ_clean_sbu_0, # of connection points: 6
#     Node 5, Type 0, BuildingBlock: UKALOJ_clean_sbu_0, # of connection points: 6
#     Node 6, Type 0, BuildingBlock: UKALOJ_clean_sbu_0, # of connection points: 6
#     Node 7, Type 0, BuildingBlock: UKALOJ_clean_sbu_0, # of connection points: 6
#     Node 8, Type 0, BuildingBlock: UKALOJ_clean_sbu_0, # of connection points: 6
#     Node 9, Type 0, BuildingBlock: UKALOJ_clean_sbu_0, # of connection points: 6
#     Node 10, Type 0, BuildingBlock: UKALOJ_clean_sbu_0, # of connection points: 6
#     Node 11, Type 0, BuildingBlock: UKALOJ_clean_sbu_0, # of connection points: 6
#     Edge 12, Type (0, 0), BuildingBlock: AJUNOK_clean_linker_0, # of connection points: 2
#     Edge 13, Type (0, 0), BuildingBlock: AJUNOK_clean_linker_0, # of connection points: 2
#     Edge 14, Type (0, 0), BuildingBlock: AJUNOK_clean_linker_0, # of connection points: 2
#     Edge 15, Type (0, 0), BuildingBlock: AJUNOK_clean_linker_0, # of connection points: 2
#     Edge 16, Type (0, 0), BuildingBlock: AJUNOK_clean_linker_0, # of connection points: 2
#     Edge 17, Type (0, 0), BuildingBlock: AJUNOK_clean_linker_0, # of connection points: 2
#     Edge 18, Type (0, 0), BuildingBlock: AJUNOK_clean_linker_0, # of connection points: 2
#     Edge 19, Type (0, 0), BuildingBlock: AJUNOK_clean_linker_0, # of connection points: 2
#     Edge 20, Type (0, 0), BuildingBlock: AJUNOK_clean_linker_0, # of connection points: 2
#     Edge 21, Type (0, 0), BuildingBlock: AJUNOK_clean_linker_0, # of connection points: 2
#     Edge 22, Type (0, 0), BuildingBlock: AJUNOK_clean_linker_0, # of connection points: 2
#     Edge 23, Type (0, 0), BuildingBlock: AJUNOK_clean_linker_0, # of connection points: 2
#     Edge 24, Type (0, 0), BuildingBlock: AJUNOK_clean_linker_0, # of connection points: 2
#     Edge 25, Type (0, 0), BuildingBlock: AJUNOK_clean_linker_0, # of connection points: 2
#     Edge 26, Type (0, 0), BuildingBlock: AJUNOK_clean_linker_0, # of connection points: 2
#     Edge 27, Type (0, 0), BuildingBlock: AJUNOK_clean_linker_0, # of connection points: 2
#     Edge 28, Type (0, 0), BuildingBlock: AJUNOK_clean_linker_0, # of connection points: 2
#     Edge 29, Type (0, 0), BuildingBlock: AJUNOK_clean_linker_0, # of connection points: 2
#     Edge 30, Type (0, 0), BuildingBlock: AJUNOK_clean_linker_0, # of connection points: 2
#     Edge 31, Type (0, 0), BuildingBlock: AJUNOK_clean_linker_0, # of connection points: 2
#     Edge 32, Type (0, 0), BuildingBlock: AJUNOK_clean_linker_0, # of connection points: 2
#     Edge 33, Type (0, 0), BuildingBlock: AJUNOK_clean_linker_0, # of connection points: 2
#     Edge 34, Type (0, 0), BuildingBlock: AJUNOK_clean_linker_0, # of connection points: 2
#     Edge 35, Type (0, 0), BuildingBlock: AJUNOK_clean_linker_0, # of connection points: 2
#     Edge 36, Type (0, 0), BuildingBlock: AJUNOK_clean_linker_0, # of connection points: 2
#     Edge 37, Type (0, 0), BuildingBlock: AJUNOK_clean_linker_0, # of connection points: 2
#     Edge 38, Type (0, 0), BuildingBlock: AJUNOK_clean_linker_0, # of connection points: 2
#     Edge 39, Type (0, 0), BuildingBlock: AJUNOK_clean_linker_0, # of connection points: 2
#     Edge 40, Type (0, 0), BuildingBlock: AJUNOK_clean_linker_0, # of connection points: 2
#     Edge 41, Type (0, 0), BuildingBlock: AJUNOK_clean_linker_0, # of connection points: 2
#     Edge 42, Type (0, 0), BuildingBlock: AJUNOK_clean_linker_0, # of connection points: 2
#     Edge 43, Type (0, 0), BuildingBlock: AJUNOK_clean_linker_0, # of connection points: 2
#     Edge 44, Type (0, 0), BuildingBlock: AJUNOK_clean_linker_0, # of connection points: 2
#     Edge 45, Type (0, 0), BuildingBlock: AJUNOK_clean_linker_0, # of connection points: 2
#     Edge 46, Type (0, 0), BuildingBlock: AJUNOK_clean_linker_0, # of connection points: 2
#     Edge 47, Type (0, 0), BuildingBlock: AJUNOK_clean_linker_0, # of connection points: 2
# Relax obj value: 0.276
# Max RMSD: 0.295
# Mean RMSD: 0.295
data_MOF--net-lcy-e--node1-UKALOJ_clean_sbu_0--edge1-AJUNOK_clean_linker_0
_symmetry_space_group_name_H-M    P1
_symmetry_Int_Tables_number       1
_symmetry_cell_setting            triclinic
loop_
_symmetry_equiv_pos_as_xyz
'x, y, z'
_cell_length_a     29.912833
_cell_length_b     29.981647
_cell_length_c     29.9658
_cell_angle_alpha  90.041259
_cell_angle_beta   89.831652
_cell_angle_gamma 89.975873
loop_
_atom_site_label
_atom_site_type_symbol
_atom_site_fract_x
_atom_site_fract_y
_atom_site_fract_z
_atom_type_partial_charge
Zn0 Zn 0.11076 0.24493 0.44366 0.0
O1 O 0.15906 0.2861 0.46374 0.0
C2 C 0.18477 0.18572 0.41397 0.0
Zn3 Zn 0.12939 0.19597 0.49369 0.0
C4 C 0.1763 0.28388 0.50187 0.0
O5 O 0.17195 0.24788 0.52456 0.0
C6 C 0.05701 0.16516 0.43183 0.0
O7 O 0.08096 0.21615 0.53585 0.0
O8 O 0.06782 0.27615 0.49606 0.0
N9 N 0.14654 0.14718 0.53785 0.0
C10 C 0.12111 0.11377 0.55417 0.0
C11 C 0.18836 0.10054 0.57333 0.0
N12 N 0.18836 0.13891 0.54978 0.0
N13 N 0.1466 0.08386 0.57581 0.0
C14 C 0.12198 0.31185 0.36685 0.0
C15 C 0.05613 0.317 0.34018 0.0
N16 N 0.09447 0.28933 0.3946 0.0
N17 N 0.05356 0.2926 0.37796 0.0
N18 N 0.09875 0.32919 0.33272 0.0
H19 H 0.18712 0.28582 0.3857 0.0
H20 H 0.17887 0.34425 0.39515 0.0
H21 H 0.18819 0.32396 0.33962 0.0
C22 C 0.1718 0.31631 0.37196 0.0
C23 C 0.07106 0.11071 0.55088 0.0
H24 H 0.05532 0.14205 0.54004 0.0
H25 H 0.05681 0.10094 0.58369 0.0
H26 H 0.06204 0.08436 0.52671 0.0
O27 O 0.08428 0.14901 0.46017 0.0
O28 O 0.0599 0.20591 0.42207 0.0
C29 C 0.06343 0.25414 0.53255 0.0
O30 O 0.15632 0.21215 0.39676 0.0
O31 O 0.18111 0.17531 0.45453 0.0
Zn32 Zn 0.00164 0.86992 0.69922 0.0
O33 O 0.96704 0.92447 0.71782 0.0
C34 C 0.06964 0.93537 0.6701 0.0
Zn35 Zn 0.05136 0.88094 0.74885 0.0
C36 C 0.9693 0.93855 0.7573 0.0
O37 O 0.00236 0.92631 0.78156 0.0
C38 C 0.07474 0.80744 0.68645 0.0
O39 O 0.02758 0.83268 0.78884 0.0
O40 O 0.96475 0.83226 0.75176 0.0
N41 N 0.101 0.89233 0.79366 0.0
C42 C 0.13275 0.864 0.80833 0.0
C43 C 0.14925 0.92866 0.83279 0.0
N44 N 0.11129 0.93255 0.80887 0.0
N45 N 0.1636 0.88606 0.83218 0.0
C46 C 0.94258 0.8837 0.6169 0.0
C47 C 0.90892 0.8214 0.61015 0.0
N48 N 0.95503 0.85798 0.65157 0.0
N49 N 0.93409 0.81925 0.64739 0.0
N50 N 0.91453 0.86122 0.59018 0.0
H51 H 0.96588 0.94807 0.64095 0.0
H52 H 0.92823 0.95053 0.59437 0.0
H53 H 0.98473 0.93253 0.58618 0.0
C54 C 0.95606 0.93144 0.60963 0.0
C55 C 0.13351 0.81443 0.80088 0.0
H56 H 0.14465 0.79716 0.83165 0.0
H57 H 0.15806 0.80659 0.77426 0.0
H58 H 0.10067 0.80101 0.79111 0.0
O59 O 0.09427 0.83363 0.71363 0.0
O60 O 0.03389 0.81366 0.67845 0.0
C61 C 0.98688 0.82232 0.78697 0.0
O62 O 0.04079 0.90965 0.65237 0.0
O63 O 0.07697 0.93177 0.71133 0.0
Zn64 Zn 0.37275 0.79361 -0.00238 0.0
O65 O 0.42653 0.77686 0.03459 0.0
C66 C 0.4402 0.82225 0.93153 0.0
Zn67 Zn 0.3852 0.74336 0.94868 0.0
C68 C 0.43977 0.73705 0.03321 0.0
O69 O 0.42837 0.71239 0.00016 0.0
C70 C 0.31185 0.80312 0.92219 0.0
O71 O 0.33595 0.70425 0.97145 0.0
O72 O 0.33397 0.74175 0.03421 0.0
N73 N 0.39909 0.69783 0.89986 0.0
C74 C 0.37015 0.6767 0.87262 0.0
C75 C 0.43478 0.67183 0.84285 0.0
N76 N 0.43925 0.69465 0.88137 0.0
N77 N 0.39163 0.6608 0.83636 0.0
C78 C 0.38525 0.87462 0.05861 0.0
C79 C 0.31824 0.89392 0.07389 0.0
N80 N 0.35803 0.84317 0.04153 0.0
N81 N 0.31641 0.85518 0.05104 0.0
N82 N 0.36105 0.90683 0.07836 0.0
H83 H 0.44606 0.85043 0.08681 0.0
H84 H 0.45047 0.90586 0.06477 0.0
H85 H 0.44921 0.85861 0.02785 0.0
C86 C 0.43549 0.87253 0.05908 0.0
C87 C 0.32159 0.66887 0.88313 0.0
H88 H 0.31901 0.64841 0.91384 0.0
H89 H 0.30406 0.65025 0.85654 0.0
H90 H 0.30415 0.70093 0.88902 0.0
O91 O 0.33908 0.77647 0.9031 0.0
O92 O 0.3176 0.81202 0.96283 0.0
C93 C 0.32408 0.7068 0.01164 0.0
O94 O 0.41302 0.84021 0.95895 0.0
O95 O 0.43732 0.78089 0.92451 0.0
Zn96 Zn 0.49982 0.1292 0.19577 0.0
O97 O 0.53829 0.07885 0.21496 0.0
C98 C 0.43749 0.05821 0.16699 0.0
Zn99 Zn 0.45037 0.11353 0.24614 0.0
C100 C 0.53654 0.063 0.25373 0.0
O101 O 0.50169 0.07019 0.2778 0.0
C102 C 0.42151 0.18544 0.18388 0.0
O103 O 0.4716 0.16314 0.28652 0.0
O104 O 0.53352 0.1702 0.24771 0.0
N105 N 0.40026 0.09922 0.29048 0.0
C106 C 0.37304 0.12792 0.31221 0.0
C107 C 0.34269 0.06364 0.31574 0.0
N108 N 0.38134 0.0593 0.29277 0.0
N109 N 0.3369 0.1064 0.32812 0.0
C110 C 0.56328 0.1153 0.11618 0.0
C111 C 0.56853 0.1806 0.08856 0.0
N112 N 0.54417 0.14376 0.14553 0.0
N113 N 0.54764 0.18433 0.12835 0.0
N114 N 0.57778 0.1375 0.07981 0.0
H115 H 0.59179 0.06251 0.15489 0.0
H116 H 0.5892 0.04989 0.09714 0.0
H117 H 0.53874 0.04908 0.13034 0.0
C118 C 0.57092 0.06645 0.1247 0.0
C119 C 0.38018 0.17747 0.31594 0.0
H120 H 0.4048 0.18401 0.34279 0.0
H121 H 0.34876 0.19523 0.32441 0.0
H122 H 0.39344 0.19176 0.28468 0.0
O123 O 0.40433 0.15845 0.21188 0.0
O124 O 0.46254 0.18204 0.17499 0.0
C125 C 0.51066 0.17832 0.2831 0.0
O126 O 0.46485 0.08565 0.14946 0.0
O127 O 0.42843 0.06177 0.20795 0.0
Zn128 Zn 0.61464 0.24625 0.54391 0.0
O129 O 0.66553 0.20804 0.52221 0.0
C130 C 0.68578 0.31047 0.56993 0.0
Zn131 Zn 0.62906 0.29461 0.49281 0.0
C132 C 0.68035 0.20946 0.48288 0.0
O133 O 0.6712 0.24359 0.45876 0.0
C134 C 0.55815 0.32337 0.55739 0.0
O135 O 0.57728 0.27296 0.45567 0.0
O136 O 0.57187 0.2112 0.4944 0.0
N137 N 0.64148 0.34475 0.44815 0.0
C138 C 0.6121 0.37322 0.42932 0.0
C139 C 0.67682 0.40224 0.42307 0.0
N140 N 0.68167 0.36287 0.44421 0.0
N141 N 0.63337 0.4098 0.41397 0.0
C142 C 0.63294 0.18885 0.62693 0.0
C143 C 0.56933 0.16109 0.64286 0.0
N144 N 0.60428 0.20158 0.59454 0.0
N145 N 0.56474 0.18431 0.60453 0.0
N146 N 0.61159 0.16438 0.65795 0.0
H147 H 0.69616 0.20542 0.59449 0.0
H148 H 0.70076 0.1698 0.64237 0.0
H149 H 0.68866 0.22784 0.64924 0.0
C150 C 0.68231 0.19841 0.62784 0.0
C151 C 0.56343 0.36315 0.42241 0.0
H152 H 0.56082 0.33351 0.40054 0.0
H153 H 0.54526 0.39043 0.40553 0.0
H154 H 0.54685 0.35558 0.4546 0.0
O155 O 0.58488 0.34004 0.5287 0.0
O156 O 0.56167 0.28252 0.56697 0.0
C157 C 0.56191 0.23404 0.45961 0.0
O158 O 0.65839 0.28344 0.58789 0.0
O159 O 0.68288 0.31769 0.5286 0.0
Zn160 Zn 0.94303 0.38084 0.74625 0.0
O161 O 0.96258 0.33112 0.70579 0.0
C162 C 0.91523 0.30935 0.80973 0.0
Zn163 Zn 0.99407 0.36474 0.79425 0.0
C164 C 0.00151 0.31528 0.70669 0.0
O165 O 0.0258 0.32269 0.7412 0.0
C166 C 0.93126 0.43563 0.82559 0.0
O167 O 0.03327 0.41548 0.77406 0.0
O168 O 0.9945 0.42316 0.71267 0.0
N169 N 0.03967 0.3497 0.84268 0.0
C170 C 0.05965 0.37756 0.87186 0.0
C171 C 0.07055 0.31125 0.8951 0.0
N172 N 0.04648 0.30851 0.85717 0.0
N173 N 0.0787 0.35426 0.90512 0.0
C174 C 0.86006 0.36988 0.68723 0.0
C175 C 0.84889 0.43506 0.66119 0.0
N176 N 0.89375 0.39593 0.70178 0.0
N177 N 0.88682 0.43646 0.68553 0.0
N178 N 0.83122 0.39379 0.66267 0.0
H179 H 0.88743 0.30474 0.70446 0.0
H180 H 0.8421 0.30384 0.66524 0.0
H181 H 0.83124 0.31525 0.7228 0.0
C182 C 0.8555 0.32064 0.69538 0.0
C183 C 0.06404 0.42718 0.86586 0.0
H184 H 0.08924 0.43364 0.83941 0.0
H185 H 0.07556 0.44409 0.89659 0.0
H186 H 0.03223 0.44241 0.85519 0.0
O187 O 0.95981 0.40842 0.84149 0.0
O188 O 0.92143 0.43302 0.78475 0.0
C189 C 0.02965 0.4317 0.73556 0.0
O190 O 0.89724 0.33631 0.78223 0.0
O191 O 0.95669 0.31217 0.81657 0.0
Zn192 Zn 0.87263 0.74708 0.04652 0.0
O193 O 0.81908 0.78522 0.03024 0.0
C194 C 0.80652 0.68047 0.07983 0.0
Zn195 Zn 0.85502 0.69712 -0.00314 0.0
C196 C 0.7995 0.7809 0.99329 0.0
O197 O 0.80731 0.7462 0.96941 0.0
C198 C 0.93253 0.67027 0.05284 0.0
O199 O 0.89975 0.7218 0.95345 0.0
O200 O 0.91082 0.78208 0.9935 0.0
N201 N 0.83989 0.64712 0.95281 0.0
C202 C 0.86885 0.62032 0.93089 0.0
C203 C 0.80554 0.58772 0.93089 0.0
N204 N 0.80052 0.62685 0.95264 0.0
N205 N 0.84832 0.58258 0.91774 0.0
C206 C 0.86343 0.8078 0.128 0.0
C207 C 0.93063 0.814 0.1507 0.0
N208 N 0.89006 0.79032 0.09614 0.0
N209 N 0.93183 0.79423 0.11026 0.0
N210 N 0.88799 0.82189 0.16284 0.0
H211 H 0.80892 0.83877 0.09487 0.0
H212 H 0.79863 0.83059 0.15285 0.0
H213 H 0.79668 0.7837 0.1151 0.0
C214 C 0.81407 0.81531 0.12291 0.0
C215 C 0.91631 0.63244 0.91951 0.0
H216 H 0.91625 0.66239 0.89783 0.0
H217 H 0.93371 0.60562 0.90087 0.0
H218 H 0.9355 0.6403 0.95002 0.0
O219 O 0.90447 0.6528 0.02623 0.0
O220 O 0.92778 0.7106 0.06371 0.0
C221 C 0.91507 0.76076 0.95662 0.0
O222 O 0.83239 0.71052 0.09509 0.0
O223 O 0.80783 0.67157 0.03873 0.0
Zn224 Zn 0.5388 0.61583 0.24733 0.0
O225 O 0.51901 0.66624 0.20836 0.0
C226 C 0.56638 0.68712 0.31012 0.0
Zn227 Zn 0.48786 0.63001 0.29696 0.0
C228 C 0.48076 0.68338 0.2119 0.0
O229 O 0.45631 0.67377 0.24581 0.0
C230 C 0.55105 0.55955 0.32628 0.0
O231 O 0.44867 0.57968 0.27507 0.0
O232 O 0.48827 0.57297 0.21372 0.0
N233 N 0.44298 0.64464 0.34649 0.0
C234 C 0.42298 0.61623 0.37516 0.0
C235 C 0.41833 0.6813 0.40346 0.0
N236 N 0.43996 0.68509 0.3641 0.0
N237 N 0.40792 0.63831 0.4114 0.0
C238 C 0.61923 0.62783 0.18424 0.0
C239 C 0.64611 0.56205 0.1812 0.0
N240 N 0.58947 0.60039 0.20404 0.0
N241 N 0.60618 0.55952 0.20195 0.0
N242 N 0.65539 0.60467 0.17035 0.0
H243 H 0.58045 0.67932 0.15417 0.0
H244 H 0.63832 0.69236 0.15622 0.0
H245 H 0.60505 0.69472 0.2066 0.0
C246 C 0.61082 0.67635 0.17502 0.0
C247 C 0.41482 0.56769 0.36577 0.0
H248 H 0.39317 0.56502 0.33595 0.0
H249 H 0.39719 0.55054 0.39334 0.0
H250 H 0.44665 0.55018 0.35871 0.0
O251 O 0.52164 0.58511 0.34341 0.0
O252 O 0.56031 0.56385 0.2855 0.0
C253 C 0.45314 0.56355 0.23648 0.0
O254 O 0.58429 0.66062 0.28203 0.0
O255 O 0.52566 0.68206 0.31971 0.0
Zn256 Zn 0.19392 0.49634 0.12662 0.0
O257 O 0.21458 0.53414 0.07511 0.0
C258 C 0.1686 0.43202 0.05629 0.0
Zn259 Zn 0.24479 0.44762 0.11569 0.0
C260 C 0.25537 0.53369 0.06469 0.0
O261 O 0.27898 0.49965 0.07544 0.0
C262 C 0.18162 0.41978 0.18563 0.0
O263 O 0.28106 0.46858 0.16827 0.0
O264 O 0.24425 0.53175 0.16817 0.0
N265 N 0.29082 0.39903 0.10273 0.0
C266 C 0.31093 0.37059 0.13121 0.0
C267 C 0.32048 0.34503 0.06545 0.0
N268 N 0.29689 0.38314 0.06191 0.0
N269 N 0.32919 0.33615 0.10864 0.0
C270 C 0.11101 0.55472 0.11113 0.0
C271 C 0.09887 0.58452 0.17461 0.0
N272 N 0.14425 0.54154 0.13847 0.0
N273 N 0.1367 0.56012 0.17794 0.0
N274 N 0.08191 0.58079 0.13321 0.0
H275 H 0.13953 0.53453 0.04725 0.0
H276 H 0.0933 0.57265 0.0438 0.0
H277 H 0.08354 0.51564 0.05818 0.0
C278 C 0.10716 0.54377 0.06234 0.0
C279 C 0.31575 0.37859 0.18051 0.0
H280 H 0.33589 0.40916 0.18575 0.0
H281 H 0.33338 0.35118 0.19777 0.0
H282 H 0.28259 0.38365 0.19623 0.0
O283 O 0.209 0.40142 0.15862 0.0
O284 O 0.17205 0.46049 0.18067 0.0
C285 C 0.2779 0.50852 0.18077 0.0
O286 O 0.14931 0.45886 0.0831 0.0
O287 O 0.20987 0.4251 0.06107 0.0
Zn288 Zn 0.75141 0.04287 0.88092 0.0
O289 O 0.7945 0.02074 0.83458 0.0
C290 C 0.69396 0.07131 0.80452 0.0
Zn291 Zn 0.7018 0.99334 0.86201 0.0
C292 C 0.79153 0.98274 0.81715 0.0
O293 O 0.75564 0.95983 0.82246 0.0
C294 C 0.66883 0.0579 0.93064 0.0
O295 O 0.71839 0.95406 0.91376 0.0
O296 O 0.7797 0.99192 0.92698 0.0
N297 N 0.65226 0.94922 0.84556 0.0
C298 C 0.62169 0.93025 0.87281 0.0
C299 C 0.59961 0.91984 0.80599 0.0
N300 N 0.63845 0.94274 0.80404 0.0
N301 N 0.58836 0.91225 0.84882 0.0
C302 C 0.8165 0.12107 0.86936 0.0
C303 C 0.81695 0.15083 0.93397 0.0
N304 N 0.79513 0.09284 0.89729 0.0
N305 N 0.79558 0.11136 0.93745 0.0
N306 N 0.8298 0.15792 0.89143 0.0
H307 H 0.84865 0.08108 0.81949 0.0
H308 H 0.84579 0.1385 0.80485 0.0
H309 H 0.79624 0.10444 0.80219 0.0
C310 C 0.82714 0.11115 0.82125 0.0
C311 C 0.62518 0.92703 0.92278 0.0
H312 H 0.64891 0.89987 0.93121 0.0
H313 H 0.59253 0.91901 0.93842 0.0
H314 H 0.63796 0.95812 0.93771 0.0
O315 O 0.6534 0.02929 0.90328 0.0
O316 O 0.71 0.06669 0.9296 0.0
C317 C 0.75511 0.95745 0.9337 0.0
O318 O 0.72065 0.08819 0.83297 0.0
O319 O 0.68361 0.0307 0.80808 0.0
Zn320 Zn 0.74709 0.94335 0.38104 0.0
O321 O 0.71031 0.95905 0.32739 0.0
C322 C 0.81199 0.91109 0.31404 0.0
Zn323 Zn 0.79518 0.9932 0.36355 0.0
C324 C 0.71018 -0.00179 0.31254 0.0
O325 O 0.74431 0.02308 0.31938 0.0
C326 C 0.82282 0.93586 0.43972 0.0
O327 O 0.77331 0.03574 0.41119 0.0
O328 O 0.71125 -0.00284 0.41779 0.0
N329 N 0.8448 0.03686 0.3473 0.0
C330 C 0.87377 0.05728 0.375 0.0
C331 C 0.90028 0.06279 0.30906 0.0
N332 N 0.86128 0.04034 0.30633 0.0
N333 N 0.90895 0.07305 0.35189 0.0
C334 C 0.68434 0.86367 0.36779 0.0
C335 C 0.66626 0.84496 0.43408 0.0
N336 N 0.70199 0.89436 0.39563 0.0
N337 N 0.69085 0.88262 0.43683 0.0
N338 N 0.66244 0.83227 0.39115 0.0
H339 H 0.71624 0.88002 0.30445 0.0
H340 H 0.65706 0.88827 0.30674 0.0
H341 H 0.67933 0.83314 0.30206 0.0
C342 C 0.68473 0.8662 0.3176 0.0
C343 C 0.86632 0.06474 0.42411 0.0
H344 H 0.85629 0.03368 0.44116 0.0
H345 H 0.8389 0.0893 0.4285 0.0
H346 H 0.89641 0.0783 0.44077 0.0
O347 O 0.84039 0.961 0.41024 0.0
O348 O 0.78184 0.9264 0.43686 0.0
C349 C 0.73366 0.03291 0.42508 0.0
O350 O 0.78505 0.89488 0.34267 0.0
O351 O 0.81841 0.95266 0.31366 0.0
Zn352 Zn 0.29466 0.49321 0.63264 0.0
O353 O 0.27588 0.45554 0.58128 0.0
C354 C 0.32243 0.55718 0.5631 0.0
Zn355 Zn 0.24419 0.54181 0.61957 0.0
C356 C 0.23593 0.456 0.56859 0.0
O357 O 0.2113 0.48971 0.57817 0.0
C358 C 0.30778 0.57091 0.68916 0.0
O359 O 0.20579 0.52151 0.67136 0.0
O360 O 0.24266 0.4584 0.67346 0.0
N361 N 0.19876 0.59029 0.60516 0.0
C362 C 0.17899 0.61957 0.63313 0.0
C363 C 0.16848 0.64309 0.56684 0.0
N364 N 0.19211 0.60488 0.56398 0.0
N365 N 0.16033 0.65314 0.60991 0.0
C366 C 0.3741 0.43048 0.61718 0.0
C367 C 0.40028 0.42116 0.68263 0.0
N368 N 0.34477 0.44893 0.6461 0.0
N369 N 0.36104 0.44302 0.68676 0.0
N370 N 0.40947 0.41377 0.63924 0.0
H371 H 0.35905 0.45815 0.55231 0.0
H372 H 0.33754 0.40316 0.5623 0.0
H373 H 0.39537 0.41027 0.55036 0.0
C374 C 0.3665 0.42553 0.56779 0.0
C375 C 0.17475 0.61338 0.68278 0.0
H376 H 0.15277 0.58434 0.68941 0.0
H377 H 0.15943 0.64255 0.69954 0.0
H378 H 0.20765 0.6066 0.69805 0.0
O379 O 0.27962 0.58849 0.66262 0.0
O380 O 0.31548 0.52969 0.68611 0.0
C381 C 0.20837 0.48173 0.68445 0.0
O382 O 0.3408 0.52979 0.58985 0.0
O383 O 0.28091 0.56378 0.56625 0.0
C384 C 0.17709 0.36721 0.50069 0.0
C385 C 0.19211 0.32689 0.52062 0.0
C386 C 0.18971 0.4092 0.51689 0.0
C387 C 0.21831 0.41254 0.55336 0.0
H388 H 0.15481 0.36662 0.47227 0.0
H389 H 0.17798 0.43898 0.50016 0.0
S390 S 0.26353 0.31828 0.62063 0.0
N391 N 0.23434 0.29376 0.5809 0.0
N392 N 0.25882 0.37238 0.61153 0.0
C393 C 0.23257 0.37268 0.57456 0.0
C394 C 0.21922 0.32997 0.55827 0.0
C395 C 0.86498 0.94603 0.82815 0.0
C396 C 0.83382 0.96538 0.79862 0.0
C397 C 0.91027 0.94073 0.81649 0.0
C398 C 0.92666 0.95629 0.77541 0.0
H399 H 0.8549 0.9367 0.86142 0.0
H400 H 0.9322 0.92324 0.83927 0.0
S401 S 0.86071 0.0164 0.68936 0.0
N402 N 0.82384 0.0046 0.72875 0.0
N403 N 0.90879 -0.00424 0.70677 0.0
C404 C 0.89632 0.97804 0.74665 0.0
C405 C 0.85015 0.98245 0.75825 0.0
C406 C 0.26569 0.65925 0.04757 0.0
C407 C 0.30926 0.66438 0.03171 0.0
C408 C 0.24872 0.61663 0.05688 0.0
C409 C 0.27477 0.57736 0.05104 0.0
H410 H 0.244 0.68801 0.05099 0.0
H411 H 0.2146 0.61473 0.06891 0.0
S412 S 0.39182 0.57376 0.01108 0.0
N413 N 0.37852 0.62721 0.01031 0.0
N414 N 0.34705 0.54744 0.02977 0.0
C415 C 0.31886 0.58239 0.03628 0.0
C416 C 0.3359 0.62574 0.02609 0.0
C417 C 0.61984 0.06406 0.25319 0.0
C418 C 0.57969 0.04617 0.27117 0.0
C419 C 0.66208 0.04925 0.26678 0.0
C420 C 0.66593 0.01565 0.29871 0.0
H421 H 0.61878 0.09026 0.22834 0.0
H422 H 0.69171 0.06368 0.25177 0.0
S423 S 0.57175 0.96168 0.3604 0.0
N424 N 0.5469 -0.0041 0.32516 0.0
N425 N 0.6259 0.96782 0.35163 0.0
C426 C 0.62606 -0.00127 0.31845 0.0
C427 C 0.58307 0.01408 0.30457 0.0
C428 C 0.71034 0.13306 0.49693 0.0
C429 C 0.6984 0.16643 0.46561 0.0
C430 C 0.71788 0.08864 0.48424 0.0
C431 C 0.71356 0.07539 0.43972 0.0
H432 H 0.71324 0.14113 0.53205 0.0
H433 H 0.7284 0.0648 0.50926 0.0
S434 S 0.68833 0.14944 0.34359 0.0
N435 N 0.68547 0.18285 0.38739 0.0
N436 N 0.70102 0.0996 0.36336 0.0
C437 C 0.70337 0.10842 0.40775 0.0
C438 C 0.69553 0.15379 0.42065 0.0
C439 C 0.09767 0.47804 0.74416 0.0
C440 C 0.07177 0.44976 0.71694 0.0
C441 C 0.14337 0.48505 0.73586 0.0
C442 C 0.16573 0.46284 0.70097 0.0
H443 H 0.08258 0.4941 0.77291 0.0
H444 H 0.16125 0.50882 0.75641 0.0
S445 S 0.11325 0.38653 0.61894 0.0
N446 N 0.07182 0.40028 0.65284 0.0
N447 N 0.15782 0.41296 0.63773 0.0
C448 C 0.14025 0.43458 0.67346 0.0
C449 C 0.09336 0.42825 0.68123 0.0
C450 C 0.79208 0.88462 0.92369 0.0
C451 C 0.77132 0.91522 0.95286 0.0
C452 C 0.79717 0.83943 0.93485 0.0
C453 C 0.78032 0.82256 0.97518 0.0
H454 H 0.80258 0.89514 0.8909 0.0
H455 H 0.81576 0.81802 0.9124 0.0
S456 S 0.71506 0.88642 0.05921 0.0
N457 N 0.72833 0.9239 0.021 0.0
N458 N 0.7373 0.83889 0.04214 0.0
C459 C 0.75691 0.85213 0.00342 0.0
C460 C 0.75235 0.89829 0.9922 0.0
C461 C 0.39135 0.56305 0.18064 0.0
C462 C 0.41226 0.54321 0.21765 0.0
C463 C 0.34572 0.55556 0.17152 0.0
C464 C 0.31951 0.52761 0.1989 0.0
H465 H 0.41002 0.58551 0.1594 0.0
H466 H 0.33135 0.57029 0.14182 0.0
S467 S 0.35961 0.46391 0.29686 0.0
N468 N 0.40387 0.49231 0.28005 0.0
N469 N 0.31895 0.47722 0.26215 0.0
C470 C 0.34058 0.50638 0.2349 0.0
C471 C 0.38665 0.51425 0.24434 0.0
C472 C 0.51277 0.23392 0.3441 0.0
C473 C 0.52993 0.19456 0.32536 0.0
C474 C 0.51932 0.24413 0.38933 0.0
C475 C 0.54275 0.21515 0.41811 0.0
H476 H 0.49313 0.25651 0.32385 0.0
H477 H 0.50665 0.27562 0.4018 0.0
S478 S 0.58634 0.10359 0.38764 0.0
N479 N 0.56583 0.12351 0.34056 0.0
N480 N 0.57878 0.14305 0.42543 0.0
C481 C 0.55791 0.17453 0.40043 0.0
C482 C 0.5515 0.16427 0.35416 0.0
C483 C 0.00428 0.28587 0.58278 0.0
C484 C 0.04882 0.27417 0.5753 0.0
C485 C 0.98935 0.29683 0.62591 0.0
C486 C 0.01842 0.29699 0.66342 0.0
H487 H 0.98055 0.28521 0.55555 0.0
H488 H 0.95444 0.30576 0.62953 0.0
S489 S 0.13885 0.26861 0.66059 0.0
N490 N 0.12216 0.26266 0.60845 0.0
N491 N 0.09421 0.2844 0.68906 0.0
C492 C 0.06314 0.28528 0.6561 0.0
C493 C 0.07824 0.27372 0.61222 0.0
C494 C 0.98882 0.81641 0.87023 0.0
C495 C 0.96607 0.80753 0.82961 0.0
C496 C 0.97128 0.80378 0.91181 0.0
C497 C 0.93059 0.78119 0.91442 0.0
H498 H 0.02081 0.83334 0.87013 0.0
H499 H 0.99049 0.81013 0.94174 0.0
S500 S 0.85595 0.75257 0.81939 0.0
N501 N 0.89916 0.77742 0.79565 0.0
N502 N 0.86647 0.7523 0.87345 0.0
C503 C 0.90677 0.77323 0.87439 0.0
C504 C 0.92435 0.78677 0.83212 0.0
C505 C 0.42949 0.68463 0.14694 0.0
C506 C 0.4644 0.70485 0.17078 0.0
C507 C 0.42456 0.69154 0.10074 0.0
C508 C 0.45417 0.71918 0.0767 0.0
H509 H 0.40687 0.66206 0.16378 0.0
H510 H 0.39623 0.67659 0.08418 0.0
S511 S 0.54775 0.78415 0.12476 0.0
N512 N 0.52712 0.75611 0.16756 0.0
N513 N 0.51685 0.77025 0.08133 0.0
C514 C 0.48784 0.74118 0.10069 0.0
C515 C 0.49306 0.73391 0.14746 0.0
C516 C 0.12604 0.32952 0.2552 0.0
C517 C 0.11635 0.35249 0.29498 0.0
C518 C 0.14847 0.35088 0.21988 0.0
C519 C 0.16133 0.39582 0.22355 0.0
H520 H 0.11696 0.29472 0.25191 0.0
H521 H 0.15512 0.33245 0.18947 0.0
S522 S 0.14595 0.46875 0.32275 0.0
N523 N 0.12294 0.42083 0.33723 0.0
N524 N 0.16445 0.46167 0.27124 0.0
C525 C 0.15208 0.41869 0.26366 0.0
C526 C 0.12971 0.39682 0.29934 0.0
C527 C 0.84609 0.88175 0.55106 0.0
C528 C 0.89257 0.87732 0.55107 0.0
C529 C 0.82424 0.90134 0.51496 0.0
C530 C 0.84817 0.91714 0.4775 0.0
H531 H 0.82675 0.87094 0.57969 0.0
H532 H 0.78818 0.90444 0.51673 0.0
S533 S 0.97065 0.9092 0.46049 0.0
N534 N 0.96205 0.88727 0.51034 0.0
N535 N 0.92101 0.92469 0.442 0.0
C536 C 0.89483 0.91215 0.47691 0.0
C537 C 0.91703 0.89196 0.51381 0.0
C538 C 0.31569 0.63773 0.73917 0.0
C539 C 0.33204 0.59661 0.72362 0.0
C540 C 0.33616 0.6594 0.77529 0.0
C541 C 0.37313 0.64031 0.79724 0.0
H542 H 0.28625 0.65256 0.72432 0.0
H543 H 0.32247 0.6908 0.78686 0.0
S544 S 0.43278 0.53702 0.76552 0.0
N545 N 0.39111 0.54063 0.72973 0.0
N546 N 0.42799 0.58104 0.79828 0.0
C547 C 0.39134 0.60087 0.78037 0.0
C548 C 0.37103 0.57897 0.74353 0.0
C549 C 0.63756 0.13732 0.02377 0.0
C550 C 0.59706 0.12005 0.03947 0.0
C551 C 0.65927 0.11797 0.98721 0.0
C552 C 0.64118 0.08064 0.96483 0.0
H553 H 0.65334 0.16487 0.04101 0.0
H554 H 0.69126 0.13178 0.97728 0.0
S555 S 0.53262 0.02691 0.98999 0.0
N556 N 0.53669 0.06729 0.02725 0.0
N557 N 0.57831 0.02971 0.95909 0.0
C558 C 0.59923 0.06482 0.97861 0.0
C559 C 0.57694 0.08486 0.01578 0.0
C560 C 0.62793 0.09634 0.6998 0.0
C561 C 0.63037 0.14274 0.69627 0.0
C562 C 0.64914 0.07396 0.73468 0.0
C563 C 0.67355 0.09716 0.76766 0.0
H564 H 0.61034 0.0772 0.67471 0.0
H565 H 0.64646 0.03793 0.73546 0.0
S566 S 0.68688 0.21987 0.77474 0.0
N567 N 0.65636 0.21192 0.72955 0.0
N568 N 0.69724 0.16974 0.7951 0.0
C569 C 0.67561 0.14388 0.76483 0.0
C570 C 0.65367 0.16672 0.72921 0.0
C571 C 0.09916 0.41783 0.01115 0.0
C572 C 0.14479 0.4096 0.01902 0.0
C573 C 0.07735 0.39885 0.97431 0.0
C574 C 0.10042 0.37099 0.94428 0.0
H575 H 0.08026 0.43943 0.03316 0.0
H576 H 0.04241 0.40643 0.96873 0.0
S577 S 0.2187 0.3364 0.95036 0.0
N578 N 0.2115 0.36941 0.99389 0.0
N579 N 0.16978 0.33437 0.92513 0.0
C580 C 0.14521 0.36118 0.95235 0.0
C581 C 0.16762 0.38041 0.98955 0.0
C582 C 0.86954 0.90379 0.25455 0.0
C583 C 0.83496 0.88385 0.2798 0.0
C584 C 0.88816 0.8824 0.21752 0.0
C585 C 0.87286 0.84044 0.20428 0.0
H586 H 0.88146 0.93698 0.26246 0.0
H587 H 0.91322 0.89958 0.19783 0.0
S588 S 0.78856 0.77055 0.2622 0.0
N589 N 0.78978 0.81734 0.29137 0.0
N590 N 0.82573 0.77678 0.22177 0.0
C591 C 0.84089 0.8185 0.23087 0.0
C592 C 0.82166 0.84034 0.26866 0.0
C593 C 0.38818 0.56465 0.51122 0.0
C594 C 0.34737 0.58113 0.52774 0.0
C595 C 0.40863 0.5843 0.47384 0.0
C596 C 0.38865 0.6206 0.45162 0.0
H597 H 0.4036 0.53562 0.52624 0.0
H598 H 0.43977 0.57046 0.46153 0.0
S599 S 0.28575 0.68024 0.48528 0.0
N600 N 0.29074 0.63954 0.52199 0.0
N601 N 0.3289 0.67499 0.45122 0.0
C602 C 0.34958 0.63899 0.4694 0.0
C603 C 0.32889 0.61947 0.50746 0.0
C604 C 0.22031 0.14917 0.34727 0.0
C605 C 0.22411 0.1688 0.38968 0.0
C606 C 0.25717 0.12751 0.32756 0.0
C607 C 0.2986 0.12551 0.34961 0.0
H608 H 0.18855 0.14936 0.33 0.0
H609 H 0.25356 0.11261 0.29484 0.0
S610 S 0.32635 0.17392 0.4595 0.0
N611 N 0.27309 0.18629 0.45206 0.0
N612 N 0.34182 0.14587 0.4146 0.0
C613 C 0.3029 0.14575 0.39134 0.0
C614 C 0.26575 0.16742 0.41145 0.0
C615 C 0.10494 0.01274 0.57589 0.0
C616 C 0.13227 0.04391 0.59797 0.0
C617 C 0.08566 0.97682 0.59893 0.0
C618 C 0.09343 0.97071 0.64477 0.0
H619 H 0.09789 0.01661 0.54071 0.0
H620 H 0.06396 0.95429 0.58088 0.0
S621 S 0.16703 0.04108 0.71616 0.0
N622 N 0.16897 0.06494 0.66659 0.0
N623 N 0.13405 -0.00264 0.71034 0.0
C624 C 0.12306 0.00047 0.66644 0.0
C625 C 0.14229 0.03698 0.64289 0.0
C626 C 0.23351 0.84228 0.83034 0.0
C627 C 0.20197 0.86786 0.85415 0.0
C628 C 0.26904 0.82106 0.85232 0.0
C629 C 0.27408 0.82491 0.89879 0.0
H630 H 0.23048 0.83859 0.79454 0.0
H631 H 0.2926 0.80163 0.83282 0.0
S632 S 0.19899 0.88823 0.97566 0.0
N633 N 0.17736 0.89591 0.92568 0.0
N634 N 0.24346 0.8566 0.96774 0.0
C635 C 0.24252 0.85094 0.92271 0.0
C636 C 0.20674 0.87243 0.90016 0.0
C637 C 0.39851 0.98514 0.16691 0.0
C638 C 0.41708 0.0208 0.14224 0.0
C639 C 0.37891 0.94861 0.14577 0.0
C640 C 0.37711 0.94643 0.09932 0.0
H641 H 0.39969 0.9849 0.20304 0.0
H642 H 0.36602 0.92134 0.16569 0.0
S643 S 0.41687 0.03138 0.01905 0.0
N644 N 0.4299 0.05219 0.06844 0.0
N645 N 0.39288 0.98269 0.02875 0.0
C646 C 0.39441 0.98181 0.07401 0.0
C647 C 0.41455 0.01922 0.09548 0.0
C648 C 0.7908 0.37668 0.59398 0.0
C649 C 0.79199 0.37783 0.64058 0.0
C650 C 0.75602 0.355 0.57172 0.0
C651 C 0.72117 0.33365 0.59536 0.0
H652 H 0.81787 0.39115 0.57478 0.0
H653 H 0.75714 0.3542 0.53559 0.0
S654 S 0.70714 0.33222 0.71834 0.0
N655 N 0.75433 0.35962 0.71001 0.0
N656 N 0.6886 0.31847 0.6683 0.0
C657 C 0.72126 0.33617 0.64218 0.0
C658 C 0.75674 0.35844 0.66476 0.0
C659 C 0.8709 0.49213 0.83494 0.0
C660 C 0.90885 0.47047 0.85269 0.0
C661 C 0.85055 0.52787 0.85706 0.0
C662 C 0.86755 0.54361 0.8975 0.0
H663 H 0.85702 0.48193 0.80318 0.0
H664 H 0.82219 0.54429 0.84182 0.0
S665 S 0.96301 0.49658 0.96064 0.0
N666 N 0.96053 0.4658 0.91499 0.0
N667 N 0.92175 0.53305 0.95684 0.0
C668 C 0.90402 0.52121 0.91687 0.0
C669 C 0.92482 0.48462 0.89438 0.0
C670 C 0.7558 0.67673 0.14666 0.0
C671 C 0.77288 0.65715 0.10755 0.0
C672 C 0.71824 0.65849 0.16818 0.0
C673 C 0.69623 0.62074 0.15074 0.0
H674 H 0.77023 0.70723 0.1596 0.0
H675 H 0.70552 0.67468 0.19793 0.0
S676 S 0.7325 0.55263 0.05421 0.0
N677 N 0.76891 0.59391 0.0564 0.0
N678 N 0.69747 0.56131 0.09597 0.0
C679 C 0.71503 0.59909 0.11386 0.0
C680 C 0.75345 0.61702 0.09235 0.0
C681 C 0.57761 0.47105 0.41319 0.0
C682 C 0.61495 0.4494 0.39415 0.0
C683 C 0.55754 0.50781 0.39212 0.0
C684 C 0.57482 0.5245 0.35179 0.0
H685 H 0.56336 0.45885 0.4441 0.0
H686 H 0.52774 0.52232 0.40678 0.0
S687 S 0.67709 0.48411 0.29314 0.0
N688 N 0.67116 0.45001 0.33593 0.0
N689 N 0.63537 0.51992 0.29706 0.0
C690 C 0.6143 0.50501 0.33446 0.0
C691 C 0.63404 0.46741 0.35559 0.0
C692 C 0.33157 0.27183 0.16035 0.0
C693 C 0.35089 0.29695 0.12556 0.0
C694 C 0.35379 0.23483 0.17855 0.0
C695 C 0.39568 0.22141 0.16194 0.0
H696 H 0.29936 0.28135 0.17393 0.0
H697 H 0.33858 0.21737 0.20636 0.0
S698 S 0.45676 0.27265 0.06637 0.0
N699 N 0.41167 0.30378 0.07258 0.0
N700 N 0.45306 0.23364 0.10502 0.0
C701 C 0.4138 0.24481 0.12513 0.0
C702 C 0.39138 0.28258 0.10722 0.0
C703 C 0.84986 0.25688 0.81677 0.0
C704 C 0.88994 0.27426 0.83386 0.0
C705 C 0.82953 0.21952 0.8365 0.0
C706 C 0.8488 0.19823 0.87369 0.0
H707 H 0.83495 0.27109 0.78721 0.0
H708 H 0.79908 0.20646 0.82203 0.0
S709 S 0.94924 0.23451 0.9354 0.0
N710 N 0.94488 0.27036 0.89386 0.0
N711 N 0.90685 0.19976 0.9297 0.0
C712 C 0.88697 0.21694 0.89279 0.0
C713 C 0.9076 0.25493 0.87307 0.0
C714 C 0.04225 0.64856 0.11132 0.0
C715 C 0.04301 0.60217 0.11558 0.0
C716 C 0.00663 0.66985 0.09008 0.0
C717 C 0.9704 0.64545 0.07239 0.0
H718 H 0.06993 0.66829 0.12361 0.0
H719 H 0.00773 0.70587 0.08734 0.0
S720 S 0.95565 0.52291 0.07882 0.0
N721 N 0.00433 0.53221 0.103 0.0
N722 N 0.93681 0.5722 0.06286 0.0
C723 C 0.97061 0.59885 0.07708 0.0
C724 C 0.00703 0.57722 0.09886 0.0
C725 C 0.6616 0.76025 0.35152 0.0
C726 C 0.6387 0.79456 0.37404 0.0
C727 C 0.63822 0.72546 0.33058 0.0
C728 C 0.59123 0.72395 0.33183 0.0
H729 H 0.69775 0.76098 0.34947 0.0
H730 H 0.65701 0.69975 0.31336 0.0
S731 S 0.51658 0.80768 0.386 0.0
N732 N 0.56763 0.82589 0.39603 0.0
N733 N 0.52291 0.76111 0.35725 0.0
C734 C 0.56824 0.75837 0.35473 0.0
C735 C 0.59219 0.79347 0.37584 0.0
C736 C 0.49664 0.32864 0.61331 0.0
C737 C 0.52261 0.34957 0.57986 0.0
C738 C 0.46066 0.35042 0.63362 0.0
C739 C 0.44913 0.3938 0.62122 0.0
H740 H 0.50346 0.29467 0.62351 0.0
H741 H 0.44073 0.33278 0.65813 0.0
S742 S 0.50829 0.46564 0.53957 0.0
N743 N 0.5357 0.4178 0.53781 0.0
N744 N 0.46816 0.45898 0.57699 0.0
C745 C 0.47583 0.41618 0.58968 0.0
C746 C 0.51251 0.39395 0.56867 0.0
C747 C 0.16263 0.7205 0.65712 0.0
C748 C 0.1399 0.69307 0.62658 0.0
C749 C 0.14191 0.75815 0.67577 0.0
C750 C 0.09782 0.76959 0.66431 0.0
H751 H 0.19643 0.71226 0.66704 0.0
H752 H 0.16034 0.77792 0.69968 0.0
S753 S 0.02629 0.71016 0.58179 0.0
N754 N 0.07306 0.68098 0.58316 0.0
N755 N 0.03358 0.75169 0.61721 0.0
C756 C 0.07568 0.7432 0.63199 0.0
C757 C 0.09693 0.70504 0.61325 0.0
C758 C 0.51111 0.82293 0.88778 0.0
C759 C 0.47629 0.84721 0.9086 0.0
C760 C 0.54677 0.84447 0.86664 0.0
C761 C 0.54885 0.89096 0.86531 0.0
H762 H 0.51151 0.78681 0.88856 0.0
H763 H 0.57361 0.82479 0.85236 0.0
S764 S 0.46535 0.9703 0.91052 0.0
N765 N 0.44534 0.9207 0.92388 0.0
N766 N 0.51294 0.96111 0.88385 0.0
C767 C 0.51403 0.91585 0.88459 0.0
C768 C 0.47761 0.89398 0.90637 0.0
C769 C 0.95599 0.13898 0.3605 0.0
C770 C 0.94834 0.09389 0.36897 0.0
C771 C 0.99169 0.16113 0.38062 0.0
C772 C 0.02133 0.13886 0.40984 0.0
H773 H 0.93332 0.15745 0.33929 0.0
H774 H 0.9954 0.19638 0.37363 0.0
S775 S 0.01732 0.01873 0.43854 0.0
N776 N 0.97381 0.02638 0.40553 0.0
N777 N 0.04206 0.06777 0.44288 0.0
C778 C 0.01492 0.093 0.41691 0.0
C779 C 0.97814 0.07056 0.39656 0.0
loop_
_geom_bond_atom_site_label_1
_geom_bond_atom_site_label_2
_geom_bond_distance
_geom_bond_site_symmetry_2
_ccdc_geom_bond_type
Zn0 O1 2.055 . S
Zn0 O8 2.046 . S
Zn0 N16 2.036 . S
Zn0 O28 2.053 . S
Zn0 O30 2.066 . S
O1 Zn0 2.055 . S
O1 C4 1.259 . S
C2 O30 1.256 . S
C2 O31 1.244 . S
Zn3 O5 2.046 . S
Zn3 O7 2.055 . S
Zn3 N9 2.036 . S
Zn3 O27 2.066 . S
Zn3 O31 2.053 . S
C4 O1 1.259 . S
C4 O5 1.254 . S
O5 Zn3 2.046 . S
O5 C4 1.254 . S
C6 O27 1.256 . S
C6 O28 1.244 . S
O7 Zn3 2.055 . S
O7 C29 1.259 . S
O8 Zn0 2.046 . S
O8 C29 1.254 . S
N9 Zn3 2.036 . S
N9 C10 1.298 . S
N9 N12 1.398 . S
C10 N9 1.298 . S
C10 N13 1.367 . S
C10 C23 1.481 . S
C11 N12 1.299 . S
C11 N13 1.379 . S
N12 N9 1.398 . S
N12 C11 1.299 . S
N13 C10 1.367 . S
N13 C11 1.379 . S
C14 N16 1.298 . S
C14 N18 1.367 . S
C14 C22 1.481 . S
C15 N17 1.299 . S
C15 N18 1.379 . S
N16 Zn0 2.036 . S
N16 C14 1.298 . S
N16 N17 1.398 . S
N17 C15 1.299 . S
N17 N16 1.398 . S
N18 C14 1.367 . S
N18 C15 1.379 . S
H19 C22 0.980 . S
H20 C22 0.981 . S
H21 C22 0.981 . S
C22 C14 1.481 . S
C22 H19 0.980 . S
C22 H20 0.981 . S
C22 H21 0.981 . S
C23 C10 1.481 . S
C23 H24 0.980 . S
C23 H25 0.981 . S
C23 H26 0.981 . S
H24 C23 0.980 . S
H25 C23 0.981 . S
H26 C23 0.981 . S
O27 Zn3 2.066 . S
O27 C6 1.256 . S
O28 Zn0 2.053 . S
O28 C6 1.244 . S
C29 O7 1.259 . S
C29 O8 1.254 . S
O30 Zn0 2.066 . S
O30 C2 1.256 . S
O31 C2 1.244 . S
O31 Zn3 2.053 . S
Zn32 O33 2.055 . S
Zn32 O40 2.046 . S
Zn32 N48 2.036 . S
Zn32 O60 2.053 1_655 S
Zn32 O62 2.066 1_655 S
O33 Zn32 2.055 . S
O33 C36 1.259 . S
C34 O62 1.256 . S
C34 O63 1.244 . S
Zn35 O37 2.046 . S
Zn35 O39 2.055 . S
Zn35 N41 2.036 . S
Zn35 O59 2.066 . S
Zn35 O63 2.053 . S
C36 O33 1.259 . S
C36 O37 1.254 1_655 S
O37 Zn35 2.046 . S
O37 C36 1.254 1_455 S
C38 O59 1.256 . S
C38 O60 1.244 . S
O39 Zn35 2.055 . S
O39 C61 1.259 1_455 S
O40 Zn32 2.046 . S
O40 C61 1.254 . S
N41 Zn35 2.036 . S
N41 C42 1.298 . S
N41 N44 1.398 . S
C42 N41 1.298 . S
C42 N45 1.367 . S
C42 C55 1.481 . S
C43 N44 1.299 . S
C43 N45 1.379 . S
N44 N41 1.398 . S
N44 C43 1.299 . S
N45 C42 1.367 . S
N45 C43 1.379 . S
C46 N48 1.298 . S
C46 N50 1.367 . S
C46 C54 1.481 . S
C47 N49 1.299 . S
C47 N50 1.379 . S
N48 Zn32 2.036 . S
N48 C46 1.298 . S
N48 N49 1.398 . S
N49 C47 1.299 . S
N49 N48 1.398 . S
N50 C46 1.367 . S
N50 C47 1.379 . S
H51 C54 0.980 . S
H52 C54 0.981 . S
H53 C54 0.981 . S
C54 C46 1.481 . S
C54 H51 0.980 . S
C54 H52 0.981 . S
C54 H53 0.981 . S
C55 C42 1.481 . S
C55 H56 0.980 . S
C55 H57 0.981 . S
C55 H58 0.981 . S
H56 C55 0.980 . S
H57 C55 0.981 . S
H58 C55 0.981 . S
O59 Zn35 2.066 . S
O59 C38 1.256 . S
O60 Zn32 2.053 1_455 S
O60 C38 1.244 . S
C61 O39 1.259 1_655 S
C61 O40 1.254 . S
O62 Zn32 2.066 1_455 S
O62 C34 1.256 . S
O63 C34 1.244 . S
O63 Zn35 2.053 . S
Zn64 O65 2.055 . S
Zn64 O72 2.046 . S
Zn64 N80 2.036 . S
Zn64 O92 2.053 1_554 S
Zn64 O94 2.066 1_554 S
O65 Zn64 2.055 . S
O65 C68 1.259 . S
C66 O94 1.256 . S
C66 O95 1.244 . S
Zn67 O69 2.046 . S
Zn67 O71 2.055 . S
Zn67 N73 2.036 . S
Zn67 O91 2.066 . S
Zn67 O95 2.053 . S
C68 O65 1.259 . S
C68 O69 1.254 1_554 S
O69 Zn67 2.046 . S
O69 C68 1.254 1_556 S
C70 O91 1.256 . S
C70 O92 1.244 . S
O71 Zn67 2.055 . S
O71 C93 1.259 1_556 S
O72 Zn64 2.046 . S
O72 C93 1.254 . S
N73 Zn67 2.036 . S
N73 C74 1.298 . S
N73 N76 1.398 . S
C74 N73 1.298 . S
C74 N77 1.367 . S
C74 C87 1.481 . S
C75 N76 1.299 . S
C75 N77 1.379 . S
N76 N73 1.398 . S
N76 C75 1.299 . S
N77 C74 1.367 . S
N77 C75 1.379 . S
C78 N80 1.298 . S
C78 N82 1.367 . S
C78 C86 1.481 . S
C79 N81 1.299 . S
C79 N82 1.379 . S
N80 Zn64 2.036 . S
N80 C78 1.298 . S
N80 N81 1.398 . S
N81 C79 1.299 . S
N81 N80 1.398 . S
N82 C78 1.367 . S
N82 C79 1.379 . S
H83 C86 0.980 . S
H84 C86 0.981 . S
H85 C86 0.981 . S
C86 C78 1.481 . S
C86 H83 0.980 . S
C86 H84 0.981 . S
C86 H85 0.981 . S
C87 C74 1.481 . S
C87 H88 0.980 . S
C87 H89 0.981 . S
C87 H90 0.981 . S
H88 C87 0.980 . S
H89 C87 0.981 . S
H90 C87 0.981 . S
O91 Zn67 2.066 . S
O91 C70 1.256 . S
O92 Zn64 2.053 1_556 S
O92 C70 1.244 . S
C93 O71 1.259 1_554 S
C93 O72 1.254 . S
O94 Zn64 2.066 1_556 S
O94 C66 1.256 . S
O95 C66 1.244 . S
O95 Zn67 2.053 . S
Zn96 O97 2.055 . S
Zn96 O104 2.046 . S
Zn96 N112 2.036 . S
Zn96 O124 2.053 . S
Zn96 O126 2.066 . S
O97 Zn96 2.055 . S
O97 C100 1.259 . S
C98 O126 1.256 . S
C98 O127 1.244 . S
Zn99 O101 2.046 . S
Zn99 O103 2.055 . S
Zn99 N105 2.036 . S
Zn99 O123 2.066 . S
Zn99 O127 2.053 . S
C100 O97 1.259 . S
C100 O101 1.254 . S
O101 Zn99 2.046 . S
O101 C100 1.254 . S
C102 O123 1.256 . S
C102 O124 1.244 . S
O103 Zn99 2.055 . S
O103 C125 1.259 . S
O104 Zn96 2.046 . S
O104 C125 1.254 . S
N105 Zn99 2.036 . S
N105 C106 1.298 . S
N105 N108 1.398 . S
C106 N105 1.298 . S
C106 N109 1.367 . S
C106 C119 1.481 . S
C107 N108 1.299 . S
C107 N109 1.379 . S
N108 N105 1.398 . S
N108 C107 1.299 . S
N109 C106 1.367 . S
N109 C107 1.379 . S
C110 N112 1.298 . S
C110 N114 1.367 . S
C110 C118 1.481 . S
C111 N113 1.299 . S
C111 N114 1.379 . S
N112 Zn96 2.036 . S
N112 C110 1.298 . S
N112 N113 1.398 . S
N113 C111 1.299 . S
N113 N112 1.398 . S
N114 C110 1.367 . S
N114 C111 1.379 . S
H115 C118 0.980 . S
H116 C118 0.981 . S
H117 C118 0.981 . S
C118 C110 1.481 . S
C118 H115 0.980 . S
C118 H116 0.981 . S
C118 H117 0.981 . S
C119 C106 1.481 . S
C119 H120 0.980 . S
C119 H121 0.981 . S
C119 H122 0.981 . S
H120 C119 0.980 . S
H121 C119 0.981 . S
H122 C119 0.981 . S
O123 Zn99 2.066 . S
O123 C102 1.256 . S
O124 Zn96 2.053 . S
O124 C102 1.244 . S
C125 O103 1.259 . S
C125 O104 1.254 . S
O126 Zn96 2.066 . S
O126 C98 1.256 . S
O127 C98 1.244 . S
O127 Zn99 2.053 . S
Zn128 O129 2.055 . S
Zn128 O136 2.046 . S
Zn128 N144 2.036 . S
Zn128 O156 2.053 . S
Zn128 O158 2.066 . S
O129 Zn128 2.055 . S
O129 C132 1.259 . S
C130 O158 1.256 . S
C130 O159 1.244 . S
Zn131 O133 2.046 . S
Zn131 O135 2.055 . S
Zn131 N137 2.036 . S
Zn131 O155 2.066 . S
Zn131 O159 2.053 . S
C132 O129 1.259 . S
C132 O133 1.254 . S
O133 Zn131 2.046 . S
O133 C132 1.254 . S
C134 O155 1.256 . S
C134 O156 1.244 . S
O135 Zn131 2.055 . S
O135 C157 1.259 . S
O136 Zn128 2.046 . S
O136 C157 1.254 . S
N137 Zn131 2.036 . S
N137 C138 1.298 . S
N137 N140 1.398 . S
C138 N137 1.298 . S
C138 N141 1.367 . S
C138 C151 1.481 . S
C139 N140 1.299 . S
C139 N141 1.379 . S
N140 N137 1.398 . S
N140 C139 1.299 . S
N141 C138 1.367 . S
N141 C139 1.379 . S
C142 N144 1.298 . S
C142 N146 1.367 . S
C142 C150 1.481 . S
C143 N145 1.299 . S
C143 N146 1.379 . S
N144 Zn128 2.036 . S
N144 C142 1.298 . S
N144 N145 1.398 . S
N145 C143 1.299 . S
N145 N144 1.398 . S
N146 C142 1.367 . S
N146 C143 1.379 . S
H147 C150 0.980 . S
H148 C150 0.981 . S
H149 C150 0.981 . S
C150 C142 1.481 . S
C150 H147 0.980 . S
C150 H148 0.981 . S
C150 H149 0.981 . S
C151 C138 1.481 . S
C151 H152 0.980 . S
C151 H153 0.981 . S
C151 H154 0.981 . S
H152 C151 0.980 . S
H153 C151 0.981 . S
H154 C151 0.981 . S
O155 Zn131 2.066 . S
O155 C134 1.256 . S
O156 Zn128 2.053 . S
O156 C134 1.244 . S
C157 O135 1.259 . S
C157 O136 1.254 . S
O158 Zn128 2.066 . S
O158 C130 1.256 . S
O159 C130 1.244 . S
O159 Zn131 2.053 . S
Zn160 O161 2.055 . S
Zn160 O168 2.046 . S
Zn160 N176 2.036 . S
Zn160 O188 2.053 . S
Zn160 O190 2.066 . S
O161 Zn160 2.055 . S
O161 C164 1.259 1_655 S
C162 O190 1.256 . S
C162 O191 1.244 . S
Zn163 O165 2.046 . S
Zn163 O167 2.055 . S
Zn163 N169 2.036 . S
Zn163 O187 2.066 1_455 S
Zn163 O191 2.053 1_455 S
C164 O161 1.259 1_455 S
C164 O165 1.254 . S
O165 Zn163 2.046 . S
O165 C164 1.254 . S
C166 O187 1.256 . S
C166 O188 1.244 . S
O167 Zn163 2.055 . S
O167 C189 1.259 . S
O168 Zn160 2.046 . S
O168 C189 1.254 1_655 S
N169 Zn163 2.036 . S
N169 C170 1.298 . S
N169 N172 1.398 . S
C170 N169 1.298 . S
C170 N173 1.367 . S
C170 C183 1.481 . S
C171 N172 1.299 . S
C171 N173 1.379 . S
N172 N169 1.398 . S
N172 C171 1.299 . S
N173 C170 1.367 . S
N173 C171 1.379 . S
C174 N176 1.298 . S
C174 N178 1.367 . S
C174 C182 1.481 . S
C175 N177 1.299 . S
C175 N178 1.379 . S
N176 Zn160 2.036 . S
N176 C174 1.298 . S
N176 N177 1.398 . S
N177 C175 1.299 . S
N177 N176 1.398 . S
N178 C174 1.367 . S
N178 C175 1.379 . S
H179 C182 0.980 . S
H180 C182 0.981 . S
H181 C182 0.981 . S
C182 C174 1.481 . S
C182 H179 0.980 . S
C182 H180 0.981 . S
C182 H181 0.981 . S
C183 C170 1.481 . S
C183 H184 0.980 . S
C183 H185 0.981 . S
C183 H186 0.981 . S
H184 C183 0.980 . S
H185 C183 0.981 . S
H186 C183 0.981 . S
O187 Zn163 2.066 1_655 S
O187 C166 1.256 . S
O188 Zn160 2.053 . S
O188 C166 1.244 . S
C189 O167 1.259 . S
C189 O168 1.254 1_455 S
O190 Zn160 2.066 . S
O190 C162 1.256 . S
O191 C162 1.244 . S
O191 Zn163 2.053 1_655 S
Zn192 O193 2.055 . S
Zn192 O200 2.046 . S
Zn192 N208 2.036 . S
Zn192 O220 2.053 . S
Zn192 O222 2.066 . S
O193 Zn192 2.055 . S
O193 C196 1.259 1_554 S
C194 O222 1.256 . S
C194 O223 1.244 . S
Zn195 O197 2.046 . S
Zn195 O199 2.055 . S
Zn195 N201 2.036 . S
Zn195 O219 2.066 1_556 S
Zn195 O223 2.053 1_556 S
C196 O193 1.259 1_556 S
C196 O197 1.254 . S
O197 Zn195 2.046 . S
O197 C196 1.254 . S
C198 O219 1.256 . S
C198 O220 1.244 . S
O199 Zn195 2.055 . S
O199 C221 1.259 . S
O200 Zn192 2.046 . S
O200 C221 1.254 1_554 S
N201 Zn195 2.036 . S
N201 C202 1.298 . S
N201 N204 1.398 . S
C202 N201 1.298 . S
C202 N205 1.367 . S
C202 C215 1.481 . S
C203 N204 1.299 . S
C203 N205 1.379 . S
N204 N201 1.398 . S
N204 C203 1.299 . S
N205 C202 1.367 . S
N205 C203 1.379 . S
C206 N208 1.298 . S
C206 N210 1.367 . S
C206 C214 1.481 . S
C207 N209 1.299 . S
C207 N210 1.379 . S
N208 Zn192 2.036 . S
N208 C206 1.298 . S
N208 N209 1.398 . S
N209 C207 1.299 . S
N209 N208 1.398 . S
N210 C206 1.367 . S
N210 C207 1.379 . S
H211 C214 0.980 . S
H212 C214 0.981 . S
H213 C214 0.981 . S
C214 C206 1.481 . S
C214 H211 0.980 . S
C214 H212 0.981 . S
C214 H213 0.981 . S
C215 C202 1.481 . S
C215 H216 0.980 . S
C215 H217 0.981 . S
C215 H218 0.981 . S
H216 C215 0.980 . S
H217 C215 0.981 . S
H218 C215 0.981 . S
O219 Zn195 2.066 1_554 S
O219 C198 1.256 . S
O220 Zn192 2.053 . S
O220 C198 1.244 . S
C221 O199 1.259 . S
C221 O200 1.254 1_556 S
O222 Zn192 2.066 . S
O222 C194 1.256 . S
O223 C194 1.244 . S
O223 Zn195 2.053 1_554 S
Zn224 O225 2.055 . S
Zn224 O232 2.046 . S
Zn224 N240 2.036 . S
Zn224 O252 2.053 . S
Zn224 O254 2.066 . S
O225 Zn224 2.055 . S
O225 C228 1.259 . S
C226 O254 1.256 . S
C226 O255 1.244 . S
Zn227 O229 2.046 . S
Zn227 O231 2.055 . S
Zn227 N233 2.036 . S
Zn227 O251 2.066 . S
Zn227 O255 2.053 . S
C228 O225 1.259 . S
C228 O229 1.254 . S
O229 Zn227 2.046 . S
O229 C228 1.254 . S
C230 O251 1.256 . S
C230 O252 1.244 . S
O231 Zn227 2.055 . S
O231 C253 1.259 . S
O232 Zn224 2.046 . S
O232 C253 1.254 . S
N233 Zn227 2.036 . S
N233 C234 1.298 . S
N233 N236 1.398 . S
C234 N233 1.298 . S
C234 N237 1.367 . S
C234 C247 1.481 . S
C235 N236 1.299 . S
C235 N237 1.379 . S
N236 N233 1.398 . S
N236 C235 1.299 . S
N237 C234 1.367 . S
N237 C235 1.379 . S
C238 N240 1.298 . S
C238 N242 1.367 . S
C238 C246 1.481 . S
C239 N241 1.299 . S
C239 N242 1.379 . S
N240 Zn224 2.036 . S
N240 C238 1.298 . S
N240 N241 1.398 . S
N241 C239 1.299 . S
N241 N240 1.398 . S
N242 C238 1.367 . S
N242 C239 1.379 . S
H243 C246 0.980 . S
H244 C246 0.981 . S
H245 C246 0.981 . S
C246 C238 1.481 . S
C246 H243 0.980 . S
C246 H244 0.981 . S
C246 H245 0.981 . S
C247 C234 1.481 . S
C247 H248 0.980 . S
C247 H249 0.981 . S
C247 H250 0.981 . S
H248 C247 0.980 . S
H249 C247 0.981 . S
H250 C247 0.981 . S
O251 Zn227 2.066 . S
O251 C230 1.256 . S
O252 Zn224 2.053 . S
O252 C230 1.244 . S
C253 O231 1.259 . S
C253 O232 1.254 . S
O254 Zn224 2.066 . S
O254 C226 1.256 . S
O255 C226 1.244 . S
O255 Zn227 2.053 . S
Zn256 O257 2.055 . S
Zn256 O264 2.046 . S
Zn256 N272 2.036 . S
Zn256 O284 2.053 . S
Zn256 O286 2.066 . S
O257 Zn256 2.055 . S
O257 C260 1.259 . S
C258 O286 1.256 . S
C258 O287 1.244 . S
Zn259 O261 2.046 . S
Zn259 O263 2.055 . S
Zn259 N265 2.036 . S
Zn259 O283 2.066 . S
Zn259 O287 2.053 . S
C260 O257 1.259 . S
C260 O261 1.254 . S
O261 Zn259 2.046 . S
O261 C260 1.254 . S
C262 O283 1.256 . S
C262 O284 1.244 . S
O263 Zn259 2.055 . S
O263 C285 1.259 . S
O264 Zn256 2.046 . S
O264 C285 1.254 . S
N265 Zn259 2.036 . S
N265 C266 1.298 . S
N265 N268 1.398 . S
C266 N265 1.298 . S
C266 N269 1.367 . S
C266 C279 1.481 . S
C267 N268 1.299 . S
C267 N269 1.379 . S
N268 N265 1.398 . S
N268 C267 1.299 . S
N269 C266 1.367 . S
N269 C267 1.379 . S
C270 N272 1.298 . S
C270 N274 1.367 . S
C270 C278 1.481 . S
C271 N273 1.299 . S
C271 N274 1.379 . S
N272 Zn256 2.036 . S
N272 C270 1.298 . S
N272 N273 1.398 . S
N273 C271 1.299 . S
N273 N272 1.398 . S
N274 C270 1.367 . S
N274 C271 1.379 . S
H275 C278 0.980 . S
H276 C278 0.981 . S
H277 C278 0.981 . S
C278 C270 1.481 . S
C278 H275 0.980 . S
C278 H276 0.981 . S
C278 H277 0.981 . S
C279 C266 1.481 . S
C279 H280 0.980 . S
C279 H281 0.981 . S
C279 H282 0.981 . S
H280 C279 0.980 . S
H281 C279 0.981 . S
H282 C279 0.981 . S
O283 Zn259 2.066 . S
O283 C262 1.256 . S
O284 Zn256 2.053 . S
O284 C262 1.244 . S
C285 O263 1.259 . S
C285 O264 1.254 . S
O286 Zn256 2.066 . S
O286 C258 1.256 . S
O287 C258 1.244 . S
O287 Zn259 2.053 . S
Zn288 O289 2.055 . S
Zn288 O296 2.046 . S
Zn288 N304 2.036 . S
Zn288 O316 2.053 . S
Zn288 O318 2.066 . S
O289 Zn288 2.055 . S
O289 C292 1.259 1_545 S
C290 O318 1.256 . S
C290 O319 1.244 . S
Zn291 O293 2.046 . S
Zn291 O295 2.055 . S
Zn291 N297 2.036 . S
Zn291 O315 2.066 1_565 S
Zn291 O319 2.053 1_565 S
C292 O289 1.259 1_565 S
C292 O293 1.254 . S
O293 Zn291 2.046 . S
O293 C292 1.254 . S
C294 O315 1.256 . S
C294 O316 1.244 . S
O295 Zn291 2.055 . S
O295 C317 1.259 . S
O296 Zn288 2.046 . S
O296 C317 1.254 1_545 S
N297 Zn291 2.036 . S
N297 C298 1.298 . S
N297 N300 1.398 . S
C298 N297 1.298 . S
C298 N301 1.367 . S
C298 C311 1.481 . S
C299 N300 1.299 . S
C299 N301 1.379 . S
N300 N297 1.398 . S
N300 C299 1.299 . S
N301 C298 1.367 . S
N301 C299 1.379 . S
C302 N304 1.298 . S
C302 N306 1.367 . S
C302 C310 1.481 . S
C303 N305 1.299 . S
C303 N306 1.379 . S
N304 Zn288 2.036 . S
N304 C302 1.298 . S
N304 N305 1.398 . S
N305 C303 1.299 . S
N305 N304 1.398 . S
N306 C302 1.367 . S
N306 C303 1.379 . S
H307 C310 0.980 . S
H308 C310 0.981 . S
H309 C310 0.981 . S
C310 C302 1.481 . S
C310 H307 0.980 . S
C310 H308 0.981 . S
C310 H309 0.981 . S
C311 C298 1.481 . S
C311 H312 0.980 . S
C311 H313 0.981 . S
C311 H314 0.981 . S
H312 C311 0.980 . S
H313 C311 0.981 . S
H314 C311 0.981 . S
O315 Zn291 2.066 1_545 S
O315 C294 1.256 . S
O316 Zn288 2.053 . S
O316 C294 1.244 . S
C317 O295 1.259 . S
C317 O296 1.254 1_565 S
O318 Zn288 2.066 . S
O318 C290 1.256 . S
O319 C290 1.244 . S
O319 Zn291 2.053 1_545 S
Zn320 O321 2.055 . S
Zn320 O328 2.046 . S
Zn320 N336 2.036 . S
Zn320 O348 2.053 . S
Zn320 O350 2.066 . S
O321 Zn320 2.055 . S
O321 C324 1.259 1_565 S
C322 O350 1.256 . S
C322 O351 1.244 . S
Zn323 O325 2.046 . S
Zn323 O327 2.055 . S
Zn323 N329 2.036 . S
Zn323 O347 2.066 1_545 S
Zn323 O351 2.053 1_545 S
C324 O321 1.259 1_545 S
C324 O325 1.254 . S
O325 Zn323 2.046 . S
O325 C324 1.254 . S
C326 O347 1.256 . S
C326 O348 1.244 . S
O327 Zn323 2.055 . S
O327 C349 1.259 . S
O328 Zn320 2.046 . S
O328 C349 1.254 1_565 S
N329 Zn323 2.036 . S
N329 C330 1.298 . S
N329 N332 1.398 . S
C330 N329 1.298 . S
C330 N333 1.367 . S
C330 C343 1.481 . S
C331 N332 1.299 . S
C331 N333 1.379 . S
N332 N329 1.398 . S
N332 C331 1.299 . S
N333 C330 1.367 . S
N333 C331 1.379 . S
C334 N336 1.298 . S
C334 N338 1.367 . S
C334 C342 1.481 . S
C335 N337 1.299 . S
C335 N338 1.379 . S
N336 Zn320 2.036 . S
N336 C334 1.298 . S
N336 N337 1.398 . S
N337 C335 1.299 . S
N337 N336 1.398 . S
N338 C334 1.367 . S
N338 C335 1.379 . S
H339 C342 0.980 . S
H340 C342 0.981 . S
H341 C342 0.981 . S
C342 C334 1.481 . S
C342 H339 0.980 . S
C342 H340 0.981 . S
C342 H341 0.981 . S
C343 C330 1.481 . S
C343 H344 0.980 . S
C343 H345 0.981 . S
C343 H346 0.981 . S
H344 C343 0.980 . S
H345 C343 0.981 . S
H346 C343 0.981 . S
O347 Zn323 2.066 1_565 S
O347 C326 1.256 . S
O348 Zn320 2.053 . S
O348 C326 1.244 . S
C349 O327 1.259 . S
C349 O328 1.254 1_545 S
O350 Zn320 2.066 . S
O350 C322 1.256 . S
O351 C322 1.244 . S
O351 Zn323 2.053 1_565 S
Zn352 O353 2.055 . S
Zn352 O360 2.046 . S
Zn352 N368 2.036 . S
Zn352 O380 2.053 . S
Zn352 O382 2.066 . S
O353 Zn352 2.055 . S
O353 C356 1.259 . S
C354 O382 1.256 . S
C354 O383 1.244 . S
Zn355 O357 2.046 . S
Zn355 O359 2.055 . S
Zn355 N361 2.036 . S
Zn355 O379 2.066 . S
Zn355 O383 2.053 . S
C356 O353 1.259 . S
C356 O357 1.254 . S
O357 Zn355 2.046 . S
O357 C356 1.254 . S
C358 O379 1.256 . S
C358 O380 1.244 . S
O359 Zn355 2.055 . S
O359 C381 1.259 . S
O360 Zn352 2.046 . S
O360 C381 1.254 . S
N361 Zn355 2.036 . S
N361 C362 1.298 . S
N361 N364 1.398 . S
C362 N361 1.298 . S
C362 N365 1.367 . S
C362 C375 1.481 . S
C363 N364 1.299 . S
C363 N365 1.379 . S
N364 N361 1.398 . S
N364 C363 1.299 . S
N365 C362 1.367 . S
N365 C363 1.379 . S
C366 N368 1.298 . S
C366 N370 1.367 . S
C366 C374 1.481 . S
C367 N369 1.299 . S
C367 N370 1.379 . S
N368 Zn352 2.036 . S
N368 C366 1.298 . S
N368 N369 1.398 . S
N369 C367 1.299 . S
N369 N368 1.398 . S
N370 C366 1.367 . S
N370 C367 1.379 . S
H371 C374 0.980 . S
H372 C374 0.981 . S
H373 C374 0.981 . S
C374 C366 1.481 . S
C374 H371 0.980 . S
C374 H372 0.981 . S
C374 H373 0.981 . S
C375 C362 1.481 . S
C375 H376 0.980 . S
C375 H377 0.981 . S
C375 H378 0.981 . S
H376 C375 0.980 . S
H377 C375 0.981 . S
H378 C375 0.981 . S
O379 Zn355 2.066 . S
O379 C358 1.256 . S
O380 Zn352 2.053 . S
O380 C358 1.244 . S
C381 O359 1.259 . S
C381 O360 1.254 . S
O382 Zn352 2.066 . S
O382 C354 1.256 . S
O383 C354 1.244 . S
O383 Zn355 2.053 . S
C384 C385 1.369 . S
C384 C386 1.419 . S
C384 H388 0.930 . S
C385 C384 1.369 . S
C385 C394 1.429 . S
C386 C384 1.419 . S
C386 C387 1.363 . S
C386 H389 0.929 . S
C387 C386 1.363 . S
C387 C393 1.428 . S
H388 C384 0.930 . S
H389 C386 0.929 . S
S390 N391 1.613 . S
S390 N392 1.610 . S
N391 S390 1.613 . S
N391 C394 1.350 . S
N392 S390 1.610 . S
N392 C393 1.351 . S
C393 C387 1.428 . S
C393 N392 1.351 . S
C393 C394 1.434 . S
C394 C385 1.429 . S
C394 N391 1.350 . S
C394 C393 1.434 . S
C395 C396 1.369 . S
C395 C397 1.419 . S
C395 H399 0.930 . S
C396 C395 1.369 . S
C396 C405 1.429 1_565 S
C397 C395 1.419 . S
C397 C398 1.363 . S
C397 H400 0.929 . S
C398 C397 1.363 . S
C398 C404 1.440 . S
H399 C395 0.930 . S
H400 C397 0.929 . S
S401 N402 1.613 . S
S401 N403 1.610 . S
N402 S401 1.613 . S
N402 C405 1.350 . S
N403 S401 1.610 . S
N403 C404 1.340 1_545 S
C404 C398 1.440 . S
C404 N403 1.340 1_565 S
C404 C405 1.433 1_565 S
C405 C396 1.429 1_545 S
C405 N402 1.350 . S
C405 C404 1.433 1_545 S
C406 C407 1.369 . S
C406 C408 1.419 . S
C406 H410 0.930 . S
C407 C406 1.369 . S
C407 C416 1.429 . S
C408 C406 1.419 . S
C408 C409 1.363 . S
C408 H411 0.929 . S
C409 C408 1.363 . S
C409 C415 1.428 . S
H410 C406 0.930 . S
H411 C408 0.929 . S
S412 N413 1.613 . S
S412 N414 1.610 . S
N413 S412 1.613 . S
N413 C416 1.350 1_556 S
N414 S412 1.610 . S
N414 C415 1.351 1_556 S
C415 C409 1.428 . S
C415 N414 1.351 1_554 S
C415 C416 1.434 . S
C416 C407 1.429 . S
C416 N413 1.350 1_554 S
C416 C415 1.434 . S
C417 C418 1.369 . S
C417 C419 1.419 . S
C417 H421 0.930 . S
C418 C417 1.369 . S
C418 C427 1.429 1_545 S
C419 C417 1.419 . S
C419 C420 1.363 . S
C419 H422 0.929 . S
C420 C419 1.363 . S
C420 C426 1.428 1_545 S
H421 C417 0.930 . S
H422 C419 0.929 . S
S423 N424 1.613 . S
S423 N425 1.610 . S
N424 S423 1.613 . S
N424 C427 1.350 . S
N425 S423 1.610 . S
N425 C426 1.351 . S
C426 C420 1.428 1_565 S
C426 N425 1.351 . S
C426 C427 1.434 . S
C427 C418 1.429 1_565 S
C427 N424 1.350 . S
C427 C426 1.434 . S
C428 C429 1.369 . S
C428 C430 1.419 . S
C428 H432 0.930 . S
C429 C428 1.369 . S
C429 C438 1.429 . S
C430 C428 1.419 . S
C430 C431 1.363 . S
C430 H433 0.929 . S
C431 C430 1.363 . S
C431 C437 1.428 . S
H432 C428 0.930 . S
H433 C430 0.929 . S
S434 N435 1.613 . S
S434 N436 1.610 . S
N435 S434 1.613 . S
N435 C438 1.350 . S
N436 S434 1.610 . S
N436 C437 1.351 . S
C437 C431 1.428 . S
C437 N436 1.351 . S
C437 C438 1.434 . S
C438 C429 1.429 . S
C438 N435 1.350 . S
C438 C437 1.434 . S
C439 C440 1.369 . S
C439 C441 1.419 . S
C439 H443 0.930 . S
C440 C439 1.369 . S
C440 C449 1.429 . S
C441 C439 1.419 . S
C441 C442 1.363 . S
C441 H444 0.929 . S
C442 C441 1.363 . S
C442 C448 1.428 . S
H443 C439 0.930 . S
H444 C441 0.929 . S
S445 N446 1.613 . S
S445 N447 1.610 . S
N446 S445 1.613 . S
N446 C449 1.350 . S
N447 S445 1.610 . S
N447 C448 1.351 . S
C448 C442 1.428 . S
C448 N447 1.351 . S
C448 C449 1.434 . S
C449 C440 1.429 . S
C449 N446 1.350 . S
C449 C448 1.434 . S
C450 C451 1.369 . S
C450 C452 1.419 . S
C450 H454 0.930 . S
C451 C450 1.369 . S
C451 C460 1.429 1_556 S
C452 C450 1.419 . S
C452 C453 1.363 . S
C452 H455 0.929 . S
C453 C452 1.363 . S
C453 C459 1.428 1_556 S
H454 C450 0.930 . S
H455 C452 0.929 . S
S456 N457 1.613 . S
S456 N458 1.610 . S
N457 S456 1.613 . S
N457 C460 1.350 . S
N458 S456 1.610 . S
N458 C459 1.351 . S
C459 C453 1.428 1_554 S
C459 N458 1.351 . S
C459 C460 1.434 . S
C460 C451 1.429 1_554 S
C460 N457 1.350 . S
C460 C459 1.434 . S
C461 C462 1.369 . S
C461 C463 1.419 . S
C461 H465 0.930 . S
C462 C461 1.369 . S
C462 C471 1.429 . S
C463 C461 1.419 . S
C463 C464 1.363 . S
C463 H466 0.929 . S
C464 C463 1.363 . S
C464 C470 1.428 . S
H465 C461 0.930 . S
H466 C463 0.929 . S
S467 N468 1.613 . S
S467 N469 1.610 . S
N468 S467 1.613 . S
N468 C471 1.350 . S
N469 S467 1.610 . S
N469 C470 1.351 . S
C470 C464 1.428 . S
C470 N469 1.351 . S
C470 C471 1.434 . S
C471 C462 1.429 . S
C471 N468 1.350 . S
C471 C470 1.434 . S
C472 C473 1.369 . S
C472 C474 1.419 . S
C472 H476 0.930 . S
C473 C472 1.369 . S
C473 C482 1.429 . S
C474 C472 1.419 . S
C474 C475 1.363 . S
C474 H477 0.929 . S
C475 C474 1.363 . S
C475 C481 1.428 . S
H476 C472 0.930 . S
H477 C474 0.929 . S
S478 N479 1.613 . S
S478 N480 1.610 . S
N479 S478 1.613 . S
N479 C482 1.350 . S
N480 S478 1.610 . S
N480 C481 1.351 . S
C481 C475 1.428 . S
C481 N480 1.351 . S
C481 C482 1.434 . S
C482 C473 1.429 . S
C482 N479 1.350 . S
C482 C481 1.434 . S
C483 C484 1.369 . S
C483 C485 1.419 . S
C483 H487 0.930 . S
C484 C483 1.369 . S
C484 C493 1.429 . S
C485 C483 1.419 . S
C485 C486 1.363 . S
C485 H488 0.929 . S
C486 C485 1.363 . S
C486 C492 1.428 . S
H487 C483 0.930 . S
H488 C485 0.929 . S
S489 N490 1.613 . S
S489 N491 1.610 . S
N490 S489 1.613 . S
N490 C493 1.350 . S
N491 S489 1.610 . S
N491 C492 1.351 . S
C492 C486 1.428 . S
C492 N491 1.351 . S
C492 C493 1.434 . S
C493 C484 1.429 . S
C493 N490 1.350 . S
C493 C492 1.434 . S
C494 C495 1.369 1_455 S
C494 C496 1.418 1_455 S
C494 H498 0.930 . S
C495 C494 1.369 1_655 S
C495 C504 1.429 . S
C496 C494 1.418 1_655 S
C496 C497 1.370 . S
C496 H499 0.923 1_655 S
C497 C496 1.370 . S
C497 C503 1.428 . S
H498 C494 0.930 . S
H499 C496 0.923 1_455 S
S500 N501 1.613 . S
S500 N502 1.610 . S
N501 S500 1.613 . S
N501 C504 1.350 . S
N502 S500 1.610 . S
N502 C503 1.351 . S
C503 C497 1.428 . S
C503 N502 1.351 . S
C503 C504 1.434 . S
C504 C495 1.429 . S
C504 N501 1.350 . S
C504 C503 1.434 . S
C505 C506 1.369 . S
C505 C507 1.419 . S
C505 H509 0.930 . S
C506 C505 1.369 . S
C506 C515 1.429 . S
C507 C505 1.419 . S
C507 C508 1.363 . S
C507 H510 0.929 . S
C508 C507 1.363 . S
C508 C514 1.428 . S
H509 C505 0.930 . S
H510 C507 0.929 . S
S511 N512 1.613 . S
S511 N513 1.610 . S
N512 S511 1.613 . S
N512 C515 1.350 . S
N513 S511 1.610 . S
N513 C514 1.351 . S
C514 C508 1.428 . S
C514 N513 1.351 . S
C514 C515 1.434 . S
C515 C506 1.429 . S
C515 N512 1.350 . S
C515 C514 1.434 . S
C516 C517 1.369 . S
C516 C518 1.419 . S
C516 H520 0.930 . S
C517 C516 1.369 . S
C517 C526 1.429 . S
C518 C516 1.419 . S
C518 C519 1.363 . S
C518 H521 0.929 . S
C519 C518 1.363 . S
C519 C525 1.428 . S
H520 C516 0.930 . S
H521 C518 0.929 . S
S522 N523 1.613 . S
S522 N524 1.610 . S
N523 S522 1.613 . S
N523 C526 1.350 . S
N524 S522 1.610 . S
N524 C525 1.351 . S
C525 C519 1.428 . S
C525 N524 1.351 . S
C525 C526 1.434 . S
C526 C517 1.429 . S
C526 N523 1.350 . S
C526 C525 1.434 . S
C527 C528 1.369 . S
C527 C529 1.419 . S
C527 H531 0.930 . S
C528 C527 1.369 . S
C528 C537 1.429 . S
C529 C527 1.419 . S
C529 C530 1.363 . S
C529 H532 0.929 . S
C530 C529 1.363 . S
C530 C536 1.428 . S
H531 C527 0.930 . S
H532 C529 0.929 . S
S533 N534 1.613 . S
S533 N535 1.610 . S
N534 S533 1.613 . S
N534 C537 1.350 . S
N535 S533 1.610 . S
N535 C536 1.351 . S
C536 C530 1.428 . S
C536 N535 1.351 . S
C536 C537 1.434 . S
C537 C528 1.429 . S
C537 N534 1.350 . S
C537 C536 1.434 . S
C538 C539 1.369 . S
C538 C540 1.419 . S
C538 H542 0.930 . S
C539 C538 1.369 . S
C539 C548 1.429 . S
C540 C538 1.419 . S
C540 C541 1.363 . S
C540 H543 0.929 . S
C541 C540 1.363 . S
C541 C547 1.428 . S
H542 C538 0.930 . S
H543 C540 0.929 . S
S544 N545 1.613 . S
S544 N546 1.610 . S
N545 S544 1.613 . S
N545 C548 1.350 . S
N546 S544 1.610 . S
N546 C547 1.351 . S
C547 C541 1.428 . S
C547 N546 1.351 . S
C547 C548 1.434 . S
C548 C539 1.429 . S
C548 N545 1.350 . S
C548 C547 1.434 . S
C549 C550 1.369 . S
C549 C551 1.419 1_554 S
C549 H553 0.930 . S
C550 C549 1.369 . S
C550 C559 1.429 . S
C551 C549 1.419 1_556 S
C551 C552 1.363 . S
C551 H554 0.929 . S
C552 C551 1.363 . S
C552 C558 1.428 1_556 S
H553 C549 0.930 . S
H554 C551 0.929 . S
S555 N556 1.613 1_565 S
S555 N557 1.610 1_565 S
N556 S555 1.613 1_545 S
N556 C559 1.350 . S
N557 S555 1.610 1_545 S
N557 C558 1.351 . S
C558 C552 1.428 1_554 S
C558 N557 1.351 . S
C558 C559 1.434 . S
C559 C550 1.429 . S
C559 N556 1.350 . S
C559 C558 1.434 . S
C560 C561 1.369 . S
C560 C562 1.419 . S
C560 H564 0.930 . S
C561 C560 1.369 . S
C561 C570 1.429 . S
C562 C560 1.419 . S
C562 C563 1.363 . S
C562 H565 0.929 . S
C563 C562 1.363 . S
C563 C569 1.428 . S
H564 C560 0.930 . S
H565 C562 0.929 . S
S566 N567 1.613 . S
S566 N568 1.610 . S
N567 S566 1.613 . S
N567 C570 1.350 . S
N568 S566 1.610 . S
N568 C569 1.351 . S
C569 C563 1.428 . S
C569 N568 1.351 . S
C569 C570 1.434 . S
C570 C561 1.429 . S
C570 N567 1.350 . S
C570 C569 1.434 . S
C571 C572 1.369 . S
C571 C573 1.419 1_554 S
C571 H575 0.930 . S
C572 C571 1.369 . S
C572 C581 1.429 1_554 S
C573 C571 1.419 1_556 S
C573 C574 1.363 . S
C573 H576 0.929 . S
C574 C573 1.363 . S
C574 C580 1.428 . S
H575 C571 0.930 . S
H576 C573 0.929 . S
S577 N578 1.613 . S
S577 N579 1.610 . S
N578 S577 1.613 . S
N578 C581 1.350 . S
N579 S577 1.610 . S
N579 C580 1.351 . S
C580 C574 1.428 . S
C580 N579 1.351 . S
C580 C581 1.434 . S
C581 C572 1.429 1_556 S
C581 N578 1.350 . S
C581 C580 1.434 . S
C582 C583 1.369 . S
C582 C584 1.419 . S
C582 H586 0.930 . S
C583 C582 1.369 . S
C583 C592 1.429 . S
C584 C582 1.419 . S
C584 C585 1.363 . S
C584 H587 0.929 . S
C585 C584 1.363 . S
C585 C591 1.428 . S
H586 C582 0.930 . S
H587 C584 0.929 . S
S588 N589 1.613 . S
S588 N590 1.610 . S
N589 S588 1.613 . S
N589 C592 1.350 . S
N590 S588 1.610 . S
N590 C591 1.351 . S
C591 C585 1.428 . S
C591 N590 1.351 . S
C591 C592 1.434 . S
C592 C583 1.429 . S
C592 N589 1.350 . S
C592 C591 1.434 . S
C593 C594 1.369 . S
C593 C595 1.419 . S
C593 H597 0.930 . S
C594 C593 1.369 . S
C594 C603 1.429 . S
C595 C593 1.419 . S
C595 C596 1.363 . S
C595 H598 0.929 . S
C596 C595 1.363 . S
C596 C602 1.428 . S
H597 C593 0.930 . S
H598 C595 0.929 . S
S599 N600 1.613 . S
S599 N601 1.610 . S
N600 S599 1.613 . S
N600 C603 1.350 . S
N601 S599 1.610 . S
N601 C602 1.351 . S
C602 C596 1.428 . S
C602 N601 1.351 . S
C602 C603 1.434 . S
C603 C594 1.429 . S
C603 N600 1.350 . S
C603 C602 1.434 . S
C604 C605 1.369 . S
C604 C606 1.419 . S
C604 H608 0.930 . S
C605 C604 1.369 . S
C605 C614 1.429 . S
C606 C604 1.419 . S
C606 C607 1.363 . S
C606 H609 0.929 . S
C607 C606 1.363 . S
C607 C613 1.428 . S
H608 C604 0.930 . S
H609 C606 0.929 . S
S610 N611 1.613 . S
S610 N612 1.610 . S
N611 S610 1.613 . S
N611 C614 1.350 . S
N612 S610 1.610 . S
N612 C613 1.351 . S
C613 C607 1.428 . S
C613 N612 1.351 . S
C613 C614 1.434 . S
C614 C605 1.429 . S
C614 N611 1.350 . S
C614 C613 1.434 . S
C615 C616 1.369 . S
C615 C617 1.419 1_545 S
C615 H619 0.930 . S
C616 C615 1.369 . S
C616 C625 1.429 . S
C617 C615 1.419 1_565 S
C617 C618 1.363 . S
C617 H620 0.929 . S
C618 C617 1.363 . S
C618 C624 1.428 1_565 S
H619 C615 0.930 . S
H620 C617 0.929 . S
S621 N622 1.613 . S
S621 N623 1.610 1_545 S
N622 S621 1.613 . S
N622 C625 1.350 . S
N623 S621 1.610 1_565 S
N623 C624 1.351 1_565 S
C624 C618 1.428 1_545 S
C624 N623 1.351 1_545 S
C624 C625 1.434 . S
C625 C616 1.429 . S
C625 N622 1.350 . S
C625 C624 1.434 . S
C626 C627 1.369 . S
C626 C628 1.419 . S
C626 H630 0.930 . S
C627 C626 1.369 . S
C627 C636 1.429 . S
C628 C626 1.419 . S
C628 C629 1.363 . S
C628 H631 0.929 . S
C629 C628 1.363 . S
C629 C635 1.428 . S
H630 C626 0.930 . S
H631 C628 0.929 . S
S632 N633 1.613 1_554 S
S632 N634 1.610 1_554 S
N633 S632 1.613 1_556 S
N633 C636 1.350 . S
N634 S632 1.610 1_556 S
N634 C635 1.351 . S
C635 C629 1.428 . S
C635 N634 1.351 . S
C635 C636 1.434 . S
C636 C627 1.429 . S
C636 N633 1.350 . S
C636 C635 1.434 . S
C637 C638 1.369 1_565 S
C637 C639 1.419 . S
C637 H641 0.930 . S
C638 C637 1.369 1_545 S
C638 C647 1.429 . S
C639 C637 1.419 . S
C639 C640 1.363 . S
C639 H642 0.929 . S
C640 C639 1.363 . S
C640 C646 1.428 . S
H641 C637 0.930 . S
H642 C639 0.929 . S
S643 N644 1.613 . S
S643 N645 1.610 . S
N644 S643 1.613 . S
N644 C647 1.350 . S
N645 S643 1.610 . S
N645 C646 1.351 1_545 S
C646 C640 1.428 . S
C646 N645 1.351 1_565 S
C646 C647 1.434 1_565 S
C647 C638 1.429 . S
C647 N644 1.350 . S
C647 C646 1.434 1_545 S
C648 C649 1.369 . S
C648 C650 1.419 . S
C648 H652 0.930 . S
C649 C648 1.369 . S
C649 C658 1.429 . S
C650 C648 1.419 . S
C650 C651 1.363 . S
C650 H653 0.929 . S
C651 C650 1.363 . S
C651 C657 1.428 . S
H652 C648 0.930 . S
H653 C650 0.929 . S
S654 N655 1.613 . S
S654 N656 1.610 . S
N655 S654 1.613 . S
N655 C658 1.350 . S
N656 S654 1.610 . S
N656 C657 1.351 . S
C657 C651 1.428 . S
C657 N656 1.351 . S
C657 C658 1.434 . S
C658 C649 1.429 . S
C658 N655 1.350 . S
C658 C657 1.434 . S
C659 C660 1.369 . S
C659 C661 1.419 . S
C659 H663 0.930 . S
C660 C659 1.369 . S
C660 C669 1.429 . S
C661 C659 1.419 . S
C661 C662 1.363 . S
C661 H664 0.929 . S
C662 C661 1.363 . S
C662 C668 1.428 . S
H663 C659 0.930 . S
H664 C661 0.929 . S
S665 N666 1.613 . S
S665 N667 1.610 . S
N666 S665 1.613 . S
N666 C669 1.350 . S
N667 S665 1.610 . S
N667 C668 1.351 . S
C668 C662 1.428 . S
C668 N667 1.351 . S
C668 C669 1.434 . S
C669 C660 1.429 . S
C669 N666 1.350 . S
C669 C668 1.434 . S
C670 C671 1.369 . S
C670 C672 1.419 . S
C670 H674 0.930 . S
C671 C670 1.369 . S
C671 C680 1.429 . S
C672 C670 1.419 . S
C672 C673 1.363 . S
C672 H675 0.929 . S
C673 C672 1.363 . S
C673 C679 1.428 . S
H674 C670 0.930 . S
H675 C672 0.929 . S
S676 N677 1.613 . S
S676 N678 1.610 . S
N677 S676 1.613 . S
N677 C680 1.350 . S
N678 S676 1.610 . S
N678 C679 1.351 . S
C679 C673 1.428 . S
C679 N678 1.351 . S
C679 C680 1.434 . S
C680 C671 1.429 . S
C680 N677 1.350 . S
C680 C679 1.434 . S
C681 C682 1.369 . S
C681 C683 1.419 . S
C681 H685 0.930 . S
C682 C681 1.369 . S
C682 C691 1.429 . S
C683 C681 1.419 . S
C683 C684 1.363 . S
C683 H686 0.929 . S
C684 C683 1.363 . S
C684 C690 1.428 . S
H685 C681 0.930 . S
H686 C683 0.929 . S
S687 N688 1.613 . S
S687 N689 1.610 . S
N688 S687 1.613 . S
N688 C691 1.350 . S
N689 S687 1.610 . S
N689 C690 1.351 . S
C690 C684 1.428 . S
C690 N689 1.351 . S
C690 C691 1.434 . S
C691 C682 1.429 . S
C691 N688 1.350 . S
C691 C690 1.434 . S
C692 C693 1.369 . S
C692 C694 1.419 . S
C692 H696 0.930 . S
C693 C692 1.369 . S
C693 C702 1.429 . S
C694 C692 1.419 . S
C694 C695 1.363 . S
C694 H697 0.929 . S
C695 C694 1.363 . S
C695 C701 1.428 . S
H696 C692 0.930 . S
H697 C694 0.929 . S
S698 N699 1.613 . S
S698 N700 1.610 . S
N699 S698 1.613 . S
N699 C702 1.350 . S
N700 S698 1.610 . S
N700 C701 1.351 . S
C701 C695 1.428 . S
C701 N700 1.351 . S
C701 C702 1.434 . S
C702 C693 1.429 . S
C702 N699 1.350 . S
C702 C701 1.434 . S
C703 C704 1.369 . S
C703 C705 1.419 . S
C703 H707 0.930 . S
C704 C703 1.369 . S
C704 C713 1.429 . S
C705 C703 1.419 . S
C705 C706 1.363 . S
C705 H708 0.929 . S
C706 C705 1.363 . S
C706 C712 1.428 . S
H707 C703 0.930 . S
H708 C705 0.929 . S
S709 N710 1.613 . S
S709 N711 1.610 . S
N710 S709 1.613 . S
N710 C713 1.350 . S
N711 S709 1.610 . S
N711 C712 1.351 . S
C712 C706 1.428 . S
C712 N711 1.351 . S
C712 C713 1.434 . S
C713 C704 1.429 . S
C713 N710 1.350 . S
C713 C712 1.434 . S
C714 C715 1.369 . S
C714 C716 1.419 . S
C714 H718 0.930 . S
C715 C714 1.369 . S
C715 C724 1.429 . S
C716 C714 1.419 . S
C716 C717 1.363 1_455 S
C716 H719 0.929 . S
C717 C716 1.363 1_655 S
C717 C723 1.428 . S
H718 C714 0.930 . S
H719 C716 0.929 . S
S720 N721 1.613 . S
S720 N722 1.610 . S
N721 S720 1.613 . S
N721 C724 1.350 1_655 S
N722 S720 1.610 . S
N722 C723 1.351 . S
C723 C717 1.428 . S
C723 N722 1.351 . S
C723 C724 1.434 1_655 S
C724 C715 1.429 . S
C724 N721 1.350 1_455 S
C724 C723 1.434 1_455 S
C725 C726 1.369 . S
C725 C727 1.419 . S
C725 H729 0.930 . S
C726 C725 1.369 . S
C726 C735 1.429 . S
C727 C725 1.419 . S
C727 C728 1.363 . S
C727 H730 0.929 . S
C728 C727 1.363 . S
C728 C734 1.428 . S
H729 C725 0.930 . S
H730 C727 0.929 . S
S731 N732 1.613 . S
S731 N733 1.610 . S
N732 S731 1.613 . S
N732 C735 1.350 . S
N733 S731 1.610 . S
N733 C734 1.351 . S
C734 C728 1.428 . S
C734 N733 1.351 . S
C734 C735 1.434 . S
C735 C726 1.429 . S
C735 N732 1.350 . S
C735 C734 1.434 . S
C736 C737 1.369 . S
C736 C738 1.419 . S
C736 H740 0.930 . S
C737 C736 1.369 . S
C737 C746 1.429 . S
C738 C736 1.419 . S
C738 C739 1.363 . S
C738 H741 0.929 . S
C739 C738 1.363 . S
C739 C745 1.428 . S
H740 C736 0.930 . S
H741 C738 0.929 . S
S742 N743 1.613 . S
S742 N744 1.610 . S
N743 S742 1.613 . S
N743 C746 1.350 . S
N744 S742 1.610 . S
N744 C745 1.351 . S
C745 C739 1.428 . S
C745 N744 1.351 . S
C745 C746 1.434 . S
C746 C737 1.429 . S
C746 N743 1.350 . S
C746 C745 1.434 . S
C747 C748 1.369 . S
C747 C749 1.419 . S
C747 H751 0.930 . S
C748 C747 1.369 . S
C748 C757 1.429 . S
C749 C747 1.419 . S
C749 C750 1.363 . S
C749 H752 0.929 . S
C750 C749 1.363 . S
C750 C756 1.428 . S
H751 C747 0.930 . S
H752 C749 0.929 . S
S753 N754 1.613 1_655 S
S753 N755 1.610 1_655 S
N754 S753 1.613 1_455 S
N754 C757 1.350 . S
N755 S753 1.610 1_455 S
N755 C756 1.351 . S
C756 C750 1.428 . S
C756 N755 1.351 . S
C756 C757 1.434 . S
C757 C748 1.429 . S
C757 N754 1.350 . S
C757 C756 1.434 . S
C758 C759 1.369 . S
C758 C760 1.419 . S
C758 H762 0.930 . S
C759 C758 1.369 . S
C759 C768 1.429 . S
C760 C758 1.419 . S
C760 C761 1.363 . S
C760 H763 0.929 . S
C761 C760 1.363 . S
C761 C767 1.428 . S
H762 C758 0.930 . S
H763 C760 0.929 . S
S764 N765 1.613 . S
S764 N766 1.610 . S
N765 S764 1.613 . S
N765 C768 1.350 . S
N766 S764 1.610 . S
N766 C767 1.351 . S
C767 C761 1.428 . S
C767 N766 1.351 . S
C767 C768 1.434 . S
C768 C759 1.429 . S
C768 N765 1.350 . S
C768 C767 1.434 . S
C769 C770 1.369 . S
C769 C771 1.419 . S
C769 H773 0.930 . S
C770 C769 1.369 . S
C770 C779 1.429 . S
C771 C769 1.419 . S
C771 C772 1.363 1_655 S
C771 H774 0.929 . S
C772 C771 1.363 1_455 S
C772 C778 1.428 . S
H773 C769 0.930 . S
H774 C771 0.929 . S
S775 N776 1.613 . S
S775 N777 1.610 . S
N776 S775 1.613 . S
N776 C779 1.350 1_455 S
N777 S775 1.610 . S
N777 C778 1.351 . S
C778 C772 1.428 . S
C778 N777 1.351 . S
C778 C779 1.434 1_455 S
C779 C770 1.429 . S
C779 N776 1.350 1_655 S
C779 C778 1.434 1_655 S
C385 C4 1.536 . S
C387 C356 1.529 . S
C396 C292 1.539 . S
C398 C36 1.536 . S
C407 C93 1.528 . S
C409 C260 1.539 . S
C418 C100 1.541 . S
C420 C324 1.530 . S
C429 C132 1.527 . S
C431 C349 1.537 . S
C440 C189 1.528 . S
C442 C381 1.533 . S
C451 C317 1.541 . S
C453 C196 1.532 . S
C462 C253 1.539 . S
C464 C285 1.536 . S
C473 C125 1.527 . S
C475 C157 1.538 . S
C484 C29 1.533 . S
C486 C164 1.539 . S
C495 C61 1.530 . S
C497 C221 1.531 . S
C506 C228 1.539 . S
C508 C68 1.535 . S
C517 N18 1.414 . S
C519 C262 1.415 . S
C528 N50 1.411 . S
C530 C326 1.416 . S
C539 C358 1.415 . S
C541 N77 1.414 . S
C550 N114 1.412 . S
C552 C294 1.417 . S
C561 N146 1.410 . S
C563 C290 1.417 . S
C572 C258 1.415 . S
C574 N173 1.413 . S
C583 C322 1.417 . S
C585 N210 1.411 . S
C594 C354 1.415 . S
C596 N237 1.412 . S
C605 C2 1.415 . S
C607 N109 1.413 . S
C616 N13 1.414 . S
C618 C34 1.415 . S
C627 N45 1.414 . S
C629 C70 1.415 . S
C638 C98 1.416 . S
C640 N82 1.411 . S
C649 N178 1.410 . S
C651 C130 1.416 . S
C660 C166 1.417 . S
C662 N205 1.410 . S
C671 C194 1.414 . S
C673 N242 1.414 . S
C682 N141 1.412 . S
C684 C230 1.415 . S
C693 N269 1.412 . S
C695 C102 1.415 . S
C704 C162 1.414 . S
C706 N306 1.413 . S
C715 N274 1.410 . S
C717 C198 1.416 . S
C726 N338 1.413 . S
C728 C226 1.416 . S
C737 C134 1.415 . S
C739 N370 1.412 . S
C748 N365 1.414 . S
C750 C38 1.415 . S
C759 C66 1.417 . S
C761 N301 1.410 . S
C770 N333 1.410 . S
C772 C6 1.416 . S
