# Generated by pormake.
# Topology smk, (6)-cn, num edge types: 1
# Building blocks:
#     Node 0, Type 0, BuildingBlock: FUNLAD_clean_sbu_0, # of connection points: 6
#     Node 1, Type 0, BuildingBlock: FUNLAD_clean_sbu_0, # of connection points: 6
#     Node 2, Type 0, BuildingBlock: FUNLAD_clean_sbu_0, # of connection points: 6
#     Node 3, Type 0, BuildingBlock: FUNLAD_clean_sbu_0, # of connection points: 6
#     Node 4, Type 0, BuildingBlock: FUNLAD_clean_sbu_0, # of connection points: 6
#     Node 5, Type 0, BuildingBlock: FUNLAD_clean_sbu_0, # of connection points: 6
#     Edge 6, Type (0, 0), BuildingBlock: ZUJKAS_clean_linker_0, # of connection points: 2
#     Edge 7, Type (0, 0), BuildingBlock: ZUJKAS_clean_linker_0, # of connection points: 2
#     Edge 8, Type (0, 0), BuildingBlock: ZUJKAS_clean_linker_0, # of connection points: 2
#     Edge 9, Type (0, 0), BuildingBlock: ZUJKAS_clean_linker_0, # of connection points: 2
#     Edge 10, Type (0, 0), BuildingBlock: ZUJKAS_clean_linker_0, # of connection points: 2
#     Edge 11, Type (0, 0), BuildingBlock: ZUJKAS_clean_linker_0, # of connection points: 2
#     Edge 12, Type (0, 0), BuildingBlock: ZUJKAS_clean_linker_0, # of connection points: 2
#     Edge 13, Type (0, 0), BuildingBlock: ZUJKAS_clean_linker_0, # of connection points: 2
#     Edge 14, Type (0, 0), BuildingBlock: ZUJKAS_clean_linker_0, # of connection points: 2
#     Edge 15, Type (0, 0), BuildingBlock: ZUJKAS_clean_linker_0, # of connection points: 2
#     Edge 16, Type (0, 0), BuildingBlock: ZUJKAS_clean_linker_0, # of connection points: 2
#     Edge 17, Type (0, 0), BuildingBlock: ZUJKAS_clean_linker_0, # of connection points: 2
#     Edge 18, Type (0, 0), BuildingBlock: ZUJKAS_clean_linker_0, # of connection points: 2
#     Edge 19, Type (0, 0), BuildingBlock: ZUJKAS_clean_linker_0, # of connection points: 2
#     Edge 20, Type (0, 0), BuildingBlock: ZUJKAS_clean_linker_0, # of connection points: 2
#     Edge 21, Type (0, 0), BuildingBlock: ZUJKAS_clean_linker_0, # of connection points: 2
#     Edge 22, Type (0, 0), BuildingBlock: ZUJKAS_clean_linker_0, # of connection points: 2
#     Edge 23, Type (0, 0), BuildingBlock: ZUJKAS_clean_linker_0, # of connection points: 2
# Relax obj value: 0.390
# Max RMSD: 0.246
# Mean RMSD: 0.246
data_MOF--net-smk--node1-FUNLAD_clean_sbu_0--edge1-ZUJKAS_clean_linker_0
_symmetry_space_group_name_H-M    P1
_symmetry_Int_Tables_number       1
_symmetry_cell_setting            triclinic
loop_
_symmetry_equiv_pos_as_xyz
'x, y, z'
_cell_length_a     59.550473
_cell_length_b     59.640106
_cell_length_c     19.306353
_cell_angle_alpha  89.174812
_cell_angle_beta   89.651541
_cell_angle_gamma 119.89096
loop_
_atom_site_label
_atom_site_type_symbol
_atom_site_fract_x
_atom_site_fract_y
_atom_site_fract_z
_atom_type_partial_charge
C0 C 0.5006 0.29454 0.42579 0.0
N1 N 0.5392 0.35501 0.55846 0.0
C2 C 0.56147 0.36243 0.59378 0.0
C3 C 0.58355 0.38636 0.57897 0.0
C4 C 0.58261 0.40303 0.52815 0.0
C5 C 0.55873 0.39563 0.49688 0.0
C6 C 0.53742 0.37137 0.51181 0.0
Zn7 Zn 0.50921 0.31728 0.56245 0.0
C8 C 0.458 0.31422 0.53733 0.0
N9 N 0.44667 0.23892 0.56011 0.0
C10 C 0.45207 0.2228 0.52343 0.0
C11 C 0.42244 0.23066 0.58644 0.0
C12 C 0.40237 0.20543 0.57438 0.0
C13 C 0.40747 0.18898 0.53443 0.0
C14 C 0.43265 0.19772 0.50966 0.0
Zn15 Zn 0.47593 0.2767 0.56409 0.0
O16 O 0.5149 0.31528 0.45719 0.0
C17 C 0.52685 0.27981 0.5952 0.0
O18 O 0.48268 0.27537 0.45863 0.0
H19 H 0.41852 0.24383 0.61504 0.0
H20 H 0.56262 0.34929 0.63081 0.0
H21 H 0.47135 0.22966 0.50267 0.0
O22 O 0.53537 0.3038 0.58431 0.0
O23 O 0.50275 0.26405 0.58938 0.0
H24 H 0.51986 0.36522 0.48311 0.0
O25 O 0.46987 0.27896 0.66903 0.0
O26 O 0.50309 0.31879 0.66785 0.0
O27 O 0.44942 0.28998 0.54172 0.0
O28 O 0.48215 0.32968 0.54287 0.0
C29 C 0.48471 0.29971 0.70043 0.0
H30 H 0.60146 0.39097 0.60438 0.0
H31 H 0.55667 0.40799 0.4589 0.0
H32 H 0.38302 0.19911 0.59416 0.0
H33 H 0.43715 0.18538 0.47884 0.0
C34 C 0.30224 0.47205 0.84518 0.0
N35 N 0.35615 0.52861 0.71433 0.0
C36 C 0.35855 0.54462 0.76682 0.0
C37 C 0.38241 0.56595 0.78148 0.0
C38 C 0.40444 0.5711 0.74234 0.0
C39 C 0.40149 0.55477 0.68701 0.0
C40 C 0.37699 0.53339 0.67398 0.0
Zn41 Zn 0.31986 0.49639 0.70719 0.0
C42 C 0.32097 0.44778 0.68274 0.0
N43 N 0.24296 0.43048 0.70926 0.0
C44 C 0.22771 0.42973 0.76308 0.0
C45 C 0.23381 0.41141 0.66158 0.0
C46 C 0.20839 0.3905 0.66759 0.0
C47 C 0.19257 0.38916 0.72372 0.0
C48 C 0.20255 0.40921 0.77148 0.0
Zn49 Zn 0.27992 0.46181 0.70721 0.0
O50 O 0.32095 0.49051 0.81261 0.0
C51 C 0.27867 0.51074 0.72405 0.0
O52 O 0.28186 0.45687 0.81339 0.0
H53 H 0.24621 0.41239 0.61906 0.0
H54 H 0.34196 0.54058 0.79884 0.0
H55 H 0.23506 0.44516 0.8 0.0
O56 O 0.30304 0.52007 0.72239 0.0
O57 O 0.26399 0.48639 0.72161 0.0
H58 H 0.37476 0.52038 0.63273 0.0
O59 O 0.27896 0.46737 0.6015 0.0
O60 O 0.31826 0.50151 0.60155 0.0
O61 O 0.29652 0.43793 0.68939 0.0
O62 O 0.33564 0.47209 0.68887 0.0
C63 C 0.29793 0.48602 0.56938 0.0
H64 H 0.38357 0.57828 0.82358 0.0
H65 H 0.418 0.55806 0.65549 0.0
H66 H 0.20131 0.37542 0.62948 0.0
H67 H 0.19083 0.40926 0.81458 0.0
C68 C 0.82346 0.25489 0.79635 0.0
N69 N 0.76441 0.23895 0.93485 0.0
C70 C 0.7635 0.25973 0.90804 0.0
C71 C 0.73987 0.25848 0.89629 0.0
C72 C 0.71671 0.23545 0.91061 0.0
C73 C 0.71798 0.21433 0.93941 0.0
C74 C 0.74221 0.21659 0.95179 0.0
Zn75 Zn 0.80046 0.24191 0.93528 0.0
C76 C 0.79787 0.19133 0.91034 0.0
N77 N 0.87652 0.25059 0.92455 0.0
C78 C 0.89323 0.27155 0.88522 0.0
C79 C 0.88381 0.23384 0.95057 0.0
C80 C 0.90863 0.23769 0.93559 0.0
C81 C 0.92566 0.25865 0.89259 0.0
C82 C 0.9178 0.27586 0.86836 0.0
Zn83 Zn 0.83978 0.24558 0.93335 0.0
O84 O 0.80347 0.2509 0.82999 0.0
C85 C 0.84217 0.2956 0.96575 0.0
O86 O 0.8414 0.25345 0.82724 0.0
H87 H 0.87023 0.21724 -0.01849 0.0
H88 H 0.7811 0.27706 0.89241 0.0
H89 H 0.88731 0.28476 0.865 0.0
O90 O 0.81782 0.28162 0.95978 0.0
O91 O 0.85638 0.28563 0.95563 0.0
H92 H 0.74322 0.20017 -0.02759 0.0
O93 O 0.8371 0.2374 0.03902 0.0
O94 O 0.79795 0.23284 0.04047 0.0
O95 O 0.82241 0.20518 0.91456 0.0
O96 O 0.78406 0.20209 0.91379 0.0
C97 C 0.81645 0.23235 0.07182 0.0
H98 H 0.73977 0.27502 0.87268 0.0
H99 H 0.70047 0.1962 0.95099 0.0
H100 H 0.91415 0.22407 0.9554 0.0
H101 H 0.93054 0.29248 0.83604 0.0
C102 C 0.62719 0.85364 0.16003 0.0
N103 N 0.57977 0.86904 0.03824 0.0
C104 C 0.55936 0.84829 0.07004 0.0
C105 C 0.53767 0.84952 0.09175 0.0
C106 C 0.53701 0.87252 0.08226 0.0
C107 C 0.55795 0.89353 0.04787 0.0
C108 C 0.57919 0.89129 0.02559 0.0
Zn109 Zn 0.613 0.86678 0.02512 0.0
C110 C 0.66094 0.91745 0.0444 0.0
N111 N 0.68125 0.85967 0.0149 0.0
C112 C 0.68283 0.84273 -0.02854 0.0
C113 C 0.69971 0.87236 0.06314 0.0
C114 C 0.72003 0.86729 0.07141 0.0
C115 C 0.72131 0.84868 0.03038 0.0
C116 C 0.70274 0.83687 -0.02155 0.0
Zn117 Zn 0.64852 0.86297 0.01915 0.0
O118 O 0.61085 0.85802 0.13022 0.0
C119 C 0.60054 0.81284 -0.00716 0.0
O120 O 0.6458 0.85465 0.12533 0.0
H121 H 0.69806 0.8856 0.09766 0.0
H122 H 0.56032 0.83105 0.08208 0.0
H123 H 0.66795 0.83276 0.93355 0.0
O124 O 0.59056 0.82704 0.00267 0.0
O125 O 0.62491 0.8226 -0.00184 0.0
H126 H 0.59562 0.90769 0.00086 0.0
O127 O 0.65058 0.87138 0.91383 0.0
O128 O 0.61575 0.87546 0.91943 0.0
O129 O 0.6714 0.9035 0.03692 0.0
O130 O 0.63638 0.90677 0.0447 0.0
C131 C 0.63425 0.87608 0.8845 0.0
H132 H 0.52215 0.83304 0.11916 0.0
H133 H 0.55809 0.9116 0.03958 0.0
H134 H 0.73415 0.87731 0.11114 0.0
H135 H 0.70272 0.82223 0.94588 0.0
C136 C 0.87155 0.62322 0.09078 0.0
N137 N 0.89231 0.58303 0.22597 0.0
C138 C 0.87334 0.56191 0.19416 0.0
C139 C 0.87643 0.54083 0.18018 0.0
C140 C 0.89934 0.54124 0.19872 0.0
C141 C 0.91825 0.56266 0.23444 0.0
C142 C 0.91438 0.58363 0.24729 0.0
Zn143 Zn 0.88642 0.61418 0.22856 0.0
C144 C 0.93442 0.66419 0.1981 0.0
N145 N 0.8705 0.67693 0.22097 0.0
C146 C 0.84918 0.6716 0.18342 0.0
C147 C 0.88546 0.70073 0.24849 0.0
C148 C 0.87935 0.7204 0.23707 0.0
C149 C 0.858 0.71544 0.19604 0.0
C150 C 0.8427 0.69061 0.16997 0.0
Zn151 Zn 0.87872 0.64727 0.22659 0.0
O152 O 0.87732 0.60845 0.12418 0.0
C153 C 0.83134 0.59708 0.26364 0.0
O154 O 0.8712 0.64167 0.12128 0.0
H155 H 0.90233 0.7046 0.27812 0.0
H156 H 0.85602 0.5617 0.17689 0.0
H157 H 0.83734 0.65261 0.1623 0.0
O158 O 0.84746 0.5892 0.25724 0.0
O159 O 0.83883 0.62081 0.25176 0.0
H160 H 0.92932 0.60065 0.27206 0.0
O161 O 0.88667 0.65235 0.33144 0.0
O162 O 0.89551 0.62053 0.33259 0.0
O163 O 0.91897 0.67306 0.20434 0.0
O164 O 0.92551 0.63989 0.20266 0.0
C165 C 0.89379 0.63827 0.36381 0.0
H166 H 0.86118 0.5245 0.15366 0.0
H167 H 0.93618 0.56362 0.24962 0.0
H168 H 0.89153 0.73938 0.2582 0.0
H169 H 0.82585 0.68595 0.13905 0.0
C170 C 0.24539 0.81324 0.52864 0.0
N171 N 0.24475 0.75612 0.41063 0.0
C172 C 0.25833 0.75404 0.46439 0.0
C173 C 0.25427 0.73005 0.48668 0.0
C174 C 0.23585 0.70758 0.45408 0.0
C175 C 0.22256 0.7101 0.39713 0.0
C176 C 0.22725 0.73477 0.3763 0.0
Zn177 Zn 0.25077 0.79292 0.3941 0.0
C178 C 0.2021 0.7942 0.36665 0.0
N179 N 0.26557 0.87101 0.38051 0.0
C180 C 0.28114 0.88647 0.43117 0.0
C181 C 0.257 0.88071 0.32931 0.0
C182 C 0.2645 0.90709 0.32758 0.0
C183 C 0.28102 0.92345 0.3788 0.0
C184 C 0.28896 0.91263 0.4315 0.0
Zn185 Zn 0.25764 0.83334 0.3874 0.0
O186 O 0.24453 0.79399 0.49945 0.0
C187 C 0.3068 0.83219 0.40678 0.0
O188 O 0.25089 0.83339 0.49331 0.0
H189 H 0.24468 0.86811 0.28942 0.0
H190 H 0.27193 0.77103 0.49186 0.0
H191 H 0.28786 0.87859 0.47147 0.0
O192 O 0.29117 0.80799 0.4075 0.0
O193 O 0.29781 0.84748 0.40225 0.0
H194 H 0.21648 0.73677 0.33407 0.0
O195 O 0.26405 0.8324 0.2821 0.0
O196 O 0.25676 0.79232 0.28854 0.0
O197 O 0.21745 0.81854 0.36927 0.0
O198 O 0.21086 0.77883 0.37694 0.0
C199 C 0.26262 0.81271 0.25317 0.0
H200 H 0.26539 0.72914 0.52971 0.0
H201 H 0.2082 0.6932 0.37051 0.0
H202 H 0.25797 0.91469 0.28591 0.0
H203 H 0.3012 0.92431 0.47293 0.0
H204 H 0.47397 0.2528 0.34431 0.0
H205 H 0.47273 0.25306 0.21798 0.0
H206 H 0.5311 0.33391 0.21201 0.0
H207 H 0.53275 0.33388 0.33816 0.0
H208 H 0.45853 0.28717 0.15213 0.0
H209 H 0.55326 0.3018 0.05621 0.0
H210 H 0.5407 0.28936 0.14225 0.0
H211 H 0.55525 0.32337 0.12302 0.0
C212 C 0.48697 0.27048 0.31604 0.0
C213 C 0.50318 0.29343 0.35076 0.0
C214 C 0.48626 0.27055 0.24415 0.0
C215 C 0.50185 0.29347 0.20651 0.0
C216 C 0.51923 0.31599 0.24069 0.0
H217 H 0.51164 0.34144 0.78175 0.0
H218 H 0.51284 0.34127 0.90804 0.0
C219 C 0.52002 0.31595 0.3126 0.0
C220 C 0.49744 0.2948 0.13264 0.0
H221 H 0.52674 0.30728 -0.02587 0.0
C222 C 0.47332 0.29138 0.11292 0.0
C223 C 0.517 0.30059 0.08265 0.0
C224 C 0.54296 0.3038 0.10182 0.0
C225 C 0.46827 0.29388 0.04361 0.0
C226 C 0.48782 0.29965 -0.0064 0.0
C227 C 0.51195 0.30308 0.01333 0.0
C228 C 0.48342 0.30097 0.91971 0.0
C229 C 0.44233 0.29072 0.02449 0.0
C230 C 0.46588 0.27851 0.88563 0.0
C231 C 0.4651 0.2785 0.81372 0.0
C232 C 0.48212 0.3009 0.77544 0.0
C233 C 0.4985 0.32383 0.81007 0.0
C234 C 0.49919 0.32382 0.88196 0.0
H235 H 0.43213 0.2929 0.07006 0.0
H236 H 0.44458 0.30508 -0.01622 0.0
H237 H 0.42995 0.2711 0.00371 0.0
H238 H 0.45387 0.26064 0.91439 0.0
H239 H 0.45223 0.26059 0.78825 0.0
H240 H 0.33718 0.51886 0.48265 0.0
H241 H 0.33753 0.51739 0.35651 0.0
H242 H 0.25723 0.45729 0.36077 0.0
H243 H 0.25665 0.45832 0.48697 0.0
H244 H 0.29298 0.44491 0.29619 0.0
H245 H 0.30358 0.53823 0.20051 0.0
H246 H 0.32536 0.54076 0.26795 0.0
H247 H 0.29119 0.52507 0.28617 0.0
C248 C 0.31944 0.50574 0.45668 0.0
C249 C 0.297 0.4884 0.49428 0.0
C250 C 0.31965 0.50506 0.38484 0.0
C251 C 0.29739 0.48728 0.35031 0.0
C252 C 0.27452 0.47111 0.38732 0.0
H253 H 0.26353 0.43914 0.93317 0.0
H254 H 0.2643 0.44011 0.05948 0.0
C255 C 0.27428 0.4717 0.45911 0.0
C256 C 0.29894 0.48322 0.27666 0.0
H257 H 0.30959 0.51246 0.11823 0.0
C258 C 0.29646 0.45955 0.25697 0.0
C259 C 0.30376 0.50261 0.22678 0.0
C260 C 0.30594 0.52805 0.24611 0.0
C261 C 0.29885 0.45477 0.18761 0.0
C262 C 0.30358 0.47414 0.13773 0.0
C263 C 0.30616 0.49784 0.15745 0.0
C264 C 0.30461 0.46994 0.06395 0.0
C265 C 0.29659 0.42932 0.16817 0.0
C266 C 0.32721 0.48609 0.02592 0.0
C267 C 0.3268 0.48579 0.95412 0.0
C268 C 0.3037 0.46941 0.91998 0.0
C269 C 0.28154 0.45202 0.95842 0.0
C270 C 0.28197 0.4524 0.03031 0.0
H271 H 0.29906 0.41917 0.21366 0.0
H272 H 0.27711 0.41661 0.14668 0.0
H273 H 0.31123 0.43227 0.1278 0.0
H274 H 0.34476 0.49976 0.05177 0.0
H275 H 0.34423 0.49919 0.92554 0.0
H276 H 0.85429 0.23582 0.15705 0.0
H277 H 0.85416 0.23746 0.28319 0.0
H278 H 0.77517 0.22178 0.28261 0.0
H279 H 0.77509 0.22032 0.15639 0.0
H280 H 0.81201 0.26889 0.34473 0.0
H281 H 0.81815 0.18406 0.44323 0.0
H282 H 0.84059 0.2023 0.37424 0.0
H283 H 0.80643 0.1853 0.35795 0.0
C284 C 0.83668 0.23209 0.18381 0.0
C285 C 0.81484 0.22838 0.14708 0.0
C286 C 0.83661 0.23288 0.25574 0.0
C287 C 0.81464 0.22969 0.29142 0.0
C288 C 0.79224 0.22424 0.25532 0.0
H289 H 0.78551 0.25172 0.71223 0.0
H290 H 0.78495 0.24941 0.58617 0.0
C291 C 0.79228 0.22348 0.18343 0.0
C292 C 0.81629 0.23557 0.36506 0.0
H293 H 0.8264 0.21701 0.52358 0.0
C294 C 0.81496 0.25749 0.38414 0.0
C295 C 0.82039 0.2207 0.41534 0.0
C296 C 0.82128 0.19664 0.39697 0.0
C297 C 0.81801 0.26521 0.45298 0.0
C298 C 0.82216 0.25036 0.50327 0.0
C299 C 0.82342 0.2284 0.4842 0.0
C300 C 0.82419 0.25647 0.57682 0.0
C301 C 0.8172 0.28932 0.47125 0.0
C302 C 0.84667 0.26171 0.61228 0.0
C303 C 0.84701 0.26283 0.68412 0.0
C304 C 0.82477 0.25853 0.72105 0.0
C305 C 0.80288 0.25502 0.68495 0.0
C306 C 0.80255 0.25383 0.61308 0.0
H307 H 0.82039 0.3019 0.42494 0.0
H308 H 0.79789 0.28372 0.49386 0.0
H309 H 0.83205 0.30064 0.51029 0.0
H310 H 0.86349 0.26376 0.58456 0.0
H311 H 0.86422 0.26581 0.71073 0.0
H312 H 0.66383 0.85369 0.24403 0.0
H313 H 0.66436 0.85548 0.37052 0.0
H314 H 0.58835 0.84772 0.3716 0.0
H315 H 0.58745 0.84564 0.24568 0.0
H316 H 0.66012 0.8964 0.4331 0.0
H317 H 0.58498 0.79934 0.53143 0.0
H318 H 0.59967 0.80457 0.4462 0.0
H319 H 0.5747 0.81249 0.46229 0.0
C320 C 0.64696 0.85166 0.27138 0.0
C321 C 0.62574 0.84988 0.23532 0.0
C322 C 0.64732 0.8527 0.34334 0.0
C323 C 0.62637 0.85165 0.37963 0.0
C324 C 0.6045 0.84819 0.3441 0.0
H325 H 0.59769 0.87653 0.80111 0.0
H326 H 0.59697 0.8749 0.67462 0.0
C327 C 0.60413 0.84721 0.27228 0.0
C328 C 0.62868 0.85766 0.45328 0.0
H329 H 0.60089 0.8337 0.6114 0.0
C330 C 0.64736 0.88269 0.47238 0.0
C331 C 0.61167 0.83972 0.50341 0.0
C332 C 0.59174 0.81244 0.48509 0.0
C333 C 0.64934 0.89039 0.54107 0.0
C334 C 0.63235 0.87243 0.59121 0.0
C335 C 0.61364 0.84742 0.5721 0.0
C336 C 0.6348 0.87838 0.66489 0.0
C337 C 0.66928 0.91765 0.55945 0.0
C338 C 0.65664 0.88158 0.70007 0.0
C339 C 0.6571 0.88243 0.7719 0.0
C340 C 0.63563 0.87993 0.80923 0.0
C341 C 0.61446 0.87842 0.77351 0.0
C342 C 0.61399 0.87748 0.70153 0.0
H343 H 0.67607 0.93076 0.51314 0.0
H344 H 0.66135 0.92552 0.59833 0.0
H345 H 0.68629 0.91758 0.58231 0.0
H346 H 0.67268 0.88194 0.67227 0.0
H347 H 0.67375 0.8838 0.7982 0.0
H348 H 0.90538 0.60904 0.44988 0.0
H349 H 0.90253 0.60742 0.57614 0.0
H350 H 0.88757 0.67114 0.57311 0.0
H351 H 0.89016 0.6729 0.44672 0.0
H352 H 0.92747 0.64696 0.68328 0.0
H353 H 0.82104 0.60623 0.6578 0.0
H354 H 0.84153 0.60767 0.58656 0.0
H355 H 0.84137 0.63637 0.61251 0.0
C356 C 0.90199 0.62305 0.47607 0.0
C357 C 0.89738 0.6407 0.43871 0.0
C358 C 0.90043 0.6221 0.54795 0.0
C359 C 0.89431 0.63881 0.58276 0.0
C360 C 0.8919 0.65789 0.5462 0.0
H361 H 0.86081 0.65284 0.00384 0.0
H362 H 0.86345 0.6539 0.87753 0.0
C363 C 0.89342 0.65885 0.4743 0.0
C364 C 0.88801 0.63459 0.65659 0.0
H365 H 0.83753 0.61337 0.77137 0.0
C366 C 0.90787 0.6396 0.70284 0.0
C367 C 0.86229 0.62478 0.68073 0.0
C368 C 0.84023 0.61822 0.63194 0.0
C369 C 0.90269 0.63548 0.77388 0.0
C370 C 0.87699 0.62576 0.79804 0.0
C371 C 0.85712 0.62069 0.75178 0.0
C372 C 0.87077 0.6219 0.87192 0.0
C373 C 0.92473 0.64198 0.82272 0.0
C374 C 0.87279 0.60269 0.90906 0.0
C375 C 0.87138 0.60204 -0.01903 0.0
C376 C 0.86796 0.62064 0.01594 0.0
C377 C 0.8638 0.63849 -0.02194 0.0
C378 C 0.86522 0.63911 0.90618 0.0
H379 H 0.94394 0.65359 0.79664 0.0
H380 H 0.92366 0.65291 0.86749 0.0
H381 H 0.92328 0.6238 0.8431 0.0
H382 H 0.87674 0.5891 0.88258 0.0
H383 H 0.87431 0.58786 0.00901 0.0
H384 H 0.25217 0.77198 0.17097 0.0
H385 H 0.2512 0.77193 0.04438 0.0
H386 H 0.27917 0.85405 0.04041 0.0
H387 H 0.28048 0.85445 0.16636 0.0
H388 H 0.21884 0.78849 -0.02154 0.0
H389 H 0.32112 0.84391 0.88512 0.0
H390 H 0.31209 0.82894 -0.02959 0.0
H391 H 0.313 0.85906 0.95298 0.0
C392 C 0.25872 0.79012 0.14301 0.0
C393 C 0.26604 0.81316 0.17813 0.0
C394 C 0.25817 0.79003 0.07103 0.0
C395 C 0.26522 0.813 0.03396 0.0
C396 C 0.27404 0.83627 0.06866 0.0
H397 H 0.2551 0.85361 0.61141 0.0
H398 H 0.25579 0.85334 0.73809 0.0
C399 C 0.27455 0.83638 0.14046 0.0
C400 C 0.25999 0.81221 0.96009 0.0
H401 H 0.28859 0.83673 0.80324 0.0
C402 C 0.23404 0.79881 0.93982 0.0
C403 C 0.27998 0.82605 0.91092 0.0
C404 C 0.30815 0.84015 0.9307 0.0
C405 C 0.22746 0.79915 0.87075 0.0
C406 C 0.24745 0.81304 0.82163 0.0
C407 C 0.2734 0.82641 0.84188 0.0
C408 C 0.24223 0.81235 0.74779 0.0
C409 C 0.19931 0.78498 0.85088 0.0
C410 C 0.23376 0.78922 0.71269 0.0
C411 C 0.23345 0.78929 0.64088 0.0
C412 C 0.24176 0.81257 0.60362 0.0
C413 C 0.24869 0.83544 0.63911 0.0
C414 C 0.24908 0.83534 0.71111 0.0
H415 H 0.18627 0.7809 0.89651 0.0
H416 H 0.1953 0.79632 0.81173 0.0
H417 H 0.1946 0.76624 0.82776 0.0
H418 H 0.2288 0.77142 0.74066 0.0
H419 H 0.22783 0.77135 0.61464 0.0
H420 H 0.38624 0.14519 0.61458 0.0
H421 H 0.35843 0.10073 0.57552 0.0
H422 H 0.355 0.1301 0.37259 0.0
H423 H 0.3835 0.17443 0.41117 0.0
H424 H 0.3102 0.07278 0.51866 0.0
H425 H 0.38683 0.08566 0.33013 0.0
H426 H 0.39226 0.1091 0.3953 0.0
H427 H 0.37507 0.10788 0.31787 0.0
C428 C 0.37903 0.14203 0.56218 0.0
C429 C 0.38683 0.16296 0.51571 0.0
C430 C 0.36322 0.11673 0.53981 0.0
C431 C 0.35507 0.11208 0.4707 0.0
C432 C 0.36152 0.13319 0.42564 0.0
H433 H 0.25391 0.94883 0.35151 0.0
H434 H 0.26944 0.99525 0.36326 0.0
C435 C 0.37755 0.15845 0.44777 0.0
C436 C 0.3416 0.08522 0.44491 0.0
H437 H 0.34876 0.04518 0.33349 0.0
C438 C 0.31846 0.06673 0.47776 0.0
C439 C 0.35259 0.07736 0.39189 0.0
C440 C 0.37816 0.09594 0.35709 0.0
C441 C 0.30642 0.04046 0.46051 0.0
C442 C 0.31753 0.03261 0.40783 0.0
C443 C 0.34015 0.05127 0.37338 0.0
C444 C 0.30812 1.00492 0.39388 0.0
C445 C 0.28271 0.02122 0.50136 0.0
C446 C 0.32502 0.99519 0.40362 0.0
C447 C 0.3164 0.96897 0.39567 0.0
C448 C 0.29056 0.95172 0.37828 0.0
C449 C 0.27389 0.96162 0.36517 0.0
C450 C 0.28264 0.98806 0.37275 0.0
H451 H 0.27974 0.02974 0.54894 0.0
H452 H 0.26534 1.01468 0.46877 0.0
H453 H 0.2842 1.00399 0.51656 0.0
H454 H 0.34482 1.00781 0.41928 0.0
H455 H 0.32992 0.96211 0.40452 0.0
H456 H 0.47074 0.36481 0.52449 0.0
H457 H 0.44222 0.38283 0.53856 0.0
H458 H 0.3762 0.30589 0.557 0.0
H459 H 0.40479 0.28754 0.54433 0.0
H460 H 0.39946 0.3777 0.46848 0.0
H461 H 0.37319 0.33872 0.73865 0.0
H462 H 0.39929 0.33872 0.69071 0.0
H463 H 0.36625 0.31519 0.67298 0.0
C464 C 0.45012 0.35163 0.53069 0.0
C465 C 0.44009 0.32471 0.53412 0.0
C466 C 0.43383 0.362 0.53868 0.0
C467 C 0.40717 0.34573 0.55033 0.0
C468 C 0.39681 0.3188 0.54961 0.0
H469 H 0.29584 0.39503 0.67012 0.0
H470 H 0.31452 0.36845 0.6341 0.0
C471 C 0.41315 0.30835 0.54175 0.0
C472 C 0.39076 0.3573 0.56667 0.0
H473 H 0.3559 0.36417 0.69762 0.0
C474 C 0.38974 0.37456 0.51833 0.0
C475 C 0.37811 0.3532 0.63185 0.0
C476 C 0.37934 0.33563 0.6869 0.0
C477 C 0.37683 0.38821 0.53387 0.0
C478 C 0.36492 0.38473 0.59978 0.0
C479 C 0.3651 0.36679 0.64719 0.0
C480 C 0.35354 0.40068 0.62193 0.0
C481 C 0.37621 0.40642 0.47985 0.0
C482 C 0.36942 0.42749 0.62847 0.0
C483 C 0.3589 0.44269 0.64943 0.0
C484 C 0.33224 0.43135 0.66438 0.0
C485 C 0.31644 0.40438 0.65893 0.0
C486 C 0.32704 0.38916 0.63825 0.0
H487 H 0.37991 0.40177 0.42696 0.0
H488 H 0.35724 0.40575 0.48067 0.0
H489 H 0.39151 0.42648 0.49102 0.0
H490 H 0.39001 0.43668 0.61742 0.0
H491 H 0.37165 0.46337 0.65315 0.0
H492 H 0.96475 0.26265 -0.02491 0.0
H493 H 1.00991 0.27798 0.93908 0.0
H494 H 0.98961 0.27974 0.72583 0.0
H495 H 0.94483 0.26496 0.76157 0.0
H496 H 0.03542 0.26144 0.84195 0.0
H497 H 0.04357 0.35529 0.76409 0.0
H498 H 1.01677 0.3312 0.81557 0.0
H499 H 1.01771 0.32768 0.72343 0.0
C500 C 0.9699 0.2658 0.92049 0.0
C501 C 0.95148 0.26298 0.87115 0.0
C502 C 0.99564 0.27459 0.89998 0.0
C503 C 1.00318 0.28053 0.82993 0.0
C504 C 0.98432 0.27581 0.78026 0.0
H505 H 0.15463 0.36874 0.62629 0.0
H506 H 0.10831 0.33839 0.64674 0.0
C507 C 0.95877 0.2673 0.80069 0.0
C508 C 0.03095 0.29363 0.8091 0.0
H509 H 0.07947 0.35011 0.7387 0.0
C510 C 0.04509 0.28081 0.81931 0.0
C511 C 0.04352 0.31893 0.77965 0.0
C512 C 0.02973 0.33423 0.77053 0.0
C513 C 0.07146 0.29259 0.80025 0.0
C514 C 0.08399 0.31792 0.77105 0.0
C515 C 0.06976 0.33058 0.76032 0.0
C516 C 0.11226 0.33262 0.75595 0.0
C517 C 0.08564 0.2778 0.81102 0.0
C518 C 0.12985 0.33906 0.81021 0.0
C519 C 0.15619 0.35635 0.79866 0.0
C520 C 0.16548 0.36765 0.73264 0.0
C521 C 0.14806 0.36018 0.67751 0.0
C522 C 0.12162 0.34295 0.68921 0.0
H523 H 0.07204 0.2566 0.81426 0.0
H524 H 0.0999 0.28198 0.76846 0.0
H525 H 0.09629 0.28371 0.86044 0.0
H526 H 0.12307 0.33175 0.86234 0.0
H527 H 0.16921 0.36164 0.84204 0.0
H528 H 0.64443 0.95279 0.04695 0.0
H529 H 0.67028 0.99937 0.02499 0.0
H530 H 0.73971 0.99382 0.01585 0.0
H531 H 0.71393 0.94703 0.03655 0.0
H532 H 0.71114 0.0392 0.09199 0.0
H533 H 0.74157 0.02733 0.82876 0.0
H534 H 0.71625 1.0007 0.87811 0.0
H535 H 0.74968 1.01211 0.8974 0.0
C536 C 0.66524 0.96147 0.04119 0.0
C537 C 0.67706 0.94609 0.04291 0.0
C538 C 0.68 0.98813 0.02844 0.0
C539 C 0.70685 1.0 0.01705 0.0
C540 C 0.71893 0.98497 0.02266 0.0
H541 H 0.82087 0.1613 0.91734 0.0
H542 H 0.79947 0.11459 0.94094 0.0
C543 C 0.70417 0.95825 0.03521 0.0
C544 C 0.72192 0.02794 -0.00236 0.0
H545 H 0.75887 0.07017 0.86767 0.0
C546 C 0.72159 0.04596 0.04299 0.0
C547 C 0.73555 0.03675 0.93356 0.0
C548 C 0.73567 0.01825 0.88127 0.0
C549 C 0.73452 0.07251 0.02614 0.0
C550 C 0.74785 0.08125 0.96179 0.0
C551 C 0.74859 0.06336 0.91688 0.0
C552 C 0.76067 0.10892 0.94006 0.0
C553 C 0.73396 0.09105 0.07756 0.0
C554 C 0.74587 0.12096 0.92887 0.0
C555 C 0.75797 0.14755 0.91497 0.0
C556 C 0.78517 0.16267 0.91195 0.0
C557 C 0.7999 0.15027 0.91928 0.0
C558 C 0.78773 0.12359 0.93302 0.0
H559 H 0.72824 0.08219 0.13035 0.0
H560 H 0.75319 0.10888 0.08012 0.0
H561 H 0.71965 0.09671 0.06082 0.0
H562 H 0.72493 0.10987 0.93283 0.0
H563 H 0.74599 0.1564 0.9094 0.0
H564 H 0.84882 0.74555 0.28469 0.0
H565 H 0.83019 0.7731 0.25486 0.0
H566 H 0.83377 0.75829 0.0382 0.0
H567 H 0.8517 0.73042 0.06786 0.0
H568 H 0.84474 0.81684 0.16826 0.0
H569 H 0.75677 0.73092 0.07209 0.0
H570 H 0.78103 0.72833 0.12141 0.0
H571 H 0.78611 0.73637 0.03034 0.0
C572 C 0.84604 0.74863 0.23073 0.0
C573 C 0.85135 0.73567 0.17858 0.0
C574 C 0.83536 0.76427 0.21373 0.0
C575 C 0.82999 0.76719 0.14443 0.0
C576 C 0.83711 0.75576 0.09211 0.0
H577 H 0.74739 0.83465 0.93806 0.0
H578 H 0.77582 0.81707 0.96482 0.0
C579 C 0.84747 0.73997 0.10905 0.0
C580 C 0.81552 0.78075 0.12677 0.0
H581 H 0.75989 0.77162 0.05129 0.0
C582 C 0.82616 0.80697 0.14287 0.0
C583 C 0.79119 0.76778 0.09394 0.0
C584 C 0.77795 0.73924 0.07901 0.0
C585 C 0.81332 0.82067 0.12576 0.0
C586 C 0.78918 0.80773 0.09223 0.0
C587 C 0.77855 0.78155 0.07628 0.0
C588 C 0.77393 0.82054 0.07578 0.0
C589 C 0.82577 0.84894 0.1428 0.0
C590 C 0.76341 0.82823 0.1293 0.0
C591 C 0.74689 0.83794 0.11434 0.0
C592 C 0.74054 0.84021 0.04537 0.0
C593 C 0.75159 0.83294 -0.00827 0.0
C594 C 0.768 0.82306 0.00687 0.0
H595 H 0.84674 0.85745 0.15352 0.0
H596 H 0.82341 0.86009 0.09966 0.0
H597 H 0.81617 0.85111 0.18964 0.0
H598 H 0.76724 0.82588 0.18291 0.0
H599 H 0.73834 0.84273 0.15719 0.0
H600 H 0.972 0.65093 0.18701 0.0
H601 H 1.01828 0.67851 0.2051 0.0
H602 H 1.00807 0.74492 0.2218 0.0
H603 H 0.96137 0.71724 0.20533 0.0
H604 H 0.05757 0.72159 0.14014 0.0
H605 H 0.04017 0.74436 0.40683 0.0
H606 H 1.01477 0.71961 0.3563 0.0
H607 H 0.02542 0.75314 0.33876 0.0
C608 C 0.97955 0.67146 0.1935 0.0
C609 C 0.96287 0.68181 0.19555 0.0
C610 C 1.00608 0.68722 0.20387 0.0
C611 C 1.01656 0.71366 0.21648 0.0
C612 C 1.00029 0.72443 0.21389 0.0
H613 H 0.17599 0.82083 0.34656 0.0
H614 H 0.13139 0.80356 0.30695 0.0
C615 C 0.97363 0.70863 0.20377 0.0
C616 C 0.04421 0.72931 0.23594 0.0
H617 H 0.08357 0.76168 0.37068 0.0
C618 C 0.06327 0.73055 0.1903 0.0
C619 C 0.05163 0.74095 0.30157 0.0
C620 C 0.03197 0.73935 0.35407 0.0
C621 C 0.08943 0.74267 0.20896 0.0
C622 C 0.0967 0.75362 0.27522 0.0
C623 C 0.07787 0.75324 0.31993 0.0
C624 C 0.12348 0.76412 0.30053 0.0
C625 C 0.10911 0.74345 0.15796 0.0
C626 C 0.13352 0.74752 0.31161 0.0
C627 C 0.15882 0.75723 0.33474 0.0
C628 C 0.17466 0.78378 0.3472 0.0
C629 C 0.16434 0.8003 0.3374 0.0
C630 C 0.1389 0.7905 0.31465 0.0
H631 H 0.10173 0.74013 0.10419 0.0
H632 H 0.1274 0.76232 0.15933 0.0
H633 H 0.11362 0.72802 0.17202 0.0
H634 H 0.12176 0.72702 0.30212 0.0
H635 H 0.16609 0.74394 0.34173 0.0
H636 H 0.62603 0.43603 0.60208 0.0
H637 H 0.66684 0.47159 0.55631 0.0
H638 H 0.6342 0.45999 0.35232 0.0
H639 H 0.59434 0.42335 0.3959 0.0
H640 H 0.67881 0.46289 0.34517 0.0
H641 H 0.68988 0.54482 0.5012 0.0
H642 H 0.68625 0.51829 0.55443 0.0
H643 H 0.66005 0.51422 0.50009 0.0
C644 C 0.62749 0.44099 0.54745 0.0
C645 C 0.60664 0.42666 0.50301 0.0
C646 C 0.65076 0.46168 0.52155 0.0
C647 C 0.65351 0.46881 0.45099 0.0
C648 C 0.63253 0.45502 0.40704 0.0
H649 H 0.78959 0.60486 0.26913 0.0
H650 H 0.74561 0.57425 0.31168 0.0
C651 C 0.60951 0.43415 0.43249 0.0
C652 C 0.6788 0.489 0.42125 0.0
H653 H 0.72767 0.55137 0.4385 0.0
C654 C 0.68932 0.48231 0.36527 0.0
C655 C 0.69243 0.51448 0.44663 0.0
C656 C 0.68144 0.52348 0.5034 0.0
C657 C 0.71324 0.50011 0.33496 0.0
C658 C 0.72756 0.5251 0.3629 0.0
C659 C 0.71681 0.5321 0.41766 0.0
C660 C 0.75409 0.54382 0.33737 0.0
C661 C 0.72274 0.49197 0.27278 0.0
C662 C 0.77347 0.53699 0.33856 0.0
C663 C 0.79835 0.55419 0.31354 0.0
C664 C 0.80459 0.57885 0.28795 0.0
C665 C 0.78533 0.58594 0.28811 0.0
C666 C 0.76025 0.56853 0.31259 0.0
H667 H 0.70639 0.47624 0.2446 0.0
H668 H 0.7339 0.50845 0.23611 0.0
H669 H 0.73552 0.48448 0.29035 0.0
H670 H 0.76939 0.51833 0.35924 0.0
H671 H 0.81281 0.54822 0.31518 0.0
H672 H 0.22955 0.49793 0.68618 0.0
H673 H 0.2155 0.52758 0.64234 0.0
H674 H 0.28919 0.59265 0.6961 0.0
H675 H 0.30366 0.56319 0.73842 0.0
H676 H 0.21069 0.5684 0.69059 0.0
H677 H 0.28718 0.60168 0.48703 0.0
H678 H 0.2787 0.5739 0.54247 0.0
H679 H 0.2999 0.60603 0.57286 0.0
C680 C 0.24257 0.51856 0.69025 0.0
C681 C 0.26789 0.52821 0.71486 0.0
C682 C 0.23452 0.53548 0.66486 0.0
C683 C 0.2516 0.56228 0.66399 0.0
C684 C 0.27598 0.57199 0.69443 0.0
H685 H 0.23059 0.69151 0.58898 0.0
H686 H 0.23001 0.65305 0.63508 0.0
C687 C 0.28414 0.55513 0.7192 0.0
C688 C 0.24472 0.58 0.62711 0.0
H689 H 0.26598 0.62637 0.49897 0.0
C690 C 0.22264 0.58096 0.64836 0.0
C691 C 0.25984 0.59577 0.57047 0.0
C692 C 0.28256 0.59414 0.54129 0.0
C693 C 0.21604 0.59823 0.6167 0.0
C694 C 0.23227 0.61533 0.56342 0.0
C695 C 0.25363 0.61345 0.54013 0.0
C696 C 0.2289 0.63674 0.53485 0.0
C697 C 0.19172 0.59791 0.64068 0.0
C698 C 0.22857 0.6406 0.46287 0.0
C699 C 0.22942 0.663 0.43613 0.0
C700 C 0.23086 0.682 0.48101 0.0
C701 C 0.22987 0.67741 0.55297 0.0
C702 C 0.22914 0.65519 0.57953 0.0
H703 H 0.17709 0.57842 0.66086 0.0
H704 H 0.1965 0.61169 0.68355 0.0
H705 H 0.18298 0.6036 0.59818 0.0
H706 H 0.22854 0.62669 0.42734 0.0
H707 H 0.23028 0.66603 0.38051 0.0
H708 H 0.69953 0.26923 0.93666 0.0
H709 H 0.66241 0.26985 0.88497 0.0
H710 H 0.64113 0.19826 0.78304 0.0
H711 H 0.67837 0.19756 0.83467 0.0
H712 H 0.64779 0.24052 0.69397 0.0
H713 H 0.58282 0.22516 0.91879 0.0
H714 H 0.61619 0.24898 0.93159 0.0
H715 H 0.60734 0.21574 0.92038 0.0
C716 C 0.68661 0.25335 0.9044 0.0
C717 C 0.6918 0.23333 0.88971 0.0
C718 C 0.66536 0.25366 0.87516 0.0
C719 C 0.64895 0.23402 0.83053 0.0
C720 C 0.6535 0.2135 0.81774 0.0
H721 H 0.51381 0.2314 0.64379 0.0
H722 H 0.54243 0.21767 0.69644 0.0
C723 C 0.67464 0.21303 0.84759 0.0
C724 C 0.6287 0.23642 0.79229 0.0
H725 H 0.575 0.24236 0.81497 0.0
C726 C 0.63166 0.24057 0.72023 0.0
C727 C 0.60765 0.23638 0.82665 0.0
C728 C 0.60308 0.2311 0.90356 0.0
C729 C 0.61469 0.24573 0.68201 0.0
C730 C 0.59436 0.24687 0.71686 0.0
C731 C 0.59074 0.24165 0.78846 0.0
C732 C 0.57733 0.2546 0.68053 0.0
C733 C 0.6188 0.25022 0.60476 0.0
C734 C 0.58753 0.27988 0.65382 0.0
C735 C 0.57125 0.28785 0.624 0.0
C736 C 0.54443 0.27064 0.62022 0.0
C737 C 0.53438 0.24511 0.64552 0.0
C738 C 0.55067 0.23723 0.67584 0.0
H739 H 0.63105 0.24261 0.58373 0.0
H740 H 0.59999 0.24096 0.57761 0.0
H741 H 0.62868 0.27132 0.59316 0.0
H742 H 0.60801 0.29367 0.65777 0.0
H743 H 0.57962 0.30766 0.60532 0.0
H744 H 0.54795 0.784 0.00123 0.0
H745 H 0.52002 0.7415 0.95286 0.0
H746 H 0.58724 0.73863 0.88088 0.0
H747 H 0.61546 0.78105 0.93105 0.0
H748 H 0.51647 0.72929 0.81814 0.0
H749 H 0.5446 0.66757 -0.02981 0.0
H750 H 0.55366 0.70003 -0.00504 0.0
H751 H 0.5709 0.69483 0.92613 0.0
C752 C 0.55685 0.77418 -0.02392 0.0
C753 C 0.58394 0.78589 -0.02988 0.0
C754 C 0.54083 0.7499 0.94822 0.0
C755 C 0.55148 0.73676 0.91347 0.0
C756 C 0.57855 0.74814 0.90857 0.0
H757 H 0.44285 0.60688 0.65534 0.0
H758 H 0.48226 0.64645 0.68871 0.0
C759 C 0.59467 0.77242 0.93715 0.0
C760 C 0.53394 0.71185 0.87967 0.0
H761 H 0.51421 0.64734 0.88165 0.0
C762 C 0.51608 0.71138 0.83168 0.0
C763 C 0.53345 0.68851 0.89743 0.0
C764 C 0.5515 0.68758 0.9504 0.0
C765 C 0.49716 0.68817 0.80286 0.0
C766 C 0.4965 0.66475 0.82097 0.0
C767 C 0.5149 0.66533 0.86727 0.0
C768 C 0.47502 0.63926 0.79911 0.0
C769 C 0.47722 0.68881 0.7562 0.0
C770 C 0.4587 0.62138 0.84983 0.0
C771 C 0.43654 0.5987 0.83096 0.0
C772 C 0.43003 0.59337 0.76082 0.0
C773 C 0.44724 0.61048 0.70978 0.0
C774 C 0.46961 0.63322 0.72881 0.0
H775 H 0.47718 0.70738 0.75942 0.0
H776 H 0.48162 0.68652 0.7017 0.0
H777 H 0.45749 0.67277 0.7697 0.0
H778 H 0.46255 0.62545 0.90435 0.0
H779 H 0.42405 0.58562 0.87158 0.0
H780 H 0.91537 0.51336 0.27813 0.0
H781 H 0.91577 0.47386 0.24491 0.0
H782 H 0.89148 0.48071 0.03938 0.0
H783 H 0.89165 0.5201 0.07161 0.0
H784 H 0.87323 0.42975 0.2058 0.0
H785 H 0.94646 0.4623 -0.00464 0.0
H786 H 0.94471 0.48457 0.0546 0.0
H787 H 0.92419 0.47373 -0.02004 0.0
C788 C 0.91081 0.50673 0.22543 0.0
C789 C 0.90329 0.51963 0.17758 0.0
C790 C 0.91095 0.48417 0.20657 0.0
C791 C 0.90397 0.47449 0.13935 0.0
C792 C 0.89752 0.48805 0.09097 0.0
H793 H 0.81712 0.3227 -0.01102 0.0
H794 H 0.83507 0.36601 0.03573 0.0
C795 C 0.89731 0.51041 0.10974 0.0
C796 C 0.90031 0.44878 0.12126 0.0
H797 H 0.91213 0.41728 -0.00782 0.0
C798 C 0.88216 0.42706 0.15992 0.0
C799 C 0.91219 0.44521 0.06195 0.0
C800 C 0.93318 0.46776 0.0211 0.0
C801 C 0.8743 0.40188 0.13825 0.0
C802 C 0.88446 0.39835 0.07554 0.0
C803 C 0.90394 0.42001 0.03949 0.0
C804 C 0.87406 0.37245 0.04476 0.0
C805 C 0.85478 0.3793 0.18211 0.0
C806 C 0.89025 0.36212 0.03145 0.0
C807 C 0.88008 0.33738 0.00398 0.0
C808 C 0.85354 0.32262 -0.01095 0.0
C809 C 0.83759 0.33344 0.00034 0.0
C810 C 0.84778 0.35812 0.02763 0.0
H811 H 0.85526 0.38476 0.2371 0.0
H812 H 0.83504 0.37291 0.16264 0.0
H813 H 0.85833 0.36272 0.17984 0.0
H814 H 0.91065 0.37298 0.04362 0.0
H815 H 0.8929 0.32964 -0.00422 0.0
H816 H 0.48524 0.83866 0.07187 0.0
H817 H 0.44981 0.83922 0.13544 0.0
H818 H 0.50435 0.91118 0.22833 0.0
H819 H 0.53999 0.91079 0.16451 0.0
H820 H 0.46803 0.86749 0.32338 0.0
H821 H 0.41944 0.88957 0.10998 0.0
H822 H 0.42792 0.86518 0.09195 0.0
H823 H 0.45306 0.89793 0.10506 0.0
C824 C 0.48962 0.8548 0.10503 0.0
C825 C 0.51533 0.87473 0.11309 0.0
C826 C 0.46939 0.85512 0.14115 0.0
C827 C 0.4745 0.87528 0.18631 0.0
C828 C 0.50005 0.89553 0.19343 0.0
H829 H 0.34466 0.88196 0.37716 0.0
H830 H 0.38853 0.89615 0.33426 0.0
C831 C 0.52032 0.89538 0.15661 0.0
C832 C 0.45317 0.87422 0.22871 0.0
H833 H 0.39557 0.87317 0.21568 0.0
C834 C 0.45234 0.86909 0.30018 0.0
C835 C 0.43288 0.87651 0.19829 0.0
C836 C 0.43333 0.88281 0.12218 0.0
C837 C 0.43106 0.86501 0.34151 0.0
C838 C 0.41015 0.86602 0.31037 0.0
C839 C 0.4116 0.87234 0.23949 0.0
C840 C 0.38573 0.85881 0.34864 0.0
C841 C 0.43094 0.85931 0.4179 0.0
C842 C 0.3699 0.83329 0.37304 0.0
C843 C 0.34477 0.82507 0.39749 0.0
C844 C 0.33499 0.84222 0.39774 0.0
C845 C 0.35156 0.86824 0.37783 0.0
C846 C 0.37664 0.87639 0.353 0.0
H847 H 0.45085 0.86627 0.43705 0.0
H848 H 0.42182 0.86839 0.44837 0.0
H849 H 0.41955 0.83808 0.42725 0.0
H850 H 0.37638 0.8193 0.36923 0.0
H851 H 0.33252 0.8049 0.41227 0.0
loop_
_geom_bond_atom_site_label_1
_geom_bond_atom_site_label_2
_geom_bond_distance
_geom_bond_site_symmetry_2
_ccdc_geom_bond_type
C0 O16 1.251 . S
C0 O18 1.254 . S
N1 C2 1.333 . S
N1 C6 1.307 . S
N1 Zn7 2.020 . S
C2 N1 1.333 . S
C2 C3 1.379 . S
C2 H20 0.952 . S
C3 C2 1.379 . S
C3 C4 1.390 . S
C3 H30 0.949 . S
C4 C3 1.390 . S
C4 C5 1.357 . S
C5 C4 1.357 . S
C5 C6 1.370 . S
C5 H31 0.950 . S
C6 N1 1.307 . S
C6 C5 1.370 . S
C6 H24 0.948 . S
Zn7 N1 2.020 . S
Zn7 O16 2.039 . S
Zn7 O22 2.034 . S
Zn7 O26 2.025 . S
Zn7 O28 2.024 . S
C8 O27 1.246 . S
C8 O28 1.249 . S
N9 C10 1.307 . S
N9 C11 1.333 . S
N9 Zn15 2.020 . S
C10 N9 1.307 . S
C10 C14 1.370 . S
C10 H21 0.948 . S
C11 N9 1.333 . S
C11 C12 1.379 . S
C11 H19 0.952 . S
C12 C11 1.379 . S
C12 C13 1.390 . S
C12 H32 0.949 . S
C13 C12 1.390 . S
C13 C14 1.357 . S
C14 C10 1.370 . S
C14 C13 1.357 . S
C14 H33 0.950 . S
Zn15 N9 2.020 . S
Zn15 O18 2.025 . S
Zn15 O23 2.024 . S
Zn15 O25 2.039 . S
Zn15 O27 2.034 . S
O16 C0 1.251 . S
O16 Zn7 2.039 . S
C17 O22 1.246 . S
C17 O23 1.249 . S
O18 C0 1.254 . S
O18 Zn15 2.025 . S
H19 C11 0.952 . S
H20 C2 0.952 . S
H21 C10 0.948 . S
O22 Zn7 2.034 . S
O22 C17 1.246 . S
O23 Zn15 2.024 . S
O23 C17 1.249 . S
H24 C6 0.948 . S
O25 Zn15 2.039 . S
O25 C29 1.251 . S
O26 Zn7 2.025 . S
O26 C29 1.254 . S
O27 C8 1.246 . S
O27 Zn15 2.034 . S
O28 Zn7 2.024 . S
O28 C8 1.249 . S
C29 O25 1.251 . S
C29 O26 1.254 . S
H30 C3 0.949 . S
H31 C5 0.950 . S
H32 C12 0.949 . S
H33 C14 0.950 . S
C34 O50 1.251 . S
C34 O52 1.254 . S
N35 C36 1.333 . S
N35 C40 1.307 . S
N35 Zn41 2.020 . S
C36 N35 1.333 . S
C36 C37 1.379 . S
C36 H54 0.952 . S
C37 C36 1.379 . S
C37 C38 1.390 . S
C37 H64 0.949 . S
C38 C37 1.390 . S
C38 C39 1.357 . S
C39 C38 1.357 . S
C39 C40 1.370 . S
C39 H65 0.950 . S
C40 N35 1.307 . S
C40 C39 1.370 . S
C40 H58 0.948 . S
Zn41 N35 2.020 . S
Zn41 O50 2.039 . S
Zn41 O56 2.034 . S
Zn41 O60 2.025 . S
Zn41 O62 2.024 . S
C42 O61 1.246 . S
C42 O62 1.249 . S
N43 C44 1.307 . S
N43 C45 1.333 . S
N43 Zn49 2.020 . S
C44 N43 1.307 . S
C44 C48 1.370 . S
C44 H55 0.948 . S
C45 N43 1.333 . S
C45 C46 1.379 . S
C45 H53 0.952 . S
C46 C45 1.379 . S
C46 C47 1.390 . S
C46 H66 0.949 . S
C47 C46 1.390 . S
C47 C48 1.357 . S
C48 C44 1.370 . S
C48 C47 1.357 . S
C48 H67 0.950 . S
Zn49 N43 2.020 . S
Zn49 O52 2.025 . S
Zn49 O57 2.024 . S
Zn49 O59 2.039 . S
Zn49 O61 2.034 . S
O50 C34 1.251 . S
O50 Zn41 2.039 . S
C51 O56 1.246 . S
C51 O57 1.249 . S
O52 C34 1.254 . S
O52 Zn49 2.025 . S
H53 C45 0.952 . S
H54 C36 0.952 . S
H55 C44 0.948 . S
O56 Zn41 2.034 . S
O56 C51 1.246 . S
O57 Zn49 2.024 . S
O57 C51 1.249 . S
H58 C40 0.948 . S
O59 Zn49 2.039 . S
O59 C63 1.251 . S
O60 Zn41 2.025 . S
O60 C63 1.254 . S
O61 C42 1.246 . S
O61 Zn49 2.034 . S
O62 Zn41 2.024 . S
O62 C42 1.249 . S
C63 O59 1.251 . S
C63 O60 1.254 . S
H64 C37 0.949 . S
H65 C39 0.950 . S
H66 C46 0.949 . S
H67 C48 0.950 . S
C68 O84 1.251 . S
C68 O86 1.254 . S
N69 C70 1.333 . S
N69 C74 1.307 . S
N69 Zn75 2.020 . S
C70 N69 1.333 . S
C70 C71 1.379 . S
C70 H88 0.952 . S
C71 C70 1.379 . S
C71 C72 1.390 . S
C71 H98 0.949 . S
C72 C71 1.390 . S
C72 C73 1.357 . S
C73 C72 1.357 . S
C73 C74 1.370 . S
C73 H99 0.950 1_556 S
C74 N69 1.307 . S
C74 C73 1.370 . S
C74 H92 0.948 1_556 S
Zn75 N69 2.020 . S
Zn75 O84 2.039 . S
Zn75 O90 2.034 . S
Zn75 O94 2.025 1_556 S
Zn75 O96 2.024 . S
C76 O95 1.246 . S
C76 O96 1.249 . S
N77 C78 1.307 . S
N77 C79 1.333 . S
N77 Zn83 2.020 . S
C78 N77 1.307 . S
C78 C82 1.370 . S
C78 H89 0.948 . S
C79 N77 1.333 . S
C79 C80 1.379 1_556 S
C79 H87 0.952 1_556 S
C80 C79 1.379 1_554 S
C80 C81 1.390 1_554 S
C80 H100 0.949 . S
C81 C80 1.390 1_556 S
C81 C82 1.357 . S
C82 C78 1.370 . S
C82 C81 1.357 . S
C82 H101 0.950 . S
Zn83 N77 2.020 . S
Zn83 O86 2.025 . S
Zn83 O91 2.024 . S
Zn83 O93 2.039 1_556 S
Zn83 O95 2.034 . S
O84 C68 1.251 . S
O84 Zn75 2.039 . S
C85 O90 1.246 . S
C85 O91 1.249 . S
O86 C68 1.254 . S
O86 Zn83 2.025 . S
H87 C79 0.952 1_554 S
H88 C70 0.952 . S
H89 C78 0.948 . S
O90 Zn75 2.034 . S
O90 C85 1.246 . S
O91 Zn83 2.024 . S
O91 C85 1.249 . S
H92 C74 0.948 1_554 S
O93 Zn83 2.039 1_554 S
O93 C97 1.251 . S
O94 Zn75 2.025 1_554 S
O94 C97 1.254 . S
O95 C76 1.246 . S
O95 Zn83 2.034 . S
O96 Zn75 2.024 . S
O96 C76 1.249 . S
C97 O93 1.251 . S
C97 O94 1.254 . S
H98 C71 0.949 . S
H99 C73 0.950 1_554 S
H100 C80 0.949 . S
H101 C82 0.950 . S
C102 O118 1.251 . S
C102 O120 1.254 . S
N103 C104 1.333 . S
N103 C108 1.307 . S
N103 Zn109 2.020 . S
C104 N103 1.333 . S
C104 C105 1.379 . S
C104 H122 0.952 . S
C105 C104 1.379 . S
C105 C106 1.390 . S
C105 H132 0.949 . S
C106 C105 1.390 . S
C106 C107 1.357 . S
C107 C106 1.357 . S
C107 C108 1.370 . S
C107 H133 0.950 1_554 S
C108 N103 1.307 . S
C108 C107 1.370 . S
C108 H126 0.948 1_554 S
Zn109 N103 2.020 . S
Zn109 O118 2.039 . S
Zn109 O124 2.034 . S
Zn109 O128 2.025 1_554 S
Zn109 O130 2.024 . S
C110 O129 1.246 . S
C110 O130 1.249 . S
N111 C112 1.307 . S
N111 C113 1.333 . S
N111 Zn117 2.020 . S
C112 N111 1.307 . S
C112 C116 1.370 . S
C112 H123 0.948 . S
C113 N111 1.333 . S
C113 C114 1.379 1_554 S
C113 H121 0.952 1_554 S
C114 C113 1.379 1_556 S
C114 C115 1.390 1_556 S
C114 H134 0.949 . S
C115 C114 1.390 1_554 S
C115 C116 1.357 . S
C116 C112 1.370 . S
C116 C115 1.357 . S
C116 H135 0.950 . S
Zn117 N111 2.020 . S
Zn117 O120 2.025 . S
Zn117 O125 2.024 . S
Zn117 O127 2.039 1_554 S
Zn117 O129 2.034 . S
O118 C102 1.251 . S
O118 Zn109 2.039 . S
C119 O124 1.246 . S
C119 O125 1.249 . S
O120 C102 1.254 . S
O120 Zn117 2.025 . S
H121 C113 0.952 1_556 S
H122 C104 0.952 . S
H123 C112 0.948 . S
O124 Zn109 2.034 . S
O124 C119 1.246 . S
O125 Zn117 2.024 . S
O125 C119 1.249 . S
H126 C108 0.948 1_556 S
O127 Zn117 2.039 1_556 S
O127 C131 1.251 . S
O128 Zn109 2.025 1_556 S
O128 C131 1.254 . S
O129 C110 1.246 . S
O129 Zn117 2.034 . S
O130 Zn109 2.024 . S
O130 C110 1.249 . S
C131 O127 1.251 . S
C131 O128 1.254 . S
H132 C105 0.949 . S
H133 C107 0.950 1_556 S
H134 C114 0.949 . S
H135 C116 0.950 . S
C136 O152 1.251 . S
C136 O154 1.254 . S
N137 C138 1.333 . S
N137 C142 1.307 . S
N137 Zn143 2.020 . S
C138 N137 1.333 . S
C138 C139 1.379 . S
C138 H156 0.952 . S
C139 C138 1.379 . S
C139 C140 1.390 . S
C139 H166 0.949 . S
C140 C139 1.390 . S
C140 C141 1.357 . S
C141 C140 1.357 . S
C141 C142 1.370 . S
C141 H167 0.950 . S
C142 N137 1.307 . S
C142 C141 1.370 . S
C142 H160 0.948 . S
Zn143 N137 2.020 . S
Zn143 O152 2.039 . S
Zn143 O158 2.034 . S
Zn143 O162 2.025 . S
Zn143 O164 2.024 . S
C144 O163 1.246 . S
C144 O164 1.249 . S
N145 C146 1.307 . S
N145 C147 1.333 . S
N145 Zn151 2.020 . S
C146 N145 1.307 . S
C146 C150 1.370 . S
C146 H157 0.948 . S
C147 N145 1.333 . S
C147 C148 1.379 . S
C147 H155 0.952 . S
C148 C147 1.379 . S
C148 C149 1.390 . S
C148 H168 0.949 . S
C149 C148 1.390 . S
C149 C150 1.357 . S
C150 C146 1.370 . S
C150 C149 1.357 . S
C150 H169 0.950 . S
Zn151 N145 2.020 . S
Zn151 O154 2.025 . S
Zn151 O159 2.024 . S
Zn151 O161 2.039 . S
Zn151 O163 2.034 . S
O152 C136 1.251 . S
O152 Zn143 2.039 . S
C153 O158 1.246 . S
C153 O159 1.249 . S
O154 C136 1.254 . S
O154 Zn151 2.025 . S
H155 C147 0.952 . S
H156 C138 0.952 . S
H157 C146 0.948 . S
O158 Zn143 2.034 . S
O158 C153 1.246 . S
O159 Zn151 2.024 . S
O159 C153 1.249 . S
H160 C142 0.948 . S
O161 Zn151 2.039 . S
O161 C165 1.251 . S
O162 Zn143 2.025 . S
O162 C165 1.254 . S
O163 C144 1.246 . S
O163 Zn151 2.034 . S
O164 Zn143 2.024 . S
O164 C144 1.249 . S
C165 O161 1.251 . S
C165 O162 1.254 . S
H166 C139 0.949 . S
H167 C141 0.950 . S
H168 C148 0.949 . S
H169 C150 0.950 . S
C170 O186 1.251 . S
C170 O188 1.254 . S
N171 C172 1.333 . S
N171 C176 1.307 . S
N171 Zn177 2.020 . S
C172 N171 1.333 . S
C172 C173 1.379 . S
C172 H190 0.952 . S
C173 C172 1.379 . S
C173 C174 1.390 . S
C173 H200 0.949 . S
C174 C173 1.390 . S
C174 C175 1.357 . S
C175 C174 1.357 . S
C175 C176 1.370 . S
C175 H201 0.950 . S
C176 N171 1.307 . S
C176 C175 1.370 . S
C176 H194 0.948 . S
Zn177 N171 2.020 . S
Zn177 O186 2.039 . S
Zn177 O192 2.034 . S
Zn177 O196 2.025 . S
Zn177 O198 2.024 . S
C178 O197 1.246 . S
C178 O198 1.249 . S
N179 C180 1.307 . S
N179 C181 1.333 . S
N179 Zn185 2.020 . S
C180 N179 1.307 . S
C180 C184 1.370 . S
C180 H191 0.948 . S
C181 N179 1.333 . S
C181 C182 1.379 . S
C181 H189 0.952 . S
C182 C181 1.379 . S
C182 C183 1.390 . S
C182 H202 0.949 . S
C183 C182 1.390 . S
C183 C184 1.357 . S
C184 C180 1.370 . S
C184 C183 1.357 . S
C184 H203 0.950 . S
Zn185 N179 2.020 . S
Zn185 O188 2.025 . S
Zn185 O193 2.024 . S
Zn185 O195 2.039 . S
Zn185 O197 2.034 . S
O186 C170 1.251 . S
O186 Zn177 2.039 . S
C187 O192 1.246 . S
C187 O193 1.249 . S
O188 C170 1.254 . S
O188 Zn185 2.025 . S
H189 C181 0.952 . S
H190 C172 0.952 . S
H191 C180 0.948 . S
O192 Zn177 2.034 . S
O192 C187 1.246 . S
O193 Zn185 2.024 . S
O193 C187 1.249 . S
H194 C176 0.948 . S
O195 Zn185 2.039 . S
O195 C199 1.251 . S
O196 Zn177 2.025 . S
O196 C199 1.254 . S
O197 C178 1.246 . S
O197 Zn185 2.034 . S
O198 Zn177 2.024 . S
O198 C178 1.249 . S
C199 O195 1.251 . S
C199 O196 1.254 . S
H200 C173 0.949 . S
H201 C175 0.950 . S
H202 C182 0.949 . S
H203 C184 0.950 . S
H204 C212 0.929 . S
H205 C214 0.930 . S
H206 C216 0.930 . S
H207 C219 0.929 . S
H208 C222 0.930 . S
H209 C224 0.960 . S
H210 C224 0.960 . S
H211 C224 0.960 . S
C212 H204 0.929 . S
C212 C213 1.377 . S
C212 C214 1.384 . S
C213 C212 1.377 . S
C213 C219 1.390 . S
C214 H205 0.930 . S
C214 C212 1.384 . S
C214 C215 1.372 . S
C215 C214 1.372 . S
C215 C216 1.400 . S
C215 C220 1.490 . S
C216 H206 0.930 . S
C216 C215 1.400 . S
C216 C219 1.386 . S
H217 C233 0.930 . S
H218 C234 0.931 . S
C219 H207 0.929 . S
C219 C213 1.390 . S
C219 C216 1.386 . S
C220 C215 1.490 . S
C220 C222 1.395 . S
C220 C223 1.403 . S
H221 C227 0.930 . S
C222 H208 0.930 . S
C222 C220 1.395 . S
C222 C225 1.403 . S
C223 C220 1.403 . S
C223 C224 1.524 . S
C223 C227 1.400 . S
C224 H209 0.960 . S
C224 H210 0.960 . S
C224 H211 0.960 . S
C224 C223 1.524 . S
C225 C222 1.403 . S
C225 C226 1.392 . S
C225 C229 1.495 . S
C226 C225 1.392 . S
C226 C227 1.385 . S
C226 C228 1.478 1_554 S
C227 H221 0.930 . S
C227 C223 1.400 . S
C227 C226 1.385 . S
C228 C226 1.478 1_556 S
C228 C230 1.381 . S
C228 C234 1.383 . S
C229 C225 1.495 . S
C229 H235 0.959 . S
C229 H236 0.961 . S
C229 H237 0.952 1_554 S
C230 C228 1.381 . S
C230 C231 1.394 . S
C230 H238 0.930 . S
C231 C230 1.394 . S
C231 C232 1.383 . S
C231 H239 0.929 . S
C232 C231 1.383 . S
C232 C233 1.377 . S
C233 H217 0.930 . S
C233 C232 1.377 . S
C233 C234 1.379 . S
C234 H218 0.931 . S
C234 C228 1.383 . S
C234 C233 1.379 . S
H235 C229 0.959 . S
H236 C229 0.961 . S
H237 C229 0.952 1_556 S
H238 C230 0.930 . S
H239 C231 0.929 . S
H240 C248 0.929 . S
H241 C250 0.930 . S
H242 C252 0.930 . S
H243 C255 0.929 . S
H244 C258 0.930 . S
H245 C260 0.960 . S
H246 C260 0.960 . S
H247 C260 0.960 . S
C248 H240 0.929 . S
C248 C249 1.377 . S
C248 C250 1.384 . S
C249 C248 1.377 . S
C249 C255 1.390 . S
C250 H241 0.930 . S
C250 C248 1.384 . S
C250 C251 1.372 . S
C251 C250 1.372 . S
C251 C252 1.400 . S
C251 C256 1.490 . S
C252 H242 0.930 . S
C252 C251 1.400 . S
C252 C255 1.386 . S
H253 C269 0.930 . S
H254 C270 0.931 . S
C255 H243 0.929 . S
C255 C249 1.390 . S
C255 C252 1.386 . S
C256 C251 1.490 . S
C256 C258 1.395 . S
C256 C259 1.403 . S
H257 C263 0.930 . S
C258 H244 0.930 . S
C258 C256 1.395 . S
C258 C261 1.403 . S
C259 C256 1.403 . S
C259 C260 1.524 . S
C259 C263 1.400 . S
C260 H245 0.960 . S
C260 H246 0.960 . S
C260 H247 0.960 . S
C260 C259 1.524 . S
C261 C258 1.403 . S
C261 C262 1.392 . S
C261 C265 1.495 . S
C262 C261 1.392 . S
C262 C263 1.385 . S
C262 C264 1.478 . S
C263 H257 0.930 . S
C263 C259 1.400 . S
C263 C262 1.385 . S
C264 C262 1.478 . S
C264 C266 1.381 . S
C264 C270 1.383 . S
C265 C261 1.495 . S
C265 H271 0.959 . S
C265 H272 0.961 . S
C265 H273 0.960 . S
C266 C264 1.381 . S
C266 C267 1.394 1_554 S
C266 H274 0.930 . S
C267 C266 1.394 1_556 S
C267 C268 1.383 . S
C267 H275 0.929 . S
C268 C267 1.383 . S
C268 C269 1.377 . S
C269 H253 0.930 . S
C269 C268 1.377 . S
C269 C270 1.379 1_556 S
C270 H254 0.931 . S
C270 C264 1.383 . S
C270 C269 1.379 1_554 S
H271 C265 0.959 . S
H272 C265 0.961 . S
H273 C265 0.960 . S
H274 C266 0.930 . S
H275 C267 0.929 . S
H276 C284 0.929 . S
H277 C286 0.930 . S
H278 C288 0.930 . S
H279 C291 0.929 . S
H280 C294 0.930 . S
H281 C296 0.960 . S
H282 C296 0.960 . S
H283 C296 0.960 . S
C284 H276 0.929 . S
C284 C285 1.377 . S
C284 C286 1.384 . S
C285 C284 1.377 . S
C285 C291 1.390 . S
C286 H277 0.930 . S
C286 C284 1.384 . S
C286 C287 1.372 . S
C287 C286 1.372 . S
C287 C288 1.400 . S
C287 C292 1.490 . S
C288 H278 0.930 . S
C288 C287 1.400 . S
C288 C291 1.386 . S
H289 C305 0.930 . S
H290 C306 0.931 . S
C291 H279 0.929 . S
C291 C285 1.390 . S
C291 C288 1.386 . S
C292 C287 1.490 . S
C292 C294 1.395 . S
C292 C295 1.403 . S
H293 C299 0.930 . S
C294 H280 0.930 . S
C294 C292 1.395 . S
C294 C297 1.403 . S
C295 C292 1.403 . S
C295 C296 1.524 . S
C295 C299 1.400 . S
C296 H281 0.960 . S
C296 H282 0.960 . S
C296 H283 0.960 . S
C296 C295 1.524 . S
C297 C294 1.403 . S
C297 C298 1.392 . S
C297 C301 1.495 . S
C298 C297 1.392 . S
C298 C299 1.385 . S
C298 C300 1.478 . S
C299 H293 0.930 . S
C299 C295 1.400 . S
C299 C298 1.385 . S
C300 C298 1.478 . S
C300 C302 1.381 . S
C300 C306 1.383 . S
C301 C297 1.495 . S
C301 H307 0.959 . S
C301 H308 0.961 . S
C301 H309 0.960 . S
C302 C300 1.381 . S
C302 C303 1.394 . S
C302 H310 0.930 . S
C303 C302 1.394 . S
C303 C304 1.383 . S
C303 H311 0.929 . S
C304 C303 1.383 . S
C304 C305 1.377 . S
C305 H289 0.930 . S
C305 C304 1.377 . S
C305 C306 1.379 . S
C306 H290 0.931 . S
C306 C300 1.383 . S
C306 C305 1.379 . S
H307 C301 0.959 . S
H308 C301 0.961 . S
H309 C301 0.960 . S
H310 C302 0.930 . S
H311 C303 0.929 . S
H312 C320 0.929 . S
H313 C322 0.930 . S
H314 C324 0.930 . S
H315 C327 0.929 . S
H316 C330 0.930 . S
H317 C332 0.960 . S
H318 C332 0.960 . S
H319 C332 0.960 . S
C320 H312 0.929 . S
C320 C321 1.377 . S
C320 C322 1.384 . S
C321 C320 1.377 . S
C321 C327 1.390 . S
C322 H313 0.930 . S
C322 C320 1.384 . S
C322 C323 1.372 . S
C323 C322 1.372 . S
C323 C324 1.400 . S
C323 C328 1.490 . S
C324 H314 0.930 . S
C324 C323 1.400 . S
C324 C327 1.386 . S
H325 C341 0.930 . S
H326 C342 0.931 . S
C327 H315 0.929 . S
C327 C321 1.390 . S
C327 C324 1.386 . S
C328 C323 1.490 . S
C328 C330 1.395 . S
C328 C331 1.403 . S
H329 C335 0.930 . S
C330 H316 0.930 . S
C330 C328 1.395 . S
C330 C333 1.403 . S
C331 C328 1.403 . S
C331 C332 1.524 . S
C331 C335 1.400 . S
C332 H317 0.960 . S
C332 H318 0.960 . S
C332 H319 0.960 . S
C332 C331 1.524 . S
C333 C330 1.403 . S
C333 C334 1.392 . S
C333 C337 1.495 . S
C334 C333 1.392 . S
C334 C335 1.385 . S
C334 C336 1.478 . S
C335 H329 0.930 . S
C335 C331 1.400 . S
C335 C334 1.385 . S
C336 C334 1.478 . S
C336 C338 1.381 . S
C336 C342 1.383 . S
C337 C333 1.495 . S
C337 H343 0.959 . S
C337 H344 0.961 . S
C337 H345 0.960 . S
C338 C336 1.381 . S
C338 C339 1.394 . S
C338 H346 0.930 . S
C339 C338 1.394 . S
C339 C340 1.383 . S
C339 H347 0.929 . S
C340 C339 1.383 . S
C340 C341 1.377 . S
C341 H325 0.930 . S
C341 C340 1.377 . S
C341 C342 1.379 . S
C342 H326 0.931 . S
C342 C336 1.383 . S
C342 C341 1.379 . S
H343 C337 0.959 . S
H344 C337 0.961 . S
H345 C337 0.960 . S
H346 C338 0.930 . S
H347 C339 0.929 . S
H348 C356 0.929 . S
H349 C358 0.930 . S
H350 C360 0.930 . S
H351 C363 0.929 . S
H352 C366 0.930 . S
H353 C368 0.960 . S
H354 C368 0.960 . S
H355 C368 0.960 . S
C356 H348 0.929 . S
C356 C357 1.377 . S
C356 C358 1.384 . S
C357 C356 1.377 . S
C357 C363 1.390 . S
C358 H349 0.930 . S
C358 C356 1.384 . S
C358 C359 1.372 . S
C359 C358 1.372 . S
C359 C360 1.400 . S
C359 C364 1.490 . S
C360 H350 0.930 . S
C360 C359 1.400 . S
C360 C363 1.386 . S
H361 C377 0.930 . S
H362 C378 0.931 . S
C363 H351 0.929 . S
C363 C357 1.390 . S
C363 C360 1.386 . S
C364 C359 1.490 . S
C364 C366 1.395 . S
C364 C367 1.403 . S
H365 C371 0.930 . S
C366 H352 0.930 . S
C366 C364 1.395 . S
C366 C369 1.403 . S
C367 C364 1.403 . S
C367 C368 1.524 . S
C367 C371 1.400 . S
C368 H353 0.960 . S
C368 H354 0.960 . S
C368 H355 0.960 . S
C368 C367 1.524 . S
C369 C366 1.403 . S
C369 C370 1.392 . S
C369 C373 1.495 . S
C370 C369 1.392 . S
C370 C371 1.385 . S
C370 C372 1.478 . S
C371 H365 0.930 . S
C371 C367 1.400 . S
C371 C370 1.385 . S
C372 C370 1.478 . S
C372 C374 1.381 . S
C372 C378 1.383 . S
C373 C369 1.495 . S
C373 H379 0.959 . S
C373 H380 0.961 . S
C373 H381 0.960 . S
C374 C372 1.381 . S
C374 C375 1.394 1_556 S
C374 H382 0.930 . S
C375 C374 1.394 1_554 S
C375 C376 1.383 . S
C375 H383 0.929 . S
C376 C375 1.383 . S
C376 C377 1.377 . S
C377 H361 0.930 . S
C377 C376 1.377 . S
C377 C378 1.379 1_554 S
C378 H362 0.931 . S
C378 C372 1.383 . S
C378 C377 1.379 1_556 S
H379 C373 0.959 . S
H380 C373 0.961 . S
H381 C373 0.960 . S
H382 C374 0.930 . S
H383 C375 0.929 . S
H384 C392 0.929 . S
H385 C394 0.930 . S
H386 C396 0.930 . S
H387 C399 0.929 . S
H388 C402 0.930 . S
H389 C404 0.960 . S
H390 C404 0.960 . S
H391 C404 0.960 1_554 S
C392 H384 0.929 . S
C392 C393 1.377 . S
C392 C394 1.384 . S
C393 C392 1.377 . S
C393 C399 1.390 . S
C394 H385 0.930 . S
C394 C392 1.384 . S
C394 C395 1.372 . S
C395 C394 1.372 . S
C395 C396 1.400 . S
C395 C400 1.490 1_554 S
C396 H386 0.930 . S
C396 C395 1.400 . S
C396 C399 1.386 . S
H397 C413 0.930 . S
H398 C414 0.931 . S
C399 H387 0.929 . S
C399 C393 1.390 . S
C399 C396 1.386 . S
C400 C395 1.490 1_556 S
C400 C402 1.395 . S
C400 C403 1.403 . S
H401 C407 0.930 . S
C402 H388 0.930 . S
C402 C400 1.395 . S
C402 C405 1.403 . S
C403 C400 1.403 . S
C403 C404 1.524 . S
C403 C407 1.400 . S
C404 H389 0.960 . S
C404 H390 0.960 . S
C404 H391 0.960 1_556 S
C404 C403 1.524 . S
C405 C402 1.403 . S
C405 C406 1.392 . S
C405 C409 1.495 . S
C406 C405 1.392 . S
C406 C407 1.385 . S
C406 C408 1.478 . S
C407 H401 0.930 . S
C407 C403 1.400 . S
C407 C406 1.385 . S
C408 C406 1.478 . S
C408 C410 1.381 . S
C408 C414 1.383 . S
C409 C405 1.495 . S
C409 H415 0.959 . S
C409 H416 0.961 . S
C409 H417 0.960 . S
C410 C408 1.381 . S
C410 C411 1.394 . S
C410 H418 0.930 . S
C411 C410 1.394 . S
C411 C412 1.383 . S
C411 H419 0.929 . S
C412 C411 1.383 . S
C412 C413 1.377 . S
C413 H397 0.930 . S
C413 C412 1.377 . S
C413 C414 1.379 . S
C414 H398 0.931 . S
C414 C408 1.383 . S
C414 C413 1.379 . S
H415 C409 0.959 . S
H416 C409 0.961 . S
H417 C409 0.960 . S
H418 C410 0.930 . S
H419 C411 0.929 . S
H420 C428 0.929 . S
H421 C430 0.930 . S
H422 C432 0.930 . S
H423 C435 0.929 . S
H424 C438 0.930 . S
H425 C440 0.960 . S
H426 C440 0.960 . S
H427 C440 0.960 . S
C428 H420 0.929 . S
C428 C429 1.377 . S
C428 C430 1.384 . S
C429 C428 1.377 . S
C429 C435 1.390 . S
C430 H421 0.930 . S
C430 C428 1.384 . S
C430 C431 1.372 . S
C431 C430 1.372 . S
C431 C432 1.400 . S
C431 C436 1.490 . S
C432 H422 0.930 . S
C432 C431 1.400 . S
C432 C435 1.386 . S
H433 C449 0.930 . S
H434 C450 0.931 . S
C435 H423 0.929 . S
C435 C429 1.390 . S
C435 C432 1.386 . S
C436 C431 1.490 . S
C436 C438 1.395 . S
C436 C439 1.403 . S
H437 C443 0.930 . S
C438 H424 0.930 . S
C438 C436 1.395 . S
C438 C441 1.403 . S
C439 C436 1.403 . S
C439 C440 1.524 . S
C439 C443 1.400 . S
C440 H425 0.960 . S
C440 H426 0.960 . S
C440 H427 0.960 . S
C440 C439 1.524 . S
C441 C438 1.403 . S
C441 C442 1.392 . S
C441 C445 1.515 . S
C442 C441 1.392 . S
C442 C443 1.385 . S
C442 C444 1.478 1_545 S
C443 H437 0.930 . S
C443 C439 1.400 . S
C443 C442 1.385 . S
C444 C442 1.478 1_565 S
C444 C446 1.381 . S
C444 C450 1.383 . S
C445 C441 1.515 . S
C445 H451 0.985 . S
C445 H452 0.964 1_545 S
C445 H453 0.913 1_545 S
C446 C444 1.381 . S
C446 C447 1.394 . S
C446 H454 0.930 . S
C447 C446 1.394 . S
C447 C448 1.383 . S
C447 H455 0.929 . S
C448 C447 1.383 . S
C448 C449 1.377 . S
C449 H433 0.930 . S
C449 C448 1.377 . S
C449 C450 1.379 . S
C450 H434 0.931 . S
C450 C444 1.383 . S
C450 C449 1.379 . S
H451 C445 0.985 . S
H452 C445 0.964 1_565 S
H453 C445 0.913 1_565 S
H454 C446 0.930 . S
H455 C447 0.929 . S
H456 C464 0.929 . S
H457 C466 0.930 . S
H458 C468 0.930 . S
H459 C471 0.929 . S
H460 C474 0.930 . S
H461 C476 0.960 . S
H462 C476 0.960 . S
H463 C476 0.960 . S
C464 H456 0.929 . S
C464 C465 1.377 . S
C464 C466 1.384 . S
C465 C464 1.377 . S
C465 C471 1.390 . S
C466 H457 0.930 . S
C466 C464 1.384 . S
C466 C467 1.372 . S
C467 C466 1.372 . S
C467 C468 1.400 . S
C467 C472 1.490 . S
C468 H458 0.930 . S
C468 C467 1.400 . S
C468 C471 1.386 . S
H469 C485 0.930 . S
H470 C486 0.931 . S
C471 H459 0.929 . S
C471 C465 1.390 . S
C471 C468 1.386 . S
C472 C467 1.490 . S
C472 C474 1.395 . S
C472 C475 1.403 . S
H473 C479 0.930 . S
C474 H460 0.930 . S
C474 C472 1.395 . S
C474 C477 1.403 . S
C475 C472 1.403 . S
C475 C476 1.524 . S
C475 C479 1.400 . S
C476 H461 0.960 . S
C476 H462 0.960 . S
C476 H463 0.960 . S
C476 C475 1.524 . S
C477 C474 1.403 . S
C477 C478 1.392 . S
C477 C481 1.495 . S
C478 C477 1.392 . S
C478 C479 1.385 . S
C478 C480 1.478 . S
C479 H473 0.930 . S
C479 C475 1.400 . S
C479 C478 1.385 . S
C480 C478 1.478 . S
C480 C482 1.381 . S
C480 C486 1.383 . S
C481 C477 1.495 . S
C481 H487 0.959 . S
C481 H488 0.961 . S
C481 H489 0.960 . S
C482 C480 1.381 . S
C482 C483 1.394 . S
C482 H490 0.930 . S
C483 C482 1.394 . S
C483 C484 1.383 . S
C483 H491 0.929 . S
C484 C483 1.383 . S
C484 C485 1.377 . S
C485 H469 0.930 . S
C485 C484 1.377 . S
C485 C486 1.379 . S
C486 H470 0.931 . S
C486 C480 1.383 . S
C486 C485 1.379 . S
H487 C481 0.959 . S
H488 C481 0.961 . S
H489 C481 0.960 . S
H490 C482 0.930 . S
H491 C483 0.929 . S
H492 C500 0.929 1_554 S
H493 C502 0.930 . S
H494 C504 0.930 . S
H495 C507 0.929 . S
H496 C510 0.930 . S
H497 C512 0.960 . S
H498 C512 0.994 . S
H499 C512 0.960 1_655 S
C500 H492 0.929 1_556 S
C500 C501 1.377 . S
C500 C502 1.384 . S
C501 C500 1.377 . S
C501 C507 1.390 . S
C502 H493 0.930 . S
C502 C500 1.384 . S
C502 C503 1.372 . S
C503 C502 1.372 . S
C503 C504 1.400 . S
C503 C508 1.490 1_655 S
C504 H494 0.930 . S
C504 C503 1.400 . S
C504 C507 1.386 . S
H505 C521 0.930 . S
H506 C522 0.931 . S
C507 H495 0.929 . S
C507 C501 1.390 . S
C507 C504 1.386 . S
C508 C503 1.490 1_455 S
C508 C510 1.395 . S
C508 C511 1.403 . S
H509 C515 0.930 . S
C510 H496 0.930 . S
C510 C508 1.395 . S
C510 C513 1.403 . S
C511 C508 1.403 . S
C511 C512 1.524 . S
C511 C515 1.400 . S
C512 H497 0.960 . S
C512 H498 0.994 . S
C512 H499 0.960 1_455 S
C512 C511 1.524 . S
C513 C510 1.403 . S
C513 C514 1.392 . S
C513 C517 1.495 . S
C514 C513 1.392 . S
C514 C515 1.385 . S
C514 C516 1.478 . S
C515 H509 0.930 . S
C515 C511 1.400 . S
C515 C514 1.385 . S
C516 C514 1.478 . S
C516 C518 1.381 . S
C516 C522 1.383 . S
C517 C513 1.495 . S
C517 H523 0.959 . S
C517 H524 0.961 . S
C517 H525 0.960 . S
C518 C516 1.381 . S
C518 C519 1.394 . S
C518 H526 0.930 . S
C519 C518 1.394 . S
C519 C520 1.383 . S
C519 H527 0.929 . S
C520 C519 1.383 . S
C520 C521 1.377 . S
C521 H505 0.930 . S
C521 C520 1.377 . S
C521 C522 1.379 . S
C522 H506 0.931 . S
C522 C516 1.383 . S
C522 C521 1.379 . S
H523 C517 0.959 . S
H524 C517 0.961 . S
H525 C517 0.960 . S
H526 C518 0.930 . S
H527 C519 0.929 . S
H528 C536 0.929 . S
H529 C538 0.930 . S
H530 C540 0.930 . S
H531 C543 0.929 . S
H532 C546 0.930 . S
H533 C548 0.960 . S
H534 C548 0.960 1_565 S
H535 C548 0.958 . S
C536 H528 0.929 . S
C536 C537 1.377 . S
C536 C538 1.384 . S
C537 C536 1.377 . S
C537 C543 1.390 . S
C538 H529 0.930 . S
C538 C536 1.384 . S
C538 C539 1.372 . S
C539 C538 1.372 . S
C539 C540 1.400 . S
C539 C544 1.490 1_565 S
C540 H530 0.930 . S
C540 C539 1.400 . S
C540 C543 1.386 . S
H541 C557 0.930 . S
H542 C558 0.931 1_554 S
C543 H531 0.929 . S
C543 C537 1.390 . S
C543 C540 1.386 . S
C544 C539 1.490 1_545 S
C544 C546 1.395 . S
C544 C547 1.403 1_554 S
H545 C551 0.930 . S
C546 H532 0.930 . S
C546 C544 1.395 . S
C546 C549 1.403 . S
C547 C544 1.403 1_556 S
C547 C548 1.524 . S
C547 C551 1.400 . S
C548 H533 0.960 . S
C548 H534 0.960 1_545 S
C548 H535 0.958 . S
C548 C547 1.524 . S
C549 C546 1.403 . S
C549 C550 1.392 1_554 S
C549 C553 1.495 . S
C550 C549 1.392 1_556 S
C550 C551 1.385 . S
C550 C552 1.478 . S
C551 H545 0.930 . S
C551 C547 1.400 . S
C551 C550 1.385 . S
C552 C550 1.478 . S
C552 C554 1.381 . S
C552 C558 1.383 . S
C553 C549 1.495 . S
C553 H559 0.959 . S
C553 H560 0.961 . S
C553 H561 0.960 . S
C554 C552 1.381 . S
C554 C555 1.394 . S
C554 H562 0.930 . S
C555 C554 1.394 . S
C555 C556 1.383 . S
C555 H563 0.929 . S
C556 C555 1.383 . S
C556 C557 1.377 . S
C557 H541 0.930 . S
C557 C556 1.377 . S
C557 C558 1.379 . S
C558 H542 0.931 1_556 S
C558 C552 1.383 . S
C558 C557 1.379 . S
H559 C553 0.959 . S
H560 C553 0.961 . S
H561 C553 0.960 . S
H562 C554 0.930 . S
H563 C555 0.929 . S
H564 C572 0.929 . S
H565 C574 0.930 . S
H566 C576 0.930 . S
H567 C579 0.929 . S
H568 C582 0.930 . S
H569 C584 0.960 . S
H570 C584 0.960 . S
H571 C584 0.960 . S
C572 H564 0.929 . S
C572 C573 1.377 . S
C572 C574 1.384 . S
C573 C572 1.377 . S
C573 C579 1.390 . S
C574 H565 0.930 . S
C574 C572 1.384 . S
C574 C575 1.372 . S
C575 C574 1.372 . S
C575 C576 1.400 . S
C575 C580 1.490 . S
C576 H566 0.930 . S
C576 C575 1.400 . S
C576 C579 1.386 . S
H577 C593 0.930 1_556 S
H578 C594 0.931 . S
C579 H567 0.929 . S
C579 C573 1.390 . S
C579 C576 1.386 . S
C580 C575 1.490 . S
C580 C582 1.395 . S
C580 C583 1.403 . S
H581 C587 0.930 . S
C582 H568 0.930 . S
C582 C580 1.395 . S
C582 C585 1.403 . S
C583 C580 1.403 . S
C583 C584 1.524 . S
C583 C587 1.400 . S
C584 H569 0.960 . S
C584 H570 0.960 . S
C584 H571 0.960 . S
C584 C583 1.524 . S
C585 C582 1.403 . S
C585 C586 1.392 . S
C585 C589 1.495 . S
C586 C585 1.392 . S
C586 C587 1.385 . S
C586 C588 1.478 . S
C587 H581 0.930 . S
C587 C583 1.400 . S
C587 C586 1.385 . S
C588 C586 1.478 . S
C588 C590 1.381 . S
C588 C594 1.383 . S
C589 C585 1.495 . S
C589 H595 0.959 . S
C589 H596 0.961 . S
C589 H597 0.960 . S
C590 C588 1.381 . S
C590 C591 1.394 . S
C590 H598 0.930 . S
C591 C590 1.394 . S
C591 C592 1.383 . S
C591 H599 0.929 . S
C592 C591 1.383 . S
C592 C593 1.377 . S
C593 H577 0.930 1_554 S
C593 C592 1.377 . S
C593 C594 1.379 . S
C594 H578 0.931 . S
C594 C588 1.383 . S
C594 C593 1.379 . S
H595 C589 0.959 . S
H596 C589 0.961 . S
H597 C589 0.960 . S
H598 C590 0.930 . S
H599 C591 0.929 . S
H600 C608 0.929 . S
H601 C610 0.930 . S
H602 C612 0.930 . S
H603 C615 0.929 . S
H604 C618 0.930 . S
H605 C620 0.960 . S
H606 C620 0.960 . S
H607 C620 0.960 . S
C608 H600 0.929 . S
C608 C609 1.377 . S
C608 C610 1.384 . S
C609 C608 1.377 . S
C609 C615 1.390 . S
C610 H601 0.930 . S
C610 C608 1.384 . S
C610 C611 1.372 . S
C611 C610 1.372 . S
C611 C612 1.400 . S
C611 C616 1.490 1_655 S
C612 H602 0.930 . S
C612 C611 1.400 . S
C612 C615 1.386 . S
H613 C629 0.930 . S
H614 C630 0.931 . S
C615 H603 0.929 . S
C615 C609 1.390 . S
C615 C612 1.386 . S
C616 C611 1.490 1_455 S
C616 C618 1.395 . S
C616 C619 1.403 . S
H617 C623 0.930 . S
C618 H604 0.930 . S
C618 C616 1.395 . S
C618 C621 1.403 . S
C619 C616 1.403 . S
C619 C620 1.524 . S
C619 C623 1.400 . S
C620 H605 0.960 . S
C620 H606 0.960 . S
C620 H607 0.960 . S
C620 C619 1.524 . S
C621 C618 1.403 . S
C621 C622 1.392 . S
C621 C625 1.495 . S
C622 C621 1.392 . S
C622 C623 1.385 . S
C622 C624 1.478 . S
C623 H617 0.930 . S
C623 C619 1.400 . S
C623 C622 1.385 . S
C624 C622 1.478 . S
C624 C626 1.381 . S
C624 C630 1.383 . S
C625 C621 1.495 . S
C625 H631 0.959 . S
C625 H632 0.961 . S
C625 H633 0.960 . S
C626 C624 1.381 . S
C626 C627 1.394 . S
C626 H634 0.930 . S
C627 C626 1.394 . S
C627 C628 1.383 . S
C627 H635 0.929 . S
C628 C627 1.383 . S
C628 C629 1.377 . S
C629 H613 0.930 . S
C629 C628 1.377 . S
C629 C630 1.379 . S
C630 H614 0.931 . S
C630 C624 1.383 . S
C630 C629 1.379 . S
H631 C625 0.959 . S
H632 C625 0.961 . S
H633 C625 0.960 . S
H634 C626 0.930 . S
H635 C627 0.929 . S
H636 C644 0.929 . S
H637 C646 0.930 . S
H638 C648 0.930 . S
H639 C651 0.929 . S
H640 C654 0.930 . S
H641 C656 0.960 . S
H642 C656 0.960 . S
H643 C656 0.960 . S
C644 H636 0.929 . S
C644 C645 1.377 . S
C644 C646 1.384 . S
C645 C644 1.377 . S
C645 C651 1.390 . S
C646 H637 0.930 . S
C646 C644 1.384 . S
C646 C647 1.372 . S
C647 C646 1.372 . S
C647 C648 1.400 . S
C647 C652 1.490 . S
C648 H638 0.930 . S
C648 C647 1.400 . S
C648 C651 1.386 . S
H649 C665 0.930 . S
H650 C666 0.931 . S
C651 H639 0.929 . S
C651 C645 1.390 . S
C651 C648 1.386 . S
C652 C647 1.490 . S
C652 C654 1.395 . S
C652 C655 1.403 . S
H653 C659 0.930 . S
C654 H640 0.930 . S
C654 C652 1.395 . S
C654 C657 1.403 . S
C655 C652 1.403 . S
C655 C656 1.524 . S
C655 C659 1.400 . S
C656 H641 0.960 . S
C656 H642 0.960 . S
C656 H643 0.960 . S
C656 C655 1.524 . S
C657 C654 1.403 . S
C657 C658 1.392 . S
C657 C661 1.495 . S
C658 C657 1.392 . S
C658 C659 1.385 . S
C658 C660 1.478 . S
C659 H653 0.930 . S
C659 C655 1.400 . S
C659 C658 1.385 . S
C660 C658 1.478 . S
C660 C662 1.381 . S
C660 C666 1.383 . S
C661 C657 1.495 . S
C661 H667 0.959 . S
C661 H668 0.961 . S
C661 H669 0.960 . S
C662 C660 1.381 . S
C662 C663 1.394 . S
C662 H670 0.930 . S
C663 C662 1.394 . S
C663 C664 1.383 . S
C663 H671 0.929 . S
C664 C663 1.383 . S
C664 C665 1.377 . S
C665 H649 0.930 . S
C665 C664 1.377 . S
C665 C666 1.379 . S
C666 H650 0.931 . S
C666 C660 1.383 . S
C666 C665 1.379 . S
H667 C661 0.959 . S
H668 C661 0.961 . S
H669 C661 0.960 . S
H670 C662 0.930 . S
H671 C663 0.929 . S
H672 C680 0.929 . S
H673 C682 0.930 . S
H674 C684 0.930 . S
H675 C687 0.929 . S
H676 C690 0.930 . S
H677 C692 0.960 . S
H678 C692 0.960 . S
H679 C692 0.960 . S
C680 H672 0.929 . S
C680 C681 1.377 . S
C680 C682 1.384 . S
C681 C680 1.377 . S
C681 C687 1.390 . S
C682 H673 0.930 . S
C682 C680 1.384 . S
C682 C683 1.372 . S
C683 C682 1.372 . S
C683 C684 1.400 . S
C683 C688 1.490 . S
C684 H674 0.930 . S
C684 C683 1.400 . S
C684 C687 1.386 . S
H685 C701 0.930 . S
H686 C702 0.931 . S
C687 H675 0.929 . S
C687 C681 1.390 . S
C687 C684 1.386 . S
C688 C683 1.490 . S
C688 C690 1.395 . S
C688 C691 1.403 . S
H689 C695 0.930 . S
C690 H676 0.930 . S
C690 C688 1.395 . S
C690 C693 1.403 . S
C691 C688 1.403 . S
C691 C692 1.524 . S
C691 C695 1.400 . S
C692 H677 0.960 . S
C692 H678 0.960 . S
C692 H679 0.960 . S
C692 C691 1.524 . S
C693 C690 1.403 . S
C693 C694 1.392 . S
C693 C697 1.495 . S
C694 C693 1.392 . S
C694 C695 1.385 . S
C694 C696 1.478 . S
C695 H689 0.930 . S
C695 C691 1.400 . S
C695 C694 1.385 . S
C696 C694 1.478 . S
C696 C698 1.381 . S
C696 C702 1.383 . S
C697 C693 1.495 . S
C697 H703 0.959 . S
C697 H704 0.961 . S
C697 H705 0.960 . S
C698 C696 1.381 . S
C698 C699 1.394 . S
C698 H706 0.930 . S
C699 C698 1.394 . S
C699 C700 1.383 . S
C699 H707 0.929 . S
C700 C699 1.383 . S
C700 C701 1.377 . S
C701 H685 0.930 . S
C701 C700 1.377 . S
C701 C702 1.379 . S
C702 H686 0.931 . S
C702 C696 1.383 . S
C702 C701 1.379 . S
H703 C697 0.959 . S
H704 C697 0.961 . S
H705 C697 0.960 . S
H706 C698 0.930 . S
H707 C699 0.929 . S
H708 C716 0.929 . S
H709 C718 0.930 . S
H710 C720 0.930 . S
H711 C723 0.929 . S
H712 C726 0.930 . S
H713 C728 0.960 . S
H714 C728 0.960 . S
H715 C728 0.960 . S
C716 H708 0.929 . S
C716 C717 1.377 . S
C716 C718 1.384 . S
C717 C716 1.377 . S
C717 C723 1.390 . S
C718 H709 0.930 . S
C718 C716 1.384 . S
C718 C719 1.372 . S
C719 C718 1.372 . S
C719 C720 1.400 . S
C719 C724 1.490 . S
C720 H710 0.930 . S
C720 C719 1.400 . S
C720 C723 1.386 . S
H721 C737 0.930 . S
H722 C738 0.931 . S
C723 H711 0.929 . S
C723 C717 1.390 . S
C723 C720 1.386 . S
C724 C719 1.490 . S
C724 C726 1.395 . S
C724 C727 1.403 . S
H725 C731 0.930 . S
C726 H712 0.930 . S
C726 C724 1.395 . S
C726 C729 1.403 . S
C727 C724 1.403 . S
C727 C728 1.524 . S
C727 C731 1.400 . S
C728 H713 0.960 . S
C728 H714 0.960 . S
C728 H715 0.960 . S
C728 C727 1.524 . S
C729 C726 1.403 . S
C729 C730 1.392 . S
C729 C733 1.495 . S
C730 C729 1.392 . S
C730 C731 1.385 . S
C730 C732 1.478 . S
C731 H725 0.930 . S
C731 C727 1.400 . S
C731 C730 1.385 . S
C732 C730 1.478 . S
C732 C734 1.381 . S
C732 C738 1.383 . S
C733 C729 1.495 . S
C733 H739 0.959 . S
C733 H740 0.961 . S
C733 H741 0.960 . S
C734 C732 1.381 . S
C734 C735 1.394 . S
C734 H742 0.930 . S
C735 C734 1.394 . S
C735 C736 1.383 . S
C735 H743 0.929 . S
C736 C735 1.383 . S
C736 C737 1.377 . S
C737 H721 0.930 . S
C737 C736 1.377 . S
C737 C738 1.379 . S
C738 H722 0.931 . S
C738 C732 1.383 . S
C738 C737 1.379 . S
H739 C733 0.959 . S
H740 C733 0.961 . S
H741 C733 0.960 . S
H742 C734 0.930 . S
H743 C735 0.929 . S
H744 C752 0.929 . S
H745 C754 0.930 . S
H746 C756 0.930 . S
H747 C759 0.929 . S
H748 C762 0.930 . S
H749 C764 0.960 . S
H750 C764 0.960 1_554 S
H751 C764 0.960 . S
C752 H744 0.929 . S
C752 C753 1.377 . S
C752 C754 1.384 . S
C753 C752 1.377 . S
C753 C759 1.390 1_554 S
C754 H745 0.930 . S
C754 C752 1.384 . S
C754 C755 1.372 1_554 S
C755 C754 1.372 1_556 S
C755 C756 1.400 . S
C755 C760 1.490 . S
C756 H746 0.930 . S
C756 C755 1.400 . S
C756 C759 1.386 . S
H757 C773 0.930 . S
H758 C774 0.931 . S
C759 H747 0.929 . S
C759 C753 1.390 1_556 S
C759 C756 1.386 . S
C760 C755 1.490 . S
C760 C762 1.395 . S
C760 C763 1.403 . S
H761 C767 0.930 . S
C762 H748 0.930 . S
C762 C760 1.395 . S
C762 C765 1.403 . S
C763 C760 1.403 . S
C763 C764 1.524 . S
C763 C767 1.400 . S
C764 H749 0.960 . S
C764 H750 0.960 1_556 S
C764 H751 0.960 . S
C764 C763 1.524 . S
C765 C762 1.403 . S
C765 C766 1.392 . S
C765 C769 1.495 . S
C766 C765 1.392 . S
C766 C767 1.385 . S
C766 C768 1.478 . S
C767 H761 0.930 . S
C767 C763 1.400 . S
C767 C766 1.385 . S
C768 C766 1.478 . S
C768 C770 1.381 . S
C768 C774 1.383 . S
C769 C765 1.495 . S
C769 H775 0.959 . S
C769 H776 0.961 . S
C769 H777 0.960 . S
C770 C768 1.381 . S
C770 C771 1.394 . S
C770 H778 0.930 . S
C771 C770 1.394 . S
C771 C772 1.383 . S
C771 H779 0.929 . S
C772 C771 1.383 . S
C772 C773 1.377 . S
C773 H757 0.930 . S
C773 C772 1.377 . S
C773 C774 1.379 . S
C774 H758 0.931 . S
C774 C768 1.383 . S
C774 C773 1.379 . S
H775 C769 0.959 . S
H776 C769 0.961 . S
H777 C769 0.960 . S
H778 C770 0.930 . S
H779 C771 0.929 . S
H780 C788 0.929 . S
H781 C790 0.930 . S
H782 C792 0.930 . S
H783 C795 0.929 . S
H784 C798 0.930 . S
H785 C800 0.960 . S
H786 C800 0.960 . S
H787 C800 0.960 . S
C788 H780 0.929 . S
C788 C789 1.377 . S
C788 C790 1.384 . S
C789 C788 1.377 . S
C789 C795 1.390 . S
C790 H781 0.930 . S
C790 C788 1.384 . S
C790 C791 1.372 . S
C791 C790 1.372 . S
C791 C792 1.400 . S
C791 C796 1.490 . S
C792 H782 0.930 . S
C792 C791 1.400 . S
C792 C795 1.386 . S
H793 C809 0.930 . S
H794 C810 0.931 . S
C795 H783 0.929 . S
C795 C789 1.390 . S
C795 C792 1.386 . S
C796 C791 1.490 . S
C796 C798 1.395 . S
C796 C799 1.403 . S
H797 C803 0.930 . S
C798 H784 0.930 . S
C798 C796 1.395 . S
C798 C801 1.403 . S
C799 C796 1.403 . S
C799 C800 1.524 . S
C799 C803 1.400 . S
C800 H785 0.960 . S
C800 H786 0.960 . S
C800 H787 0.960 . S
C800 C799 1.524 . S
C801 C798 1.403 . S
C801 C802 1.392 . S
C801 C805 1.495 . S
C802 C801 1.392 . S
C802 C803 1.385 . S
C802 C804 1.478 . S
C803 H797 0.930 . S
C803 C799 1.400 . S
C803 C802 1.385 . S
C804 C802 1.478 . S
C804 C806 1.381 . S
C804 C810 1.383 1_554 S
C805 C801 1.495 . S
C805 H811 0.959 . S
C805 H812 0.961 . S
C805 H813 0.960 . S
C806 C804 1.381 . S
C806 C807 1.394 . S
C806 H814 0.930 . S
C807 C806 1.394 . S
C807 C808 1.383 1_554 S
C807 H815 0.929 . S
C808 C807 1.383 1_556 S
C808 C809 1.377 . S
C809 H793 0.930 . S
C809 C808 1.377 . S
C809 C810 1.379 . S
C810 H794 0.931 . S
C810 C804 1.383 1_556 S
C810 C809 1.379 . S
H811 C805 0.959 . S
H812 C805 0.961 . S
H813 C805 0.960 . S
H814 C806 0.930 . S
H815 C807 0.929 . S
H816 C824 0.929 . S
H817 C826 0.930 . S
H818 C828 0.930 . S
H819 C831 0.929 . S
H820 C834 0.930 . S
H821 C836 0.960 . S
H822 C836 0.960 . S
H823 C836 0.960 . S
C824 H816 0.929 . S
C824 C825 1.377 . S
C824 C826 1.384 . S
C825 C824 1.377 . S
C825 C831 1.390 . S
C826 H817 0.930 . S
C826 C824 1.384 . S
C826 C827 1.372 . S
C827 C826 1.372 . S
C827 C828 1.400 . S
C827 C832 1.490 . S
C828 H818 0.930 . S
C828 C827 1.400 . S
C828 C831 1.386 . S
H829 C845 0.930 . S
H830 C846 0.931 . S
C831 H819 0.929 . S
C831 C825 1.390 . S
C831 C828 1.386 . S
C832 C827 1.490 . S
C832 C834 1.395 . S
C832 C835 1.403 . S
H833 C839 0.930 . S
C834 H820 0.930 . S
C834 C832 1.395 . S
C834 C837 1.403 . S
C835 C832 1.403 . S
C835 C836 1.524 . S
C835 C839 1.400 . S
C836 H821 0.960 . S
C836 H822 0.960 . S
C836 H823 0.960 . S
C836 C835 1.524 . S
C837 C834 1.403 . S
C837 C838 1.392 . S
C837 C841 1.495 . S
C838 C837 1.392 . S
C838 C839 1.385 . S
C838 C840 1.478 . S
C839 H833 0.930 . S
C839 C835 1.400 . S
C839 C838 1.385 . S
C840 C838 1.478 . S
C840 C842 1.381 . S
C840 C846 1.383 . S
C841 C837 1.495 . S
C841 H847 0.959 . S
C841 H848 0.961 . S
C841 H849 0.960 . S
C842 C840 1.381 . S
C842 C843 1.394 . S
C842 H850 0.930 . S
C843 C842 1.394 . S
C843 C844 1.383 . S
C843 H851 0.929 . S
C844 C843 1.383 . S
C844 C845 1.377 . S
C845 H829 0.930 . S
C845 C844 1.377 . S
C845 C846 1.379 . S
C846 H830 0.931 . S
C846 C840 1.383 . S
C846 C845 1.379 . S
H847 C841 0.959 . S
H848 C841 0.961 . S
H849 C841 0.960 . S
H850 C842 0.930 . S
H851 C843 0.929 . S
C213 C0 0.806 . S
C232 C29 0.807 . S
C249 C63 0.806 . S
C268 C34 0.807 . S
C285 C97 0.806 . S
C304 C68 0.804 . S
C321 C102 0.806 . S
C340 C131 0.804 . S
C357 C165 0.807 . S
C376 C136 0.808 . S
C393 C199 0.806 . S
C412 C170 0.808 . S
C429 C13 1.655 . S
C448 C183 1.642 . S
C465 C8 1.748 . S
C484 C42 1.732 . S
C501 C81 1.657 . S
C520 C47 1.650 . S
C537 C110 1.747 . S
C556 C76 1.726 . S
C573 C149 1.661 . S
C592 C115 1.672 . S
C609 C144 1.749 . S
C628 C178 1.736 . S
C645 C4 1.918 . S
C664 C153 1.962 . S
C681 C51 1.965 . S
C700 C174 1.929 . S
C717 C72 1.913 . S
C736 C17 1.969 . S
C753 C119 1.967 . S
C772 C38 1.895 . S
C789 C140 1.919 . S
C808 C85 1.959 . S
C825 C106 1.916 . S
C844 C187 1.966 . S
