# Generated by pormake.
# Topology whz, (6)-cn, num edge types: 1
# Building blocks:
#     Node 0, Type 0, BuildingBlock: BETGAK_clean_sbu_0, # of connection points: 6
#     Node 1, Type 0, BuildingBlock: BETGAK_clean_sbu_0, # of connection points: 6
#     Node 2, Type 0, BuildingBlock: BETGAK_clean_sbu_0, # of connection points: 6
#     Node 3, Type 0, BuildingBlock: BETGAK_clean_sbu_0, # of connection points: 6
#     Node 4, Type 0, BuildingBlock: BETGAK_clean_sbu_0, # of connection points: 6
#     Node 5, Type 0, BuildingBlock: BETGAK_clean_sbu_0, # of connection points: 6
#     Node 6, Type 0, BuildingBlock: BETGAK_clean_sbu_0, # of connection points: 6
#     Node 7, Type 0, BuildingBlock: BETGAK_clean_sbu_0, # of connection points: 6
#     Node 8, Type 0, BuildingBlock: BETGAK_clean_sbu_0, # of connection points: 6
#     Node 9, Type 0, BuildingBlock: BETGAK_clean_sbu_0, # of connection points: 6
#     Node 10, Type 0, BuildingBlock: BETGAK_clean_sbu_0, # of connection points: 6
#     Node 11, Type 0, BuildingBlock: BETGAK_clean_sbu_0, # of connection points: 6
#     Node 12, Type 0, BuildingBlock: BETGAK_clean_sbu_0, # of connection points: 6
#     Node 13, Type 0, BuildingBlock: BETGAK_clean_sbu_0, # of connection points: 6
#     Node 14, Type 0, BuildingBlock: BETGAK_clean_sbu_0, # of connection points: 6
#     Node 15, Type 0, BuildingBlock: BETGAK_clean_sbu_0, # of connection points: 6
#     Edge 16, Type (0, 0), BuildingBlock: EZIPEK_clean_linker_0, # of connection points: 2
#     Edge 17, Type (0, 0), BuildingBlock: EZIPEK_clean_linker_0, # of connection points: 2
#     Edge 18, Type (0, 0), BuildingBlock: EZIPEK_clean_linker_0, # of connection points: 2
#     Edge 19, Type (0, 0), BuildingBlock: EZIPEK_clean_linker_0, # of connection points: 2
#     Edge 20, Type (0, 0), BuildingBlock: EZIPEK_clean_linker_0, # of connection points: 2
#     Edge 21, Type (0, 0), BuildingBlock: EZIPEK_clean_linker_0, # of connection points: 2
#     Edge 22, Type (0, 0), BuildingBlock: EZIPEK_clean_linker_0, # of connection points: 2
#     Edge 23, Type (0, 0), BuildingBlock: EZIPEK_clean_linker_0, # of connection points: 2
#     Edge 24, Type (0, 0), BuildingBlock: EZIPEK_clean_linker_0, # of connection points: 2
#     Edge 25, Type (0, 0), BuildingBlock: EZIPEK_clean_linker_0, # of connection points: 2
#     Edge 26, Type (0, 0), BuildingBlock: EZIPEK_clean_linker_0, # of connection points: 2
#     Edge 27, Type (0, 0), BuildingBlock: EZIPEK_clean_linker_0, # of connection points: 2
#     Edge 28, Type (0, 0), BuildingBlock: EZIPEK_clean_linker_0, # of connection points: 2
#     Edge 29, Type (0, 0), BuildingBlock: EZIPEK_clean_linker_0, # of connection points: 2
#     Edge 30, Type (0, 0), BuildingBlock: EZIPEK_clean_linker_0, # of connection points: 2
#     Edge 31, Type (0, 0), BuildingBlock: EZIPEK_clean_linker_0, # of connection points: 2
#     Edge 32, Type (0, 0), BuildingBlock: EZIPEK_clean_linker_0, # of connection points: 2
#     Edge 33, Type (0, 0), BuildingBlock: EZIPEK_clean_linker_0, # of connection points: 2
#     Edge 34, Type (0, 0), BuildingBlock: EZIPEK_clean_linker_0, # of connection points: 2
#     Edge 35, Type (0, 0), BuildingBlock: EZIPEK_clean_linker_0, # of connection points: 2
#     Edge 36, Type (0, 0), BuildingBlock: EZIPEK_clean_linker_0, # of connection points: 2
#     Edge 37, Type (0, 0), BuildingBlock: EZIPEK_clean_linker_0, # of connection points: 2
#     Edge 38, Type (0, 0), BuildingBlock: EZIPEK_clean_linker_0, # of connection points: 2
#     Edge 39, Type (0, 0), BuildingBlock: EZIPEK_clean_linker_0, # of connection points: 2
#     Edge 40, Type (0, 0), BuildingBlock: EZIPEK_clean_linker_0, # of connection points: 2
#     Edge 41, Type (0, 0), BuildingBlock: EZIPEK_clean_linker_0, # of connection points: 2
#     Edge 42, Type (0, 0), BuildingBlock: EZIPEK_clean_linker_0, # of connection points: 2
#     Edge 43, Type (0, 0), BuildingBlock: EZIPEK_clean_linker_0, # of connection points: 2
#     Edge 44, Type (0, 0), BuildingBlock: EZIPEK_clean_linker_0, # of connection points: 2
#     Edge 45, Type (0, 0), BuildingBlock: EZIPEK_clean_linker_0, # of connection points: 2
#     Edge 46, Type (0, 0), BuildingBlock: EZIPEK_clean_linker_0, # of connection points: 2
#     Edge 47, Type (0, 0), BuildingBlock: EZIPEK_clean_linker_0, # of connection points: 2
#     Edge 48, Type (0, 0), BuildingBlock: EZIPEK_clean_linker_0, # of connection points: 2
#     Edge 49, Type (0, 0), BuildingBlock: EZIPEK_clean_linker_0, # of connection points: 2
#     Edge 50, Type (0, 0), BuildingBlock: EZIPEK_clean_linker_0, # of connection points: 2
#     Edge 51, Type (0, 0), BuildingBlock: EZIPEK_clean_linker_0, # of connection points: 2
#     Edge 52, Type (0, 0), BuildingBlock: EZIPEK_clean_linker_0, # of connection points: 2
#     Edge 53, Type (0, 0), BuildingBlock: EZIPEK_clean_linker_0, # of connection points: 2
#     Edge 54, Type (0, 0), BuildingBlock: EZIPEK_clean_linker_0, # of connection points: 2
#     Edge 55, Type (0, 0), BuildingBlock: EZIPEK_clean_linker_0, # of connection points: 2
#     Edge 56, Type (0, 0), BuildingBlock: EZIPEK_clean_linker_0, # of connection points: 2
#     Edge 57, Type (0, 0), BuildingBlock: EZIPEK_clean_linker_0, # of connection points: 2
#     Edge 58, Type (0, 0), BuildingBlock: EZIPEK_clean_linker_0, # of connection points: 2
#     Edge 59, Type (0, 0), BuildingBlock: EZIPEK_clean_linker_0, # of connection points: 2
#     Edge 60, Type (0, 0), BuildingBlock: EZIPEK_clean_linker_0, # of connection points: 2
#     Edge 61, Type (0, 0), BuildingBlock: EZIPEK_clean_linker_0, # of connection points: 2
#     Edge 62, Type (0, 0), BuildingBlock: EZIPEK_clean_linker_0, # of connection points: 2
#     Edge 63, Type (0, 0), BuildingBlock: EZIPEK_clean_linker_0, # of connection points: 2
# Relax obj value: 0.932
# Max RMSD: 0.340
# Mean RMSD: 0.340
data_MOF--net-whz--node1-BETGAK_clean_sbu_0--edge1-EZIPEK_clean_linker_0
_symmetry_space_group_name_H-M    P1
_symmetry_Int_Tables_number       1
_symmetry_cell_setting            triclinic
loop_
_symmetry_equiv_pos_as_xyz
'x, y, z'
_cell_length_a     26.069347
_cell_length_b     25.99846
_cell_length_c     56.00556
_cell_angle_alpha  89.918168
_cell_angle_beta   90.260545
_cell_angle_gamma 89.98409
loop_
_atom_site_label
_atom_site_type_symbol
_atom_site_fract_x
_atom_site_fract_y
_atom_site_fract_z
_atom_type_partial_charge
La0 La 0.3193 0.24868 0.2182 0.0
La1 La 0.32129 0.20358 0.17006 0.0
C2 C 0.3251 0.27472 0.26115 0.0
C3 C 0.35055 0.32066 0.27063 0.0
C4 C 0.36361 0.36103 0.25514 0.0
C5 C 0.36977 0.41078 0.26392 0.0
C6 C 0.36177 0.42045 0.28826 0.0
C7 C 0.36272 0.37747 0.30401 0.0
C8 C 0.35539 0.32789 0.29516 0.0
C9 C 0.28412 0.31349 0.18482 0.0
C10 C 0.42209 0.2656 0.18955 0.0
C11 C 0.3253 0.19394 0.12478 0.0
C12 C 0.30192 0.18609 0.10049 0.0
C13 C 0.32739 0.15366 0.08435 0.0
C14 C 0.31032 0.14829 1.06066 0.0
C15 C 0.26684 0.17492 1.0522 0.0
C16 C 0.24105 0.20761 0.06829 0.0
C17 C 0.25865 0.2135 0.09211 0.0
C18 C 0.35415 0.14174 0.20583 0.0
C19 C 0.22647 0.17497 0.20142 0.0
O20 O 0.28506 0.28423 0.24767 0.0
O21 O 0.35532 0.24051 0.25165 0.0
O22 O 0.31492 0.32463 0.20211 0.0
O23 O 0.276 0.26525 0.18587 0.0
O24 O 0.39861 0.26984 0.21029 0.0
O25 O 0.39773 0.24388 0.17112 0.0
O26 O 0.32919 0.1553 0.13973 0.0
O27 O 0.31844 0.23771 0.13587 0.0
O28 O 0.33081 0.12574 0.18664 0.0
O29 O 0.36104 0.189 0.2027 0.0
O30 O 0.24282 0.18123 0.17918 0.0
O31 O 0.2537 0.1936 0.21971 0.0
H32 H 0.36386 0.35535 0.23612 0.0
H33 H 0.37375 0.44198 0.25129 0.0
H34 H 0.3612 0.38196 0.32318 0.0
H35 H 0.34821 0.29652 0.30746 0.0
H36 H 0.36128 0.13272 0.09001 0.0
H37 H 0.3309 0.12257 1.04888 0.0
H38 H 0.20717 0.22832 1.06247 0.0
H39 H 0.23852 0.2395 0.1039 0.0
La40 La 0.56987 0.57023 0.4643 0.0
La41 La 0.61801 0.58007 0.41773 0.0
C42 C 0.52604 0.5787 0.5041 0.0
C43 C 0.53491 0.61267 0.52438 0.0
C44 C 0.52462 0.59194 0.54694 0.0
C45 C 0.56174 0.59587 0.56483 0.0
C46 C 0.60867 0.61983 0.5597 0.0
C47 C 0.61178 0.65221 0.53973 0.0
C48 C 0.57422 0.64915 0.52202 0.0
C49 C 0.52126 0.51627 0.43023 0.0
C50 C 0.55949 0.67838 0.43652 0.0
C51 C 0.63409 0.57021 0.37325 0.0
C52 C 0.64371 0.55912 0.34717 0.0
C53 C 0.649 0.59868 0.33012 0.0
C54 C 0.65497 0.58727 0.30557 0.0
C55 C 0.65661 0.53594 0.29735 0.0
C56 C 0.65193 0.4965 0.31445 0.0
C57 C 0.64524 0.50787 0.33886 0.0
C58 C 0.68035 0.60598 0.45533 0.0
C59 C 0.64831 0.48579 0.45066 0.0
O60 O 0.50811 0.59921 0.48448 0.0
O61 O 0.56517 0.54854 0.49999 0.0
O62 O 0.53354 0.50061 0.45118 0.0
O63 O 0.53985 0.56126 0.42842 0.0
O64 O 0.55956 0.65372 0.45735 0.0
O65 O 0.57627 0.6544 0.41709 0.0
O66 O 0.6494 0.61102 0.38518 0.0
O67 O 0.61038 0.53643 0.38653 0.0
O68 O 0.69585 0.58741 0.43502 0.0
O69 O 0.63316 0.61351 0.45259 0.0
O70 O 0.63685 0.50052 0.42863 0.0
O71 O 0.63288 0.5144 0.46883 0.0
H72 H 0.49366 0.5646 0.54926 0.0
H73 H 0.55792 0.5719 0.58057 0.0
H74 H 0.64669 0.67241 0.53572 0.0
H75 H 0.58195 0.66668 0.50486 0.0
H76 H 0.64768 0.63851 0.33571 0.0
H77 H 0.65865 0.61863 0.29295 0.0
H78 H 0.65335 0.45665 0.30887 0.0
H79 H 0.6413 0.47624 0.35133 0.0
La80 La 0.24472 0.85074 0.71881 0.0
La81 La 0.23655 0.88601 0.66849 0.0
C82 C 0.25163 0.85656 0.7637 0.0
C83 C 0.27775 0.89352 0.7794 0.0
C84 C 0.27942 0.88532 0.80405 0.0
C85 C 0.30464 0.92055 0.81879 0.0
C86 C 0.32837 0.96445 0.80906 0.0
C87 C 0.32536 0.97334 0.78452 0.0
C88 C 0.30066 0.93779 0.76983 0.0
C89 C 0.27832 0.77977 0.68896 0.0
C90 C 0.14273 0.82011 0.69162 0.0
C91 C 0.2276 0.88991 0.62311 0.0
C92 C 0.25272 0.89723 0.59923 0.0
C93 C 0.22665 0.92592 0.58164 0.0
C94 C 0.24634 0.93111 0.55843 0.0
C95 C 0.293 0.90789 0.55191 0.0
C96 C 0.31941 0.87906 0.56946 0.0
C97 C 0.29938 0.87352 0.5928 0.0
C98 C 0.20428 0.95166 0.70284 0.0
C99 C 0.33488 0.92057 0.69407 0.0
O100 O 0.2136 0.87556 0.75126 0.0
O101 O 0.28129 0.82754 0.75067 0.0
O102 O 0.25239 0.77129 0.70834 0.0
O103 O 0.28446 0.82845 0.6867 0.0
O104 O 0.16872 0.81723 0.712 0.0
O105 O 0.1627 0.8437 0.67266 0.0
O106 O 0.22225 0.92973 0.63719 0.0
O107 O 0.23678 0.84774 0.63525 0.0
O108 O 0.22647 0.96596 0.68315 0.0
O109 O 0.19866 0.90406 0.70116 0.0
O110 O 0.3156 0.91016 0.67286 0.0
O111 O 0.31104 0.90485 0.71378 0.0
H112 H 0.26172 0.85158 0.81185 0.0
H113 H 0.30647 0.91304 0.83779 0.0
H114 H 0.34296 1.00708 0.77669 0.0
H115 H 0.29948 0.94508 0.75102 0.0
H116 H 0.19041 0.94415 0.58582 0.0
H117 H 0.22518 0.95387 0.5455 0.0
H118 H 0.35569 0.86111 0.56514 0.0
H119 H 0.32031 0.85068 0.60576 0.0
La120 La 0.98966 0.4968 0.97002 0.0
La121 La 0.94646 0.49462 0.92135 0.0
C122 C 1.02241 0.46801 1.01 0.0
C123 C 0.06911 0.43762 1.01389 0.0
C124 C 0.1047 0.43357 0.99533 0.0
C125 C 0.15332 0.41327 0.99959 0.0
C126 C 0.16882 0.40196 1.02314 0.0
C127 C 0.12944 0.39563 1.04035 0.0
C128 C 0.08002 0.41459 1.03586 0.0
C129 C 1.04557 0.55152 0.93996 0.0
C130 C 1.00274 0.39313 0.93689 0.0
C131 C 0.92781 0.51798 0.87802 0.0
C132 C 0.918 0.5311 0.85212 0.0
C133 C 0.87623 0.56224 0.84514 0.0
C134 C 0.86891 0.57673 0.82102 0.0
C135 C 0.90274 0.56004 0.80299 0.0
C136 C 0.94416 0.52845 0.80997 0.0
C137 C 0.95197 0.51471 0.83413 0.0
C138 C 0.88982 0.45147 0.9563 0.0
C139 C 0.91927 0.58887 0.95677 0.0
O140 O 1.03026 0.51424 1.00146 0.0
O141 O 0.98616 0.44413 0.99836 0.0
O142 O 1.03706 0.56214 0.96206 0.0
O143 O 1.02429 0.5081 0.93524 0.0
O144 O 1.01013 0.41789 0.95739 0.0
O145 O 0.98029 0.41708 0.91872 0.0
O146 O 0.89188 0.51399 0.89421 0.0
O147 O 0.97364 0.50731 0.88626 0.0
O148 O 0.88997 0.43465 0.93436 0.0
O149 O 0.91597 0.49128 0.95647 0.0
O150 O 0.92901 0.57431 0.93437 0.0
O151 O 0.9325 0.5581 0.97477 0.0
H152 H 0.0964 0.45019 0.97803 0.0
H153 H 0.18102 0.41512 0.98529 0.0
H154 H 0.13798 0.38304 1.05836 0.0
H155 H 0.05196 0.41499 1.05006 0.0
H156 H 0.8496 0.5762 0.85843 0.0
H157 H 0.83663 0.60107 0.81639 0.0
H158 H 0.97083 0.51461 0.79667 0.0
H159 H 0.9847 0.49096 0.83871 0.0
La160 La 0.74396 0.87729 0.96771 0.0
La161 La 0.76552 0.82471 0.92344 0.0
C162 C 0.75621 0.90233 1.01134 0.0
C163 C 0.7675 0.91754 1.03685 0.0
C164 C 0.72883 0.91799 1.05436 0.0
C165 C 0.74079 0.92609 0.07875 0.0
C166 C 0.79168 0.93539 0.08639 0.0
C167 C 0.83005 0.93652 0.06871 0.0
C168 C 0.81827 0.92717 1.04446 0.0
C169 C 0.70854 0.92688 0.92807 0.0
C170 C 0.8468 0.9079 0.93865 0.0
C171 C 0.77907 0.77376 0.88601 0.0
C172 C 0.82809 0.75548 0.87634 0.0
C173 C 0.86935 0.74365 0.8918 0.0
C174 C 0.91939 0.74122 0.8831 0.0
C175 C 0.92814 0.74898 0.85878 0.0
C176 C 0.8863 0.75336 0.84302 0.0
C177 C 0.83654 0.75762 0.85176 0.0
C178 C 0.81056 0.78084 0.96071 0.0
C179 C 0.65401 0.81174 0.9472 0.0
O180 O 0.71615 0.9169 0.99876 0.0
O181 O 0.78872 0.87485 0.9991 0.0
O182 O 0.68852 0.93085 0.94929 0.0
O183 O 0.74903 0.90176 0.93094 0.0
O184 O 0.82097 0.90945 0.95906 0.0
O185 O 0.82927 0.87981 0.92059 0.0
O186 O 0.77317 0.82383 0.88606 0.0
O187 O 0.76548 0.7531 0.90627 0.0
O188 O 0.83265 0.79657 0.94168 0.0
O189 O 0.7644 0.7973 0.95983 0.0
O190 O 0.6815 0.81268 0.92726 0.0
O191 O 0.67473 0.82915 0.96728 0.0
H192 H 0.68946 0.91009 1.04932 0.0
H193 H 0.71025 0.92438 0.09177 0.0
H194 H 0.86959 0.9435 0.07379 0.0
H195 H 0.84919 0.92698 1.0316 0.0
H196 H 0.86361 0.73932 0.91075 0.0
H197 H 0.95122 0.73675 0.89543 0.0
H198 H 0.89251 0.75715 0.82406 0.0
H199 H 0.8053 0.76578 0.8395 0.0
La200 La 0.43867 0.49874 0.71322 0.0
La201 La 0.4777 0.50757 0.66502 0.0
C202 C 0.42147 0.51801 0.75689 0.0
C203 C 0.4121 0.53197 0.78251 0.0
C204 C 0.39414 0.49543 0.79906 0.0
C205 C 0.38769 0.50836 0.82332 0.0
C206 C 0.39808 0.5585 0.83167 0.0
C207 C 0.41534 0.59518 0.81501 0.0
C208 C 0.4227 0.58199 0.79087 0.0
C209 C 0.37628 0.46272 0.67835 0.0
C210 C 0.4094 0.59965 0.6811 0.0
C211 C 0.50323 0.48556 0.62323 0.0
C212 C 0.55278 0.466 0.61527 0.0
C213 C 0.59411 0.46532 0.63141 0.0
C214 C 0.64429 0.46838 0.62298 0.0
C215 C 0.65313 0.47331 0.59833 0.0
C216 C 0.61199 0.46134 0.58256 0.0
C217 C 0.56186 0.45929 0.591 0.0
C218 C 0.53977 0.55349 0.69587 0.0
C219 C 0.50024 0.40268 0.69543 0.0
O220 O 0.39652 0.48244 0.74506 0.0
O221 O 0.45556 0.54206 0.74403 0.0
O222 O 0.38028 0.44198 0.69941 0.0
O223 O 0.40366 0.50196 0.6787 0.0
O224 O 0.41348 0.57816 0.70271 0.0
O225 O 0.42583 0.57374 0.66233 0.0
O226 O 0.50559 0.53209 0.632 0.0
O227 O 0.47631 0.45462 0.63665 0.0
O228 O 0.53034 0.56796 0.67428 0.0
O229 O 0.51646 0.51069 0.69946 0.0
O230 O 0.50246 0.42831 0.67494 0.0
O231 O 0.48072 0.42522 0.71455 0.0
H232 H 0.38588 0.45652 0.79333 0.0
H233 H 0.3744 0.47916 0.83564 0.0
H234 H 0.42349 0.63411 0.82074 0.0
H235 H 0.43655 0.61117 0.77867 0.0
H236 H 0.58736 0.4689 0.65037 0.0
H237 H 0.67501 0.47438 0.63573 0.0
H238 H 0.61668 0.46129 0.56338 0.0
H239 H 0.53027 0.4583 0.57836 0.0
La240 La 0.8204 0.19482 0.46995 0.0
La241 La 0.81472 0.23894 0.42117 0.0
C242 C 0.81961 0.18446 0.51508 0.0
C243 C 0.80675 0.16765 0.53995 0.0
C244 C 0.83966 0.18218 0.55875 0.0
C245 C 0.82614 0.1739 0.58275 0.0
C246 C 0.77943 0.15022 0.58875 0.0
C247 C 0.74715 0.13381 0.5699 0.0
C248 C 0.76043 0.14283 0.54578 0.0
C249 C 0.85434 0.13524 0.43356 0.0
C250 C 0.72993 0.1589 0.43623 0.0
C251 C 0.83678 0.27708 0.38154 0.0
C252 C 0.88154 0.30952 0.37597 0.0
C253 C 0.89532 0.34966 0.39143 0.0
C254 C 0.93215 0.38556 0.38496 0.0
C255 C 0.95543 0.38339 0.36245 0.0
C256 C 0.94708 0.33828 0.34859 0.0
C257 C 0.91 0.30207 0.35521 0.0
C258 C 0.75463 0.28826 0.45197 0.0
C259 C 0.9168 0.26056 0.45317 0.0
O260 O 0.85063 0.15851 0.5012 0.0
O261 O 0.78741 0.21341 0.50308 0.0
O262 O 0.8312 0.11742 0.45244 0.0
O263 O 0.85892 0.18234 0.4371 0.0
O264 O 0.74317 0.17052 0.45852 0.0
O265 O 0.75826 0.17545 0.41797 0.0
O266 O 0.80407 0.29788 0.39627 0.0
O267 O 0.84592 0.22882 0.38674 0.0
O268 O 0.74206 0.27323 0.43077 0.0
O269 O 0.8 0.27129 0.45607 0.0
O270 O 0.89065 0.26895 0.43309 0.0
O271 O 0.89551 0.23431 0.47087 0.0
H272 H 0.8753 0.20187 0.5549 0.0
H273 H 0.8517 0.18724 0.59672 0.0
H274 H 0.71079 0.11568 0.57386 0.0
H275 H 0.73399 0.13158 0.53176 0.0
H276 H 0.87553 0.35527 0.40807 0.0
H277 H 0.93872 0.41722 0.39694 0.0
H278 H 0.96504 0.33286 0.33141 0.0
H279 H 0.90144 0.2702 0.34341 0.0
La280 La 0.12607 0.5902 0.21407 0.0
La281 La 0.09054 0.59392 0.16425 0.0
C282 C 0.13468 0.58126 0.25913 0.0
C283 C 0.13862 0.57302 0.28578 0.0
C284 C 0.16165 0.60914 0.30124 0.0
C285 C 0.16826 0.5984 0.3259 0.0
C286 C 0.15476 0.55003 0.33571 0.0
C287 C 0.129 0.51562 0.32024 0.0
C288 C 0.12061 0.52708 0.29599 0.0
C289 C 0.19756 0.61783 0.18151 0.0
C290 C 0.15738 0.49799 0.18009 0.0
C291 C 0.07737 0.61692 0.12097 0.0
C292 C 0.0952 0.59168 0.09915 0.0
C293 C 0.08714 0.53898 0.09557 0.0
C294 C 0.11853 0.51193 0.07994 0.0
C295 C 0.15975 0.53658 0.06845 0.0
C296 C 0.16439 0.59015 0.07047 0.0
C297 C 0.13119 0.61761 0.08509 0.0
C298 C 1.03319 0.53195 0.19055 0.0
C299 C 0.06308 0.68958 0.19692 0.0
O300 O 0.15846 0.61723 0.24704 0.0
O301 O 0.1058 0.55178 0.24573 0.0
O302 O 0.20656 0.58937 0.20017 0.0
O303 O 0.15095 0.62991 0.18274 0.0
O304 O 0.14609 0.51192 0.20225 0.0
O305 O 0.14485 0.52852 0.16187 0.0
O306 O 0.11493 0.63416 0.13419 0.0
O307 O 1.04272 0.59323 0.13375 0.0
O308 O 0.04923 0.52293 0.16912 0.0
O309 O 0.0512 0.57561 0.19721 0.0
O310 O 0.0518 0.66342 0.17733 0.0
O311 O 0.09221 0.66873 0.21395 0.0
H312 H 0.17503 0.64558 0.29427 0.0
H313 H 0.18602 0.62724 0.33716 0.0
H314 H 0.11482 0.47933 0.32673 0.0
H315 H 0.10125 0.49876 0.28501 0.0
H316 H 0.05947 0.51787 0.10611 0.0
H317 H 0.11339 0.47076 0.07854 0.0
H318 H 0.19491 0.61092 1.06188 0.0
H319 H 0.13683 0.65855 0.08719 0.0
La320 La 0.82278 0.7375 0.71459 0.0
La321 La 0.8266 0.69107 0.66741 0.0
C322 C 0.8318 0.76453 0.75713 0.0
C323 C 0.8816 0.77752 0.76816 0.0
C324 C 0.88661 0.8192 0.78371 0.0
C325 C 0.93422 0.82995 0.79429 0.0
C326 C 0.97786 0.79877 0.78957 0.0
C327 C 0.97359 0.76275 0.77102 0.0
C328 C 0.92595 0.75112 0.76112 0.0
C329 C 0.78589 0.80038 0.68102 0.0
C330 C 0.92569 0.75324 0.6864 0.0
C331 C 0.8348 0.67742 0.62227 0.0
C332 C 0.81384 0.66939 0.59741 0.0
C333 C 0.84642 0.65015 0.57951 0.0
C334 C 0.8295 0.64453 0.55565 0.0
C335 C 0.7785 0.65592 0.54885 0.0
C336 C 0.7468 0.67753 0.56672 0.0
C337 C 0.76418 0.68443 0.59049 0.0
C338 C 0.86208 0.63281 0.70436 0.0
C339 C 0.7306 0.66273 0.69749 0.0
O340 O 0.81702 0.7961 0.74033 0.0
O341 O 0.82584 0.71635 0.75083 0.0
O342 O 0.81821 0.81208 0.69758 0.0
O343 O 0.77807 0.75205 0.68241 0.0
O344 O 0.90449 0.7489 0.7076 0.0
O345 O 0.89929 0.73761 0.66738 0.0
O346 O 0.83463 0.63994 0.63793 0.0
O347 O 0.82844 0.72212 0.63255 0.0
O348 O 0.83843 0.61474 0.68569 0.0
O349 O 0.86828 0.67967 0.70025 0.0
O350 O 0.74742 0.66917 0.67537 0.0
O351 O 0.75633 0.68329 0.71582 0.0
H352 H 0.85341 0.84197 0.78849 0.0
H353 H 0.93503 0.85995 0.80764 0.0
H354 H 1.00622 0.74057 0.76527 0.0
H355 H 0.92376 0.72029 0.74835 0.0
H356 H 0.88561 0.63987 0.58393 0.0
H357 H 0.85619 0.62993 0.54253 0.0
H358 H 0.7082 0.68921 0.56244 0.0
H359 H 0.73868 0.70145 0.60348 0.0
La360 La 0.09456 0.06833 0.969 0.0
La361 La 0.13298 0.07854 0.9202 0.0
C362 C 0.06324 0.09334 1.00925 0.0
C363 C 1.01679 0.12471 1.01205 0.0
C364 C 0.9808 0.12606 0.99333 0.0
C365 C 0.93476 0.15264 0.99571 0.0
C366 C 0.92271 0.1774 1.01724 0.0
C367 C 0.96201 0.18093 1.03489 0.0
C368 C 1.00838 0.15443 1.03235 0.0
C369 C 1.03502 1.02055 0.93849 0.0
C370 C 0.06958 0.17256 0.93795 0.0
C371 C 0.14785 0.0612 0.87608 0.0
C372 C 0.15676 0.05016 0.85003 0.0
C373 C 0.1523 0.08937 0.83276 0.0
C374 C 0.15702 0.07853 0.80815 0.0
C375 C 0.16831 1.02844 0.80003 0.0
C376 C 0.17296 0.98924 0.81737 0.0
C377 C 0.16661 0.9998 0.84193 0.0
C378 C 0.19375 0.11644 0.95598 0.0
C379 C 0.16603 0.97835 0.9518 0.0
O380 O 0.05509 1.04771 1.00015 0.0
O381 O 0.10149 0.11692 0.99889 0.0
O382 O 1.04645 1.00514 0.95971 0.0
O383 O 0.0561 0.0644 0.93465 0.0
O384 O 0.07071 0.14804 0.95876 0.0
O385 O 0.08716 0.14948 0.91864 0.0
O386 O 0.1692 0.09959 0.88757 0.0
O387 O 0.11953 1.03195 0.8897 0.0
O388 O 0.19029 0.13638 0.93467 0.0
O389 O 0.1674 0.0766 0.95494 0.0
O390 O 0.16185 1.0002 0.93029 0.0
O391 O 0.14746 1.00219 0.97095 0.0
H392 H 0.98755 0.10479 0.97706 0.0
H393 H 0.90759 0.15078 0.98114 0.0
H394 H 0.95592 0.20042 1.05169 0.0
H395 H 1.03654 0.15539 1.04663 0.0
H396 H 0.1439 0.12838 0.83826 0.0
H397 H 0.15239 0.10953 0.79539 0.0
H398 H 0.18111 0.95019 0.81185 0.0
H399 H 0.16984 0.96853 0.85465 0.0
La400 La 0.74916 0.35991 0.21818 0.0
La401 La 0.73349 0.38893 0.16804 0.0
C402 C 0.74996 0.35967 0.26285 0.0
C403 C 0.78533 0.38941 0.27786 0.0
C404 C 0.80191 0.37008 0.29986 0.0
C405 C 0.84259 0.39388 0.31177 0.0
C406 C 0.86777 0.43633 0.30153 0.0
C407 C 0.84979 0.45704 0.28013 0.0
C408 C 0.80861 0.43382 0.26849 0.0
C409 C 0.79351 0.29383 0.1891 0.0
C410 C 0.64084 0.33158 0.19215 0.0
C411 C 0.73547 0.39974 0.12271 0.0
C412 C 0.76377 0.40851 0.09975 0.0
C413 C 0.74134 0.43989 0.0822 0.0
C414 C 0.76327 0.44523 1.05942 0.0
C415 C 0.81077 0.42203 1.05326 0.0
C416 C 0.8302 0.38657 0.07054 0.0
C417 C 0.80792 0.38085 0.09338 0.0
C418 C 0.69915 0.45546 0.2017 0.0
C419 C 0.83869 0.42123 0.19343 0.0
O420 O 0.71748 0.38695 0.25021 0.0
O421 O 0.77214 0.32398 0.25009 0.0
O422 O 0.81097 0.30873 0.20956 0.0
O423 O 0.74982 0.31523 0.1855 0.0
O424 O 0.66901 0.33201 0.21209 0.0
O425 O 0.65978 0.3494 0.17188 0.0
O426 O 0.72894 0.43782 0.13766 0.0
O427 O 0.74106 0.35583 0.13388 0.0
O428 O 0.67489 0.44488 0.18196 0.0
O429 O 0.73998 0.43037 0.20091 0.0
O430 O 0.81578 0.40956 0.17289 0.0
O431 O 0.81559 0.41092 0.21383 0.0
H432 H 0.78477 0.33574 0.30735 0.0
H433 H 0.85545 0.37826 0.32866 0.0
H434 H 0.86847 0.49002 0.27214 0.0
H435 H 0.79618 0.44963 0.25171 0.0
H436 H 0.70533 0.45914 0.08581 0.0
H437 H 0.74131 0.46693 1.04648 0.0
H438 H 0.86132 0.36087 1.06679 0.0
H439 H 0.82451 0.35345 0.1058 0.0
La440 La 0.47891 1.00385 0.4697 0.0
La441 La 0.43655 0.99582 0.42097 0.0
C442 C 0.50682 0.9765 0.51058 0.0
C443 C 0.54852 0.94012 0.51592 0.0
C444 C 0.58646 0.93118 0.49875 0.0
C445 C 0.6288 0.90044 0.50399 0.0
C446 C 0.63536 0.8793 0.52696 0.0
C447 C 0.59356 0.88322 0.54307 0.0
C448 C 0.55081 0.91373 0.53761 0.0
C449 C 0.53738 0.05197 0.43865 0.0
C450 C 0.4952 0.89838 0.4384 0.0
C451 C 0.41695 1.01524 0.37734 0.0
C452 C 0.4069 1.02664 0.35129 0.0
C453 C 0.35754 1.03985 0.34285 0.0
C454 C 0.34942 0.05486 0.31884 0.0
C455 C 0.39036 0.05692 0.30248 0.0
C456 C 0.43942 1.04258 0.3108 0.0
C457 C 0.44759 1.02795 0.33478 0.0
C458 C 0.37798 0.9582 0.45704 0.0
C459 C 0.41163 0.09598 0.45259 0.0
O460 O 0.52134 1.01984 0.50072 0.0
O461 O 0.46723 0.9564 0.49962 0.0
O462 O 0.52828 0.06649 0.46028 0.0
O463 O 0.5145 1.00889 0.43494 0.0
O464 O 0.5027 0.92528 0.45825 0.0
O465 O 0.47112 0.9191 0.41991 0.0
O466 O 0.3811 1.00681 0.39321 0.0
O467 O 0.46338 1.01066 0.38608 0.0
O468 O 0.37975 0.9383 0.43567 0.0
O469 O 0.40512 0.99761 0.45607 0.0
O470 O 0.42039 0.07706 0.43093 0.0
O471 O 0.42587 0.06948 0.47184 0.0
H472 H 0.58459 0.95 0.48156 0.0
H473 H 0.65811 0.89686 0.49053 0.0
H474 H 0.59526 0.86673 0.56079 0.0
H475 H 0.52093 0.91872 0.55079 0.0
H476 H 0.32527 1.03977 0.35495 0.0
H477 H 0.31117 0.06569 0.3131 0.0
H478 H 0.4718 1.0436 0.29876 0.0
H479 H 0.48618 1.01835 0.34046 0.0
La480 La 0.2348 0.38276 0.46325 0.0
La481 La 0.23926 0.33614 0.41715 0.0
C482 C 0.24729 0.3981 0.50758 0.0
C483 C 0.25685 0.40245 0.53397 0.0
C484 C 0.24475 0.44697 0.54685 0.0
C485 C 0.26117 0.45289 0.57077 0.0
C486 C 0.29306 0.41595 0.58244 0.0
C487 C 0.29662 0.36802 0.57039 0.0
C488 C 0.28099 0.36223 0.54645 0.0
C489 C 0.20946 0.44916 0.42717 0.0
C490 C 0.32625 0.41245 0.43007 0.0
C491 C 0.22671 0.29517 0.3766 0.0
C492 C 0.19778 0.31267 0.35583 0.0
C493 C 0.22048 0.30354 0.33363 0.0
C494 C 0.2277 0.34479 0.31807 0.0
C495 C 0.21257 0.39424 0.32512 0.0
C496 C 0.17812 0.39928 0.34406 0.0
C497 C 0.16908 0.35768 0.35908 0.0
C498 C 0.29723 0.28574 0.44906 0.0
C499 C 0.13552 0.32259 0.44736 0.0
O500 O 0.20984 0.41996 0.49551 0.0
O501 O 0.27612 0.3682 0.4946 0.0
O502 O 0.23156 0.4616 0.44716 0.0
O503 O 0.19838 0.40202 0.42895 0.0
O504 O 0.31383 0.39917 0.45203 0.0
O505 O 0.2952 0.39914 0.41231 0.0
O506 O 0.20064 0.28208 0.3954 0.0
O507 O 0.26406 0.32637 0.38209 0.0
O508 O 0.30971 0.29825 0.4278 0.0
O509 O 0.25244 0.30389 0.45229 0.0
O510 O 0.15896 0.31724 0.42655 0.0
O511 O 0.15907 0.34548 0.46544 0.0
H512 H 0.22366 0.47788 0.53831 0.0
H513 H 0.24877 0.48729 0.57986 0.0
H514 H 0.31032 0.33364 0.57893 0.0
H515 H 0.28786 0.32579 0.53766 0.0
H516 H 0.24135 0.26819 0.33042 0.0
H517 H 0.25196 0.3396 0.30266 0.0
H518 H 0.16655 0.43644 0.35007 0.0
H519 H 0.15025 0.36501 0.37597 0.0
La520 La 0.93512 1.00759 0.21827 0.0
La521 La 0.97306 1.00884 0.16879 0.0
C522 C 0.92364 1.00359 0.26357 0.0
C523 C 0.91568 1.02967 0.28732 0.0
C524 C 0.86845 0.05234 0.29368 0.0
C525 C 0.85929 0.06922 0.31728 0.0
C526 C 0.89682 0.06354 0.33531 0.0
C527 C 0.94427 1.04183 0.32885 0.0
C528 C 0.95349 1.02517 0.3053 0.0
C529 C 0.87077 0.9702 0.184 0.0
C530 C 0.90105 0.10038 0.18852 0.0
C531 C 0.97399 1.01511 0.12388 0.0
C532 C 0.93728 1.03951 0.10749 0.0
C533 C 0.95074 0.04892 0.08379 0.0
C534 C 0.91748 0.07665 0.06902 0.0
C535 C 0.87118 0.0966 0.07802 0.0
C536 C 0.85676 0.0851 0.10134 0.0
C537 C 0.8893 0.05605 0.11583 0.0
C538 C 1.04285 1.04604 0.19914 0.0
C539 C 0.99832 0.90857 0.19831 0.0
O540 O 0.88599 1.00201 0.24806 0.0
O541 O 0.96826 1.00673 0.25296 0.0
O542 O 0.85625 0.99512 0.20284 0.0
O543 O 0.91817 0.96536 0.18647 0.0
O544 O 0.91535 0.08737 0.21035 0.0
O545 O 0.91329 0.07003 0.17044 0.0
O546 O 0.95644 0.97547 0.13556 0.0
O547 O 0.99907 1.04656 0.13787 0.0
O548 O 0.05168 1.01641 0.18099 0.0
O549 O 0.99428 0.05335 0.20015 0.0
O550 O 0.99692 0.92984 0.17677 0.0
O551 O 0.98061 0.9344 0.21714 0.0
H552 H 0.83796 0.05586 0.28059 0.0
H553 H 0.82239 0.08586 0.32158 0.0
H554 H 0.97402 1.03681 0.34221 0.0
H555 H 0.9899 1.00709 0.30133 0.0
H556 H 0.98724 1.0359 0.07687 0.0
H557 H 0.92873 0.08405 1.05077 0.0
H558 H 0.82112 0.09966 0.10849 0.0
H559 H 0.87714 1.04732 0.13364 0.0
La560 La 0.33482 0.68464 0.9686 0.0
La561 La 0.32771 0.73469 0.92301 0.0
C562 C 0.34511 0.66481 1.01326 0.0
C563 C 0.32361 0.66003 1.03824 0.0
C564 C 0.30711 0.61231 1.04748 0.0
C565 C 0.29256 0.60695 0.07167 0.0
C566 C 0.29399 0.64902 0.08758 0.0
C567 C 0.31272 0.69609 0.07855 0.0
C568 C 0.32676 0.7016 1.05436 0.0
C569 C 0.36451 0.62692 0.93069 0.0
C570 C 0.23762 0.65996 0.93922 0.0
C571 C 0.32121 0.7788 0.88373 0.0
C572 C 0.34102 0.83156 0.87989 0.0
C573 C 0.31628 0.87383 0.89039 0.0
C574 C 0.33748 0.92293 0.88912 0.0
C575 C 0.38385 0.93206 0.87689 0.0
C576 C 0.41021 0.88859 0.86784 0.0
C577 C 0.38876 0.83937 0.86906 0.0
C578 C 0.30074 0.79787 0.95837 0.0
C579 C 0.43451 0.74593 0.94878 0.0
O580 O 0.33483 0.63015 0.997 0.0
O581 O 0.3497 0.71053 1.0037 0.0
O582 O 0.34269 0.60872 0.94967 0.0
O583 O 0.37227 0.67329 0.93486 0.0
O584 O 0.25388 0.66871 0.96126 0.0
O585 O 0.26553 0.67609 0.92082 0.0
O586 O 0.28221 0.77484 0.89821 0.0
O587 O 0.35587 0.74357 0.88806 0.0
O588 O 0.33482 0.80616 0.94225 0.0
O589 O 0.2885 0.75057 0.95638 0.0
O590 O 0.41024 0.74739 0.92801 0.0
O591 O 0.41006 0.72696 0.96769 0.0
H592 H 0.30614 0.57873 1.03608 0.0
H593 H 0.27957 0.56978 0.07794 0.0
H594 H 0.31585 0.72911 0.09023 0.0
H595 H 0.34113 0.73851 1.04841 0.0
H596 H 0.28026 0.86927 0.89973 0.0
H597 H 0.31559 0.95386 0.89683 0.0
H598 H 0.44656 0.89229 0.85878 0.0
H599 H 0.40978 0.80728 0.86159 0.0
La600 La 0.62773 0.08037 0.71628 0.0
La601 La 0.59473 0.08325 0.66585 0.0
C602 C 0.63272 0.08008 0.76196 0.0
C603 C 0.64009 0.05065 0.78498 0.0
C604 C 0.68085 1.01582 0.78878 0.0
C605 C 0.6902 0.9943 0.81164 0.0
C606 C 0.65961 1.00751 0.8315 0.0
C607 C 0.61809 1.04115 0.82744 0.0
C608 C 0.60849 0.06219 0.80462 0.0
C609 C 0.69601 0.11803 0.68432 0.0
C610 C 0.66034 0.98559 0.68637 0.0
C611 C 0.59733 0.07938 0.62096 0.0
C612 C 0.63256 0.0511 0.60542 0.0
C613 C 0.61537 1.03223 0.58346 0.0
C614 C 0.64582 0.99786 0.57072 0.0
C615 C 0.69329 0.98134 0.57999 0.0
C616 C 0.71241 1.00362 0.60087 0.0
C617 C 0.68196 1.03812 0.6136 0.0
C618 C 0.52025 0.04933 0.69348 0.0
C619 C 0.56913 0.18315 0.6956 0.0
O620 O 0.67196 0.08717 0.74784 0.0
O621 O 0.59012 0.07436 0.74975 0.0
O622 O 0.70829 0.08931 0.70249 0.0
O623 O 0.64867 0.12419 0.68572 0.0
O624 O 0.65112 1.00162 0.7083 0.0
O625 O 0.64631 1.01452 0.66777 0.0
O626 O 0.61815 0.11611 0.63352 0.0
O627 O 0.56698 0.05075 0.6339 0.0
O628 O 0.51536 0.08047 0.67551 0.0
O629 O 0.56802 1.03888 0.69622 0.0
O630 O 0.57103 0.16237 0.67398 0.0
O631 O 0.58604 0.15647 0.71457 0.0
H632 H 0.70629 1.00614 0.77423 0.0
H633 H 0.72241 0.96845 0.814 0.0
H634 H 0.59373 0.05236 0.84216 0.0
H635 H 0.57707 0.08912 0.80251 0.0
H636 H 0.57758 1.0421 0.57674 0.0
H637 H 0.63117 0.98213 0.55418 0.0
H638 H 0.74945 0.99221 0.60786 0.0
H639 H 0.6959 0.05294 0.63036 0.0
C640 C 0.28739 0.47557 0.28311 0.0
C641 C 0.33426 0.46884 0.29553 0.0
C642 C 0.28766 0.45378 0.33171 0.0
C643 C 0.24474 0.43799 0.31735 0.0
N644 N 0.20059 0.44486 0.27941 0.0
N645 N 0.37284 0.49084 0.33277 0.0
C646 C 0.24288 0.45372 0.29313 0.0
C647 C 0.33075 0.47557 0.32026 0.0
N648 N 0.28581 0.49735 0.26112 0.0
N649 N 0.29178 0.44313 0.3554 0.0
H650 H 0.40612 0.50243 0.32393 0.0
H651 H 0.3733 0.49266 0.3514 0.0
H652 H 0.26321 0.4255 0.36544 0.0
H653 H 0.26321 0.4255 0.36544 0.0
H654 H 0.31816 0.51383 0.25327 0.0
H655 H 0.31816 0.51383 0.25327 0.0
H656 H 0.1992 0.45483 0.26134 0.0
H657 H 0.16771 0.42756 0.28634 0.0
C658 C 0.70089 0.51061 0.56501 0.0
C659 C 0.69627 0.50705 0.58991 0.0
C660 C 0.67028 0.59592 0.59241 0.0
C661 C 0.65508 0.59265 0.56823 0.0
N662 N 0.66249 0.55228 0.53006 0.0
N663 N 0.72685 0.55762 0.62234 0.0
C664 C 0.67502 0.55249 0.55366 0.0
C665 C 0.69884 0.55435 0.60197 0.0
N666 N 0.72034 0.46957 0.55301 0.0
N667 N 0.65464 0.63595 0.60624 0.0
H668 H 0.7326 0.59216 0.63143 0.0
H669 H 0.7326 0.59216 0.63143 0.0
H670 H 0.63462 0.66716 0.59903 0.0
H671 H 0.66041 0.6369 0.62467 0.0
H672 H 0.72347 0.46749 0.53453 0.0
H673 H 0.73518 0.43808 0.5624 0.0
H674 H 0.67152 0.52272 0.51826 0.0
H675 H 0.67152 0.52272 0.51826 0.0
C676 C 0.41244 0.98895 0.82732 0.0
C677 C 0.35887 0.99797 0.82495 0.0
C678 C 0.35719 1.02031 0.86692 0.0
C679 C 0.39889 0.98621 0.8697 0.0
N680 N 0.48468 0.98618 0.85456 0.0
N681 N 0.2867 1.04402 0.84116 0.0
C682 C 0.43349 0.98918 0.85057 0.0
C683 C 0.33352 1.02217 0.84423 0.0
N684 N 0.44276 0.9771 0.80847 0.0
N685 N 0.3372 1.04586 0.88579 0.0
H686 H 0.26936 1.04526 0.82436 0.0
H687 H 0.26701 0.06114 0.85526 0.0
H688 H 0.35355 1.04344 0.90283 0.0
H689 H 0.35355 1.04344 0.90283 0.0
H690 H 0.42937 0.97613 0.79089 0.0
H691 H 0.42937 0.97613 0.79089 0.0
H692 H 0.5108 0.98807 0.84053 0.0
H693 H 0.49921 0.98425 0.87196 0.0
C694 C 0.23137 0.41564 1.05557 0.0
C695 C 0.22215 0.41801 1.03086 0.0
C696 C 0.21353 0.50974 1.0324 0.0
C697 C 0.19955 0.50413 1.05683 0.0
N698 N 0.22031 0.4573 0.09334 0.0
N699 N 0.25986 0.47043 1.00001 0.0
C700 C 0.21802 0.45949 0.06917 0.0
C701 C 0.23533 0.46637 1.02119 0.0
N702 N 0.24445 0.37027 1.06597 0.0
N703 N 0.20291 0.5527 1.01939 0.0
H704 H 0.27375 0.43816 0.99101 0.0
H705 H 0.27375 0.43816 0.99101 0.0
H706 H 0.18165 0.58352 1.02573 0.0
H707 H 0.21362 0.55574 1.00156 0.0
H708 H 0.24877 0.36648 0.08444 0.0
H709 H 0.25094 0.33754 1.0556 0.0
H710 H 0.21145 0.48884 0.10406 0.0
H711 H 0.21145 0.48884 0.10406 0.0
C712 C 1.00448 0.72466 0.8349 0.0
C713 C 0.97962 0.76108 0.84959 0.0
C714 C 1.01951 0.82931 0.82641 0.0
C715 C 1.0213 0.79403 0.8074 0.0
N716 N 0.06101 0.71069 0.80198 0.0
N717 N 0.97847 0.85021 0.863 0.0
C718 C 1.03086 0.74282 0.81477 0.0
C719 C 0.99373 0.81377 0.84724 0.0
N720 N 1.00153 0.67332 0.83911 0.0
N721 N 1.03208 0.87938 0.8231 0.0
H722 H 0.9576 0.84154 0.87833 0.0
H723 H 0.9576 0.84154 0.87833 0.0
H724 H 1.04778 0.89248 0.80708 0.0
H725 H 1.04778 0.89248 0.80708 0.0
H726 H 0.9821 0.65803 0.85377 0.0
H727 H 0.9821 0.65803 0.85377 0.0
H728 H 0.08149 0.72329 0.78708 0.0
H729 H 0.08149 0.72329 0.78708 0.0
C730 C 0.90713 0.48403 0.33496 0.0
C731 C 0.91381 0.45697 0.3134 0.0
C732 C 0.99599 0.42585 0.32818 0.0
C733 C 0.97571 0.43211 0.35125 0.0
N734 N 0.94077 0.50373 0.37373 0.0
N735 N 0.97479 0.41626 0.28675 0.0
C736 C 0.9424 0.47492 0.35357 0.0
C737 C 0.96229 0.43424 0.30871 0.0
N738 N 0.86611 0.51566 0.33805 0.0
N739 N 1.0421 0.40241 0.32534 0.0
H740 H 0.95079 0.42045 0.2719 0.0
H741 H 0.95079 0.42045 0.2719 0.0
H742 H 0.06456 0.39271 0.34017 0.0
H743 H 0.05711 0.39432 0.3085 0.0
H744 H 0.85946 0.53465 0.35416 0.0
H745 H 0.83989 0.52267 0.32426 0.0
H746 H 0.96619 0.49831 0.38796 0.0
H747 H 0.96619 0.49831 0.38796 0.0
C748 C 0.85027 0.18596 1.06574 0.0
C749 C 0.84116 0.13247 1.06304 0.0
C750 C 0.83463 0.14532 1.02032 0.0
C751 C 0.86751 0.18794 1.02346 0.0
N752 N 0.87155 0.26566 1.04632 0.0
N753 N 0.80302 0.06736 1.03785 0.0
C754 C 0.85997 0.21503 1.04491 0.0
C755 C 0.82468 0.11448 1.04047 0.0
N756 N 0.85441 0.20775 0.08775 0.0
N757 N 0.81636 0.13274 0.99834 0.0
H758 H 0.79534 1.04346 1.05242 0.0
H759 H 0.79534 1.04346 1.05242 0.0
H760 H 0.822 0.15703 0.98372 0.0
H761 H 0.79356 0.10026 0.99553 0.0
H762 H 0.86324 0.24664 0.08998 0.0
H763 H 0.84756 0.18702 0.10335 0.0
H764 H 0.88197 0.28671 1.03121 0.0
H765 H 0.88197 0.28671 1.03121 0.0
C766 C 0.69188 0.84875 0.55954 0.0
C767 C 0.68847 0.86549 0.53568 0.0
C768 C 0.73669 0.94174 0.54534 0.0
C769 C 0.71823 0.93634 0.5689 0.0
N770 N 0.6967 0.87784 0.60084 0.0
N771 N 0.75012 0.89737 0.50762 0.0
C772 C 0.70379 0.88658 0.57709 0.0
C773 C 0.7266 0.90124 0.52914 0.0
N774 N 0.67684 0.8001 0.56504 0.0
N775 N 0.75917 0.98647 0.53829 0.0
H776 H 0.74188 0.86667 0.4962 0.0
H777 H 0.7796 0.92192 0.50235 0.0
H778 H 0.76666 1.01597 0.55048 0.0
H779 H 0.76875 0.99409 0.52058 0.0
H780 H 0.67878 0.7846 0.58217 0.0
H781 H 0.66461 0.77505 0.55159 0.0
H782 H 0.68222 0.84361 0.60771 0.0
H783 H 0.70607 0.90544 0.61363 0.0
C784 C 0.22762 0.09782 0.99749 0.0
C785 C 0.22003 0.13482 0.97903 0.0
C786 C 0.24939 0.20085 1.00828 0.0
C787 C 0.24688 0.16396 1.0272 0.0
N788 N 0.22115 0.07895 1.03948 0.0
N789 N 0.22881 0.22367 0.96701 0.0
C790 C 0.23174 0.11319 1.02165 0.0
C791 C 0.23247 0.18715 0.98443 0.0
N792 N 0.23625 1.04775 0.99178 0.0
N793 N 0.2696 0.24827 1.01291 0.0
H794 H 0.2207 0.21495 0.94928 0.0
H795 H 0.23159 0.26297 0.97024 0.0
H796 H 0.28182 0.25921 1.02992 0.0
H797 H 0.27751 0.27552 0.99981 0.0
H798 H 0.24572 1.01968 1.00438 0.0
H799 H 0.24205 1.03681 0.97421 0.0
H800 H 0.20585 1.04259 1.03608 0.0
H801 H 0.22237 0.08882 1.05753 0.0
C802 C 0.71368 0.5301 0.26046 0.0
C803 C 0.66466 0.5232 0.27108 0.0
C804 C 0.63259 0.48839 0.23241 0.0
C805 C 0.68332 0.48797 0.22319 0.0
N806 N 0.76553 0.52934 0.22441 0.0
N807 N 0.57661 0.49643 0.26693 0.0
C808 C 0.72185 0.51522 0.23609 0.0
C809 C 0.62378 0.50302 0.25685 0.0
N810 N 0.75333 0.54852 0.27405 0.0
N811 N 0.59239 0.47821 0.21748 0.0
H812 H 0.56781 0.50943 0.28404 0.0
H813 H 0.54702 0.47579 0.25888 0.0
H814 H 0.5971 0.46943 0.19951 0.0
H815 H 0.55416 0.4834 0.22219 0.0
H816 H 0.79111 0.55065 0.26827 0.0
H817 H 0.7494 0.55883 0.29192 0.0
H818 H 0.79399 0.5527 0.23164 0.0
H819 H 0.77053 0.52222 0.20628 0.0
C820 C 0.32856 0.96858 0.52086 0.0
C821 C 0.31504 0.91772 0.52724 0.0
C822 C 0.33775 0.89015 0.486 0.0
C823 C 0.34875 0.94219 0.47955 0.0
N824 N 0.32888 1.03039 0.48902 0.0
N825 N 0.29799 0.83102 0.51444 0.0
C826 C 0.33692 0.98119 0.49652 0.0
C827 C 0.31717 0.87865 0.50936 0.0
N828 N 0.33398 1.00539 0.53807 0.0
N829 N 0.34702 0.8516 0.4701 0.0
H830 H 0.28336 0.82146 0.53117 0.0
H831 H 0.29304 0.80224 0.50174 0.0
H832 H 0.35918 0.85828 0.45272 0.0
H833 H 0.34544 0.81272 0.4745 0.0
H834 H 0.34843 1.04196 0.5344 0.0
H835 H 0.32929 0.99776 0.55622 0.0
H836 H 0.3164 0.05972 0.50027 0.0
H837 H 0.32695 1.03946 0.47099 0.0
C838 C 0.83796 0.57685 0.74106 0.0
C839 C 0.87477 0.60657 0.72817 0.0
C840 C 0.9306 0.60516 0.76427 0.0
C841 C 0.89415 0.57477 0.77689 0.0
N842 N 0.81957 0.52043 0.77461 0.0
N843 N 0.96229 0.63552 0.72589 0.0
C844 C 0.84974 0.55741 0.76446 0.0
C845 C 0.92301 0.61642 0.73935 0.0
N846 N 0.79064 0.56852 0.73147 0.0
N847 N 0.97172 0.62505 0.77632 0.0
H848 H 0.9586 0.64276 0.70764 0.0
H849 H 0.99977 0.63933 0.73213 0.0
H850 H 0.97757 0.6196 0.79457 0.0
H851 H 0.99801 0.6502 0.76873 0.0
H852 H 0.75967 0.55431 0.74114 0.0
H853 H 0.78158 0.57862 0.71413 0.0
H854 H 0.79004 0.50177 0.76552 0.0
H855 H 0.82723 0.50454 0.79136 0.0
C856 C 0.8008 0.98699 0.15167 0.0
C857 C 0.84095 0.95566 0.16131 0.0
C858 C 0.83787 0.90366 0.124 0.0
C859 C 0.80562 0.94085 0.11281 0.0
N860 N 0.75674 1.0191 0.11617 0.0
N861 N 0.89129 0.87829 0.15769 0.0
C862 C 0.7865 0.98232 0.12686 0.0
C863 C 0.85739 0.91226 0.1477 0.0
N864 N 0.77581 1.02101 0.16608 0.0
N865 N 0.84757 0.85844 0.11239 0.0
H866 H 0.89896 0.87727 0.17597 0.0
H867 H 0.91206 0.85137 0.14797 0.0
H868 H 0.83249 0.84991 0.09558 0.0
H869 H 0.86649 0.82728 0.12007 0.0
H870 H 0.74343 1.04159 0.16082 0.0
H871 H 0.78317 1.02443 0.18422 0.0
H872 H 0.74559 0.05307 0.12447 0.0
H873 H 0.74696 1.01828 0.09811 0.0
C874 C 0.33549 0.57738 0.8934 0.0
C875 C 0.37538 0.60129 0.90683 0.0
C876 C 0.43278 0.589 0.87207 0.0
C877 C 0.39059 0.57268 0.85771 0.0
N878 N 0.2991 0.5611 0.85422 0.0
N879 N 0.46288 0.63144 0.90815 0.0
C880 C 0.34125 0.56939 0.8683 0.0
C881 C 0.42421 0.60774 0.89583 0.0
N882 N 0.29217 0.56121 0.90457 0.0
N883 N 0.48152 0.5844 0.86344 0.0
H884 H 0.46041 0.64038 0.92625 0.0
H885 H 0.49667 0.64399 0.90018 0.0
H886 H 0.48947 0.56961 0.84656 0.0
H887 H 0.51427 0.59054 0.87376 0.0
H888 H 0.26359 0.53964 0.89622 0.0
H889 H 0.28826 0.56365 0.92288 0.0
H890 H 0.26166 0.56398 0.86052 0.0
H891 H 0.30117 0.55671 0.83575 0.0
C892 C 0.78887 0.11265 0.63093 0.0
C893 C 0.76315 0.14642 0.6147 0.0
C894 C 0.70785 0.17496 0.6479 0.0
C895 C 0.72746 0.13508 0.66278 0.0
N896 N 0.80353 0.08673 0.67224 0.0
N897 N 0.6992 0.21212 0.60826 0.0
C898 C 0.77335 0.11024 0.65552 0.0
C899 C 0.72321 0.17855 0.62344 0.0
N900 N 0.82612 0.08052 0.62255 0.0
N901 N 0.67731 0.21188 0.6578 0.0
H902 H 0.71179 0.21927 0.59093 0.0
H903 H 0.66521 0.23108 0.61239 0.0
H904 H 0.67026 0.21328 0.6761 0.0
H905 H 0.66449 0.24447 0.64876 0.0
H906 H 0.84271 0.05131 0.6327 0.0
H907 H 0.83772 0.08031 0.60475 0.0
H908 H 0.83962 0.07163 0.66857 0.0
H909 H 0.79501 0.08756 0.69038 0.0
C910 C 0.23117 0.51492 0.39385 0.0
C911 C 0.19428 0.4851 0.40647 0.0
C912 C 0.12903 0.5134 0.3768 0.0
C913 C 0.1677 0.53454 0.36165 0.0
N914 N 0.25786 0.55401 0.35649 0.0
N915 N 0.10509 0.47783 0.41545 0.0
C916 C 0.21919 0.53607 0.37067 0.0
C917 C 0.14226 0.4901 0.39934 0.0
N918 N 0.27754 0.5242 0.40429 0.0
N919 N 0.07921 0.5142 0.36937 0.0
H920 H 0.11382 0.46418 0.43253 0.0
H921 H 0.06632 0.48596 0.41298 0.0
H922 H 0.06627 0.53706 0.35526 0.0
H923 H 0.05169 0.48991 0.37656 0.0
H924 H 0.30488 0.54943 0.39757 0.0
H925 H 0.28592 0.51161 0.42141 0.0
H926 H 0.29646 0.55298 0.36121 0.0
H927 H 0.25292 0.56462 0.33874 0.0
C928 C 0.73248 0.68381 0.50994 0.0
C929 C 0.75846 0.64503 0.5234 0.0
C930 C 0.74747 0.58697 0.48833 0.0
C931 C 0.71234 0.62183 0.47727 0.0
N932 N 0.67321 0.70599 0.47794 0.0
N933 N 0.78609 0.55629 0.52519 0.0
C934 C 0.70523 0.67083 0.48833 0.0
C935 C 0.76549 0.59599 0.51231 0.0
N936 N 0.73609 0.73392 0.51708 0.0
N937 N 0.76348 0.5446 0.47614 0.0
H938 H 0.79433 0.5586 0.54335 0.0
H939 H 0.78956 0.51898 0.51872 0.0
H940 H 0.75113 0.53635 0.45897 0.0
H941 H 0.79319 0.52079 0.48191 0.0
H942 H 0.72222 0.76473 0.50706 0.0
H943 H 0.75798 0.74532 0.53178 0.0
H944 H 0.66016 0.73874 0.48673 0.0
H945 H 0.65847 0.70169 0.46074 0.0
C946 C 0.13674 0.98654 0.76129 0.0
C947 C 0.17426 1.01652 0.77353 0.0
C948 C 0.22721 1.01573 0.73679 0.0
C949 C 0.19125 0.98269 0.7252 0.0
N950 N 0.10326 0.95638 0.72322 0.0
N951 N 0.2493 0.07043 0.77054 0.0
C952 C 0.14352 0.97385 0.73659 0.0
C953 C 0.21733 1.03487 0.76042 0.0
N954 N 0.09435 0.96981 0.77324 0.0
N955 N 0.27237 1.02664 0.72582 0.0
H956 H 0.24578 0.08302 0.78807 0.0
H957 H 0.27749 0.09021 0.76118 0.0
H958 H 0.27933 1.01546 0.70847 0.0
H959 H 0.30372 1.0439 0.73411 0.0
H960 H 0.06914 0.94249 0.76633 0.0
H961 H 0.08565 0.9815 0.79056 0.0
H962 H 0.06568 0.95525 0.72944 0.0
H963 H 0.10661 0.94827 0.70505 0.0
C964 C 0.81766 0.47228 1.01312 0.0
C965 C 0.83512 0.43152 1.02826 0.0
C966 C 0.88258 0.39704 0.99343 0.0
C967 C 0.86046 0.43431 0.97808 0.0
N968 N 0.79833 0.50129 0.97291 0.0
N969 N 0.91516 0.38631 1.0333 0.0
C970 C 0.82506 0.46967 0.98789 0.0
C971 C 0.87574 0.40092 1.01875 0.0
N972 N 0.80272 0.51776 1.02305 0.0
N973 N 0.91256 0.35934 0.98398 0.0
H974 H 0.92028 0.403 1.05007 0.0
H975 H 0.94735 0.36656 1.0272 0.0
H976 H 0.91778 0.35589 0.96559 0.0
H977 H 0.92757 0.32932 0.99423 0.0
H978 H 0.79429 0.55049 1.01299 0.0
H979 H 0.80671 0.52489 1.0413 0.0
H980 H 0.76912 0.52556 0.97875 0.0
H981 H 0.80168 0.49831 0.9544 0.0
C982 C 0.40546 0.13503 0.24437 0.0
C983 C 0.36847 0.11262 0.22873 0.0
C984 C 0.35399 1.04607 0.26005 0.0
C985 C 0.38259 0.07554 0.27693 0.0
N986 N 0.42955 0.15347 0.28523 0.0
N987 N 0.31017 1.04146 0.2217 0.0
C988 C 0.4066 0.1215 0.26906 0.0
C989 C 0.34374 0.06631 0.23648 0.0
N990 N 0.44212 0.16706 0.23536 0.0
N991 N 0.33826 0.99773 0.26623 0.0
H992 H 0.3043 0.0512 0.20394 0.0
H993 H 0.28609 1.01197 0.22733 0.0
H994 H 0.34513 0.98186 0.28306 0.0
H995 H 0.32252 0.97155 0.25422 0.0
H996 H 0.47225 0.18158 0.24563 0.0
H997 H 0.44671 0.17287 0.21708 0.0
H998 H 0.44298 0.18996 0.28068 0.0
H999 H 0.43044 0.14585 0.30351 0.0
C1000 C 0.34636 0.3964 0.64738 0.0
C1001 C 0.34528 0.44703 0.65654 0.0
C1002 C 0.31979 0.47807 0.6166 0.0
C1003 C 0.31814 0.42706 0.60725 0.0
N1004 N 0.36763 0.349 0.61217 0.0
N1005 N 0.31126 0.53209 0.65136 0.0
C1006 C 0.34063 0.38816 0.6222 0.0
C1007 C 0.32591 0.48648 0.64157 0.0
N1008 N 0.35317 0.35583 0.66246 0.0
N1009 N 0.32482 0.51891 0.60147 0.0
H1010 H 0.31333 0.53894 0.66971 0.0
H1011 H 0.29097 0.55963 0.64159 0.0
H1012 H 0.33238 0.51406 0.58334 0.0
H1013 H 0.32963 0.55654 0.60746 0.0
H1014 H 0.35005 0.31779 0.65671 0.0
H1015 H 0.3569 0.36044 0.68086 0.0
H1016 H 0.38589 0.32052 0.62217 0.0
H1017 H 0.38107 0.3518 0.5947 0.0
C1018 C 0.85034 0.05241 0.37526 0.0
C1019 C 0.88657 0.07943 0.36099 0.0
C1020 C 0.91012 0.13038 0.39656 0.0
C1021 C 0.86833 0.10959 0.40987 0.0
N1022 N 0.79605 0.05134 0.41025 0.0
N1023 N 0.9448 0.15096 0.35759 0.0
C1024 C 0.83792 0.07047 0.39881 0.0
C1025 C 0.91474 0.12027 0.37156 0.0
N1026 N 0.82895 1.00812 0.36667 0.0
N1027 N 0.9471 0.15833 0.40803 0.0
H1028 H 0.9487 0.14548 0.33925 0.0
H1029 H 0.96159 0.18482 0.36378 0.0
H1030 H 0.94758 0.16317 0.42648 0.0
H1031 H 0.98057 0.17088 0.39975 0.0
H1032 H 0.80684 0.98341 0.37705 0.0
H1033 H 0.83715 0.99349 0.34978 0.0
H1034 H 0.76821 1.02892 0.40185 0.0
H1035 H 0.78763 0.05993 0.42782 0.0
C1036 C 0.27622 0.60197 0.15349 0.0
C1037 C 0.23263 0.63139 0.16047 0.0
C1038 C 0.23624 0.6779 0.12205 0.0
C1039 C 0.27521 0.6444 0.11339 0.0
N1040 N 0.33755 0.57856 0.12236 0.0
N1041 N 0.19762 0.7162 0.1569 0.0
C1042 C 0.29694 0.60772 0.12967 0.0
C1043 C 0.2205 0.67499 0.14637 0.0
N1044 N 0.29994 0.5713 0.17 0.0
N1045 N 0.21161 0.711 0.1069 0.0
H1046 H 0.18914 0.71689 0.17509 0.0
H1047 H 0.19385 0.75168 0.14836 0.0
H1048 H 0.2186 0.71255 0.08862 0.0
H1049 H 0.1798 0.73256 0.11205 0.0
H1050 H 0.33358 0.55093 0.16698 0.0
H1051 H 0.28855 0.56944 0.18774 0.0
H1052 H 0.35187 0.547 0.13165 0.0
H1053 H 0.35705 0.58562 0.10649 0.0
C1054 C 0.63562 0.96067 0.87026 0.0
C1055 C 0.67222 0.98872 0.85671 0.0
C1056 C 0.73211 0.98094 0.89098 0.0
C1057 C 0.69407 0.9553 0.905 0.0
N1058 N 0.6034 0.94073 0.90968 0.0
N1059 N 0.75127 1.03672 0.85728 0.0
C1060 C 0.64386 0.95161 0.89523 0.0
C1061 C 0.71948 1.00183 0.86793 0.0
N1062 N 0.59432 0.93939 0.85903 0.0
N1063 N 0.78027 0.98713 0.89998 0.0
H1064 H 0.74273 0.05436 0.84102 0.0
H1065 H 0.78359 0.05214 0.86559 0.0
H1066 H 0.78837 0.98106 0.91787 0.0
H1067 H 0.81176 0.99768 0.88969 0.0
H1068 H 0.56899 0.9146 0.86765 0.0
H1069 H 0.58892 0.942 0.8406 0.0
H1070 H 0.56549 0.94282 0.90371 0.0
H1071 H 0.60746 0.93419 0.92794 0.0
C1072 C 0.51752 0.25215 0.17761 0.0
C1073 C 0.47828 0.28282 0.1883 0.0
C1074 C 0.54706 0.33728 0.20572 0.0
C1075 C 0.5856 0.3117 0.19228 0.0
N1076 N 0.60547 0.24618 0.16333 0.0
N1077 N 0.4581 0.36377 0.20702 0.0
C1078 C 0.56998 0.26996 0.17738 0.0
C1079 C 0.4939 0.32789 0.20082 0.0
N1080 N 0.50589 0.20431 0.16912 0.0
N1081 N 0.56061 0.37024 0.22358 0.0
H1082 H 0.41973 0.36086 0.20186 0.0
H1083 H 0.46767 0.39929 0.21442 0.0
H1084 H 0.59853 0.37834 0.22803 0.0
H1085 H 0.53404 0.38545 0.2355 0.0
H1086 H 0.53359 0.17818 0.16349 0.0
H1087 H 0.46935 0.18834 0.17001 0.0
H1088 H 0.59563 0.2201 0.14996 0.0
H1089 H 0.64455 0.2546 0.16417 0.0
C1090 C 0.49996 0.75146 0.44974 0.0
C1091 C 0.54255 0.73489 0.43582 0.0
C1092 C 0.55151 0.82543 0.42167 0.0
C1093 C 0.51254 0.84231 0.43762 0.0
N1094 N 0.45919 0.82075 0.47134 0.0
N1095 N 0.61651 0.76115 0.41294 0.0
C1096 C 0.49001 0.80518 0.45309 0.0
C1097 C 0.57023 0.77323 0.42281 0.0
N1098 N 0.46664 0.71599 0.45881 0.0
N1099 N 0.57176 0.85949 0.4057 0.0
H1100 H 0.63356 0.72511 0.41466 0.0
H1101 H 0.64082 0.78841 0.40539 0.0
H1102 H 0.5619 0.89837 0.40541 0.0
H1103 H 0.59575 0.8484 0.3918 0.0
H1104 H 0.4323 0.72599 0.46705 0.0
H1105 H 0.46987 0.67676 0.45548 0.0
H1106 H 0.44701 0.79595 0.48481 0.0
H1107 H 0.44929 0.85898 0.47428 0.0
C1108 C 1.01973 0.74632 0.67191 0.0
C1109 C 0.98099 0.77188 0.68539 0.0
C1110 C 0.04948 0.82074 0.70601 0.0
C1111 C 0.08761 0.80078 0.69035 0.0
N1112 N 0.10687 0.74687 0.6565 0.0
N1113 N 0.96028 0.84417 0.71054 0.0
C1114 C 0.07184 0.76479 0.67253 0.0
C1115 C 0.9964 0.8121 0.70105 0.0
N1116 N 1.00806 0.70218 0.65985 0.0
N1117 N 0.0631 0.84749 0.72601 0.0
H1118 H 0.92142 0.84178 0.70617 0.0
H1119 H 0.96962 0.87699 0.72031 0.0
H1120 H 0.10067 0.85638 0.73062 0.0
H1121 H 1.03688 0.85691 0.73932 0.0
H1122 H 1.03564 0.67891 0.6519 0.0
H1123 H 0.97169 0.68571 0.65977 0.0
H1124 H 0.09662 0.72596 0.64135 0.0
H1125 H 0.14593 0.75514 0.65764 0.0
C1126 C 0.06771 0.32096 0.94558 0.0
C1127 C 1.02033 0.3365 0.93504 0.0
C1128 C 1.008 0.24455 0.92324 0.0
C1129 C 0.05161 0.2288 0.93694 0.0
N1130 N 0.11611 0.25442 0.96568 0.0
N1131 N 0.94052 0.30805 0.9173 0.0
C1132 C 0.07896 0.26768 0.94959 0.0
C1133 C 0.98927 0.2969 0.92464 0.0
N1134 N 0.10439 0.35692 0.9502 0.0
N1135 N 0.9838 0.20953 0.90898 0.0
H1136 H 0.92443 0.34452 0.91867 0.0
H1137 H 0.91423 0.28003 0.91209 0.0
H1138 H 0.99484 0.17106 0.90816 0.0
H1139 H 0.95552 0.21958 0.89663 0.0
H1140 H 0.14159 0.34746 0.95553 0.0
H1141 H 0.09965 0.39528 0.94548 0.0
H1142 H 0.1327 0.28103 0.97731 0.0
H1143 H 0.12721 0.21662 0.96891 0.0
C1144 C 0.56136 0.81062 0.93029 0.0
C1145 C 0.59844 0.79189 0.94704 0.0
C1146 C 0.52885 0.7366 0.9636 0.0
C1147 C 0.49077 0.76297 0.94979 0.0
N1148 N 0.47323 0.83703 0.9249 0.0
N1149 N 0.61427 0.73688 0.98117 0.0
C1150 C 0.50783 0.80339 0.93461 0.0
C1151 C 0.58093 0.75547 0.96439 0.0
N1152 N 0.5761 0.83395 0.90963 0.0
N1153 N 0.51694 0.69116 0.97453 0.0
H1154 H 0.65353 0.74414 0.98089 0.0
H1155 H 0.60229 0.71593 0.99601 0.0
H1156 H 0.48129 0.67349 0.97298 0.0
H1157 H 0.54424 0.66774 0.98274 0.0
H1158 H 0.55 0.84259 0.89602 0.0
H1159 H 0.61397 0.8399 0.90475 0.0
H1160 H 0.48437 0.86946 0.91523 0.0
H1161 H 0.43432 0.83654 0.92911 0.0
C1162 C 0.5578 0.32954 0.71225 0.0
C1163 C 0.51819 0.34635 0.69634 0.0
C1164 C 0.50662 0.25505 0.6842 0.0
C1165 C 0.55001 0.2389 0.69778 0.0
N1166 N 0.62321 0.26543 0.72134 0.0
N1167 N 0.46379 0.3235 0.66288 0.0
C1168 C 0.57705 0.27736 0.71111 0.0
C1169 C 0.49555 0.30868 0.68103 0.0
N1170 N 0.57833 0.36368 0.72813 0.0
N1171 N 0.47381 0.219 0.6751 0.0
H1172 H 0.45232 0.36126 0.66002 0.0
H1173 H 0.45245 0.29842 0.64936 0.0
H1174 H 0.47856 0.17969 0.67796 0.0
H1175 H 0.43869 0.22836 0.66724 0.0
H1176 H 0.60249 0.35271 0.7421 0.0
H1177 H 0.5688 0.40262 0.72824 0.0
H1178 H 0.64744 0.29275 0.72895 0.0
H1179 H 0.64 0.22921 0.72014 0.0
C1180 C 1.04012 0.33613 0.43937 0.0
C1181 C 0.07984 0.30603 0.44972 0.0
C1182 C 1.01324 0.2437 0.46254 0.0
C1183 C 0.9731 0.27736 0.45448 0.0
N1184 N 0.95236 0.36428 0.44324 0.0
N1185 N 0.10279 0.23407 0.47462 0.0
C1186 C 0.9878 0.32603 0.44515 0.0
C1187 C 0.06583 0.26098 0.46259 0.0
N1188 N 0.05188 0.3739 0.42342 0.0
N1189 N 1.00223 0.19412 0.46877 0.0
H1190 H 0.14153 0.24408 0.47407 0.0
H1191 H 0.09448 0.20434 0.48647 0.0
H1192 H 0.96546 0.17867 0.46836 0.0
H1193 H 1.03039 0.1666 0.47215 0.0
H1194 H 1.02401 0.39447 0.41404 0.0
H1195 H 0.08921 0.38041 0.41765 0.0
H1196 H 0.96205 0.40201 0.43881 0.0
H1197 H 0.91505 0.35967 0.44936 0.0
C1198 C 1.01124 0.76328 0.21592 0.0
C1199 C 1.04664 0.74575 0.19843 0.0
C1200 C 0.05803 0.83621 0.18573 0.0
C1201 C 1.01713 0.85305 0.20048 0.0
N1202 N 0.94706 0.82718 0.22614 0.0
N1203 N 0.09268 0.76688 0.16228 0.0
C1204 C 0.99185 0.81523 0.21487 0.0
C1205 C 0.06653 0.78255 0.18201 0.0
N1206 N 0.9948 0.73012 0.23317 0.0
N1207 N 0.09068 0.87137 0.17589 0.0
H1208 H 0.09962 0.72849 0.15832 0.0
H1209 H 0.10288 0.79204 0.14858 0.0
H1210 H 0.08848 0.91062 0.17957 0.0
H1211 H 0.12372 0.86082 0.16668 0.0
H1212 H 0.9735 0.74196 0.24788 0.0
H1213 H 1.0056 0.6915 0.23367 0.0
H1214 H 0.92459 0.79991 0.23483 0.0
H1215 H 0.92906 0.86275 0.22459 0.0
C1216 C 0.19922 0.35924 0.19311 0.0
C1217 C 0.24382 0.35328 0.17875 0.0
C1218 C 0.22798 0.43978 0.16176 0.0
C1219 C 0.18355 0.44602 0.17634 0.0
N1220 N 0.11768 0.40253 0.1985 0.0
N1221 N 0.29234 0.38218 0.14504 0.0
C1222 C 0.16645 0.40283 0.18974 0.0
C1223 C 0.25527 0.39176 0.16162 0.0
N1224 N 0.18904 0.32472 0.21087 0.0
N1225 N 0.2461 0.48028 0.14892 0.0
H1226 H 0.31277 0.34765 0.14467 0.0
H1227 H 0.29924 0.40586 0.13039 0.0
H1228 H 0.22616 0.51454 0.14701 0.0
H1229 H 0.28183 0.48053 0.1407 0.0
H1230 H 0.16111 0.33085 0.22381 0.0
H1231 H 0.21054 0.29155 0.2137 0.0
H1232 H 0.10114 0.37055 0.20664 0.0
H1233 H 0.09175 0.43203 0.19479 0.0
C1234 C 0.38265 0.49074 0.43908 0.0
C1235 C 0.37431 0.44418 0.42601 0.0
C1236 C 0.46199 0.45347 0.40951 0.0
C1237 C 0.46863 0.50042 0.42203 0.0
N1238 N 0.42744 0.57219 0.44086 0.0
N1239 N 0.40466 0.38626 0.39533 0.0
C1240 C 0.4262 0.52182 0.43406 0.0
C1241 C 0.41321 0.42763 0.40981 0.0
N1242 N 0.35031 0.50533 0.45697 0.0
N1243 N 0.50327 0.43232 0.39826 0.0
H1244 H 0.372 0.36337 0.39634 0.0
H1245 H 0.42888 0.37623 0.38135 0.0
H1246 H 0.53821 0.45171 0.39685 0.0
H1247 H 0.50362 0.3952 0.39131 0.0
H1248 H 0.35899 0.53496 0.46884 0.0
H1249 H 0.31672 0.48624 0.46129 0.0
H1250 H 0.39581 0.59129 0.44793 0.0
H1251 H 0.45774 0.59643 0.43648 0.0
C1252 C 0.35993 0.73198 0.6998 0.0
C1253 C 0.31954 0.74115 0.68309 0.0
C1254 C 0.34906 0.66586 0.65993 0.0
C1255 C 0.38402 0.6523 0.67871 0.0
N1256 N 0.43831 0.68625 0.70954 0.0
N1257 N 0.27395 0.71528 0.64775 0.0
C1258 C 0.39378 0.68944 0.69669 0.0
C1259 C 0.31418 0.70805 0.66312 0.0
N1260 N 0.36461 0.76264 0.71944 0.0
N1261 N 0.35115 0.64143 0.63842 0.0
H1262 H 0.2491 0.7466 0.64904 0.0
H1263 H 0.26318 0.68861 0.63481 0.0
H1264 H 0.37796 0.61343 0.63425 0.0
H1265 H 0.33033 0.65329 0.62349 0.0
H1266 H 0.38754 0.75367 0.73414 0.0
H1267 H 0.34361 0.79629 0.72149 0.0
H1268 H 0.45092 0.71432 0.72143 0.0
H1269 H 0.46608 0.6587 0.70574 0.0
C1270 C 0.14078 0.54764 0.93581 0.0
C1271 C 0.0946 0.57298 0.92987 0.0
C1272 C 0.14458 0.65337 0.92447 0.0
C1273 C 0.18846 0.62981 0.93518 0.0
N1274 N 0.22334 0.55466 0.95504 0.0
N1275 N 0.05193 0.65061 0.9179 0.0
C1276 C 0.1852 0.57693 0.94189 0.0
C1277 C 0.09661 0.626 0.92363 0.0
N1278 N 0.14201 0.49527 0.93574 0.0
N1279 N 0.14817 0.70233 0.91576 0.0
H1280 H 1.01736 0.63074 0.91591 0.0
H1281 H 0.04871 0.69031 0.91592 0.0
H1282 H 0.18126 0.72458 0.91746 0.0
H1283 H 0.11941 0.71988 0.90568 0.0
H1284 H 0.17544 0.47392 0.93827 0.0
H1285 H 0.11063 0.47392 0.92985 0.0
H1286 H 0.22081 0.51741 0.96176 0.0
H1287 H 0.25547 0.57459 0.96103 0.0
C1288 C 0.80546 0.68414 0.95825 0.0
C1289 C 0.82844 0.72834 0.96857 0.0
C1290 C 0.90739 0.67725 0.97579 0.0
C1291 C 0.88747 0.63644 0.96154 0.0
N1292 N 0.81723 0.60268 0.938 0.0
N1293 N 0.90085 0.76692 0.9881 0.0
C1294 C 0.83633 0.64032 0.95253 0.0
C1295 C 0.879 0.7243 0.97805 0.0
N1296 N 0.75379 0.68368 0.95419 0.0
N1297 N 0.95403 0.67167 0.98674 0.0
H1298 H 0.87994 0.80049 0.99126 0.0
H1299 H 0.93957 0.76986 0.99249 0.0
H1300 H 0.97771 0.63992 0.98408 0.0
H1301 H 0.96825 0.69716 0.99945 0.0
H1302 H 0.73368 0.65124 0.9486 0.0
H1303 H 0.73002 0.71383 0.95931 0.0
H1304 H 0.78316 0.60645 0.92837 0.0
H1305 H 0.83689 0.56886 0.93419 0.0
C1306 C 0.64097 0.64862 0.71555 0.0
C1307 C 0.68308 0.62976 0.70177 0.0
C1308 C 0.63543 0.54768 0.69651 0.0
C1309 C 0.59077 0.57018 0.70599 0.0
N1310 N 0.55229 0.63714 0.72875 0.0
N1311 N 0.71889 0.5592 0.67882 0.0
C1312 C 0.59442 0.61901 0.7171 0.0
C1313 C 0.67997 0.57852 0.69235 0.0
N1314 N 0.64471 0.69544 0.72651 0.0
N1315 N 0.63518 0.49618 0.69176 0.0
H1316 H 0.75297 0.57854 0.67565 0.0
H1317 H 0.71645 0.5248 0.66943 0.0
H1318 H 0.6033 0.47321 0.6953 0.0
H1319 H 0.6676 0.47528 0.68699 0.0
H1320 H 0.61777 0.71 0.73833 0.0
H1321 H 0.67572 0.72013 0.72433 0.0
H1322 H 0.54844 0.67413 0.73552 0.0
H1323 H 0.52035 0.6138 0.73161 0.0
C1324 C 0.75722 0.38487 0.44749 0.0
C1325 C 0.73507 0.34123 0.45862 0.0
C1326 C 0.66031 0.39577 0.46922 0.0
C1327 C 0.67913 0.4367 0.45455 0.0
N1328 N 0.74389 0.46443 0.42626 0.0
N1329 N 0.66387 0.30449 0.47954 0.0
C1330 C 0.72709 0.4296 0.44277 0.0
C1331 C 0.68635 0.34682 0.4696 0.0
N1332 N 0.80778 0.38403 0.44151 0.0
N1333 N 0.61673 0.40275 0.48226 0.0
H1334 H 0.68306 0.26939 0.48116 0.0
H1335 H 0.62587 0.3034 0.48514 0.0
H1336 H 0.59385 0.43545 0.48097 0.0
H1337 H 0.60455 0.37712 0.49536 0.0
H1338 H 0.82781 0.41647 0.43582 0.0
H1339 H 0.83095 0.35246 0.44501 0.0
H1340 H 0.77457 0.4572 0.41488 0.0
H1341 H 0.7256 0.49899 0.42253 0.0
C1342 C 0.93087 0.43456 0.20774 0.0
C1343 C 0.88797 0.45201 0.194 0.0
C1344 C 0.93763 0.52937 0.18267 0.0
C1345 C 0.98042 0.51179 0.19632 0.0
N1346 N 1.01433 0.45384 0.22563 0.0
N1347 N 0.84752 0.52144 0.17224 0.0
C1348 C 0.97565 0.46637 0.21015 0.0
C1349 C 0.89058 0.50095 0.18256 0.0
N1350 N 0.92988 0.38631 0.21747 0.0
N1351 N 0.94264 0.57268 0.16902 0.0
H1352 H 0.8127 0.50202 0.17104 0.0
H1353 H 0.84484 0.55938 0.16642 0.0
H1354 H 0.97427 0.597 0.17032 0.0
H1355 H 0.91664 0.58354 0.15579 0.0
H1356 H 0.96113 0.369 0.22584 0.0
H1357 H 0.89883 0.36144 0.21548 0.0
H1358 H 1.01327 0.42295 0.23742 0.0
H1359 H 1.04651 0.47721 0.22786 0.0
C1360 C 0.69735 0.84058 0.68527 0.0
C1361 C 0.74687 0.84164 0.67492 0.0
C1362 C 0.73609 0.93545 0.66852 0.0
C1363 C 0.69005 0.93556 0.68234 0.0
N1364 N 0.63384 0.88657 0.70816 0.0
N1365 N 0.81239 0.88948 0.65494 0.0
C1366 C 0.67259 0.88765 0.69186 0.0
C1367 C 0.76538 0.889 0.66571 0.0
N1368 N 0.67298 0.79465 0.68825 0.0
N1369 N 0.7533 0.98044 0.65901 0.0
H1370 H 0.83238 0.85568 0.65112 0.0
H1371 H 0.83236 0.92255 0.65024 0.0
H1372 H 0.73672 1.01557 0.66301 0.0
H1373 H 0.7834 0.98333 0.647 0.0
H1374 H 0.63502 0.79165 0.69384 0.0
H1375 H 0.68802 0.76033 0.6818 0.0
H1376 H 0.62342 0.85338 0.7174 0.0
H1377 H 0.61583 0.91937 0.71454 0.0
C1378 C 0.89445 0.9945 0.94008 0.0
C1379 C 0.89451 0.94036 0.93526 0.0
C1380 C 0.98507 0.94754 0.92252 0.0
C1381 C 0.98557 1.00024 0.92871 0.0
N1382 N 0.93791 0.07706 0.93617 0.0
N1383 N 0.94392 0.86439 0.92601 0.0
C1384 C 0.9392 1.02463 0.93518 0.0
C1385 C 0.94066 0.91681 0.92705 0.0
N1386 N 0.85298 1.01709 0.95066 0.0
N1387 N 1.02803 0.927 0.91239 0.0
H1388 H 0.91351 0.8401 0.93003 0.0
H1389 H 0.97801 0.84443 0.92336 0.0
H1390 H 0.06051 0.9493 0.90898 0.0
H1391 H 1.03004 0.88999 0.90543 0.0
H1392 H 0.85344 0.05424 0.95756 0.0
H1393 H 0.81885 0.99812 0.95433 0.0
H1394 H 0.90451 0.09845 0.93836 0.0
H1395 H 0.96991 0.09941 0.93221 0.0
C1396 C 0.88099 0.18639 0.16769 0.0
C1397 C 0.8672 0.14724 0.18447 0.0
C1398 C 0.78977 0.19823 0.1944 0.0
C1399 C 0.80908 0.24076 0.18143 0.0
N1400 N 0.87225 0.27584 0.15511 0.0
N1401 N 0.80617 0.11645 0.21368 0.0
C1402 C 0.854 0.23453 0.16756 0.0
C1403 C 0.82069 0.15323 0.19763 0.0
N1404 N 0.92016 0.17825 0.15203 0.0
N1405 N 0.74143 0.20097 0.20364 0.0
H1406 H 0.82449 0.08118 0.21545 0.0
H1407 H 0.77725 0.12179 0.22619 0.0
H1408 H 0.71802 0.23311 0.20132 0.0
H1409 H 0.72247 0.16986 0.2113 0.0
H1410 H 0.92789 0.20248 0.13767 0.0
H1411 H 0.94289 0.14545 0.15211 0.0
H1412 H 0.90826 0.27698 0.14717 0.0
H1413 H 0.85162 0.31014 0.1536 0.0
C1414 C 0.63286 1.04606 0.43843 0.0
C1415 C 0.58821 0.0688 0.42871 0.0
C1416 C 0.64031 0.14507 0.41794 0.0
C1417 C 0.68222 0.1263 0.43205 0.0
N1418 N 0.71302 0.05971 0.45906 0.0
N1419 N 0.54873 0.14031 0.40889 0.0
C1420 C 0.67712 0.07688 0.44311 0.0
C1421 C 0.59212 0.11811 0.41798 0.0
N1422 N 0.63275 0.99472 0.44349 0.0
N1423 N 0.64558 0.18948 0.40514 0.0
H1424 H 0.51414 0.12023 0.40755 0.0
H1425 H 0.5464 0.17867 0.40363 0.0
H1426 H 0.67811 0.21259 0.40593 0.0
H1427 H 0.61877 0.20199 0.39258 0.0
H1428 H 0.66545 0.9746 0.44883 0.0
H1429 H 0.6013 0.97138 0.43955 0.0
H1430 H 0.70772 1.02712 0.46963 0.0
H1431 H 0.74623 0.07977 0.46332 0.0
C1432 C 0.29799 0.18953 0.44472 0.0
C1433 C 0.31612 0.23383 0.45699 0.0
C1434 C 0.39519 0.18673 0.46809 0.0
C1435 C 0.37799 0.14296 0.45504 0.0
N1436 N 0.30875 0.0997 0.43425 0.0
N1437 N 0.37595 0.27164 0.48434 0.0
C1438 C 0.32809 0.14352 0.44438 0.0
C1439 C 0.36273 0.23111 0.4701 0.0
N1440 N 0.25292 0.1925 0.4322 0.0
N1441 N 0.44393 0.18721 0.47721 0.0
H1442 H 0.35275 0.30417 0.48583 0.0
H1443 H 0.40694 0.27148 0.4961 0.0
H1444 H 0.46899 0.15615 0.47572 0.0
H1445 H 0.46114 0.21941 0.48479 0.0
H1446 H 0.2411 0.16561 0.41959 0.0
H1447 H 0.22756 0.22321 0.43392 0.0
H1448 H 0.27067 0.09532 0.42902 0.0
H1449 H 0.32944 0.06568 0.43255 0.0
C1450 C 0.12123 0.0778 0.22195 0.0
C1451 C 0.08284 0.08701 0.20438 0.0
C1452 C 0.13227 0.16306 0.19084 0.0
C1453 C 0.17492 0.14838 0.20528 0.0
N1454 N 0.20842 0.09238 0.2361 0.0
N1455 N 0.05262 0.1387 0.17143 0.0
C1456 C 0.16859 0.10646 0.2216 0.0
C1457 C 0.08837 0.13015 0.18887 0.0
N1458 N 0.11204 1.04152 0.23908 0.0
N1459 N 0.13278 0.20984 0.17966 0.0
H1460 H 1.0188 0.11771 0.17015 0.0
H1461 H 0.05777 0.16465 0.15746 0.0
H1462 H 0.1631 0.23575 0.18141 0.0
H1463 H 0.10106 0.22543 0.1709 0.0
H1464 H 0.1355 1.03539 0.25389 0.0
H1465 H 0.07804 1.02034 0.23956 0.0
H1466 H 0.20891 0.05902 0.24637 0.0
H1467 H 0.24259 0.1128 0.23717 0.0
C1468 C 0.17769 0.88289 0.96241 0.0
C1469 C 0.19918 0.93082 0.95502 0.0
C1470 C 0.28515 0.89308 0.96025 0.0
C1471 C 0.26443 0.84285 0.9631 0.0
N1472 N 0.18901 0.79098 0.96955 0.0
N1473 N 0.27491 0.97687 0.94226 0.0
C1474 C 0.21001 0.83804 0.96509 0.0
C1475 C 0.2533 0.93449 0.95256 0.0
N1476 N 0.12628 0.88023 0.96691 0.0
N1477 N 0.33573 0.90154 0.96541 0.0
H1478 H 0.25366 1.00779 0.93573 0.0
H1479 H 0.3139 0.97939 0.93841 0.0
H1480 H 0.35942 0.87275 0.97238 0.0
H1481 H 0.35212 0.9381 0.96564 0.0
H1482 H 0.1085 0.84857 0.97468 0.0
H1483 H 0.10147 0.91107 0.96391 0.0
H1484 H 0.1502 0.78273 0.96737 0.0
H1485 H 0.21058 0.76008 0.97582 0.0
C1486 C 0.43122 0.93016 0.70229 0.0
C1487 C 0.38333 0.95243 0.69574 0.0
C1488 C 0.42529 1.03683 0.69626 0.0
C1489 C 0.47481 1.01437 0.6984 0.0
N1490 N 0.52237 0.93436 0.69547 0.0
N1491 N 0.34334 1.02639 0.67705 0.0
C1492 C 0.47747 0.95948 0.69962 0.0
C1493 C 0.38266 1.00561 0.68996 0.0
N1494 N 0.43332 0.8803 0.70972 0.0
N1495 N 0.4187 0.08832 0.69981 0.0
H1496 H 0.31296 1.00457 0.67047 0.0
H1497 H 0.34393 0.06434 0.67096 0.0
H1498 H 0.44849 0.11208 0.70565 0.0
H1499 H 0.38253 0.10553 0.69964 0.0
H1500 H 0.4666 0.86372 0.71671 0.0
H1501 H 0.40089 0.85713 0.71039 0.0
H1502 H 0.52476 0.89444 0.69418 0.0
H1503 H 0.55535 0.95297 0.68989 0.0
loop_
_geom_bond_atom_site_label_1
_geom_bond_atom_site_label_2
_geom_bond_distance
_geom_bond_site_symmetry_2
_ccdc_geom_bond_type
La0 C2 2.928 . S
La0 O20 2.521 . S
La0 O21 2.628 . S
La0 O22 2.554 . S
La0 O23 2.757 . S
La0 O24 2.470 . S
La0 O29 2.482 . S
La0 O31 2.503 . S
La1 C11 2.928 . S
La1 O23 2.482 . S
La1 O25 2.503 . S
La1 O26 2.521 . S
La1 O27 2.628 . S
La1 O28 2.554 . S
La1 O29 2.757 . S
La1 O30 2.470 . S
C2 La0 2.928 . S
C2 C3 1.503 . S
C2 O20 1.261 . S
C2 O21 1.243 . S
C3 C2 1.503 . S
C3 C4 1.394 . S
C3 C8 1.373 . S
C4 C3 1.394 . S
C4 C5 1.380 . S
C4 H32 0.930 . S
C5 C4 1.380 . S
C5 C6 1.376 . S
C5 H33 0.930 . S
C6 C5 1.376 . S
C6 C7 1.370 . S
C7 C6 1.370 . S
C7 C8 1.396 . S
C7 H34 0.929 . S
C8 C3 1.373 . S
C8 C7 1.396 . S
C8 H35 0.929 . S
C9 O22 1.240 . S
C9 O23 1.289 . S
C10 O24 1.258 . S
C10 O25 1.256 . S
C11 La1 2.928 . S
C11 C12 1.503 . S
C11 O26 1.261 . S
C11 O27 1.243 . S
C12 C11 1.503 . S
C12 C13 1.394 1_545 S
C12 C17 1.373 . S
C13 C12 1.394 1_565 S
C13 C14 1.380 . S
C13 H36 0.930 . S
C14 C13 1.380 . S
C14 C15 1.376 . S
C14 H37 0.930 . S
C15 C14 1.376 . S
C15 C16 1.370 1_565 S
C16 C15 1.370 1_545 S
C16 C17 1.396 . S
C16 H38 0.929 . S
C17 C12 1.373 . S
C17 C16 1.396 . S
C17 H39 0.929 . S
C18 O28 1.240 . S
C18 O29 1.289 . S
C19 O30 1.258 . S
C19 O31 1.256 . S
O20 La0 2.521 . S
O20 C2 1.261 . S
O21 La0 2.628 . S
O21 C2 1.243 . S
O22 La0 2.554 . S
O22 C9 1.240 . S
O23 La0 2.757 . S
O23 La1 2.482 . S
O23 C9 1.289 . S
O24 La0 2.470 . S
O24 C10 1.258 . S
O25 La1 2.503 . S
O25 C10 1.256 . S
O26 La1 2.521 . S
O26 C11 1.261 . S
O27 La1 2.628 . S
O27 C11 1.243 . S
O28 La1 2.554 . S
O28 C18 1.240 . S
O29 La0 2.482 . S
O29 La1 2.757 . S
O29 C18 1.289 . S
O30 La1 2.470 . S
O30 C19 1.258 . S
O31 La0 2.503 . S
O31 C19 1.256 . S
H32 C4 0.930 . S
H33 C5 0.930 . S
H34 C7 0.929 . S
H35 C8 0.929 . S
H36 C13 0.930 . S
H37 C14 0.930 . S
H38 C16 0.929 . S
H39 C17 0.929 . S
La40 C42 2.928 . S
La40 O60 2.521 . S
La40 O61 2.628 . S
La40 O62 2.554 . S
La40 O63 2.757 . S
La40 O64 2.470 . S
La40 O69 2.482 . S
La40 O71 2.503 . S
La41 C51 2.928 . S
La41 O63 2.482 . S
La41 O65 2.503 . S
La41 O66 2.521 . S
La41 O67 2.628 . S
La41 O68 2.554 . S
La41 O69 2.757 . S
La41 O70 2.470 . S
C42 La40 2.928 . S
C42 C43 1.503 . S
C42 O60 1.261 . S
C42 O61 1.243 . S
C43 C42 1.503 . S
C43 C44 1.394 . S
C43 C48 1.373 . S
C44 C43 1.394 . S
C44 C45 1.380 . S
C44 H72 0.930 . S
C45 C44 1.380 . S
C45 C46 1.376 . S
C45 H73 0.930 . S
C46 C45 1.376 . S
C46 C47 1.370 . S
C47 C46 1.370 . S
C47 C48 1.396 . S
C47 H74 0.929 . S
C48 C43 1.373 . S
C48 C47 1.396 . S
C48 H75 0.929 . S
C49 O62 1.240 . S
C49 O63 1.289 . S
C50 O64 1.258 . S
C50 O65 1.256 . S
C51 La41 2.928 . S
C51 C52 1.503 . S
C51 O66 1.261 . S
C51 O67 1.243 . S
C52 C51 1.503 . S
C52 C53 1.394 . S
C52 C57 1.373 . S
C53 C52 1.394 . S
C53 C54 1.380 . S
C53 H76 0.930 . S
C54 C53 1.380 . S
C54 C55 1.376 . S
C54 H77 0.930 . S
C55 C54 1.376 . S
C55 C56 1.370 . S
C56 C55 1.370 . S
C56 C57 1.396 . S
C56 H78 0.929 . S
C57 C52 1.373 . S
C57 C56 1.396 . S
C57 H79 0.929 . S
C58 O68 1.240 . S
C58 O69 1.289 . S
C59 O70 1.258 . S
C59 O71 1.256 . S
O60 La40 2.521 . S
O60 C42 1.261 . S
O61 La40 2.628 . S
O61 C42 1.243 . S
O62 La40 2.554 . S
O62 C49 1.240 . S
O63 La40 2.757 . S
O63 La41 2.482 . S
O63 C49 1.289 . S
O64 La40 2.470 . S
O64 C50 1.258 . S
O65 La41 2.503 . S
O65 C50 1.256 . S
O66 La41 2.521 . S
O66 C51 1.261 . S
O67 La41 2.628 . S
O67 C51 1.243 . S
O68 La41 2.554 . S
O68 C58 1.240 . S
O69 La40 2.482 . S
O69 La41 2.757 . S
O69 C58 1.289 . S
O70 La41 2.470 . S
O70 C59 1.258 . S
O71 La40 2.503 . S
O71 C59 1.256 . S
H72 C44 0.930 . S
H73 C45 0.930 . S
H74 C47 0.929 . S
H75 C48 0.929 . S
H76 C53 0.930 . S
H77 C54 0.930 . S
H78 C56 0.929 . S
H79 C57 0.929 . S
La80 C82 2.928 . S
La80 O100 2.521 . S
La80 O101 2.628 . S
La80 O102 2.554 . S
La80 O103 2.757 . S
La80 O104 2.470 . S
La80 O109 2.482 . S
La80 O111 2.503 . S
La81 C91 2.928 . S
La81 O103 2.482 . S
La81 O105 2.503 . S
La81 O106 2.521 . S
La81 O107 2.628 . S
La81 O108 2.554 . S
La81 O109 2.757 . S
La81 O110 2.470 . S
C82 La80 2.928 . S
C82 C83 1.503 . S
C82 O100 1.261 . S
C82 O101 1.243 . S
C83 C82 1.503 . S
C83 C84 1.394 . S
C83 C88 1.373 . S
C84 C83 1.394 . S
C84 C85 1.380 . S
C84 H112 0.930 . S
C85 C84 1.380 . S
C85 C86 1.376 . S
C85 H113 0.930 . S
C86 C85 1.376 . S
C86 C87 1.370 . S
C87 C86 1.370 . S
C87 C88 1.396 . S
C87 H114 0.929 . S
C88 C83 1.373 . S
C88 C87 1.396 . S
C88 H115 0.929 . S
C89 O102 1.240 . S
C89 O103 1.289 . S
C90 O104 1.258 . S
C90 O105 1.256 . S
C91 La81 2.928 . S
C91 C92 1.503 . S
C91 O106 1.261 . S
C91 O107 1.243 . S
C92 C91 1.503 . S
C92 C93 1.394 1_565 S
C92 C97 1.373 . S
C93 C92 1.394 1_545 S
C93 C94 1.380 . S
C93 H116 0.930 . S
C94 C93 1.380 . S
C94 C95 1.376 . S
C94 H117 0.930 . S
C95 C94 1.376 . S
C95 C96 1.370 1_545 S
C96 C95 1.370 1_565 S
C96 C97 1.396 . S
C96 H118 0.929 . S
C97 C92 1.373 . S
C97 C96 1.396 . S
C97 H119 0.929 . S
C98 O108 1.240 . S
C98 O109 1.289 . S
C99 O110 1.258 . S
C99 O111 1.256 . S
O100 La80 2.521 . S
O100 C82 1.261 . S
O101 La80 2.628 . S
O101 C82 1.243 . S
O102 La80 2.554 . S
O102 C89 1.240 . S
O103 La80 2.757 . S
O103 La81 2.482 . S
O103 C89 1.289 . S
O104 La80 2.470 . S
O104 C90 1.258 . S
O105 La81 2.503 . S
O105 C90 1.256 . S
O106 La81 2.521 . S
O106 C91 1.261 . S
O107 La81 2.628 . S
O107 C91 1.243 . S
O108 La81 2.554 . S
O108 C98 1.240 . S
O109 La80 2.482 . S
O109 La81 2.757 . S
O109 C98 1.289 . S
O110 La81 2.470 . S
O110 C99 1.258 . S
O111 La80 2.503 . S
O111 C99 1.256 . S
H112 C84 0.930 . S
H113 C85 0.930 . S
H114 C87 0.929 . S
H115 C88 0.929 . S
H116 C93 0.930 . S
H117 C94 0.930 . S
H118 C96 0.929 . S
H119 C97 0.929 . S
La120 C122 2.928 . S
La120 O140 2.521 . S
La120 O141 2.628 . S
La120 O142 2.554 . S
La120 O143 2.757 . S
La120 O144 2.470 . S
La120 O149 2.482 . S
La120 O151 2.503 . S
La121 C131 2.928 . S
La121 O143 2.482 . S
La121 O145 2.503 . S
La121 O146 2.521 . S
La121 O147 2.628 . S
La121 O148 2.554 . S
La121 O149 2.757 . S
La121 O150 2.470 . S
C122 La120 2.928 . S
C122 C123 1.503 . S
C122 O140 1.261 . S
C122 O141 1.243 . S
C123 C122 1.503 . S
C123 C124 1.394 1_655 S
C123 C128 1.373 . S
C124 C123 1.394 1_455 S
C124 C125 1.380 . S
C124 H152 0.930 . S
C125 C124 1.380 . S
C125 C126 1.376 . S
C125 H153 0.930 . S
C126 C125 1.376 . S
C126 C127 1.370 1_455 S
C127 C126 1.370 1_655 S
C127 C128 1.396 . S
C127 H154 0.929 . S
C128 C123 1.373 . S
C128 C127 1.396 . S
C128 H155 0.929 . S
C129 O142 1.240 . S
C129 O143 1.289 . S
C130 O144 1.258 . S
C130 O145 1.256 . S
C131 La121 2.928 . S
C131 C132 1.503 . S
C131 O146 1.261 . S
C131 O147 1.243 . S
C132 C131 1.503 . S
C132 C133 1.394 . S
C132 C137 1.373 . S
C133 C132 1.394 . S
C133 C134 1.380 . S
C133 H156 0.930 . S
C134 C133 1.380 . S
C134 C135 1.376 . S
C134 H157 0.930 . S
C135 C134 1.376 . S
C135 C136 1.370 . S
C136 C135 1.370 . S
C136 C137 1.396 . S
C136 H158 0.929 . S
C137 C132 1.373 . S
C137 C136 1.396 . S
C137 H159 0.929 . S
C138 O148 1.240 . S
C138 O149 1.289 . S
C139 O150 1.258 . S
C139 O151 1.256 . S
O140 La120 2.521 . S
O140 C122 1.261 . S
O141 La120 2.628 . S
O141 C122 1.243 . S
O142 La120 2.554 . S
O142 C129 1.240 . S
O143 La120 2.757 . S
O143 La121 2.482 . S
O143 C129 1.289 . S
O144 La120 2.470 . S
O144 C130 1.258 . S
O145 La121 2.503 . S
O145 C130 1.256 . S
O146 La121 2.521 . S
O146 C131 1.261 . S
O147 La121 2.628 . S
O147 C131 1.243 . S
O148 La121 2.554 . S
O148 C138 1.240 . S
O149 La120 2.482 . S
O149 La121 2.757 . S
O149 C138 1.289 . S
O150 La121 2.470 . S
O150 C139 1.258 . S
O151 La120 2.503 . S
O151 C139 1.256 . S
H152 C124 0.930 . S
H153 C125 0.930 . S
H154 C127 0.929 . S
H155 C128 0.929 . S
H156 C133 0.930 . S
H157 C134 0.930 . S
H158 C136 0.929 . S
H159 C137 0.929 . S
La160 C162 2.928 . S
La160 O180 2.521 . S
La160 O181 2.628 . S
La160 O182 2.554 . S
La160 O183 2.757 . S
La160 O184 2.470 . S
La160 O189 2.482 . S
La160 O191 2.503 . S
La161 C171 2.928 . S
La161 O183 2.482 . S
La161 O185 2.503 . S
La161 O186 2.521 . S
La161 O187 2.628 . S
La161 O188 2.554 . S
La161 O189 2.757 . S
La161 O190 2.470 . S
C162 La160 2.928 . S
C162 C163 1.503 . S
C162 O180 1.261 . S
C162 O181 1.243 . S
C163 C162 1.503 . S
C163 C164 1.394 1_565 S
C163 C168 1.373 . S
C164 C163 1.394 1_545 S
C164 C165 1.380 . S
C164 H192 0.930 . S
C165 C164 1.380 . S
C165 C166 1.376 . S
C165 H193 0.930 . S
C166 C165 1.376 . S
C166 C167 1.370 1_545 S
C167 C166 1.370 1_565 S
C167 C168 1.396 . S
C167 H194 0.929 . S
C168 C163 1.373 . S
C168 C167 1.396 . S
C168 H195 0.929 . S
C169 O182 1.240 . S
C169 O183 1.289 . S
C170 O184 1.258 . S
C170 O185 1.256 . S
C171 La161 2.928 . S
C171 C172 1.503 . S
C171 O186 1.261 . S
C171 O187 1.243 . S
C172 C171 1.503 . S
C172 C173 1.394 . S
C172 C177 1.373 . S
C173 C172 1.394 . S
C173 C174 1.380 . S
C173 H196 0.930 . S
C174 C173 1.380 . S
C174 C175 1.376 . S
C174 H197 0.930 . S
C175 C174 1.376 . S
C175 C176 1.370 . S
C176 C175 1.370 . S
C176 C177 1.396 . S
C176 H198 0.929 . S
C177 C172 1.373 . S
C177 C176 1.396 . S
C177 H199 0.929 . S
C178 O188 1.240 . S
C178 O189 1.289 . S
C179 O190 1.258 . S
C179 O191 1.256 . S
O180 La160 2.521 . S
O180 C162 1.261 . S
O181 La160 2.628 . S
O181 C162 1.243 . S
O182 La160 2.554 . S
O182 C169 1.240 . S
O183 La160 2.757 . S
O183 La161 2.482 . S
O183 C169 1.289 . S
O184 La160 2.470 . S
O184 C170 1.258 . S
O185 La161 2.503 . S
O185 C170 1.256 . S
O186 La161 2.521 . S
O186 C171 1.261 . S
O187 La161 2.628 . S
O187 C171 1.243 . S
O188 La161 2.554 . S
O188 C178 1.240 . S
O189 La160 2.482 . S
O189 La161 2.757 . S
O189 C178 1.289 . S
O190 La161 2.470 . S
O190 C179 1.258 . S
O191 La160 2.503 . S
O191 C179 1.256 . S
H192 C164 0.930 . S
H193 C165 0.930 . S
H194 C167 0.929 . S
H195 C168 0.929 . S
H196 C173 0.930 . S
H197 C174 0.930 . S
H198 C176 0.929 . S
H199 C177 0.929 . S
La200 C202 2.928 . S
La200 O220 2.521 . S
La200 O221 2.628 . S
La200 O222 2.554 . S
La200 O223 2.757 . S
La200 O224 2.470 . S
La200 O229 2.482 . S
La200 O231 2.503 . S
La201 C211 2.928 . S
La201 O223 2.482 . S
La201 O225 2.503 . S
La201 O226 2.521 . S
La201 O227 2.628 . S
La201 O228 2.554 . S
La201 O229 2.757 . S
La201 O230 2.470 . S
C202 La200 2.928 . S
C202 C203 1.503 . S
C202 O220 1.261 . S
C202 O221 1.243 . S
C203 C202 1.503 . S
C203 C204 1.394 . S
C203 C208 1.373 . S
C204 C203 1.394 . S
C204 C205 1.380 . S
C204 H232 0.930 . S
C205 C204 1.380 . S
C205 C206 1.376 . S
C205 H233 0.930 . S
C206 C205 1.376 . S
C206 C207 1.370 . S
C207 C206 1.370 . S
C207 C208 1.396 . S
C207 H234 0.929 . S
C208 C203 1.373 . S
C208 C207 1.396 . S
C208 H235 0.929 . S
C209 O222 1.240 . S
C209 O223 1.289 . S
C210 O224 1.258 . S
C210 O225 1.256 . S
C211 La201 2.928 . S
C211 C212 1.503 . S
C211 O226 1.261 . S
C211 O227 1.243 . S
C212 C211 1.503 . S
C212 C213 1.394 . S
C212 C217 1.373 . S
C213 C212 1.394 . S
C213 C214 1.380 . S
C213 H236 0.930 . S
C214 C213 1.380 . S
C214 C215 1.376 . S
C214 H237 0.930 . S
C215 C214 1.376 . S
C215 C216 1.370 . S
C216 C215 1.370 . S
C216 C217 1.396 . S
C216 H238 0.929 . S
C217 C212 1.373 . S
C217 C216 1.396 . S
C217 H239 0.929 . S
C218 O228 1.240 . S
C218 O229 1.289 . S
C219 O230 1.258 . S
C219 O231 1.256 . S
O220 La200 2.521 . S
O220 C202 1.261 . S
O221 La200 2.628 . S
O221 C202 1.243 . S
O222 La200 2.554 . S
O222 C209 1.240 . S
O223 La200 2.757 . S
O223 La201 2.482 . S
O223 C209 1.289 . S
O224 La200 2.470 . S
O224 C210 1.258 . S
O225 La201 2.503 . S
O225 C210 1.256 . S
O226 La201 2.521 . S
O226 C211 1.261 . S
O227 La201 2.628 . S
O227 C211 1.243 . S
O228 La201 2.554 . S
O228 C218 1.240 . S
O229 La200 2.482 . S
O229 La201 2.757 . S
O229 C218 1.289 . S
O230 La201 2.470 . S
O230 C219 1.258 . S
O231 La200 2.503 . S
O231 C219 1.256 . S
H232 C204 0.930 . S
H233 C205 0.930 . S
H234 C207 0.929 . S
H235 C208 0.929 . S
H236 C213 0.930 . S
H237 C214 0.930 . S
H238 C216 0.929 . S
H239 C217 0.929 . S
La240 C242 2.928 . S
La240 O260 2.521 . S
La240 O261 2.628 . S
La240 O262 2.554 . S
La240 O263 2.757 . S
La240 O264 2.470 . S
La240 O269 2.482 . S
La240 O271 2.503 . S
La241 C251 2.928 . S
La241 O263 2.482 . S
La241 O265 2.503 . S
La241 O266 2.521 . S
La241 O267 2.628 . S
La241 O268 2.554 . S
La241 O269 2.757 . S
La241 O270 2.470 . S
C242 La240 2.928 . S
C242 C243 1.503 . S
C242 O260 1.261 . S
C242 O261 1.243 . S
C243 C242 1.503 . S
C243 C244 1.394 1_545 S
C243 C248 1.373 . S
C244 C243 1.394 1_565 S
C244 C245 1.380 . S
C244 H272 0.930 . S
C245 C244 1.380 . S
C245 C246 1.376 . S
C245 H273 0.930 . S
C246 C245 1.376 . S
C246 C247 1.370 1_565 S
C247 C246 1.370 1_545 S
C247 C248 1.396 . S
C247 H274 0.929 . S
C248 C243 1.373 . S
C248 C247 1.396 . S
C248 H275 0.929 . S
C249 O262 1.240 . S
C249 O263 1.289 . S
C250 O264 1.258 . S
C250 O265 1.256 . S
C251 La241 2.928 . S
C251 C252 1.503 . S
C251 O266 1.261 . S
C251 O267 1.243 . S
C252 C251 1.503 . S
C252 C253 1.394 . S
C252 C257 1.373 . S
C253 C252 1.394 . S
C253 C254 1.380 . S
C253 H276 0.930 . S
C254 C253 1.380 . S
C254 C255 1.376 . S
C254 H277 0.930 . S
C255 C254 1.376 . S
C255 C256 1.370 . S
C256 C255 1.370 . S
C256 C257 1.396 . S
C256 H278 0.929 . S
C257 C252 1.373 . S
C257 C256 1.396 . S
C257 H279 0.929 . S
C258 O268 1.240 . S
C258 O269 1.289 . S
C259 O270 1.258 . S
C259 O271 1.256 . S
O260 La240 2.521 . S
O260 C242 1.261 . S
O261 La240 2.628 . S
O261 C242 1.243 . S
O262 La240 2.554 . S
O262 C249 1.240 . S
O263 La240 2.757 . S
O263 La241 2.482 . S
O263 C249 1.289 . S
O264 La240 2.470 . S
O264 C250 1.258 . S
O265 La241 2.503 . S
O265 C250 1.256 . S
O266 La241 2.521 . S
O266 C251 1.261 . S
O267 La241 2.628 . S
O267 C251 1.243 . S
O268 La241 2.554 . S
O268 C258 1.240 . S
O269 La240 2.482 . S
O269 La241 2.757 . S
O269 C258 1.289 . S
O270 La241 2.470 . S
O270 C259 1.258 . S
O271 La240 2.503 . S
O271 C259 1.256 . S
H272 C244 0.930 . S
H273 C245 0.930 . S
H274 C247 0.929 . S
H275 C248 0.929 . S
H276 C253 0.930 . S
H277 C254 0.930 . S
H278 C256 0.929 . S
H279 C257 0.929 . S
La280 C282 2.928 . S
La280 O300 2.521 . S
La280 O301 2.628 . S
La280 O302 2.554 . S
La280 O303 2.757 . S
La280 O304 2.470 . S
La280 O309 2.482 . S
La280 O311 2.503 . S
La281 C291 2.928 . S
La281 O303 2.482 . S
La281 O305 2.503 . S
La281 O306 2.521 . S
La281 O307 2.628 . S
La281 O308 2.554 . S
La281 O309 2.757 . S
La281 O310 2.470 . S
C282 La280 2.928 . S
C282 C283 1.503 . S
C282 O300 1.261 . S
C282 O301 1.243 . S
C283 C282 1.503 . S
C283 C284 1.394 . S
C283 C288 1.373 . S
C284 C283 1.394 . S
C284 C285 1.380 . S
C284 H312 0.930 . S
C285 C284 1.380 . S
C285 C286 1.376 . S
C285 H313 0.930 . S
C286 C285 1.376 . S
C286 C287 1.370 . S
C287 C286 1.370 . S
C287 C288 1.396 . S
C287 H314 0.929 . S
C288 C283 1.373 . S
C288 C287 1.396 . S
C288 H315 0.929 . S
C289 O302 1.240 . S
C289 O303 1.289 . S
C290 O304 1.258 . S
C290 O305 1.256 . S
C291 La281 2.928 . S
C291 C292 1.503 . S
C291 O306 1.261 . S
C291 O307 1.243 . S
C292 C291 1.503 . S
C292 C293 1.394 1_455 S
C292 C297 1.373 . S
C293 C292 1.394 1_655 S
C293 C294 1.380 . S
C293 H316 0.930 . S
C294 C293 1.380 . S
C294 C295 1.376 . S
C294 H317 0.930 . S
C295 C294 1.376 . S
C295 C296 1.370 1_655 S
C296 C295 1.370 1_455 S
C296 C297 1.396 . S
C296 H318 0.929 . S
C297 C292 1.373 . S
C297 C296 1.396 . S
C297 H319 0.929 . S
C298 O308 1.240 . S
C298 O309 1.289 . S
C299 O310 1.258 . S
C299 O311 1.256 . S
O300 La280 2.521 . S
O300 C282 1.261 . S
O301 La280 2.628 . S
O301 C282 1.243 . S
O302 La280 2.554 . S
O302 C289 1.240 . S
O303 La280 2.757 . S
O303 La281 2.482 . S
O303 C289 1.289 . S
O304 La280 2.470 . S
O304 C290 1.258 . S
O305 La281 2.503 . S
O305 C290 1.256 . S
O306 La281 2.521 . S
O306 C291 1.261 . S
O307 La281 2.628 . S
O307 C291 1.243 . S
O308 La281 2.554 . S
O308 C298 1.240 . S
O309 La280 2.482 . S
O309 La281 2.757 . S
O309 C298 1.289 . S
O310 La281 2.470 . S
O310 C299 1.258 . S
O311 La280 2.503 . S
O311 C299 1.256 . S
H312 C284 0.930 . S
H313 C285 0.930 . S
H314 C287 0.929 . S
H315 C288 0.929 . S
H316 C293 0.930 . S
H317 C294 0.930 . S
H318 C296 0.929 . S
H319 C297 0.929 . S
La320 C322 2.928 . S
La320 O340 2.521 . S
La320 O341 2.628 . S
La320 O342 2.554 . S
La320 O343 2.757 . S
La320 O344 2.470 . S
La320 O349 2.482 . S
La320 O351 2.503 . S
La321 C331 2.928 . S
La321 O343 2.482 . S
La321 O345 2.503 . S
La321 O346 2.521 . S
La321 O347 2.628 . S
La321 O348 2.554 . S
La321 O349 2.757 . S
La321 O350 2.470 . S
C322 La320 2.928 . S
C322 C323 1.503 . S
C322 O340 1.261 . S
C322 O341 1.243 . S
C323 C322 1.503 . S
C323 C324 1.394 . S
C323 C328 1.373 . S
C324 C323 1.394 . S
C324 C325 1.380 . S
C324 H352 0.930 . S
C325 C324 1.380 . S
C325 C326 1.376 . S
C325 H353 0.930 . S
C326 C325 1.376 . S
C326 C327 1.370 . S
C327 C326 1.370 . S
C327 C328 1.396 . S
C327 H354 0.929 . S
C328 C323 1.373 . S
C328 C327 1.396 . S
C328 H355 0.929 . S
C329 O342 1.240 . S
C329 O343 1.289 . S
C330 O344 1.258 . S
C330 O345 1.256 . S
C331 La321 2.928 . S
C331 C332 1.503 . S
C331 O346 1.261 . S
C331 O347 1.243 . S
C332 C331 1.503 . S
C332 C333 1.394 . S
C332 C337 1.373 . S
C333 C332 1.394 . S
C333 C334 1.380 . S
C333 H356 0.930 . S
C334 C333 1.380 . S
C334 C335 1.376 . S
C334 H357 0.930 . S
C335 C334 1.376 . S
C335 C336 1.370 . S
C336 C335 1.370 . S
C336 C337 1.396 . S
C336 H358 0.929 . S
C337 C332 1.373 . S
C337 C336 1.396 . S
C337 H359 0.929 . S
C338 O348 1.240 . S
C338 O349 1.289 . S
C339 O350 1.258 . S
C339 O351 1.256 . S
O340 La320 2.521 . S
O340 C322 1.261 . S
O341 La320 2.628 . S
O341 C322 1.243 . S
O342 La320 2.554 . S
O342 C329 1.240 . S
O343 La320 2.757 . S
O343 La321 2.482 . S
O343 C329 1.289 . S
O344 La320 2.470 . S
O344 C330 1.258 . S
O345 La321 2.503 . S
O345 C330 1.256 . S
O346 La321 2.521 . S
O346 C331 1.261 . S
O347 La321 2.628 . S
O347 C331 1.243 . S
O348 La321 2.554 . S
O348 C338 1.240 . S
O349 La320 2.482 . S
O349 La321 2.757 . S
O349 C338 1.289 . S
O350 La321 2.470 . S
O350 C339 1.258 . S
O351 La320 2.503 . S
O351 C339 1.256 . S
H352 C324 0.930 . S
H353 C325 0.930 . S
H354 C327 0.929 . S
H355 C328 0.929 . S
H356 C333 0.930 . S
H357 C334 0.930 . S
H358 C336 0.929 . S
H359 C337 0.929 . S
La360 C362 2.928 1_565 S
La360 O380 2.521 1_565 S
La360 O381 2.628 1_565 S
La360 O382 2.554 . S
La360 O383 2.756 1_565 S
La360 O384 2.470 1_565 S
La360 O389 2.482 1_565 S
La360 O391 2.503 . S
La361 C371 2.928 . S
La361 O383 2.492 . S
La361 O385 2.503 . S
La361 O386 2.521 . S
La361 O387 2.628 1_545 S
La361 O388 2.554 . S
La361 O389 2.757 . S
La361 O390 2.470 1_545 S
C362 La360 2.928 1_545 S
C362 C363 1.503 . S
C362 O380 1.261 . S
C362 O381 1.243 . S
C363 C362 1.503 . S
C363 C364 1.394 1_455 S
C363 C368 1.373 . S
C364 C363 1.394 1_655 S
C364 C365 1.380 . S
C364 H392 0.930 . S
C365 C364 1.380 . S
C365 C366 1.376 . S
C365 H393 0.930 . S
C366 C365 1.376 . S
C366 C367 1.370 1_655 S
C367 C366 1.370 1_455 S
C367 C368 1.396 . S
C367 H394 0.929 . S
C368 C363 1.373 . S
C368 C367 1.396 . S
C368 H395 0.929 . S
C369 O382 1.240 . S
C369 O383 1.284 1_565 S
C370 O384 1.258 . S
C370 O385 1.256 . S
C371 La361 2.928 . S
C371 C372 1.503 1_545 S
C371 O386 1.261 . S
C371 O387 1.243 1_545 S
C372 C371 1.503 1_565 S
C372 C373 1.394 1_565 S
C372 C377 1.373 . S
C373 C372 1.394 1_545 S
C373 C374 1.376 1_545 S
C373 H396 0.930 . S
C374 C373 1.376 1_565 S
C374 C375 1.387 . S
C374 H397 0.925 1_565 S
C375 C374 1.387 . S
C375 C376 1.370 . S
C376 C375 1.370 . S
C376 C377 1.396 . S
C376 H398 0.929 . S
C377 C372 1.373 . S
C377 C376 1.396 . S
C377 H399 0.929 . S
C378 O388 1.240 . S
C378 O389 1.289 . S
C379 O390 1.258 . S
C379 O391 1.256 . S
O380 La360 2.521 1_545 S
O380 C362 1.261 . S
O381 La360 2.628 1_545 S
O381 C362 1.243 . S
O382 La360 2.554 . S
O382 C369 1.240 . S
O383 La360 2.756 1_545 S
O383 La361 2.492 . S
O383 C369 1.284 1_545 S
O384 La360 2.470 1_545 S
O384 C370 1.258 . S
O385 La361 2.503 . S
O385 C370 1.256 . S
O386 La361 2.521 . S
O386 C371 1.261 . S
O387 La361 2.628 1_565 S
O387 C371 1.243 1_565 S
O388 La361 2.554 . S
O388 C378 1.240 . S
O389 La360 2.482 1_545 S
O389 La361 2.757 . S
O389 C378 1.289 . S
O390 La361 2.470 1_565 S
O390 C379 1.258 . S
O391 La360 2.503 . S
O391 C379 1.256 . S
H392 C364 0.930 . S
H393 C365 0.930 . S
H394 C367 0.929 . S
H395 C368 0.929 . S
H396 C373 0.930 . S
H397 C374 0.925 1_545 S
H398 C376 0.929 . S
H399 C377 0.929 . S
La400 C402 2.928 . S
La400 O420 2.521 . S
La400 O421 2.628 . S
La400 O422 2.554 . S
La400 O423 2.757 . S
La400 O424 2.470 . S
La400 O429 2.482 . S
La400 O431 2.503 . S
La401 C411 2.928 . S
La401 O423 2.482 . S
La401 O425 2.503 . S
La401 O426 2.521 . S
La401 O427 2.628 . S
La401 O428 2.554 . S
La401 O429 2.757 . S
La401 O430 2.470 . S
C402 La400 2.928 . S
C402 C403 1.503 . S
C402 O420 1.261 . S
C402 O421 1.243 . S
C403 C402 1.503 . S
C403 C404 1.394 . S
C403 C408 1.373 . S
C404 C403 1.394 . S
C404 C405 1.380 . S
C404 H432 0.930 . S
C405 C404 1.380 . S
C405 C406 1.376 . S
C405 H433 0.930 . S
C406 C405 1.376 . S
C406 C407 1.370 . S
C407 C406 1.370 . S
C407 C408 1.396 . S
C407 H434 0.929 . S
C408 C403 1.373 . S
C408 C407 1.396 . S
C408 H435 0.929 . S
C409 O422 1.240 . S
C409 O423 1.289 . S
C410 O424 1.258 . S
C410 O425 1.256 . S
C411 La401 2.928 . S
C411 C412 1.503 . S
C411 O426 1.261 . S
C411 O427 1.243 . S
C412 C411 1.503 . S
C412 C413 1.394 . S
C412 C417 1.373 . S
C413 C412 1.394 . S
C413 C414 1.380 . S
C413 H436 0.930 . S
C414 C413 1.380 . S
C414 C415 1.376 . S
C414 H437 0.930 . S
C415 C414 1.376 . S
C415 C416 1.370 . S
C416 C415 1.370 . S
C416 C417 1.396 . S
C416 H438 0.929 . S
C417 C412 1.373 . S
C417 C416 1.396 . S
C417 H439 0.929 . S
C418 O428 1.240 . S
C418 O429 1.289 . S
C419 O430 1.258 . S
C419 O431 1.256 . S
O420 La400 2.521 . S
O420 C402 1.261 . S
O421 La400 2.628 . S
O421 C402 1.243 . S
O422 La400 2.554 . S
O422 C409 1.240 . S
O423 La400 2.757 . S
O423 La401 2.482 . S
O423 C409 1.289 . S
O424 La400 2.470 . S
O424 C410 1.258 . S
O425 La401 2.503 . S
O425 C410 1.256 . S
O426 La401 2.521 . S
O426 C411 1.261 . S
O427 La401 2.628 . S
O427 C411 1.243 . S
O428 La401 2.554 . S
O428 C418 1.240 . S
O429 La400 2.482 . S
O429 La401 2.757 . S
O429 C418 1.289 . S
O430 La401 2.470 . S
O430 C419 1.258 . S
O431 La400 2.503 . S
O431 C419 1.256 . S
H432 C404 0.930 . S
H433 C405 0.930 . S
H434 C407 0.929 . S
H435 C408 0.929 . S
H436 C413 0.930 . S
H437 C414 0.930 . S
H438 C416 0.929 . S
H439 C417 0.929 . S
La440 C442 2.928 1_545 S
La440 O460 2.521 1_545 S
La440 O461 2.628 1_545 S
La440 O462 2.554 . S
La440 O463 2.756 1_545 S
La440 O464 2.470 1_545 S
La440 O469 2.482 1_545 S
La440 O471 2.503 . S
La441 C451 2.928 . S
La441 O463 2.492 . S
La441 O465 2.503 . S
La441 O466 2.521 . S
La441 O467 2.628 1_565 S
La441 O468 2.554 . S
La441 O469 2.757 . S
La441 O470 2.470 1_565 S
C442 La440 2.928 1_565 S
C442 C443 1.503 . S
C442 O460 1.261 . S
C442 O461 1.243 . S
C443 C442 1.503 . S
C443 C444 1.394 . S
C443 C448 1.373 . S
C444 C443 1.394 . S
C444 C445 1.380 . S
C444 H472 0.930 . S
C445 C444 1.380 . S
C445 C446 1.376 . S
C445 H473 0.930 . S
C446 C445 1.376 . S
C446 C447 1.370 . S
C447 C446 1.370 . S
C447 C448 1.396 . S
C447 H474 0.929 . S
C448 C443 1.373 . S
C448 C447 1.396 . S
C448 H475 0.929 . S
C449 O462 1.240 . S
C449 O463 1.284 1_545 S
C450 O464 1.258 . S
C450 O465 1.256 . S
C451 La441 2.928 . S
C451 C452 1.503 1_565 S
C451 O466 1.261 . S
C451 O467 1.243 1_565 S
C452 C451 1.503 1_545 S
C452 C453 1.394 1_545 S
C452 C457 1.373 . S
C453 C452 1.394 1_565 S
C453 C454 1.376 1_565 S
C453 H476 0.930 . S
C454 C453 1.376 1_545 S
C454 C455 1.387 . S
C454 H477 0.925 1_545 S
C455 C454 1.387 . S
C455 C456 1.370 . S
C456 C455 1.370 . S
C456 C457 1.396 . S
C456 H478 0.929 . S
C457 C452 1.373 . S
C457 C456 1.396 . S
C457 H479 0.929 . S
C458 O468 1.240 . S
C458 O469 1.289 . S
C459 O470 1.258 . S
C459 O471 1.256 . S
O460 La440 2.521 1_565 S
O460 C442 1.261 . S
O461 La440 2.628 1_565 S
O461 C442 1.243 . S
O462 La440 2.554 . S
O462 C449 1.240 . S
O463 La440 2.756 1_565 S
O463 La441 2.492 . S
O463 C449 1.284 1_565 S
O464 La440 2.470 1_565 S
O464 C450 1.258 . S
O465 La441 2.503 . S
O465 C450 1.256 . S
O466 La441 2.521 . S
O466 C451 1.261 . S
O467 La441 2.628 1_545 S
O467 C451 1.243 1_545 S
O468 La441 2.554 . S
O468 C458 1.240 . S
O469 La440 2.482 1_565 S
O469 La441 2.757 . S
O469 C458 1.289 . S
O470 La441 2.470 1_545 S
O470 C459 1.258 . S
O471 La440 2.503 . S
O471 C459 1.256 . S
H472 C444 0.930 . S
H473 C445 0.930 . S
H474 C447 0.929 . S
H475 C448 0.929 . S
H476 C453 0.930 . S
H477 C454 0.925 1_565 S
H478 C456 0.929 . S
H479 C457 0.929 . S
La480 C482 2.928 . S
La480 O500 2.521 . S
La480 O501 2.628 . S
La480 O502 2.554 . S
La480 O503 2.757 . S
La480 O504 2.470 . S
La480 O509 2.482 . S
La480 O511 2.503 . S
La481 C491 2.928 . S
La481 O503 2.482 . S
La481 O505 2.503 . S
La481 O506 2.521 . S
La481 O507 2.628 . S
La481 O508 2.554 . S
La481 O509 2.757 . S
La481 O510 2.470 . S
C482 La480 2.928 . S
C482 C483 1.503 . S
C482 O500 1.261 . S
C482 O501 1.243 . S
C483 C482 1.503 . S
C483 C484 1.394 . S
C483 C488 1.373 . S
C484 C483 1.394 . S
C484 C485 1.380 . S
C484 H512 0.930 . S
C485 C484 1.380 . S
C485 C486 1.376 . S
C485 H513 0.930 . S
C486 C485 1.376 . S
C486 C487 1.370 . S
C487 C486 1.370 . S
C487 C488 1.396 . S
C487 H514 0.929 . S
C488 C483 1.373 . S
C488 C487 1.396 . S
C488 H515 0.929 . S
C489 O502 1.240 . S
C489 O503 1.289 . S
C490 O504 1.258 . S
C490 O505 1.256 . S
C491 La481 2.928 . S
C491 C492 1.503 . S
C491 O506 1.261 . S
C491 O507 1.243 . S
C492 C491 1.503 . S
C492 C493 1.394 . S
C492 C497 1.373 . S
C493 C492 1.394 . S
C493 C494 1.380 . S
C493 H516 0.930 . S
C494 C493 1.380 . S
C494 C495 1.376 . S
C494 H517 0.930 . S
C495 C494 1.376 . S
C495 C496 1.370 . S
C496 C495 1.370 . S
C496 C497 1.396 . S
C496 H518 0.929 . S
C497 C492 1.373 . S
C497 C496 1.396 . S
C497 H519 0.929 . S
C498 O508 1.240 . S
C498 O509 1.289 . S
C499 O510 1.258 . S
C499 O511 1.256 . S
O500 La480 2.521 . S
O500 C482 1.261 . S
O501 La480 2.628 . S
O501 C482 1.243 . S
O502 La480 2.554 . S
O502 C489 1.240 . S
O503 La480 2.757 . S
O503 La481 2.482 . S
O503 C489 1.289 . S
O504 La480 2.470 . S
O504 C490 1.258 . S
O505 La481 2.503 . S
O505 C490 1.256 . S
O506 La481 2.521 . S
O506 C491 1.261 . S
O507 La481 2.628 . S
O507 C491 1.243 . S
O508 La481 2.554 . S
O508 C498 1.240 . S
O509 La480 2.482 . S
O509 La481 2.757 . S
O509 C498 1.289 . S
O510 La481 2.470 . S
O510 C499 1.258 . S
O511 La480 2.503 . S
O511 C499 1.256 . S
H512 C484 0.930 . S
H513 C485 0.930 . S
H514 C487 0.929 . S
H515 C488 0.929 . S
H516 C493 0.930 . S
H517 C494 0.930 . S
H518 C496 0.929 . S
H519 C497 0.929 . S
La520 C522 2.928 . S
La520 O540 2.521 . S
La520 O541 2.628 1_565 S
La520 O542 2.554 . S
La520 O543 2.757 . S
La520 O544 2.470 1_565 S
La520 O549 2.492 . S
La520 O551 2.503 . S
La521 C531 2.928 1_545 S
La521 O543 2.482 1_545 S
La521 O545 2.503 . S
La521 O546 2.521 1_545 S
La521 O547 2.628 1_545 S
La521 O548 2.554 . S
La521 O549 2.756 1_545 S
La521 O550 2.470 1_545 S
C522 La520 2.928 . S
C522 C523 1.503 1_565 S
C522 O540 1.261 . S
C522 O541 1.243 1_565 S
C523 C522 1.503 1_545 S
C523 C524 1.394 1_545 S
C523 C528 1.373 . S
C524 C523 1.394 1_565 S
C524 C525 1.376 1_565 S
C524 H552 0.930 . S
C525 C524 1.376 1_545 S
C525 C526 1.387 . S
C525 H553 0.925 1_545 S
C526 C525 1.387 . S
C526 C527 1.370 . S
C527 C526 1.370 . S
C527 C528 1.396 . S
C527 H554 0.929 . S
C528 C523 1.373 . S
C528 C527 1.396 . S
C528 H555 0.929 . S
C529 O542 1.240 . S
C529 O543 1.289 . S
C530 O544 1.258 . S
C530 O545 1.256 . S
C531 La521 2.928 1_565 S
C531 C532 1.503 . S
C531 O546 1.261 . S
C531 O547 1.243 . S
C532 C531 1.503 . S
C532 C533 1.394 1_655 S
C532 C537 1.373 . S
C533 C532 1.394 1_455 S
C533 C534 1.380 . S
C533 H556 0.930 . S
C534 C533 1.380 . S
C534 C535 1.376 . S
C534 H557 0.930 . S
C535 C534 1.376 . S
C535 C536 1.370 1_455 S
C536 C535 1.370 1_655 S
C536 C537 1.396 . S
C536 H558 0.929 . S
C537 C532 1.373 . S
C537 C536 1.396 . S
C537 H559 0.929 . S
C538 O548 1.240 . S
C538 O549 1.284 1_545 S
C539 O550 1.258 . S
C539 O551 1.256 . S
O540 La520 2.521 . S
O540 C522 1.261 . S
O541 La520 2.628 1_545 S
O541 C522 1.243 1_545 S
O542 La520 2.554 . S
O542 C529 1.240 . S
O543 La520 2.757 . S
O543 La521 2.482 1_565 S
O543 C529 1.289 . S
O544 La520 2.470 1_545 S
O544 C530 1.258 . S
O545 La521 2.503 . S
O545 C530 1.256 . S
O546 La521 2.521 1_565 S
O546 C531 1.261 . S
O547 La521 2.628 1_565 S
O547 C531 1.243 . S
O548 La521 2.554 . S
O548 C538 1.240 . S
O549 La520 2.492 . S
O549 La521 2.756 1_565 S
O549 C538 1.284 1_565 S
O550 La521 2.470 1_565 S
O550 C539 1.258 . S
O551 La520 2.503 . S
O551 C539 1.256 . S
H552 C524 0.930 . S
H553 C525 0.925 1_565 S
H554 C527 0.929 . S
H555 C528 0.929 . S
H556 C533 0.930 . S
H557 C534 0.930 . S
H558 C536 0.929 . S
H559 C537 0.929 . S
La560 C562 2.928 . S
La560 O580 2.521 . S
La560 O581 2.628 . S
La560 O582 2.554 . S
La560 O583 2.757 . S
La560 O584 2.470 . S
La560 O589 2.482 . S
La560 O591 2.503 . S
La561 C571 2.928 . S
La561 O583 2.482 . S
La561 O585 2.503 . S
La561 O586 2.521 . S
La561 O587 2.628 . S
La561 O588 2.554 . S
La561 O589 2.757 . S
La561 O590 2.470 . S
C562 La560 2.928 . S
C562 C563 1.503 . S
C562 O580 1.261 . S
C562 O581 1.243 . S
C563 C562 1.503 . S
C563 C564 1.394 . S
C563 C568 1.373 . S
C564 C563 1.394 . S
C564 C565 1.380 . S
C564 H592 0.930 . S
C565 C564 1.380 . S
C565 C566 1.376 . S
C565 H593 0.930 . S
C566 C565 1.376 . S
C566 C567 1.370 . S
C567 C566 1.370 . S
C567 C568 1.396 . S
C567 H594 0.929 . S
C568 C563 1.373 . S
C568 C567 1.396 . S
C568 H595 0.929 . S
C569 O582 1.240 . S
C569 O583 1.289 . S
C570 O584 1.258 . S
C570 O585 1.256 . S
C571 La561 2.928 . S
C571 C572 1.503 . S
C571 O586 1.261 . S
C571 O587 1.243 . S
C572 C571 1.503 . S
C572 C573 1.394 . S
C572 C577 1.373 . S
C573 C572 1.394 . S
C573 C574 1.380 . S
C573 H596 0.930 . S
C574 C573 1.380 . S
C574 C575 1.376 . S
C574 H597 0.930 . S
C575 C574 1.376 . S
C575 C576 1.370 . S
C576 C575 1.370 . S
C576 C577 1.396 . S
C576 H598 0.929 . S
C577 C572 1.373 . S
C577 C576 1.396 . S
C577 H599 0.929 . S
C578 O588 1.240 . S
C578 O589 1.289 . S
C579 O590 1.258 . S
C579 O591 1.256 . S
O580 La560 2.521 . S
O580 C562 1.261 . S
O581 La560 2.628 . S
O581 C562 1.243 . S
O582 La560 2.554 . S
O582 C569 1.240 . S
O583 La560 2.757 . S
O583 La561 2.482 . S
O583 C569 1.289 . S
O584 La560 2.470 . S
O584 C570 1.258 . S
O585 La561 2.503 . S
O585 C570 1.256 . S
O586 La561 2.521 . S
O586 C571 1.261 . S
O587 La561 2.628 . S
O587 C571 1.243 . S
O588 La561 2.554 . S
O588 C578 1.240 . S
O589 La560 2.482 . S
O589 La561 2.757 . S
O589 C578 1.289 . S
O590 La561 2.470 . S
O590 C579 1.258 . S
O591 La560 2.503 . S
O591 C579 1.256 . S
H592 C564 0.930 . S
H593 C565 0.930 . S
H594 C567 0.929 . S
H595 C568 0.929 . S
H596 C573 0.930 . S
H597 C574 0.930 . S
H598 C576 0.929 . S
H599 C577 0.929 . S
La600 C602 2.928 . S
La600 O620 2.521 . S
La600 O621 2.628 1_545 S
La600 O622 2.554 . S
La600 O623 2.757 . S
La600 O624 2.470 1_545 S
La600 O629 2.492 . S
La600 O631 2.503 . S
La601 C611 2.928 1_565 S
La601 O623 2.482 1_565 S
La601 O625 2.503 . S
La601 O626 2.521 1_565 S
La601 O627 2.628 1_565 S
La601 O628 2.554 . S
La601 O629 2.756 1_565 S
La601 O630 2.470 1_565 S
C602 La600 2.928 . S
C602 C603 1.503 1_545 S
C602 O620 1.261 . S
C602 O621 1.243 1_545 S
C603 C602 1.503 1_565 S
C603 C604 1.394 1_565 S
C603 C608 1.373 . S
C604 C603 1.394 1_545 S
C604 C605 1.376 1_545 S
C604 H632 0.930 . S
C605 C604 1.376 1_565 S
C605 C606 1.387 . S
C605 H633 0.925 1_565 S
C606 C605 1.387 . S
C606 C607 1.370 . S
C607 C606 1.370 . S
C607 C608 1.396 . S
C607 H634 0.929 . S
C608 C603 1.373 . S
C608 C607 1.396 . S
C608 H635 0.929 . S
C609 O622 1.240 . S
C609 O623 1.289 . S
C610 O624 1.258 . S
C610 O625 1.256 . S
C611 La601 2.928 1_545 S
C611 C612 1.503 . S
C611 O626 1.261 . S
C611 O627 1.243 . S
C612 C611 1.503 . S
C612 C613 1.394 . S
C612 C617 1.373 . S
C613 C612 1.394 . S
C613 C614 1.380 . S
C613 H636 0.930 . S
C614 C613 1.380 . S
C614 C615 1.376 . S
C614 H637 0.930 . S
C615 C614 1.376 . S
C615 C616 1.370 . S
C616 C615 1.370 . S
C616 C617 1.396 . S
C616 H638 0.929 . S
C617 C612 1.373 . S
C617 C616 1.396 . S
C617 H639 0.929 . S
C618 O628 1.240 . S
C618 O629 1.284 1_565 S
C619 O630 1.258 . S
C619 O631 1.256 . S
O620 La600 2.521 . S
O620 C602 1.261 . S
O621 La600 2.628 1_565 S
O621 C602 1.243 1_565 S
O622 La600 2.554 . S
O622 C609 1.240 . S
O623 La600 2.757 . S
O623 La601 2.482 1_545 S
O623 C609 1.289 . S
O624 La600 2.470 1_565 S
O624 C610 1.258 . S
O625 La601 2.503 . S
O625 C610 1.256 . S
O626 La601 2.521 1_545 S
O626 C611 1.261 . S
O627 La601 2.628 1_545 S
O627 C611 1.243 . S
O628 La601 2.554 . S
O628 C618 1.240 . S
O629 La600 2.492 . S
O629 La601 2.756 1_545 S
O629 C618 1.284 1_545 S
O630 La601 2.470 1_545 S
O630 C619 1.258 . S
O631 La600 2.503 . S
O631 C619 1.256 . S
H632 C604 0.930 . S
H633 C605 0.925 1_545 S
H634 C607 0.929 . S
H635 C608 0.929 . S
H636 C613 0.930 . S
H637 C614 0.930 . S
H638 C616 0.929 . S
H639 C617 0.929 . S
C640 C641 1.363 . S
C640 C646 1.379 . S
C640 N648 1.356 . S
C641 C640 1.363 . S
C641 C647 1.363 . S
C642 C643 1.363 . S
C642 C647 1.379 . S
C642 N649 1.356 . S
C643 C642 1.363 . S
C643 C646 1.363 . S
N644 C646 1.356 . S
N644 H656 0.984 . S
N644 H657 0.985 . S
N645 C647 1.356 . S
N645 H650 0.984 . S
N645 H651 0.985 . S
C646 C640 1.379 . S
C646 C643 1.363 . S
C646 N644 1.356 . S
C647 C641 1.363 . S
C647 C642 1.379 . S
C647 N645 1.356 . S
N648 C640 1.356 . S
N648 H654 0.984 . S
N648 H655 0.984 . S
N649 C642 1.356 . S
N649 H652 0.984 . S
N649 H653 0.985 . S
H650 N645 0.984 . S
H651 N645 0.985 . S
H652 N649 0.984 . S
H653 N649 0.985 . S
H654 N648 0.984 . S
H655 N648 0.984 . S
H656 N644 0.984 . S
H657 N644 0.985 . S
C658 C659 1.363 . S
C658 C664 1.379 . S
C658 N666 1.356 . S
C659 C658 1.363 . S
C659 C665 1.363 . S
C660 C661 1.363 . S
C660 C665 1.379 . S
C660 N667 1.356 . S
C661 C660 1.363 . S
C661 C664 1.363 . S
N662 C664 1.356 . S
N662 H674 0.984 . S
N662 H675 0.985 . S
N663 C665 1.356 . S
N663 H668 0.984 . S
N663 H669 0.985 . S
C664 C658 1.379 . S
C664 C661 1.363 . S
C664 N662 1.356 . S
C665 C659 1.363 . S
C665 C660 1.379 . S
C665 N663 1.356 . S
N666 C658 1.356 . S
N666 H672 0.984 . S
N666 H673 0.984 . S
N667 C660 1.356 . S
N667 H670 0.984 . S
N667 H671 0.985 . S
H668 N663 0.984 . S
H669 N663 0.985 . S
H670 N667 0.984 . S
H671 N667 0.985 . S
H672 N666 0.984 . S
H673 N666 0.984 . S
H674 N662 0.984 . S
H675 N662 0.985 . S
C676 C677 1.363 . S
C676 C682 1.379 . S
C676 N684 1.356 . S
C677 C676 1.363 . S
C677 C683 1.363 . S
C678 C679 1.363 . S
C678 C683 1.379 . S
C678 N685 1.356 . S
C679 C678 1.363 . S
C679 C682 1.363 . S
N680 C682 1.356 . S
N680 H692 0.984 . S
N680 H693 0.985 . S
N681 C683 1.356 . S
N681 H686 0.984 . S
N681 H687 0.985 . S
C682 C676 1.379 . S
C682 C679 1.363 . S
C682 N680 1.356 . S
C683 C677 1.363 . S
C683 C678 1.379 . S
C683 N681 1.356 . S
N684 C676 1.356 . S
N684 H690 0.984 . S
N684 H691 0.984 . S
N685 C678 1.356 . S
N685 H688 0.984 . S
N685 H689 0.985 . S
H686 N681 0.984 . S
H687 N681 0.985 . S
H688 N685 0.984 . S
H689 N685 0.985 . S
H690 N684 0.984 . S
H691 N684 0.984 . S
H692 N680 0.984 . S
H693 N680 0.985 . S
C694 C695 1.402 1_655 S
C694 C700 1.379 . S
C694 N702 1.356 . S
C695 C694 1.402 1_455 S
C695 C701 1.322 1_554 S
C696 C697 1.402 1_455 S
C696 C701 1.379 . S
C696 N703 1.356 . S
C697 C696 1.402 1_655 S
C697 C700 1.322 1_556 S
N698 C700 1.356 . S
N698 H710 0.984 . S
N698 H711 0.985 . S
N699 C701 1.356 . S
N699 H704 0.984 . S
N699 H705 0.985 . S
C700 C694 1.379 . S
C700 C697 1.322 1_554 S
C700 N698 1.356 . S
C701 C695 1.322 1_556 S
C701 C696 1.379 . S
C701 N699 1.356 . S
N702 C694 1.356 . S
N702 H708 0.984 . S
N702 H709 0.984 1_655 S
N703 C696 1.356 . S
N703 H706 0.984 1_455 S
N703 H707 0.985 . S
H704 N699 0.984 . S
H705 N699 0.985 . S
H706 N703 0.984 1_655 S
H707 N703 0.985 . S
H708 N702 0.984 . S
H709 N702 0.984 1_455 S
H710 N698 0.984 . S
H711 N698 0.985 . S
C712 C713 1.363 . S
C712 C718 1.379 . S
C712 N720 1.356 . S
C713 C712 1.363 . S
C713 C719 1.363 . S
C714 C715 1.363 . S
C714 C719 1.379 . S
C714 N721 1.356 . S
C715 C714 1.363 . S
C715 C718 1.363 . S
N716 C718 1.356 . S
N716 H728 0.984 . S
N716 H729 0.985 . S
N717 C719 1.356 . S
N717 H722 0.984 . S
N717 H723 0.985 . S
C718 C712 1.379 . S
C718 C715 1.363 . S
C718 N716 1.356 . S
C719 C713 1.363 . S
C719 C714 1.379 . S
C719 N717 1.356 . S
N720 C712 1.356 . S
N720 H726 0.984 . S
N720 H727 0.984 . S
N721 C714 1.356 . S
N721 H724 0.984 . S
N721 H725 0.985 . S
H722 N717 0.984 . S
H723 N717 0.985 . S
H724 N721 0.984 . S
H725 N721 0.985 . S
H726 N720 0.984 . S
H727 N720 0.984 . S
H728 N716 0.984 . S
H729 N716 0.985 . S
C730 C731 1.363 . S
C730 C736 1.379 . S
C730 N738 1.356 . S
C731 C730 1.363 . S
C731 C737 1.363 . S
C732 C733 1.363 . S
C732 C737 1.379 . S
C732 N739 1.356 . S
C733 C732 1.363 . S
C733 C736 1.363 . S
N734 C736 1.356 . S
N734 H746 0.984 . S
N734 H747 0.985 . S
N735 C737 1.356 . S
N735 H740 0.984 . S
N735 H741 0.985 . S
C736 C730 1.379 . S
C736 C733 1.363 . S
C736 N734 1.356 . S
C737 C731 1.363 . S
C737 C732 1.379 . S
C737 N735 1.356 . S
N738 C730 1.356 . S
N738 H744 0.984 . S
N738 H745 0.984 . S
N739 C732 1.356 . S
N739 H742 0.984 . S
N739 H743 0.985 . S
H740 N735 0.984 . S
H741 N735 0.985 . S
H742 N739 0.984 . S
H743 N739 0.985 . S
H744 N738 0.984 . S
H745 N738 0.984 . S
H746 N734 0.984 . S
H747 N734 0.985 . S
C748 C749 1.402 . S
C748 C754 1.379 1_565 S
C748 N756 1.356 . S
C749 C748 1.402 . S
C749 C755 1.322 1_456 S
C750 C751 1.402 . S
C750 C755 1.379 1_545 S
C750 N757 1.356 . S
C751 C750 1.402 . S
C751 C754 1.322 1_654 S
N752 C754 1.356 . S
N752 H764 0.984 . S
N752 H765 0.985 1_455 S
N753 C755 1.356 . S
N753 H758 0.984 1_655 S
N753 H759 0.985 . S
C754 C748 1.379 1_545 S
C754 C751 1.322 1_456 S
C754 N752 1.356 . S
C755 C749 1.322 1_654 S
C755 C750 1.379 1_565 S
C755 N753 1.356 . S
N756 C748 1.356 . S
N756 H762 0.984 . S
N756 H763 0.984 . S
N757 C750 1.356 . S
N757 H760 0.984 . S
N757 H761 0.985 . S
H758 N753 0.984 1_455 S
H759 N753 0.985 . S
H760 N757 0.984 . S
H761 N757 0.985 . S
H762 N756 0.984 . S
H763 N756 0.984 . S
H764 N752 0.984 . S
H765 N752 0.985 1_655 S
C766 C767 1.363 . S
C766 C772 1.379 1_565 S
C766 N774 1.356 . S
C767 C766 1.363 . S
C767 C773 1.363 . S
C768 C769 1.363 . S
C768 C773 1.379 1_545 S
C768 N775 1.356 . S
C769 C768 1.363 . S
C769 C772 1.363 . S
N770 C772 1.356 . S
N770 H782 0.984 1_545 S
N770 H783 0.985 . S
N771 C773 1.356 . S
N771 H776 0.984 . S
N771 H777 0.985 1_565 S
C772 C766 1.379 1_545 S
C772 C769 1.363 . S
C772 N770 1.356 . S
C773 C767 1.363 . S
C773 C768 1.379 1_565 S
C773 N771 1.356 . S
N774 C766 1.356 . S
N774 H780 0.984 . S
N774 H781 0.984 . S
N775 C768 1.356 . S
N775 H778 0.984 . S
N775 H779 0.985 . S
H776 N771 0.984 . S
H777 N771 0.985 1_545 S
H778 N775 0.984 . S
H779 N775 0.985 . S
H780 N774 0.984 . S
H781 N774 0.984 . S
H782 N770 0.984 1_565 S
H783 N770 0.985 . S
C784 C785 1.363 1_565 S
C784 C790 1.379 . S
C784 N792 1.356 . S
C785 C784 1.363 1_545 S
C785 C791 1.363 . S
C786 C787 1.360 1_545 S
C786 C791 1.379 . S
C786 N793 1.356 . S
C787 C786 1.360 1_565 S
C787 C790 1.364 . S
N788 C790 1.356 . S
N788 H800 0.984 . S
N788 H801 0.985 . S
N789 C791 1.356 . S
N789 H794 0.984 . S
N789 H795 0.985 . S
C790 C784 1.379 . S
C790 C787 1.364 . S
C790 N788 1.356 . S
C791 C785 1.363 . S
C791 C786 1.379 . S
C791 N789 1.356 . S
N792 C784 1.356 . S
N792 H798 0.984 . S
N792 H799 0.984 1_565 S
N793 C786 1.356 . S
N793 H796 0.984 . S
N793 H797 0.985 . S
H794 N789 0.984 . S
H795 N789 0.985 . S
H796 N793 0.984 . S
H797 N793 0.985 . S
H798 N792 0.984 . S
H799 N792 0.984 1_545 S
H800 N788 0.984 . S
H801 N788 0.985 . S
C802 C803 1.363 . S
C802 C808 1.379 . S
C802 N810 1.356 . S
C803 C802 1.363 . S
C803 C809 1.363 . S
C804 C805 1.363 . S
C804 C809 1.379 . S
C804 N811 1.356 . S
C805 C804 1.363 . S
C805 C808 1.363 . S
N806 C808 1.356 . S
N806 H818 0.984 . S
N806 H819 0.985 . S
N807 C809 1.356 . S
N807 H812 0.984 . S
N807 H813 0.985 . S
C808 C802 1.379 . S
C808 C805 1.363 . S
C808 N806 1.356 . S
C809 C803 1.363 . S
C809 C804 1.379 . S
C809 N807 1.356 . S
N810 C802 1.356 . S
N810 H816 0.984 . S
N810 H817 0.984 . S
N811 C804 1.356 . S
N811 H814 0.984 . S
N811 H815 0.985 . S
H812 N807 0.984 . S
H813 N807 0.985 . S
H814 N811 0.984 . S
H815 N811 0.985 . S
H816 N810 0.984 . S
H817 N810 0.984 . S
H818 N806 0.984 . S
H819 N806 0.985 . S
C820 C821 1.364 . S
C820 C826 1.379 . S
C820 N828 1.356 . S
C821 C820 1.364 . S
C821 C827 1.361 1_545 S
C822 C823 1.363 . S
C822 C827 1.379 . S
C822 N829 1.356 . S
C823 C822 1.363 . S
C823 C826 1.363 1_565 S
N824 C826 1.356 . S
N824 H836 0.984 . S
N824 H837 0.980 1_545 S
N825 C827 1.356 . S
N825 H830 0.984 . S
N825 H831 0.985 . S
C826 C820 1.379 . S
C826 C823 1.363 1_545 S
C826 N824 1.356 . S
C827 C821 1.361 1_565 S
C827 C822 1.379 . S
C827 N825 1.356 . S
N828 C820 1.356 . S
N828 H834 0.984 . S
N828 H835 0.984 . S
N829 C822 1.356 . S
N829 H832 0.984 . S
N829 H833 0.985 . S
H830 N825 0.984 . S
H831 N825 0.985 . S
H832 N829 0.984 . S
H833 N829 0.985 . S
H834 N828 0.984 . S
H835 N828 0.984 . S
H836 N824 0.984 . S
H837 N824 0.980 1_565 S
C838 C839 1.363 . S
C838 C844 1.379 . S
C838 N846 1.356 . S
C839 C838 1.363 . S
C839 C845 1.363 . S
C840 C841 1.363 . S
C840 C845 1.379 . S
C840 N847 1.356 . S
C841 C840 1.363 . S
C841 C844 1.363 . S
N842 C844 1.356 . S
N842 H854 0.984 . S
N842 H855 0.985 . S
N843 C845 1.356 . S
N843 H848 0.984 . S
N843 H849 0.985 . S
C844 C838 1.379 . S
C844 C841 1.363 . S
C844 N842 1.356 . S
C845 C839 1.363 . S
C845 C840 1.379 . S
C845 N843 1.356 . S
N846 C838 1.356 . S
N846 H852 0.984 . S
N846 H853 0.984 . S
N847 C840 1.356 . S
N847 H850 0.984 . S
N847 H851 0.985 . S
H848 N843 0.984 . S
H849 N843 0.985 . S
H850 N847 0.984 . S
H851 N847 0.985 . S
H852 N846 0.984 . S
H853 N846 0.984 . S
H854 N842 0.984 . S
H855 N842 0.985 . S
C856 C857 1.363 1_545 S
C856 C862 1.379 . S
C856 N864 1.356 . S
C857 C856 1.363 1_565 S
C857 C863 1.363 . S
C858 C859 1.360 1_565 S
C858 C863 1.379 . S
C858 N865 1.356 . S
C859 C858 1.360 1_545 S
C859 C862 1.365 . S
N860 C862 1.356 . S
N860 H872 0.984 . S
N860 H873 0.985 . S
N861 C863 1.356 . S
N861 H866 0.984 . S
N861 H867 0.985 . S
C862 C856 1.379 . S
C862 C859 1.365 . S
C862 N860 1.356 . S
C863 C857 1.363 . S
C863 C858 1.379 . S
C863 N861 1.356 . S
N864 C856 1.356 . S
N864 H870 0.984 . S
N864 H871 0.984 1_545 S
N865 C858 1.356 . S
N865 H868 0.984 . S
N865 H869 0.985 . S
H866 N861 0.984 . S
H867 N861 0.985 . S
H868 N865 0.984 . S
H869 N865 0.985 . S
H870 N864 0.984 . S
H871 N864 0.984 1_565 S
H872 N860 0.984 . S
H873 N860 0.985 . S
C874 C875 1.363 . S
C874 C880 1.379 . S
C874 N882 1.356 . S
C875 C874 1.363 . S
C875 C881 1.363 . S
C876 C877 1.363 . S
C876 C881 1.379 . S
C876 N883 1.356 . S
C877 C876 1.363 . S
C877 C880 1.363 . S
N878 C880 1.356 . S
N878 H890 0.984 . S
N878 H891 0.985 . S
N879 C881 1.356 . S
N879 H884 0.984 . S
N879 H885 0.985 . S
C880 C874 1.379 . S
C880 C877 1.363 . S
C880 N878 1.356 . S
C881 C875 1.363 . S
C881 C876 1.379 . S
C881 N879 1.356 . S
N882 C874 1.356 . S
N882 H888 0.984 . S
N882 H889 0.984 . S
N883 C876 1.356 . S
N883 H886 0.984 . S
N883 H887 0.985 . S
H884 N879 0.984 . S
H885 N879 0.985 . S
H886 N883 0.984 . S
H887 N883 0.985 . S
H888 N882 0.984 . S
H889 N882 0.984 . S
H890 N878 0.984 . S
H891 N878 0.985 . S
C892 C893 1.364 . S
C892 C898 1.379 1_565 S
C892 N900 1.356 . S
C893 C892 1.364 . S
C893 C899 1.361 1_565 S
C894 C895 1.363 . S
C894 C899 1.379 . S
C894 N901 1.356 . S
C895 C894 1.363 . S
C895 C898 1.363 . S
N896 C898 1.356 . S
N896 H908 0.984 1_545 S
N896 H909 0.985 . S
N897 C899 1.356 . S
N897 H902 0.984 . S
N897 H903 0.985 . S
C898 C892 1.379 1_545 S
C898 C895 1.363 . S
C898 N896 1.356 . S
C899 C893 1.361 1_545 S
C899 C894 1.379 . S
C899 N897 1.356 . S
N900 C892 1.356 . S
N900 H906 0.984 . S
N900 H907 0.984 . S
N901 C894 1.356 . S
N901 H904 0.984 . S
N901 H905 0.985 . S
H902 N897 0.984 . S
H903 N897 0.985 . S
H904 N901 0.984 . S
H905 N901 0.985 . S
H906 N900 0.984 . S
H907 N900 0.984 . S
H908 N896 0.984 1_565 S
H909 N896 0.985 . S
C910 C911 1.363 . S
C910 C916 1.379 . S
C910 N918 1.356 . S
C911 C910 1.363 . S
C911 C917 1.363 . S
C912 C913 1.363 . S
C912 C917 1.379 . S
C912 N919 1.356 . S
C913 C912 1.363 . S
C913 C916 1.363 . S
N914 C916 1.356 . S
N914 H926 0.984 . S
N914 H927 0.985 . S
N915 C917 1.356 . S
N915 H920 0.984 . S
N915 H921 0.985 . S
C916 C910 1.379 . S
C916 C913 1.363 . S
C916 N914 1.356 . S
C917 C911 1.363 . S
C917 C912 1.379 . S
C917 N915 1.356 . S
N918 C910 1.356 . S
N918 H924 0.984 . S
N918 H925 0.984 . S
N919 C912 1.356 . S
N919 H922 0.984 . S
N919 H923 0.985 . S
H920 N915 0.984 . S
H921 N915 0.985 . S
H922 N919 0.984 . S
H923 N919 0.985 . S
H924 N918 0.984 . S
H925 N918 0.984 . S
H926 N914 0.984 . S
H927 N914 0.985 . S
C928 C929 1.363 . S
C928 C934 1.379 . S
C928 N936 1.356 . S
C929 C928 1.363 . S
C929 C935 1.363 . S
C930 C931 1.363 . S
C930 C935 1.379 . S
C930 N937 1.356 . S
C931 C930 1.363 . S
C931 C934 1.363 . S
N932 C934 1.356 . S
N932 H944 0.984 . S
N932 H945 0.985 . S
N933 C935 1.356 . S
N933 H938 0.984 . S
N933 H939 0.985 . S
C934 C928 1.379 . S
C934 C931 1.363 . S
C934 N932 1.356 . S
C935 C929 1.363 . S
C935 C930 1.379 . S
C935 N933 1.356 . S
N936 C928 1.356 . S
N936 H942 0.984 . S
N936 H943 0.984 . S
N937 C930 1.356 . S
N937 H940 0.984 . S
N937 H941 0.985 . S
H938 N933 0.984 . S
H939 N933 0.985 . S
H940 N937 0.984 . S
H941 N937 0.985 . S
H942 N936 0.984 . S
H943 N936 0.984 . S
H944 N932 0.984 . S
H945 N932 0.985 . S
C946 C947 1.363 . S
C946 C952 1.379 . S
C946 N954 1.356 1_565 S
C947 C946 1.363 . S
C947 C953 1.363 . S
C948 C949 1.363 . S
C948 C953 1.379 . S
C948 N955 1.356 . S
C949 C948 1.363 . S
C949 C952 1.363 . S
N950 C952 1.356 1_545 S
N950 H962 0.984 . S
N950 H963 0.985 . S
N951 C953 1.356 . S
N951 H956 0.984 . S
N951 H957 0.985 . S
C952 C946 1.379 . S
C952 C949 1.363 . S
C952 N950 1.356 1_565 S
C953 C947 1.363 . S
C953 C948 1.379 . S
C953 N951 1.356 . S
N954 C946 1.356 1_545 S
N954 H960 0.984 . S
N954 H961 0.984 . S
N955 C948 1.356 . S
N955 H958 0.984 . S
N955 H959 0.985 . S
H956 N951 0.984 . S
H957 N951 0.985 . S
H958 N955 0.984 . S
H959 N955 0.985 . S
H960 N954 0.984 . S
H961 N954 0.984 . S
H962 N950 0.984 . S
H963 N950 0.985 . S
C964 C965 1.363 . S
C964 C970 1.379 . S
C964 N972 1.356 . S
C965 C964 1.363 . S
C965 C971 1.363 . S
C966 C967 1.363 . S
C966 C971 1.379 . S
C966 N973 1.356 . S
C967 C966 1.363 . S
C967 C970 1.363 . S
N968 C970 1.356 . S
N968 H980 0.984 . S
N968 H981 0.985 . S
N969 C971 1.356 . S
N969 H974 0.984 . S
N969 H975 0.985 . S
C970 C964 1.379 . S
C970 C967 1.363 . S
C970 N968 1.356 . S
C971 C965 1.363 . S
C971 C966 1.379 . S
C971 N969 1.356 . S
N972 C964 1.356 . S
N972 H978 0.984 . S
N972 H979 0.984 . S
N973 C966 1.356 . S
N973 H976 0.984 . S
N973 H977 0.985 . S
H974 N969 0.984 . S
H975 N969 0.985 . S
H976 N973 0.984 . S
H977 N973 0.985 . S
H978 N972 0.984 . S
H979 N972 0.984 . S
H980 N968 0.984 . S
H981 N968 0.985 . S
C982 C983 1.363 . S
C982 C988 1.379 . S
C982 N990 1.356 . S
C983 C982 1.363 . S
C983 C989 1.363 . S
C984 C985 1.363 . S
C984 C989 1.379 . S
C984 N991 1.356 1_545 S
C985 C984 1.363 . S
C985 C988 1.363 . S
N986 C988 1.356 . S
N986 H998 0.984 . S
N986 H999 0.985 . S
N987 C989 1.356 1_565 S
N987 H992 0.984 . S
N987 H993 0.985 . S
C988 C982 1.379 . S
C988 C985 1.363 . S
C988 N986 1.356 . S
C989 C983 1.363 . S
C989 C984 1.379 . S
C989 N987 1.356 1_545 S
N990 C982 1.356 . S
N990 H996 0.984 . S
N990 H997 0.984 . S
N991 C984 1.356 1_565 S
N991 H994 0.984 . S
N991 H995 0.985 . S
H992 N987 0.984 . S
H993 N987 0.985 . S
H994 N991 0.984 . S
H995 N991 0.985 . S
H996 N990 0.984 . S
H997 N990 0.984 . S
H998 N986 0.984 . S
H999 N986 0.985 . S
C1000 C1001 1.363 . S
C1000 C1006 1.379 . S
C1000 N1008 1.356 . S
C1001 C1000 1.363 . S
C1001 C1007 1.363 . S
C1002 C1003 1.363 . S
C1002 C1007 1.379 . S
C1002 N1009 1.356 . S
C1003 C1002 1.363 . S
C1003 C1006 1.363 . S
N1004 C1006 1.356 . S
N1004 H1016 0.984 . S
N1004 H1017 0.985 . S
N1005 C1007 1.356 . S
N1005 H1010 0.984 . S
N1005 H1011 0.985 . S
C1006 C1000 1.379 . S
C1006 C1003 1.363 . S
C1006 N1004 1.356 . S
C1007 C1001 1.363 . S
C1007 C1002 1.379 . S
C1007 N1005 1.356 . S
N1008 C1000 1.356 . S
N1008 H1014 0.984 . S
N1008 H1015 0.984 . S
N1009 C1002 1.356 . S
N1009 H1012 0.984 . S
N1009 H1013 0.985 . S
H1010 N1005 0.984 . S
H1011 N1005 0.985 . S
H1012 N1009 0.984 . S
H1013 N1009 0.985 . S
H1014 N1008 0.984 . S
H1015 N1008 0.984 . S
H1016 N1004 0.984 . S
H1017 N1004 0.985 . S
C1018 C1019 1.363 . S
C1018 C1024 1.379 . S
C1018 N1026 1.356 1_545 S
C1019 C1018 1.363 . S
C1019 C1025 1.363 . S
C1020 C1021 1.363 . S
C1020 C1025 1.379 . S
C1020 N1027 1.356 . S
C1021 C1020 1.363 . S
C1021 C1024 1.363 . S
N1022 C1024 1.356 1_565 S
N1022 H1034 0.984 . S
N1022 H1035 0.985 . S
N1023 C1025 1.356 . S
N1023 H1028 0.984 . S
N1023 H1029 0.985 . S
C1024 C1018 1.379 . S
C1024 C1021 1.363 . S
C1024 N1022 1.356 1_545 S
C1025 C1019 1.363 . S
C1025 C1020 1.379 . S
C1025 N1023 1.356 . S
N1026 C1018 1.356 1_565 S
N1026 H1032 0.984 . S
N1026 H1033 0.984 . S
N1027 C1020 1.356 . S
N1027 H1030 0.984 . S
N1027 H1031 0.985 . S
H1028 N1023 0.984 . S
H1029 N1023 0.985 . S
H1030 N1027 0.984 . S
H1031 N1027 0.985 . S
H1032 N1026 0.984 . S
H1033 N1026 0.984 . S
H1034 N1022 0.984 . S
H1035 N1022 0.985 . S
C1036 C1037 1.363 . S
C1036 C1042 1.379 . S
C1036 N1044 1.356 . S
C1037 C1036 1.363 . S
C1037 C1043 1.363 . S
C1038 C1039 1.363 . S
C1038 C1043 1.379 . S
C1038 N1045 1.356 . S
C1039 C1038 1.363 . S
C1039 C1042 1.363 . S
N1040 C1042 1.356 . S
N1040 H1052 0.984 . S
N1040 H1053 0.985 . S
N1041 C1043 1.356 . S
N1041 H1046 0.984 . S
N1041 H1047 0.985 . S
C1042 C1036 1.379 . S
C1042 C1039 1.363 . S
C1042 N1040 1.356 . S
C1043 C1037 1.363 . S
C1043 C1038 1.379 . S
C1043 N1041 1.356 . S
N1044 C1036 1.356 . S
N1044 H1050 0.984 . S
N1044 H1051 0.984 . S
N1045 C1038 1.356 . S
N1045 H1048 0.984 . S
N1045 H1049 0.985 . S
H1046 N1041 0.984 . S
H1047 N1041 0.985 . S
H1048 N1045 0.984 . S
H1049 N1045 0.985 . S
H1050 N1044 0.984 . S
H1051 N1044 0.984 . S
H1052 N1040 0.984 . S
H1053 N1040 0.985 . S
C1054 C1055 1.363 . S
C1054 C1060 1.379 . S
C1054 N1062 1.356 . S
C1055 C1054 1.363 . S
C1055 C1061 1.363 . S
C1056 C1057 1.363 . S
C1056 C1061 1.379 . S
C1056 N1063 1.356 1_565 S
C1057 C1056 1.363 . S
C1057 C1060 1.363 . S
N1058 C1060 1.356 . S
N1058 H1070 0.984 . S
N1058 H1071 0.985 . S
N1059 C1061 1.356 1_545 S
N1059 H1064 0.984 . S
N1059 H1065 0.985 . S
C1060 C1054 1.379 . S
C1060 C1057 1.363 . S
C1060 N1058 1.356 . S
C1061 C1055 1.363 . S
C1061 C1056 1.379 . S
C1061 N1059 1.356 1_565 S
N1062 C1054 1.356 . S
N1062 H1068 0.984 . S
N1062 H1069 0.984 . S
N1063 C1056 1.356 1_545 S
N1063 H1066 0.984 . S
N1063 H1067 0.985 . S
H1064 N1059 0.984 . S
H1065 N1059 0.985 . S
H1066 N1063 0.984 . S
H1067 N1063 0.985 . S
H1068 N1062 0.984 . S
H1069 N1062 0.984 . S
H1070 N1058 0.984 . S
H1071 N1058 0.985 . S
C1072 C1073 1.363 . S
C1072 C1078 1.379 . S
C1072 N1080 1.356 . S
C1073 C1072 1.363 . S
C1073 C1079 1.363 . S
C1074 C1075 1.363 . S
C1074 C1079 1.379 . S
C1074 N1081 1.356 . S
C1075 C1074 1.363 . S
C1075 C1078 1.363 . S
N1076 C1078 1.356 . S
N1076 H1088 0.984 . S
N1076 H1089 0.985 . S
N1077 C1079 1.356 . S
N1077 H1082 0.984 . S
N1077 H1083 0.985 . S
C1078 C1072 1.379 . S
C1078 C1075 1.363 . S
C1078 N1076 1.356 . S
C1079 C1073 1.363 . S
C1079 C1074 1.379 . S
C1079 N1077 1.356 . S
N1080 C1072 1.356 . S
N1080 H1086 0.984 . S
N1080 H1087 0.984 . S
N1081 C1074 1.356 . S
N1081 H1084 0.984 . S
N1081 H1085 0.985 . S
H1082 N1077 0.984 . S
H1083 N1077 0.985 . S
H1084 N1081 0.984 . S
H1085 N1081 0.985 . S
H1086 N1080 0.984 . S
H1087 N1080 0.984 . S
H1088 N1076 0.984 . S
H1089 N1076 0.985 . S
C1090 C1091 1.363 . S
C1090 C1096 1.379 . S
C1090 N1098 1.356 . S
C1091 C1090 1.363 . S
C1091 C1097 1.363 . S
C1092 C1093 1.363 . S
C1092 C1097 1.379 . S
C1092 N1099 1.356 . S
C1093 C1092 1.363 . S
C1093 C1096 1.363 . S
N1094 C1096 1.356 . S
N1094 H1106 0.984 . S
N1094 H1107 0.985 . S
N1095 C1097 1.356 . S
N1095 H1100 0.984 . S
N1095 H1101 0.985 . S
C1096 C1090 1.379 . S
C1096 C1093 1.363 . S
C1096 N1094 1.356 . S
C1097 C1091 1.363 . S
C1097 C1092 1.379 . S
C1097 N1095 1.356 . S
N1098 C1090 1.356 . S
N1098 H1104 0.984 . S
N1098 H1105 0.984 . S
N1099 C1092 1.356 . S
N1099 H1102 0.984 . S
N1099 H1103 0.985 . S
H1100 N1095 0.984 . S
H1101 N1095 0.985 . S
H1102 N1099 0.984 . S
H1103 N1099 0.985 . S
H1104 N1098 0.984 . S
H1105 N1098 0.984 . S
H1106 N1094 0.984 . S
H1107 N1094 0.985 . S
C1108 C1109 1.363 . S
C1108 C1114 1.379 1_655 S
C1108 N1116 1.356 . S
C1109 C1108 1.363 . S
C1109 C1115 1.363 . S
C1110 C1111 1.363 . S
C1110 C1115 1.379 1_455 S
C1110 N1117 1.356 . S
C1111 C1110 1.363 . S
C1111 C1114 1.363 . S
N1112 C1114 1.356 . S
N1112 H1124 0.984 . S
N1112 H1125 0.985 . S
N1113 C1115 1.356 . S
N1113 H1118 0.984 . S
N1113 H1119 0.985 . S
C1114 C1108 1.379 1_455 S
C1114 C1111 1.363 . S
C1114 N1112 1.356 . S
C1115 C1109 1.363 . S
C1115 C1110 1.379 1_655 S
C1115 N1113 1.356 . S
N1116 C1108 1.356 . S
N1116 H1122 0.984 . S
N1116 H1123 0.984 . S
N1117 C1110 1.356 . S
N1117 H1120 0.984 . S
N1117 H1121 0.985 . S
H1118 N1113 0.984 . S
H1119 N1113 0.985 . S
H1120 N1117 0.984 . S
H1121 N1117 0.985 . S
H1122 N1116 0.984 . S
H1123 N1116 0.984 . S
H1124 N1112 0.984 . S
H1125 N1112 0.985 . S
C1126 C1127 1.363 1_455 S
C1126 C1132 1.379 . S
C1126 N1134 1.356 . S
C1127 C1126 1.363 1_655 S
C1127 C1133 1.363 . S
C1128 C1129 1.363 1_655 S
C1128 C1133 1.379 . S
C1128 N1135 1.356 . S
C1129 C1128 1.363 1_455 S
C1129 C1132 1.363 . S
N1130 C1132 1.356 . S
N1130 H1142 0.984 . S
N1130 H1143 0.985 . S
N1131 C1133 1.356 . S
N1131 H1136 0.984 . S
N1131 H1137 0.985 . S
C1132 C1126 1.379 . S
C1132 C1129 1.363 . S
C1132 N1130 1.356 . S
C1133 C1127 1.363 . S
C1133 C1128 1.379 . S
C1133 N1131 1.356 . S
N1134 C1126 1.356 . S
N1134 H1140 0.984 . S
N1134 H1141 0.984 1_455 S
N1135 C1128 1.356 . S
N1135 H1138 0.984 1_655 S
N1135 H1139 0.985 . S
H1136 N1131 0.984 . S
H1137 N1131 0.985 . S
H1138 N1135 0.984 1_455 S
H1139 N1135 0.985 . S
H1140 N1134 0.984 . S
H1141 N1134 0.984 1_655 S
H1142 N1130 0.984 . S
H1143 N1130 0.985 . S
C1144 C1145 1.363 . S
C1144 C1150 1.379 . S
C1144 N1152 1.356 . S
C1145 C1144 1.363 . S
C1145 C1151 1.363 . S
C1146 C1147 1.363 . S
C1146 C1151 1.379 . S
C1146 N1153 1.356 . S
C1147 C1146 1.363 . S
C1147 C1150 1.363 . S
N1148 C1150 1.356 . S
N1148 H1160 0.984 . S
N1148 H1161 0.985 . S
N1149 C1151 1.356 . S
N1149 H1154 0.984 . S
N1149 H1155 0.985 . S
C1150 C1144 1.379 . S
C1150 C1147 1.363 . S
C1150 N1148 1.356 . S
C1151 C1145 1.363 . S
C1151 C1146 1.379 . S
C1151 N1149 1.356 . S
N1152 C1144 1.356 . S
N1152 H1158 0.984 . S
N1152 H1159 0.984 . S
N1153 C1146 1.356 . S
N1153 H1156 0.984 . S
N1153 H1157 0.985 . S
H1154 N1149 0.984 . S
H1155 N1149 0.985 . S
H1156 N1153 0.984 . S
H1157 N1153 0.985 . S
H1158 N1152 0.984 . S
H1159 N1152 0.984 . S
H1160 N1148 0.984 . S
H1161 N1148 0.985 . S
C1162 C1163 1.363 . S
C1162 C1168 1.379 . S
C1162 N1170 1.356 . S
C1163 C1162 1.363 . S
C1163 C1169 1.363 . S
C1164 C1165 1.363 . S
C1164 C1169 1.379 . S
C1164 N1171 1.356 . S
C1165 C1164 1.363 . S
C1165 C1168 1.363 . S
N1166 C1168 1.356 . S
N1166 H1178 0.984 . S
N1166 H1179 0.985 . S
N1167 C1169 1.356 . S
N1167 H1172 0.984 . S
N1167 H1173 0.985 . S
C1168 C1162 1.379 . S
C1168 C1165 1.363 . S
C1168 N1166 1.356 . S
C1169 C1163 1.363 . S
C1169 C1164 1.379 . S
C1169 N1167 1.356 . S
N1170 C1162 1.356 . S
N1170 H1176 0.984 . S
N1170 H1177 0.984 . S
N1171 C1164 1.356 . S
N1171 H1174 0.984 . S
N1171 H1175 0.985 . S
H1172 N1167 0.984 . S
H1173 N1167 0.985 . S
H1174 N1171 0.984 . S
H1175 N1171 0.985 . S
H1176 N1170 0.984 . S
H1177 N1170 0.984 . S
H1178 N1166 0.984 . S
H1179 N1166 0.985 . S
C1180 C1181 1.363 . S
C1180 C1186 1.379 1_455 S
C1180 N1188 1.356 . S
C1181 C1180 1.363 . S
C1181 C1187 1.363 . S
C1182 C1183 1.363 . S
C1182 C1187 1.379 1_655 S
C1182 N1189 1.356 . S
C1183 C1182 1.363 . S
C1183 C1186 1.363 . S
N1184 C1186 1.356 . S
N1184 H1196 0.984 . S
N1184 H1197 0.985 . S
N1185 C1187 1.356 . S
N1185 H1190 0.984 . S
N1185 H1191 0.985 . S
C1186 C1180 1.379 1_655 S
C1186 C1183 1.363 . S
C1186 N1184 1.356 . S
C1187 C1181 1.363 . S
C1187 C1182 1.379 1_455 S
C1187 N1185 1.356 . S
N1188 C1180 1.356 . S
N1188 H1194 0.984 . S
N1188 H1195 0.984 . S
N1189 C1182 1.356 . S
N1189 H1192 0.984 . S
N1189 H1193 0.985 . S
H1190 N1185 0.984 . S
H1191 N1185 0.985 . S
H1192 N1189 0.984 . S
H1193 N1189 0.985 . S
H1194 N1188 0.984 . S
H1195 N1188 0.984 . S
H1196 N1184 0.984 . S
H1197 N1184 0.985 . S
C1198 C1199 1.363 1_655 S
C1198 C1204 1.379 . S
C1198 N1206 1.356 . S
C1199 C1198 1.363 1_455 S
C1199 C1205 1.363 . S
C1200 C1201 1.363 1_455 S
C1200 C1205 1.379 . S
C1200 N1207 1.356 . S
C1201 C1200 1.363 1_655 S
C1201 C1204 1.363 . S
N1202 C1204 1.356 . S
N1202 H1214 0.984 . S
N1202 H1215 0.985 . S
N1203 C1205 1.356 . S
N1203 H1208 0.984 . S
N1203 H1209 0.985 . S
C1204 C1198 1.379 . S
C1204 C1201 1.363 . S
C1204 N1202 1.356 . S
C1205 C1199 1.363 . S
C1205 C1200 1.379 . S
C1205 N1203 1.356 . S
N1206 C1198 1.356 . S
N1206 H1212 0.984 . S
N1206 H1213 0.984 1_655 S
N1207 C1200 1.356 . S
N1207 H1210 0.984 1_455 S
N1207 H1211 0.985 . S
H1208 N1203 0.984 . S
H1209 N1203 0.985 . S
H1210 N1207 0.984 1_655 S
H1211 N1207 0.985 . S
H1212 N1206 0.984 . S
H1213 N1206 0.984 1_455 S
H1214 N1202 0.984 . S
H1215 N1202 0.985 . S
C1216 C1217 1.363 . S
C1216 C1222 1.379 . S
C1216 N1224 1.356 . S
C1217 C1216 1.363 . S
C1217 C1223 1.363 . S
C1218 C1219 1.363 . S
C1218 C1223 1.379 . S
C1218 N1225 1.356 . S
C1219 C1218 1.363 . S
C1219 C1222 1.363 . S
N1220 C1222 1.356 . S
N1220 H1232 0.984 . S
N1220 H1233 0.985 . S
N1221 C1223 1.356 . S
N1221 H1226 0.984 . S
N1221 H1227 0.985 . S
C1222 C1216 1.379 . S
C1222 C1219 1.363 . S
C1222 N1220 1.356 . S
C1223 C1217 1.363 . S
C1223 C1218 1.379 . S
C1223 N1221 1.356 . S
N1224 C1216 1.356 . S
N1224 H1230 0.984 . S
N1224 H1231 0.984 . S
N1225 C1218 1.356 . S
N1225 H1228 0.984 . S
N1225 H1229 0.985 . S
H1226 N1221 0.984 . S
H1227 N1221 0.985 . S
H1228 N1225 0.984 . S
H1229 N1225 0.985 . S
H1230 N1224 0.984 . S
H1231 N1224 0.984 . S
H1232 N1220 0.984 . S
H1233 N1220 0.985 . S
C1234 C1235 1.363 . S
C1234 C1240 1.379 . S
C1234 N1242 1.356 . S
C1235 C1234 1.363 . S
C1235 C1241 1.363 . S
C1236 C1237 1.363 . S
C1236 C1241 1.379 . S
C1236 N1243 1.356 . S
C1237 C1236 1.363 . S
C1237 C1240 1.363 . S
N1238 C1240 1.356 . S
N1238 H1250 0.984 . S
N1238 H1251 0.985 . S
N1239 C1241 1.356 . S
N1239 H1244 0.984 . S
N1239 H1245 0.985 . S
C1240 C1234 1.379 . S
C1240 C1237 1.363 . S
C1240 N1238 1.356 . S
C1241 C1235 1.363 . S
C1241 C1236 1.379 . S
C1241 N1239 1.356 . S
N1242 C1234 1.356 . S
N1242 H1248 0.984 . S
N1242 H1249 0.984 . S
N1243 C1236 1.356 . S
N1243 H1246 0.984 . S
N1243 H1247 0.985 . S
H1244 N1239 0.984 . S
H1245 N1239 0.985 . S
H1246 N1243 0.984 . S
H1247 N1243 0.985 . S
H1248 N1242 0.984 . S
H1249 N1242 0.984 . S
H1250 N1238 0.984 . S
H1251 N1238 0.985 . S
C1252 C1253 1.363 . S
C1252 C1258 1.379 . S
C1252 N1260 1.356 . S
C1253 C1252 1.363 . S
C1253 C1259 1.363 . S
C1254 C1255 1.363 . S
C1254 C1259 1.379 . S
C1254 N1261 1.356 . S
C1255 C1254 1.363 . S
C1255 C1258 1.363 . S
N1256 C1258 1.356 . S
N1256 H1268 0.984 . S
N1256 H1269 0.985 . S
N1257 C1259 1.356 . S
N1257 H1262 0.984 . S
N1257 H1263 0.985 . S
C1258 C1252 1.379 . S
C1258 C1255 1.363 . S
C1258 N1256 1.356 . S
C1259 C1253 1.363 . S
C1259 C1254 1.379 . S
C1259 N1257 1.356 . S
N1260 C1252 1.356 . S
N1260 H1266 0.984 . S
N1260 H1267 0.984 . S
N1261 C1254 1.356 . S
N1261 H1264 0.984 . S
N1261 H1265 0.985 . S
H1262 N1257 0.984 . S
H1263 N1257 0.985 . S
H1264 N1261 0.984 . S
H1265 N1261 0.985 . S
H1266 N1260 0.984 . S
H1267 N1260 0.984 . S
H1268 N1256 0.984 . S
H1269 N1256 0.985 . S
C1270 C1271 1.363 . S
C1270 C1276 1.379 . S
C1270 N1278 1.356 1_455 S
C1271 C1270 1.363 . S
C1271 C1277 1.363 . S
C1272 C1273 1.363 . S
C1272 C1277 1.379 . S
C1272 N1279 1.356 . S
C1273 C1272 1.363 . S
C1273 C1276 1.363 . S
N1274 C1276 1.356 . S
N1274 H1286 0.984 . S
N1274 H1287 0.985 . S
N1275 C1277 1.356 . S
N1275 H1280 0.984 . S
N1275 H1281 0.985 . S
C1276 C1270 1.379 . S
C1276 C1273 1.363 . S
C1276 N1274 1.356 . S
C1277 C1271 1.363 . S
C1277 C1272 1.379 . S
C1277 N1275 1.356 . S
N1278 C1270 1.356 1_655 S
N1278 H1284 0.984 . S
N1278 H1285 0.984 . S
N1279 C1272 1.356 . S
N1279 H1282 0.984 . S
N1279 H1283 0.985 . S
H1280 N1275 0.984 . S
H1281 N1275 0.985 . S
H1282 N1279 0.984 . S
H1283 N1279 0.985 . S
H1284 N1278 0.984 . S
H1285 N1278 0.984 . S
H1286 N1274 0.984 . S
H1287 N1274 0.985 . S
C1288 C1289 1.363 . S
C1288 C1294 1.379 . S
C1288 N1296 1.356 . S
C1289 C1288 1.363 . S
C1289 C1295 1.363 . S
C1290 C1291 1.363 . S
C1290 C1295 1.379 . S
C1290 N1297 1.356 . S
C1291 C1290 1.363 . S
C1291 C1294 1.363 . S
N1292 C1294 1.356 . S
N1292 H1304 0.984 . S
N1292 H1305 0.985 . S
N1293 C1295 1.356 . S
N1293 H1298 0.984 . S
N1293 H1299 0.985 . S
C1294 C1288 1.379 . S
C1294 C1291 1.363 . S
C1294 N1292 1.356 . S
C1295 C1289 1.363 . S
C1295 C1290 1.379 . S
C1295 N1293 1.356 . S
N1296 C1288 1.356 . S
N1296 H1302 0.984 . S
N1296 H1303 0.984 . S
N1297 C1290 1.356 . S
N1297 H1300 0.984 . S
N1297 H1301 0.985 . S
H1298 N1293 0.984 . S
H1299 N1293 0.985 . S
H1300 N1297 0.984 . S
H1301 N1297 0.985 . S
H1302 N1296 0.984 . S
H1303 N1296 0.984 . S
H1304 N1292 0.984 . S
H1305 N1292 0.985 . S
C1306 C1307 1.363 . S
C1306 C1312 1.379 . S
C1306 N1314 1.356 . S
C1307 C1306 1.363 . S
C1307 C1313 1.363 . S
C1308 C1309 1.363 . S
C1308 C1313 1.379 . S
C1308 N1315 1.356 . S
C1309 C1308 1.363 . S
C1309 C1312 1.363 . S
N1310 C1312 1.356 . S
N1310 H1322 0.984 . S
N1310 H1323 0.985 . S
N1311 C1313 1.356 . S
N1311 H1316 0.984 . S
N1311 H1317 0.985 . S
C1312 C1306 1.379 . S
C1312 C1309 1.363 . S
C1312 N1310 1.356 . S
C1313 C1307 1.363 . S
C1313 C1308 1.379 . S
C1313 N1311 1.356 . S
N1314 C1306 1.356 . S
N1314 H1320 0.984 . S
N1314 H1321 0.984 . S
N1315 C1308 1.356 . S
N1315 H1318 0.984 . S
N1315 H1319 0.985 . S
H1316 N1311 0.984 . S
H1317 N1311 0.985 . S
H1318 N1315 0.984 . S
H1319 N1315 0.985 . S
H1320 N1314 0.984 . S
H1321 N1314 0.984 . S
H1322 N1310 0.984 . S
H1323 N1310 0.985 . S
C1324 C1325 1.363 . S
C1324 C1330 1.379 . S
C1324 N1332 1.356 . S
C1325 C1324 1.363 . S
C1325 C1331 1.363 . S
C1326 C1327 1.363 . S
C1326 C1331 1.379 . S
C1326 N1333 1.356 . S
C1327 C1326 1.363 . S
C1327 C1330 1.363 . S
N1328 C1330 1.356 . S
N1328 H1340 0.984 . S
N1328 H1341 0.985 . S
N1329 C1331 1.356 . S
N1329 H1334 0.984 . S
N1329 H1335 0.985 . S
C1330 C1324 1.379 . S
C1330 C1327 1.363 . S
C1330 N1328 1.356 . S
C1331 C1325 1.363 . S
C1331 C1326 1.379 . S
C1331 N1329 1.356 . S
N1332 C1324 1.356 . S
N1332 H1338 0.984 . S
N1332 H1339 0.984 . S
N1333 C1326 1.356 . S
N1333 H1336 0.984 . S
N1333 H1337 0.985 . S
H1334 N1329 0.984 . S
H1335 N1329 0.985 . S
H1336 N1333 0.984 . S
H1337 N1333 0.985 . S
H1338 N1332 0.984 . S
H1339 N1332 0.984 . S
H1340 N1328 0.984 . S
H1341 N1328 0.985 . S
C1342 C1343 1.363 . S
C1342 C1348 1.379 . S
C1342 N1350 1.356 . S
C1343 C1342 1.363 . S
C1343 C1349 1.363 . S
C1344 C1345 1.363 . S
C1344 C1349 1.379 . S
C1344 N1351 1.356 . S
C1345 C1344 1.363 . S
C1345 C1348 1.363 . S
N1346 C1348 1.356 . S
N1346 H1358 0.984 . S
N1346 H1359 0.985 . S
N1347 C1349 1.356 . S
N1347 H1352 0.984 . S
N1347 H1353 0.985 . S
C1348 C1342 1.379 . S
C1348 C1345 1.363 . S
C1348 N1346 1.356 . S
C1349 C1343 1.363 . S
C1349 C1344 1.379 . S
C1349 N1347 1.356 . S
N1350 C1342 1.356 . S
N1350 H1356 0.984 . S
N1350 H1357 0.984 . S
N1351 C1344 1.356 . S
N1351 H1354 0.984 1_655 S
N1351 H1355 0.985 . S
H1352 N1347 0.984 . S
H1353 N1347 0.985 . S
H1354 N1351 0.984 1_455 S
H1355 N1351 0.985 . S
H1356 N1350 0.984 . S
H1357 N1350 0.984 . S
H1358 N1346 0.984 . S
H1359 N1346 0.985 . S
C1360 C1361 1.363 . S
C1360 C1366 1.379 . S
C1360 N1368 1.356 . S
C1361 C1360 1.363 . S
C1361 C1367 1.363 . S
C1362 C1363 1.363 . S
C1362 C1367 1.379 . S
C1362 N1369 1.356 . S
C1363 C1362 1.363 . S
C1363 C1366 1.363 . S
N1364 C1366 1.356 . S
N1364 H1376 0.984 . S
N1364 H1377 0.985 . S
N1365 C1367 1.356 . S
N1365 H1370 0.984 . S
N1365 H1371 0.985 . S
C1366 C1360 1.379 . S
C1366 C1363 1.363 . S
C1366 N1364 1.356 . S
C1367 C1361 1.363 . S
C1367 C1362 1.379 . S
C1367 N1365 1.356 . S
N1368 C1360 1.356 . S
N1368 H1374 0.984 . S
N1368 H1375 0.984 . S
N1369 C1362 1.356 . S
N1369 H1372 0.984 . S
N1369 H1373 0.985 . S
H1370 N1365 0.984 . S
H1371 N1365 0.985 . S
H1372 N1369 0.984 . S
H1373 N1369 0.985 . S
H1374 N1368 0.984 . S
H1375 N1368 0.984 . S
H1376 N1364 0.984 . S
H1377 N1364 0.985 . S
C1378 C1379 1.363 . S
C1378 C1384 1.379 . S
C1378 N1386 1.356 1_565 S
C1379 C1378 1.363 . S
C1379 C1385 1.363 . S
C1380 C1381 1.363 . S
C1380 C1385 1.379 . S
C1380 N1387 1.357 . S
C1381 C1380 1.363 . S
C1381 C1384 1.363 . S
N1382 C1384 1.356 1_545 S
N1382 H1394 0.984 . S
N1382 H1395 0.985 . S
N1383 C1385 1.356 . S
N1383 H1388 0.984 . S
N1383 H1389 0.985 . S
C1384 C1378 1.379 . S
C1384 C1381 1.363 . S
C1384 N1382 1.356 1_565 S
C1385 C1379 1.363 . S
C1385 C1380 1.379 . S
C1385 N1383 1.356 . S
N1386 C1378 1.356 1_545 S
N1386 H1392 0.984 . S
N1386 H1393 0.984 1_545 S
N1387 C1380 1.357 . S
N1387 H1390 0.983 1_655 S
N1387 H1391 0.984 1_655 S
H1388 N1383 0.984 . S
H1389 N1383 0.985 . S
H1390 N1387 0.983 1_455 S
H1391 N1387 0.984 1_455 S
H1392 N1386 0.984 . S
H1393 N1386 0.984 1_565 S
H1394 N1382 0.984 . S
H1395 N1382 0.985 . S
C1396 C1397 1.363 . S
C1396 C1402 1.379 . S
C1396 N1404 1.356 . S
C1397 C1396 1.363 . S
C1397 C1403 1.363 . S
C1398 C1399 1.363 . S
C1398 C1403 1.379 . S
C1398 N1405 1.356 . S
C1399 C1398 1.363 . S
C1399 C1402 1.363 . S
N1400 C1402 1.356 . S
N1400 H1412 0.984 . S
N1400 H1413 0.985 . S
N1401 C1403 1.356 . S
N1401 H1406 0.984 . S
N1401 H1407 0.985 . S
C1402 C1396 1.379 . S
C1402 C1399 1.363 . S
C1402 N1400 1.356 . S
C1403 C1397 1.363 . S
C1403 C1398 1.379 . S
C1403 N1401 1.356 . S
N1404 C1396 1.356 . S
N1404 H1410 0.984 . S
N1404 H1411 0.984 . S
N1405 C1398 1.356 . S
N1405 H1408 0.984 . S
N1405 H1409 0.985 . S
H1406 N1401 0.984 . S
H1407 N1401 0.985 . S
H1408 N1405 0.984 . S
H1409 N1405 0.985 . S
H1410 N1404 0.984 . S
H1411 N1404 0.984 . S
H1412 N1400 0.984 . S
H1413 N1400 0.985 . S
C1414 C1415 1.363 . S
C1414 C1420 1.379 . S
C1414 N1422 1.356 1_545 S
C1415 C1414 1.363 . S
C1415 C1421 1.363 . S
C1416 C1417 1.363 . S
C1416 C1421 1.379 . S
C1416 N1423 1.356 . S
C1417 C1416 1.363 . S
C1417 C1420 1.363 . S
N1418 C1420 1.356 1_565 S
N1418 H1430 0.984 . S
N1418 H1431 0.985 1_565 S
N1419 C1421 1.356 . S
N1419 H1424 0.984 . S
N1419 H1425 0.985 . S
C1420 C1414 1.379 . S
C1420 C1417 1.363 . S
C1420 N1418 1.356 1_545 S
C1421 C1415 1.363 . S
C1421 C1416 1.379 . S
C1421 N1419 1.356 . S
N1422 C1414 1.356 1_565 S
N1422 H1428 0.984 . S
N1422 H1429 0.984 . S
N1423 C1416 1.356 . S
N1423 H1426 0.984 . S
N1423 H1427 0.985 . S
H1424 N1419 0.984 . S
H1425 N1419 0.985 . S
H1426 N1423 0.984 . S
H1427 N1423 0.985 . S
H1428 N1422 0.984 . S
H1429 N1422 0.984 . S
H1430 N1418 0.984 . S
H1431 N1418 0.985 1_545 S
C1432 C1433 1.363 . S
C1432 C1438 1.379 . S
C1432 N1440 1.356 . S
C1433 C1432 1.363 . S
C1433 C1439 1.363 . S
C1434 C1435 1.363 . S
C1434 C1439 1.379 . S
C1434 N1441 1.356 . S
C1435 C1434 1.363 . S
C1435 C1438 1.363 . S
N1436 C1438 1.356 . S
N1436 H1448 0.984 . S
N1436 H1449 0.985 . S
N1437 C1439 1.356 . S
N1437 H1442 0.984 . S
N1437 H1443 0.985 . S
C1438 C1432 1.379 . S
C1438 C1435 1.363 . S
C1438 N1436 1.356 . S
C1439 C1433 1.363 . S
C1439 C1434 1.379 . S
C1439 N1437 1.356 . S
N1440 C1432 1.356 . S
N1440 H1446 0.984 . S
N1440 H1447 0.984 . S
N1441 C1434 1.356 . S
N1441 H1444 0.984 . S
N1441 H1445 0.985 . S
H1442 N1437 0.984 . S
H1443 N1437 0.985 . S
H1444 N1441 0.984 . S
H1445 N1441 0.985 . S
H1446 N1440 0.984 . S
H1447 N1440 0.984 . S
H1448 N1436 0.984 . S
H1449 N1436 0.985 . S
C1450 C1451 1.363 . S
C1450 C1456 1.379 . S
C1450 N1458 1.356 1_545 S
C1451 C1450 1.363 . S
C1451 C1457 1.363 . S
C1452 C1453 1.363 . S
C1452 C1457 1.379 . S
C1452 N1459 1.356 . S
C1453 C1452 1.363 . S
C1453 C1456 1.363 . S
N1454 C1456 1.356 . S
N1454 H1466 0.984 . S
N1454 H1467 0.985 . S
N1455 C1457 1.356 1_655 S
N1455 H1460 0.984 . S
N1455 H1461 0.985 . S
C1456 C1450 1.379 . S
C1456 C1453 1.363 . S
C1456 N1454 1.356 . S
C1457 C1451 1.363 . S
C1457 C1452 1.379 . S
C1457 N1455 1.356 1_455 S
N1458 C1450 1.356 1_565 S
N1458 H1464 0.984 . S
N1458 H1465 0.984 . S
N1459 C1452 1.356 . S
N1459 H1462 0.984 . S
N1459 H1463 0.985 . S
H1460 N1455 0.984 . S
H1461 N1455 0.985 . S
H1462 N1459 0.984 . S
H1463 N1459 0.985 . S
H1464 N1458 0.984 . S
H1465 N1458 0.984 . S
H1466 N1454 0.984 . S
H1467 N1454 0.985 . S
C1468 C1469 1.363 . S
C1468 C1474 1.379 . S
C1468 N1476 1.356 . S
C1469 C1468 1.363 . S
C1469 C1475 1.363 . S
C1470 C1471 1.363 . S
C1470 C1475 1.379 . S
C1470 N1477 1.356 . S
C1471 C1470 1.363 . S
C1471 C1474 1.363 . S
N1472 C1474 1.356 . S
N1472 H1484 0.984 . S
N1472 H1485 0.985 . S
N1473 C1475 1.356 . S
N1473 H1478 0.984 . S
N1473 H1479 0.985 . S
C1474 C1468 1.379 . S
C1474 C1471 1.363 . S
C1474 N1472 1.356 . S
C1475 C1469 1.363 . S
C1475 C1470 1.379 . S
C1475 N1473 1.356 . S
N1476 C1468 1.356 . S
N1476 H1482 0.984 . S
N1476 H1483 0.984 . S
N1477 C1470 1.356 . S
N1477 H1480 0.984 . S
N1477 H1481 0.985 . S
H1478 N1473 0.984 . S
H1479 N1473 0.985 . S
H1480 N1477 0.984 . S
H1481 N1477 0.985 . S
H1482 N1476 0.984 . S
H1483 N1476 0.984 . S
H1484 N1472 0.984 . S
H1485 N1472 0.985 . S
C1486 C1487 1.363 . S
C1486 C1492 1.379 . S
C1486 N1494 1.356 . S
C1487 C1486 1.363 . S
C1487 C1493 1.363 . S
C1488 C1489 1.363 . S
C1488 C1493 1.379 . S
C1488 N1495 1.356 . S
C1489 C1488 1.363 . S
C1489 C1492 1.363 . S
N1490 C1492 1.356 . S
N1490 H1502 0.984 . S
N1490 H1503 0.985 . S
N1491 C1493 1.356 . S
N1491 H1496 0.984 . S
N1491 H1497 0.985 . S
C1492 C1486 1.379 . S
C1492 C1489 1.363 . S
C1492 N1490 1.356 . S
C1493 C1487 1.363 . S
C1493 C1488 1.379 . S
C1493 N1491 1.356 . S
N1494 C1486 1.356 . S
N1494 H1500 0.984 . S
N1494 H1501 0.984 . S
N1495 C1488 1.356 . S
N1495 H1498 0.984 . S
N1495 H1499 0.985 . S
H1496 N1491 0.984 . S
H1497 N1491 0.985 . S
H1498 N1495 0.984 . S
H1499 N1495 0.985 . S
H1500 N1494 0.984 . S
H1501 N1494 0.984 . S
H1502 N1490 0.984 . S
H1503 N1490 0.985 . S
C641 C6 1.366 . S
C643 C495 1.366 . S
C659 C215 1.366 . S
C661 C46 1.366 . S
C677 C86 1.366 . S
C679 C575 1.366 . S
C695 C126 1.343 1_554 S
C697 C295 1.343 1_556 S
C713 C175 1.366 . S
C715 C326 1.366 . S
C731 C406 1.366 . S
C733 C255 1.366 . S
C749 C535 1.344 1_556 S
C751 C366 1.344 1_554 S
C767 C446 1.366 . S
C769 C615 1.366 . S
C785 C378 2.560 . S
C787 C15 2.473 1_556 S
C803 C55 2.473 . S
C805 C418 2.560 . S
C821 C95 2.473 . S
C823 C458 2.560 . S
C839 C338 2.560 . S
C841 C135 2.473 . S
C857 C529 2.560 . S
C859 C166 2.473 1_554 S
C875 C569 2.560 . S
C877 C206 2.473 . S
C893 C246 2.473 . S
C895 C609 2.560 . S
C911 C489 2.560 . S
C913 C286 2.473 . S
C929 C335 2.473 . S
C931 C58 2.560 . S
C947 C375 2.472 . S
C949 C98 2.560 . S
C965 C415 2.472 1_556 S
C967 C138 2.560 . S
C983 C18 2.560 . S
C985 C455 2.472 . S
C1001 C209 2.560 . S
C1003 C486 2.473 . S
C1019 C526 2.472 . S
C1021 C249 2.560 . S
C1037 C289 2.560 . S
C1039 C566 2.472 1_554 S
C1055 C606 2.472 . S
C1057 C169 2.560 . S
C1073 C10 3.056 . S
C1075 C410 3.056 . S
C1091 C50 3.055 . S
C1093 C450 3.055 . S
C1109 C330 3.055 . S
C1111 C90 3.055 . S
C1127 C130 3.056 . S
C1129 C370 3.056 . S
C1145 C179 3.056 . S
C1147 C579 3.056 . S
C1163 C219 3.055 . S
C1165 C619 3.055 . S
C1181 C499 3.055 . S
C1183 C259 3.055 . S
C1199 C299 3.056 . S
C1201 C539 3.056 . S
C1217 C9 1.955 . S
C1219 C290 2.256 . S
C1235 C490 2.256 . S
C1237 C49 1.955 . S
C1253 C89 1.955 . S
C1255 C210 2.256 . S
C1271 C129 1.955 1_455 S
C1273 C570 2.256 . S
C1289 C178 1.955 . S
C1291 C139 2.256 . S
C1307 C339 2.256 . S
C1309 C218 1.955 . S
C1325 C258 1.955 . S
C1327 C59 2.256 . S
C1343 C419 2.256 . S
C1345 C298 1.955 1_655 S
C1361 C329 1.955 . S
C1363 C610 2.256 . S
C1379 C170 2.256 . S
C1381 C369 1.955 1_655 S
C1397 C530 2.256 . S
C1399 C409 1.955 . S
C1415 C449 1.955 . S
C1417 C250 2.256 . S
C1433 C498 1.955 . S
C1435 C459 2.256 . S
C1451 C538 1.955 1_455 S
C1453 C19 2.256 . S
C1469 C379 2.256 . S
C1471 C578 1.955 . S
C1487 C99 2.256 . S
C1489 C618 1.955 . S
