# Generated by pormake.
# Topology uod, (4)-cn, num edge types: 1
# Building blocks:
#     Node 0, Type 0, BuildingBlock: QUQFOY_clean_sbu_1, # of connection points: 4
#     Node 1, Type 0, BuildingBlock: QUQFOY_clean_sbu_1, # of connection points: 4
#     Node 2, Type 0, BuildingBlock: QUQFOY_clean_sbu_1, # of connection points: 4
#     Node 3, Type 0, BuildingBlock: QUQFOY_clean_sbu_1, # of connection points: 4
#     Node 4, Type 0, BuildingBlock: QUQFOY_clean_sbu_1, # of connection points: 4
#     Node 5, Type 0, BuildingBlock: QUQFOY_clean_sbu_1, # of connection points: 4
#     Node 6, Type 0, BuildingBlock: QUQFOY_clean_sbu_1, # of connection points: 4
#     Node 7, Type 0, BuildingBlock: QUQFOY_clean_sbu_1, # of connection points: 4
#     Node 8, Type 0, BuildingBlock: QUQFOY_clean_sbu_1, # of connection points: 4
#     Node 9, Type 0, BuildingBlock: QUQFOY_clean_sbu_1, # of connection points: 4
#     Node 10, Type 0, BuildingBlock: QUQFOY_clean_sbu_1, # of connection points: 4
#     Node 11, Type 0, BuildingBlock: QUQFOY_clean_sbu_1, # of connection points: 4
#     Node 12, Type 0, BuildingBlock: QUQFOY_clean_sbu_1, # of connection points: 4
#     Node 13, Type 0, BuildingBlock: QUQFOY_clean_sbu_1, # of connection points: 4
#     Node 14, Type 0, BuildingBlock: QUQFOY_clean_sbu_1, # of connection points: 4
#     Node 15, Type 0, BuildingBlock: QUQFOY_clean_sbu_1, # of connection points: 4
#     Node 16, Type 0, BuildingBlock: QUQFOY_clean_sbu_1, # of connection points: 4
#     Node 17, Type 0, BuildingBlock: QUQFOY_clean_sbu_1, # of connection points: 4
#     Node 18, Type 0, BuildingBlock: QUQFOY_clean_sbu_1, # of connection points: 4
#     Node 19, Type 0, BuildingBlock: QUQFOY_clean_sbu_1, # of connection points: 4
#     Node 20, Type 0, BuildingBlock: QUQFOY_clean_sbu_1, # of connection points: 4
#     Node 21, Type 0, BuildingBlock: QUQFOY_clean_sbu_1, # of connection points: 4
#     Node 22, Type 0, BuildingBlock: QUQFOY_clean_sbu_1, # of connection points: 4
#     Node 23, Type 0, BuildingBlock: QUQFOY_clean_sbu_1, # of connection points: 4
#     Node 24, Type 0, BuildingBlock: QUQFOY_clean_sbu_1, # of connection points: 4
#     Node 25, Type 0, BuildingBlock: QUQFOY_clean_sbu_1, # of connection points: 4
#     Node 26, Type 0, BuildingBlock: QUQFOY_clean_sbu_1, # of connection points: 4
#     Node 27, Type 0, BuildingBlock: QUQFOY_clean_sbu_1, # of connection points: 4
#     Node 28, Type 0, BuildingBlock: QUQFOY_clean_sbu_1, # of connection points: 4
#     Node 29, Type 0, BuildingBlock: QUQFOY_clean_sbu_1, # of connection points: 4
#     Node 30, Type 0, BuildingBlock: QUQFOY_clean_sbu_1, # of connection points: 4
#     Node 31, Type 0, BuildingBlock: QUQFOY_clean_sbu_1, # of connection points: 4
#     Edge 32, Type (0, 0), BuildingBlock: CIFDUS_clean_linker_0, # of connection points: 2
#     Edge 33, Type (0, 0), BuildingBlock: CIFDUS_clean_linker_0, # of connection points: 2
#     Edge 34, Type (0, 0), BuildingBlock: CIFDUS_clean_linker_0, # of connection points: 2
#     Edge 35, Type (0, 0), BuildingBlock: CIFDUS_clean_linker_0, # of connection points: 2
#     Edge 36, Type (0, 0), BuildingBlock: CIFDUS_clean_linker_0, # of connection points: 2
#     Edge 37, Type (0, 0), BuildingBlock: CIFDUS_clean_linker_0, # of connection points: 2
#     Edge 38, Type (0, 0), BuildingBlock: CIFDUS_clean_linker_0, # of connection points: 2
#     Edge 39, Type (0, 0), BuildingBlock: CIFDUS_clean_linker_0, # of connection points: 2
#     Edge 40, Type (0, 0), BuildingBlock: CIFDUS_clean_linker_0, # of connection points: 2
#     Edge 41, Type (0, 0), BuildingBlock: CIFDUS_clean_linker_0, # of connection points: 2
#     Edge 42, Type (0, 0), BuildingBlock: CIFDUS_clean_linker_0, # of connection points: 2
#     Edge 43, Type (0, 0), BuildingBlock: CIFDUS_clean_linker_0, # of connection points: 2
#     Edge 44, Type (0, 0), BuildingBlock: CIFDUS_clean_linker_0, # of connection points: 2
#     Edge 45, Type (0, 0), BuildingBlock: CIFDUS_clean_linker_0, # of connection points: 2
#     Edge 46, Type (0, 0), BuildingBlock: CIFDUS_clean_linker_0, # of connection points: 2
#     Edge 47, Type (0, 0), BuildingBlock: CIFDUS_clean_linker_0, # of connection points: 2
#     Edge 48, Type (0, 0), BuildingBlock: CIFDUS_clean_linker_0, # of connection points: 2
#     Edge 49, Type (0, 0), BuildingBlock: CIFDUS_clean_linker_0, # of connection points: 2
#     Edge 50, Type (0, 0), BuildingBlock: CIFDUS_clean_linker_0, # of connection points: 2
#     Edge 51, Type (0, 0), BuildingBlock: CIFDUS_clean_linker_0, # of connection points: 2
#     Edge 52, Type (0, 0), BuildingBlock: CIFDUS_clean_linker_0, # of connection points: 2
#     Edge 53, Type (0, 0), BuildingBlock: CIFDUS_clean_linker_0, # of connection points: 2
#     Edge 54, Type (0, 0), BuildingBlock: CIFDUS_clean_linker_0, # of connection points: 2
#     Edge 55, Type (0, 0), BuildingBlock: CIFDUS_clean_linker_0, # of connection points: 2
#     Edge 56, Type (0, 0), BuildingBlock: CIFDUS_clean_linker_0, # of connection points: 2
#     Edge 57, Type (0, 0), BuildingBlock: CIFDUS_clean_linker_0, # of connection points: 2
#     Edge 58, Type (0, 0), BuildingBlock: CIFDUS_clean_linker_0, # of connection points: 2
#     Edge 59, Type (0, 0), BuildingBlock: CIFDUS_clean_linker_0, # of connection points: 2
#     Edge 60, Type (0, 0), BuildingBlock: CIFDUS_clean_linker_0, # of connection points: 2
#     Edge 61, Type (0, 0), BuildingBlock: CIFDUS_clean_linker_0, # of connection points: 2
#     Edge 62, Type (0, 0), BuildingBlock: CIFDUS_clean_linker_0, # of connection points: 2
#     Edge 63, Type (0, 0), BuildingBlock: CIFDUS_clean_linker_0, # of connection points: 2
#     Edge 64, Type (0, 0), BuildingBlock: CIFDUS_clean_linker_0, # of connection points: 2
#     Edge 65, Type (0, 0), BuildingBlock: CIFDUS_clean_linker_0, # of connection points: 2
#     Edge 66, Type (0, 0), BuildingBlock: CIFDUS_clean_linker_0, # of connection points: 2
#     Edge 67, Type (0, 0), BuildingBlock: CIFDUS_clean_linker_0, # of connection points: 2
#     Edge 68, Type (0, 0), BuildingBlock: CIFDUS_clean_linker_0, # of connection points: 2
#     Edge 69, Type (0, 0), BuildingBlock: CIFDUS_clean_linker_0, # of connection points: 2
#     Edge 70, Type (0, 0), BuildingBlock: CIFDUS_clean_linker_0, # of connection points: 2
#     Edge 71, Type (0, 0), BuildingBlock: CIFDUS_clean_linker_0, # of connection points: 2
#     Edge 72, Type (0, 0), BuildingBlock: CIFDUS_clean_linker_0, # of connection points: 2
#     Edge 73, Type (0, 0), BuildingBlock: CIFDUS_clean_linker_0, # of connection points: 2
#     Edge 74, Type (0, 0), BuildingBlock: CIFDUS_clean_linker_0, # of connection points: 2
#     Edge 75, Type (0, 0), BuildingBlock: CIFDUS_clean_linker_0, # of connection points: 2
#     Edge 76, Type (0, 0), BuildingBlock: CIFDUS_clean_linker_0, # of connection points: 2
#     Edge 77, Type (0, 0), BuildingBlock: CIFDUS_clean_linker_0, # of connection points: 2
#     Edge 78, Type (0, 0), BuildingBlock: CIFDUS_clean_linker_0, # of connection points: 2
#     Edge 79, Type (0, 0), BuildingBlock: CIFDUS_clean_linker_0, # of connection points: 2
#     Edge 80, Type (0, 0), BuildingBlock: CIFDUS_clean_linker_0, # of connection points: 2
#     Edge 81, Type (0, 0), BuildingBlock: CIFDUS_clean_linker_0, # of connection points: 2
#     Edge 82, Type (0, 0), BuildingBlock: CIFDUS_clean_linker_0, # of connection points: 2
#     Edge 83, Type (0, 0), BuildingBlock: CIFDUS_clean_linker_0, # of connection points: 2
#     Edge 84, Type (0, 0), BuildingBlock: CIFDUS_clean_linker_0, # of connection points: 2
#     Edge 85, Type (0, 0), BuildingBlock: CIFDUS_clean_linker_0, # of connection points: 2
#     Edge 86, Type (0, 0), BuildingBlock: CIFDUS_clean_linker_0, # of connection points: 2
#     Edge 87, Type (0, 0), BuildingBlock: CIFDUS_clean_linker_0, # of connection points: 2
#     Edge 88, Type (0, 0), BuildingBlock: CIFDUS_clean_linker_0, # of connection points: 2
#     Edge 89, Type (0, 0), BuildingBlock: CIFDUS_clean_linker_0, # of connection points: 2
#     Edge 90, Type (0, 0), BuildingBlock: CIFDUS_clean_linker_0, # of connection points: 2
#     Edge 91, Type (0, 0), BuildingBlock: CIFDUS_clean_linker_0, # of connection points: 2
#     Edge 92, Type (0, 0), BuildingBlock: CIFDUS_clean_linker_0, # of connection points: 2
#     Edge 93, Type (0, 0), BuildingBlock: CIFDUS_clean_linker_0, # of connection points: 2
#     Edge 94, Type (0, 0), BuildingBlock: CIFDUS_clean_linker_0, # of connection points: 2
#     Edge 95, Type (0, 0), BuildingBlock: CIFDUS_clean_linker_0, # of connection points: 2
# Relax obj value: 0.039
# Max RMSD: 0.082
# Mean RMSD: 0.082
data_MOF--net-uod--node1-QUQFOY_clean_sbu_1--edge1-CIFDUS_clean_linker_0
_symmetry_space_group_name_H-M    P1
_symmetry_Int_Tables_number       1
_symmetry_cell_setting            triclinic
loop_
_symmetry_equiv_pos_as_xyz
'x, y, z'
_cell_length_a     78.282947
_cell_length_b     25.135671
_cell_length_c     60.580419
_cell_angle_alpha  90.063449
_cell_angle_beta   89.865071
_cell_angle_gamma 89.821777
loop_
_atom_site_label
_atom_site_type_symbol
_atom_site_fract_x
_atom_site_fract_y
_atom_site_fract_z
_atom_type_partial_charge
O0 O 0.05524 0.48883 0.10352 0.0
Cd1 Cd 0.06626 0.43312 0.08355 0.0
Cd2 Cd 0.0598 0.37734 0.12315 0.0
O3 O 0.04384 0.44047 0.13006 0.0
O4 O 0.06707 0.47552 0.05559 0.0
O5 O 0.04951 0.40796 0.06044 0.0
C6 C 0.05409 0.44867 0.04885 0.0
C7 C 0.05079 0.29039 0.12977 0.0
C8 C 0.04532 0.48442 0.11997 0.0
C9 C 0.09659 0.39897 0.11023 0.0
O10 O 0.08586 0.38931 0.1255 0.0
O11 O 0.09143 0.41065 0.09084 0.0
O12 O 0.05478 0.32196 0.14572 0.0
O13 O 0.05137 0.30891 0.10989 0.0
O14 O 0.23278 0.77262 0.10609 0.0
Cd15 Cd 0.22154 0.83012 0.08746 0.0
Cd16 Cd 0.23107 0.88468 0.12457 0.0
O17 O 0.24733 0.82121 0.12974 0.0
O18 O 0.22222 0.79271 0.05831 0.0
O19 O 0.238 0.86322 0.06591 0.0
C20 C 0.23478 0.82338 0.05304 0.0
C21 C 0.23996 0.97209 0.13054 0.0
C22 C 0.24425 0.77668 0.12072 0.0
C23 C 0.19326 0.86305 0.11694 0.0
O24 O 0.20535 0.87257 0.13038 0.0
O25 O 0.19664 0.85161 0.09684 0.0
O26 O 0.23747 0.93973 0.14671 0.0
O27 O 0.23816 0.95396 0.11071 0.0
O28 O 0.05322 0.7762 0.1574 0.0
Cd29 Cd 0.06454 0.83385 0.1758 0.0
Cd30 Cd 0.05515 0.88695 0.13851 0.0
O31 O 0.03877 0.8241 0.13337 0.0
O32 O 0.06385 0.79702 0.20504 0.0
O33 O 0.04813 0.86782 0.19728 0.0
C34 C 0.05131 0.8281 0.21023 0.0
C35 C 0.04653 0.9749 0.13327 0.0
C36 C 0.0418 0.77991 0.14269 0.0
C37 C 0.09288 0.86449 0.14615 0.0
O38 O 0.08082 0.87367 0.13263 0.0
O39 O 0.08948 0.8542 0.16634 0.0
O40 O 0.04881 0.94306 0.11683 0.0
O41 O 0.04833 0.95589 0.15296 0.0
O42 O 0.23384 0.48735 0.16384 0.0
Cd43 Cd 0.22267 0.43419 0.18472 0.0
Cd44 Cd 0.22874 0.37482 0.14488 0.0
O45 O 0.24441 0.43764 0.13702 0.0
O46 O 0.22179 0.47979 0.21188 0.0
O47 O 0.2392 0.41105 0.20857 0.0
C48 C 0.23459 0.45311 0.21938 0.0
C49 C 0.23738 0.28766 0.13717 0.0
C50 C 0.24325 0.48201 0.14692 0.0
C51 C 0.19208 0.39904 0.1586 0.0
O52 O 0.20267 0.38736 0.14338 0.0
O53 O 0.19738 0.41243 0.17775 0.0
O54 O 0.23302 0.32005 0.12169 0.0
O55 O 0.23744 0.30545 0.15719 0.0
O56 O 0.97907 0.52094 0.91358 0.0
Cd57 Cd 0.9694 0.57861 0.93375 0.0
Cd58 Cd 0.97702 0.63392 0.89626 0.0
O59 O 0.99223 0.5693 0.88846 0.0
O60 O 0.96866 0.53785 0.96209 0.0
O61 O 0.987 0.60282 0.95594 0.0
C62 C 0.98213 0.56339 0.96809 0.0
C63 C 0.98672 0.7215 0.89515 0.0
C64 C 0.98943 0.52465 0.89754 0.0
C65 C 0.93987 0.61662 0.90708 0.0
O66 O 0.951 0.62501 0.89217 0.0
O67 O 0.94456 0.60447 0.92662 0.0
O68 O 0.98365 0.69528 0.87728 0.0
O69 O 0.98509 0.69683 0.91377 0.0
O70 O 0.80599 0.23029 0.91167 0.0
Cd71 Cd 0.81565 0.17384 0.93232 0.0
Cd72 Cd 0.8087 0.11694 0.89457 0.0
O73 O 0.7936 0.18123 0.88616 0.0
O74 O 0.8163 0.21643 0.96024 0.0
O75 O 0.79805 0.15091 0.95483 0.0
C76 C 0.80287 0.19111 0.96657 0.0
C77 C 0.79909 0.02924 0.89305 0.0
C78 C 0.79605 0.22606 0.89528 0.0
C79 C 0.84564 0.13544 0.90632 0.0
O80 O 0.83479 0.12617 0.89122 0.0
O81 O 0.8406 0.14827 0.92568 0.0
O82 O 0.80259 0.05547 0.87532 0.0
O83 O 0.80026 0.05391 0.91174 0.0
O84 O 0.98011 0.2324 0.85132 0.0
Cd85 Cd 0.97066 0.17576 0.83061 0.0
Cd86 Cd 0.97771 0.11916 0.86834 0.0
O87 O 0.99266 0.18348 0.87677 0.0
O88 O 0.97005 0.21795 0.80261 0.0
O89 O 0.98843 0.15259 0.80828 0.0
C90 C 0.98357 0.19258 0.79642 0.0
C91 C 0.98736 0.03137 0.86983 0.0
C92 C 0.99008 0.22828 0.86769 0.0
C93 C 0.94075 0.13718 0.85653 0.0
O94 O 0.95161 0.12832 0.87166 0.0
O95 O 0.94576 0.14985 0.83716 0.0
O96 O 0.98387 0.05773 0.88758 0.0
O97 O 0.98621 0.05601 0.85116 0.0
O98 O 0.8073 0.51757 0.84957 0.0
Cd99 Cd 0.81626 0.57499 0.82895 0.0
Cd100 Cd 0.80843 0.63156 0.86599 0.0
O101 O 0.79332 0.56696 0.87374 0.0
O102 O 0.81663 0.53444 0.80048 0.0
O103 O 0.79788 0.59812 0.80772 0.0
C104 C 0.80274 0.55906 0.79526 0.0
C105 C 0.79872 0.71935 0.86731 0.0
C106 C 0.79659 0.52186 0.86521 0.0
C107 C 0.84563 0.61476 0.85509 0.0
O108 O 0.83447 0.62271 0.87005 0.0
O109 O 0.84095 0.60249 0.83556 0.0
O110 O 0.80179 0.69291 0.88512 0.0
O111 O 0.80029 0.69476 0.84865 0.0
O112 O 0.05472 0.97622 0.60168 0.0
Cd113 Cd 0.06445 0.91928 0.58127 0.0
Cd114 Cd 0.05799 0.86383 0.62023 0.0
O115 O 0.04343 0.92907 0.62862 0.0
O116 O 0.06284 0.9597 0.55293 0.0
O117 O 0.04694 0.88939 0.56032 0.0
C118 C 0.04999 0.9301 0.54789 0.0
C119 C 0.04833 0.77827 0.62804 0.0
C120 C 0.04539 0.97308 0.61874 0.0
C121 C 0.09494 0.88219 0.60626 0.0
O122 O 0.08421 0.87179 0.62144 0.0
O123 O 0.08977 0.89646 0.58718 0.0
O124 O 0.05311 0.81015 0.64348 0.0
O125 O 0.04833 0.79589 0.608 0.0
O126 O 0.23364 0.28788 0.59934 0.0
Cd127 Cd 0.22426 0.34892 0.58103 0.0
Cd128 Cd 0.23037 0.39626 0.62224 0.0
O129 O 0.24468 0.32784 0.62842 0.0
O130 O 0.2254 0.31189 0.55182 0.0
O131 O 0.24195 0.37982 0.5604 0.0
C132 C 0.23854 0.34067 0.54727 0.0
C133 C 0.23933 0.48328 0.63072 0.0
C134 C 0.24266 0.28638 0.61664 0.0
C135 C 0.19358 0.37983 0.60736 0.0
O136 O 0.20415 0.3868 0.62302 0.0
O137 O 0.19895 0.3707 0.58777 0.0
O138 O 0.23513 0.44989 0.64594 0.0
O139 O 0.23946 0.46624 0.61057 0.0
O140 O 0.0595 0.26672 0.66244 0.0
Cd141 Cd 0.06856 0.3257 0.68228 0.0
Cd142 Cd 0.06104 0.37941 0.64335 0.0
O143 O 0.04626 0.31375 0.63697 0.0
O144 O 0.06936 0.28601 0.71088 0.0
O145 O 0.05054 0.34954 0.70413 0.0
C146 C 0.0556 0.31084 0.71657 0.0
C147 C 0.05053 0.46438 0.63609 0.0
C148 C 0.04911 0.26969 0.64648 0.0
C149 C 0.09816 0.36542 0.65595 0.0
O150 O 0.08728 0.37209 0.64064 0.0
O151 O 0.09319 0.35346 0.67542 0.0
O152 O 0.05489 0.4325 0.62037 0.0
O153 O 0.05153 0.44711 0.65614 0.0
O154 O 0.22151 0.9887 0.67093 0.0
Cd155 Cd 0.2169 0.91841 0.68619 0.0
Cd156 Cd 0.22682 0.88499 0.64712 0.0
O157 O 0.24026 0.9569 0.64726 0.0
O158 O 0.21625 0.94343 0.71743 0.0
O159 O 0.23747 0.89524 0.70374 0.0
C160 C 0.23157 0.92496 0.71948 0.0
C161 C 0.23813 0.8 0.64031 0.0
C162 C 0.23386 0.99613 0.65777 0.0
C163 C 0.1894 0.88213 0.65741 0.0
O164 O 0.20061 0.88906 0.64245 0.0
O165 O 0.19383 0.88295 0.67767 0.0
O166 O 0.23571 0.83365 0.62451 0.0
O167 O 0.23533 0.81619 0.66029 0.0
O168 O 0.98194 0.0289 0.41087 0.0
Cd169 Cd 0.97174 0.08593 0.43086 0.0
Cd170 Cd 0.9778 0.14019 0.39152 0.0
O171 O 0.99341 0.07642 0.38418 0.0
O172 O 0.97316 0.04574 0.45927 0.0
O173 O 0.98895 0.11637 0.45209 0.0
C174 C 0.98589 0.07561 0.46449 0.0
C175 C 0.98664 0.22697 0.38417 0.0
C176 C 0.99167 0.03247 0.3942 0.0
C177 C 0.94107 0.11955 0.40536 0.0
O178 O 0.95168 0.12885 0.3899 0.0
O179 O 0.9464 0.10788 0.42468 0.0
O180 O 0.9825 0.19477 0.36851 0.0
O181 O 0.9864 0.2091 0.40417 0.0
O182 O 0.80593 0.7485 0.41301 0.0
Cd183 Cd 0.81629 0.69178 0.43284 0.0
Cd184 Cd 0.80974 0.6367 0.39383 0.0
O185 O 0.79387 0.70019 0.38703 0.0
O186 O 0.81481 0.73188 0.46137 0.0
O187 O 0.79908 0.66116 0.45411 0.0
C188 C 0.80206 0.70197 0.46655 0.0
C189 C 0.80093 0.54967 0.38674 0.0
C190 C 0.79581 0.74442 0.39681 0.0
C191 C 0.84666 0.65808 0.40649 0.0
O192 O 0.83583 0.64852 0.39136 0.0
O193 O 0.84159 0.66981 0.42597 0.0
O194 O 0.80477 0.58189 0.37097 0.0
O195 O 0.80146 0.56762 0.40674 0.0
O196 O 0.98319 0.74054 0.35009 0.0
Cd197 Cd 0.97256 0.68448 0.33017 0.0
Cd198 Cd 0.97847 0.62966 0.36954 0.0
O199 O 0.9942 0.69268 0.377 0.0
O200 O 0.97438 0.72428 0.30162 0.0
O201 O 0.98954 0.65213 0.30885 0.0
C202 C 0.98684 0.69303 0.29638 0.0
C203 C 0.98702 0.54237 0.37684 0.0
C204 C 0.99272 0.73661 0.36688 0.0
C205 C 0.94176 0.6534 0.35625 0.0
O206 O 0.95242 0.64262 0.37144 0.0
O207 O 0.94702 0.66507 0.33686 0.0
O208 O 0.98296 0.57477 0.39251 0.0
O209 O 0.98686 0.56027 0.35684 0.0
O210 O 0.8042 0.03466 0.35272 0.0
Cd211 Cd 0.81489 0.08863 0.33185 0.0
Cd212 Cd 0.80878 0.1467 0.37167 0.0
O213 O 0.79305 0.08378 0.37931 0.0
O214 O 0.81595 0.04286 0.30477 0.0
O215 O 0.79814 0.1106 0.30809 0.0
C216 C 0.80293 0.06865 0.29736 0.0
C217 C 0.80034 0.23411 0.37925 0.0
C218 C 0.7946 0.03943 0.36948 0.0
C219 C 0.8454 0.12329 0.35785 0.0
O220 O 0.83483 0.13381 0.37324 0.0
O221 O 0.84007 0.11111 0.33859 0.0
O222 O 0.80444 0.20158 0.3948 0.0
O223 O 0.80036 0.21626 0.35923 0.0
O224 O 0.55608 0.49283 0.59662 0.0
Cd225 Cd 0.56554 0.43684 0.57558 0.0
Cd226 Cd 0.55745 0.37795 0.61392 0.0
O227 O 0.54277 0.44375 0.6214 0.0
O228 O 0.56665 0.4806 0.54799 0.0
O229 O 0.54788 0.41622 0.55282 0.0
C230 C 0.55304 0.45661 0.54145 0.0
C231 C 0.54766 0.29248 0.62211 0.0
C232 C 0.54573 0.48862 0.61264 0.0
C233 C 0.59483 0.39484 0.6017 0.0
O234 O 0.58364 0.38533 0.61642 0.0
O235 O 0.59027 0.40958 0.58242 0.0
O236 O 0.55196 0.32533 0.63744 0.0
O237 O 0.54815 0.30909 0.60193 0.0
O238 O 0.73253 0.79457 0.60235 0.0
Cd239 Cd 0.72289 0.85473 0.58375 0.0
Cd240 Cd 0.72883 0.90354 0.62382 0.0
O241 O 0.74352 0.83637 0.631 0.0
O242 O 0.72429 0.81733 0.55461 0.0
O243 O 0.74051 0.88605 0.56315 0.0
C244 C 0.73733 0.8466 0.55007 0.0
C245 C 0.73796 0.99245 0.62548 0.0
C246 C 0.74163 0.79423 0.61959 0.0
C247 C 0.6921 0.88569 0.6101 0.0
O248 O 0.70265 0.89342 0.62573 0.0
O249 O 0.69752 0.87615 0.59056 0.0
O250 O 0.7346 0.96586 0.6432 0.0
O251 O 0.73716 0.96737 0.60684 0.0
O252 O 0.55587 0.77982 0.66118 0.0
Cd253 Cd 0.56529 0.83674 0.68175 0.0
Cd254 Cd 0.55934 0.89315 0.64254 0.0
O255 O 0.54467 0.82814 0.63451 0.0
O256 O 0.56308 0.79708 0.71028 0.0
O257 O 0.54735 0.86749 0.7021 0.0
C258 C 0.55015 0.82713 0.71485 0.0
C259 C 0.54973 0.9786 0.63372 0.0
C260 C 0.54654 0.78378 0.64419 0.0
C261 C 0.59609 0.87398 0.65713 0.0
O262 O 0.5856 0.88424 0.6417 0.0
O263 O 0.59063 0.86008 0.67617 0.0
O264 O 0.55477 0.94578 0.6187 0.0
O265 O 0.54954 0.96217 0.65392 0.0
O266 O 0.71932 0.49685 0.67176 0.0
Cd267 Cd 0.71449 0.42689 0.68705 0.0
Cd268 Cd 0.72545 0.39238 0.64932 0.0
O269 O 0.73907 0.46426 0.64968 0.0
O270 O 0.71398 0.45126 0.71842 0.0
O271 O 0.73509 0.40321 0.7043 0.0
C272 C 0.72932 0.43272 0.72019 0.0
C273 C 0.7362 0.30521 0.64914 0.0
C274 C 0.73224 0.50389 0.65949 0.0
C275 C 0.68782 0.39019 0.65711 0.0
O276 O 0.6995 0.39682 0.64273 0.0
O277 O 0.69165 0.3912 0.67759 0.0
O278 O 0.73543 0.3328 0.63116 0.0
O279 O 0.73213 0.32879 0.66742 0.0
O280 O 0.48132 0.53724 0.40924 0.0
Cd281 Cd 0.47105 0.59775 0.42709 0.0
Cd282 Cd 0.48209 0.64898 0.39048 0.0
O283 O 0.49802 0.58277 0.38683 0.0
O284 O 0.46879 0.56045 0.45607 0.0
O285 O 0.48799 0.623 0.44981 0.0
C286 C 0.48244 0.5849 0.46222 0.0
C287 C 0.49114 0.73787 0.39065 0.0
C288 C 0.49369 0.53903 0.39577 0.0
C289 C 0.44404 0.63253 0.39634 0.0
O290 O 0.45648 0.63873 0.38302 0.0
O291 O 0.44694 0.62333 0.41672 0.0
O292 O 0.49007 0.71114 0.37249 0.0
O293 O 0.48807 0.71297 0.40891 0.0
O294 O 0.30414 0.24118 0.40927 0.0
Cd295 Cd 0.31514 0.18448 0.42858 0.0
Cd296 Cd 0.30466 0.12723 0.39243 0.0
O297 O 0.28905 0.1916 0.38653 0.0
O298 O 0.31475 0.22351 0.45733 0.0
O299 O 0.29849 0.15362 0.45034 0.0
C300 C 0.30197 0.19395 0.46284 0.0
C301 C 0.29477 0.0411 0.38637 0.0
C302 C 0.29251 0.23655 0.39487 0.0
C303 C 0.34282 0.14565 0.39957 0.0
O304 O 0.3305 0.1358 0.38655 0.0
O305 O 0.33978 0.16002 0.41942 0.0
O306 O 0.29785 0.07302 0.37024 0.0
O307 O 0.29657 0.05905 0.40623 0.0
O308 O 0.47536 0.24589 0.34897 0.0
Cd309 Cd 0.46765 0.17815 0.33393 0.0
Cd310 Cd 0.4806 0.13927 0.37005 0.0
O311 O 0.49546 0.20836 0.36901 0.0
O312 O 0.46567 0.2044 0.30298 0.0
O313 O 0.48638 0.15076 0.31421 0.0
C314 C 0.48039 0.18269 0.29936 0.0
C315 C 0.49042 0.05121 0.36932 0.0
C316 C 0.48903 0.24953 0.35998 0.0
C317 C 0.44239 0.14506 0.36662 0.0
O318 O 0.45522 0.14738 0.37945 0.0
O319 O 0.44466 0.14756 0.34577 0.0
O320 O 0.49063 0.07873 0.38736 0.0
O321 O 0.48574 0.07509 0.35141 0.0
O322 O 0.30525 0.52687 0.35666 0.0
Cd323 Cd 0.31631 0.58354 0.3373 0.0
Cd324 Cd 0.30596 0.64032 0.37441 0.0
O325 O 0.29024 0.57633 0.37975 0.0
O326 O 0.3181 0.54258 0.30904 0.0
O327 O 0.29979 0.60865 0.31394 0.0
C328 C 0.30493 0.56867 0.30219 0.0
C329 C 0.29603 0.72644 0.38094 0.0
C330 C 0.29362 0.53152 0.37114 0.0
C331 C 0.34396 0.62161 0.36671 0.0
O332 O 0.33175 0.63038 0.38014 0.0
O333 O 0.34076 0.60899 0.34672 0.0
O334 O 0.29914 0.69406 0.39692 0.0
O335 O 0.29789 0.70903 0.36099 0.0
O336 O 0.5541 0.97707 0.10386 0.0
Cd337 Cd 0.56399 0.92032 0.08345 0.0
Cd338 Cd 0.55773 0.86467 0.12129 0.0
O339 O 0.54261 0.92862 0.13025 0.0
O340 O 0.56229 0.96052 0.05507 0.0
O341 O 0.54656 0.88988 0.06253 0.0
C342 C 0.54953 0.93056 0.05005 0.0
C343 C 0.54829 0.77681 0.12286 0.0
C344 C 0.54457 0.97316 0.12072 0.0
C345 C 0.59456 0.88489 0.10862 0.0
O346 O 0.58386 0.87455 0.12385 0.0
O347 O 0.58933 0.8979 0.08941 0.0
O348 O 0.55199 0.80294 0.14056 0.0
O349 O 0.5492 0.80163 0.1042 0.0
O350 O 0.72794 0.26823 0.10087 0.0
Cd351 Cd 0.7183 0.3262 0.08096 0.0
Cd352 Cd 0.72606 0.381 0.11841 0.0
O353 O 0.74141 0.31644 0.12571 0.0
O354 O 0.71738 0.2856 0.05258 0.0
O355 O 0.73587 0.35018 0.05866 0.0
C356 C 0.7309 0.31085 0.04651 0.0
C357 C 0.73569 0.46863 0.11922 0.0
C358 C 0.7385 0.27183 0.11663 0.0
C359 C 0.68889 0.36413 0.10797 0.0
O360 O 0.70005 0.37194 0.12284 0.0
O361 O 0.69355 0.35243 0.08833 0.0
O362 O 0.73279 0.44261 0.13719 0.0
O363 O 0.73394 0.44372 0.10067 0.0
O364 O 0.55608 0.26537 0.16623 0.0
Cd365 Cd 0.56523 0.32279 0.18673 0.0
Cd366 Cd 0.55743 0.37902 0.14955 0.0
O367 O 0.54231 0.3144 0.14189 0.0
O368 O 0.56597 0.28175 0.21502 0.0
O369 O 0.54715 0.3456 0.20863 0.0
C370 C 0.5522 0.30636 0.22079 0.0
C371 C 0.54778 0.46686 0.14834 0.0
C372 C 0.54547 0.26944 0.15055 0.0
C373 C 0.59461 0.36222 0.16032 0.0
O374 O 0.58348 0.3701 0.14541 0.0
O375 O 0.58991 0.35003 0.17987 0.0
O376 O 0.55084 0.44039 0.13049 0.0
O377 O 0.54932 0.44227 0.16698 0.0
O378 O 0.7298 0.98025 0.16212 0.0
Cd379 Cd 0.71989 0.92507 0.18313 0.0
Cd380 Cd 0.72676 0.86711 0.14515 0.0
O381 O 0.74189 0.93075 0.13635 0.0
O382 O 0.71885 0.96975 0.21048 0.0
O383 O 0.73716 0.90355 0.2063 0.0
C384 C 0.73218 0.94471 0.21742 0.0
C385 C 0.73621 0.77907 0.14381 0.0
C386 C 0.73962 0.97564 0.14555 0.0
C387 C 0.68986 0.88682 0.15728 0.0
O388 O 0.70067 0.87704 0.1421 0.0
O389 O 0.69493 0.89993 0.17656 0.0
O390 O 0.73269 0.80509 0.12603 0.0
O391 O 0.73516 0.80414 0.16242 0.0
O392 O 0.48134 0.02595 0.9127 0.0
Cd393 Cd 0.4711 0.08311 0.93259 0.0
Cd394 Cd 0.47769 0.13734 0.89477 0.0
O395 O 0.49326 0.07385 0.88647 0.0
O396 O 0.47251 0.04357 0.96114 0.0
O397 O 0.48825 0.11421 0.95371 0.0
C398 C 0.48521 0.07369 0.96626 0.0
C399 C 0.48672 0.22561 0.89402 0.0
C400 C 0.4912 0.02955 0.89616 0.0
C401 C 0.44078 0.11659 0.90656 0.0
O402 O 0.45166 0.1264 0.89147 0.0
O403 O 0.4458 0.10472 0.92599 0.0
O404 O 0.48357 0.19988 0.87604 0.0
O405 O 0.48554 0.20012 0.9125 0.0
O406 O 0.30279 0.72935 0.91275 0.0
Cd407 Cd 0.31344 0.67462 0.93334 0.0
Cd408 Cd 0.30797 0.61729 0.8939 0.0
O409 O 0.29246 0.68052 0.88568 0.0
O410 O 0.31143 0.71624 0.96149 0.0
O411 O 0.29649 0.64355 0.95493 0.0
C412 C 0.29907 0.68518 0.96703 0.0
C413 C 0.2996 0.53025 0.88571 0.0
C414 C 0.29366 0.72481 0.89561 0.0
C415 C 0.34453 0.64193 0.90791 0.0
O416 O 0.33404 0.62984 0.89272 0.0
O417 O 0.33908 0.65508 0.92708 0.0
O418 O 0.30406 0.56305 0.87044 0.0
O419 O 0.29928 0.54754 0.90581 0.0
O420 O 0.48036 0.73669 0.8522 0.0
Cd421 Cd 0.47029 0.67949 0.83234 0.0
Cd422 Cd 0.47677 0.62507 0.87021 0.0
O423 O 0.4923 0.68844 0.87831 0.0
O424 O 0.47205 0.71829 0.80357 0.0
O425 O 0.48774 0.64769 0.81158 0.0
C426 C 0.48484 0.6879 0.79879 0.0
C427 C 0.48603 0.53683 0.87092 0.0
C428 C 0.49024 0.73281 0.86866 0.0
C429 C 0.43988 0.64562 0.85847 0.0
O430 O 0.4507 0.636 0.87359 0.0
O431 O 0.44498 0.6575 0.83903 0.0
O432 O 0.4828 0.56254 0.88892 0.0
O433 O 0.48477 0.56229 0.85244 0.0
O434 O 0.30712 0.01455 0.85047 0.0
Cd435 Cd 0.31657 0.07119 0.82984 0.0
Cd436 Cd 0.30897 0.12855 0.86842 0.0
O437 O 0.29346 0.06423 0.87485 0.0
O438 O 0.31742 0.02924 0.80171 0.0
O439 O 0.29866 0.09355 0.80778 0.0
C440 C 0.30371 0.05385 0.7958 0.0
C441 C 0.29969 0.21511 0.87607 0.0
C442 C 0.29635 0.01927 0.86602 0.0
C443 C 0.34608 0.11011 0.85609 0.0
O444 O 0.33508 0.11808 0.87123 0.0
O445 O 0.34125 0.09821 0.83658 0.0
O446 O 0.30349 0.18226 0.89163 0.0
O447 O 0.30044 0.19798 0.85596 0.0
H448 H 0.0334 0.69677 0.1681 0.0
H449 H 0.03261 0.75228 0.10079 0.0
H450 H 0.02936 0.66076 0.08765 0.0
H451 H 0.03429 0.56616 0.09527 0.0
H452 H 0.03743 0.51098 0.16253 0.0
H453 H 0.0318 0.60126 0.17592 0.0
C454 C 0.03194 0.6888 0.15059 0.0
C455 C 0.0337 0.73048 0.13532 0.0
C456 C 0.03081 0.63623 0.14324 0.0
C457 C 0.03143 0.72049 0.11275 0.0
C458 C 0.02977 0.66818 0.10527 0.0
C459 C 0.03326 0.57378 0.11286 0.0
C460 C 0.03677 0.5328 0.12798 0.0
C461 C 0.03062 0.62579 0.12032 0.0
C462 C 0.03497 0.54229 0.15067 0.0
C463 C 0.03189 0.5939 0.15829 0.0
H464 H 0.25195 0.69142 0.09592 0.0
H465 H 0.25455 0.75174 0.16249 0.0
H466 H 0.25882 0.66134 0.17644 0.0
H467 H 0.25452 0.56594 0.17013 0.0
H468 H 0.24969 0.50586 0.10373 0.0
H469 H 0.25404 0.59548 0.08907 0.0
C470 C 0.25398 0.68477 0.11342 0.0
C471 C 0.25248 0.72748 0.1283 0.0
C472 C 0.25577 0.6328 0.12128 0.0
C473 C 0.2555 0.71915 0.15083 0.0
C474 C 0.25778 0.66748 0.15879 0.0
C475 C 0.25492 0.57236 0.15242 0.0
C476 C 0.2513 0.53009 0.13797 0.0
C477 C 0.2568 0.624 0.14426 0.0
C478 C 0.25226 0.53812 0.1151 0.0
C479 C 0.2546 0.58936 0.10677 0.0
H480 H 0.99885 0.31577 0.84497 0.0
H481 H 0.99686 0.25126 0.91087 0.0
H482 H 1.00026 0.34067 0.9263 0.0
H483 H 0.99738 0.43693 0.9207 0.0
H484 H 0.99769 0.50144 0.85475 0.0
H485 H 1.00178 0.41201 0.83953 0.0
C486 C 0.99962 0.32126 0.86272 0.0
C487 C 0.99719 0.27759 0.87686 0.0
C488 C 1.00105 0.37266 0.87136 0.0
C489 C 0.99858 0.28455 0.89974 0.0
C490 C 1.00036 0.33564 0.90853 0.0
C491 C 0.99878 0.43143 0.90301 0.0
C492 C 0.99681 0.47513 0.88875 0.0
C493 C 1.00062 0.38003 0.89447 0.0
C494 C 0.99903 0.46814 0.86596 0.0
C495 C 1.00122 0.41705 0.85729 0.0
H496 H 0.78861 0.4342 0.84215 0.0
H497 H 0.78834 0.4994 0.90803 0.0
H498 H 0.78424 0.4102 0.92335 0.0
H499 H 0.78718 0.31384 0.91797 0.0
H500 H 0.78913 0.24866 0.85212 0.0
H501 H 0.78568 0.33796 0.83663 0.0
C502 C 0.78721 0.42889 0.85985 0.0
C503 C 0.7892 0.47267 0.87407 0.0
C504 C 0.78536 0.37763 0.86844 0.0
C505 C 0.78698 0.466 0.89686 0.0
C506 C 0.78479 0.41504 0.90558 0.0
C507 C 0.78639 0.31916 0.90023 0.0
C508 C 0.78884 0.27531 0.88611 0.0
C509 C 0.78494 0.3705 0.89155 0.0
C510 C 0.78741 0.28207 0.86322 0.0
C511 C 0.7856 0.3331 0.85441 0.0
H512 H 0.03609 0.05995 0.59595 0.0
H513 H 0.03989 0.99769 0.66209 0.0
H514 H 0.03777 0.08787 0.67711 0.0
H515 H 0.0415 0.1834 0.67066 0.0
H516 H 0.03952 0.24548 0.60435 0.0
H517 H 0.03395 0.15614 0.59003 0.0
C518 C 0.03597 0.06615 0.61369 0.0
C519 C 0.03861 0.02286 0.62795 0.0
C520 C 0.03538 0.11793 0.62205 0.0
C521 C 0.03803 0.03071 0.65086 0.0
C522 C 0.037 0.08222 0.6594 0.0
C523 C 0.03947 0.17742 0.65311 0.0
C524 C 0.04141 0.22022 0.63843 0.0
C525 C 0.03673 0.12606 0.64506 0.0
C526 C 0.03829 0.21275 0.61586 0.0
C527 C 0.03521 0.16173 0.60769 0.0
H528 H 0.24942 0.04122 0.62191 0.0
H529 H 0.23266 0.07414 0.68843 0.0
H530 H 0.23783 0.16869 0.68315 0.0
H531 H 0.24189 0.24317 0.65755 0.0
H532 H 0.25662 0.21111 0.59029 0.0
H533 H 0.25801 0.11588 0.59801 0.0
C534 C 0.24731 0.06904 0.63535 0.0
C535 C 0.24028 0.05099 0.65529 0.0
C536 C 0.24989 0.12385 0.63204 0.0
C537 C 0.23768 0.08734 0.67269 0.0
C538 C 0.24067 0.14147 0.66974 0.0
C539 C 0.24607 0.21543 0.6449 0.0
C540 C 0.24905 0.23378 0.62343 0.0
C541 C 0.24603 0.16048 0.64918 0.0
C542 C 0.25422 0.19754 0.60698 0.0
C543 C 0.25486 0.14306 0.61132 0.0
H544 H 1.00057 0.94671 0.41805 0.0
H545 H 1.00008 0.00797 0.35155 0.0
H546 H 1.00473 0.91817 0.33706 0.0
H547 H 1.00204 0.82229 0.34332 0.0
H548 H 1.00016 0.761 0.40977 0.0
H549 H 1.00382 0.85098 0.42442 0.0
C550 C 1.00191 0.94047 0.40039 0.0
C551 C 0.99949 0.98325 0.38578 0.0
C552 C 1.00396 0.8888 0.39226 0.0
C553 C 1.00171 0.97536 0.36304 0.0
C554 C 1.00423 0.92403 0.35478 0.0
C555 C 1.0029 0.82857 0.36101 0.0
C556 C 1.00034 0.7857 0.37553 0.0
C557 C 1.00432 0.88035 0.36921 0.0
C558 C 1.00192 0.79367 0.39834 0.0
C559 C 1.00384 0.84511 0.40669 0.0
H560 H 0.78709 0.8301 0.42091 0.0
H561 H 0.78668 0.76839 0.35443 0.0
H562 H 0.78178 0.85809 0.34006 0.0
H563 H 0.78468 0.95398 0.34621 0.0
H564 H 0.78755 0.01571 0.41256 0.0
H565 H 0.78393 0.92588 0.42735 0.0
C566 C 0.78548 0.83622 0.4033 0.0
C567 C 0.78775 0.79337 0.38862 0.0
C568 C 0.78331 0.88784 0.39522 0.0
C569 C 0.78518 0.80108 0.36595 0.0
C570 C 0.78253 0.85234 0.35776 0.0
C571 C 0.78403 0.94783 0.36393 0.0
C572 C 0.78687 0.99074 0.37836 0.0
C573 C 0.78265 0.89613 0.37218 0.0
C574 C 0.78557 0.98299 0.40121 0.0
C575 C 0.78367 0.93163 0.40963 0.0
H576 H 0.53788 0.69556 0.66664 0.0
H577 H 0.53926 0.76215 0.60104 0.0
H578 H 0.53518 0.67355 0.58521 0.0
H579 H 0.53767 0.5771 0.59018 0.0
H580 H 0.53805 0.51031 0.65572 0.0
H581 H 0.53457 0.59933 0.67158 0.0
C582 C 0.53688 0.69073 0.64888 0.0
C583 C 0.53935 0.73471 0.63492 0.0
C584 C 0.53504 0.63975 0.63998 0.0
C585 C 0.53758 0.72859 0.61203 0.0
C586 C 0.53538 0.67797 0.60301 0.0
C587 C 0.53654 0.58205 0.60792 0.0
C588 C 0.53856 0.53786 0.62188 0.0
C589 C 0.53509 0.63317 0.61682 0.0
C590 C 0.53668 0.54406 0.64475 0.0
C591 C 0.53484 0.5949 0.65379 0.0
H592 H 0.74011 0.75081 0.66043 0.0
H593 H 0.75684 0.72019 0.59384 0.0
H594 H 0.75826 0.62486 0.60136 0.0
H595 H 0.74896 0.54958 0.62456 0.0
H596 H 0.73032 0.58117 0.69034 0.0
H597 H 0.73557 0.67582 0.68564 0.0
C598 C 0.74477 0.72338 0.64793 0.0
C599 C 0.7483 0.74216 0.62666 0.0
C600 C 0.74474 0.66834 0.65205 0.0
C601 C 0.75405 0.70631 0.61039 0.0
C602 C 0.75468 0.65175 0.6146 0.0
C603 C 0.74648 0.57712 0.63799 0.0
C604 C 0.73887 0.55866 0.6575 0.0
C605 C 0.74913 0.63205 0.63499 0.0
C606 C 0.73579 0.59468 0.67489 0.0
C607 C 0.73883 0.64888 0.67228 0.0
H608 H 0.49787 0.4936 0.35563 0.0
H609 H 0.50707 0.47006 0.42496 0.0
H610 H 0.51033 0.37442 0.41917 0.0
H611 H 0.50346 0.2968 0.39593 0.0
H612 H 0.49184 0.32097 0.32717 0.0
H613 H 0.49694 0.41614 0.33092 0.0
C614 C 0.5014 0.46767 0.3692 0.0
C615 C 0.50217 0.48832 0.39063 0.0
C616 C 0.50237 0.41238 0.36591 0.0
C617 C 0.50644 0.45457 0.40828 0.0
C618 C 0.50811 0.39985 0.40502 0.0
C619 C 0.50268 0.32279 0.38168 0.0
C620 C 0.49696 0.30245 0.36147 0.0
C621 C 0.50502 0.37798 0.38415 0.0
C622 C 0.49593 0.33626 0.34303 0.0
C623 C 0.49881 0.39068 0.34515 0.0
H624 H 0.28436 0.44844 0.34619 0.0
H625 H 0.2846 0.50593 0.41326 0.0
H626 H 0.27979 0.41551 0.42684 0.0
H627 H 0.28293 0.31994 0.41954 0.0
H628 H 0.28439 0.26234 0.35251 0.0
H629 H 0.28061 0.35318 0.33878 0.0
C630 C 0.2828 0.44119 0.36374 0.0
C631 C 0.28526 0.4829 0.37883 0.0
C632 C 0.28056 0.3892 0.37132 0.0
C633 C 0.28288 0.47399 0.40146 0.0
C634 C 0.28029 0.42233 0.40918 0.0
C635 C 0.28182 0.3273 0.40194 0.0
C636 C 0.28435 0.28536 0.38694 0.0
C637 C 0.28023 0.37948 0.39429 0.0
C638 C 0.28259 0.29444 0.36425 0.0
C639 C 0.28061 0.34633 0.35644 0.0
H640 H 0.53761 0.18196 0.17378 0.0
H641 H 0.53703 0.24648 0.10784 0.0
H642 H 0.53276 0.15714 0.09268 0.0
H643 H 0.53558 0.06081 0.0981 0.0
H644 H 0.53794 0.99633 0.16399 0.0
H645 H 0.53466 0.08582 0.17944 0.0
C646 C 0.53611 0.17649 0.15611 0.0
C647 C 0.53805 0.22012 0.14182 0.0
C648 C 0.53417 0.12514 0.1476 0.0
C649 C 0.53571 0.21321 0.11907 0.0
C650 C 0.53342 0.16217 0.11043 0.0
C651 C 0.53493 0.06631 0.11586 0.0
C652 C 0.53744 0.02257 0.12997 0.0
C653 C 0.5336 0.11777 0.1245 0.0
C654 C 0.53617 0.02962 0.15287 0.0
C655 C 0.53446 0.08076 0.16167 0.0
H656 H 0.7491 0.06247 0.16821 0.0
H657 H 0.74589 0.99877 0.10222 0.0
H658 H 0.74906 0.08834 0.08694 0.0
H659 H 0.74616 0.1845 0.09294 0.0
H660 H 0.74754 0.24819 0.15906 0.0
H661 H 0.75206 0.15864 0.17385 0.0
C662 C 0.74957 0.06817 0.15046 0.0
C663 C 0.74684 0.02468 0.13629 0.0
C664 C 0.75082 0.11968 0.14193 0.0
C665 C 0.74784 0.0319 0.11338 0.0
C666 C 0.74949 0.0831 0.10469 0.0
C667 C 0.74788 0.1788 0.11056 0.0
C668 C 0.74608 0.22228 0.12502 0.0
C669 C 0.74996 0.12733 0.11887 0.0
C670 C 0.74873 0.21506 0.1477 0.0
C671 C 0.75117 0.16389 0.15613 0.0
H672 H 0.4991 0.81872 0.84494 0.0
H673 H 0.49822 0.75733 0.9114 0.0
H674 H 0.50258 0.84716 0.92595 0.0
H675 H 0.5 0.9432 0.91969 0.0
H676 H 0.49872 1.00467 0.85326 0.0
H677 H 0.5023 0.91451 0.83861 0.0
C678 C 0.5003 0.82493 0.8626 0.0
C679 C 0.49789 0.78206 0.87718 0.0
C680 C 0.50222 0.87663 0.87076 0.0
C681 C 0.49988 0.78997 0.89994 0.0
C682 C 0.50222 0.84132 0.90822 0.0
C683 C 0.50096 0.9369 0.902 0.0
C684 C 0.49865 0.97997 0.88748 0.0
C685 C 0.50239 0.88506 0.8938 0.0
C686 C 0.50033 0.97191 0.86468 0.0
C687 C 0.50221 0.92037 0.85634 0.0
H688 H 0.28382 0.81209 0.91804 0.0
H689 H 0.28753 0.74721 0.85223 0.0
H690 H 0.28478 0.83658 0.83669 0.0
H691 H 0.28829 0.93245 0.84247 0.0
H692 H 0.28668 0.9973 0.90839 0.0
H693 H 0.2813 0.90847 0.92337 0.0
C694 C 0.28354 0.81748 0.90026 0.0
C695 C 0.28636 0.7737 0.88624 0.0
C696 C 0.28262 0.8689 0.89158 0.0
C697 C 0.28554 0.78056 0.8633 0.0
C698 C 0.28415 0.83165 0.85444 0.0
C699 C 0.28634 0.92718 0.86007 0.0
C700 C 0.28835 0.97062 0.87446 0.0
C701 C 0.28378 0.87609 0.8685 0.0
C702 C 0.28536 0.96409 0.89711 0.0
C703 C 0.28242 0.91334 0.90565 0.0
H704 H 1.01608 0.58095 0.97495 0.0
H705 H 0.97289 0.49496 1.00091 0.0
H706 H 0.99154 0.44835 0.02682 0.0
H707 H 0.02023 0.43084 0.04184 0.0
H708 H 0.06341 0.51717 0.01608 0.0
H709 H 0.04478 0.56362 0.99006 0.0
C710 C 1.01069 0.55275 0.98655 0.0
C711 C 0.99304 0.54204 0.98613 0.0
C712 C 0.02158 0.52506 1.0011 0.0
C713 C 0.98638 0.50443 1.00099 0.0
C714 C 0.99707 0.47735 0.0157 0.0
C715 C 0.02562 0.45904 0.03024 0.0
C716 C 0.04327 0.46986 0.03072 0.0
C717 C 1.01473 0.48676 0.01571 0.0
C718 C 0.04993 0.50758 0.01591 0.0
C719 C 0.03924 0.53457 1.00116 0.0
H720 H 0.29618 0.78199 0.98704 0.0
H721 H 0.27342 0.62589 0.98545 0.0
H722 H 0.25081 0.65623 0.01045 0.0
H723 H 0.23733 0.72723 0.03252 0.0
H724 H 0.26017 0.88318 0.0343 0.0
H725 H 0.28265 0.85308 0.00904 0.0
C726 C 0.28642 0.75428 0.99239 0.0
C727 C 0.28667 0.7014 0.98451 0.0
C728 C 0.27324 0.77235 1.00644 0.0
C729 C 0.27369 0.66655 0.99138 0.0
C730 C 0.26066 0.68405 1.00555 0.0
C731 C 0.24705 0.755 0.02711 0.0
C732 C 0.24689 0.80774 0.03515 0.0
C733 C 0.2602 0.737 0.013 0.0
C734 C 0.25983 0.84264 0.02825 0.0
C735 C 0.2728 0.82527 0.01394 0.0
H736 H 0.04871 0.73239 0.23098 0.0
H737 H 0.02588 0.88876 0.22872 0.0
H738 H 1.00332 0.85958 0.25394 0.0
H739 H 0.98974 0.78922 0.27605 0.0
H740 H 1.01251 0.63275 0.27821 0.0
H741 H 0.03518 0.6621 0.25319 0.0
C742 C 0.03897 0.76045 0.23628 0.0
C743 C 0.03916 0.81304 0.22812 0.0
C744 C 0.02579 0.74299 0.25037 0.0
C745 C 0.0262 0.84833 0.23488 0.0
C746 C 1.01319 0.83149 0.24916 0.0
C747 C 0.9995 0.7612 0.27081 0.0
C748 C 0.99925 0.70852 0.27886 0.0
C749 C 1.01273 0.77872 0.25678 0.0
C750 C 1.01224 0.67327 0.27215 0.0
C751 C 0.02531 0.6902 0.25797 0.0
H752 H 0.26823 0.434 0.22795 0.0
H753 H 0.22486 0.52506 0.25075 0.0
H754 H 0.24302 0.5722 0.27703 0.0
H755 H 0.27135 0.58844 0.29336 0.0
H756 H 0.31476 0.49769 0.27043 0.0
H757 H 0.29661 0.45073 0.2441 0.0
C758 C 0.26269 0.46345 0.23896 0.0
C759 C 0.24513 0.47535 0.23757 0.0
C760 C 0.27333 0.4915 0.25367 0.0
C761 C 0.23828 0.51464 0.25161 0.0
C762 C 0.2487 0.542 0.26652 0.0
C763 C 0.27691 0.55914 0.28231 0.0
C764 C 0.29448 0.54718 0.28374 0.0
C765 C 0.26629 0.53127 0.26752 0.0
C766 C 0.30134 0.50816 0.26958 0.0
C767 C 0.29093 0.48087 0.25463 0.0
H768 H 0.76879 0.17592 0.97303 0.0
H769 H 0.81228 0.25932 0.9994 0.0
H770 H 0.79369 0.30728 0.02513 0.0
H771 H 0.76497 0.32654 0.03991 0.0
H772 H 0.72147 0.24327 0.01347 0.0
H773 H 0.74005 0.19546 0.9877 0.0
C774 C 0.77424 0.20384 0.9847 0.0
C775 C 0.79197 0.21339 0.98447 0.0
C776 C 0.76339 0.23239 0.99909 0.0
C777 C 0.79873 0.25072 0.99936 0.0
C778 C 0.78807 0.27857 0.01396 0.0
C779 C 0.75951 0.29871 0.02822 0.0
C780 C 0.74178 0.28908 0.02847 0.0
C781 C 0.77035 0.27027 0.01378 0.0
C782 C 0.73502 0.25191 0.01351 0.0
C783 C 0.74567 0.22413 0.99889 0.0
H784 H 1.01771 0.17732 0.79018 0.0
H785 H 0.97414 0.26019 0.76338 0.0
H786 H 0.99271 0.30755 0.73759 0.0
H787 H 0.02145 0.32647 0.72288 0.0
H788 H 0.06503 0.24385 0.74982 0.0
H789 H 0.04645 0.19656 0.77561 0.0
C790 C 1.01224 0.205 0.77842 0.0
C791 C 0.99449 0.21455 0.77854 0.0
C792 C 0.02308 0.23322 0.76399 0.0
C793 C 0.98771 0.25158 0.76351 0.0
C794 C 0.99835 0.27908 0.74888 0.0
C795 C 0.02693 0.29888 0.73468 0.0
C796 C 0.04467 0.28929 0.73455 0.0
C797 C 1.01609 0.27077 0.74915 0.0
C798 C 0.05146 0.25246 0.74967 0.0
C799 C 0.04081 0.22498 0.7643 0.0
H800 H 0.76417 0.42759 0.72166 0.0
H801 H 0.72042 0.48754 0.75743 0.0
H802 H 0.73923 0.53587 0.78247 0.0
H803 H 0.7681 0.56306 0.79382 0.0
H804 H 0.81192 0.50132 0.75888 0.0
H805 H 0.79313 0.45299 0.73363 0.0
C806 C 0.75874 0.45036 0.73519 0.0
C807 C 0.74085 0.45341 0.73771 0.0
C808 C 0.76966 0.47899 0.74935 0.0
C809 C 0.73411 0.48398 0.75516 0.0
C810 C 0.74487 0.51214 0.76938 0.0
C811 C 0.77353 0.53987 0.78041 0.0
C812 C 0.7914 0.53672 0.77797 0.0
C813 C 0.76265 0.51068 0.76643 0.0
C814 C 0.79822 0.5051 0.76092 0.0
C815 C 0.78747 0.47702 0.74661 0.0
H816 H 0.98785 0.97884 0.48445 0.0
H817 H 1.01226 0.13247 0.48241 0.0
H818 H 0.03487 0.09967 0.50672 0.0
H819 H 0.04796 0.02701 0.52805 0.0
H820 H 0.02355 0.87339 0.53009 0.0
H821 H 1.00092 0.90623 0.50583 0.0
C822 C 0.99796 1.00551 0.48958 0.0
C823 C 0.99821 0.05838 0.48176 0.0
C824 C 1.01114 0.98599 0.50316 0.0
C825 C 1.01162 0.09186 0.48831 0.0
C826 C 0.02465 0.07295 0.50207 0.0
C827 C 0.03784 1.00036 0.52293 0.0
C828 C 0.03761 0.94747 0.53073 0.0
C829 C 0.02465 0.01991 0.50938 0.0
C830 C 0.02418 0.91401 0.5242 0.0
C831 C 1.01114 0.93294 0.51047 0.0
H832 H 0.3006 0.29049 0.48333 0.0
H833 H 0.27556 0.13786 0.48107 0.0
H834 H 0.25311 0.17127 0.5056 0.0
H835 H 0.24025 0.2442 0.52706 0.0
H836 H 0.2653 0.39672 0.52965 0.0
H837 H 0.28785 0.36334 0.50516 0.0
C838 C 0.2904 0.26416 0.48848 0.0
C839 C 0.28992 0.21139 0.48049 0.0
C840 C 0.2773 0.28405 0.50223 0.0
C841 C 0.27639 0.17836 0.48709 0.0
C842 C 0.26344 0.19763 0.50097 0.0
C843 C 0.25048 0.27053 0.52201 0.0
C844 C 0.25091 0.32328 0.52998 0.0
C845 C 0.26364 0.25061 0.50839 0.0
C846 C 0.26451 0.35625 0.52359 0.0
C847 C 0.2775 0.33698 0.50973 0.0
H848 H 0.26644 0.92038 0.72166 0.0
H849 H 0.22213 0.9797 0.75646 0.0
H850 H 0.2405 0.02877 0.78176 0.0
H851 H 0.26912 0.05693 0.79359 0.0
H852 H 0.31354 0.99557 0.75985 0.0
H853 H 0.29521 0.94644 0.73428 0.0
C854 C 0.2608 0.94316 0.73505 0.0
C855 C 0.24287 0.94588 0.73719 0.0
C856 C 0.27147 0.97218 0.74939 0.0
C857 C 0.23585 0.97643 0.75446 0.0
C858 C 0.24635 1.00501 0.76884 0.0
C859 C 0.27478 0.03364 0.78037 0.0
C860 C 0.29268 0.03088 0.77833 0.0
C861 C 0.26416 1.00395 0.76624 0.0
C862 C 0.29981 0.99908 0.76154 0.0
C863 C 0.28932 0.97054 0.74706 0.0
H864 H 0.80002 0.79856 0.4869 0.0
H865 H 0.77547 0.64523 0.48406 0.0
H866 H 0.75266 0.67789 0.50823 0.0
H867 H 0.73942 0.75028 0.52969 0.0
H868 H 0.76401 0.9035 0.53277 0.0
H869 H 0.78683 0.87094 0.50853 0.0
C870 C 0.78984 0.77192 0.49183 0.0
C871 C 0.78962 0.71916 0.4838 0.0
C872 C 0.77654 0.79137 0.50537 0.0
C873 C 0.7761 0.68574 0.49011 0.0
C874 C 0.76296 0.70458 0.5038 0.0
C875 C 0.74962 0.77693 0.5248 0.0
C876 C 0.74983 0.82964 0.53287 0.0
C877 C 0.76293 0.7575 0.5113 0.0
C878 C 0.76338 0.86304 0.52665 0.0
C879 C 0.77653 0.84425 0.51294 0.0
H880 H 0.766 0.92744 0.22551 0.0
H881 H 0.72245 0.0175 0.24846 0.0
H882 H 0.7407 0.0671 0.2738 0.0
H883 H 0.76916 0.08604 0.28917 0.0
H884 H 0.81271 0.99578 0.26636 0.0
H885 H 0.79447 0.94626 0.24095 0.0
C886 C 0.76045 0.95722 0.23635 0.0
C887 C 0.74281 0.96818 0.23524 0.0
C888 C 0.77112 0.98659 0.25056 0.0
C889 C 0.73593 0.0078 0.2491 0.0
C890 C 0.7464 0.03658 0.26347 0.0
C891 C 0.77472 0.05626 0.27834 0.0
C892 C 0.79235 0.04524 0.27949 0.0
C893 C 0.76405 0.02686 0.26414 0.0
C894 C 0.79923 1.00554 0.26567 0.0
C895 C 0.78877 0.97681 0.25126 0.0
H896 H 0.51663 0.59725 0.46882 0.0
H897 H 0.47218 0.51903 0.49547 0.0
H898 H 0.49022 0.46906 0.52105 0.0
H899 H 0.51875 0.44582 0.53535 0.0
H900 H 0.56317 0.5243 0.5088 0.0
H901 H 0.54512 0.57473 0.48338 0.0
C902 C 0.51084 0.57014 0.48054 0.0
C903 C 0.49301 0.56255 0.48039 0.0
C904 C 0.52136 0.5404 0.49485 0.0
C905 C 0.48582 0.52619 0.49538 0.0
C906 C 0.49616 0.49714 0.50987 0.0
C907 C 0.52451 0.47322 0.52372 0.0
C908 C 0.54235 0.48058 0.52378 0.0
C909 C 0.51398 0.50325 0.50953 0.0
C910 C 0.54952 0.51733 0.50895 0.0
C911 C 0.53918 0.5466 0.49454 0.0
H912 H 0.54766 0.73111 0.73541 0.0
H913 H 0.52354 0.88543 0.73178 0.0
H914 H 0.5006 0.85463 0.75605 0.0
H915 H 0.48719 0.78363 0.77798 0.0
H916 H 0.51132 0.62931 0.78165 0.0
H917 H 0.53421 0.66001 0.75727 0.0
C918 C 0.53753 0.75835 0.74018 0.0
C919 C 0.53749 0.81086 0.73193 0.0
C920 C 0.52416 0.73997 0.75377 0.0
C921 C 0.52404 0.84508 0.73801 0.0
C922 C 0.51082 0.82731 0.75176 0.0
C923 C 0.4973 0.75634 0.77319 0.0
C924 C 0.49737 0.70389 0.7815 0.0
C925 C 0.51065 0.77468 0.75955 0.0
C926 C 0.5108 0.66961 0.77537 0.0
C927 C 0.52399 0.68733 0.76157 0.0
H928 H 0.515 0.17423 0.2954 0.0
H929 H 0.47059 0.23965 0.26314 0.0
H930 H 0.48892 0.28747 0.23725 0.0
H931 H 0.51762 0.31283 0.22429 0.0
H932 H 0.56203 0.24629 0.25606 0.0
H933 H 0.5437 0.19803 0.28192 0.0
C934 C 0.5093 0.19802 0.28242 0.0
C935 C 0.49138 0.20275 0.28113 0.0
C936 C 0.51996 0.22649 0.26785 0.0
C937 C 0.4843 0.23474 0.26443 0.0
C938 C 0.49479 0.26262 0.24974 0.0
C939 C 0.52329 0.28857 0.23714 0.0
C940 C 0.5412 0.28401 0.23849 0.0
C941 C 0.51264 0.25955 0.25152 0.0
C942 C 0.5483 0.25112 0.25485 0.0
C943 C 0.53782 0.22308 0.26951 0.0
H944 H 0.48733 0.97726 0.98646 0.0
H945 H 0.51144 0.13133 0.98408 0.0
H946 H 0.53409 0.0993 0.0085 0.0
H947 H 0.54732 0.02717 0.03 0.0
H948 H 0.52322 0.8731 0.03235 0.0
H949 H 0.50053 0.90519 0.008 0.0
C950 C 0.49738 1.0042 0.99154 0.0
C951 C 0.49753 0.05696 0.9836 0.0
C952 C 0.51059 0.98511 1.00518 0.0
C953 C 0.51087 0.0908 0.99009 0.0
C954 C 0.52393 0.07232 1.0039 0.0
C955 C 0.53726 1.00027 0.02494 0.0
C956 C 0.53712 0.94747 0.03284 0.0
C957 C 0.52403 0.01938 0.01133 0.0
C958 C 0.52377 0.91366 0.02638 0.0
C959 C 0.5107 0.93216 0.01259 0.0
H960 H 0.1773 0.39571 0.11796 0.0
H961 H 0.16491 0.40157 0.1874 0.0
H962 H 0.13442 0.40083 0.17848 0.0
H963 H 0.11131 0.3991 0.15099 0.0
H964 H 0.12377 0.39707 0.08155 0.0
H965 H 0.15423 0.39571 0.0905 0.0
C966 C 0.16796 0.3966 0.13121 0.0
C967 C 0.17347 0.39837 0.15339 0.0
C968 C 0.15045 0.39691 0.12595 0.0
C969 C 0.1611 0.40016 0.17023 0.0
C970 C 0.14365 0.39969 0.16513 0.0
C971 C 0.12066 0.39813 0.13777 0.0
C972 C 0.11517 0.39787 0.11557 0.0
C973 C 0.13818 0.39812 0.14305 0.0
C974 C 0.12756 0.39726 0.09873 0.0
C975 C 0.145 0.39645 0.10386 0.0
H976 H 0.123 0.86479 0.1695 0.0
H977 H 0.10308 0.86342 0.10312 0.0
H978 H 0.13194 0.86219 0.08816 0.0
H979 H 0.16315 0.8615 0.09361 0.0
H980 H 0.18307 0.86592 0.15997 0.0
H981 H 0.15421 0.866 0.17494 0.0
C982 C 0.12497 0.8642 0.15178 0.0
C983 C 0.11077 0.86421 0.13757 0.0
C984 C 0.14174 0.86408 0.14311 0.0
C985 C 0.11367 0.86369 0.11459 0.0
C986 C 0.13024 0.86287 0.10592 0.0
C987 C 0.16118 0.86247 0.11133 0.0
C988 C 0.17538 0.8637 0.12552 0.0
C989 C 0.14441 0.86308 0.11999 0.0
C990 C 0.17247 0.86519 0.14851 0.0
C991 C 0.15591 0.86512 0.15718 0.0
H992 H 0.8594 0.61877 0.89632 0.0
H993 H 0.87342 0.61643 0.82736 0.0
H994 H 0.90366 0.61875 0.83746 0.0
H995 H 0.9261 0.61952 0.86582 0.0
H996 H 0.91206 0.61796 0.93477 0.0
H997 H 0.88182 0.6192 0.92466 0.0
C998 C 0.86904 0.61909 0.88343 0.0
C999 C 0.86406 0.61764 0.86104 0.0
C1000 C 0.88641 0.61961 0.88937 0.0
C1001 C 0.87682 0.61753 0.84468 0.0
C1002 C 0.89413 0.61886 0.85046 0.0
C1003 C 0.91645 0.61977 0.87869 0.0
C1004 C 0.92143 0.61887 0.90109 0.0
C1005 C 0.89907 0.61966 0.87275 0.0
C1006 C 0.90867 0.61865 0.91745 0.0
C1007 C 0.89135 0.61936 0.91166 0.0
H1008 H 0.92627 0.13372 0.89742 0.0
H1009 H 0.91344 0.13576 0.82816 0.0
H1010 H 0.88303 0.13351 0.83756 0.0
H1011 H 0.86012 0.13262 0.86539 0.0
H1012 H 0.87295 0.1346 0.93465 0.0
H1013 H 0.90336 0.13353 0.92525 0.0
C1014 C 0.91685 0.13337 0.88432 0.0
C1015 C 0.92221 0.13466 0.86206 0.0
C1016 C 0.89938 0.13289 0.88986 0.0
C1017 C 0.90975 0.13478 0.8454 0.0
C1018 C 0.89234 0.13347 0.85078 0.0
C1019 C 0.86954 0.13249 0.87849 0.0
C1020 C 0.86418 0.13342 0.90076 0.0
C1021 C 0.88701 0.13272 0.87295 0.0
C1022 C 0.87664 0.13386 0.91742 0.0
C1023 C 0.89406 0.13324 0.91203 0.0
H1024 H 0.17546 0.89224 0.61632 0.0
H1025 H 0.1621 0.85927 0.68413 0.0
H1026 H 0.13197 0.85414 0.67396 0.0
H1027 H 0.10937 0.86215 0.64625 0.0
H1028 H 0.12242 0.89782 0.57859 0.0
H1029 H 0.15275 0.8985 0.58832 0.0
C1030 C 0.166 0.88355 0.6289 0.0
C1031 C 0.17113 0.87616 0.65103 0.0
C1032 C 0.14862 0.8813 0.62297 0.0
C1033 C 0.1586 0.8652 0.66702 0.0
C1034 C 0.14133 0.86229 0.66121 0.0
C1035 C 0.1188 0.86978 0.63352 0.0
C1036 C 0.11351 0.87995 0.61165 0.0
C1037 C 0.13619 0.87075 0.63929 0.0
C1038 C 0.12604 0.88988 0.59551 0.0
C1039 C 0.14341 0.89034 0.60109 0.0
H1040 H 0.11285 0.37292 0.61519 0.0
H1041 H 0.12528 0.36787 0.68456 0.0
H1042 H 0.15568 0.37376 0.67553 0.0
H1043 H 0.17871 0.37862 0.64805 0.0
H1044 H 0.16644 0.3803 0.57861 0.0
H1045 H 0.13596 0.37759 0.58763 0.0
C1046 C 0.12217 0.37336 0.62839 0.0
C1047 C 0.11669 0.3701 0.65059 0.0
C1048 C 0.13967 0.3761 0.62307 0.0
C1049 C 0.12905 0.3703 0.66738 0.0
C1050 C 0.14646 0.37369 0.66221 0.0
C1051 C 0.16941 0.37873 0.63481 0.0
C1052 C 0.17496 0.3799 0.61261 0.0
C1053 C 0.15192 0.3764 0.64012 0.0
C1054 C 0.16262 0.37948 0.5958 0.0
C1055 C 0.14516 0.3779 0.60096 0.0
H1056 H 0.86034 0.12486 0.39843 0.0
H1057 H 0.87241 0.12176 0.32887 0.0
H1058 H 0.90292 0.12142 0.33755 0.0
H1059 H 0.92613 0.1213 0.36482 0.0
H1060 H 0.91406 0.12079 0.43439 0.0
H1061 H 0.88355 0.12322 0.42572 0.0
C1062 C 0.86961 0.12436 0.38511 0.0
C1063 C 0.86401 0.12366 0.36297 0.0
C1064 C 0.88714 0.12342 0.39023 0.0
C1065 C 0.87629 0.12237 0.34602 0.0
C1066 C 0.89376 0.1222 0.35099 0.0
C1067 C 0.91685 0.12193 0.37814 0.0
C1068 C 0.92246 0.12115 0.40028 0.0
C1069 C 0.89933 0.12264 0.37303 0.0
C1070 C 0.91018 0.12138 0.41724 0.0
C1071 C 0.89271 0.12282 0.41228 0.0
H1072 H 0.92729 0.65253 0.39719 0.0
H1073 H 0.91435 0.65565 0.32797 0.0
H1074 H 0.88394 0.65637 0.33751 0.0
H1075 H 0.86106 0.65651 0.36546 0.0
H1076 H 0.87408 0.65691 0.43467 0.0
H1077 H 0.90447 0.65443 0.42511 0.0
C1078 C 0.91786 0.65316 0.38412 0.0
C1079 C 0.92319 0.65371 0.36182 0.0
C1080 C 0.90039 0.65427 0.38974 0.0
C1081 C 0.91069 0.65516 0.34522 0.0
C1082 C 0.89327 0.65554 0.35068 0.0
C1083 C 0.87052 0.65587 0.37852 0.0
C1084 C 0.8652 0.6566 0.40083 0.0
C1085 C 0.88798 0.65512 0.37288 0.0
C1086 C 0.87773 0.65636 0.41742 0.0
C1087 C 0.89512 0.65488 0.41194 0.0
H1088 H 0.60809 0.37309 0.64223 0.0
H1089 H 0.62312 0.4092 0.57529 0.0
H1090 H 0.65317 0.40829 0.58638 0.0
H1091 H 0.67508 0.4009 0.61539 0.0
H1092 H 0.65974 0.36764 0.68248 0.0
H1093 H 0.62989 0.36364 0.67091 0.0
C1094 C 0.61789 0.38045 0.62994 0.0
C1095 C 0.61324 0.39127 0.60788 0.0
C1096 C 0.63512 0.38055 0.63649 0.0
C1097 C 0.62624 0.40079 0.59234 0.0
C1098 C 0.64345 0.40035 0.5987 0.0
C1099 C 0.66524 0.39237 0.62751 0.0
C1100 C 0.66974 0.38461 0.64985 0.0
C1101 C 0.64803 0.39081 0.62078 0.0
C1102 C 0.65673 0.37385 0.66523 0.0
C1103 C 0.63963 0.3716 0.65861 0.0
H1104 H 0.61133 0.88245 0.61682 0.0
H1105 H 0.62297 0.87162 0.68629 0.0
H1106 H 0.65354 0.8759 0.67781 0.0
H1107 H 0.67693 0.8817 0.65066 0.0
H1108 H 0.6652 0.8889 0.58113 0.0
H1109 H 0.63466 0.88715 0.58971 0.0
C1110 C 0.62051 0.88124 0.63019 0.0
C1111 C 0.61476 0.87697 0.65224 0.0
C1112 C 0.63807 0.88304 0.62516 0.0
C1113 C 0.62695 0.87491 0.66921 0.0
C1114 C 0.64445 0.8774 0.66435 0.0
C1115 C 0.66772 0.88319 0.63734 0.0
C1116 C 0.67345 0.88573 0.61522 0.0
C1117 C 0.65016 0.88138 0.64239 0.0
C1118 C 0.66124 0.88699 0.59825 0.0
C1119 C 0.64375 0.88599 0.60317 0.0
H1120 H 0.41383 0.62878 0.41931 0.0
H1121 H 0.43417 0.63732 0.35314 0.0
H1122 H 0.40538 0.63412 0.338 0.0
H1123 H 0.37413 0.62749 0.34333 0.0
H1124 H 0.35397 0.62177 0.40967 0.0
H1125 H 0.38272 0.62515 0.42467 0.0
C1126 C 0.41198 0.63016 0.40159 0.0
C1127 C 0.42626 0.63321 0.38749 0.0
C1128 C 0.3953 0.62861 0.39287 0.0
C1129 C 0.4235 0.63508 0.36451 0.0
C1130 C 0.40699 0.6331 0.35576 0.0
C1131 C 0.37604 0.62698 0.36105 0.0
C1132 C 0.36179 0.62432 0.37524 0.0
C1133 C 0.39275 0.62958 0.36975 0.0
C1134 C 0.36459 0.62404 0.39822 0.0
C1135 C 0.38109 0.62589 0.40691 0.0
H1136 H 0.4119 0.13348 0.3451 0.0
H1137 H 0.43339 0.15195 0.41018 0.0
H1138 H 0.40482 0.15348 0.42629 0.0
H1139 H 0.3734 0.15199 0.42195 0.0
H1140 H 0.35227 0.1315 0.35671 0.0
H1141 H 0.38078 0.12837 0.34092 0.0
C1142 C 0.41037 0.13758 0.36281 0.0
C1143 C 0.42487 0.14274 0.37629 0.0
C1144 C 0.39383 0.13828 0.37208 0.0
C1145 C 0.42253 0.14784 0.39928 0.0
C1146 C 0.40614 0.14887 0.40858 0.0
C1147 C 0.37504 0.1467 0.4043 0.0
C1148 C 0.36057 0.14216 0.39065 0.0
C1149 C 0.39165 0.14453 0.39514 0.0
C1150 C 0.36305 0.13507 0.36777 0.0
C1151 C 0.37942 0.13332 0.35861 0.0
H1152 H 0.67525 0.8841 0.11651 0.0
H1153 H 0.66265 0.88559 0.18592 0.0
H1154 H 0.63221 0.88353 0.17687 0.0
H1155 H 0.60921 0.88255 0.14933 0.0
H1156 H 0.62176 0.88512 0.07991 0.0
H1157 H 0.65222 0.88431 0.08894 0.0
C1158 C 0.66588 0.88369 0.12971 0.0
C1159 C 0.67131 0.8847 0.15193 0.0
C1160 C 0.64838 0.88333 0.12438 0.0
C1161 C 0.6589 0.8848 0.16873 0.0
C1162 C 0.64147 0.88359 0.16355 0.0
C1163 C 0.61858 0.88264 0.13611 0.0
C1164 C 0.61313 0.88359 0.11391 0.0
C1165 C 0.63607 0.883 0.14144 0.0
C1166 C 0.62553 0.88436 0.0971 0.0
C1167 C 0.64297 0.88387 0.10227 0.0
H1168 H 0.67509 0.36651 0.14931 0.0
H1169 H 0.66112 0.3663 0.08042 0.0
H1170 H 0.63088 0.36764 0.09065 0.0
H1171 H 0.60843 0.36687 0.11907 0.0
H1172 H 0.62237 0.36328 0.18796 0.0
H1173 H 0.65262 0.36553 0.17776 0.0
C1174 C 0.66546 0.36709 0.13648 0.0
C1175 C 0.67045 0.36651 0.11407 0.0
C1176 C 0.64808 0.36705 0.14249 0.0
C1177 C 0.65771 0.36672 0.09776 0.0
C1178 C 0.6404 0.36749 0.10361 0.0
C1179 C 0.61805 0.36689 0.13192 0.0
C1180 C 0.61305 0.3651 0.15432 0.0
C1181 C 0.63543 0.36739 0.12592 0.0
C1182 C 0.62578 0.36464 0.17064 0.0
C1183 C 0.6431 0.36593 0.1648 0.0
H1184 H 0.4266 0.11835 0.86554 0.0
H1185 H 0.41325 0.1153 0.93471 0.0
H1186 H 0.38291 0.11455 0.92509 0.0
H1187 H 0.36023 0.11343 0.8971 0.0
H1188 H 0.3736 0.1128 0.82793 0.0
H1189 H 0.40392 0.11635 0.83755 0.0
C1190 C 0.41708 0.11781 0.87857 0.0
C1191 C 0.42227 0.11715 0.90088 0.0
C1192 C 0.39966 0.1166 0.87291 0.0
C1193 C 0.40969 0.11585 0.91745 0.0
C1194 C 0.39232 0.11543 0.91194 0.0
C1195 C 0.36974 0.11433 0.88407 0.0
C1196 C 0.36456 0.11309 0.86176 0.0
C1197 C 0.38716 0.11563 0.88973 0.0
C1198 C 0.37715 0.11372 0.84519 0.0
C1199 C 0.39451 0.11578 0.8507 0.0
H1200 H 0.4253 0.64511 0.89942 0.0
H1201 H 0.4126 0.64339 0.83011 0.0
H1202 H 0.38219 0.64099 0.83944 0.0
H1203 H 0.35924 0.6398 0.86716 0.0
H1204 H 0.37178 0.64532 0.93647 0.0
H1205 H 0.40226 0.64583 0.9272 0.0
C1206 C 0.41591 0.64401 0.8863 0.0
C1207 C 0.42132 0.64411 0.86402 0.0
C1208 C 0.39841 0.64337 0.8918 0.0
C1209 C 0.40888 0.64332 0.84734 0.0
C1210 C 0.39146 0.64189 0.85269 0.0
C1211 C 0.3686 0.64088 0.88031 0.0
C1212 C 0.36314 0.64215 0.90256 0.0
C1213 C 0.38609 0.64192 0.87484 0.0
C1214 C 0.37555 0.64425 0.91926 0.0
C1215 C 0.39299 0.64451 0.91395 0.0
H1216 H 0.04528 0.05444 0.16384 0.0
H1217 H 0.04143 0.02467 0.09384 0.0
H1218 H 0.04087 0.12009 0.08665 0.0
H1219 H 0.04431 0.21184 0.0999 0.0
H1220 H 0.04882 0.24145 0.16984 0.0
H1221 H 0.04614 0.14656 0.17732 0.0
C1222 C 0.04404 0.0688 0.14704 0.0
C1223 C 0.04356 0.03238 0.12942 0.0
C1224 C 0.044 0.12384 0.14295 0.0
C1225 C 0.04193 0.05176 0.10774 0.0
C1226 C 0.04166 0.1064 0.10358 0.0
C1227 C 0.04447 0.19763 0.1168 0.0
C1228 C 0.04694 0.23373 0.13424 0.0
C1229 C 0.04313 0.1428 0.12101 0.0
C1230 C 0.04706 0.21457 0.15605 0.0
C1231 C 0.04555 0.16023 0.16038 0.0
H1232 H 0.2412 0.05312 0.10073 0.0
H1233 H 0.24569 0.01953 0.17033 0.0
H1234 H 0.24687 0.11449 0.17842 0.0
H1235 H 0.24382 0.20715 0.16613 0.0
H1236 H 0.23859 0.24065 0.0966 0.0
H1237 H 0.24066 0.146 0.08815 0.0
C1238 C 0.24271 0.06654 0.11763 0.0
C1239 C 0.24321 0.0292 0.13488 0.0
C1240 C 0.2431 0.12136 0.12224 0.0
C1241 C 0.24517 0.04735 0.15671 0.0
C1242 C 0.2458 0.10173 0.16139 0.0
C1243 C 0.24338 0.19382 0.14911 0.0
C1244 C 0.2409 0.23098 0.13208 0.0
C1245 C 0.24434 0.13912 0.14435 0.0
C1246 C 0.24039 0.21295 0.11009 0.0
C1247 C 0.24153 0.15874 0.10521 0.0
H1248 H 0.99138 0.78265 0.8586 0.0
H1249 H 0.99004 0.7906 0.92977 0.0
H1250 H 0.99183 0.88751 0.92818 0.0
H1251 H 0.99085 0.97009 0.90656 0.0
H1252 H 0.99161 0.96214 0.83538 0.0
H1253 H 0.99317 0.86516 0.83704 0.0
C1254 C 0.99172 0.80548 0.8738 0.0
C1255 C 0.9904 0.77931 0.89428 0.0
C1256 C 0.99253 0.86128 0.87276 0.0
C1257 C 0.99097 0.80961 0.91378 0.0
C1258 C 0.99193 0.86511 0.91289 0.0
C1259 C 0.9916 0.94724 0.89139 0.0
C1260 C 0.99094 0.97344 0.87087 0.0
C1261 C 0.99227 0.89141 0.89246 0.0
C1262 C 0.99203 0.9431 0.8514 0.0
C1263 C 0.99286 0.88757 0.85234 0.0
H1264 H 0.79521 0.96816 0.85629 0.0
H1265 H 0.79498 0.96008 0.92746 0.0
H1266 H 0.79312 0.86318 0.9257 0.0
H1267 H 0.79448 0.78062 0.90401 0.0
H1268 H 0.79528 0.7887 0.83284 0.0
H1269 H 0.7938 0.88569 0.83458 0.0
C1270 C 0.79452 0.94531 0.87144 0.0
C1271 C 0.79541 0.97143 0.89199 0.0
C1272 C 0.79366 0.88951 0.87031 0.0
C1273 C 0.79438 0.9411 0.91142 0.0
C1274 C 0.79338 0.88561 0.91043 0.0
C1275 C 0.79408 0.8035 0.88885 0.0
C1276 C 0.79516 0.77732 0.86832 0.0
C1277 C 0.79346 0.85935 0.88997 0.0
C1278 C 0.79453 0.80771 0.84887 0.0
C1279 C 0.79375 0.86325 0.84985 0.0
H1280 H 0.04377 0.69681 0.59902 0.0
H1281 H 0.04495 0.733 0.66866 0.0
H1282 H 0.0437 0.63844 0.67743 0.0
H1283 H 0.04569 0.54542 0.66531 0.0
H1284 H 0.04564 0.50926 0.59564 0.0
H1285 H 0.04283 0.60358 0.58696 0.0
C1286 C 0.04344 0.68406 0.61611 0.0
C1287 C 0.04464 0.7219 0.63313 0.0
C1288 C 0.04308 0.62948 0.62107 0.0
C1289 C 0.04418 0.70469 0.65521 0.0
C1290 C 0.04351 0.65056 0.66027 0.0
C1291 C 0.04476 0.55808 0.64824 0.0
C1292 C 0.04607 0.52037 0.63117 0.0
C1293 C 0.04348 0.61255 0.64333 0.0
C1294 C 0.04481 0.53748 0.60913 0.0
C1295 C 0.04324 0.59148 0.60412 0.0
H1296 H 0.24468 0.56649 0.60237 0.0
H1297 H 0.24028 0.52875 0.67163 0.0
H1298 H 0.24114 0.62311 0.68091 0.0
H1299 H 0.24047 0.71688 0.66927 0.0
H1300 H 0.24434 0.75489 0.59999 0.0
H1301 H 0.24656 0.66047 0.59096 0.0
C1302 C 0.24418 0.57883 0.61952 0.0
C1303 C 0.2423 0.5403 0.63623 0.0
C1304 C 0.24448 0.63351 0.62479 0.0
C1305 C 0.24165 0.55729 0.65837 0.0
C1306 C 0.24211 0.61142 0.66373 0.0
C1307 C 0.24208 0.70463 0.65222 0.0
C1308 C 0.24213 0.74321 0.63536 0.0
C1309 C 0.24312 0.64998 0.64706 0.0
C1310 C 0.24421 0.7263 0.61336 0.0
C1311 C 0.24542 0.67214 0.60813 0.0
H1312 H 0.99089 0.46087 0.34753 0.0
H1313 H 0.99031 0.49603 0.41728 0.0
H1314 H 0.99188 0.40134 0.42577 0.0
H1315 H 0.99061 0.30829 0.41347 0.0
H1316 H 0.9902 0.27313 0.34372 0.0
H1317 H 0.992 0.36776 0.33522 0.0
C1318 C 0.99137 0.44787 0.36458 0.0
C1319 C 0.99034 0.48553 0.38172 0.0
C1320 C 0.99197 0.39319 0.36939 0.0
C1321 C 0.99098 0.46793 0.40374 0.0
C1322 C 0.99184 0.41371 0.40864 0.0
C1323 C 0.99118 0.32126 0.39642 0.0
C1324 C 0.99013 0.28364 0.37928 0.0
C1325 C 0.99192 0.37592 0.39161 0.0
C1326 C 0.99088 0.30121 0.35726 0.0
C1327 C 0.99188 0.3554 0.35236 0.0
H1328 H 0.79614 0.31562 0.35011 0.0
H1329 H 0.79763 0.28056 0.41981 0.0
H1330 H 0.79626 0.37529 0.4284 0.0
H1331 H 0.7974 0.46835 0.41612 0.0
H1332 H 0.79684 0.50336 0.34639 0.0
H1333 H 0.7949 0.40872 0.3379 0.0
C1334 C 0.7959 0.32865 0.36718 0.0
C1335 C 0.79713 0.29099 0.38426 0.0
C1336 C 0.7954 0.38335 0.37204 0.0
C1337 C 0.79681 0.30865 0.40631 0.0
C1338 C 0.79606 0.36289 0.41127 0.0
C1339 C 0.79659 0.45534 0.39908 0.0
C1340 C 0.79741 0.49293 0.38194 0.0
C1341 C 0.79577 0.40066 0.39426 0.0
C1342 C 0.79635 0.47531 0.35994 0.0
C1343 C 0.79528 0.42111 0.35504 0.0
H1344 H 0.54394 0.06169 0.66171 0.0
H1345 H 0.5468 0.0212 0.59254 0.0
H1346 H 0.54438 0.11493 0.58267 0.0
H1347 H 0.54459 0.20895 0.59374 0.0
H1348 H 0.54286 0.24957 0.66295 0.0
H1349 H 0.54147 0.15555 0.67266 0.0
C1350 C 0.54374 0.07329 0.64447 0.0
C1351 C 0.54571 0.03448 0.62792 0.0
C1352 C 0.54267 0.12747 0.63888 0.0
C1353 C 0.54543 0.05025 0.60565 0.0
C1354 C 0.54408 0.10392 0.59996 0.0
C1355 C 0.54359 0.19727 0.61092 0.0
C1356 C 0.54398 0.23625 0.62757 0.0
C1357 C 0.54316 0.14299 0.61645 0.0
C1358 C 0.5427 0.22039 0.64978 0.0
C1359 C 0.54195 0.16656 0.65538 0.0
H1360 H 0.74187 0.24198 0.61301 0.0
H1361 H 0.73816 0.2367 0.68407 0.0
H1362 H 0.7398 0.13974 0.68313 0.0
H1363 H 0.73968 0.05601 0.66203 0.0
H1364 H 0.74288 0.06096 0.59094 0.0
H1365 H 0.74419 0.15803 0.59206 0.0
C1366 C 0.74169 0.21973 0.62833 0.0
C1367 C 0.7398 0.24692 0.64858 0.0
C1368 C 0.74241 0.16364 0.62767 0.0
C1369 C 0.73957 0.21712 0.66823 0.0
C1370 C 0.74045 0.16149 0.66771 0.0
C1371 C 0.7409 0.07821 0.64677 0.0
C1372 C 0.74107 0.05092 0.62641 0.0
C1373 C 0.74146 0.13425 0.64751 0.0
C1374 C 0.74268 0.08064 0.60685 0.0
C1375 C 0.74338 0.13632 0.60747 0.0
H1376 H 0.49406 0.80261 0.35472 0.0
H1377 H 0.49482 0.80501 0.42594 0.0
H1378 H 0.49633 0.9021 0.42557 0.0
H1379 H 0.49491 0.98669 0.40512 0.0
H1380 H 0.49303 0.98405 0.33394 0.0
H1381 H 0.49465 0.88701 0.33424 0.0
C1382 C 0.4948 0.82425 0.37018 0.0
C1383 C 0.49426 0.7963 0.39034 0.0
C1384 C 0.49536 0.88027 0.36986 0.0
C1385 C 0.49518 0.82527 0.41018 0.0
C1386 C 0.496 0.88093 0.40998 0.0
C1387 C 0.49513 0.96499 0.38964 0.0
C1388 C 0.49379 0.99287 0.36953 0.0
C1389 C 0.49573 0.90893 0.38994 0.0
C1390 C 0.49401 0.96384 0.34967 0.0
C1391 C 0.49488 0.90821 0.34982 0.0
H1392 H 0.29089 0.8062 0.35127 0.0
H1393 H 0.29242 0.77378 0.42121 0.0
H1394 H 0.29025 0.86861 0.4292 0.0
H1395 H 0.29113 0.96116 0.41632 0.0
H1396 H 0.29022 0.99355 0.34637 0.0
H1397 H 0.28871 0.89859 0.33849 0.0
C1398 C 0.29048 0.8198 0.36826 0.0
C1399 C 0.29203 0.78295 0.38558 0.0
C1400 C 0.28946 0.87455 0.37279 0.0
C1401 C 0.29138 0.80128 0.40752 0.0
C1402 C 0.29018 0.85559 0.41214 0.0
C1403 C 0.2903 0.9475 0.39937 0.0
C1404 C 0.29099 0.98442 0.38199 0.0
C1405 C 0.2897 0.89267 0.3949 0.0
C1406 C 0.28984 0.96601 0.3601 0.0
C1407 C 0.28903 0.91163 0.35554 0.0
H1408 H 0.54356 0.52816 0.11173 0.0
H1409 H 0.54447 0.53626 0.1829 0.0
H1410 H 0.5431 0.63326 0.18125 0.0
H1411 H 0.54452 0.71572 0.1596 0.0
H1412 H 0.54413 0.70764 0.08843 0.0
H1413 H 0.54224 0.61074 0.09012 0.0
C1414 C 0.54321 0.55106 0.12691 0.0
C1415 C 0.54429 0.52487 0.14741 0.0
C1416 C 0.54264 0.60691 0.12584 0.0
C1417 C 0.54372 0.55527 0.16689 0.0
C1418 C 0.543 0.61082 0.16597 0.0
C1419 C 0.54379 0.69286 0.14444 0.0
C1420 C 0.54464 0.71898 0.12391 0.0
C1421 C 0.5429 0.63708 0.14553 0.0
C1422 C 0.54356 0.68866 0.10445 0.0
C1423 C 0.54254 0.63317 0.10541 0.0
H1424 H 0.74032 0.53052 0.1556 0.0
H1425 H 0.7389 0.53713 0.08443 0.0
H1426 H 0.74062 0.63408 0.08578 0.0
H1427 H 0.73962 0.71705 0.10721 0.0
H1428 H 0.74046 0.71048 0.1784 0.0
H1429 H 0.74206 0.61347 0.17695 0.0
C1430 C 0.74063 0.55307 0.14035 0.0
C1431 C 0.73932 0.5265 0.11994 0.0
C1432 C 0.7414 0.60889 0.14125 0.0
C1433 C 0.73984 0.55644 0.10037 0.0
C1434 C 0.74075 0.61197 0.10112 0.0
C1435 C 0.74039 0.69449 0.12242 0.0
C1436 C 0.73975 0.72109 0.14289 0.0
C1437 C 0.74109 0.63865 0.12148 0.0
C1438 C 0.74087 0.69114 0.16242 0.0
C1439 C 0.74172 0.63558 0.16161 0.0
H1440 H 0.49043 0.28854 0.8578 0.0
H1441 H 0.49017 0.29347 0.92903 0.0
H1442 H 0.49151 0.39051 0.92811 0.0
H1443 H 0.48999 0.47397 0.90712 0.0
H1444 H 0.48975 0.46903 0.83589 0.0
H1445 H 0.49155 0.37203 0.83681 0.0
C1446 C 0.4909 0.31075 0.87315 0.0
C1447 C 0.49004 0.28367 0.89346 0.0
C1448 C 0.49147 0.36662 0.8725 0.0
C1449 C 0.49076 0.31318 0.91316 0.0
C1450 C 0.49146 0.36876 0.91265 0.0
C1451 C 0.49056 0.45177 0.89178 0.0
C1452 C 0.48957 0.47883 0.87146 0.0
C1453 C 0.4914 0.39592 0.89242 0.0
C1454 C 0.49043 0.44933 0.85176 0.0
C1455 C 0.4914 0.39378 0.85227 0.0
H1456 H 0.29648 0.29765 0.84724 0.0
H1457 H 0.29514 0.25985 0.9167 0.0
H1458 H 0.2933 0.35423 0.92583 0.0
H1459 H 0.2949 0.44779 0.91427 0.0
H1460 H 0.29721 0.48548 0.84484 0.0
H1461 H 0.29567 0.39119 0.83559 0.0
C1462 C 0.29551 0.31 0.86435 0.0
C1463 C 0.29609 0.27169 0.88123 0.0
C1464 C 0.29476 0.3645 0.86954 0.0
C1465 C 0.29483 0.28847 0.90335 0.0
C1466 C 0.29382 0.34251 0.90861 0.0
C1467 C 0.29481 0.43543 0.89711 0.0
C1468 C 0.29632 0.47369 0.88031 0.0
C1469 C 0.29421 0.38095 0.89188 0.0
C1470 C 0.29618 0.45692 0.85814 0.0
C1471 C 0.29533 0.40292 0.85281 0.0
loop_
_geom_bond_atom_site_label_1
_geom_bond_atom_site_label_2
_geom_bond_distance
_geom_bond_site_symmetry_2
_ccdc_geom_bond_type
O0 Cd1 2.223 . S
O0 C8 1.315 . S
Cd1 O0 2.223 . S
Cd1 O4 2.297 . S
Cd1 O5 2.439 . S
Cd1 O11 2.240 . S
Cd2 O3 2.240 . S
Cd2 O10 2.223 . S
Cd2 O12 2.297 . S
Cd2 O13 2.439 . S
O3 Cd2 2.240 . S
O3 C8 1.279 . S
O4 Cd1 2.297 . S
O4 C6 1.247 . S
O5 Cd1 2.439 . S
O5 C6 1.208 . S
C6 O4 1.247 . S
C6 O5 1.208 . S
C7 O12 1.247 . S
C7 O13 1.208 . S
C8 O0 1.315 . S
C8 O3 1.279 . S
C9 O10 1.315 . S
C9 O11 1.279 . S
O10 Cd2 2.223 . S
O10 C9 1.315 . S
O11 Cd1 2.240 . S
O11 C9 1.279 . S
O12 Cd2 2.297 . S
O12 C7 1.247 . S
O13 Cd2 2.439 . S
O13 C7 1.208 . S
O14 Cd15 2.223 . S
O14 C22 1.315 . S
Cd15 O14 2.223 . S
Cd15 O18 2.297 . S
Cd15 O19 2.439 . S
Cd15 O25 2.240 . S
Cd16 O17 2.240 . S
Cd16 O24 2.223 . S
Cd16 O26 2.297 . S
Cd16 O27 2.439 . S
O17 Cd16 2.240 . S
O17 C22 1.279 . S
O18 Cd15 2.297 . S
O18 C20 1.247 . S
O19 Cd15 2.439 . S
O19 C20 1.208 . S
C20 O18 1.247 . S
C20 O19 1.208 . S
C21 O26 1.247 . S
C21 O27 1.208 . S
C22 O14 1.315 . S
C22 O17 1.279 . S
C23 O24 1.315 . S
C23 O25 1.279 . S
O24 Cd16 2.223 . S
O24 C23 1.315 . S
O25 Cd15 2.240 . S
O25 C23 1.279 . S
O26 Cd16 2.297 . S
O26 C21 1.247 . S
O27 Cd16 2.439 . S
O27 C21 1.208 . S
O28 Cd29 2.223 . S
O28 C36 1.315 . S
Cd29 O28 2.223 . S
Cd29 O32 2.297 . S
Cd29 O33 2.439 . S
Cd29 O39 2.240 . S
Cd30 O31 2.240 . S
Cd30 O38 2.223 . S
Cd30 O40 2.297 . S
Cd30 O41 2.439 . S
O31 Cd30 2.240 . S
O31 C36 1.279 . S
O32 Cd29 2.297 . S
O32 C34 1.247 . S
O33 Cd29 2.439 . S
O33 C34 1.208 . S
C34 O32 1.247 . S
C34 O33 1.208 . S
C35 O40 1.247 . S
C35 O41 1.208 . S
C36 O28 1.315 . S
C36 O31 1.279 . S
C37 O38 1.315 . S
C37 O39 1.279 . S
O38 Cd30 2.223 . S
O38 C37 1.315 . S
O39 Cd29 2.240 . S
O39 C37 1.279 . S
O40 Cd30 2.297 . S
O40 C35 1.247 . S
O41 Cd30 2.439 . S
O41 C35 1.208 . S
O42 Cd43 2.223 . S
O42 C50 1.315 . S
Cd43 O42 2.223 . S
Cd43 O46 2.297 . S
Cd43 O47 2.439 . S
Cd43 O53 2.240 . S
Cd44 O45 2.240 . S
Cd44 O52 2.223 . S
Cd44 O54 2.297 . S
Cd44 O55 2.439 . S
O45 Cd44 2.240 . S
O45 C50 1.279 . S
O46 Cd43 2.297 . S
O46 C48 1.247 . S
O47 Cd43 2.439 . S
O47 C48 1.208 . S
C48 O46 1.247 . S
C48 O47 1.208 . S
C49 O54 1.247 . S
C49 O55 1.208 . S
C50 O42 1.315 . S
C50 O45 1.279 . S
C51 O52 1.315 . S
C51 O53 1.279 . S
O52 Cd44 2.223 . S
O52 C51 1.315 . S
O53 Cd43 2.240 . S
O53 C51 1.279 . S
O54 Cd44 2.297 . S
O54 C49 1.247 . S
O55 Cd44 2.439 . S
O55 C49 1.208 . S
O56 Cd57 2.223 . S
O56 C64 1.315 . S
Cd57 O56 2.223 . S
Cd57 O60 2.297 . S
Cd57 O61 2.439 . S
Cd57 O67 2.240 . S
Cd58 O59 2.240 . S
Cd58 O66 2.223 . S
Cd58 O68 2.297 . S
Cd58 O69 2.439 . S
O59 Cd58 2.240 . S
O59 C64 1.279 . S
O60 Cd57 2.297 . S
O60 C62 1.247 . S
O61 Cd57 2.439 . S
O61 C62 1.208 . S
C62 O60 1.247 . S
C62 O61 1.208 . S
C63 O68 1.247 . S
C63 O69 1.208 . S
C64 O56 1.315 . S
C64 O59 1.279 . S
C65 O66 1.315 . S
C65 O67 1.279 . S
O66 Cd58 2.223 . S
O66 C65 1.315 . S
O67 Cd57 2.240 . S
O67 C65 1.279 . S
O68 Cd58 2.297 . S
O68 C63 1.247 . S
O69 Cd58 2.439 . S
O69 C63 1.208 . S
O70 Cd71 2.223 . S
O70 C78 1.315 . S
Cd71 O70 2.223 . S
Cd71 O74 2.297 . S
Cd71 O75 2.439 . S
Cd71 O81 2.240 . S
Cd72 O73 2.240 . S
Cd72 O80 2.223 . S
Cd72 O82 2.297 . S
Cd72 O83 2.439 . S
O73 Cd72 2.240 . S
O73 C78 1.279 . S
O74 Cd71 2.297 . S
O74 C76 1.247 . S
O75 Cd71 2.439 . S
O75 C76 1.208 . S
C76 O74 1.247 . S
C76 O75 1.208 . S
C77 O82 1.247 . S
C77 O83 1.208 . S
C78 O70 1.315 . S
C78 O73 1.279 . S
C79 O80 1.315 . S
C79 O81 1.279 . S
O80 Cd72 2.223 . S
O80 C79 1.315 . S
O81 Cd71 2.240 . S
O81 C79 1.279 . S
O82 Cd72 2.297 . S
O82 C77 1.247 . S
O83 Cd72 2.439 . S
O83 C77 1.208 . S
O84 Cd85 2.223 . S
O84 C92 1.315 . S
Cd85 O84 2.223 . S
Cd85 O88 2.297 . S
Cd85 O89 2.439 . S
Cd85 O95 2.240 . S
Cd86 O87 2.240 . S
Cd86 O94 2.223 . S
Cd86 O96 2.297 . S
Cd86 O97 2.439 . S
O87 Cd86 2.240 . S
O87 C92 1.279 . S
O88 Cd85 2.297 . S
O88 C90 1.247 . S
O89 Cd85 2.439 . S
O89 C90 1.208 . S
C90 O88 1.247 . S
C90 O89 1.208 . S
C91 O96 1.247 . S
C91 O97 1.208 . S
C92 O84 1.315 . S
C92 O87 1.279 . S
C93 O94 1.315 . S
C93 O95 1.279 . S
O94 Cd86 2.223 . S
O94 C93 1.315 . S
O95 Cd85 2.240 . S
O95 C93 1.279 . S
O96 Cd86 2.297 . S
O96 C91 1.247 . S
O97 Cd86 2.439 . S
O97 C91 1.208 . S
O98 Cd99 2.223 . S
O98 C106 1.315 . S
Cd99 O98 2.223 . S
Cd99 O102 2.297 . S
Cd99 O103 2.439 . S
Cd99 O109 2.240 . S
Cd100 O101 2.240 . S
Cd100 O108 2.223 . S
Cd100 O110 2.297 . S
Cd100 O111 2.439 . S
O101 Cd100 2.240 . S
O101 C106 1.279 . S
O102 Cd99 2.297 . S
O102 C104 1.247 . S
O103 Cd99 2.439 . S
O103 C104 1.208 . S
C104 O102 1.247 . S
C104 O103 1.208 . S
C105 O110 1.247 . S
C105 O111 1.208 . S
C106 O98 1.315 . S
C106 O101 1.279 . S
C107 O108 1.315 . S
C107 O109 1.279 . S
O108 Cd100 2.223 . S
O108 C107 1.315 . S
O109 Cd99 2.240 . S
O109 C107 1.279 . S
O110 Cd100 2.297 . S
O110 C105 1.247 . S
O111 Cd100 2.439 . S
O111 C105 1.208 . S
O112 Cd113 2.223 1_545 S
O112 C120 1.319 . S
Cd113 O112 2.223 1_565 S
Cd113 O116 2.297 . S
Cd113 O117 2.439 . S
Cd113 O123 2.240 . S
Cd114 O115 2.240 . S
Cd114 O122 2.223 . S
Cd114 O124 2.297 . S
Cd114 O125 2.439 . S
O115 Cd114 2.240 . S
O115 C120 1.265 1_565 S
O116 Cd113 2.297 . S
O116 C118 1.247 . S
O117 Cd113 2.439 . S
O117 C118 1.208 . S
C118 O116 1.247 . S
C118 O117 1.208 . S
C119 O124 1.247 . S
C119 O125 1.208 . S
C120 O112 1.319 . S
C120 O115 1.265 1_545 S
C121 O122 1.315 . S
C121 O123 1.279 . S
O122 Cd114 2.223 . S
O122 C121 1.315 . S
O123 Cd113 2.240 . S
O123 C121 1.279 . S
O124 Cd114 2.297 . S
O124 C119 1.247 . S
O125 Cd114 2.439 . S
O125 C119 1.208 . S
O126 Cd127 2.223 . S
O126 C134 1.315 . S
Cd127 O126 2.223 . S
Cd127 O130 2.297 . S
Cd127 O131 2.439 . S
Cd127 O137 2.240 . S
Cd128 O129 2.240 . S
Cd128 O136 2.223 . S
Cd128 O138 2.297 . S
Cd128 O139 2.439 . S
O129 Cd128 2.240 . S
O129 C134 1.279 . S
O130 Cd127 2.297 . S
O130 C132 1.247 . S
O131 Cd127 2.439 . S
O131 C132 1.208 . S
C132 O130 1.247 . S
C132 O131 1.208 . S
C133 O138 1.247 . S
C133 O139 1.208 . S
C134 O126 1.315 . S
C134 O129 1.279 . S
C135 O136 1.315 . S
C135 O137 1.279 . S
O136 Cd128 2.223 . S
O136 C135 1.315 . S
O137 Cd127 2.240 . S
O137 C135 1.279 . S
O138 Cd128 2.297 . S
O138 C133 1.247 . S
O139 Cd128 2.439 . S
O139 C133 1.208 . S
O140 Cd141 2.223 . S
O140 C148 1.315 . S
Cd141 O140 2.223 . S
Cd141 O144 2.297 . S
Cd141 O145 2.439 . S
Cd141 O151 2.240 . S
Cd142 O143 2.240 . S
Cd142 O150 2.223 . S
Cd142 O152 2.297 . S
Cd142 O153 2.439 . S
O143 Cd142 2.240 . S
O143 C148 1.279 . S
O144 Cd141 2.297 . S
O144 C146 1.247 . S
O145 Cd141 2.439 . S
O145 C146 1.208 . S
C146 O144 1.247 . S
C146 O145 1.208 . S
C147 O152 1.247 . S
C147 O153 1.208 . S
C148 O140 1.315 . S
C148 O143 1.279 . S
C149 O150 1.315 . S
C149 O151 1.279 . S
O150 Cd142 2.223 . S
O150 C149 1.315 . S
O151 Cd141 2.240 . S
O151 C149 1.279 . S
O152 Cd142 2.297 . S
O152 C147 1.247 . S
O153 Cd142 2.439 . S
O153 C147 1.208 . S
O154 Cd155 2.223 1_545 S
O154 C162 1.319 . S
Cd155 O154 2.223 1_565 S
Cd155 O158 2.297 . S
Cd155 O159 2.439 . S
Cd155 O165 2.240 . S
Cd156 O157 2.240 . S
Cd156 O164 2.223 . S
Cd156 O166 2.297 . S
Cd156 O167 2.439 . S
O157 Cd156 2.240 . S
O157 C162 1.265 1_565 S
O158 Cd155 2.297 . S
O158 C160 1.247 . S
O159 Cd155 2.439 . S
O159 C160 1.208 . S
C160 O158 1.247 . S
C160 O159 1.208 . S
C161 O166 1.247 . S
C161 O167 1.208 . S
C162 O154 1.319 . S
C162 O157 1.265 1_545 S
C163 O164 1.315 . S
C163 O165 1.279 . S
O164 Cd156 2.223 . S
O164 C163 1.315 . S
O165 Cd155 2.240 . S
O165 C163 1.279 . S
O166 Cd156 2.297 . S
O166 C161 1.247 . S
O167 Cd156 2.439 . S
O167 C161 1.208 . S
O168 Cd169 2.223 1_565 S
O168 C176 1.319 . S
Cd169 O168 2.223 1_545 S
Cd169 O172 2.297 . S
Cd169 O173 2.439 . S
Cd169 O179 2.240 . S
Cd170 O171 2.240 . S
Cd170 O178 2.223 . S
Cd170 O180 2.297 . S
Cd170 O181 2.439 . S
O171 Cd170 2.240 . S
O171 C176 1.265 1_545 S
O172 Cd169 2.297 . S
O172 C174 1.247 . S
O173 Cd169 2.439 . S
O173 C174 1.208 . S
C174 O172 1.247 . S
C174 O173 1.208 . S
C175 O180 1.247 . S
C175 O181 1.208 . S
C176 O168 1.319 . S
C176 O171 1.265 1_565 S
C177 O178 1.315 . S
C177 O179 1.279 . S
O178 Cd170 2.223 . S
O178 C177 1.315 . S
O179 Cd169 2.240 . S
O179 C177 1.279 . S
O180 Cd170 2.297 . S
O180 C175 1.247 . S
O181 Cd170 2.439 . S
O181 C175 1.208 . S
O182 Cd183 2.223 . S
O182 C190 1.315 . S
Cd183 O182 2.223 . S
Cd183 O186 2.297 . S
Cd183 O187 2.439 . S
Cd183 O193 2.240 . S
Cd184 O185 2.240 . S
Cd184 O192 2.223 . S
Cd184 O194 2.297 . S
Cd184 O195 2.439 . S
O185 Cd184 2.240 . S
O185 C190 1.279 . S
O186 Cd183 2.297 . S
O186 C188 1.247 . S
O187 Cd183 2.439 . S
O187 C188 1.208 . S
C188 O186 1.247 . S
C188 O187 1.208 . S
C189 O194 1.247 . S
C189 O195 1.208 . S
C190 O182 1.315 . S
C190 O185 1.279 . S
C191 O192 1.315 . S
C191 O193 1.279 . S
O192 Cd184 2.223 . S
O192 C191 1.315 . S
O193 Cd183 2.240 . S
O193 C191 1.279 . S
O194 Cd184 2.297 . S
O194 C189 1.247 . S
O195 Cd184 2.439 . S
O195 C189 1.208 . S
O196 Cd197 2.223 . S
O196 C204 1.315 . S
Cd197 O196 2.223 . S
Cd197 O200 2.297 . S
Cd197 O201 2.439 . S
Cd197 O207 2.240 . S
Cd198 O199 2.240 . S
Cd198 O206 2.223 . S
Cd198 O208 2.297 . S
Cd198 O209 2.439 . S
O199 Cd198 2.240 . S
O199 C204 1.279 . S
O200 Cd197 2.297 . S
O200 C202 1.247 . S
O201 Cd197 2.439 . S
O201 C202 1.208 . S
C202 O200 1.247 . S
C202 O201 1.208 . S
C203 O208 1.247 . S
C203 O209 1.208 . S
C204 O196 1.315 . S
C204 O199 1.279 . S
C205 O206 1.315 . S
C205 O207 1.279 . S
O206 Cd198 2.223 . S
O206 C205 1.315 . S
O207 Cd197 2.240 . S
O207 C205 1.279 . S
O208 Cd198 2.297 . S
O208 C203 1.247 . S
O209 Cd198 2.439 . S
O209 C203 1.208 . S
O210 Cd211 2.223 1_565 S
O210 C218 1.319 . S
Cd211 O210 2.223 1_545 S
Cd211 O214 2.297 . S
Cd211 O215 2.439 . S
Cd211 O221 2.240 . S
Cd212 O213 2.240 . S
Cd212 O220 2.223 . S
Cd212 O222 2.297 . S
Cd212 O223 2.439 . S
O213 Cd212 2.240 . S
O213 C218 1.265 1_545 S
O214 Cd211 2.297 . S
O214 C216 1.247 . S
O215 Cd211 2.439 . S
O215 C216 1.208 . S
C216 O214 1.247 . S
C216 O215 1.208 . S
C217 O222 1.247 . S
C217 O223 1.208 . S
C218 O210 1.319 . S
C218 O213 1.265 1_565 S
C219 O220 1.315 . S
C219 O221 1.279 . S
O220 Cd212 2.223 . S
O220 C219 1.315 . S
O221 Cd211 2.240 . S
O221 C219 1.279 . S
O222 Cd212 2.297 . S
O222 C217 1.247 . S
O223 Cd212 2.439 . S
O223 C217 1.208 . S
O224 Cd225 2.223 . S
O224 C232 1.315 . S
Cd225 O224 2.223 . S
Cd225 O228 2.297 . S
Cd225 O229 2.439 . S
Cd225 O235 2.240 . S
Cd226 O227 2.240 . S
Cd226 O234 2.223 . S
Cd226 O236 2.297 . S
Cd226 O237 2.439 . S
O227 Cd226 2.240 . S
O227 C232 1.279 . S
O228 Cd225 2.297 . S
O228 C230 1.247 . S
O229 Cd225 2.439 . S
O229 C230 1.208 . S
C230 O228 1.247 . S
C230 O229 1.208 . S
C231 O236 1.247 . S
C231 O237 1.208 . S
C232 O224 1.315 . S
C232 O227 1.279 . S
C233 O234 1.315 . S
C233 O235 1.279 . S
O234 Cd226 2.223 . S
O234 C233 1.315 . S
O235 Cd225 2.240 . S
O235 C233 1.279 . S
O236 Cd226 2.297 . S
O236 C231 1.247 . S
O237 Cd226 2.439 . S
O237 C231 1.208 . S
O238 Cd239 2.223 . S
O238 C246 1.315 . S
Cd239 O238 2.223 . S
Cd239 O242 2.297 . S
Cd239 O243 2.439 . S
Cd239 O249 2.240 . S
Cd240 O241 2.240 . S
Cd240 O248 2.223 . S
Cd240 O250 2.297 . S
Cd240 O251 2.439 . S
O241 Cd240 2.240 . S
O241 C246 1.279 . S
O242 Cd239 2.297 . S
O242 C244 1.247 . S
O243 Cd239 2.439 . S
O243 C244 1.208 . S
C244 O242 1.247 . S
C244 O243 1.208 . S
C245 O250 1.247 . S
C245 O251 1.208 . S
C246 O238 1.315 . S
C246 O241 1.279 . S
C247 O248 1.315 . S
C247 O249 1.279 . S
O248 Cd240 2.223 . S
O248 C247 1.315 . S
O249 Cd239 2.240 . S
O249 C247 1.279 . S
O250 Cd240 2.297 . S
O250 C245 1.247 . S
O251 Cd240 2.439 . S
O251 C245 1.208 . S
O252 Cd253 2.223 . S
O252 C260 1.315 . S
Cd253 O252 2.223 . S
Cd253 O256 2.297 . S
Cd253 O257 2.439 . S
Cd253 O263 2.240 . S
Cd254 O255 2.240 . S
Cd254 O262 2.223 . S
Cd254 O264 2.297 . S
Cd254 O265 2.439 . S
O255 Cd254 2.240 . S
O255 C260 1.279 . S
O256 Cd253 2.297 . S
O256 C258 1.247 . S
O257 Cd253 2.439 . S
O257 C258 1.208 . S
C258 O256 1.247 . S
C258 O257 1.208 . S
C259 O264 1.247 . S
C259 O265 1.208 . S
C260 O252 1.315 . S
C260 O255 1.279 . S
C261 O262 1.315 . S
C261 O263 1.279 . S
O262 Cd254 2.223 . S
O262 C261 1.315 . S
O263 Cd253 2.240 . S
O263 C261 1.279 . S
O264 Cd254 2.297 . S
O264 C259 1.247 . S
O265 Cd254 2.439 . S
O265 C259 1.208 . S
O266 Cd267 2.223 . S
O266 C274 1.315 . S
Cd267 O266 2.223 . S
Cd267 O270 2.297 . S
Cd267 O271 2.439 . S
Cd267 O277 2.240 . S
Cd268 O269 2.240 . S
Cd268 O276 2.223 . S
Cd268 O278 2.297 . S
Cd268 O279 2.439 . S
O269 Cd268 2.240 . S
O269 C274 1.279 . S
O270 Cd267 2.297 . S
O270 C272 1.247 . S
O271 Cd267 2.439 . S
O271 C272 1.208 . S
C272 O270 1.247 . S
C272 O271 1.208 . S
C273 O278 1.247 . S
C273 O279 1.208 . S
C274 O266 1.315 . S
C274 O269 1.279 . S
C275 O276 1.315 . S
C275 O277 1.279 . S
O276 Cd268 2.223 . S
O276 C275 1.315 . S
O277 Cd267 2.240 . S
O277 C275 1.279 . S
O278 Cd268 2.297 . S
O278 C273 1.247 . S
O279 Cd268 2.439 . S
O279 C273 1.208 . S
O280 Cd281 2.223 . S
O280 C288 1.315 . S
Cd281 O280 2.223 . S
Cd281 O284 2.297 . S
Cd281 O285 2.439 . S
Cd281 O291 2.240 . S
Cd282 O283 2.240 . S
Cd282 O290 2.223 . S
Cd282 O292 2.297 . S
Cd282 O293 2.439 . S
O283 Cd282 2.240 . S
O283 C288 1.279 . S
O284 Cd281 2.297 . S
O284 C286 1.247 . S
O285 Cd281 2.439 . S
O285 C286 1.208 . S
C286 O284 1.247 . S
C286 O285 1.208 . S
C287 O292 1.247 . S
C287 O293 1.208 . S
C288 O280 1.315 . S
C288 O283 1.279 . S
C289 O290 1.315 . S
C289 O291 1.279 . S
O290 Cd282 2.223 . S
O290 C289 1.315 . S
O291 Cd281 2.240 . S
O291 C289 1.279 . S
O292 Cd282 2.297 . S
O292 C287 1.247 . S
O293 Cd282 2.439 . S
O293 C287 1.208 . S
O294 Cd295 2.223 . S
O294 C302 1.315 . S
Cd295 O294 2.223 . S
Cd295 O298 2.297 . S
Cd295 O299 2.439 . S
Cd295 O305 2.240 . S
Cd296 O297 2.240 . S
Cd296 O304 2.223 . S
Cd296 O306 2.297 . S
Cd296 O307 2.439 . S
O297 Cd296 2.240 . S
O297 C302 1.279 . S
O298 Cd295 2.297 . S
O298 C300 1.247 . S
O299 Cd295 2.439 . S
O299 C300 1.208 . S
C300 O298 1.247 . S
C300 O299 1.208 . S
C301 O306 1.247 . S
C301 O307 1.208 . S
C302 O294 1.315 . S
C302 O297 1.279 . S
C303 O304 1.315 . S
C303 O305 1.279 . S
O304 Cd296 2.223 . S
O304 C303 1.315 . S
O305 Cd295 2.240 . S
O305 C303 1.279 . S
O306 Cd296 2.297 . S
O306 C301 1.247 . S
O307 Cd296 2.439 . S
O307 C301 1.208 . S
O308 Cd309 2.223 . S
O308 C316 1.315 . S
Cd309 O308 2.223 . S
Cd309 O312 2.297 . S
Cd309 O313 2.439 . S
Cd309 O319 2.240 . S
Cd310 O311 2.240 . S
Cd310 O318 2.223 . S
Cd310 O320 2.297 . S
Cd310 O321 2.439 . S
O311 Cd310 2.240 . S
O311 C316 1.279 . S
O312 Cd309 2.297 . S
O312 C314 1.247 . S
O313 Cd309 2.439 . S
O313 C314 1.208 . S
C314 O312 1.247 . S
C314 O313 1.208 . S
C315 O320 1.247 . S
C315 O321 1.208 . S
C316 O308 1.315 . S
C316 O311 1.279 . S
C317 O318 1.315 . S
C317 O319 1.279 . S
O318 Cd310 2.223 . S
O318 C317 1.315 . S
O319 Cd309 2.240 . S
O319 C317 1.279 . S
O320 Cd310 2.297 . S
O320 C315 1.247 . S
O321 Cd310 2.439 . S
O321 C315 1.208 . S
O322 Cd323 2.223 . S
O322 C330 1.315 . S
Cd323 O322 2.223 . S
Cd323 O326 2.297 . S
Cd323 O327 2.439 . S
Cd323 O333 2.240 . S
Cd324 O325 2.240 . S
Cd324 O332 2.223 . S
Cd324 O334 2.297 . S
Cd324 O335 2.439 . S
O325 Cd324 2.240 . S
O325 C330 1.279 . S
O326 Cd323 2.297 . S
O326 C328 1.247 . S
O327 Cd323 2.439 . S
O327 C328 1.208 . S
C328 O326 1.247 . S
C328 O327 1.208 . S
C329 O334 1.247 . S
C329 O335 1.208 . S
C330 O322 1.315 . S
C330 O325 1.279 . S
C331 O332 1.315 . S
C331 O333 1.279 . S
O332 Cd324 2.223 . S
O332 C331 1.315 . S
O333 Cd323 2.240 . S
O333 C331 1.279 . S
O334 Cd324 2.297 . S
O334 C329 1.247 . S
O335 Cd324 2.439 . S
O335 C329 1.208 . S
O336 Cd337 2.223 1_545 S
O336 C344 1.319 . S
Cd337 O336 2.223 1_565 S
Cd337 O340 2.297 . S
Cd337 O341 2.439 . S
Cd337 O347 2.240 . S
Cd338 O339 2.240 . S
Cd338 O346 2.223 . S
Cd338 O348 2.297 . S
Cd338 O349 2.439 . S
O339 Cd338 2.240 . S
O339 C344 1.265 1_565 S
O340 Cd337 2.297 . S
O340 C342 1.247 . S
O341 Cd337 2.439 . S
O341 C342 1.208 . S
C342 O340 1.247 . S
C342 O341 1.208 . S
C343 O348 1.247 . S
C343 O349 1.208 . S
C344 O336 1.319 . S
C344 O339 1.265 1_545 S
C345 O346 1.315 . S
C345 O347 1.279 . S
O346 Cd338 2.223 . S
O346 C345 1.315 . S
O347 Cd337 2.240 . S
O347 C345 1.279 . S
O348 Cd338 2.297 . S
O348 C343 1.247 . S
O349 Cd338 2.439 . S
O349 C343 1.208 . S
O350 Cd351 2.223 . S
O350 C358 1.315 . S
Cd351 O350 2.223 . S
Cd351 O354 2.297 . S
Cd351 O355 2.439 . S
Cd351 O361 2.240 . S
Cd352 O353 2.240 . S
Cd352 O360 2.223 . S
Cd352 O362 2.297 . S
Cd352 O363 2.439 . S
O353 Cd352 2.240 . S
O353 C358 1.279 . S
O354 Cd351 2.297 . S
O354 C356 1.247 . S
O355 Cd351 2.439 . S
O355 C356 1.208 . S
C356 O354 1.247 . S
C356 O355 1.208 . S
C357 O362 1.247 . S
C357 O363 1.208 . S
C358 O350 1.315 . S
C358 O353 1.279 . S
C359 O360 1.315 . S
C359 O361 1.279 . S
O360 Cd352 2.223 . S
O360 C359 1.315 . S
O361 Cd351 2.240 . S
O361 C359 1.279 . S
O362 Cd352 2.297 . S
O362 C357 1.247 . S
O363 Cd352 2.439 . S
O363 C357 1.208 . S
O364 Cd365 2.223 . S
O364 C372 1.315 . S
Cd365 O364 2.223 . S
Cd365 O368 2.297 . S
Cd365 O369 2.439 . S
Cd365 O375 2.240 . S
Cd366 O367 2.240 . S
Cd366 O374 2.223 . S
Cd366 O376 2.297 . S
Cd366 O377 2.439 . S
O367 Cd366 2.240 . S
O367 C372 1.279 . S
O368 Cd365 2.297 . S
O368 C370 1.247 . S
O369 Cd365 2.439 . S
O369 C370 1.208 . S
C370 O368 1.247 . S
C370 O369 1.208 . S
C371 O376 1.247 . S
C371 O377 1.208 . S
C372 O364 1.315 . S
C372 O367 1.279 . S
C373 O374 1.315 . S
C373 O375 1.279 . S
O374 Cd366 2.223 . S
O374 C373 1.315 . S
O375 Cd365 2.240 . S
O375 C373 1.279 . S
O376 Cd366 2.297 . S
O376 C371 1.247 . S
O377 Cd366 2.439 . S
O377 C371 1.208 . S
O378 Cd379 2.223 1_545 S
O378 C386 1.319 . S
Cd379 O378 2.223 1_565 S
Cd379 O382 2.297 . S
Cd379 O383 2.439 . S
Cd379 O389 2.240 . S
Cd380 O381 2.240 . S
Cd380 O388 2.223 . S
Cd380 O390 2.297 . S
Cd380 O391 2.439 . S
O381 Cd380 2.240 . S
O381 C386 1.265 1_565 S
O382 Cd379 2.297 . S
O382 C384 1.247 . S
O383 Cd379 2.439 . S
O383 C384 1.208 . S
C384 O382 1.247 . S
C384 O383 1.208 . S
C385 O390 1.247 . S
C385 O391 1.208 . S
C386 O378 1.319 . S
C386 O381 1.265 1_545 S
C387 O388 1.315 . S
C387 O389 1.279 . S
O388 Cd380 2.223 . S
O388 C387 1.315 . S
O389 Cd379 2.240 . S
O389 C387 1.279 . S
O390 Cd380 2.297 . S
O390 C385 1.247 . S
O391 Cd380 2.439 . S
O391 C385 1.208 . S
O392 Cd393 2.223 1_565 S
O392 C400 1.319 . S
Cd393 O392 2.223 1_545 S
Cd393 O396 2.297 . S
Cd393 O397 2.439 . S
Cd393 O403 2.240 . S
Cd394 O395 2.240 . S
Cd394 O402 2.223 . S
Cd394 O404 2.297 . S
Cd394 O405 2.439 . S
O395 Cd394 2.240 . S
O395 C400 1.265 1_545 S
O396 Cd393 2.297 . S
O396 C398 1.247 . S
O397 Cd393 2.439 . S
O397 C398 1.208 . S
C398 O396 1.247 . S
C398 O397 1.208 . S
C399 O404 1.247 . S
C399 O405 1.208 . S
C400 O392 1.319 . S
C400 O395 1.265 1_565 S
C401 O402 1.315 . S
C401 O403 1.279 . S
O402 Cd394 2.223 . S
O402 C401 1.315 . S
O403 Cd393 2.240 . S
O403 C401 1.279 . S
O404 Cd394 2.297 . S
O404 C399 1.247 . S
O405 Cd394 2.439 . S
O405 C399 1.208 . S
O406 Cd407 2.223 . S
O406 C414 1.315 . S
Cd407 O406 2.223 . S
Cd407 O410 2.297 . S
Cd407 O411 2.439 . S
Cd407 O417 2.240 . S
Cd408 O409 2.240 . S
Cd408 O416 2.223 . S
Cd408 O418 2.297 . S
Cd408 O419 2.439 . S
O409 Cd408 2.240 . S
O409 C414 1.279 . S
O410 Cd407 2.297 . S
O410 C412 1.247 . S
O411 Cd407 2.439 . S
O411 C412 1.208 . S
C412 O410 1.247 . S
C412 O411 1.208 . S
C413 O418 1.247 . S
C413 O419 1.208 . S
C414 O406 1.315 . S
C414 O409 1.279 . S
C415 O416 1.315 . S
C415 O417 1.279 . S
O416 Cd408 2.223 . S
O416 C415 1.315 . S
O417 Cd407 2.240 . S
O417 C415 1.279 . S
O418 Cd408 2.297 . S
O418 C413 1.247 . S
O419 Cd408 2.439 . S
O419 C413 1.208 . S
O420 Cd421 2.223 . S
O420 C428 1.315 . S
Cd421 O420 2.223 . S
Cd421 O424 2.297 . S
Cd421 O425 2.439 . S
Cd421 O431 2.240 . S
Cd422 O423 2.240 . S
Cd422 O430 2.223 . S
Cd422 O432 2.297 . S
Cd422 O433 2.439 . S
O423 Cd422 2.240 . S
O423 C428 1.279 . S
O424 Cd421 2.297 . S
O424 C426 1.247 . S
O425 Cd421 2.439 . S
O425 C426 1.208 . S
C426 O424 1.247 . S
C426 O425 1.208 . S
C427 O432 1.247 . S
C427 O433 1.208 . S
C428 O420 1.315 . S
C428 O423 1.279 . S
C429 O430 1.315 . S
C429 O431 1.279 . S
O430 Cd422 2.223 . S
O430 C429 1.315 . S
O431 Cd421 2.240 . S
O431 C429 1.279 . S
O432 Cd422 2.297 . S
O432 C427 1.247 . S
O433 Cd422 2.439 . S
O433 C427 1.208 . S
O434 Cd435 2.223 1_565 S
O434 C442 1.319 . S
Cd435 O434 2.223 1_545 S
Cd435 O438 2.297 . S
Cd435 O439 2.439 . S
Cd435 O445 2.240 . S
Cd436 O437 2.240 . S
Cd436 O444 2.223 . S
Cd436 O446 2.297 . S
Cd436 O447 2.439 . S
O437 Cd436 2.240 . S
O437 C442 1.265 1_545 S
O438 Cd435 2.297 . S
O438 C440 1.247 . S
O439 Cd435 2.439 . S
O439 C440 1.208 . S
C440 O438 1.247 . S
C440 O439 1.208 . S
C441 O446 1.247 . S
C441 O447 1.208 . S
C442 O434 1.319 . S
C442 O437 1.265 1_565 S
C443 O444 1.315 . S
C443 O445 1.279 . S
O444 Cd436 2.223 . S
O444 C443 1.315 . S
O445 Cd435 2.240 . S
O445 C443 1.279 . S
O446 Cd436 2.297 . S
O446 C441 1.247 . S
O447 Cd436 2.439 . S
O447 C441 1.208 . S
H448 C454 0.930 . S
H449 C457 0.930 . S
H450 C458 0.930 . S
H451 C459 0.930 . S
H452 C462 0.930 . S
H453 C463 0.930 . S
C454 H448 0.930 . S
C454 C455 1.355 . S
C454 C456 1.415 . S
C455 C454 1.355 . S
C455 C457 1.419 . S
C456 C454 1.415 . S
C456 C461 1.425 . S
C456 C463 1.409 . S
C457 H449 0.930 . S
C457 C455 1.419 . S
C457 C458 1.362 . S
C458 H450 0.930 . S
C458 C457 1.362 . S
C458 C461 1.409 . S
C459 H451 0.930 . S
C459 C460 1.355 . S
C459 C461 1.415 . S
C460 C459 1.355 . S
C460 C462 1.419 . S
C461 C456 1.425 . S
C461 C458 1.409 . S
C461 C459 1.415 . S
C462 H452 0.930 . S
C462 C460 1.419 . S
C462 C463 1.362 . S
C463 H453 0.930 . S
C463 C456 1.409 . S
C463 C462 1.362 . S
H464 C470 0.930 . S
H465 C473 0.930 . S
H466 C474 0.930 . S
H467 C475 0.930 . S
H468 C478 0.930 . S
H469 C479 0.930 . S
C470 H464 0.930 . S
C470 C471 1.355 . S
C470 C472 1.415 . S
C471 C470 1.355 . S
C471 C473 1.419 . S
C472 C470 1.415 . S
C472 C477 1.425 . S
C472 C479 1.409 . S
C473 H465 0.930 . S
C473 C471 1.419 . S
C473 C474 1.362 . S
C474 H466 0.930 . S
C474 C473 1.362 . S
C474 C477 1.409 . S
C475 H467 0.930 . S
C475 C476 1.355 . S
C475 C477 1.415 . S
C476 C475 1.355 . S
C476 C478 1.419 . S
C477 C472 1.425 . S
C477 C474 1.409 . S
C477 C475 1.415 . S
C478 H468 0.930 . S
C478 C476 1.419 . S
C478 C479 1.362 . S
C479 H469 0.930 . S
C479 C472 1.409 . S
C479 C478 1.362 . S
H480 C486 0.930 . S
H481 C489 0.930 . S
H482 C490 0.930 . S
H483 C491 0.930 . S
H484 C494 0.930 . S
H485 C495 0.930 . S
C486 H480 0.930 . S
C486 C487 1.355 . S
C486 C488 1.415 . S
C487 C486 1.355 . S
C487 C489 1.419 . S
C488 C486 1.415 . S
C488 C493 1.425 . S
C488 C495 1.409 . S
C489 H481 0.930 . S
C489 C487 1.419 . S
C489 C490 1.362 . S
C490 H482 0.930 . S
C490 C489 1.362 . S
C490 C493 1.409 . S
C491 H483 0.930 . S
C491 C492 1.355 . S
C491 C493 1.415 . S
C492 C491 1.355 . S
C492 C494 1.419 . S
C493 C488 1.425 . S
C493 C490 1.409 . S
C493 C491 1.415 . S
C494 H484 0.930 . S
C494 C492 1.419 . S
C494 C495 1.362 . S
C495 H485 0.930 . S
C495 C488 1.409 . S
C495 C494 1.362 . S
H496 C502 0.930 . S
H497 C505 0.930 . S
H498 C506 0.930 . S
H499 C507 0.930 . S
H500 C510 0.930 . S
H501 C511 0.930 . S
C502 H496 0.930 . S
C502 C503 1.355 . S
C502 C504 1.415 . S
C503 C502 1.355 . S
C503 C505 1.419 . S
C504 C502 1.415 . S
C504 C509 1.425 . S
C504 C511 1.409 . S
C505 H497 0.930 . S
C505 C503 1.419 . S
C505 C506 1.362 . S
C506 H498 0.930 . S
C506 C505 1.362 . S
C506 C509 1.409 . S
C507 H499 0.930 . S
C507 C508 1.355 . S
C507 C509 1.415 . S
C508 C507 1.355 . S
C508 C510 1.419 . S
C509 C504 1.425 . S
C509 C506 1.409 . S
C509 C507 1.415 . S
C510 H500 0.930 . S
C510 C508 1.419 . S
C510 C511 1.362 . S
C511 H501 0.930 . S
C511 C504 1.409 . S
C511 C510 1.362 . S
H512 C518 0.930 . S
H513 C521 0.930 . S
H514 C522 0.930 . S
H515 C523 0.930 . S
H516 C526 0.930 . S
H517 C527 0.930 . S
C518 H512 0.930 . S
C518 C519 1.355 . S
C518 C520 1.415 . S
C519 C518 1.355 . S
C519 C521 1.419 . S
C520 C518 1.415 . S
C520 C525 1.425 . S
C520 C527 1.409 . S
C521 H513 0.930 . S
C521 C519 1.419 . S
C521 C522 1.362 . S
C522 H514 0.930 . S
C522 C521 1.362 . S
C522 C525 1.409 . S
C523 H515 0.930 . S
C523 C524 1.355 . S
C523 C525 1.415 . S
C524 C523 1.355 . S
C524 C526 1.419 . S
C525 C520 1.425 . S
C525 C522 1.409 . S
C525 C523 1.415 . S
C526 H516 0.930 . S
C526 C524 1.419 . S
C526 C527 1.362 . S
C527 H517 0.930 . S
C527 C520 1.409 . S
C527 C526 1.362 . S
H528 C534 0.930 . S
H529 C537 0.930 . S
H530 C538 0.930 . S
H531 C539 0.930 . S
H532 C542 0.930 . S
H533 C543 0.930 . S
C534 H528 0.930 . S
C534 C535 1.355 . S
C534 C536 1.415 . S
C535 C534 1.355 . S
C535 C537 1.419 . S
C536 C534 1.415 . S
C536 C541 1.425 . S
C536 C543 1.409 . S
C537 H529 0.930 . S
C537 C535 1.419 . S
C537 C538 1.362 . S
C538 H530 0.930 . S
C538 C537 1.362 . S
C538 C541 1.409 . S
C539 H531 0.930 . S
C539 C540 1.355 . S
C539 C541 1.415 . S
C540 C539 1.355 . S
C540 C542 1.419 . S
C541 C536 1.425 . S
C541 C538 1.409 . S
C541 C539 1.415 . S
C542 H532 0.930 . S
C542 C540 1.419 . S
C542 C543 1.362 . S
C543 H533 0.930 . S
C543 C536 1.409 . S
C543 C542 1.362 . S
H544 C550 0.930 . S
H545 C553 0.930 . S
H546 C554 0.930 . S
H547 C555 0.930 . S
H548 C558 0.930 . S
H549 C559 0.930 . S
C550 H544 0.930 . S
C550 C551 1.355 . S
C550 C552 1.415 . S
C551 C550 1.355 . S
C551 C553 1.419 . S
C552 C550 1.415 . S
C552 C557 1.425 . S
C552 C559 1.409 . S
C553 H545 0.930 . S
C553 C551 1.419 . S
C553 C554 1.362 . S
C554 H546 0.930 . S
C554 C553 1.362 . S
C554 C557 1.409 . S
C555 H547 0.930 . S
C555 C556 1.355 . S
C555 C557 1.415 . S
C556 C555 1.355 . S
C556 C558 1.419 . S
C557 C552 1.425 . S
C557 C554 1.409 . S
C557 C555 1.415 . S
C558 H548 0.930 . S
C558 C556 1.419 . S
C558 C559 1.362 . S
C559 H549 0.930 . S
C559 C552 1.409 . S
C559 C558 1.362 . S
H560 C566 0.930 . S
H561 C569 0.930 . S
H562 C570 0.930 . S
H563 C571 0.930 . S
H564 C574 0.930 . S
H565 C575 0.930 . S
C566 H560 0.930 . S
C566 C567 1.355 . S
C566 C568 1.415 . S
C567 C566 1.355 . S
C567 C569 1.419 . S
C568 C566 1.415 . S
C568 C573 1.425 . S
C568 C575 1.409 . S
C569 H561 0.930 . S
C569 C567 1.419 . S
C569 C570 1.362 . S
C570 H562 0.930 . S
C570 C569 1.362 . S
C570 C573 1.409 . S
C571 H563 0.930 . S
C571 C572 1.355 . S
C571 C573 1.415 . S
C572 C571 1.355 . S
C572 C574 1.419 . S
C573 C568 1.425 . S
C573 C570 1.409 . S
C573 C571 1.415 . S
C574 H564 0.930 . S
C574 C572 1.419 . S
C574 C575 1.362 . S
C575 H565 0.930 . S
C575 C568 1.409 . S
C575 C574 1.362 . S
H576 C582 0.930 . S
H577 C585 0.930 . S
H578 C586 0.930 . S
H579 C587 0.930 . S
H580 C590 0.930 . S
H581 C591 0.930 . S
C582 H576 0.930 . S
C582 C583 1.355 . S
C582 C584 1.415 . S
C583 C582 1.355 . S
C583 C585 1.419 . S
C584 C582 1.415 . S
C584 C589 1.425 . S
C584 C591 1.409 . S
C585 H577 0.930 . S
C585 C583 1.419 . S
C585 C586 1.362 . S
C586 H578 0.930 . S
C586 C585 1.362 . S
C586 C589 1.409 . S
C587 H579 0.930 . S
C587 C588 1.355 . S
C587 C589 1.415 . S
C588 C587 1.355 . S
C588 C590 1.419 . S
C589 C584 1.425 . S
C589 C586 1.409 . S
C589 C587 1.415 . S
C590 H580 0.930 . S
C590 C588 1.419 . S
C590 C591 1.362 . S
C591 H581 0.930 . S
C591 C584 1.409 . S
C591 C590 1.362 . S
H592 C598 0.930 . S
H593 C601 0.930 . S
H594 C602 0.930 . S
H595 C603 0.930 . S
H596 C606 0.930 . S
H597 C607 0.930 . S
C598 H592 0.930 . S
C598 C599 1.355 . S
C598 C600 1.415 . S
C599 C598 1.355 . S
C599 C601 1.419 . S
C600 C598 1.415 . S
C600 C605 1.425 . S
C600 C607 1.409 . S
C601 H593 0.930 . S
C601 C599 1.419 . S
C601 C602 1.362 . S
C602 H594 0.930 . S
C602 C601 1.362 . S
C602 C605 1.409 . S
C603 H595 0.930 . S
C603 C604 1.355 . S
C603 C605 1.415 . S
C604 C603 1.355 . S
C604 C606 1.419 . S
C605 C600 1.425 . S
C605 C602 1.409 . S
C605 C603 1.415 . S
C606 H596 0.930 . S
C606 C604 1.419 . S
C606 C607 1.362 . S
C607 H597 0.930 . S
C607 C600 1.409 . S
C607 C606 1.362 . S
H608 C614 0.930 . S
H609 C617 0.930 . S
H610 C618 0.930 . S
H611 C619 0.930 . S
H612 C622 0.930 . S
H613 C623 0.930 . S
C614 H608 0.930 . S
C614 C615 1.355 . S
C614 C616 1.415 . S
C615 C614 1.355 . S
C615 C617 1.419 . S
C616 C614 1.415 . S
C616 C621 1.425 . S
C616 C623 1.409 . S
C617 H609 0.930 . S
C617 C615 1.419 . S
C617 C618 1.362 . S
C618 H610 0.930 . S
C618 C617 1.362 . S
C618 C621 1.409 . S
C619 H611 0.930 . S
C619 C620 1.355 . S
C619 C621 1.415 . S
C620 C619 1.355 . S
C620 C622 1.419 . S
C621 C616 1.425 . S
C621 C618 1.409 . S
C621 C619 1.415 . S
C622 H612 0.930 . S
C622 C620 1.419 . S
C622 C623 1.362 . S
C623 H613 0.930 . S
C623 C616 1.409 . S
C623 C622 1.362 . S
H624 C630 0.930 . S
H625 C633 0.930 . S
H626 C634 0.930 . S
H627 C635 0.930 . S
H628 C638 0.930 . S
H629 C639 0.930 . S
C630 H624 0.930 . S
C630 C631 1.355 . S
C630 C632 1.415 . S
C631 C630 1.355 . S
C631 C633 1.419 . S
C632 C630 1.415 . S
C632 C637 1.425 . S
C632 C639 1.409 . S
C633 H625 0.930 . S
C633 C631 1.419 . S
C633 C634 1.362 . S
C634 H626 0.930 . S
C634 C633 1.362 . S
C634 C637 1.409 . S
C635 H627 0.930 . S
C635 C636 1.355 . S
C635 C637 1.415 . S
C636 C635 1.355 . S
C636 C638 1.419 . S
C637 C632 1.425 . S
C637 C634 1.409 . S
C637 C635 1.415 . S
C638 H628 0.930 . S
C638 C636 1.419 . S
C638 C639 1.362 . S
C639 H629 0.930 . S
C639 C632 1.409 . S
C639 C638 1.362 . S
H640 C646 0.930 . S
H641 C649 0.930 . S
H642 C650 0.930 . S
H643 C651 0.930 . S
H644 C654 0.930 . S
H645 C655 0.930 . S
C646 H640 0.930 . S
C646 C647 1.355 . S
C646 C648 1.415 . S
C647 C646 1.355 . S
C647 C649 1.419 . S
C648 C646 1.415 . S
C648 C653 1.425 . S
C648 C655 1.409 . S
C649 H641 0.930 . S
C649 C647 1.419 . S
C649 C650 1.362 . S
C650 H642 0.930 . S
C650 C649 1.362 . S
C650 C653 1.409 . S
C651 H643 0.930 . S
C651 C652 1.355 . S
C651 C653 1.415 . S
C652 C651 1.355 . S
C652 C654 1.419 . S
C653 C648 1.425 . S
C653 C650 1.409 . S
C653 C651 1.415 . S
C654 H644 0.930 . S
C654 C652 1.419 . S
C654 C655 1.362 . S
C655 H645 0.930 . S
C655 C648 1.409 . S
C655 C654 1.362 . S
H656 C662 0.930 . S
H657 C665 0.930 . S
H658 C666 0.930 . S
H659 C667 0.930 . S
H660 C670 0.930 . S
H661 C671 0.930 . S
C662 H656 0.930 . S
C662 C663 1.355 . S
C662 C664 1.415 . S
C663 C662 1.355 . S
C663 C665 1.419 . S
C664 C662 1.415 . S
C664 C669 1.425 . S
C664 C671 1.409 . S
C665 H657 0.930 . S
C665 C663 1.419 . S
C665 C666 1.362 . S
C666 H658 0.930 . S
C666 C665 1.362 . S
C666 C669 1.409 . S
C667 H659 0.930 . S
C667 C668 1.355 . S
C667 C669 1.415 . S
C668 C667 1.355 . S
C668 C670 1.419 . S
C669 C664 1.425 . S
C669 C666 1.409 . S
C669 C667 1.415 . S
C670 H660 0.930 . S
C670 C668 1.419 . S
C670 C671 1.362 . S
C671 H661 0.930 . S
C671 C664 1.409 . S
C671 C670 1.362 . S
H672 C678 0.930 . S
H673 C681 0.930 . S
H674 C682 0.930 . S
H675 C683 0.930 . S
H676 C686 0.930 . S
H677 C687 0.930 . S
C678 H672 0.930 . S
C678 C679 1.355 . S
C678 C680 1.415 . S
C679 C678 1.355 . S
C679 C681 1.419 . S
C680 C678 1.415 . S
C680 C685 1.425 . S
C680 C687 1.409 . S
C681 H673 0.930 . S
C681 C679 1.419 . S
C681 C682 1.362 . S
C682 H674 0.930 . S
C682 C681 1.362 . S
C682 C685 1.409 . S
C683 H675 0.930 . S
C683 C684 1.355 . S
C683 C685 1.415 . S
C684 C683 1.355 . S
C684 C686 1.419 . S
C685 C680 1.425 . S
C685 C682 1.409 . S
C685 C683 1.415 . S
C686 H676 0.930 . S
C686 C684 1.419 . S
C686 C687 1.362 . S
C687 H677 0.930 . S
C687 C680 1.409 . S
C687 C686 1.362 . S
H688 C694 0.930 . S
H689 C697 0.930 . S
H690 C698 0.930 . S
H691 C699 0.930 . S
H692 C702 0.930 . S
H693 C703 0.930 . S
C694 H688 0.930 . S
C694 C695 1.355 . S
C694 C696 1.415 . S
C695 C694 1.355 . S
C695 C697 1.419 . S
C696 C694 1.415 . S
C696 C701 1.425 . S
C696 C703 1.409 . S
C697 H689 0.930 . S
C697 C695 1.419 . S
C697 C698 1.362 . S
C698 H690 0.930 . S
C698 C697 1.362 . S
C698 C701 1.409 . S
C699 H691 0.930 . S
C699 C700 1.355 . S
C699 C701 1.415 . S
C700 C699 1.355 . S
C700 C702 1.419 . S
C701 C696 1.425 . S
C701 C698 1.409 . S
C701 C699 1.415 . S
C702 H692 0.930 . S
C702 C700 1.419 . S
C702 C703 1.362 . S
C703 H693 0.930 . S
C703 C696 1.409 . S
C703 C702 1.362 . S
H704 C710 0.930 1_455 S
H705 C713 0.930 . S
H706 C714 0.930 . S
H707 C715 0.930 1_655 S
H708 C718 0.930 . S
H709 C719 0.930 . S
C710 H704 0.930 1_655 S
C710 C711 1.355 . S
C710 C712 1.415 1_655 S
C711 C710 1.355 . S
C711 C713 1.419 . S
C712 C710 1.415 1_455 S
C712 C717 1.425 1_456 S
C712 C719 1.409 . S
C713 H705 0.930 . S
C713 C711 1.419 . S
C713 C714 1.362 1_556 S
C714 H706 0.930 . S
C714 C713 1.362 1_554 S
C714 C717 1.409 . S
C715 H707 0.930 1_455 S
C715 C716 1.355 . S
C715 C717 1.415 1_455 S
C716 C715 1.355 . S
C716 C718 1.419 . S
C717 C712 1.425 1_654 S
C717 C714 1.409 . S
C717 C715 1.415 1_655 S
C718 H708 0.930 . S
C718 C716 1.419 . S
C718 C719 1.362 1_554 S
C719 H709 0.930 . S
C719 C712 1.409 . S
C719 C718 1.362 1_556 S
H720 C726 0.930 . S
H721 C729 0.930 . S
H722 C730 0.930 . S
H723 C731 0.930 . S
H724 C734 0.930 . S
H725 C735 0.930 . S
C726 H720 0.930 . S
C726 C727 1.355 . S
C726 C728 1.415 . S
C727 C726 1.355 . S
C727 C729 1.419 . S
C728 C726 1.415 . S
C728 C733 1.425 1_556 S
C728 C735 1.409 . S
C729 H721 0.930 . S
C729 C727 1.419 . S
C729 C730 1.362 1_556 S
C730 H722 0.930 . S
C730 C729 1.362 1_554 S
C730 C733 1.409 . S
C731 H723 0.930 . S
C731 C732 1.355 . S
C731 C733 1.415 . S
C732 C731 1.355 . S
C732 C734 1.419 . S
C733 C728 1.425 1_554 S
C733 C730 1.409 . S
C733 C731 1.415 . S
C734 H724 0.930 . S
C734 C732 1.419 . S
C734 C735 1.362 1_554 S
C735 H725 0.930 . S
C735 C728 1.409 . S
C735 C734 1.362 1_556 S
H736 C742 0.948 . S
H737 C745 0.930 . S
H738 C746 0.930 . S
H739 C747 0.948 . S
H740 C750 0.930 . S
H741 C751 0.930 . S
C742 H736 0.948 . S
C742 C743 1.355 . S
C742 C744 1.415 1_455 S
C743 C742 1.355 . S
C743 C745 1.419 . S
C744 C742 1.415 1_655 S
C744 C749 1.425 1_655 S
C744 C751 1.409 . S
C745 H737 0.930 . S
C745 C743 1.419 . S
C745 C746 1.362 . S
C746 H738 0.930 . S
C746 C745 1.362 . S
C746 C749 1.409 . S
C747 H739 0.948 . S
C747 C748 1.355 . S
C747 C749 1.415 1_655 S
C748 C747 1.355 . S
C748 C750 1.419 . S
C749 C744 1.425 1_455 S
C749 C746 1.409 . S
C749 C747 1.415 1_455 S
C750 H740 0.930 . S
C750 C748 1.419 . S
C750 C751 1.362 . S
C751 H741 0.930 . S
C751 C744 1.409 . S
C751 C750 1.362 . S
H752 C758 0.930 . S
H753 C761 0.930 . S
H754 C762 0.930 . S
H755 C763 0.930 . S
H756 C766 0.930 . S
H757 C767 0.930 . S
C758 H752 0.930 . S
C758 C759 1.355 . S
C758 C760 1.415 . S
C759 C758 1.355 . S
C759 C761 1.419 . S
C760 C758 1.415 . S
C760 C765 1.425 . S
C760 C767 1.409 . S
C761 H753 0.930 . S
C761 C759 1.419 . S
C761 C762 1.362 . S
C762 H754 0.930 . S
C762 C761 1.362 . S
C762 C765 1.409 . S
C763 H755 0.930 . S
C763 C764 1.355 . S
C763 C765 1.415 . S
C764 C763 1.355 . S
C764 C766 1.419 . S
C765 C760 1.425 . S
C765 C762 1.409 . S
C765 C763 1.415 . S
C766 H756 0.930 . S
C766 C764 1.419 . S
C766 C767 1.362 . S
C767 H757 0.930 . S
C767 C760 1.409 . S
C767 C766 1.362 . S
H768 C774 0.930 . S
H769 C777 0.930 . S
H770 C778 0.930 . S
H771 C779 0.930 . S
H772 C782 0.930 . S
H773 C783 0.930 . S
C774 H768 0.930 . S
C774 C775 1.355 . S
C774 C776 1.415 . S
C775 C774 1.355 . S
C775 C777 1.419 . S
C776 C774 1.415 . S
C776 C781 1.425 1_556 S
C776 C783 1.409 . S
C777 H769 0.930 . S
C777 C775 1.419 . S
C777 C778 1.362 1_556 S
C778 H770 0.930 . S
C778 C777 1.362 1_554 S
C778 C781 1.409 . S
C779 H771 0.930 . S
C779 C780 1.355 . S
C779 C781 1.415 . S
C780 C779 1.355 . S
C780 C782 1.419 . S
C781 C776 1.425 1_554 S
C781 C778 1.409 . S
C781 C779 1.415 . S
C782 H772 0.930 . S
C782 C780 1.419 . S
C782 C783 1.362 1_554 S
C783 H773 0.930 . S
C783 C776 1.409 . S
C783 C782 1.362 1_556 S
H784 C790 0.897 1_455 S
H785 C793 0.930 . S
H786 C794 0.930 . S
H787 C795 0.897 1_655 S
H788 C798 0.930 . S
H789 C799 0.930 . S
C790 H784 0.897 1_655 S
C790 C791 1.406 . S
C790 C792 1.396 1_655 S
C791 C790 1.406 . S
C791 C793 1.419 . S
C792 C790 1.396 1_455 S
C792 C797 1.425 1_455 S
C792 C799 1.409 . S
C793 H785 0.930 . S
C793 C791 1.419 . S
C793 C794 1.362 . S
C794 H786 0.930 . S
C794 C793 1.362 . S
C794 C797 1.409 . S
C795 H787 0.897 1_455 S
C795 C796 1.406 . S
C795 C797 1.396 1_455 S
C796 C795 1.406 . S
C796 C798 1.419 . S
C797 C792 1.425 1_655 S
C797 C794 1.409 . S
C797 C795 1.396 1_655 S
C798 H788 0.930 . S
C798 C796 1.419 . S
C798 C799 1.362 . S
C799 H789 0.930 . S
C799 C792 1.409 . S
C799 C798 1.362 . S
H800 C806 0.930 . S
H801 C809 0.930 . S
H802 C810 0.930 . S
H803 C811 0.930 . S
H804 C814 0.930 . S
H805 C815 0.930 . S
C806 H800 0.930 . S
C806 C807 1.355 . S
C806 C808 1.415 . S
C807 C806 1.355 . S
C807 C809 1.419 . S
C808 C806 1.415 . S
C808 C813 1.425 . S
C808 C815 1.409 . S
C809 H801 0.930 . S
C809 C807 1.419 . S
C809 C810 1.362 . S
C810 H802 0.930 . S
C810 C809 1.362 . S
C810 C813 1.409 . S
C811 H803 0.930 . S
C811 C812 1.355 . S
C811 C813 1.415 . S
C812 C811 1.355 . S
C812 C814 1.419 . S
C813 C808 1.425 . S
C813 C810 1.409 . S
C813 C811 1.415 . S
C814 H804 0.930 . S
C814 C812 1.419 . S
C814 C815 1.362 . S
C815 H805 0.930 . S
C815 C808 1.409 . S
C815 C814 1.362 . S
H816 C822 0.930 . S
H817 C825 0.929 1_455 S
H818 C826 0.930 . S
H819 C827 0.930 . S
H820 C830 0.929 1_655 S
H821 C831 0.930 . S
C822 H816 0.930 . S
C822 C823 1.355 . S
C822 C824 1.415 . S
C823 C822 1.355 . S
C823 C825 1.424 . S
C824 C822 1.415 . S
C824 C829 1.425 1_645 S
C824 C831 1.409 . S
C825 H817 0.929 1_655 S
C825 C823 1.424 . S
C825 C826 1.358 1_645 S
C826 H818 0.930 . S
C826 C825 1.358 1_465 S
C826 C829 1.409 . S
C827 H819 0.930 . S
C827 C828 1.355 . S
C827 C829 1.415 . S
C828 C827 1.355 . S
C828 C830 1.424 . S
C829 C824 1.425 1_465 S
C829 C826 1.409 . S
C829 C827 1.415 . S
C830 H820 0.929 1_455 S
C830 C828 1.424 . S
C830 C831 1.358 1_465 S
C831 H821 0.930 . S
C831 C824 1.409 . S
C831 C830 1.358 1_645 S
H832 C838 0.930 . S
H833 C841 0.930 . S
H834 C842 0.930 . S
H835 C843 0.930 . S
H836 C846 0.930 . S
H837 C847 0.930 . S
C838 H832 0.930 . S
C838 C839 1.355 . S
C838 C840 1.415 . S
C839 C838 1.355 . S
C839 C841 1.419 . S
C840 C838 1.415 . S
C840 C845 1.425 . S
C840 C847 1.409 . S
C841 H833 0.930 . S
C841 C839 1.419 . S
C841 C842 1.362 . S
C842 H834 0.930 . S
C842 C841 1.362 . S
C842 C845 1.409 . S
C843 H835 0.930 . S
C843 C844 1.355 . S
C843 C845 1.415 . S
C844 C843 1.355 . S
C844 C846 1.419 . S
C845 C840 1.425 . S
C845 C842 1.409 . S
C845 C843 1.415 . S
C846 H836 0.930 . S
C846 C844 1.419 . S
C846 C847 1.362 . S
C847 H837 0.930 . S
C847 C840 1.409 . S
C847 C846 1.362 . S
H848 C854 0.930 . S
H849 C857 0.930 . S
H850 C858 0.930 . S
H851 C859 0.930 . S
H852 C862 0.930 . S
H853 C863 0.930 . S
C854 H848 0.930 . S
C854 C855 1.355 . S
C854 C856 1.415 . S
C855 C854 1.355 . S
C855 C857 1.419 . S
C856 C854 1.415 . S
C856 C861 1.425 1_565 S
C856 C863 1.409 1_565 S
C857 H849 0.930 . S
C857 C855 1.419 . S
C857 C858 1.362 . S
C858 H850 0.930 . S
C858 C857 1.362 . S
C858 C861 1.409 1_565 S
C859 H851 0.930 . S
C859 C860 1.355 . S
C859 C861 1.415 . S
C860 C859 1.355 . S
C860 C862 1.419 . S
C861 C856 1.425 1_545 S
C861 C858 1.409 1_545 S
C861 C859 1.415 . S
C862 H852 0.930 . S
C862 C860 1.419 . S
C862 C863 1.362 . S
C863 H853 0.930 . S
C863 C856 1.409 1_545 S
C863 C862 1.362 . S
H864 C870 0.930 . S
H865 C873 0.930 . S
H866 C874 0.930 . S
H867 C875 0.930 . S
H868 C878 0.930 . S
H869 C879 0.930 . S
C870 H864 0.930 . S
C870 C871 1.355 . S
C870 C872 1.415 . S
C871 C870 1.355 . S
C871 C873 1.419 . S
C872 C870 1.415 . S
C872 C877 1.425 . S
C872 C879 1.409 . S
C873 H865 0.930 . S
C873 C871 1.419 . S
C873 C874 1.362 . S
C874 H866 0.930 . S
C874 C873 1.362 . S
C874 C877 1.409 . S
C875 H867 0.930 . S
C875 C876 1.355 . S
C875 C877 1.415 . S
C876 C875 1.355 . S
C876 C878 1.419 . S
C877 C872 1.425 . S
C877 C874 1.409 . S
C877 C875 1.415 . S
C878 H868 0.930 . S
C878 C876 1.419 . S
C878 C879 1.362 . S
C879 H869 0.930 . S
C879 C872 1.409 . S
C879 C878 1.362 . S
H880 C886 0.930 . S
H881 C889 0.930 . S
H882 C890 0.930 . S
H883 C891 0.930 . S
H884 C894 0.930 . S
H885 C895 0.930 . S
C886 H880 0.930 . S
C886 C887 1.355 . S
C886 C888 1.415 . S
C887 C886 1.355 . S
C887 C889 1.419 1_565 S
C888 C886 1.415 . S
C888 C893 1.425 1_565 S
C888 C895 1.409 . S
C889 H881 0.930 . S
C889 C887 1.419 1_545 S
C889 C890 1.362 . S
C890 H882 0.930 . S
C890 C889 1.362 . S
C890 C893 1.409 . S
C891 H883 0.930 . S
C891 C892 1.355 . S
C891 C893 1.415 . S
C892 C891 1.355 . S
C892 C894 1.419 1_545 S
C893 C888 1.425 1_545 S
C893 C890 1.409 . S
C893 C891 1.415 . S
C894 H884 0.930 . S
C894 C892 1.419 1_565 S
C894 C895 1.362 . S
C895 H885 0.930 . S
C895 C888 1.409 . S
C895 C894 1.362 . S
H896 C902 0.930 . S
H897 C905 0.930 . S
H898 C906 0.930 . S
H899 C907 0.930 . S
H900 C910 0.930 . S
H901 C911 0.930 . S
C902 H896 0.930 . S
C902 C903 1.355 . S
C902 C904 1.415 . S
C903 C902 1.355 . S
C903 C905 1.419 . S
C904 C902 1.415 . S
C904 C909 1.425 . S
C904 C911 1.409 . S
C905 H897 0.930 . S
C905 C903 1.419 . S
C905 C906 1.362 . S
C906 H898 0.930 . S
C906 C905 1.362 . S
C906 C909 1.409 . S
C907 H899 0.930 . S
C907 C908 1.355 . S
C907 C909 1.415 . S
C908 C907 1.355 . S
C908 C910 1.419 . S
C909 C904 1.425 . S
C909 C906 1.409 . S
C909 C907 1.415 . S
C910 H900 0.930 . S
C910 C908 1.419 . S
C910 C911 1.362 . S
C911 H901 0.930 . S
C911 C904 1.409 . S
C911 C910 1.362 . S
H912 C918 0.930 . S
H913 C921 0.930 . S
H914 C922 0.930 . S
H915 C923 0.930 . S
H916 C926 0.930 . S
H917 C927 0.930 . S
C918 H912 0.930 . S
C918 C919 1.355 . S
C918 C920 1.415 . S
C919 C918 1.355 . S
C919 C921 1.419 . S
C920 C918 1.415 . S
C920 C925 1.425 . S
C920 C927 1.409 . S
C921 H913 0.930 . S
C921 C919 1.419 . S
C921 C922 1.362 . S
C922 H914 0.930 . S
C922 C921 1.362 . S
C922 C925 1.409 . S
C923 H915 0.930 . S
C923 C924 1.355 . S
C923 C925 1.415 . S
C924 C923 1.355 . S
C924 C926 1.419 . S
C925 C920 1.425 . S
C925 C922 1.409 . S
C925 C923 1.415 . S
C926 H916 0.930 . S
C926 C924 1.419 . S
C926 C927 1.362 . S
C927 H917 0.930 . S
C927 C920 1.409 . S
C927 C926 1.362 . S
H928 C934 0.930 . S
H929 C937 0.930 . S
H930 C938 0.930 . S
H931 C939 0.930 . S
H932 C942 0.930 . S
H933 C943 0.930 . S
C934 H928 0.930 . S
C934 C935 1.355 . S
C934 C936 1.415 . S
C935 C934 1.355 . S
C935 C937 1.419 . S
C936 C934 1.415 . S
C936 C941 1.425 . S
C936 C943 1.409 . S
C937 H929 0.930 . S
C937 C935 1.419 . S
C937 C938 1.362 . S
C938 H930 0.930 . S
C938 C937 1.362 . S
C938 C941 1.409 . S
C939 H931 0.930 . S
C939 C940 1.355 . S
C939 C941 1.415 . S
C940 C939 1.355 . S
C940 C942 1.419 . S
C941 C936 1.425 . S
C941 C938 1.409 . S
C941 C939 1.415 . S
C942 H932 0.930 . S
C942 C940 1.419 . S
C942 C943 1.362 . S
C943 H933 0.930 . S
C943 C936 1.409 . S
C943 C942 1.362 . S
H944 C950 0.930 . S
H945 C953 0.930 . S
H946 C954 0.930 . S
H947 C955 0.930 . S
H948 C958 0.930 . S
H949 C959 0.930 . S
C950 H944 0.930 . S
C950 C951 1.355 . S
C950 C952 1.415 1_546 S
C951 C950 1.355 . S
C951 C953 1.419 . S
C952 C950 1.415 1_564 S
C952 C957 1.425 1_564 S
C952 C959 1.409 . S
C953 H945 0.930 . S
C953 C951 1.419 . S
C953 C954 1.362 . S
C954 H946 0.930 . S
C954 C953 1.362 . S
C954 C957 1.409 . S
C955 H947 0.930 . S
C955 C956 1.355 . S
C955 C957 1.415 1_564 S
C956 C955 1.355 . S
C956 C958 1.419 . S
C957 C952 1.425 1_546 S
C957 C954 1.409 . S
C957 C955 1.415 1_546 S
C958 H948 0.930 . S
C958 C956 1.419 . S
C958 C959 1.362 . S
C959 H949 0.930 . S
C959 C952 1.409 . S
C959 C958 1.362 . S
H960 C966 0.930 . S
H961 C969 0.930 . S
H962 C970 0.930 . S
H963 C971 0.930 . S
H964 C974 0.930 . S
H965 C975 0.930 . S
C966 H960 0.930 . S
C966 C967 1.355 . S
C966 C968 1.415 . S
C967 C966 1.355 . S
C967 C969 1.419 . S
C968 C966 1.415 . S
C968 C973 1.425 . S
C968 C975 1.409 . S
C969 H961 0.930 . S
C969 C967 1.419 . S
C969 C970 1.362 . S
C970 H962 0.930 . S
C970 C969 1.362 . S
C970 C973 1.409 . S
C971 H963 0.930 . S
C971 C972 1.355 . S
C971 C973 1.415 . S
C972 C971 1.355 . S
C972 C974 1.419 . S
C973 C968 1.425 . S
C973 C970 1.409 . S
C973 C971 1.415 . S
C974 H964 0.930 . S
C974 C972 1.419 . S
C974 C975 1.362 . S
C975 H965 0.930 . S
C975 C968 1.409 . S
C975 C974 1.362 . S
H976 C982 0.930 . S
H977 C985 0.930 . S
H978 C986 0.930 . S
H979 C987 0.930 . S
H980 C990 0.930 . S
H981 C991 0.930 . S
C982 H976 0.930 . S
C982 C983 1.355 . S
C982 C984 1.415 . S
C983 C982 1.355 . S
C983 C985 1.419 . S
C984 C982 1.415 . S
C984 C989 1.425 . S
C984 C991 1.409 . S
C985 H977 0.930 . S
C985 C983 1.419 . S
C985 C986 1.362 . S
C986 H978 0.930 . S
C986 C985 1.362 . S
C986 C989 1.409 . S
C987 H979 0.930 . S
C987 C988 1.355 . S
C987 C989 1.415 . S
C988 C987 1.355 . S
C988 C990 1.419 . S
C989 C984 1.425 . S
C989 C986 1.409 . S
C989 C987 1.415 . S
C990 H980 0.930 . S
C990 C988 1.419 . S
C990 C991 1.362 . S
C991 H981 0.930 . S
C991 C984 1.409 . S
C991 C990 1.362 . S
H992 C998 0.930 . S
H993 C1001 0.930 . S
H994 C1002 0.930 . S
H995 C1003 0.930 . S
H996 C1006 0.930 . S
H997 C1007 0.930 . S
C998 H992 0.930 . S
C998 C999 1.355 . S
C998 C1000 1.415 . S
C999 C998 1.355 . S
C999 C1001 1.419 . S
C1000 C998 1.415 . S
C1000 C1005 1.425 . S
C1000 C1007 1.409 . S
C1001 H993 0.930 . S
C1001 C999 1.419 . S
C1001 C1002 1.362 . S
C1002 H994 0.930 . S
C1002 C1001 1.362 . S
C1002 C1005 1.409 . S
C1003 H995 0.930 . S
C1003 C1004 1.355 . S
C1003 C1005 1.415 . S
C1004 C1003 1.355 . S
C1004 C1006 1.419 . S
C1005 C1000 1.425 . S
C1005 C1002 1.409 . S
C1005 C1003 1.415 . S
C1006 H996 0.930 . S
C1006 C1004 1.419 . S
C1006 C1007 1.362 . S
C1007 H997 0.930 . S
C1007 C1000 1.409 . S
C1007 C1006 1.362 . S
H1008 C1014 0.930 . S
H1009 C1017 0.930 . S
H1010 C1018 0.930 . S
H1011 C1019 0.930 . S
H1012 C1022 0.930 . S
H1013 C1023 0.930 . S
C1014 H1008 0.930 . S
C1014 C1015 1.355 . S
C1014 C1016 1.415 . S
C1015 C1014 1.355 . S
C1015 C1017 1.419 . S
C1016 C1014 1.415 . S
C1016 C1021 1.425 . S
C1016 C1023 1.409 . S
C1017 H1009 0.930 . S
C1017 C1015 1.419 . S
C1017 C1018 1.362 . S
C1018 H1010 0.930 . S
C1018 C1017 1.362 . S
C1018 C1021 1.409 . S
C1019 H1011 0.930 . S
C1019 C1020 1.355 . S
C1019 C1021 1.415 . S
C1020 C1019 1.355 . S
C1020 C1022 1.419 . S
C1021 C1016 1.425 . S
C1021 C1018 1.409 . S
C1021 C1019 1.415 . S
C1022 H1012 0.930 . S
C1022 C1020 1.419 . S
C1022 C1023 1.362 . S
C1023 H1013 0.930 . S
C1023 C1016 1.409 . S
C1023 C1022 1.362 . S
H1024 C1030 0.930 . S
H1025 C1033 0.930 . S
H1026 C1034 0.930 1_545 S
H1027 C1035 0.930 . S
H1028 C1038 0.930 . S
H1029 C1039 0.930 . S
C1030 H1024 0.930 . S
C1030 C1031 1.355 . S
C1030 C1032 1.415 . S
C1031 C1030 1.355 . S
C1031 C1033 1.419 . S
C1032 C1030 1.415 . S
C1032 C1037 1.425 . S
C1032 C1039 1.409 . S
C1033 H1025 0.930 . S
C1033 C1031 1.419 . S
C1033 C1034 1.362 . S
C1034 H1026 0.930 1_565 S
C1034 C1033 1.362 . S
C1034 C1037 1.409 . S
C1035 H1027 0.930 . S
C1035 C1036 1.355 . S
C1035 C1037 1.415 . S
C1036 C1035 1.355 . S
C1036 C1038 1.419 . S
C1037 C1032 1.425 . S
C1037 C1034 1.409 . S
C1037 C1035 1.415 . S
C1038 H1028 0.930 . S
C1038 C1036 1.419 . S
C1038 C1039 1.362 . S
C1039 H1029 0.930 . S
C1039 C1032 1.409 . S
C1039 C1038 1.362 . S
H1040 C1046 0.930 . S
H1041 C1049 0.930 . S
H1042 C1050 0.930 . S
H1043 C1051 0.930 . S
H1044 C1054 0.930 . S
H1045 C1055 0.930 . S
C1046 H1040 0.930 . S
C1046 C1047 1.355 . S
C1046 C1048 1.415 . S
C1047 C1046 1.355 . S
C1047 C1049 1.419 . S
C1048 C1046 1.415 . S
C1048 C1053 1.425 . S
C1048 C1055 1.409 . S
C1049 H1041 0.930 . S
C1049 C1047 1.419 . S
C1049 C1050 1.362 . S
C1050 H1042 0.930 . S
C1050 C1049 1.362 . S
C1050 C1053 1.409 . S
C1051 H1043 0.930 . S
C1051 C1052 1.355 . S
C1051 C1053 1.415 . S
C1052 C1051 1.355 . S
C1052 C1054 1.419 . S
C1053 C1048 1.425 . S
C1053 C1050 1.409 . S
C1053 C1051 1.415 . S
C1054 H1044 0.930 . S
C1054 C1052 1.419 . S
C1054 C1055 1.362 . S
C1055 H1045 0.930 . S
C1055 C1048 1.409 . S
C1055 C1054 1.362 . S
H1056 C1062 0.930 . S
H1057 C1065 0.930 . S
H1058 C1066 0.930 . S
H1059 C1067 0.930 . S
H1060 C1070 0.930 . S
H1061 C1071 0.930 . S
C1062 H1056 0.930 . S
C1062 C1063 1.355 . S
C1062 C1064 1.415 . S
C1063 C1062 1.355 . S
C1063 C1065 1.419 . S
C1064 C1062 1.415 . S
C1064 C1069 1.425 . S
C1064 C1071 1.409 . S
C1065 H1057 0.930 . S
C1065 C1063 1.419 . S
C1065 C1066 1.362 . S
C1066 H1058 0.930 . S
C1066 C1065 1.362 . S
C1066 C1069 1.409 . S
C1067 H1059 0.930 . S
C1067 C1068 1.355 . S
C1067 C1069 1.415 . S
C1068 C1067 1.355 . S
C1068 C1070 1.419 . S
C1069 C1064 1.425 . S
C1069 C1066 1.409 . S
C1069 C1067 1.415 . S
C1070 H1060 0.930 . S
C1070 C1068 1.419 . S
C1070 C1071 1.362 . S
C1071 H1061 0.930 . S
C1071 C1064 1.409 . S
C1071 C1070 1.362 . S
H1072 C1078 0.930 . S
H1073 C1081 0.930 . S
H1074 C1082 0.930 . S
H1075 C1083 0.930 . S
H1076 C1086 0.930 . S
H1077 C1087 0.930 . S
C1078 H1072 0.930 . S
C1078 C1079 1.355 . S
C1078 C1080 1.415 . S
C1079 C1078 1.355 . S
C1079 C1081 1.419 . S
C1080 C1078 1.415 . S
C1080 C1085 1.425 . S
C1080 C1087 1.409 . S
C1081 H1073 0.930 . S
C1081 C1079 1.419 . S
C1081 C1082 1.362 . S
C1082 H1074 0.930 . S
C1082 C1081 1.362 . S
C1082 C1085 1.409 . S
C1083 H1075 0.930 . S
C1083 C1084 1.355 . S
C1083 C1085 1.415 . S
C1084 C1083 1.355 . S
C1084 C1086 1.419 . S
C1085 C1080 1.425 . S
C1085 C1082 1.409 . S
C1085 C1083 1.415 . S
C1086 H1076 0.930 . S
C1086 C1084 1.419 . S
C1086 C1087 1.362 . S
C1087 H1077 0.930 . S
C1087 C1080 1.409 . S
C1087 C1086 1.362 . S
H1088 C1094 0.930 . S
H1089 C1097 0.930 . S
H1090 C1098 0.930 . S
H1091 C1099 0.930 . S
H1092 C1102 0.930 . S
H1093 C1103 0.930 . S
C1094 H1088 0.930 . S
C1094 C1095 1.355 . S
C1094 C1096 1.415 . S
C1095 C1094 1.355 . S
C1095 C1097 1.419 . S
C1096 C1094 1.415 . S
C1096 C1101 1.425 . S
C1096 C1103 1.409 . S
C1097 H1089 0.930 . S
C1097 C1095 1.419 . S
C1097 C1098 1.362 . S
C1098 H1090 0.930 . S
C1098 C1097 1.362 . S
C1098 C1101 1.409 . S
C1099 H1091 0.930 . S
C1099 C1100 1.355 . S
C1099 C1101 1.415 . S
C1100 C1099 1.355 . S
C1100 C1102 1.419 . S
C1101 C1096 1.425 . S
C1101 C1098 1.409 . S
C1101 C1099 1.415 . S
C1102 H1092 0.930 . S
C1102 C1100 1.419 . S
C1102 C1103 1.362 . S
C1103 H1093 0.930 . S
C1103 C1096 1.409 . S
C1103 C1102 1.362 . S
H1104 C1110 0.930 . S
H1105 C1113 0.930 . S
H1106 C1114 0.930 . S
H1107 C1115 0.930 . S
H1108 C1118 0.930 . S
H1109 C1119 0.930 . S
C1110 H1104 0.930 . S
C1110 C1111 1.355 . S
C1110 C1112 1.415 . S
C1111 C1110 1.355 . S
C1111 C1113 1.419 . S
C1112 C1110 1.415 . S
C1112 C1117 1.425 . S
C1112 C1119 1.409 . S
C1113 H1105 0.930 . S
C1113 C1111 1.419 . S
C1113 C1114 1.362 . S
C1114 H1106 0.930 . S
C1114 C1113 1.362 . S
C1114 C1117 1.409 . S
C1115 H1107 0.930 . S
C1115 C1116 1.355 . S
C1115 C1117 1.415 . S
C1116 C1115 1.355 . S
C1116 C1118 1.419 . S
C1117 C1112 1.425 . S
C1117 C1114 1.409 . S
C1117 C1115 1.415 . S
C1118 H1108 0.930 . S
C1118 C1116 1.419 . S
C1118 C1119 1.362 . S
C1119 H1109 0.930 . S
C1119 C1112 1.409 . S
C1119 C1118 1.362 . S
H1120 C1126 0.930 . S
H1121 C1129 0.930 . S
H1122 C1130 0.930 . S
H1123 C1131 0.930 . S
H1124 C1134 0.930 . S
H1125 C1135 0.930 . S
C1126 H1120 0.930 . S
C1126 C1127 1.355 . S
C1126 C1128 1.415 . S
C1127 C1126 1.355 . S
C1127 C1129 1.419 . S
C1128 C1126 1.415 . S
C1128 C1133 1.425 . S
C1128 C1135 1.409 . S
C1129 H1121 0.930 . S
C1129 C1127 1.419 . S
C1129 C1130 1.362 . S
C1130 H1122 0.930 . S
C1130 C1129 1.362 . S
C1130 C1133 1.409 . S
C1131 H1123 0.930 . S
C1131 C1132 1.355 . S
C1131 C1133 1.415 . S
C1132 C1131 1.355 . S
C1132 C1134 1.419 . S
C1133 C1128 1.425 . S
C1133 C1130 1.409 . S
C1133 C1131 1.415 . S
C1134 H1124 0.930 . S
C1134 C1132 1.419 . S
C1134 C1135 1.362 . S
C1135 H1125 0.930 . S
C1135 C1128 1.409 . S
C1135 C1134 1.362 . S
H1136 C1142 0.930 . S
H1137 C1145 0.930 . S
H1138 C1146 0.930 . S
H1139 C1147 0.930 . S
H1140 C1150 0.930 . S
H1141 C1151 0.930 . S
C1142 H1136 0.930 . S
C1142 C1143 1.355 . S
C1142 C1144 1.415 . S
C1143 C1142 1.355 . S
C1143 C1145 1.419 . S
C1144 C1142 1.415 . S
C1144 C1149 1.425 . S
C1144 C1151 1.409 . S
C1145 H1137 0.930 . S
C1145 C1143 1.419 . S
C1145 C1146 1.362 . S
C1146 H1138 0.930 . S
C1146 C1145 1.362 . S
C1146 C1149 1.409 . S
C1147 H1139 0.930 . S
C1147 C1148 1.355 . S
C1147 C1149 1.415 . S
C1148 C1147 1.355 . S
C1148 C1150 1.419 . S
C1149 C1144 1.425 . S
C1149 C1146 1.409 . S
C1149 C1147 1.415 . S
C1150 H1140 0.930 . S
C1150 C1148 1.419 . S
C1150 C1151 1.362 . S
C1151 H1141 0.930 . S
C1151 C1144 1.409 . S
C1151 C1150 1.362 . S
H1152 C1158 0.930 . S
H1153 C1161 0.930 . S
H1154 C1162 0.930 . S
H1155 C1163 0.930 . S
H1156 C1166 0.930 . S
H1157 C1167 0.930 . S
C1158 H1152 0.930 . S
C1158 C1159 1.355 . S
C1158 C1160 1.415 . S
C1159 C1158 1.355 . S
C1159 C1161 1.419 . S
C1160 C1158 1.415 . S
C1160 C1165 1.425 . S
C1160 C1167 1.409 . S
C1161 H1153 0.930 . S
C1161 C1159 1.419 . S
C1161 C1162 1.362 . S
C1162 H1154 0.930 . S
C1162 C1161 1.362 . S
C1162 C1165 1.409 . S
C1163 H1155 0.930 . S
C1163 C1164 1.355 . S
C1163 C1165 1.415 . S
C1164 C1163 1.355 . S
C1164 C1166 1.419 . S
C1165 C1160 1.425 . S
C1165 C1162 1.409 . S
C1165 C1163 1.415 . S
C1166 H1156 0.930 . S
C1166 C1164 1.419 . S
C1166 C1167 1.362 . S
C1167 H1157 0.930 . S
C1167 C1160 1.409 . S
C1167 C1166 1.362 . S
H1168 C1174 0.930 . S
H1169 C1177 0.930 . S
H1170 C1178 0.930 . S
H1171 C1179 0.930 . S
H1172 C1182 0.930 . S
H1173 C1183 0.930 . S
C1174 H1168 0.930 . S
C1174 C1175 1.355 . S
C1174 C1176 1.415 . S
C1175 C1174 1.355 . S
C1175 C1177 1.419 . S
C1176 C1174 1.415 . S
C1176 C1181 1.425 . S
C1176 C1183 1.409 . S
C1177 H1169 0.930 . S
C1177 C1175 1.419 . S
C1177 C1178 1.362 . S
C1178 H1170 0.930 . S
C1178 C1177 1.362 . S
C1178 C1181 1.409 . S
C1179 H1171 0.930 . S
C1179 C1180 1.355 . S
C1179 C1181 1.415 . S
C1180 C1179 1.355 . S
C1180 C1182 1.419 . S
C1181 C1176 1.425 . S
C1181 C1178 1.409 . S
C1181 C1179 1.415 . S
C1182 H1172 0.930 . S
C1182 C1180 1.419 . S
C1182 C1183 1.362 . S
C1183 H1173 0.930 . S
C1183 C1176 1.409 . S
C1183 C1182 1.362 . S
H1184 C1190 0.930 . S
H1185 C1193 0.930 . S
H1186 C1194 0.930 . S
H1187 C1195 0.930 . S
H1188 C1198 0.930 . S
H1189 C1199 0.930 . S
C1190 H1184 0.930 . S
C1190 C1191 1.355 . S
C1190 C1192 1.415 . S
C1191 C1190 1.355 . S
C1191 C1193 1.419 . S
C1192 C1190 1.415 . S
C1192 C1197 1.425 . S
C1192 C1199 1.409 . S
C1193 H1185 0.930 . S
C1193 C1191 1.419 . S
C1193 C1194 1.362 . S
C1194 H1186 0.930 . S
C1194 C1193 1.362 . S
C1194 C1197 1.409 . S
C1195 H1187 0.930 . S
C1195 C1196 1.355 . S
C1195 C1197 1.415 . S
C1196 C1195 1.355 . S
C1196 C1198 1.419 . S
C1197 C1192 1.425 . S
C1197 C1194 1.409 . S
C1197 C1195 1.415 . S
C1198 H1188 0.930 . S
C1198 C1196 1.419 . S
C1198 C1199 1.362 . S
C1199 H1189 0.930 . S
C1199 C1192 1.409 . S
C1199 C1198 1.362 . S
H1200 C1206 0.930 . S
H1201 C1209 0.930 . S
H1202 C1210 0.930 . S
H1203 C1211 0.930 . S
H1204 C1214 0.930 . S
H1205 C1215 0.930 . S
C1206 H1200 0.930 . S
C1206 C1207 1.355 . S
C1206 C1208 1.415 . S
C1207 C1206 1.355 . S
C1207 C1209 1.419 . S
C1208 C1206 1.415 . S
C1208 C1213 1.425 . S
C1208 C1215 1.409 . S
C1209 H1201 0.930 . S
C1209 C1207 1.419 . S
C1209 C1210 1.362 . S
C1210 H1202 0.930 . S
C1210 C1209 1.362 . S
C1210 C1213 1.409 . S
C1211 H1203 0.930 . S
C1211 C1212 1.355 . S
C1211 C1213 1.415 . S
C1212 C1211 1.355 . S
C1212 C1214 1.419 . S
C1213 C1208 1.425 . S
C1213 C1210 1.409 . S
C1213 C1211 1.415 . S
C1214 H1204 0.930 . S
C1214 C1212 1.419 . S
C1214 C1215 1.362 . S
C1215 H1205 0.930 . S
C1215 C1208 1.409 . S
C1215 C1214 1.362 . S
H1216 C1222 0.930 . S
H1217 C1225 0.930 . S
H1218 C1226 0.930 . S
H1219 C1227 0.930 . S
H1220 C1230 0.930 . S
H1221 C1231 0.930 . S
C1222 H1216 0.930 . S
C1222 C1223 1.355 . S
C1222 C1224 1.415 . S
C1223 C1222 1.355 . S
C1223 C1225 1.419 . S
C1224 C1222 1.415 . S
C1224 C1229 1.425 . S
C1224 C1231 1.409 . S
C1225 H1217 0.930 . S
C1225 C1223 1.419 . S
C1225 C1226 1.362 . S
C1226 H1218 0.930 . S
C1226 C1225 1.362 . S
C1226 C1229 1.409 . S
C1227 H1219 0.930 . S
C1227 C1228 1.355 . S
C1227 C1229 1.415 . S
C1228 C1227 1.355 . S
C1228 C1230 1.419 . S
C1229 C1224 1.425 . S
C1229 C1226 1.409 . S
C1229 C1227 1.415 . S
C1230 H1220 0.930 . S
C1230 C1228 1.419 . S
C1230 C1231 1.362 . S
C1231 H1221 0.930 . S
C1231 C1224 1.409 . S
C1231 C1230 1.362 . S
H1232 C1238 0.930 . S
H1233 C1241 0.930 . S
H1234 C1242 0.930 . S
H1235 C1243 0.930 . S
H1236 C1246 0.930 . S
H1237 C1247 0.930 . S
C1238 H1232 0.930 . S
C1238 C1239 1.355 . S
C1238 C1240 1.415 . S
C1239 C1238 1.355 . S
C1239 C1241 1.419 . S
C1240 C1238 1.415 . S
C1240 C1245 1.425 . S
C1240 C1247 1.409 . S
C1241 H1233 0.930 . S
C1241 C1239 1.419 . S
C1241 C1242 1.362 . S
C1242 H1234 0.930 . S
C1242 C1241 1.362 . S
C1242 C1245 1.409 . S
C1243 H1235 0.930 . S
C1243 C1244 1.355 . S
C1243 C1245 1.415 . S
C1244 C1243 1.355 . S
C1244 C1246 1.419 . S
C1245 C1240 1.425 . S
C1245 C1242 1.409 . S
C1245 C1243 1.415 . S
C1246 H1236 0.930 . S
C1246 C1244 1.419 . S
C1246 C1247 1.362 . S
C1247 H1237 0.930 . S
C1247 C1240 1.409 . S
C1247 C1246 1.362 . S
H1248 C1254 0.930 . S
H1249 C1257 0.930 . S
H1250 C1258 0.930 . S
H1251 C1259 0.930 . S
H1252 C1262 0.930 . S
H1253 C1263 0.930 . S
C1254 H1248 0.930 . S
C1254 C1255 1.355 . S
C1254 C1256 1.415 . S
C1255 C1254 1.355 . S
C1255 C1257 1.419 . S
C1256 C1254 1.415 . S
C1256 C1261 1.425 . S
C1256 C1263 1.409 . S
C1257 H1249 0.930 . S
C1257 C1255 1.419 . S
C1257 C1258 1.362 . S
C1258 H1250 0.930 . S
C1258 C1257 1.362 . S
C1258 C1261 1.409 . S
C1259 H1251 0.930 . S
C1259 C1260 1.355 . S
C1259 C1261 1.415 . S
C1260 C1259 1.355 . S
C1260 C1262 1.419 . S
C1261 C1256 1.425 . S
C1261 C1258 1.409 . S
C1261 C1259 1.415 . S
C1262 H1252 0.930 . S
C1262 C1260 1.419 . S
C1262 C1263 1.362 . S
C1263 H1253 0.930 . S
C1263 C1256 1.409 . S
C1263 C1262 1.362 . S
H1264 C1270 0.930 . S
H1265 C1273 0.930 . S
H1266 C1274 0.930 . S
H1267 C1275 0.930 . S
H1268 C1278 0.930 . S
H1269 C1279 0.930 . S
C1270 H1264 0.930 . S
C1270 C1271 1.355 . S
C1270 C1272 1.415 . S
C1271 C1270 1.355 . S
C1271 C1273 1.419 . S
C1272 C1270 1.415 . S
C1272 C1277 1.425 . S
C1272 C1279 1.409 . S
C1273 H1265 0.930 . S
C1273 C1271 1.419 . S
C1273 C1274 1.362 . S
C1274 H1266 0.930 . S
C1274 C1273 1.362 . S
C1274 C1277 1.409 . S
C1275 H1267 0.930 . S
C1275 C1276 1.355 . S
C1275 C1277 1.415 . S
C1276 C1275 1.355 . S
C1276 C1278 1.419 . S
C1277 C1272 1.425 . S
C1277 C1274 1.409 . S
C1277 C1275 1.415 . S
C1278 H1268 0.930 . S
C1278 C1276 1.419 . S
C1278 C1279 1.362 . S
C1279 H1269 0.930 . S
C1279 C1272 1.409 . S
C1279 C1278 1.362 . S
H1280 C1286 0.930 . S
H1281 C1289 0.930 . S
H1282 C1290 0.930 . S
H1283 C1291 0.930 . S
H1284 C1294 0.930 . S
H1285 C1295 0.930 . S
C1286 H1280 0.930 . S
C1286 C1287 1.355 . S
C1286 C1288 1.415 . S
C1287 C1286 1.355 . S
C1287 C1289 1.419 . S
C1288 C1286 1.415 . S
C1288 C1293 1.425 . S
C1288 C1295 1.409 . S
C1289 H1281 0.930 . S
C1289 C1287 1.419 . S
C1289 C1290 1.362 . S
C1290 H1282 0.930 . S
C1290 C1289 1.362 . S
C1290 C1293 1.409 . S
C1291 H1283 0.930 . S
C1291 C1292 1.355 . S
C1291 C1293 1.415 . S
C1292 C1291 1.355 . S
C1292 C1294 1.419 . S
C1293 C1288 1.425 . S
C1293 C1290 1.409 . S
C1293 C1291 1.415 . S
C1294 H1284 0.930 . S
C1294 C1292 1.419 . S
C1294 C1295 1.362 . S
C1295 H1285 0.930 . S
C1295 C1288 1.409 . S
C1295 C1294 1.362 . S
H1296 C1302 0.930 . S
H1297 C1305 0.930 . S
H1298 C1306 0.930 . S
H1299 C1307 0.930 . S
H1300 C1310 0.930 . S
H1301 C1311 0.930 . S
C1302 H1296 0.930 . S
C1302 C1303 1.355 . S
C1302 C1304 1.415 . S
C1303 C1302 1.355 . S
C1303 C1305 1.419 . S
C1304 C1302 1.415 . S
C1304 C1309 1.425 . S
C1304 C1311 1.409 . S
C1305 H1297 0.930 . S
C1305 C1303 1.419 . S
C1305 C1306 1.362 . S
C1306 H1298 0.930 . S
C1306 C1305 1.362 . S
C1306 C1309 1.409 . S
C1307 H1299 0.930 . S
C1307 C1308 1.355 . S
C1307 C1309 1.415 . S
C1308 C1307 1.355 . S
C1308 C1310 1.419 . S
C1309 C1304 1.425 . S
C1309 C1306 1.409 . S
C1309 C1307 1.415 . S
C1310 H1300 0.930 . S
C1310 C1308 1.419 . S
C1310 C1311 1.362 . S
C1311 H1301 0.930 . S
C1311 C1304 1.409 . S
C1311 C1310 1.362 . S
H1312 C1318 0.930 . S
H1313 C1321 0.930 . S
H1314 C1322 0.930 . S
H1315 C1323 0.930 . S
H1316 C1326 0.930 . S
H1317 C1327 0.930 . S
C1318 H1312 0.930 . S
C1318 C1319 1.355 . S
C1318 C1320 1.415 . S
C1319 C1318 1.355 . S
C1319 C1321 1.419 . S
C1320 C1318 1.415 . S
C1320 C1325 1.425 . S
C1320 C1327 1.409 . S
C1321 H1313 0.930 . S
C1321 C1319 1.419 . S
C1321 C1322 1.362 . S
C1322 H1314 0.930 . S
C1322 C1321 1.362 . S
C1322 C1325 1.409 . S
C1323 H1315 0.930 . S
C1323 C1324 1.355 . S
C1323 C1325 1.415 . S
C1324 C1323 1.355 . S
C1324 C1326 1.419 . S
C1325 C1320 1.425 . S
C1325 C1322 1.409 . S
C1325 C1323 1.415 . S
C1326 H1316 0.930 . S
C1326 C1324 1.419 . S
C1326 C1327 1.362 . S
C1327 H1317 0.930 . S
C1327 C1320 1.409 . S
C1327 C1326 1.362 . S
H1328 C1334 0.930 . S
H1329 C1337 0.930 . S
H1330 C1338 0.930 . S
H1331 C1339 0.930 . S
H1332 C1342 0.930 . S
H1333 C1343 0.930 . S
C1334 H1328 0.930 . S
C1334 C1335 1.355 . S
C1334 C1336 1.415 . S
C1335 C1334 1.355 . S
C1335 C1337 1.419 . S
C1336 C1334 1.415 . S
C1336 C1341 1.425 . S
C1336 C1343 1.409 . S
C1337 H1329 0.930 . S
C1337 C1335 1.419 . S
C1337 C1338 1.362 . S
C1338 H1330 0.930 . S
C1338 C1337 1.362 . S
C1338 C1341 1.409 . S
C1339 H1331 0.930 . S
C1339 C1340 1.355 . S
C1339 C1341 1.415 . S
C1340 C1339 1.355 . S
C1340 C1342 1.419 . S
C1341 C1336 1.425 . S
C1341 C1338 1.409 . S
C1341 C1339 1.415 . S
C1342 H1332 0.930 . S
C1342 C1340 1.419 . S
C1342 C1343 1.362 . S
C1343 H1333 0.930 . S
C1343 C1336 1.409 . S
C1343 C1342 1.362 . S
H1344 C1350 0.930 . S
H1345 C1353 0.930 . S
H1346 C1354 0.930 . S
H1347 C1355 0.930 . S
H1348 C1358 0.930 . S
H1349 C1359 0.930 . S
C1350 H1344 0.930 . S
C1350 C1351 1.355 . S
C1350 C1352 1.415 . S
C1351 C1350 1.355 . S
C1351 C1353 1.419 . S
C1352 C1350 1.415 . S
C1352 C1357 1.425 . S
C1352 C1359 1.409 . S
C1353 H1345 0.930 . S
C1353 C1351 1.419 . S
C1353 C1354 1.362 . S
C1354 H1346 0.930 . S
C1354 C1353 1.362 . S
C1354 C1357 1.409 . S
C1355 H1347 0.930 . S
C1355 C1356 1.355 . S
C1355 C1357 1.415 . S
C1356 C1355 1.355 . S
C1356 C1358 1.419 . S
C1357 C1352 1.425 . S
C1357 C1354 1.409 . S
C1357 C1355 1.415 . S
C1358 H1348 0.930 . S
C1358 C1356 1.419 . S
C1358 C1359 1.362 . S
C1359 H1349 0.930 . S
C1359 C1352 1.409 . S
C1359 C1358 1.362 . S
H1360 C1366 0.930 . S
H1361 C1369 0.930 . S
H1362 C1370 0.930 . S
H1363 C1371 0.930 . S
H1364 C1374 0.930 . S
H1365 C1375 0.930 . S
C1366 H1360 0.930 . S
C1366 C1367 1.355 . S
C1366 C1368 1.415 . S
C1367 C1366 1.355 . S
C1367 C1369 1.419 . S
C1368 C1366 1.415 . S
C1368 C1373 1.425 . S
C1368 C1375 1.409 . S
C1369 H1361 0.930 . S
C1369 C1367 1.419 . S
C1369 C1370 1.362 . S
C1370 H1362 0.930 . S
C1370 C1369 1.362 . S
C1370 C1373 1.409 . S
C1371 H1363 0.930 . S
C1371 C1372 1.355 . S
C1371 C1373 1.415 . S
C1372 C1371 1.355 . S
C1372 C1374 1.419 . S
C1373 C1368 1.425 . S
C1373 C1370 1.409 . S
C1373 C1371 1.415 . S
C1374 H1364 0.930 . S
C1374 C1372 1.419 . S
C1374 C1375 1.362 . S
C1375 H1365 0.930 . S
C1375 C1368 1.409 . S
C1375 C1374 1.362 . S
H1376 C1382 0.930 . S
H1377 C1385 0.930 . S
H1378 C1386 0.930 . S
H1379 C1387 0.930 . S
H1380 C1390 0.930 . S
H1381 C1391 0.930 . S
C1382 H1376 0.930 . S
C1382 C1383 1.355 . S
C1382 C1384 1.415 . S
C1383 C1382 1.355 . S
C1383 C1385 1.419 . S
C1384 C1382 1.415 . S
C1384 C1389 1.425 . S
C1384 C1391 1.409 . S
C1385 H1377 0.930 . S
C1385 C1383 1.419 . S
C1385 C1386 1.362 . S
C1386 H1378 0.930 . S
C1386 C1385 1.362 . S
C1386 C1389 1.409 . S
C1387 H1379 0.930 . S
C1387 C1388 1.355 . S
C1387 C1389 1.415 . S
C1388 C1387 1.355 . S
C1388 C1390 1.419 . S
C1389 C1384 1.425 . S
C1389 C1386 1.409 . S
C1389 C1387 1.415 . S
C1390 H1380 0.930 . S
C1390 C1388 1.419 . S
C1390 C1391 1.362 . S
C1391 H1381 0.930 . S
C1391 C1384 1.409 . S
C1391 C1390 1.362 . S
H1392 C1398 0.930 . S
H1393 C1401 0.930 . S
H1394 C1402 0.930 . S
H1395 C1403 0.930 . S
H1396 C1406 0.930 . S
H1397 C1407 0.930 . S
C1398 H1392 0.930 . S
C1398 C1399 1.355 . S
C1398 C1400 1.415 . S
C1399 C1398 1.355 . S
C1399 C1401 1.419 . S
C1400 C1398 1.415 . S
C1400 C1405 1.425 . S
C1400 C1407 1.409 . S
C1401 H1393 0.930 . S
C1401 C1399 1.419 . S
C1401 C1402 1.362 . S
C1402 H1394 0.930 . S
C1402 C1401 1.362 . S
C1402 C1405 1.409 . S
C1403 H1395 0.930 . S
C1403 C1404 1.355 . S
C1403 C1405 1.415 . S
C1404 C1403 1.355 . S
C1404 C1406 1.419 . S
C1405 C1400 1.425 . S
C1405 C1402 1.409 . S
C1405 C1403 1.415 . S
C1406 H1396 0.930 . S
C1406 C1404 1.419 . S
C1406 C1407 1.362 . S
C1407 H1397 0.930 . S
C1407 C1400 1.409 . S
C1407 C1406 1.362 . S
H1408 C1414 0.930 . S
H1409 C1417 0.930 . S
H1410 C1418 0.930 . S
H1411 C1419 0.930 . S
H1412 C1422 0.930 . S
H1413 C1423 0.930 . S
C1414 H1408 0.930 . S
C1414 C1415 1.355 . S
C1414 C1416 1.415 . S
C1415 C1414 1.355 . S
C1415 C1417 1.419 . S
C1416 C1414 1.415 . S
C1416 C1421 1.425 . S
C1416 C1423 1.409 . S
C1417 H1409 0.930 . S
C1417 C1415 1.419 . S
C1417 C1418 1.362 . S
C1418 H1410 0.930 . S
C1418 C1417 1.362 . S
C1418 C1421 1.409 . S
C1419 H1411 0.930 . S
C1419 C1420 1.355 . S
C1419 C1421 1.415 . S
C1420 C1419 1.355 . S
C1420 C1422 1.419 . S
C1421 C1416 1.425 . S
C1421 C1418 1.409 . S
C1421 C1419 1.415 . S
C1422 H1412 0.930 . S
C1422 C1420 1.419 . S
C1422 C1423 1.362 . S
C1423 H1413 0.930 . S
C1423 C1416 1.409 . S
C1423 C1422 1.362 . S
H1424 C1430 0.930 . S
H1425 C1433 0.930 . S
H1426 C1434 0.930 . S
H1427 C1435 0.930 . S
H1428 C1438 0.930 . S
H1429 C1439 0.930 . S
C1430 H1424 0.930 . S
C1430 C1431 1.355 . S
C1430 C1432 1.415 . S
C1431 C1430 1.355 . S
C1431 C1433 1.419 . S
C1432 C1430 1.415 . S
C1432 C1437 1.425 . S
C1432 C1439 1.409 . S
C1433 H1425 0.930 . S
C1433 C1431 1.419 . S
C1433 C1434 1.362 . S
C1434 H1426 0.930 . S
C1434 C1433 1.362 . S
C1434 C1437 1.409 . S
C1435 H1427 0.930 . S
C1435 C1436 1.355 . S
C1435 C1437 1.415 . S
C1436 C1435 1.355 . S
C1436 C1438 1.419 . S
C1437 C1432 1.425 . S
C1437 C1434 1.409 . S
C1437 C1435 1.415 . S
C1438 H1428 0.930 . S
C1438 C1436 1.419 . S
C1438 C1439 1.362 . S
C1439 H1429 0.930 . S
C1439 C1432 1.409 . S
C1439 C1438 1.362 . S
H1440 C1446 0.930 . S
H1441 C1449 0.930 . S
H1442 C1450 0.930 . S
H1443 C1451 0.930 . S
H1444 C1454 0.930 . S
H1445 C1455 0.930 . S
C1446 H1440 0.930 . S
C1446 C1447 1.355 . S
C1446 C1448 1.415 . S
C1447 C1446 1.355 . S
C1447 C1449 1.419 . S
C1448 C1446 1.415 . S
C1448 C1453 1.425 . S
C1448 C1455 1.409 . S
C1449 H1441 0.930 . S
C1449 C1447 1.419 . S
C1449 C1450 1.362 . S
C1450 H1442 0.930 . S
C1450 C1449 1.362 . S
C1450 C1453 1.409 . S
C1451 H1443 0.930 . S
C1451 C1452 1.355 . S
C1451 C1453 1.415 . S
C1452 C1451 1.355 . S
C1452 C1454 1.419 . S
C1453 C1448 1.425 . S
C1453 C1450 1.409 . S
C1453 C1451 1.415 . S
C1454 H1444 0.930 . S
C1454 C1452 1.419 . S
C1454 C1455 1.362 . S
C1455 H1445 0.930 . S
C1455 C1448 1.409 . S
C1455 C1454 1.362 . S
H1456 C1462 0.930 . S
H1457 C1465 0.930 . S
H1458 C1466 0.930 . S
H1459 C1467 0.930 . S
H1460 C1470 0.930 . S
H1461 C1471 0.930 . S
C1462 H1456 0.930 . S
C1462 C1463 1.355 . S
C1462 C1464 1.415 . S
C1463 C1462 1.355 . S
C1463 C1465 1.419 . S
C1464 C1462 1.415 . S
C1464 C1469 1.425 . S
C1464 C1471 1.409 . S
C1465 H1457 0.930 . S
C1465 C1463 1.419 . S
C1465 C1466 1.362 . S
C1466 H1458 0.930 . S
C1466 C1465 1.362 . S
C1466 C1469 1.409 . S
C1467 H1459 0.930 . S
C1467 C1468 1.355 . S
C1467 C1469 1.415 . S
C1468 C1467 1.355 . S
C1468 C1470 1.419 . S
C1469 C1464 1.425 . S
C1469 C1466 1.409 . S
C1469 C1467 1.415 . S
C1470 H1460 0.930 . S
C1470 C1468 1.419 . S
C1470 C1471 1.362 . S
C1471 H1461 0.930 . S
C1471 C1464 1.409 . S
C1471 C1470 1.362 . S
C455 C36 0.881 . S
C460 C8 0.913 . S
C471 C22 0.877 . S
C476 C50 0.908 . S
C487 C92 0.905 . S
C492 C64 0.936 . S
C503 C106 0.937 . S
C508 C78 0.961 . S
C519 C120 0.949 . S
C524 C148 0.961 . S
C535 C162 0.856 . S
C540 C134 0.847 . S
C551 C176 0.968 . S
C556 C204 0.971 . S
C567 C190 0.915 . S
C572 C218 0.896 . S
C583 C260 0.896 . S
C588 C232 0.928 . S
C599 C246 0.895 . S
C604 C274 0.866 . S
C615 C288 0.856 . S
C620 C316 0.842 . S
C631 C330 0.883 . S
C636 C302 0.915 . S
C647 C372 0.956 . S
C652 C344 0.983 . S
C663 C386 0.980 . S
C668 C358 0.974 . S
C679 C428 0.972 . S
C684 C400 0.983 . S
C695 C414 0.967 . S
C700 C442 0.986 . S
C711 C62 1.438 . S
C716 C6 1.438 . S
C727 C412 1.466 . S
C732 C20 1.466 . S
C743 C34 1.479 . S
C748 C202 1.479 . S
C759 C48 1.440 . S
C764 C328 1.440 . S
C775 C76 1.445 . S
C780 C356 1.445 . S
C791 C90 1.435 . S
C796 C146 1.435 . S
C807 C272 1.463 . S
C812 C104 1.463 . S
C823 C174 1.488 . S
C828 C118 1.488 . S
C839 C300 1.501 . S
C844 C132 1.501 . S
C855 C160 1.462 . S
C860 C440 1.462 . S
C871 C188 1.488 . S
C876 C244 1.488 . S
C887 C384 1.448 . S
C892 C216 1.448 . S
C903 C286 1.437 . S
C908 C230 1.437 . S
C919 C258 1.495 . S
C924 C426 1.495 . S
C935 C314 1.434 . S
C940 C370 1.434 . S
C951 C398 1.500 . S
C956 C342 1.500 . S
C967 C51 1.466 . S
C972 C9 1.441 . S
C983 C37 1.434 . S
C988 C23 1.439 . S
C999 C107 1.480 . S
C1004 C65 1.489 . S
C1015 C93 1.432 . S
C1020 C79 1.446 . S
C1031 C163 1.475 . S
C1036 C121 1.448 . S
C1047 C149 1.489 . S
C1052 C135 1.480 . S
C1063 C219 1.487 . S
C1068 C177 1.484 . S
C1079 C205 1.480 . S
C1084 C191 1.489 . S
C1095 C233 1.489 . S
C1100 C275 1.476 . S
C1111 C261 1.442 . S
C1116 C247 1.432 . S
C1127 C289 1.434 . S
C1132 C331 1.437 . S
C1143 C317 1.443 . S
C1148 C303 1.432 . S
C1159 C387 1.472 . S
C1164 C345 1.489 . S
C1175 C359 1.454 . S
C1180 C373 1.480 . S
C1191 C401 1.486 . S
C1196 C443 1.485 . S
C1207 C429 1.466 . S
C1212 C415 1.487 . S
C1223 C35 1.499 1_545 S
C1228 C7 1.482 . S
C1239 C21 1.492 1_545 S
C1244 C49 1.478 . S
C1255 C63 1.518 . S
C1260 C91 1.522 1_565 S
C1271 C77 1.512 1_565 S
C1276 C105 1.493 . S
C1287 C119 1.477 . S
C1292 C147 1.484 . S
C1303 C133 1.483 . S
C1308 C161 1.477 . S
C1319 C203 1.477 . S
C1324 C175 1.487 . S
C1335 C217 1.490 . S
C1340 C189 1.509 . S
C1351 C259 1.478 1_545 S
C1356 C231 1.480 . S
C1367 C273 1.497 . S
C1372 C245 1.515 1_545 S
C1383 C287 1.521 . S
C1388 C315 1.518 1_565 S
C1399 C329 1.489 . S
C1404 C301 1.508 1_565 S
C1415 C371 1.505 . S
C1420 C343 1.520 . S
C1431 C357 1.499 . S
C1436 C385 1.516 . S
C1447 C399 1.513 . S
C1452 C427 1.522 . S
C1463 C441 1.477 . S
C1468 C413 1.487 . S
