# Generated by pormake.
# Topology wgw, (6)-cn, num edge types: 1
# Building blocks:
#     Node 0, Type 0, BuildingBlock: IZENUY_clean_sbu_0, # of connection points: 6
#     Node 1, Type 0, BuildingBlock: IZENUY_clean_sbu_0, # of connection points: 6
#     Node 2, Type 0, BuildingBlock: IZENUY_clean_sbu_0, # of connection points: 6
#     Node 3, Type 0, BuildingBlock: IZENUY_clean_sbu_0, # of connection points: 6
#     Node 4, Type 0, BuildingBlock: IZENUY_clean_sbu_0, # of connection points: 6
#     Node 5, Type 0, BuildingBlock: IZENUY_clean_sbu_0, # of connection points: 6
#     Node 6, Type 0, BuildingBlock: IZENUY_clean_sbu_0, # of connection points: 6
#     Node 7, Type 0, BuildingBlock: IZENUY_clean_sbu_0, # of connection points: 6
#     Edge 8, Type (0, 0), BuildingBlock: OJICUG_clean_linker_0, # of connection points: 2
#     Edge 9, Type (0, 0), BuildingBlock: OJICUG_clean_linker_0, # of connection points: 2
#     Edge 10, Type (0, 0), BuildingBlock: OJICUG_clean_linker_0, # of connection points: 2
#     Edge 11, Type (0, 0), BuildingBlock: OJICUG_clean_linker_0, # of connection points: 2
#     Edge 12, Type (0, 0), BuildingBlock: OJICUG_clean_linker_0, # of connection points: 2
#     Edge 13, Type (0, 0), BuildingBlock: OJICUG_clean_linker_0, # of connection points: 2
#     Edge 14, Type (0, 0), BuildingBlock: OJICUG_clean_linker_0, # of connection points: 2
#     Edge 15, Type (0, 0), BuildingBlock: OJICUG_clean_linker_0, # of connection points: 2
#     Edge 16, Type (0, 0), BuildingBlock: OJICUG_clean_linker_0, # of connection points: 2
#     Edge 17, Type (0, 0), BuildingBlock: OJICUG_clean_linker_0, # of connection points: 2
#     Edge 18, Type (0, 0), BuildingBlock: OJICUG_clean_linker_0, # of connection points: 2
#     Edge 19, Type (0, 0), BuildingBlock: OJICUG_clean_linker_0, # of connection points: 2
#     Edge 20, Type (0, 0), BuildingBlock: OJICUG_clean_linker_0, # of connection points: 2
#     Edge 21, Type (0, 0), BuildingBlock: OJICUG_clean_linker_0, # of connection points: 2
#     Edge 22, Type (0, 0), BuildingBlock: OJICUG_clean_linker_0, # of connection points: 2
#     Edge 23, Type (0, 0), BuildingBlock: OJICUG_clean_linker_0, # of connection points: 2
#     Edge 24, Type (0, 0), BuildingBlock: OJICUG_clean_linker_0, # of connection points: 2
#     Edge 25, Type (0, 0), BuildingBlock: OJICUG_clean_linker_0, # of connection points: 2
#     Edge 26, Type (0, 0), BuildingBlock: OJICUG_clean_linker_0, # of connection points: 2
#     Edge 27, Type (0, 0), BuildingBlock: OJICUG_clean_linker_0, # of connection points: 2
#     Edge 28, Type (0, 0), BuildingBlock: OJICUG_clean_linker_0, # of connection points: 2
#     Edge 29, Type (0, 0), BuildingBlock: OJICUG_clean_linker_0, # of connection points: 2
#     Edge 30, Type (0, 0), BuildingBlock: OJICUG_clean_linker_0, # of connection points: 2
#     Edge 31, Type (0, 0), BuildingBlock: OJICUG_clean_linker_0, # of connection points: 2
# Relax obj value: 0.277
# Max RMSD: 0.289
# Mean RMSD: 0.289
data_MOF--net-wgw--node1-IZENUY_clean_sbu_0--edge1-OJICUG_clean_linker_0
_symmetry_space_group_name_H-M    P1
_symmetry_Int_Tables_number       1
_symmetry_cell_setting            triclinic
loop_
_symmetry_equiv_pos_as_xyz
'x, y, z'
_cell_length_a     20.459151
_cell_length_b     20.326308
_cell_length_c     31.043197
_cell_angle_alpha  90.055327
_cell_angle_beta   89.773043
_cell_angle_gamma 89.867535
loop_
_atom_site_label
_atom_site_type_symbol
_atom_site_fract_x
_atom_site_fract_y
_atom_site_fract_z
_atom_type_partial_charge
Fe0 Fe 0.02299 0.39155 0.19238 0.0
Fe1 Fe 0.12494 0.50251 0.1887 0.0
O2 O 0.06333 0.45867 0.21692 0.0
Fe3 Fe 0.04248 0.48343 0.27004 0.0
O4 O 0.01823 0.40222 0.28967 0.0
O5 O 0.04438 0.33695 0.23618 0.0
O6 O 0.09781 0.36089 0.16543 0.0
C7 C 0.15786 0.37288 0.1727 0.0
C8 C 0.92165 0.46422 0.23402 0.0
O9 O 0.17597 0.42904 0.1858 0.0
C10 C 0.0546 0.60169 0.22609 0.0
O11 O 0.99817 0.44004 0.14586 0.0
O12 O 0.09261 0.48741 0.13457 0.0
O13 O 0.96016 0.50183 0.25371 0.0
O14 O 0.94187 0.41157 0.21615 0.0
C15 C 0.17304 0.49945 0.27437 0.0
O16 O 0.07578 0.57845 0.19076 0.0
O17 O 0.06084 0.56954 0.26054 0.0
C18 C 0.03642 0.47144 0.12155 0.0
O19 O 0.17008 0.52546 0.23733 0.0
O20 O 0.12513 0.46753 0.28932 0.0
C21 C 0.03148 0.34578 0.27541 0.0
Fe22 Fe 0.04229 0.12409 0.68678 0.0
Fe23 Fe 0.06835 0.04351 0.76848 0.0
O24 O 0.0861 0.06172 0.71372 0.0
Fe25 Fe 0.14795 0.01615 0.68687 0.0
O26 O 0.19548 0.08986 0.67791 0.0
O27 O 0.11516 0.15591 0.65786 0.0
O28 O 0.06171 0.18398 0.72755 0.0
C29 C 0.04576 0.18056 0.76653 0.0
C30 C 0.05567 0.03594 0.61994 0.0
O31 O 0.03753 0.12532 0.78397 0.0
C32 C 0.08941 0.91915 0.73283 0.0
O33 O 0.96313 0.10129 0.71227 0.0
O34 O 0.98781 0.01699 0.75417 0.0
O35 O 0.11226 0.02084 0.63274 0.0
O36 O 0.01856 0.07055 0.64302 0.0
C37 C 0.19941 0.03682 0.77062 0.0
O38 O 0.09286 0.95781 0.7645 0.0
O39 O 0.10296 0.93908 0.69524 0.0
C40 C 0.94697 0.04893 0.73227 0.0
O41 O 0.15008 0.06766 0.78491 0.0
O42 O 0.1965 1.00415 0.73582 0.0
C43 C 0.17585 0.14462 0.66355 0.0
Fe44 Fe 0.46463 0.04292 0.2647 0.0
Fe45 Fe 0.48403 0.13939 0.18963 0.0
O46 O 0.44309 0.07139 0.21273 0.0
Fe47 Fe 0.3806 0.03055 0.1838 0.0
O48 O 0.33537 1.00498 0.232 0.0
O49 O 0.38227 0.05799 0.28542 0.0
O50 O 0.49001 0.12368 0.28612 0.0
C51 C 0.47818 0.18133 0.27306 0.0
C52 C 0.44793 0.9268 0.21729 0.0
O53 O 0.46281 0.192 0.23452 0.0
C54 C 0.47098 0.06158 0.11802 0.0
O55 O 0.54637 0.02456 0.24684 0.0
O56 O 0.56443 0.11802 0.21301 0.0
O57 O 0.42754 0.95374 0.18314 0.0
O58 O 0.44589 0.95704 0.25286 0.0
C59 C 0.34974 0.16107 0.17095 0.0
O60 O 0.50903 0.09217 0.14266 0.0
O61 O 0.41345 0.04835 0.13004 0.0
C62 C 0.58478 0.06398 0.22861 0.0
O63 O 0.40989 0.17211 0.16318 0.0
O64 O 0.33095 0.1049 0.18345 0.0
C65 C 0.3336 0.02806 0.26987 0.0
Fe66 Fe 0.38403 0.48748 0.68792 0.0
Fe67 Fe 0.4967 0.3872 0.6866 0.0
O68 O 0.44926 0.44705 0.71425 0.0
Fe69 Fe 0.46925 0.46645 0.76845 0.0
O70 O 0.38646 0.48894 0.78559 0.0
O71 O 0.32666 0.46389 0.7295 0.0
O72 O 0.35703 0.41207 0.65918 0.0
C73 C 0.37077 0.35162 0.66583 0.0
C74 C 0.44981 0.58886 0.73468 0.0
O75 O 0.42592 0.33474 0.68058 0.0
C76 C 0.58901 0.46027 0.7275 0.0
O77 O 0.43558 0.51494 0.64349 0.0
O78 O 0.48551 0.42122 0.63255 0.0
O79 O 0.48681 0.54973 0.75418 0.0
O80 O 0.40048 0.56865 0.71357 0.0
C81 C 0.48552 0.33487 0.77074 0.0
O82 O 0.56985 0.43849 0.69154 0.0
O83 O 0.55582 0.44986 0.7611 0.0
C84 C 0.47007 0.47812 0.61993 0.0
O85 O 0.516 0.33999 0.73526 0.0
O86 O 0.45388 0.38276 0.78622 0.0
C87 C 0.33184 0.47653 0.76897 0.0
Fe88 Fe 0.6226 0.53567 0.37545 0.0
Fe89 Fe 0.53161 0.55544 0.29775 0.0
O90 O 0.55744 0.5779 0.35018 0.0
Fe91 Fe 0.5161 0.64287 0.3772 0.0
O92 O 0.59003 0.69122 0.37851 0.0
O93 O 0.65669 0.61201 0.40009 0.0
O94 O 0.67803 0.55123 0.33122 0.0
C95 C 0.66867 0.53541 0.29266 0.0
C96 C 0.54289 0.55572 0.44587 0.0
O97 O 0.61176 0.52636 0.27839 0.0
C98 C 0.41425 0.57591 0.34256 0.0
O99 O 0.59855 0.45323 0.3539 0.0
O100 O 0.51025 0.47491 0.31583 0.0
O101 O 0.5299 0.61271 0.4322 0.0
O102 O 0.5734 0.51558 0.42235 0.0
C103 C 0.52045 0.68686 0.29027 0.0
O104 O 0.44593 0.57722 0.30749 0.0
O105 O 0.43956 0.59684 0.37698 0.0
C106 C 0.54579 0.43473 0.33571 0.0
O107 O 0.55046 0.63671 0.2765 0.0
O108 O 0.49445 0.68678 0.32744 0.0
C109 C 0.64521 0.67274 0.39226 0.0
Fe110 Fe 0.98679 0.62121 0.87825 0.0
Fe111 Fe 0.95641 0.54483 0.79518 0.0
O112 O 0.93928 0.56291 0.85014 0.0
Fe113 Fe 0.8747 0.51991 0.87606 0.0
O114 O 0.83102 0.59618 0.88646 0.0
O115 O 0.91541 0.65695 0.90668 0.0
O116 O 0.97326 0.6839 0.83804 0.0
C117 C 0.98808 0.6793 0.79887 0.0
C118 C 0.96608 0.53291 0.9444 0.0
O119 O 0.99198 0.62411 0.7809 0.0
C120 C 0.93352 0.42237 0.8291 0.0
O121 O 0.06477 0.5938 0.85317 0.0
O122 O 0.03539 0.51324 0.80939 0.0
O123 O 0.90953 0.52047 0.93052 0.0
O124 O 1.00582 0.56512 0.92183 0.0
C125 C 0.82552 0.5492 0.7928 0.0
O126 O 0.92545 0.46142 0.79823 0.0
O127 O 0.91707 0.44051 0.86667 0.0
C128 C 0.07839 0.54256 0.83111 0.0
O129 O 0.87728 0.57513 0.77863 0.0
O130 O 0.82584 0.51374 0.82656 0.0
C131 C 0.85412 0.64933 0.9013 0.0
Fe132 Fe 0.96456 0.98434 0.29887 0.0
Fe133 Fe 0.98164 0.8903 0.37534 0.0
O134 O 0.94315 0.95926 0.35173 0.0
Fe135 Fe 0.8829 1.00442 0.38049 0.0
O136 O 0.83772 0.02908 0.33214 0.0
O137 O 0.88167 0.9703 0.27983 0.0
O138 O 0.98767 0.90277 0.27853 0.0
C139 C 0.9727 0.84645 0.29214 0.0
C140 C 0.95488 0.10216 0.34361 0.0
O141 O 0.9582 0.83769 0.33111 0.0
C142 C 0.972 0.97012 0.44649 0.0
O143 O 0.047 1.00089 0.31549 0.0
O144 O 0.06282 0.90861 0.35134 0.0
O145 O 0.93345 0.07903 0.3788 0.0
O146 O 0.94772 0.07072 0.30895 0.0
C147 C 0.84664 0.87528 0.39547 0.0
O148 O 0.00842 0.93696 0.42192 0.0
O149 O 0.9158 0.9878 0.43429 0.0
C150 C 0.08431 0.96176 0.33496 0.0
O151 O 0.90634 0.86106 0.40246 0.0
O152 O 0.83035 0.93239 0.38304 0.0
C153 C 0.83411 1.00253 0.29528 0.0
Fe154 Fe 0.64692 0.99783 0.8796 0.0
Fe155 Fe 0.53974 0.89177 0.88177 0.0
O156 O 0.5849 0.95182 0.85336 0.0
Fe157 Fe 0.56789 0.96889 0.79848 0.0
O158 O 0.65035 0.94513 0.78223 0.0
O159 O 0.6951 1.01054 0.83036 0.0
O160 O 0.69457 0.92333 0.88822 0.0
C161 C 0.67341 0.8695 0.9035 0.0
C162 C 0.58127 0.09218 0.83446 0.0
O163 O 0.61255 0.86065 0.91051 0.0
C164 C 0.44544 0.96501 0.83509 0.0
O165 O 0.61256 0.99328 0.93416 0.0
O166 O 0.51709 0.94841 0.92431 0.0
O167 O 0.59128 0.05488 0.80263 0.0
O168 O 0.60002 0.07448 0.87159 0.0
C169 C 0.54092 0.83192 0.80309 0.0
O170 O 0.46107 0.91427 0.85668 0.0
O171 O 0.4864 0.99502 0.81205 0.0
C172 C 0.55515 0.98199 0.94696 0.0
O173 O 0.55634 0.82881 0.84217 0.0
O174 O 0.53839 0.88655 0.78399 0.0
C175 C 0.699 0.97719 0.79591 0.0
C176 C 0.30423 0.60746 0.31925 0.0
C177 C 0.34434 0.56159 0.3399 0.0
H178 H 0.21753 0.6231 0.2826 0.0
C179 C 0.32217 0.49676 0.34556 0.0
H180 H 0.32084 0.65741 0.31414 0.0
C181 C 0.26284 0.47667 0.32726 0.0
C182 C 0.2261 0.52134 0.30282 0.0
H183 H 0.35313 0.46053 0.36095 0.0
H184 H 0.24863 0.42544 0.32913 0.0
C185 C 0.24562 0.58752 0.30084 0.0
C186 C 0.95976 0.3013 0.84235 0.0
C187 C 0.9675 0.35982 0.81884 0.0
H188 H 0.97854 0.19692 0.84401 0.0
C189 C 1.00716 0.35903 0.78172 0.0
H190 H 0.92957 0.30046 0.87107 0.0
C191 C 0.03642 0.3017 0.7673 0.0
C192 C 0.02524 0.24204 0.78848 0.0
H193 H 0.01505 0.40309 0.76281 0.0
H194 H 0.06542 0.30393 0.73804 0.0
C195 C 0.98805 0.24236 0.82695 0.0
C196 C 0.25647 0.94276 0.29582 0.0
C197 C 0.27819 1.00839 0.29729 0.0
H198 H 0.1778 0.87574 0.30822 0.0
C199 C 0.24048 0.05555 0.31897 0.0
H200 H 0.28506 0.90555 0.27927 0.0
C201 C 0.17883 0.03852 0.33513 0.0
C202 C 0.15483 0.97403 0.33036 0.0
H203 H 0.25615 0.10639 0.32028 0.0
H204 H 0.14821 0.07661 0.34901 0.0
C205 C 0.19546 0.92551 0.31263 0.0
C206 C 0.47973 0.21514 0.77457 0.0
C207 C 0.49502 0.27406 0.79521 0.0
H208 H 0.49457 0.11207 0.77131 0.0
C209 C 0.53207 0.27281 0.83335 0.0
H210 H 0.45163 0.21515 0.74502 0.0
C211 C 0.55758 0.21291 0.84875 0.0
C212 C 0.54658 0.15456 0.82563 0.0
H213 H 0.54529 0.31832 0.84923 0.0
H214 H 0.58923 0.21295 0.87663 0.0
C215 C 0.50509 0.15623 0.78955 0.0
C216 C 0.76979 0.56419 0.25293 0.0
C217 C 0.72591 0.51606 0.26694 0.0
H218 H 0.86524 0.58427 0.22821 0.0
C219 C 0.74295 0.44922 0.26307 0.0
H220 H 0.75755 0.61592 0.25575 0.0
C221 C 0.80547 0.43104 0.24852 0.0
C222 C 0.85126 0.47969 0.2377 0.0
H223 H 0.70975 0.41143 0.27431 0.0
H224 H 0.81952 0.37963 0.24898 0.0
C225 C 0.83153 0.54604 0.23777 0.0
C226 C 0.02984 0.81341 0.71852 0.0
C227 C 0.0743 0.85027 0.74298 0.0
H228 H 0.9665 0.72876 0.71752 0.0
C229 C 0.09414 0.82664 0.7834 0.0
H230 H 0.01327 0.83118 0.68754 0.0
C231 C 0.06604 0.77076 0.80088 0.0
C232 C 0.01847 0.7362 0.77799 0.0
H233 H 0.12869 0.8538 0.80286 0.0
H234 H 0.08072 0.75519 0.83281 0.0
C235 C 1.00242 0.75585 0.7359 0.0
C236 C 0.67853 0.98631 0.23275 0.0
C237 C 0.65494 0.05138 0.23438 0.0
H238 H 0.75574 0.91975 0.25008 0.0
C239 C 0.69566 0.10145 0.24967 0.0
H240 H 0.6477 0.94697 0.22112 0.0
C241 C 0.75652 0.08561 0.26704 0.0
C242 C 0.77798 0.01986 0.2683 0.0
H243 H 0.67829 0.15176 0.25167 0.0
H244 H 0.78539 0.12429 0.28161 0.0
C245 C 0.74013 0.9707 0.24918 0.0
C246 C 0.44827 0.67314 0.7909 0.0
C247 C 0.45745 0.658 0.74723 0.0
H248 H 0.46889 0.73883 0.84268 0.0
C249 C 0.49118 0.70257 0.72073 0.0
H250 H 0.4237 0.63872 0.81211 0.0
C251 C 0.51732 0.76057 0.73833 0.0
C252 C 0.51182 0.77312 0.78279 0.0
H253 H 0.50058 0.69073 0.68724 0.0
H254 H 0.54439 0.79384 0.71772 0.0
C255 C 0.47548 0.72968 0.80854 0.0
C256 C 0.70999 0.57117 0.7793 0.0
C257 C 0.76872 0.54388 0.76492 0.0
H258 H 0.60637 0.56652 0.7773 0.0
C259 C 0.76864 0.49761 0.73118 0.0
H260 H 0.70932 0.60623 0.80566 0.0
C261 C 0.70931 0.474 0.71497 0.0
C262 C 0.65037 0.49648 0.73285 0.0
H263 H 0.81397 0.47522 0.72042 0.0
H264 H 0.70966 0.43415 0.69177 0.0
C265 C 0.65123 0.54793 0.7632 0.0
C266 C 0.9694 0.67043 0.25871 0.0
C267 C 0.02299 0.66643 0.23037 0.0
H268 H 0.91038 0.73079 0.29935 0.0
C269 C 0.05265 0.72461 0.21601 0.0
H270 H 0.94667 0.62643 0.27124 0.0
C271 C 0.03251 0.78543 0.23327 0.0
C272 C 0.9828 0.78789 0.26488 0.0
H273 H 0.09478 0.72264 0.19481 0.0
H274 H 0.05936 0.82941 0.2247 0.0
C275 C 0.94916 0.73033 0.27544 0.0
C276 C 0.82834 0.07578 0.74039 0.0
C277 C 0.87813 0.02871 0.73663 0.0
H278 H 0.73079 0.09514 0.76242 0.0
C279 C 0.86354 0.96195 0.74431 0.0
H280 H 0.83836 0.12741 0.73487 0.0
C281 C 0.80191 0.9434 0.75951 0.0
C282 C 0.75443 0.99147 0.76742 0.0
H283 H 0.9012 0.92461 0.7413 0.0
H284 H 0.79335 0.89263 0.76849 0.0
C285 C 0.767 0.05729 0.75613 0.0
C286 C 0.41536 0.81561 0.23861 0.0
C287 C 0.46224 0.85625 0.21938 0.0
H288 H 0.39786 0.72957 0.27636 0.0
C289 C 0.52753 0.83478 0.21701 0.0
H290 H 0.36507 0.83186 0.24159 0.0
C291 C 0.54658 0.77594 0.23705 0.0
C292 C 0.50047 0.73906 0.26019 0.0
H293 H 0.56462 0.86628 0.20312 0.0
H294 H 0.59783 0.76247 0.23763 0.0
C295 C 0.43435 0.75767 0.25902 0.0
C296 C 0.26225 0.54606 0.81708 0.0
C297 C 0.27175 0.48742 0.79377 0.0
H298 H 0.19237 0.61048 0.84731 0.0
C299 C 0.22001 0.44334 0.78912 0.0
H300 H 0.30187 0.58087 0.82077 0.0
C301 C 0.15844 0.45944 0.80496 0.0
C302 C 0.14671 0.52089 0.82448 0.0
H303 H 0.22657 0.39762 0.77159 0.0
H304 H 0.11923 0.425 0.79971 0.0
C305 C 0.19977 0.56299 0.83218 0.0
C306 C 0.97152 0.28521 0.33383 0.0
C307 C 0.02224 0.28769 0.303 0.0
H308 H 0.9098 0.22243 0.37222 0.0
C309 C 0.0587 0.23091 0.29432 0.0
H310 H 0.94268 0.32865 0.34098 0.0
C311 C 0.04071 0.17131 0.31258 0.0
C312 C 0.98568 0.16703 0.33966 0.0
H313 H 0.09843 0.2317 0.27111 0.0
H314 H 0.06634 0.12742 0.30219 0.0
C315 C 0.953 0.22478 0.35201 0.0
C316 C 0.32808 0.93754 0.82545 0.0
C317 C 0.37683 0.98502 0.83063 0.0
H318 H 0.23195 0.918 0.80189 0.0
C319 C 0.36161 0.05189 0.82416 0.0
H320 H 0.33876 0.88579 0.83009 0.0
C321 C 0.30041 0.07042 0.8085 0.0
C322 C 0.2542 0.02207 0.79908 0.0
H323 H 0.39843 0.08938 0.8287 0.0
H324 H 0.29131 0.12147 0.80044 0.0
C325 C 0.26722 0.95597 0.80933 0.0
C326 C 0.57334 0.31328 0.33105 0.0
C327 C 0.52706 0.36451 0.33123 0.0
H328 H 0.59327 0.21293 0.31273 0.0
C329 C 0.46206 0.35005 0.31965 0.0
H330 H 0.62373 0.32286 0.33952 0.0
C331 C 0.44517 0.28834 0.30385 0.0
C332 C 0.4923 0.2388 0.30034 0.0
H333 H 0.42486 0.38801 0.31973 0.0
H334 H 0.39602 0.28048 0.29199 0.0
C335 C 0.55589 0.25051 0.31577 0.0
C336 C 0.18731 0.25291 0.16568 0.0
C337 C 0.20718 0.31917 0.16718 0.0
H338 H 0.21617 0.15141 0.16584 0.0
C339 C 0.27462 0.33279 0.16687 0.0
H340 H 0.13589 0.24034 0.16625 0.0
C341 C 0.32083 0.28157 0.1661 0.0
C342 C 0.30087 0.2153 0.16632 0.0
H343 H 0.29183 0.38311 0.16811 0.0
H344 H 0.37226 0.294 0.16701 0.0
C345 C 0.23345 0.20174 0.1656 0.0
C346 C 0.29241 0.18265 0.65937 0.0
C347 C 0.22535 0.19759 0.65641 0.0
H348 H 0.39016 0.21867 0.66408 0.0
C349 C 0.20697 0.26408 0.65185 0.0
H350 H 0.30879 0.13222 0.66281 0.0
C351 C 0.25429 0.31432 0.65256 0.0
C352 C 0.32104 0.29922 0.65792 0.0
H353 H 0.15585 0.27762 0.64981 0.0
H354 H 0.23822 0.36506 0.65097 0.0
C355 C 0.33938 0.23254 0.66015 0.0
C356 C 0.81121 0.75678 0.4067 0.0
C357 C 0.79503 0.8236 0.40028 0.0
H358 H 0.77717 0.6567 0.40945 0.0
C359 C 0.72879 0.83997 0.39466 0.0
H360 H 0.86169 0.74206 0.41088 0.0
C361 C 0.68059 0.7912 0.39384 0.0
C362 C 0.69674 0.72413 0.39856 0.0
H363 H 0.71407 0.8906 0.38964 0.0
H364 H 0.63051 0.80628 0.38832 0.0
C365 C 0.76268 0.70767 0.40586 0.0
C366 C 0.69707 0.74872 0.91281 0.0
C367 C 0.72005 0.81386 0.91037 0.0
H368 H 0.72096 0.64597 0.91186 0.0
C369 C 0.7881 0.82418 0.90966 0.0
H370 H 0.6451 0.73865 0.9131 0.0
C371 C 0.8318 0.77079 0.90954 0.0
C372 C 0.80863 0.70561 0.9094 0.0
H373 H 0.80767 0.87356 0.90771 0.0
H374 H 0.8837 0.78068 0.90724 0.0
C375 C 0.74069 0.69538 0.91197 0.0
C376 C 0.93975 0.48244 1.01682 0.0
C377 C 0.98437 0.51443 0.98927 0.0
H378 H 0.92072 0.44396 0.08002 0.0
C379 C 0.04612 0.53129 1.00564 0.0
H380 H 0.89168 0.46883 1.00543 0.0
C381 C 0.0626 0.51732 0.04837 0.0
C382 C 0.01793 0.4859 0.0761 0.0
H383 H 0.08183 0.55601 0.98557 0.0
H384 H 0.11058 0.53149 0.05965 0.0
C385 C 0.95634 0.46833 0.0597 0.0
C386 C 0.07554 0.98182 0.54792 0.0
C387 C 0.03402 0.01701 0.57595 0.0
H388 H 0.08887 0.93953 0.48518 0.0
C389 C 0.97178 0.03565 0.56112 0.0
H390 H 0.12381 0.96669 0.5582 0.0
C391 C 0.95183 0.02022 0.5193 0.0
C392 C 0.99346 0.98557 0.49109 0.0
H393 H 0.93838 0.06274 0.58171 0.0
H394 H 0.90367 0.03581 0.50907 0.0
C395 C 0.05551 0.96631 0.50598 0.0
C396 C 0.57636 0.03808 1.0179 0.0
C397 C 0.5335 1.00436 0.9903 0.0
H398 H 0.59049 0.0826 0.07978 0.0
C399 C 0.46968 0.9911 1.00481 0.0
H400 H 0.62584 0.04918 1.00778 0.0
C401 C 0.44945 1.01027 0.04599 0.0
C402 C 0.49242 0.04331 0.07382 0.0
H403 H 0.43523 0.9654 0.98446 0.0
H404 H 0.40007 0.99864 0.05608 0.0
C405 C 0.55607 0.05728 0.05921 0.0
C406 C 0.54179 0.47444 0.5068 0.0
C407 C 0.52477 0.53676 0.49068 0.0
H408 H 0.53833 0.40743 0.55975 0.0
C409 C 0.48992 0.58023 0.51772 0.0
H410 H 0.56857 0.43959 0.48704 0.0
C411 C 0.47233 0.56164 0.55972 0.0
C412 C 0.48919 0.49914 0.57569 0.0
H413 H 0.47592 0.62862 0.50642 0.0
H414 H 0.44535 0.59621 0.57958 0.0
C415 C 0.52436 0.45596 0.54867 0.0
loop_
_geom_bond_atom_site_label_1
_geom_bond_atom_site_label_2
_geom_bond_distance
_geom_bond_site_symmetry_2
_ccdc_geom_bond_type
Fe0 O2 1.918 . S
Fe0 O5 1.997 . S
Fe0 O6 2.002 . S
Fe0 O11 1.976 1_455 S
Fe0 O14 1.996 1_455 S
Fe1 O2 1.918 . S
Fe1 O9 1.997 . S
Fe1 O12 1.996 . S
Fe1 O16 1.976 . S
Fe1 O19 2.002 . S
O2 Fe0 1.918 . S
O2 Fe1 1.918 . S
O2 Fe3 1.918 . S
Fe3 O2 1.918 . S
Fe3 O4 2.002 . S
Fe3 O13 1.976 1_455 S
Fe3 O17 1.996 . S
Fe3 O20 1.997 . S
O4 Fe3 2.002 . S
O4 C21 1.295 . S
O5 Fe0 1.997 . S
O5 C21 1.235 . S
O6 Fe0 2.002 . S
O6 C7 1.295 . S
C7 O6 1.295 . S
C7 O9 1.235 . S
C8 O13 1.287 . S
C8 O14 1.255 . S
O9 Fe1 1.997 . S
O9 C7 1.235 . S
C10 O16 1.287 . S
C10 O17 1.255 . S
O11 Fe0 1.976 1_655 S
O11 C18 1.287 1_655 S
O12 Fe1 1.996 . S
O12 C18 1.255 . S
O13 Fe3 1.976 1_655 S
O13 C8 1.287 . S
O14 Fe0 1.996 1_655 S
O14 C8 1.255 . S
C15 O19 1.295 . S
C15 O20 1.235 . S
O16 Fe1 1.976 . S
O16 C10 1.287 . S
O17 Fe3 1.996 . S
O17 C10 1.255 . S
C18 O11 1.287 1_455 S
C18 O12 1.255 . S
O19 Fe1 2.002 . S
O19 C15 1.295 . S
O20 Fe3 1.997 . S
O20 C15 1.235 . S
C21 O4 1.295 . S
C21 O5 1.235 . S
Fe22 O24 1.918 . S
Fe22 O27 1.997 . S
Fe22 O28 2.002 . S
Fe22 O33 1.976 1_455 S
Fe22 O36 1.996 1_455 S
Fe23 O24 1.918 . S
Fe23 O31 1.997 . S
Fe23 O34 1.996 1_455 S
Fe23 O38 1.976 1_545 S
Fe23 O41 2.002 . S
O24 Fe22 1.918 . S
O24 Fe23 1.918 . S
O24 Fe25 1.918 . S
Fe25 O24 1.918 . S
Fe25 O26 2.002 . S
Fe25 O35 1.976 1_545 S
Fe25 O39 1.996 1_545 S
Fe25 O42 1.997 . S
O26 Fe25 2.002 . S
O26 C43 1.295 . S
O27 Fe22 1.997 . S
O27 C43 1.235 . S
O28 Fe22 2.002 . S
O28 C29 1.295 . S
C29 O28 1.295 . S
C29 O31 1.235 . S
C30 O35 1.287 1_545 S
C30 O36 1.255 1_455 S
O31 Fe23 1.997 . S
O31 C29 1.235 . S
C32 O38 1.287 . S
C32 O39 1.255 . S
O33 Fe22 1.976 1_655 S
O33 C40 1.287 . S
O34 Fe23 1.996 1_655 S
O34 C40 1.255 . S
O35 Fe25 1.976 1_565 S
O35 C30 1.287 1_565 S
O36 Fe22 1.996 1_655 S
O36 C30 1.255 1_655 S
C37 O41 1.295 . S
C37 O42 1.235 . S
O38 Fe23 1.976 1_565 S
O38 C32 1.287 . S
O39 Fe25 1.996 1_565 S
O39 C32 1.255 . S
C40 O33 1.287 . S
C40 O34 1.255 . S
O41 Fe23 2.002 . S
O41 C37 1.295 . S
O42 Fe25 1.997 . S
O42 C37 1.235 . S
C43 O26 1.295 . S
C43 O27 1.235 . S
Fe44 O46 1.918 . S
Fe44 O49 1.997 . S
Fe44 O50 2.002 . S
Fe44 O55 1.976 . S
Fe44 O58 1.996 1_545 S
Fe45 O46 1.918 . S
Fe45 O53 1.997 . S
Fe45 O56 1.996 . S
Fe45 O60 1.976 . S
Fe45 O63 2.002 . S
O46 Fe44 1.918 . S
O46 Fe45 1.918 . S
O46 Fe47 1.918 . S
Fe47 O46 1.918 . S
Fe47 O48 2.002 . S
Fe47 O57 1.976 1_545 S
Fe47 O61 1.996 1_545 S
Fe47 O64 1.997 . S
O48 Fe47 2.002 . S
O48 C65 1.295 . S
O49 Fe44 1.997 . S
O49 C65 1.235 . S
O50 Fe44 2.002 . S
O50 C51 1.295 . S
C51 O50 1.295 . S
C51 O53 1.235 . S
C52 O57 1.287 . S
C52 O58 1.255 . S
O53 Fe45 1.997 . S
O53 C51 1.235 . S
C54 O60 1.287 . S
C54 O61 1.255 1_545 S
O55 Fe44 1.976 . S
O55 C62 1.287 . S
O56 Fe45 1.996 . S
O56 C62 1.255 . S
O57 Fe47 1.976 1_565 S
O57 C52 1.287 . S
O58 Fe44 1.996 1_565 S
O58 C52 1.255 . S
C59 O63 1.295 . S
C59 O64 1.235 . S
O60 Fe45 1.976 . S
O60 C54 1.287 . S
O61 Fe47 1.996 1_565 S
O61 C54 1.255 1_565 S
C62 O55 1.287 . S
C62 O56 1.255 . S
O63 Fe45 2.002 . S
O63 C59 1.295 . S
O64 Fe47 1.997 . S
O64 C59 1.235 . S
C65 O48 1.295 . S
C65 O49 1.235 . S
Fe66 O68 1.918 . S
Fe66 O71 1.997 . S
Fe66 O72 2.002 . S
Fe66 O77 1.976 . S
Fe66 O80 1.996 . S
Fe67 O68 1.918 . S
Fe67 O75 1.997 . S
Fe67 O78 1.996 . S
Fe67 O82 1.976 . S
Fe67 O85 2.002 . S
O68 Fe66 1.918 . S
O68 Fe67 1.918 . S
O68 Fe69 1.918 . S
Fe69 O68 1.918 . S
Fe69 O70 2.002 . S
Fe69 O79 1.976 . S
Fe69 O83 1.996 . S
Fe69 O86 1.997 . S
O70 Fe69 2.002 . S
O70 C87 1.295 . S
O71 Fe66 1.997 . S
O71 C87 1.235 . S
O72 Fe66 2.002 . S
O72 C73 1.295 . S
C73 O72 1.295 . S
C73 O75 1.235 . S
C74 O79 1.287 . S
C74 O80 1.255 . S
O75 Fe67 1.997 . S
O75 C73 1.235 . S
C76 O82 1.287 . S
C76 O83 1.255 . S
O77 Fe66 1.976 . S
O77 C84 1.287 . S
O78 Fe67 1.996 . S
O78 C84 1.255 . S
O79 Fe69 1.976 . S
O79 C74 1.287 . S
O80 Fe66 1.996 . S
O80 C74 1.255 . S
C81 O85 1.295 . S
C81 O86 1.235 . S
O82 Fe67 1.976 . S
O82 C76 1.287 . S
O83 Fe69 1.996 . S
O83 C76 1.255 . S
C84 O77 1.287 . S
C84 O78 1.255 . S
O85 Fe67 2.002 . S
O85 C81 1.295 . S
O86 Fe69 1.997 . S
O86 C81 1.235 . S
C87 O70 1.295 . S
C87 O71 1.235 . S
Fe88 O90 1.918 . S
Fe88 O93 1.997 . S
Fe88 O94 2.002 . S
Fe88 O99 1.976 . S
Fe88 O102 1.996 . S
Fe89 O90 1.918 . S
Fe89 O97 1.997 . S
Fe89 O100 1.996 . S
Fe89 O104 1.976 . S
Fe89 O107 2.002 . S
O90 Fe88 1.918 . S
O90 Fe89 1.918 . S
O90 Fe91 1.918 . S
Fe91 O90 1.918 . S
Fe91 O92 2.002 . S
Fe91 O101 1.976 . S
Fe91 O105 1.996 . S
Fe91 O108 1.997 . S
O92 Fe91 2.002 . S
O92 C109 1.295 . S
O93 Fe88 1.997 . S
O93 C109 1.235 . S
O94 Fe88 2.002 . S
O94 C95 1.295 . S
C95 O94 1.295 . S
C95 O97 1.235 . S
C96 O101 1.287 . S
C96 O102 1.255 . S
O97 Fe89 1.997 . S
O97 C95 1.235 . S
C98 O104 1.287 . S
C98 O105 1.255 . S
O99 Fe88 1.976 . S
O99 C106 1.287 . S
O100 Fe89 1.996 . S
O100 C106 1.255 . S
O101 Fe91 1.976 . S
O101 C96 1.287 . S
O102 Fe88 1.996 . S
O102 C96 1.255 . S
C103 O107 1.295 . S
C103 O108 1.235 . S
O104 Fe89 1.976 . S
O104 C98 1.287 . S
O105 Fe91 1.996 . S
O105 C98 1.255 . S
C106 O99 1.287 . S
C106 O100 1.255 . S
O107 Fe89 2.002 . S
O107 C103 1.295 . S
O108 Fe91 1.997 . S
O108 C103 1.235 . S
C109 O92 1.295 . S
C109 O93 1.235 . S
Fe110 O112 1.918 . S
Fe110 O115 1.997 . S
Fe110 O116 2.002 . S
Fe110 O121 1.976 1_655 S
Fe110 O124 1.996 1_655 S
Fe111 O112 1.918 . S
Fe111 O119 1.997 . S
Fe111 O122 1.996 1_655 S
Fe111 O126 1.976 . S
Fe111 O129 2.002 . S
O112 Fe110 1.918 . S
O112 Fe111 1.918 . S
O112 Fe113 1.918 . S
Fe113 O112 1.918 . S
Fe113 O114 2.002 . S
Fe113 O123 1.976 . S
Fe113 O127 1.996 . S
Fe113 O130 1.997 . S
O114 Fe113 2.002 . S
O114 C131 1.295 . S
O115 Fe110 1.997 . S
O115 C131 1.235 . S
O116 Fe110 2.002 . S
O116 C117 1.295 . S
C117 O116 1.295 . S
C117 O119 1.235 . S
C118 O123 1.287 . S
C118 O124 1.255 1_655 S
O119 Fe111 1.997 . S
O119 C117 1.235 . S
C120 O126 1.287 . S
C120 O127 1.255 . S
O121 Fe110 1.976 1_455 S
O121 C128 1.287 . S
O122 Fe111 1.996 1_455 S
O122 C128 1.255 . S
O123 Fe113 1.976 . S
O123 C118 1.287 . S
O124 Fe110 1.996 1_455 S
O124 C118 1.255 1_455 S
C125 O129 1.295 . S
C125 O130 1.235 . S
O126 Fe111 1.976 . S
O126 C120 1.287 . S
O127 Fe113 1.996 . S
O127 C120 1.255 . S
C128 O121 1.287 . S
C128 O122 1.255 . S
O129 Fe111 2.002 . S
O129 C125 1.295 . S
O130 Fe113 1.997 . S
O130 C125 1.235 . S
C131 O114 1.295 . S
C131 O115 1.235 . S
Fe132 O134 1.918 . S
Fe132 O137 1.997 . S
Fe132 O138 2.002 . S
Fe132 O143 1.976 1_655 S
Fe132 O146 1.996 1_565 S
Fe133 O134 1.918 . S
Fe133 O141 1.997 . S
Fe133 O144 1.996 1_655 S
Fe133 O148 1.976 1_655 S
Fe133 O151 2.002 . S
O134 Fe132 1.918 . S
O134 Fe133 1.918 . S
O134 Fe135 1.918 . S
Fe135 O134 1.918 . S
Fe135 O136 2.002 . S
Fe135 O145 1.976 1_565 S
Fe135 O149 1.996 1_565 S
Fe135 O152 1.997 . S
O136 Fe135 2.002 . S
O136 C153 1.295 . S
O137 Fe132 1.997 . S
O137 C153 1.235 . S
O138 Fe132 2.002 . S
O138 C139 1.295 . S
C139 O138 1.295 . S
C139 O141 1.235 . S
C140 O145 1.287 . S
C140 O146 1.255 . S
O141 Fe133 1.997 . S
O141 C139 1.235 . S
C142 O148 1.287 1_655 S
C142 O149 1.255 1_565 S
O143 Fe132 1.976 1_455 S
O143 C150 1.287 . S
O144 Fe133 1.996 1_455 S
O144 C150 1.255 . S
O145 Fe135 1.976 1_545 S
O145 C140 1.287 . S
O146 Fe132 1.996 1_545 S
O146 C140 1.255 . S
C147 O151 1.295 . S
C147 O152 1.235 . S
O148 Fe133 1.976 1_455 S
O148 C142 1.287 1_455 S
O149 Fe135 1.996 1_545 S
O149 C142 1.255 1_545 S
C150 O143 1.287 . S
C150 O144 1.255 . S
O151 Fe133 2.002 . S
O151 C147 1.295 . S
O152 Fe135 1.997 . S
O152 C147 1.235 . S
C153 O136 1.295 . S
C153 O137 1.235 . S
Fe154 O156 1.918 . S
Fe154 O159 1.997 . S
Fe154 O160 2.002 . S
Fe154 O165 1.976 1_565 S
Fe154 O168 1.996 1_565 S
Fe155 O156 1.918 . S
Fe155 O163 1.997 . S
Fe155 O166 1.996 . S
Fe155 O170 1.976 . S
Fe155 O173 2.002 . S
O156 Fe154 1.918 . S
O156 Fe155 1.918 . S
O156 Fe157 1.918 . S
Fe157 O156 1.918 . S
Fe157 O158 2.002 . S
Fe157 O167 1.976 1_565 S
Fe157 O171 1.996 . S
Fe157 O174 1.997 . S
O158 Fe157 2.002 . S
O158 C175 1.295 . S
O159 Fe154 1.997 . S
O159 C175 1.235 . S
O160 Fe154 2.002 . S
O160 C161 1.295 . S
C161 O160 1.295 . S
C161 O163 1.235 . S
C162 O167 1.287 . S
C162 O168 1.255 . S
O163 Fe155 1.997 . S
O163 C161 1.235 . S
C164 O170 1.287 . S
C164 O171 1.255 . S
O165 Fe154 1.976 1_545 S
O165 C172 1.287 1_545 S
O166 Fe155 1.996 . S
O166 C172 1.255 . S
O167 Fe157 1.976 1_545 S
O167 C162 1.287 . S
O168 Fe154 1.996 1_545 S
O168 C162 1.255 . S
C169 O173 1.295 . S
C169 O174 1.235 . S
O170 Fe155 1.976 . S
O170 C164 1.287 . S
O171 Fe157 1.996 . S
O171 C164 1.255 . S
C172 O165 1.287 1_565 S
C172 O166 1.255 . S
O173 Fe155 2.002 . S
O173 C169 1.295 . S
O174 Fe157 1.997 . S
O174 C169 1.235 . S
C175 O158 1.295 . S
C175 O159 1.235 . S
C176 C177 1.387 . S
C176 H180 0.950 . S
C176 C185 1.390 . S
C177 C176 1.387 . S
C177 C179 1.387 . S
H178 C185 0.950 . S
C179 C177 1.387 . S
C179 C181 1.390 . S
C179 H183 0.950 . S
H180 C176 0.950 . S
C181 C179 1.390 . S
C181 C182 1.387 . S
C181 H184 0.950 . S
C182 C181 1.387 . S
C182 C185 1.387 . S
H183 C179 0.950 . S
H184 C181 0.950 . S
C185 C176 1.390 . S
C185 H178 0.950 . S
C185 C182 1.387 . S
C186 C187 1.387 1_455 S
C186 H190 0.950 . S
C186 C195 1.390 . S
C187 C186 1.387 1_655 S
C187 C189 1.387 . S
H188 C195 0.950 . S
C189 C187 1.387 . S
C189 C191 1.390 . S
C189 H193 0.950 . S
H190 C186 0.950 . S
C191 C189 1.390 . S
C191 C192 1.387 1_655 S
C191 H194 0.950 . S
C192 C191 1.387 1_455 S
C192 C195 1.387 . S
H193 C189 0.950 . S
H194 C191 0.950 . S
C195 C186 1.390 . S
C195 H188 0.950 . S
C195 C192 1.387 . S
C196 C197 1.387 1_565 S
C196 H200 0.950 . S
C196 C205 1.390 . S
C197 C196 1.387 1_545 S
C197 C199 1.387 . S
H198 C205 0.950 . S
C199 C197 1.387 . S
C199 C201 1.390 . S
C199 H203 0.950 . S
H200 C196 0.950 . S
C201 C199 1.390 . S
C201 C202 1.387 1_545 S
C201 H204 0.950 . S
C202 C201 1.387 1_565 S
C202 C205 1.387 . S
H203 C199 0.950 . S
H204 C201 0.950 . S
C205 C196 1.390 . S
C205 H198 0.950 . S
C205 C202 1.387 . S
C206 C207 1.387 . S
C206 H210 0.950 . S
C206 C215 1.390 . S
C207 C206 1.387 . S
C207 C209 1.387 . S
H208 C215 0.950 . S
C209 C207 1.387 . S
C209 C211 1.390 . S
C209 H213 0.950 . S
H210 C206 0.950 . S
C211 C209 1.390 . S
C211 C212 1.387 . S
C211 H214 0.950 . S
C212 C211 1.387 . S
C212 C215 1.387 . S
H213 C209 0.950 . S
H214 C211 0.950 . S
C215 C206 1.390 . S
C215 H208 0.950 . S
C215 C212 1.387 . S
C216 C217 1.387 . S
C216 H220 0.950 . S
C216 C225 1.390 . S
C217 C216 1.387 . S
C217 C219 1.387 . S
H218 C225 0.950 . S
C219 C217 1.387 . S
C219 C221 1.390 . S
C219 H223 0.950 . S
H220 C216 0.950 . S
C221 C219 1.390 . S
C221 C222 1.387 . S
C221 H224 0.950 . S
C222 C221 1.387 . S
C222 C225 1.387 . S
H223 C219 0.950 . S
H224 C221 0.950 . S
C225 C216 1.390 . S
C225 H218 0.950 . S
C225 C222 1.387 . S
C226 C227 1.387 1_655 S
C226 H230 0.950 . S
C226 C235 1.390 . S
C227 C226 1.387 1_455 S
C227 C229 1.387 . S
H228 C235 0.950 . S
C229 C227 1.387 . S
C229 C231 1.390 . S
C229 H233 0.950 . S
H230 C226 0.950 . S
C231 C229 1.390 . S
C231 C232 1.387 1_455 S
C231 H234 0.950 . S
C232 C231 1.387 1_655 S
C232 C235 1.387 . S
H233 C229 0.950 . S
H234 C231 0.950 . S
C235 C226 1.390 . S
C235 H228 0.950 . S
C235 C232 1.387 . S
C236 C237 1.387 1_565 S
C236 H240 0.950 . S
C236 C245 1.390 . S
C237 C236 1.387 1_545 S
C237 C239 1.387 . S
H238 C245 0.950 . S
C239 C237 1.387 . S
C239 C241 1.390 . S
C239 H243 0.950 . S
H240 C236 0.950 . S
C241 C239 1.390 . S
C241 C242 1.387 1_545 S
C241 H244 0.950 . S
C242 C241 1.387 1_565 S
C242 C245 1.387 . S
H243 C239 0.950 . S
H244 C241 0.950 . S
C245 C236 1.390 . S
C245 H238 0.950 . S
C245 C242 1.387 . S
C246 C247 1.387 . S
C246 H250 0.950 . S
C246 C255 1.390 . S
C247 C246 1.387 . S
C247 C249 1.387 . S
H248 C255 0.950 . S
C249 C247 1.387 . S
C249 C251 1.390 . S
C249 H253 0.950 . S
H250 C246 0.950 . S
C251 C249 1.390 . S
C251 C252 1.387 . S
C251 H254 0.950 . S
C252 C251 1.387 . S
C252 C255 1.387 . S
H253 C249 0.950 . S
H254 C251 0.950 . S
C255 C246 1.390 . S
C255 H248 0.950 . S
C255 C252 1.387 . S
C256 C257 1.387 . S
C256 H260 0.950 . S
C256 C265 1.390 . S
C257 C256 1.387 . S
C257 C259 1.387 . S
H258 C265 0.950 . S
C259 C257 1.387 . S
C259 C261 1.390 . S
C259 H263 0.950 . S
H260 C256 0.950 . S
C261 C259 1.390 . S
C261 C262 1.387 . S
C261 H264 0.950 . S
C262 C261 1.387 . S
C262 C265 1.387 . S
H263 C259 0.950 . S
H264 C261 0.950 . S
C265 C256 1.390 . S
C265 H258 0.950 . S
C265 C262 1.387 . S
C266 C267 1.387 1_655 S
C266 H270 0.950 . S
C266 C275 1.390 . S
C267 C266 1.387 1_455 S
C267 C269 1.387 . S
H268 C275 0.950 . S
C269 C267 1.387 . S
C269 C271 1.390 . S
C269 H273 0.950 . S
H270 C266 0.950 . S
C271 C269 1.390 . S
C271 C272 1.387 1_455 S
C271 H274 0.950 . S
C272 C271 1.387 1_655 S
C272 C275 1.387 . S
H273 C269 0.950 . S
H274 C271 0.950 . S
C275 C266 1.390 . S
C275 H268 0.950 . S
C275 C272 1.387 . S
C276 C277 1.387 . S
C276 H280 0.950 . S
C276 C285 1.390 . S
C277 C276 1.387 . S
C277 C279 1.387 1_545 S
H278 C285 0.950 . S
C279 C277 1.387 1_565 S
C279 C281 1.390 . S
C279 H283 0.950 . S
H280 C276 0.950 . S
C281 C279 1.390 . S
C281 C282 1.387 . S
C281 H284 0.950 . S
C282 C281 1.387 . S
C282 C285 1.387 1_565 S
H283 C279 0.950 . S
H284 C281 0.950 . S
C285 C276 1.390 . S
C285 H278 0.950 . S
C285 C282 1.387 1_545 S
C286 C287 1.387 . S
C286 H290 0.950 . S
C286 C295 1.390 . S
C287 C286 1.387 . S
C287 C289 1.387 . S
H288 C295 0.950 . S
C289 C287 1.387 . S
C289 C291 1.390 . S
C289 H293 0.950 . S
H290 C286 0.950 . S
C291 C289 1.390 . S
C291 C292 1.387 . S
C291 H294 0.950 . S
C292 C291 1.387 . S
C292 C295 1.387 . S
H293 C289 0.950 . S
H294 C291 0.950 . S
C295 C286 1.390 . S
C295 H288 0.950 . S
C295 C292 1.387 . S
C296 C297 1.387 . S
C296 H300 0.950 . S
C296 C305 1.390 . S
C297 C296 1.387 . S
C297 C299 1.387 . S
H298 C305 0.950 . S
C299 C297 1.387 . S
C299 C301 1.390 . S
C299 H303 0.950 . S
H300 C296 0.950 . S
C301 C299 1.390 . S
C301 C302 1.387 . S
C301 H304 0.950 . S
C302 C301 1.387 . S
C302 C305 1.387 . S
H303 C299 0.950 . S
H304 C301 0.950 . S
C305 C296 1.390 . S
C305 H298 0.950 . S
C305 C302 1.387 . S
C306 C307 1.387 1_655 S
C306 H310 0.950 . S
C306 C315 1.390 . S
C307 C306 1.387 1_455 S
C307 C309 1.387 . S
H308 C315 0.950 . S
C309 C307 1.387 . S
C309 C311 1.390 . S
C309 H313 0.950 . S
H310 C306 0.950 . S
C311 C309 1.390 . S
C311 C312 1.387 1_455 S
C311 H314 0.950 . S
C312 C311 1.387 1_655 S
C312 C315 1.387 . S
H313 C309 0.950 . S
H314 C311 0.950 . S
C315 C306 1.390 . S
C315 H308 0.950 . S
C315 C312 1.387 . S
C316 C317 1.387 . S
C316 H320 0.950 . S
C316 C325 1.390 . S
C317 C316 1.387 . S
C317 C319 1.387 1_565 S
H318 C325 0.950 . S
C319 C317 1.387 1_545 S
C319 C321 1.390 . S
C319 H323 0.950 . S
H320 C316 0.950 . S
C321 C319 1.390 . S
C321 C322 1.387 . S
C321 H324 0.950 . S
C322 C321 1.387 . S
C322 C325 1.387 1_545 S
H323 C319 0.950 . S
H324 C321 0.950 . S
C325 C316 1.390 . S
C325 H318 0.950 . S
C325 C322 1.387 1_565 S
C326 C327 1.387 . S
C326 H330 0.950 . S
C326 C335 1.390 . S
C327 C326 1.387 . S
C327 C329 1.387 . S
H328 C335 0.950 . S
C329 C327 1.387 . S
C329 C331 1.390 . S
C329 H333 0.950 . S
H330 C326 0.950 . S
C331 C329 1.390 . S
C331 C332 1.387 . S
C331 H334 0.950 . S
C332 C331 1.387 . S
C332 C335 1.387 . S
H333 C329 0.950 . S
H334 C331 0.950 . S
C335 C326 1.390 . S
C335 H328 0.950 . S
C335 C332 1.387 . S
C336 C337 1.387 . S
C336 H340 0.950 . S
C336 C345 1.390 . S
C337 C336 1.387 . S
C337 C339 1.387 . S
H338 C345 0.950 . S
C339 C337 1.387 . S
C339 C341 1.390 . S
C339 H343 0.950 . S
H340 C336 0.950 . S
C341 C339 1.390 . S
C341 C342 1.387 . S
C341 H344 0.950 . S
C342 C341 1.387 . S
C342 C345 1.387 . S
H343 C339 0.950 . S
H344 C341 0.950 . S
C345 C336 1.390 . S
C345 H338 0.950 . S
C345 C342 1.387 . S
C346 C347 1.387 . S
C346 H350 0.950 . S
C346 C355 1.390 . S
C347 C346 1.387 . S
C347 C349 1.387 . S
H348 C355 0.950 . S
C349 C347 1.387 . S
C349 C351 1.390 . S
C349 H353 0.950 . S
H350 C346 0.950 . S
C351 C349 1.390 . S
C351 C352 1.387 . S
C351 H354 0.950 . S
C352 C351 1.387 . S
C352 C355 1.387 . S
H353 C349 0.950 . S
H354 C351 0.950 . S
C355 C346 1.390 . S
C355 H348 0.950 . S
C355 C352 1.387 . S
C356 C357 1.387 . S
C356 H360 0.950 . S
C356 C365 1.390 . S
C357 C356 1.387 . S
C357 C359 1.387 . S
H358 C365 0.950 . S
C359 C357 1.387 . S
C359 C361 1.390 . S
C359 H363 0.950 . S
H360 C356 0.950 . S
C361 C359 1.390 . S
C361 C362 1.387 . S
C361 H364 0.950 . S
C362 C361 1.387 . S
C362 C365 1.387 . S
H363 C359 0.950 . S
H364 C361 0.950 . S
C365 C356 1.390 . S
C365 H358 0.950 . S
C365 C362 1.387 . S
C366 C367 1.387 . S
C366 H370 0.950 . S
C366 C375 1.390 . S
C367 C366 1.387 . S
C367 C369 1.387 . S
H368 C375 0.950 . S
C369 C367 1.387 . S
C369 C371 1.390 . S
C369 H373 0.950 . S
H370 C366 0.950 . S
C371 C369 1.390 . S
C371 C372 1.387 . S
C371 H374 0.950 . S
C372 C371 1.387 . S
C372 C375 1.387 . S
H373 C369 0.950 . S
H374 C371 0.950 . S
C375 C366 1.390 . S
C375 H368 0.950 . S
C375 C372 1.387 . S
C376 C377 1.387 . S
C376 H380 0.950 . S
C376 C385 1.390 1_556 S
C377 C376 1.387 . S
C377 C379 1.387 1_655 S
H378 C385 0.950 . S
C379 C377 1.387 1_455 S
C379 C381 1.390 1_556 S
C379 H383 0.950 . S
H380 C376 0.950 . S
C381 C379 1.390 1_554 S
C381 C382 1.387 . S
C381 H384 0.950 . S
C382 C381 1.387 . S
C382 C385 1.387 1_455 S
H383 C379 0.950 . S
H384 C381 0.950 . S
C385 C376 1.390 1_554 S
C385 H378 0.950 . S
C385 C382 1.387 1_655 S
C386 C387 1.387 1_565 S
C386 H390 0.950 . S
C386 C395 1.390 . S
C387 C386 1.387 1_545 S
C387 C389 1.387 1_455 S
H388 C395 0.950 . S
C389 C387 1.387 1_655 S
C389 C391 1.390 . S
C389 H393 0.950 . S
H390 C386 0.950 . S
C391 C389 1.390 . S
C391 C392 1.387 1_545 S
C391 H394 0.950 . S
C392 C391 1.387 1_565 S
C392 C395 1.387 1_655 S
H393 C389 0.950 . S
H394 C391 0.950 . S
C395 C386 1.390 . S
C395 H388 0.950 . S
C395 C392 1.387 1_455 S
C396 C397 1.387 1_545 S
C396 H400 0.950 . S
C396 C405 1.390 1_556 S
C397 C396 1.387 1_565 S
C397 C399 1.387 . S
H398 C405 0.950 . S
C399 C397 1.387 . S
C399 C401 1.390 1_556 S
C399 H403 0.950 . S
H400 C396 0.950 . S
C401 C399 1.390 1_554 S
C401 C402 1.387 1_565 S
C401 H404 0.950 . S
C402 C401 1.387 1_545 S
C402 C405 1.387 . S
H403 C399 0.950 . S
H404 C401 0.950 . S
C405 C396 1.390 1_554 S
C405 H398 0.950 . S
C405 C402 1.387 . S
C406 C407 1.387 . S
C406 H410 0.950 . S
C406 C415 1.390 . S
C407 C406 1.387 . S
C407 C409 1.387 . S
H408 C415 0.950 . S
C409 C407 1.387 . S
C409 C411 1.390 . S
C409 H413 0.950 . S
H410 C406 0.950 . S
C411 C409 1.390 . S
C411 C412 1.387 . S
C411 H414 0.950 . S
C412 C411 1.387 . S
C412 C415 1.387 . S
H413 C409 0.950 . S
H414 C411 0.950 . S
C415 C406 1.390 . S
C415 H408 0.950 . S
C415 C412 1.387 . S
C177 C98 1.369 . S
C182 C15 1.364 . S
C187 C120 1.367 . S
C192 C29 1.363 . S
C197 C65 1.363 . S
C202 C150 1.369 . S
C207 C81 1.365 . S
C212 C162 1.368 . S
C217 C95 1.363 . S
C222 C8 1.367 . S
C227 C32 1.367 . S
C232 C117 1.363 . S
C237 C62 1.368 . S
C242 C153 1.365 . S
C247 C74 1.369 . S
C252 C169 1.365 . S
C257 C125 1.368 . S
C262 C76 1.362 . S
C267 C10 1.360 . S
C272 C139 1.367 . S
C277 C40 1.359 . S
C282 C175 1.367 . S
C287 C52 1.359 . S
C292 C103 1.367 . S
C297 C87 1.369 . S
C302 C128 1.360 . S
C307 C21 1.369 . S
C312 C140 1.359 . S
C317 C164 1.359 . S
C322 C37 1.368 . S
C327 C106 1.359 . S
C332 C51 1.367 . S
C337 C7 1.796 . S
C342 C59 1.796 . S
C347 C43 1.797 . S
C352 C73 1.797 . S
C357 C147 1.796 . S
C362 C109 1.796 . S
C367 C161 1.796 . S
C372 C131 1.796 . S
C377 C118 1.452 . S
C382 C18 1.452 . S
C387 C30 1.452 . S
C392 C142 1.452 . S
C397 C172 1.452 . S
C402 C54 1.452 . S
C407 C96 1.453 . S
C412 C84 1.453 . S
