# Generated by pormake.
# Topology eci, (8)-cn, num edge types: 1
# Building blocks:
#     Node 0, Type 0, BuildingBlock: TAGTUT_clean_sbu_1, # of connection points: 8
#     Node 1, Type 0, BuildingBlock: TAGTUT_clean_sbu_1, # of connection points: 8
#     Node 2, Type 0, BuildingBlock: TAGTUT_clean_sbu_1, # of connection points: 8
#     Node 3, Type 0, BuildingBlock: TAGTUT_clean_sbu_1, # of connection points: 8
#     Edge 4, Type (0, 0), BuildingBlock: XUDNAN_clean_linker_2, # of connection points: 2
#     Edge 5, Type (0, 0), BuildingBlock: XUDNAN_clean_linker_2, # of connection points: 2
#     Edge 6, Type (0, 0), BuildingBlock: XUDNAN_clean_linker_2, # of connection points: 2
#     Edge 7, Type (0, 0), BuildingBlock: XUDNAN_clean_linker_2, # of connection points: 2
#     Edge 8, Type (0, 0), BuildingBlock: XUDNAN_clean_linker_2, # of connection points: 2
#     Edge 9, Type (0, 0), BuildingBlock: XUDNAN_clean_linker_2, # of connection points: 2
#     Edge 10, Type (0, 0), BuildingBlock: XUDNAN_clean_linker_2, # of connection points: 2
#     Edge 11, Type (0, 0), BuildingBlock: XUDNAN_clean_linker_2, # of connection points: 2
#     Edge 12, Type (0, 0), BuildingBlock: XUDNAN_clean_linker_2, # of connection points: 2
#     Edge 13, Type (0, 0), BuildingBlock: XUDNAN_clean_linker_2, # of connection points: 2
#     Edge 14, Type (0, 0), BuildingBlock: XUDNAN_clean_linker_2, # of connection points: 2
#     Edge 15, Type (0, 0), BuildingBlock: XUDNAN_clean_linker_2, # of connection points: 2
#     Edge 16, Type (0, 0), BuildingBlock: XUDNAN_clean_linker_2, # of connection points: 2
#     Edge 17, Type (0, 0), BuildingBlock: XUDNAN_clean_linker_2, # of connection points: 2
#     Edge 18, Type (0, 0), BuildingBlock: XUDNAN_clean_linker_2, # of connection points: 2
#     Edge 19, Type (0, 0), BuildingBlock: XUDNAN_clean_linker_2, # of connection points: 2
# Relax obj value: 0.210
# Max RMSD: 0.267
# Mean RMSD: 0.257
data_MOF--net-eci--node1-TAGTUT_clean_sbu_1--edge1-XUDNAN_clean_linker_2
_symmetry_space_group_name_H-M    P1
_symmetry_Int_Tables_number       1
_symmetry_cell_setting            triclinic
loop_
_symmetry_equiv_pos_as_xyz
'x, y, z'
_cell_length_a     27.998079
_cell_length_b     30.585664
_cell_length_c     18.637013
_cell_angle_alpha  94.08375
_cell_angle_beta   93.249345
_cell_angle_gamma 90.550446
loop_
_atom_site_label
_atom_site_type_symbol
_atom_site_fract_x
_atom_site_fract_y
_atom_site_fract_z
_atom_type_partial_charge
C0 C 0.84218 0.65714 0.16239 0.0
C1 C 0.8622 0.77074 0.31864 0.0
C2 C 0.76219 0.85726 0.10552 0.0
Mg3 Mg 0.91082 0.73766 0.18256 0.0
O4 O 0.85965 0.75956 0.12643 0.0
Mg5 Mg 0.79382 0.75797 0.16161 0.0
Mg6 Mg 0.85882 0.81616 0.08197 0.0
O7 O 0.85521 0.87141 0.0311 0.0
Mg8 Mg 0.79923 0.87623 0.9678 0.0
Mg9 Mg 0.91898 0.86811 0.98723 0.0
C10 C 0.96773 0.78045 0.05789 0.0
C11 C 0.93624 0.88758 0.16133 0.0
O12 O 0.80627 0.68306 0.16378 0.0
O13 O 0.88571 0.67077 0.16903 0.0
O14 O 0.82441 0.76966 0.27696 0.0
O15 O 0.90323 0.76266 0.29429 0.0
O16 O 0.96685 0.75752 0.11324 0.0
O17 O 0.93009 0.79929 0.03175 0.0
C18 C 0.77397 0.75533 0.99001 0.0
O19 O 0.81013 0.78081 0.98531 0.0
O20 O 0.76205 0.74402 0.05058 0.0
O21 O 0.89704 0.93669 0.95442 0.0
O22 O 0.81658 0.94388 0.95231 0.0
O23 O 0.89025 0.83743 0.87505 0.0
C24 C 0.85892 0.95968 0.94784 0.0
O25 O 0.81055 0.8387 0.86948 0.0
O26 O 0.75266 0.84359 0.04023 0.0
C27 C 0.8498 0.82862 0.84161 0.0
O28 O 0.79049 0.83433 0.14376 0.0
O29 O 0.90689 0.85609 0.1713 0.0
O30 O 0.94564 0.8973 0.09794 0.0
C31 C 0.73601 0.16383 0.01823 0.0
C32 C 0.67438 0.27119 0.90432 0.0
C33 C 0.74096 0.37302 0.13767 0.0
Mg34 Mg 0.64238 0.2176 0.02471 0.0
O35 O 0.68342 0.24803 0.09547 0.0
Mg36 Mg 0.74345 0.2729 0.06081 0.0
Mg37 Mg 0.65739 0.30022 0.14828 0.0
O38 O 0.63006 0.35215 0.20178 0.0
Mg39 Mg 0.67161 0.38271 0.26964 0.0
Mg40 Mg 0.57439 0.32201 0.24281 0.0
C41 C 0.56993 0.23161 0.15113 0.0
C42 C 0.55632 0.32482 0.0688 0.0
O43 O 0.76196 0.19888 0.03157 0.0
O44 O 0.69018 0.1646 0.01286 0.0
O45 O 0.71116 0.27936 0.94686 0.0
O46 O 0.63861 0.25005 0.9244 0.0
O47 O 0.57949 0.21416 0.08876 0.0
O48 O 0.59997 0.25677 0.18969 0.0
C49 C 0.75863 0.2783 0.23339 0.0
O50 O 0.71525 0.29042 0.23995 0.0
O51 O 0.77513 0.26837 0.17214 0.0
O52 O 0.55435 0.39169 0.28895 0.0
O53 O 0.62236 0.43242 0.30329 0.0
O54 O 0.6129 0.3103 0.35477 0.0
C55 C 0.57704 0.42789 0.3074 0.0
O56 O 0.68356 0.34465 0.35982 0.0
O57 O 0.72971 0.39111 0.19881 0.0
C58 C 0.65349 0.32023 0.38719 0.0
O59 O 0.71544 0.34221 0.10334 0.0
O60 O 0.59974 0.31343 0.05939 0.0
O61 O 0.53984 0.33093 0.13158 0.0
C62 C 0.26013 0.25335 0.35001 0.0
C63 C 0.12774 0.19275 0.29197 0.0
C64 C 0.05808 0.29066 0.51429 0.0
Mg65 Mg 0.20602 0.17755 0.41023 0.0
O66 O 0.18448 0.22434 0.46899 0.0
Mg67 Mg 0.15326 0.27387 0.42008 0.0
Mg68 Mg 0.13772 0.21438 0.54265 0.0
O69 O 0.09059 0.2057 0.6157 0.0
Mg70 Mg 0.06961 0.25474 0.67025 0.0
Mg71 Mg 0.12201 0.15796 0.66731 0.0
C72 C 0.20989 0.13222 0.56177 0.0
C73 C 0.08423 0.11782 0.50688 0.0
O74 O 0.2239 0.27847 0.35843 0.0
O75 O 0.2621 0.21433 0.37056 0.0
O76 O 0.12287 0.23003 0.32563 0.0
O77 O 0.15658 0.16443 0.31623 0.0
O78 O 0.21949 0.13253 0.49501 0.0
O79 O 0.18672 0.16353 0.5941 0.0
C80 C 0.18896 0.3125 0.58009 0.0
O81 O 0.17477 0.27729 0.60733 0.0
O82 O 0.18437 0.31717 0.51274 0.0
O83 O 0.05334 0.15732 0.73103 0.0
O84 O 0.01463 0.2213 0.72182 0.0
O85 O 0.15251 0.20379 0.76233 0.0
C86 C 0.01807 0.18277 0.7442 0.0
O87 O 0.1228 0.27096 0.75579 0.0
O88 O 0.04931 0.29501 0.58142 0.0
C89 C 0.14673 0.24277 0.78986 0.0
O90 O 0.08788 0.26236 0.48995 0.0
O91 O 0.09992 0.15204 0.47839 0.0
O92 O 0.0888 0.11453 0.5749 0.0
C93 C 0.30193 0.82998 0.62492 0.0
C94 C 0.34686 0.71059 0.49958 0.0
C95 C 0.25249 0.62235 0.69804 0.0
Mg96 Mg 0.38456 0.76353 0.63933 0.0
O97 O 0.3368 0.73639 0.68958 0.0
Mg98 Mg 0.27305 0.72278 0.63895 0.0
Mg99 Mg 0.34573 0.67994 0.73347 0.0
O100 O 0.35426 0.62375 0.77956 0.0
Mg101 Mg 0.30457 0.60115 0.83132 0.0
Mg102 Mg 0.41952 0.63274 0.82654 0.0
C103 C 0.45204 0.72891 0.77108 0.0
C104 C 0.42761 0.62707 0.65123 0.0
O105 O 0.27216 0.79751 0.62215 0.0
O106 O 0.34741 0.82515 0.63248 0.0
O107 O 0.30764 0.70701 0.53092 0.0
O108 O 0.38351 0.73013 0.53156 0.0
O109 O 0.4458 0.7529 0.71715 0.0
O110 O 0.41754 0.70554 0.79304 0.0
C111 C 0.25761 0.73057 0.80958 0.0
O112 O 0.29595 0.70893 0.82222 0.0
O113 O 0.24269 0.7379 0.74581 0.0
O114 O 0.41254 0.55877 0.84282 0.0
O115 O 0.33511 0.53651 0.82847 0.0
O116 O 0.39179 0.64922 0.94419 0.0
C117 C 0.37999 0.52847 0.83698 0.0
O118 O 0.31465 0.62929 0.93814 0.0
O119 O 0.24779 0.62999 0.76519 0.0
C120 C 0.35192 0.64454 0.97401 0.0
O121 O 0.27939 0.64858 0.66643 0.0
O122 O 0.39158 0.6521 0.64612 0.0
O123 O 0.44447 0.61553 0.71225 0.0
H124 H 0.92717 0.79788 0.43318 0.0
H125 H 0.78095 0.75179 0.38187 0.0
H126 H 0.76605 0.75501 0.5099 0.0
H127 H 0.94621 0.74153 0.60023 0.0
H128 H 0.97914 0.78658 0.64799 0.0
H129 H 0.98095 0.77813 0.55145 0.0
H130 H 0.95189 0.8574 0.53732 0.0
H131 H 0.95051 0.86616 0.63375 0.0
H132 H 0.89758 0.87514 0.57735 0.0
H133 H 0.76418 0.76433 0.64024 0.0
H134 H 0.77376 0.78649 0.76955 0.0
H135 H 0.91992 0.82886 0.74294 0.0
C136 C 0.89223 0.78828 0.4492 0.0
C137 C 0.85531 0.77467 0.3971 0.0
C138 C 0.80984 0.76276 0.42025 0.0
C139 C 0.80096 0.76403 0.49314 0.0
C140 C 0.83774 0.77749 0.54299 0.0
C141 C 0.88233 0.78992 0.52262 0.0
C142 C 0.91405 0.80588 0.58837 0.0
C143 C 0.95768 0.77625 0.59753 0.0
C144 C 0.9294 0.854 0.58392 0.0
C145 C 0.87984 0.80098 0.64799 0.0
C146 C 0.83634 0.78386 0.62014 0.0
C147 C 0.79813 0.7776 0.66306 0.0
C148 C 0.80393 0.79033 0.7365 0.0
C149 C 0.84756 0.80936 0.76644 0.0
C150 C 0.88639 0.81382 0.72177 0.0
H151 H 0.59186 0.29149 0.4863 0.0
H152 H 0.74122 0.32173 0.45723 0.0
H153 H 0.76062 0.31326 0.5852 0.0
H154 H 0.58574 0.3483 0.65816 0.0
H155 H 0.54831 0.30844 0.69551 0.0
H156 H 0.54514 0.31399 0.59978 0.0
H157 H 0.56337 0.23147 0.57658 0.0
H158 H 0.56591 0.22566 0.67228 0.0
H159 H 0.61588 0.20919 0.62025 0.0
H160 H 0.76369 0.30963 0.71541 0.0
H161 H 0.75341 0.29923 0.84238 0.0
H162 H 0.60282 0.26719 0.79315 0.0
C163 C 0.62878 0.29527 0.50662 0.0
C164 C 0.66502 0.3074 0.46137 0.0
C165 C 0.71279 0.31261 0.4904 0.0
C166 C 0.72422 0.30801 0.5633 0.0
C167 C 0.68762 0.29783 0.60685 0.0
C168 C 0.64103 0.29061 0.57992 0.0
C169 C 0.60892 0.2803 0.63998 0.0
C170 C 0.56971 0.31483 0.64884 0.0
C171 C 0.58725 0.23388 0.62646 0.0
C172 C 0.6449 0.28334 0.70451 0.0
C173 C 0.68983 0.29403 0.68357 0.0
C174 C 0.72888 0.30059 0.73256 0.0
C175 C 0.72243 0.29483 0.80494 0.0
C176 C 0.67731 0.282 0.82823 0.0
C177 C 0.6378 0.27669 0.77716 0.0
H178 H 0.19553 0.19246 0.88678 0.0
H179 H 0.09883 0.30236 0.87428 0.0
H180 H 0.07423 0.29112 -0.00406 0.0
H181 H 0.12389 0.12456 0.98055 0.0
H182 H 0.17112 0.10493 0.03921 0.0
H183 H 0.18429 0.12203 0.95183 0.0
H184 H 0.24787 0.17797 0.00949 0.0
H185 H 0.23643 0.16 0.09689 0.0
H186 H 0.23161 0.2172 0.0804 0.0
H187 H 0.05077 0.2616 0.10985 0.0
H188 H 0.05331 0.23589 0.23175 0.0
H189 H 0.16942 0.14885 0.17777 0.0
C190 C 0.17053 0.21525 0.91057 0.0
C191 C 0.1487 0.2479 0.86986 0.0
C192 C 0.1162 0.27701 0.90356 0.0
C193 C 0.10116 0.27037 0.97238 0.0
C194 C 0.12 0.23537 0.00795 0.0
C195 C 0.15578 0.20973 0.98012 0.0
C196 C 0.17196 0.17604 0.03213 0.0
C197 C 0.16223 0.12911 -0.0011 0.0
C198 C 0.2251 0.18324 0.0562 0.0
C199 C 0.13962 0.18693 0.09349 0.0
C200 C 0.10878 0.2202 0.07682 0.0
C201 C 0.07524 0.23601 0.12405 0.0
C202 C 0.0763 0.22048 0.19288 0.0
C203 C 0.11161 0.19044 0.21473 0.0
C204 C 0.14159 0.17135 0.16271 0.0
H205 H 0.4078 0.69607 0.07966 0.0
H206 H 0.28894 0.60264 0.05006 0.0
H207 H 0.28128 0.60557 0.1798 0.0
H208 H 0.45806 0.65723 0.25098 0.0
H209 H 0.47243 0.71141 0.29132 0.0
H210 H 0.47229 0.70068 0.1949 0.0
H211 H 0.41184 0.76318 0.17766 0.0
H212 H 0.41207 0.77419 0.27393 0.0
H213 H 0.35641 0.76256 0.22236 0.0
H214 H 0.28339 0.61766 0.30956 0.0
H215 H 0.29038 0.64487 0.43666 0.0
H216 H 0.40557 0.73324 0.39139 0.0
C217 C 0.38041 0.67619 0.10076 0.0
C218 C 0.34894 0.64924 0.05382 0.0
C219 C 0.3133 0.62398 0.08392 0.0
C220 C 0.30878 0.62499 0.15806 0.0
C221 C 0.3399 0.65166 0.20262 0.0
C222 C 0.37472 0.67728 0.17582 0.0
C223 C 0.401 0.70502 0.23728 0.0
C224 C 0.45411 0.69285 0.24399 0.0
C225 C 0.39496 0.75416 0.22719 0.0
C226 C 0.37474 0.69124 0.30177 0.0
C227 C 0.34025 0.65982 0.27984 0.0
C228 C 0.31023 0.64231 0.32767 0.0
C229 C 0.31442 0.65813 0.39989 0.0
C230 C 0.34824 0.69143 0.42419 0.0
C231 C 0.37961 0.70754 0.37459 0.0
H232 H 0.52179 0.79339 0.79548 0.0
H233 H 0.49737 0.6545 0.81297 0.0
H234 H 0.58213 0.64557 0.84862 0.0
H235 H 0.64268 0.78662 0.73113 0.0
H236 H 0.66478 0.8345 0.78529 0.0
H237 H 0.60247 0.83031 0.75494 0.0
H238 H 0.57743 0.84204 0.8867 0.0
H239 H 0.63955 0.84751 0.91678 0.0
H240 H 0.60209 0.80735 0.95338 0.0
H241 H 0.66939 0.65102 0.88371 0.0
H242 H 0.74797 0.67301 0.94212 0.0
H243 H 0.71778 0.80894 0.90919 0.0
C244 C 0.53433 0.76109 0.80694 0.0
C245 C 0.50229 0.72455 0.80111 0.0
C246 C 0.52027 0.68308 0.81742 0.0
C247 C 0.56891 0.67756 0.83683 0.0
C248 C 0.59955 0.71394 0.84075 0.0
C249 C 0.58284 0.75518 0.82814 0.0
C250 C 0.62262 0.78947 0.84337 0.0
C251 C 0.63377 0.81153 0.77456 0.0
C252 C 0.60966 0.82359 0.90365 0.0
C253 C 0.66398 0.76108 0.8677 0.0
C254 C 0.65005 0.71743 0.86363 0.0
C255 C 0.68082 0.68503 0.88651 0.0
C256 C 0.72578 0.69775 0.91871 0.0
C257 C 0.73965 0.7425 0.92861 0.0
C258 C 0.70906 0.77437 0.89993 0.0
H259 H 0.69344 0.08629 0.97333 0.0
H260 H 0.82518 0.14193 0.07679 0.0
H261 H 0.84701 0.06859 0.11647 0.0
H262 H 0.66806 0.02638 0.1173 0.0
H263 H 0.63954 0.98128 0.06317 0.0
H264 H 0.63878 0.03539 0.03106 0.0
H265 H 0.67825 0.00756 0.914 0.0
H266 H 0.67615 0.95306 0.94432 0.0
H267 H 0.73192 0.97585 0.92022 0.0
H268 H 0.8483 0.98883 0.15695 0.0
H269 H 0.83477 0.91021 0.17575 0.0
H270 H 0.69853 0.91323 0.05404 0.0
C271 C 0.72766 0.08309 0.00252 0.0
C272 C 0.75744 0.11994 0.02226 0.0
C273 C 0.80185 0.1141 0.06061 0.0
C274 C 0.81417 0.07268 0.08428 0.0
C275 C 0.78148 0.03794 0.06943 0.0
C276 C 0.73951 0.04286 0.02821 0.0
C277 C 0.70789 0.00249 0.02447 0.0
C278 C 0.66081 0.01199 0.0612 0.0
C279 C 0.69807 0.98364 0.94616 0.0
C280 C 0.73925 0.97316 0.06777 0.0
C281 C 0.78132 0.99395 0.0944 0.0
C282 C 0.81554 0.97235 0.1359 0.0
C283 C 0.80747 0.9278 0.14683 0.0
C284 C 0.76597 0.90557 0.11517 0.0
C285 C 0.73069 0.92938 0.07849 0.0
H286 H 0.35059 0.2757 0.399 0.0
H287 H 0.2577 0.25381 0.20585 0.0
H288 H 0.32836 0.2471 0.13226 0.0
H289 H 0.44839 0.33816 0.30948 0.0
H290 H 0.49429 0.31414 0.36525 0.0
H291 H 0.43653 0.32552 0.39987 0.0
H292 H 0.42959 0.24433 0.42988 0.0
H293 H 0.4863 0.23232 0.39281 0.0
H294 H 0.43358 0.20148 0.3589 0.0
H295 H 0.40709 0.22688 0.08519 0.0
H296 H 0.49118 0.21332 0.06006 0.0
H297 H 0.53403 0.25184 0.28347 0.0
C298 C 0.34543 0.2721 0.34082 0.0
C299 C 0.2992 0.26636 0.30729 0.0
C300 C 0.29309 0.25965 0.2316 0.0
C301 C 0.33295 0.25528 0.18971 0.0
C302 C 0.37831 0.25862 0.22472 0.0
C303 C 0.3849 0.26864 0.29819 0.0
C304 C 0.43742 0.26809 0.32276 0.0
C305 C 0.4552 0.31422 0.35098 0.0
C306 C 0.44725 0.23455 0.37941 0.0
C307 C 0.45893 0.25392 0.25236 0.0
C308 C 0.42419 0.24843 0.19668 0.0
C309 C 0.43483 0.23229 0.12785 0.0
C310 C 0.4827 0.22406 0.11444 0.0
C311 C 0.51934 0.2323 0.16957 0.0
C312 C 0.50695 0.24621 0.23986 0.0
H313 H 0.33949 0.90305 0.56998 0.0
H314 H 0.22063 0.85795 0.68607 0.0
H315 H 0.18945 0.9333 0.69654 0.0
H316 H 0.35546 0.01113 0.66443 0.0
H317 H 0.36722 0.03781 0.58395 0.0
H318 H 0.38272 0.98116 0.59097 0.0
H319 H 0.33178 0.95924 0.4731 0.0
H320 H 0.31685 0.01583 0.46523 0.0
H321 H 0.26994 0.97509 0.46559 0.0
H322 H 0.17101 0.01392 0.69395 0.0
H323 H 0.15939 0.08977 0.6607 0.0
H324 H 0.28696 0.08109 0.53928 0.0
C325 C 0.30708 0.9092 0.59794 0.0
C326 C 0.28254 0.87481 0.62741 0.0
C327 C 0.23981 0.88386 0.66267 0.0
C328 C 0.22211 0.92661 0.66959 0.0
C329 C 0.24724 0.95991 0.64025 0.0
C330 C 0.28831 0.95154 0.60395 0.0
C331 C 0.30605 0.99227 0.5716 0.0
C332 C 0.35582 0.00642 0.60474 0.0
C333 C 0.30612 0.98518 0.489 0.0
C334 C 0.26826 0.02465 0.59464 0.0
C335 C 0.2353 0.0057 0.63567 0.0
C336 C 0.19662 0.02911 0.66179 0.0
C337 C 0.19038 0.07245 0.64291 0.0
C338 C 0.22199 0.09147 0.59695 0.0
C339 C 0.26215 0.06748 0.57457 0.0
H340 H 0.03414 0.71682 0.04447 0.0
H341 H 0.00617 0.85105 -0.00417 0.0
H342 H 0.0859 0.85569 0.94543 0.0
H343 H 0.16295 0.72863 0.08977 0.0
H344 H 0.17634 0.67605 0.04612 0.0
H345 H 0.1194 0.68458 0.08514 0.0
H346 H 0.07505 0.66019 0.9627 0.0
H347 H 0.13175 0.65073 0.92399 0.0
H348 H 0.08935 0.68687 0.88326 0.0
H349 H 0.16648 0.84449 0.89593 0.0
H350 H 0.23543 0.81532 0.83219 0.0
H351 H 0.21043 0.68726 0.90918 0.0
C352 C 0.04505 0.7474 0.02393 0.0
C353 C 0.01416 0.78377 0.02444 0.0
C354 C 0.02911 0.82281 -0.00438 0.0
C355 C 0.07458 0.82584 0.9678 0.0
C356 C 0.10437 0.78945 0.96888 0.0
C357 C 0.08986 0.7507 -0.0049 0.0
C358 C 0.12637 0.71492 0.98322 0.0
C359 C 0.14751 0.70019 0.05537 0.0
C360 C 0.10432 0.6759 0.93543 0.0
C361 C 0.16344 0.73926 0.94462 0.0
C362 C 0.15052 0.78254 0.93864 0.0
C363 C 0.17723 0.81092 0.90114 0.0
C364 C 0.21658 0.79416 0.86567 0.0
C365 C 0.22877 0.74939 0.86741 0.0
C366 C 0.20292 0.72194 0.90944 0.0
H367 H 0.82579 0.4047 0.19507 0.0
H368 H 0.7319 0.39995 0.00233 0.0
H369 H 0.76252 0.47199 0.97435 0.0
H370 H 0.80279 0.49834 0.25562 0.0
H371 H 0.86024 0.51993 0.29072 0.0
H372 H 0.85009 0.46185 0.28105 0.0
H373 H 0.92129 0.4505 0.19991 0.0
H374 H 0.93398 0.50857 0.21227 0.0
H375 H 0.92577 0.48228 0.12268 0.0
H376 H 0.7749 0.55127 -0.00439 0.0
H377 H 0.78744 0.62776 0.04503 0.0
H378 H 0.87726 0.5836 0.22176 0.0
C379 C 0.81484 0.41745 0.14401 0.0
C380 C 0.77658 0.39728 0.10094 0.0
C381 C 0.76166 0.41476 0.0354 0.0
C382 C 0.77854 0.45605 0.01964 0.0
C383 C 0.8114 0.47824 0.06877 0.0
C384 C 0.83142 0.45871 0.12797 0.0
C385 C 0.85948 0.49185 0.17884 0.0
C386 C 0.84204 0.49303 0.25601 0.0
C387 C 0.91333 0.48277 0.17835 0.0
C388 C 0.84744 0.53367 0.14349 0.0
C389 C 0.82027 0.52501 0.07953 0.0
C390 C 0.79797 0.5584 0.04367 0.0
C391 C 0.80448 0.60161 0.07284 0.0
C392 C 0.83329 0.61113 0.13693 0.0
C393 C 0.85564 0.57688 0.17208 0.0
H394 H 0.83185 0.22448 0.2632 0.0
H395 H 0.77011 0.34893 0.33043 0.0
H396 H 0.84364 0.3691 0.40522 0.0
H397 H 0.9036 0.20818 0.43197 0.0
H398 H 0.95197 0.18482 0.38283 0.0
H399 H 0.89135 0.17849 0.34569 0.0
H400 H 0.91619 0.2133 0.22925 0.0
H401 H 0.9763 0.21881 0.26807 0.0
H402 H 0.94567 0.26627 0.23736 0.0
H403 H 0.92644 0.37661 0.4679 0.0
H404 H 0.00785 0.36704 0.52339 0.0
H405 H 0.01786 0.24226 0.3997 0.0
C406 C 0.83315 0.25515 0.29621 0.0
C407 C 0.79449 0.28429 0.29394 0.0
C408 C 0.79808 0.32502 0.33503 0.0
C409 C 0.84028 0.33721 0.37614 0.0
C410 C 0.87867 0.30855 0.37422 0.0
C411 C 0.8752 0.26811 0.33602 0.0
C412 C 0.92212 0.24418 0.33935 0.0
C413 C 0.91695 0.20142 0.37726 0.0
C414 C 0.94116 0.23521 0.26398 0.0
C415 C 0.95289 0.27772 0.38468 0.0
C416 C 0.92718 0.31451 0.40485 0.0
C417 C 0.94712 0.34823 0.45178 0.0
C418 C 0.99354 0.34289 0.48222 0.0
C419 C 0.01952 0.30453 0.46442 0.0
C420 C 0.99965 0.27271 0.41233 0.0
H421 H 0.14502 0.37832 0.65697 0.0
H422 H 0.28277 0.33438 0.58894 0.0
H423 H 0.31589 0.40945 0.61431 0.0
H424 H 0.14382 0.47419 0.57752 0.0
H425 H 0.11644 0.50756 0.64707 0.0
H426 H 0.10548 0.44933 0.63817 0.0
H427 H 0.13587 0.44229 0.77061 0.0
H428 H 0.14527 0.50084 0.78095 0.0
H429 H 0.19378 0.46468 0.80182 0.0
H430 H 0.32949 0.49226 0.62513 0.0
H431 H 0.32633 0.57334 0.6425 0.0
H432 H 0.18064 0.5633 0.70742 0.0
C433 C 0.18289 0.38403 0.65195 0.0
C434 C 0.21186 0.3501 0.6237 0.0
C435 C 0.26054 0.35946 0.61332 0.0
C436 C 0.27944 0.40223 0.62653 0.0
C437 C 0.24927 0.43553 0.6505 0.0
C438 C 0.20237 0.42667 0.66531 0.0
C439 C 0.17659 0.46873 0.68621 0.0
C440 C 0.13302 0.4753 0.63412 0.0
C441 C 0.16203 0.46916 0.76456 0.0
C442 C 0.21558 0.50259 0.67823 0.0
C443 C 0.25727 0.48292 0.65737 0.0
C444 C 0.29722 0.5079 0.64262 0.0
C445 C 0.29494 0.554 0.65163 0.0
C446 C 0.25309 0.57468 0.67572 0.0
C447 C 0.21301 0.54839 0.68862 0.0
H448 H 0.06759 0.10357 0.35662 0.0
H449 H 0.04552 0.04544 0.55874 0.0
H450 H 0.00667 0.98167 0.49315 0.0
H451 H 0.95427 0.06471 0.26685 0.0
H452 H 0.97861 0.05314 0.18019 0.0
H453 H 0.00502 0.09582 0.24196 0.0
H454 H 0.08745 0.05891 0.23543 0.0
H455 H 0.06155 0.01619 0.17328 0.0
H456 H 0.09331 0.00228 0.25523 0.0
H457 H 0.96952 0.92322 0.40808 0.0
H458 H 0.93677 0.87389 0.30582 0.0
H459 H 0.98274 0.96703 0.15734 0.0
C460 C 0.05448 0.0775 0.38696 0.0
C461 C 0.06001 0.08009 0.46328 0.0
C462 C 0.04217 0.04487 0.50052 0.0
C463 C 0.01981 0.00813 0.46375 0.0
C464 C 0.01514 0.00642 0.38912 0.0
C465 C 0.03179 0.04003 0.35079 0.0
C466 C 0.02196 0.02916 0.27038 0.0
C467 C 0.98794 0.06271 0.23796 0.0
C468 C 0.06887 0.02647 0.2313 0.0
C469 C 0.99781 0.98428 0.27025 0.0
C470 C 0.99402 0.97198 0.33944 0.0
C471 C 0.97239 0.93234 0.35342 0.0
C472 C 0.9539 0.90445 0.29502 0.0
C473 C 0.95747 0.91611 0.22338 0.0
C474 C 0.9799 0.95666 0.21131 0.0
H475 H 0.60425 0.47703 0.42931 0.0
H476 H 0.48979 0.45879 0.26312 0.0
H477 H 0.44354 0.51708 0.32613 0.0
H478 H 0.52884 0.48434 0.57065 0.0
H479 H 0.56509 0.52359 0.62696 0.0
H480 H 0.59262 0.48699 0.56226 0.0
H481 H 0.62959 0.5534 0.50503 0.0
H482 H 0.60206 0.59029 0.56973 0.0
H483 H 0.59119 0.59617 0.47467 0.0
H484 H 0.40809 0.57349 0.41127 0.0
H485 H 0.38106 0.61584 0.51864 0.0
H486 H 0.51625 0.59216 0.63412 0.0
C487 C 0.57004 0.48634 0.40526 0.0
C488 C 0.55077 0.46451 0.34081 0.0
C489 C 0.50514 0.47584 0.3121 0.0
C490 C 0.4789 0.50896 0.34725 0.0
C491 C 0.49865 0.52961 0.41146 0.0
C492 C 0.54294 0.5183 0.44068 0.0
C493 C 0.55324 0.54069 0.51505 0.0
C494 C 0.56033 0.50689 0.57205 0.0
C495 C 0.59659 0.57201 0.51614 0.0
C496 C 0.5074 0.56568 0.5239 0.0
C497 C 0.47694 0.55985 0.46279 0.0
C498 C 0.43177 0.5785 0.45918 0.0
C499 C 0.41685 0.60269 0.52034 0.0
C500 C 0.4467 0.60732 0.58452 0.0
C501 C 0.49282 0.58923 0.58568 0.0
H502 H 0.03205 0.14249 0.86692 0.0
H503 H 0.92122 0.18625 0.71845 0.0
H504 H 0.86042 0.14596 0.78041 0.0
H505 H 1.00006 0.04146 0.86598 0.0
H506 H 0.01216 0.03255 0.95986 0.0
H507 H 0.04325 0.07536 0.9205 0.0
H508 H 0.01366 0.13244 0.0169 0.0
H509 H 0.98263 0.08932 0.05727 0.0
H510 H 0.95055 0.1368 0.03027 0.0
H511 H 0.8177 0.08575 0.83406 0.0
H512 H 0.79781 0.01284 0.87407 0.0
H513 H 0.93532 0.01076 0.99245 0.0
C514 C 0.99463 0.14479 0.84956 0.0
C515 C 0.98086 0.16685 0.78825 0.0
C516 C 0.93201 0.1695 0.76591 0.0
C517 C 0.89735 0.14698 0.80108 0.0
C518 C 0.91229 0.12338 0.85957 0.0
C519 C 0.95981 0.12318 0.88485 0.0
C520 C 0.96825 0.09028 0.94076 0.0
C521 C 0.0082 0.05802 0.92042 0.0
C522 C 0.97941 0.11362 0.01574 0.0
C523 C 0.9196 0.06816 0.93628 0.0
C524 C 0.8871 0.08878 0.89167 0.0
C525 C 0.84225 0.07015 0.87089 0.0
C526 C 0.83123 0.02865 0.89362 0.0
C527 C 0.86531 0.00629 0.93566 0.0
C528 C 0.90878 0.02731 0.96003 0.0
H529 H 0.57686 0.37014 0.95421 0.0
H530 H 0.46248 0.30295 0.04953 0.0
H531 H 0.40361 0.33356 0.96524 0.0
H532 H 0.52748 0.46333 0.95989 0.0
H533 H 0.54527 0.48364 0.87678 0.0
H534 H 0.5801 0.44257 0.91814 0.0
H535 H 0.57009 0.39098 0.80142 0.0
H536 H 0.536 0.43284 0.75901 0.0
H537 H 0.51103 0.37847 0.76126 0.0
H538 H 0.35659 0.38609 0.90118 0.0
H539 H 0.32613 0.45772 0.86832 0.0
H540 H 0.46934 0.49673 0.81934 0.0
C541 C 0.53968 0.35999 0.95382 0.0
C542 C 0.52407 0.33347 0.00676 0.0
C543 C 0.47507 0.32234 0.00801 0.0
C544 C 0.44137 0.33955 0.96002 0.0
C545 C 0.45717 0.3684 0.91164 0.0
C546 C 0.5054 0.37834 0.9076 0.0
C547 C 0.51214 0.41786 0.86447 0.0
C548 C 0.54299 0.45394 0.90746 0.0
C549 C 0.53358 0.40422 0.79225 0.0
C550 C 0.46059 0.43158 0.85297 0.0
C551 C 0.42932 0.40127 0.87679 0.0
C552 C 0.38052 0.40952 0.88047 0.0
C553 C 0.36353 0.45044 0.86219 0.0
C554 C 0.39556 0.48285 0.84236 0.0
C555 C 0.44414 0.47247 0.83461 0.0
loop_
_geom_bond_atom_site_label_1
_geom_bond_atom_site_label_2
_geom_bond_distance
_geom_bond_site_symmetry_2
_ccdc_geom_bond_type
C0 O12 1.241 . S
C0 O13 1.280 . S
C1 O14 1.277 . S
C1 O15 1.245 . S
C2 O26 1.247 1_554 S
C2 O28 1.289 . S
Mg3 O4 1.926 . S
Mg3 O13 1.984 . S
Mg3 O15 1.988 . S
Mg3 O16 2.061 . S
O4 Mg3 1.926 . S
O4 Mg5 1.986 . S
O4 Mg6 1.917 . S
Mg5 O4 1.986 . S
Mg5 O12 2.042 . S
Mg5 O14 2.041 . S
Mg5 O20 2.038 . S
Mg5 O28 2.238 . S
Mg6 O4 1.917 . S
Mg6 O7 1.917 1_554 S
Mg6 O17 2.106 1_554 S
Mg6 O19 2.079 1_554 S
Mg6 O28 2.106 . S
Mg6 O29 2.079 . S
O7 Mg6 1.917 1_556 S
O7 Mg8 1.926 . S
O7 Mg9 1.986 . S
Mg8 O7 1.926 . S
Mg8 O22 1.984 . S
Mg8 O25 1.988 . S
Mg8 O26 2.061 . S
Mg9 O7 1.986 . S
Mg9 O17 2.238 . S
Mg9 O21 2.042 . S
Mg9 O23 2.041 . S
Mg9 O30 2.038 1_556 S
C10 O16 1.247 1_556 S
C10 O17 1.289 . S
C11 O29 1.245 . S
C11 O30 1.274 . S
O12 C0 1.241 . S
O12 Mg5 2.042 . S
O13 C0 1.280 . S
O13 Mg3 1.984 . S
O14 C1 1.277 . S
O14 Mg5 2.041 . S
O15 C1 1.245 . S
O15 Mg3 1.988 . S
O16 Mg3 2.061 . S
O16 C10 1.247 1_554 S
O17 Mg6 2.106 1_556 S
O17 Mg9 2.238 . S
O17 C10 1.289 . S
C18 O19 1.245 . S
C18 O20 1.274 1_556 S
O19 Mg6 2.079 1_556 S
O19 C18 1.245 . S
O20 Mg5 2.038 . S
O20 C18 1.274 1_554 S
O21 Mg9 2.042 . S
O21 C24 1.241 . S
O22 Mg8 1.984 . S
O22 C24 1.280 . S
O23 Mg9 2.041 . S
O23 C27 1.277 . S
C24 O21 1.241 . S
C24 O22 1.280 . S
O25 Mg8 1.988 . S
O25 C27 1.245 . S
O26 C2 1.247 1_556 S
O26 Mg8 2.061 . S
C27 O23 1.277 . S
C27 O25 1.245 . S
O28 C2 1.289 . S
O28 Mg5 2.238 . S
O28 Mg6 2.106 . S
O29 Mg6 2.079 . S
O29 C11 1.245 . S
O30 Mg9 2.038 1_554 S
O30 C11 1.274 . S
C31 O43 1.241 . S
C31 O44 1.280 . S
C32 O45 1.277 . S
C32 O46 1.245 . S
C33 O57 1.247 . S
C33 O59 1.289 . S
Mg34 O35 1.926 . S
Mg34 O44 1.984 . S
Mg34 O46 1.988 . S
Mg34 O47 2.061 . S
O35 Mg34 1.926 . S
O35 Mg36 1.986 . S
O35 Mg37 1.917 . S
Mg36 O35 1.986 . S
Mg36 O43 2.042 . S
Mg36 O45 2.041 . S
Mg36 O51 2.038 . S
Mg36 O59 2.238 . S
Mg37 O35 1.917 . S
Mg37 O38 1.917 . S
Mg37 O48 2.106 . S
Mg37 O50 2.079 . S
Mg37 O59 2.106 . S
Mg37 O60 2.079 . S
O38 Mg37 1.917 . S
O38 Mg39 1.926 . S
O38 Mg40 1.986 . S
Mg39 O38 1.926 . S
Mg39 O53 1.984 . S
Mg39 O56 1.988 . S
Mg39 O57 2.061 . S
Mg40 O38 1.986 . S
Mg40 O48 2.238 . S
Mg40 O52 2.042 . S
Mg40 O54 2.041 . S
Mg40 O61 2.038 . S
C41 O47 1.247 . S
C41 O48 1.289 . S
C42 O60 1.245 . S
C42 O61 1.274 . S
O43 C31 1.241 . S
O43 Mg36 2.042 . S
O44 C31 1.280 . S
O44 Mg34 1.984 . S
O45 C32 1.277 . S
O45 Mg36 2.041 . S
O46 C32 1.245 . S
O46 Mg34 1.988 . S
O47 Mg34 2.061 . S
O47 C41 1.247 . S
O48 Mg37 2.106 . S
O48 Mg40 2.238 . S
O48 C41 1.289 . S
C49 O50 1.245 . S
C49 O51 1.274 . S
O50 Mg37 2.079 . S
O50 C49 1.245 . S
O51 Mg36 2.038 . S
O51 C49 1.274 . S
O52 Mg40 2.042 . S
O52 C55 1.241 . S
O53 Mg39 1.984 . S
O53 C55 1.280 . S
O54 Mg40 2.041 . S
O54 C58 1.277 . S
C55 O52 1.241 . S
C55 O53 1.280 . S
O56 Mg39 1.988 . S
O56 C58 1.245 . S
O57 C33 1.247 . S
O57 Mg39 2.061 . S
C58 O54 1.277 . S
C58 O56 1.245 . S
O59 C33 1.289 . S
O59 Mg36 2.238 . S
O59 Mg37 2.106 . S
O60 Mg37 2.079 . S
O60 C42 1.245 . S
O61 Mg40 2.038 . S
O61 C42 1.274 . S
C62 O74 1.241 . S
C62 O75 1.280 . S
C63 O76 1.277 . S
C63 O77 1.245 . S
C64 O88 1.247 . S
C64 O90 1.289 . S
Mg65 O66 1.926 . S
Mg65 O75 1.984 . S
Mg65 O77 1.988 . S
Mg65 O78 2.061 . S
O66 Mg65 1.926 . S
O66 Mg67 1.986 . S
O66 Mg68 1.917 . S
Mg67 O66 1.986 . S
Mg67 O74 2.042 . S
Mg67 O76 2.041 . S
Mg67 O82 2.038 . S
Mg67 O90 2.238 . S
Mg68 O66 1.917 . S
Mg68 O69 1.917 . S
Mg68 O79 2.106 . S
Mg68 O81 2.079 . S
Mg68 O90 2.106 . S
Mg68 O91 2.079 . S
O69 Mg68 1.917 . S
O69 Mg70 1.926 . S
O69 Mg71 1.986 . S
Mg70 O69 1.926 . S
Mg70 O84 1.984 . S
Mg70 O87 1.988 . S
Mg70 O88 2.061 . S
Mg71 O69 1.986 . S
Mg71 O79 2.238 . S
Mg71 O83 2.042 . S
Mg71 O85 2.041 . S
Mg71 O92 2.038 . S
C72 O78 1.247 . S
C72 O79 1.289 . S
C73 O91 1.245 . S
C73 O92 1.274 . S
O74 C62 1.241 . S
O74 Mg67 2.042 . S
O75 C62 1.280 . S
O75 Mg65 1.984 . S
O76 C63 1.277 . S
O76 Mg67 2.041 . S
O77 C63 1.245 . S
O77 Mg65 1.988 . S
O78 Mg65 2.061 . S
O78 C72 1.247 . S
O79 Mg68 2.106 . S
O79 Mg71 2.238 . S
O79 C72 1.289 . S
C80 O81 1.245 . S
C80 O82 1.274 . S
O81 Mg68 2.079 . S
O81 C80 1.245 . S
O82 Mg67 2.038 . S
O82 C80 1.274 . S
O83 Mg71 2.042 . S
O83 C86 1.241 . S
O84 Mg70 1.984 . S
O84 C86 1.280 . S
O85 Mg71 2.041 . S
O85 C89 1.277 . S
C86 O83 1.241 . S
C86 O84 1.280 . S
O87 Mg70 1.988 . S
O87 C89 1.245 . S
O88 C64 1.247 . S
O88 Mg70 2.061 . S
C89 O85 1.277 . S
C89 O87 1.245 . S
O90 C64 1.289 . S
O90 Mg67 2.238 . S
O90 Mg68 2.106 . S
O91 Mg68 2.079 . S
O91 C73 1.245 . S
O92 Mg71 2.038 . S
O92 C73 1.274 . S
C93 O105 1.241 . S
C93 O106 1.280 . S
C94 O107 1.277 . S
C94 O108 1.245 . S
C95 O119 1.247 . S
C95 O121 1.289 . S
Mg96 O97 1.926 . S
Mg96 O106 1.984 . S
Mg96 O108 1.988 . S
Mg96 O109 2.061 . S
O97 Mg96 1.926 . S
O97 Mg98 1.986 . S
O97 Mg99 1.917 . S
Mg98 O97 1.986 . S
Mg98 O105 2.042 . S
Mg98 O107 2.041 . S
Mg98 O113 2.038 . S
Mg98 O121 2.238 . S
Mg99 O97 1.917 . S
Mg99 O100 1.917 . S
Mg99 O110 2.106 . S
Mg99 O112 2.079 . S
Mg99 O121 2.106 . S
Mg99 O122 2.079 . S
O100 Mg99 1.917 . S
O100 Mg101 1.926 . S
O100 Mg102 1.986 . S
Mg101 O100 1.926 . S
Mg101 O115 1.984 . S
Mg101 O118 1.988 . S
Mg101 O119 2.061 . S
Mg102 O100 1.986 . S
Mg102 O110 2.238 . S
Mg102 O114 2.042 . S
Mg102 O116 2.041 . S
Mg102 O123 2.038 . S
C103 O109 1.247 . S
C103 O110 1.289 . S
C104 O122 1.245 . S
C104 O123 1.274 . S
O105 C93 1.241 . S
O105 Mg98 2.042 . S
O106 C93 1.280 . S
O106 Mg96 1.984 . S
O107 C94 1.277 . S
O107 Mg98 2.041 . S
O108 C94 1.245 . S
O108 Mg96 1.988 . S
O109 Mg96 2.061 . S
O109 C103 1.247 . S
O110 Mg99 2.106 . S
O110 Mg102 2.238 . S
O110 C103 1.289 . S
C111 O112 1.245 . S
C111 O113 1.274 . S
O112 Mg99 2.079 . S
O112 C111 1.245 . S
O113 Mg98 2.038 . S
O113 C111 1.274 . S
O114 Mg102 2.042 . S
O114 C117 1.241 . S
O115 Mg101 1.984 . S
O115 C117 1.280 . S
O116 Mg102 2.041 . S
O116 C120 1.277 . S
C117 O114 1.241 . S
C117 O115 1.280 . S
O118 Mg101 1.988 . S
O118 C120 1.245 . S
O119 C95 1.247 . S
O119 Mg101 2.061 . S
C120 O116 1.277 . S
C120 O118 1.245 . S
O121 C95 1.289 . S
O121 Mg98 2.238 . S
O121 Mg99 2.106 . S
O122 Mg99 2.079 . S
O122 C104 1.245 . S
O123 Mg102 2.038 . S
O123 C104 1.274 . S
H124 C136 0.930 . S
H125 C138 0.930 . S
H126 C139 0.930 . S
H127 C143 0.959 . S
H128 C143 0.959 . S
H129 C143 0.961 . S
H130 C144 0.960 . S
H131 C144 0.961 . S
H132 C144 0.959 . S
H133 C147 0.929 . S
H134 C148 0.931 . S
H135 C150 0.930 . S
C136 H124 0.930 . S
C136 C137 1.399 . S
C136 C141 1.399 . S
C137 C136 1.399 . S
C137 C138 1.376 . S
C138 H125 0.930 . S
C138 C137 1.376 . S
C138 C139 1.388 . S
C139 H126 0.930 . S
C139 C138 1.388 . S
C139 C140 1.390 . S
C140 C139 1.390 . S
C140 C141 1.394 . S
C140 C146 1.465 . S
C141 C136 1.399 . S
C141 C140 1.394 . S
C141 C142 1.516 . S
C142 C141 1.516 . S
C142 C143 1.502 . S
C142 C144 1.561 . S
C142 C145 1.526 . S
C143 H127 0.959 . S
C143 H128 0.959 . S
C143 H129 0.961 . S
C143 C142 1.502 . S
C144 H130 0.960 . S
C144 H131 0.961 . S
C144 H132 0.959 . S
C144 C142 1.561 . S
C145 C142 1.526 . S
C145 C146 1.396 . S
C145 C150 1.390 . S
C146 C140 1.465 . S
C146 C145 1.396 . S
C146 C147 1.399 . S
C147 H133 0.929 . S
C147 C146 1.399 . S
C147 C148 1.385 . S
C148 H134 0.931 . S
C148 C147 1.385 . S
C148 C149 1.389 . S
C149 C148 1.389 . S
C149 C150 1.387 . S
C150 H135 0.930 . S
C150 C145 1.390 . S
C150 C149 1.387 . S
H151 C163 0.930 . S
H152 C165 0.930 . S
H153 C166 0.930 . S
H154 C170 0.959 . S
H155 C170 0.959 . S
H156 C170 0.961 . S
H157 C171 0.960 . S
H158 C171 0.961 . S
H159 C171 0.959 . S
H160 C174 0.929 . S
H161 C175 0.931 . S
H162 C177 0.930 . S
C163 H151 0.930 . S
C163 C164 1.399 . S
C163 C168 1.399 . S
C164 C163 1.399 . S
C164 C165 1.376 . S
C165 H152 0.930 . S
C165 C164 1.376 . S
C165 C166 1.388 . S
C166 H153 0.930 . S
C166 C165 1.388 . S
C166 C167 1.390 . S
C167 C166 1.390 . S
C167 C168 1.394 . S
C167 C173 1.465 . S
C168 C163 1.399 . S
C168 C167 1.394 . S
C168 C169 1.516 . S
C169 C168 1.516 . S
C169 C170 1.502 . S
C169 C171 1.561 . S
C169 C172 1.526 . S
C170 H154 0.959 . S
C170 H155 0.959 . S
C170 H156 0.961 . S
C170 C169 1.502 . S
C171 H157 0.960 . S
C171 H158 0.961 . S
C171 H159 0.959 . S
C171 C169 1.561 . S
C172 C169 1.526 . S
C172 C173 1.396 . S
C172 C177 1.390 . S
C173 C167 1.465 . S
C173 C172 1.396 . S
C173 C174 1.399 . S
C174 H160 0.929 . S
C174 C173 1.399 . S
C174 C175 1.385 . S
C175 H161 0.931 . S
C175 C174 1.385 . S
C175 C176 1.389 . S
C176 C175 1.389 . S
C176 C177 1.387 . S
C177 H162 0.930 . S
C177 C172 1.390 . S
C177 C176 1.387 . S
H178 C190 0.930 . S
H179 C192 0.930 . S
H180 C193 0.930 . S
H181 C197 0.959 . S
H182 C197 0.959 1_554 S
H183 C197 0.961 . S
H184 C198 0.960 . S
H185 C198 0.961 1_554 S
H186 C198 0.959 . S
H187 C201 0.929 . S
H188 C202 0.931 . S
H189 C204 0.930 . S
C190 H178 0.930 . S
C190 C191 1.399 . S
C190 C195 1.399 . S
C191 C190 1.399 . S
C191 C192 1.376 . S
C192 H179 0.930 . S
C192 C191 1.376 . S
C192 C193 1.388 . S
C193 H180 0.930 . S
C193 C192 1.388 . S
C193 C194 1.390 . S
C194 C193 1.390 . S
C194 C195 1.394 . S
C194 C200 1.465 1_556 S
C195 C190 1.399 . S
C195 C194 1.394 . S
C195 C196 1.516 . S
C196 C195 1.516 . S
C196 C197 1.502 . S
C196 C198 1.561 . S
C196 C199 1.526 1_556 S
C197 H181 0.959 . S
C197 H182 0.959 1_556 S
C197 H183 0.961 . S
C197 C196 1.502 . S
C198 H184 0.960 . S
C198 H185 0.961 1_556 S
C198 H186 0.959 . S
C198 C196 1.561 . S
C199 C196 1.526 1_554 S
C199 C200 1.396 . S
C199 C204 1.390 . S
C200 C194 1.465 1_554 S
C200 C199 1.396 . S
C200 C201 1.399 . S
C201 H187 0.929 . S
C201 C200 1.399 . S
C201 C202 1.385 . S
C202 H188 0.931 . S
C202 C201 1.385 . S
C202 C203 1.389 . S
C203 C202 1.389 . S
C203 C204 1.387 . S
C204 H189 0.930 . S
C204 C199 1.390 . S
C204 C203 1.387 . S
H205 C217 0.930 . S
H206 C219 0.930 . S
H207 C220 0.930 . S
H208 C224 0.959 . S
H209 C224 0.959 . S
H210 C224 0.961 . S
H211 C225 0.960 . S
H212 C225 0.961 . S
H213 C225 0.959 . S
H214 C228 0.929 . S
H215 C229 0.931 . S
H216 C231 0.930 . S
C217 H205 0.930 . S
C217 C218 1.399 . S
C217 C222 1.399 . S
C218 C217 1.399 . S
C218 C219 1.376 . S
C219 H206 0.930 . S
C219 C218 1.376 . S
C219 C220 1.388 . S
C220 H207 0.930 . S
C220 C219 1.388 . S
C220 C221 1.390 . S
C221 C220 1.390 . S
C221 C222 1.394 . S
C221 C227 1.465 . S
C222 C217 1.399 . S
C222 C221 1.394 . S
C222 C223 1.516 . S
C223 C222 1.516 . S
C223 C224 1.502 . S
C223 C225 1.561 . S
C223 C226 1.526 . S
C224 H208 0.959 . S
C224 H209 0.959 . S
C224 H210 0.961 . S
C224 C223 1.502 . S
C225 H211 0.960 . S
C225 H212 0.961 . S
C225 H213 0.959 . S
C225 C223 1.561 . S
C226 C223 1.526 . S
C226 C227 1.396 . S
C226 C231 1.390 . S
C227 C221 1.465 . S
C227 C226 1.396 . S
C227 C228 1.399 . S
C228 H214 0.929 . S
C228 C227 1.399 . S
C228 C229 1.385 . S
C229 H215 0.931 . S
C229 C228 1.385 . S
C229 C230 1.389 . S
C230 C229 1.389 . S
C230 C231 1.387 . S
C231 H216 0.930 . S
C231 C226 1.390 . S
C231 C230 1.387 . S
H232 C244 0.930 . S
H233 C246 0.930 . S
H234 C247 0.945 . S
H235 C251 0.959 . S
H236 C251 0.959 . S
H237 C251 0.961 . S
H238 C252 0.960 . S
H239 C252 0.961 . S
H240 C252 0.959 . S
H241 C255 0.929 1_554 S
H242 C256 0.931 1_554 S
H243 C258 0.930 . S
C244 H232 0.930 . S
C244 C245 1.399 . S
C244 C249 1.399 . S
C245 C244 1.399 . S
C245 C246 1.376 . S
C246 H233 0.930 . S
C246 C245 1.376 . S
C246 C247 1.388 . S
C247 H234 0.945 . S
C247 C246 1.388 . S
C247 C248 1.390 . S
C248 C247 1.390 . S
C248 C249 1.394 . S
C248 C254 1.465 . S
C249 C244 1.399 . S
C249 C248 1.394 . S
C249 C250 1.516 . S
C250 C249 1.516 . S
C250 C251 1.502 . S
C250 C252 1.561 . S
C250 C253 1.526 . S
C251 H235 0.959 . S
C251 H236 0.959 . S
C251 H237 0.961 . S
C251 C250 1.502 . S
C252 H238 0.960 . S
C252 H239 0.961 . S
C252 H240 0.959 . S
C252 C250 1.561 . S
C253 C250 1.526 . S
C253 C254 1.396 . S
C253 C258 1.390 . S
C254 C248 1.465 . S
C254 C253 1.396 . S
C254 C255 1.399 . S
C255 H241 0.929 1_556 S
C255 C254 1.399 . S
C255 C256 1.385 . S
C256 H242 0.931 1_556 S
C256 C255 1.385 . S
C256 C257 1.389 . S
C257 C256 1.389 . S
C257 C258 1.387 . S
C258 H243 0.930 . S
C258 C253 1.390 . S
C258 C257 1.387 . S
H259 C271 0.930 . S
H260 C273 0.930 . S
H261 C274 0.930 . S
H262 C278 0.959 . S
H263 C278 0.959 . S
H264 C278 0.961 . S
H265 C279 0.960 . S
H266 C279 0.961 . S
H267 C279 0.959 . S
H268 C282 0.929 . S
H269 C283 0.931 . S
H270 C285 0.930 . S
C271 H259 0.930 . S
C271 C272 1.399 . S
C271 C276 1.399 . S
C272 C271 1.399 . S
C272 C273 1.376 . S
C273 H260 0.930 . S
C273 C272 1.376 . S
C273 C274 1.388 . S
C274 H261 0.930 . S
C274 C273 1.388 . S
C274 C275 1.390 . S
C275 C274 1.390 . S
C275 C276 1.394 . S
C275 C281 1.465 . S
C276 C271 1.399 . S
C276 C275 1.394 . S
C276 C277 1.516 . S
C277 C276 1.516 . S
C277 C278 1.502 . S
C277 C279 1.561 1_554 S
C277 C280 1.526 . S
C278 H262 0.959 . S
C278 H263 0.959 . S
C278 H264 0.961 . S
C278 C277 1.502 . S
C279 H265 0.960 . S
C279 H266 0.961 . S
C279 H267 0.959 . S
C279 C277 1.561 1_556 S
C280 C277 1.526 . S
C280 C281 1.396 . S
C280 C285 1.390 1_545 S
C281 C275 1.465 . S
C281 C280 1.396 . S
C281 C282 1.399 . S
C282 H268 0.929 . S
C282 C281 1.399 . S
C282 C283 1.385 1_545 S
C283 H269 0.931 . S
C283 C282 1.385 1_565 S
C283 C284 1.389 . S
C284 C283 1.389 . S
C284 C285 1.387 . S
C285 H270 0.930 . S
C285 C280 1.390 1_565 S
C285 C284 1.387 . S
H286 C298 0.930 . S
H287 C300 0.930 . S
H288 C301 0.930 . S
H289 C305 0.959 . S
H290 C305 0.959 . S
H291 C305 0.961 . S
H292 C306 0.960 . S
H293 C306 0.961 . S
H294 C306 0.959 . S
H295 C309 0.929 . S
H296 C310 0.931 . S
H297 C312 0.930 . S
C298 H286 0.930 . S
C298 C299 1.399 . S
C298 C303 1.399 . S
C299 C298 1.399 . S
C299 C300 1.376 . S
C300 H287 0.930 . S
C300 C299 1.376 . S
C300 C301 1.388 . S
C301 H288 0.930 . S
C301 C300 1.388 . S
C301 C302 1.390 . S
C302 C301 1.390 . S
C302 C303 1.394 . S
C302 C308 1.465 . S
C303 C298 1.399 . S
C303 C302 1.394 . S
C303 C304 1.516 . S
C304 C303 1.516 . S
C304 C305 1.502 . S
C304 C306 1.561 . S
C304 C307 1.526 . S
C305 H289 0.959 . S
C305 H290 0.959 . S
C305 H291 0.961 . S
C305 C304 1.502 . S
C306 H292 0.960 . S
C306 H293 0.961 . S
C306 H294 0.959 . S
C306 C304 1.561 . S
C307 C304 1.526 . S
C307 C308 1.396 . S
C307 C312 1.390 . S
C308 C302 1.465 . S
C308 C307 1.396 . S
C308 C309 1.399 . S
C309 H295 0.929 . S
C309 C308 1.399 . S
C309 C310 1.385 . S
C310 H296 0.931 . S
C310 C309 1.385 . S
C310 C311 1.389 . S
C311 C310 1.389 . S
C311 C312 1.387 . S
C312 H297 0.930 . S
C312 C307 1.390 . S
C312 C311 1.387 . S
H313 C325 0.930 . S
H314 C327 0.930 . S
H315 C328 0.930 . S
H316 C332 0.959 . S
H317 C332 0.959 . S
H318 C332 0.961 . S
H319 C333 0.960 . S
H320 C333 0.961 . S
H321 C333 0.959 . S
H322 C336 0.929 . S
H323 C337 0.931 . S
H324 C339 0.930 . S
C325 H313 0.930 . S
C325 C326 1.399 . S
C325 C330 1.399 . S
C326 C325 1.399 . S
C326 C327 1.376 . S
C327 H314 0.930 . S
C327 C326 1.376 . S
C327 C328 1.388 . S
C328 H315 0.930 . S
C328 C327 1.388 . S
C328 C329 1.390 . S
C329 C328 1.390 . S
C329 C330 1.394 . S
C329 C335 1.465 . S
C330 C325 1.399 . S
C330 C329 1.394 . S
C330 C331 1.516 . S
C331 C330 1.516 . S
C331 C332 1.502 . S
C331 C333 1.561 . S
C331 C334 1.526 . S
C332 H316 0.959 . S
C332 H317 0.959 . S
C332 H318 0.961 . S
C332 C331 1.502 . S
C333 H319 0.960 . S
C333 H320 0.961 . S
C333 H321 0.959 . S
C333 C331 1.561 . S
C334 C331 1.526 . S
C334 C335 1.396 . S
C334 C339 1.390 1_565 S
C335 C329 1.465 . S
C335 C334 1.396 . S
C335 C336 1.399 . S
C336 H322 0.929 . S
C336 C335 1.399 . S
C336 C337 1.385 1_565 S
C337 H323 0.931 . S
C337 C336 1.385 1_545 S
C337 C338 1.389 . S
C338 C337 1.389 . S
C338 C339 1.387 . S
C339 H324 0.930 . S
C339 C334 1.390 1_545 S
C339 C338 1.387 . S
H340 C352 0.930 1_554 S
H341 C354 0.930 . S
H342 C355 0.930 . S
H343 C359 0.959 . S
H344 C359 0.959 . S
H345 C359 0.961 . S
H346 C360 0.960 1_554 S
H347 C360 0.961 . S
H348 C360 0.959 . S
H349 C363 0.929 . S
H350 C364 0.931 . S
H351 C366 0.930 . S
C352 H340 0.930 1_556 S
C352 C353 1.399 1_455 S
C352 C357 1.399 . S
C353 C352 1.399 1_655 S
C353 C354 1.376 . S
C354 H341 0.930 . S
C354 C353 1.376 . S
C354 C355 1.388 1_655 S
C355 H342 0.930 . S
C355 C354 1.388 1_455 S
C355 C356 1.390 . S
C356 C355 1.390 . S
C356 C357 1.394 . S
C356 C362 1.465 . S
C357 C352 1.399 . S
C357 C356 1.394 . S
C357 C358 1.516 . S
C358 C357 1.516 . S
C358 C359 1.502 1_556 S
C358 C360 1.561 . S
C358 C361 1.526 . S
C359 H343 0.959 . S
C359 H344 0.959 . S
C359 H345 0.961 . S
C359 C358 1.502 1_554 S
C360 H346 0.960 1_556 S
C360 H347 0.961 . S
C360 H348 0.959 . S
C360 C358 1.561 . S
C361 C358 1.526 . S
C361 C362 1.396 . S
C361 C366 1.390 . S
C362 C356 1.465 . S
C362 C361 1.396 . S
C362 C363 1.399 . S
C363 H349 0.929 . S
C363 C362 1.399 . S
C363 C364 1.385 . S
C364 H350 0.931 . S
C364 C363 1.385 . S
C364 C365 1.389 . S
C365 C364 1.389 . S
C365 C366 1.387 . S
C366 H351 0.930 . S
C366 C361 1.390 . S
C366 C365 1.387 . S
H367 C379 0.930 . S
H368 C381 0.930 . S
H369 C382 0.930 . S
H370 C386 0.959 . S
H371 C386 0.959 . S
H372 C386 0.961 . S
H373 C387 0.960 . S
H374 C387 0.961 1_556 S
H375 C387 0.959 . S
H376 C390 0.929 . S
H377 C391 0.931 . S
H378 C393 0.930 . S
C379 H367 0.930 . S
C379 C380 1.399 . S
C379 C384 1.399 . S
C380 C379 1.399 . S
C380 C381 1.376 . S
C381 H368 0.930 . S
C381 C380 1.376 . S
C381 C382 1.388 . S
C382 H369 0.930 . S
C382 C381 1.388 . S
C382 C383 1.390 . S
C383 C382 1.390 . S
C383 C384 1.394 . S
C383 C389 1.465 . S
C384 C379 1.399 . S
C384 C383 1.394 . S
C384 C385 1.516 . S
C385 C384 1.516 . S
C385 C386 1.502 . S
C385 C387 1.561 . S
C385 C388 1.526 . S
C386 H370 0.959 . S
C386 H371 0.959 . S
C386 H372 0.961 . S
C386 C385 1.502 . S
C387 H373 0.960 . S
C387 H374 0.961 1_554 S
C387 H375 0.959 . S
C387 C385 1.561 . S
C388 C385 1.526 . S
C388 C389 1.396 . S
C388 C393 1.390 . S
C389 C383 1.465 . S
C389 C388 1.396 . S
C389 C390 1.399 . S
C390 H376 0.929 . S
C390 C389 1.399 . S
C390 C391 1.385 . S
C391 H377 0.931 . S
C391 C390 1.385 . S
C391 C392 1.389 . S
C392 C391 1.389 . S
C392 C393 1.387 . S
C393 H378 0.930 . S
C393 C388 1.390 . S
C393 C392 1.387 . S
H394 C406 0.930 . S
H395 C408 0.930 . S
H396 C409 0.930 . S
H397 C413 0.959 . S
H398 C413 0.959 . S
H399 C413 0.961 . S
H400 C414 0.960 . S
H401 C414 0.961 . S
H402 C414 0.959 . S
H403 C417 0.929 . S
H404 C418 0.931 . S
H405 C420 0.930 . S
C406 H394 0.930 . S
C406 C407 1.399 . S
C406 C411 1.399 . S
C407 C406 1.399 . S
C407 C408 1.376 . S
C408 H395 0.930 . S
C408 C407 1.376 . S
C408 C409 1.388 . S
C409 H396 0.930 . S
C409 C408 1.388 . S
C409 C410 1.390 . S
C410 C409 1.390 . S
C410 C411 1.394 . S
C410 C416 1.465 . S
C411 C406 1.399 . S
C411 C410 1.394 . S
C411 C412 1.516 . S
C412 C411 1.516 . S
C412 C413 1.502 . S
C412 C414 1.561 . S
C412 C415 1.526 . S
C413 H397 0.959 . S
C413 H398 0.959 . S
C413 H399 0.961 . S
C413 C412 1.502 . S
C414 H400 0.960 . S
C414 H401 0.961 . S
C414 H402 0.959 . S
C414 C412 1.561 . S
C415 C412 1.526 . S
C415 C416 1.396 . S
C415 C420 1.390 . S
C416 C410 1.465 . S
C416 C415 1.396 . S
C416 C417 1.399 . S
C417 H403 0.929 . S
C417 C416 1.399 . S
C417 C418 1.385 1_655 S
C418 H404 0.931 . S
C418 C417 1.385 1_455 S
C418 C419 1.389 . S
C419 C418 1.389 . S
C419 C420 1.387 1_455 S
C420 H405 0.930 . S
C420 C415 1.390 . S
C420 C419 1.387 1_655 S
H421 C433 0.930 . S
H422 C435 0.930 . S
H423 C436 0.930 . S
H424 C440 0.959 . S
H425 C440 0.959 . S
H426 C440 0.961 . S
H427 C441 0.960 . S
H428 C441 0.961 . S
H429 C441 0.959 . S
H430 C444 0.929 . S
H431 C445 0.931 . S
H432 C447 0.930 . S
C433 H421 0.930 . S
C433 C434 1.399 . S
C433 C438 1.399 . S
C434 C433 1.399 . S
C434 C435 1.376 . S
C435 H422 0.930 . S
C435 C434 1.376 . S
C435 C436 1.388 . S
C436 H423 0.930 . S
C436 C435 1.388 . S
C436 C437 1.390 . S
C437 C436 1.390 . S
C437 C438 1.394 . S
C437 C443 1.465 . S
C438 C433 1.399 . S
C438 C437 1.394 . S
C438 C439 1.516 . S
C439 C438 1.516 . S
C439 C440 1.502 . S
C439 C441 1.561 . S
C439 C442 1.526 . S
C440 H424 0.959 . S
C440 H425 0.959 . S
C440 H426 0.961 . S
C440 C439 1.502 . S
C441 H427 0.960 . S
C441 H428 0.961 . S
C441 H429 0.959 . S
C441 C439 1.561 . S
C442 C439 1.526 . S
C442 C443 1.396 . S
C442 C447 1.390 . S
C443 C437 1.465 . S
C443 C442 1.396 . S
C443 C444 1.399 . S
C444 H430 0.929 . S
C444 C443 1.399 . S
C444 C445 1.385 . S
C445 H431 0.931 . S
C445 C444 1.385 . S
C445 C446 1.389 . S
C446 C445 1.389 . S
C446 C447 1.387 . S
C447 H432 0.930 . S
C447 C442 1.390 . S
C447 C446 1.387 . S
H448 C460 0.930 . S
H449 C462 0.930 . S
H450 C463 0.930 . S
H451 C467 0.959 . S
H452 C467 0.959 . S
H453 C467 0.961 . S
H454 C468 0.960 1_455 S
H455 C468 0.961 . S
H456 C468 0.959 1_455 S
H457 C471 0.929 . S
H458 C472 0.931 . S
H459 C474 0.930 . S
C460 H448 0.930 . S
C460 C461 1.399 . S
C460 C465 1.399 . S
C461 C460 1.399 . S
C461 C462 1.376 . S
C462 H449 0.930 . S
C462 C461 1.376 . S
C462 C463 1.388 1_545 S
C463 H450 0.930 . S
C463 C462 1.388 1_565 S
C463 C464 1.390 . S
C464 C463 1.390 . S
C464 C465 1.394 1_565 S
C464 C470 1.465 . S
C465 C460 1.399 . S
C465 C464 1.394 1_545 S
C465 C466 1.516 1_455 S
C466 C465 1.516 1_655 S
C466 C467 1.502 . S
C466 C468 1.561 . S
C466 C469 1.526 1_545 S
C467 H451 0.959 . S
C467 H452 0.959 . S
C467 H453 0.961 . S
C467 C466 1.502 . S
C468 H454 0.960 1_655 S
C468 H455 0.961 . S
C468 H456 0.959 1_655 S
C468 C466 1.561 . S
C469 C466 1.526 1_565 S
C469 C470 1.396 1_655 S
C469 C474 1.390 . S
C470 C464 1.465 . S
C470 C469 1.396 1_455 S
C470 C471 1.399 . S
C471 H457 0.929 . S
C471 C470 1.399 . S
C471 C472 1.385 1_455 S
C472 H458 0.931 . S
C472 C471 1.385 1_655 S
C472 C473 1.389 . S
C473 C472 1.389 . S
C473 C474 1.387 . S
C474 H459 0.930 . S
C474 C469 1.390 . S
C474 C473 1.387 . S
H475 C487 0.930 . S
H476 C489 0.930 . S
H477 C490 0.930 . S
H478 C494 0.959 . S
H479 C494 0.959 . S
H480 C494 0.961 . S
H481 C495 0.960 . S
H482 C495 0.961 . S
H483 C495 0.959 . S
H484 C498 0.929 . S
H485 C499 0.931 . S
H486 C501 0.930 . S
C487 H475 0.930 . S
C487 C488 1.399 . S
C487 C492 1.399 . S
C488 C487 1.399 . S
C488 C489 1.376 . S
C489 H476 0.930 . S
C489 C488 1.376 . S
C489 C490 1.388 . S
C490 H477 0.930 . S
C490 C489 1.388 . S
C490 C491 1.390 . S
C491 C490 1.390 . S
C491 C492 1.394 . S
C491 C497 1.465 . S
C492 C487 1.399 . S
C492 C491 1.394 . S
C492 C493 1.516 . S
C493 C492 1.516 . S
C493 C494 1.502 . S
C493 C495 1.561 . S
C493 C496 1.526 . S
C494 H478 0.959 . S
C494 H479 0.959 . S
C494 H480 0.961 . S
C494 C493 1.502 . S
C495 H481 0.960 . S
C495 H482 0.961 . S
C495 H483 0.959 . S
C495 C493 1.561 . S
C496 C493 1.526 . S
C496 C497 1.396 . S
C496 C501 1.390 . S
C497 C491 1.465 . S
C497 C496 1.396 . S
C497 C498 1.399 . S
C498 H484 0.929 . S
C498 C497 1.399 . S
C498 C499 1.385 . S
C499 H485 0.931 . S
C499 C498 1.385 . S
C499 C500 1.389 . S
C500 C499 1.389 . S
C500 C501 1.387 . S
C501 H486 0.930 . S
C501 C496 1.390 . S
C501 C500 1.387 . S
H502 C514 0.930 . S
H503 C516 0.930 . S
H504 C517 0.930 . S
H505 C521 0.959 . S
H506 C521 0.959 . S
H507 C521 0.961 . S
H508 C522 0.960 . S
H509 C522 0.961 . S
H510 C522 0.959 . S
H511 C525 0.929 . S
H512 C526 0.931 . S
H513 C528 0.930 . S
C514 H502 0.930 . S
C514 C515 1.399 1_455 S
C514 C519 1.399 1_455 S
C515 C514 1.399 1_655 S
C515 C516 1.376 . S
C516 H503 0.930 . S
C516 C515 1.376 . S
C516 C517 1.388 . S
C517 H504 0.930 . S
C517 C516 1.388 . S
C517 C518 1.390 . S
C518 C517 1.390 . S
C518 C519 1.394 . S
C518 C524 1.465 . S
C519 C514 1.399 1_655 S
C519 C518 1.394 . S
C519 C520 1.516 . S
C520 C519 1.516 . S
C520 C521 1.502 1_655 S
C520 C522 1.561 . S
C520 C523 1.526 . S
C521 H505 0.959 . S
C521 H506 0.959 . S
C521 H507 0.961 . S
C521 C520 1.502 1_455 S
C522 H508 0.960 . S
C522 H509 0.961 . S
C522 H510 0.959 . S
C522 C520 1.561 . S
C523 C520 1.526 . S
C523 C524 1.396 . S
C523 C528 1.390 . S
C524 C518 1.465 . S
C524 C523 1.396 . S
C524 C525 1.399 1_545 S
C525 H511 0.929 . S
C525 C524 1.399 1_565 S
C525 C526 1.385 . S
C526 H512 0.931 . S
C526 C525 1.385 . S
C526 C527 1.389 . S
C527 C526 1.389 . S
C527 C528 1.387 1_565 S
C528 H513 0.930 . S
C528 C523 1.390 . S
C528 C527 1.387 1_545 S
H529 C541 0.930 . S
H530 C543 0.930 . S
H531 C544 0.930 . S
H532 C548 0.959 . S
H533 C548 0.959 1_556 S
H534 C548 0.961 . S
H535 C549 0.960 . S
H536 C549 0.961 . S
H537 C549 0.959 . S
H538 C552 0.929 1_554 S
H539 C553 0.931 . S
H540 C555 0.930 . S
C541 H529 0.930 . S
C541 C542 1.399 . S
C541 C546 1.399 . S
C542 C541 1.399 . S
C542 C543 1.376 . S
C543 H530 0.930 . S
C543 C542 1.376 . S
C543 C544 1.388 . S
C544 H531 0.930 . S
C544 C543 1.388 . S
C544 C545 1.390 . S
C545 C544 1.390 . S
C545 C546 1.394 . S
C545 C551 1.465 . S
C546 C541 1.399 . S
C546 C545 1.394 . S
C546 C547 1.512 1_554 S
C547 C546 1.512 1_556 S
C547 C548 1.502 1_556 S
C547 C549 1.564 . S
C547 C550 1.527 . S
C548 H532 0.959 . S
C548 H533 0.959 1_554 S
C548 H534 0.961 . S
C548 C547 1.502 1_554 S
C549 H535 0.960 . S
C549 H536 0.961 . S
C549 H537 0.959 . S
C549 C547 1.564 . S
C550 C547 1.527 . S
C550 C551 1.396 1_556 S
C550 C555 1.390 . S
C551 C545 1.465 . S
C551 C550 1.396 1_554 S
C551 C552 1.399 1_554 S
C552 H538 0.929 1_556 S
C552 C551 1.399 1_556 S
C552 C553 1.385 . S
C553 H539 0.931 . S
C553 C552 1.385 . S
C553 C554 1.389 . S
C554 C553 1.389 . S
C554 C555 1.387 . S
C555 H540 0.930 . S
C555 C550 1.390 . S
C555 C554 1.387 . S
C137 C1 1.530 . S
C149 C27 1.469 . S
C164 C58 1.506 . S
C176 C32 1.550 1_556 S
C191 C89 1.545 . S
C203 C63 1.484 . S
C218 C120 1.508 1_554 S
C230 C94 1.563 . S
C245 C103 1.654 . S
C257 C18 1.577 . S
C272 C31 1.357 . S
C284 C2 1.270 . S
C299 C62 1.307 . S
C311 C41 1.213 . S
C326 C93 1.882 . S
C338 C72 1.716 . S
C353 C10 2.147 . S
C365 C111 2.120 . S
C380 C33 1.636 . S
C392 C0 1.721 . S
C407 C49 1.423 . S
C419 C64 1.578 . S
C434 C80 2.116 . S
C446 C95 2.230 . S
C461 C73 1.048 . S
C473 C11 1.058 . S
C488 C55 0.833 . S
C500 C104 0.689 . S
C515 C86 0.835 1_655 S
C527 C24 0.545 . S
C542 C42 0.658 . S
C554 C117 0.708 . S
