# Generated by pormake.
# Topology wls, (5)-cn, num edge types: 1
# Building blocks:
#     Node 0, Type 0, BuildingBlock: XOMCOT_clean_sbu_0, # of connection points: 5
#     Node 1, Type 0, BuildingBlock: XOMCOT_clean_sbu_0, # of connection points: 5
#     Node 2, Type 0, BuildingBlock: XOMCOT_clean_sbu_0, # of connection points: 5
#     Node 3, Type 0, BuildingBlock: XOMCOT_clean_sbu_0, # of connection points: 5
#     Node 4, Type 0, BuildingBlock: XOMCOT_clean_sbu_0, # of connection points: 5
#     Node 5, Type 0, BuildingBlock: XOMCOT_clean_sbu_0, # of connection points: 5
#     Node 6, Type 0, BuildingBlock: XOMCOT_clean_sbu_0, # of connection points: 5
#     Node 7, Type 0, BuildingBlock: XOMCOT_clean_sbu_0, # of connection points: 5
#     Node 8, Type 0, BuildingBlock: XOMCOT_clean_sbu_0, # of connection points: 5
#     Node 9, Type 0, BuildingBlock: XOMCOT_clean_sbu_0, # of connection points: 5
#     Node 10, Type 0, BuildingBlock: XOMCOT_clean_sbu_0, # of connection points: 5
#     Node 11, Type 0, BuildingBlock: XOMCOT_clean_sbu_0, # of connection points: 5
#     Node 12, Type 0, BuildingBlock: XOMCOT_clean_sbu_0, # of connection points: 5
#     Node 13, Type 0, BuildingBlock: XOMCOT_clean_sbu_0, # of connection points: 5
#     Node 14, Type 0, BuildingBlock: XOMCOT_clean_sbu_0, # of connection points: 5
#     Node 15, Type 0, BuildingBlock: XOMCOT_clean_sbu_0, # of connection points: 5
#     Node 16, Type 0, BuildingBlock: XOMCOT_clean_sbu_0, # of connection points: 5
#     Node 17, Type 0, BuildingBlock: XOMCOT_clean_sbu_0, # of connection points: 5
#     Node 18, Type 0, BuildingBlock: XOMCOT_clean_sbu_0, # of connection points: 5
#     Node 19, Type 0, BuildingBlock: XOMCOT_clean_sbu_0, # of connection points: 5
#     Node 20, Type 0, BuildingBlock: XOMCOT_clean_sbu_0, # of connection points: 5
#     Node 21, Type 0, BuildingBlock: XOMCOT_clean_sbu_0, # of connection points: 5
#     Node 22, Type 0, BuildingBlock: XOMCOT_clean_sbu_0, # of connection points: 5
#     Node 23, Type 0, BuildingBlock: XOMCOT_clean_sbu_0, # of connection points: 5
#     Node 24, Type 0, BuildingBlock: XOMCOT_clean_sbu_0, # of connection points: 5
#     Node 25, Type 0, BuildingBlock: XOMCOT_clean_sbu_0, # of connection points: 5
#     Node 26, Type 0, BuildingBlock: XOMCOT_clean_sbu_0, # of connection points: 5
#     Node 27, Type 0, BuildingBlock: XOMCOT_clean_sbu_0, # of connection points: 5
#     Node 28, Type 0, BuildingBlock: XOMCOT_clean_sbu_0, # of connection points: 5
#     Node 29, Type 0, BuildingBlock: XOMCOT_clean_sbu_0, # of connection points: 5
#     Node 30, Type 0, BuildingBlock: XOMCOT_clean_sbu_0, # of connection points: 5
#     Node 31, Type 0, BuildingBlock: XOMCOT_clean_sbu_0, # of connection points: 5
#     Node 32, Type 0, BuildingBlock: XOMCOT_clean_sbu_0, # of connection points: 5
#     Node 33, Type 0, BuildingBlock: XOMCOT_clean_sbu_0, # of connection points: 5
#     Node 34, Type 0, BuildingBlock: XOMCOT_clean_sbu_0, # of connection points: 5
#     Node 35, Type 0, BuildingBlock: XOMCOT_clean_sbu_0, # of connection points: 5
#     Edge 36, Type (0, 0), BuildingBlock: CIFDUS_clean_linker_0, # of connection points: 2
#     Edge 37, Type (0, 0), BuildingBlock: CIFDUS_clean_linker_0, # of connection points: 2
#     Edge 38, Type (0, 0), BuildingBlock: CIFDUS_clean_linker_0, # of connection points: 2
#     Edge 39, Type (0, 0), BuildingBlock: CIFDUS_clean_linker_0, # of connection points: 2
#     Edge 40, Type (0, 0), BuildingBlock: CIFDUS_clean_linker_0, # of connection points: 2
#     Edge 41, Type (0, 0), BuildingBlock: CIFDUS_clean_linker_0, # of connection points: 2
#     Edge 42, Type (0, 0), BuildingBlock: CIFDUS_clean_linker_0, # of connection points: 2
#     Edge 43, Type (0, 0), BuildingBlock: CIFDUS_clean_linker_0, # of connection points: 2
#     Edge 44, Type (0, 0), BuildingBlock: CIFDUS_clean_linker_0, # of connection points: 2
#     Edge 45, Type (0, 0), BuildingBlock: CIFDUS_clean_linker_0, # of connection points: 2
#     Edge 46, Type (0, 0), BuildingBlock: CIFDUS_clean_linker_0, # of connection points: 2
#     Edge 47, Type (0, 0), BuildingBlock: CIFDUS_clean_linker_0, # of connection points: 2
#     Edge 48, Type (0, 0), BuildingBlock: CIFDUS_clean_linker_0, # of connection points: 2
#     Edge 49, Type (0, 0), BuildingBlock: CIFDUS_clean_linker_0, # of connection points: 2
#     Edge 50, Type (0, 0), BuildingBlock: CIFDUS_clean_linker_0, # of connection points: 2
#     Edge 51, Type (0, 0), BuildingBlock: CIFDUS_clean_linker_0, # of connection points: 2
#     Edge 52, Type (0, 0), BuildingBlock: CIFDUS_clean_linker_0, # of connection points: 2
#     Edge 53, Type (0, 0), BuildingBlock: CIFDUS_clean_linker_0, # of connection points: 2
#     Edge 54, Type (0, 0), BuildingBlock: CIFDUS_clean_linker_0, # of connection points: 2
#     Edge 55, Type (0, 0), BuildingBlock: CIFDUS_clean_linker_0, # of connection points: 2
#     Edge 56, Type (0, 0), BuildingBlock: CIFDUS_clean_linker_0, # of connection points: 2
#     Edge 57, Type (0, 0), BuildingBlock: CIFDUS_clean_linker_0, # of connection points: 2
#     Edge 58, Type (0, 0), BuildingBlock: CIFDUS_clean_linker_0, # of connection points: 2
#     Edge 59, Type (0, 0), BuildingBlock: CIFDUS_clean_linker_0, # of connection points: 2
#     Edge 60, Type (0, 0), BuildingBlock: CIFDUS_clean_linker_0, # of connection points: 2
#     Edge 61, Type (0, 0), BuildingBlock: CIFDUS_clean_linker_0, # of connection points: 2
#     Edge 62, Type (0, 0), BuildingBlock: CIFDUS_clean_linker_0, # of connection points: 2
#     Edge 63, Type (0, 0), BuildingBlock: CIFDUS_clean_linker_0, # of connection points: 2
#     Edge 64, Type (0, 0), BuildingBlock: CIFDUS_clean_linker_0, # of connection points: 2
#     Edge 65, Type (0, 0), BuildingBlock: CIFDUS_clean_linker_0, # of connection points: 2
#     Edge 66, Type (0, 0), BuildingBlock: CIFDUS_clean_linker_0, # of connection points: 2
#     Edge 67, Type (0, 0), BuildingBlock: CIFDUS_clean_linker_0, # of connection points: 2
#     Edge 68, Type (0, 0), BuildingBlock: CIFDUS_clean_linker_0, # of connection points: 2
#     Edge 69, Type (0, 0), BuildingBlock: CIFDUS_clean_linker_0, # of connection points: 2
#     Edge 70, Type (0, 0), BuildingBlock: CIFDUS_clean_linker_0, # of connection points: 2
#     Edge 71, Type (0, 0), BuildingBlock: CIFDUS_clean_linker_0, # of connection points: 2
#     Edge 72, Type (0, 0), BuildingBlock: CIFDUS_clean_linker_0, # of connection points: 2
#     Edge 73, Type (0, 0), BuildingBlock: CIFDUS_clean_linker_0, # of connection points: 2
#     Edge 74, Type (0, 0), BuildingBlock: CIFDUS_clean_linker_0, # of connection points: 2
#     Edge 75, Type (0, 0), BuildingBlock: CIFDUS_clean_linker_0, # of connection points: 2
#     Edge 76, Type (0, 0), BuildingBlock: CIFDUS_clean_linker_0, # of connection points: 2
#     Edge 77, Type (0, 0), BuildingBlock: CIFDUS_clean_linker_0, # of connection points: 2
#     Edge 78, Type (0, 0), BuildingBlock: CIFDUS_clean_linker_0, # of connection points: 2
#     Edge 79, Type (0, 0), BuildingBlock: CIFDUS_clean_linker_0, # of connection points: 2
#     Edge 80, Type (0, 0), BuildingBlock: CIFDUS_clean_linker_0, # of connection points: 2
#     Edge 81, Type (0, 0), BuildingBlock: CIFDUS_clean_linker_0, # of connection points: 2
#     Edge 82, Type (0, 0), BuildingBlock: CIFDUS_clean_linker_0, # of connection points: 2
#     Edge 83, Type (0, 0), BuildingBlock: CIFDUS_clean_linker_0, # of connection points: 2
#     Edge 84, Type (0, 0), BuildingBlock: CIFDUS_clean_linker_0, # of connection points: 2
#     Edge 85, Type (0, 0), BuildingBlock: CIFDUS_clean_linker_0, # of connection points: 2
#     Edge 86, Type (0, 0), BuildingBlock: CIFDUS_clean_linker_0, # of connection points: 2
#     Edge 87, Type (0, 0), BuildingBlock: CIFDUS_clean_linker_0, # of connection points: 2
#     Edge 88, Type (0, 0), BuildingBlock: CIFDUS_clean_linker_0, # of connection points: 2
#     Edge 89, Type (0, 0), BuildingBlock: CIFDUS_clean_linker_0, # of connection points: 2
#     Edge 90, Type (0, 0), BuildingBlock: CIFDUS_clean_linker_0, # of connection points: 2
#     Edge 91, Type (0, 0), BuildingBlock: CIFDUS_clean_linker_0, # of connection points: 2
#     Edge 92, Type (0, 0), BuildingBlock: CIFDUS_clean_linker_0, # of connection points: 2
#     Edge 93, Type (0, 0), BuildingBlock: CIFDUS_clean_linker_0, # of connection points: 2
#     Edge 94, Type (0, 0), BuildingBlock: CIFDUS_clean_linker_0, # of connection points: 2
#     Edge 95, Type (0, 0), BuildingBlock: CIFDUS_clean_linker_0, # of connection points: 2
#     Edge 96, Type (0, 0), BuildingBlock: CIFDUS_clean_linker_0, # of connection points: 2
#     Edge 97, Type (0, 0), BuildingBlock: CIFDUS_clean_linker_0, # of connection points: 2
#     Edge 98, Type (0, 0), BuildingBlock: CIFDUS_clean_linker_0, # of connection points: 2
#     Edge 99, Type (0, 0), BuildingBlock: CIFDUS_clean_linker_0, # of connection points: 2
#     Edge 100, Type (0, 0), BuildingBlock: CIFDUS_clean_linker_0, # of connection points: 2
#     Edge 101, Type (0, 0), BuildingBlock: CIFDUS_clean_linker_0, # of connection points: 2
#     Edge 102, Type (0, 0), BuildingBlock: CIFDUS_clean_linker_0, # of connection points: 2
#     Edge 103, Type (0, 0), BuildingBlock: CIFDUS_clean_linker_0, # of connection points: 2
#     Edge 104, Type (0, 0), BuildingBlock: CIFDUS_clean_linker_0, # of connection points: 2
#     Edge 105, Type (0, 0), BuildingBlock: CIFDUS_clean_linker_0, # of connection points: 2
#     Edge 106, Type (0, 0), BuildingBlock: CIFDUS_clean_linker_0, # of connection points: 2
#     Edge 107, Type (0, 0), BuildingBlock: CIFDUS_clean_linker_0, # of connection points: 2
#     Edge 108, Type (0, 0), BuildingBlock: CIFDUS_clean_linker_0, # of connection points: 2
#     Edge 109, Type (0, 0), BuildingBlock: CIFDUS_clean_linker_0, # of connection points: 2
#     Edge 110, Type (0, 0), BuildingBlock: CIFDUS_clean_linker_0, # of connection points: 2
#     Edge 111, Type (0, 0), BuildingBlock: CIFDUS_clean_linker_0, # of connection points: 2
#     Edge 112, Type (0, 0), BuildingBlock: CIFDUS_clean_linker_0, # of connection points: 2
#     Edge 113, Type (0, 0), BuildingBlock: CIFDUS_clean_linker_0, # of connection points: 2
#     Edge 114, Type (0, 0), BuildingBlock: CIFDUS_clean_linker_0, # of connection points: 2
#     Edge 115, Type (0, 0), BuildingBlock: CIFDUS_clean_linker_0, # of connection points: 2
#     Edge 116, Type (0, 0), BuildingBlock: CIFDUS_clean_linker_0, # of connection points: 2
#     Edge 117, Type (0, 0), BuildingBlock: CIFDUS_clean_linker_0, # of connection points: 2
#     Edge 118, Type (0, 0), BuildingBlock: CIFDUS_clean_linker_0, # of connection points: 2
#     Edge 119, Type (0, 0), BuildingBlock: CIFDUS_clean_linker_0, # of connection points: 2
#     Edge 120, Type (0, 0), BuildingBlock: CIFDUS_clean_linker_0, # of connection points: 2
#     Edge 121, Type (0, 0), BuildingBlock: CIFDUS_clean_linker_0, # of connection points: 2
#     Edge 122, Type (0, 0), BuildingBlock: CIFDUS_clean_linker_0, # of connection points: 2
#     Edge 123, Type (0, 0), BuildingBlock: CIFDUS_clean_linker_0, # of connection points: 2
#     Edge 124, Type (0, 0), BuildingBlock: CIFDUS_clean_linker_0, # of connection points: 2
#     Edge 125, Type (0, 0), BuildingBlock: CIFDUS_clean_linker_0, # of connection points: 2
# Relax obj value: 0.252
# Max RMSD: 0.187
# Mean RMSD: 0.187
data_MOF--net-wls--node1-XOMCOT_clean_sbu_0--edge1-CIFDUS_clean_linker_0
_symmetry_space_group_name_H-M    P1
_symmetry_Int_Tables_number       1
_symmetry_cell_setting            triclinic
loop_
_symmetry_equiv_pos_as_xyz
'x, y, z'
_cell_length_a     69.16525
_cell_length_b     69.062925
_cell_length_c     32.526179
_cell_angle_alpha  89.943756
_cell_angle_beta   89.974327
_cell_angle_gamma 120.00537
loop_
_atom_site_label
_atom_site_type_symbol
_atom_site_fract_x
_atom_site_fract_y
_atom_site_fract_z
_atom_type_partial_charge
Co0 Co 0.26844 0.22002 0.07229 0.0
C1 C 0.25114 0.17093 0.05998 0.0
C2 C 0.26666 0.18261 0.11864 0.0
C3 C 0.25999 0.16025 0.11521 0.0
N4 N 0.26084 0.18933 0.08431 0.0
N5 N 0.25012 0.15273 0.07828 0.0
H6 H 0.24554 0.17098 0.02912 0.0
H7 H 0.2758 0.19338 0.14408 0.0
C8 C 0.25034 0.21565 0.16199 0.0
O9 O 0.23201 0.19727 0.15153 0.0
N10 N 0.27581 0.24998 0.05958 0.0
C11 C 0.27043 0.2564 1.02427 0.0
C12 C 0.2715 0.27655 0.03072 0.0
C13 C 0.28052 0.26634 0.08666 0.0
N14 N 0.27748 0.28249 0.07017 0.0
C15 C 0.22671 0.20077 0.02654 0.0
C16 C 0.20934 0.22316 0.06945 0.0
C17 C 0.1988 0.2125 0.03279 0.0
C18 C 0.20749 0.20067 1.01182 0.0
C19 C 0.22835 0.22283 0.083 0.0
N20 N 0.23708 0.21177 0.06189 0.0
H21 H 0.23428 0.19369 1.00733 0.0
H22 H 0.23723 0.23369 0.10827 0.0
H23 H 0.26424 0.24623 0.9969 0.0
H24 H 0.28507 0.26595 0.1183 0.0
O25 O 0.27849 0.21803 1.01601 0.0
O26 O 0.30035 0.22929 0.06987 0.0
O27 O 0.26601 0.2258 0.13493 0.0
C28 C 0.29874 0.22639 0.03017 0.0
H29 H 0.26303 0.15061 0.13787 0.0
H30 H 0.26699 0.28543 1.00883 0.0
H31 H 0.20415 0.23335 0.08614 0.0
H32 H 0.20018 0.19223 0.98315 0.0
Co33 Co 0.80208 0.05196 0.06565 0.0
C34 C 0.8506 0.08501 0.0562 0.0
C35 C 0.83807 0.08862 0.11414 0.0
C36 C 0.86031 0.10487 0.11099 0.0
N37 N 0.83204 0.07579 0.08012 0.0
N38 N 0.86825 0.10263 0.07443 0.0
H39 H 0.85105 0.07952 0.02543 0.0
H40 H 0.82694 0.08683 0.13904 0.0
C41 C 0.80337 0.04022 0.15837 0.0
O42 O 0.8235 0.0433 0.1523 0.0
N43 N 0.77304 0.02871 0.04974 0.0
C44 C 0.76809 0.01697 1.01437 0.0
C45 C 0.74741 0.99821 1.01831 0.0
C46 C 0.75541 0.01724 0.07443 0.0
N47 N 0.73981 0.99837 0.05633 0.0
C48 C 0.82404 0.03 0.02834 0.0
C49 C 0.8 0.99027 0.07088 0.0
C50 C 0.81193 0.99038 0.03597 0.0
C51 C 0.82478 0.01093 1.01561 0.0
C52 C 0.79981 1.00965 0.0827 0.0
N53 N 0.81142 0.02933 0.06128 0.0
H54 H 0.83188 0.04455 1.00894 0.0
H55 H 0.78804 1.00773 0.10624 0.0
H56 H 0.77939 0.02089 0.98868 0.0
H57 H 0.7543 0.02209 0.10552 0.0
O58 O 0.80676 0.06268 1.0084 0.0
O59 O 0.79236 0.07427 0.05549 0.0
O60 O 0.79342 0.04399 0.12812 0.0
C61 C 0.79753 0.07463 1.01676 0.0
H62 H 0.86959 0.11789 0.13328 0.0
H63 H 0.73916 0.98495 0.99597 0.0
H64 H 0.78921 0.97486 0.08709 0.0
H65 H 0.83438 0.01209 0.98849 0.0
Co66 Co 0.97493 0.75594 0.07333 0.0
C67 C 0.94283 0.77254 0.0623 0.0
C68 C 0.93652 0.75349 0.11769 0.0
C69 C 0.92041 0.7596 0.11361 0.0
N70 N 0.95083 0.7619 0.08583 0.0
N71 N 0.92431 0.77156 0.07864 0.0
H72 H 0.94997 0.78034 0.03325 0.0
H73 H 0.93735 0.74306 0.14165 0.0
C74 C 0.98579 0.77283 0.16438 0.0
O75 O 0.97996 0.78777 0.15556 0.0
N76 N 0.99863 0.75045 0.05929 0.0
C77 C 1.00934 0.7556 1.02277 0.0
C78 C 0.02946 0.75642 0.02761 0.0
C79 C 1.01212 0.74799 0.08563 0.0
N80 N 0.03122 0.75199 0.06733 0.0
C81 C 0.99613 0.79644 1.02468 0.0
C82 C 0.03505 0.8171 0.07013 0.0
C83 C 0.03529 0.82552 0.03082 0.0
C84 C 1.01512 0.81533 1.00866 0.0
C85 C 0.01584 0.79828 0.08494 0.0
N86 N 0.99658 0.78771 0.06222 0.0
H87 H 0.9819 0.78759 1.00476 0.0
H88 H 0.01784 0.79093 0.11253 0.0
H89 H 1.00374 0.76012 0.99528 0.0
H90 H 1.00837 0.74394 0.11778 0.0
O91 O 0.96244 0.74546 1.01745 0.0
O92 O 0.95344 0.7235 0.07105 0.0
O93 O 0.98418 0.75899 0.13585 0.0
C94 C 0.95139 0.7251 0.03153 0.0
H95 H 0.90635 0.75472 0.13402 0.0
H96 H 0.04212 0.76079 1.00423 0.0
H97 H 0.05019 0.82367 0.08816 0.0
H98 H 1.01426 0.82109 0.97811 0.0
Co99 Co 0.22037 0.26037 0.47723 0.0
C100 C 0.17155 0.24233 0.49636 0.0
C101 C 0.17897 0.24604 0.43182 0.0
C102 C 0.15664 0.23834 0.43669 0.0
N103 N 0.1885 0.24853 0.46902 0.0
N104 N 0.15181 0.23617 0.47718 0.0
H105 H 0.1737 0.24291 0.52937 0.0
H106 H 0.18753 0.24992 0.40264 0.0
C107 C 0.23721 0.24967 0.39627 0.0
O108 O 0.25109 0.24633 0.41862 0.0
N109 N 0.25186 0.27307 0.48398 0.0
C110 C 0.26429 0.27356 0.51639 0.0
C111 C 0.28635 0.28854 0.50782 0.0
C112 C 0.26622 0.28838 0.45752 0.0
N113 N 0.28725 0.2976 0.47071 0.0
C114 C 0.21966 0.22617 0.52931 0.0
C115 C 0.20893 0.1941 0.46946 0.0
C116 C 0.21677 0.19108 0.50753 0.0
C117 C 0.22119 0.20711 0.53819 0.0
C118 C 0.20776 0.21355 0.46189 0.0
N119 N 0.215 0.23023 0.49053 0.0
H120 H 0.22317 0.23815 0.55347 0.0
H121 H 0.20163 0.21535 0.43245 0.0
H122 H 0.25812 0.26466 0.54495 0.0
H123 H 0.26128 0.29303 0.42929 0.0
O124 O 0.2193 0.2711 0.53314 0.0
O125 O 0.22594 0.29153 0.47793 0.0
O126 O 0.22397 0.25531 0.41435 0.0
C127 C 0.22514 0.29071 0.51811 0.0
H128 H 0.14485 0.23466 0.41194 0.0
H129 H 0.30058 0.29236 0.52708 0.0
H130 H 0.20404 0.18173 0.44536 0.0
H131 H 0.22677 0.20559 0.56847 0.0
Co132 Co 0.76172 0.96915 0.4768 0.0
C133 C 0.77614 0.93543 0.48629 0.0
C134 C 0.76262 0.93407 0.42637 0.0
C135 C 0.76953 0.91849 0.42836 0.0
N136 N 0.76688 0.94478 0.46261 0.0
N137 N 0.77811 0.91928 0.46611 0.0
H138 H 0.78114 0.94026 0.51776 0.0
H139 H 0.75517 0.93742 0.4001 0.0
C140 C 0.75769 0.98073 0.38421 0.0
O141 O 0.73586 0.97097 0.38694 0.0
N142 N 0.75747 0.99345 0.49319 0.0
C143 C 0.76157 1.00226 0.53136 0.0
C144 C 0.75957 0.021 0.53122 0.0
C145 C 0.75293 1.00685 0.47035 0.0
N146 N 0.75421 0.02388 0.4928 0.0
C147 C 0.80005 0.98812 0.53073 0.0
C148 C 0.82527 0.02591 0.48367 0.0
C149 C 0.83103 0.0265 0.52513 0.0
C150 C 0.81872 1.00673 0.54815 0.0
C151 C 0.80666 1.00711 0.46751 0.0
N152 N 0.79338 0.98881 0.49141 0.0
H153 H 0.78973 0.97407 0.55038 0.0
H154 H 0.8022 1.0088 0.43669 0.0
H155 H 0.76618 0.99578 0.55752 0.0
H156 H 0.74846 1.00408 0.43832 0.0
O157 O 0.74909 0.95502 0.53064 0.0
O158 O 0.7289 0.94885 0.47537 0.0
O159 O 0.76898 0.98066 0.41591 0.0
C160 C 0.7292 0.94533 0.51478 0.0
H161 H 0.76859 0.90774 0.40338 0.0
H162 H 0.76206 0.03173 0.55727 0.0
H163 H 0.83386 0.04056 0.46428 0.0
H164 H 0.82267 1.00598 0.5801 0.0
Co165 Co 0.05855 0.80051 0.47927 0.0
C166 C 0.09083 0.85004 0.48262 0.0
C167 C 0.09609 0.83421 0.4305 0.0
C168 C 0.11138 0.85676 0.42896 0.0
N169 N 0.08278 0.83 0.46353 0.0
N170 N 0.1081 0.86669 0.46178 0.0
H171 H 0.08436 0.85265 0.51092 0.0
H172 H 0.09462 0.82171 0.40873 0.0
C173 C 0.04583 0.80684 0.39158 0.0
O174 O 0.05288 0.82746 0.40368 0.0
N175 N 0.03514 0.77192 0.49662 0.0
C176 C 0.02474 0.76743 0.53337 0.0
C177 C 1.00796 0.74554 0.53367 0.0
C178 C 0.02487 0.75293 0.47511 0.0
N179 N 1.00808 0.73655 0.49699 0.0
C180 C 0.03918 0.8228 0.52561 0.0
C181 C 0.99909 0.80254 0.48355 0.0
C182 C 1.00029 0.81379 0.52003 0.0
C183 C 0.02096 0.8245 0.54067 0.0
C184 C 0.01744 0.80112 0.46987 0.0
N185 N 0.03744 0.81123 0.49037 0.0
H186 H 0.05389 0.82898 0.54455 0.0
H187 H 1.01425 0.78946 0.44538 0.0
H188 H 0.02884 0.77938 0.55797 0.0
H189 H 0.02977 0.75115 0.44438 0.0
O190 O 0.07213 0.80354 0.5344 0.0
O191 O 0.0796 0.78904 0.48122 0.0
O192 O 0.04752 0.79341 0.41739 0.0
C193 C 0.08242 0.79343 0.52049 0.0
H194 H 0.12414 0.86521 0.40576 0.0
H195 H 0.99641 0.73703 0.55862 0.0
H196 H 0.98343 0.793 0.46735 0.0
H197 H 0.02279 0.83317 0.56937 0.0
Co198 Co 0.76445 0.79903 0.98261 0.0
C199 C 0.77949 0.84747 0.99331 0.0
C200 C 0.76336 0.83506 0.93535 0.0
C201 C 0.76889 0.85715 0.939 0.0
N202 N 0.77042 0.82905 0.96905 0.0
N203 N 0.77905 0.86502 0.97556 0.0
H204 H 0.78557 0.84787 1.02396 0.0
H205 H 0.75407 0.82396 0.91039 0.0
C206 C 0.77839 0.8017 0.88997 0.0
O207 O 0.7952 0.82191 0.89669 0.0
N208 N 0.75877 0.76982 0.99734 0.0
C209 C 0.76586 0.76452 0.03199 0.0
C210 C 0.76505 0.74441 0.0261 0.0
C211 C 0.75344 0.75291 0.97129 0.0
N212 N 0.75772 0.73757 0.98759 0.0
C213 C 0.80768 0.82045 1.02219 0.0
C214 C 0.82417 0.79738 0.97899 0.0
C215 C 0.8351 0.80824 1.01528 0.0
C216 C 0.82705 0.82067 0.03599 0.0
C217 C 0.80497 0.79762 0.96622 0.0
N218 N 0.79643 0.80863 0.98807 0.0
H219 H 0.8006 0.8279 0.04166 0.0
H220 H 0.79568 0.78646 0.94156 0.0
H221 H 0.77283 0.77535 0.05839 0.0
H222 H 0.74741 0.75219 0.9404 0.0
O223 O 0.75763 0.80286 0.03987 0.0
O224 O 0.73229 0.78896 0.99167 0.0
O225 O 0.76453 0.79128 0.91984 0.0
C226 C 0.73658 0.79375 0.03062 0.0
H227 H 0.76478 0.86635 0.91711 0.0
H228 H 0.77051 0.73609 0.04746 0.0
H229 H 0.82911 0.78698 0.96234 0.0
H230 H 0.83485 0.82947 0.06413 0.0
Co231 Co 0.22661 0.96734 0.98105 0.0
C232 C 0.17797 0.93516 0.98536 0.0
C233 C 0.19298 0.92788 0.93455 0.0
C234 C 0.17075 0.91141 0.93711 0.0
N235 N 0.19745 0.94296 0.96457 0.0
N236 N 0.16129 0.91592 0.96932 0.0
H237 H 0.17617 0.94296 1.01257 0.0
H238 H 0.20522 0.92835 0.91325 0.0
C239 C 0.22468 0.97837 0.88745 0.0
O240 O 0.20306 0.97038 0.89064 0.0
N241 N 0.25452 0.99132 0.99999 0.0
C242 C 0.25872 0.99925 0.03889 0.0
C243 C 0.27905 0.01853 0.03979 0.0
C244 C 0.27197 1.00606 0.97763 0.0
N245 N 0.28696 0.02284 1.00115 0.0
C246 C 0.20541 0.98754 0.02678 0.0
C247 C 0.22326 0.0262 0.98031 0.0
C248 C 0.21434 0.02636 1.0189 0.0
C249 C 0.20447 1.00622 0.04144 0.0
C250 C 0.22369 1.00723 0.96668 0.0
N251 N 0.21528 0.98814 0.98997 0.0
H252 H 0.20013 0.97343 0.04713 0.0
H253 H 0.23343 1.00944 0.93961 0.0
H254 H 0.24764 0.9918 0.06483 0.0
H255 H 0.27408 1.00438 0.94515 0.0
O256 O 0.22268 0.95351 0.0366 0.0
O257 O 0.23843 0.94666 0.98478 0.0
O258 O 0.23561 0.97792 0.91957 0.0
C259 C 0.23338 0.94361 1.0237 0.0
H260 H 0.16256 0.89668 0.91792 0.0
H261 H 0.28761 0.02838 0.0666 0.0
H262 H 0.2318 0.04127 0.96197 0.0
H263 H 0.19716 1.00518 0.07137 0.0
Co264 Co 0.05696 0.26314 0.98328 0.0
C265 C 0.08957 0.24697 0.99239 0.0
C266 C 0.09325 0.26334 0.93464 0.0
C267 C 0.10944 0.25728 0.93756 0.0
N268 N 0.08045 0.25651 0.9687 0.0
N269 N 0.10719 0.24695 0.974 0.0
H270 H 0.08399 0.24089 1.02309 0.0
H271 H 0.09151 0.27282 0.90989 0.0
C272 C 0.04448 0.24943 0.89094 0.0
O273 O 0.04731 0.23221 0.89716 0.0
N274 N 0.03403 0.26945 0.99908 0.0
C275 C 0.0219 0.26244 0.03406 0.0
C276 C 1.0028 0.26366 0.02897 0.0
C277 C 0.02252 0.27518 0.97366 0.0
N278 N 1.00317 0.27119 0.99064 0.0
C279 C 0.03449 0.21949 1.02219 0.0
C280 C 0.9949 0.20407 0.97965 0.0
C281 C 0.99473 0.19244 1.01509 0.0
C282 C 1.01519 0.20002 0.03556 0.0
C283 C 1.01443 0.22331 0.96733 0.0
N284 N 0.03406 0.23126 0.98869 0.0
H285 H 0.04907 0.22615 0.04144 0.0
H286 H 1.01264 0.23306 0.94345 0.0
H287 H 0.02572 0.25517 0.06007 0.0
H288 H 0.02762 0.28116 0.94263 0.0
O289 O 0.06801 0.26967 0.04029 0.0
O290 O 0.07955 0.29519 0.99219 0.0
O291 O 0.04877 0.26347 0.92084 0.0
C292 C 0.08011 0.29076 0.03107 0.0
H293 H 0.12245 0.26114 0.91519 0.0
H294 H 0.98917 0.25824 0.05065 0.0
H295 H 0.97959 0.19962 0.96334 0.0
H296 H 0.01613 0.19173 0.06311 0.0
Co297 Co 0.80853 0.76283 0.57015 0.0
C298 C 0.85695 0.77905 0.55986 0.0
C299 C 0.84418 0.76109 0.61642 0.0
C300 C 0.86658 0.76781 0.6135 0.0
N301 N 0.83818 0.7682 0.58286 0.0
N302 N 0.8747 0.77916 0.57789 0.0
H303 H 0.8575 0.78662 0.53047 0.0
H304 H 0.83297 0.75135 0.64099 0.0
C305 C 0.79418 0.75833 0.66342 0.0
O306 O 0.78251 0.73645 0.66042 0.0
N307 N 0.77963 0.75824 0.55586 0.0
C308 C 0.77279 0.75925 0.51742 0.0
C309 C 0.75146 0.75573 0.5193 0.0
C310 C 0.76264 0.75468 0.58062 0.0
N311 N 0.7454 0.75317 0.55908 0.0
C312 C 0.82475 0.8002 0.51481 0.0
C313 C 0.81558 0.82666 0.56556 0.0
C314 C 0.81749 0.83107 0.52324 0.0
C315 C 0.82343 0.81828 0.49815 0.0
C316 C 0.817 0.80846 0.58096 0.0
N317 N 0.82006 0.79444 0.55534 0.0
H318 H 0.82741 0.78957 0.49404 0.0
H319 H 0.81367 0.80503 0.61316 0.0
H320 H 0.78244 0.76194 0.4897 0.0
H321 H 0.76216 0.75201 0.61332 0.0
O322 O 0.80971 0.75039 0.5158 0.0
O323 O 0.7963 0.72987 0.57083 0.0
O324 O 0.80494 0.76994 0.63148 0.0
C325 C 0.79991 0.7304 0.53127 0.0
H326 H 0.87591 0.76399 0.63553 0.0
H327 H 0.74085 0.75418 0.49358 0.0
H328 H 0.81116 0.836 0.58651 0.0
H329 H 0.8258 0.82136 0.46539 0.0
Co330 Co 0.26218 0.04945 0.56793 0.0
C331 C 0.2485 0.08415 0.56534 0.0
C332 C 0.26576 0.08546 0.62111 0.0
C333 C 0.25982 0.10174 0.62264 0.0
N334 N 0.25852 0.07429 0.58544 0.0
N335 N 0.24897 0.10098 0.58763 0.0
H336 H 0.24077 0.0789 0.53542 0.0
H337 H 0.27485 0.08213 0.64442 0.0
C338 C 0.26778 0.03828 0.66071 0.0
O339 O 0.2896 0.05092 0.65921 0.0
N340 N 0.26563 0.02481 0.54929 0.0
C341 C 0.26411 0.01744 0.51032 0.0
C342 C 0.2686 1.00022 0.50999 0.0
C343 C 0.27154 0.01233 0.57184 0.0
N344 N 0.27333 0.99707 0.54874 0.0
C345 C 0.22339 0.02446 0.51754 0.0
C346 C 0.19481 1.0008 0.58095 0.0
C347 C 0.18985 0.99118 0.54139 0.0
C348 C 0.20386 1.00428 0.50907 0.0
C349 C 0.21488 0.02083 0.58805 0.0
N350 N 0.22999 0.03104 0.55707 0.0
H351 H 0.23429 0.03358 0.49231 0.0
H352 H 0.21861 0.02739 0.61887 0.0
H353 H 0.26091 0.02455 0.48342 0.0
H354 H 0.27581 0.01527 0.60394 0.0
O355 O 0.27219 0.06341 0.51382 0.0
O356 O 0.29541 0.06929 0.56401 0.0
O357 O 0.25617 0.0367 0.62831 0.0
C358 C 0.29285 0.07267 0.52526 0.0
H359 H 0.26348 0.11348 0.64751 0.0
H360 H 0.26907 0.99131 0.48303 0.0
H361 H 0.18386 0.99251 0.60675 0.0
H362 H 0.20091 0.99846 0.47763 0.0
Co363 Co 0.97008 0.21911 0.57603 0.0
C364 C 0.93689 0.17107 0.56715 0.0
C365 C 0.93062 0.18485 0.62116 0.0
C366 C 0.9146 0.16247 0.61845 0.0
N367 N 0.94459 0.19016 0.589 0.0
N368 N 0.91852 0.15368 0.5844 0.0
H369 H 0.94469 0.17004 0.53915 0.0
H370 H 0.93187 0.19645 0.64474 0.0
C371 C 0.98138 0.23441 0.66887 0.0
O372 O 0.97314 0.24784 0.66548 0.0
N373 N 0.99561 0.24709 0.56086 0.0
C374 C 1.00344 0.25312 0.52211 0.0
C375 C 0.02223 0.27384 0.52302 0.0
C376 C 1.01003 0.26391 0.58484 0.0
N377 N 0.02636 0.28029 0.5625 0.0
C378 C 0.98973 0.20064 0.5223 0.0
C379 C 0.02361 0.20692 0.57527 0.0
C380 C 0.02651 0.2048 0.53322 0.0
C381 C 1.00845 0.2001 0.50707 0.0
C382 C 1.00453 0.207 0.58931 0.0
N383 N 0.98853 0.20556 0.56257 0.0
H384 H 0.97721 0.19915 0.50071 0.0
H385 H 1.00413 0.21012 0.62146 0.0
H386 H 0.99582 0.24337 0.49479 0.0
H387 H 1.00821 0.26502 0.61748 0.0
O388 O 0.95696 0.21864 0.5214 0.0
O389 O 0.95113 0.23333 0.57594 0.0
O390 O 0.98058 0.22253 0.63745 0.0
C391 C 0.94801 0.22973 0.53642 0.0
H392 H 0.90095 0.15361 0.63978 0.0
H393 H 0.0315 0.28388 0.49682 0.0
H394 H 0.03672 0.21034 0.59715 0.0
H395 H 1.00928 0.19738 0.47451 0.0
Co396 Co 0.93702 0.55554 0.40918 0.0
C397 C 0.91882 0.50574 0.40514 0.0
C398 C 0.93759 0.52065 0.46003 0.0
C399 C 0.93008 0.49806 0.4611 0.0
N400 N 0.93008 0.52551 0.42553 0.0
N401 N 0.9183 0.48863 0.42662 0.0
H402 H 0.91128 0.50376 0.37527 0.0
H403 H 0.94801 0.53277 0.48285 0.0
C404 C 0.92038 0.55269 0.49879 0.0
O405 O 0.90391 0.53283 0.48857 0.0
N406 N 0.94374 0.58456 0.39114 0.0
C407 C 0.93787 0.58902 0.35432 0.0
C408 C 0.94343 0.61103 0.35351 0.0
C409 C 0.95288 0.60373 0.41223 0.0
N410 N 0.95273 0.62014 0.38998 0.0
C411 C 0.89369 0.53445 0.36779 0.0
C412 C 0.87786 0.55823 0.41078 0.0
C413 C 0.86594 0.54628 0.37614 0.0
C414 C 0.87383 0.53376 0.35505 0.0
C415 C 0.8976 0.55883 0.42181 0.0
N416 N 0.90543 0.54686 0.40106 0.0
H417 H 0.90053 0.5266 0.34865 0.0
H418 H 0.90754 0.57092 0.44481 0.0
H419 H 0.92943 0.57688 0.33023 0.0
H420 H 0.95929 0.60551 0.44317 0.0
O421 O 0.94567 0.55107 0.35315 0.0
O422 O 0.96896 0.56494 0.40468 0.0
O423 O 0.93561 0.56397 0.47134 0.0
C424 C 0.96634 0.56038 0.3655 0.0
H425 H 0.93343 0.48926 0.48511 0.0
H426 H 0.94023 0.61945 0.32862 0.0
H427 H 0.87265 0.56812 0.42842 0.0
H428 H 0.86555 0.52462 0.32746 0.0
Co429 Co 0.4743 0.38632 0.40347 0.0
C430 C 0.52088 0.42463 0.38994 0.0
C431 C 0.51889 0.40171 0.43656 0.0
C432 C 0.54086 0.4181 0.43216 0.0
N433 N 0.50629 0.40571 0.41016 0.0
N434 N 0.54219 0.43254 0.40282 0.0
H435 H 0.51616 0.43224 0.36585 0.0
H436 H 0.51256 0.38762 0.45738 0.0
C437 C 0.45511 0.37024 0.49346 0.0
O438 O 0.43466 0.36014 0.47934 0.0
N439 N 0.44293 0.36735 0.39575 0.0
C440 C 0.43207 0.34838 0.37365 0.0
C441 C 0.40986 0.34223 0.37222 0.0
C442 C 0.42765 0.37314 0.40523 0.0
N443 N 0.40725 0.35785 0.39239 0.0
C444 C 0.48914 0.35946 0.36243 0.0
C445 C 0.47032 0.32319 0.41506 0.0
C446 C 0.47952 0.32109 0.37791 0.0
C447 C 0.48939 0.33992 0.35185 0.0
C448 C 0.46979 0.34277 0.42383 0.0
N449 N 0.47879 0.36056 0.39735 0.0
H450 H 0.49646 0.37346 0.34143 0.0
H451 H 0.46112 0.34286 0.45105 0.0
H452 H 0.43962 0.33963 0.35941 0.0
H453 H 0.43132 0.3879 0.42276 0.0
O454 O 0.47571 0.39418 0.34507 0.0
O455 O 0.46976 0.41253 0.3932 0.0
O456 O 0.47169 0.38165 0.46824 0.0
C457 C 0.47062 0.40939 0.35367 0.0
H458 H 0.55476 0.41938 0.44966 0.0
H459 H 0.39655 0.32695 0.35913 0.0
H460 H 0.46303 0.30967 0.43714 0.0
H461 H 0.49654 0.3395 0.32253 0.0
Co462 Co 0.64256 0.08752 0.39819 0.0
C463 C 0.60799 0.10101 0.39179 0.0
C464 C 0.6049 0.08383 0.44833 0.0
C465 C 0.58809 0.08911 0.44645 0.0
N466 N 0.61781 0.09186 0.41449 0.0
N467 N 0.59003 0.09989 0.41074 0.0
H468 H 0.61325 0.10763 0.36128 0.0
H469 H 0.60714 0.07427 0.4723 0.0
C470 C 0.65391 0.10142 0.48978 0.0
O471 O 0.64831 0.11663 0.48195 0.0
N472 N 0.66662 0.08351 0.37983 0.0
C473 C 0.67736 0.09086 0.34357 0.0
C474 C 0.69573 0.08819 0.3436 0.0
C475 C 0.67838 0.07644 0.40141 0.0
N476 N 0.69639 0.07935 0.38012 0.0
C477 C 0.66219 0.13196 0.36233 0.0
C478 C 0.70208 0.14907 0.40456 0.0
C479 C 0.70098 0.16133 0.37123 0.0
C480 C 0.68035 0.15278 0.35089 0.0
C481 C 0.68362 0.12851 0.41504 0.0
N482 N 0.66381 0.11987 0.3941 0.0
H483 H 0.64772 0.12479 0.34283 0.0
H484 H 0.68648 0.11859 0.43711 0.0
H485 H 0.67275 0.0986 0.31952 0.0
H486 H 0.67408 0.06969 0.43222 0.0
O487 O 0.63106 0.08119 0.34138 0.0
O488 O 0.62139 0.05509 0.38778 0.0
O489 O 0.6518 0.08766 0.46045 0.0
C490 C 0.6201 0.0599 0.34937 0.0
H491 H 0.5749 0.08448 0.46883 0.0
H492 H 0.70805 0.09312 0.31939 0.0
H493 H 0.71768 0.15424 0.42036 0.0
H494 H 0.67855 0.16145 0.32473 0.0
Co495 Co 0.89248 0.596 0.81409 0.0
C496 C 0.84378 0.58042 0.82445 0.0
C497 C 0.85689 0.59836 0.76815 0.0
C498 C 0.83482 0.59282 0.77162 0.0
N499 N 0.86247 0.59019 0.80086 0.0
N500 N 0.8265 0.58153 0.80715 0.0
H501 H 0.84295 0.57332 0.85431 0.0
H502 H 0.8683 0.60828 0.74393 0.0
C503 C 0.88503 0.57704 0.72667 0.0
O504 O 0.86539 0.56237 0.74158 0.0
N505 N 0.92145 0.60169 0.82962 0.0
C506 C 0.92628 0.59572 0.86599 0.0
C507 C 0.94839 0.60187 0.86625 0.0
C508 C 0.94052 0.61153 0.80824 0.0
N509 N 0.95724 0.61175 0.82997 0.0
C510 C 0.87123 0.5538 0.85946 0.0
C511 C 0.89295 0.53567 0.81661 0.0
C512 C 0.88192 0.52507 0.85301 0.0
C513 C 0.87039 0.53413 0.87391 0.0
C514 C 0.89336 0.55508 0.80333 0.0
N515 N 0.88265 0.56421 0.82438 0.0
H516 H 0.86458 0.5617 0.87886 0.0
H517 H 0.90472 0.56403 0.77862 0.0
H518 H 0.91443 0.58723 0.8905 0.0
H519 H 0.94211 0.61856 0.77785 0.0
O520 O 0.89013 0.60623 0.87 0.0
O521 O 0.90331 0.62838 0.81661 0.0
O522 O 0.89873 0.59263 0.75135 0.0
C523 C 0.89965 0.62667 0.85614 0.0
H524 H 0.82594 0.59765 0.7504 0.0
H525 H 0.95717 0.59901 0.89091 0.0
H526 H 0.90302 0.53029 0.80008 0.0
H527 H 0.86174 0.52682 0.90246 0.0
Co528 Co 0.42798 0.30347 0.8151 0.0
C529 C 0.44263 0.26994 0.82569 0.0
C530 C 0.43248 0.27036 0.76369 0.0
C531 C 0.43809 0.25384 0.76732 0.0
N532 N 0.43577 0.28084 0.80012 0.0
N533 N 0.44443 0.2535 0.80643 0.0
H534 H 0.44546 0.27338 0.85815 0.0
H535 H 0.42555 0.27372 0.73667 0.0
C536 C 0.44554 0.31977 0.7256 0.0
O537 O 0.46362 0.31891 0.73441 0.0
N538 N 0.42052 0.3254 0.83226 0.0
C539 C 0.4258 0.33562 0.86919 0.0
C540 C 0.42156 0.35298 0.86835 0.0
C541 C 0.41294 0.33636 0.80954 0.0
N542 N 0.41369 0.35351 0.83074 0.0
C543 C 0.47111 0.32486 0.85729 0.0
C544 C 0.48662 0.36588 0.81928 0.0
C545 C 0.49867 0.36477 0.85289 0.0
C546 C 0.49086 0.34367 0.87141 0.0
C547 C 0.46716 0.34689 0.80632 0.0
N548 N 0.45935 0.32652 0.82502 0.0
H549 H 0.46451 0.30949 0.87441 0.0
H550 H 0.4573 0.34941 0.78362 0.0
H551 H 0.43341 0.3315 0.89421 0.0
H552 H 0.40755 0.3322 0.77798 0.0
O553 O 0.41829 0.28988 0.87062 0.0
O554 O 0.39615 0.28057 0.81726 0.0
O555 O 0.43003 0.31365 0.75336 0.0
C556 C 0.39796 0.27825 0.85659 0.0
H557 H 0.43651 0.24224 0.74344 0.0
H558 H 0.42494 0.36484 0.89286 0.0
H559 H 0.49111 0.38169 0.80478 0.0
H560 H 0.4994 0.3418 0.89768 0.0
Co561 Co 0.72475 0.13515 0.80704 0.0
C562 C 0.75802 0.18379 0.81622 0.0
C563 C 0.7639 0.17011 0.76179 0.0
C564 C 0.78077 0.19209 0.76576 0.0
N565 N 0.74929 0.16496 0.79298 0.0
N566 N 0.77715 0.20075 0.80018 0.0
H567 H 0.75116 0.18486 0.84526 0.0
H568 H 0.76287 0.15844 0.73857 0.0
C569 C 0.71486 0.13908 0.71544 0.0
O570 O 0.72157 0.16007 0.72418 0.0
N571 N 0.70114 0.10644 0.82325 0.0
C572 C 0.68903 0.1018 0.8581 0.0
C573 C 0.67312 0.07955 0.85798 0.0
C574 C 0.69278 0.08722 0.80257 0.0
N575 N 0.67551 0.07056 0.82297 0.0
C576 C 0.70294 0.15718 0.84544 0.0
C577 C 0.66442 0.13559 0.79901 0.0
C578 C 0.66404 0.14691 0.83439 0.0
C579 C 0.68396 0.15838 0.85707 0.0
C580 C 0.68346 0.13448 0.78893 0.0
N581 N 0.70269 0.14522 0.81171 0.0
H582 H 0.71692 0.16394 0.86621 0.0
H583 H 0.68147 0.12276 0.76528 0.0
H584 H 0.6914 0.11384 0.88163 0.0
H585 H 0.6993 0.0855 0.77341 0.0
O586 O 0.73546 0.13939 0.86418 0.0
O587 O 0.74633 0.12447 0.81682 0.0
O588 O 0.7162 0.12678 0.7443 0.0
C589 C 0.74684 0.12958 0.85563 0.0
H590 H 0.79519 0.20062 0.74588 0.0
H591 H 0.6605 0.07081 0.88128 0.0
H592 H 0.64964 0.12647 0.78022 0.0
H593 H 0.68449 0.1669 0.88532 0.0
Co594 Co 0.42905 0.12916 0.32448 0.0
C595 C 0.44396 0.17729 0.33807 0.0
C596 C 0.43947 0.16924 0.27394 0.0
C597 C 0.44592 0.19151 0.27839 0.0
N598 N 0.43875 0.16033 0.31129 0.0
N599 N 0.44865 0.19649 0.31869 0.0
H600 H 0.44387 0.17563 0.37115 0.0
H601 H 0.43456 0.16018 0.24532 0.0
C602 C 0.4458 0.12919 0.23509 0.0
O603 O 0.46548 0.14552 0.24635 0.0
N604 N 0.41939 0.09897 0.33943 0.0
C605 C 0.42404 0.09224 0.37518 0.0
C606 C 0.41599 0.06967 0.37309 0.0
C607 C 0.40834 0.08064 0.31636 0.0
N608 N 0.40625 0.06258 0.33609 0.0
C609 C 0.47356 0.14997 0.36031 0.0
C610 C 0.48459 0.12005 0.32615 0.0
C611 C 0.49854 0.13455 0.35672 0.0
C612 C 0.49299 0.14997 0.37339 0.0
C613 C 0.46539 0.12041 0.31443 0.0
N614 N 0.45984 0.13517 0.33129 0.0
H615 H 0.46886 0.16087 0.37551 0.0
H616 H 0.45413 0.10757 0.29357 0.0
H617 H 0.43349 0.10318 0.40023 0.0
H618 H 0.40316 0.08073 0.285 0.0
O619 O 0.42269 0.13355 0.38158 0.0
O620 O 0.39774 0.12245 0.33264 0.0
O621 O 0.42932 0.12155 0.26131 0.0
C622 C 0.40193 0.12618 0.37194 0.0
H623 H 0.44727 0.20285 0.25411 0.0
H624 H 0.41778 0.05941 0.39625 0.0
H625 H 0.48758 0.10735 0.31316 0.0
H626 H 0.50316 0.16145 0.3973 0.0
Co627 Co 0.89197 0.30456 0.31939 0.0
C628 C 0.8437 0.27243 0.33318 0.0
C629 C 0.8554 0.26763 0.27502 0.0
C630 C 0.83311 0.25197 0.27892 0.0
N631 N 0.862 0.28048 0.30889 0.0
N632 N 0.82566 0.25493 0.31547 0.0
H633 H 0.84367 0.27923 0.36311 0.0
H634 H 0.86615 0.26927 0.24951 0.0
C635 C 0.90699 0.33189 0.23623 0.0
O636 O 0.91788 0.3504 0.25764 0.0
N637 N 0.92176 0.32809 0.33035 0.0
C638 C 0.92987 0.34228 0.36252 0.0
C639 C 0.95184 0.35754 0.35496 0.0
C640 C 0.93921 0.33371 0.30558 0.0
N641 N 0.95742 0.35229 0.31869 0.0
C642 C 0.881 0.33193 0.37028 0.0
C643 C 0.87459 0.35488 0.30742 0.0
C644 C 0.8798 0.3648 0.34671 0.0
C645 C 0.88149 0.35207 0.37886 0.0
C646 C 0.87456 0.33478 0.3003 0.0
N647 N 0.8805 0.3251 0.33073 0.0
H648 H 0.88334 0.32305 0.39535 0.0
H649 H 0.87078 0.32774 0.26982 0.0
H650 H 0.92087 0.34185 0.3898 0.0
H651 H 0.93826 0.32484 0.27757 0.0
O652 O 0.89136 0.29296 0.3757 0.0
O653 O 0.90311 0.28308 0.32175 0.0
O654 O 0.89579 0.31285 0.25565 0.0
C655 C 0.90033 0.28165 0.36159 0.0
H656 H 0.82337 0.23894 0.25693 0.0
H657 H 0.96258 0.37177 0.37396 0.0
H658 H 0.87132 0.36291 0.28192 0.0
H659 H 0.88475 0.35817 0.41013 0.0
Co660 Co 0.72894 0.60264 0.31312 0.0
C661 C 0.76539 0.59133 0.32646 0.0
C662 C 0.74186 0.57134 0.28001 0.0
C663 C 0.75706 0.56419 0.28465 0.0
N664 N 0.747 0.5884 0.30604 0.0
N665 N 0.77189 0.57666 0.31393 0.0
H666 H 0.7735 0.60349 0.35063 0.0
H667 H 0.72765 0.56414 0.25956 0.0
C668 C 0.70985 0.60256 0.22405 0.0
O669 O 0.7014 0.61468 0.23713 0.0
N670 N 0.71132 0.61659 0.32176 0.0
C671 C 0.69557 0.61119 0.35096 0.0
C672 C 0.69089 0.62827 0.35404 0.0
C673 C 0.71685 0.63726 0.30925 0.0
N674 N 0.70432 0.64456 0.32769 0.0
C675 C 0.70321 0.56085 0.35619 0.0
C676 C 0.664 0.5464 0.31263 0.0
C677 C 0.66389 0.53341 0.34588 0.0
C678 C 0.68402 0.54083 0.36754 0.0
C679 C 0.68339 0.56629 0.3026 0.0
N680 N 0.70273 0.5734 0.32418 0.0
H681 H 0.71839 0.56663 0.37375 0.0
H682 H 0.68232 0.57641 0.27865 0.0
H683 H 0.68841 0.59621 0.36959 0.0
H684 H 0.72968 0.64672 0.28668 0.0
O685 O 0.73976 0.61203 0.37001 0.0
O686 O 0.75593 0.63286 0.31611 0.0
O687 O 0.72144 0.59768 0.24931 0.0
C688 C 0.7548 0.63151 0.35628 0.0
H689 H 0.75716 0.55083 0.26747 0.0
H690 H 0.67807 0.62838 0.37298 0.0
H691 H 0.64911 0.54142 0.29453 0.0
H692 H 0.68484 0.53163 0.39381 0.0
Co693 Co 0.47222 0.0913 0.91023 0.0
C694 C 0.5196 0.10295 0.89338 0.0
C695 C 0.5172 0.12073 0.94518 0.0
C696 C 0.53936 0.12767 0.93848 0.0
N697 N 0.50463 0.10521 0.91697 0.0
N698 N 0.54098 0.11658 0.90582 0.0
H699 H 0.51509 0.09205 0.86697 0.0
H700 H 0.51103 0.12709 0.96884 0.0
C701 C 0.46934 0.1094 0.99874 0.0
O702 O 0.4772 0.12975 0.98461 0.0
N703 N 0.44068 0.0774 0.90268 0.0
C704 C 0.43009 0.07696 0.86761 0.0
C705 C 0.40782 0.06791 0.87613 0.0
C706 C 0.4249 0.06827 0.93172 0.0
N707 N 0.40476 0.0628 0.91653 0.0
C708 C 0.49045 0.13491 0.87128 0.0
C709 C 0.45721 0.14336 0.89686 0.0
C710 C 0.47322 0.15836 0.86915 0.0
C711 C 0.49015 0.15397 0.8566 0.0
C712 C 0.45804 0.1246 0.91052 0.0
N713 N 0.47462 0.12048 0.89831 0.0
H714 H 0.50295 0.13134 0.8596 0.0
H715 H 0.44503 0.11329 0.9311 0.0
H716 H 0.43815 0.08384 0.83846 0.0
H717 H 0.42826 0.06716 0.96381 0.0
O718 O 0.4739 0.08225 0.85319 0.0
O719 O 0.46859 0.06101 0.90685 0.0
O720 O 0.46813 0.09373 0.97459 0.0
C721 C 0.46911 0.0626 0.86674 0.0
H722 H 0.55322 0.1399 0.95661 0.0
H723 H 0.39506 0.06607 0.85466 0.0
H724 H 0.44348 0.14552 0.90687 0.0
H725 H 0.50289 0.16494 0.83507 0.0
Co726 Co 0.93913 0.38802 0.90658 0.0
C727 C 0.92143 0.41945 0.89348 0.0
C728 C 0.93624 0.42306 0.95281 0.0
C729 C 0.92907 0.43835 0.94933 0.0
N730 N 0.93117 0.4109 0.91808 0.0
N731 N 0.91964 0.43612 0.912 0.0
H732 H 0.91626 0.41403 0.86237 0.0
H733 H 0.94513 0.4214 0.97867 0.0
C734 C 0.9206 0.37373 0.99675 0.0
O735 O 0.90182 0.37262 0.98561 0.0
N736 N 0.94683 0.36565 0.89451 0.0
C737 C 0.9416 0.3537 0.85941 0.0
C738 C 0.94261 0.33463 0.86652 0.0
C739 C 0.95144 0.35412 0.92209 0.0
N740 N 0.94841 0.33484 0.90615 0.0
C741 C 0.89773 0.36536 0.86022 0.0
C742 C 0.88022 0.32529 0.90234 0.0
C743 C 0.87005 0.32555 0.86526 0.0
C744 C 0.8788 0.34622 0.84476 0.0
C745 C 0.89905 0.34468 0.91663 0.0
N746 N 0.90785 0.36463 0.89586 0.0
H747 H 0.90536 0.38012 0.84127 0.0
H748 H 0.90775 0.34271 0.94227 0.0
H749 H 0.93545 0.35752 0.83179 0.0
H750 H 0.95581 0.35917 0.95372 0.0
O751 O 0.94912 0.39993 0.84992 0.0
O752 O 0.97112 0.41107 0.90338 0.0
O753 O 0.93657 0.37998 0.9699 0.0
C754 C 0.96942 0.41213 0.86359 0.0
H755 H 0.93141 0.45067 0.97225 0.0
H756 H 0.93808 0.3211 0.84498 0.0
H757 H 0.87487 0.30978 0.91879 0.0
H758 H 0.87176 0.34747 0.81583 0.0
Co759 Co 0.63943 0.5574 0.90619 0.0
C760 C 0.60721 0.50861 0.89443 0.0
C761 C 0.60537 0.51956 0.95511 0.0
C762 C 0.58961 0.49719 0.95159 0.0
N763 N 0.61675 0.52671 0.91951 0.0
N764 N 0.59071 0.49019 0.91336 0.0
H765 H 0.61175 0.50905 0.8626 0.0
H766 H 0.60775 0.53001 0.98152 0.0
C767 C 0.65449 0.55533 0.99688 0.0
O768 O 0.65387 0.53639 0.98872 0.0
N769 N 0.66158 0.58728 0.89194 0.0
C770 C 0.67359 0.59328 0.85683 0.0
C771 C 0.69275 0.6134 0.8631 0.0
C772 C 0.6731 0.60393 0.91854 0.0
N773 N 0.6925 0.61969 0.9022 0.0
C774 C 0.66169 0.53736 0.86209 0.0
C775 C 0.70182 0.56073 0.90345 0.0
C776 C 0.70135 0.54923 0.86768 0.0
C777 C 0.68067 0.53694 0.84753 0.0
C778 C 0.68262 0.56076 0.91682 0.0
N779 N 0.66267 0.54926 0.8964 0.0
H780 H 0.64681 0.52968 0.84356 0.0
H781 H 0.6848 0.57215 0.94126 0.0
H782 H 0.66981 0.58274 0.83003 0.0
H783 H 0.66807 0.6039 0.95 0.0
O784 O 0.62697 0.55433 0.84989 0.0
O785 O 0.61638 0.56621 0.90286 0.0
O786 O 0.64843 0.5645 0.96862 0.0
C787 C 0.61485 0.5626 0.86333 0.0
H788 H 0.57765 0.48718 0.97504 0.0
H789 H 0.70644 0.62187 0.84163 0.0
H790 H 0.71735 0.57122 0.91944 0.0
H791 H 0.6793 0.52783 0.81959 0.0
Co792 Co 0.59938 0.8885 0.72957 0.0
C793 C 0.58363 0.8398 0.71859 0.0
C794 C 0.59538 0.85083 0.77974 0.0
C795 C 0.58957 0.82866 0.77628 0.0
N796 N 0.59121 0.8578 0.74384 0.0
N797 N 0.58217 0.82162 0.73774 0.0
H798 H 0.58007 0.84021 0.68641 0.0
H799 H 0.60307 0.86134 0.80623 0.0
C800 C 0.58098 0.88575 0.81805 0.0
O801 O 0.56344 0.8669 0.80662 0.0
N802 N 0.6074 0.91814 0.7133 0.0
C803 C 0.60221 0.92362 0.67679 0.0
C804 C 0.60958 0.94607 0.67668 0.0
C805 C 0.61797 0.93711 0.73486 0.0
N806 N 0.61937 0.95442 0.71321 0.0
C807 C 0.55631 0.86779 0.68709 0.0
C808 C 0.54167 0.8938 0.72575 0.0
C809 C 0.52954 0.88109 0.69183 0.0
C810 C 0.53691 0.86756 0.67289 0.0
C811 C 0.56084 0.89368 0.7386 0.0
N812 N 0.56818 0.8808 0.71968 0.0
H813 H 0.56262 0.85885 0.66974 0.0
H814 H 0.57094 0.90589 0.7614 0.0
H815 H 0.59317 0.91195 0.65237 0.0
H816 H 0.6244 0.93815 0.76559 0.0
O817 O 0.60883 0.88495 0.67364 0.0
O818 O 0.63114 0.89703 0.72682 0.0
O819 O 0.59719 0.89612 0.79186 0.0
C820 C 0.62919 0.89341 0.6873 0.0
H821 H 0.59176 0.81886 0.79987 0.0
H822 H 0.60734 0.95538 0.65217 0.0
H823 H 0.53751 0.90529 0.74054 0.0
H824 H 0.52831 0.85755 0.64627 0.0
Co825 Co 0.13892 0.72111 0.73954 0.0
C826 C 0.1877 0.75376 0.7293 0.0
C827 C 0.17414 0.76019 0.78339 0.0
C828 C 0.19623 0.77665 0.77966 0.0
N829 N 0.16884 0.74554 0.75226 0.0
N830 N 0.20482 0.77269 0.74553 0.0
H831 H 0.18878 0.74653 0.70067 0.0
H832 H 0.16253 0.75933 0.80659 0.0
C833 C 0.14684 0.71088 0.82778 0.0
O834 O 0.16683 0.71685 0.81347 0.0
N835 N 0.11003 0.69755 0.72441 0.0
C836 C 0.10526 0.68667 0.68815 0.0
C837 C 0.08325 0.6704 0.68814 0.0
C838 C 0.09102 0.68802 0.74601 0.0
N839 N 0.07439 0.6713 0.72448 0.0
C840 C 0.15946 0.69943 0.69437 0.0
C841 C 0.14065 0.66128 0.74247 0.0
C842 C 0.15037 0.66066 0.70516 0.0
C843 C 0.16041 0.68042 0.68139 0.0
C844 C 0.13932 0.68006 0.75337 0.0
N845 N 0.14893 0.69923 0.73015 0.0
H846 H 0.16525 0.71341 0.67354 0.0
H847 H 0.12836 0.67785 0.77858 0.0
H848 H 0.11706 0.69021 0.66351 0.0
H849 H 0.0894 0.69341 0.7764 0.0
O850 O 0.14117 0.73343 0.68328 0.0
O851 O 0.12795 0.74254 0.73626 0.0
O852 O 0.13282 0.71188 0.80255 0.0
C853 C 0.13169 0.74443 0.69676 0.0
H854 H 0.20494 0.79101 0.79959 0.0
H855 H 0.07456 0.65866 0.6636 0.0
H856 H 0.13284 0.64684 0.76252 0.0
H857 H 0.16771 0.68083 0.65173 0.0
Co858 Co 0.30528 0.42016 0.73477 0.0
C859 C 0.27335 0.43761 0.73374 0.0
C860 C 0.26703 0.41464 0.78334 0.0
C861 C 0.25134 0.42135 0.7848 0.0
N862 N 0.28122 0.42523 0.75203 0.0
N863 N 0.25522 0.4357 0.75355 0.0
H864 H 0.28055 0.44766 0.7065 0.0
H865 H 0.26796 0.40271 0.80361 0.0
C866 C 0.31618 0.43324 0.82798 0.0
O867 O 0.30789 0.44659 0.82384 0.0
N868 N 0.32872 0.41544 0.71565 0.0
C869 C 0.33826 0.42096 0.67809 0.0
C870 C 0.35643 0.41795 0.67771 0.0
C871 C 0.34095 0.40908 0.73755 0.0
N872 N 0.35812 0.4107 0.71525 0.0
C873 C 0.32661 0.46199 0.68918 0.0
C874 C 0.36363 0.48341 0.73934 0.0
C875 C 0.36499 0.49261 0.70031 0.0
C876 C 0.34564 0.48183 0.67557 0.0
C877 C 0.34497 0.4632 0.75074 0.0
N878 N 0.32651 0.45239 0.72606 0.0
H879 H 0.31277 0.45329 0.66824 0.0
H880 H 0.34697 0.45567 0.77792 0.0
H881 H 0.33281 0.4274 0.65307 0.0
H882 H 0.33735 0.4034 0.76907 0.0
O883 O 0.29126 0.41053 0.67932 0.0
O884 O 0.28415 0.38775 0.73102 0.0
O885 O 0.31608 0.42173 0.79628 0.0
C886 C 0.28089 0.38988 0.69225 0.0
H887 H 0.23773 0.41569 0.8066 0.0
H888 H 0.36776 0.42131 0.65225 0.0
H889 H 0.37739 0.49097 0.76076 0.0
H890 H 0.34545 0.48775 0.64487 0.0
Co891 Co 0.5562 0.92686 0.13616 0.0
C892 C 0.50794 0.91178 0.15313 0.0
C893 C 0.51872 0.92803 0.09467 0.0
C894 C 0.49643 0.9213 0.09966 0.0
N895 N 0.52586 0.92142 0.12754 0.0
N896 N 0.48967 0.91112 0.13644 0.0
H897 H 0.50816 0.90575 0.18363 0.0
H898 H 0.52904 0.93732 0.06881 0.0
C899 C 0.54749 0.91053 0.0464 0.0
O900 O 0.52824 0.89475 0.06084 0.0
N901 N 0.58564 0.93208 0.14598 0.0
C902 C 0.59198 0.925 0.17927 0.0
C903 C 0.6123 0.92684 0.17124 0.0
C904 C 0.60209 0.93833 0.11839 0.0
N905 N 0.61841 0.93497 0.13282 0.0
C906 C 0.53511 0.88328 0.17546 0.0
C907 C 0.55565 0.86599 0.12684 0.0
C908 C 0.545 0.85449 0.16284 0.0
C909 C 0.53405 0.86309 0.18668 0.0
C910 C 0.55654 0.88609 0.11705 0.0
N911 N 0.54637 0.89477 0.14102 0.0
H912 H 0.52871 0.89059 0.19679 0.0
H913 H 0.56744 0.89558 0.09214 0.0
H914 H 0.58187 0.91764 0.20641 0.0
H915 H 0.60186 0.94464 0.08806 0.0
O916 O 0.55475 0.93369 0.19444 0.0
O917 O 0.56723 0.95931 0.14663 0.0
O918 O 0.56093 0.92584 0.07185 0.0
C919 C 0.5639 0.95484 0.18594 0.0
H920 H 0.48614 0.9243 0.07846 0.0
H921 H 0.62142 0.92179 0.19145 0.0
H922 H 0.56432 0.86015 0.10721 0.0
H923 H 0.52603 0.85517 0.21537 0.0
Co924 Co 0.09204 0.63318 0.14119 0.0
C925 C 0.10763 0.60036 0.15459 0.0
C926 C 0.09365 0.59719 0.09459 0.0
C927 C 0.09993 0.58121 0.09909 0.0
N928 N 0.09889 0.60956 0.12911 0.0
N929 N 0.10877 0.58317 0.13692 0.0
H930 H 0.11246 0.60564 0.18587 0.0
H931 H 0.08528 0.5992 0.06825 0.0
C932 C 0.11048 0.64658 0.05181 0.0
O933 O 0.12718 0.64379 0.063 0.0
N934 N 0.08555 0.65629 0.15473 0.0
C935 C 0.0912 0.66764 0.19055 0.0
C936 C 0.09154 0.68749 0.18487 0.0
C937 C 0.08207 0.66903 0.12808 0.0
N938 N 0.0862 0.68842 0.14537 0.0
C939 C 0.1339 0.6546 0.18638 0.0
C940 C 0.15228 0.69449 0.14353 0.0
C941 C 0.16265 0.69393 0.18011 0.0
C942 C 0.15348 0.67333 0.20097 0.0
C943 C 0.13291 0.67551 0.13004 0.0
N944 N 0.12364 0.65567 0.1512 0.0
H945 H 0.126 0.64 0.20568 0.0
H946 H 0.12425 0.67791 0.10487 0.0
H947 H 0.09676 0.66283 0.21776 0.0
H948 H 0.07775 0.66475 0.09616 0.0
O949 O 0.08231 0.62114 0.1976 0.0
O950 O 0.05984 0.61092 0.14473 0.0
O951 O 0.09475 0.64207 0.07832 0.0
C952 C 0.06188 0.60948 0.18434 0.0
H953 H 0.09737 0.56859 0.07663 0.0
H954 H 0.09663 0.70072 0.2073 0.0
H955 H 0.15789 0.71 0.12693 0.0
H956 H 0.16067 0.67188 0.22955 0.0
Co957 Co 0.39112 0.46251 0.1416 0.0
C958 C 0.42672 0.51012 0.1514 0.0
C959 C 0.42822 0.49733 0.09223 0.0
C960 C 0.44551 0.51913 0.09509 0.0
N961 N 0.41594 0.49186 0.12705 0.0
N962 N 0.4444 0.52706 0.13222 0.0
H963 H 0.42264 0.51079 0.1832 0.0
H964 H 0.42534 0.48604 0.06697 0.0
C965 C 0.37934 0.46705 0.05155 0.0
O966 O 0.38508 0.48764 0.06177 0.0
N967 N 0.36697 0.43388 0.15741 0.0
C968 C 0.35515 0.42929 0.19267 0.0
C969 C 0.33553 0.40937 0.18801 0.0
C970 C 0.35473 0.41677 0.13216 0.0
N971 N 0.33527 0.40194 0.14966 0.0
C972 C 0.37189 0.48711 0.17947 0.0
C973 C 0.33124 0.46374 0.13984 0.0
C974 C 0.33263 0.4766 0.17416 0.0
C975 C 0.35364 0.48909 0.19305 0.0
C976 C 0.34977 0.46232 0.12723 0.0
N977 N 0.36987 0.47352 0.14725 0.0
H978 H 0.38692 0.49492 0.19751 0.0
H979 H 0.34682 0.44996 0.10421 0.0
H980 H 0.35965 0.44046 0.21868 0.0
H981 H 0.35946 0.41562 0.10096 0.0
O982 O 0.402 0.46662 0.19858 0.0
O983 O 0.41242 0.45129 0.15139 0.0
O984 O 0.38205 0.45483 0.07882 0.0
C985 C 0.41335 0.45682 0.19011 0.0
H986 H 0.45854 0.52808 0.07258 0.0
H987 H 0.32207 0.40158 0.21014 0.0
H988 H 0.31545 0.45312 0.12476 0.0
H989 H 0.35577 0.49941 0.2196 0.0
Co990 Co 0.09893 0.46794 0.64634 0.0
C991 C 0.10979 0.51533 0.66188 0.0
C992 C 0.12024 0.5111 0.60217 0.0
C993 C 0.1267 0.53328 0.60713 0.0
N994 N 0.10964 0.49966 0.63643 0.0
N995 N 0.12019 0.53604 0.64463 0.0
H996 H 0.10285 0.51182 0.69259 0.0
H997 H 0.12346 0.50409 0.57523 0.0
C998 C 0.1097 0.45117 0.56405 0.0
O999 O 0.11491 0.43842 0.58587 0.0
N1000 N 0.08816 0.43681 0.65686 0.0
C1001 C 0.08927 0.42716 0.69224 0.0
C1002 C 0.07836 0.40447 0.68696 0.0
C1003 C 0.0753 0.4198 0.6317 0.0
N1004 N 0.06989 0.39998 0.64865 0.0
C1005 C 0.13491 0.47241 0.69819 0.0
C1006 C 0.16526 0.47986 0.63666 0.0
C1007 C 0.16896 0.47331 0.67554 0.0
C1008 C 0.15389 0.47075 0.70702 0.0
C1009 C 0.1458 0.48093 0.62912 0.0
N1010 N 0.12978 0.47504 0.65879 0.0
H1011 H 0.12371 0.47038 0.723 0.0
H1012 H 0.14349 0.48578 0.59886 0.0
H1013 H 0.0967 0.43564 0.7206 0.0
H1014 H 0.07058 0.42196 0.60109 0.0
O1015 O 0.08832 0.46955 0.70237 0.0
O1016 O 0.06733 0.46082 0.64768 0.0
O1017 O 0.10316 0.46355 0.58297 0.0
C1018 C 0.06843 0.46263 0.68772 0.0
H1019 H 0.1353 0.54636 0.58451 0.0
H1020 H 0.07676 0.39223 0.70956 0.0
H1021 H 0.177 0.48367 0.61174 0.0
H1022 H 0.15594 0.4664 0.73802 0.0
Co1023 Co 0.55861 0.63272 0.64233 0.0
C1024 C 0.51009 0.59984 0.65846 0.0
C1025 C 0.51717 0.60496 0.59404 0.0
C1026 C 0.49483 0.58964 0.59903 0.0
N1027 N 0.52684 0.61192 0.63126 0.0
N1028 N 0.49032 0.58634 0.63951 0.0
H1029 H 0.51233 0.6006 0.69146 0.0
H1030 H 0.52572 0.60966 0.56489 0.0
C1031 C 0.55846 0.65108 0.55377 0.0
O1032 O 0.5424 0.65488 0.56485 0.0
N1033 N 0.58946 0.65247 0.65401 0.0
C1034 C 0.59824 0.66373 0.6892 0.0
C1035 C 0.62084 0.67721 0.68369 0.0
C1036 C 0.60655 0.6588 0.62793 0.0
N1037 N 0.6259 0.67412 0.64505 0.0
C1038 C 0.5388 0.65658 0.68217 0.0
C1039 C 0.56815 0.69787 0.6483 0.0
C1040 C 0.55355 0.69703 0.67907 0.0
C1041 C 0.53845 0.67583 0.69557 0.0
C1042 C 0.56799 0.6784 0.63595 0.0
N1043 N 0.55348 0.65794 0.65264 0.0
H1044 H 0.52801 0.64082 0.69708 0.0
H1045 H 0.5806 0.68015 0.61429 0.0
H1046 H 0.58876 0.66271 0.71639 0.0
H1047 H 0.60469 0.6531 0.59649 0.0
O1048 O 0.5558 0.62085 0.69894 0.0
O1049 O 0.56469 0.6077 0.64546 0.0
O1050 O 0.56525 0.64138 0.57963 0.0
C1051 C 0.56248 0.60742 0.68537 0.0
H1052 H 0.48304 0.58071 0.57467 0.0
H1053 H 0.63251 0.68866 0.70609 0.0
H1054 H 0.58062 0.71367 0.63527 0.0
H1055 H 0.52679 0.67413 0.71945 0.0
Co1056 Co 0.39106 0.93617 0.64566 0.0
C1057 C 0.42261 0.91868 0.65376 0.0
C1058 C 0.42626 0.93487 0.59581 0.0
C1059 C 0.44192 0.92805 0.59824 0.0
N1060 N 0.41381 0.92861 0.63033 0.0
N1061 N 0.43968 0.91786 0.6348 0.0
H1062 H 0.41722 0.91283 0.68462 0.0
H1063 H 0.42461 0.94439 0.57104 0.0
C1064 C 0.377 0.91956 0.55516 0.0
O1065 O 0.37998 0.90263 0.56361 0.0
N1066 N 0.36892 0.94338 0.66275 0.0
C1067 C 0.35891 0.93825 0.69988 0.0
C1068 C 0.34153 0.94242 0.69927 0.0
C1069 C 0.35773 0.95075 0.64007 0.0
N1070 N 0.34072 0.95015 0.6616 0.0
C1071 C 0.36919 0.89398 0.69018 0.0
C1072 C 0.32916 0.87659 0.64833 0.0
C1073 C 0.3297 0.86574 0.68434 0.0
C1074 C 0.35034 0.87445 0.70475 0.0
C1075 C 0.34824 0.89599 0.63497 0.0
N1076 N 0.36817 0.90467 0.65553 0.0
H1077 H 0.38392 0.9015 0.70911 0.0
H1078 H 0.34596 0.90516 0.61053 0.0
H1079 H 0.36322 0.93086 0.72501 0.0
H1080 H 0.36167 0.95594 0.60835 0.0
O1081 O 0.40449 0.94543 0.70139 0.0
O1082 O 0.4139 0.96816 0.64889 0.0
O1083 O 0.38109 0.9343 0.5837 0.0
C1084 C 0.41613 0.96593 0.68814 0.0
H1085 H 0.4546 0.93129 0.57546 0.0
H1086 H 0.32983 0.93905 0.72407 0.0
H1087 H 0.31361 0.87129 0.63222 0.0
H1088 H 0.35172 0.86692 0.73298 0.0
Co1089 Co 0.14152 0.42593 0.23567 0.0
C1090 C 0.18992 0.44213 0.22202 0.0
C1091 C 0.17967 0.42959 0.2831 0.0
C1092 C 0.2019 0.43602 0.27855 0.0
N1093 N 0.17219 0.43381 0.2479 0.0
N1094 N 0.20846 0.44399 0.24007 0.0
H1095 H 0.18911 0.44602 0.19019 0.0
H1096 H 0.16954 0.42157 0.3099 0.0
C1097 C 0.14346 0.4413 0.32685 0.0
O1098 O 0.1611 0.46049 0.31722 0.0
N1099 N 0.11171 0.41822 0.22229 0.0
C1100 C 0.10518 0.42394 0.18744 0.0
C1101 C 0.084 0.42042 0.19326 0.0
C1102 C 0.0946 0.41108 0.24847 0.0
N1103 N 0.07777 0.41277 0.23185 0.0
C1104 C 0.16184 0.46974 0.19718 0.0
C1105 C 0.13523 0.48325 0.23688 0.0
C1106 C 0.1473 0.49544 0.20232 0.0
C1107 C 0.16139 0.48883 0.18335 0.0
C1108 C 0.13622 0.46443 0.24975 0.0
N1109 N 0.14911 0.45743 0.22976 0.0
H1110 H 0.17089 0.46387 0.1791 0.0
H1111 H 0.12457 0.45425 0.27325 0.0
H1112 H 0.11566 0.43162 0.16084 0.0
H1113 H 0.09474 0.40563 0.2796 0.0
O1114 O 0.14505 0.41935 0.17815 0.0
O1115 O 0.13301 0.39409 0.22679 0.0
O1116 O 0.13455 0.42579 0.29898 0.0
C1117 C 0.13679 0.39836 0.18754 0.0
H1118 H 0.21211 0.43404 0.30148 0.0
H1119 H 0.07442 0.42424 0.17177 0.0
H1120 H 0.12356 0.48699 0.2521 0.0
H1121 H 0.17119 0.49762 0.15661 0.0
Co1122 Co 0.60074 0.71777 0.23229 0.0
C1123 C 0.58977 0.75416 0.21662 0.0
C1124 C 0.5714 0.73274 0.26698 0.0
C1125 C 0.56438 0.74798 0.26125 0.0
N1126 N 0.58739 0.73657 0.2392 0.0
N1127 N 0.57583 0.76146 0.22949 0.0
H1128 H 0.60091 0.76105 0.19061 0.0
H1129 H 0.5648 0.71935 0.28933 0.0
C1130 C 0.60207 0.69987 0.32144 0.0
O1131 O 0.61189 0.68928 0.30695 0.0
N1132 N 0.61372 0.69927 0.22394 0.0
C1133 C 0.60705 0.68212 0.19732 0.0
C1134 C 0.62387 0.67709 0.19354 0.0
C1135 C 0.63467 0.70502 0.23444 0.0
N1136 N 0.64113 0.69159 0.21698 0.0
C1137 C 0.55994 0.69125 0.18835 0.0
C1138 C 0.54296 0.65358 0.23738 0.0
C1139 C 0.53234 0.65203 0.19972 0.0
C1140 C 0.54089 0.67155 0.17559 0.0
C1141 C 0.56228 0.67336 0.24837 0.0
N1142 N 0.57092 0.69184 0.22361 0.0
H1143 H 0.56657 0.7058 0.16866 0.0
H1144 H 0.57067 0.67305 0.27577 0.0
H1145 H 0.59143 0.67427 0.18072 0.0
H1146 H 0.645 0.71883 0.25464 0.0
O1147 O 0.60835 0.72698 0.17471 0.0
O1148 O 0.63135 0.74443 0.22519 0.0
O1149 O 0.59768 0.71201 0.29664 0.0
C1150 C 0.6283 0.74222 0.18535 0.0
H1151 H 0.55177 0.74901 0.27926 0.0
H1152 H 0.62327 0.66354 0.17582 0.0
H1153 H 0.53684 0.63943 0.25805 0.0
H1154 H 0.53366 0.67153 0.1461 0.0
Co1155 Co 0.30693 0.88445 0.23542 0.0
C1156 C 0.27274 0.83686 0.22298 0.0
C1157 C 0.26882 0.84913 0.28116 0.0
C1158 C 0.25236 0.82701 0.27728 0.0
N1159 N 0.28159 0.85524 0.24716 0.0
N1160 N 0.25479 0.8192 0.24065 0.0
H1161 H 0.27942 0.83649 0.19311 0.0
H1162 H 0.27115 0.86005 0.30679 0.0
C1163 C 0.32243 0.9031 0.32393 0.0
O1164 O 0.3194 0.91989 0.31462 0.0
N1165 N 0.3324 0.91343 0.22268 0.0
C1166 C 0.35303 0.91844 0.20992 0.0
C1167 C 0.36598 0.94106 0.20536 0.0
C1168 C 0.3333 0.93329 0.22554 0.0
N1169 N 0.35356 0.95029 0.21542 0.0
C1170 C 0.32768 0.86822 0.17936 0.0
C1171 C 0.35619 0.86546 0.23544 0.0
C1172 C 0.36162 0.86687 0.19341 0.0
C1173 C 0.34609 0.86678 0.16529 0.0
C1174 C 0.33764 0.86709 0.24826 0.0
N1175 N 0.32476 0.87043 0.22033 0.0
H1176 H 0.31734 0.87015 0.15682 0.0
H1177 H 0.33483 0.86712 0.28078 0.0
H1178 H 0.35927 0.90711 0.20646 0.0
H1179 H 0.32011 0.93558 0.23816 0.0
O1180 O 0.2942 0.88474 0.18104 0.0
O1181 O 0.28717 0.89776 0.23665 0.0
O1182 O 0.3175 0.88759 0.29675 0.0
C1183 C 0.28433 0.89473 0.19697 0.0
H1184 H 0.23931 0.81765 0.29951 0.0
H1185 H 0.38373 0.95018 0.19898 0.0
H1186 H 0.36676 0.8642 0.25855 0.0
H1187 H 0.349 0.86763 0.13249 0.0
H1188 H 0.21646 0.06284 0.97923 0.0
H1189 H 0.22125 0.03948 0.10007 0.0
H1190 H 0.23116 0.07571 0.12896 0.0
H1191 H 0.24085 0.11475 0.11992 0.0
H1192 H 0.23935 0.13924 0.99834 0.0
H1193 H 0.2261 0.10207 0.97027 0.0
C1194 C 0.21976 0.06556 1.0119 0.0
C1195 C 0.21799 0.04802 0.0371 0.0
C1196 C 0.22632 0.08689 0.0284 0.0
C1197 C 0.22192 0.05215 0.07958 0.0
C1198 C 0.22793 0.07312 0.09625 0.0
C1199 C 0.23787 0.11222 0.08721 0.0
C1200 C 0.24146 0.1303 0.06159 0.0
C1201 C 0.23058 0.09074 0.07088 0.0
C1202 C 0.2368 0.12602 1.0193 0.0
C1203 C 0.22924 0.10462 1.00301 0.0
H1204 H 0.90661 0.12908 0.11636 0.0
H1205 H 0.88052 0.10867 0.99368 0.0
H1206 H 0.91747 0.13298 0.96501 0.0
H1207 H 0.95707 0.16122 0.97408 0.0
H1208 H 0.98271 0.18336 0.09653 0.0
H1209 H 0.94638 0.15705 0.1255 0.0
C1210 C 0.90888 0.12999 0.08334 0.0
C1211 C 0.89047 0.11688 0.05749 0.0
C1212 C 0.9303 0.14432 0.06677 0.0
C1213 C 0.89414 0.11818 1.0147 0.0
C1214 C 0.91537 0.13226 0.99811 0.0
C1215 C 0.9548 0.16041 1.00713 0.0
C1216 C 0.97294 0.17449 0.03281 0.0
C1217 C 0.93356 0.14556 1.02378 0.0
C1218 C 0.96945 0.17264 0.07568 0.0
C1219 C 0.94848 0.15771 0.09241 0.0
H1220 H 0.86767 0.80323 0.97581 0.0
H1221 H 0.84197 0.80324 0.09683 0.0
H1222 H 0.86782 0.793 0.12698 0.0
H1223 H 0.89642 0.782 0.11919 0.0
H1224 H 0.92095 0.78024 0.99804 0.0
H1225 H 0.89694 0.79301 0.9682 0.0
C1226 C 0.86766 0.80101 1.0088 0.0
C1227 C 0.85271 0.80416 0.03375 0.0
C1228 C 0.88236 0.79459 0.02613 0.0
C1229 C 0.8534 0.80145 0.07659 0.0
C1230 C 0.86808 0.79529 0.09398 0.0
C1231 C 0.8965 0.78429 0.08623 0.0
C1232 C 0.91059 0.77998 0.06112 0.0
C1233 C 0.88241 0.79149 0.06904 0.0
C1234 C 0.91059 0.78354 1.01846 0.0
C1235 C 0.8967 0.79076 1.00121 0.0
H1236 H 0.05923 0.19807 0.56886 0.0
H1237 H 0.0453 0.22503 0.46001 0.0
H1238 H 0.08242 0.23696 0.43406 0.0
H1239 H 0.11933 0.24147 0.44272 0.0
H1240 H 0.13487 0.21588 0.55104 0.0
H1241 H 0.09705 0.20282 0.57759 0.0
C1242 C 0.06424 0.2066 0.53951 0.0
C1243 C 0.04896 0.21026 0.51644 0.0
C1244 C 0.08614 0.21413 0.52493 0.0
C1245 C 0.05607 0.22122 0.47823 0.0
C1246 C 0.07757 0.22843 0.46347 0.0
C1247 C 0.11449 0.23277 0.47192 0.0
C1248 C 0.13001 0.22946 0.49452 0.0
C1249 C 0.09276 0.22513 0.48662 0.0
C1250 C 0.12342 0.21877 0.53298 0.0
C1251 C 0.1017 0.21114 0.548 0.0
H1252 H 0.82425 0.8712 0.55442 0.0
H1253 H 0.79464 0.82627 0.45174 0.0
H1254 H 0.78033 0.84958 0.42495 0.0
H1255 H 0.77433 0.88146 0.43213 0.0
H1256 H 0.80383 0.92667 0.53455 0.0
H1257 H 0.81928 0.90413 0.56024 0.0
C1258 C 0.81469 0.86647 0.52615 0.0
C1259 C 0.81075 0.84689 0.50522 0.0
C1260 C 0.80608 0.87984 0.51102 0.0
C1261 C 0.79847 0.84136 0.46832 0.0
C1262 C 0.78999 0.85459 0.4531 0.0
C1263 C 0.7843 0.88669 0.45983 0.0
C1264 C 0.78761 0.90594 0.48119 0.0
C1265 C 0.79347 0.87374 0.47438 0.0
C1266 C 0.80051 0.91192 0.51743 0.0
C1267 C 0.80957 0.89905 0.53215 0.0
H1268 H 0.12396 0.88567 0.536 0.0
H1269 H 0.12034 0.90078 0.40878 0.0
H1270 H 0.14326 0.94083 0.42287 0.0
H1271 H 0.16566 0.97139 0.4705 0.0
H1272 H 0.17301 0.95595 0.59642 0.0
H1273 H 0.14678 0.91669 0.58407 0.0
C1274 C 0.12803 0.89781 0.51159 0.0
C1275 C 0.12046 0.89028 0.47138 0.0
C1276 C 0.14184 0.92088 0.51973 0.0
C1277 C 0.12609 0.90617 0.43987 0.0
C1278 C 0.13916 0.92907 0.44797 0.0
C1279 C 0.16186 0.95961 0.4954 0.0
C1280 C 0.17173 0.96723 0.53448 0.0
C1281 C 0.14746 0.93663 0.48766 0.0
C1282 C 0.16564 0.9512 0.56617 0.0
C1283 C 0.15074 0.92845 0.55903 0.0
H1284 H 0.79047 0.90342 0.93422 0.0
H1285 H 0.78438 0.87669 0.05656 0.0
H1286 H 0.79565 0.9133 0.08579 0.0
H1287 H 0.80586 0.95276 0.07708 0.0
H1288 H 0.80987 0.9788 0.95463 0.0
H1289 H 0.80117 0.94291 0.92546 0.0
C1290 C 0.79145 0.90548 0.96729 0.0
C1291 C 0.78641 0.88702 0.99291 0.0
C1292 C 0.79775 0.92666 0.98411 0.0
C1293 C 0.7883 0.8904 0.03577 0.0
C1294 C 0.79465 0.91142 0.05265 0.0
C1295 C 0.80482 0.95066 0.04399 0.0
C1296 C 0.80867 0.9688 1.01836 0.0
C1297 C 0.79923 0.92965 0.02716 0.0
C1298 C 0.80752 0.96555 0.97545 0.0
C1299 C 0.80224 0.94483 0.95858 0.0
H1300 H 0.12447 0.88452 0.92869 0.0
H1301 H 0.14693 0.91564 0.04749 0.0
H1302 H 0.1098 0.89195 0.07569 0.0
H1303 H 0.07111 0.86128 0.06803 0.0
H1304 H 0.04896 0.82861 0.9504 0.0
H1305 H 0.0854 0.85412 0.92072 0.0
C1306 C 0.12134 0.88612 0.96078 0.0
C1307 C 0.13883 0.90207 0.98562 0.0
C1308 C 0.09978 0.87214 0.97724 0.0
C1309 C 0.13405 0.90391 0.02711 0.0
C1310 C 0.1127 0.89019 0.04351 0.0
C1311 C 0.07417 0.85963 0.03588 0.0
C1312 C 0.05699 0.84283 1.01175 0.0
C1313 C 0.09547 0.8741 1.01902 0.0
C1314 C 0.06147 0.84147 0.96989 0.0
C1315 C 0.08251 0.85596 0.95285 0.0
H1316 H 0.13502 0.2368 0.93183 0.0
H1317 H 0.11216 0.23894 0.05443 0.0
H1318 H 0.13681 0.22667 0.08264 0.0
H1319 H 0.16606 0.2167 0.0734 0.0
H1320 H 0.19075 0.21691 0.95131 0.0
H1321 H 0.16404 0.22643 0.92249 0.0
C1322 C 0.13544 0.23475 0.96476 0.0
C1323 C 0.12154 0.23901 0.99067 0.0
C1324 C 0.15002 0.22791 0.98112 0.0
C1325 C 0.12228 0.23571 0.03329 0.0
C1326 C 0.13656 0.22875 0.04966 0.0
C1327 C 0.16575 0.21888 0.04046 0.0
C1328 C 0.18068 0.21603 1.01485 0.0
C1329 C 0.15067 0.225 1.02395 0.0
C1330 C 0.17942 0.21854 0.97209 0.0
C1331 C 0.16424 0.22428 0.95547 0.0
H1332 H 0.96461 0.81246 0.4801 0.0
H1333 H 0.98801 0.80919 0.60155 0.0
H1334 H 0.95178 0.79973 0.63035 0.0
H1335 H 0.91246 0.78932 0.62062 0.0
H1336 H 0.88839 0.78985 0.49835 0.0
H1337 H 0.92566 0.8032 0.47069 0.0
C1338 C 0.96188 0.8097 0.51292 0.0
C1339 C 0.97926 0.81147 0.53836 0.0
C1340 C 0.94066 0.80347 0.52926 0.0
C1341 C 0.9753 0.8083 0.58099 0.0
C1342 C 0.95438 0.80258 0.59753 0.0
C1343 C 0.91521 0.79221 0.58788 0.0
C1344 C 0.89724 0.78827 0.56181 0.0
C1345 C 0.93676 0.79959 0.57186 0.0
C1346 C 0.90162 0.79275 0.51951 0.0
C1347 C 0.92304 0.80033 0.5035 0.0
H1348 H 0.2122 0.1678 0.57923 0.0
H1349 H 0.23184 0.17141 0.45219 0.0
H1350 H 0.24183 0.14266 0.46462 0.0
H1351 H 0.24755 0.118 0.51292 0.0
H1352 H 0.22975 0.11636 0.64037 0.0
H1353 H 0.21699 0.14288 0.62657 0.0
C1354 C 0.21878 0.16249 0.55415 0.0
C1355 C 0.22123 0.17208 0.51475 0.0
C1356 C 0.22507 0.14626 0.5617 0.0
C1357 C 0.22936 0.16431 0.48274 0.0
C1358 C 0.23532 0.14792 0.4899 0.0
C1359 C 0.24061 0.12326 0.53747 0.0
C1360 C 0.23976 0.11523 0.57774 0.0
C1361 C 0.23355 0.13894 0.5294 0.0
C1362 C 0.23089 0.12244 0.60926 0.0
C1363 C 0.22351 0.13759 0.60136 0.0
H1364 H 0.88562 0.11715 0.62436 0.0
H1365 H 0.92172 0.13771 0.50927 0.0
H1366 H 0.89968 0.09998 0.48303 0.0
H1367 H 0.86905 0.06134 0.49083 0.0
H1368 H 0.83084 0.04143 0.60353 0.0
H1369 H 0.85515 0.07835 0.63242 0.0
C1370 C 0.88875 0.11362 0.59345 0.0
C1371 C 0.90556 0.13082 0.56915 0.0
C1372 C 0.87564 0.0917 0.57792 0.0
C1373 C 0.90922 0.12525 0.5293 0.0
C1374 C 0.89648 0.10349 0.51398 0.0
C1375 C 0.86586 0.06497 0.52168 0.0
C1376 C 0.84784 0.04828 0.54462 0.0
C1377 C 0.87947 0.08663 0.53779 0.0
C1378 C 0.84463 0.05352 0.58502 0.0
C1379 C 0.85842 0.07485 0.60153 0.0
H1380 H 0.87406 0.38404 0.417 0.0
H1381 H 0.89815 0.4001 0.29202 0.0
H1382 H 0.91017 0.43927 0.30428 0.0
H1383 H 0.9169 0.47006 0.35224 0.0
H1384 H 0.89566 0.45404 0.47826 0.0
H1385 H 0.88008 0.41424 0.46407 0.0
C1386 C 0.88205 0.39597 0.3923 0.0
C1387 C 0.88507 0.38862 0.35353 0.0
C1388 C 0.88976 0.41884 0.39991 0.0
C1389 C 0.89505 0.40475 0.32204 0.0
C1390 C 0.90225 0.4274 0.32913 0.0
C1391 C 0.90858 0.45778 0.37634 0.0
C1392 C 0.90751 0.46507 0.41634 0.0
C1393 C 0.90006 0.43477 0.36814 0.0
C1394 C 0.8969 0.44893 0.44737 0.0
C1395 C 0.88794 0.42613 0.43923 0.0
H1396 H 0.6209 0.52567 0.34397 0.0
H1397 H 0.65921 0.49397 0.37537 0.0
H1398 H 0.62502 0.46011 0.39543 0.0
H1399 H 0.58422 0.43926 0.40353 0.0
H1400 H 0.54577 0.4705 0.37074 0.0
H1401 H 0.57998 0.50444 0.35029 0.0
C1402 C 0.62185 0.5113 0.35463 0.0
C1403 C 0.64284 0.51259 0.35807 0.0
C1404 C 0.60202 0.49166 0.36557 0.0
C1405 C 0.6435 0.49378 0.37291 0.0
C1406 C 0.62388 0.47427 0.38411 0.0
C1407 C 0.58328 0.45352 0.39218 0.0
C1408 C 0.56233 0.45227 0.38897 0.0
C1409 C 0.60305 0.47303 0.38064 0.0
C1410 C 0.56153 0.47084 0.37328 0.0
C1411 C 0.58115 0.49033 0.36183 0.0
H1412 H 0.52751 0.12597 0.31381 0.0
H1413 H 0.51149 0.13628 0.43712 0.0
H1414 H 0.53872 0.12699 0.46479 0.0
H1415 H 0.56567 0.11372 0.45423 0.0
H1416 H 0.58065 0.10258 0.3307 0.0
H1417 H 0.55524 0.11416 0.30316 0.0
C1418 C 0.52997 0.12625 0.34678 0.0
C1419 C 0.51726 0.13177 0.37323 0.0
C1420 C 0.54541 0.1205 0.36258 0.0
C1421 C 0.5211 0.13239 0.41584 0.0
C1422 C 0.53655 0.12682 0.43177 0.0
C1423 C 0.56332 0.11376 0.4213 0.0
C1424 C 0.57515 0.1072 0.39471 0.0
C1425 C 0.54853 0.12046 0.40549 0.0
C1426 C 0.57208 0.10773 0.35203 0.0
C1427 C 0.55741 0.11427 0.33617 0.0
H1428 H 0.73827 0.55335 0.90805 0.0
H1429 H 0.71328 0.55273 0.78615 0.0
H1430 H 0.74922 0.5616 0.75679 0.0
H1431 H 0.78856 0.57163 0.76557 0.0
H1432 H 0.81402 0.57402 0.88772 0.0
H1433 H 0.77734 0.56255 0.91669 0.0
C1434 C 0.7406 0.55517 0.87503 0.0
C1435 C 0.72278 0.55232 0.8496 0.0
C1436 C 0.76161 0.56079 0.8582 0.0
C1437 C 0.72631 0.55439 0.80676 0.0
C1438 C 0.74705 0.55974 0.78984 0.0
C1439 C 0.7862 0.56977 0.79856 0.0
C1440 C 0.80436 0.57388 0.8242 0.0
C1441 C 0.76495 0.56333 0.81526 0.0
C1442 C 0.80057 0.57086 0.8669 0.0
C1443 C 0.77951 0.56439 0.88364 0.0
H1444 H 0.46032 0.18512 0.90902 0.0
H1445 H 0.48121 0.17467 0.79006 0.0
H1446 H 0.4749 0.20358 0.76054 0.0
H1447 H 0.46178 0.23078 0.76761 0.0
H1448 H 0.43983 0.2402 0.88631 0.0
H1449 H 0.44812 0.21284 0.91643 0.0
C1450 C 0.46346 0.18907 0.87658 0.0
C1451 C 0.47119 0.17748 0.85194 0.0
C1452 C 0.45948 0.20557 0.85955 0.0
C1453 C 0.47554 0.18334 0.81009 0.0
C1454 C 0.47172 0.19979 0.79301 0.0
C1455 C 0.4587 0.22681 0.80003 0.0
C1456 C 0.45008 0.23769 0.82444 0.0
C1457 C 0.46341 0.21083 0.81731 0.0
C1458 C 0.44664 0.23246 0.86663 0.0
C1459 C 0.45127 0.21664 0.88394 0.0
H1460 H 0.83624 0.28834 0.90383 0.0
H1461 H 0.86389 0.31362 0.7836 0.0
H1462 H 0.83732 0.27785 0.75297 0.0
H1463 H 0.80716 0.23861 0.76017 0.0
H1464 H 0.78049 0.21294 0.8807 0.0
H1465 H 0.80563 0.24933 0.91085 0.0
C1466 C 0.83654 0.28611 0.87091 0.0
C1467 C 0.85226 0.30401 0.84633 0.0
C1468 C 0.82134 0.2652 0.85332 0.0
C1469 C 0.85192 0.30057 0.80355 0.0
C1470 C 0.8368 0.27991 0.78591 0.0
C1471 C 0.80686 0.24087 0.79307 0.0
C1472 C 0.79176 0.22273 0.81787 0.0
C1473 C 0.82159 0.26199 0.81049 0.0
C1474 C 0.79156 0.22638 0.86045 0.0
C1475 C 0.80611 0.24728 0.8779 0.0
H1476 H 0.48155 0.23771 0.29901 0.0
H1477 H 0.42474 0.20177 0.37848 0.0
H1478 H 0.42922 0.23716 0.40431 0.0
H1479 H 0.44787 0.27807 0.40072 0.0
H1480 H 0.50766 0.3142 0.32706 0.0
H1481 H 0.5031 0.27906 0.30197 0.0
C1482 C 0.47035 0.23776 0.32229 0.0
C1483 C 0.45279 0.21727 0.33679 0.0
C1484 C 0.47335 0.25818 0.33755 0.0
C1485 C 0.43843 0.21738 0.36716 0.0
C1486 C 0.44094 0.2376 0.38168 0.0
C1487 C 0.46035 0.27855 0.38001 0.0
C1488 C 0.47792 0.29927 0.36556 0.0
C1489 C 0.45821 0.25813 0.36674 0.0
C1490 C 0.49348 0.29887 0.338 0.0
C1491 C 0.49106 0.27865 0.32381 0.0
H1492 H 0.78734 0.23019 0.27308 0.0
H1493 H 0.81345 0.24847 0.39614 0.0
H1494 H 0.77652 0.22286 0.42437 0.0
H1495 H 0.73737 0.19322 0.41416 0.0
H1496 H 0.71241 0.17337 0.29057 0.0
H1497 H 0.74809 0.20182 0.26285 0.0
C1498 C 0.78507 0.22857 0.3061 0.0
C1499 C 0.80342 0.24117 0.33231 0.0
C1500 C 0.76384 0.2135 0.32217 0.0
C1501 C 0.79979 0.23916 0.37507 0.0
C1502 C 0.77863 0.22437 0.39129 0.0
C1503 C 0.73966 0.19508 0.38113 0.0
C1504 C 0.72194 0.1809 0.35472 0.0
C1505 C 0.76061 0.21113 0.36514 0.0
C1506 C 0.72534 0.18407 0.31197 0.0
C1507 C 0.74595 0.20024 0.29593 0.0
H1508 H 0.86106 0.58334 0.37742 0.0
H1509 H 0.82676 0.51398 0.34075 0.0
H1510 H 0.79473 0.51728 0.3185 0.0
H1511 H 0.77607 0.53957 0.31104 0.0
H1512 H 0.81027 0.60869 0.34905 0.0
H1513 H 0.84233 0.60541 0.37076 0.0
C1514 C 0.84649 0.56875 0.36518 0.0
C1515 C 0.84643 0.5483 0.3613 0.0
C1516 C 0.82796 0.57067 0.35304 0.0
C1517 C 0.82752 0.52995 0.34398 0.0
C1518 C 0.80908 0.53179 0.33149 0.0
C1519 C 0.79056 0.55403 0.32375 0.0
C1520 C 0.79061 0.57444 0.32816 0.0
C1521 C 0.80907 0.55205 0.33602 0.0
C1522 C 0.80952 0.59274 0.34557 0.0
C1523 C 0.82798 0.59091 0.35775 0.0
H1524 H 0.58231 0.15327 0.90856 0.0
H1525 H 0.54608 0.08547 0.86377 0.0
H1526 H 0.58081 0.089 0.83734 0.0
H1527 H 0.6216 0.11073 0.82944 0.0
H1528 H 0.65783 0.17884 0.87309 0.0
H1529 H 0.62304 0.17548 0.89858 0.0
C1530 C 0.58196 0.13918 0.89325 0.0
C1531 C 0.56144 0.11904 0.88848 0.0
C1532 C 0.60207 0.14131 0.87823 0.0
C1533 C 0.56145 0.1012 0.86768 0.0
C1534 C 0.58138 0.10317 0.85277 0.0
C1535 C 0.62197 0.12506 0.84382 0.0
C1536 C 0.64257 0.14511 0.84902 0.0
C1537 C 0.60181 0.1231 0.85806 0.0
C1538 C 0.64246 0.16314 0.86891 0.0
C1539 C 0.62248 0.16127 0.88332 0.0
H1540 H 0.90721 0.46226 0.95407 0.0
H1541 H 0.91131 0.44058 0.83144 0.0
H1542 H 0.89765 0.46414 0.80318 0.0
H1543 H 0.88639 0.49246 0.81244 0.0
H1544 H 0.88539 0.51645 0.93461 0.0
H1545 H 0.89545 0.49014 0.96345 0.0
C1546 C 0.90534 0.46269 0.92111 0.0
C1547 C 0.91064 0.44955 0.8952 0.0
C1548 C 0.8978 0.4767 0.90475 0.0
C1549 C 0.9074 0.45021 0.85256 0.0
C1550 C 0.89962 0.46385 0.83619 0.0
C1551 C 0.88842 0.49209 0.84541 0.0
C1552 C 0.88514 0.50677 0.87101 0.0
C1553 C 0.89505 0.4774 0.86191 0.0
C1554 C 0.88738 0.50534 0.91381 0.0
C1555 C 0.89345 0.49041 0.93044 0.0
H1556 H 0.56563 0.45104 0.95465 0.0
H1557 H 0.58295 0.47884 0.83223 0.0
H1558 H 0.5579 0.44223 0.80308 0.0
H1559 H 0.52961 0.40261 0.81183 0.0
H1560 H 0.51027 0.37531 0.93422 0.0
H1561 H 0.53778 0.41116 0.9634 0.0
C1562 C 0.56391 0.44926 0.92159 0.0
C1563 C 0.57632 0.46809 0.89598 0.0
C1564 C 0.54909 0.42804 0.90477 0.0
C1565 C 0.57398 0.46495 0.85308 0.0
C1566 C 0.55947 0.4439 0.83622 0.0
C1567 C 0.53127 0.4044 0.84494 0.0
C1568 C 0.51755 0.38599 0.87055 0.0
C1569 C 0.54674 0.42537 0.86174 0.0
C1570 C 0.5206 0.38883 0.9134 0.0
C1571 C 0.53623 0.40952 0.93026 0.0
H1572 H 0.56335 0.73565 0.63719 0.0
H1573 H 0.54881 0.70694 0.75905 0.0
H1574 H 0.55535 0.74239 0.78741 0.0
H1575 H 0.56704 0.78223 0.77851 0.0
H1576 H 0.5831 0.81136 0.65709 0.0
H1577 H 0.57422 0.77528 0.62811 0.0
C1578 C 0.56165 0.73707 0.67001 0.0
C1579 C 0.55559 0.71834 0.69574 0.0
C1580 C 0.56584 0.75777 0.68642 0.0
C1581 C 0.55309 0.7207 0.73812 0.0
C1582 C 0.55707 0.74115 0.75455 0.0
C1583 C 0.56874 0.78081 0.74572 0.0
C1584 C 0.57593 0.79984 0.72028 0.0
C1585 C 0.56376 0.75991 0.72911 0.0
C1586 C 0.57748 0.79724 0.67766 0.0
C1587 C 0.5725 0.77652 0.66098 0.0
H1588 H 0.29317 0.83213 0.64444 0.0
H1589 H 0.31759 0.85814 0.76578 0.0
H1590 H 0.28169 0.83107 0.79536 0.0
H1591 H 0.24251 0.80138 0.78682 0.0
H1592 H 0.21756 0.77633 0.66534 0.0
H1593 H 0.25428 0.80154 0.63617 0.0
C1594 C 0.29071 0.83192 0.67739 0.0
C1595 C 0.30835 0.84737 0.70261 0.0
C1596 C 0.26973 0.81648 0.69434 0.0
C1597 C 0.3047 0.84639 0.74537 0.0
C1598 C 0.28398 0.831 0.76241 0.0
C1599 C 0.24501 0.80144 0.75393 0.0
C1600 C 0.227 0.78689 0.72849 0.0
C1601 C 0.26625 0.8162 0.73716 0.0
C1602 C 0.23093 0.78706 0.68596 0.0
C1603 C 0.25199 0.80163 0.66912 0.0
H1604 H 0.23954 0.43925 0.67918 0.0
H1605 H 0.24086 0.45521 0.80739 0.0
H1606 H 0.21582 0.46999 0.79433 0.0
H1607 H 0.19216 0.4768 0.74726 0.0
H1608 H 0.18776 0.45734 0.61984 0.0
H1609 H 0.21563 0.44631 0.63153 0.0
C1610 C 0.23456 0.44628 0.70401 0.0
C1611 C 0.24213 0.44622 0.74422 0.0
C1612 C 0.21953 0.45418 0.69642 0.0
C1613 C 0.23523 0.45504 0.77626 0.0
C1614 C 0.22089 0.46347 0.76878 0.0
C1615 C 0.19702 0.46999 0.7219 0.0
C1616 C 0.18749 0.46808 0.68258 0.0
C1617 C 0.2126 0.4628 0.7291 0.0
C1618 C 0.19482 0.45961 0.65032 0.0
C1619 C 0.21071 0.45299 0.65705 0.0
H1620 H 0.45007 0.88572 0.09921 0.0
H1621 H 0.47997 0.91729 0.21414 0.0
H1622 H 0.44289 0.90554 0.24297 0.0
H1623 H 0.40222 0.8885 0.23362 0.0
H1624 H 0.37214 0.8539 0.12024 0.0
H1625 H 0.40891 0.86478 0.09278 0.0
C1626 C 0.44838 0.88987 0.13065 0.0
C1627 C 0.46773 0.90253 0.15443 0.0
C1628 C 0.42696 0.88267 0.1472 0.0
C1629 C 0.46534 0.90753 0.19532 0.0
C1630 C 0.44413 0.90087 0.21169 0.0
C1631 C 0.40345 0.88277 0.20327 0.0
C1632 C 0.38401 0.87062 0.17905 0.0
C1633 C 0.4248 0.88865 0.18775 0.0
C1634 C 0.38652 0.86379 0.13951 0.0
C1635 C 0.40767 0.86988 0.12371 0.0
H1636 H 0.12301 0.55797 0.0971 0.0
H1637 H 0.11267 0.57648 0.21842 0.0
H1638 H 0.12532 0.55256 0.24908 0.0
H1639 H 0.13811 0.52525 0.24194 0.0
H1640 H 0.14631 0.50509 0.12052 0.0
H1641 H 0.13612 0.53092 0.08994 0.0
C1642 C 0.12334 0.55673 0.13025 0.0
C1643 C 0.11672 0.56917 0.15513 0.0
C1644 C 0.13045 0.54264 0.14792 0.0
C1645 C 0.11779 0.56746 0.19815 0.0
C1646 C 0.12495 0.55361 0.21586 0.0
C1647 C 0.13764 0.52638 0.20876 0.0
C1648 C 0.14311 0.51302 0.18387 0.0
C1649 C 0.13116 0.54097 0.1911 0.0
C1650 C 0.14269 0.51527 0.14084 0.0
C1651 C 0.13656 0.52993 0.12315 0.0
H1652 H 0.45006 0.56764 0.1158 0.0
H1653 H 0.47547 0.53301 0.18774 0.0
H1654 H 0.50513 0.56871 0.21525 0.0
H1655 H 0.52452 0.6096 0.21623 0.0
H1656 H 0.49702 0.64437 0.14921 0.0
H1657 H 0.46785 0.60892 0.1217 0.0
C1658 C 0.46208 0.56809 0.13772 0.0
C1659 C 0.46083 0.54796 0.14984 0.0
C1660 C 0.47879 0.58866 0.15385 0.0
C1661 C 0.47628 0.54844 0.17828 0.0
C1662 C 0.49319 0.5688 0.19381 0.0
C1663 C 0.51195 0.60963 0.19645 0.0
C1664 C 0.51339 0.63006 0.18491 0.0
C1665 C 0.49469 0.58904 0.18162 0.0
C1666 C 0.49695 0.62924 0.15818 0.0
C1667 C 0.48002 0.60886 0.14258 0.0
H1668 H 0.11613 0.61773 0.71932 0.0
H1669 H 0.17965 0.65427 0.65693 0.0
H1670 H 0.17593 0.61902 0.63305 0.0
H1671 H 0.15476 0.57769 0.63025 0.0
H1672 H 0.09254 0.54151 0.69617 0.0
H1673 H 0.09624 0.57683 0.71994 0.0
C1674 C 0.12956 0.61822 0.70135 0.0
C1675 C 0.14833 0.63902 0.69046 0.0
C1676 C 0.12762 0.59784 0.68862 0.0
C1677 C 0.16491 0.6388 0.66565 0.0
C1678 C 0.16287 0.61855 0.6522 0.0
C1679 C 0.142 0.57753 0.64981 0.0
C1680 C 0.12329 0.55688 0.66123 0.0
C1681 C 0.1443 0.59797 0.66348 0.0
C1682 C 0.10714 0.55705 0.68719 0.0
C1683 C 0.1092 0.57728 0.70051 0.0
H1684 H 0.40822 0.50552 0.72486 0.0
H1685 H 0.37205 0.5244 0.64065 0.0
H1686 H 0.40733 0.55465 0.61454 0.0
H1687 H 0.44883 0.5759 0.61496 0.0
H1688 H 0.48422 0.55915 0.70403 0.0
H1689 H 0.44876 0.52862 0.7301 0.0
C1690 C 0.40762 0.51645 0.70167 0.0
C1691 C 0.38684 0.51218 0.68521 0.0
C1692 C 0.42806 0.5345 0.68772 0.0
C1693 C 0.38735 0.52656 0.65385 0.0
C1694 C 0.40767 0.54416 0.639 0.0
C1695 C 0.44872 0.56563 0.64029 0.0
C1696 C 0.46923 0.5698 0.65746 0.0
C1697 C 0.42815 0.54825 0.65555 0.0
C1698 C 0.46877 0.55648 0.69052 0.0
C1699 C 0.44847 0.5389 0.7052 0.0
H1700 H 0.46494 0.90465 0.59198 0.0
H1701 H 0.44634 0.91193 0.7153 0.0
H1702 H 0.47061 0.8991 0.74327 0.0
H1703 H 0.4986 0.88755 0.73344 0.0
H1704 H 0.51899 0.88219 0.61052 0.0
H1705 H 0.49236 0.89204 0.58209 0.0
C1706 C 0.46622 0.90355 0.62499 0.0
C1707 C 0.45366 0.90945 0.65125 0.0
C1708 C 0.48054 0.89633 0.64115 0.0
C1709 C 0.45542 0.9074 0.694 0.0
C1710 C 0.46948 0.90014 0.71018 0.0
C1711 C 0.49731 0.88853 0.70038 0.0
C1712 C 0.51108 0.88417 0.67437 0.0
C1713 C 0.48231 0.89479 0.68412 0.0
C1714 C 0.50858 0.88511 0.63156 0.0
C1715 C 0.49347 0.89102 0.61518 0.0
H1716 H 0.29474 0.4705 0.13467 0.0
H1717 H 0.32282 0.47724 0.25599 0.0
H1718 H 0.28748 0.46919 0.28669 0.0
H1719 H 0.24781 0.45765 0.27963 0.0
H1720 H 0.21892 0.44779 0.15839 0.0
H1721 H 0.25516 0.45938 0.12764 0.0
C1722 C 0.29322 0.47016 0.16786 0.0
C1723 C 0.31173 0.47448 0.19269 0.0
C1724 C 0.27249 0.4647 0.18558 0.0
C1725 C 0.30926 0.47442 0.23571 0.0
C1726 C 0.28885 0.4695 0.25347 0.0
C1727 C 0.24926 0.45783 0.24648 0.0
C1728 C 0.23027 0.4516 0.22169 0.0
C1729 C 0.27021 0.46416 0.22874 0.0
C1730 C 0.23297 0.45257 0.17864 0.0
C1731 C 0.2538 0.45913 0.16086 0.0
H1732 H 0.58117 0.84847 0.15643 0.0
H1733 H 0.51333 0.81615 0.20133 0.0
H1734 H 0.51685 0.7845 0.22536 0.0
H1735 H 0.5391 0.76596 0.23357 0.0
H1736 H 0.6068 0.79818 0.18826 0.0
H1737 H 0.60308 0.82952 0.16315 0.0
C1738 C 0.56696 0.83438 0.17084 0.0
C1739 C 0.54692 0.83481 0.17677 0.0
C1740 C 0.56904 0.81611 0.18434 0.0
C1741 C 0.52901 0.81651 0.19659 0.0
C1742 C 0.53097 0.79831 0.21017 0.0
C1743 C 0.55314 0.77987 0.21849 0.0
C1744 C 0.5733 0.77962 0.21313 0.0
C1745 C 0.55093 0.79796 0.20435 0.0
C1746 C 0.59106 0.7977 0.1926 0.0
C1747 C 0.58898 0.81575 0.17845 0.0
H1748 H 0.22678 0.78108 0.28224 0.0
H1749 H 0.25054 0.80664 0.16023 0.0
H1750 H 0.2258 0.76981 0.13137 0.0
H1751 H 0.19605 0.73065 0.14001 0.0
H1752 H 0.17051 0.7059 0.26167 0.0
H1753 H 0.19749 0.74183 0.29102 0.0
C1754 C 0.22654 0.77877 0.2493 0.0
C1755 C 0.24063 0.79699 0.22368 0.0
C1756 C 0.21194 0.75748 0.23263 0.0
C1757 C 0.24019 0.79317 0.18105 0.0
C1758 C 0.22588 0.77202 0.16436 0.0
C1759 C 0.19626 0.73303 0.17297 0.0
C1760 C 0.181 0.71527 0.19832 0.0
C1761 C 0.21148 0.75409 0.18978 0.0
C1762 C 0.18211 0.71886 0.24111 0.0
C1763 C 0.19743 0.73961 0.25803 0.0
H1764 H 0.2163 0.2125 0.21145 0.0
H1765 H 0.28772 0.24077 0.20948 0.0
H1766 H 0.29 0.25415 0.28018 0.0
H1767 H 0.27155 0.25642 0.34445 0.0
H1768 H 0.20057 0.23103 0.34463 0.0
H1769 H 0.19833 0.21827 0.2734 0.0
C1770 C 0.23242 0.22165 0.22636 0.0
C1771 C 0.25184 0.22524 0.20471 0.0
C1772 C 0.23368 0.22992 0.26707 0.0
C1773 C 0.2725 0.23757 0.22484 0.0
C1774 C 0.27379 0.24523 0.26554 0.0
C1775 C 0.25557 0.24834 0.32881 0.0
C1776 C 0.2362 0.24477 0.35055 0.0
C1777 C 0.25449 0.24133 0.28723 0.0
C1778 C 0.21579 0.23432 0.32915 0.0
C1779 C 0.2145 0.22682 0.28828 0.0
H1780 H 0.82051 0.03127 0.22841 0.0
H1781 H 0.7593 0.02491 0.18151 0.0
H1782 H 0.7401 1.00616 0.24528 0.0
H1783 H 0.74024 0.99083 0.31514 0.0
H1784 H 0.80182 0.99792 0.36181 0.0
H1785 H 0.8209 0.01687 0.29833 0.0
C1786 C 0.80297 0.02595 0.23194 0.0
C1787 C 0.79161 0.0298 0.19916 0.0
C1788 C 0.79189 0.01508 0.26924 0.0
C1789 C 0.76879 0.02249 0.2054 0.0
C1790 C 0.75769 0.01162 0.2422 0.0
C1791 C 0.75785 0.99646 0.31161 0.0
C1792 C 0.76935 0.99263 0.34423 0.0
C1793 C 0.76898 1.00767 0.27445 0.0
C1794 C 0.79228 1.00043 0.33816 0.0
C1795 C 0.80329 0.01134 0.30147 0.0
H1796 H 0.98894 0.79871 0.23102 0.0
H1797 H 1.00757 0.75047 0.19366 0.0
H1798 H 0.02672 0.75519 0.25981 0.0
H1799 H 0.03983 0.77464 0.32935 0.0
H1800 H 0.02 0.82272 0.36288 0.0
H1801 H 1.00006 0.81627 0.29868 0.0
C1802 C 0.99703 0.78901 0.23706 0.0
C1803 C 0.99655 0.7742 0.20633 0.0
C1804 C 1.00812 0.79186 0.27539 0.0
C1805 C 1.00736 0.76198 0.21595 0.0
C1806 C 0.01846 0.76475 0.25416 0.0
C1807 C 0.03095 0.78351 0.32287 0.0
C1808 C 0.0319 0.79945 0.35201 0.0
C1809 C 0.01919 0.77983 0.2844 0.0
C1810 C 0.02014 0.81063 0.34185 0.0
C1811 C 1.00853 0.80693 0.3047 0.0
H1812 H 0.76632 0.74009 0.73187 0.0
H1813 H 0.82085 0.80236 0.68711 0.0
H1814 H 0.8204 0.82081 0.75096 0.0
H1815 H 0.80504 0.81968 0.82068 0.0
H1816 H 0.75003 0.75777 0.86544 0.0
H1817 H 0.75027 0.73919 0.80143 0.0
C1818 C 0.77819 0.75771 0.73589 0.0
C1819 C 0.79368 0.7696 0.70367 0.0
C1820 C 0.77775 0.76848 0.77325 0.0
C1821 C 0.80865 0.79253 0.71039 0.0
C1822 C 0.80842 0.80319 0.74731 0.0
C1823 C 0.79293 0.80212 0.81662 0.0
C1824 C 0.77749 0.79036 0.84893 0.0
C1825 C 0.79309 0.7914 0.77911 0.0
C1826 C 0.76212 0.76754 0.842 0.0
C1827 C 0.76229 0.7568 0.80503 0.0
H1828 H 0.28713 0.03574 0.73479 0.0
H1829 H 0.22279 1.01083 0.67745 0.0
H1830 H 0.20446 0.99072 0.7403 0.0
H1831 H 0.20602 0.98005 0.81277 0.0
H1832 H 0.27012 1.00369 0.8702 0.0
H1833 H 0.28872 0.02391 0.80712 0.0
C1834 C 0.26907 0.02594 0.7358 0.0
C1835 C 0.2566 0.02536 0.70035 0.0
C1836 C 0.25836 0.01392 0.77269 0.0
C1837 C 0.23315 0.01217 0.70334 0.0
C1838 C 0.22253 1.00046 0.7397 0.0
C1839 C 0.2241 0.98953 0.81174 0.0
C1840 C 0.23641 0.99007 0.84731 0.0
C1841 C 0.23486 1.0012 0.77476 0.0
C1842 C 0.2599 1.00263 0.84418 0.0
C1843 C 0.27064 0.01436 0.80774 0.0
H1844 H 0.99471 0.26383 0.73566 0.0
H1845 H 0.99518 0.2049 0.69336 0.0
H1846 H 1.01477 0.20483 0.75581 0.0
H1847 H 0.03177 0.22103 0.82353 0.0
H1848 H 0.03157 0.27995 0.86657 0.0
H1849 H 1.01214 0.28033 0.80379 0.0
C1850 C 0.99901 0.25088 0.73994 0.0
C1851 C 0.99326 0.23439 0.70868 0.0
C1852 C 1.01052 0.25092 0.77662 0.0
C1853 C 0.99932 0.21797 0.71576 0.0
C1854 C 1.01057 0.21788 0.75192 0.0
C1855 C 0.02767 0.23413 0.81936 0.0
C1856 C 0.03349 0.25053 0.85074 0.0
C1857 C 0.01634 0.23425 0.78268 0.0
C1858 C 0.02763 0.26711 0.84375 0.0
C1859 C 0.01637 0.2673 0.80752 0.0
H1860 H 0.88334 0.5396 0.54622 0.0
H1861 H 0.95375 0.58721 0.54703 0.0
H1862 H 0.95 0.59971 0.61625 0.0
H1863 H 0.92603 0.59602 0.67938 0.0
H1864 H 0.85526 0.54866 0.67157 0.0
H1865 H 0.86006 0.53767 0.60389 0.0
C1866 C 0.89805 0.55276 0.5612 0.0
C1867 C 0.91891 0.5621 0.54065 0.0
C1868 C 0.89568 0.56008 0.6008 0.0
C1869 C 0.93743 0.57946 0.56134 0.0
C1870 C 0.93524 0.58662 0.60133 0.0
C1871 C 0.91162 0.58346 0.66281 0.0
C1872 C 0.89017 0.57321 0.68231 0.0
C1873 C 0.91437 0.57696 0.62189 0.0
C1874 C 0.87202 0.55695 0.65906 0.0
C1875 C 0.87468 0.55049 0.61964 0.0
H1876 H 0.42365 0.35227 0.55538 0.0
H1877 H 0.49304 0.3745 0.53197 0.0
H1878 H 0.49605 0.361 0.60028 0.0
H1879 H 0.47861 0.34135 0.66634 0.0
H1880 H 0.40943 0.32018 0.68984 0.0
H1881 H 0.40684 0.33462 0.62245 0.0
C1882 C 0.4396 0.35444 0.56512 0.0
C1883 C 0.45815 0.36465 0.53763 0.0
C1884 C 0.44119 0.34651 0.60479 0.0
C1885 C 0.4785 0.36707 0.55178 0.0
C1886 C 0.48016 0.35913 0.59105 0.0
C1887 C 0.46288 0.33982 0.65691 0.0
C1888 C 0.44411 0.32922 0.6839 0.0
C1889 C 0.46156 0.34855 0.61776 0.0
C1890 C 0.42414 0.32792 0.67044 0.0
C1891 C 0.42266 0.33628 0.6316 0.0
H1892 H 0.71353 0.10993 0.6507 0.0
H1893 H 0.6826 0.14743 0.69197 0.0
H1894 H 0.66107 0.13847 0.629 0.0
H1895 H 0.65196 0.12228 0.56 0.0
H1896 H 0.68157 0.08445 0.51483 0.0
H1897 H 0.70201 0.09098 0.5802 0.0
C1898 C 0.70182 0.11582 0.64627 0.0
C1899 C 0.70003 0.12957 0.6772 0.0
C1900 C 0.68914 0.11067 0.60852 0.0
C1901 C 0.68473 0.13704 0.66957 0.0
C1902 C 0.67227 0.13191 0.63313 0.0
C1903 C 0.6627 0.11518 0.56421 0.0
C1904 C 0.66489 0.10275 0.53153 0.0
C1905 C 0.67452 0.11911 0.60202 0.0
C1906 C 0.67909 0.09388 0.53879 0.0
C1907 C 0.691 0.09778 0.57648 0.0
H1908 H 0.47381 0.11812 0.19425 0.0
H1909 H 0.414 0.12162 0.17577 0.0
H1910 H 0.41491 0.1142 0.10201 0.0
H1911 H 0.43492 0.11019 0.04079 0.0
H1912 H 0.49316 0.10405 0.06065 0.0
H1913 H 0.49053 0.10866 0.1349 0.0
C1914 C 0.46065 0.1168 0.1743 0.0
C1915 C 0.44375 0.12046 0.19131 0.0
C1916 C 0.46108 0.11206 0.13164 0.0
C1917 C 0.42702 0.11868 0.16436 0.0
C1918 C 0.42768 0.11458 0.12183 0.0
C1919 C 0.44663 0.10911 0.06147 0.0
C1920 C 0.46403 0.10623 0.04448 0.0
C1921 C 0.44486 0.11163 0.1048 0.0
C1922 C 0.47929 0.10556 0.07225 0.0
C1923 C 0.47791 0.10851 0.11496 0.0
H1924 H 0.88796 0.33997 0.04497 0.0
H1925 H 0.95714 0.39165 0.04852 0.0
H1926 H 0.9591 0.38307 0.12119 0.0
H1927 H 0.94065 0.36227 0.18559 0.0
H1928 H 0.87262 0.30807 0.18075 0.0
H1929 H 0.87081 0.31606 0.10758 0.0
C1930 C 0.90358 0.34929 0.06146 0.0
C1931 C 0.92239 0.36676 0.04057 0.0
C1932 C 0.90476 0.34376 0.10349 0.0
C1933 C 0.94241 0.37823 0.06301 0.0
C1934 C 0.94349 0.37332 0.10492 0.0
C1935 C 0.92547 0.35186 0.16851 0.0
C1936 C 0.90675 0.3344 0.18955 0.0
C1937 C 0.92473 0.3563 0.12576 0.0
C1938 C 0.88737 0.32137 0.16609 0.0
C1939 C 0.88631 0.32611 0.12401 0.0
H1940 H 0.67661 0.54487 0.0569 0.0
H1941 H 0.6554 0.5926 0.03023 0.0
H1942 H 0.67108 0.61135 0.09576 0.0
H1943 H 0.69016 0.61406 0.16198 0.0
H1944 H 0.71247 0.5672 0.18851 0.0
H1945 H 0.69737 0.54868 0.1223 0.0
C1946 C 0.6753 0.55935 0.06528 0.0
C1947 C 0.66434 0.56694 0.0379 0.0
C1948 C 0.68476 0.57041 0.10338 0.0
C1949 C 0.66337 0.58603 0.04997 0.0
C1950 C 0.67246 0.59686 0.08775 0.0
C1951 C 0.69196 0.59988 0.15342 0.0
C1952 C 0.70271 0.59226 0.18119 0.0
C1953 C 0.68312 0.5892 0.11489 0.0
C1954 C 0.70462 0.57378 0.1685 0.0
C1955 C 0.69577 0.56303 0.13041 0.0
H1956 H 0.58878 0.92513 1.00266 0.0
H1957 H 0.51722 0.89021 0.98642 0.0
H1958 H 0.52128 0.88007 0.91714 0.0
H1959 H 0.54406 0.87867 0.86104 0.0
H1960 H 0.61567 0.91437 0.87126 0.0
H1961 H 0.61266 0.92645 0.94127 0.0
C1962 C 0.5741 0.91567 0.98377 0.0
C1963 C 0.55254 0.90846 1.00115 0.0
C1964 C 0.57649 0.90966 0.94229 0.0
C1965 C 0.53399 0.89601 0.97522 0.0
C1966 C 0.53625 0.89006 0.93505 0.0
C1967 C 0.55917 0.88919 0.87827 0.0
C1968 C 0.58011 0.89524 0.86015 0.0
C1969 C 0.55728 0.89636 0.91836 0.0
C1970 C 0.59927 0.90925 0.88365 0.0
C1971 C 0.5975 0.91615 0.92408 0.0
H1972 H 0.14796 0.67233 1.00613 0.0
H1973 H 0.0771 0.64695 1.00276 0.0
H1974 H 0.08108 0.66431 0.93454 0.0
H1975 H 0.10541 0.68646 0.87308 0.0
H1976 H 0.17658 0.7128 0.8836 0.0
H1977 H 0.17156 0.69565 0.95015 0.0
C1978 C 0.13321 0.67043 0.99074 0.0
C1979 C 0.11215 0.65782 1.01023 0.0
C1980 C 0.13571 0.68086 0.9518 0.0
C1981 C 0.09357 0.65628 0.98917 0.0
C1982 C 0.09589 0.6663 0.94978 0.0
C1983 C 0.11985 0.68867 0.89002 0.0
C1984 C 0.1415 0.7011 0.8716 0.0
C1985 C 0.11696 0.67865 0.93029 0.0
C1986 C 0.15968 0.70341 0.8953 0.0
C1987 C 0.15689 0.69349 0.93405 0.0
H1988 H 0.38056 0.44262 0.98116 0.0
H1989 H 0.34341 0.47096 0.03573 0.0
H1990 H 0.32074 0.46244 0.97421 0.0
H1991 H 0.31233 0.44942 0.90284 0.0
H1992 H 0.34808 0.42059 0.84515 0.0
H1993 H 0.36979 0.42658 0.90862 0.0
C1994 C 0.36722 0.4465 0.97996 0.0
C1995 C 0.36392 0.45748 1.01421 0.0
C1996 C 0.35391 0.44167 0.94315 0.0
C1997 C 0.3466 0.46256 1.01074 0.0
C1998 C 0.33352 0.45774 0.97514 0.0
C1999 C 0.32472 0.44419 0.90392 0.0
C2000 C 0.32829 0.43451 0.86828 0.0
C2001 C 0.3372 0.44771 0.94079 0.0
C2002 C 0.34457 0.42793 0.87144 0.0
C2003 C 0.35718 0.4315 0.90807 0.0
H2004 H 0.14245 0.47341 0.37609 0.0
H2005 H 0.1223 0.40343 0.37582 0.0
H2006 H 0.10977 0.40024 0.44751 0.0
H2007 H 0.1062 0.41778 0.51228 0.0
H2008 H 0.1233 0.48695 0.51044 0.0
H2009 H 0.135 0.48988 0.43841 0.0
C2010 C 0.13518 0.45736 0.39152 0.0
C2011 C 0.13367 0.43869 0.36993 0.0
C2012 C 0.1274 0.45551 0.43287 0.0
C2013 C 0.12381 0.41809 0.39093 0.0
C2014 C 0.11668 0.41631 0.43227 0.0
C2015 C 0.11222 0.43349 0.49609 0.0
C2016 C 0.11381 0.45219 0.51773 0.0
C2017 C 0.1186 0.43494 0.45386 0.0
C2018 C 0.12161 0.47222 0.49539 0.0
C2019 C 0.1285 0.47392 0.45392 0.0
H2020 H 0.61044 0.67624 0.38066 0.0
H2021 H 0.5729 0.71005 0.3625 0.0
H2022 H 0.55633 0.69796 0.43112 0.0
H2023 H 0.55156 0.67687 0.49637 0.0
H2024 H 0.58972 0.64368 0.51446 0.0
H2025 H 0.60666 0.65631 0.4464 0.0
C2026 C 0.59873 0.68119 0.39154 0.0
C2027 C 0.59313 0.69427 0.36544 0.0
C2028 C 0.58912 0.67404 0.4314 0.0
C2029 C 0.57783 0.70024 0.38111 0.0
C2030 C 0.5682 0.69317 0.4206 0.0
C2031 C 0.56355 0.67227 0.48559 0.0
C2032 C 0.56902 0.65894 0.51132 0.0
C2033 C 0.57354 0.67988 0.44602 0.0
C2034 C 0.58488 0.65365 0.49608 0.0
C2035 C 0.59467 0.66096 0.45686 0.0
H2036 H 0.36428 0.88912 0.49091 0.0
H2037 H 0.36671 0.9508 0.52363 0.0
H2038 H 0.35035 0.95108 0.45684 0.0
H2039 H 0.33517 0.93389 0.38811 0.0
H2040 H 0.33226 0.87187 0.35636 0.0
H2041 H 0.34875 0.87178 0.4229 0.0
C2042 C 0.36135 0.90276 0.48367 0.0
C2043 C 0.36711 0.92006 0.51324 0.0
C2044 C 0.35167 0.90274 0.44479 0.0
C2045 C 0.36279 0.9373 0.50229 0.0
C2046 C 0.35331 0.93743 0.46376 0.0
C2047 C 0.33804 0.92024 0.39554 0.0
C2048 C 0.33224 0.90284 0.3661 0.0
C2049 C 0.34764 0.92025 0.43458 0.0
C2050 C 0.33636 0.88552 0.37739 0.0
C2051 C 0.34589 0.88547 0.41584 0.0
H2052 H 0.30179 0.22656 0.94445 0.0
H2053 H 0.3427 0.24607 0.05338 0.0
H2054 H 0.37639 0.26277 1.01093 0.0
H2055 H 0.39503 0.27367 0.94223 0.0
H2056 H 0.35407 0.25394 0.83335 0.0
H2057 H 0.32041 0.2358 0.87575 0.0
C2058 C 0.31804 0.23422 0.95904 0.0
C2059 C 0.31928 0.23479 1.00267 0.0
C2060 C 0.33773 0.24403 0.93408 0.0
C2061 C 0.34081 0.2451 1.02027 0.0
C2062 C 0.36028 0.25481 0.99581 0.0
C2063 C 0.37878 0.26519 0.92763 0.0
C2064 C 0.37751 0.26534 0.88402 0.0
C2065 C 0.35909 0.25464 0.95258 0.0
C2066 C 0.35598 0.25425 0.86643 0.0
C2067 C 0.33652 0.24382 0.89087 0.0
H2068 H 0.77106 0.1069 0.85087 0.0
H2069 H 0.74569 0.1355 0.93854 0.0
H2070 H 0.75899 0.12206 0.99514 0.0
H2071 H 0.77686 0.10073 1.0214 0.0
H2072 H 0.80311 0.07296 0.93379 0.0
H2073 H 0.79077 0.08735 0.87715 0.0
C2074 C 0.76861 0.11043 0.8823 0.0
C2075 C 0.75722 0.12244 0.88964 0.0
C2076 C 0.77651 0.10259 0.91551 0.0
C2077 C 0.75433 0.12651 0.93113 0.0
C2078 C 0.76195 0.1187 0.96392 0.0
C2079 C 0.78011 0.09798 0.98997 0.0
C2080 C 0.79111 0.08559 0.98265 0.0
C2081 C 0.77293 0.10652 0.95676 0.0
C2082 C 0.79488 0.08236 0.94117 0.0
C2083 C 0.7877 0.0906 0.90836 0.0
H2084 H 0.94732 0.72254 0.94595 0.0
H2085 H 0.92742 0.68086 0.05414 0.0
H2086 H 0.90928 0.6474 1.01109 0.0
H2087 H 0.89984 0.6292 0.94196 0.0
H2088 H 0.91994 0.67091 0.8338 0.0
H2089 H 0.93674 0.70437 0.87692 0.0
C2090 C 0.93885 0.70617 0.96028 0.0
C2091 C 0.9389 0.70464 1.00389 0.0
C2092 C 0.92835 0.68663 0.93495 0.0
C2093 C 0.92781 0.68297 1.0211 0.0
C2094 C 0.91738 0.66364 0.99627 0.0
C2095 C 0.90766 0.64558 0.92767 0.0
C2096 C 0.90831 0.64711 0.88403 0.0
C2097 C 0.91761 0.66513 0.95304 0.0
C2098 C 0.91889 0.6688 0.86687 0.0
C2099 C 0.92865 0.68813 0.89173 0.0
H2100 H 0.27364 0.38734 0.60661 0.0
H2101 H 0.25869 0.34573 0.71428 0.0
H2102 H 0.23982 0.31229 0.6717 0.0
H2103 H 0.22841 0.29398 0.6033 0.0
H2104 H 0.24294 0.33496 0.49502 0.0
H2105 H 0.26057 0.36872 0.53773 0.0
C2106 C 0.26608 0.37099 0.62093 0.0
C2107 C 0.26782 0.36954 0.66436 0.0
C2108 C 0.25501 0.35132 0.59577 0.0
C2109 C 0.25784 0.34785 0.68146 0.0
C2110 C 0.24696 0.32849 0.65688 0.0
C2111 C 0.23515 0.31025 0.58887 0.0
C2112 C 0.23396 0.31148 0.54536 0.0
C2113 C 0.24553 0.32989 0.61392 0.0
C2114 C 0.24321 0.33306 0.52803 0.0
C2115 C 0.25349 0.35256 0.55266 0.0
H2116 H 0.72525 0.93794 0.59919 0.0
H2117 H 0.68509 0.92491 0.49039 0.0
H2118 H 0.65112 0.9071 0.53245 0.0
H2119 H 0.63222 0.89618 0.60128 0.0
H2120 H 0.67281 0.90971 0.70973 0.0
H2121 H 0.70646 0.9259 0.66726 0.0
C2122 C 0.70909 0.93105 0.58444 0.0
C2123 C 0.70814 0.93291 0.54103 0.0
C2124 C 0.68933 0.92077 0.60916 0.0
C2125 C 0.68674 0.92384 0.5233 0.0
C2126 C 0.66713 0.91361 0.54757 0.0
C2127 C 0.64838 0.90239 0.61571 0.0
C2128 C 0.64954 0.90139 0.65931 0.0
C2129 C 0.6681 0.91206 0.5907 0.0
C2130 C 0.67097 0.90995 0.6767 0.0
C2131 C 0.69042 0.91937 0.65222 0.0
H2132 H 0.13171 0.74685 0.6108 0.0
H2133 H 0.1122 0.76914 0.71864 0.0
H2134 H 0.09633 0.78663 0.67527 0.0
H2135 H 0.08642 0.79484 0.60611 0.0
H2136 H 0.10554 0.77225 0.49819 0.0
H2137 H 0.12283 0.75612 0.54148 0.0
C2138 C 0.1242 0.75571 0.62496 0.0
C2139 C 0.12345 0.75654 0.66862 0.0
C2140 C 0.11478 0.76581 0.59943 0.0
C2141 C 0.11331 0.76808 0.68559 0.0
C2142 C 0.10409 0.77815 0.66058 0.0
C2143 C 0.09455 0.78661 0.59188 0.0
C2144 C 0.09456 0.78507 0.54826 0.0
C2145 C 0.10451 0.77704 0.61736 0.0
C2146 C 0.10515 0.77399 0.53122 0.0
C2147 C 0.11509 0.76461 0.5562 0.0
H2148 H 0.67516 0.76734 0.19336 0.0
H2149 H 0.62287 0.74218 0.10239 0.0
H2150 H 0.65056 0.75575 0.04747 0.0
H2151 H 0.69005 0.77343 1.02356 0.0
H2152 H 0.74256 0.79912 0.11402 0.0
H2153 H 0.71494 0.787 0.16921 0.0
C2154 C 0.66977 0.76513 0.16158 0.0
C2155 C 0.64653 0.75364 0.1528 0.0
C2156 C 0.6861 0.77304 0.12926 0.0
C2157 C 0.64035 0.75088 0.11088 0.0
C2158 C 0.65632 0.75864 0.07904 0.0
C2159 C 0.69554 0.77661 0.05528 0.0
C2160 C 0.71876 0.78737 0.06386 0.0
C2161 C 0.67932 0.76953 0.08759 0.0
C2162 C 0.72508 0.79105 0.1057 0.0
C2163 C 0.70914 0.78402 0.13767 0.0
H2164 H 0.23488 0.94232 0.11 0.0
H2165 H 0.25156 0.91794 1.00143 0.0
H2166 H 0.26777 0.90056 0.04404 0.0
H2167 H 0.2787 0.89292 0.11227 0.0
H2168 H 0.26296 0.91763 0.22138 0.0
H2169 H 0.24522 0.93384 0.17912 0.0
C2170 C 0.24181 0.93299 0.09557 0.0
C2171 C 0.24164 0.93153 0.05187 0.0
C2172 C 0.25156 0.92303 0.1207 0.0
C2173 C 0.25115 0.91949 0.03451 0.0
C2174 C 0.26057 0.90949 0.05907 0.0
C2175 C 0.27127 0.90169 0.12705 0.0
C2176 C 0.27229 0.90376 0.1706 0.0
C2177 C 0.2611 0.91124 0.10223 0.0
C2178 C 0.26253 0.91548 0.18836 0.0
C2179 C 0.25234 0.92487 0.16396 0.0
H2180 H 0.11495 0.35153 0.19422 0.0
H2181 H 0.14145 0.40451 0.10422 0.0
H2182 H 0.12734 0.37705 0.0488 0.0
H2183 H 0.10588 0.3375 1.02435 0.0
H2184 H 0.07994 0.28448 0.11425 0.0
H2185 H 0.09521 0.31191 0.16966 0.0
C2186 C 0.11791 0.35714 0.16253 0.0
C2187 C 0.12952 0.38048 0.15418 0.0
C2188 C 0.10961 0.34098 0.13002 0.0
C2189 C 0.1328 0.38695 0.11238 0.0
C2190 C 0.1246 0.37111 0.08028 0.0
C2191 C 0.10372 0.33186 0.056 0.0
C2192 C 0.09158 0.30854 0.06435 0.0
C2193 C 0.11274 0.348 0.08847 0.0
C2194 C 0.08912 0.30204 0.1061 0.0
C2195 C 0.09788 0.31787 0.13819 0.0
H2196 H 0.8056 0.72714 0.44715 0.0
H2197 H 0.77474 0.686 0.5538 0.0
H2198 H 0.75913 0.65243 0.51074 0.0
H2199 H 0.75275 0.63419 0.44174 0.0
H2200 H 0.78389 0.67539 0.33526 0.0
H2201 H 0.80064 0.70879 0.37871 0.0
C2202 C 0.79563 0.71085 0.46123 0.0
C2203 C 0.79159 0.70953 0.5044 0.0
C2204 C 0.78656 0.69128 0.43591 0.0
C2205 C 0.77842 0.68795 0.5212 0.0
C2206 C 0.76936 0.66857 0.49632 0.0
C2207 C 0.76344 0.65041 0.42792 0.0
C2208 C 0.767 0.65181 0.38458 0.0
C2209 C 0.77313 0.66992 0.45349 0.0
C2210 C 0.78081 0.67334 0.36805 0.0
C2211 C 0.79039 0.69264 0.39311 0.0
H2212 H 0.33986 0.09456 0.53405 0.0
H2213 H 0.28828 0.07592 0.44286 0.0
H2214 H 0.31619 0.09075 0.38857 0.0
H2215 H 0.35563 0.10806 0.36482 0.0
H2216 H 0.40758 0.128 0.45548 0.0
H2217 H 0.37976 0.11408 0.51039 0.0
C2218 C 0.33468 0.0939 0.50241 0.0
C2219 C 0.31154 0.0839 0.49342 0.0
C2220 C 0.35117 0.10282 0.47036 0.0
C2221 C 0.30566 0.08339 0.45163 0.0
C2222 C 0.32177 0.09192 0.42007 0.0
C2223 C 0.36097 0.10965 0.39656 0.0
C2224 C 0.38408 0.11933 0.40523 0.0
C2225 C 0.34463 0.10156 0.42875 0.0
C2226 C 0.39018 0.12088 0.44709 0.0
C2227 C 0.37413 0.11276 0.47891 0.0
H2228 H 0.90163 0.27997 0.44765 0.0
H2229 H 0.9186 0.2558 0.33918 0.0
H2230 H 0.93385 0.23752 0.38215 0.0
H2231 H 0.94358 0.22877 0.45102 0.0
H2232 H 0.92723 0.25333 0.55966 0.0
H2233 H 0.91083 0.27063 0.51683 0.0
C2234 C 0.90849 0.27057 0.43324 0.0
C2235 C 0.90865 0.26941 0.38947 0.0
C2236 C 0.91757 0.26002 0.45857 0.0
C2237 C 0.91796 0.25715 0.37226 0.0
C2238 C 0.92681 0.24662 0.39706 0.0
C2239 C 0.93629 0.23774 0.46556 0.0
C2240 C 0.93675 0.2394 0.50926 0.0
C2241 C 0.92687 0.24797 0.44034 0.0
C2242 C 0.92724 0.25145 0.52661 0.0
C2243 C 0.91781 0.26148 0.50187 0.0
H2244 H 0.06052 0.60598 0.26997 0.0
H2245 H 0.0173 0.5855 0.16416 0.0
H2246 H 0.98453 0.56801 0.20911 0.0
H2247 H 0.9674 0.55946 0.27939 0.0
H2248 H 1.01079 0.58007 0.38501 0.0
H2249 H 0.04345 0.59607 0.33995 0.0
C2250 C 0.04396 0.59751 0.25656 0.0
C2251 C 0.0418 0.59722 0.21304 0.0
C2252 C 0.02484 0.58737 0.28299 0.0
C2253 C 0.0199 0.58613 0.19707 0.0
C2254 C 1.00096 0.57608 0.22301 0.0
C2255 C 0.98397 0.56719 0.29269 0.0
C2256 C 0.9862 0.56824 0.33626 0.0
C2257 C 1.00309 0.57668 0.26616 0.0
C2258 C 1.00812 0.5787 0.35209 0.0
C2259 C 0.02701 0.58802 0.3261 0.0
H2260 H 0.43915 0.43558 0.1865 0.0
H2261 H 0.41327 0.46443 0.27255 0.0
H2262 H 0.42887 0.45384 0.32972 0.0
H2263 H 0.44894 0.43484 0.3573 0.0
H2264 H 0.47534 0.40659 0.27102 0.0
H2265 H 0.46093 0.41841 0.2138 0.0
C2266 C 0.43703 0.43975 0.21766 0.0
C2267 C 0.42479 0.45096 0.22432 0.0
C2268 C 0.4463 0.43359 0.25129 0.0
C2269 C 0.42247 0.45594 0.26557 0.0
C2270 C 0.43145 0.44981 0.29875 0.0
C2271 C 0.45189 0.43155 0.32602 0.0
C2272 C 0.46354 0.41973 0.31935 0.0
C2273 C 0.44332 0.43845 0.29231 0.0
C2274 C 0.46665 0.41559 0.27799 0.0
C2275 C 0.45827 0.42234 0.24479 0.0
H2276 H 0.59564 0.01285 0.35294 0.0
H2277 H 0.61978 0.06755 0.2668 0.0
H2278 H 0.60487 0.0412 0.20967 0.0
H2279 H 0.58561 1.00203 0.18229 0.0
H2280 H 0.5607 0.94743 0.26883 0.0
H2281 H 0.57488 0.97378 0.32586 0.0
C2282 C 0.59752 0.01909 0.32176 0.0
C2283 C 0.60903 0.04259 0.31506 0.0
C2284 C 0.58865 1.00358 0.28822 0.0
C2285 C 0.61109 0.04984 0.2738 0.0
C2286 C 0.60254 0.03463 0.24067 0.0
C2287 C 0.58307 0.99581 0.21358 0.0
C2288 C 0.57183 0.97231 0.22036 0.0
C2289 C 0.59135 0.01136 0.24719 0.0
C2290 C 0.56906 0.96511 0.26175 0.0
C2291 C 0.5773 0.98033 0.29484 0.0
H2292 H 0.4667 0.06075 0.78122 0.0
H2293 H 0.45232 0.01826 0.88732 0.0
H2294 H 0.43555 0.98519 0.84297 0.0
H2295 H 0.42303 0.96755 0.77346 0.0
H2296 H 0.43817 1.01041 0.66761 0.0
H2297 H 0.45626 0.04335 0.71175 0.0
C2298 C 0.4602 0.04431 0.79479 0.0
C2299 C 0.4611 0.04243 0.83823 0.0
C2300 C 0.45039 0.02504 0.76874 0.0
C2301 C 0.45223 0.02065 0.85443 0.0
C2302 C 0.44244 1.00154 0.82885 0.0
C2303 C 0.43048 0.98407 0.75985 0.0
C2304 C 0.42902 0.98605 0.71652 0.0
C2305 C 0.44114 1.00338 0.78587 0.0
C2306 C 0.43887 1.00792 0.70033 0.0
C2307 C 0.44927 0.02697 0.72581 0.0
H2308 H 0.97212 0.41593 0.7774 0.0
H2309 H 1.01363 0.43613 0.88558 0.0
H2310 H 0.04706 0.45371 0.84249 0.0
H2311 H 0.0654 0.46256 0.77346 0.0
H2312 H 0.02414 0.44292 0.66504 0.0
H2313 H 0.99057 0.42644 0.7081 0.0
C2314 C 0.98844 0.42436 0.79173 0.0
C2315 C 0.98986 0.4245 0.83547 0.0
C2316 C 1.00806 0.43469 0.7663 0.0
C2317 C 1.01152 0.43557 0.85254 0.0
C2318 C 0.03087 0.44569 0.82765 0.0
C2319 C 0.0491 0.45492 0.75905 0.0
C2320 C 0.04778 0.45432 0.71532 0.0
C2321 C 0.02949 0.44527 0.7844 0.0
C2322 C 0.02615 0.444 0.69812 0.0
C2323 C 1.00674 0.43439 0.72299 0.0
H2324 H 0.5635 0.60641 0.77122 0.0
H2325 H 0.581 0.58162 0.66429 0.0
H2326 H 0.59784 0.5653 0.70825 0.0
H2327 H 0.60948 0.55914 0.77769 0.0
H2328 H 0.59145 0.58355 0.88453 0.0
H2329 H 0.57328 0.59848 0.8407 0.0
C2330 C 0.57071 0.59719 0.75739 0.0
C2331 C 0.57065 0.59536 0.71382 0.0
C2332 C 0.5806 0.5877 0.78324 0.0
C2333 C 0.58044 0.58339 0.69728 0.0
C2334 C 0.59027 0.57404 0.72263 0.0
C2335 C 0.60139 0.56751 0.79157 0.0
C2336 C 0.60205 0.56998 0.83507 0.0
C2337 C 0.59072 0.57622 0.76576 0.0
C2338 C 0.59139 0.58112 0.85164 0.0
C2339 C 0.58093 0.58981 0.82635 0.0
H2340 H 0.30855 0.36289 0.18631 0.0
H2341 H 0.32335 0.39724 0.06987 0.0
H2342 H 0.30212 0.36172 0.03391 0.0
H2343 H 0.28713 0.32145 0.03544 0.0
H2344 H 0.27272 0.28688 0.15183 0.0
H2345 H 0.2858 0.32203 0.18826 0.0
C2346 C 0.30644 0.36255 0.15324 0.0
C2347 C 0.31808 0.38229 0.13046 0.0
C2348 C 0.29476 0.34212 0.13285 0.0
C2349 C 0.31513 0.38195 0.08768 0.0
C2350 C 0.303 0.36173 0.06719 0.0
C2351 C 0.28621 0.32149 0.06868 0.0
C2352 C 0.28001 0.30188 0.09094 0.0
C2353 C 0.29397 0.3417 0.08935 0.0
C2354 C 0.27853 0.30205 0.13406 0.0
C2355 C 0.28581 0.32208 0.15493 0.0
H2356 H 0.6576 0.94632 0.16767 0.0
H2357 H 0.62426 0.93449 0.05062 0.0
H2358 H 0.66004 0.95046 1.01499 0.0
H2359 H 0.70081 0.97348 1.01852 0.0
H2360 H 0.73384 0.98586 0.13589 0.0
H2361 H 0.69802 0.96343 0.17029 0.0
C2362 C 0.6581 0.94664 0.13437 0.0
C2363 C 0.63854 0.93996 0.11182 0.0
C2364 C 0.67863 0.95613 0.11431 0.0
C2365 C 0.63932 0.94035 0.06863 0.0
C2366 C 0.65971 0.94934 0.04826 0.0
C2367 C 0.70011 0.9707 0.05143 0.0
C2368 C 0.71959 0.98172 0.07493 0.0
C2369 C 0.67951 0.95822 0.07095 0.0
C2370 C 0.71877 0.97804 0.11753 0.0
C2371 C 0.69838 0.96519 0.13713 0.0
H2372 H 0.07842 0.71881 0.18097 0.0
H2373 H 0.09265 0.69889 0.0643 0.0
H2374 H 0.08099 0.72223 0.02825 0.0
H2375 H 0.05853 0.74043 0.03046 0.0
H2376 H 0.0439 0.75998 0.14704 0.0
H2377 H 0.06474 0.74523 0.18283 0.0
C2378 C 0.07966 0.72013 0.14777 0.0
C2379 C 0.0852 0.70632 0.12522 0.0
C2380 C 0.07267 0.7333 0.1273 0.0
C2381 C 0.08723 0.70851 0.08221 0.0
C2382 C 0.08077 0.72199 0.06157 0.0
C2383 C 0.06059 0.7422 0.06352 0.0
C2384 C 0.04886 0.75016 0.08635 0.0
C2385 C 0.07209 0.73324 0.08381 0.0
C2386 C 0.05198 0.75284 0.12911 0.0
C2387 C 0.06393 0.74451 0.14954 0.0
H2388 H 0.32471 0.33205 0.49916 0.0
H2389 H 0.29245 0.29509 0.38945 0.0
H2390 H 0.32735 0.31516 0.35121 0.0
H2391 H 0.36809 0.33769 0.35337 0.0
H2392 H 0.40044 0.37282 0.46478 0.0
H2393 H 0.36454 0.35984 0.49747 0.0
C2394 C 0.32543 0.32877 0.46675 0.0
C2395 C 0.30654 0.31195 0.44721 0.0
C2396 C 0.34552 0.34004 0.44531 0.0
C2397 C 0.30708 0.30799 0.40498 0.0
C2398 C 0.32697 0.31935 0.3832 0.0
C2399 C 0.36714 0.34281 0.38447 0.0
C2400 C 0.38671 0.35552 0.40696 0.0
C2401 C 0.34648 0.3346 0.40366 0.0
C2402 C 0.38555 0.36282 0.44681 0.0
C2403 C 0.36502 0.35522 0.46579 0.0
H2404 H 0.75637 0.03834 0.41537 0.0
H2405 H 0.74006 0.04678 0.53983 0.0
H2406 H 0.72413 0.06899 0.51508 0.0
H2407 H 0.70926 0.08028 0.45789 0.0
H2408 H 0.72088 0.06728 0.33326 0.0
H2409 H 0.74441 0.05269 0.35815 0.0
C2410 C 0.74933 0.04502 0.43709 0.0
C2411 C 0.74875 0.0403 0.47919 0.0
C2412 C 0.73918 0.05676 0.42255 0.0
C2413 C 0.74057 0.04998 0.50719 0.0
C2414 C 0.73128 0.06254 0.49306 0.0
C2415 C 0.71695 0.07424 0.43622 0.0
C2416 C 0.71287 0.07416 0.39402 0.0
C2417 C 0.72956 0.06506 0.45076 0.0
C2418 C 0.72369 0.06729 0.36599 0.0
C2419 C 0.737 0.05884 0.3802 0.0
H2420 H 0.95444 0.63403 0.46737 0.0
H2421 H 0.96802 0.65664 0.34135 0.0
H2422 H 0.98385 0.69526 0.36393 0.0
H2423 H 0.99686 0.72244 0.41952 0.0
H2424 H 0.98707 0.69998 0.54567 0.0
H2425 H 0.96632 0.6612 0.52296 0.0
C2426 C 0.96102 0.64741 0.44488 0.0
C2427 C 0.96047 0.6426 0.4029 0.0
C2428 C 0.9707 0.66949 0.45808 0.0
C2429 C 0.96826 0.65998 0.3739 0.0
C2430 C 0.97742 0.68204 0.38675 0.0
C2431 C 0.99032 0.70907 0.44203 0.0
C2432 C 0.99385 0.71399 0.48407 0.0
C2433 C 0.97922 0.68695 0.42879 0.0
C2434 C 0.98454 0.69657 0.51307 0.0
C2435 C 0.97284 0.67443 0.50013 0.0
H2436 H 0.74436 0.69778 1.0219 0.0
H2437 H 0.76476 0.73384 0.90725 0.0
H2438 H 0.74915 0.6988 0.86922 0.0
H2439 H 0.72259 0.65867 0.86886 0.0
H2440 H 0.70174 0.62254 0.98362 0.0
H2441 H 0.72492 0.65686 1.02161 0.0
C2442 C 0.74604 0.69788 0.98875 0.0
C2443 C 0.75473 0.71802 0.96711 0.0
C2444 C 0.73656 0.67774 0.9672 0.0
C2445 C 0.75722 0.71824 0.9242 0.0
C2446 C 0.74837 0.69829 0.90252 0.0
C2447 C 0.72365 0.65822 0.90206 0.0
C2448 C 0.70977 0.63848 0.92352 0.0
C2449 C 0.73678 0.67799 0.92365 0.0
C2450 C 0.7115 0.6379 0.96656 0.0
C2451 C 0.72488 0.65744 0.9883 0.0
H2452 H 0.37265 0.07237 0.89904 0.0
H2453 H 0.3934 0.04008 0.98822 0.0
H2454 H 0.36001 0.02958 0.02888 0.0
H2455 H 0.32284 0.02518 0.03365 0.0
H2456 H 0.29968 0.05241 0.93954 0.0
H2457 H 0.33639 0.06991 0.90606 0.0
C2458 C 0.36976 0.06285 0.92712 0.0
C2459 C 0.38517 0.05663 0.94029 0.0
C2460 C 0.35031 0.05633 0.94951 0.0
C2461 C 0.38167 0.04499 0.9775 0.0
C2462 C 0.36264 0.039 1.00073 0.0
C2463 C 0.3263 0.03569 1.0067 0.0
C2464 C 0.30917 0.03792 0.98888 0.0
C2465 C 0.34665 0.04414 0.98646 0.0
C2466 C 0.31309 0.05091 0.95348 0.0
C2467 C 0.33383 0.06055 0.93427 0.0
H2468 H 0.97705 0.28466 0.02565 0.0
H2469 H 0.99176 0.26383 0.91066 0.0
H2470 H 0.97165 0.27886 0.87317 0.0
H2471 H 0.95761 0.30491 0.87304 0.0
H2472 H 0.94303 0.32612 0.98799 0.0
H2473 H 0.95514 0.30366 0.02586 0.0
C2474 C 0.97515 0.28279 0.99257 0.0
C2475 C 0.98648 0.27412 0.97062 0.0
C2476 C 0.96406 0.29191 0.9713 0.0
C2477 C 0.9838 0.27136 0.92782 0.0
C2478 C 0.9723 0.27986 0.90645 0.0
C2479 C 0.95644 0.30411 0.90628 0.0
C2480 C 0.95049 0.31791 0.92772 0.0
C2481 C 0.96359 0.29137 0.92778 0.0
C2482 C 0.94868 0.31646 0.97084 0.0
C2483 C 0.9554 0.30348 0.99254 0.0
H2484 H 0.7107 0.71567 0.53365 0.0
H2485 H 0.73192 0.76918 0.62097 0.0
H2486 H 0.69552 0.74929 0.65574 0.0
H2487 H 0.6589 0.7156 0.66296 0.0
H2488 H 0.63983 0.66033 0.57953 0.0
H2489 H 0.67428 0.68199 0.54105 0.0
C2490 C 0.70695 0.72308 0.55963 0.0
C2491 C 0.72333 0.74379 0.57462 0.0
C2492 C 0.6867 0.71111 0.58029 0.0
C2493 C 0.71906 0.75327 0.609 0.0
C2494 C 0.69849 0.74186 0.62889 0.0
C2495 C 0.66239 0.70818 0.63673 0.0
C2496 C 0.64683 0.68643 0.62412 0.0
C2497 C 0.68241 0.72052 0.61532 0.0
C2498 C 0.65141 0.67718 0.58955 0.0
C2499 C 0.6711 0.6895 0.56756 0.0
H2500 H 0.32934 0.95112 0.58274 0.0
H2501 H 0.31506 0.96123 0.70771 0.0
H2502 H 0.28925 0.97279 0.68289 0.0
H2503 H 0.27391 0.98367 0.6261 0.0
H2504 H 0.2925 0.97874 0.50133 0.0
H2505 H 0.31296 0.96088 0.52577 0.0
C2506 C 0.32079 0.95603 0.60463 0.0
C2507 C 0.32449 0.95567 0.64701 0.0
C2508 C 0.30663 0.96348 0.59019 0.0
C2509 C 0.31256 0.9613 0.67491 0.0
C2510 C 0.29784 0.96802 0.66077 0.0
C2511 C 0.28253 0.97886 0.60416 0.0
C2512 C 0.28215 0.9832 0.56208 0.0
C2513 C 0.29527 0.96975 0.61849 0.0
C2514 C 0.29254 0.9758 0.53397 0.0
C2515 C 0.30447 0.96575 0.54792 0.0
H2516 H 0.0238 0.31523 0.53766 0.0
H2517 H 0.05737 0.29367 0.62141 0.0
H2518 H 0.07487 0.33016 0.65594 0.0
H2519 H 0.07808 0.36674 0.66445 0.0
H2520 H 0.04112 0.38662 0.58479 0.0
H2521 H 0.02722 0.352 0.54593 0.0
C2522 C 0.0355 0.31896 0.56271 0.0
C2523 C 0.0399 0.30246 0.57687 0.0
C2524 C 0.04433 0.33927 0.58335 0.0
C2525 C 0.05432 0.30666 0.61007 0.0
C2526 C 0.064 0.32725 0.62986 0.0
C2527 C 0.06671 0.36336 0.63902 0.0
C2528 C 0.06047 0.37906 0.62764 0.0
C2529 C 0.05859 0.34341 0.61738 0.0
C2530 C 0.04622 0.37477 0.59392 0.0
C2531 C 0.0383 0.35505 0.57173 0.0
H2532 H 0.0599 0.66059 0.80189 0.0
H2533 H 0.0381 0.65093 0.67545 0.0
H2534 H 0.99932 0.62934 0.69753 0.0
H2535 H 0.97184 0.61565 0.75268 0.0
H2536 H 0.99355 0.62837 0.87912 0.0
H2537 H 0.0324 0.64631 0.85709 0.0
C2538 C 0.04666 0.65392 0.77922 0.0
C2539 C 0.05176 0.65754 0.73726 0.0
C2540 C 0.02451 0.64213 0.79209 0.0
C2541 C 0.03454 0.64823 0.70801 0.0
C2542 C 1.01239 0.63603 0.72057 0.0
C2543 C 0.98507 0.62251 0.77537 0.0
C2544 C 0.97993 0.621 0.8173 0.0
C2545 C 1.00723 0.6333 0.76252 0.0
C2546 C 0.99715 0.62927 0.84658 0.0
C2547 C 0.01933 0.63965 0.83405 0.0
H2548 H 0.41392 0.36535 0.75203 0.0
H2549 H 0.40067 0.37779 0.87612 0.0
H2550 H 0.38618 0.40109 0.85009 0.0
H2551 H 0.37236 0.41306 0.79238 0.0
H2552 H 0.38041 0.39581 0.66858 0.0
H2553 H 0.40236 0.37957 0.69409 0.0
C2554 C 0.40775 0.37303 0.7734 0.0
C2555 C 0.40776 0.36934 0.81583 0.0
C2556 C 0.39855 0.3855 0.75823 0.0
C2557 C 0.40071 0.38027 0.84327 0.0
C2558 C 0.39231 0.39349 0.82844 0.0
C2559 C 0.37889 0.40571 0.77101 0.0
C2560 C 0.37423 0.40494 0.72893 0.0
C2561 C 0.39036 0.39542 0.78601 0.0
C2562 C 0.38366 0.3964 0.70122 0.0
C2563 C 0.39602 0.38696 0.7158 0.0
H2564 H 0.66705 0.05682 0.74505 0.0
H2565 H 0.65404 0.03374 0.87076 0.0
H2566 H 0.63367 0.995 0.84718 0.0
H2567 H 0.6218 0.96808 0.79096 0.0
H2568 H 0.63769 0.9914 0.66562 0.0
H2569 H 0.65487 0.03002 0.689 0.0
C2570 C 0.65995 0.04331 0.76728 0.0
C2571 C 0.66229 0.04798 0.80946 0.0
C2572 C 0.6489 0.02129 0.7536 0.0
C2573 C 0.65236 0.03043 0.83806 0.0
C2574 C 0.64088 1.00835 0.82464 0.0
C2575 C 0.62923 0.98161 0.76883 0.0
C2576 C 0.62876 0.97701 0.72677 0.0
C2577 C 0.63946 1.00365 0.78251 0.0
C2578 C 0.63779 0.99462 0.69819 0.0
C2579 C 0.64769 0.01665 0.71151 0.0
H2580 H 0.3728 0.04232 0.28277 0.0
H2581 H 0.42306 0.0354 0.34888 0.0
H2582 H 0.41206 1.00023 0.31369 0.0
H2583 H 0.38812 0.97171 0.2648 0.0
H2584 H 0.33684 0.97727 0.20014 0.0
H2585 H 0.34867 0.0135 0.23327 0.0
C2586 C 0.3813 0.03305 0.28923 0.0
C2587 C 0.39859 0.04118 0.31816 0.0
C2588 C 0.37502 0.01309 0.26873 0.0
C2589 C 0.40943 0.02911 0.3271 0.0
C2590 C 0.40336 1.00924 0.3067 0.0
C2591 C 0.37999 0.98122 0.25728 0.0
C2592 C 0.36213 0.97252 0.22966 0.0
C2593 C 0.38631 1.00122 0.27737 0.0
C2594 C 0.35092 0.98422 0.22099 0.0
C2595 C 0.35753 1.00464 0.24009 0.0
H2596 H 0.03761 0.39434 0.19771 0.0
H2597 H 0.07318 0.42013 0.31151 0.0
H2598 H 0.03799 0.40481 0.34911 0.0
H2599 H 0.99768 0.37991 0.35013 0.0
H2600 H 0.96216 0.35387 0.23609 0.0
H2601 H 0.99687 0.37346 0.19772 0.0
C2602 C 0.03752 0.39703 0.23053 0.0
C2603 C 0.05759 0.40772 0.25218 0.0
C2604 C 0.01739 0.38782 0.25182 0.0
C2605 C 0.05764 0.4113 0.29467 0.0
C2606 C 0.03764 0.40262 0.31606 0.0
C2607 C 0.99752 0.37885 0.31688 0.0
C2608 C 0.97759 0.3651 0.29607 0.0
C2609 C 0.01747 0.3901 0.29509 0.0
C2610 C 0.97749 0.36382 0.25291 0.0
C2611 C 0.99726 0.37517 0.23089 0.0
H2612 H 0.6596 0.69954 0.29133 0.0
H2613 H 0.66503 0.67974 0.16816 0.0
H2614 H 0.6916 0.66855 0.19198 0.0
H2615 H 0.70564 0.65681 0.24969 0.0
H2616 H 0.69518 0.67136 0.37381 0.0
H2617 H 0.67873 0.69319 0.34785 0.0
C2618 C 0.66722 0.69354 0.26945 0.0
C2619 C 0.66024 0.69005 0.22828 0.0
C2620 C 0.68136 0.68612 0.28378 0.0
C2621 C 0.66998 0.68209 0.20017 0.0
C2622 C 0.6851 0.67575 0.21377 0.0
C2623 C 0.70053 0.66546 0.27098 0.0
C2624 C 0.70114 0.66231 0.31347 0.0
C2625 C 0.68983 0.67652 0.25586 0.0
C2626 C 0.69443 0.67343 0.34095 0.0
C2627 C 0.68498 0.68574 0.32611 0.0
loop_
_geom_bond_atom_site_label_1
_geom_bond_atom_site_label_2
_geom_bond_distance
_geom_bond_site_symmetry_2
_ccdc_geom_bond_type
Co0 N4 2.148 . S
Co0 N10 2.128 . S
Co0 N20 2.194 . S
Co0 O25 2.351 1_554 S
Co0 O26 2.155 . S
Co0 O27 2.096 . S
C1 N4 1.301 . S
C1 N5 1.328 . S
C1 H6 0.930 1_554 S
C2 C3 1.333 . S
C2 N4 1.317 . S
C2 H7 0.930 . S
C3 C2 1.333 . S
C3 N5 1.350 . S
C3 H29 0.931 . S
N4 Co0 2.148 . S
N4 C1 1.301 . S
N4 C2 1.317 . S
N5 C1 1.328 . S
N5 C3 1.350 . S
H6 C1 0.930 1_556 S
H7 C2 0.930 . S
C8 O9 1.224 . S
C8 O27 1.247 . S
O9 C8 1.224 . S
N10 Co0 2.128 . S
N10 C11 1.355 . S
N10 C13 1.311 . S
C11 N10 1.355 . S
C11 C12 1.363 . S
C11 H23 0.952 . S
C12 C11 1.363 . S
C12 N14 1.375 . S
C12 H30 0.931 . S
C13 N10 1.311 . S
C13 N14 1.347 . S
C13 H24 0.929 . S
N14 C12 1.375 . S
N14 C13 1.347 . S
C15 C18 1.365 . S
C15 N20 1.328 1_556 S
C15 H21 0.929 . S
C16 C17 1.362 1_554 S
C16 C19 1.378 . S
C16 H31 0.929 . S
C17 C16 1.362 1_556 S
C17 C18 1.366 . S
C18 C15 1.365 . S
C18 C17 1.366 . S
C18 H32 0.930 . S
C19 C16 1.378 . S
C19 N20 1.315 . S
C19 H22 0.930 . S
N20 Co0 2.194 . S
N20 C15 1.328 1_554 S
N20 C19 1.315 . S
H21 C15 0.929 . S
H22 C19 0.930 . S
H23 C11 0.952 . S
H24 C13 0.929 . S
O25 Co0 2.351 1_556 S
O25 C28 1.244 . S
O26 Co0 2.155 . S
O26 C28 1.240 1_554 S
O27 Co0 2.096 . S
O27 C8 1.247 . S
C28 O25 1.244 . S
C28 O26 1.240 1_556 S
H29 C3 0.931 . S
H30 C12 0.931 . S
H31 C16 0.929 . S
H32 C18 0.930 . S
Co33 N37 2.148 . S
Co33 N43 2.128 1_545 S
Co33 N53 2.194 1_545 S
Co33 O58 2.351 1_554 S
Co33 O59 2.155 . S
Co33 O60 2.096 . S
C34 N37 1.301 . S
C34 N38 1.328 . S
C34 H39 0.930 1_554 S
C35 C36 1.333 . S
C35 N37 1.317 . S
C35 H40 0.930 . S
C36 C35 1.333 . S
C36 N38 1.350 . S
C36 H62 0.931 . S
N37 Co33 2.148 . S
N37 C34 1.301 . S
N37 C35 1.317 . S
N38 C34 1.328 . S
N38 C36 1.350 . S
H39 C34 0.930 1_556 S
H40 C35 0.930 . S
C41 O42 1.224 . S
C41 O60 1.247 . S
O42 C41 1.224 . S
N43 Co33 2.128 1_565 S
N43 C44 1.355 . S
N43 C46 1.311 . S
C44 N43 1.355 . S
C44 C45 1.363 . S
C44 H56 0.952 . S
C45 C44 1.363 . S
C45 N47 1.375 . S
C45 H63 0.931 . S
C46 N43 1.311 . S
C46 N47 1.347 . S
C46 H57 0.929 . S
N47 C45 1.375 . S
N47 C46 1.347 . S
C48 C51 1.365 . S
C48 N53 1.328 1_556 S
C48 H54 0.929 1_565 S
C49 C50 1.362 1_554 S
C49 C52 1.378 . S
C49 H64 0.929 . S
C50 C49 1.362 1_556 S
C50 C51 1.366 . S
C51 C48 1.365 . S
C51 C50 1.366 . S
C51 H65 0.930 . S
C52 C49 1.378 . S
C52 N53 1.315 . S
C52 H55 0.930 . S
N53 Co33 2.194 1_565 S
N53 C48 1.328 1_554 S
N53 C52 1.315 . S
H54 C48 0.929 1_545 S
H55 C52 0.930 . S
H56 C44 0.952 . S
H57 C46 0.929 . S
O58 Co33 2.351 1_556 S
O58 C61 1.244 . S
O59 Co33 2.155 . S
O59 C61 1.240 1_554 S
O60 Co33 2.096 . S
O60 C41 1.247 . S
C61 O58 1.244 . S
C61 O59 1.240 1_556 S
H62 C36 0.931 . S
H63 C45 0.931 . S
H64 C49 0.929 . S
H65 C51 0.930 . S
Co66 N70 2.148 . S
Co66 N76 2.128 1_655 S
Co66 N86 2.194 1_655 S
Co66 O91 2.351 1_554 S
Co66 O92 2.155 . S
Co66 O93 2.096 . S
C67 N70 1.301 . S
C67 N71 1.328 . S
C67 H72 0.930 1_554 S
C68 C69 1.333 . S
C68 N70 1.317 . S
C68 H73 0.930 . S
C69 C68 1.333 . S
C69 N71 1.350 . S
C69 H95 0.931 . S
N70 Co66 2.148 . S
N70 C67 1.301 . S
N70 C68 1.317 . S
N71 C67 1.328 . S
N71 C69 1.350 . S
H72 C67 0.930 1_556 S
H73 C68 0.930 . S
C74 O75 1.224 . S
C74 O93 1.247 . S
O75 C74 1.224 . S
N76 Co66 2.128 1_455 S
N76 C77 1.355 . S
N76 C79 1.311 . S
C77 N76 1.355 . S
C77 C78 1.363 . S
C77 H89 0.952 . S
C78 C77 1.363 . S
C78 N80 1.375 . S
C78 H96 0.931 . S
C79 N76 1.311 . S
C79 N80 1.347 . S
C79 H90 0.929 . S
N80 C78 1.375 . S
N80 C79 1.347 . S
C81 C84 1.365 . S
C81 N86 1.328 1_556 S
C81 H87 0.929 1_455 S
C82 C83 1.362 1_554 S
C82 C85 1.378 . S
C82 H97 0.929 . S
C83 C82 1.362 1_556 S
C83 C84 1.366 . S
C84 C81 1.365 . S
C84 C83 1.366 . S
C84 H98 0.930 . S
C85 C82 1.378 . S
C85 N86 1.315 . S
C85 H88 0.930 . S
N86 Co66 2.194 1_455 S
N86 C81 1.328 1_554 S
N86 C85 1.315 . S
H87 C81 0.929 1_655 S
H88 C85 0.930 . S
H89 C77 0.952 . S
H90 C79 0.929 . S
O91 Co66 2.351 1_556 S
O91 C94 1.244 . S
O92 Co66 2.155 . S
O92 C94 1.240 1_554 S
O93 Co66 2.096 . S
O93 C74 1.247 . S
C94 O91 1.244 . S
C94 O92 1.240 1_556 S
H95 C69 0.931 . S
H96 C78 0.931 . S
H97 C82 0.929 . S
H98 C84 0.930 . S
Co99 N103 2.148 . S
Co99 N109 2.128 . S
Co99 N119 2.194 . S
Co99 O124 2.351 . S
Co99 O125 2.155 . S
Co99 O126 2.096 . S
C100 N103 1.301 . S
C100 N104 1.328 . S
C100 H105 0.930 . S
C101 C102 1.333 . S
C101 N103 1.317 . S
C101 H106 0.930 . S
C102 C101 1.333 . S
C102 N104 1.350 . S
C102 H128 0.931 . S
N103 Co99 2.148 . S
N103 C100 1.301 . S
N103 C101 1.317 . S
N104 C100 1.328 . S
N104 C102 1.350 . S
H105 C100 0.930 . S
H106 C101 0.930 . S
C107 O108 1.224 . S
C107 O126 1.247 . S
O108 C107 1.224 . S
N109 Co99 2.128 . S
N109 C110 1.355 . S
N109 C112 1.311 . S
C110 N109 1.355 . S
C110 C111 1.363 . S
C110 H122 0.929 . S
C111 C110 1.363 . S
C111 N113 1.375 . S
C111 H129 0.931 . S
C112 N109 1.311 . S
C112 N113 1.347 . S
C112 H123 0.929 . S
N113 C111 1.375 . S
N113 C112 1.347 . S
C114 C117 1.365 . S
C114 N119 1.328 . S
C114 H120 0.929 . S
C115 C116 1.362 . S
C115 C118 1.378 . S
C115 H130 0.929 . S
C116 C115 1.362 . S
C116 C117 1.366 . S
C117 C114 1.365 . S
C117 C116 1.366 . S
C117 H131 0.930 . S
C118 C115 1.378 . S
C118 N119 1.315 . S
C118 H121 0.930 . S
N119 Co99 2.194 . S
N119 C114 1.328 . S
N119 C118 1.315 . S
H120 C114 0.929 . S
H121 C118 0.930 . S
H122 C110 0.929 . S
H123 C112 0.929 . S
O124 Co99 2.351 . S
O124 C127 1.244 . S
O125 Co99 2.155 . S
O125 C127 1.240 . S
O126 Co99 2.096 . S
O126 C107 1.247 . S
C127 O124 1.244 . S
C127 O125 1.240 . S
H128 C102 0.931 . S
H129 C111 0.931 . S
H130 C115 0.929 . S
H131 C117 0.930 . S
Co132 N136 2.148 . S
Co132 N142 2.128 1_565 S
Co132 N152 2.194 1_565 S
Co132 O157 2.351 . S
Co132 O158 2.155 . S
Co132 O159 2.096 . S
C133 N136 1.301 . S
C133 N137 1.328 . S
C133 H138 0.930 . S
C134 C135 1.333 . S
C134 N136 1.317 . S
C134 H139 0.930 . S
C135 C134 1.333 . S
C135 N137 1.350 . S
C135 H161 0.931 . S
N136 Co132 2.148 . S
N136 C133 1.301 . S
N136 C134 1.317 . S
N137 C133 1.328 . S
N137 C135 1.350 . S
H138 C133 0.930 . S
H139 C134 0.930 . S
C140 O141 1.224 . S
C140 O159 1.247 . S
O141 C140 1.224 . S
N142 Co132 2.128 1_545 S
N142 C143 1.355 . S
N142 C145 1.311 . S
C143 N142 1.355 . S
C143 C144 1.363 . S
C143 H155 0.929 . S
C144 C143 1.363 . S
C144 N146 1.375 . S
C144 H162 0.931 . S
C145 N142 1.311 . S
C145 N146 1.347 . S
C145 H156 0.929 . S
N146 C144 1.375 . S
N146 C145 1.347 . S
C147 C150 1.365 . S
C147 N152 1.328 . S
C147 H153 0.929 1_545 S
C148 C149 1.362 . S
C148 C151 1.378 . S
C148 H163 0.929 . S
C149 C148 1.362 . S
C149 C150 1.366 . S
C150 C147 1.365 . S
C150 C149 1.366 . S
C150 H164 0.930 . S
C151 C148 1.378 . S
C151 N152 1.315 . S
C151 H154 0.930 . S
N152 Co132 2.194 1_545 S
N152 C147 1.328 . S
N152 C151 1.315 . S
H153 C147 0.929 1_565 S
H154 C151 0.930 . S
H155 C143 0.929 . S
H156 C145 0.929 . S
O157 Co132 2.351 . S
O157 C160 1.244 . S
O158 Co132 2.155 . S
O158 C160 1.240 . S
O159 Co132 2.096 . S
O159 C140 1.247 . S
C160 O157 1.244 . S
C160 O158 1.240 . S
H161 C135 0.931 . S
H162 C144 0.931 . S
H163 C148 0.929 . S
H164 C150 0.930 . S
Co165 N169 2.148 . S
Co165 N175 2.128 1_455 S
Co165 N185 2.194 1_455 S
Co165 O190 2.351 . S
Co165 O191 2.155 . S
Co165 O192 2.096 . S
C166 N169 1.301 . S
C166 N170 1.328 . S
C166 H171 0.930 . S
C167 C168 1.333 . S
C167 N169 1.317 . S
C167 H172 0.930 . S
C168 C167 1.333 . S
C168 N170 1.350 . S
C168 H194 0.931 . S
N169 Co165 2.148 . S
N169 C166 1.301 . S
N169 C167 1.317 . S
N170 C166 1.328 . S
N170 C168 1.350 . S
H171 C166 0.930 . S
H172 C167 0.930 . S
C173 O174 1.224 . S
C173 O192 1.247 . S
O174 C173 1.224 . S
N175 Co165 2.128 1_655 S
N175 C176 1.355 . S
N175 C178 1.311 . S
C176 N175 1.355 . S
C176 C177 1.363 . S
C176 H188 0.929 . S
C177 C176 1.363 . S
C177 N179 1.375 . S
C177 H195 0.931 . S
C178 N175 1.311 . S
C178 N179 1.347 . S
C178 H189 0.929 . S
N179 C177 1.375 . S
N179 C178 1.347 . S
C180 C183 1.365 . S
C180 N185 1.328 . S
C180 H186 0.929 1_655 S
C181 C182 1.362 . S
C181 C184 1.378 . S
C181 H196 0.929 . S
C182 C181 1.362 . S
C182 C183 1.366 . S
C183 C180 1.365 . S
C183 C182 1.366 . S
C183 H197 0.930 . S
C184 C181 1.378 . S
C184 N185 1.315 . S
C184 H187 0.930 . S
N185 Co165 2.194 1_655 S
N185 C180 1.328 . S
N185 C184 1.315 . S
H186 C180 0.929 1_455 S
H187 C184 0.930 . S
H188 C176 0.929 . S
H189 C178 0.929 . S
O190 Co165 2.351 . S
O190 C193 1.244 . S
O191 Co165 2.155 . S
O191 C193 1.240 . S
O192 Co165 2.096 . S
O192 C173 1.247 . S
C193 O190 1.244 . S
C193 O191 1.240 . S
H194 C168 0.931 . S
H195 C177 0.931 . S
H196 C181 0.929 . S
H197 C183 0.930 . S
Co198 N202 2.148 . S
Co198 N208 2.128 . S
Co198 N218 2.194 . S
Co198 O223 2.351 1_556 S
Co198 O224 2.155 . S
Co198 O225 2.096 . S
C199 N202 1.301 . S
C199 N203 1.328 . S
C199 H204 0.930 1_556 S
C200 C201 1.333 . S
C200 N202 1.317 . S
C200 H205 0.930 . S
C201 C200 1.333 . S
C201 N203 1.350 . S
C201 H227 0.931 . S
N202 Co198 2.148 . S
N202 C199 1.301 . S
N202 C200 1.317 . S
N203 C199 1.328 . S
N203 C201 1.350 . S
H204 C199 0.930 1_554 S
H205 C200 0.930 . S
C206 O207 1.224 . S
C206 O225 1.247 . S
O207 C206 1.224 . S
N208 Co198 2.128 . S
N208 C209 1.355 . S
N208 C211 1.311 . S
C209 N208 1.355 . S
C209 C210 1.363 . S
C209 H221 0.952 . S
C210 C209 1.363 . S
C210 N212 1.375 . S
C210 H228 0.931 . S
C211 N208 1.311 . S
C211 N212 1.347 . S
C211 H222 0.929 . S
N212 C210 1.375 . S
N212 C211 1.347 . S
C213 C216 1.365 . S
C213 N218 1.328 1_554 S
C213 H219 0.929 . S
C214 C215 1.362 1_556 S
C214 C217 1.378 . S
C214 H229 0.929 . S
C215 C214 1.362 1_554 S
C215 C216 1.366 . S
C216 C213 1.365 . S
C216 C215 1.366 . S
C216 H230 0.930 . S
C217 C214 1.378 . S
C217 N218 1.315 . S
C217 H220 0.930 . S
N218 Co198 2.194 . S
N218 C213 1.328 1_556 S
N218 C217 1.315 . S
H219 C213 0.929 . S
H220 C217 0.930 . S
H221 C209 0.952 . S
H222 C211 0.929 . S
O223 Co198 2.351 1_554 S
O223 C226 1.244 . S
O224 Co198 2.155 . S
O224 C226 1.240 1_556 S
O225 Co198 2.096 . S
O225 C206 1.247 . S
C226 O223 1.244 . S
C226 O224 1.240 1_554 S
H227 C201 0.931 . S
H228 C210 0.931 . S
H229 C214 0.929 . S
H230 C216 0.930 . S
Co231 N235 2.148 . S
Co231 N241 2.128 1_565 S
Co231 N251 2.194 1_565 S
Co231 O256 2.351 1_556 S
Co231 O257 2.155 . S
Co231 O258 2.096 . S
C232 N235 1.301 . S
C232 N236 1.328 . S
C232 H237 0.930 1_556 S
C233 C234 1.333 . S
C233 N235 1.317 . S
C233 H238 0.930 . S
C234 C233 1.333 . S
C234 N236 1.350 . S
C234 H260 0.931 . S
N235 Co231 2.148 . S
N235 C232 1.301 . S
N235 C233 1.317 . S
N236 C232 1.328 . S
N236 C234 1.350 . S
H237 C232 0.930 1_554 S
H238 C233 0.930 . S
C239 O240 1.224 . S
C239 O258 1.247 . S
O240 C239 1.224 . S
N241 Co231 2.128 1_545 S
N241 C242 1.355 . S
N241 C244 1.311 . S
C242 N241 1.355 . S
C242 C243 1.363 . S
C242 H254 0.952 . S
C243 C242 1.363 . S
C243 N245 1.375 . S
C243 H261 0.931 . S
C244 N241 1.311 . S
C244 N245 1.347 . S
C244 H255 0.929 . S
N245 C243 1.375 . S
N245 C244 1.347 . S
C246 C249 1.365 . S
C246 N251 1.328 1_554 S
C246 H252 0.929 1_545 S
C247 C248 1.362 1_556 S
C247 C250 1.378 . S
C247 H262 0.929 . S
C248 C247 1.362 1_554 S
C248 C249 1.366 . S
C249 C246 1.365 . S
C249 C248 1.366 . S
C249 H263 0.930 . S
C250 C247 1.378 . S
C250 N251 1.315 . S
C250 H253 0.930 . S
N251 Co231 2.194 1_545 S
N251 C246 1.328 1_556 S
N251 C250 1.315 . S
H252 C246 0.929 1_565 S
H253 C250 0.930 . S
H254 C242 0.952 . S
H255 C244 0.929 . S
O256 Co231 2.351 1_554 S
O256 C259 1.244 . S
O257 Co231 2.155 . S
O257 C259 1.240 1_556 S
O258 Co231 2.096 . S
O258 C239 1.247 . S
C259 O256 1.244 . S
C259 O257 1.240 1_554 S
H260 C234 0.931 . S
H261 C243 0.931 . S
H262 C247 0.929 . S
H263 C249 0.930 . S
Co264 N268 2.148 . S
Co264 N274 2.128 1_455 S
Co264 N284 2.194 1_455 S
Co264 O289 2.351 1_556 S
Co264 O290 2.155 . S
Co264 O291 2.096 . S
C265 N268 1.301 . S
C265 N269 1.328 . S
C265 H270 0.930 1_556 S
C266 C267 1.333 . S
C266 N268 1.317 . S
C266 H271 0.930 . S
C267 C266 1.333 . S
C267 N269 1.350 . S
C267 H293 0.931 . S
N268 Co264 2.148 . S
N268 C265 1.301 . S
N268 C266 1.317 . S
N269 C265 1.328 . S
N269 C267 1.350 . S
H270 C265 0.930 1_554 S
H271 C266 0.930 . S
C272 O273 1.224 . S
C272 O291 1.247 . S
O273 C272 1.224 . S
N274 Co264 2.128 1_655 S
N274 C275 1.355 . S
N274 C277 1.311 . S
C275 N274 1.355 . S
C275 C276 1.363 . S
C275 H287 0.952 . S
C276 C275 1.363 . S
C276 N278 1.375 . S
C276 H294 0.931 . S
C277 N274 1.311 . S
C277 N278 1.347 . S
C277 H288 0.929 . S
N278 C276 1.375 . S
N278 C277 1.347 . S
C279 C282 1.365 . S
C279 N284 1.328 1_554 S
C279 H285 0.929 1_655 S
C280 C281 1.362 1_556 S
C280 C283 1.378 . S
C280 H295 0.929 . S
C281 C280 1.362 1_554 S
C281 C282 1.366 . S
C282 C279 1.365 . S
C282 C281 1.366 . S
C282 H296 0.930 . S
C283 C280 1.378 . S
C283 N284 1.315 . S
C283 H286 0.930 . S
N284 Co264 2.194 1_655 S
N284 C279 1.328 1_556 S
N284 C283 1.315 . S
H285 C279 0.929 1_455 S
H286 C283 0.930 . S
H287 C275 0.952 . S
H288 C277 0.929 . S
O289 Co264 2.351 1_554 S
O289 C292 1.244 . S
O290 Co264 2.155 . S
O290 C292 1.240 1_556 S
O291 Co264 2.096 . S
O291 C272 1.247 . S
C292 O289 1.244 . S
C292 O290 1.240 1_554 S
H293 C267 0.931 . S
H294 C276 0.931 . S
H295 C280 0.929 . S
H296 C282 0.930 . S
Co297 N301 2.148 . S
Co297 N307 2.128 . S
Co297 N317 2.194 . S
Co297 O322 2.351 . S
Co297 O323 2.155 . S
Co297 O324 2.096 . S
C298 N301 1.301 . S
C298 N302 1.328 . S
C298 H303 0.930 . S
C299 C300 1.333 . S
C299 N301 1.317 . S
C299 H304 0.930 . S
C300 C299 1.333 . S
C300 N302 1.350 . S
C300 H326 0.931 . S
N301 Co297 2.148 . S
N301 C298 1.301 . S
N301 C299 1.317 . S
N302 C298 1.328 . S
N302 C300 1.350 . S
H303 C298 0.930 . S
H304 C299 0.930 . S
C305 O306 1.224 . S
C305 O324 1.247 . S
O306 C305 1.224 . S
N307 Co297 2.128 . S
N307 C308 1.355 . S
N307 C310 1.311 . S
C308 N307 1.355 . S
C308 C309 1.363 . S
C308 H320 0.929 . S
C309 C308 1.363 . S
C309 N311 1.375 . S
C309 H327 0.931 . S
C310 N307 1.311 . S
C310 N311 1.347 . S
C310 H321 0.929 . S
N311 C309 1.375 . S
N311 C310 1.347 . S
C312 C315 1.365 . S
C312 N317 1.328 . S
C312 H318 0.929 . S
C313 C314 1.362 . S
C313 C316 1.378 . S
C313 H328 0.929 . S
C314 C313 1.362 . S
C314 C315 1.366 . S
C315 C312 1.365 . S
C315 C314 1.366 . S
C315 H329 0.930 . S
C316 C313 1.378 . S
C316 N317 1.315 . S
C316 H319 0.930 . S
N317 Co297 2.194 . S
N317 C312 1.328 . S
N317 C316 1.315 . S
H318 C312 0.929 . S
H319 C316 0.930 . S
H320 C308 0.929 . S
H321 C310 0.929 . S
O322 Co297 2.351 . S
O322 C325 1.244 . S
O323 Co297 2.155 . S
O323 C325 1.240 . S
O324 Co297 2.096 . S
O324 C305 1.247 . S
C325 O322 1.244 . S
C325 O323 1.240 . S
H326 C300 0.931 . S
H327 C309 0.931 . S
H328 C313 0.929 . S
H329 C315 0.930 . S
Co330 N334 2.148 . S
Co330 N340 2.128 1_545 S
Co330 N350 2.194 1_545 S
Co330 O355 2.351 . S
Co330 O356 2.155 . S
Co330 O357 2.096 . S
C331 N334 1.301 . S
C331 N335 1.328 . S
C331 H336 0.930 . S
C332 C333 1.333 . S
C332 N334 1.317 . S
C332 H337 0.930 . S
C333 C332 1.333 . S
C333 N335 1.350 . S
C333 H359 0.931 . S
N334 Co330 2.148 . S
N334 C331 1.301 . S
N334 C332 1.317 . S
N335 C331 1.328 . S
N335 C333 1.350 . S
H336 C331 0.930 . S
H337 C332 0.930 . S
C338 O339 1.224 . S
C338 O357 1.247 . S
O339 C338 1.224 . S
N340 Co330 2.128 1_565 S
N340 C341 1.355 . S
N340 C343 1.311 . S
C341 N340 1.355 . S
C341 C342 1.363 . S
C341 H353 0.929 . S
C342 C341 1.363 . S
C342 N344 1.375 . S
C342 H360 0.931 . S
C343 N340 1.311 . S
C343 N344 1.347 . S
C343 H354 0.929 . S
N344 C342 1.375 . S
N344 C343 1.347 . S
C345 C348 1.365 . S
C345 N350 1.328 . S
C345 H351 0.929 1_565 S
C346 C347 1.362 . S
C346 C349 1.378 . S
C346 H361 0.929 . S
C347 C346 1.362 . S
C347 C348 1.366 . S
C348 C345 1.365 . S
C348 C347 1.366 . S
C348 H362 0.930 . S
C349 C346 1.378 . S
C349 N350 1.315 . S
C349 H352 0.930 . S
N350 Co330 2.194 1_565 S
N350 C345 1.328 . S
N350 C349 1.315 . S
H351 C345 0.929 1_545 S
H352 C349 0.930 . S
H353 C341 0.929 . S
H354 C343 0.929 . S
O355 Co330 2.351 . S
O355 C358 1.244 . S
O356 Co330 2.155 . S
O356 C358 1.240 . S
O357 Co330 2.096 . S
O357 C338 1.247 . S
C358 O355 1.244 . S
C358 O356 1.240 . S
H359 C333 0.931 . S
H360 C342 0.931 . S
H361 C346 0.929 . S
H362 C348 0.930 . S
Co363 N367 2.148 . S
Co363 N373 2.128 1_655 S
Co363 N383 2.194 1_655 S
Co363 O388 2.351 . S
Co363 O389 2.155 . S
Co363 O390 2.096 . S
C364 N367 1.301 . S
C364 N368 1.328 . S
C364 H369 0.930 . S
C365 C366 1.333 . S
C365 N367 1.317 . S
C365 H370 0.930 . S
C366 C365 1.333 . S
C366 N368 1.350 . S
C366 H392 0.931 . S
N367 Co363 2.148 . S
N367 C364 1.301 . S
N367 C365 1.317 . S
N368 C364 1.328 . S
N368 C366 1.350 . S
H369 C364 0.930 . S
H370 C365 0.930 . S
C371 O372 1.224 . S
C371 O390 1.247 . S
O372 C371 1.224 . S
N373 Co363 2.128 1_455 S
N373 C374 1.355 . S
N373 C376 1.311 . S
C374 N373 1.355 . S
C374 C375 1.363 . S
C374 H386 0.929 . S
C375 C374 1.363 . S
C375 N377 1.375 . S
C375 H393 0.931 . S
C376 N373 1.311 . S
C376 N377 1.347 . S
C376 H387 0.929 . S
N377 C375 1.375 . S
N377 C376 1.347 . S
C378 C381 1.365 . S
C378 N383 1.328 . S
C378 H384 0.929 1_455 S
C379 C380 1.362 . S
C379 C382 1.378 . S
C379 H394 0.929 . S
C380 C379 1.362 . S
C380 C381 1.366 . S
C381 C378 1.365 . S
C381 C380 1.366 . S
C381 H395 0.930 . S
C382 C379 1.378 . S
C382 N383 1.315 . S
C382 H385 0.930 . S
N383 Co363 2.194 1_455 S
N383 C378 1.328 . S
N383 C382 1.315 . S
H384 C378 0.929 1_655 S
H385 C382 0.930 . S
H386 C374 0.929 . S
H387 C376 0.929 . S
O388 Co363 2.351 . S
O388 C391 1.244 . S
O389 Co363 2.155 . S
O389 C391 1.240 . S
O390 Co363 2.096 . S
O390 C371 1.247 . S
C391 O388 1.244 . S
C391 O389 1.240 . S
H392 C366 0.931 . S
H393 C375 0.931 . S
H394 C379 0.929 . S
H395 C381 0.930 . S
Co396 N400 2.148 . S
Co396 N406 2.128 . S
Co396 N416 2.194 . S
Co396 O421 2.351 . S
Co396 O422 2.155 . S
Co396 O423 2.096 . S
C397 N400 1.301 . S
C397 N401 1.328 . S
C397 H402 0.930 . S
C398 C399 1.333 . S
C398 N400 1.317 . S
C398 H403 0.930 . S
C399 C398 1.333 . S
C399 N401 1.350 . S
C399 H425 0.931 . S
N400 Co396 2.148 . S
N400 C397 1.301 . S
N400 C398 1.317 . S
N401 C397 1.328 . S
N401 C399 1.350 . S
H402 C397 0.930 . S
H403 C398 0.930 . S
C404 O405 1.224 . S
C404 O423 1.247 . S
O405 C404 1.224 . S
N406 Co396 2.128 . S
N406 C407 1.355 . S
N406 C409 1.311 . S
C407 N406 1.355 . S
C407 C408 1.363 . S
C407 H419 0.929 . S
C408 C407 1.363 . S
C408 N410 1.375 . S
C408 H426 0.931 . S
C409 N406 1.311 . S
C409 N410 1.347 . S
C409 H420 0.929 . S
N410 C408 1.375 . S
N410 C409 1.347 . S
C411 C414 1.365 . S
C411 N416 1.328 . S
C411 H417 0.929 . S
C412 C413 1.362 . S
C412 C415 1.378 . S
C412 H427 0.929 . S
C413 C412 1.362 . S
C413 C414 1.366 . S
C414 C411 1.365 . S
C414 C413 1.366 . S
C414 H428 0.930 . S
C415 C412 1.378 . S
C415 N416 1.315 . S
C415 H418 0.930 . S
N416 Co396 2.194 . S
N416 C411 1.328 . S
N416 C415 1.315 . S
H417 C411 0.929 . S
H418 C415 0.930 . S
H419 C407 0.929 . S
H420 C409 0.929 . S
O421 Co396 2.351 . S
O421 C424 1.244 . S
O422 Co396 2.155 . S
O422 C424 1.240 . S
O423 Co396 2.096 . S
O423 C404 1.247 . S
C424 O421 1.244 . S
C424 O422 1.240 . S
H425 C399 0.931 . S
H426 C408 0.931 . S
H427 C412 0.929 . S
H428 C414 0.930 . S
Co429 N433 2.148 . S
Co429 N439 2.128 . S
Co429 N449 2.194 . S
Co429 O454 2.351 . S
Co429 O455 2.155 . S
Co429 O456 2.096 . S
C430 N433 1.301 . S
C430 N434 1.328 . S
C430 H435 0.930 . S
C431 C432 1.333 . S
C431 N433 1.317 . S
C431 H436 0.930 . S
C432 C431 1.333 . S
C432 N434 1.350 . S
C432 H458 0.931 . S
N433 Co429 2.148 . S
N433 C430 1.301 . S
N433 C431 1.317 . S
N434 C430 1.328 . S
N434 C432 1.350 . S
H435 C430 0.930 . S
H436 C431 0.930 . S
C437 O438 1.224 . S
C437 O456 1.247 . S
O438 C437 1.224 . S
N439 Co429 2.128 . S
N439 C440 1.355 . S
N439 C442 1.311 . S
C440 N439 1.355 . S
C440 C441 1.363 . S
C440 H452 0.929 . S
C441 C440 1.363 . S
C441 N443 1.375 . S
C441 H459 0.931 . S
C442 N439 1.311 . S
C442 N443 1.347 . S
C442 H453 0.929 . S
N443 C441 1.375 . S
N443 C442 1.347 . S
C444 C447 1.365 . S
C444 N449 1.328 . S
C444 H450 0.929 . S
C445 C446 1.362 . S
C445 C448 1.378 . S
C445 H460 0.929 . S
C446 C445 1.362 . S
C446 C447 1.366 . S
C447 C444 1.365 . S
C447 C446 1.366 . S
C447 H461 0.930 . S
C448 C445 1.378 . S
C448 N449 1.315 . S
C448 H451 0.930 . S
N449 Co429 2.194 . S
N449 C444 1.328 . S
N449 C448 1.315 . S
H450 C444 0.929 . S
H451 C448 0.930 . S
H452 C440 0.929 . S
H453 C442 0.929 . S
O454 Co429 2.351 . S
O454 C457 1.244 . S
O455 Co429 2.155 . S
O455 C457 1.240 . S
O456 Co429 2.096 . S
O456 C437 1.247 . S
C457 O454 1.244 . S
C457 O455 1.240 . S
H458 C432 0.931 . S
H459 C441 0.931 . S
H460 C445 0.929 . S
H461 C447 0.930 . S
Co462 N466 2.148 . S
Co462 N472 2.128 . S
Co462 N482 2.194 . S
Co462 O487 2.351 . S
Co462 O488 2.155 . S
Co462 O489 2.096 . S
C463 N466 1.301 . S
C463 N467 1.328 . S
C463 H468 0.930 . S
C464 C465 1.333 . S
C464 N466 1.317 . S
C464 H469 0.930 . S
C465 C464 1.333 . S
C465 N467 1.350 . S
C465 H491 0.931 . S
N466 Co462 2.148 . S
N466 C463 1.301 . S
N466 C464 1.317 . S
N467 C463 1.328 . S
N467 C465 1.350 . S
H468 C463 0.930 . S
H469 C464 0.930 . S
C470 O471 1.224 . S
C470 O489 1.247 . S
O471 C470 1.224 . S
N472 Co462 2.128 . S
N472 C473 1.355 . S
N472 C475 1.311 . S
C473 N472 1.355 . S
C473 C474 1.363 . S
C473 H485 0.929 . S
C474 C473 1.363 . S
C474 N476 1.375 . S
C474 H492 0.931 . S
C475 N472 1.311 . S
C475 N476 1.347 . S
C475 H486 0.929 . S
N476 C474 1.375 . S
N476 C475 1.347 . S
C477 C480 1.365 . S
C477 N482 1.328 . S
C477 H483 0.929 . S
C478 C479 1.362 . S
C478 C481 1.378 . S
C478 H493 0.929 . S
C479 C478 1.362 . S
C479 C480 1.366 . S
C480 C477 1.365 . S
C480 C479 1.366 . S
C480 H494 0.930 . S
C481 C478 1.378 . S
C481 N482 1.315 . S
C481 H484 0.930 . S
N482 Co462 2.194 . S
N482 C477 1.328 . S
N482 C481 1.315 . S
H483 C477 0.929 . S
H484 C481 0.930 . S
H485 C473 0.929 . S
H486 C475 0.929 . S
O487 Co462 2.351 . S
O487 C490 1.244 . S
O488 Co462 2.155 . S
O488 C490 1.240 . S
O489 Co462 2.096 . S
O489 C470 1.247 . S
C490 O487 1.244 . S
C490 O488 1.240 . S
H491 C465 0.931 . S
H492 C474 0.931 . S
H493 C478 0.929 . S
H494 C480 0.930 . S
Co495 N499 2.148 . S
Co495 N505 2.128 . S
Co495 N515 2.194 . S
Co495 O520 2.351 . S
Co495 O521 2.155 . S
Co495 O522 2.096 . S
C496 N499 1.301 . S
C496 N500 1.328 . S
C496 H501 0.930 . S
C497 C498 1.333 . S
C497 N499 1.317 . S
C497 H502 0.930 . S
C498 C497 1.333 . S
C498 N500 1.350 . S
C498 H524 0.931 . S
N499 Co495 2.148 . S
N499 C496 1.301 . S
N499 C497 1.317 . S
N500 C496 1.328 . S
N500 C498 1.350 . S
H501 C496 0.930 . S
H502 C497 0.930 . S
C503 O504 1.224 . S
C503 O522 1.247 . S
O504 C503 1.224 . S
N505 Co495 2.128 . S
N505 C506 1.355 . S
N505 C508 1.311 . S
C506 N505 1.355 . S
C506 C507 1.363 . S
C506 H518 0.929 . S
C507 C506 1.363 . S
C507 N509 1.375 . S
C507 H525 0.931 . S
C508 N505 1.311 . S
C508 N509 1.347 . S
C508 H519 0.929 . S
N509 C507 1.375 . S
N509 C508 1.347 . S
C510 C513 1.365 . S
C510 N515 1.328 . S
C510 H516 0.929 . S
C511 C512 1.362 . S
C511 C514 1.378 . S
C511 H526 0.929 . S
C512 C511 1.362 . S
C512 C513 1.366 . S
C513 C510 1.365 . S
C513 C512 1.366 . S
C513 H527 0.930 . S
C514 C511 1.378 . S
C514 N515 1.315 . S
C514 H517 0.930 . S
N515 Co495 2.194 . S
N515 C510 1.328 . S
N515 C514 1.315 . S
H516 C510 0.929 . S
H517 C514 0.930 . S
H518 C506 0.929 . S
H519 C508 0.929 . S
O520 Co495 2.351 . S
O520 C523 1.244 . S
O521 Co495 2.155 . S
O521 C523 1.240 . S
O522 Co495 2.096 . S
O522 C503 1.247 . S
C523 O520 1.244 . S
C523 O521 1.240 . S
H524 C498 0.931 . S
H525 C507 0.931 . S
H526 C511 0.929 . S
H527 C513 0.930 . S
Co528 N532 2.148 . S
Co528 N538 2.128 . S
Co528 N548 2.194 . S
Co528 O553 2.351 . S
Co528 O554 2.155 . S
Co528 O555 2.096 . S
C529 N532 1.301 . S
C529 N533 1.328 . S
C529 H534 0.930 . S
C530 C531 1.333 . S
C530 N532 1.317 . S
C530 H535 0.930 . S
C531 C530 1.333 . S
C531 N533 1.350 . S
C531 H557 0.931 . S
N532 Co528 2.148 . S
N532 C529 1.301 . S
N532 C530 1.317 . S
N533 C529 1.328 . S
N533 C531 1.350 . S
H534 C529 0.930 . S
H535 C530 0.930 . S
C536 O537 1.224 . S
C536 O555 1.247 . S
O537 C536 1.224 . S
N538 Co528 2.128 . S
N538 C539 1.355 . S
N538 C541 1.311 . S
C539 N538 1.355 . S
C539 C540 1.363 . S
C539 H551 0.929 . S
C540 C539 1.363 . S
C540 N542 1.375 . S
C540 H558 0.931 . S
C541 N538 1.311 . S
C541 N542 1.347 . S
C541 H552 0.929 . S
N542 C540 1.375 . S
N542 C541 1.347 . S
C543 C546 1.365 . S
C543 N548 1.328 . S
C543 H549 0.929 . S
C544 C545 1.362 . S
C544 C547 1.378 . S
C544 H559 0.929 . S
C545 C544 1.362 . S
C545 C546 1.366 . S
C546 C543 1.365 . S
C546 C545 1.366 . S
C546 H560 0.930 . S
C547 C544 1.378 . S
C547 N548 1.315 . S
C547 H550 0.930 . S
N548 Co528 2.194 . S
N548 C543 1.328 . S
N548 C547 1.315 . S
H549 C543 0.929 . S
H550 C547 0.930 . S
H551 C539 0.929 . S
H552 C541 0.929 . S
O553 Co528 2.351 . S
O553 C556 1.244 . S
O554 Co528 2.155 . S
O554 C556 1.240 . S
O555 Co528 2.096 . S
O555 C536 1.247 . S
C556 O553 1.244 . S
C556 O554 1.240 . S
H557 C531 0.931 . S
H558 C540 0.931 . S
H559 C544 0.929 . S
H560 C546 0.930 . S
Co561 N565 2.148 . S
Co561 N571 2.128 . S
Co561 N581 2.194 . S
Co561 O586 2.351 . S
Co561 O587 2.155 . S
Co561 O588 2.096 . S
C562 N565 1.301 . S
C562 N566 1.328 . S
C562 H567 0.930 . S
C563 C564 1.333 . S
C563 N565 1.317 . S
C563 H568 0.930 . S
C564 C563 1.333 . S
C564 N566 1.350 . S
C564 H590 0.931 . S
N565 Co561 2.148 . S
N565 C562 1.301 . S
N565 C563 1.317 . S
N566 C562 1.328 . S
N566 C564 1.350 . S
H567 C562 0.930 . S
H568 C563 0.930 . S
C569 O570 1.224 . S
C569 O588 1.247 . S
O570 C569 1.224 . S
N571 Co561 2.128 . S
N571 C572 1.355 . S
N571 C574 1.311 . S
C572 N571 1.355 . S
C572 C573 1.363 . S
C572 H584 0.929 . S
C573 C572 1.363 . S
C573 N575 1.375 . S
C573 H591 0.931 . S
C574 N571 1.311 . S
C574 N575 1.347 . S
C574 H585 0.929 . S
N575 C573 1.375 . S
N575 C574 1.347 . S
C576 C579 1.365 . S
C576 N581 1.328 . S
C576 H582 0.929 . S
C577 C578 1.362 . S
C577 C580 1.378 . S
C577 H592 0.929 . S
C578 C577 1.362 . S
C578 C579 1.366 . S
C579 C576 1.365 . S
C579 C578 1.366 . S
C579 H593 0.930 . S
C580 C577 1.378 . S
C580 N581 1.315 . S
C580 H583 0.930 . S
N581 Co561 2.194 . S
N581 C576 1.328 . S
N581 C580 1.315 . S
H582 C576 0.929 . S
H583 C580 0.930 . S
H584 C572 0.929 . S
H585 C574 0.929 . S
O586 Co561 2.351 . S
O586 C589 1.244 . S
O587 Co561 2.155 . S
O587 C589 1.240 . S
O588 Co561 2.096 . S
O588 C569 1.247 . S
C589 O586 1.244 . S
C589 O587 1.240 . S
H590 C564 0.931 . S
H591 C573 0.931 . S
H592 C577 0.929 . S
H593 C579 0.930 . S
Co594 N598 2.148 . S
Co594 N604 2.128 . S
Co594 N614 2.194 . S
Co594 O619 2.351 . S
Co594 O620 2.155 . S
Co594 O621 2.096 . S
C595 N598 1.301 . S
C595 N599 1.328 . S
C595 H600 0.930 . S
C596 C597 1.333 . S
C596 N598 1.317 . S
C596 H601 0.930 . S
C597 C596 1.333 . S
C597 N599 1.350 . S
C597 H623 0.931 . S
N598 Co594 2.148 . S
N598 C595 1.301 . S
N598 C596 1.317 . S
N599 C595 1.328 . S
N599 C597 1.350 . S
H600 C595 0.930 . S
H601 C596 0.930 . S
C602 O603 1.224 . S
C602 O621 1.247 . S
O603 C602 1.224 . S
N604 Co594 2.128 . S
N604 C605 1.355 . S
N604 C607 1.311 . S
C605 N604 1.355 . S
C605 C606 1.363 . S
C605 H617 0.929 . S
C606 C605 1.363 . S
C606 N608 1.375 . S
C606 H624 0.931 . S
C607 N604 1.311 . S
C607 N608 1.347 . S
C607 H618 0.929 . S
N608 C606 1.375 . S
N608 C607 1.347 . S
C609 C612 1.365 . S
C609 N614 1.328 . S
C609 H615 0.929 . S
C610 C611 1.362 . S
C610 C613 1.378 . S
C610 H625 0.929 . S
C611 C610 1.362 . S
C611 C612 1.366 . S
C612 C609 1.365 . S
C612 C611 1.366 . S
C612 H626 0.930 . S
C613 C610 1.378 . S
C613 N614 1.315 . S
C613 H616 0.930 . S
N614 Co594 2.194 . S
N614 C609 1.328 . S
N614 C613 1.315 . S
H615 C609 0.929 . S
H616 C613 0.930 . S
H617 C605 0.929 . S
H618 C607 0.929 . S
O619 Co594 2.351 . S
O619 C622 1.244 . S
O620 Co594 2.155 . S
O620 C622 1.240 . S
O621 Co594 2.096 . S
O621 C602 1.247 . S
C622 O619 1.244 . S
C622 O620 1.240 . S
H623 C597 0.931 . S
H624 C606 0.931 . S
H625 C610 0.929 . S
H626 C612 0.930 . S
Co627 N631 2.148 . S
Co627 N637 2.128 . S
Co627 N647 2.194 . S
Co627 O652 2.351 . S
Co627 O653 2.155 . S
Co627 O654 2.096 . S
C628 N631 1.301 . S
C628 N632 1.328 . S
C628 H633 0.930 . S
C629 C630 1.333 . S
C629 N631 1.317 . S
C629 H634 0.930 . S
C630 C629 1.333 . S
C630 N632 1.350 . S
C630 H656 0.931 . S
N631 Co627 2.148 . S
N631 C628 1.301 . S
N631 C629 1.317 . S
N632 C628 1.328 . S
N632 C630 1.350 . S
H633 C628 0.930 . S
H634 C629 0.930 . S
C635 O636 1.224 . S
C635 O654 1.247 . S
O636 C635 1.224 . S
N637 Co627 2.128 . S
N637 C638 1.355 . S
N637 C640 1.311 . S
C638 N637 1.355 . S
C638 C639 1.363 . S
C638 H650 0.929 . S
C639 C638 1.363 . S
C639 N641 1.375 . S
C639 H657 0.931 . S
C640 N637 1.311 . S
C640 N641 1.347 . S
C640 H651 0.929 . S
N641 C639 1.375 . S
N641 C640 1.347 . S
C642 C645 1.365 . S
C642 N647 1.328 . S
C642 H648 0.929 . S
C643 C644 1.362 . S
C643 C646 1.378 . S
C643 H658 0.929 . S
C644 C643 1.362 . S
C644 C645 1.366 . S
C645 C642 1.365 . S
C645 C644 1.366 . S
C645 H659 0.930 . S
C646 C643 1.378 . S
C646 N647 1.315 . S
C646 H649 0.930 . S
N647 Co627 2.194 . S
N647 C642 1.328 . S
N647 C646 1.315 . S
H648 C642 0.929 . S
H649 C646 0.930 . S
H650 C638 0.929 . S
H651 C640 0.929 . S
O652 Co627 2.351 . S
O652 C655 1.244 . S
O653 Co627 2.155 . S
O653 C655 1.240 . S
O654 Co627 2.096 . S
O654 C635 1.247 . S
C655 O652 1.244 . S
C655 O653 1.240 . S
H656 C630 0.931 . S
H657 C639 0.931 . S
H658 C643 0.929 . S
H659 C645 0.930 . S
Co660 N664 2.148 . S
Co660 N670 2.128 . S
Co660 N680 2.194 . S
Co660 O685 2.351 . S
Co660 O686 2.155 . S
Co660 O687 2.096 . S
C661 N664 1.301 . S
C661 N665 1.328 . S
C661 H666 0.930 . S
C662 C663 1.333 . S
C662 N664 1.317 . S
C662 H667 0.930 . S
C663 C662 1.333 . S
C663 N665 1.350 . S
C663 H689 0.931 . S
N664 Co660 2.148 . S
N664 C661 1.301 . S
N664 C662 1.317 . S
N665 C661 1.328 . S
N665 C663 1.350 . S
H666 C661 0.930 . S
H667 C662 0.930 . S
C668 O669 1.224 . S
C668 O687 1.247 . S
O669 C668 1.224 . S
N670 Co660 2.128 . S
N670 C671 1.355 . S
N670 C673 1.311 . S
C671 N670 1.355 . S
C671 C672 1.363 . S
C671 H683 0.929 . S
C672 C671 1.363 . S
C672 N674 1.375 . S
C672 H690 0.931 . S
C673 N670 1.311 . S
C673 N674 1.347 . S
C673 H684 0.929 . S
N674 C672 1.375 . S
N674 C673 1.347 . S
C675 C678 1.365 . S
C675 N680 1.328 . S
C675 H681 0.929 . S
C676 C677 1.362 . S
C676 C679 1.378 . S
C676 H691 0.929 . S
C677 C676 1.362 . S
C677 C678 1.366 . S
C678 C675 1.365 . S
C678 C677 1.366 . S
C678 H692 0.930 . S
C679 C676 1.378 . S
C679 N680 1.315 . S
C679 H682 0.930 . S
N680 Co660 2.194 . S
N680 C675 1.328 . S
N680 C679 1.315 . S
H681 C675 0.929 . S
H682 C679 0.930 . S
H683 C671 0.929 . S
H684 C673 0.929 . S
O685 Co660 2.351 . S
O685 C688 1.244 . S
O686 Co660 2.155 . S
O686 C688 1.240 . S
O687 Co660 2.096 . S
O687 C668 1.247 . S
C688 O685 1.244 . S
C688 O686 1.240 . S
H689 C663 0.931 . S
H690 C672 0.931 . S
H691 C676 0.929 . S
H692 C678 0.930 . S
Co693 N697 2.148 . S
Co693 N703 2.128 . S
Co693 N713 2.194 . S
Co693 O718 2.351 . S
Co693 O719 2.155 . S
Co693 O720 2.096 . S
C694 N697 1.301 . S
C694 N698 1.328 . S
C694 H699 0.930 . S
C695 C696 1.333 . S
C695 N697 1.317 . S
C695 H700 0.930 . S
C696 C695 1.333 . S
C696 N698 1.350 . S
C696 H722 0.931 . S
N697 Co693 2.148 . S
N697 C694 1.301 . S
N697 C695 1.317 . S
N698 C694 1.328 . S
N698 C696 1.350 . S
H699 C694 0.930 . S
H700 C695 0.930 . S
C701 O702 1.224 . S
C701 O720 1.247 . S
O702 C701 1.224 . S
N703 Co693 2.128 . S
N703 C704 1.355 . S
N703 C706 1.311 . S
C704 N703 1.355 . S
C704 C705 1.363 . S
C704 H716 0.929 . S
C705 C704 1.363 . S
C705 N707 1.375 . S
C705 H723 0.931 . S
C706 N703 1.311 . S
C706 N707 1.347 . S
C706 H717 0.929 . S
N707 C705 1.375 . S
N707 C706 1.347 . S
C708 C711 1.365 . S
C708 N713 1.328 . S
C708 H714 0.929 . S
C709 C710 1.362 . S
C709 C712 1.378 . S
C709 H724 0.929 . S
C710 C709 1.362 . S
C710 C711 1.366 . S
C711 C708 1.365 . S
C711 C710 1.366 . S
C711 H725 0.930 . S
C712 C709 1.378 . S
C712 N713 1.315 . S
C712 H715 0.930 . S
N713 Co693 2.194 . S
N713 C708 1.328 . S
N713 C712 1.315 . S
H714 C708 0.929 . S
H715 C712 0.930 . S
H716 C704 0.929 . S
H717 C706 0.929 . S
O718 Co693 2.351 . S
O718 C721 1.244 . S
O719 Co693 2.155 . S
O719 C721 1.240 . S
O720 Co693 2.096 . S
O720 C701 1.247 . S
C721 O718 1.244 . S
C721 O719 1.240 . S
H722 C696 0.931 . S
H723 C705 0.931 . S
H724 C709 0.929 . S
H725 C711 0.930 . S
Co726 N730 2.148 . S
Co726 N736 2.128 . S
Co726 N746 2.194 . S
Co726 O751 2.351 . S
Co726 O752 2.155 . S
Co726 O753 2.096 . S
C727 N730 1.301 . S
C727 N731 1.328 . S
C727 H732 0.930 . S
C728 C729 1.333 . S
C728 N730 1.317 . S
C728 H733 0.930 . S
C729 C728 1.333 . S
C729 N731 1.350 . S
C729 H755 0.931 . S
N730 Co726 2.148 . S
N730 C727 1.301 . S
N730 C728 1.317 . S
N731 C727 1.328 . S
N731 C729 1.350 . S
H732 C727 0.930 . S
H733 C728 0.930 . S
C734 O735 1.224 . S
C734 O753 1.247 . S
O735 C734 1.224 . S
N736 Co726 2.128 . S
N736 C737 1.355 . S
N736 C739 1.311 . S
C737 N736 1.355 . S
C737 C738 1.363 . S
C737 H749 0.929 . S
C738 C737 1.363 . S
C738 N740 1.375 . S
C738 H756 0.931 . S
C739 N736 1.311 . S
C739 N740 1.347 . S
C739 H750 0.929 . S
N740 C738 1.375 . S
N740 C739 1.347 . S
C741 C744 1.365 . S
C741 N746 1.328 . S
C741 H747 0.929 . S
C742 C743 1.362 . S
C742 C745 1.378 . S
C742 H757 0.929 . S
C743 C742 1.362 . S
C743 C744 1.366 . S
C744 C741 1.365 . S
C744 C743 1.366 . S
C744 H758 0.930 . S
C745 C742 1.378 . S
C745 N746 1.315 . S
C745 H748 0.930 . S
N746 Co726 2.194 . S
N746 C741 1.328 . S
N746 C745 1.315 . S
H747 C741 0.929 . S
H748 C745 0.930 . S
H749 C737 0.929 . S
H750 C739 0.929 . S
O751 Co726 2.351 . S
O751 C754 1.244 . S
O752 Co726 2.155 . S
O752 C754 1.240 . S
O753 Co726 2.096 . S
O753 C734 1.247 . S
C754 O751 1.244 . S
C754 O752 1.240 . S
H755 C729 0.931 . S
H756 C738 0.931 . S
H757 C742 0.929 . S
H758 C744 0.930 . S
Co759 N763 2.148 . S
Co759 N769 2.128 . S
Co759 N779 2.194 . S
Co759 O784 2.351 . S
Co759 O785 2.155 . S
Co759 O786 2.096 . S
C760 N763 1.301 . S
C760 N764 1.328 . S
C760 H765 0.930 . S
C761 C762 1.333 . S
C761 N763 1.317 . S
C761 H766 0.930 . S
C762 C761 1.333 . S
C762 N764 1.350 . S
C762 H788 0.931 . S
N763 Co759 2.148 . S
N763 C760 1.301 . S
N763 C761 1.317 . S
N764 C760 1.328 . S
N764 C762 1.350 . S
H765 C760 0.930 . S
H766 C761 0.930 . S
C767 O768 1.224 . S
C767 O786 1.247 . S
O768 C767 1.224 . S
N769 Co759 2.128 . S
N769 C770 1.355 . S
N769 C772 1.311 . S
C770 N769 1.355 . S
C770 C771 1.363 . S
C770 H782 0.929 . S
C771 C770 1.363 . S
C771 N773 1.375 . S
C771 H789 0.931 . S
C772 N769 1.311 . S
C772 N773 1.347 . S
C772 H783 0.929 . S
N773 C771 1.375 . S
N773 C772 1.347 . S
C774 C777 1.365 . S
C774 N779 1.328 . S
C774 H780 0.929 . S
C775 C776 1.362 . S
C775 C778 1.378 . S
C775 H790 0.929 . S
C776 C775 1.362 . S
C776 C777 1.366 . S
C777 C774 1.365 . S
C777 C776 1.366 . S
C777 H791 0.930 . S
C778 C775 1.378 . S
C778 N779 1.315 . S
C778 H781 0.930 . S
N779 Co759 2.194 . S
N779 C774 1.328 . S
N779 C778 1.315 . S
H780 C774 0.929 . S
H781 C778 0.930 . S
H782 C770 0.929 . S
H783 C772 0.929 . S
O784 Co759 2.351 . S
O784 C787 1.244 . S
O785 Co759 2.155 . S
O785 C787 1.240 . S
O786 Co759 2.096 . S
O786 C767 1.247 . S
C787 O784 1.244 . S
C787 O785 1.240 . S
H788 C762 0.931 . S
H789 C771 0.931 . S
H790 C775 0.929 . S
H791 C777 0.930 . S
Co792 N796 2.148 . S
Co792 N802 2.128 . S
Co792 N812 2.194 . S
Co792 O817 2.351 . S
Co792 O818 2.155 . S
Co792 O819 2.096 . S
C793 N796 1.301 . S
C793 N797 1.328 . S
C793 H798 0.930 . S
C794 C795 1.333 . S
C794 N796 1.317 . S
C794 H799 0.930 . S
C795 C794 1.333 . S
C795 N797 1.350 . S
C795 H821 0.931 . S
N796 Co792 2.148 . S
N796 C793 1.301 . S
N796 C794 1.317 . S
N797 C793 1.328 . S
N797 C795 1.350 . S
H798 C793 0.930 . S
H799 C794 0.930 . S
C800 O801 1.224 . S
C800 O819 1.247 . S
O801 C800 1.224 . S
N802 Co792 2.128 . S
N802 C803 1.355 . S
N802 C805 1.311 . S
C803 N802 1.355 . S
C803 C804 1.363 . S
C803 H815 0.929 . S
C804 C803 1.363 . S
C804 N806 1.375 . S
C804 H822 0.931 . S
C805 N802 1.311 . S
C805 N806 1.347 . S
C805 H816 0.929 . S
N806 C804 1.375 . S
N806 C805 1.347 . S
C807 C810 1.365 . S
C807 N812 1.328 . S
C807 H813 0.929 . S
C808 C809 1.362 . S
C808 C811 1.378 . S
C808 H823 0.929 . S
C809 C808 1.362 . S
C809 C810 1.366 . S
C810 C807 1.365 . S
C810 C809 1.366 . S
C810 H824 0.930 . S
C811 C808 1.378 . S
C811 N812 1.315 . S
C811 H814 0.930 . S
N812 Co792 2.194 . S
N812 C807 1.328 . S
N812 C811 1.315 . S
H813 C807 0.929 . S
H814 C811 0.930 . S
H815 C803 0.929 . S
H816 C805 0.929 . S
O817 Co792 2.351 . S
O817 C820 1.244 . S
O818 Co792 2.155 . S
O818 C820 1.240 . S
O819 Co792 2.096 . S
O819 C800 1.247 . S
C820 O817 1.244 . S
C820 O818 1.240 . S
H821 C795 0.931 . S
H822 C804 0.931 . S
H823 C808 0.929 . S
H824 C810 0.930 . S
Co825 N829 2.148 . S
Co825 N835 2.128 . S
Co825 N845 2.194 . S
Co825 O850 2.351 . S
Co825 O851 2.155 . S
Co825 O852 2.096 . S
C826 N829 1.301 . S
C826 N830 1.328 . S
C826 H831 0.930 . S
C827 C828 1.333 . S
C827 N829 1.317 . S
C827 H832 0.930 . S
C828 C827 1.333 . S
C828 N830 1.350 . S
C828 H854 0.931 . S
N829 Co825 2.148 . S
N829 C826 1.301 . S
N829 C827 1.317 . S
N830 C826 1.328 . S
N830 C828 1.350 . S
H831 C826 0.930 . S
H832 C827 0.930 . S
C833 O834 1.224 . S
C833 O852 1.247 . S
O834 C833 1.224 . S
N835 Co825 2.128 . S
N835 C836 1.355 . S
N835 C838 1.311 . S
C836 N835 1.355 . S
C836 C837 1.363 . S
C836 H848 0.929 . S
C837 C836 1.363 . S
C837 N839 1.375 . S
C837 H855 0.931 . S
C838 N835 1.311 . S
C838 N839 1.347 . S
C838 H849 0.929 . S
N839 C837 1.375 . S
N839 C838 1.347 . S
C840 C843 1.365 . S
C840 N845 1.328 . S
C840 H846 0.929 . S
C841 C842 1.362 . S
C841 C844 1.378 . S
C841 H856 0.929 . S
C842 C841 1.362 . S
C842 C843 1.366 . S
C843 C840 1.365 . S
C843 C842 1.366 . S
C843 H857 0.930 . S
C844 C841 1.378 . S
C844 N845 1.315 . S
C844 H847 0.930 . S
N845 Co825 2.194 . S
N845 C840 1.328 . S
N845 C844 1.315 . S
H846 C840 0.929 . S
H847 C844 0.930 . S
H848 C836 0.929 . S
H849 C838 0.929 . S
O850 Co825 2.351 . S
O850 C853 1.244 . S
O851 Co825 2.155 . S
O851 C853 1.240 . S
O852 Co825 2.096 . S
O852 C833 1.247 . S
C853 O850 1.244 . S
C853 O851 1.240 . S
H854 C828 0.931 . S
H855 C837 0.931 . S
H856 C841 0.929 . S
H857 C843 0.930 . S
Co858 N862 2.148 . S
Co858 N868 2.128 . S
Co858 N878 2.194 . S
Co858 O883 2.351 . S
Co858 O884 2.155 . S
Co858 O885 2.096 . S
C859 N862 1.301 . S
C859 N863 1.328 . S
C859 H864 0.930 . S
C860 C861 1.333 . S
C860 N862 1.317 . S
C860 H865 0.930 . S
C861 C860 1.333 . S
C861 N863 1.350 . S
C861 H887 0.931 . S
N862 Co858 2.148 . S
N862 C859 1.301 . S
N862 C860 1.317 . S
N863 C859 1.328 . S
N863 C861 1.350 . S
H864 C859 0.930 . S
H865 C860 0.930 . S
C866 O867 1.224 . S
C866 O885 1.247 . S
O867 C866 1.224 . S
N868 Co858 2.128 . S
N868 C869 1.355 . S
N868 C871 1.311 . S
C869 N868 1.355 . S
C869 C870 1.363 . S
C869 H881 0.929 . S
C870 C869 1.363 . S
C870 N872 1.375 . S
C870 H888 0.931 . S
C871 N868 1.311 . S
C871 N872 1.347 . S
C871 H882 0.929 . S
N872 C870 1.375 . S
N872 C871 1.347 . S
C873 C876 1.365 . S
C873 N878 1.328 . S
C873 H879 0.929 . S
C874 C875 1.362 . S
C874 C877 1.378 . S
C874 H889 0.929 . S
C875 C874 1.362 . S
C875 C876 1.366 . S
C876 C873 1.365 . S
C876 C875 1.366 . S
C876 H890 0.930 . S
C877 C874 1.378 . S
C877 N878 1.315 . S
C877 H880 0.930 . S
N878 Co858 2.194 . S
N878 C873 1.328 . S
N878 C877 1.315 . S
H879 C873 0.929 . S
H880 C877 0.930 . S
H881 C869 0.929 . S
H882 C871 0.929 . S
O883 Co858 2.351 . S
O883 C886 1.244 . S
O884 Co858 2.155 . S
O884 C886 1.240 . S
O885 Co858 2.096 . S
O885 C866 1.247 . S
C886 O883 1.244 . S
C886 O884 1.240 . S
H887 C861 0.931 . S
H888 C870 0.931 . S
H889 C874 0.929 . S
H890 C876 0.930 . S
Co891 N895 2.148 . S
Co891 N901 2.128 . S
Co891 N911 2.194 . S
Co891 O916 2.351 . S
Co891 O917 2.155 . S
Co891 O918 2.096 . S
C892 N895 1.301 . S
C892 N896 1.328 . S
C892 H897 0.930 . S
C893 C894 1.333 . S
C893 N895 1.317 . S
C893 H898 0.930 . S
C894 C893 1.333 . S
C894 N896 1.350 . S
C894 H920 0.931 . S
N895 Co891 2.148 . S
N895 C892 1.301 . S
N895 C893 1.317 . S
N896 C892 1.328 . S
N896 C894 1.350 . S
H897 C892 0.930 . S
H898 C893 0.930 . S
C899 O900 1.224 . S
C899 O918 1.247 . S
O900 C899 1.224 . S
N901 Co891 2.128 . S
N901 C902 1.355 . S
N901 C904 1.311 . S
C902 N901 1.355 . S
C902 C903 1.363 . S
C902 H914 0.929 . S
C903 C902 1.363 . S
C903 N905 1.375 . S
C903 H921 0.931 . S
C904 N901 1.311 . S
C904 N905 1.347 . S
C904 H915 0.929 . S
N905 C903 1.375 . S
N905 C904 1.347 . S
C906 C909 1.365 . S
C906 N911 1.328 . S
C906 H912 0.929 . S
C907 C908 1.362 . S
C907 C910 1.378 . S
C907 H922 0.929 . S
C908 C907 1.362 . S
C908 C909 1.366 . S
C909 C906 1.365 . S
C909 C908 1.366 . S
C909 H923 0.930 . S
C910 C907 1.378 . S
C910 N911 1.315 . S
C910 H913 0.930 . S
N911 Co891 2.194 . S
N911 C906 1.328 . S
N911 C910 1.315 . S
H912 C906 0.929 . S
H913 C910 0.930 . S
H914 C902 0.929 . S
H915 C904 0.929 . S
O916 Co891 2.351 . S
O916 C919 1.244 . S
O917 Co891 2.155 . S
O917 C919 1.240 . S
O918 Co891 2.096 . S
O918 C899 1.247 . S
C919 O916 1.244 . S
C919 O917 1.240 . S
H920 C894 0.931 . S
H921 C903 0.931 . S
H922 C907 0.929 . S
H923 C909 0.930 . S
Co924 N928 2.148 . S
Co924 N934 2.128 . S
Co924 N944 2.194 . S
Co924 O949 2.351 . S
Co924 O950 2.155 . S
Co924 O951 2.096 . S
C925 N928 1.301 . S
C925 N929 1.328 . S
C925 H930 0.930 . S
C926 C927 1.333 . S
C926 N928 1.317 . S
C926 H931 0.930 . S
C927 C926 1.333 . S
C927 N929 1.350 . S
C927 H953 0.931 . S
N928 Co924 2.148 . S
N928 C925 1.301 . S
N928 C926 1.317 . S
N929 C925 1.328 . S
N929 C927 1.350 . S
H930 C925 0.930 . S
H931 C926 0.930 . S
C932 O933 1.224 . S
C932 O951 1.247 . S
O933 C932 1.224 . S
N934 Co924 2.128 . S
N934 C935 1.355 . S
N934 C937 1.311 . S
C935 N934 1.355 . S
C935 C936 1.363 . S
C935 H947 0.929 . S
C936 C935 1.363 . S
C936 N938 1.375 . S
C936 H954 0.931 . S
C937 N934 1.311 . S
C937 N938 1.347 . S
C937 H948 0.929 . S
N938 C936 1.375 . S
N938 C937 1.347 . S
C939 C942 1.365 . S
C939 N944 1.328 . S
C939 H945 0.929 . S
C940 C941 1.362 . S
C940 C943 1.378 . S
C940 H955 0.929 . S
C941 C940 1.362 . S
C941 C942 1.366 . S
C942 C939 1.365 . S
C942 C941 1.366 . S
C942 H956 0.930 . S
C943 C940 1.378 . S
C943 N944 1.315 . S
C943 H946 0.930 . S
N944 Co924 2.194 . S
N944 C939 1.328 . S
N944 C943 1.315 . S
H945 C939 0.929 . S
H946 C943 0.930 . S
H947 C935 0.929 . S
H948 C937 0.929 . S
O949 Co924 2.351 . S
O949 C952 1.244 . S
O950 Co924 2.155 . S
O950 C952 1.240 . S
O951 Co924 2.096 . S
O951 C932 1.247 . S
C952 O949 1.244 . S
C952 O950 1.240 . S
H953 C927 0.931 . S
H954 C936 0.931 . S
H955 C940 0.929 . S
H956 C942 0.930 . S
Co957 N961 2.148 . S
Co957 N967 2.128 . S
Co957 N977 2.194 . S
Co957 O982 2.351 . S
Co957 O983 2.155 . S
Co957 O984 2.096 . S
C958 N961 1.301 . S
C958 N962 1.328 . S
C958 H963 0.930 . S
C959 C960 1.333 . S
C959 N961 1.317 . S
C959 H964 0.930 . S
C960 C959 1.333 . S
C960 N962 1.350 . S
C960 H986 0.931 . S
N961 Co957 2.148 . S
N961 C958 1.301 . S
N961 C959 1.317 . S
N962 C958 1.328 . S
N962 C960 1.350 . S
H963 C958 0.930 . S
H964 C959 0.930 . S
C965 O966 1.224 . S
C965 O984 1.247 . S
O966 C965 1.224 . S
N967 Co957 2.128 . S
N967 C968 1.355 . S
N967 C970 1.311 . S
C968 N967 1.355 . S
C968 C969 1.363 . S
C968 H980 0.929 . S
C969 C968 1.363 . S
C969 N971 1.375 . S
C969 H987 0.931 . S
C970 N967 1.311 . S
C970 N971 1.347 . S
C970 H981 0.929 . S
N971 C969 1.375 . S
N971 C970 1.347 . S
C972 C975 1.365 . S
C972 N977 1.328 . S
C972 H978 0.929 . S
C973 C974 1.362 . S
C973 C976 1.378 . S
C973 H988 0.929 . S
C974 C973 1.362 . S
C974 C975 1.366 . S
C975 C972 1.365 . S
C975 C974 1.366 . S
C975 H989 0.930 . S
C976 C973 1.378 . S
C976 N977 1.315 . S
C976 H979 0.930 . S
N977 Co957 2.194 . S
N977 C972 1.328 . S
N977 C976 1.315 . S
H978 C972 0.929 . S
H979 C976 0.930 . S
H980 C968 0.929 . S
H981 C970 0.929 . S
O982 Co957 2.351 . S
O982 C985 1.244 . S
O983 Co957 2.155 . S
O983 C985 1.240 . S
O984 Co957 2.096 . S
O984 C965 1.247 . S
C985 O982 1.244 . S
C985 O983 1.240 . S
H986 C960 0.931 . S
H987 C969 0.931 . S
H988 C973 0.929 . S
H989 C975 0.930 . S
Co990 N994 2.148 . S
Co990 N1000 2.128 . S
Co990 N1010 2.194 . S
Co990 O1015 2.351 . S
Co990 O1016 2.155 . S
Co990 O1017 2.096 . S
C991 N994 1.301 . S
C991 N995 1.328 . S
C991 H996 0.930 . S
C992 C993 1.333 . S
C992 N994 1.317 . S
C992 H997 0.930 . S
C993 C992 1.333 . S
C993 N995 1.350 . S
C993 H1019 0.931 . S
N994 Co990 2.148 . S
N994 C991 1.301 . S
N994 C992 1.317 . S
N995 C991 1.328 . S
N995 C993 1.350 . S
H996 C991 0.930 . S
H997 C992 0.930 . S
C998 O999 1.224 . S
C998 O1017 1.247 . S
O999 C998 1.224 . S
N1000 Co990 2.128 . S
N1000 C1001 1.355 . S
N1000 C1003 1.311 . S
C1001 N1000 1.355 . S
C1001 C1002 1.363 . S
C1001 H1013 0.929 . S
C1002 C1001 1.363 . S
C1002 N1004 1.375 . S
C1002 H1020 0.931 . S
C1003 N1000 1.311 . S
C1003 N1004 1.347 . S
C1003 H1014 0.929 . S
N1004 C1002 1.375 . S
N1004 C1003 1.347 . S
C1005 C1008 1.365 . S
C1005 N1010 1.328 . S
C1005 H1011 0.929 . S
C1006 C1007 1.362 . S
C1006 C1009 1.378 . S
C1006 H1021 0.929 . S
C1007 C1006 1.362 . S
C1007 C1008 1.366 . S
C1008 C1005 1.365 . S
C1008 C1007 1.366 . S
C1008 H1022 0.930 . S
C1009 C1006 1.378 . S
C1009 N1010 1.315 . S
C1009 H1012 0.930 . S
N1010 Co990 2.194 . S
N1010 C1005 1.328 . S
N1010 C1009 1.315 . S
H1011 C1005 0.929 . S
H1012 C1009 0.930 . S
H1013 C1001 0.929 . S
H1014 C1003 0.929 . S
O1015 Co990 2.351 . S
O1015 C1018 1.244 . S
O1016 Co990 2.155 . S
O1016 C1018 1.240 . S
O1017 Co990 2.096 . S
O1017 C998 1.247 . S
C1018 O1015 1.244 . S
C1018 O1016 1.240 . S
H1019 C993 0.931 . S
H1020 C1002 0.931 . S
H1021 C1006 0.929 . S
H1022 C1008 0.930 . S
Co1023 N1027 2.148 . S
Co1023 N1033 2.128 . S
Co1023 N1043 2.194 . S
Co1023 O1048 2.351 . S
Co1023 O1049 2.155 . S
Co1023 O1050 2.096 . S
C1024 N1027 1.301 . S
C1024 N1028 1.328 . S
C1024 H1029 0.930 . S
C1025 C1026 1.333 . S
C1025 N1027 1.317 . S
C1025 H1030 0.930 . S
C1026 C1025 1.333 . S
C1026 N1028 1.350 . S
C1026 H1052 0.931 . S
N1027 Co1023 2.148 . S
N1027 C1024 1.301 . S
N1027 C1025 1.317 . S
N1028 C1024 1.328 . S
N1028 C1026 1.350 . S
H1029 C1024 0.930 . S
H1030 C1025 0.930 . S
C1031 O1032 1.224 . S
C1031 O1050 1.247 . S
O1032 C1031 1.224 . S
N1033 Co1023 2.128 . S
N1033 C1034 1.355 . S
N1033 C1036 1.311 . S
C1034 N1033 1.355 . S
C1034 C1035 1.363 . S
C1034 H1046 0.929 . S
C1035 C1034 1.363 . S
C1035 N1037 1.375 . S
C1035 H1053 0.931 . S
C1036 N1033 1.311 . S
C1036 N1037 1.347 . S
C1036 H1047 0.929 . S
N1037 C1035 1.375 . S
N1037 C1036 1.347 . S
C1038 C1041 1.365 . S
C1038 N1043 1.328 . S
C1038 H1044 0.929 . S
C1039 C1040 1.362 . S
C1039 C1042 1.378 . S
C1039 H1054 0.929 . S
C1040 C1039 1.362 . S
C1040 C1041 1.366 . S
C1041 C1038 1.365 . S
C1041 C1040 1.366 . S
C1041 H1055 0.930 . S
C1042 C1039 1.378 . S
C1042 N1043 1.315 . S
C1042 H1045 0.930 . S
N1043 Co1023 2.194 . S
N1043 C1038 1.328 . S
N1043 C1042 1.315 . S
H1044 C1038 0.929 . S
H1045 C1042 0.930 . S
H1046 C1034 0.929 . S
H1047 C1036 0.929 . S
O1048 Co1023 2.351 . S
O1048 C1051 1.244 . S
O1049 Co1023 2.155 . S
O1049 C1051 1.240 . S
O1050 Co1023 2.096 . S
O1050 C1031 1.247 . S
C1051 O1048 1.244 . S
C1051 O1049 1.240 . S
H1052 C1026 0.931 . S
H1053 C1035 0.931 . S
H1054 C1039 0.929 . S
H1055 C1041 0.930 . S
Co1056 N1060 2.148 . S
Co1056 N1066 2.128 . S
Co1056 N1076 2.194 . S
Co1056 O1081 2.351 . S
Co1056 O1082 2.155 . S
Co1056 O1083 2.096 . S
C1057 N1060 1.301 . S
C1057 N1061 1.328 . S
C1057 H1062 0.930 . S
C1058 C1059 1.333 . S
C1058 N1060 1.317 . S
C1058 H1063 0.930 . S
C1059 C1058 1.333 . S
C1059 N1061 1.350 . S
C1059 H1085 0.931 . S
N1060 Co1056 2.148 . S
N1060 C1057 1.301 . S
N1060 C1058 1.317 . S
N1061 C1057 1.328 . S
N1061 C1059 1.350 . S
H1062 C1057 0.930 . S
H1063 C1058 0.930 . S
C1064 O1065 1.224 . S
C1064 O1083 1.247 . S
O1065 C1064 1.224 . S
N1066 Co1056 2.128 . S
N1066 C1067 1.355 . S
N1066 C1069 1.311 . S
C1067 N1066 1.355 . S
C1067 C1068 1.363 . S
C1067 H1079 0.929 . S
C1068 C1067 1.363 . S
C1068 N1070 1.375 . S
C1068 H1086 0.931 . S
C1069 N1066 1.311 . S
C1069 N1070 1.347 . S
C1069 H1080 0.929 . S
N1070 C1068 1.375 . S
N1070 C1069 1.347 . S
C1071 C1074 1.365 . S
C1071 N1076 1.328 . S
C1071 H1077 0.929 . S
C1072 C1073 1.362 . S
C1072 C1075 1.378 . S
C1072 H1087 0.929 . S
C1073 C1072 1.362 . S
C1073 C1074 1.366 . S
C1074 C1071 1.365 . S
C1074 C1073 1.366 . S
C1074 H1088 0.930 . S
C1075 C1072 1.378 . S
C1075 N1076 1.315 . S
C1075 H1078 0.930 . S
N1076 Co1056 2.194 . S
N1076 C1071 1.328 . S
N1076 C1075 1.315 . S
H1077 C1071 0.929 . S
H1078 C1075 0.930 . S
H1079 C1067 0.929 . S
H1080 C1069 0.929 . S
O1081 Co1056 2.351 . S
O1081 C1084 1.244 . S
O1082 Co1056 2.155 . S
O1082 C1084 1.240 . S
O1083 Co1056 2.096 . S
O1083 C1064 1.247 . S
C1084 O1081 1.244 . S
C1084 O1082 1.240 . S
H1085 C1059 0.931 . S
H1086 C1068 0.931 . S
H1087 C1072 0.929 . S
H1088 C1074 0.930 . S
Co1089 N1093 2.148 . S
Co1089 N1099 2.128 . S
Co1089 N1109 2.194 . S
Co1089 O1114 2.351 . S
Co1089 O1115 2.155 . S
Co1089 O1116 2.096 . S
C1090 N1093 1.301 . S
C1090 N1094 1.328 . S
C1090 H1095 0.930 . S
C1091 C1092 1.333 . S
C1091 N1093 1.317 . S
C1091 H1096 0.930 . S
C1092 C1091 1.333 . S
C1092 N1094 1.350 . S
C1092 H1118 0.931 . S
N1093 Co1089 2.148 . S
N1093 C1090 1.301 . S
N1093 C1091 1.317 . S
N1094 C1090 1.328 . S
N1094 C1092 1.350 . S
H1095 C1090 0.930 . S
H1096 C1091 0.930 . S
C1097 O1098 1.224 . S
C1097 O1116 1.247 . S
O1098 C1097 1.224 . S
N1099 Co1089 2.128 . S
N1099 C1100 1.355 . S
N1099 C1102 1.311 . S
C1100 N1099 1.355 . S
C1100 C1101 1.363 . S
C1100 H1112 0.929 . S
C1101 C1100 1.363 . S
C1101 N1103 1.375 . S
C1101 H1119 0.931 . S
C1102 N1099 1.311 . S
C1102 N1103 1.347 . S
C1102 H1113 0.929 . S
N1103 C1101 1.375 . S
N1103 C1102 1.347 . S
C1104 C1107 1.365 . S
C1104 N1109 1.328 . S
C1104 H1110 0.929 . S
C1105 C1106 1.362 . S
C1105 C1108 1.378 . S
C1105 H1120 0.929 . S
C1106 C1105 1.362 . S
C1106 C1107 1.366 . S
C1107 C1104 1.365 . S
C1107 C1106 1.366 . S
C1107 H1121 0.930 . S
C1108 C1105 1.378 . S
C1108 N1109 1.315 . S
C1108 H1111 0.930 . S
N1109 Co1089 2.194 . S
N1109 C1104 1.328 . S
N1109 C1108 1.315 . S
H1110 C1104 0.929 . S
H1111 C1108 0.930 . S
H1112 C1100 0.929 . S
H1113 C1102 0.929 . S
O1114 Co1089 2.351 . S
O1114 C1117 1.244 . S
O1115 Co1089 2.155 . S
O1115 C1117 1.240 . S
O1116 Co1089 2.096 . S
O1116 C1097 1.247 . S
C1117 O1114 1.244 . S
C1117 O1115 1.240 . S
H1118 C1092 0.931 . S
H1119 C1101 0.931 . S
H1120 C1105 0.929 . S
H1121 C1107 0.930 . S
Co1122 N1126 2.148 . S
Co1122 N1132 2.128 . S
Co1122 N1142 2.194 . S
Co1122 O1147 2.351 . S
Co1122 O1148 2.155 . S
Co1122 O1149 2.096 . S
C1123 N1126 1.301 . S
C1123 N1127 1.328 . S
C1123 H1128 0.930 . S
C1124 C1125 1.333 . S
C1124 N1126 1.317 . S
C1124 H1129 0.930 . S
C1125 C1124 1.333 . S
C1125 N1127 1.350 . S
C1125 H1151 0.931 . S
N1126 Co1122 2.148 . S
N1126 C1123 1.301 . S
N1126 C1124 1.317 . S
N1127 C1123 1.328 . S
N1127 C1125 1.350 . S
H1128 C1123 0.930 . S
H1129 C1124 0.930 . S
C1130 O1131 1.224 . S
C1130 O1149 1.247 . S
O1131 C1130 1.224 . S
N1132 Co1122 2.128 . S
N1132 C1133 1.355 . S
N1132 C1135 1.311 . S
C1133 N1132 1.355 . S
C1133 C1134 1.363 . S
C1133 H1145 0.929 . S
C1134 C1133 1.363 . S
C1134 N1136 1.375 . S
C1134 H1152 0.931 . S
C1135 N1132 1.311 . S
C1135 N1136 1.347 . S
C1135 H1146 0.929 . S
N1136 C1134 1.375 . S
N1136 C1135 1.347 . S
C1137 C1140 1.365 . S
C1137 N1142 1.328 . S
C1137 H1143 0.929 . S
C1138 C1139 1.362 . S
C1138 C1141 1.378 . S
C1138 H1153 0.929 . S
C1139 C1138 1.362 . S
C1139 C1140 1.366 . S
C1140 C1137 1.365 . S
C1140 C1139 1.366 . S
C1140 H1154 0.930 . S
C1141 C1138 1.378 . S
C1141 N1142 1.315 . S
C1141 H1144 0.930 . S
N1142 Co1122 2.194 . S
N1142 C1137 1.328 . S
N1142 C1141 1.315 . S
H1143 C1137 0.929 . S
H1144 C1141 0.930 . S
H1145 C1133 0.929 . S
H1146 C1135 0.929 . S
O1147 Co1122 2.351 . S
O1147 C1150 1.244 . S
O1148 Co1122 2.155 . S
O1148 C1150 1.240 . S
O1149 Co1122 2.096 . S
O1149 C1130 1.247 . S
C1150 O1147 1.244 . S
C1150 O1148 1.240 . S
H1151 C1125 0.931 . S
H1152 C1134 0.931 . S
H1153 C1138 0.929 . S
H1154 C1140 0.930 . S
Co1155 N1159 2.148 . S
Co1155 N1165 2.128 . S
Co1155 N1175 2.194 . S
Co1155 O1180 2.351 . S
Co1155 O1181 2.155 . S
Co1155 O1182 2.096 . S
C1156 N1159 1.301 . S
C1156 N1160 1.328 . S
C1156 H1161 0.930 . S
C1157 C1158 1.333 . S
C1157 N1159 1.317 . S
C1157 H1162 0.930 . S
C1158 C1157 1.333 . S
C1158 N1160 1.350 . S
C1158 H1184 0.931 . S
N1159 Co1155 2.148 . S
N1159 C1156 1.301 . S
N1159 C1157 1.317 . S
N1160 C1156 1.328 . S
N1160 C1158 1.350 . S
H1161 C1156 0.930 . S
H1162 C1157 0.930 . S
C1163 O1164 1.224 . S
C1163 O1182 1.247 . S
O1164 C1163 1.224 . S
N1165 Co1155 2.128 . S
N1165 C1166 1.355 . S
N1165 C1168 1.311 . S
C1166 N1165 1.355 . S
C1166 C1167 1.363 . S
C1166 H1178 0.929 . S
C1167 C1166 1.363 . S
C1167 N1169 1.375 . S
C1167 H1185 0.931 . S
C1168 N1165 1.311 . S
C1168 N1169 1.347 . S
C1168 H1179 0.929 . S
N1169 C1167 1.375 . S
N1169 C1168 1.347 . S
C1170 C1173 1.365 . S
C1170 N1175 1.328 . S
C1170 H1176 0.929 . S
C1171 C1172 1.362 . S
C1171 C1174 1.378 . S
C1171 H1186 0.929 . S
C1172 C1171 1.362 . S
C1172 C1173 1.366 . S
C1173 C1170 1.365 . S
C1173 C1172 1.366 . S
C1173 H1187 0.930 . S
C1174 C1171 1.378 . S
C1174 N1175 1.315 . S
C1174 H1177 0.930 . S
N1175 Co1155 2.194 . S
N1175 C1170 1.328 . S
N1175 C1174 1.315 . S
H1176 C1170 0.929 . S
H1177 C1174 0.930 . S
H1178 C1166 0.929 . S
H1179 C1168 0.929 . S
O1180 Co1155 2.351 . S
O1180 C1183 1.244 . S
O1181 Co1155 2.155 . S
O1181 C1183 1.240 . S
O1182 Co1155 2.096 . S
O1182 C1163 1.247 . S
C1183 O1180 1.244 . S
C1183 O1181 1.240 . S
H1184 C1158 0.931 . S
H1185 C1167 0.931 . S
H1186 C1171 0.929 . S
H1187 C1173 0.930 . S
H1188 C1194 0.930 1_556 S
H1189 C1197 0.930 . S
H1190 C1198 0.930 . S
H1191 C1199 0.930 . S
H1192 C1202 0.930 1_556 S
H1193 C1203 0.930 1_556 S
C1194 H1188 0.930 1_554 S
C1194 C1195 1.355 . S
C1194 C1196 1.415 . S
C1195 C1194 1.355 . S
C1195 C1197 1.419 . S
C1196 C1194 1.415 . S
C1196 C1201 1.425 . S
C1196 C1203 1.409 . S
C1197 H1189 0.930 . S
C1197 C1195 1.419 . S
C1197 C1198 1.362 . S
C1198 H1190 0.930 . S
C1198 C1197 1.362 . S
C1198 C1201 1.409 . S
C1199 H1191 0.930 . S
C1199 C1200 1.355 . S
C1199 C1201 1.415 . S
C1200 C1199 1.355 . S
C1200 C1202 1.419 . S
C1201 C1196 1.425 . S
C1201 C1198 1.409 . S
C1201 C1199 1.415 . S
C1202 H1192 0.930 1_554 S
C1202 C1200 1.419 . S
C1202 C1203 1.362 . S
C1203 H1193 0.930 1_554 S
C1203 C1196 1.409 . S
C1203 C1202 1.362 . S
H1204 C1210 0.930 . S
H1205 C1213 0.930 . S
H1206 C1214 0.930 . S
H1207 C1215 0.919 1_556 S
H1208 C1218 0.930 . S
H1209 C1219 0.930 . S
C1210 H1204 0.930 . S
C1210 C1211 1.355 . S
C1210 C1212 1.415 . S
C1211 C1210 1.355 . S
C1211 C1213 1.419 1_554 S
C1212 C1210 1.415 . S
C1212 C1217 1.425 . S
C1212 C1219 1.409 . S
C1213 H1205 0.930 . S
C1213 C1211 1.419 1_556 S
C1213 C1214 1.362 . S
C1214 H1206 0.930 . S
C1214 C1213 1.362 . S
C1214 C1217 1.409 1_556 S
C1215 H1207 0.919 1_554 S
C1215 C1216 1.363 . S
C1215 C1217 1.418 . S
C1216 C1215 1.363 . S
C1216 C1218 1.419 . S
C1217 C1212 1.425 . S
C1217 C1214 1.409 1_554 S
C1217 C1215 1.418 . S
C1218 H1208 0.930 . S
C1218 C1216 1.419 . S
C1218 C1219 1.362 . S
C1219 H1209 0.930 . S
C1219 C1212 1.409 . S
C1219 C1218 1.362 . S
H1220 C1226 0.930 . S
H1221 C1229 0.930 . S
H1222 C1230 0.930 . S
H1223 C1231 0.930 . S
H1224 C1234 0.930 . S
H1225 C1235 0.930 . S
C1226 H1220 0.930 . S
C1226 C1227 1.355 . S
C1226 C1228 1.415 . S
C1227 C1226 1.355 . S
C1227 C1229 1.419 1_554 S
C1228 C1226 1.415 . S
C1228 C1233 1.425 1_554 S
C1228 C1235 1.409 . S
C1229 H1221 0.930 . S
C1229 C1227 1.419 1_556 S
C1229 C1230 1.362 . S
C1230 H1222 0.930 . S
C1230 C1229 1.362 . S
C1230 C1233 1.409 . S
C1231 H1223 0.930 . S
C1231 C1232 1.355 1_556 S
C1231 C1233 1.415 . S
C1232 C1231 1.355 1_554 S
C1232 C1234 1.419 . S
C1233 C1228 1.425 1_556 S
C1233 C1230 1.409 . S
C1233 C1231 1.415 . S
C1234 H1224 0.930 . S
C1234 C1232 1.419 . S
C1234 C1235 1.362 . S
C1235 H1225 0.930 . S
C1235 C1228 1.409 . S
C1235 C1234 1.362 . S
H1236 C1242 0.930 . S
H1237 C1245 0.930 . S
H1238 C1246 0.930 . S
H1239 C1247 0.930 . S
H1240 C1250 0.930 . S
H1241 C1251 0.930 . S
C1242 H1236 0.930 . S
C1242 C1243 1.355 . S
C1242 C1244 1.415 . S
C1243 C1242 1.355 . S
C1243 C1245 1.419 . S
C1244 C1242 1.415 . S
C1244 C1249 1.425 . S
C1244 C1251 1.409 . S
C1245 H1237 0.930 . S
C1245 C1243 1.419 . S
C1245 C1246 1.362 . S
C1246 H1238 0.930 . S
C1246 C1245 1.362 . S
C1246 C1249 1.409 . S
C1247 H1239 0.930 . S
C1247 C1248 1.355 . S
C1247 C1249 1.415 . S
C1248 C1247 1.355 . S
C1248 C1250 1.419 . S
C1249 C1244 1.425 . S
C1249 C1246 1.409 . S
C1249 C1247 1.415 . S
C1250 H1240 0.930 . S
C1250 C1248 1.419 . S
C1250 C1251 1.362 . S
C1251 H1241 0.930 . S
C1251 C1244 1.409 . S
C1251 C1250 1.362 . S
H1252 C1258 0.930 . S
H1253 C1261 0.930 . S
H1254 C1262 0.930 . S
H1255 C1263 0.930 . S
H1256 C1266 0.930 . S
H1257 C1267 0.930 . S
C1258 H1252 0.930 . S
C1258 C1259 1.355 . S
C1258 C1260 1.415 . S
C1259 C1258 1.355 . S
C1259 C1261 1.419 . S
C1260 C1258 1.415 . S
C1260 C1265 1.425 . S
C1260 C1267 1.409 . S
C1261 H1253 0.930 . S
C1261 C1259 1.419 . S
C1261 C1262 1.362 . S
C1262 H1254 0.930 . S
C1262 C1261 1.362 . S
C1262 C1265 1.409 . S
C1263 H1255 0.930 . S
C1263 C1264 1.355 . S
C1263 C1265 1.415 . S
C1264 C1263 1.355 . S
C1264 C1266 1.419 . S
C1265 C1260 1.425 . S
C1265 C1262 1.409 . S
C1265 C1263 1.415 . S
C1266 H1256 0.930 . S
C1266 C1264 1.419 . S
C1266 C1267 1.362 . S
C1267 H1257 0.930 . S
C1267 C1260 1.409 . S
C1267 C1266 1.362 . S
H1268 C1274 0.930 . S
H1269 C1277 0.930 . S
H1270 C1278 0.930 . S
H1271 C1279 0.930 . S
H1272 C1282 0.930 . S
H1273 C1283 0.930 . S
C1274 H1268 0.930 . S
C1274 C1275 1.355 . S
C1274 C1276 1.415 . S
C1275 C1274 1.355 . S
C1275 C1277 1.419 . S
C1276 C1274 1.415 . S
C1276 C1281 1.425 . S
C1276 C1283 1.409 . S
C1277 H1269 0.930 . S
C1277 C1275 1.419 . S
C1277 C1278 1.362 . S
C1278 H1270 0.930 . S
C1278 C1277 1.362 . S
C1278 C1281 1.409 . S
C1279 H1271 0.930 . S
C1279 C1280 1.355 . S
C1279 C1281 1.415 . S
C1280 C1279 1.355 . S
C1280 C1282 1.419 . S
C1281 C1276 1.425 . S
C1281 C1278 1.409 . S
C1281 C1279 1.415 . S
C1282 H1272 0.930 . S
C1282 C1280 1.419 . S
C1282 C1283 1.362 . S
C1283 H1273 0.930 . S
C1283 C1276 1.409 . S
C1283 C1282 1.362 . S
H1284 C1290 0.930 . S
H1285 C1293 0.930 . S
H1286 C1294 0.930 . S
H1287 C1295 0.931 1_554 S
H1288 C1298 0.930 . S
H1289 C1299 0.930 . S
C1290 H1284 0.930 . S
C1290 C1291 1.355 . S
C1290 C1292 1.415 . S
C1291 C1290 1.355 . S
C1291 C1293 1.419 1_556 S
C1292 C1290 1.415 . S
C1292 C1297 1.425 . S
C1292 C1299 1.409 . S
C1293 H1285 0.930 . S
C1293 C1291 1.419 1_554 S
C1293 C1294 1.362 . S
C1294 H1286 0.930 . S
C1294 C1293 1.362 . S
C1294 C1297 1.409 1_554 S
C1295 H1287 0.931 1_556 S
C1295 C1296 1.354 . S
C1295 C1297 1.414 . S
C1296 C1295 1.354 . S
C1296 C1298 1.419 . S
C1297 C1292 1.425 . S
C1297 C1294 1.409 1_556 S
C1297 C1295 1.414 . S
C1298 H1288 0.930 . S
C1298 C1296 1.419 . S
C1298 C1299 1.362 . S
C1299 H1289 0.930 . S
C1299 C1292 1.409 . S
C1299 C1298 1.362 . S
H1300 C1306 0.930 . S
H1301 C1309 0.930 . S
H1302 C1310 0.930 . S
H1303 C1311 0.930 . S
H1304 C1314 0.930 . S
H1305 C1315 0.930 . S
C1306 H1300 0.930 . S
C1306 C1307 1.355 . S
C1306 C1308 1.415 . S
C1307 C1306 1.355 . S
C1307 C1309 1.419 . S
C1308 C1306 1.415 . S
C1308 C1313 1.425 . S
C1308 C1315 1.409 . S
C1309 H1301 0.930 . S
C1309 C1307 1.419 . S
C1309 C1310 1.362 . S
C1310 H1302 0.930 . S
C1310 C1309 1.362 . S
C1310 C1313 1.409 . S
C1311 H1303 0.930 . S
C1311 C1312 1.355 . S
C1311 C1313 1.415 . S
C1312 C1311 1.355 . S
C1312 C1314 1.419 . S
C1313 C1308 1.425 . S
C1313 C1310 1.409 . S
C1313 C1311 1.415 . S
C1314 H1304 0.930 . S
C1314 C1312 1.419 . S
C1314 C1315 1.362 . S
C1315 H1305 0.930 . S
C1315 C1308 1.409 . S
C1315 C1314 1.362 . S
H1316 C1322 0.930 . S
H1317 C1325 0.930 . S
H1318 C1326 0.930 . S
H1319 C1327 0.930 . S
H1320 C1330 0.930 . S
H1321 C1331 0.930 . S
C1322 H1316 0.930 . S
C1322 C1323 1.355 1_554 S
C1322 C1324 1.415 1_554 S
C1323 C1322 1.355 1_556 S
C1323 C1325 1.419 . S
C1324 C1322 1.415 1_556 S
C1324 C1329 1.425 . S
C1324 C1331 1.409 1_556 S
C1325 H1317 0.930 . S
C1325 C1323 1.419 . S
C1325 C1326 1.362 . S
C1326 H1318 0.930 . S
C1326 C1325 1.362 . S
C1326 C1329 1.409 . S
C1327 H1319 0.930 . S
C1327 C1328 1.355 . S
C1327 C1329 1.415 . S
C1328 C1327 1.355 . S
C1328 C1330 1.419 1_556 S
C1329 C1324 1.425 . S
C1329 C1326 1.409 . S
C1329 C1327 1.415 . S
C1330 H1320 0.930 . S
C1330 C1328 1.419 1_554 S
C1330 C1331 1.362 . S
C1331 H1321 0.930 . S
C1331 C1324 1.409 1_554 S
C1331 C1330 1.362 . S
H1332 C1338 0.930 . S
H1333 C1341 0.930 . S
H1334 C1342 0.930 . S
H1335 C1343 0.930 . S
H1336 C1346 0.930 . S
H1337 C1347 0.930 . S
C1338 H1332 0.930 . S
C1338 C1339 1.355 . S
C1338 C1340 1.415 . S
C1339 C1338 1.355 . S
C1339 C1341 1.419 . S
C1340 C1338 1.415 . S
C1340 C1345 1.425 . S
C1340 C1347 1.409 . S
C1341 H1333 0.930 . S
C1341 C1339 1.419 . S
C1341 C1342 1.362 . S
C1342 H1334 0.930 . S
C1342 C1341 1.362 . S
C1342 C1345 1.409 . S
C1343 H1335 0.930 . S
C1343 C1344 1.355 . S
C1343 C1345 1.415 . S
C1344 C1343 1.355 . S
C1344 C1346 1.419 . S
C1345 C1340 1.425 . S
C1345 C1342 1.409 . S
C1345 C1343 1.415 . S
C1346 H1336 0.930 . S
C1346 C1344 1.419 . S
C1346 C1347 1.362 . S
C1347 H1337 0.930 . S
C1347 C1340 1.409 . S
C1347 C1346 1.362 . S
H1348 C1354 0.930 . S
H1349 C1357 0.930 . S
H1350 C1358 0.930 . S
H1351 C1359 0.930 . S
H1352 C1362 0.930 . S
H1353 C1363 0.930 . S
C1354 H1348 0.930 . S
C1354 C1355 1.355 . S
C1354 C1356 1.415 . S
C1355 C1354 1.355 . S
C1355 C1357 1.419 . S
C1356 C1354 1.415 . S
C1356 C1361 1.425 . S
C1356 C1363 1.409 . S
C1357 H1349 0.930 . S
C1357 C1355 1.419 . S
C1357 C1358 1.362 . S
C1358 H1350 0.930 . S
C1358 C1357 1.362 . S
C1358 C1361 1.409 . S
C1359 H1351 0.930 . S
C1359 C1360 1.355 . S
C1359 C1361 1.415 . S
C1360 C1359 1.355 . S
C1360 C1362 1.419 . S
C1361 C1356 1.425 . S
C1361 C1358 1.409 . S
C1361 C1359 1.415 . S
C1362 H1352 0.930 . S
C1362 C1360 1.419 . S
C1362 C1363 1.362 . S
C1363 H1353 0.930 . S
C1363 C1356 1.409 . S
C1363 C1362 1.362 . S
H1364 C1370 0.930 . S
H1365 C1373 0.930 . S
H1366 C1374 0.930 . S
H1367 C1375 0.930 . S
H1368 C1378 0.930 . S
H1369 C1379 0.930 . S
C1370 H1364 0.930 . S
C1370 C1371 1.355 . S
C1370 C1372 1.415 . S
C1371 C1370 1.355 . S
C1371 C1373 1.419 . S
C1372 C1370 1.415 . S
C1372 C1377 1.425 . S
C1372 C1379 1.409 . S
C1373 H1365 0.930 . S
C1373 C1371 1.419 . S
C1373 C1374 1.362 . S
C1374 H1366 0.930 . S
C1374 C1373 1.362 . S
C1374 C1377 1.409 . S
C1375 H1367 0.930 . S
C1375 C1376 1.355 . S
C1375 C1377 1.415 . S
C1376 C1375 1.355 . S
C1376 C1378 1.419 . S
C1377 C1372 1.425 . S
C1377 C1374 1.409 . S
C1377 C1375 1.415 . S
C1378 H1368 0.930 . S
C1378 C1376 1.419 . S
C1378 C1379 1.362 . S
C1379 H1369 0.930 . S
C1379 C1372 1.409 . S
C1379 C1378 1.362 . S
H1380 C1386 0.930 . S
H1381 C1389 0.930 . S
H1382 C1390 0.930 . S
H1383 C1391 0.930 . S
H1384 C1394 0.930 . S
H1385 C1395 0.930 . S
C1386 H1380 0.930 . S
C1386 C1387 1.355 . S
C1386 C1388 1.415 . S
C1387 C1386 1.355 . S
C1387 C1389 1.419 . S
C1388 C1386 1.415 . S
C1388 C1393 1.425 . S
C1388 C1395 1.409 . S
C1389 H1381 0.930 . S
C1389 C1387 1.419 . S
C1389 C1390 1.362 . S
C1390 H1382 0.930 . S
C1390 C1389 1.362 . S
C1390 C1393 1.409 . S
C1391 H1383 0.930 . S
C1391 C1392 1.355 . S
C1391 C1393 1.415 . S
C1392 C1391 1.355 . S
C1392 C1394 1.419 . S
C1393 C1388 1.425 . S
C1393 C1390 1.409 . S
C1393 C1391 1.415 . S
C1394 H1384 0.930 . S
C1394 C1392 1.419 . S
C1394 C1395 1.362 . S
C1395 H1385 0.930 . S
C1395 C1388 1.409 . S
C1395 C1394 1.362 . S
H1396 C1402 0.930 . S
H1397 C1405 0.930 . S
H1398 C1406 0.930 . S
H1399 C1407 0.930 . S
H1400 C1410 0.930 . S
H1401 C1411 0.930 . S
C1402 H1396 0.930 . S
C1402 C1403 1.355 . S
C1402 C1404 1.415 . S
C1403 C1402 1.355 . S
C1403 C1405 1.419 . S
C1404 C1402 1.415 . S
C1404 C1409 1.425 . S
C1404 C1411 1.409 . S
C1405 H1397 0.930 . S
C1405 C1403 1.419 . S
C1405 C1406 1.362 . S
C1406 H1398 0.930 . S
C1406 C1405 1.362 . S
C1406 C1409 1.409 . S
C1407 H1399 0.930 . S
C1407 C1408 1.355 . S
C1407 C1409 1.415 . S
C1408 C1407 1.355 . S
C1408 C1410 1.419 . S
C1409 C1404 1.425 . S
C1409 C1406 1.409 . S
C1409 C1407 1.415 . S
C1410 H1400 0.930 . S
C1410 C1408 1.419 . S
C1410 C1411 1.362 . S
C1411 H1401 0.930 . S
C1411 C1404 1.409 . S
C1411 C1410 1.362 . S
H1412 C1418 0.930 . S
H1413 C1421 0.930 . S
H1414 C1422 0.930 . S
H1415 C1423 0.930 . S
H1416 C1426 0.930 . S
H1417 C1427 0.930 . S
C1418 H1412 0.930 . S
C1418 C1419 1.355 . S
C1418 C1420 1.415 . S
C1419 C1418 1.355 . S
C1419 C1421 1.419 . S
C1420 C1418 1.415 . S
C1420 C1425 1.425 . S
C1420 C1427 1.409 . S
C1421 H1413 0.930 . S
C1421 C1419 1.419 . S
C1421 C1422 1.362 . S
C1422 H1414 0.930 . S
C1422 C1421 1.362 . S
C1422 C1425 1.409 . S
C1423 H1415 0.930 . S
C1423 C1424 1.355 . S
C1423 C1425 1.415 . S
C1424 C1423 1.355 . S
C1424 C1426 1.419 . S
C1425 C1420 1.425 . S
C1425 C1422 1.409 . S
C1425 C1423 1.415 . S
C1426 H1416 0.930 . S
C1426 C1424 1.419 . S
C1426 C1427 1.362 . S
C1427 H1417 0.930 . S
C1427 C1420 1.409 . S
C1427 C1426 1.362 . S
H1428 C1434 0.930 . S
H1429 C1437 0.930 . S
H1430 C1438 0.930 . S
H1431 C1439 0.930 . S
H1432 C1442 0.930 . S
H1433 C1443 0.930 . S
C1434 H1428 0.930 . S
C1434 C1435 1.355 . S
C1434 C1436 1.415 . S
C1435 C1434 1.355 . S
C1435 C1437 1.419 . S
C1436 C1434 1.415 . S
C1436 C1441 1.425 . S
C1436 C1443 1.409 . S
C1437 H1429 0.930 . S
C1437 C1435 1.419 . S
C1437 C1438 1.362 . S
C1438 H1430 0.930 . S
C1438 C1437 1.362 . S
C1438 C1441 1.409 . S
C1439 H1431 0.930 . S
C1439 C1440 1.355 . S
C1439 C1441 1.415 . S
C1440 C1439 1.355 . S
C1440 C1442 1.419 . S
C1441 C1436 1.425 . S
C1441 C1438 1.409 . S
C1441 C1439 1.415 . S
C1442 H1432 0.930 . S
C1442 C1440 1.419 . S
C1442 C1443 1.362 . S
C1443 H1433 0.930 . S
C1443 C1436 1.409 . S
C1443 C1442 1.362 . S
H1444 C1450 0.930 . S
H1445 C1453 0.930 . S
H1446 C1454 0.930 . S
H1447 C1455 0.930 . S
H1448 C1458 0.930 . S
H1449 C1459 0.930 . S
C1450 H1444 0.930 . S
C1450 C1451 1.355 . S
C1450 C1452 1.415 . S
C1451 C1450 1.355 . S
C1451 C1453 1.419 . S
C1452 C1450 1.415 . S
C1452 C1457 1.425 . S
C1452 C1459 1.409 . S
C1453 H1445 0.930 . S
C1453 C1451 1.419 . S
C1453 C1454 1.362 . S
C1454 H1446 0.930 . S
C1454 C1453 1.362 . S
C1454 C1457 1.409 . S
C1455 H1447 0.930 . S
C1455 C1456 1.355 . S
C1455 C1457 1.415 . S
C1456 C1455 1.355 . S
C1456 C1458 1.419 . S
C1457 C1452 1.425 . S
C1457 C1454 1.409 . S
C1457 C1455 1.415 . S
C1458 H1448 0.930 . S
C1458 C1456 1.419 . S
C1458 C1459 1.362 . S
C1459 H1449 0.930 . S
C1459 C1452 1.409 . S
C1459 C1458 1.362 . S
H1460 C1466 0.930 . S
H1461 C1469 0.930 . S
H1462 C1470 0.930 . S
H1463 C1471 0.930 . S
H1464 C1474 0.930 . S
H1465 C1475 0.930 . S
C1466 H1460 0.930 . S
C1466 C1467 1.355 . S
C1466 C1468 1.415 . S
C1467 C1466 1.355 . S
C1467 C1469 1.419 . S
C1468 C1466 1.415 . S
C1468 C1473 1.425 . S
C1468 C1475 1.409 . S
C1469 H1461 0.930 . S
C1469 C1467 1.419 . S
C1469 C1470 1.362 . S
C1470 H1462 0.930 . S
C1470 C1469 1.362 . S
C1470 C1473 1.409 . S
C1471 H1463 0.930 . S
C1471 C1472 1.355 . S
C1471 C1473 1.415 . S
C1472 C1471 1.355 . S
C1472 C1474 1.419 . S
C1473 C1468 1.425 . S
C1473 C1470 1.409 . S
C1473 C1471 1.415 . S
C1474 H1464 0.930 . S
C1474 C1472 1.419 . S
C1474 C1475 1.362 . S
C1475 H1465 0.930 . S
C1475 C1468 1.409 . S
C1475 C1474 1.362 . S
H1476 C1482 0.930 . S
H1477 C1485 0.930 . S
H1478 C1486 0.930 . S
H1479 C1487 0.930 . S
H1480 C1490 0.930 . S
H1481 C1491 0.930 . S
C1482 H1476 0.930 . S
C1482 C1483 1.355 . S
C1482 C1484 1.415 . S
C1483 C1482 1.355 . S
C1483 C1485 1.419 . S
C1484 C1482 1.415 . S
C1484 C1489 1.425 . S
C1484 C1491 1.409 . S
C1485 H1477 0.930 . S
C1485 C1483 1.419 . S
C1485 C1486 1.362 . S
C1486 H1478 0.930 . S
C1486 C1485 1.362 . S
C1486 C1489 1.409 . S
C1487 H1479 0.930 . S
C1487 C1488 1.355 . S
C1487 C1489 1.415 . S
C1488 C1487 1.355 . S
C1488 C1490 1.419 . S
C1489 C1484 1.425 . S
C1489 C1486 1.409 . S
C1489 C1487 1.415 . S
C1490 H1480 0.930 . S
C1490 C1488 1.419 . S
C1490 C1491 1.362 . S
C1491 H1481 0.930 . S
C1491 C1484 1.409 . S
C1491 C1490 1.362 . S
H1492 C1498 0.930 . S
H1493 C1501 0.930 . S
H1494 C1502 0.930 . S
H1495 C1503 0.930 . S
H1496 C1506 0.930 . S
H1497 C1507 0.930 . S
C1498 H1492 0.930 . S
C1498 C1499 1.355 . S
C1498 C1500 1.415 . S
C1499 C1498 1.355 . S
C1499 C1501 1.419 . S
C1500 C1498 1.415 . S
C1500 C1505 1.425 . S
C1500 C1507 1.409 . S
C1501 H1493 0.930 . S
C1501 C1499 1.419 . S
C1501 C1502 1.362 . S
C1502 H1494 0.930 . S
C1502 C1501 1.362 . S
C1502 C1505 1.409 . S
C1503 H1495 0.930 . S
C1503 C1504 1.355 . S
C1503 C1505 1.415 . S
C1504 C1503 1.355 . S
C1504 C1506 1.419 . S
C1505 C1500 1.425 . S
C1505 C1502 1.409 . S
C1505 C1503 1.415 . S
C1506 H1496 0.930 . S
C1506 C1504 1.419 . S
C1506 C1507 1.362 . S
C1507 H1497 0.930 . S
C1507 C1500 1.409 . S
C1507 C1506 1.362 . S
H1508 C1514 0.930 . S
H1509 C1517 0.930 . S
H1510 C1518 0.930 . S
H1511 C1519 0.930 . S
H1512 C1522 0.930 . S
H1513 C1523 0.930 . S
C1514 H1508 0.930 . S
C1514 C1515 1.355 . S
C1514 C1516 1.415 . S
C1515 C1514 1.355 . S
C1515 C1517 1.419 . S
C1516 C1514 1.415 . S
C1516 C1521 1.425 . S
C1516 C1523 1.409 . S
C1517 H1509 0.930 . S
C1517 C1515 1.419 . S
C1517 C1518 1.362 . S
C1518 H1510 0.930 . S
C1518 C1517 1.362 . S
C1518 C1521 1.409 . S
C1519 H1511 0.930 . S
C1519 C1520 1.355 . S
C1519 C1521 1.415 . S
C1520 C1519 1.355 . S
C1520 C1522 1.419 . S
C1521 C1516 1.425 . S
C1521 C1518 1.409 . S
C1521 C1519 1.415 . S
C1522 H1512 0.930 . S
C1522 C1520 1.419 . S
C1522 C1523 1.362 . S
C1523 H1513 0.930 . S
C1523 C1516 1.409 . S
C1523 C1522 1.362 . S
H1524 C1530 0.930 . S
H1525 C1533 0.930 . S
H1526 C1534 0.930 . S
H1527 C1535 0.930 . S
H1528 C1538 0.930 . S
H1529 C1539 0.930 . S
C1530 H1524 0.930 . S
C1530 C1531 1.355 . S
C1530 C1532 1.415 . S
C1531 C1530 1.355 . S
C1531 C1533 1.419 . S
C1532 C1530 1.415 . S
C1532 C1537 1.425 . S
C1532 C1539 1.409 . S
C1533 H1525 0.930 . S
C1533 C1531 1.419 . S
C1533 C1534 1.362 . S
C1534 H1526 0.930 . S
C1534 C1533 1.362 . S
C1534 C1537 1.409 . S
C1535 H1527 0.930 . S
C1535 C1536 1.355 . S
C1535 C1537 1.415 . S
C1536 C1535 1.355 . S
C1536 C1538 1.419 . S
C1537 C1532 1.425 . S
C1537 C1534 1.409 . S
C1537 C1535 1.415 . S
C1538 H1528 0.930 . S
C1538 C1536 1.419 . S
C1538 C1539 1.362 . S
C1539 H1529 0.930 . S
C1539 C1532 1.409 . S
C1539 C1538 1.362 . S
H1540 C1546 0.930 . S
H1541 C1549 0.930 . S
H1542 C1550 0.930 . S
H1543 C1551 0.930 . S
H1544 C1554 0.930 . S
H1545 C1555 0.930 . S
C1546 H1540 0.930 . S
C1546 C1547 1.355 . S
C1546 C1548 1.415 . S
C1547 C1546 1.355 . S
C1547 C1549 1.419 . S
C1548 C1546 1.415 . S
C1548 C1553 1.425 . S
C1548 C1555 1.409 . S
C1549 H1541 0.930 . S
C1549 C1547 1.419 . S
C1549 C1550 1.362 . S
C1550 H1542 0.930 . S
C1550 C1549 1.362 . S
C1550 C1553 1.409 . S
C1551 H1543 0.930 . S
C1551 C1552 1.355 . S
C1551 C1553 1.415 . S
C1552 C1551 1.355 . S
C1552 C1554 1.419 . S
C1553 C1548 1.425 . S
C1553 C1550 1.409 . S
C1553 C1551 1.415 . S
C1554 H1544 0.930 . S
C1554 C1552 1.419 . S
C1554 C1555 1.362 . S
C1555 H1545 0.930 . S
C1555 C1548 1.409 . S
C1555 C1554 1.362 . S
H1556 C1562 0.930 . S
H1557 C1565 0.930 . S
H1558 C1566 0.930 . S
H1559 C1567 0.930 . S
H1560 C1570 0.930 . S
H1561 C1571 0.930 . S
C1562 H1556 0.930 . S
C1562 C1563 1.355 . S
C1562 C1564 1.415 . S
C1563 C1562 1.355 . S
C1563 C1565 1.419 . S
C1564 C1562 1.415 . S
C1564 C1569 1.425 . S
C1564 C1571 1.409 . S
C1565 H1557 0.930 . S
C1565 C1563 1.419 . S
C1565 C1566 1.362 . S
C1566 H1558 0.930 . S
C1566 C1565 1.362 . S
C1566 C1569 1.409 . S
C1567 H1559 0.930 . S
C1567 C1568 1.355 . S
C1567 C1569 1.415 . S
C1568 C1567 1.355 . S
C1568 C1570 1.419 . S
C1569 C1564 1.425 . S
C1569 C1566 1.409 . S
C1569 C1567 1.415 . S
C1570 H1560 0.930 . S
C1570 C1568 1.419 . S
C1570 C1571 1.362 . S
C1571 H1561 0.930 . S
C1571 C1564 1.409 . S
C1571 C1570 1.362 . S
H1572 C1578 0.930 . S
H1573 C1581 0.930 . S
H1574 C1582 0.930 . S
H1575 C1583 0.930 . S
H1576 C1586 0.930 . S
H1577 C1587 0.930 . S
C1578 H1572 0.930 . S
C1578 C1579 1.355 . S
C1578 C1580 1.415 . S
C1579 C1578 1.355 . S
C1579 C1581 1.419 . S
C1580 C1578 1.415 . S
C1580 C1585 1.425 . S
C1580 C1587 1.409 . S
C1581 H1573 0.930 . S
C1581 C1579 1.419 . S
C1581 C1582 1.362 . S
C1582 H1574 0.930 . S
C1582 C1581 1.362 . S
C1582 C1585 1.409 . S
C1583 H1575 0.930 . S
C1583 C1584 1.355 . S
C1583 C1585 1.415 . S
C1584 C1583 1.355 . S
C1584 C1586 1.419 . S
C1585 C1580 1.425 . S
C1585 C1582 1.409 . S
C1585 C1583 1.415 . S
C1586 H1576 0.930 . S
C1586 C1584 1.419 . S
C1586 C1587 1.362 . S
C1587 H1577 0.930 . S
C1587 C1580 1.409 . S
C1587 C1586 1.362 . S
H1588 C1594 0.930 . S
H1589 C1597 0.930 . S
H1590 C1598 0.930 . S
H1591 C1599 0.930 . S
H1592 C1602 0.930 . S
H1593 C1603 0.930 . S
C1594 H1588 0.930 . S
C1594 C1595 1.355 . S
C1594 C1596 1.415 . S
C1595 C1594 1.355 . S
C1595 C1597 1.419 . S
C1596 C1594 1.415 . S
C1596 C1601 1.425 . S
C1596 C1603 1.409 . S
C1597 H1589 0.930 . S
C1597 C1595 1.419 . S
C1597 C1598 1.362 . S
C1598 H1590 0.930 . S
C1598 C1597 1.362 . S
C1598 C1601 1.409 . S
C1599 H1591 0.930 . S
C1599 C1600 1.355 . S
C1599 C1601 1.415 . S
C1600 C1599 1.355 . S
C1600 C1602 1.419 . S
C1601 C1596 1.425 . S
C1601 C1598 1.409 . S
C1601 C1599 1.415 . S
C1602 H1592 0.930 . S
C1602 C1600 1.419 . S
C1602 C1603 1.362 . S
C1603 H1593 0.930 . S
C1603 C1596 1.409 . S
C1603 C1602 1.362 . S
H1604 C1610 0.930 . S
H1605 C1613 0.930 . S
H1606 C1614 0.930 . S
H1607 C1615 0.930 . S
H1608 C1618 0.930 . S
H1609 C1619 0.930 . S
C1610 H1604 0.930 . S
C1610 C1611 1.355 . S
C1610 C1612 1.415 . S
C1611 C1610 1.355 . S
C1611 C1613 1.419 . S
C1612 C1610 1.415 . S
C1612 C1617 1.425 . S
C1612 C1619 1.409 . S
C1613 H1605 0.930 . S
C1613 C1611 1.419 . S
C1613 C1614 1.362 . S
C1614 H1606 0.930 . S
C1614 C1613 1.362 . S
C1614 C1617 1.409 . S
C1615 H1607 0.930 . S
C1615 C1616 1.355 . S
C1615 C1617 1.415 . S
C1616 C1615 1.355 . S
C1616 C1618 1.419 . S
C1617 C1612 1.425 . S
C1617 C1614 1.409 . S
C1617 C1615 1.415 . S
C1618 H1608 0.930 . S
C1618 C1616 1.419 . S
C1618 C1619 1.362 . S
C1619 H1609 0.930 . S
C1619 C1612 1.409 . S
C1619 C1618 1.362 . S
H1620 C1626 0.930 . S
H1621 C1629 0.930 . S
H1622 C1630 0.930 . S
H1623 C1631 0.930 . S
H1624 C1634 0.930 . S
H1625 C1635 0.930 . S
C1626 H1620 0.930 . S
C1626 C1627 1.355 . S
C1626 C1628 1.415 . S
C1627 C1626 1.355 . S
C1627 C1629 1.419 . S
C1628 C1626 1.415 . S
C1628 C1633 1.425 . S
C1628 C1635 1.409 . S
C1629 H1621 0.930 . S
C1629 C1627 1.419 . S
C1629 C1630 1.362 . S
C1630 H1622 0.930 . S
C1630 C1629 1.362 . S
C1630 C1633 1.409 . S
C1631 H1623 0.930 . S
C1631 C1632 1.355 . S
C1631 C1633 1.415 . S
C1632 C1631 1.355 . S
C1632 C1634 1.419 . S
C1633 C1628 1.425 . S
C1633 C1630 1.409 . S
C1633 C1631 1.415 . S
C1634 H1624 0.930 . S
C1634 C1632 1.419 . S
C1634 C1635 1.362 . S
C1635 H1625 0.930 . S
C1635 C1628 1.409 . S
C1635 C1634 1.362 . S
H1636 C1642 0.930 . S
H1637 C1645 0.930 . S
H1638 C1646 0.930 . S
H1639 C1647 0.930 . S
H1640 C1650 0.930 . S
H1641 C1651 0.930 . S
C1642 H1636 0.930 . S
C1642 C1643 1.355 . S
C1642 C1644 1.415 . S
C1643 C1642 1.355 . S
C1643 C1645 1.419 . S
C1644 C1642 1.415 . S
C1644 C1649 1.425 . S
C1644 C1651 1.409 . S
C1645 H1637 0.930 . S
C1645 C1643 1.419 . S
C1645 C1646 1.362 . S
C1646 H1638 0.930 . S
C1646 C1645 1.362 . S
C1646 C1649 1.409 . S
C1647 H1639 0.930 . S
C1647 C1648 1.355 . S
C1647 C1649 1.415 . S
C1648 C1647 1.355 . S
C1648 C1650 1.419 . S
C1649 C1644 1.425 . S
C1649 C1646 1.409 . S
C1649 C1647 1.415 . S
C1650 H1640 0.930 . S
C1650 C1648 1.419 . S
C1650 C1651 1.362 . S
C1651 H1641 0.930 . S
C1651 C1644 1.409 . S
C1651 C1650 1.362 . S
H1652 C1658 0.930 . S
H1653 C1661 0.930 . S
H1654 C1662 0.930 . S
H1655 C1663 0.930 . S
H1656 C1666 0.930 . S
H1657 C1667 0.930 . S
C1658 H1652 0.930 . S
C1658 C1659 1.355 . S
C1658 C1660 1.415 . S
C1659 C1658 1.355 . S
C1659 C1661 1.419 . S
C1660 C1658 1.415 . S
C1660 C1665 1.425 . S
C1660 C1667 1.409 . S
C1661 H1653 0.930 . S
C1661 C1659 1.419 . S
C1661 C1662 1.362 . S
C1662 H1654 0.930 . S
C1662 C1661 1.362 . S
C1662 C1665 1.409 . S
C1663 H1655 0.930 . S
C1663 C1664 1.355 . S
C1663 C1665 1.415 . S
C1664 C1663 1.355 . S
C1664 C1666 1.419 . S
C1665 C1660 1.425 . S
C1665 C1662 1.409 . S
C1665 C1663 1.415 . S
C1666 H1656 0.930 . S
C1666 C1664 1.419 . S
C1666 C1667 1.362 . S
C1667 H1657 0.930 . S
C1667 C1660 1.409 . S
C1667 C1666 1.362 . S
H1668 C1674 0.930 . S
H1669 C1677 0.930 . S
H1670 C1678 0.930 . S
H1671 C1679 0.930 . S
H1672 C1682 0.930 . S
H1673 C1683 0.930 . S
C1674 H1668 0.930 . S
C1674 C1675 1.355 . S
C1674 C1676 1.415 . S
C1675 C1674 1.355 . S
C1675 C1677 1.419 . S
C1676 C1674 1.415 . S
C1676 C1681 1.425 . S
C1676 C1683 1.409 . S
C1677 H1669 0.930 . S
C1677 C1675 1.419 . S
C1677 C1678 1.362 . S
C1678 H1670 0.930 . S
C1678 C1677 1.362 . S
C1678 C1681 1.409 . S
C1679 H1671 0.930 . S
C1679 C1680 1.355 . S
C1679 C1681 1.415 . S
C1680 C1679 1.355 . S
C1680 C1682 1.419 . S
C1681 C1676 1.425 . S
C1681 C1678 1.409 . S
C1681 C1679 1.415 . S
C1682 H1672 0.930 . S
C1682 C1680 1.419 . S
C1682 C1683 1.362 . S
C1683 H1673 0.930 . S
C1683 C1676 1.409 . S
C1683 C1682 1.362 . S
H1684 C1690 0.930 . S
H1685 C1693 0.930 . S
H1686 C1694 0.930 . S
H1687 C1695 0.930 . S
H1688 C1698 0.930 . S
H1689 C1699 0.930 . S
C1690 H1684 0.930 . S
C1690 C1691 1.355 . S
C1690 C1692 1.415 . S
C1691 C1690 1.355 . S
C1691 C1693 1.419 . S
C1692 C1690 1.415 . S
C1692 C1697 1.425 . S
C1692 C1699 1.409 . S
C1693 H1685 0.930 . S
C1693 C1691 1.419 . S
C1693 C1694 1.362 . S
C1694 H1686 0.930 . S
C1694 C1693 1.362 . S
C1694 C1697 1.409 . S
C1695 H1687 0.930 . S
C1695 C1696 1.355 . S
C1695 C1697 1.415 . S
C1696 C1695 1.355 . S
C1696 C1698 1.419 . S
C1697 C1692 1.425 . S
C1697 C1694 1.409 . S
C1697 C1695 1.415 . S
C1698 H1688 0.930 . S
C1698 C1696 1.419 . S
C1698 C1699 1.362 . S
C1699 H1689 0.930 . S
C1699 C1692 1.409 . S
C1699 C1698 1.362 . S
H1700 C1706 0.930 . S
H1701 C1709 0.930 . S
H1702 C1710 0.930 . S
H1703 C1711 0.930 . S
H1704 C1714 0.930 . S
H1705 C1715 0.930 . S
C1706 H1700 0.930 . S
C1706 C1707 1.355 . S
C1706 C1708 1.415 . S
C1707 C1706 1.355 . S
C1707 C1709 1.419 . S
C1708 C1706 1.415 . S
C1708 C1713 1.425 . S
C1708 C1715 1.409 . S
C1709 H1701 0.930 . S
C1709 C1707 1.419 . S
C1709 C1710 1.362 . S
C1710 H1702 0.930 . S
C1710 C1709 1.362 . S
C1710 C1713 1.409 . S
C1711 H1703 0.930 . S
C1711 C1712 1.355 . S
C1711 C1713 1.415 . S
C1712 C1711 1.355 . S
C1712 C1714 1.419 . S
C1713 C1708 1.425 . S
C1713 C1710 1.409 . S
C1713 C1711 1.415 . S
C1714 H1704 0.930 . S
C1714 C1712 1.419 . S
C1714 C1715 1.362 . S
C1715 H1705 0.930 . S
C1715 C1708 1.409 . S
C1715 C1714 1.362 . S
H1716 C1722 0.930 . S
H1717 C1725 0.930 . S
H1718 C1726 0.930 . S
H1719 C1727 0.930 . S
H1720 C1730 0.930 . S
H1721 C1731 0.930 . S
C1722 H1716 0.930 . S
C1722 C1723 1.355 . S
C1722 C1724 1.415 . S
C1723 C1722 1.355 . S
C1723 C1725 1.419 . S
C1724 C1722 1.415 . S
C1724 C1729 1.425 . S
C1724 C1731 1.409 . S
C1725 H1717 0.930 . S
C1725 C1723 1.419 . S
C1725 C1726 1.362 . S
C1726 H1718 0.930 . S
C1726 C1725 1.362 . S
C1726 C1729 1.409 . S
C1727 H1719 0.930 . S
C1727 C1728 1.355 . S
C1727 C1729 1.415 . S
C1728 C1727 1.355 . S
C1728 C1730 1.419 . S
C1729 C1724 1.425 . S
C1729 C1726 1.409 . S
C1729 C1727 1.415 . S
C1730 H1720 0.930 . S
C1730 C1728 1.419 . S
C1730 C1731 1.362 . S
C1731 H1721 0.930 . S
C1731 C1724 1.409 . S
C1731 C1730 1.362 . S
H1732 C1738 0.930 . S
H1733 C1741 0.930 . S
H1734 C1742 0.930 . S
H1735 C1743 0.930 . S
H1736 C1746 0.930 . S
H1737 C1747 0.930 . S
C1738 H1732 0.930 . S
C1738 C1739 1.355 . S
C1738 C1740 1.415 . S
C1739 C1738 1.355 . S
C1739 C1741 1.419 . S
C1740 C1738 1.415 . S
C1740 C1745 1.425 . S
C1740 C1747 1.409 . S
C1741 H1733 0.930 . S
C1741 C1739 1.419 . S
C1741 C1742 1.362 . S
C1742 H1734 0.930 . S
C1742 C1741 1.362 . S
C1742 C1745 1.409 . S
C1743 H1735 0.930 . S
C1743 C1744 1.355 . S
C1743 C1745 1.415 . S
C1744 C1743 1.355 . S
C1744 C1746 1.419 . S
C1745 C1740 1.425 . S
C1745 C1742 1.409 . S
C1745 C1743 1.415 . S
C1746 H1736 0.930 . S
C1746 C1744 1.419 . S
C1746 C1747 1.362 . S
C1747 H1737 0.930 . S
C1747 C1740 1.409 . S
C1747 C1746 1.362 . S
H1748 C1754 0.930 . S
H1749 C1757 0.930 . S
H1750 C1758 0.930 . S
H1751 C1759 0.930 . S
H1752 C1762 0.930 . S
H1753 C1763 0.930 . S
C1754 H1748 0.930 . S
C1754 C1755 1.355 . S
C1754 C1756 1.415 . S
C1755 C1754 1.355 . S
C1755 C1757 1.419 . S
C1756 C1754 1.415 . S
C1756 C1761 1.425 . S
C1756 C1763 1.409 . S
C1757 H1749 0.930 . S
C1757 C1755 1.419 . S
C1757 C1758 1.362 . S
C1758 H1750 0.930 . S
C1758 C1757 1.362 . S
C1758 C1761 1.409 . S
C1759 H1751 0.930 . S
C1759 C1760 1.355 . S
C1759 C1761 1.415 . S
C1760 C1759 1.355 . S
C1760 C1762 1.419 . S
C1761 C1756 1.425 . S
C1761 C1758 1.409 . S
C1761 C1759 1.415 . S
C1762 H1752 0.930 . S
C1762 C1760 1.419 . S
C1762 C1763 1.362 . S
C1763 H1753 0.930 . S
C1763 C1756 1.409 . S
C1763 C1762 1.362 . S
H1764 C1770 0.930 . S
H1765 C1773 0.930 . S
H1766 C1774 0.930 . S
H1767 C1775 0.930 . S
H1768 C1778 0.930 . S
H1769 C1779 0.930 . S
C1770 H1764 0.930 . S
C1770 C1771 1.355 . S
C1770 C1772 1.415 . S
C1771 C1770 1.355 . S
C1771 C1773 1.419 . S
C1772 C1770 1.415 . S
C1772 C1777 1.425 . S
C1772 C1779 1.409 . S
C1773 H1765 0.930 . S
C1773 C1771 1.419 . S
C1773 C1774 1.362 . S
C1774 H1766 0.930 . S
C1774 C1773 1.362 . S
C1774 C1777 1.409 . S
C1775 H1767 0.930 . S
C1775 C1776 1.355 . S
C1775 C1777 1.415 . S
C1776 C1775 1.355 . S
C1776 C1778 1.419 . S
C1777 C1772 1.425 . S
C1777 C1774 1.409 . S
C1777 C1775 1.415 . S
C1778 H1768 0.930 . S
C1778 C1776 1.419 . S
C1778 C1779 1.362 . S
C1779 H1769 0.930 . S
C1779 C1772 1.409 . S
C1779 C1778 1.362 . S
H1780 C1786 0.930 . S
H1781 C1789 0.930 . S
H1782 C1790 0.930 . S
H1783 C1791 0.930 . S
H1784 C1794 0.930 . S
H1785 C1795 0.930 . S
C1786 H1780 0.930 . S
C1786 C1787 1.355 . S
C1786 C1788 1.415 . S
C1787 C1786 1.355 . S
C1787 C1789 1.419 1_545 S
C1788 C1786 1.415 . S
C1788 C1793 1.425 1_545 S
C1788 C1795 1.409 . S
C1789 H1781 0.930 . S
C1789 C1787 1.419 1_565 S
C1789 C1790 1.362 . S
C1790 H1782 0.930 . S
C1790 C1789 1.362 . S
C1790 C1793 1.409 . S
C1791 H1783 0.930 . S
C1791 C1792 1.355 . S
C1791 C1793 1.415 . S
C1792 C1791 1.355 . S
C1792 C1794 1.419 1_565 S
C1793 C1788 1.425 1_565 S
C1793 C1790 1.409 . S
C1793 C1791 1.415 . S
C1794 H1784 0.930 . S
C1794 C1792 1.419 1_545 S
C1794 C1795 1.362 . S
C1795 H1785 0.930 . S
C1795 C1788 1.409 . S
C1795 C1794 1.362 . S
H1796 C1802 0.930 . S
H1797 C1805 0.930 . S
H1798 C1806 0.930 . S
H1799 C1807 0.930 . S
H1800 C1810 0.930 . S
H1801 C1811 0.930 . S
C1802 H1796 0.930 . S
C1802 C1803 1.355 1_455 S
C1802 C1804 1.415 . S
C1803 C1802 1.355 1_655 S
C1803 C1805 1.419 . S
C1804 C1802 1.415 . S
C1804 C1809 1.425 1_455 S
C1804 C1811 1.409 . S
C1805 H1797 0.930 . S
C1805 C1803 1.419 . S
C1805 C1806 1.362 . S
C1806 H1798 0.930 . S
C1806 C1805 1.362 . S
C1806 C1809 1.409 . S
C1807 H1799 0.930 . S
C1807 C1808 1.355 1_655 S
C1807 C1809 1.415 . S
C1808 C1807 1.355 1_455 S
C1808 C1810 1.419 . S
C1809 C1804 1.425 1_655 S
C1809 C1806 1.409 . S
C1809 C1807 1.415 . S
C1810 H1800 0.930 . S
C1810 C1808 1.419 . S
C1810 C1811 1.362 . S
C1811 H1801 0.930 . S
C1811 C1804 1.409 . S
C1811 C1810 1.362 . S
H1812 C1818 0.930 . S
H1813 C1821 0.930 . S
H1814 C1822 0.930 . S
H1815 C1823 0.930 . S
H1816 C1826 0.930 . S
H1817 C1827 0.930 . S
C1818 H1812 0.930 . S
C1818 C1819 1.355 . S
C1818 C1820 1.415 . S
C1819 C1818 1.355 . S
C1819 C1821 1.419 . S
C1820 C1818 1.415 . S
C1820 C1825 1.425 . S
C1820 C1827 1.409 . S
C1821 H1813 0.930 . S
C1821 C1819 1.419 . S
C1821 C1822 1.362 . S
C1822 H1814 0.930 . S
C1822 C1821 1.362 . S
C1822 C1825 1.409 . S
C1823 H1815 0.930 . S
C1823 C1824 1.355 . S
C1823 C1825 1.415 . S
C1824 C1823 1.355 . S
C1824 C1826 1.419 . S
C1825 C1820 1.425 . S
C1825 C1822 1.409 . S
C1825 C1823 1.415 . S
C1826 H1816 0.930 . S
C1826 C1824 1.419 . S
C1826 C1827 1.362 . S
C1827 H1817 0.930 . S
C1827 C1820 1.409 . S
C1827 C1826 1.362 . S
H1828 C1834 0.930 . S
H1829 C1837 0.930 . S
H1830 C1838 0.930 . S
H1831 C1839 0.930 . S
H1832 C1842 0.930 . S
H1833 C1843 0.930 . S
C1834 H1828 0.930 . S
C1834 C1835 1.355 . S
C1834 C1836 1.415 . S
C1835 C1834 1.355 . S
C1835 C1837 1.419 1_545 S
C1836 C1834 1.415 . S
C1836 C1841 1.425 1_545 S
C1836 C1843 1.409 . S
C1837 H1829 0.930 . S
C1837 C1835 1.419 1_565 S
C1837 C1838 1.362 . S
C1838 H1830 0.930 . S
C1838 C1837 1.362 . S
C1838 C1841 1.409 . S
C1839 H1831 0.930 . S
C1839 C1840 1.355 . S
C1839 C1841 1.415 . S
C1840 C1839 1.355 . S
C1840 C1842 1.419 1_565 S
C1841 C1836 1.425 1_565 S
C1841 C1838 1.409 . S
C1841 C1839 1.415 . S
C1842 H1832 0.930 . S
C1842 C1840 1.419 1_545 S
C1842 C1843 1.362 . S
C1843 H1833 0.930 . S
C1843 C1836 1.409 . S
C1843 C1842 1.362 . S
H1844 C1850 0.930 . S
H1845 C1853 0.930 . S
H1846 C1854 0.930 . S
H1847 C1855 0.930 . S
H1848 C1858 0.930 . S
H1849 C1859 0.930 . S
C1850 H1844 0.930 . S
C1850 C1851 1.355 . S
C1850 C1852 1.415 . S
C1851 C1850 1.355 . S
C1851 C1853 1.419 1_655 S
C1852 C1850 1.415 . S
C1852 C1857 1.425 1_655 S
C1852 C1859 1.409 . S
C1853 H1845 0.930 . S
C1853 C1851 1.419 1_455 S
C1853 C1854 1.362 . S
C1854 H1846 0.930 . S
C1854 C1853 1.362 . S
C1854 C1857 1.409 . S
C1855 H1847 0.930 . S
C1855 C1856 1.355 . S
C1855 C1857 1.415 . S
C1856 C1855 1.355 . S
C1856 C1858 1.419 1_455 S
C1857 C1852 1.425 1_455 S
C1857 C1854 1.409 . S
C1857 C1855 1.415 . S
C1858 H1848 0.930 . S
C1858 C1856 1.419 1_655 S
C1858 C1859 1.362 . S
C1859 H1849 0.930 . S
C1859 C1852 1.409 . S
C1859 C1858 1.362 . S
H1860 C1866 0.930 . S
H1861 C1869 0.930 . S
H1862 C1870 0.930 . S
H1863 C1871 0.930 . S
H1864 C1874 0.930 . S
H1865 C1875 0.930 . S
C1866 H1860 0.930 . S
C1866 C1867 1.355 . S
C1866 C1868 1.415 . S
C1867 C1866 1.355 . S
C1867 C1869 1.419 . S
C1868 C1866 1.415 . S
C1868 C1873 1.425 . S
C1868 C1875 1.409 . S
C1869 H1861 0.930 . S
C1869 C1867 1.419 . S
C1869 C1870 1.362 . S
C1870 H1862 0.930 . S
C1870 C1869 1.362 . S
C1870 C1873 1.409 . S
C1871 H1863 0.930 . S
C1871 C1872 1.355 . S
C1871 C1873 1.415 . S
C1872 C1871 1.355 . S
C1872 C1874 1.419 . S
C1873 C1868 1.425 . S
C1873 C1870 1.409 . S
C1873 C1871 1.415 . S
C1874 H1864 0.930 . S
C1874 C1872 1.419 . S
C1874 C1875 1.362 . S
C1875 H1865 0.930 . S
C1875 C1868 1.409 . S
C1875 C1874 1.362 . S
H1876 C1882 0.930 . S
H1877 C1885 0.930 . S
H1878 C1886 0.930 . S
H1879 C1887 0.930 . S
H1880 C1890 0.930 . S
H1881 C1891 0.930 . S
C1882 H1876 0.930 . S
C1882 C1883 1.355 . S
C1882 C1884 1.415 . S
C1883 C1882 1.355 . S
C1883 C1885 1.419 . S
C1884 C1882 1.415 . S
C1884 C1889 1.425 . S
C1884 C1891 1.409 . S
C1885 H1877 0.930 . S
C1885 C1883 1.419 . S
C1885 C1886 1.362 . S
C1886 H1878 0.930 . S
C1886 C1885 1.362 . S
C1886 C1889 1.409 . S
C1887 H1879 0.930 . S
C1887 C1888 1.355 . S
C1887 C1889 1.415 . S
C1888 C1887 1.355 . S
C1888 C1890 1.419 . S
C1889 C1884 1.425 . S
C1889 C1886 1.409 . S
C1889 C1887 1.415 . S
C1890 H1880 0.930 . S
C1890 C1888 1.419 . S
C1890 C1891 1.362 . S
C1891 H1881 0.930 . S
C1891 C1884 1.409 . S
C1891 C1890 1.362 . S
H1892 C1898 0.930 . S
H1893 C1901 0.930 . S
H1894 C1902 0.930 . S
H1895 C1903 0.930 . S
H1896 C1906 0.930 . S
H1897 C1907 0.930 . S
C1898 H1892 0.930 . S
C1898 C1899 1.355 . S
C1898 C1900 1.415 . S
C1899 C1898 1.355 . S
C1899 C1901 1.419 . S
C1900 C1898 1.415 . S
C1900 C1905 1.425 . S
C1900 C1907 1.409 . S
C1901 H1893 0.930 . S
C1901 C1899 1.419 . S
C1901 C1902 1.362 . S
C1902 H1894 0.930 . S
C1902 C1901 1.362 . S
C1902 C1905 1.409 . S
C1903 H1895 0.930 . S
C1903 C1904 1.355 . S
C1903 C1905 1.415 . S
C1904 C1903 1.355 . S
C1904 C1906 1.419 . S
C1905 C1900 1.425 . S
C1905 C1902 1.409 . S
C1905 C1903 1.415 . S
C1906 H1896 0.930 . S
C1906 C1904 1.419 . S
C1906 C1907 1.362 . S
C1907 H1897 0.930 . S
C1907 C1900 1.409 . S
C1907 C1906 1.362 . S
H1908 C1914 0.930 . S
H1909 C1917 0.930 . S
H1910 C1918 0.930 . S
H1911 C1919 0.930 . S
H1912 C1922 0.930 . S
H1913 C1923 0.930 . S
C1914 H1908 0.930 . S
C1914 C1915 1.355 . S
C1914 C1916 1.415 . S
C1915 C1914 1.355 . S
C1915 C1917 1.419 . S
C1916 C1914 1.415 . S
C1916 C1921 1.425 . S
C1916 C1923 1.409 . S
C1917 H1909 0.930 . S
C1917 C1915 1.419 . S
C1917 C1918 1.362 . S
C1918 H1910 0.930 . S
C1918 C1917 1.362 . S
C1918 C1921 1.409 . S
C1919 H1911 0.930 . S
C1919 C1920 1.355 . S
C1919 C1921 1.415 . S
C1920 C1919 1.355 . S
C1920 C1922 1.419 . S
C1921 C1916 1.425 . S
C1921 C1918 1.409 . S
C1921 C1919 1.415 . S
C1922 H1912 0.930 . S
C1922 C1920 1.419 . S
C1922 C1923 1.362 . S
C1923 H1913 0.930 . S
C1923 C1916 1.409 . S
C1923 C1922 1.362 . S
H1924 C1930 0.930 . S
H1925 C1933 0.930 . S
H1926 C1934 0.930 . S
H1927 C1935 0.930 . S
H1928 C1938 0.930 . S
H1929 C1939 0.930 . S
C1930 H1924 0.930 . S
C1930 C1931 1.355 . S
C1930 C1932 1.415 . S
C1931 C1930 1.355 . S
C1931 C1933 1.419 . S
C1932 C1930 1.415 . S
C1932 C1937 1.425 . S
C1932 C1939 1.409 . S
C1933 H1925 0.930 . S
C1933 C1931 1.419 . S
C1933 C1934 1.362 . S
C1934 H1926 0.930 . S
C1934 C1933 1.362 . S
C1934 C1937 1.409 . S
C1935 H1927 0.930 . S
C1935 C1936 1.355 . S
C1935 C1937 1.415 . S
C1936 C1935 1.355 . S
C1936 C1938 1.419 . S
C1937 C1932 1.425 . S
C1937 C1934 1.409 . S
C1937 C1935 1.415 . S
C1938 H1928 0.930 . S
C1938 C1936 1.419 . S
C1938 C1939 1.362 . S
C1939 H1929 0.930 . S
C1939 C1932 1.409 . S
C1939 C1938 1.362 . S
H1940 C1946 0.930 . S
H1941 C1949 0.930 . S
H1942 C1950 0.930 . S
H1943 C1951 0.930 . S
H1944 C1954 0.930 . S
H1945 C1955 0.930 . S
C1946 H1940 0.930 . S
C1946 C1947 1.355 . S
C1946 C1948 1.415 . S
C1947 C1946 1.355 . S
C1947 C1949 1.419 . S
C1948 C1946 1.415 . S
C1948 C1953 1.425 . S
C1948 C1955 1.409 . S
C1949 H1941 0.930 . S
C1949 C1947 1.419 . S
C1949 C1950 1.362 . S
C1950 H1942 0.930 . S
C1950 C1949 1.362 . S
C1950 C1953 1.409 . S
C1951 H1943 0.930 . S
C1951 C1952 1.355 . S
C1951 C1953 1.415 . S
C1952 C1951 1.355 . S
C1952 C1954 1.419 . S
C1953 C1948 1.425 . S
C1953 C1950 1.409 . S
C1953 C1951 1.415 . S
C1954 H1944 0.930 . S
C1954 C1952 1.419 . S
C1954 C1955 1.362 . S
C1955 H1945 0.930 . S
C1955 C1948 1.409 . S
C1955 C1954 1.362 . S
H1956 C1962 0.930 . S
H1957 C1965 0.930 . S
H1958 C1966 0.930 . S
H1959 C1967 0.930 . S
H1960 C1970 0.930 . S
H1961 C1971 0.930 . S
C1962 H1956 0.930 . S
C1962 C1963 1.355 . S
C1962 C1964 1.415 . S
C1963 C1962 1.355 . S
C1963 C1965 1.419 . S
C1964 C1962 1.415 . S
C1964 C1969 1.425 . S
C1964 C1971 1.409 . S
C1965 H1957 0.930 . S
C1965 C1963 1.419 . S
C1965 C1966 1.362 . S
C1966 H1958 0.930 . S
C1966 C1965 1.362 . S
C1966 C1969 1.409 . S
C1967 H1959 0.930 . S
C1967 C1968 1.355 . S
C1967 C1969 1.415 . S
C1968 C1967 1.355 . S
C1968 C1970 1.419 . S
C1969 C1964 1.425 . S
C1969 C1966 1.409 . S
C1969 C1967 1.415 . S
C1970 H1960 0.930 . S
C1970 C1968 1.419 . S
C1970 C1971 1.362 . S
C1971 H1961 0.930 . S
C1971 C1964 1.409 . S
C1971 C1970 1.362 . S
H1972 C1978 0.930 . S
H1973 C1981 0.930 . S
H1974 C1982 0.930 . S
H1975 C1983 0.930 . S
H1976 C1986 0.930 . S
H1977 C1987 0.930 . S
C1978 H1972 0.930 . S
C1978 C1979 1.355 . S
C1978 C1980 1.415 . S
C1979 C1978 1.355 . S
C1979 C1981 1.419 . S
C1980 C1978 1.415 . S
C1980 C1985 1.425 . S
C1980 C1987 1.409 . S
C1981 H1973 0.930 . S
C1981 C1979 1.419 . S
C1981 C1982 1.362 . S
C1982 H1974 0.930 . S
C1982 C1981 1.362 . S
C1982 C1985 1.409 . S
C1983 H1975 0.930 . S
C1983 C1984 1.355 . S
C1983 C1985 1.415 . S
C1984 C1983 1.355 . S
C1984 C1986 1.419 . S
C1985 C1980 1.425 . S
C1985 C1982 1.409 . S
C1985 C1983 1.415 . S
C1986 H1976 0.930 . S
C1986 C1984 1.419 . S
C1986 C1987 1.362 . S
C1987 H1977 0.930 . S
C1987 C1980 1.409 . S
C1987 C1986 1.362 . S
H1988 C1994 0.930 . S
H1989 C1997 0.930 1_554 S
H1990 C1998 0.930 . S
H1991 C1999 0.930 . S
H1992 C2002 0.930 . S
H1993 C2003 0.930 . S
C1994 H1988 0.930 . S
C1994 C1995 1.355 . S
C1994 C1996 1.415 . S
C1995 C1994 1.355 . S
C1995 C1997 1.419 . S
C1996 C1994 1.415 . S
C1996 C2001 1.425 . S
C1996 C2003 1.409 . S
C1997 H1989 0.930 1_556 S
C1997 C1995 1.419 . S
C1997 C1998 1.362 . S
C1998 H1990 0.930 . S
C1998 C1997 1.362 . S
C1998 C2001 1.409 . S
C1999 H1991 0.930 . S
C1999 C2000 1.355 . S
C1999 C2001 1.415 . S
C2000 C1999 1.355 . S
C2000 C2002 1.419 . S
C2001 C1996 1.425 . S
C2001 C1998 1.409 . S
C2001 C1999 1.415 . S
C2002 H1992 0.930 . S
C2002 C2000 1.419 . S
C2002 C2003 1.362 . S
C2003 H1993 0.930 . S
C2003 C1996 1.409 . S
C2003 C2002 1.362 . S
H2004 C2010 0.930 . S
H2005 C2013 0.930 . S
H2006 C2014 0.930 . S
H2007 C2015 0.930 . S
H2008 C2018 0.930 . S
H2009 C2019 0.930 . S
C2010 H2004 0.930 . S
C2010 C2011 1.355 . S
C2010 C2012 1.415 . S
C2011 C2010 1.355 . S
C2011 C2013 1.419 . S
C2012 C2010 1.415 . S
C2012 C2017 1.425 . S
C2012 C2019 1.409 . S
C2013 H2005 0.930 . S
C2013 C2011 1.419 . S
C2013 C2014 1.362 . S
C2014 H2006 0.930 . S
C2014 C2013 1.362 . S
C2014 C2017 1.409 . S
C2015 H2007 0.930 . S
C2015 C2016 1.355 . S
C2015 C2017 1.415 . S
C2016 C2015 1.355 . S
C2016 C2018 1.419 . S
C2017 C2012 1.425 . S
C2017 C2014 1.409 . S
C2017 C2015 1.415 . S
C2018 H2008 0.930 . S
C2018 C2016 1.419 . S
C2018 C2019 1.362 . S
C2019 H2009 0.930 . S
C2019 C2012 1.409 . S
C2019 C2018 1.362 . S
H2020 C2026 0.930 . S
H2021 C2029 0.930 . S
H2022 C2030 0.930 . S
H2023 C2031 0.930 . S
H2024 C2034 0.930 . S
H2025 C2035 0.930 . S
C2026 H2020 0.930 . S
C2026 C2027 1.355 . S
C2026 C2028 1.415 . S
C2027 C2026 1.355 . S
C2027 C2029 1.419 . S
C2028 C2026 1.415 . S
C2028 C2033 1.425 . S
C2028 C2035 1.409 . S
C2029 H2021 0.930 . S
C2029 C2027 1.419 . S
C2029 C2030 1.362 . S
C2030 H2022 0.930 . S
C2030 C2029 1.362 . S
C2030 C2033 1.409 . S
C2031 H2023 0.930 . S
C2031 C2032 1.355 . S
C2031 C2033 1.415 . S
C2032 C2031 1.355 . S
C2032 C2034 1.419 . S
C2033 C2028 1.425 . S
C2033 C2030 1.409 . S
C2033 C2031 1.415 . S
C2034 H2024 0.930 . S
C2034 C2032 1.419 . S
C2034 C2035 1.362 . S
C2035 H2025 0.930 . S
C2035 C2028 1.409 . S
C2035 C2034 1.362 . S
H2036 C2042 0.930 . S
H2037 C2045 0.930 . S
H2038 C2046 0.930 . S
H2039 C2047 0.930 . S
H2040 C2050 0.930 . S
H2041 C2051 0.930 . S
C2042 H2036 0.930 . S
C2042 C2043 1.355 . S
C2042 C2044 1.415 . S
C2043 C2042 1.355 . S
C2043 C2045 1.419 . S
C2044 C2042 1.415 . S
C2044 C2049 1.425 . S
C2044 C2051 1.409 . S
C2045 H2037 0.930 . S
C2045 C2043 1.419 . S
C2045 C2046 1.362 . S
C2046 H2038 0.930 . S
C2046 C2045 1.362 . S
C2046 C2049 1.409 . S
C2047 H2039 0.930 . S
C2047 C2048 1.355 . S
C2047 C2049 1.415 . S
C2048 C2047 1.355 . S
C2048 C2050 1.419 . S
C2049 C2044 1.425 . S
C2049 C2046 1.409 . S
C2049 C2047 1.415 . S
C2050 H2040 0.930 . S
C2050 C2048 1.419 . S
C2050 C2051 1.362 . S
C2051 H2041 0.930 . S
C2051 C2044 1.409 . S
C2051 C2050 1.362 . S
H2052 C2058 0.930 . S
H2053 C2061 0.930 . S
H2054 C2062 0.930 . S
H2055 C2063 0.930 . S
H2056 C2066 0.930 . S
H2057 C2067 0.930 . S
C2058 H2052 0.930 . S
C2058 C2059 1.355 . S
C2058 C2060 1.415 . S
C2059 C2058 1.355 . S
C2059 C2061 1.419 . S
C2060 C2058 1.415 . S
C2060 C2065 1.425 . S
C2060 C2067 1.409 . S
C2061 H2053 0.930 . S
C2061 C2059 1.419 . S
C2061 C2062 1.362 . S
C2062 H2054 0.930 . S
C2062 C2061 1.362 . S
C2062 C2065 1.409 . S
C2063 H2055 0.930 . S
C2063 C2064 1.355 . S
C2063 C2065 1.415 . S
C2064 C2063 1.355 . S
C2064 C2066 1.419 . S
C2065 C2060 1.425 . S
C2065 C2062 1.409 . S
C2065 C2063 1.415 . S
C2066 H2056 0.930 . S
C2066 C2064 1.419 . S
C2066 C2067 1.362 . S
C2067 H2057 0.930 . S
C2067 C2060 1.409 . S
C2067 C2066 1.362 . S
H2068 C2074 0.930 . S
H2069 C2077 0.930 . S
H2070 C2078 0.930 . S
H2071 C2079 0.930 . S
H2072 C2082 0.930 . S
H2073 C2083 0.930 . S
C2074 H2068 0.930 . S
C2074 C2075 1.355 . S
C2074 C2076 1.415 . S
C2075 C2074 1.355 . S
C2075 C2077 1.419 . S
C2076 C2074 1.415 . S
C2076 C2081 1.425 . S
C2076 C2083 1.409 . S
C2077 H2069 0.930 . S
C2077 C2075 1.419 . S
C2077 C2078 1.362 . S
C2078 H2070 0.930 . S
C2078 C2077 1.362 . S
C2078 C2081 1.409 . S
C2079 H2071 0.930 . S
C2079 C2080 1.355 . S
C2079 C2081 1.415 . S
C2080 C2079 1.355 . S
C2080 C2082 1.419 . S
C2081 C2076 1.425 . S
C2081 C2078 1.409 . S
C2081 C2079 1.415 . S
C2082 H2072 0.930 . S
C2082 C2080 1.419 . S
C2082 C2083 1.362 . S
C2083 H2073 0.930 . S
C2083 C2076 1.409 . S
C2083 C2082 1.362 . S
H2084 C2090 0.930 . S
H2085 C2093 0.930 . S
H2086 C2094 0.930 . S
H2087 C2095 0.930 . S
H2088 C2098 0.930 . S
H2089 C2099 0.930 . S
C2090 H2084 0.930 . S
C2090 C2091 1.355 . S
C2090 C2092 1.415 . S
C2091 C2090 1.355 . S
C2091 C2093 1.419 . S
C2092 C2090 1.415 . S
C2092 C2097 1.425 . S
C2092 C2099 1.409 . S
C2093 H2085 0.930 . S
C2093 C2091 1.419 . S
C2093 C2094 1.362 . S
C2094 H2086 0.930 . S
C2094 C2093 1.362 . S
C2094 C2097 1.409 . S
C2095 H2087 0.930 . S
C2095 C2096 1.355 . S
C2095 C2097 1.415 . S
C2096 C2095 1.355 . S
C2096 C2098 1.419 . S
C2097 C2092 1.425 . S
C2097 C2094 1.409 . S
C2097 C2095 1.415 . S
C2098 H2088 0.930 . S
C2098 C2096 1.419 . S
C2098 C2099 1.362 . S
C2099 H2089 0.930 . S
C2099 C2092 1.409 . S
C2099 C2098 1.362 . S
H2100 C2106 0.930 . S
H2101 C2109 0.930 . S
H2102 C2110 0.930 . S
H2103 C2111 0.930 . S
H2104 C2114 0.930 . S
H2105 C2115 0.930 . S
C2106 H2100 0.930 . S
C2106 C2107 1.355 . S
C2106 C2108 1.415 . S
C2107 C2106 1.355 . S
C2107 C2109 1.419 . S
C2108 C2106 1.415 . S
C2108 C2113 1.425 . S
C2108 C2115 1.409 . S
C2109 H2101 0.930 . S
C2109 C2107 1.419 . S
C2109 C2110 1.362 . S
C2110 H2102 0.930 . S
C2110 C2109 1.362 . S
C2110 C2113 1.409 . S
C2111 H2103 0.930 . S
C2111 C2112 1.355 . S
C2111 C2113 1.415 . S
C2112 C2111 1.355 . S
C2112 C2114 1.419 . S
C2113 C2108 1.425 . S
C2113 C2110 1.409 . S
C2113 C2111 1.415 . S
C2114 H2104 0.930 . S
C2114 C2112 1.419 . S
C2114 C2115 1.362 . S
C2115 H2105 0.930 . S
C2115 C2108 1.409 . S
C2115 C2114 1.362 . S
H2116 C2122 0.930 . S
H2117 C2125 0.930 . S
H2118 C2126 0.930 . S
H2119 C2127 0.930 . S
H2120 C2130 0.930 . S
H2121 C2131 0.930 . S
C2122 H2116 0.930 . S
C2122 C2123 1.355 . S
C2122 C2124 1.415 . S
C2123 C2122 1.355 . S
C2123 C2125 1.419 . S
C2124 C2122 1.415 . S
C2124 C2129 1.425 . S
C2124 C2131 1.409 . S
C2125 H2117 0.930 . S
C2125 C2123 1.419 . S
C2125 C2126 1.362 . S
C2126 H2118 0.930 . S
C2126 C2125 1.362 . S
C2126 C2129 1.409 . S
C2127 H2119 0.930 . S
C2127 C2128 1.355 . S
C2127 C2129 1.415 . S
C2128 C2127 1.355 . S
C2128 C2130 1.419 . S
C2129 C2124 1.425 . S
C2129 C2126 1.409 . S
C2129 C2127 1.415 . S
C2130 H2120 0.930 . S
C2130 C2128 1.419 . S
C2130 C2131 1.362 . S
C2131 H2121 0.930 . S
C2131 C2124 1.409 . S
C2131 C2130 1.362 . S
H2132 C2138 0.930 . S
H2133 C2141 0.930 . S
H2134 C2142 0.930 . S
H2135 C2143 0.930 . S
H2136 C2146 0.930 . S
H2137 C2147 0.930 . S
C2138 H2132 0.930 . S
C2138 C2139 1.355 . S
C2138 C2140 1.415 . S
C2139 C2138 1.355 . S
C2139 C2141 1.419 . S
C2140 C2138 1.415 . S
C2140 C2145 1.425 . S
C2140 C2147 1.409 . S
C2141 H2133 0.930 . S
C2141 C2139 1.419 . S
C2141 C2142 1.362 . S
C2142 H2134 0.930 . S
C2142 C2141 1.362 . S
C2142 C2145 1.409 . S
C2143 H2135 0.930 . S
C2143 C2144 1.355 . S
C2143 C2145 1.415 . S
C2144 C2143 1.355 . S
C2144 C2146 1.419 . S
C2145 C2140 1.425 . S
C2145 C2142 1.409 . S
C2145 C2143 1.415 . S
C2146 H2136 0.930 . S
C2146 C2144 1.419 . S
C2146 C2147 1.362 . S
C2147 H2137 0.930 . S
C2147 C2140 1.409 . S
C2147 C2146 1.362 . S
H2148 C2154 0.930 . S
H2149 C2157 0.930 . S
H2150 C2158 0.930 . S
H2151 C2159 0.930 . S
H2152 C2162 0.930 . S
H2153 C2163 0.930 . S
C2154 H2148 0.930 . S
C2154 C2155 1.355 . S
C2154 C2156 1.415 . S
C2155 C2154 1.355 . S
C2155 C2157 1.419 . S
C2156 C2154 1.415 . S
C2156 C2161 1.425 . S
C2156 C2163 1.409 . S
C2157 H2149 0.930 . S
C2157 C2155 1.419 . S
C2157 C2158 1.362 . S
C2158 H2150 0.930 . S
C2158 C2157 1.362 . S
C2158 C2161 1.409 . S
C2159 H2151 0.930 . S
C2159 C2160 1.355 . S
C2159 C2161 1.415 . S
C2160 C2159 1.355 . S
C2160 C2162 1.419 . S
C2161 C2156 1.425 . S
C2161 C2158 1.409 . S
C2161 C2159 1.415 . S
C2162 H2152 0.930 . S
C2162 C2160 1.419 . S
C2162 C2163 1.362 . S
C2163 H2153 0.930 . S
C2163 C2156 1.409 . S
C2163 C2162 1.362 . S
H2164 C2170 0.930 . S
H2165 C2173 0.930 1_556 S
H2166 C2174 0.930 . S
H2167 C2175 0.930 . S
H2168 C2178 0.930 . S
H2169 C2179 0.930 . S
C2170 H2164 0.930 . S
C2170 C2171 1.355 . S
C2170 C2172 1.415 . S
C2171 C2170 1.355 . S
C2171 C2173 1.419 . S
C2172 C2170 1.415 . S
C2172 C2177 1.425 . S
C2172 C2179 1.409 . S
C2173 H2165 0.930 1_554 S
C2173 C2171 1.419 . S
C2173 C2174 1.362 . S
C2174 H2166 0.930 . S
C2174 C2173 1.362 . S
C2174 C2177 1.409 . S
C2175 H2167 0.930 . S
C2175 C2176 1.355 . S
C2175 C2177 1.415 . S
C2176 C2175 1.355 . S
C2176 C2178 1.419 . S
C2177 C2172 1.425 . S
C2177 C2174 1.409 . S
C2177 C2175 1.415 . S
C2178 H2168 0.930 . S
C2178 C2176 1.419 . S
C2178 C2179 1.362 . S
C2179 H2169 0.930 . S
C2179 C2172 1.409 . S
C2179 C2178 1.362 . S
H2180 C2186 0.930 . S
H2181 C2189 0.930 . S
H2182 C2190 0.930 . S
H2183 C2191 0.930 . S
H2184 C2194 0.930 . S
H2185 C2195 0.930 . S
C2186 H2180 0.930 . S
C2186 C2187 1.355 . S
C2186 C2188 1.415 . S
C2187 C2186 1.355 . S
C2187 C2189 1.419 . S
C2188 C2186 1.415 . S
C2188 C2193 1.425 . S
C2188 C2195 1.409 . S
C2189 H2181 0.930 . S
C2189 C2187 1.419 . S
C2189 C2190 1.362 . S
C2190 H2182 0.930 . S
C2190 C2189 1.362 . S
C2190 C2193 1.409 . S
C2191 H2183 0.930 . S
C2191 C2192 1.355 . S
C2191 C2193 1.415 . S
C2192 C2191 1.355 . S
C2192 C2194 1.419 . S
C2193 C2188 1.425 . S
C2193 C2190 1.409 . S
C2193 C2191 1.415 . S
C2194 H2184 0.930 . S
C2194 C2192 1.419 . S
C2194 C2195 1.362 . S
C2195 H2185 0.930 . S
C2195 C2188 1.409 . S
C2195 C2194 1.362 . S
H2196 C2202 0.930 . S
H2197 C2205 0.930 . S
H2198 C2206 0.930 . S
H2199 C2207 0.930 . S
H2200 C2210 0.930 . S
H2201 C2211 0.930 . S
C2202 H2196 0.930 . S
C2202 C2203 1.355 . S
C2202 C2204 1.415 . S
C2203 C2202 1.355 . S
C2203 C2205 1.419 . S
C2204 C2202 1.415 . S
C2204 C2209 1.425 . S
C2204 C2211 1.409 . S
C2205 H2197 0.930 . S
C2205 C2203 1.419 . S
C2205 C2206 1.362 . S
C2206 H2198 0.930 . S
C2206 C2205 1.362 . S
C2206 C2209 1.409 . S
C2207 H2199 0.930 . S
C2207 C2208 1.355 . S
C2207 C2209 1.415 . S
C2208 C2207 1.355 . S
C2208 C2210 1.419 . S
C2209 C2204 1.425 . S
C2209 C2206 1.409 . S
C2209 C2207 1.415 . S
C2210 H2200 0.930 . S
C2210 C2208 1.419 . S
C2210 C2211 1.362 . S
C2211 H2201 0.930 . S
C2211 C2204 1.409 . S
C2211 C2210 1.362 . S
H2212 C2218 0.930 . S
H2213 C2221 0.930 . S
H2214 C2222 0.930 . S
H2215 C2223 0.930 . S
H2216 C2226 0.930 . S
H2217 C2227 0.930 . S
C2218 H2212 0.930 . S
C2218 C2219 1.355 . S
C2218 C2220 1.415 . S
C2219 C2218 1.355 . S
C2219 C2221 1.419 . S
C2220 C2218 1.415 . S
C2220 C2225 1.425 . S
C2220 C2227 1.409 . S
C2221 H2213 0.930 . S
C2221 C2219 1.419 . S
C2221 C2222 1.362 . S
C2222 H2214 0.930 . S
C2222 C2221 1.362 . S
C2222 C2225 1.409 . S
C2223 H2215 0.930 . S
C2223 C2224 1.355 . S
C2223 C2225 1.415 . S
C2224 C2223 1.355 . S
C2224 C2226 1.419 . S
C2225 C2220 1.425 . S
C2225 C2222 1.409 . S
C2225 C2223 1.415 . S
C2226 H2216 0.930 . S
C2226 C2224 1.419 . S
C2226 C2227 1.362 . S
C2227 H2217 0.930 . S
C2227 C2220 1.409 . S
C2227 C2226 1.362 . S
H2228 C2234 0.930 . S
H2229 C2237 0.930 . S
H2230 C2238 0.930 . S
H2231 C2239 0.930 . S
H2232 C2242 0.930 . S
H2233 C2243 0.930 . S
C2234 H2228 0.930 . S
C2234 C2235 1.355 . S
C2234 C2236 1.415 . S
C2235 C2234 1.355 . S
C2235 C2237 1.419 . S
C2236 C2234 1.415 . S
C2236 C2241 1.425 . S
C2236 C2243 1.409 . S
C2237 H2229 0.930 . S
C2237 C2235 1.419 . S
C2237 C2238 1.362 . S
C2238 H2230 0.930 . S
C2238 C2237 1.362 . S
C2238 C2241 1.409 . S
C2239 H2231 0.930 . S
C2239 C2240 1.355 . S
C2239 C2241 1.415 . S
C2240 C2239 1.355 . S
C2240 C2242 1.419 . S
C2241 C2236 1.425 . S
C2241 C2238 1.409 . S
C2241 C2239 1.415 . S
C2242 H2232 0.930 . S
C2242 C2240 1.419 . S
C2242 C2243 1.362 . S
C2243 H2233 0.930 . S
C2243 C2236 1.409 . S
C2243 C2242 1.362 . S
H2244 C2250 0.930 . S
H2245 C2253 0.930 . S
H2246 C2254 0.930 . S
H2247 C2255 0.930 . S
H2248 C2258 0.930 . S
H2249 C2259 0.930 . S
C2250 H2244 0.930 . S
C2250 C2251 1.355 . S
C2250 C2252 1.415 . S
C2251 C2250 1.355 . S
C2251 C2253 1.419 . S
C2252 C2250 1.415 . S
C2252 C2257 1.425 1_455 S
C2252 C2259 1.409 . S
C2253 H2245 0.930 . S
C2253 C2251 1.419 . S
C2253 C2254 1.362 1_455 S
C2254 H2246 0.930 . S
C2254 C2253 1.362 1_655 S
C2254 C2257 1.409 . S
C2255 H2247 0.930 . S
C2255 C2256 1.355 . S
C2255 C2257 1.415 . S
C2256 C2255 1.355 . S
C2256 C2258 1.419 . S
C2257 C2252 1.425 1_655 S
C2257 C2254 1.409 . S
C2257 C2255 1.415 . S
C2258 H2248 0.930 . S
C2258 C2256 1.419 . S
C2258 C2259 1.362 1_655 S
C2259 H2249 0.930 . S
C2259 C2252 1.409 . S
C2259 C2258 1.362 1_455 S
H2260 C2266 0.930 . S
H2261 C2269 0.930 . S
H2262 C2270 0.930 . S
H2263 C2271 0.930 . S
H2264 C2274 0.930 . S
H2265 C2275 0.930 . S
C2266 H2260 0.930 . S
C2266 C2267 1.355 . S
C2266 C2268 1.415 . S
C2267 C2266 1.355 . S
C2267 C2269 1.419 . S
C2268 C2266 1.415 . S
C2268 C2273 1.425 . S
C2268 C2275 1.409 . S
C2269 H2261 0.930 . S
C2269 C2267 1.419 . S
C2269 C2270 1.362 . S
C2270 H2262 0.930 . S
C2270 C2269 1.362 . S
C2270 C2273 1.409 . S
C2271 H2263 0.930 . S
C2271 C2272 1.355 . S
C2271 C2273 1.415 . S
C2272 C2271 1.355 . S
C2272 C2274 1.419 . S
C2273 C2268 1.425 . S
C2273 C2270 1.409 . S
C2273 C2271 1.415 . S
C2274 H2264 0.930 . S
C2274 C2272 1.419 . S
C2274 C2275 1.362 . S
C2275 H2265 0.930 . S
C2275 C2268 1.409 . S
C2275 C2274 1.362 . S
H2276 C2282 0.930 . S
H2277 C2285 0.930 . S
H2278 C2286 0.930 . S
H2279 C2287 0.930 . S
H2280 C2290 0.930 . S
H2281 C2291 0.930 . S
C2282 H2276 0.930 . S
C2282 C2283 1.355 . S
C2282 C2284 1.415 . S
C2283 C2282 1.355 . S
C2283 C2285 1.419 . S
C2284 C2282 1.415 . S
C2284 C2289 1.425 1_545 S
C2284 C2291 1.409 1_545 S
C2285 H2277 0.930 . S
C2285 C2283 1.419 . S
C2285 C2286 1.362 . S
C2286 H2278 0.930 . S
C2286 C2285 1.362 . S
C2286 C2289 1.409 1_545 S
C2287 H2279 0.930 . S
C2287 C2288 1.355 . S
C2287 C2289 1.415 . S
C2288 C2287 1.355 . S
C2288 C2290 1.419 . S
C2289 C2284 1.425 1_565 S
C2289 C2286 1.409 1_565 S
C2289 C2287 1.415 . S
C2290 H2280 0.930 . S
C2290 C2288 1.419 . S
C2290 C2291 1.362 . S
C2291 H2281 0.930 . S
C2291 C2284 1.409 1_565 S
C2291 C2290 1.362 . S
H2292 C2298 0.930 . S
H2293 C2301 0.930 . S
H2294 C2302 0.930 . S
H2295 C2303 0.930 . S
H2296 C2306 0.930 . S
H2297 C2307 0.930 . S
C2298 H2292 0.930 . S
C2298 C2299 1.355 . S
C2298 C2300 1.415 . S
C2299 C2298 1.355 . S
C2299 C2301 1.419 . S
C2300 C2298 1.415 . S
C2300 C2305 1.425 1_545 S
C2300 C2307 1.409 1_545 S
C2301 H2293 0.930 . S
C2301 C2299 1.419 . S
C2301 C2302 1.362 . S
C2302 H2294 0.930 . S
C2302 C2301 1.362 . S
C2302 C2305 1.409 1_545 S
C2303 H2295 0.930 . S
C2303 C2304 1.355 . S
C2303 C2305 1.415 . S
C2304 C2303 1.355 . S
C2304 C2306 1.419 . S
C2305 C2300 1.425 1_565 S
C2305 C2302 1.409 1_565 S
C2305 C2303 1.415 . S
C2306 H2296 0.930 . S
C2306 C2304 1.419 . S
C2306 C2307 1.362 . S
C2307 H2297 0.930 . S
C2307 C2300 1.409 1_565 S
C2307 C2306 1.362 . S
H2308 C2314 0.930 . S
H2309 C2317 0.930 . S
H2310 C2318 0.929 1_455 S
H2311 C2319 0.930 . S
H2312 C2322 0.930 . S
H2313 C2323 0.929 1_655 S
C2314 H2308 0.930 . S
C2314 C2315 1.355 . S
C2314 C2316 1.415 . S
C2315 C2314 1.355 . S
C2315 C2317 1.419 . S
C2316 C2314 1.415 . S
C2316 C2321 1.425 1_655 S
C2316 C2323 1.402 1_655 S
C2317 H2309 0.930 . S
C2317 C2315 1.419 . S
C2317 C2318 1.372 . S
C2318 H2310 0.929 1_655 S
C2318 C2317 1.372 . S
C2318 C2321 1.401 1_655 S
C2319 H2311 0.930 . S
C2319 C2320 1.355 . S
C2319 C2321 1.415 . S
C2320 C2319 1.355 . S
C2320 C2322 1.419 . S
C2321 C2316 1.425 1_455 S
C2321 C2318 1.401 1_455 S
C2321 C2319 1.415 . S
C2322 H2312 0.930 . S
C2322 C2320 1.419 . S
C2322 C2323 1.372 . S
C2323 H2313 0.929 1_455 S
C2323 C2316 1.402 1_455 S
C2323 C2322 1.372 . S
H2324 C2330 0.930 . S
H2325 C2333 0.930 . S
H2326 C2334 0.930 . S
H2327 C2335 0.930 . S
H2328 C2338 0.930 . S
H2329 C2339 0.930 . S
C2330 H2324 0.930 . S
C2330 C2331 1.355 . S
C2330 C2332 1.415 . S
C2331 C2330 1.355 . S
C2331 C2333 1.419 . S
C2332 C2330 1.415 . S
C2332 C2337 1.425 . S
C2332 C2339 1.409 . S
C2333 H2325 0.930 . S
C2333 C2331 1.419 . S
C2333 C2334 1.362 . S
C2334 H2326 0.930 . S
C2334 C2333 1.362 . S
C2334 C2337 1.409 . S
C2335 H2327 0.930 . S
C2335 C2336 1.355 . S
C2335 C2337 1.415 . S
C2336 C2335 1.355 . S
C2336 C2338 1.419 . S
C2337 C2332 1.425 . S
C2337 C2334 1.409 . S
C2337 C2335 1.415 . S
C2338 H2328 0.930 . S
C2338 C2336 1.419 . S
C2338 C2339 1.362 . S
C2339 H2329 0.930 . S
C2339 C2332 1.409 . S
C2339 C2338 1.362 . S
H2340 C2346 0.930 . S
H2341 C2349 0.930 . S
H2342 C2350 0.930 . S
H2343 C2351 0.930 . S
H2344 C2354 0.930 . S
H2345 C2355 0.930 . S
C2346 H2340 0.930 . S
C2346 C2347 1.355 . S
C2346 C2348 1.415 . S
C2347 C2346 1.355 . S
C2347 C2349 1.419 . S
C2348 C2346 1.415 . S
C2348 C2353 1.425 . S
C2348 C2355 1.409 . S
C2349 H2341 0.930 . S
C2349 C2347 1.419 . S
C2349 C2350 1.362 . S
C2350 H2342 0.930 . S
C2350 C2349 1.362 . S
C2350 C2353 1.409 . S
C2351 H2343 0.930 . S
C2351 C2352 1.355 . S
C2351 C2353 1.415 . S
C2352 C2351 1.355 . S
C2352 C2354 1.419 . S
C2353 C2348 1.425 . S
C2353 C2350 1.409 . S
C2353 C2351 1.415 . S
C2354 H2344 0.930 . S
C2354 C2352 1.419 . S
C2354 C2355 1.362 . S
C2355 H2345 0.930 . S
C2355 C2348 1.409 . S
C2355 C2354 1.362 . S
H2356 C2362 0.930 . S
H2357 C2365 0.930 . S
H2358 C2366 0.930 . S
H2359 C2367 0.930 . S
H2360 C2370 0.930 . S
H2361 C2371 0.930 . S
C2362 H2356 0.930 . S
C2362 C2363 1.355 . S
C2362 C2364 1.415 . S
C2363 C2362 1.355 . S
C2363 C2365 1.419 . S
C2364 C2362 1.415 . S
C2364 C2369 1.425 . S
C2364 C2371 1.409 . S
C2365 H2357 0.930 . S
C2365 C2363 1.419 . S
C2365 C2366 1.362 . S
C2366 H2358 0.930 . S
C2366 C2365 1.362 . S
C2366 C2369 1.409 . S
C2367 H2359 0.930 . S
C2367 C2368 1.355 . S
C2367 C2369 1.415 . S
C2368 C2367 1.355 . S
C2368 C2370 1.419 . S
C2369 C2364 1.425 . S
C2369 C2366 1.409 . S
C2369 C2367 1.415 . S
C2370 H2360 0.930 . S
C2370 C2368 1.419 . S
C2370 C2371 1.362 . S
C2371 H2361 0.930 . S
C2371 C2364 1.409 . S
C2371 C2370 1.362 . S
H2372 C2378 0.930 . S
H2373 C2381 0.930 . S
H2374 C2382 0.930 . S
H2375 C2383 0.930 . S
H2376 C2386 0.930 . S
H2377 C2387 0.930 . S
C2378 H2372 0.930 . S
C2378 C2379 1.355 . S
C2378 C2380 1.415 . S
C2379 C2378 1.355 . S
C2379 C2381 1.419 . S
C2380 C2378 1.415 . S
C2380 C2385 1.425 . S
C2380 C2387 1.409 . S
C2381 H2373 0.930 . S
C2381 C2379 1.419 . S
C2381 C2382 1.362 . S
C2382 H2374 0.930 . S
C2382 C2381 1.362 . S
C2382 C2385 1.409 . S
C2383 H2375 0.930 . S
C2383 C2384 1.355 . S
C2383 C2385 1.415 . S
C2384 C2383 1.355 . S
C2384 C2386 1.419 . S
C2385 C2380 1.425 . S
C2385 C2382 1.409 . S
C2385 C2383 1.415 . S
C2386 H2376 0.930 . S
C2386 C2384 1.419 . S
C2386 C2387 1.362 . S
C2387 H2377 0.930 . S
C2387 C2380 1.409 . S
C2387 C2386 1.362 . S
H2388 C2394 0.930 . S
H2389 C2397 0.930 . S
H2390 C2398 0.930 . S
H2391 C2399 0.930 . S
H2392 C2402 0.930 . S
H2393 C2403 0.930 . S
C2394 H2388 0.930 . S
C2394 C2395 1.355 . S
C2394 C2396 1.415 . S
C2395 C2394 1.355 . S
C2395 C2397 1.419 . S
C2396 C2394 1.415 . S
C2396 C2401 1.425 . S
C2396 C2403 1.409 . S
C2397 H2389 0.930 . S
C2397 C2395 1.419 . S
C2397 C2398 1.362 . S
C2398 H2390 0.930 . S
C2398 C2397 1.362 . S
C2398 C2401 1.409 . S
C2399 H2391 0.930 . S
C2399 C2400 1.355 . S
C2399 C2401 1.415 . S
C2400 C2399 1.355 . S
C2400 C2402 1.419 . S
C2401 C2396 1.425 . S
C2401 C2398 1.409 . S
C2401 C2399 1.415 . S
C2402 H2392 0.930 . S
C2402 C2400 1.419 . S
C2402 C2403 1.362 . S
C2403 H2393 0.930 . S
C2403 C2396 1.409 . S
C2403 C2402 1.362 . S
H2404 C2410 0.930 . S
H2405 C2413 0.930 . S
H2406 C2414 0.930 . S
H2407 C2415 0.930 . S
H2408 C2418 0.930 . S
H2409 C2419 0.930 . S
C2410 H2404 0.930 . S
C2410 C2411 1.355 . S
C2410 C2412 1.415 . S
C2411 C2410 1.355 . S
C2411 C2413 1.419 . S
C2412 C2410 1.415 . S
C2412 C2417 1.425 . S
C2412 C2419 1.409 . S
C2413 H2405 0.930 . S
C2413 C2411 1.419 . S
C2413 C2414 1.362 . S
C2414 H2406 0.930 . S
C2414 C2413 1.362 . S
C2414 C2417 1.409 . S
C2415 H2407 0.930 . S
C2415 C2416 1.355 . S
C2415 C2417 1.415 . S
C2416 C2415 1.355 . S
C2416 C2418 1.419 . S
C2417 C2412 1.425 . S
C2417 C2414 1.409 . S
C2417 C2415 1.415 . S
C2418 H2408 0.930 . S
C2418 C2416 1.419 . S
C2418 C2419 1.362 . S
C2419 H2409 0.930 . S
C2419 C2412 1.409 . S
C2419 C2418 1.362 . S
H2420 C2426 0.930 . S
H2421 C2429 0.930 . S
H2422 C2430 0.930 . S
H2423 C2431 0.930 . S
H2424 C2434 0.930 . S
H2425 C2435 0.930 . S
C2426 H2420 0.930 . S
C2426 C2427 1.355 . S
C2426 C2428 1.415 . S
C2427 C2426 1.355 . S
C2427 C2429 1.419 . S
C2428 C2426 1.415 . S
C2428 C2433 1.425 . S
C2428 C2435 1.409 . S
C2429 H2421 0.930 . S
C2429 C2427 1.419 . S
C2429 C2430 1.362 . S
C2430 H2422 0.930 . S
C2430 C2429 1.362 . S
C2430 C2433 1.409 . S
C2431 H2423 0.930 . S
C2431 C2432 1.355 . S
C2431 C2433 1.415 . S
C2432 C2431 1.355 . S
C2432 C2434 1.419 . S
C2433 C2428 1.425 . S
C2433 C2430 1.409 . S
C2433 C2431 1.415 . S
C2434 H2424 0.930 . S
C2434 C2432 1.419 . S
C2434 C2435 1.362 . S
C2435 H2425 0.930 . S
C2435 C2428 1.409 . S
C2435 C2434 1.362 . S
H2436 C2442 0.930 . S
H2437 C2445 0.930 . S
H2438 C2446 0.930 . S
H2439 C2447 0.930 . S
H2440 C2450 0.930 . S
H2441 C2451 0.930 . S
C2442 H2436 0.930 . S
C2442 C2443 1.355 . S
C2442 C2444 1.415 . S
C2443 C2442 1.355 . S
C2443 C2445 1.419 . S
C2444 C2442 1.415 . S
C2444 C2449 1.425 . S
C2444 C2451 1.409 . S
C2445 H2437 0.930 . S
C2445 C2443 1.419 . S
C2445 C2446 1.362 . S
C2446 H2438 0.930 . S
C2446 C2445 1.362 . S
C2446 C2449 1.409 . S
C2447 H2439 0.930 . S
C2447 C2448 1.355 . S
C2447 C2449 1.415 . S
C2448 C2447 1.355 . S
C2448 C2450 1.419 . S
C2449 C2444 1.425 . S
C2449 C2446 1.409 . S
C2449 C2447 1.415 . S
C2450 H2440 0.930 . S
C2450 C2448 1.419 . S
C2450 C2451 1.362 . S
C2451 H2441 0.930 . S
C2451 C2444 1.409 . S
C2451 C2450 1.362 . S
H2452 C2458 0.930 . S
H2453 C2461 0.930 . S
H2454 C2462 0.930 . S
H2455 C2463 0.930 . S
H2456 C2466 0.930 . S
H2457 C2467 0.930 . S
C2458 H2452 0.930 . S
C2458 C2459 1.355 . S
C2458 C2460 1.415 . S
C2459 C2458 1.355 . S
C2459 C2461 1.419 . S
C2460 C2458 1.415 . S
C2460 C2465 1.425 . S
C2460 C2467 1.409 . S
C2461 H2453 0.930 . S
C2461 C2459 1.419 . S
C2461 C2462 1.362 . S
C2462 H2454 0.930 . S
C2462 C2461 1.362 . S
C2462 C2465 1.409 . S
C2463 H2455 0.930 . S
C2463 C2464 1.355 . S
C2463 C2465 1.415 . S
C2464 C2463 1.355 . S
C2464 C2466 1.419 . S
C2465 C2460 1.425 . S
C2465 C2462 1.409 . S
C2465 C2463 1.415 . S
C2466 H2456 0.930 . S
C2466 C2464 1.419 . S
C2466 C2467 1.362 . S
C2467 H2457 0.930 . S
C2467 C2460 1.409 . S
C2467 C2466 1.362 . S
H2468 C2474 0.930 . S
H2469 C2477 0.930 . S
H2470 C2478 0.930 . S
H2471 C2479 0.930 . S
H2472 C2482 0.930 . S
H2473 C2483 0.930 . S
C2474 H2468 0.930 . S
C2474 C2475 1.355 . S
C2474 C2476 1.415 . S
C2475 C2474 1.355 . S
C2475 C2477 1.419 . S
C2476 C2474 1.415 . S
C2476 C2481 1.425 . S
C2476 C2483 1.409 . S
C2477 H2469 0.930 . S
C2477 C2475 1.419 . S
C2477 C2478 1.362 . S
C2478 H2470 0.930 . S
C2478 C2477 1.362 . S
C2478 C2481 1.409 . S
C2479 H2471 0.930 . S
C2479 C2480 1.355 . S
C2479 C2481 1.415 . S
C2480 C2479 1.355 . S
C2480 C2482 1.419 . S
C2481 C2476 1.425 . S
C2481 C2478 1.409 . S
C2481 C2479 1.415 . S
C2482 H2472 0.930 . S
C2482 C2480 1.419 . S
C2482 C2483 1.362 . S
C2483 H2473 0.930 . S
C2483 C2476 1.409 . S
C2483 C2482 1.362 . S
H2484 C2490 0.930 . S
H2485 C2493 0.930 . S
H2486 C2494 0.930 . S
H2487 C2495 0.930 . S
H2488 C2498 0.930 . S
H2489 C2499 0.930 . S
C2490 H2484 0.930 . S
C2490 C2491 1.355 . S
C2490 C2492 1.415 . S
C2491 C2490 1.355 . S
C2491 C2493 1.419 . S
C2492 C2490 1.415 . S
C2492 C2497 1.425 . S
C2492 C2499 1.409 . S
C2493 H2485 0.930 . S
C2493 C2491 1.419 . S
C2493 C2494 1.362 . S
C2494 H2486 0.930 . S
C2494 C2493 1.362 . S
C2494 C2497 1.409 . S
C2495 H2487 0.930 . S
C2495 C2496 1.355 . S
C2495 C2497 1.415 . S
C2496 C2495 1.355 . S
C2496 C2498 1.419 . S
C2497 C2492 1.425 . S
C2497 C2494 1.409 . S
C2497 C2495 1.415 . S
C2498 H2488 0.930 . S
C2498 C2496 1.419 . S
C2498 C2499 1.362 . S
C2499 H2489 0.930 . S
C2499 C2492 1.409 . S
C2499 C2498 1.362 . S
H2500 C2506 0.930 . S
H2501 C2509 0.930 . S
H2502 C2510 0.930 . S
H2503 C2511 0.930 . S
H2504 C2514 0.930 . S
H2505 C2515 0.930 . S
C2506 H2500 0.930 . S
C2506 C2507 1.355 . S
C2506 C2508 1.415 . S
C2507 C2506 1.355 . S
C2507 C2509 1.419 . S
C2508 C2506 1.415 . S
C2508 C2513 1.425 . S
C2508 C2515 1.409 . S
C2509 H2501 0.930 . S
C2509 C2507 1.419 . S
C2509 C2510 1.362 . S
C2510 H2502 0.930 . S
C2510 C2509 1.362 . S
C2510 C2513 1.409 . S
C2511 H2503 0.930 . S
C2511 C2512 1.355 . S
C2511 C2513 1.415 . S
C2512 C2511 1.355 . S
C2512 C2514 1.419 . S
C2513 C2508 1.425 . S
C2513 C2510 1.409 . S
C2513 C2511 1.415 . S
C2514 H2504 0.930 . S
C2514 C2512 1.419 . S
C2514 C2515 1.362 . S
C2515 H2505 0.930 . S
C2515 C2508 1.409 . S
C2515 C2514 1.362 . S
H2516 C2522 0.930 . S
H2517 C2525 0.930 . S
H2518 C2526 0.930 . S
H2519 C2527 0.930 . S
H2520 C2530 0.930 . S
H2521 C2531 0.930 . S
C2522 H2516 0.930 . S
C2522 C2523 1.355 . S
C2522 C2524 1.415 . S
C2523 C2522 1.355 . S
C2523 C2525 1.419 . S
C2524 C2522 1.415 . S
C2524 C2529 1.425 . S
C2524 C2531 1.409 . S
C2525 H2517 0.930 . S
C2525 C2523 1.419 . S
C2525 C2526 1.362 . S
C2526 H2518 0.930 . S
C2526 C2525 1.362 . S
C2526 C2529 1.409 . S
C2527 H2519 0.930 . S
C2527 C2528 1.355 . S
C2527 C2529 1.415 . S
C2528 C2527 1.355 . S
C2528 C2530 1.419 . S
C2529 C2524 1.425 . S
C2529 C2526 1.409 . S
C2529 C2527 1.415 . S
C2530 H2520 0.930 . S
C2530 C2528 1.419 . S
C2530 C2531 1.362 . S
C2531 H2521 0.930 . S
C2531 C2524 1.409 . S
C2531 C2530 1.362 . S
H2532 C2538 0.930 . S
H2533 C2541 0.930 . S
H2534 C2542 0.930 . S
H2535 C2543 0.930 . S
H2536 C2546 0.930 . S
H2537 C2547 0.930 . S
C2538 H2532 0.930 . S
C2538 C2539 1.355 . S
C2538 C2540 1.415 . S
C2539 C2538 1.355 . S
C2539 C2541 1.419 . S
C2540 C2538 1.415 . S
C2540 C2545 1.425 1_455 S
C2540 C2547 1.409 1_455 S
C2541 H2533 0.930 . S
C2541 C2539 1.419 . S
C2541 C2542 1.362 . S
C2542 H2534 0.930 . S
C2542 C2541 1.362 . S
C2542 C2545 1.409 1_455 S
C2543 H2535 0.930 . S
C2543 C2544 1.355 . S
C2543 C2545 1.415 . S
C2544 C2543 1.355 . S
C2544 C2546 1.419 . S
C2545 C2540 1.425 1_655 S
C2545 C2542 1.409 1_655 S
C2545 C2543 1.415 . S
C2546 H2536 0.930 . S
C2546 C2544 1.419 . S
C2546 C2547 1.362 . S
C2547 H2537 0.930 . S
C2547 C2540 1.409 1_655 S
C2547 C2546 1.362 . S
H2548 C2554 0.930 . S
H2549 C2557 0.930 . S
H2550 C2558 0.930 . S
H2551 C2559 0.930 . S
H2552 C2562 0.930 . S
H2553 C2563 0.930 . S
C2554 H2548 0.930 . S
C2554 C2555 1.355 . S
C2554 C2556 1.415 . S
C2555 C2554 1.355 . S
C2555 C2557 1.419 . S
C2556 C2554 1.415 . S
C2556 C2561 1.425 . S
C2556 C2563 1.409 . S
C2557 H2549 0.930 . S
C2557 C2555 1.419 . S
C2557 C2558 1.362 . S
C2558 H2550 0.930 . S
C2558 C2557 1.362 . S
C2558 C2561 1.409 . S
C2559 H2551 0.930 . S
C2559 C2560 1.355 . S
C2559 C2561 1.415 . S
C2560 C2559 1.355 . S
C2560 C2562 1.419 . S
C2561 C2556 1.425 . S
C2561 C2558 1.409 . S
C2561 C2559 1.415 . S
C2562 H2552 0.930 . S
C2562 C2560 1.419 . S
C2562 C2563 1.362 . S
C2563 H2553 0.930 . S
C2563 C2556 1.409 . S
C2563 C2562 1.362 . S
H2564 C2570 0.930 . S
H2565 C2573 0.930 . S
H2566 C2574 0.930 . S
H2567 C2575 0.930 . S
H2568 C2578 0.930 . S
H2569 C2579 0.930 . S
C2570 H2564 0.930 . S
C2570 C2571 1.355 . S
C2570 C2572 1.415 . S
C2571 C2570 1.355 . S
C2571 C2573 1.419 . S
C2572 C2570 1.415 . S
C2572 C2577 1.425 1_545 S
C2572 C2579 1.409 1_545 S
C2573 H2565 0.930 . S
C2573 C2571 1.419 . S
C2573 C2574 1.362 . S
C2574 H2566 0.930 . S
C2574 C2573 1.362 . S
C2574 C2577 1.409 1_545 S
C2575 H2567 0.930 . S
C2575 C2576 1.355 . S
C2575 C2577 1.415 . S
C2576 C2575 1.355 . S
C2576 C2578 1.419 . S
C2577 C2572 1.425 1_565 S
C2577 C2574 1.409 1_565 S
C2577 C2575 1.415 . S
C2578 H2568 0.930 . S
C2578 C2576 1.419 . S
C2578 C2579 1.362 . S
C2579 H2569 0.930 . S
C2579 C2572 1.409 1_565 S
C2579 C2578 1.362 . S
H2580 C2586 0.930 . S
H2581 C2589 0.930 . S
H2582 C2590 0.930 . S
H2583 C2591 0.930 . S
H2584 C2594 0.930 . S
H2585 C2595 0.930 . S
C2586 H2580 0.930 . S
C2586 C2587 1.355 . S
C2586 C2588 1.415 . S
C2587 C2586 1.355 . S
C2587 C2589 1.419 . S
C2588 C2586 1.415 . S
C2588 C2593 1.425 1_545 S
C2588 C2595 1.409 1_545 S
C2589 H2581 0.930 . S
C2589 C2587 1.419 . S
C2589 C2590 1.362 . S
C2590 H2582 0.930 . S
C2590 C2589 1.362 . S
C2590 C2593 1.409 1_545 S
C2591 H2583 0.930 . S
C2591 C2592 1.355 . S
C2591 C2593 1.415 . S
C2592 C2591 1.355 . S
C2592 C2594 1.419 . S
C2593 C2588 1.425 1_565 S
C2593 C2590 1.409 1_565 S
C2593 C2591 1.415 . S
C2594 H2584 0.930 . S
C2594 C2592 1.419 . S
C2594 C2595 1.362 . S
C2595 H2585 0.930 . S
C2595 C2588 1.409 1_565 S
C2595 C2594 1.362 . S
H2596 C2602 0.930 . S
H2597 C2605 0.930 . S
H2598 C2606 0.930 . S
H2599 C2607 0.930 . S
H2600 C2610 0.930 . S
H2601 C2611 0.930 . S
C2602 H2596 0.930 . S
C2602 C2603 1.355 . S
C2602 C2604 1.415 . S
C2603 C2602 1.355 . S
C2603 C2605 1.419 . S
C2604 C2602 1.415 . S
C2604 C2609 1.425 1_455 S
C2604 C2611 1.409 1_455 S
C2605 H2597 0.930 . S
C2605 C2603 1.419 . S
C2605 C2606 1.362 . S
C2606 H2598 0.930 . S
C2606 C2605 1.362 . S
C2606 C2609 1.409 1_455 S
C2607 H2599 0.930 . S
C2607 C2608 1.355 . S
C2607 C2609 1.415 . S
C2608 C2607 1.355 . S
C2608 C2610 1.419 . S
C2609 C2604 1.425 1_655 S
C2609 C2606 1.409 1_655 S
C2609 C2607 1.415 . S
C2610 H2600 0.930 . S
C2610 C2608 1.419 . S
C2610 C2611 1.362 . S
C2611 H2601 0.930 . S
C2611 C2604 1.409 1_655 S
C2611 C2610 1.362 . S
H2612 C2618 0.930 . S
H2613 C2621 0.930 . S
H2614 C2622 0.930 . S
H2615 C2623 0.930 . S
H2616 C2626 0.930 . S
H2617 C2627 0.930 . S
C2618 H2612 0.930 . S
C2618 C2619 1.355 . S
C2618 C2620 1.415 . S
C2619 C2618 1.355 . S
C2619 C2621 1.419 . S
C2620 C2618 1.415 . S
C2620 C2625 1.425 . S
C2620 C2627 1.409 . S
C2621 H2613 0.930 . S
C2621 C2619 1.419 . S
C2621 C2622 1.362 . S
C2622 H2614 0.930 . S
C2622 C2621 1.362 . S
C2622 C2625 1.409 . S
C2623 H2615 0.930 . S
C2623 C2624 1.355 . S
C2623 C2625 1.415 . S
C2624 C2623 1.355 . S
C2624 C2626 1.419 . S
C2625 C2620 1.425 . S
C2625 C2622 1.409 . S
C2625 C2623 1.415 . S
C2626 H2616 0.930 . S
C2626 C2624 1.419 . S
C2626 C2627 1.362 . S
C2627 H2617 0.930 . S
C2627 C2620 1.409 . S
C2627 C2626 1.362 . S
C1195 C248 1.381 . S
C1200 N5 1.347 . S
C1211 N38 1.327 . S
C1216 C281 1.402 . S
C1227 C215 1.369 . S
C1232 N71 1.292 . S
C1243 C380 1.376 . S
C1248 N104 1.337 . S
C1259 C314 1.375 . S
C1264 N137 1.335 . S
C1275 N170 1.300 . S
C1280 C347 1.366 . S
C1291 N203 1.355 . S
C1296 C50 1.385 . S
C1307 N236 1.334 . S
C1312 C83 1.375 . S
C1323 N269 1.316 . S
C1328 C17 1.396 . S
C1339 C182 1.409 . S
C1344 N302 1.342 . S
C1355 C116 1.367 . S
C1360 N335 1.306 . S
C1371 N368 1.382 . S
C1376 C149 1.407 . S
C1387 C644 1.373 . S
C1392 N401 1.291 . S
C1403 C677 1.403 . S
C1408 N434 1.328 . S
C1419 C611 1.410 . S
C1424 N467 1.343 . S
C1435 C776 1.415 . S
C1440 N500 1.385 . S
C1451 C710 1.374 . S
C1456 N533 1.332 . S
C1467 C743 1.398 . S
C1472 N566 1.320 . S
C1483 N599 1.374 . S
C1488 C446 1.418 . S
C1499 N632 1.331 . S
C1504 C479 1.374 . S
C1515 C413 1.372 . S
C1520 N665 1.291 . S
C1531 N698 1.330 . S
C1536 C578 1.404 . S
C1547 N731 1.384 . S
C1552 C512 1.416 . S
C1563 N764 1.355 . S
C1568 C545 1.385 . S
C1579 C1040 1.369 . S
C1584 N797 1.317 . S
C1595 C1073 1.417 . S
C1600 N830 1.382 . S
C1611 N863 1.326 . S
C1616 C1007 1.372 . S
C1627 N896 1.314 . S
C1632 C1172 1.395 . S
C1643 N929 1.385 . S
C1648 C1106 1.413 . S
C1659 N962 1.353 . S
C1664 C1139 1.414 . S
C1675 C842 1.369 . S
C1680 N995 1.292 . S
C1691 C875 1.393 . S
C1696 N1028 1.311 . S
C1707 N1061 1.336 . S
C1712 C809 1.406 . S
C1723 C974 1.398 . S
C1728 N1094 1.373 . S
C1739 C908 1.377 . S
C1744 N1127 1.293 . S
C1755 N1160 1.385 . S
C1760 C941 1.412 . S
C1771 C8 1.721 . S
C1776 C107 1.715 . S
C1787 C41 1.683 . S
C1792 C140 1.683 . S
C1803 C74 1.726 . S
C1808 C173 1.721 . S
C1819 C305 1.684 . S
C1824 C206 1.687 . S
C1835 C338 1.685 . S
C1840 C239 1.688 . S
C1851 C371 1.685 . S
C1856 C272 1.687 . S
C1867 C404 1.734 . S
C1872 C503 1.729 . S
C1883 C437 1.703 . S
C1888 C536 1.709 . S
C1899 C569 1.695 . S
C1904 C470 1.700 . S
C1915 C602 1.740 . S
C1920 C701 1.738 1_554 S
C1931 C734 1.732 1_554 S
C1936 C635 1.727 . S
C1947 C767 1.739 1_554 S
C1952 C668 1.736 . S
C1963 C899 1.740 1_556 S
C1968 C800 1.741 . S
C1979 C932 1.733 1_556 S
C1984 C833 1.729 . S
C1995 C965 1.690 1_556 S
C2000 C866 1.694 . S
C2011 C1097 1.733 . S
C2016 C998 1.729 . S
C2027 C1130 1.714 . S
C2032 C1031 1.720 . S
C2043 C1064 1.727 . S
C2048 C1163 1.722 . S
C2059 C28 2.332 . S
C2064 C556 2.310 . S
C2075 C589 2.318 . S
C2080 C61 2.337 . S
C2091 C94 2.333 . S
C2096 C523 2.310 . S
C2107 C886 2.310 . S
C2112 C127 2.332 . S
C2123 C160 2.328 . S
C2128 C820 2.310 . S
C2139 C853 2.336 . S
C2144 C193 2.313 . S
C2155 C1150 2.316 . S
C2160 C226 2.337 . S
C2171 C259 2.316 . S
C2176 C1183 2.317 . S
C2187 C1117 2.337 . S
C2192 C292 2.321 . S
C2203 C325 2.321 . S
C2208 C688 2.313 . S
C2219 C358 2.334 . S
C2224 C622 2.311 . S
C2235 C655 2.310 . S
C2240 C391 2.330 . S
C2251 C952 2.316 . S
C2256 C424 2.317 . S
C2267 C985 2.337 . S
C2272 C457 2.321 . S
C2283 C490 2.337 . S
C2288 C919 2.315 . S
C2299 C721 2.332 . S
C2304 C1084 2.310 . S
C2315 C754 2.324 . S
C2320 C1018 2.311 . S
C2331 C1051 2.310 . S
C2336 C787 2.331 . S
C2347 N971 0.746 . S
C2352 N14 0.765 . S
C2363 N905 0.750 . S
C2368 N47 0.767 . S
C2379 N938 0.772 . S
C2384 N80 0.763 . S
C2395 N113 0.771 . S
C2400 N443 0.758 . S
C2411 N146 0.676 . S
C2416 N476 0.637 . S
C2427 N410 0.726 . S
C2432 N179 0.692 . S
C2443 N212 0.727 . S
C2448 N773 0.753 . S
C2459 N707 0.652 . S
C2464 N245 0.691 . S
C2475 N278 0.698 . S
C2480 N740 0.661 . S
C2491 N311 0.699 . S
C2496 N1037 0.661 . S
C2507 N1070 0.646 . S
C2512 N344 0.609 . S
C2523 N377 0.671 . S
C2528 N1004 0.632 . S
C2539 N839 0.621 . S
C2544 N509 0.588 . S
C2555 N542 0.744 . S
C2560 N872 0.714 . S
C2571 N575 0.564 . S
C2576 N806 0.588 . S
C2587 N608 0.671 . S
C2592 N1169 0.633 . S
C2603 N1103 0.761 . S
C2608 N641 0.740 . S
C2619 N1136 0.682 . S
C2624 N674 0.644 . S
