# Generated by pormake.
# Topology uou, (4)-cn, num edge types: 1
# Building blocks:
#     Node 0, Type 0, BuildingBlock: UXUYUI_clean_sbu_0, # of connection points: 4
#     Node 1, Type 0, BuildingBlock: UXUYUI_clean_sbu_0, # of connection points: 4
#     Node 2, Type 0, BuildingBlock: UXUYUI_clean_sbu_0, # of connection points: 4
#     Node 3, Type 0, BuildingBlock: UXUYUI_clean_sbu_0, # of connection points: 4
#     Node 4, Type 0, BuildingBlock: UXUYUI_clean_sbu_0, # of connection points: 4
#     Node 5, Type 0, BuildingBlock: UXUYUI_clean_sbu_0, # of connection points: 4
#     Node 6, Type 0, BuildingBlock: UXUYUI_clean_sbu_0, # of connection points: 4
#     Node 7, Type 0, BuildingBlock: UXUYUI_clean_sbu_0, # of connection points: 4
#     Node 8, Type 0, BuildingBlock: UXUYUI_clean_sbu_0, # of connection points: 4
#     Node 9, Type 0, BuildingBlock: UXUYUI_clean_sbu_0, # of connection points: 4
#     Node 10, Type 0, BuildingBlock: UXUYUI_clean_sbu_0, # of connection points: 4
#     Node 11, Type 0, BuildingBlock: UXUYUI_clean_sbu_0, # of connection points: 4
#     Node 12, Type 0, BuildingBlock: UXUYUI_clean_sbu_0, # of connection points: 4
#     Node 13, Type 0, BuildingBlock: UXUYUI_clean_sbu_0, # of connection points: 4
#     Node 14, Type 0, BuildingBlock: UXUYUI_clean_sbu_0, # of connection points: 4
#     Node 15, Type 0, BuildingBlock: UXUYUI_clean_sbu_0, # of connection points: 4
#     Edge 16, Type (0, 0), BuildingBlock: CIFDUS_clean_linker_0, # of connection points: 2
#     Edge 17, Type (0, 0), BuildingBlock: CIFDUS_clean_linker_0, # of connection points: 2
#     Edge 18, Type (0, 0), BuildingBlock: CIFDUS_clean_linker_0, # of connection points: 2
#     Edge 19, Type (0, 0), BuildingBlock: CIFDUS_clean_linker_0, # of connection points: 2
#     Edge 20, Type (0, 0), BuildingBlock: CIFDUS_clean_linker_0, # of connection points: 2
#     Edge 21, Type (0, 0), BuildingBlock: CIFDUS_clean_linker_0, # of connection points: 2
#     Edge 22, Type (0, 0), BuildingBlock: CIFDUS_clean_linker_0, # of connection points: 2
#     Edge 23, Type (0, 0), BuildingBlock: CIFDUS_clean_linker_0, # of connection points: 2
#     Edge 24, Type (0, 0), BuildingBlock: CIFDUS_clean_linker_0, # of connection points: 2
#     Edge 25, Type (0, 0), BuildingBlock: CIFDUS_clean_linker_0, # of connection points: 2
#     Edge 26, Type (0, 0), BuildingBlock: CIFDUS_clean_linker_0, # of connection points: 2
#     Edge 27, Type (0, 0), BuildingBlock: CIFDUS_clean_linker_0, # of connection points: 2
#     Edge 28, Type (0, 0), BuildingBlock: CIFDUS_clean_linker_0, # of connection points: 2
#     Edge 29, Type (0, 0), BuildingBlock: CIFDUS_clean_linker_0, # of connection points: 2
#     Edge 30, Type (0, 0), BuildingBlock: CIFDUS_clean_linker_0, # of connection points: 2
#     Edge 31, Type (0, 0), BuildingBlock: CIFDUS_clean_linker_0, # of connection points: 2
#     Edge 32, Type (0, 0), BuildingBlock: CIFDUS_clean_linker_0, # of connection points: 2
#     Edge 33, Type (0, 0), BuildingBlock: CIFDUS_clean_linker_0, # of connection points: 2
#     Edge 34, Type (0, 0), BuildingBlock: CIFDUS_clean_linker_0, # of connection points: 2
#     Edge 35, Type (0, 0), BuildingBlock: CIFDUS_clean_linker_0, # of connection points: 2
#     Edge 36, Type (0, 0), BuildingBlock: CIFDUS_clean_linker_0, # of connection points: 2
#     Edge 37, Type (0, 0), BuildingBlock: CIFDUS_clean_linker_0, # of connection points: 2
#     Edge 38, Type (0, 0), BuildingBlock: CIFDUS_clean_linker_0, # of connection points: 2
#     Edge 39, Type (0, 0), BuildingBlock: CIFDUS_clean_linker_0, # of connection points: 2
#     Edge 40, Type (0, 0), BuildingBlock: CIFDUS_clean_linker_0, # of connection points: 2
#     Edge 41, Type (0, 0), BuildingBlock: CIFDUS_clean_linker_0, # of connection points: 2
#     Edge 42, Type (0, 0), BuildingBlock: CIFDUS_clean_linker_0, # of connection points: 2
#     Edge 43, Type (0, 0), BuildingBlock: CIFDUS_clean_linker_0, # of connection points: 2
#     Edge 44, Type (0, 0), BuildingBlock: CIFDUS_clean_linker_0, # of connection points: 2
#     Edge 45, Type (0, 0), BuildingBlock: CIFDUS_clean_linker_0, # of connection points: 2
#     Edge 46, Type (0, 0), BuildingBlock: CIFDUS_clean_linker_0, # of connection points: 2
#     Edge 47, Type (0, 0), BuildingBlock: CIFDUS_clean_linker_0, # of connection points: 2
# Relax obj value: 0.194
# Max RMSD: 0.198
# Mean RMSD: 0.197
data_MOF--net-uou--node1-UXUYUI_clean_sbu_0--edge1-CIFDUS_clean_linker_0
_symmetry_space_group_name_H-M    P1
_symmetry_Int_Tables_number       1
_symmetry_cell_setting            triclinic
loop_
_symmetry_equiv_pos_as_xyz
'x, y, z'
_cell_length_a     52.415327
_cell_length_b     50.827396
_cell_length_c     71.590019
_cell_angle_alpha  89.999068
_cell_angle_beta   90.010805
_cell_angle_gamma 90.016784
loop_
_atom_site_label
_atom_site_type_symbol
_atom_site_fract_x
_atom_site_fract_y
_atom_site_fract_z
_atom_type_partial_charge
Li0 Li 0.05729 0.05826 0.09955 0.0
Li1 Li 0.09359 0.06453 0.11801 0.0
Li2 Li 0.05232 0.0577 0.13321 0.0
Li3 Li 0.06256 0.1001 0.11518 0.0
C4 C 0.06631 0.00702 0.11515 0.0
N5 N 0.05517 0.95438 0.10984 0.0
C6 C 0.08392 0.99051 0.10632 0.0
C7 C 0.04327 0.9966 0.12162 0.0
C8 C 0.07786 0.96401 0.10366 0.0
C9 C 0.03793 0.96998 0.11872 0.0
C10 C 0.10037 0.0795 0.08106 0.0
C11 C 0.12775 0.09358 0.05591 0.0
N12 N 0.13306 0.06799 0.05192 0.0
C13 C 0.10606 0.05337 0.07671 0.0
C14 C 0.11125 0.0998 0.07058 0.0
C15 C 0.12264 0.04794 0.06193 0.0
C16 C 0.04233 0.06459 0.06283 0.0
N17 N 0.04433 0.04566 0.07618 0.0
C18 C 0.02762 0.01341 0.05519 0.0
C19 C 0.03711 0.02042 0.07272 0.0
C20 C 0.02519 0.03267 0.04125 0.0
C21 C 0.03261 0.05855 0.04523 0.0
H22 H 0.04806 0.08455 0.06596 0.0
H23 H 0.03843 0.0057 0.08348 0.0
C24 C 0.1343 0.03315 0.1294 0.0
N25 N 0.12871 0.05632 0.12088 0.0
C26 C 0.15957 0.0251 0.13134 0.0
C27 C 0.17297 0.06522 0.11605 0.0
C28 C 0.14736 0.07249 0.11438 0.0
C29 C 0.1793 0.04108 0.12446 0.0
H30 H 0.11904 0.02086 0.13462 0.0
H31 H 0.14234 0.09089 0.10774 0.0
C32 C 0.00985 0.07468 0.1044 0.0
N33 N 0.96682 0.06824 0.08255 0.0
C34 C 0.00296 0.09399 0.09144 0.0
C35 C 0.99463 0.0523 0.10645 0.0
C36 C 0.9812 0.09032 0.08047 0.0
C37 C 0.97301 0.04935 0.09523 0.0
C38 C 0.0995 0.09227 0.14819 0.0
C39 C 0.10817 0.07572 0.16242 0.0
C40 C 0.11347 0.11471 0.14347 0.0
C41 C 0.13088 0.08186 0.17166 0.0
C42 C 0.13608 0.12018 0.15305 0.0
N43 N 0.14426 0.10376 0.16682 0.0
C44 C 0.04635 0.02981 0.16728 0.0
C45 C 0.01313 0.05931 0.15902 0.0
C46 C 0.03579 0.02633 0.18504 0.0
N47 N 0.03523 0.04662 0.15496 0.0
C48 C 0.00198 0.05647 0.17656 0.0
C49 C 0.01384 0.04055 0.19004 0.0
H50 H 0.06414 0.02029 0.16368 0.0
H51 H 0.00496 0.0728 0.14899 0.0
C52 C 0.05227 0.14896 0.09807 0.0
N53 N 0.05486 0.13629 0.11468 0.0
C54 C 0.04187 0.17424 0.0975 0.0
C55 C 0.03847 0.17339 0.1312 0.0
C56 C 0.04867 0.14804 0.1311 0.0
C57 C 0.03432 0.18651 0.1142 0.0
H58 H 0.05709 0.13889 0.08523 0.0
H59 H 0.0506 0.13723 0.14405 0.0
O60 O 0.0721 0.03295 0.11809 0.0
O61 O 0.08433 0.08536 0.09554 0.0
O62 O 0.03149 0.07759 0.1149 0.0
O63 O 0.07778 0.08616 0.13856 0.0
H64 H 0.10214 0.99802 0.10163 0.0
H65 H 0.02965 0.00885 0.12883 0.0
H66 H 0.09125 0.95106 0.09676 0.0
H67 H 0.02009 0.96171 0.12356 0.0
H68 H 0.13635 0.10909 0.04769 0.0
H69 H 0.09771 0.0375 0.08461 0.0
H70 H 0.10702 0.12015 0.0738 0.0
H71 H 0.1272 0.02778 0.05841 0.0
H72 H 0.02181 0.99327 0.05265 0.0
H73 H 0.03113 0.0739 0.03479 0.0
H74 H 0.16363 0.00657 0.1382 0.0
H75 H 0.18758 0.07804 0.11044 0.0
H76 H 0.01447 0.11145 0.08968 0.0
H77 H -0.00055 0.03734 0.11656 0.0
H78 H 0.9758 0.10499 0.07027 0.0
H79 H 0.96115 0.03203 0.09659 0.0
H80 H 0.09762 0.05819 0.16614 0.0
H81 H 0.10707 0.12759 0.13238 0.0
H82 H 0.13793 0.06916 0.18264 0.0
H83 H 0.14719 0.13741 0.1495 0.0
H84 H 0.04559 0.01407 0.19512 0.0
H85 H 0.98493 0.06757 0.17985 0.0
H86 H 0.03913 0.18382 0.08414 0.0
H87 H 0.03265 0.18205 0.14435 0.0
Li88 Li 0.43257 0.91178 0.12001 0.0
Li89 Li 0.44528 0.95407 0.13549 0.0
Li90 Li 0.40269 0.94739 0.11992 0.0
Li91 Li 0.43966 0.95091 0.10168 0.0
C92 C 0.4147 0.90881 0.15446 0.0
N93 N 0.41135 0.86663 0.17872 0.0
C94 C 0.42949 0.90825 0.17072 0.0
C95 C 0.39802 0.88802 0.15066 0.0
C96 C 0.42755 0.88674 0.18278 0.0
C97 C 0.39667 0.86684 0.16305 0.0
C98 C 0.4855 0.92964 0.10712 0.0
C99 C 0.52721 0.94431 0.0975 0.0
N100 N 0.52753 0.92535 0.08408 0.0
C101 C 0.48625 0.91024 0.0933 0.0
C102 C 0.50613 0.94679 0.1093 0.0
C103 C 0.50767 0.90842 0.08177 0.0
C104 C 0.43099 0.85753 0.10918 0.0
N105 N 0.44037 0.87537 0.12155 0.0
C106 C 0.46681 0.84269 0.13567 0.0
C107 C 0.45795 0.8685 0.13461 0.0
C108 C 0.45776 0.82382 0.12296 0.0
C109 C 0.43937 0.83143 0.10971 0.0
H110 H 0.4177 0.86373 0.09852 0.0
H111 H 0.4655 0.88328 0.14397 0.0
C112 C 0.45304 0.98567 0.16759 0.0
N113 N 0.4634 0.96705 0.15628 0.0
C114 C 0.46478 0.99196 0.18453 0.0
C115 C 0.4978 0.96022 0.17754 0.0
C116 C 0.48554 0.95469 0.16072 0.0
C117 C 0.48713 0.97864 0.18993 0.0
H118 H 0.4352 0.99489 0.16375 0.0
H119 H 0.49293 0.93949 0.15164 0.0
C120 C 0.38877 0.92269 0.09078 0.0
N121 N 0.34001 0.92064 0.07615 0.0
C122 C 0.38023 0.94244 0.07872 0.0
C123 C 0.37255 0.90181 0.09531 0.0
C124 C 0.3555 0.94108 0.0715 0.0
C125 C 0.34796 0.90114 0.08778 0.0
C126 C 0.43413 0.00153 0.11097 0.0
C127 C 0.42269 0.01083 0.09459 0.0
C128 C 0.45375 0.01606 0.11926 0.0
C129 C 0.43121 0.03441 0.08673 0.0
C130 C 0.46169 0.03957 0.11098 0.0
N131 N 0.45037 0.04817 0.09502 0.0
C132 C 0.34989 0.94069 0.12931 0.0
C133 C 0.36096 0.98147 0.11553 0.0
C134 C 0.32423 0.94813 0.1301 0.0
N135 N 0.36758 0.95726 0.12193 0.0
C136 C 0.33561 0.98971 0.11601 0.0
C137 C 0.31681 0.97294 0.12333 0.0
H138 H 0.35562 0.92161 0.13444 0.0
H139 H 0.37534 0.99437 0.10989 0.0
C140 C 0.44599 0.94924 0.06273 0.0
N141 N 0.45409 0.96191 0.07837 0.0
C142 C 0.45532 0.95648 0.04523 0.0
C143 C 0.48178 0.98919 0.06025 0.0
C144 C 0.47222 0.98103 0.07749 0.0
C145 C 0.47311 0.97699 0.04386 0.0
H146 H 0.4322 0.93352 0.06383 0.0
H147 H 0.47919 0.99009 0.09013 0.0
O148 O 0.41661 0.92954 0.14234 0.0
O149 O 0.46445 0.93215 0.11823 0.0
O150 O 0.41267 0.92412 0.09842 0.0
O151 O 0.42599 0.97856 0.119 0.0
H152 H 0.44234 0.92422 0.17401 0.0
H153 H 0.3866 0.88799 0.1381 0.0
H154 H 0.43895 0.88602 0.19537 0.0
H155 H 0.38402 0.85051 0.16017 0.0
H156 H 0.54327 0.95752 0.09895 0.0
H157 H 0.47033 0.89696 0.09136 0.0
H158 H 0.50571 0.96205 0.11985 0.0
H159 H 0.50848 0.89359 0.07095 0.0
H160 H 0.4808 0.83764 0.1462 0.0
H161 H 0.43222 0.81762 0.09946 0.0
H162 H 0.45603 0.00648 0.19355 0.0
H163 H 0.51465 0.94905 0.18122 0.0
H164 H 0.39247 0.95879 0.07511 0.0
H165 H 0.3787 0.88646 0.10473 0.0
H166 H 0.3486 0.95632 0.06224 0.0
H167 H 0.33515 0.88519 0.09127 0.0
H168 H 0.40771 0.99978 0.08781 0.0
H169 H 0.46293 0.0092 0.13187 0.0
H170 H 0.42266 0.0417 0.07399 0.0
H171 H 0.47692 0.05094 0.11723 0.0
H172 H 0.31043 0.93469 0.13606 0.0
H173 H 0.33076 0.00885 0.11041 0.0
H174 H 0.44826 0.94657 0.03286 0.0
H175 H 0.49586 0.00477 0.05973 0.0
Li176 Li 0.59525 0.93719 0.3724 0.0
Li177 Li 0.55463 0.94389 0.38873 0.0
Li178 Li 0.56468 0.90105 0.3741 0.0
Li179 Li 0.55515 0.93918 0.35467 0.0
C180 C 0.60097 0.90236 0.40211 0.0
N181 N 0.63799 0.869 0.41601 0.0
C182 C 0.60434 0.89977 0.42138 0.0
C183 C 0.61641 0.88798 0.38989 0.0
C184 C 0.62317 0.8828 0.42814 0.0
C185 C 0.63502 0.87122 0.3972 0.0
C186 C 0.5613 0.99155 0.36736 0.0
C187 C 0.52517 0.01995 0.36208 0.0
N188 N 0.54106 0.04111 0.36181 0.0
C189 C 0.5773 0.01353 0.36694 0.0
C190 C 0.53505 0.99473 0.36485 0.0
C191 C 0.56669 0.03844 0.36415 0.0
C192 C 0.64328 0.95019 0.35679 0.0
N193 N 0.62961 0.94844 0.37286 0.0
C194 C 0.66328 0.96854 0.3902 0.0
C195 C 0.63911 0.9571 0.3894 0.0
C196 C 0.6777 0.97128 0.37377 0.0
C197 C 0.66758 0.96153 0.35693 0.0
H198 H 0.63497 0.94355 0.34378 0.0
H199 H 0.6276 0.95574 0.40191 0.0
C200 C 0.52617 0.94263 0.42138 0.0
N201 N 0.53885 0.95929 0.40979 0.0
C202 C 0.51496 0.95209 0.43772 0.0
C203 C 0.52978 0.99574 0.42974 0.0
C204 C 0.54097 0.98538 0.41367 0.0
C205 C 0.51677 0.97896 0.44205 0.0
H206 H 0.52502 0.92193 0.41797 0.0
H207 H 0.55171 0.99812 0.40452 0.0
C208 C 0.58155 0.89787 0.33637 0.0
N209 N 0.57633 0.86573 0.30548 0.0
C210 C 0.55742 0.88918 0.33084 0.0
C211 C 0.60305 0.89024 0.32618 0.0
C212 C 0.55516 0.87295 0.31519 0.0
C213 C 0.60002 0.87396 0.31061 0.0
C214 C 0.50751 0.91661 0.37275 0.0
C215 C 0.49841 0.89265 0.3658 0.0
C216 C 0.49023 0.93514 0.3797 0.0
C217 C 0.47218 0.88778 0.36572 0.0
C218 C 0.46415 0.92952 0.37938 0.0
N219 N 0.45573 0.90617 0.37244 0.0
C220 C 0.5424 0.85923 0.39228 0.0
C221 C 0.56639 0.84519 0.36605 0.0
C222 C 0.53314 0.83381 0.39508 0.0
N223 N 0.55818 0.86455 0.3777 0.0
C224 C 0.55741 0.81946 0.36824 0.0
C225 C 0.54017 0.81366 0.3827 0.0
H226 H 0.53617 0.87507 0.40129 0.0
H227 H 0.57933 0.84973 0.35477 0.0
C228 C 0.55412 0.96789 0.32128 0.0
N229 N 0.54018 0.95122 0.33205 0.0
C230 C 0.54459 0.97661 0.30414 0.0
C231 C 0.50651 0.9509 0.3096 0.0
C232 C 0.51666 0.94291 0.32668 0.0
C233 C 0.52059 0.96783 0.29797 0.0
H234 H 0.57276 0.97423 0.32596 0.0
H235 H 0.50599 0.92956 0.3354 0.0
O236 O 0.58255 0.91888 0.39536 0.0
O237 O 0.57145 0.96706 0.37 0.0
O238 O 0.58428 0.91382 0.35162 0.0
O239 O 0.53319 0.92163 0.37313 0.0
H240 H 0.5925 0.91076 0.43101 0.0
H241 H 0.6141 0.88968 0.37494 0.0
H242 H 0.626 0.88061 0.44303 0.0
H243 H 0.6471 0.85997 0.38791 0.0
H244 H 0.50488 0.02269 0.3601 0.0
H245 H 0.59769 0.01134 0.36879 0.0
H246 H 0.52249 0.97789 0.36486 0.0
H247 H 0.57883 0.05565 0.36384 0.0
H248 H 0.67046 0.97547 0.40351 0.0
H249 H 0.67791 0.96352 0.34391 0.0
H250 H 0.50499 0.93858 0.44687 0.0
H251 H 0.5319 0.0165 0.43279 0.0
H252 H 0.54067 0.89481 0.33861 0.0
H253 H 0.62188 0.89679 0.33031 0.0
H254 H 0.53658 0.86606 0.31078 0.0
H255 H 0.61649 0.86788 0.30261 0.0
H256 H 0.51139 0.87789 0.36053 0.0
H257 H 0.49683 0.95361 0.38542 0.0
H258 H 0.46491 0.86936 0.36034 0.0
H259 H 0.45059 0.94371 0.38469 0.0
H260 H 0.51976 0.83023 0.40632 0.0
H261 H 0.56358 0.80436 0.35858 0.0
H262 H 0.55599 0.98992 0.29579 0.0
H263 H 0.48816 0.94318 0.30532 0.0
Li264 Li 0.94197 0.05094 0.38864 0.0
Li265 Li 0.90378 0.05797 0.37101 0.0
Li266 Li 0.94405 0.0517 0.35521 0.0
Li267 Li 0.93628 0.09176 0.37213 0.0
C268 C 0.91325 0.00618 0.38014 0.0
N269 N 0.88765 0.96627 0.39846 0.0
C270 C 0.90235 0.01074 0.39767 0.0
C271 C 0.91112 0.98134 0.37194 0.0
C272 C 0.88949 0.9903 0.4067 0.0
C273 C 0.89811 0.96141 0.38143 0.0
C274 C 0.89784 0.09671 0.39815 0.0
C275 C 0.86502 0.12781 0.38977 0.0
N276 N 0.86228 0.13431 0.40809 0.0
C277 C 0.89468 0.10369 0.41689 0.0
C278 C 0.88288 0.10884 0.38446 0.0
C279 C 0.87661 0.12275 0.42163 0.0
C280 C 0.95931 0.05416 0.42514 0.0
N281 N 0.95608 0.03689 0.41086 0.0
C282 C 0.97301 0.00183 0.42927 0.0
C283 C 0.9628 0.01117 0.41252 0.0
C284 C 0.97641 0.01919 0.44436 0.0
C285 C 0.9695 0.04571 0.44209 0.0
H286 H 0.954 0.07456 0.42328 0.0
H287 H 0.96015 0.99788 0.40089 0.0
C288 C 0.86004 0.04084 0.35243 0.0
N289 N 0.86862 0.04911 0.36934 0.0
C290 C 0.8355 0.03043 0.35065 0.0
C291 C 0.82895 0.03779 0.38366 0.0
C292 C 0.85359 0.04812 0.3848 0.0
C293 C 0.81975 0.02835 0.36647 0.0
H294 H 0.8726 0.04154 0.34045 0.0
H295 H 0.86107 0.05432 0.39816 0.0
C296 C 0.99014 0.05649 0.37392 0.0
N297 N 0.03623 0.03022 0.376 0.0
C298 C 0.0127 0.07043 0.37715 0.0
C299 C 0.99106 0.02917 0.37168 0.0
C300 C 0.0358 0.0568 0.37817 0.0
C301 C 0.01452 0.01626 0.3728 0.0
C302 C 0.92333 0.09182 0.33381 0.0
C303 C 0.94734 0.10337 0.33151 0.0
C304 C 0.9054 0.0934 0.31942 0.0
C305 C 0.953 0.11632 0.31481 0.0
C306 C 0.91178 0.10653 0.30292 0.0
N307 N 0.93525 0.11762 0.30097 0.0
C308 C 0.94599 0.02031 0.32273 0.0
C309 C 0.98076 0.04971 0.32658 0.0
C310 C 0.95432 0.0138 0.30476 0.0
N311 N 0.95897 0.03841 0.333 0.0
C312 C 0.98958 0.04402 0.30869 0.0
C313 C 0.97589 0.02643 0.29739 0.0
H314 H 0.92851 0.01194 0.32814 0.0
H315 H 0.99055 0.06428 0.33492 0.0
C316 C 0.96591 0.13448 0.38244 0.0
N317 N 0.9442 0.12829 0.37308 0.0
C318 C 0.97519 0.16018 0.38232 0.0
C319 C 0.93893 0.17304 0.36356 0.0
C320 C 0.93043 0.14696 0.36394 0.0
C321 C 0.96185 0.17989 0.3726 0.0
H322 H 0.97642 0.11921 0.3896 0.0
H323 H 0.91325 0.14149 0.35654 0.0
O324 O 0.92568 0.0259 0.37083 0.0
O325 O 0.91556 0.0781 0.39342 0.0
O326 O 0.9674 0.06969 0.37297 0.0
O327 O 0.91742 0.0786 0.34989 0.0
H328 H 0.90372 0.02983 0.40424 0.0
H329 H 0.91941 0.97753 0.35835 0.0
H330 H 0.88094 0.99357 0.42026 0.0
H331 H 0.89631 0.94208 0.37523 0.0
H332 H 0.85333 0.13735 0.37932 0.0
H333 H 0.9061 0.09446 0.42765 0.0
H334 H 0.88492 0.10369 0.3699 0.0
H335 H 0.87397 0.12834 0.43608 0.0
H336 H 0.97785 0.98119 0.43046 0.0
H337 H 0.9722 0.05986 0.45322 0.0
H338 H 0.82911 0.0237 0.33708 0.0
H339 H 0.81766 0.03621 0.39628 0.0
H340 H 0.0124 0.09159 0.37883 0.0
H341 H 0.9739 0.01799 0.36906 0.0
H342 H 0.0534 0.06735 0.38067 0.0
H343 H 0.01548 0.99513 0.37112 0.0
H344 H 0.96155 0.1022 0.34243 0.0
H345 H 0.88675 0.08449 0.32097 0.0
H346 H 0.97152 0.12528 0.31283 0.0
H347 H 0.89809 0.10787 0.29166 0.0
H348 H 0.94319 0.00032 0.29633 0.0
H349 H 0.00634 0.05406 0.30344 0.0
H350 H 0.9931 0.16431 0.38926 0.0
H351 H 0.9278 0.1876 0.35611 0.0
Li352 Li 0.92906 0.89358 0.87921 0.0
Li353 Li 0.94051 0.93547 0.89223 0.0
Li354 Li 0.89828 0.92767 0.87788 0.0
Li355 Li 0.93518 0.93022 0.85746 0.0
C356 C 0.90912 0.89285 0.91382 0.0
N357 N 0.90163 0.85412 0.94034 0.0
C358 C 0.92389 0.89251 0.93008 0.0
C359 C 0.8904 0.87364 0.91112 0.0
C360 C 0.91984 0.87273 0.94331 0.0
C361 C 0.88696 0.85417 0.92466 0.0
C362 C 0.98008 0.89661 0.87765 0.0
C363 C 0.00952 0.86395 0.8661 0.0
N364 N 0.01754 0.85932 0.88386 0.0
C365 C 0.98866 0.89155 0.89579 0.0
C366 C 0.99069 0.88279 0.86266 0.0
C367 C 0.00762 0.87266 0.89864 0.0
C368 C 0.93275 0.84242 0.86478 0.0
N369 N 0.93582 0.85657 0.88075 0.0
C370 C 0.95649 0.82022 0.89555 0.0
C371 C 0.94691 0.84578 0.89613 0.0
C372 C 0.95458 0.80557 0.87901 0.0
C373 C 0.9419 0.81665 0.86364 0.0
H374 H 0.92436 0.85159 0.85262 0.0
H375 H 0.94982 0.85746 0.90851 0.0
C376 C 0.94284 0.9624 0.92593 0.0
N377 N 0.95756 0.95351 0.91166 0.0
C378 C 0.95414 0.97319 0.94181 0.0
C379 C 0.99552 0.96644 0.92764 0.0
C380 C 0.98338 0.95596 0.91196 0.0
C381 C 0.98084 0.97475 0.94296 0.0
H382 H 0.92233 0.96017 0.92524 0.0
H383 H 0.99458 0.949 0.90028 0.0
C384 C 0.88586 0.89994 0.84823 0.0
N385 N 0.83988 0.89394 0.82988 0.0
C386 C 0.87999 0.91586 0.83291 0.0
C387 C 0.86852 0.88076 0.85409 0.0
C388 C 0.8566 0.91257 0.82385 0.0
C389 C 0.84532 0.8781 0.84466 0.0
C390 C 0.93354 0.98191 0.87206 0.0
C391 C 0.91969 0.00539 0.87234 0.0
C392 C 0.96006 0.98265 0.87002 0.0
C393 C 0.93262 0.02929 0.87049 0.0
C394 C 0.97229 0.00694 0.86822 0.0
N395 N 0.95843 0.02956 0.86849 0.0
C396 C 0.84781 0.92977 0.89282 0.0
C397 C 0.85571 0.95569 0.86592 0.0
C398 C 0.82282 0.93923 0.89386 0.0
N399 N 0.86361 0.93814 0.879 0.0
C400 C 0.83086 0.96545 0.8663 0.0
C401 C 0.81408 0.95746 0.88053 0.0
H402 H 0.85476 0.91623 0.90328 0.0
H403 H 0.86886 0.96231 0.85527 0.0
C404 C 0.95183 0.91748 0.82223 0.0
N405 N 0.9458 0.93875 0.83282 0.0
C406 C 0.95834 0.92052 0.80349 0.0
C407 C 0.95192 0.9674 0.8067 0.0
C408 C 0.94545 0.96341 0.82543 0.0
C409 C 0.95835 0.94573 0.79547 0.0
H410 H 0.95101 0.89802 0.82829 0.0
H411 H 0.93955 0.97995 0.83383 0.0
O412 O 0.91271 0.91214 0.90077 0.0
O413 O 0.96119 0.91473 0.87461 0.0
O414 O 0.90847 0.90313 0.85749 0.0
O415 O 0.92111 0.95843 0.87411 0.0
H416 H 0.93852 0.90716 0.93239 0.0
H417 H 0.87874 0.8737 0.89867 0.0
H418 H 0.93122 0.87214 0.95591 0.0
H419 H 0.87262 0.83911 0.92271 0.0
H420 H 0.01777 0.85301 0.85463 0.0
H421 H 0.98029 0.90155 0.90762 0.0
H422 H 0.98439 0.88644 0.84854 0.0
H423 H 0.01425 0.8684 0.91263 0.0
H424 H 0.966 0.81229 0.90775 0.0
H425 H 0.94026 0.80605 0.85057 0.0
H426 H 0.94217 0.97919 0.95338 0.0
H427 H 0.01615 0.96765 0.92792 0.0
H428 H 0.89319 0.93081 0.8282 0.0
H429 H 0.87293 0.86808 0.86578 0.0
H430 H 0.8517 0.92488 0.81205 0.0
H431 H 0.83166 0.86342 0.84909 0.0
H432 H 0.89916 0.00512 0.87398 0.0
H433 H 0.97111 0.9647 0.86971 0.0
H434 H 0.92214 0.04762 0.87066 0.0
H435 H 0.99279 0.00781 0.8666 0.0
H436 H 0.81073 0.93283 0.90525 0.0
H437 H 0.82492 0.97913 0.85556 0.0
H438 H 0.9633 0.90329 0.79538 0.0
H439 H 0.95124 0.9871 0.80096 0.0
Li440 Li 0.56268 0.09328 0.87764 0.0
Li441 Li 0.55526 0.04859 0.88879 0.0
Li442 Li 0.59658 0.06041 0.87504 0.0
Li443 Li 0.5589 0.05677 0.85516 0.0
C444 C 0.5783 0.08469 0.91554 0.0
N445 N 0.57322 0.10545 0.951 0.0
C446 C 0.55408 0.08856 0.9232 0.0
C447 C 0.59995 0.09135 0.9259 0.0
C448 C 0.5519 0.09906 0.94116 0.0
C449 C 0.59699 0.10186 0.9438 0.0
C450 C 0.50773 0.07433 0.87362 0.0
C451 C 0.46495 0.06411 0.86348 0.0
N452 N 0.45567 0.08279 0.87526 0.0
C453 C 0.49774 0.09352 0.88556 0.0
C454 C 0.4912 0.05959 0.86241 0.0
C455 C 0.47139 0.09746 0.88621 0.0
C456 C 0.53826 0.13731 0.86548 0.0
N457 N 0.55286 0.12903 0.88 0.0
C458 C 0.54639 0.16977 0.89597 0.0
C459 C 0.55762 0.14483 0.89493 0.0
C460 C 0.5302 0.1783 0.88152 0.0
C461 C 0.52666 0.16193 0.86595 0.0
H462 H 0.53497 0.12432 0.85377 0.0
H463 H 0.56953 0.13793 0.90622 0.0
C464 C 0.55565 0.01179 0.9177 0.0
N465 N 0.54012 0.02855 0.90823 0.0
C466 C 0.54699 0.99931 0.93387 0.0
C467 C 0.50632 0.02109 0.92991 0.0
C468 C 0.51563 0.03281 0.91369 0.0
C469 C 0.52227 0.00457 0.94039 0.0
H470 H 0.57511 0.00899 0.91307 0.0
H471 H 0.50366 0.04623 0.90601 0.0
C472 C 0.60164 0.10586 0.85329 0.0
N473 N 0.63559 0.14693 0.84868 0.0
C474 C 0.60609 0.11625 0.83552 0.0
C475 C 0.61437 0.11641 0.86874 0.0
C476 C 0.62336 0.137 0.83347 0.0
C477 C 0.63149 0.13715 0.86611 0.0
C478 C 0.56507 0.00442 0.86601 0.0
C479 C 0.58063 0.98328 0.86092 0.0
C480 C 0.53866 0.00098 0.86695 0.0
C481 C 0.56945 0.95902 0.85676 0.0
C482 C 0.5282 0.97642 0.86269 0.0
N483 N 0.54368 0.95613 0.85771 0.0
C484 C 0.64028 0.04039 0.89198 0.0
C485 C 0.6476 0.05778 0.8617 0.0
C486 C 0.66552 0.03179 0.89313 0.0
N487 N 0.63185 0.05291 0.87638 0.0
C488 C 0.67308 0.04983 0.86235 0.0
C489 C 0.68217 0.0363 0.87811 0.0
H490 H 0.62716 0.03652 0.90332 0.0
H491 H 0.64024 0.06719 0.84928 0.0
C492 C 0.53167 0.06928 0.82384 0.0
N493 N 0.54673 0.04993 0.83085 0.0
C494 C 0.52355 0.06834 0.80536 0.0
C495 C 0.5462 0.02722 0.80163 0.0
C496 C 0.55398 0.02899 0.82029 0.0
C497 C 0.5312 0.04738 0.79389 0.0
H498 H 0.5265 0.08581 0.83256 0.0
H499 H 0.56642 0.01416 0.82612 0.0
O500 O 0.58099 0.07437 0.89801 0.0
O501 O 0.53355 0.07033 0.87261 0.0
O502 O 0.58462 0.08568 0.85546 0.0
O503 O 0.5758 0.02829 0.87001 0.0
H504 H 0.53718 0.08363 0.91535 0.0
H505 H 0.61884 0.08847 0.92013 0.0
H506 H 0.53327 0.10216 0.94726 0.0
H507 H 0.61358 0.10714 0.95197 0.0
H508 H 0.45196 0.05281 0.8549 0.0
H509 H 0.51013 0.10531 0.89425 0.0
H510 H 0.49853 0.04484 0.85293 0.0
H511 H 0.46343 0.11222 0.89541 0.0
H512 H 0.54962 0.18182 0.90822 0.0
H513 H 0.51479 0.16794 0.85433 0.0
H514 H 0.55985 0.98681 0.94171 0.0
H515 H 0.48709 0.02544 0.93452 0.0
H516 H 0.59628 0.10836 0.82345 0.0
H517 H 0.61114 0.10871 0.8826 0.0
H518 H 0.62701 0.14523 0.8198 0.0
H519 H 0.64149 0.14548 0.87793 0.0
H520 H 0.60113 0.98565 0.86015 0.0
H521 H 0.52638 0.01701 0.87104 0.0
H522 H 0.58125 0.9425 0.85276 0.0
H523 H 0.50778 0.97349 0.86337 0.0
H524 H 0.67189 0.02152 0.90554 0.0
H525 H 0.68527 0.05334 0.8504 0.0
H526 H 0.5117 0.08409 0.80001 0.0
H527 H 0.55267 0.01086 0.79317 0.0
Li528 Li 0.40181 0.06309 0.61795 0.0
Li529 Li 0.44178 0.05497 0.63328 0.0
Li530 Li 0.43717 0.09673 0.61652 0.0
Li531 Li 0.44146 0.05484 0.60039 0.0
C532 C 0.41341 0.08196 0.65738 0.0
N533 N 0.40778 0.0764 0.69559 0.0
C534 C 0.396 0.06379 0.66463 0.0
C535 C 0.42791 0.09735 0.66961 0.0
C536 C 0.39339 0.06131 0.68397 0.0
C537 C 0.42484 0.0942 0.68886 0.0
C538 C 0.42209 0.00731 0.62617 0.0
C539 C 0.44334 0.96805 0.63693 0.0
N540 N 0.42129 0.95996 0.64513 0.0
C541 C 0.39958 0.99853 0.63461 0.0
C542 C 0.44411 0.99188 0.62722 0.0
C543 C 0.39958 0.97456 0.64416 0.0
C544 C 0.3581 0.04003 0.60386 0.0
N545 N 0.36611 0.05734 0.61706 0.0
C546 C 0.32372 0.06178 0.62885 0.0
C547 C 0.34949 0.06882 0.62912 0.0
C548 C 0.31496 0.04312 0.6158 0.0
C549 C 0.3325 0.03271 0.6029 0.0
H550 H 0.37178 0.03151 0.5943 0.0
H551 H 0.35634 0.08291 0.63926 0.0
C552 C 0.48144 0.05093 0.65897 0.0
N553 N 0.45776 0.04131 0.65534 0.0
C554 C 0.49332 0.04562 0.67597 0.0
C555 C 0.45669 0.01973 0.68502 0.0
C556 C 0.44554 0.02548 0.66779 0.0
C557 C 0.48061 0.03047 0.68948 0.0
H558 H 0.49069 0.06371 0.64899 0.0
H559 H 0.42657 0.0184 0.66486 0.0
C560 C 0.39789 0.10025 0.58953 0.0
N561 N 0.3615 0.13545 0.57713 0.0
C562 C 0.39216 0.10196 0.57051 0.0
C563 C 0.38505 0.11636 0.60227 0.0
C564 C 0.37372 0.11992 0.56451 0.0
C565 C 0.36673 0.13405 0.59571 0.0
C566 C 0.48836 0.06985 0.60702 0.0
C567 C 0.4973 0.09048 0.5959 0.0
C568 C 0.50191 0.04621 0.60776 0.0
C569 C 0.51956 0.08694 0.58545 0.0
C570 C 0.52406 0.04343 0.59709 0.0
N571 N 0.53234 0.06368 0.58624 0.0
C572 C 0.46272 0.14108 0.62995 0.0
C573 C 0.44255 0.1485 0.60082 0.0
C574 C 0.47298 0.16643 0.62979 0.0
N575 N 0.4476 0.13272 0.61572 0.0
C576 C 0.45243 0.17401 0.60007 0.0
C577 C 0.46796 0.18327 0.61467 0.0
H578 H 0.46741 0.12778 0.64119 0.0
H579 H 0.43152 0.14114 0.58921 0.0
C580 C 0.45516 0.01335 0.57601 0.0
N581 N 0.45432 0.03989 0.57813 0.0
C582 C 0.46435 0.00241 0.55945 0.0
C583 C 0.47165 0.04636 0.54766 0.0
C584 C 0.46207 0.05643 0.56436 0.0
C585 C 0.4728 0.01898 0.54499 0.0
H586 H 0.44843 0.00069 0.58708 0.0
H587 H 0.46086 0.07748 0.5664 0.0
O588 O 0.41648 0.08439 0.63846 0.0
O589 O 0.42239 0.0306 0.61662 0.0
O590 O 0.4157 0.08253 0.59559 0.0
O591 O 0.46636 0.07272 0.61708 0.0
H592 H 0.38506 0.05123 0.65545 0.0
H593 H 0.44146 0.1115 0.66433 0.0
H594 H 0.38011 0.04718 0.68973 0.0
H595 H 0.43604 0.10589 0.69847 0.0
H596 H 0.46029 0.95598 0.63795 0.0
H597 H 0.38233 0.01014 0.6339 0.0
H598 H 0.46165 0.99831 0.62072 0.0
H599 H 0.38234 0.96759 0.65083 0.0
H600 H 0.31103 0.07027 0.63914 0.0
H601 H 0.3266 0.01884 0.59227 0.0
H602 H 0.51192 0.05404 0.67876 0.0
H603 H 0.44606 0.00827 0.69512 0.0
H604 H 0.40188 0.08953 0.5605 0.0
H605 H 0.3892 0.1153 0.61704 0.0
H606 H 0.36912 0.12149 0.54982 0.0
H607 H 0.35667 0.14666 0.6054 0.0
H608 H 0.48704 0.1089 0.59516 0.0
H609 H 0.49532 0.03014 0.61641 0.0
H610 H 0.52662 0.10267 0.57668 0.0
H611 H 0.53467 0.02519 0.59743 0.0
H612 H 0.4848 0.17271 0.64137 0.0
H613 H 0.44855 0.18606 0.58793 0.0
H614 H 0.46442 0.98122 0.5579 0.0
H615 H 0.47825 0.0599 0.53703 0.0
Li616 Li 0.05474 0.95054 0.6373 0.0
Li617 Li 0.09326 0.94476 0.62041 0.0
Li618 Li 0.05407 0.95173 0.60397 0.0
Li619 Li 0.06258 0.90846 0.61943 0.0
C620 C 0.06935 0.99793 0.63215 0.0
N621 N 0.06436 0.0403 0.65607 0.0
C622 C 0.08967 0.00537 0.64365 0.0
C623 C 0.04649 0.01206 0.63283 0.0
C624 C 0.08678 0.02686 0.65563 0.0
C625 C 0.04434 0.03339 0.64503 0.0
C626 C 0.10204 0.91353 0.65061 0.0
C627 C 0.13087 0.87814 0.65826 0.0
N628 N 0.14456 0.89485 0.66921 0.0
C629 C 0.11638 0.93035 0.66197 0.0
C630 C 0.10932 0.8872 0.64875 0.0
C631 C 0.13782 0.92054 0.67123 0.0
C632 C 0.01348 0.96039 0.66173 0.0
N633 N 0.03923 0.96224 0.65994 0.0
C634 C 0.04339 0.9747 0.69198 0.0
C635 C 0.05417 0.96962 0.67454 0.0
C636 C 0.01695 0.97188 0.69446 0.0
C637 C 0.00186 0.96528 0.67893 0.0
H638 H 0.00202 0.9541 0.65002 0.0
H639 H 0.07458 0.97066 0.67287 0.0
C640 C 0.13378 0.97799 0.61168 0.0
N641 N 0.12889 0.9536 0.61859 0.0
C642 C 0.1588 0.98693 0.60985 0.0
C643 C 0.17358 0.94513 0.62167 0.0
C644 C 0.14823 0.93688 0.62301 0.0
C645 C 0.17917 0.97062 0.6152 0.0
H646 H 0.11815 0.99057 0.60752 0.0
H647 H 0.14412 0.91709 0.62754 0.0
C648 C 0.00924 0.93167 0.6104 0.0
N649 N 0.96585 0.93379 0.58851 0.0
C650 C 0.00182 0.9098 0.59989 0.0
C651 C 0.99447 0.95456 0.60988 0.0
C652 C 0.97984 0.91126 0.5889 0.0
C653 C 0.97264 0.95527 0.59869 0.0
C654 C 0.10194 0.92151 0.58827 0.0
C655 C 0.10938 0.94065 0.57537 0.0
C656 C 0.11739 0.89952 0.5913 0.0
C657 C 0.13238 0.93755 0.56577 0.0
C658 C 0.14024 0.89714 0.58141 0.0
N659 N 0.14721 0.91605 0.56897 0.0
C660 C 0.03398 0.99154 0.57994 0.0
C661 C 0.03511 0.9481 0.56786 0.0
C662 C 0.0234 0.00087 0.5633 0.0
N663 N 0.03945 0.96555 0.58187 0.0
C664 C 0.02462 0.95656 0.55101 0.0
C665 C 0.01869 0.98327 0.54855 0.0
H666 H 0.03801 0.00502 0.59122 0.0
H667 H 0.0398 0.92756 0.56983 0.0
C668 C 0.04404 0.8612 0.63382 0.0
N669 N 0.05502 0.87215 0.61849 0.0
C670 C 0.03484 0.83545 0.63315 0.0
C671 C 0.04887 0.83262 0.60103 0.0
C672 C 0.05785 0.85844 0.60233 0.0
C673 C 0.03677 0.82096 0.61648 0.0
H674 H 0.04183 0.87277 0.64639 0.0
H675 H 0.06614 0.86792 0.59024 0.0
O676 O 0.07167 0.97671 0.6205 0.0
O677 O 0.08075 0.9226 0.64164 0.0
O678 O 0.03109 0.93087 0.62086 0.0
O679 O 0.07988 0.92457 0.59819 0.0
H680 H 0.10737 0.99444 0.64359 0.0
H681 H 0.03047 0.00644 0.6242 0.0
H682 H 0.10232 0.03275 0.66466 0.0
H683 H 0.02671 0.04441 0.64575 0.0
H684 H 0.13674 0.85783 0.65691 0.0
H685 H 0.11137 0.95086 0.66332 0.0
H686 H 0.09854 0.8739 0.63999 0.0
H687 H 0.14918 0.93337 0.67996 0.0
H688 H 0.0558 0.97937 0.70361 0.0
H689 H 0.98138 0.9631 0.68019 0.0
H690 H 0.16209 0.00638 0.60418 0.0
H691 H 0.18856 0.93176 0.62593 0.0
H692 H 0.01299 0.89194 0.60007 0.0
H693 H -2e-05 0.97173 0.61783 0.0
H694 H 0.97395 0.89452 0.58063 0.0
H695 H 0.96116 0.97293 0.59805 0.0
H696 H 0.09762 0.95783 0.57296 0.0
H697 H 0.11195 0.88466 0.60138 0.0
H698 H 0.13849 0.95227 0.55581 0.0
H699 H 0.15249 0.88032 0.58368 0.0
H700 H 0.0194 0.02167 0.56187 0.0
H701 H 0.02103 0.9423 0.54008 0.0
H702 H 0.026 0.82712 0.64547 0.0
H703 H 0.05046 0.8223 0.58784 0.0
Li704 Li 0.56092 0.60024 0.12702 0.0
Li705 Li 0.54966 0.55898 0.14337 0.0
Li706 Li 0.5922 0.56285 0.12814 0.0
Li707 Li 0.55409 0.55985 0.10992 0.0
C708 C 0.59615 0.59976 0.15719 0.0
N709 N 0.63376 0.631 0.17267 0.0
C710 C 0.59717 0.60349 0.17651 0.0
C711 C 0.61434 0.61181 0.14573 0.0
C712 C 0.6163 0.61941 0.18407 0.0
C713 C 0.63318 0.62755 0.15383 0.0
C714 C 0.50451 0.57184 0.12513 0.0
C715 C 0.47247 0.53811 0.12189 0.0
N716 N 0.454 0.55635 0.12511 0.0
C717 C 0.48524 0.59028 0.12835 0.0
C718 C 0.49812 0.54557 0.12184 0.0
C719 C 0.4598 0.58205 0.1283 0.0
C720 C 0.53548 0.64371 0.11383 0.0
N721 N 0.55327 0.63687 0.12675 0.0
C722 C 0.5537 0.68069 0.13889 0.0
C723 C 0.56243 0.65471 0.13923 0.0
C724 C 0.53514 0.68824 0.12577 0.0
C725 C 0.5262 0.66939 0.11301 0.0
H726 H 0.52806 0.62898 0.10437 0.0
H727 H 0.57592 0.6488 0.1498 0.0
C728 C 0.53884 0.52239 0.17204 0.0
N729 N 0.53207 0.5458 0.16433 0.0
C730 C 0.52709 0.51375 0.18845 0.0
C731 C 0.50138 0.55327 0.18833 0.0
C732 C 0.5137 0.56118 0.17203 0.0
C733 C 0.50827 0.52944 0.19689 0.0
H734 H 0.55379 0.51076 0.1657 0.0
H735 H 0.50914 0.57997 0.16578 0.0
C736 C 0.58524 0.58549 0.08779 0.0
N737 N 0.58849 0.58384 0.04927 0.0
C738 C 0.59821 0.56492 0.07897 0.0
C739 C 0.57422 0.6054 0.07701 0.0
C740 C 0.59957 0.56439 0.05948 0.0
C741 C 0.57599 0.60417 0.05756 0.0
C742 C 0.5702 0.50807 0.12162 0.0
C743 C 0.59235 0.5 0.11235 0.0
C744 C 0.55096 0.48974 0.12531 0.0
C745 C 0.59458 0.47388 0.10652 0.0
C746 C 0.55391 0.46379 0.11924 0.0
N747 N 0.57546 0.45647 0.11003 0.0
C748 C 0.6324 0.53622 0.14523 0.0
C749 C 0.64449 0.55951 0.11791 0.0
C750 C 0.65689 0.52572 0.14695 0.0
N751 N 0.62667 0.55246 0.13076 0.0
C752 C 0.66914 0.54925 0.11898 0.0
C753 C 0.67546 0.53186 0.13351 0.0
H754 H 0.6177 0.53089 0.15515 0.0
H755 H 0.63941 0.57266 0.10664 0.0
C756 C 0.52187 0.56458 0.07912 0.0
N757 N 0.53965 0.54835 0.08678 0.0
C758 C 0.5117 0.55917 0.06154 0.0
C759 C 0.53844 0.5205 0.05994 0.0
C760 C 0.54792 0.52654 0.07762 0.0
C761 C 0.52022 0.53704 0.05166 0.0
H762 H 0.51608 0.58217 0.08648 0.0
H763 H 0.56248 0.51427 0.08364 0.0
O764 O 0.57778 0.58387 0.14966 0.0
O765 O 0.52949 0.5796 0.12524 0.0
O766 O 0.58305 0.58593 0.10684 0.0
O767 O 0.56783 0.53345 0.12778 0.0
H768 H 0.58331 0.59415 0.18556 0.0
H769 H 0.61388 0.60916 0.13075 0.0
H770 H 0.6173 0.62251 0.199 0.0
H771 H 0.64734 0.63703 0.14514 0.0
H772 H 0.46725 0.51783 0.11935 0.0
H773 H 0.48991 0.61071 0.13092 0.0
H774 H 0.51279 0.53118 0.11914 0.0
H775 H 0.44468 0.59609 0.13081 0.0
H776 H 0.56078 0.69449 0.14919 0.0
H777 H 0.51207 0.67438 0.10256 0.0
H778 H 0.53292 0.49525 0.19461 0.0
H779 H 0.48737 0.56623 0.19458 0.0
H780 H 0.60673 0.54927 0.08706 0.0
H781 H 0.56431 0.62158 0.08358 0.0
H782 H 0.60932 0.54844 0.05248 0.0
H783 H 0.56739 0.61936 0.04905 0.0
H784 H 0.60757 0.51375 0.10952 0.0
H785 H 0.53398 0.49538 0.1329 0.0
H786 H 0.61153 0.46744 0.09921 0.0
H787 H 0.53912 0.44944 0.12193 0.0
H788 H 0.66099 0.51225 0.15828 0.0
H789 H 0.68307 0.5547 0.1085 0.0
H790 H 0.49791 0.57257 0.0555 0.0
H791 H 0.5454 0.50317 0.05276 0.0
Li792 Li 0.93283 0.41118 0.12776 0.0
Li793 Li 0.93634 0.45496 0.14419 0.0
Li794 Li 0.89831 0.44308 0.12411 0.0
Li795 Li 0.93862 0.45139 0.11034 0.0
C796 C 0.90505 0.40727 0.16042 0.0
N797 N 0.89476 0.3684 0.18633 0.0
C798 C 0.9174 0.40735 0.17774 0.0
C799 C 0.88726 0.38759 0.15638 0.0
C800 C 0.91198 0.38748 0.19063 0.0
C801 C 0.88239 0.36806 0.16963 0.0
C802 C 0.98498 0.44032 0.12116 0.0
C803 C 0.02102 0.4685 0.11501 0.0
N804 N 0.03055 0.45012 0.1031 0.0
C805 C 0.99516 0.42166 0.10893 0.0
C806 C 0.99799 0.46392 0.12428 0.0
C807 C 0.01821 0.427 0.0999 0.0
C808 C 0.94673 0.36258 0.11252 0.0
N809 N 0.94389 0.37562 0.12896 0.0
C810 C 0.96413 0.34058 0.14553 0.0
C811 C 0.9523 0.36517 0.1453 0.0
C812 C 0.96811 0.32693 0.12869 0.0
C813 C 0.95886 0.33814 0.11205 0.0
H814 H 0.9407 0.37177 0.09963 0.0
H815 H 0.95082 0.37632 0.15807 0.0
C816 C 0.929 0.48211 0.17793 0.0
N817 N 0.94672 0.47018 0.16697 0.0
C818 C 0.93509 0.48922 0.19625 0.0
C819 C 0.97783 0.47274 0.19121 0.0
C820 C 0.97086 0.46574 0.17309 0.0
C821 C 0.95964 0.48401 0.2032 0.0
H822 H 0.90981 0.48491 0.17273 0.0
H823 H 0.9843 0.45551 0.16425 0.0
C824 C 0.89606 0.41139 0.09454 0.0
N825 N 0.85612 0.39044 0.07422 0.0
C826 C 0.88766 0.42388 0.07828 0.0
C827 C 0.88441 0.38805 0.10033 0.0
C828 C 0.86736 0.41304 0.06824 0.0
C829 C 0.86418 0.37782 0.0899 0.0
C830 C 0.92401 0.50105 0.11878 0.0
C831 C 0.91343 0.50998 0.10201 0.0
C832 C 0.94048 0.51739 0.12885 0.0
C833 C 0.9197 0.53508 0.0955 0.0
C834 C 0.94624 0.54238 0.12189 0.0
N835 N 0.93583 0.55062 0.10549 0.0
C836 C 0.84667 0.4421 0.13625 0.0
C837 C 0.85395 0.46239 0.10694 0.0
C838 C 0.82094 0.44928 0.13567 0.0
N839 N 0.86257 0.44888 0.12205 0.0
C840 C 0.82844 0.46994 0.10577 0.0
C841 C 0.81162 0.46376 0.12039 0.0
H842 H 0.85409 0.43187 0.14831 0.0
H843 H 0.86706 0.46804 0.09604 0.0
C844 C 0.95469 0.44568 0.07376 0.0
N845 N 0.95542 0.46323 0.08808 0.0
C846 C 0.96648 0.45137 0.05681 0.0
C847 C 0.98017 0.49303 0.06963 0.0
C848 C 0.96826 0.4864 0.08644 0.0
C849 C 0.97927 0.47538 0.05455 0.0
H850 H 0.9451 0.42704 0.07553 0.0
H851 H 0.96962 0.4996 0.09819 0.0
O852 O 0.9101 0.42657 0.14762 0.0
O853 O 0.96209 0.43576 0.12972 0.0
O854 O 0.91579 0.42184 0.10462 0.0
O855 O 0.91789 0.47669 0.12553 0.0
H856 H 0.93118 0.42242 0.18115 0.0
H857 H 0.87721 0.38748 0.14319 0.0
H858 H 0.92149 0.38722 0.20404 0.0
H859 H 0.86872 0.35267 0.16666 0.0
H860 H 0.03123 0.48674 0.1172 0.0
H861 H 0.98523 0.40338 0.10628 0.0
H862 H 0.99018 0.47872 0.13352 0.0
H863 H 0.02625 0.41281 0.0903 0.0
H864 H 0.97062 0.33268 0.15875 0.0
H865 H 0.96192 0.32878 0.09866 0.0
H866 H 0.92055 0.49788 0.20507 0.0
H867 H 0.9968 0.46789 0.19614 0.0
H868 H 0.89657 0.44192 0.07356 0.0
H869 H 0.89099 0.37788 0.11268 0.0
H870 H 0.86053 0.42261 0.0557 0.0
H871 H 0.85492 0.35981 0.09426 0.0
H872 H 0.90083 0.49755 0.09396 0.0
H873 H 0.9488 0.51085 0.14187 0.0
H874 H 0.9118 0.54217 0.08248 0.0
H875 H 0.95901 0.5552 0.12951 0.0
H876 H 0.8086 0.44395 0.1472 0.0
H877 H 0.82224 0.48147 0.09388 0.0
H878 H 0.9653 0.43725 0.04551 0.0
H879 H 0.99027 0.51155 0.06851 0.0
Li880 Li 0.05085 0.44808 0.39315 0.0
Li881 Li 0.09255 0.44156 0.37643 0.0
Li882 Li 0.05402 0.44737 0.35981 0.0
Li883 Li 0.05918 0.40693 0.37578 0.0
C884 C 0.06633 0.49545 0.36772 0.0
N885 N 0.05748 0.54033 0.34698 0.0
C886 C 0.08418 0.50373 0.35446 0.0
C887 C 0.04407 0.51004 0.37053 0.0
C888 C 0.07932 0.52646 0.34408 0.0
C889 C 0.03993 0.53267 0.35988 0.0
C890 C 0.08798 0.41415 0.41409 0.0
C891 C 0.10505 0.3812 0.43487 0.0
N892 N 0.10845 0.39993 0.4482 0.0
C893 C 0.09161 0.43306 0.42801 0.0
C894 C 0.0947 0.38798 0.41754 0.0
C895 C 0.102 0.42549 0.44516 0.0
C896 C 0.02159 0.44334 0.42527 0.0
N897 N 0.03591 0.46062 0.4153 0.0
C898 C 0.0322 0.493 0.43926 0.0
C899 C 0.04118 0.48514 0.42177 0.0
C900 C 0.01776 0.47539 0.4501 0.0
C901 C 0.0122 0.45038 0.44279 0.0
H902 H 0.0181 0.42383 0.41979 0.0
H903 H 0.05294 0.49828 0.41359 0.0
C904 C 0.14112 0.45232 0.36102 0.0
N905 N 0.12766 0.45099 0.37723 0.0
C906 C 0.16555 0.46331 0.36082 0.0
C907 C 0.16195 0.47095 0.39403 0.0
C908 C 0.13763 0.45982 0.39358 0.0
C909 C 0.17606 0.47329 0.37743 0.0
H910 H 0.13244 0.44597 0.34808 0.0
H911 H 0.12631 0.45926 0.40615 0.0
C912 C 0.00977 0.41762 0.36489 0.0
N913 N 0.97267 0.39302 0.34373 0.0
C914 C 0.01612 0.40596 0.34782 0.0
C915 C 0.98456 0.41675 0.3712 0.0
C916 C 0.9971 0.39363 0.33733 0.0
C917 C 0.96607 0.40422 0.3603 0.0
C918 C 0.09838 0.40188 0.35008 0.0
C919 C 0.10165 0.39428 0.33147 0.0
C920 C 0.11337 0.39034 0.36399 0.0
C921 C 0.11986 0.37519 0.32709 0.0
C922 C 0.13139 0.37133 0.35905 0.0
N923 N 0.13423 0.3642 0.34086 0.0
C924 C 0.05667 0.46165 0.32234 0.0
C925 C 0.0173 0.47299 0.33652 0.0
C926 C 0.0482 0.47101 0.30514 0.0
N927 N 0.04112 0.46253 0.33749 0.0
C928 C 0.00804 0.48267 0.31956 0.0
C929 C 0.02346 0.48142 0.3035 0.0
H930 H 0.07554 0.45323 0.32358 0.0
H931 H 0.0054 0.47348 0.34886 0.0
C932 C 0.03911 0.36314 0.3933 0.0
N933 N 0.05063 0.37066 0.37717 0.0
C934 C 0.02937 0.33774 0.3952 0.0
C935 C 0.04365 0.32816 0.36382 0.0
C936 C 0.05315 0.35381 0.36254 0.0
C937 C 0.03133 0.31991 0.38027 0.0
H938 H 0.03688 0.3772 0.40453 0.0
H939 H 0.06182 0.36044 0.34969 0.0
O940 O 0.07043 0.47289 0.37766 0.0
O941 O 0.07734 0.421 0.39732 0.0
O942 O 0.02802 0.42971 0.37554 0.0
O943 O 0.0804 0.42042 0.35445 0.0
H944 H 0.10144 0.49257 0.35208 0.0
H945 H 0.03001 0.50374 0.38066 0.0
H946 H 0.09287 0.53303 0.33369 0.0
H947 H 0.02272 0.54409 0.36182 0.0
H948 H 0.11035 0.36102 0.43772 0.0
H949 H 0.08662 0.45341 0.42558 0.0
H950 H 0.09196 0.37306 0.40695 0.0
H951 H 0.10495 0.43995 0.45604 0.0
H952 H 0.03669 0.51255 0.44431 0.0
H953 H 0.00144 0.43608 0.45078 0.0
H954 H 0.17559 0.46508 0.34765 0.0
H955 H 0.16941 0.47819 0.40718 0.0
H956 H 0.03551 0.40638 0.34269 0.0
H957 H 0.97936 0.42564 0.3844 0.0
H958 H 0.00175 0.38453 0.32411 0.0
H959 H 0.94648 0.4034 0.36501 0.0
H960 H 0.09014 0.40298 0.32054 0.0
H961 H 0.11132 0.39604 0.37842 0.0
H962 H 0.12256 0.36909 0.31275 0.0
H963 H 0.14313 0.36227 0.36968 0.0
H964 H 0.0606 0.46919 0.29312 0.0
H965 H 0.98895 0.49078 0.31898 0.0
H966 H 0.01965 0.33244 0.408 0.0
H967 H 0.04574 0.31502 0.35201 0.0
Li968 Li 0.4377 0.54898 0.39354 0.0
Li969 Li 0.40198 0.55811 0.37388 0.0
Li970 Li 0.443 0.54796 0.36014 0.0
Li971 Li 0.43658 0.58921 0.37581 0.0
C972 C 0.40673 0.50577 0.38373 0.0
N973 N 0.37627 0.4678 0.40001 0.0
C974 C 0.39483 0.5107 0.40085 0.0
C975 C 0.40312 0.48156 0.37488 0.0
C976 C 0.37951 0.49124 0.40886 0.0
C977 C 0.38766 0.4626 0.38334 0.0
C978 C 0.39642 0.59857 0.39965 0.0
C979 C 0.36696 0.63163 0.38871 0.0
N980 N 0.36292 0.63938 0.40665 0.0
C981 C 0.39195 0.60685 0.41797 0.0
C982 C 0.3838 0.61103 0.38488 0.0
C983 C 0.37496 0.62752 0.42122 0.0
C984 C 0.44974 0.55148 0.43125 0.0
N985 N 0.44816 0.5345 0.41666 0.0
C986 C 0.46073 0.49858 0.43609 0.0
C987 C 0.45352 0.50849 0.41869 0.0
C988 C 0.46247 0.51567 0.45147 0.0
C989 C 0.45687 0.54245 0.44888 0.0
H990 H 0.44535 0.57206 0.42917 0.0
H991 H 0.45213 0.49542 0.40681 0.0
C992 C 0.35827 0.54258 0.35426 0.0
N993 N 0.36654 0.55141 0.37112 0.0
C994 C 0.33355 0.5327 0.35231 0.0
C995 C 0.32617 0.54188 0.385 0.0
C996 C 0.35095 0.55171 0.38628 0.0
C997 C 0.31731 0.53166 0.36793 0.0
H998 H 0.37127 0.54222 0.34252 0.0
H999 H 0.3582 0.55825 0.39964 0.0
C1000 C 0.4875 0.55025 0.38139 0.0
N1001 N 0.53131 0.52096 0.38678 0.0
C1002 C 0.51042 0.56271 0.386 0.0
C1003 C 0.48689 0.52287 0.37947 0.0
C1004 C 0.53236 0.54756 0.38868 0.0
C1005 C 0.50922 0.50842 0.38227 0.0
C1006 C 0.42778 0.58876 0.33719 0.0
C1007 C 0.45326 0.59673 0.33601 0.0
C1008 C 0.4114 0.59306 0.3221 0.0
C1009 C 0.46192 0.60894 0.31972 0.0
C1010 C 0.42079 0.60533 0.30605 0.0
N1011 N 0.44564 0.61295 0.3052 0.0
C1012 C 0.44365 0.51685 0.32791 0.0
C1013 C 0.48262 0.53902 0.3339 0.0
C1014 C 0.45261 0.50845 0.31053 0.0
N1015 N 0.45851 0.53223 0.33897 0.0
C1016 C 0.49237 0.531 0.31671 0.0
C1017 C 0.47706 0.51609 0.30457 0.0
H1018 H 0.42441 0.51212 0.33223 0.0
H1019 H 0.49381 0.55187 0.3427 0.0
C1020 C 0.46763 0.63064 0.38704 0.0
N1021 N 0.44701 0.6251 0.37623 0.0
C1022 C 0.47856 0.65567 0.3867 0.0
C1023 C 0.44624 0.66916 0.3646 0.0
C1024 C 0.43592 0.64383 0.36537 0.0
C1025 C 0.46812 0.67524 0.37514 0.0
H1026 H 0.47601 0.61534 0.39554 0.0
H1027 H 0.4195 0.63891 0.35691 0.0
O1028 O 0.42149 0.52463 0.3754 0.0
O1029 O 0.41308 0.57837 0.39636 0.0
O1030 O 0.46588 0.56493 0.37883 0.0
O1031 O 0.41883 0.57643 0.35287 0.0
H1032 H 0.39723 0.5294 0.40784 0.0
H1033 H 0.41213 0.47751 0.36159 0.0
H1034 H 0.37015 0.49481 0.42208 0.0
H1035 H 0.38468 0.44377 0.37664 0.0
H1036 H 0.35709 0.64143 0.37742 0.0
H1037 H 0.40153 0.59739 0.42956 0.0
H1038 H 0.38685 0.60489 0.37061 0.0
H1039 H 0.37133 0.63413 0.43534 0.0
H1040 H 0.46519 0.47786 0.43743 0.0
H1041 H 0.45768 0.55623 0.4604 0.0
H1042 H 0.32745 0.52537 0.33883 0.0
H1043 H 0.31456 0.54109 0.3975 0.0
H1044 H 0.51127 0.58388 0.38748 0.0
H1045 H 0.46942 0.51283 0.37581 0.0
H1046 H 0.55022 0.55696 0.39226 0.0
H1047 H 0.509 0.48724 0.38084 0.0
H1048 H 0.46626 0.59352 0.34751 0.0
H1049 H 0.39164 0.58692 0.32279 0.0
H1050 H 0.48159 0.61519 0.31862 0.0
H1051 H 0.40832 0.60878 0.29426 0.0
H1052 H 0.44025 0.49691 0.3016 0.0
H1053 H 0.5111 0.53778 0.31252 0.0
H1054 H 0.49553 0.65935 0.39492 0.0
H1055 H 0.43735 0.68375 0.35569 0.0
Li1056 Li 0.45308 0.455 0.89478 0.0
Li1057 Li 0.44551 0.41089 0.88239 0.0
Li1058 Li 0.44778 0.44988 0.86066 0.0
Li1059 Li 0.41139 0.44262 0.88071 0.0
C1060 C 0.50038 0.43854 0.87678 0.0
N1061 N 0.55273 0.44542 0.87552 0.0
C1062 C 0.51658 0.42068 0.88573 0.0
C1063 C 0.51094 0.45959 0.86685 0.0
C1064 C 0.54295 0.42459 0.88505 0.0
C1065 C 0.5374 0.46281 0.86646 0.0
C1066 C 0.42486 0.4096 0.91677 0.0
C1067 C 0.40669 0.36842 0.92696 0.0
N1068 N 0.41968 0.37052 0.94334 0.0
C1069 C 0.43786 0.41146 0.93377 0.0
C1070 C 0.40898 0.38803 0.91339 0.0
C1071 C 0.43504 0.39146 0.94701 0.0
C1072 C 0.45915 0.49502 0.9219 0.0
N1073 N 0.46939 0.47258 0.91481 0.0
C1074 C 0.50076 0.47146 0.93894 0.0
C1075 C 0.48981 0.46077 0.92292 0.0
C1076 C 0.4904 0.4944 0.9468 0.0
C1077 C 0.46952 0.50643 0.93794 0.0
H1078 H 0.44252 0.50366 0.91539 0.0
H1079 H 0.49684 0.44235 0.91749 0.0
C1080 C 0.45162 0.35758 0.87175 0.0
N1081 N 0.45608 0.37541 0.88551 0.0
C1082 C 0.46199 0.33231 0.87294 0.0
C1083 C 0.4808 0.34413 0.90261 0.0
C1084 C 0.4701 0.36911 0.90084 0.0
C1085 C 0.47718 0.32547 0.88839 0.0
H1086 H 0.44075 0.36328 0.85956 0.0
H1087 H 0.47376 0.38381 0.91141 0.0
C1088 C 0.43789 0.50143 0.8735 0.0
N1089 N 0.45163 0.55281 0.86568 0.0
C1090 C 0.41964 0.5194 0.86714 0.0
C1091 C 0.46302 0.5098 0.87618 0.0
C1092 C 0.42698 0.54522 0.86317 0.0
C1093 C 0.46962 0.53579 0.87208 0.0
C1094 C 0.40195 0.41337 0.85115 0.0
C1095 C 0.39394 0.4289 0.83615 0.0
C1096 C 0.38712 0.39195 0.85679 0.0
C1097 C 0.37094 0.42299 0.82722 0.0
C1098 C 0.36424 0.38668 0.84751 0.0
N1099 N 0.35667 0.40219 0.83305 0.0
C1100 C 0.47615 0.44448 0.82824 0.0
C1101 C 0.44829 0.48121 0.82741 0.0
C1102 C 0.48434 0.44967 0.81011 0.0
N1103 N 0.45857 0.46026 0.83652 0.0
C1104 C 0.45586 0.48707 0.80917 0.0
C1105 C 0.4741 0.47114 0.80029 0.0
H1106 H 0.48355 0.42762 0.83571 0.0
H1107 H 0.43381 0.49299 0.8341 0.0
C1108 C 0.36078 0.43839 0.8955 0.0
N1109 N 0.37574 0.44884 0.8819 0.0
C1110 C 0.33506 0.44548 0.89676 0.0
C1111 C 0.34077 0.47373 0.86992 0.0
C1112 C 0.36621 0.46592 0.8691 0.0
C1113 C 0.32482 0.46373 0.88401 0.0
H1114 H 0.36888 0.42502 0.90562 0.0
H1115 H 0.3786 0.47391 0.85846 0.0
O1116 O 0.47447 0.43471 0.87708 0.0
O1117 O 0.42762 0.42884 0.90356 0.0
O1118 O 0.43098 0.47602 0.87741 0.0
O1119 O 0.42419 0.41914 0.86027 0.0
H1120 H 0.50894 0.40406 0.89326 0.0
H1121 H 0.49894 0.47318 0.85929 0.0
H1122 H 0.55564 0.41102 0.89206 0.0
H1123 H 0.54575 0.47907 0.85887 0.0
H1124 H 0.3946 0.35154 0.92447 0.0
H1125 H 0.45001 0.42814 0.93673 0.0
H1126 H 0.39869 0.38635 0.90037 0.0
H1127 H 0.44508 0.3926 0.96019 0.0
H1128 H 0.51642 0.46117 0.94558 0.0
H1129 H 0.46101 0.52418 0.94352 0.0
H1130 H 0.45898 0.31865 0.86153 0.0
H1131 H 0.49214 0.33962 0.91484 0.0
H1132 H 0.4 0.51351 0.86524 0.0
H1133 H 0.4772 0.49653 0.88167 0.0
H1134 H 0.41307 0.55925 0.85813 0.0
H1135 H 0.48903 0.54246 0.87408 0.0
H1136 H 0.4052 0.44552 0.83158 0.0
H1137 H 0.39322 0.3795 0.86819 0.0
H1138 H 0.3644 0.43496 0.81568 0.0
H1139 H 0.35251 0.37023 0.85178 0.0
H1140 H 0.49802 0.43654 0.80365 0.0
H1141 H 0.44748 0.50378 0.80207 0.0
H1142 H 0.32344 0.43697 0.9077 0.0
H1143 H 0.33397 0.48815 0.85996 0.0
Li1144 Li 0.06026 0.54973 0.89712 0.0
Li1145 Li 0.068 0.58883 0.87877 0.0
Li1146 Li 0.05809 0.54632 0.86427 0.0
Li1147 Li 0.09938 0.55143 0.87826 0.0
C1148 C 0.01511 0.56879 0.89111 0.0
N1149 N 0.97284 0.56908 0.91414 0.0
C1150 C 0.01102 0.58977 0.90337 0.0
C1151 C 0.99758 0.5481 0.89041 0.0
C1152 C 0.98957 0.58951 0.91494 0.0
C1153 C 0.97636 0.54857 0.90221 0.0
C1154 C 0.10916 0.59098 0.90395 0.0
C1155 C 0.14164 0.62191 0.89461 0.0
N1156 N 0.14996 0.62318 0.91258 0.0
C1157 C 0.11804 0.59255 0.92231 0.0
C1158 C 0.12105 0.60574 0.88995 0.0
C1159 C 0.13868 0.60897 0.92641 0.0
C1160 C 0.03662 0.51602 0.92403 0.0
N1161 N 0.04702 0.54006 0.92074 0.0
C1162 C 0.03855 0.55366 0.95204 0.0
C1163 C 0.04825 0.55874 0.93429 0.0
C1164 C 0.02756 0.52906 0.9559 0.0
C1165 C 0.02669 0.51007 0.94163 0.0
H1166 H 0.03591 0.50155 0.913 0.0
H1167 H 0.05665 0.57769 0.93121 0.0
C1168 C 0.04718 0.63413 0.86314 0.0
N1169 N 0.06089 0.62547 0.87801 0.0
C1170 C 0.03748 0.65968 0.86287 0.0
C1171 C 0.05619 0.667 0.89328 0.0
C1172 C 0.06564 0.64132 0.89292 0.0
C1173 C 0.04148 0.67634 0.87825 0.0
H1174 H 0.04276 0.62078 0.85186 0.0
H1175 H 0.0756 0.63366 0.90496 0.0
C1176 C 0.07147 0.49769 0.87353 0.0
N1177 N 0.06319 0.4494 0.85685 0.0
C1178 C 0.0917 0.48415 0.86519 0.0
C1179 C 0.04708 0.48658 0.87351 0.0
C1180 C 0.08712 0.45978 0.85681 0.0
C1181 C 0.04327 0.46219 0.86495 0.0
C1182 C 0.08989 0.56755 0.83851 0.0
C1183 C 0.10508 0.54643 0.83279 0.0
C1184 C 0.07879 0.5839 0.82508 0.0
C1185 C 0.10888 0.54199 0.81374 0.0
C1186 C 0.08297 0.57876 0.80615 0.0
N1187 N 0.09782 0.5581 0.80092 0.0
C1188 C 0.01774 0.54504 0.83895 0.0
C1189 C 0.05083 0.51546 0.83083 0.0
C1190 C 0.00562 0.54063 0.8219 0.0
N1191 N 0.04023 0.53298 0.84292 0.0
C1192 C 0.03947 0.51061 0.81353 0.0
C1193 C 0.01698 0.52395 0.80864 0.0
H1194 H 0.00982 0.55915 0.84864 0.0
H1195 H 0.06891 0.50641 0.83403 0.0
C1196 C 0.14153 0.52224 0.88963 0.0
N1197 N 0.13435 0.54203 0.87802 0.0
C1198 C 0.16645 0.51263 0.88916 0.0
C1199 C 0.17634 0.54469 0.86526 0.0
C1200 C 0.15124 0.55378 0.86628 0.0
C1201 C 0.18408 0.52359 0.87661 0.0
H1202 H 0.12763 0.5134 0.89888 0.0
H1203 H 0.14505 0.56975 0.85739 0.0
O1204 O 0.03639 0.5683 0.88006 0.0
O1205 O 0.08911 0.57477 0.89977 0.0
O1206 O 0.07562 0.5215 0.88191 0.0
O1207 O 0.08582 0.57211 0.85713 0.0
H1208 H 0.02445 0.60588 0.90415 0.0
H1209 H 0.00038 0.53181 0.88091 0.0
H1210 H 0.98627 0.60551 0.92461 0.0
H1211 H 0.9627 0.53262 0.90189 0.0
H1212 H 0.15101 0.63346 0.88393 0.0
H1213 H 0.10909 0.58117 0.93329 0.0
H1214 H 0.11446 0.60482 0.87566 0.0
H1215 H 0.14576 0.61039 0.94057 0.0
H1216 H 0.0399 0.56873 0.96269 0.0
H1217 H 0.01813 0.49095 0.94397 0.0
H1218 H 0.0264 0.66607 0.85093 0.0
H1219 H 0.05931 0.67893 0.90561 0.0
H1220 H 0.1107 0.49243 0.86503 0.0
H1221 H 0.03121 0.4968 0.87982 0.0
H1222 H 0.10257 0.44914 0.85024 0.0
H1223 H 0.02445 0.45344 0.86473 0.0
H1224 H 0.11338 0.53319 0.84292 0.0
H1225 H 0.06703 0.60035 0.82917 0.0
H1226 H 0.12046 0.52561 0.80915 0.0
H1227 H 0.07442 0.59122 0.79562 0.0
H1228 H 0.98809 0.55102 0.81883 0.0
H1229 H 0.0491 0.49786 0.80368 0.0
H1230 H 0.17159 0.49624 0.89805 0.0
H1231 H 0.1895 0.55393 0.85561 0.0
Li1232 Li 0.90954 0.55914 0.62103 0.0
Li1233 Li 0.94598 0.5584 0.6416 0.0
Li1234 Li 0.9383 0.59708 0.62148 0.0
Li1235 Li 0.95263 0.55556 0.60812 0.0
C1236 C 0.90137 0.57843 0.65737 0.0
N1237 N 0.87107 0.56811 0.6881 0.0
C1238 C 0.89408 0.55263 0.6615 0.0
C1239 C 0.8932 0.599 0.66885 0.0
C1240 C 0.87877 0.54781 0.67709 0.0
C1241 C 0.8779 0.59338 0.68433 0.0
C1242 C 0.942 0.50609 0.63037 0.0
C1243 C 0.97514 0.47418 0.63605 0.0
N1244 N 0.9574 0.45715 0.64282 0.0
C1245 C 0.92403 0.48814 0.63717 0.0
C1246 C 0.96771 0.49897 0.62962 0.0
C1247 C 0.93222 0.46355 0.64348 0.0
C1248 C 0.87365 0.52359 0.60815 0.0
N1249 N 0.87581 0.54664 0.6176 0.0
C1250 C 0.83095 0.54744 0.6234 0.0
C1251 C 0.85507 0.55895 0.62492 0.0
C1252 C 0.82822 0.52315 0.61417 0.0
C1253 C 0.84994 0.51146 0.60623 0.0
H1254 H 0.89051 0.51437 0.6024 0.0
H1255 H 0.85734 0.57732 0.63235 0.0
C1256 C 0.97318 0.56902 0.67347 0.0
N1257 N 0.95801 0.55014 0.66593 0.0
C1258 C 0.98082 0.56738 0.69205 0.0
C1259 C 0.95737 0.5266 0.69485 0.0
C1260 C 0.95025 0.52899 0.6761 0.0
C1261 C 0.97247 0.54626 0.70313 0.0
H1262 H 0.97872 0.58582 0.66513 0.0
H1263 H 0.93767 0.51456 0.66999 0.0
C1264 C 0.90566 0.59343 0.59107 0.0
N1265 N 0.86781 0.62307 0.57439 0.0
C1266 C 0.90232 0.59262 0.57171 0.0
C1267 C 0.88977 0.60933 0.60195 0.0
C1268 C 0.88308 0.60776 0.56354 0.0
C1269 C 0.87073 0.62416 0.59325 0.0
C1270 C 0.99625 0.57835 0.62415 0.0
C1271 C 0.00803 0.59812 0.61368 0.0
C1272 C 0.01119 0.55917 0.63287 0.0
C1273 C 0.03453 0.59793 0.61164 0.0
C1274 C 0.03764 0.55967 0.63053 0.0
N1275 N 0.04867 0.57885 0.62002 0.0
C1276 C 0.94177 0.64823 0.63592 0.0
C1277 C 0.95107 0.64461 0.6036 0.0
C1278 C 0.94912 0.67463 0.6359 0.0
N1279 N 0.94319 0.63382 0.61998 0.0
C1280 C 0.95883 0.67088 0.60297 0.0
C1281 C 0.95833 0.68609 0.61936 0.0
H1282 H 0.93595 0.6389 0.64881 0.0
H1283 H 0.95235 0.63248 0.59122 0.0
C1284 C 0.96766 0.51633 0.58238 0.0
N1285 N 0.97126 0.54173 0.58771 0.0
C1286 C 0.97829 0.50711 0.56575 0.0
C1287 C 0.99634 0.55028 0.56052 0.0
C1288 C 0.98521 0.5587 0.57718 0.0
C1289 C 0.99253 0.52431 0.55447 0.0
H1290 H 0.95566 0.50351 0.59062 0.0
H1291 H 0.98666 0.5791 0.58124 0.0
O1292 O 0.91646 0.58365 0.64222 0.0
O1293 O 0.9343 0.53029 0.6242 0.0
O1294 O 0.9244 0.57862 0.5992 0.0
O1295 O 0.97033 0.57842 0.62646 0.0
H1296 H 0.90014 0.53652 0.65274 0.0
H1297 H 0.89861 0.6191 0.66583 0.0
H1298 H 0.87302 0.52791 0.68043 0.0
H1299 H 0.87144 0.60911 0.69334 0.0
H1300 H 0.99501 0.46845 0.63558 0.0
H1301 H 0.90398 0.49319 0.63765 0.0
H1302 H 0.98173 0.5123 0.62389 0.0
H1303 H 0.91855 0.44953 0.64889 0.0
H1304 H 0.81479 0.55705 0.62989 0.0
H1305 H 0.84868 0.49303 0.5987 0.0
H1306 H 0.9928 0.58276 0.69778 0.0
H1307 H 0.95026 0.51017 0.70295 0.0
H1308 H 0.91449 0.5804 0.56311 0.0
H1309 H 0.89205 0.61028 0.61694 0.0
H1310 H 0.88027 0.60732 0.54857 0.0
H1311 H 0.85829 0.63653 0.6015 0.0
H1312 H 0.99681 0.61337 0.60708 0.0
H1313 H 0.00253 0.54424 0.64155 0.0
H1314 H 0.04386 0.61299 0.60343 0.0
H1315 H 0.04942 0.54489 0.63714 0.0
H1316 H 0.94876 0.68558 0.64888 0.0
H1317 H 0.96565 0.67906 0.58993 0.0
H1318 H 0.9749 0.48695 0.56153 0.0
H1319 H 0.00669 0.5643 0.55202 0.0
Li1320 Li 0.56249 0.44837 0.6386 0.0
Li1321 Li 0.60017 0.44358 0.61983 0.0
Li1322 Li 0.55752 0.44845 0.6061 0.0
Li1323 Li 0.56772 0.40728 0.62123 0.0
C1324 C 0.579 0.49734 0.63049 0.0
N1325 N 0.58295 0.54417 0.64997 0.0
C1326 C 0.60263 0.50564 0.63743 0.0
C1327 C 0.55744 0.51303 0.63336 0.0
C1328 C 0.60422 0.52934 0.64725 0.0
C1329 C 0.55981 0.53656 0.64329 0.0
C1330 C 0.59203 0.41991 0.66035 0.0
C1331 C 0.5746 0.4059 0.68992 0.0
N1332 N 0.59381 0.41865 0.69893 0.0
C1333 C 0.61156 0.43293 0.66992 0.0
C1334 C 0.57338 0.40628 0.67043 0.0
C1335 C 0.61216 0.43201 0.68942 0.0
C1336 C 0.52708 0.45273 0.66805 0.0
N1337 N 0.55015 0.46157 0.66206 0.0
C1338 C 0.55779 0.48233 0.6915 0.0
C1339 C 0.56534 0.47642 0.67331 0.0
C1340 C 0.53451 0.47262 0.69828 0.0
C1341 C 0.51879 0.45813 0.68617 0.0
H1342 H 0.51567 0.44028 0.65911 0.0
H1343 H 0.58397 0.48244 0.6686 0.0
C1344 C 0.63916 0.47067 0.6024 0.0
N1345 N 0.63481 0.45242 0.61588 0.0
C1346 C 0.6635 0.48119 0.59999 0.0
C1347 C 0.67869 0.45294 0.62479 0.0
C1348 C 0.65402 0.44284 0.62665 0.0
C1349 C 0.68354 0.47287 0.61161 0.0
H1350 H 0.62344 0.47775 0.59399 0.0
H1351 H 0.65005 0.42797 0.63704 0.0
C1352 C 0.51306 0.43443 0.61721 0.0
N1353 N 0.46654 0.44711 0.60141 0.0
C1354 C 0.50087 0.41669 0.60526 0.0
C1355 C 0.50141 0.45848 0.62131 0.0
C1356 C 0.47741 0.42349 0.59736 0.0
C1357 C 0.47794 0.46456 0.61314 0.0
C1358 C 0.60179 0.40614 0.59135 0.0
C1359 C 0.6041 0.40395 0.57197 0.0
C1360 C 0.6175 0.39106 0.60296 0.0
C1361 C 0.62214 0.38669 0.56449 0.0
C1362 C 0.63531 0.37403 0.59493 0.0
N1363 N 0.63725 0.37221 0.57603 0.0
C1364 C 0.53453 0.48792 0.58364 0.0
C1365 C 0.53646 0.4452 0.57042 0.0
C1366 C 0.52395 0.49797 0.56724 0.0
N1367 N 0.54068 0.46202 0.58483 0.0
C1368 C 0.52601 0.45439 0.55374 0.0
C1369 C 0.51991 0.48119 0.55191 0.0
H1370 H 0.5383 0.50087 0.59526 0.0
H1371 H 0.54177 0.42472 0.57178 0.0
C1372 C 0.56773 0.35404 0.63433 0.0
N1373 N 0.56199 0.37037 0.61989 0.0
C1374 C 0.56021 0.32766 0.6338 0.0
C1375 C 0.5424 0.33513 0.60311 0.0
C1376 C 0.55036 0.36128 0.60421 0.0
C1377 C 0.54674 0.3181 0.61823 0.0
H1378 H 0.57757 0.36157 0.64645 0.0
H1379 H 0.54666 0.37459 0.59274 0.0
O1380 O 0.5771 0.47431 0.62064 0.0
O1381 O 0.59079 0.42104 0.64126 0.0
O1382 O 0.53644 0.42852 0.62465 0.0
O1383 O 0.58418 0.42299 0.5988 0.0
H1384 H 0.61953 0.49381 0.63555 0.0
H1385 H 0.53902 0.50709 0.62809 0.0
H1386 H 0.62235 0.53589 0.65277 0.0
H1387 H 0.54324 0.54879 0.64568 0.0
H1388 H 0.56017 0.39564 0.69789 0.0
H1389 H 0.62581 0.44411 0.66243 0.0
H1390 H 0.55775 0.39667 0.66329 0.0
H1391 H 0.62708 0.44213 0.697 0.0
H1392 H 0.57047 0.49362 0.70036 0.0
H1393 H 0.50092 0.4498 0.69093 0.0
H1394 H 0.66645 0.49606 0.58937 0.0
H1395 H 0.69351 0.44597 0.63409 0.0
H1396 H 0.50944 0.39794 0.60202 0.0
H1397 H 0.51043 0.47233 0.63065 0.0
H1398 H 0.46785 0.41001 0.58799 0.0
H1399 H 0.4688 0.48318 0.61612 0.0
H1400 H 0.59207 0.4155 0.56281 0.0
H1401 H 0.61601 0.39242 0.61798 0.0
H1402 H 0.62414 0.3848 0.54951 0.0
H1403 H 0.64759 0.36225 0.60374 0.0
H1404 H 0.51924 0.51868 0.56651 0.0
H1405 H 0.52356 0.44083 0.54222 0.0
H1406 H 0.56401 0.31519 0.64574 0.0
H1407 H 0.5326 0.32841 0.59067 0.0
H1408 H 0.29784 0.02133 0.13196 0.0
H1409 H 0.27468 0.94329 0.11525 0.0
H1410 H 0.23014 0.95733 0.11465 0.0
H1411 H 0.19799 0.99214 0.11769 0.0
H1412 H 0.22116 0.07035 0.1339 0.0
H1413 H 0.26563 0.05602 0.13536 0.0
C1414 C 0.28308 0.00742 0.12805 0.0
C1415 C 0.28964 0.98129 0.12362 0.0
C1416 C 0.25756 0.01571 0.12748 0.0
C1417 C 0.27018 0.96342 0.11895 0.0
C1418 C 0.24471 0.97148 0.11846 0.0
C1419 C 0.21273 0.00598 0.12176 0.0
C1420 C 0.20626 0.03228 0.12568 0.0
C1421 C 0.23821 0.9976 0.1226 0.0
C1422 C 0.22566 0.05008 0.1306 0.0
C1423 C 0.25106 0.04187 0.13154 0.0
H1424 H 0.72145 0.95784 0.35548 0.0
H1425 H 0.68995 0.01615 0.39274 0.0
H1426 H 0.73082 0.03907 0.39357 0.0
H1427 H 0.77549 0.04272 0.38367 0.0
H1428 H 0.80718 0.98417 0.34668 0.0
H1429 H 0.7661 0.9617 0.34537 0.0
C1430 C 0.72347 0.97567 0.36366 0.0
C1431 C 0.70268 0.98513 0.37411 0.0
C1432 C 0.74702 0.98888 0.36401 0.0
C1433 C 0.70574 0.00814 0.38481 0.0
C1434 C 0.72907 0.02139 0.3852 0.0
C1435 C 0.77346 0.02496 0.37541 0.0
C1436 C 0.79443 0.01524 0.36526 0.0
C1437 C 0.74986 0.0119 0.3749 0.0
C1438 C 0.79131 0.99238 0.3544 0.0
C1439 C 0.76785 0.97936 0.35376 0.0
H1440 H 0.79907 0.00779 0.87331 0.0
H1441 H 0.76993 0.93198 0.89026 0.0
H1442 H 0.72688 0.95009 0.89195 0.0
H1443 H 0.69725 0.98708 0.8876 0.0
H1444 H 0.72608 0.06217 0.86913 0.0
H1445 H 0.76951 0.04455 0.86865 0.0
C1446 C 0.7833 0.99509 0.87716 0.0
C1447 C 0.78783 0.96851 0.8816 0.0
C1448 C 0.75852 0.00549 0.87776 0.0
C1449 C 0.76714 0.95258 0.88698 0.0
C1450 C 0.74246 0.96287 0.88784 0.0
C1451 C 0.71311 0.99962 0.88366 0.0
C1452 C 0.70856 0.02589 0.87848 0.0
C1453 C 0.73792 0.98927 0.8832 0.0
C1454 C 0.72916 0.04185 0.87309 0.0
C1455 C 0.75396 0.0318 0.87285 0.0
H1456 H 0.19677 0.02018 0.6223 0.0
H1457 H 0.22212 0.94276 0.6057 0.0
H1458 H 0.26611 0.95826 0.60486 0.0
H1459 H 0.29737 0.9935 0.60912 0.0
H1460 H 0.2717 0.07181 0.62314 0.0
H1461 H 0.22777 0.05612 0.62463 0.0
C1462 C 0.2118 0.00673 0.61819 0.0
C1463 C 0.20598 0.98026 0.61415 0.0
C1464 C 0.23703 0.01588 0.61733 0.0
C1465 C 0.22594 0.96309 0.60924 0.0
C1466 C 0.25114 0.97198 0.60861 0.0
C1467 C 0.28219 0.00733 0.61217 0.0
C1468 C 0.288 0.03385 0.61602 0.0
C1469 C 0.25689 0.99832 0.61265 0.0
C1470 C 0.26797 0.05121 0.6204 0.0
C1471 C 0.24277 0.0423 0.62114 0.0
H1472 H 0.78475 0.48473 0.14931 0.0
H1473 H 0.77879 0.46567 0.09071 0.0
H1474 H 0.73635 0.4854 0.08959 0.0
H1475 H 0.70123 0.50872 0.10512 0.0
H1476 H 0.70674 0.52698 0.16381 0.0
H1477 H 0.74894 0.50648 0.16512 0.0
C1478 C 0.77401 0.48447 0.13636 0.0
C1479 C 0.785 0.47379 0.12011 0.0
C1480 C 0.74959 0.49579 0.13582 0.0
C1481 C 0.77094 0.47406 0.10337 0.0
C1482 C 0.74664 0.48527 0.10273 0.0
C1483 C 0.71178 0.50835 0.11815 0.0
C1484 C 0.70104 0.5195 0.13431 0.0
C1485 C 0.7359 0.49643 0.11881 0.0
C1486 C 0.71463 0.51845 0.1512 0.0
C1487 C 0.73875 0.50679 0.15195 0.0
H1488 H 0.27292 0.54652 0.38478 0.0
H1489 H 0.30483 0.48685 0.34879 0.0
H1490 H 0.26398 0.4639 0.34819 0.0
H1491 H 0.21957 0.45975 0.35889 0.0
H1492 H 0.1881 0.51892 0.39547 0.0
H1493 H 0.2286 0.54256 0.39528 0.0
C1494 C 0.27101 0.52842 0.37688 0.0
C1495 C 0.29198 0.51853 0.36682 0.0
C1496 C 0.2476 0.515 0.37689 0.0
C1497 C 0.28896 0.49523 0.35641 0.0
C1498 C 0.26564 0.48191 0.35621 0.0
C1499 C 0.22154 0.47791 0.36672 0.0
C1500 C 0.20088 0.48742 0.37728 0.0
C1501 C 0.24488 0.49151 0.3665 0.0
C1502 C 0.20383 0.51087 0.38749 0.0
C1503 C 0.22692 0.52454 0.38728 0.0
H1504 H 0.21618 0.50931 0.9047 0.0
H1505 H 0.21019 0.51251 0.84464 0.0
H1506 H 0.25268 0.49326 0.84163 0.0
H1507 H 0.29134 0.47538 0.85603 0.0
H1508 H 0.29815 0.47391 0.91614 0.0
H1509 H 0.25514 0.49166 0.91913 0.0
C1510 C 0.22415 0.50565 0.89097 0.0
C1511 C 0.21011 0.51241 0.87492 0.0
C1512 C 0.24859 0.49459 0.88934 0.0
C1513 C 0.22077 0.50783 0.85721 0.0
C1514 C 0.24498 0.49665 0.85547 0.0
C1515 C 0.28356 0.47914 0.8698 0.0
C1516 C 0.29809 0.47327 0.88582 0.0
C1517 C 0.25907 0.49001 0.87144 0.0
C1518 C 0.28735 0.47778 0.90355 0.0
C1519 C 0.26281 0.48822 0.90529 0.0
H1520 H 0.73056 0.45014 0.6147 0.0
H1521 H 0.69355 0.52516 0.60657 0.0
H1522 H 0.73488 0.54707 0.60587 0.0
H1523 H 0.78149 0.54523 0.60836 0.0
H1524 H 0.81841 0.47061 0.61825 0.0
H1525 H 0.77721 0.44836 0.61746 0.0
C1526 C 0.73151 0.4713 0.61289 0.0
C1527 C 0.70892 0.48589 0.61063 0.0
C1528 C 0.75535 0.48391 0.61282 0.0
C1529 C 0.71059 0.51329 0.60802 0.0
C1530 C 0.73424 0.52592 0.60777 0.0
C1531 C 0.78053 0.52413 0.61048 0.0
C1532 C 0.80307 0.50967 0.61333 0.0
C1533 C 0.75673 0.51146 0.61028 0.0
C1534 C 0.80144 0.48224 0.61575 0.0
C1535 C 0.77785 0.46948 0.61543 0.0
H1536 H 0.9817 0.06572 0.2728 0.0
H1537 H 0.98422 0.98125 0.27737 0.0
H1538 H 0.99595 0.97782 0.24422 0.0
H1539 H 0.00632 0.9994 0.21407 0.0
H1540 H 0.00249 0.08405 0.21017 0.0
H1541 H 0.99031 0.0869 0.24292 0.0
C1542 C 0.98498 0.04657 0.26653 0.0
C1543 C 0.98254 0.02379 0.27744 0.0
C1544 C 0.99134 0.04483 0.2476 0.0
C1545 C 0.98617 0.99903 0.26916 0.0
C1546 C 0.99288 0.99711 0.25027 0.0
C1547 C 0.00275 0.0184 0.22044 0.0
C1548 C 0.00515 0.04146 0.20971 0.0
C1549 C 0.99565 0.01993 0.23936 0.0
C1550 C 0.00036 0.06599 0.21806 0.0
C1551 C 0.99358 0.06768 0.23681 0.0
H1552 H 0.46101 0.9841 0.22253 0.0
H1553 H 0.53748 0.97965 0.20034 0.0
H1554 H 0.55472 0.97754 0.23198 0.0
H1555 H 0.54769 0.97262 0.26565 0.0
H1556 H 0.47133 0.97892 0.28784 0.0
H1557 H 0.45448 0.98485 0.25638 0.0
C1558 C 0.4815 0.9834 0.22456 0.0
C1559 C 0.49788 0.98174 0.20902 0.0
C1560 C 0.4913 0.98218 0.24278 0.0
C1561 C 0.52438 0.98043 0.21202 0.0
C1562 C 0.53427 0.9793 0.23012 0.0
C1563 C 0.52743 0.97592 0.26371 0.0
C1564 C 0.5108 0.97492 0.27913 0.0
C1565 C 0.51785 0.97948 0.24558 0.0
C1566 C 0.48454 0.97895 0.27622 0.0
C1567 C 0.47488 0.9825 0.25822 0.0
H1568 H 0.9817 0.93903 0.70934 0.0
H1569 H 0.02748 0.00714 0.72243 0.0
H1570 H 0.01243 0.00585 0.75476 0.0
H1571 H 0.98837 0.9835 0.77972 0.0
H1572 H 0.94254 0.91555 0.7662 0.0
H1573 H 0.95539 0.91879 0.73355 0.0
C1574 C 0.98796 0.95398 0.71913 0.0
C1575 C 0.0057 0.97314 0.71347 0.0
C1576 C 0.97942 0.95298 0.73767 0.0
C1577 C 0.01402 0.99202 0.72648 0.0
C1578 C 0.00539 0.99131 0.74495 0.0
C1579 C 0.9809 0.96966 0.76956 0.0
C1580 C 0.96476 0.94914 0.77542 0.0
C1581 C 0.98843 0.97159 0.75078 0.0
C1582 C 0.9554 0.93121 0.76212 0.0
C1583 C 0.96262 0.93313 0.74343 0.0
H1584 H 0.50227 0.06905 0.71002 0.0
H1585 H 0.48163 0.98694 0.7122 0.0
H1586 H 0.49624 0.98455 0.74466 0.0
H1587 H 0.51348 0.0065 0.77279 0.0
H1588 H 0.53404 0.08864 0.7699 0.0
H1589 H 0.52109 0.09022 0.73724 0.0
C1590 C 0.50142 0.05046 0.71744 0.0
C1591 C 0.49104 0.02817 0.70867 0.0
C1592 C 0.5097 0.04929 0.73602 0.0
C1593 C 0.48944 0.00443 0.71869 0.0
C1594 C 0.49784 0.00304 0.73721 0.0
C1595 C 0.51535 0.02463 0.76492 0.0
C1596 C 0.52444 0.04748 0.7738 0.0
C1597 C 0.50779 0.02544 0.74608 0.0
C1598 C 0.52664 0.0709 0.76348 0.0
C1599 C 0.51938 0.07181 0.74478 0.0
H1600 H 0.53347 0.51078 0.22726 0.0
H1601 H 0.45847 0.53268 0.20788 0.0
H1602 H 0.44153 0.52753 0.23946 0.0
H1603 H 0.44916 0.52178 0.27296 0.0
H1604 H 0.52426 0.50057 0.29251 0.0
H1605 H 0.54001 0.50016 0.26037 0.0
C1606 C 0.51329 0.51378 0.22985 0.0
C1607 C 0.49729 0.52233 0.2153 0.0
C1608 C 0.50377 0.51115 0.24808 0.0
C1609 C 0.47124 0.52647 0.21893 0.0
C1610 C 0.46155 0.52349 0.23696 0.0
C1611 C 0.4688 0.51635 0.27017 0.0
C1612 C 0.48556 0.51137 0.2851 0.0
C1613 C 0.47779 0.51657 0.25172 0.0
C1614 C 0.51107 0.5048 0.28125 0.0
C1615 C 0.52008 0.50455 0.26289 0.0
H1616 H 0.97594 0.47237 0.28961 0.0
H1617 H 0.04846 0.50729 0.27536 0.0
H1618 H 0.03415 0.51348 0.24321 0.0
H1619 H 0.00256 0.50501 0.21853 0.0
H1620 H 0.93024 0.46991 0.23292 0.0
H1621 H 0.94262 0.46866 0.26576 0.0
C1622 C 0.98842 0.48196 0.27963 0.0
C1623 C 0.01338 0.48899 0.28486 0.0
C1624 C 0.9801 0.48541 0.26116 0.0
C1625 C 0.02934 0.50115 0.27162 0.0
C1626 C 0.02115 0.5048 0.25324 0.0
C1627 C 0.98943 0.49737 0.22892 0.0
C1628 C 0.96562 0.48739 0.22329 0.0
C1629 C 0.99684 0.4963 0.24774 0.0
C1630 C 0.94861 0.4779 0.2369 0.0
C1631 C 0.95577 0.47695 0.25567 0.0
H1632 H 0.48787 0.48369 0.71321 0.0
H1633 H 0.56597 0.46714 0.72834 0.0
H1634 H 0.55449 0.46752 0.76132 0.0
H1635 H 0.52185 0.46934 0.78574 0.0
H1636 H 0.44335 0.4837 0.77075 0.0
H1637 H 0.45542 0.48759 0.7379 0.0
C1638 C 0.50237 0.48024 0.72375 0.0
C1639 C 0.52772 0.47538 0.7183 0.0
C1640 C 0.49556 0.48 0.74271 0.0
C1641 C 0.54638 0.4713 0.73213 0.0
C1642 C 0.5398 0.47128 0.751 0.0
C1643 C 0.50739 0.47333 0.77527 0.0
C1644 C 0.48173 0.476 0.78065 0.0
C1645 C 0.51439 0.47512 0.75642 0.0
C1646 C 0.46327 0.48173 0.76699 0.0
C1647 C 0.47013 0.48376 0.74819 0.0
H1648 H 0.99918 0.56447 0.78789 0.0
H1649 H 0.01321 0.48088 0.78557 0.0
H1650 H 0.00023 0.4802 0.75272 0.0
H1651 H 0.98649 0.5039 0.72434 0.0
H1652 H 0.97162 0.58734 0.72751 0.0
H1653 H 0.98319 0.58743 0.76044 0.0
C1654 C 0.99888 0.54595 0.78037 0.0
C1655 C 0.00704 0.52275 0.78923 0.0
C1656 C 0.99147 0.54572 0.76158 0.0
C1657 C 0.00718 0.49908 0.77905 0.0
C1658 C -0.00029 0.49866 0.76029 0.0
C1659 C 0.98552 0.52202 0.7323 0.0
C1660 C 0.97854 0.54564 0.72338 0.0
C1661 C 0.99208 0.52195 0.75135 0.0
C1662 C 0.97751 0.569 0.73389 0.0
C1663 C 0.98394 0.56905 0.75277 0.0
H1664 H 0.04214 0.22912 0.13647 0.0
H1665 H 0.99504 0.20061 0.09139 0.0
H1666 H 0.97015 0.24123 0.09206 0.0
H1667 H 0.96087 0.28411 0.10615 0.0
H1668 H 0.00939 0.31355 0.15026 0.0
H1669 H 0.03398 0.27295 0.14966 0.0
C1670 C 0.02643 0.23185 0.1268 0.0
C1671 C 0.02046 0.21194 0.11389 0.0
C1672 C 0.01219 0.25523 0.12727 0.0
C1673 C 0.00023 0.21581 0.1013 0.0
C1674 C 0.98586 0.23893 0.10177 0.0
C1675 C 0.977 0.28186 0.1155 0.0
C1676 C 0.98299 0.30193 0.12834 0.0
C1677 C 0.99157 0.25871 0.11477 0.0
C1678 C 0.0038 0.2983 0.14052 0.0
C1679 C 0.01813 0.27516 0.14007 0.0
H1680 H 0.50727 0.80913 0.12724 0.0
H1681 H 0.43172 0.77752 0.11881 0.0
H1682 H 0.44905 0.73287 0.11875 0.0
H1683 H 0.48555 0.70287 0.12155 0.0
H1684 H 0.56109 0.73455 0.12996 0.0
H1685 H 0.54374 0.77916 0.13006 0.0
C1686 C 0.49454 0.79246 0.1256 0.0
C1687 C 0.46821 0.79666 0.1231 0.0
C1688 C 0.50461 0.76689 0.12566 0.0
C1689 C 0.45207 0.77486 0.1206 0.0
C1690 C 0.46195 0.74932 0.12065 0.0
C1691 C 0.49827 0.71955 0.12321 0.0
C1692 C 0.5246 0.71537 0.1257 0.0
C1693 C 0.48818 0.74512 0.12316 0.0
C1694 C 0.54073 0.73719 0.1282 0.0
C1695 C 0.53084 0.7627 0.12816 0.0
H1696 H 0.48871 0.70495 0.40307 0.0
H1697 H 0.47596 0.70423 0.3435 0.0
H1698 H 0.4976 0.74655 0.34056 0.0
H1699 H 0.52019 0.78381 0.35487 0.0
H1700 H 0.53332 0.78443 0.41435 0.0
H1701 H 0.5118 0.74194 0.41733 0.0
C1702 C 0.49082 0.71395 0.38942 0.0
C1703 C 0.48064 0.70141 0.37355 0.0
C1704 C 0.50348 0.73821 0.3878 0.0
C1705 C 0.48323 0.7136 0.35601 0.0
C1706 C 0.49581 0.73771 0.35428 0.0
C1707 C 0.51864 0.77446 0.36844 0.0
C1708 C 0.52844 0.78717 0.38435 0.0
C1709 C 0.50606 0.75016 0.37007 0.0
C1710 C 0.52582 0.77508 0.40191 0.0
C1711 C 0.51355 0.75079 0.40361 0.0
H1712 H 0.00459 0.29325 0.35364 0.0
H1713 H 0.03201 0.28668 0.41031 0.0
H1714 H 0.01189 0.24357 0.41321 0.0
H1715 H 0.98666 0.20773 0.3997 0.0
H1716 H 0.96117 0.21317 0.34247 0.0
H1717 H 0.9801 0.25686 0.33988 0.0
C1718 C 0.00646 0.28225 0.36655 0.0
C1719 C 0.01984 0.29323 0.38172 0.0
C1720 C 0.99497 0.25736 0.3681 0.0
C1721 C 0.0216 0.27887 0.39847 0.0
C1722 C 0.01018 0.25416 0.40013 0.0
C1723 C 0.98541 0.21831 0.38658 0.0
C1724 C 0.97245 0.20704 0.37132 0.0
C1725 C 0.99681 0.24322 0.38504 0.0
C1726 C 0.97063 0.22142 0.35457 0.0
C1727 C 0.98168 0.24635 0.353 0.0
H1728 H 0.99347 0.68931 0.86703 0.0
H1729 H 0.06143 0.72239 0.89175 0.0
H1730 H 0.04029 0.76504 0.89449 0.0
H1731 H 0.00258 0.79294 0.88979 0.0
H1732 H 0.93504 0.76019 0.86439 0.0
H1733 H 0.95619 0.71744 0.86159 0.0
C1734 C 0.00384 0.70592 0.87275 0.0
C1735 C 0.02905 0.70261 0.87915 0.0
C1736 C 0.99165 0.73042 0.87416 0.0
C1737 C 0.04194 0.72428 0.8869 0.0
C1738 C 0.02991 0.74871 0.88841 0.0
C1739 C 0.99243 0.77635 0.88381 0.0
C1740 C 0.96722 0.77958 0.87746 0.0
C1741 C 0.00474 0.75195 0.88217 0.0
C1742 C 0.95447 0.75814 0.86934 0.0
C1743 C 0.96653 0.73372 0.86779 0.0
H1744 H 0.45778 0.27752 0.87913 0.0
H1745 H 0.52612 0.31534 0.89939 0.0
H1746 H 0.54825 0.27311 0.89981 0.0
H1747 H 0.54879 0.22564 0.89318 0.0
H1748 H 0.48052 0.188 0.87264 0.0
H1749 H 0.45798 0.22997 0.87325 0.0
C1750 C 0.47755 0.27653 0.88356 0.0
C1751 C 0.49023 0.29956 0.88923 0.0
C1752 C 0.49027 0.25223 0.88359 0.0
C1753 C 0.51576 0.29787 0.8952 0.0
C1754 C 0.52851 0.27375 0.89532 0.0
C1755 C 0.52891 0.2266 0.88903 0.0
C1756 C 0.51645 0.20377 0.88272 0.0
C1757 C 0.51602 0.25082 0.88943 0.0
C1758 C 0.49072 0.20538 0.87723 0.0
C1759 C 0.47775 0.22934 0.87767 0.0
H1760 H 0.51607 0.19815 0.62468 0.0
H1761 H 0.44524 0.22878 0.60291 0.0
H1762 H 0.4637 0.27281 0.60147 0.0
H1763 H 0.49951 0.30284 0.60712 0.0
H1764 H 0.5701 0.27258 0.62945 0.0
H1765 H 0.55198 0.22824 0.63031 0.0
C1766 C 0.50457 0.21449 0.6198 0.0
C1767 C 0.47927 0.2101 0.61393 0.0
C1768 C 0.51523 0.23984 0.61916 0.0
C1769 C 0.46484 0.23148 0.60731 0.0
C1770 C 0.47533 0.25672 0.60657 0.0
C1771 C 0.51105 0.28648 0.61196 0.0
C1772 C 0.53616 0.29099 0.61814 0.0
C1773 C 0.50048 0.26112 0.61248 0.0
C1774 C 0.55067 0.26967 0.62473 0.0
C1775 C 0.54035 0.24431 0.62517 0.0
H1776 H 0.9911 0.8046 0.63028 0.0
H1777 H 0.05656 0.77744 0.59922 0.0
H1778 H 0.03744 0.73374 0.59659 0.0
H1779 H 0.00272 0.70292 0.60391 0.0
H1780 H 0.93778 0.72985 0.6356 0.0
H1781 H 0.95632 0.77393 0.63744 0.0
C1782 C 0.00134 0.78906 0.62311 0.0
C1783 C 0.0253 0.79429 0.61504 0.0
C1784 C 0.99034 0.76395 0.62178 0.0
C1785 C 0.03801 0.77404 0.60543 0.0
C1786 C 0.02714 0.74901 0.60399 0.0
C1787 C 0.99247 0.71854 0.611 0.0
C1788 C 0.96887 0.71318 0.61955 0.0
C1789 C 0.00334 0.74374 0.61213 0.0
C1790 C 0.95604 0.73347 0.629 0.0
C1791 C 0.96661 0.75866 0.63003 0.0
H1792 H 0.96857 0.01713 0.96427 0.0
H1793 H 0.02065 0.95158 0.96104 0.0
H1794 H 0.03915 0.96383 0.99114 0.0
H1795 H 0.03951 0.9923 0.0189 0.0
H1796 H 0.98776 0.05807 0.02204 0.0
H1797 H 0.97002 0.04657 0.99149 0.0
C1798 C 0.98399 0.00557 0.97018 0.0
C1799 C 0.99321 0.98348 0.9605 0.0
C1800 C 0.99447 0.01268 0.98749 0.0
C1801 C 0.01341 0.96885 0.96815 0.0
C1802 C 0.02387 0.97571 0.98541 0.0
C1803 C 0.02429 0.00401 0.01288 0.0
C1804 C 0.01481 0.02586 0.02267 0.0
C1805 C 0.01437 0.99741 0.99529 0.0
C1806 C 0.99539 0.0412 0.01466 0.0
C1807 C 0.98521 0.03461 0.99725 0.0
H1808 H 0.50376 0.03345 0.9688 0.0
H1809 H 0.52274 0.95395 0.9532 0.0
H1810 H 0.50904 0.93817 0.984 0.0
H1811 H 0.49153 0.94728 0.01535 0.0
H1812 H 0.47438 0.02724 0.0311 0.0
H1813 H 0.48761 0.0427 0.00025 0.0
C1814 C 0.50468 0.01265 0.97215 0.0
C1815 C 0.51388 0.99478 0.95881 0.0
C1816 C 0.49724 0.00391 0.98989 0.0
C1817 C 0.5156 0.96797 0.96333 0.0
C1818 C 0.50778 0.95899 0.98088 0.0
C1819 C 0.49068 0.96806 0.01195 0.0
C1820 C 0.48198 0.98614 0.02537 0.0
C1821 C 0.49855 0.97681 0.99426 0.0
C1822 C 0.48122 0.01305 0.02098 0.0
C1823 C 0.48864 0.02186 0.00335 0.0
H1824 H 0.46499 0.03752 0.50974 0.0
H1825 H 0.50255 0.97521 0.54018 0.0
H1826 H 0.51838 0.95673 0.51096 0.0
H1827 H 0.52258 0.95891 0.47683 0.0
H1828 H 0.48693 0.02239 0.44657 0.0
H1829 H 0.46976 0.04014 0.47575 0.0
C1830 C 0.47689 0.02008 0.51004 0.0
C1831 C 0.48252 0.00781 0.52718 0.0
C1832 C 0.48635 0.00983 0.49323 0.0
C1833 C 0.49756 0.98488 0.5272 0.0
C1834 C 0.50679 0.97438 0.5105 0.0
C1835 C 0.51085 0.9765 0.47665 0.0
C1836 C 0.5059 0.98931 0.45964 0.0
C1837 C 0.50134 0.98672 0.49345 0.0
C1838 C 0.49106 0.01231 0.45955 0.0
C1839 C 0.48122 0.0224 0.4762 0.0
H1840 H 0.03376 0.96977 0.51357 0.0
H1841 H 0.97955 0.01798 0.54331 0.0
H1842 H 0.96172 0.03335 0.5137 0.0
H1843 H 0.96112 0.03249 0.47944 0.0
H1844 H 0.01576 0.98468 0.44973 0.0
H1845 H 0.03338 0.96918 0.47931 0.0
C1846 C 0.01789 0.98347 0.51356 0.0
C1847 C 0.00795 0.99269 0.5306 0.0
C1848 C 0.00771 0.99214 0.49653 0.0
C1849 C 0.9877 0.0108 0.53037 0.0
C1850 C 0.97741 0.01947 0.51346 0.0
C1851 C 0.97706 0.01889 0.47942 0.0
C1852 C 0.98708 0.00977 0.46237 0.0
C1853 C 0.98727 0.01027 0.49647 0.0
C1854 C 0.00744 0.99176 0.46263 0.0
C1855 C 0.01764 0.98301 0.47954 0.0
H1856 H 0.5481 0.52437 0.02112 0.0
H1857 H 0.47086 0.53763 0.03962 0.0
H1858 H 0.45489 0.52717 0.00838 0.0
H1859 H 0.46281 0.51194 0.97639 0.0
H1860 H 0.54013 0.49892 0.95784 0.0
H1861 H 0.55617 0.51135 0.98864 0.0
C1862 C 0.52777 0.52484 0.0183 0.0
C1863 C 0.51063 0.53149 0.03263 0.0
C1864 C 0.51877 0.51879 0.00036 0.0
C1865 C 0.48439 0.53261 0.02875 0.0
C1866 C 0.47526 0.52656 0.01094 0.0
C1867 C 0.4832 0.5123 0.97897 0.0
C1868 C 0.50025 0.50444 0.96486 0.0
C1869 C 0.49227 0.5194 0.99669 0.0
C1870 C 0.5266 0.50459 0.96854 0.0
C1871 C 0.53578 0.51174 0.98612 0.0
H1872 H 0.97598 0.52137 0.03546 0.0
H1873 H 0.00928 0.44385 0.03297 0.0
H1874 H 0.0272 0.45363 0.00223 0.0
H1875 H 0.03297 0.48401 0.97596 0.0
H1876 H 0.99895 0.56126 0.97814 0.0
H1877 H 0.9821 0.55195 0.00925 0.0
C1878 C 0.98742 0.50676 0.02826 0.0
C1879 C 0.99129 0.48194 0.03642 0.0
C1880 C 0.9975 0.51245 0.01056 0.0
C1881 C 0.00584 0.46303 0.02686 0.0
C1882 C 0.01613 0.46861 0.00932 0.0
C1883 C 0.02168 0.49872 0.98317 0.0
C1884 C 0.0172 0.52326 0.97473 0.0
C1885 C 0.0119 0.49318 0.00098 0.0
C1886 C 0.00291 0.5423 0.98441 0.0
C1887 C 0.99316 0.53696 0.00216 0.0
H1888 H 0.96607 0.49736 0.52819 0.0
H1889 H 0.03934 0.533 0.53884 0.0
H1890 H 0.05355 0.52118 0.50739 0.0
H1891 H 0.045 0.50086 0.47689 0.0
H1892 H 0.97136 0.46597 0.46615 0.0
H1893 H 0.95756 0.47698 0.49778 0.0
C1894 C 0.98527 0.50221 0.52371 0.0
C1895 C 0.00169 0.51589 0.53582 0.0
C1896 C 0.9932 0.49554 0.50561 0.0
C1897 C 0.02633 0.52256 0.52971 0.0
C1898 C 0.03446 0.51578 0.51176 0.0
C1899 C 0.02584 0.49593 0.4814 0.0
C1900 C 0.00921 0.48267 0.46916 0.0
C1901 C 0.01799 0.50243 0.49956 0.0
C1902 C 0.98461 0.47596 0.47535 0.0
C1903 C 0.97667 0.48233 0.4934 0.0
H1904 H 0.48557 0.45887 0.5281 0.0
H1905 H 0.53361 0.52721 0.535 0.0
H1906 H 0.51967 0.54405 0.50479 0.0
H1907 H 0.49509 0.53869 0.47596 0.0
H1908 H 0.44739 0.47023 0.46872 0.0
H1909 H 0.46056 0.45374 0.49931 0.0
C1910 C 0.49309 0.47738 0.52295 0.0
C1911 C 0.51057 0.49176 0.53384 0.0
C1912 C 0.48528 0.4868 0.50544 0.0
C1913 C 0.51984 0.51591 0.52706 0.0
C1914 C 0.51204 0.52547 0.50971 0.0
C1915 C 0.48735 0.5203 0.48116 0.0
C1916 C 0.47029 0.50572 0.47008 0.0
C1917 C 0.49488 0.51102 0.49875 0.0
C1918 C 0.46079 0.48169 0.47688 0.0
C1919 C 0.46818 0.47232 0.49441 0.0
loop_
_geom_bond_atom_site_label_1
_geom_bond_atom_site_label_2
_geom_bond_distance
_geom_bond_site_symmetry_2
_ccdc_geom_bond_type
Li0 N17 1.990 . S
Li0 O60 1.956 . S
Li0 O61 1.970 . S
Li0 O62 1.961 . S
Li1 N25 1.990 . S
Li1 O60 1.970 . S
Li1 O61 1.956 . S
Li1 O63 1.961 . S
Li2 N47 1.990 . S
Li2 O60 1.961 . S
Li2 O62 1.956 . S
Li2 O63 1.970 . S
Li3 N53 1.990 . S
Li3 O61 1.961 . S
Li3 O62 1.970 . S
Li3 O63 1.956 . S
C4 C6 1.348 . S
C4 C7 1.356 . S
C4 O60 1.325 1_565 S
N5 C8 1.314 . S
N5 C9 1.279 . S
C6 C4 1.348 . S
C6 C8 1.353 . S
C6 H64 0.929 . S
C7 C4 1.356 . S
C7 C9 1.358 . S
C7 H65 0.930 . S
C8 N5 1.314 . S
C8 C6 1.353 . S
C8 H66 0.930 . S
C9 N5 1.279 . S
C9 C7 1.358 . S
C9 H67 0.930 . S
C10 C13 1.348 . S
C10 C14 1.356 . S
C10 O61 1.325 . S
C11 N12 1.279 . S
C11 C14 1.358 . S
C11 H68 0.930 . S
N12 C11 1.279 . S
N12 C15 1.314 . S
C13 C10 1.348 . S
C13 C15 1.353 . S
C13 H69 0.929 . S
C14 C10 1.356 . S
C14 C11 1.358 . S
C14 H70 0.930 . S
C15 N12 1.314 . S
C15 C13 1.353 . S
C15 H71 0.930 . S
C16 N17 1.314 . S
C16 C21 1.353 1_455 S
C16 H22 0.930 . S
N17 Li0 1.990 . S
N17 C16 1.314 . S
N17 C19 1.279 1_545 S
C18 C19 1.358 . S
C18 C20 1.356 . S
C18 H72 0.930 . S
C19 N17 1.279 1_565 S
C19 C18 1.358 . S
C19 H23 0.930 . S
C20 C18 1.356 . S
C20 C21 1.348 1_465 S
C21 C16 1.353 1_655 S
C21 C20 1.348 1_645 S
C21 H73 0.929 . S
H22 C16 0.930 . S
H23 C19 0.930 . S
C24 N25 1.314 . S
C24 C26 1.353 . S
C24 H30 0.930 . S
N25 Li1 1.990 . S
N25 C24 1.314 . S
N25 C28 1.279 . S
C26 C24 1.353 . S
C26 C29 1.348 . S
C26 H74 0.929 . S
C27 C28 1.358 . S
C27 C29 1.356 . S
C27 H75 0.930 . S
C28 N25 1.279 . S
C28 C27 1.358 . S
C28 H31 0.930 . S
C29 C26 1.348 . S
C29 C27 1.356 . S
H30 C24 0.930 . S
H31 C28 0.930 . S
C32 C34 1.348 1_455 S
C32 C35 1.356 1_455 S
C32 O62 1.324 . S
N33 C36 1.314 . S
N33 C37 1.279 . S
C34 C32 1.348 1_655 S
C34 C36 1.353 . S
C34 H76 0.903 1_655 S
C35 C32 1.356 1_655 S
C35 C37 1.358 . S
C35 H77 0.930 . S
C36 N33 1.314 . S
C36 C34 1.353 . S
C36 H78 0.930 . S
C37 N33 1.279 . S
C37 C35 1.358 . S
C37 H79 0.930 . S
C38 C39 1.348 . S
C38 C40 1.356 . S
C38 O63 1.325 . S
C39 C38 1.348 . S
C39 C41 1.353 . S
C39 H80 0.929 . S
C40 C38 1.356 . S
C40 C42 1.358 . S
C40 H81 0.930 . S
C41 C39 1.353 . S
C41 N43 1.314 . S
C41 H82 0.930 . S
C42 C40 1.358 . S
C42 N43 1.279 . S
C42 H83 0.930 . S
N43 C41 1.314 . S
N43 C42 1.279 . S
C44 C46 1.353 . S
C44 N47 1.314 . S
C44 H50 0.930 . S
C45 N47 1.279 . S
C45 C48 1.358 1_455 S
C45 H51 0.930 1_455 S
C46 C44 1.353 . S
C46 C49 1.348 . S
C46 H84 0.929 1_545 S
N47 Li2 1.990 . S
N47 C44 1.314 . S
N47 C45 1.279 . S
C48 C45 1.358 1_655 S
C48 C49 1.356 1_655 S
C48 H85 0.930 . S
C49 C46 1.348 . S
C49 C48 1.356 1_455 S
H50 C44 0.930 . S
H51 C45 0.930 1_655 S
C52 N53 1.314 . S
C52 C54 1.353 . S
C52 H58 0.930 . S
N53 Li3 1.990 . S
N53 C52 1.314 . S
N53 C56 1.279 . S
C54 C52 1.353 . S
C54 C57 1.348 . S
C54 H86 0.929 . S
C55 C56 1.358 . S
C55 C57 1.356 . S
C55 H87 0.930 . S
C56 N53 1.279 . S
C56 C55 1.358 . S
C56 H59 0.930 . S
C57 C54 1.348 . S
C57 C55 1.356 . S
H58 C52 0.930 . S
H59 C56 0.930 . S
O60 Li0 1.956 . S
O60 Li1 1.970 . S
O60 Li2 1.961 . S
O60 C4 1.325 1_545 S
O61 Li0 1.970 . S
O61 Li1 1.956 . S
O61 Li3 1.961 . S
O61 C10 1.325 . S
O62 Li0 1.961 . S
O62 Li2 1.956 . S
O62 Li3 1.970 . S
O62 C32 1.324 . S
O63 Li1 1.961 . S
O63 Li2 1.970 . S
O63 Li3 1.956 . S
O63 C38 1.325 . S
H64 C6 0.929 . S
H65 C7 0.930 . S
H66 C8 0.930 . S
H67 C9 0.930 . S
H68 C11 0.930 . S
H69 C13 0.929 . S
H70 C14 0.930 . S
H71 C15 0.930 . S
H72 C18 0.930 . S
H73 C21 0.929 . S
H74 C26 0.929 . S
H75 C27 0.930 . S
H76 C34 0.903 1_455 S
H77 C35 0.930 . S
H78 C36 0.930 . S
H79 C37 0.930 . S
H80 C39 0.929 . S
H81 C40 0.930 . S
H82 C41 0.930 . S
H83 C42 0.930 . S
H84 C46 0.929 1_565 S
H85 C48 0.930 . S
H86 C54 0.929 . S
H87 C55 0.930 . S
Li88 N105 1.990 . S
Li88 O148 1.956 . S
Li88 O149 1.970 . S
Li88 O150 1.961 . S
Li89 N113 1.990 . S
Li89 O148 1.970 . S
Li89 O149 1.956 . S
Li89 O151 1.961 . S
Li90 N135 1.990 . S
Li90 O148 1.961 . S
Li90 O150 1.956 . S
Li90 O151 1.970 . S
Li91 N141 1.990 . S
Li91 O149 1.961 . S
Li91 O150 1.970 . S
Li91 O151 1.956 . S
C92 C94 1.348 . S
C92 C95 1.356 . S
C92 O148 1.325 . S
N93 C96 1.314 . S
N93 C97 1.279 . S
C94 C92 1.348 . S
C94 C96 1.353 . S
C94 H152 0.929 . S
C95 C92 1.356 . S
C95 C97 1.358 . S
C95 H153 0.930 . S
C96 N93 1.314 . S
C96 C94 1.353 . S
C96 H154 0.930 . S
C97 N93 1.279 . S
C97 C95 1.358 . S
C97 H155 0.930 . S
C98 C101 1.348 . S
C98 C102 1.356 . S
C98 O149 1.325 . S
C99 N100 1.279 . S
C99 C102 1.358 . S
C99 H156 0.930 . S
N100 C99 1.279 . S
N100 C103 1.314 . S
C101 C98 1.348 . S
C101 C103 1.353 . S
C101 H157 0.929 . S
C102 C98 1.356 . S
C102 C99 1.358 . S
C102 H158 0.930 . S
C103 N100 1.314 . S
C103 C101 1.353 . S
C103 H159 0.930 . S
C104 N105 1.314 . S
C104 C109 1.353 . S
C104 H110 0.930 . S
N105 Li88 1.990 . S
N105 C104 1.314 . S
N105 C107 1.279 . S
C106 C107 1.358 . S
C106 C108 1.356 . S
C106 H160 0.930 . S
C107 N105 1.279 . S
C107 C106 1.358 . S
C107 H111 0.930 . S
C108 C106 1.356 . S
C108 C109 1.348 . S
C109 C104 1.353 . S
C109 C108 1.348 . S
C109 H161 0.929 . S
H110 C104 0.930 . S
H111 C107 0.930 . S
C112 N113 1.314 . S
C112 C114 1.353 . S
C112 H118 0.930 . S
N113 Li89 1.990 . S
N113 C112 1.314 . S
N113 C116 1.279 . S
C114 C112 1.353 . S
C114 C117 1.348 . S
C114 H162 0.929 1_565 S
C115 C116 1.358 . S
C115 C117 1.356 . S
C115 H163 0.930 . S
C116 N113 1.279 . S
C116 C115 1.358 . S
C116 H119 0.930 . S
C117 C114 1.348 . S
C117 C115 1.356 . S
H118 C112 0.930 . S
H119 C116 0.930 . S
C120 C122 1.348 . S
C120 C123 1.356 . S
C120 O150 1.325 . S
N121 C124 1.314 . S
N121 C125 1.279 . S
C122 C120 1.348 . S
C122 C124 1.353 . S
C122 H164 0.929 . S
C123 C120 1.356 . S
C123 C125 1.358 . S
C123 H165 0.930 . S
C124 N121 1.314 . S
C124 C122 1.353 . S
C124 H166 0.930 . S
C125 N121 1.279 . S
C125 C123 1.358 . S
C125 H167 0.930 . S
C126 C127 1.348 . S
C126 C128 1.356 . S
C126 O151 1.325 1_545 S
C127 C126 1.348 . S
C127 C129 1.353 . S
C127 H168 0.929 . S
C128 C126 1.356 . S
C128 C130 1.358 . S
C128 H169 0.930 . S
C129 C127 1.353 . S
C129 N131 1.314 . S
C129 H170 0.930 . S
C130 C128 1.358 . S
C130 N131 1.279 . S
C130 H171 0.930 . S
N131 C129 1.314 . S
N131 C130 1.279 . S
C132 C134 1.353 . S
C132 N135 1.314 . S
C132 H138 0.930 . S
C133 N135 1.279 . S
C133 C136 1.358 . S
C133 H139 0.930 . S
C134 C132 1.353 . S
C134 C137 1.348 . S
C134 H172 0.929 . S
N135 Li90 1.990 . S
N135 C132 1.314 . S
N135 C133 1.279 . S
C136 C133 1.358 . S
C136 C137 1.356 . S
C136 H173 0.930 . S
C137 C134 1.348 . S
C137 C136 1.356 . S
H138 C132 0.930 . S
H139 C133 0.930 . S
C140 N141 1.314 . S
C140 C142 1.353 . S
C140 H146 0.930 . S
N141 Li91 1.990 . S
N141 C140 1.314 . S
N141 C144 1.279 1_565 S
C142 C140 1.353 . S
C142 C145 1.348 1_565 S
C142 H174 0.929 . S
C143 C144 1.358 . S
C143 C145 1.356 . S
C143 H175 0.930 . S
C144 N141 1.279 1_545 S
C144 C143 1.358 . S
C144 H147 0.930 . S
C145 C142 1.348 1_545 S
C145 C143 1.356 . S
H146 C140 0.930 . S
H147 C144 0.930 . S
O148 Li88 1.956 . S
O148 Li89 1.970 . S
O148 Li90 1.961 . S
O148 C92 1.325 . S
O149 Li88 1.970 . S
O149 Li89 1.956 . S
O149 Li91 1.961 . S
O149 C98 1.325 . S
O150 Li88 1.961 . S
O150 Li90 1.956 . S
O150 Li91 1.970 . S
O150 C120 1.325 . S
O151 Li89 1.961 . S
O151 Li90 1.970 . S
O151 Li91 1.956 . S
O151 C126 1.325 1_565 S
H152 C94 0.929 . S
H153 C95 0.930 . S
H154 C96 0.930 . S
H155 C97 0.930 . S
H156 C99 0.930 . S
H157 C101 0.929 . S
H158 C102 0.930 . S
H159 C103 0.930 . S
H160 C106 0.930 . S
H161 C109 0.929 . S
H162 C114 0.929 1_545 S
H163 C115 0.930 . S
H164 C122 0.929 . S
H165 C123 0.930 . S
H166 C124 0.930 . S
H167 C125 0.930 . S
H168 C127 0.929 . S
H169 C128 0.930 . S
H170 C129 0.930 . S
H171 C130 0.930 . S
H172 C134 0.929 . S
H173 C136 0.930 . S
H174 C142 0.929 . S
H175 C143 0.930 . S
Li176 N193 1.990 . S
Li176 O236 1.956 . S
Li176 O237 1.970 . S
Li176 O238 1.961 . S
Li177 N201 1.990 . S
Li177 O236 1.970 . S
Li177 O237 1.956 . S
Li177 O239 1.961 . S
Li178 N223 1.990 . S
Li178 O236 1.961 . S
Li178 O238 1.956 . S
Li178 O239 1.970 . S
Li179 N229 1.990 . S
Li179 O237 1.961 . S
Li179 O238 1.970 . S
Li179 O239 1.956 . S
C180 C182 1.348 . S
C180 C183 1.356 . S
C180 O236 1.325 . S
N181 C184 1.314 . S
N181 C185 1.279 . S
C182 C180 1.348 . S
C182 C184 1.353 . S
C182 H240 0.929 . S
C183 C180 1.356 . S
C183 C185 1.358 . S
C183 H241 0.930 . S
C184 N181 1.314 . S
C184 C182 1.353 . S
C184 H242 0.930 . S
C185 N181 1.279 . S
C185 C183 1.358 . S
C185 H243 0.930 . S
C186 C189 1.348 . S
C186 C190 1.356 . S
C186 O237 1.325 1_545 S
C187 N188 1.279 . S
C187 C190 1.358 . S
C187 H244 0.930 . S
N188 C187 1.279 . S
N188 C191 1.314 . S
C189 C186 1.348 . S
C189 C191 1.353 . S
C189 H245 0.929 . S
C190 C186 1.356 . S
C190 C187 1.358 . S
C190 H246 0.930 . S
C191 N188 1.314 . S
C191 C189 1.353 . S
C191 H247 0.930 . S
C192 N193 1.314 . S
C192 C197 1.353 . S
C192 H198 0.930 . S
N193 Li176 1.990 . S
N193 C192 1.314 . S
N193 C195 1.279 . S
C194 C195 1.358 . S
C194 C196 1.356 . S
C194 H248 0.930 . S
C195 N193 1.279 . S
C195 C194 1.358 . S
C195 H199 0.930 . S
C196 C194 1.356 . S
C196 C197 1.348 . S
C197 C192 1.353 . S
C197 C196 1.348 . S
C197 H249 0.929 . S
H198 C192 0.930 . S
H199 C195 0.930 . S
C200 N201 1.314 . S
C200 C202 1.353 . S
C200 H206 0.930 . S
N201 Li177 1.990 . S
N201 C200 1.314 . S
N201 C204 1.279 1_565 S
C202 C200 1.353 . S
C202 C205 1.348 1_565 S
C202 H250 0.929 . S
C203 C204 1.358 . S
C203 C205 1.356 . S
C203 H251 0.930 . S
C204 N201 1.279 1_545 S
C204 C203 1.358 . S
C204 H207 0.930 . S
C205 C202 1.348 1_545 S
C205 C203 1.356 . S
H206 C200 0.930 . S
H207 C204 0.930 . S
C208 C210 1.348 . S
C208 C211 1.356 . S
C208 O238 1.325 . S
N209 C212 1.314 . S
N209 C213 1.279 . S
C210 C208 1.348 . S
C210 C212 1.353 . S
C210 H252 0.929 . S
C211 C208 1.356 . S
C211 C213 1.358 . S
C211 H253 0.930 . S
C212 N209 1.314 . S
C212 C210 1.353 . S
C212 H254 0.930 . S
C213 N209 1.279 . S
C213 C211 1.358 . S
C213 H255 0.930 . S
C214 C215 1.348 . S
C214 C216 1.356 . S
C214 O239 1.325 . S
C215 C214 1.348 . S
C215 C217 1.353 . S
C215 H256 0.929 . S
C216 C214 1.356 . S
C216 C218 1.358 . S
C216 H257 0.930 . S
C217 C215 1.353 . S
C217 N219 1.314 . S
C217 H258 0.930 . S
C218 C216 1.358 . S
C218 N219 1.279 . S
C218 H259 0.930 . S
N219 C217 1.314 . S
N219 C218 1.279 . S
C220 C222 1.353 . S
C220 N223 1.314 . S
C220 H226 0.930 . S
C221 N223 1.279 . S
C221 C224 1.358 . S
C221 H227 0.930 . S
C222 C220 1.353 . S
C222 C225 1.348 . S
C222 H260 0.929 . S
N223 Li178 1.990 . S
N223 C220 1.314 . S
N223 C221 1.279 . S
C224 C221 1.358 . S
C224 C225 1.356 . S
C224 H261 0.930 . S
C225 C222 1.348 . S
C225 C224 1.356 . S
H226 C220 0.930 . S
H227 C221 0.930 . S
C228 N229 1.314 . S
C228 C230 1.353 . S
C228 H234 0.930 . S
N229 Li179 1.990 . S
N229 C228 1.314 . S
N229 C232 1.279 . S
C230 C228 1.353 . S
C230 C233 1.348 . S
C230 H262 0.929 1_565 S
C231 C232 1.358 . S
C231 C233 1.356 . S
C231 H263 0.930 . S
C232 N229 1.279 . S
C232 C231 1.358 . S
C232 H235 0.930 . S
C233 C230 1.348 . S
C233 C231 1.356 . S
H234 C228 0.930 . S
H235 C232 0.930 . S
O236 Li176 1.956 . S
O236 Li177 1.970 . S
O236 Li178 1.961 . S
O236 C180 1.325 . S
O237 Li176 1.970 . S
O237 Li177 1.956 . S
O237 Li179 1.961 . S
O237 C186 1.325 1_565 S
O238 Li176 1.961 . S
O238 Li178 1.956 . S
O238 Li179 1.970 . S
O238 C208 1.325 . S
O239 Li177 1.961 . S
O239 Li178 1.970 . S
O239 Li179 1.956 . S
O239 C214 1.325 . S
H240 C182 0.929 . S
H241 C183 0.930 . S
H242 C184 0.930 . S
H243 C185 0.930 . S
H244 C187 0.930 . S
H245 C189 0.929 . S
H246 C190 0.930 . S
H247 C191 0.930 . S
H248 C194 0.930 . S
H249 C197 0.929 . S
H250 C202 0.929 . S
H251 C203 0.930 . S
H252 C210 0.929 . S
H253 C211 0.930 . S
H254 C212 0.930 . S
H255 C213 0.930 . S
H256 C215 0.929 . S
H257 C216 0.930 . S
H258 C217 0.930 . S
H259 C218 0.930 . S
H260 C222 0.929 . S
H261 C224 0.930 . S
H262 C230 0.929 1_545 S
H263 C231 0.930 . S
Li264 N281 1.990 . S
Li264 O324 1.956 . S
Li264 O325 1.970 . S
Li264 O326 1.961 . S
Li265 N289 1.990 . S
Li265 O324 1.970 . S
Li265 O325 1.956 . S
Li265 O327 1.961 . S
Li266 N311 1.990 . S
Li266 O324 1.961 . S
Li266 O326 1.956 . S
Li266 O327 1.970 . S
Li267 N317 1.990 . S
Li267 O325 1.961 . S
Li267 O326 1.970 . S
Li267 O327 1.956 . S
C268 C270 1.348 . S
C268 C271 1.356 . S
C268 O324 1.325 1_565 S
N269 C272 1.314 . S
N269 C273 1.279 . S
C270 C268 1.348 . S
C270 C272 1.353 . S
C270 H328 0.929 . S
C271 C268 1.356 . S
C271 C273 1.358 . S
C271 H329 0.930 . S
C272 N269 1.314 . S
C272 C270 1.353 . S
C272 H330 0.930 . S
C273 N269 1.279 . S
C273 C271 1.358 . S
C273 H331 0.930 . S
C274 C277 1.348 . S
C274 C278 1.356 . S
C274 O325 1.325 . S
C275 N276 1.279 . S
C275 C278 1.358 . S
C275 H332 0.930 . S
N276 C275 1.279 . S
N276 C279 1.314 . S
C277 C274 1.348 . S
C277 C279 1.353 . S
C277 H333 0.929 . S
C278 C274 1.356 . S
C278 C275 1.358 . S
C278 H334 0.930 . S
C279 N276 1.314 . S
C279 C277 1.353 . S
C279 H335 0.930 . S
C280 N281 1.314 . S
C280 C285 1.353 1_655 S
C280 H286 0.930 . S
N281 Li264 1.990 . S
N281 C280 1.314 . S
N281 C283 1.279 1_545 S
C282 C283 1.358 . S
C282 C284 1.356 . S
C282 H336 0.930 . S
C283 N281 1.279 1_565 S
C283 C282 1.358 . S
C283 H287 0.930 . S
C284 C282 1.356 . S
C284 C285 1.348 1_665 S
C285 C280 1.353 1_455 S
C285 C284 1.348 1_445 S
C285 H337 0.929 . S
H286 C280 0.930 . S
H287 C283 0.930 . S
C288 N289 1.314 . S
C288 C290 1.353 . S
C288 H294 0.930 . S
N289 Li265 1.990 . S
N289 C288 1.314 . S
N289 C292 1.279 . S
C290 C288 1.353 . S
C290 C293 1.348 . S
C290 H338 0.929 . S
C291 C292 1.358 . S
C291 C293 1.356 . S
C291 H339 0.930 . S
C292 N289 1.279 . S
C292 C291 1.358 . S
C292 H295 0.930 . S
C293 C290 1.348 . S
C293 C291 1.356 . S
H294 C288 0.930 . S
H295 C292 0.930 . S
C296 C298 1.348 1_655 S
C296 C299 1.356 1_655 S
C296 O326 1.324 . S
N297 C300 1.314 . S
N297 C301 1.279 . S
C298 C296 1.348 1_455 S
C298 C300 1.353 . S
C298 H340 0.903 1_455 S
C299 C296 1.356 1_455 S
C299 C301 1.358 . S
C299 H341 0.930 . S
C300 N297 1.314 . S
C300 C298 1.353 . S
C300 H342 0.930 . S
C301 N297 1.279 . S
C301 C299 1.358 . S
C301 H343 0.930 . S
C302 C303 1.348 . S
C302 C304 1.356 . S
C302 O327 1.325 . S
C303 C302 1.348 . S
C303 C305 1.353 . S
C303 H344 0.929 . S
C304 C302 1.356 . S
C304 C306 1.358 . S
C304 H345 0.930 . S
C305 C303 1.353 . S
C305 N307 1.314 . S
C305 H346 0.930 . S
C306 C304 1.358 . S
C306 N307 1.279 . S
C306 H347 0.930 . S
N307 C305 1.314 . S
N307 C306 1.279 . S
C308 C310 1.353 . S
C308 N311 1.314 . S
C308 H314 0.930 . S
C309 N311 1.279 . S
C309 C312 1.358 1_655 S
C309 H315 0.930 1_655 S
C310 C308 1.353 . S
C310 C313 1.348 . S
C310 H348 0.929 1_545 S
N311 Li266 1.990 . S
N311 C308 1.314 . S
N311 C309 1.279 . S
C312 C309 1.358 1_455 S
C312 C313 1.356 1_455 S
C312 H349 0.930 . S
C313 C310 1.348 . S
C313 C312 1.356 1_655 S
H314 C308 0.930 . S
H315 C309 0.930 1_455 S
C316 N317 1.314 . S
C316 C318 1.353 . S
C316 H322 0.930 . S
N317 Li267 1.990 . S
N317 C316 1.314 . S
N317 C320 1.279 . S
C318 C316 1.353 . S
C318 C321 1.348 . S
C318 H350 0.929 . S
C319 C320 1.358 . S
C319 C321 1.356 . S
C319 H351 0.930 . S
C320 N317 1.279 . S
C320 C319 1.358 . S
C320 H323 0.930 . S
C321 C318 1.348 . S
C321 C319 1.356 . S
H322 C316 0.930 . S
H323 C320 0.930 . S
O324 Li264 1.956 . S
O324 Li265 1.970 . S
O324 Li266 1.961 . S
O324 C268 1.325 1_545 S
O325 Li264 1.970 . S
O325 Li265 1.956 . S
O325 Li267 1.961 . S
O325 C274 1.325 . S
O326 Li264 1.961 . S
O326 Li266 1.956 . S
O326 Li267 1.970 . S
O326 C296 1.324 . S
O327 Li265 1.961 . S
O327 Li266 1.970 . S
O327 Li267 1.956 . S
O327 C302 1.325 . S
H328 C270 0.929 . S
H329 C271 0.930 . S
H330 C272 0.930 . S
H331 C273 0.930 . S
H332 C275 0.930 . S
H333 C277 0.929 . S
H334 C278 0.930 . S
H335 C279 0.930 . S
H336 C282 0.930 . S
H337 C285 0.929 . S
H338 C290 0.929 . S
H339 C291 0.930 . S
H340 C298 0.903 1_655 S
H341 C299 0.930 . S
H342 C300 0.930 . S
H343 C301 0.930 . S
H344 C303 0.929 . S
H345 C304 0.930 . S
H346 C305 0.930 . S
H347 C306 0.930 . S
H348 C310 0.929 1_565 S
H349 C312 0.930 . S
H350 C318 0.929 . S
H351 C319 0.930 . S
Li352 N369 1.990 . S
Li352 O412 1.956 . S
Li352 O413 1.970 . S
Li352 O414 1.961 . S
Li353 N377 1.990 . S
Li353 O412 1.970 . S
Li353 O413 1.956 . S
Li353 O415 1.961 . S
Li354 N399 1.990 . S
Li354 O412 1.961 . S
Li354 O414 1.956 . S
Li354 O415 1.970 . S
Li355 N405 1.990 . S
Li355 O413 1.961 . S
Li355 O414 1.970 . S
Li355 O415 1.956 . S
C356 C358 1.348 . S
C356 C359 1.356 . S
C356 O412 1.325 . S
N357 C360 1.314 . S
N357 C361 1.279 . S
C358 C356 1.348 . S
C358 C360 1.353 . S
C358 H416 0.929 . S
C359 C356 1.356 . S
C359 C361 1.358 . S
C359 H417 0.930 . S
C360 N357 1.314 . S
C360 C358 1.353 . S
C360 H418 0.930 . S
C361 N357 1.279 . S
C361 C359 1.358 . S
C361 H419 0.930 . S
C362 C365 1.345 1_655 S
C362 C366 1.351 1_655 S
C362 O413 1.332 . S
C363 N364 1.279 . S
C363 C366 1.358 . S
C363 H420 0.930 . S
N364 C363 1.279 . S
N364 C367 1.314 . S
C365 C362 1.345 1_455 S
C365 C367 1.353 . S
C365 H421 0.913 1_455 S
C366 C362 1.351 1_455 S
C366 C363 1.358 . S
C366 H422 0.930 . S
C367 N364 1.314 . S
C367 C365 1.353 . S
C367 H423 0.930 . S
C368 N369 1.314 . S
C368 C373 1.353 . S
C368 H374 0.930 . S
N369 Li352 1.990 . S
N369 C368 1.314 . S
N369 C371 1.279 . S
C370 C371 1.358 . S
C370 C372 1.356 . S
C370 H424 0.930 . S
C371 N369 1.279 . S
C371 C370 1.358 . S
C371 H375 0.930 . S
C372 C370 1.356 . S
C372 C373 1.348 . S
C373 C368 1.353 . S
C373 C372 1.348 . S
C373 H425 0.929 . S
H374 C368 0.930 . S
H375 C371 0.930 . S
C376 N377 1.332 . S
C376 C378 1.341 1_565 S
C376 H382 0.923 1_565 S
N377 Li353 1.990 . S
N377 C376 1.332 . S
N377 C380 1.279 . S
C378 C376 1.341 1_545 S
C378 C381 1.348 . S
C378 H426 0.929 . S
C379 C380 1.358 1_455 S
C379 C381 1.356 1_465 S
C379 H427 0.930 . S
C380 N377 1.279 . S
C380 C379 1.358 1_655 S
C380 H383 0.930 1_655 S
C381 C378 1.348 . S
C381 C379 1.356 1_645 S
H382 C376 0.923 1_545 S
H383 C380 0.930 1_455 S
C384 C386 1.348 . S
C384 C387 1.356 . S
C384 O414 1.325 . S
N385 C388 1.314 . S
N385 C389 1.279 . S
C386 C384 1.348 . S
C386 C388 1.353 . S
C386 H428 0.929 . S
C387 C384 1.356 . S
C387 C389 1.358 . S
C387 H429 0.930 . S
C388 N385 1.314 . S
C388 C386 1.353 . S
C388 H430 0.930 . S
C389 N385 1.279 . S
C389 C387 1.358 . S
C389 H431 0.930 . S
C390 C391 1.348 . S
C390 C392 1.356 . S
C390 O415 1.325 1_545 S
C391 C390 1.348 . S
C391 C393 1.353 . S
C391 H432 0.929 . S
C392 C390 1.356 . S
C392 C394 1.358 . S
C392 H433 0.930 . S
C393 C391 1.353 . S
C393 N395 1.314 . S
C393 H434 0.930 . S
C394 C392 1.358 . S
C394 N395 1.279 . S
C394 H435 0.930 . S
N395 C393 1.314 . S
N395 C394 1.279 . S
C396 C398 1.353 . S
C396 N399 1.314 . S
C396 H402 0.930 . S
C397 N399 1.279 . S
C397 C400 1.358 . S
C397 H403 0.930 . S
C398 C396 1.353 . S
C398 C401 1.348 . S
C398 H436 0.929 . S
N399 Li354 1.990 . S
N399 C396 1.314 . S
N399 C397 1.279 . S
C400 C397 1.358 . S
C400 C401 1.356 . S
C400 H437 0.930 . S
C401 C398 1.348 . S
C401 C400 1.356 . S
H402 C396 0.930 . S
H403 C397 0.930 . S
C404 N405 1.314 . S
C404 C406 1.353 . S
C404 H410 0.930 . S
N405 Li355 1.990 . S
N405 C404 1.314 . S
N405 C408 1.279 . S
C406 C404 1.353 . S
C406 C409 1.348 . S
C406 H438 0.929 1_655 S
C407 C408 1.358 1_545 S
C407 C409 1.356 1_545 S
C407 H439 0.930 . S
C408 N405 1.279 . S
C408 C407 1.358 1_565 S
C408 H411 0.930 1_565 S
C409 C406 1.348 . S
C409 C407 1.356 1_565 S
H410 C404 0.930 . S
H411 C408 0.930 1_545 S
O412 Li352 1.956 . S
O412 Li353 1.970 . S
O412 Li354 1.961 . S
O412 C356 1.325 . S
O413 Li352 1.970 . S
O413 Li353 1.956 . S
O413 Li355 1.961 . S
O413 C362 1.332 . S
O414 Li352 1.961 . S
O414 Li354 1.956 . S
O414 Li355 1.970 . S
O414 C384 1.325 . S
O415 Li353 1.961 . S
O415 Li354 1.970 . S
O415 Li355 1.956 . S
O415 C390 1.325 1_565 S
H416 C358 0.929 . S
H417 C359 0.930 . S
H418 C360 0.930 . S
H419 C361 0.930 . S
H420 C363 0.930 . S
H421 C365 0.913 1_655 S
H422 C366 0.930 . S
H423 C367 0.930 . S
H424 C370 0.930 . S
H425 C373 0.929 . S
H426 C378 0.929 . S
H427 C379 0.930 . S
H428 C386 0.929 . S
H429 C387 0.930 . S
H430 C388 0.930 . S
H431 C389 0.930 . S
H432 C391 0.929 . S
H433 C392 0.930 . S
H434 C393 0.930 . S
H435 C394 0.930 . S
H436 C398 0.929 . S
H437 C400 0.930 . S
H438 C406 0.929 1_455 S
H439 C407 0.930 . S
Li440 N457 1.990 . S
Li440 O500 1.956 . S
Li440 O501 1.970 . S
Li440 O502 1.961 . S
Li441 N465 1.990 . S
Li441 O500 1.970 . S
Li441 O501 1.956 . S
Li441 O503 1.961 . S
Li442 N487 1.990 . S
Li442 O500 1.961 . S
Li442 O502 1.956 . S
Li442 O503 1.970 . S
Li443 N493 1.990 . S
Li443 O501 1.961 . S
Li443 O502 1.970 . S
Li443 O503 1.956 . S
C444 C446 1.348 . S
C444 C447 1.356 . S
C444 O500 1.325 . S
N445 C448 1.314 . S
N445 C449 1.279 . S
C446 C444 1.348 . S
C446 C448 1.353 . S
C446 H504 0.929 . S
C447 C444 1.356 . S
C447 C449 1.358 . S
C447 H505 0.930 . S
C448 N445 1.314 . S
C448 C446 1.353 . S
C448 H506 0.930 . S
C449 N445 1.279 . S
C449 C447 1.358 . S
C449 H507 0.930 . S
C450 C453 1.348 . S
C450 C454 1.356 . S
C450 O501 1.325 . S
C451 N452 1.279 . S
C451 C454 1.358 . S
C451 H508 0.930 . S
N452 C451 1.279 . S
N452 C455 1.314 . S
C453 C450 1.348 . S
C453 C455 1.353 . S
C453 H509 0.929 . S
C454 C450 1.356 . S
C454 C451 1.358 . S
C454 H510 0.930 . S
C455 N452 1.314 . S
C455 C453 1.353 . S
C455 H511 0.930 . S
C456 N457 1.314 . S
C456 C461 1.353 . S
C456 H462 0.930 . S
N457 Li440 1.990 . S
N457 C456 1.314 . S
N457 C459 1.279 . S
C458 C459 1.358 . S
C458 C460 1.356 . S
C458 H512 0.930 . S
C459 N457 1.279 . S
C459 C458 1.358 . S
C459 H463 0.930 . S
C460 C458 1.356 . S
C460 C461 1.348 . S
C461 C456 1.353 . S
C461 C460 1.348 . S
C461 H513 0.929 . S
H462 C456 0.930 . S
H463 C459 0.930 . S
C464 N465 1.332 . S
C464 C466 1.341 1_545 S
C464 H470 0.923 1_545 S
N465 Li441 1.990 . S
N465 C464 1.332 . S
N465 C468 1.279 . S
C466 C464 1.341 1_565 S
C466 C469 1.348 . S
C466 H514 0.929 . S
C467 C468 1.358 . S
C467 C469 1.356 1_545 S
C467 H515 0.930 . S
C468 N465 1.279 . S
C468 C467 1.358 . S
C468 H471 0.930 . S
C469 C466 1.348 . S
C469 C467 1.356 1_565 S
H470 C464 0.923 1_565 S
H471 C468 0.930 . S
C472 C474 1.348 . S
C472 C475 1.356 . S
C472 O502 1.325 . S
N473 C476 1.314 . S
N473 C477 1.279 . S
C474 C472 1.348 . S
C474 C476 1.353 . S
C474 H516 0.929 . S
C475 C472 1.356 . S
C475 C477 1.358 . S
C475 H517 0.930 . S
C476 N473 1.314 . S
C476 C474 1.353 . S
C476 H518 0.930 . S
C477 N473 1.279 . S
C477 C475 1.358 . S
C477 H519 0.930 . S
C478 C479 1.348 . S
C478 C480 1.356 . S
C478 O503 1.325 1_565 S
C479 C478 1.348 . S
C479 C481 1.353 . S
C479 H520 0.929 . S
C480 C478 1.356 . S
C480 C482 1.358 . S
C480 H521 0.930 . S
C481 C479 1.353 . S
C481 N483 1.314 . S
C481 H522 0.930 . S
C482 C480 1.358 . S
C482 N483 1.279 . S
C482 H523 0.930 . S
N483 C481 1.314 . S
N483 C482 1.279 . S
C484 C486 1.353 . S
C484 N487 1.314 . S
C484 H490 0.930 . S
C485 N487 1.279 . S
C485 C488 1.358 . S
C485 H491 0.930 . S
C486 C484 1.353 . S
C486 C489 1.348 . S
C486 H524 0.929 . S
N487 Li442 1.990 . S
N487 C484 1.314 . S
N487 C485 1.279 . S
C488 C485 1.358 . S
C488 C489 1.356 . S
C488 H525 0.930 . S
C489 C486 1.348 . S
C489 C488 1.356 . S
H490 C484 0.930 . S
H491 C485 0.930 . S
C492 N493 1.314 . S
C492 C494 1.353 . S
C492 H498 0.930 . S
N493 Li443 1.990 . S
N493 C492 1.314 . S
N493 C496 1.279 . S
C494 C492 1.353 . S
C494 C497 1.348 . S
C494 H526 0.929 . S
C495 C496 1.358 1_565 S
C495 C497 1.356 1_565 S
C495 H527 0.930 . S
C496 N493 1.279 . S
C496 C495 1.358 1_545 S
C496 H499 0.930 1_545 S
C497 C494 1.348 . S
C497 C495 1.356 1_545 S
H498 C492 0.930 . S
H499 C496 0.930 1_565 S
O500 Li440 1.956 . S
O500 Li441 1.970 . S
O500 Li442 1.961 . S
O500 C444 1.325 . S
O501 Li440 1.970 . S
O501 Li441 1.956 . S
O501 Li443 1.961 . S
O501 C450 1.325 . S
O502 Li440 1.961 . S
O502 Li442 1.956 . S
O502 Li443 1.970 . S
O502 C472 1.325 . S
O503 Li441 1.961 . S
O503 Li442 1.970 . S
O503 Li443 1.956 . S
O503 C478 1.325 1_545 S
H504 C446 0.929 . S
H505 C447 0.930 . S
H506 C448 0.930 . S
H507 C449 0.930 . S
H508 C451 0.930 . S
H509 C453 0.929 . S
H510 C454 0.930 . S
H511 C455 0.930 . S
H512 C458 0.930 . S
H513 C461 0.929 . S
H514 C466 0.929 . S
H515 C467 0.930 . S
H516 C474 0.929 . S
H517 C475 0.930 . S
H518 C476 0.930 . S
H519 C477 0.930 . S
H520 C479 0.929 . S
H521 C480 0.930 . S
H522 C481 0.930 . S
H523 C482 0.930 . S
H524 C486 0.929 . S
H525 C488 0.930 . S
H526 C494 0.929 . S
H527 C495 0.930 . S
Li528 N545 1.990 . S
Li528 O588 1.956 . S
Li528 O589 1.970 . S
Li528 O590 1.961 . S
Li529 N553 1.990 . S
Li529 O588 1.970 . S
Li529 O589 1.956 . S
Li529 O591 1.961 . S
Li530 N575 1.990 . S
Li530 O588 1.961 . S
Li530 O590 1.956 . S
Li530 O591 1.970 . S
Li531 N581 1.990 . S
Li531 O589 1.961 . S
Li531 O590 1.970 . S
Li531 O591 1.956 . S
C532 C534 1.348 . S
C532 C535 1.356 . S
C532 O588 1.325 . S
N533 C536 1.314 . S
N533 C537 1.279 . S
C534 C532 1.348 . S
C534 C536 1.353 . S
C534 H592 0.929 . S
C535 C532 1.356 . S
C535 C537 1.358 . S
C535 H593 0.930 . S
C536 N533 1.314 . S
C536 C534 1.353 . S
C536 H594 0.930 . S
C537 N533 1.279 . S
C537 C535 1.358 . S
C537 H595 0.930 . S
C538 C541 1.348 . S
C538 C542 1.356 . S
C538 O589 1.325 1_565 S
C539 N540 1.279 . S
C539 C542 1.358 . S
C539 H596 0.930 . S
N540 C539 1.279 . S
N540 C543 1.314 . S
C541 C538 1.348 . S
C541 C543 1.353 . S
C541 H597 0.929 . S
C542 C538 1.356 . S
C542 C539 1.358 . S
C542 H598 0.930 . S
C543 N540 1.314 . S
C543 C541 1.353 . S
C543 H599 0.930 . S
C544 N545 1.314 . S
C544 C549 1.353 . S
C544 H550 0.930 . S
N545 Li528 1.990 . S
N545 C544 1.314 . S
N545 C547 1.279 . S
C546 C547 1.358 . S
C546 C548 1.356 . S
C546 H600 0.930 . S
C547 N545 1.279 . S
C547 C546 1.358 . S
C547 H551 0.930 . S
C548 C546 1.356 . S
C548 C549 1.348 . S
C549 C544 1.353 . S
C549 C548 1.348 . S
C549 H601 0.929 . S
H550 C544 0.930 . S
H551 C547 0.930 . S
C552 N553 1.314 . S
C552 C554 1.353 . S
C552 H558 0.930 . S
N553 Li529 1.990 . S
N553 C552 1.314 . S
N553 C556 1.279 . S
C554 C552 1.353 . S
C554 C557 1.348 . S
C554 H602 0.929 . S
C555 C556 1.358 1_565 S
C555 C557 1.356 1_565 S
C555 H603 0.930 . S
C556 N553 1.279 . S
C556 C555 1.358 1_545 S
C556 H559 0.930 1_545 S
C557 C554 1.348 . S
C557 C555 1.356 1_545 S
H558 C552 0.930 . S
H559 C556 0.930 1_565 S
C560 C562 1.348 . S
C560 C563 1.356 . S
C560 O590 1.325 . S
N561 C564 1.314 . S
N561 C565 1.279 . S
C562 C560 1.348 . S
C562 C564 1.353 . S
C562 H604 0.929 . S
C563 C560 1.356 . S
C563 C565 1.358 . S
C563 H605 0.930 . S
C564 N561 1.314 . S
C564 C562 1.353 . S
C564 H606 0.930 . S
C565 N561 1.279 . S
C565 C563 1.358 . S
C565 H607 0.930 . S
C566 C567 1.348 . S
C566 C568 1.356 . S
C566 O591 1.325 . S
C567 C566 1.348 . S
C567 C569 1.353 . S
C567 H608 0.929 . S
C568 C566 1.356 . S
C568 C570 1.358 . S
C568 H609 0.930 . S
C569 C567 1.353 . S
C569 N571 1.314 . S
C569 H610 0.930 . S
C570 C568 1.358 . S
C570 N571 1.279 . S
C570 H611 0.930 . S
N571 C569 1.314 . S
N571 C570 1.279 . S
C572 C574 1.353 . S
C572 N575 1.314 . S
C572 H578 0.930 . S
C573 N575 1.279 . S
C573 C576 1.358 . S
C573 H579 0.930 . S
C574 C572 1.353 . S
C574 C577 1.348 . S
C574 H612 0.929 . S
N575 Li530 1.990 . S
N575 C572 1.314 . S
N575 C573 1.279 . S
C576 C573 1.358 . S
C576 C577 1.356 . S
C576 H613 0.930 . S
C577 C574 1.348 . S
C577 C576 1.356 . S
H578 C572 0.930 . S
H579 C573 0.930 . S
C580 N581 1.332 . S
C580 C582 1.341 1_545 S
C580 H586 0.923 1_545 S
N581 Li531 1.990 . S
N581 C580 1.332 . S
N581 C584 1.279 . S
C582 C580 1.341 1_565 S
C582 C585 1.348 . S
C582 H614 0.929 . S
C583 C584 1.358 . S
C583 C585 1.356 1_545 S
C583 H615 0.930 . S
C584 N581 1.279 . S
C584 C583 1.358 . S
C584 H587 0.930 . S
C585 C582 1.348 . S
C585 C583 1.356 1_565 S
H586 C580 0.923 1_565 S
H587 C584 0.930 . S
O588 Li528 1.956 . S
O588 Li529 1.970 . S
O588 Li530 1.961 . S
O588 C532 1.325 . S
O589 Li528 1.970 . S
O589 Li529 1.956 . S
O589 Li531 1.961 . S
O589 C538 1.325 1_545 S
O590 Li528 1.961 . S
O590 Li530 1.956 . S
O590 Li531 1.970 . S
O590 C560 1.325 . S
O591 Li529 1.961 . S
O591 Li530 1.970 . S
O591 Li531 1.956 . S
O591 C566 1.325 . S
H592 C534 0.929 . S
H593 C535 0.930 . S
H594 C536 0.930 . S
H595 C537 0.930 . S
H596 C539 0.930 . S
H597 C541 0.929 . S
H598 C542 0.930 . S
H599 C543 0.930 . S
H600 C546 0.930 . S
H601 C549 0.929 . S
H602 C554 0.929 . S
H603 C555 0.930 . S
H604 C562 0.929 . S
H605 C563 0.930 . S
H606 C564 0.930 . S
H607 C565 0.930 . S
H608 C567 0.929 . S
H609 C568 0.930 . S
H610 C569 0.930 . S
H611 C570 0.930 . S
H612 C574 0.929 . S
H613 C576 0.930 . S
H614 C582 0.929 . S
H615 C583 0.930 . S
Li616 N633 1.990 . S
Li616 O676 1.956 . S
Li616 O677 1.970 . S
Li616 O678 1.961 . S
Li617 N641 1.990 . S
Li617 O676 1.970 . S
Li617 O677 1.956 . S
Li617 O679 1.961 . S
Li618 N663 1.990 . S
Li618 O676 1.961 . S
Li618 O678 1.956 . S
Li618 O679 1.970 . S
Li619 N669 1.990 . S
Li619 O677 1.961 . S
Li619 O678 1.970 . S
Li619 O679 1.956 . S
C620 C622 1.348 . S
C620 C623 1.356 . S
C620 O676 1.325 1_545 S
N621 C624 1.314 . S
N621 C625 1.279 . S
C622 C620 1.348 . S
C622 C624 1.353 . S
C622 H680 0.929 . S
C623 C620 1.356 . S
C623 C625 1.358 . S
C623 H681 0.930 . S
C624 N621 1.314 . S
C624 C622 1.353 . S
C624 H682 0.930 . S
C625 N621 1.279 . S
C625 C623 1.358 . S
C625 H683 0.930 . S
C626 C629 1.348 . S
C626 C630 1.356 . S
C626 O677 1.325 . S
C627 N628 1.279 . S
C627 C630 1.358 . S
C627 H684 0.930 . S
N628 C627 1.279 . S
N628 C631 1.314 . S
C629 C626 1.348 . S
C629 C631 1.353 . S
C629 H685 0.929 . S
C630 C626 1.356 . S
C630 C627 1.358 . S
C630 H686 0.930 . S
C631 N628 1.314 . S
C631 C629 1.353 . S
C631 H687 0.930 . S
C632 N633 1.314 . S
C632 C637 1.353 . S
C632 H638 0.930 . S
N633 Li616 1.990 . S
N633 C632 1.314 . S
N633 C635 1.279 . S
C634 C635 1.358 1_545 S
C634 C636 1.356 1_545 S
C634 H688 0.930 . S
C635 N633 1.279 . S
C635 C634 1.358 1_565 S
C635 H639 0.930 1_565 S
C636 C634 1.356 1_565 S
C636 C637 1.348 . S
C637 C632 1.353 . S
C637 C636 1.348 . S
C637 H689 0.929 1_455 S
H638 C632 0.930 . S
H639 C635 0.930 1_545 S
C640 N641 1.314 . S
C640 C642 1.353 . S
C640 H646 0.930 . S
N641 Li617 1.990 . S
N641 C640 1.314 . S
N641 C644 1.279 . S
C642 C640 1.353 . S
C642 C645 1.348 . S
C642 H690 0.929 . S
C643 C644 1.358 . S
C643 C645 1.356 . S
C643 H691 0.930 . S
C644 N641 1.279 . S
C644 C643 1.358 . S
C644 H647 0.930 . S
C645 C642 1.348 . S
C645 C643 1.356 . S
H646 C640 0.930 . S
H647 C644 0.930 . S
C648 C650 1.345 1_455 S
C648 C651 1.351 1_455 S
C648 O678 1.332 . S
N649 C652 1.314 . S
N649 C653 1.279 . S
C650 C648 1.345 1_655 S
C650 C652 1.353 . S
C650 H692 0.913 1_655 S
C651 C648 1.351 1_655 S
C651 C653 1.358 . S
C651 H693 0.930 . S
C652 N649 1.314 . S
C652 C650 1.353 . S
C652 H694 0.930 . S
C653 N649 1.279 . S
C653 C651 1.358 . S
C653 H695 0.930 . S
C654 C655 1.348 . S
C654 C656 1.356 . S
C654 O679 1.325 . S
C655 C654 1.348 . S
C655 C657 1.353 . S
C655 H696 0.929 . S
C656 C654 1.356 . S
C656 C658 1.358 . S
C656 H697 0.930 . S
C657 C655 1.353 . S
C657 N659 1.314 . S
C657 H698 0.930 . S
C658 C656 1.358 . S
C658 N659 1.279 . S
C658 H699 0.930 . S
N659 C657 1.314 . S
N659 C658 1.279 . S
C660 C662 1.341 1_565 S
C660 N663 1.332 . S
C660 H666 0.923 1_565 S
C661 N663 1.279 . S
C661 C664 1.358 1_455 S
C661 H667 0.930 1_455 S
C662 C660 1.341 1_545 S
C662 C665 1.348 . S
C662 H700 0.929 . S
N663 Li618 1.990 . S
N663 C660 1.332 . S
N663 C661 1.279 . S
C664 C661 1.358 1_655 S
C664 C665 1.356 1_665 S
C664 H701 0.930 . S
C665 C662 1.348 . S
C665 C664 1.356 1_445 S
H666 C660 0.923 1_545 S
H667 C661 0.930 1_655 S
C668 N669 1.314 . S
C668 C670 1.353 . S
C668 H674 0.930 . S
N669 Li619 1.990 . S
N669 C668 1.314 . S
N669 C672 1.279 . S
C670 C668 1.353 . S
C670 C673 1.348 . S
C670 H702 0.929 . S
C671 C672 1.358 . S
C671 C673 1.356 . S
C671 H703 0.930 . S
C672 N669 1.279 . S
C672 C671 1.358 . S
C672 H675 0.930 . S
C673 C670 1.348 . S
C673 C671 1.356 . S
H674 C668 0.930 . S
H675 C672 0.930 . S
O676 Li616 1.956 . S
O676 Li617 1.970 . S
O676 Li618 1.961 . S
O676 C620 1.325 1_565 S
O677 Li616 1.970 . S
O677 Li617 1.956 . S
O677 Li619 1.961 . S
O677 C626 1.325 . S
O678 Li616 1.961 . S
O678 Li618 1.956 . S
O678 Li619 1.970 . S
O678 C648 1.332 . S
O679 Li617 1.961 . S
O679 Li618 1.970 . S
O679 Li619 1.956 . S
O679 C654 1.325 . S
H680 C622 0.929 . S
H681 C623 0.930 . S
H682 C624 0.930 . S
H683 C625 0.930 . S
H684 C627 0.930 . S
H685 C629 0.929 . S
H686 C630 0.930 . S
H687 C631 0.930 . S
H688 C634 0.930 . S
H689 C637 0.929 1_655 S
H690 C642 0.929 . S
H691 C643 0.930 . S
H692 C650 0.913 1_455 S
H693 C651 0.930 . S
H694 C652 0.930 . S
H695 C653 0.930 . S
H696 C655 0.929 . S
H697 C656 0.930 . S
H698 C657 0.930 . S
H699 C658 0.930 . S
H700 C662 0.929 . S
H701 C664 0.930 . S
H702 C670 0.929 . S
H703 C671 0.930 . S
Li704 N721 1.990 . S
Li704 O764 1.956 . S
Li704 O765 1.970 . S
Li704 O766 1.961 . S
Li705 N729 1.990 . S
Li705 O764 1.970 . S
Li705 O765 1.956 . S
Li705 O767 1.961 . S
Li706 N751 1.990 . S
Li706 O764 1.961 . S
Li706 O766 1.956 . S
Li706 O767 1.970 . S
Li707 N757 1.990 . S
Li707 O765 1.961 . S
Li707 O766 1.970 . S
Li707 O767 1.956 . S
C708 C710 1.348 . S
C708 C711 1.356 . S
C708 O764 1.325 . S
N709 C712 1.314 . S
N709 C713 1.279 . S
C710 C708 1.348 . S
C710 C712 1.353 . S
C710 H768 0.929 . S
C711 C708 1.356 . S
C711 C713 1.358 . S
C711 H769 0.930 . S
C712 N709 1.314 . S
C712 C710 1.353 . S
C712 H770 0.930 . S
C713 N709 1.279 . S
C713 C711 1.358 . S
C713 H771 0.930 . S
C714 C717 1.348 . S
C714 C718 1.356 . S
C714 O765 1.325 . S
C715 N716 1.279 . S
C715 C718 1.358 . S
C715 H772 0.930 . S
N716 C715 1.279 . S
N716 C719 1.314 . S
C717 C714 1.348 . S
C717 C719 1.353 . S
C717 H773 0.929 . S
C718 C714 1.356 . S
C718 C715 1.358 . S
C718 H774 0.930 . S
C719 N716 1.314 . S
C719 C717 1.353 . S
C719 H775 0.930 . S
C720 N721 1.314 . S
C720 C725 1.353 . S
C720 H726 0.930 . S
N721 Li704 1.990 . S
N721 C720 1.314 . S
N721 C723 1.279 . S
C722 C723 1.358 . S
C722 C724 1.356 . S
C722 H776 0.930 . S
C723 N721 1.279 . S
C723 C722 1.358 . S
C723 H727 0.930 . S
C724 C722 1.356 . S
C724 C725 1.348 . S
C725 C720 1.353 . S
C725 C724 1.348 . S
C725 H777 0.929 . S
H726 C720 0.930 . S
H727 C723 0.930 . S
C728 N729 1.314 . S
C728 C730 1.353 . S
C728 H734 0.930 . S
N729 Li705 1.990 . S
N729 C728 1.314 . S
N729 C732 1.279 . S
C730 C728 1.353 . S
C730 C733 1.348 . S
C730 H778 0.929 . S
C731 C732 1.358 . S
C731 C733 1.356 . S
C731 H779 0.930 . S
C732 N729 1.279 . S
C732 C731 1.358 . S
C732 H735 0.930 . S
C733 C730 1.348 . S
C733 C731 1.356 . S
H734 C728 0.930 . S
H735 C732 0.930 . S
C736 C738 1.348 . S
C736 C739 1.356 . S
C736 O766 1.325 . S
N737 C740 1.314 . S
N737 C741 1.279 . S
C738 C736 1.348 . S
C738 C740 1.353 . S
C738 H780 0.929 . S
C739 C736 1.356 . S
C739 C741 1.358 . S
C739 H781 0.930 . S
C740 N737 1.314 . S
C740 C738 1.353 . S
C740 H782 0.930 . S
C741 N737 1.279 . S
C741 C739 1.358 . S
C741 H783 0.930 . S
C742 C743 1.348 . S
C742 C744 1.356 . S
C742 O767 1.325 . S
C743 C742 1.348 . S
C743 C745 1.353 . S
C743 H784 0.929 . S
C744 C742 1.356 . S
C744 C746 1.358 . S
C744 H785 0.930 . S
C745 C743 1.353 . S
C745 N747 1.314 . S
C745 H786 0.930 . S
C746 C744 1.358 . S
C746 N747 1.279 . S
C746 H787 0.930 . S
N747 C745 1.314 . S
N747 C746 1.279 . S
C748 C750 1.353 . S
C748 N751 1.314 . S
C748 H754 0.930 . S
C749 N751 1.279 . S
C749 C752 1.358 . S
C749 H755 0.930 . S
C750 C748 1.353 . S
C750 C753 1.348 . S
C750 H788 0.929 . S
N751 Li706 1.990 . S
N751 C748 1.314 . S
N751 C749 1.279 . S
C752 C749 1.358 . S
C752 C753 1.356 . S
C752 H789 0.930 . S
C753 C750 1.348 . S
C753 C752 1.356 . S
H754 C748 0.930 . S
H755 C749 0.930 . S
C756 N757 1.314 . S
C756 C758 1.353 . S
C756 H762 0.930 . S
N757 Li707 1.990 . S
N757 C756 1.314 . S
N757 C760 1.279 . S
C758 C756 1.353 . S
C758 C761 1.348 . S
C758 H790 0.929 . S
C759 C760 1.358 . S
C759 C761 1.356 . S
C759 H791 0.930 . S
C760 N757 1.279 . S
C760 C759 1.358 . S
C760 H763 0.930 . S
C761 C758 1.348 . S
C761 C759 1.356 . S
H762 C756 0.930 . S
H763 C760 0.930 . S
O764 Li704 1.956 . S
O764 Li705 1.970 . S
O764 Li706 1.961 . S
O764 C708 1.325 . S
O765 Li704 1.970 . S
O765 Li705 1.956 . S
O765 Li707 1.961 . S
O765 C714 1.325 . S
O766 Li704 1.961 . S
O766 Li706 1.956 . S
O766 Li707 1.970 . S
O766 C736 1.325 . S
O767 Li705 1.961 . S
O767 Li706 1.970 . S
O767 Li707 1.956 . S
O767 C742 1.325 . S
H768 C710 0.929 . S
H769 C711 0.930 . S
H770 C712 0.930 . S
H771 C713 0.930 . S
H772 C715 0.930 . S
H773 C717 0.929 . S
H774 C718 0.930 . S
H775 C719 0.930 . S
H776 C722 0.930 . S
H777 C725 0.929 . S
H778 C730 0.929 . S
H779 C731 0.930 . S
H780 C738 0.929 . S
H781 C739 0.930 . S
H782 C740 0.930 . S
H783 C741 0.930 . S
H784 C743 0.929 . S
H785 C744 0.930 . S
H786 C745 0.930 . S
H787 C746 0.930 . S
H788 C750 0.929 . S
H789 C752 0.930 . S
H790 C758 0.929 . S
H791 C759 0.930 . S
Li792 N809 1.990 . S
Li792 O852 1.956 . S
Li792 O853 1.970 . S
Li792 O854 1.961 . S
Li793 N817 1.990 . S
Li793 O852 1.970 . S
Li793 O853 1.956 . S
Li793 O855 1.961 . S
Li794 N839 1.990 . S
Li794 O852 1.961 . S
Li794 O854 1.956 . S
Li794 O855 1.970 . S
Li795 N845 1.990 . S
Li795 O853 1.961 . S
Li795 O854 1.970 . S
Li795 O855 1.956 . S
C796 C798 1.348 . S
C796 C799 1.356 . S
C796 O852 1.325 . S
N797 C800 1.314 . S
N797 C801 1.279 . S
C798 C796 1.348 . S
C798 C800 1.353 . S
C798 H856 0.929 . S
C799 C796 1.356 . S
C799 C801 1.358 . S
C799 H857 0.930 . S
C800 N797 1.314 . S
C800 C798 1.353 . S
C800 H858 0.930 . S
C801 N797 1.279 . S
C801 C799 1.358 . S
C801 H859 0.930 . S
C802 C805 1.348 1_655 S
C802 C806 1.356 1_655 S
C802 O853 1.324 . S
C803 N804 1.279 . S
C803 C806 1.358 . S
C803 H860 0.930 . S
N804 C803 1.279 . S
N804 C807 1.314 . S
C805 C802 1.348 1_455 S
C805 C807 1.353 . S
C805 H861 0.903 1_455 S
C806 C802 1.356 1_455 S
C806 C803 1.358 . S
C806 H862 0.930 . S
C807 N804 1.314 . S
C807 C805 1.353 . S
C807 H863 0.930 . S
C808 N809 1.314 . S
C808 C813 1.353 . S
C808 H814 0.930 . S
N809 Li792 1.990 . S
N809 C808 1.314 . S
N809 C811 1.279 . S
C810 C811 1.358 . S
C810 C812 1.356 . S
C810 H864 0.930 . S
C811 N809 1.279 . S
C811 C810 1.358 . S
C811 H815 0.930 . S
C812 C810 1.356 . S
C812 C813 1.348 . S
C813 C808 1.353 . S
C813 C812 1.348 . S
C813 H865 0.929 . S
H814 C808 0.930 . S
H815 C811 0.930 . S
C816 N817 1.314 . S
C816 C818 1.353 . S
C816 H822 0.930 . S
N817 Li793 1.990 . S
N817 C816 1.314 . S
N817 C820 1.279 . S
C818 C816 1.353 . S
C818 C821 1.348 . S
C818 H866 0.929 . S
C819 C820 1.358 1_455 S
C819 C821 1.356 1_455 S
C819 H867 0.930 . S
C820 N817 1.279 . S
C820 C819 1.358 1_655 S
C820 H823 0.930 1_655 S
C821 C818 1.348 . S
C821 C819 1.356 1_655 S
H822 C816 0.930 . S
H823 C820 0.930 1_455 S
C824 C826 1.348 . S
C824 C827 1.356 . S
C824 O854 1.325 . S
N825 C828 1.314 . S
N825 C829 1.279 . S
C826 C824 1.348 . S
C826 C828 1.353 . S
C826 H868 0.929 . S
C827 C824 1.356 . S
C827 C829 1.358 . S
C827 H869 0.930 . S
C828 N825 1.314 . S
C828 C826 1.353 . S
C828 H870 0.930 . S
C829 N825 1.279 . S
C829 C827 1.358 . S
C829 H871 0.930 . S
C830 C831 1.348 . S
C830 C832 1.356 . S
C830 O855 1.325 . S
C831 C830 1.348 . S
C831 C833 1.353 . S
C831 H872 0.929 . S
C832 C830 1.356 . S
C832 C834 1.358 . S
C832 H873 0.930 . S
C833 C831 1.353 . S
C833 N835 1.314 . S
C833 H874 0.930 . S
C834 C832 1.358 . S
C834 N835 1.279 . S
C834 H875 0.930 . S
N835 C833 1.314 . S
N835 C834 1.279 . S
C836 C838 1.353 . S
C836 N839 1.314 . S
C836 H842 0.930 . S
C837 N839 1.279 . S
C837 C840 1.358 . S
C837 H843 0.930 . S
C838 C836 1.353 . S
C838 C841 1.348 . S
C838 H876 0.929 . S
N839 Li794 1.990 . S
N839 C836 1.314 . S
N839 C837 1.279 . S
C840 C837 1.358 . S
C840 C841 1.356 . S
C840 H877 0.930 . S
C841 C838 1.348 . S
C841 C840 1.356 . S
H842 C836 0.930 . S
H843 C837 0.930 . S
C844 N845 1.314 . S
C844 C846 1.353 1_655 S
C844 H850 0.930 . S
N845 Li795 1.990 . S
N845 C844 1.314 . S
N845 C848 1.279 . S
C846 C844 1.353 1_455 S
C846 C849 1.348 1_455 S
C846 H878 0.929 . S
C847 C848 1.358 . S
C847 C849 1.356 . S
C847 H879 0.930 . S
C848 N845 1.279 . S
C848 C847 1.358 . S
C848 H851 0.930 . S
C849 C846 1.348 1_655 S
C849 C847 1.356 . S
H850 C844 0.930 . S
H851 C848 0.930 . S
O852 Li792 1.956 . S
O852 Li793 1.970 . S
O852 Li794 1.961 . S
O852 C796 1.325 . S
O853 Li792 1.970 . S
O853 Li793 1.956 . S
O853 Li795 1.961 . S
O853 C802 1.324 . S
O854 Li792 1.961 . S
O854 Li794 1.956 . S
O854 Li795 1.970 . S
O854 C824 1.325 . S
O855 Li793 1.961 . S
O855 Li794 1.970 . S
O855 Li795 1.956 . S
O855 C830 1.325 . S
H856 C798 0.929 . S
H857 C799 0.930 . S
H858 C800 0.930 . S
H859 C801 0.930 . S
H860 C803 0.930 . S
H861 C805 0.903 1_655 S
H862 C806 0.930 . S
H863 C807 0.930 . S
H864 C810 0.930 . S
H865 C813 0.929 . S
H866 C818 0.929 . S
H867 C819 0.930 . S
H868 C826 0.929 . S
H869 C827 0.930 . S
H870 C828 0.930 . S
H871 C829 0.930 . S
H872 C831 0.929 . S
H873 C832 0.930 . S
H874 C833 0.930 . S
H875 C834 0.930 . S
H876 C838 0.929 . S
H877 C840 0.930 . S
H878 C846 0.929 . S
H879 C847 0.930 . S
Li880 N897 1.990 . S
Li880 O940 1.956 . S
Li880 O941 1.970 . S
Li880 O942 1.961 . S
Li881 N905 1.990 . S
Li881 O940 1.970 . S
Li881 O941 1.956 . S
Li881 O943 1.961 . S
Li882 N927 1.990 . S
Li882 O940 1.961 . S
Li882 O942 1.956 . S
Li882 O943 1.970 . S
Li883 N933 1.990 . S
Li883 O941 1.961 . S
Li883 O942 1.970 . S
Li883 O943 1.956 . S
C884 C886 1.348 . S
C884 C887 1.356 . S
C884 O940 1.325 . S
N885 C888 1.314 . S
N885 C889 1.279 . S
C886 C884 1.348 . S
C886 C888 1.353 . S
C886 H944 0.929 . S
C887 C884 1.356 . S
C887 C889 1.358 . S
C887 H945 0.930 . S
C888 N885 1.314 . S
C888 C886 1.353 . S
C888 H946 0.930 . S
C889 N885 1.279 . S
C889 C887 1.358 . S
C889 H947 0.930 . S
C890 C893 1.348 . S
C890 C894 1.356 . S
C890 O941 1.325 . S
C891 N892 1.279 . S
C891 C894 1.358 . S
C891 H948 0.930 . S
N892 C891 1.279 . S
N892 C895 1.314 . S
C893 C890 1.348 . S
C893 C895 1.353 . S
C893 H949 0.929 . S
C894 C890 1.356 . S
C894 C891 1.358 . S
C894 H950 0.930 . S
C895 N892 1.314 . S
C895 C893 1.353 . S
C895 H951 0.930 . S
C896 N897 1.314 . S
C896 C901 1.353 1_455 S
C896 H902 0.930 . S
N897 Li880 1.990 . S
N897 C896 1.314 . S
N897 C899 1.279 . S
C898 C899 1.358 . S
C898 C900 1.356 . S
C898 H952 0.930 . S
C899 N897 1.279 . S
C899 C898 1.358 . S
C899 H903 0.930 . S
C900 C898 1.356 . S
C900 C901 1.348 1_455 S
C901 C896 1.353 1_655 S
C901 C900 1.348 1_655 S
C901 H953 0.929 . S
H902 C896 0.930 . S
H903 C899 0.930 . S
C904 N905 1.314 . S
C904 C906 1.353 . S
C904 H910 0.930 . S
N905 Li881 1.990 . S
N905 C904 1.314 . S
N905 C908 1.279 . S
C906 C904 1.353 . S
C906 C909 1.348 . S
C906 H954 0.929 . S
C907 C908 1.358 . S
C907 C909 1.356 . S
C907 H955 0.930 . S
C908 N905 1.279 . S
C908 C907 1.358 . S
C908 H911 0.930 . S
C909 C906 1.348 . S
C909 C907 1.356 . S
H910 C904 0.930 . S
H911 C908 0.930 . S
C912 C914 1.348 1_455 S
C912 C915 1.356 1_455 S
C912 O942 1.324 . S
N913 C916 1.314 . S
N913 C917 1.279 . S
C914 C912 1.348 1_655 S
C914 C916 1.353 . S
C914 H956 0.903 1_655 S
C915 C912 1.356 1_655 S
C915 C917 1.358 . S
C915 H957 0.930 . S
C916 N913 1.314 . S
C916 C914 1.353 . S
C916 H958 0.930 . S
C917 N913 1.279 . S
C917 C915 1.358 . S
C917 H959 0.930 . S
C918 C919 1.348 . S
C918 C920 1.356 . S
C918 O943 1.325 . S
C919 C918 1.348 . S
C919 C921 1.353 . S
C919 H960 0.929 . S
C920 C918 1.356 . S
C920 C922 1.358 . S
C920 H961 0.930 . S
C921 C919 1.353 . S
C921 N923 1.314 . S
C921 H962 0.930 . S
C922 C920 1.358 . S
C922 N923 1.279 . S
C922 H963 0.930 . S
N923 C921 1.314 . S
N923 C922 1.279 . S
C924 C926 1.353 . S
C924 N927 1.314 . S
C924 H930 0.930 . S
C925 N927 1.279 . S
C925 C928 1.358 1_455 S
C925 H931 0.930 1_455 S
C926 C924 1.353 . S
C926 C929 1.348 . S
C926 H964 0.929 . S
N927 Li882 1.990 . S
N927 C924 1.314 . S
N927 C925 1.279 . S
C928 C925 1.358 1_655 S
C928 C929 1.356 1_655 S
C928 H965 0.930 . S
C929 C926 1.348 . S
C929 C928 1.356 1_455 S
H930 C924 0.930 . S
H931 C925 0.930 1_655 S
C932 N933 1.314 . S
C932 C934 1.353 . S
C932 H938 0.930 . S
N933 Li883 1.990 . S
N933 C932 1.314 . S
N933 C936 1.279 . S
C934 C932 1.353 . S
C934 C937 1.348 . S
C934 H966 0.929 . S
C935 C936 1.358 . S
C935 C937 1.356 . S
C935 H967 0.930 . S
C936 N933 1.279 . S
C936 C935 1.358 . S
C936 H939 0.930 . S
C937 C934 1.348 . S
C937 C935 1.356 . S
H938 C932 0.930 . S
H939 C936 0.930 . S
O940 Li880 1.956 . S
O940 Li881 1.970 . S
O940 Li882 1.961 . S
O940 C884 1.325 . S
O941 Li880 1.970 . S
O941 Li881 1.956 . S
O941 Li883 1.961 . S
O941 C890 1.325 . S
O942 Li880 1.961 . S
O942 Li882 1.956 . S
O942 Li883 1.970 . S
O942 C912 1.324 . S
O943 Li881 1.961 . S
O943 Li882 1.970 . S
O943 Li883 1.956 . S
O943 C918 1.325 . S
H944 C886 0.929 . S
H945 C887 0.930 . S
H946 C888 0.930 . S
H947 C889 0.930 . S
H948 C891 0.930 . S
H949 C893 0.929 . S
H950 C894 0.930 . S
H951 C895 0.930 . S
H952 C898 0.930 . S
H953 C901 0.929 . S
H954 C906 0.929 . S
H955 C907 0.930 . S
H956 C914 0.903 1_455 S
H957 C915 0.930 . S
H958 C916 0.930 . S
H959 C917 0.930 . S
H960 C919 0.929 . S
H961 C920 0.930 . S
H962 C921 0.930 . S
H963 C922 0.930 . S
H964 C926 0.929 . S
H965 C928 0.930 . S
H966 C934 0.929 . S
H967 C935 0.930 . S
Li968 N985 1.990 . S
Li968 O1028 1.956 . S
Li968 O1029 1.970 . S
Li968 O1030 1.961 . S
Li969 N993 1.990 . S
Li969 O1028 1.970 . S
Li969 O1029 1.956 . S
Li969 O1031 1.961 . S
Li970 N1015 1.990 . S
Li970 O1028 1.961 . S
Li970 O1030 1.956 . S
Li970 O1031 1.970 . S
Li971 N1021 1.990 . S
Li971 O1029 1.961 . S
Li971 O1030 1.970 . S
Li971 O1031 1.956 . S
C972 C974 1.348 . S
C972 C975 1.356 . S
C972 O1028 1.325 . S
N973 C976 1.314 . S
N973 C977 1.279 . S
C974 C972 1.348 . S
C974 C976 1.353 . S
C974 H1032 0.929 . S
C975 C972 1.356 . S
C975 C977 1.358 . S
C975 H1033 0.930 . S
C976 N973 1.314 . S
C976 C974 1.353 . S
C976 H1034 0.930 . S
C977 N973 1.279 . S
C977 C975 1.358 . S
C977 H1035 0.930 . S
C978 C981 1.348 . S
C978 C982 1.356 . S
C978 O1029 1.325 . S
C979 N980 1.279 . S
C979 C982 1.358 . S
C979 H1036 0.930 . S
N980 C979 1.279 . S
N980 C983 1.314 . S
C981 C978 1.348 . S
C981 C983 1.353 . S
C981 H1037 0.929 . S
C982 C978 1.356 . S
C982 C979 1.358 . S
C982 H1038 0.930 . S
C983 N980 1.314 . S
C983 C981 1.353 . S
C983 H1039 0.930 . S
C984 N985 1.314 . S
C984 C989 1.353 . S
C984 H990 0.930 . S
N985 Li968 1.990 . S
N985 C984 1.314 . S
N985 C987 1.279 . S
C986 C987 1.358 . S
C986 C988 1.356 . S
C986 H1040 0.930 . S
C987 N985 1.279 . S
C987 C986 1.358 . S
C987 H991 0.930 . S
C988 C986 1.356 . S
C988 C989 1.348 . S
C989 C984 1.353 . S
C989 C988 1.348 . S
C989 H1041 0.929 . S
H990 C984 0.930 . S
H991 C987 0.930 . S
C992 N993 1.314 . S
C992 C994 1.353 . S
C992 H998 0.930 . S
N993 Li969 1.990 . S
N993 C992 1.314 . S
N993 C996 1.279 . S
C994 C992 1.353 . S
C994 C997 1.348 . S
C994 H1042 0.929 . S
C995 C996 1.358 . S
C995 C997 1.356 . S
C995 H1043 0.930 . S
C996 N993 1.279 . S
C996 C995 1.358 . S
C996 H999 0.930 . S
C997 C994 1.348 . S
C997 C995 1.356 . S
H998 C992 0.930 . S
H999 C996 0.930 . S
C1000 C1002 1.348 . S
C1000 C1003 1.356 . S
C1000 O1030 1.325 . S
N1001 C1004 1.314 . S
N1001 C1005 1.279 . S
C1002 C1000 1.348 . S
C1002 C1004 1.353 . S
C1002 H1044 0.929 . S
C1003 C1000 1.356 . S
C1003 C1005 1.358 . S
C1003 H1045 0.930 . S
C1004 N1001 1.314 . S
C1004 C1002 1.353 . S
C1004 H1046 0.930 . S
C1005 N1001 1.279 . S
C1005 C1003 1.358 . S
C1005 H1047 0.930 . S
C1006 C1007 1.348 . S
C1006 C1008 1.356 . S
C1006 O1031 1.325 . S
C1007 C1006 1.348 . S
C1007 C1009 1.353 . S
C1007 H1048 0.929 . S
C1008 C1006 1.356 . S
C1008 C1010 1.358 . S
C1008 H1049 0.930 . S
C1009 C1007 1.353 . S
C1009 N1011 1.314 . S
C1009 H1050 0.930 . S
C1010 C1008 1.358 . S
C1010 N1011 1.279 . S
C1010 H1051 0.930 . S
N1011 C1009 1.314 . S
N1011 C1010 1.279 . S
C1012 C1014 1.353 . S
C1012 N1015 1.314 . S
C1012 H1018 0.930 . S
C1013 N1015 1.279 . S
C1013 C1016 1.358 . S
C1013 H1019 0.930 . S
C1014 C1012 1.353 . S
C1014 C1017 1.348 . S
C1014 H1052 0.929 . S
N1015 Li970 1.990 . S
N1015 C1012 1.314 . S
N1015 C1013 1.279 . S
C1016 C1013 1.358 . S
C1016 C1017 1.356 . S
C1016 H1053 0.930 . S
C1017 C1014 1.348 . S
C1017 C1016 1.356 . S
H1018 C1012 0.930 . S
H1019 C1013 0.930 . S
C1020 N1021 1.314 . S
C1020 C1022 1.353 . S
C1020 H1026 0.930 . S
N1021 Li971 1.990 . S
N1021 C1020 1.314 . S
N1021 C1024 1.279 . S
C1022 C1020 1.353 . S
C1022 C1025 1.348 . S
C1022 H1054 0.929 . S
C1023 C1024 1.358 . S
C1023 C1025 1.356 . S
C1023 H1055 0.930 . S
C1024 N1021 1.279 . S
C1024 C1023 1.358 . S
C1024 H1027 0.930 . S
C1025 C1022 1.348 . S
C1025 C1023 1.356 . S
H1026 C1020 0.930 . S
H1027 C1024 0.930 . S
O1028 Li968 1.956 . S
O1028 Li969 1.970 . S
O1028 Li970 1.961 . S
O1028 C972 1.325 . S
O1029 Li968 1.970 . S
O1029 Li969 1.956 . S
O1029 Li971 1.961 . S
O1029 C978 1.325 . S
O1030 Li968 1.961 . S
O1030 Li970 1.956 . S
O1030 Li971 1.970 . S
O1030 C1000 1.325 . S
O1031 Li969 1.961 . S
O1031 Li970 1.970 . S
O1031 Li971 1.956 . S
O1031 C1006 1.325 . S
H1032 C974 0.929 . S
H1033 C975 0.930 . S
H1034 C976 0.930 . S
H1035 C977 0.930 . S
H1036 C979 0.930 . S
H1037 C981 0.929 . S
H1038 C982 0.930 . S
H1039 C983 0.930 . S
H1040 C986 0.930 . S
H1041 C989 0.929 . S
H1042 C994 0.929 . S
H1043 C995 0.930 . S
H1044 C1002 0.929 . S
H1045 C1003 0.930 . S
H1046 C1004 0.930 . S
H1047 C1005 0.930 . S
H1048 C1007 0.929 . S
H1049 C1008 0.930 . S
H1050 C1009 0.930 . S
H1051 C1010 0.930 . S
H1052 C1014 0.929 . S
H1053 C1016 0.930 . S
H1054 C1022 0.929 . S
H1055 C1023 0.930 . S
Li1056 N1073 1.990 . S
Li1056 O1116 1.956 . S
Li1056 O1117 1.970 . S
Li1056 O1118 1.961 . S
Li1057 N1081 1.990 . S
Li1057 O1116 1.970 . S
Li1057 O1117 1.956 . S
Li1057 O1119 1.961 . S
Li1058 N1103 1.990 . S
Li1058 O1116 1.961 . S
Li1058 O1118 1.956 . S
Li1058 O1119 1.970 . S
Li1059 N1109 1.990 . S
Li1059 O1117 1.961 . S
Li1059 O1118 1.970 . S
Li1059 O1119 1.956 . S
C1060 C1062 1.348 . S
C1060 C1063 1.356 . S
C1060 O1116 1.325 . S
N1061 C1064 1.314 . S
N1061 C1065 1.279 . S
C1062 C1060 1.348 . S
C1062 C1064 1.353 . S
C1062 H1120 0.929 . S
C1063 C1060 1.356 . S
C1063 C1065 1.358 . S
C1063 H1121 0.930 . S
C1064 N1061 1.314 . S
C1064 C1062 1.353 . S
C1064 H1122 0.930 . S
C1065 N1061 1.279 . S
C1065 C1063 1.358 . S
C1065 H1123 0.930 . S
C1066 C1069 1.348 . S
C1066 C1070 1.356 . S
C1066 O1117 1.325 . S
C1067 N1068 1.279 . S
C1067 C1070 1.358 . S
C1067 H1124 0.930 . S
N1068 C1067 1.279 . S
N1068 C1071 1.314 . S
C1069 C1066 1.348 . S
C1069 C1071 1.353 . S
C1069 H1125 0.929 . S
C1070 C1066 1.356 . S
C1070 C1067 1.358 . S
C1070 H1126 0.930 . S
C1071 N1068 1.314 . S
C1071 C1069 1.353 . S
C1071 H1127 0.930 . S
C1072 N1073 1.314 . S
C1072 C1077 1.353 . S
C1072 H1078 0.930 . S
N1073 Li1056 1.990 . S
N1073 C1072 1.314 . S
N1073 C1075 1.279 . S
C1074 C1075 1.358 . S
C1074 C1076 1.356 . S
C1074 H1128 0.930 . S
C1075 N1073 1.279 . S
C1075 C1074 1.358 . S
C1075 H1079 0.930 . S
C1076 C1074 1.356 . S
C1076 C1077 1.348 . S
C1077 C1072 1.353 . S
C1077 C1076 1.348 . S
C1077 H1129 0.929 . S
H1078 C1072 0.930 . S
H1079 C1075 0.930 . S
C1080 N1081 1.314 . S
C1080 C1082 1.353 . S
C1080 H1086 0.930 . S
N1081 Li1057 1.990 . S
N1081 C1080 1.314 . S
N1081 C1084 1.279 . S
C1082 C1080 1.353 . S
C1082 C1085 1.348 . S
C1082 H1130 0.929 . S
C1083 C1084 1.358 . S
C1083 C1085 1.356 . S
C1083 H1131 0.930 . S
C1084 N1081 1.279 . S
C1084 C1083 1.358 . S
C1084 H1087 0.930 . S
C1085 C1082 1.348 . S
C1085 C1083 1.356 . S
H1086 C1080 0.930 . S
H1087 C1084 0.930 . S
C1088 C1090 1.348 . S
C1088 C1091 1.356 . S
C1088 O1118 1.325 . S
N1089 C1092 1.314 . S
N1089 C1093 1.279 . S
C1090 C1088 1.348 . S
C1090 C1092 1.353 . S
C1090 H1132 0.929 . S
C1091 C1088 1.356 . S
C1091 C1093 1.358 . S
C1091 H1133 0.930 . S
C1092 N1089 1.314 . S
C1092 C1090 1.353 . S
C1092 H1134 0.930 . S
C1093 N1089 1.279 . S
C1093 C1091 1.358 . S
C1093 H1135 0.930 . S
C1094 C1095 1.348 . S
C1094 C1096 1.356 . S
C1094 O1119 1.325 . S
C1095 C1094 1.348 . S
C1095 C1097 1.353 . S
C1095 H1136 0.929 . S
C1096 C1094 1.356 . S
C1096 C1098 1.358 . S
C1096 H1137 0.930 . S
C1097 C1095 1.353 . S
C1097 N1099 1.314 . S
C1097 H1138 0.930 . S
C1098 C1096 1.358 . S
C1098 N1099 1.279 . S
C1098 H1139 0.930 . S
N1099 C1097 1.314 . S
N1099 C1098 1.279 . S
C1100 C1102 1.353 . S
C1100 N1103 1.314 . S
C1100 H1106 0.930 . S
C1101 N1103 1.279 . S
C1101 C1104 1.358 . S
C1101 H1107 0.930 . S
C1102 C1100 1.353 . S
C1102 C1105 1.348 . S
C1102 H1140 0.929 . S
N1103 Li1058 1.990 . S
N1103 C1100 1.314 . S
N1103 C1101 1.279 . S
C1104 C1101 1.358 . S
C1104 C1105 1.356 . S
C1104 H1141 0.930 . S
C1105 C1102 1.348 . S
C1105 C1104 1.356 . S
H1106 C1100 0.930 . S
H1107 C1101 0.930 . S
C1108 N1109 1.314 . S
C1108 C1110 1.353 . S
C1108 H1114 0.930 . S
N1109 Li1059 1.990 . S
N1109 C1108 1.314 . S
N1109 C1112 1.279 . S
C1110 C1108 1.353 . S
C1110 C1113 1.348 . S
C1110 H1142 0.929 . S
C1111 C1112 1.358 . S
C1111 C1113 1.356 . S
C1111 H1143 0.930 . S
C1112 N1109 1.279 . S
C1112 C1111 1.358 . S
C1112 H1115 0.930 . S
C1113 C1110 1.348 . S
C1113 C1111 1.356 . S
H1114 C1108 0.930 . S
H1115 C1112 0.930 . S
O1116 Li1056 1.956 . S
O1116 Li1057 1.970 . S
O1116 Li1058 1.961 . S
O1116 C1060 1.325 . S
O1117 Li1056 1.970 . S
O1117 Li1057 1.956 . S
O1117 Li1059 1.961 . S
O1117 C1066 1.325 . S
O1118 Li1056 1.961 . S
O1118 Li1058 1.956 . S
O1118 Li1059 1.970 . S
O1118 C1088 1.325 . S
O1119 Li1057 1.961 . S
O1119 Li1058 1.970 . S
O1119 Li1059 1.956 . S
O1119 C1094 1.325 . S
H1120 C1062 0.929 . S
H1121 C1063 0.930 . S
H1122 C1064 0.930 . S
H1123 C1065 0.930 . S
H1124 C1067 0.930 . S
H1125 C1069 0.929 . S
H1126 C1070 0.930 . S
H1127 C1071 0.930 . S
H1128 C1074 0.930 . S
H1129 C1077 0.929 . S
H1130 C1082 0.929 . S
H1131 C1083 0.930 . S
H1132 C1090 0.929 . S
H1133 C1091 0.930 . S
H1134 C1092 0.930 . S
H1135 C1093 0.930 . S
H1136 C1095 0.929 . S
H1137 C1096 0.930 . S
H1138 C1097 0.930 . S
H1139 C1098 0.930 . S
H1140 C1102 0.929 . S
H1141 C1104 0.930 . S
H1142 C1110 0.929 . S
H1143 C1111 0.930 . S
Li1144 N1161 1.990 . S
Li1144 O1204 1.956 . S
Li1144 O1205 1.970 . S
Li1144 O1206 1.961 . S
Li1145 N1169 1.990 . S
Li1145 O1204 1.970 . S
Li1145 O1205 1.956 . S
Li1145 O1207 1.961 . S
Li1146 N1191 1.990 . S
Li1146 O1204 1.961 . S
Li1146 O1206 1.956 . S
Li1146 O1207 1.970 . S
Li1147 N1197 1.990 . S
Li1147 O1205 1.961 . S
Li1147 O1206 1.970 . S
Li1147 O1207 1.956 . S
C1148 C1150 1.345 1_455 S
C1148 C1151 1.351 1_455 S
C1148 O1204 1.332 . S
N1149 C1152 1.314 . S
N1149 C1153 1.279 . S
C1150 C1148 1.345 1_655 S
C1150 C1152 1.353 . S
C1150 H1208 0.913 1_655 S
C1151 C1148 1.351 1_655 S
C1151 C1153 1.358 . S
C1151 H1209 0.930 . S
C1152 N1149 1.314 . S
C1152 C1150 1.353 . S
C1152 H1210 0.930 . S
C1153 N1149 1.279 . S
C1153 C1151 1.358 . S
C1153 H1211 0.930 . S
C1154 C1157 1.348 . S
C1154 C1158 1.356 . S
C1154 O1205 1.325 . S
C1155 N1156 1.279 . S
C1155 C1158 1.358 . S
C1155 H1212 0.930 . S
N1156 C1155 1.279 . S
N1156 C1159 1.314 . S
C1157 C1154 1.348 . S
C1157 C1159 1.353 . S
C1157 H1213 0.929 . S
C1158 C1154 1.356 . S
C1158 C1155 1.358 . S
C1158 H1214 0.930 . S
C1159 N1156 1.314 . S
C1159 C1157 1.353 . S
C1159 H1215 0.930 . S
C1160 N1161 1.314 . S
C1160 C1165 1.353 . S
C1160 H1166 0.930 . S
N1161 Li1144 1.990 . S
N1161 C1160 1.314 . S
N1161 C1163 1.279 . S
C1162 C1163 1.358 1_655 S
C1162 C1164 1.356 1_655 S
C1162 H1216 0.930 . S
C1163 N1161 1.279 . S
C1163 C1162 1.358 1_455 S
C1163 H1167 0.930 1_455 S
C1164 C1162 1.356 1_455 S
C1164 C1165 1.348 . S
C1165 C1160 1.353 . S
C1165 C1164 1.348 . S
C1165 H1217 0.929 . S
H1166 C1160 0.930 . S
H1167 C1163 0.930 1_655 S
C1168 N1169 1.314 . S
C1168 C1170 1.353 . S
C1168 H1174 0.930 . S
N1169 Li1145 1.990 . S
N1169 C1168 1.314 . S
N1169 C1172 1.279 . S
C1170 C1168 1.353 . S
C1170 C1173 1.348 . S
C1170 H1218 0.929 . S
C1171 C1172 1.358 . S
C1171 C1173 1.356 . S
C1171 H1219 0.930 . S
C1172 N1169 1.279 . S
C1172 C1171 1.358 . S
C1172 H1175 0.930 . S
C1173 C1170 1.348 . S
C1173 C1171 1.356 . S
H1174 C1168 0.930 . S
H1175 C1172 0.930 . S
C1176 C1178 1.348 . S
C1176 C1179 1.356 . S
C1176 O1206 1.325 . S
N1177 C1180 1.314 . S
N1177 C1181 1.279 . S
C1178 C1176 1.348 . S
C1178 C1180 1.353 . S
C1178 H1220 0.929 . S
C1179 C1176 1.356 . S
C1179 C1181 1.358 . S
C1179 H1221 0.930 . S
C1180 N1177 1.314 . S
C1180 C1178 1.353 . S
C1180 H1222 0.930 . S
C1181 N1177 1.279 . S
C1181 C1179 1.358 . S
C1181 H1223 0.930 . S
C1182 C1183 1.348 . S
C1182 C1184 1.356 . S
C1182 O1207 1.325 . S
C1183 C1182 1.348 . S
C1183 C1185 1.353 . S
C1183 H1224 0.929 . S
C1184 C1182 1.356 . S
C1184 C1186 1.358 . S
C1184 H1225 0.930 . S
C1185 C1183 1.353 . S
C1185 N1187 1.314 . S
C1185 H1226 0.930 . S
C1186 C1184 1.358 . S
C1186 N1187 1.279 . S
C1186 H1227 0.930 . S
N1187 C1185 1.314 . S
N1187 C1186 1.279 . S
C1188 C1190 1.353 . S
C1188 N1191 1.314 . S
C1188 H1194 0.930 . S
C1189 N1191 1.279 . S
C1189 C1192 1.358 . S
C1189 H1195 0.930 . S
C1190 C1188 1.353 . S
C1190 C1193 1.348 . S
C1190 H1228 0.929 1_455 S
N1191 Li1146 1.990 . S
N1191 C1188 1.314 . S
N1191 C1189 1.279 . S
C1192 C1189 1.358 . S
C1192 C1193 1.356 . S
C1192 H1229 0.930 . S
C1193 C1190 1.348 . S
C1193 C1192 1.356 . S
H1194 C1188 0.930 . S
H1195 C1189 0.930 . S
C1196 N1197 1.314 . S
C1196 C1198 1.353 . S
C1196 H1202 0.930 . S
N1197 Li1147 1.990 . S
N1197 C1196 1.314 . S
N1197 C1200 1.279 . S
C1198 C1196 1.353 . S
C1198 C1201 1.348 . S
C1198 H1230 0.929 . S
C1199 C1200 1.358 . S
C1199 C1201 1.356 . S
C1199 H1231 0.930 . S
C1200 N1197 1.279 . S
C1200 C1199 1.358 . S
C1200 H1203 0.930 . S
C1201 C1198 1.348 . S
C1201 C1199 1.356 . S
H1202 C1196 0.930 . S
H1203 C1200 0.930 . S
O1204 Li1144 1.956 . S
O1204 Li1145 1.970 . S
O1204 Li1146 1.961 . S
O1204 C1148 1.332 . S
O1205 Li1144 1.970 . S
O1205 Li1145 1.956 . S
O1205 Li1147 1.961 . S
O1205 C1154 1.325 . S
O1206 Li1144 1.961 . S
O1206 Li1146 1.956 . S
O1206 Li1147 1.970 . S
O1206 C1176 1.325 . S
O1207 Li1145 1.961 . S
O1207 Li1146 1.970 . S
O1207 Li1147 1.956 . S
O1207 C1182 1.325 . S
H1208 C1150 0.913 1_455 S
H1209 C1151 0.930 . S
H1210 C1152 0.930 . S
H1211 C1153 0.930 . S
H1212 C1155 0.930 . S
H1213 C1157 0.929 . S
H1214 C1158 0.930 . S
H1215 C1159 0.930 . S
H1216 C1162 0.930 . S
H1217 C1165 0.929 . S
H1218 C1170 0.929 . S
H1219 C1171 0.930 . S
H1220 C1178 0.929 . S
H1221 C1179 0.930 . S
H1222 C1180 0.930 . S
H1223 C1181 0.930 . S
H1224 C1183 0.929 . S
H1225 C1184 0.930 . S
H1226 C1185 0.930 . S
H1227 C1186 0.930 . S
H1228 C1190 0.929 1_655 S
H1229 C1192 0.930 . S
H1230 C1198 0.929 . S
H1231 C1199 0.930 . S
Li1232 N1249 1.990 . S
Li1232 O1292 1.956 . S
Li1232 O1293 1.970 . S
Li1232 O1294 1.961 . S
Li1233 N1257 1.990 . S
Li1233 O1292 1.970 . S
Li1233 O1293 1.956 . S
Li1233 O1295 1.961 . S
Li1234 N1279 1.990 . S
Li1234 O1292 1.961 . S
Li1234 O1294 1.956 . S
Li1234 O1295 1.970 . S
Li1235 N1285 1.990 . S
Li1235 O1293 1.961 . S
Li1235 O1294 1.970 . S
Li1235 O1295 1.956 . S
C1236 C1238 1.348 . S
C1236 C1239 1.356 . S
C1236 O1292 1.325 . S
N1237 C1240 1.314 . S
N1237 C1241 1.279 . S
C1238 C1236 1.348 . S
C1238 C1240 1.353 . S
C1238 H1296 0.929 . S
C1239 C1236 1.356 . S
C1239 C1241 1.358 . S
C1239 H1297 0.930 . S
C1240 N1237 1.314 . S
C1240 C1238 1.353 . S
C1240 H1298 0.930 . S
C1241 N1237 1.279 . S
C1241 C1239 1.358 . S
C1241 H1299 0.930 . S
C1242 C1245 1.348 . S
C1242 C1246 1.356 . S
C1242 O1293 1.325 . S
C1243 N1244 1.279 . S
C1243 C1246 1.358 . S
C1243 H1300 0.930 . S
N1244 C1243 1.279 . S
N1244 C1247 1.314 . S
C1245 C1242 1.348 . S
C1245 C1247 1.353 . S
C1245 H1301 0.929 . S
C1246 C1242 1.356 . S
C1246 C1243 1.358 . S
C1246 H1302 0.930 . S
C1247 N1244 1.314 . S
C1247 C1245 1.353 . S
C1247 H1303 0.930 . S
C1248 N1249 1.314 . S
C1248 C1253 1.353 . S
C1248 H1254 0.930 . S
N1249 Li1232 1.990 . S
N1249 C1248 1.314 . S
N1249 C1251 1.279 . S
C1250 C1251 1.358 . S
C1250 C1252 1.356 . S
C1250 H1304 0.930 . S
C1251 N1249 1.279 . S
C1251 C1250 1.358 . S
C1251 H1255 0.930 . S
C1252 C1250 1.356 . S
C1252 C1253 1.348 . S
C1253 C1248 1.353 . S
C1253 C1252 1.348 . S
C1253 H1305 0.929 . S
H1254 C1248 0.930 . S
H1255 C1251 0.930 . S
C1256 N1257 1.314 . S
C1256 C1258 1.353 . S
C1256 H1262 0.930 . S
N1257 Li1233 1.990 . S
N1257 C1256 1.314 . S
N1257 C1260 1.279 . S
C1258 C1256 1.353 . S
C1258 C1261 1.348 . S
C1258 H1306 0.929 1_655 S
C1259 C1260 1.358 . S
C1259 C1261 1.356 . S
C1259 H1307 0.930 . S
C1260 N1257 1.279 . S
C1260 C1259 1.358 . S
C1260 H1263 0.930 . S
C1261 C1258 1.348 . S
C1261 C1259 1.356 . S
H1262 C1256 0.930 . S
H1263 C1260 0.930 . S
C1264 C1266 1.348 . S
C1264 C1267 1.356 . S
C1264 O1294 1.325 . S
N1265 C1268 1.314 . S
N1265 C1269 1.279 . S
C1266 C1264 1.348 . S
C1266 C1268 1.353 . S
C1266 H1308 0.929 . S
C1267 C1264 1.356 . S
C1267 C1269 1.358 . S
C1267 H1309 0.930 . S
C1268 N1265 1.314 . S
C1268 C1266 1.353 . S
C1268 H1310 0.930 . S
C1269 N1265 1.279 . S
C1269 C1267 1.358 . S
C1269 H1311 0.930 . S
C1270 C1271 1.345 1_655 S
C1270 C1272 1.351 1_655 S
C1270 O1295 1.332 . S
C1271 C1270 1.345 1_455 S
C1271 C1273 1.353 . S
C1271 H1312 0.913 1_455 S
C1272 C1270 1.351 1_455 S
C1272 C1274 1.358 . S
C1272 H1313 0.930 . S
C1273 C1271 1.353 . S
C1273 N1275 1.314 . S
C1273 H1314 0.930 . S
C1274 C1272 1.358 . S
C1274 N1275 1.279 . S
C1274 H1315 0.930 . S
N1275 C1273 1.314 . S
N1275 C1274 1.279 . S
C1276 C1278 1.353 . S
C1276 N1279 1.314 . S
C1276 H1282 0.930 . S
C1277 N1279 1.279 . S
C1277 C1280 1.358 . S
C1277 H1283 0.930 . S
C1278 C1276 1.353 . S
C1278 C1281 1.348 . S
C1278 H1316 0.929 . S
N1279 Li1234 1.990 . S
N1279 C1276 1.314 . S
N1279 C1277 1.279 . S
C1280 C1277 1.358 . S
C1280 C1281 1.356 . S
C1280 H1317 0.930 . S
C1281 C1278 1.348 . S
C1281 C1280 1.356 . S
H1282 C1276 0.930 . S
H1283 C1277 0.930 . S
C1284 N1285 1.314 . S
C1284 C1286 1.353 . S
C1284 H1290 0.930 . S
N1285 Li1235 1.990 . S
N1285 C1284 1.314 . S
N1285 C1288 1.279 . S
C1286 C1284 1.353 . S
C1286 C1289 1.348 . S
C1286 H1318 0.929 . S
C1287 C1288 1.358 1_455 S
C1287 C1289 1.356 1_455 S
C1287 H1319 0.930 . S
C1288 N1285 1.279 . S
C1288 C1287 1.358 1_655 S
C1288 H1291 0.930 1_655 S
C1289 C1286 1.348 . S
C1289 C1287 1.356 1_655 S
H1290 C1284 0.930 . S
H1291 C1288 0.930 1_455 S
O1292 Li1232 1.956 . S
O1292 Li1233 1.970 . S
O1292 Li1234 1.961 . S
O1292 C1236 1.325 . S
O1293 Li1232 1.970 . S
O1293 Li1233 1.956 . S
O1293 Li1235 1.961 . S
O1293 C1242 1.325 . S
O1294 Li1232 1.961 . S
O1294 Li1234 1.956 . S
O1294 Li1235 1.970 . S
O1294 C1264 1.325 . S
O1295 Li1233 1.961 . S
O1295 Li1234 1.970 . S
O1295 Li1235 1.956 . S
O1295 C1270 1.332 . S
H1296 C1238 0.929 . S
H1297 C1239 0.930 . S
H1298 C1240 0.930 . S
H1299 C1241 0.930 . S
H1300 C1243 0.930 . S
H1301 C1245 0.929 . S
H1302 C1246 0.930 . S
H1303 C1247 0.930 . S
H1304 C1250 0.930 . S
H1305 C1253 0.929 . S
H1306 C1258 0.929 1_455 S
H1307 C1259 0.930 . S
H1308 C1266 0.929 . S
H1309 C1267 0.930 . S
H1310 C1268 0.930 . S
H1311 C1269 0.930 . S
H1312 C1271 0.913 1_655 S
H1313 C1272 0.930 . S
H1314 C1273 0.930 . S
H1315 C1274 0.930 . S
H1316 C1278 0.929 . S
H1317 C1280 0.930 . S
H1318 C1286 0.929 . S
H1319 C1287 0.930 . S
Li1320 N1337 1.990 . S
Li1320 O1380 1.956 . S
Li1320 O1381 1.970 . S
Li1320 O1382 1.961 . S
Li1321 N1345 1.990 . S
Li1321 O1380 1.970 . S
Li1321 O1381 1.956 . S
Li1321 O1383 1.961 . S
Li1322 N1367 1.990 . S
Li1322 O1380 1.961 . S
Li1322 O1382 1.956 . S
Li1322 O1383 1.970 . S
Li1323 N1373 1.990 . S
Li1323 O1381 1.961 . S
Li1323 O1382 1.970 . S
Li1323 O1383 1.956 . S
C1324 C1326 1.348 . S
C1324 C1327 1.356 . S
C1324 O1380 1.325 . S
N1325 C1328 1.314 . S
N1325 C1329 1.279 . S
C1326 C1324 1.348 . S
C1326 C1328 1.353 . S
C1326 H1384 0.929 . S
C1327 C1324 1.356 . S
C1327 C1329 1.358 . S
C1327 H1385 0.930 . S
C1328 N1325 1.314 . S
C1328 C1326 1.353 . S
C1328 H1386 0.930 . S
C1329 N1325 1.279 . S
C1329 C1327 1.358 . S
C1329 H1387 0.930 . S
C1330 C1333 1.348 . S
C1330 C1334 1.356 . S
C1330 O1381 1.325 . S
C1331 N1332 1.279 . S
C1331 C1334 1.358 . S
C1331 H1388 0.930 . S
N1332 C1331 1.279 . S
N1332 C1335 1.314 . S
C1333 C1330 1.348 . S
C1333 C1335 1.353 . S
C1333 H1389 0.929 . S
C1334 C1330 1.356 . S
C1334 C1331 1.358 . S
C1334 H1390 0.930 . S
C1335 N1332 1.314 . S
C1335 C1333 1.353 . S
C1335 H1391 0.930 . S
C1336 N1337 1.314 . S
C1336 C1341 1.353 . S
C1336 H1342 0.930 . S
N1337 Li1320 1.990 . S
N1337 C1336 1.314 . S
N1337 C1339 1.279 . S
C1338 C1339 1.358 . S
C1338 C1340 1.356 . S
C1338 H1392 0.930 . S
C1339 N1337 1.279 . S
C1339 C1338 1.358 . S
C1339 H1343 0.930 . S
C1340 C1338 1.356 . S
C1340 C1341 1.348 . S
C1341 C1336 1.353 . S
C1341 C1340 1.348 . S
C1341 H1393 0.929 . S
H1342 C1336 0.930 . S
H1343 C1339 0.930 . S
C1344 N1345 1.314 . S
C1344 C1346 1.353 . S
C1344 H1350 0.930 . S
N1345 Li1321 1.990 . S
N1345 C1344 1.314 . S
N1345 C1348 1.279 . S
C1346 C1344 1.353 . S
C1346 C1349 1.348 . S
C1346 H1394 0.929 . S
C1347 C1348 1.358 . S
C1347 C1349 1.356 . S
C1347 H1395 0.930 . S
C1348 N1345 1.279 . S
C1348 C1347 1.358 . S
C1348 H1351 0.930 . S
C1349 C1346 1.348 . S
C1349 C1347 1.356 . S
H1350 C1344 0.930 . S
H1351 C1348 0.930 . S
C1352 C1354 1.348 . S
C1352 C1355 1.356 . S
C1352 O1382 1.325 . S
N1353 C1356 1.314 . S
N1353 C1357 1.279 . S
C1354 C1352 1.348 . S
C1354 C1356 1.353 . S
C1354 H1396 0.929 . S
C1355 C1352 1.356 . S
C1355 C1357 1.358 . S
C1355 H1397 0.930 . S
C1356 N1353 1.314 . S
C1356 C1354 1.353 . S
C1356 H1398 0.930 . S
C1357 N1353 1.279 . S
C1357 C1355 1.358 . S
C1357 H1399 0.930 . S
C1358 C1359 1.348 . S
C1358 C1360 1.356 . S
C1358 O1383 1.325 . S
C1359 C1358 1.348 . S
C1359 C1361 1.353 . S
C1359 H1400 0.929 . S
C1360 C1358 1.356 . S
C1360 C1362 1.358 . S
C1360 H1401 0.930 . S
C1361 C1359 1.353 . S
C1361 N1363 1.314 . S
C1361 H1402 0.930 . S
C1362 C1360 1.358 . S
C1362 N1363 1.279 . S
C1362 H1403 0.930 . S
N1363 C1361 1.314 . S
N1363 C1362 1.279 . S
C1364 C1366 1.353 . S
C1364 N1367 1.314 . S
C1364 H1370 0.930 . S
C1365 N1367 1.279 . S
C1365 C1368 1.358 . S
C1365 H1371 0.930 . S
C1366 C1364 1.353 . S
C1366 C1369 1.348 . S
C1366 H1404 0.929 . S
N1367 Li1322 1.990 . S
N1367 C1364 1.314 . S
N1367 C1365 1.279 . S
C1368 C1365 1.358 . S
C1368 C1369 1.356 . S
C1368 H1405 0.930 . S
C1369 C1366 1.348 . S
C1369 C1368 1.356 . S
H1370 C1364 0.930 . S
H1371 C1365 0.930 . S
C1372 N1373 1.314 . S
C1372 C1374 1.353 . S
C1372 H1378 0.930 . S
N1373 Li1323 1.990 . S
N1373 C1372 1.314 . S
N1373 C1376 1.279 . S
C1374 C1372 1.353 . S
C1374 C1377 1.348 . S
C1374 H1406 0.929 . S
C1375 C1376 1.358 . S
C1375 C1377 1.356 . S
C1375 H1407 0.930 . S
C1376 N1373 1.279 . S
C1376 C1375 1.358 . S
C1376 H1379 0.930 . S
C1377 C1374 1.348 . S
C1377 C1375 1.356 . S
H1378 C1372 0.930 . S
H1379 C1376 0.930 . S
O1380 Li1320 1.956 . S
O1380 Li1321 1.970 . S
O1380 Li1322 1.961 . S
O1380 C1324 1.325 . S
O1381 Li1320 1.970 . S
O1381 Li1321 1.956 . S
O1381 Li1323 1.961 . S
O1381 C1330 1.325 . S
O1382 Li1320 1.961 . S
O1382 Li1322 1.956 . S
O1382 Li1323 1.970 . S
O1382 C1352 1.325 . S
O1383 Li1321 1.961 . S
O1383 Li1322 1.970 . S
O1383 Li1323 1.956 . S
O1383 C1358 1.325 . S
H1384 C1326 0.929 . S
H1385 C1327 0.930 . S
H1386 C1328 0.930 . S
H1387 C1329 0.930 . S
H1388 C1331 0.930 . S
H1389 C1333 0.929 . S
H1390 C1334 0.930 . S
H1391 C1335 0.930 . S
H1392 C1338 0.930 . S
H1393 C1341 0.929 . S
H1394 C1346 0.929 . S
H1395 C1347 0.930 . S
H1396 C1354 0.929 . S
H1397 C1355 0.930 . S
H1398 C1356 0.930 . S
H1399 C1357 0.930 . S
H1400 C1359 0.929 . S
H1401 C1360 0.930 . S
H1402 C1361 0.930 . S
H1403 C1362 0.930 . S
H1404 C1366 0.929 . S
H1405 C1368 0.930 . S
H1406 C1374 0.929 . S
H1407 C1375 0.930 . S
H1408 C1414 0.930 . S
H1409 C1417 0.930 . S
H1410 C1418 0.930 . S
H1411 C1419 0.930 . S
H1412 C1422 0.930 . S
H1413 C1423 0.930 . S
C1414 H1408 0.930 . S
C1414 C1415 1.355 1_545 S
C1414 C1416 1.415 . S
C1415 C1414 1.355 1_565 S
C1415 C1417 1.419 . S
C1416 C1414 1.415 . S
C1416 C1421 1.425 1_545 S
C1416 C1423 1.409 . S
C1417 H1409 0.930 . S
C1417 C1415 1.419 . S
C1417 C1418 1.362 . S
C1418 H1410 0.930 . S
C1418 C1417 1.362 . S
C1418 C1421 1.409 . S
C1419 H1411 0.930 . S
C1419 C1420 1.355 1_565 S
C1419 C1421 1.415 . S
C1420 C1419 1.355 1_545 S
C1420 C1422 1.419 . S
C1421 C1416 1.425 1_565 S
C1421 C1418 1.409 . S
C1421 C1419 1.415 . S
C1422 H1412 0.930 . S
C1422 C1420 1.419 . S
C1422 C1423 1.362 . S
C1423 H1413 0.930 . S
C1423 C1416 1.409 . S
C1423 C1422 1.362 . S
H1424 C1430 0.930 . S
H1425 C1433 0.930 . S
H1426 C1434 0.930 . S
H1427 C1435 0.930 . S
H1428 C1438 0.930 . S
H1429 C1439 0.930 . S
C1430 H1424 0.930 . S
C1430 C1431 1.355 . S
C1430 C1432 1.415 . S
C1431 C1430 1.355 . S
C1431 C1433 1.419 1_565 S
C1432 C1430 1.415 . S
C1432 C1437 1.425 1_565 S
C1432 C1439 1.409 . S
C1433 H1425 0.930 . S
C1433 C1431 1.419 1_545 S
C1433 C1434 1.362 . S
C1434 H1426 0.930 . S
C1434 C1433 1.362 . S
C1434 C1437 1.409 . S
C1435 H1427 0.930 . S
C1435 C1436 1.355 . S
C1435 C1437 1.415 . S
C1436 C1435 1.355 . S
C1436 C1438 1.419 1_545 S
C1437 C1432 1.425 1_545 S
C1437 C1434 1.409 . S
C1437 C1435 1.415 . S
C1438 H1428 0.930 . S
C1438 C1436 1.419 1_565 S
C1438 C1439 1.362 . S
C1439 H1429 0.930 . S
C1439 C1432 1.409 . S
C1439 C1438 1.362 . S
H1440 C1446 0.930 . S
H1441 C1449 0.930 . S
H1442 C1450 0.930 . S
H1443 C1451 0.930 . S
H1444 C1454 0.930 . S
H1445 C1455 0.930 . S
C1446 H1440 0.930 . S
C1446 C1447 1.355 1_545 S
C1446 C1448 1.415 . S
C1447 C1446 1.355 1_565 S
C1447 C1449 1.419 . S
C1448 C1446 1.415 . S
C1448 C1453 1.425 1_545 S
C1448 C1455 1.409 . S
C1449 H1441 0.930 . S
C1449 C1447 1.419 . S
C1449 C1450 1.362 . S
C1450 H1442 0.930 . S
C1450 C1449 1.362 . S
C1450 C1453 1.409 . S
C1451 H1443 0.930 . S
C1451 C1452 1.355 1_565 S
C1451 C1453 1.415 . S
C1452 C1451 1.355 1_545 S
C1452 C1454 1.419 . S
C1453 C1448 1.425 1_565 S
C1453 C1450 1.409 . S
C1453 C1451 1.415 . S
C1454 H1444 0.930 . S
C1454 C1452 1.419 . S
C1454 C1455 1.362 . S
C1455 H1445 0.930 . S
C1455 C1448 1.409 . S
C1455 C1454 1.362 . S
H1456 C1462 0.930 . S
H1457 C1465 0.930 . S
H1458 C1466 0.930 . S
H1459 C1467 0.930 . S
H1460 C1470 0.930 . S
H1461 C1471 0.930 . S
C1462 H1456 0.930 . S
C1462 C1463 1.355 1_545 S
C1462 C1464 1.415 . S
C1463 C1462 1.355 1_565 S
C1463 C1465 1.419 . S
C1464 C1462 1.415 . S
C1464 C1469 1.425 1_545 S
C1464 C1471 1.409 . S
C1465 H1457 0.930 . S
C1465 C1463 1.419 . S
C1465 C1466 1.362 . S
C1466 H1458 0.930 . S
C1466 C1465 1.362 . S
C1466 C1469 1.409 . S
C1467 H1459 0.930 . S
C1467 C1468 1.355 1_565 S
C1467 C1469 1.415 . S
C1468 C1467 1.355 1_545 S
C1468 C1470 1.419 . S
C1469 C1464 1.425 1_565 S
C1469 C1466 1.409 . S
C1469 C1467 1.415 . S
C1470 H1460 0.930 . S
C1470 C1468 1.419 . S
C1470 C1471 1.362 . S
C1471 H1461 0.930 . S
C1471 C1464 1.409 . S
C1471 C1470 1.362 . S
H1472 C1478 0.930 . S
H1473 C1481 0.930 . S
H1474 C1482 0.930 . S
H1475 C1483 0.930 . S
H1476 C1486 0.930 . S
H1477 C1487 0.930 . S
C1478 H1472 0.930 . S
C1478 C1479 1.355 . S
C1478 C1480 1.415 . S
C1479 C1478 1.355 . S
C1479 C1481 1.419 . S
C1480 C1478 1.415 . S
C1480 C1485 1.425 . S
C1480 C1487 1.409 . S
C1481 H1473 0.930 . S
C1481 C1479 1.419 . S
C1481 C1482 1.362 . S
C1482 H1474 0.930 . S
C1482 C1481 1.362 . S
C1482 C1485 1.409 . S
C1483 H1475 0.930 . S
C1483 C1484 1.355 . S
C1483 C1485 1.415 . S
C1484 C1483 1.355 . S
C1484 C1486 1.419 . S
C1485 C1480 1.425 . S
C1485 C1482 1.409 . S
C1485 C1483 1.415 . S
C1486 H1476 0.930 . S
C1486 C1484 1.419 . S
C1486 C1487 1.362 . S
C1487 H1477 0.930 . S
C1487 C1480 1.409 . S
C1487 C1486 1.362 . S
H1488 C1494 0.930 . S
H1489 C1497 0.930 . S
H1490 C1498 0.930 . S
H1491 C1499 0.930 . S
H1492 C1502 0.930 . S
H1493 C1503 0.930 . S
C1494 H1488 0.930 . S
C1494 C1495 1.355 . S
C1494 C1496 1.415 . S
C1495 C1494 1.355 . S
C1495 C1497 1.419 . S
C1496 C1494 1.415 . S
C1496 C1501 1.425 . S
C1496 C1503 1.409 . S
C1497 H1489 0.930 . S
C1497 C1495 1.419 . S
C1497 C1498 1.362 . S
C1498 H1490 0.930 . S
C1498 C1497 1.362 . S
C1498 C1501 1.409 . S
C1499 H1491 0.930 . S
C1499 C1500 1.355 . S
C1499 C1501 1.415 . S
C1500 C1499 1.355 . S
C1500 C1502 1.419 . S
C1501 C1496 1.425 . S
C1501 C1498 1.409 . S
C1501 C1499 1.415 . S
C1502 H1492 0.930 . S
C1502 C1500 1.419 . S
C1502 C1503 1.362 . S
C1503 H1493 0.930 . S
C1503 C1496 1.409 . S
C1503 C1502 1.362 . S
H1504 C1510 0.930 . S
H1505 C1513 0.930 . S
H1506 C1514 0.930 . S
H1507 C1515 0.930 . S
H1508 C1518 0.930 . S
H1509 C1519 0.930 . S
C1510 H1504 0.930 . S
C1510 C1511 1.355 . S
C1510 C1512 1.415 . S
C1511 C1510 1.355 . S
C1511 C1513 1.419 . S
C1512 C1510 1.415 . S
C1512 C1517 1.425 . S
C1512 C1519 1.409 . S
C1513 H1505 0.930 . S
C1513 C1511 1.419 . S
C1513 C1514 1.362 . S
C1514 H1506 0.930 . S
C1514 C1513 1.362 . S
C1514 C1517 1.409 . S
C1515 H1507 0.930 . S
C1515 C1516 1.355 . S
C1515 C1517 1.415 . S
C1516 C1515 1.355 . S
C1516 C1518 1.419 . S
C1517 C1512 1.425 . S
C1517 C1514 1.409 . S
C1517 C1515 1.415 . S
C1518 H1508 0.930 . S
C1518 C1516 1.419 . S
C1518 C1519 1.362 . S
C1519 H1509 0.930 . S
C1519 C1512 1.409 . S
C1519 C1518 1.362 . S
H1520 C1526 0.930 . S
H1521 C1529 0.930 . S
H1522 C1530 0.930 . S
H1523 C1531 0.930 . S
H1524 C1534 0.930 . S
H1525 C1535 0.930 . S
C1526 H1520 0.930 . S
C1526 C1527 1.355 . S
C1526 C1528 1.415 . S
C1527 C1526 1.355 . S
C1527 C1529 1.419 . S
C1528 C1526 1.415 . S
C1528 C1533 1.425 . S
C1528 C1535 1.409 . S
C1529 H1521 0.930 . S
C1529 C1527 1.419 . S
C1529 C1530 1.362 . S
C1530 H1522 0.930 . S
C1530 C1529 1.362 . S
C1530 C1533 1.409 . S
C1531 H1523 0.930 . S
C1531 C1532 1.355 . S
C1531 C1533 1.415 . S
C1532 C1531 1.355 . S
C1532 C1534 1.419 . S
C1533 C1528 1.425 . S
C1533 C1530 1.409 . S
C1533 C1531 1.415 . S
C1534 H1524 0.930 . S
C1534 C1532 1.419 . S
C1534 C1535 1.362 . S
C1535 H1525 0.930 . S
C1535 C1528 1.409 . S
C1535 C1534 1.362 . S
H1536 C1542 0.930 . S
H1537 C1545 0.930 . S
H1538 C1546 0.930 . S
H1539 C1547 0.930 . S
H1540 C1550 0.930 . S
H1541 C1551 0.930 . S
C1542 H1536 0.930 . S
C1542 C1543 1.355 1_455 S
C1542 C1544 1.415 . S
C1543 C1542 1.355 1_655 S
C1543 C1545 1.419 1_545 S
C1544 C1542 1.415 . S
C1544 C1549 1.425 1_445 S
C1544 C1551 1.409 . S
C1545 H1537 0.930 . S
C1545 C1543 1.419 1_565 S
C1545 C1546 1.362 . S
C1546 H1538 0.930 . S
C1546 C1545 1.362 . S
C1546 C1549 1.409 . S
C1547 H1539 0.930 . S
C1547 C1548 1.355 1_665 S
C1547 C1549 1.415 . S
C1548 C1547 1.355 1_445 S
C1548 C1550 1.419 . S
C1549 C1544 1.425 1_665 S
C1549 C1546 1.409 . S
C1549 C1547 1.415 . S
C1550 H1540 0.930 . S
C1550 C1548 1.419 . S
C1550 C1551 1.362 . S
C1551 H1541 0.930 . S
C1551 C1544 1.409 . S
C1551 C1550 1.362 . S
H1552 C1558 0.930 1_545 S
H1553 C1561 0.930 . S
H1554 C1562 0.930 . S
H1555 C1563 0.930 . S
H1556 C1566 0.920 1_545 S
H1557 C1567 0.941 . S
C1558 H1552 0.930 1_565 S
C1558 C1559 1.355 . S
C1558 C1560 1.415 . S
C1559 C1558 1.355 . S
C1559 C1561 1.419 . S
C1560 C1558 1.415 . S
C1560 C1565 1.425 . S
C1560 C1567 1.402 1_565 S
C1561 H1553 0.930 . S
C1561 C1559 1.419 . S
C1561 C1562 1.362 . S
C1562 H1554 0.930 . S
C1562 C1561 1.362 . S
C1562 C1565 1.409 . S
C1563 H1555 0.930 . S
C1563 C1564 1.355 . S
C1563 C1565 1.415 . S
C1564 C1563 1.355 . S
C1564 C1566 1.433 . S
C1565 C1560 1.425 . S
C1565 C1562 1.409 . S
C1565 C1563 1.415 . S
C1566 H1556 0.920 1_565 S
C1566 C1564 1.433 . S
C1566 C1567 1.359 1_565 S
C1567 H1557 0.941 . S
C1567 C1560 1.402 1_545 S
C1567 C1566 1.359 1_545 S
H1568 C1574 0.930 . S
H1569 C1577 0.930 . S
H1570 C1578 0.930 . S
H1571 C1579 0.930 . S
H1572 C1582 0.930 . S
H1573 C1583 0.930 . S
C1574 H1568 0.930 . S
C1574 C1575 1.360 . S
C1574 C1576 1.415 . S
C1575 C1574 1.360 . S
C1575 C1577 1.412 1_465 S
C1576 C1574 1.415 . S
C1576 C1581 1.425 1_465 S
C1576 C1583 1.409 . S
C1577 H1569 0.930 . S
C1577 C1575 1.412 1_645 S
C1577 C1578 1.362 . S
C1578 H1570 0.930 . S
C1578 C1577 1.362 . S
C1578 C1581 1.409 . S
C1579 H1571 0.930 . S
C1579 C1580 1.360 1_545 S
C1579 C1581 1.415 . S
C1580 C1579 1.360 1_565 S
C1580 C1582 1.412 1_655 S
C1581 C1576 1.425 1_645 S
C1581 C1578 1.409 . S
C1581 C1579 1.415 . S
C1582 H1572 0.930 . S
C1582 C1580 1.412 1_455 S
C1582 C1583 1.362 . S
C1583 H1573 0.930 . S
C1583 C1576 1.409 . S
C1583 C1582 1.362 . S
H1584 C1590 0.930 . S
H1585 C1593 0.930 . S
H1586 C1594 0.930 . S
H1587 C1595 0.930 . S
H1588 C1598 0.930 . S
H1589 C1599 0.930 . S
C1590 H1584 0.930 . S
C1590 C1591 1.355 . S
C1590 C1592 1.415 . S
C1591 C1590 1.355 . S
C1591 C1593 1.419 1_545 S
C1592 C1590 1.415 . S
C1592 C1597 1.425 1_545 S
C1592 C1599 1.409 . S
C1593 H1585 0.930 . S
C1593 C1591 1.419 1_565 S
C1593 C1594 1.362 . S
C1594 H1586 0.930 . S
C1594 C1593 1.362 . S
C1594 C1597 1.409 . S
C1595 H1587 0.930 . S
C1595 C1596 1.355 1_565 S
C1595 C1597 1.415 . S
C1596 C1595 1.355 1_545 S
C1596 C1598 1.419 . S
C1597 C1592 1.425 1_565 S
C1597 C1594 1.409 . S
C1597 C1595 1.415 . S
C1598 H1588 0.930 . S
C1598 C1596 1.419 . S
C1598 C1599 1.362 . S
C1599 H1589 0.930 . S
C1599 C1592 1.409 . S
C1599 C1598 1.362 . S
H1600 C1606 0.930 . S
H1601 C1609 0.930 . S
H1602 C1610 0.930 . S
H1603 C1611 0.930 . S
H1604 C1614 0.930 . S
H1605 C1615 0.930 . S
C1606 H1600 0.930 . S
C1606 C1607 1.355 . S
C1606 C1608 1.415 . S
C1607 C1606 1.355 . S
C1607 C1609 1.419 . S
C1608 C1606 1.415 . S
C1608 C1613 1.425 . S
C1608 C1615 1.409 . S
C1609 H1601 0.930 . S
C1609 C1607 1.419 . S
C1609 C1610 1.362 . S
C1610 H1602 0.930 . S
C1610 C1609 1.362 . S
C1610 C1613 1.409 . S
C1611 H1603 0.930 . S
C1611 C1612 1.355 . S
C1611 C1613 1.415 . S
C1612 C1611 1.355 . S
C1612 C1614 1.419 . S
C1613 C1608 1.425 . S
C1613 C1610 1.409 . S
C1613 C1611 1.415 . S
C1614 H1604 0.930 . S
C1614 C1612 1.419 . S
C1614 C1615 1.362 . S
C1615 H1605 0.930 . S
C1615 C1608 1.409 . S
C1615 C1614 1.362 . S
H1616 C1622 0.930 . S
H1617 C1625 0.930 . S
H1618 C1626 0.930 . S
H1619 C1627 0.930 . S
H1620 C1630 0.930 . S
H1621 C1631 0.930 . S
C1622 H1616 0.930 . S
C1622 C1623 1.355 1_655 S
C1622 C1624 1.415 . S
C1623 C1622 1.355 1_455 S
C1623 C1625 1.419 . S
C1624 C1622 1.415 . S
C1624 C1629 1.425 1_655 S
C1624 C1631 1.409 . S
C1625 H1617 0.930 . S
C1625 C1623 1.419 . S
C1625 C1626 1.362 . S
C1626 H1618 0.930 . S
C1626 C1625 1.362 . S
C1626 C1629 1.409 . S
C1627 H1619 0.930 . S
C1627 C1628 1.355 1_455 S
C1627 C1629 1.415 . S
C1628 C1627 1.355 1_655 S
C1628 C1630 1.419 . S
C1629 C1624 1.425 1_455 S
C1629 C1626 1.409 . S
C1629 C1627 1.415 . S
C1630 H1620 0.930 . S
C1630 C1628 1.419 . S
C1630 C1631 1.362 . S
C1631 H1621 0.930 . S
C1631 C1624 1.409 . S
C1631 C1630 1.362 . S
H1632 C1638 0.930 . S
H1633 C1641 0.930 . S
H1634 C1642 0.930 . S
H1635 C1643 0.930 . S
H1636 C1646 0.930 . S
H1637 C1647 0.930 . S
C1638 H1632 0.930 . S
C1638 C1639 1.355 . S
C1638 C1640 1.415 . S
C1639 C1638 1.355 . S
C1639 C1641 1.419 . S
C1640 C1638 1.415 . S
C1640 C1645 1.425 . S
C1640 C1647 1.409 . S
C1641 H1633 0.930 . S
C1641 C1639 1.419 . S
C1641 C1642 1.362 . S
C1642 H1634 0.930 . S
C1642 C1641 1.362 . S
C1642 C1645 1.409 . S
C1643 H1635 0.930 . S
C1643 C1644 1.355 . S
C1643 C1645 1.415 . S
C1644 C1643 1.355 . S
C1644 C1646 1.419 . S
C1645 C1640 1.425 . S
C1645 C1642 1.409 . S
C1645 C1643 1.415 . S
C1646 H1636 0.930 . S
C1646 C1644 1.419 . S
C1646 C1647 1.362 . S
C1647 H1637 0.930 . S
C1647 C1640 1.409 . S
C1647 C1646 1.362 . S
H1648 C1654 0.930 . S
H1649 C1657 0.930 . S
H1650 C1658 0.930 . S
H1651 C1659 0.930 . S
H1652 C1662 0.930 . S
H1653 C1663 0.930 . S
C1654 H1648 0.930 . S
C1654 C1655 1.355 1_655 S
C1654 C1656 1.415 . S
C1655 C1654 1.355 1_455 S
C1655 C1657 1.419 . S
C1656 C1654 1.415 . S
C1656 C1661 1.425 1_655 S
C1656 C1663 1.409 . S
C1657 H1649 0.930 . S
C1657 C1655 1.419 . S
C1657 C1658 1.362 . S
C1658 H1650 0.930 . S
C1658 C1657 1.362 . S
C1658 C1661 1.409 . S
C1659 H1651 0.930 . S
C1659 C1660 1.355 1_455 S
C1659 C1661 1.415 . S
C1660 C1659 1.355 1_655 S
C1660 C1662 1.419 . S
C1661 C1656 1.425 1_455 S
C1661 C1658 1.409 . S
C1661 C1659 1.415 . S
C1662 H1652 0.930 . S
C1662 C1660 1.419 . S
C1662 C1663 1.362 . S
C1663 H1653 0.930 . S
C1663 C1656 1.409 . S
C1663 C1662 1.362 . S
H1664 C1670 0.930 . S
H1665 C1673 0.924 1_655 S
H1666 C1674 0.930 . S
H1667 C1675 0.930 . S
H1668 C1678 0.924 1_455 S
H1669 C1679 0.930 . S
C1670 H1664 0.930 . S
C1670 C1671 1.355 . S
C1670 C1672 1.415 . S
C1671 C1670 1.355 . S
C1671 C1673 1.419 . S
C1672 C1670 1.415 . S
C1672 C1677 1.425 1_455 S
C1672 C1679 1.409 . S
C1673 H1665 0.924 1_455 S
C1673 C1671 1.419 . S
C1673 C1674 1.362 1_455 S
C1674 H1666 0.930 . S
C1674 C1673 1.362 1_655 S
C1674 C1677 1.409 . S
C1675 H1667 0.930 . S
C1675 C1676 1.355 . S
C1675 C1677 1.415 . S
C1676 C1675 1.355 . S
C1676 C1678 1.419 . S
C1677 C1672 1.425 1_655 S
C1677 C1674 1.409 . S
C1677 C1675 1.415 . S
C1678 H1668 0.924 1_655 S
C1678 C1676 1.419 . S
C1678 C1679 1.362 1_655 S
C1679 H1669 0.930 . S
C1679 C1672 1.409 . S
C1679 C1678 1.362 1_455 S
H1680 C1686 0.930 . S
H1681 C1689 0.930 . S
H1682 C1690 0.930 . S
H1683 C1691 0.930 . S
H1684 C1694 0.930 . S
H1685 C1695 0.930 . S
C1686 H1680 0.930 . S
C1686 C1687 1.355 . S
C1686 C1688 1.415 . S
C1687 C1686 1.355 . S
C1687 C1689 1.419 . S
C1688 C1686 1.415 . S
C1688 C1693 1.425 . S
C1688 C1695 1.409 . S
C1689 H1681 0.930 . S
C1689 C1687 1.419 . S
C1689 C1690 1.362 . S
C1690 H1682 0.930 . S
C1690 C1689 1.362 . S
C1690 C1693 1.409 . S
C1691 H1683 0.930 . S
C1691 C1692 1.355 . S
C1691 C1693 1.415 . S
C1692 C1691 1.355 . S
C1692 C1694 1.419 . S
C1693 C1688 1.425 . S
C1693 C1690 1.409 . S
C1693 C1691 1.415 . S
C1694 H1684 0.930 . S
C1694 C1692 1.419 . S
C1694 C1695 1.362 . S
C1695 H1685 0.930 . S
C1695 C1688 1.409 . S
C1695 C1694 1.362 . S
H1696 C1702 0.930 . S
H1697 C1705 0.930 . S
H1698 C1706 0.930 . S
H1699 C1707 0.930 . S
H1700 C1710 0.930 . S
H1701 C1711 0.930 . S
C1702 H1696 0.930 . S
C1702 C1703 1.355 . S
C1702 C1704 1.415 . S
C1703 C1702 1.355 . S
C1703 C1705 1.419 . S
C1704 C1702 1.415 . S
C1704 C1709 1.425 . S
C1704 C1711 1.409 . S
C1705 H1697 0.930 . S
C1705 C1703 1.419 . S
C1705 C1706 1.362 . S
C1706 H1698 0.930 . S
C1706 C1705 1.362 . S
C1706 C1709 1.409 . S
C1707 H1699 0.930 . S
C1707 C1708 1.355 . S
C1707 C1709 1.415 . S
C1708 C1707 1.355 . S
C1708 C1710 1.419 . S
C1709 C1704 1.425 . S
C1709 C1706 1.409 . S
C1709 C1707 1.415 . S
C1710 H1700 0.930 . S
C1710 C1708 1.419 . S
C1710 C1711 1.362 . S
C1711 H1701 0.930 . S
C1711 C1704 1.409 . S
C1711 C1710 1.362 . S
H1712 C1718 0.930 . S
H1713 C1721 0.930 . S
H1714 C1722 0.930 . S
H1715 C1723 0.930 . S
H1716 C1726 0.930 . S
H1717 C1727 0.930 . S
C1718 H1712 0.930 . S
C1718 C1719 1.355 . S
C1718 C1720 1.415 . S
C1719 C1718 1.355 . S
C1719 C1721 1.419 . S
C1720 C1718 1.415 . S
C1720 C1725 1.425 1_455 S
C1720 C1727 1.409 1_455 S
C1721 H1713 0.930 . S
C1721 C1719 1.419 . S
C1721 C1722 1.362 . S
C1722 H1714 0.930 . S
C1722 C1721 1.362 . S
C1722 C1725 1.409 1_455 S
C1723 H1715 0.930 . S
C1723 C1724 1.355 . S
C1723 C1725 1.415 . S
C1724 C1723 1.355 . S
C1724 C1726 1.419 . S
C1725 C1720 1.425 1_655 S
C1725 C1722 1.409 1_655 S
C1725 C1723 1.415 . S
C1726 H1716 0.930 . S
C1726 C1724 1.419 . S
C1726 C1727 1.362 . S
C1727 H1717 0.930 . S
C1727 C1720 1.409 1_655 S
C1727 C1726 1.362 . S
H1728 C1734 0.930 . S
H1729 C1737 0.930 . S
H1730 C1738 0.930 . S
H1731 C1739 0.930 . S
H1732 C1742 0.930 . S
H1733 C1743 0.930 . S
C1734 H1728 0.930 . S
C1734 C1735 1.355 . S
C1734 C1736 1.414 1_455 S
C1735 C1734 1.355 . S
C1735 C1737 1.419 . S
C1736 C1734 1.414 1_655 S
C1736 C1741 1.425 1_655 S
C1736 C1743 1.410 . S
C1737 H1729 0.930 . S
C1737 C1735 1.419 . S
C1737 C1738 1.362 . S
C1738 H1730 0.930 . S
C1738 C1737 1.362 . S
C1738 C1741 1.410 . S
C1739 H1731 0.930 . S
C1739 C1740 1.355 . S
C1739 C1741 1.414 1_655 S
C1740 C1739 1.355 . S
C1740 C1742 1.419 . S
C1741 C1736 1.425 1_455 S
C1741 C1738 1.410 . S
C1741 C1739 1.414 1_455 S
C1742 H1732 0.930 . S
C1742 C1740 1.419 . S
C1742 C1743 1.362 . S
C1743 H1733 0.930 . S
C1743 C1736 1.410 . S
C1743 C1742 1.362 . S
H1744 C1750 0.930 . S
H1745 C1753 0.930 . S
H1746 C1754 0.930 . S
H1747 C1755 0.930 . S
H1748 C1758 0.930 . S
H1749 C1759 0.930 . S
C1750 H1744 0.930 . S
C1750 C1751 1.355 . S
C1750 C1752 1.415 . S
C1751 C1750 1.355 . S
C1751 C1753 1.419 . S
C1752 C1750 1.415 . S
C1752 C1757 1.425 . S
C1752 C1759 1.409 . S
C1753 H1745 0.930 . S
C1753 C1751 1.419 . S
C1753 C1754 1.362 . S
C1754 H1746 0.930 . S
C1754 C1753 1.362 . S
C1754 C1757 1.409 . S
C1755 H1747 0.930 . S
C1755 C1756 1.355 . S
C1755 C1757 1.415 . S
C1756 C1755 1.355 . S
C1756 C1758 1.419 . S
C1757 C1752 1.425 . S
C1757 C1754 1.409 . S
C1757 C1755 1.415 . S
C1758 H1748 0.930 . S
C1758 C1756 1.419 . S
C1758 C1759 1.362 . S
C1759 H1749 0.930 . S
C1759 C1752 1.409 . S
C1759 C1758 1.362 . S
H1760 C1766 0.930 . S
H1761 C1769 0.930 . S
H1762 C1770 0.930 . S
H1763 C1771 0.930 . S
H1764 C1774 0.930 . S
H1765 C1775 0.930 . S
C1766 H1760 0.930 . S
C1766 C1767 1.355 . S
C1766 C1768 1.415 . S
C1767 C1766 1.355 . S
C1767 C1769 1.419 . S
C1768 C1766 1.415 . S
C1768 C1773 1.425 . S
C1768 C1775 1.409 . S
C1769 H1761 0.930 . S
C1769 C1767 1.419 . S
C1769 C1770 1.362 . S
C1770 H1762 0.930 . S
C1770 C1769 1.362 . S
C1770 C1773 1.409 . S
C1771 H1763 0.930 . S
C1771 C1772 1.355 . S
C1771 C1773 1.415 . S
C1772 C1771 1.355 . S
C1772 C1774 1.419 . S
C1773 C1768 1.425 . S
C1773 C1770 1.409 . S
C1773 C1771 1.415 . S
C1774 H1764 0.930 . S
C1774 C1772 1.419 . S
C1774 C1775 1.362 . S
C1775 H1765 0.930 . S
C1775 C1768 1.409 . S
C1775 C1774 1.362 . S
H1776 C1782 0.930 1_655 S
H1777 C1785 0.930 . S
H1778 C1786 0.930 . S
H1779 C1787 0.930 1_455 S
H1780 C1790 0.930 . S
H1781 C1791 0.930 . S
C1782 H1776 0.930 1_455 S
C1782 C1783 1.355 . S
C1782 C1784 1.415 1_455 S
C1783 C1782 1.355 . S
C1783 C1785 1.419 . S
C1784 C1782 1.415 1_655 S
C1784 C1789 1.425 1_655 S
C1784 C1791 1.409 . S
C1785 H1777 0.930 . S
C1785 C1783 1.419 . S
C1785 C1786 1.362 . S
C1786 H1778 0.930 . S
C1786 C1785 1.362 . S
C1786 C1789 1.409 . S
C1787 H1779 0.930 1_655 S
C1787 C1788 1.355 . S
C1787 C1789 1.415 1_655 S
C1788 C1787 1.355 . S
C1788 C1790 1.419 . S
C1789 C1784 1.425 1_455 S
C1789 C1786 1.409 . S
C1789 C1787 1.415 1_455 S
C1790 H1780 0.930 . S
C1790 C1788 1.419 . S
C1790 C1791 1.362 . S
C1791 H1781 0.930 . S
C1791 C1784 1.409 . S
C1791 C1790 1.362 . S
H1792 C1798 0.930 . S
H1793 C1801 0.930 . S
H1794 C1802 0.930 . S
H1795 C1803 0.930 . S
H1796 C1806 0.930 . S
H1797 C1807 0.930 . S
C1798 H1792 0.930 . S
C1798 C1799 1.355 1_655 S
C1798 C1800 1.415 . S
C1799 C1798 1.355 1_455 S
C1799 C1801 1.419 1_545 S
C1800 C1798 1.415 . S
C1800 C1805 1.425 1_646 S
C1800 C1807 1.409 1_556 S
C1801 H1793 0.930 . S
C1801 C1799 1.419 1_565 S
C1801 C1802 1.362 . S
C1802 H1794 0.930 . S
C1802 C1801 1.362 . S
C1802 C1805 1.409 1_556 S
C1803 H1795 0.930 . S
C1803 C1804 1.355 1_455 S
C1803 C1805 1.415 . S
C1804 C1803 1.355 1_655 S
C1804 C1806 1.419 1_565 S
C1805 C1800 1.425 1_464 S
C1805 C1802 1.409 1_554 S
C1805 C1803 1.415 . S
C1806 H1796 0.930 . S
C1806 C1804 1.419 1_545 S
C1806 C1807 1.362 . S
C1807 H1797 0.930 . S
C1807 C1800 1.409 1_554 S
C1807 C1806 1.362 . S
H1808 C1814 0.930 . S
H1809 C1817 0.930 . S
H1810 C1818 0.954 . S
H1811 C1819 0.930 . S
H1812 C1822 0.930 . S
H1813 C1823 0.953 . S
C1814 H1808 0.930 . S
C1814 C1815 1.355 1_545 S
C1814 C1816 1.415 . S
C1815 C1814 1.355 1_565 S
C1815 C1817 1.419 . S
C1816 C1814 1.415 . S
C1816 C1821 1.425 1_546 S
C1816 C1823 1.409 1_556 S
C1817 H1809 0.930 . S
C1817 C1815 1.419 . S
C1817 C1818 1.362 . S
C1818 H1810 0.954 . S
C1818 C1817 1.362 . S
C1818 C1821 1.409 1_556 S
C1819 H1811 0.930 . S
C1819 C1820 1.355 1_565 S
C1819 C1821 1.415 . S
C1820 C1819 1.355 1_545 S
C1820 C1822 1.419 . S
C1821 C1816 1.425 1_564 S
C1821 C1818 1.409 1_554 S
C1821 C1819 1.415 . S
C1822 H1812 0.930 . S
C1822 C1820 1.419 . S
C1822 C1823 1.362 . S
C1823 H1813 0.953 . S
C1823 C1816 1.409 1_554 S
C1823 C1822 1.362 . S
H1824 C1830 0.930 . S
H1825 C1833 0.930 . S
H1826 C1834 0.930 . S
H1827 C1835 0.930 . S
H1828 C1838 0.930 . S
H1829 C1839 0.930 . S
C1830 H1824 0.930 . S
C1830 C1831 1.355 1_545 S
C1830 C1832 1.415 . S
C1831 C1830 1.355 1_565 S
C1831 C1833 1.419 . S
C1832 C1830 1.415 . S
C1832 C1837 1.425 1_545 S
C1832 C1839 1.409 . S
C1833 H1825 0.930 . S
C1833 C1831 1.419 . S
C1833 C1834 1.362 . S
C1834 H1826 0.930 . S
C1834 C1833 1.362 . S
C1834 C1837 1.409 . S
C1835 H1827 0.930 . S
C1835 C1836 1.355 1_565 S
C1835 C1837 1.415 . S
C1836 C1835 1.355 1_545 S
C1836 C1838 1.419 . S
C1837 C1832 1.425 1_565 S
C1837 C1834 1.409 . S
C1837 C1835 1.415 . S
C1838 H1828 0.930 . S
C1838 C1836 1.419 . S
C1838 C1839 1.362 . S
C1839 H1829 0.930 . S
C1839 C1832 1.409 . S
C1839 C1838 1.362 . S
H1840 C1846 0.930 . S
H1841 C1849 0.930 . S
H1842 C1850 0.930 . S
H1843 C1851 0.930 . S
H1844 C1854 0.930 . S
H1845 C1855 0.930 . S
C1846 H1840 0.930 . S
C1846 C1847 1.355 1_565 S
C1846 C1848 1.415 . S
C1847 C1846 1.355 1_545 S
C1847 C1849 1.419 1_655 S
C1848 C1846 1.415 . S
C1848 C1853 1.425 1_665 S
C1848 C1855 1.409 . S
C1849 H1841 0.930 . S
C1849 C1847 1.419 1_455 S
C1849 C1850 1.362 . S
C1850 H1842 0.930 . S
C1850 C1849 1.362 . S
C1850 C1853 1.409 . S
C1851 H1843 0.930 . S
C1851 C1852 1.356 1_545 S
C1851 C1853 1.415 . S
C1852 C1851 1.356 1_565 S
C1852 C1854 1.417 1_455 S
C1853 C1848 1.425 1_445 S
C1853 C1850 1.409 . S
C1853 C1851 1.415 . S
C1854 H1844 0.930 . S
C1854 C1852 1.417 1_655 S
C1854 C1855 1.362 . S
C1855 H1845 0.930 . S
C1855 C1848 1.409 . S
C1855 C1854 1.362 . S
H1856 C1862 0.930 . S
H1857 C1865 0.930 . S
H1858 C1866 0.949 . S
H1859 C1867 0.930 . S
H1860 C1870 0.930 . S
H1861 C1871 0.950 . S
C1862 H1856 0.930 . S
C1862 C1863 1.355 . S
C1862 C1864 1.415 . S
C1863 C1862 1.355 . S
C1863 C1865 1.419 . S
C1864 C1862 1.415 . S
C1864 C1869 1.425 1_554 S
C1864 C1871 1.409 1_554 S
C1865 H1857 0.930 . S
C1865 C1863 1.419 . S
C1865 C1866 1.362 . S
C1866 H1858 0.949 . S
C1866 C1865 1.362 . S
C1866 C1869 1.409 1_554 S
C1867 H1859 0.930 . S
C1867 C1868 1.355 . S
C1867 C1869 1.415 . S
C1868 C1867 1.355 . S
C1868 C1870 1.419 . S
C1869 C1864 1.425 1_556 S
C1869 C1866 1.409 1_556 S
C1869 C1867 1.415 . S
C1870 H1860 0.930 . S
C1870 C1868 1.419 . S
C1870 C1871 1.362 . S
C1871 H1861 0.950 . S
C1871 C1864 1.409 1_556 S
C1871 C1870 1.362 . S
H1872 C1878 0.930 . S
H1873 C1881 0.930 . S
H1874 C1882 0.930 . S
H1875 C1883 0.930 . S
H1876 C1886 0.930 . S
H1877 C1887 0.930 . S
C1878 H1872 0.930 . S
C1878 C1879 1.355 1_655 S
C1878 C1880 1.415 . S
C1879 C1878 1.355 1_455 S
C1879 C1881 1.419 . S
C1880 C1878 1.415 . S
C1880 C1885 1.425 1_654 S
C1880 C1887 1.409 1_554 S
C1881 H1873 0.930 . S
C1881 C1879 1.419 . S
C1881 C1882 1.362 . S
C1882 H1874 0.930 . S
C1882 C1881 1.362 . S
C1882 C1885 1.409 1_554 S
C1883 H1875 0.930 . S
C1883 C1884 1.355 1_455 S
C1883 C1885 1.415 . S
C1884 C1883 1.355 1_655 S
C1884 C1886 1.419 . S
C1885 C1880 1.425 1_456 S
C1885 C1882 1.409 1_556 S
C1885 C1883 1.415 . S
C1886 H1876 0.930 . S
C1886 C1884 1.419 . S
C1886 C1887 1.362 . S
C1887 H1877 0.930 . S
C1887 C1880 1.409 1_556 S
C1887 C1886 1.362 . S
H1888 C1894 0.930 . S
H1889 C1897 0.930 . S
H1890 C1898 0.930 . S
H1891 C1899 0.930 . S
H1892 C1902 0.930 . S
H1893 C1903 0.930 . S
C1894 H1888 0.930 . S
C1894 C1895 1.355 1_655 S
C1894 C1896 1.415 . S
C1895 C1894 1.355 1_455 S
C1895 C1897 1.419 . S
C1896 C1894 1.415 . S
C1896 C1901 1.425 1_655 S
C1896 C1903 1.409 . S
C1897 H1889 0.930 . S
C1897 C1895 1.419 . S
C1897 C1898 1.362 . S
C1898 H1890 0.930 . S
C1898 C1897 1.362 . S
C1898 C1901 1.409 . S
C1899 H1891 0.930 . S
C1899 C1900 1.355 1_455 S
C1899 C1901 1.415 . S
C1900 C1899 1.355 1_655 S
C1900 C1902 1.419 . S
C1901 C1896 1.425 1_455 S
C1901 C1898 1.409 . S
C1901 C1899 1.415 . S
C1902 H1892 0.930 . S
C1902 C1900 1.419 . S
C1902 C1903 1.362 . S
C1903 H1893 0.930 . S
C1903 C1896 1.409 . S
C1903 C1902 1.362 . S
H1904 C1910 0.930 . S
H1905 C1913 0.930 . S
H1906 C1914 0.930 . S
H1907 C1915 0.930 . S
H1908 C1918 0.930 . S
H1909 C1919 0.930 . S
C1910 H1904 0.930 . S
C1910 C1911 1.355 . S
C1910 C1912 1.415 . S
C1911 C1910 1.355 . S
C1911 C1913 1.419 . S
C1912 C1910 1.415 . S
C1912 C1917 1.425 . S
C1912 C1919 1.409 . S
C1913 H1905 0.930 . S
C1913 C1911 1.419 . S
C1913 C1914 1.362 . S
C1914 H1906 0.930 . S
C1914 C1913 1.362 . S
C1914 C1917 1.409 . S
C1915 H1907 0.930 . S
C1915 C1916 1.355 . S
C1915 C1917 1.415 . S
C1916 C1915 1.355 . S
C1916 C1918 1.419 . S
C1917 C1912 1.425 . S
C1917 C1914 1.409 . S
C1917 C1915 1.415 . S
C1918 H1908 0.930 . S
C1918 C1916 1.419 . S
C1918 C1919 1.362 . S
C1919 H1909 0.930 . S
C1919 C1912 1.409 . S
C1919 C1918 1.362 . S
C1415 C137 1.524 . S
C1420 C29 1.523 . S
C1431 C196 1.505 . S
C1436 C293 1.506 . S
C1447 C401 1.516 . S
C1452 C489 1.515 . S
C1463 C645 1.517 . S
C1468 C548 1.517 . S
C1479 C841 1.521 . S
C1484 C753 1.522 . S
C1495 C997 1.505 . S
C1500 C909 1.505 . S
C1511 C1201 1.502 . S
C1516 C1113 1.503 . S
C1527 C1349 1.498 . S
C1532 C1252 1.499 . S
C1543 C313 1.212 . S
C1548 C49 1.169 . S
C1559 C117 1.233 . S
C1564 C233 1.233 . S
C1575 C636 1.249 . S
C1580 C409 1.212 . S
C1591 C557 1.237 . S
C1596 C497 1.193 . S
C1607 C733 1.243 . S
C1612 C1017 1.209 . S
C1623 C929 1.185 . S
C1628 C821 1.170 . S
C1639 C1340 1.207 . S
C1644 C1105 1.168 . S
C1655 C1193 1.222 . S
C1660 C1261 1.175 . S
C1671 C57 1.696 . S
C1676 C812 1.694 . S
C1687 C108 1.741 . S
C1692 C724 1.731 . S
C1703 C1025 1.718 . S
C1708 C225 1.731 . S
C1719 C937 1.718 . S
C1724 C321 1.706 . S
C1735 C1173 1.739 . S
C1740 C372 1.731 . S
C1751 C1085 1.703 . S
C1756 C460 1.698 . S
C1767 C577 1.745 . S
C1772 C1377 1.746 . S
C1783 C673 1.746 . S
C1788 C1281 1.745 . S
C1799 C381 1.299 1_455 S
C1804 C20 1.303 1_655 S
C1815 C469 1.305 . S
C1820 C145 1.305 . S
C1831 C585 1.320 . S
C1836 C205 1.320 . S
C1847 C665 1.337 1_655 S
C1852 C284 1.333 1_455 S
C1863 C761 1.355 . S
C1868 C1076 1.352 . S
C1879 C849 1.322 1_455 S
C1884 C1164 1.318 1_655 S
C1895 C1289 1.351 1_455 S
C1900 C900 1.354 1_655 S
C1911 C1369 1.257 . S
C1916 C988 1.258 . S
