# Generated by pormake.
# Topology xfe, (7)-cn, num edge types: 1
# Building blocks:
#     Node 0, Type 0, BuildingBlock: NUHQUE_clean_sbu_2, # of connection points: 7
#     Node 1, Type 0, BuildingBlock: NUHQUE_clean_sbu_2, # of connection points: 7
#     Node 2, Type 0, BuildingBlock: NUHQUE_clean_sbu_2, # of connection points: 7
#     Node 3, Type 0, BuildingBlock: NUHQUE_clean_sbu_2, # of connection points: 7
#     Node 4, Type 0, BuildingBlock: NUHQUE_clean_sbu_2, # of connection points: 7
#     Node 5, Type 0, BuildingBlock: NUHQUE_clean_sbu_2, # of connection points: 7
#     Node 6, Type 0, BuildingBlock: NUHQUE_clean_sbu_2, # of connection points: 7
#     Node 7, Type 0, BuildingBlock: NUHQUE_clean_sbu_2, # of connection points: 7
#     Node 8, Type 0, BuildingBlock: NUHQUE_clean_sbu_2, # of connection points: 7
#     Node 9, Type 0, BuildingBlock: NUHQUE_clean_sbu_2, # of connection points: 7
#     Node 10, Type 0, BuildingBlock: NUHQUE_clean_sbu_2, # of connection points: 7
#     Node 11, Type 0, BuildingBlock: NUHQUE_clean_sbu_2, # of connection points: 7
#     Node 12, Type 0, BuildingBlock: NUHQUE_clean_sbu_2, # of connection points: 7
#     Node 13, Type 0, BuildingBlock: NUHQUE_clean_sbu_2, # of connection points: 7
#     Node 14, Type 0, BuildingBlock: NUHQUE_clean_sbu_2, # of connection points: 7
#     Node 15, Type 0, BuildingBlock: NUHQUE_clean_sbu_2, # of connection points: 7
#     Edge 16, Type (0, 0), BuildingBlock: ZUJKAS_clean_linker_0, # of connection points: 2
#     Edge 17, Type (0, 0), BuildingBlock: ZUJKAS_clean_linker_0, # of connection points: 2
#     Edge 18, Type (0, 0), BuildingBlock: ZUJKAS_clean_linker_0, # of connection points: 2
#     Edge 19, Type (0, 0), BuildingBlock: ZUJKAS_clean_linker_0, # of connection points: 2
#     Edge 20, Type (0, 0), BuildingBlock: ZUJKAS_clean_linker_0, # of connection points: 2
#     Edge 21, Type (0, 0), BuildingBlock: ZUJKAS_clean_linker_0, # of connection points: 2
#     Edge 22, Type (0, 0), BuildingBlock: ZUJKAS_clean_linker_0, # of connection points: 2
#     Edge 23, Type (0, 0), BuildingBlock: ZUJKAS_clean_linker_0, # of connection points: 2
#     Edge 24, Type (0, 0), BuildingBlock: ZUJKAS_clean_linker_0, # of connection points: 2
#     Edge 25, Type (0, 0), BuildingBlock: ZUJKAS_clean_linker_0, # of connection points: 2
#     Edge 26, Type (0, 0), BuildingBlock: ZUJKAS_clean_linker_0, # of connection points: 2
#     Edge 27, Type (0, 0), BuildingBlock: ZUJKAS_clean_linker_0, # of connection points: 2
#     Edge 28, Type (0, 0), BuildingBlock: ZUJKAS_clean_linker_0, # of connection points: 2
#     Edge 29, Type (0, 0), BuildingBlock: ZUJKAS_clean_linker_0, # of connection points: 2
#     Edge 30, Type (0, 0), BuildingBlock: ZUJKAS_clean_linker_0, # of connection points: 2
#     Edge 31, Type (0, 0), BuildingBlock: ZUJKAS_clean_linker_0, # of connection points: 2
#     Edge 32, Type (0, 0), BuildingBlock: ZUJKAS_clean_linker_0, # of connection points: 2
#     Edge 33, Type (0, 0), BuildingBlock: ZUJKAS_clean_linker_0, # of connection points: 2
#     Edge 34, Type (0, 0), BuildingBlock: ZUJKAS_clean_linker_0, # of connection points: 2
#     Edge 35, Type (0, 0), BuildingBlock: ZUJKAS_clean_linker_0, # of connection points: 2
#     Edge 36, Type (0, 0), BuildingBlock: ZUJKAS_clean_linker_0, # of connection points: 2
#     Edge 37, Type (0, 0), BuildingBlock: ZUJKAS_clean_linker_0, # of connection points: 2
#     Edge 38, Type (0, 0), BuildingBlock: ZUJKAS_clean_linker_0, # of connection points: 2
#     Edge 39, Type (0, 0), BuildingBlock: ZUJKAS_clean_linker_0, # of connection points: 2
#     Edge 40, Type (0, 0), BuildingBlock: ZUJKAS_clean_linker_0, # of connection points: 2
#     Edge 41, Type (0, 0), BuildingBlock: ZUJKAS_clean_linker_0, # of connection points: 2
#     Edge 42, Type (0, 0), BuildingBlock: ZUJKAS_clean_linker_0, # of connection points: 2
#     Edge 43, Type (0, 0), BuildingBlock: ZUJKAS_clean_linker_0, # of connection points: 2
#     Edge 44, Type (0, 0), BuildingBlock: ZUJKAS_clean_linker_0, # of connection points: 2
#     Edge 45, Type (0, 0), BuildingBlock: ZUJKAS_clean_linker_0, # of connection points: 2
#     Edge 46, Type (0, 0), BuildingBlock: ZUJKAS_clean_linker_0, # of connection points: 2
#     Edge 47, Type (0, 0), BuildingBlock: ZUJKAS_clean_linker_0, # of connection points: 2
#     Edge 48, Type (0, 0), BuildingBlock: ZUJKAS_clean_linker_0, # of connection points: 2
#     Edge 49, Type (0, 0), BuildingBlock: ZUJKAS_clean_linker_0, # of connection points: 2
#     Edge 50, Type (0, 0), BuildingBlock: ZUJKAS_clean_linker_0, # of connection points: 2
#     Edge 51, Type (0, 0), BuildingBlock: ZUJKAS_clean_linker_0, # of connection points: 2
#     Edge 52, Type (0, 0), BuildingBlock: ZUJKAS_clean_linker_0, # of connection points: 2
#     Edge 53, Type (0, 0), BuildingBlock: ZUJKAS_clean_linker_0, # of connection points: 2
#     Edge 54, Type (0, 0), BuildingBlock: ZUJKAS_clean_linker_0, # of connection points: 2
#     Edge 55, Type (0, 0), BuildingBlock: ZUJKAS_clean_linker_0, # of connection points: 2
#     Edge 56, Type (0, 0), BuildingBlock: ZUJKAS_clean_linker_0, # of connection points: 2
#     Edge 57, Type (0, 0), BuildingBlock: ZUJKAS_clean_linker_0, # of connection points: 2
#     Edge 58, Type (0, 0), BuildingBlock: ZUJKAS_clean_linker_0, # of connection points: 2
#     Edge 59, Type (0, 0), BuildingBlock: ZUJKAS_clean_linker_0, # of connection points: 2
#     Edge 60, Type (0, 0), BuildingBlock: ZUJKAS_clean_linker_0, # of connection points: 2
#     Edge 61, Type (0, 0), BuildingBlock: ZUJKAS_clean_linker_0, # of connection points: 2
#     Edge 62, Type (0, 0), BuildingBlock: ZUJKAS_clean_linker_0, # of connection points: 2
#     Edge 63, Type (0, 0), BuildingBlock: ZUJKAS_clean_linker_0, # of connection points: 2
#     Edge 64, Type (0, 0), BuildingBlock: ZUJKAS_clean_linker_0, # of connection points: 2
#     Edge 65, Type (0, 0), BuildingBlock: ZUJKAS_clean_linker_0, # of connection points: 2
#     Edge 66, Type (0, 0), BuildingBlock: ZUJKAS_clean_linker_0, # of connection points: 2
#     Edge 67, Type (0, 0), BuildingBlock: ZUJKAS_clean_linker_0, # of connection points: 2
#     Edge 68, Type (0, 0), BuildingBlock: ZUJKAS_clean_linker_0, # of connection points: 2
#     Edge 69, Type (0, 0), BuildingBlock: ZUJKAS_clean_linker_0, # of connection points: 2
#     Edge 70, Type (0, 0), BuildingBlock: ZUJKAS_clean_linker_0, # of connection points: 2
#     Edge 71, Type (0, 0), BuildingBlock: ZUJKAS_clean_linker_0, # of connection points: 2
# Relax obj value: 0.198
# Max RMSD: 0.238
# Mean RMSD: 0.238
data_MOF--net-xfe--node1-NUHQUE_clean_sbu_2--edge1-ZUJKAS_clean_linker_0
_symmetry_space_group_name_H-M    P1
_symmetry_Int_Tables_number       1
_symmetry_cell_setting            triclinic
loop_
_symmetry_equiv_pos_as_xyz
'x, y, z'
_cell_length_a     49.261964
_cell_length_b     49.21046
_cell_length_c     59.034629
_cell_angle_alpha  89.982026
_cell_angle_beta   89.990888
_cell_angle_gamma 90.051621
loop_
_atom_site_label
_atom_site_type_symbol
_atom_site_fract_x
_atom_site_fract_y
_atom_site_fract_z
_atom_type_partial_charge
O0 O 0.05175 0.0907 0.11207 0.0
Tb1 Tb 1.01795 0.08182 0.13494 0.0
Eu2 Eu 1.01217 0.06916 0.19089 0.0
C3 C 0.05319 0.11562 0.10384 0.0
O4 O 0.03342 0.1326 0.10863 0.0
C5 C 0.0231 0.12698 0.17182 0.0
O6 O 0.99119 0.05707 0.22309 0.0
C7 C 0.06296 0.05568 0.19464 0.0
C8 C 0.9648 0.05338 0.22376 0.0
O9 O 0.95015 0.05941 0.20585 0.0
C10 C 0.99257 0.02737 0.15214 0.0
C11 C 0.08267 0.03338 0.19847 0.0
C12 C 0.10411 0.03064 0.1829 0.0
C13 C 0.12483 1.01165 0.18654 0.0
C14 C 0.12363 0.99478 0.20559 0.0
C15 C 0.10261 0.99698 0.22137 0.0
C16 C 0.0821 1.01655 0.21799 0.0
O17 O 0.03657 0.11291 0.15657 0.0
O18 O 1.00645 0.11421 0.18557 0.0
O19 O 0.99291 0.09239 0.1059 0.0
O20 O 0.97685 0.09799 0.13915 0.0
C21 C 0.9719 0.10024 0.11752 0.0
O22 O 0.98639 0.03924 0.17144 0.0
O23 O 1.01151 0.03773 0.13872 0.0
O24 O 0.04797 0.06359 0.21183 0.0
O25 O 0.05027 0.05671 0.17501 0.0
H26 H 0.10506 0.04386 0.16821 0.0
H27 H 0.13928 0.97958 0.20821 0.0
H28 H 0.06603 1.01865 0.23039 0.0
O29 O 0.23317 0.781 0.36239 0.0
Tb30 Tb 0.23861 0.74768 0.3865 0.0
Eu31 Eu 0.25011 0.73959 0.44235 0.0
C32 C 0.22962 0.80623 0.36933 0.0
O33 O 0.23372 0.81202 0.39078 0.0
C34 C 0.19279 0.7513 0.42268 0.0
O35 O 0.2612 0.71813 0.47461 0.0
C36 C 0.26347 0.79035 0.44704 0.0
C37 C 0.26564 0.69182 0.47511 0.0
O38 O 0.26114 0.67731 0.45682 0.0
C39 C 0.29241 0.72068 0.40364 0.0
C40 C 0.28554 0.81011 0.45149 0.0
C41 C 0.28774 0.83246 0.43678 0.0
C42 C 0.30672 0.8531 0.44089 0.0
C43 C 0.32402 0.85094 0.45959 0.0
C44 C 0.3223 0.829 0.47456 0.0
C45 C 0.30279 0.80852 0.47069 0.0
O46 O 0.20713 0.76551 0.40806 0.0
O47 O 0.20526 0.73411 0.43615 0.0
O48 O 0.22448 0.72456 0.35739 0.0
O49 O 0.22394 0.70585 0.38995 0.0
C50 C 0.21871 0.70248 0.3685 0.0
O51 O 0.28029 0.71429 0.4228 0.0
O52 O 0.28243 0.73986 0.39024 0.0
O53 O 0.2552 0.77499 0.46389 0.0
O54 O 0.26302 0.77801 0.42723 0.0
H55 H 0.27421 0.83411 0.42236 0.0
H56 H 0.33928 0.86646 0.46254 0.0
H57 H 0.3011 0.79167 0.48242 0.0
O58 O 0.54035 0.9562 0.61547 0.0
Tb59 Tb 0.57346 0.96171 0.63972 0.0
Eu60 Eu 0.58163 0.97297 0.69559 0.0
C61 C 0.51503 0.95279 0.62218 0.0
O62 O 0.50892 0.95709 0.64355 0.0
C63 C 0.56866 0.91566 0.67581 0.0
O64 O 0.60263 0.9846 0.72789 0.0
C65 C 0.53208 0.99037 0.69961 0.0
C66 C 0.62912 0.98398 0.73027 0.0
O67 O 0.64421 0.97394 0.71394 0.0
C68 C 0.6014 1.01466 0.65727 0.0
C69 C 0.51748 1.01637 0.70369 0.0
C70 C 0.50654 0.03054 0.68508 0.0
C71 C 0.49282 0.05511 0.68832 0.0
C72 C 0.48966 0.0655 0.71016 0.0
C73 C 0.4992 0.05138 0.72903 0.0
C74 C 0.51311 0.02664 0.72588 0.0
O75 O 0.55505 0.93017 0.66092 0.0
O76 O 0.58551 0.92786 0.68975 0.0
O77 O 0.59696 0.94963 0.61021 0.0
O78 O 0.61456 0.94515 0.64296 0.0
C79 C 0.61843 0.94192 0.62128 0.0
O80 O 0.60845 1.00168 0.67587 0.0
O81 O 0.58137 1.00541 0.64441 0.0
O82 O 0.54605 0.98022 0.71658 0.0
O83 O 0.54434 0.98746 0.67991 0.0
H84 H 0.50854 1.02248 0.66807 0.0
H85 H 0.47827 0.08416 0.7126 0.0
H86 H 0.52031 1.01555 0.74055 0.0
O87 O 0.35842 0.26026 0.86594 0.0
Tb88 Tb 0.35464 0.29601 0.88779 0.0
Eu89 Eu 0.34587 0.30784 0.94297 0.0
C90 C 0.36305 0.23602 0.8747 0.0
O91 O 0.36144 0.233 0.89675 0.0
C92 C 0.40256 0.29492 0.92279 0.0
O93 O 0.33334 0.3289 0.97506 0.0
C94 C 0.33226 0.25705 0.94679 0.0
C95 C 0.32918 0.35525 0.97567 0.0
O96 O 0.33527 0.37003 0.95784 0.0
C97 C 0.30341 0.32682 0.90494 0.0
C98 C 0.31096 0.23674 0.95195 0.0
C99 C 0.30894 0.21416 0.93748 0.0
C100 C 0.29116 0.19272 0.94243 0.0
C101 C 0.27516 0.19414 0.96197 0.0
C102 C 0.27672 0.21633 0.97669 0.0
C103 C 0.29458 0.23792 0.97165 0.0
O104 O 0.38781 0.28011 0.90884 0.0
O105 O 0.39055 0.31272 0.93601 0.0
O106 O 0.36603 0.31757 0.85699 0.0
O107 O 0.37149 0.33709 0.8889 0.0
C108 C 0.37416 0.33965 0.86705 0.0
O109 O 0.31744 0.3344 0.9228 0.0
O110 O 0.31122 0.30543 0.89297 0.0
O111 O 0.34207 0.27152 0.96361 0.0
O112 O 0.3309 0.27037 0.92748 0.0
H113 H 0.32168 0.21297 0.92255 0.0
H114 H 0.26071 0.17806 0.96559 0.0
H115 H 0.29605 0.25505 0.9831 0.0
O116 O 0.05646 0.9591 0.88011 0.0
Tb117 Tb 0.02308 0.96456 0.8561 0.0
Eu118 Eu 1.01764 0.97715 0.79986 0.0
C119 C 0.08159 0.95532 0.87306 0.0
O120 O 0.08724 0.95916 0.85155 0.0
C121 C 0.02668 0.91924 0.81943 0.0
O122 O 0.99888 0.9914 0.76734 0.0
C123 C 0.06891 0.98926 0.79803 0.0
C124 C 0.97296 0.9882 0.76291 0.0
O125 O 0.95768 0.97446 0.77712 0.0
C126 C 0.99643 1.0184 0.83855 0.0
C127 C 0.09007 1.01013 0.79385 0.0
C128 C 0.11002 1.01365 0.81062 0.0
C129 C 0.13262 0.03023 0.80666 0.0
C130 C 0.13492 0.0439 0.786 0.0
C131 C 0.11556 0.04078 0.76885 0.0
C132 C 0.09279 0.02397 0.77285 0.0
O133 O 0.04077 0.93319 0.83438 0.0
O134 O 1.0106 0.93227 0.80539 0.0
O135 O 1.00019 0.95023 0.88529 0.0
O136 O 0.98122 0.94998 0.85285 0.0
C137 C 0.97802 0.94458 0.8743 0.0
O138 O 0.99102 1.0066 0.81903 0.0
O139 O 1.01517 1.00839 0.85233 0.0
O140 O 0.05507 0.98006 0.78061 0.0
O141 O 0.05468 0.99056 0.81692 0.0
H142 H 0.10846 1.00273 0.82652 0.0
H143 H 0.152 0.05744 0.78325 0.0
H144 H 0.07794 1.02104 0.75954 0.0
O145 O 0.35848 0.78367 0.12908 0.0
Tb146 Tb 0.35348 0.74808 0.10715 0.0
Eu147 Eu 0.34306 0.73737 0.05208 0.0
C148 C 0.36449 0.80754 0.12016 0.0
O149 O 0.36274 0.81059 0.09811 0.0
C150 C 0.40035 0.74883 0.07145 0.0
O151 O 0.33181 0.71666 0.01954 0.0
C152 C 0.33042 0.78841 0.04797 0.0
C153 C 0.32701 0.69043 0.01863 0.0
O154 O 0.33091 0.6755 0.03679 0.0
C155 C 0.30022 0.71946 0.09048 0.0
C156 C 0.30869 0.80844 0.04322 0.0
C157 C 0.30597 0.83048 0.05821 0.0
C158 C 0.28764 0.85151 0.05359 0.0
C159 C 0.27144 0.85008 0.0342 0.0
C160 C 0.27346 0.82831 0.01912 0.0
C161 C 0.29234 0.80742 0.02345 0.0
O162 O 0.38605 0.76389 0.08545 0.0
O163 O 0.38775 0.73106 0.05862 0.0
O164 O 0.36658 0.72609 0.13727 0.0
O165 O 0.36789 0.70615 0.10522 0.0
C166 C 0.37241 0.70353 0.12684 0.0
O167 O 0.3128 0.71222 0.07174 0.0
O168 O 0.30975 0.73959 0.10315 0.0
O169 O 0.33925 0.77342 0.0311 0.0
O170 O 0.32994 0.77553 0.06752 0.0
H171 H 0.31859 0.83163 0.07322 0.0
H172 H 0.25671 0.86599 0.03087 0.0
H173 H 0.2943 0.79074 0.01159 0.0
O174 O 0.53185 0.08315 0.37705 0.0
Tb175 Tb 0.56768 0.0792 0.35535 0.0
Eu176 Eu 0.57949 0.07025 0.30023 0.0
C177 C 0.50772 0.08822 0.36831 0.0
O178 O 0.50464 0.08681 0.34626 0.0
C179 C 0.56667 0.12696 0.32024 0.0
O180 O 0.6 0.05818 0.26779 0.0
C181 C 0.52865 0.05663 0.29703 0.0
C182 C 0.6263 0.05398 0.26681 0.0
O183 O 0.64135 0.05952 0.28459 0.0
C184 C 0.59886 0.02797 0.33831 0.0
C185 C 0.50782 0.03551 0.29262 0.0
C186 C 0.48778 0.03158 0.30928 0.0
C187 C 0.4653 1.01495 0.30506 0.0
C188 C 0.46327 1.0015 0.2843 0.0
C189 C 0.48282 1.00489 0.26735 0.0
C190 C 0.5054 1.02186 0.27154 0.0
O191 O 0.55171 0.1121 0.334 0.0
O192 O 0.58466 0.11496 0.30722 0.0
O193 O 0.58862 0.09033 0.38647 0.0
O194 O 0.60848 0.09677 0.35483 0.0
C195 C 0.61069 0.09903 0.37674 0.0
O196 O 0.60619 0.04179 0.32024 0.0
O197 O 0.57752 0.03579 0.35032 0.0
O198 O 0.54295 0.06594 0.27991 0.0
O199 O 0.5422 0.05577 0.31623 0.0
H200 H 0.48912 0.04224 0.32529 0.0
H201 H 0.44626 0.98794 0.28133 0.0
H202 H 0.52033 0.02505 0.25833 0.0
O203 O 0.23399 0.26026 0.6232 0.0
Tb204 Tb 0.23735 0.29649 0.60175 0.0
Eu205 Eu 0.24441 0.31117 0.54684 0.0
C206 C 0.22711 0.23656 0.61441 0.0
O207 O 0.22691 0.23383 0.59228 0.0
C208 C 0.18819 0.29574 0.56745 0.0
O209 O 0.25304 0.33451 0.51492 0.0
C210 C 0.26266 0.26216 0.54058 0.0
C211 C 0.25849 0.36064 0.51513 0.0
O212 O 0.25572 0.37433 0.53409 0.0
C213 C 0.28773 0.3282 0.58432 0.0
C214 C 0.28894 0.24783 0.53731 0.0
C215 C 0.30272 0.23748 0.55634 0.0
C216 C 0.32736 0.22371 0.55378 0.0
C217 C 0.33828 0.22005 0.53217 0.0
C218 C 0.32461 0.22912 0.51289 0.0
C219 C 0.29974 0.24295 0.51539 0.0
O220 O 0.2032 0.28122 0.58142 0.0
O221 O 0.19965 0.31357 0.55393 0.0
O222 O 0.22811 0.31735 0.63335 0.0
O223 O 0.22032 0.33752 0.60207 0.0
C224 C 0.21924 0.33961 0.62404 0.0
O225 O 0.27268 0.33719 0.56754 0.0
O226 O 0.28054 0.30583 0.59529 0.0
O227 O 0.25411 0.27776 0.524 0.0
O228 O 0.25789 0.27255 0.56074 0.0
H229 H 0.29427 0.23987 0.57318 0.0
H230 H 0.35695 0.20858 0.5302 0.0
H231 H 0.28892 0.24967 0.50043 0.0
O232 O 0.85919 0.28003 0.63403 0.0
Tb233 Tb 0.85224 0.24686 0.61009 0.0
Eu234 Eu 0.83939 0.24069 0.55394 0.0
C235 C 0.86243 0.30525 0.62695 0.0
O236 O 0.85708 0.31105 0.6057 0.0
C237 C 0.89715 0.25021 0.57321 0.0
O238 O 0.82604 0.22074 0.52162 0.0
C239 C 0.82797 0.29205 0.55084 0.0
C240 C 0.82199 0.19439 0.52054 0.0
O241 O 0.82811 0.17921 0.53812 0.0
C242 C 0.79785 0.22115 0.59306 0.0
C243 C 0.80733 0.31301 0.54577 0.0
C244 C 0.80717 0.33648 0.55934 0.0
C245 C 0.79032 0.35841 0.55392 0.0
C246 C 0.77286 0.35651 0.53533 0.0
C247 C 0.77216 0.33323 0.52181 0.0
C248 C 0.78973 0.31141 0.5268 0.0
O249 O 0.88339 0.26449 0.58813 0.0
O250 O 0.88406 0.23356 0.55969 0.0
O251 O 0.86571 0.22294 0.63898 0.0
O252 O 0.86663 0.20504 0.60612 0.0
C253 C 0.87146 0.20108 0.62757 0.0
O254 O 0.80939 0.21519 0.57357 0.0
O255 O 0.80829 0.23992 0.60659 0.0
O256 O 0.83717 0.27749 0.53386 0.0
O257 O 0.82613 0.27848 0.57003 0.0
H258 H 0.82072 0.33802 0.57376 0.0
H259 H 0.75938 0.37333 0.53144 0.0
H260 H 0.78974 0.29355 0.51607 0.0
O261 O 0.73396 0.76067 0.12785 0.0
Tb262 Tb 0.73858 0.79567 0.10521 0.0
Eu263 Eu 0.74927 0.80467 0.04944 0.0
C264 C 0.72895 0.73616 0.11978 0.0
O265 O 0.73093 0.73208 0.09786 0.0
C266 C 0.69213 0.79353 0.06924 0.0
O267 O 0.76316 0.82362 0.01687 0.0
C268 C 0.76178 0.75351 0.0471 0.0
C269 C 0.7626 0.84996 0.01336 0.0
O270 O 0.75126 0.8659 0.02848 0.0
C271 C 0.79122 0.8249 0.08764 0.0
C272 C 0.78311 0.73315 0.04232 0.0
C273 C 0.78437 0.71036 0.05661 0.0
C274 C 0.80272 0.68926 0.0523 0.0
C275 C 0.82032 0.69138 0.03378 0.0
C276 C 0.81953 0.71377 0.01922 0.0
C277 C 0.80066 0.73476 0.02333 0.0
O278 O 0.70659 0.77888 0.08346 0.0
O279 O 0.70456 0.81097 0.05593 0.0
O280 O 0.72671 0.81749 0.13571 0.0
O281 O 0.72141 0.83664 0.10363 0.0
C282 C 0.71854 0.8394 0.12545 0.0
O283 O 0.77859 0.83128 0.06872 0.0
O284 O 0.78208 0.80499 0.10073 0.0
O285 O 0.75197 0.76739 0.02995 0.0
O286 O 0.76347 0.76759 0.06602 0.0
H287 H 0.77062 0.70878 0.07089 0.0
H288 H 0.83515 0.67551 0.03069 0.0
H289 H 0.79971 0.75203 0.01197 0.0
O290 O 0.73454 0.27736 0.85948 0.0
Tb291 Tb 0.73977 0.24491 0.8844 0.0
Eu292 Eu 0.75216 0.24101 0.94034 0.0
C293 C 0.73007 0.30267 0.86582 0.0
O294 O 0.73267 0.30904 0.88731 0.0
C295 C 0.69407 0.24913 0.9209 0.0
O296 O 0.76649 0.22355 0.97333 0.0
C297 C 0.76349 0.29254 0.94102 0.0
C298 C 0.76149 0.19839 0.97944 0.0
O299 O 0.74607 0.18301 0.96656 0.0
C300 C 0.79387 0.21965 0.90227 0.0
C301 C 0.78394 0.31429 0.94438 0.0
C302 C 0.78637 0.33394 0.92722 0.0
C303 C 0.80265 0.35696 0.93031 0.0
C304 C 0.81708 0.35998 0.95055 0.0
C305 C 0.81484 0.34105 0.96817 0.0
C306 C 0.79839 0.31784 0.96498 0.0
O307 O 0.70766 0.26265 0.90535 0.0
O308 O 0.70734 0.23351 0.93517 0.0
O309 O 0.72627 0.22067 0.8557 0.0
O310 O 0.72669 0.20263 0.88851 0.0
C311 C 0.72149 0.19859 0.86714 0.0
O312 O 0.782 0.2142 0.92175 0.0
O313 O 0.78368 0.23827 0.88847 0.0
O314 O 0.75503 0.27899 0.95887 0.0
O315 O 0.7646 0.27782 0.9224 0.0
H316 H 0.77482 0.33179 0.9117 0.0
H317 H 0.83047 0.37731 0.95261 0.0
H318 H 0.79617 0.30328 0.97863 0.0
O319 O 0.85691 0.76011 0.36641 0.0
Tb320 Tb 0.85293 0.7963 0.38788 0.0
Eu321 Eu 0.84432 0.80909 0.4429 0.0
C322 C 0.864 0.73648 0.37522 0.0
O323 O 0.86396 0.73371 0.39735 0.0
C324 C 0.90137 0.7957 0.42298 0.0
O325 O 0.83456 0.83001 0.47575 0.0
C326 C 0.82809 0.75896 0.4466 0.0
C327 C 0.829 0.85609 0.47678 0.0
O328 O 0.83164 0.8711 0.45851 0.0
C329 C 0.80203 0.82779 0.405 0.0
C330 C 0.80357 0.74165 0.44897 0.0
C331 C 0.79635 0.72488 0.43065 0.0
C332 C 0.77413 0.70728 0.43224 0.0
C333 C 0.75896 0.70635 0.45223 0.0
C334 C 0.76621 0.72202 0.47102 0.0
C335 C 0.78868 0.73971 0.46949 0.0
O336 O 0.88695 0.78128 0.4085 0.0
O337 O 0.88921 0.81294 0.43661 0.0
O338 O 0.86284 0.81739 0.35652 0.0
O339 O 0.8699 0.83735 0.38803 0.0
C340 C 0.87147 0.8396 0.36609 0.0
O341 O 0.81624 0.83582 0.42263 0.0
O342 O 0.80958 0.80589 0.39355 0.0
O343 O 0.8355 0.77385 0.464 0.0
O344 O 0.83185 0.77117 0.42701 0.0
H345 H 0.80823 0.72523 0.41518 0.0
H346 H 0.74219 0.69212 0.45362 0.0
H347 H 0.79459 0.75153 0.48416 0.0
O348 O 0.55699 0.58192 0.61156 0.0
Tb349 Tb 0.52239 0.57722 0.63452 0.0
Eu350 Eu 0.51285 0.56597 0.68958 0.0
C351 C 0.58153 0.58701 0.61946 0.0
O352 O 0.58584 0.58504 0.64134 0.0
C353 C 0.52542 0.62378 0.67092 0.0
O354 O 0.49255 0.55489 0.72235 0.0
C355 C 0.56314 0.55017 0.69164 0.0
C356 C 0.4662 0.55109 0.7236 0.0
O357 O 0.45106 0.55624 0.70579 0.0
C358 C 0.49243 0.52515 0.65109 0.0
C359 C 0.58159 0.52642 0.69277 0.0
C360 C 0.6003 0.52305 0.67503 0.0
C361 C 0.61903 0.50178 0.67544 0.0
C362 C 0.61918 0.48366 0.69364 0.0
C363 C 0.60142 0.48693 0.71196 0.0
C364 C 0.58258 0.50855 0.71161 0.0
O365 O 0.53919 0.60985 0.65571 0.0
O366 O 0.50868 0.61111 0.68466 0.0
O367 O 0.49981 0.58944 0.60451 0.0
O368 O 0.48133 0.59383 0.63696 0.0
C369 C 0.47807 0.59715 0.61523 0.0
O370 O 0.48539 0.53842 0.6695 0.0
O371 O 0.51343 0.53353 0.63892 0.0
O372 O 0.54869 0.55631 0.70962 0.0
O373 O 0.55022 0.55439 0.67244 0.0
H374 H 0.6005 0.53714 0.66091 0.0
H375 H 0.63427 0.4676 0.69405 0.0
H376 H 0.56901 0.51142 0.72585 0.0
O377 O 0.03298 0.46157 0.1148 0.0
Tb378 Tb 0.06869 0.46583 0.13671 0.0
Eu379 Eu 0.0759 0.47671 0.19303 0.0
C380 C 1.00922 0.4544 0.12329 0.0
O381 O 1.0061 0.45409 0.14537 0.0
C382 C 0.06765 0.41881 0.17285 0.0
O383 O 0.09407 0.49106 0.22574 0.0
C384 C 0.02452 0.48828 0.19456 0.0
C385 C 0.12004 0.48858 0.23029 0.0
O386 O 0.13577 0.4753 0.21615 0.0
C387 C 0.09699 0.51868 0.15507 0.0
C388 C 1.00297 0.50863 0.19889 0.0
C389 C 0.98249 0.51122 0.18247 0.0
C390 C 0.95956 0.52721 0.18662 0.0
C391 C 0.95742 0.54124 0.20712 0.0
C392 C 0.97738 0.53914 0.2239 0.0
C393 C 1.00048 0.52289 0.21971 0.0
O394 O 0.0534 0.43242 0.15778 0.0
O395 O 0.08341 0.43204 0.18705 0.0
O396 O 0.09012 0.4551 0.10571 0.0
O397 O 0.10996 0.44947 0.13745 0.0
C398 C 0.11237 0.44714 0.11556 0.0
O399 O 0.10279 0.50626 0.17422 0.0
O400 O 0.07748 0.5094 0.14168 0.0
O401 O 0.03819 0.47879 0.21196 0.0
O402 O 0.039 0.49029 0.17585 0.0
H403 H 0.98394 0.50005 0.16668 0.0
H404 H 0.94004 0.55433 0.20999 0.0
H405 H 1.01581 0.52071 0.23274 0.0
O406 O 0.55476 0.45972 0.38084 0.0
Tb407 Tb 0.52112 0.46547 0.35714 0.0
Eu408 Eu 0.51343 0.47652 0.30133 0.0
C409 C 0.57978 0.45576 0.37358 0.0
O410 O 0.58516 0.45942 0.35201 0.0
C411 C 0.52375 0.41923 0.32125 0.0
O412 O 0.49415 0.49038 0.26891 0.0
C413 C 0.56467 0.48839 0.29842 0.0
C414 C 0.46779 0.48954 0.26569 0.0
O415 O 0.45219 0.47808 0.28101 0.0
C416 C 0.49385 0.51887 0.33951 0.0
C417 C 0.58543 0.50916 0.29287 0.0
C418 C 0.60692 0.5127 0.30826 0.0
C419 C 0.62905 0.52927 0.30274 0.0
C420 C 0.62943 0.54289 0.28199 0.0
C421 C 0.60815 0.54025 0.26653 0.0
C422 C 0.58595 0.52328 0.27189 0.0
O423 O 0.53836 0.43355 0.33562 0.0
O424 O 0.5065 0.43187 0.30795 0.0
O425 O 0.4978 0.45362 0.38685 0.0
O426 O 0.47972 0.44961 0.35424 0.0
C427 C 0.47604 0.44639 0.37593 0.0
O428 O 0.48739 0.50641 0.32052 0.0
O429 O 0.51335 0.50925 0.35273 0.0
O430 O 0.55055 0.478 0.28164 0.0
O431 O 0.55079 0.49093 0.31738 0.0
H432 H 0.60683 0.50195 0.3243 0.0
H433 H 0.64633 0.55623 0.27795 0.0
H434 H 0.56968 0.5207 0.25974 0.0
O435 O 0.03817 0.585 0.88026 0.0
Tb436 Tb 0.07193 0.57987 0.85658 0.0
Eu437 Eu 0.08179 0.57 0.80123 0.0
C438 C 1.01317 0.58926 0.87308 0.0
O439 O 1.00772 0.58606 0.85147 0.0
C440 C 0.06929 0.62697 0.82113 0.0
O441 O 0.10241 0.55737 0.76899 0.0
C442 C 0.03099 0.55653 0.79761 0.0
C443 C 0.12874 0.55335 0.76808 0.0
O444 O 0.14376 0.55948 0.78574 0.0
C445 C 0.10136 0.52788 0.83945 0.0
C446 C 1.01099 0.53512 0.79202 0.0
C447 C 0.98751 0.5335 0.8055 0.0
C448 C 0.96644 0.51564 0.79981 0.0
C449 C 0.96927 0.49881 0.78088 0.0
C450 C 0.99247 0.49975 0.76733 0.0
C451 C 1.01348 0.51811 0.77274 0.0
O452 O 0.05485 0.61237 0.83547 0.0
O453 O 0.08691 0.61477 0.80788 0.0
O454 O 0.09495 0.59173 0.88644 0.0
O455 O 0.11308 0.59637 0.85389 0.0
C456 C 0.1166 0.59948 0.87561 0.0
O457 O 0.10849 0.54146 0.8212 0.0
O458 O 0.08051 0.5362 0.85181 0.0
O459 O 0.04527 0.56687 0.78091 0.0
O460 O 0.04446 0.5547 0.81682 0.0
H461 H 0.98533 0.54664 0.82013 0.0
H462 H 0.95333 0.48437 0.77676 0.0
H463 H 0.03133 0.51927 0.76205 0.0
H464 H 0.05605 0.15915 0.14569 0.0
H465 H 0.06372 0.20798 0.14848 0.0
H466 H 1.0104 0.2118 0.2063 0.0
H467 H 1.00187 0.16281 0.20313 0.0
H468 H 1.00012 0.25284 0.17846 0.0
H469 H 0.11116 0.24928 0.19124 0.0
H470 H 0.10129 0.23216 0.16573 0.0
H471 H 0.09019 0.21926 0.19276 0.0
C472 C 0.04595 0.17025 0.15909 0.0
C473 C 0.02835 0.15681 0.17423 0.0
C474 C 0.05062 0.1983 0.1608 0.0
C475 C 0.03819 0.21377 0.17792 0.0
C476 C 1.02047 0.20044 0.19302 0.0
H477 H 0.08737 0.38344 0.20538 0.0
H478 H 0.07964 0.33421 0.20815 0.0
C479 C 1.01563 0.17234 0.19122 0.0
C480 C 0.04287 0.24389 0.17947 0.0
H481 H 0.09262 0.29259 0.181 0.0
C482 C 1.02038 0.26145 0.1792 0.0
C483 C 0.06924 0.25544 0.18086 0.0
C484 C 0.09432 0.23804 0.18292 0.0
C485 C 0.02348 0.28995 0.17955 0.0
C486 C 0.04988 0.30151 0.1796 0.0
C487 C 0.07236 0.28396 0.18064 0.0
C488 C 0.05458 0.33162 0.17809 0.0
C489 C 0.99828 0.30735 0.18015 0.0
C490 C 0.04357 0.34675 0.16011 0.0
C491 C 0.04779 0.37487 0.1586 0.0
C492 C 0.0635 0.38876 0.17486 0.0
C493 C 0.07505 0.37355 0.19262 0.0
C494 C 0.07066 0.34533 0.1942 0.0
H495 H 0.9808 0.29613 0.18753 0.0
H496 H 1.00159 0.32616 0.19017 0.0
H497 H 0.99271 0.31319 0.1626 0.0
H498 H 0.03182 0.33677 0.14703 0.0
H499 H 0.03881 0.3857 0.14449 0.0
H500 H 0.93324 0.76427 0.39546 0.0
H501 H 0.98214 0.75682 0.39755 0.0
H502 H 0.98656 0.80803 0.45668 0.0
H503 H 0.93755 0.81625 0.4543 0.0
H504 H 0.02711 0.81957 0.42868 0.0
H505 H 0.02391 0.70797 0.43888 0.0
H506 H 1.00653 0.71875 0.41376 0.0
H507 H 0.99392 0.72879 0.44116 0.0
C508 C 0.9445 0.77386 0.40904 0.0
C509 C 0.93124 0.79074 0.42481 0.0
C510 C 0.97258 0.76938 0.41031 0.0
C511 C 0.98821 0.78131 0.42759 0.0
C512 C 0.97507 0.79837 0.44327 0.0
H513 H 0.15688 0.73107 0.45438 0.0
H514 H 0.10783 0.73915 0.45687 0.0
C515 C 0.94695 0.80303 0.44191 0.0
C516 C 1.0183 0.77672 0.42878 0.0
H517 H 0.06704 0.72711 0.42916 0.0
C518 C 0.03578 0.79933 0.42896 0.0
C519 C 0.0299 0.75034 0.42955 0.0
C520 C 1.01258 0.7251 0.43107 0.0
C521 C 0.06425 0.79635 0.42923 0.0
C522 C 0.07585 0.76997 0.42873 0.0
C523 C 0.05837 0.74736 0.42923 0.0
C524 C 0.10593 0.76538 0.42746 0.0
C525 C 0.08157 0.82161 0.43041 0.0
C526 C 0.12142 0.77705 0.40997 0.0
C527 C 0.1495 0.77266 0.40864 0.0
C528 C 0.16291 0.75611 0.42458 0.0
C529 C 0.14735 0.74403 0.44188 0.0
C530 C 0.11922 0.74861 0.44329 0.0
H531 H 0.07027 0.83885 0.43807 0.0
H532 H 0.10029 0.81809 0.44046 0.0
H533 H 0.08752 0.82771 0.41301 0.0
H534 H 0.11175 0.78936 0.39709 0.0
H535 H 0.16066 0.78205 0.39489 0.0
H536 H 0.58846 0.87911 0.70716 0.0
H537 H 0.58115 0.82985 0.70841 0.0
H538 H 0.53157 0.83491 0.64838 0.0
H539 H 0.53814 0.88406 0.64738 0.0
H540 H 0.50861 0.80183 0.6784 0.0
H541 H 0.61684 0.7731 0.66967 0.0
H542 H 0.61037 0.7944 0.69372 0.0
H543 H 0.60514 0.80747 0.66558 0.0
C544 C 0.57597 0.86976 0.69424 0.0
C545 C 0.56397 0.88569 0.67715 0.0
C546 C 0.57197 0.84147 0.69486 0.0
C547 C 0.5562 0.82836 0.67823 0.0
C548 C 0.5439 0.84434 0.66138 0.0
H549 H 0.55603 0.65661 0.64347 0.0
H550 H 0.56281 0.70568 0.64611 0.0
C551 C 0.54772 0.87257 0.66083 0.0
C552 C 0.55215 0.79815 0.67837 0.0
H553 H 0.58585 0.73733 0.67721 0.0
C554 C 0.52554 0.78776 0.67816 0.0
C555 C 0.57415 0.77959 0.6777 0.0
C556 C 0.60322 0.78915 0.67645 0.0
C557 C 0.52032 0.7596 0.67734 0.0
C558 C 0.54231 0.74102 0.67733 0.0
C559 C 0.56893 0.75141 0.67748 0.0
C560 C 0.53823 0.71085 0.67618 0.0
C561 C 0.49124 0.75013 0.67574 0.0
C562 C 0.52243 0.697 0.69237 0.0
C563 C 0.51831 0.6688 0.6908 0.0
C564 C 0.53021 0.65366 0.67317 0.0
C565 C 0.54651 0.66749 0.65729 0.0
C566 C 0.55045 0.69566 0.65879 0.0
H567 H 0.47765 0.76651 0.66949 0.0
H568 H 0.48933 0.73236 0.66426 0.0
H569 H 0.48405 0.74404 0.69281 0.0
H570 H 0.51332 0.70798 0.70632 0.0
H571 H 0.5058 0.65888 0.70343 0.0
H572 H 0.43925 0.31652 0.9532 0.0
H573 H 0.48828 0.30842 0.95521 0.0
H574 H 0.48287 0.25458 0.89779 0.0
H575 H 0.43389 0.26196 0.89607 0.0
H576 H 0.5154 0.23327 0.92908 0.0
H577 H 0.54601 0.34037 0.91533 0.0
H578 H 0.52441 0.33593 0.93952 0.0
H579 H 0.51152 0.32893 0.91159 0.0
C580 C 0.44848 0.30295 0.94099 0.0
C581 C 0.43247 0.29 0.92443 0.0
C582 C 0.47665 0.29847 0.94205 0.0
C583 C 0.48962 0.28124 0.92638 0.0
C584 C 0.47357 0.26803 0.91005 0.0
H585 H 0.66096 0.27741 0.8922 0.0
H586 H 0.61202 0.28421 0.89463 0.0
C587 C 0.44544 0.27234 0.90908 0.0
C588 C 0.51977 0.27672 0.92696 0.0
H589 H 0.5811 0.30944 0.92463 0.0
C590 C 0.52974 0.24997 0.92813 0.0
C591 C 0.5387 0.29838 0.9254 0.0
C592 C 0.52968 0.32749 0.92266 0.0
C593 C 0.55781 0.24429 0.92778 0.0
C594 C 0.57675 0.26598 0.9268 0.0
C595 C 0.56677 0.29274 0.92564 0.0
C596 C 0.60688 0.26146 0.9257 0.0
C597 C 0.56682 0.21499 0.92767 0.0
C598 C 0.62077 0.24653 0.94246 0.0
C599 C 0.64899 0.24238 0.94101 0.0
C600 C 0.66409 0.25338 0.92293 0.0
C601 C 0.65016 0.26862 0.90641 0.0
C602 C 0.62203 0.27258 0.90778 0.0
H603 H 0.55024 0.20116 0.92218 0.0
H604 H 0.5845 0.212 0.91628 0.0
H605 H 0.57287 0.20901 0.94507 0.0
H606 H 0.60984 0.23824 0.95679 0.0
H607 H 0.65898 0.2307 0.95413 0.0
H608 H 0.09017 0.66303 0.78991 0.0
H609 H 0.08246 0.71213 0.78754 0.0
H610 H 0.0303 0.70805 0.84609 0.0
H611 H 0.03729 0.65894 0.84817 0.0
H612 H 1.0085 0.74048 0.81496 0.0
H613 H 0.11619 0.77001 0.82616 0.0
H614 H 0.1109 0.7481 0.80228 0.0
H615 H 0.10448 0.73568 0.83046 0.0
C616 C 0.07705 0.67256 0.80229 0.0
C617 C 0.06446 0.65689 0.81928 0.0
C618 C 0.0728 0.70077 0.80102 0.0
C619 C 0.05619 0.71413 0.8169 0.0
C620 C 0.04329 0.69842 0.83366 0.0
H621 H 0.05562 0.88664 0.84809 0.0
H622 H 0.06173 0.8375 0.84653 0.0
C623 C 0.04736 0.67023 0.83484 0.0
C624 C 0.05201 0.74435 0.81609 0.0
H625 H 0.08552 0.80535 0.81674 0.0
C626 C 0.02538 0.75464 0.81534 0.0
C627 C 0.07391 0.76305 0.81693 0.0
C628 C 0.10296 0.75371 0.81923 0.0
C629 C 1.02007 0.78282 0.81535 0.0
C630 C 0.04201 0.80151 0.81553 0.0
C631 C 0.06863 0.7912 0.81633 0.0
C632 C 0.03791 0.83175 0.81611 0.0
C633 C 0.99093 0.79221 0.81593 0.0
C634 C 0.02264 0.84535 0.79942 0.0
C635 C 1.01888 0.87368 0.80037 0.0
C636 C 0.03064 0.88916 0.81787 0.0
C637 C 0.04625 0.87552 0.83432 0.0
C638 C 0.04982 0.84729 0.83344 0.0
H639 H 0.97711 0.77596 0.82208 0.0
H640 H 0.98852 0.81028 0.827 0.0
H641 H 0.98447 0.79782 0.79854 0.0
H642 H 1.01376 0.8341 0.78551 0.0
H643 H 1.00688 0.88344 0.78734 0.0
H644 H 0.43835 0.71869 0.04802 0.0
H645 H 0.48767 0.72586 0.0465 0.0
H646 H 0.47921 0.79741 0.08801 0.0
H647 H 0.43031 0.79 0.09012 0.0
H648 H 0.51965 0.76621 0.03085 0.0
H649 H 0.53578 0.75707 0.12326 0.0
H650 H 0.50399 0.74833 0.11 0.0
H651 H 0.51189 0.78325 0.11634 0.0
C652 C 0.447 0.73595 0.05683 0.0
C653 C 0.43024 0.75359 0.06935 0.0
C654 C 0.47526 0.74005 0.05594 0.0
C655 C 0.48747 0.76187 0.06755 0.0
C656 C 0.47061 0.77996 0.07944 0.0
H657 H 0.65372 0.82308 0.04573 0.0
H658 H 0.60451 0.81554 0.04453 0.0
C659 C 0.44248 0.77577 0.0805 0.0
C660 C 0.51771 0.76581 0.06727 0.0
H661 H 0.57295 0.77412 0.10177 0.0
C662 C 0.5313 0.76782 0.04637 0.0
C663 C 0.53322 0.76752 0.08746 0.0
C664 C 0.52053 0.76364 0.11052 0.0
C665 C 0.55964 0.77193 0.04512 0.0
C666 C 0.57497 0.77476 0.06534 0.0
C667 C 0.56139 0.77232 0.08621 0.0
C668 C 0.60514 0.77934 0.06542 0.0
C669 C 0.57292 0.7725 0.0221 0.0
C670 C 0.62215 0.76206 0.07799 0.0
C671 C 0.65023 0.76659 0.07897 0.0
C672 C 0.66225 0.78853 0.06735 0.0
C673 C 0.64528 0.80581 0.05468 0.0
C674 C 0.61706 0.80139 0.05386 0.0
H675 H 0.56024 0.76214 0.00916 0.0
H676 H 0.57561 0.79393 0.01669 0.0
H677 H 0.59317 0.76262 0.0225 0.0
H678 H 0.61367 0.74495 0.08713 0.0
H679 H 0.66252 0.75282 0.08895 0.0
H680 H 0.49408 0.38141 0.2972 0.0
H681 H 0.50056 0.33196 0.29614 0.0
H682 H 0.57038 0.3398 0.33967 0.0
H683 H 0.5636 0.38887 0.34134 0.0
H684 H 0.54081 0.29956 0.28169 0.0
H685 H 0.52824 0.28356 0.37383 0.0
H686 H 0.52043 0.3155 0.36036 0.0
H687 H 0.55495 0.30717 0.36761 0.0
C688 C 0.51081 0.3726 0.30656 0.0
C689 C 0.52816 0.38924 0.31949 0.0
C690 C 0.51451 0.34426 0.30594 0.0
C691 C 0.53563 0.33184 0.31823 0.0
C692 C 0.55344 0.34857 0.33057 0.0
H693 H 0.59673 0.16571 0.29765 0.0
H694 H 0.58913 0.2149 0.29651 0.0
C695 C 0.54963 0.37679 0.33136 0.0
C696 C 0.5392 0.30154 0.31809 0.0
H697 H 0.54583 0.2462 0.35282 0.0
C698 C 0.54177 0.2879 0.29726 0.0
C699 C 0.54004 0.28601 0.33833 0.0
C700 C 0.53548 0.29875 0.36127 0.0
C701 C 0.54565 0.2595 0.29613 0.0
C702 C 0.5477 0.24416 0.31642 0.0
C703 C 0.54464 0.25777 0.33722 0.0
C704 C 0.55234 0.21399 0.3166 0.0
C705 C 0.54684 0.2462 0.27314 0.0
C706 C 0.53476 0.19681 0.32877 0.0
C707 C 0.53933 0.1687 0.32974 0.0
C708 C 0.5616 0.15685 0.31851 0.0
C709 C 0.5792 0.17401 0.30629 0.0
C710 C 0.57474 0.20222 0.30549 0.0
H711 H 0.5368 0.25886 0.26 0.0
H712 H 0.56838 0.2436 0.26811 0.0
H713 H 0.537 0.22589 0.27336 0.0
H714 H 0.51738 0.20517 0.33759 0.0
H715 H 0.52533 0.15625 0.33938 0.0
H716 H 0.15104 0.31616 0.53699 0.0
H717 H 0.102 0.308 0.53584 0.0
H718 H 0.10847 0.25604 0.59441 0.0
H719 H 0.15749 0.26342 0.59525 0.0
H720 H 0.07531 0.23386 0.56417 0.0
H721 H 0.04545 0.34146 0.57588 0.0
H722 H 0.06645 0.33624 0.55145 0.0
H723 H 0.07998 0.33005 0.5793 0.0
C724 C 0.14205 0.30298 0.54962 0.0
C725 C 0.15834 0.29056 0.56626 0.0
C726 C 0.11389 0.29848 0.54906 0.0
C727 C 0.10124 0.28181 0.56532 0.0
C728 C 0.11757 0.26907 0.5817 0.0
H729 H 0.93031 0.2796 0.6011 0.0
H730 H 0.97928 0.2863 0.5983 0.0
C731 C 0.1457 0.27337 0.58217 0.0
C732 C 0.07112 0.27738 0.5653 0.0
H733 H 1.01004 0.31037 0.56758 0.0
C734 C 0.06106 0.25063 0.56491 0.0
C735 C 0.05235 0.29915 0.5666 0.0
C736 C 0.06155 0.32832 0.56857 0.0
C737 C 0.03299 0.24505 0.56575 0.0
C738 C 1.0142 0.26685 0.5664 0.0
C739 C 0.02428 0.2936 0.56682 0.0
C740 C 0.98413 0.26245 0.56777 0.0
C741 C 0.02387 0.21579 0.56671 0.0
C742 C 0.97015 0.24699 0.55144 0.0
C743 C 0.94197 0.24287 0.55313 0.0
C744 C 0.92704 0.2545 0.57099 0.0
C745 C 0.94103 0.27033 0.58708 0.0
C746 C 0.96915 0.27423 0.58549 0.0
H747 H 0.04044 0.20216 0.57252 0.0
H748 H 1.00625 0.21327 0.57826 0.0
H749 H 1.0177 0.20914 0.54951 0.0
H750 H 0.98097 0.23823 0.53726 0.0
H751 H 0.93188 0.23074 0.54034 0.0
H752 H 0.23041 0.24521 0.98414 0.0
H753 H 0.19349 0.23176 0.00981 0.0
H754 H 0.24463 0.1693 0.03814 0.0
H755 H 0.28145 0.18311 0.01292 0.0
H756 H 0.17065 0.18223 0.00638 0.0
H757 H 0.2068 0.19512 0.09445 0.0
H758 H 0.22322 0.2114 0.0707 0.0
H759 H 0.23035 0.17642 0.07734 0.0
C760 C 0.23415 0.22964 -0.00326 0.0
C761 C 0.25892 0.21557 -0.00309 0.0
C762 C 0.21296 0.22168 0.01118 0.0
C763 C 0.21622 0.19955 0.02607 0.0
C764 C 0.24167 0.18679 0.02729 0.0
H765 H 0.10367 0.09195 0.09883 0.0
H766 H 0.14362 0.11152 0.07972 0.0
C767 C 0.2628 0.19477 0.01291 0.0
C768 C 0.19227 0.18736 0.03781 0.0
H769 H 0.16866 0.16543 0.08921 0.0
C770 C 0.17015 0.17887 0.02453 0.0
C771 C 0.19166 0.18254 0.06147 0.0
C772 C 0.21417 0.19208 0.07685 0.0
C773 C 0.14771 0.16548 0.03414 0.0
C774 C 0.14715 0.16057 0.05775 0.0
C775 C 0.16923 0.16898 0.07108 0.0
C776 C 0.12307 0.14816 0.06897 0.0
C777 C 0.12491 0.15626 0.0189 0.0
C778 C 0.09835 0.16222 0.06925 0.0
C779 C 0.07568 0.15119 0.0801 0.0
C780 C 0.07709 0.12574 0.09095 0.0
C781 C 0.10182 0.11145 0.09047 0.0
C782 C 0.12469 0.12268 0.07969 0.0
H783 H 0.13126 0.15555 0.00085 0.0
H784 H 0.11749 0.13582 0.02396 0.0
H785 H 0.10773 0.17072 0.02036 0.0
H786 H 0.09668 0.18202 0.06134 0.0
H787 H 0.05704 0.16284 0.08017 0.0
H788 H 0.11881 1.00938 0.26428 0.0
H789 H 0.13699 0.97679 0.292 0.0
H790 H 0.11062 0.91041 0.24975 0.0
H791 H 0.09258 0.94289 0.22211 0.0
H792 H 0.11555 0.92639 0.3158 0.0
H793 H 0.19622 0.90713 0.25192 0.0
H794 H 0.17436 0.93653 0.25073 0.0
H795 H 0.16185 0.90389 0.24201 0.0
C796 C 0.11574 0.98783 0.26151 0.0
C797 C 0.10389 0.97862 0.24126 0.0
C798 C 0.1264 0.96922 0.2772 0.0
C799 C 0.12556 0.94117 0.27275 0.0
C800 C 0.11171 0.93195 0.25344 0.0
H801 H 0.2087 0.79898 0.32661 0.0
H802 H 0.18339 0.8319 0.30378 0.0
C803 C 0.10107 0.9505 0.23781 0.0
C804 C 0.14155 0.92179 0.28681 0.0
H805 H 0.19717 0.88028 0.28502 0.0
C806 C 0.13344 0.91634 0.30914 0.0
C807 C 0.1649 0.90869 0.27808 0.0
C808 C 0.17509 0.91442 0.25444 0.0
C809 C 0.14771 0.89768 0.3228 0.0
C810 C 0.17117 0.88462 0.31408 0.0
C811 C 0.17926 0.89021 0.29175 0.0
C812 C 0.18749 0.86494 0.32773 0.0
C813 C 0.13704 0.89158 0.34621 0.0
C814 C 0.19907 0.87267 0.34851 0.0
C815 C 0.21355 0.85386 0.36162 0.0
C816 C 0.21708 0.82691 0.35415 0.0
C817 C 0.20645 0.81953 0.3329 0.0
C818 C 0.19185 0.83834 0.31984 0.0
H819 H 0.11523 0.897 0.34786 0.0
H820 H 0.13951 0.86974 0.35046 0.0
H821 H 0.14855 0.90373 0.3588 0.0
H822 H 0.19677 0.89324 0.3547 0.0
H823 H 0.2216 0.86036 0.3778 0.0
H824 H 0.37643 0.81993 0.47361 0.0
H825 H 0.4095 0.83672 0.50126 0.0
H826 H 0.3442 0.85911 0.54613 0.0
H827 H 0.31107 0.84216 0.51841 0.0
H828 H 0.40794 0.89247 0.51283 0.0
H829 H 0.40222 0.8277 0.58977 0.0
H830 H 0.39082 0.81616 0.56231 0.0
H831 H 0.3702 0.83901 0.57859 0.0
C832 C 0.36924 0.82715 0.48988 0.0
C833 C 0.34123 0.82921 0.4941 0.0
C834 C 0.38812 0.83706 0.50555 0.0
C835 C 0.37941 0.84918 0.52582 0.0
C836 C 0.35148 0.84945 0.53081 0.0
H837 H 0.4607 0.94526 0.62999 0.0
H838 H 0.42789 0.92103 0.60631 0.0
C839 C 0.33253 0.83955 0.51506 0.0
C840 C 0.39912 0.86468 0.54002 0.0
H841 H 0.42751 0.86858 0.59276 0.0
C842 C 0.41235 0.88713 0.53028 0.0
C843 C 0.40461 0.85797 0.56285 0.0
C844 C 0.39142 0.83379 0.57404 0.0
C845 C 0.43063 0.90323 0.54274 0.0
C846 C 0.43649 0.89633 0.56552 0.0
C847 C 0.42314 0.8739 0.57531 0.0
C848 C 0.45639 0.91207 0.57945 0.0
C849 C 0.44286 0.92793 0.53151 0.0
C850 C 0.48343 0.91533 0.57229 0.0
C851 C 0.50221 0.92949 0.5857 0.0
C852 C 0.4945 0.94041 0.60677 0.0
C853 C 0.46737 0.93726 0.61383 0.0
C854 C 0.44857 0.92326 0.60035 0.0
H855 H 0.43032 0.93498 0.51702 0.0
H856 H 0.44512 0.94496 0.5437 0.0
H857 H 0.46325 0.92267 0.52485 0.0
H858 H 0.49023 0.90639 0.55653 0.0
H859 H 0.52298 0.93115 0.57984 0.0
H860 H 0.37537 0.23628 0.8292 0.0
H861 H 0.39854 0.20065 0.80757 0.0
H862 H 0.39966 0.14938 0.86677 0.0
H863 H 0.37659 0.18475 0.88848 0.0
H864 H 0.45065 0.15429 0.84548 0.0
H865 H 0.37016 0.12714 0.78372 0.0
H866 H 0.37757 0.16284 0.78536 0.0
H867 H 0.36317 0.14575 0.80943 0.0
C868 C 0.38012 0.21726 0.83753 0.0
C869 C 0.37405 0.21345 0.86061 0.0
C870 C 0.39336 0.19686 0.82512 0.0
C871 C 0.40076 0.17223 0.8355 0.0
C872 C 0.39419 0.16818 0.85838 0.0
H873 H 0.46089 0.03272 0.75834 0.0
H874 H 0.43801 0.05982 0.78761 0.0
C875 C 0.38088 0.18845 0.87075 0.0
C876 C 0.41647 0.1512 0.82289 0.0
H877 H 0.41423 0.10939 0.7767 0.0
C878 C 0.44262 0.14434 0.83052 0.0
C879 C 0.40591 0.13794 0.80353 0.0
C880 C 0.37757 0.14354 0.79508 0.0
C881 C 0.45873 0.1252 0.81898 0.0
C882 C 0.44855 0.11266 0.79915 0.0
C883 C 0.42211 0.11898 0.79188 0.0
C884 C 0.46535 0.09412 0.7849 0.0
C885 C 0.48652 0.11853 0.82814 0.0
C886 C 0.48893 0.10389 0.77426 0.0
C887 C 0.50209 0.08832 0.75773 0.0
C888 C 0.49202 0.06264 0.75154 0.0
C889 C 0.46953 0.05208 0.76326 0.0
C890 C 0.45624 0.06774 0.77974 0.0
H891 H 0.48815 0.12345 0.84645 0.0
H892 H 0.49139 0.0967 0.82568 0.0
H893 H 0.50193 0.13076 0.81896 0.0
H894 H 0.49609 0.12432 0.77756 0.0
H895 H 0.51888 0.09724 0.74847 0.0
H896 H 0.28556 0.84602 0.97663 0.0
H897 H 0.2525 0.86386 0.94921 0.0
H898 H 0.18702 0.83353 0.99055 0.0
H899 H 0.22 0.81575 0.01789 0.0
H900 H 0.2024 0.84111 0.92491 0.0
H901 H 0.18175 0.91962 0.99044 0.0
H902 H 0.21182 0.89868 0.99092 0.0
H903 H 0.17975 0.8848 -0.00044 0.0
C904 C 0.26416 0.84195 0.9792 0.0
C905 C 0.25532 0.82904 -0.00088 0.0
C906 C 0.24527 0.85243 0.9637 0.0
C907 C 0.21729 0.85037 0.96802 0.0
C908 C 0.2085 0.83549 0.98695 0.0
H909 H 0.07433 0.93367 0.91554 0.0
H910 H 0.10728 0.90805 0.93809 0.0
C911 C 0.22734 0.82499 0.00239 0.0
C912 C 0.19749 0.86631 0.95435 0.0
H913 H 0.15536 0.92141 0.95719 0.0
C914 C 0.19212 0.85869 0.9319 0.0
C915 C 0.18409 0.88925 0.96354 0.0
C916 C 0.18968 0.89882 0.98738 0.0
C917 C 0.1733 0.8731 0.91852 0.0
C918 C 0.16002 0.89623 0.92765 0.0
C919 C 0.16548 0.90377 0.95014 0.0
C920 C 0.14033 0.9128 0.91424 0.0
C921 C 0.16731 0.86293 0.89494 0.0
C922 C 0.14806 0.92487 0.89365 0.0
C923 C 0.12923 0.9395 0.8807 0.0
C924 C 0.10228 0.94273 0.88816 0.0
C925 C 0.09489 0.93166 0.90927 0.0
C926 C 0.11372 0.91688 0.92216 0.0
H927 H 0.1728 0.84116 0.89298 0.0
H928 H 0.1455 0.86543 0.89068 0.0
H929 H 0.17946 0.87476 0.88255 0.0
H930 H 0.16865 0.9228 0.88746 0.0
H931 H 0.13573 0.9479 0.86463 0.0
H932 H 0.51474 0.96679 0.2461 0.0
H933 H 0.4998 0.93494 0.21643 0.0
H934 H 0.42317 0.97707 0.21222 0.0
H935 H 0.43855 1.00931 0.24063 0.0
H936 H 0.46103 0.89985 0.21969 0.0
H937 H 0.43412 0.96468 0.14727 0.0
H938 H 0.45353 0.97752 0.17084 0.0
H939 H 0.41689 0.97689 0.17192 0.0
C940 C 0.49527 0.96991 0.23798 0.0
C941 C 0.47792 0.99067 0.24549 0.0
C942 C 0.48654 0.9515 0.22126 0.0
C943 C 0.46034 0.95358 0.21179 0.0
C944 C 0.4437 0.97526 0.21857 0.0
H945 H 0.36136 0.81643 0.1662 0.0
H946 H 0.38509 0.85149 0.18819 0.0
C947 C 0.4525 0.99372 0.23495 0.0
C948 C 0.44904 0.93179 0.19682 0.0
H949 H 0.41005 0.92177 0.14968 0.0
C950 C 0.45029 0.90462 0.20416 0.0
C951 C 0.43526 0.93767 0.17632 0.0
C952 C 0.43517 0.96576 0.16605 0.0
C953 C 0.43747 0.8835 0.1921 0.0
C954 C 0.42187 0.88974 0.17258 0.0
C955 C 0.42142 0.91679 0.16485 0.0
C956 C 0.40656 0.86863 0.15945 0.0
C957 C 0.44133 0.85471 0.20029 0.0
C958 C 0.4094 0.86725 0.1358 0.0
C959 C 0.39507 0.84795 0.12318 0.0
C960 C 0.37776 0.82913 0.13386 0.0
C961 C 0.37466 0.83052 0.1575 0.0
C962 C 0.38854 0.85038 0.17011 0.0
H963 H 0.4605 0.85254 0.21004 0.0
H964 H 0.42435 0.8492 0.21177 0.0
H965 H 0.44175 0.8401 0.18598 0.0
H966 H 0.42304 0.88095 0.12701 0.0
H967 H 0.39819 0.84733 0.10502 0.0
H968 H 0.30549 0.19161 0.48294 0.0
H969 H 0.33278 0.16772 0.45435 0.0
H970 H 0.39899 0.22332 0.46608 0.0
H971 H 0.37172 0.24719 0.4945 0.0
H972 H 0.39352 0.20712 0.4199 0.0
H973 H 0.39489 0.11938 0.47924 0.0
H974 H 0.36178 0.13086 0.47076 0.0
H975 H 0.38307 0.15263 0.48752 0.0
C976 C 0.32539 0.19944 0.47862 0.0
C977 C 0.33639 0.22144 0.49068 0.0
C978 C 0.34115 0.18552 0.46258 0.0
C979 C 0.36816 0.19336 0.45843 0.0
C980 C 0.37827 0.2168 0.46904 0.0
H981 H 0.50882 0.1018 0.41353 0.0
H982 H 0.47395 0.12638 0.43497 0.0
C983 C 0.3626 0.23062 0.48511 0.0
C984 C 0.38678 0.17595 0.44482 0.0
H985 H 0.41877 0.11422 0.4449 0.0
C986 C 0.39886 0.18673 0.42524 0.0
C987 C 0.39425 0.14954 0.4521 0.0
C988 C 0.38307 0.13739 0.47365 0.0
C989 C 0.41801 0.17178 0.41267 0.0
C990 C 0.42511 0.14518 0.41973 0.0
C991 C 0.41315 0.13448 0.43938 0.0
C992 C 0.44539 0.12848 0.40719 0.0
C993 C 0.43109 0.18487 0.39229 0.0
C994 C 0.44059 0.12064 0.38469 0.0
C995 C 0.4604 0.1065 0.37244 0.0
C996 C 0.48549 0.09979 0.38242 0.0
C997 C 0.48977 0.1066 0.4053 0.0
C998 C 0.46988 0.12074 0.41757 0.0
H999 H 0.4283 0.20728 0.39223 0.0
H1000 H 0.45316 0.18035 0.39172 0.0
H1001 H 0.42169 0.17662 0.37665 0.0
H1002 H 0.42165 0.12585 0.37646 0.0
H1003 H 0.45626 0.10146 0.35492 0.0
H1004 H 0.16085 0.03748 0.74307 0.0
H1005 H 0.17602 0.06958 0.71437 0.0
H1006 H 0.0978 0.10894 0.71613 0.0
H1007 H 0.08304 0.07739 0.74611 0.0
H1008 H 0.16451 0.08446 0.67421 0.0
H1009 H 0.14446 0.17261 0.73029 0.0
H1010 H 0.14091 0.13804 0.73989 0.0
H1011 H 0.11451 0.15365 0.72328 0.0
C1012 C 0.14667 0.05267 0.73704 0.0
C1013 C 0.12085 0.0551 0.74703 0.0
C1014 C 0.1554 0.07113 0.72062 0.0
C1015 C 0.13848 0.09242 0.71348 0.0
C1016 C 0.11168 0.09337 0.72189 0.0
H1017 H 0.19384 0.19536 0.60107 0.0
H1018 H 0.17156 0.16123 0.62443 0.0
C1019 C 0.103 0.07498 0.73869 0.0
C1020 C 0.14979 0.11395 0.69818 0.0
H1021 H 0.16171 0.18232 0.69391 0.0
C1022 C 0.16379 0.10587 0.67854 0.0
C1023 C 0.14954 0.14194 0.70395 0.0
C1024 C 0.1368 0.15212 0.7256 0.0
C1025 C 0.17771 0.12467 0.6648 0.0
C1026 C 0.17668 0.15276 0.67014 0.0
C1027 C 0.16246 0.1609 0.68964 0.0
C1028 C 0.19031 0.17396 0.65586 0.0
C1029 C 0.19433 0.11388 0.64529 0.0
C1030 C 0.20758 0.19354 0.66567 0.0
C1031 C 0.21989 0.21373 0.65232 0.0
C1032 C 0.21549 0.21458 0.6288 0.0
C1033 C 0.19823 0.19499 0.61905 0.0
C1034 C 0.18551 0.17526 0.63243 0.0
H1035 H 0.20055 0.09246 0.64821 0.0
H1036 H 0.18189 0.11432 0.62963 0.0
H1037 H 0.2129 0.12624 0.6425 0.0
H1038 H 0.21156 0.19321 0.68372 0.0
H1039 H 0.23286 0.22864 0.66039 0.0
H1040 H 0.97271 0.92305 0.91622 0.0
H1041 H 0.93097 0.90918 0.93528 0.0
H1042 H 0.88452 0.93241 0.87637 0.0
H1043 H 0.92664 0.94519 0.85683 0.0
H1044 H 0.88927 0.93928 0.94711 0.0
H1045 H 0.85332 0.85865 0.88852 0.0
H1046 H 0.88687 0.87316 0.88659 0.0
H1047 H 0.85809 0.8912 0.8754 0.0
C1048 C 0.95362 0.92486 0.90724 0.0
C1049 C 0.95282 0.93501 0.88505 0.0
C1050 C 0.92977 0.91703 0.91815 0.0
C1051 C 0.90457 0.9195 0.90721 0.0
C1052 C 0.90373 0.92969 0.88498 0.0
H1053 H 0.76299 0.90256 -0.0022 0.0
H1054 H 0.79335 0.92201 0.96914 0.0
C1055 C 0.92775 0.93711 0.87387 0.0
C1056 C 0.87941 0.91221 0.91967 0.0
H1057 H 0.82483 0.8694 0.91936 0.0
C1058 C 0.87509 0.92408 0.941 0.0
C1059 C 0.86097 0.89234 0.91168 0.0
C1060 C 0.86509 0.87789 0.8894 0.0
C1061 C 0.85359 0.91586 0.95499 0.0
C1062 C 0.83515 0.89594 0.94704 0.0
C1063 C 0.83884 0.88483 0.92533 0.0
C1064 C 0.81394 0.88411 0.96196 0.0
C1065 C 0.85188 0.9275 0.97862 0.0
C1066 C 0.81426 0.85611 0.96641 0.0
C1067 C 0.79658 0.84489 0.98231 0.0
C1068 C 0.77835 0.86149 0.9943 0.0
C1069 C 0.77704 0.88932 0.98903 0.0
C1070 C 0.79451 0.90048 0.97278 0.0
H1071 H 0.87115 0.93749 0.9838 0.0
H1072 H 0.83559 0.94304 0.9792 0.0
H1073 H 0.84702 0.91143 0.99119 0.0
H1074 H 0.82897 0.84302 0.95823 0.0
H1075 H 0.79809 0.82335 0.98588 0.0
H1076 H 0.87461 0.15097 0.60772 0.0
H1077 H 0.88712 0.10793 0.62607 0.0
H1078 H 0.90201 0.15082 0.6886 0.0
H1079 H 0.88868 0.19343 0.67064 0.0
H1080 H 0.93282 0.09069 0.64534 0.0
H1081 H 0.85246 0.09176 0.71034 0.0
H1082 H 0.8522 0.11463 0.68644 0.0
H1083 H 0.87163 0.12268 0.71145 0.0
C1084 C 0.88053 0.15109 0.62539 0.0
C1085 C 0.88049 0.17539 0.63786 0.0
C1086 C 0.8876 0.12654 0.63585 0.0
C1087 C 0.89478 0.12604 0.65888 0.0
C1088 C 0.89563 0.15053 0.67105 0.0
H1089 H 0.99724 0.02608 0.73607 0.0
H1090 H 0.97608 0.05482 0.70769 0.0
C1091 C 0.88828 0.17492 0.66071 0.0
C1092 C 0.90229 0.10022 0.67025 0.0
H1093 H 0.89206 0.06456 0.71904 0.0
C1094 C 0.92359 0.08467 0.66126 0.0
C1095 C 0.88972 0.0918 0.69064 0.0
C1096 C 0.86503 0.10595 0.70011 0.0
C1097 C 0.93393 0.0621 0.67296 0.0
C1098 C 0.92323 0.05547 0.69454 0.0
C1099 C 0.90065 0.06984 0.7027 0.0
C1100 C 0.93657 0.03564 0.70989 0.0
C1101 C 0.95643 0.04586 0.66215 0.0
C1102 C 0.92137 1.01546 0.72101 0.0
C1103 C 0.93335 0.99928 0.73775 0.0
C1104 C 0.96077 1.00296 0.7436 0.0
C1105 C 0.97613 1.02252 0.73188 0.0
C1106 C 0.96409 0.03886 0.71541 0.0
H1107 H 0.95465 0.04616 0.64339 0.0
H1108 H 0.97627 0.05513 0.66659 0.0
H1109 H 0.95631 0.0244 0.66797 0.0
H1110 H 0.90004 1.01272 0.71716 0.0
H1111 H 0.92097 0.98438 0.74648 0.0
H1112 H 0.65868 0.11669 0.35877 0.0
H1113 H 0.69874 0.13292 0.37955 0.0
H1114 H 0.65688 0.11969 0.4428 0.0
H1115 H 0.61686 0.1038 0.42219 0.0
H1116 H 0.6819 0.17068 0.43923 0.0
H1117 H 0.75253 0.08663 0.41706 0.0
H1118 H 0.73623 0.10334 0.39364 0.0
H1119 H 0.71624 0.08401 0.41333 0.0
C1120 C 0.65812 0.11725 0.3771 0.0
C1121 C 0.63477 0.10902 0.38892 0.0
C1122 C 0.68101 0.12633 0.38893 0.0
C1123 C 0.68083 0.12715 0.4127 0.0
C1124 C 0.65743 0.11909 0.42446 0.0
H1125 H 0.80107 0.1431 0.51646 0.0
H1126 H 0.76915 0.12701 0.48769 0.0
C1127 C 0.63461 0.11004 0.41268 0.0
C1128 C 0.70461 0.13716 0.42554 0.0
H1129 H 0.77026 0.12233 0.43941 0.0
C1130 C 0.70129 0.16025 0.43916 0.0
C1131 C 0.72974 0.12327 0.42552 0.0
C1132 C 0.734 0.09781 0.41176 0.0
C1133 C 0.72234 0.16969 0.45306 0.0
C1134 C 0.74754 0.15592 0.45298 0.0
C1135 C 0.75098 0.13295 0.4392 0.0
C1136 C 0.76986 0.16426 0.46823 0.0
C1137 C 0.71708 0.19375 0.46831 0.0
C1138 C 0.78162 0.19011 0.46625 0.0
C1139 C 0.79974 0.19943 0.4827 0.0
C1140 C 0.80655 0.18293 0.50131 0.0
C1141 C 0.79617 0.15634 0.50238 0.0
C1142 C 0.77794 0.14709 0.48596 0.0
H1143 H 0.69506 0.19824 0.46991 0.0
H1144 H 0.72549 0.19015 0.4855 0.0
H1145 H 0.72718 0.21199 0.46114 0.0
H1146 H 0.77599 0.20346 0.45244 0.0
H1147 H 0.8076 0.21991 0.48125 0.0
H1148 H 0.70231 0.88743 0.1065 0.0
H1149 H 0.68657 0.9283 0.12649 0.0
H1150 H 0.69721 0.88733 0.19049 0.0
H1151 H 0.7126 0.84655 0.17069 0.0
H1152 H 0.64706 0.9136 0.1858 0.0
H1153 H 0.73347 0.98167 0.16405 0.0
H1154 H 0.7168 0.96532 0.14063 0.0
H1155 H 0.73517 0.94522 0.16084 0.0
C1156 C 0.70126 0.88724 0.12483 0.0
C1157 C 0.70865 0.86393 0.1371 0.0
C1158 C 0.69247 0.91059 0.13621 0.0
C1159 C 0.69107 0.9109 0.15996 0.0
C1160 C 0.69825 0.88752 0.17215 0.0
H1161 H 0.67712 0.03203 0.26299 0.0
H1162 H 0.6927 0.99982 0.23425 0.0
C1163 C 0.70702 0.86426 0.16083 0.0
C1164 C 0.68147 0.93519 0.17235 0.0
H1165 H 0.6981 1.00058 0.18598 0.0
C1166 C 0.65807 0.9327 0.18571 0.0
C1167 C 0.69611 0.95993 0.17233 0.0
C1168 C 0.72191 0.96331 0.15885 0.0
C1169 C 0.64907 0.95416 0.19937 0.0
C1170 C 0.66362 0.97897 0.19931 0.0
C1171 C 0.68688 0.98161 0.18576 0.0
C1172 C 0.65581 1.00163 0.21443 0.0
C1173 C 0.62464 0.94973 0.21439 0.0
C1174 C 0.63039 1.01414 0.21223 0.0
C1175 C 0.62136 0.03243 0.22866 0.0
C1176 C 0.63772 0.03865 0.24749 0.0
C1177 C 0.66399 0.02759 0.24875 0.0
C1178 C 0.67294 1.0092 0.23234 0.0
H1179 H 0.61939 0.92785 0.21601 0.0
H1180 H 0.62826 0.95811 0.23159 0.0
H1181 H 0.60687 0.96039 0.20701 0.0
H1182 H 0.61709 1.00892 0.19828 0.0
H1183 H 0.60113 0.04082 0.22707 0.0
H1184 H 0.75469 0.1482 -0.00096 0.0
H1185 H 0.78197 0.12819 0.0295 0.0
H1186 H 0.82885 0.20212 0.03389 0.0
H1187 H 0.80125 0.22244 0.00437 0.0
H1188 H 0.83313 0.11674 0.0281 0.0
H1189 H 0.81952 0.18731 0.0994 0.0
H1190 H 0.79761 0.18799 0.0749 0.0
H1191 H 0.8294 0.20627 0.07486 0.0
C1192 C 0.77044 0.16036 0.00688 0.0
C1193 C 0.77578 0.18691 -0.00071 0.0
C1194 C 0.786 0.14891 0.02428 0.0
C1195 C 0.80718 0.1638 0.03434 0.0
C1196 C 0.8121 0.19049 0.02702 0.0
H1197 H 0.96291 0.11287 0.07358 0.0
H1198 H 0.92008 0.12567 0.05586 0.0
C1199 C 0.79641 0.20202 0.0099 0.0
C1200 C 0.82628 0.15072 0.05045 0.0
H1201 H 0.86307 0.16328 0.09832 0.0
C1202 C 0.8392 0.12662 0.04373 0.0
C1203 C 0.8339 0.1631 0.07115 0.0
C1204 C 0.81908 0.18742 0.08058 0.0
C1205 C 0.86086 0.11578 0.0562 0.0
C1206 C 0.87045 0.12994 0.07548 0.0
C1207 C 0.85618 0.15279 0.08322 0.0
C1208 C 0.89638 0.12258 0.08667 0.0
C1209 C 0.8735 0.08952 0.04829 0.0
C1210 C 0.89764 0.11794 0.11014 0.0
C1211 C 0.92236 0.11118 0.12043 0.0
C1212 C 0.94606 0.10893 0.10734 0.0
C1213 C 0.94485 0.11417 0.08401 0.0
C1214 C 0.92032 0.12122 0.07383 0.0
H1215 H 0.85837 0.07659 0.03942 0.0
H1216 H 0.88999 0.09411 0.03606 0.0
H1217 H 0.88217 0.07779 0.06264 0.0
H1218 H 0.87947 0.11921 0.12043 0.0
H1219 H 0.92283 0.10723 0.13847 0.0
H1220 H 0.68264 0.98414 0.7433 0.0
H1221 H 0.70347 1.01224 0.77287 0.0
H1222 H 0.62482 0.04535 0.78937 0.0
H1223 H 0.60393 1.01668 0.76087 0.0
H1224 H 0.70662 0.06409 0.77336 0.0
H1225 H 0.65282 0.03588 0.85145 0.0
H1226 H 0.65069 1.01545 0.82613 0.0
H1227 H 0.6282 0.04399 0.83022 0.0
C1228 C 0.66976 0.99693 0.75366 0.0
C1229 C 0.64165 0.99816 0.74974 0.0
C1230 C 0.68167 1.01299 0.77054 0.0
C1231 C 0.66569 0.03064 0.78369 0.0
C1232 C 0.63754 0.03129 0.7801 0.0
H1233 H 0.70182 0.19065 0.82486 0.0
H1234 H 0.69103 0.14751 0.80658 0.0
C1235 C 0.62561 1.01501 0.76354 0.0
C1236 C 0.67845 0.05084 0.79908 0.0
H1237 H 0.66929 0.08291 0.84979 0.0
C1238 C 0.69886 0.06776 0.79027 0.0
C1239 C 0.66893 0.05543 0.8214 0.0
C1240 C 0.64919 0.03645 0.83288 0.0
C1241 C 0.7085 0.09022 0.80246 0.0
C1242 C 0.69669 0.09657 0.82368 0.0
C1243 C 0.67783 0.07851 0.83325 0.0
C1244 C 0.70233 0.12266 0.83537 0.0
C1245 C 0.73101 0.10709 0.79227 0.0
C1246 C 0.7108 0.1232 0.8581 0.0
C1247 C 0.71632 0.14801 0.86879 0.0
C1248 C 0.71356 0.17253 0.85684 0.0
C1249 C 0.70438 0.17198 0.83436 0.0
C1250 C 0.6985 0.14732 0.82383 0.0
H1251 H 0.74423 0.09452 0.78119 0.0
H1252 H 0.72204 0.12332 0.78158 0.0
H1253 H 0.74379 0.11667 0.80554 0.0
H1254 H 0.71358 0.10445 0.86742 0.0
H1255 H 0.72339 0.14795 0.88617 0.0
H1256 H 0.80511 0.90588 0.48207 0.0
H1257 H 0.7759 0.92037 0.5132 0.0
H1258 H 0.79283 0.84571 0.54877 0.0
H1259 H 0.82173 0.83083 0.51754 0.0
H1260 H 0.73918 0.85391 0.54309 0.0
H1261 H 0.78577 0.94749 0.57757 0.0
H1262 H 0.78218 0.94876 0.54735 0.0
H1263 H 0.80431 0.9239 0.55995 0.0
C1264 C 0.80319 0.89283 0.49676 0.0
C1265 C 0.81557 0.8671 0.49723 0.0
C1266 C 0.78659 0.90123 0.51464 0.0
C1267 C 0.78235 0.88422 0.53342 0.0
C1268 C 0.7959 0.85919 0.53448 0.0
H1269 H 0.66698 0.92981 0.64149 0.0
H1270 H 0.70875 0.91412 0.62269 0.0
C1271 C 0.8124 0.85072 0.51659 0.0
C1272 C 0.76106 0.89088 0.55027 0.0
H1273 H 0.73793 0.9412 0.5851 0.0
C1274 C 0.73918 0.87278 0.55259 0.0
C1275 C 0.76115 0.91537 0.56281 0.0
C1276 C 0.78476 0.93486 0.56199 0.0
C1277 C 0.71675 0.87916 0.56616 0.0
C1278 C 0.71603 0.90443 0.57748 0.0
C1279 C 0.73848 0.92193 0.5762 0.0
C1280 C 0.69118 0.91386 0.5891 0.0
C1281 C 0.69366 0.85909 0.56785 0.0
C1282 C 0.66774 0.91909 0.57636 0.0
C1283 C 0.6441 0.92804 0.58696 0.0
C1284 C 0.64347 0.93193 0.61051 0.0
C1285 C 0.66696 0.9268 0.62331 0.0
C1286 C 0.69076 0.91795 0.61263 0.0
H1287 H 0.70029 0.83818 0.5634 0.0
H1288 H 0.68495 0.85886 0.58521 0.0
H1289 H 0.67737 0.86509 0.55588 0.0
H1290 H 0.66781 0.91639 0.55815 0.0
H1291 H 0.62632 0.93198 0.57668 0.0
H1292 H 0.98921 0.03903 0.26351 0.0
H1293 H 0.97226 1.00689 0.29173 0.0
H1294 H 0.8968 1.00011 0.25517 0.0
H1295 H 0.91342 0.03251 0.22693 0.0
H1296 H 0.89158 1.00031 0.30403 0.0
H1297 H 0.96759 0.92608 0.27206 0.0
H1298 H 0.98116 0.95815 0.28123 0.0
H1299 H 0.95922 0.95683 0.25695 0.0
C1300 C 0.96881 0.03111 0.26166 0.0
C1301 C 0.95279 0.03801 0.2428 0.0
C1302 C 0.95921 1.0127 0.27778 0.0
C1303 C 0.93353 1.00079 0.27524 0.0
C1304 C 0.91675 1.00904 0.25733 0.0
H1305 H 0.87491 0.84602 0.32054 0.0
H1306 H 0.88961 0.88645 0.29976 0.0
C1307 C 0.92629 0.02754 0.24121 0.0
C1308 C 0.92515 0.97801 0.28998 0.0
H1309 H 0.94032 0.9121 0.3027 0.0
C1310 C 0.90226 0.98104 0.30388 0.0
C1311 C 0.93899 0.95283 0.28942 0.0
C1312 C 0.96297 0.94806 0.274 0.0
C1313 C 0.89281 0.95945 0.31733 0.0
C1314 C 0.90685 0.93439 0.31692 0.0
C1315 C 0.92977 0.93144 0.30306 0.0
C1316 C 0.89738 0.91042 0.3298 0.0
C1317 C 0.86749 0.96331 0.33133 0.0
C1318 C 0.89713 0.91049 0.35358 0.0
C1319 C 0.88877 0.88738 0.36549 0.0
C1320 C 0.88067 0.86391 0.35375 0.0
C1321 C 0.88107 0.86387 0.32999 0.0
C1322 C 0.88942 0.88692 0.31812 0.0
H1323 H 0.85605 0.98176 0.3262 0.0
H1324 H 0.85391 0.94538 0.32983 0.0
H1325 H 0.87322 0.96552 0.34941 0.0
H1326 H 0.90367 0.92829 0.36289 0.0
H1327 H 0.88867 0.88785 0.38384 0.0
H1328 H 0.78321 0.69416 0.50816 0.0
H1329 H 0.75367 0.67278 0.53664 0.0
H1330 H 0.68464 0.71487 0.50876 0.0
H1331 H 0.71407 0.736 0.4802 0.0
H1332 H 0.68767 0.70884 0.56034 0.0
H1333 H 0.69821 0.61353 0.5103 0.0
H1334 H 0.729 0.63085 0.51821 0.0
H1335 H 0.70604 0.64654 0.49861 0.0
C1336 C 0.76195 0.69976 0.50881 0.0
C1337 C 0.75096 0.71708 0.49227 0.0
C1338 C 0.74504 0.68727 0.52486 0.0
C1339 C 0.71691 0.69201 0.52464 0.0
C1340 C 0.70627 0.71096 0.50926 0.0
H1341 H 0.57905 0.59822 0.5738 0.0
H1342 H 0.61249 0.62315 0.55098 0.0
C1343 C 0.72311 0.72322 0.4931 0.0
C1344 C 0.69822 0.6753 0.53874 0.0
H1345 H 0.67085 0.61155 0.54301 0.0
C1346 C 0.68411 0.68754 0.55668 0.0
C1347 C 0.69325 0.64761 0.53365 0.0
C1348 C 0.70721 0.63374 0.51407 0.0
C1349 C 0.66539 0.67271 0.56984 0.0
C1350 C 0.66068 0.64493 0.56493 0.0
C1351 C 0.67458 0.63279 0.54683 0.0
C1352 C 0.64122 0.62827 0.57835 0.0
C1353 C 0.65038 0.68697 0.58866 0.0
C1354 C 0.64664 0.62211 0.60111 0.0
C1355 C 0.62773 0.60767 0.61411 0.0
C1356 C 0.60288 0.59912 0.60468 0.0
C1357 C 0.59793 0.60447 0.58163 0.0
C1358 C 0.61699 0.61879 0.56857 0.0
H1359 H 0.6523 0.70942 0.58747 0.0
H1360 H 0.62851 0.68148 0.58839 0.0
H1361 H 0.65883 0.68042 0.60521 0.0
H1362 H 0.66537 0.62883 0.60892 0.0
H1363 H 0.63234 0.60388 0.63177 0.0
H1364 H 0.59932 0.43181 0.71174 0.0
H1365 H 0.61828 0.40117 0.74027 0.0
H1366 H 0.63293 0.46938 0.78445 0.0
H1367 H 0.61379 0.50017 0.75581 0.0
H1368 H 0.67298 0.40742 0.75369 0.0
H1369 H 0.60371 0.41006 0.82798 0.0
H1370 H 0.59295 0.41999 0.79992 0.0
H1371 H 0.61349 0.44253 0.8166 0.0
C1372 C 0.60565 0.44013 0.72789 0.0
C1373 C 0.60492 0.46836 0.73162 0.0
C1374 C 0.61667 0.42264 0.74412 0.0
C1375 C 0.6271 0.43291 0.76451 0.0
C1376 C 0.62469 0.4609 0.76898 0.0
H1377 H 0.72099 0.35688 0.87299 0.0
H1378 H 0.69735 0.38892 0.84821 0.0
C1379 C 0.6136 0.47849 0.75267 0.0
C1380 C 0.64318 0.41479 0.77965 0.0
H1381 H 0.64542 0.38687 0.83264 0.0
C1382 C 0.6669 0.40286 0.77095 0.0
C1383 C 0.63544 0.40908 0.80222 0.0
C1384 C 0.60991 0.42087 0.81229 0.0
C1385 C 0.68313 0.38551 0.78416 0.0
C1386 C 0.67514 0.37931 0.80662 0.0
C1387 C 0.65156 0.39151 0.81543 0.0
C1388 C 0.69078 0.36002 0.82114 0.0
C1389 C 0.70901 0.37449 0.77403 0.0
C1390 C 0.69522 0.33305 0.8142 0.0
C1391 C 0.709 0.3147 0.82827 0.0
C1392 C 0.71834 0.3228 0.84975 0.0
C1393 C 0.71416 0.34991 0.85654 0.0
C1394 C 0.70051 0.36827 0.84242 0.0
H1395 H 0.71632 0.38736 0.75982 0.0
H1396 H 0.72534 0.37309 0.78694 0.0
H1397 H 0.70515 0.35382 0.76724 0.0
H1398 H 0.68744 0.32595 0.7981 0.0
H1399 H 0.71153 0.29393 0.82259 0.0
H1400 H 1.00281 0.45919 0.07706 0.0
H1401 H 0.96774 0.43791 0.05337 0.0
H1402 H 0.93323 0.40001 0.11266 0.0
H1403 H 0.96703 0.42223 0.13633 0.0
H1404 H 0.95625 0.3877 0.04399 0.0
H1405 H 0.86595 0.43 0.08678 0.0
H1406 H 0.89977 0.44184 0.09292 0.0
H1407 H 0.88679 0.41152 0.10627 0.0
C1408 C 0.98744 0.44668 0.08504 0.0
C1409 C 0.98751 0.44281 0.10864 0.0
C1410 C 0.96745 0.43438 0.07148 0.0
C1411 C 0.94729 0.41771 0.08119 0.0
C1412 C 0.94777 0.41349 0.10472 0.0
H1413 H 0.85095 0.30898 0.992 0.0
H1414 H 0.8823 0.3244 0.02186 0.0
C1415 C 0.96732 0.42617 0.11827 0.0
C1416 C 0.9263 0.4041 0.06674 0.0
H1417 H 0.858 0.39316 0.06152 0.0
C1418 C 0.93475 0.38903 0.04777 0.0
C1419 C 0.89812 0.4059 0.07144 0.0
C1420 C 0.88711 0.42343 0.09031 0.0
C1421 C 0.91599 0.37597 0.0334 0.0
C1422 C 0.88787 0.37699 0.03856 0.0
C1423 C 0.87949 0.39186 0.05766 0.0
C1424 C 0.86661 0.36553 0.02311 0.0
C1425 C 0.92654 0.36222 0.01231 0.0
C1426 C 0.84587 0.38262 0.01518 0.0
C1427 C 0.82753 0.37356 -0.00118 0.0
C1428 C 0.82955 0.34725 0.98964 0.0
C1429 C 0.84891 0.32935 -0.00127 0.0
C1430 C 0.86718 0.33837 0.01547 0.0
H1431 H 0.94729 0.3693 0.00786 0.0
H1432 H 0.92754 0.33997 0.01523 0.0
H1433 H 0.91299 0.36607 -0.00237 0.0
H1434 H 0.8446 0.40352 0.02084 0.0
H1435 H 0.81266 0.38778 0.99231 0.0
H1436 H 0.8977 0.69592 0.38901 0.0
H1437 H 0.92126 0.6624 0.36598 0.0
H1438 H 0.8813 0.69319 0.30622 0.0
H1439 H 0.85882 0.72808 0.32922 0.0
H1440 H 0.90708 0.62201 0.34304 0.0
H1441 H 0.95591 0.69213 0.28237 0.0
H1442 H 0.93819 0.70419 0.3071 0.0
H1443 H 0.91974 0.69568 0.28168 0.0
C1444 C 0.89385 0.69562 0.37095 0.0
C1445 C 0.87636 0.7148 0.36097 0.0
C1446 C 0.90745 0.67637 0.35772 0.0
C1447 C 0.9037 0.67539 0.33414 0.0
C1448 C 0.88546 0.69396 0.3242 0.0
H1449 H 0.933 0.53546 0.25073 0.0
H1450 H 0.91809 0.56774 0.27927 0.0
C1451 C 0.87228 0.71373 0.33741 0.0
C1452 C 0.91837 0.65442 0.32032 0.0
H1453 H 0.95598 0.64501 0.2722 0.0
C1454 C 0.91798 0.62722 0.32767 0.0
C1455 C 0.93336 0.66094 0.30051 0.0
C1456 C 0.93711 0.68987 0.2926 0.0
C1457 C 0.93128 0.60648 0.31559 0.0
C1458 C 0.94449 0.61269 0.29488 0.0
C1459 C 0.94567 0.63999 0.28789 0.0
C1460 C 0.95537 0.5911 0.27945 0.0
C1461 C 0.9313 0.57819 0.32548 0.0
C1462 C 0.98145 0.59314 0.26972 0.0
C1463 C 0.98993 0.5747 0.25292 0.0
C1464 C 0.97243 0.55396 0.24553 0.0
C1465 C 0.94706 0.55107 0.25623 0.0
C1466 C 0.93853 0.56954 0.2727 0.0
H1467 H 0.93064 0.57887 0.34428 0.0
H1468 H 0.91288 0.5672 0.3197 0.0
H1469 H 0.94952 0.56651 0.32025 0.0
H1470 H 0.99488 0.60961 0.27451 0.0
H1471 H 1.00938 0.57771 0.24473 0.0
H1472 H 0.57352 0.43646 0.41698 0.0
H1473 H 0.60701 0.41205 0.43998 0.0
H1474 H 0.66648 0.42173 0.38703 0.0
H1475 H 0.63332 0.44629 0.36404 0.0
H1476 H 0.6345 0.36323 0.42835 0.0
H1477 H 0.70733 0.44742 0.44365 0.0
H1478 H 0.67311 0.45323 0.43386 0.0
H1479 H 0.69883 0.44201 0.41441 0.0
C1480 C 0.59385 0.43379 0.41036 0.0
C1481 C 0.60071 0.44351 0.38866 0.0
C1482 C 0.61293 0.41966 0.42349 0.0
C1483 C 0.63936 0.41518 0.41534 0.0
C1484 C 0.64638 0.42526 0.39386 0.0
H1485 H 0.78323 0.34202 0.47718 0.0
H1486 H 0.75062 0.35807 0.44866 0.0
C1487 C 0.62732 0.43928 0.3807 0.0
C1488 C 0.65931 0.39926 0.42895 0.0
H1489 H 0.72096 0.40355 0.45526 0.0
C1490 C 0.6534 0.37205 0.43427 0.0
C1491 C 0.68409 0.41065 0.43652 0.0
C1492 C 0.69122 0.43999 0.43202 0.0
C1493 C 0.67162 0.35592 0.44682 0.0
C1494 C 0.69625 0.36743 0.45468 0.0
C1495 C 0.70224 0.39457 0.44912 0.0
C1496 C 0.71527 0.35252 0.46997 0.0
C1497 C 0.66444 0.3266 0.45126 0.0
C1498 C 0.70627 0.34306 0.49115 0.0
C1499 C 0.72484 0.33355 0.50725 0.0
C1500 C 0.75281 0.33334 0.50258 0.0
C1501 C 0.76172 0.3412 0.48095 0.0
C1502 C 0.74311 0.35073 0.46479 0.0
H1503 H 0.65028 0.31862 0.4382 0.0
H1504 H 0.68283 0.31357 0.45161 0.0
H1505 H 0.65414 0.32501 0.46793 0.0
H1506 H 0.68511 0.3448 0.49587 0.0
H1507 H 0.71756 0.32842 0.52404 0.0
H1508 H 0.97568 0.51012 0.7244 0.0
H1509 H 0.95829 0.47577 0.69795 0.0
H1510 H 0.98939 0.41231 0.74103 0.0
H1511 H 1.00672 0.44664 0.76745 0.0
H1512 H 0.98006 0.4255 0.67469 0.0
H1513 H 0.90392 0.40604 0.7424 0.0
H1514 H 0.92493 0.43612 0.742 0.0
H1515 H 0.93897 0.40414 0.75074 0.0
C1516 C 0.98011 0.48889 0.72753 0.0
C1517 C 0.99302 0.48102 0.74772 0.0
C1518 C 0.96986 0.46925 0.71258 0.0
C1519 C 0.97214 0.44148 0.71772 0.0
C1520 C 0.98722 0.43362 0.73682 0.0
H1521 H 0.88608 0.29784 0.66865 0.0
H1522 H 0.91312 0.33062 0.69025 0.0
C1523 C 0.99751 0.45323 0.75172 0.0
C1524 C 0.956 0.42106 0.70485 0.0
H1525 H 0.9009 0.37908 0.70955 0.0
C1526 C 0.96277 0.41531 0.68227 0.0
C1527 C 0.93339 0.40783 0.71477 0.0
C1528 C 0.92462 0.41389 0.73875 0.0
C1529 C 0.94779 0.39634 0.66947 0.0
C1530 C 0.92496 0.38328 0.67932 0.0
C1531 C 0.91832 0.38903 0.70195 0.0
C1532 C 0.90765 0.36367 0.66649 0.0
C1533 C 0.95698 0.39002 0.64567 0.0
C1534 C 0.89475 0.37148 0.64629 0.0
C1535 C 0.87927 0.35277 0.6339 0.0
C1536 C 0.87606 0.32584 0.64153 0.0
C1537 C 0.88805 0.31838 0.66226 0.0
C1538 C 0.90364 0.3371 0.67459 0.0
H1539 H 0.97868 0.39533 0.64308 0.0
H1540 H 0.95412 0.36816 0.64164 0.0
H1541 H 0.9448 0.40214 0.63352 0.0
H1542 H 0.89678 0.39205 0.63999 0.0
H1543 H 0.8702 0.35932 0.6181 0.0
H1544 H 0.87377 0.72198 0.02095 0.0
H1545 H 0.90704 0.70492 0.9936 0.0
H1546 H 0.8422 0.6842 0.9477 0.0
H1547 H 0.80888 0.70139 0.97513 0.0
H1548 H 0.90447 0.64922 0.9815 0.0
H1549 H 0.90176 0.71518 0.90514 0.0
H1550 H 0.89015 0.7266 0.93258 0.0
H1551 H 0.86931 0.7044 0.91584 0.0
C1552 C 0.86676 0.71508 0.00453 0.0
C1553 C 0.8388 0.71356 -7e-05 0.0
C1554 C 0.88575 0.70501 0.98902 0.0
C1555 C 0.87719 0.69327 0.96855 0.0
C1556 C 0.84937 0.69355 0.96319 0.0
H1557 H 0.95917 0.59765 0.86446 0.0
H1558 H 0.92615 0.62184 0.88793 0.0
C1559 C 0.83032 0.7036 0.97878 0.0
C1560 C 0.89687 0.67759 0.95448 0.0
H1561 H 0.92635 0.67395 0.90215 0.0
C1562 C 0.90939 0.65472 0.96418 0.0
C1563 C 0.903 0.68452 0.93181 0.0
C1564 C 0.89056 0.70912 0.92068 0.0
C1565 C 0.92759 0.63847 0.95181 0.0
C1566 C 0.93413 0.6456 0.92921 0.0
C1567 C 0.92147 0.66843 0.91946 0.0
C1568 C 0.95408 0.62976 0.91544 0.0
C1569 C 0.93903 0.61335 0.96296 0.0
C1570 C 0.98086 0.62589 0.92304 0.0
C1571 C 0.99975 0.61174 0.90974 0.0
C1572 C 0.99242 0.60146 0.88836 0.0
C1573 C 0.96554 0.60516 0.88086 0.0
C1574 C 0.94662 0.61915 0.89424 0.0
H1575 H 0.92595 0.60627 0.97712 0.0
H1576 H 0.94129 0.59649 0.95061 0.0
H1577 H 0.95933 0.61812 0.97007 0.0
H1578 H 0.9874 0.63437 0.93905 0.0
H1579 H 1.02033 0.60963 0.91594 0.0
H1580 H 0.58464 0.58859 0.25564 0.0
H1581 H 0.60211 0.62117 0.22764 0.0
H1582 H 0.65789 0.56056 0.20296 0.0
H1583 H 0.64047 0.52814 0.23092 0.0
H1584 H 0.68279 0.60904 0.21845 0.0
H1585 H 0.59945 0.63119 0.15777 0.0
H1586 H 0.59045 0.63243 0.18728 0.0
H1587 H 0.60024 0.60066 0.17479 0.0
C1588 C 0.59959 0.58186 0.24341 0.0
C1589 C 0.61074 0.55566 0.24505 0.0
C1590 C 0.60977 0.60055 0.22755 0.0
C1591 C 0.63134 0.59334 0.21314 0.0
C1592 C 0.6412 0.56659 0.21381 0.0
H1593 H 0.71182 0.68553 0.10708 0.0
H1594 H 0.6886 0.65143 0.13013 0.0
C1595 C 0.63099 0.54794 0.22957 0.0
C1596 C 0.64585 0.61431 0.19946 0.0
H1597 H 0.63859 0.65923 0.15566 0.0
C1598 C 0.67312 0.61998 0.20469 0.0
C1599 C 0.63328 0.62858 0.1815 0.0
C1600 C 0.6043 0.62286 0.17479 0.0
C1601 C 0.68807 0.63955 0.19257 0.0
C1602 C 0.67544 0.65404 0.17478 0.0
C1603 C 0.64822 0.64825 0.1694 0.0
C1604 C 0.69038 0.67471 0.16114 0.0
C1605 C 0.71744 0.64428 0.19864 0.0
C1606 C 0.69938 0.69916 0.17092 0.0
C1607 C 0.7127 0.71884 0.15773 0.0
C1608 C 0.71733 0.71444 0.13449 0.0
C1609 C 0.70873 0.68967 0.12491 0.0
C1610 C 0.69529 0.67014 0.13805 0.0
H1611 H 0.7256 0.6279 0.20965 0.0
H1612 H 0.73012 0.64562 0.18311 0.0
H1613 H 0.71932 0.66384 0.20786 0.0
H1614 H 0.69562 0.70325 0.18867 0.0
H1615 H 0.71885 0.73771 0.16566 0.0
H1616 H 0.26612 0.33844 0.47321 0.0
H1617 H 0.29766 0.35408 0.44401 0.0
H1618 H 0.31578 0.42526 0.48382 0.0
H1619 H 0.28403 0.41 0.51303 0.0
H1620 H 0.31374 0.43434 0.43537 0.0
H1621 H 0.3792 0.34717 0.46034 0.0
H1622 H 0.34528 0.33865 0.45167 0.0
H1623 H 0.35056 0.35799 0.4771 0.0
C1624 C 0.27635 0.35773 0.47556 0.0
C1625 C 0.27291 0.37278 0.49561 0.0
C1626 C 0.29441 0.36658 0.45887 0.0
C1627 C 0.30941 0.3905 0.46202 0.0
C1628 C 0.30445 0.40665 0.48115 0.0
H1629 H 0.46755 0.43854 0.42078 0.0
H1630 H 0.42548 0.42475 0.43948 0.0
C1631 C 0.28629 0.39789 0.49783 0.0
C1632 C 0.33229 0.3972 0.44677 0.0
H1633 H 0.39575 0.37599 0.43178 0.0
C1634 C 0.33159 0.42151 0.43436 0.0
C1635 C 0.35564 0.3805 0.44579 0.0
C1636 C 0.35797 0.35472 0.45954 0.0
C1637 C 0.35386 0.42973 0.42112 0.0
C1638 C 0.3772 0.41305 0.42025 0.0
C1639 C 0.37769 0.38857 0.43238 0.0
C1640 C 0.40229 0.42162 0.40847 0.0
C1641 C 0.35273 0.45661 0.40888 0.0
C1642 C 0.40319 0.42414 0.38479 0.0
C1643 C 0.42731 0.43196 0.37403 0.0
C1644 C 0.45074 0.43729 0.38685 0.0
C1645 C 0.44977 0.43453 0.4105 0.0
C1646 C 0.42578 0.42669 0.4212 0.0
H1647 H 0.33503 0.46903 0.41422 0.0
H1648 H 0.37159 0.46843 0.41194 0.0
H1649 H 0.35112 0.45292 0.39039 0.0
H1650 H 0.38535 0.41991 0.37468 0.0
H1651 H 0.42759 0.43394 0.35576 0.0
H1652 H 0.41494 0.48939 0.251 0.0
H1653 H 0.39483 0.51873 0.22196 0.0
H1654 H 0.47332 0.55481 0.20952 0.0
H1655 H 0.49358 0.52497 0.23757 0.0
H1656 H 0.39063 0.57093 0.22305 0.0
H1657 H 0.44873 0.54632 0.14613 0.0
H1658 H 0.44995 0.52516 0.17107 0.0
H1659 H 0.47183 0.55444 0.16854 0.0
C1660 C 0.42797 0.50315 0.24167 0.0
C1661 C 0.45585 0.5048 0.24655 0.0
C1662 C 0.41647 0.51992 0.2251 0.0
C1663 C 0.43261 0.5387 0.21322 0.0
C1664 C 0.46054 0.53992 0.21783 0.0
H1665 H 0.39021 0.69794 0.17008 0.0
H1666 H 0.40264 0.65594 0.18956 0.0
C1667 C 0.47208 0.52295 0.23409 0.0
C1668 C 0.42011 0.5591 0.19791 0.0
H1669 H 0.42979 0.59206 0.14766 0.0
C1670 C 0.39886 0.57517 0.20637 0.0
C1671 C 0.43033 0.5644 0.17592 0.0
C1672 C 0.45125 0.5464 0.16483 0.0
C1673 C 0.38874 0.59733 0.19407 0.0
C1674 C 0.40089 0.60426 0.17312 0.0
C1675 C 0.42091 0.58719 0.16398 0.0
C1676 C 0.39398 0.62974 0.16096 0.0
C1677 C 0.36522 0.61313 0.20381 0.0
C1678 C 0.38633 0.62919 0.13804 0.0
C1679 C 0.37989 0.65331 0.12671 0.0
C1680 C 0.38087 0.67829 0.13818 0.0
C1681 C 0.38904 0.67889 0.16093 0.0
C1682 C 0.39586 0.65487 0.17213 0.0
H1683 H 0.35239 0.60005 0.21481 0.0
H1684 H 0.37315 0.62994 0.21445 0.0
H1685 H 0.35227 0.6219 0.19027 0.0
H1686 H 0.385 0.61008 0.12901 0.0
H1687 H 0.37362 0.65236 0.10914 0.0
H1688 H 0.12424 0.60871 0.92037 0.0
H1689 H 0.16541 0.62499 0.93907 0.0
H1690 H 0.20631 0.62906 0.87456 0.0
H1691 H 0.16493 0.61267 0.85562 0.0
H1692 H 0.23622 0.60253 0.9117 0.0
H1693 H 0.19569 0.70409 0.9344 0.0
H1694 H 0.17369 0.67636 0.94189 0.0
H1695 H 0.18077 0.68314 0.91256 0.0
C1696 C 0.14196 0.61316 0.91015 0.0
C1697 C 0.14144 0.60961 0.88657 0.0
C1698 C 0.16541 0.62251 0.92084 0.0
C1699 C 0.18871 0.62847 0.90813 0.0
C1700 C 0.18842 0.62465 0.88458 0.0
H1701 H 0.31794 0.71534 0.97802 0.0
H1702 H 0.28873 0.69948 0.94733 0.0
C1703 C 0.16483 0.6154 0.87383 0.0
C1704 C 0.2133 0.6385 0.91976 0.0
H1705 H 0.23538 0.68954 0.95412 0.0
C1706 C 0.2363 0.62174 0.92072 0.0
C1707 C 0.21338 0.66369 0.93121 0.0
C1708 C 0.18966 0.68302 0.92984 0.0
C1709 C 0.25895 0.62896 0.93387 0.0
C1710 C 0.2583 0.65338 0.94649 0.0
C1711 C 0.23581 0.67073 0.94455 0.0
C1712 C 0.27972 0.66074 0.96297 0.0
C1713 C 0.28319 0.61028 0.93433 0.0
C1714 C 0.28485 0.64394 0.98172 0.0
C1715 C 0.30163 0.65292 -0.00071 0.0
C1716 C 0.31326 0.67899 -0.00148 0.0
C1717 C 0.30917 0.6952 0.97919 0.0
C1718 C 0.29251 0.68617 0.96161 0.0
H1719 H 0.28424 0.59763 0.91877 0.0
H1720 H 0.30241 0.62191 0.93601 0.0
H1721 H 0.28141 0.59637 0.94906 0.0
H1722 H 0.27474 0.62449 0.98336 0.0
H1723 H 0.30428 0.63999 0.01397 0.0
H1724 H 0.2015 0.38798 0.60686 0.0
H1725 H 0.1869 0.42816 0.62829 0.0
H1726 H 0.20252 0.38581 0.69093 0.0
H1727 H 0.21681 0.34564 0.66967 0.0
H1728 H 0.15184 0.41131 0.68918 0.0
H1729 H 0.23518 0.48157 0.66434 0.0
H1730 H 0.21739 0.46553 0.64135 0.0
H1731 H 0.23727 0.44523 0.6604 0.0
C1732 C 0.20183 0.38733 0.6252 0.0
C1733 C 0.21026 0.36379 0.63666 0.0
C1734 C 0.19369 0.41031 0.63739 0.0
C1735 C 0.19399 0.41003 0.66117 0.0
C1736 C 0.20227 0.38644 0.67258 0.0
H1737 H 0.18004 0.53248 0.76426 0.0
H1738 H 0.19606 0.49981 0.73602 0.0
C1739 C 0.2104 0.36354 0.66044 0.0
C1740 C 0.1848 0.43388 0.67436 0.0
H1741 H 0.20009 0.49986 0.68711 0.0
C1742 C 0.1623 0.43072 0.68866 0.0
C1743 C 0.19871 0.45903 0.67376 0.0
C1744 C 0.22363 0.46314 0.6593 0.0
C1745 C 0.15334 0.45201 0.70252 0.0
C1746 C 0.16701 0.47729 0.70174 0.0
C1747 C 0.18952 0.48052 0.68743 0.0
C1748 C 0.15882 0.50004 0.7166 0.0
C1749 C 0.1298 0.44702 0.71838 0.0
C1750 C 0.13303 0.51177 0.71443 0.0
C1751 C 0.12378 0.53035 0.73054 0.0
C1752 C 0.14026 0.53761 0.74903 0.0
C1753 C 0.16682 0.52724 0.75026 0.0
C1754 C 0.17601 0.50858 0.73415 0.0
H1755 H 0.1254 0.42501 0.72041 0.0
H1756 H 0.13392 0.45584 0.73535 0.0
H1757 H 0.11135 0.45694 0.71147 0.0
H1758 H 0.11966 0.50574 0.70075 0.0
H1759 H 0.10332 0.53815 0.72897 0.0
H1760 H 0.28773 0.641 0.47865 0.0
H1761 H 0.31816 0.62461 0.50831 0.0
H1762 H 0.30664 0.69916 0.54549 0.0
H1763 H 0.27652 0.71591 0.51575 0.0
H1764 H 0.35969 0.68847 0.53717 0.0
H1765 H 0.31026 0.5969 0.5729 0.0
H1766 H 0.31208 0.59617 0.54254 0.0
H1767 H 0.29197 0.62178 0.55636 0.0
C1768 C 0.29111 0.65365 0.4934 0.0
C1769 C 0.27988 0.67985 0.49476 0.0
C1770 C 0.30841 0.64417 0.51042 0.0
C1771 C 0.31449 0.66058 0.52919 0.0
C1772 C 0.30214 0.68614 0.53117 0.0
H1773 H 0.42981 0.61054 0.63512 0.0
H1774 H 0.38862 0.62724 0.61617 0.0
C1775 C 0.28494 0.69567 0.51414 0.0
C1776 C 0.33634 0.65264 0.54509 0.0
H1777 H 0.35836 0.60126 0.57934 0.0
C1778 C 0.3592 0.6696 0.54667 0.0
C1779 C 0.3356 0.62813 0.55759 0.0
C1780 C 0.31103 0.60982 0.55747 0.0
C1781 C 0.38182 0.66214 0.55961 0.0
C1782 C 0.38171 0.63691 0.57103 0.0
C1783 C 0.35843 0.62048 0.57035 0.0
C1784 C 0.40624 0.62665 0.5826 0.0
C1785 C 0.40585 0.68114 0.5607 0.0
C1786 C 0.42952 0.62057 0.56991 0.0
C1787 C 0.45289 0.61106 0.58062 0.0
C1788 C 0.45334 0.60744 0.60419 0.0
C1789 C 0.42997 0.61332 0.61691 0.0
C1790 C 0.40648 0.62275 0.60615 0.0
H1791 H 0.4001 0.70229 0.55618 0.0
H1792 H 0.41502 0.68115 0.57788 0.0
H1793 H 0.42153 0.67424 0.54848 0.0
H1794 H 0.42955 0.62311 0.55168 0.0
H1795 H 0.47059 0.60653 0.57041 0.0
H1796 H 0.19838 0.69676 0.32622 0.0
H1797 H 0.184 0.65493 0.30753 0.0
H1798 H 0.20438 0.60913 0.36754 0.0
H1799 H 0.21777 0.65137 0.38668 0.0
H1800 H 0.21338 0.61175 0.29708 0.0
H1801 H 0.12968 0.58037 0.35454 0.0
H1802 H 0.14521 0.61351 0.35605 0.0
H1803 H 0.162 0.5845 0.36815 0.0
C1804 C 0.19949 0.6778 0.33551 0.0
C1805 C 0.20901 0.67722 0.35789 0.0
C1806 C 0.19137 0.6539 0.32481 0.0
C1807 C 0.19286 0.62888 0.33618 0.0
C1808 C 0.20245 0.62824 0.3586 0.0
H1809 H 0.17189 0.48617 0.24727 0.0
H1810 H 0.19198 0.51594 0.27605 0.0
C1811 C 0.2102 0.65232 0.36947 0.0
C1812 C 0.18504 0.60367 0.32402 0.0
H1813 H 0.13979 0.55108 0.32412 0.0
C1814 C 0.19739 0.59837 0.30305 0.0
C1815 C 0.16416 0.58627 0.33185 0.0
C1816 C 0.14929 0.5915 0.35377 0.0
C1817 C 0.18865 0.57695 0.28918 0.0
C1818 C 0.16762 0.55965 0.2969 0.0
C1819 C 0.15605 0.56424 0.31832 0.0
C1820 C 0.15515 0.53887 0.28194 0.0
C1821 C 0.20096 0.57417 0.26586 0.0
C1822 C 0.12744 0.54079 0.27671 0.0
C1823 C 0.11583 0.5235 0.26071 0.0
C1824 C 0.13174 0.50405 0.24942 0.0
C1825 C 0.15919 0.50118 0.25549 0.0
C1826 C 0.17074 0.51829 0.27181 0.0
H1827 H 0.21224 0.59274 0.26071 0.0
H1828 H 0.21548 0.55695 0.26582 0.0
H1829 H 0.18507 0.57005 0.25297 0.0
H1830 H 0.11497 0.55642 0.28436 0.0
H1831 H 0.0946 0.52623 0.25653 0.0
H1832 H 0.16066 0.43091 0.13384 0.0
H1833 H 0.20137 0.41594 0.11335 0.0
H1834 H 0.15985 0.42791 0.0498 0.0
H1835 H 0.11916 0.44254 0.07012 0.0
H1836 H 0.1862 0.37793 0.05327 0.0
H1837 H 0.25448 0.46353 0.07653 0.0
H1838 H 0.23847 0.44631 0.09984 0.0
H1839 H 0.21811 0.4651 0.08008 0.0
C1840 C 0.1603 0.43035 0.1155 0.0
C1841 C 0.13685 0.43787 0.10352 0.0
C1842 C 0.18358 0.422 0.10384 0.0
C1843 C 0.1837 0.42118 0.08007 0.0
C1844 C 0.16019 0.42852 0.06814 0.0
H1845 H 0.30765 0.40639 0.97862 0.0
H1846 H 0.27448 0.42253 0.00637 0.0
C1847 C 0.13698 0.43685 0.07976 0.0
C1848 C 0.20792 0.41187 0.06743 0.0
H1849 H 0.27371 0.42793 0.05489 0.0
C1850 C 0.20539 0.38876 0.0537 0.0
C1851 C 0.23278 0.42626 0.0679 0.0
C1852 C 0.23622 0.45182 0.08171 0.0
C1853 C 0.22701 0.3797 0.04026 0.0
C1854 C 0.252 0.39388 0.0409 0.0
C1855 C 0.2546 0.41697 0.05468 0.0
C1856 C 0.27504 0.38569 0.02637 0.0
C1857 C 0.22265 0.35551 0.02495 0.0
C1858 C 0.28713 0.36011 0.02902 0.0
C1859 C 0.30599 0.35078 0.01318 0.0
C1860 C 0.31319 0.36698 0.99448 0.0
C1861 C 0.30247 0.39338 0.99278 0.0
C1862 C 0.28352 0.40265 0.00861 0.0
H1863 H 0.20077 0.35066 0.02282 0.0
H1864 H 0.23163 0.3592 0.00796 0.0
H1865 H 0.23276 0.33746 0.0324 0.0
H1866 H 0.28116 0.34693 0.04286 0.0
H1867 H 0.31406 0.33044 0.0151 0.0
H1868 H 0.41512 0.52996 0.72835 0.0
H1869 H 0.39927 0.49939 0.75816 0.0
H1870 H 0.47541 0.50889 0.79334 0.0
H1871 H 0.49162 0.53913 0.76344 0.0
H1872 H 0.46319 0.4561 0.78485 0.0
H1873 H 0.37441 0.5071 0.82357 0.0
H1874 H 0.37245 0.5056 0.79323 0.0
H1875 H 0.399 0.52506 0.80648 0.0
C1876 C 0.42825 0.5261 0.7427 0.0
C1877 C 0.45471 0.5368 0.74344 0.0
C1878 C 0.41909 0.50872 0.75981 0.0
C1879 C 0.43609 0.50203 0.77805 0.0
C1880 C 0.46195 0.51386 0.77943 0.0
H1881 H 0.38881 0.38821 0.88577 0.0
H1882 H 0.40507 0.4289 0.86578 0.0
C1883 C 0.47117 0.53113 0.76232 0.0
C1884 C 0.42831 0.48013 0.79399 0.0
H1885 H 0.37818 0.45893 0.82985 0.0
C1886 C 0.4448 0.4569 0.79493 0.0
C1887 C 0.40443 0.48127 0.80725 0.0
C1888 C 0.38669 0.50622 0.80779 0.0
C1889 C 0.4375 0.43435 0.80808 0.0
C1890 C 0.41288 0.43491 0.82034 0.0
C1891 C 0.39692 0.45851 0.8202 0.0
C1892 C 0.40286 0.41064 0.8325 0.0
C1893 C 0.45607 0.40997 0.80855 0.0
C1894 C 0.39601 0.38715 0.82033 0.0
C1895 C 0.38676 0.36403 0.83164 0.0
C1896 C 0.38416 0.36407 0.85531 0.0
C1897 C 0.39079 0.38767 0.86751 0.0
C1898 C 0.39997 0.41088 0.85614 0.0
H1899 H 0.47706 0.41537 0.80333 0.0
H1900 H 0.45674 0.40079 0.82573 0.0
H1901 H 0.44831 0.39441 0.79658 0.0
H1902 H 0.39773 0.38674 0.80203 0.0
H1903 H 0.38162 0.34614 0.82184 0.0
H1904 H 0.27951 0.84971 0.09928 0.0
H1905 H 0.26045 0.88628 0.12254 0.0
H1906 H 0.26691 0.94157 0.06611 0.0
H1907 H 0.28643 0.90532 0.04296 0.0
H1908 H 0.27406 0.96604 0.11181 0.0
H1909 H 0.18114 0.90336 0.09986 0.0
H1910 H 0.2094 0.88593 0.11248 0.0
H1911 H 0.21177 0.89783 0.08377 0.0
C1912 C 0.2779 0.86994 0.09217 0.0
C1913 C 0.28386 0.87464 0.06925 0.0
C1914 C 0.26693 0.89075 0.1054 0.0
C1915 C 0.26185 0.91637 0.09582 0.0
C1916 C 0.27059 0.92188 0.07373 0.0
H1917 H 0.1223 1.00818 0.14038 0.0
H1918 H 0.15826 0.99193 0.11516 0.0
C1919 C 0.28157 0.90114 0.06052 0.0
C1920 C 0.24323 0.93552 0.10711 0.0
H1921 H 0.17708 0.94215 0.1229 0.0
C1922 C 0.25284 0.96095 0.11427 0.0
C1923 C 0.21542 0.92906 0.10954 0.0
C1924 C 0.20365 0.90269 0.10084 0.0
C1925 C 0.23538 0.97978 0.12467 0.0
C1926 C 0.20781 0.97272 0.12807 0.0
C1927 C 0.19818 0.9476 0.12022 0.0
C1928 C 0.18884 0.98962 0.14144 0.0
C1929 C 0.24654 1.007 0.13181 0.0
C1930 C 0.19449 0.99488 0.16429 0.0
C1931 C 0.1741 1.00437 0.17861 0.0
C1932 C 0.14759 1.00834 0.1704 0.0
C1933 C 0.14253 1.00532 0.14714 0.0
C1934 C 0.16304 0.99596 0.13276 0.0
H1935 H 0.26431 1.01289 0.12129 0.0
H1936 H 0.2309 0.02316 0.13056 0.0
H1937 H 0.25344 1.00574 0.14967 0.0
H1938 H 0.21403 0.98971 0.17149 0.0
H1939 H 0.17862 1.00696 0.19644 0.0
H1940 H 0.47139 1.00257 0.34991 0.0
H1941 H 0.43617 0.98417 0.37496 0.0
H1942 H 0.37582 0.99839 0.3234 0.0
H1943 H 0.41067 1.0175 0.29861 0.0
H1944 H 0.3558 1.00352 0.36912 0.0
H1945 H 0.41229 0.90786 0.35229 0.0
H1946 H 0.43209 0.93429 0.36525 0.0
H1947 H 0.41901 0.93892 0.33708 0.0
C1948 C 0.45046 1.00271 0.34429 0.0
C1949 C 0.44378 1.01074 0.32217 0.0
C1950 C 0.43041 0.99211 0.35853 0.0
C1951 C 0.40361 0.98937 0.35072 0.0
C1952 C 0.39643 1.00017 0.32962 0.0
H1953 H 0.30784 0.85255 0.39459 0.0
H1954 H 0.32427 0.88903 0.37 0.0
C1955 C 0.41638 1.01085 0.31545 0.0
C1956 C 0.38433 0.97134 0.36257 0.0
H1957 H 0.37488 0.90499 0.37693 0.0
C1958 C 0.35986 0.98197 0.37089 0.0
C1959 C 0.38938 0.94312 0.36409 0.0
C1960 C 0.41447 0.93024 0.35403 0.0
C1961 C 0.34061 0.96508 0.38145 0.0
C1962 C 0.34628 0.93705 0.38385 0.0
C1963 C 0.37048 0.92646 0.37498 0.0
C1964 C 0.3289 0.91834 0.39708 0.0
C1965 C 0.31438 0.97735 0.38971 0.0
C1966 C 0.32468 0.92323 0.4202 0.0
C1967 C 0.31498 0.90257 0.43418 0.0
C1968 C 0.30985 0.87652 0.42535 0.0
C1969 C 0.31165 0.87239 0.40186 0.0
C1970 C 0.32113 0.89319 0.38783 0.0
H1971 H 0.30901 0.9958 0.37983 0.0
H1972 H 0.29736 0.9626 0.38859 0.0
H1973 H 0.31678 0.98351 0.40768 0.0
H1974 H 0.3309 0.94226 0.42781 0.0
H1975 H 0.31324 0.90644 0.45218 0.0
H1976 H 0.38002 0.22912 0.56626 0.0
H1977 H 0.40544 0.19829 0.59092 0.0
H1978 H 0.33125 0.15673 0.60845 0.0
H1979 H 0.30562 0.18758 0.58365 0.0
H1980 H 0.37937 0.17044 0.64544 0.0
H1981 H 0.40386 0.11232 0.56712 0.0
H1982 H 0.40546 0.14886 0.56551 0.0
H1983 H 0.37338 0.13246 0.56994 0.0
C1984 C 0.36907 0.21393 0.57593 0.0
C1985 C 0.34099 0.21051 0.57307 0.0
C1986 C 0.38356 0.19635 0.58988 0.0
C1987 C 0.37013 0.17519 0.60111 0.0
C1988 C 0.34181 0.17303 0.59979 0.0
H1989 H 0.45355 0.03535 0.66048 0.0
H1990 H 0.42227 0.06277 0.6375 0.0
C1991 C 0.32723 0.19071 0.58581 0.0
C1992 C 0.38626 0.15393 0.61222 0.0
H1993 H 0.42857 0.10099 0.60025 0.0
C1994 C 0.3899 0.15503 0.63569 0.0
C1995 C 0.39956 0.13375 0.59931 0.0
C1996 C 0.39535 0.13149 0.57407 0.0
C1997 C 0.40763 0.13701 0.64656 0.0
C1998 C 0.42229 0.11791 0.63344 0.0
C1999 C 0.41755 0.11594 0.61012 0.0
C2000 C 0.44335 0.10064 0.64372 0.0
C2001 C 0.41082 0.13876 0.67195 0.0
C2002 C 0.46629 0.11274 0.65351 0.0
C2003 C 0.48408 0.09721 0.66645 0.0
C2004 C 0.47927 0.06936 0.66957 0.0
C2005 C 0.45772 0.05678 0.65807 0.0
C2006 C 0.43978 0.07241 0.64516 0.0
H2007 H 0.39322 0.14907 0.67998 0.0
H2008 H 0.41307 0.11823 0.67954 0.0
H2009 H 0.42933 0.15068 0.67598 0.0
H2010 H 0.46961 0.13444 0.65212 0.0
H2011 H 0.50062 0.10723 0.67522 0.0
H2012 H 0.28608 0.13904 0.9535 0.0
H2013 H 0.2679 0.10323 0.92942 0.0
H2014 H 0.27122 0.15718 0.87185 0.0
H2015 H 0.288 0.19365 0.89618 0.0
H2016 H 0.2213 0.14024 0.87985 0.0
H2017 H 0.28886 0.0506 0.88057 0.0
H2018 H 0.28169 0.06242 0.90867 0.0
H2019 H 0.30018 0.0839 0.88936 0.0
C2020 C 0.28345 0.14311 0.9356 0.0
C2021 C 0.28775 0.16936 0.92684 0.0
C2022 C 0.27346 0.12245 0.92177 0.0
C2023 C 0.26817 0.12751 0.89883 0.0
C2024 C 0.27515 0.15288 0.88955 0.0
H2025 H 0.18733 0.02789 0.80059 0.0
H2026 H 0.2218 0.04717 0.82561 0.0
C2027 C 0.28485 0.17369 0.90345 0.0
C2028 C 0.25066 0.10862 0.88591 0.0
H2029 H 0.24204 0.04225 0.87054 0.0
C2030 C 0.22605 0.11889 0.8776 0.0
C2031 C 0.25678 0.08074 0.88309 0.0
C2032 C 0.28346 0.06883 0.89071 0.0
C2033 C 0.20722 0.10209 0.86677 0.0
C2034 C 0.21276 0.07399 0.8648 0.0
C2035 C 0.2376 0.06369 0.87266 0.0
C2036 C 0.19371 0.05584 0.85281 0.0
C2037 C 0.18177 0.11474 0.85715 0.0
C2038 C 0.16688 0.05276 0.86048 0.0
C2039 C 0.14703 0.0421 0.84608 0.0
C2040 C 0.15396 0.03428 0.82396 0.0
C2041 C 0.18141 0.03439 0.81741 0.0
C2042 C 0.20115 0.04518 0.83172 0.0
H2043 H 0.1836 0.13717 0.85559 0.0
H2044 H 0.17705 0.10625 0.84017 0.0
H2045 H 0.16442 0.1103 0.86855 0.0
H2046 H 0.16092 0.0605 0.87692 0.0
H2047 H 0.12605 0.04205 0.85158 0.0
H2048 H 0.98733 0.03992 0.88129 0.0
H2049 H 0.95501 0.07582 0.89187 0.0
H2050 H 0.93513 0.08771 0.82147 0.0
H2051 H 0.96647 0.05152 0.81095 0.0
H2052 H 0.94902 0.12889 0.88351 0.0
H2053 H 0.86063 0.0766 0.84565 0.0
H2054 H 0.89313 0.06022 0.84867 0.0
H2055 H 0.88676 0.0827 0.82516 0.0
C2056 C 0.97622 0.05032 0.86805 0.0
C2057 C 0.97948 0.04249 0.84525 0.0
C2058 C 0.9576 0.07087 0.87413 0.0
C2059 C 0.94177 0.0842 0.8576 0.0
C2060 C 0.94613 0.07729 0.83476 0.0
H2061 H 0.81621 0.21214 0.85968 0.0
H2062 H 0.85288 0.18082 0.84881 0.0
C2063 C 0.9644 0.05663 0.82871 0.0
C2064 C 0.92069 0.1051 0.86407 0.0
H2065 H 0.85375 0.12253 0.85685 0.0
C2066 C 0.92818 0.12733 0.87774 0.0
C2067 C 0.89324 0.10337 0.85673 0.0
C2068 C 0.88287 0.0793 0.84345 0.0
C2069 C 0.9094 0.14783 0.8838 0.0
C2070 C 0.88215 0.14624 0.87617 0.0
C2071 C 0.87463 0.12408 0.86254 0.0
C2072 C 0.86088 0.16669 0.88287 0.0
C2073 C 0.919 0.17135 0.89809 0.0
C2074 C 0.85295 0.1694 0.90563 0.0
C2075 C 0.83188 0.18715 0.91185 0.0
C2076 C 0.81811 0.20293 0.89554 0.0
C2077 C 0.82644 0.20064 0.87278 0.0
C2078 C 0.84737 0.18257 0.86651 0.0
H2079 H 0.94148 0.1732 0.89798 0.0
H2080 H 0.91007 0.19075 0.89203 0.0
H2081 H 0.91236 0.16816 0.91586 0.0
H2082 H 0.86258 0.1572 0.9186 0.0
H2083 H 0.82609 0.18815 0.92953 0.0
H2084 H 0.76371 0.19189 0.56587 0.0
H2085 H 0.7276 0.16061 0.57687 0.0
H2086 H 0.74211 0.17932 0.64719 0.0
H2087 H 0.77777 0.21156 0.63613 0.0
H2088 H 0.72991 0.11552 0.59901 0.0
H2089 H 0.66171 0.1826 0.64806 0.0
H2090 H 0.68925 0.19579 0.63119 0.0
H2091 H 0.69558 0.18252 0.65914 0.0
C2092 C 0.75893 0.18981 0.58371 0.0
C2093 C 0.77366 0.20457 0.60008 0.0
C2094 C 0.73822 0.1717 0.59001 0.0
C2095 C 0.73157 0.16751 0.61293 0.0
C2096 C 0.74605 0.1825 0.62935 0.0
H2097 H 0.63581 0.0448 0.68368 0.0
H2098 H 0.66565 0.08215 0.67241 0.0
C2099 C 0.76662 0.20098 0.62301 0.0
C2100 C 0.71072 0.14634 0.61938 0.0
H2101 H 0.65345 0.13488 0.65115 0.0
C2102 C 0.71308 0.11998 0.61024 0.0
C2103 C 0.68853 0.15174 0.63408 0.0
C2104 C 0.68341 0.17976 0.6435 0.0
C2105 C 0.69447 0.09909 0.61562 0.0
C2106 C 0.6726 0.10442 0.63053 0.0
C2107 C 0.67014 0.13068 0.6397 0.0
C2108 C 0.6528 0.08266 0.63742 0.0
C2109 C 0.69876 0.07116 0.60572 0.0
C2110 C 0.63494 0.07065 0.62168 0.0
C2111 C 0.61749 0.04927 0.62816 0.0
C2112 C 0.61763 0.03921 0.65051 0.0
C2113 C 0.63508 0.0518 0.6663 0.0
C2114 C 0.65224 0.07329 0.65989 0.0
H2115 H 0.71915 0.069 0.59788 0.0
H2116 H 0.69636 0.05532 0.61897 0.0
H2117 H 0.68325 0.06738 0.59246 0.0
H2118 H 0.6347 0.07763 0.60428 0.0
H2119 H 0.60447 0.04012 0.61549 0.0
H2120 H 0.75946 0.8156 0.37558 0.0
H2121 H 0.72136 0.8451 0.36464 0.0
H2122 H 0.7539 0.9093 0.40631 0.0
H2123 H 0.79078 0.87975 0.41803 0.0
H2124 H 0.703 0.90984 0.41184 0.0
H2125 H 0.71851 0.90348 0.3191 0.0
H2126 H 0.7116 0.87108 0.33173 0.0
H2127 H 0.74228 0.88909 0.33893 0.0
C2128 C 0.75845 0.836 0.3824 0.0
C2129 C 0.7784 0.8451 0.39773 0.0
C2130 C 0.73669 0.85307 0.37596 0.0
C2131 C 0.73465 0.87997 0.3842 0.0
C2132 C 0.75459 0.88884 0.39957 0.0
H2133 H 0.64969 1.01549 0.32312 0.0
H2134 H 0.67982 0.97909 0.33489 0.0
C2135 C 0.77591 0.87175 0.40628 0.0
C2136 C 0.71201 0.89909 0.37729 0.0
H2137 H 0.68005 0.92782 0.33156 0.0
C2138 C 0.69806 0.91369 0.39423 0.0
C2139 C 0.70536 0.90466 0.35434 0.0
C2140 C 0.72038 0.89148 0.33497 0.0
C2141 C 0.67849 0.93378 0.38902 0.0
C2142 C 0.67149 0.939 0.36609 0.0
C2143 C 0.685 0.92397 0.34917 0.0
C2144 C 0.65197 0.96126 0.35907 0.0
C2145 C 0.66657 0.95005 0.40827 0.0
C2146 C 0.62568 0.96388 0.36842 0.0
C2147 C 0.60829 0.98537 0.36193 0.0
C2148 C 0.61643 1.00445 0.34547 0.0
C2149 C 0.64242 1.00131 0.33578 0.0
C2150 C 0.65985 0.98026 0.34251 0.0
H2151 H 0.67954 0.94914 0.42364 0.0
H2152 H 0.66394 0.9717 0.40346 0.0
H2153 H 0.64642 0.94154 0.41279 0.0
H2154 H 0.61844 0.94923 0.38068 0.0
H2155 H 0.58841 0.98689 0.36966 0.0
H2156 H 0.98345 1.00633 0.1092 0.0
H2157 H 0.95144 0.97015 0.09845 0.0
H2158 H 0.93271 0.95665 0.16888 0.0
H2159 H 0.96366 0.99316 0.17956 0.0
H2160 H 0.94585 0.91701 0.10588 0.0
H2161 H 0.85776 0.96723 0.14595 0.0
H2162 H 0.89005 0.98405 0.14282 0.0
H2163 H 0.88429 0.9609 0.16601 0.0
C2164 C 0.97268 0.99549 0.1224 0.0
C2165 C 0.97612 1.00298 0.14526 0.0
C2166 C 0.95422 0.97479 0.11623 0.0
C2167 C 0.93875 0.96095 0.13274 0.0
C2168 C 0.94338 0.96747 0.15562 0.0
H2169 H 0.81485 0.83092 0.12995 0.0
H2170 H 0.85144 0.86238 0.14094 0.0
C2171 C 0.96145 0.9883 0.16175 0.0
C2172 C 0.91774 0.93994 0.12621 0.0
H2173 H 0.85114 0.92145 0.13415 0.0
C2174 C 0.92514 0.91816 0.11201 0.0
C2175 C 0.89043 0.94112 0.13399 0.0
C2176 C 0.88006 0.96473 0.14783 0.0
C2177 C 0.90643 0.89759 0.10586 0.0
C2178 C 0.87934 0.89861 0.11397 0.0
C2179 C 0.8719 0.92032 0.12812 0.0
C2180 C 0.85812 0.87811 0.10716 0.0
C2181 C 0.9159 0.87462 0.09094 0.0
C2182 C 0.84948 0.87625 0.08453 0.0
C2183 C 0.82844 0.85845 0.07826 0.0
C2184 C 0.81543 0.84173 0.09438 0.0
C2185 C 0.82448 0.84316 0.117 0.0
C2186 C 0.84537 0.86131 0.12333 0.0
H2187 H 0.9384 0.87315 0.09048 0.0
H2188 H 0.90747 0.85492 0.09686 0.0
H2189 H 0.90859 0.87812 0.0734 0.0
H2190 H 0.85853 0.88914 0.07172 0.0
H2191 H 0.8221 0.85813 0.06069 0.0
H2192 H 0.65859 0.53796 0.66405 0.0
H2193 H 0.69828 0.52906 0.63977 0.0
H2194 H 0.66593 0.44991 0.6236 0.0
H2195 H 0.62675 0.45855 0.64799 0.0
H2196 H 0.73356 0.4816 0.64869 0.0
H2197 H 0.69186 0.48269 0.5617 0.0
H2198 H 0.6763 0.50093 0.58492 0.0
H2199 H 0.67031 0.4651 0.5814 0.0
C2200 C 0.65974 0.51902 0.65475 0.0
C2201 C 0.63978 0.49891 0.65767 0.0
C2202 C 0.68235 0.51394 0.64105 0.0
C2203 C 0.68481 0.48895 0.62982 0.0
C2204 C 0.66414 0.46947 0.63188 0.0
H2205 H 0.77887 0.36191 0.59879 0.0
H2206 H 0.76245 0.40241 0.6183 0.0
C2207 C 0.64185 0.47436 0.64578 0.0
C2208 C 0.71 0.48139 0.61792 0.0
H2209 H 0.73004 0.45278 0.56829 0.0
C2210 C 0.73326 0.47605 0.63091 0.0
C2211 C 0.7097 0.47468 0.59471 0.0
C2212 C 0.68578 0.4814 0.5798 0.0
C2213 C 0.75515 0.46148 0.62176 0.0
C2214 C 0.75339 0.45185 0.59925 0.0
C2215 C 0.73137 0.45987 0.58565 0.0
C2216 C 0.77112 0.42994 0.59052 0.0
C2217 C 0.77928 0.4554 0.63661 0.0
C2218 C 0.78241 0.43203 0.56877 0.0
C2219 C 0.7914 0.40878 0.55753 0.0
C2220 C 0.78934 0.38319 0.56794 0.0
C2221 C 0.78086 0.38149 0.59055 0.0
C2222 C 0.77161 0.40471 0.60173 0.0
H2223 H 0.78296 0.47228 0.64873 0.0
H2224 H 0.77509 0.43683 0.64669 0.0
H2225 H 0.79796 0.45205 0.62646 0.0
H2226 H 0.78218 0.45123 0.5598 0.0
H2227 H 0.79797 0.41048 0.54007 0.0
H2228 H 0.80165 0.41191 0.93584 0.0
H2229 H 0.81841 0.44573 0.90926 0.0
H2230 H 0.82558 0.384 0.85768 0.0
H2231 H 0.81016 0.34964 0.88477 0.0
H2232 H 0.87243 0.40647 0.86601 0.0
H2233 H 0.79858 0.48958 0.85495 0.0
H2234 H 0.80362 0.48264 0.88444 0.0
H2235 H 0.78903 0.45691 0.86643 0.0
C2236 C 0.80626 0.40563 0.91868 0.0
C2237 C 0.80538 0.37804 0.91253 0.0
C2238 C 0.81539 0.42512 0.90335 0.0
C2239 C 0.82324 0.41746 0.88144 0.0
C2240 C 0.81962 0.39035 0.87454 0.0
H2241 H 0.9138 0.51447 0.7857 0.0
H2242 H 0.87563 0.49506 0.80668 0.0
C2243 C 0.81075 0.37073 0.88999 0.0
C2244 C 0.84031 0.43612 0.86785 0.0
H2245 H 0.84615 0.50173 0.84945 0.0
C2246 C 0.86642 0.42713 0.86206 0.0
C2247 C 0.83256 0.46313 0.86272 0.0
C2248 C 0.80429 0.47349 0.86727 0.0
C2249 C 0.88529 0.44456 0.852 0.0
C2250 C 0.87817 0.47201 0.84822 0.0
C2251 C 0.85174 0.48086 0.85306 0.0
C2252 C 0.8979 0.49098 0.83804 0.0
C2253 C 0.91277 0.43337 0.84551 0.0
C2254 C 0.92237 0.49677 0.84926 0.0
C2255 C 0.94432 0.50757 0.83727 0.0
C2256 C 0.94186 0.51275 0.81398 0.0
C2257 C 0.91629 0.51013 0.80358 0.0
C2258 C 0.89444 0.49922 0.81554 0.0
H2259 H 0.91272 0.41081 0.84476 0.0
H2260 H 0.91934 0.44134 0.82878 0.0
H2261 H 0.92799 0.43969 0.85833 0.0
H2262 H 0.9252 0.49078 0.86676 0.0
H2263 H 0.96376 0.50949 0.84569 0.0
H2264 H 0.96502 0.53882 0.14161 0.0
H2265 H 0.92935 0.55658 0.11676 0.0
H2266 H 0.86968 0.5418 0.16879 0.0
H2267 H 0.90503 0.52335 0.19342 0.0
H2268 H 0.84937 0.53712 0.12243 0.0
H2269 H 0.90552 0.63255 0.14131 0.0
H2270 H 0.92546 0.60647 0.12805 0.0
H2271 H 0.91211 0.60114 0.15604 0.0
C2272 C 0.94414 0.53833 0.14736 0.0
C2273 C 0.9378 0.53043 0.16959 0.0
C2274 C 0.92383 0.54854 0.13322 0.0
C2275 C 0.8971 0.55103 0.14124 0.0
C2276 C 0.89024 0.54019 0.16241 0.0
H2277 H 0.80255 0.68885 0.09863 0.0
H2278 H 0.81782 0.65173 0.12298 0.0
C2279 C 0.91047 0.52989 0.17649 0.0
C2280 C 0.87776 0.56924 0.12973 0.0
H2281 H 0.86835 0.6359 0.1165 0.0
C2282 C 0.85339 0.55873 0.12107 0.0
C2283 C 0.88274 0.59751 0.12878 0.0
C2284 C 0.90773 0.61022 0.13921 0.0
C2285 C 0.83422 0.57581 0.11067 0.0
C2286 C 0.83988 0.60392 0.10877 0.0
C2287 C 0.86393 0.61437 0.11804 0.0
C2288 C 0.82276 0.62288 0.0956 0.0
C2289 C 0.80812 0.56366 0.10198 0.0
C2290 C 0.81899 0.61847 0.07236 0.0
C2291 C 0.80991 0.6395 0.05849 0.0
C2292 C 0.80501 0.66547 0.06757 0.0
C2293 C 0.80623 0.6691 0.09114 0.0
C2294 C 0.81504 0.64792 0.10506 0.0
H2295 H 0.80259 0.54505 0.11159 0.0
H2296 H 0.79109 0.57838 0.10309 0.0
H2297 H 0.8108 0.5578 0.08397 0.0
H2298 H 0.82517 0.59952 0.06459 0.0
H2299 H 0.80855 0.63598 0.04042 0.0
H2300 H 0.62539 0.54737 0.3461 0.0
H2301 H 0.662 0.56907 0.36757 0.0
H2302 H 0.71973 0.54467 0.31655 0.0
H2303 H 0.6831 0.52322 0.29491 0.0
H2304 H 0.71691 0.55686 0.38408 0.0
H2305 H 0.71306 0.62885 0.31111 0.0
H2306 H 0.68736 0.60329 0.31556 0.0
H2307 H 0.72013 0.59382 0.30487 0.0
C2308 C 0.64605 0.54569 0.33999 0.0
C2309 C 0.65149 0.53412 0.31877 0.0
C2310 C 0.66693 0.5581 0.35219 0.0
C2311 C 0.69336 0.55891 0.34331 0.0
C2312 C 0.69935 0.54454 0.32346 0.0
H2313 H 0.80769 0.67001 0.41275 0.0
H2314 H 0.79397 0.63199 0.38819 0.0
C2315 C 0.67848 0.5323 0.31118 0.0
C2316 C 0.71297 0.57861 0.35264 0.0
H2317 H 0.73837 0.64208 0.34272 0.0
C2318 C 0.72223 0.57521 0.3749 0.0
C2319 C 0.71954 0.60262 0.34056 0.0
C2320 C 0.70944 0.60762 0.31676 0.0
C2321 C 0.73692 0.59584 0.38581 0.0
C2322 C 0.74233 0.62028 0.37406 0.0
C2323 C 0.73431 0.62312 0.35146 0.0
C2324 C 0.752 0.6446 0.38612 0.0
C2325 C 0.74503 0.59224 0.41027 0.0
C2326 C 0.73307 0.66454 0.39221 0.0
C2327 C 0.74076 0.68603 0.40612 0.0
C2328 C 0.76757 0.68799 0.41396 0.0
C2329 C 0.78695 0.66896 0.40669 0.0
C2330 C 0.77915 0.64723 0.39288 0.0
H2331 H 0.73875 0.57217 0.41713 0.0
H2332 H 0.76739 0.59417 0.41189 0.0
H2333 H 0.73569 0.60847 0.42075 0.0
H2334 H 0.71203 0.66277 0.38704 0.0
H2335 H 0.72553 0.70051 0.41156 0.0
H2336 H 0.31405 0.71207 0.36086 0.0
H2337 H 0.35021 0.68004 0.35021 0.0
H2338 H 0.36247 0.66033 0.42061 0.0
H2339 H 0.32601 0.69131 0.43117 0.0
H2340 H 0.40321 0.6742 0.35828 0.0
H2341 H 0.35166 0.58567 0.39676 0.0
H2342 H 0.33513 0.61812 0.39373 0.0
H2343 H 0.35776 0.61192 0.41715 0.0
C2344 C 0.32462 0.70108 0.37408 0.0
C2345 C 0.3168 0.70423 0.39689 0.0
C2346 C 0.3453 0.68262 0.36796 0.0
C2347 C 0.35878 0.66688 0.38448 0.0
C2348 C 0.35193 0.67123 0.40733 0.0
H2349 H 0.48753 0.542 0.38197 0.0
H2350 H 0.45635 0.57879 0.39296 0.0
C2351 C 0.33113 0.68931 0.4134 0.0
C2352 C 0.37972 0.64585 0.378 0.0
H2353 H 0.39753 0.57897 0.38543 0.0
C2354 C 0.4018 0.65338 0.36417 0.0
C2355 C 0.37818 0.6184 0.38546 0.0
C2356 C 0.35427 0.60796 0.39889 0.0
C2357 C 0.42232 0.63463 0.35807 0.0
C2358 C 0.42093 0.6074 0.36587 0.0
C2359 C 0.39893 0.59984 0.37965 0.0
C2360 C 0.44134 0.58615 0.35907 0.0
C2361 C 0.44562 0.64422 0.34356 0.0
C2362 C 0.44351 0.57785 0.33637 0.0
C2363 C 0.46114 0.55672 0.33009 0.0
C2364 C 0.47738 0.54326 0.34628 0.0
C2365 C 0.47567 0.55199 0.36897 0.0
C2366 C 0.45769 0.57299 0.3753 0.0
H2367 H 0.44728 0.66673 0.34339 0.0
H2368 H 0.46512 0.63555 0.34963 0.0
H2369 H 0.44239 0.63724 0.32589 0.0
H2370 H 0.43096 0.58724 0.32351 0.0
H2371 H 0.4617 0.55062 0.31247 0.0
H2372 H 0.12895 0.55033 0.18243 0.0
H2373 H 0.15983 0.58699 0.1718 0.0
H2374 H 0.13652 0.57752 0.10185 0.0
H2375 H 0.10468 0.54139 0.11261 0.0
H2376 H 0.20335 0.58723 0.14791 0.0
H2377 H 0.13304 0.65768 0.10466 0.0
H2378 H 0.12105 0.62888 0.1207 0.0
H2379 H 0.13271 0.62461 0.09197 0.0
C2380 C 0.12998 0.55629 0.16478 0.0
C2381 C 0.11395 0.54287 0.14844 0.0
C2382 C 0.14786 0.57734 0.15867 0.0
C2383 C 0.15059 0.58569 0.13597 0.0
C2384 C 0.13449 0.57236 0.11958 0.0
H2385 H 0.26864 0.68624 0.06417 0.0
H2386 H 0.23213 0.65561 0.07587 0.0
C2387 C 0.11624 0.55147 0.12575 0.0
C2388 C 0.17123 0.6072 0.12959 0.0
H2389 H 0.1804 0.66646 0.09974 0.0
C2390 C 0.1981 0.60465 0.13756 0.0
C2391 C 0.16484 0.63024 0.11607 0.0
C2392 C 0.13629 0.63571 0.10805 0.0
C2393 C 0.2185 0.62381 0.13212 0.0
C2394 C 0.21218 0.64648 0.1183 0.0
C2395 C 0.1854 0.64916 0.11033 0.0
C2396 C 0.23339 0.66687 0.11123 0.0
C2397 C 0.24696 0.6193 0.14074 0.0
C2398 C 0.24612 0.68418 0.12703 0.0
C2399 C 0.26698 0.70217 0.1203 0.0
C2400 C 0.27585 0.7031 0.09761 0.0
C2401 C 0.26254 0.6862 0.0818 0.0
C2402 C 0.24154 0.66856 0.08847 0.0
H2403 H 0.24969 0.59859 0.14788 0.0
H2404 H 0.26195 0.62236 0.12691 0.0
H2405 H 0.25146 0.63431 0.15425 0.0
H2406 H 0.24013 0.68357 0.14467 0.0
H2407 H 0.27676 0.71466 0.13301 0.0
H2408 H 0.29185 0.37833 0.91894 0.0
H2409 H 0.25474 0.40789 0.90788 0.0
H2410 H 0.2229 0.34502 0.86451 0.0
H2411 H 0.2613 0.31545 0.87481 0.0
H2412 H 0.21729 0.39033 0.84364 0.0
H2413 H 0.17967 0.41085 0.92965 0.0
H2414 H 0.21459 0.42066 0.92786 0.0
H2415 H 0.20519 0.38545 0.92425 0.0
C2416 C 0.27692 0.3705 0.90716 0.0
C2417 C 0.27964 0.34415 0.89801 0.0
C2418 C 0.25533 0.38753 0.90098 0.0
C2419 C 0.2351 0.37872 0.88586 0.0
C2420 C 0.23788 0.35247 0.87641 0.0
H2421 H 0.09087 0.48679 0.87082 0.0
H2422 H 0.12058 0.44853 0.88126 0.0
C2423 C 0.25989 0.33546 0.88234 0.0
C2424 C 0.212 0.39745 0.87935 0.0
H2425 H 0.16655 0.44345 0.90107 0.0
C2426 C 0.20604 0.40164 0.8563 0.0
C2427 C 0.19638 0.41197 0.89561 0.0
C2428 C 0.19908 0.40674 0.9207 0.0
C2429 C 0.18618 0.42053 0.84913 0.0
C2430 C 0.17232 0.43681 0.86534 0.0
C2431 C 0.17733 0.43167 0.88842 0.0
C2432 C 0.15348 0.45978 0.85873 0.0
C2433 C 0.18005 0.42234 0.82413 0.0
C2434 C 0.16181 0.47944 0.84288 0.0
C2435 C 0.14468 0.50093 0.83663 0.0
C2436 C 0.11875 0.50415 0.84641 0.0
C2437 C 0.11055 0.48498 0.86278 0.0
C2438 C 0.12765 0.46305 0.86879 0.0
H2439 H 0.18374 0.40257 0.81559 0.0
H2440 H 0.15869 0.42843 0.82097 0.0
H2441 H 0.19375 0.43752 0.81621 0.0
H2442 H 0.18187 0.47848 0.83546 0.0
H2443 H 0.15215 0.51541 0.82428 0.0
H2444 H 0.29894 0.38053 0.57238 0.0
H2445 H 0.33691 0.40904 0.58339 0.0
H2446 H 0.37035 0.34315 0.62256 0.0
H2447 H 0.3312 0.3145 0.61227 0.0
H2448 H 0.37688 0.38742 0.64534 0.0
H2449 H 0.41111 0.41241 0.55913 0.0
H2450 H 0.37634 0.42218 0.56232 0.0
H2451 H 0.38569 0.3868 0.56435 0.0
C2452 C 0.31439 0.37181 0.58322 0.0
C2453 C 0.31192 0.3449 0.5912 0.0
C2454 C 0.33644 0.38825 0.58937 0.0
C2455 C 0.35733 0.37829 0.60328 0.0
C2456 C 0.35483 0.35146 0.61159 0.0
H2457 H 0.50237 0.48526 0.61864 0.0
H2458 H 0.47248 0.44731 0.60768 0.0
C2459 C 0.33239 0.335 0.60568 0.0
C2460 C 0.38085 0.39642 0.6098 0.0
H2461 H 0.42562 0.44341 0.58851 0.0
C2462 C 0.38771 0.39935 0.63281 0.0
C2463 C 0.39588 0.41172 0.59365 0.0
C2464 C 0.39208 0.40786 0.56849 0.0
C2465 C 0.40788 0.41784 0.64009 0.0
C2466 C 0.42114 0.43492 0.6241 0.0
C2467 C 0.41529 0.43098 0.601 0.0
C2468 C 0.44011 0.45761 0.63101 0.0
C2469 C 0.41491 0.41847 0.66496 0.0
C2470 C 0.4321 0.4766 0.64749 0.0
C2471 C 0.44929 0.49793 0.65399 0.0
C2472 C 0.47499 0.5016 0.64388 0.0
C2473 C 0.48288 0.48307 0.62693 0.0
C2474 C 0.4657 0.46133 0.62063 0.0
H2475 H 0.41148 0.39831 0.67295 0.0
H2476 H 0.43639 0.42443 0.66778 0.0
H2477 H 0.40154 0.43327 0.67371 0.0
H2478 H 0.41221 0.47525 0.65521 0.0
H2479 H 0.44207 0.51191 0.66681 0.0
loop_
_geom_bond_atom_site_label_1
_geom_bond_atom_site_label_2
_geom_bond_distance
_geom_bond_site_symmetry_2
_ccdc_geom_bond_type
O0 Tb1 2.292 1_455 S
O0 C3 1.255 . S
Tb1 O0 2.292 1_655 S
Tb1 O17 2.326 . S
Tb1 O19 2.500 . S
Tb1 O20 2.473 . S
Tb1 O23 2.324 . S
Eu2 O6 2.292 . S
Eu2 C7 2.852 1_655 S
Eu2 O18 2.324 1_655 S
Eu2 O22 2.326 . S
Eu2 O24 2.500 1_645 S
Eu2 O25 2.473 1_655 S
C3 O0 1.255 . S
C3 O4 1.247 . S
O4 C3 1.247 . S
C5 O17 1.229 1_455 S
C5 O18 1.260 . S
O6 Eu2 2.292 . S
O6 C8 1.255 . S
C7 Eu2 2.852 1_455 S
C7 C11 1.503 1_545 S
C7 O24 1.273 1_545 S
C7 O25 1.257 . S
C8 O6 1.255 . S
C8 O9 1.247 . S
O9 C8 1.247 . S
C10 O22 1.242 1_565 S
C10 O23 1.258 1_565 S
C11 C7 1.503 1_565 S
C11 C12 1.379 . S
C11 C16 1.392 . S
C12 C11 1.379 . S
C12 C13 1.404 . S
C12 H26 0.929 1_565 S
C13 C12 1.404 . S
C13 C14 1.389 . S
C14 C13 1.389 . S
C14 C15 1.399 . S
C14 H27 0.931 . S
C15 C14 1.399 . S
C15 C16 1.390 . S
C16 C11 1.392 . S
C16 C15 1.390 . S
C16 H28 0.929 . S
O17 Tb1 2.326 . S
O17 C5 1.229 1_655 S
O18 Eu2 2.324 1_455 S
O18 C5 1.260 . S
O19 Tb1 2.500 . S
O19 C21 1.273 . S
O20 Tb1 2.473 . S
O20 C21 1.257 . S
C21 O19 1.273 . S
C21 O20 1.257 . S
O22 Eu2 2.326 . S
O22 C10 1.242 1_545 S
O23 Tb1 2.324 . S
O23 C10 1.258 1_545 S
O24 Eu2 2.500 1_465 S
O24 C7 1.273 1_565 S
O25 Eu2 2.473 1_455 S
O25 C7 1.257 . S
H26 C12 0.929 1_545 S
H27 C14 0.931 . S
H28 C16 0.929 . S
O29 Tb30 2.292 . S
O29 C32 1.255 . S
Tb30 O29 2.292 . S
Tb30 O46 2.326 . S
Tb30 O48 2.500 . S
Tb30 O49 2.473 . S
Tb30 O52 2.324 . S
Eu31 O35 2.292 . S
Eu31 C36 2.852 . S
Eu31 O47 2.324 . S
Eu31 O51 2.326 . S
Eu31 O53 2.500 . S
Eu31 O54 2.473 . S
C32 O29 1.255 . S
C32 O33 1.247 . S
O33 C32 1.247 . S
C34 O46 1.242 . S
C34 O47 1.258 . S
O35 Eu31 2.292 . S
O35 C37 1.255 . S
C36 Eu31 2.852 . S
C36 C40 1.503 . S
C36 O53 1.273 . S
C36 O54 1.257 . S
C37 O35 1.255 . S
C37 O38 1.247 . S
O38 C37 1.247 . S
C39 O51 1.242 . S
C39 O52 1.258 . S
C40 C36 1.503 . S
C40 C41 1.379 . S
C40 C45 1.392 . S
C41 C40 1.379 . S
C41 C42 1.404 . S
C41 H55 0.929 . S
C42 C41 1.404 . S
C42 C43 1.389 . S
C43 C42 1.389 . S
C43 C44 1.399 . S
C43 H56 0.931 . S
C44 C43 1.399 . S
C44 C45 1.390 . S
C45 C40 1.392 . S
C45 C44 1.390 . S
C45 H57 0.929 . S
O46 Tb30 2.326 . S
O46 C34 1.242 . S
O47 Eu31 2.324 . S
O47 C34 1.258 . S
O48 Tb30 2.500 . S
O48 C50 1.273 . S
O49 Tb30 2.473 . S
O49 C50 1.257 . S
C50 O48 1.273 . S
C50 O49 1.257 . S
O51 Eu31 2.326 . S
O51 C39 1.242 . S
O52 Tb30 2.324 . S
O52 C39 1.258 . S
O53 Eu31 2.500 . S
O53 C36 1.273 . S
O54 Eu31 2.473 . S
O54 C36 1.257 . S
H55 C41 0.929 . S
H56 C43 0.931 . S
H57 C45 0.929 . S
O58 Tb59 2.292 . S
O58 C61 1.255 . S
Tb59 O58 2.292 . S
Tb59 O75 2.326 . S
Tb59 O77 2.500 . S
Tb59 O78 2.473 . S
Tb59 O81 2.324 . S
Eu60 O64 2.292 . S
Eu60 C65 2.852 . S
Eu60 O76 2.324 . S
Eu60 O80 2.326 . S
Eu60 O82 2.500 1_565 S
Eu60 O83 2.473 . S
C61 O58 1.255 . S
C61 O62 1.247 . S
O62 C61 1.247 . S
C63 O75 1.242 . S
C63 O76 1.258 . S
O64 Eu60 2.292 . S
O64 C66 1.255 . S
C65 Eu60 2.852 . S
C65 C69 1.503 1_565 S
C65 O82 1.273 1_565 S
C65 O83 1.257 . S
C66 O64 1.255 . S
C66 O67 1.247 . S
O67 C66 1.247 . S
C68 O80 1.242 1_545 S
C68 O81 1.258 1_545 S
C69 C65 1.503 1_545 S
C69 C70 1.379 . S
C69 C74 1.392 . S
C70 C69 1.379 . S
C70 C71 1.404 . S
C70 H84 0.929 1_545 S
C71 C70 1.404 . S
C71 C72 1.389 . S
C72 C71 1.389 . S
C72 C73 1.399 . S
C72 H85 0.931 . S
C73 C72 1.399 . S
C73 C74 1.390 . S
C74 C69 1.392 . S
C74 C73 1.390 . S
C74 H86 0.929 . S
O75 Tb59 2.326 . S
O75 C63 1.242 . S
O76 Eu60 2.324 . S
O76 C63 1.258 . S
O77 Tb59 2.500 . S
O77 C79 1.273 . S
O78 Tb59 2.473 . S
O78 C79 1.257 . S
C79 O77 1.273 . S
C79 O78 1.257 . S
O80 Eu60 2.326 . S
O80 C68 1.242 1_565 S
O81 Tb59 2.324 . S
O81 C68 1.258 1_565 S
O82 Eu60 2.500 1_545 S
O82 C65 1.273 1_545 S
O83 Eu60 2.473 . S
O83 C65 1.257 . S
H84 C70 0.929 1_565 S
H85 C72 0.931 . S
H86 C74 0.929 . S
O87 Tb88 2.292 . S
O87 C90 1.255 . S
Tb88 O87 2.292 . S
Tb88 O104 2.326 . S
Tb88 O106 2.500 . S
Tb88 O107 2.473 . S
Tb88 O110 2.324 . S
Eu89 O93 2.292 . S
Eu89 C94 2.852 . S
Eu89 O105 2.324 . S
Eu89 O109 2.326 . S
Eu89 O111 2.500 . S
Eu89 O112 2.473 . S
C90 O87 1.255 . S
C90 O91 1.247 . S
O91 C90 1.247 . S
C92 O104 1.242 . S
C92 O105 1.258 . S
O93 Eu89 2.292 . S
O93 C95 1.255 . S
C94 Eu89 2.852 . S
C94 C98 1.503 . S
C94 O111 1.273 . S
C94 O112 1.257 . S
C95 O93 1.255 . S
C95 O96 1.247 . S
O96 C95 1.247 . S
C97 O109 1.242 . S
C97 O110 1.258 . S
C98 C94 1.503 . S
C98 C99 1.379 . S
C98 C103 1.392 . S
C99 C98 1.379 . S
C99 C100 1.404 . S
C99 H113 0.929 . S
C100 C99 1.404 . S
C100 C101 1.389 . S
C101 C100 1.389 . S
C101 C102 1.399 . S
C101 H114 0.931 . S
C102 C101 1.399 . S
C102 C103 1.390 . S
C103 C98 1.392 . S
C103 C102 1.390 . S
C103 H115 0.929 . S
O104 Tb88 2.326 . S
O104 C92 1.242 . S
O105 Eu89 2.324 . S
O105 C92 1.258 . S
O106 Tb88 2.500 . S
O106 C108 1.273 . S
O107 Tb88 2.473 . S
O107 C108 1.257 . S
C108 O106 1.273 . S
C108 O107 1.257 . S
O109 Eu89 2.326 . S
O109 C97 1.242 . S
O110 Tb88 2.324 . S
O110 C97 1.258 . S
O111 Eu89 2.500 . S
O111 C94 1.273 . S
O112 Eu89 2.473 . S
O112 C94 1.257 . S
H113 C99 0.929 . S
H114 C101 0.931 . S
H115 C103 0.929 . S
O116 Tb117 2.292 1_455 S
O116 C119 1.255 . S
Tb117 O116 2.292 1_655 S
Tb117 O133 2.326 . S
Tb117 O135 2.500 . S
Tb117 O136 2.473 . S
Tb117 O139 2.324 . S
Eu118 O122 2.292 . S
Eu118 C123 2.852 1_655 S
Eu118 O134 2.324 1_655 S
Eu118 O138 2.326 . S
Eu118 O140 2.500 1_665 S
Eu118 O141 2.473 1_655 S
C119 O116 1.255 . S
C119 O120 1.247 . S
O120 C119 1.247 . S
C121 O133 1.229 1_455 S
C121 O134 1.260 . S
O122 Eu118 2.292 . S
O122 C124 1.255 . S
C123 Eu118 2.852 1_455 S
C123 C127 1.503 1_565 S
C123 O140 1.273 1_565 S
C123 O141 1.257 . S
C124 O122 1.255 . S
C124 O125 1.247 . S
O125 C124 1.247 . S
C126 O138 1.242 1_545 S
C126 O139 1.258 1_545 S
C127 C123 1.503 1_545 S
C127 C128 1.379 . S
C127 C132 1.392 . S
C128 C127 1.379 . S
C128 C129 1.404 . S
C128 H142 0.929 1_545 S
C129 C128 1.404 . S
C129 C130 1.389 . S
C130 C129 1.389 . S
C130 C131 1.399 . S
C130 H143 0.931 . S
C131 C130 1.399 . S
C131 C132 1.390 . S
C132 C127 1.392 . S
C132 C131 1.390 . S
C132 H144 0.929 . S
O133 Tb117 2.326 . S
O133 C121 1.229 1_655 S
O134 Eu118 2.324 1_455 S
O134 C121 1.260 . S
O135 Tb117 2.500 . S
O135 C137 1.273 . S
O136 Tb117 2.473 . S
O136 C137 1.257 . S
C137 O135 1.273 . S
C137 O136 1.257 . S
O138 Eu118 2.326 . S
O138 C126 1.242 1_565 S
O139 Tb117 2.324 . S
O139 C126 1.258 1_565 S
O140 Eu118 2.500 1_445 S
O140 C123 1.273 1_545 S
O141 Eu118 2.473 1_455 S
O141 C123 1.257 . S
H142 C128 0.929 1_565 S
H143 C130 0.931 . S
H144 C132 0.929 . S
O145 Tb146 2.292 . S
O145 C148 1.255 . S
Tb146 O145 2.292 . S
Tb146 O162 2.326 . S
Tb146 O164 2.500 . S
Tb146 O165 2.473 . S
Tb146 O168 2.324 . S
Eu147 O151 2.292 . S
Eu147 C152 2.852 . S
Eu147 O163 2.324 . S
Eu147 O167 2.326 . S
Eu147 O169 2.500 . S
Eu147 O170 2.473 . S
C148 O145 1.255 . S
C148 O149 1.247 . S
O149 C148 1.247 . S
C150 O162 1.242 . S
C150 O163 1.258 . S
O151 Eu147 2.292 . S
O151 C153 1.255 . S
C152 Eu147 2.852 . S
C152 C156 1.503 . S
C152 O169 1.273 . S
C152 O170 1.257 . S
C153 O151 1.255 . S
C153 O154 1.247 . S
O154 C153 1.247 . S
C155 O167 1.242 . S
C155 O168 1.258 . S
C156 C152 1.503 . S
C156 C157 1.379 . S
C156 C161 1.392 . S
C157 C156 1.379 . S
C157 C158 1.404 . S
C157 H171 0.929 . S
C158 C157 1.404 . S
C158 C159 1.389 . S
C159 C158 1.389 . S
C159 C160 1.399 . S
C159 H172 0.931 . S
C160 C159 1.399 . S
C160 C161 1.390 . S
C161 C156 1.392 . S
C161 C160 1.390 . S
C161 H173 0.929 . S
O162 Tb146 2.326 . S
O162 C150 1.242 . S
O163 Eu147 2.324 . S
O163 C150 1.258 . S
O164 Tb146 2.500 . S
O164 C166 1.273 . S
O165 Tb146 2.473 . S
O165 C166 1.257 . S
C166 O164 1.273 . S
C166 O165 1.257 . S
O167 Eu147 2.326 . S
O167 C155 1.242 . S
O168 Tb146 2.324 . S
O168 C155 1.258 . S
O169 Eu147 2.500 . S
O169 C152 1.273 . S
O170 Eu147 2.473 . S
O170 C152 1.257 . S
H171 C157 0.929 . S
H172 C159 0.931 . S
H173 C161 0.929 . S
O174 Tb175 2.292 . S
O174 C177 1.255 . S
Tb175 O174 2.292 . S
Tb175 O191 2.326 . S
Tb175 O193 2.500 . S
Tb175 O194 2.473 . S
Tb175 O197 2.324 . S
Eu176 O180 2.292 . S
Eu176 C181 2.852 . S
Eu176 O192 2.324 . S
Eu176 O196 2.326 . S
Eu176 O198 2.500 1_545 S
Eu176 O199 2.473 . S
C177 O174 1.255 . S
C177 O178 1.247 . S
O178 C177 1.247 . S
C179 O191 1.242 . S
C179 O192 1.258 . S
O180 Eu176 2.292 . S
O180 C182 1.255 . S
C181 Eu176 2.852 . S
C181 C185 1.503 1_545 S
C181 O198 1.273 1_545 S
C181 O199 1.257 . S
C182 O180 1.255 . S
C182 O183 1.247 . S
O183 C182 1.247 . S
C184 O196 1.242 1_565 S
C184 O197 1.258 1_565 S
C185 C181 1.503 1_565 S
C185 C186 1.379 . S
C185 C190 1.392 . S
C186 C185 1.379 . S
C186 C187 1.404 . S
C186 H200 0.929 1_565 S
C187 C186 1.404 . S
C187 C188 1.389 . S
C188 C187 1.389 . S
C188 C189 1.399 . S
C188 H201 0.931 . S
C189 C188 1.399 . S
C189 C190 1.390 . S
C190 C185 1.392 . S
C190 C189 1.390 . S
C190 H202 0.929 . S
O191 Tb175 2.326 . S
O191 C179 1.242 . S
O192 Eu176 2.324 . S
O192 C179 1.258 . S
O193 Tb175 2.500 . S
O193 C195 1.273 . S
O194 Tb175 2.473 . S
O194 C195 1.257 . S
C195 O193 1.273 . S
C195 O194 1.257 . S
O196 Eu176 2.326 . S
O196 C184 1.242 1_545 S
O197 Tb175 2.324 . S
O197 C184 1.258 1_545 S
O198 Eu176 2.500 1_565 S
O198 C181 1.273 1_565 S
O199 Eu176 2.473 . S
O199 C181 1.257 . S
H200 C186 0.929 1_545 S
H201 C188 0.931 . S
H202 C190 0.929 . S
O203 Tb204 2.292 . S
O203 C206 1.255 . S
Tb204 O203 2.292 . S
Tb204 O220 2.326 . S
Tb204 O222 2.500 . S
Tb204 O223 2.473 . S
Tb204 O226 2.324 . S
Eu205 O209 2.292 . S
Eu205 C210 2.852 . S
Eu205 O221 2.324 . S
Eu205 O225 2.326 . S
Eu205 O227 2.500 . S
Eu205 O228 2.473 . S
C206 O203 1.255 . S
C206 O207 1.247 . S
O207 C206 1.247 . S
C208 O220 1.242 . S
C208 O221 1.258 . S
O209 Eu205 2.292 . S
O209 C211 1.255 . S
C210 Eu205 2.852 . S
C210 C214 1.503 . S
C210 O227 1.273 . S
C210 O228 1.257 . S
C211 O209 1.255 . S
C211 O212 1.247 . S
O212 C211 1.247 . S
C213 O225 1.242 . S
C213 O226 1.258 . S
C214 C210 1.503 . S
C214 C215 1.379 . S
C214 C219 1.392 . S
C215 C214 1.379 . S
C215 C216 1.404 . S
C215 H229 0.929 . S
C216 C215 1.404 . S
C216 C217 1.389 . S
C217 C216 1.389 . S
C217 C218 1.399 . S
C217 H230 0.931 . S
C218 C217 1.399 . S
C218 C219 1.390 . S
C219 C214 1.392 . S
C219 C218 1.390 . S
C219 H231 0.929 . S
O220 Tb204 2.326 . S
O220 C208 1.242 . S
O221 Eu205 2.324 . S
O221 C208 1.258 . S
O222 Tb204 2.500 . S
O222 C224 1.273 . S
O223 Tb204 2.473 . S
O223 C224 1.257 . S
C224 O222 1.273 . S
C224 O223 1.257 . S
O225 Eu205 2.326 . S
O225 C213 1.242 . S
O226 Tb204 2.324 . S
O226 C213 1.258 . S
O227 Eu205 2.500 . S
O227 C210 1.273 . S
O228 Eu205 2.473 . S
O228 C210 1.257 . S
H229 C215 0.929 . S
H230 C217 0.931 . S
H231 C219 0.929 . S
O232 Tb233 2.292 . S
O232 C235 1.255 . S
Tb233 O232 2.292 . S
Tb233 O249 2.326 . S
Tb233 O251 2.500 . S
Tb233 O252 2.473 . S
Tb233 O255 2.324 . S
Eu234 O238 2.292 . S
Eu234 C239 2.852 . S
Eu234 O250 2.324 . S
Eu234 O254 2.326 . S
Eu234 O256 2.500 . S
Eu234 O257 2.473 . S
C235 O232 1.255 . S
C235 O236 1.247 . S
O236 C235 1.247 . S
C237 O249 1.242 . S
C237 O250 1.258 . S
O238 Eu234 2.292 . S
O238 C240 1.255 . S
C239 Eu234 2.852 . S
C239 C243 1.503 . S
C239 O256 1.273 . S
C239 O257 1.257 . S
C240 O238 1.255 . S
C240 O241 1.247 . S
O241 C240 1.247 . S
C242 O254 1.242 . S
C242 O255 1.258 . S
C243 C239 1.503 . S
C243 C244 1.379 . S
C243 C248 1.392 . S
C244 C243 1.379 . S
C244 C245 1.404 . S
C244 H258 0.929 . S
C245 C244 1.404 . S
C245 C246 1.389 . S
C246 C245 1.389 . S
C246 C247 1.399 . S
C246 H259 0.931 . S
C247 C246 1.399 . S
C247 C248 1.390 . S
C248 C243 1.392 . S
C248 C247 1.390 . S
C248 H260 0.929 . S
O249 Tb233 2.326 . S
O249 C237 1.242 . S
O250 Eu234 2.324 . S
O250 C237 1.258 . S
O251 Tb233 2.500 . S
O251 C253 1.273 . S
O252 Tb233 2.473 . S
O252 C253 1.257 . S
C253 O251 1.273 . S
C253 O252 1.257 . S
O254 Eu234 2.326 . S
O254 C242 1.242 . S
O255 Tb233 2.324 . S
O255 C242 1.258 . S
O256 Eu234 2.500 . S
O256 C239 1.273 . S
O257 Eu234 2.473 . S
O257 C239 1.257 . S
H258 C244 0.929 . S
H259 C246 0.931 . S
H260 C248 0.929 . S
O261 Tb262 2.292 . S
O261 C264 1.255 . S
Tb262 O261 2.292 . S
Tb262 O278 2.326 . S
Tb262 O280 2.500 . S
Tb262 O281 2.473 . S
Tb262 O284 2.324 . S
Eu263 O267 2.292 . S
Eu263 C268 2.852 . S
Eu263 O279 2.324 . S
Eu263 O283 2.326 . S
Eu263 O285 2.500 . S
Eu263 O286 2.473 . S
C264 O261 1.255 . S
C264 O265 1.247 . S
O265 C264 1.247 . S
C266 O278 1.242 . S
C266 O279 1.258 . S
O267 Eu263 2.292 . S
O267 C269 1.255 . S
C268 Eu263 2.852 . S
C268 C272 1.503 . S
C268 O285 1.273 . S
C268 O286 1.257 . S
C269 O267 1.255 . S
C269 O270 1.247 . S
O270 C269 1.247 . S
C271 O283 1.242 . S
C271 O284 1.258 . S
C272 C268 1.503 . S
C272 C273 1.379 . S
C272 C277 1.392 . S
C273 C272 1.379 . S
C273 C274 1.404 . S
C273 H287 0.929 . S
C274 C273 1.404 . S
C274 C275 1.389 . S
C275 C274 1.389 . S
C275 C276 1.399 . S
C275 H288 0.931 . S
C276 C275 1.399 . S
C276 C277 1.390 . S
C277 C272 1.392 . S
C277 C276 1.390 . S
C277 H289 0.929 . S
O278 Tb262 2.326 . S
O278 C266 1.242 . S
O279 Eu263 2.324 . S
O279 C266 1.258 . S
O280 Tb262 2.500 . S
O280 C282 1.273 . S
O281 Tb262 2.473 . S
O281 C282 1.257 . S
C282 O280 1.273 . S
C282 O281 1.257 . S
O283 Eu263 2.326 . S
O283 C271 1.242 . S
O284 Tb262 2.324 . S
O284 C271 1.258 . S
O285 Eu263 2.500 . S
O285 C268 1.273 . S
O286 Eu263 2.473 . S
O286 C268 1.257 . S
H287 C273 0.929 . S
H288 C275 0.931 . S
H289 C277 0.929 . S
O290 Tb291 2.292 . S
O290 C293 1.255 . S
Tb291 O290 2.292 . S
Tb291 O307 2.326 . S
Tb291 O309 2.500 . S
Tb291 O310 2.473 . S
Tb291 O313 2.324 . S
Eu292 O296 2.292 . S
Eu292 C297 2.852 . S
Eu292 O308 2.324 . S
Eu292 O312 2.326 . S
Eu292 O314 2.500 . S
Eu292 O315 2.473 . S
C293 O290 1.255 . S
C293 O294 1.247 . S
O294 C293 1.247 . S
C295 O307 1.242 . S
C295 O308 1.258 . S
O296 Eu292 2.292 . S
O296 C298 1.255 . S
C297 Eu292 2.852 . S
C297 C301 1.503 . S
C297 O314 1.273 . S
C297 O315 1.257 . S
C298 O296 1.255 . S
C298 O299 1.247 . S
O299 C298 1.247 . S
C300 O312 1.242 . S
C300 O313 1.258 . S
C301 C297 1.503 . S
C301 C302 1.379 . S
C301 C306 1.392 . S
C302 C301 1.379 . S
C302 C303 1.404 . S
C302 H316 0.929 . S
C303 C302 1.404 . S
C303 C304 1.389 . S
C304 C303 1.389 . S
C304 C305 1.399 . S
C304 H317 0.931 . S
C305 C304 1.399 . S
C305 C306 1.390 . S
C306 C301 1.392 . S
C306 C305 1.390 . S
C306 H318 0.929 . S
O307 Tb291 2.326 . S
O307 C295 1.242 . S
O308 Eu292 2.324 . S
O308 C295 1.258 . S
O309 Tb291 2.500 . S
O309 C311 1.273 . S
O310 Tb291 2.473 . S
O310 C311 1.257 . S
C311 O309 1.273 . S
C311 O310 1.257 . S
O312 Eu292 2.326 . S
O312 C300 1.242 . S
O313 Tb291 2.324 . S
O313 C300 1.258 . S
O314 Eu292 2.500 . S
O314 C297 1.273 . S
O315 Eu292 2.473 . S
O315 C297 1.257 . S
H316 C302 0.929 . S
H317 C304 0.931 . S
H318 C306 0.929 . S
O319 Tb320 2.292 . S
O319 C322 1.255 . S
Tb320 O319 2.292 . S
Tb320 O336 2.326 . S
Tb320 O338 2.500 . S
Tb320 O339 2.473 . S
Tb320 O342 2.324 . S
Eu321 O325 2.292 . S
Eu321 C326 2.852 . S
Eu321 O337 2.324 . S
Eu321 O341 2.326 . S
Eu321 O343 2.500 . S
Eu321 O344 2.473 . S
C322 O319 1.255 . S
C322 O323 1.247 . S
O323 C322 1.247 . S
C324 O336 1.242 . S
C324 O337 1.258 . S
O325 Eu321 2.292 . S
O325 C327 1.255 . S
C326 Eu321 2.852 . S
C326 C330 1.503 . S
C326 O343 1.273 . S
C326 O344 1.257 . S
C327 O325 1.255 . S
C327 O328 1.247 . S
O328 C327 1.247 . S
C329 O341 1.242 . S
C329 O342 1.258 . S
C330 C326 1.503 . S
C330 C331 1.379 . S
C330 C335 1.392 . S
C331 C330 1.379 . S
C331 C332 1.404 . S
C331 H345 0.929 . S
C332 C331 1.404 . S
C332 C333 1.389 . S
C333 C332 1.389 . S
C333 C334 1.399 . S
C333 H346 0.931 . S
C334 C333 1.399 . S
C334 C335 1.390 . S
C335 C330 1.392 . S
C335 C334 1.390 . S
C335 H347 0.929 . S
O336 Tb320 2.326 . S
O336 C324 1.242 . S
O337 Eu321 2.324 . S
O337 C324 1.258 . S
O338 Tb320 2.500 . S
O338 C340 1.273 . S
O339 Tb320 2.473 . S
O339 C340 1.257 . S
C340 O338 1.273 . S
C340 O339 1.257 . S
O341 Eu321 2.326 . S
O341 C329 1.242 . S
O342 Tb320 2.324 . S
O342 C329 1.258 . S
O343 Eu321 2.500 . S
O343 C326 1.273 . S
O344 Eu321 2.473 . S
O344 C326 1.257 . S
H345 C331 0.929 . S
H346 C333 0.931 . S
H347 C335 0.929 . S
O348 Tb349 2.292 . S
O348 C351 1.255 . S
Tb349 O348 2.292 . S
Tb349 O365 2.326 . S
Tb349 O367 2.500 . S
Tb349 O368 2.473 . S
Tb349 O371 2.324 . S
Eu350 O354 2.292 . S
Eu350 C355 2.852 . S
Eu350 O366 2.324 . S
Eu350 O370 2.326 . S
Eu350 O372 2.500 . S
Eu350 O373 2.473 . S
C351 O348 1.255 . S
C351 O352 1.247 . S
O352 C351 1.247 . S
C353 O365 1.242 . S
C353 O366 1.258 . S
O354 Eu350 2.292 . S
O354 C356 1.255 . S
C355 Eu350 2.852 . S
C355 C359 1.503 . S
C355 O372 1.273 . S
C355 O373 1.257 . S
C356 O354 1.255 . S
C356 O357 1.247 . S
O357 C356 1.247 . S
C358 O370 1.242 . S
C358 O371 1.258 . S
C359 C355 1.503 . S
C359 C360 1.379 . S
C359 C364 1.392 . S
C360 C359 1.379 . S
C360 C361 1.404 . S
C360 H374 0.929 . S
C361 C360 1.404 . S
C361 C362 1.389 . S
C362 C361 1.389 . S
C362 C363 1.399 . S
C362 H375 0.931 . S
C363 C362 1.399 . S
C363 C364 1.390 . S
C364 C359 1.392 . S
C364 C363 1.390 . S
C364 H376 0.929 . S
O365 Tb349 2.326 . S
O365 C353 1.242 . S
O366 Eu350 2.324 . S
O366 C353 1.258 . S
O367 Tb349 2.500 . S
O367 C369 1.273 . S
O368 Tb349 2.473 . S
O368 C369 1.257 . S
C369 O367 1.273 . S
C369 O368 1.257 . S
O370 Eu350 2.326 . S
O370 C358 1.242 . S
O371 Tb349 2.324 . S
O371 C358 1.258 . S
O372 Eu350 2.500 . S
O372 C355 1.273 . S
O373 Eu350 2.473 . S
O373 C355 1.257 . S
H374 C360 0.929 . S
H375 C362 0.931 . S
H376 C364 0.929 . S
O377 Tb378 2.292 . S
O377 C380 1.255 . S
Tb378 O377 2.292 . S
Tb378 O394 2.326 . S
Tb378 O396 2.500 . S
Tb378 O397 2.473 . S
Tb378 O400 2.324 . S
Eu379 O383 2.292 . S
Eu379 C384 2.852 . S
Eu379 O395 2.324 . S
Eu379 O399 2.326 . S
Eu379 O401 2.500 . S
Eu379 O402 2.473 . S
C380 O377 1.255 . S
C380 O381 1.247 1_455 S
O381 C380 1.247 1_655 S
C382 O394 1.242 . S
C382 O395 1.258 . S
O383 Eu379 2.292 . S
O383 C385 1.255 . S
C384 Eu379 2.852 . S
C384 C388 1.524 . S
C384 O401 1.273 . S
C384 O402 1.257 . S
C385 O383 1.255 . S
C385 O386 1.247 . S
O386 C385 1.247 . S
C387 O399 1.242 . S
C387 O400 1.258 . S
C388 C384 1.524 . S
C388 C389 1.358 1_455 S
C388 C393 1.392 . S
C389 C388 1.358 1_655 S
C389 C390 1.404 . S
C389 H403 0.929 . S
C390 C389 1.404 . S
C390 C391 1.389 . S
C391 C390 1.389 . S
C391 C392 1.399 . S
C391 H404 0.931 . S
C392 C391 1.399 . S
C392 C393 1.360 1_655 S
C393 C388 1.392 . S
C393 C392 1.360 1_455 S
C393 H405 0.961 . S
O394 Tb378 2.326 . S
O394 C382 1.242 . S
O395 Eu379 2.324 . S
O395 C382 1.258 . S
O396 Tb378 2.500 . S
O396 C398 1.273 . S
O397 Tb378 2.473 . S
O397 C398 1.257 . S
C398 O396 1.273 . S
C398 O397 1.257 . S
O399 Eu379 2.326 . S
O399 C387 1.242 . S
O400 Tb378 2.324 . S
O400 C387 1.258 . S
O401 Eu379 2.500 . S
O401 C384 1.273 . S
O402 Eu379 2.473 . S
O402 C384 1.257 . S
H403 C389 0.929 . S
H404 C391 0.931 . S
H405 C393 0.961 . S
O406 Tb407 2.292 . S
O406 C409 1.255 . S
Tb407 O406 2.292 . S
Tb407 O423 2.326 . S
Tb407 O425 2.500 . S
Tb407 O426 2.473 . S
Tb407 O429 2.324 . S
Eu408 O412 2.292 . S
Eu408 C413 2.852 . S
Eu408 O424 2.324 . S
Eu408 O428 2.326 . S
Eu408 O430 2.500 . S
Eu408 O431 2.473 . S
C409 O406 1.255 . S
C409 O410 1.247 . S
O410 C409 1.247 . S
C411 O423 1.242 . S
C411 O424 1.258 . S
O412 Eu408 2.292 . S
O412 C414 1.255 . S
C413 Eu408 2.852 . S
C413 C417 1.503 . S
C413 O430 1.273 . S
C413 O431 1.257 . S
C414 O412 1.255 . S
C414 O415 1.247 . S
O415 C414 1.247 . S
C416 O428 1.242 . S
C416 O429 1.258 . S
C417 C413 1.503 . S
C417 C418 1.379 . S
C417 C422 1.392 . S
C418 C417 1.379 . S
C418 C419 1.404 . S
C418 H432 0.929 . S
C419 C418 1.404 . S
C419 C420 1.389 . S
C420 C419 1.389 . S
C420 C421 1.399 . S
C420 H433 0.931 . S
C421 C420 1.399 . S
C421 C422 1.390 . S
C422 C417 1.392 . S
C422 C421 1.390 . S
C422 H434 0.929 . S
O423 Tb407 2.326 . S
O423 C411 1.242 . S
O424 Eu408 2.324 . S
O424 C411 1.258 . S
O425 Tb407 2.500 . S
O425 C427 1.273 . S
O426 Tb407 2.473 . S
O426 C427 1.257 . S
C427 O425 1.273 . S
C427 O426 1.257 . S
O428 Eu408 2.326 . S
O428 C416 1.242 . S
O429 Tb407 2.324 . S
O429 C416 1.258 . S
O430 Eu408 2.500 . S
O430 C413 1.273 . S
O431 Eu408 2.473 . S
O431 C413 1.257 . S
H432 C418 0.929 . S
H433 C420 0.931 . S
H434 C422 0.929 . S
O435 Tb436 2.292 . S
O435 C438 1.255 . S
Tb436 O435 2.292 . S
Tb436 O452 2.326 . S
Tb436 O454 2.500 . S
Tb436 O455 2.473 . S
Tb436 O458 2.324 . S
Eu437 O441 2.292 . S
Eu437 C442 2.852 . S
Eu437 O453 2.324 . S
Eu437 O457 2.326 . S
Eu437 O459 2.500 . S
Eu437 O460 2.473 . S
C438 O435 1.255 . S
C438 O439 1.247 1_455 S
O439 C438 1.247 1_655 S
C440 O452 1.242 . S
C440 O453 1.258 . S
O441 Eu437 2.292 . S
O441 C443 1.255 . S
C442 Eu437 2.852 . S
C442 C446 1.524 . S
C442 O459 1.273 . S
C442 O460 1.257 . S
C443 O441 1.255 . S
C443 O444 1.247 . S
O444 C443 1.247 . S
C445 O457 1.242 . S
C445 O458 1.258 . S
C446 C442 1.524 . S
C446 C447 1.358 1_455 S
C446 C451 1.392 . S
C447 C446 1.358 1_655 S
C447 C448 1.404 . S
C447 H461 0.929 . S
C448 C447 1.404 . S
C448 C449 1.389 . S
C449 C448 1.389 . S
C449 C450 1.399 . S
C449 H462 0.931 . S
C450 C449 1.399 . S
C450 C451 1.360 1_655 S
C451 C446 1.392 . S
C451 C450 1.360 1_455 S
C451 H463 0.961 . S
O452 Tb436 2.326 . S
O452 C440 1.242 . S
O453 Eu437 2.324 . S
O453 C440 1.258 . S
O454 Tb436 2.500 . S
O454 C456 1.273 . S
O455 Tb436 2.473 . S
O455 C456 1.257 . S
C456 O454 1.273 . S
C456 O455 1.257 . S
O457 Eu437 2.326 . S
O457 C445 1.242 . S
O458 Tb436 2.324 . S
O458 C445 1.258 . S
O459 Eu437 2.500 . S
O459 C442 1.273 . S
O460 Eu437 2.473 . S
O460 C442 1.257 . S
H461 C447 0.929 . S
H462 C449 0.931 . S
H463 C451 0.961 . S
H464 C472 0.929 . S
H465 C474 0.930 . S
H466 C476 0.930 . S
H467 C479 0.929 . S
H468 C482 0.959 . S
H469 C484 0.960 . S
H470 C484 0.960 . S
H471 C484 0.960 . S
C472 H464 0.929 . S
C472 C473 1.377 1_655 S
C472 C474 1.384 . S
C473 C472 1.377 1_455 S
C473 C479 1.390 . S
C474 H465 0.930 . S
C474 C472 1.384 . S
C474 C475 1.372 1_655 S
C475 C474 1.372 1_455 S
C475 C476 1.400 . S
C475 C480 1.490 . S
C476 H466 0.930 . S
C476 C475 1.400 . S
C476 C479 1.386 . S
H477 C493 0.930 . S
H478 C494 0.931 . S
C479 H467 0.929 . S
C479 C473 1.390 . S
C479 C476 1.386 . S
C480 C475 1.490 . S
C480 C482 1.369 1_455 S
C480 C483 1.403 . S
H481 C487 0.930 . S
C482 H468 0.959 . S
C482 C480 1.369 1_655 S
C482 C485 1.402 1_655 S
C483 C480 1.403 . S
C483 C484 1.524 . S
C483 C487 1.400 . S
C484 H469 0.960 . S
C484 H470 0.960 . S
C484 H471 0.960 . S
C484 C483 1.524 . S
C485 C482 1.402 1_455 S
C485 C486 1.404 . S
C485 C489 1.485 1_455 S
C486 C485 1.404 . S
C486 C487 1.385 . S
C486 C488 1.478 . S
C487 H481 0.930 . S
C487 C483 1.400 . S
C487 C486 1.385 . S
C488 C486 1.478 . S
C488 C490 1.381 . S
C488 C494 1.383 . S
C489 C485 1.485 1_655 S
C489 H495 0.959 . S
C489 H496 0.961 . S
C489 H497 0.960 . S
C490 C488 1.381 . S
C490 C491 1.394 . S
C490 H498 0.930 1_455 S
C491 C490 1.394 . S
C491 C492 1.383 . S
C491 H499 0.929 . S
C492 C491 1.383 . S
C492 C493 1.377 . S
C493 H477 0.930 . S
C493 C492 1.377 . S
C493 C494 1.379 . S
C494 H478 0.931 . S
C494 C488 1.383 . S
C494 C493 1.379 . S
H495 C489 0.959 . S
H496 C489 0.961 . S
H497 C489 0.960 . S
H498 C490 0.930 1_655 S
H499 C491 0.929 . S
H500 C508 0.929 . S
H501 C510 0.930 . S
H502 C512 0.930 . S
H503 C515 0.929 . S
H504 C518 0.930 . S
H505 C520 0.960 1_455 S
H506 C520 0.960 . S
H507 C520 0.960 . S
C508 H500 0.929 . S
C508 C509 1.377 . S
C508 C510 1.384 . S
C509 C508 1.377 . S
C509 C515 1.390 . S
C510 H501 0.930 . S
C510 C508 1.384 . S
C510 C511 1.372 . S
C511 C510 1.372 . S
C511 C512 1.400 . S
C511 C516 1.490 . S
C512 H502 0.930 . S
C512 C511 1.400 . S
C512 C515 1.386 . S
H513 C529 0.930 . S
H514 C530 0.931 . S
C515 H503 0.929 . S
C515 C509 1.390 . S
C515 C512 1.386 . S
C516 C511 1.490 . S
C516 C518 1.395 1_655 S
C516 C519 1.403 1_655 S
H517 C523 0.930 . S
C518 H504 0.930 . S
C518 C516 1.395 1_455 S
C518 C521 1.403 . S
C519 C516 1.403 1_455 S
C519 C520 1.524 1_455 S
C519 C523 1.400 . S
C520 H505 0.960 1_655 S
C520 H506 0.960 . S
C520 H507 0.960 . S
C520 C519 1.524 1_655 S
C521 C518 1.403 . S
C521 C522 1.392 . S
C521 C525 1.495 . S
C522 C521 1.392 . S
C522 C523 1.385 . S
C522 C524 1.478 . S
C523 H517 0.930 . S
C523 C519 1.400 . S
C523 C522 1.385 . S
C524 C522 1.478 . S
C524 C526 1.381 . S
C524 C530 1.383 . S
C525 C521 1.495 . S
C525 H531 0.959 . S
C525 H532 0.961 . S
C525 H533 0.960 . S
C526 C524 1.381 . S
C526 C527 1.394 . S
C526 H534 0.930 . S
C527 C526 1.394 . S
C527 C528 1.383 . S
C527 H535 0.929 . S
C528 C527 1.383 . S
C528 C529 1.377 . S
C529 H513 0.930 . S
C529 C528 1.377 . S
C529 C530 1.379 . S
C530 H514 0.931 . S
C530 C524 1.383 . S
C530 C529 1.379 . S
H531 C525 0.959 . S
H532 C525 0.961 . S
H533 C525 0.960 . S
H534 C526 0.930 . S
H535 C527 0.929 . S
H536 C544 0.929 . S
H537 C546 0.930 . S
H538 C548 0.930 . S
H539 C551 0.929 . S
H540 C554 0.930 . S
H541 C556 0.960 . S
H542 C556 0.960 . S
H543 C556 0.960 . S
C544 H536 0.929 . S
C544 C545 1.377 . S
C544 C546 1.384 . S
C545 C544 1.377 . S
C545 C551 1.390 . S
C546 H537 0.930 . S
C546 C544 1.384 . S
C546 C547 1.372 . S
C547 C546 1.372 . S
C547 C548 1.400 . S
C547 C552 1.490 . S
C548 H538 0.930 . S
C548 C547 1.400 . S
C548 C551 1.386 . S
H549 C565 0.930 . S
H550 C566 0.931 . S
C551 H539 0.929 . S
C551 C545 1.390 . S
C551 C548 1.386 . S
C552 C547 1.490 . S
C552 C554 1.395 . S
C552 C555 1.403 . S
H553 C559 0.930 . S
C554 H540 0.930 . S
C554 C552 1.395 . S
C554 C557 1.403 . S
C555 C552 1.403 . S
C555 C556 1.524 . S
C555 C559 1.400 . S
C556 H541 0.960 . S
C556 H542 0.960 . S
C556 H543 0.960 . S
C556 C555 1.524 . S
C557 C554 1.403 . S
C557 C558 1.392 . S
C557 C561 1.495 . S
C558 C557 1.392 . S
C558 C559 1.385 . S
C558 C560 1.478 . S
C559 H553 0.930 . S
C559 C555 1.400 . S
C559 C558 1.385 . S
C560 C558 1.478 . S
C560 C562 1.381 . S
C560 C566 1.383 . S
C561 C557 1.495 . S
C561 H567 0.959 . S
C561 H568 0.961 . S
C561 H569 0.960 . S
C562 C560 1.381 . S
C562 C563 1.394 . S
C562 H570 0.930 . S
C563 C562 1.394 . S
C563 C564 1.383 . S
C563 H571 0.929 . S
C564 C563 1.383 . S
C564 C565 1.377 . S
C565 H549 0.930 . S
C565 C564 1.377 . S
C565 C566 1.379 . S
C566 H550 0.931 . S
C566 C560 1.383 . S
C566 C565 1.379 . S
H567 C561 0.959 . S
H568 C561 0.961 . S
H569 C561 0.960 . S
H570 C562 0.930 . S
H571 C563 0.929 . S
H572 C580 0.929 . S
H573 C582 0.930 . S
H574 C584 0.930 . S
H575 C587 0.929 . S
H576 C590 0.930 . S
H577 C592 0.960 . S
H578 C592 0.960 . S
H579 C592 0.960 . S
C580 H572 0.929 . S
C580 C581 1.377 . S
C580 C582 1.384 . S
C581 C580 1.377 . S
C581 C587 1.390 . S
C582 H573 0.930 . S
C582 C580 1.384 . S
C582 C583 1.372 . S
C583 C582 1.372 . S
C583 C584 1.400 . S
C583 C588 1.490 . S
C584 H574 0.930 . S
C584 C583 1.400 . S
C584 C587 1.386 . S
H585 C601 0.930 . S
H586 C602 0.931 . S
C587 H575 0.929 . S
C587 C581 1.390 . S
C587 C584 1.386 . S
C588 C583 1.490 . S
C588 C590 1.395 . S
C588 C591 1.403 . S
H589 C595 0.930 . S
C590 H576 0.930 . S
C590 C588 1.395 . S
C590 C593 1.403 . S
C591 C588 1.403 . S
C591 C592 1.524 . S
C591 C595 1.400 . S
C592 H577 0.960 . S
C592 H578 0.960 . S
C592 H579 0.960 . S
C592 C591 1.524 . S
C593 C590 1.403 . S
C593 C594 1.392 . S
C593 C597 1.495 . S
C594 C593 1.392 . S
C594 C595 1.385 . S
C594 C596 1.478 . S
C595 H589 0.930 . S
C595 C591 1.400 . S
C595 C594 1.385 . S
C596 C594 1.478 . S
C596 C598 1.381 . S
C596 C602 1.383 . S
C597 C593 1.495 . S
C597 H603 0.959 . S
C597 H604 0.961 . S
C597 H605 0.960 . S
C598 C596 1.381 . S
C598 C599 1.394 . S
C598 H606 0.930 . S
C599 C598 1.394 . S
C599 C600 1.383 . S
C599 H607 0.929 . S
C600 C599 1.383 . S
C600 C601 1.377 . S
C601 H585 0.930 . S
C601 C600 1.377 . S
C601 C602 1.379 . S
C602 H586 0.931 . S
C602 C596 1.383 . S
C602 C601 1.379 . S
H603 C597 0.959 . S
H604 C597 0.961 . S
H605 C597 0.960 . S
H606 C598 0.930 . S
H607 C599 0.929 . S
H608 C616 0.929 . S
H609 C618 0.930 . S
H610 C620 0.930 . S
H611 C623 0.929 . S
H612 C626 0.920 1_655 S
H613 C628 0.960 . S
H614 C628 0.960 . S
H615 C628 0.960 . S
C616 H608 0.929 . S
C616 C617 1.377 . S
C616 C618 1.384 . S
C617 C616 1.377 . S
C617 C623 1.390 . S
C618 H609 0.930 . S
C618 C616 1.384 . S
C618 C619 1.372 . S
C619 C618 1.372 . S
C619 C620 1.400 . S
C619 C624 1.490 . S
C620 H610 0.930 . S
C620 C619 1.400 . S
C620 C623 1.386 . S
H621 C637 0.930 . S
H622 C638 0.931 . S
C623 H611 0.929 . S
C623 C617 1.390 . S
C623 C620 1.386 . S
C624 C619 1.490 . S
C624 C626 1.407 . S
C624 C627 1.403 . S
H625 C631 0.930 . S
C626 H612 0.920 1_455 S
C626 C624 1.407 . S
C626 C629 1.401 1_455 S
C627 C624 1.403 . S
C627 C628 1.524 . S
C627 C631 1.400 . S
C628 H613 0.960 . S
C628 H614 0.960 . S
C628 H615 0.960 . S
C628 C627 1.524 . S
C629 C626 1.401 1_655 S
C629 C630 1.392 1_655 S
C629 C633 1.495 . S
C630 C629 1.392 1_455 S
C630 C631 1.385 . S
C630 C632 1.478 . S
C631 H625 0.930 . S
C631 C627 1.400 . S
C631 C630 1.385 . S
C632 C630 1.478 . S
C632 C634 1.381 1_455 S
C632 C638 1.383 . S
C633 C629 1.495 . S
C633 H639 0.959 . S
C633 H640 0.961 . S
C633 H641 0.960 . S
C634 C632 1.381 1_655 S
C634 C635 1.394 . S
C634 H642 0.930 . S
C635 C634 1.394 . S
C635 C636 1.383 1_655 S
C635 H643 0.929 . S
C636 C635 1.383 1_455 S
C636 C637 1.377 . S
C637 H621 0.930 . S
C637 C636 1.377 . S
C637 C638 1.379 . S
C638 H622 0.931 . S
C638 C632 1.383 . S
C638 C637 1.379 . S
H639 C633 0.959 . S
H640 C633 0.961 . S
H641 C633 0.960 . S
H642 C634 0.930 . S
H643 C635 0.929 . S
H644 C652 0.929 . S
H645 C654 0.930 . S
H646 C656 0.930 . S
H647 C659 0.929 . S
H648 C662 0.930 . S
H649 C664 0.960 . S
H650 C664 0.960 . S
H651 C664 0.960 . S
C652 H644 0.929 . S
C652 C653 1.377 . S
C652 C654 1.384 . S
C653 C652 1.377 . S
C653 C659 1.390 . S
C654 H645 0.930 . S
C654 C652 1.384 . S
C654 C655 1.372 . S
C655 C654 1.372 . S
C655 C656 1.400 . S
C655 C660 1.490 . S
C656 H646 0.930 . S
C656 C655 1.400 . S
C656 C659 1.386 . S
H657 C673 0.930 . S
H658 C674 0.931 . S
C659 H647 0.929 . S
C659 C653 1.390 . S
C659 C656 1.386 . S
C660 C655 1.490 . S
C660 C662 1.395 . S
C660 C663 1.403 . S
H661 C667 0.930 . S
C662 H648 0.930 . S
C662 C660 1.395 . S
C662 C665 1.403 . S
C663 C660 1.403 . S
C663 C664 1.524 . S
C663 C667 1.400 . S
C664 H649 0.960 . S
C664 H650 0.960 . S
C664 H651 0.960 . S
C664 C663 1.524 . S
C665 C662 1.403 . S
C665 C666 1.392 . S
C665 C669 1.495 . S
C666 C665 1.392 . S
C666 C667 1.385 . S
C666 C668 1.478 . S
C667 H661 0.930 . S
C667 C663 1.400 . S
C667 C666 1.385 . S
C668 C666 1.478 . S
C668 C670 1.381 . S
C668 C674 1.383 . S
C669 C665 1.495 . S
C669 H675 0.959 . S
C669 H676 0.961 . S
C669 H677 0.960 . S
C670 C668 1.381 . S
C670 C671 1.394 . S
C670 H678 0.930 . S
C671 C670 1.394 . S
C671 C672 1.383 . S
C671 H679 0.929 . S
C672 C671 1.383 . S
C672 C673 1.377 . S
C673 H657 0.930 . S
C673 C672 1.377 . S
C673 C674 1.379 . S
C674 H658 0.931 . S
C674 C668 1.383 . S
C674 C673 1.379 . S
H675 C669 0.959 . S
H676 C669 0.961 . S
H677 C669 0.960 . S
H678 C670 0.930 . S
H679 C671 0.929 . S
H680 C688 0.929 . S
H681 C690 0.930 . S
H682 C692 0.930 . S
H683 C695 0.929 . S
H684 C698 0.930 . S
H685 C700 0.960 . S
H686 C700 0.960 . S
H687 C700 0.960 . S
C688 H680 0.929 . S
C688 C689 1.377 . S
C688 C690 1.384 . S
C689 C688 1.377 . S
C689 C695 1.390 . S
C690 H681 0.930 . S
C690 C688 1.384 . S
C690 C691 1.372 . S
C691 C690 1.372 . S
C691 C692 1.400 . S
C691 C696 1.490 . S
C692 H682 0.930 . S
C692 C691 1.400 . S
C692 C695 1.386 . S
H693 C709 0.930 . S
H694 C710 0.931 . S
C695 H683 0.929 . S
C695 C689 1.390 . S
C695 C692 1.386 . S
C696 C691 1.490 . S
C696 C698 1.395 . S
C696 C699 1.403 . S
H697 C703 0.930 . S
C698 H684 0.930 . S
C698 C696 1.395 . S
C698 C701 1.403 . S
C699 C696 1.403 . S
C699 C700 1.524 . S
C699 C703 1.400 . S
C700 H685 0.960 . S
C700 H686 0.960 . S
C700 H687 0.960 . S
C700 C699 1.524 . S
C701 C698 1.403 . S
C701 C702 1.392 . S
C701 C705 1.495 . S
C702 C701 1.392 . S
C702 C703 1.385 . S
C702 C704 1.478 . S
C703 H697 0.930 . S
C703 C699 1.400 . S
C703 C702 1.385 . S
C704 C702 1.478 . S
C704 C706 1.381 . S
C704 C710 1.383 . S
C705 C701 1.495 . S
C705 H711 0.959 . S
C705 H712 0.961 . S
C705 H713 0.960 . S
C706 C704 1.381 . S
C706 C707 1.394 . S
C706 H714 0.930 . S
C707 C706 1.394 . S
C707 C708 1.383 . S
C707 H715 0.929 . S
C708 C707 1.383 . S
C708 C709 1.377 . S
C709 H693 0.930 . S
C709 C708 1.377 . S
C709 C710 1.379 . S
C710 H694 0.931 . S
C710 C704 1.383 . S
C710 C709 1.379 . S
H711 C705 0.959 . S
H712 C705 0.961 . S
H713 C705 0.960 . S
H714 C706 0.930 . S
H715 C707 0.929 . S
H716 C724 0.929 . S
H717 C726 0.930 . S
H718 C728 0.930 . S
H719 C731 0.929 . S
H720 C734 0.930 . S
H721 C736 0.960 . S
H722 C736 0.960 . S
H723 C736 0.960 . S
C724 H716 0.929 . S
C724 C725 1.377 . S
C724 C726 1.384 . S
C725 C724 1.377 . S
C725 C731 1.390 . S
C726 H717 0.930 . S
C726 C724 1.384 . S
C726 C727 1.372 . S
C727 C726 1.372 . S
C727 C728 1.400 . S
C727 C732 1.490 . S
C728 H718 0.930 . S
C728 C727 1.400 . S
C728 C731 1.386 . S
H729 C745 0.930 . S
H730 C746 0.931 . S
C731 H719 0.929 . S
C731 C725 1.390 . S
C731 C728 1.386 . S
C732 C727 1.490 . S
C732 C734 1.395 . S
C732 C735 1.403 . S
H733 C739 0.930 1_655 S
C734 H720 0.930 . S
C734 C732 1.395 . S
C734 C737 1.403 . S
C735 C732 1.403 . S
C735 C736 1.524 . S
C735 C739 1.400 . S
C736 H721 0.960 . S
C736 H722 0.960 . S
C736 H723 0.960 . S
C736 C735 1.524 . S
C737 C734 1.403 . S
C737 C738 1.392 1_455 S
C737 C741 1.495 . S
C738 C737 1.392 1_655 S
C738 C739 1.385 1_655 S
C738 C740 1.478 . S
C739 H733 0.930 1_455 S
C739 C735 1.400 . S
C739 C738 1.385 1_455 S
C740 C738 1.478 . S
C740 C742 1.381 . S
C740 C746 1.383 . S
C741 C737 1.495 . S
C741 H747 0.959 . S
C741 H748 0.961 1_455 S
C741 H749 0.960 1_455 S
C742 C740 1.381 . S
C742 C743 1.394 . S
C742 H750 0.930 . S
C743 C742 1.394 . S
C743 C744 1.383 . S
C743 H751 0.929 . S
C744 C743 1.383 . S
C744 C745 1.377 . S
C745 H729 0.930 . S
C745 C744 1.377 . S
C745 C746 1.379 . S
C746 H730 0.931 . S
C746 C740 1.383 . S
C746 C745 1.379 . S
H747 C741 0.959 . S
H748 C741 0.961 1_655 S
H749 C741 0.960 1_655 S
H750 C742 0.930 . S
H751 C743 0.929 . S
H752 C760 0.929 . S
H753 C762 0.930 . S
H754 C764 0.930 . S
H755 C767 0.929 . S
H756 C770 0.930 . S
H757 C772 0.960 . S
H758 C772 0.960 . S
H759 C772 0.960 . S
C760 H752 0.929 . S
C760 C761 1.377 . S
C760 C762 1.384 . S
C761 C760 1.377 . S
C761 C767 1.390 . S
C762 H753 0.930 . S
C762 C760 1.384 . S
C762 C763 1.372 . S
C763 C762 1.372 . S
C763 C764 1.400 . S
C763 C768 1.490 . S
C764 H754 0.930 . S
C764 C763 1.400 . S
C764 C767 1.386 . S
H765 C781 0.930 . S
H766 C782 0.931 . S
C767 H755 0.929 . S
C767 C761 1.390 . S
C767 C764 1.386 . S
C768 C763 1.490 . S
C768 C770 1.395 . S
C768 C771 1.403 1_556 S
H769 C775 0.930 . S
C770 H756 0.930 . S
C770 C768 1.395 . S
C770 C773 1.403 1_556 S
C771 C768 1.403 1_554 S
C771 C772 1.524 . S
C771 C775 1.400 . S
C772 H757 0.960 . S
C772 H758 0.960 . S
C772 H759 0.960 . S
C772 C771 1.524 . S
C773 C770 1.403 1_554 S
C773 C774 1.392 . S
C773 C777 1.495 1_554 S
C774 C773 1.392 . S
C774 C775 1.385 . S
C774 C776 1.478 . S
C775 H769 0.930 . S
C775 C771 1.400 . S
C775 C774 1.385 . S
C776 C774 1.478 . S
C776 C778 1.381 . S
C776 C782 1.383 . S
C777 C773 1.495 1_556 S
C777 H783 0.959 . S
C777 H784 0.961 . S
C777 H785 0.960 1_556 S
C778 C776 1.381 . S
C778 C779 1.394 . S
C778 H786 0.930 . S
C779 C778 1.394 . S
C779 C780 1.383 . S
C779 H787 0.929 . S
C780 C779 1.383 . S
C780 C781 1.377 . S
C781 H765 0.930 . S
C781 C780 1.377 . S
C781 C782 1.379 . S
C782 H766 0.931 . S
C782 C776 1.383 . S
C782 C781 1.379 . S
H783 C777 0.959 . S
H784 C777 0.961 . S
H785 C777 0.960 1_554 S
H786 C778 0.930 . S
H787 C779 0.929 . S
H788 C796 0.929 . S
H789 C798 0.930 . S
H790 C800 0.930 . S
H791 C803 0.929 . S
H792 C806 0.930 . S
H793 C808 0.960 . S
H794 C808 0.960 . S
H795 C808 0.960 . S
C796 H788 0.929 . S
C796 C797 1.377 . S
C796 C798 1.384 . S
C797 C796 1.377 . S
C797 C803 1.390 . S
C798 H789 0.930 . S
C798 C796 1.384 . S
C798 C799 1.372 . S
C799 C798 1.372 . S
C799 C800 1.400 . S
C799 C804 1.490 . S
C800 H790 0.930 . S
C800 C799 1.400 . S
C800 C803 1.386 . S
H801 C817 0.930 . S
H802 C818 0.931 . S
C803 H791 0.929 . S
C803 C797 1.390 . S
C803 C800 1.386 . S
C804 C799 1.490 . S
C804 C806 1.395 . S
C804 C807 1.403 . S
H805 C811 0.930 . S
C806 H792 0.930 . S
C806 C804 1.395 . S
C806 C809 1.403 . S
C807 C804 1.403 . S
C807 C808 1.524 . S
C807 C811 1.400 . S
C808 H793 0.960 . S
C808 H794 0.960 . S
C808 H795 0.960 . S
C808 C807 1.524 . S
C809 C806 1.403 . S
C809 C810 1.392 . S
C809 C813 1.495 . S
C810 C809 1.392 . S
C810 C811 1.385 . S
C810 C812 1.478 . S
C811 H805 0.930 . S
C811 C807 1.400 . S
C811 C810 1.385 . S
C812 C810 1.478 . S
C812 C814 1.381 . S
C812 C818 1.383 . S
C813 C809 1.495 . S
C813 H819 0.959 . S
C813 H820 0.961 . S
C813 H821 0.960 . S
C814 C812 1.381 . S
C814 C815 1.394 . S
C814 H822 0.930 . S
C815 C814 1.394 . S
C815 C816 1.383 . S
C815 H823 0.929 . S
C816 C815 1.383 . S
C816 C817 1.377 . S
C817 H801 0.930 . S
C817 C816 1.377 . S
C817 C818 1.379 . S
C818 H802 0.931 . S
C818 C812 1.383 . S
C818 C817 1.379 . S
H819 C813 0.959 . S
H820 C813 0.961 . S
H821 C813 0.960 . S
H822 C814 0.930 . S
H823 C815 0.929 . S
H824 C832 0.929 . S
H825 C834 0.930 . S
H826 C836 0.930 . S
H827 C839 0.929 . S
H828 C842 0.930 . S
H829 C844 0.960 . S
H830 C844 0.960 . S
H831 C844 0.960 . S
C832 H824 0.929 . S
C832 C833 1.377 . S
C832 C834 1.384 . S
C833 C832 1.377 . S
C833 C839 1.390 . S
C834 H825 0.930 . S
C834 C832 1.384 . S
C834 C835 1.372 . S
C835 C834 1.372 . S
C835 C836 1.400 . S
C835 C840 1.490 . S
C836 H826 0.930 . S
C836 C835 1.400 . S
C836 C839 1.386 . S
H837 C853 0.930 . S
H838 C854 0.931 . S
C839 H827 0.929 . S
C839 C833 1.390 . S
C839 C836 1.386 . S
C840 C835 1.490 . S
C840 C842 1.395 . S
C840 C843 1.403 . S
H841 C847 0.930 . S
C842 H828 0.930 . S
C842 C840 1.395 . S
C842 C845 1.403 . S
C843 C840 1.403 . S
C843 C844 1.524 . S
C843 C847 1.400 . S
C844 H829 0.960 . S
C844 H830 0.960 . S
C844 H831 0.960 . S
C844 C843 1.524 . S
C845 C842 1.403 . S
C845 C846 1.392 . S
C845 C849 1.495 . S
C846 C845 1.392 . S
C846 C847 1.385 . S
C846 C848 1.478 . S
C847 H841 0.930 . S
C847 C843 1.400 . S
C847 C846 1.385 . S
C848 C846 1.478 . S
C848 C850 1.381 . S
C848 C854 1.383 . S
C849 C845 1.495 . S
C849 H855 0.959 . S
C849 H856 0.961 . S
C849 H857 0.960 . S
C850 C848 1.381 . S
C850 C851 1.394 . S
C850 H858 0.930 . S
C851 C850 1.394 . S
C851 C852 1.383 . S
C851 H859 0.929 . S
C852 C851 1.383 . S
C852 C853 1.377 . S
C853 H837 0.930 . S
C853 C852 1.377 . S
C853 C854 1.379 . S
C854 H838 0.931 . S
C854 C848 1.383 . S
C854 C853 1.379 . S
H855 C849 0.959 . S
H856 C849 0.961 . S
H857 C849 0.960 . S
H858 C850 0.930 . S
H859 C851 0.929 . S
H860 C868 0.929 . S
H861 C870 0.930 . S
H862 C872 0.930 . S
H863 C875 0.929 . S
H864 C878 0.930 . S
H865 C880 0.960 . S
H866 C880 0.960 . S
H867 C880 0.960 . S
C868 H860 0.929 . S
C868 C869 1.377 . S
C868 C870 1.384 . S
C869 C868 1.377 . S
C869 C875 1.390 . S
C870 H861 0.930 . S
C870 C868 1.384 . S
C870 C871 1.372 . S
C871 C870 1.372 . S
C871 C872 1.400 . S
C871 C876 1.490 . S
C872 H862 0.930 . S
C872 C871 1.400 . S
C872 C875 1.386 . S
H873 C889 0.930 . S
H874 C890 0.931 . S
C875 H863 0.929 . S
C875 C869 1.390 . S
C875 C872 1.386 . S
C876 C871 1.490 . S
C876 C878 1.395 . S
C876 C879 1.403 . S
H877 C883 0.930 . S
C878 H864 0.930 . S
C878 C876 1.395 . S
C878 C881 1.403 . S
C879 C876 1.403 . S
C879 C880 1.524 . S
C879 C883 1.400 . S
C880 H865 0.960 . S
C880 H866 0.960 . S
C880 H867 0.960 . S
C880 C879 1.524 . S
C881 C878 1.403 . S
C881 C882 1.392 . S
C881 C885 1.495 . S
C882 C881 1.392 . S
C882 C883 1.385 . S
C882 C884 1.478 . S
C883 H877 0.930 . S
C883 C879 1.400 . S
C883 C882 1.385 . S
C884 C882 1.478 . S
C884 C886 1.381 . S
C884 C890 1.383 . S
C885 C881 1.495 . S
C885 H891 0.959 . S
C885 H892 0.961 . S
C885 H893 0.960 . S
C886 C884 1.381 . S
C886 C887 1.394 . S
C886 H894 0.930 . S
C887 C886 1.394 . S
C887 C888 1.383 . S
C887 H895 0.929 . S
C888 C887 1.383 . S
C888 C889 1.377 . S
C889 H873 0.930 . S
C889 C888 1.377 . S
C889 C890 1.379 . S
C890 H874 0.931 . S
C890 C884 1.383 . S
C890 C889 1.379 . S
H891 C885 0.959 . S
H892 C885 0.961 . S
H893 C885 0.960 . S
H894 C886 0.930 . S
H895 C887 0.929 . S
H896 C904 0.929 . S
H897 C906 0.930 . S
H898 C908 0.930 . S
H899 C911 0.929 . S
H900 C914 0.930 . S
H901 C916 0.960 . S
H902 C916 0.960 . S
H903 C916 0.960 . S
C904 H896 0.929 . S
C904 C905 1.377 . S
C904 C906 1.384 . S
C905 C904 1.377 . S
C905 C911 1.390 . S
C906 H897 0.930 . S
C906 C904 1.384 . S
C906 C907 1.372 . S
C907 C906 1.372 . S
C907 C908 1.400 . S
C907 C912 1.490 . S
C908 H898 0.930 . S
C908 C907 1.400 . S
C908 C911 1.386 . S
H909 C925 0.930 . S
H910 C926 0.931 . S
C911 H899 0.929 . S
C911 C905 1.390 . S
C911 C908 1.386 . S
C912 C907 1.490 . S
C912 C914 1.395 1_554 S
C912 C915 1.403 . S
H913 C919 0.930 . S
C914 H900 0.930 . S
C914 C912 1.395 1_556 S
C914 C917 1.403 . S
C915 C912 1.403 . S
C915 C916 1.524 . S
C915 C919 1.400 1_554 S
C916 H901 0.960 . S
C916 H902 0.960 . S
C916 H903 0.960 . S
C916 C915 1.524 . S
C917 C914 1.403 . S
C917 C918 1.392 . S
C917 C921 1.495 . S
C918 C917 1.392 . S
C918 C919 1.385 . S
C918 C920 1.478 . S
C919 H913 0.930 . S
C919 C915 1.400 1_556 S
C919 C918 1.385 . S
C920 C918 1.478 . S
C920 C922 1.381 . S
C920 C926 1.383 . S
C921 C917 1.495 . S
C921 H927 0.959 . S
C921 H928 0.961 . S
C921 H929 0.960 . S
C922 C920 1.381 . S
C922 C923 1.394 . S
C922 H930 0.930 . S
C923 C922 1.394 . S
C923 C924 1.383 . S
C923 H931 0.929 . S
C924 C923 1.383 . S
C924 C925 1.377 . S
C925 H909 0.930 . S
C925 C924 1.377 . S
C925 C926 1.379 . S
C926 H910 0.931 . S
C926 C920 1.383 . S
C926 C925 1.379 . S
H927 C921 0.959 . S
H928 C921 0.961 . S
H929 C921 0.960 . S
H930 C922 0.930 . S
H931 C923 0.929 . S
H932 C940 0.929 . S
H933 C942 0.930 . S
H934 C944 0.930 . S
H935 C947 0.929 . S
H936 C950 0.930 . S
H937 C952 0.960 . S
H938 C952 0.960 . S
H939 C952 0.960 . S
C940 H932 0.929 . S
C940 C941 1.377 . S
C940 C942 1.384 . S
C941 C940 1.377 . S
C941 C947 1.390 . S
C942 H933 0.930 . S
C942 C940 1.384 . S
C942 C943 1.372 . S
C943 C942 1.372 . S
C943 C944 1.400 . S
C943 C948 1.490 . S
C944 H934 0.930 . S
C944 C943 1.400 . S
C944 C947 1.386 . S
H945 C961 0.930 . S
H946 C962 0.931 . S
C947 H935 0.929 . S
C947 C941 1.390 . S
C947 C944 1.386 . S
C948 C943 1.490 . S
C948 C950 1.395 . S
C948 C951 1.403 . S
H949 C955 0.930 . S
C950 H936 0.930 . S
C950 C948 1.395 . S
C950 C953 1.403 . S
C951 C948 1.403 . S
C951 C952 1.524 . S
C951 C955 1.400 . S
C952 H937 0.960 . S
C952 H938 0.960 . S
C952 H939 0.960 . S
C952 C951 1.524 . S
C953 C950 1.403 . S
C953 C954 1.392 . S
C953 C957 1.495 . S
C954 C953 1.392 . S
C954 C955 1.385 . S
C954 C956 1.478 . S
C955 H949 0.930 . S
C955 C951 1.400 . S
C955 C954 1.385 . S
C956 C954 1.478 . S
C956 C958 1.381 . S
C956 C962 1.383 . S
C957 C953 1.495 . S
C957 H963 0.959 . S
C957 H964 0.961 . S
C957 H965 0.960 . S
C958 C956 1.381 . S
C958 C959 1.394 . S
C958 H966 0.930 . S
C959 C958 1.394 . S
C959 C960 1.383 . S
C959 H967 0.929 . S
C960 C959 1.383 . S
C960 C961 1.377 . S
C961 H945 0.930 . S
C961 C960 1.377 . S
C961 C962 1.379 . S
C962 H946 0.931 . S
C962 C956 1.383 . S
C962 C961 1.379 . S
H963 C957 0.959 . S
H964 C957 0.961 . S
H965 C957 0.960 . S
H966 C958 0.930 . S
H967 C959 0.929 . S
H968 C976 0.929 . S
H969 C978 0.930 . S
H970 C980 0.930 . S
H971 C983 0.929 . S
H972 C986 0.930 . S
H973 C988 0.960 . S
H974 C988 0.960 . S
H975 C988 0.960 . S
C976 H968 0.929 . S
C976 C977 1.377 . S
C976 C978 1.384 . S
C977 C976 1.377 . S
C977 C983 1.390 . S
C978 H969 0.930 . S
C978 C976 1.384 . S
C978 C979 1.372 . S
C979 C978 1.372 . S
C979 C980 1.400 . S
C979 C984 1.490 . S
C980 H970 0.930 . S
C980 C979 1.400 . S
C980 C983 1.386 . S
H981 C997 0.930 . S
H982 C998 0.931 . S
C983 H971 0.929 . S
C983 C977 1.390 . S
C983 C980 1.386 . S
C984 C979 1.490 . S
C984 C986 1.395 . S
C984 C987 1.403 . S
H985 C991 0.930 . S
C986 H972 0.930 . S
C986 C984 1.395 . S
C986 C989 1.403 . S
C987 C984 1.403 . S
C987 C988 1.524 . S
C987 C991 1.400 . S
C988 H973 0.960 . S
C988 H974 0.960 . S
C988 H975 0.960 . S
C988 C987 1.524 . S
C989 C986 1.403 . S
C989 C990 1.392 . S
C989 C993 1.495 . S
C990 C989 1.392 . S
C990 C991 1.385 . S
C990 C992 1.478 . S
C991 H985 0.930 . S
C991 C987 1.400 . S
C991 C990 1.385 . S
C992 C990 1.478 . S
C992 C994 1.381 . S
C992 C998 1.383 . S
C993 C989 1.495 . S
C993 H999 0.959 . S
C993 H1000 0.961 . S
C993 H1001 0.960 . S
C994 C992 1.381 . S
C994 C995 1.394 . S
C994 H1002 0.930 . S
C995 C994 1.394 . S
C995 C996 1.383 . S
C995 H1003 0.929 . S
C996 C995 1.383 . S
C996 C997 1.377 . S
C997 H981 0.930 . S
C997 C996 1.377 . S
C997 C998 1.379 . S
C998 H982 0.931 . S
C998 C992 1.383 . S
C998 C997 1.379 . S
H999 C993 0.959 . S
H1000 C993 0.961 . S
H1001 C993 0.960 . S
H1002 C994 0.930 . S
H1003 C995 0.929 . S
H1004 C1012 0.929 . S
H1005 C1014 0.930 . S
H1006 C1016 0.930 . S
H1007 C1019 0.929 . S
H1008 C1022 0.930 . S
H1009 C1024 0.960 . S
H1010 C1024 0.960 . S
H1011 C1024 0.960 . S
C1012 H1004 0.929 . S
C1012 C1013 1.377 . S
C1012 C1014 1.384 . S
C1013 C1012 1.377 . S
C1013 C1019 1.390 . S
C1014 H1005 0.930 . S
C1014 C1012 1.384 . S
C1014 C1015 1.372 . S
C1015 C1014 1.372 . S
C1015 C1016 1.400 . S
C1015 C1020 1.490 . S
C1016 H1006 0.930 . S
C1016 C1015 1.400 . S
C1016 C1019 1.386 . S
H1017 C1033 0.930 . S
H1018 C1034 0.931 . S
C1019 H1007 0.929 . S
C1019 C1013 1.390 . S
C1019 C1016 1.386 . S
C1020 C1015 1.490 . S
C1020 C1022 1.395 . S
C1020 C1023 1.403 . S
H1021 C1027 0.930 . S
C1022 H1008 0.930 . S
C1022 C1020 1.395 . S
C1022 C1025 1.403 . S
C1023 C1020 1.403 . S
C1023 C1024 1.524 . S
C1023 C1027 1.400 . S
C1024 H1009 0.960 . S
C1024 H1010 0.960 . S
C1024 H1011 0.960 . S
C1024 C1023 1.524 . S
C1025 C1022 1.403 . S
C1025 C1026 1.392 . S
C1025 C1029 1.495 . S
C1026 C1025 1.392 . S
C1026 C1027 1.385 . S
C1026 C1028 1.478 . S
C1027 H1021 0.930 . S
C1027 C1023 1.400 . S
C1027 C1026 1.385 . S
C1028 C1026 1.478 . S
C1028 C1030 1.381 . S
C1028 C1034 1.383 . S
C1029 C1025 1.495 . S
C1029 H1035 0.959 . S
C1029 H1036 0.961 . S
C1029 H1037 0.960 . S
C1030 C1028 1.381 . S
C1030 C1031 1.394 . S
C1030 H1038 0.930 . S
C1031 C1030 1.394 . S
C1031 C1032 1.383 . S
C1031 H1039 0.929 . S
C1032 C1031 1.383 . S
C1032 C1033 1.377 . S
C1033 H1017 0.930 . S
C1033 C1032 1.377 . S
C1033 C1034 1.379 . S
C1034 H1018 0.931 . S
C1034 C1028 1.383 . S
C1034 C1033 1.379 . S
H1035 C1029 0.959 . S
H1036 C1029 0.961 . S
H1037 C1029 0.960 . S
H1038 C1030 0.930 . S
H1039 C1031 0.929 . S
H1040 C1048 0.929 . S
H1041 C1050 0.930 . S
H1042 C1052 0.930 . S
H1043 C1055 0.929 . S
H1044 C1058 0.930 . S
H1045 C1060 0.960 . S
H1046 C1060 0.960 . S
H1047 C1060 0.960 . S
C1048 H1040 0.929 . S
C1048 C1049 1.377 . S
C1048 C1050 1.384 . S
C1049 C1048 1.377 . S
C1049 C1055 1.390 . S
C1050 H1041 0.930 . S
C1050 C1048 1.384 . S
C1050 C1051 1.372 . S
C1051 C1050 1.372 . S
C1051 C1052 1.400 . S
C1051 C1056 1.490 . S
C1052 H1042 0.930 . S
C1052 C1051 1.400 . S
C1052 C1055 1.386 . S
H1053 C1069 0.930 . S
H1054 C1070 0.931 . S
C1055 H1043 0.929 . S
C1055 C1049 1.390 . S
C1055 C1052 1.386 . S
C1056 C1051 1.490 . S
C1056 C1058 1.395 . S
C1056 C1059 1.403 . S
H1057 C1063 0.930 . S
C1058 H1044 0.930 . S
C1058 C1056 1.395 . S
C1058 C1061 1.403 . S
C1059 C1056 1.403 . S
C1059 C1060 1.524 . S
C1059 C1063 1.400 . S
C1060 H1045 0.960 . S
C1060 H1046 0.960 . S
C1060 H1047 0.960 . S
C1060 C1059 1.524 . S
C1061 C1058 1.403 . S
C1061 C1062 1.392 . S
C1061 C1065 1.495 1_556 S
C1062 C1061 1.392 . S
C1062 C1063 1.385 . S
C1062 C1064 1.478 1_556 S
C1063 H1057 0.930 . S
C1063 C1059 1.400 . S
C1063 C1062 1.385 . S
C1064 C1062 1.478 1_554 S
C1064 C1066 1.381 . S
C1064 C1070 1.383 . S
C1065 C1061 1.495 1_554 S
C1065 H1071 0.959 . S
C1065 H1072 0.961 . S
C1065 H1073 0.960 . S
C1066 C1064 1.381 . S
C1066 C1067 1.394 . S
C1066 H1074 0.930 . S
C1067 C1066 1.394 . S
C1067 C1068 1.383 . S
C1067 H1075 0.929 . S
C1068 C1067 1.383 . S
C1068 C1069 1.377 . S
C1069 H1053 0.930 . S
C1069 C1068 1.377 . S
C1069 C1070 1.379 . S
C1070 H1054 0.931 . S
C1070 C1064 1.383 . S
C1070 C1069 1.379 . S
H1071 C1065 0.959 . S
H1072 C1065 0.961 . S
H1073 C1065 0.960 . S
H1074 C1066 0.930 . S
H1075 C1067 0.929 . S
H1076 C1084 0.929 . S
H1077 C1086 0.930 . S
H1078 C1088 0.930 . S
H1079 C1091 0.929 . S
H1080 C1094 0.930 . S
H1081 C1096 0.960 . S
H1082 C1096 0.960 . S
H1083 C1096 0.960 . S
C1084 H1076 0.929 . S
C1084 C1085 1.377 . S
C1084 C1086 1.384 . S
C1085 C1084 1.377 . S
C1085 C1091 1.390 . S
C1086 H1077 0.930 . S
C1086 C1084 1.384 . S
C1086 C1087 1.372 . S
C1087 C1086 1.372 . S
C1087 C1088 1.400 . S
C1087 C1092 1.490 . S
C1088 H1078 0.930 . S
C1088 C1087 1.400 . S
C1088 C1091 1.386 . S
H1089 C1105 0.930 . S
H1090 C1106 0.931 . S
C1091 H1079 0.929 . S
C1091 C1085 1.390 . S
C1091 C1088 1.386 . S
C1092 C1087 1.490 . S
C1092 C1094 1.395 . S
C1092 C1095 1.403 . S
H1093 C1099 0.930 . S
C1094 H1080 0.930 . S
C1094 C1092 1.395 . S
C1094 C1097 1.403 . S
C1095 C1092 1.403 . S
C1095 C1096 1.524 . S
C1095 C1099 1.400 . S
C1096 H1081 0.960 . S
C1096 H1082 0.960 . S
C1096 H1083 0.960 . S
C1096 C1095 1.524 . S
C1097 C1094 1.403 . S
C1097 C1098 1.392 . S
C1097 C1101 1.495 . S
C1098 C1097 1.392 . S
C1098 C1099 1.385 . S
C1098 C1100 1.478 . S
C1099 H1093 0.930 . S
C1099 C1095 1.400 . S
C1099 C1098 1.385 . S
C1100 C1098 1.478 . S
C1100 C1102 1.381 . S
C1100 C1106 1.383 . S
C1101 C1097 1.495 . S
C1101 H1107 0.959 . S
C1101 H1108 0.961 . S
C1101 H1109 0.960 . S
C1102 C1100 1.381 . S
C1102 C1103 1.394 1_545 S
C1102 H1110 0.930 . S
C1103 C1102 1.394 1_565 S
C1103 C1104 1.383 1_565 S
C1103 H1111 0.929 . S
C1104 C1103 1.383 1_545 S
C1104 C1105 1.377 . S
C1105 H1089 0.930 . S
C1105 C1104 1.377 . S
C1105 C1106 1.379 . S
C1106 H1090 0.931 . S
C1106 C1100 1.383 . S
C1106 C1105 1.379 . S
H1107 C1101 0.959 . S
H1108 C1101 0.961 . S
H1109 C1101 0.960 . S
H1110 C1102 0.930 . S
H1111 C1103 0.929 . S
H1112 C1120 0.929 . S
H1113 C1122 0.930 . S
H1114 C1124 0.930 . S
H1115 C1127 0.929 . S
H1116 C1130 0.930 . S
H1117 C1132 0.960 . S
H1118 C1132 0.960 . S
H1119 C1132 0.960 . S
C1120 H1112 0.929 . S
C1120 C1121 1.377 . S
C1120 C1122 1.384 . S
C1121 C1120 1.377 . S
C1121 C1127 1.390 . S
C1122 H1113 0.930 . S
C1122 C1120 1.384 . S
C1122 C1123 1.372 . S
C1123 C1122 1.372 . S
C1123 C1124 1.400 . S
C1123 C1128 1.490 . S
C1124 H1114 0.930 . S
C1124 C1123 1.400 . S
C1124 C1127 1.386 . S
H1125 C1141 0.930 . S
H1126 C1142 0.931 . S
C1127 H1115 0.929 . S
C1127 C1121 1.390 . S
C1127 C1124 1.386 . S
C1128 C1123 1.490 . S
C1128 C1130 1.395 . S
C1128 C1131 1.403 . S
H1129 C1135 0.930 . S
C1130 H1116 0.930 . S
C1130 C1128 1.395 . S
C1130 C1133 1.403 . S
C1131 C1128 1.403 . S
C1131 C1132 1.524 . S
C1131 C1135 1.400 . S
C1132 H1117 0.960 . S
C1132 H1118 0.960 . S
C1132 H1119 0.960 . S
C1132 C1131 1.524 . S
C1133 C1130 1.403 . S
C1133 C1134 1.392 . S
C1133 C1137 1.495 . S
C1134 C1133 1.392 . S
C1134 C1135 1.385 . S
C1134 C1136 1.478 . S
C1135 H1129 0.930 . S
C1135 C1131 1.400 . S
C1135 C1134 1.385 . S
C1136 C1134 1.478 . S
C1136 C1138 1.381 . S
C1136 C1142 1.383 . S
C1137 C1133 1.495 . S
C1137 H1143 0.959 . S
C1137 H1144 0.961 . S
C1137 H1145 0.960 . S
C1138 C1136 1.381 . S
C1138 C1139 1.394 . S
C1138 H1146 0.930 . S
C1139 C1138 1.394 . S
C1139 C1140 1.383 . S
C1139 H1147 0.929 . S
C1140 C1139 1.383 . S
C1140 C1141 1.377 . S
C1141 H1125 0.930 . S
C1141 C1140 1.377 . S
C1141 C1142 1.379 . S
C1142 H1126 0.931 . S
C1142 C1136 1.383 . S
C1142 C1141 1.379 . S
H1143 C1137 0.959 . S
H1144 C1137 0.961 . S
H1145 C1137 0.960 . S
H1146 C1138 0.930 . S
H1147 C1139 0.929 . S
H1148 C1156 0.929 . S
H1149 C1158 0.930 . S
H1150 C1160 0.930 . S
H1151 C1163 0.929 . S
H1152 C1166 0.930 . S
H1153 C1168 0.960 . S
H1154 C1168 0.960 . S
H1155 C1168 0.960 . S
C1156 H1148 0.929 . S
C1156 C1157 1.377 . S
C1156 C1158 1.384 . S
C1157 C1156 1.377 . S
C1157 C1163 1.390 . S
C1158 H1149 0.930 . S
C1158 C1156 1.384 . S
C1158 C1159 1.372 . S
C1159 C1158 1.372 . S
C1159 C1160 1.400 . S
C1159 C1164 1.490 . S
C1160 H1150 0.930 . S
C1160 C1159 1.400 . S
C1160 C1163 1.386 . S
H1161 C1177 0.930 . S
H1162 C1178 0.931 . S
C1163 H1151 0.929 . S
C1163 C1157 1.390 . S
C1163 C1160 1.386 . S
C1164 C1159 1.490 . S
C1164 C1166 1.395 . S
C1164 C1167 1.403 . S
H1165 C1171 0.930 . S
C1166 H1152 0.930 . S
C1166 C1164 1.395 . S
C1166 C1169 1.403 . S
C1167 C1164 1.403 . S
C1167 C1168 1.524 . S
C1167 C1171 1.400 . S
C1168 H1153 0.960 . S
C1168 H1154 0.960 . S
C1168 H1155 0.960 . S
C1168 C1167 1.524 . S
C1169 C1166 1.403 . S
C1169 C1170 1.392 . S
C1169 C1173 1.495 . S
C1170 C1169 1.392 . S
C1170 C1171 1.385 . S
C1170 C1172 1.478 . S
C1171 H1165 0.930 . S
C1171 C1167 1.400 . S
C1171 C1170 1.385 . S
C1172 C1170 1.478 . S
C1172 C1174 1.381 . S
C1172 C1178 1.383 . S
C1173 C1169 1.495 . S
C1173 H1179 0.959 . S
C1173 H1180 0.961 . S
C1173 H1181 0.960 . S
C1174 C1172 1.381 . S
C1174 C1175 1.394 1_565 S
C1174 H1182 0.930 . S
C1175 C1174 1.394 1_545 S
C1175 C1176 1.383 1_545 S
C1175 H1183 0.929 . S
C1176 C1175 1.383 1_565 S
C1176 C1177 1.377 . S
C1177 H1161 0.930 . S
C1177 C1176 1.377 . S
C1177 C1178 1.379 . S
C1178 H1162 0.931 . S
C1178 C1172 1.383 . S
C1178 C1177 1.379 . S
H1179 C1173 0.959 . S
H1180 C1173 0.961 . S
H1181 C1173 0.960 . S
H1182 C1174 0.930 . S
H1183 C1175 0.929 . S
H1184 C1192 0.929 . S
H1185 C1194 0.930 . S
H1186 C1196 0.930 . S
H1187 C1199 0.929 . S
H1188 C1202 0.930 1_556 S
H1189 C1204 0.960 . S
H1190 C1204 0.960 . S
H1191 C1204 0.960 . S
C1192 H1184 0.929 . S
C1192 C1193 1.377 . S
C1192 C1194 1.384 . S
C1193 C1192 1.377 . S
C1193 C1199 1.390 . S
C1194 H1185 0.930 . S
C1194 C1192 1.384 . S
C1194 C1195 1.372 . S
C1195 C1194 1.372 . S
C1195 C1196 1.400 . S
C1195 C1200 1.490 1_556 S
C1196 H1186 0.930 . S
C1196 C1195 1.400 . S
C1196 C1199 1.386 . S
H1197 C1213 0.930 . S
H1198 C1214 0.931 . S
C1199 H1187 0.929 . S
C1199 C1193 1.390 . S
C1199 C1196 1.386 . S
C1200 C1195 1.490 1_554 S
C1200 C1202 1.395 . S
C1200 C1203 1.403 . S
H1201 C1207 0.930 . S
C1202 H1188 0.930 1_554 S
C1202 C1200 1.395 . S
C1202 C1205 1.403 . S
C1203 C1200 1.403 . S
C1203 C1204 1.524 . S
C1203 C1207 1.400 . S
C1204 H1189 0.960 . S
C1204 H1190 0.960 . S
C1204 H1191 0.960 . S
C1204 C1203 1.524 . S
C1205 C1202 1.403 . S
C1205 C1206 1.392 . S
C1205 C1209 1.495 . S
C1206 C1205 1.392 . S
C1206 C1207 1.385 . S
C1206 C1208 1.478 . S
C1207 H1201 0.930 . S
C1207 C1203 1.400 . S
C1207 C1206 1.385 . S
C1208 C1206 1.478 . S
C1208 C1210 1.381 . S
C1208 C1214 1.383 . S
C1209 C1205 1.495 . S
C1209 H1215 0.959 . S
C1209 H1216 0.961 . S
C1209 H1217 0.960 . S
C1210 C1208 1.381 . S
C1210 C1211 1.394 . S
C1210 H1218 0.930 . S
C1211 C1210 1.394 . S
C1211 C1212 1.383 . S
C1211 H1219 0.929 . S
C1212 C1211 1.383 . S
C1212 C1213 1.377 . S
C1213 H1197 0.930 . S
C1213 C1212 1.377 . S
C1213 C1214 1.379 . S
C1214 H1198 0.931 . S
C1214 C1208 1.383 . S
C1214 C1213 1.379 . S
H1215 C1209 0.959 . S
H1216 C1209 0.961 . S
H1217 C1209 0.960 . S
H1218 C1210 0.930 . S
H1219 C1211 0.929 . S
H1220 C1228 0.929 1_565 S
H1221 C1230 0.930 . S
H1222 C1232 0.930 . S
H1223 C1235 0.929 . S
H1224 C1238 0.930 . S
H1225 C1240 0.960 . S
H1226 C1240 0.960 . S
H1227 C1240 0.960 . S
C1228 H1220 0.929 1_545 S
C1228 C1229 1.377 . S
C1228 C1230 1.384 . S
C1229 C1228 1.377 . S
C1229 C1235 1.390 . S
C1230 H1221 0.930 . S
C1230 C1228 1.384 . S
C1230 C1231 1.372 . S
C1231 C1230 1.372 . S
C1231 C1232 1.400 . S
C1231 C1236 1.490 . S
C1232 H1222 0.930 . S
C1232 C1231 1.400 . S
C1232 C1235 1.386 . S
H1233 C1249 0.930 . S
H1234 C1250 0.931 . S
C1235 H1223 0.929 . S
C1235 C1229 1.390 . S
C1235 C1232 1.386 . S
C1236 C1231 1.490 . S
C1236 C1238 1.395 . S
C1236 C1239 1.403 . S
H1237 C1243 0.930 . S
C1238 H1224 0.930 . S
C1238 C1236 1.395 . S
C1238 C1241 1.403 . S
C1239 C1236 1.403 . S
C1239 C1240 1.524 . S
C1239 C1243 1.400 . S
C1240 H1225 0.960 . S
C1240 H1226 0.960 . S
C1240 H1227 0.960 . S
C1240 C1239 1.524 . S
C1241 C1238 1.403 . S
C1241 C1242 1.392 . S
C1241 C1245 1.495 . S
C1242 C1241 1.392 . S
C1242 C1243 1.385 . S
C1242 C1244 1.478 . S
C1243 H1237 0.930 . S
C1243 C1239 1.400 . S
C1243 C1242 1.385 . S
C1244 C1242 1.478 . S
C1244 C1246 1.381 . S
C1244 C1250 1.383 . S
C1245 C1241 1.495 . S
C1245 H1251 0.959 . S
C1245 H1252 0.961 . S
C1245 H1253 0.960 . S
C1246 C1244 1.381 . S
C1246 C1247 1.394 . S
C1246 H1254 0.930 . S
C1247 C1246 1.394 . S
C1247 C1248 1.383 . S
C1247 H1255 0.929 . S
C1248 C1247 1.383 . S
C1248 C1249 1.377 . S
C1249 H1233 0.930 . S
C1249 C1248 1.377 . S
C1249 C1250 1.379 . S
C1250 H1234 0.931 . S
C1250 C1244 1.383 . S
C1250 C1249 1.379 . S
H1251 C1245 0.959 . S
H1252 C1245 0.961 . S
H1253 C1245 0.960 . S
H1254 C1246 0.930 . S
H1255 C1247 0.929 . S
H1256 C1264 0.929 . S
H1257 C1266 0.930 . S
H1258 C1268 0.930 . S
H1259 C1271 0.929 . S
H1260 C1274 0.930 . S
H1261 C1276 0.960 . S
H1262 C1276 0.960 . S
H1263 C1276 0.960 . S
C1264 H1256 0.929 . S
C1264 C1265 1.377 . S
C1264 C1266 1.384 . S
C1265 C1264 1.377 . S
C1265 C1271 1.390 . S
C1266 H1257 0.930 . S
C1266 C1264 1.384 . S
C1266 C1267 1.372 . S
C1267 C1266 1.372 . S
C1267 C1268 1.400 . S
C1267 C1272 1.490 . S
C1268 H1258 0.930 . S
C1268 C1267 1.400 . S
C1268 C1271 1.386 . S
H1269 C1285 0.930 . S
H1270 C1286 0.931 . S
C1271 H1259 0.929 . S
C1271 C1265 1.390 . S
C1271 C1268 1.386 . S
C1272 C1267 1.490 . S
C1272 C1274 1.395 . S
C1272 C1275 1.403 . S
H1273 C1279 0.930 . S
C1274 H1260 0.930 . S
C1274 C1272 1.395 . S
C1274 C1277 1.403 . S
C1275 C1272 1.403 . S
C1275 C1276 1.524 . S
C1275 C1279 1.400 . S
C1276 H1261 0.960 . S
C1276 H1262 0.960 . S
C1276 H1263 0.960 . S
C1276 C1275 1.524 . S
C1277 C1274 1.403 . S
C1277 C1278 1.392 . S
C1277 C1281 1.495 . S
C1278 C1277 1.392 . S
C1278 C1279 1.385 . S
C1278 C1280 1.478 . S
C1279 H1273 0.930 . S
C1279 C1275 1.400 . S
C1279 C1278 1.385 . S
C1280 C1278 1.478 . S
C1280 C1282 1.381 . S
C1280 C1286 1.383 . S
C1281 C1277 1.495 . S
C1281 H1287 0.959 . S
C1281 H1288 0.961 . S
C1281 H1289 0.960 . S
C1282 C1280 1.381 . S
C1282 C1283 1.394 . S
C1282 H1290 0.930 . S
C1283 C1282 1.394 . S
C1283 C1284 1.383 . S
C1283 H1291 0.929 . S
C1284 C1283 1.383 . S
C1284 C1285 1.377 . S
C1285 H1269 0.930 . S
C1285 C1284 1.377 . S
C1285 C1286 1.379 . S
C1286 H1270 0.931 . S
C1286 C1280 1.383 . S
C1286 C1285 1.379 . S
H1287 C1281 0.959 . S
H1288 C1281 0.961 . S
H1289 C1281 0.960 . S
H1290 C1282 0.930 . S
H1291 C1283 0.929 . S
H1292 C1300 0.929 . S
H1293 C1302 0.930 . S
H1294 C1304 0.930 . S
H1295 C1307 0.929 . S
H1296 C1310 0.930 . S
H1297 C1312 0.960 . S
H1298 C1312 0.960 . S
H1299 C1312 0.960 . S
C1300 H1292 0.929 . S
C1300 C1301 1.377 1_545 S
C1300 C1302 1.384 1_545 S
C1301 C1300 1.377 1_565 S
C1301 C1307 1.390 . S
C1302 H1293 0.930 . S
C1302 C1300 1.384 1_565 S
C1302 C1303 1.372 . S
C1303 C1302 1.372 . S
C1303 C1304 1.400 . S
C1303 C1308 1.490 . S
C1304 H1294 0.930 . S
C1304 C1303 1.400 . S
C1304 C1307 1.386 . S
H1305 C1321 0.930 . S
H1306 C1322 0.931 . S
C1307 H1295 0.929 . S
C1307 C1301 1.390 . S
C1307 C1304 1.386 . S
C1308 C1303 1.490 . S
C1308 C1310 1.395 . S
C1308 C1311 1.403 . S
H1309 C1315 0.930 . S
C1310 H1296 0.930 . S
C1310 C1308 1.395 . S
C1310 C1313 1.403 . S
C1311 C1308 1.403 . S
C1311 C1312 1.524 . S
C1311 C1315 1.400 . S
C1312 H1297 0.960 . S
C1312 H1298 0.960 . S
C1312 H1299 0.960 . S
C1312 C1311 1.524 . S
C1313 C1310 1.403 . S
C1313 C1314 1.392 . S
C1313 C1317 1.495 . S
C1314 C1313 1.392 . S
C1314 C1315 1.385 . S
C1314 C1316 1.478 . S
C1315 H1309 0.930 . S
C1315 C1311 1.400 . S
C1315 C1314 1.385 . S
C1316 C1314 1.478 . S
C1316 C1318 1.381 . S
C1316 C1322 1.383 . S
C1317 C1313 1.495 . S
C1317 H1323 0.959 . S
C1317 H1324 0.961 . S
C1317 H1325 0.960 . S
C1318 C1316 1.381 . S
C1318 C1319 1.394 . S
C1318 H1326 0.930 . S
C1319 C1318 1.394 . S
C1319 C1320 1.383 . S
C1319 H1327 0.929 . S
C1320 C1319 1.383 . S
C1320 C1321 1.377 . S
C1321 H1305 0.930 . S
C1321 C1320 1.377 . S
C1321 C1322 1.379 . S
C1322 H1306 0.931 . S
C1322 C1316 1.383 . S
C1322 C1321 1.379 . S
H1323 C1317 0.959 . S
H1324 C1317 0.961 . S
H1325 C1317 0.960 . S
H1326 C1318 0.930 . S
H1327 C1319 0.929 . S
H1328 C1336 0.929 . S
H1329 C1338 0.930 . S
H1330 C1340 0.930 . S
H1331 C1343 0.929 . S
H1332 C1346 0.930 . S
H1333 C1348 0.960 . S
H1334 C1348 0.960 . S
H1335 C1348 0.960 . S
C1336 H1328 0.929 . S
C1336 C1337 1.377 . S
C1336 C1338 1.384 . S
C1337 C1336 1.377 . S
C1337 C1343 1.390 . S
C1338 H1329 0.930 . S
C1338 C1336 1.384 . S
C1338 C1339 1.372 . S
C1339 C1338 1.372 . S
C1339 C1340 1.400 . S
C1339 C1344 1.490 . S
C1340 H1330 0.930 . S
C1340 C1339 1.400 . S
C1340 C1343 1.386 . S
H1341 C1357 0.930 . S
H1342 C1358 0.931 . S
C1343 H1331 0.929 . S
C1343 C1337 1.390 . S
C1343 C1340 1.386 . S
C1344 C1339 1.490 . S
C1344 C1346 1.395 . S
C1344 C1347 1.403 . S
H1345 C1351 0.930 . S
C1346 H1332 0.930 . S
C1346 C1344 1.395 . S
C1346 C1349 1.403 . S
C1347 C1344 1.403 . S
C1347 C1348 1.524 . S
C1347 C1351 1.400 . S
C1348 H1333 0.960 . S
C1348 H1334 0.960 . S
C1348 H1335 0.960 . S
C1348 C1347 1.524 . S
C1349 C1346 1.403 . S
C1349 C1350 1.392 . S
C1349 C1353 1.495 . S
C1350 C1349 1.392 . S
C1350 C1351 1.385 . S
C1350 C1352 1.478 . S
C1351 H1345 0.930 . S
C1351 C1347 1.400 . S
C1351 C1350 1.385 . S
C1352 C1350 1.478 . S
C1352 C1354 1.381 . S
C1352 C1358 1.383 . S
C1353 C1349 1.495 . S
C1353 H1359 0.959 . S
C1353 H1360 0.961 . S
C1353 H1361 0.960 . S
C1354 C1352 1.381 . S
C1354 C1355 1.394 . S
C1354 H1362 0.930 . S
C1355 C1354 1.394 . S
C1355 C1356 1.383 . S
C1355 H1363 0.929 . S
C1356 C1355 1.383 . S
C1356 C1357 1.377 . S
C1357 H1341 0.930 . S
C1357 C1356 1.377 . S
C1357 C1358 1.379 . S
C1358 H1342 0.931 . S
C1358 C1352 1.383 . S
C1358 C1357 1.379 . S
H1359 C1353 0.959 . S
H1360 C1353 0.961 . S
H1361 C1353 0.960 . S
H1362 C1354 0.930 . S
H1363 C1355 0.929 . S
H1364 C1372 0.929 . S
H1365 C1374 0.930 . S
H1366 C1376 0.930 . S
H1367 C1379 0.929 . S
H1368 C1382 0.930 . S
H1369 C1384 0.960 . S
H1370 C1384 0.960 . S
H1371 C1384 0.960 . S
C1372 H1364 0.929 . S
C1372 C1373 1.377 . S
C1372 C1374 1.384 . S
C1373 C1372 1.377 . S
C1373 C1379 1.390 . S
C1374 H1365 0.930 . S
C1374 C1372 1.384 . S
C1374 C1375 1.372 . S
C1375 C1374 1.372 . S
C1375 C1376 1.400 . S
C1375 C1380 1.490 . S
C1376 H1366 0.930 . S
C1376 C1375 1.400 . S
C1376 C1379 1.386 . S
H1377 C1393 0.930 . S
H1378 C1394 0.931 . S
C1379 H1367 0.929 . S
C1379 C1373 1.390 . S
C1379 C1376 1.386 . S
C1380 C1375 1.490 . S
C1380 C1382 1.395 . S
C1380 C1383 1.403 . S
H1381 C1387 0.930 . S
C1382 H1368 0.930 . S
C1382 C1380 1.395 . S
C1382 C1385 1.403 . S
C1383 C1380 1.403 . S
C1383 C1384 1.524 . S
C1383 C1387 1.400 . S
C1384 H1369 0.960 . S
C1384 H1370 0.960 . S
C1384 H1371 0.960 . S
C1384 C1383 1.524 . S
C1385 C1382 1.403 . S
C1385 C1386 1.392 . S
C1385 C1389 1.495 . S
C1386 C1385 1.392 . S
C1386 C1387 1.385 . S
C1386 C1388 1.478 . S
C1387 H1381 0.930 . S
C1387 C1383 1.400 . S
C1387 C1386 1.385 . S
C1388 C1386 1.478 . S
C1388 C1390 1.381 . S
C1388 C1394 1.383 . S
C1389 C1385 1.495 . S
C1389 H1395 0.959 . S
C1389 H1396 0.961 . S
C1389 H1397 0.960 . S
C1390 C1388 1.381 . S
C1390 C1391 1.394 . S
C1390 H1398 0.930 . S
C1391 C1390 1.394 . S
C1391 C1392 1.383 . S
C1391 H1399 0.929 . S
C1392 C1391 1.383 . S
C1392 C1393 1.377 . S
C1393 H1377 0.930 . S
C1393 C1392 1.377 . S
C1393 C1394 1.379 . S
C1394 H1378 0.931 . S
C1394 C1388 1.383 . S
C1394 C1393 1.379 . S
H1395 C1389 0.959 . S
H1396 C1389 0.961 . S
H1397 C1389 0.960 . S
H1398 C1390 0.930 . S
H1399 C1391 0.929 . S
H1400 C1408 0.929 . S
H1401 C1410 0.930 . S
H1402 C1412 0.930 . S
H1403 C1415 0.929 . S
H1404 C1418 0.930 . S
H1405 C1420 0.960 . S
H1406 C1420 0.960 . S
H1407 C1420 0.960 . S
C1408 H1400 0.929 . S
C1408 C1409 1.377 . S
C1408 C1410 1.384 . S
C1409 C1408 1.377 . S
C1409 C1415 1.390 . S
C1410 H1401 0.930 . S
C1410 C1408 1.384 . S
C1410 C1411 1.372 . S
C1411 C1410 1.372 . S
C1411 C1412 1.400 . S
C1411 C1416 1.490 . S
C1412 H1402 0.930 . S
C1412 C1411 1.400 . S
C1412 C1415 1.386 . S
H1413 C1429 0.930 . S
H1414 C1430 0.931 1_554 S
C1415 H1403 0.929 . S
C1415 C1409 1.390 . S
C1415 C1412 1.386 . S
C1416 C1411 1.490 . S
C1416 C1418 1.395 . S
C1416 C1419 1.403 . S
H1417 C1423 0.930 . S
C1418 H1404 0.930 . S
C1418 C1416 1.395 . S
C1418 C1421 1.403 1_554 S
C1419 C1416 1.403 . S
C1419 C1420 1.524 . S
C1419 C1423 1.400 . S
C1420 H1405 0.960 . S
C1420 H1406 0.960 . S
C1420 H1407 0.960 . S
C1420 C1419 1.524 . S
C1421 C1418 1.403 1_556 S
C1421 C1422 1.392 . S
C1421 C1425 1.495 . S
C1422 C1421 1.392 . S
C1422 C1423 1.385 1_556 S
C1422 C1424 1.478 . S
C1423 H1417 0.930 . S
C1423 C1419 1.400 . S
C1423 C1422 1.385 1_554 S
C1424 C1422 1.478 . S
C1424 C1426 1.381 . S
C1424 C1430 1.383 . S
C1425 C1421 1.495 . S
C1425 H1431 0.959 . S
C1425 H1432 0.961 . S
C1425 H1433 0.960 . S
C1426 C1424 1.381 . S
C1426 C1427 1.394 . S
C1426 H1434 0.930 . S
C1427 C1426 1.394 . S
C1427 C1428 1.383 . S
C1427 H1435 0.929 . S
C1428 C1427 1.383 . S
C1428 C1429 1.377 . S
C1429 H1413 0.930 . S
C1429 C1428 1.377 . S
C1429 C1430 1.379 . S
C1430 H1414 0.931 1_556 S
C1430 C1424 1.383 . S
C1430 C1429 1.379 . S
H1431 C1425 0.959 . S
H1432 C1425 0.961 . S
H1433 C1425 0.960 . S
H1434 C1426 0.930 . S
H1435 C1427 0.929 . S
H1436 C1444 0.929 . S
H1437 C1446 0.930 . S
H1438 C1448 0.930 . S
H1439 C1451 0.929 . S
H1440 C1454 0.930 . S
H1441 C1456 0.960 . S
H1442 C1456 0.960 . S
H1443 C1456 0.960 . S
C1444 H1436 0.929 . S
C1444 C1445 1.377 . S
C1444 C1446 1.384 . S
C1445 C1444 1.377 . S
C1445 C1451 1.390 . S
C1446 H1437 0.930 . S
C1446 C1444 1.384 . S
C1446 C1447 1.372 . S
C1447 C1446 1.372 . S
C1447 C1448 1.400 . S
C1447 C1452 1.490 . S
C1448 H1438 0.930 . S
C1448 C1447 1.400 . S
C1448 C1451 1.386 . S
H1449 C1465 0.930 . S
H1450 C1466 0.931 . S
C1451 H1439 0.929 . S
C1451 C1445 1.390 . S
C1451 C1448 1.386 . S
C1452 C1447 1.490 . S
C1452 C1454 1.395 . S
C1452 C1455 1.403 . S
H1453 C1459 0.930 . S
C1454 H1440 0.930 . S
C1454 C1452 1.395 . S
C1454 C1457 1.403 . S
C1455 C1452 1.403 . S
C1455 C1456 1.524 . S
C1455 C1459 1.400 . S
C1456 H1441 0.960 . S
C1456 H1442 0.960 . S
C1456 H1443 0.960 . S
C1456 C1455 1.524 . S
C1457 C1454 1.403 . S
C1457 C1458 1.392 . S
C1457 C1461 1.495 . S
C1458 C1457 1.392 . S
C1458 C1459 1.385 . S
C1458 C1460 1.478 . S
C1459 H1453 0.930 . S
C1459 C1455 1.400 . S
C1459 C1458 1.385 . S
C1460 C1458 1.478 . S
C1460 C1462 1.381 . S
C1460 C1466 1.383 . S
C1461 C1457 1.495 . S
C1461 H1467 0.959 . S
C1461 H1468 0.961 . S
C1461 H1469 0.960 . S
C1462 C1460 1.381 . S
C1462 C1463 1.394 . S
C1462 H1470 0.930 . S
C1463 C1462 1.394 . S
C1463 C1464 1.383 . S
C1463 H1471 0.929 . S
C1464 C1463 1.383 . S
C1464 C1465 1.377 . S
C1465 H1449 0.930 . S
C1465 C1464 1.377 . S
C1465 C1466 1.379 . S
C1466 H1450 0.931 . S
C1466 C1460 1.383 . S
C1466 C1465 1.379 . S
H1467 C1461 0.959 . S
H1468 C1461 0.961 . S
H1469 C1461 0.960 . S
H1470 C1462 0.930 . S
H1471 C1463 0.929 . S
H1472 C1480 0.929 . S
H1473 C1482 0.930 . S
H1474 C1484 0.930 . S
H1475 C1487 0.929 . S
H1476 C1490 0.930 . S
H1477 C1492 0.960 . S
H1478 C1492 0.960 . S
H1479 C1492 0.960 . S
C1480 H1472 0.929 . S
C1480 C1481 1.377 . S
C1480 C1482 1.384 . S
C1481 C1480 1.377 . S
C1481 C1487 1.390 . S
C1482 H1473 0.930 . S
C1482 C1480 1.384 . S
C1482 C1483 1.372 . S
C1483 C1482 1.372 . S
C1483 C1484 1.400 . S
C1483 C1488 1.490 . S
C1484 H1474 0.930 . S
C1484 C1483 1.400 . S
C1484 C1487 1.386 . S
H1485 C1501 0.930 . S
H1486 C1502 0.931 . S
C1487 H1475 0.929 . S
C1487 C1481 1.390 . S
C1487 C1484 1.386 . S
C1488 C1483 1.490 . S
C1488 C1490 1.395 . S
C1488 C1491 1.403 . S
H1489 C1495 0.930 . S
C1490 H1476 0.930 . S
C1490 C1488 1.395 . S
C1490 C1493 1.403 . S
C1491 C1488 1.403 . S
C1491 C1492 1.524 . S
C1491 C1495 1.400 . S
C1492 H1477 0.960 . S
C1492 H1478 0.960 . S
C1492 H1479 0.960 . S
C1492 C1491 1.524 . S
C1493 C1490 1.403 . S
C1493 C1494 1.392 . S
C1493 C1497 1.495 . S
C1494 C1493 1.392 . S
C1494 C1495 1.385 . S
C1494 C1496 1.478 . S
C1495 H1489 0.930 . S
C1495 C1491 1.400 . S
C1495 C1494 1.385 . S
C1496 C1494 1.478 . S
C1496 C1498 1.381 . S
C1496 C1502 1.383 . S
C1497 C1493 1.495 . S
C1497 H1503 0.959 . S
C1497 H1504 0.961 . S
C1497 H1505 0.960 . S
C1498 C1496 1.381 . S
C1498 C1499 1.394 . S
C1498 H1506 0.930 . S
C1499 C1498 1.394 . S
C1499 C1500 1.383 . S
C1499 H1507 0.929 . S
C1500 C1499 1.383 . S
C1500 C1501 1.377 . S
C1501 H1485 0.930 . S
C1501 C1500 1.377 . S
C1501 C1502 1.379 . S
C1502 H1486 0.931 . S
C1502 C1496 1.383 . S
C1502 C1501 1.379 . S
H1503 C1497 0.959 . S
H1504 C1497 0.961 . S
H1505 C1497 0.960 . S
H1506 C1498 0.930 . S
H1507 C1499 0.929 . S
H1508 C1516 0.929 . S
H1509 C1518 0.930 . S
H1510 C1520 0.930 . S
H1511 C1523 0.929 . S
H1512 C1526 0.930 . S
H1513 C1528 0.960 . S
H1514 C1528 0.960 . S
H1515 C1528 0.960 . S
C1516 H1508 0.929 . S
C1516 C1517 1.377 . S
C1516 C1518 1.384 . S
C1517 C1516 1.377 . S
C1517 C1523 1.390 . S
C1518 H1509 0.930 . S
C1518 C1516 1.384 . S
C1518 C1519 1.372 . S
C1519 C1518 1.372 . S
C1519 C1520 1.400 . S
C1519 C1524 1.490 . S
C1520 H1510 0.930 . S
C1520 C1519 1.400 . S
C1520 C1523 1.386 . S
H1521 C1537 0.930 . S
H1522 C1538 0.931 . S
C1523 H1511 0.929 . S
C1523 C1517 1.390 . S
C1523 C1520 1.386 . S
C1524 C1519 1.490 . S
C1524 C1526 1.395 . S
C1524 C1527 1.403 . S
H1525 C1531 0.930 . S
C1526 H1512 0.930 . S
C1526 C1524 1.395 . S
C1526 C1529 1.403 . S
C1527 C1524 1.403 . S
C1527 C1528 1.524 . S
C1527 C1531 1.400 . S
C1528 H1513 0.960 . S
C1528 H1514 0.960 . S
C1528 H1515 0.960 . S
C1528 C1527 1.524 . S
C1529 C1526 1.403 . S
C1529 C1530 1.392 . S
C1529 C1533 1.495 . S
C1530 C1529 1.392 . S
C1530 C1531 1.385 . S
C1530 C1532 1.478 . S
C1531 H1525 0.930 . S
C1531 C1527 1.400 . S
C1531 C1530 1.385 . S
C1532 C1530 1.478 . S
C1532 C1534 1.381 . S
C1532 C1538 1.383 . S
C1533 C1529 1.495 . S
C1533 H1539 0.959 . S
C1533 H1540 0.961 . S
C1533 H1541 0.960 . S
C1534 C1532 1.381 . S
C1534 C1535 1.394 . S
C1534 H1542 0.930 . S
C1535 C1534 1.394 . S
C1535 C1536 1.383 . S
C1535 H1543 0.929 . S
C1536 C1535 1.383 . S
C1536 C1537 1.377 . S
C1537 H1521 0.930 . S
C1537 C1536 1.377 . S
C1537 C1538 1.379 . S
C1538 H1522 0.931 . S
C1538 C1532 1.383 . S
C1538 C1537 1.379 . S
H1539 C1533 0.959 . S
H1540 C1533 0.961 . S
H1541 C1533 0.960 . S
H1542 C1534 0.930 . S
H1543 C1535 0.929 . S
H1544 C1552 0.929 . S
H1545 C1554 0.930 . S
H1546 C1556 0.930 . S
H1547 C1559 0.929 . S
H1548 C1562 0.930 . S
H1549 C1564 0.960 . S
H1550 C1564 0.960 . S
H1551 C1564 0.960 . S
C1552 H1544 0.929 . S
C1552 C1553 1.377 . S
C1552 C1554 1.384 . S
C1553 C1552 1.377 . S
C1553 C1559 1.390 . S
C1554 H1545 0.930 . S
C1554 C1552 1.384 . S
C1554 C1555 1.372 . S
C1555 C1554 1.372 . S
C1555 C1556 1.400 . S
C1555 C1560 1.490 . S
C1556 H1546 0.930 . S
C1556 C1555 1.400 . S
C1556 C1559 1.386 . S
H1557 C1573 0.930 . S
H1558 C1574 0.931 . S
C1559 H1547 0.929 . S
C1559 C1553 1.390 . S
C1559 C1556 1.386 . S
C1560 C1555 1.490 . S
C1560 C1562 1.395 . S
C1560 C1563 1.403 1_554 S
H1561 C1567 0.930 . S
C1562 H1548 0.930 . S
C1562 C1560 1.395 . S
C1562 C1565 1.401 1_554 S
C1563 C1560 1.403 1_556 S
C1563 C1564 1.524 . S
C1563 C1567 1.400 . S
C1564 H1549 0.960 . S
C1564 H1550 0.960 . S
C1564 H1551 0.960 . S
C1564 C1563 1.524 . S
C1565 C1562 1.401 1_556 S
C1565 C1566 1.396 . S
C1565 C1569 1.494 1_556 S
C1566 C1565 1.396 . S
C1566 C1567 1.385 . S
C1566 C1568 1.478 . S
C1567 H1561 0.930 . S
C1567 C1563 1.400 . S
C1567 C1566 1.385 . S
C1568 C1566 1.478 . S
C1568 C1570 1.381 . S
C1568 C1574 1.383 . S
C1569 C1565 1.494 1_554 S
C1569 H1575 0.959 . S
C1569 H1576 0.961 . S
C1569 H1577 0.972 . S
C1570 C1568 1.381 . S
C1570 C1571 1.394 . S
C1570 H1578 0.930 . S
C1571 C1570 1.394 . S
C1571 C1572 1.383 . S
C1571 H1579 0.929 1_655 S
C1572 C1571 1.383 . S
C1572 C1573 1.377 . S
C1573 H1557 0.930 . S
C1573 C1572 1.377 . S
C1573 C1574 1.379 . S
C1574 H1558 0.931 . S
C1574 C1568 1.383 . S
C1574 C1573 1.379 . S
H1575 C1569 0.959 . S
H1576 C1569 0.961 . S
H1577 C1569 0.972 . S
H1578 C1570 0.930 . S
H1579 C1571 0.929 1_455 S
H1580 C1588 0.929 . S
H1581 C1590 0.930 . S
H1582 C1592 0.930 . S
H1583 C1595 0.929 . S
H1584 C1598 0.930 . S
H1585 C1600 0.960 . S
H1586 C1600 0.960 . S
H1587 C1600 0.960 . S
C1588 H1580 0.929 . S
C1588 C1589 1.377 . S
C1588 C1590 1.384 . S
C1589 C1588 1.377 . S
C1589 C1595 1.390 . S
C1590 H1581 0.930 . S
C1590 C1588 1.384 . S
C1590 C1591 1.372 . S
C1591 C1590 1.372 . S
C1591 C1592 1.400 . S
C1591 C1596 1.490 . S
C1592 H1582 0.930 . S
C1592 C1591 1.400 . S
C1592 C1595 1.386 . S
H1593 C1609 0.930 . S
H1594 C1610 0.931 . S
C1595 H1583 0.929 . S
C1595 C1589 1.390 . S
C1595 C1592 1.386 . S
C1596 C1591 1.490 . S
C1596 C1598 1.395 . S
C1596 C1599 1.403 . S
H1597 C1603 0.930 . S
C1598 H1584 0.930 . S
C1598 C1596 1.395 . S
C1598 C1601 1.403 . S
C1599 C1596 1.403 . S
C1599 C1600 1.524 . S
C1599 C1603 1.400 . S
C1600 H1585 0.960 . S
C1600 H1586 0.960 . S
C1600 H1587 0.960 . S
C1600 C1599 1.524 . S
C1601 C1598 1.403 . S
C1601 C1602 1.392 . S
C1601 C1605 1.495 . S
C1602 C1601 1.392 . S
C1602 C1603 1.385 . S
C1602 C1604 1.478 . S
C1603 H1597 0.930 . S
C1603 C1599 1.400 . S
C1603 C1602 1.385 . S
C1604 C1602 1.478 . S
C1604 C1606 1.381 . S
C1604 C1610 1.383 . S
C1605 C1601 1.495 . S
C1605 H1611 0.959 . S
C1605 H1612 0.961 . S
C1605 H1613 0.960 . S
C1606 C1604 1.381 . S
C1606 C1607 1.394 . S
C1606 H1614 0.930 . S
C1607 C1606 1.394 . S
C1607 C1608 1.383 . S
C1607 H1615 0.929 . S
C1608 C1607 1.383 . S
C1608 C1609 1.377 . S
C1609 H1593 0.930 . S
C1609 C1608 1.377 . S
C1609 C1610 1.379 . S
C1610 H1594 0.931 . S
C1610 C1604 1.383 . S
C1610 C1609 1.379 . S
H1611 C1605 0.959 . S
H1612 C1605 0.961 . S
H1613 C1605 0.960 . S
H1614 C1606 0.930 . S
H1615 C1607 0.929 . S
H1616 C1624 0.929 . S
H1617 C1626 0.930 . S
H1618 C1628 0.930 . S
H1619 C1631 0.929 . S
H1620 C1634 0.930 . S
H1621 C1636 0.960 . S
H1622 C1636 0.960 . S
H1623 C1636 0.960 . S
C1624 H1616 0.929 . S
C1624 C1625 1.377 . S
C1624 C1626 1.384 . S
C1625 C1624 1.377 . S
C1625 C1631 1.390 . S
C1626 H1617 0.930 . S
C1626 C1624 1.384 . S
C1626 C1627 1.372 . S
C1627 C1626 1.372 . S
C1627 C1628 1.400 . S
C1627 C1632 1.490 . S
C1628 H1618 0.930 . S
C1628 C1627 1.400 . S
C1628 C1631 1.386 . S
H1629 C1645 0.930 . S
H1630 C1646 0.931 . S
C1631 H1619 0.929 . S
C1631 C1625 1.390 . S
C1631 C1628 1.386 . S
C1632 C1627 1.490 . S
C1632 C1634 1.395 . S
C1632 C1635 1.403 . S
H1633 C1639 0.930 . S
C1634 H1620 0.930 . S
C1634 C1632 1.395 . S
C1634 C1637 1.403 . S
C1635 C1632 1.403 . S
C1635 C1636 1.524 . S
C1635 C1639 1.400 . S
C1636 H1621 0.960 . S
C1636 H1622 0.960 . S
C1636 H1623 0.960 . S
C1636 C1635 1.524 . S
C1637 C1634 1.403 . S
C1637 C1638 1.392 . S
C1637 C1641 1.495 . S
C1638 C1637 1.392 . S
C1638 C1639 1.385 . S
C1638 C1640 1.478 . S
C1639 H1633 0.930 . S
C1639 C1635 1.400 . S
C1639 C1638 1.385 . S
C1640 C1638 1.478 . S
C1640 C1642 1.381 . S
C1640 C1646 1.383 . S
C1641 C1637 1.495 . S
C1641 H1647 0.959 . S
C1641 H1648 0.961 . S
C1641 H1649 0.960 . S
C1642 C1640 1.381 . S
C1642 C1643 1.394 . S
C1642 H1650 0.930 . S
C1643 C1642 1.394 . S
C1643 C1644 1.383 . S
C1643 H1651 0.929 . S
C1644 C1643 1.383 . S
C1644 C1645 1.377 . S
C1645 H1629 0.930 . S
C1645 C1644 1.377 . S
C1645 C1646 1.379 . S
C1646 H1630 0.931 . S
C1646 C1640 1.383 . S
C1646 C1645 1.379 . S
H1647 C1641 0.959 . S
H1648 C1641 0.961 . S
H1649 C1641 0.960 . S
H1650 C1642 0.930 . S
H1651 C1643 0.929 . S
H1652 C1660 0.929 . S
H1653 C1662 0.930 . S
H1654 C1664 0.930 . S
H1655 C1667 0.929 . S
H1656 C1670 0.930 . S
H1657 C1672 0.960 . S
H1658 C1672 0.960 . S
H1659 C1672 0.960 . S
C1660 H1652 0.929 . S
C1660 C1661 1.377 . S
C1660 C1662 1.384 . S
C1661 C1660 1.377 . S
C1661 C1667 1.390 . S
C1662 H1653 0.930 . S
C1662 C1660 1.384 . S
C1662 C1663 1.372 . S
C1663 C1662 1.372 . S
C1663 C1664 1.400 . S
C1663 C1668 1.490 . S
C1664 H1654 0.930 . S
C1664 C1663 1.400 . S
C1664 C1667 1.386 . S
H1665 C1681 0.930 . S
H1666 C1682 0.931 . S
C1667 H1655 0.929 . S
C1667 C1661 1.390 . S
C1667 C1664 1.386 . S
C1668 C1663 1.490 . S
C1668 C1670 1.395 . S
C1668 C1671 1.403 . S
H1669 C1675 0.930 . S
C1670 H1656 0.930 . S
C1670 C1668 1.395 . S
C1670 C1673 1.403 . S
C1671 C1668 1.403 . S
C1671 C1672 1.524 . S
C1671 C1675 1.400 . S
C1672 H1657 0.960 . S
C1672 H1658 0.960 . S
C1672 H1659 0.960 . S
C1672 C1671 1.524 . S
C1673 C1670 1.403 . S
C1673 C1674 1.392 . S
C1673 C1677 1.495 . S
C1674 C1673 1.392 . S
C1674 C1675 1.385 . S
C1674 C1676 1.478 . S
C1675 H1669 0.930 . S
C1675 C1671 1.400 . S
C1675 C1674 1.385 . S
C1676 C1674 1.478 . S
C1676 C1678 1.381 . S
C1676 C1682 1.383 . S
C1677 C1673 1.495 . S
C1677 H1683 0.959 . S
C1677 H1684 0.961 . S
C1677 H1685 0.960 . S
C1678 C1676 1.381 . S
C1678 C1679 1.394 . S
C1678 H1686 0.930 . S
C1679 C1678 1.394 . S
C1679 C1680 1.383 . S
C1679 H1687 0.929 . S
C1680 C1679 1.383 . S
C1680 C1681 1.377 . S
C1681 H1665 0.930 . S
C1681 C1680 1.377 . S
C1681 C1682 1.379 . S
C1682 H1666 0.931 . S
C1682 C1676 1.383 . S
C1682 C1681 1.379 . S
H1683 C1677 0.959 . S
H1684 C1677 0.961 . S
H1685 C1677 0.960 . S
H1686 C1678 0.930 . S
H1687 C1679 0.929 . S
H1688 C1696 0.929 . S
H1689 C1698 0.930 . S
H1690 C1700 0.930 . S
H1691 C1703 0.929 . S
H1692 C1706 0.930 . S
H1693 C1708 0.960 . S
H1694 C1708 0.960 . S
H1695 C1708 0.960 . S
C1696 H1688 0.929 . S
C1696 C1697 1.377 . S
C1696 C1698 1.384 . S
C1697 C1696 1.377 . S
C1697 C1703 1.390 . S
C1698 H1689 0.930 . S
C1698 C1696 1.384 . S
C1698 C1699 1.372 . S
C1699 C1698 1.372 . S
C1699 C1700 1.400 . S
C1699 C1704 1.490 . S
C1700 H1690 0.930 . S
C1700 C1699 1.400 . S
C1700 C1703 1.386 . S
H1701 C1717 0.930 . S
H1702 C1718 0.931 1_556 S
C1703 H1691 0.929 . S
C1703 C1697 1.390 . S
C1703 C1700 1.386 . S
C1704 C1699 1.490 . S
C1704 C1706 1.395 . S
C1704 C1707 1.403 . S
H1705 C1711 0.930 . S
C1706 H1692 0.930 . S
C1706 C1704 1.395 . S
C1706 C1709 1.403 . S
C1707 C1704 1.403 . S
C1707 C1708 1.524 . S
C1707 C1711 1.400 . S
C1708 H1693 0.960 . S
C1708 H1694 0.960 . S
C1708 H1695 0.960 . S
C1708 C1707 1.524 . S
C1709 C1706 1.403 . S
C1709 C1710 1.392 . S
C1709 C1713 1.495 . S
C1710 C1709 1.392 . S
C1710 C1711 1.385 . S
C1710 C1712 1.478 1_556 S
C1711 H1705 0.930 . S
C1711 C1707 1.400 . S
C1711 C1710 1.385 . S
C1712 C1710 1.478 1_554 S
C1712 C1714 1.381 . S
C1712 C1718 1.383 . S
C1713 C1709 1.495 . S
C1713 H1719 0.959 . S
C1713 H1720 0.961 . S
C1713 H1721 0.960 . S
C1714 C1712 1.381 . S
C1714 C1715 1.394 . S
C1714 H1722 0.930 . S
C1715 C1714 1.394 . S
C1715 C1716 1.383 . S
C1715 H1723 0.929 . S
C1716 C1715 1.383 . S
C1716 C1717 1.377 . S
C1717 H1701 0.930 . S
C1717 C1716 1.377 . S
C1717 C1718 1.379 . S
C1718 H1702 0.931 1_554 S
C1718 C1712 1.383 . S
C1718 C1717 1.379 . S
H1719 C1713 0.959 . S
H1720 C1713 0.961 . S
H1721 C1713 0.960 . S
H1722 C1714 0.930 . S
H1723 C1715 0.929 . S
H1724 C1732 0.929 . S
H1725 C1734 0.930 . S
H1726 C1736 0.930 . S
H1727 C1739 0.929 . S
H1728 C1742 0.930 . S
H1729 C1744 0.960 . S
H1730 C1744 0.960 . S
H1731 C1744 0.960 . S
C1732 H1724 0.929 . S
C1732 C1733 1.377 . S
C1732 C1734 1.384 . S
C1733 C1732 1.377 . S
C1733 C1739 1.390 . S
C1734 H1725 0.930 . S
C1734 C1732 1.384 . S
C1734 C1735 1.372 . S
C1735 C1734 1.372 . S
C1735 C1736 1.400 . S
C1735 C1740 1.490 . S
C1736 H1726 0.930 . S
C1736 C1735 1.400 . S
C1736 C1739 1.386 . S
H1737 C1753 0.930 . S
H1738 C1754 0.931 . S
C1739 H1727 0.929 . S
C1739 C1733 1.390 . S
C1739 C1736 1.386 . S
C1740 C1735 1.490 . S
C1740 C1742 1.395 . S
C1740 C1743 1.403 . S
H1741 C1747 0.930 . S
C1742 H1728 0.930 . S
C1742 C1740 1.395 . S
C1742 C1745 1.403 . S
C1743 C1740 1.403 . S
C1743 C1744 1.524 . S
C1743 C1747 1.400 . S
C1744 H1729 0.960 . S
C1744 H1730 0.960 . S
C1744 H1731 0.960 . S
C1744 C1743 1.524 . S
C1745 C1742 1.403 . S
C1745 C1746 1.392 . S
C1745 C1749 1.495 . S
C1746 C1745 1.392 . S
C1746 C1747 1.385 . S
C1746 C1748 1.478 . S
C1747 H1741 0.930 . S
C1747 C1743 1.400 . S
C1747 C1746 1.385 . S
C1748 C1746 1.478 . S
C1748 C1750 1.381 . S
C1748 C1754 1.383 . S
C1749 C1745 1.495 . S
C1749 H1755 0.959 . S
C1749 H1756 0.961 . S
C1749 H1757 0.960 . S
C1750 C1748 1.381 . S
C1750 C1751 1.394 . S
C1750 H1758 0.930 . S
C1751 C1750 1.394 . S
C1751 C1752 1.383 . S
C1751 H1759 0.929 . S
C1752 C1751 1.383 . S
C1752 C1753 1.377 . S
C1753 H1737 0.930 . S
C1753 C1752 1.377 . S
C1753 C1754 1.379 . S
C1754 H1738 0.931 . S
C1754 C1748 1.383 . S
C1754 C1753 1.379 . S
H1755 C1749 0.959 . S
H1756 C1749 0.961 . S
H1757 C1749 0.960 . S
H1758 C1750 0.930 . S
H1759 C1751 0.929 . S
H1760 C1768 0.929 . S
H1761 C1770 0.930 . S
H1762 C1772 0.930 . S
H1763 C1775 0.929 . S
H1764 C1778 0.930 . S
H1765 C1780 0.960 . S
H1766 C1780 0.960 . S
H1767 C1780 0.960 . S
C1768 H1760 0.929 . S
C1768 C1769 1.377 . S
C1768 C1770 1.384 . S
C1769 C1768 1.377 . S
C1769 C1775 1.390 . S
C1770 H1761 0.930 . S
C1770 C1768 1.384 . S
C1770 C1771 1.372 . S
C1771 C1770 1.372 . S
C1771 C1772 1.400 . S
C1771 C1776 1.490 . S
C1772 H1762 0.930 . S
C1772 C1771 1.400 . S
C1772 C1775 1.386 . S
H1773 C1789 0.930 . S
H1774 C1790 0.931 . S
C1775 H1763 0.929 . S
C1775 C1769 1.390 . S
C1775 C1772 1.386 . S
C1776 C1771 1.490 . S
C1776 C1778 1.395 . S
C1776 C1779 1.403 . S
H1777 C1783 0.930 . S
C1778 H1764 0.930 . S
C1778 C1776 1.395 . S
C1778 C1781 1.403 . S
C1779 C1776 1.403 . S
C1779 C1780 1.524 . S
C1779 C1783 1.400 . S
C1780 H1765 0.960 . S
C1780 H1766 0.960 . S
C1780 H1767 0.960 . S
C1780 C1779 1.524 . S
C1781 C1778 1.403 . S
C1781 C1782 1.392 . S
C1781 C1785 1.495 . S
C1782 C1781 1.392 . S
C1782 C1783 1.385 . S
C1782 C1784 1.478 . S
C1783 H1777 0.930 . S
C1783 C1779 1.400 . S
C1783 C1782 1.385 . S
C1784 C1782 1.478 . S
C1784 C1786 1.381 . S
C1784 C1790 1.383 . S
C1785 C1781 1.495 . S
C1785 H1791 0.959 . S
C1785 H1792 0.961 . S
C1785 H1793 0.960 . S
C1786 C1784 1.381 . S
C1786 C1787 1.394 . S
C1786 H1794 0.930 . S
C1787 C1786 1.394 . S
C1787 C1788 1.383 . S
C1787 H1795 0.929 . S
C1788 C1787 1.383 . S
C1788 C1789 1.377 . S
C1789 H1773 0.930 . S
C1789 C1788 1.377 . S
C1789 C1790 1.379 . S
C1790 H1774 0.931 . S
C1790 C1784 1.383 . S
C1790 C1789 1.379 . S
H1791 C1785 0.959 . S
H1792 C1785 0.961 . S
H1793 C1785 0.960 . S
H1794 C1786 0.930 . S
H1795 C1787 0.929 . S
H1796 C1804 0.929 . S
H1797 C1806 0.930 . S
H1798 C1808 0.930 . S
H1799 C1811 0.929 . S
H1800 C1814 0.930 . S
H1801 C1816 0.960 . S
H1802 C1816 0.960 . S
H1803 C1816 0.960 . S
C1804 H1796 0.929 . S
C1804 C1805 1.377 . S
C1804 C1806 1.384 . S
C1805 C1804 1.377 . S
C1805 C1811 1.390 . S
C1806 H1797 0.930 . S
C1806 C1804 1.384 . S
C1806 C1807 1.372 . S
C1807 C1806 1.372 . S
C1807 C1808 1.400 . S
C1807 C1812 1.490 . S
C1808 H1798 0.930 . S
C1808 C1807 1.400 . S
C1808 C1811 1.386 . S
H1809 C1825 0.930 . S
H1810 C1826 0.931 . S
C1811 H1799 0.929 . S
C1811 C1805 1.390 . S
C1811 C1808 1.386 . S
C1812 C1807 1.490 . S
C1812 C1814 1.395 . S
C1812 C1815 1.403 . S
H1813 C1819 0.930 . S
C1814 H1800 0.930 . S
C1814 C1812 1.395 . S
C1814 C1817 1.403 . S
C1815 C1812 1.403 . S
C1815 C1816 1.524 . S
C1815 C1819 1.400 . S
C1816 H1801 0.960 . S
C1816 H1802 0.960 . S
C1816 H1803 0.960 . S
C1816 C1815 1.524 . S
C1817 C1814 1.403 . S
C1817 C1818 1.392 . S
C1817 C1821 1.495 . S
C1818 C1817 1.392 . S
C1818 C1819 1.385 . S
C1818 C1820 1.478 . S
C1819 H1813 0.930 . S
C1819 C1815 1.400 . S
C1819 C1818 1.385 . S
C1820 C1818 1.478 . S
C1820 C1822 1.381 . S
C1820 C1826 1.383 . S
C1821 C1817 1.495 . S
C1821 H1827 0.959 . S
C1821 H1828 0.961 . S
C1821 H1829 0.960 . S
C1822 C1820 1.381 . S
C1822 C1823 1.394 . S
C1822 H1830 0.930 . S
C1823 C1822 1.394 . S
C1823 C1824 1.383 . S
C1823 H1831 0.929 . S
C1824 C1823 1.383 . S
C1824 C1825 1.377 . S
C1825 H1809 0.930 . S
C1825 C1824 1.377 . S
C1825 C1826 1.379 . S
C1826 H1810 0.931 . S
C1826 C1820 1.383 . S
C1826 C1825 1.379 . S
H1827 C1821 0.959 . S
H1828 C1821 0.961 . S
H1829 C1821 0.960 . S
H1830 C1822 0.930 . S
H1831 C1823 0.929 . S
H1832 C1840 0.929 . S
H1833 C1842 0.930 . S
H1834 C1844 0.930 . S
H1835 C1847 0.929 . S
H1836 C1850 0.930 . S
H1837 C1852 0.960 . S
H1838 C1852 0.960 . S
H1839 C1852 0.960 . S
C1840 H1832 0.929 . S
C1840 C1841 1.377 . S
C1840 C1842 1.384 . S
C1841 C1840 1.377 . S
C1841 C1847 1.390 . S
C1842 H1833 0.930 . S
C1842 C1840 1.384 . S
C1842 C1843 1.372 . S
C1843 C1842 1.372 . S
C1843 C1844 1.400 . S
C1843 C1848 1.490 . S
C1844 H1834 0.930 . S
C1844 C1843 1.400 . S
C1844 C1847 1.386 . S
H1845 C1861 0.930 . S
H1846 C1862 0.931 . S
C1847 H1835 0.929 . S
C1847 C1841 1.390 . S
C1847 C1844 1.386 . S
C1848 C1843 1.490 . S
C1848 C1850 1.395 . S
C1848 C1851 1.403 . S
H1849 C1855 0.930 . S
C1850 H1836 0.930 . S
C1850 C1848 1.395 . S
C1850 C1853 1.403 . S
C1851 C1848 1.403 . S
C1851 C1852 1.524 . S
C1851 C1855 1.400 . S
C1852 H1837 0.960 . S
C1852 H1838 0.960 . S
C1852 H1839 0.960 . S
C1852 C1851 1.524 . S
C1853 C1850 1.403 . S
C1853 C1854 1.392 . S
C1853 C1857 1.495 1_554 S
C1854 C1853 1.392 . S
C1854 C1855 1.385 . S
C1854 C1856 1.478 1_554 S
C1855 H1849 0.930 . S
C1855 C1851 1.400 . S
C1855 C1854 1.385 . S
C1856 C1854 1.478 1_556 S
C1856 C1858 1.381 . S
C1856 C1862 1.383 . S
C1857 C1853 1.495 1_556 S
C1857 H1863 0.959 . S
C1857 H1864 0.961 . S
C1857 H1865 0.960 . S
C1858 C1856 1.381 . S
C1858 C1859 1.394 . S
C1858 H1866 0.930 . S
C1859 C1858 1.394 . S
C1859 C1860 1.383 . S
C1859 H1867 0.929 . S
C1860 C1859 1.383 . S
C1860 C1861 1.377 . S
C1861 H1845 0.930 . S
C1861 C1860 1.377 . S
C1861 C1862 1.379 . S
C1862 H1846 0.931 . S
C1862 C1856 1.383 . S
C1862 C1861 1.379 . S
H1863 C1857 0.959 . S
H1864 C1857 0.961 . S
H1865 C1857 0.960 . S
H1866 C1858 0.930 . S
H1867 C1859 0.929 . S
H1868 C1876 0.929 . S
H1869 C1878 0.930 . S
H1870 C1880 0.930 . S
H1871 C1883 0.929 . S
H1872 C1886 0.930 . S
H1873 C1888 0.960 . S
H1874 C1888 0.960 . S
H1875 C1888 0.960 . S
C1876 H1868 0.929 . S
C1876 C1877 1.377 . S
C1876 C1878 1.384 . S
C1877 C1876 1.377 . S
C1877 C1883 1.390 . S
C1878 H1869 0.930 . S
C1878 C1876 1.384 . S
C1878 C1879 1.372 . S
C1879 C1878 1.372 . S
C1879 C1880 1.400 . S
C1879 C1884 1.490 . S
C1880 H1870 0.930 . S
C1880 C1879 1.400 . S
C1880 C1883 1.386 . S
H1881 C1897 0.930 . S
H1882 C1898 0.931 . S
C1883 H1871 0.929 . S
C1883 C1877 1.390 . S
C1883 C1880 1.386 . S
C1884 C1879 1.490 . S
C1884 C1886 1.395 . S
C1884 C1887 1.403 . S
H1885 C1891 0.930 . S
C1886 H1872 0.930 . S
C1886 C1884 1.395 . S
C1886 C1889 1.403 . S
C1887 C1884 1.403 . S
C1887 C1888 1.524 . S
C1887 C1891 1.400 . S
C1888 H1873 0.960 . S
C1888 H1874 0.960 . S
C1888 H1875 0.960 . S
C1888 C1887 1.524 . S
C1889 C1886 1.403 . S
C1889 C1890 1.392 . S
C1889 C1893 1.495 . S
C1890 C1889 1.392 . S
C1890 C1891 1.385 . S
C1890 C1892 1.478 . S
C1891 H1885 0.930 . S
C1891 C1887 1.400 . S
C1891 C1890 1.385 . S
C1892 C1890 1.478 . S
C1892 C1894 1.381 . S
C1892 C1898 1.383 . S
C1893 C1889 1.495 . S
C1893 H1899 0.959 . S
C1893 H1900 0.961 . S
C1893 H1901 0.960 . S
C1894 C1892 1.381 . S
C1894 C1895 1.394 . S
C1894 H1902 0.930 . S
C1895 C1894 1.394 . S
C1895 C1896 1.383 . S
C1895 H1903 0.929 . S
C1896 C1895 1.383 . S
C1896 C1897 1.377 . S
C1897 H1881 0.930 . S
C1897 C1896 1.377 . S
C1897 C1898 1.379 . S
C1898 H1882 0.931 . S
C1898 C1892 1.383 . S
C1898 C1897 1.379 . S
H1899 C1893 0.959 . S
H1900 C1893 0.961 . S
H1901 C1893 0.960 . S
H1902 C1894 0.930 . S
H1903 C1895 0.929 . S
H1904 C1912 0.929 . S
H1905 C1914 0.930 . S
H1906 C1916 0.930 . S
H1907 C1919 0.929 . S
H1908 C1922 0.930 . S
H1909 C1924 0.960 . S
H1910 C1924 0.960 . S
H1911 C1924 0.960 . S
C1912 H1904 0.929 . S
C1912 C1913 1.377 . S
C1912 C1914 1.384 . S
C1913 C1912 1.377 . S
C1913 C1919 1.390 . S
C1914 H1905 0.930 . S
C1914 C1912 1.384 . S
C1914 C1915 1.372 . S
C1915 C1914 1.372 . S
C1915 C1916 1.400 . S
C1915 C1920 1.490 . S
C1916 H1906 0.930 . S
C1916 C1915 1.400 . S
C1916 C1919 1.386 . S
H1917 C1933 0.930 . S
H1918 C1934 0.931 . S
C1919 H1907 0.929 . S
C1919 C1913 1.390 . S
C1919 C1916 1.386 . S
C1920 C1915 1.490 . S
C1920 C1922 1.395 . S
C1920 C1923 1.403 . S
H1921 C1927 0.930 . S
C1922 H1908 0.930 . S
C1922 C1920 1.395 . S
C1922 C1925 1.403 . S
C1923 C1920 1.403 . S
C1923 C1924 1.524 . S
C1923 C1927 1.400 . S
C1924 H1909 0.960 . S
C1924 H1910 0.960 . S
C1924 H1911 0.960 . S
C1924 C1923 1.524 . S
C1925 C1922 1.403 . S
C1925 C1926 1.392 . S
C1925 C1929 1.495 . S
C1926 C1925 1.392 . S
C1926 C1927 1.385 . S
C1926 C1928 1.478 . S
C1927 H1921 0.930 . S
C1927 C1923 1.400 . S
C1927 C1926 1.385 . S
C1928 C1926 1.478 . S
C1928 C1930 1.381 . S
C1928 C1934 1.383 . S
C1929 C1925 1.495 . S
C1929 H1935 0.959 . S
C1929 H1936 0.961 . S
C1929 H1937 0.960 . S
C1930 C1928 1.381 . S
C1930 C1931 1.394 . S
C1930 H1938 0.930 . S
C1931 C1930 1.394 . S
C1931 C1932 1.383 . S
C1931 H1939 0.929 . S
C1932 C1931 1.383 . S
C1932 C1933 1.377 . S
C1933 H1917 0.930 . S
C1933 C1932 1.377 . S
C1933 C1934 1.379 . S
C1934 H1918 0.931 . S
C1934 C1928 1.383 . S
C1934 C1933 1.379 . S
H1935 C1929 0.959 . S
H1936 C1929 0.961 . S
H1937 C1929 0.960 . S
H1938 C1930 0.930 . S
H1939 C1931 0.929 . S
H1940 C1948 0.929 . S
H1941 C1950 0.930 . S
H1942 C1952 0.930 . S
H1943 C1955 0.929 . S
H1944 C1958 0.930 . S
H1945 C1960 0.960 . S
H1946 C1960 0.960 . S
H1947 C1960 0.960 . S
C1948 H1940 0.929 . S
C1948 C1949 1.377 . S
C1948 C1950 1.384 . S
C1949 C1948 1.377 . S
C1949 C1955 1.390 . S
C1950 H1941 0.930 . S
C1950 C1948 1.384 . S
C1950 C1951 1.372 . S
C1951 C1950 1.372 . S
C1951 C1952 1.400 . S
C1951 C1956 1.490 . S
C1952 H1942 0.930 . S
C1952 C1951 1.400 . S
C1952 C1955 1.386 . S
H1953 C1969 0.930 . S
H1954 C1970 0.931 . S
C1955 H1943 0.929 . S
C1955 C1949 1.390 . S
C1955 C1952 1.386 . S
C1956 C1951 1.490 . S
C1956 C1958 1.395 . S
C1956 C1959 1.403 . S
H1957 C1963 0.930 . S
C1958 H1944 0.930 . S
C1958 C1956 1.395 . S
C1958 C1961 1.403 . S
C1959 C1956 1.403 . S
C1959 C1960 1.524 . S
C1959 C1963 1.400 . S
C1960 H1945 0.960 . S
C1960 H1946 0.960 . S
C1960 H1947 0.960 . S
C1960 C1959 1.524 . S
C1961 C1958 1.403 . S
C1961 C1962 1.392 . S
C1961 C1965 1.495 . S
C1962 C1961 1.392 . S
C1962 C1963 1.385 . S
C1962 C1964 1.478 . S
C1963 H1957 0.930 . S
C1963 C1959 1.400 . S
C1963 C1962 1.385 . S
C1964 C1962 1.478 . S
C1964 C1966 1.381 . S
C1964 C1970 1.383 . S
C1965 C1961 1.495 . S
C1965 H1971 0.959 . S
C1965 H1972 0.961 . S
C1965 H1973 0.960 . S
C1966 C1964 1.381 . S
C1966 C1967 1.394 . S
C1966 H1974 0.930 . S
C1967 C1966 1.394 . S
C1967 C1968 1.383 . S
C1967 H1975 0.929 . S
C1968 C1967 1.383 . S
C1968 C1969 1.377 . S
C1969 H1953 0.930 . S
C1969 C1968 1.377 . S
C1969 C1970 1.379 . S
C1970 H1954 0.931 . S
C1970 C1964 1.383 . S
C1970 C1969 1.379 . S
H1971 C1965 0.959 . S
H1972 C1965 0.961 . S
H1973 C1965 0.960 . S
H1974 C1966 0.930 . S
H1975 C1967 0.929 . S
H1976 C1984 0.929 . S
H1977 C1986 0.930 . S
H1978 C1988 0.930 . S
H1979 C1991 0.929 . S
H1980 C1994 0.930 . S
H1981 C1996 0.960 . S
H1982 C1996 0.960 . S
H1983 C1996 0.960 . S
C1984 H1976 0.929 . S
C1984 C1985 1.377 . S
C1984 C1986 1.384 . S
C1985 C1984 1.377 . S
C1985 C1991 1.390 . S
C1986 H1977 0.930 . S
C1986 C1984 1.384 . S
C1986 C1987 1.372 . S
C1987 C1986 1.372 . S
C1987 C1988 1.400 . S
C1987 C1992 1.490 . S
C1988 H1978 0.930 . S
C1988 C1987 1.400 . S
C1988 C1991 1.386 . S
H1989 C2005 0.930 . S
H1990 C2006 0.931 . S
C1991 H1979 0.929 . S
C1991 C1985 1.390 . S
C1991 C1988 1.386 . S
C1992 C1987 1.490 . S
C1992 C1994 1.395 . S
C1992 C1995 1.403 . S
H1993 C1999 0.930 . S
C1994 H1980 0.930 . S
C1994 C1992 1.395 . S
C1994 C1997 1.403 . S
C1995 C1992 1.403 . S
C1995 C1996 1.524 . S
C1995 C1999 1.400 . S
C1996 H1981 0.960 . S
C1996 H1982 0.960 . S
C1996 H1983 0.960 . S
C1996 C1995 1.524 . S
C1997 C1994 1.403 . S
C1997 C1998 1.392 . S
C1997 C2001 1.495 . S
C1998 C1997 1.392 . S
C1998 C1999 1.385 . S
C1998 C2000 1.478 . S
C1999 H1993 0.930 . S
C1999 C1995 1.400 . S
C1999 C1998 1.385 . S
C2000 C1998 1.478 . S
C2000 C2002 1.381 . S
C2000 C2006 1.383 . S
C2001 C1997 1.495 . S
C2001 H2007 0.959 . S
C2001 H2008 0.961 . S
C2001 H2009 0.960 . S
C2002 C2000 1.381 . S
C2002 C2003 1.394 . S
C2002 H2010 0.930 . S
C2003 C2002 1.394 . S
C2003 C2004 1.383 . S
C2003 H2011 0.929 . S
C2004 C2003 1.383 . S
C2004 C2005 1.377 . S
C2005 H1989 0.930 . S
C2005 C2004 1.377 . S
C2005 C2006 1.379 . S
C2006 H1990 0.931 . S
C2006 C2000 1.383 . S
C2006 C2005 1.379 . S
H2007 C2001 0.959 . S
H2008 C2001 0.961 . S
H2009 C2001 0.960 . S
H2010 C2002 0.930 . S
H2011 C2003 0.929 . S
H2012 C2020 0.929 . S
H2013 C2022 0.930 . S
H2014 C2024 0.930 . S
H2015 C2027 0.929 . S
H2016 C2030 0.930 . S
H2017 C2032 0.960 . S
H2018 C2032 0.960 . S
H2019 C2032 0.960 . S
C2020 H2012 0.929 . S
C2020 C2021 1.377 . S
C2020 C2022 1.384 . S
C2021 C2020 1.377 . S
C2021 C2027 1.390 . S
C2022 H2013 0.930 . S
C2022 C2020 1.384 . S
C2022 C2023 1.372 . S
C2023 C2022 1.372 . S
C2023 C2024 1.400 . S
C2023 C2028 1.490 . S
C2024 H2014 0.930 . S
C2024 C2023 1.400 . S
C2024 C2027 1.386 . S
H2025 C2041 0.930 . S
H2026 C2042 0.931 . S
C2027 H2015 0.929 . S
C2027 C2021 1.390 . S
C2027 C2024 1.386 . S
C2028 C2023 1.490 . S
C2028 C2030 1.395 . S
C2028 C2031 1.403 . S
H2029 C2035 0.930 . S
C2030 H2016 0.930 . S
C2030 C2028 1.395 . S
C2030 C2033 1.403 . S
C2031 C2028 1.403 . S
C2031 C2032 1.524 . S
C2031 C2035 1.400 . S
C2032 H2017 0.960 . S
C2032 H2018 0.960 . S
C2032 H2019 0.960 . S
C2032 C2031 1.524 . S
C2033 C2030 1.403 . S
C2033 C2034 1.392 . S
C2033 C2037 1.495 . S
C2034 C2033 1.392 . S
C2034 C2035 1.385 . S
C2034 C2036 1.478 . S
C2035 H2029 0.930 . S
C2035 C2031 1.400 . S
C2035 C2034 1.385 . S
C2036 C2034 1.478 . S
C2036 C2038 1.381 . S
C2036 C2042 1.383 . S
C2037 C2033 1.495 . S
C2037 H2043 0.959 . S
C2037 H2044 0.961 . S
C2037 H2045 0.960 . S
C2038 C2036 1.381 . S
C2038 C2039 1.394 . S
C2038 H2046 0.930 . S
C2039 C2038 1.394 . S
C2039 C2040 1.383 . S
C2039 H2047 0.929 . S
C2040 C2039 1.383 . S
C2040 C2041 1.377 . S
C2041 H2025 0.930 . S
C2041 C2040 1.377 . S
C2041 C2042 1.379 . S
C2042 H2026 0.931 . S
C2042 C2036 1.383 . S
C2042 C2041 1.379 . S
H2043 C2037 0.959 . S
H2044 C2037 0.961 . S
H2045 C2037 0.960 . S
H2046 C2038 0.930 . S
H2047 C2039 0.929 . S
H2048 C2056 0.929 . S
H2049 C2058 0.930 . S
H2050 C2060 0.930 . S
H2051 C2063 0.929 . S
H2052 C2066 0.930 . S
H2053 C2068 0.960 . S
H2054 C2068 0.960 . S
H2055 C2068 0.960 . S
C2056 H2048 0.929 . S
C2056 C2057 1.377 . S
C2056 C2058 1.384 . S
C2057 C2056 1.377 . S
C2057 C2063 1.390 . S
C2058 H2049 0.930 . S
C2058 C2056 1.384 . S
C2058 C2059 1.372 . S
C2059 C2058 1.372 . S
C2059 C2060 1.400 . S
C2059 C2064 1.490 . S
C2060 H2050 0.930 . S
C2060 C2059 1.400 . S
C2060 C2063 1.386 . S
H2061 C2077 0.930 . S
H2062 C2078 0.931 . S
C2063 H2051 0.929 . S
C2063 C2057 1.390 . S
C2063 C2060 1.386 . S
C2064 C2059 1.490 . S
C2064 C2066 1.395 . S
C2064 C2067 1.403 . S
H2065 C2071 0.930 . S
C2066 H2052 0.930 . S
C2066 C2064 1.395 . S
C2066 C2069 1.403 . S
C2067 C2064 1.403 . S
C2067 C2068 1.524 . S
C2067 C2071 1.400 . S
C2068 H2053 0.960 . S
C2068 H2054 0.960 . S
C2068 H2055 0.960 . S
C2068 C2067 1.524 . S
C2069 C2066 1.403 . S
C2069 C2070 1.392 . S
C2069 C2073 1.495 . S
C2070 C2069 1.392 . S
C2070 C2071 1.385 . S
C2070 C2072 1.478 . S
C2071 H2065 0.930 . S
C2071 C2067 1.400 . S
C2071 C2070 1.385 . S
C2072 C2070 1.478 . S
C2072 C2074 1.381 . S
C2072 C2078 1.383 . S
C2073 C2069 1.495 . S
C2073 H2079 0.959 . S
C2073 H2080 0.961 . S
C2073 H2081 0.960 . S
C2074 C2072 1.381 . S
C2074 C2075 1.394 . S
C2074 H2082 0.930 . S
C2075 C2074 1.394 . S
C2075 C2076 1.383 . S
C2075 H2083 0.929 . S
C2076 C2075 1.383 . S
C2076 C2077 1.377 . S
C2077 H2061 0.930 . S
C2077 C2076 1.377 . S
C2077 C2078 1.379 . S
C2078 H2062 0.931 . S
C2078 C2072 1.383 . S
C2078 C2077 1.379 . S
H2079 C2073 0.959 . S
H2080 C2073 0.961 . S
H2081 C2073 0.960 . S
H2082 C2074 0.930 . S
H2083 C2075 0.929 . S
H2084 C2092 0.929 . S
H2085 C2094 0.930 . S
H2086 C2096 0.930 . S
H2087 C2099 0.929 . S
H2088 C2102 0.930 . S
H2089 C2104 0.960 . S
H2090 C2104 0.960 . S
H2091 C2104 0.960 . S
C2092 H2084 0.929 . S
C2092 C2093 1.377 . S
C2092 C2094 1.384 . S
C2093 C2092 1.377 . S
C2093 C2099 1.390 . S
C2094 H2085 0.930 . S
C2094 C2092 1.384 . S
C2094 C2095 1.372 . S
C2095 C2094 1.372 . S
C2095 C2096 1.400 . S
C2095 C2100 1.490 . S
C2096 H2086 0.930 . S
C2096 C2095 1.400 . S
C2096 C2099 1.386 . S
H2097 C2113 0.930 . S
H2098 C2114 0.931 . S
C2099 H2087 0.929 . S
C2099 C2093 1.390 . S
C2099 C2096 1.386 . S
C2100 C2095 1.490 . S
C2100 C2102 1.395 . S
C2100 C2103 1.403 . S
H2101 C2107 0.930 . S
C2102 H2088 0.930 . S
C2102 C2100 1.395 . S
C2102 C2105 1.403 . S
C2103 C2100 1.403 . S
C2103 C2104 1.524 . S
C2103 C2107 1.400 . S
C2104 H2089 0.960 . S
C2104 H2090 0.960 . S
C2104 H2091 0.960 . S
C2104 C2103 1.524 . S
C2105 C2102 1.403 . S
C2105 C2106 1.392 . S
C2105 C2109 1.495 . S
C2106 C2105 1.392 . S
C2106 C2107 1.385 . S
C2106 C2108 1.478 . S
C2107 H2101 0.930 . S
C2107 C2103 1.400 . S
C2107 C2106 1.385 . S
C2108 C2106 1.478 . S
C2108 C2110 1.381 . S
C2108 C2114 1.383 . S
C2109 C2105 1.495 . S
C2109 H2115 0.959 . S
C2109 H2116 0.961 . S
C2109 H2117 0.960 . S
C2110 C2108 1.381 . S
C2110 C2111 1.394 . S
C2110 H2118 0.930 . S
C2111 C2110 1.394 . S
C2111 C2112 1.383 . S
C2111 H2119 0.929 . S
C2112 C2111 1.383 . S
C2112 C2113 1.377 . S
C2113 H2097 0.930 . S
C2113 C2112 1.377 . S
C2113 C2114 1.379 . S
C2114 H2098 0.931 . S
C2114 C2108 1.383 . S
C2114 C2113 1.379 . S
H2115 C2109 0.959 . S
H2116 C2109 0.961 . S
H2117 C2109 0.960 . S
H2118 C2110 0.930 . S
H2119 C2111 0.929 . S
H2120 C2128 0.929 . S
H2121 C2130 0.930 . S
H2122 C2132 0.930 . S
H2123 C2135 0.929 . S
H2124 C2138 0.930 . S
H2125 C2140 0.960 . S
H2126 C2140 0.960 . S
H2127 C2140 0.960 . S
C2128 H2120 0.929 . S
C2128 C2129 1.377 . S
C2128 C2130 1.384 . S
C2129 C2128 1.377 . S
C2129 C2135 1.390 . S
C2130 H2121 0.930 . S
C2130 C2128 1.384 . S
C2130 C2131 1.372 . S
C2131 C2130 1.372 . S
C2131 C2132 1.400 . S
C2131 C2136 1.490 . S
C2132 H2122 0.930 . S
C2132 C2131 1.400 . S
C2132 C2135 1.386 . S
H2133 C2149 0.930 . S
H2134 C2150 0.931 . S
C2135 H2123 0.929 . S
C2135 C2129 1.390 . S
C2135 C2132 1.386 . S
C2136 C2131 1.490 . S
C2136 C2138 1.395 . S
C2136 C2139 1.403 . S
H2137 C2143 0.930 . S
C2138 H2124 0.930 . S
C2138 C2136 1.395 . S
C2138 C2141 1.403 . S
C2139 C2136 1.403 . S
C2139 C2140 1.524 . S
C2139 C2143 1.400 . S
C2140 H2125 0.960 . S
C2140 H2126 0.960 . S
C2140 H2127 0.960 . S
C2140 C2139 1.524 . S
C2141 C2138 1.403 . S
C2141 C2142 1.392 . S
C2141 C2145 1.495 . S
C2142 C2141 1.392 . S
C2142 C2143 1.385 . S
C2142 C2144 1.478 . S
C2143 H2137 0.930 . S
C2143 C2139 1.400 . S
C2143 C2142 1.385 . S
C2144 C2142 1.478 . S
C2144 C2146 1.381 . S
C2144 C2150 1.383 . S
C2145 C2141 1.495 . S
C2145 H2151 0.959 . S
C2145 H2152 0.961 . S
C2145 H2153 0.960 . S
C2146 C2144 1.381 . S
C2146 C2147 1.394 . S
C2146 H2154 0.930 . S
C2147 C2146 1.394 . S
C2147 C2148 1.383 . S
C2147 H2155 0.929 . S
C2148 C2147 1.383 . S
C2148 C2149 1.377 . S
C2149 H2133 0.930 . S
C2149 C2148 1.377 . S
C2149 C2150 1.379 . S
C2150 H2134 0.931 . S
C2150 C2144 1.383 . S
C2150 C2149 1.379 . S
H2151 C2145 0.959 . S
H2152 C2145 0.961 . S
H2153 C2145 0.960 . S
H2154 C2146 0.930 . S
H2155 C2147 0.929 . S
H2156 C2164 0.929 . S
H2157 C2166 0.930 . S
H2158 C2168 0.930 . S
H2159 C2171 0.929 . S
H2160 C2174 0.930 . S
H2161 C2176 0.960 . S
H2162 C2176 0.960 . S
H2163 C2176 0.960 . S
C2164 H2156 0.929 . S
C2164 C2165 1.377 . S
C2164 C2166 1.384 . S
C2165 C2164 1.377 . S
C2165 C2171 1.390 . S
C2166 H2157 0.930 . S
C2166 C2164 1.384 . S
C2166 C2167 1.372 . S
C2167 C2166 1.372 . S
C2167 C2168 1.400 . S
C2167 C2172 1.490 . S
C2168 H2158 0.930 . S
C2168 C2167 1.400 . S
C2168 C2171 1.386 . S
H2169 C2185 0.930 . S
H2170 C2186 0.931 . S
C2171 H2159 0.929 . S
C2171 C2165 1.390 . S
C2171 C2168 1.386 . S
C2172 C2167 1.490 . S
C2172 C2174 1.395 . S
C2172 C2175 1.403 . S
H2173 C2179 0.930 . S
C2174 H2160 0.930 . S
C2174 C2172 1.395 . S
C2174 C2177 1.403 . S
C2175 C2172 1.403 . S
C2175 C2176 1.524 . S
C2175 C2179 1.400 . S
C2176 H2161 0.960 . S
C2176 H2162 0.960 . S
C2176 H2163 0.960 . S
C2176 C2175 1.524 . S
C2177 C2174 1.403 . S
C2177 C2178 1.392 . S
C2177 C2181 1.495 . S
C2178 C2177 1.392 . S
C2178 C2179 1.385 . S
C2178 C2180 1.478 . S
C2179 H2173 0.930 . S
C2179 C2175 1.400 . S
C2179 C2178 1.385 . S
C2180 C2178 1.478 . S
C2180 C2182 1.381 . S
C2180 C2186 1.383 . S
C2181 C2177 1.495 . S
C2181 H2187 0.959 . S
C2181 H2188 0.961 . S
C2181 H2189 0.960 . S
C2182 C2180 1.381 . S
C2182 C2183 1.394 . S
C2182 H2190 0.930 . S
C2183 C2182 1.394 . S
C2183 C2184 1.383 . S
C2183 H2191 0.929 . S
C2184 C2183 1.383 . S
C2184 C2185 1.377 . S
C2185 H2169 0.930 . S
C2185 C2184 1.377 . S
C2185 C2186 1.379 . S
C2186 H2170 0.931 . S
C2186 C2180 1.383 . S
C2186 C2185 1.379 . S
H2187 C2181 0.959 . S
H2188 C2181 0.961 . S
H2189 C2181 0.960 . S
H2190 C2182 0.930 . S
H2191 C2183 0.929 . S
H2192 C2200 0.929 . S
H2193 C2202 0.930 . S
H2194 C2204 0.930 . S
H2195 C2207 0.929 . S
H2196 C2210 0.930 . S
H2197 C2212 0.960 . S
H2198 C2212 0.960 . S
H2199 C2212 0.960 . S
C2200 H2192 0.929 . S
C2200 C2201 1.377 . S
C2200 C2202 1.384 . S
C2201 C2200 1.377 . S
C2201 C2207 1.390 . S
C2202 H2193 0.930 . S
C2202 C2200 1.384 . S
C2202 C2203 1.372 . S
C2203 C2202 1.372 . S
C2203 C2204 1.400 . S
C2203 C2208 1.490 . S
C2204 H2194 0.930 . S
C2204 C2203 1.400 . S
C2204 C2207 1.386 . S
H2205 C2221 0.930 . S
H2206 C2222 0.931 . S
C2207 H2195 0.929 . S
C2207 C2201 1.390 . S
C2207 C2204 1.386 . S
C2208 C2203 1.490 . S
C2208 C2210 1.395 . S
C2208 C2211 1.403 . S
H2209 C2215 0.930 . S
C2210 H2196 0.930 . S
C2210 C2208 1.395 . S
C2210 C2213 1.403 . S
C2211 C2208 1.403 . S
C2211 C2212 1.524 . S
C2211 C2215 1.400 . S
C2212 H2197 0.960 . S
C2212 H2198 0.960 . S
C2212 H2199 0.960 . S
C2212 C2211 1.524 . S
C2213 C2210 1.403 . S
C2213 C2214 1.392 . S
C2213 C2217 1.495 . S
C2214 C2213 1.392 . S
C2214 C2215 1.385 . S
C2214 C2216 1.478 . S
C2215 H2209 0.930 . S
C2215 C2211 1.400 . S
C2215 C2214 1.385 . S
C2216 C2214 1.478 . S
C2216 C2218 1.381 . S
C2216 C2222 1.383 . S
C2217 C2213 1.495 . S
C2217 H2223 0.959 . S
C2217 H2224 0.961 . S
C2217 H2225 0.960 . S
C2218 C2216 1.381 . S
C2218 C2219 1.394 . S
C2218 H2226 0.930 . S
C2219 C2218 1.394 . S
C2219 C2220 1.383 . S
C2219 H2227 0.929 . S
C2220 C2219 1.383 . S
C2220 C2221 1.377 . S
C2221 H2205 0.930 . S
C2221 C2220 1.377 . S
C2221 C2222 1.379 . S
C2222 H2206 0.931 . S
C2222 C2216 1.383 . S
C2222 C2221 1.379 . S
H2223 C2217 0.959 . S
H2224 C2217 0.961 . S
H2225 C2217 0.960 . S
H2226 C2218 0.930 . S
H2227 C2219 0.929 . S
H2228 C2236 0.929 . S
H2229 C2238 0.930 . S
H2230 C2240 0.930 . S
H2231 C2243 0.929 . S
H2232 C2246 0.930 . S
H2233 C2248 0.960 . S
H2234 C2248 0.960 . S
H2235 C2248 0.960 . S
C2236 H2228 0.929 . S
C2236 C2237 1.377 . S
C2236 C2238 1.384 . S
C2237 C2236 1.377 . S
C2237 C2243 1.390 . S
C2238 H2229 0.930 . S
C2238 C2236 1.384 . S
C2238 C2239 1.372 . S
C2239 C2238 1.372 . S
C2239 C2240 1.400 . S
C2239 C2244 1.490 . S
C2240 H2230 0.930 . S
C2240 C2239 1.400 . S
C2240 C2243 1.386 . S
H2241 C2257 0.930 . S
H2242 C2258 0.931 . S
C2243 H2231 0.929 . S
C2243 C2237 1.390 . S
C2243 C2240 1.386 . S
C2244 C2239 1.490 . S
C2244 C2246 1.395 . S
C2244 C2247 1.403 . S
H2245 C2251 0.930 . S
C2246 H2232 0.930 . S
C2246 C2244 1.395 . S
C2246 C2249 1.403 . S
C2247 C2244 1.403 . S
C2247 C2248 1.524 . S
C2247 C2251 1.400 . S
C2248 H2233 0.960 . S
C2248 H2234 0.960 . S
C2248 H2235 0.960 . S
C2248 C2247 1.524 . S
C2249 C2246 1.403 . S
C2249 C2250 1.392 . S
C2249 C2253 1.495 . S
C2250 C2249 1.392 . S
C2250 C2251 1.385 . S
C2250 C2252 1.478 . S
C2251 H2245 0.930 . S
C2251 C2247 1.400 . S
C2251 C2250 1.385 . S
C2252 C2250 1.478 . S
C2252 C2254 1.381 . S
C2252 C2258 1.383 . S
C2253 C2249 1.495 . S
C2253 H2259 0.959 . S
C2253 H2260 0.961 . S
C2253 H2261 0.960 . S
C2254 C2252 1.381 . S
C2254 C2255 1.394 . S
C2254 H2262 0.930 . S
C2255 C2254 1.394 . S
C2255 C2256 1.383 . S
C2255 H2263 0.929 . S
C2256 C2255 1.383 . S
C2256 C2257 1.377 . S
C2257 H2241 0.930 . S
C2257 C2256 1.377 . S
C2257 C2258 1.379 . S
C2258 H2242 0.931 . S
C2258 C2252 1.383 . S
C2258 C2257 1.379 . S
H2259 C2253 0.959 . S
H2260 C2253 0.961 . S
H2261 C2253 0.960 . S
H2262 C2254 0.930 . S
H2263 C2255 0.929 . S
H2264 C2272 0.929 . S
H2265 C2274 0.930 . S
H2266 C2276 0.930 . S
H2267 C2279 0.929 . S
H2268 C2282 0.930 . S
H2269 C2284 0.960 . S
H2270 C2284 0.960 . S
H2271 C2284 0.960 . S
C2272 H2264 0.929 . S
C2272 C2273 1.377 . S
C2272 C2274 1.384 . S
C2273 C2272 1.377 . S
C2273 C2279 1.390 . S
C2274 H2265 0.930 . S
C2274 C2272 1.384 . S
C2274 C2275 1.372 . S
C2275 C2274 1.372 . S
C2275 C2276 1.400 . S
C2275 C2280 1.490 . S
C2276 H2266 0.930 . S
C2276 C2275 1.400 . S
C2276 C2279 1.386 . S
H2277 C2293 0.930 . S
H2278 C2294 0.931 . S
C2279 H2267 0.929 . S
C2279 C2273 1.390 . S
C2279 C2276 1.386 . S
C2280 C2275 1.490 . S
C2280 C2282 1.395 . S
C2280 C2283 1.403 . S
H2281 C2287 0.930 . S
C2282 H2268 0.930 . S
C2282 C2280 1.395 . S
C2282 C2285 1.403 . S
C2283 C2280 1.403 . S
C2283 C2284 1.524 . S
C2283 C2287 1.400 . S
C2284 H2269 0.960 . S
C2284 H2270 0.960 . S
C2284 H2271 0.960 . S
C2284 C2283 1.524 . S
C2285 C2282 1.403 . S
C2285 C2286 1.392 . S
C2285 C2289 1.495 . S
C2286 C2285 1.392 . S
C2286 C2287 1.385 . S
C2286 C2288 1.478 . S
C2287 H2281 0.930 . S
C2287 C2283 1.400 . S
C2287 C2286 1.385 . S
C2288 C2286 1.478 . S
C2288 C2290 1.381 . S
C2288 C2294 1.383 . S
C2289 C2285 1.495 . S
C2289 H2295 0.959 . S
C2289 H2296 0.961 . S
C2289 H2297 0.960 . S
C2290 C2288 1.381 . S
C2290 C2291 1.394 . S
C2290 H2298 0.930 . S
C2291 C2290 1.394 . S
C2291 C2292 1.383 . S
C2291 H2299 0.929 . S
C2292 C2291 1.383 . S
C2292 C2293 1.377 . S
C2293 H2277 0.930 . S
C2293 C2292 1.377 . S
C2293 C2294 1.379 . S
C2294 H2278 0.931 . S
C2294 C2288 1.383 . S
C2294 C2293 1.379 . S
H2295 C2289 0.959 . S
H2296 C2289 0.961 . S
H2297 C2289 0.960 . S
H2298 C2290 0.930 . S
H2299 C2291 0.929 . S
H2300 C2308 0.929 . S
H2301 C2310 0.930 . S
H2302 C2312 0.930 . S
H2303 C2315 0.929 . S
H2304 C2318 0.930 . S
H2305 C2320 0.960 . S
H2306 C2320 0.960 . S
H2307 C2320 0.960 . S
C2308 H2300 0.929 . S
C2308 C2309 1.377 . S
C2308 C2310 1.384 . S
C2309 C2308 1.377 . S
C2309 C2315 1.390 . S
C2310 H2301 0.930 . S
C2310 C2308 1.384 . S
C2310 C2311 1.372 . S
C2311 C2310 1.372 . S
C2311 C2312 1.400 . S
C2311 C2316 1.490 . S
C2312 H2302 0.930 . S
C2312 C2311 1.400 . S
C2312 C2315 1.386 . S
H2313 C2329 0.930 . S
H2314 C2330 0.931 . S
C2315 H2303 0.929 . S
C2315 C2309 1.390 . S
C2315 C2312 1.386 . S
C2316 C2311 1.490 . S
C2316 C2318 1.395 . S
C2316 C2319 1.403 . S
H2317 C2323 0.930 . S
C2318 H2304 0.930 . S
C2318 C2316 1.395 . S
C2318 C2321 1.403 . S
C2319 C2316 1.403 . S
C2319 C2320 1.524 . S
C2319 C2323 1.400 . S
C2320 H2305 0.960 . S
C2320 H2306 0.960 . S
C2320 H2307 0.960 . S
C2320 C2319 1.524 . S
C2321 C2318 1.403 . S
C2321 C2322 1.392 . S
C2321 C2325 1.495 . S
C2322 C2321 1.392 . S
C2322 C2323 1.385 . S
C2322 C2324 1.478 . S
C2323 H2317 0.930 . S
C2323 C2319 1.400 . S
C2323 C2322 1.385 . S
C2324 C2322 1.478 . S
C2324 C2326 1.381 . S
C2324 C2330 1.383 . S
C2325 C2321 1.495 . S
C2325 H2331 0.959 . S
C2325 H2332 0.961 . S
C2325 H2333 0.960 . S
C2326 C2324 1.381 . S
C2326 C2327 1.394 . S
C2326 H2334 0.930 . S
C2327 C2326 1.394 . S
C2327 C2328 1.383 . S
C2327 H2335 0.929 . S
C2328 C2327 1.383 . S
C2328 C2329 1.377 . S
C2329 H2313 0.930 . S
C2329 C2328 1.377 . S
C2329 C2330 1.379 . S
C2330 H2314 0.931 . S
C2330 C2324 1.383 . S
C2330 C2329 1.379 . S
H2331 C2325 0.959 . S
H2332 C2325 0.961 . S
H2333 C2325 0.960 . S
H2334 C2326 0.930 . S
H2335 C2327 0.929 . S
H2336 C2344 0.929 . S
H2337 C2346 0.930 . S
H2338 C2348 0.930 . S
H2339 C2351 0.929 . S
H2340 C2354 0.930 . S
H2341 C2356 0.960 . S
H2342 C2356 0.960 . S
H2343 C2356 0.960 . S
C2344 H2336 0.929 . S
C2344 C2345 1.377 . S
C2344 C2346 1.384 . S
C2345 C2344 1.377 . S
C2345 C2351 1.390 . S
C2346 H2337 0.930 . S
C2346 C2344 1.384 . S
C2346 C2347 1.372 . S
C2347 C2346 1.372 . S
C2347 C2348 1.400 . S
C2347 C2352 1.490 . S
C2348 H2338 0.930 . S
C2348 C2347 1.400 . S
C2348 C2351 1.386 . S
H2349 C2365 0.930 . S
H2350 C2366 0.931 . S
C2351 H2339 0.929 . S
C2351 C2345 1.390 . S
C2351 C2348 1.386 . S
C2352 C2347 1.490 . S
C2352 C2354 1.395 . S
C2352 C2355 1.403 . S
H2353 C2359 0.930 . S
C2354 H2340 0.930 . S
C2354 C2352 1.395 . S
C2354 C2357 1.403 . S
C2355 C2352 1.403 . S
C2355 C2356 1.524 . S
C2355 C2359 1.400 . S
C2356 H2341 0.960 . S
C2356 H2342 0.960 . S
C2356 H2343 0.960 . S
C2356 C2355 1.524 . S
C2357 C2354 1.403 . S
C2357 C2358 1.392 . S
C2357 C2361 1.495 . S
C2358 C2357 1.392 . S
C2358 C2359 1.385 . S
C2358 C2360 1.478 . S
C2359 H2353 0.930 . S
C2359 C2355 1.400 . S
C2359 C2358 1.385 . S
C2360 C2358 1.478 . S
C2360 C2362 1.381 . S
C2360 C2366 1.383 . S
C2361 C2357 1.495 . S
C2361 H2367 0.959 . S
C2361 H2368 0.961 . S
C2361 H2369 0.960 . S
C2362 C2360 1.381 . S
C2362 C2363 1.394 . S
C2362 H2370 0.930 . S
C2363 C2362 1.394 . S
C2363 C2364 1.383 . S
C2363 H2371 0.929 . S
C2364 C2363 1.383 . S
C2364 C2365 1.377 . S
C2365 H2349 0.930 . S
C2365 C2364 1.377 . S
C2365 C2366 1.379 . S
C2366 H2350 0.931 . S
C2366 C2360 1.383 . S
C2366 C2365 1.379 . S
H2367 C2361 0.959 . S
H2368 C2361 0.961 . S
H2369 C2361 0.960 . S
H2370 C2362 0.930 . S
H2371 C2363 0.929 . S
H2372 C2380 0.929 . S
H2373 C2382 0.930 . S
H2374 C2384 0.930 . S
H2375 C2387 0.929 . S
H2376 C2390 0.930 . S
H2377 C2392 0.960 . S
H2378 C2392 0.960 . S
H2379 C2392 0.960 . S
C2380 H2372 0.929 . S
C2380 C2381 1.377 . S
C2380 C2382 1.384 . S
C2381 C2380 1.377 . S
C2381 C2387 1.390 . S
C2382 H2373 0.930 . S
C2382 C2380 1.384 . S
C2382 C2383 1.372 . S
C2383 C2382 1.372 . S
C2383 C2384 1.400 . S
C2383 C2388 1.490 . S
C2384 H2374 0.930 . S
C2384 C2383 1.400 . S
C2384 C2387 1.386 . S
H2385 C2401 0.930 . S
H2386 C2402 0.931 . S
C2387 H2375 0.929 . S
C2387 C2381 1.390 . S
C2387 C2384 1.386 . S
C2388 C2383 1.490 . S
C2388 C2390 1.395 . S
C2388 C2391 1.403 . S
H2389 C2395 0.930 . S
C2390 H2376 0.930 . S
C2390 C2388 1.395 . S
C2390 C2393 1.403 . S
C2391 C2388 1.403 . S
C2391 C2392 1.524 . S
C2391 C2395 1.400 . S
C2392 H2377 0.960 . S
C2392 H2378 0.960 . S
C2392 H2379 0.960 . S
C2392 C2391 1.524 . S
C2393 C2390 1.403 . S
C2393 C2394 1.392 . S
C2393 C2397 1.495 . S
C2394 C2393 1.392 . S
C2394 C2395 1.385 . S
C2394 C2396 1.478 . S
C2395 H2389 0.930 . S
C2395 C2391 1.400 . S
C2395 C2394 1.385 . S
C2396 C2394 1.478 . S
C2396 C2398 1.381 . S
C2396 C2402 1.383 . S
C2397 C2393 1.495 . S
C2397 H2403 0.959 . S
C2397 H2404 0.961 . S
C2397 H2405 0.960 . S
C2398 C2396 1.381 . S
C2398 C2399 1.394 . S
C2398 H2406 0.930 . S
C2399 C2398 1.394 . S
C2399 C2400 1.383 . S
C2399 H2407 0.929 . S
C2400 C2399 1.383 . S
C2400 C2401 1.377 . S
C2401 H2385 0.930 . S
C2401 C2400 1.377 . S
C2401 C2402 1.379 . S
C2402 H2386 0.931 . S
C2402 C2396 1.383 . S
C2402 C2401 1.379 . S
H2403 C2397 0.959 . S
H2404 C2397 0.961 . S
H2405 C2397 0.960 . S
H2406 C2398 0.930 . S
H2407 C2399 0.929 . S
H2408 C2416 0.929 . S
H2409 C2418 0.930 . S
H2410 C2420 0.930 . S
H2411 C2423 0.929 . S
H2412 C2426 0.930 . S
H2413 C2428 0.960 . S
H2414 C2428 0.960 . S
H2415 C2428 0.960 . S
C2416 H2408 0.929 . S
C2416 C2417 1.377 . S
C2416 C2418 1.384 . S
C2417 C2416 1.377 . S
C2417 C2423 1.390 . S
C2418 H2409 0.930 . S
C2418 C2416 1.384 . S
C2418 C2419 1.372 . S
C2419 C2418 1.372 . S
C2419 C2420 1.400 . S
C2419 C2424 1.490 . S
C2420 H2410 0.930 . S
C2420 C2419 1.400 . S
C2420 C2423 1.386 . S
H2421 C2437 0.930 . S
H2422 C2438 0.931 . S
C2423 H2411 0.929 . S
C2423 C2417 1.390 . S
C2423 C2420 1.386 . S
C2424 C2419 1.490 . S
C2424 C2426 1.395 . S
C2424 C2427 1.403 . S
H2425 C2431 0.930 . S
C2426 H2412 0.930 . S
C2426 C2424 1.395 . S
C2426 C2429 1.403 . S
C2427 C2424 1.403 . S
C2427 C2428 1.524 . S
C2427 C2431 1.400 . S
C2428 H2413 0.960 . S
C2428 H2414 0.960 . S
C2428 H2415 0.960 . S
C2428 C2427 1.524 . S
C2429 C2426 1.403 . S
C2429 C2430 1.392 . S
C2429 C2433 1.495 . S
C2430 C2429 1.392 . S
C2430 C2431 1.385 . S
C2430 C2432 1.478 . S
C2431 H2425 0.930 . S
C2431 C2427 1.400 . S
C2431 C2430 1.385 . S
C2432 C2430 1.478 . S
C2432 C2434 1.381 . S
C2432 C2438 1.383 . S
C2433 C2429 1.495 . S
C2433 H2439 0.959 . S
C2433 H2440 0.961 . S
C2433 H2441 0.960 . S
C2434 C2432 1.381 . S
C2434 C2435 1.394 . S
C2434 H2442 0.930 . S
C2435 C2434 1.394 . S
C2435 C2436 1.383 . S
C2435 H2443 0.929 . S
C2436 C2435 1.383 . S
C2436 C2437 1.377 . S
C2437 H2421 0.930 . S
C2437 C2436 1.377 . S
C2437 C2438 1.379 . S
C2438 H2422 0.931 . S
C2438 C2432 1.383 . S
C2438 C2437 1.379 . S
H2439 C2433 0.959 . S
H2440 C2433 0.961 . S
H2441 C2433 0.960 . S
H2442 C2434 0.930 . S
H2443 C2435 0.929 . S
H2444 C2452 0.929 . S
H2445 C2454 0.930 . S
H2446 C2456 0.930 . S
H2447 C2459 0.929 . S
H2448 C2462 0.930 . S
H2449 C2464 0.960 . S
H2450 C2464 0.960 . S
H2451 C2464 0.960 . S
C2452 H2444 0.929 . S
C2452 C2453 1.377 . S
C2452 C2454 1.384 . S
C2453 C2452 1.377 . S
C2453 C2459 1.390 . S
C2454 H2445 0.930 . S
C2454 C2452 1.384 . S
C2454 C2455 1.372 . S
C2455 C2454 1.372 . S
C2455 C2456 1.400 . S
C2455 C2460 1.490 . S
C2456 H2446 0.930 . S
C2456 C2455 1.400 . S
C2456 C2459 1.386 . S
H2457 C2473 0.930 . S
H2458 C2474 0.931 . S
C2459 H2447 0.929 . S
C2459 C2453 1.390 . S
C2459 C2456 1.386 . S
C2460 C2455 1.490 . S
C2460 C2462 1.395 . S
C2460 C2463 1.403 . S
H2461 C2467 0.930 . S
C2462 H2448 0.930 . S
C2462 C2460 1.395 . S
C2462 C2465 1.403 . S
C2463 C2460 1.403 . S
C2463 C2464 1.524 . S
C2463 C2467 1.400 . S
C2464 H2449 0.960 . S
C2464 H2450 0.960 . S
C2464 H2451 0.960 . S
C2464 C2463 1.524 . S
C2465 C2462 1.403 . S
C2465 C2466 1.392 . S
C2465 C2469 1.495 . S
C2466 C2465 1.392 . S
C2466 C2467 1.385 . S
C2466 C2468 1.478 . S
C2467 H2461 0.930 . S
C2467 C2463 1.400 . S
C2467 C2466 1.385 . S
C2468 C2466 1.478 . S
C2468 C2470 1.381 . S
C2468 C2474 1.383 . S
C2469 C2465 1.495 . S
C2469 H2475 0.959 . S
C2469 H2476 0.961 . S
C2469 H2477 0.960 . S
C2470 C2468 1.381 . S
C2470 C2471 1.394 . S
C2470 H2478 0.930 . S
C2471 C2470 1.394 . S
C2471 C2472 1.383 . S
C2471 H2479 0.929 . S
C2472 C2471 1.383 . S
C2472 C2473 1.377 . S
C2473 H2457 0.930 . S
C2473 C2472 1.377 . S
C2473 C2474 1.379 . S
C2474 H2458 0.931 . S
C2474 C2468 1.383 . S
C2474 C2473 1.379 . S
H2475 C2469 0.959 . S
H2476 C2469 0.961 . S
H2477 C2469 0.960 . S
H2478 C2470 0.930 . S
H2479 C2471 0.929 . S
C473 C5 3.012 . S
C492 C382 3.005 . S
C509 C324 3.007 . S
C528 C34 3.007 . S
C545 C63 3.004 . S
C564 C353 2.992 . S
C581 C92 3.004 . S
C600 C295 2.993 . S
C617 C440 3.004 . S
C636 C121 2.999 . S
C653 C150 3.004 . S
C672 C266 2.997 . S
C689 C411 3.004 . S
C708 C179 2.998 . S
C725 C208 3.004 . S
C744 C237 2.993 . S
C761 C102 1.364 . S
C780 C3 1.424 . S
C797 C15 1.357 . S
C816 C32 1.399 . S
C833 C44 1.365 . S
C852 C61 1.422 . S
C869 C90 1.416 . S
C888 C73 1.373 . S
C905 C160 1.357 . S
C924 C119 1.400 . S
C941 C189 1.362 . S
C960 C148 1.426 . S
C977 C218 1.355 . S
C996 C177 1.404 . S
C1013 C131 1.363 . S
C1032 C206 1.395 . S
C1049 C137 1.038 . S
C1068 C269 1.140 . S
C1085 C253 1.020 . S
C1104 C124 1.128 1_545 S
C1121 C195 1.040 . S
C1140 C240 1.130 . S
C1157 C282 1.023 . S
C1176 C182 1.127 1_565 S
C1193 C298 1.136 . S
C1212 C21 0.968 . S
C1229 C66 1.136 1_545 S
C1248 C311 0.971 . S
C1265 C327 1.137 . S
C1284 C79 0.972 . S
C1301 C8 1.135 1_565 S
C1320 C340 1.004 . S
C1337 C334 1.358 . S
C1356 C351 1.425 . S
C1373 C363 1.364 . S
C1392 C293 1.423 . S
C1409 C380 1.411 1_655 S
C1428 C305 1.382 . S
C1445 C322 1.416 . S
C1464 C392 1.334 . S
C1481 C409 1.415 . S
C1500 C247 1.387 . S
C1517 C450 1.354 . S
C1536 C235 1.409 . S
C1553 C276 1.365 . S
C1572 C438 1.421 1_655 S
C1589 C421 1.365 . S
C1608 C264 1.397 . S
C1625 C211 1.135 . S
C1644 C427 1.072 . S
C1661 C414 1.136 . S
C1680 C166 0.968 . S
C1697 C456 1.017 . S
C1716 C153 1.139 . S
C1733 C224 1.033 . S
C1752 C443 1.126 . S
C1769 C37 1.138 . S
C1788 C369 0.981 . S
C1805 C50 1.039 . S
C1824 C385 1.138 . S
C1841 C398 1.040 . S
C1860 C95 1.132 . S
C1877 C356 1.137 . S
C1896 C108 0.968 . S
C1913 C158 0.683 . S
C1932 C13 0.750 . S
C1949 C187 0.669 . S
C1968 C42 0.696 . S
C1985 C216 0.660 . S
C2004 C71 0.585 . S
C2021 C100 0.671 . S
C2040 C129 0.612 . S
C2057 C126 1.377 . S
C2076 C300 1.386 . S
C2093 C242 1.383 . S
C2112 C68 1.358 . S
C2129 C329 1.381 . S
C2148 C184 1.367 . S
C2165 C10 1.375 . S
C2184 C271 1.393 . S
C2201 C361 0.693 . S
C2220 C245 0.763 . S
C2237 C303 0.668 . S
C2256 C448 0.602 . S
C2273 C390 0.685 . S
C2292 C274 0.753 . S
C2309 C419 0.657 . S
C2328 C332 0.601 . S
C2345 C39 1.376 . S
C2364 C416 1.388 . S
C2381 C387 1.384 . S
C2400 C155 1.353 . S
C2417 C97 1.378 . S
C2436 C445 1.385 . S
C2453 C213 1.378 . S
C2472 C358 1.386 . S
