# Generated by pormake.
# Topology snw, (6)-cn, num edge types: 1
# Building blocks:
#     Node 0, Type 0, BuildingBlock: MIDCAF_clean_sbu_0, # of connection points: 6
#     Node 1, Type 0, BuildingBlock: MIDCAF_clean_sbu_0, # of connection points: 6
#     Node 2, Type 0, BuildingBlock: MIDCAF_clean_sbu_0, # of connection points: 6
#     Node 3, Type 0, BuildingBlock: MIDCAF_clean_sbu_0, # of connection points: 6
#     Node 4, Type 0, BuildingBlock: MIDCAF_clean_sbu_0, # of connection points: 6
#     Node 5, Type 0, BuildingBlock: MIDCAF_clean_sbu_0, # of connection points: 6
#     Node 6, Type 0, BuildingBlock: MIDCAF_clean_sbu_0, # of connection points: 6
#     Node 7, Type 0, BuildingBlock: MIDCAF_clean_sbu_0, # of connection points: 6
#     Edge 8, Type (0, 0), BuildingBlock: UVAHIK_clean_linker_0, # of connection points: 2
#     Edge 9, Type (0, 0), BuildingBlock: UVAHIK_clean_linker_0, # of connection points: 2
#     Edge 10, Type (0, 0), BuildingBlock: UVAHIK_clean_linker_0, # of connection points: 2
#     Edge 11, Type (0, 0), BuildingBlock: UVAHIK_clean_linker_0, # of connection points: 2
#     Edge 12, Type (0, 0), BuildingBlock: UVAHIK_clean_linker_0, # of connection points: 2
#     Edge 13, Type (0, 0), BuildingBlock: UVAHIK_clean_linker_0, # of connection points: 2
#     Edge 14, Type (0, 0), BuildingBlock: UVAHIK_clean_linker_0, # of connection points: 2
#     Edge 15, Type (0, 0), BuildingBlock: UVAHIK_clean_linker_0, # of connection points: 2
#     Edge 16, Type (0, 0), BuildingBlock: UVAHIK_clean_linker_0, # of connection points: 2
#     Edge 17, Type (0, 0), BuildingBlock: UVAHIK_clean_linker_0, # of connection points: 2
#     Edge 18, Type (0, 0), BuildingBlock: UVAHIK_clean_linker_0, # of connection points: 2
#     Edge 19, Type (0, 0), BuildingBlock: UVAHIK_clean_linker_0, # of connection points: 2
#     Edge 20, Type (0, 0), BuildingBlock: UVAHIK_clean_linker_0, # of connection points: 2
#     Edge 21, Type (0, 0), BuildingBlock: UVAHIK_clean_linker_0, # of connection points: 2
#     Edge 22, Type (0, 0), BuildingBlock: UVAHIK_clean_linker_0, # of connection points: 2
#     Edge 23, Type (0, 0), BuildingBlock: UVAHIK_clean_linker_0, # of connection points: 2
#     Edge 24, Type (0, 0), BuildingBlock: UVAHIK_clean_linker_0, # of connection points: 2
#     Edge 25, Type (0, 0), BuildingBlock: UVAHIK_clean_linker_0, # of connection points: 2
#     Edge 26, Type (0, 0), BuildingBlock: UVAHIK_clean_linker_0, # of connection points: 2
#     Edge 27, Type (0, 0), BuildingBlock: UVAHIK_clean_linker_0, # of connection points: 2
#     Edge 28, Type (0, 0), BuildingBlock: UVAHIK_clean_linker_0, # of connection points: 2
#     Edge 29, Type (0, 0), BuildingBlock: UVAHIK_clean_linker_0, # of connection points: 2
#     Edge 30, Type (0, 0), BuildingBlock: UVAHIK_clean_linker_0, # of connection points: 2
#     Edge 31, Type (0, 0), BuildingBlock: UVAHIK_clean_linker_0, # of connection points: 2
# Relax obj value: 0.252
# Max RMSD: 0.249
# Mean RMSD: 0.249
data_MOF--net-snw--node1-MIDCAF_clean_sbu_0--edge1-UVAHIK_clean_linker_0
_symmetry_space_group_name_H-M    P1
_symmetry_Int_Tables_number       1
_symmetry_cell_setting            triclinic
loop_
_symmetry_equiv_pos_as_xyz
'x, y, z'
_cell_length_a     23.590909
_cell_length_b     23.724576
_cell_length_c     101.27382
_cell_angle_alpha  90.63792
_cell_angle_beta   89.649227
_cell_angle_gamma 89.128339
loop_
_atom_site_label
_atom_site_type_symbol
_atom_site_fract_x
_atom_site_fract_y
_atom_site_fract_z
_atom_type_partial_charge
Zn0 Zn 0.94271 0.37116 0.06241 0.0
Zn1 Zn 0.9982 0.18297 0.07813 0.0
Zn2 Zn 0.97372 0.2745 0.06783 0.0
C3 C 0.93463 0.23743 0.09685 0.0
C4 C 0.09829 0.23236 0.06963 0.0
O5 O 0.04056 0.30663 0.05448 0.0
O6 O 0.98779 0.37501 0.04609 0.0
C7 C 0.84933 0.30239 0.05912 0.0
O8 O 0.94823 0.27764 0.08902 0.0
O9 O 0.95042 0.1876 0.09414 0.0
O10 O 0.07957 0.20205 0.0788 0.0
O11 O 0.06364 0.25968 0.06218 0.0
O12 O 0.86228 0.35298 0.06135 0.0
O13 O 0.888 0.26337 0.05918 0.0
O14 O 0.97738 0.32593 0.0861 0.0
O15 O 0.97197 0.41198 0.0781 0.0
C16 C 0.98291 0.37961 0.08757 0.0
O17 O 0.92147 0.21373 0.05703 0.0
O18 O 0.96954 0.1376 0.06297 0.0
C19 C 0.03248 0.34517 0.04581 0.0
C20 C 0.93328 0.16082 0.05558 0.0
Zn21 Zn 0.13204 0.78878 0.30158 0.0
Zn22 Zn 0.91067 0.79867 0.29817 0.0
Zn23 Zn 0.02116 0.79455 0.29918 0.0
C24 C 0.94279 0.89627 0.3113 0.0
C25 C 0.93445 0.7011 0.3114 0.0
O26 O 0.05708 0.78542 0.27868 0.0
O27 O 0.14871 0.77479 0.28284 0.0
C28 C 0.10079 0.89297 0.31189 0.0
O29 O 0.99226 0.87499 0.30866 0.0
O30 O 0.89864 0.8701 0.30812 0.0
O31 O 0.89213 0.72559 0.30636 0.0
O32 O 0.98449 0.72181 0.31009 0.0
O33 O 0.14522 0.8647 0.30927 0.0
O34 O 0.05156 0.87312 0.30912 0.0
O35 O 0.0436 0.72002 0.31138 0.0
O36 O 0.13713 0.72268 0.31313 0.0
C37 C 0.09074 0.69954 0.31577 0.0
O38 O 0.99783 0.79274 0.27767 0.0
O39 O 0.90469 0.80466 0.27902 0.0
C40 C 0.10854 0.77636 0.27469 0.0
C41 C 0.94912 0.79958 0.27211 0.0
Zn42 Zn 0.55621 0.67658 0.54368 0.0
Zn43 Zn 0.4998 0.83329 0.56879 0.0
Zn44 Zn 0.52374 0.75051 0.55608 0.0
C45 C 0.5881 0.78453 0.58263 0.0
C46 C 0.40128 0.76703 0.56645 0.0
O47 O 0.45546 0.70772 0.54536 0.0
O48 O 0.51189 0.70543 0.52813 0.0
C49 C 0.64401 0.67945 0.55804 0.0
O50 O 0.57725 0.74476 0.57417 0.0
O51 O 0.56001 0.8302 0.58242 0.0
O52 O 0.42279 0.80631 0.57319 0.0
O53 O 0.43141 0.74016 0.55778 0.0
O54 O 0.64109 0.67219 0.54566 0.0
O55 O 0.60217 0.70453 0.56415 0.0
O56 O 0.54173 0.69241 0.57176 0.0
O57 O 0.51264 0.62873 0.55755 0.0
C58 C 0.51642 0.64543 0.56946 0.0
O59 O 0.55535 0.81339 0.54311 0.0
O60 O 0.51124 0.88393 0.55318 0.0
C61 C 0.46274 0.69874 0.53292 0.0
C62 C 0.54007 0.86526 0.54345 0.0
Zn63 Zn 0.63026 0.23349 0.81548 0.0
Zn64 Zn 0.42328 0.22399 0.81095 0.0
Zn65 Zn 0.52584 0.23203 0.81217 0.0
C66 C 0.43955 0.30625 0.82956 0.0
C67 C 0.45157 0.12206 0.81908 0.0
O68 O 0.56252 0.2316 0.79179 0.0
O69 O 0.65026 0.20871 0.79733 0.0
C70 C 0.59489 0.33715 0.82424 0.0
O71 O 0.48896 0.30351 0.82404 0.0
O72 O 0.40291 0.27006 0.82668 0.0
O73 O 0.41128 0.14146 0.8123 0.0
O74 O 0.49621 0.15181 0.8209 0.0
O75 O 0.6401 0.31411 0.82003 0.0
O76 O 0.5475 0.31109 0.82317 0.0
O77 O 0.5546 0.15516 0.82296 0.0
O78 O 0.64044 0.17711 0.82965 0.0
C79 C 0.5995 0.14353 0.82967 0.0
O80 O 0.5023 0.23794 0.79078 0.0
O81 O 0.41179 0.25961 0.79374 0.0
C82 C 0.61355 0.21669 0.78851 0.0
C83 C 0.45405 0.25432 0.78614 0.0
Zn84 Zn 0.01377 0.57789 0.91609 0.0
Zn85 Zn 1.0019 0.85502 0.91121 0.0
Zn86 Zn 0.01334 0.75258 0.91524 0.0
C87 C 0.91953 0.79813 0.89644 0.0
C88 C 0.10822 0.83339 0.90212 0.0
O89 O 0.02046 0.73215 0.93624 0.0
O90 O 0.01919 0.6543 0.92528 0.0
C91 C 0.92097 0.6472 0.9034 0.0
O92 O 0.93612 0.75701 0.90366 0.0
O93 O 0.94508 0.84452 0.89688 0.0
O94 O 0.08032 0.8764 0.90596 0.0
O95 O 0.08859 0.78375 0.90413 0.0
O96 O 0.94079 0.59859 0.9066 0.0
O97 O 0.9454 0.69481 0.90625 0.0
O98 O 0.09472 0.72682 0.90664 0.0
O99 O 0.05656 0.64889 0.91192 0.0
C100 C 0.0985 0.67325 0.90684 0.0
O101 O 1.00077 0.78919 0.93535 0.0
O102 O 0.9724 0.87406 0.92921 0.0
C103 C 0.02344 0.67845 0.93641 0.0
C104 C 0.9799 0.83829 0.9382 0.0
Zn105 Zn 0.61623 0.77307 0.12638 0.0
Zn106 Zn 0.35459 0.83054 0.14643 0.0
Zn107 Zn 0.51858 0.78157 0.13711 0.0
C108 C 0.41694 0.7229 0.13324 0.0
C109 C 0.42783 0.89869 0.12875 0.0
O110 O 0.57273 0.77496 0.15465 0.0
O111 O 0.6532 0.75767 0.14393 0.0
C112 C 0.55803 0.68317 0.11594 0.0
O113 O 0.46825 0.71114 0.13017 0.0
O114 O 0.40879 0.77039 0.13878 0.0
O115 O 0.38034 0.89407 0.13485 0.0
O116 O 0.46985 0.86226 0.12977 0.0
O117 O 0.60383 0.70871 0.114 0.0
O118 O 0.52156 0.70269 0.12443 0.0
O119 O 0.53314 0.86229 0.12796 0.0
O120 O 0.61909 0.85172 0.11949 0.0
C121 C 0.5761 0.88262 0.12191 0.0
O122 O 0.51373 0.77815 0.15891 0.0
O123 O 0.4337 0.80367 0.15087 0.0
C124 C 0.62621 0.76345 0.15473 0.0
C125 C 0.4626 0.79392 0.16104 0.0
Zn126 Zn 0.51981 0.18488 0.39884 0.0
Zn127 Zn 0.53471 0.39302 0.40982 0.0
Zn128 Zn 0.52091 0.28732 0.40454 0.0
C129 C 0.4375 0.38035 0.39348 0.0
C130 C 0.63036 0.36709 0.39666 0.0
O131 O 0.52491 0.24289 0.42376 0.0
O132 O 0.54635 0.15773 0.41611 0.0
C133 C 0.41624 0.22195 0.39098 0.0
O134 O 0.44718 0.32749 0.3953 0.0
O135 O 0.47103 0.41662 0.39808 0.0
O136 O 0.61277 0.40731 0.40389 0.0
O137 O 0.60093 0.3218 0.39558 0.0
O138 O 0.43914 0.17614 0.39445 0.0
O139 O 0.44205 0.26885 0.39298 0.0
O140 O 0.59786 0.26395 0.3928 0.0
O141 O 0.57563 0.18142 0.38412 0.0
C142 C 0.60923 0.22211 0.38494 0.0
O143 O 0.51074 0.30002 0.42647 0.0
O144 O 0.51948 0.39238 0.42888 0.0
C145 C 0.54054 0.19141 0.42577 0.0
C146 C 0.50984 0.34493 0.43381 0.0
Zn147 Zn 0.14364 0.18838 0.65083 0.0
Zn148 Zn 0.93594 0.24395 0.64534 0.0
Zn149 Zn 0.04175 0.2225 0.64899 0.0
C150 C 0.95064 0.13791 0.63538 0.0
C151 C 0.98969 0.32879 0.6324 0.0
O152 O 0.06353 0.22105 0.67058 0.0
O153 O 0.14542 0.17458 0.6698 0.0
C154 C 0.10298 0.10842 0.63508 0.0
O155 O 1.00138 0.14974 0.63906 0.0
O156 O 0.91088 0.17352 0.63689 0.0
O157 O 0.94062 0.31021 0.63426 0.0
O158 O 0.03334 0.30299 0.63727 0.0
O159 O 0.15105 0.12135 0.6394 0.0
O160 O 0.05925 0.13987 0.63796 0.0
O161 O 0.09086 0.29076 0.63995 0.0
O162 O 0.17699 0.26028 0.64496 0.0
C163 C 0.14489 0.29796 0.64024 0.0
O164 O 1.00354 0.23163 0.6692 0.0
O165 O 0.9161 0.25748 0.66399 0.0
C166 C 0.10619 0.1979 0.67647 0.0
C167 C 0.95296 0.24737 0.67266 0.0
C168 C 0.10511 0.40828 0.03728 0.0
C169 C 0.07398 0.35883 0.03554 0.0
C170 C 0.11967 0.44101 0.0264 0.0
C171 C 0.11496 0.44981 -0.01037 0.0
H172 H 0.053 0.59956 -0.00319 0.0
C173 C 0.02539 0.58678 0.9482 0.0
C174 C 0.03371 0.64529 0.94849 0.0
C175 C 0.04049 0.55348 0.95892 0.0
C176 C 0.07148 0.55842 -0.00538 0.0
H177 H 0.03884 0.30166 0.02112 0.0
H178 H 0.06543 0.3576 0.00208 0.0
H179 H 0.07044 0.53553 0.01498 0.0
H180 H 0.06316 0.71507 0.96045 0.0
H181 H 0.09006 0.65664 0.9793 0.0
H182 H 0.11473 0.47229 0.96923 0.0
C183 C 0.07882 0.37145 0.01178 0.0
C184 C 0.0817 0.52161 0.00507 0.0
C185 C 0.06412 0.33887 0.02268 0.0
C186 C 0.05601 0.67011 0.95996 0.0
C187 C 0.07149 0.63656 0.97074 0.0
C188 C 0.10505 0.48674 0.97918 0.0
C189 C 0.10327 0.42472 0.0136 0.0
C190 C 0.10225 0.46636 0.00268 0.0
C191 C 0.06472 0.57761 0.97025 0.0
C192 C 0.08161 0.54098 -0.0185 0.0
H193 H 0.11211 0.42512 0.04712 0.0
H194 H 0.13944 0.48133 0.02811 0.0
H195 H 0.13131 0.40779 -0.01254 0.0
H196 H 1.00751 0.56636 0.93961 0.0
H197 H 0.03291 0.50862 0.95831 0.0
C198 C 0.70863 0.72677 0.16753 0.0
C199 C 0.65849 0.75948 0.16719 0.0
C200 C 0.74401 0.72822 0.17854 0.0
C201 C 0.75138 0.77863 0.21366 0.0
H202 H 0.9137 0.76811 0.20726 0.0
C203 C 0.90723 0.8467 0.25293 0.0
C204 C 0.94165 0.8027 0.2577 0.0
C205 C 0.88011 0.84156 0.24081 0.0
C206 C 0.8685 0.77075 0.20916 0.0
H207 H 0.60532 0.81838 0.17828 0.0
H208 H 0.66793 0.82285 0.19735 0.0
H209 H 0.84808 0.75777 0.18883 0.0
H210 H 0.97896 0.72097 0.25305 0.0
H211 H 0.93231 0.71249 0.2314 0.0
H212 H 0.77233 0.79411 0.23391 0.0
C213 C 0.6795 0.7947 0.18926 0.0
C214 C 0.83064 0.76447 0.19864 0.0
C215 C 0.64344 0.79233 0.17831 0.0
C216 C 0.95334 0.75582 0.24948 0.0
C217 C 0.92623 0.75078 0.23719 0.0
C218 C 0.78919 0.78592 0.22408 0.0
C219 C 0.7309 0.76338 0.18944 0.0
C220 C 0.77141 0.76852 0.20072 0.0
C221 C 0.88705 0.79239 0.23313 0.0
C222 C 0.84805 0.78241 0.22194 0.0
H223 H 0.72109 0.70056 0.15914 0.0
H224 H 0.78204 0.70211 0.17838 0.0
H225 H 0.70639 0.78073 0.2158 0.0
H226 H 0.8973 0.8831 0.25914 0.0
H227 H 0.85078 0.87454 0.23781 0.0
C228 C 0.40755 0.61066 0.53115 0.0
C229 C 0.42512 0.6612 0.52539 0.0
C230 C 0.39486 0.56391 0.52317 0.0
C231 C 0.37354 0.51405 0.48859 0.0
H232 H 0.48186 0.39601 0.49752 0.0
C233 C 0.52858 0.36499 0.45738 0.0
C234 C 0.49152 0.34473 0.44771 0.0
C235 C 0.50739 0.38722 0.4693 0.0
C236 C 0.45069 0.42805 0.49499 0.0
H237 H 0.43663 0.70465 0.50693 0.0
H238 H 0.41208 0.62425 0.49304 0.0
H239 H 0.46008 0.47129 0.5135 0.0
H240 H 0.40384 0.32839 0.44315 0.0
H241 H 0.36647 0.36769 0.46399 0.0
H242 H 0.36658 0.47255 0.4698 0.0
C243 C 0.40885 0.62011 0.50366 0.0
C244 C 0.43785 0.47099 0.50418 0.0
C245 C 0.42262 0.66639 0.51161 0.0
C246 C 0.43332 0.34264 0.45059 0.0
C247 C 0.41192 0.36583 0.46243 0.0
C248 C 0.38579 0.47069 0.47948 0.0
C249 C 0.39827 0.56743 0.50933 0.0
C250 C 0.40081 0.51567 0.50088 0.0
C251 C 0.44858 0.39078 0.47163 0.0
C252 C 0.42618 0.42841 0.48238 0.0
H253 H 0.40984 0.60518 0.54174 0.0
H254 H 0.38633 0.52398 0.52781 0.0
H255 H 0.34479 0.54782 0.48578 0.0
H256 H 0.57346 0.36822 0.45523 0.0
H257 H 0.53677 0.40647 0.47611 0.0
C258 C 0.67264 0.16872 0.77141 0.0
C259 C 0.63312 0.21162 0.77467 0.0
C260 C 0.70514 0.17136 0.75989 0.0
C261 C 0.76517 0.27763 0.73816 0.0
H262 H 0.81613 0.14793 0.71742 0.0
C263 C 0.8953 0.29473 0.6901 0.0
C264 C 0.93407 0.25154 0.68657 0.0
C265 C 0.86316 0.29161 0.70166 0.0
C266 C 0.80315 0.18442 0.72327 0.0
H267 H 0.59376 0.2891 0.76802 0.0
H268 H 0.65059 0.29379 0.74764 0.0
H269 H 0.74307 0.13679 0.7343 0.0
H270 H 0.97264 0.17303 0.6928 0.0
H271 H 0.91662 0.16759 0.71329 0.0
H272 H 0.82533 0.32524 0.72718 0.0
C273 C 0.6567 0.25825 0.75412 0.0
C274 C 0.76081 0.17814 0.73287 0.0
C275 C 0.62354 0.25521 0.76566 0.0
C276 C 0.94341 0.20713 0.69537 0.0
C277 C 0.91067 0.20368 0.70697 0.0
C278 C 0.80756 0.28389 0.72858 0.0
C279 C 0.69934 0.21735 0.75136 0.0
C280 C 0.7412 0.22467 0.74044 0.0
C281 C 0.86864 0.24491 0.70998 0.0
C282 C 0.82707 0.2374 0.72098 0.0
H283 H 0.68105 0.13481 0.77824 0.0
H284 H 0.73757 0.13928 0.75816 0.0
H285 H 0.75211 0.31412 0.744 0.0
H286 H 0.88711 0.32933 0.68344 0.0
H287 H 0.8312 0.32398 0.70356 0.0
C288 C 0.41238 0.30642 0.76755 0.0
C289 C 0.44234 0.25862 0.77194 0.0
C290 C 0.37747 0.30312 0.75647 0.0
C291 C 0.28751 0.198 0.74148 0.0
H292 H 0.25828 0.30959 0.71462 0.0
C293 C 0.14145 0.15832 0.69731 0.0
C294 C 0.11644 0.20408 0.69075 0.0
C295 C 0.17461 0.16701 0.70849 0.0
C296 C 0.26499 0.27859 0.72224 0.0
H297 H 0.46333 0.17134 0.76759 0.0
H298 H 0.40257 0.16542 0.7481 0.0
H299 H 0.33833 0.32114 0.72954 0.0
H300 H 0.10134 0.29419 0.69149 0.0
H301 H 0.15776 0.30957 0.71142 0.0
H302 H 0.21378 0.15599 0.7345 0.0
C303 C 0.40589 0.20544 0.75327 0.0
C304 C 0.31142 0.28491 0.73067 0.0
C305 C 0.44155 0.20907 0.76426 0.0
C306 C 0.11963 0.25809 0.69646 0.0
C307 C 0.15307 0.26694 0.7077 0.0
C308 C 0.24077 0.19203 0.73318 0.0
C309 C 0.37121 0.25161 0.7497 0.0
C310 C 0.32364 0.24426 0.74027 0.0
C311 C 0.18353 0.22183 0.71341 0.0
C312 C 0.22916 0.23181 0.72332 0.0
H313 H 0.41147 0.34477 0.77347 0.0
H314 H 0.35139 0.33941 0.75399 0.0
H315 H 0.29479 0.16679 0.74904 0.0
H316 H 0.14009 0.11632 0.69302 0.0
H317 H 0.19722 0.1311 0.7125 0.0
C318 C 0.4426 0.75519 0.18354 0.0
C319 C 0.43486 0.79747 0.17413 0.0
C320 C 0.40527 0.75177 0.19436 0.0
C321 C 0.25862 0.79722 0.20407 0.0
H322 H 0.30329 0.74558 0.23867 0.0
C323 C 0.11671 0.81109 0.25154 0.0
C324 C 0.12392 0.76765 0.26069 0.0
C325 C 0.14937 0.81111 0.23989 0.0
C326 C 0.28993 0.75937 0.229 0.0
H327 H 0.38542 0.87173 0.16909 0.0
H328 H 0.32237 0.86743 0.18811 0.0
H329 H 0.37496 0.75568 0.22149 0.0
H330 H 0.16628 0.68791 0.26441 0.0
H331 H 0.22149 0.68689 0.24401 0.0
H332 H 0.17361 0.80183 0.21174 0.0
C333 C 0.35538 0.83548 0.187 0.0
C334 C 0.33116 0.7652 0.21914 0.0
C335 C 0.39204 0.83843 0.17619 0.0
C336 C 0.15988 0.7218 0.25746 0.0
C337 C 0.19212 0.72166 0.24588 0.0
C338 C 0.21741 0.79174 0.21397 0.0
C339 C 0.35998 0.79092 0.19597 0.0
C340 C 0.31617 0.78438 0.20654 0.0
C341 C 0.18955 0.76768 0.2373 0.0
C342 C 0.23255 0.77259 0.22655 0.0
H343 H 0.47483 0.72268 0.18207 0.0
H344 H 0.41015 0.71678 0.20105 0.0
H345 H 0.24512 0.81096 0.19441 0.0
H346 H 0.0899 0.8473 0.25393 0.0
H347 H 0.14627 0.84713 0.23344 0.0
C348 C 0.58897 0.12275 0.44032 0.0
C349 C 0.55192 0.16935 0.43912 0.0
C350 C 0.59476 0.09521 0.45231 0.0
C351 C 0.57073 0.10345 0.4881 0.0
H352 H 0.55481 0.94144 0.48453 0.0
C353 C 0.53022 0.95898 0.5326 0.0
C354 C 0.55211 0.90345 0.53232 0.0
C355 C 0.53638 0.99409 0.52174 0.0
C356 C 0.56049 0.98641 0.48574 0.0
H357 H 0.49381 0.22521 0.44972 0.0
H358 H 0.50432 0.17695 0.47094 0.0
H359 H 0.5537 0.99972 0.46497 0.0
H360 H 0.59994 0.8422 0.52057 0.0
H361 H 0.61204 0.90409 0.50166 0.0
H362 H 0.57782 0.09002 0.50891 0.0
C363 C 0.52896 0.16208 0.46251 0.0
C364 C 0.55951 0.0199 0.4745 0.0
C365 C 0.52309 0.18987 0.4504 0.0
C366 C 0.58229 0.88459 0.52108 0.0
C367 C 0.58883 0.92 0.51021 0.0
C368 C 0.57221 0.06979 0.49938 0.0
C369 C 0.56358 0.11338 0.46343 0.0
C370 C 0.56457 0.07875 0.47555 0.0
C371 C 0.56499 0.97486 0.51031 0.0
C372 C 0.56688 0.01079 0.49834 0.0
H373 H 0.61248 0.10639 0.43185 0.0
H374 H 0.62269 0.05861 0.45278 0.0
H375 H 0.57517 0.14864 0.48918 0.0
H376 H 0.50666 0.97504 0.54108 0.0
H377 H 0.51677 0.03564 0.52216 0.0
C378 C 0.90301 0.06935 0.04598 0.0
C379 C 0.91131 0.12738 0.04442 0.0
C380 C 0.89787 0.0338 0.03498 0.0
C381 C 0.88589 0.03146 -0.0019 0.0
H382 H 0.9675 0.88932 0.00168 0.0
C383 C 1.00077 0.8518 0.96227 0.0
C384 C 0.96265 0.85464 0.95173 0.0
C385 C 0.98773 0.87931 0.97428 0.0
C386 C 0.94488 0.92894 0.00045 0.0
H387 H 0.91755 0.19438 0.0302 0.0
H388 H 0.91023 0.13243 0.01092 0.0
H389 H 0.95497 0.95108 0.02078 0.0
H390 H 0.87967 0.88403 0.94564 0.0
H391 H 0.85535 0.9287 0.96668 0.0
H392 H 0.87915 0.01121 0.9776 0.0
C393 C 0.90634 0.11412 0.02062 0.0
C394 C 0.93674 0.96415 0.0115 0.0
C395 C 0.91035 0.14989 0.03167 0.0
C396 C 0.90989 0.88164 0.95364 0.0
C397 C 0.89635 0.90792 0.96566 0.0
C398 C 0.89468 0.99663 -0.01298 0.0
C399 C 0.90227 0.05525 0.02212 0.0
C400 C 0.90739 0.01613 0.01048 0.0
C401 C 0.93593 0.90928 0.97598 0.0
C402 C 0.92453 0.94492 -0.01199 0.0
H403 H 0.90345 0.05099 0.05573 0.0
H404 H 0.89283 0.98912 0.03659 0.0
H405 H 0.86259 0.07071 -0.00311 0.0
H406 H 0.04198 0.8317 0.96094 0.0
H407 H 0.01954 0.87955 -0.01807 0.0
C408 C 0.41225 1.0 0.1237 0.0
C409 C 0.43194 0.94648 0.11958 0.0
C410 C 0.40249 0.04248 0.11451 0.0
C411 C 0.34933 0.05201 0.08149 0.0
H412 H 0.36187 0.21282 0.0877 0.0
C413 C 0.18565 0.19703 0.0584 0.0
C414 C 0.16023 0.23272 0.06792 0.0
C415 C 0.23992 0.17395 0.06055 0.0
C416 C 0.35794 0.16809 0.08575 0.0
H417 H 0.46021 0.89617 0.10278 0.0
H418 H 0.44166 0.97032 0.08654 0.0
H419 H 0.42094 0.14714 0.10018 0.0
H420 H 0.17331 0.27723 0.08635 0.0
H421 H 0.26683 0.2377 0.09017 0.0
H422 H 0.2831 0.07181 0.06801 0.0
C423 C 0.4345 0.97956 0.09692 0.0
C424 C 0.39213 0.13049 0.09287 0.0
C425 C 0.44539 0.93728 0.1062 0.0
C426 C 0.19246 0.25049 0.07874 0.0
C427 C 0.24631 0.22732 0.08095 0.0
C428 C 0.31461 0.08946 0.07452 0.0
C429 C 0.41098 0.03195 0.10095 0.0
C430 C 0.38646 0.07195 0.09121 0.0
C431 C 0.26922 0.1857 0.07235 0.0
C432 C 0.31646 0.148 0.07699 0.0
H433 H 0.40145 1.00801 0.13397 0.0
H434 H 0.38395 0.08208 0.11794 0.0
H435 H 0.34353 1.00716 0.08004 0.0
H436 H 0.16129 0.182 0.05007 0.0
H437 H 0.25674 0.14332 0.05349 0.0
C438 C 0.11991 0.99606 0.31252 0.0
C439 C 0.10676 0.94642 0.31919 0.0
C440 C 0.1371 0.04393 0.31958 0.0
C441 C 0.2194 0.11255 0.33635 0.0
H442 H 0.16309 0.15242 0.37131 0.0
C443 C 0.32156 0.18012 0.38799 0.0
C444 C 0.36216 0.21873 0.38379 0.0
C445 C 0.27701 0.16489 0.37977 0.0
C446 C 0.17924 0.14207 0.36154 0.0
H447 H 0.10071 0.90726 0.3383 0.0
H448 H 0.12948 0.99077 0.3507 0.0
H449 H 0.10805 0.09015 0.35713 0.0
H450 H 0.38651 0.27421 0.368 0.0
H451 H 0.30786 0.24801 0.35351 0.0
H452 H 0.29217 0.16144 0.341 0.0
C453 C 0.1257 0.99355 0.34008 0.0
C454 C 0.14766 0.10641 0.35341 0.0
C455 C 0.1093 0.94567 0.333 0.0
C456 C 0.3553 0.24481 0.37152 0.0
C457 C 0.31066 0.2293 0.36319 0.0
C458 C 0.25113 0.14798 0.34449 0.0
C459 C 0.1414 0.04277 0.33344 0.0
C460 C 0.16843 0.08952 0.34092 0.0
C461 C 0.27223 0.1875 0.36703 0.0
C462 C 0.23255 0.16137 0.3574 0.0
H463 H 0.11937 0.99699 0.30183 0.0
H464 H 0.14887 0.08119 0.31419 0.0
H465 H 0.23689 0.10005 0.32683 0.0
H466 H 0.32623 0.15907 0.39738 0.0
H467 H 0.2489 0.13215 0.38305 0.0
C468 C 0.07289 0.05747 0.61444 0.0
C469 C 0.09858 0.05669 0.62691 0.0
C470 C 0.07979 0.01129 0.60573 0.0
C471 C 0.13064 0.86179 0.6032 0.0
H472 H 0.20679 0.90983 0.57136 0.0
C473 C 0.32161 0.7463 0.58119 0.0
C474 C 0.34017 0.75865 0.56837 0.0
C475 C 0.2694 0.76707 0.58587 0.0
C476 C 0.1842 0.89488 0.57994 0.0
H477 H 0.14779 1.00618 0.64046 0.0
H478 H 0.15867 0.92557 0.62552 0.0
H479 H 0.15426 0.97833 0.58474 0.0
H480 H 0.3159 0.79591 0.54984 0.0
H481 H 0.22333 0.83013 0.55774 0.0
H482 H 0.16241 0.7787 0.5987 0.0
C483 C 0.13345 0.96141 0.62235 0.0
C484 C 0.15405 0.93455 0.58766 0.0
C485 C 0.12755 1.00773 0.63089 0.0
C486 C 0.30224 0.78511 0.55971 0.0
C487 C 0.2497 0.80584 0.56437 0.0
C488 C 0.16024 0.82191 0.59539 0.0
C489 C 0.11154 0.96335 0.60949 0.0
C490 C 0.12933 0.91901 0.59971 0.0
C491 C 0.23452 0.80073 0.5778 0.0
C492 C 0.19002 0.83844 0.584 0.0
H493 H 0.0506 0.09493 0.61113 0.0
H494 H 0.06229 0.01392 0.59589 0.0
H495 H 0.11129 0.84838 0.61234 0.0
H496 H 0.3505 0.72683 0.58813 0.0
H497 H 0.25981 0.76196 0.59625 0.0
C498 C 0.17084 0.80926 0.8829 0.0
C499 C 0.16085 0.84091 0.89449 0.0
C500 C 0.2164 0.8219 0.8746 0.0
C501 C 0.35011 0.90007 0.87188 0.0
H502 H 0.29613 0.93793 0.83699 0.0
C503 C 0.45364 0.06862 0.84002 0.0
C504 C 0.44287 0.06975 0.82643 0.0
C505 C 0.43264 0.02509 0.84775 0.0
C506 C 0.31304 0.92617 0.8465 0.0
H507 H 0.19116 0.90915 0.90679 0.0
H508 H 0.27127 0.931 0.89236 0.0
H509 H 0.2347 0.88862 0.85201 0.0
H510 H 0.40679 0.02426 0.80997 0.0
H511 H 0.37307 0.94628 0.82324 0.0
H512 H 0.42838 0.93815 0.86644 0.0
C513 C 0.24432 0.8961 0.88974 0.0
C514 C 0.27738 0.89801 0.85516 0.0
C515 C 0.19835 0.88392 0.89794 0.0
C516 C 0.41521 0.02432 0.82047 0.0
C517 C 0.39539 0.98005 0.82813 0.0
C518 C 0.38635 0.92739 0.86311 0.0
C519 C 0.25286 0.86623 0.87782 0.0
C520 C 0.29481 0.88637 0.86807 0.0
C521 C 0.401 0.98141 0.84198 0.0
C522 C 0.36755 0.9427 0.85044 0.0
H523 H 0.14193 0.77643 0.87994 0.0
H524 H 0.22202 0.79833 0.86545 0.0
H525 H 0.3647 0.89106 0.88177 0.0
H526 H 0.47448 0.10359 0.84484 0.0
H527 H 0.43771 0.02826 0.85834 0.0
C528 C 0.81587 0.78341 0.89334 0.0
C529 C 0.86942 0.79439 0.88793 0.0
C530 C 0.76669 0.79724 0.88629 0.0
C531 C 0.7149 0.8543 0.85402 0.0
H532 H 0.63156 0.96045 0.87643 0.0
C533 C 0.58661 0.0393 0.83197 0.0
C534 C 0.60467 0.09096 0.83725 0.0
C535 C 0.5993 0.98872 0.83844 0.0
C536 C 0.65373 0.93042 0.87004 0.0
H537 H 0.9143 0.82291 0.87064 0.0
H538 H 0.8294 0.8464 0.85831 0.0
H539 H 0.69206 0.88893 0.88641 0.0
H540 H 0.64768 0.13083 0.85361 0.0
H541 H 0.66958 0.04327 0.86489 0.0
H542 H 0.68017 0.89911 0.83764 0.0
C543 C 0.8245 0.8271 0.86788 0.0
C544 C 0.688 0.88892 0.87577 0.0
C545 C 0.87333 0.81391 0.87496 0.0
C546 C 0.63317 0.09153 0.84935 0.0
C547 C 0.64523 0.04133 0.85587 0.0
C548 C 0.68053 0.89583 0.8483 0.0
C549 C 0.77062 0.82194 0.87373 0.0
C550 C 0.7215 0.85242 0.86781 0.0
C551 C 0.62978 0.98919 0.85034 0.0
C552 C 0.65212 0.93629 0.85625 0.0
H553 H 0.81198 0.76873 0.90339 0.0
H554 H 0.72578 0.79222 0.891 0.0
H555 H 0.73953 0.82626 0.84763 0.0
H556 H 0.56516 0.03778 0.82255 0.0
H557 H 0.58685 0.9492 0.83394 0.0
C558 C 0.90055 0.08146 0.61858 0.0
C559 C 0.93808 0.08323 0.62922 0.0
C560 C 0.88253 0.03002 0.61356 0.0
C561 C 0.84654 0.89227 0.62424 0.0
H562 H 0.81939 0.87225 0.58682 0.0
C563 C 0.64174 0.80412 0.60328 0.0
C564 C 0.64104 0.78378 0.59023 0.0
C565 C 0.69298 0.81932 0.60915 0.0
C566 C 0.82751 0.87551 0.5973 0.0
H567 H 0.9877 0.03323 0.64284 0.0
H568 H 0.95469 0.9421 0.63418 0.0
H569 H 0.88755 0.94065 0.59415 0.0
H570 H 0.69319 0.76452 0.5731 0.0
H571 H 0.78242 0.7839 0.58368 0.0
H572 H 0.78448 0.82867 0.62742 0.0
C573 C 0.94 0.98076 0.62965 0.0
C574 C 0.86646 0.91531 0.60149 0.0
C575 C 0.95893 0.03261 0.63454 0.0
C576 C 0.69256 0.77606 0.58344 0.0
C577 C 0.74377 0.78916 0.58941 0.0
C578 C 0.80754 0.85201 0.62005 0.0
C579 C 0.90095 0.97921 0.61923 0.0
C580 C 0.87402 0.92621 0.61498 0.0
C581 C 0.74442 0.81436 0.60203 0.0
C582 C 0.79546 0.84522 0.60654 0.0
H583 H 0.88398 0.12004 0.61434 0.0
H584 H 0.85179 0.03017 0.60566 0.0
H585 H 0.85166 0.89991 0.63473 0.0
H586 H 0.60236 0.81217 0.60858 0.0
H587 H 0.69143 0.83933 0.6188 0.0
C588 C 0.96462 0.9644 0.32957 0.0
C589 C 0.93592 0.95163 0.31787 0.0
C590 C 0.95089 0.01362 0.33677 0.0
C591 C 0.87605 0.08706 0.35469 0.0
H592 H 0.80351 0.21608 0.3383 0.0
C593 C 0.65938 0.20285 0.36377 0.0
C594 C 0.6617 0.21997 0.37704 0.0
C595 C 0.70911 0.19077 0.35672 0.0
C596 C 0.8246 0.18096 0.34306 0.0
H597 H 0.87179 0.98029 0.30422 0.0
H598 H 0.84656 0.06474 0.31676 0.0
H599 H 0.86718 0.15504 0.32526 0.0
H600 H 0.71721 0.24062 0.39327 0.0
H601 H 0.80498 0.21685 0.38102 0.0
H602 H 0.83148 0.11196 0.37235 0.0
C603 C 0.88091 0.03839 0.32034 0.0
C604 C 0.86068 0.14568 0.3356 0.0
C605 C 0.89485 0.98957 0.31319 0.0
C606 C 0.71464 0.22768 0.383 0.0
C607 C 0.76462 0.21411 0.37603 0.0
C608 C 0.84066 0.12289 0.36221 0.0
C609 C 0.90758 0.05043 0.33242 0.0
C610 C 0.88403 0.09635 0.34111 0.0
C611 C 0.76206 0.1942 0.36292 0.0
C612 C 0.81221 0.16829 0.35626 0.0
H613 H 0.9948 0.93457 0.33359 0.0
H614 H 0.97243 0.02153 0.346 0.0
H615 H 0.89295 0.04949 0.3593 0.0
H616 H 0.61892 0.19661 0.359 0.0
H617 H 0.70587 0.17485 0.34669 0.0
C618 C 0.56066 0.98274 0.12911 0.0
C619 C 0.57985 0.94369 0.11948 0.0
C620 C 0.57722 0.03912 0.12858 0.0
C621 C 0.65253 0.14403 0.10797 0.0
H622 H 0.73613 0.17527 0.14001 0.0
C623 C 0.84301 0.28089 0.10419 0.0
C624 C 0.88969 0.24551 0.10693 0.0
C625 C 0.78966 0.26927 0.10958 0.0
C626 C 0.71209 0.16811 0.13109 0.0
H627 H 0.62715 0.93356 0.10122 0.0
H628 H 0.65547 0.03168 0.10016 0.0
H629 H 0.66371 0.10304 0.14001 0.0
H630 H 0.91995 0.17776 0.1193 0.0
H631 H 0.82797 0.15817 0.12884 0.0
H632 H 0.70435 0.20536 0.09872 0.0
C633 C 0.62762 0.01923 0.10812 0.0
C634 C 0.67031 0.12688 0.13109 0.0
C635 C 0.6117 0.96288 0.10874 0.0
C636 C 0.88446 0.20524 0.1169 0.0
C637 C 0.83146 0.19404 0.12238 0.0
C638 C 0.69408 0.18542 0.10798 0.0
C639 C 0.61279 0.0574 0.11835 0.0
C640 C 0.64255 0.11208 0.11932 0.0
C641 C 0.78277 0.22279 0.11792 0.0
C642 C 0.72674 0.19544 0.11933 0.0
H643 H 0.53651 0.96888 0.13757 0.0
H644 H 0.56491 0.06761 0.13656 0.0
H645 H 0.63128 0.13406 0.0988 0.0
H646 H 0.84589 0.31261 0.09661 0.0
H647 H 0.75306 0.29306 0.10624 0.0
C648 C 0.97313 0.43106 0.63098 0.0
C649 C 0.99323 0.38124 0.62486 0.0
C650 C 0.94918 0.47427 0.62346 0.0
C651 C 0.92091 0.53434 0.59103 0.0
H652 H 0.76348 0.53393 0.60221 0.0
C653 C 0.74056 0.63253 0.5592 0.0
C654 C 0.69137 0.65336 0.5656 0.0
C655 C 0.78352 0.60522 0.56635 0.0
C656 C 0.80727 0.5362 0.59906 0.0
H657 H 1.00857 0.33935 0.60608 0.0
H658 H 0.96864 0.41606 0.59284 0.0
H659 H 0.83378 0.48249 0.61476 0.0
H660 H 0.64861 0.66057 0.58457 0.0
H661 H 0.72452 0.61806 0.59709 0.0
H662 H 0.89479 0.58927 0.57548 0.0
C663 C 0.97148 0.42168 0.60344 0.0
C664 C 0.84764 0.50617 0.60627 0.0
C665 C 0.99482 0.37801 0.611 0.0
C666 C 0.68633 0.64628 0.57931 0.0
C667 C 0.72979 0.62066 0.58649 0.0
C668 C 0.88056 0.56578 0.58395 0.0
C669 C 0.94534 0.46855 0.60968 0.0
C670 C 0.90473 0.50462 0.60232 0.0
C671 C 0.77873 0.59861 0.58013 0.0
C672 C 0.8229 0.5669 0.58781 0.0
H673 H 0.97009 0.43392 0.64165 0.0
H674 H 0.92931 0.51001 0.6285 0.0
H675 H 0.9647 0.5335 0.58775 0.0
H676 H 0.74553 0.63652 0.54861 0.0
H677 H 0.81973 0.58812 0.56096 0.0
C678 C 0.81745 0.63174 0.9026 0.0
C679 C 0.86731 0.64751 0.89613 0.0
C680 C 0.76932 0.61804 0.89534 0.0
C681 C 0.70925 0.60961 0.86119 0.0
H682 H 0.65664 0.4652 0.87347 0.0
C683 C 0.63705 0.4319 0.8268 0.0
C684 C 0.59924 0.39135 0.8314 0.0
C685 C 0.65204 0.47748 0.83482 0.0
C686 C 0.66935 0.50614 0.86999 0.0
H687 H 0.90588 0.66461 0.87722 0.0
H688 H 0.8223 0.63949 0.8644 0.0
H689 H 0.716 0.52171 0.88757 0.0
H690 H 0.54609 0.36734 0.84781 0.0
H691 H 0.57058 0.44817 0.86174 0.0
H692 H 0.66457 0.59207 0.84326 0.0
C693 C 0.81946 0.63881 0.87507 0.0
C694 C 0.70366 0.53879 0.87812 0.0
C695 C 0.86748 0.65302 0.88237 0.0
C696 C 0.57411 0.39888 0.84389 0.0
C697 C 0.58893 0.44469 0.85193 0.0
C698 C 0.67477 0.57681 0.85302 0.0
C699 C 0.77066 0.61858 0.88144 0.0
C700 C 0.72564 0.59007 0.87368 0.0
C701 C 0.62989 0.48329 0.84769 0.0
C702 C 0.65602 0.52373 0.85715 0.0
H703 H 0.81671 0.62709 0.91323 0.0
H704 H 0.73212 0.60387 0.90058 0.0
H705 H 0.72465 0.64932 0.85754 0.0
H706 H 0.65747 0.42662 0.81724 0.0
H707 H 0.68419 0.50572 0.83124 0.0
C708 C 0.54563 0.63008 0.09492 0.0
C709 C 0.5494 0.62971 0.10872 0.0
C710 C 0.55359 0.58027 0.08757 0.0
C711 C 0.582 0.42367 0.08999 0.0
H712 H 0.68114 0.45409 0.06038 0.0
C713 C 0.76395 0.27856 0.07151 0.0
C714 C 0.78823 0.29097 0.0592 0.0
C715 C 0.71306 0.30513 0.07552 0.0
C716 C 0.65228 0.44412 0.06834 0.0
H717 H 0.56178 0.57711 0.12578 0.0
H718 H 0.57781 0.49018 0.11301 0.0
H719 H 0.63346 0.53116 0.07158 0.0
H720 H 0.77252 0.33004 0.04039 0.0
H721 H 0.68186 0.37247 0.04688 0.0
H722 H 0.6042 0.33621 0.08705 0.0
C723 C 0.56694 0.52832 0.10777 0.0
C724 C 0.62468 0.48889 0.07486 0.0
C725 C 0.55775 0.57815 0.11513 0.0
C726 C 0.75495 0.31994 0.04997 0.0
C727 C 0.70358 0.34555 0.05385 0.0
C728 C 0.61001 0.37854 0.08345 0.0
C729 C 0.56752 0.52916 0.09384 0.0
C730 C 0.59 0.47972 0.08596 0.0
C731 C 0.68511 0.34317 0.06709 0.0
C732 C 0.64654 0.38831 0.07268 0.0
H733 H 0.53959 0.66949 0.08977 0.0
H734 H 0.55193 0.58255 0.07691 0.0
H735 H 0.55513 0.4147 0.09839 0.0
H736 H 0.7886 0.25605 0.0788 0.0
H737 H 0.69974 0.30114 0.0857 0.0
C738 C 0.94437 0.64926 0.33253 0.0
C739 C 0.92469 0.65095 0.31953 0.0
C740 C 0.92802 0.60605 0.34096 0.0
C741 C 0.85372 0.46809 0.34258 0.0
H742 H 0.80282 0.52705 0.37652 0.0
C743 C 0.68159 0.3646 0.37498 0.0
C744 C 0.68183 0.37563 0.38863 0.0
C745 C 0.72404 0.38641 0.36684 0.0
C746 C 0.81792 0.50911 0.36725 0.0
H747 H 0.8726 0.60914 0.30502 0.0
H748 H 0.84286 0.53405 0.31977 0.0
H749 H 0.85431 0.58722 0.36172 0.0
H750 H 0.72886 0.41314 0.40466 0.0
H751 H 0.80415 0.44898 0.39063 0.0
H752 H 0.81542 0.3902 0.34807 0.0
C753 C 0.87243 0.56496 0.3234 0.0
C754 C 0.84757 0.54391 0.35871 0.0
C755 C 0.88911 0.60811 0.31497 0.0
C756 C 0.72763 0.4044 0.39414 0.0
C757 C 0.77041 0.42538 0.38606 0.0
C758 C 0.82407 0.433 0.35119 0.0
C759 C 0.8905 0.56422 0.33662 0.0
C760 C 0.86505 0.5243 0.34617 0.0
C761 C 0.76757 0.41937 0.37224 0.0
C762 C 0.80497 0.4534 0.36357 0.0
H763 H 0.96926 0.68343 0.33642 0.0
H764 H 0.94293 0.60675 0.35106 0.0
H765 H 0.86706 0.45148 0.33303 0.0
H766 H 0.64629 0.3431 0.37049 0.0
H767 H 0.72023 0.38093 0.35626 0.0
C768 C 0.33662 0.3712 0.38581 0.0
C769 C 0.38804 0.40038 0.3859 0.0
C770 C 0.28921 0.39365 0.37928 0.0
C771 C 0.21056 0.44515 0.35727 0.0
H772 H 0.18552 0.60467 0.36424 0.0
C773 C 0.11675 0.59987 0.31993 0.0
C774 C 0.09235 0.6507 0.3245 0.0
C775 C 0.13445 0.55884 0.32888 0.0
C776 C 0.19046 0.55986 0.36235 0.0
H777 H 0.43061 0.47512 0.37908 0.0
H778 H 0.34839 0.51433 0.36794 0.0
H779 H 0.25408 0.55272 0.37717 0.0
H780 H 0.06556 0.69839 0.34179 0.0
H781 H 0.09274 0.62548 0.35743 0.0
H782 H 0.14794 0.45296 0.34209 0.0
C783 C 0.34437 0.47434 0.3729 0.0
C784 C 0.23047 0.53025 0.36968 0.0
C785 C 0.39147 0.45181 0.37926 0.0
C786 C 0.08249 0.6586 0.33804 0.0
C787 C 0.09907 0.6172 0.34698 0.0
C788 C 0.17025 0.47495 0.34986 0.0
C789 C 0.29254 0.44608 0.37302 0.0
C790 C 0.24253 0.47328 0.36688 0.0
C791 C 0.12826 0.56825 0.34257 0.0
C792 C 0.16118 0.53319 0.35202 0.0
H793 H 0.33247 0.33228 0.39117 0.0
H794 H 0.24961 0.37117 0.37953 0.0
H795 H 0.21903 0.40112 0.35496 0.0
H796 H 0.12601 0.5937 0.30951 0.0
H797 H 0.15734 0.52215 0.32509 0.0
C798 C 0.06336 0.37761 0.10315 0.0
C799 C 1.01231 0.40296 0.0991 0.0
C800 C 0.10271 0.4088 0.11034 0.0
C801 C 0.13909 0.55891 0.11357 0.0
H802 H 0.26299 0.50151 0.13477 0.0
C803 C 0.31369 0.70251 0.13312 0.0
C804 C 0.36975 0.6841 0.13077 0.0
C805 C 0.26861 0.66617 0.13112 0.0
C806 C 0.22862 0.5179 0.12882 0.0
H807 H 0.95865 0.47741 0.10079 0.0
H808 H 0.02509 0.53046 0.11422 0.0
H809 H 0.18258 0.44087 0.12982 0.0
H810 H 0.42276 0.61287 0.12468 0.0
H811 H 0.34333 0.54889 0.12118 0.0
H812 H 0.18491 0.63576 0.11259 0.0
C813 C 0.03654 0.48778 0.11125 0.0
C814 C 0.18254 0.48328 0.12599 0.0
C815 C 0.99798 0.45719 0.10375 0.0
C816 C 0.37991 0.62826 0.1265 0.0
C817 C 0.33462 0.59157 0.12462 0.0
C818 C 0.18455 0.5935 0.11654 0.0
C819 C 0.09099 0.46545 0.11381 0.0
C820 C 0.13734 0.50323 0.11821 0.0
C821 C 0.27853 0.61042 0.12682 0.0
C822 C 0.22999 0.57329 0.12408 0.0
H823 H 0.07557 0.33594 0.09955 0.0
H824 H 0.14401 0.38995 0.1121 0.0
H825 H 0.10632 0.5755 0.1072 0.0
H826 H 0.30446 0.74519 0.13647 0.0
H827 H 0.22583 0.68166 0.13298 0.0
C828 C 0.14556 0.58227 0.9 0.0
C829 C 0.14664 0.64139 0.9008 0.0
C830 C 0.18986 0.55209 0.89386 0.0
C831 C 0.29527 0.56197 0.86802 0.0
H832 H 0.35893 0.42731 0.88385 0.0
C833 C 0.43914 0.40641 0.83803 0.0
C834 C 0.42434 0.34975 0.83953 0.0
C835 C 0.41797 0.44768 0.84687 0.0
C836 C 0.34155 0.46473 0.87926 0.0
H837 H 0.19666 0.71478 0.89651 0.0
H838 H 0.2729 0.66215 0.88513 0.0
H839 H 0.29549 0.48875 0.89678 0.0
H840 H 0.377 0.29146 0.85147 0.0
H841 H 0.33942 0.3626 0.8666 0.0
H842 H 0.3383 0.53626 0.85023 0.0
C843 C 0.23755 0.63941 0.88924 0.0
C844 C 0.30539 0.49993 0.88669 0.0
C845 C 0.19369 0.66953 0.89562 0.0
C846 C 0.38936 0.33486 0.85014 0.0
C847 C 0.36826 0.37572 0.85891 0.0
C848 C 0.33088 0.52626 0.86049 0.0
C849 C 0.2359 0.58039 0.88827 0.0
C850 C 0.28062 0.54798 0.88103 0.0
C851 C 0.38148 0.43283 0.85731 0.0
C852 C 0.35293 0.47618 0.8659 0.0
H853 H 0.11015 0.55924 0.90397 0.0
H854 H 0.18735 0.5066 0.89316 0.0
H855 H 0.27655 0.59876 0.86342 0.0
H856 H 0.46537 0.41897 0.82978 0.0
H857 H 0.42924 0.49124 0.8454 0.0
C858 C 0.22294 0.36695 0.64065 0.0
C859 C 0.17141 0.3495 0.63518 0.0
C860 C 0.25344 0.41037 0.63497 0.0
C861 C 0.27571 0.47259 0.60259 0.0
H862 H 0.378 0.5686 0.62215 0.0
C863 C 0.47284 0.55808 0.57774 0.0
C864 C 0.48598 0.61493 0.57984 0.0
C865 C 0.43252 0.53201 0.5856 0.0
C866 C 0.34931 0.54256 0.61653 0.0
H867 H 0.1104 0.36523 0.61978 0.0
H868 H 0.16311 0.44248 0.6099 0.0
H869 H 0.30418 0.51782 0.63389 0.0
H870 H 0.46947 0.68849 0.59222 0.0
H871 H 0.39844 0.64276 0.60605 0.0
H872 H 0.32056 0.49719 0.58525 0.0
C873 C 0.18011 0.4221 0.61857 0.0
C874 C 0.30723 0.51315 0.62326 0.0
C875 C 0.14944 0.37842 0.6243 0.0
C876 C 0.46069 0.64431 0.59052 0.0
C877 C 0.41974 0.61824 0.59836 0.0
C878 C 0.31754 0.50204 0.59588 0.0
C879 C 0.23329 0.4375 0.62364 0.0
C880 C 0.27098 0.47651 0.6164 0.0
C881 C 0.40381 0.56236 0.59566 0.0
C882 C 0.356 0.53594 0.60281 0.0
H883 H 0.24083 0.34559 0.6491 0.0
H884 H 0.29443 0.42036 0.63907 0.0
H885 H 0.24896 0.44456 0.59697 0.0
H886 H 0.49185 0.53441 0.56959 0.0
H887 H 0.42255 0.4884 0.58351 0.0
loop_
_geom_bond_atom_site_label_1
_geom_bond_atom_site_label_2
_geom_bond_distance
_geom_bond_site_symmetry_2
_ccdc_geom_bond_type
Zn0 O6 1.920 . S
Zn0 O12 1.898 1_455 S
Zn0 O15 1.905 . S
Zn1 O9 1.905 . S
Zn1 O10 1.898 1_655 S
Zn1 O18 1.920 . S
Zn2 O5 2.080 . S
Zn2 O8 2.114 1_455 S
Zn2 O11 2.120 . S
Zn2 O13 2.120 1_455 S
Zn2 O14 2.114 . S
Zn2 O17 2.080 1_455 S
C3 O8 1.166 . S
C3 O9 1.182 . S
C4 O10 1.167 . S
C4 O11 1.299 . S
O5 Zn2 2.080 . S
O5 C19 1.305 . S
O6 Zn0 1.920 . S
O6 C19 1.234 . S
C7 O12 1.167 . S
C7 O13 1.299 . S
O8 Zn2 2.114 1_655 S
O8 C3 1.166 . S
O9 Zn1 1.905 . S
O9 C3 1.182 . S
O10 Zn1 1.898 1_455 S
O10 C4 1.167 . S
O11 Zn2 2.120 . S
O11 C4 1.299 . S
O12 Zn0 1.898 1_655 S
O12 C7 1.167 . S
O13 Zn2 2.120 1_655 S
O13 C7 1.299 . S
O14 Zn2 2.114 . S
O14 C16 1.166 . S
O15 Zn0 1.905 . S
O15 C16 1.182 . S
C16 O14 1.166 . S
C16 O15 1.182 . S
O17 Zn2 2.080 1_655 S
O17 C20 1.305 . S
O18 Zn1 1.920 . S
O18 C20 1.234 . S
C19 O5 1.305 . S
C19 O6 1.234 . S
C20 O17 1.305 . S
C20 O18 1.234 . S
Zn21 O27 1.920 . S
Zn21 O33 1.898 . S
Zn21 O36 1.905 . S
Zn22 O30 1.905 . S
Zn22 O31 1.898 . S
Zn22 O39 1.920 . S
Zn23 O26 2.080 . S
Zn23 O29 2.114 1_455 S
Zn23 O32 2.120 1_455 S
Zn23 O34 2.120 . S
Zn23 O35 2.114 . S
Zn23 O38 2.080 1_455 S
C24 O29 1.166 . S
C24 O30 1.182 . S
C25 O31 1.167 . S
C25 O32 1.299 . S
O26 Zn23 2.080 . S
O26 C40 1.305 . S
O27 Zn21 1.920 . S
O27 C40 1.234 . S
C28 O33 1.167 . S
C28 O34 1.299 . S
O29 Zn23 2.114 1_655 S
O29 C24 1.166 . S
O30 Zn22 1.905 . S
O30 C24 1.182 . S
O31 Zn22 1.898 . S
O31 C25 1.167 . S
O32 Zn23 2.120 1_655 S
O32 C25 1.299 . S
O33 Zn21 1.898 . S
O33 C28 1.167 . S
O34 Zn23 2.120 . S
O34 C28 1.299 . S
O35 Zn23 2.114 . S
O35 C37 1.166 . S
O36 Zn21 1.905 . S
O36 C37 1.182 . S
C37 O35 1.166 . S
C37 O36 1.182 . S
O38 Zn23 2.080 1_655 S
O38 C41 1.305 . S
O39 Zn22 1.920 . S
O39 C41 1.234 . S
C40 O26 1.305 . S
C40 O27 1.234 . S
C41 O38 1.305 . S
C41 O39 1.234 . S
Zn42 O48 1.920 . S
Zn42 O54 1.898 . S
Zn42 O57 1.905 . S
Zn43 O51 1.905 . S
Zn43 O52 1.898 . S
Zn43 O60 1.920 . S
Zn44 O47 2.080 . S
Zn44 O50 2.114 . S
Zn44 O53 2.120 . S
Zn44 O55 2.120 . S
Zn44 O56 2.114 . S
Zn44 O59 2.080 . S
C45 O50 1.166 . S
C45 O51 1.182 . S
C46 O52 1.167 . S
C46 O53 1.299 . S
O47 Zn44 2.080 . S
O47 C61 1.305 . S
O48 Zn42 1.920 . S
O48 C61 1.234 . S
C49 O54 1.167 . S
C49 O55 1.299 . S
O50 Zn44 2.114 . S
O50 C45 1.166 . S
O51 Zn43 1.905 . S
O51 C45 1.182 . S
O52 Zn43 1.898 . S
O52 C46 1.167 . S
O53 Zn44 2.120 . S
O53 C46 1.299 . S
O54 Zn42 1.898 . S
O54 C49 1.167 . S
O55 Zn44 2.120 . S
O55 C49 1.299 . S
O56 Zn44 2.114 . S
O56 C58 1.166 . S
O57 Zn42 1.905 . S
O57 C58 1.182 . S
C58 O56 1.166 . S
C58 O57 1.182 . S
O59 Zn44 2.080 . S
O59 C62 1.305 . S
O60 Zn43 1.920 . S
O60 C62 1.234 . S
C61 O47 1.305 . S
C61 O48 1.234 . S
C62 O59 1.305 . S
C62 O60 1.234 . S
Zn63 O69 1.920 . S
Zn63 O75 1.898 . S
Zn63 O78 1.905 . S
Zn64 O72 1.905 . S
Zn64 O73 1.898 . S
Zn64 O81 1.920 . S
Zn65 O68 2.080 . S
Zn65 O71 2.114 . S
Zn65 O74 2.120 . S
Zn65 O76 2.120 . S
Zn65 O77 2.114 . S
Zn65 O80 2.080 . S
C66 O71 1.166 . S
C66 O72 1.182 . S
C67 O73 1.167 . S
C67 O74 1.299 . S
O68 Zn65 2.080 . S
O68 C82 1.305 . S
O69 Zn63 1.920 . S
O69 C82 1.234 . S
C70 O75 1.167 . S
C70 O76 1.299 . S
O71 Zn65 2.114 . S
O71 C66 1.166 . S
O72 Zn64 1.905 . S
O72 C66 1.182 . S
O73 Zn64 1.898 . S
O73 C67 1.167 . S
O74 Zn65 2.120 . S
O74 C67 1.299 . S
O75 Zn63 1.898 . S
O75 C70 1.167 . S
O76 Zn65 2.120 . S
O76 C70 1.299 . S
O77 Zn65 2.114 . S
O77 C79 1.166 . S
O78 Zn63 1.905 . S
O78 C79 1.182 . S
C79 O77 1.166 . S
C79 O78 1.182 . S
O80 Zn65 2.080 . S
O80 C83 1.305 . S
O81 Zn64 1.920 . S
O81 C83 1.234 . S
C82 O68 1.305 . S
C82 O69 1.234 . S
C83 O80 1.305 . S
C83 O81 1.234 . S
Zn84 O90 1.920 . S
Zn84 O96 1.898 1_455 S
Zn84 O99 1.905 . S
Zn85 O93 1.905 . S
Zn85 O94 1.898 1_655 S
Zn85 O102 1.920 . S
Zn86 O89 2.080 . S
Zn86 O92 2.114 1_455 S
Zn86 O95 2.120 . S
Zn86 O97 2.120 1_455 S
Zn86 O98 2.114 . S
Zn86 O101 2.080 1_455 S
C87 O92 1.166 . S
C87 O93 1.182 . S
C88 O94 1.167 . S
C88 O95 1.299 . S
O89 Zn86 2.080 . S
O89 C103 1.305 . S
O90 Zn84 1.920 . S
O90 C103 1.234 . S
C91 O96 1.167 . S
C91 O97 1.299 . S
O92 Zn86 2.114 1_655 S
O92 C87 1.166 . S
O93 Zn85 1.905 . S
O93 C87 1.182 . S
O94 Zn85 1.898 1_455 S
O94 C88 1.167 . S
O95 Zn86 2.120 . S
O95 C88 1.299 . S
O96 Zn84 1.898 1_655 S
O96 C91 1.167 . S
O97 Zn86 2.120 1_655 S
O97 C91 1.299 . S
O98 Zn86 2.114 . S
O98 C100 1.166 . S
O99 Zn84 1.905 . S
O99 C100 1.182 . S
C100 O98 1.166 . S
C100 O99 1.182 . S
O101 Zn86 2.080 1_655 S
O101 C104 1.305 . S
O102 Zn85 1.920 . S
O102 C104 1.234 . S
C103 O89 1.305 . S
C103 O90 1.234 . S
C104 O101 1.305 . S
C104 O102 1.234 . S
Zn105 O111 1.920 . S
Zn105 O117 1.898 . S
Zn105 O120 1.905 . S
Zn106 O114 1.905 . S
Zn106 O115 1.898 . S
Zn106 O123 1.920 . S
Zn107 O110 2.080 . S
Zn107 O113 2.114 . S
Zn107 O116 2.120 . S
Zn107 O118 2.120 . S
Zn107 O119 2.114 . S
Zn107 O122 2.080 . S
C108 O113 1.166 . S
C108 O114 1.182 . S
C109 O115 1.167 . S
C109 O116 1.299 . S
O110 Zn107 2.080 . S
O110 C124 1.305 . S
O111 Zn105 1.920 . S
O111 C124 1.234 . S
C112 O117 1.167 . S
C112 O118 1.299 . S
O113 Zn107 2.114 . S
O113 C108 1.166 . S
O114 Zn106 1.905 . S
O114 C108 1.182 . S
O115 Zn106 1.898 . S
O115 C109 1.167 . S
O116 Zn107 2.120 . S
O116 C109 1.299 . S
O117 Zn105 1.898 . S
O117 C112 1.167 . S
O118 Zn107 2.120 . S
O118 C112 1.299 . S
O119 Zn107 2.114 . S
O119 C121 1.166 . S
O120 Zn105 1.905 . S
O120 C121 1.182 . S
C121 O119 1.166 . S
C121 O120 1.182 . S
O122 Zn107 2.080 . S
O122 C125 1.305 . S
O123 Zn106 1.920 . S
O123 C125 1.234 . S
C124 O110 1.305 . S
C124 O111 1.234 . S
C125 O122 1.305 . S
C125 O123 1.234 . S
Zn126 O132 1.920 . S
Zn126 O138 1.898 . S
Zn126 O141 1.905 . S
Zn127 O135 1.905 . S
Zn127 O136 1.898 . S
Zn127 O144 1.920 . S
Zn128 O131 2.080 . S
Zn128 O134 2.114 . S
Zn128 O137 2.120 . S
Zn128 O139 2.120 . S
Zn128 O140 2.114 . S
Zn128 O143 2.080 . S
C129 O134 1.166 . S
C129 O135 1.182 . S
C130 O136 1.167 . S
C130 O137 1.299 . S
O131 Zn128 2.080 . S
O131 C145 1.305 . S
O132 Zn126 1.920 . S
O132 C145 1.234 . S
C133 O138 1.167 . S
C133 O139 1.299 . S
O134 Zn128 2.114 . S
O134 C129 1.166 . S
O135 Zn127 1.905 . S
O135 C129 1.182 . S
O136 Zn127 1.898 . S
O136 C130 1.167 . S
O137 Zn128 2.120 . S
O137 C130 1.299 . S
O138 Zn126 1.898 . S
O138 C133 1.167 . S
O139 Zn128 2.120 . S
O139 C133 1.299 . S
O140 Zn128 2.114 . S
O140 C142 1.166 . S
O141 Zn126 1.905 . S
O141 C142 1.182 . S
C142 O140 1.166 . S
C142 O141 1.182 . S
O143 Zn128 2.080 . S
O143 C146 1.305 . S
O144 Zn127 1.920 . S
O144 C146 1.234 . S
C145 O131 1.305 . S
C145 O132 1.234 . S
C146 O143 1.305 . S
C146 O144 1.234 . S
Zn147 O153 1.920 . S
Zn147 O159 1.898 . S
Zn147 O162 1.905 . S
Zn148 O156 1.905 . S
Zn148 O157 1.898 . S
Zn148 O165 1.920 . S
Zn149 O152 2.080 . S
Zn149 O155 2.114 1_455 S
Zn149 O158 2.120 1_455 S
Zn149 O160 2.120 . S
Zn149 O161 2.114 . S
Zn149 O164 2.080 1_455 S
C150 O155 1.166 . S
C150 O156 1.182 . S
C151 O157 1.167 . S
C151 O158 1.299 . S
O152 Zn149 2.080 . S
O152 C166 1.305 . S
O153 Zn147 1.920 . S
O153 C166 1.234 . S
C154 O159 1.167 . S
C154 O160 1.299 . S
O155 Zn149 2.114 1_655 S
O155 C150 1.166 . S
O156 Zn148 1.905 . S
O156 C150 1.182 . S
O157 Zn148 1.898 . S
O157 C151 1.167 . S
O158 Zn149 2.120 1_655 S
O158 C151 1.299 . S
O159 Zn147 1.898 . S
O159 C154 1.167 . S
O160 Zn149 2.120 . S
O160 C154 1.299 . S
O161 Zn149 2.114 . S
O161 C163 1.166 . S
O162 Zn147 1.905 . S
O162 C163 1.182 . S
C163 O161 1.166 . S
C163 O162 1.182 . S
O164 Zn149 2.080 1_655 S
O164 C167 1.305 . S
O165 Zn148 1.920 . S
O165 C167 1.234 . S
C166 O152 1.305 . S
C166 O153 1.234 . S
C167 O164 1.305 . S
C167 O165 1.234 . S
C168 C169 1.349 . S
C168 C170 1.327 . S
C168 H193 0.950 . S
C169 C168 1.349 . S
C169 C185 1.349 . S
C170 C168 1.327 . S
C170 C189 1.429 . S
C170 H194 0.950 . S
C171 C188 1.574 . S
C171 C190 1.368 1_556 S
C171 H195 0.949 . S
H172 C176 0.949 . S
C173 C174 1.349 . S
C173 C175 1.327 . S
C173 H196 0.950 . S
C174 C173 1.349 . S
C174 C186 1.349 . S
C175 C173 1.327 . S
C175 C191 1.429 . S
C175 H197 0.950 . S
C176 H172 0.949 . S
C176 C184 1.574 . S
C176 C192 1.368 1_554 S
H177 C185 0.950 . S
H178 C183 0.950 . S
H179 C184 0.949 . S
H180 C186 0.950 . S
H181 C187 0.950 . S
H182 C188 0.949 . S
C183 H178 0.950 . S
C183 C185 1.327 . S
C183 C189 1.429 . S
C184 C176 1.574 . S
C184 H179 0.949 . S
C184 C190 1.368 . S
C185 C169 1.349 . S
C185 H177 0.950 . S
C185 C183 1.327 . S
C186 C174 1.349 . S
C186 H180 0.950 . S
C186 C187 1.327 . S
C187 H181 0.950 . S
C187 C186 1.327 . S
C187 C191 1.429 . S
C188 C171 1.574 . S
C188 H182 0.949 . S
C188 C192 1.368 . S
C189 C170 1.429 . S
C189 C183 1.429 . S
C189 C190 1.523 . S
C190 C171 1.368 1_554 S
C190 C184 1.368 . S
C190 C189 1.523 . S
C191 C175 1.429 . S
C191 C187 1.429 . S
C191 C192 1.523 . S
C192 C176 1.368 1_556 S
C192 C188 1.368 . S
C192 C191 1.523 . S
H193 C168 0.950 . S
H194 C170 0.950 . S
H195 C171 0.949 . S
H196 C173 0.950 . S
H197 C175 0.950 . S
C198 C199 1.349 . S
C198 C200 1.327 . S
C198 H223 0.950 . S
C199 C198 1.349 . S
C199 C215 1.349 . S
C200 C198 1.327 . S
C200 C219 1.429 . S
C200 H224 0.950 . S
C201 C218 1.574 . S
C201 C220 1.368 . S
C201 H225 0.949 . S
H202 C206 0.949 . S
C203 C204 1.349 . S
C203 C205 1.327 . S
C203 H226 0.950 . S
C204 C203 1.349 . S
C204 C216 1.349 . S
C205 C203 1.327 . S
C205 C221 1.429 . S
C205 H227 0.950 . S
C206 H202 0.949 . S
C206 C214 1.574 . S
C206 C222 1.368 . S
H207 C215 0.950 . S
H208 C213 0.950 . S
H209 C214 0.949 . S
H210 C216 0.950 . S
H211 C217 0.950 . S
H212 C218 0.949 . S
C213 H208 0.950 . S
C213 C215 1.327 . S
C213 C219 1.429 . S
C214 C206 1.574 . S
C214 H209 0.949 . S
C214 C220 1.368 . S
C215 C199 1.349 . S
C215 H207 0.950 . S
C215 C213 1.327 . S
C216 C204 1.349 . S
C216 H210 0.950 . S
C216 C217 1.327 . S
C217 H211 0.950 . S
C217 C216 1.327 . S
C217 C221 1.429 . S
C218 C201 1.574 . S
C218 H212 0.949 . S
C218 C222 1.368 . S
C219 C200 1.429 . S
C219 C213 1.429 . S
C219 C220 1.523 . S
C220 C201 1.368 . S
C220 C214 1.368 . S
C220 C219 1.523 . S
C221 C205 1.429 . S
C221 C217 1.429 . S
C221 C222 1.523 . S
C222 C206 1.368 . S
C222 C218 1.368 . S
C222 C221 1.523 . S
H223 C198 0.950 . S
H224 C200 0.950 . S
H225 C201 0.949 . S
H226 C203 0.950 . S
H227 C205 0.950 . S
C228 C229 1.349 . S
C228 C230 1.327 . S
C228 H253 0.950 . S
C229 C228 1.349 . S
C229 C245 1.349 . S
C230 C228 1.327 . S
C230 C249 1.429 . S
C230 H254 0.950 . S
C231 C248 1.574 . S
C231 C250 1.368 . S
C231 H255 0.949 . S
H232 C236 0.949 . S
C233 C234 1.349 . S
C233 C235 1.327 . S
C233 H256 0.950 . S
C234 C233 1.349 . S
C234 C246 1.349 . S
C235 C233 1.327 . S
C235 C251 1.429 . S
C235 H257 0.950 . S
C236 H232 0.949 . S
C236 C244 1.574 . S
C236 C252 1.368 . S
H237 C245 0.950 . S
H238 C243 0.950 . S
H239 C244 0.949 . S
H240 C246 0.950 . S
H241 C247 0.950 . S
H242 C248 0.949 . S
C243 H238 0.950 . S
C243 C245 1.327 . S
C243 C249 1.429 . S
C244 C236 1.574 . S
C244 H239 0.949 . S
C244 C250 1.368 . S
C245 C229 1.349 . S
C245 H237 0.950 . S
C245 C243 1.327 . S
C246 C234 1.349 . S
C246 H240 0.950 . S
C246 C247 1.327 . S
C247 H241 0.950 . S
C247 C246 1.327 . S
C247 C251 1.429 . S
C248 C231 1.574 . S
C248 H242 0.949 . S
C248 C252 1.368 . S
C249 C230 1.429 . S
C249 C243 1.429 . S
C249 C250 1.523 . S
C250 C231 1.368 . S
C250 C244 1.368 . S
C250 C249 1.523 . S
C251 C235 1.429 . S
C251 C247 1.429 . S
C251 C252 1.523 . S
C252 C236 1.368 . S
C252 C248 1.368 . S
C252 C251 1.523 . S
H253 C228 0.950 . S
H254 C230 0.950 . S
H255 C231 0.949 . S
H256 C233 0.950 . S
H257 C235 0.950 . S
C258 C259 1.349 . S
C258 C260 1.327 . S
C258 H283 0.950 . S
C259 C258 1.349 . S
C259 C275 1.349 . S
C260 C258 1.327 . S
C260 C279 1.429 . S
C260 H284 0.950 . S
C261 C278 1.574 . S
C261 C280 1.368 . S
C261 H285 0.949 . S
H262 C266 0.949 . S
C263 C264 1.349 . S
C263 C265 1.327 . S
C263 H286 0.950 . S
C264 C263 1.349 . S
C264 C276 1.349 . S
C265 C263 1.327 . S
C265 C281 1.429 . S
C265 H287 0.950 . S
C266 H262 0.949 . S
C266 C274 1.574 . S
C266 C282 1.368 . S
H267 C275 0.950 . S
H268 C273 0.950 . S
H269 C274 0.949 . S
H270 C276 0.950 . S
H271 C277 0.950 . S
H272 C278 0.949 . S
C273 H268 0.950 . S
C273 C275 1.327 . S
C273 C279 1.429 . S
C274 C266 1.574 . S
C274 H269 0.949 . S
C274 C280 1.368 . S
C275 C259 1.349 . S
C275 H267 0.950 . S
C275 C273 1.327 . S
C276 C264 1.349 . S
C276 H270 0.950 . S
C276 C277 1.327 . S
C277 H271 0.950 . S
C277 C276 1.327 . S
C277 C281 1.429 . S
C278 C261 1.574 . S
C278 H272 0.949 . S
C278 C282 1.368 . S
C279 C260 1.429 . S
C279 C273 1.429 . S
C279 C280 1.523 . S
C280 C261 1.368 . S
C280 C274 1.368 . S
C280 C279 1.523 . S
C281 C265 1.429 . S
C281 C277 1.429 . S
C281 C282 1.523 . S
C282 C266 1.368 . S
C282 C278 1.368 . S
C282 C281 1.523 . S
H283 C258 0.950 . S
H284 C260 0.950 . S
H285 C261 0.949 . S
H286 C263 0.950 . S
H287 C265 0.950 . S
C288 C289 1.349 . S
C288 C290 1.327 . S
C288 H313 0.950 . S
C289 C288 1.349 . S
C289 C305 1.349 . S
C290 C288 1.327 . S
C290 C309 1.429 . S
C290 H314 0.950 . S
C291 C308 1.574 . S
C291 C310 1.368 . S
C291 H315 0.949 . S
H292 C296 0.949 . S
C293 C294 1.349 . S
C293 C295 1.327 . S
C293 H316 0.950 . S
C294 C293 1.349 . S
C294 C306 1.349 . S
C295 C293 1.327 . S
C295 C311 1.429 . S
C295 H317 0.950 . S
C296 H292 0.949 . S
C296 C304 1.574 . S
C296 C312 1.368 . S
H297 C305 0.950 . S
H298 C303 0.950 . S
H299 C304 0.949 . S
H300 C306 0.950 . S
H301 C307 0.950 . S
H302 C308 0.949 . S
C303 H298 0.950 . S
C303 C305 1.327 . S
C303 C309 1.429 . S
C304 C296 1.574 . S
C304 H299 0.949 . S
C304 C310 1.368 . S
C305 C289 1.349 . S
C305 H297 0.950 . S
C305 C303 1.327 . S
C306 C294 1.349 . S
C306 H300 0.950 . S
C306 C307 1.327 . S
C307 H301 0.950 . S
C307 C306 1.327 . S
C307 C311 1.429 . S
C308 C291 1.574 . S
C308 H302 0.949 . S
C308 C312 1.368 . S
C309 C290 1.429 . S
C309 C303 1.429 . S
C309 C310 1.523 . S
C310 C291 1.368 . S
C310 C304 1.368 . S
C310 C309 1.523 . S
C311 C295 1.429 . S
C311 C307 1.429 . S
C311 C312 1.523 . S
C312 C296 1.368 . S
C312 C308 1.368 . S
C312 C311 1.523 . S
H313 C288 0.950 . S
H314 C290 0.950 . S
H315 C291 0.949 . S
H316 C293 0.950 . S
H317 C295 0.950 . S
C318 C319 1.349 . S
C318 C320 1.327 . S
C318 H343 0.950 . S
C319 C318 1.349 . S
C319 C335 1.349 . S
C320 C318 1.327 . S
C320 C339 1.429 . S
C320 H344 0.950 . S
C321 C338 1.574 . S
C321 C340 1.368 . S
C321 H345 0.949 . S
H322 C326 0.949 . S
C323 C324 1.349 . S
C323 C325 1.327 . S
C323 H346 0.950 . S
C324 C323 1.349 . S
C324 C336 1.349 . S
C325 C323 1.327 . S
C325 C341 1.429 . S
C325 H347 0.950 . S
C326 H322 0.949 . S
C326 C334 1.574 . S
C326 C342 1.368 . S
H327 C335 0.950 . S
H328 C333 0.950 . S
H329 C334 0.949 . S
H330 C336 0.950 . S
H331 C337 0.950 . S
H332 C338 0.949 . S
C333 H328 0.950 . S
C333 C335 1.327 . S
C333 C339 1.429 . S
C334 C326 1.574 . S
C334 H329 0.949 . S
C334 C340 1.368 . S
C335 C319 1.349 . S
C335 H327 0.950 . S
C335 C333 1.327 . S
C336 C324 1.349 . S
C336 H330 0.950 . S
C336 C337 1.327 . S
C337 H331 0.950 . S
C337 C336 1.327 . S
C337 C341 1.429 . S
C338 C321 1.574 . S
C338 H332 0.949 . S
C338 C342 1.368 . S
C339 C320 1.429 . S
C339 C333 1.429 . S
C339 C340 1.523 . S
C340 C321 1.368 . S
C340 C334 1.368 . S
C340 C339 1.523 . S
C341 C325 1.429 . S
C341 C337 1.429 . S
C341 C342 1.523 . S
C342 C326 1.368 . S
C342 C338 1.368 . S
C342 C341 1.523 . S
H343 C318 0.950 . S
H344 C320 0.950 . S
H345 C321 0.949 . S
H346 C323 0.950 . S
H347 C325 0.950 . S
C348 C349 1.349 . S
C348 C350 1.327 . S
C348 H373 0.950 . S
C349 C348 1.349 . S
C349 C365 1.349 . S
C350 C348 1.327 . S
C350 C369 1.429 . S
C350 H374 0.950 . S
C351 C368 1.574 . S
C351 C370 1.368 . S
C351 H375 0.949 . S
H352 C356 0.949 . S
C353 C354 1.349 . S
C353 C355 1.327 . S
C353 H376 0.950 . S
C354 C353 1.349 . S
C354 C366 1.349 . S
C355 C353 1.327 . S
C355 C371 1.429 . S
C355 H377 0.950 . S
C356 H352 0.949 . S
C356 C364 1.574 . S
C356 C372 1.368 . S
H357 C365 0.950 . S
H358 C363 0.950 . S
H359 C364 0.949 . S
H360 C366 0.950 . S
H361 C367 0.950 . S
H362 C368 0.949 . S
C363 H358 0.950 . S
C363 C365 1.327 . S
C363 C369 1.429 . S
C364 C356 1.574 . S
C364 H359 0.949 . S
C364 C370 1.368 1_565 S
C365 C349 1.349 . S
C365 H357 0.950 . S
C365 C363 1.327 . S
C366 C354 1.349 . S
C366 H360 0.950 . S
C366 C367 1.327 . S
C367 H361 0.950 . S
C367 C366 1.327 . S
C367 C371 1.429 . S
C368 C351 1.574 . S
C368 H362 0.949 . S
C368 C372 1.368 1_545 S
C369 C350 1.429 . S
C369 C363 1.429 . S
C369 C370 1.523 . S
C370 C351 1.368 . S
C370 C364 1.368 1_545 S
C370 C369 1.523 . S
C371 C355 1.429 . S
C371 C367 1.429 . S
C371 C372 1.523 . S
C372 C356 1.368 . S
C372 C368 1.368 1_565 S
C372 C371 1.523 . S
H373 C348 0.950 . S
H374 C350 0.950 . S
H375 C351 0.949 . S
H376 C353 0.950 . S
H377 C355 0.950 . S
C378 C379 1.349 . S
C378 C380 1.327 . S
C378 H403 0.950 . S
C379 C378 1.349 . S
C379 C395 1.349 . S
C380 C378 1.327 . S
C380 C399 1.429 . S
C380 H404 0.950 . S
C381 C398 1.554 1_554 S
C381 C400 1.391 . S
C381 H405 0.945 1_655 S
H382 C386 0.948 . S
C383 C384 1.349 . S
C383 C385 1.327 . S
C383 H406 0.950 1_655 S
C384 C383 1.349 . S
C384 C396 1.349 . S
C385 C383 1.327 . S
C385 C401 1.429 . S
C385 H407 0.950 1_655 S
C386 H382 0.948 . S
C386 C394 1.554 1_556 S
C386 C402 1.387 . S
H387 C395 0.950 1_455 S
H388 C393 0.950 1_455 S
H389 C394 0.949 . S
H390 C396 0.950 . S
H391 C397 0.950 . S
H392 C398 0.946 1_455 S
C393 H388 0.950 1_655 S
C393 C395 1.327 . S
C393 C399 1.429 . S
C394 C386 1.554 1_554 S
C394 H389 0.949 . S
C394 C400 1.368 1_565 S
C395 C379 1.349 . S
C395 H387 0.950 1_655 S
C395 C393 1.327 . S
C396 C384 1.349 . S
C396 H390 0.950 . S
C396 C397 1.327 . S
C397 H391 0.950 . S
C397 C396 1.327 . S
C397 C401 1.429 . S
C398 C381 1.554 1_556 S
C398 H392 0.946 1_655 S
C398 C402 1.372 1_545 S
C399 C380 1.429 . S
C399 C393 1.429 . S
C399 C400 1.523 . S
C400 C381 1.391 . S
C400 C394 1.368 1_545 S
C400 C399 1.523 . S
C401 C385 1.429 . S
C401 C397 1.429 . S
C401 C402 1.523 . S
C402 C386 1.387 . S
C402 C398 1.372 1_565 S
C402 C401 1.523 . S
H403 C378 0.950 . S
H404 C380 0.950 . S
H405 C381 0.945 1_455 S
H406 C383 0.950 1_455 S
H407 C385 0.950 1_455 S
C408 C409 1.349 . S
C408 C410 1.327 . S
C408 H433 0.950 . S
C409 C408 1.349 . S
C409 C425 1.349 . S
C410 C408 1.327 . S
C410 C429 1.429 . S
C410 H434 0.946 1_565 S
C411 C428 1.574 1_565 S
C411 C430 1.368 . S
C411 H435 0.949 . S
H412 C416 0.949 . S
C413 C414 1.349 . S
C413 C415 1.327 . S
C413 H436 0.950 . S
C414 C413 1.349 . S
C414 C426 1.349 . S
C415 C413 1.327 . S
C415 C431 1.429 . S
C415 H437 0.950 . S
C416 H412 0.949 . S
C416 C424 1.574 . S
C416 C432 1.368 . S
H417 C425 0.950 . S
H418 C423 0.950 . S
H419 C424 0.949 . S
H420 C426 0.950 . S
H421 C427 0.950 . S
H422 C428 0.949 1_565 S
C423 H418 0.950 . S
C423 C425 1.327 . S
C423 C429 1.429 . S
C424 C416 1.574 . S
C424 H419 0.949 . S
C424 C430 1.368 1_545 S
C425 C409 1.349 . S
C425 H417 0.950 . S
C425 C423 1.327 . S
C426 C414 1.349 . S
C426 H420 0.950 . S
C426 C427 1.327 . S
C427 H421 0.950 . S
C427 C426 1.327 . S
C427 C431 1.429 . S
C428 C411 1.574 1_545 S
C428 H422 0.949 1_545 S
C428 C432 1.368 . S
C429 C410 1.429 . S
C429 C423 1.429 . S
C429 C430 1.523 . S
C430 C411 1.368 . S
C430 C424 1.368 1_565 S
C430 C429 1.523 . S
C431 C415 1.429 . S
C431 C427 1.429 . S
C431 C432 1.523 . S
C432 C416 1.368 . S
C432 C428 1.368 . S
C432 C431 1.523 . S
H433 C408 0.950 . S
H434 C410 0.946 1_545 S
H435 C411 0.949 . S
H436 C413 0.950 . S
H437 C415 0.950 . S
C438 C439 1.349 . S
C438 C440 1.327 . S
C438 H463 0.950 . S
C439 C438 1.349 . S
C439 C455 1.349 . S
C440 C438 1.327 . S
C440 C459 1.429 . S
C440 H464 0.950 1_565 S
C441 C458 1.583 . S
C441 C460 1.368 . S
C441 H465 0.949 . S
H442 C446 0.949 . S
C443 C444 1.349 . S
C443 C445 1.327 . S
C443 H466 0.950 . S
C444 C443 1.349 . S
C444 C456 1.349 . S
C445 C443 1.327 . S
C445 C461 1.429 . S
C445 H467 0.950 . S
C446 H442 0.949 . S
C446 C454 1.574 . S
C446 C462 1.368 . S
H447 C455 0.950 . S
H448 C453 0.950 . S
H449 C454 0.949 . S
H450 C456 0.950 . S
H451 C457 0.950 . S
H452 C458 0.954 . S
C453 H448 0.950 . S
C453 C455 1.327 . S
C453 C459 1.429 . S
C454 C446 1.574 . S
C454 H449 0.949 . S
C454 C460 1.368 1_545 S
C455 C439 1.349 . S
C455 H447 0.950 . S
C455 C453 1.327 . S
C456 C444 1.349 . S
C456 H450 0.950 . S
C456 C457 1.327 . S
C457 H451 0.950 . S
C457 C456 1.327 . S
C457 C461 1.429 . S
C458 C441 1.583 . S
C458 H452 0.954 . S
C458 C462 1.353 1_565 S
C459 C440 1.429 . S
C459 C453 1.429 . S
C459 C460 1.523 . S
C460 C441 1.368 . S
C460 C454 1.368 1_565 S
C460 C459 1.523 . S
C461 C445 1.429 . S
C461 C457 1.429 . S
C461 C462 1.523 . S
C462 C446 1.368 . S
C462 C458 1.353 1_545 S
C462 C461 1.523 . S
H463 C438 0.950 . S
H464 C440 0.950 1_545 S
H465 C441 0.949 . S
H466 C443 0.950 . S
H467 C445 0.950 . S
C468 C469 1.349 . S
C468 C470 1.327 . S
C468 H493 0.950 . S
C469 C468 1.349 . S
C469 C485 1.349 . S
C470 C468 1.327 . S
C470 C489 1.429 . S
C470 H494 0.950 . S
C471 C488 1.574 . S
C471 C490 1.368 1_565 S
C471 H495 0.949 . S
H472 C476 0.949 . S
C473 C474 1.349 . S
C473 C475 1.327 . S
C473 H496 0.950 . S
C474 C473 1.349 . S
C474 C486 1.349 . S
C475 C473 1.327 . S
C475 C491 1.429 . S
C475 H497 0.950 . S
C476 H472 0.949 . S
C476 C484 1.574 . S
C476 C492 1.368 1_545 S
H477 C485 0.950 . S
H478 C483 0.950 1_565 S
H479 C484 0.949 . S
H480 C486 0.950 . S
H481 C487 0.950 . S
H482 C488 0.949 . S
C483 H478 0.950 1_545 S
C483 C485 1.327 . S
C483 C489 1.429 . S
C484 C476 1.574 . S
C484 H479 0.949 . S
C484 C490 1.368 . S
C485 C469 1.349 . S
C485 H477 0.950 . S
C485 C483 1.327 . S
C486 C474 1.349 . S
C486 H480 0.950 . S
C486 C487 1.327 . S
C487 H481 0.950 . S
C487 C486 1.327 . S
C487 C491 1.429 . S
C488 C471 1.574 . S
C488 H482 0.949 . S
C488 C492 1.368 . S
C489 C470 1.429 . S
C489 C483 1.429 . S
C489 C490 1.523 . S
C490 C471 1.368 1_545 S
C490 C484 1.368 . S
C490 C489 1.523 . S
C491 C475 1.429 . S
C491 C487 1.429 . S
C491 C492 1.523 . S
C492 C476 1.368 1_565 S
C492 C488 1.368 . S
C492 C491 1.523 . S
H493 C468 0.950 . S
H494 C470 0.950 . S
H495 C471 0.949 . S
H496 C473 0.950 . S
H497 C475 0.950 . S
C498 C499 1.349 . S
C498 C500 1.327 . S
C498 H523 0.950 . S
C499 C498 1.349 . S
C499 C515 1.349 . S
C500 C498 1.327 . S
C500 C519 1.429 . S
C500 H524 0.950 . S
C501 C518 1.574 1_565 S
C501 C520 1.368 . S
C501 H525 0.949 . S
H502 C506 0.949 . S
C503 C504 1.349 . S
C503 C505 1.327 . S
C503 H526 0.950 . S
C504 C503 1.349 . S
C504 C516 1.349 . S
C505 C503 1.327 . S
C505 C521 1.429 . S
C505 H527 0.950 . S
C506 H502 0.949 . S
C506 C514 1.574 . S
C506 C522 1.368 1_565 S
H507 C515 0.950 . S
H508 C513 0.950 . S
H509 C514 0.949 . S
H510 C516 0.950 . S
H511 C517 0.950 . S
H512 C518 0.949 . S
C513 H508 0.950 . S
C513 C515 1.327 . S
C513 C519 1.429 . S
C514 C506 1.574 . S
C514 H509 0.949 . S
C514 C520 1.368 . S
C515 C499 1.349 . S
C515 H507 0.950 . S
C515 C513 1.327 . S
C516 C504 1.349 . S
C516 H510 0.950 . S
C516 C517 1.327 . S
C517 H511 0.950 . S
C517 C516 1.327 . S
C517 C521 1.429 . S
C518 C501 1.574 1_545 S
C518 H512 0.949 . S
C518 C522 1.368 . S
C519 C500 1.429 . S
C519 C513 1.429 . S
C519 C520 1.523 . S
C520 C501 1.368 . S
C520 C514 1.368 . S
C520 C519 1.523 . S
C521 C505 1.429 . S
C521 C517 1.429 . S
C521 C522 1.523 . S
C522 C506 1.368 1_545 S
C522 C518 1.368 . S
C522 C521 1.523 . S
H523 C498 0.950 . S
H524 C500 0.950 . S
H525 C501 0.949 . S
H526 C503 0.950 . S
H527 C505 0.950 . S
C528 C529 1.349 . S
C528 C530 1.327 . S
C528 H553 0.950 . S
C529 C528 1.349 . S
C529 C545 1.349 . S
C530 C528 1.327 . S
C530 C549 1.429 . S
C530 H554 0.950 . S
C531 C548 1.574 . S
C531 C550 1.368 . S
C531 H555 0.949 . S
H532 C536 0.949 . S
C533 C534 1.349 . S
C533 C535 1.327 . S
C533 H556 0.950 . S
C534 C533 1.349 . S
C534 C546 1.349 . S
C535 C533 1.327 . S
C535 C551 1.429 . S
C535 H557 0.950 . S
C536 H532 0.949 . S
C536 C544 1.574 . S
C536 C552 1.368 . S
H537 C545 0.950 . S
H538 C543 0.950 . S
H539 C544 0.949 . S
H540 C546 0.950 . S
H541 C547 0.950 . S
H542 C548 0.949 . S
C543 H538 0.950 . S
C543 C545 1.327 . S
C543 C549 1.429 . S
C544 C536 1.574 . S
C544 H539 0.949 . S
C544 C550 1.368 1_545 S
C545 C529 1.349 . S
C545 H537 0.950 . S
C545 C543 1.327 . S
C546 C534 1.349 . S
C546 H540 0.950 . S
C546 C547 1.327 . S
C547 H541 0.950 . S
C547 C546 1.327 . S
C547 C551 1.429 . S
C548 C531 1.574 . S
C548 H542 0.949 . S
C548 C552 1.368 1_565 S
C549 C530 1.429 . S
C549 C543 1.429 . S
C549 C550 1.523 . S
C550 C531 1.368 . S
C550 C544 1.368 1_565 S
C550 C549 1.523 . S
C551 C535 1.429 . S
C551 C547 1.429 . S
C551 C552 1.523 . S
C552 C536 1.368 . S
C552 C548 1.368 1_545 S
C552 C551 1.523 . S
H553 C528 0.950 . S
H554 C530 0.950 . S
H555 C531 0.949 . S
H556 C533 0.950 . S
H557 C535 0.950 . S
C558 C559 1.349 . S
C558 C560 1.327 . S
C558 H583 0.950 . S
C559 C558 1.349 . S
C559 C575 1.349 . S
C560 C558 1.327 . S
C560 C579 1.429 . S
C560 H584 0.950 . S
C561 C578 1.574 1_545 S
C561 C580 1.368 . S
C561 H585 0.949 . S
H562 C566 0.949 . S
C563 C564 1.349 . S
C563 C565 1.327 . S
C563 H586 0.950 . S
C564 C563 1.349 . S
C564 C576 1.349 . S
C565 C563 1.327 . S
C565 C581 1.429 . S
C565 H587 0.950 . S
C566 H562 0.949 . S
C566 C574 1.574 1_565 S
C566 C582 1.368 . S
H567 C575 0.950 . S
H568 C573 0.950 . S
H569 C574 0.949 . S
H570 C576 0.950 . S
H571 C577 0.950 . S
H572 C578 0.949 . S
C573 H568 0.950 . S
C573 C575 1.327 . S
C573 C579 1.429 . S
C574 C566 1.574 1_545 S
C574 H569 0.949 . S
C574 C580 1.368 . S
C575 C559 1.349 . S
C575 H567 0.950 . S
C575 C573 1.327 . S
C576 C564 1.349 . S
C576 H570 0.950 . S
C576 C577 1.327 . S
C577 H571 0.950 . S
C577 C576 1.327 . S
C577 C581 1.429 . S
C578 C561 1.574 1_565 S
C578 H572 0.949 . S
C578 C582 1.368 . S
C579 C560 1.429 . S
C579 C573 1.429 . S
C579 C580 1.523 . S
C580 C561 1.368 . S
C580 C574 1.368 . S
C580 C579 1.523 . S
C581 C565 1.429 . S
C581 C577 1.429 . S
C581 C582 1.523 . S
C582 C566 1.368 . S
C582 C578 1.368 . S
C582 C581 1.523 . S
H583 C558 0.950 . S
H584 C560 0.950 . S
H585 C561 0.949 . S
H586 C563 0.950 . S
H587 C565 0.950 . S
C588 C589 1.349 . S
C588 C590 1.327 . S
C588 H613 0.950 . S
C589 C588 1.349 . S
C589 C605 1.349 . S
C590 C588 1.327 . S
C590 C609 1.429 . S
C590 H614 0.950 . S
C591 C608 1.574 1_565 S
C591 C610 1.368 . S
C591 H615 0.949 . S
H592 C596 0.949 . S
C593 C594 1.349 . S
C593 C595 1.327 . S
C593 H616 0.950 . S
C594 C593 1.349 . S
C594 C606 1.349 . S
C595 C593 1.327 . S
C595 C611 1.429 . S
C595 H617 0.950 . S
C596 H592 0.949 . S
C596 C604 1.574 1_545 S
C596 C612 1.368 . S
H597 C605 0.950 . S
H598 C603 0.950 . S
H599 C604 0.949 . S
H600 C606 0.950 . S
H601 C607 0.950 . S
H602 C608 0.949 . S
C603 H598 0.950 . S
C603 C605 1.327 . S
C603 C609 1.429 . S
C604 C596 1.574 1_565 S
C604 H599 0.949 . S
C604 C610 1.368 . S
C605 C589 1.349 . S
C605 H597 0.950 . S
C605 C603 1.327 . S
C606 C594 1.349 . S
C606 H600 0.950 . S
C606 C607 1.327 . S
C607 H601 0.950 . S
C607 C606 1.327 . S
C607 C611 1.429 . S
C608 C591 1.574 1_545 S
C608 H602 0.949 . S
C608 C612 1.368 . S
C609 C590 1.429 . S
C609 C603 1.429 . S
C609 C610 1.523 . S
C610 C591 1.368 . S
C610 C604 1.368 . S
C610 C609 1.523 . S
C611 C595 1.429 . S
C611 C607 1.429 . S
C611 C612 1.523 . S
C612 C596 1.368 . S
C612 C608 1.368 . S
C612 C611 1.523 . S
H613 C588 0.950 . S
H614 C590 0.950 . S
H615 C591 0.949 . S
H616 C593 0.950 . S
H617 C595 0.950 . S
C618 C619 1.349 . S
C618 C620 1.327 . S
C618 H643 0.950 . S
C619 C618 1.349 . S
C619 C635 1.349 . S
C620 C618 1.327 . S
C620 C639 1.429 . S
C620 H644 0.950 . S
C621 C638 1.574 1_565 S
C621 C640 1.368 . S
C621 H645 0.949 . S
H622 C626 0.949 . S
C623 C624 1.349 . S
C623 C625 1.327 . S
C623 H646 0.950 . S
C624 C623 1.349 . S
C624 C636 1.349 . S
C625 C623 1.327 . S
C625 C641 1.429 . S
C625 H647 0.950 . S
C626 H622 0.949 . S
C626 C634 1.574 1_545 S
C626 C642 1.368 . S
H627 C635 0.950 . S
H628 C633 0.950 . S
H629 C634 0.949 . S
H630 C636 0.950 . S
H631 C637 0.950 . S
H632 C638 0.949 . S
C633 H628 0.950 . S
C633 C635 1.327 . S
C633 C639 1.429 . S
C634 C626 1.574 1_565 S
C634 H629 0.949 . S
C634 C640 1.368 . S
C635 C619 1.349 . S
C635 H627 0.950 . S
C635 C633 1.327 . S
C636 C624 1.349 . S
C636 H630 0.950 . S
C636 C637 1.327 . S
C637 H631 0.950 . S
C637 C636 1.327 . S
C637 C641 1.429 . S
C638 C621 1.574 1_545 S
C638 H632 0.949 . S
C638 C642 1.368 . S
C639 C620 1.429 . S
C639 C633 1.429 . S
C639 C640 1.523 . S
C640 C621 1.368 . S
C640 C634 1.368 . S
C640 C639 1.523 . S
C641 C625 1.429 . S
C641 C637 1.429 . S
C641 C642 1.523 . S
C642 C626 1.368 . S
C642 C638 1.368 . S
C642 C641 1.523 . S
H643 C618 0.950 . S
H644 C620 0.950 . S
H645 C621 0.949 . S
H646 C623 0.950 . S
H647 C625 0.950 . S
C648 C649 1.349 . S
C648 C650 1.327 . S
C648 H673 0.950 . S
C649 C648 1.349 . S
C649 C665 1.349 . S
C650 C648 1.327 . S
C650 C669 1.429 . S
C650 H674 0.950 . S
C651 C668 1.574 . S
C651 C670 1.368 . S
C651 H675 0.949 . S
H652 C656 0.949 . S
C653 C654 1.349 . S
C653 C655 1.327 . S
C653 H676 0.950 . S
C654 C653 1.349 . S
C654 C666 1.349 . S
C655 C653 1.327 . S
C655 C671 1.429 . S
C655 H677 0.950 . S
C656 H652 0.949 . S
C656 C664 1.574 . S
C656 C672 1.368 . S
H657 C665 0.950 . S
H658 C663 0.950 . S
H659 C664 0.949 . S
H660 C666 0.950 . S
H661 C667 0.950 . S
H662 C668 0.949 . S
C663 H658 0.950 . S
C663 C665 1.327 . S
C663 C669 1.429 . S
C664 C656 1.574 . S
C664 H659 0.949 . S
C664 C670 1.368 . S
C665 C649 1.349 . S
C665 H657 0.950 . S
C665 C663 1.327 . S
C666 C654 1.349 . S
C666 H660 0.950 . S
C666 C667 1.327 . S
C667 H661 0.950 . S
C667 C666 1.327 . S
C667 C671 1.429 . S
C668 C651 1.574 . S
C668 H662 0.949 . S
C668 C672 1.368 . S
C669 C650 1.429 . S
C669 C663 1.429 . S
C669 C670 1.523 . S
C670 C651 1.368 . S
C670 C664 1.368 . S
C670 C669 1.523 . S
C671 C655 1.429 . S
C671 C667 1.429 . S
C671 C672 1.523 . S
C672 C656 1.368 . S
C672 C668 1.368 . S
C672 C671 1.523 . S
H673 C648 0.950 . S
H674 C650 0.950 . S
H675 C651 0.949 . S
H676 C653 0.950 . S
H677 C655 0.950 . S
C678 C679 1.349 . S
C678 C680 1.327 . S
C678 H703 0.950 . S
C679 C678 1.349 . S
C679 C695 1.349 . S
C680 C678 1.327 . S
C680 C699 1.429 . S
C680 H704 0.950 . S
C681 C698 1.574 . S
C681 C700 1.368 . S
C681 H705 0.949 . S
H682 C686 0.949 . S
C683 C684 1.349 . S
C683 C685 1.327 . S
C683 H706 0.950 . S
C684 C683 1.349 . S
C684 C696 1.349 . S
C685 C683 1.327 . S
C685 C701 1.429 . S
C685 H707 0.950 . S
C686 H682 0.949 . S
C686 C694 1.574 . S
C686 C702 1.368 . S
H687 C695 0.950 . S
H688 C693 0.950 . S
H689 C694 0.949 . S
H690 C696 0.950 . S
H691 C697 0.950 . S
H692 C698 0.949 . S
C693 H688 0.950 . S
C693 C695 1.327 . S
C693 C699 1.429 . S
C694 C686 1.574 . S
C694 H689 0.949 . S
C694 C700 1.368 . S
C695 C679 1.349 . S
C695 H687 0.950 . S
C695 C693 1.327 . S
C696 C684 1.349 . S
C696 H690 0.950 . S
C696 C697 1.327 . S
C697 H691 0.950 . S
C697 C696 1.327 . S
C697 C701 1.429 . S
C698 C681 1.574 . S
C698 H692 0.949 . S
C698 C702 1.368 . S
C699 C680 1.429 . S
C699 C693 1.429 . S
C699 C700 1.523 . S
C700 C681 1.368 . S
C700 C694 1.368 . S
C700 C699 1.523 . S
C701 C685 1.429 . S
C701 C697 1.429 . S
C701 C702 1.523 . S
C702 C686 1.368 . S
C702 C698 1.368 . S
C702 C701 1.523 . S
H703 C678 0.950 . S
H704 C680 0.950 . S
H705 C681 0.949 . S
H706 C683 0.950 . S
H707 C685 0.950 . S
C708 C709 1.349 . S
C708 C710 1.327 . S
C708 H733 0.950 . S
C709 C708 1.349 . S
C709 C725 1.349 . S
C710 C708 1.327 . S
C710 C729 1.429 . S
C710 H734 0.950 . S
C711 C728 1.574 . S
C711 C730 1.368 . S
C711 H735 0.949 . S
H712 C716 0.949 . S
C713 C714 1.349 . S
C713 C715 1.327 . S
C713 H736 0.950 . S
C714 C713 1.349 . S
C714 C726 1.349 . S
C715 C713 1.327 . S
C715 C731 1.429 . S
C715 H737 0.950 . S
C716 H712 0.949 . S
C716 C724 1.574 . S
C716 C732 1.368 . S
H717 C725 0.950 . S
H718 C723 0.950 . S
H719 C724 0.949 . S
H720 C726 0.950 . S
H721 C727 0.950 . S
H722 C728 0.949 . S
C723 H718 0.950 . S
C723 C725 1.327 . S
C723 C729 1.429 . S
C724 C716 1.574 . S
C724 H719 0.949 . S
C724 C730 1.368 . S
C725 C709 1.349 . S
C725 H717 0.950 . S
C725 C723 1.327 . S
C726 C714 1.349 . S
C726 H720 0.950 . S
C726 C727 1.327 . S
C727 H721 0.950 . S
C727 C726 1.327 . S
C727 C731 1.429 . S
C728 C711 1.574 . S
C728 H722 0.949 . S
C728 C732 1.368 . S
C729 C710 1.429 . S
C729 C723 1.429 . S
C729 C730 1.523 . S
C730 C711 1.368 . S
C730 C724 1.368 . S
C730 C729 1.523 . S
C731 C715 1.429 . S
C731 C727 1.429 . S
C731 C732 1.523 . S
C732 C716 1.368 . S
C732 C728 1.368 . S
C732 C731 1.523 . S
H733 C708 0.950 . S
H734 C710 0.950 . S
H735 C711 0.949 . S
H736 C713 0.950 . S
H737 C715 0.950 . S
C738 C739 1.349 . S
C738 C740 1.327 . S
C738 H763 0.950 . S
C739 C738 1.349 . S
C739 C755 1.349 . S
C740 C738 1.327 . S
C740 C759 1.429 . S
C740 H764 0.950 . S
C741 C758 1.574 . S
C741 C760 1.368 . S
C741 H765 0.949 . S
H742 C746 0.949 . S
C743 C744 1.349 . S
C743 C745 1.327 . S
C743 H766 0.950 . S
C744 C743 1.349 . S
C744 C756 1.349 . S
C745 C743 1.327 . S
C745 C761 1.429 . S
C745 H767 0.950 . S
C746 H742 0.949 . S
C746 C754 1.574 . S
C746 C762 1.368 . S
H747 C755 0.950 . S
H748 C753 0.950 . S
H749 C754 0.949 . S
H750 C756 0.950 . S
H751 C757 0.950 . S
H752 C758 0.949 . S
C753 H748 0.950 . S
C753 C755 1.327 . S
C753 C759 1.429 . S
C754 C746 1.574 . S
C754 H749 0.949 . S
C754 C760 1.368 . S
C755 C739 1.349 . S
C755 H747 0.950 . S
C755 C753 1.327 . S
C756 C744 1.349 . S
C756 H750 0.950 . S
C756 C757 1.327 . S
C757 H751 0.950 . S
C757 C756 1.327 . S
C757 C761 1.429 . S
C758 C741 1.574 . S
C758 H752 0.949 . S
C758 C762 1.368 . S
C759 C740 1.429 . S
C759 C753 1.429 . S
C759 C760 1.523 . S
C760 C741 1.368 . S
C760 C754 1.368 . S
C760 C759 1.523 . S
C761 C745 1.429 . S
C761 C757 1.429 . S
C761 C762 1.523 . S
C762 C746 1.368 . S
C762 C758 1.368 . S
C762 C761 1.523 . S
H763 C738 0.950 . S
H764 C740 0.950 . S
H765 C741 0.949 . S
H766 C743 0.950 . S
H767 C745 0.950 . S
C768 C769 1.349 . S
C768 C770 1.327 . S
C768 H793 0.950 . S
C769 C768 1.349 . S
C769 C785 1.349 . S
C770 C768 1.327 . S
C770 C789 1.429 . S
C770 H794 0.950 . S
C771 C788 1.574 . S
C771 C790 1.368 . S
C771 H795 0.949 . S
H772 C776 0.949 . S
C773 C774 1.349 . S
C773 C775 1.327 . S
C773 H796 0.950 . S
C774 C773 1.349 . S
C774 C786 1.349 . S
C775 C773 1.327 . S
C775 C791 1.429 . S
C775 H797 0.950 . S
C776 H772 0.949 . S
C776 C784 1.574 . S
C776 C792 1.368 . S
H777 C785 0.950 . S
H778 C783 0.950 . S
H779 C784 0.949 . S
H780 C786 0.950 . S
H781 C787 0.950 . S
H782 C788 0.949 . S
C783 H778 0.950 . S
C783 C785 1.327 . S
C783 C789 1.429 . S
C784 C776 1.574 . S
C784 H779 0.949 . S
C784 C790 1.368 . S
C785 C769 1.349 . S
C785 H777 0.950 . S
C785 C783 1.327 . S
C786 C774 1.349 . S
C786 H780 0.950 . S
C786 C787 1.327 . S
C787 H781 0.950 . S
C787 C786 1.327 . S
C787 C791 1.429 . S
C788 C771 1.574 . S
C788 H782 0.949 . S
C788 C792 1.368 . S
C789 C770 1.429 . S
C789 C783 1.429 . S
C789 C790 1.523 . S
C790 C771 1.368 . S
C790 C784 1.368 . S
C790 C789 1.523 . S
C791 C775 1.429 . S
C791 C787 1.429 . S
C791 C792 1.523 . S
C792 C776 1.368 . S
C792 C788 1.368 . S
C792 C791 1.523 . S
H793 C768 0.950 . S
H794 C770 0.950 . S
H795 C771 0.949 . S
H796 C773 0.950 . S
H797 C775 0.950 . S
C798 C799 1.349 . S
C798 C800 1.327 . S
C798 H823 0.950 . S
C799 C798 1.349 . S
C799 C815 1.349 . S
C800 C798 1.327 . S
C800 C819 1.429 . S
C800 H824 0.950 . S
C801 C818 1.574 . S
C801 C820 1.368 . S
C801 H825 0.949 . S
H802 C806 0.949 . S
C803 C804 1.349 . S
C803 C805 1.327 . S
C803 H826 0.950 . S
C804 C803 1.349 . S
C804 C816 1.349 . S
C805 C803 1.327 . S
C805 C821 1.429 . S
C805 H827 0.950 . S
C806 H802 0.949 . S
C806 C814 1.574 . S
C806 C822 1.368 . S
H807 C815 0.950 . S
H808 C813 0.950 . S
H809 C814 0.949 . S
H810 C816 0.950 . S
H811 C817 0.950 . S
H812 C818 0.949 . S
C813 H808 0.950 . S
C813 C815 1.327 . S
C813 C819 1.429 . S
C814 C806 1.574 . S
C814 H809 0.949 . S
C814 C820 1.368 . S
C815 C799 1.349 . S
C815 H807 0.950 . S
C815 C813 1.327 . S
C816 C804 1.349 . S
C816 H810 0.950 . S
C816 C817 1.327 . S
C817 H811 0.950 . S
C817 C816 1.327 . S
C817 C821 1.429 . S
C818 C801 1.574 . S
C818 H812 0.949 . S
C818 C822 1.368 . S
C819 C800 1.429 . S
C819 C813 1.429 . S
C819 C820 1.523 . S
C820 C801 1.368 . S
C820 C814 1.368 . S
C820 C819 1.523 . S
C821 C805 1.429 . S
C821 C817 1.429 . S
C821 C822 1.523 . S
C822 C806 1.368 . S
C822 C818 1.368 . S
C822 C821 1.523 . S
H823 C798 0.950 . S
H824 C800 0.950 . S
H825 C801 0.949 . S
H826 C803 0.950 . S
H827 C805 0.950 . S
C828 C829 1.349 . S
C828 C830 1.327 . S
C828 H853 0.950 . S
C829 C828 1.349 . S
C829 C845 1.349 . S
C830 C828 1.327 . S
C830 C849 1.429 . S
C830 H854 0.950 . S
C831 C848 1.574 . S
C831 C850 1.368 . S
C831 H855 0.949 . S
H832 C836 0.949 . S
C833 C834 1.349 . S
C833 C835 1.327 . S
C833 H856 0.950 . S
C834 C833 1.349 . S
C834 C846 1.349 . S
C835 C833 1.327 . S
C835 C851 1.429 . S
C835 H857 0.950 . S
C836 H832 0.949 . S
C836 C844 1.574 . S
C836 C852 1.368 . S
H837 C845 0.950 . S
H838 C843 0.950 . S
H839 C844 0.949 . S
H840 C846 0.950 . S
H841 C847 0.950 . S
H842 C848 0.949 . S
C843 H838 0.950 . S
C843 C845 1.327 . S
C843 C849 1.429 . S
C844 C836 1.574 . S
C844 H839 0.949 . S
C844 C850 1.368 . S
C845 C829 1.349 . S
C845 H837 0.950 . S
C845 C843 1.327 . S
C846 C834 1.349 . S
C846 H840 0.950 . S
C846 C847 1.327 . S
C847 H841 0.950 . S
C847 C846 1.327 . S
C847 C851 1.429 . S
C848 C831 1.574 . S
C848 H842 0.949 . S
C848 C852 1.368 . S
C849 C830 1.429 . S
C849 C843 1.429 . S
C849 C850 1.523 . S
C850 C831 1.368 . S
C850 C844 1.368 . S
C850 C849 1.523 . S
C851 C835 1.429 . S
C851 C847 1.429 . S
C851 C852 1.523 . S
C852 C836 1.368 . S
C852 C848 1.368 . S
C852 C851 1.523 . S
H853 C828 0.950 . S
H854 C830 0.950 . S
H855 C831 0.949 . S
H856 C833 0.950 . S
H857 C835 0.950 . S
C858 C859 1.349 . S
C858 C860 1.327 . S
C858 H883 0.950 . S
C859 C858 1.349 . S
C859 C875 1.349 . S
C860 C858 1.327 . S
C860 C879 1.429 . S
C860 H884 0.950 . S
C861 C878 1.574 . S
C861 C880 1.368 . S
C861 H885 0.949 . S
H862 C866 0.949 . S
C863 C864 1.349 . S
C863 C865 1.327 . S
C863 H886 0.950 . S
C864 C863 1.349 . S
C864 C876 1.349 . S
C865 C863 1.327 . S
C865 C881 1.429 . S
C865 H887 0.950 . S
C866 H862 0.949 . S
C866 C874 1.574 . S
C866 C882 1.368 . S
H867 C875 0.950 . S
H868 C873 0.950 . S
H869 C874 0.949 . S
H870 C876 0.950 . S
H871 C877 0.950 . S
H872 C878 0.949 . S
C873 H868 0.950 . S
C873 C875 1.327 . S
C873 C879 1.429 . S
C874 C866 1.574 . S
C874 H869 0.949 . S
C874 C880 1.368 . S
C875 C859 1.349 . S
C875 H867 0.950 . S
C875 C873 1.327 . S
C876 C864 1.349 . S
C876 H870 0.950 . S
C876 C877 1.327 . S
C877 H871 0.950 . S
C877 C876 1.327 . S
C877 C881 1.429 . S
C878 C861 1.574 . S
C878 H872 0.949 . S
C878 C882 1.368 . S
C879 C860 1.429 . S
C879 C873 1.429 . S
C879 C880 1.523 . S
C880 C861 1.368 . S
C880 C874 1.368 . S
C880 C879 1.523 . S
C881 C865 1.429 . S
C881 C877 1.429 . S
C881 C882 1.523 . S
C882 C866 1.368 . S
C882 C878 1.368 . S
C882 C881 1.523 . S
H883 C858 0.950 . S
H884 C860 0.950 . S
H885 C861 0.949 . S
H886 C863 0.950 . S
H887 C865 0.950 . S
C169 C19 1.436 . S
C174 C103 1.436 . S
C199 C124 1.436 . S
C204 C41 1.436 . S
C229 C61 1.436 . S
C234 C146 1.436 . S
C259 C82 1.436 . S
C264 C167 1.436 . S
C289 C83 1.436 . S
C294 C166 1.435 . S
C319 C125 1.436 . S
C324 C40 1.435 . S
C349 C145 1.436 . S
C354 C62 1.436 . S
C379 C20 1.436 . S
C384 C104 1.436 . S
C409 C109 1.115 . S
C414 C4 1.113 . S
C439 C28 1.115 . S
C444 C133 1.113 . S
C469 C154 1.115 . S
C474 C46 1.113 . S
C499 C88 1.115 . S
C504 C67 1.115 . S
C529 C87 1.084 . S
C534 C79 1.085 . S
C559 C150 1.084 . S
C564 C45 1.086 . S
C589 C24 1.084 . S
C594 C142 1.086 . S
C619 C121 1.084 . S
C624 C3 1.086 . S
C649 C151 1.115 . S
C654 C49 1.118 . S
C679 C91 1.115 . S
C684 C70 1.116 . S
C709 C112 1.115 . S
C714 C7 1.118 . S
C739 C25 1.115 . S
C744 C130 1.118 . S
C769 C129 1.084 . S
C774 C37 1.084 . S
C799 C16 1.084 . S
C804 C108 1.084 . S
C829 C100 1.084 . S
C834 C66 1.084 . S
C859 C163 1.084 . S
C864 C58 1.082 . S
