# Generated by pormake.
# Topology qtz-e, (6)-cn, num edge types: 1
# Building blocks:
#     Node 0, Type 0, BuildingBlock: KUMBUR_clean_sbu_0, # of connection points: 6
#     Node 1, Type 0, BuildingBlock: KUMBUR_clean_sbu_0, # of connection points: 6
#     Node 2, Type 0, BuildingBlock: KUMBUR_clean_sbu_0, # of connection points: 6
#     Node 3, Type 0, BuildingBlock: KUMBUR_clean_sbu_0, # of connection points: 6
#     Node 4, Type 0, BuildingBlock: KUMBUR_clean_sbu_0, # of connection points: 6
#     Node 5, Type 0, BuildingBlock: KUMBUR_clean_sbu_0, # of connection points: 6
#     Edge 6, Type (0, 0), BuildingBlock: KIFKEQ_clean_linker_1, # of connection points: 2
#     Edge 7, Type (0, 0), BuildingBlock: KIFKEQ_clean_linker_1, # of connection points: 2
#     Edge 8, Type (0, 0), BuildingBlock: KIFKEQ_clean_linker_1, # of connection points: 2
#     Edge 9, Type (0, 0), BuildingBlock: KIFKEQ_clean_linker_1, # of connection points: 2
#     Edge 10, Type (0, 0), BuildingBlock: KIFKEQ_clean_linker_1, # of connection points: 2
#     Edge 11, Type (0, 0), BuildingBlock: KIFKEQ_clean_linker_1, # of connection points: 2
#     Edge 12, Type (0, 0), BuildingBlock: KIFKEQ_clean_linker_1, # of connection points: 2
#     Edge 13, Type (0, 0), BuildingBlock: KIFKEQ_clean_linker_1, # of connection points: 2
#     Edge 14, Type (0, 0), BuildingBlock: KIFKEQ_clean_linker_1, # of connection points: 2
#     Edge 15, Type (0, 0), BuildingBlock: KIFKEQ_clean_linker_1, # of connection points: 2
#     Edge 16, Type (0, 0), BuildingBlock: KIFKEQ_clean_linker_1, # of connection points: 2
#     Edge 17, Type (0, 0), BuildingBlock: KIFKEQ_clean_linker_1, # of connection points: 2
#     Edge 18, Type (0, 0), BuildingBlock: KIFKEQ_clean_linker_1, # of connection points: 2
#     Edge 19, Type (0, 0), BuildingBlock: KIFKEQ_clean_linker_1, # of connection points: 2
#     Edge 20, Type (0, 0), BuildingBlock: KIFKEQ_clean_linker_1, # of connection points: 2
#     Edge 21, Type (0, 0), BuildingBlock: KIFKEQ_clean_linker_1, # of connection points: 2
#     Edge 22, Type (0, 0), BuildingBlock: KIFKEQ_clean_linker_1, # of connection points: 2
#     Edge 23, Type (0, 0), BuildingBlock: KIFKEQ_clean_linker_1, # of connection points: 2
# Relax obj value: 0.058
# Max RMSD: 0.143
# Mean RMSD: 0.143
data_MOF--net-qtz-e--node1-KUMBUR_clean_sbu_0--edge1-KIFKEQ_clean_linker_1
_symmetry_space_group_name_H-M    P1
_symmetry_Int_Tables_number       1
_symmetry_cell_setting            triclinic
loop_
_symmetry_equiv_pos_as_xyz
'x, y, z'
_cell_length_a     29.908824
_cell_length_b     29.889697
_cell_length_c     46.761262
_cell_angle_alpha  89.983675
_cell_angle_beta   90.060004
_cell_angle_gamma 120.08132
loop_
_atom_site_label
_atom_site_type_symbol
_atom_site_fract_x
_atom_site_fract_y
_atom_site_fract_z
_atom_type_partial_charge
Tb0 Tb 0.262 0.49861 0.05579 0.0
C1 C 0.09601 0.28562 0.01765 0.0
C2 C 0.10424 0.23328 0.05435 0.0
C3 C 0.02074 0.2049 0.03209 0.0
C4 C 0.1259 0.27807 0.0372 0.0
C5 C 0.0434 0.24844 1.01413 0.0
C6 C 0.05113 0.19738 0.05225 0.0
C7 C 0.04142 0.29728 0.97344 0.0
N8 N 0.11963 0.32776 1.00059 0.0
C9 C 0.09385 0.33285 0.97774 0.0
C10 C 0.01583 0.25526 0.992 0.0
Tb11 Tb 0.20479 0.38532 1.00999 0.0
N12 N 0.17703 0.31322 0.0381 0.0
C13 C 0.20962 0.30378 0.05422 0.0
C14 C 0.13693 0.22516 0.07232 0.0
C15 C 0.19 0.26018 0.07189 0.0
H16 H 0.11346 0.3654 0.9634 0.0
H17 H 0.21583 0.25371 0.08522 0.0
H18 H 0.03358 0.16296 0.06545 0.0
H19 H 0.02083 0.30224 0.95581 0.0
H20 H 0.25066 0.3306 0.05432 0.0
H21 H 0.26704 0.65383 0.99318 0.0
H22 H 0.12185 0.19133 0.08592 0.0
H23 H 0.34737 0.50131 0.10199 0.0
H24 H 0.22573 0.56898 1.01642 0.0
H25 H 0.43926 0.55879 0.11403 0.0
H26 H 0.9802 0.17611 0.02999 0.0
H27 H 0.36145 0.71217 0.99702 0.0
H28 H 0.44591 0.73057 0.01867 0.0
H29 H 0.97532 0.22756 0.98853 0.0
H30 H 0.49299 0.70487 0.05187 0.0
N31 N 0.29618 0.57702 0.03273 0.0
C32 C 0.26697 0.59345 0.01845 0.0
C33 C 0.34356 0.67463 1.00728 0.0
C34 C 0.37277 0.6594 0.02365 0.0
C35 C 0.29027 0.64189 1.00515 0.0
C36 C 0.34755 0.61004 0.03649 0.0
H37 H 0.49063 0.64118 0.08794 0.0
N38 N 0.34707 0.54955 0.06854 0.0
C39 C 0.42145 0.56958 0.09729 0.0
C40 C 0.37388 0.59596 0.05525 0.0
C41 C 0.36935 0.5371 0.09041 0.0
C42 C 0.45035 0.61597 0.08247 0.0
C43 C 0.42636 0.63021 0.06155 0.0
O44 O 0.25687 0.50437 0.10035 0.0
O45 O 0.20828 0.41612 0.05259 0.0
O46 O 0.14226 0.40348 0.0184 0.0
O47 O 0.18875 0.48657 0.0386 0.0
O48 O 0.25643 0.44127 0.0868 0.0
O49 O 0.22749 0.53994 0.07143 0.0
O50 O 0.2116 0.38007 0.9653 0.0
O51 O 0.25363 0.46724 1.01359 0.0
O52 O 0.3264 0.49251 0.0395 0.0
O53 O 0.28502 0.40653 0.02392 0.0
O54 O 0.2075 0.43963 0.97788 0.0
O55 O 0.23829 0.3426 0.9938 0.0
C56 C 0.21729 0.4012 0.07608 0.0
C57 C 0.26971 0.58548 0.11344 0.0
C58 C 0.30224 0.62969 0.15882 0.0
C59 C 0.27141 0.58422 0.14332 0.0
C60 C 0.33245 0.67642 0.14408 0.0
C61 C 0.29866 0.63286 0.09908 0.0
C62 C 0.33044 0.67788 0.11434 0.0
C63 C 0.14613 0.44756 0.02768 0.0
C64 C 0.23993 0.53669 0.09775 0.0
C65 C 0.45253 0.67816 0.04754 0.0
C66 C 0.42574 0.69276 0.02861 0.0
C67 C 0.24216 0.48075 0.99049 0.0
C68 C 0.21419 0.30766 0.94658 0.0
C69 C 0.24574 0.30879 0.92351 0.0
C70 C 0.22638 0.26858 0.9028 0.0
C71 C 0.1755 0.2273 0.90596 0.0
C72 C 0.16397 0.26546 0.94909 0.0
C73 C 0.14488 0.22567 0.92894 0.0
C74 C 0.32722 0.45075 0.03133 0.0
C75 C 0.23289 0.3515 0.9671 0.0
H76 H 0.24853 0.5479 0.15452 0.0
H77 H 0.3559 0.71221 0.15559 0.0
H78 H 0.29686 0.63539 0.07616 0.0
H79 H 0.35289 0.71414 0.10312 0.0
H80 H 0.28463 0.34128 0.92135 0.0
H81 H 0.1595 0.19565 0.89078 0.0
H82 H 0.1393 0.26339 0.96654 0.0
H83 H 0.10594 0.19336 0.93108 0.0
Tb84 Tb 0.76027 0.25122 0.37575 0.0
C85 C 0.80448 0.07652 0.34979 0.0
C86 C 0.86253 0.0867 0.3884 0.0
C87 C 0.80743 1.00171 0.36767 0.0
C88 C 0.84115 0.10756 0.36939 0.0
C89 C 0.78801 0.02341 0.34807 0.0
C90 C 0.84461 0.03333 0.38789 0.0
C91 C 0.73828 0.01861 0.30626 0.0
N92 N 0.78719 0.0992 0.33125 0.0
C93 C 0.75606 0.07156 0.30885 0.0
C94 C 0.75378 0.99423 0.3262 0.0
Tb95 Tb 0.81617 0.18546 0.3377 0.0
N96 N 0.85751 0.15878 0.3689 0.0
C97 C 0.89827 0.19213 0.38563 0.0
C98 C 0.90211 0.12031 0.40679 0.0
C99 C 0.92054 0.17337 0.40509 0.0
H100 H 0.7438 0.09005 0.29338 0.0
H101 H 0.95186 0.19988 0.4188 0.0
H102 H 0.86016 0.01641 0.4025 0.0
H103 H 0.71269 0.99668 0.28889 0.0
H104 H 0.91293 0.23321 0.38474 0.0
H105 H 0.61555 0.25872 0.30963 0.0
H106 H 0.91949 0.10588 0.42181 0.0
H107 H 0.85656 0.34193 0.41456 0.0
H108 H 0.65564 0.21606 0.33542 0.0
H109 H 0.89919 0.43634 0.42087 0.0
H110 H 0.79491 0.96086 0.36694 0.0
H111 H 0.6562 0.35397 0.31059 0.0
H112 H 0.72669 0.43929 0.32929 0.0
H113 H 0.74019 0.95329 0.32408 0.0
H114 H 0.80353 0.48759 0.35975 0.0
N115 N 0.71998 0.28651 0.35022 0.0
C116 C 0.67418 0.25768 0.33602 0.0
C117 C 0.67419 0.33548 0.32193 0.0
C118 C 0.71945 0.36463 0.33778 0.0
C119 C 0.6511 0.28172 0.32138 0.0
C120 C 0.7413 0.33863 0.35213 0.0
H121 H 0.86811 0.48682 0.39403 0.0
N122 N 0.80237 0.33873 0.38379 0.0
C123 C 0.86673 0.41692 0.4064 0.0
C124 C 0.78373 0.36567 0.36966 0.0
C125 C 0.84228 0.36329 0.40282 0.0
C126 C 0.84913 0.4453 0.39117 0.0
C127 C 0.80672 0.41965 0.37279 0.0
O128 O 0.74791 0.25581 0.41953 0.0
O129 O 0.78762 0.19648 0.37813 0.0
O130 O 0.73467 0.12512 0.34783 0.0
O131 O 0.69815 0.17614 0.36089 0.0
O132 O 0.80836 0.24793 0.41035 0.0
O133 O 0.68378 0.22088 0.38972 0.0
O134 O 0.83187 0.18961 0.29343 0.0
O135 O 0.78154 0.23283 0.33566 0.0
O136 O 0.82748 0.30874 0.35291 0.0
O137 O 0.87457 0.26645 0.35183 0.0
O138 O 0.76609 0.18205 0.30259 0.0
O139 O 0.8937 0.21842 0.32361 0.0
C140 C 0.80934 0.20736 0.40231 0.0
C141 C 0.67866 0.26953 0.42824 0.0
C142 C 0.66203 0.30501 0.47095 0.0
C143 C 0.67905 0.27398 0.45797 0.0
C144 C 0.64624 0.33324 0.45383 0.0
C145 C 0.66085 0.29635 0.41137 0.0
C146 C 0.64559 0.32874 0.42413 0.0
C147 C 0.69433 0.13118 0.35426 0.0
C148 C 0.69862 0.23803 0.41566 0.0
C149 C 0.78634 0.44607 0.35773 0.0
C150 C 0.74267 0.41858 0.34032 0.0
C151 C 0.75751 0.21726 0.31232 0.0
C152 C 0.90781 0.19052 0.27831 0.0
C153 C 0.94063 0.22008 0.25537 0.0
C154 C 0.9643 0.19942 0.23743 0.0
C155 C 0.95307 0.14836 0.24273 0.0
C156 C 0.89876 0.14042 0.28306 0.0
C157 C 0.92102 0.11951 0.2653 0.0
C158 C 0.8717 0.30959 0.35063 0.0
C159 C 0.88155 0.21113 0.29657 0.0
H160 H 0.69202 0.25269 0.47108 0.0
H161 H 0.63228 0.35693 0.46341 0.0
H162 H 0.65825 0.29227 0.38846 0.0
H163 H 0.63221 0.34953 0.411 0.0
H164 H 0.94808 0.25903 0.2518 0.0
H165 H 0.96873 0.13015 0.22921 0.0
H166 H 0.87405 0.11719 0.30036 0.0
H167 H 0.91319 0.08048 0.26898 0.0
Tb168 Tb 0.52403 0.7785 0.72256 0.0
C169 C 0.73144 0.80992 0.68202 0.0
C170 C 0.78781 0.86737 0.71875 0.0
C171 C 0.80956 0.80862 0.69476 0.0
C172 C 0.74251 0.84756 0.70211 0.0
C173 C 0.76554 0.79101 0.67737 0.0
C174 C 0.82062 0.84669 0.71551 0.0
C175 C 0.71302 0.74344 0.63684 0.0
N176 N 0.68894 0.79455 0.66561 0.0
C177 C 0.6805 0.76353 0.64235 0.0
C178 C 0.75529 0.75656 0.65473 0.0
Tb179 Tb 0.63675 0.82773 0.6766 0.0
N180 N 0.7102 0.86683 0.70412 0.0
C181 C 0.72319 0.90908 0.72092 0.0
C182 C 0.79948 0.90836 0.73741 0.0
C183 C 0.76741 0.92983 0.73817 0.0
H184 H 0.64771 0.75303 0.62854 0.0
H185 H 0.77666 0.96232 0.75204 0.0
H186 H 0.85536 0.86098 0.7283 0.0
H187 H 0.70542 0.71782 0.61885 0.0
H188 H 0.69874 0.926 0.72185 0.0
H189 H 0.35685 0.63497 0.66405 0.0
H190 H 0.83381 0.92463 0.75068 0.0
H191 H 0.53791 0.87348 0.76542 0.0
H192 H 0.44352 0.67293 0.68495 0.0
H193 H 0.48984 0.91803 0.77719 0.0
H194 H 0.83599 0.79416 0.6918 0.0
H195 H 0.30604 0.67902 0.66937 0.0
H196 H 0.29816 0.75191 0.69068 0.0
H197 H 0.78056 0.74116 0.65037 0.0
H198 H 0.33419 0.82885 0.72166 0.0
N199 N 0.44379 0.73968 0.70142 0.0
C200 C 0.42235 0.69306 0.68756 0.0
C201 C 0.34437 0.69615 0.67861 0.0
C202 C 0.36501 0.74208 0.69431 0.0
C203 C 0.37287 0.67113 0.67563 0.0
C204 C 0.41513 0.76275 0.70585 0.0
H205 H 0.4055 0.89087 0.75421 0.0
N206 N 0.4822 0.82227 0.73528 0.0
C207 C 0.47399 0.88647 0.76198 0.0
C208 C 0.43485 0.80532 0.72356 0.0
C209 C 0.50112 0.861 0.75526 0.0
C210 C 0.42645 0.8711 0.74893 0.0
C211 C 0.40587 0.82949 0.72981 0.0
O212 O 0.51703 0.76846 0.76717 0.0
O213 O 0.60527 0.80153 0.71923 0.0
O214 O 0.61234 0.74497 0.68504 0.0
O215 O 0.52927 0.71386 0.70424 0.0
O216 O 0.58361 0.8275 0.75346 0.0
O217 O 0.47912 0.70313 0.73854 0.0
O218 O 0.64094 0.84146 0.63207 0.0
O219 O 0.55564 0.79826 0.68038 0.0
O220 O 0.53369 0.84815 0.70282 0.0
O221 O 0.62158 0.8902 0.69207 0.0
O222 O 0.5809 0.77946 0.64394 0.0
O223 O 0.68342 0.90406 0.66097 0.0
C224 C 0.62178 0.82498 0.74275 0.0
C225 C 0.43461 0.70236 0.78049 0.0
C226 C 0.39062 0.6903 0.82597 0.0
C227 C 0.43583 0.70423 0.81041 0.0
C228 C 0.34433 0.67598 0.81123 0.0
C229 C 0.38753 0.68591 0.76618 0.0
C230 C 0.34292 0.67372 0.78148 0.0
C231 C 0.56615 0.70645 0.69352 0.0
C232 C 0.48306 0.71947 0.76477 0.0
C233 C 0.35696 0.81064 0.71728 0.0
C234 C 0.33651 0.76691 0.6996 0.0
C235 C 0.54082 0.77445 0.65697 0.0
C236 C 0.71571 0.9138 0.61313 0.0
C237 C 0.71514 0.944 0.58972 0.0
C238 C 0.75451 0.96262 0.56854 0.0
C239 C 0.79442 0.95103 0.57161 0.0
C240 C 0.7565 0.90366 0.61545 0.0
C241 C 0.79548 0.9222 0.59487 0.0
C242 C 0.57749 0.89018 0.69659 0.0
C243 C 0.6726 0.89086 0.63419 0.0
H244 H 0.47184 0.71594 0.82159 0.0
H245 H 0.30869 0.66416 0.82272 0.0
H246 H 0.38476 0.68203 0.74327 0.0
H247 H 0.30691 0.66141 0.77026 0.0
H248 H 0.68368 0.95192 0.58767 0.0
H249 H 0.82544 0.96494 0.55611 0.0
H250 H 0.75804 0.88105 0.63309 0.0
H251 H 0.82672 0.91398 0.59688 0.0
Tb252 Tb 0.75978 0.5096 0.04345 0.0
C253 C 0.93807 0.72937 0.01928 0.0
C254 C 0.92869 0.77671 0.05844 0.0
C255 C 0.01341 0.80637 0.03759 0.0
C256 C 0.90738 0.73487 0.03912 0.0
C257 C 0.99129 0.76568 0.0177 0.0
C258 C 0.98212 0.81182 0.058 0.0
C259 C 0.99553 0.7213 0.97554 0.0
N260 N 0.91503 0.68977 1.00047 0.0
C261 C 0.9425 0.68643 0.97799 0.0
C262 C 0.02022 0.76074 0.99571 0.0
Tb263 Tb 0.82866 0.63296 1.00687 0.0
N264 N 0.85609 0.70028 0.03862 0.0
C265 C 0.82311 0.70772 0.05556 0.0
C266 C 0.89545 0.78261 0.07707 0.0
C267 C 0.84231 0.74836 0.07532 0.0
H268 H 0.92387 0.65619 0.96224 0.0
H269 H 0.81609 0.75316 0.08921 0.0
H270 H 0.99938 0.84396 0.07285 0.0
H271 H 0.01727 0.71777 0.95807 0.0
H272 H 0.78196 0.6816 0.05457 0.0
H273 H 0.74978 0.35722 0.97657 0.0
H274 H 0.91023 0.81411 0.09234 0.0
H275 H 0.66915 0.5173 0.08089 0.0
H276 H 0.79348 0.43819 1.00428 0.0
H277 H 0.57427 0.46841 0.08512 0.0
H278 H 0.05434 0.83443 0.03696 0.0
H279 H 0.65431 0.30663 0.97458 0.0
H280 H 0.56914 0.29469 0.99143 0.0
H281 H 0.06123 0.78785 0.9937 0.0
H282 H 0.52139 0.32436 0.0214 0.0
N283 N 0.72357 0.43524 1.01679 0.0
C284 C 0.75179 0.41685 1.00341 0.0
C285 C 0.67328 0.34236 0.98666 0.0
C286 C 0.64454 0.35947 1.00201 0.0
C287 C 0.72715 0.37077 0.98776 0.0
C288 C 0.67118 0.40627 1.01735 0.0
H289 H 0.52298 0.38902 0.05654 0.0
N290 N 0.67188 0.46665 0.04977 0.0
C291 C 0.59354 0.45496 0.07087 0.0
C292 C 0.64438 0.42215 0.03469 0.0
C293 C 0.64742 0.48249 0.06848 0.0
C294 C 0.5647 0.4102 0.05466 0.0
C295 C 0.59011 0.39292 0.03651 0.0
O296 O 0.75107 0.48936 0.08688 0.0
O297 O 0.81507 0.5915 0.04693 0.0
O298 O 0.88806 0.61082 1.01732 0.0
O299 O 0.83596 0.523 0.03042 0.0
O300 O 0.76319 0.56001 0.07875 0.0
O301 O 0.78699 0.46075 0.05744 0.0
O302 O 0.81917 0.64086 0.96272 0.0
O303 O 0.78153 0.55077 1.00382 0.0
O304 O 0.70557 0.52156 0.01858 0.0
O305 O 0.74799 0.61069 0.02078 0.0
O306 O 0.83456 0.58785 0.97184 0.0
O307 O 0.80124 0.6826 0.99311 0.0
C308 C 0.80423 0.60171 0.07125 0.0
C309 C 0.73478 0.405 0.0946 0.0
C310 C 0.69793 0.35007 0.13637 0.0
C311 C 0.72958 0.39899 0.12426 0.0
C312 C 0.66949 0.30729 0.11837 0.0
C313 C 0.70755 0.36153 0.0769 0.0
C314 C 0.67439 0.31315 0.08876 0.0
C315 C 0.88131 0.56416 0.02405 0.0
C316 C 0.768 0.45717 0.08301 0.0
C317 C 0.56315 0.34733 0.0204 0.0
C318 C 0.59033 0.33054 1.00324 0.0
C319 C 0.79909 0.54347 0.98089 0.0
C320 C 0.82373 0.71745 0.94572 0.0
C321 C 0.79307 0.71852 0.92276 0.0
C322 C 0.81448 0.75834 0.90186 0.0
C323 C 0.86658 0.79708 0.90474 0.0
C324 C 0.8753 0.75711 0.94796 0.0
C325 C 0.89644 0.79659 0.92763 0.0
C326 C 0.70496 0.56517 0.01738 0.0
C327 C 0.80278 0.67324 0.96604 0.0
H328 H 0.75101 0.4324 0.13797 0.0
H329 H 0.64535 0.26898 0.12717 0.0
H330 H 0.71199 0.36443 0.05404 0.0
H331 H 0.65338 0.2799 0.07497 0.0
H332 H 0.7532 0.68788 0.92077 0.0
H333 H 0.88418 0.82837 0.88939 0.0
H334 H 0.89943 0.75728 0.96527 0.0
H335 H 0.9364 0.82693 0.92953 0.0
Tb336 Tb 0.24536 0.75549 0.39071 0.0
C337 C 0.19533 0.91935 0.3542 0.0
C338 C 0.13424 0.90814 0.39121 0.0
C339 C 0.18783 0.99284 0.36984 0.0
C340 C 0.1581 0.88806 0.3735 0.0
C341 C 0.20965 0.9718 0.35143 0.0
C342 C 0.15024 0.96104 0.38978 0.0
C343 C 0.26157 0.97693 0.31065 0.0
N344 N 0.21497 0.89735 0.33678 0.0
C345 C 0.24586 0.92461 0.31425 0.0
C346 C 0.244 1.00088 0.3296 0.0
Tb347 Tb 0.18903 0.81219 0.34492 0.0
N348 N 0.14346 0.83723 0.37384 0.0
C349 C 0.10225 0.80341 0.39011 0.0
C350 C 0.09412 0.87418 0.40917 0.0
C351 C 0.07759 0.82144 0.40831 0.0
H352 H 0.25968 0.90624 0.2996 0.0
H353 H 0.04593 0.79464 0.4217 0.0
H354 H 0.13277 0.97738 0.40341 0.0
H355 H 0.28713 0.99869 0.29326 0.0
H356 H 0.08921 0.76262 0.38994 0.0
H357 H 0.39167 0.7446 0.32764 0.0
H358 H 0.07486 0.88803 0.4232 0.0
H359 H 0.163 0.67293 0.43816 0.0
H360 H 0.35021 0.78822 0.35051 0.0
H361 H 0.12794 0.58162 0.4517 0.0
H362 H 0.19872 0.03322 0.36831 0.0
H363 H 0.35426 0.65021 0.33291 0.0
H364 H 0.28814 0.56734 0.35603 0.0
H365 H 0.25595 0.04132 0.3267 0.0
H366 H 0.21646 0.52284 0.39016 0.0
N367 N 0.2875 0.71903 0.36785 0.0
C368 C 0.33282 0.74699 0.35309 0.0
C369 C 0.33547 0.6691 0.34296 0.0
C370 C 0.2915 0.64125 0.35989 0.0
C371 C 0.35678 0.72238 0.34002 0.0
C372 C 0.2685 0.66774 0.37243 0.0
H373 H 0.15703 0.52809 0.42636 0.0
N374 N 0.21013 0.67084 0.40465 0.0
C375 C 0.15601 0.59825 0.43464 0.0
C376 C 0.2287 0.64284 0.39173 0.0
C377 C 0.17602 0.65005 0.4269 0.0
C378 C 0.17243 0.56813 0.42024 0.0
C379 C 0.20998 0.5906 0.39886 0.0
O380 O 0.25824 0.76235 0.43511 0.0
O381 O 0.218 0.81032 0.38743 0.0
O382 O 0.27084 0.87433 0.35225 0.0
O383 O 0.30692 0.82763 0.37266 0.0
O384 O 0.19534 0.76313 0.422 0.0
O385 O 0.32184 0.78923 0.40542 0.0
O386 O 0.17789 0.80844 0.30014 0.0
O387 O 0.22156 0.763 0.34851 0.0
O388 O 0.17423 0.69052 0.37519 0.0
O389 O 0.13006 0.73103 0.35775 0.0
O390 O 0.24004 0.80907 0.31272 0.0
O391 O 0.11291 0.77748 0.32822 0.0
C392 C 0.19534 0.8027 0.41129 0.0
C393 C 0.32542 0.74744 0.44753 0.0
C394 C 0.33578 0.71376 0.4928 0.0
C395 C 0.32181 0.7451 0.47736 0.0
C396 C 0.35202 0.68344 0.47801 0.0
C397 C 0.3437 0.71848 0.43312 0.0
C398 C 0.35606 0.686 0.4483 0.0
C399 C 0.311 0.8702 0.36142 0.0
C400 C 0.30713 0.77788 0.43193 0.0
C401 C 0.23061 0.56315 0.38518 0.0
C402 C 0.27136 0.58846 0.36571 0.0
C403 C 0.24614 0.7742 0.32529 0.0
C404 C 0.10148 0.80319 0.28145 0.0
C405 C 0.07158 0.77197 0.25803 0.0
C406 C 0.04975 0.79104 0.23772 0.0
C407 C 0.05786 0.84123 0.24166 0.0
C408 C 0.10796 0.85269 0.28468 0.0
C409 C 0.08628 0.87143 0.26495 0.0
C410 C 0.13187 0.6892 0.36614 0.0
C411 C 0.1278 0.78511 0.30159 0.0
H412 H 0.30852 0.76802 0.4886 0.0
H413 H 0.36387 0.6596 0.48948 0.0
H414 H 0.34856 0.72075 0.41023 0.0
H415 H 0.36972 0.66351 0.43704 0.0
H416 H 0.06636 0.73365 0.25528 0.0
H417 H 0.04153 0.85701 0.22681 0.0
H418 H 0.13016 0.8771 0.30236 0.0
H419 H 0.09175 0.90983 0.26766 0.0
Tb420 Tb 0.51362 0.25711 0.71245 0.0
C421 C 0.29582 0.22026 0.68685 0.0
C422 C 0.24718 0.16602 0.72657 0.0
C423 C 0.22013 0.22202 0.70414 0.0
C424 C 0.28903 0.18454 0.70737 0.0
C425 C 0.26079 0.23857 0.6844 0.0
C426 C 0.2134 0.18584 0.72527 0.0
C427 C 0.30611 0.28428 0.64173 0.0
N428 N 0.33534 0.23488 0.66823 0.0
C429 C 0.33972 0.26484 0.64508 0.0
C430 C 0.26687 0.27169 0.66171 0.0
Tb431 Tb 0.38988 0.2031 0.67591 0.0
N432 N 0.32239 0.16638 0.7077 0.0
C433 C 0.31364 0.12642 0.72547 0.0
C434 C 0.23993 0.12735 0.74598 0.0
C435 C 0.2729 0.10695 0.74513 0.0
H436 H 0.36992 0.27485 0.62953 0.0
H437 H 0.26707 0.0763 0.75966 0.0
H438 H 0.18128 0.17252 0.74001 0.0
H439 H 0.31049 0.30894 0.62374 0.0
H440 H 0.33878 0.11029 0.72528 0.0
H441 H 0.66342 0.38905 0.64043 0.0
H442 H 0.20838 0.11218 0.76119 0.0
H443 H 0.50722 0.16437 0.75458 0.0
H444 H 0.58357 0.35592 0.66856 0.0
H445 H 0.55543 0.11821 0.7615 0.0
H446 H 0.19305 0.23601 0.70284 0.0
H447 H 0.7131 0.3433 0.64117 0.0
H448 H 0.72451 0.27159 0.66125 0.0
H449 H 0.24076 0.28662 0.65902 0.0
H450 H 0.69544 0.19817 0.69441 0.0
N451 N 0.58627 0.29046 0.68446 0.0
C452 C 0.6045 0.33524 0.66908 0.0
C453 C 0.67787 0.32838 0.65354 0.0
C454 C 0.66083 0.2844 0.67066 0.0
C455 C 0.64999 0.35435 0.65311 0.0
C456 C 0.61472 0.26662 0.68633 0.0
H457 H 0.63251 0.14079 0.73201 0.0
N458 N 0.55576 0.212 0.72094 0.0
C459 C 0.56812 0.14851 0.74562 0.0
C460 C 0.59921 0.22627 0.70541 0.0
C461 C 0.54094 0.17488 0.74167 0.0
C462 C 0.61157 0.1613 0.72889 0.0
C463 C 0.62809 0.20114 0.70876 0.0
O464 O 0.53749 0.2738 0.75542 0.0
O465 O 0.43226 0.23296 0.71564 0.0
O466 O 0.41492 0.28607 0.68465 0.0
O467 O 0.50273 0.31968 0.69616 0.0
O468 O 0.46345 0.21476 0.74876 0.0
O469 O 0.56328 0.33464 0.72391 0.0
O470 O 0.38018 0.18432 0.63191 0.0
O471 O 0.47156 0.23383 0.67291 0.0
O472 O 0.49809 0.186 0.69184 0.0
O473 O 0.40844 0.14295 0.69139 0.0
O474 O 0.43627 0.2505 0.64017 0.0
O475 O 0.33907 0.12559 0.66292 0.0
C476 C 0.422 0.21368 0.74042 0.0
C477 C 0.62338 0.34225 0.75943 0.0
C478 C 0.6854 0.36416 0.79833 0.0
C479 C 0.63474 0.34755 0.78878 0.0
C480 C 0.72369 0.37238 0.77816 0.0
C481 C 0.66351 0.355 0.73977 0.0
C482 C 0.71284 0.36847 0.74907 0.0
C483 C 0.46281 0.32565 0.6895 0.0
C484 C 0.56963 0.32237 0.74977 0.0
C485 C 0.67279 0.21711 0.69226 0.0
C486 C 0.68924 0.2588 0.67331 0.0
C487 C 0.47969 0.25687 0.64923 0.0
C488 C 0.30325 0.11159 0.61553 0.0
C489 C 0.30216 0.0799 0.59246 0.0
C490 C 0.26198 0.06096 0.57169 0.0
C491 C 0.22292 0.07372 0.57487 0.0
C492 C 0.2633 0.12291 0.61794 0.0
C493 C 0.22347 0.104 0.5978 0.0
C494 C 0.4531 0.14317 0.69042 0.0
C495 C 0.3478 0.13558 0.63571 0.0
H496 H 0.60451 0.34042 0.80396 0.0
H497 H 0.76258 0.38344 0.78482 0.0
H498 H 0.65739 0.35509 0.71722 0.0
H499 H 0.74301 0.37681 0.73365 0.0
H500 H 0.33307 0.0712 0.59028 0.0
H501 H 0.19134 0.05965 0.55969 0.0
H502 H 0.2632 0.14692 0.63525 0.0
H503 H 0.19289 0.11315 0.59987 0.0
H504 H 0.3256 0.80877 0.28921 0.0
H505 H 0.19894 0.66857 0.32376 0.0
H506 H 0.34529 0.75842 0.25621 0.0
H507 H 0.2193 0.61726 0.29103 0.0
H508 H 0.38096 0.67456 0.19763 0.0
H509 H 0.37309 0.69614 0.24707 0.0
H510 H 0.20668 0.60877 0.23939 0.0
H511 H 0.21468 0.5864 0.19057 0.0
C512 C 0.30293 0.76693 0.29015 0.0
C513 C 0.26139 0.74232 0.30909 0.0
C514 C 0.31458 0.73796 0.27159 0.0
C515 C 0.28416 0.68373 0.27122 0.0
C516 C 0.24348 0.65896 0.29095 0.0
C517 C 0.23191 0.68816 0.30967 0.0
C518 C 0.34284 0.65862 0.20697 0.0
C519 C 0.29843 0.63004 0.19023 0.0
C520 C 0.3383 0.67081 0.23519 0.0
C521 C 0.2893 0.65532 0.24678 0.0
C522 C 0.24499 0.62126 0.23114 0.0
C523 C 0.24955 0.60864 0.20305 0.0
H524 H 0.5348 0.20779 0.64044 0.0
H525 H 0.51754 0.33583 0.61255 0.0
H526 H 0.59851 0.22673 0.60291 0.0
H527 H 0.57887 0.35353 0.57418 0.0
H528 H 0.61623 0.21938 0.50401 0.0
H529 H 0.58766 0.21345 0.55294 0.0
H530 H 0.66379 0.38031 0.55765 0.0
H531 H 0.69102 0.38592 0.50785 0.0
C532 C 0.54547 0.24051 0.62658 0.0
C533 C 0.52239 0.27107 0.62951 0.0
C534 C 0.58163 0.25125 0.605 0.0
C535 C 0.59389 0.29172 0.58557 0.0
C536 C 0.57145 0.32293 0.58915 0.0
C537 C 0.5358 0.31246 0.61083 0.0
C538 C 0.62819 0.25486 0.51577 0.0
C539 C 0.65496 0.30308 0.50214 0.0
C540 C 0.61209 0.25152 0.54394 0.0
C541 C 0.62278 0.29642 0.55906 0.0
C542 C 0.65399 0.345 0.54627 0.0
C543 C 0.66955 0.34828 0.51787 0.0
H544 H 0.20814 0.52615 0.95426 0.0
H545 H 0.34774 0.53866 0.98888 0.0
H546 H 0.25903 0.59711 0.92171 0.0
H547 H 0.39947 0.61108 0.95664 0.0
H548 H 0.34571 0.72217 0.86583 0.0
H549 H 0.32217 0.68863 0.91448 0.0
H550 H 0.40829 0.60892 0.90462 0.0
H551 H 0.43229 0.64294 0.85653 0.0
C552 C 0.24993 0.54522 0.95531 0.0
C553 C 0.27424 0.52792 0.97424 0.0
C554 C 0.27918 0.5863 0.93701 0.0
C555 C 0.33337 0.61018 0.93689 0.0
C556 C 0.35781 0.59358 0.95643 0.0
C557 C 0.32835 0.55239 0.97489 0.0
C558 C 0.36093 0.6989 0.87453 0.0
C559 C 0.38962 0.68398 0.85729 0.0
C560 C 0.3476 0.67982 0.9023 0.0
C561 C 0.36228 0.64511 0.913 0.0
C562 C 0.39643 0.63564 0.89703 0.0
C563 C 0.41005 0.655 0.86936 0.0
H564 H 0.79868 0.32101 0.3046 0.0
H565 H 0.67629 0.172 0.27687 0.0
H566 H 0.77454 0.36314 0.26819 0.0
H567 H 0.65374 0.2133 0.23915 0.0
H568 H 0.61702 0.29216 0.17254 0.0
H569 H 0.62305 0.26838 0.22188 0.0
H570 H 0.78923 0.36643 0.21851 0.0
H571 H 0.78298 0.39055 0.17007 0.0
C572 C 0.7659 0.29748 0.29112 0.0
C573 C 0.73871 0.24356 0.29374 0.0
C574 C 0.75224 0.32144 0.27008 0.0
C575 C 0.71244 0.2916 0.2506 0.0
C576 C 0.68393 0.23761 0.25408 0.0
C577 C 0.69718 0.21383 0.27541 0.0
C578 C 0.65458 0.3093 0.18273 0.0
C579 C 0.69956 0.34268 0.16746 0.0
C580 C 0.65806 0.2958 0.21089 0.0
C581 C 0.70663 0.31505 0.22402 0.0
C582 C 0.75109 0.35142 0.20934 0.0
C583 C 0.74756 0.36514 0.18139 0.0
H584 H 0.49177 0.69107 0.62369 0.0
H585 H 0.48322 0.82219 0.65516 0.0
H586 H 0.42015 0.66976 0.59153 0.0
H587 H 0.40971 0.79997 0.62373 0.0
H588 H 0.30213 0.63515 0.53175 0.0
H589 H 0.33189 0.64353 0.58119 0.0
H590 H 0.41113 0.81003 0.57302 0.0
H591 H 0.3803 0.80148 0.5244 0.0
C592 C 0.47324 0.71429 0.62426 0.0
C593 C 0.49221 0.75769 0.642 0.0
C594 C 0.4317 0.70175 0.60619 0.0
C595 C 0.40892 0.73303 0.60516 0.0
C596 C 0.42654 0.77524 0.624 0.0
C597 C 0.46841 0.78788 0.64206 0.0
C598 C 0.32443 0.67338 0.54101 0.0
C599 C 0.34013 0.71767 0.5242 0.0
C600 C 0.3414 0.67823 0.56923 0.0
C601 C 0.37511 0.7274 0.5807 0.0
C602 C 0.38519 0.77154 0.56495 0.0
C603 C 0.36772 0.76668 0.53692 0.0
H604 H 0.69834 0.48547 0.96453 0.0
H605 H 0.8499 0.50409 0.95363 0.0
H606 H 0.66686 0.42687 0.92337 0.0
H607 H 0.81849 0.44464 0.91312 0.0
H608 H 0.77366 0.44576 0.81857 0.0
H609 H 0.797 0.47307 0.86745 0.0
H610 H 0.65268 0.34438 0.89659 0.0
H611 H 0.62938 0.31526 0.84688 0.0
C612 C 0.72411 0.47514 0.95405 0.0
C613 C 0.77623 0.49862 0.96207 0.0
C614 C 0.70619 0.44157 0.93063 0.0
C615 C 0.74052 0.43185 0.91497 0.0
C616 C 0.79148 0.45201 0.9247 0.0
C617 C 0.80943 0.48589 0.94776 0.0
C618 C 0.74738 0.42201 0.83527 0.0
C619 C 0.69989 0.37787 0.82873 0.0
C620 C 0.76081 0.43782 0.86338 0.0
C621 C 0.72697 0.41034 0.8858 0.0
C622 C 0.67947 0.36599 0.87959 0.0
C623 C 0.66614 0.34962 0.85121 0.0
H624 H 0.39588 0.46414 0.07321 0.0
H625 H 0.37744 0.45728 0.98172 0.0
H626 H 0.48894 0.49925 0.06769 0.0
H627 H 0.47053 0.49174 0.97588 0.0
H628 H 0.63076 0.50218 0.98065 0.0
H629 H 0.53878 0.47148 0.98334 0.0
H630 H 0.56673 0.57937 0.05181 0.0
H631 H 0.65986 0.60983 0.04918 0.0
C632 C 0.41176 0.46937 0.05189 0.0
C633 C 0.37941 0.45745 0.02791 0.0
C634 C 0.46518 0.49009 0.04869 0.0
C635 C 0.48766 0.49929 0.02133 0.0
C636 C 0.45473 0.48511 0.9973 0.0
C637 C 0.40126 0.46467 1.00057 0.0
C638 C 0.61756 0.52065 0.99566 0.0
C639 C 0.65278 0.55912 1.01437 0.0
C640 C 0.56459 0.50279 0.9973 0.0
C641 C 0.54494 0.52249 0.01793 0.0
C642 C 0.58043 0.56284 0.03586 0.0
C643 C 0.6339 0.58114 0.03401 0.0
H644 H 0.08887 0.63881 0.31631 0.0
H645 H 0.07669 0.61973 0.40773 0.0
H646 H 0.03135 0.54552 0.31018 0.0
H647 H 0.01963 0.52652 0.40195 0.0
H648 H 0.95983 0.35582 0.3838 0.0
H649 H 0.02165 0.44922 0.38684 0.0
H650 H 0.94429 0.47572 0.3164 0.0
H651 H 0.88425 0.38347 0.31317 0.0
C652 C 0.07249 0.61479 0.33509 0.0
C653 C 0.08671 0.6366 0.36249 0.0
C654 C 0.04004 0.56116 0.33165 0.0
C655 C 0.02133 0.52795 0.35558 0.0
C656 C 0.03418 0.55039 0.383 0.0
C657 C 0.06638 0.60394 0.38636 0.0
C658 C 0.95756 0.38156 0.3683 0.0
C659 C 0.91771 0.36209 0.34791 0.0
C660 C 0.99221 0.43522 0.37038 0.0
C661 C 0.98782 0.47044 0.35202 0.0
C662 C 0.94949 0.45023 0.33074 0.0
C663 C 0.91499 0.39704 0.32882 0.0
H664 H 0.43182 0.06848 0.73047 0.0
H665 H 0.48802 0.11548 0.64468 0.0
H666 H 0.46735 0.01011 0.73073 0.0
H667 H 0.52467 0.05887 0.64494 0.0
H668 H 0.54738 0.91689 0.64837 0.0
H669 H 0.50908 0.97217 0.64538 0.0
H670 H 0.55313 0.01941 0.73306 0.0
H671 H 0.59062 0.963 0.7359 0.0
C672 C 0.44983 0.06464 0.71125 0.0
C673 C 0.4561 0.09558 0.68731 0.0
C674 C 0.47144 0.03229 0.71161 0.0
C675 C 0.49982 0.03033 0.68802 0.0
C676 C 0.50302 0.05898 0.66346 0.0
C677 C 0.48159 0.09121 0.66318 0.0
C678 C 0.55068 0.94074 0.6666 0.0
C679 C 0.57315 0.93671 0.69211 0.0
C680 C 0.52814 0.97201 0.66505 0.0
C681 C 0.52713 0.9998 0.68912 0.0
C682 C 0.55216 0.9978 0.71425 0.0
C683 C 0.57481 0.96651 0.71572 0.0
H684 H 0.62182 0.66425 0.66926 0.0
H685 H 0.47657 0.62103 0.71063 0.0
H686 H 0.59464 0.57261 0.66401 0.0
H687 H 0.45056 0.53098 0.70622 0.0
H688 H 0.39785 0.36587 0.67914 0.0
H689 H 0.42245 0.45745 0.67631 0.0
H690 H 0.58171 0.5015 0.69184 0.0
H691 H 0.55806 0.41212 0.69375 0.0
C692 C 0.58429 0.63561 0.67722 0.0
C693 C 0.55176 0.65088 0.69028 0.0
C694 C 0.56858 0.58279 0.67434 0.0
C695 C 0.52 0.54377 0.6846 0.0
C696 C 0.48762 0.55928 0.69746 0.0
C697 C 0.50313 0.61165 0.70024 0.0
C698 C 0.43809 0.39514 0.68164 0.0
C699 C 0.47555 0.3808 0.68674 0.0
C700 C 0.45234 0.44782 0.68019 0.0
C701 C 0.50439 0.48746 0.68379 0.0
C702 C 0.54155 0.47275 0.68838 0.0
C703 C 0.5275 0.42068 0.68978 0.0
H704 H 0.08249 0.43793 0.9822 0.0
H705 H 0.11223 0.48146 0.07103 0.0
H706 H 0.02103 0.47029 0.98039 0.0
H707 H 0.05228 0.51385 0.06934 0.0
H708 H 0.90101 0.51468 0.06572 0.0
H709 H 0.96092 0.48225 0.06527 0.0
H710 H 0.01986 0.55544 0.98353 0.0
H711 H 0.95832 0.58777 0.98396 0.0
C712 C 0.07488 0.45312 1.00146 0.0
C713 C 0.10141 0.45627 0.02691 0.0
C714 C 0.04052 0.47258 1.00033 0.0
C715 C 0.03171 0.49499 0.02471 0.0
C716 C 0.05744 0.49654 0.05021 0.0
C717 C 0.09176 0.47772 0.05123 0.0
C718 C 0.9274 0.52477 0.04785 0.0
C719 C 0.92545 0.55451 0.0251 0.0
C720 C 0.96176 0.50599 0.04754 0.0
C721 C 0.99536 0.51595 0.02434 0.0
C722 C 0.99422 0.54658 1.00164 0.0
C723 C 0.95974 0.56595 1.00209 0.0
H724 H 0.36397 0.93483 0.31584 0.0
H725 H 0.38116 0.90201 0.40363 0.0
H726 H 0.45814 0.995 0.31304 0.0
H727 H 0.47368 0.96005 0.40086 0.0
H728 H 0.62818 0.10786 0.3978 0.0
H729 H 0.53554 0.04933 0.39818 0.0
H730 H 0.54377 0.99688 0.31332 0.0
H731 H 0.638 0.0575 0.31289 0.0
C732 C 0.3876 0.94142 0.33467 0.0
C733 C 0.36499 0.91435 0.36011 0.0
C734 C 0.44165 0.97504 0.33296 0.0
C735 C 0.47396 0.9825 0.35671 0.0
C736 C 0.45054 0.95615 0.38219 0.0
C737 C 0.3972 0.92278 0.38382 0.0
C738 C 0.6105 0.08304 0.37941 0.0
C739 C 0.64065 0.08664 0.35555 0.0
C740 C 0.55711 0.04944 0.37957 0.0
C741 C 0.5316 0.01807 0.35579 0.0
C742 C 0.56189 0.02074 0.33194 0.0
C743 C 0.61598 0.05462 0.33187 0.0
H744 H 0.37325 0.27203 0.73722 0.0
H745 H 0.39859 0.17309 0.79387 0.0
H746 H 0.32688 0.28821 0.7754 0.0
H747 H 0.35415 0.19072 0.83227 0.0
H748 H 0.32379 0.2801 0.90303 0.0
H749 H 0.3694 0.26714 0.86308 0.0
H750 H 0.24521 0.2414 0.80611 0.0
H751 H 0.19951 0.25371 0.84605 0.0
C752 C 0.36818 0.25296 0.7576 0.0
C753 C 0.38879 0.22025 0.76215 0.0
C754 C 0.34195 0.26263 0.77965 0.0
C755 C 0.33709 0.24124 0.80717 0.0
C756 C 0.35762 0.20848 0.81159 0.0
C757 C 0.38278 0.19801 0.78944 0.0
C758 C 0.30664 0.27251 0.88191 0.0
C759 C 0.25793 0.26801 0.87787 0.0
C760 C 0.33251 0.26452 0.85901 0.0
C761 C 0.31092 0.2528 0.83126 0.0
C762 C 0.26322 0.2505 0.82703 0.0
C763 C 0.23695 0.25748 0.85 0.0
H764 H 0.96084 0.2693 0.19924 0.0
H765 H 0.05169 0.19839 0.22048 0.0
H766 H 0.01893 0.31394 0.15898 0.0
H767 H 0.10705 0.23985 0.17982 0.0
H768 H 0.23371 0.365 0.1255 0.0
H769 H 0.17305 0.31821 0.16364 0.0
H770 H 0.04816 0.30723 0.11188 0.0
H771 H 0.11025 0.35641 0.07388 0.0
C772 C 0.99308 0.26316 0.19546 0.0
C773 C 1.00089 0.22966 0.21335 0.0
C774 C 0.02611 0.28823 0.172 0.0
C775 C 0.06818 0.2808 0.16572 0.0
C776 C 0.0759 0.24756 0.18381 0.0
C777 C 0.04333 0.22294 0.20717 0.0
C778 C 0.19315 0.35185 0.12201 0.0
C779 C 0.17701 0.36401 0.09639 0.0
C780 C 0.158 0.32471 0.14399 0.0
C781 C 0.10503 0.30843 0.14125 0.0
C782 C 0.08852 0.31948 0.11519 0.0
C783 C 0.12403 0.34701 0.0931 0.0
H784 H 0.76771 0.94776 0.51197 0.0
H785 H 0.74568 0.05024 0.56745 0.0
H786 H 0.78071 1.00448 0.47124 0.0
H787 H 0.75911 0.10745 0.52665 0.0
H788 H 0.85079 0.22707 0.4557 0.0
H789 H 0.83359 0.1667 0.49505 0.0
H790 H 0.73633 0.03909 0.43958 0.0
H791 H 0.75231 0.0999 0.40041 0.0
C792 C 0.76508 0.98219 0.51544 0.0
C793 C 0.75557 0.99425 0.54314 0.0
C794 C 0.77244 0.01473 0.49199 0.0
C795 C 0.77148 0.06102 0.4955 0.0
C796 C 0.76077 0.07252 0.52309 0.0
C797 C 0.75247 0.03941 0.54649 0.0
C798 C 0.82609 0.18607 0.45177 0.0
C799 C 0.80372 0.16858 0.42459 0.0
C800 C 0.8158 0.15139 0.47448 0.0
C801 C 0.78312 0.09778 0.47078 0.0
C802 C 0.76184 0.08 0.44333 0.0
C803 C 0.77138 0.11492 0.4207 0.0
H804 H 0.65449 0.86961 0.79471 0.0
H805 H 0.66538 0.76198 0.73782 0.0
H806 H 0.69853 0.84924 0.83209 0.0
H807 H 0.71146 0.74287 0.7751 0.0
H808 H 0.83998 0.77061 0.8449 0.0
H809 H 0.79592 0.78605 0.80513 0.0
H810 H 0.67655 0.77025 0.86291 0.0
H811 H 0.72032 0.75403 0.90263 0.0
C812 C 0.66718 0.84225 0.78996 0.0
C813 C 0.65673 0.81796 0.76303 0.0
C814 C 0.69206 0.83019 0.81155 0.0
C815 C 0.70808 0.79386 0.80689 0.0
C816 C 0.69969 0.77103 0.77952 0.0
C817 C 0.67367 0.78235 0.758 0.0
C818 C 0.80391 0.7697 0.84906 0.0
C819 C 0.78375 0.76102 0.87707 0.0
C820 C 0.77859 0.77846 0.82619 0.0
C821 C 0.73284 0.77993 0.83072 0.0
C822 C 0.71198 0.76997 0.85861 0.0
C823 C 0.73679 0.76016 0.88139 0.0
H824 H 0.96386 0.69317 0.23646 0.0
H825 H 0.06318 0.82003 0.18132 0.0
H826 H 0.90625 0.64909 0.19576 0.0
H827 H 1.00625 0.77592 0.14066 0.0
H828 H 0.91167 0.65232 0.06946 0.0
H829 H 0.97263 0.6968 0.10862 0.0
H830 H 0.84533 0.66376 0.16469 0.0
H831 H 0.78472 0.62112 0.12529 0.0
C832 C 0.97398 0.71121 0.21557 0.0
C833 C 0.01837 0.76018 0.21229 0.0
C834 C 0.94064 0.68622 0.19223 0.0
C835 C 0.95117 0.70895 0.16476 0.0
C836 C 0.99675 0.75695 0.16131 0.0
C837 C 0.02946 0.78232 0.18471 0.0
C838 C 0.89668 0.65568 0.08988 0.0
C839 C 0.84304 0.63391 0.09385 0.0
C840 C 0.93173 0.68087 0.11252 0.0
C841 C 0.91414 0.68363 0.14011 0.0
C842 C 0.86051 0.66195 0.14398 0.0
C843 C 0.82569 0.63782 0.12124 0.0
H844 H 0.26775 0.97166 0.57167 0.0
H845 H 0.24787 0.074 0.51489 0.0
H846 H 0.25112 0.91197 0.5317 0.0
H847 H 0.23193 0.01482 0.47489 0.0
H848 H 0.25443 0.90998 0.40598 0.0
H849 H 0.27354 0.97477 0.44355 0.0
H850 H 0.17287 0.85359 0.50146 0.0
H851 H 0.15261 0.78956 0.46388 0.0
C852 C 0.26081 0.98194 0.55058 0.0
C853 C 0.25919 0.02778 0.54666 0.0
C854 C 0.25072 0.94745 0.52765 0.0
C855 C 0.23966 0.95815 0.49992 0.0
C856 C 0.24035 1.00513 0.49578 0.0
C857 C 0.24942 0.03908 0.5188 0.0
C858 C 0.23526 0.89735 0.42645 0.0
C859 C 0.20139 0.84434 0.43166 0.0
C860 C 0.24661 0.9345 0.44816 0.0
C861 C 0.22551 0.91953 0.47589 0.0
C862 C 0.19069 0.86671 0.48069 0.0
C863 C 0.17863 0.82994 0.45895 0.0
loop_
_geom_bond_atom_site_label_1
_geom_bond_atom_site_label_2
_geom_bond_distance
_geom_bond_site_symmetry_2
_ccdc_geom_bond_type
Tb0 N31 2.660 . S
Tb0 N38 2.600 . S
Tb0 O44 2.546 . S
Tb0 O45 2.610 . S
Tb0 O47 2.320 . S
Tb0 O48 2.552 . S
Tb0 O49 2.413 . S
Tb0 O51 2.362 1_554 S
Tb0 O52 2.421 . S
Tb0 C64 2.833 . S
C1 C4 1.432 . S
C1 C5 1.414 . S
C1 N8 1.359 1_554 S
C2 C4 1.417 . S
C2 C6 1.432 . S
C2 C14 1.410 . S
C3 C5 1.444 . S
C3 C6 1.317 . S
C3 H26 0.929 1_455 S
C4 C1 1.432 . S
C4 C2 1.417 . S
C4 N12 1.360 . S
C5 C1 1.414 . S
C5 C3 1.444 . S
C5 C10 1.385 1_454 S
C6 C2 1.432 . S
C6 C3 1.317 . S
C6 H18 0.930 . S
C7 C9 1.392 . S
C7 C10 1.370 1_455 S
C7 H19 0.931 1_455 S
N8 C1 1.359 1_556 S
N8 C9 1.327 . S
N8 Tb11 2.600 . S
C9 C7 1.392 . S
C9 N8 1.327 . S
C9 H16 0.930 . S
C10 C5 1.385 1_656 S
C10 C7 1.370 1_655 S
C10 H29 0.930 . S
Tb11 N8 2.600 . S
Tb11 N12 2.660 1_556 S
Tb11 O45 2.362 1_556 S
Tb11 O46 2.421 . S
Tb11 O50 2.546 . S
Tb11 O51 2.610 . S
Tb11 O53 2.320 1_556 S
Tb11 O54 2.552 . S
Tb11 O55 2.413 . S
Tb11 C75 2.833 . S
N12 C4 1.360 . S
N12 Tb11 2.660 1_554 S
N12 C13 1.305 . S
C13 N12 1.305 . S
C13 C15 1.407 . S
C13 H20 0.930 . S
C14 C2 1.410 . S
C14 C15 1.345 . S
C14 H22 0.930 . S
C15 C13 1.407 . S
C15 C14 1.345 . S
C15 H17 0.930 . S
H16 C9 0.930 . S
H17 C15 0.930 . S
H18 C6 0.930 . S
H19 C7 0.931 1_655 S
H20 C13 0.930 . S
H21 C35 0.930 . S
H22 C14 0.930 . S
H23 C41 0.930 . S
H24 C32 0.930 . S
H25 C39 0.931 . S
H26 C3 0.929 1_655 S
H27 C33 0.930 . S
H28 C66 0.930 . S
H29 C10 0.930 . S
H30 C65 0.929 . S
N31 Tb0 2.660 . S
N31 C32 1.305 1_554 S
N31 C36 1.360 . S
C32 H24 0.930 . S
C32 N31 1.305 1_556 S
C32 C35 1.407 . S
C33 H27 0.930 . S
C33 C34 1.410 . S
C33 C35 1.345 . S
C34 C33 1.410 . S
C34 C36 1.417 1_556 S
C34 C66 1.432 . S
C35 H21 0.930 . S
C35 C32 1.407 . S
C35 C33 1.345 . S
C36 N31 1.360 . S
C36 C34 1.417 1_554 S
C36 C40 1.432 . S
H37 C42 0.930 . S
N38 Tb0 2.600 . S
N38 C40 1.359 . S
N38 C41 1.327 . S
C39 H25 0.931 . S
C39 C41 1.392 . S
C39 C42 1.370 . S
C40 C36 1.432 . S
C40 N38 1.359 . S
C40 C43 1.414 . S
C41 H23 0.930 . S
C41 N38 1.327 . S
C41 C39 1.392 . S
C42 H37 0.930 . S
C42 C39 1.370 . S
C42 C43 1.385 . S
C43 C40 1.414 . S
C43 C42 1.385 . S
C43 C65 1.444 . S
O44 Tb0 2.546 . S
O44 C64 1.251 . S
O45 Tb0 2.610 . S
O45 Tb11 2.362 1_554 S
O45 C56 1.283 . S
O46 Tb11 2.421 . S
O46 C63 1.262 1_556 S
O47 Tb0 2.320 . S
O47 C63 1.260 . S
O48 Tb0 2.552 . S
O48 C56 1.243 . S
O49 Tb0 2.413 . S
O49 C64 1.256 . S
O50 Tb11 2.546 . S
O50 C75 1.251 . S
O51 Tb0 2.362 1_556 S
O51 Tb11 2.610 . S
O51 C67 1.283 . S
O52 Tb0 2.421 . S
O52 C74 1.262 . S
O53 Tb11 2.320 1_554 S
O53 C74 1.260 . S
O54 Tb11 2.552 . S
O54 C67 1.243 . S
O55 Tb11 2.413 . S
O55 C75 1.256 . S
C56 O45 1.283 . S
C56 O48 1.243 . S
C57 C59 1.382 . S
C57 C61 1.393 . S
C57 C64 1.500 . S
C58 C59 1.400 . S
C58 C60 1.384 . S
C59 C57 1.382 . S
C59 C58 1.400 . S
C59 H76 0.930 . S
C60 C58 1.384 . S
C60 C62 1.392 . S
C60 H77 0.931 . S
C61 C57 1.393 . S
C61 C62 1.401 . S
C61 H78 0.930 . S
C62 C60 1.392 . S
C62 C61 1.401 . S
C62 H79 0.930 . S
C63 O46 1.262 1_554 S
C63 O47 1.260 . S
C64 Tb0 2.833 . S
C64 O44 1.251 . S
C64 O49 1.256 . S
C64 C57 1.500 . S
C65 H30 0.929 . S
C65 C43 1.444 . S
C65 C66 1.317 1_554 S
C66 H28 0.930 . S
C66 C34 1.432 . S
C66 C65 1.317 1_556 S
C67 O51 1.283 . S
C67 O54 1.243 . S
C68 C69 1.382 . S
C68 C72 1.393 . S
C68 C75 1.500 . S
C69 C68 1.382 . S
C69 C70 1.400 . S
C69 H80 0.930 . S
C70 C69 1.400 . S
C70 C71 1.384 . S
C71 C70 1.384 . S
C71 C73 1.392 . S
C71 H81 0.931 . S
C72 C68 1.393 . S
C72 C73 1.401 . S
C72 H82 0.930 . S
C73 C71 1.392 . S
C73 C72 1.401 . S
C73 H83 0.930 . S
C74 O52 1.262 . S
C74 O53 1.260 . S
C75 Tb11 2.833 . S
C75 O50 1.251 . S
C75 O55 1.256 . S
C75 C68 1.500 . S
H76 C59 0.930 . S
H77 C60 0.931 . S
H78 C61 0.930 . S
H79 C62 0.930 . S
H80 C69 0.930 . S
H81 C71 0.931 . S
H82 C72 0.930 . S
H83 C73 0.930 . S
Tb84 N115 2.660 . S
Tb84 N122 2.600 . S
Tb84 O128 2.546 . S
Tb84 O129 2.610 . S
Tb84 O131 2.320 . S
Tb84 O132 2.552 . S
Tb84 O133 2.413 . S
Tb84 O135 2.362 . S
Tb84 O136 2.421 . S
Tb84 C148 2.833 . S
C85 C88 1.432 . S
C85 C89 1.414 . S
C85 N92 1.359 . S
C86 C88 1.417 . S
C86 C90 1.432 . S
C86 C98 1.410 . S
C87 C89 1.444 . S
C87 C90 1.317 . S
C87 H110 0.929 1_545 S
C88 C85 1.432 . S
C88 C86 1.417 . S
C88 N96 1.360 . S
C89 C85 1.414 . S
C89 C87 1.444 . S
C89 C94 1.385 1_545 S
C90 C86 1.432 . S
C90 C87 1.317 . S
C90 H102 0.930 . S
C91 C93 1.392 . S
C91 C94 1.370 1_545 S
C91 H103 0.931 1_545 S
N92 C85 1.359 . S
N92 C93 1.327 . S
N92 Tb95 2.600 . S
C93 C91 1.392 . S
C93 N92 1.327 . S
C93 H100 0.930 . S
C94 C89 1.385 1_565 S
C94 C91 1.370 1_565 S
C94 H113 0.930 . S
Tb95 N92 2.600 . S
Tb95 N96 2.660 . S
Tb95 O129 2.362 . S
Tb95 O130 2.421 . S
Tb95 O134 2.546 . S
Tb95 O135 2.610 . S
Tb95 O137 2.320 . S
Tb95 O138 2.552 . S
Tb95 O139 2.413 . S
Tb95 C159 2.833 . S
N96 C88 1.360 . S
N96 Tb95 2.660 . S
N96 C97 1.305 . S
C97 N96 1.305 . S
C97 C99 1.407 . S
C97 H104 0.930 . S
C98 C86 1.410 . S
C98 C99 1.345 . S
C98 H106 0.930 . S
C99 C97 1.407 . S
C99 C98 1.345 . S
C99 H101 0.930 . S
H100 C93 0.930 . S
H101 C99 0.930 . S
H102 C90 0.930 . S
H103 C91 0.931 1_565 S
H104 C97 0.930 . S
H105 C119 0.930 . S
H106 C98 0.930 . S
H107 C125 0.930 . S
H108 C116 0.930 . S
H109 C123 0.931 . S
H110 C87 0.929 1_565 S
H111 C117 0.930 . S
H112 C150 0.930 . S
H113 C94 0.930 . S
H114 C149 0.929 . S
N115 Tb84 2.660 . S
N115 C116 1.305 . S
N115 C120 1.360 . S
C116 H108 0.930 . S
C116 N115 1.305 . S
C116 C119 1.407 . S
C117 H111 0.930 . S
C117 C118 1.410 . S
C117 C119 1.345 . S
C118 C117 1.410 . S
C118 C120 1.417 . S
C118 C150 1.432 . S
C119 H105 0.930 . S
C119 C116 1.407 . S
C119 C117 1.345 . S
C120 N115 1.360 . S
C120 C118 1.417 . S
C120 C124 1.432 . S
H121 C126 0.930 . S
N122 Tb84 2.600 . S
N122 C124 1.359 . S
N122 C125 1.327 . S
C123 H109 0.931 . S
C123 C125 1.392 . S
C123 C126 1.370 . S
C124 C120 1.432 . S
C124 N122 1.359 . S
C124 C127 1.414 . S
C125 H107 0.930 . S
C125 N122 1.327 . S
C125 C123 1.392 . S
C126 H121 0.930 . S
C126 C123 1.370 . S
C126 C127 1.385 . S
C127 C124 1.414 . S
C127 C126 1.385 . S
C127 C149 1.444 . S
O128 Tb84 2.546 . S
O128 C148 1.251 . S
O129 Tb84 2.610 . S
O129 Tb95 2.362 . S
O129 C140 1.283 . S
O130 Tb95 2.421 . S
O130 C147 1.262 . S
O131 Tb84 2.320 . S
O131 C147 1.260 . S
O132 Tb84 2.552 . S
O132 C140 1.243 . S
O133 Tb84 2.413 . S
O133 C148 1.256 . S
O134 Tb95 2.546 . S
O134 C159 1.251 . S
O135 Tb84 2.362 . S
O135 Tb95 2.610 . S
O135 C151 1.283 . S
O136 Tb84 2.421 . S
O136 C158 1.262 . S
O137 Tb95 2.320 . S
O137 C158 1.260 . S
O138 Tb95 2.552 . S
O138 C151 1.243 . S
O139 Tb95 2.413 . S
O139 C159 1.256 . S
C140 O129 1.283 . S
C140 O132 1.243 . S
C141 C143 1.382 . S
C141 C145 1.393 . S
C141 C148 1.500 . S
C142 C143 1.400 . S
C142 C144 1.384 . S
C143 C141 1.382 . S
C143 C142 1.400 . S
C143 H160 0.930 . S
C144 C142 1.384 . S
C144 C146 1.392 . S
C144 H161 0.931 . S
C145 C141 1.393 . S
C145 C146 1.401 . S
C145 H162 0.930 . S
C146 C144 1.392 . S
C146 C145 1.401 . S
C146 H163 0.930 . S
C147 O130 1.262 . S
C147 O131 1.260 . S
C148 Tb84 2.833 . S
C148 O128 1.251 . S
C148 O133 1.256 . S
C148 C141 1.500 . S
C149 H114 0.929 . S
C149 C127 1.444 . S
C149 C150 1.317 . S
C150 H112 0.930 . S
C150 C118 1.432 . S
C150 C149 1.317 . S
C151 O135 1.283 . S
C151 O138 1.243 . S
C152 C153 1.382 . S
C152 C156 1.393 . S
C152 C159 1.500 . S
C153 C152 1.382 . S
C153 C154 1.400 . S
C153 H164 0.930 . S
C154 C153 1.400 . S
C154 C155 1.384 . S
C155 C154 1.384 . S
C155 C157 1.392 . S
C155 H165 0.931 . S
C156 C152 1.393 . S
C156 C157 1.401 . S
C156 H166 0.930 . S
C157 C155 1.392 . S
C157 C156 1.401 . S
C157 H167 0.930 . S
C158 O136 1.262 . S
C158 O137 1.260 . S
C159 Tb95 2.833 . S
C159 O134 1.251 . S
C159 O139 1.256 . S
C159 C152 1.500 . S
H160 C143 0.930 . S
H161 C144 0.931 . S
H162 C145 0.930 . S
H163 C146 0.930 . S
H164 C153 0.930 . S
H165 C155 0.931 . S
H166 C156 0.930 . S
H167 C157 0.930 . S
Tb168 N199 2.660 . S
Tb168 N206 2.600 . S
Tb168 O212 2.546 . S
Tb168 O213 2.610 . S
Tb168 O215 2.320 . S
Tb168 O216 2.552 . S
Tb168 O217 2.413 . S
Tb168 O219 2.362 . S
Tb168 O220 2.421 . S
Tb168 C232 2.833 . S
C169 C172 1.432 . S
C169 C173 1.414 . S
C169 N176 1.359 . S
C170 C172 1.417 . S
C170 C174 1.432 . S
C170 C182 1.410 . S
C171 C173 1.444 . S
C171 C174 1.317 . S
C171 H194 0.929 . S
C172 C169 1.432 . S
C172 C170 1.417 . S
C172 N180 1.360 . S
C173 C169 1.414 . S
C173 C171 1.444 . S
C173 C178 1.385 . S
C174 C170 1.432 . S
C174 C171 1.317 . S
C174 H186 0.930 . S
C175 C177 1.392 . S
C175 C178 1.370 . S
C175 H187 0.931 . S
N176 C169 1.359 . S
N176 C177 1.327 . S
N176 Tb179 2.600 . S
C177 C175 1.392 . S
C177 N176 1.327 . S
C177 H184 0.930 . S
C178 C173 1.385 . S
C178 C175 1.370 . S
C178 H197 0.930 . S
Tb179 N176 2.600 . S
Tb179 N180 2.660 . S
Tb179 O213 2.362 . S
Tb179 O214 2.421 . S
Tb179 O218 2.546 . S
Tb179 O219 2.610 . S
Tb179 O221 2.320 . S
Tb179 O222 2.552 . S
Tb179 O223 2.413 . S
Tb179 C243 2.833 . S
N180 C172 1.360 . S
N180 Tb179 2.660 . S
N180 C181 1.305 . S
C181 N180 1.305 . S
C181 C183 1.407 . S
C181 H188 0.930 . S
C182 C170 1.410 . S
C182 C183 1.345 . S
C182 H190 0.930 . S
C183 C181 1.407 . S
C183 C182 1.345 . S
C183 H185 0.930 . S
H184 C177 0.930 . S
H185 C183 0.930 . S
H186 C174 0.930 . S
H187 C175 0.931 . S
H188 C181 0.930 . S
H189 C203 0.930 . S
H190 C182 0.930 . S
H191 C209 0.930 . S
H192 C200 0.930 . S
H193 C207 0.931 . S
H194 C171 0.929 . S
H195 C201 0.930 . S
H196 C234 0.930 . S
H197 C178 0.930 . S
H198 C233 0.929 . S
N199 Tb168 2.660 . S
N199 C200 1.305 . S
N199 C204 1.360 . S
C200 H192 0.930 . S
C200 N199 1.305 . S
C200 C203 1.407 . S
C201 H195 0.930 . S
C201 C202 1.410 . S
C201 C203 1.345 . S
C202 C201 1.410 . S
C202 C204 1.417 . S
C202 C234 1.432 . S
C203 H189 0.930 . S
C203 C200 1.407 . S
C203 C201 1.345 . S
C204 N199 1.360 . S
C204 C202 1.417 . S
C204 C208 1.432 . S
H205 C210 0.930 . S
N206 Tb168 2.600 . S
N206 C208 1.359 . S
N206 C209 1.327 . S
C207 H193 0.931 . S
C207 C209 1.392 . S
C207 C210 1.370 . S
C208 C204 1.432 . S
C208 N206 1.359 . S
C208 C211 1.414 . S
C209 H191 0.930 . S
C209 N206 1.327 . S
C209 C207 1.392 . S
C210 H205 0.930 . S
C210 C207 1.370 . S
C210 C211 1.385 . S
C211 C208 1.414 . S
C211 C210 1.385 . S
C211 C233 1.444 . S
O212 Tb168 2.546 . S
O212 C232 1.251 . S
O213 Tb168 2.610 . S
O213 Tb179 2.362 . S
O213 C224 1.283 . S
O214 Tb179 2.421 . S
O214 C231 1.262 . S
O215 Tb168 2.320 . S
O215 C231 1.260 . S
O216 Tb168 2.552 . S
O216 C224 1.243 . S
O217 Tb168 2.413 . S
O217 C232 1.256 . S
O218 Tb179 2.546 . S
O218 C243 1.251 . S
O219 Tb168 2.362 . S
O219 Tb179 2.610 . S
O219 C235 1.283 . S
O220 Tb168 2.421 . S
O220 C242 1.262 . S
O221 Tb179 2.320 . S
O221 C242 1.260 . S
O222 Tb179 2.552 . S
O222 C235 1.243 . S
O223 Tb179 2.413 . S
O223 C243 1.256 . S
C224 O213 1.283 . S
C224 O216 1.243 . S
C225 C227 1.382 . S
C225 C229 1.393 . S
C225 C232 1.500 . S
C226 C227 1.400 . S
C226 C228 1.384 . S
C227 C225 1.382 . S
C227 C226 1.400 . S
C227 H244 0.930 . S
C228 C226 1.384 . S
C228 C230 1.392 . S
C228 H245 0.931 . S
C229 C225 1.393 . S
C229 C230 1.401 . S
C229 H246 0.930 . S
C230 C228 1.392 . S
C230 C229 1.401 . S
C230 H247 0.930 . S
C231 O214 1.262 . S
C231 O215 1.260 . S
C232 Tb168 2.833 . S
C232 O212 1.251 . S
C232 O217 1.256 . S
C232 C225 1.500 . S
C233 H198 0.929 . S
C233 C211 1.444 . S
C233 C234 1.317 . S
C234 H196 0.930 . S
C234 C202 1.432 . S
C234 C233 1.317 . S
C235 O219 1.283 . S
C235 O222 1.243 . S
C236 C237 1.382 . S
C236 C240 1.393 . S
C236 C243 1.500 . S
C237 C236 1.382 . S
C237 C238 1.400 . S
C237 H248 0.930 . S
C238 C237 1.400 . S
C238 C239 1.384 . S
C239 C238 1.384 . S
C239 C241 1.392 . S
C239 H249 0.931 . S
C240 C236 1.393 . S
C240 C241 1.401 . S
C240 H250 0.930 . S
C241 C239 1.392 . S
C241 C240 1.401 . S
C241 H251 0.930 . S
C242 O220 1.262 . S
C242 O221 1.260 . S
C243 Tb179 2.833 . S
C243 O218 1.251 . S
C243 O223 1.256 . S
C243 C236 1.500 . S
H244 C227 0.930 . S
H245 C228 0.931 . S
H246 C229 0.930 . S
H247 C230 0.930 . S
H248 C237 0.930 . S
H249 C239 0.931 . S
H250 C240 0.930 . S
H251 C241 0.930 . S
Tb252 N283 2.660 . S
Tb252 N290 2.600 . S
Tb252 O296 2.546 . S
Tb252 O297 2.610 . S
Tb252 O299 2.320 . S
Tb252 O300 2.552 . S
Tb252 O301 2.413 . S
Tb252 O303 2.362 1_554 S
Tb252 O304 2.421 . S
Tb252 C316 2.833 . S
C253 C256 1.432 . S
C253 C257 1.414 . S
C253 N260 1.359 1_554 S
C254 C256 1.417 . S
C254 C258 1.432 . S
C254 C266 1.410 . S
C255 C257 1.444 . S
C255 C258 1.317 . S
C255 H278 0.929 1_655 S
C256 C253 1.432 . S
C256 C254 1.417 . S
C256 N264 1.360 . S
C257 C253 1.414 . S
C257 C255 1.444 . S
C257 C262 1.385 1_654 S
C258 C254 1.432 . S
C258 C255 1.317 . S
C258 H270 0.930 . S
C259 C261 1.392 . S
C259 C262 1.370 1_655 S
C259 H271 0.931 1_655 S
N260 C253 1.359 1_556 S
N260 C261 1.327 . S
N260 Tb263 2.600 . S
C261 C259 1.392 . S
C261 N260 1.327 . S
C261 H268 0.930 . S
C262 C257 1.385 1_456 S
C262 C259 1.370 1_455 S
C262 H281 0.930 . S
Tb263 N260 2.600 . S
Tb263 N264 2.660 1_556 S
Tb263 O297 2.362 1_556 S
Tb263 O298 2.421 . S
Tb263 O302 2.546 . S
Tb263 O303 2.610 . S
Tb263 O305 2.320 1_556 S
Tb263 O306 2.552 . S
Tb263 O307 2.413 . S
Tb263 C327 2.833 . S
N264 C256 1.360 . S
N264 Tb263 2.660 1_554 S
N264 C265 1.305 . S
C265 N264 1.305 . S
C265 C267 1.407 . S
C265 H272 0.930 . S
C266 C254 1.410 . S
C266 C267 1.345 . S
C266 H274 0.930 . S
C267 C265 1.407 . S
C267 C266 1.345 . S
C267 H269 0.930 . S
H268 C261 0.930 . S
H269 C267 0.930 . S
H270 C258 0.930 . S
H271 C259 0.931 1_455 S
H272 C265 0.930 . S
H273 C287 0.930 . S
H274 C266 0.930 . S
H275 C293 0.930 . S
H276 C284 0.930 . S
H277 C291 0.931 . S
H278 C255 0.929 1_455 S
H279 C285 0.930 . S
H280 C318 0.930 . S
H281 C262 0.930 . S
H282 C317 0.929 . S
N283 Tb252 2.660 . S
N283 C284 1.305 1_554 S
N283 C288 1.360 . S
C284 H276 0.930 . S
C284 N283 1.305 1_556 S
C284 C287 1.407 . S
C285 H279 0.930 . S
C285 C286 1.410 . S
C285 C287 1.345 . S
C286 C285 1.410 . S
C286 C288 1.417 1_556 S
C286 C318 1.432 . S
C287 H273 0.930 . S
C287 C284 1.407 . S
C287 C285 1.345 . S
C288 N283 1.360 . S
C288 C286 1.417 1_554 S
C288 C292 1.432 . S
H289 C294 0.930 . S
N290 Tb252 2.600 . S
N290 C292 1.359 . S
N290 C293 1.327 . S
C291 H277 0.931 . S
C291 C293 1.392 . S
C291 C294 1.370 . S
C292 C288 1.432 . S
C292 N290 1.359 . S
C292 C295 1.414 . S
C293 H275 0.930 . S
C293 N290 1.327 . S
C293 C291 1.392 . S
C294 H289 0.930 . S
C294 C291 1.370 . S
C294 C295 1.385 . S
C295 C292 1.414 . S
C295 C294 1.385 . S
C295 C317 1.444 . S
O296 Tb252 2.546 . S
O296 C316 1.251 . S
O297 Tb252 2.610 . S
O297 Tb263 2.362 1_554 S
O297 C308 1.283 . S
O298 Tb263 2.421 . S
O298 C315 1.262 1_556 S
O299 Tb252 2.320 . S
O299 C315 1.260 . S
O300 Tb252 2.552 . S
O300 C308 1.243 . S
O301 Tb252 2.413 . S
O301 C316 1.256 . S
O302 Tb263 2.546 . S
O302 C327 1.251 . S
O303 Tb252 2.362 1_556 S
O303 Tb263 2.610 . S
O303 C319 1.283 . S
O304 Tb252 2.421 . S
O304 C326 1.262 . S
O305 Tb263 2.320 1_554 S
O305 C326 1.260 . S
O306 Tb263 2.552 . S
O306 C319 1.243 . S
O307 Tb263 2.413 . S
O307 C327 1.256 . S
C308 O297 1.283 . S
C308 O300 1.243 . S
C309 C311 1.382 . S
C309 C313 1.393 . S
C309 C316 1.500 . S
C310 C311 1.400 . S
C310 C312 1.384 . S
C311 C309 1.382 . S
C311 C310 1.400 . S
C311 H328 0.930 . S
C312 C310 1.384 . S
C312 C314 1.392 . S
C312 H329 0.931 . S
C313 C309 1.393 . S
C313 C314 1.401 . S
C313 H330 0.930 . S
C314 C312 1.392 . S
C314 C313 1.401 . S
C314 H331 0.930 . S
C315 O298 1.262 1_554 S
C315 O299 1.260 . S
C316 Tb252 2.833 . S
C316 O296 1.251 . S
C316 O301 1.256 . S
C316 C309 1.500 . S
C317 H282 0.929 . S
C317 C295 1.444 . S
C317 C318 1.317 1_554 S
C318 H280 0.930 . S
C318 C286 1.432 . S
C318 C317 1.317 1_556 S
C319 O303 1.283 . S
C319 O306 1.243 . S
C320 C321 1.382 . S
C320 C324 1.393 . S
C320 C327 1.500 . S
C321 C320 1.382 . S
C321 C322 1.400 . S
C321 H332 0.930 . S
C322 C321 1.400 . S
C322 C323 1.384 . S
C323 C322 1.384 . S
C323 C325 1.392 . S
C323 H333 0.931 . S
C324 C320 1.393 . S
C324 C325 1.401 . S
C324 H334 0.930 . S
C325 C323 1.392 . S
C325 C324 1.401 . S
C325 H335 0.930 . S
C326 O304 1.262 . S
C326 O305 1.260 . S
C327 Tb263 2.833 . S
C327 O302 1.251 . S
C327 O307 1.256 . S
C327 C320 1.500 . S
H328 C311 0.930 . S
H329 C312 0.931 . S
H330 C313 0.930 . S
H331 C314 0.930 . S
H332 C321 0.930 . S
H333 C323 0.931 . S
H334 C324 0.930 . S
H335 C325 0.930 . S
Tb336 N367 2.660 . S
Tb336 N374 2.600 . S
Tb336 O380 2.546 . S
Tb336 O381 2.610 . S
Tb336 O383 2.320 . S
Tb336 O384 2.552 . S
Tb336 O385 2.413 . S
Tb336 O387 2.362 . S
Tb336 O388 2.421 . S
Tb336 C400 2.833 . S
C337 C340 1.432 . S
C337 C341 1.414 . S
C337 N344 1.359 . S
C338 C340 1.417 . S
C338 C342 1.432 . S
C338 C350 1.410 . S
C339 C341 1.444 . S
C339 C342 1.317 . S
C339 H362 0.929 1_565 S
C340 C337 1.432 . S
C340 C338 1.417 . S
C340 N348 1.360 . S
C341 C337 1.414 . S
C341 C339 1.444 . S
C341 C346 1.385 1_565 S
C342 C338 1.432 . S
C342 C339 1.317 . S
C342 H354 0.930 . S
C343 C345 1.392 . S
C343 C346 1.370 1_565 S
C343 H355 0.931 1_565 S
N344 C337 1.359 . S
N344 C345 1.327 . S
N344 Tb347 2.600 . S
C345 C343 1.392 . S
C345 N344 1.327 . S
C345 H352 0.930 . S
C346 C341 1.385 1_545 S
C346 C343 1.370 1_545 S
C346 H365 0.930 . S
Tb347 N344 2.600 . S
Tb347 N348 2.660 . S
Tb347 O381 2.362 . S
Tb347 O382 2.421 . S
Tb347 O386 2.546 . S
Tb347 O387 2.610 . S
Tb347 O389 2.320 . S
Tb347 O390 2.552 . S
Tb347 O391 2.413 . S
Tb347 C411 2.833 . S
N348 C340 1.360 . S
N348 Tb347 2.660 . S
N348 C349 1.305 . S
C349 N348 1.305 . S
C349 C351 1.407 . S
C349 H356 0.930 . S
C350 C338 1.410 . S
C350 C351 1.345 . S
C350 H358 0.930 . S
C351 C349 1.407 . S
C351 C350 1.345 . S
C351 H353 0.930 . S
H352 C345 0.930 . S
H353 C351 0.930 . S
H354 C342 0.930 . S
H355 C343 0.931 1_545 S
H356 C349 0.930 . S
H357 C371 0.930 . S
H358 C350 0.930 . S
H359 C377 0.930 . S
H360 C368 0.930 . S
H361 C375 0.931 . S
H362 C339 0.929 1_545 S
H363 C369 0.930 . S
H364 C402 0.930 . S
H365 C346 0.930 . S
H366 C401 0.929 . S
N367 Tb336 2.660 . S
N367 C368 1.305 . S
N367 C372 1.360 . S
C368 H360 0.930 . S
C368 N367 1.305 . S
C368 C371 1.407 . S
C369 H363 0.930 . S
C369 C370 1.410 . S
C369 C371 1.345 . S
C370 C369 1.410 . S
C370 C372 1.417 . S
C370 C402 1.432 . S
C371 H357 0.930 . S
C371 C368 1.407 . S
C371 C369 1.345 . S
C372 N367 1.360 . S
C372 C370 1.417 . S
C372 C376 1.432 . S
H373 C378 0.930 . S
N374 Tb336 2.600 . S
N374 C376 1.359 . S
N374 C377 1.327 . S
C375 H361 0.931 . S
C375 C377 1.392 . S
C375 C378 1.370 . S
C376 C372 1.432 . S
C376 N374 1.359 . S
C376 C379 1.414 . S
C377 H359 0.930 . S
C377 N374 1.327 . S
C377 C375 1.392 . S
C378 H373 0.930 . S
C378 C375 1.370 . S
C378 C379 1.385 . S
C379 C376 1.414 . S
C379 C378 1.385 . S
C379 C401 1.444 . S
O380 Tb336 2.546 . S
O380 C400 1.251 . S
O381 Tb336 2.610 . S
O381 Tb347 2.362 . S
O381 C392 1.283 . S
O382 Tb347 2.421 . S
O382 C399 1.262 . S
O383 Tb336 2.320 . S
O383 C399 1.260 . S
O384 Tb336 2.552 . S
O384 C392 1.243 . S
O385 Tb336 2.413 . S
O385 C400 1.256 . S
O386 Tb347 2.546 . S
O386 C411 1.251 . S
O387 Tb336 2.362 . S
O387 Tb347 2.610 . S
O387 C403 1.283 . S
O388 Tb336 2.421 . S
O388 C410 1.262 . S
O389 Tb347 2.320 . S
O389 C410 1.260 . S
O390 Tb347 2.552 . S
O390 C403 1.243 . S
O391 Tb347 2.413 . S
O391 C411 1.256 . S
C392 O381 1.283 . S
C392 O384 1.243 . S
C393 C395 1.382 . S
C393 C397 1.393 . S
C393 C400 1.500 . S
C394 C395 1.400 . S
C394 C396 1.384 . S
C395 C393 1.382 . S
C395 C394 1.400 . S
C395 H412 0.930 . S
C396 C394 1.384 . S
C396 C398 1.392 . S
C396 H413 0.931 . S
C397 C393 1.393 . S
C397 C398 1.401 . S
C397 H414 0.930 . S
C398 C396 1.392 . S
C398 C397 1.401 . S
C398 H415 0.930 . S
C399 O382 1.262 . S
C399 O383 1.260 . S
C400 Tb336 2.833 . S
C400 O380 1.251 . S
C400 O385 1.256 . S
C400 C393 1.500 . S
C401 H366 0.929 . S
C401 C379 1.444 . S
C401 C402 1.317 . S
C402 H364 0.930 . S
C402 C370 1.432 . S
C402 C401 1.317 . S
C403 O387 1.283 . S
C403 O390 1.243 . S
C404 C405 1.382 . S
C404 C408 1.393 . S
C404 C411 1.500 . S
C405 C404 1.382 . S
C405 C406 1.400 . S
C405 H416 0.930 . S
C406 C405 1.400 . S
C406 C407 1.384 . S
C407 C406 1.384 . S
C407 C409 1.392 . S
C407 H417 0.931 . S
C408 C404 1.393 . S
C408 C409 1.401 . S
C408 H418 0.930 . S
C409 C407 1.392 . S
C409 C408 1.401 . S
C409 H419 0.930 . S
C410 O388 1.262 . S
C410 O389 1.260 . S
C411 Tb347 2.833 . S
C411 O386 1.251 . S
C411 O391 1.256 . S
C411 C404 1.500 . S
H412 C395 0.930 . S
H413 C396 0.931 . S
H414 C397 0.930 . S
H415 C398 0.930 . S
H416 C405 0.930 . S
H417 C407 0.931 . S
H418 C408 0.930 . S
H419 C409 0.930 . S
Tb420 N451 2.660 . S
Tb420 N458 2.600 . S
Tb420 O464 2.546 . S
Tb420 O465 2.610 . S
Tb420 O467 2.320 . S
Tb420 O468 2.552 . S
Tb420 O469 2.413 . S
Tb420 O471 2.362 . S
Tb420 O472 2.421 . S
Tb420 C484 2.833 . S
C421 C424 1.432 . S
C421 C425 1.414 . S
C421 N428 1.359 . S
C422 C424 1.417 . S
C422 C426 1.432 . S
C422 C434 1.410 . S
C423 C425 1.444 . S
C423 C426 1.317 . S
C423 H446 0.929 . S
C424 C421 1.432 . S
C424 C422 1.417 . S
C424 N432 1.360 . S
C425 C421 1.414 . S
C425 C423 1.444 . S
C425 C430 1.385 . S
C426 C422 1.432 . S
C426 C423 1.317 . S
C426 H438 0.930 . S
C427 C429 1.392 . S
C427 C430 1.370 . S
C427 H439 0.931 . S
N428 C421 1.359 . S
N428 C429 1.327 . S
N428 Tb431 2.600 . S
C429 C427 1.392 . S
C429 N428 1.327 . S
C429 H436 0.930 . S
C430 C425 1.385 . S
C430 C427 1.370 . S
C430 H449 0.930 . S
Tb431 N428 2.600 . S
Tb431 N432 2.660 . S
Tb431 O465 2.362 . S
Tb431 O466 2.421 . S
Tb431 O470 2.546 . S
Tb431 O471 2.610 . S
Tb431 O473 2.320 . S
Tb431 O474 2.552 . S
Tb431 O475 2.413 . S
Tb431 C495 2.833 . S
N432 C424 1.360 . S
N432 Tb431 2.660 . S
N432 C433 1.305 . S
C433 N432 1.305 . S
C433 C435 1.407 . S
C433 H440 0.930 . S
C434 C422 1.410 . S
C434 C435 1.345 . S
C434 H442 0.930 . S
C435 C433 1.407 . S
C435 C434 1.345 . S
C435 H437 0.930 . S
H436 C429 0.930 . S
H437 C435 0.930 . S
H438 C426 0.930 . S
H439 C427 0.931 . S
H440 C433 0.930 . S
H441 C455 0.930 . S
H442 C434 0.930 . S
H443 C461 0.930 . S
H444 C452 0.930 . S
H445 C459 0.931 . S
H446 C423 0.929 . S
H447 C453 0.930 . S
H448 C486 0.930 . S
H449 C430 0.930 . S
H450 C485 0.929 . S
N451 Tb420 2.660 . S
N451 C452 1.305 . S
N451 C456 1.360 . S
C452 H444 0.930 . S
C452 N451 1.305 . S
C452 C455 1.407 . S
C453 H447 0.930 . S
C453 C454 1.410 . S
C453 C455 1.345 . S
C454 C453 1.410 . S
C454 C456 1.417 . S
C454 C486 1.432 . S
C455 H441 0.930 . S
C455 C452 1.407 . S
C455 C453 1.345 . S
C456 N451 1.360 . S
C456 C454 1.417 . S
C456 C460 1.432 . S
H457 C462 0.930 . S
N458 Tb420 2.600 . S
N458 C460 1.359 . S
N458 C461 1.327 . S
C459 H445 0.931 . S
C459 C461 1.392 . S
C459 C462 1.370 . S
C460 C456 1.432 . S
C460 N458 1.359 . S
C460 C463 1.414 . S
C461 H443 0.930 . S
C461 N458 1.327 . S
C461 C459 1.392 . S
C462 H457 0.930 . S
C462 C459 1.370 . S
C462 C463 1.385 . S
C463 C460 1.414 . S
C463 C462 1.385 . S
C463 C485 1.444 . S
O464 Tb420 2.546 . S
O464 C484 1.251 . S
O465 Tb420 2.610 . S
O465 Tb431 2.362 . S
O465 C476 1.283 . S
O466 Tb431 2.421 . S
O466 C483 1.262 . S
O467 Tb420 2.320 . S
O467 C483 1.260 . S
O468 Tb420 2.552 . S
O468 C476 1.243 . S
O469 Tb420 2.413 . S
O469 C484 1.256 . S
O470 Tb431 2.546 . S
O470 C495 1.251 . S
O471 Tb420 2.362 . S
O471 Tb431 2.610 . S
O471 C487 1.283 . S
O472 Tb420 2.421 . S
O472 C494 1.262 . S
O473 Tb431 2.320 . S
O473 C494 1.260 . S
O474 Tb431 2.552 . S
O474 C487 1.243 . S
O475 Tb431 2.413 . S
O475 C495 1.256 . S
C476 O465 1.283 . S
C476 O468 1.243 . S
C477 C479 1.382 . S
C477 C481 1.393 . S
C477 C484 1.500 . S
C478 C479 1.400 . S
C478 C480 1.384 . S
C479 C477 1.382 . S
C479 C478 1.400 . S
C479 H496 0.930 . S
C480 C478 1.384 . S
C480 C482 1.392 . S
C480 H497 0.931 . S
C481 C477 1.393 . S
C481 C482 1.401 . S
C481 H498 0.930 . S
C482 C480 1.392 . S
C482 C481 1.401 . S
C482 H499 0.930 . S
C483 O466 1.262 . S
C483 O467 1.260 . S
C484 Tb420 2.833 . S
C484 O464 1.251 . S
C484 O469 1.256 . S
C484 C477 1.500 . S
C485 H450 0.929 . S
C485 C463 1.444 . S
C485 C486 1.317 . S
C486 H448 0.930 . S
C486 C454 1.432 . S
C486 C485 1.317 . S
C487 O471 1.283 . S
C487 O474 1.243 . S
C488 C489 1.382 . S
C488 C492 1.393 . S
C488 C495 1.500 . S
C489 C488 1.382 . S
C489 C490 1.400 . S
C489 H500 0.930 . S
C490 C489 1.400 . S
C490 C491 1.384 . S
C491 C490 1.384 . S
C491 C493 1.392 . S
C491 H501 0.931 . S
C492 C488 1.393 . S
C492 C493 1.401 . S
C492 H502 0.930 . S
C493 C491 1.392 . S
C493 C492 1.401 . S
C493 H503 0.930 . S
C494 O472 1.262 . S
C494 O473 1.260 . S
C495 Tb431 2.833 . S
C495 O470 1.251 . S
C495 O475 1.256 . S
C495 C488 1.500 . S
H496 C479 0.930 . S
H497 C480 0.931 . S
H498 C481 0.930 . S
H499 C482 0.930 . S
H500 C489 0.930 . S
H501 C491 0.931 . S
H502 C492 0.930 . S
H503 C493 0.930 . S
H504 C512 0.950 . S
H505 C517 0.950 . S
H506 C514 0.950 . S
H507 C516 0.950 . S
H508 C518 0.950 . S
H509 C520 0.950 . S
H510 C522 0.950 . S
H511 C523 0.950 . S
C512 H504 0.950 . S
C512 C513 1.386 . S
C512 C514 1.391 . S
C513 C512 1.386 . S
C513 C517 1.393 . S
C514 H506 0.950 . S
C514 C512 1.391 . S
C514 C515 1.400 . S
C515 C514 1.400 . S
C515 C516 1.398 . S
C515 C521 1.491 . S
C516 H507 0.950 . S
C516 C515 1.398 . S
C516 C517 1.391 . S
C517 H505 0.950 . S
C517 C513 1.393 . S
C517 C516 1.391 . S
C518 H508 0.950 . S
C518 C519 1.386 . S
C518 C520 1.391 . S
C519 C518 1.386 . S
C519 C523 1.393 . S
C520 H509 0.950 . S
C520 C518 1.391 . S
C520 C521 1.400 . S
C521 C515 1.491 . S
C521 C520 1.400 . S
C521 C522 1.398 . S
C522 H510 0.950 . S
C522 C521 1.398 . S
C522 C523 1.391 . S
C523 H511 0.950 . S
C523 C519 1.393 . S
C523 C522 1.391 . S
H524 C532 0.950 . S
H525 C537 0.950 . S
H526 C534 0.950 . S
H527 C536 0.950 . S
H528 C538 0.950 . S
H529 C540 0.950 . S
H530 C542 0.950 . S
H531 C543 0.950 . S
C532 H524 0.950 . S
C532 C533 1.386 . S
C532 C534 1.391 . S
C533 C532 1.386 . S
C533 C537 1.393 . S
C534 H526 0.950 . S
C534 C532 1.391 . S
C534 C535 1.400 . S
C535 C534 1.400 . S
C535 C536 1.398 . S
C535 C541 1.491 . S
C536 H527 0.950 . S
C536 C535 1.398 . S
C536 C537 1.391 . S
C537 H525 0.950 . S
C537 C533 1.393 . S
C537 C536 1.391 . S
C538 H528 0.950 . S
C538 C539 1.386 . S
C538 C540 1.391 . S
C539 C538 1.386 . S
C539 C543 1.393 . S
C540 H529 0.950 . S
C540 C538 1.391 . S
C540 C541 1.400 . S
C541 C535 1.491 . S
C541 C540 1.400 . S
C541 C542 1.398 . S
C542 H530 0.950 . S
C542 C541 1.398 . S
C542 C543 1.391 . S
C543 H531 0.950 . S
C543 C539 1.393 . S
C543 C542 1.391 . S
H544 C552 0.950 . S
H545 C557 0.950 . S
H546 C554 0.950 . S
H547 C556 0.950 . S
H548 C558 0.950 . S
H549 C560 0.950 . S
H550 C562 0.950 . S
H551 C563 0.950 . S
C552 H544 0.950 . S
C552 C553 1.386 . S
C552 C554 1.391 . S
C553 C552 1.386 . S
C553 C557 1.393 . S
C554 H546 0.950 . S
C554 C552 1.391 . S
C554 C555 1.400 . S
C555 C554 1.400 . S
C555 C556 1.398 . S
C555 C561 1.491 . S
C556 H547 0.950 . S
C556 C555 1.398 . S
C556 C557 1.391 . S
C557 H545 0.950 . S
C557 C553 1.393 . S
C557 C556 1.391 . S
C558 H548 0.950 . S
C558 C559 1.386 . S
C558 C560 1.391 . S
C559 C558 1.386 . S
C559 C563 1.393 . S
C560 H549 0.950 . S
C560 C558 1.391 . S
C560 C561 1.400 . S
C561 C555 1.491 . S
C561 C560 1.400 . S
C561 C562 1.398 . S
C562 H550 0.950 . S
C562 C561 1.398 . S
C562 C563 1.391 . S
C563 H551 0.950 . S
C563 C559 1.393 . S
C563 C562 1.391 . S
H564 C572 0.950 . S
H565 C577 0.950 . S
H566 C574 0.950 . S
H567 C576 0.950 . S
H568 C578 0.950 . S
H569 C580 0.950 . S
H570 C582 0.950 . S
H571 C583 0.950 . S
C572 H564 0.950 . S
C572 C573 1.386 . S
C572 C574 1.391 . S
C573 C572 1.386 . S
C573 C577 1.393 . S
C574 H566 0.950 . S
C574 C572 1.391 . S
C574 C575 1.400 . S
C575 C574 1.400 . S
C575 C576 1.398 . S
C575 C581 1.491 . S
C576 H567 0.950 . S
C576 C575 1.398 . S
C576 C577 1.391 . S
C577 H565 0.950 . S
C577 C573 1.393 . S
C577 C576 1.391 . S
C578 H568 0.950 . S
C578 C579 1.386 . S
C578 C580 1.391 . S
C579 C578 1.386 . S
C579 C583 1.393 . S
C580 H569 0.950 . S
C580 C578 1.391 . S
C580 C581 1.400 . S
C581 C575 1.491 . S
C581 C580 1.400 . S
C581 C582 1.398 . S
C582 H570 0.950 . S
C582 C581 1.398 . S
C582 C583 1.391 . S
C583 H571 0.950 . S
C583 C579 1.393 . S
C583 C582 1.391 . S
H584 C592 0.950 . S
H585 C597 0.950 . S
H586 C594 0.950 . S
H587 C596 0.950 . S
H588 C598 0.950 . S
H589 C600 0.950 . S
H590 C602 0.950 . S
H591 C603 0.950 . S
C592 H584 0.950 . S
C592 C593 1.386 . S
C592 C594 1.391 . S
C593 C592 1.386 . S
C593 C597 1.393 . S
C594 H586 0.950 . S
C594 C592 1.391 . S
C594 C595 1.400 . S
C595 C594 1.400 . S
C595 C596 1.398 . S
C595 C601 1.491 . S
C596 H587 0.950 . S
C596 C595 1.398 . S
C596 C597 1.391 . S
C597 H585 0.950 . S
C597 C593 1.393 . S
C597 C596 1.391 . S
C598 H588 0.950 . S
C598 C599 1.386 . S
C598 C600 1.391 . S
C599 C598 1.386 . S
C599 C603 1.393 . S
C600 H589 0.950 . S
C600 C598 1.391 . S
C600 C601 1.400 . S
C601 C595 1.491 . S
C601 C600 1.400 . S
C601 C602 1.398 . S
C602 H590 0.950 . S
C602 C601 1.398 . S
C602 C603 1.391 . S
C603 H591 0.950 . S
C603 C599 1.393 . S
C603 C602 1.391 . S
H604 C612 0.950 . S
H605 C617 0.950 . S
H606 C614 0.950 . S
H607 C616 0.950 . S
H608 C618 0.950 . S
H609 C620 0.950 . S
H610 C622 0.950 . S
H611 C623 0.950 . S
C612 H604 0.950 . S
C612 C613 1.386 . S
C612 C614 1.391 . S
C613 C612 1.386 . S
C613 C617 1.393 . S
C614 H606 0.950 . S
C614 C612 1.391 . S
C614 C615 1.400 . S
C615 C614 1.400 . S
C615 C616 1.398 . S
C615 C621 1.491 . S
C616 H607 0.950 . S
C616 C615 1.398 . S
C616 C617 1.391 . S
C617 H605 0.950 . S
C617 C613 1.393 . S
C617 C616 1.391 . S
C618 H608 0.950 . S
C618 C619 1.386 . S
C618 C620 1.391 . S
C619 C618 1.386 . S
C619 C623 1.393 . S
C620 H609 0.950 . S
C620 C618 1.391 . S
C620 C621 1.400 . S
C621 C615 1.491 . S
C621 C620 1.400 . S
C621 C622 1.398 . S
C622 H610 0.950 . S
C622 C621 1.398 . S
C622 C623 1.391 . S
C623 H611 0.950 . S
C623 C619 1.393 . S
C623 C622 1.391 . S
H624 C632 0.950 . S
H625 C637 0.950 . S
H626 C634 0.950 . S
H627 C636 0.950 . S
H628 C638 0.950 . S
H629 C640 0.950 . S
H630 C642 0.950 . S
H631 C643 0.950 . S
C632 H624 0.950 . S
C632 C633 1.386 . S
C632 C634 1.391 . S
C633 C632 1.386 . S
C633 C637 1.393 1_554 S
C634 H626 0.950 . S
C634 C632 1.391 . S
C634 C635 1.400 . S
C635 C634 1.400 . S
C635 C636 1.398 1_554 S
C635 C641 1.491 . S
C636 H627 0.950 . S
C636 C635 1.398 1_556 S
C636 C637 1.391 . S
C637 H625 0.950 . S
C637 C633 1.393 1_556 S
C637 C636 1.391 . S
C638 H628 0.950 . S
C638 C639 1.386 1_556 S
C638 C640 1.391 . S
C639 C638 1.386 1_554 S
C639 C643 1.393 . S
C640 H629 0.950 . S
C640 C638 1.391 . S
C640 C641 1.400 1_556 S
C641 C635 1.491 . S
C641 C640 1.400 1_554 S
C641 C642 1.398 . S
C642 H630 0.950 . S
C642 C641 1.398 . S
C642 C643 1.391 . S
C643 H631 0.950 . S
C643 C639 1.393 . S
C643 C642 1.391 . S
H644 C652 0.950 . S
H645 C657 0.950 . S
H646 C654 0.950 . S
H647 C656 0.950 . S
H648 C658 0.950 . S
H649 C660 0.950 . S
H650 C662 0.950 . S
H651 C663 0.950 . S
C652 H644 0.950 . S
C652 C653 1.386 . S
C652 C654 1.391 . S
C653 C652 1.386 . S
C653 C657 1.393 . S
C654 H646 0.950 . S
C654 C652 1.391 . S
C654 C655 1.400 . S
C655 C654 1.400 . S
C655 C656 1.398 . S
C655 C661 1.491 1_455 S
C656 H647 0.950 . S
C656 C655 1.398 . S
C656 C657 1.391 . S
C657 H645 0.950 . S
C657 C653 1.393 . S
C657 C656 1.391 . S
C658 H648 0.950 . S
C658 C659 1.386 . S
C658 C660 1.391 . S
C659 C658 1.386 . S
C659 C663 1.393 . S
C660 H649 0.950 . S
C660 C658 1.391 . S
C660 C661 1.400 . S
C661 C655 1.491 1_655 S
C661 C660 1.400 . S
C661 C662 1.398 . S
C662 H650 0.950 . S
C662 C661 1.398 . S
C662 C663 1.391 . S
C663 H651 0.950 . S
C663 C659 1.393 . S
C663 C662 1.391 . S
H664 C672 0.950 . S
H665 C677 0.950 . S
H666 C674 0.950 . S
H667 C676 0.964 . S
H668 C678 0.950 . S
H669 C680 0.950 . S
H670 C682 0.964 . S
H671 C683 0.950 . S
C672 H664 0.950 . S
C672 C673 1.386 . S
C672 C674 1.391 . S
C673 C672 1.386 . S
C673 C677 1.393 . S
C674 H666 0.950 . S
C674 C672 1.391 . S
C674 C675 1.400 . S
C675 C674 1.400 . S
C675 C676 1.398 . S
C675 C681 1.491 1_545 S
C676 H667 0.964 . S
C676 C675 1.398 . S
C676 C677 1.391 . S
C677 H665 0.950 . S
C677 C673 1.393 . S
C677 C676 1.391 . S
C678 H668 0.950 . S
C678 C679 1.386 . S
C678 C680 1.391 . S
C679 C678 1.386 . S
C679 C683 1.393 . S
C680 H669 0.950 . S
C680 C678 1.391 . S
C680 C681 1.400 . S
C681 C675 1.491 1_565 S
C681 C680 1.400 . S
C681 C682 1.398 . S
C682 H670 0.964 . S
C682 C681 1.398 . S
C682 C683 1.391 . S
C683 H671 0.950 . S
C683 C679 1.393 . S
C683 C682 1.391 . S
H684 C692 0.950 . S
H685 C697 0.950 . S
H686 C694 0.950 . S
H687 C696 0.950 . S
H688 C698 0.950 . S
H689 C700 0.950 . S
H690 C702 0.950 . S
H691 C703 0.950 . S
C692 H684 0.950 . S
C692 C693 1.386 . S
C692 C694 1.391 . S
C693 C692 1.386 . S
C693 C697 1.393 . S
C694 H686 0.950 . S
C694 C692 1.391 . S
C694 C695 1.400 . S
C695 C694 1.400 . S
C695 C696 1.398 . S
C695 C701 1.491 . S
C696 H687 0.950 . S
C696 C695 1.398 . S
C696 C697 1.391 . S
C697 H685 0.950 . S
C697 C693 1.393 . S
C697 C696 1.391 . S
C698 H688 0.950 . S
C698 C699 1.386 . S
C698 C700 1.391 . S
C699 C698 1.386 . S
C699 C703 1.393 . S
C700 H689 0.950 . S
C700 C698 1.391 . S
C700 C701 1.400 . S
C701 C695 1.491 . S
C701 C700 1.400 . S
C701 C702 1.398 . S
C702 H690 0.950 . S
C702 C701 1.398 . S
C702 C703 1.391 . S
C703 H691 0.950 . S
C703 C699 1.393 . S
C703 C702 1.391 . S
H704 C712 0.950 . S
H705 C717 0.950 . S
H706 C714 0.950 . S
H707 C716 0.950 1_655 S
H708 C718 0.950 . S
H709 C720 0.950 . S
H710 C722 0.950 1_455 S
H711 C723 0.950 . S
C712 H704 0.950 . S
C712 C713 1.386 1_556 S
C712 C714 1.391 . S
C713 C712 1.386 1_554 S
C713 C717 1.393 . S
C714 H706 0.950 . S
C714 C712 1.391 . S
C714 C715 1.400 1_556 S
C715 C714 1.400 1_554 S
C715 C716 1.398 . S
C715 C721 1.491 1_455 S
C716 H707 0.950 1_455 S
C716 C715 1.398 . S
C716 C717 1.391 . S
C717 H705 0.950 . S
C717 C713 1.393 . S
C717 C716 1.391 . S
C718 H708 0.950 . S
C718 C719 1.386 . S
C718 C720 1.391 . S
C719 C718 1.386 . S
C719 C723 1.393 1_554 S
C720 H709 0.950 . S
C720 C718 1.391 . S
C720 C721 1.400 . S
C721 C715 1.491 1_655 S
C721 C720 1.400 . S
C721 C722 1.398 1_554 S
C722 H710 0.950 1_655 S
C722 C721 1.398 1_556 S
C722 C723 1.391 . S
C723 H711 0.950 . S
C723 C719 1.393 1_556 S
C723 C722 1.391 . S
H724 C732 0.950 . S
H725 C737 0.950 . S
H726 C734 0.950 . S
H727 C736 0.966 . S
H728 C738 0.950 . S
H729 C740 0.950 . S
H730 C742 0.966 . S
H731 C743 0.950 . S
C732 H724 0.950 . S
C732 C733 1.386 . S
C732 C734 1.391 . S
C733 C732 1.386 . S
C733 C737 1.393 . S
C734 H726 0.950 . S
C734 C732 1.391 . S
C734 C735 1.400 . S
C735 C734 1.400 . S
C735 C736 1.384 1_565 S
C735 C741 1.491 1_565 S
C736 H727 0.966 . S
C736 C735 1.384 1_545 S
C736 C737 1.389 1_545 S
C737 H725 0.950 . S
C737 C733 1.393 . S
C737 C736 1.389 1_565 S
C738 H728 0.950 . S
C738 C739 1.386 . S
C738 C740 1.391 . S
C739 C738 1.386 . S
C739 C743 1.393 . S
C740 H729 0.950 . S
C740 C738 1.391 . S
C740 C741 1.400 . S
C741 C735 1.491 1_545 S
C741 C740 1.400 . S
C741 C742 1.384 1_545 S
C742 H730 0.966 . S
C742 C741 1.384 1_565 S
C742 C743 1.389 1_565 S
C743 H731 0.950 . S
C743 C739 1.393 . S
C743 C742 1.389 1_545 S
H744 C752 0.950 . S
H745 C757 0.950 . S
H746 C754 0.950 . S
H747 C756 0.950 . S
H748 C758 0.950 . S
H749 C760 0.950 . S
H750 C762 0.950 . S
H751 C763 0.950 . S
C752 H744 0.950 . S
C752 C753 1.386 . S
C752 C754 1.391 . S
C753 C752 1.386 . S
C753 C757 1.393 . S
C754 H746 0.950 . S
C754 C752 1.391 . S
C754 C755 1.400 . S
C755 C754 1.400 . S
C755 C756 1.398 . S
C755 C761 1.491 . S
C756 H747 0.950 . S
C756 C755 1.398 . S
C756 C757 1.391 . S
C757 H745 0.950 . S
C757 C753 1.393 . S
C757 C756 1.391 . S
C758 H748 0.950 . S
C758 C759 1.386 . S
C758 C760 1.391 . S
C759 C758 1.386 . S
C759 C763 1.393 . S
C760 H749 0.950 . S
C760 C758 1.391 . S
C760 C761 1.400 . S
C761 C755 1.491 . S
C761 C760 1.400 . S
C761 C762 1.398 . S
C762 H750 0.950 . S
C762 C761 1.398 . S
C762 C763 1.391 . S
C763 H751 0.950 . S
C763 C759 1.393 . S
C763 C762 1.391 . S
H764 C772 0.950 . S
H765 C777 0.950 . S
H766 C774 0.950 1_655 S
H767 C776 0.950 . S
H768 C778 0.950 . S
H769 C780 0.950 . S
H770 C782 0.950 . S
H771 C783 0.950 . S
C772 H764 0.950 . S
C772 C773 1.385 . S
C772 C774 1.391 1_655 S
C773 C772 1.385 . S
C773 C777 1.394 1_655 S
C774 H766 0.950 1_455 S
C774 C772 1.391 1_455 S
C774 C775 1.400 . S
C775 C774 1.400 . S
C775 C776 1.398 . S
C775 C781 1.491 . S
C776 H767 0.950 . S
C776 C775 1.398 . S
C776 C777 1.391 . S
C777 H765 0.950 . S
C777 C773 1.394 1_455 S
C777 C776 1.391 . S
C778 H768 0.950 . S
C778 C779 1.386 . S
C778 C780 1.391 . S
C779 C778 1.386 . S
C779 C783 1.393 . S
C780 H769 0.950 . S
C780 C778 1.391 . S
C780 C781 1.400 . S
C781 C775 1.491 . S
C781 C780 1.400 . S
C781 C782 1.398 . S
C782 H770 0.950 . S
C782 C781 1.398 . S
C782 C783 1.391 . S
C783 H771 0.950 . S
C783 C779 1.393 . S
C783 C782 1.391 . S
H784 C792 0.950 1_565 S
H785 C797 0.950 . S
H786 C794 0.950 . S
H787 C796 0.950 . S
H788 C798 0.950 . S
H789 C800 0.950 . S
H790 C802 0.950 . S
H791 C803 0.950 . S
C792 H784 0.950 1_545 S
C792 C793 1.395 . S
C792 C794 1.391 . S
C793 C792 1.395 . S
C793 C797 1.392 . S
C794 H786 0.950 . S
C794 C792 1.391 . S
C794 C795 1.400 . S
C795 C794 1.400 . S
C795 C796 1.398 . S
C795 C801 1.491 . S
C796 H787 0.950 . S
C796 C795 1.398 . S
C796 C797 1.391 . S
C797 H785 0.950 . S
C797 C793 1.392 . S
C797 C796 1.391 . S
C798 H788 0.950 . S
C798 C799 1.386 . S
C798 C800 1.391 . S
C799 C798 1.386 . S
C799 C803 1.393 . S
C800 H789 0.950 . S
C800 C798 1.391 . S
C800 C801 1.400 . S
C801 C795 1.491 . S
C801 C800 1.400 . S
C801 C802 1.398 . S
C802 H790 0.950 . S
C802 C801 1.398 . S
C802 C803 1.391 . S
C803 H791 0.950 . S
C803 C799 1.393 . S
C803 C802 1.391 . S
H804 C812 0.950 . S
H805 C817 0.950 . S
H806 C814 0.950 . S
H807 C816 0.950 . S
H808 C818 0.950 . S
H809 C820 0.950 . S
H810 C822 0.950 . S
H811 C823 0.950 . S
C812 H804 0.950 . S
C812 C813 1.386 . S
C812 C814 1.391 . S
C813 C812 1.386 . S
C813 C817 1.393 . S
C814 H806 0.950 . S
C814 C812 1.391 . S
C814 C815 1.400 . S
C815 C814 1.400 . S
C815 C816 1.398 . S
C815 C821 1.491 . S
C816 H807 0.950 . S
C816 C815 1.398 . S
C816 C817 1.391 . S
C817 H805 0.950 . S
C817 C813 1.393 . S
C817 C816 1.391 . S
C818 H808 0.950 . S
C818 C819 1.386 . S
C818 C820 1.391 . S
C819 C818 1.386 . S
C819 C823 1.393 . S
C820 H809 0.950 . S
C820 C818 1.391 . S
C820 C821 1.400 . S
C821 C815 1.491 . S
C821 C820 1.400 . S
C821 C822 1.398 . S
C822 H810 0.950 . S
C822 C821 1.398 . S
C822 C823 1.391 . S
C823 H811 0.950 . S
C823 C819 1.393 . S
C823 C822 1.391 . S
H824 C832 0.950 . S
H825 C837 0.950 . S
H826 C834 0.950 . S
H827 C836 0.950 . S
H828 C838 0.950 . S
H829 C840 0.950 . S
H830 C842 0.950 . S
H831 C843 0.950 . S
C832 H824 0.950 . S
C832 C833 1.386 1_655 S
C832 C834 1.391 . S
C833 C832 1.386 1_455 S
C833 C837 1.393 . S
C834 H826 0.950 . S
C834 C832 1.391 . S
C834 C835 1.400 . S
C835 C834 1.400 . S
C835 C836 1.398 . S
C835 C841 1.491 . S
C836 H827 0.950 . S
C836 C835 1.398 . S
C836 C837 1.391 1_655 S
C837 H825 0.950 . S
C837 C833 1.393 . S
C837 C836 1.391 1_455 S
C838 H828 0.950 . S
C838 C839 1.386 . S
C838 C840 1.391 . S
C839 C838 1.386 . S
C839 C843 1.393 . S
C840 H829 0.950 . S
C840 C838 1.391 . S
C840 C841 1.400 . S
C841 C835 1.491 . S
C841 C840 1.400 . S
C841 C842 1.398 . S
C842 H830 0.950 . S
C842 C841 1.398 . S
C842 C843 1.391 . S
C843 H831 0.950 . S
C843 C839 1.393 . S
C843 C842 1.391 . S
H844 C852 0.950 . S
H845 C857 0.950 . S
H846 C854 0.950 . S
H847 C856 0.950 . S
H848 C858 0.950 . S
H849 C860 0.950 . S
H850 C862 0.950 . S
H851 C863 0.950 . S
C852 H844 0.950 . S
C852 C853 1.386 1_565 S
C852 C854 1.391 . S
C853 C852 1.386 1_545 S
C853 C857 1.393 . S
C854 H846 0.950 . S
C854 C852 1.391 . S
C854 C855 1.400 . S
C855 C854 1.400 . S
C855 C856 1.398 . S
C855 C861 1.491 . S
C856 H847 0.950 . S
C856 C855 1.398 . S
C856 C857 1.391 1_565 S
C857 H845 0.950 . S
C857 C853 1.393 . S
C857 C856 1.391 1_545 S
C858 H848 0.950 . S
C858 C859 1.386 . S
C858 C860 1.391 . S
C859 C858 1.386 . S
C859 C863 1.393 . S
C860 H849 0.950 . S
C860 C858 1.391 . S
C860 C861 1.400 . S
C861 C855 1.491 . S
C861 C860 1.400 . S
C861 C862 1.398 . S
C862 H850 0.950 . S
C862 C861 1.398 . S
C862 C863 1.391 . S
C863 H851 0.950 . S
C863 C859 1.393 . S
C863 C862 1.391 . S
C513 C403 1.145 . S
C519 C58 1.048 . S
C533 C487 1.140 . S
C539 C142 0.983 . S
C553 C67 1.158 . S
C559 C226 1.049 . S
C573 C151 1.145 . S
C579 C310 0.986 . S
C593 C235 1.166 . S
C599 C394 1.027 . S
C613 C319 1.125 . S
C619 C478 1.019 . S
C633 C74 1.802 . S
C639 C326 1.812 . S
C653 C410 1.793 . S
C659 C158 1.796 . S
C673 C494 1.808 . S
C679 C242 1.809 . S
C693 C231 1.799 . S
C699 C483 1.787 . S
C713 C63 1.802 . S
C719 C315 1.810 . S
C733 C399 1.798 . S
C739 C147 1.810 . S
C753 C476 1.222 . S
C759 C70 1.212 . S
C773 C154 1.231 . S
C779 C56 1.241 . S
C793 C238 1.210 1_545 S
C799 C140 1.235 . S
C813 C224 1.210 . S
C819 C322 1.199 . S
C833 C406 1.191 . S
C839 C308 1.203 . S
C853 C490 1.193 . S
C859 C392 1.204 . S
