# Generated by pormake.
# Topology sod, (4)-cn, num edge types: 1
# Building blocks:
#     Node 0, Type 0, BuildingBlock: KUFVIS_clean_sbu_0, # of connection points: 4
#     Node 1, Type 0, BuildingBlock: KUFVIS_clean_sbu_0, # of connection points: 4
#     Node 2, Type 0, BuildingBlock: KUFVIS_clean_sbu_0, # of connection points: 4
#     Node 3, Type 0, BuildingBlock: KUFVIS_clean_sbu_0, # of connection points: 4
#     Node 4, Type 0, BuildingBlock: KUFVIS_clean_sbu_0, # of connection points: 4
#     Node 5, Type 0, BuildingBlock: KUFVIS_clean_sbu_0, # of connection points: 4
#     Node 6, Type 0, BuildingBlock: KUFVIS_clean_sbu_0, # of connection points: 4
#     Node 7, Type 0, BuildingBlock: KUFVIS_clean_sbu_0, # of connection points: 4
#     Node 8, Type 0, BuildingBlock: KUFVIS_clean_sbu_0, # of connection points: 4
#     Node 9, Type 0, BuildingBlock: KUFVIS_clean_sbu_0, # of connection points: 4
#     Node 10, Type 0, BuildingBlock: KUFVIS_clean_sbu_0, # of connection points: 4
#     Node 11, Type 0, BuildingBlock: KUFVIS_clean_sbu_0, # of connection points: 4
#     Edge 12, Type (0, 0), BuildingBlock: MIFKUJ_clean_linker_0, # of connection points: 2
#     Edge 13, Type (0, 0), BuildingBlock: MIFKUJ_clean_linker_0, # of connection points: 2
#     Edge 14, Type (0, 0), BuildingBlock: MIFKUJ_clean_linker_0, # of connection points: 2
#     Edge 15, Type (0, 0), BuildingBlock: MIFKUJ_clean_linker_0, # of connection points: 2
#     Edge 16, Type (0, 0), BuildingBlock: MIFKUJ_clean_linker_0, # of connection points: 2
#     Edge 17, Type (0, 0), BuildingBlock: MIFKUJ_clean_linker_0, # of connection points: 2
#     Edge 18, Type (0, 0), BuildingBlock: MIFKUJ_clean_linker_0, # of connection points: 2
#     Edge 19, Type (0, 0), BuildingBlock: MIFKUJ_clean_linker_0, # of connection points: 2
#     Edge 20, Type (0, 0), BuildingBlock: MIFKUJ_clean_linker_0, # of connection points: 2
#     Edge 21, Type (0, 0), BuildingBlock: MIFKUJ_clean_linker_0, # of connection points: 2
#     Edge 22, Type (0, 0), BuildingBlock: MIFKUJ_clean_linker_0, # of connection points: 2
#     Edge 23, Type (0, 0), BuildingBlock: MIFKUJ_clean_linker_0, # of connection points: 2
#     Edge 24, Type (0, 0), BuildingBlock: MIFKUJ_clean_linker_0, # of connection points: 2
#     Edge 25, Type (0, 0), BuildingBlock: MIFKUJ_clean_linker_0, # of connection points: 2
#     Edge 26, Type (0, 0), BuildingBlock: MIFKUJ_clean_linker_0, # of connection points: 2
#     Edge 27, Type (0, 0), BuildingBlock: MIFKUJ_clean_linker_0, # of connection points: 2
#     Edge 28, Type (0, 0), BuildingBlock: MIFKUJ_clean_linker_0, # of connection points: 2
#     Edge 29, Type (0, 0), BuildingBlock: MIFKUJ_clean_linker_0, # of connection points: 2
#     Edge 30, Type (0, 0), BuildingBlock: MIFKUJ_clean_linker_0, # of connection points: 2
#     Edge 31, Type (0, 0), BuildingBlock: MIFKUJ_clean_linker_0, # of connection points: 2
#     Edge 32, Type (0, 0), BuildingBlock: MIFKUJ_clean_linker_0, # of connection points: 2
#     Edge 33, Type (0, 0), BuildingBlock: MIFKUJ_clean_linker_0, # of connection points: 2
#     Edge 34, Type (0, 0), BuildingBlock: MIFKUJ_clean_linker_0, # of connection points: 2
#     Edge 35, Type (0, 0), BuildingBlock: MIFKUJ_clean_linker_0, # of connection points: 2
# Relax obj value: 0.117
# Max RMSD: 0.165
# Mean RMSD: 0.150
data_MOF--net-sod--node1-KUFVIS_clean_sbu_0--edge1-MIFKUJ_clean_linker_0
_symmetry_space_group_name_H-M    P1
_symmetry_Int_Tables_number       1
_symmetry_cell_setting            triclinic
loop_
_symmetry_equiv_pos_as_xyz
'x, y, z'
_cell_length_a     54.383331
_cell_length_b     54.410639
_cell_length_c     54.897365
_cell_angle_alpha  91.128002
_cell_angle_beta   90.145819
_cell_angle_gamma 92.605276
loop_
_atom_site_label
_atom_site_type_symbol
_atom_site_fract_x
_atom_site_fract_y
_atom_site_fract_z
_atom_type_partial_charge
Mn0 Mn 0.02093 0.26395 0.50669 0.0
Mn1 Mn 0.96833 0.29189 0.49396 0.0
C2 C 0.98265 0.24484 0.51502 0.0
C3 C 0.05363 0.23868 0.49862 0.0
C4 C 1.00174 0.30749 0.536 0.0
O5 O 0.03231 0.28945 0.48161 0.0
O6 O 0.99555 0.30565 0.47374 0.0
C7 C 0.95992 0.27532 0.44281 0.0
N8 N 0.95202 0.27691 0.46627 0.0
C9 C 0.91148 0.2613 0.45495 0.0
C10 C 0.91912 0.25952 0.43062 0.0
C11 C 0.94354 0.26631 0.42458 0.0
C12 C 0.92878 0.26978 0.47238 0.0
H13 H 0.97847 0.2811 0.43805 0.0
C14 C 0.01872 0.30412 0.47032 0.0
O15 O 0.05527 0.25646 0.51461 0.0
O16 O 0.03311 0.23588 0.48643 0.0
N17 N 0.9406 0.2799 0.51219 0.0
C18 C 0.93663 0.28143 0.53665 0.0
C19 C 0.9135 0.274 0.54595 0.0
C20 C 0.89457 0.26569 0.52993 0.0
C21 C 0.89914 0.2644 0.50482 0.0
C22 C 0.92275 0.27131 0.49672 0.0
H23 H 0.95097 0.28837 0.54894 0.0
O24 O 1.0021 0.23942 0.52726 0.0
O25 O 0.98605 0.26169 0.49884 0.0
O26 O 0.01725 0.29113 0.5322 0.0
O27 O 0.98263 0.30939 0.52288 0.0
C28 C 0.88108 0.25705 0.48745 0.0
C29 C 0.88724 0.25551 0.46252 0.0
H30 H 0.9064 0.25296 0.41647 0.0
H31 H 0.94961 0.265 0.40585 0.0
H32 H 0.91013 0.27506 0.56535 0.0
H33 H 0.8766 0.26039 0.5371 0.0
H34 H 0.86234 0.25295 0.49311 0.0
H35 H 0.8732 0.25021 0.44922 0.0
Mn36 Mn 0.78064 0.00744 0.51057 0.0
Mn37 Mn 0.76399 0.06554 0.52295 0.0
C38 C 0.80772 0.04068 0.50364 0.0
C39 C 0.79923 0.97065 0.51904 0.0
C40 C 0.74554 0.03608 0.47888 0.0
O41 O 0.75151 1.00177 0.53395 0.0
O42 O 0.7424 0.04151 0.54044 0.0
C43 C 0.77793 0.06801 0.57513 0.0
N44 N 0.77978 0.07729 0.55233 0.0
C45 C 0.80685 0.11081 0.5665 0.0
C46 C 0.80516 0.10166 0.59018 0.0
C47 C 0.7907 0.08013 0.59449 0.0
C48 C 0.79378 0.09789 0.54795 0.0
H49 H 0.76681 0.05149 0.5785 0.0
C50 C 0.73848 0.0184 0.54363 0.0
O51 O 0.78248 0.97188 0.50232 0.0
O52 O 0.80379 0.9904 0.53231 0.0
N53 N 0.7833 0.09081 0.50722 0.0
C54 C 0.78375 0.09661 0.48319 0.0
C55 C 0.79726 0.11776 0.47578 0.0
C56 C 0.81 0.13278 0.49315 0.0
C57 C 0.80945 0.12631 0.51774 0.0
C58 C 0.7954 0.10522 0.52409 0.0
H59 H 0.77373 0.08529 0.46981 0.0
O60 O 0.80973 0.02016 0.49154 0.0
O61 O 0.78962 0.04141 0.51899 0.0
O62 O 0.75713 0.01692 0.48356 0.0
O63 O 0.7469 0.05553 0.49226 0.0
C64 C 0.8224 0.13987 0.53619 0.0
C65 C 0.82123 0.13204 0.56053 0.0
H66 H 0.815 0.11094 0.60515 0.0
H67 H 0.78938 0.07292 0.61269 0.0
H68 H 0.79769 0.12258 0.45675 0.0
H69 H 0.82011 0.14925 0.4874 0.0
H70 H 0.83357 0.15616 0.53181 0.0
H71 H 0.83155 0.14241 0.57449 0.0
Mn72 Mn 0.02308 0.77486 0.52182 0.0
Mn73 Mn 0.0803 0.7544 0.51507 0.0
C74 C 0.05776 0.80101 0.52861 0.0
C75 C 0.98719 0.79353 0.50976 0.0
C76 C 0.04657 0.73918 0.55637 0.0
O77 O 0.01746 0.74429 0.49944 0.0
O78 O 0.05712 0.73411 0.4944 0.0
C79 C 0.09103 0.76524 0.46351 0.0
N80 N 0.09646 0.76868 0.48759 0.0
C81 C 0.13436 0.79102 0.47838 0.0
C82 C 0.1293 0.78752 0.45346 0.0
C83 C 0.10738 0.77487 0.446 0.0
C84 C 0.11715 0.78144 0.49497 0.0
H85 H 0.07457 0.75486 0.45773 0.0
C86 C 0.03399 0.73092 0.48999 0.0
O87 O 0.98749 0.77826 0.5275 0.0
O88 O 0.00763 0.79699 0.49775 0.0
N89 N 0.10398 0.77319 0.53434 0.0
C90 C 0.1061 0.77486 0.55906 0.0
C91 C 0.12635 0.78811 0.56954 0.0
C92 C 0.14442 0.79907 0.55451 0.0
C93 C 0.14193 0.79687 0.52912 0.0
C94 C 0.12106 0.78396 0.51972 0.0
H95 H 0.09246 0.76613 0.57068 0.0
O96 O 0.03713 0.80524 0.53948 0.0
O97 O 0.05755 0.78122 0.51519 0.0
O98 O 0.02946 0.75313 0.55077 0.0
O99 O 0.06631 0.73806 0.54407 0.0
C100 C 0.15962 0.80647 0.51278 0.0
C101 C 0.15608 0.80305 0.48747 0.0
H102 H 0.14217 0.79428 0.43988 0.0
H103 H 0.10336 0.77211 0.42679 0.0
H104 H 0.12816 0.78964 0.58916 0.0
H105 H 0.1602 0.80899 0.56265 0.0
H106 H 0.17624 0.81609 0.51947 0.0
H107 H 0.17036 0.80949 0.47521 0.0
Mn108 Mn 0.26178 0.03173 0.51262 0.0
Mn109 Mn 0.27835 0.97273 0.51411 0.0
C110 C 0.23493 0.99992 0.49956 0.0
C111 C 0.24175 0.06596 0.52728 0.0
C112 C 0.29814 0.00877 0.47695 0.0
O113 O 0.28978 0.03362 0.5378 0.0
O114 O 0.29972 0.99361 0.5364 0.0
C115 C 0.26437 0.96142 0.56491 0.0
N116 N 0.26218 0.95642 0.54057 0.0
C117 C 0.23331 0.92246 0.54763 0.0
C118 C 0.23535 0.92718 0.57277 0.0
C119 C 0.25093 0.94676 0.58144 0.0
C120 C 0.24734 0.93754 0.53204 0.0
H121 H 0.27623 0.97651 0.57165 0.0
C122 C 0.30289 0.01587 0.5444 0.0
O123 O 0.25939 0.06807 0.51149 0.0
O124 O 0.23741 0.04433 0.53633 0.0
N125 N 0.25859 0.95094 0.49348 0.0
C126 C 0.25714 0.95016 0.4687 0.0
C127 C 0.24143 0.93234 0.45708 0.0
C128 C 0.22744 0.9155 0.47105 0.0
C129 C 0.22931 0.91661 0.49653 0.0
C130 C 0.24541 0.93466 0.50709 0.0
H131 H 0.26771 0.96319 0.45789 0.0
O132 O 0.23334 0.02171 0.49067 0.0
O133 O 0.25301 0.99718 0.51458 0.0
O134 O 0.2866 0.02703 0.48509 0.0
O135 O 0.29589 0.98739 0.48606 0.0
C136 C 0.21536 0.90093 0.51188 0.0
C137 C 0.21738 0.90384 0.53741 0.0
H138 H 0.22484 0.91608 0.58557 0.0
H139 H 0.2525 0.95059 0.60081 0.0
H140 H 0.24 0.93168 0.43742 0.0
H141 H 0.21514 0.90196 0.46204 0.0
H142 H 0.2027 0.88687 0.50424 0.0
H143 H 0.20624 0.89195 0.54901 0.0
Mn144 Mn 0.52306 0.01727 0.25816 0.0
Mn145 Mn 0.51419 0.96073 0.28191 0.0
C146 C 0.53513 0.98239 0.2367 0.0
C147 C 0.51222 0.05056 0.23464 0.0
C148 C 0.55437 0.99725 0.29927 0.0
O149 O 0.49675 0.02305 0.28431 0.0
O150 O 0.49216 0.98417 0.29761 0.0
C151 C 0.46331 0.94907 0.26452 0.0
N152 N 0.48734 0.94318 0.26594 0.0
C153 C 0.47894 0.90487 0.24419 0.0
C154 C 0.45408 0.91048 0.24256 0.0
C155 C 0.44626 0.93271 0.2527 0.0
C156 C 0.49507 0.92189 0.25617 0.0
H157 H 0.45723 0.96609 0.27238 0.0
C158 C 0.48661 0.0068 0.29811 0.0
O159 O 0.52809 0.05302 0.25225 0.0
O160 O 0.50145 0.0289 0.23148 0.0
N161 N 0.5343 0.93624 0.26814 0.0
C162 C 0.55914 0.93449 0.26987 0.0
C163 C 0.57005 0.9135 0.26039 0.0
C164 C 0.55527 0.89458 0.24939 0.0
C165 C 0.52979 0.89696 0.24745 0.0
C166 C 0.51994 0.91816 0.25747 0.0
H167 H 0.57052 0.94889 0.27859 0.0
O168 O 0.54557 0.00385 0.23265 0.0
O169 O 0.51831 0.98188 0.25347 0.0
O170 O 0.54923 0.01409 0.28459 0.0
O171 O 0.54243 0.97656 0.29977 0.0
C172 C 0.51381 0.87922 0.23591 0.0
C173 C 0.48842 0.88325 0.23413 0.0
H174 H 0.44087 0.89793 0.23342 0.0
H175 H 0.42712 0.9372 0.25144 0.0
H176 H 0.58975 0.91178 0.26179 0.0
H177 H 0.56368 0.87825 0.24272 0.0
H178 H 0.52086 0.86253 0.22813 0.0
H179 H 0.47638 0.86968 0.22485 0.0
Mn180 Mn 0.01039 0.51896 0.25416 0.0
Mn181 Mn 0.95263 0.5223 0.27604 0.0
C182 C 0.97672 0.50547 0.22992 0.0
C183 C 0.04536 0.53291 0.23299 0.0
C184 C 0.98884 0.48576 0.29369 0.0
O185 O 0.01465 0.54453 0.28211 0.0
O186 O 0.9747 0.54729 0.29262 0.0
C187 C 0.9402 0.57159 0.25933 0.0
N188 N 0.93535 0.54682 0.25948 0.0
C189 C 0.89795 0.55062 0.23666 0.0
C190 C 0.90231 0.57621 0.23667 0.0
C191 C 0.92359 0.58672 0.24798 0.0
C192 C 0.91508 0.53649 0.24844 0.0
H193 H 0.95652 0.57974 0.26799 0.0
C194 C 0.99749 0.5541 0.2946 0.0
O195 O 0.04636 0.51679 0.24995 0.0
O196 O 0.02415 0.54239 0.22935 0.0
N197 N 0.92921 0.49919 0.26141 0.0
C198 C 0.92684 0.4744 0.26452 0.0
C199 C 0.90632 0.46109 0.2546 0.0
C200 C 0.88831 0.47344 0.24187 0.0
C201 C 0.89086 0.49903 0.23937 0.0
C202 C 0.91168 0.51131 0.2497 0.0
H203 H 0.94045 0.46484 0.27455 0.0
O204 O 0.99833 0.49681 0.22657 0.0
O205 O 0.97535 0.52095 0.24814 0.0
O206 O 0.00558 0.49175 0.27862 0.0
O207 O 0.96828 0.49612 0.2946 0.0
C208 C 0.87356 0.51283 0.22708 0.0
C209 C 0.87712 0.53861 0.2257 0.0
H210 H 0.88953 0.58797 0.22792 0.0
H211 H 0.92714 0.60645 0.24798 0.0
H212 H 0.90437 0.44138 0.25681 0.0
H213 H 0.87254 0.46311 0.2342 0.0
H214 H 0.85739 0.50382 0.21873 0.0
H215 H 0.86363 0.54906 0.21632 0.0
Mn216 Mn 0.51964 0.01369 0.75435 0.0
Mn217 Mn 0.46787 0.02972 0.78351 0.0
C218 C 0.48117 0.00667 0.73596 0.0
C219 C 0.55344 0.01971 0.72844 0.0
C220 C 0.49652 0.98559 0.79712 0.0
O221 O 0.53292 0.03888 0.78011 0.0
O222 O 0.49672 0.04859 0.79729 0.0
C223 C 0.4658 0.0815 0.76831 0.0
N224 N 0.45516 0.05841 0.76952 0.0
C225 C 0.41775 0.07147 0.75137 0.0
C226 C 0.42829 0.0954 0.74991 0.0
C227 C 0.45245 0.10041 0.75836 0.0
C228 C 0.43196 0.05338 0.76142 0.0
H229 H 0.48428 0.08546 0.77495 0.0
C230 C 0.52015 0.05097 0.79539 0.0
O231 O 0.55315 0.00375 0.74562 0.0
O232 O 0.5344 0.03326 0.7269 0.0
N233 N 0.43856 0.0129 0.77165 0.0
C234 C 0.4317 0.98859 0.77313 0.0
C235 C 0.40818 0.98039 0.76511 0.0
C236 C 0.39197 0.99729 0.75587 0.0
C237 C 0.39953 0.02218 0.75427 0.0
C238 C 0.42314 0.02928 0.76263 0.0
H239 H 0.44404 0.97561 0.7805 0.0
O240 O 0.49956 0.99345 0.72988 0.0
O241 O 0.48566 0.02319 0.753 0.0
O242 O 0.5127 0.98838 0.78064 0.0
O243 O 0.4788 0.99995 0.7998 0.0
C244 C 0.38462 0.04021 0.74471 0.0
C245 C 0.39378 0.06479 0.74308 0.0
H246 H 0.41805 0.11003 0.74225 0.0
H247 H 0.46072 0.11883 0.7573 0.0
H248 H 0.40244 0.96114 0.76628 0.0
H249 H 0.37373 0.99097 0.75023 0.0
H250 H 0.36611 0.03538 0.73847 0.0
H251 H 0.38227 0.07841 0.73538 0.0
Mn252 Mn 0.0241 0.51619 0.75739 0.0
Mn253 Mn 0.00842 0.46114 0.78177 0.0
C254 C 0.03095 0.47994 0.73585 0.0
C255 C 0.01661 0.55091 0.73458 0.0
C256 C 0.05351 0.49194 0.79742 0.0
O257 O 0.99997 0.5255 0.78439 0.0
O258 O 0.99066 0.48746 0.79845 0.0
C259 C 0.9564 0.45725 0.76558 0.0
N260 N 0.97908 0.4477 0.76652 0.0
C261 C 0.96473 0.41113 0.74452 0.0
C262 C 0.94114 0.42047 0.74348 0.0
C263 C 0.937 0.44369 0.75394 0.0
C264 C 0.98333 0.42552 0.75629 0.0
H265 H 0.95315 0.47505 0.7737 0.0
C266 C 0.98857 0.51078 0.79883 0.0
O267 O 0.03343 0.55121 0.75136 0.0
O268 O 1.00323 0.53064 0.73169 0.0
N269 N 0.02423 0.43389 0.76736 0.0
C270 C 0.04838 0.42839 0.76855 0.0
C271 C 0.05577 0.40598 0.75862 0.0
C272 C 0.03823 0.38948 0.74777 0.0
C273 C 0.01354 0.39566 0.74646 0.0
C274 C 0.00722 0.41812 0.75692 0.0
H275 H 0.06185 0.44094 0.77716 0.0
O276 O 0.04367 0.50006 0.73122 0.0
O277 O 0.01467 0.48157 0.75306 0.0
O278 O 0.05043 0.5093 0.78269 0.0
O279 O 0.0389 0.47301 0.79875 0.0
C280 C 0.99499 0.3805 0.73514 0.0
C281 C 0.97062 0.38832 0.73401 0.0
H282 H 0.92613 0.41007 0.73452 0.0
H283 H 0.91888 0.45108 0.75312 0.0
H284 H 0.07488 0.40129 0.75955 0.0
H285 H 0.04389 0.37206 0.74071 0.0
H286 H 0.99928 0.36293 0.72702 0.0
H287 H 0.9566 0.37671 0.72488 0.0
Mn288 Mn 0.27403 0.51173 0.01904 0.0
Mn289 Mn 0.25483 0.57003 0.02167 0.0
C290 C 0.30059 0.54438 0.00842 0.0
C291 C 0.29362 0.47735 0.03306 0.0
C292 C 0.23883 0.53351 0.98215 0.0
O293 O 0.24498 0.5087 0.04271 0.0
O294 O 0.2334 0.54809 0.04178 0.0
C295 C 0.26471 0.58227 0.0737 0.0
N296 N 0.26795 0.58743 0.04971 0.0
C297 C 0.29136 0.62489 0.05972 0.0
C298 C 0.28828 0.61997 0.08454 0.0
C299 C 0.27493 0.59855 0.09155 0.0
C300 C 0.28059 0.60808 0.04277 0.0
H301 H 0.25436 0.56589 0.07916 0.0
C302 C 0.23076 0.52586 0.04898 0.0
O303 O 0.27685 0.47552 0.01625 0.0
O304 O 0.29774 0.49895 0.0432 0.0
N305 N 0.27411 0.59315 0.00316 0.0
C306 C 0.27693 0.59414 0.97855 0.0
C307 C 0.29027 0.61415 0.9685 0.0
C308 C 0.30053 0.6329 0.98385 0.0
C309 C 0.29768 0.63128 0.00915 0.0
C310 C 0.28387 0.6111 0.01809 0.0
H311 H 0.26891 0.57984 0.9667 0.0
O312 O 0.30296 0.52256 0.99894 0.0
O313 O 0.2818 0.54686 0.0228 0.0
O314 O 0.25049 0.51571 0.99038 0.0
O315 O 0.23975 0.55485 0.99207 0.0
C316 C 0.30823 0.64873 0.02586 0.0
C317 C 0.30512 0.6455 0.05113 0.0
H318 H 0.29626 0.6324 0.09837 0.0
H319 H 0.27251 0.59462 0.11066 0.0
H320 H 0.2925 0.61519 0.94896 0.0
H321 H 0.31065 0.64839 0.976 0.0
H322 H 0.31907 0.66451 0.01949 0.0
H323 H 0.31366 0.65882 0.06381 0.0
Mn324 Mn 0.5078 0.27199 0.01751 0.0
Mn325 Mn 0.56462 0.25139 0.00699 0.0
C326 C 0.54278 0.29601 0.02788 0.0
C327 C 0.47316 0.29405 0.00838 0.0
C328 C 0.53192 0.23242 0.04765 0.0
O329 O 0.50102 0.24515 0.99125 0.0
O330 O 0.53998 0.23282 0.98625 0.0
C331 C 0.57093 0.26741 0.95604 0.0
N332 N 0.57882 0.26789 0.97962 0.0
C333 C 0.61413 0.29407 0.96978 0.0
C334 C 0.60638 0.29383 0.94539 0.0
C335 C 0.58466 0.28049 0.93851 0.0
C336 C 0.59969 0.28069 0.98644 0.0
H337 H 0.55431 0.25712 0.95063 0.0
C338 C 0.51691 0.23151 0.98128 0.0
O339 O 0.47218 0.27617 0.02365 0.0
O340 O 0.49386 0.29805 0.99705 0.0
N341 N 0.59011 0.26825 0.02574 0.0
C342 C 0.59437 0.26758 0.05018 0.0
C343 C 0.61518 0.28036 0.06012 0.0
C344 C 0.63145 0.29356 0.04482 0.0
C345 C 0.62669 0.29398 0.01973 0.0
C346 C 0.60573 0.28078 0.01085 0.0
H347 H 0.58196 0.25738 0.06199 0.0
O348 O 0.52231 0.29891 0.03948 0.0
O349 O 0.5424 0.27852 0.01149 0.0
O350 O 0.514 0.24576 0.04274 0.0
O351 O 0.55206 0.23334 0.03573 0.0
C352 C 0.64176 0.30716 0.00321 0.0
C353 C 0.63543 0.30731 0.97827 0.0
H354 H 0.61689 0.30392 0.93182 0.0
H355 H 0.57854 0.28024 0.91973 0.0
H356 H 0.61869 0.28002 0.07952 0.0
H357 H 0.64749 0.30338 0.05257 0.0
H358 H 0.65812 0.31747 0.00952 0.0
H359 H 0.64697 0.31781 0.96582 0.0
Mn360 Mn 0.75971 0.51504 0.0067 0.0
Mn361 Mn 0.79052 0.46626 0.02549 0.0
C362 C 0.74153 0.47529 0.00378 0.0
C363 C 0.73393 0.5482 0.01121 0.0
C364 C 0.80282 0.49346 0.9792 0.0
O365 O 0.78641 0.53107 0.02925 0.0
O366 O 0.80365 0.49653 0.04216 0.0
C367 C 0.7761 0.46461 0.07741 0.0
N368 N 0.77747 0.45342 0.05509 0.0
C369 C 0.76549 0.41406 0.0715 0.0
C370 C 0.76394 0.42512 0.09471 0.0
C371 C 0.76902 0.45057 0.09763 0.0
C372 C 0.77198 0.42912 0.05197 0.0
H373 H 0.78073 0.484 0.0798 0.0
C374 C 0.80175 0.51986 0.0423 0.0
O375 O 0.75059 0.54735 0.9945 0.0
O376 O 0.7325 0.5299 0.02616 0.0
N377 N 0.77945 0.43564 0.01086 0.0
C378 C 0.78045 0.4282 0.98706 0.0
C379 C 0.7748 0.40343 0.9808 0.0
C380 C 0.76891 0.38652 0.99914 0.0
C381 C 0.7681 0.3947 0.0235 0.0
C382 C 0.77306 0.41969 0.02853 0.0
H383 H 0.78576 0.44102 0.97304 0.0
O384 O 0.73464 0.49255 0.98959 0.0
O385 O 0.75912 0.48165 0.019 0.0
O386 O 0.7854 0.50813 0.98084 0.0
O387 O 0.80647 0.47719 0.995 0.0
C388 C 0.76315 0.37895 0.04307 0.0
C389 C 0.76144 0.38863 0.06702 0.0
H390 H 0.75896 0.41424 0.11042 0.0
H391 H 0.76799 0.45923 0.11549 0.0
H392 H 0.77548 0.39729 0.96195 0.0
H393 H 0.76504 0.36733 0.99433 0.0
H394 H 0.76113 0.35933 0.03987 0.0
H395 H 0.75735 0.37634 0.0819 0.0
Mn396 Mn 0.52652 0.76054 0.01084 0.0
Mn397 Mn 0.46869 0.7809 0.01116 0.0
C398 C 0.49376 0.73539 0.02417 0.0
C399 C 0.55962 0.73872 0.99612 0.0
C400 C 0.50739 0.79859 0.04753 0.0
O401 O 0.52914 0.78807 0.98581 0.0
O402 O 0.49021 0.80075 0.98917 0.0
C403 C 0.4541 0.76858 0.96019 0.0
N404 N 0.44988 0.76675 0.98454 0.0
C405 C 0.41194 0.74314 0.97737 0.0
C406 C 0.41586 0.74483 0.95221 0.0
C407 C 0.43705 0.75756 0.9436 0.0
C408 C 0.42947 0.75466 0.99303 0.0
H409 H 0.47035 0.77838 0.9535 0.0
C410 C 0.51203 0.80249 0.98033 0.0
O411 O 0.56261 0.75663 0.0119 0.0
O412 O 0.53763 0.73491 0.98708 0.0
N413 N 0.44613 0.76295 0.03156 0.0
C414 C 0.44623 0.76127 0.05628 0.0
C415 C 0.42665 0.74856 0.06785 0.0
C416 C 0.4072 0.73775 0.0539 0.0
C417 C 0.4077 0.73939 0.02845 0.0
C418 C 0.42751 0.75262 0.01796 0.0
H419 H 0.4611 0.76968 0.06706 0.0
O420 O 0.51577 0.7331 0.03277 0.0
O421 O 0.49121 0.7535 0.00939 0.0
O422 O 0.52449 0.78625 0.03837 0.0
O423 O 0.4854 0.79708 0.03947 0.0
C424 C 0.38953 0.72815 0.01306 0.0
C425 C 0.39168 0.72997 0.98754 0.0
H426 H 0.40286 0.7362 0.93935 0.0
H427 H 0.44024 0.75886 0.9242 0.0
H428 H 0.42648 0.74719 0.08749 0.0
H429 H 0.39204 0.72811 0.06291 0.0
H430 H 0.37403 0.71772 0.02065 0.0
H431 H 0.37782 0.72087 0.97588 0.0
H432 H 0.04139 0.34936 0.47618 0.0
H433 H 0.04369 0.38097 0.44488 0.0
H434 H 0.01779 0.3269 0.39102 0.0
H435 H 0.01709 0.29526 0.4219 0.0
H436 H 0.04457 0.35933 0.3692 0.0
H437 H 0.97769 0.36245 0.42676 0.0
H438 H 0.96037 0.36539 0.46816 0.0
H439 H 0.99725 0.43624 0.47906 0.0
H440 H 0.01504 0.43357 0.4378 0.0
H441 H 0.95657 0.45914 0.32276 0.0
H442 H 0.96662 0.4277 0.35217 0.0
H443 H 0.04373 0.43886 0.33535 0.0
H444 H 0.03386 0.46941 0.30558 0.0
H445 H 0.99204 0.42818 0.39252 0.0
H446 H 0.07391 0.38695 0.34053 0.0
H447 H 0.08745 0.38014 0.29817 0.0
H448 H 0.01244 0.37969 0.27349 0.0
H449 H 0.99843 0.38617 0.31572 0.0
C450 C 0.03752 0.34409 0.45737 0.0
C451 C 0.02916 0.31998 0.45131 0.0
C452 C 0.03839 0.36219 0.43958 0.0
C453 C 0.03006 0.35653 0.41573 0.0
C454 C 0.0241 0.33186 0.40927 0.0
C455 C 0.02372 0.31374 0.42692 0.0
C456 C 0.02458 0.37627 0.39837 0.0
C457 C 0.03328 0.3745 0.37438 0.0
C458 C 0.00918 0.39571 0.40482 0.0
C459 C 0.99785 0.39772 0.4293 0.0
C460 C 0.98212 0.37864 0.43801 0.0
C461 C 0.97225 0.38025 0.46145 0.0
C462 C 0.97775 0.40097 0.47625 0.0
C463 C 0.99303 0.42019 0.46758 0.0
C464 C 1.003 0.41865 0.44417 0.0
C465 C 0.97564 0.45476 0.32525 0.0
C466 C 0.99434 0.4666 0.31156 0.0
C467 C 0.98138 0.43686 0.34213 0.0
C468 C 0.00593 0.43058 0.34575 0.0
C469 C 0.02461 0.44285 0.33251 0.0
C470 C 0.01889 0.46041 0.31547 0.0
C471 C 0.01214 0.4113 0.36336 0.0
C472 C 0.00354 0.41316 0.38738 0.0
C473 C 0.02695 0.39147 0.35672 0.0
C474 C 0.03517 0.38731 0.33127 0.0
C475 C 0.06031 0.38531 0.32607 0.0
C476 C 0.06806 0.38153 0.30208 0.0
C477 C 0.05083 0.37957 0.28314 0.0
C478 C 0.02578 0.38131 0.28816 0.0
C479 C 0.01793 0.38506 0.31212 0.0
H480 H 0.05687 0.37667 0.26458 0.0
H481 H 0.97015 0.40216 0.49442 0.0
H482 H 0.7067 0.06507 0.47041 0.0
H483 H 0.67606 0.06017 0.43773 0.0
H484 H 0.71536 1.00019 0.40656 0.0
H485 H 0.74596 0.0047 0.43932 0.0
H486 H 0.69595 0.03423 0.37136 0.0
H487 H 0.67129 0.98386 0.43948 0.0
H488 H 0.66418 0.97843 0.48345 0.0
H489 H 0.60862 0.032 0.48234 0.0
H490 H 0.61571 0.03805 0.4384 0.0
H491 H 0.57282 0.96549 0.33217 0.0
H492 H 0.60677 0.97337 0.36089 0.0
H493 H 0.61665 0.0475 0.33507 0.0
H494 H 0.58293 0.03975 0.30607 0.0
H495 H 0.61258 0.00567 0.39837 0.0
H496 H 0.67778 0.06498 0.33836 0.0
H497 H 0.68737 0.07064 0.29487 0.0
H498 H 0.66342 0.99571 0.27911 0.0
H499 H 0.65399 0.98952 0.32255 0.0
C500 C 0.70908 0.05109 0.4564 0.0
C501 C 0.72867 0.03513 0.4576 0.0
C502 C 0.69154 0.04832 0.43776 0.0
C503 C 0.69343 0.02976 0.41984 0.0
C504 C 0.71364 0.01466 0.42021 0.0
C505 C 0.731 0.01718 0.43903 0.0
C506 C 0.67321 0.02464 0.40205 0.0
C507 C 0.67769 0.02808 0.37719 0.0
C508 C 0.64955 0.01623 0.40972 0.0
C509 C 0.6442 0.01158 0.43574 0.0
C510 C 0.6576 0.99452 0.44864 0.0
C511 C 0.65359 0.99135 0.47354 0.0
C512 C 0.63606 0.00497 0.48568 0.0
C513 C 0.62225 0.02153 0.47289 0.0
C514 C 0.62623 0.02482 0.44799 0.0
C515 C 0.58219 0.98348 0.33252 0.0
C516 C 0.57511 1.00195 0.31669 0.0
C517 C 0.60158 0.98797 0.34904 0.0
C518 C 0.61439 0.01095 0.35002 0.0
C519 C 0.60728 0.0295 0.3344 0.0
C520 C 0.58791 0.02503 0.31785 0.0
C521 C 0.63512 0.0155 0.36748 0.0
C522 C 0.63076 0.01192 0.3924 0.0
C523 C 0.65896 0.02354 0.35977 0.0
C524 C 0.66497 0.02688 0.33367 0.0
C525 C 0.67467 0.04969 0.32563 0.0
C526 C 0.68005 0.05299 0.30099 0.0
C527 C 0.67594 0.03356 0.28423 0.0
C528 C 0.66652 0.01076 0.2921 0.0
C529 C 0.66112 0.00736 0.31672 0.0
H530 H 0.68009 0.03617 0.26516 0.0
H531 H 0.63326 0.00276 0.50501 0.0
H532 H 0.96754 0.58973 0.30998 0.0
H533 H 0.9745 0.61984 0.34281 0.0
H534 H 0.0471 0.5935 0.35446 0.0
H535 H 0.04034 0.56309 0.32096 0.0
H536 H 0.017 0.59707 0.39755 0.0
H537 H 0.0437 0.64715 0.3308 0.0
H538 H 0.04029 0.66538 0.29024 0.0
H539 H 0.97474 0.70064 0.31252 0.0
H540 H 0.97755 0.68232 0.35313 0.0
H541 H 0.06028 0.6912 0.47836 0.0
H542 H 0.05269 0.66116 0.44568 0.0
H543 H 0.9846 0.69465 0.42824 0.0
H544 H 0.99241 0.72552 0.46105 0.0
H545 H 0.01189 0.68721 0.38797 0.0
H546 H 0.98438 0.63835 0.45416 0.0
H547 H 0.98594 0.6198 0.49471 0.0
H548 H 0.05027 0.58172 0.47388 0.0
H549 H 0.04938 0.60036 0.4333 0.0
C550 C 0.98518 0.59047 0.3192 0.0
C551 C 0.00344 0.57399 0.31279 0.0
C552 C 0.98911 0.60776 0.338 0.0
C553 C 0.01129 0.60894 0.35103 0.0
C554 C 0.02983 0.59286 0.34454 0.0
C555 C 0.02604 0.57566 0.32533 0.0
C556 C 0.01432 0.62637 0.37205 0.0
C557 C 0.01637 0.61682 0.39548 0.0
C558 C 0.01239 0.65202 0.36933 0.0
C559 C 0.01072 0.66318 0.34495 0.0
C560 C 0.02844 0.65863 0.327 0.0
C561 C 0.02664 0.66901 0.304 0.0
C562 C 0.00728 0.68411 0.29879 0.0
C563 C 0.98972 0.68892 0.31658 0.0
C564 C 0.99142 0.67856 0.3396 0.0
C565 C 0.0435 0.69214 0.4678 0.0
C566 C 0.02698 0.7109 0.47226 0.0
C567 C 0.03913 0.67477 0.44916 0.0
C568 C 0.01801 0.67549 0.43457 0.0
C569 C 1.00103 0.69374 0.43933 0.0
C570 C 0.00539 0.71124 0.45817 0.0
C571 C 0.01474 0.65797 0.41358 0.0
C572 C 0.01256 0.66747 0.39013 0.0
C573 C 0.0163 0.63224 0.41632 0.0
C574 C 0.01691 0.62092 0.44071 0.0
C575 C 0.99899 0.62618 0.45827 0.0
C576 C 0.99973 0.61563 0.48126 0.0
C577 C 0.01819 0.5996 0.48686 0.0
C578 C 0.03598 0.59413 0.4695 0.0
C579 C 0.03535 0.60467 0.44649 0.0
H580 H 0.01867 0.59138 0.50464 0.0
H581 H 0.00592 0.69213 0.28097 0.0
H582 H 0.30599 0.05018 0.44949 0.0
H583 H 0.33761 0.05748 0.4184 0.0
H584 H 0.36254 0.98418 0.42792 0.0
H585 H 0.33112 0.97664 0.45883 0.0
H586 H 0.40047 0.0201 0.42977 0.0
H587 H 0.32934 0.99726 0.37898 0.0
H588 H 0.28721 1.00204 0.36362 0.0
H589 H 0.30744 0.07511 0.34046 0.0
H590 H 0.34964 0.07086 0.356 0.0
H591 H 0.46621 0.97765 0.33297 0.0
H592 H 0.43474 0.98695 0.36219 0.0
H593 H 0.43107 0.06016 0.3342 0.0
H594 H 0.46314 0.05089 0.30405 0.0
H595 H 0.38391 0.03581 0.34264 0.0
H596 H 0.45706 0.05583 0.38712 0.0
H597 H 0.49933 0.05065 0.40186 0.0
H598 H 0.47568 0.98399 0.43719 0.0
H599 H 0.43333 0.98854 0.42235 0.0
C600 C 0.31807 0.03552 0.44485 0.0
C601 C 0.31599 0.01281 0.45678 0.0
C602 C 0.33611 0.03975 0.42704 0.0
C603 C 0.35246 0.0214 0.42089 0.0
C604 C 0.35018 0.99864 0.43247 0.0
C605 C 0.33209 0.99433 0.45009 0.0
C606 C 0.3725 0.02582 0.40294 0.0
C607 C 0.39686 0.02352 0.41071 0.0
C608 C 0.36786 0.03136 0.3783 0.0
C609 C 0.34254 0.03387 0.36894 0.0
C610 C 0.32474 0.01443 0.37082 0.0
C611 C 0.30087 0.01702 0.36204 0.0
C612 C 0.29463 0.0389 0.35115 0.0
C613 C 0.31228 0.0582 0.34895 0.0
C614 C 0.33618 0.0557 0.35773 0.0
C615 C 0.45893 0.99584 0.33279 0.0
C616 C 0.46744 0.01357 0.31604 0.0
C617 C 0.44088 1.00113 0.34972 0.0
C618 C 0.43077 0.02433 0.35064 0.0
C619 C 0.43878 0.04216 0.33385 0.0
C620 C 0.45714 0.03687 0.31673 0.0
C621 C 0.41177 0.0291 0.36934 0.0
C622 C 0.38761 0.0331 0.3618 0.0
C623 C 0.41656 0.02527 0.39431 0.0
C624 C 0.44199 0.02252 0.40353 0.0
C625 C 0.46088 0.03999 0.39792 0.0
C626 C 0.48486 0.03717 0.4063 0.0
C627 C 0.49019 0.017 0.42044 0.0
C628 C 0.47152 0.99962 0.42625 0.0
C629 C 0.44751 1.00234 0.41789 0.0
H630 H 0.50877 0.01484 0.42691 0.0
H631 H 0.27614 0.04087 0.34435 0.0
H632 H 0.04138 0.59551 0.73806 0.0
H633 H 0.04221 0.62851 0.70866 0.0
H634 H 0.98867 0.58734 0.6642 0.0
H635 H 0.98801 0.55388 0.69355 0.0
H636 H 0.02595 0.60425 0.63699 0.0
H637 H 0.97294 0.63912 0.69582 0.0
H638 H 0.95932 0.65227 0.73666 0.0
H639 H 0.02227 0.70254 0.74317 0.0
H640 H 0.03647 0.68945 0.7025 0.0
H641 H 0.00581 0.73405 0.58545 0.0
H642 H 0.99732 0.70314 0.6163 0.0
H643 H 0.06936 0.67493 0.60523 0.0
H644 H 0.07794 0.70555 0.57404 0.0
H645 H 0.01728 0.69237 0.65881 0.0
H646 H 0.06586 0.61291 0.60976 0.0
H647 H 0.07639 0.60001 0.56787 0.0
H648 H 0.01543 0.6384 0.53993 0.0
H649 H 0.00436 0.65128 0.58168 0.0
C650 C 0.0295 0.59356 0.72221 0.0
C651 C 0.01461 0.57204 0.71816 0.0
C652 C 0.02995 0.61253 0.70542 0.0
C653 C 0.0154 0.61053 0.68425 0.0
C654 C 1.00006 0.5893 0.6804 0.0
C655 C 0.99958 0.57026 0.69726 0.0
C656 C 0.01732 0.63006 0.66566 0.0
C657 C 0.02393 0.6235 0.64176 0.0
C658 C 0.01436 0.65518 0.67171 0.0
C659 C 0.00587 0.66316 0.69617 0.0
C660 C 0.98398 0.65285 0.70603 0.0
C661 C 0.97614 0.66032 0.72914 0.0
C662 C 0.98995 0.6782 0.74252 0.0
C663 C 0.0116 0.68868 0.73279 0.0
C664 C 0.01954 0.68127 0.70969 0.0
C665 C 0.01999 0.72144 0.58967 0.0
C666 C 0.04252 0.72222 0.57703 0.0
C667 C 0.01508 0.70376 0.60737 0.0
C668 C 0.03251 0.68643 0.6128 0.0
C669 C 0.05542 0.6878 0.601 0.0
C670 C 0.06035 0.70544 0.58325 0.0
C671 C 0.02653 0.6666 0.63038 0.0
C672 C 0.01918 0.67311 0.65405 0.0
C673 C 0.02832 0.6414 0.62399 0.0
C674 C 0.03444 0.63324 0.59885 0.0
C675 C 0.05463 0.61849 0.5947 0.0
C676 C 0.06071 0.61121 0.57098 0.0
C677 C 0.04665 0.61847 0.55126 0.0
C678 C 0.02637 0.63288 0.55522 0.0
C679 C 0.0202 0.6402 0.57891 0.0
H680 H 0.05148 0.61292 0.53292 0.0
H681 H 0.98384 0.68395 0.7604 0.0
H682 H 0.46009 0.04723 0.71913 0.0
H683 H 0.42661 0.04936 0.6896 0.0
H684 H 0.4235 0.97029 0.68219 0.0
H685 H 0.45549 0.96807 0.71356 0.0
H686 H 0.43311 0.02948 0.64157 0.0
H687 H 0.3833 0.95679 0.67704 0.0
H688 H 0.35997 0.93485 0.70901 0.0
H689 H 0.32268 1.00067 0.72696 0.0
H690 H 0.34676 0.02323 0.6958 0.0
H691 H 0.34722 0.99513 0.5458 0.0
H692 H 0.37701 0.99676 0.57928 0.0
H693 H 0.33207 0.04685 0.61916 0.0
H694 H 0.30226 0.04567 0.58528 0.0
H695 H 0.34477 0.00293 0.64455 0.0
H696 H 0.38373 0.06902 0.60002 0.0
H697 H 0.40171 0.08869 0.5637 0.0
H698 H 0.45605 0.03394 0.55947 0.0
H699 H 0.43816 0.01372 0.59558 0.0
C700 C 0.45129 0.03024 0.71223 0.0
C701 C 0.4595 0.00745 0.7196 0.0
C702 C 0.43232 0.03147 0.69512 0.0
C703 C 0.42166 0.00994 0.68429 0.0
C704 C 0.43024 0.98709 0.69122 0.0
C705 C 0.44888 0.98585 0.70885 0.0
C706 C 0.40458 0.01202 0.66325 0.0
C707 C 0.41382 0.02346 0.6422 0.0
C708 C 0.37932 0.00449 0.66399 0.0
C709 C 0.36777 0.992 0.685 0.0
C710 C 0.37101 0.96686 0.68858 0.0
C711 C 0.35738 0.95422 0.70633 0.0
C712 C 0.33993 0.96638 0.72011 0.0
C713 C 0.33628 0.99128 0.71636 0.0
C714 C 0.35014 0.00407 0.69888 0.0
C715 C 0.34393 0.00691 0.56149 0.0
C716 C 0.32245 0.02031 0.56296 0.0
C717 C 0.36099 0.00783 0.58058 0.0
C718 C 0.35675 0.02189 0.60169 0.0
C719 C 0.33568 0.03592 0.60296 0.0
C720 C 0.31878 0.03539 0.58358 0.0
C721 C 0.37337 0.02024 0.62303 0.0
C722 C 0.36406 0.00897 0.64402 0.0
C723 C 0.39861 0.02754 0.62206 0.0
C724 C 0.40946 0.03972 0.60039 0.0
C725 C 0.39938 0.06104 0.59123 0.0
C726 C 0.40959 0.07232 0.5707 0.0
C727 C 0.42998 0.06254 0.55925 0.0
C728 C 0.44024 0.04149 0.56834 0.0
C729 C 0.43009 0.03012 0.58886 0.0
H730 H 0.43785 0.0713 0.54336 0.0
H731 H 0.32922 0.95651 0.73367 0.0
H732 H 0.96932 0.33807 0.558 0.0
H733 H 0.97759 0.36709 0.59195 0.0
H734 H 0.05343 0.34697 0.59333 0.0
H735 H 0.04513 0.31744 0.56005 0.0
H736 H 0.0375 0.34851 0.63694 0.0
H737 H 0.03504 0.40277 0.57035 0.0
H738 H 0.01771 0.42064 0.53348 0.0
H739 H 0.95577 0.44433 0.57465 0.0
H740 H 0.9725 0.4262 0.61169 0.0
H741 H 0.07046 0.45979 0.71393 0.0
H742 H 0.06972 0.42931 0.68041 0.0
H743 H 0.99053 0.42318 0.68402 0.0
H744 H 0.9912 0.45531 0.71584 0.0
H745 H 0.01307 0.43515 0.63724 0.0
H746 H 0.01696 0.34525 0.68506 0.0
H747 H 0.03862 0.32081 0.71508 0.0
H748 H 0.10405 0.36696 0.70642 0.0
H749 H 0.0832 0.3906 0.67533 0.0
C750 C 0.98777 0.33988 0.5655 0.0
C751 C 0.00653 0.32537 0.55636 0.0
C752 C 0.99252 0.35661 0.58482 0.0
C753 C 0.01624 0.35948 0.59504 0.0
C754 C 0.03499 0.34509 0.58581 0.0
C755 C 0.03019 0.32818 0.56676 0.0
C756 C 0.02136 0.3767 0.61601 0.0
C757 C 0.03239 0.36756 0.63687 0.0
C758 C 0.01487 0.40159 0.61592 0.0
C759 C 0.00494 0.41293 0.59378 0.0
C760 C 0.01764 0.41165 0.57152 0.0
C761 C 0.00793 0.42183 0.55059 0.0
C762 C 0.98563 0.43356 0.55171 0.0
C763 C 0.97304 0.43521 0.5738 0.0
C764 C 0.98263 0.425 0.59478 0.0
C765 C 0.05298 0.45143 0.70792 0.0
C766 C 0.03091 0.45903 0.71824 0.0
C767 C 0.05259 0.43366 0.68906 0.0
C768 C 0.03014 0.42292 0.68048 0.0
C769 C 0.00812 0.43058 0.69085 0.0
C770 C 0.0085 0.44874 0.70922 0.0
C771 C 0.02899 0.40683 0.65829 0.0
C772 C 0.01841 0.41617 0.63717 0.0
C773 C 0.03651 0.38226 0.65789 0.0
C774 C 0.04808 0.3706 0.67888 0.0
C775 C 0.03582 0.35046 0.68996 0.0
C776 C 0.04812 0.33639 0.70675 0.0
C777 C 0.07265 0.34245 0.71282 0.0
C778 C 0.08495 0.3625 0.70197 0.0
C779 C 0.07286 0.3763 0.68479 0.0
H780 H 0.08213 0.33161 0.72589 0.0
H781 H 0.97813 0.4414 0.53547 0.0
H782 H 0.59496 0.99356 0.72881 0.0
H783 H 0.62591 0.99055 0.69704 0.0
H784 H 0.58885 0.04385 0.65487 0.0
H785 H 0.55731 0.04661 0.6866 0.0
H786 H 0.6001 0.0049 0.62706 0.0
H787 H 0.64415 0.05821 0.68458 0.0
H788 H 0.66116 0.07092 0.7248 0.0
H789 H 0.70427 0.00674 0.72554 0.0
H790 H 0.68725 0.99348 0.68545 0.0
H791 H 0.69426 0.03888 0.54426 0.0
H792 H 0.66207 0.03434 0.57482 0.0
H793 H 0.70296 0.97908 0.61037 0.0
H794 H 0.73554 0.98363 0.57943 0.0
H795 H 0.68999 0.01545 0.64195 0.0
H796 H 0.64817 0.96344 0.58333 0.0
H797 H 0.63034 0.94977 0.54374 0.0
H798 H 0.58297 0.01078 0.54504 0.0
H799 H 0.60076 0.02506 0.58448 0.0
C800 C 0.59349 0.00492 0.71294 0.0
C801 C 0.57364 0.02039 0.71029 0.0
C802 C 0.61131 0.0032 0.69477 0.0
C803 C 0.60989 0.01709 0.67358 0.0
C804 C 0.59035 0.03294 0.67105 0.0
C805 C 0.57242 0.03464 0.68927 0.0
C806 C 0.62825 0.01425 0.65372 0.0
C807 C 0.61975 0.00758 0.63023 0.0
C808 C 0.65395 0.01675 0.65803 0.0
C809 C 0.66423 0.02473 0.68212 0.0
C810 C 0.6571 0.04671 0.6934 0.0
C811 C 0.66678 0.05403 0.71616 0.0
C812 C 0.68373 0.03961 0.72775 0.0
C813 C 0.6911 0.01788 0.71656 0.0
C814 C 0.68147 0.01046 0.69381 0.0
C815 C 0.69616 0.02534 0.55828 0.0
C816 C 0.71741 0.01161 0.55951 0.0
C817 C 0.67767 0.02269 0.57571 0.0
C818 C 0.67998 0.00632 0.5949 0.0
C819 C 0.70075 0.99178 0.59567 0.0
C820 C 0.71924 0.99423 0.57793 0.0
C821 C 0.66184 0.00642 0.61518 0.0
C822 C 0.67036 0.01262 0.63878 0.0
C823 C 0.63615 0.00348 0.61095 0.0
C824 C 0.62592 0.9954 0.58684 0.0
C825 C 0.63414 0.9741 0.57507 0.0
C826 C 0.62396 0.96618 0.55269 0.0
C827 C 0.60545 0.97932 0.54195 0.0
C828 C 0.59723 1.00055 0.55345 0.0
C829 C 0.60735 0.00856 0.57582 0.0
H830 H 0.59756 0.97313 0.52466 0.0
H831 H 0.6912 0.04532 0.74537 0.0
H832 H 0.42484 0.28523 0.02017 0.0
H833 H 0.39296 0.31555 0.02434 0.0
H834 H 0.44426 0.37241 0.99981 0.0
H835 H 0.476 0.34209 0.99482 0.0
H836 H 0.41441 0.37521 0.052 0.0
H837 H 0.40976 0.36744 0.96301 0.0
H838 H 0.4048 0.34315 0.92477 0.0
H839 H 0.33476 0.31354 0.9491 0.0
H840 H 0.33951 0.3374 0.98768 0.0
H841 H 0.34187 0.48037 0.04679 0.0
H842 H 0.37123 0.44787 0.04358 0.0
H843 H 0.31209 0.39534 0.02443 0.0
H844 H 0.28294 0.42826 0.02617 0.0
H845 H 0.3458 0.38855 0.99478 0.0
H846 H 0.3467 0.3962 0.08137 0.0
H847 H 0.34991 0.41703 0.12163 0.0
H848 H 0.42394 0.44241 0.10573 0.0
H849 H 0.42108 0.42199 0.06524 0.0
C850 C 0.42915 0.30408 0.01512 0.0
C851 C 0.45288 0.31125 0.00703 0.0
C852 C 0.41097 0.32136 0.01761 0.0
C853 C 0.41634 0.34617 0.01248 0.0
C854 C 0.43979 0.35331 0.00382 0.0
C855 C 0.45782 0.33593 1.0008 0.0
C856 C 0.39788 0.36483 0.01748 0.0
C857 C 0.39953 0.37845 0.03942 0.0
C858 C 0.37801 0.3682 1.0015 0.0
C859 C 0.37515 0.35393 0.97834 0.0
C860 C 0.39344 0.35552 0.96033 0.0
C861 C 0.39064 0.34189 0.93856 0.0
C862 C 0.36952 0.32674 0.93454 0.0
C863 C 0.35113 0.32524 0.95226 0.0
C864 C 0.35387 0.33882 0.97406 0.0
C865 C 0.33504 0.46176 0.04256 0.0
C866 C 0.31008 0.45683 0.03687 0.0
C867 C 0.35189 0.44309 0.04072 0.0
C868 C 0.34402 0.41891 0.0339 0.0
C869 C 0.31879 0.41378 0.02956 0.0
C870 C 0.30206 0.43257 0.0308 0.0
C871 C 0.3622 0.39949 0.02945 0.0
C872 C 0.36053 0.38552 0.00759 0.0
C873 C 0.38178 0.39544 0.04583 0.0
C874 C 0.38359 0.40775 0.07017 0.0
C875 C 0.36361 0.40638 0.08638 0.0
C876 C 0.36537 0.41808 0.10926 0.0
C877 C 0.38709 0.43108 0.11621 0.0
C878 C 0.40712 0.43235 0.10031 0.0
C879 C 0.40544 0.42069 0.07741 0.0
H880 H 0.38842 0.44013 0.13393 0.0
H881 H 0.36738 0.31621 0.91768 0.0
H882 H 0.31458 0.57559 0.04541 0.0
H883 H 0.34765 0.60665 0.04632 0.0
H884 H 0.37572 0.57524 0.97944 0.0
H885 H 0.33824 0.54918 0.97548 0.0
H886 H 0.38758 0.61174 0.05358 0.0
H887 H 0.42079 0.60508 0.95388 0.0
H888 H 0.4042 0.59974 0.91209 0.0
H889 H 0.3362 0.62982 0.93508 0.0
H890 H 0.3526 0.63538 0.977 0.0
H891 H 0.48858 0.69859 0.0577 0.0
H892 H 0.46189 0.66136 0.0545 0.0
H893 H 0.43099 0.68821 0.98783 0.0
H894 H 0.46237 0.72079 0.98798 0.0
H895 H 0.42626 0.6482 0.98062 0.0
H896 H 0.40237 0.68515 0.05756 0.0
H897 H 0.40827 0.70194 0.0995 0.0
H898 H 0.43639 0.63338 0.12178 0.0
H899 H 0.43079 0.61641 0.07997 0.0
C900 C 0.32652 0.57709 0.02979 0.0
C901 C 0.32214 0.56205 0.00913 0.0
C902 C 0.34648 0.59406 0.03082 0.0
C903 C 0.36451 0.59455 0.01242 0.0
C904 C 0.36157 0.57721 0.99302 0.0
C905 C 0.34025 0.56178 0.99096 0.0
C906 C 0.38623 0.61277 0.01421 0.0
C907 C 0.39525 0.62022 0.03743 0.0
C908 C 0.3975 0.62383 0.99358 0.0
C909 C 0.38764 0.6202 0.96855 0.0
C910 C 0.40229 0.61047 0.94998 0.0
C911 C 0.39294 0.6074 0.92631 0.0
C912 C 0.36908 0.61426 0.92098 0.0
C913 C 0.35457 0.6243 0.93929 0.0
C914 C 0.36383 0.62735 0.96298 0.0
C915 C 0.47596 0.69633 0.04244 0.0
C916 C 0.47593 0.71395 0.0241 0.0
C917 C 0.46021 0.67517 0.0408 0.0
C918 C 0.4429 0.67195 0.02161 0.0
C919 C 0.44359 0.68955 0.00312 0.0
C920 C 0.4608 0.70927 0.00373 0.0
C921 C 0.42451 0.65037 0.01998 0.0
C922 C 0.41733 0.64103 0.99677 0.0
C923 C 0.41289 0.6397 0.04062 0.0
C924 C 0.41658 0.64978 0.06566 0.0
C925 C 0.41003 0.67386 0.07143 0.0
C926 C 0.41327 0.68335 0.09513 0.0
C927 C 0.42285 0.66879 0.11324 0.0
C928 C 0.42908 0.64467 0.10771 0.0
C929 C 0.42585 0.63511 0.08403 0.0
H930 H 0.42534 0.67616 0.13158 0.0
H931 H 0.36189 0.61191 0.90264 0.0
H932 H 0.56629 0.3196 0.06654 0.0
H933 H 0.59918 0.35213 0.06464 0.0
H934 H 0.59408 0.35033 0.98613 0.0
H935 H 0.56107 0.31856 0.98814 0.0
H936 H 0.64265 0.34824 0.0455 0.0
H937 H 0.61375 0.40386 0.96165 0.0
H938 H 0.57576 0.41806 0.94298 0.0
H939 H 0.5395 0.41516 0.01232 0.0
H940 H 0.57736 0.4013 0.03149 0.0
H941 H 0.71788 0.44756 0.96818 0.0
H942 H 0.6857 0.41506 0.9736 0.0
H943 H 0.69579 0.4207 0.05149 0.0
H944 H 0.72732 0.45354 0.04608 0.0
H945 H 0.64354 0.42284 0.99523 0.0
H946 H 0.68093 0.37779 0.07802 0.0
H947 H 0.7115 0.35039 0.09473 0.0
H948 H 0.72675 0.32336 0.02255 0.0
H949 H 0.69687 0.35121 0.00548 0.0
C950 C 0.57211 0.32646 0.04898 0.0
C951 C 0.56181 0.31618 0.02746 0.0
C952 C 0.59081 0.34501 0.04787 0.0
C953 C 0.59903 0.3539 0.02523 0.0
C954 C 0.58785 0.34425 0.00383 0.0
C955 C 0.56926 0.32578 0.00497 0.0
C956 C 0.62085 0.37136 0.0237 0.0
C957 C 0.64268 0.36483 0.03488 0.0
C958 C 0.62116 0.39264 0.00924 0.0
C959 C 0.59838 0.40136 0.99796 0.0
C960 C 0.59772 0.40639 0.97295 0.0
C961 C 0.57619 0.41435 0.96227 0.0
C962 C 0.55521 0.41745 0.97644 0.0
C963 C 0.55574 0.41267 1.00134 0.0
C964 C 0.57723 0.40473 0.01212 0.0
C965 C 0.71365 0.44136 0.98639 0.0
C966 C 0.7256 0.45265 0.00666 0.0
C967 C 0.69528 0.42278 0.9895 0.0
C968 C 0.68838 0.41513 0.01297 0.0
C969 C 0.70108 0.4257 0.03317 0.0
C970 C 0.71928 0.44444 0.03006 0.0
C971 C 0.66564 0.39918 0.01646 0.0
C972 C 0.6435 0.40626 0.00587 0.0
C973 C 0.66501 0.3781 0.03114 0.0
C974 C 0.68726 0.36701 0.04048 0.0
C975 C 0.6915 0.36663 0.06571 0.0
C976 C 0.70845 0.35081 0.07526 0.0
C977 C 0.72093 0.33501 0.05973 0.0
C978 C 0.71703 0.33555 0.03456 0.0
C979 C 0.70046 0.3517 0.02491 0.0
H980 H 0.7338 0.32253 0.06717 0.0
H981 H 0.53856 0.42359 0.96813 0.0
H982 H 0.73793 0.5904 0.98571 0.0
H983 H 0.70854 0.62263 0.98289 0.0
H984 H 0.66103 0.58459 0.03399 0.0
H985 H 0.69083 0.55213 0.03719 0.0
H986 H 0.66322 0.62057 0.96614 0.0
H987 H 0.62746 0.62793 0.06464 0.0
H988 H 0.64164 0.62147 0.10668 0.0
H989 H 0.71654 0.63596 0.0847 0.0
H990 H 0.70277 0.6428 0.04263 0.0
H991 H 0.55616 0.69344 0.97309 0.0
H992 H 0.5861 0.66119 0.97473 0.0
H993 H 0.63698 0.71108 0.01344 0.0
H994 H 0.60716 0.74322 0.01208 0.0
H995 H 0.6323 0.66854 0.03647 0.0
H996 H 0.647 0.69357 0.95415 0.0
H997 H 0.63577 0.70258 0.91181 0.0
H998 H 0.60838 0.62792 0.90079 0.0
H999 H 0.61916 0.61854 0.94319 0.0
C1000 C 0.72134 0.5889 0.99657 0.0
C1001 C 0.71674 0.56864 0.01169 0.0
C1002 C 0.70446 0.60735 0.99481 0.0
C1003 C 0.68248 0.60609 0.00812 0.0
C1004 C 0.67795 0.58611 0.02366 0.0
C1005 C 0.69499 0.56757 0.02551 0.0
C1006 C 0.66439 0.62562 0.00518 0.0
C1007 C 0.65638 0.63096 0.98156 0.0
C1008 C 0.6556 0.63944 0.02519 0.0
C1009 C 0.66409 0.63559 0.05045 0.0
C1010 C 0.64694 0.62979 0.06881 0.0
C1011 C 0.65491 0.62606 0.09263 0.0
C1012 C 0.67998 0.62821 0.09834 0.0
C1013 C 0.69714 0.63419 0.08024 0.0
C1014 C 0.68926 0.63797 0.0564 0.0
C1015 C 0.57396 0.69773 0.98142 0.0
C1016 C 0.57925 0.72093 0.99244 0.0
C1017 C 0.59104 0.67922 0.98245 0.0
C1018 C 0.61379 0.68362 0.99436 0.0
C1019 C 0.61949 0.70713 0.00436 0.0
C1020 C 0.60247 0.72558 0.00337 0.0
C1021 C 0.63124 0.66355 0.99742 0.0
C1022 C 0.63901 0.65802 0.02107 0.0
C1023 C 0.64016 0.64985 0.9774 0.0
C1024 C 0.63365 0.65543 0.95192 0.0
C1025 C 0.6384 0.67913 0.94276 0.0
C1026 C 0.63215 0.68429 0.91874 0.0
C1027 C 0.6213 0.66585 0.90364 0.0
C1028 C 0.61674 0.64219 0.91252 0.0
C1029 C 0.62294 0.63694 0.93654 0.0
H1030 H 0.61649 0.66988 0.88504 0.0
H1031 H 0.68612 0.6253 0.11678 0.0
H1032 H 0.54356 0.80343 0.94092 0.0
H1033 H 0.54453 0.83356 0.90796 0.0
H1034 H 0.4911 0.87568 0.94646 0.0
H1035 H 0.48993 0.84594 0.97894 0.0
H1036 H 0.47667 0.86536 0.90038 0.0
H1037 H 0.55109 0.8961 0.9417 0.0
H1038 H 0.59296 0.89274 0.9583 0.0
H1039 H 0.61931 0.87283 0.88726 0.0
H1040 H 0.5775 0.87576 0.8703 0.0
H1041 H 0.47125 0.97757 0.83962 0.0
H1042 H 0.47707 0.94528 0.86905 0.0
H1043 H 0.53313 0.91498 0.82347 0.0
H1044 H 0.5279 0.94759 0.7942 0.0
H1045 H 0.54782 0.9155 0.86929 0.0
H1046 H 0.47476 0.88726 0.82714 0.0
H1047 H 0.43311 0.89007 0.80985 0.0
H1048 H 0.40421 0.90363 0.88133 0.0
H1049 H 0.44576 0.90125 0.89902 0.0
C1050 C 0.53247 0.81942 0.94252 0.0
C1051 C 0.51649 0.82218 0.96238 0.0
C1052 C 0.53297 0.83657 0.92368 0.0
C1053 C 0.51767 0.85676 0.92464 0.0
C1054 C 0.50281 0.86012 0.94514 0.0
C1055 C 0.50222 0.84309 0.96374 0.0
C1056 C 0.51562 0.87375 0.90392 0.0
C1057 C 0.49221 0.87648 0.89372 0.0
C1058 C 0.53601 0.88759 0.89459 0.0
C1059 C 0.56112 0.88586 0.90479 0.0
C1060 C 0.56577 0.89079 0.92966 0.0
C1061 C 0.58949 0.88901 0.93913 0.0
C1062 C 0.60876 0.8825 0.92386 0.0
C1063 C 0.60435 0.87782 0.89908 0.0
C1064 C 0.58065 0.87956 0.88953 0.0
C1065 C 0.48471 0.96396 0.83572 0.0
C1066 C 0.49902 0.96519 0.81444 0.0
C1067 C 0.488 0.94544 0.85258 0.0
C1068 C 0.50536 0.92746 0.84838 0.0
C1069 C 0.51964 0.92861 0.82715 0.0
C1070 C 0.51652 0.94725 0.81037 0.0
C1071 C 0.50869 0.90765 0.86627 0.0
C1072 C 0.5323 0.90427 0.8758 0.0
C1073 C 0.48849 0.89302 0.87493 0.0
C1074 C 0.46342 0.89426 0.86438 0.0
C1075 C 0.45955 0.891 0.83915 0.0
C1076 C 0.43596 0.89249 0.82929 0.0
C1077 C 0.41604 0.89707 0.84448 0.0
C1078 C 0.41966 0.9001 0.86958 0.0
C1079 C 0.44323 0.89865 0.87955 0.0
H1080 H 0.39779 0.89823 0.8368 0.0
H1081 H 0.62712 0.88113 0.93123 0.0
H1082 H 0.24075 0.49666 0.9475 0.0
H1083 H 0.21296 0.48879 0.91279 0.0
H1084 H 0.17151 0.5513 0.93459 0.0
H1085 H 0.19981 0.55989 0.96847 0.0
H1086 H 0.16781 0.47608 0.90901 0.0
H1087 H 0.14431 0.57727 0.88833 0.0
H1088 H 0.165 0.61857 0.8892 0.0
H1089 H 0.23528 0.58631 0.88199 0.0
H1090 H 0.215 0.54484 0.88071 0.0
H1091 H 0.05613 0.47559 0.84391 0.0
H1092 H 0.09042 0.48159 0.87255 0.0
H1093 H 0.13365 0.51832 0.81705 0.0
H1094 H 0.09873 0.51372 0.78891 0.0
H1095 H 0.14124 0.54224 0.85534 0.0
H1096 H 0.14343 0.4567 0.83755 0.0
H1097 H 0.12733 0.41381 0.83235 0.0
H1098 H 0.10845 0.41176 0.90821 0.0
H1099 H 0.12413 0.45476 0.9138 0.0
C1100 C 0.22585 0.50886 0.94471 0.0
C1101 C 0.22261 0.52901 0.96064 0.0
C1102 C 0.20992 0.5043 0.92491 0.0
C1103 C 0.19027 0.51962 0.92078 0.0
C1104 C 0.18688 0.53957 0.93688 0.0
C1105 C 0.20305 0.54442 0.95637 0.0
C1106 C 0.1728 0.51439 0.90017 0.0
C1107 C 0.16212 0.49053 0.89718 0.0
C1108 C 0.16579 0.533 0.88419 0.0
C1109 C 0.17812 0.55793 0.88464 0.0
C1110 C 0.16416 0.57899 0.8868 0.0
C1111 C 0.17583 0.60243 0.88739 0.0
C1112 C 0.20144 0.60506 0.88572 0.0
C1113 C 0.21545 0.58425 0.88337 0.0
C1114 C 0.20388 0.56077 0.88273 0.0
C1115 C 0.07304 0.48478 0.83781 0.0
C1116 C 0.07482 0.49415 0.8142 0.0
C1117 C 0.09273 0.48809 0.85415 0.0
C1118 C 0.11494 0.50004 0.84694 0.0
C1119 C 0.11678 0.50909 0.82317 0.0
C1120 C 0.09685 0.50639 0.80705 0.0
C1121 C 0.13582 0.50401 0.86447 0.0
C1122 C 0.1471 0.52769 0.86695 0.0
C1123 C 0.1441 0.48497 0.87927 0.0
C1124 C 0.1348 0.45903 0.87605 0.0
C1125 C 0.13572 0.44715 0.8531 0.0
C1126 C 0.12667 0.42281 0.85008 0.0
C1127 C 0.11683 0.41009 0.86993 0.0
C1128 C 0.11607 0.42165 0.89285 0.0
C1129 C 0.12506 0.446 0.89596 0.0
H1130 H 0.10983 0.39125 0.86755 0.0
H1131 H 0.21044 0.62322 0.88621 0.0
H1132 H 0.5313 0.04456 0.84259 0.0
H1133 H 0.53332 0.07735 0.87378 0.0
H1134 H 0.53369 0.13177 0.81771 0.0
H1135 H 0.53195 0.09884 0.78646 0.0
H1136 H 0.56025 0.14801 0.86056 0.0
H1137 H 0.48126 0.11322 0.83688 0.0
H1138 H 0.45122 0.07894 0.82787 0.0
H1139 H 0.45521 0.05588 0.90209 0.0
H1140 H 0.48572 0.08976 0.91142 0.0
H1141 H 0.50853 0.24074 0.93378 0.0
H1142 H 0.50963 0.21054 0.89998 0.0
H1143 H 0.51227 0.15191 0.95154 0.0
H1144 H 0.51151 0.18214 0.98525 0.0
H1145 H 0.48343 0.13945 0.90906 0.0
H1146 H 0.56355 0.1754 0.93172 0.0
H1147 H 0.59327 0.21031 0.93936 0.0
H1148 H 0.58588 0.23262 0.86521 0.0
H1149 H 0.55567 0.19814 0.85727 0.0
C1150 C 0.53328 0.06352 0.83695 0.0
C1151 C 0.53194 0.06925 0.81219 0.0
C1152 C 0.5341 0.08225 0.85476 0.0
C1153 C 0.53319 0.10699 0.84806 0.0
C1154 C 0.53444 0.11282 0.82327 0.0
C1155 C 0.53367 0.09403 0.80542 0.0
C1156 C 0.52699 0.12603 0.86656 0.0
C1157 C 0.54336 0.1463 0.87097 0.0
C1158 C 0.50487 0.12383 0.88011 0.0
C1159 C 0.48595 0.1039 0.8748 0.0
C1160 C 0.47584 0.10076 0.85125 0.0
C1161 C 0.45874 0.0814 0.84608 0.0
C1162 C 0.45134 0.06521 0.86439 0.0
C1163 C 0.46098 0.06842 0.88792 0.0
C1164 C 0.47819 0.0877 0.89317 0.0
C1165 C 0.50826 0.22131 0.9378 0.0
C1166 C 0.50941 0.21361 0.962 0.0
C1167 C 0.50918 0.20412 0.91854 0.0
C1168 C 0.51129 0.17901 0.92327 0.0
C1169 C 0.51056 0.17117 0.94748 0.0
C1170 C 0.50995 0.18838 0.96671 0.0
C1171 C 0.51685 0.16126 0.90334 0.0
C1172 C 0.5003 0.14122 0.8986 0.0
C1173 C 0.53865 0.16387 0.88932 0.0
C1174 C 0.55716 0.18433 0.89396 0.0
C1175 C 0.56811 0.18786 0.91709 0.0
C1176 C 0.58506 0.20756 0.92148 0.0
C1177 C 0.59145 0.22367 0.90279 0.0
C1178 C 0.5809 0.22013 0.87967 0.0
C1179 C 0.56385 0.20052 0.87522 0.0
H1180 H 0.60462 0.23887 0.90619 0.0
H1181 H 0.43811 0.05022 0.86035 0.0
H1182 H 0.99208 0.50402 0.84693 0.0
H1183 H 0.959 0.5071 0.87666 0.0
H1184 H 0.9134 0.53933 0.82261 0.0
H1185 H 0.94688 0.53643 0.79262 0.0
H1186 H 0.90821 0.55752 0.87533 0.0
H1187 H 0.90308 0.48317 0.82502 0.0
H1188 H 0.92049 0.44708 0.80478 0.0
H1189 H 0.94456 0.42132 0.87389 0.0
H1190 H 0.92712 0.45724 0.8946 0.0
H1191 H 0.7983 0.5213 0.93845 0.0
H1192 H 0.82873 0.52872 0.90647 0.0
H1193 H 0.87815 0.48095 0.94211 0.0
H1194 H 0.84758 0.47289 0.97377 0.0
H1195 H 0.87911 0.47249 0.8954 0.0
H1196 H 0.88427 0.54564 0.94626 0.0
H1197 H 0.86827 0.58193 0.96747 0.0
H1198 H 0.84617 0.61087 0.89899 0.0
H1199 H 0.86175 0.57457 0.87739 0.0
C1200 C 0.97537 0.51272 0.84169 0.0
C1201 C 0.97199 0.52014 0.81762 0.0
C1202 C 0.95646 0.51435 0.85863 0.0
C1203 C 0.93369 0.52313 0.85172 0.0
C1204 C 0.93091 0.53257 0.82827 0.0
C1205 C 0.95003 0.53105 0.81122 0.0
C1206 C 0.91221 0.51895 0.86793 0.0
C1207 C 0.90147 0.539 0.87945 0.0
C1208 C 0.90383 0.49475 0.87361 0.0
C1209 C 0.91395 0.47294 0.86131 0.0
C1210 C 0.91219 0.46986 0.83588 0.0
C1211 C 0.92205 0.44944 0.82432 0.0
C1212 C 0.9338 0.43201 0.83799 0.0
C1213 C 0.9355 0.43486 0.86331 0.0
C1214 C 0.92553 0.45518 0.87498 0.0
C1215 C 0.81558 0.51223 0.93942 0.0
C1216 C 0.82049 0.49654 0.95878 0.0
C1217 C 0.83305 0.51665 0.92118 0.0
C1218 C 0.85596 0.50579 0.92208 0.0
C1219 C 0.86065 0.48963 0.94103 0.0
C1220 C 0.84311 0.485 0.95914 0.0
C1221 C 0.8751 0.51107 0.90331 0.0
C1222 C 0.8855 0.49111 0.89122 0.0
C1223 C 0.88318 0.53538 0.8973 0.0
C1224 C 0.87393 0.55726 0.91024 0.0
C1225 C 0.87583 0.55965 0.93574 0.0
C1226 C 0.86686 0.58024 0.94783 0.0
C1227 C 0.85615 0.59866 0.93459 0.0
C1228 C 0.85444 0.59657 0.90922 0.0
C1229 C 0.86334 0.576 0.89705 0.0
H1230 H 0.84921 0.61458 0.94398 0.0
H1231 H 0.94149 0.41626 0.82898 0.0
H1232 H 0.48593 0.04944 0.19177 0.0
H1233 H 0.48624 0.08125 0.16073 0.0
H1234 H 0.5326 0.12881 0.20694 0.0
H1235 H 0.532 0.09744 0.23807 0.0
H1236 H 0.50051 0.15525 0.1842 0.0
H1237 H 0.55686 0.09327 0.16132 0.0
H1238 H 0.56901 0.05106 0.15167 0.0
H1239 H 0.51757 0.04623 0.09211 0.0
H1240 H 0.50487 0.08832 0.10163 0.0
H1241 H 0.5662 0.20204 0.06603 0.0
H1242 H 0.56069 0.1722 0.09853 0.0
H1243 H 0.48523 0.19194 0.10697 0.0
H1244 H 0.49064 0.22204 0.07487 0.0
H1245 H 0.5318 0.13197 0.10251 0.0
H1246 H 0.46798 0.18611 0.16618 0.0
H1247 H 0.46 0.22916 0.17736 0.0
H1248 H 0.53396 0.25143 0.15773 0.0
H1249 H 0.54248 0.20849 0.14675 0.0
C1250 C 0.49579 0.06686 0.1955 0.0
C1251 C 0.50907 0.07082 0.21735 0.0
C1252 C 0.4961 0.08497 0.17766 0.0
C1253 C 0.50981 0.1073 0.18128 0.0
C1254 C 0.52195 0.11175 0.20364 0.0
C1255 C 0.52162 0.09372 0.22144 0.0
C1256 C 0.51276 0.12554 0.16146 0.0
C1257 C 0.50718 0.15011 0.16629 0.0
C1258 C 0.522 0.11904 0.13821 0.0
C1259 C 0.52974 0.09382 0.13234 0.0
C1260 C 0.54802 0.08313 0.14627 0.0
C1261 C 0.55503 0.05925 0.14081 0.0
C1262 C 0.54402 0.04594 0.12133 0.0
C1263 C 0.52605 0.05654 0.10722 0.0
C1264 C 0.51895 0.08041 0.11263 0.0
C1265 C 0.54845 0.20014 0.07485 0.0
C1266 C 0.52892 0.2146 0.0678 0.0
C1267 C 0.54529 0.18297 0.09339 0.0
C1268 C 0.52259 0.1799 0.10539 0.0
C1269 C 0.50304 0.1942 0.09831 0.0
C1270 C 0.50618 0.21141 0.07984 0.0
C1271 C 0.51933 0.16166 0.12517 0.0
C1272 C 0.52488 0.13708 0.12033 0.0
C1273 C 0.51059 0.16827 0.14858 0.0
C1274 C 0.50576 0.19412 0.1554 0.0
C1275 C 0.48256 0.20019 0.16433 0.0
C1276 C 0.47794 0.22457 0.17062 0.0
C1277 C 0.49644 0.24303 0.16818 0.0
C1278 C 0.51962 0.23713 0.15953 0.0
C1279 C 0.52434 0.21278 0.15324 0.0
H1280 H 0.49282 0.2619 0.17304 0.0
H1281 H 0.54947 0.02745 0.11713 0.0
H1282 H 0.98474 0.53723 0.19347 0.0
H1283 H 0.95934 0.54326 0.15777 0.0
H1284 H 0.90646 0.488 0.18363 0.0
H1285 H 0.93533 0.47808 0.21552 0.0
H1286 H 0.9001 0.485 0.14291 0.0
H1287 H 0.9076 0.56719 0.1857 0.0
H1288 H 0.93043 0.60494 0.20094 0.0
H1289 H 0.96261 0.61532 0.13049 0.0
H1290 H 0.9399 0.57796 0.11484 0.0
H1291 H 0.79399 0.52706 0.09021 0.0
H1292 H 0.82683 0.53038 0.1208 0.0
H1293 H 0.8803 0.54366 0.0642 0.0
H1294 H 0.84743 0.53955 0.03343 0.0
H1295 H 0.88799 0.56987 0.11542 0.0
H1296 H 0.87606 0.4911 0.07267 0.0
H1297 H 0.84969 0.45648 0.0564 0.0
H1298 H 0.82314 0.4414 0.1284 0.0
H1299 H 0.849 0.47631 0.14504 0.0
C1300 C 0.96771 0.52628 0.19125 0.0
C1301 C 0.961 0.50828 0.20825 0.0
C1302 C 0.95269 0.53023 0.17108 0.0
C1303 C 0.9296 0.51761 0.16839 0.0
C1304 C 0.9237 0.49869 0.18497 0.0
C1305 C 0.93981 0.49339 0.20392 0.0
C1306 C 0.91184 0.52333 0.14832 0.0
C1307 C 0.89735 0.50377 0.13766 0.0
C1308 C 0.90851 0.54756 0.13969 0.0
C1309 C 0.92236 0.5697 0.1493 0.0
C1310 C 0.91969 0.5775 0.17362 0.0
C1311 C 0.93255 0.59878 0.18228 0.0
C1312 C 0.94807 0.61233 0.16679 0.0
C1313 C 0.95066 0.60476 0.14251 0.0
C1314 C 0.93775 0.58361 0.13372 0.0
C1315 C 0.81256 0.53201 0.08444 0.0
C1316 C 0.81821 0.53339 0.05956 0.0
C1317 C 0.83133 0.53367 0.10189 0.0
C1318 C 0.85596 0.53698 0.09468 0.0
C1319 C 0.86137 0.54121 0.07008 0.0
C1320 C 0.84258 0.53915 0.05255 0.0
C1321 C 0.8759 0.53192 0.11207 0.0
C1322 C 0.89081 0.55137 0.12157 0.0
C1323 C 0.8794 0.50778 0.11994 0.0
C1324 C 0.86431 0.48643 0.11006 0.0
C1325 C 0.86446 0.48053 0.085 0.0
C1326 C 0.84964 0.46083 0.07572 0.0
C1327 C 0.83481 0.44672 0.09137 0.0
C1328 C 0.83471 0.45232 0.11632 0.0
C1329 C 0.84943 0.47205 0.12569 0.0
H1330 H 0.82338 0.43145 0.08416 0.0
H1331 H 0.958 0.62876 0.17357 0.0
H1332 H 0.4757 0.82379 0.07646 0.0
H1333 H 0.48605 0.85545 0.10739 0.0
H1334 H 0.56337 0.84675 0.09422 0.0
H1335 H 0.55321 0.81462 0.06368 0.0
H1336 H 0.55617 0.851 0.14062 0.0
H1337 H 0.53307 0.89668 0.07229 0.0
H1338 H 0.50712 0.90837 0.03788 0.0
H1339 H 0.44927 0.92598 0.08745 0.0
H1340 H 0.47472 0.91404 0.12215 0.0
H1341 H 0.57666 0.9676 0.21345 0.0
H1342 H 0.57886 0.93695 0.1803 0.0
H1343 H 0.50079 0.92081 0.18626 0.0
H1344 H 0.49821 0.9535 0.21703 0.0
H1345 H 0.51662 0.93125 0.13995 0.0
H1346 H 0.5442 0.84817 0.19096 0.0
H1347 H 0.57406 0.83141 0.21944 0.0
H1348 H 0.62797 0.88745 0.19945 0.0
H1349 H 0.59903 0.90322 0.16958 0.0
C1350 C 0.49493 0.82851 0.08018 0.0
C1351 C 0.51361 0.81666 0.06748 0.0
C1352 C 0.50082 0.84679 0.09776 0.0
C1353 C 0.52551 0.85391 0.1028 0.0
C1354 C 0.5442 0.8417 0.09058 0.0
C1355 C 0.53833 0.82327 0.07313 0.0
C1356 C 0.53175 0.87371 0.12117 0.0
C1357 C 0.54773 0.86868 0.14034 0.0
C1358 C 0.52111 0.89695 0.12062 0.0
C1359 C 0.50576 0.9043 0.09982 0.0
C1360 C 0.51475 0.90289 0.07585 0.0
C1361 C 0.50014 0.90958 0.05629 0.0
C1362 C 0.47655 0.91787 0.06047 0.0
C1363 C 0.46754 0.91954 0.08424 0.0
C1364 C 0.48207 0.91284 0.10386 0.0
C1365 C 0.56012 0.9571 0.20793 0.0
C1366 C 0.53742 0.96199 0.21873 0.0
C1367 C 0.56148 0.93911 0.18932 0.0
C1368 C 0.54026 0.92535 0.18159 0.0
C1369 C 0.51761 0.93052 0.19235 0.0
C1370 C 0.51615 0.949 0.21021 0.0
C1371 C 0.54028 0.90819 0.16007 0.0
C1372 C 0.52533 0.9137 0.14014 0.0
C1373 C 0.55229 0.88558 0.1597 0.0
C1374 C 0.56885 0.878 0.17931 0.0
C1375 C 0.56226 0.85721 0.19305 0.0
C1376 C 0.57923 0.84748 0.20899 0.0
C1377 C 0.60274 0.85867 0.21164 0.0
C1378 C 0.60955 0.87917 0.19784 0.0
C1379 C 0.59286 0.8885 0.18136 0.0
H1380 H 0.61579 0.85127 0.22415 0.0
H1381 H 0.46526 0.92304 0.04531 0.0
H1382 H 0.18503 0.54294 0.04653 0.0
H1383 H 0.15405 0.54291 0.07858 0.0
H1384 H 0.19998 0.49937 0.12331 0.0
H1385 H 0.23094 0.49876 0.09067 0.0
H1386 H 0.15156 0.48664 0.12959 0.0
H1387 H 0.20105 0.56127 0.13089 0.0
H1388 H 0.22144 0.59816 0.11323 0.0
H1389 H 0.15109 0.62526 0.09438 0.0
H1390 H 0.13026 0.58832 0.11159 0.0
H1391 H 0.09195 0.51772 0.23895 0.0
H1392 H 0.12443 0.51664 0.20842 0.0
H1393 H 0.07923 0.55508 0.15847 0.0
H1394 H 0.04649 0.55632 0.18911 0.0
H1395 H 0.12897 0.57033 0.15643 0.0
H1396 H 0.0801 0.49389 0.15466 0.0
H1397 H 0.06078 0.45673 0.17285 0.0
H1398 H 0.13187 0.43319 0.19414 0.0
H1399 H 0.15159 0.47042 0.17638 0.0
C1400 C 0.18828 0.53287 0.06298 0.0
C1401 C 0.21041 0.52097 0.06622 0.0
C1402 C 0.17064 0.53301 0.08135 0.0
C1403 C 0.175 0.52177 0.10364 0.0
C1404 C 0.19633 0.50836 0.10633 0.0
C1405 C 0.21394 0.5079 0.08767 0.0
C1406 C 0.15796 0.52551 0.12442 0.0
C1407 C 0.14691 0.50493 0.1357 0.0
C1408 C 0.15166 0.54941 0.13227 0.0
C1409 C 0.16409 0.57193 0.12237 0.0
C1410 C 0.18992 0.57503 0.12286 0.0
C1411 C 0.20157 0.59595 0.11293 0.0
C1412 C 0.18758 0.61401 0.10264 0.0
C1413 C 0.16191 0.61124 0.10234 0.0
C1414 C 0.15016 0.59033 0.11221 0.0
C1415 C 0.08905 0.52639 0.22165 0.0
C1416 C 0.06654 0.53696 0.21639 0.0
C1417 C 0.10761 0.52563 0.20416 0.0
C1418 C 0.10405 0.53529 0.18099 0.0
C1419 C 0.08229 0.54736 0.17621 0.0
C1420 C 0.06364 0.54815 0.19375 0.0
C1421 C 0.12238 0.53146 0.16138 0.0
C1422 C 0.1337 0.55205 0.15037 0.0
C1423 C 0.12911 0.50758 0.15397 0.0
C1424 C 0.11729 0.48506 0.1644 0.0
C1425 C 0.0916 0.48088 0.16337 0.0
C1426 C 0.08058 0.45979 0.17358 0.0
C1427 C 0.09508 0.44264 0.1847 0.0
C1428 C 0.12065 0.44651 0.18555 0.0
C1429 C 0.13176 0.46759 0.1754 0.0
H1430 H 0.08652 0.42633 0.1926 0.0
H1431 H 0.19663 0.63018 0.09494 0.0
H1432 H 0.80069 0.93241 0.48641 0.0
H1433 H 0.83084 0.90077 0.48395 0.0
H1434 H 0.86385 0.9282 0.55131 0.0
H1435 H 0.83426 0.96083 0.5532 0.0
H1436 H 0.89844 0.92043 0.5214 0.0
H1437 H 0.82801 0.87137 0.54558 0.0
H1438 H 0.78509 0.85472 0.5439 0.0
H1439 H 0.79729 0.82458 0.4723 0.0
H1440 H 0.84021 0.84132 0.47342 0.0
H1441 H 0.94273 0.78803 0.53195 0.0
H1442 H 0.90939 0.81632 0.53215 0.0
H1443 H 0.94819 0.86116 0.47943 0.0
H1444 H 0.98229 0.83309 0.47979 0.0
H1445 H 0.87755 0.83238 0.50274 0.0
H1446 H 0.93794 0.92163 0.49117 0.0
H1447 H 0.98074 0.93707 0.49863 0.0
H1448 H 0.98808 0.88475 0.55545 0.0
H1449 H 0.94525 0.86925 0.54855 0.0
C1450 C 0.81407 0.93149 0.50097 0.0
C1451 C 0.81497 0.94912 0.52008 0.0
C1452 C 0.83135 0.91327 0.49956 0.0
C1453 C 0.84961 0.9118 0.51755 0.0
C1454 C 0.85004 0.92892 0.53712 0.0
C1455 C 0.83297 0.94746 0.53833 0.0
C1456 C 0.86891 0.8932 0.51527 0.0
C1457 C 0.89379 0.90118 0.51736 0.0
C1458 C 0.86306 0.86794 0.51022 0.0
C1459 C 0.83727 0.85779 0.50951 0.0
C1460 C 0.82149 0.86134 0.52941 0.0
C1461 C 0.79717 0.85186 0.52856 0.0
C1462 C 0.78845 0.83865 0.50798 0.0
C1463 C 0.80406 0.83484 0.48822 0.0
C1464 C 0.8284 0.84429 0.48896 0.0
C1465 C 0.94412 0.80372 0.52011 0.0
C1466 C 0.96533 0.80841 0.50601 0.0
C1467 C 0.92493 0.81991 0.52021 0.0
C1468 C 0.92636 0.84119 0.50618 0.0
C1469 C 0.94684 0.84514 0.49084 0.0
C1470 C 0.96623 0.82896 0.49086 0.0
C1471 C 0.90701 0.85964 0.50879 0.0
C1472 C 0.88214 0.85166 0.50669 0.0
C1473 C 0.91283 0.88472 0.51464 0.0
C1474 C 0.9385 0.8941 0.51913 0.0
C1475 C 0.94868 0.91348 0.5053 0.0
C1476 C 0.97294 0.92224 0.50943 0.0
C1477 C 0.98715 0.91183 0.52744 0.0
C1478 C 0.97709 0.89273 0.54144 0.0
C1479 C 0.95283 0.88394 0.53742 0.0
H1480 H 0.00593 0.91861 0.53058 0.0
H1481 H 0.76961 0.83133 0.50736 0.0
H1482 H 0.95891 0.22622 0.47482 0.0
H1483 H 0.92801 0.19247 0.47245 0.0
H1484 H 0.92707 0.18929 0.55094 0.0
H1485 H 0.95866 0.22296 0.5532 0.0
H1486 H 0.93313 0.14647 0.53461 0.0
H1487 H 0.85693 0.19276 0.51395 0.0
H1488 H 0.82769 0.21713 0.49125 0.0
H1489 H 0.86302 0.19818 0.42404 0.0
H1490 H 0.89164 0.1727 0.44632 0.0
H1491 H 0.8307 0.06113 0.5434 0.0
H1492 H 0.8627 0.09413 0.5446 0.0
H1493 H 0.86512 0.09274 0.46594 0.0
H1494 H 0.83206 0.06051 0.46489 0.0
H1495 H 0.86056 0.13624 0.48025 0.0
H1496 H 0.91489 0.07565 0.50455 0.0
H1497 H 0.92949 0.04121 0.52837 0.0
H1498 H 0.92882 0.08602 0.59361 0.0
H1499 H 0.91388 0.12064 0.57024 0.0
C1500 C 0.95142 0.21895 0.49161 0.0
C1501 C 0.96084 0.22752 0.51423 0.0
C1502 C 0.93358 0.19961 0.49024 0.0
C1503 C 0.92473 0.18833 0.5115 0.0
C1504 C 0.93347 0.19762 0.53422 0.0
C1505 C 0.9515 0.21687 0.53555 0.0
C1506 C 0.90941 0.16483 0.50989 0.0
C1507 C 0.91682 0.14452 0.5232 0.0
C1508 C 0.88877 0.16146 0.49424 0.0
C1509 C 0.87696 0.18163 0.48186 0.0
C1510 C 0.85889 0.19441 0.49441 0.0
C1511 C 0.84201 0.20786 0.48156 0.0
C1512 C 0.84346 0.20916 0.45621 0.0
C1513 C 0.86193 0.19718 0.44367 0.0
C1514 C 0.87845 0.1832 0.4564 0.0
C1515 C 0.83806 0.06803 0.5264 0.0
C1516 C 0.82826 0.05926 0.50404 0.0
C1517 C 0.85675 0.0865 0.52709 0.0
C1518 C 0.86653 0.09599 0.50536 0.0
C1519 C 0.85782 0.08589 0.48298 0.0
C1520 C 0.83893 0.06756 0.48233 0.0
C1521 C 0.88327 0.11844 0.50593 0.0
C1522 C 0.87652 0.13834 0.49207 0.0
C1523 C 0.90398 0.12145 0.52155 0.0
C1524 C 0.91311 0.1007 0.53565 0.0
C1525 C 0.91769 0.07812 0.524 0.0
C1526 C 0.92606 0.05857 0.53742 0.0
C1527 C 0.93004 0.06141 0.56249 0.0
C1528 C 0.92572 0.08384 0.57419 0.0
C1529 C 0.91734 0.10345 0.56085 0.0
H1530 H 0.93651 0.04625 0.57285 0.0
H1531 H 0.8304 0.21962 0.44631 0.0
H1532 H 0.06422 0.82207 0.4852 0.0
H1533 H 0.08882 0.85885 0.47571 0.0
H1534 H 0.11707 0.86231 0.54933 0.0
H1535 H 0.08934 0.82725 0.55965 0.0
H1536 H 0.10662 0.90465 0.53814 0.0
H1537 H 0.17192 0.85734 0.47681 0.0
H1538 H 0.17812 0.83369 0.43856 0.0
H1539 H 0.11209 0.86142 0.40878 0.0
H1540 H 0.10647 0.88634 0.44621 0.0
H1541 H 0.21487 0.97807 0.53881 0.0
H1542 H 0.18088 0.94767 0.54007 0.0
H1543 H 0.16883 0.95612 0.46288 0.0
H1544 H 0.20473 0.98516 0.46142 0.0
H1545 H 0.16533 0.91226 0.46961 0.0
H1546 H 0.12711 0.9759 0.51174 0.0
H1547 H 0.12218 0.00985 0.54148 0.0
H1548 H 0.12898 0.95981 0.60038 0.0
H1549 H 0.13431 0.92561 0.57101 0.0
C1550 C 0.07594 0.83062 0.49927 0.0
C1551 C 0.07519 0.8217 0.52308 0.0
C1552 C 0.09064 0.85145 0.49361 0.0
C1553 C 0.10602 0.86319 0.5113 0.0
C1554 C 0.1056 0.85374 0.53511 0.0
C1555 C 0.08988 0.8336 0.54108 0.0
C1556 C 0.12077 0.88651 0.50618 0.0
C1557 C 0.11964 0.9061 0.52325 0.0
C1558 C 0.1365 0.88977 0.48572 0.0
C1559 C 0.13776 0.87219 0.46498 0.0
C1560 C 0.15837 0.85778 0.46234 0.0
C1561 C 0.16207 0.84459 0.44062 0.0
C1562 C 0.14516 0.84552 0.42151 0.0
C1563 C 0.12488 0.86023 0.42379 0.0
C1564 C 0.12153 0.874 0.44519 0.0
C1565 C 0.20515 0.97315 0.52205 0.0
C1566 C 0.21306 0.98295 0.49981 0.0
C1567 C 0.18522 0.9562 0.52287 0.0
C1568 C 0.17185 0.94958 0.50164 0.0
C1569 C 0.17888 0.96064 0.47955 0.0
C1570 C 0.19932 0.97726 0.47866 0.0
C1571 C 0.15213 0.9296 0.5023 0.0
C1572 C 0.15226 0.91084 0.48448 0.0
C1573 C 0.13463 0.92772 0.52133 0.0
C1574 C 0.13121 0.94819 0.53913 0.0
C1575 C 0.12768 0.97215 0.53103 0.0
C1576 C 0.12481 0.99144 0.54783 0.0
C1577 C 0.12529 0.98699 0.5728 0.0
C1578 C 0.1286 0.96323 0.58103 0.0
C1579 C 0.1315 0.94386 0.56431 0.0
H1580 H 0.12308 1.00196 0.58577 0.0
H1581 H 0.14797 0.83514 0.40481 0.0
H1582 H 0.0497 0.18903 0.48976 0.0
H1583 H 0.08241 0.15968 0.4946 0.0
H1584 H 0.13521 0.21994 0.50806 0.0
H1585 H 0.10256 0.2492 0.50413 0.0
H1586 H 0.14942 0.17645 0.47395 0.0
H1587 H 0.11798 0.19885 0.55458 0.0
H1588 H 0.08428 0.20335 0.58408 0.0
H1589 H 0.06393 0.12646 0.57558 0.0
H1590 H 0.0973 0.12162 0.54571 0.0
H1591 H 0.24957 0.11521 0.51958 0.0
H1592 H 0.21812 0.14569 0.51581 0.0
H1593 H 0.16213 0.09089 0.5354 0.0
H1594 H 0.19366 0.06094 0.54065 0.0
H1595 H 0.14833 0.13139 0.55172 0.0
H1596 H 0.17754 0.10618 0.47363 0.0
H1597 H 0.20817 0.09866 0.4416 0.0
H1598 H 0.22895 0.17574 0.44124 0.0
H1599 H 0.19866 0.18368 0.47352 0.0
C1600 C 0.0684 0.19598 0.49317 0.0
C1601 C 0.07367 0.22134 0.49652 0.0
C1602 C 0.087 0.17924 0.49607 0.0
C1603 C 0.11115 0.18771 0.50179 0.0
C1604 C 0.11669 0.21308 0.50363 0.0
C1605 C 0.09804 0.22974 0.50136 0.0
C1606 C 0.13032 0.17023 0.50765 0.0
C1607 C 0.14939 0.16673 0.49102 0.0
C1608 C 0.12979 0.15707 0.5296 0.0
C1609 C 0.10992 0.15995 0.54771 0.0
C1610 C 0.10616 0.18296 0.55882 0.0
C1611 C 0.08716 0.18556 0.57565 0.0
C1612 C 0.07192 0.16522 0.58165 0.0
C1613 C 0.07571 0.14222 0.57089 0.0
C1614 C 0.09467 0.13953 0.55402 0.0
C1615 C 0.23063 0.10992 0.52376 0.0
C1616 C 0.22408 0.08568 0.53034 0.0
C1617 C 0.21258 0.12725 0.52127 0.0
C1618 C 0.18753 0.12043 0.52444 0.0
C1619 C 0.18122 0.09666 0.53263 0.0
C1620 C 0.19933 0.07952 0.53573 0.0
C1621 C 0.16786 0.13751 0.51805 0.0
C1622 C 0.14856 0.14098 0.53458 0.0
C1623 C 0.16785 0.15015 0.49565 0.0
C1624 C 0.18601 0.14548 0.47616 0.0
C1625 C 0.18875 0.1215 0.46683 0.0
C1626 C 0.20604 0.11717 0.44862 0.0
C1627 C 0.22054 0.1367 0.43944 0.0
C1628 C 0.21773 0.16062 0.4484 0.0
C1629 C 0.2005 0.16506 0.46664 0.0
H1630 H 0.23391 0.13331 0.42534 0.0
H1631 H 0.05722 0.16727 0.59468 0.0
loop_
_geom_bond_atom_site_label_1
_geom_bond_atom_site_label_2
_geom_bond_distance
_geom_bond_site_symmetry_2
_ccdc_geom_bond_type
Mn0 O5 2.095 . S
Mn0 O15 2.162 . S
Mn0 O16 2.297 . S
Mn0 O24 2.385 1_455 S
Mn0 O25 2.209 1_455 S
Mn0 O26 2.094 . S
Mn1 O6 2.121 . S
Mn1 N8 2.257 . S
Mn1 N17 2.282 . S
Mn1 O25 2.215 . S
Mn1 O27 2.117 . S
C2 O24 1.234 . S
C2 O25 1.283 . S
C3 O15 1.281 . S
C3 O16 1.236 . S
C4 O26 1.240 . S
C4 O27 1.264 1_455 S
O5 Mn0 2.095 . S
O5 C14 1.250 . S
O6 Mn1 2.121 . S
O6 C14 1.258 1_655 S
C7 N8 1.326 . S
C7 C11 1.460 . S
C7 H13 0.929 . S
N8 Mn1 2.257 . S
N8 C7 1.326 . S
N8 C12 1.362 . S
C9 C10 1.258 . S
C9 C12 1.431 . S
C9 C29 1.449 . S
C10 C9 1.258 . S
C10 C11 1.477 . S
C10 H30 0.931 . S
C11 C7 1.460 . S
C11 C10 1.477 . S
C11 H31 0.930 . S
C12 N8 1.362 . S
C12 C9 1.431 . S
C12 C22 1.476 . S
H13 C7 0.929 . S
C14 O5 1.250 . S
C14 O6 1.258 1_455 S
O15 Mn0 2.162 . S
O15 C3 1.281 . S
O16 Mn0 2.297 . S
O16 C3 1.236 . S
N17 Mn1 2.282 . S
N17 C18 1.328 . S
N17 C22 1.318 . S
C18 N17 1.328 . S
C18 C19 1.457 . S
C18 H23 0.929 . S
C19 C18 1.457 . S
C19 C20 1.291 . S
C19 H32 0.931 . S
C20 C19 1.291 . S
C20 C21 1.373 . S
C20 H33 0.929 . S
C21 C20 1.373 . S
C21 C22 1.396 . S
C21 C28 1.403 . S
C22 C12 1.476 . S
C22 N17 1.318 . S
C22 C21 1.396 . S
H23 C18 0.929 . S
O24 Mn0 2.385 1_655 S
O24 C2 1.234 . S
O25 Mn0 2.209 1_655 S
O25 Mn1 2.215 . S
O25 C2 1.283 . S
O26 Mn0 2.094 . S
O26 C4 1.240 . S
O27 Mn1 2.117 . S
O27 C4 1.264 1_655 S
C28 C21 1.403 . S
C28 C29 1.399 . S
C28 H34 0.929 . S
C29 C9 1.449 . S
C29 C28 1.399 . S
C29 H35 0.930 . S
H30 C10 0.931 . S
H31 C11 0.930 . S
H32 C19 0.931 . S
H33 C20 0.929 . S
H34 C28 0.929 . S
H35 C29 0.930 . S
Mn36 O41 2.095 . S
Mn36 O51 2.162 1_545 S
Mn36 O52 2.297 1_545 S
Mn36 O60 2.385 . S
Mn36 O61 2.209 . S
Mn36 O62 2.094 . S
Mn37 O42 2.121 . S
Mn37 N44 2.257 . S
Mn37 N53 2.282 . S
Mn37 O61 2.215 . S
Mn37 O63 2.117 . S
C38 O60 1.234 . S
C38 O61 1.283 . S
C39 O51 1.281 . S
C39 O52 1.236 . S
C40 O62 1.240 . S
C40 O63 1.264 . S
O41 Mn36 2.095 . S
O41 C50 1.250 . S
O42 Mn37 2.121 . S
O42 C50 1.258 . S
C43 N44 1.326 . S
C43 C47 1.460 . S
C43 H49 0.929 . S
N44 Mn37 2.257 . S
N44 C43 1.326 . S
N44 C48 1.362 . S
C45 C46 1.258 . S
C45 C48 1.431 . S
C45 C65 1.449 . S
C46 C45 1.258 . S
C46 C47 1.477 . S
C46 H66 0.931 . S
C47 C43 1.460 . S
C47 C46 1.477 . S
C47 H67 0.930 . S
C48 N44 1.362 . S
C48 C45 1.431 . S
C48 C58 1.476 . S
H49 C43 0.929 . S
C50 O41 1.250 . S
C50 O42 1.258 . S
O51 Mn36 2.162 1_565 S
O51 C39 1.281 . S
O52 Mn36 2.297 1_565 S
O52 C39 1.236 . S
N53 Mn37 2.282 . S
N53 C54 1.328 . S
N53 C58 1.318 . S
C54 N53 1.328 . S
C54 C55 1.457 . S
C54 H59 0.929 . S
C55 C54 1.457 . S
C55 C56 1.291 . S
C55 H68 0.931 . S
C56 C55 1.291 . S
C56 C57 1.373 . S
C56 H69 0.929 . S
C57 C56 1.373 . S
C57 C58 1.396 . S
C57 C64 1.403 . S
C58 C48 1.476 . S
C58 N53 1.318 . S
C58 C57 1.396 . S
H59 C54 0.929 . S
O60 Mn36 2.385 . S
O60 C38 1.234 . S
O61 Mn36 2.209 . S
O61 Mn37 2.215 . S
O61 C38 1.283 . S
O62 Mn36 2.094 . S
O62 C40 1.240 . S
O63 Mn37 2.117 . S
O63 C40 1.264 . S
C64 C57 1.403 . S
C64 C65 1.399 . S
C64 H70 0.929 . S
C65 C45 1.449 . S
C65 C64 1.399 . S
C65 H71 0.930 . S
H66 C46 0.931 . S
H67 C47 0.930 . S
H68 C55 0.931 . S
H69 C56 0.929 . S
H70 C64 0.929 . S
H71 C65 0.930 . S
Mn72 O77 2.095 . S
Mn72 O87 2.162 1_455 S
Mn72 O88 2.297 1_455 S
Mn72 O96 2.385 . S
Mn72 O97 2.209 . S
Mn72 O98 2.094 . S
Mn73 O78 2.121 . S
Mn73 N80 2.257 . S
Mn73 N89 2.282 . S
Mn73 O97 2.215 . S
Mn73 O99 2.117 . S
C74 O96 1.234 . S
C74 O97 1.283 . S
C75 O87 1.281 . S
C75 O88 1.236 . S
C76 O98 1.240 . S
C76 O99 1.264 . S
O77 Mn72 2.095 . S
O77 C86 1.250 . S
O78 Mn73 2.121 . S
O78 C86 1.258 . S
C79 N80 1.326 . S
C79 C83 1.460 . S
C79 H85 0.929 . S
N80 Mn73 2.257 . S
N80 C79 1.326 . S
N80 C84 1.362 . S
C81 C82 1.258 . S
C81 C84 1.431 . S
C81 C101 1.449 . S
C82 C81 1.258 . S
C82 C83 1.477 . S
C82 H102 0.931 . S
C83 C79 1.460 . S
C83 C82 1.477 . S
C83 H103 0.930 . S
C84 N80 1.362 . S
C84 C81 1.431 . S
C84 C94 1.476 . S
H85 C79 0.929 . S
C86 O77 1.250 . S
C86 O78 1.258 . S
O87 Mn72 2.162 1_655 S
O87 C75 1.281 . S
O88 Mn72 2.297 1_655 S
O88 C75 1.236 . S
N89 Mn73 2.282 . S
N89 C90 1.328 . S
N89 C94 1.318 . S
C90 N89 1.328 . S
C90 C91 1.457 . S
C90 H95 0.929 . S
C91 C90 1.457 . S
C91 C92 1.291 . S
C91 H104 0.931 . S
C92 C91 1.291 . S
C92 C93 1.373 . S
C92 H105 0.929 . S
C93 C92 1.373 . S
C93 C94 1.396 . S
C93 C100 1.403 . S
C94 C84 1.476 . S
C94 N89 1.318 . S
C94 C93 1.396 . S
H95 C90 0.929 . S
O96 Mn72 2.385 . S
O96 C74 1.234 . S
O97 Mn72 2.209 . S
O97 Mn73 2.215 . S
O97 C74 1.283 . S
O98 Mn72 2.094 . S
O98 C76 1.240 . S
O99 Mn73 2.117 . S
O99 C76 1.264 . S
C100 C93 1.403 . S
C100 C101 1.399 . S
C100 H106 0.929 . S
C101 C81 1.449 . S
C101 C100 1.399 . S
C101 H107 0.930 . S
H102 C82 0.931 . S
H103 C83 0.930 . S
H104 C91 0.931 . S
H105 C92 0.929 . S
H106 C100 0.929 . S
H107 C101 0.930 . S
Mn108 O113 2.095 . S
Mn108 O123 2.162 . S
Mn108 O124 2.297 . S
Mn108 O132 2.385 1_545 S
Mn108 O133 2.209 1_545 S
Mn108 O134 2.094 . S
Mn109 O114 2.121 . S
Mn109 N116 2.257 . S
Mn109 N125 2.282 . S
Mn109 O133 2.215 . S
Mn109 O135 2.117 . S
C110 O132 1.234 . S
C110 O133 1.283 . S
C111 O123 1.281 . S
C111 O124 1.236 . S
C112 O134 1.240 . S
C112 O135 1.264 1_545 S
O113 Mn108 2.095 . S
O113 C122 1.250 . S
O114 Mn109 2.121 . S
O114 C122 1.258 1_565 S
C115 N116 1.326 . S
C115 C119 1.460 . S
C115 H121 0.929 . S
N116 Mn109 2.257 . S
N116 C115 1.326 . S
N116 C120 1.362 . S
C117 C118 1.258 . S
C117 C120 1.431 . S
C117 C137 1.449 . S
C118 C117 1.258 . S
C118 C119 1.477 . S
C118 H138 0.931 . S
C119 C115 1.460 . S
C119 C118 1.477 . S
C119 H139 0.930 . S
C120 N116 1.362 . S
C120 C117 1.431 . S
C120 C130 1.476 . S
H121 C115 0.929 . S
C122 O113 1.250 . S
C122 O114 1.258 1_545 S
O123 Mn108 2.162 . S
O123 C111 1.281 . S
O124 Mn108 2.297 . S
O124 C111 1.236 . S
N125 Mn109 2.282 . S
N125 C126 1.328 . S
N125 C130 1.318 . S
C126 N125 1.328 . S
C126 C127 1.457 . S
C126 H131 0.929 . S
C127 C126 1.457 . S
C127 C128 1.291 . S
C127 H140 0.931 . S
C128 C127 1.291 . S
C128 C129 1.373 . S
C128 H141 0.929 . S
C129 C128 1.373 . S
C129 C130 1.396 . S
C129 C136 1.403 . S
C130 C120 1.476 . S
C130 N125 1.318 . S
C130 C129 1.396 . S
H131 C126 0.929 . S
O132 Mn108 2.385 1_565 S
O132 C110 1.234 . S
O133 Mn108 2.209 1_565 S
O133 Mn109 2.215 . S
O133 C110 1.283 . S
O134 Mn108 2.094 . S
O134 C112 1.240 . S
O135 Mn109 2.117 . S
O135 C112 1.264 1_565 S
C136 C129 1.403 . S
C136 C137 1.399 . S
C136 H142 0.929 . S
C137 C117 1.449 . S
C137 C136 1.399 . S
C137 H143 0.930 . S
H138 C118 0.931 . S
H139 C119 0.930 . S
H140 C127 0.931 . S
H141 C128 0.929 . S
H142 C136 0.929 . S
H143 C137 0.930 . S
Mn144 O149 2.095 . S
Mn144 O159 2.162 . S
Mn144 O160 2.297 . S
Mn144 O168 2.385 . S
Mn144 O169 2.209 1_545 S
Mn144 O170 2.094 . S
Mn145 O150 2.121 . S
Mn145 N152 2.257 . S
Mn145 N161 2.282 . S
Mn145 O169 2.215 . S
Mn145 O171 2.117 . S
C146 O168 1.234 1_565 S
C146 O169 1.283 . S
C147 O159 1.281 . S
C147 O160 1.236 . S
C148 O170 1.240 . S
C148 O171 1.264 1_545 S
O149 Mn144 2.095 . S
O149 C158 1.250 . S
O150 Mn145 2.121 . S
O150 C158 1.258 1_565 S
C151 N152 1.326 . S
C151 C155 1.460 . S
C151 H157 0.929 . S
N152 Mn145 2.257 . S
N152 C151 1.326 . S
N152 C156 1.362 . S
C153 C154 1.258 . S
C153 C156 1.431 . S
C153 C173 1.449 . S
C154 C153 1.258 . S
C154 C155 1.477 . S
C154 H174 0.931 . S
C155 C151 1.460 . S
C155 C154 1.477 . S
C155 H175 0.930 . S
C156 N152 1.362 . S
C156 C153 1.431 . S
C156 C166 1.476 . S
H157 C151 0.929 . S
C158 O149 1.250 . S
C158 O150 1.258 1_545 S
O159 Mn144 2.162 . S
O159 C147 1.281 . S
O160 Mn144 2.297 . S
O160 C147 1.236 . S
N161 Mn145 2.282 . S
N161 C162 1.328 . S
N161 C166 1.318 . S
C162 N161 1.328 . S
C162 C163 1.457 . S
C162 H167 0.929 . S
C163 C162 1.457 . S
C163 C164 1.291 . S
C163 H176 0.931 . S
C164 C163 1.291 . S
C164 C165 1.373 . S
C164 H177 0.929 . S
C165 C164 1.373 . S
C165 C166 1.396 . S
C165 C172 1.403 . S
C166 C156 1.476 . S
C166 N161 1.318 . S
C166 C165 1.396 . S
H167 C162 0.929 . S
O168 Mn144 2.385 . S
O168 C146 1.234 1_545 S
O169 Mn144 2.209 1_565 S
O169 Mn145 2.215 . S
O169 C146 1.283 . S
O170 Mn144 2.094 . S
O170 C148 1.240 . S
O171 Mn145 2.117 . S
O171 C148 1.264 1_565 S
C172 C165 1.403 . S
C172 C173 1.399 . S
C172 H178 0.929 . S
C173 C153 1.449 . S
C173 C172 1.399 . S
C173 H179 0.930 . S
H174 C154 0.931 . S
H175 C155 0.930 . S
H176 C163 0.931 . S
H177 C164 0.929 . S
H178 C172 0.929 . S
H179 C173 0.930 . S
Mn180 O185 2.095 . S
Mn180 O195 2.162 . S
Mn180 O196 2.297 . S
Mn180 O204 2.385 1_455 S
Mn180 O205 2.209 1_455 S
Mn180 O206 2.094 . S
Mn181 O186 2.121 . S
Mn181 N188 2.257 . S
Mn181 N197 2.282 . S
Mn181 O205 2.215 . S
Mn181 O207 2.117 . S
C182 O204 1.234 . S
C182 O205 1.283 . S
C183 O195 1.281 . S
C183 O196 1.236 . S
C184 O206 1.240 . S
C184 O207 1.264 1_455 S
O185 Mn180 2.095 . S
O185 C194 1.250 . S
O186 Mn181 2.121 . S
O186 C194 1.258 1_655 S
C187 N188 1.326 . S
C187 C191 1.460 . S
C187 H193 0.929 . S
N188 Mn181 2.257 . S
N188 C187 1.326 . S
N188 C192 1.362 . S
C189 C190 1.258 . S
C189 C192 1.431 . S
C189 C209 1.449 . S
C190 C189 1.258 . S
C190 C191 1.477 . S
C190 H210 0.931 . S
C191 C187 1.460 . S
C191 C190 1.477 . S
C191 H211 0.930 . S
C192 N188 1.362 . S
C192 C189 1.431 . S
C192 C202 1.476 . S
H193 C187 0.929 . S
C194 O185 1.250 . S
C194 O186 1.258 1_455 S
O195 Mn180 2.162 . S
O195 C183 1.281 . S
O196 Mn180 2.297 . S
O196 C183 1.236 . S
N197 Mn181 2.282 . S
N197 C198 1.328 . S
N197 C202 1.318 . S
C198 N197 1.328 . S
C198 C199 1.457 . S
C198 H203 0.929 . S
C199 C198 1.457 . S
C199 C200 1.291 . S
C199 H212 0.931 . S
C200 C199 1.291 . S
C200 C201 1.373 . S
C200 H213 0.929 . S
C201 C200 1.373 . S
C201 C202 1.396 . S
C201 C208 1.403 . S
C202 C192 1.476 . S
C202 N197 1.318 . S
C202 C201 1.396 . S
H203 C198 0.929 . S
O204 Mn180 2.385 1_655 S
O204 C182 1.234 . S
O205 Mn180 2.209 1_655 S
O205 Mn181 2.215 . S
O205 C182 1.283 . S
O206 Mn180 2.094 . S
O206 C184 1.240 . S
O207 Mn181 2.117 . S
O207 C184 1.264 1_655 S
C208 C201 1.403 . S
C208 C209 1.399 . S
C208 H214 0.929 . S
C209 C189 1.449 . S
C209 C208 1.399 . S
C209 H215 0.930 . S
H210 C190 0.931 . S
H211 C191 0.930 . S
H212 C199 0.931 . S
H213 C200 0.929 . S
H214 C208 0.929 . S
H215 C209 0.930 . S
Mn216 O221 2.095 . S
Mn216 O231 2.162 . S
Mn216 O232 2.297 . S
Mn216 O240 2.385 1_545 S
Mn216 O241 2.209 . S
Mn216 O242 2.094 1_545 S
Mn217 O222 2.121 . S
Mn217 N224 2.257 . S
Mn217 N233 2.282 1_545 S
Mn217 O241 2.215 . S
Mn217 O243 2.117 1_545 S
C218 O240 1.234 1_545 S
C218 O241 1.283 . S
C219 O231 1.281 . S
C219 O232 1.236 . S
C220 O242 1.240 . S
C220 O243 1.264 . S
O221 Mn216 2.095 . S
O221 C230 1.250 . S
O222 Mn217 2.121 . S
O222 C230 1.258 . S
C223 N224 1.326 . S
C223 C227 1.460 . S
C223 H229 0.929 . S
N224 Mn217 2.257 . S
N224 C223 1.326 . S
N224 C228 1.362 . S
C225 C226 1.258 . S
C225 C228 1.431 . S
C225 C245 1.449 . S
C226 C225 1.258 . S
C226 C227 1.477 . S
C226 H246 0.931 . S
C227 C223 1.460 . S
C227 C226 1.477 . S
C227 H247 0.930 . S
C228 N224 1.362 . S
C228 C225 1.431 . S
C228 C238 1.476 . S
H229 C223 0.929 . S
C230 O221 1.250 . S
C230 O222 1.258 . S
O231 Mn216 2.162 . S
O231 C219 1.281 . S
O232 Mn216 2.297 . S
O232 C219 1.236 . S
N233 Mn217 2.282 1_565 S
N233 C234 1.328 . S
N233 C238 1.318 1_565 S
C234 N233 1.328 . S
C234 C235 1.457 . S
C234 H239 0.929 . S
C235 C234 1.457 . S
C235 C236 1.291 . S
C235 H248 0.931 . S
C236 C235 1.291 . S
C236 C237 1.373 . S
C236 H249 0.929 . S
C237 C236 1.373 . S
C237 C238 1.396 1_565 S
C237 C244 1.403 1_565 S
C238 C228 1.476 . S
C238 N233 1.318 1_545 S
C238 C237 1.396 1_545 S
H239 C234 0.929 . S
O240 Mn216 2.385 1_565 S
O240 C218 1.234 1_565 S
O241 Mn216 2.209 . S
O241 Mn217 2.215 . S
O241 C218 1.283 . S
O242 Mn216 2.094 1_565 S
O242 C220 1.240 . S
O243 Mn217 2.117 1_565 S
O243 C220 1.264 . S
C244 C237 1.403 1_545 S
C244 C245 1.399 . S
C244 H250 0.929 1_545 S
C245 C225 1.449 . S
C245 C244 1.399 . S
C245 H251 0.930 . S
H246 C226 0.931 . S
H247 C227 0.930 . S
H248 C235 0.931 . S
H249 C236 0.929 . S
H250 C244 0.929 1_565 S
H251 C245 0.930 . S
Mn252 O257 2.095 1_455 S
Mn252 O267 2.162 . S
Mn252 O268 2.297 1_455 S
Mn252 O276 2.385 . S
Mn252 O277 2.209 . S
Mn252 O278 2.094 . S
Mn253 O258 2.121 1_455 S
Mn253 N260 2.257 1_455 S
Mn253 N269 2.282 . S
Mn253 O277 2.215 . S
Mn253 O279 2.117 . S
C254 O276 1.234 . S
C254 O277 1.283 . S
C255 O267 1.281 . S
C255 O268 1.236 1_455 S
C256 O278 1.240 . S
C256 O279 1.264 . S
O257 Mn252 2.095 1_655 S
O257 C266 1.250 . S
O258 Mn253 2.121 1_655 S
O258 C266 1.258 . S
C259 N260 1.326 . S
C259 C263 1.460 . S
C259 H265 0.929 . S
N260 Mn253 2.257 1_655 S
N260 C259 1.326 . S
N260 C264 1.362 . S
C261 C262 1.258 . S
C261 C264 1.431 . S
C261 C281 1.449 . S
C262 C261 1.258 . S
C262 C263 1.477 . S
C262 H282 0.931 . S
C263 C259 1.460 . S
C263 C262 1.477 . S
C263 H283 0.930 . S
C264 N260 1.362 . S
C264 C261 1.431 . S
C264 C274 1.476 1_655 S
H265 C259 0.929 . S
C266 O257 1.250 . S
C266 O258 1.258 . S
O267 Mn252 2.162 . S
O267 C255 1.281 . S
O268 Mn252 2.297 1_655 S
O268 C255 1.236 1_655 S
N269 Mn253 2.282 . S
N269 C270 1.328 . S
N269 C274 1.318 . S
C270 N269 1.328 . S
C270 C271 1.457 . S
C270 H275 0.929 . S
C271 C270 1.457 . S
C271 C272 1.291 . S
C271 H284 0.931 . S
C272 C271 1.291 . S
C272 C273 1.373 . S
C272 H285 0.929 . S
C273 C272 1.373 . S
C273 C274 1.396 . S
C273 C280 1.403 . S
C274 C264 1.476 1_455 S
C274 N269 1.318 . S
C274 C273 1.396 . S
H275 C270 0.929 . S
O276 Mn252 2.385 . S
O276 C254 1.234 . S
O277 Mn252 2.209 . S
O277 Mn253 2.215 . S
O277 C254 1.283 . S
O278 Mn252 2.094 . S
O278 C256 1.240 . S
O279 Mn253 2.117 . S
O279 C256 1.264 . S
C280 C273 1.403 . S
C280 C281 1.399 1_455 S
C280 H286 0.929 . S
C281 C261 1.449 . S
C281 C280 1.399 1_655 S
C281 H287 0.930 . S
H282 C262 0.931 . S
H283 C263 0.930 . S
H284 C271 0.931 . S
H285 C272 0.929 . S
H286 C280 0.929 . S
H287 C281 0.930 . S
Mn288 O293 2.095 . S
Mn288 O303 2.162 1_554 S
Mn288 O304 2.297 . S
Mn288 O312 2.385 1_554 S
Mn288 O313 2.209 . S
Mn288 O314 2.094 1_554 S
Mn289 O294 2.121 . S
Mn289 N296 2.257 . S
Mn289 N305 2.282 1_554 S
Mn289 O313 2.215 . S
Mn289 O315 2.117 1_554 S
C290 O312 1.234 1_554 S
C290 O313 1.283 . S
C291 O303 1.281 1_554 S
C291 O304 1.236 . S
C292 O314 1.240 . S
C292 O315 1.264 . S
O293 Mn288 2.095 . S
O293 C302 1.250 . S
O294 Mn289 2.121 . S
O294 C302 1.258 . S
C295 N296 1.326 . S
C295 C299 1.460 . S
C295 H301 0.929 . S
N296 Mn289 2.257 . S
N296 C295 1.326 . S
N296 C300 1.362 . S
C297 C298 1.258 . S
C297 C300 1.431 . S
C297 C317 1.449 . S
C298 C297 1.258 . S
C298 C299 1.477 . S
C298 H318 0.931 . S
C299 C295 1.460 . S
C299 C298 1.477 . S
C299 H319 0.930 . S
C300 N296 1.362 . S
C300 C297 1.431 . S
C300 C310 1.476 . S
H301 C295 0.929 . S
C302 O293 1.250 . S
C302 O294 1.258 . S
O303 Mn288 2.162 1_556 S
O303 C291 1.281 1_556 S
O304 Mn288 2.297 . S
O304 C291 1.236 . S
N305 Mn289 2.282 1_556 S
N305 C306 1.328 . S
N305 C310 1.318 1_556 S
C306 N305 1.328 . S
C306 C307 1.457 . S
C306 H311 0.929 . S
C307 C306 1.457 . S
C307 C308 1.291 . S
C307 H320 0.931 . S
C308 C307 1.291 . S
C308 C309 1.373 . S
C308 H321 0.929 . S
C309 C308 1.373 . S
C309 C310 1.396 1_556 S
C309 C316 1.403 1_556 S
C310 C300 1.476 . S
C310 N305 1.318 1_554 S
C310 C309 1.396 1_554 S
H311 C306 0.929 . S
O312 Mn288 2.385 1_556 S
O312 C290 1.234 1_556 S
O313 Mn288 2.209 . S
O313 Mn289 2.215 . S
O313 C290 1.283 . S
O314 Mn288 2.094 1_556 S
O314 C292 1.240 . S
O315 Mn289 2.117 1_556 S
O315 C292 1.264 . S
C316 C309 1.403 1_554 S
C316 C317 1.399 . S
C316 H322 0.929 . S
C317 C297 1.449 . S
C317 C316 1.399 . S
C317 H323 0.930 . S
H318 C298 0.931 . S
H319 C299 0.930 . S
H320 C307 0.931 . S
H321 C308 0.929 . S
H322 C316 0.929 . S
H323 C317 0.930 . S
Mn324 O329 2.095 1_554 S
Mn324 O339 2.162 . S
Mn324 O340 2.297 1_554 S
Mn324 O348 2.385 . S
Mn324 O349 2.204 1_554 S
Mn324 O350 2.094 . S
Mn325 O330 2.119 1_554 S
Mn325 N332 2.255 1_554 S
Mn325 N341 2.284 . S
Mn325 O349 2.214 1_554 S
Mn325 O351 2.120 . S
C326 O348 1.234 . S
C326 O349 1.275 1_554 S
C327 O339 1.246 1_556 S
C327 O340 1.261 . S
C328 O350 1.240 . S
C328 O351 1.264 . S
O329 Mn324 2.095 1_556 S
O329 C338 1.250 . S
O330 Mn325 2.119 1_556 S
O330 C338 1.258 . S
C331 N332 1.326 . S
C331 C335 1.460 . S
C331 H337 0.929 . S
N332 Mn325 2.255 1_556 S
N332 C331 1.326 . S
N332 C336 1.362 . S
C333 C334 1.258 . S
C333 C336 1.431 . S
C333 C353 1.449 . S
C334 C333 1.258 . S
C334 C335 1.477 . S
C334 H354 0.931 . S
C335 C331 1.460 . S
C335 C334 1.477 . S
C335 H355 0.930 . S
C336 N332 1.362 . S
C336 C333 1.431 . S
C336 C346 1.476 1_556 S
H337 C331 0.929 . S
C338 O329 1.250 . S
C338 O330 1.258 . S
O339 Mn324 2.162 . S
O339 C327 1.246 1_554 S
O340 Mn324 2.297 1_556 S
O340 C327 1.261 . S
N341 Mn325 2.284 . S
N341 C342 1.328 . S
N341 C346 1.318 . S
C342 N341 1.328 . S
C342 C343 1.457 . S
C342 H347 0.929 . S
C343 C342 1.457 . S
C343 C344 1.291 . S
C343 H356 0.931 . S
C344 C343 1.291 . S
C344 C345 1.373 . S
C344 H357 0.929 . S
C345 C344 1.373 . S
C345 C346 1.396 . S
C345 C352 1.403 . S
C346 C336 1.476 1_554 S
C346 N341 1.318 . S
C346 C345 1.396 . S
H347 C342 0.929 . S
O348 Mn324 2.385 . S
O348 C326 1.234 . S
O349 Mn324 2.204 1_556 S
O349 Mn325 2.214 1_556 S
O349 C326 1.275 1_556 S
O350 Mn324 2.094 . S
O350 C328 1.240 . S
O351 Mn325 2.120 . S
O351 C328 1.264 . S
C352 C345 1.403 . S
C352 C353 1.399 1_554 S
C352 H358 0.929 . S
C353 C333 1.449 . S
C353 C352 1.399 1_556 S
C353 H359 0.930 . S
H354 C334 0.931 . S
H355 C335 0.930 . S
H356 C343 0.931 . S
H357 C344 0.929 . S
H358 C352 0.929 . S
H359 C353 0.930 . S
Mn360 O365 2.095 . S
Mn360 O375 2.162 . S
Mn360 O376 2.297 . S
Mn360 O384 2.385 1_554 S
Mn360 O385 2.209 . S
Mn360 O386 2.094 1_554 S
Mn361 O366 2.121 . S
Mn361 N368 2.257 . S
Mn361 N377 2.282 1_554 S
Mn361 O385 2.215 . S
Mn361 O387 2.117 1_554 S
C362 O384 1.234 1_554 S
C362 O385 1.283 . S
C363 O375 1.281 . S
C363 O376 1.236 . S
C364 O386 1.240 . S
C364 O387 1.264 . S
O365 Mn360 2.095 . S
O365 C374 1.250 . S
O366 Mn361 2.121 . S
O366 C374 1.258 . S
C367 N368 1.326 . S
C367 C371 1.460 . S
C367 H373 0.929 . S
N368 Mn361 2.257 . S
N368 C367 1.326 . S
N368 C372 1.362 . S
C369 C370 1.258 . S
C369 C372 1.431 . S
C369 C389 1.449 . S
C370 C369 1.258 . S
C370 C371 1.477 . S
C370 H390 0.931 . S
C371 C367 1.460 . S
C371 C370 1.477 . S
C371 H391 0.930 . S
C372 N368 1.362 . S
C372 C369 1.431 . S
C372 C382 1.476 . S
H373 C367 0.929 . S
C374 O365 1.250 . S
C374 O366 1.258 . S
O375 Mn360 2.162 . S
O375 C363 1.281 . S
O376 Mn360 2.297 . S
O376 C363 1.236 . S
N377 Mn361 2.282 1_556 S
N377 C378 1.328 . S
N377 C382 1.318 1_556 S
C378 N377 1.328 . S
C378 C379 1.457 . S
C378 H383 0.929 . S
C379 C378 1.457 . S
C379 C380 1.291 . S
C379 H392 0.931 . S
C380 C379 1.291 . S
C380 C381 1.373 . S
C380 H393 0.929 . S
C381 C380 1.373 . S
C381 C382 1.396 1_556 S
C381 C388 1.403 1_556 S
C382 C372 1.476 . S
C382 N377 1.318 1_554 S
C382 C381 1.396 1_554 S
H383 C378 0.929 . S
O384 Mn360 2.385 1_556 S
O384 C362 1.234 1_556 S
O385 Mn360 2.209 . S
O385 Mn361 2.215 . S
O385 C362 1.283 . S
O386 Mn360 2.094 1_556 S
O386 C364 1.240 . S
O387 Mn361 2.117 1_556 S
O387 C364 1.264 . S
C388 C381 1.403 1_554 S
C388 C389 1.399 . S
C388 H394 0.929 1_554 S
C389 C369 1.449 . S
C389 C388 1.399 . S
C389 H395 0.930 . S
H390 C370 0.931 . S
H391 C371 0.930 . S
H392 C379 0.931 . S
H393 C380 0.929 . S
H394 C388 0.929 1_556 S
H395 C389 0.930 . S
Mn396 O401 2.095 1_554 S
Mn396 O411 2.162 . S
Mn396 O412 2.297 1_554 S
Mn396 O420 2.385 . S
Mn396 O421 2.209 . S
Mn396 O422 2.094 . S
Mn397 O402 2.121 1_554 S
Mn397 N404 2.257 1_554 S
Mn397 N413 2.282 . S
Mn397 O421 2.215 . S
Mn397 O423 2.117 . S
C398 O420 1.234 . S
C398 O421 1.283 . S
C399 O411 1.281 . S
C399 O412 1.236 1_554 S
C400 O422 1.240 . S
C400 O423 1.264 . S
O401 Mn396 2.095 1_556 S
O401 C410 1.250 . S
O402 Mn397 2.121 1_556 S
O402 C410 1.258 . S
C403 N404 1.326 . S
C403 C407 1.460 . S
C403 H409 0.929 . S
N404 Mn397 2.257 1_556 S
N404 C403 1.326 . S
N404 C408 1.362 . S
C405 C406 1.258 . S
C405 C408 1.431 . S
C405 C425 1.449 . S
C406 C405 1.258 . S
C406 C407 1.477 . S
C406 H426 0.931 . S
C407 C403 1.460 . S
C407 C406 1.477 . S
C407 H427 0.930 . S
C408 N404 1.362 . S
C408 C405 1.431 . S
C408 C418 1.476 1_556 S
H409 C403 0.929 . S
C410 O401 1.250 . S
C410 O402 1.258 . S
O411 Mn396 2.162 . S
O411 C399 1.281 . S
O412 Mn396 2.297 1_556 S
O412 C399 1.236 1_556 S
N413 Mn397 2.282 . S
N413 C414 1.328 . S
N413 C418 1.318 . S
C414 N413 1.328 . S
C414 C415 1.457 . S
C414 H419 0.929 . S
C415 C414 1.457 . S
C415 C416 1.291 . S
C415 H428 0.931 . S
C416 C415 1.291 . S
C416 C417 1.373 . S
C416 H429 0.929 . S
C417 C416 1.373 . S
C417 C418 1.396 . S
C417 C424 1.403 . S
C418 C408 1.476 1_554 S
C418 N413 1.318 . S
C418 C417 1.396 . S
H419 C414 0.929 . S
O420 Mn396 2.385 . S
O420 C398 1.234 . S
O421 Mn396 2.209 . S
O421 Mn397 2.215 . S
O421 C398 1.283 . S
O422 Mn396 2.094 . S
O422 C400 1.240 . S
O423 Mn397 2.117 . S
O423 C400 1.264 . S
C424 C417 1.403 . S
C424 C425 1.399 1_554 S
C424 H430 0.929 . S
C425 C405 1.449 . S
C425 C424 1.399 1_556 S
C425 H431 0.930 . S
H426 C406 0.931 . S
H427 C407 0.930 . S
H428 C415 0.931 . S
H429 C416 0.929 . S
H430 C424 0.929 . S
H431 C425 0.930 . S
H432 C450 0.951 . S
H433 C452 0.951 . S
H434 C454 0.950 . S
H435 C455 0.950 . S
H436 C457 0.950 . S
H437 C460 0.950 1_655 S
H438 C461 0.950 1_655 S
H439 C463 0.950 . S
H440 C464 0.950 . S
H441 C465 0.951 . S
H442 C467 0.951 . S
H443 C469 0.950 . S
H444 C470 0.950 . S
H445 C472 0.950 . S
H446 C475 0.950 . S
H447 C476 0.950 . S
H448 C478 0.950 . S
H449 C479 0.950 . S
C450 H432 0.951 . S
C450 C451 1.366 . S
C450 C452 1.388 . S
C451 C450 1.366 . S
C451 C455 1.385 1_455 S
C452 H433 0.951 . S
C452 C450 1.388 . S
C452 C453 1.366 . S
C453 C452 1.366 . S
C453 C454 1.414 1_455 S
C453 C456 1.499 . S
C454 H434 0.950 . S
C454 C453 1.414 1_655 S
C454 C455 1.374 . S
C455 H435 0.950 . S
C455 C451 1.385 1_655 S
C455 C454 1.374 . S
C456 C453 1.499 . S
C456 C457 1.373 . S
C456 C458 1.389 . S
C457 H436 0.950 . S
C457 C456 1.373 . S
C457 C473 1.377 . S
C458 C456 1.389 . S
C458 C459 1.524 . S
C458 C472 1.377 . S
C459 C458 1.524 . S
C459 C460 1.397 . S
C459 C464 1.363 . S
C460 H437 0.950 1_455 S
C460 C459 1.397 . S
C460 C461 1.334 . S
C461 H438 0.950 1_455 S
C461 C460 1.334 . S
C461 C462 1.287 . S
C462 C461 1.287 . S
C462 C463 1.524 . S
C462 H481 0.913 . S
C463 H439 0.950 . S
C463 C462 1.524 . S
C463 C464 1.415 . S
C464 H440 0.950 . S
C464 C459 1.363 . S
C464 C463 1.415 . S
C465 H441 0.951 . S
C465 C466 1.366 1_655 S
C465 C467 1.388 . S
C466 C465 1.366 1_455 S
C466 C470 1.385 . S
C467 H442 0.951 . S
C467 C465 1.388 . S
C467 C468 1.366 1_655 S
C468 C467 1.366 1_455 S
C468 C469 1.414 . S
C468 C471 1.499 . S
C469 H443 0.950 . S
C469 C468 1.414 . S
C469 C470 1.374 . S
C470 H444 0.950 . S
C470 C466 1.385 . S
C470 C469 1.374 . S
C471 C468 1.499 . S
C471 C472 1.373 . S
C471 C473 1.389 . S
C472 H445 0.950 . S
C472 C458 1.377 . S
C472 C471 1.373 . S
C473 C457 1.377 . S
C473 C471 1.389 . S
C473 C474 1.524 . S
C474 C473 1.524 . S
C474 C475 1.397 . S
C474 C479 1.363 1_455 S
C475 H446 0.950 . S
C475 C474 1.397 . S
C475 C476 1.334 . S
C476 H447 0.950 . S
C476 C475 1.334 . S
C476 C477 1.287 . S
C477 C476 1.287 . S
C477 C478 1.524 1_455 S
C477 H480 0.999 . S
C478 H448 0.950 . S
C478 C477 1.524 1_655 S
C478 C479 1.415 . S
C479 H449 0.950 . S
C479 C474 1.363 1_655 S
C479 C478 1.415 . S
H480 C477 0.999 . S
H481 C462 0.913 . S
H482 C500 0.951 . S
H483 C502 0.951 . S
H484 C504 0.950 . S
H485 C505 0.950 . S
H486 C507 0.950 . S
H487 C510 0.950 . S
H488 C511 0.950 . S
H489 C513 0.950 . S
H490 C514 0.950 1_545 S
H491 C515 0.950 . S
H492 C517 0.951 . S
H493 C519 0.950 . S
H494 C520 0.950 . S
H495 C522 0.950 1_565 S
H496 C525 0.950 . S
H497 C526 0.950 . S
H498 C528 0.950 . S
H499 C529 0.950 . S
C500 H482 0.951 . S
C500 C501 1.366 . S
C500 C502 1.388 . S
C501 C500 1.366 . S
C501 C505 1.385 . S
C502 H483 0.951 . S
C502 C500 1.388 . S
C502 C503 1.366 . S
C503 C502 1.366 . S
C503 C504 1.414 . S
C503 C506 1.499 . S
C504 H484 0.950 . S
C504 C503 1.414 . S
C504 C505 1.374 . S
C505 H485 0.950 . S
C505 C501 1.385 . S
C505 C504 1.374 . S
C506 C503 1.499 . S
C506 C507 1.373 . S
C506 C508 1.389 . S
C507 H486 0.950 . S
C507 C506 1.373 . S
C507 C523 1.377 . S
C508 C506 1.389 . S
C508 C509 1.524 1_545 S
C508 C522 1.377 . S
C509 C508 1.524 1_565 S
C509 C510 1.397 . S
C509 C514 1.363 . S
C510 H487 0.950 . S
C510 C509 1.397 . S
C510 C511 1.334 . S
C511 H488 0.950 . S
C511 C510 1.334 . S
C511 C512 1.287 . S
C512 C511 1.287 . S
C512 C513 1.524 . S
C512 H531 0.913 . S
C513 H489 0.950 . S
C513 C512 1.524 . S
C513 C514 1.415 . S
C514 H490 0.950 1_565 S
C514 C509 1.363 . S
C514 C513 1.415 . S
C515 H491 0.950 . S
C515 C516 1.366 . S
C515 C517 1.388 . S
C516 C515 1.366 . S
C516 C520 1.385 . S
C517 H492 0.951 . S
C517 C515 1.388 . S
C517 C518 1.366 . S
C518 C517 1.366 . S
C518 C519 1.414 . S
C518 C521 1.499 . S
C519 H493 0.950 . S
C519 C518 1.414 . S
C519 C520 1.374 . S
C520 H494 0.950 . S
C520 C516 1.385 . S
C520 C519 1.374 . S
C521 C518 1.499 . S
C521 C522 1.373 . S
C521 C523 1.389 . S
C522 H495 0.950 1_545 S
C522 C508 1.377 . S
C522 C521 1.373 . S
C523 C507 1.377 . S
C523 C521 1.389 . S
C523 C524 1.524 . S
C524 C523 1.524 . S
C524 C525 1.397 . S
C524 C529 1.363 . S
C525 H496 0.950 . S
C525 C524 1.397 . S
C525 C526 1.334 . S
C526 H497 0.950 . S
C526 C525 1.334 . S
C526 C527 1.287 . S
C527 C526 1.287 . S
C527 C528 1.524 . S
C527 H530 0.999 . S
C528 H498 0.950 . S
C528 C527 1.524 . S
C528 C529 1.415 . S
C529 H499 0.950 . S
C529 C524 1.363 . S
C529 C528 1.415 . S
H530 C527 0.999 . S
H531 C512 0.913 . S
H532 C550 0.951 1_655 S
H533 C552 0.951 1_655 S
H534 C554 0.950 . S
H535 C555 0.950 . S
H536 C557 0.950 . S
H537 C560 0.950 . S
H538 C561 0.950 . S
H539 C563 0.950 . S
H540 C564 0.950 . S
H541 C565 0.951 . S
H542 C567 0.951 . S
H543 C569 0.950 . S
H544 C570 0.950 . S
H545 C572 0.950 . S
H546 C575 0.959 . S
H547 C576 0.950 . S
H548 C578 0.950 . S
H549 C579 0.950 . S
C550 H532 0.951 1_455 S
C550 C551 1.366 . S
C550 C552 1.388 . S
C551 C550 1.366 . S
C551 C555 1.385 . S
C552 H533 0.951 1_455 S
C552 C550 1.388 . S
C552 C553 1.366 . S
C553 C552 1.366 . S
C553 C554 1.414 . S
C553 C556 1.499 . S
C554 H534 0.950 . S
C554 C553 1.414 . S
C554 C555 1.374 . S
C555 H535 0.950 . S
C555 C551 1.385 . S
C555 C554 1.374 . S
C556 C553 1.499 . S
C556 C557 1.373 . S
C556 C558 1.389 . S
C557 H536 0.950 . S
C557 C556 1.373 . S
C557 C573 1.377 . S
C558 C556 1.389 . S
C558 C559 1.524 . S
C558 C572 1.377 . S
C559 C558 1.524 . S
C559 C560 1.397 . S
C559 C564 1.363 1_455 S
C560 H537 0.950 . S
C560 C559 1.397 . S
C560 C561 1.334 . S
C561 H538 0.950 . S
C561 C560 1.334 . S
C561 C562 1.287 . S
C562 C561 1.287 . S
C562 C563 1.524 1_455 S
C562 H581 0.913 . S
C563 H539 0.950 . S
C563 C562 1.524 1_655 S
C563 C564 1.415 . S
C564 H540 0.950 . S
C564 C559 1.363 1_655 S
C564 C563 1.415 . S
C565 H541 0.951 . S
C565 C566 1.366 . S
C565 C567 1.388 . S
C566 C565 1.366 . S
C566 C570 1.385 1_455 S
C567 H542 0.951 . S
C567 C565 1.388 . S
C567 C568 1.366 . S
C568 C567 1.366 . S
C568 C569 1.414 1_455 S
C568 C571 1.499 . S
C569 H543 0.950 . S
C569 C568 1.414 1_655 S
C569 C570 1.374 . S
C570 H544 0.950 . S
C570 C566 1.385 1_655 S
C570 C569 1.374 . S
C571 C568 1.499 . S
C571 C572 1.373 . S
C571 C573 1.389 . S
C572 H545 0.950 . S
C572 C558 1.377 . S
C572 C571 1.373 . S
C573 C557 1.377 . S
C573 C571 1.389 . S
C573 C574 1.524 . S
C574 C573 1.524 . S
C574 C575 1.387 1_455 S
C574 C579 1.363 . S
C575 H546 0.959 . S
C575 C574 1.387 1_655 S
C575 C576 1.335 . S
C576 H547 0.950 . S
C576 C575 1.335 . S
C576 C577 1.287 1_655 S
C577 C576 1.287 1_455 S
C577 C578 1.524 . S
C577 H580 0.999 . S
C578 H548 0.950 . S
C578 C577 1.524 . S
C578 C579 1.415 . S
C579 H549 0.950 . S
C579 C574 1.363 . S
C579 C578 1.415 . S
H580 C577 0.999 . S
H581 C562 0.913 . S
H582 C600 0.951 . S
H583 C602 0.951 . S
H584 C604 0.950 . S
H585 C605 0.950 . S
H586 C607 0.949 . S
H587 C610 0.950 1_565 S
H588 C611 0.950 1_565 S
H589 C613 0.950 . S
H590 C614 0.950 . S
H591 C615 0.951 1_565 S
H592 C617 0.943 1_565 S
H593 C619 0.950 . S
H594 C620 0.950 . S
H595 C622 0.950 . S
H596 C625 0.950 . S
H597 C626 0.950 . S
H598 C628 0.950 . S
H599 C629 0.950 . S
C600 H582 0.951 . S
C600 C601 1.366 . S
C600 C602 1.388 . S
C601 C600 1.366 . S
C601 C605 1.385 1_545 S
C602 H583 0.951 . S
C602 C600 1.388 . S
C602 C603 1.366 . S
C603 C602 1.366 . S
C603 C604 1.414 1_545 S
C603 C606 1.499 . S
C604 H584 0.950 . S
C604 C603 1.414 1_565 S
C604 C605 1.374 . S
C605 H585 0.950 . S
C605 C601 1.385 1_565 S
C605 C604 1.374 . S
C606 C603 1.499 . S
C606 C607 1.373 . S
C606 C608 1.389 . S
C607 H586 0.949 . S
C607 C606 1.373 . S
C607 C623 1.377 . S
C608 C606 1.389 . S
C608 C609 1.524 . S
C608 C622 1.377 . S
C609 C608 1.524 . S
C609 C610 1.397 . S
C609 C614 1.363 . S
C610 H587 0.950 1_545 S
C610 C609 1.397 . S
C610 C611 1.334 . S
C611 H588 0.950 1_545 S
C611 C610 1.334 . S
C611 C612 1.287 . S
C612 C611 1.287 . S
C612 C613 1.524 . S
C612 H631 0.913 . S
C613 H589 0.950 . S
C613 C612 1.524 . S
C613 C614 1.415 . S
C614 H590 0.950 . S
C614 C609 1.363 . S
C614 C613 1.415 . S
C615 H591 0.951 1_545 S
C615 C616 1.366 . S
C615 C617 1.388 . S
C616 C615 1.366 . S
C616 C620 1.385 . S
C617 H592 0.943 1_545 S
C617 C615 1.388 . S
C617 C618 1.373 . S
C618 C617 1.373 . S
C618 C619 1.414 . S
C618 C621 1.499 . S
C619 H593 0.950 . S
C619 C618 1.414 . S
C619 C620 1.374 . S
C620 H594 0.950 . S
C620 C616 1.385 . S
C620 C619 1.374 . S
C621 C618 1.499 . S
C621 C622 1.373 . S
C621 C623 1.389 . S
C622 H595 0.950 . S
C622 C608 1.377 . S
C622 C621 1.373 . S
C623 C607 1.377 . S
C623 C621 1.389 . S
C623 C624 1.524 . S
C624 C623 1.524 . S
C624 C625 1.397 . S
C624 C629 1.363 1_545 S
C625 H596 0.950 . S
C625 C624 1.397 . S
C625 C626 1.334 . S
C626 H597 0.950 . S
C626 C625 1.334 . S
C626 C627 1.287 . S
C627 C626 1.287 . S
C627 C628 1.524 1_545 S
C627 H630 0.999 . S
C628 H598 0.950 . S
C628 C627 1.524 1_565 S
C628 C629 1.415 . S
C629 H599 0.950 . S
C629 C624 1.363 1_565 S
C629 C628 1.415 . S
H630 C627 0.999 . S
H631 C612 0.913 . S
H632 C650 0.951 . S
H633 C652 0.951 . S
H634 C654 0.950 . S
H635 C655 0.950 . S
H636 C657 0.950 . S
H637 C660 0.950 . S
H638 C661 0.950 . S
H639 C663 0.950 . S
H640 C664 0.950 . S
H641 C665 0.951 1_655 S
H642 C667 0.951 1_655 S
H643 C669 0.950 . S
H644 C670 0.950 . S
H645 C672 0.950 . S
H646 C675 0.950 . S
H647 C676 0.950 . S
H648 C678 0.950 . S
H649 C679 0.950 1_655 S
C650 H632 0.951 . S
C650 C651 1.366 . S
C650 C652 1.388 . S
C651 C650 1.366 . S
C651 C655 1.385 1_455 S
C652 H633 0.951 . S
C652 C650 1.388 . S
C652 C653 1.366 . S
C653 C652 1.366 . S
C653 C654 1.414 1_455 S
C653 C656 1.499 . S
C654 H634 0.950 . S
C654 C653 1.414 1_655 S
C654 C655 1.374 . S
C655 H635 0.950 . S
C655 C651 1.385 1_655 S
C655 C654 1.374 . S
C656 C653 1.499 . S
C656 C657 1.373 . S
C656 C658 1.389 . S
C657 H636 0.950 . S
C657 C656 1.373 . S
C657 C673 1.377 . S
C658 C656 1.389 . S
C658 C659 1.524 . S
C658 C672 1.377 . S
C659 C658 1.524 . S
C659 C660 1.397 1_455 S
C659 C664 1.363 . S
C660 H637 0.950 . S
C660 C659 1.397 1_655 S
C660 C661 1.334 . S
C661 H638 0.950 . S
C661 C660 1.334 . S
C661 C662 1.287 . S
C662 C661 1.287 . S
C662 C663 1.524 1_655 S
C662 H681 0.913 . S
C663 H639 0.950 . S
C663 C662 1.524 1_455 S
C663 C664 1.415 . S
C664 H640 0.950 . S
C664 C659 1.363 . S
C664 C663 1.415 . S
C665 H641 0.951 1_455 S
C665 C666 1.366 . S
C665 C667 1.388 . S
C666 C665 1.366 . S
C666 C670 1.385 . S
C667 H642 0.951 1_455 S
C667 C665 1.388 . S
C667 C668 1.366 . S
C668 C667 1.366 . S
C668 C669 1.414 . S
C668 C671 1.499 . S
C669 H643 0.950 . S
C669 C668 1.414 . S
C669 C670 1.374 . S
C670 H644 0.950 . S
C670 C666 1.385 . S
C670 C669 1.374 . S
C671 C668 1.499 . S
C671 C672 1.373 . S
C671 C673 1.389 . S
C672 H645 0.950 . S
C672 C658 1.377 . S
C672 C671 1.373 . S
C673 C657 1.377 . S
C673 C671 1.389 . S
C673 C674 1.524 . S
C674 C673 1.524 . S
C674 C675 1.397 . S
C674 C679 1.363 . S
C675 H646 0.950 . S
C675 C674 1.397 . S
C675 C676 1.334 . S
C676 H647 0.950 . S
C676 C675 1.334 . S
C676 C677 1.287 . S
C677 C676 1.287 . S
C677 C678 1.524 . S
C677 H680 0.999 . S
C678 H648 0.950 . S
C678 C677 1.524 . S
C678 C679 1.415 . S
C679 H649 0.950 1_455 S
C679 C674 1.363 . S
C679 C678 1.415 . S
H680 C677 0.999 . S
H681 C662 0.913 . S
H682 C700 0.951 . S
H683 C702 0.951 . S
H684 C704 0.950 . S
H685 C705 0.950 . S
H686 C707 0.952 . S
H687 C710 0.950 . S
H688 C711 0.979 . S
H689 C713 0.950 . S
H690 C714 0.950 . S
H691 C715 0.981 . S
H692 C717 0.951 . S
H693 C719 0.950 . S
H694 C720 0.950 . S
H695 C722 0.950 . S
H696 C725 0.950 . S
H697 C726 0.950 . S
H698 C728 0.950 . S
H699 C729 0.950 . S
C700 H682 0.951 . S
C700 C701 1.366 . S
C700 C702 1.388 . S
C701 C700 1.366 . S
C701 C705 1.385 1_545 S
C702 H683 0.951 . S
C702 C700 1.388 . S
C702 C703 1.366 . S
C703 C702 1.366 . S
C703 C704 1.414 1_545 S
C703 C706 1.499 . S
C704 H684 0.950 . S
C704 C703 1.414 1_565 S
C704 C705 1.374 . S
C705 H685 0.950 . S
C705 C701 1.385 1_565 S
C705 C704 1.374 . S
C706 C703 1.499 . S
C706 C707 1.373 . S
C706 C708 1.389 . S
C707 H686 0.952 . S
C707 C706 1.373 . S
C707 C723 1.377 . S
C708 C706 1.389 . S
C708 C709 1.524 . S
C708 C722 1.377 . S
C709 C708 1.524 . S
C709 C710 1.397 1_545 S
C709 C714 1.363 . S
C710 H687 0.950 . S
C710 C709 1.397 1_565 S
C710 C711 1.335 . S
C711 H688 0.979 . S
C711 C710 1.335 . S
C711 C712 1.257 1_565 S
C712 C711 1.257 1_545 S
C712 C713 1.524 . S
C712 H731 0.913 . S
C713 H689 0.950 . S
C713 C712 1.524 . S
C713 C714 1.415 . S
C714 H690 0.950 . S
C714 C709 1.363 . S
C714 C713 1.415 . S
C715 H691 0.981 . S
C715 C716 1.332 1_565 S
C715 C717 1.393 . S
C716 C715 1.332 1_545 S
C716 C720 1.385 . S
C717 H692 0.951 . S
C717 C715 1.393 . S
C717 C718 1.366 1_565 S
C718 C717 1.366 1_545 S
C718 C719 1.414 . S
C718 C721 1.499 . S
C719 H693 0.950 . S
C719 C718 1.414 . S
C719 C720 1.374 . S
C720 H694 0.950 . S
C720 C716 1.385 . S
C720 C719 1.374 . S
C721 C718 1.499 . S
C721 C722 1.373 . S
C721 C723 1.389 . S
C722 H695 0.950 . S
C722 C708 1.377 . S
C722 C721 1.373 . S
C723 C707 1.377 . S
C723 C721 1.389 . S
C723 C724 1.524 . S
C724 C723 1.524 . S
C724 C725 1.397 . S
C724 C729 1.363 1_545 S
C725 H696 0.950 . S
C725 C724 1.397 . S
C725 C726 1.334 . S
C726 H697 0.950 . S
C726 C725 1.334 . S
C726 C727 1.287 . S
C727 C726 1.287 . S
C727 C728 1.524 1_545 S
C727 H730 0.999 . S
C728 H698 0.950 . S
C728 C727 1.524 1_565 S
C728 C729 1.415 . S
C729 H699 0.950 . S
C729 C724 1.363 1_565 S
C729 C728 1.415 . S
H730 C727 0.999 . S
H731 C712 0.913 . S
H732 C750 0.951 . S
H733 C752 0.951 . S
H734 C754 0.950 . S
H735 C755 0.950 . S
H736 C757 0.950 . S
H737 C760 0.950 . S
H738 C761 0.950 . S
H739 C763 0.950 1_655 S
H740 C764 0.950 1_655 S
H741 C765 0.951 . S
H742 C767 0.951 . S
H743 C769 0.947 1_655 S
H744 C770 0.950 1_655 S
H745 C772 0.950 . S
H746 C775 0.950 . S
H747 C776 0.950 . S
H748 C778 0.950 . S
H749 C779 0.950 . S
C750 H732 0.951 . S
C750 C751 1.366 1_655 S
C750 C752 1.388 . S
C751 C750 1.366 1_455 S
C751 C755 1.385 . S
C752 H733 0.951 . S
C752 C750 1.388 . S
C752 C753 1.366 1_655 S
C753 C752 1.366 1_455 S
C753 C754 1.414 . S
C753 C756 1.499 . S
C754 H734 0.950 . S
C754 C753 1.414 . S
C754 C755 1.374 . S
C755 H735 0.950 . S
C755 C751 1.385 . S
C755 C754 1.374 . S
C756 C753 1.499 . S
C756 C757 1.373 . S
C756 C758 1.389 . S
C757 H736 0.950 . S
C757 C756 1.373 . S
C757 C773 1.377 . S
C758 C756 1.389 . S
C758 C759 1.524 . S
C758 C772 1.377 . S
C759 C758 1.524 . S
C759 C760 1.397 . S
C759 C764 1.363 . S
C760 H737 0.950 . S
C760 C759 1.397 . S
C760 C761 1.334 . S
C761 H738 0.950 . S
C761 C760 1.334 . S
C761 C762 1.287 . S
C762 C761 1.287 . S
C762 C763 1.524 . S
C762 H781 0.913 . S
C763 H739 0.950 1_455 S
C763 C762 1.524 . S
C763 C764 1.415 . S
C764 H740 0.950 1_455 S
C764 C759 1.363 . S
C764 C763 1.415 . S
C765 H741 0.951 . S
C765 C766 1.366 . S
C765 C767 1.388 . S
C766 C765 1.366 . S
C766 C770 1.385 . S
C767 H742 0.951 . S
C767 C765 1.388 . S
C767 C768 1.366 . S
C768 C767 1.366 . S
C768 C769 1.417 . S
C768 C771 1.499 . S
C769 H743 0.947 1_455 S
C769 C768 1.417 . S
C769 C770 1.374 . S
C770 H744 0.950 1_455 S
C770 C766 1.385 . S
C770 C769 1.374 . S
C771 C768 1.499 . S
C771 C772 1.373 . S
C771 C773 1.389 . S
C772 H745 0.950 . S
C772 C758 1.377 . S
C772 C771 1.373 . S
C773 C757 1.377 . S
C773 C771 1.389 . S
C773 C774 1.524 . S
C774 C773 1.524 . S
C774 C775 1.397 1_455 S
C774 C779 1.363 . S
C775 H746 0.950 . S
C775 C774 1.397 1_655 S
C775 C776 1.334 . S
C776 H747 0.950 . S
C776 C775 1.334 . S
C776 C777 1.287 . S
C777 C776 1.287 . S
C777 C778 1.524 1_655 S
C777 H780 0.999 . S
C778 H748 0.950 . S
C778 C777 1.524 1_455 S
C778 C779 1.415 . S
C779 H749 0.950 . S
C779 C774 1.363 . S
C779 C778 1.415 . S
H780 C777 0.999 . S
H781 C762 0.913 . S
H782 C800 0.951 1_565 S
H783 C802 0.951 1_565 S
H784 C804 0.950 . S
H785 C805 0.950 . S
H786 C807 0.950 . S
H787 C810 0.950 . S
H788 C811 0.950 . S
H789 C813 0.950 . S
H790 C814 0.950 . S
H791 C815 0.951 . S
H792 C817 0.951 . S
H793 C819 0.950 . S
H794 C820 0.950 . S
H795 C822 0.950 . S
H796 C825 0.986 . S
H797 C826 0.950 . S
H798 C828 0.950 . S
H799 C829 0.950 . S
C800 H782 0.951 1_545 S
C800 C801 1.366 . S
C800 C802 1.388 . S
C801 C800 1.366 . S
C801 C805 1.385 . S
C802 H783 0.951 1_545 S
C802 C800 1.388 . S
C802 C803 1.366 . S
C803 C802 1.366 . S
C803 C804 1.414 . S
C803 C806 1.499 . S
C804 H784 0.950 . S
C804 C803 1.414 . S
C804 C805 1.374 . S
C805 H785 0.950 . S
C805 C801 1.385 . S
C805 C804 1.374 . S
C806 C803 1.499 . S
C806 C807 1.373 . S
C806 C808 1.389 . S
C807 H786 0.950 . S
C807 C806 1.373 . S
C807 C823 1.377 . S
C808 C806 1.389 . S
C808 C809 1.524 . S
C808 C822 1.377 . S
C809 C808 1.524 . S
C809 C810 1.397 . S
C809 C814 1.363 1_545 S
C810 H787 0.950 . S
C810 C809 1.397 . S
C810 C811 1.334 . S
C811 H788 0.950 . S
C811 C810 1.334 . S
C811 C812 1.287 . S
C812 C811 1.287 . S
C812 C813 1.524 1_545 S
C812 H831 0.913 . S
C813 H789 0.950 . S
C813 C812 1.524 1_565 S
C813 C814 1.415 . S
C814 H790 0.950 . S
C814 C809 1.363 1_565 S
C814 C813 1.415 . S
C815 H791 0.951 . S
C815 C816 1.366 . S
C815 C817 1.388 . S
C816 C815 1.366 . S
C816 C820 1.385 1_545 S
C817 H792 0.951 . S
C817 C815 1.388 . S
C817 C818 1.366 . S
C818 C817 1.366 . S
C818 C819 1.414 1_545 S
C818 C821 1.499 . S
C819 H793 0.950 . S
C819 C818 1.414 1_565 S
C819 C820 1.374 . S
C820 H794 0.950 . S
C820 C816 1.385 1_565 S
C820 C819 1.374 . S
C821 C818 1.499 . S
C821 C822 1.373 . S
C821 C823 1.389 . S
C822 H795 0.950 . S
C822 C808 1.377 . S
C822 C821 1.373 . S
C823 C807 1.377 . S
C823 C821 1.389 . S
C823 C824 1.524 . S
C824 C823 1.524 . S
C824 C825 1.361 1_545 S
C824 C829 1.363 . S
C825 H796 0.986 . S
C825 C824 1.361 1_565 S
C825 C826 1.335 . S
C826 H797 0.950 . S
C826 C825 1.335 . S
C826 C827 1.287 1_565 S
C827 C826 1.287 1_545 S
C827 C828 1.524 . S
C827 H830 0.999 . S
C828 H798 0.950 . S
C828 C827 1.524 . S
C828 C829 1.415 . S
C829 H799 0.950 . S
C829 C824 1.363 . S
C829 C828 1.415 . S
H830 C827 0.999 . S
H831 C812 0.913 . S
H832 C850 0.951 . S
H833 C852 0.951 . S
H834 C854 0.950 . S
H835 C855 0.952 . S
H836 C857 0.950 . S
H837 C860 0.950 . S
H838 C861 0.950 . S
H839 C863 0.950 . S
H840 C864 0.950 . S
H841 C865 0.951 . S
H842 C867 0.951 . S
H843 C869 0.950 . S
H844 C870 0.950 . S
H845 C872 0.950 . S
H846 C875 0.950 . S
H847 C876 0.950 . S
H848 C878 0.950 . S
H849 C879 0.950 . S
C850 H832 0.951 . S
C850 C851 1.366 . S
C850 C852 1.388 . S
C851 C850 1.366 . S
C851 C855 1.382 1_556 S
C852 H833 0.951 . S
C852 C850 1.388 . S
C852 C853 1.366 1_556 S
C853 C852 1.366 1_554 S
C853 C854 1.414 . S
C853 C856 1.499 . S
C854 H834 0.950 . S
C854 C853 1.414 . S
C854 C855 1.377 . S
C855 H835 0.952 . S
C855 C851 1.382 1_554 S
C855 C854 1.377 . S
C856 C853 1.499 . S
C856 C857 1.373 . S
C856 C858 1.389 1_554 S
C857 H836 0.950 . S
C857 C856 1.373 . S
C857 C873 1.377 . S
C858 C856 1.389 1_556 S
C858 C859 1.524 . S
C858 C872 1.377 . S
C859 C858 1.524 . S
C859 C860 1.397 . S
C859 C864 1.363 . S
C860 H837 0.950 . S
C860 C859 1.397 . S
C860 C861 1.334 . S
C861 H838 0.950 . S
C861 C860 1.334 . S
C861 C862 1.287 . S
C862 C861 1.287 . S
C862 C863 1.524 . S
C862 H881 0.913 . S
C863 H839 0.950 . S
C863 C862 1.524 . S
C863 C864 1.415 . S
C864 H840 0.950 . S
C864 C859 1.363 . S
C864 C863 1.415 . S
C865 H841 0.951 . S
C865 C866 1.366 . S
C865 C867 1.388 . S
C866 C865 1.366 . S
C866 C870 1.385 . S
C867 H842 0.951 . S
C867 C865 1.388 . S
C867 C868 1.366 . S
C868 C867 1.366 . S
C868 C869 1.414 . S
C868 C871 1.499 . S
C869 H843 0.950 . S
C869 C868 1.414 . S
C869 C870 1.374 . S
C870 H844 0.950 . S
C870 C866 1.385 . S
C870 C869 1.374 . S
C871 C868 1.499 . S
C871 C872 1.373 1_554 S
C871 C873 1.389 . S
C872 H845 0.950 . S
C872 C858 1.377 . S
C872 C871 1.373 1_556 S
C873 C857 1.377 . S
C873 C871 1.389 . S
C873 C874 1.524 . S
C874 C873 1.524 . S
C874 C875 1.397 . S
C874 C879 1.363 . S
C875 H846 0.950 . S
C875 C874 1.397 . S
C875 C876 1.334 . S
C876 H847 0.950 . S
C876 C875 1.334 . S
C876 C877 1.287 . S
C877 C876 1.287 . S
C877 C878 1.524 . S
C877 H880 0.999 . S
C878 H848 0.950 . S
C878 C877 1.524 . S
C878 C879 1.415 . S
C879 H849 0.950 . S
C879 C874 1.363 . S
C879 C878 1.415 . S
H880 C877 0.999 . S
H881 C862 0.913 . S
H882 C900 0.951 . S
H883 C902 0.951 . S
H884 C904 0.950 . S
H885 C905 0.950 . S
H886 C907 0.950 . S
H887 C910 0.950 . S
H888 C911 0.950 . S
H889 C913 0.950 . S
H890 C914 0.950 . S
H891 C915 0.951 . S
H892 C917 0.951 . S
H893 C919 0.950 . S
H894 C920 0.950 . S
H895 C922 0.950 . S
H896 C925 0.950 . S
H897 C926 0.950 . S
H898 C928 0.950 . S
H899 C929 0.950 . S
C900 H882 0.951 . S
C900 C901 1.366 . S
C900 C902 1.388 . S
C901 C900 1.366 . S
C901 C905 1.385 . S
C902 H883 0.951 . S
C902 C900 1.388 . S
C902 C903 1.366 . S
C903 C902 1.366 . S
C903 C904 1.414 . S
C903 C906 1.499 . S
C904 H884 0.950 . S
C904 C903 1.414 . S
C904 C905 1.374 . S
C905 H885 0.950 . S
C905 C901 1.385 . S
C905 C904 1.374 . S
C906 C903 1.499 . S
C906 C907 1.373 . S
C906 C908 1.389 1_554 S
C907 H886 0.950 . S
C907 C906 1.373 . S
C907 C923 1.377 . S
C908 C906 1.389 1_556 S
C908 C909 1.524 . S
C908 C922 1.377 . S
C909 C908 1.524 . S
C909 C910 1.397 . S
C909 C914 1.363 . S
C910 H887 0.950 . S
C910 C909 1.397 . S
C910 C911 1.334 . S
C911 H888 0.950 . S
C911 C910 1.334 . S
C911 C912 1.287 . S
C912 C911 1.287 . S
C912 C913 1.524 . S
C912 H931 0.913 . S
C913 H889 0.950 . S
C913 C912 1.524 . S
C913 C914 1.415 . S
C914 H890 0.950 . S
C914 C909 1.363 . S
C914 C913 1.415 . S
C915 H891 0.951 . S
C915 C916 1.366 . S
C915 C917 1.388 . S
C916 C915 1.366 . S
C916 C920 1.385 . S
C917 H892 0.951 . S
C917 C915 1.388 . S
C917 C918 1.366 . S
C918 C917 1.366 . S
C918 C919 1.414 . S
C918 C921 1.499 . S
C919 H893 0.950 . S
C919 C918 1.414 . S
C919 C920 1.374 . S
C920 H894 0.950 . S
C920 C916 1.385 . S
C920 C919 1.374 . S
C921 C918 1.499 . S
C921 C922 1.373 1_554 S
C921 C923 1.389 . S
C922 H895 0.950 . S
C922 C908 1.377 . S
C922 C921 1.373 1_556 S
C923 C907 1.377 . S
C923 C921 1.389 . S
C923 C924 1.524 . S
C924 C923 1.524 . S
C924 C925 1.397 . S
C924 C929 1.363 . S
C925 H896 0.950 . S
C925 C924 1.397 . S
C925 C926 1.334 . S
C926 H897 0.950 . S
C926 C925 1.334 . S
C926 C927 1.287 . S
C927 C926 1.287 . S
C927 C928 1.524 . S
C927 H930 0.999 . S
C928 H898 0.950 . S
C928 C927 1.524 . S
C928 C929 1.415 . S
C929 H899 0.950 . S
C929 C924 1.363 . S
C929 C928 1.415 . S
H930 C927 0.999 . S
H931 C912 0.913 . S
H932 C950 0.951 . S
H933 C952 0.951 . S
H934 C954 0.950 . S
H935 C955 0.950 . S
H936 C957 0.950 . S
H937 C960 0.950 . S
H938 C961 0.950 . S
H939 C963 0.950 . S
H940 C964 0.950 . S
H941 C965 0.951 . S
H942 C967 0.951 . S
H943 C969 0.950 . S
H944 C970 0.950 . S
H945 C972 0.950 . S
H946 C975 0.950 . S
H947 C976 0.950 . S
H948 C978 0.950 . S
H949 C979 0.950 1_556 S
C950 H932 0.951 . S
C950 C951 1.366 . S
C950 C952 1.388 . S
C951 C950 1.366 . S
C951 C955 1.385 1_554 S
C952 H933 0.951 . S
C952 C950 1.388 . S
C952 C953 1.366 . S
C953 C952 1.366 . S
C953 C954 1.414 1_554 S
C953 C956 1.499 . S
C954 H934 0.950 . S
C954 C953 1.414 1_556 S
C954 C955 1.374 . S
C955 H935 0.950 . S
C955 C951 1.385 1_556 S
C955 C954 1.374 . S
C956 C953 1.499 . S
C956 C957 1.373 . S
C956 C958 1.389 . S
C957 H936 0.950 . S
C957 C956 1.373 . S
C957 C973 1.377 . S
C958 C956 1.389 . S
C958 C959 1.525 1_554 S
C958 C972 1.377 . S
C959 C958 1.525 1_556 S
C959 C960 1.393 . S
C959 C964 1.365 1_556 S
C960 H937 0.950 . S
C960 C959 1.393 . S
C960 C961 1.334 . S
C961 H938 0.950 . S
C961 C960 1.334 . S
C961 C962 1.287 . S
C962 C961 1.287 . S
C962 C963 1.524 1_556 S
C962 H981 0.913 . S
C963 H939 0.950 . S
C963 C962 1.524 1_554 S
C963 C964 1.415 . S
C964 H940 0.950 . S
C964 C959 1.365 1_554 S
C964 C963 1.415 . S
C965 H941 0.951 . S
C965 C966 1.366 1_556 S
C965 C967 1.388 . S
C966 C965 1.366 1_554 S
C966 C970 1.385 . S
C967 H942 0.951 . S
C967 C965 1.388 . S
C967 C968 1.366 1_556 S
C968 C967 1.366 1_554 S
C968 C969 1.414 . S
C968 C971 1.499 . S
C969 H943 0.950 . S
C969 C968 1.414 . S
C969 C970 1.374 . S
C970 H944 0.950 . S
C970 C966 1.385 . S
C970 C969 1.374 . S
C971 C968 1.499 . S
C971 C972 1.373 . S
C971 C973 1.389 . S
C972 H945 0.950 . S
C972 C958 1.377 . S
C972 C971 1.373 . S
C973 C957 1.377 . S
C973 C971 1.389 . S
C973 C974 1.524 . S
C974 C973 1.524 . S
C974 C975 1.397 . S
C974 C979 1.363 . S
C975 H946 0.950 . S
C975 C974 1.397 . S
C975 C976 1.334 . S
C976 H947 0.950 . S
C976 C975 1.334 . S
C976 C977 1.287 . S
C977 C976 1.287 . S
C977 C978 1.524 . S
C977 H980 0.999 . S
C978 H948 0.950 . S
C978 C977 1.524 . S
C978 C979 1.415 . S
C979 H949 0.950 1_554 S
C979 C974 1.363 . S
C979 C978 1.415 . S
H980 C977 0.999 . S
H981 C962 0.913 . S
H982 C1000 0.951 . S
H983 C1002 0.951 . S
H984 C1004 0.950 1_556 S
H985 C1005 0.950 1_556 S
H986 C1007 0.950 . S
H987 C1010 0.950 . S
H988 C1011 0.950 . S
H989 C1013 0.950 . S
H990 C1014 0.950 . S
H991 C1015 0.951 . S
H992 C1017 0.951 . S
H993 C1019 0.950 . S
H994 C1020 0.950 . S
H995 C1022 0.950 . S
H996 C1025 0.950 . S
H997 C1026 0.950 . S
H998 C1028 0.950 . S
H999 C1029 0.950 . S
C1000 H982 0.951 . S
C1000 C1001 1.366 . S
C1000 C1002 1.388 . S
C1001 C1000 1.366 . S
C1001 C1005 1.385 . S
C1002 H983 0.951 . S
C1002 C1000 1.388 . S
C1002 C1003 1.366 . S
C1003 C1002 1.366 . S
C1003 C1004 1.414 . S
C1003 C1006 1.499 . S
C1004 H984 0.950 1_554 S
C1004 C1003 1.414 . S
C1004 C1005 1.374 . S
C1005 H985 0.950 1_554 S
C1005 C1001 1.385 . S
C1005 C1004 1.374 . S
C1006 C1003 1.499 . S
C1006 C1007 1.373 1_554 S
C1006 C1008 1.389 . S
C1007 H986 0.950 . S
C1007 C1006 1.373 1_556 S
C1007 C1023 1.377 . S
C1008 C1006 1.389 . S
C1008 C1009 1.524 . S
C1008 C1022 1.377 . S
C1009 C1008 1.524 . S
C1009 C1010 1.397 . S
C1009 C1014 1.363 . S
C1010 H987 0.950 . S
C1010 C1009 1.397 . S
C1010 C1011 1.334 . S
C1011 H988 0.950 . S
C1011 C1010 1.334 . S
C1011 C1012 1.287 . S
C1012 C1011 1.287 . S
C1012 C1013 1.524 . S
C1012 H1031 0.913 . S
C1013 H989 0.950 . S
C1013 C1012 1.524 . S
C1013 C1014 1.415 . S
C1014 H990 0.950 . S
C1014 C1009 1.363 . S
C1014 C1013 1.415 . S
C1015 H991 0.951 . S
C1015 C1016 1.366 1_556 S
C1015 C1017 1.388 . S
C1016 C1015 1.366 1_554 S
C1016 C1020 1.385 . S
C1017 H992 0.951 . S
C1017 C1015 1.388 . S
C1017 C1018 1.366 1_556 S
C1018 C1017 1.366 1_554 S
C1018 C1019 1.414 . S
C1018 C1021 1.499 . S
C1019 H993 0.950 . S
C1019 C1018 1.414 . S
C1019 C1020 1.374 . S
C1020 H994 0.950 . S
C1020 C1016 1.385 . S
C1020 C1019 1.374 . S
C1021 C1018 1.499 . S
C1021 C1022 1.373 . S
C1021 C1023 1.389 1_554 S
C1022 H995 0.950 . S
C1022 C1008 1.377 . S
C1022 C1021 1.373 . S
C1023 C1007 1.377 . S
C1023 C1021 1.389 1_556 S
C1023 C1024 1.524 . S
C1024 C1023 1.524 . S
C1024 C1025 1.397 . S
C1024 C1029 1.363 . S
C1025 H996 0.950 . S
C1025 C1024 1.397 . S
C1025 C1026 1.334 . S
C1026 H997 0.950 . S
C1026 C1025 1.334 . S
C1026 C1027 1.287 . S
C1027 C1026 1.287 . S
C1027 C1028 1.524 . S
C1027 H1030 0.999 . S
C1028 H998 0.950 . S
C1028 C1027 1.524 . S
C1028 C1029 1.415 . S
C1029 H999 0.950 . S
C1029 C1024 1.363 . S
C1029 C1028 1.415 . S
H1030 C1027 0.999 . S
H1031 C1012 0.913 . S
H1032 C1050 0.951 . S
H1033 C1052 0.951 . S
H1034 C1054 0.950 . S
H1035 C1055 0.950 . S
H1036 C1057 0.950 . S
H1037 C1060 0.950 . S
H1038 C1061 0.950 . S
H1039 C1063 0.950 . S
H1040 C1064 0.950 . S
H1041 C1065 0.951 . S
H1042 C1067 0.951 . S
H1043 C1069 0.950 . S
H1044 C1070 0.950 . S
H1045 C1072 0.950 . S
H1046 C1075 0.950 . S
H1047 C1076 0.950 . S
H1048 C1078 0.950 . S
H1049 C1079 0.950 . S
C1050 H1032 0.951 . S
C1050 C1051 1.366 . S
C1050 C1052 1.388 . S
C1051 C1050 1.366 . S
C1051 C1055 1.385 . S
C1052 H1033 0.951 . S
C1052 C1050 1.388 . S
C1052 C1053 1.366 . S
C1053 C1052 1.366 . S
C1053 C1054 1.414 . S
C1053 C1056 1.499 . S
C1054 H1034 0.950 . S
C1054 C1053 1.414 . S
C1054 C1055 1.374 . S
C1055 H1035 0.950 . S
C1055 C1051 1.385 . S
C1055 C1054 1.374 . S
C1056 C1053 1.499 . S
C1056 C1057 1.373 . S
C1056 C1058 1.389 . S
C1057 H1036 0.950 . S
C1057 C1056 1.373 . S
C1057 C1073 1.377 . S
C1058 C1056 1.389 . S
C1058 C1059 1.524 . S
C1058 C1072 1.377 . S
C1059 C1058 1.524 . S
C1059 C1060 1.397 . S
C1059 C1064 1.363 . S
C1060 H1037 0.950 . S
C1060 C1059 1.397 . S
C1060 C1061 1.334 . S
C1061 H1038 0.950 . S
C1061 C1060 1.334 . S
C1061 C1062 1.287 . S
C1062 C1061 1.287 . S
C1062 C1063 1.524 . S
C1062 H1081 0.913 . S
C1063 H1039 0.950 . S
C1063 C1062 1.524 . S
C1063 C1064 1.415 . S
C1064 H1040 0.950 . S
C1064 C1059 1.363 . S
C1064 C1063 1.415 . S
C1065 H1041 0.951 . S
C1065 C1066 1.366 . S
C1065 C1067 1.388 . S
C1066 C1065 1.366 . S
C1066 C1070 1.385 . S
C1067 H1042 0.951 . S
C1067 C1065 1.388 . S
C1067 C1068 1.366 . S
C1068 C1067 1.366 . S
C1068 C1069 1.414 . S
C1068 C1071 1.499 . S
C1069 H1043 0.950 . S
C1069 C1068 1.414 . S
C1069 C1070 1.374 . S
C1070 H1044 0.950 . S
C1070 C1066 1.385 . S
C1070 C1069 1.374 . S
C1071 C1068 1.499 . S
C1071 C1072 1.373 . S
C1071 C1073 1.389 . S
C1072 H1045 0.950 . S
C1072 C1058 1.377 . S
C1072 C1071 1.373 . S
C1073 C1057 1.377 . S
C1073 C1071 1.389 . S
C1073 C1074 1.524 . S
C1074 C1073 1.524 . S
C1074 C1075 1.397 . S
C1074 C1079 1.363 . S
C1075 H1046 0.950 . S
C1075 C1074 1.397 . S
C1075 C1076 1.334 . S
C1076 H1047 0.950 . S
C1076 C1075 1.334 . S
C1076 C1077 1.287 . S
C1077 C1076 1.287 . S
C1077 C1078 1.524 . S
C1077 H1080 0.999 . S
C1078 H1048 0.950 . S
C1078 C1077 1.524 . S
C1078 C1079 1.415 . S
C1079 H1049 0.950 . S
C1079 C1074 1.363 . S
C1079 C1078 1.415 . S
H1080 C1077 0.999 . S
H1081 C1062 0.913 . S
H1082 C1100 0.951 . S
H1083 C1102 0.951 . S
H1084 C1104 0.950 . S
H1085 C1105 0.950 . S
H1086 C1107 0.950 . S
H1087 C1110 0.950 . S
H1088 C1111 0.950 . S
H1089 C1113 0.950 . S
H1090 C1114 0.950 . S
H1091 C1115 0.951 . S
H1092 C1117 0.951 . S
H1093 C1119 0.950 . S
H1094 C1120 0.950 . S
H1095 C1122 0.950 . S
H1096 C1125 0.950 . S
H1097 C1126 0.950 . S
H1098 C1128 0.950 . S
H1099 C1129 0.950 . S
C1100 H1082 0.951 . S
C1100 C1101 1.366 . S
C1100 C1102 1.388 . S
C1101 C1100 1.366 . S
C1101 C1105 1.385 . S
C1102 H1083 0.951 . S
C1102 C1100 1.388 . S
C1102 C1103 1.366 . S
C1103 C1102 1.366 . S
C1103 C1104 1.414 . S
C1103 C1106 1.499 . S
C1104 H1084 0.950 . S
C1104 C1103 1.414 . S
C1104 C1105 1.374 . S
C1105 H1085 0.950 . S
C1105 C1101 1.385 . S
C1105 C1104 1.374 . S
C1106 C1103 1.499 . S
C1106 C1107 1.373 . S
C1106 C1108 1.389 . S
C1107 H1086 0.950 . S
C1107 C1106 1.373 . S
C1107 C1123 1.377 . S
C1108 C1106 1.389 . S
C1108 C1109 1.524 . S
C1108 C1122 1.377 . S
C1109 C1108 1.524 . S
C1109 C1110 1.397 . S
C1109 C1114 1.363 . S
C1110 H1087 0.950 . S
C1110 C1109 1.397 . S
C1110 C1111 1.334 . S
C1111 H1088 0.950 . S
C1111 C1110 1.334 . S
C1111 C1112 1.287 . S
C1112 C1111 1.287 . S
C1112 C1113 1.524 . S
C1112 H1131 0.913 . S
C1113 H1089 0.950 . S
C1113 C1112 1.524 . S
C1113 C1114 1.415 . S
C1114 H1090 0.950 . S
C1114 C1109 1.363 . S
C1114 C1113 1.415 . S
C1115 H1091 0.951 . S
C1115 C1116 1.366 . S
C1115 C1117 1.388 . S
C1116 C1115 1.366 . S
C1116 C1120 1.385 . S
C1117 H1092 0.951 . S
C1117 C1115 1.388 . S
C1117 C1118 1.366 . S
C1118 C1117 1.366 . S
C1118 C1119 1.414 . S
C1118 C1121 1.499 . S
C1119 H1093 0.950 . S
C1119 C1118 1.414 . S
C1119 C1120 1.374 . S
C1120 H1094 0.950 . S
C1120 C1116 1.385 . S
C1120 C1119 1.374 . S
C1121 C1118 1.499 . S
C1121 C1122 1.373 . S
C1121 C1123 1.389 . S
C1122 H1095 0.950 . S
C1122 C1108 1.377 . S
C1122 C1121 1.373 . S
C1123 C1107 1.377 . S
C1123 C1121 1.389 . S
C1123 C1124 1.524 . S
C1124 C1123 1.524 . S
C1124 C1125 1.397 . S
C1124 C1129 1.363 . S
C1125 H1096 0.950 . S
C1125 C1124 1.397 . S
C1125 C1126 1.334 . S
C1126 H1097 0.950 . S
C1126 C1125 1.334 . S
C1126 C1127 1.287 . S
C1127 C1126 1.287 . S
C1127 C1128 1.524 . S
C1127 H1130 0.999 . S
C1128 H1098 0.950 . S
C1128 C1127 1.524 . S
C1128 C1129 1.415 . S
C1129 H1099 0.950 . S
C1129 C1124 1.363 . S
C1129 C1128 1.415 . S
H1130 C1127 0.999 . S
H1131 C1112 0.913 . S
H1132 C1150 0.951 . S
H1133 C1152 0.951 . S
H1134 C1154 0.950 . S
H1135 C1155 0.950 . S
H1136 C1157 0.950 . S
H1137 C1160 0.950 . S
H1138 C1161 0.950 . S
H1139 C1163 0.950 . S
H1140 C1164 0.950 . S
H1141 C1165 0.951 . S
H1142 C1167 0.951 . S
H1143 C1169 0.950 . S
H1144 C1170 0.950 . S
H1145 C1172 0.950 . S
H1146 C1175 0.950 . S
H1147 C1176 0.950 . S
H1148 C1178 0.950 . S
H1149 C1179 0.950 . S
C1150 H1132 0.951 . S
C1150 C1151 1.366 . S
C1150 C1152 1.388 . S
C1151 C1150 1.366 . S
C1151 C1155 1.385 . S
C1152 H1133 0.951 . S
C1152 C1150 1.388 . S
C1152 C1153 1.366 . S
C1153 C1152 1.366 . S
C1153 C1154 1.414 . S
C1153 C1156 1.499 . S
C1154 H1134 0.950 . S
C1154 C1153 1.414 . S
C1154 C1155 1.374 . S
C1155 H1135 0.950 . S
C1155 C1151 1.385 . S
C1155 C1154 1.374 . S
C1156 C1153 1.499 . S
C1156 C1157 1.373 . S
C1156 C1158 1.389 . S
C1157 H1136 0.950 . S
C1157 C1156 1.373 . S
C1157 C1173 1.377 . S
C1158 C1156 1.389 . S
C1158 C1159 1.524 . S
C1158 C1172 1.377 . S
C1159 C1158 1.524 . S
C1159 C1160 1.397 . S
C1159 C1164 1.363 . S
C1160 H1137 0.950 . S
C1160 C1159 1.397 . S
C1160 C1161 1.334 . S
C1161 H1138 0.950 . S
C1161 C1160 1.334 . S
C1161 C1162 1.287 . S
C1162 C1161 1.287 . S
C1162 C1163 1.524 . S
C1162 H1181 0.913 . S
C1163 H1139 0.950 . S
C1163 C1162 1.524 . S
C1163 C1164 1.415 . S
C1164 H1140 0.950 . S
C1164 C1159 1.363 . S
C1164 C1163 1.415 . S
C1165 H1141 0.951 . S
C1165 C1166 1.366 . S
C1165 C1167 1.388 . S
C1166 C1165 1.366 . S
C1166 C1170 1.385 . S
C1167 H1142 0.951 . S
C1167 C1165 1.388 . S
C1167 C1168 1.366 . S
C1168 C1167 1.366 . S
C1168 C1169 1.414 . S
C1168 C1171 1.499 . S
C1169 H1143 0.950 . S
C1169 C1168 1.414 . S
C1169 C1170 1.374 . S
C1170 H1144 0.950 . S
C1170 C1166 1.385 . S
C1170 C1169 1.374 . S
C1171 C1168 1.499 . S
C1171 C1172 1.373 . S
C1171 C1173 1.389 . S
C1172 H1145 0.950 . S
C1172 C1158 1.377 . S
C1172 C1171 1.373 . S
C1173 C1157 1.377 . S
C1173 C1171 1.389 . S
C1173 C1174 1.524 . S
C1174 C1173 1.524 . S
C1174 C1175 1.397 . S
C1174 C1179 1.363 . S
C1175 H1146 0.950 . S
C1175 C1174 1.397 . S
C1175 C1176 1.334 . S
C1176 H1147 0.950 . S
C1176 C1175 1.334 . S
C1176 C1177 1.287 . S
C1177 C1176 1.287 . S
C1177 C1178 1.524 . S
C1177 H1180 0.999 . S
C1178 H1148 0.950 . S
C1178 C1177 1.524 . S
C1178 C1179 1.415 . S
C1179 H1149 0.950 . S
C1179 C1174 1.363 . S
C1179 C1178 1.415 . S
H1180 C1177 0.999 . S
H1181 C1162 0.913 . S
H1182 C1200 0.951 . S
H1183 C1202 0.951 . S
H1184 C1204 0.950 . S
H1185 C1205 0.950 . S
H1186 C1207 0.950 . S
H1187 C1210 0.950 . S
H1188 C1211 0.950 . S
H1189 C1213 0.950 . S
H1190 C1214 0.950 . S
H1191 C1215 0.951 . S
H1192 C1217 0.951 . S
H1193 C1219 0.950 . S
H1194 C1220 0.950 . S
H1195 C1222 0.950 . S
H1196 C1225 0.950 . S
H1197 C1226 0.950 . S
H1198 C1228 0.950 . S
H1199 C1229 0.950 . S
C1200 H1182 0.951 . S
C1200 C1201 1.366 . S
C1200 C1202 1.388 . S
C1201 C1200 1.366 . S
C1201 C1205 1.385 . S
C1202 H1183 0.951 . S
C1202 C1200 1.388 . S
C1202 C1203 1.366 . S
C1203 C1202 1.366 . S
C1203 C1204 1.414 . S
C1203 C1206 1.499 . S
C1204 H1184 0.950 . S
C1204 C1203 1.414 . S
C1204 C1205 1.374 . S
C1205 H1185 0.950 . S
C1205 C1201 1.385 . S
C1205 C1204 1.374 . S
C1206 C1203 1.499 . S
C1206 C1207 1.373 . S
C1206 C1208 1.389 . S
C1207 H1186 0.950 . S
C1207 C1206 1.373 . S
C1207 C1223 1.377 . S
C1208 C1206 1.389 . S
C1208 C1209 1.524 . S
C1208 C1222 1.377 . S
C1209 C1208 1.524 . S
C1209 C1210 1.397 . S
C1209 C1214 1.363 . S
C1210 H1187 0.950 . S
C1210 C1209 1.397 . S
C1210 C1211 1.334 . S
C1211 H1188 0.950 . S
C1211 C1210 1.334 . S
C1211 C1212 1.287 . S
C1212 C1211 1.287 . S
C1212 C1213 1.524 . S
C1212 H1231 0.913 . S
C1213 H1189 0.950 . S
C1213 C1212 1.524 . S
C1213 C1214 1.415 . S
C1214 H1190 0.950 . S
C1214 C1209 1.363 . S
C1214 C1213 1.415 . S
C1215 H1191 0.951 . S
C1215 C1216 1.366 . S
C1215 C1217 1.388 . S
C1216 C1215 1.366 . S
C1216 C1220 1.385 . S
C1217 H1192 0.951 . S
C1217 C1215 1.388 . S
C1217 C1218 1.366 . S
C1218 C1217 1.366 . S
C1218 C1219 1.414 . S
C1218 C1221 1.499 . S
C1219 H1193 0.950 . S
C1219 C1218 1.414 . S
C1219 C1220 1.374 . S
C1220 H1194 0.950 . S
C1220 C1216 1.385 . S
C1220 C1219 1.374 . S
C1221 C1218 1.499 . S
C1221 C1222 1.373 . S
C1221 C1223 1.389 . S
C1222 H1195 0.950 . S
C1222 C1208 1.377 . S
C1222 C1221 1.373 . S
C1223 C1207 1.377 . S
C1223 C1221 1.389 . S
C1223 C1224 1.524 . S
C1224 C1223 1.524 . S
C1224 C1225 1.397 . S
C1224 C1229 1.363 . S
C1225 H1196 0.950 . S
C1225 C1224 1.397 . S
C1225 C1226 1.334 . S
C1226 H1197 0.950 . S
C1226 C1225 1.334 . S
C1226 C1227 1.287 . S
C1227 C1226 1.287 . S
C1227 C1228 1.524 . S
C1227 H1230 0.999 . S
C1228 H1198 0.950 . S
C1228 C1227 1.524 . S
C1228 C1229 1.415 . S
C1229 H1199 0.950 . S
C1229 C1224 1.363 . S
C1229 C1228 1.415 . S
H1230 C1227 0.999 . S
H1231 C1212 0.913 . S
H1232 C1250 0.951 . S
H1233 C1252 0.951 . S
H1234 C1254 0.950 . S
H1235 C1255 0.950 . S
H1236 C1257 0.950 . S
H1237 C1260 0.950 . S
H1238 C1261 0.950 . S
H1239 C1263 0.950 . S
H1240 C1264 0.950 . S
H1241 C1265 0.951 . S
H1242 C1267 0.951 . S
H1243 C1269 0.950 . S
H1244 C1270 0.950 . S
H1245 C1272 0.950 . S
H1246 C1275 0.950 . S
H1247 C1276 0.950 . S
H1248 C1278 0.950 . S
H1249 C1279 0.950 . S
C1250 H1232 0.951 . S
C1250 C1251 1.366 . S
C1250 C1252 1.388 . S
C1251 C1250 1.366 . S
C1251 C1255 1.385 . S
C1252 H1233 0.951 . S
C1252 C1250 1.388 . S
C1252 C1253 1.366 . S
C1253 C1252 1.366 . S
C1253 C1254 1.414 . S
C1253 C1256 1.499 . S
C1254 H1234 0.950 . S
C1254 C1253 1.414 . S
C1254 C1255 1.374 . S
C1255 H1235 0.950 . S
C1255 C1251 1.385 . S
C1255 C1254 1.374 . S
C1256 C1253 1.499 . S
C1256 C1257 1.373 . S
C1256 C1258 1.389 . S
C1257 H1236 0.950 . S
C1257 C1256 1.373 . S
C1257 C1273 1.377 . S
C1258 C1256 1.389 . S
C1258 C1259 1.524 . S
C1258 C1272 1.377 . S
C1259 C1258 1.524 . S
C1259 C1260 1.397 . S
C1259 C1264 1.363 . S
C1260 H1237 0.950 . S
C1260 C1259 1.397 . S
C1260 C1261 1.334 . S
C1261 H1238 0.950 . S
C1261 C1260 1.334 . S
C1261 C1262 1.287 . S
C1262 C1261 1.287 . S
C1262 C1263 1.524 . S
C1262 H1281 0.913 . S
C1263 H1239 0.950 . S
C1263 C1262 1.524 . S
C1263 C1264 1.415 . S
C1264 H1240 0.950 . S
C1264 C1259 1.363 . S
C1264 C1263 1.415 . S
C1265 H1241 0.951 . S
C1265 C1266 1.366 . S
C1265 C1267 1.388 . S
C1266 C1265 1.366 . S
C1266 C1270 1.385 . S
C1267 H1242 0.951 . S
C1267 C1265 1.388 . S
C1267 C1268 1.366 . S
C1268 C1267 1.366 . S
C1268 C1269 1.414 . S
C1268 C1271 1.499 . S
C1269 H1243 0.950 . S
C1269 C1268 1.414 . S
C1269 C1270 1.374 . S
C1270 H1244 0.950 . S
C1270 C1266 1.385 . S
C1270 C1269 1.374 . S
C1271 C1268 1.499 . S
C1271 C1272 1.373 . S
C1271 C1273 1.389 . S
C1272 H1245 0.950 . S
C1272 C1258 1.377 . S
C1272 C1271 1.373 . S
C1273 C1257 1.377 . S
C1273 C1271 1.389 . S
C1273 C1274 1.524 . S
C1274 C1273 1.524 . S
C1274 C1275 1.397 . S
C1274 C1279 1.363 . S
C1275 H1246 0.950 . S
C1275 C1274 1.397 . S
C1275 C1276 1.334 . S
C1276 H1247 0.950 . S
C1276 C1275 1.334 . S
C1276 C1277 1.287 . S
C1277 C1276 1.287 . S
C1277 C1278 1.524 . S
C1277 H1280 0.999 . S
C1278 H1248 0.950 . S
C1278 C1277 1.524 . S
C1278 C1279 1.415 . S
C1279 H1249 0.950 . S
C1279 C1274 1.363 . S
C1279 C1278 1.415 . S
H1280 C1277 0.999 . S
H1281 C1262 0.913 . S
H1282 C1300 0.951 . S
H1283 C1302 0.951 . S
H1284 C1304 0.950 . S
H1285 C1305 0.950 . S
H1286 C1307 0.950 . S
H1287 C1310 0.950 . S
H1288 C1311 0.950 . S
H1289 C1313 0.950 . S
H1290 C1314 0.950 . S
H1291 C1315 0.951 . S
H1292 C1317 0.951 . S
H1293 C1319 0.950 . S
H1294 C1320 0.950 . S
H1295 C1322 0.950 . S
H1296 C1325 0.950 . S
H1297 C1326 0.950 . S
H1298 C1328 0.950 . S
H1299 C1329 0.950 . S
C1300 H1282 0.951 . S
C1300 C1301 1.366 . S
C1300 C1302 1.388 . S
C1301 C1300 1.366 . S
C1301 C1305 1.385 . S
C1302 H1283 0.951 . S
C1302 C1300 1.388 . S
C1302 C1303 1.366 . S
C1303 C1302 1.366 . S
C1303 C1304 1.414 . S
C1303 C1306 1.499 . S
C1304 H1284 0.950 . S
C1304 C1303 1.414 . S
C1304 C1305 1.374 . S
C1305 H1285 0.950 . S
C1305 C1301 1.385 . S
C1305 C1304 1.374 . S
C1306 C1303 1.499 . S
C1306 C1307 1.373 . S
C1306 C1308 1.389 . S
C1307 H1286 0.950 . S
C1307 C1306 1.373 . S
C1307 C1323 1.377 . S
C1308 C1306 1.389 . S
C1308 C1309 1.524 . S
C1308 C1322 1.377 . S
C1309 C1308 1.524 . S
C1309 C1310 1.397 . S
C1309 C1314 1.363 . S
C1310 H1287 0.950 . S
C1310 C1309 1.397 . S
C1310 C1311 1.334 . S
C1311 H1288 0.950 . S
C1311 C1310 1.334 . S
C1311 C1312 1.287 . S
C1312 C1311 1.287 . S
C1312 C1313 1.524 . S
C1312 H1331 0.913 . S
C1313 H1289 0.950 . S
C1313 C1312 1.524 . S
C1313 C1314 1.415 . S
C1314 H1290 0.950 . S
C1314 C1309 1.363 . S
C1314 C1313 1.415 . S
C1315 H1291 0.951 . S
C1315 C1316 1.366 . S
C1315 C1317 1.388 . S
C1316 C1315 1.366 . S
C1316 C1320 1.385 . S
C1317 H1292 0.951 . S
C1317 C1315 1.388 . S
C1317 C1318 1.366 . S
C1318 C1317 1.366 . S
C1318 C1319 1.414 . S
C1318 C1321 1.499 . S
C1319 H1293 0.950 . S
C1319 C1318 1.414 . S
C1319 C1320 1.374 . S
C1320 H1294 0.950 . S
C1320 C1316 1.385 . S
C1320 C1319 1.374 . S
C1321 C1318 1.499 . S
C1321 C1322 1.373 . S
C1321 C1323 1.389 . S
C1322 H1295 0.950 . S
C1322 C1308 1.377 . S
C1322 C1321 1.373 . S
C1323 C1307 1.377 . S
C1323 C1321 1.389 . S
C1323 C1324 1.524 . S
C1324 C1323 1.524 . S
C1324 C1325 1.397 . S
C1324 C1329 1.363 . S
C1325 H1296 0.950 . S
C1325 C1324 1.397 . S
C1325 C1326 1.334 . S
C1326 H1297 0.950 . S
C1326 C1325 1.334 . S
C1326 C1327 1.287 . S
C1327 C1326 1.287 . S
C1327 C1328 1.524 . S
C1327 H1330 0.999 . S
C1328 H1298 0.950 . S
C1328 C1327 1.524 . S
C1328 C1329 1.415 . S
C1329 H1299 0.950 . S
C1329 C1324 1.363 . S
C1329 C1328 1.415 . S
H1330 C1327 0.999 . S
H1331 C1312 0.913 . S
H1332 C1350 0.951 . S
H1333 C1352 0.951 . S
H1334 C1354 0.950 . S
H1335 C1355 0.950 . S
H1336 C1357 0.950 . S
H1337 C1360 0.950 . S
H1338 C1361 0.950 . S
H1339 C1363 0.950 . S
H1340 C1364 0.950 . S
H1341 C1365 0.951 . S
H1342 C1367 0.951 . S
H1343 C1369 0.950 . S
H1344 C1370 0.950 . S
H1345 C1372 0.950 . S
H1346 C1375 0.950 . S
H1347 C1376 0.950 . S
H1348 C1378 0.950 . S
H1349 C1379 0.950 . S
C1350 H1332 0.951 . S
C1350 C1351 1.366 . S
C1350 C1352 1.388 . S
C1351 C1350 1.366 . S
C1351 C1355 1.385 . S
C1352 H1333 0.951 . S
C1352 C1350 1.388 . S
C1352 C1353 1.366 . S
C1353 C1352 1.366 . S
C1353 C1354 1.414 . S
C1353 C1356 1.499 . S
C1354 H1334 0.950 . S
C1354 C1353 1.414 . S
C1354 C1355 1.374 . S
C1355 H1335 0.950 . S
C1355 C1351 1.385 . S
C1355 C1354 1.374 . S
C1356 C1353 1.499 . S
C1356 C1357 1.373 . S
C1356 C1358 1.389 . S
C1357 H1336 0.950 . S
C1357 C1356 1.373 . S
C1357 C1373 1.377 . S
C1358 C1356 1.389 . S
C1358 C1359 1.524 . S
C1358 C1372 1.377 . S
C1359 C1358 1.524 . S
C1359 C1360 1.397 . S
C1359 C1364 1.363 . S
C1360 H1337 0.950 . S
C1360 C1359 1.397 . S
C1360 C1361 1.334 . S
C1361 H1338 0.950 . S
C1361 C1360 1.334 . S
C1361 C1362 1.287 . S
C1362 C1361 1.287 . S
C1362 C1363 1.524 . S
C1362 H1381 0.913 . S
C1363 H1339 0.950 . S
C1363 C1362 1.524 . S
C1363 C1364 1.415 . S
C1364 H1340 0.950 . S
C1364 C1359 1.363 . S
C1364 C1363 1.415 . S
C1365 H1341 0.951 . S
C1365 C1366 1.366 . S
C1365 C1367 1.388 . S
C1366 C1365 1.366 . S
C1366 C1370 1.385 . S
C1367 H1342 0.951 . S
C1367 C1365 1.388 . S
C1367 C1368 1.366 . S
C1368 C1367 1.366 . S
C1368 C1369 1.414 . S
C1368 C1371 1.499 . S
C1369 H1343 0.950 . S
C1369 C1368 1.414 . S
C1369 C1370 1.374 . S
C1370 H1344 0.950 . S
C1370 C1366 1.385 . S
C1370 C1369 1.374 . S
C1371 C1368 1.499 . S
C1371 C1372 1.373 . S
C1371 C1373 1.389 . S
C1372 H1345 0.950 . S
C1372 C1358 1.377 . S
C1372 C1371 1.373 . S
C1373 C1357 1.377 . S
C1373 C1371 1.389 . S
C1373 C1374 1.524 . S
C1374 C1373 1.524 . S
C1374 C1375 1.397 . S
C1374 C1379 1.363 . S
C1375 H1346 0.950 . S
C1375 C1374 1.397 . S
C1375 C1376 1.334 . S
C1376 H1347 0.950 . S
C1376 C1375 1.334 . S
C1376 C1377 1.287 . S
C1377 C1376 1.287 . S
C1377 C1378 1.524 . S
C1377 H1380 0.999 . S
C1378 H1348 0.950 . S
C1378 C1377 1.524 . S
C1378 C1379 1.415 . S
C1379 H1349 0.950 . S
C1379 C1374 1.363 . S
C1379 C1378 1.415 . S
H1380 C1377 0.999 . S
H1381 C1362 0.913 . S
H1382 C1400 0.951 . S
H1383 C1402 0.951 . S
H1384 C1404 0.950 . S
H1385 C1405 0.950 . S
H1386 C1407 0.950 . S
H1387 C1410 0.950 . S
H1388 C1411 0.950 . S
H1389 C1413 0.950 . S
H1390 C1414 0.950 . S
H1391 C1415 0.951 . S
H1392 C1417 0.951 . S
H1393 C1419 0.950 . S
H1394 C1420 0.950 . S
H1395 C1422 0.950 . S
H1396 C1425 0.950 . S
H1397 C1426 0.950 . S
H1398 C1428 0.950 . S
H1399 C1429 0.950 . S
C1400 H1382 0.951 . S
C1400 C1401 1.366 . S
C1400 C1402 1.388 . S
C1401 C1400 1.366 . S
C1401 C1405 1.385 . S
C1402 H1383 0.951 . S
C1402 C1400 1.388 . S
C1402 C1403 1.366 . S
C1403 C1402 1.366 . S
C1403 C1404 1.414 . S
C1403 C1406 1.499 . S
C1404 H1384 0.950 . S
C1404 C1403 1.414 . S
C1404 C1405 1.374 . S
C1405 H1385 0.950 . S
C1405 C1401 1.385 . S
C1405 C1404 1.374 . S
C1406 C1403 1.499 . S
C1406 C1407 1.373 . S
C1406 C1408 1.389 . S
C1407 H1386 0.950 . S
C1407 C1406 1.373 . S
C1407 C1423 1.377 . S
C1408 C1406 1.389 . S
C1408 C1409 1.524 . S
C1408 C1422 1.377 . S
C1409 C1408 1.524 . S
C1409 C1410 1.397 . S
C1409 C1414 1.363 . S
C1410 H1387 0.950 . S
C1410 C1409 1.397 . S
C1410 C1411 1.334 . S
C1411 H1388 0.950 . S
C1411 C1410 1.334 . S
C1411 C1412 1.287 . S
C1412 C1411 1.287 . S
C1412 C1413 1.524 . S
C1412 H1431 0.913 . S
C1413 H1389 0.950 . S
C1413 C1412 1.524 . S
C1413 C1414 1.415 . S
C1414 H1390 0.950 . S
C1414 C1409 1.363 . S
C1414 C1413 1.415 . S
C1415 H1391 0.951 . S
C1415 C1416 1.366 . S
C1415 C1417 1.388 . S
C1416 C1415 1.366 . S
C1416 C1420 1.385 . S
C1417 H1392 0.951 . S
C1417 C1415 1.388 . S
C1417 C1418 1.366 . S
C1418 C1417 1.366 . S
C1418 C1419 1.414 . S
C1418 C1421 1.499 . S
C1419 H1393 0.950 . S
C1419 C1418 1.414 . S
C1419 C1420 1.374 . S
C1420 H1394 0.950 . S
C1420 C1416 1.385 . S
C1420 C1419 1.374 . S
C1421 C1418 1.499 . S
C1421 C1422 1.373 . S
C1421 C1423 1.389 . S
C1422 H1395 0.950 . S
C1422 C1408 1.377 . S
C1422 C1421 1.373 . S
C1423 C1407 1.377 . S
C1423 C1421 1.389 . S
C1423 C1424 1.524 . S
C1424 C1423 1.524 . S
C1424 C1425 1.397 . S
C1424 C1429 1.363 . S
C1425 H1396 0.950 . S
C1425 C1424 1.397 . S
C1425 C1426 1.334 . S
C1426 H1397 0.950 . S
C1426 C1425 1.334 . S
C1426 C1427 1.287 . S
C1427 C1426 1.287 . S
C1427 C1428 1.524 . S
C1427 H1430 0.999 . S
C1428 H1398 0.950 . S
C1428 C1427 1.524 . S
C1428 C1429 1.415 . S
C1429 H1399 0.950 . S
C1429 C1424 1.363 . S
C1429 C1428 1.415 . S
H1430 C1427 0.999 . S
H1431 C1412 0.913 . S
H1432 C1450 0.951 . S
H1433 C1452 0.951 . S
H1434 C1454 0.950 . S
H1435 C1455 0.950 . S
H1436 C1457 0.950 . S
H1437 C1460 0.950 . S
H1438 C1461 0.950 . S
H1439 C1463 0.950 . S
H1440 C1464 0.950 . S
H1441 C1465 0.951 . S
H1442 C1467 0.951 . S
H1443 C1469 0.950 . S
H1444 C1470 0.950 . S
H1445 C1472 0.950 . S
H1446 C1475 0.950 . S
H1447 C1476 0.950 . S
H1448 C1478 0.950 . S
H1449 C1479 0.950 . S
C1450 H1432 0.951 . S
C1450 C1451 1.366 . S
C1450 C1452 1.388 . S
C1451 C1450 1.366 . S
C1451 C1455 1.385 . S
C1452 H1433 0.951 . S
C1452 C1450 1.388 . S
C1452 C1453 1.366 . S
C1453 C1452 1.366 . S
C1453 C1454 1.414 . S
C1453 C1456 1.499 . S
C1454 H1434 0.950 . S
C1454 C1453 1.414 . S
C1454 C1455 1.374 . S
C1455 H1435 0.950 . S
C1455 C1451 1.385 . S
C1455 C1454 1.374 . S
C1456 C1453 1.499 . S
C1456 C1457 1.373 . S
C1456 C1458 1.389 . S
C1457 H1436 0.950 . S
C1457 C1456 1.373 . S
C1457 C1473 1.377 . S
C1458 C1456 1.389 . S
C1458 C1459 1.524 . S
C1458 C1472 1.377 . S
C1459 C1458 1.524 . S
C1459 C1460 1.397 . S
C1459 C1464 1.363 . S
C1460 H1437 0.950 . S
C1460 C1459 1.397 . S
C1460 C1461 1.334 . S
C1461 H1438 0.950 . S
C1461 C1460 1.334 . S
C1461 C1462 1.287 . S
C1462 C1461 1.287 . S
C1462 C1463 1.524 . S
C1462 H1481 0.913 . S
C1463 H1439 0.950 . S
C1463 C1462 1.524 . S
C1463 C1464 1.415 . S
C1464 H1440 0.950 . S
C1464 C1459 1.363 . S
C1464 C1463 1.415 . S
C1465 H1441 0.951 . S
C1465 C1466 1.366 . S
C1465 C1467 1.388 . S
C1466 C1465 1.366 . S
C1466 C1470 1.385 . S
C1467 H1442 0.951 . S
C1467 C1465 1.388 . S
C1467 C1468 1.366 . S
C1468 C1467 1.366 . S
C1468 C1469 1.414 . S
C1468 C1471 1.499 . S
C1469 H1443 0.950 . S
C1469 C1468 1.414 . S
C1469 C1470 1.374 . S
C1470 H1444 0.950 . S
C1470 C1466 1.385 . S
C1470 C1469 1.374 . S
C1471 C1468 1.499 . S
C1471 C1472 1.373 . S
C1471 C1473 1.389 . S
C1472 H1445 0.950 . S
C1472 C1458 1.377 . S
C1472 C1471 1.373 . S
C1473 C1457 1.377 . S
C1473 C1471 1.389 . S
C1473 C1474 1.524 . S
C1474 C1473 1.524 . S
C1474 C1475 1.397 . S
C1474 C1479 1.363 . S
C1475 H1446 0.950 . S
C1475 C1474 1.397 . S
C1475 C1476 1.334 . S
C1476 H1447 0.950 . S
C1476 C1475 1.334 . S
C1476 C1477 1.287 . S
C1477 C1476 1.287 . S
C1477 C1478 1.524 . S
C1477 H1480 0.999 . S
C1478 H1448 0.950 . S
C1478 C1477 1.524 . S
C1478 C1479 1.415 . S
C1479 H1449 0.950 . S
C1479 C1474 1.363 . S
C1479 C1478 1.415 . S
H1480 C1477 0.999 . S
H1481 C1462 0.913 . S
H1482 C1500 0.951 . S
H1483 C1502 0.951 . S
H1484 C1504 0.950 . S
H1485 C1505 0.950 . S
H1486 C1507 0.950 . S
H1487 C1510 0.950 . S
H1488 C1511 0.950 . S
H1489 C1513 0.950 . S
H1490 C1514 0.950 . S
H1491 C1515 0.951 . S
H1492 C1517 0.951 . S
H1493 C1519 0.950 . S
H1494 C1520 0.950 . S
H1495 C1522 0.950 . S
H1496 C1525 0.950 . S
H1497 C1526 0.950 . S
H1498 C1528 0.950 . S
H1499 C1529 0.950 . S
C1500 H1482 0.951 . S
C1500 C1501 1.366 . S
C1500 C1502 1.388 . S
C1501 C1500 1.366 . S
C1501 C1505 1.385 . S
C1502 H1483 0.951 . S
C1502 C1500 1.388 . S
C1502 C1503 1.366 . S
C1503 C1502 1.366 . S
C1503 C1504 1.414 . S
C1503 C1506 1.499 . S
C1504 H1484 0.950 . S
C1504 C1503 1.414 . S
C1504 C1505 1.374 . S
C1505 H1485 0.950 . S
C1505 C1501 1.385 . S
C1505 C1504 1.374 . S
C1506 C1503 1.499 . S
C1506 C1507 1.373 . S
C1506 C1508 1.389 . S
C1507 H1486 0.950 . S
C1507 C1506 1.373 . S
C1507 C1523 1.377 . S
C1508 C1506 1.389 . S
C1508 C1509 1.524 . S
C1508 C1522 1.377 . S
C1509 C1508 1.524 . S
C1509 C1510 1.397 . S
C1509 C1514 1.363 . S
C1510 H1487 0.950 . S
C1510 C1509 1.397 . S
C1510 C1511 1.334 . S
C1511 H1488 0.950 . S
C1511 C1510 1.334 . S
C1511 C1512 1.287 . S
C1512 C1511 1.287 . S
C1512 C1513 1.524 . S
C1512 H1531 0.913 . S
C1513 H1489 0.950 . S
C1513 C1512 1.524 . S
C1513 C1514 1.415 . S
C1514 H1490 0.950 . S
C1514 C1509 1.363 . S
C1514 C1513 1.415 . S
C1515 H1491 0.951 . S
C1515 C1516 1.366 . S
C1515 C1517 1.388 . S
C1516 C1515 1.366 . S
C1516 C1520 1.385 . S
C1517 H1492 0.951 . S
C1517 C1515 1.388 . S
C1517 C1518 1.366 . S
C1518 C1517 1.366 . S
C1518 C1519 1.414 . S
C1518 C1521 1.499 . S
C1519 H1493 0.950 . S
C1519 C1518 1.414 . S
C1519 C1520 1.374 . S
C1520 H1494 0.950 . S
C1520 C1516 1.385 . S
C1520 C1519 1.374 . S
C1521 C1518 1.499 . S
C1521 C1522 1.373 . S
C1521 C1523 1.389 . S
C1522 H1495 0.950 . S
C1522 C1508 1.377 . S
C1522 C1521 1.373 . S
C1523 C1507 1.377 . S
C1523 C1521 1.389 . S
C1523 C1524 1.524 . S
C1524 C1523 1.524 . S
C1524 C1525 1.397 . S
C1524 C1529 1.363 . S
C1525 H1496 0.950 . S
C1525 C1524 1.397 . S
C1525 C1526 1.334 . S
C1526 H1497 0.950 . S
C1526 C1525 1.334 . S
C1526 C1527 1.287 . S
C1527 C1526 1.287 . S
C1527 C1528 1.524 . S
C1527 H1530 0.999 . S
C1528 H1498 0.950 . S
C1528 C1527 1.524 . S
C1528 C1529 1.415 . S
C1529 H1499 0.950 . S
C1529 C1524 1.363 . S
C1529 C1528 1.415 . S
H1530 C1527 0.999 . S
H1531 C1512 0.913 . S
H1532 C1550 0.951 . S
H1533 C1552 0.951 . S
H1534 C1554 0.950 . S
H1535 C1555 0.950 . S
H1536 C1557 0.950 . S
H1537 C1560 0.950 . S
H1538 C1561 0.950 . S
H1539 C1563 0.950 . S
H1540 C1564 0.950 . S
H1541 C1565 0.951 . S
H1542 C1567 0.951 . S
H1543 C1569 0.950 . S
H1544 C1570 0.950 . S
H1545 C1572 0.950 . S
H1546 C1575 0.950 . S
H1547 C1576 0.950 . S
H1548 C1578 0.950 . S
H1549 C1579 0.950 . S
C1550 H1532 0.951 . S
C1550 C1551 1.366 . S
C1550 C1552 1.388 . S
C1551 C1550 1.366 . S
C1551 C1555 1.385 . S
C1552 H1533 0.951 . S
C1552 C1550 1.388 . S
C1552 C1553 1.366 . S
C1553 C1552 1.366 . S
C1553 C1554 1.414 . S
C1553 C1556 1.499 . S
C1554 H1534 0.950 . S
C1554 C1553 1.414 . S
C1554 C1555 1.374 . S
C1555 H1535 0.950 . S
C1555 C1551 1.385 . S
C1555 C1554 1.374 . S
C1556 C1553 1.499 . S
C1556 C1557 1.373 . S
C1556 C1558 1.389 . S
C1557 H1536 0.950 . S
C1557 C1556 1.373 . S
C1557 C1573 1.377 . S
C1558 C1556 1.389 . S
C1558 C1559 1.524 . S
C1558 C1572 1.377 . S
C1559 C1558 1.524 . S
C1559 C1560 1.397 . S
C1559 C1564 1.363 . S
C1560 H1537 0.950 . S
C1560 C1559 1.397 . S
C1560 C1561 1.334 . S
C1561 H1538 0.950 . S
C1561 C1560 1.334 . S
C1561 C1562 1.287 . S
C1562 C1561 1.287 . S
C1562 C1563 1.524 . S
C1562 H1581 0.913 . S
C1563 H1539 0.950 . S
C1563 C1562 1.524 . S
C1563 C1564 1.415 . S
C1564 H1540 0.950 . S
C1564 C1559 1.363 . S
C1564 C1563 1.415 . S
C1565 H1541 0.951 . S
C1565 C1566 1.366 . S
C1565 C1567 1.388 . S
C1566 C1565 1.366 . S
C1566 C1570 1.385 . S
C1567 H1542 0.951 . S
C1567 C1565 1.388 . S
C1567 C1568 1.366 . S
C1568 C1567 1.366 . S
C1568 C1569 1.414 . S
C1568 C1571 1.499 . S
C1569 H1543 0.950 . S
C1569 C1568 1.414 . S
C1569 C1570 1.374 . S
C1570 H1544 0.950 . S
C1570 C1566 1.385 . S
C1570 C1569 1.374 . S
C1571 C1568 1.499 . S
C1571 C1572 1.373 . S
C1571 C1573 1.389 . S
C1572 H1545 0.950 . S
C1572 C1558 1.377 . S
C1572 C1571 1.373 . S
C1573 C1557 1.377 . S
C1573 C1571 1.389 . S
C1573 C1574 1.524 . S
C1574 C1573 1.524 . S
C1574 C1575 1.397 . S
C1574 C1579 1.363 . S
C1575 H1546 0.950 . S
C1575 C1574 1.397 . S
C1575 C1576 1.334 . S
C1576 H1547 0.950 . S
C1576 C1575 1.334 . S
C1576 C1577 1.287 . S
C1577 C1576 1.287 . S
C1577 C1578 1.524 . S
C1577 H1580 0.999 . S
C1578 H1548 0.950 . S
C1578 C1577 1.524 . S
C1578 C1579 1.415 . S
C1579 H1549 0.950 . S
C1579 C1574 1.363 . S
C1579 C1578 1.415 . S
H1580 C1577 0.999 . S
H1581 C1562 0.913 . S
H1582 C1600 0.951 . S
H1583 C1602 0.951 . S
H1584 C1604 0.950 . S
H1585 C1605 0.950 . S
H1586 C1607 0.950 . S
H1587 C1610 0.950 . S
H1588 C1611 0.950 . S
H1589 C1613 0.950 . S
H1590 C1614 0.950 . S
H1591 C1615 0.951 . S
H1592 C1617 0.951 . S
H1593 C1619 0.950 . S
H1594 C1620 0.950 . S
H1595 C1622 0.950 . S
H1596 C1625 0.950 . S
H1597 C1626 0.950 . S
H1598 C1628 0.950 . S
H1599 C1629 0.950 . S
C1600 H1582 0.951 . S
C1600 C1601 1.366 . S
C1600 C1602 1.388 . S
C1601 C1600 1.366 . S
C1601 C1605 1.385 . S
C1602 H1583 0.951 . S
C1602 C1600 1.388 . S
C1602 C1603 1.366 . S
C1603 C1602 1.366 . S
C1603 C1604 1.414 . S
C1603 C1606 1.499 . S
C1604 H1584 0.950 . S
C1604 C1603 1.414 . S
C1604 C1605 1.374 . S
C1605 H1585 0.950 . S
C1605 C1601 1.385 . S
C1605 C1604 1.374 . S
C1606 C1603 1.499 . S
C1606 C1607 1.373 . S
C1606 C1608 1.389 . S
C1607 H1586 0.950 . S
C1607 C1606 1.373 . S
C1607 C1623 1.377 . S
C1608 C1606 1.389 . S
C1608 C1609 1.524 . S
C1608 C1622 1.377 . S
C1609 C1608 1.524 . S
C1609 C1610 1.397 . S
C1609 C1614 1.363 . S
C1610 H1587 0.950 . S
C1610 C1609 1.397 . S
C1610 C1611 1.334 . S
C1611 H1588 0.950 . S
C1611 C1610 1.334 . S
C1611 C1612 1.287 . S
C1612 C1611 1.287 . S
C1612 C1613 1.524 . S
C1612 H1631 0.913 . S
C1613 H1589 0.950 . S
C1613 C1612 1.524 . S
C1613 C1614 1.415 . S
C1614 H1590 0.950 . S
C1614 C1609 1.363 . S
C1614 C1613 1.415 . S
C1615 H1591 0.951 . S
C1615 C1616 1.366 . S
C1615 C1617 1.388 . S
C1616 C1615 1.366 . S
C1616 C1620 1.385 . S
C1617 H1592 0.951 . S
C1617 C1615 1.388 . S
C1617 C1618 1.366 . S
C1618 C1617 1.366 . S
C1618 C1619 1.414 . S
C1618 C1621 1.499 . S
C1619 H1593 0.950 . S
C1619 C1618 1.414 . S
C1619 C1620 1.374 . S
C1620 H1594 0.950 . S
C1620 C1616 1.385 . S
C1620 C1619 1.374 . S
C1621 C1618 1.499 . S
C1621 C1622 1.373 . S
C1621 C1623 1.389 . S
C1622 H1595 0.950 . S
C1622 C1608 1.377 . S
C1622 C1621 1.373 . S
C1623 C1607 1.377 . S
C1623 C1621 1.389 . S
C1623 C1624 1.524 . S
C1624 C1623 1.524 . S
C1624 C1625 1.397 . S
C1624 C1629 1.363 . S
C1625 H1596 0.950 . S
C1625 C1624 1.397 . S
C1625 C1626 1.334 . S
C1626 H1597 0.950 . S
C1626 C1625 1.334 . S
C1626 C1627 1.287 . S
C1627 C1626 1.287 . S
C1627 C1628 1.524 . S
C1627 H1630 0.999 . S
C1628 H1598 0.950 . S
C1628 C1627 1.524 . S
C1628 C1629 1.415 . S
C1629 H1599 0.950 . S
C1629 C1624 1.363 . S
C1629 C1628 1.415 . S
H1630 C1627 0.999 . S
H1631 C1612 0.913 . S
C451 C14 1.396 . S
C466 C184 1.482 . S
C501 C40 1.194 . S
C516 C148 1.194 . S
C551 C194 1.313 . S
C566 C86 1.313 . S
C601 C112 1.342 . S
C616 C158 1.261 . S
C651 C255 1.308 . S
C666 C76 1.314 . S
C701 C218 1.535 . S
C716 C122 1.448 . S
C751 C4 1.295 . S
C766 C254 1.292 . S
C801 C219 1.409 . S
C816 C50 1.330 . S
C851 C327 1.371 . S
C866 C291 1.370 . S
C901 C290 1.272 . S
C916 C398 1.272 . S
C951 C326 1.338 . S
C966 C362 1.337 . S
C1001 C363 1.476 . S
C1016 C399 1.478 . S
C1051 C410 1.395 . S
C1066 C220 1.482 . S
C1101 C292 1.194 . S
C1116 C256 1.194 . S
C1151 C230 1.314 . S
C1166 C338 1.313 . S
C1201 C266 1.261 . S
C1216 C364 1.342 . S
C1251 C147 1.309 . S
C1266 C328 1.314 . S
C1301 C182 1.536 . S
C1316 C374 1.448 . S
C1351 C400 1.295 . S
C1366 C146 1.292 . S
C1401 C302 1.330 . S
C1416 C183 1.409 . S
C1451 C39 1.370 . S
C1466 C75 1.368 . S
C1501 C2 1.271 . S
C1516 C38 1.272 . S
C1551 C74 1.338 . S
C1566 C110 1.338 . S
C1601 C3 1.478 . S
C1616 C111 1.476 . S
