# Generated by pormake.
# Topology ukw, (4)-cn, num edge types: 1
# Building blocks:
#     Node 0, Type 0, BuildingBlock: NAWXER_clean_sbu_0, # of connection points: 4
#     Node 1, Type 0, BuildingBlock: NAWXER_clean_sbu_0, # of connection points: 4
#     Node 2, Type 0, BuildingBlock: NAWXER_clean_sbu_0, # of connection points: 4
#     Node 3, Type 0, BuildingBlock: NAWXER_clean_sbu_0, # of connection points: 4
#     Node 4, Type 0, BuildingBlock: NAWXER_clean_sbu_0, # of connection points: 4
#     Node 5, Type 0, BuildingBlock: NAWXER_clean_sbu_0, # of connection points: 4
#     Node 6, Type 0, BuildingBlock: NAWXER_clean_sbu_0, # of connection points: 4
#     Node 7, Type 0, BuildingBlock: NAWXER_clean_sbu_0, # of connection points: 4
#     Node 8, Type 0, BuildingBlock: NAWXER_clean_sbu_0, # of connection points: 4
#     Node 9, Type 0, BuildingBlock: NAWXER_clean_sbu_0, # of connection points: 4
#     Node 10, Type 0, BuildingBlock: NAWXER_clean_sbu_0, # of connection points: 4
#     Node 11, Type 0, BuildingBlock: NAWXER_clean_sbu_0, # of connection points: 4
#     Node 12, Type 0, BuildingBlock: NAWXER_clean_sbu_0, # of connection points: 4
#     Node 13, Type 0, BuildingBlock: NAWXER_clean_sbu_0, # of connection points: 4
#     Node 14, Type 0, BuildingBlock: NAWXER_clean_sbu_0, # of connection points: 4
#     Node 15, Type 0, BuildingBlock: NAWXER_clean_sbu_0, # of connection points: 4
#     Node 16, Type 0, BuildingBlock: NAWXER_clean_sbu_0, # of connection points: 4
#     Node 17, Type 0, BuildingBlock: NAWXER_clean_sbu_0, # of connection points: 4
#     Node 18, Type 0, BuildingBlock: NAWXER_clean_sbu_0, # of connection points: 4
#     Node 19, Type 0, BuildingBlock: NAWXER_clean_sbu_0, # of connection points: 4
#     Node 20, Type 0, BuildingBlock: NAWXER_clean_sbu_0, # of connection points: 4
#     Node 21, Type 0, BuildingBlock: NAWXER_clean_sbu_0, # of connection points: 4
#     Node 22, Type 0, BuildingBlock: NAWXER_clean_sbu_0, # of connection points: 4
#     Node 23, Type 0, BuildingBlock: NAWXER_clean_sbu_0, # of connection points: 4
#     Node 24, Type 0, BuildingBlock: NAWXER_clean_sbu_0, # of connection points: 4
#     Node 25, Type 0, BuildingBlock: NAWXER_clean_sbu_0, # of connection points: 4
#     Node 26, Type 0, BuildingBlock: NAWXER_clean_sbu_0, # of connection points: 4
#     Node 27, Type 0, BuildingBlock: NAWXER_clean_sbu_0, # of connection points: 4
#     Node 28, Type 0, BuildingBlock: NAWXER_clean_sbu_0, # of connection points: 4
#     Node 29, Type 0, BuildingBlock: NAWXER_clean_sbu_0, # of connection points: 4
#     Node 30, Type 0, BuildingBlock: NAWXER_clean_sbu_0, # of connection points: 4
#     Node 31, Type 0, BuildingBlock: NAWXER_clean_sbu_0, # of connection points: 4
#     Node 32, Type 0, BuildingBlock: NAWXER_clean_sbu_0, # of connection points: 4
#     Node 33, Type 0, BuildingBlock: NAWXER_clean_sbu_0, # of connection points: 4
#     Node 34, Type 0, BuildingBlock: NAWXER_clean_sbu_0, # of connection points: 4
#     Node 35, Type 0, BuildingBlock: NAWXER_clean_sbu_0, # of connection points: 4
#     Node 36, Type 0, BuildingBlock: NAWXER_clean_sbu_0, # of connection points: 4
#     Node 37, Type 0, BuildingBlock: NAWXER_clean_sbu_0, # of connection points: 4
#     Node 38, Type 0, BuildingBlock: NAWXER_clean_sbu_0, # of connection points: 4
#     Node 39, Type 0, BuildingBlock: NAWXER_clean_sbu_0, # of connection points: 4
#     Node 40, Type 0, BuildingBlock: NAWXER_clean_sbu_0, # of connection points: 4
#     Node 41, Type 0, BuildingBlock: NAWXER_clean_sbu_0, # of connection points: 4
#     Node 42, Type 0, BuildingBlock: NAWXER_clean_sbu_0, # of connection points: 4
#     Node 43, Type 0, BuildingBlock: NAWXER_clean_sbu_0, # of connection points: 4
#     Node 44, Type 0, BuildingBlock: NAWXER_clean_sbu_0, # of connection points: 4
#     Node 45, Type 0, BuildingBlock: NAWXER_clean_sbu_0, # of connection points: 4
#     Node 46, Type 0, BuildingBlock: NAWXER_clean_sbu_0, # of connection points: 4
#     Node 47, Type 0, BuildingBlock: NAWXER_clean_sbu_0, # of connection points: 4
#     Node 48, Type 0, BuildingBlock: NAWXER_clean_sbu_0, # of connection points: 4
#     Node 49, Type 0, BuildingBlock: NAWXER_clean_sbu_0, # of connection points: 4
#     Node 50, Type 0, BuildingBlock: NAWXER_clean_sbu_0, # of connection points: 4
#     Node 51, Type 0, BuildingBlock: NAWXER_clean_sbu_0, # of connection points: 4
#     Node 52, Type 0, BuildingBlock: NAWXER_clean_sbu_0, # of connection points: 4
#     Node 53, Type 0, BuildingBlock: NAWXER_clean_sbu_0, # of connection points: 4
#     Node 54, Type 0, BuildingBlock: NAWXER_clean_sbu_0, # of connection points: 4
#     Node 55, Type 0, BuildingBlock: NAWXER_clean_sbu_0, # of connection points: 4
#     Node 56, Type 0, BuildingBlock: NAWXER_clean_sbu_0, # of connection points: 4
#     Node 57, Type 0, BuildingBlock: NAWXER_clean_sbu_0, # of connection points: 4
#     Node 58, Type 0, BuildingBlock: NAWXER_clean_sbu_0, # of connection points: 4
#     Node 59, Type 0, BuildingBlock: NAWXER_clean_sbu_0, # of connection points: 4
#     Node 60, Type 0, BuildingBlock: NAWXER_clean_sbu_0, # of connection points: 4
#     Node 61, Type 0, BuildingBlock: NAWXER_clean_sbu_0, # of connection points: 4
#     Node 62, Type 0, BuildingBlock: NAWXER_clean_sbu_0, # of connection points: 4
#     Node 63, Type 0, BuildingBlock: NAWXER_clean_sbu_0, # of connection points: 4
#     Node 64, Type 0, BuildingBlock: NAWXER_clean_sbu_0, # of connection points: 4
#     Node 65, Type 0, BuildingBlock: NAWXER_clean_sbu_0, # of connection points: 4
#     Node 66, Type 0, BuildingBlock: NAWXER_clean_sbu_0, # of connection points: 4
#     Node 67, Type 0, BuildingBlock: NAWXER_clean_sbu_0, # of connection points: 4
#     Node 68, Type 0, BuildingBlock: NAWXER_clean_sbu_0, # of connection points: 4
#     Node 69, Type 0, BuildingBlock: NAWXER_clean_sbu_0, # of connection points: 4
#     Node 70, Type 0, BuildingBlock: NAWXER_clean_sbu_0, # of connection points: 4
#     Node 71, Type 0, BuildingBlock: NAWXER_clean_sbu_0, # of connection points: 4
#     Node 72, Type 0, BuildingBlock: NAWXER_clean_sbu_0, # of connection points: 4
#     Node 73, Type 0, BuildingBlock: NAWXER_clean_sbu_0, # of connection points: 4
#     Node 74, Type 0, BuildingBlock: NAWXER_clean_sbu_0, # of connection points: 4
#     Node 75, Type 0, BuildingBlock: NAWXER_clean_sbu_0, # of connection points: 4
#     Node 76, Type 0, BuildingBlock: NAWXER_clean_sbu_0, # of connection points: 4
#     Node 77, Type 0, BuildingBlock: NAWXER_clean_sbu_0, # of connection points: 4
#     Node 78, Type 0, BuildingBlock: NAWXER_clean_sbu_0, # of connection points: 4
#     Node 79, Type 0, BuildingBlock: NAWXER_clean_sbu_0, # of connection points: 4
#     Node 80, Type 0, BuildingBlock: NAWXER_clean_sbu_0, # of connection points: 4
#     Node 81, Type 0, BuildingBlock: NAWXER_clean_sbu_0, # of connection points: 4
#     Node 82, Type 0, BuildingBlock: NAWXER_clean_sbu_0, # of connection points: 4
#     Node 83, Type 0, BuildingBlock: NAWXER_clean_sbu_0, # of connection points: 4
#     Node 84, Type 0, BuildingBlock: NAWXER_clean_sbu_0, # of connection points: 4
#     Node 85, Type 0, BuildingBlock: NAWXER_clean_sbu_0, # of connection points: 4
#     Node 86, Type 0, BuildingBlock: NAWXER_clean_sbu_0, # of connection points: 4
#     Node 87, Type 0, BuildingBlock: NAWXER_clean_sbu_0, # of connection points: 4
#     Node 88, Type 0, BuildingBlock: NAWXER_clean_sbu_0, # of connection points: 4
#     Node 89, Type 0, BuildingBlock: NAWXER_clean_sbu_0, # of connection points: 4
#     Node 90, Type 0, BuildingBlock: NAWXER_clean_sbu_0, # of connection points: 4
#     Node 91, Type 0, BuildingBlock: NAWXER_clean_sbu_0, # of connection points: 4
#     Node 92, Type 0, BuildingBlock: NAWXER_clean_sbu_0, # of connection points: 4
#     Node 93, Type 0, BuildingBlock: NAWXER_clean_sbu_0, # of connection points: 4
#     Node 94, Type 0, BuildingBlock: NAWXER_clean_sbu_0, # of connection points: 4
#     Node 95, Type 0, BuildingBlock: NAWXER_clean_sbu_0, # of connection points: 4
#     Edge 96, Type (0, 0), BuildingBlock: CIFDUS_clean_linker_0, # of connection points: 2
#     Edge 97, Type (0, 0), BuildingBlock: CIFDUS_clean_linker_0, # of connection points: 2
#     Edge 98, Type (0, 0), BuildingBlock: CIFDUS_clean_linker_0, # of connection points: 2
#     Edge 99, Type (0, 0), BuildingBlock: CIFDUS_clean_linker_0, # of connection points: 2
#     Edge 100, Type (0, 0), BuildingBlock: CIFDUS_clean_linker_0, # of connection points: 2
#     Edge 101, Type (0, 0), BuildingBlock: CIFDUS_clean_linker_0, # of connection points: 2
#     Edge 102, Type (0, 0), BuildingBlock: CIFDUS_clean_linker_0, # of connection points: 2
#     Edge 103, Type (0, 0), BuildingBlock: CIFDUS_clean_linker_0, # of connection points: 2
#     Edge 104, Type (0, 0), BuildingBlock: CIFDUS_clean_linker_0, # of connection points: 2
#     Edge 105, Type (0, 0), BuildingBlock: CIFDUS_clean_linker_0, # of connection points: 2
#     Edge 106, Type (0, 0), BuildingBlock: CIFDUS_clean_linker_0, # of connection points: 2
#     Edge 107, Type (0, 0), BuildingBlock: CIFDUS_clean_linker_0, # of connection points: 2
#     Edge 108, Type (0, 0), BuildingBlock: CIFDUS_clean_linker_0, # of connection points: 2
#     Edge 109, Type (0, 0), BuildingBlock: CIFDUS_clean_linker_0, # of connection points: 2
#     Edge 110, Type (0, 0), BuildingBlock: CIFDUS_clean_linker_0, # of connection points: 2
#     Edge 111, Type (0, 0), BuildingBlock: CIFDUS_clean_linker_0, # of connection points: 2
#     Edge 112, Type (0, 0), BuildingBlock: CIFDUS_clean_linker_0, # of connection points: 2
#     Edge 113, Type (0, 0), BuildingBlock: CIFDUS_clean_linker_0, # of connection points: 2
#     Edge 114, Type (0, 0), BuildingBlock: CIFDUS_clean_linker_0, # of connection points: 2
#     Edge 115, Type (0, 0), BuildingBlock: CIFDUS_clean_linker_0, # of connection points: 2
#     Edge 116, Type (0, 0), BuildingBlock: CIFDUS_clean_linker_0, # of connection points: 2
#     Edge 117, Type (0, 0), BuildingBlock: CIFDUS_clean_linker_0, # of connection points: 2
#     Edge 118, Type (0, 0), BuildingBlock: CIFDUS_clean_linker_0, # of connection points: 2
#     Edge 119, Type (0, 0), BuildingBlock: CIFDUS_clean_linker_0, # of connection points: 2
#     Edge 120, Type (0, 0), BuildingBlock: CIFDUS_clean_linker_0, # of connection points: 2
#     Edge 121, Type (0, 0), BuildingBlock: CIFDUS_clean_linker_0, # of connection points: 2
#     Edge 122, Type (0, 0), BuildingBlock: CIFDUS_clean_linker_0, # of connection points: 2
#     Edge 123, Type (0, 0), BuildingBlock: CIFDUS_clean_linker_0, # of connection points: 2
#     Edge 124, Type (0, 0), BuildingBlock: CIFDUS_clean_linker_0, # of connection points: 2
#     Edge 125, Type (0, 0), BuildingBlock: CIFDUS_clean_linker_0, # of connection points: 2
#     Edge 126, Type (0, 0), BuildingBlock: CIFDUS_clean_linker_0, # of connection points: 2
#     Edge 127, Type (0, 0), BuildingBlock: CIFDUS_clean_linker_0, # of connection points: 2
#     Edge 128, Type (0, 0), BuildingBlock: CIFDUS_clean_linker_0, # of connection points: 2
#     Edge 129, Type (0, 0), BuildingBlock: CIFDUS_clean_linker_0, # of connection points: 2
#     Edge 130, Type (0, 0), BuildingBlock: CIFDUS_clean_linker_0, # of connection points: 2
#     Edge 131, Type (0, 0), BuildingBlock: CIFDUS_clean_linker_0, # of connection points: 2
#     Edge 132, Type (0, 0), BuildingBlock: CIFDUS_clean_linker_0, # of connection points: 2
#     Edge 133, Type (0, 0), BuildingBlock: CIFDUS_clean_linker_0, # of connection points: 2
#     Edge 134, Type (0, 0), BuildingBlock: CIFDUS_clean_linker_0, # of connection points: 2
#     Edge 135, Type (0, 0), BuildingBlock: CIFDUS_clean_linker_0, # of connection points: 2
#     Edge 136, Type (0, 0), BuildingBlock: CIFDUS_clean_linker_0, # of connection points: 2
#     Edge 137, Type (0, 0), BuildingBlock: CIFDUS_clean_linker_0, # of connection points: 2
#     Edge 138, Type (0, 0), BuildingBlock: CIFDUS_clean_linker_0, # of connection points: 2
#     Edge 139, Type (0, 0), BuildingBlock: CIFDUS_clean_linker_0, # of connection points: 2
#     Edge 140, Type (0, 0), BuildingBlock: CIFDUS_clean_linker_0, # of connection points: 2
#     Edge 141, Type (0, 0), BuildingBlock: CIFDUS_clean_linker_0, # of connection points: 2
#     Edge 142, Type (0, 0), BuildingBlock: CIFDUS_clean_linker_0, # of connection points: 2
#     Edge 143, Type (0, 0), BuildingBlock: CIFDUS_clean_linker_0, # of connection points: 2
#     Edge 144, Type (0, 0), BuildingBlock: CIFDUS_clean_linker_0, # of connection points: 2
#     Edge 145, Type (0, 0), BuildingBlock: CIFDUS_clean_linker_0, # of connection points: 2
#     Edge 146, Type (0, 0), BuildingBlock: CIFDUS_clean_linker_0, # of connection points: 2
#     Edge 147, Type (0, 0), BuildingBlock: CIFDUS_clean_linker_0, # of connection points: 2
#     Edge 148, Type (0, 0), BuildingBlock: CIFDUS_clean_linker_0, # of connection points: 2
#     Edge 149, Type (0, 0), BuildingBlock: CIFDUS_clean_linker_0, # of connection points: 2
#     Edge 150, Type (0, 0), BuildingBlock: CIFDUS_clean_linker_0, # of connection points: 2
#     Edge 151, Type (0, 0), BuildingBlock: CIFDUS_clean_linker_0, # of connection points: 2
#     Edge 152, Type (0, 0), BuildingBlock: CIFDUS_clean_linker_0, # of connection points: 2
#     Edge 153, Type (0, 0), BuildingBlock: CIFDUS_clean_linker_0, # of connection points: 2
#     Edge 154, Type (0, 0), BuildingBlock: CIFDUS_clean_linker_0, # of connection points: 2
#     Edge 155, Type (0, 0), BuildingBlock: CIFDUS_clean_linker_0, # of connection points: 2
#     Edge 156, Type (0, 0), BuildingBlock: CIFDUS_clean_linker_0, # of connection points: 2
#     Edge 157, Type (0, 0), BuildingBlock: CIFDUS_clean_linker_0, # of connection points: 2
#     Edge 158, Type (0, 0), BuildingBlock: CIFDUS_clean_linker_0, # of connection points: 2
#     Edge 159, Type (0, 0), BuildingBlock: CIFDUS_clean_linker_0, # of connection points: 2
#     Edge 160, Type (0, 0), BuildingBlock: CIFDUS_clean_linker_0, # of connection points: 2
#     Edge 161, Type (0, 0), BuildingBlock: CIFDUS_clean_linker_0, # of connection points: 2
#     Edge 162, Type (0, 0), BuildingBlock: CIFDUS_clean_linker_0, # of connection points: 2
#     Edge 163, Type (0, 0), BuildingBlock: CIFDUS_clean_linker_0, # of connection points: 2
#     Edge 164, Type (0, 0), BuildingBlock: CIFDUS_clean_linker_0, # of connection points: 2
#     Edge 165, Type (0, 0), BuildingBlock: CIFDUS_clean_linker_0, # of connection points: 2
#     Edge 166, Type (0, 0), BuildingBlock: CIFDUS_clean_linker_0, # of connection points: 2
#     Edge 167, Type (0, 0), BuildingBlock: CIFDUS_clean_linker_0, # of connection points: 2
#     Edge 168, Type (0, 0), BuildingBlock: CIFDUS_clean_linker_0, # of connection points: 2
#     Edge 169, Type (0, 0), BuildingBlock: CIFDUS_clean_linker_0, # of connection points: 2
#     Edge 170, Type (0, 0), BuildingBlock: CIFDUS_clean_linker_0, # of connection points: 2
#     Edge 171, Type (0, 0), BuildingBlock: CIFDUS_clean_linker_0, # of connection points: 2
#     Edge 172, Type (0, 0), BuildingBlock: CIFDUS_clean_linker_0, # of connection points: 2
#     Edge 173, Type (0, 0), BuildingBlock: CIFDUS_clean_linker_0, # of connection points: 2
#     Edge 174, Type (0, 0), BuildingBlock: CIFDUS_clean_linker_0, # of connection points: 2
#     Edge 175, Type (0, 0), BuildingBlock: CIFDUS_clean_linker_0, # of connection points: 2
#     Edge 176, Type (0, 0), BuildingBlock: CIFDUS_clean_linker_0, # of connection points: 2
#     Edge 177, Type (0, 0), BuildingBlock: CIFDUS_clean_linker_0, # of connection points: 2
#     Edge 178, Type (0, 0), BuildingBlock: CIFDUS_clean_linker_0, # of connection points: 2
#     Edge 179, Type (0, 0), BuildingBlock: CIFDUS_clean_linker_0, # of connection points: 2
#     Edge 180, Type (0, 0), BuildingBlock: CIFDUS_clean_linker_0, # of connection points: 2
#     Edge 181, Type (0, 0), BuildingBlock: CIFDUS_clean_linker_0, # of connection points: 2
#     Edge 182, Type (0, 0), BuildingBlock: CIFDUS_clean_linker_0, # of connection points: 2
#     Edge 183, Type (0, 0), BuildingBlock: CIFDUS_clean_linker_0, # of connection points: 2
#     Edge 184, Type (0, 0), BuildingBlock: CIFDUS_clean_linker_0, # of connection points: 2
#     Edge 185, Type (0, 0), BuildingBlock: CIFDUS_clean_linker_0, # of connection points: 2
#     Edge 186, Type (0, 0), BuildingBlock: CIFDUS_clean_linker_0, # of connection points: 2
#     Edge 187, Type (0, 0), BuildingBlock: CIFDUS_clean_linker_0, # of connection points: 2
#     Edge 188, Type (0, 0), BuildingBlock: CIFDUS_clean_linker_0, # of connection points: 2
#     Edge 189, Type (0, 0), BuildingBlock: CIFDUS_clean_linker_0, # of connection points: 2
#     Edge 190, Type (0, 0), BuildingBlock: CIFDUS_clean_linker_0, # of connection points: 2
#     Edge 191, Type (0, 0), BuildingBlock: CIFDUS_clean_linker_0, # of connection points: 2
#     Edge 192, Type (0, 0), BuildingBlock: CIFDUS_clean_linker_0, # of connection points: 2
#     Edge 193, Type (0, 0), BuildingBlock: CIFDUS_clean_linker_0, # of connection points: 2
#     Edge 194, Type (0, 0), BuildingBlock: CIFDUS_clean_linker_0, # of connection points: 2
#     Edge 195, Type (0, 0), BuildingBlock: CIFDUS_clean_linker_0, # of connection points: 2
#     Edge 196, Type (0, 0), BuildingBlock: CIFDUS_clean_linker_0, # of connection points: 2
#     Edge 197, Type (0, 0), BuildingBlock: CIFDUS_clean_linker_0, # of connection points: 2
#     Edge 198, Type (0, 0), BuildingBlock: CIFDUS_clean_linker_0, # of connection points: 2
#     Edge 199, Type (0, 0), BuildingBlock: CIFDUS_clean_linker_0, # of connection points: 2
#     Edge 200, Type (0, 0), BuildingBlock: CIFDUS_clean_linker_0, # of connection points: 2
#     Edge 201, Type (0, 0), BuildingBlock: CIFDUS_clean_linker_0, # of connection points: 2
#     Edge 202, Type (0, 0), BuildingBlock: CIFDUS_clean_linker_0, # of connection points: 2
#     Edge 203, Type (0, 0), BuildingBlock: CIFDUS_clean_linker_0, # of connection points: 2
#     Edge 204, Type (0, 0), BuildingBlock: CIFDUS_clean_linker_0, # of connection points: 2
#     Edge 205, Type (0, 0), BuildingBlock: CIFDUS_clean_linker_0, # of connection points: 2
#     Edge 206, Type (0, 0), BuildingBlock: CIFDUS_clean_linker_0, # of connection points: 2
#     Edge 207, Type (0, 0), BuildingBlock: CIFDUS_clean_linker_0, # of connection points: 2
#     Edge 208, Type (0, 0), BuildingBlock: CIFDUS_clean_linker_0, # of connection points: 2
#     Edge 209, Type (0, 0), BuildingBlock: CIFDUS_clean_linker_0, # of connection points: 2
#     Edge 210, Type (0, 0), BuildingBlock: CIFDUS_clean_linker_0, # of connection points: 2
#     Edge 211, Type (0, 0), BuildingBlock: CIFDUS_clean_linker_0, # of connection points: 2
#     Edge 212, Type (0, 0), BuildingBlock: CIFDUS_clean_linker_0, # of connection points: 2
#     Edge 213, Type (0, 0), BuildingBlock: CIFDUS_clean_linker_0, # of connection points: 2
#     Edge 214, Type (0, 0), BuildingBlock: CIFDUS_clean_linker_0, # of connection points: 2
#     Edge 215, Type (0, 0), BuildingBlock: CIFDUS_clean_linker_0, # of connection points: 2
#     Edge 216, Type (0, 0), BuildingBlock: CIFDUS_clean_linker_0, # of connection points: 2
#     Edge 217, Type (0, 0), BuildingBlock: CIFDUS_clean_linker_0, # of connection points: 2
#     Edge 218, Type (0, 0), BuildingBlock: CIFDUS_clean_linker_0, # of connection points: 2
#     Edge 219, Type (0, 0), BuildingBlock: CIFDUS_clean_linker_0, # of connection points: 2
#     Edge 220, Type (0, 0), BuildingBlock: CIFDUS_clean_linker_0, # of connection points: 2
#     Edge 221, Type (0, 0), BuildingBlock: CIFDUS_clean_linker_0, # of connection points: 2
#     Edge 222, Type (0, 0), BuildingBlock: CIFDUS_clean_linker_0, # of connection points: 2
#     Edge 223, Type (0, 0), BuildingBlock: CIFDUS_clean_linker_0, # of connection points: 2
#     Edge 224, Type (0, 0), BuildingBlock: CIFDUS_clean_linker_0, # of connection points: 2
#     Edge 225, Type (0, 0), BuildingBlock: CIFDUS_clean_linker_0, # of connection points: 2
#     Edge 226, Type (0, 0), BuildingBlock: CIFDUS_clean_linker_0, # of connection points: 2
#     Edge 227, Type (0, 0), BuildingBlock: CIFDUS_clean_linker_0, # of connection points: 2
#     Edge 228, Type (0, 0), BuildingBlock: CIFDUS_clean_linker_0, # of connection points: 2
#     Edge 229, Type (0, 0), BuildingBlock: CIFDUS_clean_linker_0, # of connection points: 2
#     Edge 230, Type (0, 0), BuildingBlock: CIFDUS_clean_linker_0, # of connection points: 2
#     Edge 231, Type (0, 0), BuildingBlock: CIFDUS_clean_linker_0, # of connection points: 2
#     Edge 232, Type (0, 0), BuildingBlock: CIFDUS_clean_linker_0, # of connection points: 2
#     Edge 233, Type (0, 0), BuildingBlock: CIFDUS_clean_linker_0, # of connection points: 2
#     Edge 234, Type (0, 0), BuildingBlock: CIFDUS_clean_linker_0, # of connection points: 2
#     Edge 235, Type (0, 0), BuildingBlock: CIFDUS_clean_linker_0, # of connection points: 2
#     Edge 236, Type (0, 0), BuildingBlock: CIFDUS_clean_linker_0, # of connection points: 2
#     Edge 237, Type (0, 0), BuildingBlock: CIFDUS_clean_linker_0, # of connection points: 2
#     Edge 238, Type (0, 0), BuildingBlock: CIFDUS_clean_linker_0, # of connection points: 2
#     Edge 239, Type (0, 0), BuildingBlock: CIFDUS_clean_linker_0, # of connection points: 2
#     Edge 240, Type (0, 0), BuildingBlock: CIFDUS_clean_linker_0, # of connection points: 2
#     Edge 241, Type (0, 0), BuildingBlock: CIFDUS_clean_linker_0, # of connection points: 2
#     Edge 242, Type (0, 0), BuildingBlock: CIFDUS_clean_linker_0, # of connection points: 2
#     Edge 243, Type (0, 0), BuildingBlock: CIFDUS_clean_linker_0, # of connection points: 2
#     Edge 244, Type (0, 0), BuildingBlock: CIFDUS_clean_linker_0, # of connection points: 2
#     Edge 245, Type (0, 0), BuildingBlock: CIFDUS_clean_linker_0, # of connection points: 2
#     Edge 246, Type (0, 0), BuildingBlock: CIFDUS_clean_linker_0, # of connection points: 2
#     Edge 247, Type (0, 0), BuildingBlock: CIFDUS_clean_linker_0, # of connection points: 2
#     Edge 248, Type (0, 0), BuildingBlock: CIFDUS_clean_linker_0, # of connection points: 2
#     Edge 249, Type (0, 0), BuildingBlock: CIFDUS_clean_linker_0, # of connection points: 2
#     Edge 250, Type (0, 0), BuildingBlock: CIFDUS_clean_linker_0, # of connection points: 2
#     Edge 251, Type (0, 0), BuildingBlock: CIFDUS_clean_linker_0, # of connection points: 2
#     Edge 252, Type (0, 0), BuildingBlock: CIFDUS_clean_linker_0, # of connection points: 2
#     Edge 253, Type (0, 0), BuildingBlock: CIFDUS_clean_linker_0, # of connection points: 2
#     Edge 254, Type (0, 0), BuildingBlock: CIFDUS_clean_linker_0, # of connection points: 2
#     Edge 255, Type (0, 0), BuildingBlock: CIFDUS_clean_linker_0, # of connection points: 2
#     Edge 256, Type (0, 0), BuildingBlock: CIFDUS_clean_linker_0, # of connection points: 2
#     Edge 257, Type (0, 0), BuildingBlock: CIFDUS_clean_linker_0, # of connection points: 2
#     Edge 258, Type (0, 0), BuildingBlock: CIFDUS_clean_linker_0, # of connection points: 2
#     Edge 259, Type (0, 0), BuildingBlock: CIFDUS_clean_linker_0, # of connection points: 2
#     Edge 260, Type (0, 0), BuildingBlock: CIFDUS_clean_linker_0, # of connection points: 2
#     Edge 261, Type (0, 0), BuildingBlock: CIFDUS_clean_linker_0, # of connection points: 2
#     Edge 262, Type (0, 0), BuildingBlock: CIFDUS_clean_linker_0, # of connection points: 2
#     Edge 263, Type (0, 0), BuildingBlock: CIFDUS_clean_linker_0, # of connection points: 2
#     Edge 264, Type (0, 0), BuildingBlock: CIFDUS_clean_linker_0, # of connection points: 2
#     Edge 265, Type (0, 0), BuildingBlock: CIFDUS_clean_linker_0, # of connection points: 2
#     Edge 266, Type (0, 0), BuildingBlock: CIFDUS_clean_linker_0, # of connection points: 2
#     Edge 267, Type (0, 0), BuildingBlock: CIFDUS_clean_linker_0, # of connection points: 2
#     Edge 268, Type (0, 0), BuildingBlock: CIFDUS_clean_linker_0, # of connection points: 2
#     Edge 269, Type (0, 0), BuildingBlock: CIFDUS_clean_linker_0, # of connection points: 2
#     Edge 270, Type (0, 0), BuildingBlock: CIFDUS_clean_linker_0, # of connection points: 2
#     Edge 271, Type (0, 0), BuildingBlock: CIFDUS_clean_linker_0, # of connection points: 2
#     Edge 272, Type (0, 0), BuildingBlock: CIFDUS_clean_linker_0, # of connection points: 2
#     Edge 273, Type (0, 0), BuildingBlock: CIFDUS_clean_linker_0, # of connection points: 2
#     Edge 274, Type (0, 0), BuildingBlock: CIFDUS_clean_linker_0, # of connection points: 2
#     Edge 275, Type (0, 0), BuildingBlock: CIFDUS_clean_linker_0, # of connection points: 2
#     Edge 276, Type (0, 0), BuildingBlock: CIFDUS_clean_linker_0, # of connection points: 2
#     Edge 277, Type (0, 0), BuildingBlock: CIFDUS_clean_linker_0, # of connection points: 2
#     Edge 278, Type (0, 0), BuildingBlock: CIFDUS_clean_linker_0, # of connection points: 2
#     Edge 279, Type (0, 0), BuildingBlock: CIFDUS_clean_linker_0, # of connection points: 2
#     Edge 280, Type (0, 0), BuildingBlock: CIFDUS_clean_linker_0, # of connection points: 2
#     Edge 281, Type (0, 0), BuildingBlock: CIFDUS_clean_linker_0, # of connection points: 2
#     Edge 282, Type (0, 0), BuildingBlock: CIFDUS_clean_linker_0, # of connection points: 2
#     Edge 283, Type (0, 0), BuildingBlock: CIFDUS_clean_linker_0, # of connection points: 2
#     Edge 284, Type (0, 0), BuildingBlock: CIFDUS_clean_linker_0, # of connection points: 2
#     Edge 285, Type (0, 0), BuildingBlock: CIFDUS_clean_linker_0, # of connection points: 2
#     Edge 286, Type (0, 0), BuildingBlock: CIFDUS_clean_linker_0, # of connection points: 2
#     Edge 287, Type (0, 0), BuildingBlock: CIFDUS_clean_linker_0, # of connection points: 2
# Relax obj value: 0.131
# Max RMSD: 0.268
# Mean RMSD: 0.268
data_MOF--net-ukw--node1-NAWXER_clean_sbu_0--edge1-CIFDUS_clean_linker_0
_symmetry_space_group_name_H-M    P1
_symmetry_Int_Tables_number       1
_symmetry_cell_setting            triclinic
loop_
_symmetry_equiv_pos_as_xyz
'x, y, z'
_cell_length_a     66.628065
_cell_length_b     66.613945
_cell_length_c     66.6565
_cell_angle_alpha  90.038634
_cell_angle_beta   89.982122
_cell_angle_gamma 89.97477
loop_
_atom_site_label
_atom_site_type_symbol
_atom_site_fract_x
_atom_site_fract_y
_atom_site_fract_z
_atom_type_partial_charge
C0 C 0.99743 0.07139 0.36476 0.0
C1 C 0.06648 0.08014 0.3432 0.0
O2 O 0.00192 0.09003 0.36282 0.0
Zn3 Zn 0.02773 0.10727 0.35302 0.0
O4 O 0.01029 0.05804 0.3603 0.0
Zn5 Zn 0.03131 0.07609 0.35244 0.0
O6 O 0.0389 0.09078 0.38058 0.0
O7 O 0.03253 0.1231 0.37652 0.0
O8 O 0.05648 0.06408 0.34521 0.0
O9 O 0.05769 0.09717 0.34528 0.0
O10 O 0.018 0.12138 0.32983 0.0
O11 O 0.01882 0.08868 0.32525 0.0
C12 C 0.03848 0.10875 0.38755 0.0
C13 C 0.01437 0.1063 0.31881 0.0
C14 C 0.1815 0.756 0.60983 0.0
C15 C 0.15839 0.82306 0.59277 0.0
O16 O 0.1623 0.75742 0.6107 0.0
Zn17 Zn 0.13984 0.78012 0.60448 0.0
O18 O 0.19185 0.7709 0.60399 0.0
Zn19 Zn 0.16962 0.7887 0.59938 0.0
O20 O 0.1582 0.79334 0.62975 0.0
O21 O 0.12713 0.78158 0.63009 0.0
O22 O 0.17578 0.81559 0.59063 0.0
O23 O 0.14373 0.81158 0.59769 0.0
O24 O 0.12424 0.76885 0.58286 0.0
O25 O 0.15563 0.77413 0.57417 0.0
C26 C 0.14175 0.78975 0.63919 0.0
C27 C 0.13815 0.76725 0.56998 0.0
C28 C 0.46247 0.88897 0.88773 0.0
C29 C 0.49144 0.88812 0.8206 0.0
O30 O 0.4615 0.90632 0.87931 0.0
Zn31 Zn 0.47036 0.91935 0.85053 0.0
O32 O 0.46998 0.87418 0.87828 0.0
Zn33 Zn 0.47528 0.88843 0.85392 0.0
O34 O 0.49934 0.90768 0.86412 0.0
O35 O 0.48991 0.93901 0.85867 0.0
O36 O 0.48729 0.87347 0.83202 0.0
O37 O 0.48583 0.9058 0.8257 0.0
O38 O 0.44537 0.92906 0.83953 0.0
O39 O 0.44521 0.89635 0.84465 0.0
C40 C 0.50291 0.92658 0.86502 0.0
C41 C 0.43599 0.9125 0.83963 0.0
C42 C 0.32972 0.25492 0.11184 0.0
C43 C 0.3415 0.18778 0.08663 0.0
O44 O 0.34847 0.25048 0.11243 0.0
Zn45 Zn 0.36692 0.22518 0.10332 0.0
O46 O 0.31737 0.24257 0.10426 0.0
Zn47 Zn 0.33646 0.22217 0.09751 0.0
O48 O 0.3468 0.21188 0.12722 0.0
O49 O 0.3793 0.2187 0.12799 0.0
O50 O 0.32565 0.19825 0.0855 0.0
O51 O 0.35782 0.19579 0.09297 0.0
O52 O 0.38471 0.23557 0.08328 0.0
O53 O 0.35319 0.23642 0.07364 0.0
C54 C 0.36374 0.21178 0.13652 0.0
C55 C 0.37173 0.24043 0.0703 0.0
C56 C 1.00032 0.92457 0.14841 0.0
C57 C 0.06777 0.90297 0.16526 0.0
O58 O 0.00252 0.90559 0.14591 0.0
Zn59 Zn 0.0261 0.88368 0.15059 0.0
O60 O 0.01476 0.93496 0.15525 0.0
Zn61 Zn 0.03332 0.91318 0.15836 0.0
O62 O 0.03952 0.90441 0.12725 0.0
O63 O 0.02888 0.87311 0.12417 0.0
O64 O 0.05956 0.91984 0.16853 0.0
O65 O 0.05708 0.88833 0.15876 0.0
O66 O 0.01532 0.8657 0.17041 0.0
O67 O 0.01895 0.8964 0.18201 0.0
C68 C 0.03692 0.88859 0.11648 0.0
C69 C 0.01291 0.87829 0.18447 0.0
C70 C 0.37014 0.79073 0.36791 0.0
C71 C 0.35882 0.76898 0.43644 0.0
O72 O 0.35131 0.78908 0.37161 0.0
Zn73 Zn 0.33295 0.78192 0.39744 0.0
O74 O 0.38278 0.7873 0.38171 0.0
Zn75 Zn 0.36373 0.78122 0.40247 0.0
O76 O 0.35007 0.75287 0.39269 0.0
O77 O 0.31802 0.75971 0.38749 0.0
O78 O 0.37498 0.77414 0.42782 0.0
O79 O 0.34205 0.77127 0.42715 0.0
O80 O 0.31776 0.80613 0.40127 0.0
O81 O 0.34999 0.81021 0.40739 0.0
C82 C 0.33237 0.74719 0.38747 0.0
C83 C 0.33223 0.81752 0.40597 0.0
C84 C 0.46346 0.11729 0.6123 0.0
C85 C 0.48592 0.11207 0.68078 0.0
O86 O 0.46462 0.09873 0.6174 0.0
Zn87 Zn 0.47201 0.08265 0.64503 0.0
O88 O 0.46782 0.13091 0.62484 0.0
Zn89 Zn 0.47404 0.11362 0.64648 0.0
O90 O 0.50127 0.09805 0.63638 0.0
O91 O 0.49352 0.06582 0.63699 0.0
O92 O 0.48177 0.12727 0.67018 0.0
O93 O 0.48315 0.09441 0.67351 0.0
O94 O 0.44737 0.06884 0.65088 0.0
O95 O 0.44477 0.10171 0.65351 0.0
C96 C 0.50625 0.07958 0.63371 0.0
C97 C 0.43674 0.08424 0.65427 0.0
C98 C 0.15172 0.18867 0.90746 0.0
C99 C 0.16441 0.25446 0.88076 0.0
O100 O 0.13511 0.19668 0.90185 0.0
Zn101 Zn 0.12633 0.2266 0.892 0.0
O102 O 0.16764 0.19897 0.90747 0.0
Zn103 Zn 0.1568 0.2226 0.89566 0.0
O104 O 0.14259 0.23865 0.92005 0.0
O105 O 0.11039 0.23832 0.91308 0.0
O106 O 0.17648 0.24134 0.88743 0.0
O107 O 0.1454 0.2512 0.8815 0.0
O108 O 0.11204 0.22094 0.86812 0.0
O109 O 0.14426 0.21298 0.86656 0.0
C110 C 0.12454 0.24355 0.92463 0.0
C111 C 0.12677 0.21378 0.85839 0.0
C112 C 0.3223 0.0147 0.11085 0.0
C113 C 0.39168 0.03657 0.10532 0.0
O114 O 0.32615 0.02129 0.09318 0.0
Zn115 Zn 0.35159 0.0341 0.0779 0.0
O116 O 0.33596 0.0151 0.12407 0.0
Zn117 Zn 0.35726 0.02563 0.10765 0.0
O118 O 0.3499 0.05692 0.10329 0.0
O119 O 0.34297 0.06086 0.07116 0.0
O120 O 0.38305 0.02789 0.11993 0.0
O121 O 0.38198 0.03965 0.08893 0.0
O122 O 0.35547 0.01558 0.05606 0.0
O123 O 0.36274 0.00254 0.0856 0.0
C124 C 0.345 0.06833 0.08858 0.0
C125 C 0.36138 1.00077 0.06648 0.0
C126 C 0.25305 0.12103 0.32757 0.0
C127 C 0.18415 0.09854 0.33379 0.0
O128 O 0.24844 0.11799 0.34604 0.0
Zn129 Zn 0.2221 0.10749 0.36236 0.0
O130 O 0.24016 0.11749 0.31401 0.0
Zn131 Zn 0.21915 0.10851 0.33128 0.0
O132 O 0.21115 0.13596 0.34701 0.0
O133 O 0.21681 0.13031 0.37916 0.0
O134 O 0.19455 0.10173 0.3182 0.0
O135 O 0.19237 0.09981 0.35118 0.0
O136 O 0.23164 0.08368 0.37564 0.0
O137 O 0.23162 0.08064 0.34277 0.0
C138 C 0.21118 0.14207 0.36527 0.0
C139 C 0.23567 0.07336 0.36016 0.0
C140 C 0.14198 0.01099 0.56808 0.0
C141 C 0.16049 0.94251 0.58423 0.0
O142 O 0.14165 0.00821 0.58715 0.0
Zn143 Zn 0.14866 0.98338 0.60732 0.0
O144 O 0.14742 0.99679 0.55662 0.0
Zn145 Zn 0.15249 0.97731 0.57708 0.0
O146 O 0.12241 0.97126 0.58944 0.0
O147 O 0.12399 0.98093 0.62118 0.0
O148 O 0.1614 0.95169 0.56762 0.0
O149 O 0.15578 0.95217 0.60025 0.0
O150 O 0.17062 0.99301 0.6234 0.0
O151 O 0.1787 0.98976 0.59161 0.0
C152 C 0.11401 0.97377 0.60665 0.0
C153 C 0.18345 0.99499 0.60952 0.0
C154 C 0.31667 0.9024 0.84129 0.0
C155 C 0.24892 0.88567 0.82011 0.0
O156 O 0.30518 0.8993 0.85643 0.0
Zn157 Zn 0.27346 0.89438 0.86101 0.0
O158 O 0.30914 0.90296 0.82384 0.0
Zn159 Zn 0.28197 0.89581 0.831 0.0
O160 O 0.26821 0.92303 0.84217 0.0
O161 O 0.26337 0.91791 0.87438 0.0
O162 O 0.26407 0.88974 0.80926 0.0
O163 O 0.2503 0.88677 0.8393 0.0
O164 O 0.27344 0.87048 0.87653 0.0
O165 O 0.28494 0.86634 0.84564 0.0
C166 C 0.26185 0.92928 0.85923 0.0
C167 C 0.28073 0.85914 0.86306 0.0
C168 C 0.31431 0.98852 0.38898 0.0
C169 C 0.38294 0.96399 0.38425 0.0
O170 O 0.32138 0.98444 0.40643 0.0
Zn171 Zn 0.34891 0.97152 0.4181 0.0
O172 O 0.32456 0.98397 0.37362 0.0
Zn173 Zn 0.34826 0.97436 0.38713 0.0
O174 O 0.34113 0.9444 0.39815 0.0
O175 O 0.34194 0.94705 0.4311 0.0
O176 O 0.37109 0.96947 0.37038 0.0
O177 O 0.3768 0.96382 0.40253 0.0
O178 O 0.3573 0.99233 0.43579 0.0
O179 O 0.35862 1.00069 0.40374 0.0
C180 C 0.33959 0.93633 0.41559 0.0
C181 C 0.36111 0.00522 0.42232 0.0
C182 C 0.28848 0.14029 0.6357 0.0
C183 C 0.26726 0.07139 0.64372 0.0
O184 O 0.28982 0.13497 0.65415 0.0
Zn185 Zn 0.28397 0.1078 0.67114 0.0
O186 O 0.28304 0.12761 0.62261 0.0
Zn187 Zn 0.28002 0.10531 0.64043 0.0
O188 O 0.25358 0.11425 0.6578 0.0
O189 O 0.26396 0.11729 0.6892 0.0
O190 O 0.27153 0.08111 0.62795 0.0
O191 O 0.27115 0.0792 0.66095 0.0
O192 O 0.30915 0.10205 0.68343 0.0
O193 O 0.31034 0.09916 0.65051 0.0
C194 C 0.25006 0.11849 0.67627 0.0
C195 C 0.31914 0.09867 0.66764 0.0
C196 C 0.14204 0.00446 0.93282 0.0
C197 C 0.15961 0.06964 0.90642 0.0
O198 O 0.14105 0.0048 0.91359 0.0
Zn199 Zn 0.14779 0.02594 0.88989 0.0
O200 O 0.14872 0.01959 0.94229 0.0
Zn201 Zn 0.15352 0.03592 0.91917 0.0
O202 O 0.12313 0.04053 0.90788 0.0
O203 O 0.12194 0.02747 0.87735 0.0
O204 O 0.16224 0.06294 0.92404 0.0
O205 O 0.15472 0.05747 0.89232 0.0
O206 O 0.16928 0.01362 0.87472 0.0
O207 O 0.17842 0.02058 0.90564 0.0
C208 C 0.11332 0.03658 0.89176 0.0
C209 C 0.18237 0.01279 0.88849 0.0
C210 C 0.25659 0.89203 0.17613 0.0
C211 C 0.18673 0.9118 0.17111 0.0
O212 O 0.25171 0.89629 0.158 0.0
Zn213 Zn 0.22469 0.90543 0.14231 0.0
O214 O 0.2436 0.89321 0.19004 0.0
Zn215 Zn 0.2222 0.90313 0.17341 0.0
O216 O 0.21477 0.87607 0.15644 0.0
O217 O 0.2209 0.88332 0.12464 0.0
O218 O 0.19745 0.91017 0.18672 0.0
O219 O 0.19484 0.91023 0.15374 0.0
O220 O 0.23241 0.9301 0.12987 0.0
O221 O 0.23474 0.93134 0.16279 0.0
C222 C 0.21531 0.87084 0.13789 0.0
C223 C 0.23772 0.93945 0.14557 0.0
C224 C 0.09318 0.38446 0.99033 0.0
C225 C 0.09978 0.35605 0.05764 0.0
O226 O 0.11146 0.3799 0.99452 0.0
Zn227 Zn 0.12737 0.36602 0.01946 0.0
O228 O 0.07929 0.37956 0.00247 0.0
Zn229 Zn 0.09621 0.36728 0.02256 0.0
O230 O 0.11316 0.39382 0.03196 0.0
O231 O 0.14532 0.38688 0.02688 0.0
O232 O 0.08371 0.35856 0.04772 0.0
O233 O 0.11671 0.35811 0.04877 0.0
O234 O 0.13988 0.34265 0.00888 0.0
O235 O 0.107 0.34007 0.00794 0.0
C236 C 0.13175 0.3989 0.03278 0.0
C237 C 0.12442 0.33276 0.004 0.0
C238 C 0.5783 0.13545 0.001 0.0
C239 C 0.5888 0.15945 0.93329 0.0
O240 O 0.59704 0.13588 0.99656 0.0
Zn241 Zn 0.61504 0.14532 0.97122 0.0
O242 O 0.56548 0.14201 0.98853 0.0
Zn243 Zn 0.58414 0.14945 0.968 0.0
O244 O 0.59604 0.12025 0.95851 0.0
O245 O 0.62856 0.12078 0.96536 0.0
O246 O 0.57289 0.16016 0.9437 0.0
O247 O 0.60542 0.1543 0.94154 0.0
O248 O 0.63136 0.1669 0.9815 0.0
O249 O 0.59926 0.17444 0.98179 0.0
C250 C 0.61329 0.11158 0.9586 0.0
C251 C 0.61745 0.17907 0.98602 0.0
C252 C 0.06403 0.35951 0.23138 0.0
C253 C 0.13258 0.35866 0.20608 0.0
O254 O 0.06906 0.34198 0.22511 0.0
Zn255 Zn 0.09455 0.32874 0.20985 0.0
O256 O 0.07581 0.37416 0.22832 0.0
Zn257 Zn 0.09796 0.35924 0.21704 0.0
O258 O 0.09035 0.35349 0.18602 0.0
O259 O 0.0847 0.32097 0.18356 0.0
O260 O 0.12316 0.37302 0.21438 0.0
O261 O 0.1238 0.34172 0.20331 0.0
O262 O 0.10211 0.30768 0.22842 0.0
O263 O 0.10511 0.33833 0.24081 0.0
C264 C 0.08562 0.33814 0.17538 0.0
C265 C 0.10623 0.31924 0.24303 0.0
C266 C 0.90757 0.83539 0.43611 0.0
C267 C 0.91954 0.85811 0.5041 0.0
O268 O 0.89135 0.84166 0.44441 0.0
Zn269 Zn 0.88235 0.85115 0.47411 0.0
O270 O 0.92341 0.83356 0.44649 0.0
Zn271 Zn 0.91282 0.8448 0.4709 0.0
O272 O 0.89572 0.82072 0.48409 0.0
O273 O 0.86433 0.83087 0.48388 0.0
O274 O 0.93186 0.85057 0.49167 0.0
O275 O 0.90085 0.85917 0.49957 0.0
O276 O 0.87058 0.87647 0.46843 0.0
O277 O 0.90307 0.87493 0.46158 0.0
C278 C 0.87717 0.81748 0.48807 0.0
C279 C 0.88641 0.8847 0.46175 0.0
C280 C 0.93232 0.13641 0.23824 0.0
C281 C 0.86434 0.13086 0.21272 0.0
O282 O 0.92515 0.15382 0.23419 0.0
Zn283 Zn 0.89781 0.16529 0.2211 0.0
O284 O 0.92204 0.12099 0.23399 0.0
Zn285 Zn 0.89817 0.13428 0.22456 0.0
O286 O 0.90463 0.14458 0.19451 0.0
O287 O 0.90589 0.17761 0.19614 0.0
O288 O 0.87613 0.11718 0.21881 0.0
O289 O 0.87004 0.14933 0.21304 0.0
O290 O 0.88906 0.1832 0.24171 0.0
O291 O 0.88728 0.15126 0.25044 0.0
C292 C 0.90703 0.16161 0.18589 0.0
C293 C 0.88487 0.16993 0.25471 0.0
C294 C 0.38476 0.68778 0.51885 0.0
C295 C 0.37767 0.6191 0.54177 0.0
O296 O 0.40206 0.67993 0.52217 0.0
Zn297 Zn 0.41289 0.65138 0.53366 0.0
O298 O 0.36914 0.67784 0.5232 0.0
Zn299 Zn 0.38205 0.65347 0.53149 0.0
O300 O 0.39408 0.65945 0.56125 0.0
O301 O 0.42687 0.65699 0.55794 0.0
O302 O 0.36424 0.63185 0.53734 0.0
O303 O 0.39629 0.62401 0.54079 0.0
O304 O 0.42984 0.64302 0.51267 0.0
O305 O 0.39778 0.64323 0.50423 0.0
C306 C 0.41171 0.65983 0.56903 0.0
C307 C 0.41631 0.64027 0.4996 0.0
C308 C 0.12236 0.68308 0.25094 0.0
C309 C 0.09298 0.6739 0.31671 0.0
O310 O 0.11706 0.66472 0.2537 0.0
Zn311 Zn 0.10387 0.64741 0.27832 0.0
O312 O 0.11985 0.69592 0.2648 0.0
Zn313 Zn 0.10757 0.67805 0.28339 0.0
O314 O 0.13307 0.65963 0.29132 0.0
O315 O 0.1242 0.62828 0.28534 0.0
O316 O 0.09961 0.68975 0.3086 0.0
O317 O 0.09343 0.6573 0.30704 0.0
O318 O 0.08041 0.63648 0.26652 0.0
O319 O 0.07993 0.6696 0.2676 0.0
C320 C 0.13714 0.64082 0.29141 0.0
C321 C 0.07174 0.6529 0.26234 0.0
C322 C 0.39231 0.32366 0.7501 0.0
C323 C 0.40859 0.34683 0.81742 0.0
O324 O 0.39091 0.3428 0.75175 0.0
Zn325 Zn 0.39626 0.36523 0.77452 0.0
O326 O 0.39808 0.31328 0.76501 0.0
Zn327 Zn 0.40202 0.33541 0.78324 0.0
O328 O 0.37165 0.3463 0.78848 0.0
O329 O 0.37013 0.37728 0.77667 0.0
O330 O 0.41081 0.32934 0.81015 0.0
O331 O 0.40358 0.36135 0.80582 0.0
O332 O 0.41776 0.38128 0.76333 0.0
O333 O 0.42711 0.35021 0.76947 0.0
C334 C 0.36169 0.36252 0.78532 0.0
C335 C 0.43108 0.36768 0.76246 0.0
C336 C 0.00836 0.92362 0.63015 0.0
C337 C 0.94049 0.91273 0.65392 0.0
O338 O 0.99482 0.93637 0.63435 0.0
Zn339 Zn 0.97519 0.91763 0.6436 0.0
O340 O 0.00498 0.90485 0.633 0.0
Zn341 Zn 0.97998 0.88686 0.64402 0.0
O342 O 0.97599 0.86961 0.62176 0.0
O343 O 0.96767 0.90124 0.61591 0.0
O344 O 0.9495 0.89594 0.65107 0.0
O345 O 0.95015 0.92902 0.65228 0.0
O346 O 0.98915 0.90685 0.67082 0.0
O347 O 0.99005 0.87401 0.66774 0.0
C348 C 0.96916 0.88291 0.60997 0.0
C349 C 0.99379 0.88959 0.67797 0.0
C350 C 0.84263 0.18308 0.40863 0.0
C351 C 0.82305 0.25042 0.38973 0.0
O352 O 0.82531 0.19075 0.40694 0.0
Zn353 Zn 0.83356 0.21729 0.4 0.0
O354 O 0.85825 0.19413 0.40627 0.0
Zn355 Zn 0.86363 0.22539 0.39854 0.0
O356 O 0.87747 0.23629 0.42133 0.0
O357 O 0.84546 0.23077 0.42732 0.0
O358 O 0.84226 0.24893 0.39071 0.0
O359 O 0.81219 0.23534 0.39382 0.0
O360 O 0.84795 0.21253 0.37099 0.0
O361 O 0.87904 0.22347 0.3744 0.0
C362 C 0.8626 0.23742 0.43316 0.0
C363 C 0.86544 0.21576 0.36354 0.0
C364 C 0.50013 0.07393 0.13892 0.0
C365 C 0.56791 0.0944 0.15477 0.0
O366 O 0.51522 0.06331 0.14361 0.0
Zn367 Zn 0.53336 0.08503 0.14785 0.0
O368 O 0.50166 0.09316 0.13859 0.0
Zn369 Zn 0.52551 0.11487 0.14457 0.0
O370 O 0.52645 0.12891 0.11991 0.0
O371 O 0.53705 0.09756 0.11766 0.0
O372 O 0.55691 0.10989 0.1516 0.0
O373 O 0.56011 0.07707 0.15453 0.0
O374 O 0.52059 0.09894 0.17471 0.0
O375 O 0.51584 0.13054 0.16628 0.0
C376 C 0.53348 0.11466 0.10946 0.0
C377 C 0.51469 0.11675 0.17927 0.0
C378 C 0.64694 0.77897 0.86576 0.0
C379 C 0.64399 0.76013 0.93554 0.0
O380 O 0.63241 0.77233 0.8761 0.0
Zn381 Zn 0.64606 0.77199 0.90088 0.0
O382 O 0.66397 0.78258 0.87417 0.0
Zn383 Zn 0.67599 0.77888 0.90486 0.0
O384 O 0.69748 0.76033 0.90069 0.0
O385 O 0.66736 0.74759 0.89516 0.0
O386 O 0.6619 0.76549 0.93092 0.0
O387 O 0.63005 0.76273 0.92291 0.0
O388 O 0.65174 0.80369 0.90611 0.0
O389 O 0.68402 0.80528 0.91303 0.0
C390 C 0.68653 0.74552 0.89579 0.0
C391 C 0.66729 0.81402 0.91087 0.0
C392 C 0.0026 0.06986 0.86183 0.0
C393 C 0.93604 0.09315 0.84429 0.0
O394 O 0.988 0.05984 0.85483 0.0
Zn395 Zn 0.96985 0.08202 0.85174 0.0
O396 O 1.00081 0.08888 0.86438 0.0
Zn397 Zn 0.97797 0.11133 0.85969 0.0
O398 O 0.97479 0.12182 0.88612 0.0
O399 O 0.96308 0.09097 0.88257 0.0
O400 O 0.94707 0.10756 0.85074 0.0
O401 O 0.9437 0.07593 0.84148 0.0
O402 O 0.9839 0.09888 0.82801 0.0
O403 O 0.98937 0.12914 0.84008 0.0
C404 C 0.96585 0.10667 0.89345 0.0
C405 C 0.99059 0.11678 0.82566 0.0
C406 C 0.6779 0.25249 0.61796 0.0
C407 C 0.66843 0.18532 0.5915 0.0
O408 O 0.69122 0.24015 0.61214 0.0
Zn409 Zn 0.67304 0.21963 0.6031 0.0
O410 O 0.65925 0.24811 0.61612 0.0
Zn411 Zn 0.64176 0.22334 0.60465 0.0
O412 O 0.62624 0.21699 0.62789 0.0
O413 O 0.65857 0.2099 0.63093 0.0
O414 O 0.65164 0.19386 0.59551 0.0
O415 O 0.68464 0.19522 0.59273 0.0
O416 O 0.66026 0.23388 0.57731 0.0
O417 O 0.6276 0.23452 0.58192 0.0
C418 C 0.64067 0.20995 0.63819 0.0
C419 C 0.6427 0.2387 0.57112 0.0
C420 C 0.53475 0.88356 0.39495 0.0
C421 C 0.50912 0.87465 0.32754 0.0
O422 O 0.52835 0.86782 0.38637 0.0
Zn423 Zn 0.52224 0.8798 0.36115 0.0
O424 O 0.53474 0.90033 0.38543 0.0
Zn425 Zn 0.52578 0.9104 0.35568 0.0
O426 O 0.50458 0.9293 0.36087 0.0
O427 O 0.49641 0.89817 0.3686 0.0
O428 O 0.51352 0.89316 0.33074 0.0
O429 O 0.51227 0.86184 0.34124 0.0
O430 O 0.55152 0.88849 0.34976 0.0
O431 O 0.55053 0.9214 0.34582 0.0
C432 C 0.49182 0.91686 0.36756 0.0
C433 C 0.56016 0.905 0.34485 0.0
C434 C 0.86212 0.75758 0.06989 0.0
C435 C 0.86432 0.78793 0.13639 0.0
O436 O 0.87731 0.76212 0.08044 0.0
Zn437 Zn 0.86339 0.77407 0.10285 0.0
O438 O 0.84458 0.76277 0.07595 0.0
Zn439 Zn 0.83205 0.77791 0.10178 0.0
O440 O 0.8206 0.80282 0.09244 0.0
O441 O 0.85373 0.80327 0.09247 0.0
O442 O 0.84654 0.78773 0.12903 0.0
O443 O 0.87892 0.78093 0.12629 0.0
O444 O 0.84588 0.74938 0.11466 0.0
O445 O 0.81394 0.75771 0.11176 0.0
C446 C 0.83692 0.81222 0.08959 0.0
C447 C 0.82726 0.74516 0.11717 0.0
C448 C 0.61295 0.96907 0.88221 0.0
C449 C 0.68325 0.98754 0.88157 0.0
O450 O 0.62355 0.97603 0.86799 0.0
Zn451 Zn 0.6483 0.97599 0.8821 0.0
O452 O 0.62114 0.9651 0.89924 0.0
Zn453 Zn 0.65143 0.96804 0.912 0.0
O454 O 0.64697 0.98607 0.93386 0.0
O455 O 0.64231 0.99969 0.90398 0.0
O456 O 0.67802 0.98141 0.89905 0.0
O457 O 0.671 0.98578 0.86715 0.0
O458 O 0.65328 0.94413 0.88694 0.0
O459 O 0.65873 0.94118 0.91937 0.0
C460 C 0.6425 0.00122 0.9232 0.0
C461 C 0.65714 0.93308 0.90224 0.0
C462 C 0.75418 0.88943 0.67913 0.0
C463 C 0.82107 0.90577 0.65504 0.0
O464 O 0.76937 0.89485 0.68929 0.0
Zn465 Zn 0.78699 0.89923 0.66684 0.0
O466 O 0.75533 0.88857 0.65992 0.0
Zn467 Zn 0.77771 0.89446 0.63714 0.0
O468 O 0.77894 0.86882 0.6242 0.0
O469 O 0.79132 0.86894 0.655 0.0
O470 O 0.80924 0.9011 0.64059 0.0
O471 O 0.81406 0.90772 0.67264 0.0
O472 O 0.77282 0.92479 0.65321 0.0
O473 O 0.76646 0.91645 0.62192 0.0
C474 C 0.78749 0.85961 0.63854 0.0
C475 C 0.76561 0.92929 0.63596 0.0
C476 C 0.84283 0.06359 0.40765 0.0
C477 C 0.86061 0.99601 0.42727 0.0
O478 O 0.84453 0.05589 0.42493 0.0
Zn479 Zn 0.85101 0.0292 0.4167 0.0
O480 O 0.84494 0.05251 0.39202 0.0
Zn481 Zn 0.85209 0.02112 0.38667 0.0
O482 O 0.82915 0.01073 0.37292 0.0
O483 O 0.82347 0.01583 0.40506 0.0
O484 O 0.85952 0.99741 0.40807 0.0
O485 O 0.85697 0.01125 0.4381 0.0
O486 O 0.88009 0.033 0.40216 0.0
O487 O 0.87607 0.02229 0.37106 0.0
C488 C 0.81749 0.00942 0.38789 0.0
C489 C 0.8873 0.0295 0.38463 0.0
C490 C 0.68724 0.09469 0.15176 0.0
C491 C 0.75452 0.116 0.16834 0.0
O492 O 0.69555 0.09671 0.16874 0.0
Zn493 Zn 0.72148 0.10444 0.1593 0.0
O494 O 0.69754 0.09732 0.13569 0.0
Zn495 Zn 0.7283 0.1059 0.12897 0.0
O496 O 0.73858 0.08364 0.11449 0.0
O497 O 0.73529 0.07723 0.14676 0.0
O498 O 0.75268 0.11384 0.14928 0.0
O499 O 0.73978 0.11249 0.17981 0.0
O500 O 0.71497 0.13291 0.14488 0.0
O501 O 0.72525 0.12995 0.11356 0.0
C502 C 0.74084 0.0717 0.1291 0.0
C503 C 0.71743 0.14047 0.12735 0.0
C504 C 0.61427 0.03309 0.61167 0.0
C505 C 0.68334 0.01029 0.60775 0.0
O506 O 0.62486 0.02438 0.6249 0.0
Zn507 Zn 0.6489 0.02308 0.60955 0.0
O508 O 0.62183 0.03709 0.59437 0.0
Zn509 Zn 0.65097 0.0323 0.5797 0.0
O510 O 0.64408 0.015 0.55767 0.0
O511 O 0.64053 1.00079 0.5874 0.0
O512 O 0.6775 0.01734 0.59083 0.0
O513 O 0.67183 0.01166 0.62283 0.0
O514 O 0.65569 0.05444 0.6056 0.0
O515 O 0.65956 0.05916 0.57311 0.0
C516 C 0.63945 0.9998 0.56819 0.0
C517 C 0.65936 0.06618 0.5908 0.0
C518 C 0.7451 0.88793 0.31512 0.0
C519 C 0.67896 0.91042 0.33592 0.0
O520 O 0.73043 0.89369 0.30443 0.0
Zn521 Zn 0.71253 0.90012 0.32601 0.0
O522 O 0.74348 0.888 0.33433 0.0
Zn523 Zn 0.72055 0.89622 0.35607 0.0
O524 O 0.71659 0.8713 0.36996 0.0
O525 O 0.70542 0.87102 0.33877 0.0
O526 O 0.68994 0.90635 0.35122 0.0
O527 O 0.68637 0.90937 0.31843 0.0
O528 O 0.72752 0.92565 0.33953 0.0
O529 O 0.73289 0.91755 0.3711 0.0
C530 C 0.70784 0.86217 0.35571 0.0
C531 C 0.73456 0.93012 0.35691 0.0
C532 C 0.88902 0.95704 0.11964 0.0
C533 C 0.82192 0.9848 0.12444 0.0
O534 O 0.87976 0.96368 0.1349 0.0
Zn535 Zn 0.8551 0.96966 0.12157 0.0
O536 O 0.88024 0.95673 0.1025 0.0
Zn537 Zn 0.85111 0.96565 0.09083 0.0
O538 O 0.85819 0.98589 0.07161 0.0
O539 O 0.86411 0.99491 0.1029 0.0
O540 O 0.82602 0.97986 0.10624 0.0
O541 O 0.83444 0.98074 0.13816 0.0
O542 O 0.84408 0.94017 0.11302 0.0
O543 O 0.84114 0.94077 0.08007 0.0
C544 C 0.86441 0.99892 0.08405 0.0
C545 C 0.83972 0.93127 0.09648 0.0
C546 C 0.75166 0.11381 0.81029 0.0
C547 C 0.81771 0.09156 0.82944 0.0
O548 O 0.76642 0.10876 0.79938 0.0
Zn549 Zn 0.78405 0.10171 0.82068 0.0
O550 O 0.75321 0.11298 0.82949 0.0
Zn551 Zn 0.77642 0.10434 0.85075 0.0
O552 O 0.77921 0.12845 0.86575 0.0
O553 O 0.79071 0.13087 0.83472 0.0
O554 O 0.8074 0.09609 0.84507 0.0
O555 O 0.80954 0.09177 0.8123 0.0
O556 O 0.76907 0.07565 0.83294 0.0
O557 O 0.76499 0.08197 0.86506 0.0
C558 C 0.78764 0.1387 0.85211 0.0
C559 C 0.76274 0.0702 0.85028 0.0
C560 C 0.93995 0.63577 0.99924 0.0
C561 C 0.91362 0.65444 0.93414 0.0
O562 O 0.94949 0.64214 0.98403 0.0
Zn563 Zn 0.92639 0.64626 0.9673 0.0
O564 O 0.92077 0.63417 0.99857 0.0
Zn565 Zn 0.89718 0.63987 0.97707 0.0
O566 O 0.88546 0.61367 0.97495 0.0
O567 O 0.91577 0.61569 0.96158 0.0
O568 O 0.89959 0.64852 0.94592 0.0
O569 O 0.93133 0.65643 0.94084 0.0
O570 O 0.91191 0.6707 0.98284 0.0
O571 O 0.88125 0.66065 0.98977 0.0
C572 C 0.89988 0.60548 0.96551 0.0
C573 C 0.89466 0.67414 0.99067 0.0
C574 C 0.4298 0.85893 0.99873 0.0
C575 C 0.40801 0.84239 0.06635 0.0
O576 O 0.44038 0.85318 0.0135 0.0
Zn577 Zn 0.41859 0.84929 0.03204 0.0
O578 O 0.41068 0.86028 0.00063 0.0
Zn579 Zn 0.38869 0.85488 0.02385 0.0
O580 O 0.37651 0.88084 0.02591 0.0
O581 O 0.40767 0.87976 0.03727 0.0
O582 O 0.39322 0.84753 0.05513 0.0
O583 O 0.42535 0.84038 0.05871 0.0
O584 O 0.40355 0.82405 0.01872 0.0
O585 O 0.3724 0.83343 0.01309 0.0
C586 C 0.39134 0.88956 0.03414 0.0
C587 C 0.38592 0.82005 0.01212 0.0
C588 C 0.86184 0.648 0.78915 0.0
C589 C 0.92894 0.65022 0.76055 0.0
O590 O 0.87166 0.63414 0.78049 0.0
Zn591 Zn 0.89543 0.64938 0.77582 0.0
O592 O 0.86967 0.66555 0.7911 0.0
Zn593 Zn 0.89802 0.67987 0.78255 0.0
O594 O 0.88957 0.70042 0.76442 0.0
O595 O 0.88517 0.66975 0.75262 0.0
O596 O 0.92347 0.6676 0.76676 0.0
O597 O 0.91758 0.63527 0.76361 0.0
O598 O 0.90499 0.65596 0.80614 0.0
O599 O 0.90893 0.68883 0.80765 0.0
C600 C 0.88386 0.68885 0.7504 0.0
C601 C 0.90965 0.67179 0.81607 0.0
C602 C 0.08178 0.16696 0.56533 0.0
C603 C 0.06496 0.14576 0.49795 0.0
O604 O 0.06494 0.16773 0.55653 0.0
Zn605 Zn 0.07393 0.15789 0.53096 0.0
O606 O 0.09759 0.16225 0.55538 0.0
Zn607 Zn 0.1044 0.15449 0.52453 0.0
O608 O 0.11941 0.17675 0.51345 0.0
O609 O 0.0873 0.18355 0.51666 0.0
O610 O 0.08404 0.14605 0.5006 0.0
O611 O 0.05334 0.15131 0.512 0.0
O612 O 0.08714 0.12851 0.53822 0.0
O613 O 0.11875 0.12995 0.52811 0.0
C614 C 0.10486 0.18872 0.51072 0.0
C615 C 0.10447 0.1202 0.53614 0.0
C616 C 0.13808 0.85369 0.78916 0.0
C617 C 0.06998 0.8578 0.7635 0.0
O618 O 0.12916 0.86849 0.78114 0.0
Zn619 Zn 0.10388 0.85557 0.77765 0.0
O620 O 0.12878 0.83692 0.79147 0.0
Zn621 Zn 0.09885 0.82534 0.78429 0.0
O622 O 0.10447 0.80421 0.76558 0.0
O623 O 0.11123 0.83452 0.75397 0.0
O624 O 0.07409 0.84002 0.76963 0.0
O625 O 0.08271 0.87168 0.76621 0.0
O626 O 0.09514 0.84964 0.80837 0.0
O627 O 0.08834 0.81725 0.80981 0.0
C628 C 0.11062 0.81542 0.75146 0.0
C629 C 0.08955 0.83418 0.81841 0.0
C630 C 0.5736 0.36458 0.5057 0.0
C631 C 0.59338 0.34748 0.43766 0.0
O632 O 0.56245 0.3604 0.49082 0.0
Zn633 Zn 0.58376 0.3546 0.47222 0.0
O634 O 0.59276 0.36396 0.50377 0.0
Zn635 Zn 0.61399 0.35684 0.48025 0.0
O636 O 0.62894 0.38115 0.47906 0.0
O637 O 0.5979 0.38399 0.46758 0.0
O638 O 0.60869 0.35091 0.44884 0.0
O639 O 0.57602 0.34688 0.44545 0.0
O640 O 0.59603 0.32771 0.48544 0.0
O641 O 0.6281 0.33379 0.49028 0.0
C642 C 0.61525 0.39172 0.47106 0.0
C643 C 0.6133 0.32193 0.49167 0.0
C644 C 0.87164 0.38188 0.7143 0.0
C645 C 0.93875 0.39184 0.74024 0.0
O646 O 0.88057 0.39788 0.71943 0.0
Zn647 Zn 0.90552 0.38575 0.7259 0.0
O648 O 0.88095 0.36499 0.71506 0.0
Zn649 Zn 0.91161 0.35563 0.72286 0.0
O650 O 0.90686 0.3362 0.74307 0.0
O651 O 0.8978 0.36679 0.75202 0.0
O652 O 0.93607 0.37314 0.73617 0.0
O653 O 0.92507 0.40424 0.7358 0.0
O654 O 0.91562 0.37703 0.69607 0.0
O655 O 0.92116 0.34452 0.69802 0.0
C656 C 0.89944 0.34795 0.75608 0.0
C657 C 0.92063 0.36042 0.68765 0.0
C658 C 0.64131 0.63269 0.21169 0.0
C659 C 0.57392 0.62835 0.23895 0.0
O660 O 0.63274 0.61776 0.21989 0.0
Zn661 Zn 0.60765 0.63067 0.22452 0.0
O662 O 0.63195 0.64948 0.21003 0.0
Zn663 Zn 0.60234 0.66107 0.21803 0.0
O664 O 0.60876 0.68191 0.23706 0.0
O665 O 0.61602 0.65143 0.24786 0.0
O666 O 0.5778 0.6462 0.23288 0.0
O667 O 0.58677 0.61459 0.2362 0.0
O668 O 0.59833 0.63662 0.19425 0.0
O669 O 0.59184 0.66901 0.19218 0.0
C670 C 0.61567 0.67048 0.25066 0.0
C671 C 0.59298 0.6519 0.18385 0.0
C672 C 0.56946 0.58696 0.83761 0.0
C673 C 0.49962 0.57275 0.85188 0.0
O674 O 0.56064 0.60278 0.84425 0.0
Zn675 Zn 0.52966 0.61081 0.85113 0.0
O676 O 0.55922 0.5714 0.83382 0.0
Zn677 Zn 0.53392 0.58107 0.84353 0.0
O678 O 0.52208 0.59942 0.81942 0.0
O679 O 0.52167 0.63015 0.83133 0.0
O680 O 0.51342 0.56119 0.84565 0.0
O681 O 0.50341 0.59145 0.85473 0.0
O682 O 0.53202 0.62129 0.87736 0.0
O683 O 0.53989 0.58909 0.87516 0.0
C684 C 0.51819 0.61813 0.81703 0.0
C685 C 0.53813 0.60526 0.88561 0.0
C686 C 0.62504 0.28085 0.14108 0.0
C687 C 0.62226 0.26207 0.07093 0.0
O688 O 0.64215 0.2836 0.13257 0.0
Zn689 Zn 0.65434 0.27959 0.10218 0.0
O690 O 0.61019 0.27468 0.13086 0.0
Zn691 Zn 0.62392 0.2735 0.10591 0.0
O692 O 0.64425 0.24878 0.11219 0.0
O693 O 0.67498 0.26005 0.10675 0.0
O694 O 0.6082 0.26459 0.08347 0.0
O695 O 0.64019 0.26707 0.07584 0.0
O696 O 0.66311 0.30617 0.09489 0.0
O697 O 0.63064 0.3048 0.10084 0.0
C698 C 0.6633 0.24589 0.11191 0.0
C699 C 0.64642 0.3151 0.09687 0.0
C700 C 0.00506 0.42199 0.36767 0.0
C701 C 0.93703 0.40907 0.34511 0.0
O702 O 0.00196 0.40313 0.36516 0.0
Zn703 Zn 0.97731 0.38436 0.35502 0.0
O704 O 0.99118 0.43446 0.36382 0.0
Zn705 Zn 0.97147 0.41516 0.35562 0.0
O706 O 0.96511 0.39921 0.38336 0.0
O707 O 0.97339 0.36754 0.37804 0.0
O708 O 0.94559 0.42568 0.34868 0.0
O709 O 0.94701 0.39264 0.34659 0.0
O710 O 0.98795 0.37157 0.33146 0.0
O711 O 0.98459 0.40425 0.3278 0.0
C712 C 0.96674 0.38108 0.38969 0.0
C713 C 0.99018 0.38717 0.32078 0.0
C714 C 0.85179 0.7121 0.63834 0.0
C715 C 0.8617 0.73254 0.5695 0.0
O716 O 0.83557 0.70935 0.6282 0.0
Zn717 Zn 0.82646 0.71444 0.5968 0.0
O718 O 0.86736 0.71896 0.62978 0.0
Zn719 Zn 0.85622 0.72055 0.60377 0.0
O720 O 0.83531 0.74519 0.60827 0.0
O721 O 0.80534 0.73388 0.59971 0.0
O722 O 0.87434 0.72969 0.58339 0.0
O723 O 0.84332 0.72758 0.57238 0.0
O724 O 0.81867 0.68812 0.58756 0.0
O725 O 0.8502 0.6893 0.59747 0.0
C726 C 0.81637 0.74806 0.60611 0.0
C727 C 0.83504 0.67917 0.5913 0.0
C728 C 0.51507 0.39939 0.68409 0.0
C729 C 0.5439 0.39621 0.61706 0.0
O730 O 0.52028 0.41683 0.6778 0.0
Zn731 Zn 0.5351 0.42895 0.65166 0.0
O732 O 0.51933 0.38406 0.67361 0.0
Zn733 Zn 0.53095 0.39772 0.65094 0.0
O734 O 0.56038 0.40718 0.66083 0.0
O735 O 0.55998 0.44029 0.66079 0.0
O736 O 0.53701 0.38188 0.62758 0.0
O737 O 0.54419 0.41411 0.62418 0.0
O738 O 0.51501 0.44735 0.64228 0.0
O739 O 0.5062 0.41548 0.63961 0.0
C740 C 0.5694 0.42398 0.6636 0.0
C741 C 0.50219 0.43417 0.63723 0.0
C742 C 0.84976 0.30963 0.90591 0.0
C743 C 0.83909 0.24399 0.87625 0.0
O744 O 0.86659 0.30077 0.90269 0.0
Zn745 Zn 0.87594 0.27203 0.89026 0.0
O746 O 0.83349 0.30074 0.90167 0.0
Zn747 Zn 0.84522 0.27668 0.89127 0.0
O748 O 0.8579 0.26144 0.91753 0.0
O749 O 0.89041 0.25991 0.91178 0.0
O750 O 0.82647 0.25723 0.88155 0.0
O751 O 0.85792 0.24744 0.87848 0.0
O752 O 0.89189 0.27938 0.86768 0.0
O753 O 0.86003 0.2876 0.86405 0.0
C754 C 0.8756 0.25611 0.92309 0.0
C755 C 0.87809 0.28737 0.8573 0.0
C756 C 0.93952 0.59642 0.15676 0.0
C757 C 0.0083 0.57558 0.14454 0.0
O758 O 0.95058 0.61129 0.15151 0.0
Zn759 Zn 0.9821 0.61625 0.14549 0.0
O760 O 0.9476 0.57951 0.16025 0.0
Zn761 Zn 0.97449 0.58646 0.15255 0.0
O762 O 0.98618 0.60336 0.17731 0.0
O763 O 0.99172 0.634 0.16635 0.0
O764 O 0.99372 0.56494 0.15065 0.0
O765 O 0.00592 0.59454 0.14205 0.0
O766 O 0.98089 0.62675 0.11878 0.0
O767 O 0.97048 0.59532 0.1214 0.0
C768 C 0.99231 0.62132 0.18053 0.0
C769 C 0.97355 0.61108 0.11074 0.0
C770 C 0.62843 0.73821 0.42805 0.0
C771 C 0.63198 0.72049 0.35763 0.0
O772 O 0.64623 0.7324 0.42354 0.0
Zn773 Zn 0.66043 0.71965 0.39724 0.0
O774 O 0.61468 0.73684 0.41501 0.0
Zn775 Zn 0.63064 0.72769 0.39284 0.0
O776 O 0.63539 0.69585 0.39749 0.0
O777 O 0.66754 0.69256 0.40438 0.0
O778 O 0.61745 0.72775 0.36759 0.0
O779 O 0.64871 0.71656 0.36648 0.0
O780 O 0.68235 0.73791 0.39368 0.0
O781 O 0.6526 0.75136 0.38781 0.0
C782 C 0.65045 0.68461 0.40176 0.0
C783 C 0.67179 0.75299 0.38873 0.0
C784 C 0.86343 0.49162 0.59244 0.0
C785 C 0.84674 0.56102 0.60696 0.0
O786 O 0.86323 0.49498 0.61141 0.0
Zn787 Zn 0.85603 0.52009 0.63094 0.0
O788 O 0.85841 0.50545 0.58034 0.0
Zn789 Zn 0.8533 0.52563 0.60024 0.0
O790 O 0.88312 0.53036 0.61331 0.0
O791 O 0.88063 0.52222 0.6454 0.0
O792 O 0.84607 0.55172 0.59037 0.0
O793 O 0.85024 0.5512 0.62317 0.0
O794 O 0.83308 0.51107 0.64613 0.0
O795 O 0.82642 0.51424 0.61401 0.0
C796 C 0.8912 0.52822 0.63071 0.0
C797 C 0.82081 0.50925 0.63172 0.0
C798 C 0.75563 0.60686 0.82573 0.0
C799 C 0.68881 0.58778 0.84737 0.0
O800 O 0.75401 0.60768 0.84492 0.0
Zn801 Zn 0.73119 0.60034 0.86703 0.0
O802 O 0.74109 0.60035 0.8153 0.0
Zn803 Zn 0.72323 0.59507 0.8372 0.0
O804 O 0.71707 0.6252 0.84879 0.0
O805 O 0.72841 0.62586 0.87998 0.0
O806 O 0.69682 0.58577 0.83022 0.0
O807 O 0.69982 0.59275 0.86239 0.0
O808 O 0.7429 0.57883 0.88274 0.0
O809 O 0.73792 0.57002 0.85137 0.0
C810 C 0.71989 0.63467 0.86537 0.0
C811 C 0.74471 0.5659 0.8689 0.0
C812 C 0.67915 0.48729 0.11839 0.0
C813 C 0.6105 0.46542 0.10866 0.0
O814 O 0.67635 0.4822 0.10004 0.0
Zn815 Zn 0.65194 0.46906 0.08317 0.0
O816 O 0.6651 0.48471 0.1309 0.0
Zn817 Zn 0.64486 0.47503 0.11281 0.0
O818 O 0.65218 0.44381 0.10655 0.0
O819 O 0.6618 0.4433 0.0749 0.0
O820 O 0.61895 0.47256 0.12417 0.0
O821 O 0.62067 0.46298 0.0924 0.0
O822 O 0.64858 0.48823 0.06215 0.0
O823 O 0.63942 0.49959 0.0919 0.0
C824 C 0.65858 0.43407 0.09119 0.0
C825 C 0.64159 0.50229 0.07294 0.0
C826 C 0.75031 0.39058 0.32324 0.0
C827 C 0.81777 0.41058 0.3422 0.0
O828 O 0.75285 0.38926 0.34229 0.0
Zn829 Zn 0.77708 0.39527 0.36326 0.0
O830 O 0.76467 0.39653 0.31224 0.0
Zn831 Zn 0.78373 0.40105 0.3333 0.0
O832 O 0.79107 0.37095 0.34368 0.0
O833 O 0.78112 0.36955 0.37524 0.0
O834 O 0.80959 0.41059 0.32503 0.0
O835 O 0.80748 0.40556 0.3577 0.0
O836 O 0.76604 0.41535 0.38051 0.0
O837 O 0.76977 0.42588 0.34941 0.0
C838 C 0.78911 0.36114 0.36015 0.0
C839 C 0.76379 0.42902 0.36748 0.0
C840 C 0.82502 0.48331 0.90045 0.0
C841 C 0.89058 0.45141 0.89527 0.0
O842 O 0.83073 0.47659 0.91762 0.0
Zn843 Zn 0.85684 0.46009 0.92893 0.0
O844 O 0.83601 0.48029 0.8852 0.0
Zn845 Zn 0.85781 0.46734 0.89867 0.0
O846 O 0.84622 0.43775 0.90533 0.0
O847 O 0.84656 0.43485 0.93832 0.0
O848 O 0.88046 0.46104 0.88234 0.0
O849 O 0.8839 0.45005 0.91329 0.0
O850 O 0.8665 0.47806 0.94921 0.0
O851 O 0.86892 0.49064 0.91872 0.0
C852 C 0.8431 0.42731 0.92119 0.0
C853 C 0.87109 0.49257 0.93777 0.0
C854 C 0.75173 0.60381 0.17638 0.0
C855 C 0.82019 0.58859 0.15885 0.0
O856 O 0.75415 0.60528 0.15729 0.0
Zn857 Zn 0.77926 0.60031 0.13647 0.0
O858 O 0.76629 0.59847 0.18739 0.0
Zn859 Zn 0.78504 0.59507 0.16628 0.0
O860 O 0.78944 0.62634 0.15577 0.0
O861 O 0.78029 0.62562 0.12386 0.0
O862 O 0.81071 0.58601 0.17507 0.0
O863 O 0.81068 0.59427 0.14309 0.0
O864 O 0.77037 0.57909 0.11917 0.0
O865 O 0.77163 0.56973 0.15073 0.0
C866 C 0.78644 0.63541 0.13896 0.0
C867 C 0.76698 0.56594 0.13244 0.0
C868 C 0.63766 0.49633 0.41774 0.0
C869 C 0.65732 0.56506 0.4045 0.0
O870 O 0.63756 0.50002 0.39882 0.0
Zn871 Zn 0.64531 0.52546 0.37974 0.0
O872 O 0.64364 0.50971 0.42991 0.0
Zn873 Zn 0.64946 0.52977 0.41023 0.0
O874 O 0.6193 0.53656 0.39834 0.0
O875 O 0.62064 0.52875 0.36606 0.0
O876 O 0.65885 0.555 0.42055 0.0
O877 O 0.65229 0.55619 0.38816 0.0
O878 O 0.66711 0.51622 0.3633 0.0
O879 O 0.67508 0.51659 0.39526 0.0
C880 C 0.61075 0.53503 0.38108 0.0
C881 C 0.67964 0.51238 0.37704 0.0
C882 C 0.68549 0.40166 0.68023 0.0
C883 C 0.75532 0.38215 0.68789 0.0
O884 O 0.6947 0.4025 0.66334 0.0
Zn885 Zn 0.7249 0.39672 0.65302 0.0
O886 O 0.69502 0.39663 0.69589 0.0
Zn887 Zn 0.72072 0.392 0.68363 0.0
O888 O 0.73283 0.42152 0.67537 0.0
O889 O 0.73325 0.42179 0.64228 0.0
O890 O 0.74143 0.38187 0.70094 0.0
O891 O 0.75136 0.38742 0.66978 0.0
O892 O 0.72205 0.37544 0.63387 0.0
O893 O 0.71525 0.36607 0.66487 0.0
C894 C 0.73691 0.43054 0.65879 0.0
C895 C 0.71665 0.36193 0.64612 0.0
C896 C 0.5995 0.83924 0.57025 0.0
C897 C 0.574 0.85532 0.50404 0.0
O898 O 0.61351 0.84576 0.55877 0.0
Zn899 Zn 0.61635 0.85357 0.52738 0.0
O900 O 0.58229 0.83572 0.56293 0.0
Zn901 Zn 0.58745 0.84563 0.53629 0.0
O902 O 0.60361 0.8219 0.52119 0.0
O903 O 0.6339 0.83378 0.51573 0.0
O904 O 0.56458 0.8484 0.51909 0.0
O905 O 0.59306 0.85798 0.50506 0.0
O906 O 0.62685 0.88009 0.52908 0.0
O907 O 0.59624 0.87696 0.54158 0.0
C908 C 0.62138 0.81955 0.51416 0.0
C909 C 0.61176 0.88781 0.53783 0.0
C910 C 0.06435 0.6426 0.49993 0.0
C911 C 0.0847 0.66761 0.43489 0.0
O912 O 0.08354 0.64296 0.49826 0.0
Zn913 Zn 0.10514 0.65151 0.47551 0.0
O914 O 0.05347 0.64806 0.4853 0.0
Zn915 Zn 0.07496 0.655 0.46755 0.0
O916 O 0.08809 0.62625 0.45962 0.0
O917 O 0.11925 0.62676 0.47081 0.0
O918 O 0.06719 0.66538 0.44201 0.0
O919 O 0.10006 0.66322 0.44566 0.0
O920 O 0.11986 0.67266 0.48845 0.0
O921 O 0.0881 0.68035 0.48325 0.0
C922 C 0.10514 0.61756 0.46192 0.0
C923 C 0.10541 0.68494 0.49037 0.0
C924 C 0.62378 0.82102 0.75688 0.0
C925 C 0.59799 0.83097 0.68954 0.0
O926 O 0.62183 0.83971 0.75266 0.0
Zn927 Zn 0.61076 0.85741 0.72788 0.0
O928 O 0.61804 0.80785 0.74434 0.0
Zn929 Zn 0.60887 0.82616 0.72408 0.0
O930 O 0.63687 0.84024 0.7146 0.0
O931 O 0.63449 0.8726 0.7219 0.0
O932 O 0.59872 0.81478 0.69951 0.0
O933 O 0.60202 0.84773 0.69815 0.0
O934 O 0.58791 0.8717 0.73897 0.0
O935 O 0.58308 0.83907 0.73838 0.0
C936 C 0.64451 0.85796 0.71483 0.0
C937 C 0.57699 0.85669 0.74318 0.0
C938 C 0.42976 0.36483 0.0055 0.0
C939 C 0.41463 0.3463 0.93692 0.0
O940 O 0.41079 0.36605 0.00224 0.0
Zn941 Zn 0.39104 0.36001 0.97675 0.0
O942 O 0.44133 0.35895 0.99158 0.0
Zn943 Zn 0.42112 0.35459 0.9718 0.0
O944 O 0.41047 0.3853 0.96499 0.0
O945 O 0.37843 0.38516 0.97376 0.0
O946 O 0.43084 0.34458 0.94668 0.0
O947 O 0.39862 0.35212 0.94595 0.0
O948 O 0.37344 0.33928 0.98585 0.0
O949 O 0.40491 0.32946 0.98474 0.0
C950 C 0.39355 0.39445 0.96696 0.0
C951 C 0.3865 0.32588 0.98914 0.0
C952 C 0.43333 0.63488 0.73658 0.0
C953 C 0.36252 0.63844 0.72117 0.0
O954 O 0.42828 0.65323 0.73345 0.0
Zn955 Zn 0.4008 0.6683 0.72396 0.0
O956 O 0.42049 0.62116 0.73383 0.0
Zn957 Zn 0.39796 0.63768 0.72766 0.0
O958 O 0.40252 0.64734 0.69679 0.0
O959 O 0.4062 0.68022 0.69854 0.0
O960 O 0.37329 0.62355 0.72612 0.0
O961 O 0.37047 0.65596 0.7196 0.0
O962 O 0.39734 0.6872 0.74502 0.0
O963 O 0.3931 0.65575 0.75463 0.0
C964 C 0.40529 0.66434 0.68816 0.0
C965 C 0.39355 0.6746 0.75874 0.0
C966 C 0.87805 0.1744 0.01 0.0
C967 C 0.88286 0.10592 0.03399 0.0
O968 O 0.8957 0.17109 0.017 0.0
Zn969 Zn 0.90999 0.14649 0.03297 0.0
O970 O 0.86466 0.16112 0.01223 0.0
Zn971 Zn 0.88098 0.14049 0.02406 0.0
O972 O 0.88414 0.14789 0.05572 0.0
O973 O 0.91583 0.15649 0.05928 0.0
O974 O 0.86854 0.11496 0.02529 0.0
O975 O 0.89915 0.11548 0.03813 0.0
O976 O 0.93301 0.14222 0.01657 0.0
O977 O 0.90438 0.13445 0.00178 0.0
C978 C 0.89864 0.15384 0.06694 0.0
C979 C 0.92362 0.13593 0.00126 0.0
C980 C 0.57116 0.12358 0.76113 0.0
C981 C 0.63917 0.13873 0.78124 0.0
O982 O 0.57258 0.14193 0.76685 0.0
Zn983 Zn 0.59586 0.16077 0.77921 0.0
O984 O 0.58636 0.11225 0.76249 0.0
Zn985 Zn 0.60516 0.13174 0.77208 0.0
O986 O 0.59809 0.13652 0.80335 0.0
O987 O 0.58679 0.16754 0.80579 0.0
O988 O 0.63202 0.12272 0.77379 0.0
O989 O 0.62772 0.15399 0.78422 0.0
O990 O 0.59684 0.18227 0.75999 0.0
O991 O 0.60798 0.15341 0.7481 0.0
C992 C 0.59139 0.15104 0.81411 0.0
C993 C 0.60425 0.17214 0.74565 0.0
C994 C 0.92575 0.86665 0.26401 0.0
C995 C 0.85621 0.85714 0.28372 0.0
O996 O 0.92266 0.84853 0.26974 0.0
Zn997 Zn 0.89778 0.83183 0.28213 0.0
O998 O 0.91166 0.87937 0.26536 0.0
Zn999 Zn 0.891 0.86153 0.27464 0.0
O1000 O 0.89757 0.85651 0.30595 0.0
O1001 O 0.90626 0.8247 0.30878 0.0
O1002 O 0.86455 0.87243 0.27599 0.0
O1003 O 0.86655 0.84114 0.28686 0.0
O1004 O 0.89564 0.81032 0.26305 0.0
O1005 O 0.88779 0.84 0.25057 0.0
C1006 C 0.9031 0.84165 0.31688 0.0
C1007 C 0.89018 0.82102 0.24827 0.0
C1008 C 0.43314 0.41919 0.16492 0.0
C1009 C 0.49881 0.43873 0.14033 0.0
O1010 O 0.44133 0.43636 0.16532 0.0
Zn1011 Zn 0.46675 0.42853 0.15403 0.0
O1012 O 0.4434 0.40383 0.15944 0.0
Zn1013 Zn 0.47393 0.39831 0.14985 0.0
O1014 O 0.48647 0.38335 0.17127 0.0
O1015 O 0.48293 0.4153 0.17873 0.0
O1016 O 0.49683 0.41956 0.14062 0.0
O1017 O 0.48464 0.4498 0.14667 0.0
O1018 O 0.45865 0.41563 0.12484 0.0
O1019 O 0.4696 0.38428 0.12528 0.0
C1020 C 0.48949 0.39779 0.1833 0.0
C1021 C 0.46087 0.39854 0.11612 0.0
C1022 C 0.35807 0.70567 0.86845 0.0
C1023 C 0.35322 0.73598 0.93457 0.0
O1024 O 0.37202 0.71278 0.87931 0.0
Zn1025 Zn 0.35546 0.71985 0.90172 0.0
O1026 O 0.33988 0.70594 0.8748 0.0
Zn1027 Zn 0.32422 0.71597 0.90154 0.0
O1028 O 0.30641 0.73618 0.89123 0.0
O1029 O 0.33843 0.74458 0.88934 0.0
O1030 O 0.33583 0.73094 0.92795 0.0
O1031 O 0.3687 0.73151 0.92443 0.0
O1032 O 0.3454 0.69088 0.91196 0.0
O1033 O 0.31229 0.69127 0.91059 0.0
C1034 C 0.31987 0.74877 0.88635 0.0
C1035 C 0.3285 0.68198 0.91429 0.0
C1036 C 0.06753 0.59726 0.65866 0.0
C1037 C 1.00015 0.5756 0.64051 0.0
O1038 O 0.05997 0.57989 0.66079 0.0
Zn1039 Zn 0.03303 0.5864 0.6519 0.0
O1040 O 0.05614 0.612 0.65381 0.0
Zn1041 Zn 0.02504 0.61655 0.64658 0.0
O1042 O 0.0136 0.63222 0.66814 0.0
O1043 O 0.01859 0.60079 0.67688 0.0
O1044 O 0.00226 0.59471 0.63973 0.0
O1045 O 0.01443 0.56467 0.6469 0.0
O1046 O 0.03844 0.59774 0.62168 0.0
O1047 O 0.02737 0.62909 0.62089 0.0
C1048 C 0.01182 0.61833 0.68102 0.0
C1049 C 0.03547 0.6142 0.61209 0.0
C1050 C 0.15553 0.32031 0.4021 0.0
C1051 C 0.16534 0.2517 0.3791 0.0
O1052 O 0.1716 0.31144 0.39712 0.0
Zn1053 Zn 0.16006 0.28564 0.39051 0.0
O1054 O 0.13883 0.31078 0.4014 0.0
Zn1055 Zn 0.12913 0.28131 0.39243 0.0
O1056 O 0.11662 0.2709 0.41613 0.0
O1057 O 0.14955 0.27261 0.4186 0.0
O1058 O 0.14663 0.25559 0.38181 0.0
O1059 O 0.17843 0.26518 0.38236 0.0
O1060 O 0.14357 0.29165 0.36299 0.0
O1061 O 0.1116 0.28714 0.37043 0.0
C1062 C 0.13249 0.26764 0.42612 0.0
C1063 C 0.12502 0.29181 0.35778 0.0
C1064 C 0.49074 0.62644 0.32373 0.0
C1065 C 0.46592 0.62544 0.39203 0.0
O1066 O 0.48798 0.64079 0.33591 0.0
Zn1067 Zn 0.47727 0.62558 0.35785 0.0
O1068 O 0.48517 0.60869 0.32868 0.0
Zn1069 Zn 0.47102 0.59504 0.35441 0.0
O1070 O 0.44528 0.58608 0.3448 0.0
O1071 O 0.44674 0.61879 0.34971 0.0
O1072 O 0.46388 0.6081 0.38379 0.0
O1073 O 0.47359 0.63985 0.38222 0.0
O1074 O 0.50127 0.60548 0.36642 0.0
O1075 O 0.49023 0.57466 0.36116 0.0
C1076 C 0.43663 0.60304 0.34519 0.0
C1077 C 0.50409 0.58642 0.3669 0.0
C1078 C 0.17109 0.76228 0.11497 0.0
C1079 C 0.16643 0.69431 0.09061 0.0
O1080 O 0.18472 0.75061 0.10861 0.0
Zn1081 Zn 0.16789 0.72889 0.10136 0.0
O1082 O 0.15266 0.75656 0.11468 0.0
Zn1083 Zn 0.13691 0.72958 0.10476 0.0
O1084 O 0.12312 0.72127 0.12806 0.0
O1085 O 0.15617 0.71842 0.13044 0.0
O1086 O 0.14911 0.70115 0.09541 0.0
O1087 O 0.18158 0.70579 0.09075 0.0
O1088 O 0.15198 0.74115 0.07599 0.0
O1089 O 0.11994 0.73813 0.08325 0.0
C1090 C 0.13854 0.71619 0.138 0.0
C1091 C 0.13352 0.74362 0.07115 0.0
C1092 C 0.06538 0.38323 0.85811 0.0
C1093 C 0.99468 0.39598 0.87737 0.0
O1094 O 0.05844 0.40081 0.85485 0.0
Zn1095 Zn 0.03268 0.4185 0.85848 0.0
O1096 O 0.05394 0.36976 0.86554 0.0
Zn1097 Zn 0.0295 0.3866 0.86793 0.0
O1098 O 0.02161 0.39263 0.83773 0.0
O1099 O 0.025 0.42488 0.83069 0.0
O1100 O 0.00313 0.37893 0.87975 0.0
O1101 O 0.00461 0.41056 0.86991 0.0
O1102 O 0.04246 0.43757 0.87922 0.0
O1103 O 0.03987 0.40626 0.88996 0.0
C1104 C 0.02012 0.40716 0.82524 0.0
C1105 C 0.04439 0.42457 0.89315 0.0
C1106 C 0.32844 0.25072 0.61408 0.0
C1107 C 0.3402 0.31899 0.59158 0.0
O1108 O 0.31557 0.26342 0.60803 0.0
Zn1109 Zn 0.33446 0.2841 0.60091 0.0
O1110 O 0.3472 0.25497 0.61341 0.0
Zn1111 Zn 0.36565 0.27984 0.60403 0.0
O1112 O 0.37972 0.28477 0.62869 0.0
O1113 O 0.34733 0.29222 0.62988 0.0
O1114 O 0.35667 0.31001 0.59599 0.0
O1115 O 0.32387 0.30921 0.59127 0.0
O1116 O 0.3484 0.27087 0.57526 0.0
O1117 O 0.38075 0.26912 0.58139 0.0
C1118 C 0.36467 0.29152 0.63831 0.0
C1119 C 0.36609 0.26579 0.5697 0.0
C1120 C 0.11182 0.47188 0.38734 0.0
C1121 C 0.18114 0.49387 0.38888 0.0
O1122 O 0.12235 0.47971 0.37356 0.0
Zn1123 Zn 0.14665 0.48187 0.38855 0.0
O1124 O 0.11959 0.46869 0.40468 0.0
Zn1125 Zn 0.14873 0.47374 0.41865 0.0
O1126 O 0.1427 0.49217 0.44002 0.0
O1127 O 0.13903 0.50538 0.40989 0.0
O1128 O 0.17572 0.48728 0.40616 0.0
O1129 O 0.16898 0.49279 0.37429 0.0
O1130 O 0.15505 0.45082 0.39367 0.0
O1131 O 0.15622 0.447 0.42651 0.0
C1132 C 0.13831 0.50712 0.42907 0.0
C1133 C 0.15791 0.43959 0.40906 0.0
C1134 C 0.24575 0.3872 0.17979 0.0
C1135 C 0.31465 0.40344 0.16202 0.0
O1136 O 0.26055 0.39046 0.19135 0.0
Zn1137 Zn 0.2798 0.39651 0.17069 0.0
O1138 O 0.24807 0.38858 0.16073 0.0
Zn1139 Zn 0.27226 0.39582 0.14028 0.0
O1140 O 0.27311 0.37216 0.12433 0.0
O1141 O 0.28385 0.36762 0.15541 0.0
O1142 O 0.3037 0.4009 0.14639 0.0
O1143 O 0.3066 0.40322 0.17927 0.0
O1144 O 0.26783 0.42435 0.15925 0.0
O1145 O 0.26322 0.41968 0.12691 0.0
C1146 C 0.28046 0.36075 0.13768 0.0
C1147 C 0.26215 0.43104 0.14213 0.0
C1148 C 0.33708 0.564 0.90469 0.0
C1149 C 0.36621 0.49813 0.91526 0.0
O1150 O 0.33976 0.55441 0.92088 0.0
Zn1151 Zn 0.35076 0.53055 0.90926 0.0
O1152 O 0.34147 0.55569 0.88786 0.0
Zn1153 Zn 0.35402 0.52708 0.87843 0.0
O1154 O 0.33334 0.51533 0.86237 0.0
O1155 O 0.32564 0.51565 0.89449 0.0
O1156 O 0.36502 0.50215 0.89645 0.0
O1157 O 0.35957 0.51071 0.92793 0.0
O1158 O 0.37901 0.54133 0.89684 0.0
O1159 O 0.37787 0.53479 0.86439 0.0
C1160 C 0.32119 0.51091 0.87633 0.0
C1161 C 0.38725 0.54176 0.87942 0.0
C1162 C 0.18726 0.59555 0.6608 0.0
C1163 C 0.25538 0.6182 0.67268 0.0
O1164 O 0.19774 0.5941 0.67659 0.0
Zn1165 Zn 0.22212 0.60516 0.66585 0.0
O1166 O 0.19544 0.60168 0.64446 0.0
Zn1167 Zn 0.22537 0.61096 0.6354 0.0
O1168 O 0.23523 0.59046 0.61761 0.0
O1169 O 0.23541 0.58076 0.6491 0.0
O1170 O 0.25098 0.61899 0.65394 0.0
O1171 O 0.24275 0.61101 0.68499 0.0
O1172 O 0.2133 0.63535 0.65567 0.0
O1173 O 0.22014 0.63612 0.62317 0.0
C1174 C 0.23946 0.57726 0.6306 0.0
C1175 C 0.21375 0.64485 0.63886 0.0
C1176 C 0.11959 0.54437 0.11367 0.0
C1177 C 0.1881 0.51925 0.11419 0.0
O1178 O 0.12872 0.53519 0.12766 0.0
Zn1179 Zn 0.1541 0.53297 0.11408 0.0
O1180 O 0.12868 0.54792 0.09706 0.0
Zn1181 Zn 0.15799 0.54208 0.0842 0.0
O1182 O 0.15099 0.52542 0.0619 0.0
O1183 O 0.14742 0.5107 0.09147 0.0
O1184 O 0.18339 0.52641 0.09695 0.0
O1185 O 0.17588 0.52105 0.12869 0.0
O1186 O 0.1623 0.56397 0.11027 0.0
O1187 O 0.16768 0.56838 0.07792 0.0
C1188 C 0.14666 0.51004 0.07225 0.0
C1189 C 0.16696 0.57549 0.09556 0.0
C1190 C 0.21883 0.35782 0.85963 0.0
C1191 C 0.23645 0.42774 0.86737 0.0
O1192 O 0.2261 0.36692 0.87471 0.0
Zn1193 Zn 0.22548 0.39275 0.863 0.0
O1194 O 0.21491 0.3675 0.84339 0.0
Zn1195 Zn 0.21799 0.39893 0.83358 0.0
O1196 O 0.23625 0.39657 0.81153 0.0
O1197 O 0.24954 0.38905 0.84096 0.0
O1198 O 0.23096 0.42427 0.84926 0.0
O1199 O 0.23425 0.41409 0.88038 0.0
O1200 O 0.19333 0.39629 0.85811 0.0
O1201 O 0.19098 0.40613 0.82669 0.0
C1202 C 0.25129 0.39107 0.82186 0.0
C1203 C 0.18249 0.40139 0.84304 0.0
C1204 C 0.39144 0.4743 0.61898 0.0
C1205 C 0.32114 0.49179 0.62056 0.0
O1206 O 0.38085 0.4813 0.63317 0.0
Zn1207 Zn 0.35604 0.48096 0.61918 0.0
O1208 O 0.38325 0.47022 0.60199 0.0
Zn1209 Zn 0.35301 0.47332 0.58924 0.0
O1210 O 0.35854 0.49135 0.56758 0.0
O1211 O 0.36101 0.50516 0.59769 0.0
O1212 O 0.32614 0.48658 0.60267 0.0
O1213 O 0.33363 0.48957 0.63468 0.0
O1214 O 0.35143 0.44924 0.61396 0.0
O1215 O 0.34574 0.4464 0.58156 0.0
C1216 C 0.3618 0.50663 0.57849 0.0
C1217 C 0.34753 0.43825 0.59864 0.0
C1218 C 0.31848 0.59362 0.33119 0.0
C1219 C 0.25047 0.6159 0.31889 0.0
O1220 O 0.30905 0.59393 0.31469 0.0
Zn1221 Zn 0.28366 0.60323 0.32528 0.0
O1222 O 0.3092 0.59749 0.34757 0.0
Zn1223 Zn 0.27932 0.60526 0.3564 0.0
O1224 O 0.26923 0.58256 0.37117 0.0
O1225 O 0.26965 0.57721 0.33858 0.0
O1226 O 0.25395 0.61417 0.33777 0.0
O1227 O 0.26396 0.61144 0.30617 0.0
O1228 O 0.29057 0.63218 0.33876 0.0
O1229 O 0.28483 0.62927 0.37134 0.0
C1230 C 0.26507 0.57136 0.35635 0.0
C1231 C 0.29042 0.63979 0.35646 0.0
C1232 C 0.38365 0.11341 0.46771 0.0
C1233 C 0.392 0.1827 0.48857 0.0
O1234 O 0.371 0.12499 0.47606 0.0
Zn1235 Zn 0.38785 0.14824 0.47639 0.0
O1236 O 0.40133 0.11986 0.46356 0.0
Zn1237 Zn 0.41788 0.14779 0.46748 0.0
O1238 O 0.43922 0.13872 0.48455 0.0
O1239 O 0.40941 0.13965 0.49919 0.0
O1240 O 0.40868 0.17551 0.48209 0.0
O1241 O 0.37612 0.17239 0.48675 0.0
O1242 O 0.3924 0.15329 0.44479 0.0
O1243 O 0.42514 0.15478 0.44046 0.0
C1244 C 0.42838 0.13637 0.50005 0.0
C1245 C 0.40758 0.15529 0.43313 0.0
C1246 C 0.89001 0.31717 0.51706 0.0
C1247 C 0.88353 0.38616 0.53978 0.0
O1248 O 0.87435 0.32735 0.52074 0.0
Zn1249 Zn 0.88719 0.35149 0.53 0.0
O1250 O 0.90724 0.32459 0.52151 0.0
Zn1251 Zn 0.9182 0.3527 0.53387 0.0
O1252 O 0.93032 0.34692 0.55939 0.0
O1253 O 0.89728 0.34529 0.56041 0.0
O1254 O 0.90187 0.38027 0.54057 0.0
O1255 O 0.86995 0.37416 0.53388 0.0
O1256 O 0.90432 0.36141 0.50397 0.0
O1257 O 0.93622 0.36086 0.51296 0.0
C1258 C 0.91432 0.34446 0.56937 0.0
C1259 C 0.92293 0.36409 0.49971 0.0
C1260 C 0.36188 0.13898 0.28264 0.0
C1261 C 0.43038 0.12846 0.26121 0.0
O1262 O 0.37039 0.12339 0.27582 0.0
Zn1263 Zn 0.39632 0.13453 0.27341 0.0
O1264 O 0.372 0.15526 0.28511 0.0
Zn1265 Zn 0.40337 0.16412 0.27917 0.0
O1266 O 0.40052 0.18507 0.26011 0.0
O1267 O 0.3916 0.15536 0.24844 0.0
O1268 O 0.42768 0.14688 0.26617 0.0
O1269 O 0.41625 0.11604 0.26387 0.0
O1270 O 0.40424 0.14097 0.30449 0.0
O1271 O 0.41356 0.17275 0.3044 0.0
C1272 C 0.39399 0.17433 0.24583 0.0
C1273 C 0.41088 0.15648 0.31381 0.0
C1274 C 0.58033 0.65753 0.0652 0.0
C1275 C 0.56402 0.63517 0.99803 0.0
O1276 O 0.56355 0.65802 0.05625 0.0
Zn1277 Zn 0.5729 0.64764 0.03104 0.0
O1278 O 0.5962 0.6524 0.05555 0.0
Zn1279 Zn 0.60325 0.64366 0.02498 0.0
O1280 O 0.61906 0.6653 0.01434 0.0
O1281 O 0.58712 0.67316 0.01699 0.0
O1282 O 0.58311 0.63531 0.00071 0.0
O1283 O 0.55251 0.64104 0.01201 0.0
O1284 O 0.58559 0.61822 0.03905 0.0
O1285 O 0.61726 0.6192 0.02919 0.0
C1286 C 0.60501 0.67781 0.01159 0.0
C1287 C 0.60285 0.60972 0.03726 0.0
C1288 C 0.63844 0.36167 0.29187 0.0
C1289 C 0.57075 0.36415 0.26416 0.0
O1290 O 0.62919 0.37662 0.28444 0.0
Zn1291 Zn 0.60445 0.36296 0.27934 0.0
O1292 O 0.6297 0.34449 0.29287 0.0
Zn1293 Zn 0.60054 0.33212 0.28423 0.0
O1294 O 0.60773 0.3124 0.26452 0.0
O1295 O 0.61358 0.3436 0.2549 0.0
O1296 O 0.57563 0.34635 0.26955 0.0
O1297 O 0.58263 0.37854 0.26795 0.0
O1298 O 0.59522 0.35497 0.30941 0.0
O1299 O 0.58965 0.32231 0.30907 0.0
C1300 C 0.61392 0.32468 0.25132 0.0
C1301 C 0.59 0.33883 0.31852 0.0
C1302 C 0.07149 0.8635 0.00487 0.0
C1303 C 0.09333 0.84903 0.93696 0.0
O1304 O 0.06133 0.85706 0.99011 0.0
Zn1305 Zn 0.08316 0.85494 0.9715 0.0
O1306 O 0.09046 0.86626 0.0029 0.0
Zn1307 Zn 0.11239 0.86269 0.97912 0.0
O1308 O 0.12285 0.88898 0.97748 0.0
O1309 O 0.09171 0.88632 0.96628 0.0
O1310 O 0.10797 0.85529 0.9478 0.0
O1311 O 0.07643 0.84568 0.94505 0.0
O1312 O 0.10057 0.83076 0.98444 0.0
O1313 O 0.13086 0.84313 0.98887 0.0
C1314 C 0.1075 0.89696 0.96953 0.0
C1315 C 0.1188 0.82852 0.99026 0.0
C1316 C 0.36411 0.8573 0.21431 0.0
C1317 C 0.43249 0.86109 0.23795 0.0
O1318 O 0.37443 0.87251 0.21929 0.0
Zn1319 Zn 0.39872 0.85849 0.22418 0.0
O1320 O 0.37216 0.83976 0.21422 0.0
Zn1321 Zn 0.40208 0.8277 0.22084 0.0
O1322 O 0.39524 0.80854 0.24094 0.0
O1323 O 0.39116 0.84016 0.25045 0.0
O1324 O 0.4277 0.84274 0.23443 0.0
O1325 O 0.42046 0.87493 0.23298 0.0
O1326 O 0.40623 0.84933 0.19422 0.0
O1327 O 0.41158 0.81676 0.19566 0.0
C1328 C 0.39043 0.82126 0.25429 0.0
C1329 C 0.41087 0.83282 0.18552 0.0
C1330 C 0.13625 0.12422 0.71096 0.0
C1331 C 0.06822 0.12405 0.7363 0.0
O1332 O 0.1257 0.10952 0.71693 0.0
Zn1333 Zn 0.10217 0.12465 0.72242 0.0
O1334 O 0.12886 0.14206 0.71093 0.0
Zn1335 Zn 0.09979 0.15553 0.71828 0.0
O1336 O 0.10701 0.17458 0.73829 0.0
O1337 O 0.11144 0.14314 0.74791 0.0
O1338 O 0.07375 0.14198 0.73199 0.0
O1339 O 0.07972 0.10951 0.73209 0.0
O1340 O 0.09451 0.13355 0.6924 0.0
O1341 O 0.09083 0.16638 0.69291 0.0
C1342 C 0.11229 0.16206 0.75165 0.0
C1343 C 0.09082 0.15002 0.68318 0.0
H1344 H 0.09058 0.10519 0.32193 0.0
H1345 H 0.0917 0.05333 0.36054 0.0
H1346 H 0.12839 0.05423 0.36124 0.0
H1347 H 0.16026 0.07111 0.35237 0.0
H1348 H 0.15916 0.12086 0.31111 0.0
H1349 H 0.1225 0.11949 0.30986 0.0
C1350 C 0.09893 0.09396 0.33026 0.0
C1351 C 0.08853 0.07928 0.34122 0.0
C1352 C 0.12003 0.09429 0.33022 0.0
C1353 C 0.09943 0.06469 0.35186 0.0
C1354 C 0.1204 0.06528 0.35239 0.0
C1355 C 0.15192 0.08148 0.343 0.0
C1356 C 0.16225 0.09613 0.33195 0.0
C1357 C 0.13086 0.0802 0.34187 0.0
C1358 C 0.15142 0.1094 0.31967 0.0
C1359 C 0.13049 0.10868 0.31901 0.0
H1360 H 0.13756 0.91501 0.60324 0.0
H1361 H 0.1896 0.92111 0.56535 0.0
H1362 H 0.1936 0.88455 0.56442 0.0
H1363 H 0.18209 0.85081 0.57429 0.0
H1364 H 0.1283 0.8448 0.60985 0.0
H1365 H 0.12497 0.88125 0.61152 0.0
C1366 C 0.14988 0.90827 0.59498 0.0
C1367 C 0.1635 0.9206 0.58468 0.0
C1368 C 0.15159 0.88726 0.59387 0.0
C1369 C 0.17908 0.91181 0.57354 0.0
C1370 C 0.18131 0.89094 0.57295 0.0
C1371 C 0.16958 0.85749 0.58228 0.0
C1372 C 0.15548 0.84509 0.59192 0.0
C1373 C 0.1676 0.87851 0.58298 0.0
C1374 C 0.13927 0.85398 0.60214 0.0
C1375 C 0.13743 0.87484 0.60325 0.0
H1376 H 0.4086 0.89327 0.86212 0.0
H1377 H 0.4145 0.93178 0.81057 0.0
H1378 H 0.37789 0.93202 0.80629 0.0
H1379 H 0.34416 0.92121 0.81748 0.0
H1380 H 0.33858 0.88537 0.87109 0.0
H1381 H 0.37505 0.88432 0.87449 0.0
C1382 C 0.40182 0.90154 0.84985 0.0
C1383 C 0.4141 0.91216 0.83642 0.0
C1384 C 0.38084 0.90225 0.84802 0.0
C1385 C 0.40524 0.92334 0.82093 0.0
C1386 C 0.38436 0.92351 0.81854 0.0
C1387 C 0.35097 0.91327 0.82994 0.0
C1388 C 0.3387 0.90336 0.84399 0.0
C1389 C 0.37199 0.91306 0.83204 0.0
C1390 C 0.34768 0.89326 0.86017 0.0
C1391 C 0.36854 0.89253 0.86205 0.0
H1392 H 0.35838 0.15945 0.1096 0.0
H1393 H 0.32155 0.16747 0.0571 0.0
H1394 H 0.31896 0.13091 0.05306 0.0
H1395 H 0.32748 0.09665 0.06463 0.0
H1396 H 0.36203 0.08939 0.11895 0.0
H1397 H 0.36493 0.12566 0.12232 0.0
C1398 C 0.34997 0.15314 0.09716 0.0
C1399 C 0.34053 0.16596 0.0834 0.0
C1400 C 0.34792 0.13228 0.09545 0.0
C1401 C 0.32913 0.15776 0.0677 0.0
C1402 C 0.3276 0.13692 0.06546 0.0
C1403 C 0.33548 0.10305 0.07728 0.0
C1404 C 0.34452 0.09032 0.0915 0.0
C1405 C 0.33691 0.12402 0.07929 0.0
C1406 C 0.35477 0.09881 0.10787 0.0
C1407 C 0.35659 0.11957 0.10975 0.0
H1408 H 0.0943 0.92563 0.18677 0.0
H1409 H 0.09078 0.87597 0.14526 0.0
H1410 H 0.12726 0.87492 0.14294 0.0
H1411 H 0.16015 0.88889 0.15157 0.0
H1412 H 0.16445 0.93649 0.19512 0.0
H1413 H 0.12767 0.93775 0.19773 0.0
C1414 C 0.10156 0.91446 0.1774 0.0
C1415 C 0.08984 0.90094 0.16617 0.0
C1416 C 0.12264 0.91377 0.17631 0.0
C1417 C 0.09943 0.88646 0.15418 0.0
C1418 C 0.1203 0.88594 0.1527 0.0
C1419 C 0.15296 0.8996 0.16153 0.0
C1420 C 0.16476 0.91288 0.17283 0.0
C1421 C 0.13201 0.89969 0.16346 0.0
C1422 C 0.15549 0.92631 0.18615 0.0
C1423 C 0.13454 0.92697 0.18765 0.0
H1424 H 0.31766 0.91012 0.39301 0.0
H1425 H 0.35862 0.91336 0.44297 0.0
H1426 H 0.35967 0.87679 0.44495 0.0
H1427 H 0.35057 0.84376 0.43112 0.0
H1428 H 0.30724 0.84024 0.38325 0.0
H1429 H 0.30528 0.8769 0.38191 0.0
C1430 C 0.32661 0.90275 0.40443 0.0
C1431 C 0.33813 0.91434 0.41773 0.0
C1432 C 0.32674 0.88167 0.40584 0.0
C1433 C 0.34954 0.9047 0.43262 0.0
C1434 C 0.35024 0.8838 0.43371 0.0
C1435 C 0.34052 0.85107 0.4206 0.0
C1436 C 0.32916 0.83942 0.40725 0.0
C1437 C 0.33913 0.87212 0.42022 0.0
C1438 C 0.31605 0.84897 0.39377 0.0
C1439 C 0.31501 0.86991 0.3929 0.0
H1440 H 0.41262 0.10665 0.67807 0.0
H1441 H 0.41195 0.05785 0.6356 0.0
H1442 H 0.37522 0.05772 0.63589 0.0
H1443 H 0.34319 0.07312 0.64669 0.0
H1444 H 0.3441 0.11984 0.69147 0.0
H1445 H 0.38076 0.11917 0.69191 0.0
C1446 C 0.40438 0.09584 0.66911 0.0
C1447 C 0.41485 0.08238 0.65676 0.0
C1448 C 0.38332 0.09559 0.66967 0.0
C1449 C 0.40412 0.06828 0.64532 0.0
C1450 C 0.38314 0.0683 0.64537 0.0
C1451 C 0.35149 0.08299 0.65663 0.0
C1452 C 0.3411 0.09661 0.6689 0.0
C1453 C 0.37257 0.08213 0.65723 0.0
C1454 C 0.35188 0.10919 0.68194 0.0
C1455 C 0.37281 0.10887 0.68215 0.0
H1456 H 0.17144 0.09959 0.93165 0.0
H1457 H 0.14504 0.0889 0.87345 0.0
H1458 H 0.13861 0.1247 0.86954 0.0
H1459 H 0.13975 0.15908 0.88291 0.0
H1460 H 0.16833 0.17029 0.93976 0.0
H1461 H 0.17424 0.13422 0.94422 0.0
C1462 C 0.1645 0.10512 0.91801 0.0
C1463 C 0.15874 0.09155 0.90289 0.0
C1464 C 0.16082 0.12576 0.91583 0.0
C1465 C 0.14978 0.09899 0.88528 0.0
C1466 C 0.14589 0.11946 0.8831 0.0
C1467 C 0.14695 0.15349 0.8964 0.0
C1468 C 0.15314 0.16704 0.91126 0.0
C1469 C 0.15108 0.13293 0.89838 0.0
C1470 C 0.16313 0.15992 0.92836 0.0
C1471 C 0.16664 0.13939 0.93081 0.0
H1472 H 0.11071 0.35863 0.15157 0.0
H1473 H 0.0581 0.32115 0.14989 0.0
H1474 H 0.0572 0.32371 0.11308 0.0
H1475 H 0.07196 0.33654 0.08118 0.0
H1476 H 0.12681 0.37088 0.08378 0.0
H1477 H 0.12637 0.36953 0.12026 0.0
C1478 C 0.09892 0.3512 0.14312 0.0
C1479 C 0.08425 0.34007 0.15333 0.0
C1480 C 0.09906 0.35203 0.12208 0.0
C1481 C 0.06942 0.32998 0.14227 0.0
C1482 C 0.06895 0.33141 0.12126 0.0
C1483 C 0.0838 0.34363 0.0898 0.0
C1484 C 0.0994 0.35377 0.07976 0.0
C1485 C 0.08378 0.34235 0.11096 0.0
C1486 C 0.11475 0.36279 0.09109 0.0
C1487 C 0.11446 0.36215 0.11199 0.0
H1488 H 0.60768 0.13662 0.90604 0.0
H1489 H 0.56645 0.18615 0.91163 0.0
H1490 H 0.56319 0.18781 0.87497 0.0
H1491 H 0.57219 0.17493 0.84136 0.0
H1492 H 0.61145 0.12356 0.83655 0.0
H1493 H 0.61509 0.12262 0.8729 0.0
C1494 C 0.59819 0.14794 0.89917 0.0
C1495 C 0.58765 0.16154 0.91134 0.0
C1496 C 0.59581 0.14825 0.87828 0.0
C1497 C 0.57488 0.17572 0.90242 0.0
C1498 C 0.57296 0.17659 0.88153 0.0
C1499 C 0.5814 0.16345 0.8483 0.0
C1500 C 0.59153 0.14935 0.83624 0.0
C1501 C 0.5833 0.16286 0.86931 0.0
C1502 C 0.60335 0.13449 0.84546 0.0
C1503 C 0.60558 0.13403 0.86625 0.0
H1504 H 0.92158 0.81733 0.34417 0.0
H1505 H 0.88483 0.8705 0.33914 0.0
H1506 H 0.8821 0.87243 0.37554 0.0
H1507 H 0.88954 0.85878 0.40879 0.0
H1508 H 0.92835 0.80734 0.41452 0.0
H1509 H 0.93075 0.80478 0.37784 0.0
C1510 C 0.91311 0.82941 0.35108 0.0
C1511 C 0.90341 0.84373 0.33896 0.0
C1512 C 0.91176 0.83057 0.3721 0.0
C1513 C 0.89258 0.85937 0.34811 0.0
C1514 C 0.89087 0.86041 0.36893 0.0
C1515 C 0.89833 0.84688 0.40196 0.0
C1516 C 0.90842 0.833 0.41417 0.0
C1517 C 0.90022 0.846 0.38104 0.0
C1518 C 0.92029 0.81803 0.40529 0.0
C1519 C 0.92171 0.81662 0.38438 0.0
H1520 H 0.88414 0.14149 0.15952 0.0
H1521 H 0.93201 0.1848 0.16317 0.0
H1522 H 0.93322 0.18685 0.12641 0.0
H1523 H 0.92098 0.17563 0.09328 0.0
H1524 H 0.87117 0.13438 0.09003 0.0
H1525 H 0.87007 0.13249 0.12662 0.0
C1526 C 0.89493 0.15125 0.15219 0.0
C1527 C 0.9083 0.16265 0.16386 0.0
C1528 C 0.89497 0.1529 0.1312 0.0
C1529 C 0.92178 0.17572 0.15437 0.0
C1530 C 0.92241 0.17693 0.13342 0.0
C1531 C 0.90975 0.16641 0.10061 0.0
C1532 C 0.89621 0.15512 0.08897 0.0
C1533 C 0.90909 0.16555 0.12168 0.0
C1534 C 0.88164 0.14334 0.09865 0.0
C1535 C 0.88113 0.14211 0.11956 0.0
H1536 H 0.43157 0.64922 0.66098 0.0
H1537 H 0.37684 0.68316 0.66668 0.0
H1538 H 0.3739 0.6853 0.63012 0.0
H1539 H 0.3865 0.67661 0.59648 0.0
H1540 H 0.44272 0.64493 0.59086 0.0
H1541 H 0.44567 0.64303 0.62728 0.0
C1542 C 0.41909 0.65711 0.6541 0.0
C1543 C 0.40436 0.6659 0.66624 0.0
C1544 C 0.41783 0.65876 0.63311 0.0
C1545 C 0.38832 0.6763 0.65741 0.0
C1546 C 0.38663 0.67751 0.63657 0.0
C1547 C 0.39947 0.66948 0.60327 0.0
C1548 C 0.41431 0.6609 0.59101 0.0
C1549 C 0.40125 0.6687 0.62426 0.0
C1550 C 0.43113 0.6518 0.59997 0.0
C1551 C 0.43278 0.65057 0.62081 0.0
H1552 H 0.06099 0.65741 0.40378 0.0
H1553 H 0.11474 0.69014 0.41875 0.0
H1554 H 0.12058 0.69728 0.38316 0.0
H1555 H 0.11178 0.69182 0.34769 0.0
H1556 H 0.06058 0.65523 0.3328 0.0
H1557 H 0.05212 0.65208 0.36844 0.0
C1558 C 0.0738 0.66637 0.39922 0.0
C1559 C 0.08735 0.67341 0.41375 0.0
C1560 C 0.07749 0.66962 0.37877 0.0
C1561 C 0.10413 0.68463 0.40774 0.0
C1562 C 0.10746 0.68868 0.38744 0.0
C1563 C 0.09857 0.68349 0.35232 0.0
C1564 C 0.08662 0.67396 0.33782 0.0
C1565 C 0.09443 0.68095 0.37281 0.0
C1566 C 0.06986 0.66276 0.34384 0.0
C1567 C 0.06508 0.66092 0.36415 0.0
H1568 H 0.42631 0.32323 0.84582 0.0
H1569 H 0.39165 0.37748 0.83839 0.0
H1570 H 0.38934 0.38136 0.87468 0.0
H1571 H 0.3967 0.36914 0.9087 0.0
H1572 H 0.4336 0.31658 0.91638 0.0
H1573 H 0.43531 0.31205 0.87993 0.0
C1574 C 0.41839 0.33597 0.85217 0.0
C1575 C 0.40919 0.35003 0.8394 0.0
C1576 C 0.41729 0.33826 0.87312 0.0
C1577 C 0.39904 0.36652 0.84785 0.0
C1578 C 0.39756 0.36868 0.86863 0.0
C1579 C 0.40492 0.3566 0.90233 0.0
C1580 C 0.41471 0.34299 0.91507 0.0
C1581 C 0.40647 0.35457 0.88141 0.0
C1582 C 0.4258 0.32711 0.90676 0.0
C1583 C 0.42684 0.32457 0.88596 0.0
H1584 H 0.91224 0.89299 0.63293 0.0
H1585 H 0.92013 0.93442 0.68193 0.0
H1586 H 0.88364 0.93614 0.68673 0.0
H1587 H 0.84946 0.92565 0.67686 0.0
H1588 H 0.84187 0.88666 0.62569 0.0
H1589 H 0.87819 0.88441 0.62163 0.0
C1590 C 0.90589 0.90224 0.64475 0.0
C1591 C 0.91868 0.91326 0.65733 0.0
C1592 C 0.88498 0.90377 0.64684 0.0
C1593 C 0.91044 0.92566 0.67224 0.0
C1594 C 0.88964 0.92669 0.67492 0.0
C1595 C 0.85579 0.9168 0.66475 0.0
C1596 C 0.843 0.90634 0.65162 0.0
C1597 C 0.87674 0.91583 0.66227 0.0
C1598 C 0.85138 0.89502 0.6359 0.0
C1599 C 0.87216 0.89358 0.63365 0.0
H1600 H 0.82211 0.15416 0.3893 0.0
H1601 H 0.86811 0.16336 0.43378 0.0
H1602 H 0.8714 0.12692 0.43819 0.0
H1603 H 0.86137 0.09252 0.42896 0.0
H1604 H 0.81831 0.08336 0.3816 0.0
H1605 H 0.81359 0.11977 0.3786 0.0
C1606 C 0.83275 0.14811 0.40004 0.0
C1607 C 0.84466 0.16126 0.41147 0.0
C1608 C 0.83506 0.12724 0.40187 0.0
C1609 C 0.85875 0.15341 0.42496 0.0
C1610 C 0.86061 0.13264 0.42746 0.0
C1611 C 0.85088 0.09856 0.41808 0.0
C1612 C 0.83995 0.08542 0.4057 0.0
C1613 C 0.84886 0.11943 0.41597 0.0
C1614 C 0.82677 0.09329 0.39131 0.0
C1615 C 0.82408 0.11405 0.38963 0.0
H1616 H 0.65871 0.11438 0.17242 0.0
H1617 H 0.66722 0.06807 0.12807 0.0
H1618 H 0.63077 0.06302 0.12607 0.0
H1619 H 0.59653 0.07235 0.13661 0.0
H1620 H 0.58799 0.12153 0.17778 0.0
H1621 H 0.62446 0.12503 0.18147 0.0
C1622 C 0.65251 0.10309 0.16245 0.0
C1623 C 0.66545 0.09135 0.15063 0.0
C1624 C 0.63162 0.1009 0.16083 0.0
C1625 C 0.65741 0.07713 0.13737 0.0
C1626 C 0.63665 0.07428 0.13624 0.0
C1627 C 0.60273 0.08373 0.14648 0.0
C1628 C 0.58977 0.0965 0.15716 0.0
C1629 C 0.62362 0.08612 0.14787 0.0
C1630 C 0.5978 0.11151 0.16953 0.0
C1631 C 0.61859 0.11349 0.17162 0.0
H1632 H 0.67504 0.90681 0.92771 0.0
H1633 H 0.64096 0.90965 0.87277 0.0
H1634 H 0.63984 0.87296 0.87132 0.0
H1635 H 0.64835 0.83993 0.88591 0.0
H1636 H 0.68473 0.83731 0.93928 0.0
H1637 H 0.68494 0.87401 0.94132 0.0
C1638 C 0.66745 0.89939 0.91536 0.0
C1639 C 0.65808 0.91094 0.90039 0.0
C1640 C 0.66708 0.87832 0.9145 0.0
C1641 C 0.64843 0.90111 0.88441 0.0
C1642 C 0.64765 0.88013 0.88365 0.0
C1643 C 0.6561 0.84747 0.89808 0.0
C1644 C 0.66622 0.83605 0.91264 0.0
C1645 C 0.6568 0.86858 0.89869 0.0
C1646 C 0.6767 0.84588 0.92804 0.0
C1647 C 0.67688 0.86682 0.92915 0.0
H1648 H 0.8439 0.11306 0.85125 0.0
H1649 H 0.83992 0.06328 0.81015 0.0
H1650 H 0.87651 0.05934 0.81089 0.0
H1651 H 0.90959 0.07045 0.82306 0.0
H1652 H 0.91343 0.12213 0.86198 0.0
H1653 H 0.87696 0.1252 0.862 0.0
C1654 C 0.8511 0.10121 0.84269 0.0
C1655 C 0.83942 0.08821 0.83098 0.0
C1656 C 0.87208 0.09961 0.84256 0.0
C1657 C 0.84877 0.07327 0.81943 0.0
C1658 C 0.86962 0.0711 0.81979 0.0
C1659 C 0.90242 0.08245 0.83143 0.0
C1660 C 0.91417 0.09603 0.84248 0.0
C1661 C 0.88143 0.08428 0.83121 0.0
C1662 C 0.90472 0.11158 0.85319 0.0
C1663 C 0.88386 0.11327 0.85336 0.0
H1664 H 0.65013 0.15738 0.61371 0.0
H1665 H 0.68871 0.16469 0.56239 0.0
H1666 H 0.68957 0.12811 0.55752 0.0
H1667 H 0.67874 0.09406 0.56786 0.0
H1668 H 0.64268 0.08731 0.62124 0.0
H1669 H 0.64163 0.12364 0.62552 0.0
C1670 C 0.65861 0.1509 0.60139 0.0
C1671 C 0.66901 0.16352 0.58815 0.0
C1672 C 0.65962 0.13 0.59922 0.0
C1673 C 0.68044 0.15512 0.57259 0.0
C1674 C 0.68095 0.13427 0.56986 0.0
C1675 C 0.67081 0.10059 0.58049 0.0
C1676 C 0.66078 0.08804 0.59419 0.0
C1677 C 0.67055 0.12156 0.58309 0.0
C1678 C 0.65067 0.09664 0.61059 0.0
C1679 C 0.64992 0.11742 0.61298 0.0
H1680 H 0.58927 0.92831 0.36063 0.0
H1681 H 0.57887 0.88122 0.31755 0.0
H1682 H 0.61478 0.88027 0.30951 0.0
H1683 H 0.64928 0.89179 0.31597 0.0
H1684 H 0.66027 0.93549 0.36234 0.0
H1685 H 0.62401 0.93901 0.36794 0.0
C1686 C 0.59493 0.91803 0.34934 0.0
C1687 C 0.58158 0.90503 0.33944 0.0
C1688 C 0.61565 0.91698 0.3455 0.0
C1689 C 0.58898 0.8914 0.32522 0.0
C1690 C 0.60945 0.89086 0.32066 0.0
C1691 C 0.64365 0.90228 0.32709 0.0
C1692 C 0.65724 0.91366 0.3385 0.0
C1693 C 0.62294 0.90346 0.33083 0.0
C1694 C 0.64996 0.92676 0.35329 0.0
C1695 C 0.62929 0.92871 0.3565 0.0
H1696 H 0.81791 0.84027 0.1116 0.0
H1697 H 0.85657 0.83287 0.06034 0.0
H1698 H 0.85907 0.86945 0.05669 0.0
H1699 H 0.85211 0.90345 0.06962 0.0
H1700 H 0.81728 0.91054 0.12365 0.0
H1701 H 0.8113 0.87424 0.12478 0.0
C1702 C 0.82655 0.84675 0.09942 0.0
C1703 C 0.83672 0.83405 0.08597 0.0
C1704 C 0.82871 0.86771 0.09809 0.0
C1705 C 0.84843 0.84246 0.07065 0.0
C1706 C 0.84991 0.86333 0.06865 0.0
C1707 C 0.84297 0.89703 0.08146 0.0
C1708 C 0.83492 0.9096 0.09641 0.0
C1709 C 0.84037 0.87609 0.08247 0.0
C1710 C 0.82353 0.90112 0.11196 0.0
C1711 C 0.82014 0.8804 0.1126 0.0
H1712 H 0.93463 0.67682 0.9072 0.0
H1713 H 0.88386 0.63695 0.91249 0.0
H1714 H 0.87896 0.63793 0.87622 0.0
H1715 H 0.88942 0.6496 0.84291 0.0
H1716 H 0.93818 0.69172 0.83756 0.0
H1717 H 0.94376 0.69026 0.87392 0.0
C1718 C 0.92243 0.66847 0.90039 0.0
C1719 C 0.90965 0.65681 0.91248 0.0
C1720 C 0.91951 0.66932 0.87953 0.0
C1721 C 0.8938 0.64617 0.90352 0.0
C1722 C 0.89108 0.64659 0.88277 0.0
C1723 C 0.90138 0.65829 0.84975 0.0
C1724 C 0.91366 0.67044 0.83771 0.0
C1725 C 0.90394 0.65796 0.87063 0.0
C1726 C 0.92873 0.68212 0.84665 0.0
C1727 C 0.93185 0.68133 0.86738 0.0
H1728 H 0.43056 0.82152 0.09345 0.0
H1729 H 0.37946 0.86106 0.08856 0.0
H1730 H 0.37651 0.86226 0.125 0.0
H1731 H 0.38884 0.8528 0.15832 0.0
H1732 H 0.43791 0.81101 0.16371 0.0
H1733 H 0.44141 0.81001 0.12705 0.0
C1734 C 0.41871 0.83026 0.1004 0.0
C1735 C 0.40528 0.84121 0.08833 0.0
C1736 C 0.41687 0.83063 0.12143 0.0
C1737 C 0.38989 0.85236 0.0975 0.0
C1738 C 0.38827 0.85318 0.11835 0.0
C1739 C 0.40038 0.84359 0.15142 0.0
C1740 C 0.41335 0.83227 0.16356 0.0
C1741 C 0.40178 0.84255 0.13045 0.0
C1742 C 0.42789 0.81996 0.15456 0.0
C1743 C 0.42985 0.81937 0.13365 0.0
H1744 H 0.07421 0.17873 0.65901 0.0
H1745 H 0.10473 0.12154 0.65765 0.0
H1746 H 0.10592 0.12267 0.62116 0.0
H1747 H 0.09876 0.13995 0.58958 0.0
H1748 H 0.0654 0.19533 0.59005 0.0
H1749 H 0.06505 0.1951 0.62693 0.0
C1750 C 0.08096 0.16647 0.65069 0.0
C1751 C 0.08936 0.15009 0.66105 0.0
C1752 C 0.08135 0.16705 0.62958 0.0
C1753 C 0.09798 0.13425 0.65007 0.0
C1754 C 0.09883 0.13494 0.62919 0.0
C1755 C 0.09165 0.15208 0.59783 0.0
C1756 C 0.08255 0.16789 0.58734 0.0
C1757 C 0.09074 0.15133 0.61882 0.0
C1758 C 0.07276 0.1832 0.59799 0.0
C1759 C 0.07248 0.18299 0.619 0.0
H1760 H 0.11129 0.85625 0.84435 0.0
H1761 H 0.06204 0.81444 0.84132 0.0
H1762 H 0.05877 0.81527 0.87795 0.0
H1763 H 0.07029 0.82769 0.91082 0.0
H1764 H 0.12136 0.86743 0.9137 0.0
H1765 H 0.12376 0.8674 0.87717 0.0
C1766 C 0.09969 0.84753 0.85174 0.0
C1767 C 0.08668 0.83558 0.84027 0.0
C1768 C 0.09843 0.84751 0.87276 0.0
C1769 C 0.07208 0.82388 0.84994 0.0
C1770 C 0.07027 0.8243 0.87084 0.0
C1771 C 0.08199 0.83626 0.90343 0.0
C1772 C 0.09562 0.84755 0.91495 0.0
C1773 C 0.08345 0.83598 0.88241 0.0
C1774 C 0.11079 0.85848 0.90519 0.0
C1775 C 0.11209 0.8586 0.88429 0.0
H1776 H 0.56902 0.32908 0.41038 0.0
H1777 H 0.62302 0.36446 0.41558 0.0
H1778 H 0.62586 0.366 0.37914 0.0
H1779 H 0.61292 0.35762 0.34574 0.0
H1780 H 0.56092 0.31964 0.34005 0.0
H1781 H 0.55717 0.3189 0.3767 0.0
C1782 C 0.58145 0.337 0.40349 0.0
C1783 C 0.59578 0.34663 0.41564 0.0
C1784 C 0.58321 0.33754 0.38247 0.0
C1785 C 0.6119 0.35675 0.40656 0.0
C1786 C 0.61346 0.35778 0.38572 0.0
C1787 C 0.60065 0.34938 0.35258 0.0
C1788 C 0.58696 0.33904 0.34038 0.0
C1789 C 0.59914 0.34836 0.37354 0.0
C1790 C 0.57148 0.32788 0.34928 0.0
C1791 C 0.5694 0.32741 0.37017 0.0
H1792 H 0.90583 0.33204 0.66288 0.0
H1793 H 0.94035 0.38672 0.66319 0.0
H1794 H 0.94294 0.38548 0.62647 0.0
H1795 H 0.93407 0.36951 0.59421 0.0
H1796 H 0.89572 0.31747 0.59383 0.0
H1797 H 0.8959 0.31683 0.63065 0.0
C1798 C 0.91414 0.34353 0.65488 0.0
C1799 C 0.92321 0.35928 0.66565 0.0
C1800 C 0.91476 0.34316 0.63379 0.0
C1801 C 0.93342 0.3744 0.65516 0.0
C1802 C 0.93486 0.37368 0.63421 0.0
C1803 C 0.92598 0.35791 0.60226 0.0
C1804 C 0.91519 0.34331 0.59146 0.0
C1805 C 0.92545 0.35823 0.62336 0.0
C1806 C 0.90426 0.3287 0.60192 0.0
C1807 C 0.90436 0.32837 0.62292 0.0
H1808 H 0.57334 0.67678 0.15774 0.0
H1809 H 0.60881 0.62258 0.16055 0.0
H1810 H 0.60905 0.62042 0.12412 0.0
H1811 H 0.59976 0.63404 0.09135 0.0
H1812 H 0.56178 0.68626 0.08785 0.0
H1813 H 0.56208 0.68928 0.12459 0.0
C1814 C 0.58097 0.66444 0.15034 0.0
C1815 C 0.59103 0.64988 0.16185 0.0
C1816 C 0.58082 0.66308 0.12926 0.0
C1817 C 0.60078 0.63389 0.15208 0.0
C1818 C 0.60108 0.63271 0.13121 0.0
C1819 C 0.59174 0.6462 0.09868 0.0
C1820 C 0.58112 0.66017 0.08709 0.0
C1821 C 0.59132 0.64729 0.11967 0.0
C1822 C 0.57024 0.6755 0.09662 0.0
C1823 C 0.57036 0.67716 0.11756 0.0
H1824 H 0.59653 0.60181 0.86392 0.0
H1825 H 0.59157 0.56916 0.80832 0.0
H1826 H 0.62815 0.56578 0.80669 0.0
H1827 H 0.66155 0.5723 0.82109 0.0
H1828 H 0.66624 0.60297 0.87796 0.0
H1829 H 0.62981 0.60655 0.87932 0.0
C1830 C 0.60354 0.59417 0.85136 0.0
C1831 C 0.59152 0.58609 0.83604 0.0
C1832 C 0.62449 0.59164 0.85093 0.0
C1833 C 0.60063 0.57568 0.82014 0.0
C1834 C 0.6215 0.57367 0.81927 0.0
C1835 C 0.65459 0.57958 0.83388 0.0
C1836 C 0.66665 0.58734 0.84938 0.0
C1837 C 0.63358 0.58154 0.83462 0.0
C1838 C 0.65735 0.59668 0.86589 0.0
C1839 C 0.6365 0.59892 0.8666 0.0
H1840 H 0.63271 0.40821 0.1085 0.0
H1841 H 0.68736 0.41071 0.07401 0.0
H1842 H 0.68851 0.37396 0.07261 0.0
H1843 H 0.67356 0.34113 0.08081 0.0
H1844 H 0.61737 0.33895 0.11296 0.0
H1845 H 0.61703 0.37551 0.1154 0.0
C1846 C 0.64499 0.40064 0.10093 0.0
C1847 C 0.66014 0.41201 0.09169 0.0
C1848 C 0.64509 0.37959 0.09951 0.0
C1849 C 0.67567 0.40216 0.08139 0.0
C1850 C 0.67627 0.38119 0.08052 0.0
C1851 C 0.6612 0.34867 0.08825 0.0
C1852 C 0.64552 0.33731 0.09667 0.0
C1853 C 0.66097 0.36975 0.0894 0.0
C1854 C 0.62955 0.34732 0.10618 0.0
C1855 C 0.62941 0.36823 0.10773 0.0
H1856 H 0.84707 0.39429 0.31966 0.0
H1857 H 0.83687 0.43422 0.3695 0.0
H1858 H 0.8732 0.43866 0.37365 0.0
H1859 H 0.90784 0.4299 0.36394 0.0
H1860 H 0.91785 0.38646 0.31706 0.0
H1861 H 0.88164 0.38459 0.31076 0.0
C1862 C 0.85288 0.40415 0.33125 0.0
C1863 C 0.83948 0.4142 0.34408 0.0
C1864 C 0.8737 0.40586 0.33408 0.0
C1865 C 0.84702 0.4265 0.3594 0.0
C1866 C 0.86773 0.42899 0.36177 0.0
C1867 C 0.90203 0.42021 0.35221 0.0
C1868 C 0.91536 0.40853 0.34076 0.0
C1869 C 0.88121 0.4186 0.34931 0.0
C1870 C 0.90777 0.39563 0.32595 0.0
C1871 C 0.88712 0.39457 0.32238 0.0
H1872 H 0.85328 0.65491 0.61799 0.0
H1873 H 0.81806 0.65408 0.56378 0.0
H1874 H 0.81848 0.61725 0.5638 0.0
H1875 H 0.82887 0.58533 0.57942 0.0
H1876 H 0.86167 0.58646 0.63522 0.0
H1877 H 0.86198 0.62312 0.63458 0.0
C1878 C 0.84589 0.64661 0.60609 0.0
C1879 C 0.83597 0.65706 0.59069 0.0
C1880 C 0.84556 0.62554 0.60664 0.0
C1881 C 0.82594 0.64626 0.57566 0.0
C1882 C 0.82613 0.62525 0.57571 0.0
C1883 C 0.83599 0.59362 0.59148 0.0
C1884 C 0.84527 0.58319 0.60732 0.0
C1885 C 0.83585 0.61473 0.59117 0.0
C1886 C 0.8543 0.59413 0.62293 0.0
C1887 C 0.8546 0.61509 0.62251 0.0
H1888 H 0.59117 0.39768 0.68592 0.0
H1889 H 0.59652 0.45073 0.6493 0.0
H1890 H 0.6331 0.44878 0.65128 0.0
H1891 H 0.66368 0.43057 0.66161 0.0
H1892 H 0.65839 0.3794 0.70076 0.0
H1893 H 0.62176 0.382 0.69973 0.0
C1894 C 0.60039 0.40894 0.67863 0.0
C1895 C 0.59123 0.42425 0.6674 0.0
C1896 C 0.62142 0.40797 0.68018 0.0
C1897 C 0.60326 0.43887 0.65814 0.0
C1898 C 0.62418 0.43769 0.65915 0.0
C1899 C 0.65444 0.42016 0.67004 0.0
C1900 C 0.66359 0.40473 0.68109 0.0
C1901 C 0.63343 0.4221 0.66983 0.0
C1902 C 0.65159 0.39143 0.69219 0.0
C1903 C 0.63068 0.39286 0.69154 0.0
H1904 H 0.8237 0.33873 0.89503 0.0
H1905 H 0.87531 0.32744 0.93236 0.0
H1906 H 0.87589 0.36277 0.9426 0.0
H1907 H 0.86325 0.39727 0.93889 0.0
H1908 H 0.8147 0.40932 0.89798 0.0
H1909 H 0.81109 0.37328 0.89128 0.0
C1910 C 0.83489 0.344 0.90562 0.0
C1911 C 0.84936 0.33057 0.91309 0.0
C1912 C 0.83561 0.36444 0.91074 0.0
C1913 C 0.86404 0.33757 0.92646 0.0
C1914 C 0.86435 0.35772 0.9323 0.0
C1915 C 0.85161 0.39188 0.92887 0.0
C1916 C 0.83896 0.40572 0.91921 0.0
C1917 C 0.85041 0.37134 0.92431 0.0
C1918 C 0.82437 0.3988 0.90573 0.0
C1919 C 0.82241 0.37826 0.90184 0.0
H1920 H 0.91196 0.57079 0.17261 0.0
H1921 H 0.91737 0.62619 0.1395 0.0
H1922 H 0.88096 0.62782 0.13578 0.0
H1923 H 0.84742 0.61338 0.14177 0.0
H1924 H 0.84193 0.55937 0.17689 0.0
H1925 H 0.87849 0.55708 0.17969 0.0
C1926 C 0.90517 0.58329 0.1647 0.0
C1927 C 0.91739 0.59834 0.15639 0.0
C1928 C 0.8842 0.58421 0.16271 0.0
C1929 C 0.90833 0.61448 0.14622 0.0
C1930 C 0.8875 0.61535 0.14393 0.0
C1931 C 0.85432 0.60099 0.14976 0.0
C1932 C 0.84216 0.58636 0.15882 0.0
C1933 C 0.87529 0.60022 0.15197 0.0
C1934 C 0.85112 0.57067 0.16965 0.0
C1935 C 0.87197 0.56942 0.17133 0.0
H1936 H 0.63348 0.59254 0.38669 0.0
H1937 H 0.68546 0.58667 0.42467 0.0
H1938 H 0.68794 0.62328 0.4274 0.0
H1939 H 0.67509 0.65696 0.41907 0.0
H1940 H 0.62138 0.66257 0.38334 0.0
H1941 H 0.61958 0.62612 0.3799 0.0
C1942 C 0.64546 0.59935 0.39536 0.0
C1943 C 0.65951 0.58707 0.40516 0.0
C1944 C 0.64629 0.62033 0.39749 0.0
C1945 C 0.67463 0.59593 0.41685 0.0
C1946 C 0.67599 0.61682 0.41846 0.0
C1947 C 0.66293 0.65018 0.41064 0.0
C1948 C 0.64841 0.66248 0.40148 0.0
C1949 C 0.66184 0.62917 0.40892 0.0
C1950 C 0.63266 0.65346 0.3907 0.0
C1951 C 0.6317 0.63261 0.38858 0.0
H1952 H 0.57792 0.818 0.59783 0.0
H1953 H 0.62795 0.85874 0.59198 0.0
H1954 H 0.63111 0.86051 0.62839 0.0
H1955 H 0.61918 0.85126 0.66194 0.0
H1956 H 0.57114 0.80846 0.66826 0.0
H1957 H 0.56748 0.80682 0.63163 0.0
C1958 C 0.58961 0.82711 0.60455 0.0
C1959 C 0.60265 0.83824 0.59221 0.0
C1960 C 0.59151 0.82789 0.62556 0.0
C1961 C 0.61781 0.8499 0.60111 0.0
C1962 C 0.61954 0.85106 0.62195 0.0
C1963 C 0.60779 0.84172 0.65525 0.0
C1964 C 0.59514 0.83031 0.66763 0.0
C1965 C 0.60634 0.84032 0.6343 0.0
C1966 C 0.58086 0.81753 0.65891 0.0
C1967 C 0.57884 0.81656 0.63802 0.0
H1968 H 0.4071 0.39817 0.1425 0.0
H1969 H 0.41057 0.43687 0.19419 0.0
H1970 H 0.37399 0.43506 0.19831 0.0
H1971 H 0.34094 0.42284 0.18663 0.0
H1972 H 0.33768 0.38699 0.1328 0.0
H1973 H 0.37421 0.38744 0.12992 0.0
C1974 C 0.39981 0.40599 0.1548 0.0
C1975 C 0.41138 0.41732 0.16827 0.0
C1976 C 0.37882 0.40557 0.15651 0.0
C1977 C 0.40185 0.4279 0.1838 0.0
C1978 C 0.38099 0.42692 0.18609 0.0
C1979 C 0.34828 0.41518 0.17428 0.0
C1980 C 0.33668 0.40489 0.15996 0.0
C1981 C 0.3693 0.41589 0.17245 0.0
C1982 C 0.3463 0.39516 0.14391 0.0
C1983 C 0.36718 0.3953 0.14232 0.0
H1984 H 0.31099 0.65395 0.89129 0.0
H1985 H 0.34683 0.66162 0.9445 0.0
H1986 H 0.3506 0.62511 0.94751 0.0
H1987 H 0.34626 0.59137 0.93315 0.0
H1988 H 0.3144 0.58422 0.87732 0.0
H1989 H 0.3064 0.62013 0.87707 0.0
C1990 C 0.31921 0.64751 0.90378 0.0
C1991 C 0.3283 0.66023 0.91792 0.0
C1992 C 0.3222 0.62666 0.90473 0.0
C1993 C 0.33951 0.65195 0.93366 0.0
C1994 C 0.34174 0.63115 0.93529 0.0
C1995 C 0.33729 0.59766 0.92111 0.0
C1996 C 0.33077 0.58523 0.90535 0.0
C1997 C 0.33352 0.61839 0.92066 0.0
C1998 C 0.31954 0.59356 0.8896 0.0
C1999 C 0.31498 0.61405 0.88947 0.0
H2000 H 0.15859 0.61862 0.64425 0.0
H2001 H 0.16718 0.5658 0.68049 0.0
H2002 H 0.1307 0.56156 0.6834 0.0
H2003 H 0.09626 0.57309 0.67547 0.0
H2004 H 0.08838 0.62776 0.64159 0.0
H2005 H 0.12458 0.63124 0.6382 0.0
C2006 C 0.15242 0.60607 0.6526 0.0
C2007 C 0.16541 0.5923 0.66181 0.0
C2008 C 0.13155 0.60424 0.65486 0.0
C2009 C 0.15736 0.57644 0.6731 0.0
C2010 C 0.13654 0.57408 0.67482 0.0
C2011 C 0.1025 0.58584 0.66751 0.0
C2012 C 0.08959 0.60013 0.65882 0.0
C2013 C 0.12347 0.58794 0.6658 0.0
C2014 C 0.09792 0.61662 0.6486 0.0
C2015 C 0.11865 0.61857 0.6465 0.0
H2016 H 0.14241 0.40946 0.43129 0.0
H2017 H 0.18072 0.42115 0.38053 0.0
H2018 H 0.18498 0.38499 0.3751 0.0
H2019 H 0.1763 0.35003 0.3838 0.0
H2020 H 0.13455 0.33869 0.43185 0.0
H2021 H 0.13314 0.37465 0.43949 0.0
C2022 C 0.15189 0.40404 0.41921 0.0
C2023 C 0.16146 0.41786 0.40646 0.0
C2024 C 0.15354 0.38329 0.41569 0.0
C2025 C 0.1733 0.41073 0.39056 0.0
C2026 C 0.17571 0.39009 0.38746 0.0
C2027 C 0.16712 0.35548 0.39609 0.0
C2028 C 0.15573 0.34182 0.40744 0.0
C2029 C 0.16572 0.37623 0.39979 0.0
C2030 C 0.14349 0.349 0.42301 0.0
C2031 C 0.14267 0.36952 0.42734 0.0
H2032 H 0.41177 0.57827 0.32402 0.0
H2033 H 0.41224 0.6308 0.36198 0.0
H2034 H 0.37569 0.63177 0.36165 0.0
H2035 H 0.34362 0.61739 0.35133 0.0
H2036 H 0.34233 0.56695 0.31089 0.0
H2037 H 0.37921 0.56529 0.31145 0.0
C2038 C 0.40381 0.58998 0.33206 0.0
C2039 C 0.41465 0.60442 0.34302 0.0
C2040 C 0.38272 0.59069 0.33152 0.0
C2041 C 0.40423 0.61963 0.35328 0.0
C2042 C 0.38333 0.62012 0.35324 0.0
C2043 C 0.35146 0.60595 0.34276 0.0
C2044 C 0.34047 0.59204 0.33142 0.0
C2045 C 0.37246 0.60564 0.34258 0.0
C2046 C 0.35064 0.57765 0.31988 0.0
C2047 C 0.37164 0.57675 0.32018 0.0
H2048 H 0.1834 0.60345 0.07067 0.0
H2049 H 0.15282 0.59658 0.1274 0.0
H2050 H 0.14959 0.63286 0.13039 0.0
H2051 H 0.15355 0.66637 0.11604 0.0
H2052 H 0.18619 0.67415 0.06081 0.0
H2053 H 0.19039 0.63758 0.05787 0.0
C2054 C 0.17629 0.60994 0.0838 0.0
C2055 C 0.16826 0.59735 0.09872 0.0
C2056 C 0.17456 0.63088 0.0855 0.0
C2057 C 0.15922 0.60593 0.11574 0.0
C2058 C 0.15719 0.62667 0.1174 0.0
C2059 C 0.1615 0.65997 0.10333 0.0
C2060 C 0.16916 0.67261 0.08839 0.0
C2061 C 0.16442 0.63922 0.10219 0.0
C2062 C 0.17998 0.66446 0.07228 0.0
C2063 C 0.18241 0.64366 0.07068 0.0
H2064 H 0.15955 0.37662 0.86647 0.0
H2065 H 0.15574 0.42212 0.82054 0.0
H2066 H 0.11936 0.41839 0.81951 0.0
H2067 H 0.08871 0.40322 0.83217 0.0
H2068 H 0.09131 0.35798 0.8783 0.0
H2069 H 0.12817 0.35999 0.87823 0.0
C2070 C 0.15069 0.38586 0.85643 0.0
C2071 C 0.16032 0.39991 0.84382 0.0
C2072 C 0.12967 0.38336 0.85564 0.0
C2073 C 0.14871 0.41138 0.8305 0.0
C2074 C 0.12791 0.40917 0.82982 0.0
C2075 C 0.09733 0.39355 0.84204 0.0
C2076 C 0.08728 0.38046 0.85523 0.0
C2077 C 0.11827 0.39526 0.84231 0.0
C2078 C 0.09867 0.36798 0.86782 0.0
C2079 C 0.11973 0.36938 0.86799 0.0
H2080 H 0.32853 0.41146 0.57427 0.0
H2081 H 0.3658 0.41544 0.62705 0.0
H2082 H 0.36778 0.37887 0.6287 0.0
H2083 H 0.35933 0.34573 0.61492 0.0
H2084 H 0.31961 0.34133 0.56412 0.0
H2085 H 0.31828 0.37809 0.56172 0.0
C2086 C 0.33698 0.40429 0.58618 0.0
C2087 C 0.34704 0.41613 0.60049 0.0
C2088 C 0.33778 0.38321 0.58724 0.0
C2089 C 0.3578 0.40666 0.61595 0.0
C2090 C 0.35906 0.38576 0.61682 0.0
C2091 C 0.35056 0.35288 0.60321 0.0
C2092 C 0.33991 0.341 0.58944 0.0
C2093 C 0.34925 0.3739 0.60246 0.0
C2094 C 0.32809 0.35029 0.57471 0.0
C2095 C 0.32729 0.37125 0.5734 0.0
H2096 H 0.43434 0.16705 0.40464 0.0
H2097 H 0.37452 0.14343 0.41228 0.0
H2098 H 0.3709 0.14012 0.376 0.0
H2099 H 0.38486 0.14363 0.34196 0.0
H2100 H 0.44345 0.16978 0.33414 0.0
H2101 H 0.44765 0.17209 0.37059 0.0
C2102 C 0.42047 0.16133 0.39834 0.0
C2103 C 0.40473 0.15553 0.41114 0.0
C2104 C 0.41841 0.15962 0.37744 0.0
C2105 C 0.3868 0.1482 0.40276 0.0
C2106 C 0.38477 0.14613 0.38202 0.0
C2107 C 0.39862 0.14956 0.34834 0.0
C2108 C 0.41402 0.15616 0.3356 0.0
C2109 C 0.40053 0.15162 0.36922 0.0
C2110 C 0.43156 0.1644 0.34383 0.0
C2111 C 0.43389 0.16582 0.3646 0.0
H2112 H 0.00253 0.14125 0.30109 0.0
H2113 H 0.99945 0.07684 0.29443 0.0
H2114 H 0.97528 0.08062 0.26722 0.0
H2115 H 0.95208 0.10197 0.24812 0.0
H2116 H 0.95469 0.16634 0.25521 0.0
H2117 H 0.9821 0.16277 0.27922 0.0
C2118 C 0.99684 0.12803 0.29348 0.0
C2119 C 0.00265 0.10878 0.30002 0.0
C2120 C 0.98269 0.13028 0.278 0.0
C2121 C 0.99521 0.09185 0.28983 0.0
C2122 C 0.98129 0.09398 0.27429 0.0
C2123 C 0.95884 0.11525 0.25466 0.0
C2124 C 0.95112 0.13438 0.25002 0.0
C2125 C 0.97445 0.11309 0.26868 0.0
C2126 C 0.96023 0.15142 0.25854 0.0
C2127 C 0.97587 0.1494 0.27236 0.0
H2128 H 0.10265 0.755 0.55371 0.0
H2129 H 0.16679 0.75183 0.54511 0.0
H2130 H 0.16226 0.72711 0.51849 0.0
H2131 H 0.14033 0.70376 0.50015 0.0
H2132 H 0.07617 0.70735 0.50822 0.0
H2133 H 0.08047 0.7346 0.53235 0.0
C2134 C 0.11562 0.74914 0.5458 0.0
C2135 C 0.13503 0.75511 0.55159 0.0
C2136 C 0.11293 0.73485 0.5305 0.0
C2137 C 0.15166 0.74751 0.54102 0.0
C2138 C 0.1491 0.73326 0.52584 0.0
C2139 C 0.12728 0.7107 0.50699 0.0
C2140 C 0.10798 0.70336 0.50256 0.0
C2141 C 0.12985 0.7264 0.52085 0.0
C2142 C 0.0912 0.71267 0.51136 0.0
C2143 C 0.09365 0.72821 0.52526 0.0
H2144 H 0.55784 0.89155 0.75328 0.0
H2145 H 0.55439 0.82725 0.76049 0.0
H2146 H 0.52646 0.83115 0.7838 0.0
H2147 H 0.50496 0.85289 0.8045 0.0
H2148 H 0.50823 0.91719 0.79712 0.0
H2149 H 0.534 0.91314 0.77145 0.0
C2150 C 0.55083 0.87837 0.75976 0.0
C2151 C 0.5584 0.85916 0.75525 0.0
C2152 C 0.53474 0.8807 0.77325 0.0
C2153 C 0.54897 0.84225 0.76369 0.0
C2154 C 0.533 0.84445 0.77711 0.0
C2155 C 0.51109 0.86601 0.79708 0.0
C2156 C 0.50475 0.88531 0.80293 0.0
C2157 C 0.52605 0.86361 0.78236 0.0
C2158 C 0.51281 0.90213 0.79302 0.0
C2159 C 0.52765 0.89985 0.77836 0.0
H2160 H 0.41112 0.29907 0.00772 0.0
H2161 H 0.34874 0.31141 0.99537 0.0
H2162 H 0.33866 0.28429 0.01778 0.0
H2163 H 0.34742 0.25973 0.04376 0.0
H2164 H 0.40976 0.24846 0.0573 0.0
H2165 H 0.41994 0.27228 0.03145 0.0
C2166 C 0.39534 0.29558 0.00963 0.0
C2167 C 0.38072 0.30738 1.00001 0.0
C2168 C 0.3896 0.28025 0.02293 0.0
C2169 C 0.36031 0.30268 0.00271 0.0
C2170 C 0.35452 0.28719 0.01557 0.0
C2171 C 0.36324 0.26221 0.04083 0.0
C2172 C 0.37778 0.25246 0.05261 0.0
C2173 C 0.36901 0.27628 0.02622 0.0
C2174 C 0.39822 0.25588 0.04858 0.0
C2175 C 0.40408 0.26954 0.03381 0.0
H2176 H 0.99384 0.9035 0.21021 0.0
H2177 H 0.0044 0.84068 0.19835 0.0
H2178 H 0.98005 0.83152 0.22418 0.0
H2179 H 0.95292 0.84137 0.2471 0.0
H2180 H 0.94058 0.9042 0.25698 0.0
H2181 H 0.96858 0.91333 0.23516 0.0
C2182 C 0.99114 0.8878 0.21357 0.0
C2183 C 0.00087 0.8728 0.20231 0.0
C2184 C 0.97662 0.88264 0.22797 0.0
C2185 C 0.99705 0.85252 0.20673 0.0
C2186 C 0.98307 0.84727 0.22146 0.0
C2187 C 0.95662 0.85706 0.24482 0.0
C2188 C 0.94462 0.87208 0.25359 0.0
C2189 C 0.97234 0.8622 0.23174 0.0
C2190 C 0.94951 0.89235 0.25032 0.0
C2191 C 0.9655 0.89758 0.23781 0.0
H2192 H 0.35048 0.70619 0.5062 0.0
H2193 H 0.41501 0.71217 0.50558 0.0
H2194 H 0.41235 0.73996 0.48189 0.0
H2195 H 0.39209 0.7595 0.45818 0.0
H2196 H 0.32769 0.75241 0.45756 0.0
H2197 H 0.32994 0.72837 0.48511 0.0
C2198 C 0.36397 0.71379 0.50118 0.0
C2199 C 0.38295 0.70689 0.50753 0.0
C2200 C 0.36237 0.72948 0.48718 0.0
C2201 C 0.40022 0.71703 0.5009 0.0
C2202 C 0.39872 0.7329 0.48726 0.0
C2203 C 0.37848 0.753 0.46429 0.0
C2204 C 0.35975 0.75763 0.4556 0.0
C2205 C 0.37992 0.7388 0.47981 0.0
C2206 C 0.3423 0.7491 0.46385 0.0
C2207 C 0.34359 0.73524 0.47956 0.0
H2208 H 0.50977 0.08562 0.7008 0.0
H2209 H 0.48561 0.14566 0.70395 0.0
H2210 H 0.50817 0.15363 0.73161 0.0
H2211 H 0.53806 0.14526 0.75119 0.0
H2212 H 0.56354 0.08582 0.74691 0.0
H2213 H 0.53702 0.07586 0.72373 0.0
C2214 C 0.50909 0.10026 0.7079 0.0
C2215 C 0.49623 0.1151 0.70017 0.0
C2216 C 0.52255 0.10497 0.72345 0.0
C2217 C 0.49555 0.13404 0.70948 0.0
C2218 C 0.50849 0.13864 0.72527 0.0
C2219 C 0.53761 0.13 0.74553 0.0
C2220 C 0.55297 0.11644 0.75054 0.0
C2221 C 0.52261 0.1245 0.73181 0.0
C2222 C 0.55203 0.09666 0.74314 0.0
C2223 C 0.53689 0.09095 0.72981 0.0
H2224 H 0.15165 0.25978 0.95047 0.0
H2225 H 0.08829 0.25844 0.9371 0.0
H2226 H 0.08227 0.28483 0.96182 0.0
H2227 H 0.09549 0.31064 0.98489 0.0
H2228 H 0.15906 0.31213 0.99742 0.0
H2229 H 0.16438 0.28337 0.97555 0.0
C2230 C 0.13647 0.26502 0.95315 0.0
C2231 C 0.12051 0.25722 0.94177 0.0
C2232 C 0.13313 0.28043 0.96716 0.0
C2233 C 0.10092 0.2642 0.94556 0.0
C2234 C 0.09745 0.27938 0.95966 0.0
C2235 C 0.11045 0.30449 0.98306 0.0
C2236 C 0.12685 0.31373 0.99265 0.0
C2237 C 0.11351 0.28798 0.97019 0.0
C2238 C 0.14615 0.3055 0.9901 0.0
C2239 C 0.14925 0.28901 0.97756 0.0
H2240 H 0.30816 0.00174 0.147 0.0
H2241 H 0.29265 0.00531 0.08421 0.0
H2242 H 0.26318 0.98444 0.09007 0.0
H2243 H 0.24435 0.96177 0.11208 0.0
H2244 H 0.26009 0.95765 0.17476 0.0
H2245 H 0.28661 0.98245 0.16993 0.0
C2246 C 0.29817 0.9982 0.13464 0.0
C2247 C 0.30282 0.00483 0.11513 0.0
C2248 C 0.2813 0.98602 0.13807 0.0
C2249 C 0.28956 1.00031 0.09936 0.0
C2250 C 0.2727 0.98831 0.10268 0.0
C2251 C 0.25331 0.96659 0.12479 0.0
C2252 C 0.25038 0.95765 0.14369 0.0
C2253 C 0.26879 0.98058 0.12184 0.0
C2254 C 0.262 0.96423 0.16003 0.0
C2255 C 0.27731 0.97831 0.15725 0.0
H2256 H 0.29613 1.00084 0.35441 0.0
H2257 H 0.29128 0.00474 0.41888 0.0
H2258 H 0.26494 0.02998 0.41558 0.0
H2259 H 0.24605 0.05366 0.39453 0.0
H2260 H 0.25138 0.05022 0.33007 0.0
H2261 H 0.27454 0.02202 0.33328 0.0
C2262 C 0.28909 0.00694 0.36776 0.0
C2263 C 0.2959 0.00098 0.38688 0.0
C2264 C 0.27413 0.02172 0.36577 0.0
C2265 C 0.28646 0.00903 0.40397 0.0
C2266 C 0.27143 0.02358 0.4021 0.0
C2267 C 0.25203 0.04657 0.38115 0.0
C2268 C 0.2471 0.05427 0.36208 0.0
C2269 C 0.26557 0.03047 0.3831 0.0
C2270 C 0.25492 0.04473 0.34494 0.0
C2271 C 0.26826 0.02861 0.34676 0.0
H2272 H 0.19805 0.00768 0.64562 0.0
H2273 H 0.21245 0.00535 0.58249 0.0
H2274 H 0.24167 0.02663 0.58819 0.0
H2275 H 0.26051 0.04924 0.61021 0.0
H2276 H 0.24566 0.05254 0.67316 0.0
H2277 H 0.21955 0.02721 0.66846 0.0
C2278 C 0.20774 0.01156 0.63314 0.0
C2279 C 0.20284 0.00514 0.61359 0.0
C2280 C 0.22443 0.02405 0.63647 0.0
C2281 C 0.21572 0.01018 0.59766 0.0
C2282 C 0.23244 0.02241 0.60089 0.0
C2283 C 0.25183 0.04414 0.62301 0.0
C2284 C 0.2549 0.05296 0.64197 0.0
C2285 C 0.23655 0.02993 0.62011 0.0
C2286 C 0.24365 0.04603 0.6584 0.0
C2287 C 0.22858 0.03165 0.65569 0.0
H2288 H 0.25317 0.95056 0.89298 0.0
H2289 H 0.24411 0.95031 0.82889 0.0
H2290 H 0.21986 0.97764 0.83201 0.0
H2291 H 0.19834 0.99884 0.8534 0.0
H2292 H 0.20791 0.99934 0.91745 0.0
H2293 H 0.23494 0.97492 0.91383 0.0
C2294 C 0.24615 0.95672 0.87966 0.0
C2295 C 0.25028 0.94824 0.86077 0.0
C2296 C 0.23214 0.9724 0.88156 0.0
C2297 C 0.24122 0.95654 0.84363 0.0
C2298 C 0.22723 0.9721 0.84541 0.0
C2299 C 0.20655 0.99385 0.86653 0.0
C2300 C 0.20089 1.00074 0.88569 0.0
C2301 C 0.22212 0.97973 0.86437 0.0
C2302 C 0.21187 0.99427 0.90252 0.0
C2303 C 0.22729 0.98021 0.90049 0.0
H2304 H 0.64961 0.24444 0.04617 0.0
H2305 H 0.58599 0.25421 0.0536 0.0
H2306 H 0.57901 0.23098 0.02616 0.0
H2307 H 0.59072 0.20499 0.00288 0.0
H2308 H 0.65426 0.19391 0.99657 0.0
H2309 H 0.66147 0.22067 0.02055 0.0
C2310 C 0.63423 0.24182 0.04152 0.0
C2311 C 0.61835 0.25096 0.05205 0.0
C2312 C 0.63028 0.22801 0.02604 0.0
C2313 C 0.59851 0.2473 0.04586 0.0
C2314 C 0.59449 0.23395 0.03019 0.0
C2315 C 0.60618 0.20863 0.00646 0.0
C2316 C 0.6219 0.19728 0.99805 0.0
C2317 C 0.61022 0.22375 0.02061 0.0
C2318 C 0.64183 0.20228 0.0029 0.0
C2319 C 0.64599 0.21757 0.01667 0.0
H2320 H 0.9983 0.3536 0.29887 0.0
H2321 H 0.00674 0.41782 0.29914 0.0
H2322 H 0.02881 0.41521 0.26998 0.0
H2323 H 0.04852 0.39431 0.2467 0.0
H2324 H 0.03991 0.33007 0.24652 0.0
H2325 H 0.01496 0.33315 0.27309 0.0
C2326 C 0.00475 0.36707 0.2924 0.0
C2327 C 0.00103 0.38585 0.30136 0.0
C2328 C 0.01751 0.36546 0.27566 0.0
C2329 C 0.00935 0.40316 0.29261 0.0
C2330 C 0.02207 0.40167 0.27596 0.0
C2331 C 0.04094 0.381 0.25221 0.0
C2332 C 0.0463 0.36196 0.2447 0.0
C2333 C 0.02667 0.38284 0.26769 0.0
C2334 C 0.03618 0.34492 0.25199 0.0
C2335 C 0.02195 0.34665 0.2673 0.0
H2336 H 0.83735 0.75202 0.5432 0.0
H2337 H 0.89963 0.73921 0.55557 0.0
H2338 H 0.90991 0.76286 0.52957 0.0
H2339 H 0.90131 0.79001 0.50624 0.0
H2340 H 0.83905 0.8042 0.49528 0.0
H2341 H 0.82871 0.77709 0.51762 0.0
C2342 C 0.85316 0.75407 0.53991 0.0
C2343 C 0.86769 0.74395 0.5514 0.0
C2344 C 0.859 0.76815 0.52533 0.0
C2345 C 0.88813 0.7469 0.54703 0.0
C2346 C 0.89403 0.76048 0.5322 0.0
C2347 C 0.88548 0.78697 0.50846 0.0
C2348 C 0.871 0.79926 0.49922 0.0
C2349 C 0.87962 0.77165 0.5217 0.0
C2350 C 0.85054 0.79509 0.50231 0.0
C2351 C 0.84459 0.77959 0.51512 0.0
H2352 H 0.00974 0.65685 0.19161 0.0
H2353 H 0.99782 0.59671 0.21269 0.0
H2354 H 0.0196 0.60224 0.24146 0.0
H2355 H 0.04537 0.62237 0.25814 0.0
H2356 H 0.0579 0.68234 0.2373 0.0
H2357 H 0.03232 0.67878 0.21118 0.0
C2358 C 0.0116 0.64508 0.20269 0.0
C2359 C 0.00238 0.62627 0.19975 0.0
C2360 C 0.0244 0.64827 0.21919 0.0
C2361 C 0.00485 0.61127 0.21439 0.0
C2362 C 0.01738 0.61438 0.23087 0.0
C2363 C 0.04225 0.6348 0.2481 0.0
C2364 C 0.05367 0.65249 0.24947 0.0
C2365 C 0.02775 0.63254 0.23302 0.0
C2366 C 0.0493 0.66857 0.23655 0.0
C2367 C 0.03478 0.66647 0.22151 0.0
H2368 H 0.4464 0.40323 0.74889 0.0
H2369 H 0.45836 0.33956 0.7506 0.0
H2370 H 0.48667 0.34397 0.72788 0.0
H2371 H 0.50585 0.36533 0.70476 0.0
H2372 H 0.4943 0.42907 0.70329 0.0
H2373 H 0.46831 0.42521 0.7288 0.0
C2374 C 0.45538 0.39037 0.74453 0.0
C2375 C 0.45006 0.37107 0.75129 0.0
C2376 C 0.47169 0.39298 0.73137 0.0
C2377 C 0.46201 0.35459 0.74562 0.0
C2378 C 0.4782 0.35707 0.73253 0.0
C2379 C 0.49786 0.37843 0.71024 0.0
C2380 C 0.5019 0.39741 0.70194 0.0
C2381 C 0.48284 0.37611 0.72488 0.0
C2382 C 0.49153 0.41425 0.70937 0.0
C2383 C 0.47654 0.41206 0.7239 0.0
H2384 H 1.00021 0.856 0.70016 0.0
H2385 H 0.0136 0.91934 0.69813 0.0
H2386 H 0.037 0.91549 0.72608 0.0
H2387 H 0.05641 0.89344 0.74849 0.0
H2388 H 0.04292 0.83007 0.75028 0.0
H2389 H 0.01668 0.83472 0.72526 0.0
C2390 C 0.00804 0.86902 0.70601 0.0
C2391 C 0.00535 0.88787 0.69688 0.0
C2392 C 0.02158 0.86668 0.72198 0.0
C2393 C 0.01542 0.90464 0.70482 0.0
C2394 C 0.02889 0.90243 0.72075 0.0
C2395 C 0.04752 0.8807 0.74366 0.0
C2396 C 0.05186 0.86139 0.7511 0.0
C2397 C 0.03251 0.88342 0.72907 0.0
C2398 C 0.04003 0.84509 0.74477 0.0
C2399 C 0.02504 0.8477 0.73036 0.0
H2400 H 0.89703 0.24943 0.45172 0.0
H2401 H 0.83254 0.25076 0.45774 0.0
H2402 H 0.83547 0.2739 0.48602 0.0
H2403 H 0.8561 0.29683 0.50632 0.0
H2404 H 0.92058 0.2957 0.50004 0.0
H2405 H 0.91786 0.26923 0.47487 0.0
C2406 C 0.88361 0.25452 0.45941 0.0
C2407 C 0.86458 0.24853 0.4524 0.0
C2408 C 0.88539 0.268 0.47557 0.0
C2409 C 0.84738 0.25514 0.46272 0.0
C2410 C 0.84904 0.26847 0.47886 0.0
C2411 C 0.8696 0.29056 0.49973 0.0
C2412 C 0.88851 0.29848 0.50494 0.0
C2413 C 0.86793 0.27547 0.48502 0.0
C2414 C 0.90582 0.28999 0.49632 0.0
C2415 C 0.90428 0.2749 0.4818 0.0
H2416 H 0.46026 0.15234 0.24699 0.0
H2417 H 0.44155 0.09042 0.25051 0.0
H2418 H 0.46841 0.08073 0.22756 0.0
H2419 H 0.49416 0.09053 0.20291 0.0
H2420 H 0.5113 0.15277 0.19807 0.0
H2421 H 0.48843 0.16155 0.22528 0.0
C2422 C 0.46228 0.13667 0.24307 0.0
C2423 C 0.44873 0.1222 0.25028 0.0
C2424 C 0.47745 0.13125 0.22946 0.0
C2425 C 0.45163 0.10193 0.24504 0.0
C2426 C 0.46698 0.09636 0.23186 0.0
C2427 C 0.49327 0.10591 0.2082 0.0
C2428 C 0.50429 0.12099 0.19841 0.0
C2429 C 0.47956 0.11098 0.22345 0.0
C2430 C 0.50285 0.14091 0.20528 0.0
C2431 C 0.48971 0.14596 0.22079 0.0
H2432 H 0.6412 0.69498 0.00346 0.0
H2433 H 0.57752 0.70295 0.99455 0.0
H2434 H 0.58399 0.731 0.97192 0.0
H2435 H 0.60775 0.75057 0.95168 0.0
H2436 H 0.67144 0.74259 0.96045 0.0
H2437 H 0.66491 0.71753 0.98637 0.0
C2438 C 0.62872 0.70303 0.99678 0.0
C2439 C 0.60891 0.69667 1.00047 0.0
C2440 C 0.63255 0.71911 0.98368 0.0
C2441 C 0.59292 0.70744 0.99191 0.0
C2442 C 0.59661 0.72346 0.97889 0.0
C2443 C 0.62021 0.74362 0.95951 0.0
C2444 C 0.64005 0.74828 0.95393 0.0
C2445 C 0.61636 0.72903 0.97423 0.0
C2446 C 0.65602 0.73928 0.96439 0.0
C2447 C 0.6523 0.72482 0.97913 0.0
H2448 H 0.04778 0.15115 0.75894 0.0
H2449 H 0.04826 0.08872 0.74161 0.0
H2450 H 0.02223 0.08144 0.76634 0.0
H2451 H 0.00244 0.09199 0.7955 0.0
H2452 H 0.00355 0.15402 0.81426 0.0
H2453 H 0.02568 0.16228 0.78626 0.0
C2454 C 0.04187 0.13604 0.76026 0.0
C2455 C 0.05003 0.12048 0.74852 0.0
C2456 C 0.02735 0.13183 0.77496 0.0
C2457 C 0.04232 0.10094 0.75054 0.0
C2458 C 0.02748 0.09675 0.76473 0.0
C2459 C 0.00723 0.10739 0.79328 0.0
C2460 C 0.00148 0.12231 0.80709 0.0
C2461 C 0.02036 0.11195 0.77745 0.0
C2462 C 0.00786 0.14219 0.80397 0.0
C2463 C 0.02055 0.14693 0.78796 0.0
H2464 H 0.64785 0.3031 0.50251 0.0
H2465 H 0.58338 0.29805 0.50636 0.0
H2466 H 0.58676 0.27026 0.52998 0.0
H2467 H 0.608 0.25014 0.55255 0.0
H2468 H 0.67248 0.2554 0.54858 0.0
H2469 H 0.66906 0.28014 0.52191 0.0
C2470 C 0.63453 0.29571 0.50826 0.0
C2471 C 0.61541 0.30284 0.50287 0.0
C2472 C 0.63656 0.27986 0.52199 0.0
C2473 C 0.59831 0.29293 0.51029 0.0
C2474 C 0.60022 0.27709 0.52391 0.0
C2475 C 0.62131 0.25647 0.54565 0.0
C2476 C 0.64045 0.2511 0.5528 0.0
C2477 C 0.61927 0.27085 0.53034 0.0
C2478 C 0.65754 0.25931 0.5435 0.0
C2479 C 0.65562 0.27355 0.52827 0.0
H2480 H 0.49506 0.89861 0.29752 0.0
H2481 H 0.49958 0.83658 0.3157 0.0
H2482 H 0.47826 0.82654 0.28773 0.0
H2483 H 0.45517 0.83575 0.26057 0.0
H2484 H 0.44958 0.89792 0.24323 0.0
H2485 H 0.47466 0.90741 0.26814 0.0
C2486 C 0.49166 0.88286 0.29519 0.0
C2487 C 0.49873 0.86844 0.30887 0.0
C2488 C 0.47907 0.87719 0.27924 0.0
C2489 C 0.49421 0.84807 0.30554 0.0
C2490 C 0.48198 0.84228 0.28954 0.0
C2491 C 0.45977 0.85132 0.26192 0.0
C2492 C 0.45037 0.8661 0.25016 0.0
C2493 C 0.47386 0.85677 0.27664 0.0
C2494 C 0.45645 0.88623 0.25219 0.0
C2495 C 0.47076 0.8917 0.26649 0.0
H2496 H 0.89654 0.74802 0.04983 0.0
H2497 H 0.83275 0.73676 0.05031 0.0
H2498 H 0.83692 0.71084 0.02474 0.0
H2499 H 0.85908 0.68914 0.00456 0.0
H2500 H 0.92278 0.70089 0.00367 0.0
H2501 H 0.91818 0.72884 0.02686 0.0
C2502 C 0.8835 0.74009 0.04414 0.0
C2503 C 0.86439 0.74424 0.05216 0.0
C2504 C 0.886 0.72513 0.02943 0.0
C2505 C 0.84766 0.73392 0.04445 0.0
C2506 C 0.85003 0.71898 0.02988 0.0
C2507 C 0.87192 0.69797 0.00924 0.0
C2508 C 0.89126 0.69274 0.0025 0.0
C2509 C 0.86919 0.71411 0.02262 0.0
C2510 C 0.90771 0.70451 0.0086 0.0
C2511 C 0.90512 0.72048 0.02196 0.0
H2512 H 0.75289 0.05101 0.88501 0.0
H2513 H 0.7459 0.04737 0.82074 0.0
H2514 H 0.7222 0.01972 0.82465 0.0
H2515 H 0.70061 0.99924 0.84645 0.0
H2516 H 0.70771 0.00275 0.91072 0.0
H2517 H 0.73441 0.02748 0.90664 0.0
C2518 C 0.7464 0.04398 0.87185 0.0
C2519 C 0.75098 0.05145 0.85263 0.0
C2520 C 0.73271 0.02809 0.87419 0.0
C2521 C 0.74262 0.04199 0.83572 0.0
C2522 C 0.72898 0.02621 0.83794 0.0
C2523 C 0.70824 0.00514 0.85956 0.0
C2524 C 0.70196 0.9993 0.87887 0.0
C2525 C 0.72348 0.01952 0.85712 0.0
C2526 C 0.71217 0.00697 0.89567 0.0
C2527 C 0.72738 0.02124 0.89337 0.0
H2528 H 0.75206 0.94595 0.60106 0.0
H2529 H 0.7526 0.95474 0.66523 0.0
H2530 H 0.72852 0.98208 0.66198 0.0
H2531 H 0.70436 1.00081 0.64139 0.0
H2532 H 0.70407 0.99257 0.57719 0.0
H2533 H 0.73113 0.96797 0.57997 0.0
C2534 C 0.74717 0.95407 0.61429 0.0
C2535 C 0.75395 0.94809 0.63337 0.0
C2536 C 0.73322 0.96981 0.61234 0.0
C2537 C 0.74761 0.95894 0.65035 0.0
C2538 C 0.73373 0.97454 0.64853 0.0
C2539 C 0.71045 0.99387 0.62798 0.0
C2540 C 0.70204 0.99834 0.60915 0.0
C2541 C 0.72598 0.97969 0.62968 0.0
C2542 C 0.71025 0.98941 0.59188 0.0
C2543 C 0.72566 0.97522 0.59346 0.0
H2544 H 0.74719 0.94668 0.39218 0.0
H2545 H 0.74932 0.95505 0.328 0.0
H2546 H 0.7737 0.98204 0.33212 0.0
H2547 H 0.79728 1.00051 0.3536 0.0
H2548 H 0.79517 0.99238 0.41778 0.0
H2549 H 0.76773 0.96834 0.41401 0.0
C2550 C 0.75275 0.95462 0.37911 0.0
C2551 C 0.74661 0.94863 0.35979 0.0
C2552 C 0.76688 0.97012 0.38157 0.0
C2553 C 0.75381 0.95925 0.34304 0.0
C2554 C 0.76785 0.97466 0.34537 0.0
C2555 C 0.79059 0.99374 0.3668 0.0
C2556 C 0.79844 0.99808 0.38592 0.0
C2557 C 0.77492 0.9798 0.36451 0.0
C2558 C 0.78944 0.98934 0.40288 0.0
C2559 C 0.77383 0.97546 0.40073 0.0
H2560 H 0.75937 0.04791 0.15688 0.0
H2561 H 0.74694 0.05265 0.09352 0.0
H2562 H 0.76922 0.02445 0.0867 0.0
H2563 H 0.79518 0.00107 0.09817 0.0
H2564 H 0.80872 0.997 0.16135 0.0
H2565 H 0.78298 0.022 0.16874 0.0
C2566 C 0.76122 0.04249 0.14164 0.0
C2567 C 0.75163 0.05252 0.12573 0.0
C2568 C 0.77445 0.02646 0.13772 0.0
C2569 C 0.75428 0.04535 0.10604 0.0
C2570 C 0.76706 0.02922 0.1021 0.0
C2571 C 0.79227 0.00536 0.1136 0.0
C2572 C 0.80405 0.99728 0.12912 0.0
C2573 C 0.77769 0.02006 0.11774 0.0
C2574 C 0.8 0.00305 0.14905 0.0
C2575 C 0.7853 0.01741 0.15331 0.0
H2576 H 0.387 0.74426 0.95589 0.0
H2577 H 0.32368 0.7576 0.9531 0.0
H2578 H 0.32783 0.78376 0.97845 0.0
H2579 H 0.35014 0.80537 0.99852 0.0
H2580 H 0.41345 0.79177 0.00123 0.0
H2581 H 0.40853 0.76314 0.97902 0.0
C2582 C 0.37405 0.75268 0.96105 0.0
C2583 C 0.35511 0.74913 0.95242 0.0
C2584 C 0.37656 0.76781 0.97552 0.0
C2585 C 0.33844 0.76001 0.95945 0.0
C2586 C 0.34082 0.77508 0.97388 0.0
C2587 C 0.36281 0.79597 0.99449 0.0
C2588 C 0.38217 0.80092 0.00135 0.0
C2589 C 0.35991 0.77951 0.98158 0.0
C2590 C 0.39839 0.78842 0.99613 0.0
C2591 C 0.39561 0.77205 0.98334 0.0
H2592 H 0.94898 0.61575 0.75142 0.0
H2593 H 0.94996 0.67976 0.74154 0.0
H2594 H 0.97713 0.67581 0.71728 0.0
H2595 H 0.99826 0.65382 0.69641 0.0
H2596 H 0.99758 0.58985 0.70673 0.0
H2597 H 0.97293 0.59421 0.7334 0.0
C2598 C 0.95531 0.62886 0.74415 0.0
C2599 C 0.94727 0.64799 0.74813 0.0
C2600 C 0.97096 0.62649 0.7302 0.0
C2601 C 0.95582 0.66485 0.73875 0.0
C2602 C 0.97132 0.6626 0.72479 0.0
C2603 C 0.99296 0.64086 0.7047 0.0
C2604 C 0.99963 0.62153 0.69937 0.0
C2605 C 0.97867 0.64344 0.72002 0.0
C2606 C 0.99272 0.60492 0.71043 0.0
C2607 C 0.9785 0.60737 0.72565 0.0
H2608 H 0.13974 0.20429 0.49574 0.0
H2609 H 0.07578 0.21458 0.49795 0.0
H2610 H 0.07903 0.24145 0.47339 0.0
H2611 H 0.09936 0.25941 0.44851 0.0
H2612 H 0.16327 0.24918 0.44602 0.0
H2613 H 0.16071 0.22519 0.4736 0.0
C2614 C 0.12655 0.21262 0.49111 0.0
C2615 C 0.10752 0.20719 0.49854 0.0
C2616 C 0.12847 0.22802 0.47678 0.0
C2617 C 0.09062 0.2183 0.49245 0.0
C2618 C 0.09243 0.23366 0.47831 0.0
C2619 C 0.11278 0.25217 0.4542 0.0
C2620 C 0.13144 0.25594 0.44503 0.0
C2621 C 0.11119 0.23824 0.46994 0.0
C2622 C 0.14871 0.24657 0.45275 0.0
C2623 C 0.14724 0.23274 0.46847 0.0
H2624 H 0.96948 0.36935 0.7556 0.0
H2625 H 0.94751 0.43019 0.75189 0.0
H2626 H 0.9728 0.44113 0.77592 0.0
H2627 H 0.99834 0.43264 0.8014 0.0
H2628 H 0.01968 0.37164 0.80543 0.0
H2629 H 0.99788 0.36176 0.77781 0.0
C2630 C 0.97045 0.38506 0.75975 0.0
C2631 C 0.95637 0.3988 0.75209 0.0
C2632 C 0.98493 0.39129 0.77383 0.0
C2633 C 0.95798 0.41916 0.75763 0.0
C2634 C 0.97246 0.42548 0.77145 0.0
C2635 C 0.99862 0.41734 0.79584 0.0
C2636 C 0.01051 0.40289 0.80561 0.0
C2637 C 0.98563 0.41158 0.78014 0.0
C2638 C 0.01055 0.38305 0.79831 0.0
C2639 C 0.99801 0.37733 0.78254 0.0
H2640 H 0.54832 0.65573 0.25508 0.0
H2641 H 0.55894 0.59196 0.25055 0.0
H2642 H 0.53218 0.58561 0.27477 0.0
H2643 H 0.50848 0.59837 0.29997 0.0
H2644 H 0.49937 0.66226 0.30585 0.0
H2645 H 0.52265 0.66832 0.27823 0.0
C2646 C 0.54456 0.64041 0.2591 0.0
C2647 C 0.55574 0.62436 0.25111 0.0
C2648 C 0.52951 0.63689 0.27343 0.0
C2649 C 0.55067 0.60461 0.25656 0.0
C2650 C 0.53539 0.60096 0.27046 0.0
C2651 C 0.51129 0.6136 0.29496 0.0
C2652 C 0.5023 0.62984 0.30507 0.0
C2653 C 0.52511 0.61702 0.27941 0.0
C2654 C 0.5062 0.64949 0.29844 0.0
C2655 C 0.51954 0.65298 0.28266 0.0
H2656 H 0.50222 0.59554 0.78694 0.0
H2657 H 0.50879 0.65681 0.807 0.0
H2658 H 0.48505 0.66797 0.78148 0.0
H2659 H 0.45883 0.65968 0.75681 0.0
H2660 H 0.45122 0.59815 0.73804 0.0
H2661 H 0.47908 0.58787 0.7594 0.0
C2662 C 0.49881 0.6114 0.78547 0.0
C2663 C 0.50711 0.62525 0.79907 0.0
C2664 C 0.48475 0.61768 0.77106 0.0
C2665 C 0.50251 0.64576 0.79687 0.0
C2666 C 0.48886 0.65217 0.78229 0.0
C2667 C 0.4636 0.64412 0.757 0.0
C2668 C 0.4528 0.62969 0.746 0.0
C2669 C 0.47933 0.63818 0.76979 0.0
C2670 C 0.45914 0.60955 0.7465 0.0
C2671 C 0.47505 0.60363 0.75878 0.0
H2672 H 0.90514 0.20012 0.99337 0.0
H2673 H 0.84159 0.18833 0.99741 0.0
H2674 H 0.83496 0.21404 0.97218 0.0
H2675 H 0.84748 0.23745 0.94644 0.0
H2676 H 0.9112 0.24802 0.94153 0.0
H2677 H 0.9174 0.22541 0.96959 0.0
C2678 C 0.88981 0.20343 0.98903 0.0
C2679 C 0.87392 0.19221 0.99724 0.0
C2680 C 0.88611 0.21792 0.97412 0.0
C2681 C 0.85414 0.19665 0.9913 0.0
C2682 C 0.85032 0.21133 0.97679 0.0
C2683 C 0.86269 0.23505 0.95171 0.0
C2684 C 0.87883 0.24433 0.94174 0.0
C2685 C 0.86623 0.22169 0.9677 0.0
C2686 C 0.89847 0.24097 0.94878 0.0
C2687 C 0.90206 0.22802 0.96485 0.0
H2688 H 0.65541 0.75657 0.45257 0.0
H2689 H 0.59219 0.74414 0.44611 0.0
H2690 H 0.58468 0.76637 0.47427 0.0
H2691 H 0.59564 0.7924 0.4979 0.0
H2692 H 0.65862 0.80669 0.50271 0.0
H2693 H 0.66665 0.78055 0.47827 0.0
C2694 C 0.64003 0.75838 0.45761 0.0
C2695 C 0.62438 0.74877 0.44719 0.0
C2696 C 0.63575 0.77171 0.47342 0.0
C2697 C 0.60451 0.75144 0.4538 0.0
C2698 C 0.6002 0.7642 0.46988 0.0
C2699 C 0.61117 0.78952 0.49393 0.0
C2700 C 0.62649 0.80157 0.50206 0.0
C2701 C 0.61563 0.77489 0.47939 0.0
C2702 C 0.64652 0.79772 0.49661 0.0
C2703 C 0.65113 0.7828 0.48258 0.0
H2704 H 0.74396 0.45513 0.62712 0.0
H2705 H 0.75744 0.44765 0.68999 0.0
H2706 H 0.78331 0.47354 0.6877 0.0
H2707 H 0.80526 0.4946 0.66671 0.0
H2708 H 0.79223 0.50106 0.60357 0.0
H2709 H 0.76297 0.47943 0.60718 0.0
C2710 C 0.75227 0.45944 0.64044 0.0
C2711 C 0.74892 0.44927 0.65863 0.0
C2712 C 0.76742 0.47399 0.6389 0.0
C2713 C 0.75968 0.4552 0.67578 0.0
C2714 C 0.77463 0.4699 0.67444 0.0
C2715 C 0.79583 0.49158 0.6538 0.0
C2716 C 0.80118 0.49922 0.63482 0.0
C2717 C 0.77913 0.47883 0.6559 0.0
C2718 C 0.78864 0.49526 0.61832 0.0
C2719 C 0.77189 0.48283 0.62035 0.0
H2720 H 0.80448 0.49264 0.86649 0.0
H2721 H 0.8054 0.50365 0.93026 0.0
H2722 H 0.77933 0.52923 0.92643 0.0
H2723 H 0.7587 0.55078 0.90444 0.0
H2724 H 0.75771 0.53921 0.8407 0.0
H2725 H 0.78118 0.5115 0.84511 0.0
C2726 C 0.79879 0.50044 0.8796 0.0
C2727 C 0.80704 0.49635 0.89861 0.0
C2728 C 0.78385 0.51517 0.87728 0.0
C2729 C 0.79932 0.50646 0.91546 0.0
C2730 C 0.78449 0.5212 0.91326 0.0
C2731 C 0.76339 0.54202 0.89155 0.0
C2732 C 0.75656 0.54728 0.87224 0.0
C2733 C 0.777 0.52604 0.89417 0.0
C2734 C 0.76271 0.53561 0.85574 0.0
C2735 C 0.77623 0.51977 0.85822 0.0
H2736 H 0.70844 0.50266 0.09434 0.0
H2737 H 0.69138 0.49619 0.15648 0.0
H2738 H 0.71905 0.51793 0.16659 0.0
H2739 H 0.74555 0.5419 0.15751 0.0
H2740 H 0.76134 0.54983 0.09524 0.0
H2741 H 0.737 0.52422 0.08554 0.0
C2742 C 0.71098 0.5057 0.11013 0.0
C2743 C 0.69771 0.49793 0.12459 0.0
C2744 C 0.72667 0.51862 0.11583 0.0
C2745 C 0.70124 0.50208 0.14499 0.0
C2746 C 0.71707 0.51456 0.1508 0.0
C2747 C 0.744 0.53769 0.14187 0.0
C2748 C 0.75518 0.54785 0.12712 0.0
C2749 C 0.72952 0.52337 0.13632 0.0
C2750 C 0.75285 0.54233 0.10689 0.0
C2751 C 0.73887 0.52772 0.10131 0.0
H2752 H 0.7466 0.45582 0.34187 0.0
H2753 H 0.7545 0.44299 0.40483 0.0
H2754 H 0.73082 0.46957 0.41349 0.0
H2755 H 0.70496 0.49366 0.40307 0.0
H2756 H 0.69576 0.50524 0.34004 0.0
H2757 H 0.72296 0.48219 0.33159 0.0
C2758 C 0.74346 0.45911 0.3575 0.0
C2759 C 0.75221 0.4473 0.37266 0.0
C2760 C 0.72941 0.47409 0.36238 0.0
C2761 C 0.74788 0.45173 0.39284 0.0
C2762 C 0.73429 0.46691 0.39782 0.0
C2763 C 0.70915 0.49145 0.3875 0.0
C2764 C 0.6982 0.50105 0.37223 0.0
C2765 C 0.7245 0.47778 0.3827 0.0
C2766 C 0.70382 0.49794 0.35212 0.0
C2767 C 0.71936 0.48471 0.34725 0.0
H2768 H 0.55402 0.39979 0.25248 0.0
H2769 H 0.5468 0.33559 0.24729 0.0
H2770 H 0.52 0.34032 0.22289 0.0
H2771 H 0.50065 0.36253 0.20074 0.0
H2772 H 0.50737 0.42673 0.20616 0.0
H2773 H 0.53208 0.42212 0.23281 0.0
C2774 C 0.54641 0.38684 0.24622 0.0
C2775 C 0.55261 0.36736 0.25162 0.0
C2776 C 0.53095 0.38964 0.23209 0.0
C2777 C 0.54243 0.35076 0.24343 0.0
C2778 C 0.52711 0.35344 0.22937 0.0
C2779 C 0.50733 0.37552 0.20791 0.0
C2780 C 0.50228 0.39493 0.20129 0.0
C2781 C 0.52157 0.37278 0.22324 0.0
C2782 C 0.51096 0.4116 0.21092 0.0
C2783 C 0.52519 0.40899 0.22612 0.0
H2784 H 0.1584 0.7644 0.04643 0.0
H2785 H 0.0962 0.74832 0.05486 0.0
H2786 H 0.08638 0.7714 0.02821 0.0
H2787 H 0.09499 0.79926 0.00574 0.0
H2788 H 0.15701 0.81662 0.99878 0.0
H2789 H 0.16734 0.78975 0.02138 0.0
C2790 C 0.14273 0.76564 0.04219 0.0
C2791 C 0.12805 0.75483 0.0528 0.0
C2792 C 0.13711 0.77932 0.0272 0.0
C2793 C 0.10781 0.75661 0.04707 0.0
C2794 C 0.10215 0.76985 0.03185 0.0
C2795 C 0.1108 0.79689 0.00882 0.0
C2796 C 0.12518 0.81006 0.00077 0.0
C2797 C 0.11661 0.78176 0.02229 0.0
C2798 C 0.14561 0.80681 0.00495 0.0
C2799 C 0.15154 0.79148 0.01791 0.0
H2800 H 0.35958 0.2058 0.4972 0.0
H2801 H 0.42336 0.20141 0.50734 0.0
H2802 H 0.42144 0.22838 0.53219 0.0
H2803 H 0.40087 0.25039 0.55388 0.0
H2804 H 0.33704 0.25442 0.54332 0.0
H2805 H 0.33984 0.23064 0.51577 0.0
C2806 C 0.37313 0.21097 0.50459 0.0
C2807 C 0.39153 0.20146 0.50056 0.0
C2808 C 0.37188 0.22634 0.51898 0.0
C2809 C 0.40898 0.20849 0.51013 0.0
C2810 C 0.40787 0.22382 0.52447 0.0
C2811 C 0.38763 0.24633 0.54534 0.0
C2812 C 0.36873 0.25403 0.55093 0.0
C2813 C 0.38929 0.23245 0.52946 0.0
C2814 C 0.35177 0.24867 0.53954 0.0
C2815 C 0.35332 0.23499 0.52376 0.0
H2816 H 0.19982 0.5034 0.35394 0.0
H2817 H 0.20541 0.50926 0.41817 0.0
H2818 H 0.2336 0.53232 0.4138 0.0
H2819 H 0.25391 0.55385 0.39167 0.0
H2820 H 0.24799 0.54794 0.32742 0.0
H2821 H 0.2229 0.52173 0.33192 0.0
C2822 C 0.2074 0.50948 0.367 0.0
C2823 C 0.20034 0.50481 0.38634 0.0
C2824 C 0.22346 0.52286 0.36438 0.0
C2825 C 0.21049 0.51262 0.40311 0.0
C2826 C 0.22655 0.52591 0.40062 0.0
C2827 C 0.24738 0.5466 0.37864 0.0
C2828 C 0.25267 0.55309 0.35924 0.0
C2829 C 0.23276 0.53161 0.38132 0.0
C2830 C 0.24417 0.54337 0.34254 0.0
C2831 C 0.22972 0.5284 0.34508 0.0
H2832 H 0.20502 0.50568 0.14881 0.0
H2833 H 0.21144 0.50363 0.0844 0.0
H2834 H 0.23679 0.4774 0.0875 0.0
H2835 H 0.25388 0.45216 0.10821 0.0
H2836 H 0.2475 0.45416 0.17262 0.0
H2837 H 0.22564 0.48342 0.1698 0.0
C2838 C 0.21223 0.49975 0.13547 0.0
C2839 C 0.20613 0.50643 0.1164 0.0
C2840 C 0.22669 0.48451 0.13733 0.0
C2841 C 0.21578 0.49875 0.09927 0.0
C2842 C 0.23022 0.48364 0.10101 0.0
C2843 C 0.24797 0.4592 0.12165 0.0
C2844 C 0.25209 0.4508 0.14056 0.0
C2845 C 0.23529 0.47595 0.11992 0.0
C2846 C 0.24453 0.46026 0.15785 0.0
C2847 C 0.23192 0.47695 0.15626 0.0
H2848 H 0.29602 0.49202 0.9026 0.0
H2849 H 0.30538 0.50287 0.83945 0.0
H2850 H 0.27806 0.47998 0.8312 0.0
H2851 H 0.25396 0.45419 0.84166 0.0
H2852 H 0.24562 0.44205 0.90469 0.0
H2853 H 0.26975 0.46829 0.91318 0.0
C2854 C 0.29188 0.48963 0.88705 0.0
C2855 C 0.30291 0.49904 0.87168 0.0
C2856 C 0.27633 0.47611 0.88234 0.0
C2857 C 0.29731 0.49571 0.8516 0.0
C2858 C 0.28165 0.4826 0.84684 0.0
C2859 C 0.25707 0.45757 0.85727 0.0
C2860 C 0.24803 0.44607 0.8725 0.0
C2861 C 0.2714 0.47232 0.86205 0.0
C2862 C 0.2524 0.45059 0.89265 0.0
C2863 C 0.26628 0.46556 0.89753 0.0
H2864 H 0.29828 0.51288 0.59402 0.0
H2865 H 0.30209 0.49603 0.65639 0.0
H2866 H 0.27526 0.51954 0.6647 0.0
H2867 H 0.25386 0.54782 0.655 0.0
H2868 H 0.25103 0.56587 0.59288 0.0
H2869 H 0.27409 0.5389 0.58375 0.0
C2870 C 0.29288 0.51399 0.60933 0.0
C2871 C 0.30226 0.50281 0.62458 0.0
C2872 C 0.27779 0.528 0.61412 0.0
C2873 C 0.29521 0.50457 0.64439 0.0
C2874 C 0.27991 0.51807 0.64918 0.0
C2875 C 0.258 0.54568 0.63941 0.0
C2876 C 0.25088 0.55904 0.62472 0.0
C2877 C 0.27158 0.53036 0.63429 0.0
C2878 C 0.25638 0.55593 0.60456 0.0
C2879 C 0.26963 0.54051 0.59931 0.0
H2880 H 0.02266 0.13515 0.41405 0.0
H2881 H 0.0695 0.09103 0.40707 0.0
H2882 H 0.08198 0.09857 0.44079 0.0
H2883 H 0.08002 0.11842 0.47192 0.0
H2884 H 0.03141 0.16041 0.47999 0.0
H2885 H 0.01901 0.15294 0.44626 0.0
C2886 C 0.03558 0.12721 0.41999 0.0
C2887 C 0.04532 0.11275 0.40815 0.0
C2888 C 0.04228 0.13122 0.43955 0.0
C2889 C 0.06181 0.10225 0.41601 0.0
C2890 C 0.06896 0.10658 0.43523 0.0
C2891 C 0.06666 0.12583 0.46627 0.0
C2892 C 0.0567 0.14002 0.47827 0.0
C2893 C 0.05939 0.12112 0.44708 0.0
C2894 C 0.03926 0.14937 0.47099 0.0
C2895 C 0.03224 0.14518 0.4517 0.0
H2896 H 0.13653 0.83067 0.72418 0.0
H2897 H 0.09664 0.78081 0.7348 0.0
H2898 H 0.10302 0.76816 0.70094 0.0
H2899 H 0.11861 0.77233 0.66771 0.0
H2900 H 0.16 0.8211 0.65781 0.0
H2901 H 0.15446 0.83312 0.69204 0.0
C2902 C 0.12935 0.81697 0.71909 0.0
C2903 C 0.11601 0.80677 0.73183 0.0
C2904 C 0.1333 0.80966 0.69975 0.0
C2905 C 0.107 0.78889 0.72523 0.0
C2906 C 0.11057 0.78171 0.70586 0.0
C2907 C 0.12646 0.78553 0.67313 0.0
C2908 C 0.13953 0.79595 0.66029 0.0
C2909 C 0.12346 0.79213 0.6929 0.0
C2910 C 0.14988 0.81284 0.66749 0.0
C2911 C 0.14667 0.81975 0.68701 0.0
H2912 H 0.41643 0.8846 0.97023 0.0
H2913 H 0.46423 0.84299 0.98344 0.0
H2914 H 0.47849 0.84836 0.95003 0.0
H2915 H 0.47675 0.86422 0.91667 0.0
H2916 H 0.43035 0.90767 0.90445 0.0
H2917 H 0.41611 0.90229 0.93786 0.0
C2918 C 0.43001 0.87678 0.96579 0.0
C2919 C 0.4392 0.86332 0.97917 0.0
C2920 C 0.4383 0.88023 0.94674 0.0
C2921 C 0.45693 0.85347 0.97339 0.0
C2922 C 0.46503 0.85646 0.95427 0.0
C2923 C 0.46353 0.87249 0.92138 0.0
C2924 C 0.45448 0.88618 0.90815 0.0
C2925 C 0.45574 0.86968 0.94077 0.0
C2926 C 0.43757 0.89707 0.91446 0.0
C2927 C 0.4294 0.89397 0.93351 0.0
H2928 H 0.38972 0.22313 0.16522 0.0
H2929 H 0.34187 0.1813 0.15319 0.0
H2930 H 0.34717 0.16551 0.18602 0.0
H2931 H 0.36635 0.16313 0.21781 0.0
H2932 H 0.41271 0.20666 0.23004 0.0
H2933 H 0.40714 0.22224 0.19743 0.0
C2934 C 0.3804 0.21061 0.16984 0.0
C2935 C 0.36554 0.20327 0.15685 0.0
C2936 C 0.38336 0.20187 0.18871 0.0
C2937 C 0.35336 0.18723 0.16305 0.0
C2938 C 0.35647 0.17815 0.18173 0.0
C2939 C 0.37519 0.17601 0.21326 0.0
C2940 C 0.39001 0.18366 0.22619 0.0
C2941 C 0.37158 0.18523 0.19462 0.0
C2942 C 0.4012 0.20053 0.22032 0.0
C2943 C 0.39805 0.20944 0.20169 0.0
H2944 H 0.0232 0.8652 0.08617 0.0
H2945 H 0.06754 0.91022 0.10021 0.0
H2946 H 0.08212 0.90663 0.06671 0.0
H2947 H 0.08322 0.88943 0.034 0.0
H2948 H 0.03771 0.84576 0.0194 0.0
H2949 H 0.02258 0.8501 0.05253 0.0
C2950 C 0.03597 0.87431 0.08182 0.0
C2951 C 0.04439 0.88784 0.09564 0.0
C2952 C 0.04411 0.87233 0.0625 0.0
C2953 C 0.06077 0.89975 0.08978 0.0
C2954 C 0.06917 0.89762 0.07068 0.0
C2955 C 0.06995 0.88093 0.03808 0.0
C2956 C 0.06169 0.86716 0.0244 0.0
C2957 C 0.06113 0.88376 0.05702 0.0
C2958 C 0.04433 0.85645 0.02971 0.0
C2959 C 0.03571 0.85888 0.04865 0.0
H2960 H 0.35196 0.78419 0.33216 0.0
H2961 H 0.40357 0.81244 0.35908 0.0
H2962 H 0.41398 0.82529 0.32631 0.0
H2963 H 0.40817 0.82872 0.28988 0.0
H2964 H 0.35843 0.79779 0.26258 0.0
H2965 H 0.34735 0.7858 0.29556 0.0
C2966 C 0.36549 0.79313 0.3308 0.0
C2967 C 0.37694 0.79747 0.34795 0.0
C2968 C 0.37162 0.80004 0.31187 0.0
C2969 C 0.39458 0.80885 0.34603 0.0
C2970 C 0.40048 0.81627 0.32733 0.0
C2971 C 0.39489 0.81941 0.29129 0.0
C2972 C 0.38391 0.81426 0.2741 0.0
C2973 C 0.38907 0.81204 0.31016 0.0
C2974 C 0.36696 0.80192 0.2758 0.0
C2975 C 0.36067 0.79509 0.29458 0.0
H2976 H 0.41941 0.15133 0.53628 0.0
H2977 H 0.45774 0.10857 0.50649 0.0
H2978 H 0.47168 0.09808 0.53892 0.0
H2979 H 0.47255 0.10107 0.57599 0.0
H2980 H 0.43651 0.14645 0.60485 0.0
H2981 H 0.42199 0.15599 0.5726 0.0
C2982 C 0.43081 0.1397 0.53696 0.0
C2983 C 0.43745 0.13053 0.51924 0.0
C2984 C 0.4391 0.13427 0.55547 0.0
C2985 C 0.45247 0.11578 0.52008 0.0
C2986 C 0.46036 0.10977 0.53857 0.0
C2987 C 0.46152 0.11302 0.57509 0.0
C2988 C 0.45544 0.123 0.59261 0.0
C2989 C 0.45373 0.11887 0.55639 0.0
C2990 C 0.44139 0.13866 0.59143 0.0
C2991 C 0.43307 0.14407 0.57305 0.0
H2992 H 0.10105 0.19667 0.76933 0.0
H2993 H 0.13659 0.14347 0.77907 0.0
H2994 H 0.14553 0.15541 0.81272 0.0
H2995 H 0.14222 0.18074 0.83984 0.0
H2996 H 0.10396 0.23212 0.83051 0.0
H2997 H 0.09719 0.22127 0.7962 0.0
C2998 C 0.1109 0.18777 0.77875 0.0
C2999 C 0.11828 0.16932 0.77172 0.0
C3000 C 0.11545 0.19443 0.79816 0.0
C3001 C 0.13073 0.15775 0.7842 0.0
C3002 C 0.13585 0.16458 0.8034 0.0
C3003 C 0.13256 0.18957 0.83016 0.0
C3004 C 0.12366 0.20722 0.83753 0.0
C3005 C 0.12818 0.18286 0.81061 0.0
C3006 C 0.1109 0.21844 0.82508 0.0
C3007 C 0.10705 0.21226 0.80549 0.0
H3008 H 0.47193 0.08623 0.11228 0.0
H3009 H 0.48547 0.03946 0.15489 0.0
H3010 H 0.45324 0.02337 0.14793 0.0
H3011 H 0.42077 0.02316 0.13042 0.0
H3012 H 0.40813 0.06862 0.08613 0.0
H3013 H 0.44051 0.08452 0.09283 0.0
C3014 C 0.46776 0.07252 0.12001 0.0
C3015 C 0.48087 0.06412 0.13421 0.0
C3016 C 0.44944 0.06308 0.11555 0.0
C3017 C 0.47555 0.04618 0.1439 0.0
C3018 C 0.45714 0.037 0.13995 0.0
C3019 C 0.42521 0.03646 0.12214 0.0
C3020 C 0.4121 0.04476 0.10787 0.0
C3021 C 0.44392 0.04537 0.12589 0.0
C3022 C 0.41805 0.06188 0.0971 0.0
C3023 C 0.43649 0.07106 0.10102 0.0
H3024 H 0.18153 0.1637 0.34772 0.0
H3025 H 0.22703 0.16668 0.39361 0.0
H3026 H 0.2176 0.2014 0.40108 0.0
H3027 H 0.19623 0.23082 0.39472 0.0
H3028 H 0.1483 0.22679 0.35153 0.0
H3029 H 0.15879 0.19258 0.34273 0.0
C3030 C 0.18936 0.17202 0.35932 0.0
C3031 C 0.20502 0.1628 0.37002 0.0
C3032 C 0.18342 0.19175 0.36395 0.0
C3033 C 0.21489 0.17353 0.38523 0.0
C3034 C 0.20955 0.19337 0.38946 0.0
C3035 C 0.18821 0.22245 0.38328 0.0
C3036 C 0.17174 0.23127 0.37353 0.0
C3037 C 0.19385 0.20262 0.37891 0.0
C3038 C 0.1611 0.22023 0.35911 0.0
C3039 C 0.16709 0.20072 0.35411 0.0
H3040 H 0.02515 0.96025 0.63501 0.0
H3041 H 0.03585 0.90211 0.60857 0.0
H3042 H 0.06895 0.91319 0.59706 0.0
H3043 H 0.09559 0.93905 0.59603 0.0
H3044 H 0.08571 0.99583 0.62543 0.0
H3045 H 0.05147 0.98583 0.63406 0.0
C3046 C 0.03465 0.95006 0.62657 0.0
C3047 C 0.02807 0.93043 0.6226 0.0
C3048 C 0.05381 0.95634 0.62051 0.0
C3049 C 0.04064 0.91729 0.61188 0.0
C3050 C 0.05954 0.92363 0.60526 0.0
C3051 C 0.08575 0.94926 0.60404 0.0
C3052 C 0.09292 0.96818 0.60995 0.0
C3053 C 0.06637 0.94307 0.60966 0.0
C3054 C 0.08035 0.98122 0.62072 0.0
C3055 C 0.06084 0.97549 0.62568 0.0
H3056 H 0.28652 0.77031 0.89488 0.0
H3057 H 0.3411 0.77183 0.86017 0.0
H3058 H 0.333 0.80571 0.84847 0.0
H3059 H 0.31117 0.83563 0.84958 0.0
H3060 H 0.25844 0.83508 0.88708 0.0
H3061 H 0.26491 0.80013 0.89618 0.0
C3062 C 0.29648 0.77799 0.88456 0.0
C3063 C 0.31428 0.76861 0.87827 0.0
C3064 C 0.29209 0.79769 0.8785 0.0
C3065 C 0.3273 0.77882 0.8652 0.0
C3066 C 0.32268 0.79816 0.85852 0.0
C3067 C 0.30104 0.82773 0.85957 0.0
C3068 C 0.28434 0.83779 0.86761 0.0
C3069 C 0.30524 0.80785 0.86528 0.0
C3070 C 0.27144 0.82759 0.88079 0.0
C3071 C 0.27511 0.80763 0.88597 0.0
H3072 H 0.47039 0.94754 0.35172 0.0
H3073 H 0.46796 0.9013 0.39687 0.0
H3074 H 0.43438 0.91248 0.40685 0.0
H3075 H 0.4054 0.93514 0.40226 0.0
H3076 H 0.40673 0.97913 0.35486 0.0
H3077 H 0.441 0.96919 0.34622 0.0
C3078 C 0.46252 0.94002 0.36382 0.0
C3079 C 0.47165 0.92376 0.37368 0.0
C3080 C 0.44301 0.94611 0.36902 0.0
C3081 C 0.4612 0.91387 0.38908 0.0
C3082 C 0.44203 0.92027 0.3948 0.0
C3083 C 0.41328 0.94258 0.39012 0.0
C3084 C 0.40367 0.95792 0.37929 0.0
C3085 C 0.43275 0.93634 0.38482 0.0
C3086 C 0.41385 0.96725 0.36338 0.0
C3087 C 0.43344 0.9616 0.35845 0.0
H3088 H 0.31509 0.16564 0.65303 0.0
H3089 H 0.27211 0.16138 0.60486 0.0
H3090 H 0.27953 0.19591 0.59483 0.0
H3091 H 0.29898 0.22705 0.59921 0.0
H3092 H 0.34434 0.22999 0.6452 0.0
H3093 H 0.33523 0.19635 0.65677 0.0
C3094 C 0.30731 0.17235 0.6404 0.0
C3095 C 0.29304 0.1611 0.62973 0.0
C3096 C 0.31207 0.19197 0.63437 0.0
C3097 C 0.28323 0.16979 0.61323 0.0
C3098 C 0.28741 0.18952 0.60753 0.0
C3099 C 0.30668 0.22033 0.61188 0.0
C3100 C 0.32213 0.23092 0.62151 0.0
C3101 C 0.30188 0.20072 0.61793 0.0
C3102 C 0.33235 0.22203 0.63763 0.0
C3103 C 0.32716 0.20283 0.64423 0.0
H3104 H 0.0841 0.02198 0.86724 0.0
H3105 H 0.0961 0.06781 0.91142 0.0
H3106 H 0.06268 0.08187 0.90638 0.0
H3107 H 0.03064 0.08209 0.8884 0.0
H3108 H 0.01766 0.03546 0.8454 0.0
H3109 H 0.05081 0.02065 0.85108 0.0
C3110 C 0.07931 0.03497 0.87581 0.0
C3111 C 0.09255 0.04392 0.88957 0.0
C3112 C 0.05995 0.04285 0.87303 0.0
C3113 C 0.08614 0.06061 0.90078 0.0
C3114 C 0.06707 0.06872 0.89785 0.0
C3115 C 0.03505 0.06864 0.88034 0.0
C3116 C 0.02187 0.05997 0.86639 0.0
C3117 C 0.05395 0.0601 0.88387 0.0
C3118 C 0.0276 0.04238 0.85625 0.0
C3119 C 0.04655 0.03396 0.85943 0.0
H3120 H 0.18511 0.84808 0.15296 0.0
H3121 H 0.23266 0.84813 0.10906 0.0
H3122 H 0.22349 0.81419 0.0986 0.0
H3123 H 0.20188 0.78473 0.10172 0.0
H3124 H 0.15232 0.78533 0.14331 0.0
H3125 H 0.16221 0.81888 0.1549 0.0
C3126 C 0.19346 0.84053 0.14119 0.0
C3127 C 0.20962 0.85038 0.13188 0.0
C3128 C 0.1877 0.82126 0.13483 0.0
C3129 C 0.22017 0.84075 0.1164 0.0
C3130 C 0.21496 0.82138 0.11044 0.0
C3131 C 0.1933 0.79218 0.11338 0.0
C3132 C 0.17655 0.78259 0.12183 0.0
C3133 C 0.19875 0.81153 0.11953 0.0
C3134 C 0.16529 0.7925 0.13663 0.0
C3135 C 0.17097 0.81161 0.14327 0.0
H3136 H 0.11487 0.43482 0.02484 0.0
H3137 H 0.16113 0.40611 0.05975 0.0
H3138 H 0.16952 0.4382 0.07559 0.0
H3139 H 0.16319 0.47425 0.07983 0.0
H3140 H 0.1195 0.50381 0.04248 0.0
H3141 H 0.1105 0.47156 0.02706 0.0
C3142 C 0.1268 0.43572 0.03589 0.0
C3143 C 0.13733 0.41834 0.04134 0.0
C3144 C 0.13191 0.45427 0.04441 0.0
C3145 C 0.15295 0.41947 0.05539 0.0
C3146 C 0.15767 0.43773 0.06446 0.0
C3147 C 0.15171 0.47353 0.0683 0.0
C3148 C 0.14178 0.49107 0.06235 0.0
C3149 C 0.14718 0.45518 0.05915 0.0
C3150 C 0.12722 0.4903 0.04719 0.0
C3151 C 0.12209 0.47194 0.03846 0.0
H3152 H 0.61702 0.03022 0.91036 0.0
H3153 H 0.65875 0.01571 0.95762 0.0
H3154 H 0.65349 0.04874 0.97277 0.0
H3155 H 0.63769 0.08211 0.97204 0.0
H3156 H 0.59391 0.09572 0.92642 0.0
H3157 H 0.59918 0.06267 0.91116 0.0
C3158 C 0.62489 0.03433 0.924 0.0
C3159 C 0.63835 0.02071 0.93281 0.0
C3160 C 0.62142 0.05314 0.93288 0.0
C3161 C 0.64827 0.026 0.95063 0.0
C3162 C 0.64533 0.04488 0.95925 0.0
C3163 C 0.62928 0.07775 0.95879 0.0
C3164 C 0.61556 0.09125 0.95024 0.0
C3165 C 0.63205 0.05861 0.95043 0.0
C3166 C 0.60451 0.08545 0.93327 0.0
C3167 C 0.60757 0.06663 0.92451 0.0
H3168 H 0.16215 0.38027 0.22388 0.0
H3169 H 0.14934 0.34334 0.17232 0.0
H3170 H 0.18331 0.3489 0.15953 0.0
H3171 H 0.21644 0.36486 0.1627 0.0
H3172 H 0.23024 0.39957 0.21555 0.0
H3173 H 0.1962 0.39418 0.22828 0.0
C3174 C 0.16687 0.37346 0.20987 0.0
C3175 C 0.15332 0.36156 0.19895 0.0
C3176 C 0.18658 0.37628 0.2029 0.0
C3177 C 0.1596 0.35252 0.18097 0.0
C3178 C 0.17897 0.35573 0.17364 0.0
C3179 C 0.21198 0.37117 0.17704 0.0
C3180 C 0.22572 0.3827 0.18812 0.0
C3181 C 0.19256 0.36766 0.18443 0.0
C3182 C 0.2199 0.39058 0.20679 0.0
C3183 C 0.20044 0.38758 0.21403 0.0
H3184 H 0.8647 0.91549 0.4764 0.0
H3185 H 0.90567 0.89958 0.42894 0.0
H3186 H 0.90135 0.93285 0.41378 0.0
H3187 H 0.88464 0.96603 0.41344 0.0
H3188 H 0.84576 0.98246 0.46255 0.0
H3189 H 0.85055 0.94946 0.47774 0.0
C3190 C 0.87276 0.91941 0.46281 0.0
C3191 C 0.88534 0.90521 0.45366 0.0
C3192 C 0.87051 0.9386 0.45448 0.0
C3193 C 0.89596 0.91041 0.43623 0.0
C3194 C 0.89341 0.92935 0.42753 0.0
C3195 C 0.87732 0.96234 0.42751 0.0
C3196 C 0.86475 0.97651 0.43681 0.0
C3197 C 0.88053 0.94349 0.43641 0.0
C3198 C 0.85555 0.97176 0.45516 0.0
C3199 C 0.85822 0.95289 0.46381 0.0
H3200 H 0.82981 0.15269 0.21222 0.0
H3201 H 0.85557 0.09654 0.19276 0.0
H3202 H 0.82419 0.08751 0.17615 0.0
H3203 H 0.78926 0.09549 0.16721 0.0
H3204 H 0.76228 0.14992 0.18933 0.0
H3205 H 0.79422 0.15987 0.20475 0.0
C3206 C 0.82847 0.13848 0.20437 0.0
C3207 C 0.84491 0.1253 0.20369 0.0
C3208 C 0.8102 0.13316 0.19526 0.0
C3209 C 0.84302 0.10685 0.19363 0.0
C3210 C 0.82513 0.10172 0.18403 0.0
C3211 C 0.79053 0.10957 0.17532 0.0
C3212 C 0.77377 0.12215 0.17702 0.0
C3213 C 0.80864 0.11476 0.18473 0.0
C3214 C 0.77521 0.14015 0.18783 0.0
C3215 C 0.79339 0.14579 0.19664 0.0
H3216 H 0.39493 0.58308 0.53368 0.0
H3217 H 0.34723 0.61101 0.56735 0.0
H3218 H 0.33837 0.57866 0.58224 0.0
H3219 H 0.34469 0.54246 0.58621 0.0
H3220 H 0.38985 0.51376 0.54989 0.0
H3221 H 0.39927 0.54627 0.53542 0.0
C3222 C 0.38257 0.58197 0.54422 0.0
C3223 C 0.3718 0.59929 0.54956 0.0
C3224 C 0.37717 0.56322 0.55224 0.0
C3225 C 0.35565 0.59778 0.56301 0.0
C3226 C 0.35064 0.57934 0.57157 0.0
C3227 C 0.35655 0.54343 0.57509 0.0
C3228 C 0.36675 0.52598 0.56919 0.0
C3229 C 0.36137 0.56199 0.56639 0.0
C3230 C 0.38186 0.52714 0.55458 0.0
C3231 C 0.38726 0.54568 0.54637 0.0
H3232 H 0.21424 0.60152 0.3296 0.0
H3233 H 0.24307 0.646 0.29262 0.0
H3234 H 0.21027 0.65846 0.28151 0.0
H3235 H 0.17334 0.65645 0.2823 0.0
H3236 H 0.1447 0.60939 0.31614 0.0
H3237 H 0.17741 0.59803 0.32856 0.0
C3238 C 0.21322 0.61395 0.31914 0.0
C3239 C 0.23082 0.62304 0.31201 0.0
C3240 C 0.1944 0.62048 0.31229 0.0
C3241 C 0.22957 0.63888 0.29823 0.0
C3242 C 0.21088 0.64599 0.29193 0.0
C3243 C 0.17436 0.64375 0.29243 0.0
C3244 C 0.15681 0.63383 0.29851 0.0
C3245 C 0.1932 0.63689 0.29887 0.0
C3246 C 0.15814 0.61718 0.31132 0.0
C3247 C 0.17678 0.61074 0.31843 0.0
H3248 H 0.28027 0.36507 0.83352 0.0
H3249 H 0.26585 0.40871 0.78801 0.0
H3250 H 0.29871 0.40364 0.77239 0.0
H3251 H 0.33199 0.38742 0.77229 0.0
H3252 H 0.34537 0.34218 0.81662 0.0
H3253 H 0.31247 0.34711 0.83197 0.0
C3254 C 0.28436 0.37344 0.82017 0.0
C3255 C 0.27079 0.38736 0.81202 0.0
C3256 C 0.30306 0.37012 0.81104 0.0
C3257 C 0.27608 0.39789 0.79454 0.0
C3258 C 0.29486 0.39504 0.78564 0.0
C3259 C 0.32762 0.37858 0.78524 0.0
C3260 C 0.3411 0.36453 0.79335 0.0
C3261 C 0.30853 0.38127 0.79383 0.0
C3262 C 0.33521 0.35302 0.81001 0.0
C3263 C 0.31644 0.3559 0.81888 0.0
H3264 H 0.9524 0.84593 0.52464 0.0
H3265 H 0.90235 0.8869 0.52756 0.0
H3266 H 0.91397 0.89923 0.56013 0.0
H3267 H 0.93808 0.89776 0.58822 0.0
H3268 H 0.98636 0.85468 0.58631 0.0
H3269 H 0.97585 0.84384 0.5529 0.0
C3270 C 0.94411 0.85763 0.53238 0.0
C3271 C 0.92662 0.86557 0.52372 0.0
C3272 C 0.95059 0.86426 0.55128 0.0
C3273 C 0.91584 0.88052 0.53399 0.0
C3274 C 0.9225 0.8876 0.55258 0.0
C3275 C 0.94634 0.88613 0.58035 0.0
C3276 C 0.96301 0.8771 0.58955 0.0
C3277 C 0.93982 0.87952 0.56141 0.0
C3278 C 0.97345 0.8618 0.57946 0.0
C3279 C 0.96746 0.85561 0.56039 0.0
H3280 H 0.85171 0.18358 0.3426 0.0
H3281 H 0.88947 0.23589 0.33763 0.0
H3282 H 0.8978 0.22693 0.30303 0.0
H3283 H 0.89515 0.20375 0.27457 0.0
H3284 H 0.86019 0.14962 0.28037 0.0
H3285 H 0.84992 0.15967 0.31425 0.0
C3286 C 0.86163 0.19304 0.33383 0.0
C3287 C 0.86987 0.21043 0.34251 0.0
C3288 C 0.86689 0.18742 0.31417 0.0
C3289 C 0.88299 0.22243 0.33121 0.0
C3290 C 0.88773 0.21732 0.31145 0.0
C3291 C 0.88515 0.19424 0.28321 0.0
C3292 C 0.87827 0.17607 0.27497 0.0
C3293 C 0.87988 0.1998 0.30283 0.0
C3294 C 0.86565 0.16369 0.28643 0.0
C3295 C 0.85977 0.16944 0.30577 0.0
H3296 H 0.56482 0.10018 0.08786 0.0
H3297 H 0.51212 0.13752 0.08361 0.0
H3298 H 0.52056 0.14603 0.04897 0.0
H3299 H 0.54395 0.14455 0.02068 0.0
H3300 H 0.5983 0.10972 0.02575 0.0
H3301 H 0.58826 0.09852 0.05923 0.0
C3302 C 0.5551 0.10994 0.07919 0.0
C3303 C 0.53787 0.11816 0.08811 0.0
C3304 C 0.56044 0.11535 0.05952 0.0
C3305 C 0.5255 0.13107 0.07696 0.0
C3306 C 0.53032 0.13595 0.0572 0.0
C3307 C 0.55349 0.13435 0.02904 0.0
C3308 C 0.5718 0.12795 0.02079 0.0
C3309 C 0.54791 0.12845 0.04845 0.0
C3310 C 0.58416 0.11493 0.03187 0.0
C3311 C 0.57842 0.10849 0.05098 0.0
H3312 H 0.65976 0.81081 0.84388 0.0
H3313 H 0.62644 0.7555 0.83987 0.0
H3314 H 0.61783 0.76278 0.80499 0.0
H3315 H 0.61761 0.786 0.77654 0.0
H3316 H 0.64819 0.84285 0.78138 0.0
H3317 H 0.66006 0.83392 0.81493 0.0
C3318 C 0.65091 0.80027 0.83518 0.0
C3319 C 0.6438 0.78264 0.84424 0.0
C3320 C 0.64535 0.80493 0.81538 0.0
C3321 C 0.63203 0.76919 0.83309 0.0
C3322 C 0.62708 0.77335 0.8132 0.0
C3323 C 0.62707 0.79632 0.78485 0.0
C3324 C 0.63202 0.81503 0.77654 0.0
C3325 C 0.63332 0.79135 0.80432 0.0
C3326 C 0.64409 0.82838 0.78755 0.0
C3327 C 0.6509 0.82328 0.80671 0.0
H3328 H 0.9132 0.10954 0.97195 0.0
H3329 H 0.95905 0.15192 0.98907 0.0
H3330 H 0.97671 0.146 0.95751 0.0
H3331 H 0.97825 0.13002 0.92435 0.0
H3332 H 0.93349 0.08627 0.90782 0.0
H3333 H 0.91642 0.09126 0.93992 0.0
C3334 C 0.9271 0.11739 0.96876 0.0
C3335 C 0.93473 0.13127 0.98268 0.0
C3336 C 0.93738 0.11364 0.95073 0.0
C3337 C 0.95289 0.14115 0.97856 0.0
C3338 C 0.96298 0.13781 0.96051 0.0
C3339 C 0.96486 0.12145 0.92788 0.0
C3340 C 0.95706 0.1079 0.91374 0.0
C3341 C 0.95524 0.12426 0.9464 0.0
C3342 C 0.93983 0.09673 0.91854 0.0
C3343 C 0.92999 0.09967 0.93682 0.0
H3344 H 0.63328 0.16178 0.71924 0.0
H3345 H 0.58535 0.20426 0.72875 0.0
H3346 H 0.59221 0.21964 0.69611 0.0
H3347 H 0.61162 0.22064 0.66465 0.0
H3348 H 0.66109 0.17968 0.65635 0.0
H3349 H 0.65392 0.16408 0.68876 0.0
C3350 C 0.62433 0.17439 0.71412 0.0
C3351 C 0.60872 0.18179 0.72624 0.0
C3352 C 0.62867 0.18342 0.6956 0.0
C3353 C 0.59745 0.19833 0.71964 0.0
C3354 C 0.60133 0.20709 0.70099 0.0
C3355 C 0.62081 0.20831 0.66999 0.0
C3356 C 0.63678 0.20123 0.65815 0.0
C3357 C 0.61686 0.1997 0.68881 0.0
C3358 C 0.64877 0.18543 0.66528 0.0
C3359 C 0.64464 0.17646 0.68376 0.0
H3360 H 0.52332 0.85808 0.42436 0.0
H3361 H 0.56462 0.90615 0.4113 0.0
H3362 H 0.58037 0.90188 0.44421 0.0
H3363 H 0.58339 0.88325 0.47601 0.0
H3364 H 0.54062 0.83667 0.48983 0.0
H3365 H 0.52434 0.84162 0.45733 0.0
C3366 C 0.53569 0.86768 0.42881 0.0
C3367 C 0.54296 0.88227 0.41544 0.0
C3368 C 0.54441 0.86536 0.44782 0.0
C3369 C 0.55877 0.89485 0.42141 0.0
C3370 C 0.56783 0.89234 0.44016 0.0
C3371 C 0.57044 0.87428 0.4719 0.0
C3372 C 0.5633 0.8595 0.48514 0.0
C3373 C 0.56094 0.87746 0.45337 0.0
C3374 C 0.54634 0.84815 0.47985 0.0
C3375 C 0.53709 0.85092 0.46126 0.0
H3376 H 0.86635 0.83465 0.21844 0.0
H3377 H 0.90759 0.78704 0.23338 0.0
H3378 H 0.90411 0.77306 0.19959 0.0
H3379 H 0.88932 0.77453 0.16563 0.0
H3380 H 0.84605 0.82066 0.15192 0.0
H3381 H 0.85042 0.8352 0.18531 0.0
C3382 C 0.87455 0.8212 0.21428 0.0
C3383 C 0.88726 0.81193 0.22829 0.0
C3384 C 0.87218 0.81307 0.19502 0.0
C3385 C 0.89763 0.79438 0.22284 0.0
C3386 C 0.89573 0.78645 0.20351 0.0
C3387 C 0.88099 0.78782 0.17 0.0
C3388 C 0.86754 0.79667 0.15641 0.0
C3389 C 0.88309 0.79571 0.18945 0.0
C3390 C 0.85649 0.81365 0.16223 0.0
C3391 C 0.85898 0.82195 0.18128 0.0
H3392 H 0.59 0.94011 0.89927 0.0
H3393 H 0.58789 0.98921 0.8572 0.0
H3394 H 0.55281 0.98163 0.84965 0.0
H3395 H 0.52342 0.95967 0.85334 0.0
H3396 H 0.52655 0.90864 0.89298 0.0
H3397 H 0.56041 0.91836 0.90328 0.0
C3398 C 0.58174 0.94927 0.88865 0.0
C3399 C 0.59143 0.96519 0.87882 0.0
C3400 C 0.56179 0.94441 0.88389 0.0
C3401 C 0.58072 0.9768 0.86487 0.0
C3402 C 0.56067 0.97249 0.86056 0.0
C3403 C 0.53144 0.95088 0.86444 0.0
C3404 C 0.52255 0.93355 0.87246 0.0
C3405 C 0.55115 0.95614 0.86974 0.0
C3406 C 0.53317 0.92205 0.88658 0.0
C3407 C 0.55251 0.92758 0.89246 0.0
H3408 H 0.8301 0.77529 0.63293 0.0
H3409 H 0.78297 0.76516 0.58977 0.0
H3410 H 0.7696 0.79879 0.59615 0.0
H3411 H 0.77208 0.83154 0.61322 0.0
H3412 H 0.81811 0.84075 0.6578 0.0
H3413 H 0.83107 0.80698 0.65176 0.0
C3414 C 0.81688 0.78046 0.62496 0.0
C3415 C 0.80763 0.76789 0.61078 0.0
C3416 C 0.80909 0.79962 0.62898 0.0
C3417 C 0.79033 0.7746 0.60077 0.0
C3418 C 0.78273 0.79383 0.60437 0.0
C3419 C 0.78488 0.82609 0.62166 0.0
C3420 C 0.7942 0.83864 0.63584 0.0
C3421 C 0.79209 0.80654 0.61832 0.0
C3422 C 0.81063 0.83134 0.64686 0.0
C3423 C 0.81811 0.81207 0.64335 0.0
H3424 H 0.90981 0.06019 0.39903 0.0
H3425 H 0.91201 0.00881 0.35972 0.0
H3426 H 0.94686 0.01645 0.35115 0.0
H3427 H 0.97633 0.03843 0.35392 0.0
H3428 H 0.97313 0.09169 0.39057 0.0
H3429 H 0.93911 0.0827 0.40115 0.0
C3430 C 0.91803 0.05062 0.38872 0.0
C3431 C 0.90849 0.03392 0.38009 0.0
C3432 C 0.93783 0.05551 0.38335 0.0
C3433 C 0.9191 0.02178 0.3665 0.0
C3434 C 0.939 0.02613 0.36162 0.0
C3435 C 0.96821 0.04795 0.36436 0.0
C3436 C 0.97719 0.06559 0.37159 0.0
C3437 C 0.94847 0.04304 0.36982 0.0
C3438 C 0.96645 0.07803 0.38481 0.0
C3439 C 0.94704 0.07289 0.39087 0.0
H3440 H 0.69706 0.22806 0.09779 0.0
H3441 H 0.6476 0.21948 0.13864 0.0
H3442 H 0.66072 0.1865 0.14799 0.0
H3443 H 0.68581 0.15976 0.14391 0.0
H3444 H 0.73353 0.16699 0.10081 0.0
H3445 H 0.72163 0.20086 0.09298 0.0
C3446 C 0.68926 0.21898 0.10882 0.0
C3447 C 0.67149 0.22615 0.11761 0.0
C3448 C 0.69657 0.19982 0.11367 0.0
C3449 C 0.6613 0.21418 0.13165 0.0
C3450 C 0.66881 0.19537 0.13703 0.0
C3451 C 0.69366 0.16885 0.13293 0.0
C3452 C 0.71057 0.16105 0.12305 0.0
C3453 C 0.68637 0.188 0.12806 0.0
C3454 C 0.72045 0.17275 0.10858 0.0
C3455 C 0.71367 0.19209 0.10412 0.0
H3456 H 0.59456 0.06715 0.60095 0.0
H3457 H 0.58759 0.01165 0.63347 0.0
H3458 H 0.55328 0.02093 0.64252 0.0
H3459 H 0.52558 0.04497 0.64178 0.0
H3460 H 0.53303 0.10189 0.61192 0.0
H3461 H 0.5669 0.09204 0.60131 0.0
C3462 C 0.5854 0.05709 0.60987 0.0
C3463 C 0.59341 0.03868 0.6164 0.0
C3464 C 0.56589 0.06283 0.61559 0.0
C3465 C 0.58166 0.02588 0.62829 0.0
C3466 C 0.56207 0.03117 0.63346 0.0
C3467 C 0.53459 0.0552 0.63287 0.0
C3468 C 0.52681 0.07405 0.62748 0.0
C3469 C 0.55409 0.04963 0.62728 0.0
C3470 C 0.53874 0.08729 0.61625 0.0
C3471 C 0.55806 0.08164 0.61014 0.0
H3472 H 0.65909 0.78136 0.36263 0.0
H3473 H 0.70629 0.76787 0.40476 0.0
H3474 H 0.72171 0.80059 0.39836 0.0
H3475 H 0.7213 0.83339 0.38125 0.0
H3476 H 0.67544 0.84571 0.33728 0.0
H3477 H 0.66001 0.81309 0.34382 0.0
C3478 C 0.67276 0.78563 0.37038 0.0
C3479 C 0.68147 0.77238 0.38426 0.0
C3480 C 0.68177 0.80422 0.36627 0.0
C3481 C 0.69934 0.77787 0.39399 0.0
C3482 C 0.70812 0.79657 0.39038 0.0
C3483 C 0.70797 0.82886 0.37308 0.0
C3484 C 0.69944 0.84193 0.3589 0.0
C3485 C 0.69941 0.80991 0.37662 0.0
C3486 C 0.68231 0.83584 0.34821 0.0
C3487 C 0.67344 0.81724 0.352 0.0
H3488 H 0.97259 0.91271 0.12119 0.0
H3489 H 0.98423 0.95751 0.16646 0.0
H3490 H 0.95066 0.97154 0.16159 0.0
H3491 H 0.91755 0.97023 0.14532 0.0
H3492 H 0.90672 0.92699 0.09839 0.0
H3493 H 0.94046 0.91317 0.10297 0.0
C3494 C 0.96777 0.92561 0.1299 0.0
C3495 C 0.98073 0.93399 0.14426 0.0
C3496 C 0.94861 0.93379 0.12676 0.0
C3497 C 0.97449 0.95085 0.15528 0.0
C3498 C 0.95528 0.95881 0.15257 0.0
C3499 C 0.92264 0.9578 0.1361 0.0
C3500 C 0.90969 0.94946 0.1217 0.0
C3501 C 0.94216 0.95027 0.13851 0.0
C3502 C 0.91649 0.93362 0.10957 0.0
C3503 C 0.93572 0.92569 0.11222 0.0
H3504 H 0.80321 0.22648 0.88335 0.0
H3505 H 0.85925 0.21737 0.85227 0.0
H3506 H 0.84766 0.18446 0.84059 0.0
H3507 H 0.82189 0.15764 0.84038 0.0
H3508 H 0.76737 0.16601 0.87423 0.0
H3509 H 0.77793 0.19987 0.88354 0.0
C3510 C 0.81282 0.21737 0.87387 0.0
C3511 C 0.832 0.22439 0.86857 0.0
C3512 C 0.8063 0.19831 0.86773 0.0
C3513 C 0.84442 0.21228 0.85656 0.0
C3514 C 0.83779 0.19348 0.84987 0.0
C3515 C 0.81229 0.16703 0.84959 0.0
C3516 C 0.79384 0.1595 0.85651 0.0
C3517 C 0.8188 0.18626 0.85549 0.0
C3518 C 0.78164 0.17156 0.86876 0.0
C3519 C 0.78767 0.19089 0.87409 0.0
H3520 H 0.88079 0.57468 0.98394 0.0
H3521 H 0.91464 0.58957 0.93089 0.0
H3522 H 0.90917 0.55572 0.91758 0.0
H3523 H 0.89329 0.5223 0.92043 0.0
H3524 H 0.86159 0.50691 0.97473 0.0
H3525 H 0.86782 0.54039 0.98822 0.0
C3526 C 0.88705 0.57044 0.96952 0.0
C3527 C 0.89793 0.58458 0.95832 0.0
C3528 C 0.88422 0.55085 0.9622 0.0
C3529 C 0.90623 0.57888 0.93979 0.0
C3530 C 0.90305 0.55956 0.93215 0.0
C3531 C 0.88792 0.52626 0.93527 0.0
C3532 C 0.87689 0.51218 0.9465 0.0
C3533 C 0.89186 0.54548 0.94312 0.0
C3534 C 0.87019 0.51743 0.9658 0.0
C3535 C 0.87365 0.53662 0.9735 0.0
H3536 H 0.36724 0.91889 0.01919 0.0
H3537 H 0.41095 0.9069 0.06539 0.0
H3538 H 0.40575 0.94042 0.07936 0.0
H3539 H 0.38765 0.97258 0.07936 0.0
H3540 H 0.34548 0.98551 0.03202 0.0
H3541 H 0.35126 0.95225 0.01749 0.0
C3542 C 0.37569 0.9237 0.03224 0.0
C3543 C 0.38934 0.91043 0.04134 0.0
C3544 C 0.37286 0.94312 0.04 0.0
C3545 C 0.40041 0.91689 0.05808 0.0
C3546 C 0.39738 0.93601 0.06613 0.0
C3547 C 0.37981 0.96812 0.06581 0.0
C3548 C 0.36603 0.98134 0.05686 0.0
C3549 C 0.38347 0.94915 0.05736 0.0
C3550 C 0.35618 0.97555 0.03915 0.0
C3551 C 0.35942 0.95653 0.03089 0.0
H3552 H 0.78208 0.63506 0.83852 0.0
H3553 H 0.77129 0.59263 0.79083 0.0
H3554 H 0.80321 0.6017 0.77518 0.0
H3555 H 0.83464 0.62104 0.77558 0.0
H3556 H 0.84445 0.66515 0.82192 0.0
H3557 H 0.81242 0.65622 0.83754 0.0
C3558 C 0.78675 0.62784 0.82469 0.0
C3559 C 0.77449 0.61308 0.81591 0.0
C3560 C 0.8049 0.63346 0.81555 0.0
C3561 C 0.7805 0.60405 0.79784 0.0
C3562 C 0.79876 0.60919 0.78892 0.0
C3563 C 0.82969 0.62873 0.78905 0.0
C3564 C 0.84188 0.64362 0.79768 0.0
C3565 C 0.81114 0.62377 0.79771 0.0
C3566 C 0.83524 0.65369 0.81498 0.0
C3567 C 0.81699 0.64852 0.82396 0.0
H3568 H 0.13061 0.09267 0.52162 0.0
H3569 H 0.08672 0.10208 0.56823 0.0
H3570 H 0.09472 0.06923 0.58266 0.0
H3571 H 0.11492 0.03807 0.58241 0.0
H3572 H 0.15696 0.02791 0.53424 0.0
H3573 H 0.14902 0.06077 0.52004 0.0
C3574 C 0.12275 0.08746 0.53489 0.0
C3575 C 0.10817 0.09976 0.54391 0.0
C3576 C 0.12717 0.06846 0.54285 0.0
C3577 C 0.09792 0.09279 0.56096 0.0
C3578 C 0.10257 0.07407 0.56927 0.0
C3579 C 0.12231 0.04311 0.56882 0.0
C3580 C 0.13662 0.0307 0.55946 0.0
C3581 C 0.11728 0.06183 0.56043 0.0
C3582 C 0.14588 0.03721 0.54169 0.0
C3583 C 0.14138 0.056 0.53358 0.0
H3584 H 0.22056 0.86062 0.8349 0.0
H3585 H 0.23402 0.89885 0.78448 0.0
H3586 H 0.20086 0.89213 0.77023 0.0
H3587 H 0.16748 0.87649 0.77292 0.0
H3588 H 0.1549 0.83633 0.82203 0.0
H3589 H 0.18832 0.84255 0.83598 0.0
C3590 C 0.21622 0.86738 0.82075 0.0
C3591 C 0.22956 0.88035 0.81082 0.0
C3592 C 0.19732 0.86311 0.81246 0.0
C3593 C 0.22396 0.8888 0.79235 0.0
C3594 C 0.205 0.88502 0.78425 0.0
C3595 C 0.17215 0.86904 0.78661 0.0
C3596 C 0.15879 0.85612 0.79656 0.0
C3597 C 0.19148 0.87238 0.79429 0.0
C3598 C 0.16501 0.84629 0.81411 0.0
C3599 C 0.18405 0.84992 0.82213 0.0
H3600 H 0.6475 0.47872 0.45305 0.0
H3601 H 0.61258 0.46974 0.39931 0.0
H3602 H 0.60123 0.43716 0.41183 0.0
H3603 H 0.60203 0.41075 0.43771 0.0
H3604 H 0.63926 0.41863 0.49002 0.0
H3605 H 0.64878 0.45219 0.47856 0.0
C3606 C 0.63733 0.46967 0.44414 0.0
C3607 C 0.63084 0.47664 0.42533 0.0
C3608 C 0.63124 0.45078 0.45122 0.0
C3609 C 0.61785 0.46465 0.41381 0.0
C3610 C 0.61131 0.44606 0.42099 0.0
C3611 C 0.61202 0.41997 0.44668 0.0
C3612 C 0.6198 0.41242 0.46475 0.0
C3613 C 0.61798 0.43893 0.43964 0.0
C3614 C 0.63307 0.42423 0.47607 0.0
C3615 C 0.63853 0.44337 0.46951 0.0
H3616 H 0.78819 0.4015 0.67489 0.0
H3617 H 0.76899 0.35423 0.71459 0.0
H3618 H 0.80381 0.34873 0.72525 0.0
H3619 H 0.83971 0.35845 0.72413 0.0
H3620 H 0.85768 0.40843 0.68723 0.0
H3621 H 0.82344 0.41182 0.67451 0.0
C3622 C 0.79171 0.38985 0.68571 0.0
C3623 C 0.77622 0.37811 0.6938 0.0
C3624 C 0.81153 0.38736 0.6923 0.0
C3625 C 0.78078 0.36338 0.70816 0.0
C3626 C 0.80065 0.36025 0.71423 0.0
C3627 C 0.83604 0.36994 0.71319 0.0
C3628 C 0.85105 0.38311 0.70648 0.0
C3629 C 0.81614 0.37228 0.70654 0.0
C3630 C 0.84624 0.39818 0.69258 0.0
C3631 C 0.82672 0.4001 0.6853 0.0
H3632 H 0.72276 0.62948 0.16357 0.0
H3633 H 0.7366 0.5864 0.20984 0.0
H3634 H 0.70359 0.59152 0.2249 0.0
H3635 H 0.67059 0.60779 0.22461 0.0
H3636 H 0.65736 0.6526 0.17987 0.0
H3637 H 0.69036 0.64741 0.16456 0.0
C3638 C 0.71848 0.62125 0.17694 0.0
C3639 C 0.73195 0.60751 0.18553 0.0
C3640 C 0.69965 0.62461 0.1858 0.0
C3641 C 0.72644 0.5971 0.20301 0.0
C3642 C 0.70758 0.59998 0.2116 0.0
C3643 C 0.67499 0.61643 0.21154 0.0
C3644 C 0.66162 0.63045 0.20329 0.0
C3645 C 0.69405 0.61363 0.20308 0.0
C3646 C 0.66751 0.64178 0.18652 0.0
C3647 C 0.68631 0.63875 0.17772 0.0
H3648 H 0.52006 0.62619 0.91502 0.0
H3649 H 0.56951 0.58603 0.90366 0.0
H3650 H 0.5819 0.59133 0.93794 0.0
H3651 H 0.57981 0.6095 0.97032 0.0
H3652 H 0.52906 0.64813 0.98176 0.0
H3653 H 0.51596 0.64128 0.94828 0.0
C3654 C 0.53342 0.61841 0.92017 0.0
C3655 C 0.54398 0.60588 0.90692 0.0
C3656 C 0.54027 0.6214 0.93982 0.0
C3657 C 0.56111 0.59568 0.91372 0.0
C3658 C 0.56826 0.59883 0.93323 0.0
C3659 C 0.56582 0.61628 0.96548 0.0
C3660 C 0.55552 0.62947 0.97838 0.0
C3661 C 0.55817 0.61199 0.94628 0.0
C3662 C 0.53726 0.63794 0.97209 0.0
C3663 C 0.52979 0.63408 0.95293 0.0
H3664 H 0.644 0.30936 0.16301 0.0
H3665 H 0.59986 0.2622 0.1671 0.0
H3666 H 0.59399 0.27037 0.20238 0.0
H3667 H 0.59995 0.2922 0.23144 0.0
H3668 H 0.64156 0.34149 0.22644 0.0
H3669 H 0.65003 0.3312 0.19221 0.0
C3670 C 0.63327 0.30077 0.17174 0.0
C3671 C 0.62241 0.2852 0.16259 0.0
C3672 C 0.6295 0.30599 0.1918 0.0
C3673 C 0.60832 0.27433 0.17388 0.0
C3674 C 0.60498 0.27897 0.19402 0.0
C3675 C 0.61107 0.30049 0.22293 0.0
C3676 C 0.62023 0.31746 0.2314 0.0
C3677 C 0.61528 0.29493 0.20306 0.0
C3678 C 0.63434 0.32835 0.22015 0.0
C3679 C 0.63916 0.32249 0.20061 0.0
H3680 H 0.93624 0.39668 0.41173 0.0
H3681 H 0.98488 0.35404 0.41417 0.0
H3682 H 0.97634 0.34589 0.44892 0.0
H3683 H 0.95477 0.35062 0.47852 0.0
H3684 H 0.90396 0.39051 0.47503 0.0
H3685 H 0.91354 0.40009 0.44084 0.0
C3686 C 0.94496 0.38565 0.41995 0.0
C3687 C 0.96123 0.37605 0.41054 0.0
C3688 C 0.93956 0.38059 0.43971 0.0
C3689 C 0.97226 0.36156 0.42114 0.0
C3690 C 0.96742 0.35695 0.44101 0.0
C3691 C 0.94591 0.36151 0.47027 0.0
C3692 C 0.92886 0.37006 0.47925 0.0
C3693 C 0.9511 0.36635 0.45043 0.0
C3694 C 0.9172 0.38381 0.46835 0.0
C3695 C 0.92267 0.38928 0.44885 0.0
H3696 H 0.85857 0.67183 0.72334 0.0
H3697 H 0.8943 0.72474 0.7342 0.0
H3698 H 0.8865 0.73721 0.70066 0.0
H3699 H 0.87175 0.73177 0.66739 0.0
H3700 H 0.83452 0.67996 0.65677 0.0
H3701 H 0.84047 0.66837 0.69118 0.0
C3702 C 0.86447 0.68617 0.71838 0.0
C3703 C 0.87716 0.69726 0.73108 0.0
C3704 C 0.8597 0.69337 0.69917 0.0
C3705 C 0.88449 0.71595 0.72467 0.0
C3706 C 0.88012 0.72304 0.70548 0.0
C3707 C 0.86476 0.71807 0.67274 0.0
C3708 C 0.8529 0.70659 0.65967 0.0
C3709 C 0.86807 0.7117 0.69249 0.0
C3710 C 0.84367 0.68902 0.6667 0.0
C3711 C 0.84717 0.68236 0.68629 0.0
H3712 H 0.52829 0.37172 0.58858 0.0
H3713 H 0.577 0.41265 0.60023 0.0
H3714 H 0.59065 0.40643 0.5667 0.0
H3715 H 0.58888 0.38903 0.53423 0.0
H3716 H 0.53858 0.35043 0.52132 0.0
H3717 H 0.52521 0.35616 0.55507 0.0
C3718 C 0.54191 0.37919 0.58371 0.0
C3719 C 0.55181 0.39242 0.59679 0.0
C3720 C 0.54927 0.37604 0.5642 0.0
C3721 C 0.56921 0.40237 0.59033 0.0
C3722 C 0.577 0.39881 0.57121 0.0
C3723 C 0.57495 0.38195 0.53883 0.0
C3724 C 0.56476 0.36925 0.52544 0.0
C3725 C 0.56717 0.38566 0.55804 0.0
C3726 C 0.54661 0.36035 0.5314 0.0
C3727 C 0.53904 0.36353 0.5507 0.0
H3728 H 0.91179 0.31333 0.77305 0.0
H3729 H 0.87275 0.36398 0.78321 0.0
H3730 H 0.86164 0.34918 0.81505 0.0
H3731 H 0.86331 0.3216 0.84017 0.0
H3732 H 0.90447 0.27257 0.83036 0.0
H3733 H 0.9143 0.28683 0.79811 0.0
C3734 C 0.9008 0.32115 0.78218 0.0
C3735 C 0.89302 0.33967 0.7757 0.0
C3736 C 0.8948 0.31275 0.80051 0.0
C3737 C 0.87901 0.34972 0.78788 0.0
C3738 C 0.8726 0.34122 0.80604 0.0
C3739 C 0.8743 0.31403 0.83083 0.0
C3740 C 0.88307 0.29599 0.8375 0.0
C3741 C 0.88038 0.32269 0.81251 0.0
C3742 C 0.89755 0.28647 0.82551 0.0
C3743 C 0.90318 0.29461 0.80709 0.0
H3744 H 0.92913 0.60898 0.0276 0.0
H3745 H 0.97437 0.65294 0.01318 0.0
H3746 H 0.98946 0.64867 0.04639 0.0
H3747 H 0.98816 0.63414 0.08041 0.0
H3748 H 0.94382 0.58894 0.09395 0.0
H3749 H 0.93007 0.59187 0.06015 0.0
C3750 C 0.94241 0.61747 0.0317 0.0
C3751 C 0.95053 0.63139 0.01814 0.0
C3752 C 0.95109 0.61478 0.05066 0.0
C3753 C 0.96789 0.64211 0.02342 0.0
C3754 C 0.97644 0.63976 0.04242 0.0
C3755 C 0.97561 0.62483 0.07585 0.0
C3756 C 0.96689 0.61149 0.08965 0.0
C3757 C 0.96793 0.62641 0.0563 0.0
C3758 C 0.9508 0.5993 0.08355 0.0
C3759 C 0.94287 0.60102 0.06427 0.0
H3760 H 0.60378 0.70503 0.26878 0.0
H3761 H 0.64326 0.65419 0.27587 0.0
H3762 H 0.6534 0.66634 0.30893 0.0
H3763 H 0.64932 0.69018 0.33679 0.0
H3764 H 0.60759 0.73932 0.33091 0.0
H3765 H 0.60018 0.72924 0.29642 0.0
C3766 C 0.61479 0.69678 0.27748 0.0
C3767 C 0.62277 0.67877 0.26993 0.0
C3768 C 0.62009 0.70352 0.29674 0.0
C3769 C 0.63683 0.66806 0.28144 0.0
C3770 C 0.64265 0.675 0.30033 0.0
C3771 C 0.63885 0.69883 0.32782 0.0
C3772 C 0.62907 0.71549 0.33628 0.0
C3773 C 0.63414 0.69254 0.30827 0.0
C3774 C 0.61527 0.7264 0.32467 0.0
C3775 C 0.61101 0.72064 0.30498 0.0
H3776 H 0.91373 0.5543 0.60923 0.0
H3777 H 0.91639 0.51354 0.6594 0.0
H3778 H 0.95129 0.52306 0.66562 0.0
H3779 H 0.98045 0.54457 0.65801 0.0
H3780 H 0.97642 0.58753 0.60985 0.0
H3781 H 0.94281 0.57547 0.60145 0.0
C3782 C 0.92203 0.54736 0.62139 0.0
C3783 C 0.91255 0.53324 0.63381 0.0
C3784 C 0.94186 0.55334 0.62523 0.0
C3785 C 0.92337 0.52454 0.64968 0.0
C3786 C 0.94332 0.52995 0.65323 0.0
C3787 C 0.97227 0.55101 0.6455 0.0
C3788 C 0.98082 0.56678 0.63446 0.0
C3789 C 0.95265 0.54453 0.64127 0.0
C3790 C 0.97003 0.57535 0.61853 0.0
C3791 C 0.95084 0.5685 0.61375 0.0
H3792 H 0.67291 0.71675 0.87042 0.0
H3793 H 0.721 0.7304 0.91151 0.0
H3794 H 0.73573 0.69727 0.9057 0.0
H3795 H 0.7344 0.66403 0.8896 0.0
H3796 H 0.68767 0.65128 0.84669 0.0
H3797 H 0.67301 0.68445 0.85241 0.0
C3798 C 0.68663 0.71243 0.87805 0.0
C3799 C 0.69579 0.72586 0.89148 0.0
C3800 C 0.69526 0.69356 0.87429 0.0
C3801 C 0.71371 0.72028 0.90107 0.0
C3802 C 0.7221 0.70134 0.89781 0.0
C3803 C 0.72107 0.66859 0.88146 0.0
C3804 C 0.71206 0.65525 0.86784 0.0
C3805 C 0.71294 0.68781 0.88454 0.0
C3806 C 0.69492 0.66137 0.85719 0.0
C3807 C 0.68648 0.68028 0.86052 0.0
H3808 H 0.58112 0.48364 0.12965 0.0
H3809 H 0.59262 0.43336 0.09056 0.0
H3810 H 0.55848 0.42087 0.09627 0.0
H3811 H 0.52625 0.4231 0.11448 0.0
H3812 H 0.51446 0.47451 0.15212 0.0
H3813 H 0.54779 0.48784 0.14476 0.0
C3814 C 0.57603 0.47006 0.12223 0.0
C3815 C 0.5893 0.45929 0.10987 0.0
C3816 C 0.55641 0.46316 0.1254 0.0
C3817 C 0.58257 0.44189 0.10009 0.0
C3818 C 0.56313 0.4347 0.10345 0.0
C3819 C 0.53096 0.43731 0.12091 0.0
C3820 C 0.51804 0.44771 0.13399 0.0
C3821 C 0.55006 0.44502 0.11639 0.0
C3822 C 0.52415 0.46623 0.142 0.0
C3823 C 0.54323 0.47382 0.13787 0.0
H3824 H 0.77416 0.33107 0.38288 0.0
H3825 H 0.82186 0.34524 0.34155 0.0
H3826 H 0.83682 0.3121 0.34703 0.0
H3827 H 0.837 0.27955 0.36482 0.0
H3828 H 0.78777 0.26469 0.40411 0.0
H3829 H 0.77269 0.29759 0.3982 0.0
C3830 C 0.78776 0.32681 0.375 0.0
C3831 C 0.79701 0.34054 0.36197 0.0
C3832 C 0.79602 0.30766 0.37793 0.0
C3833 C 0.81447 0.33483 0.35161 0.0
C3834 C 0.82307 0.31595 0.35482 0.0
C3835 C 0.82294 0.28355 0.37199 0.0
C3836 C 0.81357 0.26986 0.385 0.0
C3837 C 0.8141 0.30233 0.36814 0.0
C3838 C 0.79522 0.27502 0.39401 0.0
C3839 C 0.78662 0.29383 0.39069 0.0
H3840 H 0.91213 0.42251 0.91554 0.0
H3841 H 0.91125 0.45718 0.86075 0.0
H3842 H 0.9418 0.44075 0.84956 0.0
H3843 H 0.96969 0.41828 0.85578 0.0
H3844 H 0.97248 0.38377 0.91033 0.0
H3845 H 0.93991 0.39785 0.9209 0.0
C3846 C 0.9187 0.42649 0.90119 0.0
C3847 C 0.90947 0.44129 0.88912 0.0
C3848 C 0.93642 0.41682 0.89468 0.0
C3849 C 0.91801 0.446 0.87043 0.0
C3850 C 0.93548 0.43655 0.86394 0.0
C3851 C 0.96303 0.41358 0.86989 0.0
C3852 C 0.97343 0.40008 0.88231 0.0
C3853 C 0.94486 0.42213 0.87599 0.0
C3854 C 0.96462 0.39398 0.90044 0.0
C3855 C 0.94616 0.40227 0.90656 0.0
H3856 H 0.81867 0.65714 0.15145 0.0
H3857 H 0.76195 0.66195 0.12078 0.0
H3858 H 0.76868 0.69715 0.11302 0.0
H3859 H 0.79186 0.72566 0.11242 0.0
H3860 H 0.85003 0.72016 0.14025 0.0
H3861 H 0.84166 0.6863 0.15168 0.0
C3862 C 0.8077 0.66609 0.14341 0.0
C3863 C 0.78982 0.65714 0.13677 0.0
C3864 C 0.81204 0.68612 0.13829 0.0
C3865 C 0.77582 0.66864 0.12602 0.0
C3866 C 0.77967 0.68872 0.12154 0.0
C3867 C 0.80259 0.71715 0.12122 0.0
C3868 C 0.82152 0.72539 0.12546 0.0
C3869 C 0.79791 0.69749 0.12721 0.0
C3870 C 0.83537 0.71409 0.13669 0.0
C3871 C 0.8306 0.69473 0.14324 0.0
H3872 H 0.52157 0.55172 0.35505 0.0
H3873 H 0.53059 0.60343 0.39294 0.0
H3874 H 0.56392 0.5911 0.40224 0.0
H3875 H 0.59126 0.56646 0.39808 0.0
H3876 H 0.58323 0.51665 0.35756 0.0
H3877 H 0.54873 0.52722 0.35089 0.0
C3878 C 0.53076 0.56015 0.36552 0.0
C3879 C 0.52367 0.57838 0.37337 0.0
C3880 C 0.5501 0.55331 0.37026 0.0
C3881 C 0.53581 0.58936 0.38667 0.0
C3882 C 0.55483 0.58231 0.392 0.0
C3883 C 0.5818 0.55783 0.38802 0.0
C3884 C 0.5896 0.54078 0.37839 0.0
C3885 C 0.56224 0.56443 0.38369 0.0
C3886 C 0.57745 0.52986 0.36508 0.0
C3887 C 0.55777 0.5359 0.36127 0.0
H3888 H 0.70753 0.27704 0.60508 0.0
H3889 H 0.66061 0.27187 0.64929 0.0
H3890 H 0.66914 0.30502 0.66269 0.0
H3891 H 0.68941 0.33586 0.66118 0.0
H3892 H 0.73393 0.34245 0.61469 0.0
H3893 H 0.72691 0.30844 0.60272 0.0
C3894 C 0.69934 0.28317 0.61775 0.0
C3895 C 0.68365 0.27208 0.62638 0.0
C3896 C 0.70382 0.30251 0.62484 0.0
C3897 C 0.67279 0.28022 0.6425 0.0
C3898 C 0.67765 0.29913 0.65013 0.0
C3899 C 0.69759 0.32977 0.64848 0.0
C3900 C 0.71222 0.3415 0.63887 0.0
C3901 C 0.69305 0.31047 0.64133 0.0
C3902 C 0.72255 0.33365 0.62226 0.0
C3903 C 0.71859 0.31421 0.61546 0.0
H3904 H 0.6319 0.91855 0.52049 0.0
H3905 H 0.59381 0.90401 0.57073 0.0
H3906 H 0.59842 0.93783 0.58433 0.0
H3907 H 0.61516 0.97076 0.583 0.0
H3908 H 0.65166 0.98593 0.53176 0.0
H3909 H 0.64568 0.95268 0.51735 0.0
C3910 C 0.62448 0.92289 0.53432 0.0
C3911 C 0.6127 0.90883 0.54472 0.0
C3912 C 0.62698 0.9424 0.54187 0.0
C3913 C 0.60292 0.91464 0.56246 0.0
C3914 C 0.60564 0.93391 0.57029 0.0
C3915 C 0.62165 0.9668 0.5686 0.0
C3916 C 0.63399 0.98063 0.55853 0.0
C3917 C 0.61791 0.9478 0.56029 0.0
C3918 C 0.64209 0.9755 0.53976 0.0
C3919 C 0.63876 0.95648 0.53157 0.0
H3920 H 0.12917 0.58838 0.47708 0.0
H3921 H 0.08856 0.60121 0.42841 0.0
H3922 H 0.09533 0.5682 0.41373 0.0
H3923 H 0.11348 0.53592 0.41436 0.0
H3924 H 0.1519 0.52207 0.46452 0.0
H3925 H 0.14528 0.55513 0.47906 0.0
C3926 C 0.1218 0.58389 0.46328 0.0
C3927 C 0.10853 0.59722 0.45373 0.0
C3928 C 0.12538 0.56471 0.45522 0.0
C3929 C 0.09881 0.59116 0.43603 0.0
C3930 C 0.10272 0.57233 0.42761 0.0
C3931 C 0.12033 0.54017 0.4285 0.0
C3932 C 0.13327 0.52667 0.4383 0.0
C3933 C 0.11608 0.55902 0.437 0.0
C3934 C 0.14185 0.5322 0.45674 0.0
C3935 C 0.13813 0.55112 0.46502 0.0
H3936 H 0.67347 0.88318 0.7284 0.0
H3937 H 0.66041 0.83992 0.68207 0.0
H3938 H 0.6933 0.8458 0.66688 0.0
H3939 H 0.7255 0.86371 0.66643 0.0
H3940 H 0.73983 0.90503 0.71415 0.0
H3941 H 0.70683 0.89934 0.7293 0.0
C3942 C 0.67791 0.87508 0.71498 0.0
C3943 C 0.66459 0.86128 0.70623 0.0
C3944 C 0.69705 0.87813 0.70667 0.0
C3945 C 0.6705 0.85059 0.68905 0.0
C3946 C 0.68926 0.85397 0.68035 0.0
C3947 C 0.7214 0.8714 0.68019 0.0
C3948 C 0.73495 0.88486 0.68911 0.0
C3949 C 0.70261 0.86776 0.68899 0.0
C3950 C 0.72962 0.89454 0.70707 0.0
C3951 C 0.71074 0.89136 0.71567 0.0
H3952 H 0.36512 0.48286 0.95289 0.0
H3953 H 0.38656 0.46999 0.89315 0.0
H3954 H 0.39933 0.43747 0.90452 0.0
H3955 H 0.40227 0.41163 0.93109 0.0
H3956 H 0.37826 0.42399 0.98984 0.0
H3957 H 0.36896 0.4579 0.97937 0.0
C3958 C 0.37273 0.47304 0.94236 0.0
C3959 C 0.3748 0.47883 0.92219 0.0
C3960 C 0.37967 0.45428 0.94889 0.0
C3961 C 0.38465 0.46585 0.90875 0.0
C3962 C 0.392 0.44727 0.91524 0.0
C3963 C 0.39541 0.42199 0.94163 0.0
C3964 C 0.39112 0.41559 0.96123 0.0
C3965 C 0.38936 0.4412 0.93523 0.0
C3966 C 0.38179 0.4288 0.97472 0.0
C3967 C 0.37639 0.4481 0.96871 0.0
H3968 H 0.34156 0.65394 0.68997 0.0
H3969 H 0.33632 0.61468 0.74107 0.0
H3970 H 0.30204 0.60595 0.73127 0.0
H3971 H 0.27442 0.60785 0.70708 0.0
H3972 H 0.28066 0.64462 0.6542 0.0
H3973 H 0.31366 0.65591 0.66566 0.0
C3974 C 0.33272 0.64375 0.69908 0.0
C3975 C 0.34124 0.63509 0.71629 0.0
C3976 C 0.31333 0.63817 0.69289 0.0
C3977 C 0.32993 0.62155 0.72779 0.0
C3978 C 0.3104 0.61652 0.72217 0.0
C3979 C 0.28294 0.61845 0.69814 0.0
C3980 C 0.27512 0.6254 0.67984 0.0
C3981 C 0.30208 0.62447 0.70456 0.0
C3982 C 0.28642 0.63896 0.6683 0.0
C3983 C 0.30526 0.64547 0.67487 0.0
H3984 H 0.89599 0.08706 0.06777 0.0
H3985 H 0.86327 0.0774 0.01281 0.0
H3986 H 0.85587 0.04294 0.02285 0.0
H3987 H 0.85691 0.01624 0.04802 0.0
H3988 H 0.88721 0.02642 0.10429 0.0
H3989 H 0.89732 0.05989 0.09306 0.0
C3990 C 0.8875 0.07725 0.05793 0.0
C3991 C 0.88026 0.08465 0.03956 0.0
C3992 C 0.8827 0.05762 0.06412 0.0
C3993 C 0.86897 0.07199 0.02704 0.0
C3994 C 0.86471 0.05231 0.03278 0.0
C3995 C 0.86588 0.0257 0.05776 0.0
C3996 C 0.87131 0.01883 0.07695 0.0
C3997 C 0.87122 0.04507 0.05141 0.0
C3998 C 0.88276 0.03138 0.08947 0.0
C3999 C 0.88857 0.05051 0.08305 0.0
H4000 H 0.72237 0.13776 0.82555 0.0
H4001 H 0.73781 0.10167 0.77402 0.0
H4002 H 0.70455 0.10729 0.75978 0.0
H4003 H 0.67029 0.12023 0.76327 0.0
H4004 H 0.65503 0.15775 0.81373 0.0
H4005 H 0.68912 0.15406 0.82705 0.0
C4006 C 0.71846 0.1313 0.81113 0.0
C4007 C 0.73236 0.11914 0.80094 0.0
C4008 C 0.69939 0.13483 0.80289 0.0
C4009 C 0.72731 0.11108 0.78213 0.0
C4010 C 0.70829 0.11422 0.77402 0.0
C4011 C 0.67455 0.12779 0.77705 0.0
C4012 C 0.66027 0.13907 0.78765 0.0
C4013 C 0.69411 0.12574 0.78445 0.0
C4014 C 0.6659 0.14904 0.80533 0.0
C4015 C 0.6853 0.14682 0.81299 0.0
H4016 H 0.82639 0.87952 0.26751 0.0
H4017 H 0.83904 0.838 0.31546 0.0
H4018 H 0.80547 0.84348 0.32936 0.0
H4019 H 0.77326 0.86183 0.329 0.0
H4020 H 0.76002 0.90172 0.27979 0.0
H4021 H 0.793 0.89509 0.2652 0.0
C4022 C 0.82168 0.87153 0.28088 0.0
C4023 C 0.83516 0.8585 0.29054 0.0
C4024 C 0.80231 0.87456 0.28862 0.0
C4025 C 0.82886 0.84804 0.30772 0.0
C4026 C 0.80973 0.85127 0.31574 0.0
C4027 C 0.77759 0.86894 0.31502 0.0
C4028 C 0.76434 0.88239 0.30558 0.0
C4029 C 0.79645 0.86477 0.30651 0.0
C4030 C 0.76997 0.8913 0.28732 0.0
C4031 C 0.78885 0.88757 0.27901 0.0
H4032 H 0.47519 0.37292 0.08806 0.0
H4033 H 0.42873 0.41678 0.09849 0.0
H4034 H 0.41458 0.40999 0.06525 0.0
H4035 H 0.41519 0.39103 0.03334 0.0
H4036 H 0.46321 0.34896 0.02238 0.0
H4037 H 0.47698 0.35556 0.05567 0.0
C4038 C 0.46198 0.381 0.08302 0.0
C4039 C 0.45294 0.39523 0.09569 0.0
C4040 C 0.4542 0.3773 0.06382 0.0
C4041 C 0.43599 0.4058 0.08892 0.0
C4042 C 0.42786 0.40186 0.06997 0.0
C4043 C 0.42866 0.38333 0.0383 0.0
C4044 C 0.43811 0.36945 0.02551 0.0
C4045 C 0.43678 0.38756 0.05732 0.0
C4046 C 0.4557 0.35976 0.03195 0.0
C4047 C 0.46356 0.36348 0.05099 0.0
H4048 H 0.36646 0.66046 0.78561 0.0
H4049 H 0.41262 0.70506 0.77761 0.0
H4050 H 0.40648 0.71799 0.8114 0.0
H4051 H 0.38734 0.71722 0.84285 0.0
H4052 H 0.33892 0.67486 0.84975 0.0
H4053 H 0.34647 0.66043 0.8168 0.0
C4054 C 0.37521 0.67291 0.7914 0.0
C4055 C 0.39002 0.68176 0.77932 0.0
C4056 C 0.37111 0.6807 0.81056 0.0
C4057 C 0.40111 0.69808 0.78672 0.0
C4058 C 0.39762 0.70545 0.80601 0.0
C4059 C 0.37853 0.70477 0.83714 0.0
C4060 C 0.36269 0.69702 0.84864 0.0
C4061 C 0.38257 0.69698 0.818 0.0
C4062 C 0.35116 0.68109 0.84104 0.0
C4063 C 0.3555 0.67282 0.82226 0.0
H4064 H 0.07944 0.61807 0.5286 0.0
H4065 H 0.0286 0.65569 0.51473 0.0
H4066 H 0.01494 0.6501 0.5483 0.0
H4067 H 0.01843 0.63593 0.58225 0.0
H4068 H 0.06812 0.59658 0.59535 0.0
H4069 H 0.08127 0.60136 0.56143 0.0
C4070 C 0.06529 0.62489 0.53291 0.0
C4071 C 0.05511 0.63738 0.51933 0.0
C4072 C 0.0574 0.62139 0.55211 0.0
C4073 C 0.03667 0.64595 0.52495 0.0
C4074 C 0.02891 0.64286 0.54416 0.0
C4075 C 0.03208 0.62836 0.57758 0.0
C4076 C 0.04242 0.61609 0.59122 0.0
C4077 C 0.0393 0.63085 0.55796 0.0
C4078 C 0.05991 0.60608 0.58502 0.0
C4079 C 0.06746 0.60886 0.56568 0.0
H4080 H 0.14027 0.27935 0.32205 0.0
H4081 H 0.09646 0.31897 0.34848 0.0
H4082 H 0.08702 0.33127 0.31521 0.0
H4083 H 0.09158 0.33109 0.27865 0.0
H4084 H 0.13258 0.28903 0.25159 0.0
H4085 H 0.14275 0.27713 0.28495 0.0
C4086 C 0.12867 0.29066 0.3204 0.0
C4087 C 0.11917 0.29845 0.33755 0.0
C4088 C 0.12283 0.29712 0.30117 0.0
C4089 C 0.10393 0.31283 0.3354 0.0
C4090 C 0.09857 0.31986 0.31642 0.0
C4091 C 0.10271 0.31928 0.28013 0.0
C4092 C 0.11152 0.31104 0.26285 0.0
C4093 C 0.10796 0.31218 0.29923 0.0
C4094 C 0.12565 0.29553 0.26478 0.0
C4095 C 0.13149 0.28881 0.28381 0.0
H4096 H 0.43162 0.61263 0.41001 0.0
H4097 H 0.48603 0.6461 0.4204 0.0
H4098 H 0.47569 0.65283 0.45491 0.0
H4099 H 0.45104 0.64993 0.48171 0.0
H4100 H 0.39501 0.61934 0.47117 0.0
H4101 H 0.40597 0.61082 0.43701 0.0
C4102 C 0.4412 0.62125 0.41997 0.0
C4103 C 0.45961 0.62874 0.4129 0.0
C4104 C 0.43481 0.62566 0.4396 0.0
C4105 C 0.47181 0.64022 0.42564 0.0
C4106 C 0.46591 0.64406 0.44532 0.0
C4107 C 0.44125 0.64128 0.47199 0.0
C4108 C 0.42235 0.63507 0.47895 0.0
C4109 C 0.44742 0.63696 0.45239 0.0
C4110 C 0.40965 0.62425 0.46609 0.0
C4111 C 0.41593 0.61935 0.44662 0.0
H4112 H 0.1559 0.72593 0.17353 0.0
H4113 H 0.1147 0.68457 0.14571 0.0
H4114 H 0.10778 0.66899 0.17818 0.0
H4115 H 0.11151 0.66879 0.21472 0.0
H4116 H 0.14965 0.71254 0.24328 0.0
H4117 H 0.15985 0.72551 0.21044 0.0
C4118 C 0.14561 0.71336 0.17469 0.0
C4119 C 0.13581 0.7063 0.15746 0.0
C4120 C 0.14111 0.70501 0.19352 0.0
C4121 C 0.1223 0.69022 0.15894 0.0
C4122 C 0.11836 0.68132 0.17744 0.0
C4123 C 0.1223 0.68095 0.2137 0.0
C4124 C 0.12994 0.68965 0.23127 0.0
C4125 C 0.12741 0.68882 0.19488 0.0
C4126 C 0.14359 0.70565 0.22986 0.0
C4127 C 0.14939 0.71307 0.21112 0.0
H4128 H 0.05966 0.4065 0.98175 0.0
H4129 H 0.11643 0.38765 0.95686 0.0
H4130 H 0.10809 0.40379 0.92507 0.0
H4131 H 0.08271 0.41881 0.903 0.0
H4132 H 0.02546 0.43636 0.92715 0.0
H4133 H 0.0362 0.42612 0.96076 0.0
C4134 C 0.07026 0.40606 0.96941 0.0
C4135 C 0.08847 0.3955 0.97157 0.0
C4136 C 0.06542 0.41552 0.95114 0.0
C4137 C 0.10222 0.39545 0.95556 0.0
C4138 C 0.0975 0.40476 0.93738 0.0
C4139 C 0.07305 0.42143 0.91586 0.0
C4140 C 0.05351 0.42878 0.91274 0.0
C4141 C 0.07895 0.4144 0.93484 0.0
C4142 C 0.04078 0.43135 0.92932 0.0
C4143 C 0.04677 0.425 0.94844 0.0
H4144 H 0.38897 0.27703 0.66765 0.0
H4145 H 0.34555 0.32332 0.65493 0.0
H4146 H 0.35003 0.33724 0.68858 0.0
H4147 H 0.36696 0.33677 0.72128 0.0
H4148 H 0.40858 0.28916 0.73511 0.0
H4149 H 0.40401 0.27505 0.70149 0.0
C4150 C 0.38052 0.29015 0.67233 0.0
C4151 C 0.36709 0.29928 0.65888 0.0
C4152 C 0.38279 0.29775 0.69188 0.0
C4153 C 0.35595 0.31606 0.6651 0.0
C4154 C 0.35853 0.32403 0.6843 0.0
C4155 C 0.37493 0.32324 0.71695 0.0
C4156 C 0.38818 0.31408 0.73055 0.0
C4157 C 0.37199 0.31507 0.69776 0.0
C4158 C 0.39824 0.29642 0.72489 0.0
C4159 C 0.39572 0.28843 0.70564 0.0
H4160 H 0.09208 0.43909 0.40105 0.0
H4161 H 0.08502 0.49152 0.36383 0.0
H4162 H 0.05072 0.48139 0.35555 0.0
H4163 H 0.02322 0.45694 0.35786 0.0
H4164 H 0.03143 0.40277 0.39225 0.0
H4165 H 0.06476 0.41417 0.40271 0.0
C4166 C 0.0829 0.44834 0.39129 0.0
C4167 C 0.0909 0.46607 0.38316 0.0
C4168 C 0.06348 0.44204 0.38603 0.0
C4169 C 0.0791 0.4778 0.37023 0.0
C4170 C 0.05952 0.47202 0.36551 0.0
C4171 C 0.03227 0.44774 0.36778 0.0
C4172 C 0.0249 0.42914 0.37441 0.0
C4173 C 0.05162 0.45408 0.37317 0.0
C4174 C 0.03686 0.41715 0.38696 0.0
C4175 C 0.05588 0.42367 0.39295 0.0
H4176 H 0.31211 0.33928 0.15149 0.0
H4177 H 0.26133 0.33608 0.11153 0.0
H4178 H 0.27152 0.30247 0.10081 0.0
H4179 H 0.29564 0.27466 0.10171 0.0
H4180 H 0.34802 0.27893 0.1395 0.0
H4181 H 0.33652 0.31145 0.15213 0.0
C4182 C 0.30319 0.33106 0.14063 0.0
C4183 C 0.28594 0.33998 0.1324 0.0
C4184 C 0.30952 0.31205 0.13403 0.0
C4185 C 0.27467 0.32944 0.11805 0.0
C4186 C 0.28049 0.31026 0.11191 0.0
C4187 C 0.30446 0.28265 0.11281 0.0
C4188 C 0.3226 0.27441 0.11971 0.0
C4189 C 0.29801 0.30152 0.11963 0.0
C4190 C 0.33402 0.28503 0.1339 0.0
C4191 C 0.32744 0.30359 0.14117 0.0
H4192 H 0.4152 0.53002 0.85247 0.0
H4193 H 0.40509 0.57168 0.90095 0.0
H4194 H 0.43886 0.58552 0.8964 0.0
H4195 H 0.47137 0.58568 0.87847 0.0
H4196 H 0.48208 0.54192 0.83195 0.0
H4197 H 0.44804 0.52897 0.83588 0.0
C4198 C 0.42039 0.54218 0.86199 0.0
C4199 C 0.40768 0.54997 0.87689 0.0
C4200 C 0.43995 0.54963 0.85965 0.0
C4201 C 0.41466 0.56546 0.88937 0.0
C4202 C 0.43393 0.57339 0.88675 0.0
C4203 C 0.46619 0.57332 0.86922 0.0
C4204 C 0.47914 0.56481 0.85489 0.0
C4205 C 0.44672 0.56559 0.87192 0.0
C4206 C 0.47239 0.54865 0.84315 0.0
C4207 C 0.45291 0.54128 0.84533 0.0
H4208 H 0.22861 0.67426 0.61535 0.0
H4209 H 0.18273 0.66198 0.65927 0.0
H4210 H 0.16883 0.69572 0.65452 0.0
H4211 H 0.16876 0.728 0.63641 0.0
H4212 H 0.21605 0.74091 0.59414 0.0
H4213 H 0.23053 0.70764 0.59978 0.0
C4214 C 0.21564 0.67906 0.62395 0.0
C4215 C 0.20653 0.6657 0.63747 0.0
C4216 C 0.20801 0.69852 0.62139 0.0
C4217 C 0.18996 0.6721 0.6488 0.0
C4218 C 0.18198 0.69132 0.64601 0.0
C4219 C 0.18232 0.72353 0.62856 0.0
C4220 C 0.19125 0.73674 0.61474 0.0
C4221 C 0.19073 0.70454 0.63214 0.0
C4222 C 0.20895 0.73097 0.60486 0.0
C4223 C 0.21717 0.71195 0.60801 0.0
H4224 H 0.09097 0.52951 0.13878 0.0
H4225 H 0.10205 0.57612 0.09523 0.0
H4226 H 0.06857 0.58982 0.10094 0.0
H4227 H 0.03649 0.58909 0.11881 0.0
H4228 H 0.02424 0.54152 0.16092 0.0
H4229 H 0.05779 0.52756 0.15521 0.0
C4230 C 0.086 0.54264 0.13055 0.0
C4231 C 0.09897 0.55186 0.1167 0.0
C4232 C 0.06656 0.55024 0.13364 0.0
C4233 C 0.0923 0.56871 0.10592 0.0
C4234 C 0.07319 0.5766 0.10922 0.0
C4235 C 0.04117 0.57565 0.12672 0.0
C4236 C 0.02804 0.56643 0.14039 0.0
C4237 C 0.06026 0.56757 0.12312 0.0
C4238 C 0.03413 0.54886 0.15031 0.0
C4239 C 0.05331 0.54092 0.1471 0.0
H4240 H 0.18438 0.34067 0.84713 0.0
H4241 H 0.24001 0.32829 0.87775 0.0
H4242 H 0.2285 0.29431 0.88554 0.0
H4243 H 0.20171 0.26938 0.88604 0.0
H4244 H 0.14473 0.28261 0.85823 0.0
H4245 H 0.15761 0.31511 0.84696 0.0
C4246 C 0.19408 0.33031 0.85512 0.0
C4247 C 0.21305 0.3367 0.86171 0.0
C4248 C 0.18701 0.31116 0.86028 0.0
C4249 C 0.22538 0.3235 0.87249 0.0
C4250 C 0.21878 0.30417 0.877 0.0
C4251 C 0.19215 0.27926 0.87733 0.0
C4252 C 0.1723 0.27363 0.87299 0.0
C4253 C 0.19947 0.29802 0.87136 0.0
C4254 C 0.16005 0.28668 0.86185 0.0
C4255 C 0.16741 0.30522 0.85537 0.0
H4256 H 0.41424 0.44418 0.60375 0.0
H4257 H 0.41666 0.49631 0.64206 0.0
H4258 H 0.45192 0.48956 0.64953 0.0
H4259 H 0.48143 0.4677 0.64685 0.0
H4260 H 0.47814 0.41368 0.61134 0.0
H4261 H 0.44397 0.42228 0.60098 0.0
C4262 C 0.42262 0.45415 0.61353 0.0
C4263 C 0.41299 0.47073 0.6223 0.0
C4264 C 0.44269 0.44977 0.61832 0.0
C4265 C 0.42381 0.4834 0.63521 0.0
C4266 C 0.44395 0.47956 0.63947 0.0
C4267 C 0.4733 0.45798 0.63663 0.0
C4268 C 0.48225 0.44017 0.62976 0.0
C4269 C 0.45345 0.46264 0.63135 0.0
C4270 C 0.47148 0.42748 0.61682 0.0
C4271 C 0.45197 0.43237 0.6109 0.0
H4272 H 0.31828 0.65368 0.38246 0.0
H4273 H 0.27681 0.67243 0.33657 0.0
H4274 H 0.28636 0.70756 0.34186 0.0
H4275 H 0.30583 0.73293 0.36032 0.0
H4276 H 0.3496 0.71406 0.40404 0.0
H4277 H 0.34012 0.67892 0.3987 0.0
C4278 C 0.31139 0.66554 0.37369 0.0
C4279 C 0.29668 0.66072 0.35941 0.0
C4280 C 0.31746 0.68557 0.37635 0.0
C4281 C 0.28809 0.67597 0.34773 0.0
C4282 C 0.29354 0.69599 0.35075 0.0
C4283 C 0.31337 0.72107 0.36854 0.0
C4284 C 0.32826 0.72598 0.38263 0.0
C4285 C 0.30812 0.70096 0.36511 0.0
C4286 C 0.33815 0.71056 0.39304 0.0
C4287 C 0.33264 0.69052 0.3901 0.0
H4288 H 0.39583 0.09235 0.43525 0.0
H4289 H 0.35836 0.08856 0.48787 0.0
H4290 H 0.34879 0.05425 0.47885 0.0
H4291 H 0.3508 0.02556 0.45579 0.0
H4292 H 0.38577 0.03038 0.40156 0.0
H4293 H 0.39664 0.06413 0.41135 0.0
C4294 C 0.38566 0.08392 0.44476 0.0
C4295 C 0.37793 0.09277 0.46227 0.0
C4296 C 0.37977 0.06448 0.43915 0.0
C4297 C 0.36447 0.08196 0.47432 0.0
C4298 C 0.35903 0.06237 0.46919 0.0
C4299 C 0.36089 0.03399 0.44619 0.0
C4300 C 0.36767 0.02552 0.42811 0.0
C4301 C 0.36656 0.05352 0.45163 0.0
C4302 C 0.3804 0.03667 0.41557 0.0
C4303 C 0.38663 0.0559 0.42117 0.0
H4304 H 0.89918 0.40654 0.57109 0.0
H4305 H 0.85541 0.41098 0.5237 0.0
H4306 H 0.84592 0.4446 0.53525 0.0
H4307 H 0.84971 0.47245 0.55929 0.0
H4308 H 0.89108 0.46645 0.60866 0.0
H4309 H 0.90189 0.4337 0.59599 0.0
C4310 C 0.88768 0.41499 0.56325 0.0
C4311 C 0.87813 0.40652 0.54648 0.0
C4312 C 0.88183 0.43394 0.5704 0.0
C4313 C 0.86295 0.41731 0.53664 0.0
C4314 C 0.85755 0.43649 0.54322 0.0
C4315 C 0.86114 0.46396 0.56719 0.0
C4316 C 0.86971 0.47182 0.58477 0.0
C4317 C 0.86683 0.44491 0.56015 0.0
C4318 C 0.88426 0.46062 0.5951 0.0
C4319 C 0.89048 0.44195 0.58784 0.0
H4320 H 0.34355 0.14818 0.31786 0.0
H4321 H 0.33249 0.12674 0.25787 0.0
H4322 H 0.29723 0.12083 0.26608 0.0
H4323 H 0.27033 0.1193 0.29088 0.0
H4324 H 0.28165 0.1378 0.35187 0.0
H4325 H 0.31597 0.14728 0.34282 0.0
C4326 C 0.33323 0.14258 0.30658 0.0
C4327 C 0.34036 0.13806 0.28727 0.0
C4328 C 0.31315 0.13845 0.31166 0.0
C4329 C 0.32715 0.13038 0.2728 0.0
C4330 C 0.30706 0.12694 0.2775 0.0
C4331 C 0.28022 0.12559 0.30217 0.0
C4332 C 0.27345 0.12782 0.32201 0.0
C4333 C 0.3 0.13053 0.29698 0.0
C4334 C 0.28653 0.13584 0.33649 0.0
C4335 C 0.30615 0.1413 0.33132 0.0
H4336 H 0.63032 0.58271 0.02453 0.0
H4337 H 0.5835 0.59139 0.06837 0.0
H4338 H 0.59157 0.55895 0.08366 0.0
H4339 H 0.61277 0.52853 0.08509 0.0
H4340 H 0.65815 0.51925 0.03985 0.0
H4341 H 0.64989 0.55154 0.02459 0.0
C4342 C 0.62182 0.57744 0.03737 0.0
C4343 C 0.60642 0.58942 0.04539 0.0
C4344 C 0.62639 0.55873 0.04589 0.0
C4345 C 0.59536 0.58235 0.06188 0.0
C4346 C 0.60005 0.56387 0.07069 0.0
C4347 C 0.62084 0.53364 0.07191 0.0
C4348 C 0.63617 0.52167 0.06369 0.0
C4349 C 0.61568 0.55203 0.06293 0.0
C4350 C 0.6463 0.52824 0.04643 0.0
C4351 C 0.6416 0.5467 0.03772 0.0
H4352 H 0.66763 0.38589 0.27731 0.0
H4353 H 0.65519 0.34288 0.32397 0.0
H4354 H 0.68878 0.34799 0.33798 0.0
H4355 H 0.72148 0.36536 0.33733 0.0
H4356 H 0.73465 0.40644 0.28908 0.0
H4357 H 0.70109 0.40135 0.27524 0.0
C4358 C 0.67234 0.37764 0.29053 0.0
C4359 C 0.65899 0.36416 0.29971 0.0
C4360 C 0.6918 0.38029 0.29817 0.0
C4361 C 0.66528 0.3533 0.31664 0.0
C4362 C 0.68444 0.35627 0.32468 0.0
C4363 C 0.71699 0.37312 0.32375 0.0
C4364 C 0.73045 0.38634 0.3143 0.0
C4365 C 0.69779 0.36981 0.31563 0.0
C4366 C 0.72457 0.39613 0.29659 0.0
C4367 C 0.70536 0.39329 0.2887 0.0
H4368 H 0.11375 0.97769 0.92153 0.0
H4369 H 0.15622 0.9908 0.96857 0.0
H4370 H 0.148 0.95908 0.98511 0.0
H4371 H 0.13072 0.92654 0.98462 0.0
H4372 H 0.08733 0.91391 0.93829 0.0
H4373 H 0.09365 0.94676 0.92316 0.0
C4374 C 0.12109 0.97361 0.93547 0.0
C4375 C 0.13577 0.98631 0.94371 0.0
C4376 C 0.1161 0.95554 0.94499 0.0
C4377 C 0.14492 0.98116 0.96196 0.0
C4378 C 0.14027 0.96304 0.97137 0.0
C4379 C 0.12247 0.93112 0.97136 0.0
C4380 C 0.10875 0.91784 0.96243 0.0
C4381 C 0.12616 0.94996 0.96281 0.0
C4382 C 0.09793 0.92396 0.94543 0.0
C4383 C 0.10165 0.94265 0.9367 0.0
H4384 H 0.3497 0.886 0.19003 0.0
H4385 H 0.33173 0.83473 0.22504 0.0
H4386 H 0.2964 0.84115 0.21673 0.0
H4387 H 0.27061 0.86221 0.20012 0.0
H4388 H 0.28938 0.91134 0.16248 0.0
H4389 H 0.32448 0.90499 0.17113 0.0
C4390 C 0.338 0.87623 0.19575 0.0
C4391 C 0.34309 0.86009 0.20826 0.0
C4392 C 0.31794 0.87969 0.19047 0.0
C4393 C 0.328 0.84725 0.21536 0.0
C4394 C 0.30786 0.85097 0.21069 0.0
C4395 C 0.28246 0.87142 0.19384 0.0
C4396 C 0.27759 0.8873 0.18087 0.0
C4397 C 0.30264 0.86727 0.19838 0.0
C4398 C 0.29293 0.89902 0.17249 0.0
C4399 C 0.31294 0.89544 0.17746 0.0
H4400 H 0.16877 0.14846 0.71396 0.0
H4401 H 0.14881 0.09177 0.68993 0.0
H4402 H 0.18202 0.08579 0.67551 0.0
H4403 H 0.21696 0.0964 0.67031 0.0
H4404 H 0.2381 0.1511 0.69751 0.0
H4405 H 0.20423 0.15837 0.71003 0.0
C4406 C 0.17177 0.13484 0.70554 0.0
C4407 C 0.15649 0.12058 0.70293 0.0
C4408 C 0.19104 0.13124 0.69782 0.0
C4409 C 0.16047 0.10286 0.69222 0.0
C4410 C 0.17939 0.09949 0.6839 0.0
C4411 C 0.21399 0.10998 0.67881 0.0
C4412 C 0.22966 0.1234 0.68281 0.0
C4413 C 0.19479 0.11354 0.68665 0.0
C4414 C 0.22602 0.14072 0.69421 0.0
C4415 C 0.20675 0.14482 0.70138 0.0
loop_
_geom_bond_atom_site_label_1
_geom_bond_atom_site_label_2
_geom_bond_distance
_geom_bond_site_symmetry_2
_ccdc_geom_bond_type
C0 O2 1.261 . S
C0 O4 1.258 1_655 S
C1 O8 1.247 . S
C1 O9 1.258 . S
O2 C0 1.261 . S
O2 Zn3 1.986 1_655 S
Zn3 O2 1.986 1_455 S
Zn3 O7 2.035 . S
Zn3 O9 2.035 . S
Zn3 O10 2.028 . S
O4 C0 1.258 1_455 S
O4 Zn5 2.035 . S
Zn5 O4 2.035 . S
Zn5 O6 2.028 . S
Zn5 O8 2.028 . S
Zn5 O11 2.035 . S
O6 Zn5 2.028 . S
O6 C12 1.247 . S
O7 Zn3 2.035 . S
O7 C12 1.258 . S
O8 C1 1.247 . S
O8 Zn5 2.028 . S
O9 C1 1.258 . S
O9 Zn3 2.035 . S
O10 Zn3 2.028 . S
O10 C13 1.247 . S
O11 Zn5 2.035 . S
O11 C13 1.258 . S
C12 O6 1.247 . S
C12 O7 1.258 . S
C13 O10 1.247 . S
C13 O11 1.258 . S
C14 O16 1.247 . S
C14 O18 1.258 . S
C15 O22 1.247 . S
C15 O23 1.258 . S
O16 C14 1.247 . S
O16 Zn17 2.028 . S
Zn17 O16 2.028 . S
Zn17 O21 2.035 . S
Zn17 O23 2.035 . S
Zn17 O24 2.028 . S
O18 C14 1.258 . S
O18 Zn19 2.035 . S
Zn19 O18 2.035 . S
Zn19 O20 2.028 . S
Zn19 O22 2.028 . S
Zn19 O25 2.035 . S
O20 Zn19 2.028 . S
O20 C26 1.247 . S
O21 Zn17 2.035 . S
O21 C26 1.258 . S
O22 C15 1.247 . S
O22 Zn19 2.028 . S
O23 C15 1.258 . S
O23 Zn17 2.035 . S
O24 Zn17 2.028 . S
O24 C27 1.247 . S
O25 Zn19 2.035 . S
O25 C27 1.258 . S
C26 O20 1.247 . S
C26 O21 1.258 . S
C27 O24 1.247 . S
C27 O25 1.258 . S
C28 O30 1.247 . S
C28 O32 1.258 . S
C29 O36 1.247 . S
C29 O37 1.258 . S
O30 C28 1.247 . S
O30 Zn31 2.028 . S
Zn31 O30 2.028 . S
Zn31 O35 2.035 . S
Zn31 O37 2.035 . S
Zn31 O38 2.028 . S
O32 C28 1.258 . S
O32 Zn33 2.035 . S
Zn33 O32 2.035 . S
Zn33 O34 2.028 . S
Zn33 O36 2.028 . S
Zn33 O39 2.035 . S
O34 Zn33 2.028 . S
O34 C40 1.247 . S
O35 Zn31 2.035 . S
O35 C40 1.258 . S
O36 C29 1.247 . S
O36 Zn33 2.028 . S
O37 C29 1.258 . S
O37 Zn31 2.035 . S
O38 Zn31 2.028 . S
O38 C41 1.247 . S
O39 Zn33 2.035 . S
O39 C41 1.258 . S
C40 O34 1.247 . S
C40 O35 1.258 . S
C41 O38 1.247 . S
C41 O39 1.258 . S
C42 O44 1.247 . S
C42 O46 1.258 . S
C43 O50 1.247 . S
C43 O51 1.258 . S
O44 C42 1.247 . S
O44 Zn45 2.028 . S
Zn45 O44 2.028 . S
Zn45 O49 2.035 . S
Zn45 O51 2.035 . S
Zn45 O52 2.028 . S
O46 C42 1.258 . S
O46 Zn47 2.035 . S
Zn47 O46 2.035 . S
Zn47 O48 2.028 . S
Zn47 O50 2.028 . S
Zn47 O53 2.035 . S
O48 Zn47 2.028 . S
O48 C54 1.247 . S
O49 Zn45 2.035 . S
O49 C54 1.258 . S
O50 C43 1.247 . S
O50 Zn47 2.028 . S
O51 C43 1.258 . S
O51 Zn45 2.035 . S
O52 Zn45 2.028 . S
O52 C55 1.247 . S
O53 Zn47 2.035 . S
O53 C55 1.258 . S
C54 O48 1.247 . S
C54 O49 1.258 . S
C55 O52 1.247 . S
C55 O53 1.258 . S
C56 O58 1.261 . S
C56 O60 1.258 1_655 S
C57 O64 1.247 . S
C57 O65 1.258 . S
O58 C56 1.261 . S
O58 Zn59 1.986 1_655 S
Zn59 O58 1.986 1_455 S
Zn59 O63 2.035 . S
Zn59 O65 2.035 . S
Zn59 O66 2.028 . S
O60 C56 1.258 1_455 S
O60 Zn61 2.035 . S
Zn61 O60 2.035 . S
Zn61 O62 2.028 . S
Zn61 O64 2.028 . S
Zn61 O67 2.035 . S
O62 Zn61 2.028 . S
O62 C68 1.247 . S
O63 Zn59 2.035 . S
O63 C68 1.258 . S
O64 C57 1.247 . S
O64 Zn61 2.028 . S
O65 C57 1.258 . S
O65 Zn59 2.035 . S
O66 Zn59 2.028 . S
O66 C69 1.247 . S
O67 Zn61 2.035 . S
O67 C69 1.258 . S
C68 O62 1.247 . S
C68 O63 1.258 . S
C69 O66 1.247 . S
C69 O67 1.258 . S
C70 O72 1.247 . S
C70 O74 1.258 . S
C71 O78 1.247 . S
C71 O79 1.258 . S
O72 C70 1.247 . S
O72 Zn73 2.028 . S
Zn73 O72 2.028 . S
Zn73 O77 2.035 . S
Zn73 O79 2.035 . S
Zn73 O80 2.028 . S
O74 C70 1.258 . S
O74 Zn75 2.035 . S
Zn75 O74 2.035 . S
Zn75 O76 2.028 . S
Zn75 O78 2.028 . S
Zn75 O81 2.035 . S
O76 Zn75 2.028 . S
O76 C82 1.247 . S
O77 Zn73 2.035 . S
O77 C82 1.258 . S
O78 C71 1.247 . S
O78 Zn75 2.028 . S
O79 C71 1.258 . S
O79 Zn73 2.035 . S
O80 Zn73 2.028 . S
O80 C83 1.247 . S
O81 Zn75 2.035 . S
O81 C83 1.258 . S
C82 O76 1.247 . S
C82 O77 1.258 . S
C83 O80 1.247 . S
C83 O81 1.258 . S
C84 O86 1.247 . S
C84 O88 1.258 . S
C85 O92 1.247 . S
C85 O93 1.258 . S
O86 C84 1.247 . S
O86 Zn87 2.028 . S
Zn87 O86 2.028 . S
Zn87 O91 2.035 . S
Zn87 O93 2.035 . S
Zn87 O94 2.028 . S
O88 C84 1.258 . S
O88 Zn89 2.035 . S
Zn89 O88 2.035 . S
Zn89 O90 2.028 . S
Zn89 O92 2.028 . S
Zn89 O95 2.035 . S
O90 Zn89 2.028 . S
O90 C96 1.247 . S
O91 Zn87 2.035 . S
O91 C96 1.258 . S
O92 C85 1.247 . S
O92 Zn89 2.028 . S
O93 C85 1.258 . S
O93 Zn87 2.035 . S
O94 Zn87 2.028 . S
O94 C97 1.247 . S
O95 Zn89 2.035 . S
O95 C97 1.258 . S
C96 O90 1.247 . S
C96 O91 1.258 . S
C97 O94 1.247 . S
C97 O95 1.258 . S
C98 O100 1.247 . S
C98 O102 1.258 . S
C99 O106 1.247 . S
C99 O107 1.258 . S
O100 C98 1.247 . S
O100 Zn101 2.028 . S
Zn101 O100 2.028 . S
Zn101 O105 2.035 . S
Zn101 O107 2.035 . S
Zn101 O108 2.028 . S
O102 C98 1.258 . S
O102 Zn103 2.035 . S
Zn103 O102 2.035 . S
Zn103 O104 2.028 . S
Zn103 O106 2.028 . S
Zn103 O109 2.035 . S
O104 Zn103 2.028 . S
O104 C110 1.247 . S
O105 Zn101 2.035 . S
O105 C110 1.258 . S
O106 C99 1.247 . S
O106 Zn103 2.028 . S
O107 C99 1.258 . S
O107 Zn101 2.035 . S
O108 Zn101 2.028 . S
O108 C111 1.247 . S
O109 Zn103 2.035 . S
O109 C111 1.258 . S
C110 O104 1.247 . S
C110 O105 1.258 . S
C111 O108 1.247 . S
C111 O109 1.258 . S
C112 O114 1.247 . S
C112 O116 1.258 . S
C113 O120 1.247 . S
C113 O121 1.258 . S
O114 C112 1.247 . S
O114 Zn115 2.028 . S
Zn115 O114 2.028 . S
Zn115 O119 2.035 . S
Zn115 O121 2.035 . S
Zn115 O122 2.028 . S
O116 C112 1.258 . S
O116 Zn117 2.035 . S
Zn117 O116 2.035 . S
Zn117 O118 2.028 . S
Zn117 O120 2.028 . S
Zn117 O123 1.995 1_545 S
O118 Zn117 2.028 . S
O118 C124 1.247 . S
O119 Zn115 2.035 . S
O119 C124 1.258 . S
O120 C113 1.247 . S
O120 Zn117 2.028 . S
O121 C113 1.258 . S
O121 Zn115 2.035 . S
O122 Zn115 2.028 . S
O122 C125 1.247 1_545 S
O123 Zn117 1.995 1_565 S
O123 C125 1.271 . S
C124 O118 1.247 . S
C124 O119 1.258 . S
C125 O122 1.247 1_565 S
C125 O123 1.271 . S
C126 O128 1.247 . S
C126 O130 1.258 . S
C127 O134 1.247 . S
C127 O135 1.258 . S
O128 C126 1.247 . S
O128 Zn129 2.028 . S
Zn129 O128 2.028 . S
Zn129 O133 2.035 . S
Zn129 O135 2.035 . S
Zn129 O136 2.028 . S
O130 C126 1.258 . S
O130 Zn131 2.035 . S
Zn131 O130 2.035 . S
Zn131 O132 2.028 . S
Zn131 O134 2.028 . S
Zn131 O137 2.035 . S
O132 Zn131 2.028 . S
O132 C138 1.247 . S
O133 Zn129 2.035 . S
O133 C138 1.258 . S
O134 C127 1.247 . S
O134 Zn131 2.028 . S
O135 C127 1.258 . S
O135 Zn129 2.035 . S
O136 Zn129 2.028 . S
O136 C139 1.247 . S
O137 Zn131 2.035 . S
O137 C139 1.258 . S
C138 O132 1.247 . S
C138 O133 1.258 . S
C139 O136 1.247 . S
C139 O137 1.258 . S
C140 O142 1.261 . S
C140 O144 1.258 1_545 S
C141 O148 1.247 . S
C141 O149 1.258 . S
O142 C140 1.261 . S
O142 Zn143 1.986 1_545 S
Zn143 O142 1.986 1_565 S
Zn143 O147 2.035 . S
Zn143 O149 2.035 . S
Zn143 O150 2.028 . S
O144 C140 1.258 1_565 S
O144 Zn145 2.035 . S
Zn145 O144 2.035 . S
Zn145 O146 2.028 . S
Zn145 O148 2.028 . S
Zn145 O151 2.035 . S
O146 Zn145 2.028 . S
O146 C152 1.247 . S
O147 Zn143 2.035 . S
O147 C152 1.258 . S
O148 C141 1.247 . S
O148 Zn145 2.028 . S
O149 C141 1.258 . S
O149 Zn143 2.035 . S
O150 Zn143 2.028 . S
O150 C153 1.247 . S
O151 Zn145 2.035 . S
O151 C153 1.258 . S
C152 O146 1.247 . S
C152 O147 1.258 . S
C153 O150 1.247 . S
C153 O151 1.258 . S
C154 O156 1.247 . S
C154 O158 1.258 . S
C155 O162 1.247 . S
C155 O163 1.258 . S
O156 C154 1.247 . S
O156 Zn157 2.028 . S
Zn157 O156 2.028 . S
Zn157 O161 2.035 . S
Zn157 O163 2.035 . S
Zn157 O164 2.028 . S
O158 C154 1.258 . S
O158 Zn159 2.035 . S
Zn159 O158 2.035 . S
Zn159 O160 2.028 . S
Zn159 O162 2.028 . S
Zn159 O165 2.035 . S
O160 Zn159 2.028 . S
O160 C166 1.247 . S
O161 Zn157 2.035 . S
O161 C166 1.258 . S
O162 C155 1.247 . S
O162 Zn159 2.028 . S
O163 C155 1.258 . S
O163 Zn157 2.035 . S
O164 Zn157 2.028 . S
O164 C167 1.247 . S
O165 Zn159 2.035 . S
O165 C167 1.258 . S
C166 O160 1.247 . S
C166 O161 1.258 . S
C167 O164 1.247 . S
C167 O165 1.258 . S
C168 O170 1.247 . S
C168 O172 1.258 . S
C169 O176 1.247 . S
C169 O177 1.258 . S
O170 C168 1.247 . S
O170 Zn171 2.028 . S
Zn171 O170 2.028 . S
Zn171 O175 2.035 . S
Zn171 O177 2.035 . S
Zn171 O178 2.028 . S
O172 C168 1.258 . S
O172 Zn173 2.035 . S
Zn173 O172 2.035 . S
Zn173 O174 2.028 . S
Zn173 O176 2.028 . S
Zn173 O179 1.995 1_565 S
O174 Zn173 2.028 . S
O174 C180 1.247 . S
O175 Zn171 2.035 . S
O175 C180 1.258 . S
O176 C169 1.247 . S
O176 Zn173 2.028 . S
O177 C169 1.258 . S
O177 Zn171 2.035 . S
O178 Zn171 2.028 . S
O178 C181 1.247 1_565 S
O179 Zn173 1.995 1_545 S
O179 C181 1.271 . S
C180 O174 1.247 . S
C180 O175 1.258 . S
C181 O178 1.247 1_545 S
C181 O179 1.271 . S
C182 O184 1.247 . S
C182 O186 1.258 . S
C183 O190 1.247 . S
C183 O191 1.258 . S
O184 C182 1.247 . S
O184 Zn185 2.028 . S
Zn185 O184 2.028 . S
Zn185 O189 2.035 . S
Zn185 O191 2.035 . S
Zn185 O192 2.028 . S
O186 C182 1.258 . S
O186 Zn187 2.035 . S
Zn187 O186 2.035 . S
Zn187 O188 2.028 . S
Zn187 O190 2.028 . S
Zn187 O193 2.035 . S
O188 Zn187 2.028 . S
O188 C194 1.247 . S
O189 Zn185 2.035 . S
O189 C194 1.258 . S
O190 C183 1.247 . S
O190 Zn187 2.028 . S
O191 C183 1.258 . S
O191 Zn185 2.035 . S
O192 Zn185 2.028 . S
O192 C195 1.247 . S
O193 Zn187 2.035 . S
O193 C195 1.258 . S
C194 O188 1.247 . S
C194 O189 1.258 . S
C195 O192 1.247 . S
C195 O193 1.258 . S
C196 O198 1.261 . S
C196 O200 1.258 1_565 S
C197 O204 1.247 . S
C197 O205 1.258 . S
O198 C196 1.261 . S
O198 Zn199 1.986 1_565 S
Zn199 O198 1.986 1_545 S
Zn199 O203 2.035 . S
Zn199 O205 2.035 . S
Zn199 O206 2.028 . S
O200 C196 1.258 1_545 S
O200 Zn201 2.035 . S
Zn201 O200 2.035 . S
Zn201 O202 2.028 . S
Zn201 O204 2.028 . S
Zn201 O207 2.035 . S
O202 Zn201 2.028 . S
O202 C208 1.247 . S
O203 Zn199 2.035 . S
O203 C208 1.258 . S
O204 C197 1.247 . S
O204 Zn201 2.028 . S
O205 C197 1.258 . S
O205 Zn199 2.035 . S
O206 Zn199 2.028 . S
O206 C209 1.247 . S
O207 Zn201 2.035 . S
O207 C209 1.258 . S
C208 O202 1.247 . S
C208 O203 1.258 . S
C209 O206 1.247 . S
C209 O207 1.258 . S
C210 O212 1.247 . S
C210 O214 1.258 . S
C211 O218 1.247 . S
C211 O219 1.258 . S
O212 C210 1.247 . S
O212 Zn213 2.028 . S
Zn213 O212 2.028 . S
Zn213 O217 2.035 . S
Zn213 O219 2.035 . S
Zn213 O220 2.028 . S
O214 C210 1.258 . S
O214 Zn215 2.035 . S
Zn215 O214 2.035 . S
Zn215 O216 2.028 . S
Zn215 O218 2.028 . S
Zn215 O221 2.035 . S
O216 Zn215 2.028 . S
O216 C222 1.247 . S
O217 Zn213 2.035 . S
O217 C222 1.258 . S
O218 C211 1.247 . S
O218 Zn215 2.028 . S
O219 C211 1.258 . S
O219 Zn213 2.035 . S
O220 Zn213 2.028 . S
O220 C223 1.247 . S
O221 Zn215 2.035 . S
O221 C223 1.258 . S
C222 O216 1.247 . S
C222 O217 1.258 . S
C223 O220 1.247 . S
C223 O221 1.258 . S
C224 O226 1.261 . S
C224 O228 1.258 1_556 S
C225 O232 1.247 . S
C225 O233 1.258 . S
O226 C224 1.261 . S
O226 Zn227 1.986 1_556 S
Zn227 O226 1.986 1_554 S
Zn227 O231 2.035 . S
Zn227 O233 2.035 . S
Zn227 O234 2.028 . S
O228 C224 1.258 1_554 S
O228 Zn229 2.035 . S
Zn229 O228 2.035 . S
Zn229 O230 2.028 . S
Zn229 O232 2.028 . S
Zn229 O235 2.035 . S
O230 Zn229 2.028 . S
O230 C236 1.247 . S
O231 Zn227 2.035 . S
O231 C236 1.258 . S
O232 C225 1.247 . S
O232 Zn229 2.028 . S
O233 C225 1.258 . S
O233 Zn227 2.035 . S
O234 Zn227 2.028 . S
O234 C237 1.247 . S
O235 Zn229 2.035 . S
O235 C237 1.258 . S
C236 O230 1.247 . S
C236 O231 1.258 . S
C237 O234 1.247 . S
C237 O235 1.258 . S
C238 O240 1.261 . S
C238 O242 1.258 1_554 S
C239 O246 1.247 . S
C239 O247 1.258 . S
O240 C238 1.261 . S
O240 Zn241 1.986 1_554 S
Zn241 O240 1.986 1_556 S
Zn241 O245 2.035 . S
Zn241 O247 2.035 . S
Zn241 O248 2.028 . S
O242 C238 1.258 1_556 S
O242 Zn243 2.035 . S
Zn243 O242 2.035 . S
Zn243 O244 2.028 . S
Zn243 O246 2.028 . S
Zn243 O249 2.035 . S
O244 Zn243 2.028 . S
O244 C250 1.247 . S
O245 Zn241 2.035 . S
O245 C250 1.258 . S
O246 C239 1.247 . S
O246 Zn243 2.028 . S
O247 C239 1.258 . S
O247 Zn241 2.035 . S
O248 Zn241 2.028 . S
O248 C251 1.247 . S
O249 Zn243 2.035 . S
O249 C251 1.258 . S
C250 O244 1.247 . S
C250 O245 1.258 . S
C251 O248 1.247 . S
C251 O249 1.258 . S
C252 O254 1.247 . S
C252 O256 1.258 . S
C253 O260 1.247 . S
C253 O261 1.258 . S
O254 C252 1.247 . S
O254 Zn255 2.028 . S
Zn255 O254 2.028 . S
Zn255 O259 2.035 . S
Zn255 O261 2.035 . S
Zn255 O262 2.028 . S
O256 C252 1.258 . S
O256 Zn257 2.035 . S
Zn257 O256 2.035 . S
Zn257 O258 2.028 . S
Zn257 O260 2.028 . S
Zn257 O263 2.035 . S
O258 Zn257 2.028 . S
O258 C264 1.247 . S
O259 Zn255 2.035 . S
O259 C264 1.258 . S
O260 C253 1.247 . S
O260 Zn257 2.028 . S
O261 C253 1.258 . S
O261 Zn255 2.035 . S
O262 Zn255 2.028 . S
O262 C265 1.247 . S
O263 Zn257 2.035 . S
O263 C265 1.258 . S
C264 O258 1.247 . S
C264 O259 1.258 . S
C265 O262 1.247 . S
C265 O263 1.258 . S
C266 O268 1.247 . S
C266 O270 1.258 . S
C267 O274 1.247 . S
C267 O275 1.258 . S
O268 C266 1.247 . S
O268 Zn269 2.028 . S
Zn269 O268 2.028 . S
Zn269 O273 2.035 . S
Zn269 O275 2.035 . S
Zn269 O276 2.028 . S
O270 C266 1.258 . S
O270 Zn271 2.035 . S
Zn271 O270 2.035 . S
Zn271 O272 2.028 . S
Zn271 O274 2.028 . S
Zn271 O277 2.035 . S
O272 Zn271 2.028 . S
O272 C278 1.247 . S
O273 Zn269 2.035 . S
O273 C278 1.258 . S
O274 C267 1.247 . S
O274 Zn271 2.028 . S
O275 C267 1.258 . S
O275 Zn269 2.035 . S
O276 Zn269 2.028 . S
O276 C279 1.247 . S
O277 Zn271 2.035 . S
O277 C279 1.258 . S
C278 O272 1.247 . S
C278 O273 1.258 . S
C279 O276 1.247 . S
C279 O277 1.258 . S
C280 O282 1.247 . S
C280 O284 1.258 . S
C281 O288 1.247 . S
C281 O289 1.258 . S
O282 C280 1.247 . S
O282 Zn283 2.028 . S
Zn283 O282 2.028 . S
Zn283 O287 2.035 . S
Zn283 O289 2.035 . S
Zn283 O290 2.028 . S
O284 C280 1.258 . S
O284 Zn285 2.035 . S
Zn285 O284 2.035 . S
Zn285 O286 2.028 . S
Zn285 O288 2.028 . S
Zn285 O291 2.035 . S
O286 Zn285 2.028 . S
O286 C292 1.247 . S
O287 Zn283 2.035 . S
O287 C292 1.258 . S
O288 C281 1.247 . S
O288 Zn285 2.028 . S
O289 C281 1.258 . S
O289 Zn283 2.035 . S
O290 Zn283 2.028 . S
O290 C293 1.247 . S
O291 Zn285 2.035 . S
O291 C293 1.258 . S
C292 O286 1.247 . S
C292 O287 1.258 . S
C293 O290 1.247 . S
C293 O291 1.258 . S
C294 O296 1.247 . S
C294 O298 1.258 . S
C295 O302 1.247 . S
C295 O303 1.258 . S
O296 C294 1.247 . S
O296 Zn297 2.028 . S
Zn297 O296 2.028 . S
Zn297 O301 2.035 . S
Zn297 O303 2.035 . S
Zn297 O304 2.028 . S
O298 C294 1.258 . S
O298 Zn299 2.035 . S
Zn299 O298 2.035 . S
Zn299 O300 2.028 . S
Zn299 O302 2.028 . S
Zn299 O305 2.035 . S
O300 Zn299 2.028 . S
O300 C306 1.247 . S
O301 Zn297 2.035 . S
O301 C306 1.258 . S
O302 C295 1.247 . S
O302 Zn299 2.028 . S
O303 C295 1.258 . S
O303 Zn297 2.035 . S
O304 Zn297 2.028 . S
O304 C307 1.247 . S
O305 Zn299 2.035 . S
O305 C307 1.258 . S
C306 O300 1.247 . S
C306 O301 1.258 . S
C307 O304 1.247 . S
C307 O305 1.258 . S
C308 O310 1.247 . S
C308 O312 1.258 . S
C309 O316 1.247 . S
C309 O317 1.258 . S
O310 C308 1.247 . S
O310 Zn311 2.028 . S
Zn311 O310 2.028 . S
Zn311 O315 2.035 . S
Zn311 O317 2.035 . S
Zn311 O318 2.028 . S
O312 C308 1.258 . S
O312 Zn313 2.035 . S
Zn313 O312 2.035 . S
Zn313 O314 2.028 . S
Zn313 O316 2.028 . S
Zn313 O319 2.035 . S
O314 Zn313 2.028 . S
O314 C320 1.247 . S
O315 Zn311 2.035 . S
O315 C320 1.258 . S
O316 C309 1.247 . S
O316 Zn313 2.028 . S
O317 C309 1.258 . S
O317 Zn311 2.035 . S
O318 Zn311 2.028 . S
O318 C321 1.247 . S
O319 Zn313 2.035 . S
O319 C321 1.258 . S
C320 O314 1.247 . S
C320 O315 1.258 . S
C321 O318 1.247 . S
C321 O319 1.258 . S
C322 O324 1.247 . S
C322 O326 1.258 . S
C323 O330 1.247 . S
C323 O331 1.258 . S
O324 C322 1.247 . S
O324 Zn325 2.028 . S
Zn325 O324 2.028 . S
Zn325 O329 2.035 . S
Zn325 O331 2.035 . S
Zn325 O332 2.028 . S
O326 C322 1.258 . S
O326 Zn327 2.035 . S
Zn327 O326 2.035 . S
Zn327 O328 2.028 . S
Zn327 O330 2.028 . S
Zn327 O333 2.035 . S
O328 Zn327 2.028 . S
O328 C334 1.247 . S
O329 Zn325 2.035 . S
O329 C334 1.258 . S
O330 C323 1.247 . S
O330 Zn327 2.028 . S
O331 C323 1.258 . S
O331 Zn325 2.035 . S
O332 Zn325 2.028 . S
O332 C335 1.247 . S
O333 Zn327 2.035 . S
O333 C335 1.258 . S
C334 O328 1.247 . S
C334 O329 1.258 . S
C335 O332 1.247 . S
C335 O333 1.258 . S
C336 O338 1.247 1_455 S
C336 O340 1.271 . S
C337 O344 1.247 . S
C337 O345 1.258 . S
O338 C336 1.247 1_655 S
O338 Zn339 2.028 . S
Zn339 O338 2.028 . S
Zn339 O343 2.035 . S
Zn339 O345 2.035 . S
Zn339 O346 2.028 . S
O340 C336 1.271 . S
O340 Zn341 1.995 1_455 S
Zn341 O340 1.995 1_655 S
Zn341 O342 2.028 . S
Zn341 O344 2.028 . S
Zn341 O347 2.035 . S
O342 Zn341 2.028 . S
O342 C348 1.247 . S
O343 Zn339 2.035 . S
O343 C348 1.258 . S
O344 C337 1.247 . S
O344 Zn341 2.028 . S
O345 C337 1.258 . S
O345 Zn339 2.035 . S
O346 Zn339 2.028 . S
O346 C349 1.247 . S
O347 Zn341 2.035 . S
O347 C349 1.258 . S
C348 O342 1.247 . S
C348 O343 1.258 . S
C349 O346 1.247 . S
C349 O347 1.258 . S
C350 O352 1.247 . S
C350 O354 1.258 . S
C351 O358 1.247 . S
C351 O359 1.258 . S
O352 C350 1.247 . S
O352 Zn353 2.028 . S
Zn353 O352 2.028 . S
Zn353 O357 2.035 . S
Zn353 O359 2.035 . S
Zn353 O360 2.028 . S
O354 C350 1.258 . S
O354 Zn355 2.035 . S
Zn355 O354 2.035 . S
Zn355 O356 2.028 . S
Zn355 O358 2.028 . S
Zn355 O361 2.035 . S
O356 Zn355 2.028 . S
O356 C362 1.247 . S
O357 Zn353 2.035 . S
O357 C362 1.258 . S
O358 C351 1.247 . S
O358 Zn355 2.028 . S
O359 C351 1.258 . S
O359 Zn353 2.035 . S
O360 Zn353 2.028 . S
O360 C363 1.247 . S
O361 Zn355 2.035 . S
O361 C363 1.258 . S
C362 O356 1.247 . S
C362 O357 1.258 . S
C363 O360 1.247 . S
C363 O361 1.258 . S
C364 O366 1.247 . S
C364 O368 1.258 . S
C365 O372 1.247 . S
C365 O373 1.258 . S
O366 C364 1.247 . S
O366 Zn367 2.028 . S
Zn367 O366 2.028 . S
Zn367 O371 2.035 . S
Zn367 O373 2.035 . S
Zn367 O374 2.028 . S
O368 C364 1.258 . S
O368 Zn369 2.035 . S
Zn369 O368 2.035 . S
Zn369 O370 2.028 . S
Zn369 O372 2.028 . S
Zn369 O375 2.035 . S
O370 Zn369 2.028 . S
O370 C376 1.247 . S
O371 Zn367 2.035 . S
O371 C376 1.258 . S
O372 C365 1.247 . S
O372 Zn369 2.028 . S
O373 C365 1.258 . S
O373 Zn367 2.035 . S
O374 Zn367 2.028 . S
O374 C377 1.247 . S
O375 Zn369 2.035 . S
O375 C377 1.258 . S
C376 O370 1.247 . S
C376 O371 1.258 . S
C377 O374 1.247 . S
C377 O375 1.258 . S
C378 O380 1.247 . S
C378 O382 1.258 . S
C379 O386 1.247 . S
C379 O387 1.258 . S
O380 C378 1.247 . S
O380 Zn381 2.028 . S
Zn381 O380 2.028 . S
Zn381 O385 2.035 . S
Zn381 O387 2.035 . S
Zn381 O388 2.028 . S
O382 C378 1.258 . S
O382 Zn383 2.035 . S
Zn383 O382 2.035 . S
Zn383 O384 2.028 . S
Zn383 O386 2.028 . S
Zn383 O389 2.035 . S
O384 Zn383 2.028 . S
O384 C390 1.247 . S
O385 Zn381 2.035 . S
O385 C390 1.258 . S
O386 C379 1.247 . S
O386 Zn383 2.028 . S
O387 C379 1.258 . S
O387 Zn381 2.035 . S
O388 Zn381 2.028 . S
O388 C391 1.247 . S
O389 Zn383 2.035 . S
O389 C391 1.258 . S
C390 O384 1.247 . S
C390 O385 1.258 . S
C391 O388 1.247 . S
C391 O389 1.258 . S
C392 O394 1.247 1_455 S
C392 O396 1.271 . S
C393 O400 1.247 . S
C393 O401 1.258 . S
O394 C392 1.247 1_655 S
O394 Zn395 2.028 . S
Zn395 O394 2.028 . S
Zn395 O399 2.035 . S
Zn395 O401 2.035 . S
Zn395 O402 2.028 . S
O396 C392 1.271 . S
O396 Zn397 1.995 1_455 S
Zn397 O396 1.995 1_655 S
Zn397 O398 2.028 . S
Zn397 O400 2.028 . S
Zn397 O403 2.035 . S
O398 Zn397 2.028 . S
O398 C404 1.247 . S
O399 Zn395 2.035 . S
O399 C404 1.258 . S
O400 C393 1.247 . S
O400 Zn397 2.028 . S
O401 C393 1.258 . S
O401 Zn395 2.035 . S
O402 Zn395 2.028 . S
O402 C405 1.247 . S
O403 Zn397 2.035 . S
O403 C405 1.258 . S
C404 O398 1.247 . S
C404 O399 1.258 . S
C405 O402 1.247 . S
C405 O403 1.258 . S
C406 O408 1.247 . S
C406 O410 1.258 . S
C407 O414 1.247 . S
C407 O415 1.258 . S
O408 C406 1.247 . S
O408 Zn409 2.028 . S
Zn409 O408 2.028 . S
Zn409 O413 2.035 . S
Zn409 O415 2.035 . S
Zn409 O416 2.028 . S
O410 C406 1.258 . S
O410 Zn411 2.035 . S
Zn411 O410 2.035 . S
Zn411 O412 2.028 . S
Zn411 O414 2.028 . S
Zn411 O417 2.035 . S
O412 Zn411 2.028 . S
O412 C418 1.247 . S
O413 Zn409 2.035 . S
O413 C418 1.258 . S
O414 C407 1.247 . S
O414 Zn411 2.028 . S
O415 C407 1.258 . S
O415 Zn409 2.035 . S
O416 Zn409 2.028 . S
O416 C419 1.247 . S
O417 Zn411 2.035 . S
O417 C419 1.258 . S
C418 O412 1.247 . S
C418 O413 1.258 . S
C419 O416 1.247 . S
C419 O417 1.258 . S
C420 O422 1.247 . S
C420 O424 1.258 . S
C421 O428 1.247 . S
C421 O429 1.258 . S
O422 C420 1.247 . S
O422 Zn423 2.028 . S
Zn423 O422 2.028 . S
Zn423 O427 2.035 . S
Zn423 O429 2.035 . S
Zn423 O430 2.028 . S
O424 C420 1.258 . S
O424 Zn425 2.035 . S
Zn425 O424 2.035 . S
Zn425 O426 2.028 . S
Zn425 O428 2.028 . S
Zn425 O431 2.035 . S
O426 Zn425 2.028 . S
O426 C432 1.247 . S
O427 Zn423 2.035 . S
O427 C432 1.258 . S
O428 C421 1.247 . S
O428 Zn425 2.028 . S
O429 C421 1.258 . S
O429 Zn423 2.035 . S
O430 Zn423 2.028 . S
O430 C433 1.247 . S
O431 Zn425 2.035 . S
O431 C433 1.258 . S
C432 O426 1.247 . S
C432 O427 1.258 . S
C433 O430 1.247 . S
C433 O431 1.258 . S
C434 O436 1.247 . S
C434 O438 1.258 . S
C435 O442 1.247 . S
C435 O443 1.258 . S
O436 C434 1.247 . S
O436 Zn437 2.028 . S
Zn437 O436 2.028 . S
Zn437 O441 2.035 . S
Zn437 O443 2.035 . S
Zn437 O444 2.028 . S
O438 C434 1.258 . S
O438 Zn439 2.035 . S
Zn439 O438 2.035 . S
Zn439 O440 2.028 . S
Zn439 O442 2.028 . S
Zn439 O445 2.035 . S
O440 Zn439 2.028 . S
O440 C446 1.247 . S
O441 Zn437 2.035 . S
O441 C446 1.258 . S
O442 C435 1.247 . S
O442 Zn439 2.028 . S
O443 C435 1.258 . S
O443 Zn437 2.035 . S
O444 Zn437 2.028 . S
O444 C447 1.247 . S
O445 Zn439 2.035 . S
O445 C447 1.258 . S
C446 O440 1.247 . S
C446 O441 1.258 . S
C447 O444 1.247 . S
C447 O445 1.258 . S
C448 O450 1.247 . S
C448 O452 1.258 . S
C449 O456 1.247 . S
C449 O457 1.258 . S
O450 C448 1.247 . S
O450 Zn451 2.028 . S
Zn451 O450 2.028 . S
Zn451 O455 1.995 1_565 S
Zn451 O457 2.035 . S
Zn451 O458 2.028 . S
O452 C448 1.258 . S
O452 Zn453 2.035 . S
Zn453 O452 2.035 . S
Zn453 O454 2.028 . S
Zn453 O456 2.028 . S
Zn453 O459 2.035 . S
O454 Zn453 2.028 . S
O454 C460 1.247 1_565 S
O455 Zn451 1.995 1_545 S
O455 C460 1.271 . S
O456 C449 1.247 . S
O456 Zn453 2.028 . S
O457 C449 1.258 . S
O457 Zn451 2.035 . S
O458 Zn451 2.028 . S
O458 C461 1.247 . S
O459 Zn453 2.035 . S
O459 C461 1.258 . S
C460 O454 1.247 1_545 S
C460 O455 1.271 . S
C461 O458 1.247 . S
C461 O459 1.258 . S
C462 O464 1.247 . S
C462 O466 1.258 . S
C463 O470 1.247 . S
C463 O471 1.258 . S
O464 C462 1.247 . S
O464 Zn465 2.028 . S
Zn465 O464 2.028 . S
Zn465 O469 2.035 . S
Zn465 O471 2.035 . S
Zn465 O472 2.028 . S
O466 C462 1.258 . S
O466 Zn467 2.035 . S
Zn467 O466 2.035 . S
Zn467 O468 2.028 . S
Zn467 O470 2.028 . S
Zn467 O473 2.035 . S
O468 Zn467 2.028 . S
O468 C474 1.247 . S
O469 Zn465 2.035 . S
O469 C474 1.258 . S
O470 C463 1.247 . S
O470 Zn467 2.028 . S
O471 C463 1.258 . S
O471 Zn465 2.035 . S
O472 Zn465 2.028 . S
O472 C475 1.247 . S
O473 Zn467 2.035 . S
O473 C475 1.258 . S
C474 O468 1.247 . S
C474 O469 1.258 . S
C475 O472 1.247 . S
C475 O473 1.258 . S
C476 O478 1.247 . S
C476 O480 1.258 . S
C477 O484 1.261 . S
C477 O485 1.258 1_565 S
O478 C476 1.247 . S
O478 Zn479 2.028 . S
Zn479 O478 2.028 . S
Zn479 O483 2.035 . S
Zn479 O485 2.035 . S
Zn479 O486 2.028 . S
O480 C476 1.258 . S
O480 Zn481 2.035 . S
Zn481 O480 2.035 . S
Zn481 O482 2.028 . S
Zn481 O484 1.986 1_545 S
Zn481 O487 2.035 . S
O482 Zn481 2.028 . S
O482 C488 1.247 . S
O483 Zn479 2.035 . S
O483 C488 1.258 . S
O484 C477 1.261 . S
O484 Zn481 1.986 1_565 S
O485 C477 1.258 1_545 S
O485 Zn479 2.035 . S
O486 Zn479 2.028 . S
O486 C489 1.247 . S
O487 Zn481 2.035 . S
O487 C489 1.258 . S
C488 O482 1.247 . S
C488 O483 1.258 . S
C489 O486 1.247 . S
C489 O487 1.258 . S
C490 O492 1.247 . S
C490 O494 1.258 . S
C491 O498 1.247 . S
C491 O499 1.258 . S
O492 C490 1.247 . S
O492 Zn493 2.028 . S
Zn493 O492 2.028 . S
Zn493 O497 2.035 . S
Zn493 O499 2.035 . S
Zn493 O500 2.028 . S
O494 C490 1.258 . S
O494 Zn495 2.035 . S
Zn495 O494 2.035 . S
Zn495 O496 2.028 . S
Zn495 O498 2.028 . S
Zn495 O501 2.035 . S
O496 Zn495 2.028 . S
O496 C502 1.247 . S
O497 Zn493 2.035 . S
O497 C502 1.258 . S
O498 C491 1.247 . S
O498 Zn495 2.028 . S
O499 C491 1.258 . S
O499 Zn493 2.035 . S
O500 Zn493 2.028 . S
O500 C503 1.247 . S
O501 Zn495 2.035 . S
O501 C503 1.258 . S
C502 O496 1.247 . S
C502 O497 1.258 . S
C503 O500 1.247 . S
C503 O501 1.258 . S
C504 O506 1.247 . S
C504 O508 1.258 . S
C505 O512 1.247 . S
C505 O513 1.258 . S
O506 C504 1.247 . S
O506 Zn507 2.028 . S
Zn507 O506 2.028 . S
Zn507 O511 1.995 1_545 S
Zn507 O513 2.035 . S
Zn507 O514 2.028 . S
O508 C504 1.258 . S
O508 Zn509 2.035 . S
Zn509 O508 2.035 . S
Zn509 O510 2.028 . S
Zn509 O512 2.028 . S
Zn509 O515 2.035 . S
O510 Zn509 2.028 . S
O510 C516 1.247 1_545 S
O511 Zn507 1.995 1_565 S
O511 C516 1.271 . S
O512 C505 1.247 . S
O512 Zn509 2.028 . S
O513 C505 1.258 . S
O513 Zn507 2.035 . S
O514 Zn507 2.028 . S
O514 C517 1.247 . S
O515 Zn509 2.035 . S
O515 C517 1.258 . S
C516 O510 1.247 1_565 S
C516 O511 1.271 . S
C517 O514 1.247 . S
C517 O515 1.258 . S
C518 O520 1.247 . S
C518 O522 1.258 . S
C519 O526 1.247 . S
C519 O527 1.258 . S
O520 C518 1.247 . S
O520 Zn521 2.028 . S
Zn521 O520 2.028 . S
Zn521 O525 2.035 . S
Zn521 O527 2.035 . S
Zn521 O528 2.028 . S
O522 C518 1.258 . S
O522 Zn523 2.035 . S
Zn523 O522 2.035 . S
Zn523 O524 2.028 . S
Zn523 O526 2.028 . S
Zn523 O529 2.035 . S
O524 Zn523 2.028 . S
O524 C530 1.247 . S
O525 Zn521 2.035 . S
O525 C530 1.258 . S
O526 C519 1.247 . S
O526 Zn523 2.028 . S
O527 C519 1.258 . S
O527 Zn521 2.035 . S
O528 Zn521 2.028 . S
O528 C531 1.247 . S
O529 Zn523 2.035 . S
O529 C531 1.258 . S
C530 O524 1.247 . S
C530 O525 1.258 . S
C531 O528 1.247 . S
C531 O529 1.258 . S
C532 O534 1.247 . S
C532 O536 1.258 . S
C533 O540 1.247 . S
C533 O541 1.258 . S
O534 C532 1.247 . S
O534 Zn535 2.028 . S
Zn535 O534 2.028 . S
Zn535 O539 1.995 1_565 S
Zn535 O541 2.035 . S
Zn535 O542 2.028 . S
O536 C532 1.258 . S
O536 Zn537 2.035 . S
Zn537 O536 2.035 . S
Zn537 O538 2.028 . S
Zn537 O540 2.028 . S
Zn537 O543 2.035 . S
O538 Zn537 2.028 . S
O538 C544 1.247 1_565 S
O539 Zn535 1.995 1_545 S
O539 C544 1.271 . S
O540 C533 1.247 . S
O540 Zn537 2.028 . S
O541 C533 1.258 . S
O541 Zn535 2.035 . S
O542 Zn535 2.028 . S
O542 C545 1.247 . S
O543 Zn537 2.035 . S
O543 C545 1.258 . S
C544 O538 1.247 1_545 S
C544 O539 1.271 . S
C545 O542 1.247 . S
C545 O543 1.258 . S
C546 O548 1.247 . S
C546 O550 1.258 . S
C547 O554 1.247 . S
C547 O555 1.258 . S
O548 C546 1.247 . S
O548 Zn549 2.028 . S
Zn549 O548 2.028 . S
Zn549 O553 2.035 . S
Zn549 O555 2.035 . S
Zn549 O556 2.028 . S
O550 C546 1.258 . S
O550 Zn551 2.035 . S
Zn551 O550 2.035 . S
Zn551 O552 2.028 . S
Zn551 O554 2.028 . S
Zn551 O557 2.035 . S
O552 Zn551 2.028 . S
O552 C558 1.247 . S
O553 Zn549 2.035 . S
O553 C558 1.258 . S
O554 C547 1.247 . S
O554 Zn551 2.028 . S
O555 C547 1.258 . S
O555 Zn549 2.035 . S
O556 Zn549 2.028 . S
O556 C559 1.247 . S
O557 Zn551 2.035 . S
O557 C559 1.258 . S
C558 O552 1.247 . S
C558 O553 1.258 . S
C559 O556 1.247 . S
C559 O557 1.258 . S
C560 O562 1.247 1_554 S
C560 O564 1.271 . S
C561 O568 1.247 . S
C561 O569 1.258 . S
O562 C560 1.247 1_556 S
O562 Zn563 2.028 . S
Zn563 O562 2.028 . S
Zn563 O567 2.035 . S
Zn563 O569 2.035 . S
Zn563 O570 2.028 . S
O564 C560 1.271 . S
O564 Zn565 1.995 1_554 S
Zn565 O564 1.995 1_556 S
Zn565 O566 2.028 . S
Zn565 O568 2.028 . S
Zn565 O571 2.035 . S
O566 Zn565 2.028 . S
O566 C572 1.247 . S
O567 Zn563 2.035 . S
O567 C572 1.258 . S
O568 C561 1.247 . S
O568 Zn565 2.028 . S
O569 C561 1.258 . S
O569 Zn563 2.035 . S
O570 Zn563 2.028 . S
O570 C573 1.247 . S
O571 Zn565 2.035 . S
O571 C573 1.258 . S
C572 O566 1.247 . S
C572 O567 1.258 . S
C573 O570 1.247 . S
C573 O571 1.258 . S
C574 O576 1.247 1_556 S
C574 O578 1.271 . S
C575 O582 1.247 . S
C575 O583 1.258 . S
O576 C574 1.247 1_554 S
O576 Zn577 2.028 . S
Zn577 O576 2.028 . S
Zn577 O581 2.035 . S
Zn577 O583 2.035 . S
Zn577 O584 2.028 . S
O578 C574 1.271 . S
O578 Zn579 1.995 1_556 S
Zn579 O578 1.995 1_554 S
Zn579 O580 2.028 . S
Zn579 O582 2.028 . S
Zn579 O585 2.035 . S
O580 Zn579 2.028 . S
O580 C586 1.247 . S
O581 Zn577 2.035 . S
O581 C586 1.258 . S
O582 C575 1.247 . S
O582 Zn579 2.028 . S
O583 C575 1.258 . S
O583 Zn577 2.035 . S
O584 Zn577 2.028 . S
O584 C587 1.247 . S
O585 Zn579 2.035 . S
O585 C587 1.258 . S
C586 O580 1.247 . S
C586 O581 1.258 . S
C587 O584 1.247 . S
C587 O585 1.258 . S
C588 O590 1.247 . S
C588 O592 1.258 . S
C589 O596 1.247 . S
C589 O597 1.258 . S
O590 C588 1.247 . S
O590 Zn591 2.028 . S
Zn591 O590 2.028 . S
Zn591 O595 2.035 . S
Zn591 O597 2.035 . S
Zn591 O598 2.028 . S
O592 C588 1.258 . S
O592 Zn593 2.035 . S
Zn593 O592 2.035 . S
Zn593 O594 2.028 . S
Zn593 O596 2.028 . S
Zn593 O599 2.035 . S
O594 Zn593 2.028 . S
O594 C600 1.247 . S
O595 Zn591 2.035 . S
O595 C600 1.258 . S
O596 C589 1.247 . S
O596 Zn593 2.028 . S
O597 C589 1.258 . S
O597 Zn591 2.035 . S
O598 Zn591 2.028 . S
O598 C601 1.247 . S
O599 Zn593 2.035 . S
O599 C601 1.258 . S
C600 O594 1.247 . S
C600 O595 1.258 . S
C601 O598 1.247 . S
C601 O599 1.258 . S
C602 O604 1.247 . S
C602 O606 1.258 . S
C603 O610 1.247 . S
C603 O611 1.258 . S
O604 C602 1.247 . S
O604 Zn605 2.028 . S
Zn605 O604 2.028 . S
Zn605 O609 2.035 . S
Zn605 O611 2.035 . S
Zn605 O612 2.028 . S
O606 C602 1.258 . S
O606 Zn607 2.035 . S
Zn607 O606 2.035 . S
Zn607 O608 2.028 . S
Zn607 O610 2.028 . S
Zn607 O613 2.035 . S
O608 Zn607 2.028 . S
O608 C614 1.247 . S
O609 Zn605 2.035 . S
O609 C614 1.258 . S
O610 C603 1.247 . S
O610 Zn607 2.028 . S
O611 C603 1.258 . S
O611 Zn605 2.035 . S
O612 Zn605 2.028 . S
O612 C615 1.247 . S
O613 Zn607 2.035 . S
O613 C615 1.258 . S
C614 O608 1.247 . S
C614 O609 1.258 . S
C615 O612 1.247 . S
C615 O613 1.258 . S
C616 O618 1.247 . S
C616 O620 1.258 . S
C617 O624 1.247 . S
C617 O625 1.258 . S
O618 C616 1.247 . S
O618 Zn619 2.028 . S
Zn619 O618 2.028 . S
Zn619 O623 2.035 . S
Zn619 O625 2.035 . S
Zn619 O626 2.028 . S
O620 C616 1.258 . S
O620 Zn621 2.035 . S
Zn621 O620 2.035 . S
Zn621 O622 2.028 . S
Zn621 O624 2.028 . S
Zn621 O627 2.035 . S
O622 Zn621 2.028 . S
O622 C628 1.247 . S
O623 Zn619 2.035 . S
O623 C628 1.258 . S
O624 C617 1.247 . S
O624 Zn621 2.028 . S
O625 C617 1.258 . S
O625 Zn619 2.035 . S
O626 Zn619 2.028 . S
O626 C629 1.247 . S
O627 Zn621 2.035 . S
O627 C629 1.258 . S
C628 O622 1.247 . S
C628 O623 1.258 . S
C629 O626 1.247 . S
C629 O627 1.258 . S
C630 O632 1.247 . S
C630 O634 1.258 . S
C631 O638 1.247 . S
C631 O639 1.258 . S
O632 C630 1.247 . S
O632 Zn633 2.028 . S
Zn633 O632 2.028 . S
Zn633 O637 2.035 . S
Zn633 O639 2.035 . S
Zn633 O640 2.028 . S
O634 C630 1.258 . S
O634 Zn635 2.035 . S
Zn635 O634 2.035 . S
Zn635 O636 2.028 . S
Zn635 O638 2.028 . S
Zn635 O641 2.035 . S
O636 Zn635 2.028 . S
O636 C642 1.247 . S
O637 Zn633 2.035 . S
O637 C642 1.258 . S
O638 C631 1.247 . S
O638 Zn635 2.028 . S
O639 C631 1.258 . S
O639 Zn633 2.035 . S
O640 Zn633 2.028 . S
O640 C643 1.247 . S
O641 Zn635 2.035 . S
O641 C643 1.258 . S
C642 O636 1.247 . S
C642 O637 1.258 . S
C643 O640 1.247 . S
C643 O641 1.258 . S
C644 O646 1.247 . S
C644 O648 1.258 . S
C645 O652 1.247 . S
C645 O653 1.258 . S
O646 C644 1.247 . S
O646 Zn647 2.028 . S
Zn647 O646 2.028 . S
Zn647 O651 2.035 . S
Zn647 O653 2.035 . S
Zn647 O654 2.028 . S
O648 C644 1.258 . S
O648 Zn649 2.035 . S
Zn649 O648 2.035 . S
Zn649 O650 2.028 . S
Zn649 O652 2.028 . S
Zn649 O655 2.035 . S
O650 Zn649 2.028 . S
O650 C656 1.247 . S
O651 Zn647 2.035 . S
O651 C656 1.258 . S
O652 C645 1.247 . S
O652 Zn649 2.028 . S
O653 C645 1.258 . S
O653 Zn647 2.035 . S
O654 Zn647 2.028 . S
O654 C657 1.247 . S
O655 Zn649 2.035 . S
O655 C657 1.258 . S
C656 O650 1.247 . S
C656 O651 1.258 . S
C657 O654 1.247 . S
C657 O655 1.258 . S
C658 O660 1.247 . S
C658 O662 1.258 . S
C659 O666 1.247 . S
C659 O667 1.258 . S
O660 C658 1.247 . S
O660 Zn661 2.028 . S
Zn661 O660 2.028 . S
Zn661 O665 2.035 . S
Zn661 O667 2.035 . S
Zn661 O668 2.028 . S
O662 C658 1.258 . S
O662 Zn663 2.035 . S
Zn663 O662 2.035 . S
Zn663 O664 2.028 . S
Zn663 O666 2.028 . S
Zn663 O669 2.035 . S
O664 Zn663 2.028 . S
O664 C670 1.247 . S
O665 Zn661 2.035 . S
O665 C670 1.258 . S
O666 C659 1.247 . S
O666 Zn663 2.028 . S
O667 C659 1.258 . S
O667 Zn661 2.035 . S
O668 Zn661 2.028 . S
O668 C671 1.247 . S
O669 Zn663 2.035 . S
O669 C671 1.258 . S
C670 O664 1.247 . S
C670 O665 1.258 . S
C671 O668 1.247 . S
C671 O669 1.258 . S
C672 O674 1.247 . S
C672 O676 1.258 . S
C673 O680 1.247 . S
C673 O681 1.258 . S
O674 C672 1.247 . S
O674 Zn675 2.028 . S
Zn675 O674 2.028 . S
Zn675 O679 2.035 . S
Zn675 O681 2.035 . S
Zn675 O682 2.028 . S
O676 C672 1.258 . S
O676 Zn677 2.035 . S
Zn677 O676 2.035 . S
Zn677 O678 2.028 . S
Zn677 O680 2.028 . S
Zn677 O683 2.035 . S
O678 Zn677 2.028 . S
O678 C684 1.247 . S
O679 Zn675 2.035 . S
O679 C684 1.258 . S
O680 C673 1.247 . S
O680 Zn677 2.028 . S
O681 C673 1.258 . S
O681 Zn675 2.035 . S
O682 Zn675 2.028 . S
O682 C685 1.247 . S
O683 Zn677 2.035 . S
O683 C685 1.258 . S
C684 O678 1.247 . S
C684 O679 1.258 . S
C685 O682 1.247 . S
C685 O683 1.258 . S
C686 O688 1.247 . S
C686 O690 1.258 . S
C687 O694 1.247 . S
C687 O695 1.258 . S
O688 C686 1.247 . S
O688 Zn689 2.028 . S
Zn689 O688 2.028 . S
Zn689 O693 2.035 . S
Zn689 O695 2.035 . S
Zn689 O696 2.028 . S
O690 C686 1.258 . S
O690 Zn691 2.035 . S
Zn691 O690 2.035 . S
Zn691 O692 2.028 . S
Zn691 O694 2.028 . S
Zn691 O697 2.035 . S
O692 Zn691 2.028 . S
O692 C698 1.247 . S
O693 Zn689 2.035 . S
O693 C698 1.258 . S
O694 C687 1.247 . S
O694 Zn691 2.028 . S
O695 C687 1.258 . S
O695 Zn689 2.035 . S
O696 Zn689 2.028 . S
O696 C699 1.247 . S
O697 Zn691 2.035 . S
O697 C699 1.258 . S
C698 O692 1.247 . S
C698 O693 1.258 . S
C699 O696 1.247 . S
C699 O697 1.258 . S
C700 O702 1.261 . S
C700 O704 1.258 1_455 S
C701 O708 1.247 . S
C701 O709 1.258 . S
O702 C700 1.261 . S
O702 Zn703 1.986 1_455 S
Zn703 O702 1.986 1_655 S
Zn703 O707 2.035 . S
Zn703 O709 2.035 . S
Zn703 O710 2.028 . S
O704 C700 1.258 1_655 S
O704 Zn705 2.035 . S
Zn705 O704 2.035 . S
Zn705 O706 2.028 . S
Zn705 O708 2.028 . S
Zn705 O711 2.035 . S
O706 Zn705 2.028 . S
O706 C712 1.247 . S
O707 Zn703 2.035 . S
O707 C712 1.258 . S
O708 C701 1.247 . S
O708 Zn705 2.028 . S
O709 C701 1.258 . S
O709 Zn703 2.035 . S
O710 Zn703 2.028 . S
O710 C713 1.247 . S
O711 Zn705 2.035 . S
O711 C713 1.258 . S
C712 O706 1.247 . S
C712 O707 1.258 . S
C713 O710 1.247 . S
C713 O711 1.258 . S
C714 O716 1.247 . S
C714 O718 1.258 . S
C715 O722 1.247 . S
C715 O723 1.258 . S
O716 C714 1.247 . S
O716 Zn717 2.028 . S
Zn717 O716 2.028 . S
Zn717 O721 2.035 . S
Zn717 O723 2.035 . S
Zn717 O724 2.028 . S
O718 C714 1.258 . S
O718 Zn719 2.035 . S
Zn719 O718 2.035 . S
Zn719 O720 2.028 . S
Zn719 O722 2.028 . S
Zn719 O725 2.035 . S
O720 Zn719 2.028 . S
O720 C726 1.247 . S
O721 Zn717 2.035 . S
O721 C726 1.258 . S
O722 C715 1.247 . S
O722 Zn719 2.028 . S
O723 C715 1.258 . S
O723 Zn717 2.035 . S
O724 Zn717 2.028 . S
O724 C727 1.247 . S
O725 Zn719 2.035 . S
O725 C727 1.258 . S
C726 O720 1.247 . S
C726 O721 1.258 . S
C727 O724 1.247 . S
C727 O725 1.258 . S
C728 O730 1.247 . S
C728 O732 1.258 . S
C729 O736 1.247 . S
C729 O737 1.258 . S
O730 C728 1.247 . S
O730 Zn731 2.028 . S
Zn731 O730 2.028 . S
Zn731 O735 2.035 . S
Zn731 O737 2.035 . S
Zn731 O738 2.028 . S
O732 C728 1.258 . S
O732 Zn733 2.035 . S
Zn733 O732 2.035 . S
Zn733 O734 2.028 . S
Zn733 O736 2.028 . S
Zn733 O739 2.035 . S
O734 Zn733 2.028 . S
O734 C740 1.247 . S
O735 Zn731 2.035 . S
O735 C740 1.258 . S
O736 C729 1.247 . S
O736 Zn733 2.028 . S
O737 C729 1.258 . S
O737 Zn731 2.035 . S
O738 Zn731 2.028 . S
O738 C741 1.247 . S
O739 Zn733 2.035 . S
O739 C741 1.258 . S
C740 O734 1.247 . S
C740 O735 1.258 . S
C741 O738 1.247 . S
C741 O739 1.258 . S
C742 O744 1.247 . S
C742 O746 1.258 . S
C743 O750 1.247 . S
C743 O751 1.258 . S
O744 C742 1.247 . S
O744 Zn745 2.028 . S
Zn745 O744 2.028 . S
Zn745 O749 2.035 . S
Zn745 O751 2.035 . S
Zn745 O752 2.028 . S
O746 C742 1.258 . S
O746 Zn747 2.035 . S
Zn747 O746 2.035 . S
Zn747 O748 2.028 . S
Zn747 O750 2.028 . S
Zn747 O753 2.035 . S
O748 Zn747 2.028 . S
O748 C754 1.247 . S
O749 Zn745 2.035 . S
O749 C754 1.258 . S
O750 C743 1.247 . S
O750 Zn747 2.028 . S
O751 C743 1.258 . S
O751 Zn745 2.035 . S
O752 Zn745 2.028 . S
O752 C755 1.247 . S
O753 Zn747 2.035 . S
O753 C755 1.258 . S
C754 O748 1.247 . S
C754 O749 1.258 . S
C755 O752 1.247 . S
C755 O753 1.258 . S
C756 O758 1.247 . S
C756 O760 1.258 . S
C757 O764 1.247 1_455 S
C757 O765 1.271 . S
O758 C756 1.247 . S
O758 Zn759 2.028 . S
Zn759 O758 2.028 . S
Zn759 O763 2.035 . S
Zn759 O765 1.995 1_655 S
Zn759 O766 2.028 . S
O760 C756 1.258 . S
O760 Zn761 2.035 . S
Zn761 O760 2.035 . S
Zn761 O762 2.028 . S
Zn761 O764 2.028 . S
Zn761 O767 2.035 . S
O762 Zn761 2.028 . S
O762 C768 1.247 . S
O763 Zn759 2.035 . S
O763 C768 1.258 . S
O764 C757 1.247 1_655 S
O764 Zn761 2.028 . S
O765 C757 1.271 . S
O765 Zn759 1.995 1_455 S
O766 Zn759 2.028 . S
O766 C769 1.247 . S
O767 Zn761 2.035 . S
O767 C769 1.258 . S
C768 O762 1.247 . S
C768 O763 1.258 . S
C769 O766 1.247 . S
C769 O767 1.258 . S
C770 O772 1.247 . S
C770 O774 1.258 . S
C771 O778 1.247 . S
C771 O779 1.258 . S
O772 C770 1.247 . S
O772 Zn773 2.028 . S
Zn773 O772 2.028 . S
Zn773 O777 2.035 . S
Zn773 O779 2.035 . S
Zn773 O780 2.028 . S
O774 C770 1.258 . S
O774 Zn775 2.035 . S
Zn775 O774 2.035 . S
Zn775 O776 2.028 . S
Zn775 O778 2.028 . S
Zn775 O781 2.035 . S
O776 Zn775 2.028 . S
O776 C782 1.247 . S
O777 Zn773 2.035 . S
O777 C782 1.258 . S
O778 C771 1.247 . S
O778 Zn775 2.028 . S
O779 C771 1.258 . S
O779 Zn773 2.035 . S
O780 Zn773 2.028 . S
O780 C783 1.247 . S
O781 Zn775 2.035 . S
O781 C783 1.258 . S
C782 O776 1.247 . S
C782 O777 1.258 . S
C783 O780 1.247 . S
C783 O781 1.258 . S
C784 O786 1.247 . S
C784 O788 1.258 . S
C785 O792 1.247 . S
C785 O793 1.258 . S
O786 C784 1.247 . S
O786 Zn787 2.028 . S
Zn787 O786 2.028 . S
Zn787 O791 2.035 . S
Zn787 O793 2.035 . S
Zn787 O794 2.028 . S
O788 C784 1.258 . S
O788 Zn789 2.035 . S
Zn789 O788 2.035 . S
Zn789 O790 2.028 . S
Zn789 O792 2.028 . S
Zn789 O795 2.035 . S
O790 Zn789 2.028 . S
O790 C796 1.247 . S
O791 Zn787 2.035 . S
O791 C796 1.258 . S
O792 C785 1.247 . S
O792 Zn789 2.028 . S
O793 C785 1.258 . S
O793 Zn787 2.035 . S
O794 Zn787 2.028 . S
O794 C797 1.247 . S
O795 Zn789 2.035 . S
O795 C797 1.258 . S
C796 O790 1.247 . S
C796 O791 1.258 . S
C797 O794 1.247 . S
C797 O795 1.258 . S
C798 O800 1.247 . S
C798 O802 1.258 . S
C799 O806 1.247 . S
C799 O807 1.258 . S
O800 C798 1.247 . S
O800 Zn801 2.028 . S
Zn801 O800 2.028 . S
Zn801 O805 2.035 . S
Zn801 O807 2.035 . S
Zn801 O808 2.028 . S
O802 C798 1.258 . S
O802 Zn803 2.035 . S
Zn803 O802 2.035 . S
Zn803 O804 2.028 . S
Zn803 O806 2.028 . S
Zn803 O809 2.035 . S
O804 Zn803 2.028 . S
O804 C810 1.247 . S
O805 Zn801 2.035 . S
O805 C810 1.258 . S
O806 C799 1.247 . S
O806 Zn803 2.028 . S
O807 C799 1.258 . S
O807 Zn801 2.035 . S
O808 Zn801 2.028 . S
O808 C811 1.247 . S
O809 Zn803 2.035 . S
O809 C811 1.258 . S
C810 O804 1.247 . S
C810 O805 1.258 . S
C811 O808 1.247 . S
C811 O809 1.258 . S
C812 O814 1.247 . S
C812 O816 1.258 . S
C813 O820 1.247 . S
C813 O821 1.258 . S
O814 C812 1.247 . S
O814 Zn815 2.028 . S
Zn815 O814 2.028 . S
Zn815 O819 2.035 . S
Zn815 O821 2.035 . S
Zn815 O822 2.028 . S
O816 C812 1.258 . S
O816 Zn817 2.035 . S
Zn817 O816 2.035 . S
Zn817 O818 2.028 . S
Zn817 O820 2.028 . S
Zn817 O823 2.035 . S
O818 Zn817 2.028 . S
O818 C824 1.247 . S
O819 Zn815 2.035 . S
O819 C824 1.258 . S
O820 C813 1.247 . S
O820 Zn817 2.028 . S
O821 C813 1.258 . S
O821 Zn815 2.035 . S
O822 Zn815 2.028 . S
O822 C825 1.247 . S
O823 Zn817 2.035 . S
O823 C825 1.258 . S
C824 O818 1.247 . S
C824 O819 1.258 . S
C825 O822 1.247 . S
C825 O823 1.258 . S
C826 O828 1.247 . S
C826 O830 1.258 . S
C827 O834 1.247 . S
C827 O835 1.258 . S
O828 C826 1.247 . S
O828 Zn829 2.028 . S
Zn829 O828 2.028 . S
Zn829 O833 2.035 . S
Zn829 O835 2.035 . S
Zn829 O836 2.028 . S
O830 C826 1.258 . S
O830 Zn831 2.035 . S
Zn831 O830 2.035 . S
Zn831 O832 2.028 . S
Zn831 O834 2.028 . S
Zn831 O837 2.035 . S
O832 Zn831 2.028 . S
O832 C838 1.247 . S
O833 Zn829 2.035 . S
O833 C838 1.258 . S
O834 C827 1.247 . S
O834 Zn831 2.028 . S
O835 C827 1.258 . S
O835 Zn829 2.035 . S
O836 Zn829 2.028 . S
O836 C839 1.247 . S
O837 Zn831 2.035 . S
O837 C839 1.258 . S
C838 O832 1.247 . S
C838 O833 1.258 . S
C839 O836 1.247 . S
C839 O837 1.258 . S
C840 O842 1.247 . S
C840 O844 1.258 . S
C841 O848 1.247 . S
C841 O849 1.258 . S
O842 C840 1.247 . S
O842 Zn843 2.028 . S
Zn843 O842 2.028 . S
Zn843 O847 2.035 . S
Zn843 O849 2.035 . S
Zn843 O850 2.028 . S
O844 C840 1.258 . S
O844 Zn845 2.035 . S
Zn845 O844 2.035 . S
Zn845 O846 2.028 . S
Zn845 O848 2.028 . S
Zn845 O851 2.035 . S
O846 Zn845 2.028 . S
O846 C852 1.247 . S
O847 Zn843 2.035 . S
O847 C852 1.258 . S
O848 C841 1.247 . S
O848 Zn845 2.028 . S
O849 C841 1.258 . S
O849 Zn843 2.035 . S
O850 Zn843 2.028 . S
O850 C853 1.247 . S
O851 Zn845 2.035 . S
O851 C853 1.258 . S
C852 O846 1.247 . S
C852 O847 1.258 . S
C853 O850 1.247 . S
C853 O851 1.258 . S
C854 O856 1.247 . S
C854 O858 1.258 . S
C855 O862 1.247 . S
C855 O863 1.258 . S
O856 C854 1.247 . S
O856 Zn857 2.028 . S
Zn857 O856 2.028 . S
Zn857 O861 2.035 . S
Zn857 O863 2.035 . S
Zn857 O864 2.028 . S
O858 C854 1.258 . S
O858 Zn859 2.035 . S
Zn859 O858 2.035 . S
Zn859 O860 2.028 . S
Zn859 O862 2.028 . S
Zn859 O865 2.035 . S
O860 Zn859 2.028 . S
O860 C866 1.247 . S
O861 Zn857 2.035 . S
O861 C866 1.258 . S
O862 C855 1.247 . S
O862 Zn859 2.028 . S
O863 C855 1.258 . S
O863 Zn857 2.035 . S
O864 Zn857 2.028 . S
O864 C867 1.247 . S
O865 Zn859 2.035 . S
O865 C867 1.258 . S
C866 O860 1.247 . S
C866 O861 1.258 . S
C867 O864 1.247 . S
C867 O865 1.258 . S
C868 O870 1.247 . S
C868 O872 1.258 . S
C869 O876 1.247 . S
C869 O877 1.258 . S
O870 C868 1.247 . S
O870 Zn871 2.028 . S
Zn871 O870 2.028 . S
Zn871 O875 2.035 . S
Zn871 O877 2.035 . S
Zn871 O878 2.028 . S
O872 C868 1.258 . S
O872 Zn873 2.035 . S
Zn873 O872 2.035 . S
Zn873 O874 2.028 . S
Zn873 O876 2.028 . S
Zn873 O879 2.035 . S
O874 Zn873 2.028 . S
O874 C880 1.247 . S
O875 Zn871 2.035 . S
O875 C880 1.258 . S
O876 C869 1.247 . S
O876 Zn873 2.028 . S
O877 C869 1.258 . S
O877 Zn871 2.035 . S
O878 Zn871 2.028 . S
O878 C881 1.247 . S
O879 Zn873 2.035 . S
O879 C881 1.258 . S
C880 O874 1.247 . S
C880 O875 1.258 . S
C881 O878 1.247 . S
C881 O879 1.258 . S
C882 O884 1.247 . S
C882 O886 1.258 . S
C883 O890 1.247 . S
C883 O891 1.258 . S
O884 C882 1.247 . S
O884 Zn885 2.028 . S
Zn885 O884 2.028 . S
Zn885 O889 2.035 . S
Zn885 O891 2.035 . S
Zn885 O892 2.028 . S
O886 C882 1.258 . S
O886 Zn887 2.035 . S
Zn887 O886 2.035 . S
Zn887 O888 2.028 . S
Zn887 O890 2.028 . S
Zn887 O893 2.035 . S
O888 Zn887 2.028 . S
O888 C894 1.247 . S
O889 Zn885 2.035 . S
O889 C894 1.258 . S
O890 C883 1.247 . S
O890 Zn887 2.028 . S
O891 C883 1.258 . S
O891 Zn885 2.035 . S
O892 Zn885 2.028 . S
O892 C895 1.247 . S
O893 Zn887 2.035 . S
O893 C895 1.258 . S
C894 O888 1.247 . S
C894 O889 1.258 . S
C895 O892 1.247 . S
C895 O893 1.258 . S
C896 O898 1.247 . S
C896 O900 1.258 . S
C897 O904 1.247 . S
C897 O905 1.258 . S
O898 C896 1.247 . S
O898 Zn899 2.028 . S
Zn899 O898 2.028 . S
Zn899 O903 2.035 . S
Zn899 O905 2.035 . S
Zn899 O906 2.028 . S
O900 C896 1.258 . S
O900 Zn901 2.035 . S
Zn901 O900 2.035 . S
Zn901 O902 2.028 . S
Zn901 O904 2.028 . S
Zn901 O907 2.035 . S
O902 Zn901 2.028 . S
O902 C908 1.247 . S
O903 Zn899 2.035 . S
O903 C908 1.258 . S
O904 C897 1.247 . S
O904 Zn901 2.028 . S
O905 C897 1.258 . S
O905 Zn899 2.035 . S
O906 Zn899 2.028 . S
O906 C909 1.247 . S
O907 Zn901 2.035 . S
O907 C909 1.258 . S
C908 O902 1.247 . S
C908 O903 1.258 . S
C909 O906 1.247 . S
C909 O907 1.258 . S
C910 O912 1.247 . S
C910 O914 1.258 . S
C911 O918 1.247 . S
C911 O919 1.258 . S
O912 C910 1.247 . S
O912 Zn913 2.028 . S
Zn913 O912 2.028 . S
Zn913 O917 2.035 . S
Zn913 O919 2.035 . S
Zn913 O920 2.028 . S
O914 C910 1.258 . S
O914 Zn915 2.035 . S
Zn915 O914 2.035 . S
Zn915 O916 2.028 . S
Zn915 O918 2.028 . S
Zn915 O921 2.035 . S
O916 Zn915 2.028 . S
O916 C922 1.247 . S
O917 Zn913 2.035 . S
O917 C922 1.258 . S
O918 C911 1.247 . S
O918 Zn915 2.028 . S
O919 C911 1.258 . S
O919 Zn913 2.035 . S
O920 Zn913 2.028 . S
O920 C923 1.247 . S
O921 Zn915 2.035 . S
O921 C923 1.258 . S
C922 O916 1.247 . S
C922 O917 1.258 . S
C923 O920 1.247 . S
C923 O921 1.258 . S
C924 O926 1.247 . S
C924 O928 1.258 . S
C925 O932 1.247 . S
C925 O933 1.258 . S
O926 C924 1.247 . S
O926 Zn927 2.028 . S
Zn927 O926 2.028 . S
Zn927 O931 2.035 . S
Zn927 O933 2.035 . S
Zn927 O934 2.028 . S
O928 C924 1.258 . S
O928 Zn929 2.035 . S
Zn929 O928 2.035 . S
Zn929 O930 2.028 . S
Zn929 O932 2.028 . S
Zn929 O935 2.035 . S
O930 Zn929 2.028 . S
O930 C936 1.247 . S
O931 Zn927 2.035 . S
O931 C936 1.258 . S
O932 C925 1.247 . S
O932 Zn929 2.028 . S
O933 C925 1.258 . S
O933 Zn927 2.035 . S
O934 Zn927 2.028 . S
O934 C937 1.247 . S
O935 Zn929 2.035 . S
O935 C937 1.258 . S
C936 O930 1.247 . S
C936 O931 1.258 . S
C937 O934 1.247 . S
C937 O935 1.258 . S
C938 O940 1.261 . S
C938 O942 1.258 1_554 S
C939 O946 1.247 . S
C939 O947 1.258 . S
O940 C938 1.261 . S
O940 Zn941 1.986 1_554 S
Zn941 O940 1.986 1_556 S
Zn941 O945 2.035 . S
Zn941 O947 2.035 . S
Zn941 O948 2.028 . S
O942 C938 1.258 1_556 S
O942 Zn943 2.035 . S
Zn943 O942 2.035 . S
Zn943 O944 2.028 . S
Zn943 O946 2.028 . S
Zn943 O949 2.035 . S
O944 Zn943 2.028 . S
O944 C950 1.247 . S
O945 Zn941 2.035 . S
O945 C950 1.258 . S
O946 C939 1.247 . S
O946 Zn943 2.028 . S
O947 C939 1.258 . S
O947 Zn941 2.035 . S
O948 Zn941 2.028 . S
O948 C951 1.247 . S
O949 Zn943 2.035 . S
O949 C951 1.258 . S
C950 O944 1.247 . S
C950 O945 1.258 . S
C951 O948 1.247 . S
C951 O949 1.258 . S
C952 O954 1.247 . S
C952 O956 1.258 . S
C953 O960 1.247 . S
C953 O961 1.258 . S
O954 C952 1.247 . S
O954 Zn955 2.028 . S
Zn955 O954 2.028 . S
Zn955 O959 2.035 . S
Zn955 O961 2.035 . S
Zn955 O962 2.028 . S
O956 C952 1.258 . S
O956 Zn957 2.035 . S
Zn957 O956 2.035 . S
Zn957 O958 2.028 . S
Zn957 O960 2.028 . S
Zn957 O963 2.035 . S
O958 Zn957 2.028 . S
O958 C964 1.247 . S
O959 Zn955 2.035 . S
O959 C964 1.258 . S
O960 C953 1.247 . S
O960 Zn957 2.028 . S
O961 C953 1.258 . S
O961 Zn955 2.035 . S
O962 Zn955 2.028 . S
O962 C965 1.247 . S
O963 Zn957 2.035 . S
O963 C965 1.258 . S
C964 O958 1.247 . S
C964 O959 1.258 . S
C965 O962 1.247 . S
C965 O963 1.258 . S
C966 O968 1.247 . S
C966 O970 1.258 . S
C967 O974 1.247 . S
C967 O975 1.258 . S
O968 C966 1.247 . S
O968 Zn969 2.028 . S
Zn969 O968 2.028 . S
Zn969 O973 2.035 . S
Zn969 O975 2.035 . S
Zn969 O976 2.028 . S
O970 C966 1.258 . S
O970 Zn971 2.035 . S
Zn971 O970 2.035 . S
Zn971 O972 2.028 . S
Zn971 O974 2.028 . S
Zn971 O977 1.995 1_554 S
O972 Zn971 2.028 . S
O972 C978 1.247 . S
O973 Zn969 2.035 . S
O973 C978 1.258 . S
O974 C967 1.247 . S
O974 Zn971 2.028 . S
O975 C967 1.258 . S
O975 Zn969 2.035 . S
O976 Zn969 2.028 . S
O976 C979 1.247 1_554 S
O977 Zn971 1.995 1_556 S
O977 C979 1.271 . S
C978 O972 1.247 . S
C978 O973 1.258 . S
C979 O976 1.247 1_556 S
C979 O977 1.271 . S
C980 O982 1.247 . S
C980 O984 1.258 . S
C981 O988 1.247 . S
C981 O989 1.258 . S
O982 C980 1.247 . S
O982 Zn983 2.028 . S
Zn983 O982 2.028 . S
Zn983 O987 2.035 . S
Zn983 O989 2.035 . S
Zn983 O990 2.028 . S
O984 C980 1.258 . S
O984 Zn985 2.035 . S
Zn985 O984 2.035 . S
Zn985 O986 2.028 . S
Zn985 O988 2.028 . S
Zn985 O991 2.035 . S
O986 Zn985 2.028 . S
O986 C992 1.247 . S
O987 Zn983 2.035 . S
O987 C992 1.258 . S
O988 C981 1.247 . S
O988 Zn985 2.028 . S
O989 C981 1.258 . S
O989 Zn983 2.035 . S
O990 Zn983 2.028 . S
O990 C993 1.247 . S
O991 Zn985 2.035 . S
O991 C993 1.258 . S
C992 O986 1.247 . S
C992 O987 1.258 . S
C993 O990 1.247 . S
C993 O991 1.258 . S
C994 O996 1.247 . S
C994 O998 1.258 . S
C995 O1002 1.247 . S
C995 O1003 1.258 . S
O996 C994 1.247 . S
O996 Zn997 2.028 . S
Zn997 O996 2.028 . S
Zn997 O1001 2.035 . S
Zn997 O1003 2.035 . S
Zn997 O1004 2.028 . S
O998 C994 1.258 . S
O998 Zn999 2.035 . S
Zn999 O998 2.035 . S
Zn999 O1000 2.028 . S
Zn999 O1002 2.028 . S
Zn999 O1005 2.035 . S
O1000 Zn999 2.028 . S
O1000 C1006 1.247 . S
O1001 Zn997 2.035 . S
O1001 C1006 1.258 . S
O1002 C995 1.247 . S
O1002 Zn999 2.028 . S
O1003 C995 1.258 . S
O1003 Zn997 2.035 . S
O1004 Zn997 2.028 . S
O1004 C1007 1.247 . S
O1005 Zn999 2.035 . S
O1005 C1007 1.258 . S
C1006 O1000 1.247 . S
C1006 O1001 1.258 . S
C1007 O1004 1.247 . S
C1007 O1005 1.258 . S
C1008 O1010 1.247 . S
C1008 O1012 1.258 . S
C1009 O1016 1.247 . S
C1009 O1017 1.258 . S
O1010 C1008 1.247 . S
O1010 Zn1011 2.028 . S
Zn1011 O1010 2.028 . S
Zn1011 O1015 2.035 . S
Zn1011 O1017 2.035 . S
Zn1011 O1018 2.028 . S
O1012 C1008 1.258 . S
O1012 Zn1013 2.035 . S
Zn1013 O1012 2.035 . S
Zn1013 O1014 2.028 . S
Zn1013 O1016 2.028 . S
Zn1013 O1019 2.035 . S
O1014 Zn1013 2.028 . S
O1014 C1020 1.247 . S
O1015 Zn1011 2.035 . S
O1015 C1020 1.258 . S
O1016 C1009 1.247 . S
O1016 Zn1013 2.028 . S
O1017 C1009 1.258 . S
O1017 Zn1011 2.035 . S
O1018 Zn1011 2.028 . S
O1018 C1021 1.247 . S
O1019 Zn1013 2.035 . S
O1019 C1021 1.258 . S
C1020 O1014 1.247 . S
C1020 O1015 1.258 . S
C1021 O1018 1.247 . S
C1021 O1019 1.258 . S
C1022 O1024 1.247 . S
C1022 O1026 1.258 . S
C1023 O1030 1.247 . S
C1023 O1031 1.258 . S
O1024 C1022 1.247 . S
O1024 Zn1025 2.028 . S
Zn1025 O1024 2.028 . S
Zn1025 O1029 2.035 . S
Zn1025 O1031 2.035 . S
Zn1025 O1032 2.028 . S
O1026 C1022 1.258 . S
O1026 Zn1027 2.035 . S
Zn1027 O1026 2.035 . S
Zn1027 O1028 2.028 . S
Zn1027 O1030 2.028 . S
Zn1027 O1033 2.035 . S
O1028 Zn1027 2.028 . S
O1028 C1034 1.247 . S
O1029 Zn1025 2.035 . S
O1029 C1034 1.258 . S
O1030 C1023 1.247 . S
O1030 Zn1027 2.028 . S
O1031 C1023 1.258 . S
O1031 Zn1025 2.035 . S
O1032 Zn1025 2.028 . S
O1032 C1035 1.247 . S
O1033 Zn1027 2.035 . S
O1033 C1035 1.258 . S
C1034 O1028 1.247 . S
C1034 O1029 1.258 . S
C1035 O1032 1.247 . S
C1035 O1033 1.258 . S
C1036 O1038 1.247 . S
C1036 O1040 1.258 . S
C1037 O1044 1.261 . S
C1037 O1045 1.258 1_655 S
O1038 C1036 1.247 . S
O1038 Zn1039 2.028 . S
Zn1039 O1038 2.028 . S
Zn1039 O1043 2.035 . S
Zn1039 O1045 2.035 . S
Zn1039 O1046 2.028 . S
O1040 C1036 1.258 . S
O1040 Zn1041 2.035 . S
Zn1041 O1040 2.035 . S
Zn1041 O1042 2.028 . S
Zn1041 O1044 1.986 1_455 S
Zn1041 O1047 2.035 . S
O1042 Zn1041 2.028 . S
O1042 C1048 1.247 . S
O1043 Zn1039 2.035 . S
O1043 C1048 1.258 . S
O1044 C1037 1.261 . S
O1044 Zn1041 1.986 1_655 S
O1045 C1037 1.258 1_455 S
O1045 Zn1039 2.035 . S
O1046 Zn1039 2.028 . S
O1046 C1049 1.247 . S
O1047 Zn1041 2.035 . S
O1047 C1049 1.258 . S
C1048 O1042 1.247 . S
C1048 O1043 1.258 . S
C1049 O1046 1.247 . S
C1049 O1047 1.258 . S
C1050 O1052 1.247 . S
C1050 O1054 1.258 . S
C1051 O1058 1.247 . S
C1051 O1059 1.258 . S
O1052 C1050 1.247 . S
O1052 Zn1053 2.028 . S
Zn1053 O1052 2.028 . S
Zn1053 O1057 2.035 . S
Zn1053 O1059 2.035 . S
Zn1053 O1060 2.028 . S
O1054 C1050 1.258 . S
O1054 Zn1055 2.035 . S
Zn1055 O1054 2.035 . S
Zn1055 O1056 2.028 . S
Zn1055 O1058 2.028 . S
Zn1055 O1061 2.035 . S
O1056 Zn1055 2.028 . S
O1056 C1062 1.247 . S
O1057 Zn1053 2.035 . S
O1057 C1062 1.258 . S
O1058 C1051 1.247 . S
O1058 Zn1055 2.028 . S
O1059 C1051 1.258 . S
O1059 Zn1053 2.035 . S
O1060 Zn1053 2.028 . S
O1060 C1063 1.247 . S
O1061 Zn1055 2.035 . S
O1061 C1063 1.258 . S
C1062 O1056 1.247 . S
C1062 O1057 1.258 . S
C1063 O1060 1.247 . S
C1063 O1061 1.258 . S
C1064 O1066 1.247 . S
C1064 O1068 1.258 . S
C1065 O1072 1.247 . S
C1065 O1073 1.258 . S
O1066 C1064 1.247 . S
O1066 Zn1067 2.028 . S
Zn1067 O1066 2.028 . S
Zn1067 O1071 2.035 . S
Zn1067 O1073 2.035 . S
Zn1067 O1074 2.028 . S
O1068 C1064 1.258 . S
O1068 Zn1069 2.035 . S
Zn1069 O1068 2.035 . S
Zn1069 O1070 2.028 . S
Zn1069 O1072 2.028 . S
Zn1069 O1075 2.035 . S
O1070 Zn1069 2.028 . S
O1070 C1076 1.247 . S
O1071 Zn1067 2.035 . S
O1071 C1076 1.258 . S
O1072 C1065 1.247 . S
O1072 Zn1069 2.028 . S
O1073 C1065 1.258 . S
O1073 Zn1067 2.035 . S
O1074 Zn1067 2.028 . S
O1074 C1077 1.247 . S
O1075 Zn1069 2.035 . S
O1075 C1077 1.258 . S
C1076 O1070 1.247 . S
C1076 O1071 1.258 . S
C1077 O1074 1.247 . S
C1077 O1075 1.258 . S
C1078 O1080 1.247 . S
C1078 O1082 1.258 . S
C1079 O1086 1.247 . S
C1079 O1087 1.258 . S
O1080 C1078 1.247 . S
O1080 Zn1081 2.028 . S
Zn1081 O1080 2.028 . S
Zn1081 O1085 2.035 . S
Zn1081 O1087 2.035 . S
Zn1081 O1088 2.028 . S
O1082 C1078 1.258 . S
O1082 Zn1083 2.035 . S
Zn1083 O1082 2.035 . S
Zn1083 O1084 2.028 . S
Zn1083 O1086 2.028 . S
Zn1083 O1089 2.035 . S
O1084 Zn1083 2.028 . S
O1084 C1090 1.247 . S
O1085 Zn1081 2.035 . S
O1085 C1090 1.258 . S
O1086 C1079 1.247 . S
O1086 Zn1083 2.028 . S
O1087 C1079 1.258 . S
O1087 Zn1081 2.035 . S
O1088 Zn1081 2.028 . S
O1088 C1091 1.247 . S
O1089 Zn1083 2.035 . S
O1089 C1091 1.258 . S
C1090 O1084 1.247 . S
C1090 O1085 1.258 . S
C1091 O1088 1.247 . S
C1091 O1089 1.258 . S
C1092 O1094 1.247 . S
C1092 O1096 1.258 . S
C1093 O1100 1.261 . S
C1093 O1101 1.258 1_655 S
O1094 C1092 1.247 . S
O1094 Zn1095 2.028 . S
Zn1095 O1094 2.028 . S
Zn1095 O1099 2.035 . S
Zn1095 O1101 2.035 . S
Zn1095 O1102 2.028 . S
O1096 C1092 1.258 . S
O1096 Zn1097 2.035 . S
Zn1097 O1096 2.035 . S
Zn1097 O1098 2.028 . S
Zn1097 O1100 1.986 1_455 S
Zn1097 O1103 2.035 . S
O1098 Zn1097 2.028 . S
O1098 C1104 1.247 . S
O1099 Zn1095 2.035 . S
O1099 C1104 1.258 . S
O1100 C1093 1.261 . S
O1100 Zn1097 1.986 1_655 S
O1101 C1093 1.258 1_455 S
O1101 Zn1095 2.035 . S
O1102 Zn1095 2.028 . S
O1102 C1105 1.247 . S
O1103 Zn1097 2.035 . S
O1103 C1105 1.258 . S
C1104 O1098 1.247 . S
C1104 O1099 1.258 . S
C1105 O1102 1.247 . S
C1105 O1103 1.258 . S
C1106 O1108 1.247 . S
C1106 O1110 1.258 . S
C1107 O1114 1.247 . S
C1107 O1115 1.258 . S
O1108 C1106 1.247 . S
O1108 Zn1109 2.028 . S
Zn1109 O1108 2.028 . S
Zn1109 O1113 2.035 . S
Zn1109 O1115 2.035 . S
Zn1109 O1116 2.028 . S
O1110 C1106 1.258 . S
O1110 Zn1111 2.035 . S
Zn1111 O1110 2.035 . S
Zn1111 O1112 2.028 . S
Zn1111 O1114 2.028 . S
Zn1111 O1117 2.035 . S
O1112 Zn1111 2.028 . S
O1112 C1118 1.247 . S
O1113 Zn1109 2.035 . S
O1113 C1118 1.258 . S
O1114 C1107 1.247 . S
O1114 Zn1111 2.028 . S
O1115 C1107 1.258 . S
O1115 Zn1109 2.035 . S
O1116 Zn1109 2.028 . S
O1116 C1119 1.247 . S
O1117 Zn1111 2.035 . S
O1117 C1119 1.258 . S
C1118 O1112 1.247 . S
C1118 O1113 1.258 . S
C1119 O1116 1.247 . S
C1119 O1117 1.258 . S
C1120 O1122 1.247 . S
C1120 O1124 1.258 . S
C1121 O1128 1.247 . S
C1121 O1129 1.258 . S
O1122 C1120 1.247 . S
O1122 Zn1123 2.028 . S
Zn1123 O1122 2.028 . S
Zn1123 O1127 2.035 . S
Zn1123 O1129 2.035 . S
Zn1123 O1130 2.028 . S
O1124 C1120 1.258 . S
O1124 Zn1125 2.035 . S
Zn1125 O1124 2.035 . S
Zn1125 O1126 2.028 . S
Zn1125 O1128 2.028 . S
Zn1125 O1131 2.035 . S
O1126 Zn1125 2.028 . S
O1126 C1132 1.247 . S
O1127 Zn1123 2.035 . S
O1127 C1132 1.258 . S
O1128 C1121 1.247 . S
O1128 Zn1125 2.028 . S
O1129 C1121 1.258 . S
O1129 Zn1123 2.035 . S
O1130 Zn1123 2.028 . S
O1130 C1133 1.247 . S
O1131 Zn1125 2.035 . S
O1131 C1133 1.258 . S
C1132 O1126 1.247 . S
C1132 O1127 1.258 . S
C1133 O1130 1.247 . S
C1133 O1131 1.258 . S
C1134 O1136 1.247 . S
C1134 O1138 1.258 . S
C1135 O1142 1.247 . S
C1135 O1143 1.258 . S
O1136 C1134 1.247 . S
O1136 Zn1137 2.028 . S
Zn1137 O1136 2.028 . S
Zn1137 O1141 2.035 . S
Zn1137 O1143 2.035 . S
Zn1137 O1144 2.028 . S
O1138 C1134 1.258 . S
O1138 Zn1139 2.035 . S
Zn1139 O1138 2.035 . S
Zn1139 O1140 2.028 . S
Zn1139 O1142 2.028 . S
Zn1139 O1145 2.035 . S
O1140 Zn1139 2.028 . S
O1140 C1146 1.247 . S
O1141 Zn1137 2.035 . S
O1141 C1146 1.258 . S
O1142 C1135 1.247 . S
O1142 Zn1139 2.028 . S
O1143 C1135 1.258 . S
O1143 Zn1137 2.035 . S
O1144 Zn1137 2.028 . S
O1144 C1147 1.247 . S
O1145 Zn1139 2.035 . S
O1145 C1147 1.258 . S
C1146 O1140 1.247 . S
C1146 O1141 1.258 . S
C1147 O1144 1.247 . S
C1147 O1145 1.258 . S
C1148 O1150 1.247 . S
C1148 O1152 1.258 . S
C1149 O1156 1.247 . S
C1149 O1157 1.258 . S
O1150 C1148 1.247 . S
O1150 Zn1151 2.028 . S
Zn1151 O1150 2.028 . S
Zn1151 O1155 2.035 . S
Zn1151 O1157 2.035 . S
Zn1151 O1158 2.028 . S
O1152 C1148 1.258 . S
O1152 Zn1153 2.035 . S
Zn1153 O1152 2.035 . S
Zn1153 O1154 2.028 . S
Zn1153 O1156 2.028 . S
Zn1153 O1159 2.035 . S
O1154 Zn1153 2.028 . S
O1154 C1160 1.247 . S
O1155 Zn1151 2.035 . S
O1155 C1160 1.258 . S
O1156 C1149 1.247 . S
O1156 Zn1153 2.028 . S
O1157 C1149 1.258 . S
O1157 Zn1151 2.035 . S
O1158 Zn1151 2.028 . S
O1158 C1161 1.247 . S
O1159 Zn1153 2.035 . S
O1159 C1161 1.258 . S
C1160 O1154 1.247 . S
C1160 O1155 1.258 . S
C1161 O1158 1.247 . S
C1161 O1159 1.258 . S
C1162 O1164 1.247 . S
C1162 O1166 1.258 . S
C1163 O1170 1.247 . S
C1163 O1171 1.258 . S
O1164 C1162 1.247 . S
O1164 Zn1165 2.028 . S
Zn1165 O1164 2.028 . S
Zn1165 O1169 2.035 . S
Zn1165 O1171 2.035 . S
Zn1165 O1172 2.028 . S
O1166 C1162 1.258 . S
O1166 Zn1167 2.035 . S
Zn1167 O1166 2.035 . S
Zn1167 O1168 2.028 . S
Zn1167 O1170 2.028 . S
Zn1167 O1173 2.035 . S
O1168 Zn1167 2.028 . S
O1168 C1174 1.247 . S
O1169 Zn1165 2.035 . S
O1169 C1174 1.258 . S
O1170 C1163 1.247 . S
O1170 Zn1167 2.028 . S
O1171 C1163 1.258 . S
O1171 Zn1165 2.035 . S
O1172 Zn1165 2.028 . S
O1172 C1175 1.247 . S
O1173 Zn1167 2.035 . S
O1173 C1175 1.258 . S
C1174 O1168 1.247 . S
C1174 O1169 1.258 . S
C1175 O1172 1.247 . S
C1175 O1173 1.258 . S
C1176 O1178 1.247 . S
C1176 O1180 1.258 . S
C1177 O1184 1.247 . S
C1177 O1185 1.258 . S
O1178 C1176 1.247 . S
O1178 Zn1179 2.028 . S
Zn1179 O1178 2.028 . S
Zn1179 O1183 2.035 . S
Zn1179 O1185 2.035 . S
Zn1179 O1186 2.028 . S
O1180 C1176 1.258 . S
O1180 Zn1181 2.035 . S
Zn1181 O1180 2.035 . S
Zn1181 O1182 2.028 . S
Zn1181 O1184 2.028 . S
Zn1181 O1187 2.035 . S
O1182 Zn1181 2.028 . S
O1182 C1188 1.247 . S
O1183 Zn1179 2.035 . S
O1183 C1188 1.258 . S
O1184 C1177 1.247 . S
O1184 Zn1181 2.028 . S
O1185 C1177 1.258 . S
O1185 Zn1179 2.035 . S
O1186 Zn1179 2.028 . S
O1186 C1189 1.247 . S
O1187 Zn1181 2.035 . S
O1187 C1189 1.258 . S
C1188 O1182 1.247 . S
C1188 O1183 1.258 . S
C1189 O1186 1.247 . S
C1189 O1187 1.258 . S
C1190 O1192 1.247 . S
C1190 O1194 1.258 . S
C1191 O1198 1.247 . S
C1191 O1199 1.258 . S
O1192 C1190 1.247 . S
O1192 Zn1193 2.028 . S
Zn1193 O1192 2.028 . S
Zn1193 O1197 2.035 . S
Zn1193 O1199 2.035 . S
Zn1193 O1200 2.028 . S
O1194 C1190 1.258 . S
O1194 Zn1195 2.035 . S
Zn1195 O1194 2.035 . S
Zn1195 O1196 2.028 . S
Zn1195 O1198 2.028 . S
Zn1195 O1201 2.035 . S
O1196 Zn1195 2.028 . S
O1196 C1202 1.247 . S
O1197 Zn1193 2.035 . S
O1197 C1202 1.258 . S
O1198 C1191 1.247 . S
O1198 Zn1195 2.028 . S
O1199 C1191 1.258 . S
O1199 Zn1193 2.035 . S
O1200 Zn1193 2.028 . S
O1200 C1203 1.247 . S
O1201 Zn1195 2.035 . S
O1201 C1203 1.258 . S
C1202 O1196 1.247 . S
C1202 O1197 1.258 . S
C1203 O1200 1.247 . S
C1203 O1201 1.258 . S
C1204 O1206 1.247 . S
C1204 O1208 1.258 . S
C1205 O1212 1.247 . S
C1205 O1213 1.258 . S
O1206 C1204 1.247 . S
O1206 Zn1207 2.028 . S
Zn1207 O1206 2.028 . S
Zn1207 O1211 2.035 . S
Zn1207 O1213 2.035 . S
Zn1207 O1214 2.028 . S
O1208 C1204 1.258 . S
O1208 Zn1209 2.035 . S
Zn1209 O1208 2.035 . S
Zn1209 O1210 2.028 . S
Zn1209 O1212 2.028 . S
Zn1209 O1215 2.035 . S
O1210 Zn1209 2.028 . S
O1210 C1216 1.247 . S
O1211 Zn1207 2.035 . S
O1211 C1216 1.258 . S
O1212 C1205 1.247 . S
O1212 Zn1209 2.028 . S
O1213 C1205 1.258 . S
O1213 Zn1207 2.035 . S
O1214 Zn1207 2.028 . S
O1214 C1217 1.247 . S
O1215 Zn1209 2.035 . S
O1215 C1217 1.258 . S
C1216 O1210 1.247 . S
C1216 O1211 1.258 . S
C1217 O1214 1.247 . S
C1217 O1215 1.258 . S
C1218 O1220 1.247 . S
C1218 O1222 1.258 . S
C1219 O1226 1.247 . S
C1219 O1227 1.258 . S
O1220 C1218 1.247 . S
O1220 Zn1221 2.028 . S
Zn1221 O1220 2.028 . S
Zn1221 O1225 2.035 . S
Zn1221 O1227 2.035 . S
Zn1221 O1228 2.028 . S
O1222 C1218 1.258 . S
O1222 Zn1223 2.035 . S
Zn1223 O1222 2.035 . S
Zn1223 O1224 2.028 . S
Zn1223 O1226 2.028 . S
Zn1223 O1229 2.035 . S
O1224 Zn1223 2.028 . S
O1224 C1230 1.247 . S
O1225 Zn1221 2.035 . S
O1225 C1230 1.258 . S
O1226 C1219 1.247 . S
O1226 Zn1223 2.028 . S
O1227 C1219 1.258 . S
O1227 Zn1221 2.035 . S
O1228 Zn1221 2.028 . S
O1228 C1231 1.247 . S
O1229 Zn1223 2.035 . S
O1229 C1231 1.258 . S
C1230 O1224 1.247 . S
C1230 O1225 1.258 . S
C1231 O1228 1.247 . S
C1231 O1229 1.258 . S
C1232 O1234 1.247 . S
C1232 O1236 1.258 . S
C1233 O1240 1.247 . S
C1233 O1241 1.258 . S
O1234 C1232 1.247 . S
O1234 Zn1235 2.028 . S
Zn1235 O1234 2.028 . S
Zn1235 O1239 2.035 . S
Zn1235 O1241 2.035 . S
Zn1235 O1242 2.028 . S
O1236 C1232 1.258 . S
O1236 Zn1237 2.035 . S
Zn1237 O1236 2.035 . S
Zn1237 O1238 2.028 . S
Zn1237 O1240 2.028 . S
Zn1237 O1243 2.035 . S
O1238 Zn1237 2.028 . S
O1238 C1244 1.247 . S
O1239 Zn1235 2.035 . S
O1239 C1244 1.258 . S
O1240 C1233 1.247 . S
O1240 Zn1237 2.028 . S
O1241 C1233 1.258 . S
O1241 Zn1235 2.035 . S
O1242 Zn1235 2.028 . S
O1242 C1245 1.247 . S
O1243 Zn1237 2.035 . S
O1243 C1245 1.258 . S
C1244 O1238 1.247 . S
C1244 O1239 1.258 . S
C1245 O1242 1.247 . S
C1245 O1243 1.258 . S
C1246 O1248 1.247 . S
C1246 O1250 1.258 . S
C1247 O1254 1.247 . S
C1247 O1255 1.258 . S
O1248 C1246 1.247 . S
O1248 Zn1249 2.028 . S
Zn1249 O1248 2.028 . S
Zn1249 O1253 2.035 . S
Zn1249 O1255 2.035 . S
Zn1249 O1256 2.028 . S
O1250 C1246 1.258 . S
O1250 Zn1251 2.035 . S
Zn1251 O1250 2.035 . S
Zn1251 O1252 2.028 . S
Zn1251 O1254 2.028 . S
Zn1251 O1257 2.035 . S
O1252 Zn1251 2.028 . S
O1252 C1258 1.247 . S
O1253 Zn1249 2.035 . S
O1253 C1258 1.258 . S
O1254 C1247 1.247 . S
O1254 Zn1251 2.028 . S
O1255 C1247 1.258 . S
O1255 Zn1249 2.035 . S
O1256 Zn1249 2.028 . S
O1256 C1259 1.247 . S
O1257 Zn1251 2.035 . S
O1257 C1259 1.258 . S
C1258 O1252 1.247 . S
C1258 O1253 1.258 . S
C1259 O1256 1.247 . S
C1259 O1257 1.258 . S
C1260 O1262 1.247 . S
C1260 O1264 1.258 . S
C1261 O1268 1.247 . S
C1261 O1269 1.258 . S
O1262 C1260 1.247 . S
O1262 Zn1263 2.028 . S
Zn1263 O1262 2.028 . S
Zn1263 O1267 2.035 . S
Zn1263 O1269 2.035 . S
Zn1263 O1270 2.028 . S
O1264 C1260 1.258 . S
O1264 Zn1265 2.035 . S
Zn1265 O1264 2.035 . S
Zn1265 O1266 2.028 . S
Zn1265 O1268 2.028 . S
Zn1265 O1271 2.035 . S
O1266 Zn1265 2.028 . S
O1266 C1272 1.247 . S
O1267 Zn1263 2.035 . S
O1267 C1272 1.258 . S
O1268 C1261 1.247 . S
O1268 Zn1265 2.028 . S
O1269 C1261 1.258 . S
O1269 Zn1263 2.035 . S
O1270 Zn1263 2.028 . S
O1270 C1273 1.247 . S
O1271 Zn1265 2.035 . S
O1271 C1273 1.258 . S
C1272 O1266 1.247 . S
C1272 O1267 1.258 . S
C1273 O1270 1.247 . S
C1273 O1271 1.258 . S
C1274 O1276 1.247 . S
C1274 O1278 1.258 . S
C1275 O1282 1.261 . S
C1275 O1283 1.258 1_556 S
O1276 C1274 1.247 . S
O1276 Zn1277 2.028 . S
Zn1277 O1276 2.028 . S
Zn1277 O1281 2.035 . S
Zn1277 O1283 2.035 . S
Zn1277 O1284 2.028 . S
O1278 C1274 1.258 . S
O1278 Zn1279 2.035 . S
Zn1279 O1278 2.035 . S
Zn1279 O1280 2.028 . S
Zn1279 O1282 1.986 1_554 S
Zn1279 O1285 2.035 . S
O1280 Zn1279 2.028 . S
O1280 C1286 1.247 . S
O1281 Zn1277 2.035 . S
O1281 C1286 1.258 . S
O1282 C1275 1.261 . S
O1282 Zn1279 1.986 1_556 S
O1283 C1275 1.258 1_554 S
O1283 Zn1277 2.035 . S
O1284 Zn1277 2.028 . S
O1284 C1287 1.247 . S
O1285 Zn1279 2.035 . S
O1285 C1287 1.258 . S
C1286 O1280 1.247 . S
C1286 O1281 1.258 . S
C1287 O1284 1.247 . S
C1287 O1285 1.258 . S
C1288 O1290 1.247 . S
C1288 O1292 1.258 . S
C1289 O1296 1.247 . S
C1289 O1297 1.258 . S
O1290 C1288 1.247 . S
O1290 Zn1291 2.028 . S
Zn1291 O1290 2.028 . S
Zn1291 O1295 2.035 . S
Zn1291 O1297 2.035 . S
Zn1291 O1298 2.028 . S
O1292 C1288 1.258 . S
O1292 Zn1293 2.035 . S
Zn1293 O1292 2.035 . S
Zn1293 O1294 2.028 . S
Zn1293 O1296 2.028 . S
Zn1293 O1299 2.035 . S
O1294 Zn1293 2.028 . S
O1294 C1300 1.247 . S
O1295 Zn1291 2.035 . S
O1295 C1300 1.258 . S
O1296 C1289 1.247 . S
O1296 Zn1293 2.028 . S
O1297 C1289 1.258 . S
O1297 Zn1291 2.035 . S
O1298 Zn1291 2.028 . S
O1298 C1301 1.247 . S
O1299 Zn1293 2.035 . S
O1299 C1301 1.258 . S
C1300 O1294 1.247 . S
C1300 O1295 1.258 . S
C1301 O1298 1.247 . S
C1301 O1299 1.258 . S
C1302 O1304 1.247 1_554 S
C1302 O1306 1.271 . S
C1303 O1310 1.247 . S
C1303 O1311 1.258 . S
O1304 C1302 1.247 1_556 S
O1304 Zn1305 2.028 . S
Zn1305 O1304 2.028 . S
Zn1305 O1309 2.035 . S
Zn1305 O1311 2.035 . S
Zn1305 O1312 2.028 . S
O1306 C1302 1.271 . S
O1306 Zn1307 1.995 1_554 S
Zn1307 O1306 1.995 1_556 S
Zn1307 O1308 2.028 . S
Zn1307 O1310 2.028 . S
Zn1307 O1313 2.035 . S
O1308 Zn1307 2.028 . S
O1308 C1314 1.247 . S
O1309 Zn1305 2.035 . S
O1309 C1314 1.258 . S
O1310 C1303 1.247 . S
O1310 Zn1307 2.028 . S
O1311 C1303 1.258 . S
O1311 Zn1305 2.035 . S
O1312 Zn1305 2.028 . S
O1312 C1315 1.247 . S
O1313 Zn1307 2.035 . S
O1313 C1315 1.258 . S
C1314 O1308 1.247 . S
C1314 O1309 1.258 . S
C1315 O1312 1.247 . S
C1315 O1313 1.258 . S
C1316 O1318 1.247 . S
C1316 O1320 1.258 . S
C1317 O1324 1.247 . S
C1317 O1325 1.258 . S
O1318 C1316 1.247 . S
O1318 Zn1319 2.028 . S
Zn1319 O1318 2.028 . S
Zn1319 O1323 2.035 . S
Zn1319 O1325 2.035 . S
Zn1319 O1326 2.028 . S
O1320 C1316 1.258 . S
O1320 Zn1321 2.035 . S
Zn1321 O1320 2.035 . S
Zn1321 O1322 2.028 . S
Zn1321 O1324 2.028 . S
Zn1321 O1327 2.035 . S
O1322 Zn1321 2.028 . S
O1322 C1328 1.247 . S
O1323 Zn1319 2.035 . S
O1323 C1328 1.258 . S
O1324 C1317 1.247 . S
O1324 Zn1321 2.028 . S
O1325 C1317 1.258 . S
O1325 Zn1319 2.035 . S
O1326 Zn1319 2.028 . S
O1326 C1329 1.247 . S
O1327 Zn1321 2.035 . S
O1327 C1329 1.258 . S
C1328 O1322 1.247 . S
C1328 O1323 1.258 . S
C1329 O1326 1.247 . S
C1329 O1327 1.258 . S
C1330 O1332 1.247 . S
C1330 O1334 1.258 . S
C1331 O1338 1.247 . S
C1331 O1339 1.258 . S
O1332 C1330 1.247 . S
O1332 Zn1333 2.028 . S
Zn1333 O1332 2.028 . S
Zn1333 O1337 2.035 . S
Zn1333 O1339 2.035 . S
Zn1333 O1340 2.028 . S
O1334 C1330 1.258 . S
O1334 Zn1335 2.035 . S
Zn1335 O1334 2.035 . S
Zn1335 O1336 2.028 . S
Zn1335 O1338 2.028 . S
Zn1335 O1341 2.035 . S
O1336 Zn1335 2.028 . S
O1336 C1342 1.247 . S
O1337 Zn1333 2.035 . S
O1337 C1342 1.258 . S
O1338 C1331 1.247 . S
O1338 Zn1335 2.028 . S
O1339 C1331 1.258 . S
O1339 Zn1333 2.035 . S
O1340 Zn1333 2.028 . S
O1340 C1343 1.247 . S
O1341 Zn1335 2.035 . S
O1341 C1343 1.258 . S
C1342 O1336 1.247 . S
C1342 O1337 1.258 . S
C1343 O1340 1.247 . S
C1343 O1341 1.258 . S
H1344 C1350 0.930 . S
H1345 C1353 0.930 . S
H1346 C1354 0.930 . S
H1347 C1355 0.930 . S
H1348 C1358 0.930 . S
H1349 C1359 0.930 . S
C1350 H1344 0.930 . S
C1350 C1351 1.355 . S
C1350 C1352 1.415 . S
C1351 C1350 1.355 . S
C1351 C1353 1.419 . S
C1352 C1350 1.415 . S
C1352 C1357 1.425 . S
C1352 C1359 1.409 . S
C1353 H1345 0.930 . S
C1353 C1351 1.419 . S
C1353 C1354 1.362 . S
C1354 H1346 0.930 . S
C1354 C1353 1.362 . S
C1354 C1357 1.409 . S
C1355 H1347 0.930 . S
C1355 C1356 1.355 . S
C1355 C1357 1.415 . S
C1356 C1355 1.355 . S
C1356 C1358 1.419 . S
C1357 C1352 1.425 . S
C1357 C1354 1.409 . S
C1357 C1355 1.415 . S
C1358 H1348 0.930 . S
C1358 C1356 1.419 . S
C1358 C1359 1.362 . S
C1359 H1349 0.930 . S
C1359 C1352 1.409 . S
C1359 C1358 1.362 . S
H1360 C1366 0.930 . S
H1361 C1369 0.930 . S
H1362 C1370 0.930 . S
H1363 C1371 0.930 . S
H1364 C1374 0.930 . S
H1365 C1375 0.930 . S
C1366 H1360 0.930 . S
C1366 C1367 1.355 . S
C1366 C1368 1.415 . S
C1367 C1366 1.355 . S
C1367 C1369 1.419 . S
C1368 C1366 1.415 . S
C1368 C1373 1.425 . S
C1368 C1375 1.409 . S
C1369 H1361 0.930 . S
C1369 C1367 1.419 . S
C1369 C1370 1.362 . S
C1370 H1362 0.930 . S
C1370 C1369 1.362 . S
C1370 C1373 1.409 . S
C1371 H1363 0.930 . S
C1371 C1372 1.355 . S
C1371 C1373 1.415 . S
C1372 C1371 1.355 . S
C1372 C1374 1.419 . S
C1373 C1368 1.425 . S
C1373 C1370 1.409 . S
C1373 C1371 1.415 . S
C1374 H1364 0.930 . S
C1374 C1372 1.419 . S
C1374 C1375 1.362 . S
C1375 H1365 0.930 . S
C1375 C1368 1.409 . S
C1375 C1374 1.362 . S
H1376 C1382 0.930 . S
H1377 C1385 0.930 . S
H1378 C1386 0.930 . S
H1379 C1387 0.930 . S
H1380 C1390 0.930 . S
H1381 C1391 0.930 . S
C1382 H1376 0.930 . S
C1382 C1383 1.355 . S
C1382 C1384 1.415 . S
C1383 C1382 1.355 . S
C1383 C1385 1.419 . S
C1384 C1382 1.415 . S
C1384 C1389 1.425 . S
C1384 C1391 1.409 . S
C1385 H1377 0.930 . S
C1385 C1383 1.419 . S
C1385 C1386 1.362 . S
C1386 H1378 0.930 . S
C1386 C1385 1.362 . S
C1386 C1389 1.409 . S
C1387 H1379 0.930 . S
C1387 C1388 1.355 . S
C1387 C1389 1.415 . S
C1388 C1387 1.355 . S
C1388 C1390 1.419 . S
C1389 C1384 1.425 . S
C1389 C1386 1.409 . S
C1389 C1387 1.415 . S
C1390 H1380 0.930 . S
C1390 C1388 1.419 . S
C1390 C1391 1.362 . S
C1391 H1381 0.930 . S
C1391 C1384 1.409 . S
C1391 C1390 1.362 . S
H1392 C1398 0.930 . S
H1393 C1401 0.930 . S
H1394 C1402 0.930 . S
H1395 C1403 0.930 . S
H1396 C1406 0.930 . S
H1397 C1407 0.930 . S
C1398 H1392 0.930 . S
C1398 C1399 1.355 . S
C1398 C1400 1.415 . S
C1399 C1398 1.355 . S
C1399 C1401 1.419 . S
C1400 C1398 1.415 . S
C1400 C1405 1.425 . S
C1400 C1407 1.409 . S
C1401 H1393 0.930 . S
C1401 C1399 1.419 . S
C1401 C1402 1.362 . S
C1402 H1394 0.930 . S
C1402 C1401 1.362 . S
C1402 C1405 1.409 . S
C1403 H1395 0.930 . S
C1403 C1404 1.355 . S
C1403 C1405 1.415 . S
C1404 C1403 1.355 . S
C1404 C1406 1.419 . S
C1405 C1400 1.425 . S
C1405 C1402 1.409 . S
C1405 C1403 1.415 . S
C1406 H1396 0.930 . S
C1406 C1404 1.419 . S
C1406 C1407 1.362 . S
C1407 H1397 0.930 . S
C1407 C1400 1.409 . S
C1407 C1406 1.362 . S
H1408 C1414 0.930 . S
H1409 C1417 0.930 . S
H1410 C1418 0.930 . S
H1411 C1419 0.930 . S
H1412 C1422 0.930 . S
H1413 C1423 0.930 . S
C1414 H1408 0.930 . S
C1414 C1415 1.355 . S
C1414 C1416 1.415 . S
C1415 C1414 1.355 . S
C1415 C1417 1.419 . S
C1416 C1414 1.415 . S
C1416 C1421 1.425 . S
C1416 C1423 1.409 . S
C1417 H1409 0.930 . S
C1417 C1415 1.419 . S
C1417 C1418 1.362 . S
C1418 H1410 0.930 . S
C1418 C1417 1.362 . S
C1418 C1421 1.409 . S
C1419 H1411 0.930 . S
C1419 C1420 1.355 . S
C1419 C1421 1.415 . S
C1420 C1419 1.355 . S
C1420 C1422 1.419 . S
C1421 C1416 1.425 . S
C1421 C1418 1.409 . S
C1421 C1419 1.415 . S
C1422 H1412 0.930 . S
C1422 C1420 1.419 . S
C1422 C1423 1.362 . S
C1423 H1413 0.930 . S
C1423 C1416 1.409 . S
C1423 C1422 1.362 . S
H1424 C1430 0.930 . S
H1425 C1433 0.930 . S
H1426 C1434 0.930 . S
H1427 C1435 0.930 . S
H1428 C1438 0.930 . S
H1429 C1439 0.930 . S
C1430 H1424 0.930 . S
C1430 C1431 1.355 . S
C1430 C1432 1.415 . S
C1431 C1430 1.355 . S
C1431 C1433 1.419 . S
C1432 C1430 1.415 . S
C1432 C1437 1.425 . S
C1432 C1439 1.409 . S
C1433 H1425 0.930 . S
C1433 C1431 1.419 . S
C1433 C1434 1.362 . S
C1434 H1426 0.930 . S
C1434 C1433 1.362 . S
C1434 C1437 1.409 . S
C1435 H1427 0.930 . S
C1435 C1436 1.355 . S
C1435 C1437 1.415 . S
C1436 C1435 1.355 . S
C1436 C1438 1.419 . S
C1437 C1432 1.425 . S
C1437 C1434 1.409 . S
C1437 C1435 1.415 . S
C1438 H1428 0.930 . S
C1438 C1436 1.419 . S
C1438 C1439 1.362 . S
C1439 H1429 0.930 . S
C1439 C1432 1.409 . S
C1439 C1438 1.362 . S
H1440 C1446 0.930 . S
H1441 C1449 0.930 . S
H1442 C1450 0.930 . S
H1443 C1451 0.930 . S
H1444 C1454 0.930 . S
H1445 C1455 0.930 . S
C1446 H1440 0.930 . S
C1446 C1447 1.355 . S
C1446 C1448 1.415 . S
C1447 C1446 1.355 . S
C1447 C1449 1.419 . S
C1448 C1446 1.415 . S
C1448 C1453 1.425 . S
C1448 C1455 1.409 . S
C1449 H1441 0.930 . S
C1449 C1447 1.419 . S
C1449 C1450 1.362 . S
C1450 H1442 0.930 . S
C1450 C1449 1.362 . S
C1450 C1453 1.409 . S
C1451 H1443 0.930 . S
C1451 C1452 1.355 . S
C1451 C1453 1.415 . S
C1452 C1451 1.355 . S
C1452 C1454 1.419 . S
C1453 C1448 1.425 . S
C1453 C1450 1.409 . S
C1453 C1451 1.415 . S
C1454 H1444 0.930 . S
C1454 C1452 1.419 . S
C1454 C1455 1.362 . S
C1455 H1445 0.930 . S
C1455 C1448 1.409 . S
C1455 C1454 1.362 . S
H1456 C1462 0.930 . S
H1457 C1465 0.930 . S
H1458 C1466 0.930 . S
H1459 C1467 0.930 . S
H1460 C1470 0.930 . S
H1461 C1471 0.930 . S
C1462 H1456 0.930 . S
C1462 C1463 1.355 . S
C1462 C1464 1.415 . S
C1463 C1462 1.355 . S
C1463 C1465 1.419 . S
C1464 C1462 1.415 . S
C1464 C1469 1.425 . S
C1464 C1471 1.409 . S
C1465 H1457 0.930 . S
C1465 C1463 1.419 . S
C1465 C1466 1.362 . S
C1466 H1458 0.930 . S
C1466 C1465 1.362 . S
C1466 C1469 1.409 . S
C1467 H1459 0.930 . S
C1467 C1468 1.355 . S
C1467 C1469 1.415 . S
C1468 C1467 1.355 . S
C1468 C1470 1.419 . S
C1469 C1464 1.425 . S
C1469 C1466 1.409 . S
C1469 C1467 1.415 . S
C1470 H1460 0.930 . S
C1470 C1468 1.419 . S
C1470 C1471 1.362 . S
C1471 H1461 0.930 . S
C1471 C1464 1.409 . S
C1471 C1470 1.362 . S
H1472 C1478 0.930 . S
H1473 C1481 0.930 . S
H1474 C1482 0.930 . S
H1475 C1483 0.930 . S
H1476 C1486 0.930 . S
H1477 C1487 0.930 . S
C1478 H1472 0.930 . S
C1478 C1479 1.355 . S
C1478 C1480 1.415 . S
C1479 C1478 1.355 . S
C1479 C1481 1.419 . S
C1480 C1478 1.415 . S
C1480 C1485 1.425 . S
C1480 C1487 1.409 . S
C1481 H1473 0.930 . S
C1481 C1479 1.419 . S
C1481 C1482 1.362 . S
C1482 H1474 0.930 . S
C1482 C1481 1.362 . S
C1482 C1485 1.409 . S
C1483 H1475 0.930 . S
C1483 C1484 1.355 . S
C1483 C1485 1.415 . S
C1484 C1483 1.355 . S
C1484 C1486 1.419 . S
C1485 C1480 1.425 . S
C1485 C1482 1.409 . S
C1485 C1483 1.415 . S
C1486 H1476 0.930 . S
C1486 C1484 1.419 . S
C1486 C1487 1.362 . S
C1487 H1477 0.930 . S
C1487 C1480 1.409 . S
C1487 C1486 1.362 . S
H1488 C1494 0.930 . S
H1489 C1497 0.930 . S
H1490 C1498 0.930 . S
H1491 C1499 0.930 . S
H1492 C1502 0.930 . S
H1493 C1503 0.930 . S
C1494 H1488 0.930 . S
C1494 C1495 1.355 . S
C1494 C1496 1.415 . S
C1495 C1494 1.355 . S
C1495 C1497 1.419 . S
C1496 C1494 1.415 . S
C1496 C1501 1.425 . S
C1496 C1503 1.409 . S
C1497 H1489 0.930 . S
C1497 C1495 1.419 . S
C1497 C1498 1.362 . S
C1498 H1490 0.930 . S
C1498 C1497 1.362 . S
C1498 C1501 1.409 . S
C1499 H1491 0.930 . S
C1499 C1500 1.355 . S
C1499 C1501 1.415 . S
C1500 C1499 1.355 . S
C1500 C1502 1.419 . S
C1501 C1496 1.425 . S
C1501 C1498 1.409 . S
C1501 C1499 1.415 . S
C1502 H1492 0.930 . S
C1502 C1500 1.419 . S
C1502 C1503 1.362 . S
C1503 H1493 0.930 . S
C1503 C1496 1.409 . S
C1503 C1502 1.362 . S
H1504 C1510 0.930 . S
H1505 C1513 0.930 . S
H1506 C1514 0.930 . S
H1507 C1515 0.930 . S
H1508 C1518 0.930 . S
H1509 C1519 0.930 . S
C1510 H1504 0.930 . S
C1510 C1511 1.355 . S
C1510 C1512 1.415 . S
C1511 C1510 1.355 . S
C1511 C1513 1.419 . S
C1512 C1510 1.415 . S
C1512 C1517 1.425 . S
C1512 C1519 1.409 . S
C1513 H1505 0.930 . S
C1513 C1511 1.419 . S
C1513 C1514 1.362 . S
C1514 H1506 0.930 . S
C1514 C1513 1.362 . S
C1514 C1517 1.409 . S
C1515 H1507 0.930 . S
C1515 C1516 1.355 . S
C1515 C1517 1.415 . S
C1516 C1515 1.355 . S
C1516 C1518 1.419 . S
C1517 C1512 1.425 . S
C1517 C1514 1.409 . S
C1517 C1515 1.415 . S
C1518 H1508 0.930 . S
C1518 C1516 1.419 . S
C1518 C1519 1.362 . S
C1519 H1509 0.930 . S
C1519 C1512 1.409 . S
C1519 C1518 1.362 . S
H1520 C1526 0.930 . S
H1521 C1529 0.930 . S
H1522 C1530 0.930 . S
H1523 C1531 0.930 . S
H1524 C1534 0.930 . S
H1525 C1535 0.930 . S
C1526 H1520 0.930 . S
C1526 C1527 1.355 . S
C1526 C1528 1.415 . S
C1527 C1526 1.355 . S
C1527 C1529 1.419 . S
C1528 C1526 1.415 . S
C1528 C1533 1.425 . S
C1528 C1535 1.409 . S
C1529 H1521 0.930 . S
C1529 C1527 1.419 . S
C1529 C1530 1.362 . S
C1530 H1522 0.930 . S
C1530 C1529 1.362 . S
C1530 C1533 1.409 . S
C1531 H1523 0.930 . S
C1531 C1532 1.355 . S
C1531 C1533 1.415 . S
C1532 C1531 1.355 . S
C1532 C1534 1.419 . S
C1533 C1528 1.425 . S
C1533 C1530 1.409 . S
C1533 C1531 1.415 . S
C1534 H1524 0.930 . S
C1534 C1532 1.419 . S
C1534 C1535 1.362 . S
C1535 H1525 0.930 . S
C1535 C1528 1.409 . S
C1535 C1534 1.362 . S
H1536 C1542 0.930 . S
H1537 C1545 0.930 . S
H1538 C1546 0.930 . S
H1539 C1547 0.930 . S
H1540 C1550 0.930 . S
H1541 C1551 0.930 . S
C1542 H1536 0.930 . S
C1542 C1543 1.355 . S
C1542 C1544 1.415 . S
C1543 C1542 1.355 . S
C1543 C1545 1.419 . S
C1544 C1542 1.415 . S
C1544 C1549 1.425 . S
C1544 C1551 1.409 . S
C1545 H1537 0.930 . S
C1545 C1543 1.419 . S
C1545 C1546 1.362 . S
C1546 H1538 0.930 . S
C1546 C1545 1.362 . S
C1546 C1549 1.409 . S
C1547 H1539 0.930 . S
C1547 C1548 1.355 . S
C1547 C1549 1.415 . S
C1548 C1547 1.355 . S
C1548 C1550 1.419 . S
C1549 C1544 1.425 . S
C1549 C1546 1.409 . S
C1549 C1547 1.415 . S
C1550 H1540 0.930 . S
C1550 C1548 1.419 . S
C1550 C1551 1.362 . S
C1551 H1541 0.930 . S
C1551 C1544 1.409 . S
C1551 C1550 1.362 . S
H1552 C1558 0.930 . S
H1553 C1561 0.930 . S
H1554 C1562 0.930 . S
H1555 C1563 0.930 . S
H1556 C1566 0.930 . S
H1557 C1567 0.930 . S
C1558 H1552 0.930 . S
C1558 C1559 1.355 . S
C1558 C1560 1.415 . S
C1559 C1558 1.355 . S
C1559 C1561 1.419 . S
C1560 C1558 1.415 . S
C1560 C1565 1.425 . S
C1560 C1567 1.409 . S
C1561 H1553 0.930 . S
C1561 C1559 1.419 . S
C1561 C1562 1.362 . S
C1562 H1554 0.930 . S
C1562 C1561 1.362 . S
C1562 C1565 1.409 . S
C1563 H1555 0.930 . S
C1563 C1564 1.355 . S
C1563 C1565 1.415 . S
C1564 C1563 1.355 . S
C1564 C1566 1.419 . S
C1565 C1560 1.425 . S
C1565 C1562 1.409 . S
C1565 C1563 1.415 . S
C1566 H1556 0.930 . S
C1566 C1564 1.419 . S
C1566 C1567 1.362 . S
C1567 H1557 0.930 . S
C1567 C1560 1.409 . S
C1567 C1566 1.362 . S
H1568 C1574 0.930 . S
H1569 C1577 0.930 . S
H1570 C1578 0.930 . S
H1571 C1579 0.930 . S
H1572 C1582 0.930 . S
H1573 C1583 0.930 . S
C1574 H1568 0.930 . S
C1574 C1575 1.355 . S
C1574 C1576 1.415 . S
C1575 C1574 1.355 . S
C1575 C1577 1.419 . S
C1576 C1574 1.415 . S
C1576 C1581 1.425 . S
C1576 C1583 1.409 . S
C1577 H1569 0.930 . S
C1577 C1575 1.419 . S
C1577 C1578 1.362 . S
C1578 H1570 0.930 . S
C1578 C1577 1.362 . S
C1578 C1581 1.409 . S
C1579 H1571 0.930 . S
C1579 C1580 1.355 . S
C1579 C1581 1.415 . S
C1580 C1579 1.355 . S
C1580 C1582 1.419 . S
C1581 C1576 1.425 . S
C1581 C1578 1.409 . S
C1581 C1579 1.415 . S
C1582 H1572 0.930 . S
C1582 C1580 1.419 . S
C1582 C1583 1.362 . S
C1583 H1573 0.930 . S
C1583 C1576 1.409 . S
C1583 C1582 1.362 . S
H1584 C1590 0.930 . S
H1585 C1593 0.930 . S
H1586 C1594 0.930 . S
H1587 C1595 0.930 . S
H1588 C1598 0.930 . S
H1589 C1599 0.930 . S
C1590 H1584 0.930 . S
C1590 C1591 1.355 . S
C1590 C1592 1.415 . S
C1591 C1590 1.355 . S
C1591 C1593 1.419 . S
C1592 C1590 1.415 . S
C1592 C1597 1.425 . S
C1592 C1599 1.409 . S
C1593 H1585 0.930 . S
C1593 C1591 1.419 . S
C1593 C1594 1.362 . S
C1594 H1586 0.930 . S
C1594 C1593 1.362 . S
C1594 C1597 1.409 . S
C1595 H1587 0.930 . S
C1595 C1596 1.355 . S
C1595 C1597 1.415 . S
C1596 C1595 1.355 . S
C1596 C1598 1.419 . S
C1597 C1592 1.425 . S
C1597 C1594 1.409 . S
C1597 C1595 1.415 . S
C1598 H1588 0.930 . S
C1598 C1596 1.419 . S
C1598 C1599 1.362 . S
C1599 H1589 0.930 . S
C1599 C1592 1.409 . S
C1599 C1598 1.362 . S
H1600 C1606 0.930 . S
H1601 C1609 0.930 . S
H1602 C1610 0.930 . S
H1603 C1611 0.930 . S
H1604 C1614 0.930 . S
H1605 C1615 0.930 . S
C1606 H1600 0.930 . S
C1606 C1607 1.355 . S
C1606 C1608 1.415 . S
C1607 C1606 1.355 . S
C1607 C1609 1.419 . S
C1608 C1606 1.415 . S
C1608 C1613 1.425 . S
C1608 C1615 1.409 . S
C1609 H1601 0.930 . S
C1609 C1607 1.419 . S
C1609 C1610 1.362 . S
C1610 H1602 0.930 . S
C1610 C1609 1.362 . S
C1610 C1613 1.409 . S
C1611 H1603 0.930 . S
C1611 C1612 1.355 . S
C1611 C1613 1.415 . S
C1612 C1611 1.355 . S
C1612 C1614 1.419 . S
C1613 C1608 1.425 . S
C1613 C1610 1.409 . S
C1613 C1611 1.415 . S
C1614 H1604 0.930 . S
C1614 C1612 1.419 . S
C1614 C1615 1.362 . S
C1615 H1605 0.930 . S
C1615 C1608 1.409 . S
C1615 C1614 1.362 . S
H1616 C1622 0.930 . S
H1617 C1625 0.930 . S
H1618 C1626 0.930 . S
H1619 C1627 0.930 . S
H1620 C1630 0.930 . S
H1621 C1631 0.930 . S
C1622 H1616 0.930 . S
C1622 C1623 1.355 . S
C1622 C1624 1.415 . S
C1623 C1622 1.355 . S
C1623 C1625 1.419 . S
C1624 C1622 1.415 . S
C1624 C1629 1.425 . S
C1624 C1631 1.409 . S
C1625 H1617 0.930 . S
C1625 C1623 1.419 . S
C1625 C1626 1.362 . S
C1626 H1618 0.930 . S
C1626 C1625 1.362 . S
C1626 C1629 1.409 . S
C1627 H1619 0.930 . S
C1627 C1628 1.355 . S
C1627 C1629 1.415 . S
C1628 C1627 1.355 . S
C1628 C1630 1.419 . S
C1629 C1624 1.425 . S
C1629 C1626 1.409 . S
C1629 C1627 1.415 . S
C1630 H1620 0.930 . S
C1630 C1628 1.419 . S
C1630 C1631 1.362 . S
C1631 H1621 0.930 . S
C1631 C1624 1.409 . S
C1631 C1630 1.362 . S
H1632 C1638 0.930 . S
H1633 C1641 0.930 . S
H1634 C1642 0.930 . S
H1635 C1643 0.930 . S
H1636 C1646 0.930 . S
H1637 C1647 0.930 . S
C1638 H1632 0.930 . S
C1638 C1639 1.355 . S
C1638 C1640 1.415 . S
C1639 C1638 1.355 . S
C1639 C1641 1.419 . S
C1640 C1638 1.415 . S
C1640 C1645 1.425 . S
C1640 C1647 1.409 . S
C1641 H1633 0.930 . S
C1641 C1639 1.419 . S
C1641 C1642 1.362 . S
C1642 H1634 0.930 . S
C1642 C1641 1.362 . S
C1642 C1645 1.409 . S
C1643 H1635 0.930 . S
C1643 C1644 1.355 . S
C1643 C1645 1.415 . S
C1644 C1643 1.355 . S
C1644 C1646 1.419 . S
C1645 C1640 1.425 . S
C1645 C1642 1.409 . S
C1645 C1643 1.415 . S
C1646 H1636 0.930 . S
C1646 C1644 1.419 . S
C1646 C1647 1.362 . S
C1647 H1637 0.930 . S
C1647 C1640 1.409 . S
C1647 C1646 1.362 . S
H1648 C1654 0.930 . S
H1649 C1657 0.930 . S
H1650 C1658 0.930 . S
H1651 C1659 0.930 . S
H1652 C1662 0.930 . S
H1653 C1663 0.930 . S
C1654 H1648 0.930 . S
C1654 C1655 1.355 . S
C1654 C1656 1.415 . S
C1655 C1654 1.355 . S
C1655 C1657 1.419 . S
C1656 C1654 1.415 . S
C1656 C1661 1.425 . S
C1656 C1663 1.409 . S
C1657 H1649 0.930 . S
C1657 C1655 1.419 . S
C1657 C1658 1.362 . S
C1658 H1650 0.930 . S
C1658 C1657 1.362 . S
C1658 C1661 1.409 . S
C1659 H1651 0.930 . S
C1659 C1660 1.355 . S
C1659 C1661 1.415 . S
C1660 C1659 1.355 . S
C1660 C1662 1.419 . S
C1661 C1656 1.425 . S
C1661 C1658 1.409 . S
C1661 C1659 1.415 . S
C1662 H1652 0.930 . S
C1662 C1660 1.419 . S
C1662 C1663 1.362 . S
C1663 H1653 0.930 . S
C1663 C1656 1.409 . S
C1663 C1662 1.362 . S
H1664 C1670 0.930 . S
H1665 C1673 0.930 . S
H1666 C1674 0.930 . S
H1667 C1675 0.930 . S
H1668 C1678 0.930 . S
H1669 C1679 0.930 . S
C1670 H1664 0.930 . S
C1670 C1671 1.355 . S
C1670 C1672 1.415 . S
C1671 C1670 1.355 . S
C1671 C1673 1.419 . S
C1672 C1670 1.415 . S
C1672 C1677 1.425 . S
C1672 C1679 1.409 . S
C1673 H1665 0.930 . S
C1673 C1671 1.419 . S
C1673 C1674 1.362 . S
C1674 H1666 0.930 . S
C1674 C1673 1.362 . S
C1674 C1677 1.409 . S
C1675 H1667 0.930 . S
C1675 C1676 1.355 . S
C1675 C1677 1.415 . S
C1676 C1675 1.355 . S
C1676 C1678 1.419 . S
C1677 C1672 1.425 . S
C1677 C1674 1.409 . S
C1677 C1675 1.415 . S
C1678 H1668 0.930 . S
C1678 C1676 1.419 . S
C1678 C1679 1.362 . S
C1679 H1669 0.930 . S
C1679 C1672 1.409 . S
C1679 C1678 1.362 . S
H1680 C1686 0.930 . S
H1681 C1689 0.930 . S
H1682 C1690 0.930 . S
H1683 C1691 0.930 . S
H1684 C1694 0.930 . S
H1685 C1695 0.930 . S
C1686 H1680 0.930 . S
C1686 C1687 1.355 . S
C1686 C1688 1.415 . S
C1687 C1686 1.355 . S
C1687 C1689 1.419 . S
C1688 C1686 1.415 . S
C1688 C1693 1.425 . S
C1688 C1695 1.409 . S
C1689 H1681 0.930 . S
C1689 C1687 1.419 . S
C1689 C1690 1.362 . S
C1690 H1682 0.930 . S
C1690 C1689 1.362 . S
C1690 C1693 1.409 . S
C1691 H1683 0.930 . S
C1691 C1692 1.355 . S
C1691 C1693 1.415 . S
C1692 C1691 1.355 . S
C1692 C1694 1.419 . S
C1693 C1688 1.425 . S
C1693 C1690 1.409 . S
C1693 C1691 1.415 . S
C1694 H1684 0.930 . S
C1694 C1692 1.419 . S
C1694 C1695 1.362 . S
C1695 H1685 0.930 . S
C1695 C1688 1.409 . S
C1695 C1694 1.362 . S
H1696 C1702 0.930 . S
H1697 C1705 0.930 . S
H1698 C1706 0.930 . S
H1699 C1707 0.930 . S
H1700 C1710 0.930 . S
H1701 C1711 0.930 . S
C1702 H1696 0.930 . S
C1702 C1703 1.355 . S
C1702 C1704 1.415 . S
C1703 C1702 1.355 . S
C1703 C1705 1.419 . S
C1704 C1702 1.415 . S
C1704 C1709 1.425 . S
C1704 C1711 1.409 . S
C1705 H1697 0.930 . S
C1705 C1703 1.419 . S
C1705 C1706 1.362 . S
C1706 H1698 0.930 . S
C1706 C1705 1.362 . S
C1706 C1709 1.409 . S
C1707 H1699 0.930 . S
C1707 C1708 1.355 . S
C1707 C1709 1.415 . S
C1708 C1707 1.355 . S
C1708 C1710 1.419 . S
C1709 C1704 1.425 . S
C1709 C1706 1.409 . S
C1709 C1707 1.415 . S
C1710 H1700 0.930 . S
C1710 C1708 1.419 . S
C1710 C1711 1.362 . S
C1711 H1701 0.930 . S
C1711 C1704 1.409 . S
C1711 C1710 1.362 . S
H1712 C1718 0.930 . S
H1713 C1721 0.930 . S
H1714 C1722 0.930 . S
H1715 C1723 0.930 . S
H1716 C1726 0.930 . S
H1717 C1727 0.930 . S
C1718 H1712 0.930 . S
C1718 C1719 1.355 . S
C1718 C1720 1.415 . S
C1719 C1718 1.355 . S
C1719 C1721 1.419 . S
C1720 C1718 1.415 . S
C1720 C1725 1.425 . S
C1720 C1727 1.409 . S
C1721 H1713 0.930 . S
C1721 C1719 1.419 . S
C1721 C1722 1.362 . S
C1722 H1714 0.930 . S
C1722 C1721 1.362 . S
C1722 C1725 1.409 . S
C1723 H1715 0.930 . S
C1723 C1724 1.355 . S
C1723 C1725 1.415 . S
C1724 C1723 1.355 . S
C1724 C1726 1.419 . S
C1725 C1720 1.425 . S
C1725 C1722 1.409 . S
C1725 C1723 1.415 . S
C1726 H1716 0.930 . S
C1726 C1724 1.419 . S
C1726 C1727 1.362 . S
C1727 H1717 0.930 . S
C1727 C1720 1.409 . S
C1727 C1726 1.362 . S
H1728 C1734 0.930 . S
H1729 C1737 0.930 . S
H1730 C1738 0.930 . S
H1731 C1739 0.930 . S
H1732 C1742 0.930 . S
H1733 C1743 0.930 . S
C1734 H1728 0.930 . S
C1734 C1735 1.355 . S
C1734 C1736 1.415 . S
C1735 C1734 1.355 . S
C1735 C1737 1.419 . S
C1736 C1734 1.415 . S
C1736 C1741 1.425 . S
C1736 C1743 1.409 . S
C1737 H1729 0.930 . S
C1737 C1735 1.419 . S
C1737 C1738 1.362 . S
C1738 H1730 0.930 . S
C1738 C1737 1.362 . S
C1738 C1741 1.409 . S
C1739 H1731 0.930 . S
C1739 C1740 1.355 . S
C1739 C1741 1.415 . S
C1740 C1739 1.355 . S
C1740 C1742 1.419 . S
C1741 C1736 1.425 . S
C1741 C1738 1.409 . S
C1741 C1739 1.415 . S
C1742 H1732 0.930 . S
C1742 C1740 1.419 . S
C1742 C1743 1.362 . S
C1743 H1733 0.930 . S
C1743 C1736 1.409 . S
C1743 C1742 1.362 . S
H1744 C1750 0.930 . S
H1745 C1753 0.930 . S
H1746 C1754 0.930 . S
H1747 C1755 0.930 . S
H1748 C1758 0.930 . S
H1749 C1759 0.930 . S
C1750 H1744 0.930 . S
C1750 C1751 1.355 . S
C1750 C1752 1.415 . S
C1751 C1750 1.355 . S
C1751 C1753 1.419 . S
C1752 C1750 1.415 . S
C1752 C1757 1.425 . S
C1752 C1759 1.409 . S
C1753 H1745 0.930 . S
C1753 C1751 1.419 . S
C1753 C1754 1.362 . S
C1754 H1746 0.930 . S
C1754 C1753 1.362 . S
C1754 C1757 1.409 . S
C1755 H1747 0.930 . S
C1755 C1756 1.355 . S
C1755 C1757 1.415 . S
C1756 C1755 1.355 . S
C1756 C1758 1.419 . S
C1757 C1752 1.425 . S
C1757 C1754 1.409 . S
C1757 C1755 1.415 . S
C1758 H1748 0.930 . S
C1758 C1756 1.419 . S
C1758 C1759 1.362 . S
C1759 H1749 0.930 . S
C1759 C1752 1.409 . S
C1759 C1758 1.362 . S
H1760 C1766 0.930 . S
H1761 C1769 0.930 . S
H1762 C1770 0.930 . S
H1763 C1771 0.930 . S
H1764 C1774 0.930 . S
H1765 C1775 0.930 . S
C1766 H1760 0.930 . S
C1766 C1767 1.355 . S
C1766 C1768 1.415 . S
C1767 C1766 1.355 . S
C1767 C1769 1.419 . S
C1768 C1766 1.415 . S
C1768 C1773 1.425 . S
C1768 C1775 1.409 . S
C1769 H1761 0.930 . S
C1769 C1767 1.419 . S
C1769 C1770 1.362 . S
C1770 H1762 0.930 . S
C1770 C1769 1.362 . S
C1770 C1773 1.409 . S
C1771 H1763 0.930 . S
C1771 C1772 1.355 . S
C1771 C1773 1.415 . S
C1772 C1771 1.355 . S
C1772 C1774 1.419 . S
C1773 C1768 1.425 . S
C1773 C1770 1.409 . S
C1773 C1771 1.415 . S
C1774 H1764 0.930 . S
C1774 C1772 1.419 . S
C1774 C1775 1.362 . S
C1775 H1765 0.930 . S
C1775 C1768 1.409 . S
C1775 C1774 1.362 . S
H1776 C1782 0.930 . S
H1777 C1785 0.930 . S
H1778 C1786 0.930 . S
H1779 C1787 0.930 . S
H1780 C1790 0.930 . S
H1781 C1791 0.930 . S
C1782 H1776 0.930 . S
C1782 C1783 1.355 . S
C1782 C1784 1.415 . S
C1783 C1782 1.355 . S
C1783 C1785 1.419 . S
C1784 C1782 1.415 . S
C1784 C1789 1.425 . S
C1784 C1791 1.409 . S
C1785 H1777 0.930 . S
C1785 C1783 1.419 . S
C1785 C1786 1.362 . S
C1786 H1778 0.930 . S
C1786 C1785 1.362 . S
C1786 C1789 1.409 . S
C1787 H1779 0.930 . S
C1787 C1788 1.355 . S
C1787 C1789 1.415 . S
C1788 C1787 1.355 . S
C1788 C1790 1.419 . S
C1789 C1784 1.425 . S
C1789 C1786 1.409 . S
C1789 C1787 1.415 . S
C1790 H1780 0.930 . S
C1790 C1788 1.419 . S
C1790 C1791 1.362 . S
C1791 H1781 0.930 . S
C1791 C1784 1.409 . S
C1791 C1790 1.362 . S
H1792 C1798 0.930 . S
H1793 C1801 0.930 . S
H1794 C1802 0.930 . S
H1795 C1803 0.930 . S
H1796 C1806 0.930 . S
H1797 C1807 0.930 . S
C1798 H1792 0.930 . S
C1798 C1799 1.355 . S
C1798 C1800 1.415 . S
C1799 C1798 1.355 . S
C1799 C1801 1.419 . S
C1800 C1798 1.415 . S
C1800 C1805 1.425 . S
C1800 C1807 1.409 . S
C1801 H1793 0.930 . S
C1801 C1799 1.419 . S
C1801 C1802 1.362 . S
C1802 H1794 0.930 . S
C1802 C1801 1.362 . S
C1802 C1805 1.409 . S
C1803 H1795 0.930 . S
C1803 C1804 1.355 . S
C1803 C1805 1.415 . S
C1804 C1803 1.355 . S
C1804 C1806 1.419 . S
C1805 C1800 1.425 . S
C1805 C1802 1.409 . S
C1805 C1803 1.415 . S
C1806 H1796 0.930 . S
C1806 C1804 1.419 . S
C1806 C1807 1.362 . S
C1807 H1797 0.930 . S
C1807 C1800 1.409 . S
C1807 C1806 1.362 . S
H1808 C1814 0.930 . S
H1809 C1817 0.930 . S
H1810 C1818 0.930 . S
H1811 C1819 0.930 . S
H1812 C1822 0.930 . S
H1813 C1823 0.930 . S
C1814 H1808 0.930 . S
C1814 C1815 1.355 . S
C1814 C1816 1.415 . S
C1815 C1814 1.355 . S
C1815 C1817 1.419 . S
C1816 C1814 1.415 . S
C1816 C1821 1.425 . S
C1816 C1823 1.409 . S
C1817 H1809 0.930 . S
C1817 C1815 1.419 . S
C1817 C1818 1.362 . S
C1818 H1810 0.930 . S
C1818 C1817 1.362 . S
C1818 C1821 1.409 . S
C1819 H1811 0.930 . S
C1819 C1820 1.355 . S
C1819 C1821 1.415 . S
C1820 C1819 1.355 . S
C1820 C1822 1.419 . S
C1821 C1816 1.425 . S
C1821 C1818 1.409 . S
C1821 C1819 1.415 . S
C1822 H1812 0.930 . S
C1822 C1820 1.419 . S
C1822 C1823 1.362 . S
C1823 H1813 0.930 . S
C1823 C1816 1.409 . S
C1823 C1822 1.362 . S
H1824 C1830 0.930 . S
H1825 C1833 0.930 . S
H1826 C1834 0.930 . S
H1827 C1835 0.930 . S
H1828 C1838 0.930 . S
H1829 C1839 0.930 . S
C1830 H1824 0.930 . S
C1830 C1831 1.355 . S
C1830 C1832 1.415 . S
C1831 C1830 1.355 . S
C1831 C1833 1.419 . S
C1832 C1830 1.415 . S
C1832 C1837 1.425 . S
C1832 C1839 1.409 . S
C1833 H1825 0.930 . S
C1833 C1831 1.419 . S
C1833 C1834 1.362 . S
C1834 H1826 0.930 . S
C1834 C1833 1.362 . S
C1834 C1837 1.409 . S
C1835 H1827 0.930 . S
C1835 C1836 1.355 . S
C1835 C1837 1.415 . S
C1836 C1835 1.355 . S
C1836 C1838 1.419 . S
C1837 C1832 1.425 . S
C1837 C1834 1.409 . S
C1837 C1835 1.415 . S
C1838 H1828 0.930 . S
C1838 C1836 1.419 . S
C1838 C1839 1.362 . S
C1839 H1829 0.930 . S
C1839 C1832 1.409 . S
C1839 C1838 1.362 . S
H1840 C1846 0.930 . S
H1841 C1849 0.930 . S
H1842 C1850 0.930 . S
H1843 C1851 0.930 . S
H1844 C1854 0.930 . S
H1845 C1855 0.930 . S
C1846 H1840 0.930 . S
C1846 C1847 1.355 . S
C1846 C1848 1.415 . S
C1847 C1846 1.355 . S
C1847 C1849 1.419 . S
C1848 C1846 1.415 . S
C1848 C1853 1.425 . S
C1848 C1855 1.409 . S
C1849 H1841 0.930 . S
C1849 C1847 1.419 . S
C1849 C1850 1.362 . S
C1850 H1842 0.930 . S
C1850 C1849 1.362 . S
C1850 C1853 1.409 . S
C1851 H1843 0.930 . S
C1851 C1852 1.355 . S
C1851 C1853 1.415 . S
C1852 C1851 1.355 . S
C1852 C1854 1.419 . S
C1853 C1848 1.425 . S
C1853 C1850 1.409 . S
C1853 C1851 1.415 . S
C1854 H1844 0.930 . S
C1854 C1852 1.419 . S
C1854 C1855 1.362 . S
C1855 H1845 0.930 . S
C1855 C1848 1.409 . S
C1855 C1854 1.362 . S
H1856 C1862 0.930 . S
H1857 C1865 0.930 . S
H1858 C1866 0.930 . S
H1859 C1867 0.930 . S
H1860 C1870 0.930 . S
H1861 C1871 0.930 . S
C1862 H1856 0.930 . S
C1862 C1863 1.355 . S
C1862 C1864 1.415 . S
C1863 C1862 1.355 . S
C1863 C1865 1.419 . S
C1864 C1862 1.415 . S
C1864 C1869 1.425 . S
C1864 C1871 1.409 . S
C1865 H1857 0.930 . S
C1865 C1863 1.419 . S
C1865 C1866 1.362 . S
C1866 H1858 0.930 . S
C1866 C1865 1.362 . S
C1866 C1869 1.409 . S
C1867 H1859 0.930 . S
C1867 C1868 1.355 . S
C1867 C1869 1.415 . S
C1868 C1867 1.355 . S
C1868 C1870 1.419 . S
C1869 C1864 1.425 . S
C1869 C1866 1.409 . S
C1869 C1867 1.415 . S
C1870 H1860 0.930 . S
C1870 C1868 1.419 . S
C1870 C1871 1.362 . S
C1871 H1861 0.930 . S
C1871 C1864 1.409 . S
C1871 C1870 1.362 . S
H1872 C1878 0.930 . S
H1873 C1881 0.930 . S
H1874 C1882 0.930 . S
H1875 C1883 0.930 . S
H1876 C1886 0.930 . S
H1877 C1887 0.930 . S
C1878 H1872 0.930 . S
C1878 C1879 1.355 . S
C1878 C1880 1.415 . S
C1879 C1878 1.355 . S
C1879 C1881 1.419 . S
C1880 C1878 1.415 . S
C1880 C1885 1.425 . S
C1880 C1887 1.409 . S
C1881 H1873 0.930 . S
C1881 C1879 1.419 . S
C1881 C1882 1.362 . S
C1882 H1874 0.930 . S
C1882 C1881 1.362 . S
C1882 C1885 1.409 . S
C1883 H1875 0.930 . S
C1883 C1884 1.355 . S
C1883 C1885 1.415 . S
C1884 C1883 1.355 . S
C1884 C1886 1.419 . S
C1885 C1880 1.425 . S
C1885 C1882 1.409 . S
C1885 C1883 1.415 . S
C1886 H1876 0.930 . S
C1886 C1884 1.419 . S
C1886 C1887 1.362 . S
C1887 H1877 0.930 . S
C1887 C1880 1.409 . S
C1887 C1886 1.362 . S
H1888 C1894 0.930 . S
H1889 C1897 0.930 . S
H1890 C1898 0.930 . S
H1891 C1899 0.930 . S
H1892 C1902 0.930 . S
H1893 C1903 0.930 . S
C1894 H1888 0.930 . S
C1894 C1895 1.355 . S
C1894 C1896 1.415 . S
C1895 C1894 1.355 . S
C1895 C1897 1.419 . S
C1896 C1894 1.415 . S
C1896 C1901 1.425 . S
C1896 C1903 1.409 . S
C1897 H1889 0.930 . S
C1897 C1895 1.419 . S
C1897 C1898 1.362 . S
C1898 H1890 0.930 . S
C1898 C1897 1.362 . S
C1898 C1901 1.409 . S
C1899 H1891 0.930 . S
C1899 C1900 1.355 . S
C1899 C1901 1.415 . S
C1900 C1899 1.355 . S
C1900 C1902 1.419 . S
C1901 C1896 1.425 . S
C1901 C1898 1.409 . S
C1901 C1899 1.415 . S
C1902 H1892 0.930 . S
C1902 C1900 1.419 . S
C1902 C1903 1.362 . S
C1903 H1893 0.930 . S
C1903 C1896 1.409 . S
C1903 C1902 1.362 . S
H1904 C1910 0.930 . S
H1905 C1913 0.930 . S
H1906 C1914 0.930 . S
H1907 C1915 0.930 . S
H1908 C1918 0.930 . S
H1909 C1919 0.930 . S
C1910 H1904 0.930 . S
C1910 C1911 1.355 . S
C1910 C1912 1.415 . S
C1911 C1910 1.355 . S
C1911 C1913 1.419 . S
C1912 C1910 1.415 . S
C1912 C1917 1.425 . S
C1912 C1919 1.409 . S
C1913 H1905 0.930 . S
C1913 C1911 1.419 . S
C1913 C1914 1.362 . S
C1914 H1906 0.930 . S
C1914 C1913 1.362 . S
C1914 C1917 1.409 . S
C1915 H1907 0.930 . S
C1915 C1916 1.355 . S
C1915 C1917 1.415 . S
C1916 C1915 1.355 . S
C1916 C1918 1.419 . S
C1917 C1912 1.425 . S
C1917 C1914 1.409 . S
C1917 C1915 1.415 . S
C1918 H1908 0.930 . S
C1918 C1916 1.419 . S
C1918 C1919 1.362 . S
C1919 H1909 0.930 . S
C1919 C1912 1.409 . S
C1919 C1918 1.362 . S
H1920 C1926 0.930 . S
H1921 C1929 0.930 . S
H1922 C1930 0.930 . S
H1923 C1931 0.930 . S
H1924 C1934 0.930 . S
H1925 C1935 0.930 . S
C1926 H1920 0.930 . S
C1926 C1927 1.355 . S
C1926 C1928 1.415 . S
C1927 C1926 1.355 . S
C1927 C1929 1.419 . S
C1928 C1926 1.415 . S
C1928 C1933 1.425 . S
C1928 C1935 1.409 . S
C1929 H1921 0.930 . S
C1929 C1927 1.419 . S
C1929 C1930 1.362 . S
C1930 H1922 0.930 . S
C1930 C1929 1.362 . S
C1930 C1933 1.409 . S
C1931 H1923 0.930 . S
C1931 C1932 1.355 . S
C1931 C1933 1.415 . S
C1932 C1931 1.355 . S
C1932 C1934 1.419 . S
C1933 C1928 1.425 . S
C1933 C1930 1.409 . S
C1933 C1931 1.415 . S
C1934 H1924 0.930 . S
C1934 C1932 1.419 . S
C1934 C1935 1.362 . S
C1935 H1925 0.930 . S
C1935 C1928 1.409 . S
C1935 C1934 1.362 . S
H1936 C1942 0.930 . S
H1937 C1945 0.930 . S
H1938 C1946 0.930 . S
H1939 C1947 0.930 . S
H1940 C1950 0.930 . S
H1941 C1951 0.930 . S
C1942 H1936 0.930 . S
C1942 C1943 1.355 . S
C1942 C1944 1.415 . S
C1943 C1942 1.355 . S
C1943 C1945 1.419 . S
C1944 C1942 1.415 . S
C1944 C1949 1.425 . S
C1944 C1951 1.409 . S
C1945 H1937 0.930 . S
C1945 C1943 1.419 . S
C1945 C1946 1.362 . S
C1946 H1938 0.930 . S
C1946 C1945 1.362 . S
C1946 C1949 1.409 . S
C1947 H1939 0.930 . S
C1947 C1948 1.355 . S
C1947 C1949 1.415 . S
C1948 C1947 1.355 . S
C1948 C1950 1.419 . S
C1949 C1944 1.425 . S
C1949 C1946 1.409 . S
C1949 C1947 1.415 . S
C1950 H1940 0.930 . S
C1950 C1948 1.419 . S
C1950 C1951 1.362 . S
C1951 H1941 0.930 . S
C1951 C1944 1.409 . S
C1951 C1950 1.362 . S
H1952 C1958 0.930 . S
H1953 C1961 0.930 . S
H1954 C1962 0.930 . S
H1955 C1963 0.930 . S
H1956 C1966 0.930 . S
H1957 C1967 0.930 . S
C1958 H1952 0.930 . S
C1958 C1959 1.355 . S
C1958 C1960 1.415 . S
C1959 C1958 1.355 . S
C1959 C1961 1.419 . S
C1960 C1958 1.415 . S
C1960 C1965 1.425 . S
C1960 C1967 1.409 . S
C1961 H1953 0.930 . S
C1961 C1959 1.419 . S
C1961 C1962 1.362 . S
C1962 H1954 0.930 . S
C1962 C1961 1.362 . S
C1962 C1965 1.409 . S
C1963 H1955 0.930 . S
C1963 C1964 1.355 . S
C1963 C1965 1.415 . S
C1964 C1963 1.355 . S
C1964 C1966 1.419 . S
C1965 C1960 1.425 . S
C1965 C1962 1.409 . S
C1965 C1963 1.415 . S
C1966 H1956 0.930 . S
C1966 C1964 1.419 . S
C1966 C1967 1.362 . S
C1967 H1957 0.930 . S
C1967 C1960 1.409 . S
C1967 C1966 1.362 . S
H1968 C1974 0.930 . S
H1969 C1977 0.930 . S
H1970 C1978 0.930 . S
H1971 C1979 0.930 . S
H1972 C1982 0.930 . S
H1973 C1983 0.930 . S
C1974 H1968 0.930 . S
C1974 C1975 1.355 . S
C1974 C1976 1.415 . S
C1975 C1974 1.355 . S
C1975 C1977 1.419 . S
C1976 C1974 1.415 . S
C1976 C1981 1.425 . S
C1976 C1983 1.409 . S
C1977 H1969 0.930 . S
C1977 C1975 1.419 . S
C1977 C1978 1.362 . S
C1978 H1970 0.930 . S
C1978 C1977 1.362 . S
C1978 C1981 1.409 . S
C1979 H1971 0.930 . S
C1979 C1980 1.355 . S
C1979 C1981 1.415 . S
C1980 C1979 1.355 . S
C1980 C1982 1.419 . S
C1981 C1976 1.425 . S
C1981 C1978 1.409 . S
C1981 C1979 1.415 . S
C1982 H1972 0.930 . S
C1982 C1980 1.419 . S
C1982 C1983 1.362 . S
C1983 H1973 0.930 . S
C1983 C1976 1.409 . S
C1983 C1982 1.362 . S
H1984 C1990 0.930 . S
H1985 C1993 0.930 . S
H1986 C1994 0.930 . S
H1987 C1995 0.930 . S
H1988 C1998 0.930 . S
H1989 C1999 0.930 . S
C1990 H1984 0.930 . S
C1990 C1991 1.355 . S
C1990 C1992 1.415 . S
C1991 C1990 1.355 . S
C1991 C1993 1.419 . S
C1992 C1990 1.415 . S
C1992 C1997 1.425 . S
C1992 C1999 1.409 . S
C1993 H1985 0.930 . S
C1993 C1991 1.419 . S
C1993 C1994 1.362 . S
C1994 H1986 0.930 . S
C1994 C1993 1.362 . S
C1994 C1997 1.409 . S
C1995 H1987 0.930 . S
C1995 C1996 1.355 . S
C1995 C1997 1.415 . S
C1996 C1995 1.355 . S
C1996 C1998 1.419 . S
C1997 C1992 1.425 . S
C1997 C1994 1.409 . S
C1997 C1995 1.415 . S
C1998 H1988 0.930 . S
C1998 C1996 1.419 . S
C1998 C1999 1.362 . S
C1999 H1989 0.930 . S
C1999 C1992 1.409 . S
C1999 C1998 1.362 . S
H2000 C2006 0.930 . S
H2001 C2009 0.930 . S
H2002 C2010 0.930 . S
H2003 C2011 0.930 . S
H2004 C2014 0.930 . S
H2005 C2015 0.930 . S
C2006 H2000 0.930 . S
C2006 C2007 1.355 . S
C2006 C2008 1.415 . S
C2007 C2006 1.355 . S
C2007 C2009 1.419 . S
C2008 C2006 1.415 . S
C2008 C2013 1.425 . S
C2008 C2015 1.409 . S
C2009 H2001 0.930 . S
C2009 C2007 1.419 . S
C2009 C2010 1.362 . S
C2010 H2002 0.930 . S
C2010 C2009 1.362 . S
C2010 C2013 1.409 . S
C2011 H2003 0.930 . S
C2011 C2012 1.355 . S
C2011 C2013 1.415 . S
C2012 C2011 1.355 . S
C2012 C2014 1.419 . S
C2013 C2008 1.425 . S
C2013 C2010 1.409 . S
C2013 C2011 1.415 . S
C2014 H2004 0.930 . S
C2014 C2012 1.419 . S
C2014 C2015 1.362 . S
C2015 H2005 0.930 . S
C2015 C2008 1.409 . S
C2015 C2014 1.362 . S
H2016 C2022 0.930 . S
H2017 C2025 0.930 . S
H2018 C2026 0.930 . S
H2019 C2027 0.930 . S
H2020 C2030 0.930 . S
H2021 C2031 0.930 . S
C2022 H2016 0.930 . S
C2022 C2023 1.355 . S
C2022 C2024 1.415 . S
C2023 C2022 1.355 . S
C2023 C2025 1.419 . S
C2024 C2022 1.415 . S
C2024 C2029 1.425 . S
C2024 C2031 1.409 . S
C2025 H2017 0.930 . S
C2025 C2023 1.419 . S
C2025 C2026 1.362 . S
C2026 H2018 0.930 . S
C2026 C2025 1.362 . S
C2026 C2029 1.409 . S
C2027 H2019 0.930 . S
C2027 C2028 1.355 . S
C2027 C2029 1.415 . S
C2028 C2027 1.355 . S
C2028 C2030 1.419 . S
C2029 C2024 1.425 . S
C2029 C2026 1.409 . S
C2029 C2027 1.415 . S
C2030 H2020 0.930 . S
C2030 C2028 1.419 . S
C2030 C2031 1.362 . S
C2031 H2021 0.930 . S
C2031 C2024 1.409 . S
C2031 C2030 1.362 . S
H2032 C2038 0.930 . S
H2033 C2041 0.930 . S
H2034 C2042 0.930 . S
H2035 C2043 0.930 . S
H2036 C2046 0.930 . S
H2037 C2047 0.930 . S
C2038 H2032 0.930 . S
C2038 C2039 1.355 . S
C2038 C2040 1.415 . S
C2039 C2038 1.355 . S
C2039 C2041 1.419 . S
C2040 C2038 1.415 . S
C2040 C2045 1.425 . S
C2040 C2047 1.409 . S
C2041 H2033 0.930 . S
C2041 C2039 1.419 . S
C2041 C2042 1.362 . S
C2042 H2034 0.930 . S
C2042 C2041 1.362 . S
C2042 C2045 1.409 . S
C2043 H2035 0.930 . S
C2043 C2044 1.355 . S
C2043 C2045 1.415 . S
C2044 C2043 1.355 . S
C2044 C2046 1.419 . S
C2045 C2040 1.425 . S
C2045 C2042 1.409 . S
C2045 C2043 1.415 . S
C2046 H2036 0.930 . S
C2046 C2044 1.419 . S
C2046 C2047 1.362 . S
C2047 H2037 0.930 . S
C2047 C2040 1.409 . S
C2047 C2046 1.362 . S
H2048 C2054 0.930 . S
H2049 C2057 0.930 . S
H2050 C2058 0.930 . S
H2051 C2059 0.930 . S
H2052 C2062 0.930 . S
H2053 C2063 0.930 . S
C2054 H2048 0.930 . S
C2054 C2055 1.355 . S
C2054 C2056 1.415 . S
C2055 C2054 1.355 . S
C2055 C2057 1.419 . S
C2056 C2054 1.415 . S
C2056 C2061 1.425 . S
C2056 C2063 1.409 . S
C2057 H2049 0.930 . S
C2057 C2055 1.419 . S
C2057 C2058 1.362 . S
C2058 H2050 0.930 . S
C2058 C2057 1.362 . S
C2058 C2061 1.409 . S
C2059 H2051 0.930 . S
C2059 C2060 1.355 . S
C2059 C2061 1.415 . S
C2060 C2059 1.355 . S
C2060 C2062 1.419 . S
C2061 C2056 1.425 . S
C2061 C2058 1.409 . S
C2061 C2059 1.415 . S
C2062 H2052 0.930 . S
C2062 C2060 1.419 . S
C2062 C2063 1.362 . S
C2063 H2053 0.930 . S
C2063 C2056 1.409 . S
C2063 C2062 1.362 . S
H2064 C2070 0.930 . S
H2065 C2073 0.930 . S
H2066 C2074 0.930 . S
H2067 C2075 0.930 . S
H2068 C2078 0.930 . S
H2069 C2079 0.930 . S
C2070 H2064 0.930 . S
C2070 C2071 1.355 . S
C2070 C2072 1.415 . S
C2071 C2070 1.355 . S
C2071 C2073 1.419 . S
C2072 C2070 1.415 . S
C2072 C2077 1.425 . S
C2072 C2079 1.409 . S
C2073 H2065 0.930 . S
C2073 C2071 1.419 . S
C2073 C2074 1.362 . S
C2074 H2066 0.930 . S
C2074 C2073 1.362 . S
C2074 C2077 1.409 . S
C2075 H2067 0.930 . S
C2075 C2076 1.355 . S
C2075 C2077 1.415 . S
C2076 C2075 1.355 . S
C2076 C2078 1.419 . S
C2077 C2072 1.425 . S
C2077 C2074 1.409 . S
C2077 C2075 1.415 . S
C2078 H2068 0.930 . S
C2078 C2076 1.419 . S
C2078 C2079 1.362 . S
C2079 H2069 0.930 . S
C2079 C2072 1.409 . S
C2079 C2078 1.362 . S
H2080 C2086 0.930 . S
H2081 C2089 0.930 . S
H2082 C2090 0.930 . S
H2083 C2091 0.930 . S
H2084 C2094 0.930 . S
H2085 C2095 0.930 . S
C2086 H2080 0.930 . S
C2086 C2087 1.355 . S
C2086 C2088 1.415 . S
C2087 C2086 1.355 . S
C2087 C2089 1.419 . S
C2088 C2086 1.415 . S
C2088 C2093 1.425 . S
C2088 C2095 1.409 . S
C2089 H2081 0.930 . S
C2089 C2087 1.419 . S
C2089 C2090 1.362 . S
C2090 H2082 0.930 . S
C2090 C2089 1.362 . S
C2090 C2093 1.409 . S
C2091 H2083 0.930 . S
C2091 C2092 1.355 . S
C2091 C2093 1.415 . S
C2092 C2091 1.355 . S
C2092 C2094 1.419 . S
C2093 C2088 1.425 . S
C2093 C2090 1.409 . S
C2093 C2091 1.415 . S
C2094 H2084 0.930 . S
C2094 C2092 1.419 . S
C2094 C2095 1.362 . S
C2095 H2085 0.930 . S
C2095 C2088 1.409 . S
C2095 C2094 1.362 . S
H2096 C2102 0.930 . S
H2097 C2105 0.930 . S
H2098 C2106 0.930 . S
H2099 C2107 0.930 . S
H2100 C2110 0.930 . S
H2101 C2111 0.930 . S
C2102 H2096 0.930 . S
C2102 C2103 1.355 . S
C2102 C2104 1.415 . S
C2103 C2102 1.355 . S
C2103 C2105 1.419 . S
C2104 C2102 1.415 . S
C2104 C2109 1.425 . S
C2104 C2111 1.409 . S
C2105 H2097 0.930 . S
C2105 C2103 1.419 . S
C2105 C2106 1.362 . S
C2106 H2098 0.930 . S
C2106 C2105 1.362 . S
C2106 C2109 1.409 . S
C2107 H2099 0.930 . S
C2107 C2108 1.355 . S
C2107 C2109 1.415 . S
C2108 C2107 1.355 . S
C2108 C2110 1.419 . S
C2109 C2104 1.425 . S
C2109 C2106 1.409 . S
C2109 C2107 1.415 . S
C2110 H2100 0.930 . S
C2110 C2108 1.419 . S
C2110 C2111 1.362 . S
C2111 H2101 0.930 . S
C2111 C2104 1.409 . S
C2111 C2110 1.362 . S
H2112 C2118 0.930 . S
H2113 C2121 0.930 . S
H2114 C2122 0.930 . S
H2115 C2123 0.930 . S
H2116 C2126 0.930 . S
H2117 C2127 0.930 . S
C2118 H2112 0.930 . S
C2118 C2119 1.355 . S
C2118 C2120 1.415 . S
C2119 C2118 1.355 . S
C2119 C2121 1.419 . S
C2120 C2118 1.415 . S
C2120 C2125 1.425 . S
C2120 C2127 1.409 . S
C2121 H2113 0.930 . S
C2121 C2119 1.419 . S
C2121 C2122 1.362 . S
C2122 H2114 0.930 . S
C2122 C2121 1.362 . S
C2122 C2125 1.409 . S
C2123 H2115 0.930 . S
C2123 C2124 1.355 . S
C2123 C2125 1.415 . S
C2124 C2123 1.355 . S
C2124 C2126 1.419 . S
C2125 C2120 1.425 . S
C2125 C2122 1.409 . S
C2125 C2123 1.415 . S
C2126 H2116 0.930 . S
C2126 C2124 1.419 . S
C2126 C2127 1.362 . S
C2127 H2117 0.930 . S
C2127 C2120 1.409 . S
C2127 C2126 1.362 . S
H2128 C2134 0.930 . S
H2129 C2137 0.930 . S
H2130 C2138 0.930 . S
H2131 C2139 0.930 . S
H2132 C2142 0.930 . S
H2133 C2143 0.930 . S
C2134 H2128 0.930 . S
C2134 C2135 1.355 . S
C2134 C2136 1.415 . S
C2135 C2134 1.355 . S
C2135 C2137 1.419 . S
C2136 C2134 1.415 . S
C2136 C2141 1.425 . S
C2136 C2143 1.409 . S
C2137 H2129 0.930 . S
C2137 C2135 1.419 . S
C2137 C2138 1.362 . S
C2138 H2130 0.930 . S
C2138 C2137 1.362 . S
C2138 C2141 1.409 . S
C2139 H2131 0.930 . S
C2139 C2140 1.355 . S
C2139 C2141 1.415 . S
C2140 C2139 1.355 . S
C2140 C2142 1.419 . S
C2141 C2136 1.425 . S
C2141 C2138 1.409 . S
C2141 C2139 1.415 . S
C2142 H2132 0.930 . S
C2142 C2140 1.419 . S
C2142 C2143 1.362 . S
C2143 H2133 0.930 . S
C2143 C2136 1.409 . S
C2143 C2142 1.362 . S
H2144 C2150 0.930 . S
H2145 C2153 0.930 . S
H2146 C2154 0.930 . S
H2147 C2155 0.930 . S
H2148 C2158 0.930 . S
H2149 C2159 0.930 . S
C2150 H2144 0.930 . S
C2150 C2151 1.355 . S
C2150 C2152 1.415 . S
C2151 C2150 1.355 . S
C2151 C2153 1.419 . S
C2152 C2150 1.415 . S
C2152 C2157 1.425 . S
C2152 C2159 1.409 . S
C2153 H2145 0.930 . S
C2153 C2151 1.419 . S
C2153 C2154 1.362 . S
C2154 H2146 0.930 . S
C2154 C2153 1.362 . S
C2154 C2157 1.409 . S
C2155 H2147 0.930 . S
C2155 C2156 1.355 . S
C2155 C2157 1.415 . S
C2156 C2155 1.355 . S
C2156 C2158 1.419 . S
C2157 C2152 1.425 . S
C2157 C2154 1.409 . S
C2157 C2155 1.415 . S
C2158 H2148 0.930 . S
C2158 C2156 1.419 . S
C2158 C2159 1.362 . S
C2159 H2149 0.930 . S
C2159 C2152 1.409 . S
C2159 C2158 1.362 . S
H2160 C2166 0.930 . S
H2161 C2169 0.930 . S
H2162 C2170 0.930 . S
H2163 C2171 0.930 . S
H2164 C2174 0.930 . S
H2165 C2175 0.930 . S
C2166 H2160 0.930 . S
C2166 C2167 1.355 . S
C2166 C2168 1.415 . S
C2167 C2166 1.355 . S
C2167 C2169 1.419 . S
C2168 C2166 1.415 . S
C2168 C2173 1.425 . S
C2168 C2175 1.409 . S
C2169 H2161 0.930 . S
C2169 C2167 1.419 . S
C2169 C2170 1.362 . S
C2170 H2162 0.930 . S
C2170 C2169 1.362 . S
C2170 C2173 1.409 . S
C2171 H2163 0.930 . S
C2171 C2172 1.355 . S
C2171 C2173 1.415 . S
C2172 C2171 1.355 . S
C2172 C2174 1.419 . S
C2173 C2168 1.425 . S
C2173 C2170 1.409 . S
C2173 C2171 1.415 . S
C2174 H2164 0.930 . S
C2174 C2172 1.419 . S
C2174 C2175 1.362 . S
C2175 H2165 0.930 . S
C2175 C2168 1.409 . S
C2175 C2174 1.362 . S
H2176 C2182 0.930 . S
H2177 C2185 0.930 . S
H2178 C2186 0.930 1_455 S
H2179 C2187 0.930 . S
H2180 C2190 0.930 . S
H2181 C2191 0.930 . S
C2182 H2176 0.930 . S
C2182 C2183 1.355 . S
C2182 C2184 1.415 . S
C2183 C2182 1.355 . S
C2183 C2185 1.419 1_655 S
C2184 C2182 1.415 . S
C2184 C2189 1.425 . S
C2184 C2191 1.409 . S
C2185 H2177 0.930 . S
C2185 C2183 1.419 1_455 S
C2185 C2186 1.362 1_455 S
C2186 H2178 0.930 1_655 S
C2186 C2185 1.362 1_655 S
C2186 C2189 1.409 . S
C2187 H2179 0.930 . S
C2187 C2188 1.355 . S
C2187 C2189 1.415 . S
C2188 C2187 1.355 . S
C2188 C2190 1.419 . S
C2189 C2184 1.425 . S
C2189 C2186 1.409 . S
C2189 C2187 1.415 . S
C2190 H2180 0.930 . S
C2190 C2188 1.419 . S
C2190 C2191 1.362 . S
C2191 H2181 0.930 . S
C2191 C2184 1.409 . S
C2191 C2190 1.362 . S
H2192 C2198 0.930 . S
H2193 C2201 0.930 . S
H2194 C2202 0.930 . S
H2195 C2203 0.930 . S
H2196 C2206 0.930 . S
H2197 C2207 0.930 . S
C2198 H2192 0.930 . S
C2198 C2199 1.355 . S
C2198 C2200 1.415 . S
C2199 C2198 1.355 . S
C2199 C2201 1.419 . S
C2200 C2198 1.415 . S
C2200 C2205 1.425 . S
C2200 C2207 1.409 . S
C2201 H2193 0.930 . S
C2201 C2199 1.419 . S
C2201 C2202 1.362 . S
C2202 H2194 0.930 . S
C2202 C2201 1.362 . S
C2202 C2205 1.409 . S
C2203 H2195 0.930 . S
C2203 C2204 1.355 . S
C2203 C2205 1.415 . S
C2204 C2203 1.355 . S
C2204 C2206 1.419 . S
C2205 C2200 1.425 . S
C2205 C2202 1.409 . S
C2205 C2203 1.415 . S
C2206 H2196 0.930 . S
C2206 C2204 1.419 . S
C2206 C2207 1.362 . S
C2207 H2197 0.930 . S
C2207 C2200 1.409 . S
C2207 C2206 1.362 . S
H2208 C2214 0.930 . S
H2209 C2217 0.930 . S
H2210 C2218 0.930 . S
H2211 C2219 0.930 . S
H2212 C2222 0.930 . S
H2213 C2223 0.930 . S
C2214 H2208 0.930 . S
C2214 C2215 1.355 . S
C2214 C2216 1.415 . S
C2215 C2214 1.355 . S
C2215 C2217 1.419 . S
C2216 C2214 1.415 . S
C2216 C2221 1.425 . S
C2216 C2223 1.409 . S
C2217 H2209 0.930 . S
C2217 C2215 1.419 . S
C2217 C2218 1.362 . S
C2218 H2210 0.930 . S
C2218 C2217 1.362 . S
C2218 C2221 1.409 . S
C2219 H2211 0.930 . S
C2219 C2220 1.355 . S
C2219 C2221 1.415 . S
C2220 C2219 1.355 . S
C2220 C2222 1.419 . S
C2221 C2216 1.425 . S
C2221 C2218 1.409 . S
C2221 C2219 1.415 . S
C2222 H2212 0.930 . S
C2222 C2220 1.419 . S
C2222 C2223 1.362 . S
C2223 H2213 0.930 . S
C2223 C2216 1.409 . S
C2223 C2222 1.362 . S
H2224 C2230 0.930 . S
H2225 C2233 0.930 . S
H2226 C2234 0.930 . S
H2227 C2235 0.930 . S
H2228 C2238 0.930 1_554 S
H2229 C2239 0.930 . S
C2230 H2224 0.930 . S
C2230 C2231 1.355 . S
C2230 C2232 1.415 . S
C2231 C2230 1.355 . S
C2231 C2233 1.419 . S
C2232 C2230 1.415 . S
C2232 C2237 1.425 . S
C2232 C2239 1.409 . S
C2233 H2225 0.930 . S
C2233 C2231 1.419 . S
C2233 C2234 1.362 . S
C2234 H2226 0.930 . S
C2234 C2233 1.362 . S
C2234 C2237 1.409 . S
C2235 H2227 0.930 . S
C2235 C2236 1.355 . S
C2235 C2237 1.415 . S
C2236 C2235 1.355 . S
C2236 C2238 1.419 . S
C2237 C2232 1.425 . S
C2237 C2234 1.409 . S
C2237 C2235 1.415 . S
C2238 H2228 0.930 1_556 S
C2238 C2236 1.419 . S
C2238 C2239 1.362 . S
C2239 H2229 0.930 . S
C2239 C2232 1.409 . S
C2239 C2238 1.362 . S
H2240 C2246 0.930 1_545 S
H2241 C2249 0.930 . S
H2242 C2250 0.930 . S
H2243 C2251 0.930 . S
H2244 C2254 0.930 . S
H2245 C2255 0.930 1_545 S
C2246 H2240 0.930 1_565 S
C2246 C2247 1.355 . S
C2246 C2248 1.415 . S
C2247 C2246 1.355 . S
C2247 C2249 1.419 . S
C2248 C2246 1.415 . S
C2248 C2253 1.425 . S
C2248 C2255 1.409 . S
C2249 H2241 0.930 . S
C2249 C2247 1.419 . S
C2249 C2250 1.362 . S
C2250 H2242 0.930 . S
C2250 C2249 1.362 . S
C2250 C2253 1.409 . S
C2251 H2243 0.930 . S
C2251 C2252 1.355 . S
C2251 C2253 1.415 . S
C2252 C2251 1.355 . S
C2252 C2254 1.419 . S
C2253 C2248 1.425 . S
C2253 C2250 1.409 . S
C2253 C2251 1.415 . S
C2254 H2244 0.930 . S
C2254 C2252 1.419 . S
C2254 C2255 1.362 . S
C2255 H2245 0.930 1_565 S
C2255 C2248 1.409 . S
C2255 C2254 1.362 . S
H2256 C2262 0.930 . S
H2257 C2265 0.931 1_565 S
H2258 C2266 0.930 . S
H2259 C2267 0.930 . S
H2260 C2270 0.930 . S
H2261 C2271 0.930 . S
C2262 H2256 0.930 . S
C2262 C2263 1.355 . S
C2262 C2264 1.415 . S
C2263 C2262 1.355 . S
C2263 C2265 1.419 . S
C2264 C2262 1.415 . S
C2264 C2269 1.425 . S
C2264 C2271 1.409 . S
C2265 H2257 0.931 1_545 S
C2265 C2263 1.419 . S
C2265 C2266 1.362 . S
C2266 H2258 0.930 . S
C2266 C2265 1.362 . S
C2266 C2269 1.409 . S
C2267 H2259 0.930 . S
C2267 C2268 1.355 . S
C2267 C2269 1.415 . S
C2268 C2267 1.355 . S
C2268 C2270 1.419 . S
C2269 C2264 1.425 . S
C2269 C2266 1.409 . S
C2269 C2267 1.415 . S
C2270 H2260 0.930 . S
C2270 C2268 1.419 . S
C2270 C2271 1.362 . S
C2271 H2261 0.930 . S
C2271 C2264 1.409 . S
C2271 C2270 1.362 . S
H2272 C2278 0.930 . S
H2273 C2281 0.930 . S
H2274 C2282 0.925 1_565 S
H2275 C2283 0.930 . S
H2276 C2286 0.930 . S
H2277 C2287 0.930 . S
C2278 H2272 0.930 . S
C2278 C2279 1.355 . S
C2278 C2280 1.415 . S
C2279 C2278 1.355 . S
C2279 C2281 1.419 1_545 S
C2280 C2278 1.415 . S
C2280 C2285 1.425 . S
C2280 C2287 1.409 . S
C2281 H2273 0.930 . S
C2281 C2279 1.419 1_565 S
C2281 C2282 1.358 1_565 S
C2282 H2274 0.925 1_545 S
C2282 C2281 1.358 1_545 S
C2282 C2285 1.418 . S
C2283 H2275 0.930 . S
C2283 C2284 1.355 . S
C2283 C2285 1.415 . S
C2284 C2283 1.355 . S
C2284 C2286 1.419 . S
C2285 C2280 1.425 . S
C2285 C2282 1.418 . S
C2285 C2283 1.415 . S
C2286 H2276 0.930 . S
C2286 C2284 1.419 . S
C2286 C2287 1.362 . S
C2287 H2277 0.930 . S
C2287 C2280 1.409 . S
C2287 C2286 1.362 . S
H2288 C2294 0.930 . S
H2289 C2297 0.930 . S
H2290 C2298 0.930 . S
H2291 C2299 0.930 1_545 S
H2292 C2302 0.930 . S
H2293 C2303 0.930 . S
C2294 H2288 0.930 . S
C2294 C2295 1.355 . S
C2294 C2296 1.415 . S
C2295 C2294 1.355 . S
C2295 C2297 1.419 . S
C2296 C2294 1.415 . S
C2296 C2301 1.425 . S
C2296 C2303 1.409 . S
C2297 H2289 0.930 . S
C2297 C2295 1.419 . S
C2297 C2298 1.362 . S
C2298 H2290 0.930 . S
C2298 C2297 1.362 . S
C2298 C2301 1.409 . S
C2299 H2291 0.930 1_565 S
C2299 C2300 1.355 . S
C2299 C2301 1.415 . S
C2300 C2299 1.355 . S
C2300 C2302 1.419 . S
C2301 C2296 1.425 . S
C2301 C2298 1.409 . S
C2301 C2299 1.415 . S
C2302 H2292 0.930 . S
C2302 C2300 1.419 . S
C2302 C2303 1.362 . S
C2303 H2293 0.930 . S
C2303 C2296 1.409 . S
C2303 C2302 1.362 . S
H2304 C2310 0.930 . S
H2305 C2313 0.930 . S
H2306 C2314 0.930 . S
H2307 C2315 0.930 . S
H2308 C2318 0.930 . S
H2309 C2319 0.946 . S
C2310 H2304 0.930 . S
C2310 C2311 1.355 . S
C2310 C2312 1.415 . S
C2311 C2310 1.355 . S
C2311 C2313 1.419 . S
C2312 C2310 1.415 . S
C2312 C2317 1.425 . S
C2312 C2319 1.409 . S
C2313 H2305 0.930 . S
C2313 C2311 1.419 . S
C2313 C2314 1.362 . S
C2314 H2306 0.930 . S
C2314 C2313 1.362 . S
C2314 C2317 1.409 . S
C2315 H2307 0.930 . S
C2315 C2316 1.355 . S
C2315 C2317 1.415 . S
C2316 C2315 1.355 . S
C2316 C2318 1.419 1_554 S
C2317 C2312 1.425 . S
C2317 C2314 1.409 . S
C2317 C2315 1.415 . S
C2318 H2308 0.930 . S
C2318 C2316 1.419 1_556 S
C2318 C2319 1.362 1_556 S
C2319 H2309 0.946 . S
C2319 C2312 1.409 . S
C2319 C2318 1.362 1_554 S
H2320 C2326 0.930 1_655 S
H2321 C2329 0.930 . S
H2322 C2330 0.930 . S
H2323 C2331 0.930 . S
H2324 C2334 0.930 . S
H2325 C2335 0.930 1_655 S
C2326 H2320 0.930 1_455 S
C2326 C2327 1.355 . S
C2326 C2328 1.415 . S
C2327 C2326 1.355 . S
C2327 C2329 1.419 . S
C2328 C2326 1.415 . S
C2328 C2333 1.425 . S
C2328 C2335 1.409 . S
C2329 H2321 0.930 . S
C2329 C2327 1.419 . S
C2329 C2330 1.362 . S
C2330 H2322 0.930 . S
C2330 C2329 1.362 . S
C2330 C2333 1.409 . S
C2331 H2323 0.930 . S
C2331 C2332 1.355 . S
C2331 C2333 1.415 . S
C2332 C2331 1.355 . S
C2332 C2334 1.419 . S
C2333 C2328 1.425 . S
C2333 C2330 1.409 . S
C2333 C2331 1.415 . S
C2334 H2324 0.930 . S
C2334 C2332 1.419 . S
C2334 C2335 1.362 . S
C2335 H2325 0.930 1_455 S
C2335 C2328 1.409 . S
C2335 C2334 1.362 . S
H2336 C2342 0.930 . S
H2337 C2345 0.930 . S
H2338 C2346 0.930 . S
H2339 C2347 0.930 . S
H2340 C2350 0.930 . S
H2341 C2351 0.930 . S
C2342 H2336 0.930 . S
C2342 C2343 1.355 . S
C2342 C2344 1.415 . S
C2343 C2342 1.355 . S
C2343 C2345 1.419 . S
C2344 C2342 1.415 . S
C2344 C2349 1.425 . S
C2344 C2351 1.409 . S
C2345 H2337 0.930 . S
C2345 C2343 1.419 . S
C2345 C2346 1.362 . S
C2346 H2338 0.930 . S
C2346 C2345 1.362 . S
C2346 C2349 1.409 . S
C2347 H2339 0.930 . S
C2347 C2348 1.355 . S
C2347 C2349 1.415 . S
C2348 C2347 1.355 . S
C2348 C2350 1.419 . S
C2349 C2344 1.425 . S
C2349 C2346 1.409 . S
C2349 C2347 1.415 . S
C2350 H2340 0.930 . S
C2350 C2348 1.419 . S
C2350 C2351 1.362 . S
C2351 H2341 0.930 . S
C2351 C2344 1.409 . S
C2351 C2350 1.362 . S
H2352 C2358 0.930 1_655 S
H2353 C2361 0.930 . S
H2354 C2362 0.930 . S
H2355 C2363 0.930 . S
H2356 C2366 0.930 . S
H2357 C2367 0.978 . S
C2358 H2352 0.930 1_455 S
C2358 C2359 1.355 . S
C2358 C2360 1.415 . S
C2359 C2358 1.355 . S
C2359 C2361 1.419 . S
C2360 C2358 1.415 . S
C2360 C2365 1.425 . S
C2360 C2367 1.409 . S
C2361 H2353 0.930 . S
C2361 C2359 1.419 . S
C2361 C2362 1.362 . S
C2362 H2354 0.930 . S
C2362 C2361 1.362 . S
C2362 C2365 1.409 . S
C2363 H2355 0.930 . S
C2363 C2364 1.355 . S
C2363 C2365 1.415 . S
C2364 C2363 1.355 . S
C2364 C2366 1.419 . S
C2365 C2360 1.425 . S
C2365 C2362 1.409 . S
C2365 C2363 1.415 . S
C2366 H2356 0.930 . S
C2366 C2364 1.419 . S
C2366 C2367 1.362 . S
C2367 H2357 0.978 . S
C2367 C2360 1.409 . S
C2367 C2366 1.362 . S
H2368 C2374 0.930 . S
H2369 C2377 0.930 . S
H2370 C2378 0.930 . S
H2371 C2379 0.930 . S
H2372 C2382 0.930 . S
H2373 C2383 0.930 . S
C2374 H2368 0.930 . S
C2374 C2375 1.355 . S
C2374 C2376 1.415 . S
C2375 C2374 1.355 . S
C2375 C2377 1.419 . S
C2376 C2374 1.415 . S
C2376 C2381 1.425 . S
C2376 C2383 1.409 . S
C2377 H2369 0.930 . S
C2377 C2375 1.419 . S
C2377 C2378 1.362 . S
C2378 H2370 0.930 . S
C2378 C2377 1.362 . S
C2378 C2381 1.409 . S
C2379 H2371 0.930 . S
C2379 C2380 1.355 . S
C2379 C2381 1.415 . S
C2380 C2379 1.355 . S
C2380 C2382 1.419 . S
C2381 C2376 1.425 . S
C2381 C2378 1.409 . S
C2381 C2379 1.415 . S
C2382 H2372 0.930 . S
C2382 C2380 1.419 . S
C2382 C2383 1.362 . S
C2383 H2373 0.930 . S
C2383 C2376 1.409 . S
C2383 C2382 1.362 . S
H2384 C2390 0.930 1_655 S
H2385 C2393 0.930 . S
H2386 C2394 0.930 . S
H2387 C2395 0.930 . S
H2388 C2398 0.930 . S
H2389 C2399 0.930 1_655 S
C2390 H2384 0.930 1_455 S
C2390 C2391 1.355 . S
C2390 C2392 1.415 . S
C2391 C2390 1.355 . S
C2391 C2393 1.419 . S
C2392 C2390 1.415 . S
C2392 C2397 1.425 . S
C2392 C2399 1.409 . S
C2393 H2385 0.930 . S
C2393 C2391 1.419 . S
C2393 C2394 1.362 . S
C2394 H2386 0.930 . S
C2394 C2393 1.362 . S
C2394 C2397 1.409 . S
C2395 H2387 0.930 . S
C2395 C2396 1.355 . S
C2395 C2397 1.415 . S
C2396 C2395 1.355 . S
C2396 C2398 1.419 . S
C2397 C2392 1.425 . S
C2397 C2394 1.409 . S
C2397 C2395 1.415 . S
C2398 H2388 0.930 . S
C2398 C2396 1.419 . S
C2398 C2399 1.362 . S
C2399 H2389 0.930 1_455 S
C2399 C2392 1.409 . S
C2399 C2398 1.362 . S
H2400 C2406 0.930 . S
H2401 C2409 0.930 . S
H2402 C2410 0.930 . S
H2403 C2411 0.930 . S
H2404 C2414 0.930 . S
H2405 C2415 0.930 . S
C2406 H2400 0.930 . S
C2406 C2407 1.355 . S
C2406 C2408 1.415 . S
C2407 C2406 1.355 . S
C2407 C2409 1.419 . S
C2408 C2406 1.415 . S
C2408 C2413 1.425 . S
C2408 C2415 1.409 . S
C2409 H2401 0.930 . S
C2409 C2407 1.419 . S
C2409 C2410 1.362 . S
C2410 H2402 0.930 . S
C2410 C2409 1.362 . S
C2410 C2413 1.409 . S
C2411 H2403 0.930 . S
C2411 C2412 1.355 . S
C2411 C2413 1.415 . S
C2412 C2411 1.355 . S
C2412 C2414 1.419 . S
C2413 C2408 1.425 . S
C2413 C2410 1.409 . S
C2413 C2411 1.415 . S
C2414 H2404 0.930 . S
C2414 C2412 1.419 . S
C2414 C2415 1.362 . S
C2415 H2405 0.930 . S
C2415 C2408 1.409 . S
C2415 C2414 1.362 . S
H2416 C2422 0.930 . S
H2417 C2425 0.930 . S
H2418 C2426 0.930 . S
H2419 C2427 0.930 . S
H2420 C2430 0.930 . S
H2421 C2431 0.930 . S
C2422 H2416 0.930 . S
C2422 C2423 1.355 . S
C2422 C2424 1.415 . S
C2423 C2422 1.355 . S
C2423 C2425 1.419 . S
C2424 C2422 1.415 . S
C2424 C2429 1.425 . S
C2424 C2431 1.409 . S
C2425 H2417 0.930 . S
C2425 C2423 1.419 . S
C2425 C2426 1.362 . S
C2426 H2418 0.930 . S
C2426 C2425 1.362 . S
C2426 C2429 1.409 . S
C2427 H2419 0.930 . S
C2427 C2428 1.355 . S
C2427 C2429 1.415 . S
C2428 C2427 1.355 . S
C2428 C2430 1.419 . S
C2429 C2424 1.425 . S
C2429 C2426 1.409 . S
C2429 C2427 1.415 . S
C2430 H2420 0.930 . S
C2430 C2428 1.419 . S
C2430 C2431 1.362 . S
C2431 H2421 0.930 . S
C2431 C2424 1.409 . S
C2431 C2430 1.362 . S
H2432 C2438 0.930 1_554 S
H2433 C2441 0.930 . S
H2434 C2442 0.930 . S
H2435 C2443 0.930 . S
H2436 C2446 0.930 . S
H2437 C2447 0.907 1_554 S
C2438 H2432 0.930 1_556 S
C2438 C2439 1.355 . S
C2438 C2440 1.415 . S
C2439 C2438 1.355 . S
C2439 C2441 1.419 . S
C2440 C2438 1.415 . S
C2440 C2445 1.425 . S
C2440 C2447 1.409 . S
C2441 H2433 0.930 . S
C2441 C2439 1.419 . S
C2441 C2442 1.362 . S
C2442 H2434 0.930 . S
C2442 C2441 1.362 . S
C2442 C2445 1.409 . S
C2443 H2435 0.930 . S
C2443 C2444 1.355 . S
C2443 C2445 1.415 . S
C2444 C2443 1.355 . S
C2444 C2446 1.419 . S
C2445 C2440 1.425 . S
C2445 C2442 1.409 . S
C2445 C2443 1.415 . S
C2446 H2436 0.930 . S
C2446 C2444 1.419 . S
C2446 C2447 1.362 . S
C2447 H2437 0.907 1_556 S
C2447 C2440 1.409 . S
C2447 C2446 1.362 . S
H2448 C2454 0.930 . S
H2449 C2457 0.930 . S
H2450 C2458 0.930 . S
H2451 C2459 0.930 . S
H2452 C2462 0.930 1_655 S
H2453 C2463 0.930 . S
C2454 H2448 0.930 . S
C2454 C2455 1.355 . S
C2454 C2456 1.415 . S
C2455 C2454 1.355 . S
C2455 C2457 1.419 . S
C2456 C2454 1.415 . S
C2456 C2461 1.425 . S
C2456 C2463 1.409 . S
C2457 H2449 0.930 . S
C2457 C2455 1.419 . S
C2457 C2458 1.362 . S
C2458 H2450 0.930 . S
C2458 C2457 1.362 . S
C2458 C2461 1.409 . S
C2459 H2451 0.930 . S
C2459 C2460 1.355 . S
C2459 C2461 1.415 . S
C2460 C2459 1.355 . S
C2460 C2462 1.419 . S
C2461 C2456 1.425 . S
C2461 C2458 1.409 . S
C2461 C2459 1.415 . S
C2462 H2452 0.930 1_455 S
C2462 C2460 1.419 . S
C2462 C2463 1.362 . S
C2463 H2453 0.930 . S
C2463 C2456 1.409 . S
C2463 C2462 1.362 . S
H2464 C2470 0.930 . S
H2465 C2473 0.930 . S
H2466 C2474 0.930 . S
H2467 C2475 0.930 . S
H2468 C2478 0.930 . S
H2469 C2479 0.930 . S
C2470 H2464 0.930 . S
C2470 C2471 1.355 . S
C2470 C2472 1.415 . S
C2471 C2470 1.355 . S
C2471 C2473 1.419 . S
C2472 C2470 1.415 . S
C2472 C2477 1.425 . S
C2472 C2479 1.409 . S
C2473 H2465 0.930 . S
C2473 C2471 1.419 . S
C2473 C2474 1.362 . S
C2474 H2466 0.930 . S
C2474 C2473 1.362 . S
C2474 C2477 1.409 . S
C2475 H2467 0.930 . S
C2475 C2476 1.355 . S
C2475 C2477 1.415 . S
C2476 C2475 1.355 . S
C2476 C2478 1.419 . S
C2477 C2472 1.425 . S
C2477 C2474 1.409 . S
C2477 C2475 1.415 . S
C2478 H2468 0.930 . S
C2478 C2476 1.419 . S
C2478 C2479 1.362 . S
C2479 H2469 0.930 . S
C2479 C2472 1.409 . S
C2479 C2478 1.362 . S
H2480 C2486 0.930 . S
H2481 C2489 0.930 . S
H2482 C2490 0.930 . S
H2483 C2491 0.930 . S
H2484 C2494 0.930 . S
H2485 C2495 0.930 . S
C2486 H2480 0.930 . S
C2486 C2487 1.355 . S
C2486 C2488 1.415 . S
C2487 C2486 1.355 . S
C2487 C2489 1.419 . S
C2488 C2486 1.415 . S
C2488 C2493 1.425 . S
C2488 C2495 1.409 . S
C2489 H2481 0.930 . S
C2489 C2487 1.419 . S
C2489 C2490 1.362 . S
C2490 H2482 0.930 . S
C2490 C2489 1.362 . S
C2490 C2493 1.409 . S
C2491 H2483 0.930 . S
C2491 C2492 1.355 . S
C2491 C2493 1.415 . S
C2492 C2491 1.355 . S
C2492 C2494 1.419 . S
C2493 C2488 1.425 . S
C2493 C2490 1.409 . S
C2493 C2491 1.415 . S
C2494 H2484 0.930 . S
C2494 C2492 1.419 . S
C2494 C2495 1.362 . S
C2495 H2485 0.930 . S
C2495 C2488 1.409 . S
C2495 C2494 1.362 . S
H2496 C2502 0.930 . S
H2497 C2505 0.930 . S
H2498 C2506 0.930 . S
H2499 C2507 0.930 1_556 S
H2500 C2510 0.930 . S
H2501 C2511 0.930 . S
C2502 H2496 0.930 . S
C2502 C2503 1.355 . S
C2502 C2504 1.415 . S
C2503 C2502 1.355 . S
C2503 C2505 1.419 . S
C2504 C2502 1.415 . S
C2504 C2509 1.425 . S
C2504 C2511 1.409 . S
C2505 H2497 0.930 . S
C2505 C2503 1.419 . S
C2505 C2506 1.362 . S
C2506 H2498 0.930 . S
C2506 C2505 1.362 . S
C2506 C2509 1.409 . S
C2507 H2499 0.930 1_554 S
C2507 C2508 1.355 . S
C2507 C2509 1.415 . S
C2508 C2507 1.355 . S
C2508 C2510 1.419 . S
C2509 C2504 1.425 . S
C2509 C2506 1.409 . S
C2509 C2507 1.415 . S
C2510 H2500 0.930 . S
C2510 C2508 1.419 . S
C2510 C2511 1.362 . S
C2511 H2501 0.930 . S
C2511 C2504 1.409 . S
C2511 C2510 1.362 . S
H2512 C2518 0.930 . S
H2513 C2521 0.930 . S
H2514 C2522 0.930 . S
H2515 C2523 0.930 1_565 S
H2516 C2526 0.930 . S
H2517 C2527 0.930 . S
C2518 H2512 0.930 . S
C2518 C2519 1.355 . S
C2518 C2520 1.415 . S
C2519 C2518 1.355 . S
C2519 C2521 1.419 . S
C2520 C2518 1.415 . S
C2520 C2525 1.425 . S
C2520 C2527 1.409 . S
C2521 H2513 0.930 . S
C2521 C2519 1.419 . S
C2521 C2522 1.362 . S
C2522 H2514 0.930 . S
C2522 C2521 1.362 . S
C2522 C2525 1.409 . S
C2523 H2515 0.930 1_545 S
C2523 C2524 1.355 . S
C2523 C2525 1.415 . S
C2524 C2523 1.355 . S
C2524 C2526 1.419 . S
C2525 C2520 1.425 . S
C2525 C2522 1.409 . S
C2525 C2523 1.415 . S
C2526 H2516 0.930 . S
C2526 C2524 1.419 . S
C2526 C2527 1.362 . S
C2527 H2517 0.930 . S
C2527 C2520 1.409 . S
C2527 C2526 1.362 . S
H2528 C2534 0.930 . S
H2529 C2537 0.930 . S
H2530 C2538 0.930 . S
H2531 C2539 0.930 1_545 S
H2532 C2542 0.930 . S
H2533 C2543 0.930 . S
C2534 H2528 0.930 . S
C2534 C2535 1.355 . S
C2534 C2536 1.415 . S
C2535 C2534 1.355 . S
C2535 C2537 1.419 . S
C2536 C2534 1.415 . S
C2536 C2541 1.425 . S
C2536 C2543 1.409 . S
C2537 H2529 0.930 . S
C2537 C2535 1.419 . S
C2537 C2538 1.362 . S
C2538 H2530 0.930 . S
C2538 C2537 1.362 . S
C2538 C2541 1.409 . S
C2539 H2531 0.930 1_565 S
C2539 C2540 1.355 . S
C2539 C2541 1.415 . S
C2540 C2539 1.355 . S
C2540 C2542 1.419 . S
C2541 C2536 1.425 . S
C2541 C2538 1.409 . S
C2541 C2539 1.415 . S
C2542 H2532 0.930 . S
C2542 C2540 1.419 . S
C2542 C2543 1.362 . S
C2543 H2533 0.930 . S
C2543 C2536 1.409 . S
C2543 C2542 1.362 . S
H2544 C2550 0.930 . S
H2545 C2553 0.930 . S
H2546 C2554 0.930 . S
H2547 C2555 0.930 . S
H2548 C2558 0.954 . S
H2549 C2559 0.930 . S
C2550 H2544 0.930 . S
C2550 C2551 1.355 . S
C2550 C2552 1.415 . S
C2551 C2550 1.355 . S
C2551 C2553 1.419 . S
C2552 C2550 1.415 . S
C2552 C2557 1.425 . S
C2552 C2559 1.409 . S
C2553 H2545 0.930 . S
C2553 C2551 1.419 . S
C2553 C2554 1.362 . S
C2554 H2546 0.930 . S
C2554 C2553 1.362 . S
C2554 C2557 1.409 . S
C2555 H2547 0.930 . S
C2555 C2556 1.355 . S
C2555 C2557 1.415 . S
C2556 C2555 1.355 . S
C2556 C2558 1.419 . S
C2557 C2552 1.425 . S
C2557 C2554 1.409 . S
C2557 C2555 1.415 . S
C2558 H2548 0.954 . S
C2558 C2556 1.419 . S
C2558 C2559 1.362 . S
C2559 H2549 0.930 . S
C2559 C2552 1.409 . S
C2559 C2558 1.362 . S
H2560 C2566 0.930 . S
H2561 C2569 0.930 . S
H2562 C2570 0.930 . S
H2563 C2571 0.930 . S
H2564 C2574 0.930 . S
H2565 C2575 0.930 . S
C2566 H2560 0.930 . S
C2566 C2567 1.355 . S
C2566 C2568 1.415 . S
C2567 C2566 1.355 . S
C2567 C2569 1.419 . S
C2568 C2566 1.415 . S
C2568 C2573 1.425 . S
C2568 C2575 1.409 . S
C2569 H2561 0.930 . S
C2569 C2567 1.419 . S
C2569 C2570 1.362 . S
C2570 H2562 0.930 . S
C2570 C2569 1.362 . S
C2570 C2573 1.409 . S
C2571 H2563 0.930 . S
C2571 C2572 1.355 . S
C2571 C2573 1.415 . S
C2572 C2571 1.355 . S
C2572 C2574 1.419 . S
C2573 C2568 1.425 . S
C2573 C2570 1.409 . S
C2573 C2571 1.415 . S
C2574 H2564 0.930 . S
C2574 C2572 1.419 . S
C2574 C2575 1.362 . S
C2575 H2565 0.930 . S
C2575 C2568 1.409 . S
C2575 C2574 1.362 . S
H2576 C2582 0.930 . S
H2577 C2585 0.930 . S
H2578 C2586 0.930 . S
H2579 C2587 0.931 1_554 S
H2580 C2590 0.930 . S
H2581 C2591 0.930 . S
C2582 H2576 0.930 . S
C2582 C2583 1.355 . S
C2582 C2584 1.415 . S
C2583 C2582 1.355 . S
C2583 C2585 1.419 . S
C2584 C2582 1.415 . S
C2584 C2589 1.425 . S
C2584 C2591 1.409 . S
C2585 H2577 0.930 . S
C2585 C2583 1.419 . S
C2585 C2586 1.362 . S
C2586 H2578 0.930 . S
C2586 C2585 1.362 . S
C2586 C2589 1.409 . S
C2587 H2579 0.931 1_556 S
C2587 C2588 1.355 . S
C2587 C2589 1.415 . S
C2588 C2587 1.355 . S
C2588 C2590 1.419 . S
C2589 C2584 1.425 . S
C2589 C2586 1.409 . S
C2589 C2587 1.415 . S
C2590 H2580 0.930 . S
C2590 C2588 1.419 . S
C2590 C2591 1.362 . S
C2591 H2581 0.930 . S
C2591 C2584 1.409 . S
C2591 C2590 1.362 . S
H2592 C2598 0.930 . S
H2593 C2601 0.930 . S
H2594 C2602 0.930 1_455 S
H2595 C2603 0.930 1_455 S
H2596 C2606 0.930 . S
H2597 C2607 0.930 . S
C2598 H2592 0.930 . S
C2598 C2599 1.355 . S
C2598 C2600 1.415 . S
C2599 C2598 1.355 . S
C2599 C2601 1.419 . S
C2600 C2598 1.415 . S
C2600 C2605 1.425 . S
C2600 C2607 1.409 . S
C2601 H2593 0.930 . S
C2601 C2599 1.419 . S
C2601 C2602 1.362 . S
C2602 H2594 0.930 1_655 S
C2602 C2601 1.362 . S
C2602 C2605 1.409 . S
C2603 H2595 0.930 1_655 S
C2603 C2604 1.355 . S
C2603 C2605 1.415 . S
C2604 C2603 1.355 . S
C2604 C2606 1.419 . S
C2605 C2600 1.425 . S
C2605 C2602 1.409 . S
C2605 C2603 1.415 . S
C2606 H2596 0.930 . S
C2606 C2604 1.419 . S
C2606 C2607 1.362 . S
C2607 H2597 0.930 . S
C2607 C2600 1.409 . S
C2607 C2606 1.362 . S
H2608 C2614 0.930 . S
H2609 C2617 0.930 . S
H2610 C2618 0.930 . S
H2611 C2619 0.930 . S
H2612 C2622 0.930 . S
H2613 C2623 0.930 . S
C2614 H2608 0.930 . S
C2614 C2615 1.355 . S
C2614 C2616 1.415 . S
C2615 C2614 1.355 . S
C2615 C2617 1.419 . S
C2616 C2614 1.415 . S
C2616 C2621 1.425 . S
C2616 C2623 1.409 . S
C2617 H2609 0.930 . S
C2617 C2615 1.419 . S
C2617 C2618 1.362 . S
C2618 H2610 0.930 . S
C2618 C2617 1.362 . S
C2618 C2621 1.409 . S
C2619 H2611 0.930 . S
C2619 C2620 1.355 . S
C2619 C2621 1.415 . S
C2620 C2619 1.355 . S
C2620 C2622 1.419 . S
C2621 C2616 1.425 . S
C2621 C2618 1.409 . S
C2621 C2619 1.415 . S
C2622 H2612 0.930 . S
C2622 C2620 1.419 . S
C2622 C2623 1.362 . S
C2623 H2613 0.930 . S
C2623 C2616 1.409 . S
C2623 C2622 1.362 . S
H2624 C2630 0.930 . S
H2625 C2633 0.930 . S
H2626 C2634 0.930 . S
H2627 C2635 0.930 . S
H2628 C2638 0.930 . S
H2629 C2639 0.930 . S
C2630 H2624 0.930 . S
C2630 C2631 1.355 . S
C2630 C2632 1.415 . S
C2631 C2630 1.355 . S
C2631 C2633 1.419 . S
C2632 C2630 1.415 . S
C2632 C2637 1.425 . S
C2632 C2639 1.409 1_655 S
C2633 H2625 0.930 . S
C2633 C2631 1.419 . S
C2633 C2634 1.362 . S
C2634 H2626 0.930 . S
C2634 C2633 1.362 . S
C2634 C2637 1.409 . S
C2635 H2627 0.930 . S
C2635 C2636 1.355 . S
C2635 C2637 1.415 . S
C2636 C2635 1.355 . S
C2636 C2638 1.419 1_655 S
C2637 C2632 1.425 . S
C2637 C2634 1.409 . S
C2637 C2635 1.415 . S
C2638 H2628 0.930 . S
C2638 C2636 1.419 1_455 S
C2638 C2639 1.362 . S
C2639 H2629 0.930 . S
C2639 C2632 1.409 1_455 S
C2639 C2638 1.362 . S
H2640 C2646 0.930 . S
H2641 C2649 0.930 . S
H2642 C2650 0.930 . S
H2643 C2651 0.930 . S
H2644 C2654 0.930 . S
H2645 C2655 0.930 . S
C2646 H2640 0.930 . S
C2646 C2647 1.355 . S
C2646 C2648 1.415 . S
C2647 C2646 1.355 . S
C2647 C2649 1.419 . S
C2648 C2646 1.415 . S
C2648 C2653 1.425 . S
C2648 C2655 1.409 . S
C2649 H2641 0.930 . S
C2649 C2647 1.419 . S
C2649 C2650 1.362 . S
C2650 H2642 0.930 . S
C2650 C2649 1.362 . S
C2650 C2653 1.409 . S
C2651 H2643 0.930 . S
C2651 C2652 1.355 . S
C2651 C2653 1.415 . S
C2652 C2651 1.355 . S
C2652 C2654 1.419 . S
C2653 C2648 1.425 . S
C2653 C2650 1.409 . S
C2653 C2651 1.415 . S
C2654 H2644 0.930 . S
C2654 C2652 1.419 . S
C2654 C2655 1.362 . S
C2655 H2645 0.930 . S
C2655 C2648 1.409 . S
C2655 C2654 1.362 . S
H2656 C2662 0.930 . S
H2657 C2665 0.930 . S
H2658 C2666 0.930 . S
H2659 C2667 0.930 . S
H2660 C2670 0.930 . S
H2661 C2671 0.930 . S
C2662 H2656 0.930 . S
C2662 C2663 1.355 . S
C2662 C2664 1.415 . S
C2663 C2662 1.355 . S
C2663 C2665 1.419 . S
C2664 C2662 1.415 . S
C2664 C2669 1.425 . S
C2664 C2671 1.409 . S
C2665 H2657 0.930 . S
C2665 C2663 1.419 . S
C2665 C2666 1.362 . S
C2666 H2658 0.930 . S
C2666 C2665 1.362 . S
C2666 C2669 1.409 . S
C2667 H2659 0.930 . S
C2667 C2668 1.355 . S
C2667 C2669 1.415 . S
C2668 C2667 1.355 . S
C2668 C2670 1.419 . S
C2669 C2664 1.425 . S
C2669 C2666 1.409 . S
C2669 C2667 1.415 . S
C2670 H2660 0.930 . S
C2670 C2668 1.419 . S
C2670 C2671 1.362 . S
C2671 H2661 0.930 . S
C2671 C2664 1.409 . S
C2671 C2670 1.362 . S
H2672 C2678 0.930 . S
H2673 C2681 0.922 1_554 S
H2674 C2682 0.930 . S
H2675 C2683 0.930 . S
H2676 C2686 0.930 . S
H2677 C2687 0.930 . S
C2678 H2672 0.930 . S
C2678 C2679 1.355 . S
C2678 C2680 1.415 . S
C2679 C2678 1.355 . S
C2679 C2681 1.419 . S
C2680 C2678 1.415 . S
C2680 C2685 1.425 . S
C2680 C2687 1.409 . S
C2681 H2673 0.922 1_556 S
C2681 C2679 1.419 . S
C2681 C2682 1.362 . S
C2682 H2674 0.930 . S
C2682 C2681 1.362 . S
C2682 C2685 1.409 . S
C2683 H2675 0.930 . S
C2683 C2684 1.355 . S
C2683 C2685 1.415 . S
C2684 C2683 1.355 . S
C2684 C2686 1.419 . S
C2685 C2680 1.425 . S
C2685 C2682 1.409 . S
C2685 C2683 1.415 . S
C2686 H2676 0.930 . S
C2686 C2684 1.419 . S
C2686 C2687 1.362 . S
C2687 H2677 0.930 . S
C2687 C2680 1.409 . S
C2687 C2686 1.362 . S
H2688 C2694 0.930 . S
H2689 C2697 0.930 . S
H2690 C2698 0.930 . S
H2691 C2699 0.930 . S
H2692 C2702 0.930 . S
H2693 C2703 0.930 . S
C2694 H2688 0.930 . S
C2694 C2695 1.355 . S
C2694 C2696 1.415 . S
C2695 C2694 1.355 . S
C2695 C2697 1.419 . S
C2696 C2694 1.415 . S
C2696 C2701 1.425 . S
C2696 C2703 1.409 . S
C2697 H2689 0.930 . S
C2697 C2695 1.419 . S
C2697 C2698 1.362 . S
C2698 H2690 0.930 . S
C2698 C2697 1.362 . S
C2698 C2701 1.409 . S
C2699 H2691 0.930 . S
C2699 C2700 1.355 . S
C2699 C2701 1.415 . S
C2700 C2699 1.355 . S
C2700 C2702 1.419 . S
C2701 C2696 1.425 . S
C2701 C2698 1.409 . S
C2701 C2699 1.415 . S
C2702 H2692 0.930 . S
C2702 C2700 1.419 . S
C2702 C2703 1.362 . S
C2703 H2693 0.930 . S
C2703 C2696 1.409 . S
C2703 C2702 1.362 . S
H2704 C2710 0.930 . S
H2705 C2713 0.930 . S
H2706 C2714 0.930 . S
H2707 C2715 0.930 . S
H2708 C2718 0.930 . S
H2709 C2719 0.930 . S
C2710 H2704 0.930 . S
C2710 C2711 1.355 . S
C2710 C2712 1.415 . S
C2711 C2710 1.355 . S
C2711 C2713 1.419 . S
C2712 C2710 1.415 . S
C2712 C2717 1.425 . S
C2712 C2719 1.409 . S
C2713 H2705 0.930 . S
C2713 C2711 1.419 . S
C2713 C2714 1.362 . S
C2714 H2706 0.930 . S
C2714 C2713 1.362 . S
C2714 C2717 1.409 . S
C2715 H2707 0.930 . S
C2715 C2716 1.355 . S
C2715 C2717 1.415 . S
C2716 C2715 1.355 . S
C2716 C2718 1.419 . S
C2717 C2712 1.425 . S
C2717 C2714 1.409 . S
C2717 C2715 1.415 . S
C2718 H2708 0.930 . S
C2718 C2716 1.419 . S
C2718 C2719 1.362 . S
C2719 H2709 0.930 . S
C2719 C2712 1.409 . S
C2719 C2718 1.362 . S
H2720 C2726 0.930 . S
H2721 C2729 0.930 . S
H2722 C2730 0.930 . S
H2723 C2731 0.930 . S
H2724 C2734 0.930 . S
H2725 C2735 0.930 . S
C2726 H2720 0.930 . S
C2726 C2727 1.355 . S
C2726 C2728 1.415 . S
C2727 C2726 1.355 . S
C2727 C2729 1.419 . S
C2728 C2726 1.415 . S
C2728 C2733 1.425 . S
C2728 C2735 1.409 . S
C2729 H2721 0.930 . S
C2729 C2727 1.419 . S
C2729 C2730 1.362 . S
C2730 H2722 0.930 . S
C2730 C2729 1.362 . S
C2730 C2733 1.409 . S
C2731 H2723 0.930 . S
C2731 C2732 1.355 . S
C2731 C2733 1.415 . S
C2732 C2731 1.355 . S
C2732 C2734 1.419 . S
C2733 C2728 1.425 . S
C2733 C2730 1.409 . S
C2733 C2731 1.415 . S
C2734 H2724 0.930 . S
C2734 C2732 1.419 . S
C2734 C2735 1.362 . S
C2735 H2725 0.930 . S
C2735 C2728 1.409 . S
C2735 C2734 1.362 . S
H2736 C2742 0.930 . S
H2737 C2745 0.930 . S
H2738 C2746 0.930 . S
H2739 C2747 0.930 . S
H2740 C2750 0.930 . S
H2741 C2751 0.930 . S
C2742 H2736 0.930 . S
C2742 C2743 1.355 . S
C2742 C2744 1.415 . S
C2743 C2742 1.355 . S
C2743 C2745 1.419 . S
C2744 C2742 1.415 . S
C2744 C2749 1.425 . S
C2744 C2751 1.409 . S
C2745 H2737 0.930 . S
C2745 C2743 1.419 . S
C2745 C2746 1.362 . S
C2746 H2738 0.930 . S
C2746 C2745 1.362 . S
C2746 C2749 1.409 . S
C2747 H2739 0.930 . S
C2747 C2748 1.355 . S
C2747 C2749 1.415 . S
C2748 C2747 1.355 . S
C2748 C2750 1.419 . S
C2749 C2744 1.425 . S
C2749 C2746 1.409 . S
C2749 C2747 1.415 . S
C2750 H2740 0.930 . S
C2750 C2748 1.419 . S
C2750 C2751 1.362 . S
C2751 H2741 0.930 . S
C2751 C2744 1.409 . S
C2751 C2750 1.362 . S
H2752 C2758 0.930 . S
H2753 C2761 0.930 . S
H2754 C2762 0.930 . S
H2755 C2763 0.930 . S
H2756 C2766 0.930 . S
H2757 C2767 0.930 . S
C2758 H2752 0.930 . S
C2758 C2759 1.355 . S
C2758 C2760 1.415 . S
C2759 C2758 1.355 . S
C2759 C2761 1.419 . S
C2760 C2758 1.415 . S
C2760 C2765 1.425 . S
C2760 C2767 1.409 . S
C2761 H2753 0.930 . S
C2761 C2759 1.419 . S
C2761 C2762 1.362 . S
C2762 H2754 0.930 . S
C2762 C2761 1.362 . S
C2762 C2765 1.409 . S
C2763 H2755 0.930 . S
C2763 C2764 1.355 . S
C2763 C2765 1.415 . S
C2764 C2763 1.355 . S
C2764 C2766 1.419 . S
C2765 C2760 1.425 . S
C2765 C2762 1.409 . S
C2765 C2763 1.415 . S
C2766 H2756 0.930 . S
C2766 C2764 1.419 . S
C2766 C2767 1.362 . S
C2767 H2757 0.930 . S
C2767 C2760 1.409 . S
C2767 C2766 1.362 . S
H2768 C2774 0.930 . S
H2769 C2777 0.930 . S
H2770 C2778 0.930 . S
H2771 C2779 0.930 . S
H2772 C2782 0.930 . S
H2773 C2783 0.930 . S
C2774 H2768 0.930 . S
C2774 C2775 1.355 . S
C2774 C2776 1.415 . S
C2775 C2774 1.355 . S
C2775 C2777 1.419 . S
C2776 C2774 1.415 . S
C2776 C2781 1.425 . S
C2776 C2783 1.409 . S
C2777 H2769 0.930 . S
C2777 C2775 1.419 . S
C2777 C2778 1.362 . S
C2778 H2770 0.930 . S
C2778 C2777 1.362 . S
C2778 C2781 1.409 . S
C2779 H2771 0.930 . S
C2779 C2780 1.355 . S
C2779 C2781 1.415 . S
C2780 C2779 1.355 . S
C2780 C2782 1.419 . S
C2781 C2776 1.425 . S
C2781 C2778 1.409 . S
C2781 C2779 1.415 . S
C2782 H2772 0.930 . S
C2782 C2780 1.419 . S
C2782 C2783 1.362 . S
C2783 H2773 0.930 . S
C2783 C2776 1.409 . S
C2783 C2782 1.362 . S
H2784 C2790 0.930 . S
H2785 C2793 0.930 . S
H2786 C2794 0.930 . S
H2787 C2795 0.930 . S
H2788 C2798 0.953 . S
H2789 C2799 0.930 . S
C2790 H2784 0.930 . S
C2790 C2791 1.355 . S
C2790 C2792 1.415 . S
C2791 C2790 1.355 . S
C2791 C2793 1.419 . S
C2792 C2790 1.415 . S
C2792 C2797 1.425 . S
C2792 C2799 1.409 . S
C2793 H2785 0.930 . S
C2793 C2791 1.419 . S
C2793 C2794 1.362 . S
C2794 H2786 0.930 . S
C2794 C2793 1.362 . S
C2794 C2797 1.409 . S
C2795 H2787 0.930 . S
C2795 C2796 1.355 . S
C2795 C2797 1.415 . S
C2796 C2795 1.355 . S
C2796 C2798 1.419 . S
C2797 C2792 1.425 . S
C2797 C2794 1.409 . S
C2797 C2795 1.415 . S
C2798 H2788 0.953 . S
C2798 C2796 1.419 . S
C2798 C2799 1.362 . S
C2799 H2789 0.930 . S
C2799 C2792 1.409 . S
C2799 C2798 1.362 . S
H2800 C2806 0.930 . S
H2801 C2809 0.930 . S
H2802 C2810 0.930 . S
H2803 C2811 0.930 . S
H2804 C2814 0.930 . S
H2805 C2815 0.930 . S
C2806 H2800 0.930 . S
C2806 C2807 1.355 . S
C2806 C2808 1.415 . S
C2807 C2806 1.355 . S
C2807 C2809 1.419 . S
C2808 C2806 1.415 . S
C2808 C2813 1.425 . S
C2808 C2815 1.409 . S
C2809 H2801 0.930 . S
C2809 C2807 1.419 . S
C2809 C2810 1.362 . S
C2810 H2802 0.930 . S
C2810 C2809 1.362 . S
C2810 C2813 1.409 . S
C2811 H2803 0.930 . S
C2811 C2812 1.355 . S
C2811 C2813 1.415 . S
C2812 C2811 1.355 . S
C2812 C2814 1.419 . S
C2813 C2808 1.425 . S
C2813 C2810 1.409 . S
C2813 C2811 1.415 . S
C2814 H2804 0.930 . S
C2814 C2812 1.419 . S
C2814 C2815 1.362 . S
C2815 H2805 0.930 . S
C2815 C2808 1.409 . S
C2815 C2814 1.362 . S
H2816 C2822 0.930 . S
H2817 C2825 0.930 . S
H2818 C2826 0.930 . S
H2819 C2827 0.930 . S
H2820 C2830 0.930 . S
H2821 C2831 0.930 . S
C2822 H2816 0.930 . S
C2822 C2823 1.355 . S
C2822 C2824 1.415 . S
C2823 C2822 1.355 . S
C2823 C2825 1.419 . S
C2824 C2822 1.415 . S
C2824 C2829 1.425 . S
C2824 C2831 1.409 . S
C2825 H2817 0.930 . S
C2825 C2823 1.419 . S
C2825 C2826 1.362 . S
C2826 H2818 0.930 . S
C2826 C2825 1.362 . S
C2826 C2829 1.409 . S
C2827 H2819 0.930 . S
C2827 C2828 1.355 . S
C2827 C2829 1.415 . S
C2828 C2827 1.355 . S
C2828 C2830 1.419 . S
C2829 C2824 1.425 . S
C2829 C2826 1.409 . S
C2829 C2827 1.415 . S
C2830 H2820 0.930 . S
C2830 C2828 1.419 . S
C2830 C2831 1.362 . S
C2831 H2821 0.930 . S
C2831 C2824 1.409 . S
C2831 C2830 1.362 . S
H2832 C2838 0.930 . S
H2833 C2841 0.930 . S
H2834 C2842 0.930 . S
H2835 C2843 0.930 . S
H2836 C2846 0.930 . S
H2837 C2847 0.930 . S
C2838 H2832 0.930 . S
C2838 C2839 1.355 . S
C2838 C2840 1.415 . S
C2839 C2838 1.355 . S
C2839 C2841 1.419 . S
C2840 C2838 1.415 . S
C2840 C2845 1.425 . S
C2840 C2847 1.409 . S
C2841 H2833 0.930 . S
C2841 C2839 1.419 . S
C2841 C2842 1.362 . S
C2842 H2834 0.930 . S
C2842 C2841 1.362 . S
C2842 C2845 1.409 . S
C2843 H2835 0.930 . S
C2843 C2844 1.355 . S
C2843 C2845 1.415 . S
C2844 C2843 1.355 . S
C2844 C2846 1.419 . S
C2845 C2840 1.425 . S
C2845 C2842 1.409 . S
C2845 C2843 1.415 . S
C2846 H2836 0.930 . S
C2846 C2844 1.419 . S
C2846 C2847 1.362 . S
C2847 H2837 0.930 . S
C2847 C2840 1.409 . S
C2847 C2846 1.362 . S
H2848 C2854 0.930 . S
H2849 C2857 0.930 . S
H2850 C2858 0.930 . S
H2851 C2859 0.930 . S
H2852 C2862 0.930 . S
H2853 C2863 0.930 . S
C2854 H2848 0.930 . S
C2854 C2855 1.355 . S
C2854 C2856 1.415 . S
C2855 C2854 1.355 . S
C2855 C2857 1.419 . S
C2856 C2854 1.415 . S
C2856 C2861 1.425 . S
C2856 C2863 1.409 . S
C2857 H2849 0.930 . S
C2857 C2855 1.419 . S
C2857 C2858 1.362 . S
C2858 H2850 0.930 . S
C2858 C2857 1.362 . S
C2858 C2861 1.409 . S
C2859 H2851 0.930 . S
C2859 C2860 1.355 . S
C2859 C2861 1.415 . S
C2860 C2859 1.355 . S
C2860 C2862 1.419 . S
C2861 C2856 1.425 . S
C2861 C2858 1.409 . S
C2861 C2859 1.415 . S
C2862 H2852 0.930 . S
C2862 C2860 1.419 . S
C2862 C2863 1.362 . S
C2863 H2853 0.930 . S
C2863 C2856 1.409 . S
C2863 C2862 1.362 . S
H2864 C2870 0.930 . S
H2865 C2873 0.930 . S
H2866 C2874 0.930 . S
H2867 C2875 0.930 . S
H2868 C2878 0.930 . S
H2869 C2879 0.930 . S
C2870 H2864 0.930 . S
C2870 C2871 1.355 . S
C2870 C2872 1.415 . S
C2871 C2870 1.355 . S
C2871 C2873 1.419 . S
C2872 C2870 1.415 . S
C2872 C2877 1.425 . S
C2872 C2879 1.409 . S
C2873 H2865 0.930 . S
C2873 C2871 1.419 . S
C2873 C2874 1.362 . S
C2874 H2866 0.930 . S
C2874 C2873 1.362 . S
C2874 C2877 1.409 . S
C2875 H2867 0.930 . S
C2875 C2876 1.355 . S
C2875 C2877 1.415 . S
C2876 C2875 1.355 . S
C2876 C2878 1.419 . S
C2877 C2872 1.425 . S
C2877 C2874 1.409 . S
C2877 C2875 1.415 . S
C2878 H2868 0.930 . S
C2878 C2876 1.419 . S
C2878 C2879 1.362 . S
C2879 H2869 0.930 . S
C2879 C2872 1.409 . S
C2879 C2878 1.362 . S
H2880 C2886 0.930 . S
H2881 C2889 0.930 . S
H2882 C2890 0.930 . S
H2883 C2891 0.930 . S
H2884 C2894 0.930 . S
H2885 C2895 0.930 . S
C2886 H2880 0.930 . S
C2886 C2887 1.355 . S
C2886 C2888 1.415 . S
C2887 C2886 1.355 . S
C2887 C2889 1.419 . S
C2888 C2886 1.415 . S
C2888 C2893 1.425 . S
C2888 C2895 1.409 . S
C2889 H2881 0.930 . S
C2889 C2887 1.419 . S
C2889 C2890 1.362 . S
C2890 H2882 0.930 . S
C2890 C2889 1.362 . S
C2890 C2893 1.409 . S
C2891 H2883 0.930 . S
C2891 C2892 1.355 . S
C2891 C2893 1.415 . S
C2892 C2891 1.355 . S
C2892 C2894 1.419 . S
C2893 C2888 1.425 . S
C2893 C2890 1.409 . S
C2893 C2891 1.415 . S
C2894 H2884 0.930 . S
C2894 C2892 1.419 . S
C2894 C2895 1.362 . S
C2895 H2885 0.930 . S
C2895 C2888 1.409 . S
C2895 C2894 1.362 . S
H2896 C2902 0.930 . S
H2897 C2905 0.930 . S
H2898 C2906 0.930 . S
H2899 C2907 0.930 . S
H2900 C2910 0.930 . S
H2901 C2911 0.930 . S
C2902 H2896 0.930 . S
C2902 C2903 1.355 . S
C2902 C2904 1.415 . S
C2903 C2902 1.355 . S
C2903 C2905 1.419 . S
C2904 C2902 1.415 . S
C2904 C2909 1.425 . S
C2904 C2911 1.409 . S
C2905 H2897 0.930 . S
C2905 C2903 1.419 . S
C2905 C2906 1.362 . S
C2906 H2898 0.930 . S
C2906 C2905 1.362 . S
C2906 C2909 1.409 . S
C2907 H2899 0.930 . S
C2907 C2908 1.355 . S
C2907 C2909 1.415 . S
C2908 C2907 1.355 . S
C2908 C2910 1.419 . S
C2909 C2904 1.425 . S
C2909 C2906 1.409 . S
C2909 C2907 1.415 . S
C2910 H2900 0.930 . S
C2910 C2908 1.419 . S
C2910 C2911 1.362 . S
C2911 H2901 0.930 . S
C2911 C2904 1.409 . S
C2911 C2910 1.362 . S
H2912 C2918 0.930 . S
H2913 C2921 0.930 . S
H2914 C2922 0.930 . S
H2915 C2923 0.930 . S
H2916 C2926 0.930 . S
H2917 C2927 0.930 . S
C2918 H2912 0.930 . S
C2918 C2919 1.355 . S
C2918 C2920 1.415 . S
C2919 C2918 1.355 . S
C2919 C2921 1.419 . S
C2920 C2918 1.415 . S
C2920 C2925 1.425 . S
C2920 C2927 1.409 . S
C2921 H2913 0.930 . S
C2921 C2919 1.419 . S
C2921 C2922 1.362 . S
C2922 H2914 0.930 . S
C2922 C2921 1.362 . S
C2922 C2925 1.409 . S
C2923 H2915 0.930 . S
C2923 C2924 1.355 . S
C2923 C2925 1.415 . S
C2924 C2923 1.355 . S
C2924 C2926 1.419 . S
C2925 C2920 1.425 . S
C2925 C2922 1.409 . S
C2925 C2923 1.415 . S
C2926 H2916 0.930 . S
C2926 C2924 1.419 . S
C2926 C2927 1.362 . S
C2927 H2917 0.930 . S
C2927 C2920 1.409 . S
C2927 C2926 1.362 . S
H2928 C2934 0.930 . S
H2929 C2937 0.930 . S
H2930 C2938 0.930 . S
H2931 C2939 0.930 . S
H2932 C2942 0.930 . S
H2933 C2943 0.930 . S
C2934 H2928 0.930 . S
C2934 C2935 1.355 . S
C2934 C2936 1.415 . S
C2935 C2934 1.355 . S
C2935 C2937 1.419 . S
C2936 C2934 1.415 . S
C2936 C2941 1.425 . S
C2936 C2943 1.409 . S
C2937 H2929 0.930 . S
C2937 C2935 1.419 . S
C2937 C2938 1.362 . S
C2938 H2930 0.930 . S
C2938 C2937 1.362 . S
C2938 C2941 1.409 . S
C2939 H2931 0.930 . S
C2939 C2940 1.355 . S
C2939 C2941 1.415 . S
C2940 C2939 1.355 . S
C2940 C2942 1.419 . S
C2941 C2936 1.425 . S
C2941 C2938 1.409 . S
C2941 C2939 1.415 . S
C2942 H2932 0.930 . S
C2942 C2940 1.419 . S
C2942 C2943 1.362 . S
C2943 H2933 0.930 . S
C2943 C2936 1.409 . S
C2943 C2942 1.362 . S
H2944 C2950 0.930 . S
H2945 C2953 0.930 . S
H2946 C2954 0.930 . S
H2947 C2955 0.930 . S
H2948 C2958 0.930 . S
H2949 C2959 0.930 . S
C2950 H2944 0.930 . S
C2950 C2951 1.355 . S
C2950 C2952 1.415 . S
C2951 C2950 1.355 . S
C2951 C2953 1.419 . S
C2952 C2950 1.415 . S
C2952 C2957 1.425 . S
C2952 C2959 1.409 . S
C2953 H2945 0.930 . S
C2953 C2951 1.419 . S
C2953 C2954 1.362 . S
C2954 H2946 0.930 . S
C2954 C2953 1.362 . S
C2954 C2957 1.409 . S
C2955 H2947 0.930 . S
C2955 C2956 1.355 . S
C2955 C2957 1.415 . S
C2956 C2955 1.355 . S
C2956 C2958 1.419 . S
C2957 C2952 1.425 . S
C2957 C2954 1.409 . S
C2957 C2955 1.415 . S
C2958 H2948 0.930 . S
C2958 C2956 1.419 . S
C2958 C2959 1.362 . S
C2959 H2949 0.930 . S
C2959 C2952 1.409 . S
C2959 C2958 1.362 . S
H2960 C2966 0.930 . S
H2961 C2969 0.930 . S
H2962 C2970 0.930 . S
H2963 C2971 0.930 . S
H2964 C2974 0.930 . S
H2965 C2975 0.930 . S
C2966 H2960 0.930 . S
C2966 C2967 1.355 . S
C2966 C2968 1.415 . S
C2967 C2966 1.355 . S
C2967 C2969 1.419 . S
C2968 C2966 1.415 . S
C2968 C2973 1.425 . S
C2968 C2975 1.409 . S
C2969 H2961 0.930 . S
C2969 C2967 1.419 . S
C2969 C2970 1.362 . S
C2970 H2962 0.930 . S
C2970 C2969 1.362 . S
C2970 C2973 1.409 . S
C2971 H2963 0.930 . S
C2971 C2972 1.355 . S
C2971 C2973 1.415 . S
C2972 C2971 1.355 . S
C2972 C2974 1.419 . S
C2973 C2968 1.425 . S
C2973 C2970 1.409 . S
C2973 C2971 1.415 . S
C2974 H2964 0.930 . S
C2974 C2972 1.419 . S
C2974 C2975 1.362 . S
C2975 H2965 0.930 . S
C2975 C2968 1.409 . S
C2975 C2974 1.362 . S
H2976 C2982 0.930 . S
H2977 C2985 0.930 . S
H2978 C2986 0.930 . S
H2979 C2987 0.930 . S
H2980 C2990 0.930 . S
H2981 C2991 0.930 . S
C2982 H2976 0.930 . S
C2982 C2983 1.355 . S
C2982 C2984 1.415 . S
C2983 C2982 1.355 . S
C2983 C2985 1.419 . S
C2984 C2982 1.415 . S
C2984 C2989 1.425 . S
C2984 C2991 1.409 . S
C2985 H2977 0.930 . S
C2985 C2983 1.419 . S
C2985 C2986 1.362 . S
C2986 H2978 0.930 . S
C2986 C2985 1.362 . S
C2986 C2989 1.409 . S
C2987 H2979 0.930 . S
C2987 C2988 1.355 . S
C2987 C2989 1.415 . S
C2988 C2987 1.355 . S
C2988 C2990 1.419 . S
C2989 C2984 1.425 . S
C2989 C2986 1.409 . S
C2989 C2987 1.415 . S
C2990 H2980 0.930 . S
C2990 C2988 1.419 . S
C2990 C2991 1.362 . S
C2991 H2981 0.930 . S
C2991 C2984 1.409 . S
C2991 C2990 1.362 . S
H2992 C2998 0.930 . S
H2993 C3001 0.930 . S
H2994 C3002 0.930 . S
H2995 C3003 0.930 . S
H2996 C3006 0.930 . S
H2997 C3007 0.930 . S
C2998 H2992 0.930 . S
C2998 C2999 1.355 . S
C2998 C3000 1.415 . S
C2999 C2998 1.355 . S
C2999 C3001 1.419 . S
C3000 C2998 1.415 . S
C3000 C3005 1.425 . S
C3000 C3007 1.409 . S
C3001 H2993 0.930 . S
C3001 C2999 1.419 . S
C3001 C3002 1.362 . S
C3002 H2994 0.930 . S
C3002 C3001 1.362 . S
C3002 C3005 1.409 . S
C3003 H2995 0.930 . S
C3003 C3004 1.355 . S
C3003 C3005 1.415 . S
C3004 C3003 1.355 . S
C3004 C3006 1.419 . S
C3005 C3000 1.425 . S
C3005 C3002 1.409 . S
C3005 C3003 1.415 . S
C3006 H2996 0.930 . S
C3006 C3004 1.419 . S
C3006 C3007 1.362 . S
C3007 H2997 0.930 . S
C3007 C3000 1.409 . S
C3007 C3006 1.362 . S
H3008 C3014 0.930 . S
H3009 C3017 0.930 . S
H3010 C3018 0.930 . S
H3011 C3019 0.930 . S
H3012 C3022 0.930 . S
H3013 C3023 0.930 . S
C3014 H3008 0.930 . S
C3014 C3015 1.355 . S
C3014 C3016 1.415 . S
C3015 C3014 1.355 . S
C3015 C3017 1.419 . S
C3016 C3014 1.415 . S
C3016 C3021 1.425 . S
C3016 C3023 1.409 . S
C3017 H3009 0.930 . S
C3017 C3015 1.419 . S
C3017 C3018 1.362 . S
C3018 H3010 0.930 . S
C3018 C3017 1.362 . S
C3018 C3021 1.409 . S
C3019 H3011 0.930 . S
C3019 C3020 1.355 . S
C3019 C3021 1.415 . S
C3020 C3019 1.355 . S
C3020 C3022 1.419 . S
C3021 C3016 1.425 . S
C3021 C3018 1.409 . S
C3021 C3019 1.415 . S
C3022 H3012 0.930 . S
C3022 C3020 1.419 . S
C3022 C3023 1.362 . S
C3023 H3013 0.930 . S
C3023 C3016 1.409 . S
C3023 C3022 1.362 . S
H3024 C3030 0.930 . S
H3025 C3033 0.930 . S
H3026 C3034 0.930 . S
H3027 C3035 0.930 . S
H3028 C3038 0.930 . S
H3029 C3039 0.930 . S
C3030 H3024 0.930 . S
C3030 C3031 1.355 . S
C3030 C3032 1.415 . S
C3031 C3030 1.355 . S
C3031 C3033 1.419 . S
C3032 C3030 1.415 . S
C3032 C3037 1.425 . S
C3032 C3039 1.409 . S
C3033 H3025 0.930 . S
C3033 C3031 1.419 . S
C3033 C3034 1.362 . S
C3034 H3026 0.930 . S
C3034 C3033 1.362 . S
C3034 C3037 1.409 . S
C3035 H3027 0.930 . S
C3035 C3036 1.355 . S
C3035 C3037 1.415 . S
C3036 C3035 1.355 . S
C3036 C3038 1.419 . S
C3037 C3032 1.425 . S
C3037 C3034 1.409 . S
C3037 C3035 1.415 . S
C3038 H3028 0.930 . S
C3038 C3036 1.419 . S
C3038 C3039 1.362 . S
C3039 H3029 0.930 . S
C3039 C3032 1.409 . S
C3039 C3038 1.362 . S
H3040 C3046 0.930 . S
H3041 C3049 0.930 . S
H3042 C3050 0.930 . S
H3043 C3051 0.930 . S
H3044 C3054 0.930 . S
H3045 C3055 0.930 . S
C3046 H3040 0.930 . S
C3046 C3047 1.355 . S
C3046 C3048 1.415 . S
C3047 C3046 1.355 . S
C3047 C3049 1.419 . S
C3048 C3046 1.415 . S
C3048 C3053 1.425 . S
C3048 C3055 1.409 . S
C3049 H3041 0.930 . S
C3049 C3047 1.419 . S
C3049 C3050 1.362 . S
C3050 H3042 0.930 . S
C3050 C3049 1.362 . S
C3050 C3053 1.409 . S
C3051 H3043 0.930 . S
C3051 C3052 1.355 . S
C3051 C3053 1.415 . S
C3052 C3051 1.355 . S
C3052 C3054 1.419 . S
C3053 C3048 1.425 . S
C3053 C3050 1.409 . S
C3053 C3051 1.415 . S
C3054 H3044 0.930 . S
C3054 C3052 1.419 . S
C3054 C3055 1.362 . S
C3055 H3045 0.930 . S
C3055 C3048 1.409 . S
C3055 C3054 1.362 . S
H3056 C3062 0.930 . S
H3057 C3065 0.930 . S
H3058 C3066 0.930 . S
H3059 C3067 0.930 . S
H3060 C3070 0.930 . S
H3061 C3071 0.930 . S
C3062 H3056 0.930 . S
C3062 C3063 1.355 . S
C3062 C3064 1.415 . S
C3063 C3062 1.355 . S
C3063 C3065 1.419 . S
C3064 C3062 1.415 . S
C3064 C3069 1.425 . S
C3064 C3071 1.409 . S
C3065 H3057 0.930 . S
C3065 C3063 1.419 . S
C3065 C3066 1.362 . S
C3066 H3058 0.930 . S
C3066 C3065 1.362 . S
C3066 C3069 1.409 . S
C3067 H3059 0.930 . S
C3067 C3068 1.355 . S
C3067 C3069 1.415 . S
C3068 C3067 1.355 . S
C3068 C3070 1.419 . S
C3069 C3064 1.425 . S
C3069 C3066 1.409 . S
C3069 C3067 1.415 . S
C3070 H3060 0.930 . S
C3070 C3068 1.419 . S
C3070 C3071 1.362 . S
C3071 H3061 0.930 . S
C3071 C3064 1.409 . S
C3071 C3070 1.362 . S
H3072 C3078 0.930 . S
H3073 C3081 0.930 . S
H3074 C3082 0.930 . S
H3075 C3083 0.930 . S
H3076 C3086 0.930 . S
H3077 C3087 0.930 . S
C3078 H3072 0.930 . S
C3078 C3079 1.355 . S
C3078 C3080 1.415 . S
C3079 C3078 1.355 . S
C3079 C3081 1.419 . S
C3080 C3078 1.415 . S
C3080 C3085 1.425 . S
C3080 C3087 1.409 . S
C3081 H3073 0.930 . S
C3081 C3079 1.419 . S
C3081 C3082 1.362 . S
C3082 H3074 0.930 . S
C3082 C3081 1.362 . S
C3082 C3085 1.409 . S
C3083 H3075 0.930 . S
C3083 C3084 1.355 . S
C3083 C3085 1.415 . S
C3084 C3083 1.355 . S
C3084 C3086 1.419 . S
C3085 C3080 1.425 . S
C3085 C3082 1.409 . S
C3085 C3083 1.415 . S
C3086 H3076 0.930 . S
C3086 C3084 1.419 . S
C3086 C3087 1.362 . S
C3087 H3077 0.930 . S
C3087 C3080 1.409 . S
C3087 C3086 1.362 . S
H3088 C3094 0.930 . S
H3089 C3097 0.930 . S
H3090 C3098 0.930 . S
H3091 C3099 0.930 . S
H3092 C3102 0.930 . S
H3093 C3103 0.930 . S
C3094 H3088 0.930 . S
C3094 C3095 1.355 . S
C3094 C3096 1.415 . S
C3095 C3094 1.355 . S
C3095 C3097 1.419 . S
C3096 C3094 1.415 . S
C3096 C3101 1.425 . S
C3096 C3103 1.409 . S
C3097 H3089 0.930 . S
C3097 C3095 1.419 . S
C3097 C3098 1.362 . S
C3098 H3090 0.930 . S
C3098 C3097 1.362 . S
C3098 C3101 1.409 . S
C3099 H3091 0.930 . S
C3099 C3100 1.355 . S
C3099 C3101 1.415 . S
C3100 C3099 1.355 . S
C3100 C3102 1.419 . S
C3101 C3096 1.425 . S
C3101 C3098 1.409 . S
C3101 C3099 1.415 . S
C3102 H3092 0.930 . S
C3102 C3100 1.419 . S
C3102 C3103 1.362 . S
C3103 H3093 0.930 . S
C3103 C3096 1.409 . S
C3103 C3102 1.362 . S
H3104 C3110 0.930 . S
H3105 C3113 0.930 . S
H3106 C3114 0.930 . S
H3107 C3115 0.930 . S
H3108 C3118 0.930 . S
H3109 C3119 0.930 . S
C3110 H3104 0.930 . S
C3110 C3111 1.355 . S
C3110 C3112 1.415 . S
C3111 C3110 1.355 . S
C3111 C3113 1.419 . S
C3112 C3110 1.415 . S
C3112 C3117 1.425 . S
C3112 C3119 1.409 . S
C3113 H3105 0.930 . S
C3113 C3111 1.419 . S
C3113 C3114 1.362 . S
C3114 H3106 0.930 . S
C3114 C3113 1.362 . S
C3114 C3117 1.409 . S
C3115 H3107 0.930 . S
C3115 C3116 1.355 . S
C3115 C3117 1.415 . S
C3116 C3115 1.355 . S
C3116 C3118 1.419 . S
C3117 C3112 1.425 . S
C3117 C3114 1.409 . S
C3117 C3115 1.415 . S
C3118 H3108 0.930 . S
C3118 C3116 1.419 . S
C3118 C3119 1.362 . S
C3119 H3109 0.930 . S
C3119 C3112 1.409 . S
C3119 C3118 1.362 . S
H3120 C3126 0.930 . S
H3121 C3129 0.930 . S
H3122 C3130 0.930 . S
H3123 C3131 0.930 . S
H3124 C3134 0.930 . S
H3125 C3135 0.930 . S
C3126 H3120 0.930 . S
C3126 C3127 1.355 . S
C3126 C3128 1.415 . S
C3127 C3126 1.355 . S
C3127 C3129 1.419 . S
C3128 C3126 1.415 . S
C3128 C3133 1.425 . S
C3128 C3135 1.409 . S
C3129 H3121 0.930 . S
C3129 C3127 1.419 . S
C3129 C3130 1.362 . S
C3130 H3122 0.930 . S
C3130 C3129 1.362 . S
C3130 C3133 1.409 . S
C3131 H3123 0.930 . S
C3131 C3132 1.355 . S
C3131 C3133 1.415 . S
C3132 C3131 1.355 . S
C3132 C3134 1.419 . S
C3133 C3128 1.425 . S
C3133 C3130 1.409 . S
C3133 C3131 1.415 . S
C3134 H3124 0.930 . S
C3134 C3132 1.419 . S
C3134 C3135 1.362 . S
C3135 H3125 0.930 . S
C3135 C3128 1.409 . S
C3135 C3134 1.362 . S
H3136 C3142 0.930 . S
H3137 C3145 0.930 . S
H3138 C3146 0.930 . S
H3139 C3147 0.930 . S
H3140 C3150 0.930 . S
H3141 C3151 0.930 . S
C3142 H3136 0.930 . S
C3142 C3143 1.355 . S
C3142 C3144 1.415 . S
C3143 C3142 1.355 . S
C3143 C3145 1.419 . S
C3144 C3142 1.415 . S
C3144 C3149 1.425 . S
C3144 C3151 1.409 . S
C3145 H3137 0.930 . S
C3145 C3143 1.419 . S
C3145 C3146 1.362 . S
C3146 H3138 0.930 . S
C3146 C3145 1.362 . S
C3146 C3149 1.409 . S
C3147 H3139 0.930 . S
C3147 C3148 1.355 . S
C3147 C3149 1.415 . S
C3148 C3147 1.355 . S
C3148 C3150 1.419 . S
C3149 C3144 1.425 . S
C3149 C3146 1.409 . S
C3149 C3147 1.415 . S
C3150 H3140 0.930 . S
C3150 C3148 1.419 . S
C3150 C3151 1.362 . S
C3151 H3141 0.930 . S
C3151 C3144 1.409 . S
C3151 C3150 1.362 . S
H3152 C3158 0.930 . S
H3153 C3161 0.930 . S
H3154 C3162 0.930 . S
H3155 C3163 0.930 . S
H3156 C3166 0.930 . S
H3157 C3167 0.930 . S
C3158 H3152 0.930 . S
C3158 C3159 1.355 . S
C3158 C3160 1.415 . S
C3159 C3158 1.355 . S
C3159 C3161 1.419 . S
C3160 C3158 1.415 . S
C3160 C3165 1.425 . S
C3160 C3167 1.409 . S
C3161 H3153 0.930 . S
C3161 C3159 1.419 . S
C3161 C3162 1.362 . S
C3162 H3154 0.930 . S
C3162 C3161 1.362 . S
C3162 C3165 1.409 . S
C3163 H3155 0.930 . S
C3163 C3164 1.355 . S
C3163 C3165 1.415 . S
C3164 C3163 1.355 . S
C3164 C3166 1.419 . S
C3165 C3160 1.425 . S
C3165 C3162 1.409 . S
C3165 C3163 1.415 . S
C3166 H3156 0.930 . S
C3166 C3164 1.419 . S
C3166 C3167 1.362 . S
C3167 H3157 0.930 . S
C3167 C3160 1.409 . S
C3167 C3166 1.362 . S
H3168 C3174 0.930 . S
H3169 C3177 0.930 . S
H3170 C3178 0.930 . S
H3171 C3179 0.930 . S
H3172 C3182 0.930 . S
H3173 C3183 0.930 . S
C3174 H3168 0.930 . S
C3174 C3175 1.355 . S
C3174 C3176 1.415 . S
C3175 C3174 1.355 . S
C3175 C3177 1.419 . S
C3176 C3174 1.415 . S
C3176 C3181 1.425 . S
C3176 C3183 1.409 . S
C3177 H3169 0.930 . S
C3177 C3175 1.419 . S
C3177 C3178 1.362 . S
C3178 H3170 0.930 . S
C3178 C3177 1.362 . S
C3178 C3181 1.409 . S
C3179 H3171 0.930 . S
C3179 C3180 1.355 . S
C3179 C3181 1.415 . S
C3180 C3179 1.355 . S
C3180 C3182 1.419 . S
C3181 C3176 1.425 . S
C3181 C3178 1.409 . S
C3181 C3179 1.415 . S
C3182 H3172 0.930 . S
C3182 C3180 1.419 . S
C3182 C3183 1.362 . S
C3183 H3173 0.930 . S
C3183 C3176 1.409 . S
C3183 C3182 1.362 . S
H3184 C3190 0.930 . S
H3185 C3193 0.930 . S
H3186 C3194 0.930 . S
H3187 C3195 0.930 . S
H3188 C3198 0.930 . S
H3189 C3199 0.930 . S
C3190 H3184 0.930 . S
C3190 C3191 1.355 . S
C3190 C3192 1.415 . S
C3191 C3190 1.355 . S
C3191 C3193 1.419 . S
C3192 C3190 1.415 . S
C3192 C3197 1.425 . S
C3192 C3199 1.409 . S
C3193 H3185 0.930 . S
C3193 C3191 1.419 . S
C3193 C3194 1.362 . S
C3194 H3186 0.930 . S
C3194 C3193 1.362 . S
C3194 C3197 1.409 . S
C3195 H3187 0.930 . S
C3195 C3196 1.355 . S
C3195 C3197 1.415 . S
C3196 C3195 1.355 . S
C3196 C3198 1.419 . S
C3197 C3192 1.425 . S
C3197 C3194 1.409 . S
C3197 C3195 1.415 . S
C3198 H3188 0.930 . S
C3198 C3196 1.419 . S
C3198 C3199 1.362 . S
C3199 H3189 0.930 . S
C3199 C3192 1.409 . S
C3199 C3198 1.362 . S
H3200 C3206 0.930 . S
H3201 C3209 0.930 . S
H3202 C3210 0.930 . S
H3203 C3211 0.930 . S
H3204 C3214 0.930 . S
H3205 C3215 0.930 . S
C3206 H3200 0.930 . S
C3206 C3207 1.355 . S
C3206 C3208 1.415 . S
C3207 C3206 1.355 . S
C3207 C3209 1.419 . S
C3208 C3206 1.415 . S
C3208 C3213 1.425 . S
C3208 C3215 1.409 . S
C3209 H3201 0.930 . S
C3209 C3207 1.419 . S
C3209 C3210 1.362 . S
C3210 H3202 0.930 . S
C3210 C3209 1.362 . S
C3210 C3213 1.409 . S
C3211 H3203 0.930 . S
C3211 C3212 1.355 . S
C3211 C3213 1.415 . S
C3212 C3211 1.355 . S
C3212 C3214 1.419 . S
C3213 C3208 1.425 . S
C3213 C3210 1.409 . S
C3213 C3211 1.415 . S
C3214 H3204 0.930 . S
C3214 C3212 1.419 . S
C3214 C3215 1.362 . S
C3215 H3205 0.930 . S
C3215 C3208 1.409 . S
C3215 C3214 1.362 . S
H3216 C3222 0.930 . S
H3217 C3225 0.930 . S
H3218 C3226 0.930 . S
H3219 C3227 0.930 . S
H3220 C3230 0.930 . S
H3221 C3231 0.930 . S
C3222 H3216 0.930 . S
C3222 C3223 1.355 . S
C3222 C3224 1.415 . S
C3223 C3222 1.355 . S
C3223 C3225 1.419 . S
C3224 C3222 1.415 . S
C3224 C3229 1.425 . S
C3224 C3231 1.409 . S
C3225 H3217 0.930 . S
C3225 C3223 1.419 . S
C3225 C3226 1.362 . S
C3226 H3218 0.930 . S
C3226 C3225 1.362 . S
C3226 C3229 1.409 . S
C3227 H3219 0.930 . S
C3227 C3228 1.355 . S
C3227 C3229 1.415 . S
C3228 C3227 1.355 . S
C3228 C3230 1.419 . S
C3229 C3224 1.425 . S
C3229 C3226 1.409 . S
C3229 C3227 1.415 . S
C3230 H3220 0.930 . S
C3230 C3228 1.419 . S
C3230 C3231 1.362 . S
C3231 H3221 0.930 . S
C3231 C3224 1.409 . S
C3231 C3230 1.362 . S
H3232 C3238 0.930 . S
H3233 C3241 0.930 . S
H3234 C3242 0.930 . S
H3235 C3243 0.930 . S
H3236 C3246 0.930 . S
H3237 C3247 0.930 . S
C3238 H3232 0.930 . S
C3238 C3239 1.355 . S
C3238 C3240 1.415 . S
C3239 C3238 1.355 . S
C3239 C3241 1.419 . S
C3240 C3238 1.415 . S
C3240 C3245 1.425 . S
C3240 C3247 1.409 . S
C3241 H3233 0.930 . S
C3241 C3239 1.419 . S
C3241 C3242 1.362 . S
C3242 H3234 0.930 . S
C3242 C3241 1.362 . S
C3242 C3245 1.409 . S
C3243 H3235 0.930 . S
C3243 C3244 1.355 . S
C3243 C3245 1.415 . S
C3244 C3243 1.355 . S
C3244 C3246 1.419 . S
C3245 C3240 1.425 . S
C3245 C3242 1.409 . S
C3245 C3243 1.415 . S
C3246 H3236 0.930 . S
C3246 C3244 1.419 . S
C3246 C3247 1.362 . S
C3247 H3237 0.930 . S
C3247 C3240 1.409 . S
C3247 C3246 1.362 . S
H3248 C3254 0.930 . S
H3249 C3257 0.930 . S
H3250 C3258 0.930 . S
H3251 C3259 0.930 . S
H3252 C3262 0.930 . S
H3253 C3263 0.930 . S
C3254 H3248 0.930 . S
C3254 C3255 1.355 . S
C3254 C3256 1.415 . S
C3255 C3254 1.355 . S
C3255 C3257 1.419 . S
C3256 C3254 1.415 . S
C3256 C3261 1.425 . S
C3256 C3263 1.409 . S
C3257 H3249 0.930 . S
C3257 C3255 1.419 . S
C3257 C3258 1.362 . S
C3258 H3250 0.930 . S
C3258 C3257 1.362 . S
C3258 C3261 1.409 . S
C3259 H3251 0.930 . S
C3259 C3260 1.355 . S
C3259 C3261 1.415 . S
C3260 C3259 1.355 . S
C3260 C3262 1.419 . S
C3261 C3256 1.425 . S
C3261 C3258 1.409 . S
C3261 C3259 1.415 . S
C3262 H3252 0.930 . S
C3262 C3260 1.419 . S
C3262 C3263 1.362 . S
C3263 H3253 0.930 . S
C3263 C3256 1.409 . S
C3263 C3262 1.362 . S
H3264 C3270 0.930 . S
H3265 C3273 0.930 . S
H3266 C3274 0.930 . S
H3267 C3275 0.930 . S
H3268 C3278 0.930 . S
H3269 C3279 0.930 . S
C3270 H3264 0.930 . S
C3270 C3271 1.355 . S
C3270 C3272 1.415 . S
C3271 C3270 1.355 . S
C3271 C3273 1.419 . S
C3272 C3270 1.415 . S
C3272 C3277 1.425 . S
C3272 C3279 1.409 . S
C3273 H3265 0.930 . S
C3273 C3271 1.419 . S
C3273 C3274 1.362 . S
C3274 H3266 0.930 . S
C3274 C3273 1.362 . S
C3274 C3277 1.409 . S
C3275 H3267 0.930 . S
C3275 C3276 1.355 . S
C3275 C3277 1.415 . S
C3276 C3275 1.355 . S
C3276 C3278 1.419 . S
C3277 C3272 1.425 . S
C3277 C3274 1.409 . S
C3277 C3275 1.415 . S
C3278 H3268 0.930 . S
C3278 C3276 1.419 . S
C3278 C3279 1.362 . S
C3279 H3269 0.930 . S
C3279 C3272 1.409 . S
C3279 C3278 1.362 . S
H3280 C3286 0.930 . S
H3281 C3289 0.930 . S
H3282 C3290 0.930 . S
H3283 C3291 0.930 . S
H3284 C3294 0.930 . S
H3285 C3295 0.930 . S
C3286 H3280 0.930 . S
C3286 C3287 1.355 . S
C3286 C3288 1.415 . S
C3287 C3286 1.355 . S
C3287 C3289 1.419 . S
C3288 C3286 1.415 . S
C3288 C3293 1.425 . S
C3288 C3295 1.409 . S
C3289 H3281 0.930 . S
C3289 C3287 1.419 . S
C3289 C3290 1.362 . S
C3290 H3282 0.930 . S
C3290 C3289 1.362 . S
C3290 C3293 1.409 . S
C3291 H3283 0.930 . S
C3291 C3292 1.355 . S
C3291 C3293 1.415 . S
C3292 C3291 1.355 . S
C3292 C3294 1.419 . S
C3293 C3288 1.425 . S
C3293 C3290 1.409 . S
C3293 C3291 1.415 . S
C3294 H3284 0.930 . S
C3294 C3292 1.419 . S
C3294 C3295 1.362 . S
C3295 H3285 0.930 . S
C3295 C3288 1.409 . S
C3295 C3294 1.362 . S
H3296 C3302 0.930 . S
H3297 C3305 0.930 . S
H3298 C3306 0.930 . S
H3299 C3307 0.930 . S
H3300 C3310 0.930 . S
H3301 C3311 0.930 . S
C3302 H3296 0.930 . S
C3302 C3303 1.355 . S
C3302 C3304 1.415 . S
C3303 C3302 1.355 . S
C3303 C3305 1.419 . S
C3304 C3302 1.415 . S
C3304 C3309 1.425 . S
C3304 C3311 1.409 . S
C3305 H3297 0.930 . S
C3305 C3303 1.419 . S
C3305 C3306 1.362 . S
C3306 H3298 0.930 . S
C3306 C3305 1.362 . S
C3306 C3309 1.409 . S
C3307 H3299 0.930 . S
C3307 C3308 1.355 . S
C3307 C3309 1.415 . S
C3308 C3307 1.355 . S
C3308 C3310 1.419 . S
C3309 C3304 1.425 . S
C3309 C3306 1.409 . S
C3309 C3307 1.415 . S
C3310 H3300 0.930 . S
C3310 C3308 1.419 . S
C3310 C3311 1.362 . S
C3311 H3301 0.930 . S
C3311 C3304 1.409 . S
C3311 C3310 1.362 . S
H3312 C3318 0.930 . S
H3313 C3321 0.930 . S
H3314 C3322 0.930 . S
H3315 C3323 0.930 . S
H3316 C3326 0.930 . S
H3317 C3327 0.930 . S
C3318 H3312 0.930 . S
C3318 C3319 1.355 . S
C3318 C3320 1.415 . S
C3319 C3318 1.355 . S
C3319 C3321 1.419 . S
C3320 C3318 1.415 . S
C3320 C3325 1.425 . S
C3320 C3327 1.409 . S
C3321 H3313 0.930 . S
C3321 C3319 1.419 . S
C3321 C3322 1.362 . S
C3322 H3314 0.930 . S
C3322 C3321 1.362 . S
C3322 C3325 1.409 . S
C3323 H3315 0.930 . S
C3323 C3324 1.355 . S
C3323 C3325 1.415 . S
C3324 C3323 1.355 . S
C3324 C3326 1.419 . S
C3325 C3320 1.425 . S
C3325 C3322 1.409 . S
C3325 C3323 1.415 . S
C3326 H3316 0.930 . S
C3326 C3324 1.419 . S
C3326 C3327 1.362 . S
C3327 H3317 0.930 . S
C3327 C3320 1.409 . S
C3327 C3326 1.362 . S
H3328 C3334 0.930 . S
H3329 C3337 0.930 . S
H3330 C3338 0.930 . S
H3331 C3339 0.930 . S
H3332 C3342 0.930 . S
H3333 C3343 0.930 . S
C3334 H3328 0.930 . S
C3334 C3335 1.355 . S
C3334 C3336 1.415 . S
C3335 C3334 1.355 . S
C3335 C3337 1.419 . S
C3336 C3334 1.415 . S
C3336 C3341 1.425 . S
C3336 C3343 1.409 . S
C3337 H3329 0.930 . S
C3337 C3335 1.419 . S
C3337 C3338 1.362 . S
C3338 H3330 0.930 . S
C3338 C3337 1.362 . S
C3338 C3341 1.409 . S
C3339 H3331 0.930 . S
C3339 C3340 1.355 . S
C3339 C3341 1.415 . S
C3340 C3339 1.355 . S
C3340 C3342 1.419 . S
C3341 C3336 1.425 . S
C3341 C3338 1.409 . S
C3341 C3339 1.415 . S
C3342 H3332 0.930 . S
C3342 C3340 1.419 . S
C3342 C3343 1.362 . S
C3343 H3333 0.930 . S
C3343 C3336 1.409 . S
C3343 C3342 1.362 . S
H3344 C3350 0.930 . S
H3345 C3353 0.930 . S
H3346 C3354 0.930 . S
H3347 C3355 0.930 . S
H3348 C3358 0.930 . S
H3349 C3359 0.930 . S
C3350 H3344 0.930 . S
C3350 C3351 1.355 . S
C3350 C3352 1.415 . S
C3351 C3350 1.355 . S
C3351 C3353 1.419 . S
C3352 C3350 1.415 . S
C3352 C3357 1.425 . S
C3352 C3359 1.409 . S
C3353 H3345 0.930 . S
C3353 C3351 1.419 . S
C3353 C3354 1.362 . S
C3354 H3346 0.930 . S
C3354 C3353 1.362 . S
C3354 C3357 1.409 . S
C3355 H3347 0.930 . S
C3355 C3356 1.355 . S
C3355 C3357 1.415 . S
C3356 C3355 1.355 . S
C3356 C3358 1.419 . S
C3357 C3352 1.425 . S
C3357 C3354 1.409 . S
C3357 C3355 1.415 . S
C3358 H3348 0.930 . S
C3358 C3356 1.419 . S
C3358 C3359 1.362 . S
C3359 H3349 0.930 . S
C3359 C3352 1.409 . S
C3359 C3358 1.362 . S
H3360 C3366 0.930 . S
H3361 C3369 0.930 . S
H3362 C3370 0.930 . S
H3363 C3371 0.930 . S
H3364 C3374 0.930 . S
H3365 C3375 0.930 . S
C3366 H3360 0.930 . S
C3366 C3367 1.355 . S
C3366 C3368 1.415 . S
C3367 C3366 1.355 . S
C3367 C3369 1.419 . S
C3368 C3366 1.415 . S
C3368 C3373 1.425 . S
C3368 C3375 1.409 . S
C3369 H3361 0.930 . S
C3369 C3367 1.419 . S
C3369 C3370 1.362 . S
C3370 H3362 0.930 . S
C3370 C3369 1.362 . S
C3370 C3373 1.409 . S
C3371 H3363 0.930 . S
C3371 C3372 1.355 . S
C3371 C3373 1.415 . S
C3372 C3371 1.355 . S
C3372 C3374 1.419 . S
C3373 C3368 1.425 . S
C3373 C3370 1.409 . S
C3373 C3371 1.415 . S
C3374 H3364 0.930 . S
C3374 C3372 1.419 . S
C3374 C3375 1.362 . S
C3375 H3365 0.930 . S
C3375 C3368 1.409 . S
C3375 C3374 1.362 . S
H3376 C3382 0.930 . S
H3377 C3385 0.930 . S
H3378 C3386 0.930 . S
H3379 C3387 0.930 . S
H3380 C3390 0.930 . S
H3381 C3391 0.930 . S
C3382 H3376 0.930 . S
C3382 C3383 1.355 . S
C3382 C3384 1.415 . S
C3383 C3382 1.355 . S
C3383 C3385 1.419 . S
C3384 C3382 1.415 . S
C3384 C3389 1.425 . S
C3384 C3391 1.409 . S
C3385 H3377 0.930 . S
C3385 C3383 1.419 . S
C3385 C3386 1.362 . S
C3386 H3378 0.930 . S
C3386 C3385 1.362 . S
C3386 C3389 1.409 . S
C3387 H3379 0.930 . S
C3387 C3388 1.355 . S
C3387 C3389 1.415 . S
C3388 C3387 1.355 . S
C3388 C3390 1.419 . S
C3389 C3384 1.425 . S
C3389 C3386 1.409 . S
C3389 C3387 1.415 . S
C3390 H3380 0.930 . S
C3390 C3388 1.419 . S
C3390 C3391 1.362 . S
C3391 H3381 0.930 . S
C3391 C3384 1.409 . S
C3391 C3390 1.362 . S
H3392 C3398 0.930 . S
H3393 C3401 0.930 . S
H3394 C3402 0.930 . S
H3395 C3403 0.930 . S
H3396 C3406 0.930 . S
H3397 C3407 0.930 . S
C3398 H3392 0.930 . S
C3398 C3399 1.355 . S
C3398 C3400 1.415 . S
C3399 C3398 1.355 . S
C3399 C3401 1.419 . S
C3400 C3398 1.415 . S
C3400 C3405 1.425 . S
C3400 C3407 1.409 . S
C3401 H3393 0.930 . S
C3401 C3399 1.419 . S
C3401 C3402 1.362 . S
C3402 H3394 0.930 . S
C3402 C3401 1.362 . S
C3402 C3405 1.409 . S
C3403 H3395 0.930 . S
C3403 C3404 1.355 . S
C3403 C3405 1.415 . S
C3404 C3403 1.355 . S
C3404 C3406 1.419 . S
C3405 C3400 1.425 . S
C3405 C3402 1.409 . S
C3405 C3403 1.415 . S
C3406 H3396 0.930 . S
C3406 C3404 1.419 . S
C3406 C3407 1.362 . S
C3407 H3397 0.930 . S
C3407 C3400 1.409 . S
C3407 C3406 1.362 . S
H3408 C3414 0.930 . S
H3409 C3417 0.930 . S
H3410 C3418 0.930 . S
H3411 C3419 0.930 . S
H3412 C3422 0.930 . S
H3413 C3423 0.930 . S
C3414 H3408 0.930 . S
C3414 C3415 1.355 . S
C3414 C3416 1.415 . S
C3415 C3414 1.355 . S
C3415 C3417 1.419 . S
C3416 C3414 1.415 . S
C3416 C3421 1.425 . S
C3416 C3423 1.409 . S
C3417 H3409 0.930 . S
C3417 C3415 1.419 . S
C3417 C3418 1.362 . S
C3418 H3410 0.930 . S
C3418 C3417 1.362 . S
C3418 C3421 1.409 . S
C3419 H3411 0.930 . S
C3419 C3420 1.355 . S
C3419 C3421 1.415 . S
C3420 C3419 1.355 . S
C3420 C3422 1.419 . S
C3421 C3416 1.425 . S
C3421 C3418 1.409 . S
C3421 C3419 1.415 . S
C3422 H3412 0.930 . S
C3422 C3420 1.419 . S
C3422 C3423 1.362 . S
C3423 H3413 0.930 . S
C3423 C3416 1.409 . S
C3423 C3422 1.362 . S
H3424 C3430 0.930 . S
H3425 C3433 0.930 . S
H3426 C3434 0.930 . S
H3427 C3435 0.930 . S
H3428 C3438 0.930 . S
H3429 C3439 0.930 . S
C3430 H3424 0.930 . S
C3430 C3431 1.355 . S
C3430 C3432 1.415 . S
C3431 C3430 1.355 . S
C3431 C3433 1.419 . S
C3432 C3430 1.415 . S
C3432 C3437 1.425 . S
C3432 C3439 1.409 . S
C3433 H3425 0.930 . S
C3433 C3431 1.419 . S
C3433 C3434 1.362 . S
C3434 H3426 0.930 . S
C3434 C3433 1.362 . S
C3434 C3437 1.409 . S
C3435 H3427 0.930 . S
C3435 C3436 1.355 . S
C3435 C3437 1.415 . S
C3436 C3435 1.355 . S
C3436 C3438 1.419 . S
C3437 C3432 1.425 . S
C3437 C3434 1.409 . S
C3437 C3435 1.415 . S
C3438 H3428 0.930 . S
C3438 C3436 1.419 . S
C3438 C3439 1.362 . S
C3439 H3429 0.930 . S
C3439 C3432 1.409 . S
C3439 C3438 1.362 . S
H3440 C3446 0.930 . S
H3441 C3449 0.930 . S
H3442 C3450 0.930 . S
H3443 C3451 0.930 . S
H3444 C3454 0.930 . S
H3445 C3455 0.930 . S
C3446 H3440 0.930 . S
C3446 C3447 1.355 . S
C3446 C3448 1.415 . S
C3447 C3446 1.355 . S
C3447 C3449 1.419 . S
C3448 C3446 1.415 . S
C3448 C3453 1.425 . S
C3448 C3455 1.409 . S
C3449 H3441 0.930 . S
C3449 C3447 1.419 . S
C3449 C3450 1.362 . S
C3450 H3442 0.930 . S
C3450 C3449 1.362 . S
C3450 C3453 1.409 . S
C3451 H3443 0.930 . S
C3451 C3452 1.355 . S
C3451 C3453 1.415 . S
C3452 C3451 1.355 . S
C3452 C3454 1.419 . S
C3453 C3448 1.425 . S
C3453 C3450 1.409 . S
C3453 C3451 1.415 . S
C3454 H3444 0.930 . S
C3454 C3452 1.419 . S
C3454 C3455 1.362 . S
C3455 H3445 0.930 . S
C3455 C3448 1.409 . S
C3455 C3454 1.362 . S
H3456 C3462 0.930 . S
H3457 C3465 0.930 . S
H3458 C3466 0.930 . S
H3459 C3467 0.930 . S
H3460 C3470 0.930 . S
H3461 C3471 0.930 . S
C3462 H3456 0.930 . S
C3462 C3463 1.355 . S
C3462 C3464 1.415 . S
C3463 C3462 1.355 . S
C3463 C3465 1.419 . S
C3464 C3462 1.415 . S
C3464 C3469 1.425 . S
C3464 C3471 1.409 . S
C3465 H3457 0.930 . S
C3465 C3463 1.419 . S
C3465 C3466 1.362 . S
C3466 H3458 0.930 . S
C3466 C3465 1.362 . S
C3466 C3469 1.409 . S
C3467 H3459 0.930 . S
C3467 C3468 1.355 . S
C3467 C3469 1.415 . S
C3468 C3467 1.355 . S
C3468 C3470 1.419 . S
C3469 C3464 1.425 . S
C3469 C3466 1.409 . S
C3469 C3467 1.415 . S
C3470 H3460 0.930 . S
C3470 C3468 1.419 . S
C3470 C3471 1.362 . S
C3471 H3461 0.930 . S
C3471 C3464 1.409 . S
C3471 C3470 1.362 . S
H3472 C3478 0.930 . S
H3473 C3481 0.930 . S
H3474 C3482 0.930 . S
H3475 C3483 0.930 . S
H3476 C3486 0.930 . S
H3477 C3487 0.930 . S
C3478 H3472 0.930 . S
C3478 C3479 1.355 . S
C3478 C3480 1.415 . S
C3479 C3478 1.355 . S
C3479 C3481 1.419 . S
C3480 C3478 1.415 . S
C3480 C3485 1.425 . S
C3480 C3487 1.409 . S
C3481 H3473 0.930 . S
C3481 C3479 1.419 . S
C3481 C3482 1.362 . S
C3482 H3474 0.930 . S
C3482 C3481 1.362 . S
C3482 C3485 1.409 . S
C3483 H3475 0.930 . S
C3483 C3484 1.355 . S
C3483 C3485 1.415 . S
C3484 C3483 1.355 . S
C3484 C3486 1.419 . S
C3485 C3480 1.425 . S
C3485 C3482 1.409 . S
C3485 C3483 1.415 . S
C3486 H3476 0.930 . S
C3486 C3484 1.419 . S
C3486 C3487 1.362 . S
C3487 H3477 0.930 . S
C3487 C3480 1.409 . S
C3487 C3486 1.362 . S
H3488 C3494 0.930 . S
H3489 C3497 0.930 . S
H3490 C3498 0.930 . S
H3491 C3499 0.930 . S
H3492 C3502 0.930 . S
H3493 C3503 0.930 . S
C3494 H3488 0.930 . S
C3494 C3495 1.355 . S
C3494 C3496 1.415 . S
C3495 C3494 1.355 . S
C3495 C3497 1.419 . S
C3496 C3494 1.415 . S
C3496 C3501 1.425 . S
C3496 C3503 1.409 . S
C3497 H3489 0.930 . S
C3497 C3495 1.419 . S
C3497 C3498 1.362 . S
C3498 H3490 0.930 . S
C3498 C3497 1.362 . S
C3498 C3501 1.409 . S
C3499 H3491 0.930 . S
C3499 C3500 1.355 . S
C3499 C3501 1.415 . S
C3500 C3499 1.355 . S
C3500 C3502 1.419 . S
C3501 C3496 1.425 . S
C3501 C3498 1.409 . S
C3501 C3499 1.415 . S
C3502 H3492 0.930 . S
C3502 C3500 1.419 . S
C3502 C3503 1.362 . S
C3503 H3493 0.930 . S
C3503 C3496 1.409 . S
C3503 C3502 1.362 . S
H3504 C3510 0.930 . S
H3505 C3513 0.930 . S
H3506 C3514 0.930 . S
H3507 C3515 0.930 . S
H3508 C3518 0.930 . S
H3509 C3519 0.930 . S
C3510 H3504 0.930 . S
C3510 C3511 1.355 . S
C3510 C3512 1.415 . S
C3511 C3510 1.355 . S
C3511 C3513 1.419 . S
C3512 C3510 1.415 . S
C3512 C3517 1.425 . S
C3512 C3519 1.409 . S
C3513 H3505 0.930 . S
C3513 C3511 1.419 . S
C3513 C3514 1.362 . S
C3514 H3506 0.930 . S
C3514 C3513 1.362 . S
C3514 C3517 1.409 . S
C3515 H3507 0.930 . S
C3515 C3516 1.355 . S
C3515 C3517 1.415 . S
C3516 C3515 1.355 . S
C3516 C3518 1.419 . S
C3517 C3512 1.425 . S
C3517 C3514 1.409 . S
C3517 C3515 1.415 . S
C3518 H3508 0.930 . S
C3518 C3516 1.419 . S
C3518 C3519 1.362 . S
C3519 H3509 0.930 . S
C3519 C3512 1.409 . S
C3519 C3518 1.362 . S
H3520 C3526 0.930 . S
H3521 C3529 0.930 . S
H3522 C3530 0.930 . S
H3523 C3531 0.930 . S
H3524 C3534 0.930 . S
H3525 C3535 0.930 . S
C3526 H3520 0.930 . S
C3526 C3527 1.355 . S
C3526 C3528 1.415 . S
C3527 C3526 1.355 . S
C3527 C3529 1.419 . S
C3528 C3526 1.415 . S
C3528 C3533 1.425 . S
C3528 C3535 1.409 . S
C3529 H3521 0.930 . S
C3529 C3527 1.419 . S
C3529 C3530 1.362 . S
C3530 H3522 0.930 . S
C3530 C3529 1.362 . S
C3530 C3533 1.409 . S
C3531 H3523 0.930 . S
C3531 C3532 1.355 . S
C3531 C3533 1.415 . S
C3532 C3531 1.355 . S
C3532 C3534 1.419 . S
C3533 C3528 1.425 . S
C3533 C3530 1.409 . S
C3533 C3531 1.415 . S
C3534 H3524 0.930 . S
C3534 C3532 1.419 . S
C3534 C3535 1.362 . S
C3535 H3525 0.930 . S
C3535 C3528 1.409 . S
C3535 C3534 1.362 . S
H3536 C3542 0.930 . S
H3537 C3545 0.930 . S
H3538 C3546 0.930 . S
H3539 C3547 0.930 . S
H3540 C3550 0.930 . S
H3541 C3551 0.930 . S
C3542 H3536 0.930 . S
C3542 C3543 1.355 . S
C3542 C3544 1.415 . S
C3543 C3542 1.355 . S
C3543 C3545 1.419 . S
C3544 C3542 1.415 . S
C3544 C3549 1.425 . S
C3544 C3551 1.409 . S
C3545 H3537 0.930 . S
C3545 C3543 1.419 . S
C3545 C3546 1.362 . S
C3546 H3538 0.930 . S
C3546 C3545 1.362 . S
C3546 C3549 1.409 . S
C3547 H3539 0.930 . S
C3547 C3548 1.355 . S
C3547 C3549 1.415 . S
C3548 C3547 1.355 . S
C3548 C3550 1.419 . S
C3549 C3544 1.425 . S
C3549 C3546 1.409 . S
C3549 C3547 1.415 . S
C3550 H3540 0.930 . S
C3550 C3548 1.419 . S
C3550 C3551 1.362 . S
C3551 H3541 0.930 . S
C3551 C3544 1.409 . S
C3551 C3550 1.362 . S
H3552 C3558 0.930 . S
H3553 C3561 0.930 . S
H3554 C3562 0.930 . S
H3555 C3563 0.930 . S
H3556 C3566 0.930 . S
H3557 C3567 0.930 . S
C3558 H3552 0.930 . S
C3558 C3559 1.355 . S
C3558 C3560 1.415 . S
C3559 C3558 1.355 . S
C3559 C3561 1.419 . S
C3560 C3558 1.415 . S
C3560 C3565 1.425 . S
C3560 C3567 1.409 . S
C3561 H3553 0.930 . S
C3561 C3559 1.419 . S
C3561 C3562 1.362 . S
C3562 H3554 0.930 . S
C3562 C3561 1.362 . S
C3562 C3565 1.409 . S
C3563 H3555 0.930 . S
C3563 C3564 1.355 . S
C3563 C3565 1.415 . S
C3564 C3563 1.355 . S
C3564 C3566 1.419 . S
C3565 C3560 1.425 . S
C3565 C3562 1.409 . S
C3565 C3563 1.415 . S
C3566 H3556 0.930 . S
C3566 C3564 1.419 . S
C3566 C3567 1.362 . S
C3567 H3557 0.930 . S
C3567 C3560 1.409 . S
C3567 C3566 1.362 . S
H3568 C3574 0.930 . S
H3569 C3577 0.930 . S
H3570 C3578 0.930 . S
H3571 C3579 0.930 . S
H3572 C3582 0.930 . S
H3573 C3583 0.930 . S
C3574 H3568 0.930 . S
C3574 C3575 1.355 . S
C3574 C3576 1.415 . S
C3575 C3574 1.355 . S
C3575 C3577 1.419 . S
C3576 C3574 1.415 . S
C3576 C3581 1.425 . S
C3576 C3583 1.409 . S
C3577 H3569 0.930 . S
C3577 C3575 1.419 . S
C3577 C3578 1.362 . S
C3578 H3570 0.930 . S
C3578 C3577 1.362 . S
C3578 C3581 1.409 . S
C3579 H3571 0.930 . S
C3579 C3580 1.355 . S
C3579 C3581 1.415 . S
C3580 C3579 1.355 . S
C3580 C3582 1.419 . S
C3581 C3576 1.425 . S
C3581 C3578 1.409 . S
C3581 C3579 1.415 . S
C3582 H3572 0.930 . S
C3582 C3580 1.419 . S
C3582 C3583 1.362 . S
C3583 H3573 0.930 . S
C3583 C3576 1.409 . S
C3583 C3582 1.362 . S
H3584 C3590 0.930 . S
H3585 C3593 0.930 . S
H3586 C3594 0.930 . S
H3587 C3595 0.930 . S
H3588 C3598 0.930 . S
H3589 C3599 0.930 . S
C3590 H3584 0.930 . S
C3590 C3591 1.355 . S
C3590 C3592 1.415 . S
C3591 C3590 1.355 . S
C3591 C3593 1.419 . S
C3592 C3590 1.415 . S
C3592 C3597 1.425 . S
C3592 C3599 1.409 . S
C3593 H3585 0.930 . S
C3593 C3591 1.419 . S
C3593 C3594 1.362 . S
C3594 H3586 0.930 . S
C3594 C3593 1.362 . S
C3594 C3597 1.409 . S
C3595 H3587 0.930 . S
C3595 C3596 1.355 . S
C3595 C3597 1.415 . S
C3596 C3595 1.355 . S
C3596 C3598 1.419 . S
C3597 C3592 1.425 . S
C3597 C3594 1.409 . S
C3597 C3595 1.415 . S
C3598 H3588 0.930 . S
C3598 C3596 1.419 . S
C3598 C3599 1.362 . S
C3599 H3589 0.930 . S
C3599 C3592 1.409 . S
C3599 C3598 1.362 . S
H3600 C3606 0.930 . S
H3601 C3609 0.930 . S
H3602 C3610 0.930 . S
H3603 C3611 0.930 . S
H3604 C3614 0.930 . S
H3605 C3615 0.930 . S
C3606 H3600 0.930 . S
C3606 C3607 1.355 . S
C3606 C3608 1.415 . S
C3607 C3606 1.355 . S
C3607 C3609 1.419 . S
C3608 C3606 1.415 . S
C3608 C3613 1.425 . S
C3608 C3615 1.409 . S
C3609 H3601 0.930 . S
C3609 C3607 1.419 . S
C3609 C3610 1.362 . S
C3610 H3602 0.930 . S
C3610 C3609 1.362 . S
C3610 C3613 1.409 . S
C3611 H3603 0.930 . S
C3611 C3612 1.355 . S
C3611 C3613 1.415 . S
C3612 C3611 1.355 . S
C3612 C3614 1.419 . S
C3613 C3608 1.425 . S
C3613 C3610 1.409 . S
C3613 C3611 1.415 . S
C3614 H3604 0.930 . S
C3614 C3612 1.419 . S
C3614 C3615 1.362 . S
C3615 H3605 0.930 . S
C3615 C3608 1.409 . S
C3615 C3614 1.362 . S
H3616 C3622 0.930 . S
H3617 C3625 0.930 . S
H3618 C3626 0.930 . S
H3619 C3627 0.930 . S
H3620 C3630 0.930 . S
H3621 C3631 0.930 . S
C3622 H3616 0.930 . S
C3622 C3623 1.355 . S
C3622 C3624 1.415 . S
C3623 C3622 1.355 . S
C3623 C3625 1.419 . S
C3624 C3622 1.415 . S
C3624 C3629 1.425 . S
C3624 C3631 1.409 . S
C3625 H3617 0.930 . S
C3625 C3623 1.419 . S
C3625 C3626 1.362 . S
C3626 H3618 0.930 . S
C3626 C3625 1.362 . S
C3626 C3629 1.409 . S
C3627 H3619 0.930 . S
C3627 C3628 1.355 . S
C3627 C3629 1.415 . S
C3628 C3627 1.355 . S
C3628 C3630 1.419 . S
C3629 C3624 1.425 . S
C3629 C3626 1.409 . S
C3629 C3627 1.415 . S
C3630 H3620 0.930 . S
C3630 C3628 1.419 . S
C3630 C3631 1.362 . S
C3631 H3621 0.930 . S
C3631 C3624 1.409 . S
C3631 C3630 1.362 . S
H3632 C3638 0.930 . S
H3633 C3641 0.930 . S
H3634 C3642 0.930 . S
H3635 C3643 0.930 . S
H3636 C3646 0.930 . S
H3637 C3647 0.930 . S
C3638 H3632 0.930 . S
C3638 C3639 1.355 . S
C3638 C3640 1.415 . S
C3639 C3638 1.355 . S
C3639 C3641 1.419 . S
C3640 C3638 1.415 . S
C3640 C3645 1.425 . S
C3640 C3647 1.409 . S
C3641 H3633 0.930 . S
C3641 C3639 1.419 . S
C3641 C3642 1.362 . S
C3642 H3634 0.930 . S
C3642 C3641 1.362 . S
C3642 C3645 1.409 . S
C3643 H3635 0.930 . S
C3643 C3644 1.355 . S
C3643 C3645 1.415 . S
C3644 C3643 1.355 . S
C3644 C3646 1.419 . S
C3645 C3640 1.425 . S
C3645 C3642 1.409 . S
C3645 C3643 1.415 . S
C3646 H3636 0.930 . S
C3646 C3644 1.419 . S
C3646 C3647 1.362 . S
C3647 H3637 0.930 . S
C3647 C3640 1.409 . S
C3647 C3646 1.362 . S
H3648 C3654 0.930 . S
H3649 C3657 0.930 . S
H3650 C3658 0.930 . S
H3651 C3659 0.930 . S
H3652 C3662 0.930 . S
H3653 C3663 0.930 . S
C3654 H3648 0.930 . S
C3654 C3655 1.355 . S
C3654 C3656 1.415 . S
C3655 C3654 1.355 . S
C3655 C3657 1.419 . S
C3656 C3654 1.415 . S
C3656 C3661 1.425 . S
C3656 C3663 1.409 . S
C3657 H3649 0.930 . S
C3657 C3655 1.419 . S
C3657 C3658 1.362 . S
C3658 H3650 0.930 . S
C3658 C3657 1.362 . S
C3658 C3661 1.409 . S
C3659 H3651 0.930 . S
C3659 C3660 1.355 . S
C3659 C3661 1.415 . S
C3660 C3659 1.355 . S
C3660 C3662 1.419 . S
C3661 C3656 1.425 . S
C3661 C3658 1.409 . S
C3661 C3659 1.415 . S
C3662 H3652 0.930 . S
C3662 C3660 1.419 . S
C3662 C3663 1.362 . S
C3663 H3653 0.930 . S
C3663 C3656 1.409 . S
C3663 C3662 1.362 . S
H3664 C3670 0.930 . S
H3665 C3673 0.930 . S
H3666 C3674 0.930 . S
H3667 C3675 0.930 . S
H3668 C3678 0.930 . S
H3669 C3679 0.930 . S
C3670 H3664 0.930 . S
C3670 C3671 1.355 . S
C3670 C3672 1.415 . S
C3671 C3670 1.355 . S
C3671 C3673 1.419 . S
C3672 C3670 1.415 . S
C3672 C3677 1.425 . S
C3672 C3679 1.409 . S
C3673 H3665 0.930 . S
C3673 C3671 1.419 . S
C3673 C3674 1.362 . S
C3674 H3666 0.930 . S
C3674 C3673 1.362 . S
C3674 C3677 1.409 . S
C3675 H3667 0.930 . S
C3675 C3676 1.355 . S
C3675 C3677 1.415 . S
C3676 C3675 1.355 . S
C3676 C3678 1.419 . S
C3677 C3672 1.425 . S
C3677 C3674 1.409 . S
C3677 C3675 1.415 . S
C3678 H3668 0.930 . S
C3678 C3676 1.419 . S
C3678 C3679 1.362 . S
C3679 H3669 0.930 . S
C3679 C3672 1.409 . S
C3679 C3678 1.362 . S
H3680 C3686 0.930 . S
H3681 C3689 0.930 . S
H3682 C3690 0.930 . S
H3683 C3691 0.930 . S
H3684 C3694 0.930 . S
H3685 C3695 0.930 . S
C3686 H3680 0.930 . S
C3686 C3687 1.355 . S
C3686 C3688 1.415 . S
C3687 C3686 1.355 . S
C3687 C3689 1.419 . S
C3688 C3686 1.415 . S
C3688 C3693 1.425 . S
C3688 C3695 1.409 . S
C3689 H3681 0.930 . S
C3689 C3687 1.419 . S
C3689 C3690 1.362 . S
C3690 H3682 0.930 . S
C3690 C3689 1.362 . S
C3690 C3693 1.409 . S
C3691 H3683 0.930 . S
C3691 C3692 1.355 . S
C3691 C3693 1.415 . S
C3692 C3691 1.355 . S
C3692 C3694 1.419 . S
C3693 C3688 1.425 . S
C3693 C3690 1.409 . S
C3693 C3691 1.415 . S
C3694 H3684 0.930 . S
C3694 C3692 1.419 . S
C3694 C3695 1.362 . S
C3695 H3685 0.930 . S
C3695 C3688 1.409 . S
C3695 C3694 1.362 . S
H3696 C3702 0.930 . S
H3697 C3705 0.930 . S
H3698 C3706 0.930 . S
H3699 C3707 0.930 . S
H3700 C3710 0.930 . S
H3701 C3711 0.930 . S
C3702 H3696 0.930 . S
C3702 C3703 1.355 . S
C3702 C3704 1.415 . S
C3703 C3702 1.355 . S
C3703 C3705 1.419 . S
C3704 C3702 1.415 . S
C3704 C3709 1.425 . S
C3704 C3711 1.409 . S
C3705 H3697 0.930 . S
C3705 C3703 1.419 . S
C3705 C3706 1.362 . S
C3706 H3698 0.930 . S
C3706 C3705 1.362 . S
C3706 C3709 1.409 . S
C3707 H3699 0.930 . S
C3707 C3708 1.355 . S
C3707 C3709 1.415 . S
C3708 C3707 1.355 . S
C3708 C3710 1.419 . S
C3709 C3704 1.425 . S
C3709 C3706 1.409 . S
C3709 C3707 1.415 . S
C3710 H3700 0.930 . S
C3710 C3708 1.419 . S
C3710 C3711 1.362 . S
C3711 H3701 0.930 . S
C3711 C3704 1.409 . S
C3711 C3710 1.362 . S
H3712 C3718 0.930 . S
H3713 C3721 0.930 . S
H3714 C3722 0.930 . S
H3715 C3723 0.930 . S
H3716 C3726 0.930 . S
H3717 C3727 0.930 . S
C3718 H3712 0.930 . S
C3718 C3719 1.355 . S
C3718 C3720 1.415 . S
C3719 C3718 1.355 . S
C3719 C3721 1.419 . S
C3720 C3718 1.415 . S
C3720 C3725 1.425 . S
C3720 C3727 1.409 . S
C3721 H3713 0.930 . S
C3721 C3719 1.419 . S
C3721 C3722 1.362 . S
C3722 H3714 0.930 . S
C3722 C3721 1.362 . S
C3722 C3725 1.409 . S
C3723 H3715 0.930 . S
C3723 C3724 1.355 . S
C3723 C3725 1.415 . S
C3724 C3723 1.355 . S
C3724 C3726 1.419 . S
C3725 C3720 1.425 . S
C3725 C3722 1.409 . S
C3725 C3723 1.415 . S
C3726 H3716 0.930 . S
C3726 C3724 1.419 . S
C3726 C3727 1.362 . S
C3727 H3717 0.930 . S
C3727 C3720 1.409 . S
C3727 C3726 1.362 . S
H3728 C3734 0.930 . S
H3729 C3737 0.930 . S
H3730 C3738 0.930 . S
H3731 C3739 0.930 . S
H3732 C3742 0.930 . S
H3733 C3743 0.930 . S
C3734 H3728 0.930 . S
C3734 C3735 1.355 . S
C3734 C3736 1.415 . S
C3735 C3734 1.355 . S
C3735 C3737 1.419 . S
C3736 C3734 1.415 . S
C3736 C3741 1.425 . S
C3736 C3743 1.409 . S
C3737 H3729 0.930 . S
C3737 C3735 1.419 . S
C3737 C3738 1.362 . S
C3738 H3730 0.930 . S
C3738 C3737 1.362 . S
C3738 C3741 1.409 . S
C3739 H3731 0.930 . S
C3739 C3740 1.355 . S
C3739 C3741 1.415 . S
C3740 C3739 1.355 . S
C3740 C3742 1.419 . S
C3741 C3736 1.425 . S
C3741 C3738 1.409 . S
C3741 C3739 1.415 . S
C3742 H3732 0.930 . S
C3742 C3740 1.419 . S
C3742 C3743 1.362 . S
C3743 H3733 0.930 . S
C3743 C3736 1.409 . S
C3743 C3742 1.362 . S
H3744 C3750 0.930 . S
H3745 C3753 0.930 . S
H3746 C3754 0.930 . S
H3747 C3755 0.930 . S
H3748 C3758 0.930 . S
H3749 C3759 0.930 . S
C3750 H3744 0.930 . S
C3750 C3751 1.355 . S
C3750 C3752 1.415 . S
C3751 C3750 1.355 . S
C3751 C3753 1.419 . S
C3752 C3750 1.415 . S
C3752 C3757 1.425 . S
C3752 C3759 1.409 . S
C3753 H3745 0.930 . S
C3753 C3751 1.419 . S
C3753 C3754 1.362 . S
C3754 H3746 0.930 . S
C3754 C3753 1.362 . S
C3754 C3757 1.409 . S
C3755 H3747 0.930 . S
C3755 C3756 1.355 . S
C3755 C3757 1.415 . S
C3756 C3755 1.355 . S
C3756 C3758 1.419 . S
C3757 C3752 1.425 . S
C3757 C3754 1.409 . S
C3757 C3755 1.415 . S
C3758 H3748 0.930 . S
C3758 C3756 1.419 . S
C3758 C3759 1.362 . S
C3759 H3749 0.930 . S
C3759 C3752 1.409 . S
C3759 C3758 1.362 . S
H3760 C3766 0.930 . S
H3761 C3769 0.930 . S
H3762 C3770 0.930 . S
H3763 C3771 0.930 . S
H3764 C3774 0.930 . S
H3765 C3775 0.930 . S
C3766 H3760 0.930 . S
C3766 C3767 1.355 . S
C3766 C3768 1.415 . S
C3767 C3766 1.355 . S
C3767 C3769 1.419 . S
C3768 C3766 1.415 . S
C3768 C3773 1.425 . S
C3768 C3775 1.409 . S
C3769 H3761 0.930 . S
C3769 C3767 1.419 . S
C3769 C3770 1.362 . S
C3770 H3762 0.930 . S
C3770 C3769 1.362 . S
C3770 C3773 1.409 . S
C3771 H3763 0.930 . S
C3771 C3772 1.355 . S
C3771 C3773 1.415 . S
C3772 C3771 1.355 . S
C3772 C3774 1.419 . S
C3773 C3768 1.425 . S
C3773 C3770 1.409 . S
C3773 C3771 1.415 . S
C3774 H3764 0.930 . S
C3774 C3772 1.419 . S
C3774 C3775 1.362 . S
C3775 H3765 0.930 . S
C3775 C3768 1.409 . S
C3775 C3774 1.362 . S
H3776 C3782 0.930 . S
H3777 C3785 0.930 . S
H3778 C3786 0.930 . S
H3779 C3787 0.930 . S
H3780 C3790 0.930 . S
H3781 C3791 0.930 . S
C3782 H3776 0.930 . S
C3782 C3783 1.355 . S
C3782 C3784 1.415 . S
C3783 C3782 1.355 . S
C3783 C3785 1.419 . S
C3784 C3782 1.415 . S
C3784 C3789 1.425 . S
C3784 C3791 1.409 . S
C3785 H3777 0.930 . S
C3785 C3783 1.419 . S
C3785 C3786 1.362 . S
C3786 H3778 0.930 . S
C3786 C3785 1.362 . S
C3786 C3789 1.409 . S
C3787 H3779 0.930 . S
C3787 C3788 1.355 . S
C3787 C3789 1.415 . S
C3788 C3787 1.355 . S
C3788 C3790 1.419 . S
C3789 C3784 1.425 . S
C3789 C3786 1.409 . S
C3789 C3787 1.415 . S
C3790 H3780 0.930 . S
C3790 C3788 1.419 . S
C3790 C3791 1.362 . S
C3791 H3781 0.930 . S
C3791 C3784 1.409 . S
C3791 C3790 1.362 . S
H3792 C3798 0.930 . S
H3793 C3801 0.930 . S
H3794 C3802 0.930 . S
H3795 C3803 0.930 . S
H3796 C3806 0.930 . S
H3797 C3807 0.930 . S
C3798 H3792 0.930 . S
C3798 C3799 1.355 . S
C3798 C3800 1.415 . S
C3799 C3798 1.355 . S
C3799 C3801 1.419 . S
C3800 C3798 1.415 . S
C3800 C3805 1.425 . S
C3800 C3807 1.409 . S
C3801 H3793 0.930 . S
C3801 C3799 1.419 . S
C3801 C3802 1.362 . S
C3802 H3794 0.930 . S
C3802 C3801 1.362 . S
C3802 C3805 1.409 . S
C3803 H3795 0.930 . S
C3803 C3804 1.355 . S
C3803 C3805 1.415 . S
C3804 C3803 1.355 . S
C3804 C3806 1.419 . S
C3805 C3800 1.425 . S
C3805 C3802 1.409 . S
C3805 C3803 1.415 . S
C3806 H3796 0.930 . S
C3806 C3804 1.419 . S
C3806 C3807 1.362 . S
C3807 H3797 0.930 . S
C3807 C3800 1.409 . S
C3807 C3806 1.362 . S
H3808 C3814 0.930 . S
H3809 C3817 0.930 . S
H3810 C3818 0.930 . S
H3811 C3819 0.930 . S
H3812 C3822 0.930 . S
H3813 C3823 0.930 . S
C3814 H3808 0.930 . S
C3814 C3815 1.355 . S
C3814 C3816 1.415 . S
C3815 C3814 1.355 . S
C3815 C3817 1.419 . S
C3816 C3814 1.415 . S
C3816 C3821 1.425 . S
C3816 C3823 1.409 . S
C3817 H3809 0.930 . S
C3817 C3815 1.419 . S
C3817 C3818 1.362 . S
C3818 H3810 0.930 . S
C3818 C3817 1.362 . S
C3818 C3821 1.409 . S
C3819 H3811 0.930 . S
C3819 C3820 1.355 . S
C3819 C3821 1.415 . S
C3820 C3819 1.355 . S
C3820 C3822 1.419 . S
C3821 C3816 1.425 . S
C3821 C3818 1.409 . S
C3821 C3819 1.415 . S
C3822 H3812 0.930 . S
C3822 C3820 1.419 . S
C3822 C3823 1.362 . S
C3823 H3813 0.930 . S
C3823 C3816 1.409 . S
C3823 C3822 1.362 . S
H3824 C3830 0.930 . S
H3825 C3833 0.930 . S
H3826 C3834 0.930 . S
H3827 C3835 0.930 . S
H3828 C3838 0.930 . S
H3829 C3839 0.930 . S
C3830 H3824 0.930 . S
C3830 C3831 1.355 . S
C3830 C3832 1.415 . S
C3831 C3830 1.355 . S
C3831 C3833 1.419 . S
C3832 C3830 1.415 . S
C3832 C3837 1.425 . S
C3832 C3839 1.409 . S
C3833 H3825 0.930 . S
C3833 C3831 1.419 . S
C3833 C3834 1.362 . S
C3834 H3826 0.930 . S
C3834 C3833 1.362 . S
C3834 C3837 1.409 . S
C3835 H3827 0.930 . S
C3835 C3836 1.355 . S
C3835 C3837 1.415 . S
C3836 C3835 1.355 . S
C3836 C3838 1.419 . S
C3837 C3832 1.425 . S
C3837 C3834 1.409 . S
C3837 C3835 1.415 . S
C3838 H3828 0.930 . S
C3838 C3836 1.419 . S
C3838 C3839 1.362 . S
C3839 H3829 0.930 . S
C3839 C3832 1.409 . S
C3839 C3838 1.362 . S
H3840 C3846 0.930 . S
H3841 C3849 0.930 . S
H3842 C3850 0.930 . S
H3843 C3851 0.930 . S
H3844 C3854 0.930 . S
H3845 C3855 0.930 . S
C3846 H3840 0.930 . S
C3846 C3847 1.355 . S
C3846 C3848 1.415 . S
C3847 C3846 1.355 . S
C3847 C3849 1.419 . S
C3848 C3846 1.415 . S
C3848 C3853 1.425 . S
C3848 C3855 1.409 . S
C3849 H3841 0.930 . S
C3849 C3847 1.419 . S
C3849 C3850 1.362 . S
C3850 H3842 0.930 . S
C3850 C3849 1.362 . S
C3850 C3853 1.409 . S
C3851 H3843 0.930 . S
C3851 C3852 1.355 . S
C3851 C3853 1.415 . S
C3852 C3851 1.355 . S
C3852 C3854 1.419 . S
C3853 C3848 1.425 . S
C3853 C3850 1.409 . S
C3853 C3851 1.415 . S
C3854 H3844 0.930 . S
C3854 C3852 1.419 . S
C3854 C3855 1.362 . S
C3855 H3845 0.930 . S
C3855 C3848 1.409 . S
C3855 C3854 1.362 . S
H3856 C3862 0.930 . S
H3857 C3865 0.930 . S
H3858 C3866 0.930 . S
H3859 C3867 0.930 . S
H3860 C3870 0.930 . S
H3861 C3871 0.930 . S
C3862 H3856 0.930 . S
C3862 C3863 1.355 . S
C3862 C3864 1.415 . S
C3863 C3862 1.355 . S
C3863 C3865 1.419 . S
C3864 C3862 1.415 . S
C3864 C3869 1.425 . S
C3864 C3871 1.409 . S
C3865 H3857 0.930 . S
C3865 C3863 1.419 . S
C3865 C3866 1.362 . S
C3866 H3858 0.930 . S
C3866 C3865 1.362 . S
C3866 C3869 1.409 . S
C3867 H3859 0.930 . S
C3867 C3868 1.355 . S
C3867 C3869 1.415 . S
C3868 C3867 1.355 . S
C3868 C3870 1.419 . S
C3869 C3864 1.425 . S
C3869 C3866 1.409 . S
C3869 C3867 1.415 . S
C3870 H3860 0.930 . S
C3870 C3868 1.419 . S
C3870 C3871 1.362 . S
C3871 H3861 0.930 . S
C3871 C3864 1.409 . S
C3871 C3870 1.362 . S
H3872 C3878 0.930 . S
H3873 C3881 0.930 . S
H3874 C3882 0.930 . S
H3875 C3883 0.930 . S
H3876 C3886 0.930 . S
H3877 C3887 0.930 . S
C3878 H3872 0.930 . S
C3878 C3879 1.355 . S
C3878 C3880 1.415 . S
C3879 C3878 1.355 . S
C3879 C3881 1.419 . S
C3880 C3878 1.415 . S
C3880 C3885 1.425 . S
C3880 C3887 1.409 . S
C3881 H3873 0.930 . S
C3881 C3879 1.419 . S
C3881 C3882 1.362 . S
C3882 H3874 0.930 . S
C3882 C3881 1.362 . S
C3882 C3885 1.409 . S
C3883 H3875 0.930 . S
C3883 C3884 1.355 . S
C3883 C3885 1.415 . S
C3884 C3883 1.355 . S
C3884 C3886 1.419 . S
C3885 C3880 1.425 . S
C3885 C3882 1.409 . S
C3885 C3883 1.415 . S
C3886 H3876 0.930 . S
C3886 C3884 1.419 . S
C3886 C3887 1.362 . S
C3887 H3877 0.930 . S
C3887 C3880 1.409 . S
C3887 C3886 1.362 . S
H3888 C3894 0.930 . S
H3889 C3897 0.930 . S
H3890 C3898 0.930 . S
H3891 C3899 0.930 . S
H3892 C3902 0.930 . S
H3893 C3903 0.930 . S
C3894 H3888 0.930 . S
C3894 C3895 1.355 . S
C3894 C3896 1.415 . S
C3895 C3894 1.355 . S
C3895 C3897 1.419 . S
C3896 C3894 1.415 . S
C3896 C3901 1.425 . S
C3896 C3903 1.409 . S
C3897 H3889 0.930 . S
C3897 C3895 1.419 . S
C3897 C3898 1.362 . S
C3898 H3890 0.930 . S
C3898 C3897 1.362 . S
C3898 C3901 1.409 . S
C3899 H3891 0.930 . S
C3899 C3900 1.355 . S
C3899 C3901 1.415 . S
C3900 C3899 1.355 . S
C3900 C3902 1.419 . S
C3901 C3896 1.425 . S
C3901 C3898 1.409 . S
C3901 C3899 1.415 . S
C3902 H3892 0.930 . S
C3902 C3900 1.419 . S
C3902 C3903 1.362 . S
C3903 H3893 0.930 . S
C3903 C3896 1.409 . S
C3903 C3902 1.362 . S
H3904 C3910 0.930 . S
H3905 C3913 0.930 . S
H3906 C3914 0.930 . S
H3907 C3915 0.930 . S
H3908 C3918 0.930 . S
H3909 C3919 0.930 . S
C3910 H3904 0.930 . S
C3910 C3911 1.355 . S
C3910 C3912 1.415 . S
C3911 C3910 1.355 . S
C3911 C3913 1.419 . S
C3912 C3910 1.415 . S
C3912 C3917 1.425 . S
C3912 C3919 1.409 . S
C3913 H3905 0.930 . S
C3913 C3911 1.419 . S
C3913 C3914 1.362 . S
C3914 H3906 0.930 . S
C3914 C3913 1.362 . S
C3914 C3917 1.409 . S
C3915 H3907 0.930 . S
C3915 C3916 1.355 . S
C3915 C3917 1.415 . S
C3916 C3915 1.355 . S
C3916 C3918 1.419 . S
C3917 C3912 1.425 . S
C3917 C3914 1.409 . S
C3917 C3915 1.415 . S
C3918 H3908 0.930 . S
C3918 C3916 1.419 . S
C3918 C3919 1.362 . S
C3919 H3909 0.930 . S
C3919 C3912 1.409 . S
C3919 C3918 1.362 . S
H3920 C3926 0.930 . S
H3921 C3929 0.930 . S
H3922 C3930 0.930 . S
H3923 C3931 0.930 . S
H3924 C3934 0.930 . S
H3925 C3935 0.930 . S
C3926 H3920 0.930 . S
C3926 C3927 1.355 . S
C3926 C3928 1.415 . S
C3927 C3926 1.355 . S
C3927 C3929 1.419 . S
C3928 C3926 1.415 . S
C3928 C3933 1.425 . S
C3928 C3935 1.409 . S
C3929 H3921 0.930 . S
C3929 C3927 1.419 . S
C3929 C3930 1.362 . S
C3930 H3922 0.930 . S
C3930 C3929 1.362 . S
C3930 C3933 1.409 . S
C3931 H3923 0.930 . S
C3931 C3932 1.355 . S
C3931 C3933 1.415 . S
C3932 C3931 1.355 . S
C3932 C3934 1.419 . S
C3933 C3928 1.425 . S
C3933 C3930 1.409 . S
C3933 C3931 1.415 . S
C3934 H3924 0.930 . S
C3934 C3932 1.419 . S
C3934 C3935 1.362 . S
C3935 H3925 0.930 . S
C3935 C3928 1.409 . S
C3935 C3934 1.362 . S
H3936 C3942 0.930 . S
H3937 C3945 0.930 . S
H3938 C3946 0.930 . S
H3939 C3947 0.930 . S
H3940 C3950 0.930 . S
H3941 C3951 0.930 . S
C3942 H3936 0.930 . S
C3942 C3943 1.355 . S
C3942 C3944 1.415 . S
C3943 C3942 1.355 . S
C3943 C3945 1.419 . S
C3944 C3942 1.415 . S
C3944 C3949 1.425 . S
C3944 C3951 1.409 . S
C3945 H3937 0.930 . S
C3945 C3943 1.419 . S
C3945 C3946 1.362 . S
C3946 H3938 0.930 . S
C3946 C3945 1.362 . S
C3946 C3949 1.409 . S
C3947 H3939 0.930 . S
C3947 C3948 1.355 . S
C3947 C3949 1.415 . S
C3948 C3947 1.355 . S
C3948 C3950 1.419 . S
C3949 C3944 1.425 . S
C3949 C3946 1.409 . S
C3949 C3947 1.415 . S
C3950 H3940 0.930 . S
C3950 C3948 1.419 . S
C3950 C3951 1.362 . S
C3951 H3941 0.930 . S
C3951 C3944 1.409 . S
C3951 C3950 1.362 . S
H3952 C3958 0.930 . S
H3953 C3961 0.930 . S
H3954 C3962 0.930 . S
H3955 C3963 0.930 . S
H3956 C3966 0.930 . S
H3957 C3967 0.930 . S
C3958 H3952 0.930 . S
C3958 C3959 1.355 . S
C3958 C3960 1.415 . S
C3959 C3958 1.355 . S
C3959 C3961 1.419 . S
C3960 C3958 1.415 . S
C3960 C3965 1.425 . S
C3960 C3967 1.409 . S
C3961 H3953 0.930 . S
C3961 C3959 1.419 . S
C3961 C3962 1.362 . S
C3962 H3954 0.930 . S
C3962 C3961 1.362 . S
C3962 C3965 1.409 . S
C3963 H3955 0.930 . S
C3963 C3964 1.355 . S
C3963 C3965 1.415 . S
C3964 C3963 1.355 . S
C3964 C3966 1.419 . S
C3965 C3960 1.425 . S
C3965 C3962 1.409 . S
C3965 C3963 1.415 . S
C3966 H3956 0.930 . S
C3966 C3964 1.419 . S
C3966 C3967 1.362 . S
C3967 H3957 0.930 . S
C3967 C3960 1.409 . S
C3967 C3966 1.362 . S
H3968 C3974 0.930 . S
H3969 C3977 0.930 . S
H3970 C3978 0.930 . S
H3971 C3979 0.930 . S
H3972 C3982 0.930 . S
H3973 C3983 0.930 . S
C3974 H3968 0.930 . S
C3974 C3975 1.355 . S
C3974 C3976 1.415 . S
C3975 C3974 1.355 . S
C3975 C3977 1.419 . S
C3976 C3974 1.415 . S
C3976 C3981 1.425 . S
C3976 C3983 1.409 . S
C3977 H3969 0.930 . S
C3977 C3975 1.419 . S
C3977 C3978 1.362 . S
C3978 H3970 0.930 . S
C3978 C3977 1.362 . S
C3978 C3981 1.409 . S
C3979 H3971 0.930 . S
C3979 C3980 1.355 . S
C3979 C3981 1.415 . S
C3980 C3979 1.355 . S
C3980 C3982 1.419 . S
C3981 C3976 1.425 . S
C3981 C3978 1.409 . S
C3981 C3979 1.415 . S
C3982 H3972 0.930 . S
C3982 C3980 1.419 . S
C3982 C3983 1.362 . S
C3983 H3973 0.930 . S
C3983 C3976 1.409 . S
C3983 C3982 1.362 . S
H3984 C3990 0.930 . S
H3985 C3993 0.930 . S
H3986 C3994 0.930 . S
H3987 C3995 0.930 . S
H3988 C3998 0.930 . S
H3989 C3999 0.930 . S
C3990 H3984 0.930 . S
C3990 C3991 1.355 . S
C3990 C3992 1.415 . S
C3991 C3990 1.355 . S
C3991 C3993 1.419 . S
C3992 C3990 1.415 . S
C3992 C3997 1.425 . S
C3992 C3999 1.409 . S
C3993 H3985 0.930 . S
C3993 C3991 1.419 . S
C3993 C3994 1.362 . S
C3994 H3986 0.930 . S
C3994 C3993 1.362 . S
C3994 C3997 1.409 . S
C3995 H3987 0.930 . S
C3995 C3996 1.355 . S
C3995 C3997 1.415 . S
C3996 C3995 1.355 . S
C3996 C3998 1.419 . S
C3997 C3992 1.425 . S
C3997 C3994 1.409 . S
C3997 C3995 1.415 . S
C3998 H3988 0.930 . S
C3998 C3996 1.419 . S
C3998 C3999 1.362 . S
C3999 H3989 0.930 . S
C3999 C3992 1.409 . S
C3999 C3998 1.362 . S
H4000 C4006 0.930 . S
H4001 C4009 0.930 . S
H4002 C4010 0.930 . S
H4003 C4011 0.930 . S
H4004 C4014 0.930 . S
H4005 C4015 0.930 . S
C4006 H4000 0.930 . S
C4006 C4007 1.355 . S
C4006 C4008 1.415 . S
C4007 C4006 1.355 . S
C4007 C4009 1.419 . S
C4008 C4006 1.415 . S
C4008 C4013 1.425 . S
C4008 C4015 1.409 . S
C4009 H4001 0.930 . S
C4009 C4007 1.419 . S
C4009 C4010 1.362 . S
C4010 H4002 0.930 . S
C4010 C4009 1.362 . S
C4010 C4013 1.409 . S
C4011 H4003 0.930 . S
C4011 C4012 1.355 . S
C4011 C4013 1.415 . S
C4012 C4011 1.355 . S
C4012 C4014 1.419 . S
C4013 C4008 1.425 . S
C4013 C4010 1.409 . S
C4013 C4011 1.415 . S
C4014 H4004 0.930 . S
C4014 C4012 1.419 . S
C4014 C4015 1.362 . S
C4015 H4005 0.930 . S
C4015 C4008 1.409 . S
C4015 C4014 1.362 . S
H4016 C4022 0.930 . S
H4017 C4025 0.930 . S
H4018 C4026 0.930 . S
H4019 C4027 0.930 . S
H4020 C4030 0.930 . S
H4021 C4031 0.930 . S
C4022 H4016 0.930 . S
C4022 C4023 1.355 . S
C4022 C4024 1.415 . S
C4023 C4022 1.355 . S
C4023 C4025 1.419 . S
C4024 C4022 1.415 . S
C4024 C4029 1.425 . S
C4024 C4031 1.409 . S
C4025 H4017 0.930 . S
C4025 C4023 1.419 . S
C4025 C4026 1.362 . S
C4026 H4018 0.930 . S
C4026 C4025 1.362 . S
C4026 C4029 1.409 . S
C4027 H4019 0.930 . S
C4027 C4028 1.355 . S
C4027 C4029 1.415 . S
C4028 C4027 1.355 . S
C4028 C4030 1.419 . S
C4029 C4024 1.425 . S
C4029 C4026 1.409 . S
C4029 C4027 1.415 . S
C4030 H4020 0.930 . S
C4030 C4028 1.419 . S
C4030 C4031 1.362 . S
C4031 H4021 0.930 . S
C4031 C4024 1.409 . S
C4031 C4030 1.362 . S
H4032 C4038 0.930 . S
H4033 C4041 0.930 . S
H4034 C4042 0.930 . S
H4035 C4043 0.930 . S
H4036 C4046 0.930 . S
H4037 C4047 0.930 . S
C4038 H4032 0.930 . S
C4038 C4039 1.355 . S
C4038 C4040 1.415 . S
C4039 C4038 1.355 . S
C4039 C4041 1.419 . S
C4040 C4038 1.415 . S
C4040 C4045 1.425 . S
C4040 C4047 1.409 . S
C4041 H4033 0.930 . S
C4041 C4039 1.419 . S
C4041 C4042 1.362 . S
C4042 H4034 0.930 . S
C4042 C4041 1.362 . S
C4042 C4045 1.409 . S
C4043 H4035 0.930 . S
C4043 C4044 1.355 . S
C4043 C4045 1.415 . S
C4044 C4043 1.355 . S
C4044 C4046 1.419 . S
C4045 C4040 1.425 . S
C4045 C4042 1.409 . S
C4045 C4043 1.415 . S
C4046 H4036 0.930 . S
C4046 C4044 1.419 . S
C4046 C4047 1.362 . S
C4047 H4037 0.930 . S
C4047 C4040 1.409 . S
C4047 C4046 1.362 . S
H4048 C4054 0.930 . S
H4049 C4057 0.930 . S
H4050 C4058 0.930 . S
H4051 C4059 0.930 . S
H4052 C4062 0.930 . S
H4053 C4063 0.930 . S
C4054 H4048 0.930 . S
C4054 C4055 1.355 . S
C4054 C4056 1.415 . S
C4055 C4054 1.355 . S
C4055 C4057 1.419 . S
C4056 C4054 1.415 . S
C4056 C4061 1.425 . S
C4056 C4063 1.409 . S
C4057 H4049 0.930 . S
C4057 C4055 1.419 . S
C4057 C4058 1.362 . S
C4058 H4050 0.930 . S
C4058 C4057 1.362 . S
C4058 C4061 1.409 . S
C4059 H4051 0.930 . S
C4059 C4060 1.355 . S
C4059 C4061 1.415 . S
C4060 C4059 1.355 . S
C4060 C4062 1.419 . S
C4061 C4056 1.425 . S
C4061 C4058 1.409 . S
C4061 C4059 1.415 . S
C4062 H4052 0.930 . S
C4062 C4060 1.419 . S
C4062 C4063 1.362 . S
C4063 H4053 0.930 . S
C4063 C4056 1.409 . S
C4063 C4062 1.362 . S
H4064 C4070 0.930 . S
H4065 C4073 0.930 . S
H4066 C4074 0.930 . S
H4067 C4075 0.930 . S
H4068 C4078 0.930 . S
H4069 C4079 0.930 . S
C4070 H4064 0.930 . S
C4070 C4071 1.355 . S
C4070 C4072 1.415 . S
C4071 C4070 1.355 . S
C4071 C4073 1.419 . S
C4072 C4070 1.415 . S
C4072 C4077 1.425 . S
C4072 C4079 1.409 . S
C4073 H4065 0.930 . S
C4073 C4071 1.419 . S
C4073 C4074 1.362 . S
C4074 H4066 0.930 . S
C4074 C4073 1.362 . S
C4074 C4077 1.409 . S
C4075 H4067 0.930 . S
C4075 C4076 1.355 . S
C4075 C4077 1.415 . S
C4076 C4075 1.355 . S
C4076 C4078 1.419 . S
C4077 C4072 1.425 . S
C4077 C4074 1.409 . S
C4077 C4075 1.415 . S
C4078 H4068 0.930 . S
C4078 C4076 1.419 . S
C4078 C4079 1.362 . S
C4079 H4069 0.930 . S
C4079 C4072 1.409 . S
C4079 C4078 1.362 . S
H4080 C4086 0.930 . S
H4081 C4089 0.930 . S
H4082 C4090 0.930 . S
H4083 C4091 0.930 . S
H4084 C4094 0.930 . S
H4085 C4095 0.930 . S
C4086 H4080 0.930 . S
C4086 C4087 1.355 . S
C4086 C4088 1.415 . S
C4087 C4086 1.355 . S
C4087 C4089 1.419 . S
C4088 C4086 1.415 . S
C4088 C4093 1.425 . S
C4088 C4095 1.409 . S
C4089 H4081 0.930 . S
C4089 C4087 1.419 . S
C4089 C4090 1.362 . S
C4090 H4082 0.930 . S
C4090 C4089 1.362 . S
C4090 C4093 1.409 . S
C4091 H4083 0.930 . S
C4091 C4092 1.355 . S
C4091 C4093 1.415 . S
C4092 C4091 1.355 . S
C4092 C4094 1.419 . S
C4093 C4088 1.425 . S
C4093 C4090 1.409 . S
C4093 C4091 1.415 . S
C4094 H4084 0.930 . S
C4094 C4092 1.419 . S
C4094 C4095 1.362 . S
C4095 H4085 0.930 . S
C4095 C4088 1.409 . S
C4095 C4094 1.362 . S
H4096 C4102 0.930 . S
H4097 C4105 0.930 . S
H4098 C4106 0.930 . S
H4099 C4107 0.930 . S
H4100 C4110 0.930 . S
H4101 C4111 0.930 . S
C4102 H4096 0.930 . S
C4102 C4103 1.355 . S
C4102 C4104 1.415 . S
C4103 C4102 1.355 . S
C4103 C4105 1.419 . S
C4104 C4102 1.415 . S
C4104 C4109 1.425 . S
C4104 C4111 1.409 . S
C4105 H4097 0.930 . S
C4105 C4103 1.419 . S
C4105 C4106 1.362 . S
C4106 H4098 0.930 . S
C4106 C4105 1.362 . S
C4106 C4109 1.409 . S
C4107 H4099 0.930 . S
C4107 C4108 1.355 . S
C4107 C4109 1.415 . S
C4108 C4107 1.355 . S
C4108 C4110 1.419 . S
C4109 C4104 1.425 . S
C4109 C4106 1.409 . S
C4109 C4107 1.415 . S
C4110 H4100 0.930 . S
C4110 C4108 1.419 . S
C4110 C4111 1.362 . S
C4111 H4101 0.930 . S
C4111 C4104 1.409 . S
C4111 C4110 1.362 . S
H4112 C4118 0.930 . S
H4113 C4121 0.930 . S
H4114 C4122 0.930 . S
H4115 C4123 0.930 . S
H4116 C4126 0.930 . S
H4117 C4127 0.930 . S
C4118 H4112 0.930 . S
C4118 C4119 1.355 . S
C4118 C4120 1.415 . S
C4119 C4118 1.355 . S
C4119 C4121 1.419 . S
C4120 C4118 1.415 . S
C4120 C4125 1.425 . S
C4120 C4127 1.409 . S
C4121 H4113 0.930 . S
C4121 C4119 1.419 . S
C4121 C4122 1.362 . S
C4122 H4114 0.930 . S
C4122 C4121 1.362 . S
C4122 C4125 1.409 . S
C4123 H4115 0.930 . S
C4123 C4124 1.355 . S
C4123 C4125 1.415 . S
C4124 C4123 1.355 . S
C4124 C4126 1.419 . S
C4125 C4120 1.425 . S
C4125 C4122 1.409 . S
C4125 C4123 1.415 . S
C4126 H4116 0.930 . S
C4126 C4124 1.419 . S
C4126 C4127 1.362 . S
C4127 H4117 0.930 . S
C4127 C4120 1.409 . S
C4127 C4126 1.362 . S
H4128 C4134 0.930 . S
H4129 C4137 0.930 . S
H4130 C4138 0.930 . S
H4131 C4139 0.930 . S
H4132 C4142 0.930 . S
H4133 C4143 0.930 . S
C4134 H4128 0.930 . S
C4134 C4135 1.355 . S
C4134 C4136 1.415 . S
C4135 C4134 1.355 . S
C4135 C4137 1.419 . S
C4136 C4134 1.415 . S
C4136 C4141 1.425 . S
C4136 C4143 1.409 . S
C4137 H4129 0.930 . S
C4137 C4135 1.419 . S
C4137 C4138 1.362 . S
C4138 H4130 0.930 . S
C4138 C4137 1.362 . S
C4138 C4141 1.409 . S
C4139 H4131 0.930 . S
C4139 C4140 1.355 . S
C4139 C4141 1.415 . S
C4140 C4139 1.355 . S
C4140 C4142 1.419 . S
C4141 C4136 1.425 . S
C4141 C4138 1.409 . S
C4141 C4139 1.415 . S
C4142 H4132 0.930 . S
C4142 C4140 1.419 . S
C4142 C4143 1.362 . S
C4143 H4133 0.930 . S
C4143 C4136 1.409 . S
C4143 C4142 1.362 . S
H4144 C4150 0.930 . S
H4145 C4153 0.930 . S
H4146 C4154 0.930 . S
H4147 C4155 0.930 . S
H4148 C4158 0.930 . S
H4149 C4159 0.930 . S
C4150 H4144 0.930 . S
C4150 C4151 1.355 . S
C4150 C4152 1.415 . S
C4151 C4150 1.355 . S
C4151 C4153 1.419 . S
C4152 C4150 1.415 . S
C4152 C4157 1.425 . S
C4152 C4159 1.409 . S
C4153 H4145 0.930 . S
C4153 C4151 1.419 . S
C4153 C4154 1.362 . S
C4154 H4146 0.930 . S
C4154 C4153 1.362 . S
C4154 C4157 1.409 . S
C4155 H4147 0.930 . S
C4155 C4156 1.355 . S
C4155 C4157 1.415 . S
C4156 C4155 1.355 . S
C4156 C4158 1.419 . S
C4157 C4152 1.425 . S
C4157 C4154 1.409 . S
C4157 C4155 1.415 . S
C4158 H4148 0.930 . S
C4158 C4156 1.419 . S
C4158 C4159 1.362 . S
C4159 H4149 0.930 . S
C4159 C4152 1.409 . S
C4159 C4158 1.362 . S
H4160 C4166 0.930 . S
H4161 C4169 0.930 . S
H4162 C4170 0.930 . S
H4163 C4171 0.930 . S
H4164 C4174 0.930 . S
H4165 C4175 0.930 . S
C4166 H4160 0.930 . S
C4166 C4167 1.355 . S
C4166 C4168 1.415 . S
C4167 C4166 1.355 . S
C4167 C4169 1.419 . S
C4168 C4166 1.415 . S
C4168 C4173 1.425 . S
C4168 C4175 1.409 . S
C4169 H4161 0.930 . S
C4169 C4167 1.419 . S
C4169 C4170 1.362 . S
C4170 H4162 0.930 . S
C4170 C4169 1.362 . S
C4170 C4173 1.409 . S
C4171 H4163 0.930 . S
C4171 C4172 1.355 . S
C4171 C4173 1.415 . S
C4172 C4171 1.355 . S
C4172 C4174 1.419 . S
C4173 C4168 1.425 . S
C4173 C4170 1.409 . S
C4173 C4171 1.415 . S
C4174 H4164 0.930 . S
C4174 C4172 1.419 . S
C4174 C4175 1.362 . S
C4175 H4165 0.930 . S
C4175 C4168 1.409 . S
C4175 C4174 1.362 . S
H4176 C4182 0.930 . S
H4177 C4185 0.930 . S
H4178 C4186 0.930 . S
H4179 C4187 0.930 . S
H4180 C4190 0.930 . S
H4181 C4191 0.930 . S
C4182 H4176 0.930 . S
C4182 C4183 1.355 . S
C4182 C4184 1.415 . S
C4183 C4182 1.355 . S
C4183 C4185 1.419 . S
C4184 C4182 1.415 . S
C4184 C4189 1.425 . S
C4184 C4191 1.409 . S
C4185 H4177 0.930 . S
C4185 C4183 1.419 . S
C4185 C4186 1.362 . S
C4186 H4178 0.930 . S
C4186 C4185 1.362 . S
C4186 C4189 1.409 . S
C4187 H4179 0.930 . S
C4187 C4188 1.355 . S
C4187 C4189 1.415 . S
C4188 C4187 1.355 . S
C4188 C4190 1.419 . S
C4189 C4184 1.425 . S
C4189 C4186 1.409 . S
C4189 C4187 1.415 . S
C4190 H4180 0.930 . S
C4190 C4188 1.419 . S
C4190 C4191 1.362 . S
C4191 H4181 0.930 . S
C4191 C4184 1.409 . S
C4191 C4190 1.362 . S
H4192 C4198 0.930 . S
H4193 C4201 0.930 . S
H4194 C4202 0.930 . S
H4195 C4203 0.930 . S
H4196 C4206 0.930 . S
H4197 C4207 0.930 . S
C4198 H4192 0.930 . S
C4198 C4199 1.355 . S
C4198 C4200 1.415 . S
C4199 C4198 1.355 . S
C4199 C4201 1.419 . S
C4200 C4198 1.415 . S
C4200 C4205 1.425 . S
C4200 C4207 1.409 . S
C4201 H4193 0.930 . S
C4201 C4199 1.419 . S
C4201 C4202 1.362 . S
C4202 H4194 0.930 . S
C4202 C4201 1.362 . S
C4202 C4205 1.409 . S
C4203 H4195 0.930 . S
C4203 C4204 1.355 . S
C4203 C4205 1.415 . S
C4204 C4203 1.355 . S
C4204 C4206 1.419 . S
C4205 C4200 1.425 . S
C4205 C4202 1.409 . S
C4205 C4203 1.415 . S
C4206 H4196 0.930 . S
C4206 C4204 1.419 . S
C4206 C4207 1.362 . S
C4207 H4197 0.930 . S
C4207 C4200 1.409 . S
C4207 C4206 1.362 . S
H4208 C4214 0.930 . S
H4209 C4217 0.930 . S
H4210 C4218 0.930 . S
H4211 C4219 0.930 . S
H4212 C4222 0.930 . S
H4213 C4223 0.930 . S
C4214 H4208 0.930 . S
C4214 C4215 1.355 . S
C4214 C4216 1.415 . S
C4215 C4214 1.355 . S
C4215 C4217 1.419 . S
C4216 C4214 1.415 . S
C4216 C4221 1.425 . S
C4216 C4223 1.409 . S
C4217 H4209 0.930 . S
C4217 C4215 1.419 . S
C4217 C4218 1.362 . S
C4218 H4210 0.930 . S
C4218 C4217 1.362 . S
C4218 C4221 1.409 . S
C4219 H4211 0.930 . S
C4219 C4220 1.355 . S
C4219 C4221 1.415 . S
C4220 C4219 1.355 . S
C4220 C4222 1.419 . S
C4221 C4216 1.425 . S
C4221 C4218 1.409 . S
C4221 C4219 1.415 . S
C4222 H4212 0.930 . S
C4222 C4220 1.419 . S
C4222 C4223 1.362 . S
C4223 H4213 0.930 . S
C4223 C4216 1.409 . S
C4223 C4222 1.362 . S
H4224 C4230 0.930 . S
H4225 C4233 0.930 . S
H4226 C4234 0.930 . S
H4227 C4235 0.930 . S
H4228 C4238 0.930 . S
H4229 C4239 0.930 . S
C4230 H4224 0.930 . S
C4230 C4231 1.355 . S
C4230 C4232 1.415 . S
C4231 C4230 1.355 . S
C4231 C4233 1.419 . S
C4232 C4230 1.415 . S
C4232 C4237 1.425 . S
C4232 C4239 1.409 . S
C4233 H4225 0.930 . S
C4233 C4231 1.419 . S
C4233 C4234 1.362 . S
C4234 H4226 0.930 . S
C4234 C4233 1.362 . S
C4234 C4237 1.409 . S
C4235 H4227 0.930 . S
C4235 C4236 1.355 . S
C4235 C4237 1.415 . S
C4236 C4235 1.355 . S
C4236 C4238 1.419 . S
C4237 C4232 1.425 . S
C4237 C4234 1.409 . S
C4237 C4235 1.415 . S
C4238 H4228 0.930 . S
C4238 C4236 1.419 . S
C4238 C4239 1.362 . S
C4239 H4229 0.930 . S
C4239 C4232 1.409 . S
C4239 C4238 1.362 . S
H4240 C4246 0.930 . S
H4241 C4249 0.930 . S
H4242 C4250 0.930 . S
H4243 C4251 0.930 . S
H4244 C4254 0.930 . S
H4245 C4255 0.930 . S
C4246 H4240 0.930 . S
C4246 C4247 1.355 . S
C4246 C4248 1.415 . S
C4247 C4246 1.355 . S
C4247 C4249 1.419 . S
C4248 C4246 1.415 . S
C4248 C4253 1.425 . S
C4248 C4255 1.409 . S
C4249 H4241 0.930 . S
C4249 C4247 1.419 . S
C4249 C4250 1.362 . S
C4250 H4242 0.930 . S
C4250 C4249 1.362 . S
C4250 C4253 1.409 . S
C4251 H4243 0.930 . S
C4251 C4252 1.355 . S
C4251 C4253 1.415 . S
C4252 C4251 1.355 . S
C4252 C4254 1.419 . S
C4253 C4248 1.425 . S
C4253 C4250 1.409 . S
C4253 C4251 1.415 . S
C4254 H4244 0.930 . S
C4254 C4252 1.419 . S
C4254 C4255 1.362 . S
C4255 H4245 0.930 . S
C4255 C4248 1.409 . S
C4255 C4254 1.362 . S
H4256 C4262 0.930 . S
H4257 C4265 0.930 . S
H4258 C4266 0.930 . S
H4259 C4267 0.930 . S
H4260 C4270 0.930 . S
H4261 C4271 0.930 . S
C4262 H4256 0.930 . S
C4262 C4263 1.355 . S
C4262 C4264 1.415 . S
C4263 C4262 1.355 . S
C4263 C4265 1.419 . S
C4264 C4262 1.415 . S
C4264 C4269 1.425 . S
C4264 C4271 1.409 . S
C4265 H4257 0.930 . S
C4265 C4263 1.419 . S
C4265 C4266 1.362 . S
C4266 H4258 0.930 . S
C4266 C4265 1.362 . S
C4266 C4269 1.409 . S
C4267 H4259 0.930 . S
C4267 C4268 1.355 . S
C4267 C4269 1.415 . S
C4268 C4267 1.355 . S
C4268 C4270 1.419 . S
C4269 C4264 1.425 . S
C4269 C4266 1.409 . S
C4269 C4267 1.415 . S
C4270 H4260 0.930 . S
C4270 C4268 1.419 . S
C4270 C4271 1.362 . S
C4271 H4261 0.930 . S
C4271 C4264 1.409 . S
C4271 C4270 1.362 . S
H4272 C4278 0.930 . S
H4273 C4281 0.930 . S
H4274 C4282 0.930 . S
H4275 C4283 0.930 . S
H4276 C4286 0.930 . S
H4277 C4287 0.930 . S
C4278 H4272 0.930 . S
C4278 C4279 1.355 . S
C4278 C4280 1.415 . S
C4279 C4278 1.355 . S
C4279 C4281 1.419 . S
C4280 C4278 1.415 . S
C4280 C4285 1.425 . S
C4280 C4287 1.409 . S
C4281 H4273 0.930 . S
C4281 C4279 1.419 . S
C4281 C4282 1.362 . S
C4282 H4274 0.930 . S
C4282 C4281 1.362 . S
C4282 C4285 1.409 . S
C4283 H4275 0.930 . S
C4283 C4284 1.355 . S
C4283 C4285 1.415 . S
C4284 C4283 1.355 . S
C4284 C4286 1.419 . S
C4285 C4280 1.425 . S
C4285 C4282 1.409 . S
C4285 C4283 1.415 . S
C4286 H4276 0.930 . S
C4286 C4284 1.419 . S
C4286 C4287 1.362 . S
C4287 H4277 0.930 . S
C4287 C4280 1.409 . S
C4287 C4286 1.362 . S
H4288 C4294 0.930 . S
H4289 C4297 0.930 . S
H4290 C4298 0.930 . S
H4291 C4299 0.930 . S
H4292 C4302 0.930 . S
H4293 C4303 0.930 . S
C4294 H4288 0.930 . S
C4294 C4295 1.355 . S
C4294 C4296 1.415 . S
C4295 C4294 1.355 . S
C4295 C4297 1.419 . S
C4296 C4294 1.415 . S
C4296 C4301 1.425 . S
C4296 C4303 1.409 . S
C4297 H4289 0.930 . S
C4297 C4295 1.419 . S
C4297 C4298 1.362 . S
C4298 H4290 0.930 . S
C4298 C4297 1.362 . S
C4298 C4301 1.409 . S
C4299 H4291 0.930 . S
C4299 C4300 1.355 . S
C4299 C4301 1.415 . S
C4300 C4299 1.355 . S
C4300 C4302 1.419 . S
C4301 C4296 1.425 . S
C4301 C4298 1.409 . S
C4301 C4299 1.415 . S
C4302 H4292 0.930 . S
C4302 C4300 1.419 . S
C4302 C4303 1.362 . S
C4303 H4293 0.930 . S
C4303 C4296 1.409 . S
C4303 C4302 1.362 . S
H4304 C4310 0.930 . S
H4305 C4313 0.930 . S
H4306 C4314 0.930 . S
H4307 C4315 0.930 . S
H4308 C4318 0.930 . S
H4309 C4319 0.930 . S
C4310 H4304 0.930 . S
C4310 C4311 1.355 . S
C4310 C4312 1.415 . S
C4311 C4310 1.355 . S
C4311 C4313 1.419 . S
C4312 C4310 1.415 . S
C4312 C4317 1.425 . S
C4312 C4319 1.409 . S
C4313 H4305 0.930 . S
C4313 C4311 1.419 . S
C4313 C4314 1.362 . S
C4314 H4306 0.930 . S
C4314 C4313 1.362 . S
C4314 C4317 1.409 . S
C4315 H4307 0.930 . S
C4315 C4316 1.355 . S
C4315 C4317 1.415 . S
C4316 C4315 1.355 . S
C4316 C4318 1.419 . S
C4317 C4312 1.425 . S
C4317 C4314 1.409 . S
C4317 C4315 1.415 . S
C4318 H4308 0.930 . S
C4318 C4316 1.419 . S
C4318 C4319 1.362 . S
C4319 H4309 0.930 . S
C4319 C4312 1.409 . S
C4319 C4318 1.362 . S
H4320 C4326 0.930 . S
H4321 C4329 0.930 . S
H4322 C4330 0.930 . S
H4323 C4331 0.930 . S
H4324 C4334 0.930 . S
H4325 C4335 0.930 . S
C4326 H4320 0.930 . S
C4326 C4327 1.355 . S
C4326 C4328 1.415 . S
C4327 C4326 1.355 . S
C4327 C4329 1.419 . S
C4328 C4326 1.415 . S
C4328 C4333 1.425 . S
C4328 C4335 1.409 . S
C4329 H4321 0.930 . S
C4329 C4327 1.419 . S
C4329 C4330 1.362 . S
C4330 H4322 0.930 . S
C4330 C4329 1.362 . S
C4330 C4333 1.409 . S
C4331 H4323 0.930 . S
C4331 C4332 1.355 . S
C4331 C4333 1.415 . S
C4332 C4331 1.355 . S
C4332 C4334 1.419 . S
C4333 C4328 1.425 . S
C4333 C4330 1.409 . S
C4333 C4331 1.415 . S
C4334 H4324 0.930 . S
C4334 C4332 1.419 . S
C4334 C4335 1.362 . S
C4335 H4325 0.930 . S
C4335 C4328 1.409 . S
C4335 C4334 1.362 . S
H4336 C4342 0.930 . S
H4337 C4345 0.930 . S
H4338 C4346 0.930 . S
H4339 C4347 0.930 . S
H4340 C4350 0.930 . S
H4341 C4351 0.930 . S
C4342 H4336 0.930 . S
C4342 C4343 1.355 . S
C4342 C4344 1.415 . S
C4343 C4342 1.355 . S
C4343 C4345 1.419 . S
C4344 C4342 1.415 . S
C4344 C4349 1.425 . S
C4344 C4351 1.409 . S
C4345 H4337 0.930 . S
C4345 C4343 1.419 . S
C4345 C4346 1.362 . S
C4346 H4338 0.930 . S
C4346 C4345 1.362 . S
C4346 C4349 1.409 . S
C4347 H4339 0.930 . S
C4347 C4348 1.355 . S
C4347 C4349 1.415 . S
C4348 C4347 1.355 . S
C4348 C4350 1.419 . S
C4349 C4344 1.425 . S
C4349 C4346 1.409 . S
C4349 C4347 1.415 . S
C4350 H4340 0.930 . S
C4350 C4348 1.419 . S
C4350 C4351 1.362 . S
C4351 H4341 0.930 . S
C4351 C4344 1.409 . S
C4351 C4350 1.362 . S
H4352 C4358 0.930 . S
H4353 C4361 0.930 . S
H4354 C4362 0.930 . S
H4355 C4363 0.930 . S
H4356 C4366 0.930 . S
H4357 C4367 0.930 . S
C4358 H4352 0.930 . S
C4358 C4359 1.355 . S
C4358 C4360 1.415 . S
C4359 C4358 1.355 . S
C4359 C4361 1.419 . S
C4360 C4358 1.415 . S
C4360 C4365 1.425 . S
C4360 C4367 1.409 . S
C4361 H4353 0.930 . S
C4361 C4359 1.419 . S
C4361 C4362 1.362 . S
C4362 H4354 0.930 . S
C4362 C4361 1.362 . S
C4362 C4365 1.409 . S
C4363 H4355 0.930 . S
C4363 C4364 1.355 . S
C4363 C4365 1.415 . S
C4364 C4363 1.355 . S
C4364 C4366 1.419 . S
C4365 C4360 1.425 . S
C4365 C4362 1.409 . S
C4365 C4363 1.415 . S
C4366 H4356 0.930 . S
C4366 C4364 1.419 . S
C4366 C4367 1.362 . S
C4367 H4357 0.930 . S
C4367 C4360 1.409 . S
C4367 C4366 1.362 . S
H4368 C4374 0.930 . S
H4369 C4377 0.930 . S
H4370 C4378 0.930 . S
H4371 C4379 0.930 . S
H4372 C4382 0.930 . S
H4373 C4383 0.930 . S
C4374 H4368 0.930 . S
C4374 C4375 1.355 . S
C4374 C4376 1.415 . S
C4375 C4374 1.355 . S
C4375 C4377 1.419 . S
C4376 C4374 1.415 . S
C4376 C4381 1.425 . S
C4376 C4383 1.409 . S
C4377 H4369 0.930 . S
C4377 C4375 1.419 . S
C4377 C4378 1.362 . S
C4378 H4370 0.930 . S
C4378 C4377 1.362 . S
C4378 C4381 1.409 . S
C4379 H4371 0.930 . S
C4379 C4380 1.355 . S
C4379 C4381 1.415 . S
C4380 C4379 1.355 . S
C4380 C4382 1.419 . S
C4381 C4376 1.425 . S
C4381 C4378 1.409 . S
C4381 C4379 1.415 . S
C4382 H4372 0.930 . S
C4382 C4380 1.419 . S
C4382 C4383 1.362 . S
C4383 H4373 0.930 . S
C4383 C4376 1.409 . S
C4383 C4382 1.362 . S
H4384 C4390 0.930 . S
H4385 C4393 0.930 . S
H4386 C4394 0.930 . S
H4387 C4395 0.930 . S
H4388 C4398 0.930 . S
H4389 C4399 0.930 . S
C4390 H4384 0.930 . S
C4390 C4391 1.355 . S
C4390 C4392 1.415 . S
C4391 C4390 1.355 . S
C4391 C4393 1.419 . S
C4392 C4390 1.415 . S
C4392 C4397 1.425 . S
C4392 C4399 1.409 . S
C4393 H4385 0.930 . S
C4393 C4391 1.419 . S
C4393 C4394 1.362 . S
C4394 H4386 0.930 . S
C4394 C4393 1.362 . S
C4394 C4397 1.409 . S
C4395 H4387 0.930 . S
C4395 C4396 1.355 . S
C4395 C4397 1.415 . S
C4396 C4395 1.355 . S
C4396 C4398 1.419 . S
C4397 C4392 1.425 . S
C4397 C4394 1.409 . S
C4397 C4395 1.415 . S
C4398 H4388 0.930 . S
C4398 C4396 1.419 . S
C4398 C4399 1.362 . S
C4399 H4389 0.930 . S
C4399 C4392 1.409 . S
C4399 C4398 1.362 . S
H4400 C4406 0.930 . S
H4401 C4409 0.930 . S
H4402 C4410 0.930 . S
H4403 C4411 0.930 . S
H4404 C4414 0.930 . S
H4405 C4415 0.930 . S
C4406 H4400 0.930 . S
C4406 C4407 1.355 . S
C4406 C4408 1.415 . S
C4407 C4406 1.355 . S
C4407 C4409 1.419 . S
C4408 C4406 1.415 . S
C4408 C4413 1.425 . S
C4408 C4415 1.409 . S
C4409 H4401 0.930 . S
C4409 C4407 1.419 . S
C4409 C4410 1.362 . S
C4410 H4402 0.930 . S
C4410 C4409 1.362 . S
C4410 C4413 1.409 . S
C4411 H4403 0.930 . S
C4411 C4412 1.355 . S
C4411 C4413 1.415 . S
C4412 C4411 1.355 . S
C4412 C4414 1.419 . S
C4413 C4408 1.425 . S
C4413 C4410 1.409 . S
C4413 C4411 1.415 . S
C4414 H4404 0.930 . S
C4414 C4412 1.419 . S
C4414 C4415 1.362 . S
C4415 H4405 0.930 . S
C4415 C4408 1.409 . S
C4415 C4414 1.362 . S
C1351 C1 1.498 . S
C1356 C127 1.498 . S
C1367 C141 1.531 . S
C1372 C15 1.532 . S
C1383 C41 1.495 . S
C1388 C154 1.496 . S
C1399 C43 1.527 . S
C1404 C124 1.529 . S
C1415 C57 1.501 . S
C1420 C211 1.500 . S
C1431 C180 1.492 . S
C1436 C83 1.490 . S
C1447 C97 1.493 . S
C1452 C195 1.494 . S
C1463 C197 1.491 . S
C1468 C98 1.493 . S
C1479 C264 1.517 . S
C1484 C225 1.516 . S
C1495 C239 1.499 . S
C1500 C992 1.501 . S
C1511 C1006 1.517 . S
C1516 C266 1.517 . S
C1527 C292 1.511 . S
C1532 C978 1.511 . S
C1543 C964 1.496 . S
C1548 C306 1.496 . S
C1559 C911 1.541 . S
C1564 C309 1.541 . S
C1575 C323 1.494 . S
C1580 C939 1.493 . S
C1591 C337 1.514 . S
C1596 C463 1.514 . S
C1607 C350 1.542 . S
C1612 C476 1.541 . S
C1623 C490 1.534 . S
C1628 C365 1.535 . S
C1639 C461 1.507 . S
C1644 C391 1.507 . S
C1655 C547 1.506 . S
C1660 C393 1.505 . S
C1671 C407 1.528 . S
C1676 C517 1.528 . S
C1687 C433 1.536 . S
C1692 C519 1.536 . S
C1703 C446 1.540 . S
C1708 C545 1.541 . S
C1719 C561 1.532 . S
C1724 C601 1.532 . S
C1735 C575 1.537 . S
C1740 C1329 1.537 . S
C1751 C1343 1.513 . S
C1756 C602 1.511 . S
C1767 C629 1.514 . S
C1772 C1303 1.514 . S
C1783 C631 1.515 . S
C1788 C1301 1.515 . S
C1799 C657 1.535 . S
C1804 C1258 1.535 . S
C1815 C671 1.502 . S
C1820 C1274 1.500 . S
C1831 C672 1.508 . S
C1836 C799 1.507 . S
C1847 C824 1.498 . S
C1852 C699 1.497 . S
C1863 C827 1.534 . S
C1868 C701 1.534 . S
C1879 C727 1.515 . S
C1884 C785 1.516 . S
C1895 C740 1.493 . S
C1900 C882 1.493 . S
C1911 C742 1.538 . S
C1916 C852 1.539 . S
C1927 C756 1.494 . S
C1932 C855 1.493 . S
C1943 C869 1.510 . S
C1948 C782 1.511 . S
C1959 C896 1.496 . S
C1964 C925 1.494 . S
C1975 C1008 1.518 . S
C1980 C1135 1.520 . S
C1991 C1035 1.524 . S
C1996 C1148 1.524 . S
C2007 C1162 1.523 . S
C2012 C1036 1.524 . S
C2023 C1133 1.540 . S
C2028 C1050 1.539 . S
C2039 C1076 1.496 . S
C2044 C1218 1.496 . S
C2055 C1189 1.509 . S
C2060 C1079 1.510 . S
C2071 C1203 1.536 . S
C2076 C1092 1.535 . S
C2087 C1217 1.508 . S
C2092 C1107 1.508 . S
C2103 C1245 1.517 . S
C2108 C1273 1.517 . S
C2119 C13 2.196 1_655 S
C2124 C280 2.195 . S
C2135 C27 2.189 . S
C2140 C923 2.169 . S
C2151 C937 2.196 . S
C2156 C29 2.193 . S
C2167 C951 2.139 1_554 S
C2172 C55 2.142 . S
C2183 C69 2.156 1_655 S
C2188 C994 2.145 . S
C2199 C294 2.194 . S
C2204 C71 2.196 . S
C2215 C85 2.185 . S
C2220 C980 2.168 . S
C2231 C110 2.156 . S
C2236 C237 2.138 1_556 S
C2247 C112 2.169 1_565 S
C2252 C223 2.186 . S
C2263 C168 2.200 1_545 S
C2268 C139 2.188 . S
C2279 C153 2.183 1_545 S
C2284 C183 2.160 . S
C2295 C166 2.191 . S
C2300 C209 2.166 1_565 S
C2311 C687 2.142 . S
C2316 C251 2.139 1_554 S
C2327 C713 2.157 1_455 S
C2332 C252 2.183 . S
C2343 C715 2.160 . S
C2348 C278 2.147 . S
C2359 C768 2.154 1_455 S
C2364 C321 2.171 . S
C2375 C335 2.146 . S
C2380 C728 2.171 . S
C2391 C349 2.183 1_455 S
C2396 C617 2.199 . S
C2407 C362 2.191 . S
C2412 C1246 2.172 . S
C2423 C1261 2.160 . S
C2428 C377 2.183 . S
C2439 C1286 2.169 1_556 S
C2444 C379 2.193 . S
C2455 C1331 2.145 . S
C2460 C405 2.144 1_455 S
C2471 C643 2.177 . S
C2476 C419 2.196 . S
C2487 C421 2.163 . S
C2492 C1317 2.146 . S
C2503 C434 2.197 . S
C2508 C573 2.191 1_554 S
C2519 C559 2.164 . S
C2524 C449 2.146 1_545 S
C2535 C475 2.200 . S
C2540 C505 2.191 1_565 S
C2551 C531 2.193 . S
C2556 C488 2.197 1_565 S
C2567 C502 2.148 . S
C2572 C533 2.143 1_545 S
C2583 C1023 2.200 . S
C2588 C587 2.194 1_556 S
C2599 C589 2.193 . S
C2604 C1048 2.169 1_655 S
C2615 C614 2.191 . S
C2620 C1062 2.196 . S
C2631 C645 2.153 . S
C2636 C1104 2.170 1_655 S
C2647 C659 2.146 . S
C2652 C1064 2.139 . S
C2663 C684 2.162 . S
C2668 C952 2.146 . S
C2679 C966 2.144 1_556 S
C2684 C754 2.146 . S
C2695 C770 2.148 . S
C2700 C908 2.167 . S
C2711 C894 2.157 . S
C2716 C797 2.175 . S
C2727 C840 2.194 . S
C2732 C811 2.170 . S
C2743 C812 2.147 . S
C2748 C867 2.138 . S
C2759 C839 2.177 . S
C2764 C881 2.154 . S
C2775 C1289 2.187 . S
C2780 C1020 2.196 . S
C2791 C1091 2.146 . S
C2796 C1315 2.144 1_554 S
C2807 C1233 2.173 . S
C2812 C1119 2.193 . S
C2823 C1121 2.185 . S
C2828 C1230 2.158 . S
C2839 C1177 2.171 . S
C2844 C1147 2.151 . S
C2855 C1160 2.148 . S
C2860 C1191 2.143 . S
C2871 C1205 2.166 . S
C2876 C1174 2.143 . S
C2887 C12 1.544 . S
C2892 C603 1.579 . S
C2903 C628 1.603 . S
C2908 C26 1.558 . S
C2919 C574 1.589 . S
C2924 C28 1.517 . S
C2935 C54 1.567 . S
C2940 C1272 1.600 . S
C2951 C68 1.563 . S
C2956 C1302 1.590 . S
C2967 C70 1.509 . S
C2972 C1328 1.565 . S
C2983 C1244 1.565 . S
C2988 C84 1.508 . S
C2999 C1342 1.575 . S
C3004 C111 1.492 . S
C3015 C364 1.602 . S
C3020 C113 1.562 . S
C3031 C138 1.508 . S
C3036 C1051 1.584 . S
C3047 C336 1.564 . S
C3052 C152 1.499 . S
C3063 C1034 1.581 . S
C3068 C167 1.499 . S
C3079 C432 1.564 . S
C3084 C169 1.496 . S
C3095 C182 1.498 . S
C3100 C1106 1.577 . S
C3111 C208 1.523 . S
C3116 C392 1.569 . S
C3127 C222 1.493 . S
C3132 C1078 1.570 . S
C3143 C236 1.498 . S
C3148 C1188 1.564 . S
C3159 C460 1.599 . S
C3164 C250 1.568 . S
C3175 C253 1.529 . S
C3180 C1134 1.572 . S
C3191 C279 1.524 . S
C3196 C477 1.571 . S
C3207 C281 1.498 . S
C3212 C491 1.564 . S
C3223 C295 1.520 . S
C3228 C1216 1.569 . S
C3239 C1219 1.574 . S
C3244 C320 1.534 . S
C3255 C1202 1.602 . S
C3260 C334 1.565 . S
C3271 C267 1.593 . S
C3276 C348 1.522 . S
C3287 C363 1.520 . S
C3292 C293 1.568 . S
C3303 C376 1.495 . S
C3308 C238 1.564 . S
C3319 C378 1.489 . S
C3324 C924 1.568 . S
C3335 C979 1.589 . S
C3340 C404 1.559 . S
C3351 C993 1.603 . S
C3356 C418 1.554 . S
C3367 C420 1.501 . S
C3372 C897 1.564 . S
C3383 C1007 1.569 . S
C3388 C435 1.524 . S
C3399 C448 1.497 . S
C3404 C40 1.564 . S
C3415 C726 1.597 . S
C3420 C474 1.565 . S
C3431 C489 1.503 . S
C3436 C0 1.564 . S
C3447 C698 1.578 . S
C3452 C503 1.500 . S
C3463 C504 1.502 . S
C3468 C96 1.582 . S
C3479 C783 1.603 . S
C3484 C530 1.554 . S
C3495 C56 1.565 . S
C3500 C532 1.491 . S
C3511 C743 1.580 . S
C3516 C558 1.499 . S
C3527 C572 1.551 . S
C3532 C853 1.583 . S
C3543 C586 1.529 . S
C3548 C125 1.596 . S
C3559 C798 1.579 . S
C3564 C588 1.542 . S
C3575 C615 1.556 . S
C3580 C140 1.603 . S
C3591 C155 1.565 . S
C3596 C616 1.504 . S
C3607 C868 1.603 . S
C3612 C642 1.559 . S
C3623 C883 1.565 . S
C3628 C644 1.492 . S
C3639 C854 1.564 . S
C3644 C658 1.499 . S
C3655 C685 1.556 . S
C3660 C1275 1.603 . S
C3671 C686 1.495 . S
C3676 C1300 1.574 . S
C3687 C712 1.493 . S
C3692 C1259 1.569 . S
C3703 C600 1.566 . S
C3708 C714 1.515 . S
C3719 C729 1.539 . S
C3724 C630 1.577 . S
C3735 C656 1.599 . S
C3740 C755 1.537 . S
C3751 C560 1.565 . S
C3756 C769 1.506 . S
C3767 C670 1.584 . S
C3772 C771 1.504 . S
C3783 C796 1.516 . S
C3788 C1037 1.588 . S
C3799 C390 1.591 . S
C3804 C810 1.563 . S
C3815 C813 1.552 . S
C3820 C1009 1.585 . S
C3831 C838 1.568 . S
C3836 C351 1.600 . S
C3847 C841 1.490 . S
C3852 C1093 1.571 . S
C3863 C866 1.525 . S
C3868 C447 1.592 . S
C3879 C1077 1.572 . S
C3884 C880 1.494 . S
C3895 C406 1.564 . S
C3900 C895 1.498 . S
C3911 C909 1.564 . S
C3916 C516 1.602 . S
C3927 C922 1.525 . S
C3932 C1132 1.569 . S
C3943 C936 1.519 . S
C3948 C462 1.568 . S
C3959 C1149 1.567 . S
C3964 C950 1.493 . S
C3975 C953 1.535 . S
C3980 C1163 1.598 . S
C3991 C967 1.501 . S
C3996 C544 1.582 . S
C4007 C546 1.578 . S
C4012 C981 1.542 . S
C4023 C995 1.492 . S
C4028 C518 1.565 . S
C4039 C1021 1.551 . S
C4044 C938 1.583 . S
C4055 C965 1.596 . S
C4060 C1022 1.565 . S
C4071 C910 1.588 . S
C4076 C1049 1.559 . S
C4087 C1063 1.505 . S
C4092 C265 1.565 . S
C4103 C1065 1.496 . S
C4108 C307 1.575 . S
C4119 C1090 1.503 . S
C4124 C308 1.565 . S
C4135 C224 1.570 . S
C4140 C1105 1.493 . S
C4151 C1118 1.562 . S
C4156 C322 1.602 . S
C4167 C1120 1.497 . S
C4172 C700 1.578 . S
C4183 C1146 1.520 . S
C4188 C42 1.592 . S
C4199 C1161 1.567 . S
C4204 C673 1.601 . S
C4215 C1175 1.540 . S
C4220 C14 1.599 . S
C4231 C1176 1.565 . S
C4236 C757 1.601 . S
C4247 C1190 1.490 . S
C4252 C99 1.566 . S
C4263 C1204 1.494 . S
C4268 C741 1.564 . S
C4279 C1231 1.525 . S
C4284 C82 1.593 . S
C4295 C1232 1.542 . S
C4300 C181 1.600 . S
C4311 C1247 1.493 . S
C4316 C784 1.570 . S
C4327 C1260 1.495 . S
C4332 C126 1.576 . S
C4343 C1287 1.564 . S
C4348 C825 1.592 . S
C4359 C1288 1.501 . S
C4364 C826 1.565 . S
C4375 C196 1.586 . S
C4380 C1314 1.554 . S
C4391 C1316 1.545 . S
C4396 C210 1.601 . S
C4407 C1330 1.541 . S
C4412 C194 1.579 . S
