# Generated by pormake.
# Topology uoq, (4)-cn, num edge types: 1
# Building blocks:
#     Node 0, Type 0, BuildingBlock: CEKHIL_clean_sbu_0, # of connection points: 4
#     Node 1, Type 0, BuildingBlock: CEKHIL_clean_sbu_0, # of connection points: 4
#     Node 2, Type 0, BuildingBlock: CEKHIL_clean_sbu_0, # of connection points: 4
#     Node 3, Type 0, BuildingBlock: CEKHIL_clean_sbu_0, # of connection points: 4
#     Node 4, Type 0, BuildingBlock: CEKHIL_clean_sbu_0, # of connection points: 4
#     Node 5, Type 0, BuildingBlock: CEKHIL_clean_sbu_0, # of connection points: 4
#     Node 6, Type 0, BuildingBlock: CEKHIL_clean_sbu_0, # of connection points: 4
#     Node 7, Type 0, BuildingBlock: CEKHIL_clean_sbu_0, # of connection points: 4
#     Node 8, Type 0, BuildingBlock: CEKHIL_clean_sbu_0, # of connection points: 4
#     Node 9, Type 0, BuildingBlock: CEKHIL_clean_sbu_0, # of connection points: 4
#     Node 10, Type 0, BuildingBlock: CEKHIL_clean_sbu_0, # of connection points: 4
#     Node 11, Type 0, BuildingBlock: CEKHIL_clean_sbu_0, # of connection points: 4
#     Edge 12, Type (0, 0), BuildingBlock: XUDNAN_clean_linker_2, # of connection points: 2
#     Edge 13, Type (0, 0), BuildingBlock: XUDNAN_clean_linker_2, # of connection points: 2
#     Edge 14, Type (0, 0), BuildingBlock: XUDNAN_clean_linker_2, # of connection points: 2
#     Edge 15, Type (0, 0), BuildingBlock: XUDNAN_clean_linker_2, # of connection points: 2
#     Edge 16, Type (0, 0), BuildingBlock: XUDNAN_clean_linker_2, # of connection points: 2
#     Edge 17, Type (0, 0), BuildingBlock: XUDNAN_clean_linker_2, # of connection points: 2
#     Edge 18, Type (0, 0), BuildingBlock: XUDNAN_clean_linker_2, # of connection points: 2
#     Edge 19, Type (0, 0), BuildingBlock: XUDNAN_clean_linker_2, # of connection points: 2
#     Edge 20, Type (0, 0), BuildingBlock: XUDNAN_clean_linker_2, # of connection points: 2
#     Edge 21, Type (0, 0), BuildingBlock: XUDNAN_clean_linker_2, # of connection points: 2
#     Edge 22, Type (0, 0), BuildingBlock: XUDNAN_clean_linker_2, # of connection points: 2
#     Edge 23, Type (0, 0), BuildingBlock: XUDNAN_clean_linker_2, # of connection points: 2
#     Edge 24, Type (0, 0), BuildingBlock: XUDNAN_clean_linker_2, # of connection points: 2
#     Edge 25, Type (0, 0), BuildingBlock: XUDNAN_clean_linker_2, # of connection points: 2
#     Edge 26, Type (0, 0), BuildingBlock: XUDNAN_clean_linker_2, # of connection points: 2
#     Edge 27, Type (0, 0), BuildingBlock: XUDNAN_clean_linker_2, # of connection points: 2
#     Edge 28, Type (0, 0), BuildingBlock: XUDNAN_clean_linker_2, # of connection points: 2
#     Edge 29, Type (0, 0), BuildingBlock: XUDNAN_clean_linker_2, # of connection points: 2
#     Edge 30, Type (0, 0), BuildingBlock: XUDNAN_clean_linker_2, # of connection points: 2
#     Edge 31, Type (0, 0), BuildingBlock: XUDNAN_clean_linker_2, # of connection points: 2
#     Edge 32, Type (0, 0), BuildingBlock: XUDNAN_clean_linker_2, # of connection points: 2
#     Edge 33, Type (0, 0), BuildingBlock: XUDNAN_clean_linker_2, # of connection points: 2
#     Edge 34, Type (0, 0), BuildingBlock: XUDNAN_clean_linker_2, # of connection points: 2
#     Edge 35, Type (0, 0), BuildingBlock: XUDNAN_clean_linker_2, # of connection points: 2
# Relax obj value: 0.172
# Max RMSD: 0.159
# Mean RMSD: 0.159
data_MOF--net-uoq--node1-CEKHIL_clean_sbu_0--edge1-XUDNAN_clean_linker_2
_symmetry_space_group_name_H-M    P1
_symmetry_Int_Tables_number       1
_symmetry_cell_setting            triclinic
loop_
_symmetry_equiv_pos_as_xyz
'x, y, z'
_cell_length_a     58.292973
_cell_length_b     58.307159
_cell_length_c     21.82078
_cell_angle_alpha  90.080374
_cell_angle_beta   89.98155
_cell_angle_gamma 119.99451
loop_
_atom_site_label
_atom_site_type_symbol
_atom_site_fract_x
_atom_site_fract_y
_atom_site_fract_z
_atom_type_partial_charge
Co0 Co 0.31924 0.44692 0.25154 0.0
O1 O 0.29205 0.42914 0.18823 0.0
O2 O 0.31407 0.47217 0.20475 0.0
C3 C 0.3424 0.42546 0.23806 0.0
O4 O 0.349 0.4733 0.30736 0.0
Co5 Co 0.32707 0.41802 0.36329 0.0
O6 O 0.35799 0.45306 0.38373 0.0
C7 C 0.28065 0.42512 0.35625 0.0
C8 C 0.296 0.45245 0.17334 0.0
C9 C 0.36272 0.47382 0.35422 0.0
O10 O 0.29119 0.44242 0.3131 0.0
O11 O 0.2903 0.41101 0.37549 0.0
O12 O 0.34656 0.44494 0.20187 0.0
O13 O 0.323 0.41816 0.27545 0.0
Co14 Co 0.8817 0.30955 0.58164 0.0
O15 O 0.8749 0.2797 0.53008 0.0
O16 O 0.86119 0.30781 0.50864 0.0
C17 C 0.92499 0.32373 0.60558 0.0
O18 O 0.88553 0.34269 0.62418 0.0
Co19 Co 0.89761 0.30861 0.72097 0.0
O20 O 0.89759 0.34269 0.72295 0.0
C21 C 0.8467 0.27318 0.67552 0.0
C22 C 0.8616 0.28636 0.49372 0.0
C23 C 0.89159 0.35298 0.67846 0.0
O24 O 0.84807 0.28736 0.62919 0.0
O25 O 0.86746 0.27347 0.69477 0.0
O26 O 0.91938 0.33075 0.55341 0.0
O27 O 0.90475 0.30674 0.63539 0.0
Co28 Co 0.57772 0.8776 0.92303 0.0
O29 O 0.60224 0.87002 0.87926 0.0
O30 O 0.55947 0.84999 0.86057 0.0
C31 C 0.60275 0.92277 0.92139 0.0
O32 O 0.54638 0.88047 0.9572 0.0
Co33 Co 0.59478 0.90816 0.04907 0.0
O34 O 0.55915 0.90444 0.04479 0.0
C35 C 0.57928 0.85193 0.0433 0.0
C36 C 0.5824 0.85256 0.84718 0.0
C37 C 0.54182 0.8912 1.00402 0.0
O38 O 0.57102 0.8499 0.98756 0.0
O39 O 0.59257 0.87403 0.07136 0.0
O40 O 0.58897 0.90999 0.87343 0.0
O41 O 0.6032 0.90796 0.96421 0.0
Co42 Co 0.70522 0.56654 0.25988 0.0
O43 O 0.73771 0.58463 0.21015 0.0
O44 O 0.70698 0.54279 0.20041 0.0
C45 C 0.69265 0.59787 0.25713 0.0
O46 O 0.66903 0.54036 0.297 0.0
Co47 Co 0.69668 0.58806 0.38409 0.0
O48 O 0.65923 0.56025 0.3728 0.0
C49 C 0.72964 0.56275 0.38052 0.0
C50 C 0.72953 0.56219 0.18183 0.0
C51 C 0.65281 0.54087 0.33646 0.0
O52 O 0.72384 0.5562 0.32362 0.0
O53 O 0.72247 0.57711 0.40982 0.0
O54 O 0.68813 0.58219 0.2105 0.0
O55 O 0.70707 0.59617 0.29949 0.0
Co56 Co 0.13896 0.69825 0.57456 0.0
O57 O 0.14537 0.73079 0.53449 0.0
O58 O 0.16438 0.70778 0.50781 0.0
C59 C 0.09398 0.67819 0.58222 0.0
O60 O 0.13737 0.66385 0.60018 0.0
Co61 Co 0.11291 0.68003 0.70383 0.0
O62 O 0.11521 0.64765 0.68848 0.0
C63 C 0.1671 0.72515 0.69143 0.0
C64 C 0.16202 0.72852 0.49876 0.0
C65 C 0.12757 0.64593 0.64209 0.0
O66 O 0.16851 0.71922 0.63512 0.0
O67 O 0.14578 0.71407 0.72302 0.0
O68 O 0.10488 0.67708 0.53096 0.0
O69 O 0.11026 0.69279 0.62392 0.0
Co70 Co 0.44438 0.13719 0.90879 0.0
O71 O 0.42124 0.14264 0.85481 0.0
O72 O 0.46472 0.16487 0.84778 0.0
C73 C 0.42181 0.09212 0.90877 0.0
O74 O 0.47434 0.13621 0.95556 0.0
Co75 Co 0.4218 0.1079 0.03398 0.0
O76 O 0.4576 0.11204 0.04176 0.0
C77 C 0.43515 0.16323 0.01981 0.0
C78 C 0.44206 0.16104 0.82734 0.0
C79 C 0.47679 0.12555 1.00518 0.0
O80 O 0.44629 0.16489 0.9677 0.0
O81 O 0.42144 0.14148 0.0488 0.0
O82 O 0.438 0.10496 0.8641 0.0
O83 O 0.41769 0.1066 0.9464 0.0
Co84 Co 0.56814 0.70074 0.44258 0.0
O85 O 0.59431 0.7351 0.47589 0.0
O86 O 0.55686 0.70747 0.52166 0.0
C87 C 0.59698 0.68731 0.40901 0.0
O88 O 0.53632 0.66356 0.42659 0.0
Co89 Co 0.56603 0.68409 0.30506 0.0
O90 O 0.53796 0.64895 0.33205 0.0
C91 C 0.54845 0.72171 0.34055 0.0
C92 C 0.57842 0.7304 0.52207 0.0
C93 C 0.52722 0.64551 0.38455 0.0
O94 O 0.55022 0.71821 0.39835 0.0
O95 O 0.55569 0.71159 0.29816 0.0
O96 O 0.59015 0.68471 0.46664 0.0
O97 O 0.58798 0.69937 0.37658 0.0
Co98 Co 0.87672 0.55881 0.78305 0.0
O99 O 0.86355 0.57962 0.82694 0.0
O100 O 0.85078 0.53777 0.84429 0.0
C101 C 0.92097 0.5889 0.78301 0.0
O102 O 0.88456 0.53004 0.75518 0.0
Co103 Co 0.90797 0.5724 0.65987 0.0
O104 O 0.91098 0.54033 0.67302 0.0
C105 C 0.84955 0.549 0.6593 0.0
C106 C 0.84839 0.55812 0.85785 0.0
C107 C 0.89767 0.52456 0.71609 0.0
O108 O 0.84802 0.54742 0.71834 0.0
O109 O 0.8713 0.55927 0.62939 0.0
O110 O 0.90966 0.57477 0.83166 0.0
O111 O 0.90514 0.58604 0.73894 0.0
Co112 Co 0.31791 0.87263 0.10846 0.0
O113 O 0.28526 0.86635 0.14741 0.0
O114 O 0.30804 0.84738 0.17606 0.0
C115 C 0.33751 0.91744 0.10102 0.0
O116 O 0.35263 0.87456 0.08269 0.0
Co117 Co 0.33592 0.89894 0.97901 0.0
O118 O 0.36911 0.89861 0.99669 0.0
C119 C 0.29303 0.84337 0.99046 0.0
C120 C 0.28732 0.84994 0.18415 0.0
C121 C 0.37089 0.88562 0.04159 0.0
O122 O 0.29721 0.84282 0.0483 0.0
O123 O 0.30455 0.86414 0.95723 0.0
O124 O 0.33872 0.90665 0.15227 0.0
O125 O 0.3231 0.90114 0.05911 0.0
Co126 Co 0.45203 0.31848 0.44133 0.0
O127 O 0.4274 0.28573 0.48161 0.0
O128 O 0.4695 0.30948 0.50657 0.0
C129 C 0.4253 0.33656 0.43876 0.0
O130 O 0.48308 0.354 0.41168 0.0
Co131 Co 0.43787 0.33322 0.3137 0.0
O132 O 0.46776 0.36871 0.33502 0.0
C133 C 0.45296 0.29206 0.32264 0.0
C134 C 0.44668 0.28827 0.51605 0.0
C135 C 0.4854 0.37224 0.37434 0.0
O136 O 0.46049 0.29807 0.3788 0.0
O137 O 0.44141 0.30197 0.29172 0.0
O138 O 0.43874 0.33861 0.48818 0.0
O139 O 0.42662 0.32194 0.39658 0.0
Co140 Co 0.14714 0.45015 0.77385 0.0
O141 O 0.157 0.43096 0.83251 0.0
O142 O 0.17623 0.47435 0.82541 0.0
C143 C 0.10243 0.42614 0.78341 0.0
O144 O 0.14326 0.47798 0.72477 0.0
Co145 Co 0.11298 0.42506 0.65552 0.0
O146 O 0.11856 0.46089 0.63971 0.0
C147 C 0.16653 0.43261 0.66663 0.0
C148 C 0.17534 0.45404 0.85214 0.0
C149 C 0.13222 0.4802 0.6757 0.0
O150 O 0.17237 0.44919 0.71117 0.0
O151 O 0.14317 0.41861 0.64495 0.0
O152 O 0.11636 0.44397 0.82452 0.0
O153 O 0.1158 0.42184 0.74299 0.0
Co154 Co 0.70572 0.1517 0.09254 0.0
O155 O 0.74038 0.16015 0.12357 0.0
O156 O 0.71332 0.17028 0.17122 0.0
C157 C 0.69214 0.10926 0.06079 0.0
O158 O 0.66835 0.14598 0.07747 0.0
Co159 Co 0.68855 0.13607 0.95539 0.0
O160 O 0.65337 0.12813 0.98419 0.0
C161 C 0.72412 0.19207 0.98966 0.0
C162 C 0.73625 0.17161 0.17004 0.0
C163 C 0.65008 0.13613 0.03598 0.0
O164 O 0.72243 0.18676 0.04739 0.0
O165 O 0.71356 0.17462 0.94751 0.0
O166 O 0.69004 0.11399 0.11835 0.0
O167 O 0.70398 0.13001 0.02727 0.0
H168 H 0.33523 0.37599 0.24393 0.0
H169 H 0.39368 0.45834 0.2738 0.0
H170 H 0.42051 0.44471 0.33585 0.0
H171 H 0.33659 0.35207 0.38651 0.0
H172 H 0.33387 0.32131 0.3617 0.0
H173 H 0.32056 0.33728 0.31488 0.0
H174 H 0.34897 0.33837 0.22234 0.0
H175 H 0.36152 0.32136 0.26805 0.0
H176 H 0.38419 0.35233 0.23186 0.0
H177 H 0.43711 0.42099 0.40873 0.0
H178 H 0.44801 0.38993 0.46192 0.0
H179 H 0.38065 0.32372 0.37516 0.0
C180 C 0.3543 0.39111 0.26112 0.0
C181 C 0.36262 0.41818 0.2533 0.0
C182 C 0.38727 0.43748 0.27805 0.0
C183 C 0.40241 0.42989 0.31419 0.0
C184 C 0.39288 0.40291 0.32378 0.0
C185 C 0.3699 0.38385 0.29575 0.0
C186 C 0.36389 0.3562 0.3125 0.0
C187 C 0.33714 0.34083 0.34587 0.0
C188 C 0.36471 0.34118 0.2553 0.0
C189 C 0.38671 0.36254 0.35537 0.0
C190 C 0.40302 0.38955 0.36249 0.0
C191 C 0.42469 0.39984 0.40246 0.0
C192 C 0.43055 0.38209 0.43319 0.0
C193 C 0.41517 0.35452 0.42257 0.0
C194 C 0.39268 0.34475 0.3843 0.0
H195 H 0.97197 0.37138 0.57851 0.0
H196 H 0.93729 0.30539 0.70603 0.0
H197 H 0.97642 0.32765 0.7716 0.0
H198 H 0.03897 0.38165 0.5929 0.0
H199 H 0.05488 0.41718 0.58675 0.0
H200 H 0.02339 0.39662 0.55014 0.0
H201 H 1.0041 0.42197 0.60828 0.0
H202 H 0.03543 0.44218 0.64606 0.0
H203 H 1.00573 0.42361 0.69079 0.0
H204 H 0.01852 0.35668 0.82621 0.0
H205 H 0.0652 0.38741 0.85517 0.0
H206 H 0.07477 0.4339 0.69272 0.0
C207 C 0.9728 0.36157 0.61983 0.0
C208 C 0.95116 0.33674 0.63728 0.0
C209 C 0.95324 0.32457 0.69178 0.0
C210 C 0.97542 0.3371 0.72984 0.0
C211 C 0.99593 0.36182 0.71284 0.0
C212 C 0.99529 0.37373 0.65847 0.0
C213 C 0.02112 0.39964 0.64983 0.0
C214 C 0.03544 0.39871 0.59145 0.0
C215 C 0.01629 0.42324 0.64867 0.0
C216 C 0.03614 0.40008 0.70738 0.0
C217 C 0.02095 0.37832 0.74367 0.0
C218 C 0.03064 0.37392 0.79835 0.0
C219 C 0.05703 0.39162 0.81498 0.0
C220 C 0.0734 0.41322 0.77683 0.0
C221 C 0.06257 0.41779 0.72321 0.0
H222 H 0.61541 0.95036 0.03014 0.0
H223 H 0.61794 0.96113 0.83306 0.0
H224 H 0.64071 0.00975 0.84854 0.0
H225 H 0.60195 1.00365 0.06706 0.0
H226 H 0.62146 0.01279 0.13624 0.0
H227 H 0.60533 0.97901 0.10953 0.0
H228 H 0.65038 0.98031 0.10989 0.0
H229 H 0.6667 0.01413 0.13614 0.0
H230 H 0.67775 1.00566 0.06703 0.0
H231 H 0.66633 0.05661 0.88524 0.0
H232 H 0.68875 0.09907 0.9387 0.0
H233 H 0.66616 0.05871 0.1143 0.0
C234 C 0.62057 0.96281 0.99007 0.0
C235 C 0.61501 0.95186 0.93011 0.0
C236 C 0.62197 0.96904 0.87923 0.0
C237 C 0.63496 0.99665 0.88769 0.0
C238 C 0.64034 0.00672 0.9474 0.0
C239 C 0.63297 0.99034 0.99779 0.0
C240 C 0.64062 1.00625 0.05712 0.0
C241 C 0.61586 1.00005 0.0947 0.0
C242 C 0.66002 1.00129 0.09475 0.0
C243 C 0.65405 0.03432 0.03227 0.0
C244 C 0.65377 0.03395 0.96881 0.0
C245 C 0.66614 0.05712 0.93482 0.0
C246 C 0.67882 0.0813 0.96608 0.0
C247 C 0.67878 0.08256 0.03116 0.0
C248 C 0.66621 0.05857 0.06469 0.0
H249 H 0.68319 0.61513 0.36727 0.0
H250 H 0.66831 0.61317 0.17194 0.0
H251 H 0.643 0.63627 0.19067 0.0
H252 H 0.617 0.59973 0.41171 0.0
H253 H 0.62809 0.61984 0.48 0.0
H254 H 0.64635 0.60472 0.45097 0.0
H255 H 0.68894 0.65067 0.44687 0.0
H256 H 0.67086 0.66599 0.47569 0.0
H257 H 0.6888 0.67713 0.40453 0.0
H258 H 0.62194 0.66168 0.23022 0.0
H259 H 0.60171 0.68319 0.28625 0.0
H260 H 0.62414 0.66316 0.45931 0.0
C261 C 0.67457 0.61931 0.32819 0.0
C262 C 0.67787 0.61226 0.2678 0.0
C263 C 0.66616 0.61837 0.21841 0.0
C264 C 0.65176 0.63149 0.22872 0.0
C265 C 0.64867 0.63777 0.28889 0.0
C266 C 0.65934 0.63147 0.33792 0.0
C267 C 0.6518 0.63908 0.39837 0.0
C268 C 0.6348 0.61437 0.43758 0.0
C269 C 0.67658 0.65943 0.43342 0.0
C270 C 0.63567 0.6513 0.37565 0.0
C271 C 0.6345 0.65052 0.31224 0.0
C272 C 0.6222 0.66182 0.27982 0.0
C273 C 0.61055 0.67396 0.31263 0.0
C274 C 0.61042 0.67432 0.37782 0.0
C275 C 0.62333 0.66281 0.40974 0.0
H276 H 0.95606 0.63846 0.74231 0.0
H277 H 0.94848 0.56237 0.78347 0.0
H278 H 0.99056 0.57571 0.72854 0.0
H279 H 0.98233 0.6472 0.59566 0.0
H280 H 1.00581 0.68208 0.60266 0.0
H281 H 0.97602 0.66737 0.648 0.0
H282 H 1.00345 0.68422 0.74802 0.0
H283 H 0.03329 0.69982 0.70287 0.0
H284 H 0.0295 0.6768 0.76247 0.0
H285 H 0.03095 0.59593 0.65703 0.0
H286 H 0.07174 0.6249 0.59798 0.0
H287 H 0.05534 0.68935 0.61322 0.0
C288 C 0.96383 0.62503 0.74169 0.0
C289 C 0.94928 0.59954 0.76797 0.0
C290 C 0.95965 0.5822 0.76494 0.0
C291 C 0.98334 0.5895 0.73301 0.0
C292 C 0.99672 0.61446 0.70552 0.0
C293 C 0.98783 0.63233 0.71167 0.0
C294 C 1.00625 0.65822 0.67955 0.0
C295 C 0.99172 0.66405 0.62845 0.0
C296 C 0.01888 0.68112 0.72599 0.0
C297 C 0.0266 0.65199 0.65313 0.0
C298 C 0.0205 0.62646 0.6675 0.0
C299 C 0.03601 0.61602 0.64621 0.0
C300 C 0.05894 0.63247 0.61192 0.0
C301 C 0.06638 0.65916 0.60012 0.0
C302 C 0.04978 0.66884 0.62045 0.0
H303 H 0.32318 0.9506 0.04953 0.0
H304 H 0.39163 0.94636 0.11036 0.0
H305 H 0.42118 0.98956 0.06011 0.0
H306 H 0.34715 0.97892 0.90491 0.0
H307 H 0.33317 1.00038 0.90631 0.0
H308 H 0.31759 0.96981 0.94873 0.0
H309 H 0.32093 0.99511 0.04913 0.0
H310 H 0.33574 0.02565 1.00666 0.0
H311 H 0.35257 0.02233 0.07241 0.0
H312 H 0.44282 0.03177 0.9936 0.0
H313 H 0.45489 0.07312 0.93663 0.0
H314 H 0.37214 0.05089 0.92758 0.0
C315 C 0.34443 0.95918 0.05369 0.0
C316 C 0.35523 0.9455 0.08465 0.0
C317 C 0.38306 0.95694 0.08819 0.0
C318 C 0.39992 0.98125 0.05899 0.0
C319 C 0.38856 0.99393 0.02723 0.0
C320 C 0.36143 0.98359 0.02608 0.0
C321 C 0.35404 1.00125 0.99048 0.0
C322 C 0.33698 0.98671 0.93429 0.0
C323 C 0.34 0.01171 0.03216 0.0
C324 C 0.3812 0.02319 0.97135 0.0
C325 C 0.40089 0.01839 0.9917 0.0
C326 C 0.42752 0.03572 0.97793 0.0
C327 C 0.43419 0.05898 0.94484 0.0
C328 C 0.41438 0.06488 0.92694 0.0
C329 C 0.38759 0.04656 0.9398 0.0
H330 H 0.18176 0.416 0.91682 0.0
H331 H 0.21399 0.50082 0.89845 0.0
H332 H 0.24766 0.50884 0.97618 0.0
H333 H 0.1919 0.41653 0.08202 0.0
H334 H 0.20116 0.39132 0.08003 0.0
H335 H 0.17912 0.39168 0.02264 0.0
H336 H 0.21056 0.39291 0.93735 0.0
H337 H 0.23273 0.39264 0.99449 0.0
H338 H 0.24485 0.41869 0.93816 0.0
H339 H 0.27821 0.50853 0.05505 0.0
H340 H 0.30355 0.49979 0.13237 0.0
H341 H 0.25304 0.41521 0.1036 0.0
C342 C 0.19586 0.43624 0.92936 0.0
C343 C 0.19502 0.45777 0.90106 0.0
C344 C 0.21398 0.48392 0.91898 0.0
C345 C 0.23332 0.48874 0.96329 0.0
C346 C 0.23373 0.46727 0.98997 0.0
C347 C 0.21553 0.4415 0.97404 0.0
C348 C 0.22069 0.42219 1.01054 0.0
C349 C 0.19679 0.40437 0.05122 0.0
C350 C 0.22762 0.40563 0.96756 0.0
C351 C 0.24457 0.4412 0.04916 0.0
C352 C 0.25164 0.46709 0.03621 0.0
C353 C 0.27285 0.48833 0.06559 0.0
C354 C 0.28719 0.48312 0.10963 0.0
C355 C 0.28049 0.45682 0.12448 0.0
C356 C 0.25883 0.43556 0.09337 0.0
H357 H 0.81582 0.27976 0.43648 0.0
H358 H 0.8731 0.25299 0.43138 0.0
H359 H 0.84765 0.22149 0.34889 0.0
H360 H 0.75866 0.21529 0.41459 0.0
H361 H 0.74089 0.22655 0.36734 0.0
H362 H 0.76437 0.2485 0.42328 0.0
H363 H 0.78969 0.28314 0.33866 0.0
H364 H 0.76617 0.26138 0.28252 0.0
H365 H 0.80104 0.27358 0.27169 0.0
H366 H 0.81605 0.19248 0.26706 0.0
H367 H 0.77994 0.16729 0.1932 0.0
H368 H 0.74079 0.21009 0.25296 0.0
C369 C 0.8232 0.26757 0.4172 0.0
C370 C 0.84678 0.26919 0.44016 0.0
C371 C 0.8553 0.25234 0.41458 0.0
C372 C 0.84092 0.23431 0.36759 0.0
C373 C 0.81765 0.23289 0.3466 0.0
C374 C 0.80872 0.24898 0.37059 0.0
C375 C 0.78239 0.24248 0.34119 0.0
C376 C 0.76027 0.23262 0.38949 0.0
C377 C 0.78499 0.26658 0.30645 0.0
C378 C 0.77801 0.22031 0.29708 0.0
C379 C 0.79877 0.21531 0.3008 0.0
C380 C 0.79966 0.19619 0.26398 0.0
C381 C 0.77897 0.18191 0.22205 0.0
C382 C 0.75729 0.18641 0.21726 0.0
C383 C 0.75685 0.20587 0.25583 0.0
H384 H 0.54489 0.80611 0.78843 0.0
H385 H 0.62899 0.86333 0.79369 0.0
H386 H 0.63689 0.8385 0.71289 0.0
H387 H 0.55262 0.74851 0.76623 0.0
H388 H 0.52459 0.7318 0.71554 0.0
H389 H 0.52511 0.75433 0.77288 0.0
H390 H 0.51767 0.78122 0.68884 0.0
H391 H 0.51706 0.75874 0.63128 0.0
H392 H 0.54003 0.79374 0.62455 0.0
H393 H 0.6359 0.80825 0.62864 0.0
H394 H 0.62621 0.77361 0.55114 0.0
H395 H 0.54326 0.7338 0.60257 0.0
C396 C 0.56494 0.81345 0.7724 0.0
C397 C 0.58631 0.83691 0.79764 0.0
C398 C 0.61225 0.84554 0.77551 0.0
C399 C 0.61697 0.83153 0.72935 0.0
C400 C 0.59562 0.80854 0.70562 0.0
C401 C 0.57011 0.79938 0.72662 0.0
C402 C 0.55086 0.77368 0.69399 0.0
C403 C 0.53751 0.75072 0.73991 0.0
C404 C 0.53018 0.77706 0.6575 0.0
C405 C 0.5695 0.76998 0.65133 0.0
C406 C 0.59521 0.79048 0.65857 0.0
C407 C 0.61585 0.792 0.62302 0.0
C408 C 0.61016 0.77218 0.57895 0.0
C409 C 0.58406 0.75072 0.57086 0.0
C410 C 0.56351 0.74967 0.60805 0.0
H411 H 0.77591 0.59928 0.12041 0.0
H412 H 0.71786 0.51539 0.12918 0.0
H413 H 0.74158 0.50648 0.04818 0.0
H414 H 0.78492 0.60147 0.95388 0.0
H415 H 0.82004 0.6245 0.95641 0.0
H416 H 0.79881 0.62502 0.0158 0.0
H417 H 0.82741 0.61912 0.09796 0.0
H418 H 0.84874 0.6186 0.03883 0.0
H419 H 0.83314 0.59154 0.09231 0.0
H420 H 0.77139 0.50549 0.96932 0.0
H421 H 0.80531 0.51259 0.89328 0.0
H422 H 0.84504 0.59727 0.9275 0.0
C423 C 0.76823 0.57907 0.10518 0.0
C424 C 0.74483 0.55803 0.13181 0.0
C425 C 0.73555 0.53191 0.11007 0.0
C426 C 0.74895 0.52659 0.06383 0.0
C427 C 0.77177 0.54754 0.03869 0.0
C428 C 0.7814 0.57332 0.05808 0.0
C429 C 0.80645 0.59195 0.02215 0.0
C430 C 0.8023 0.61192 0.98485 0.0
C431 C 0.83035 0.60614 0.0654 0.0
C432 C 0.80933 0.57252 0.9801 0.0
C433 C 0.78901 0.54703 0.99111 0.0
C434 C 0.78733 0.52537 0.96009 0.0
C435 C 0.80686 0.52966 0.91686 0.0
C436 C 0.82801 0.55547 0.90381 0.0
C437 C 0.82908 0.5773 0.93581 0.0
H438 H 0.2058 0.73495 0.43369 0.0
H439 H 0.15473 0.76866 0.45673 0.0
H440 H 0.18105 0.80291 0.37981 0.0
H441 H 0.26677 0.79758 0.4175 0.0
H442 H 0.2808 0.7855 0.36117 0.0
H443 H 0.25762 0.76312 0.41689 0.0
H444 H 0.22784 0.7327 0.32963 0.0
H445 H 0.25095 0.75495 0.27365 0.0
H446 H 0.21666 0.74634 0.2704 0.0
H447 H 0.21254 0.83331 0.29869 0.0
H448 H 0.24749 0.85836 0.22234 0.0
H449 H 0.27991 0.80666 0.25345 0.0
C450 C 0.20006 0.74946 0.42232 0.0
C451 C 0.17795 0.7489 0.4513 0.0
C452 C 0.17144 0.76852 0.43538 0.0
C453 C 0.18631 0.7881 0.39158 0.0
C454 C 0.20797 0.78815 0.36409 0.0
C455 C 0.21496 0.76943 0.37903 0.0
C456 C 0.23953 0.77436 0.3435 0.0
C457 C 0.26254 0.78051 0.38739 0.0
C458 C 0.23337 0.75068 0.30182 0.0
C459 C 0.24516 0.79865 0.306 0.0
C460 C 0.22659 0.80615 0.3185 0.0
C461 C 0.22722 0.82764 0.28885 0.0
C462 C 0.24722 0.84179 0.24537 0.0
C463 C 0.26667 0.83471 0.23176 0.0
C464 C 0.26555 0.81281 0.26297 0.0
H465 H 0.48083 0.20798 0.77129 0.0
H466 H 0.39663 0.15066 0.7698 0.0
H467 H 0.38959 0.17685 0.69189 0.0
H468 H 0.47403 0.2659 0.75378 0.0
H469 H 0.50213 0.2833 0.70365 0.0
H470 H 0.50142 0.25982 0.75833 0.0
H471 H 0.50871 0.2341 0.67097 0.0
H472 H 0.50958 0.25758 0.61604 0.0
H473 H 0.48646 0.22275 0.60634 0.0
H474 H 0.39059 0.20892 0.61644 0.0
H475 H 0.3997 0.24494 0.54494 0.0
H476 H 0.48331 0.28347 0.59116 0.0
C477 C 0.46098 0.20085 0.75406 0.0
C478 C 0.43928 0.17703 0.77706 0.0
C479 C 0.41362 0.16868 0.75344 0.0
C480 C 0.40937 0.18348 0.70894 0.0
C481 C 0.43093 0.20687 0.68786 0.0
C482 C 0.45629 0.2156 0.70921 0.0
C483 C 0.47571 0.24182 0.67858 0.0
C484 C 0.48911 0.26402 0.72645 0.0
C485 C 0.49634 0.23888 0.64074 0.0
C486 C 0.45721 0.24636 0.63718 0.0
C487 C 0.4315 0.22579 0.6436 0.0
C488 C 0.41066 0.22511 0.61092 0.0
C489 C 0.4161 0.24582 0.57025 0.0
C490 C 0.44223 0.26727 0.56196 0.0
C491 C 0.4631 0.2675 0.59634 0.0
H492 H 0.21094 0.46981 0.6059 0.0
H493 H 0.16545 0.38655 0.65305 0.0
H494 H 0.18788 0.37596 0.57159 0.0
H495 H 0.20969 0.46252 0.44898 0.0
H496 H 0.24332 0.48786 0.43321 0.0
H497 H 0.22664 0.49034 0.50024 0.0
H498 H 0.2638 0.49329 0.57064 0.0
H499 H 0.28118 0.49202 0.50359 0.0
H500 H 0.27348 0.46845 0.56458 0.0
H501 H 0.20892 0.37317 0.47745 0.0
H502 H 0.23849 0.37923 0.391 0.0
H503 H 0.27304 0.46446 0.40469 0.0
C504 C 0.20682 0.44961 0.6009 0.0
C505 C 0.1868 0.42895 0.63596 0.0
C506 C 0.18107 0.40258 0.62704 0.0
C507 C 0.1934 0.39635 0.5804 0.0
C508 C 0.21165 0.41681 0.54367 0.0
C509 C 0.21927 0.44303 0.55459 0.0
C510 C 0.23946 0.46093 0.5074 0.0
C511 C 0.22914 0.47632 0.47028 0.0
C512 C 0.26606 0.47978 0.5384 0.0
C513 C 0.2414 0.44052 0.46777 0.0
C514 C 0.22473 0.41522 0.48929 0.0
C515 C 0.2224 0.39287 0.46061 0.0
C516 C 0.239 0.39649 0.41109 0.0
C517 C 0.25786 0.42225 0.39126 0.0
C518 C 0.25839 0.44456 0.41826 0.0
H519 H 0.84342 0.25146 0.78751 0.0
H520 H 0.80114 0.27674 0.66653 0.0
H521 H 0.76885 0.26832 0.74972 0.0
H522 H 0.78914 0.19971 0.85866 0.0
H523 H 0.80535 0.20574 0.93209 0.0
H524 H 0.82471 0.21533 0.86323 0.0
H525 H 0.85161 0.26326 0.90621 0.0
H526 H 0.83129 0.25381 0.9741 0.0
H527 H 0.8346 0.28077 0.92735 0.0
H528 H 0.73907 0.25248 0.84267 0.0
H529 H 0.71167 0.22474 0.92837 0.0
H530 H 0.77667 0.21535 0.9917 0.0
C531 C 0.82744 0.25532 0.77798 0.0
C532 C 0.82484 0.26475 0.72023 0.0
C533 C 0.80347 0.26935 0.71023 0.0
C534 C 0.78533 0.26506 0.75753 0.0
C535 C 0.78925 0.25676 0.81468 0.0
C536 C 0.80975 0.25183 0.82466 0.0
C537 C 0.80893 0.24131 0.88827 0.0
C538 C 0.80688 0.21391 0.88536 0.0
C539 C 0.83305 0.26097 0.92621 0.0
C540 C 0.7838 0.23962 0.91203 0.0
C541 C 0.77297 0.24915 0.86943 0.0
C542 C 0.74771 0.24574 0.87709 0.0
C543 C 0.7324 0.23034 0.92651 0.0
C544 C 0.74248 0.21864 0.9672 0.0
C545 C 0.76911 0.22516 0.96275 0.0
H546 H 0.60275 0.84693 0.14608 0.0
H547 H 0.53377 0.80381 0.02958 0.0
H548 H 0.51362 0.76839 0.10779 0.0
H549 H 0.60498 0.79052 0.20244 0.0
H550 H 0.61617 0.80503 0.27724 0.0
H551 H 0.62396 0.826 0.2112 0.0
H552 H 0.60251 0.85035 0.2654 0.0
H553 H 0.59351 0.82843 0.3303 0.0
H554 H 0.56842 0.83177 0.28964 0.0
H555 H 0.5016 0.73768 0.19839 0.0
H556 H 0.50308 0.70994 0.28193 0.0
H557 H 0.57878 0.7745 0.3409 0.0
C558 C 0.5835 0.82989 0.13658 0.0
C559 C 0.5698 0.82809 0.08177 0.0
C560 C 0.54476 0.80542 0.07094 0.0
C561 C 0.53296 0.7855 0.1156 0.0
C562 C 0.54649 0.78868 0.1706 0.0
C563 C 0.57147 0.81004 0.18049 0.0
C564 C 0.58266 0.80821 0.24157 0.0
C565 C 0.60844 0.80736 0.23256 0.0
C566 C 0.58702 0.83105 0.28423 0.0
C567 C 0.56029 0.78206 0.26431 0.0
C568 C 0.53934 0.77135 0.22331 0.0
C569 C 0.51762 0.74607 0.23134 0.0
C570 C 0.51835 0.7306 0.2796 0.0
C571 C 0.54067 0.74049 0.31868 0.0
C572 C 0.56099 0.76703 0.31336 0.0
H573 H 0.74191 0.57074 0.50208 0.0
H574 H 0.75128 0.53255 0.34047 0.0
H575 H 0.77689 0.51753 0.40253 0.0
H576 H 0.80512 0.59634 0.55695 0.0
H577 H 0.79593 0.59172 0.63678 0.0
H578 H 0.77537 0.59583 0.58178 0.0
H579 H 0.73513 0.55147 0.61711 0.0
H580 H 0.75574 0.54709 0.67197 0.0
H581 H 0.73725 0.52168 0.61597 0.0
H582 H 0.80555 0.51148 0.47872 0.0
H583 H 0.83785 0.51787 0.5594 0.0
H584 H 0.80916 0.5597 0.67118 0.0
C585 C 0.74895 0.5589 0.47944 0.0
C586 C 0.74454 0.55284 0.41614 0.0
C587 C 0.75435 0.53743 0.38882 0.0
C588 C 0.76872 0.52864 0.42382 0.0
C589 C 0.77275 0.53518 0.48606 0.0
C590 C 0.76314 0.55 0.51348 0.0
C591 C 0.77226 0.55672 0.57935 0.0
C592 C 0.78812 0.58693 0.58924 0.0
C593 C 0.74868 0.54344 0.62371 0.0
C594 C 0.78968 0.54446 0.5842 0.0
C595 C 0.78919 0.53158 0.5303 0.0
C596 C 0.80566 0.52099 0.52144 0.0
C597 C 0.82387 0.52467 0.56752 0.0
C598 C 0.82554 0.5389 0.62161 0.0
C599 C 0.80757 0.548 0.63112 0.0
H600 H 0.17189 0.76282 0.77083 0.0
H601 H 0.21534 0.72784 0.69077 0.0
H602 H 0.25122 0.75148 0.76715 0.0
H603 H 0.22995 0.8274 0.80535 0.0
H604 H 0.21517 0.8309 0.8747 0.0
H605 H 0.19446 0.8123 0.81123 0.0
H606 H 0.16867 0.77216 0.8837 0.0
H607 H 0.19 0.79031 0.94679 0.0
H608 H 0.18632 0.75886 0.92445 0.0
H609 H 0.28059 0.77669 0.85755 0.0
H610 H 0.30531 0.80832 0.94126 0.0
H611 H 0.24225 0.82657 0.95992 0.0
C612 C 0.1893 0.76069 0.7685 0.0
C613 C 0.19111 0.74375 0.72504 0.0
C614 C 0.21395 0.74116 0.72326 0.0
C615 C 0.23415 0.75416 0.76696 0.0
C616 C 0.23111 0.76975 0.81124 0.0
C617 C 0.20959 0.77362 0.81112 0.0
C618 C 0.21108 0.79169 0.86256 0.0
C619 C 0.21278 0.81708 0.83693 0.0
C620 C 0.18762 0.77739 0.90698 0.0
C621 C 0.23674 0.79728 0.89232 0.0
C622 C 0.24787 0.78419 0.86266 0.0
C623 C 0.272 0.78693 0.88122 0.0
C624 C 0.28569 0.80454 0.92927 0.0
C625 C 0.27512 0.81903 0.95777 0.0
C626 C 0.25015 0.8149 0.94009 0.0
H627 H 0.40402 0.17007 0.10195 0.0
H628 H 0.48179 0.21033 0.01763 0.0
H629 H 0.49655 0.2463 0.09439 0.0
H630 H 0.40162 0.23014 0.13999 0.0
H631 H 0.38387 0.21592 0.2102 0.0
H632 H 0.37983 0.19486 0.1459 0.0
H633 H 0.39306 0.16738 0.21579 0.0
H634 H 0.39823 0.18906 0.27961 0.0
H635 H 0.4246 0.18363 0.25456 0.0
H636 H 0.50349 0.27606 0.18568 0.0
H637 H 0.49926 0.30194 0.27085 0.0
H638 H 0.41696 0.2419 0.29346 0.0
C639 C 0.42397 0.1868 0.09873 0.0
C640 C 0.44177 0.18755 0.05394 0.0
C641 C 0.46774 0.20963 0.05114 0.0
C642 C 0.4764 0.22991 0.09507 0.0
C643 C 0.45871 0.2278 0.14075 0.0
C644 C 0.43281 0.20718 0.1417 0.0
C645 C 0.4175 0.20965 0.19469 0.0
C646 C 0.39435 0.21285 0.1713 0.0
C647 C 0.40779 0.18602 0.23874 0.0
C648 C 0.43887 0.23481 0.22389 0.0
C649 C 0.46263 0.24483 0.19273 0.0
C650 C 0.48503 0.26835 0.21055 0.0
C651 C 0.48262 0.28269 0.25943 0.0
C652 C 0.45803 0.27334 0.28932 0.0
C653 C 0.43616 0.24886 0.27242 0.0
H654 H 0.39616 0.51452 0.27984 0.0
H655 H 0.38196 0.49029 0.47024 0.0
H656 H 0.42175 0.53238 0.5005 0.0
H657 H 0.46623 0.54287 0.28789 0.0
H658 H 0.47312 0.56923 0.23486 0.0
H659 H 0.44248 0.53825 0.2293 0.0
H660 H 0.41607 0.56305 0.23801 0.0
H661 H 0.44664 0.59412 0.2434 0.0
H662 H 0.42188 0.58473 0.30234 0.0
H663 H 0.46358 0.57801 0.50921 0.0
H664 H 0.50505 0.62095 0.4945 0.0
H665 H 0.49273 0.61281 0.29776 0.0
C666 C 0.4012 0.51828 0.328 0.0
C667 C 0.3858 0.49939 0.37285 0.0
C668 C 0.39345 0.50463 0.43523 0.0
C669 C 0.41596 0.52848 0.45281 0.0
C670 C 0.43087 0.54667 0.40732 0.0
C671 C 0.42389 0.54165 0.34612 0.0
C672 C 0.44406 0.56349 0.30567 0.0
C673 C 0.45725 0.55282 0.26187 0.0
C674 C 0.4314 0.57715 0.27029 0.0
C675 C 0.46339 0.58169 0.35356 0.0
C676 C 0.4554 0.57191 0.41204 0.0
C677 C 0.47007 0.58576 0.46353 0.0
C678 C 0.49356 0.61013 0.45483 0.0
C679 C 0.50232 0.62011 0.39505 0.0
C680 C 0.48685 0.60559 0.34409 0.0
H681 H 0.9091 0.49761 0.62764 0.0
H682 H 0.88305 0.49248 0.81624 0.0
H683 H 0.87857 0.44838 0.82528 0.0
H684 H 0.86467 0.42942 0.58956 0.0
H685 H 0.88802 0.42592 0.54196 0.0
H686 H 0.89038 0.45779 0.54999 0.0
H687 H 0.939 0.47821 0.58636 0.0
H688 H 0.93687 0.44645 0.57807 0.0
H689 H 0.94661 0.46366 0.65042 0.0
H690 H 0.87689 0.40545 0.81535 0.0
H691 H 0.87762 0.36503 0.78675 0.0
H692 H 0.90301 0.39578 0.60292 0.0
C693 C 0.90271 0.4873 0.67099 0.0
C694 C 0.89649 0.49861 0.72133 0.0
C695 C 0.88787 0.4843 0.777 0.0
C696 C 0.88528 0.4592 0.78265 0.0
C697 C 0.89121 0.4485 0.73214 0.0
C698 C 0.89973 0.46196 0.67732 0.0
C699 C 0.90421 0.44543 0.62996 0.0
C700 C 0.88571 0.43928 0.57459 0.0
C701 C 0.93341 0.45926 0.61004 0.0
C702 C 0.89681 0.4206 0.6669 0.0
C703 C 0.88956 0.42305 0.72582 0.0
C704 C 0.88248 0.40325 0.76936 0.0
C705 C 0.88302 0.38038 0.75263 0.0
C706 C 0.89036 0.37722 0.69262 0.0
C707 C 0.89708 0.39754 0.64892 0.0
H708 H 0.50697 0.89644 0.92653 0.0
H709 H 0.51591 0.87461 0.11118 0.0
H710 H 0.47225 0.86854 0.13912 0.0
H711 H 0.47792 0.93481 0.97124 0.0
H712 H 0.45528 0.9253 0.90752 0.0
H713 H 0.48602 0.9253 0.89933 0.0
H714 H 0.46038 0.87609 0.86571 0.0
H715 H 0.42954 0.87599 0.8735 0.0
H716 H 0.43457 0.852 0.91429 0.0
H717 H 0.4287 0.86644 0.14906 0.0
H718 H 0.38834 0.86996 0.14107 0.0
H719 H 0.40794 0.89532 0.95181 0.0
C720 C 0.49939 0.88989 0.97235 0.0
C721 C 0.51463 0.88577 0.01665 0.0
C722 C 0.50446 0.87782 0.07664 0.0
C723 C 0.47967 0.87425 0.09292 0.0
C724 C 0.46528 0.87894 0.04885 0.0
C725 C 0.4747 0.88666 0.98984 0.0
C726 C 0.45587 0.8921 0.95287 0.0
C727 C 0.4696 0.9211 0.9315 0.0
C728 C 0.44441 0.8729 0.89836 0.0
C729 C 0.43471 0.88652 1.00056 0.0
C730 C 0.4404 0.87863 0.05532 0.0
C731 C 0.42395 0.87253 0.10634 0.0
C732 C 0.40105 0.87458 0.10136 0.0
C733 C 0.39491 0.88299 0.04598 0.0
C734 C 0.41207 0.88897 0.99497 0.0
H735 H 0.63621 0.48753 0.32689 0.0
H736 H 0.60825 0.54287 0.35979 0.0
H737 H 0.56301 0.50556 0.37616 0.0
H738 H 0.57739 0.4369 0.24889 0.0
H739 H 0.57864 0.40965 0.28438 0.0
H740 H 0.60874 0.44066 0.27237 0.0
H741 H 0.61959 0.44283 0.38804 0.0
H742 H 0.58936 0.41197 0.40051 0.0
H743 H 0.59585 0.44099 0.44367 0.0
H744 H 0.52103 0.46316 0.38568 0.0
H745 H 0.48405 0.41725 0.39068 0.0
H746 H 0.53848 0.38802 0.3612 0.0
C747 C 0.62042 0.49167 0.33674 0.0
C748 C 0.62561 0.51806 0.34156 0.0
C749 C 0.60465 0.52281 0.35579 0.0
C750 C 0.57891 0.50176 0.36521 0.0
C751 C 0.57449 0.47603 0.36124 0.0
C752 C 0.59456 0.47078 0.34762 0.0
C753 C 0.58429 0.44112 0.34811 0.0
C754 C 0.58745 0.43152 0.28466 0.0
C755 C 0.5981 0.4338 0.39806 0.0
C756 C 0.55529 0.43061 0.36355 0.0
C757 C 0.5502 0.45123 0.37047 0.0
C758 C 0.52481 0.44685 0.38139 0.0
C759 C 0.50394 0.4207 0.38454 0.0
C760 C 0.50854 0.39919 0.37816 0.0
C761 C 0.53461 0.40417 0.36814 0.0
H762 H 0.1245 0.6116 0.7325 0.0
H763 H 0.13753 0.6267 0.5372 0.0
H764 H 0.14177 0.58687 0.52554 0.0
H765 H 0.17152 0.58843 0.75231 0.0
H766 H 0.15142 0.56365 0.80801 0.0
H767 H 0.14951 0.59346 0.80135 0.0
H768 H 0.09881 0.56537 0.78429 0.0
H769 H 0.10056 0.5355 0.79105 0.0
H770 H 0.08616 0.54109 0.72365 0.0
H771 H 0.14156 0.54392 0.53372 0.0
H772 H 0.13965 0.502 0.56236 0.0
H773 H 0.13 0.51617 0.75324 0.0
C774 C 0.12827 0.60654 0.68728 0.0
C775 C 0.13059 0.62225 0.63568 0.0
C776 C 0.13575 0.61506 0.57742 0.0
C777 C 0.13816 0.59244 0.5703 0.0
C778 C 0.13573 0.5774 0.62201 0.0
C779 C 0.13116 0.58425 0.67949 0.0
C780 C 0.12953 0.56471 0.72758 0.0
C781 C 0.15183 0.57839 0.77512 0.0
C782 C 0.10214 0.55085 0.75844 0.0
C783 C 0.13355 0.54561 0.688 0.0
C784 C 0.1369 0.55323 0.62717 0.0
C785 C 0.13935 0.53796 0.58129 0.0
C786 C 0.1382 0.51419 0.59793 0.0
C787 C 0.13507 0.50613 0.65999 0.0
C788 C 0.13301 0.52222 0.70563 0.0
H789 H 0.61606 0.13447 0.94805 0.0
H790 H 0.62664 0.13694 0.14534 0.0
H791 H 0.58373 0.13559 0.15897 0.0
H792 H 0.58734 0.17663 0.94365 0.0
H793 H 0.56501 0.15851 0.88188 0.0
H794 H 0.59631 0.15952 0.88819 0.0
H795 H 0.57204 0.10822 0.88885 0.0
H796 H 0.54067 0.10704 0.8824 0.0
H797 H 0.54642 0.09026 0.94469 0.0
H798 H 0.53848 0.13162 0.15008 0.0
H799 H 0.49585 0.12781 0.12031 0.0
H800 H 0.51649 0.13054 0.9284 0.0
C801 C 0.60939 0.13461 0.9943 0.0
C802 C 0.6246 0.13552 0.04579 0.0
C803 C 0.6153 0.13617 0.10532 0.0
C804 C 0.59096 0.1354 0.11341 0.0
C805 C 0.57647 0.1344 0.06148 0.0
C806 C 0.58549 0.13426 1.00309 0.0
C807 C 0.56647 0.13346 0.95469 0.0
C808 C 0.57957 0.15853 0.91476 0.0
C809 C 0.55577 0.10824 0.91536 0.0
C810 C 0.54502 0.13284 0.99486 0.0
C811 C 0.55108 0.13324 0.05632 0.0
C812 C 0.5337 0.13158 0.10214 0.0
C813 C 0.5095 0.12934 0.08473 0.0
C814 C 0.50297 0.12908 0.02202 0.0
C815 C 0.52114 0.13112 0.97663 0.0
loop_
_geom_bond_atom_site_label_1
_geom_bond_atom_site_label_2
_geom_bond_distance
_geom_bond_site_symmetry_2
_ccdc_geom_bond_type
Co0 O1 2.216 . S
Co0 O2 2.091 . S
Co0 O4 2.004 . S
Co0 O10 2.021 . S
Co0 O12 2.137 . S
Co0 O13 2.244 . S
O1 Co0 2.216 . S
O1 C8 1.247 . S
O2 Co0 2.091 . S
O2 C8 1.261 . S
C3 O12 1.247 . S
C3 O13 1.272 . S
O4 Co0 2.004 . S
O4 C9 1.259 . S
Co5 O6 2.061 . S
Co5 O11 2.052 . S
Co5 O13 2.135 . S
O6 Co5 2.061 . S
O6 C9 1.235 . S
C7 O10 1.238 . S
C7 O11 1.241 . S
C8 O1 1.247 . S
C8 O2 1.261 . S
C9 O4 1.259 . S
C9 O6 1.235 . S
O10 Co0 2.021 . S
O10 C7 1.238 . S
O11 Co5 2.052 . S
O11 C7 1.241 . S
O12 Co0 2.137 . S
O12 C3 1.247 . S
O13 Co0 2.244 . S
O13 C3 1.272 . S
O13 Co5 2.135 . S
Co14 O15 2.216 . S
Co14 O16 2.091 . S
Co14 O18 2.004 . S
Co14 O24 2.021 . S
Co14 O26 2.137 . S
Co14 O27 2.244 . S
O15 Co14 2.216 . S
O15 C22 1.247 . S
O16 Co14 2.091 . S
O16 C22 1.261 . S
C17 O26 1.247 . S
C17 O27 1.272 . S
O18 Co14 2.004 . S
O18 C23 1.259 . S
Co19 O20 2.061 . S
Co19 O25 2.052 . S
Co19 O27 2.135 . S
O20 Co19 2.061 . S
O20 C23 1.235 . S
C21 O24 1.238 . S
C21 O25 1.241 . S
C22 O15 1.247 . S
C22 O16 1.261 . S
C23 O18 1.259 . S
C23 O20 1.235 . S
O24 Co14 2.021 . S
O24 C21 1.238 . S
O25 Co19 2.052 . S
O25 C21 1.241 . S
O26 Co14 2.137 . S
O26 C17 1.247 . S
O27 Co14 2.244 . S
O27 C17 1.272 . S
O27 Co19 2.135 . S
Co28 O29 2.216 . S
Co28 O30 2.091 . S
Co28 O32 2.004 . S
Co28 O38 2.021 . S
Co28 O40 2.137 . S
Co28 O41 2.244 . S
O29 Co28 2.216 . S
O29 C36 1.247 . S
O30 Co28 2.091 . S
O30 C36 1.261 . S
C31 O40 1.247 . S
C31 O41 1.272 . S
O32 Co28 2.004 . S
O32 C37 1.259 . S
Co33 O34 2.061 . S
Co33 O39 2.052 . S
Co33 O41 2.135 1_554 S
O34 Co33 2.061 . S
O34 C37 1.235 1_554 S
C35 O38 1.238 1_554 S
C35 O39 1.241 . S
C36 O29 1.247 . S
C36 O30 1.261 . S
C37 O32 1.259 . S
C37 O34 1.235 1_556 S
O38 Co28 2.021 . S
O38 C35 1.238 1_556 S
O39 Co33 2.052 . S
O39 C35 1.241 . S
O40 Co28 2.137 . S
O40 C31 1.247 . S
O41 Co28 2.244 . S
O41 C31 1.272 . S
O41 Co33 2.135 1_556 S
Co42 O43 2.216 . S
Co42 O44 2.091 . S
Co42 O46 2.004 . S
Co42 O52 2.021 . S
Co42 O54 2.137 . S
Co42 O55 2.244 . S
O43 Co42 2.216 . S
O43 C50 1.247 . S
O44 Co42 2.091 . S
O44 C50 1.261 . S
C45 O54 1.247 . S
C45 O55 1.272 . S
O46 Co42 2.004 . S
O46 C51 1.259 . S
Co47 O48 2.061 . S
Co47 O53 2.052 . S
Co47 O55 2.135 . S
O48 Co47 2.061 . S
O48 C51 1.235 . S
C49 O52 1.238 . S
C49 O53 1.241 . S
C50 O43 1.247 . S
C50 O44 1.261 . S
C51 O46 1.259 . S
C51 O48 1.235 . S
O52 Co42 2.021 . S
O52 C49 1.238 . S
O53 Co47 2.052 . S
O53 C49 1.241 . S
O54 Co42 2.137 . S
O54 C45 1.247 . S
O55 Co42 2.244 . S
O55 C45 1.272 . S
O55 Co47 2.135 . S
Co56 O57 2.216 . S
Co56 O58 2.091 . S
Co56 O60 2.004 . S
Co56 O66 2.021 . S
Co56 O68 2.137 . S
Co56 O69 2.244 . S
O57 Co56 2.216 . S
O57 C64 1.247 . S
O58 Co56 2.091 . S
O58 C64 1.261 . S
C59 O68 1.247 . S
C59 O69 1.272 . S
O60 Co56 2.004 . S
O60 C65 1.259 . S
Co61 O62 2.061 . S
Co61 O67 2.052 . S
Co61 O69 2.135 . S
O62 Co61 2.061 . S
O62 C65 1.235 . S
C63 O66 1.238 . S
C63 O67 1.241 . S
C64 O57 1.247 . S
C64 O58 1.261 . S
C65 O60 1.259 . S
C65 O62 1.235 . S
O66 Co56 2.021 . S
O66 C63 1.238 . S
O67 Co61 2.052 . S
O67 C63 1.241 . S
O68 Co56 2.137 . S
O68 C59 1.247 . S
O69 Co56 2.244 . S
O69 C59 1.272 . S
O69 Co61 2.135 . S
Co70 O71 2.216 . S
Co70 O72 2.091 . S
Co70 O74 2.004 . S
Co70 O80 2.021 . S
Co70 O82 2.137 . S
Co70 O83 2.244 . S
O71 Co70 2.216 . S
O71 C78 1.247 . S
O72 Co70 2.091 . S
O72 C78 1.261 . S
C73 O82 1.247 . S
C73 O83 1.272 . S
O74 Co70 2.004 . S
O74 C79 1.259 . S
Co75 O76 2.061 . S
Co75 O81 2.052 . S
Co75 O83 2.135 1_554 S
O76 Co75 2.061 . S
O76 C79 1.235 1_554 S
C77 O80 1.238 1_554 S
C77 O81 1.241 . S
C78 O71 1.247 . S
C78 O72 1.261 . S
C79 O74 1.259 . S
C79 O76 1.235 1_556 S
O80 Co70 2.021 . S
O80 C77 1.238 1_556 S
O81 Co75 2.052 . S
O81 C77 1.241 . S
O82 Co70 2.137 . S
O82 C73 1.247 . S
O83 Co70 2.244 . S
O83 C73 1.272 . S
O83 Co75 2.135 1_556 S
Co84 O85 2.216 . S
Co84 O86 2.091 . S
Co84 O88 2.004 . S
Co84 O94 2.021 . S
Co84 O96 2.137 . S
Co84 O97 2.244 . S
O85 Co84 2.216 . S
O85 C92 1.247 . S
O86 Co84 2.091 . S
O86 C92 1.261 . S
C87 O96 1.247 . S
C87 O97 1.272 . S
O88 Co84 2.004 . S
O88 C93 1.259 . S
Co89 O90 2.061 . S
Co89 O95 2.052 . S
Co89 O97 2.135 . S
O90 Co89 2.061 . S
O90 C93 1.235 . S
C91 O94 1.238 . S
C91 O95 1.241 . S
C92 O85 1.247 . S
C92 O86 1.261 . S
C93 O88 1.259 . S
C93 O90 1.235 . S
O94 Co84 2.021 . S
O94 C91 1.238 . S
O95 Co89 2.052 . S
O95 C91 1.241 . S
O96 Co84 2.137 . S
O96 C87 1.247 . S
O97 Co84 2.244 . S
O97 C87 1.272 . S
O97 Co89 2.135 . S
Co98 O99 2.216 . S
Co98 O100 2.091 . S
Co98 O102 2.004 . S
Co98 O108 2.021 . S
Co98 O110 2.137 . S
Co98 O111 2.244 . S
O99 Co98 2.216 . S
O99 C106 1.247 . S
O100 Co98 2.091 . S
O100 C106 1.261 . S
C101 O110 1.247 . S
C101 O111 1.272 . S
O102 Co98 2.004 . S
O102 C107 1.259 . S
Co103 O104 2.061 . S
Co103 O109 2.052 . S
Co103 O111 2.135 . S
O104 Co103 2.061 . S
O104 C107 1.235 . S
C105 O108 1.238 . S
C105 O109 1.241 . S
C106 O99 1.247 . S
C106 O100 1.261 . S
C107 O102 1.259 . S
C107 O104 1.235 . S
O108 Co98 2.021 . S
O108 C105 1.238 . S
O109 Co103 2.052 . S
O109 C105 1.241 . S
O110 Co98 2.137 . S
O110 C101 1.247 . S
O111 Co98 2.244 . S
O111 C101 1.272 . S
O111 Co103 2.135 . S
Co112 O113 2.216 . S
Co112 O114 2.091 . S
Co112 O116 2.004 . S
Co112 O122 2.021 . S
Co112 O124 2.137 . S
Co112 O125 2.244 . S
O113 Co112 2.216 . S
O113 C120 1.247 . S
O114 Co112 2.091 . S
O114 C120 1.261 . S
C115 O124 1.247 . S
C115 O125 1.272 . S
O116 Co112 2.004 . S
O116 C121 1.259 . S
Co117 O118 2.061 . S
Co117 O123 2.052 . S
Co117 O125 2.135 1_556 S
O118 Co117 2.061 . S
O118 C121 1.235 1_556 S
C119 O122 1.238 1_556 S
C119 O123 1.241 . S
C120 O113 1.247 . S
C120 O114 1.261 . S
C121 O116 1.259 . S
C121 O118 1.235 1_554 S
O122 Co112 2.021 . S
O122 C119 1.238 1_554 S
O123 Co117 2.052 . S
O123 C119 1.241 . S
O124 Co112 2.137 . S
O124 C115 1.247 . S
O125 Co112 2.244 . S
O125 C115 1.272 . S
O125 Co117 2.135 1_554 S
Co126 O127 2.216 . S
Co126 O128 2.091 . S
Co126 O130 2.004 . S
Co126 O136 2.021 . S
Co126 O138 2.137 . S
Co126 O139 2.244 . S
O127 Co126 2.216 . S
O127 C134 1.247 . S
O128 Co126 2.091 . S
O128 C134 1.261 . S
C129 O138 1.247 . S
C129 O139 1.272 . S
O130 Co126 2.004 . S
O130 C135 1.259 . S
Co131 O132 2.061 . S
Co131 O137 2.052 . S
Co131 O139 2.135 . S
O132 Co131 2.061 . S
O132 C135 1.235 . S
C133 O136 1.238 . S
C133 O137 1.241 . S
C134 O127 1.247 . S
C134 O128 1.261 . S
C135 O130 1.259 . S
C135 O132 1.235 . S
O136 Co126 2.021 . S
O136 C133 1.238 . S
O137 Co131 2.052 . S
O137 C133 1.241 . S
O138 Co126 2.137 . S
O138 C129 1.247 . S
O139 Co126 2.244 . S
O139 C129 1.272 . S
O139 Co131 2.135 . S
Co140 O141 2.216 . S
Co140 O142 2.091 . S
Co140 O144 2.004 . S
Co140 O150 2.021 . S
Co140 O152 2.137 . S
Co140 O153 2.244 . S
O141 Co140 2.216 . S
O141 C148 1.247 . S
O142 Co140 2.091 . S
O142 C148 1.261 . S
C143 O152 1.247 . S
C143 O153 1.272 . S
O144 Co140 2.004 . S
O144 C149 1.259 . S
Co145 O146 2.061 . S
Co145 O151 2.052 . S
Co145 O153 2.135 . S
O146 Co145 2.061 . S
O146 C149 1.235 . S
C147 O150 1.238 . S
C147 O151 1.241 . S
C148 O141 1.247 . S
C148 O142 1.261 . S
C149 O144 1.259 . S
C149 O146 1.235 . S
O150 Co140 2.021 . S
O150 C147 1.238 . S
O151 Co145 2.052 . S
O151 C147 1.241 . S
O152 Co140 2.137 . S
O152 C143 1.247 . S
O153 Co140 2.244 . S
O153 C143 1.272 . S
O153 Co145 2.135 . S
Co154 O155 2.216 . S
Co154 O156 2.091 . S
Co154 O158 2.004 . S
Co154 O164 2.021 . S
Co154 O166 2.137 . S
Co154 O167 2.244 . S
O155 Co154 2.216 . S
O155 C162 1.247 . S
O156 Co154 2.091 . S
O156 C162 1.261 . S
C157 O166 1.247 . S
C157 O167 1.272 . S
O158 Co154 2.004 . S
O158 C163 1.259 . S
Co159 O160 2.061 . S
Co159 O165 2.052 . S
Co159 O167 2.135 1_556 S
O160 Co159 2.061 . S
O160 C163 1.235 1_556 S
C161 O164 1.238 1_556 S
C161 O165 1.241 . S
C162 O155 1.247 . S
C162 O156 1.261 . S
C163 O158 1.259 . S
C163 O160 1.235 1_554 S
O164 Co154 2.021 . S
O164 C161 1.238 1_554 S
O165 Co159 2.052 . S
O165 C161 1.241 . S
O166 Co154 2.137 . S
O166 C157 1.247 . S
O167 Co154 2.244 . S
O167 C157 1.272 . S
O167 Co159 2.135 1_554 S
H168 C180 0.930 . S
H169 C182 0.930 . S
H170 C183 0.930 . S
H171 C187 0.959 . S
H172 C187 0.959 . S
H173 C187 0.961 . S
H174 C188 0.960 . S
H175 C188 0.961 . S
H176 C188 0.959 . S
H177 C191 0.929 . S
H178 C192 0.931 . S
H179 C194 0.930 . S
C180 H168 0.930 . S
C180 C181 1.399 . S
C180 C185 1.399 . S
C181 C180 1.399 . S
C181 C182 1.376 . S
C182 H169 0.930 . S
C182 C181 1.376 . S
C182 C183 1.388 . S
C183 H170 0.930 . S
C183 C182 1.388 . S
C183 C184 1.390 . S
C184 C183 1.390 . S
C184 C185 1.394 . S
C184 C190 1.465 . S
C185 C180 1.399 . S
C185 C184 1.394 . S
C185 C186 1.516 . S
C186 C185 1.516 . S
C186 C187 1.502 . S
C186 C188 1.561 . S
C186 C189 1.526 . S
C187 H171 0.959 . S
C187 H172 0.959 . S
C187 H173 0.961 . S
C187 C186 1.502 . S
C188 H174 0.960 . S
C188 H175 0.961 . S
C188 H176 0.959 . S
C188 C186 1.561 . S
C189 C186 1.526 . S
C189 C190 1.396 . S
C189 C194 1.390 . S
C190 C184 1.465 . S
C190 C189 1.396 . S
C190 C191 1.399 . S
C191 H177 0.929 . S
C191 C190 1.399 . S
C191 C192 1.385 . S
C192 H178 0.931 . S
C192 C191 1.385 . S
C192 C193 1.389 . S
C193 C192 1.389 . S
C193 C194 1.387 . S
C194 H179 0.930 . S
C194 C189 1.390 . S
C194 C193 1.387 . S
H195 C207 0.930 . S
H196 C209 0.930 . S
H197 C210 0.930 . S
H198 C214 0.959 . S
H199 C214 0.959 . S
H200 C214 0.961 . S
H201 C215 0.960 1_655 S
H202 C215 0.961 . S
H203 C215 0.959 1_655 S
H204 C218 0.929 . S
H205 C219 0.931 . S
H206 C221 0.930 . S
C207 H195 0.930 . S
C207 C208 1.399 . S
C207 C212 1.399 . S
C208 C207 1.399 . S
C208 C209 1.376 . S
C209 H196 0.930 . S
C209 C208 1.376 . S
C209 C210 1.388 . S
C210 H197 0.930 . S
C210 C209 1.388 . S
C210 C211 1.390 . S
C211 C210 1.390 . S
C211 C212 1.394 . S
C211 C217 1.465 1_655 S
C212 C207 1.399 . S
C212 C211 1.394 . S
C212 C213 1.516 1_655 S
C213 C212 1.516 1_455 S
C213 C214 1.502 . S
C213 C215 1.561 . S
C213 C216 1.526 . S
C214 H198 0.959 . S
C214 H199 0.959 . S
C214 H200 0.961 . S
C214 C213 1.502 . S
C215 H201 0.960 1_455 S
C215 H202 0.961 . S
C215 H203 0.959 1_455 S
C215 C213 1.561 . S
C216 C213 1.526 . S
C216 C217 1.396 . S
C216 C221 1.390 . S
C217 C211 1.465 1_455 S
C217 C216 1.396 . S
C217 C218 1.399 . S
C218 H204 0.929 . S
C218 C217 1.399 . S
C218 C219 1.385 . S
C219 H205 0.931 . S
C219 C218 1.385 . S
C219 C220 1.389 . S
C220 C219 1.389 . S
C220 C221 1.387 . S
C221 H206 0.930 . S
C221 C216 1.390 . S
C221 C220 1.387 . S
H222 C234 0.930 . S
H223 C236 0.930 . S
H224 C237 0.930 . S
H225 C241 0.959 . S
H226 C241 0.959 . S
H227 C241 0.961 . S
H228 C242 0.960 . S
H229 C242 0.961 . S
H230 C242 0.959 . S
H231 C245 0.929 . S
H232 C246 0.931 . S
H233 C248 0.930 . S
C234 H222 0.930 . S
C234 C235 1.399 1_554 S
C234 C239 1.399 . S
C235 C234 1.399 1_556 S
C235 C236 1.376 . S
C236 H223 0.930 . S
C236 C235 1.376 . S
C236 C237 1.388 . S
C237 H224 0.930 . S
C237 C236 1.388 . S
C237 C238 1.390 . S
C238 C237 1.390 . S
C238 C239 1.394 1_556 S
C238 C244 1.465 1_565 S
C239 C234 1.399 . S
C239 C238 1.394 1_554 S
C239 C240 1.516 . S
C240 C239 1.516 . S
C240 C241 1.502 . S
C240 C242 1.561 . S
C240 C243 1.526 1_565 S
C241 H225 0.959 . S
C241 H226 0.959 . S
C241 H227 0.961 . S
C241 C240 1.502 . S
C242 H228 0.960 . S
C242 H229 0.961 . S
C242 H230 0.959 . S
C242 C240 1.561 . S
C243 C240 1.526 1_545 S
C243 C244 1.396 1_554 S
C243 C248 1.390 . S
C244 C238 1.465 1_545 S
C244 C243 1.396 1_556 S
C244 C245 1.399 . S
C245 H231 0.929 . S
C245 C244 1.399 . S
C245 C246 1.385 . S
C246 H232 0.931 . S
C246 C245 1.385 . S
C246 C247 1.389 1_556 S
C247 C246 1.389 1_554 S
C247 C248 1.387 . S
C248 H233 0.930 . S
C248 C243 1.390 . S
C248 C247 1.387 . S
H249 C261 0.930 . S
H250 C263 0.930 . S
H251 C264 0.930 . S
H252 C268 0.959 . S
H253 C268 0.959 . S
H254 C268 0.961 . S
H255 C269 0.960 . S
H256 C269 0.961 . S
H257 C269 0.959 . S
H258 C272 0.929 . S
H259 C273 0.931 . S
H260 C275 0.930 . S
C261 H249 0.930 . S
C261 C262 1.399 . S
C261 C266 1.399 . S
C262 C261 1.399 . S
C262 C263 1.376 . S
C263 H250 0.930 . S
C263 C262 1.376 . S
C263 C264 1.388 . S
C264 H251 0.930 . S
C264 C263 1.388 . S
C264 C265 1.390 . S
C265 C264 1.390 . S
C265 C266 1.394 . S
C265 C271 1.465 . S
C266 C261 1.399 . S
C266 C265 1.394 . S
C266 C267 1.516 . S
C267 C266 1.516 . S
C267 C268 1.502 . S
C267 C269 1.561 . S
C267 C270 1.526 . S
C268 H252 0.959 . S
C268 H253 0.959 . S
C268 H254 0.961 . S
C268 C267 1.502 . S
C269 H255 0.960 . S
C269 H256 0.961 . S
C269 H257 0.959 . S
C269 C267 1.561 . S
C270 C267 1.526 . S
C270 C271 1.396 . S
C270 C275 1.390 . S
C271 C265 1.465 . S
C271 C270 1.396 . S
C271 C272 1.399 . S
C272 H258 0.929 . S
C272 C271 1.399 . S
C272 C273 1.385 . S
C273 H259 0.931 . S
C273 C272 1.385 . S
C273 C274 1.389 . S
C274 C273 1.389 . S
C274 C275 1.387 . S
C275 H260 0.930 . S
C275 C270 1.390 . S
C275 C274 1.387 . S
H276 C288 0.930 . S
H277 C290 0.930 . S
H278 C291 0.930 . S
H279 C295 0.959 1_655 S
H280 C295 0.959 . S
H281 C295 0.961 1_655 S
H282 C296 0.960 . S
H283 C296 0.961 . S
H284 C296 0.959 . S
H285 C299 0.929 . S
H286 C300 0.931 . S
H287 C302 0.930 . S
C288 H276 0.930 . S
C288 C289 1.399 . S
C288 C293 1.399 . S
C289 C288 1.399 . S
C289 C290 1.376 . S
C290 H277 0.930 . S
C290 C289 1.376 . S
C290 C291 1.388 . S
C291 H278 0.930 . S
C291 C290 1.388 . S
C291 C292 1.390 . S
C292 C291 1.390 . S
C292 C293 1.394 . S
C292 C298 1.465 1_655 S
C293 C288 1.399 . S
C293 C292 1.394 . S
C293 C294 1.516 1_655 S
C294 C293 1.516 1_455 S
C294 C295 1.502 . S
C294 C296 1.561 . S
C294 C297 1.526 . S
C295 H279 0.959 1_455 S
C295 H280 0.959 . S
C295 H281 0.961 1_455 S
C295 C294 1.502 . S
C296 H282 0.960 . S
C296 H283 0.961 . S
C296 H284 0.959 . S
C296 C294 1.561 . S
C297 C294 1.526 . S
C297 C298 1.396 . S
C297 C302 1.390 . S
C298 C292 1.465 1_455 S
C298 C297 1.396 . S
C298 C299 1.399 . S
C299 H285 0.929 . S
C299 C298 1.399 . S
C299 C300 1.385 . S
C300 H286 0.931 . S
C300 C299 1.385 . S
C300 C301 1.389 . S
C301 C300 1.389 . S
C301 C302 1.387 . S
C302 H287 0.930 . S
C302 C297 1.390 . S
C302 C301 1.387 . S
H303 C315 0.921 1_556 S
H304 C317 0.930 . S
H305 C318 0.930 . S
H306 C322 0.959 . S
H307 C322 0.959 . S
H308 C322 0.961 . S
H309 C323 0.960 . S
H310 C323 0.961 . S
H311 C323 0.959 . S
H312 C326 0.929 . S
H313 C327 0.931 . S
H314 C329 0.930 . S
C315 H303 0.921 1_554 S
C315 C316 1.410 . S
C315 C320 1.398 1_554 S
C316 C315 1.410 . S
C316 C317 1.376 . S
C317 H304 0.930 . S
C317 C316 1.376 . S
C317 C318 1.388 . S
C318 H305 0.930 . S
C318 C317 1.388 . S
C318 C319 1.390 . S
C319 C318 1.390 . S
C319 C320 1.394 1_554 S
C319 C325 1.465 1_565 S
C320 C315 1.398 1_556 S
C320 C319 1.394 1_556 S
C320 C321 1.516 . S
C321 C320 1.516 . S
C321 C322 1.502 . S
C321 C323 1.561 . S
C321 C324 1.526 1_565 S
C322 H306 0.959 . S
C322 H307 0.959 . S
C322 H308 0.961 . S
C322 C321 1.502 . S
C323 H309 0.960 . S
C323 H310 0.961 . S
C323 H311 0.959 . S
C323 C321 1.561 . S
C324 C321 1.526 1_545 S
C324 C325 1.396 1_556 S
C324 C329 1.390 . S
C325 C319 1.465 1_545 S
C325 C324 1.396 1_554 S
C325 C326 1.399 . S
C326 H312 0.929 . S
C326 C325 1.399 . S
C326 C327 1.385 . S
C327 H313 0.931 . S
C327 C326 1.385 . S
C327 C328 1.389 1_554 S
C328 C327 1.389 1_556 S
C328 C329 1.387 . S
C329 H314 0.930 . S
C329 C324 1.390 . S
C329 C328 1.387 . S
H330 C342 0.930 . S
H331 C344 0.930 . S
H332 C345 0.930 1_554 S
H333 C349 0.959 . S
H334 C349 0.959 . S
H335 C349 0.961 . S
H336 C350 0.960 . S
H337 C350 0.961 . S
H338 C350 0.959 . S
H339 C353 0.929 . S
H340 C354 0.931 . S
H341 C356 0.930 . S
C342 H330 0.930 . S
C342 C343 1.399 . S
C342 C347 1.399 . S
C343 C342 1.399 . S
C343 C344 1.376 . S
C344 H331 0.930 . S
C344 C343 1.376 . S
C344 C345 1.388 . S
C345 H332 0.930 1_556 S
C345 C344 1.388 . S
C345 C346 1.390 . S
C346 C345 1.390 . S
C346 C347 1.394 . S
C346 C352 1.465 1_556 S
C347 C342 1.399 . S
C347 C346 1.394 . S
C347 C348 1.516 . S
C348 C347 1.516 . S
C348 C349 1.502 . S
C348 C350 1.561 . S
C348 C351 1.526 1_556 S
C349 H333 0.959 . S
C349 H334 0.959 . S
C349 H335 0.961 . S
C349 C348 1.502 . S
C350 H336 0.960 . S
C350 H337 0.961 . S
C350 H338 0.959 . S
C350 C348 1.561 . S
C351 C348 1.526 1_554 S
C351 C352 1.396 . S
C351 C356 1.390 . S
C352 C346 1.465 1_554 S
C352 C351 1.396 . S
C352 C353 1.399 . S
C353 H339 0.929 . S
C353 C352 1.399 . S
C353 C354 1.385 . S
C354 H340 0.931 . S
C354 C353 1.385 . S
C354 C355 1.389 . S
C355 C354 1.389 . S
C355 C356 1.387 . S
C356 H341 0.930 . S
C356 C351 1.390 . S
C356 C355 1.387 . S
H357 C369 0.930 . S
H358 C371 0.930 . S
H359 C372 0.930 . S
H360 C376 0.959 . S
H361 C376 0.959 . S
H362 C376 0.961 . S
H363 C377 0.960 . S
H364 C377 0.961 . S
H365 C377 0.959 . S
H366 C380 0.929 . S
H367 C381 0.931 . S
H368 C383 0.930 . S
C369 H357 0.930 . S
C369 C370 1.399 . S
C369 C374 1.399 . S
C370 C369 1.399 . S
C370 C371 1.376 . S
C371 H358 0.930 . S
C371 C370 1.376 . S
C371 C372 1.388 . S
C372 H359 0.930 . S
C372 C371 1.388 . S
C372 C373 1.390 . S
C373 C372 1.390 . S
C373 C374 1.394 . S
C373 C379 1.465 . S
C374 C369 1.399 . S
C374 C373 1.394 . S
C374 C375 1.516 . S
C375 C374 1.516 . S
C375 C376 1.502 . S
C375 C377 1.561 . S
C375 C378 1.526 . S
C376 H360 0.959 . S
C376 H361 0.959 . S
C376 H362 0.961 . S
C376 C375 1.502 . S
C377 H363 0.960 . S
C377 H364 0.961 . S
C377 H365 0.959 . S
C377 C375 1.561 . S
C378 C375 1.526 . S
C378 C379 1.396 . S
C378 C383 1.390 . S
C379 C373 1.465 . S
C379 C378 1.396 . S
C379 C380 1.399 . S
C380 H366 0.929 . S
C380 C379 1.399 . S
C380 C381 1.385 . S
C381 H367 0.931 . S
C381 C380 1.385 . S
C381 C382 1.389 . S
C382 C381 1.389 . S
C382 C383 1.387 . S
C383 H368 0.930 . S
C383 C378 1.390 . S
C383 C382 1.387 . S
H384 C396 0.930 . S
H385 C398 0.930 . S
H386 C399 0.930 . S
H387 C403 0.959 . S
H388 C403 0.959 . S
H389 C403 0.961 . S
H390 C404 0.960 . S
H391 C404 0.961 . S
H392 C404 0.959 . S
H393 C407 0.929 . S
H394 C408 0.931 . S
H395 C410 0.930 . S
C396 H384 0.930 . S
C396 C397 1.399 . S
C396 C401 1.399 . S
C397 C396 1.399 . S
C397 C398 1.376 . S
C398 H385 0.930 . S
C398 C397 1.376 . S
C398 C399 1.388 . S
C399 H386 0.930 . S
C399 C398 1.388 . S
C399 C400 1.390 . S
C400 C399 1.390 . S
C400 C401 1.394 . S
C400 C406 1.465 . S
C401 C396 1.399 . S
C401 C400 1.394 . S
C401 C402 1.516 . S
C402 C401 1.516 . S
C402 C403 1.502 . S
C402 C404 1.561 . S
C402 C405 1.526 . S
C403 H387 0.959 . S
C403 H388 0.959 . S
C403 H389 0.961 . S
C403 C402 1.502 . S
C404 H390 0.960 . S
C404 H391 0.961 . S
C404 H392 0.959 . S
C404 C402 1.561 . S
C405 C402 1.526 . S
C405 C406 1.396 . S
C405 C410 1.390 . S
C406 C400 1.465 . S
C406 C405 1.396 . S
C406 C407 1.399 . S
C407 H393 0.929 . S
C407 C406 1.399 . S
C407 C408 1.385 . S
C408 H394 0.931 . S
C408 C407 1.385 . S
C408 C409 1.389 . S
C409 C408 1.389 . S
C409 C410 1.387 . S
C410 H395 0.930 . S
C410 C405 1.390 . S
C410 C409 1.387 . S
H411 C423 0.930 . S
H412 C425 0.930 . S
H413 C426 0.930 . S
H414 C430 0.959 . S
H415 C430 0.959 . S
H416 C430 0.961 1_554 S
H417 C431 0.960 . S
H418 C431 0.961 . S
H419 C431 0.959 . S
H420 C434 0.929 . S
H421 C435 0.931 . S
H422 C437 0.930 . S
C423 H411 0.930 . S
C423 C424 1.399 . S
C423 C428 1.399 . S
C424 C423 1.399 . S
C424 C425 1.376 . S
C425 H412 0.930 . S
C425 C424 1.376 . S
C425 C426 1.388 . S
C426 H413 0.930 . S
C426 C425 1.388 . S
C426 C427 1.390 . S
C427 C426 1.390 . S
C427 C428 1.394 . S
C427 C433 1.465 1_554 S
C428 C423 1.399 . S
C428 C427 1.394 . S
C428 C429 1.516 . S
C429 C428 1.516 . S
C429 C430 1.502 1_554 S
C429 C431 1.561 . S
C429 C432 1.526 1_554 S
C430 H414 0.959 . S
C430 H415 0.959 . S
C430 H416 0.961 1_556 S
C430 C429 1.502 1_556 S
C431 H417 0.960 . S
C431 H418 0.961 . S
C431 H419 0.959 . S
C431 C429 1.561 . S
C432 C429 1.526 1_556 S
C432 C433 1.396 . S
C432 C437 1.390 . S
C433 C427 1.465 1_556 S
C433 C432 1.396 . S
C433 C434 1.399 . S
C434 H420 0.929 . S
C434 C433 1.399 . S
C434 C435 1.385 . S
C435 H421 0.931 . S
C435 C434 1.385 . S
C435 C436 1.389 . S
C436 C435 1.389 . S
C436 C437 1.387 . S
C437 H422 0.930 . S
C437 C432 1.390 . S
C437 C436 1.387 . S
H438 C450 0.930 . S
H439 C452 0.930 . S
H440 C453 0.930 . S
H441 C457 0.959 . S
H442 C457 0.959 . S
H443 C457 0.961 . S
H444 C458 0.960 . S
H445 C458 0.961 . S
H446 C458 0.959 . S
H447 C461 0.929 . S
H448 C462 0.931 . S
H449 C464 0.930 . S
C450 H438 0.930 . S
C450 C451 1.399 . S
C450 C455 1.399 . S
C451 C450 1.399 . S
C451 C452 1.376 . S
C452 H439 0.930 . S
C452 C451 1.376 . S
C452 C453 1.388 . S
C453 H440 0.930 . S
C453 C452 1.388 . S
C453 C454 1.390 . S
C454 C453 1.390 . S
C454 C455 1.394 . S
C454 C460 1.465 . S
C455 C450 1.399 . S
C455 C454 1.394 . S
C455 C456 1.516 . S
C456 C455 1.516 . S
C456 C457 1.502 . S
C456 C458 1.561 . S
C456 C459 1.526 . S
C457 H441 0.959 . S
C457 H442 0.959 . S
C457 H443 0.961 . S
C457 C456 1.502 . S
C458 H444 0.960 . S
C458 H445 0.961 . S
C458 H446 0.959 . S
C458 C456 1.561 . S
C459 C456 1.526 . S
C459 C460 1.396 . S
C459 C464 1.390 . S
C460 C454 1.465 . S
C460 C459 1.396 . S
C460 C461 1.399 . S
C461 H447 0.929 . S
C461 C460 1.399 . S
C461 C462 1.385 . S
C462 H448 0.931 . S
C462 C461 1.385 . S
C462 C463 1.389 . S
C463 C462 1.389 . S
C463 C464 1.387 . S
C464 H449 0.930 . S
C464 C459 1.390 . S
C464 C463 1.387 . S
H465 C477 0.930 . S
H466 C479 0.930 . S
H467 C480 0.930 . S
H468 C484 0.959 . S
H469 C484 0.959 . S
H470 C484 0.961 . S
H471 C485 0.960 . S
H472 C485 0.961 . S
H473 C485 0.959 . S
H474 C488 0.929 . S
H475 C489 0.931 . S
H476 C491 0.930 . S
C477 H465 0.930 . S
C477 C478 1.399 . S
C477 C482 1.399 . S
C478 C477 1.399 . S
C478 C479 1.376 . S
C479 H466 0.930 . S
C479 C478 1.376 . S
C479 C480 1.388 . S
C480 H467 0.930 . S
C480 C479 1.388 . S
C480 C481 1.390 . S
C481 C480 1.390 . S
C481 C482 1.394 . S
C481 C487 1.465 . S
C482 C477 1.399 . S
C482 C481 1.394 . S
C482 C483 1.516 . S
C483 C482 1.516 . S
C483 C484 1.502 . S
C483 C485 1.561 . S
C483 C486 1.526 . S
C484 H468 0.959 . S
C484 H469 0.959 . S
C484 H470 0.961 . S
C484 C483 1.502 . S
C485 H471 0.960 . S
C485 H472 0.961 . S
C485 H473 0.959 . S
C485 C483 1.561 . S
C486 C483 1.526 . S
C486 C487 1.396 . S
C486 C491 1.390 . S
C487 C481 1.465 . S
C487 C486 1.396 . S
C487 C488 1.399 . S
C488 H474 0.929 . S
C488 C487 1.399 . S
C488 C489 1.385 . S
C489 H475 0.931 . S
C489 C488 1.385 . S
C489 C490 1.389 . S
C490 C489 1.389 . S
C490 C491 1.387 . S
C491 H476 0.930 . S
C491 C486 1.390 . S
C491 C490 1.387 . S
H492 C504 0.930 . S
H493 C506 0.930 . S
H494 C507 0.930 . S
H495 C511 0.959 . S
H496 C511 0.959 . S
H497 C511 0.961 . S
H498 C512 0.960 . S
H499 C512 0.961 . S
H500 C512 0.959 . S
H501 C515 0.929 . S
H502 C516 0.931 . S
H503 C518 0.930 . S
C504 H492 0.930 . S
C504 C505 1.399 . S
C504 C509 1.399 . S
C505 C504 1.399 . S
C505 C506 1.376 . S
C506 H493 0.930 . S
C506 C505 1.376 . S
C506 C507 1.388 . S
C507 H494 0.930 . S
C507 C506 1.388 . S
C507 C508 1.390 . S
C508 C507 1.390 . S
C508 C509 1.394 . S
C508 C514 1.465 . S
C509 C504 1.399 . S
C509 C508 1.394 . S
C509 C510 1.516 . S
C510 C509 1.516 . S
C510 C511 1.502 . S
C510 C512 1.561 . S
C510 C513 1.526 . S
C511 H495 0.959 . S
C511 H496 0.959 . S
C511 H497 0.961 . S
C511 C510 1.502 . S
C512 H498 0.960 . S
C512 H499 0.961 . S
C512 H500 0.959 . S
C512 C510 1.561 . S
C513 C510 1.526 . S
C513 C514 1.396 . S
C513 C518 1.390 . S
C514 C508 1.465 . S
C514 C513 1.396 . S
C514 C515 1.399 . S
C515 H501 0.929 . S
C515 C514 1.399 . S
C515 C516 1.385 . S
C516 H502 0.931 . S
C516 C515 1.385 . S
C516 C517 1.389 . S
C517 C516 1.389 . S
C517 C518 1.387 . S
C518 H503 0.930 . S
C518 C513 1.390 . S
C518 C517 1.387 . S
H519 C531 0.930 . S
H520 C533 0.930 . S
H521 C534 0.930 . S
H522 C538 0.959 . S
H523 C538 0.959 . S
H524 C538 0.961 . S
H525 C539 0.960 . S
H526 C539 0.961 . S
H527 C539 0.959 . S
H528 C542 0.929 . S
H529 C543 0.931 . S
H530 C545 0.930 . S
C531 H519 0.930 . S
C531 C532 1.399 . S
C531 C536 1.399 . S
C532 C531 1.399 . S
C532 C533 1.376 . S
C533 H520 0.930 . S
C533 C532 1.376 . S
C533 C534 1.388 . S
C534 H521 0.930 . S
C534 C533 1.388 . S
C534 C535 1.390 . S
C535 C534 1.390 . S
C535 C536 1.394 . S
C535 C541 1.465 . S
C536 C531 1.399 . S
C536 C535 1.394 . S
C536 C537 1.516 . S
C537 C536 1.516 . S
C537 C538 1.502 . S
C537 C539 1.561 . S
C537 C540 1.526 . S
C538 H522 0.959 . S
C538 H523 0.959 . S
C538 H524 0.961 . S
C538 C537 1.502 . S
C539 H525 0.960 . S
C539 H526 0.961 . S
C539 H527 0.959 . S
C539 C537 1.561 . S
C540 C537 1.526 . S
C540 C541 1.396 . S
C540 C545 1.390 . S
C541 C535 1.465 . S
C541 C540 1.396 . S
C541 C542 1.399 . S
C542 H528 0.929 . S
C542 C541 1.399 . S
C542 C543 1.385 . S
C543 H529 0.931 . S
C543 C542 1.385 . S
C543 C544 1.389 . S
C544 C543 1.389 . S
C544 C545 1.387 . S
C545 H530 0.930 . S
C545 C540 1.390 . S
C545 C544 1.387 . S
H546 C558 0.930 . S
H547 C560 0.930 . S
H548 C561 0.930 . S
H549 C565 0.959 . S
H550 C565 0.959 . S
H551 C565 0.961 . S
H552 C566 0.960 . S
H553 C566 0.961 . S
H554 C566 0.959 . S
H555 C569 0.929 . S
H556 C570 0.931 . S
H557 C572 0.930 . S
C558 H546 0.930 . S
C558 C559 1.399 . S
C558 C563 1.399 . S
C559 C558 1.399 . S
C559 C560 1.376 . S
C560 H547 0.930 . S
C560 C559 1.376 . S
C560 C561 1.388 . S
C561 H548 0.930 . S
C561 C560 1.388 . S
C561 C562 1.390 . S
C562 C561 1.390 . S
C562 C563 1.394 . S
C562 C568 1.465 . S
C563 C558 1.399 . S
C563 C562 1.394 . S
C563 C564 1.516 . S
C564 C563 1.516 . S
C564 C565 1.502 . S
C564 C566 1.561 . S
C564 C567 1.526 . S
C565 H549 0.959 . S
C565 H550 0.959 . S
C565 H551 0.961 . S
C565 C564 1.502 . S
C566 H552 0.960 . S
C566 H553 0.961 . S
C566 H554 0.959 . S
C566 C564 1.561 . S
C567 C564 1.526 . S
C567 C568 1.396 . S
C567 C572 1.390 . S
C568 C562 1.465 . S
C568 C567 1.396 . S
C568 C569 1.399 . S
C569 H555 0.929 . S
C569 C568 1.399 . S
C569 C570 1.385 . S
C570 H556 0.931 . S
C570 C569 1.385 . S
C570 C571 1.389 . S
C571 C570 1.389 . S
C571 C572 1.387 . S
C572 H557 0.930 . S
C572 C567 1.390 . S
C572 C571 1.387 . S
H573 C585 0.930 . S
H574 C587 0.930 . S
H575 C588 0.930 . S
H576 C592 0.959 . S
H577 C592 0.959 . S
H578 C592 0.961 . S
H579 C593 0.960 . S
H580 C593 0.961 . S
H581 C593 0.959 . S
H582 C596 0.929 . S
H583 C597 0.931 . S
H584 C599 0.930 . S
C585 H573 0.930 . S
C585 C586 1.399 . S
C585 C590 1.399 . S
C586 C585 1.399 . S
C586 C587 1.376 . S
C587 H574 0.930 . S
C587 C586 1.376 . S
C587 C588 1.388 . S
C588 H575 0.930 . S
C588 C587 1.388 . S
C588 C589 1.390 . S
C589 C588 1.390 . S
C589 C590 1.394 . S
C589 C595 1.465 . S
C590 C585 1.399 . S
C590 C589 1.394 . S
C590 C591 1.516 . S
C591 C590 1.516 . S
C591 C592 1.502 . S
C591 C593 1.561 . S
C591 C594 1.526 . S
C592 H576 0.959 . S
C592 H577 0.959 . S
C592 H578 0.961 . S
C592 C591 1.502 . S
C593 H579 0.960 . S
C593 H580 0.961 . S
C593 H581 0.959 . S
C593 C591 1.561 . S
C594 C591 1.526 . S
C594 C595 1.396 . S
C594 C599 1.390 . S
C595 C589 1.465 . S
C595 C594 1.396 . S
C595 C596 1.399 . S
C596 H582 0.929 . S
C596 C595 1.399 . S
C596 C597 1.385 . S
C597 H583 0.931 . S
C597 C596 1.385 . S
C597 C598 1.389 . S
C598 C597 1.389 . S
C598 C599 1.387 . S
C599 H584 0.930 . S
C599 C594 1.390 . S
C599 C598 1.387 . S
H600 C612 0.930 . S
H601 C614 0.930 . S
H602 C615 0.930 . S
H603 C619 0.959 . S
H604 C619 0.959 . S
H605 C619 0.961 . S
H606 C620 0.960 . S
H607 C620 0.961 . S
H608 C620 0.959 . S
H609 C623 0.929 . S
H610 C624 0.931 . S
H611 C626 0.930 . S
C612 H600 0.930 . S
C612 C613 1.399 . S
C612 C617 1.399 . S
C613 C612 1.399 . S
C613 C614 1.376 . S
C614 H601 0.930 . S
C614 C613 1.376 . S
C614 C615 1.388 . S
C615 H602 0.930 . S
C615 C614 1.388 . S
C615 C616 1.390 . S
C616 C615 1.390 . S
C616 C617 1.394 . S
C616 C622 1.465 . S
C617 C612 1.399 . S
C617 C616 1.394 . S
C617 C618 1.516 . S
C618 C617 1.516 . S
C618 C619 1.502 . S
C618 C620 1.561 . S
C618 C621 1.526 . S
C619 H603 0.959 . S
C619 H604 0.959 . S
C619 H605 0.961 . S
C619 C618 1.502 . S
C620 H606 0.960 . S
C620 H607 0.961 . S
C620 H608 0.959 . S
C620 C618 1.561 . S
C621 C618 1.526 . S
C621 C622 1.396 . S
C621 C626 1.390 . S
C622 C616 1.465 . S
C622 C621 1.396 . S
C622 C623 1.399 . S
C623 H609 0.929 . S
C623 C622 1.399 . S
C623 C624 1.385 . S
C624 H610 0.931 . S
C624 C623 1.385 . S
C624 C625 1.389 . S
C625 C624 1.389 . S
C625 C626 1.387 . S
C626 H611 0.930 . S
C626 C621 1.390 . S
C626 C625 1.387 . S
H627 C639 0.930 . S
H628 C641 0.930 . S
H629 C642 0.930 . S
H630 C646 0.959 . S
H631 C646 0.959 . S
H632 C646 0.961 . S
H633 C647 0.960 . S
H634 C647 0.961 . S
H635 C647 0.959 . S
H636 C650 0.929 . S
H637 C651 0.931 . S
H638 C653 0.930 . S
C639 H627 0.930 . S
C639 C640 1.399 . S
C639 C644 1.399 . S
C640 C639 1.399 . S
C640 C641 1.376 . S
C641 H628 0.930 . S
C641 C640 1.376 . S
C641 C642 1.388 . S
C642 H629 0.930 . S
C642 C641 1.388 . S
C642 C643 1.390 . S
C643 C642 1.390 . S
C643 C644 1.394 . S
C643 C649 1.465 . S
C644 C639 1.399 . S
C644 C643 1.394 . S
C644 C645 1.516 . S
C645 C644 1.516 . S
C645 C646 1.502 . S
C645 C647 1.561 . S
C645 C648 1.526 . S
C646 H630 0.959 . S
C646 H631 0.959 . S
C646 H632 0.961 . S
C646 C645 1.502 . S
C647 H633 0.960 . S
C647 H634 0.961 . S
C647 H635 0.959 . S
C647 C645 1.561 . S
C648 C645 1.526 . S
C648 C649 1.396 . S
C648 C653 1.390 . S
C649 C643 1.465 . S
C649 C648 1.396 . S
C649 C650 1.399 . S
C650 H636 0.929 . S
C650 C649 1.399 . S
C650 C651 1.385 . S
C651 H637 0.931 . S
C651 C650 1.385 . S
C651 C652 1.389 . S
C652 C651 1.389 . S
C652 C653 1.387 . S
C653 H638 0.930 . S
C653 C648 1.390 . S
C653 C652 1.387 . S
H654 C666 0.930 . S
H655 C668 0.930 . S
H656 C669 0.930 . S
H657 C673 0.959 . S
H658 C673 0.959 . S
H659 C673 0.961 . S
H660 C674 0.960 . S
H661 C674 0.961 . S
H662 C674 0.959 . S
H663 C677 0.929 . S
H664 C678 0.931 . S
H665 C680 0.930 . S
C666 H654 0.930 . S
C666 C667 1.399 . S
C666 C671 1.399 . S
C667 C666 1.399 . S
C667 C668 1.376 . S
C668 H655 0.930 . S
C668 C667 1.376 . S
C668 C669 1.388 . S
C669 H656 0.930 . S
C669 C668 1.388 . S
C669 C670 1.390 . S
C670 C669 1.390 . S
C670 C671 1.394 . S
C670 C676 1.465 . S
C671 C666 1.399 . S
C671 C670 1.394 . S
C671 C672 1.516 . S
C672 C671 1.516 . S
C672 C673 1.502 . S
C672 C674 1.561 . S
C672 C675 1.526 . S
C673 H657 0.959 . S
C673 H658 0.959 . S
C673 H659 0.961 . S
C673 C672 1.502 . S
C674 H660 0.960 . S
C674 H661 0.961 . S
C674 H662 0.959 . S
C674 C672 1.561 . S
C675 C672 1.526 . S
C675 C676 1.396 . S
C675 C680 1.390 . S
C676 C670 1.465 . S
C676 C675 1.396 . S
C676 C677 1.399 . S
C677 H663 0.929 . S
C677 C676 1.399 . S
C677 C678 1.385 . S
C678 H664 0.931 . S
C678 C677 1.385 . S
C678 C679 1.389 . S
C679 C678 1.389 . S
C679 C680 1.387 . S
C680 H665 0.930 . S
C680 C675 1.390 . S
C680 C679 1.387 . S
H681 C693 0.930 . S
H682 C695 0.930 . S
H683 C696 0.930 . S
H684 C700 0.959 . S
H685 C700 0.959 . S
H686 C700 0.961 . S
H687 C701 0.960 . S
H688 C701 0.961 . S
H689 C701 0.959 . S
H690 C704 0.929 . S
H691 C705 0.931 . S
H692 C707 0.930 . S
C693 H681 0.930 . S
C693 C694 1.399 . S
C693 C698 1.399 . S
C694 C693 1.399 . S
C694 C695 1.376 . S
C695 H682 0.930 . S
C695 C694 1.376 . S
C695 C696 1.388 . S
C696 H683 0.930 . S
C696 C695 1.388 . S
C696 C697 1.390 . S
C697 C696 1.390 . S
C697 C698 1.394 . S
C697 C703 1.465 . S
C698 C693 1.399 . S
C698 C697 1.394 . S
C698 C699 1.516 . S
C699 C698 1.516 . S
C699 C700 1.502 . S
C699 C701 1.561 . S
C699 C702 1.526 . S
C700 H684 0.959 . S
C700 H685 0.959 . S
C700 H686 0.961 . S
C700 C699 1.502 . S
C701 H687 0.960 . S
C701 H688 0.961 . S
C701 H689 0.959 . S
C701 C699 1.561 . S
C702 C699 1.526 . S
C702 C703 1.396 . S
C702 C707 1.390 . S
C703 C697 1.465 . S
C703 C702 1.396 . S
C703 C704 1.399 . S
C704 H690 0.929 . S
C704 C703 1.399 . S
C704 C705 1.385 . S
C705 H691 0.931 . S
C705 C704 1.385 . S
C705 C706 1.389 . S
C706 C705 1.389 . S
C706 C707 1.387 . S
C707 H692 0.930 . S
C707 C702 1.390 . S
C707 C706 1.387 . S
H708 C720 0.930 . S
H709 C722 0.930 . S
H710 C723 0.930 . S
H711 C727 0.959 . S
H712 C727 0.959 . S
H713 C727 0.961 . S
H714 C728 0.960 . S
H715 C728 0.961 . S
H716 C728 0.959 1_554 S
H717 C731 0.929 . S
H718 C732 0.931 . S
H719 C734 0.930 . S
C720 H708 0.930 . S
C720 C721 1.399 . S
C720 C725 1.399 . S
C721 C720 1.399 . S
C721 C722 1.376 1_556 S
C722 H709 0.930 . S
C722 C721 1.376 1_554 S
C722 C723 1.388 . S
C723 H710 0.930 . S
C723 C722 1.388 . S
C723 C724 1.390 . S
C724 C723 1.390 . S
C724 C725 1.394 1_554 S
C724 C730 1.465 . S
C725 C720 1.399 . S
C725 C724 1.394 1_556 S
C725 C726 1.516 . S
C726 C725 1.516 . S
C726 C727 1.502 . S
C726 C728 1.561 . S
C726 C729 1.526 . S
C727 H711 0.959 . S
C727 H712 0.959 . S
C727 H713 0.961 . S
C727 C726 1.502 . S
C728 H714 0.960 . S
C728 H715 0.961 . S
C728 H716 0.959 1_556 S
C728 C726 1.561 . S
C729 C726 1.526 . S
C729 C730 1.396 1_556 S
C729 C734 1.390 . S
C730 C724 1.465 . S
C730 C729 1.396 1_554 S
C730 C731 1.399 . S
C731 H717 0.929 . S
C731 C730 1.399 . S
C731 C732 1.385 . S
C732 H718 0.931 . S
C732 C731 1.385 . S
C732 C733 1.389 . S
C733 C732 1.389 . S
C733 C734 1.387 1_554 S
C734 H719 0.930 . S
C734 C729 1.390 . S
C734 C733 1.387 1_556 S
H735 C747 0.930 . S
H736 C749 0.930 . S
H737 C750 0.930 . S
H738 C754 0.959 . S
H739 C754 0.959 . S
H740 C754 0.961 . S
H741 C755 0.960 . S
H742 C755 0.961 . S
H743 C755 0.959 . S
H744 C758 0.929 . S
H745 C759 0.931 . S
H746 C761 0.930 . S
C747 H735 0.930 . S
C747 C748 1.399 . S
C747 C752 1.399 . S
C748 C747 1.399 . S
C748 C749 1.376 . S
C749 H736 0.930 . S
C749 C748 1.376 . S
C749 C750 1.388 . S
C750 H737 0.930 . S
C750 C749 1.388 . S
C750 C751 1.390 . S
C751 C750 1.390 . S
C751 C752 1.394 . S
C751 C757 1.465 . S
C752 C747 1.399 . S
C752 C751 1.394 . S
C752 C753 1.516 . S
C753 C752 1.516 . S
C753 C754 1.502 . S
C753 C755 1.561 . S
C753 C756 1.526 . S
C754 H738 0.959 . S
C754 H739 0.959 . S
C754 H740 0.961 . S
C754 C753 1.502 . S
C755 H741 0.960 . S
C755 H742 0.961 . S
C755 H743 0.959 . S
C755 C753 1.561 . S
C756 C753 1.526 . S
C756 C757 1.396 . S
C756 C761 1.390 . S
C757 C751 1.465 . S
C757 C756 1.396 . S
C757 C758 1.399 . S
C758 H744 0.929 . S
C758 C757 1.399 . S
C758 C759 1.385 . S
C759 H745 0.931 . S
C759 C758 1.385 . S
C759 C760 1.389 . S
C760 C759 1.389 . S
C760 C761 1.387 . S
C761 H746 0.930 . S
C761 C756 1.390 . S
C761 C760 1.387 . S
H762 C774 0.930 . S
H763 C776 0.930 . S
H764 C777 0.930 . S
H765 C781 0.959 . S
H766 C781 0.959 . S
H767 C781 0.961 . S
H768 C782 0.960 . S
H769 C782 0.961 . S
H770 C782 0.959 . S
H771 C785 0.929 . S
H772 C786 0.931 . S
H773 C788 0.930 . S
C774 H762 0.930 . S
C774 C775 1.399 . S
C774 C779 1.399 . S
C775 C774 1.399 . S
C775 C776 1.376 . S
C776 H763 0.930 . S
C776 C775 1.376 . S
C776 C777 1.388 . S
C777 H764 0.930 . S
C777 C776 1.388 . S
C777 C778 1.390 . S
C778 C777 1.390 . S
C778 C779 1.394 . S
C778 C784 1.465 . S
C779 C774 1.399 . S
C779 C778 1.394 . S
C779 C780 1.516 . S
C780 C779 1.516 . S
C780 C781 1.502 . S
C780 C782 1.561 . S
C780 C783 1.526 . S
C781 H765 0.959 . S
C781 H766 0.959 . S
C781 H767 0.961 . S
C781 C780 1.502 . S
C782 H768 0.960 . S
C782 H769 0.961 . S
C782 H770 0.959 . S
C782 C780 1.561 . S
C783 C780 1.526 . S
C783 C784 1.396 . S
C783 C788 1.390 . S
C784 C778 1.465 . S
C784 C783 1.396 . S
C784 C785 1.399 . S
C785 H771 0.929 . S
C785 C784 1.399 . S
C785 C786 1.385 . S
C786 H772 0.931 . S
C786 C785 1.385 . S
C786 C787 1.389 . S
C787 C786 1.389 . S
C787 C788 1.387 . S
C788 H773 0.930 . S
C788 C783 1.390 . S
C788 C787 1.387 . S
H789 C801 0.930 . S
H790 C803 0.930 . S
H791 C804 0.930 . S
H792 C808 0.959 1_554 S
H793 C808 0.959 . S
H794 C808 0.961 . S
H795 C809 0.960 . S
H796 C809 0.961 . S
H797 C809 0.959 . S
H798 C812 0.929 . S
H799 C813 0.931 . S
H800 C815 0.930 . S
C801 H789 0.930 . S
C801 C802 1.399 1_556 S
C801 C806 1.399 . S
C802 C801 1.399 1_554 S
C802 C803 1.376 . S
C803 H790 0.930 . S
C803 C802 1.376 . S
C803 C804 1.388 . S
C804 H791 0.930 . S
C804 C803 1.388 . S
C804 C805 1.390 . S
C805 C804 1.390 . S
C805 C806 1.394 1_554 S
C805 C811 1.465 . S
C806 C801 1.399 . S
C806 C805 1.394 1_556 S
C806 C807 1.516 . S
C807 C806 1.516 . S
C807 C808 1.502 . S
C807 C809 1.561 . S
C807 C810 1.526 . S
C808 H792 0.959 1_556 S
C808 H793 0.959 . S
C808 H794 0.961 . S
C808 C807 1.502 . S
C809 H795 0.960 . S
C809 H796 0.961 . S
C809 H797 0.959 . S
C809 C807 1.561 . S
C810 C807 1.526 . S
C810 C811 1.396 1_556 S
C810 C815 1.390 . S
C811 C805 1.465 . S
C811 C810 1.396 1_554 S
C811 C812 1.399 . S
C812 H798 0.929 . S
C812 C811 1.399 . S
C812 C813 1.385 . S
C813 H799 0.931 . S
C813 C812 1.385 . S
C813 C814 1.389 1_554 S
C814 C813 1.389 1_556 S
C814 C815 1.387 . S
C815 H800 0.930 . S
C815 C810 1.390 . S
C815 C814 1.387 . S
C181 C3 1.344 . S
C193 C129 1.387 . S
C208 C17 1.354 . S
C220 C143 1.396 . S
C235 C31 1.396 . S
C247 C157 1.352 . S
C262 C45 1.396 . S
C274 C87 1.354 . S
C289 C101 1.356 . S
C301 C59 1.364 . S
C316 C115 1.394 . S
C328 C73 1.346 . S
C343 C148 1.768 . S
C355 C8 1.769 . S
C370 C22 1.796 . S
C382 C162 1.797 . S
C397 C36 1.796 . S
C409 C92 1.796 . S
C424 C50 1.766 . S
C436 C106 1.766 . S
C451 C64 1.775 . S
C463 C120 1.776 . S
C478 C78 1.800 . S
C490 C134 1.800 . S
C505 C147 0.975 . S
C517 C7 0.894 . S
C532 C21 0.966 . S
C544 C161 0.884 . S
C559 C35 0.950 . S
C571 C91 0.900 . S
C586 C49 0.981 . S
C598 C105 0.883 . S
C613 C63 0.913 . S
C625 C119 0.934 . S
C640 C77 0.925 . S
C652 C133 0.923 . S
C667 C9 1.658 . S
C679 C93 1.659 . S
C694 C107 1.645 . S
C706 C23 1.644 . S
C721 C37 1.644 . S
C733 C121 1.646 . S
C748 C51 1.640 . S
C760 C135 1.640 . S
C775 C65 1.649 . S
C787 C149 1.649 . S
C802 C163 1.640 . S
C814 C79 1.640 . S
