# Generated by pormake.
# Topology rob, (6)-cn, num edge types: 1
# Building blocks:
#     Node 0, Type 0, BuildingBlock: GEDQOX_clean_sbu_0, # of connection points: 6
#     Node 1, Type 0, BuildingBlock: GEDQOX_clean_sbu_0, # of connection points: 6
#     Node 2, Type 0, BuildingBlock: GEDQOX_clean_sbu_0, # of connection points: 6
#     Node 3, Type 0, BuildingBlock: GEDQOX_clean_sbu_0, # of connection points: 6
#     Edge 4, Type (0, 0), BuildingBlock: KIFKEQ_clean_linker_1, # of connection points: 2
#     Edge 5, Type (0, 0), BuildingBlock: KIFKEQ_clean_linker_1, # of connection points: 2
#     Edge 6, Type (0, 0), BuildingBlock: KIFKEQ_clean_linker_1, # of connection points: 2
#     Edge 7, Type (0, 0), BuildingBlock: KIFKEQ_clean_linker_1, # of connection points: 2
#     Edge 8, Type (0, 0), BuildingBlock: KIFKEQ_clean_linker_1, # of connection points: 2
#     Edge 9, Type (0, 0), BuildingBlock: KIFKEQ_clean_linker_1, # of connection points: 2
#     Edge 10, Type (0, 0), BuildingBlock: KIFKEQ_clean_linker_1, # of connection points: 2
#     Edge 11, Type (0, 0), BuildingBlock: KIFKEQ_clean_linker_1, # of connection points: 2
#     Edge 12, Type (0, 0), BuildingBlock: KIFKEQ_clean_linker_1, # of connection points: 2
#     Edge 13, Type (0, 0), BuildingBlock: KIFKEQ_clean_linker_1, # of connection points: 2
#     Edge 14, Type (0, 0), BuildingBlock: KIFKEQ_clean_linker_1, # of connection points: 2
#     Edge 15, Type (0, 0), BuildingBlock: KIFKEQ_clean_linker_1, # of connection points: 2
# Relax obj value: 0.062
# Max RMSD: 0.214
# Mean RMSD: 0.147
data_MOF--net-rob--node1-GEDQOX_clean_sbu_0--edge1-KIFKEQ_clean_linker_1
_symmetry_space_group_name_H-M    P1
_symmetry_Int_Tables_number       1
_symmetry_cell_setting            triclinic
loop_
_symmetry_equiv_pos_as_xyz
'x, y, z'
_cell_length_a     19.498012
_cell_length_b     36.721911
_cell_length_c     30.532902
_cell_angle_alpha  110.55229
_cell_angle_beta   111.21986
_cell_angle_gamma 56.452459
loop_
_atom_site_label
_atom_site_type_symbol
_atom_site_fract_x
_atom_site_fract_y
_atom_site_fract_z
_atom_type_partial_charge
Nd0 Nd 0.18494 0.33794 0.01149 0.0
Nd1 Nd 0.23232 0.24081 0.98019 0.0
C2 C 0.15679 0.41845 0.01619 0.0
C3 C 0.2076 0.43551 0.01262 0.0
C4 C 0.16889 0.47204 0.99061 0.0
C5 C 0.21656 0.48853 0.98742 0.0
C6 C 0.3042 0.46894 0.00638 0.0
C7 C 0.34267 0.43203 0.02808 0.0
C8 C 0.29511 0.4154 0.03092 0.0
C9 C 0.29472 0.28871 0.08025 0.0
C10 C 0.33386 0.26741 0.94773 0.0
C11 C 0.26012 0.15969 0.97287 0.0
C12 C 0.2162 0.13956 0.97867 0.0
C13 C 0.19209 0.15006 0.02161 0.0
C14 C 0.14921 0.1311 0.02554 0.0
C15 C 0.12917 0.10123 0.98661 0.0
C16 C 0.15352 0.09094 0.94374 0.0
C17 C 0.19662 0.10972 0.93994 0.0
C18 C 0.11892 0.29214 0.91328 0.0
C19 C 0.08369 0.31116 0.04368 0.0
O20 O 0.13232 0.39517 0.97695 0.0
O21 O 0.1826 0.40133 0.05383 0.0
O22 O 0.23411 0.32911 0.08852 0.0
O23 O 0.30051 0.27565 0.03682 0.0
O24 O 0.27773 0.30858 0.96281 0.0
O25 O 0.33894 0.2329 0.95595 0.0
O26 O 0.29133 0.18083 0.0113 0.0
O27 O 0.2249 0.17984 0.93666 0.0
O28 O 0.18027 0.25239 0.9034 0.0
O29 O 0.11561 0.3033 0.95677 0.0
O30 O 0.14179 0.27 0.03023 0.0
O31 O 0.0769 0.34549 0.03388 0.0
H32 H 0.10165 0.48783 0.97582 0.0
H33 H 0.18466 0.51641 0.96963 0.0
H34 H 0.40953 0.4163 0.04372 0.0
H35 H 0.32683 0.38692 0.04777 0.0
H36 H 0.20612 0.17298 0.05219 0.0
H37 H 0.13265 0.13954 0.05934 0.0
H38 H 0.13814 0.06886 0.91263 0.0
H39 H 0.2141 0.10115 0.90637 0.0
Nd40 Nd 0.70681 0.82534 0.01264 0.0
Nd41 Nd 0.75723 0.72741 0.98358 0.0
C42 C 0.67177 0.90659 0.01418 0.0
C43 C 0.71922 0.92579 0.01081 0.0
C44 C 0.67899 0.95976 0.98475 0.0
C45 C 0.72308 0.9784 0.98166 0.0
C46 C 0.80861 0.96361 0.00477 0.0
C47 C 0.8487 0.92927 0.03063 0.0
C48 C 0.80476 0.91046 0.03339 0.0
C49 C 0.83212 0.77524 0.07802 0.0
C50 C 0.84825 0.75575 0.94383 0.0
C51 C 0.79027 0.64588 0.97933 0.0
C52 C 0.74382 0.62797 0.9861 0.0
C53 C 0.78227 0.58254 0.98627 0.0
C54 C 0.7368 0.5651 0.9902 0.0
C55 C 0.65192 0.59283 0.99421 0.0
C56 C 0.61416 0.63854 -0.00528 0.0
C57 C 0.65951 0.65584 0.9905 0.0
C58 C 0.63602 0.77704 0.91713 0.0
C59 C 0.61994 0.79654 0.05482 0.0
O60 O 0.65212 0.88116 0.97539 0.0
O61 O 0.69686 0.89083 0.05274 0.0
O62 O 0.77419 0.81574 0.08936 0.0
O63 O 0.828 0.76304 0.0335 0.0
O64 O 0.79196 0.79677 0.95938 0.0
O65 O 0.85762 0.72098 0.95431 0.0
O66 O 0.81795 0.66879 0.01744 0.0
O67 O 0.7565 0.66454 0.94205 0.0
O68 O 0.69689 0.73721 0.907 0.0
O69 O 0.63656 0.78954 0.96146 0.0
O70 O 0.67682 0.7557 0.03939 0.0
O71 O 0.60811 0.83129 0.04296 0.0
H72 H 0.61329 0.97191 0.96669 0.0
H73 H 0.69014 1.0041 0.96065 0.0
H74 H 0.9139 0.91725 0.04953 0.0
H75 H 0.83773 0.88407 0.05351 0.0
H76 H 0.84724 0.56044 0.98286 0.0
H77 H 0.76825 0.52989 0.99026 0.0
H78 H 0.54878 0.66083 -0.00288 0.0
H79 H 0.62825 0.69093 0.98988 0.0
Nd80 Nd 0.27388 0.79454 0.48581 0.0
Nd81 Nd 0.13601 0.79621 0.51602 0.0
C82 C 0.33823 0.82151 0.44851 0.0
C83 C 0.36773 0.81361 0.40574 0.0
C84 C 0.32232 0.80606 0.35893 0.0
C85 C 0.34481 0.80464 0.31931 0.0
C86 C 0.41336 0.81069 0.32536 0.0
C87 C 0.46013 0.81684 0.37226 0.0
C88 C 0.43744 0.81839 0.41184 0.0
C89 C 0.33334 0.70723 0.49395 0.0
C90 C 0.1425 0.76233 0.40431 0.0
C91 C 0.04232 0.78952 0.55503 0.0
C92 C 0.04136 0.7774 0.59612 0.0
C93 C 0.10478 0.77199 0.6381 0.0
C94 C 0.09905 0.76298 0.67741 0.0
C95 C 0.02982 0.75911 0.67545 0.0
C96 C -0.03267 0.76393 0.63282 0.0
C97 C -0.02685 0.77292 0.59376 0.0
C98 C 0.08654 0.87523 0.49113 0.0
C99 C 0.28462 0.81376 0.59867 0.0
O100 O 0.25735 0.83731 0.44295 0.0
O101 O 0.38504 0.79303 0.47756 0.0
O102 O 0.37529 0.71968 0.48335 0.0
O103 O 0.26317 0.74136 0.50116 0.0
O104 O 0.19478 0.77762 0.41414 0.0
O105 O 0.11419 0.76254 0.43765 0.0
O106 O 0.0862 0.75744 0.52391 0.0
O107 O 0.04692 0.82564 0.56341 0.0
O108 O 0.03936 0.85706 0.47918 0.0
O109 O 0.15778 0.8511 0.51537 0.0
O110 O 0.23085 0.79892 0.58692 0.0
O111 O 0.30597 0.81951 0.56622 0.0
H112 H 0.26791 0.80248 0.35299 0.0
H113 H 0.30661 0.80021 0.28402 0.0
H114 H 0.51429 0.82071 0.37856 0.0
H115 H 0.47331 0.82445 0.44748 0.0
H116 H 0.15814 0.77516 0.64064 0.0
H117 H 0.14891 0.75903 0.70929 0.0
H118 H 0.91236 0.76203 0.62998 0.0
H119 H 0.92324 0.77721 0.56181 0.0
Nd120 Nd 0.77087 0.29483 0.47558 0.0
Nd121 Nd 0.641 0.28867 0.51497 0.0
C122 C 0.82515 0.32588 0.43687 0.0
C123 C 0.84901 0.31975 0.3929 0.0
C124 C 0.79568 0.31757 0.34753 0.0
C125 C 0.81371 0.31776 0.30722 0.0
C126 C 0.88572 0.31991 0.31122 0.0
C127 C 0.94046 0.32047 0.35647 0.0
C128 C 0.92206 0.32058 0.39682 0.0
C129 C 0.83259 0.20695 0.48304 0.0
C130 C 0.63515 0.26256 0.39925 0.0
C131 C 0.58833 0.25691 0.55393 0.0
C132 C 0.56488 0.26244 0.59789 0.0
C133 C 0.61828 0.26437 0.64331 0.0
C134 C 0.6004 0.26378 0.68352 0.0
C135 C 0.52854 0.26143 0.67941 0.0
C136 C 0.47387 0.26099 0.63409 0.0
C137 C 0.49205 0.26132 0.59387 0.0
C138 C 0.57956 0.37691 0.50835 0.0
C139 C 0.77886 0.31975 0.59096 0.0
O140 O 0.74549 0.34044 0.43354 0.0
O141 O 0.87642 0.29648 0.46471 0.0
O142 O 0.87201 0.21918 0.46962 0.0
O143 O 0.7645 0.24179 0.49201 0.0
O144 O 0.68795 0.27712 0.40669 0.0
O145 O 0.61141 0.26146 0.43419 0.0
O146 O 0.66788 0.24256 0.55701 0.0
O147 O 0.53643 0.28643 0.52623 0.0
O148 O 0.54059 0.36456 0.52201 0.0
O149 O 0.64711 0.34196 0.49855 0.0
O150 O 0.72409 0.30657 0.58391 0.0
O151 O 0.80326 0.32041 0.55613 0.0
H152 H 0.73863 0.31702 0.34332 0.0
H153 H 0.76959 0.31768 0.27321 0.0
H154 H -0.00256 0.32114 0.3609 0.0
H155 H 0.96402 0.32241 0.4314 0.0
H156 H 0.67518 0.26509 0.64763 0.0
H157 H 0.64452 0.26377 0.71754 0.0
H158 H 0.41702 0.26014 0.62951 0.0
H159 H 0.45003 0.25964 0.55928 0.0
H160 H 0.65228 0.51455 0.94313 0.0
H161 H 0.53857 0.62881 0.0508 0.0
H162 H 0.56869 0.485 0.94547 0.0
H163 H 0.45579 0.599 0.05379 0.0
H164 H 0.25821 0.55639 0.01456 0.0
H165 H 0.34099 0.5856 0.0106 0.0
H166 H 0.55103 0.45214 0.99183 0.0
H167 H 0.46655 0.42267 0.99276 0.0
C168 C 0.6102 0.53314 0.96778 0.0
C169 C 0.60233 0.57413 -0.00325 0.0
C170 C 0.56212 0.51613 0.96918 0.0
C171 C 0.50499 0.53949 -0.00021 0.0
C172 C 0.49772 0.58035 0.02906 0.0
C173 C 0.54549 0.59746 0.02747 0.0
C174 C 0.32158 0.5331 0.00884 0.0
C175 C 0.3552 0.48701 0.00395 0.0
C176 C 0.36974 0.55 0.00731 0.0
C177 C 0.45325 0.5214 0.0011 0.0
C178 C 0.4868 0.47531 -0.00389 0.0
C179 C 0.43849 0.45838 -0.00265 0.0
H180 H 0.25078 0.66691 0.49978 0.0
H181 H 0.49453 0.63829 0.49574 0.0
H182 H 0.30845 0.58873 0.50141 0.0
H183 H 0.55369 0.56126 0.4999 0.0
H184 H 0.63978 0.41307 0.47351 0.0
H185 H 0.57934 0.4905 0.46872 0.0
H186 H 0.38319 0.52877 0.53672 0.0
H187 H 0.44137 0.45124 0.53857 0.0
C188 C 0.31701 0.64412 0.49984 0.0
C189 C 0.3674 0.65958 0.49759 0.0
C190 C 0.35096 0.59874 0.50105 0.0
C191 C 0.43717 0.56691 0.50071 0.0
C192 C 0.48713 0.58311 0.49912 0.0
C193 C 0.45298 0.62809 0.49723 0.0
C194 C 0.58351 0.43786 0.48705 0.0
C195 C 0.5459 0.42494 0.50603 0.0
C196 C 0.54851 0.48308 0.48486 0.0
C197 C 0.47485 0.51768 0.50229 0.0
C198 C 0.43825 0.50434 0.52175 0.0
C199 C 0.47258 0.45922 0.52328 0.0
H200 H 0.00279 0.13939 0.03528 0.0
H201 H 0.15035 1.01672 0.9465 0.0
H202 H 0.92808 0.10627 0.04104 0.0
H203 H 0.07209 0.98468 0.94968 0.0
H204 H -0.02488 0.92247 0.00026 0.0
H205 H 0.05254 0.95561 -0.00152 0.0
H206 H 0.82584 0.08361 -0.00166 0.0
H207 H 0.74969 0.05103 0.00338 0.0
C208 C 0.01958 0.10534 0.01699 0.0
C209 C 0.08301 0.08093 0.99038 0.0
C210 C -0.02438 0.08647 0.01971 0.0
C211 C -0.00664 0.04265 -0.0043 0.0
C212 C 0.05696 1.01825 0.96922 0.0
C213 C 0.10125 0.03699 0.96678 0.0
C214 C 0.94177 0.95784 0.00058 0.0
C215 C 0.85572 0.98389 0.00215 0.0
C216 C -0.01385 0.97683 -0.00119 0.0
C217 C 0.94588 1.02247 -0.00188 0.0
C218 C 0.85972 0.04851 -0.00054 0.0
C219 C 0.81546 1.02957 0.00159 0.0
H220 H -0.00972 0.13726 0.47713 0.0
H221 H 0.75507 0.16725 0.49671 0.0
H222 H 0.05036 0.05954 0.47958 0.0
H223 H 0.81584 0.0888 0.50002 0.0
H224 H 0.92371 0.93519 0.45539 0.0
H225 H 0.86225 1.01395 0.45546 0.0
H226 H 0.10495 1.00572 0.52589 0.0
H227 H 0.16639 0.92655 0.52524 0.0
C228 C 0.95116 0.12743 0.48244 0.0
C229 C 0.86742 0.15934 0.48705 0.0
C230 C -0.01376 0.08237 0.48416 0.0
C231 C 0.93913 0.06671 0.49023 0.0
C232 C 0.85491 0.09873 0.49489 0.0
C233 C 0.81983 0.14419 0.49349 0.0
C234 C 0.96435 0.95002 0.47084 0.0
C235 C 0.05066 0.92378 0.49019 0.0
C236 C 0.92857 0.99575 0.47127 0.0
C237 C -0.02244 1.01742 0.49078 0.0
C238 C 0.06428 0.99094 0.50991 0.0
C239 C 0.09998 0.94516 0.50973 0.0
H240 H 0.6709 0.25903 0.31884 0.0
H241 H 0.52005 0.23262 0.36513 0.0
H242 H 0.59902 0.24624 0.23663 0.0
H243 H 0.44938 0.21839 0.28189 0.0
H244 H 0.25256 0.29631 0.15843 0.0
H245 H 0.34703 0.27214 0.23223 0.0
H246 H 0.55918 0.20086 0.1642 0.0
H247 H 0.46277 0.22617 0.08961 0.0
C248 C 0.62348 0.24961 0.31147 0.0
C249 C 0.59955 0.24813 0.34885 0.0
C250 C 0.58304 0.24155 0.26398 0.0
C251 C 0.51781 0.23168 0.25261 0.0
C252 C 0.49856 0.22662 0.2896 0.0
C253 C 0.5389 0.23488 0.3373 0.0
C254 C 0.31923 0.27448 0.15889 0.0
C255 C 0.35102 0.26383 0.119 0.0
C256 C 0.37348 0.26016 0.20111 0.0
C257 C 0.46095 0.23509 0.20443 0.0
C258 C 0.49209 0.22074 0.16288 0.0
C259 C 0.4372 0.23493 0.12021 0.0
H260 H 0.61884 0.73142 0.07757 0.0
H261 H 0.52201 0.87371 0.11195 0.0
H262 H 0.56323 0.73714 0.14023 0.0
H263 H 0.46398 0.87967 0.17482 0.0
H264 H 0.47038 0.86286 0.32041 0.0
H265 H 0.51066 0.86191 0.25305 0.0
H266 H 0.44166 0.76084 0.16611 0.0
H267 H 0.40544 0.76016 0.23408 0.0
C268 C 0.5843 0.76422 0.09795 0.0
C269 C 0.57517 0.80213 0.0894 0.0
C270 C 0.55181 0.76751 0.13403 0.0
C271 C 0.50894 0.80886 0.16304 0.0
C272 C 0.49753 0.84712 0.15371 0.0
C273 C 0.53005 0.84381 0.11727 0.0
C274 C 0.46454 0.84004 0.28712 0.0
C275 C 0.43525 0.81125 0.28324 0.0
C276 C 0.48647 0.84003 0.24807 0.0
C277 C 0.47979 0.81125 0.20381 0.0
C278 C 0.44891 0.7831 0.19965 0.0
C279 C 0.42713 0.78305 0.23869 0.0
H280 H 0.67214 0.77793 0.84122 0.0
H281 H 0.46537 0.83253 0.90817 0.0
H282 H 0.57407 0.80234 0.7681 0.0
H283 H 0.36521 0.85775 0.83419 0.0
H284 H 0.26232 0.80188 0.67495 0.0
H285 H 0.33492 0.81086 0.75807 0.0
H286 H 0.46279 0.85893 0.72257 0.0
H287 H 0.39142 0.84888 0.63875 0.0
C288 C 0.6052 0.79655 0.84057 0.0
C289 C 0.5758 0.80292 0.87971 0.0
C290 C 0.54885 0.81089 0.79876 0.0
C291 C 0.46174 0.83152 0.79507 0.0
C292 C 0.43213 0.84143 0.83589 0.0
C293 C 0.48907 0.8274 0.87823 0.0
C294 C 0.30513 0.81484 0.6848 0.0
C295 C 0.32255 0.82363 0.64993 0.0
C296 C 0.34592 0.82062 0.73274 0.0
C297 C 0.40495 0.83543 0.74694 0.0
C298 C 0.41834 0.84695 0.71259 0.0
C299 C 0.37771 0.84101 0.66455 0.0
H300 H 0.46241 0.2129 0.68224 0.0
H301 H 0.55647 0.30326 0.7734 0.0
H302 H 0.42894 0.21084 0.75045 0.0
H303 H 0.52758 0.29911 0.84212 0.0
H304 H 0.35463 0.3304 0.93541 0.0
H305 H 0.41008 0.32584 0.87327 0.0
H306 H 0.48118 0.18631 0.82467 0.0
H307 H 0.42243 0.19137 0.88651 0.0
C308 C 0.47621 0.2323 0.71681 0.0
C309 C 0.51137 0.25868 0.72188 0.0
C310 C 0.45831 0.23047 0.75626 0.0
C311 C 0.47538 0.2548 0.80209 0.0
C312 C 0.51243 0.28033 0.80739 0.0
C313 C 0.52993 0.28234 0.76789 0.0
C314 C 0.38316 0.29845 0.91201 0.0
C315 C 0.3834 0.26129 0.91588 0.0
C316 C 0.4156 0.29578 0.87632 0.0
C317 C 0.44968 0.2558 0.84338 0.0
C318 C 0.45406 0.21791 0.8488 0.0
C319 C 0.42137 0.2206 0.88468 0.0
H320 H -0.02392 0.77905 0.11712 0.0
H321 H 0.83852 0.7213 0.12242 0.0
H322 H 0.06727 0.76047 0.1941 0.0
H323 H 0.93167 0.70084 0.1991 0.0
H324 H -0.00619 0.76121 0.36201 0.0
H325 H 0.93597 0.7472 0.2764 0.0
H326 H 0.16911 0.71114 0.24682 0.0
H327 H 0.22506 0.72719 0.33233 0.0
C328 C -0.03155 0.76029 0.1339 0.0
C329 C 0.90163 0.75105 0.11419 0.0
C330 C 0.02056 0.74957 0.17804 0.0
C331 C 0.00623 0.72956 0.20319 0.0
C332 C 0.94351 0.71687 0.18106 0.0
C333 C 0.891 0.72795 0.13699 0.0
C334 C 0.03308 0.74946 0.33716 0.0
C335 C 0.11297 0.74625 0.3536 0.0
C336 C 0.00033 0.74104 0.28803 0.0
C337 C 0.04754 0.72861 0.2546 0.0
C338 C 0.13035 0.72168 0.27151 0.0
C339 C 0.16242 0.73083 0.32048 0.0
H340 H 0.95146 0.36837 0.30798 0.0
H341 H 0.85801 0.27755 0.21758 0.0
H342 H -0.01488 0.36994 0.23957 0.0
H343 H 0.8869 0.2813 0.14862 0.0
H344 H 0.0625 0.24861 0.05638 0.0
H345 H 0.00566 0.25397 0.11829 0.0
H346 H 0.93277 0.39382 0.16486 0.0
H347 H -0.00675 0.38788 0.10335 0.0
C348 C 0.93781 0.34879 0.27353 0.0
C349 C 0.90287 0.32238 0.26868 0.0
C350 C 0.95576 0.35035 0.23398 0.0
C351 C 0.93886 0.32575 0.18834 0.0
C352 C 0.90187 0.30027 0.18325 0.0
C353 C 0.8844 0.29849 0.22284 0.0
C354 C 0.03342 0.28075 0.07934 0.0
C355 C 0.03326 0.31773 0.07512 0.0
C356 C 9e-05 0.2839 0.11482 0.0
C357 C 0.96508 0.32425 0.1471 0.0
C358 C 0.96059 0.36199 0.14121 0.0
C359 C -0.00573 0.35877 0.10555 0.0
H360 H 0.70613 0.36035 0.66803 0.0
H361 H 0.93841 0.307 0.62608 0.0
H362 H 0.77528 0.37174 0.752 0.0
H363 H 0.00951 0.31522 0.70962 0.0
H364 H 0.13436 0.33033 0.85915 0.0
H365 H 0.03849 0.35435 0.78459 0.0
H366 H 0.86659 0.32583 0.8065 0.0
H367 H 0.95994 0.30543 0.88247 0.0
C368 C 0.77202 0.35133 0.67694 0.0
C369 C 0.81744 0.33231 0.64085 0.0
C370 C 0.81187 0.35759 0.72503 0.0
C371 C 0.89858 0.34371 0.73802 0.0
C372 C 0.94251 0.32701 0.70143 0.0
C373 C 0.90203 0.32187 0.65334 0.0
C374 C 0.07427 0.33104 0.84852 0.0
C375 C 0.05356 0.31638 0.87596 0.0
C376 C 0.01985 0.34416 0.80562 0.0
C377 C 0.94543 0.34107 0.78862 0.0
C378 C 0.92252 0.32926 0.81829 0.0
C379 C -0.024 0.31735 0.86184 0.0
H380 H 0.06953 0.79418 0.77087 0.0
H381 H -0.03179 0.70775 0.67672 0.0
H382 H 0.04338 0.78735 0.83907 0.0
H383 H 0.93844 0.70262 0.7446 0.0
H384 H 0.93327 0.6805 0.88039 0.0
H385 H -0.00871 0.67611 0.81845 0.0
H386 H 0.92316 0.8151 0.86938 0.0
H387 H 0.86768 0.8191 0.93125 0.0
C388 C 0.04254 0.77329 0.76464 0.0
C389 C 0.02039 0.75188 0.71791 0.0
C390 C 0.02656 0.76978 0.80384 0.0
C391 C -0.01216 0.74479 0.79758 0.0
C392 C -0.03119 0.72193 0.75112 0.0
C393 C -0.01513 0.72541 0.71193 0.0
C394 C 0.93249 0.70977 0.87893 0.0
C395 C 0.89551 0.75013 0.91081 0.0
C396 C 0.96491 0.70744 0.84307 0.0
C397 C 0.96164 0.74533 0.83846 0.0
C398 C 0.92798 0.78503 0.87185 0.0
C399 C 0.89547 0.78739 0.90735 0.0
loop_
_geom_bond_atom_site_label_1
_geom_bond_atom_site_label_2
_geom_bond_distance
_geom_bond_site_symmetry_2
_ccdc_geom_bond_type
Nd0 C2 2.836 . S
Nd0 O20 2.500 1_554 S
Nd0 O21 2.492 . S
Nd0 O22 2.487 . S
Nd0 O23 2.682 . S
Nd0 O24 2.410 1_554 S
Nd0 O29 2.414 1_554 S
Nd0 O31 2.424 . S
Nd1 C11 2.836 1_556 S
Nd1 O23 2.414 1_556 S
Nd1 O25 2.424 . S
Nd1 O26 2.500 1_556 S
Nd1 O27 2.492 . S
Nd1 O28 2.487 . S
Nd1 O29 2.682 . S
Nd1 O30 2.410 1_556 S
C2 Nd0 2.836 . S
C2 C3 1.498 1_554 S
C2 O20 1.258 1_554 S
C2 O21 1.239 . S
C3 C2 1.498 1_556 S
C3 C4 1.366 . S
C3 C8 1.407 1_556 S
C4 C3 1.366 . S
C4 C5 1.392 . S
C4 H32 0.930 . S
C5 C4 1.392 . S
C5 C6 1.398 . S
C5 H33 0.929 . S
C6 C5 1.398 . S
C6 C7 1.352 1_556 S
C7 C6 1.352 1_554 S
C7 C8 1.384 . S
C7 H34 0.930 . S
C8 C3 1.407 1_554 S
C8 C7 1.384 . S
C8 H35 0.929 . S
C9 O22 1.241 . S
C9 O23 1.273 . S
C10 O24 1.251 . S
C10 O25 1.268 . S
C11 Nd1 2.836 1_554 S
C11 C12 1.498 . S
C11 O26 1.258 . S
C11 O27 1.239 1_554 S
C12 C11 1.498 . S
C12 C13 1.366 . S
C12 C17 1.407 1_554 S
C13 C12 1.366 . S
C13 C14 1.392 . S
C13 H36 0.930 . S
C14 C13 1.392 . S
C14 C15 1.398 . S
C14 H37 0.929 . S
C15 C14 1.398 . S
C15 C16 1.352 1_554 S
C16 C15 1.352 1_556 S
C16 C17 1.384 . S
C16 H38 0.930 . S
C17 C12 1.407 1_556 S
C17 C16 1.384 . S
C17 H39 0.929 . S
C18 O28 1.241 . S
C18 O29 1.273 . S
C19 O30 1.251 . S
C19 O31 1.268 . S
O20 Nd0 2.500 1_556 S
O20 C2 1.258 1_556 S
O21 Nd0 2.492 . S
O21 C2 1.239 . S
O22 Nd0 2.487 . S
O22 C9 1.241 . S
O23 Nd0 2.682 . S
O23 Nd1 2.414 1_554 S
O23 C9 1.273 . S
O24 Nd0 2.410 1_556 S
O24 C10 1.251 . S
O25 Nd1 2.424 . S
O25 C10 1.268 . S
O26 Nd1 2.500 1_554 S
O26 C11 1.258 . S
O27 Nd1 2.492 . S
O27 C11 1.239 1_556 S
O28 Nd1 2.487 . S
O28 C18 1.241 . S
O29 Nd0 2.414 1_556 S
O29 Nd1 2.682 . S
O29 C18 1.273 . S
O30 Nd1 2.410 1_554 S
O30 C19 1.251 . S
O31 Nd0 2.424 . S
O31 C19 1.268 . S
H32 C4 0.930 . S
H33 C5 0.929 . S
H34 C7 0.930 . S
H35 C8 0.929 . S
H36 C13 0.930 . S
H37 C14 0.929 . S
H38 C16 0.930 . S
H39 C17 0.929 . S
Nd40 C42 2.836 . S
Nd40 O60 2.500 1_554 S
Nd40 O61 2.492 . S
Nd40 O62 2.487 . S
Nd40 O63 2.682 . S
Nd40 O64 2.410 1_554 S
Nd40 O69 2.414 1_554 S
Nd40 O71 2.424 . S
Nd41 C51 2.836 1_556 S
Nd41 O63 2.414 1_556 S
Nd41 O65 2.424 . S
Nd41 O66 2.500 1_556 S
Nd41 O67 2.492 . S
Nd41 O68 2.487 . S
Nd41 O69 2.682 . S
Nd41 O70 2.410 1_556 S
C42 Nd40 2.836 . S
C42 C43 1.498 1_554 S
C42 O60 1.258 1_554 S
C42 O61 1.239 . S
C43 C42 1.498 1_556 S
C43 C44 1.366 . S
C43 C48 1.407 1_556 S
C44 C43 1.366 . S
C44 C45 1.392 . S
C44 H72 0.930 . S
C45 C44 1.392 . S
C45 C46 1.398 . S
C45 H73 0.929 . S
C46 C45 1.398 . S
C46 C47 1.352 1_556 S
C47 C46 1.352 1_554 S
C47 C48 1.384 . S
C47 H74 0.930 . S
C48 C43 1.407 1_554 S
C48 C47 1.384 . S
C48 H75 0.929 . S
C49 O62 1.241 . S
C49 O63 1.273 . S
C50 O64 1.251 . S
C50 O65 1.268 . S
C51 Nd41 2.836 1_554 S
C51 C52 1.498 . S
C51 O66 1.258 . S
C51 O67 1.239 1_554 S
C52 C51 1.498 . S
C52 C53 1.366 . S
C52 C57 1.407 1_554 S
C53 C52 1.366 . S
C53 C54 1.392 . S
C53 H76 0.930 . S
C54 C53 1.392 . S
C54 C55 1.398 . S
C54 H77 0.929 . S
C55 C54 1.398 . S
C55 C56 1.352 1_554 S
C56 C55 1.352 1_556 S
C56 C57 1.384 . S
C56 H78 0.930 . S
C57 C52 1.407 1_556 S
C57 C56 1.384 . S
C57 H79 0.929 . S
C58 O68 1.241 . S
C58 O69 1.273 . S
C59 O70 1.251 . S
C59 O71 1.268 . S
O60 Nd40 2.500 1_556 S
O60 C42 1.258 1_556 S
O61 Nd40 2.492 . S
O61 C42 1.239 . S
O62 Nd40 2.487 . S
O62 C49 1.241 . S
O63 Nd40 2.682 . S
O63 Nd41 2.414 1_554 S
O63 C49 1.273 . S
O64 Nd40 2.410 1_556 S
O64 C50 1.251 . S
O65 Nd41 2.424 . S
O65 C50 1.268 . S
O66 Nd41 2.500 1_554 S
O66 C51 1.258 . S
O67 Nd41 2.492 . S
O67 C51 1.239 1_556 S
O68 Nd41 2.487 . S
O68 C58 1.241 . S
O69 Nd40 2.414 1_556 S
O69 Nd41 2.682 . S
O69 C58 1.273 . S
O70 Nd41 2.410 1_554 S
O70 C59 1.251 . S
O71 Nd40 2.424 . S
O71 C59 1.268 . S
H72 C44 0.930 . S
H73 C45 0.929 . S
H74 C47 0.930 . S
H75 C48 0.929 . S
H76 C53 0.930 . S
H77 C54 0.929 . S
H78 C56 0.930 . S
H79 C57 0.929 . S
Nd80 C82 2.836 . S
Nd80 O100 2.500 . S
Nd80 O101 2.492 . S
Nd80 O102 2.487 . S
Nd80 O103 2.682 . S
Nd80 O104 2.410 . S
Nd80 O109 2.414 . S
Nd80 O111 2.424 . S
Nd81 C91 2.836 . S
Nd81 O103 2.414 . S
Nd81 O105 2.424 . S
Nd81 O106 2.500 . S
Nd81 O107 2.492 . S
Nd81 O108 2.487 . S
Nd81 O109 2.682 . S
Nd81 O110 2.410 . S
C82 Nd80 2.836 . S
C82 C83 1.498 . S
C82 O100 1.258 . S
C82 O101 1.239 . S
C83 C82 1.498 . S
C83 C84 1.366 . S
C83 C88 1.407 . S
C84 C83 1.366 . S
C84 C85 1.392 . S
C84 H112 0.930 . S
C85 C84 1.392 . S
C85 C86 1.398 . S
C85 H113 0.929 . S
C86 C85 1.398 . S
C86 C87 1.352 . S
C87 C86 1.352 . S
C87 C88 1.384 . S
C87 H114 0.930 . S
C88 C83 1.407 . S
C88 C87 1.384 . S
C88 H115 0.929 . S
C89 O102 1.241 . S
C89 O103 1.273 . S
C90 O104 1.251 . S
C90 O105 1.268 . S
C91 Nd81 2.836 . S
C91 C92 1.498 . S
C91 O106 1.258 . S
C91 O107 1.239 . S
C92 C91 1.498 . S
C92 C93 1.366 . S
C92 C97 1.407 . S
C93 C92 1.366 . S
C93 C94 1.392 . S
C93 H116 0.930 . S
C94 C93 1.392 . S
C94 C95 1.398 . S
C94 H117 0.929 . S
C95 C94 1.398 . S
C95 C96 1.352 . S
C96 C95 1.352 . S
C96 C97 1.384 . S
C96 H118 0.930 1_455 S
C97 C92 1.407 . S
C97 C96 1.384 . S
C97 H119 0.929 . S
C98 O108 1.241 . S
C98 O109 1.273 . S
C99 O110 1.251 . S
C99 O111 1.268 . S
O100 Nd80 2.500 . S
O100 C82 1.258 . S
O101 Nd80 2.492 . S
O101 C82 1.239 . S
O102 Nd80 2.487 . S
O102 C89 1.241 . S
O103 Nd80 2.682 . S
O103 Nd81 2.414 . S
O103 C89 1.273 . S
O104 Nd80 2.410 . S
O104 C90 1.251 . S
O105 Nd81 2.424 . S
O105 C90 1.268 . S
O106 Nd81 2.500 . S
O106 C91 1.258 . S
O107 Nd81 2.492 . S
O107 C91 1.239 . S
O108 Nd81 2.487 . S
O108 C98 1.241 . S
O109 Nd80 2.414 . S
O109 Nd81 2.682 . S
O109 C98 1.273 . S
O110 Nd81 2.410 . S
O110 C99 1.251 . S
O111 Nd80 2.424 . S
O111 C99 1.268 . S
H112 C84 0.930 . S
H113 C85 0.929 . S
H114 C87 0.930 . S
H115 C88 0.929 . S
H116 C93 0.930 . S
H117 C94 0.929 . S
H118 C96 0.930 1_655 S
H119 C97 0.929 . S
Nd120 C122 2.836 . S
Nd120 O140 2.500 . S
Nd120 O141 2.492 . S
Nd120 O142 2.487 . S
Nd120 O143 2.682 . S
Nd120 O144 2.410 . S
Nd120 O149 2.414 . S
Nd120 O151 2.424 . S
Nd121 C131 2.836 . S
Nd121 O143 2.414 . S
Nd121 O145 2.424 . S
Nd121 O146 2.500 . S
Nd121 O147 2.492 . S
Nd121 O148 2.487 . S
Nd121 O149 2.682 . S
Nd121 O150 2.410 . S
C122 Nd120 2.836 . S
C122 C123 1.498 . S
C122 O140 1.258 . S
C122 O141 1.239 . S
C123 C122 1.498 . S
C123 C124 1.366 . S
C123 C128 1.407 . S
C124 C123 1.366 . S
C124 C125 1.392 . S
C124 H152 0.930 . S
C125 C124 1.392 . S
C125 C126 1.398 . S
C125 H153 0.929 . S
C126 C125 1.398 . S
C126 C127 1.352 . S
C127 C126 1.352 . S
C127 C128 1.384 . S
C127 H154 0.930 1_655 S
C128 C123 1.407 . S
C128 C127 1.384 . S
C128 H155 0.929 . S
C129 O142 1.241 . S
C129 O143 1.273 . S
C130 O144 1.251 . S
C130 O145 1.268 . S
C131 Nd121 2.836 . S
C131 C132 1.498 . S
C131 O146 1.258 . S
C131 O147 1.239 . S
C132 C131 1.498 . S
C132 C133 1.366 . S
C132 C137 1.407 . S
C133 C132 1.366 . S
C133 C134 1.392 . S
C133 H156 0.930 . S
C134 C133 1.392 . S
C134 C135 1.398 . S
C134 H157 0.929 . S
C135 C134 1.398 . S
C135 C136 1.352 . S
C136 C135 1.352 . S
C136 C137 1.384 . S
C136 H158 0.930 . S
C137 C132 1.407 . S
C137 C136 1.384 . S
C137 H159 0.929 . S
C138 O148 1.241 . S
C138 O149 1.273 . S
C139 O150 1.251 . S
C139 O151 1.268 . S
O140 Nd120 2.500 . S
O140 C122 1.258 . S
O141 Nd120 2.492 . S
O141 C122 1.239 . S
O142 Nd120 2.487 . S
O142 C129 1.241 . S
O143 Nd120 2.682 . S
O143 Nd121 2.414 . S
O143 C129 1.273 . S
O144 Nd120 2.410 . S
O144 C130 1.251 . S
O145 Nd121 2.424 . S
O145 C130 1.268 . S
O146 Nd121 2.500 . S
O146 C131 1.258 . S
O147 Nd121 2.492 . S
O147 C131 1.239 . S
O148 Nd121 2.487 . S
O148 C138 1.241 . S
O149 Nd120 2.414 . S
O149 Nd121 2.682 . S
O149 C138 1.273 . S
O150 Nd121 2.410 . S
O150 C139 1.251 . S
O151 Nd120 2.424 . S
O151 C139 1.268 . S
H152 C124 0.930 . S
H153 C125 0.929 . S
H154 C127 0.930 1_455 S
H155 C128 0.929 . S
H156 C133 0.930 . S
H157 C134 0.929 . S
H158 C136 0.930 . S
H159 C137 0.929 . S
H160 C168 0.950 . S
H161 C173 0.950 . S
H162 C170 0.950 . S
H163 C172 0.950 . S
H164 C174 0.950 . S
H165 C176 0.950 . S
H166 C178 0.950 . S
H167 C179 0.950 . S
C168 H160 0.950 . S
C168 C169 1.386 . S
C168 C170 1.391 . S
C169 C168 1.386 . S
C169 C173 1.393 . S
C170 H162 0.950 . S
C170 C168 1.391 . S
C170 C171 1.400 . S
C171 C170 1.400 . S
C171 C172 1.398 . S
C171 C177 1.491 1_554 S
C172 H163 0.950 . S
C172 C171 1.398 . S
C172 C173 1.391 . S
C173 H161 0.950 . S
C173 C169 1.393 . S
C173 C172 1.391 . S
C174 H164 0.950 . S
C174 C175 1.386 . S
C174 C176 1.391 . S
C175 C174 1.386 . S
C175 C179 1.393 . S
C176 H165 0.950 . S
C176 C174 1.391 . S
C176 C177 1.400 . S
C177 C171 1.491 1_556 S
C177 C176 1.400 . S
C177 C178 1.398 . S
C178 H166 0.950 . S
C178 C177 1.398 . S
C178 C179 1.391 . S
C179 H167 0.950 . S
C179 C175 1.393 . S
C179 C178 1.391 . S
H180 C188 0.950 . S
H181 C193 0.950 . S
H182 C190 0.950 . S
H183 C192 0.950 . S
H184 C194 0.950 . S
H185 C196 0.950 . S
H186 C198 0.950 . S
H187 C199 0.950 . S
C188 H180 0.950 . S
C188 C189 1.386 . S
C188 C190 1.391 . S
C189 C188 1.386 . S
C189 C193 1.393 . S
C190 H182 0.950 . S
C190 C188 1.391 . S
C190 C191 1.400 . S
C191 C190 1.400 . S
C191 C192 1.398 . S
C191 C197 1.491 . S
C192 H183 0.950 . S
C192 C191 1.398 . S
C192 C193 1.391 . S
C193 H181 0.950 . S
C193 C189 1.393 . S
C193 C192 1.391 . S
C194 H184 0.950 . S
C194 C195 1.386 . S
C194 C196 1.391 . S
C195 C194 1.386 . S
C195 C199 1.393 . S
C196 H185 0.950 . S
C196 C194 1.391 . S
C196 C197 1.400 . S
C197 C191 1.491 . S
C197 C196 1.400 . S
C197 C198 1.398 . S
C198 H186 0.950 . S
C198 C197 1.398 . S
C198 C199 1.391 . S
C199 H187 0.950 . S
C199 C195 1.393 . S
C199 C198 1.391 . S
H200 C208 0.950 . S
H201 C213 0.950 . S
H202 C210 0.950 1_655 S
H203 C212 0.950 . S
H204 C214 0.950 . S
H205 C216 0.950 1_455 S
H206 C218 0.950 1_554 S
H207 C219 0.950 . S
C208 H200 0.950 . S
C208 C209 1.386 . S
C208 C210 1.391 . S
C209 C208 1.386 . S
C209 C213 1.393 1_545 S
C210 H202 0.950 1_455 S
C210 C208 1.391 . S
C210 C211 1.400 . S
C211 C210 1.400 . S
C211 C212 1.398 1_545 S
C211 C217 1.491 1_444 S
C212 H203 0.950 . S
C212 C211 1.398 1_565 S
C212 C213 1.391 . S
C213 H201 0.950 . S
C213 C209 1.393 1_565 S
C213 C212 1.391 . S
C214 H204 0.950 . S
C214 C215 1.386 . S
C214 C216 1.391 . S
C215 C214 1.386 . S
C215 C219 1.393 1_565 S
C216 H205 0.950 1_655 S
C216 C214 1.391 . S
C216 C217 1.400 . S
C217 C211 1.491 1_666 S
C217 C216 1.400 . S
C217 C218 1.398 1_565 S
C218 H206 0.950 1_556 S
C218 C217 1.398 1_545 S
C218 C219 1.391 . S
C219 H207 0.950 . S
C219 C215 1.393 1_545 S
C219 C218 1.391 . S
H220 C228 0.950 1_455 S
H221 C233 0.950 . S
H222 C230 0.950 . S
H223 C232 0.950 . S
H224 C234 0.950 1_655 S
H225 C236 0.950 . S
H226 C238 0.950 . S
H227 C239 0.950 . S
C228 H220 0.950 1_655 S
C228 C229 1.386 . S
C228 C230 1.391 1_655 S
C229 C228 1.386 . S
C229 C233 1.393 . S
C230 H222 0.950 . S
C230 C228 1.391 1_455 S
C230 C231 1.400 1_455 S
C231 C230 1.400 1_655 S
C231 C232 1.398 . S
C231 C237 1.491 1_645 S
C232 H223 0.950 . S
C232 C231 1.398 . S
C232 C233 1.391 . S
C233 H221 0.950 . S
C233 C229 1.393 . S
C233 C232 1.391 . S
C234 H224 0.950 1_455 S
C234 C235 1.386 . S
C234 C236 1.391 1_455 S
C235 C234 1.386 . S
C235 C239 1.393 . S
C236 H225 0.950 . S
C236 C234 1.391 1_655 S
C236 C237 1.400 1_655 S
C237 C231 1.491 1_465 S
C237 C236 1.400 1_455 S
C237 C238 1.398 . S
C238 H226 0.950 . S
C238 C237 1.398 . S
C238 C239 1.391 . S
C239 H227 0.950 . S
C239 C235 1.393 . S
C239 C238 1.391 . S
H240 C248 0.950 . S
H241 C253 0.950 . S
H242 C250 0.950 . S
H243 C252 0.950 . S
H244 C254 0.950 . S
H245 C256 0.950 . S
H246 C258 0.950 . S
H247 C259 0.950 . S
C248 H240 0.950 . S
C248 C249 1.386 . S
C248 C250 1.391 . S
C249 C248 1.386 . S
C249 C253 1.393 . S
C250 H242 0.950 . S
C250 C248 1.391 . S
C250 C251 1.400 . S
C251 C250 1.400 . S
C251 C252 1.398 . S
C251 C257 1.491 . S
C252 H243 0.950 . S
C252 C251 1.398 . S
C252 C253 1.391 . S
C253 H241 0.950 . S
C253 C249 1.393 . S
C253 C252 1.391 . S
C254 H244 0.950 . S
C254 C255 1.386 . S
C254 C256 1.391 . S
C255 C254 1.386 . S
C255 C259 1.393 . S
C256 H245 0.950 . S
C256 C254 1.391 . S
C256 C257 1.400 . S
C257 C251 1.491 . S
C257 C256 1.400 . S
C257 C258 1.398 . S
C258 H246 0.950 . S
C258 C257 1.398 . S
C258 C259 1.391 . S
C259 H247 0.950 . S
C259 C255 1.393 . S
C259 C258 1.391 . S
H260 C268 0.950 . S
H261 C273 0.950 . S
H262 C270 0.950 . S
H263 C272 0.950 . S
H264 C274 0.950 . S
H265 C276 0.950 . S
H266 C278 0.950 . S
H267 C279 0.950 . S
C268 H260 0.950 . S
C268 C269 1.386 . S
C268 C270 1.391 . S
C269 C268 1.386 . S
C269 C273 1.393 . S
C270 H262 0.950 . S
C270 C268 1.391 . S
C270 C271 1.400 . S
C271 C270 1.400 . S
C271 C272 1.398 . S
C271 C277 1.491 . S
C272 H263 0.950 . S
C272 C271 1.398 . S
C272 C273 1.391 . S
C273 H261 0.950 . S
C273 C269 1.393 . S
C273 C272 1.391 . S
C274 H264 0.950 . S
C274 C275 1.386 . S
C274 C276 1.391 . S
C275 C274 1.386 . S
C275 C279 1.393 . S
C276 H265 0.950 . S
C276 C274 1.391 . S
C276 C277 1.400 . S
C277 C271 1.491 . S
C277 C276 1.400 . S
C277 C278 1.398 . S
C278 H266 0.950 . S
C278 C277 1.398 . S
C278 C279 1.391 . S
C279 H267 0.950 . S
C279 C275 1.393 . S
C279 C278 1.391 . S
H280 C288 0.950 . S
H281 C293 0.950 . S
H282 C290 0.950 . S
H283 C292 0.950 . S
H284 C294 0.950 . S
H285 C296 0.950 . S
H286 C298 0.950 . S
H287 C299 0.950 . S
C288 H280 0.950 . S
C288 C289 1.386 . S
C288 C290 1.391 . S
C289 C288 1.386 . S
C289 C293 1.393 . S
C290 H282 0.950 . S
C290 C288 1.391 . S
C290 C291 1.400 . S
C291 C290 1.400 . S
C291 C292 1.398 . S
C291 C297 1.491 . S
C292 H283 0.950 . S
C292 C291 1.398 . S
C292 C293 1.391 . S
C293 H281 0.950 . S
C293 C289 1.393 . S
C293 C292 1.391 . S
C294 H284 0.950 . S
C294 C295 1.386 . S
C294 C296 1.391 . S
C295 C294 1.386 . S
C295 C299 1.393 . S
C296 H285 0.950 . S
C296 C294 1.391 . S
C296 C297 1.400 . S
C297 C291 1.491 . S
C297 C296 1.400 . S
C297 C298 1.398 . S
C298 H286 0.950 . S
C298 C297 1.398 . S
C298 C299 1.391 . S
C299 H287 0.950 . S
C299 C295 1.393 . S
C299 C298 1.391 . S
H300 C308 0.950 . S
H301 C313 0.950 . S
H302 C310 0.950 . S
H303 C312 0.950 . S
H304 C314 0.950 . S
H305 C316 0.950 . S
H306 C318 0.950 . S
H307 C319 0.950 . S
C308 H300 0.950 . S
C308 C309 1.386 . S
C308 C310 1.391 . S
C309 C308 1.386 . S
C309 C313 1.393 . S
C310 H302 0.950 . S
C310 C308 1.391 . S
C310 C311 1.400 . S
C311 C310 1.400 . S
C311 C312 1.398 . S
C311 C317 1.491 . S
C312 H303 0.950 . S
C312 C311 1.398 . S
C312 C313 1.391 . S
C313 H301 0.950 . S
C313 C309 1.393 . S
C313 C312 1.391 . S
C314 H304 0.950 . S
C314 C315 1.386 . S
C314 C316 1.391 . S
C315 C314 1.386 . S
C315 C319 1.393 . S
C316 H305 0.950 . S
C316 C314 1.391 . S
C316 C317 1.400 . S
C317 C311 1.491 . S
C317 C316 1.400 . S
C317 C318 1.398 . S
C318 H306 0.950 . S
C318 C317 1.398 . S
C318 C319 1.391 . S
C319 H307 0.950 . S
C319 C315 1.393 . S
C319 C318 1.391 . S
H320 C328 0.962 . S
H321 C333 0.950 . S
H322 C330 0.950 . S
H323 C332 0.950 . S
H324 C334 0.950 . S
H325 C336 0.950 1_655 S
H326 C338 0.950 . S
H327 C339 0.950 . S
C328 H320 0.962 . S
C328 C329 1.386 . S
C328 C330 1.391 1_655 S
C329 C328 1.386 . S
C329 C333 1.393 . S
C330 H322 0.950 . S
C330 C328 1.391 1_455 S
C330 C331 1.400 1_455 S
C331 C330 1.400 1_655 S
C331 C332 1.398 . S
C331 C337 1.491 1_655 S
C332 H323 0.950 . S
C332 C331 1.398 . S
C332 C333 1.391 . S
C333 H321 0.950 . S
C333 C329 1.393 . S
C333 C332 1.391 . S
C334 H324 0.950 . S
C334 C335 1.386 . S
C334 C336 1.391 . S
C335 C334 1.386 . S
C335 C339 1.393 . S
C336 H325 0.950 1_455 S
C336 C334 1.391 . S
C336 C337 1.400 . S
C337 C331 1.491 1_455 S
C337 C336 1.400 . S
C337 C338 1.398 . S
C338 H326 0.950 . S
C338 C337 1.398 . S
C338 C339 1.391 . S
C339 H327 0.950 . S
C339 C335 1.393 . S
C339 C338 1.391 . S
H340 C348 0.950 . S
H341 C353 0.950 . S
H342 C350 0.950 . S
H343 C352 0.950 . S
H344 C354 0.950 1_655 S
H345 C356 0.950 . S
H346 C358 0.950 . S
H347 C359 0.950 . S
C348 H340 0.950 . S
C348 C349 1.386 1_455 S
C348 C350 1.391 . S
C349 C348 1.386 1_655 S
C349 C353 1.393 . S
C350 H342 0.950 . S
C350 C348 1.391 . S
C350 C351 1.400 . S
C351 C350 1.400 . S
C351 C352 1.398 1_455 S
C351 C357 1.491 . S
C352 H343 0.950 . S
C352 C351 1.398 1_655 S
C352 C353 1.391 . S
C353 H341 0.950 . S
C353 C349 1.393 . S
C353 C352 1.391 . S
C354 H344 0.950 1_455 S
C354 C355 1.386 . S
C354 C356 1.391 1_455 S
C355 C354 1.386 . S
C355 C359 1.393 . S
C356 H345 0.950 . S
C356 C354 1.391 1_655 S
C356 C357 1.400 1_655 S
C357 C351 1.491 . S
C357 C356 1.400 1_455 S
C357 C358 1.398 . S
C358 H346 0.950 . S
C358 C357 1.398 . S
C358 C359 1.391 . S
C359 H347 0.950 . S
C359 C355 1.393 . S
C359 C358 1.391 . S
H360 C368 0.950 . S
H361 C373 0.950 . S
H362 C370 0.950 . S
H363 C372 0.950 1_455 S
H364 C374 0.950 . S
H365 C376 0.950 . S
H366 C378 0.950 . S
H367 C379 0.950 1_655 S
C368 H360 0.950 . S
C368 C369 1.386 . S
C368 C370 1.391 . S
C369 C368 1.386 . S
C369 C373 1.393 . S
C370 H362 0.950 . S
C370 C368 1.391 . S
C370 C371 1.400 . S
C371 C370 1.400 . S
C371 C372 1.398 . S
C371 C377 1.491 1_655 S
C372 H363 0.950 1_655 S
C372 C371 1.398 . S
C372 C373 1.391 . S
C373 H361 0.950 . S
C373 C369 1.393 . S
C373 C372 1.391 . S
C374 H364 0.950 . S
C374 C375 1.386 . S
C374 C376 1.391 . S
C375 C374 1.386 . S
C375 C379 1.393 . S
C376 H365 0.950 . S
C376 C374 1.391 . S
C376 C377 1.400 . S
C377 C371 1.491 1_455 S
C377 C376 1.400 . S
C377 C378 1.398 1_455 S
C378 H366 0.950 . S
C378 C377 1.398 1_655 S
C378 C379 1.391 1_655 S
C379 H367 0.950 1_455 S
C379 C375 1.393 . S
C379 C378 1.391 1_455 S
H380 C388 0.950 . S
H381 C393 0.950 . S
H382 C390 0.950 . S
H383 C392 0.950 . S
H384 C394 0.950 . S
H385 C396 0.950 . S
H386 C398 0.950 . S
H387 C399 0.950 1_455 S
C388 H380 0.950 . S
C388 C389 1.386 . S
C388 C390 1.391 . S
C389 C388 1.386 . S
C389 C393 1.393 1_455 S
C390 H382 0.950 . S
C390 C388 1.391 . S
C390 C391 1.400 1_455 S
C391 C390 1.400 1_655 S
C391 C392 1.398 . S
C391 C397 1.491 . S
C392 H383 0.950 . S
C392 C391 1.398 . S
C392 C393 1.391 . S
C393 H381 0.950 . S
C393 C389 1.393 1_655 S
C393 C392 1.391 . S
C394 H384 0.950 . S
C394 C395 1.386 . S
C394 C396 1.391 . S
C395 C394 1.386 . S
C395 C399 1.393 . S
C396 H385 0.950 . S
C396 C394 1.391 . S
C396 C397 1.400 . S
C397 C391 1.491 . S
C397 C396 1.400 . S
C397 C398 1.398 1_655 S
C398 H386 0.950 . S
C398 C397 1.398 1_455 S
C398 C399 1.391 1_455 S
C399 H387 0.950 1_655 S
C399 C395 1.393 . S
C399 C398 1.391 1_655 S
C169 C55 1.591 . S
C175 C6 1.591 . S
C189 C89 2.117 . S
C195 C138 2.117 . S
C209 C15 1.578 . S
C215 C46 1.578 . S
C229 C129 2.111 . S
C235 C98 2.111 . S
C249 C130 1.067 . S
C255 C9 1.005 . S
C269 C59 1.584 . S
C275 C86 1.578 . S
C289 C58 1.003 . S
C295 C99 1.065 . S
C309 C135 1.578 . S
C315 C10 1.584 . S
C329 C49 1.003 . S
C335 C90 1.065 . S
C349 C126 1.584 . S
C355 C19 1.588 . S
C369 C139 1.080 . S
C375 C18 1.049 . S
C389 C95 1.582 . S
C395 C50 1.589 . S
