# Generated by pormake.
# Topology zfb, (5)-cn, num edge types: 1
# Building blocks:
#     Node 0, Type 0, BuildingBlock: BEQFEK_clean_sbu_0, # of connection points: 5
#     Node 1, Type 0, BuildingBlock: BEQFEK_clean_sbu_0, # of connection points: 5
#     Node 2, Type 0, BuildingBlock: BEQFEK_clean_sbu_0, # of connection points: 5
#     Node 3, Type 0, BuildingBlock: BEQFEK_clean_sbu_0, # of connection points: 5
#     Node 4, Type 0, BuildingBlock: BEQFEK_clean_sbu_0, # of connection points: 5
#     Node 5, Type 0, BuildingBlock: BEQFEK_clean_sbu_0, # of connection points: 5
#     Node 6, Type 0, BuildingBlock: BEQFEK_clean_sbu_0, # of connection points: 5
#     Node 7, Type 0, BuildingBlock: BEQFEK_clean_sbu_0, # of connection points: 5
#     Edge 8, Type (0, 0), BuildingBlock: XUDNAN_clean_linker_2, # of connection points: 2
#     Edge 9, Type (0, 0), BuildingBlock: XUDNAN_clean_linker_2, # of connection points: 2
#     Edge 10, Type (0, 0), BuildingBlock: XUDNAN_clean_linker_2, # of connection points: 2
#     Edge 11, Type (0, 0), BuildingBlock: XUDNAN_clean_linker_2, # of connection points: 2
#     Edge 12, Type (0, 0), BuildingBlock: XUDNAN_clean_linker_2, # of connection points: 2
#     Edge 13, Type (0, 0), BuildingBlock: XUDNAN_clean_linker_2, # of connection points: 2
#     Edge 14, Type (0, 0), BuildingBlock: XUDNAN_clean_linker_2, # of connection points: 2
#     Edge 15, Type (0, 0), BuildingBlock: XUDNAN_clean_linker_2, # of connection points: 2
#     Edge 16, Type (0, 0), BuildingBlock: XUDNAN_clean_linker_2, # of connection points: 2
#     Edge 17, Type (0, 0), BuildingBlock: XUDNAN_clean_linker_2, # of connection points: 2
#     Edge 18, Type (0, 0), BuildingBlock: XUDNAN_clean_linker_2, # of connection points: 2
#     Edge 19, Type (0, 0), BuildingBlock: XUDNAN_clean_linker_2, # of connection points: 2
#     Edge 20, Type (0, 0), BuildingBlock: XUDNAN_clean_linker_2, # of connection points: 2
#     Edge 21, Type (0, 0), BuildingBlock: XUDNAN_clean_linker_2, # of connection points: 2
#     Edge 22, Type (0, 0), BuildingBlock: XUDNAN_clean_linker_2, # of connection points: 2
#     Edge 23, Type (0, 0), BuildingBlock: XUDNAN_clean_linker_2, # of connection points: 2
#     Edge 24, Type (0, 0), BuildingBlock: XUDNAN_clean_linker_2, # of connection points: 2
#     Edge 25, Type (0, 0), BuildingBlock: XUDNAN_clean_linker_2, # of connection points: 2
#     Edge 26, Type (0, 0), BuildingBlock: XUDNAN_clean_linker_2, # of connection points: 2
#     Edge 27, Type (0, 0), BuildingBlock: XUDNAN_clean_linker_2, # of connection points: 2
# Relax obj value: 0.117
# Max RMSD: 0.139
# Mean RMSD: 0.139
data_MOF--net-zfb--node1-BEQFEK_clean_sbu_0--edge1-XUDNAN_clean_linker_2
_symmetry_space_group_name_H-M    P1
_symmetry_Int_Tables_number       1
_symmetry_cell_setting            triclinic
loop_
_symmetry_equiv_pos_as_xyz
'x, y, z'
_cell_length_a     30.579862
_cell_length_b     30.602407
_cell_length_c     38.629204
_cell_angle_alpha  90.014793
_cell_angle_beta   90.046795
_cell_angle_gamma 89.935309
loop_
_atom_site_label
_atom_site_type_symbol
_atom_site_fract_x
_atom_site_fract_y
_atom_site_fract_z
_atom_type_partial_charge
Co0 Co 0.19188 0.38083 0.08132 0.0
Co1 Co 0.18504 0.36767 1.00043 0.0
C2 C 0.11195 0.40702 0.03998 0.0
O3 O 0.13162 0.40362 0.06908 0.0
O4 O 0.12916 0.39295 0.01222 0.0
C5 C 0.17209 0.35762 0.15272 0.0
O6 O 0.141 0.3335 0.1391 0.0
C7 C 0.15792 0.34305 0.9289 0.0
C8 C 0.22132 0.34913 0.90187 0.0
C9 C 0.1777 0.339 0.89665 0.0
N10 N 0.18873 0.35458 0.95211 0.0
N11 N 0.22644 0.35818 0.93567 0.0
C12 C 0.11042 0.33767 0.93723 0.0
H13 H 0.10168 0.3553 0.96116 0.0
H14 H 0.10327 0.30255 0.94142 0.0
H15 H 0.08981 0.34963 0.91553 0.0
C16 C 0.21689 0.28469 0.07443 0.0
N17 N 0.20325 0.32365 0.06157 0.0
N18 N 0.19724 0.31907 0.02801 0.0
C19 C 0.20515 0.27757 0.01873 0.0
C20 C 0.21835 0.25435 0.04757 0.0
C21 C 0.23141 0.27734 0.11092 0.0
H22 H 0.24617 0.30756 0.12162 0.0
H23 H 0.2026 0.26853 0.12689 0.0
H24 H 0.2553 0.25006 0.11238 0.0
O25 O 0.23324 0.42703 0.06383 0.0
O26 O 0.2271 0.41441 0.00762 0.0
H27 H 0.22717 0.27338 0.96628 0.0
H28 H 0.20133 0.22413 0.9819 0.0
C29 C 0.20039 0.26036 0.98263 0.0
H30 H 0.16874 0.2713 0.97176 0.0
H31 H 0.25574 0.36713 0.94757 0.0
O32 O 0.19708 0.37944 0.13286 0.0
C33 C 0.2428 0.43639 0.03256 0.0
Co34 Co 0.6346 0.19679 0.5802 0.0
Co35 Co 0.63712 0.20603 0.49798 0.0
C36 C 0.61072 0.12283 0.53089 0.0
O37 O 0.61469 0.13851 0.56153 0.0
O38 O 0.62014 0.14509 0.50402 0.0
C39 C 0.65332 0.16763 0.65368 0.0
O40 O 0.66815 0.13032 0.6416 0.0
C41 C 0.65403 0.19763 0.42178 0.0
C42 C 0.65812 0.26761 0.40809 0.0
C43 C 0.66248 0.22599 0.39448 0.0
N44 N 0.64557 0.22165 0.45031 0.0
N45 N 0.6472 0.26337 0.44161 0.0
C46 C 0.65817 0.1489 0.4215 0.0
H47 H 0.62683 0.13457 0.41253 0.0
H48 H 0.66526 0.13638 0.44783 0.0
H49 H 0.68434 0.1384 0.40342 0.0
C50 C 0.7301 0.21457 0.56943 0.0
N51 N 0.68835 0.21332 0.55793 0.0
N52 N 0.68867 0.21682 0.52394 0.0
C53 C 0.73032 0.21962 0.51277 0.0
C54 C 0.75819 0.2185 0.54117 0.0
C55 C 0.74295 0.20909 0.60652 0.0
H56 H 0.72012 0.22759 0.62334 0.0
H57 H 0.74087 0.17401 0.61353 0.0
H58 H 0.77686 0.22066 0.61107 0.0
O59 O 0.58505 0.23785 0.57031 0.0
O60 O 0.58567 0.23959 0.51295 0.0
H61 H 0.73375 0.24445 0.46107 0.0
H62 H 0.77851 0.20858 0.47194 0.0
C63 C 0.74312 0.21458 0.47553 0.0
H64 H 0.72548 0.18639 0.46436 0.0
H65 H 0.64259 0.28906 0.459 0.0
O66 O 0.63975 0.19672 0.63257 0.0
C67 C 0.56822 0.24975 0.54166 0.0
Co68 Co 0.79675 0.63647 0.09643 0.0
Co69 Co 0.77223 0.6227 0.01841 0.0
C70 C 0.86393 0.60867 0.0479 0.0
O71 O 0.85527 0.62176 0.07843 0.0
O72 O 0.83476 0.60793 0.02432 0.0
C73 C 0.82395 0.63103 0.16763 0.0
O74 O 0.84401 0.59545 0.15708 0.0
C75 C 0.78395 0.63838 0.94459 0.0
C76 C 0.72678 0.605 0.92169 0.0
C77 C 0.7636 0.62906 0.91352 0.0
N78 N 0.76024 0.62072 0.97022 0.0
N79 N 0.72633 0.60037 0.95638 0.0
C80 C 0.82598 0.66253 0.94981 0.0
H81 H 0.83021 0.67178 0.97738 0.0
H82 H 0.82702 0.69217 0.93332 0.0
H83 H 0.85356 0.64115 0.94191 0.0
C84 C 0.77232 0.72684 0.07776 0.0
N85 N 0.77225 0.68377 0.07059 0.0
N86 N 0.76015 0.67811 0.03822 0.0
C87 C 0.75097 0.71745 0.02407 0.0
C88 C 0.75959 0.74989 0.04837 0.0
C89 C 0.7882 0.74555 0.1113 0.0
H90 H 0.76971 0.73059 0.13294 0.0
H91 H 0.82325 0.73723 0.11483 0.0
H92 H 0.78382 0.78152 0.11231 0.0
O93 O 0.76457 0.5798 0.09327 0.0
O94 O 0.73971 0.5746 0.03954 0.0
H95 H 0.7234 0.69545 0.97586 0.0
H96 H 0.71797 0.75288 0.98339 0.0
C97 C 0.74 0.72448 0.9867 0.0
H98 H 0.77036 0.73131 0.97204 0.0
H99 H 0.70264 0.58374 0.97064 0.0
O100 O 0.80184 0.65326 0.146 0.0
C101 C 0.74415 0.55884 0.06974 0.0
Co102 Co 0.37306 0.81775 0.58221 0.0
Co103 Co 0.36794 0.79211 0.50256 0.0
C104 C 0.40616 0.87772 0.52807 0.0
O105 O 0.39734 0.86956 0.55963 0.0
O106 O 0.39623 0.85106 0.50384 0.0
C107 C 0.36101 0.86584 0.64625 0.0
O108 O 0.35724 0.89972 0.62557 0.0
C109 C 0.35086 0.79355 0.42596 0.0
C110 C 0.35785 0.72306 0.41491 0.0
C111 C 0.3504 0.763 0.39908 0.0
N112 N 0.35829 0.77225 0.45599 0.0
N113 N 0.36224 0.73018 0.44902 0.0
C114 C 0.34717 0.84217 0.42311 0.0
H115 H 0.35929 0.85838 0.44682 0.0
H116 H 0.31227 0.85116 0.41974 0.0
H117 H 0.36574 0.85414 0.40034 0.0
C118 C 0.2772 0.8052 0.57473 0.0
N119 N 0.31801 0.80354 0.56176 0.0
N120 N 0.31607 0.79052 0.52933 0.0
C121 C 0.27421 0.78119 0.52118 0.0
C122 C 0.24787 0.7905 0.54965 0.0
C123 C 0.26652 0.82551 0.60899 0.0
H124 H 0.28451 0.85667 0.6115 0.0
H125 H 0.23123 0.83294 0.61173 0.0
H126 H 0.27719 0.8034 0.63014 0.0
O127 O 0.41881 0.7718 0.57607 0.0
O128 O 0.41192 0.75211 0.52108 0.0
H129 H 0.2848 0.7362 0.47958 0.0
H130 H 0.22825 0.74496 0.48943 0.0
C131 C 0.26057 0.76112 0.48751 0.0
H132 H 0.25935 0.78682 0.46727 0.0
H133 H 0.36871 0.70628 0.4676 0.0
O134 O 0.36744 0.82814 0.63331 0.0
C135 C 0.43072 0.74875 0.55026 0.0
Co136 Co 0.69761 0.13169 0.97349 0.0
Co137 Co 0.71599 0.12213 0.05466 0.0
C138 C 0.62931 0.10066 0.02459 0.0
O139 O 0.64099 0.11079 0.99381 0.0
O140 O 0.65499 0.10464 0.05036 0.0
C141 C 0.6594 0.16817 0.90998 0.0
O142 O 0.63132 0.18627 0.93137 0.0
C143 C 0.71282 0.13159 0.13184 0.0
C144 C 0.78342 0.12729 0.14351 0.0
C145 C 0.74306 0.13481 0.15863 0.0
N146 N 0.73465 0.12339 0.10218 0.0
N147 N 0.77667 0.11978 0.10966 0.0
C148 C 0.66483 0.14097 0.13375 0.0
H149 H 0.64774 0.11166 0.14385 0.0
H150 H 0.65152 0.14884 0.10779 0.0
H151 H 0.65841 0.1685 0.15177 0.0
C152 C 0.72758 0.22363 0.99109 0.0
N153 N 0.71961 0.18129 0.99923 0.0
N154 N 0.72497 0.17652 0.03289 0.0
C155 C 0.73509 0.21525 0.04716 0.0
C156 C 0.73798 0.24636 0.02126 0.0
C157 C 0.72512 0.24206 0.95532 0.0
H158 H 0.736 0.21733 0.93618 0.0
H159 H 0.69073 0.25104 0.94953 0.0
H160 H 0.74559 0.27186 0.95304 0.0
O161 O 0.73608 0.07906 0.97678 0.0
O162 O 0.75034 0.07538 0.03311 0.0
H163 H 0.76581 0.20952 0.09681 0.0
H164 H 0.73373 0.25872 0.09189 0.0
C165 C 0.73561 0.22351 0.0854 0.0
H166 H 0.70686 0.20769 0.09724 0.0
H167 H 0.80103 0.11425 0.09127 0.0
O168 O 0.68998 0.14457 0.92235 0.0
C169 C 0.75445 0.06067 1.00256 0.0
Co170 Co 0.86769 0.69656 0.48946 0.0
Co171 Co 0.86153 0.6833 0.57034 0.0
C172 C 0.88535 0.60946 0.52779 0.0
O173 O 0.88314 0.63521 0.50179 0.0
O174 O 0.8762 0.62224 0.55843 0.0
C175 C 0.87401 0.67242 0.41722 0.0
O176 O 0.89904 0.64081 0.42894 0.0
C177 C 0.84296 0.67488 0.64665 0.0
C178 C 0.85456 0.74399 0.66056 0.0
C179 C 0.84165 0.7043 0.67439 0.0
N180 N 0.85532 0.69696 0.61811 0.0
N181 N 0.86259 0.738 0.62687 0.0
C182 C 0.83078 0.62756 0.64637 0.0
H183 H 0.8282 0.61522 0.61943 0.0
H184 H 0.79926 0.62265 0.66005 0.0
H185 H 0.8565 0.60845 0.65985 0.0
C186 C 0.77384 0.71815 0.50034 0.0
N187 N 0.81446 0.71034 0.51255 0.0
N188 N 0.81197 0.703 0.54603 0.0
C189 C 0.77007 0.7061 0.55629 0.0
C190 C 0.74432 0.71571 0.5277 0.0
C191 C 0.76327 0.72423 0.46284 0.0
H192 H 0.78721 0.74693 0.45097 0.0
H193 H 0.76597 0.6923 0.44938 0.0
H194 H 0.72971 0.73735 0.4593 0.0
O195 O 0.91894 0.7341 0.5029 0.0
O196 O 0.9129 0.71685 0.55805 0.0
H197 H 0.76522 0.718 0.61067 0.0
H198 H 0.7187 0.6893 0.59302 0.0
C199 C 0.75467 0.69304 0.59159 0.0
H200 H 0.76988 0.66149 0.59871 0.0
H201 H 0.87214 0.76229 0.60951 0.0
O202 O 0.85825 0.70008 0.43843 0.0
C203 C 0.93334 0.73568 0.5338 0.0
Co204 Co 0.32204 0.87167 0.97342 0.0
Co205 Co 0.29602 0.8702 0.0525 0.0
C206 C 0.38757 0.8936 0.02368 0.0
O207 O 0.3799 0.88354 0.99224 0.0
O208 O 0.3582 0.89007 0.04704 0.0
C209 C 0.35331 0.86244 0.901 0.0
O210 O 0.3918 0.85194 0.91363 0.0
C211 C 0.30995 0.83687 0.12341 0.0
C212 C 0.252 0.86295 0.1506 0.0
C213 C 0.2897 0.83858 0.15571 0.0
N214 N 0.2851 0.85892 0.10052 0.0
N215 N 0.2505 0.87432 0.11696 0.0
C216 C 0.35317 0.81675 0.11454 0.0
H217 H 0.34899 0.78104 0.11094 0.0
H218 H 0.3771 0.82228 0.1357 0.0
H219 H 0.36609 0.83017 0.09003 0.0
C220 C 0.30032 0.7784 0.98113 0.0
N221 N 0.29986 0.8196 0.99319 0.0
N222 N 0.28506 0.81966 0.0251 0.0
C223 C 0.2729 0.77869 0.03367 0.0
C224 C 0.28276 0.75064 0.00621 0.0
C225 C 0.32415 0.76573 0.94879 0.0
H226 H 0.35144 0.78867 0.94422 0.0
H227 H 0.33789 0.73226 0.95062 0.0
H228 H 0.30142 0.76756 0.92643 0.0
O229 O 0.28889 0.92529 0.986 0.0
O230 O 0.2612 0.9217 0.03883 0.0
H231 H 0.23214 0.79554 0.07693 0.0
H232 H 0.22889 0.73897 0.06381 0.0
C233 C 0.25117 0.76726 0.06716 0.0
H234 H 0.27638 0.75872 0.08666 0.0
H235 H 0.22604 0.89302 0.10528 0.0
O236 O 0.32165 0.87029 0.92149 0.0
C237 C 0.26699 0.94227 0.01063 0.0
Co238 Co 0.13277 0.29348 0.46782 0.0
Co239 Co 0.12246 0.28792 0.54919 0.0
C240 C 0.08703 0.36321 0.51048 0.0
O241 O 0.10099 0.34632 0.48243 0.0
O242 O 0.09453 0.34551 0.53979 0.0
C243 C 0.16015 0.33835 0.4069 0.0
O244 O 0.16493 0.37032 0.42929 0.0
C245 C 0.12351 0.29743 0.62619 0.0
C246 C 0.11434 0.22808 0.64059 0.0
C247 C 0.11848 0.26959 0.65436 0.0
N248 N 0.12234 0.27317 0.59711 0.0
N249 N 0.11709 0.23182 0.60605 0.0
C250 C 0.12672 0.3462 0.62678 0.0
H251 H 0.117 0.36029 0.60153 0.0
H252 H 0.1611 0.35569 0.63198 0.0
H253 H 0.10592 0.35992 0.64768 0.0
C254 C 0.22735 0.28673 0.48862 0.0
N255 N 0.18411 0.28571 0.49596 0.0
N256 N 0.17924 0.28352 0.52977 0.0
C257 C 0.2189 0.28247 0.54496 0.0
C258 C 0.25095 0.28511 0.51955 0.0
C259 C 0.24515 0.29455 0.45306 0.0
H260 H 0.22718 0.27425 0.43401 0.0
H261 H 0.24025 0.32939 0.44624 0.0
H262 H 0.28054 0.28742 0.45128 0.0
O263 O 0.08738 0.24667 0.47229 0.0
O264 O 0.08197 0.24537 0.52946 0.0
H265 H 0.20539 0.2518 0.59356 0.0
H266 H 0.26035 0.27176 0.58986 0.0
C267 C 0.22575 0.27871 0.58324 0.0
H268 H 0.2154 0.30956 0.59589 0.0
H269 H 0.11463 0.20609 0.58842 0.0
O270 O 0.14734 0.30121 0.41767 0.0
C271 C 0.06979 0.23221 0.49989 0.0
H272 H 0.21211 0.993 0.05182 0.0
H273 H 0.30739 0.00048 0.96853 0.0
H274 H 0.31041 0.07994 0.97506 0.0
H275 H 0.15394 0.0937 0.02501 0.0
H276 H 0.14178 0.10954 0.06891 0.0
H277 H 0.14707 0.05257 0.05796 0.0
H278 H 0.20593 0.04423 0.10578 0.0
H279 H 0.20175 0.10152 0.11613 0.0
H280 H 0.25396 0.07831 0.10465 0.0
H281 H 0.31016 0.15645 0.99386 0.0
H282 H 0.28986 0.23095 0.01187 0.0
H283 H 0.18862 0.17848 0.07841 0.0
C284 C 0.23285 0.01152 0.03451 0.0
C285 C 0.25968 0.99018 0.0098 0.0
C286 C 0.28632 0.0157 0.98757 0.0
C287 C 0.2888 0.06099 0.99135 0.0
C288 C 0.26364 0.08071 0.01689 0.0
C289 C 0.23478 0.05732 0.03716 0.0
C290 C 0.20928 0.08779 0.06086 0.0
C291 C 0.1601 0.08579 0.05269 0.0
C292 C 0.21828 0.07732 0.09913 0.0
C293 C 0.22876 0.13169 0.05078 0.0
C294 C 0.26098 0.12629 0.02607 0.0
C295 C 0.2846 0.16129 0.01284 0.0
C296 C 0.27319 0.20338 0.02348 0.0
C297 C 0.23777 0.21019 0.04637 0.0
C298 C 0.21618 0.17392 0.06119 0.0
H299 H 0.99777 0.26519 0.4698 0.0
H300 H 0.04394 0.15778 0.53283 0.0
H301 H 0.9676 0.14024 0.54904 0.0
H302 H 0.9257 0.30275 0.52964 0.0
H303 H 0.88384 0.32068 0.49998 0.0
H304 H 0.93993 0.31849 0.48612 0.0
H305 H 0.91938 0.26758 0.43505 0.0
H306 H 0.86285 0.27078 0.44796 0.0
H307 H 0.88894 0.21827 0.44337 0.0
H308 H 0.88666 0.14024 0.56363 0.0
H309 H 0.80779 0.15492 0.57241 0.0
H310 H 0.81696 0.26825 0.50559 0.0
C311 C 0.99148 0.2363 0.48522 0.0
C312 C 0.02642 0.2115 0.49882 0.0
C313 C 0.01736 0.1759 0.52104 0.0
C314 C 0.97416 0.16615 0.53071 0.0
C315 C 0.94057 0.19292 0.51846 0.0
C316 C 0.94874 0.22708 0.49593 0.0
C317 C 0.90805 0.25442 0.49003 0.0
C318 C 0.91482 0.30187 0.50217 0.0
C319 C 0.89397 0.25264 0.45183 0.0
C320 C 0.87584 0.23066 0.51301 0.0
C321 C 0.89497 0.19499 0.5289 0.0
C322 C 0.87137 0.16804 0.55123 0.0
C323 C 0.82675 0.17698 0.55649 0.0
C324 C 0.80643 0.2129 0.53989 0.0
C325 C 0.83173 0.24057 0.51861 0.0
H326 H 0.70675 0.99141 0.98297 0.0
H327 H 0.83472 0.0288 0.02046 0.0
H328 H 0.85243 0.95098 0.03146 0.0
H329 H 0.68704 0.91963 0.04821 0.0
H330 H 0.65669 0.88016 0.02327 0.0
H331 H 0.65771 0.93642 0.00994 0.0
H332 H 0.68704 0.91418 0.94963 0.0
H333 H 0.68532 0.85756 0.96243 0.0
H334 H 0.73554 0.88086 0.94651 0.0
H335 H 0.85273 0.87052 0.04441 0.0
H336 H 0.83596 0.79367 0.05873 0.0
H337 H 0.70391 0.81097 0.0201 0.0
C338 C 0.73935 0.98279 0.99163 0.0
C339 C 0.77025 0.01555 0.99943 0.0
C340 C 0.81147 0.00377 0.0131 0.0
C341 C 0.82156 0.95976 0.01963 0.0
C342 C 0.78962 0.92827 0.01306 0.0
C343 C 0.74931 0.93924 0.9993 0.0
C344 C 0.71845 0.90048 0.99942 0.0
C345 C 0.67758 0.90975 0.02153 0.0
C346 C 0.70586 0.8875 0.96228 0.0
C347 C 0.74735 0.8662 0.01605 0.0
C348 C 0.78851 0.88265 0.02309 0.0
C349 C 0.82066 0.85729 0.03891 0.0
C350 C 0.81067 0.81388 0.04734 0.0
C351 C 0.76858 0.7965 0.04068 0.0
C352 C 0.73654 0.82319 0.02501 0.0
H353 H 0.99698 0.77122 0.49013 0.0
H354 H 0.96921 0.74031 0.59786 0.0
H355 H 0.04541 0.75375 0.61296 0.0
H356 H 0.09957 0.72453 0.48467 0.0
H357 H 0.12582 0.76691 0.45987 0.0
H358 H 0.06762 0.75908 0.45651 0.0
H359 H 0.05409 0.83976 0.47367 0.0
H360 H 0.11234 0.84816 0.47637 0.0
H361 H 0.078 0.86086 0.51293 0.0
H362 H 0.12522 0.75344 0.61462 0.0
H363 H 0.20453 0.75947 0.60596 0.0
H364 H 0.1825 0.80605 0.50117 0.0
C365 C 0.0067 0.76858 0.517 0.0
C366 C 0.97695 0.75385 0.54254 0.0
C367 C 0.99114 0.75085 0.57751 0.0
C368 C 0.03456 0.75841 0.58654 0.0
C369 C 0.06344 0.77052 0.56066 0.0
C370 C 0.05014 0.77743 0.52689 0.0
C371 C 0.0888 0.7908 0.50457 0.0
C372 C 0.09584 0.75839 0.47464 0.0
C373 C 0.08296 0.83769 0.49109 0.0
C374 C 0.12573 0.78809 0.53088 0.0
C375 C 0.11013 0.77562 0.56286 0.0
C376 C 0.13787 0.76533 0.59022 0.0
C377 C 0.1829 0.76911 0.58511 0.0
C378 C 0.19987 0.78477 0.55339 0.0
C379 C 0.17071 0.79429 0.52586 0.0
H380 H 0.69038 0.50351 0.03255 0.0
H381 H 0.7891 0.50576 0.11349 0.0
H382 H 0.80072 0.42694 0.106 0.0
H383 H 0.64617 0.3928 0.05765 0.0
H384 H 0.63503 0.37875 0.01318 0.0
H385 H 0.63192 0.43491 0.027 0.0
H386 H 0.68689 0.45563 0.97877 0.0
H387 H 0.69152 0.39932 0.96567 0.0
H388 H 0.73977 0.42956 0.97766 0.0
H389 H 0.81258 0.35283 0.08199 0.0
H390 H 0.80592 0.27865 0.05778 0.0
H391 H 0.6928 0.31938 0.99808 0.0
C392 C 0.71313 0.48705 0.04965 0.0
C393 C 0.73889 0.51101 0.07355 0.0
C394 C 0.76864 0.48831 0.09523 0.0
C395 C 0.77602 0.44354 0.09082 0.0
C396 C 0.75238 0.4216 0.06543 0.0
C397 C 0.72 0.44189 0.04636 0.0
C398 C 0.69865 0.40988 0.02145 0.0
C399 C 0.65006 0.40371 0.03036 0.0
C400 C 0.70457 0.4245 0.98365 0.0
C401 C 0.72493 0.36884 0.029 0.0
C402 C 0.75653 0.37698 0.05377 0.0
C403 C 0.78704 0.34557 0.06346 0.0
C404 C 0.78326 0.30372 0.04932 0.0
C405 C 0.74821 0.29314 0.02687 0.0
C406 C 0.7197 0.32654 0.01541 0.0
H407 H 0.50229 0.77137 0.588 0.0
H408 H 0.45629 0.67895 0.51111 0.0
H409 H 0.53259 0.65749 0.49872 0.0
H410 H 0.58568 0.81111 0.53998 0.0
H411 H 0.62445 0.81866 0.57464 0.0
H412 H 0.56677 0.82014 0.5836 0.0
H413 H 0.57505 0.75842 0.62903 0.0
H414 H 0.63313 0.75765 0.62113 0.0
H415 H 0.60176 0.70809 0.61707 0.0
H416 H 0.61375 0.65412 0.48869 0.0
H417 H 0.69411 0.66363 0.48624 0.0
H418 H 0.68645 0.76154 0.56706 0.0
C419 C 0.50813 0.74499 0.56988 0.0
C420 C 0.47339 0.72622 0.55095 0.0
C421 C 0.48247 0.69318 0.52628 0.0
C422 C 0.5257 0.68102 0.51892 0.0
C423 C 0.55938 0.70228 0.53643 0.0
C424 C 0.55109 0.73304 0.56184 0.0
C425 C 0.59294 0.75436 0.57426 0.0
C426 C 0.59239 0.80399 0.56771 0.0
C427 C 0.60121 0.74399 0.61265 0.0
C428 C 0.62587 0.73166 0.55124 0.0
C429 C 0.60598 0.70146 0.5298 0.0
C430 C 0.62972 0.67735 0.5056 0.0
C431 C 0.67517 0.68338 0.50402 0.0
C432 C 0.69611 0.71352 0.52629 0.0
C433 C 0.67102 0.73832 0.54977 0.0
H434 H 0.26837 0.50421 0.07614 0.0
H435 H 0.26371 0.46492 0.96801 0.0
H436 H 0.27585 0.54064 0.95029 0.0
H437 H 0.21478 0.6009 0.06976 0.0
H438 H 0.2488 0.63318 0.09801 0.0
H439 H 0.24569 0.57492 0.10381 0.0
H440 H 0.32971 0.56796 0.09787 0.0
H441 H 0.33334 0.62646 0.09318 0.0
H442 H 0.35664 0.59117 0.06068 0.0
H443 H 0.26744 0.62052 0.94435 0.0
H444 H 0.26436 0.70042 0.94949 0.0
H445 H 0.29193 0.68976 0.05954 0.0
C446 C 0.27174 0.51123 0.04881 0.0
C447 C 0.26414 0.47847 0.02358 0.0
C448 C 0.26871 0.48924 0.988 0.0
C449 C 0.27549 0.53233 0.97752 0.0
C450 C 0.27954 0.56425 1.00285 0.0
C451 C 0.2801 0.55421 0.03773 0.0
C452 C 0.28507 0.59549 0.05927 0.0
C453 C 0.24627 0.60144 0.08418 0.0
C454 C 0.3288 0.59525 0.07891 0.0
C455 C 0.2847 0.63002 0.03101 0.0
C456 C 0.28063 0.61109 0.99878 0.0
C457 C 0.27317 0.63588 0.96918 0.0
C458 C 0.27171 0.68139 0.97236 0.0
C459 C 0.2797 0.70202 1.00458 0.0
C460 C 0.28587 0.67564 0.03438 0.0
H461 H 0.31792 0.23982 0.48839 0.0
H462 H 0.29194 0.34176 0.56355 0.0
H463 H 0.371 0.34665 0.57658 0.0
H464 H 0.40316 0.18675 0.5321 0.0
H465 H 0.43551 0.17618 0.49402 0.0
H466 H 0.37707 0.18133 0.49045 0.0
H467 H 0.38643 0.24275 0.44483 0.0
H468 H 0.445 0.23763 0.44816 0.0
H469 H 0.41924 0.28989 0.45517 0.0
H470 H 0.45281 0.33418 0.5856 0.0
H471 H 0.53079 0.31102 0.58493 0.0
H472 H 0.50335 0.22502 0.49848 0.0
C473 C 0.32897 0.26398 0.50691 0.0
C474 C 0.2988 0.29032 0.52503 0.0
C475 C 0.31451 0.3208 0.54971 0.0
C476 C 0.35935 0.32398 0.55715 0.0
C477 C 0.38826 0.29721 0.53905 0.0
C478 C 0.37372 0.26842 0.51393 0.0
C479 C 0.41142 0.24349 0.49799 0.0
C480 C 0.40648 0.19402 0.50402 0.0
C481 C 0.41578 0.25409 0.45924 0.0
C482 C 0.4493 0.26204 0.51853 0.0
C483 C 0.4354 0.29264 0.5424 0.0
C484 C 0.46424 0.3111 0.56639 0.0
C485 C 0.50837 0.29784 0.5659 0.0
C486 C 0.52319 0.2673 0.54105 0.0
C487 C 0.49321 0.24965 0.51697 0.0
H488 H 0.06551 0.45152 0.09091 0.0
H489 H 0.06805 0.42458 0.98031 0.0
H490 H 0.01057 0.47869 0.97096 0.0
H491 H 0.94627 0.46512 0.09492 0.0
H492 H 0.94905 0.50784 0.12698 0.0
H493 H 0.99095 0.46649 0.12538 0.0
H494 H 0.04959 0.52722 0.12014 0.0
H495 H 0.0077 0.56867 0.12081 0.0
H496 H 0.0459 0.56631 0.08535 0.0
H497 H 0.95699 0.53788 0.97182 0.0
H498 H 0.89731 0.58917 0.98455 0.0
H499 H 0.9244 0.57696 0.09461 0.0
C500 C 0.05348 0.45654 0.06485 0.0
C501 C 0.07185 0.43385 0.03641 0.0
C502 C 0.05494 0.44139 1.00267 0.0
C503 C 0.02241 0.47247 0.99691 0.0
C504 C 0.0064 0.49548 0.02512 0.0
C505 C 0.02022 0.48722 0.05855 0.0
C506 C 0.99541 0.5155 0.08419 0.0
C507 C 0.96883 0.48704 0.10935 0.0
C508 C 0.02652 0.54624 0.10378 0.0
C509 C 0.96582 0.54079 0.05974 0.0
C510 C 0.9735 0.5291 0.02578 0.0
C511 C 0.9503 0.54719 0.99832 0.0
C512 C 0.91659 0.57648 0.00583 0.0
C513 C 0.90604 0.58697 0.04055 0.0
C514 C 0.932 0.56999 0.06779 0.0
H515 H 0.43419 0.94062 0.57333 0.0
H516 H 0.44354 0.89973 0.46584 0.0
H517 H 0.50054 0.95543 0.45596 0.0
H518 H 0.4507 0.05679 0.55798 0.0
H519 H 0.48183 0.06375 0.59723 0.0
H520 H 0.44031 0.0222 0.59483 0.0
H521 H 0.49792 0.96413 0.61257 0.0
H522 H 0.53989 0.00532 0.61411 0.0
H523 H 0.54684 0.95784 0.58703 0.0
H524 H 0.55902 0.01273 0.45865 0.0
H525 H 0.60814 0.0744 0.47149 0.0
H526 H 0.56082 0.07708 0.57747 0.0
C527 C 0.44762 0.94373 0.54751 0.0
C528 C 0.43438 0.91569 0.52036 0.0
C529 C 0.45297 0.92092 0.48703 0.0
C530 C 0.48563 0.95221 0.48123 0.0
C531 C 0.49912 0.97802 0.50897 0.0
C532 C 0.48019 0.97464 0.54129 0.0
C533 C 0.5005 0.00629 0.56675 0.0
C534 C 0.4663 0.03922 0.57996 0.0
C535 C 0.5226 0.98192 0.59689 0.0
C536 C 0.53396 0.02805 0.54369 0.0
C537 C 0.53282 0.01104 0.51054 0.0
C538 C 0.56012 0.02641 0.48448 0.0
C539 C 0.58807 0.06132 0.49211 0.0
C540 C 0.5884 0.08057 0.52552 0.0
C541 C 0.56181 0.06277 0.55184 0.0
H542 H 0.4502 0.9225 0.97844 0.0
H543 H 0.41482 0.92208 0.08738 0.0
H544 H 0.47151 0.97739 0.09894 0.0
H545 H 0.56915 0.93983 0.99191 0.0
H546 H 0.57313 0.97414 0.95414 0.0
H547 H 0.53326 0.93089 0.95555 0.0
H548 H 0.47236 0.98742 0.94208 0.0
H549 H 0.51174 0.03109 0.94176 0.0
H550 H 0.46519 0.03383 0.97028 0.0
H551 H 0.52676 0.03751 0.09774 0.0
H552 H 0.58502 0.09097 0.0854 0.0
H553 H 0.58309 0.05305 0.97708 0.0
C554 C 0.45514 0.93299 1.00493 0.0
C555 C 0.42791 0.91799 0.03198 0.0
C556 C 0.43526 0.93303 0.06621 0.0
C557 C 0.4672 0.96466 0.07302 0.0
C558 C 0.49167 0.98058 0.04539 0.0
C559 C 0.48676 0.96458 0.01218 0.0
C560 C 0.51636 0.9881 0.98694 0.0
C561 C 0.54997 0.95636 0.97122 0.0
C562 C 0.48981 0.01149 0.9586 0.0
C563 C 0.53796 0.02051 0.01104 0.0
C564 C 0.52328 0.01557 0.04464 0.0
C565 C 0.53874 0.04151 0.07158 0.0
C566 C 0.57153 0.07202 0.06425 0.0
C567 C 0.58834 0.07636 0.03024 0.0
C568 C 0.57038 0.05107 1.00319 0.0
H569 H 0.93057 0.55761 0.57385 0.0
H570 H 0.88422 0.56367 0.46768 0.0
H571 H 0.92952 0.49996 0.45293 0.0
H572 H 0.03773 0.53333 0.55563 0.0
H573 H 0.04692 0.49504 0.59034 0.0
H574 H 0.0061 0.53705 0.5949 0.0
H575 H 0.9467 0.47891 0.60741 0.0
H576 H 0.98761 0.43668 0.60382 0.0
H577 H 0.93898 0.43435 0.57749 0.0
H578 H 0.98725 0.44506 0.44703 0.0
H579 H 0.04648 0.3915 0.452 0.0
H580 H 0.05499 0.41669 0.56261 0.0
C581 C 0.92875 0.54445 0.54787 0.0
C582 C 0.90402 0.56564 0.52184 0.0
C583 C 0.90314 0.54809 0.48793 0.0
C584 C 0.92875 0.51192 0.47929 0.0
C585 C 0.95465 0.49331 0.50495 0.0
C586 C 0.95415 0.50804 0.53877 0.0
C587 C 0.98701 0.48311 0.56072 0.0
C588 C 0.02147 0.51399 0.57631 0.0
C589 C 0.96367 0.45668 0.58904 0.0
C590 C 0.00699 0.45333 0.53358 0.0
C591 C 0.98772 0.46004 0.50166 0.0
C592 C 0.00204 0.43876 0.472 0.0
C593 C 0.03616 0.40869 0.47511 0.0
C594 C 0.05546 0.3997 0.50776 0.0
C595 C 0.04082 0.42269 0.53735 0.0
H596 H 0.13601 0.30405 0.20231 0.0
H597 H 0.22107 0.41636 0.18937 0.0
H598 H 0.22898 0.42199 0.25278 0.0
H599 H 0.0801 0.34166 0.27749 0.0
H600 H 0.07756 0.28878 0.29793 0.0
H601 H 0.07935 0.29277 0.25145 0.0
H602 H 0.14764 0.24261 0.25024 0.0
H603 H 0.14605 0.23844 0.29676 0.0
H604 H 0.19504 0.25712 0.27552 0.0
H605 H 0.22434 0.4182 0.31748 0.0
H606 H 0.21028 0.40312 0.37924 0.0
H607 H 0.13095 0.29124 0.35068 0.0
C608 C 0.15641 0.32975 0.21281 0.0
C609 C 0.1778 0.35988 0.19082 0.0
C610 C 0.20441 0.39285 0.20562 0.0
C611 C 0.20909 0.39635 0.24164 0.0
C612 C 0.18737 0.36633 0.26257 0.0
C613 C 0.16187 0.33341 0.24875 0.0
C614 C 0.14203 0.30542 0.2771 0.0
C615 C 0.09178 0.30729 0.27591 0.0
C616 C 0.1587 0.25809 0.27476 0.0
C617 C 0.15979 0.32822 0.30901 0.0
C618 C 0.18579 0.36333 0.29999 0.0
C619 C 0.2044 0.39055 0.32486 0.0
C620 C 0.19611 0.38178 0.35988 0.0
C621 C 0.16975 0.34588 0.36979 0.0
C622 C 0.15171 0.31858 0.34392 0.0
H623 H 0.69452 0.11969 0.85616 0.0
H624 H 0.61506 0.23407 0.87773 0.0
H625 H 0.60685 0.24724 0.81504 0.0
H626 H 0.75009 0.16236 0.78018 0.0
H627 H 0.74874 0.11113 0.75716 0.0
H628 H 0.75011 0.11155 0.8038 0.0
H629 H 0.67974 0.06461 0.80543 0.0
H630 H 0.67814 0.06406 0.75883 0.0
H631 H 0.63154 0.08333 0.78297 0.0
H632 H 0.60708 0.24834 0.74996 0.0
H633 H 0.61266 0.23529 0.68713 0.0
H634 H 0.68933 0.11838 0.70676 0.0
C635 C 0.67569 0.1477 0.84767 0.0
C636 C 0.6556 0.176 0.87201 0.0
C637 C 0.63073 0.2119 0.85973 0.0
C638 C 0.62596 0.21974 0.8241 0.0
C639 C 0.6459 0.19118 0.80083 0.0
C640 C 0.67006 0.1557 0.81205 0.0
C641 C 0.68661 0.12913 0.78146 0.0
C642 C 0.73688 0.12852 0.78061 0.0
C643 C 0.66788 0.08252 0.78223 0.0
C644 C 0.66802 0.15524 0.75136 0.0
C645 C 0.64496 0.19109 0.76319 0.0
C646 C 0.62499 0.22031 0.74043 0.0
C647 C 0.62842 0.21261 0.70468 0.0
C648 C 0.65132 0.17574 0.69177 0.0
C649 C 0.67144 0.14679 0.71565 0.0
H650 H 0.89736 0.61498 0.36582 0.0
H651 H 0.82499 0.73493 0.3842 0.0
H652 H 0.805 0.73785 0.32228 0.0
H653 H 0.93959 0.64396 0.28168 0.0
H654 H 0.93399 0.5895 0.26446 0.0
H655 H 0.94328 0.59736 0.31009 0.0
H656 H 0.87346 0.55276 0.32391 0.0
H657 H 0.86391 0.54481 0.27833 0.0
H658 H 0.822 0.56893 0.30501 0.0
H659 H 0.79216 0.72719 0.25839 0.0
H660 H 0.78727 0.7037 0.19737 0.0
H661 H 0.86761 0.59041 0.2209 0.0
C662 C 0.87751 0.64203 0.35684 0.0
C663 C 0.8629 0.67484 0.3799 0.0
C664 C 0.8367 0.70948 0.36706 0.0
C665 C 0.82515 0.71142 0.33192 0.0
C666 C 0.83998 0.67846 0.30995 0.0
C667 C 0.86557 0.64441 0.3219 0.0
C668 C 0.87666 0.61276 0.29303 0.0
C669 C 0.92633 0.6108 0.28696 0.0
C670 C 0.85788 0.56712 0.30053 0.0
C671 C 0.85332 0.63432 0.26294 0.0
C672 C 0.83238 0.67219 0.27323 0.0
C673 C 0.80846 0.69761 0.25003 0.0
C674 C 0.80586 0.68396 0.21541 0.0
C675 C 0.82703 0.64519 0.20427 0.0
C676 C 0.85107 0.62021 0.22851 0.0
H677 H 0.39698 0.82006 0.84853 0.0
H678 H 0.29558 0.91618 0.86816 0.0
H679 H 0.28681 0.92754 0.80522 0.0
H680 H 0.44583 0.8717 0.77511 0.0
H681 H 0.45514 0.82162 0.75167 0.0
H682 H 0.45393 0.8212 0.79828 0.0
H683 H 0.39321 0.76225 0.79717 0.0
H684 H 0.39435 0.76236 0.75054 0.0
H685 H 0.3437 0.77232 0.77306 0.0
H686 H 0.29253 0.93213 0.7405 0.0
H687 H 0.3064 0.92366 0.67781 0.0
H688 H 0.39923 0.81993 0.69943 0.0
C689 C 0.37294 0.84346 0.83951 0.0
C690 C 0.34714 0.86749 0.86319 0.0
C691 C 0.31561 0.89738 0.85045 0.0
C692 C 0.31051 0.90417 0.81477 0.0
C693 C 0.3366 0.8802 0.79209 0.0
C694 C 0.36667 0.84989 0.80387 0.0
C695 C 0.38951 0.82741 0.77387 0.0
C696 C 0.43904 0.83602 0.7748 0.0
C697 C 0.37958 0.77816 0.77366 0.0
C698 C 0.36806 0.85032 0.74344 0.0
C699 C 0.33802 0.88102 0.75459 0.0
C700 C 0.31557 0.90783 0.73144 0.0
C701 C 0.32381 0.90295 0.69592 0.0
C702 C 0.35361 0.87098 0.68386 0.0
C703 C 0.37585 0.84424 0.70798 0.0
H704 H 0.78872 0.58527 0.85513 0.0
H705 H 0.7605 0.71423 0.89586 0.0
H706 H 0.77555 0.74663 0.83845 0.0
H707 H 0.87889 0.61922 0.80083 0.0
H708 H 0.86609 0.58156 0.7664 0.0
H709 H 0.85182 0.56832 0.81039 0.0
H710 H 0.77109 0.5576 0.79179 0.0
H711 H 0.78508 0.57118 0.74779 0.0
H712 H 0.74283 0.60134 0.76989 0.0
H713 H 0.79188 0.76459 0.77761 0.0
H714 H 0.81355 0.7691 0.71676 0.0
H715 H 0.83678 0.62878 0.71557 0.0
C716 C 0.78578 0.62028 0.8517 0.0
C717 C 0.7737 0.64758 0.8795 0.0
C718 C 0.77014 0.69317 0.87463 0.0
C719 C 0.77839 0.7117 0.84222 0.0
C720 C 0.7904 0.68405 0.8152 0.0
C721 C 0.79458 0.63942 0.81955 0.0
C722 C 0.80953 0.61758 0.78635 0.0
C723 C 0.85424 0.59537 0.7913 0.0
C724 C 0.77507 0.585 0.77319 0.0
C725 C 0.81286 0.65695 0.7627 0.0
C726 C 0.80124 0.69476 0.77994 0.0
C727 C 0.80126 0.73526 0.76382 0.0
C728 C 0.81382 0.73736 0.72914 0.0
C729 C 0.82667 0.69924 0.71075 0.0
C730 C 0.82617 0.65848 0.72802 0.0
H731 H 0.30598 0.82759 0.36192 0.0
H732 H 0.38552 0.71093 0.34939 0.0
H733 H 0.37894 0.71748 0.28615 0.0
H734 H 0.23346 0.80826 0.2921 0.0
H735 H 0.23019 0.86462 0.27878 0.0
H736 H 0.24126 0.85133 0.32335 0.0
H737 H 0.31213 0.8976 0.32143 0.0
H738 H 0.3011 0.91132 0.27691 0.0
H739 H 0.35253 0.88654 0.2886 0.0
H740 H 0.36133 0.73447 0.22446 0.0
H741 H 0.3365 0.76281 0.16827 0.0
H742 H 0.27334 0.87174 0.22015 0.0
C743 C 0.32309 0.80405 0.34612 0.0
C744 C 0.34697 0.76914 0.36097 0.0
C745 C 0.36704 0.73804 0.33882 0.0
C746 C 0.36363 0.74149 0.30278 0.0
C747 C 0.34012 0.77634 0.28907 0.0
C748 C 0.32041 0.80725 0.30996 0.0
C749 C 0.29686 0.84139 0.28844 0.0
C750 C 0.24752 0.84137 0.29613 0.0
C751 C 0.31686 0.88691 0.29419 0.0
C752 C 0.30626 0.82458 0.25227 0.0
C753 C 0.33113 0.78694 0.25327 0.0
C754 C 0.34267 0.7645 0.22326 0.0
C755 C 0.32888 0.78128 0.19129 0.0
C756 C 0.30439 0.82053 0.18947 0.0
C757 C 0.29258 0.84202 0.22055 0.0
H758 H 0.16741 0.32915 0.69116 0.0
H759 H 0.06609 0.23098 0.7019 0.0
H760 H 0.06625 0.24189 0.76519 0.0
H761 H 0.22752 0.2987 0.76357 0.0
H762 H 0.24258 0.35328 0.77642 0.0
H763 H 0.2313 0.34153 0.73166 0.0
H764 H 0.1724 0.40246 0.7304 0.0
H765 H 0.1838 0.41474 0.77515 0.0
H766 H 0.12883 0.40179 0.7618 0.0
H767 H 0.08232 0.25797 0.8271 0.0
H768 H 0.1123 0.27927 0.88375 0.0
H769 H 0.20139 0.36905 0.83305 0.0
C770 C 0.14419 0.3111 0.70666 0.0
C771 C 0.11611 0.27985 0.69163 0.0
C772 C 0.08767 0.25531 0.713 0.0
C773 C 0.08739 0.26137 0.7489 0.0
C774 C 0.11581 0.29207 0.76301 0.0
C775 C 0.14355 0.31671 0.7426 0.0
C776 C 0.17295 0.34532 0.76452 0.0
C777 C 0.22144 0.334 0.75869 0.0
C778 C 0.16394 0.39397 0.75755 0.0
C779 C 0.15801 0.33217 0.80038 0.0
C780 C 0.12482 0.30168 0.79892 0.0
C781 C 0.1075 0.28271 0.82866 0.0
C782 C 0.12445 0.2954 0.86083 0.0
C783 C 0.15813 0.32699 0.86296 0.0
C784 C 0.17511 0.34537 0.83225 0.0
H785 H 0.6797 0.11344 0.20698 0.0
H786 H 0.79283 0.19611 0.18984 0.0
H787 H 0.78432 0.22744 0.24818 0.0
H788 H 0.61637 0.19136 0.25636 0.0
H789 H 0.59504 0.15138 0.28614 0.0
H790 H 0.60938 0.13546 0.2427 0.0
H791 H 0.66094 0.07569 0.26707 0.0
H792 H 0.64689 0.09155 0.3106 0.0
H793 H 0.70335 0.09074 0.29724 0.0
H794 H 0.76281 0.2519 0.30664 0.0
H795 H 0.73159 0.26551 0.36446 0.0
H796 H 0.6341 0.16512 0.34653 0.0
C797 C 0.70239 0.13833 0.21555 0.0
C798 C 0.73678 0.15262 0.19388 0.0
C799 C 0.76639 0.18463 0.20611 0.0
C800 C 0.76174 0.20273 0.23914 0.0
C801 C 0.72763 0.18807 0.25989 0.0
C802 C 0.69862 0.15638 0.24886 0.0
C803 C 0.6655 0.14602 0.27698 0.0
C804 C 0.6188 0.1567 0.26481 0.0
C805 C 0.66942 0.09815 0.28866 0.0
C806 C 0.68034 0.17712 0.30529 0.0
C807 C 0.71608 0.20119 0.29461 0.0
C808 C 0.73504 0.23306 0.31546 0.0
C809 C 0.71702 0.24064 0.34817 0.0
C810 C 0.68079 0.2161 0.35997 0.0
C811 C 0.66228 0.18379 0.33829 0.0
loop_
_geom_bond_atom_site_label_1
_geom_bond_atom_site_label_2
_geom_bond_distance
_geom_bond_site_symmetry_2
_ccdc_geom_bond_type
Co0 O3 1.970 . S
Co0 N17 1.989 . S
Co0 O25 1.967 . S
Co0 O32 1.920 . S
Co1 O4 1.966 1_556 S
Co1 N10 2.022 . S
Co1 N18 1.993 1_556 S
Co1 O26 1.941 1_556 S
C2 O3 1.258 . S
C2 O4 1.263 . S
O3 Co0 1.970 . S
O3 C2 1.258 . S
O4 Co1 1.966 1_554 S
O4 C2 1.263 . S
C5 O6 1.235 . S
C5 O32 1.289 . S
O6 C5 1.235 . S
C7 C9 1.400 . S
C7 N10 1.351 . S
C7 C12 1.501 . S
C8 C9 1.387 . S
C8 N11 1.341 . S
C9 C7 1.400 . S
C9 C8 1.387 . S
N10 Co1 2.022 . S
N10 C7 1.351 . S
N10 N11 1.365 . S
N11 C8 1.341 . S
N11 N10 1.365 . S
N11 H31 0.862 . S
C12 C7 1.501 . S
C12 H13 0.961 . S
C12 H14 0.961 . S
C12 H15 0.960 . S
H13 C12 0.961 . S
H14 C12 0.961 . S
H15 C12 0.960 . S
C16 N17 1.342 . S
C16 C20 1.401 . S
C16 C21 1.499 . S
N17 Co0 1.989 . S
N17 C16 1.342 . S
N17 N18 1.388 . S
N18 Co1 1.993 1_554 S
N18 N17 1.388 . S
N18 C19 1.346 . S
C19 N18 1.346 . S
C19 C20 1.396 . S
C19 C29 1.510 1_554 S
C20 C16 1.401 . S
C20 C19 1.396 . S
C21 C16 1.499 . S
C21 H22 0.959 . S
C21 H23 0.960 . S
C21 H24 0.961 . S
H22 C21 0.959 . S
H23 C21 0.960 . S
H24 C21 0.961 . S
O25 Co0 1.967 . S
O25 C33 1.258 . S
O26 Co1 1.941 1_554 S
O26 C33 1.266 . S
H27 C29 0.959 . S
H28 C29 0.961 . S
C29 C19 1.510 1_556 S
C29 H27 0.959 . S
C29 H28 0.961 . S
C29 H30 0.960 . S
H30 C29 0.960 . S
H31 N11 0.862 . S
O32 Co0 1.920 . S
O32 C5 1.289 . S
C33 O25 1.258 . S
C33 O26 1.266 . S
Co34 O37 1.970 . S
Co34 N51 1.989 . S
Co34 O59 1.967 . S
Co34 O66 1.920 . S
Co35 O38 1.966 . S
Co35 N44 2.022 . S
Co35 N52 1.993 . S
Co35 O60 1.941 . S
C36 O37 1.258 . S
C36 O38 1.263 . S
O37 Co34 1.970 . S
O37 C36 1.258 . S
O38 Co35 1.966 . S
O38 C36 1.263 . S
C39 O40 1.235 . S
C39 O66 1.289 . S
O40 C39 1.235 . S
C41 C43 1.400 . S
C41 N44 1.351 . S
C41 C46 1.501 . S
C42 C43 1.387 . S
C42 N45 1.341 . S
C43 C41 1.400 . S
C43 C42 1.387 . S
N44 Co35 2.022 . S
N44 C41 1.351 . S
N44 N45 1.365 . S
N45 C42 1.341 . S
N45 N44 1.365 . S
N45 H65 0.862 . S
C46 C41 1.501 . S
C46 H47 0.961 . S
C46 H48 0.961 . S
C46 H49 0.960 . S
H47 C46 0.961 . S
H48 C46 0.961 . S
H49 C46 0.960 . S
C50 N51 1.342 . S
C50 C54 1.401 . S
C50 C55 1.499 . S
N51 Co34 1.989 . S
N51 C50 1.342 . S
N51 N52 1.388 . S
N52 Co35 1.993 . S
N52 N51 1.388 . S
N52 C53 1.346 . S
C53 N52 1.346 . S
C53 C54 1.396 . S
C53 C63 1.510 . S
C54 C50 1.401 . S
C54 C53 1.396 . S
C55 C50 1.499 . S
C55 H56 0.959 . S
C55 H57 0.960 . S
C55 H58 0.961 . S
H56 C55 0.959 . S
H57 C55 0.960 . S
H58 C55 0.961 . S
O59 Co34 1.967 . S
O59 C67 1.258 . S
O60 Co35 1.941 . S
O60 C67 1.266 . S
H61 C63 0.959 . S
H62 C63 0.961 . S
C63 C53 1.510 . S
C63 H61 0.959 . S
C63 H62 0.961 . S
C63 H64 0.960 . S
H64 C63 0.960 . S
H65 N45 0.862 . S
O66 Co34 1.920 . S
O66 C39 1.289 . S
C67 O59 1.258 . S
C67 O60 1.266 . S
Co68 O71 1.970 . S
Co68 N85 1.989 . S
Co68 O93 1.967 . S
Co68 O100 1.920 . S
Co69 O72 1.966 1_556 S
Co69 N78 2.022 . S
Co69 N86 1.993 1_556 S
Co69 O94 1.941 1_556 S
C70 O71 1.258 . S
C70 O72 1.263 . S
O71 Co68 1.970 . S
O71 C70 1.258 . S
O72 Co69 1.966 1_554 S
O72 C70 1.263 . S
C73 O74 1.235 . S
C73 O100 1.289 . S
O74 C73 1.235 . S
C75 C77 1.400 . S
C75 N78 1.351 . S
C75 C80 1.501 . S
C76 C77 1.387 . S
C76 N79 1.341 . S
C77 C75 1.400 . S
C77 C76 1.387 . S
N78 Co69 2.022 . S
N78 C75 1.351 . S
N78 N79 1.365 . S
N79 C76 1.341 . S
N79 N78 1.365 . S
N79 H99 0.862 . S
C80 C75 1.501 . S
C80 H81 0.961 . S
C80 H82 0.961 . S
C80 H83 0.960 . S
H81 C80 0.961 . S
H82 C80 0.961 . S
H83 C80 0.960 . S
C84 N85 1.342 . S
C84 C88 1.401 . S
C84 C89 1.499 . S
N85 Co68 1.989 . S
N85 C84 1.342 . S
N85 N86 1.388 . S
N86 Co69 1.993 1_554 S
N86 N85 1.388 . S
N86 C87 1.346 . S
C87 N86 1.346 . S
C87 C88 1.396 . S
C87 C97 1.510 1_554 S
C88 C84 1.401 . S
C88 C87 1.396 . S
C89 C84 1.499 . S
C89 H90 0.959 . S
C89 H91 0.960 . S
C89 H92 0.961 . S
H90 C89 0.959 . S
H91 C89 0.960 . S
H92 C89 0.961 . S
O93 Co68 1.967 . S
O93 C101 1.258 . S
O94 Co69 1.941 1_554 S
O94 C101 1.266 . S
H95 C97 0.959 . S
H96 C97 0.961 . S
C97 C87 1.510 1_556 S
C97 H95 0.959 . S
C97 H96 0.961 . S
C97 H98 0.960 . S
H98 C97 0.960 . S
H99 N79 0.862 . S
O100 Co68 1.920 . S
O100 C73 1.289 . S
C101 O93 1.258 . S
C101 O94 1.266 . S
Co102 O105 1.970 . S
Co102 N119 1.989 . S
Co102 O127 1.967 . S
Co102 O134 1.920 . S
Co103 O106 1.966 . S
Co103 N112 2.022 . S
Co103 N120 1.993 . S
Co103 O128 1.941 . S
C104 O105 1.258 . S
C104 O106 1.263 . S
O105 Co102 1.970 . S
O105 C104 1.258 . S
O106 Co103 1.966 . S
O106 C104 1.263 . S
C107 O108 1.235 . S
C107 O134 1.289 . S
O108 C107 1.235 . S
C109 C111 1.400 . S
C109 N112 1.351 . S
C109 C114 1.501 . S
C110 C111 1.387 . S
C110 N113 1.341 . S
C111 C109 1.400 . S
C111 C110 1.387 . S
N112 Co103 2.022 . S
N112 C109 1.351 . S
N112 N113 1.365 . S
N113 C110 1.341 . S
N113 N112 1.365 . S
N113 H133 0.862 . S
C114 C109 1.501 . S
C114 H115 0.961 . S
C114 H116 0.961 . S
C114 H117 0.960 . S
H115 C114 0.961 . S
H116 C114 0.961 . S
H117 C114 0.960 . S
C118 N119 1.342 . S
C118 C122 1.401 . S
C118 C123 1.499 . S
N119 Co102 1.989 . S
N119 C118 1.342 . S
N119 N120 1.388 . S
N120 Co103 1.993 . S
N120 N119 1.388 . S
N120 C121 1.346 . S
C121 N120 1.346 . S
C121 C122 1.396 . S
C121 C131 1.510 . S
C122 C118 1.401 . S
C122 C121 1.396 . S
C123 C118 1.499 . S
C123 H124 0.959 . S
C123 H125 0.960 . S
C123 H126 0.961 . S
H124 C123 0.959 . S
H125 C123 0.960 . S
H126 C123 0.961 . S
O127 Co102 1.967 . S
O127 C135 1.258 . S
O128 Co103 1.941 . S
O128 C135 1.266 . S
H129 C131 0.959 . S
H130 C131 0.961 . S
C131 C121 1.510 . S
C131 H129 0.959 . S
C131 H130 0.961 . S
C131 H132 0.960 . S
H132 C131 0.960 . S
H133 N113 0.862 . S
O134 Co102 1.920 . S
O134 C107 1.289 . S
C135 O127 1.258 . S
C135 O128 1.266 . S
Co136 O139 1.970 . S
Co136 N153 1.975 1_556 S
Co136 O161 1.967 . S
Co136 O168 1.920 . S
Co137 O140 1.966 . S
Co137 N146 2.022 . S
Co137 N154 1.993 . S
Co137 O162 1.941 . S
C138 O139 1.258 1_554 S
C138 O140 1.263 . S
O139 Co136 1.970 . S
O139 C138 1.258 1_556 S
O140 Co137 1.966 . S
O140 C138 1.263 . S
C141 O142 1.235 . S
C141 O168 1.289 . S
O142 C141 1.235 . S
C143 C145 1.400 . S
C143 N146 1.351 . S
C143 C148 1.501 . S
C144 C145 1.387 . S
C144 N147 1.341 . S
C145 C143 1.400 . S
C145 C144 1.387 . S
N146 Co137 2.022 . S
N146 C143 1.351 . S
N146 N147 1.365 . S
N147 C144 1.341 . S
N147 N146 1.365 . S
N147 H167 0.862 . S
C148 C143 1.501 . S
C148 H149 0.961 . S
C148 H150 0.961 . S
C148 H151 0.960 . S
H149 C148 0.961 . S
H150 C148 0.961 . S
H151 C148 0.960 . S
C152 N153 1.333 1_556 S
C152 C156 1.401 1_556 S
C152 C157 1.499 . S
N153 Co136 1.975 1_554 S
N153 C152 1.333 1_554 S
N153 N154 1.419 . S
N154 Co137 1.993 . S
N154 N153 1.419 . S
N154 C155 1.346 . S
C155 N154 1.346 . S
C155 C156 1.396 . S
C155 C165 1.510 . S
C156 C152 1.401 1_554 S
C156 C155 1.396 . S
C157 C152 1.499 . S
C157 H158 0.959 . S
C157 H159 0.960 . S
C157 H160 0.961 . S
H158 C157 0.959 . S
H159 C157 0.960 . S
H160 C157 0.961 . S
O161 Co136 1.967 . S
O161 C169 1.258 1_556 S
O162 Co137 1.941 . S
O162 C169 1.266 . S
H163 C165 0.959 . S
H164 C165 0.961 . S
C165 C155 1.510 . S
C165 H163 0.959 . S
C165 H164 0.961 . S
C165 H166 0.960 . S
H166 C165 0.960 . S
H167 N147 0.862 . S
O168 Co136 1.920 . S
O168 C141 1.289 . S
C169 O161 1.258 1_554 S
C169 O162 1.266 . S
Co170 O173 1.970 . S
Co170 N187 1.989 . S
Co170 O195 1.967 . S
Co170 O202 1.920 . S
Co171 O174 1.966 . S
Co171 N180 2.022 . S
Co171 N188 1.993 . S
Co171 O196 1.941 . S
C172 O173 1.258 . S
C172 O174 1.263 . S
O173 Co170 1.970 . S
O173 C172 1.258 . S
O174 Co171 1.966 . S
O174 C172 1.263 . S
C175 O176 1.235 . S
C175 O202 1.289 . S
O176 C175 1.235 . S
C177 C179 1.400 . S
C177 N180 1.351 . S
C177 C182 1.501 . S
C178 C179 1.387 . S
C178 N181 1.341 . S
C179 C177 1.400 . S
C179 C178 1.387 . S
N180 Co171 2.022 . S
N180 C177 1.351 . S
N180 N181 1.365 . S
N181 C178 1.341 . S
N181 N180 1.365 . S
N181 H201 0.862 . S
C182 C177 1.501 . S
C182 H183 0.961 . S
C182 H184 0.961 . S
C182 H185 0.960 . S
H183 C182 0.961 . S
H184 C182 0.961 . S
H185 C182 0.960 . S
C186 N187 1.342 . S
C186 C190 1.401 . S
C186 C191 1.499 . S
N187 Co170 1.989 . S
N187 C186 1.342 . S
N187 N188 1.388 . S
N188 Co171 1.993 . S
N188 N187 1.388 . S
N188 C189 1.346 . S
C189 N188 1.346 . S
C189 C190 1.396 . S
C189 C199 1.510 . S
C190 C186 1.401 . S
C190 C189 1.396 . S
C191 C186 1.499 . S
C191 H192 0.959 . S
C191 H193 0.960 . S
C191 H194 0.961 . S
H192 C191 0.959 . S
H193 C191 0.960 . S
H194 C191 0.961 . S
O195 Co170 1.967 . S
O195 C203 1.258 . S
O196 Co171 1.941 . S
O196 C203 1.266 . S
H197 C199 0.959 . S
H198 C199 0.961 . S
C199 C189 1.510 . S
C199 H197 0.959 . S
C199 H198 0.961 . S
C199 H200 0.960 . S
H200 C199 0.960 . S
H201 N181 0.862 . S
O202 Co170 1.920 . S
O202 C175 1.289 . S
C203 O195 1.258 . S
C203 O196 1.266 . S
Co204 O207 1.970 . S
Co204 N221 1.975 1_556 S
Co204 O229 1.967 . S
Co204 O236 1.920 . S
Co205 O208 1.966 . S
Co205 N214 2.022 . S
Co205 N222 1.993 . S
Co205 O230 1.941 . S
C206 O207 1.258 1_554 S
C206 O208 1.263 . S
O207 Co204 1.970 . S
O207 C206 1.258 1_556 S
O208 Co205 1.966 . S
O208 C206 1.263 . S
C209 O210 1.235 . S
C209 O236 1.289 . S
O210 C209 1.235 . S
C211 C213 1.400 . S
C211 N214 1.351 . S
C211 C216 1.501 . S
C212 C213 1.387 . S
C212 N215 1.341 . S
C213 C211 1.400 . S
C213 C212 1.387 . S
N214 Co205 2.022 . S
N214 C211 1.351 . S
N214 N215 1.365 . S
N215 C212 1.341 . S
N215 N214 1.365 . S
N215 H235 0.862 . S
C216 C211 1.501 . S
C216 H217 0.961 . S
C216 H218 0.961 . S
C216 H219 0.960 . S
H217 C216 0.961 . S
H218 C216 0.961 . S
H219 C216 0.960 . S
C220 N221 1.333 1_556 S
C220 C224 1.401 1_556 S
C220 C225 1.499 . S
N221 Co204 1.975 1_554 S
N221 C220 1.333 1_554 S
N221 N222 1.419 . S
N222 Co205 1.993 . S
N222 N221 1.419 . S
N222 C223 1.346 . S
C223 N222 1.346 . S
C223 C224 1.396 . S
C223 C233 1.510 . S
C224 C220 1.401 1_554 S
C224 C223 1.396 . S
C225 C220 1.499 . S
C225 H226 0.959 . S
C225 H227 0.960 . S
C225 H228 0.961 . S
H226 C225 0.959 . S
H227 C225 0.960 . S
H228 C225 0.961 . S
O229 Co204 1.967 . S
O229 C237 1.258 1_556 S
O230 Co205 1.941 . S
O230 C237 1.266 . S
H231 C233 0.959 . S
H232 C233 0.961 . S
C233 C223 1.510 . S
C233 H231 0.959 . S
C233 H232 0.961 . S
C233 H234 0.960 . S
H234 C233 0.960 . S
H235 N215 0.862 . S
O236 Co204 1.920 . S
O236 C209 1.289 . S
C237 O229 1.258 1_554 S
C237 O230 1.266 . S
Co238 O241 1.970 . S
Co238 N255 1.989 . S
Co238 O263 1.967 . S
Co238 O270 1.920 . S
Co239 O242 1.966 . S
Co239 N248 2.022 . S
Co239 N256 1.993 . S
Co239 O264 1.941 . S
C240 O241 1.258 . S
C240 O242 1.263 . S
O241 Co238 1.970 . S
O241 C240 1.258 . S
O242 Co239 1.966 . S
O242 C240 1.263 . S
C243 O244 1.235 . S
C243 O270 1.289 . S
O244 C243 1.235 . S
C245 C247 1.400 . S
C245 N248 1.351 . S
C245 C250 1.501 . S
C246 C247 1.387 . S
C246 N249 1.341 . S
C247 C245 1.400 . S
C247 C246 1.387 . S
N248 Co239 2.022 . S
N248 C245 1.351 . S
N248 N249 1.365 . S
N249 C246 1.341 . S
N249 N248 1.365 . S
N249 H269 0.862 . S
C250 C245 1.501 . S
C250 H251 0.961 . S
C250 H252 0.961 . S
C250 H253 0.960 . S
H251 C250 0.961 . S
H252 C250 0.961 . S
H253 C250 0.960 . S
C254 N255 1.342 . S
C254 C258 1.401 . S
C254 C259 1.499 . S
N255 Co238 1.989 . S
N255 C254 1.342 . S
N255 N256 1.388 . S
N256 Co239 1.993 . S
N256 N255 1.388 . S
N256 C257 1.346 . S
C257 N256 1.346 . S
C257 C258 1.396 . S
C257 C267 1.510 . S
C258 C254 1.401 . S
C258 C257 1.396 . S
C259 C254 1.499 . S
C259 H260 0.959 . S
C259 H261 0.960 . S
C259 H262 0.961 . S
H260 C259 0.959 . S
H261 C259 0.960 . S
H262 C259 0.961 . S
O263 Co238 1.967 . S
O263 C271 1.258 . S
O264 Co239 1.941 . S
O264 C271 1.266 . S
H265 C267 0.959 . S
H266 C267 0.961 . S
C267 C257 1.510 . S
C267 H265 0.959 . S
C267 H266 0.961 . S
C267 H268 0.960 . S
H268 C267 0.960 . S
H269 N249 0.862 . S
O270 Co238 1.920 . S
O270 C243 1.289 . S
C271 O263 1.258 . S
C271 O264 1.266 . S
H272 C284 0.930 . S
H273 C286 0.930 . S
H274 C287 0.930 . S
H275 C291 0.959 . S
H276 C291 0.959 . S
H277 C291 0.961 . S
H278 C292 0.960 . S
H279 C292 0.961 . S
H280 C292 0.959 . S
H281 C295 0.929 . S
H282 C296 0.931 . S
H283 C298 0.930 . S
C284 H272 0.930 . S
C284 C285 1.410 . S
C284 C289 1.399 . S
C285 C284 1.410 . S
C285 C286 1.385 1_554 S
C286 H273 0.930 . S
C286 C285 1.385 1_556 S
C286 C287 1.388 . S
C287 H274 0.930 . S
C287 C286 1.388 . S
C287 C288 1.390 1_556 S
C288 C287 1.390 1_554 S
C288 C289 1.394 . S
C288 C294 1.465 . S
C289 C284 1.399 . S
C289 C288 1.394 . S
C289 C290 1.516 . S
C290 C289 1.516 . S
C290 C291 1.502 . S
C290 C292 1.561 . S
C290 C293 1.526 . S
C291 H275 0.959 . S
C291 H276 0.959 . S
C291 H277 0.961 . S
C291 C290 1.502 . S
C292 H278 0.960 . S
C292 H279 0.961 . S
C292 H280 0.959 . S
C292 C290 1.561 . S
C293 C290 1.526 . S
C293 C294 1.396 . S
C293 C298 1.390 . S
C294 C288 1.465 . S
C294 C293 1.396 . S
C294 C295 1.399 1_554 S
C295 H281 0.929 . S
C295 C294 1.399 1_556 S
C295 C296 1.385 . S
C296 H282 0.931 . S
C296 C295 1.385 . S
C296 C297 1.389 1_556 S
C297 C296 1.389 1_554 S
C297 C298 1.387 . S
C298 H283 0.930 . S
C298 C293 1.390 . S
C298 C297 1.387 . S
H299 C311 0.930 . S
H300 C313 0.930 1_455 S
H301 C314 0.930 . S
H302 C318 0.959 . S
H303 C318 0.959 . S
H304 C318 0.961 . S
H305 C319 0.960 . S
H306 C319 0.961 . S
H307 C319 0.959 . S
H308 C322 0.929 . S
H309 C323 0.931 . S
H310 C325 0.930 . S
C311 H299 0.930 . S
C311 C312 1.389 1_655 S
C311 C316 1.399 . S
C312 C311 1.389 1_455 S
C312 C313 1.374 1_455 S
C313 H300 0.930 1_655 S
C313 C312 1.374 1_655 S
C313 C314 1.388 . S
C314 H301 0.930 . S
C314 C313 1.388 . S
C314 C315 1.390 . S
C315 C314 1.390 . S
C315 C316 1.394 . S
C315 C321 1.465 . S
C316 C311 1.399 . S
C316 C315 1.394 . S
C316 C317 1.516 . S
C317 C316 1.516 . S
C317 C318 1.502 . S
C317 C319 1.561 . S
C317 C320 1.526 . S
C318 H302 0.959 . S
C318 H303 0.959 . S
C318 H304 0.961 . S
C318 C317 1.502 . S
C319 H305 0.960 . S
C319 H306 0.961 . S
C319 H307 0.959 . S
C319 C317 1.561 . S
C320 C317 1.526 . S
C320 C321 1.396 . S
C320 C325 1.390 . S
C321 C315 1.465 . S
C321 C320 1.396 . S
C321 C322 1.399 . S
C322 H308 0.929 . S
C322 C321 1.399 . S
C322 C323 1.385 . S
C323 H309 0.931 . S
C323 C322 1.385 . S
C323 C324 1.389 . S
C324 C323 1.389 . S
C324 C325 1.387 . S
C325 H310 0.930 . S
C325 C320 1.390 . S
C325 C324 1.387 . S
H326 C338 0.930 . S
H327 C340 0.930 1_545 S
H328 C341 0.930 . S
H329 C345 0.959 . S
H330 C345 0.959 . S
H331 C345 0.961 . S
H332 C346 0.960 . S
H333 C346 0.961 . S
H334 C346 0.959 . S
H335 C349 0.929 . S
H336 C350 0.931 . S
H337 C352 0.930 1_556 S
C338 H326 0.930 . S
C338 C339 1.388 1_566 S
C338 C343 1.399 1_556 S
C339 C338 1.388 1_544 S
C339 C340 1.373 1_545 S
C340 H327 0.930 1_565 S
C340 C339 1.373 1_565 S
C340 C341 1.388 . S
C341 H328 0.930 . S
C341 C340 1.388 . S
C341 C342 1.390 . S
C342 C341 1.390 . S
C342 C343 1.394 . S
C342 C348 1.465 . S
C343 C338 1.399 1_554 S
C343 C342 1.394 . S
C343 C344 1.516 1_554 S
C344 C343 1.516 1_556 S
C344 C345 1.502 . S
C344 C346 1.561 . S
C344 C347 1.526 1_556 S
C345 H329 0.959 . S
C345 H330 0.959 . S
C345 H331 0.961 . S
C345 C344 1.502 . S
C346 H332 0.960 . S
C346 H333 0.961 . S
C346 H334 0.959 . S
C346 C344 1.561 . S
C347 C344 1.526 1_554 S
C347 C348 1.396 . S
C347 C352 1.390 . S
C348 C342 1.465 . S
C348 C347 1.396 . S
C348 C349 1.399 . S
C349 H335 0.929 . S
C349 C348 1.399 . S
C349 C350 1.385 . S
C350 H336 0.931 . S
C350 C349 1.385 . S
C350 C351 1.389 . S
C351 C350 1.389 . S
C351 C352 1.387 . S
C352 H337 0.930 1_554 S
C352 C347 1.390 . S
C352 C351 1.387 . S
H353 C365 0.930 . S
H354 C367 0.930 1_655 S
H355 C368 0.930 . S
H356 C372 0.959 . S
H357 C372 0.959 . S
H358 C372 0.961 . S
H359 C373 0.960 . S
H360 C373 0.961 . S
H361 C373 0.959 . S
H362 C376 0.929 . S
H363 C377 0.931 . S
H364 C379 0.930 . S
C365 H353 0.930 . S
C365 C366 1.396 1_455 S
C365 C370 1.399 . S
C366 C365 1.396 1_655 S
C366 C367 1.375 1_655 S
C367 H354 0.930 1_455 S
C367 C366 1.375 1_455 S
C367 C368 1.388 . S
C368 H355 0.930 . S
C368 C367 1.388 . S
C368 C369 1.390 . S
C369 C368 1.390 . S
C369 C370 1.394 . S
C369 C375 1.465 . S
C370 C365 1.399 . S
C370 C369 1.394 . S
C370 C371 1.516 . S
C371 C370 1.516 . S
C371 C372 1.502 . S
C371 C373 1.561 . S
C371 C374 1.526 . S
C372 H356 0.959 . S
C372 H357 0.959 . S
C372 H358 0.961 . S
C372 C371 1.502 . S
C373 H359 0.960 . S
C373 H360 0.961 . S
C373 H361 0.959 . S
C373 C371 1.561 . S
C374 C371 1.526 . S
C374 C375 1.396 . S
C374 C379 1.390 . S
C375 C369 1.465 . S
C375 C374 1.396 . S
C375 C376 1.399 . S
C376 H362 0.929 . S
C376 C375 1.399 . S
C376 C377 1.385 . S
C377 H363 0.931 . S
C377 C376 1.385 . S
C377 C378 1.389 . S
C378 C377 1.389 . S
C378 C379 1.387 . S
C379 H364 0.930 . S
C379 C374 1.390 . S
C379 C378 1.387 . S
H380 C392 0.930 1_556 S
H381 C394 0.930 . S
H382 C395 0.930 . S
H383 C399 0.959 . S
H384 C399 0.959 . S
H385 C399 0.961 . S
H386 C400 0.960 . S
H387 C400 0.961 . S
H388 C400 0.959 . S
H389 C403 0.929 . S
H390 C404 0.931 . S
H391 C406 0.930 1_556 S
C392 H380 0.930 1_554 S
C392 C393 1.399 . S
C392 C397 1.399 . S
C393 C392 1.399 . S
C393 C394 1.376 . S
C394 H381 0.930 . S
C394 C393 1.376 . S
C394 C395 1.388 . S
C395 H382 0.930 . S
C395 C394 1.388 . S
C395 C396 1.390 . S
C396 C395 1.390 . S
C396 C397 1.394 . S
C396 C402 1.465 . S
C397 C392 1.399 . S
C397 C396 1.394 . S
C397 C398 1.516 1_554 S
C398 C397 1.516 1_556 S
C398 C399 1.502 . S
C398 C400 1.561 . S
C398 C401 1.526 1_556 S
C399 H383 0.959 . S
C399 H384 0.959 . S
C399 H385 0.961 . S
C399 C398 1.502 . S
C400 H386 0.960 . S
C400 H387 0.961 . S
C400 H388 0.959 . S
C400 C398 1.561 . S
C401 C398 1.526 1_554 S
C401 C402 1.396 . S
C401 C406 1.390 . S
C402 C396 1.465 . S
C402 C401 1.396 . S
C402 C403 1.399 . S
C403 H389 0.929 . S
C403 C402 1.399 . S
C403 C404 1.385 . S
C404 H390 0.931 . S
C404 C403 1.385 . S
C404 C405 1.389 . S
C405 C404 1.389 . S
C405 C406 1.387 . S
C406 H391 0.930 1_554 S
C406 C401 1.390 . S
C406 C405 1.387 . S
H407 C419 0.930 . S
H408 C421 0.930 . S
H409 C422 0.930 . S
H410 C426 0.959 . S
H411 C426 0.959 . S
H412 C426 0.961 . S
H413 C427 0.960 . S
H414 C427 0.961 . S
H415 C427 0.959 . S
H416 C430 0.929 . S
H417 C431 0.931 . S
H418 C433 0.930 . S
C419 H407 0.930 . S
C419 C420 1.399 . S
C419 C424 1.399 . S
C420 C419 1.399 . S
C420 C421 1.376 . S
C421 H408 0.930 . S
C421 C420 1.376 . S
C421 C422 1.388 . S
C422 H409 0.930 . S
C422 C421 1.388 . S
C422 C423 1.390 . S
C423 C422 1.390 . S
C423 C424 1.394 . S
C423 C429 1.465 . S
C424 C419 1.399 . S
C424 C423 1.394 . S
C424 C425 1.516 . S
C425 C424 1.516 . S
C425 C426 1.502 . S
C425 C427 1.561 . S
C425 C428 1.526 . S
C426 H410 0.959 . S
C426 H411 0.959 . S
C426 H412 0.961 . S
C426 C425 1.502 . S
C427 H413 0.960 . S
C427 H414 0.961 . S
C427 H415 0.959 . S
C427 C425 1.561 . S
C428 C425 1.526 . S
C428 C429 1.396 . S
C428 C433 1.390 . S
C429 C423 1.465 . S
C429 C428 1.396 . S
C429 C430 1.399 . S
C430 H416 0.929 . S
C430 C429 1.399 . S
C430 C431 1.385 . S
C431 H417 0.931 . S
C431 C430 1.385 . S
C431 C432 1.389 . S
C432 C431 1.389 . S
C432 C433 1.387 . S
C433 H418 0.930 . S
C433 C428 1.390 . S
C433 C432 1.387 . S
H434 C446 0.930 . S
H435 C448 0.930 1_556 S
H436 C449 0.930 . S
H437 C453 0.959 . S
H438 C453 0.959 . S
H439 C453 0.961 . S
H440 C454 0.960 . S
H441 C454 0.961 . S
H442 C454 0.959 . S
H443 C457 0.929 . S
H444 C458 0.931 . S
H445 C460 0.930 . S
C446 H434 0.930 . S
C446 C447 1.399 . S
C446 C451 1.399 . S
C447 C446 1.399 . S
C447 C448 1.376 . S
C448 H435 0.930 1_554 S
C448 C447 1.376 . S
C448 C449 1.388 1_554 S
C449 H436 0.930 . S
C449 C448 1.388 1_556 S
C449 C450 1.390 1_556 S
C450 C449 1.390 1_554 S
C450 C451 1.394 . S
C450 C456 1.465 . S
C451 C446 1.399 . S
C451 C450 1.394 . S
C451 C452 1.516 . S
C452 C451 1.516 . S
C452 C453 1.502 . S
C452 C454 1.561 . S
C452 C455 1.526 . S
C453 H437 0.959 . S
C453 H438 0.959 . S
C453 H439 0.961 . S
C453 C452 1.502 . S
C454 H440 0.960 . S
C454 H441 0.961 . S
C454 H442 0.959 . S
C454 C452 1.561 . S
C455 C452 1.526 . S
C455 C456 1.396 . S
C455 C460 1.390 . S
C456 C450 1.465 . S
C456 C455 1.396 . S
C456 C457 1.399 1_554 S
C457 H443 0.929 . S
C457 C456 1.399 1_556 S
C457 C458 1.385 . S
C458 H444 0.931 . S
C458 C457 1.385 . S
C458 C459 1.389 1_556 S
C459 C458 1.389 1_554 S
C459 C460 1.387 . S
C460 H445 0.930 . S
C460 C455 1.390 . S
C460 C459 1.387 . S
H461 C473 0.930 . S
H462 C475 0.930 . S
H463 C476 0.930 . S
H464 C480 0.959 . S
H465 C480 0.959 . S
H466 C480 0.961 . S
H467 C481 0.960 . S
H468 C481 0.961 . S
H469 C481 0.959 . S
H470 C484 0.929 . S
H471 C485 0.931 . S
H472 C487 0.930 . S
C473 H461 0.930 . S
C473 C474 1.399 . S
C473 C478 1.399 . S
C474 C473 1.399 . S
C474 C475 1.376 . S
C475 H462 0.930 . S
C475 C474 1.376 . S
C475 C476 1.388 . S
C476 H463 0.930 . S
C476 C475 1.388 . S
C476 C477 1.390 . S
C477 C476 1.390 . S
C477 C478 1.394 . S
C477 C483 1.465 . S
C478 C473 1.399 . S
C478 C477 1.394 . S
C478 C479 1.516 . S
C479 C478 1.516 . S
C479 C480 1.502 . S
C479 C481 1.561 . S
C479 C482 1.526 . S
C480 H464 0.959 . S
C480 H465 0.959 . S
C480 H466 0.961 . S
C480 C479 1.502 . S
C481 H467 0.960 . S
C481 H468 0.961 . S
C481 H469 0.959 . S
C481 C479 1.561 . S
C482 C479 1.526 . S
C482 C483 1.396 . S
C482 C487 1.390 . S
C483 C477 1.465 . S
C483 C482 1.396 . S
C483 C484 1.399 . S
C484 H470 0.929 . S
C484 C483 1.399 . S
C484 C485 1.385 . S
C485 H471 0.931 . S
C485 C484 1.385 . S
C485 C486 1.389 . S
C486 C485 1.389 . S
C486 C487 1.387 . S
C487 H472 0.930 . S
C487 C482 1.390 . S
C487 C486 1.387 . S
H488 C500 0.930 . S
H489 C502 0.930 . S
H490 C503 0.930 . S
H491 C507 0.959 . S
H492 C507 0.959 . S
H493 C507 0.961 . S
H494 C508 0.960 . S
H495 C508 0.961 . S
H496 C508 0.959 . S
H497 C511 0.929 . S
H498 C512 0.931 . S
H499 C514 0.930 . S
C500 H488 0.930 . S
C500 C501 1.399 . S
C500 C505 1.399 . S
C501 C500 1.399 . S
C501 C502 1.376 1_554 S
C502 H489 0.930 . S
C502 C501 1.376 1_556 S
C502 C503 1.388 . S
C503 H490 0.930 . S
C503 C502 1.388 . S
C503 C504 1.390 1_556 S
C504 C503 1.390 1_554 S
C504 C505 1.394 . S
C504 C510 1.465 1_455 S
C505 C500 1.399 . S
C505 C504 1.394 . S
C505 C506 1.516 1_455 S
C506 C505 1.516 1_655 S
C506 C507 1.502 . S
C506 C508 1.561 1_655 S
C506 C509 1.526 . S
C507 H491 0.959 . S
C507 H492 0.959 . S
C507 H493 0.961 . S
C507 C506 1.502 . S
C508 H494 0.960 . S
C508 H495 0.961 . S
C508 H496 0.959 . S
C508 C506 1.561 1_455 S
C509 C506 1.526 . S
C509 C510 1.396 . S
C509 C514 1.390 . S
C510 C504 1.465 1_655 S
C510 C509 1.396 . S
C510 C511 1.399 1_554 S
C511 H497 0.929 . S
C511 C510 1.399 1_556 S
C511 C512 1.385 . S
C512 H498 0.931 . S
C512 C511 1.385 . S
C512 C513 1.389 1_556 S
C513 C512 1.389 1_554 S
C513 C514 1.387 . S
C514 H499 0.930 . S
C514 C509 1.390 . S
C514 C513 1.387 . S
H515 C527 0.930 . S
H516 C529 0.930 . S
H517 C530 0.930 . S
H518 C534 0.959 . S
H519 C534 0.959 . S
H520 C534 0.961 . S
H521 C535 0.960 1_565 S
H522 C535 0.961 . S
H523 C535 0.959 1_565 S
H524 C538 0.929 1_565 S
H525 C539 0.931 . S
H526 C541 0.930 . S
C527 H515 0.930 . S
C527 C528 1.399 . S
C527 C532 1.399 . S
C528 C527 1.399 . S
C528 C529 1.376 . S
C529 H516 0.930 . S
C529 C528 1.376 . S
C529 C530 1.388 . S
C530 H517 0.930 . S
C530 C529 1.388 . S
C530 C531 1.390 . S
C531 C530 1.390 . S
C531 C532 1.394 . S
C531 C537 1.465 1_565 S
C532 C527 1.399 . S
C532 C531 1.394 . S
C532 C533 1.516 1_565 S
C533 C532 1.516 1_545 S
C533 C534 1.502 . S
C533 C535 1.561 . S
C533 C536 1.526 . S
C534 H518 0.959 . S
C534 H519 0.959 . S
C534 H520 0.961 . S
C534 C533 1.502 . S
C535 H521 0.960 1_545 S
C535 H522 0.961 . S
C535 H523 0.959 1_545 S
C535 C533 1.561 . S
C536 C533 1.526 . S
C536 C537 1.396 . S
C536 C541 1.390 . S
C537 C531 1.465 1_545 S
C537 C536 1.396 . S
C537 C538 1.399 . S
C538 H524 0.929 1_545 S
C538 C537 1.399 . S
C538 C539 1.385 . S
C539 H525 0.931 . S
C539 C538 1.385 . S
C539 C540 1.389 . S
C540 C539 1.389 . S
C540 C541 1.387 . S
C541 H526 0.930 . S
C541 C536 1.390 . S
C541 C540 1.387 . S
H542 C554 0.930 . S
H543 C556 0.930 . S
H544 C557 0.930 . S
H545 C561 0.959 . S
H546 C561 0.959 . S
H547 C561 0.961 . S
H548 C562 0.958 1_565 S
H549 C562 0.961 . S
H550 C562 0.959 . S
H551 C565 0.929 . S
H552 C566 0.931 . S
H553 C568 0.930 . S
C554 H542 0.930 . S
C554 C555 1.399 1_556 S
C554 C559 1.399 1_556 S
C555 C554 1.399 1_554 S
C555 C556 1.376 . S
C556 H543 0.930 . S
C556 C555 1.376 . S
C556 C557 1.388 . S
C557 H544 0.930 . S
C557 C556 1.388 . S
C557 C558 1.390 . S
C558 C557 1.390 . S
C558 C559 1.394 . S
C558 C564 1.465 1_565 S
C559 C554 1.399 1_554 S
C559 C558 1.394 . S
C559 C560 1.516 1_554 S
C560 C559 1.516 1_556 S
C560 C561 1.502 . S
C560 C562 1.561 1_565 S
C560 C563 1.526 1_566 S
C561 H545 0.959 . S
C561 H546 0.959 . S
C561 H547 0.961 . S
C561 C560 1.502 . S
C562 H548 0.958 1_545 S
C562 H549 0.961 . S
C562 H550 0.959 . S
C562 C560 1.561 1_545 S
C563 C560 1.526 1_544 S
C563 C564 1.396 . S
C563 C568 1.390 1_554 S
C564 C558 1.465 1_545 S
C564 C563 1.396 . S
C564 C565 1.399 . S
C565 H551 0.929 . S
C565 C564 1.399 . S
C565 C566 1.385 . S
C566 H552 0.931 . S
C566 C565 1.385 . S
C566 C567 1.389 . S
C567 C566 1.389 . S
C567 C568 1.387 1_554 S
C568 H553 0.930 . S
C568 C563 1.390 1_556 S
C568 C567 1.387 1_556 S
H569 C581 0.930 . S
H570 C583 0.930 . S
H571 C584 0.930 . S
H572 C588 0.959 . S
H573 C588 0.959 . S
H574 C588 0.961 . S
H575 C589 0.960 . S
H576 C589 0.961 . S
H577 C589 0.959 . S
H578 C592 0.929 . S
H579 C593 0.931 . S
H580 C595 0.930 . S
C581 H569 0.930 . S
C581 C582 1.399 . S
C581 C586 1.399 . S
C582 C581 1.399 . S
C582 C583 1.376 . S
C583 H570 0.930 . S
C583 C582 1.376 . S
C583 C584 1.388 . S
C584 H571 0.930 . S
C584 C583 1.388 . S
C584 C585 1.390 . S
C585 C584 1.390 . S
C585 C586 1.394 . S
C585 C591 1.465 1_655 S
C586 C581 1.399 . S
C586 C585 1.394 . S
C586 C587 1.516 1_655 S
C587 C586 1.516 1_455 S
C587 C588 1.502 . S
C587 C589 1.561 1_455 S
C587 C590 1.526 . S
C588 H572 0.959 . S
C588 H573 0.959 . S
C588 H574 0.961 . S
C588 C587 1.502 . S
C589 H575 0.960 . S
C589 H576 0.961 . S
C589 H577 0.959 . S
C589 C587 1.561 1_655 S
C590 C587 1.526 . S
C590 C591 1.396 . S
C590 C595 1.390 . S
C591 C585 1.465 1_455 S
C591 C590 1.396 . S
C591 C592 1.399 . S
C592 H578 0.929 . S
C592 C591 1.399 . S
C592 C593 1.385 . S
C593 H579 0.931 . S
C593 C592 1.385 . S
C593 C594 1.389 . S
C594 C593 1.389 . S
C594 C595 1.387 . S
C595 H580 0.930 . S
C595 C590 1.390 . S
C595 C594 1.387 . S
H596 C608 0.930 . S
H597 C610 0.930 . S
H598 C611 0.930 . S
H599 C615 0.959 . S
H600 C615 0.959 . S
H601 C615 0.961 . S
H602 C616 0.960 . S
H603 C616 0.961 . S
H604 C616 0.959 . S
H605 C619 0.929 . S
H606 C620 0.931 . S
H607 C622 0.930 . S
C608 H596 0.930 . S
C608 C609 1.399 . S
C608 C613 1.399 . S
C609 C608 1.399 . S
C609 C610 1.376 . S
C610 H597 0.930 . S
C610 C609 1.376 . S
C610 C611 1.388 . S
C611 H598 0.930 . S
C611 C610 1.388 . S
C611 C612 1.390 . S
C612 C611 1.390 . S
C612 C613 1.394 . S
C612 C618 1.465 . S
C613 C608 1.399 . S
C613 C612 1.394 . S
C613 C614 1.516 . S
C614 C613 1.516 . S
C614 C615 1.502 . S
C614 C616 1.561 . S
C614 C617 1.526 . S
C615 H599 0.959 . S
C615 H600 0.959 . S
C615 H601 0.961 . S
C615 C614 1.502 . S
C616 H602 0.960 . S
C616 H603 0.961 . S
C616 H604 0.959 . S
C616 C614 1.561 . S
C617 C614 1.526 . S
C617 C618 1.396 . S
C617 C622 1.390 . S
C618 C612 1.465 . S
C618 C617 1.396 . S
C618 C619 1.399 . S
C619 H605 0.929 . S
C619 C618 1.399 . S
C619 C620 1.385 . S
C620 H606 0.931 . S
C620 C619 1.385 . S
C620 C621 1.389 . S
C621 C620 1.389 . S
C621 C622 1.387 . S
C622 H607 0.930 . S
C622 C617 1.390 . S
C622 C621 1.387 . S
H623 C635 0.930 . S
H624 C637 0.930 . S
H625 C638 0.930 . S
H626 C642 0.959 . S
H627 C642 0.959 . S
H628 C642 0.961 . S
H629 C643 0.960 . S
H630 C643 0.961 . S
H631 C643 0.959 . S
H632 C646 0.929 . S
H633 C647 0.931 . S
H634 C649 0.930 . S
C635 H623 0.930 . S
C635 C636 1.399 . S
C635 C640 1.399 . S
C636 C635 1.399 . S
C636 C637 1.376 . S
C637 H624 0.930 . S
C637 C636 1.376 . S
C637 C638 1.388 . S
C638 H625 0.930 . S
C638 C637 1.388 . S
C638 C639 1.390 . S
C639 C638 1.390 . S
C639 C640 1.394 . S
C639 C645 1.465 . S
C640 C635 1.399 . S
C640 C639 1.394 . S
C640 C641 1.516 . S
C641 C640 1.516 . S
C641 C642 1.502 . S
C641 C643 1.561 . S
C641 C644 1.526 . S
C642 H626 0.959 . S
C642 H627 0.959 . S
C642 H628 0.961 . S
C642 C641 1.502 . S
C643 H629 0.960 . S
C643 H630 0.961 . S
C643 H631 0.959 . S
C643 C641 1.561 . S
C644 C641 1.526 . S
C644 C645 1.396 . S
C644 C649 1.390 . S
C645 C639 1.465 . S
C645 C644 1.396 . S
C645 C646 1.399 . S
C646 H632 0.929 . S
C646 C645 1.399 . S
C646 C647 1.385 . S
C647 H633 0.931 . S
C647 C646 1.385 . S
C647 C648 1.389 . S
C648 C647 1.389 . S
C648 C649 1.387 . S
C649 H634 0.930 . S
C649 C644 1.390 . S
C649 C648 1.387 . S
H650 C662 0.930 . S
H651 C664 0.930 . S
H652 C665 0.930 . S
H653 C669 0.959 . S
H654 C669 0.959 . S
H655 C669 0.961 . S
H656 C670 0.960 . S
H657 C670 0.961 . S
H658 C670 0.959 . S
H659 C673 0.929 . S
H660 C674 0.931 . S
H661 C676 0.930 . S
C662 H650 0.930 . S
C662 C663 1.399 . S
C662 C667 1.399 . S
C663 C662 1.399 . S
C663 C664 1.376 . S
C664 H651 0.930 . S
C664 C663 1.376 . S
C664 C665 1.388 . S
C665 H652 0.930 . S
C665 C664 1.388 . S
C665 C666 1.390 . S
C666 C665 1.390 . S
C666 C667 1.394 . S
C666 C672 1.465 . S
C667 C662 1.399 . S
C667 C666 1.394 . S
C667 C668 1.516 . S
C668 C667 1.516 . S
C668 C669 1.502 . S
C668 C670 1.561 . S
C668 C671 1.526 . S
C669 H653 0.959 . S
C669 H654 0.959 . S
C669 H655 0.961 . S
C669 C668 1.502 . S
C670 H656 0.960 . S
C670 H657 0.961 . S
C670 H658 0.959 . S
C670 C668 1.561 . S
C671 C668 1.526 . S
C671 C672 1.396 . S
C671 C676 1.390 . S
C672 C666 1.465 . S
C672 C671 1.396 . S
C672 C673 1.399 . S
C673 H659 0.929 . S
C673 C672 1.399 . S
C673 C674 1.385 . S
C674 H660 0.931 . S
C674 C673 1.385 . S
C674 C675 1.389 . S
C675 C674 1.389 . S
C675 C676 1.387 . S
C676 H661 0.930 . S
C676 C671 1.390 . S
C676 C675 1.387 . S
H677 C689 0.930 . S
H678 C691 0.930 . S
H679 C692 0.930 . S
H680 C696 0.959 . S
H681 C696 0.959 . S
H682 C696 0.961 . S
H683 C697 0.960 . S
H684 C697 0.961 . S
H685 C697 0.959 . S
H686 C700 0.929 . S
H687 C701 0.931 . S
H688 C703 0.930 . S
C689 H677 0.930 . S
C689 C690 1.399 . S
C689 C694 1.399 . S
C690 C689 1.399 . S
C690 C691 1.376 . S
C691 H678 0.930 . S
C691 C690 1.376 . S
C691 C692 1.388 . S
C692 H679 0.930 . S
C692 C691 1.388 . S
C692 C693 1.390 . S
C693 C692 1.390 . S
C693 C694 1.394 . S
C693 C699 1.465 . S
C694 C689 1.399 . S
C694 C693 1.394 . S
C694 C695 1.516 . S
C695 C694 1.516 . S
C695 C696 1.502 . S
C695 C697 1.561 . S
C695 C698 1.526 . S
C696 H680 0.959 . S
C696 H681 0.959 . S
C696 H682 0.961 . S
C696 C695 1.502 . S
C697 H683 0.960 . S
C697 H684 0.961 . S
C697 H685 0.959 . S
C697 C695 1.561 . S
C698 C695 1.526 . S
C698 C699 1.396 . S
C698 C703 1.390 . S
C699 C693 1.465 . S
C699 C698 1.396 . S
C699 C700 1.399 . S
C700 H686 0.929 . S
C700 C699 1.399 . S
C700 C701 1.385 . S
C701 H687 0.931 . S
C701 C700 1.385 . S
C701 C702 1.389 . S
C702 C701 1.389 . S
C702 C703 1.387 . S
C703 H688 0.930 . S
C703 C698 1.390 . S
C703 C702 1.387 . S
H704 C716 0.930 . S
H705 C718 0.930 . S
H706 C719 0.930 . S
H707 C723 0.959 . S
H708 C723 0.959 . S
H709 C723 0.961 . S
H710 C724 0.960 . S
H711 C724 0.961 . S
H712 C724 0.959 . S
H713 C727 0.929 . S
H714 C728 0.931 . S
H715 C730 0.930 . S
C716 H704 0.930 . S
C716 C717 1.399 . S
C716 C721 1.399 . S
C717 C716 1.399 . S
C717 C718 1.376 . S
C718 H705 0.930 . S
C718 C717 1.376 . S
C718 C719 1.388 . S
C719 H706 0.930 . S
C719 C718 1.388 . S
C719 C720 1.390 . S
C720 C719 1.390 . S
C720 C721 1.394 . S
C720 C726 1.465 . S
C721 C716 1.399 . S
C721 C720 1.394 . S
C721 C722 1.516 . S
C722 C721 1.516 . S
C722 C723 1.502 . S
C722 C724 1.561 . S
C722 C725 1.526 . S
C723 H707 0.959 . S
C723 H708 0.959 . S
C723 H709 0.961 . S
C723 C722 1.502 . S
C724 H710 0.960 . S
C724 H711 0.961 . S
C724 H712 0.959 . S
C724 C722 1.561 . S
C725 C722 1.526 . S
C725 C726 1.396 . S
C725 C730 1.390 . S
C726 C720 1.465 . S
C726 C725 1.396 . S
C726 C727 1.399 . S
C727 H713 0.929 . S
C727 C726 1.399 . S
C727 C728 1.385 . S
C728 H714 0.931 . S
C728 C727 1.385 . S
C728 C729 1.389 . S
C729 C728 1.389 . S
C729 C730 1.387 . S
C730 H715 0.930 . S
C730 C725 1.390 . S
C730 C729 1.387 . S
H731 C743 0.930 . S
H732 C745 0.930 . S
H733 C746 0.930 . S
H734 C750 0.959 . S
H735 C750 0.959 . S
H736 C750 0.961 . S
H737 C751 0.960 . S
H738 C751 0.961 . S
H739 C751 0.959 . S
H740 C754 0.929 . S
H741 C755 0.931 . S
H742 C757 0.930 . S
C743 H731 0.930 . S
C743 C744 1.399 . S
C743 C748 1.399 . S
C744 C743 1.399 . S
C744 C745 1.376 . S
C745 H732 0.930 . S
C745 C744 1.376 . S
C745 C746 1.388 . S
C746 H733 0.930 . S
C746 C745 1.388 . S
C746 C747 1.390 . S
C747 C746 1.390 . S
C747 C748 1.394 . S
C747 C753 1.465 . S
C748 C743 1.399 . S
C748 C747 1.394 . S
C748 C749 1.516 . S
C749 C748 1.516 . S
C749 C750 1.502 . S
C749 C751 1.561 . S
C749 C752 1.526 . S
C750 H734 0.959 . S
C750 H735 0.959 . S
C750 H736 0.961 . S
C750 C749 1.502 . S
C751 H737 0.960 . S
C751 H738 0.961 . S
C751 H739 0.959 . S
C751 C749 1.561 . S
C752 C749 1.526 . S
C752 C753 1.396 . S
C752 C757 1.390 . S
C753 C747 1.465 . S
C753 C752 1.396 . S
C753 C754 1.399 . S
C754 H740 0.929 . S
C754 C753 1.399 . S
C754 C755 1.385 . S
C755 H741 0.931 . S
C755 C754 1.385 . S
C755 C756 1.389 . S
C756 C755 1.389 . S
C756 C757 1.387 . S
C757 H742 0.930 . S
C757 C752 1.390 . S
C757 C756 1.387 . S
H758 C770 0.930 . S
H759 C772 0.930 . S
H760 C773 0.930 . S
H761 C777 0.959 . S
H762 C777 0.959 . S
H763 C777 0.961 . S
H764 C778 0.960 . S
H765 C778 0.961 . S
H766 C778 0.959 . S
H767 C781 0.929 . S
H768 C782 0.931 . S
H769 C784 0.930 . S
C770 H758 0.930 . S
C770 C771 1.399 . S
C770 C775 1.399 . S
C771 C770 1.399 . S
C771 C772 1.376 . S
C772 H759 0.930 . S
C772 C771 1.376 . S
C772 C773 1.388 . S
C773 H760 0.930 . S
C773 C772 1.388 . S
C773 C774 1.390 . S
C774 C773 1.390 . S
C774 C775 1.394 . S
C774 C780 1.465 . S
C775 C770 1.399 . S
C775 C774 1.394 . S
C775 C776 1.516 . S
C776 C775 1.516 . S
C776 C777 1.502 . S
C776 C778 1.561 . S
C776 C779 1.526 . S
C777 H761 0.959 . S
C777 H762 0.959 . S
C777 H763 0.961 . S
C777 C776 1.502 . S
C778 H764 0.960 . S
C778 H765 0.961 . S
C778 H766 0.959 . S
C778 C776 1.561 . S
C779 C776 1.526 . S
C779 C780 1.396 . S
C779 C784 1.390 . S
C780 C774 1.465 . S
C780 C779 1.396 . S
C780 C781 1.399 . S
C781 H767 0.929 . S
C781 C780 1.399 . S
C781 C782 1.385 . S
C782 H768 0.931 . S
C782 C781 1.385 . S
C782 C783 1.389 . S
C783 C782 1.389 . S
C783 C784 1.387 . S
C784 H769 0.930 . S
C784 C779 1.390 . S
C784 C783 1.387 . S
H785 C797 0.930 . S
H786 C799 0.930 . S
H787 C800 0.930 . S
H788 C804 0.959 . S
H789 C804 0.959 . S
H790 C804 0.961 . S
H791 C805 0.960 . S
H792 C805 0.961 . S
H793 C805 0.959 . S
H794 C808 0.929 . S
H795 C809 0.931 . S
H796 C811 0.930 . S
C797 H785 0.930 . S
C797 C798 1.399 . S
C797 C802 1.399 . S
C798 C797 1.399 . S
C798 C799 1.376 . S
C799 H786 0.930 . S
C799 C798 1.376 . S
C799 C800 1.388 . S
C800 H787 0.930 . S
C800 C799 1.388 . S
C800 C801 1.390 . S
C801 C800 1.390 . S
C801 C802 1.394 . S
C801 C807 1.465 . S
C802 C797 1.399 . S
C802 C801 1.394 . S
C802 C803 1.516 . S
C803 C802 1.516 . S
C803 C804 1.502 . S
C803 C805 1.561 . S
C803 C806 1.526 . S
C804 H788 0.959 . S
C804 H789 0.959 . S
C804 H790 0.961 . S
C804 C803 1.502 . S
C805 H791 0.960 . S
C805 H792 0.961 . S
C805 H793 0.959 . S
C805 C803 1.561 . S
C806 C803 1.526 . S
C806 C807 1.396 . S
C806 C811 1.390 . S
C807 C801 1.465 . S
C807 C806 1.396 . S
C807 C808 1.399 . S
C808 H794 0.929 . S
C808 C807 1.399 . S
C808 C809 1.385 . S
C809 H795 0.931 . S
C809 C808 1.385 . S
C809 C810 1.389 . S
C810 C809 1.389 . S
C810 C811 1.387 . S
C811 H796 0.930 . S
C811 C806 1.390 . S
C811 C810 1.387 . S
C285 C237 1.465 1_545 S
C297 C20 1.538 . S
C312 C271 1.543 . S
C324 C54 1.505 . S
C339 C169 1.524 . S
C351 C88 1.519 . S
C366 C203 1.488 . S
C378 C122 1.539 . S
C393 C101 1.482 . S
C405 C156 1.539 . S
C420 C135 1.534 . S
C432 C190 1.502 . S
C447 C33 1.473 . S
C459 C224 1.546 . S
C474 C258 1.500 . S
C486 C67 1.535 . S
C501 C2 0.460 . S
C513 C70 0.512 . S
C528 C104 0.431 . S
C540 C36 0.533 . S
C555 C206 0.450 . S
C567 C138 0.521 . S
C582 C172 0.505 . S
C594 C240 0.449 . S
C609 C5 1.801 . S
C621 C243 1.784 . S
C636 C141 1.776 . S
C648 C39 1.808 . S
C663 C175 1.793 . S
C675 C73 1.791 . S
C690 C209 1.808 . S
C702 C107 1.777 . S
C717 C77 1.104 . S
C729 C179 1.061 . S
C744 C111 1.039 . S
C756 C213 1.159 . S
C771 C247 1.046 . S
C783 C9 1.167 . S
C798 C145 1.070 . S
C810 C43 1.092 . S
