# Generated by pormake.
# Topology kag, (6)-cn, num edge types: 1
# Building blocks:
#     Node 0, Type 0, BuildingBlock: KUMJIN_clean_sbu_0, # of connection points: 6
#     Node 1, Type 0, BuildingBlock: KUMJIN_clean_sbu_0, # of connection points: 6
#     Node 2, Type 0, BuildingBlock: KUMJIN_clean_sbu_0, # of connection points: 6
#     Edge 3, Type (0, 0), BuildingBlock: UVAHIK_clean_linker_0, # of connection points: 2
#     Edge 4, Type (0, 0), BuildingBlock: UVAHIK_clean_linker_0, # of connection points: 2
#     Edge 5, Type (0, 0), BuildingBlock: UVAHIK_clean_linker_0, # of connection points: 2
#     Edge 6, Type (0, 0), BuildingBlock: UVAHIK_clean_linker_0, # of connection points: 2
#     Edge 7, Type (0, 0), BuildingBlock: UVAHIK_clean_linker_0, # of connection points: 2
#     Edge 8, Type (0, 0), BuildingBlock: UVAHIK_clean_linker_0, # of connection points: 2
#     Edge 9, Type (0, 0), BuildingBlock: UVAHIK_clean_linker_0, # of connection points: 2
#     Edge 10, Type (0, 0), BuildingBlock: UVAHIK_clean_linker_0, # of connection points: 2
#     Edge 11, Type (0, 0), BuildingBlock: UVAHIK_clean_linker_0, # of connection points: 2
# Relax obj value: 0.055
# Max RMSD: 0.171
# Mean RMSD: 0.129
data_MOF--net-kag--node1-KUMJIN_clean_sbu_0--edge1-UVAHIK_clean_linker_0
_symmetry_space_group_name_H-M    P1
_symmetry_Int_Tables_number       1
_symmetry_cell_setting            triclinic
loop_
_symmetry_equiv_pos_as_xyz
'x, y, z'
_cell_length_a     48.79738
_cell_length_b     39.26155
_cell_length_c     19.866027
_cell_angle_alpha  93.843682
_cell_angle_beta   114.81555
_cell_angle_gamma 101.64123
loop_
_atom_site_label
_atom_site_type_symbol
_atom_site_fract_x
_atom_site_fract_y
_atom_site_fract_z
_atom_type_partial_charge
Eu0 Eu 0.99936 0.48024 0.98239 0.0
C1 C 0.99507 0.62964 0.09363 0.0
C2 C 0.94321 0.63344 0.00886 0.0
C3 C 0.96883 0.66605 0.13676 0.0
C4 C 0.96942 0.61982 0.02378 0.0
C5 C 0.99535 0.65349 0.15037 0.0
C6 C 0.94279 0.65599 0.0662 0.0
C7 C 0.04884 0.6527 0.2278 0.0
N8 N 0.02031 0.61703 0.10506 0.0
C9 C 0.04744 0.62911 0.16979 0.0
C10 C 0.02255 0.66461 0.21843 0.0
Eu11 Eu 0.01583 0.57663 0.00508 0.0
N12 N 0.97064 0.59819 0.9694 0.0
C13 C 0.9474 0.59113 0.89746 0.0
C14 C 0.91851 0.62465 0.93626 0.0
C15 C 0.92082 0.6038 0.88008 0.0
H16 H 0.06774 0.61978 0.17726 0.0
H17 H 0.9021 0.59736 0.82342 0.0
H18 H 0.92273 0.66643 0.056 0.0
H19 H 0.07015 0.66162 0.27968 0.0
H20 H 0.94883 0.5749 0.85363 0.0
H21 H 0.11332 0.4607 0.16605 0.0
H22 H 0.8979 0.63444 0.92262 0.0
H23 H 0.94825 0.43665 0.80992 0.0
H24 H 0.06586 0.48185 0.13509 0.0
H25 H 0.94701 0.39591 0.70735 0.0
H26 H 0.96848 0.68413 0.1799 0.0
H27 H 0.11894 0.42554 0.06667 0.0
H28 H 0.09527 0.39476 0.93257 0.0
H29 H 0.02371 0.68293 0.26341 0.0
H30 H 0.04997 0.37692 0.8079 0.0
N31 N 0.04508 0.45969 0.01885 0.0
C32 C 0.06793 0.46642 0.09122 0.0
C33 C 0.09803 0.43475 0.05271 0.0
C34 C 0.07371 0.42621 0.97957 0.0
C35 C 0.0949 0.45451 0.10901 0.0
C36 C 0.04708 0.43907 0.96426 0.0
H37 H 0.99439 0.37665 0.72387 0.0
N38 N 0.99594 0.44079 0.88229 0.0
C39 C 0.96821 0.40523 0.75937 0.0
C40 C 0.0217 0.42921 0.89391 0.0
C41 C 0.96894 0.42817 0.81742 0.0
C42 C 0.99503 0.39448 0.76887 0.0
C43 C 0.02209 0.40604 0.83716 0.0
O44 O 0.95729 0.44024 0.96216 0.0
O45 O 0.98102 0.52703 0.99231 0.0
O46 O 0.01107 0.56165 0.10804 0.0
O47 O 0.0199 0.50543 0.10702 0.0
O48 O 0.94992 0.48496 0.91109 0.0
O49 O 1.00026 0.44418 0.06206 0.0
O50 O 0.05822 0.61546 0.02337 0.0
O51 O 0.03416 0.52984 -0.0046 0.0
O52 O 1.00414 0.49564 0.87963 0.0
O53 O 0.9945 0.55137 0.88042 0.0
O54 O 0.06515 0.57176 0.07704 0.0
O55 O 0.01497 0.61213 0.9245 0.0
C56 C 0.95283 0.51585 0.94399 0.0
C57 C 0.96541 0.38752 0.0067 0.0
C58 C 0.93164 0.32939 0.99156 0.0
C59 C 0.93924 0.3665 0.01014 0.0
C60 C 0.95083 0.3139 0.96917 0.0
C61 C 0.98453 0.37138 0.98613 0.0
C62 C 0.97717 0.33478 0.96718 0.0
C63 C 0.01692 0.53395 0.14073 0.0
C64 C 0.9714 0.42619 0.02069 0.0
C65 C 0.04908 0.39442 0.85108 0.0
C66 C 0.07487 0.40456 0.92209 0.0
C67 C 0.06233 0.54095 0.04395 0.0
C68 C 0.05147 0.66804 0.97664 0.0
C69 C 0.07872 0.68693 0.97478 0.0
C70 C 0.0874 0.72408 0.98954 0.0
C71 C 0.06811 0.74203 0.00589 0.0
C72 C 0.03251 0.68638 -0.00714 0.0
C73 C 0.04085 0.72323 0.00737 0.0
C74 C 0.99796 0.52321 0.84685 0.0
C75 C 0.04416 0.62931 0.9645 0.0
H76 H 0.92501 0.37923 0.02773 0.0
H77 H 0.9454 0.28563 0.95235 0.0
H78 H 1.005 0.38699 0.9842 0.0
H79 H 0.99181 0.32254 0.95029 0.0
H80 H 0.09303 0.67252 0.96129 0.0
H81 H 0.07427 0.77058 0.01853 0.0
H82 H 0.01142 0.67231 -0.00543 0.0
H83 H 0.02623 0.73727 0.02025 0.0
Eu84 Eu 0.54859 0.04299 0.03724 0.0
C85 C 0.43982 0.08529 0.88457 0.0
C86 C 0.43578 0.11929 0.98494 0.0
C87 C 0.42265 0.13957 0.86524 0.0
C88 C 0.44323 0.08999 0.95757 0.0
C89 C 0.42863 0.10963 0.83701 0.0
C90 C 0.42627 0.14442 0.93911 0.0
C91 C 0.4268 0.07133 0.73457 0.0
N92 N 0.44588 0.05615 0.85875 0.0
C93 C 0.4374 0.04783 0.78339 0.0
C94 C 0.42304 0.10277 0.76184 0.0
Eu95 Eu 0.46641 1.01878 0.94763 0.0
N96 N 0.45292 0.0655 0.00117 0.0
C97 C 0.45151 0.06663 0.06864 0.0
C98 C 0.43752 0.12219 0.05714 0.0
C99 C 0.44475 0.0953 0.09847 0.0
H100 H 0.43794 1.02267 0.75943 0.0
H101 H 0.44446 0.09622 0.15275 0.0
H102 H 0.42098 0.1673 0.95973 0.0
H103 H 0.42097 0.06481 0.67554 0.0
H104 H 0.45435 0.04509 0.09927 0.0
H105 H 0.56698 0.95329 0.84451 0.0
H106 H 0.43207 0.14428 0.08017 0.0
H107 H 0.5819 0.05068 0.2286 0.0
H108 H 0.55629 1.00669 0.88675 0.0
H109 H 0.60177 1.01418 0.32462 0.0
H110 H 0.41455 0.15874 0.82985 0.0
H111 H 0.5827 0.91066 0.93036 0.0
H112 H 0.59657 0.89499 0.05852 0.0
H113 H 0.41454 0.12083 0.72374 0.0
H114 H 0.6053 0.91113 0.1889 0.0
N115 N 0.56205 0.99353 -0.00647 0.0
C116 C 0.56131 0.98786 0.92402 0.0
C117 C 0.57726 0.93392 0.9489 0.0
C118 C 0.58038 0.94107 0.02194 0.0
C119 C 0.56822 0.95778 0.9002 0.0
C120 C 0.57286 0.97171 0.04326 0.0
H121 H 0.60733 0.95541 0.28856 0.0
N122 N 0.57181 1.01126 0.13612 0.0
C123 C 0.59443 1.00401 0.26605 0.0
C124 C 0.57743 0.98057 0.11636 0.0
C125 C 0.58237 1.02431 0.21079 0.0
C126 C 0.59762 0.97095 0.24552 0.0
C127 C 0.59008 0.95933 0.17037 0.0
O128 O 0.59344 0.07791 0.11652 0.0
O129 O 0.50741 0.0667 0.97703 0.0
O130 O 0.48102 1.01114 0.85555 0.0
O131 O 0.53092 0.04788 0.91331 0.0
O132 O 0.54204 0.09415 0.08097 0.0
O133 O 0.583 0.06724 -0.00064 0.0
O134 O 0.42016 0.98991 0.86146 0.0
O135 O 0.50755 0.99498 0.00736 0.0
O136 O 0.53341 0.05008 0.12855 0.0
O137 O 0.48424 1.01195 0.07062 0.0
O138 O 0.47375 0.96855 0.90211 0.0
O139 O 0.4312 0.98977 0.9783 0.0
C140 C 0.51667 0.09555 0.02425 0.0
C141 C 0.63579 0.07783 0.08809 0.0
C142 C 0.68678 0.09792 0.08901 0.0
C143 C 0.65587 0.10044 0.06687 0.0
C144 C 0.69703 0.07201 0.13229 0.0
C145 C 0.64646 0.05202 0.13053 0.0
C146 C 0.67691 0.04915 0.15234 0.0
C147 C 0.50613 0.02936 0.85276 0.0
C148 C 0.60409 0.08208 0.06682 0.0
C149 C 0.59605 0.92797 0.14843 0.0
C150 C 0.5912 0.91885 0.07432 0.0
C151 C 0.49851 0.96642 0.95961 0.0
C152 C 0.3964 0.93852 0.89239 0.0
C153 C 0.37264 0.92563 0.91339 0.0
C154 C 0.35853 0.88919 0.89888 0.0
C155 C 0.36884 0.86577 0.86385 0.0
C156 C 0.40588 0.91467 0.85608 0.0
C157 C 0.39232 0.87852 0.84256 0.0
C158 C 0.50868 0.03089 0.13136 0.0
C159 C 0.41096 0.97678 0.90906 0.0
H160 H 0.64725 0.11988 0.03293 0.0
H161 H 0.72079 0.06969 0.15192 0.0
H162 H 0.63146 0.03437 0.14762 0.0
H163 H 0.68509 0.02939 0.18569 0.0
H164 H 0.36525 0.94397 0.94131 0.0
H165 H 0.35822 0.83765 0.85122 0.0
H166 H 0.42351 0.92378 0.83747 0.0
H167 H 0.39982 0.86033 0.81473 0.0
Eu168 Eu 0.46498 0.51397 0.94648 0.0
C169 C 0.591 0.60815 0.18552 0.0
C170 C 0.59594 0.66458 0.1436 0.0
C171 C 0.619 0.66215 0.2774 0.0
C172 C 0.58436 0.62754 0.1277 0.0
C173 C 0.60905 0.62514 0.26097 0.0
C174 C 0.61247 0.68185 0.21878 0.0
C175 C 0.609 0.56765 0.29754 0.0
N176 N 0.58169 0.57242 0.16747 0.0
C177 C 0.59137 0.55202 0.22183 0.0
C178 C 0.61754 0.60437 0.31734 0.0
Eu179 Eu 0.55049 0.5478 0.0382 0.0
N180 N 0.56884 0.60996 0.05576 0.0
C181 C 0.56643 0.62753 -0.00271 0.0
C182 C 0.59171 0.68297 0.08352 0.0
C183 C 0.57739 0.66428 0.01011 0.0
H184 H 0.58469 0.52362 0.20697 0.0
H185 H 0.57461 0.67815 0.96331 0.0
H186 H 0.62121 0.71031 0.23211 0.0
H187 H 0.61596 0.55137 0.34055 0.0
H188 H 0.5553 0.61344 0.94026 0.0
H189 H 0.44058 0.38362 0.0211 0.0
H190 H 0.60021 0.71143 0.09331 0.0
H191 H 0.43097 0.53819 0.77761 0.0
H192 H 0.45994 0.44832 0.04424 0.0
H193 H 0.39984 0.51046 0.644 0.0
H194 H 0.63262 0.67573 0.33506 0.0
H195 H 0.41514 0.35036 0.8911 0.0
H196 H 0.39434 0.35149 0.75233 0.0
H197 H 0.63136 0.61641 0.37599 0.0
H198 H 0.38309 0.3861 0.64942 0.0
N199 N 0.44656 0.45182 0.9288 0.0
C200 C 0.44886 0.43424 0.98721 0.0
C201 C 0.42365 0.37881 0.90093 0.0
C202 C 0.41953 0.39721 0.84089 0.0
C203 C 0.43789 0.39749 0.97434 0.0
C204 C 0.43112 0.43425 0.85685 0.0
H205 H 0.38444 0.44542 0.60853 0.0
N206 N 0.43391 0.48938 0.81713 0.0
C207 C 0.40674 0.49417 0.68702 0.0
C208 C 0.42459 0.45365 0.79905 0.0
C209 C 0.42429 0.50979 0.76276 0.0
C210 C 0.39821 0.45745 0.66721 0.0
C211 C 0.40661 0.43667 0.72357 0.0
O212 O 0.42416 0.53584 0.91808 0.0
O213 O 0.50484 0.56384 0.00195 0.0
O214 O 0.5328 0.55566 0.12558 0.0
O215 O 0.48653 0.5115 0.07194 0.0
O216 O 0.46593 0.56827 0.91078 0.0
O217 O 0.43541 0.50442 0.0054 0.0
O218 O 0.59131 0.52593 0.06659 0.0
O219 O 0.51063 0.49805 0.98302 0.0
O220 O 0.48276 0.50595 0.85931 0.0
O221 O 0.52891 0.55026 0.91277 0.0
O222 O 0.54955 0.49341 0.07368 0.0
O223 O 0.57999 0.55724 0.97909 0.0
C224 C 0.49308 0.58592 0.96096 0.0
C225 C 0.38153 0.50179 0.93356 0.0
C226 C 0.3296 0.49152 0.93259 0.0
C227 C 0.3614 0.51103 0.96291 0.0
C228 C 0.31857 0.4635 0.87219 0.0
C229 C 0.3693 0.47366 0.87343 0.0
C230 C 0.33818 0.45478 0.84303 0.0
C231 C 0.50937 0.53403 0.13039 0.0
C232 C 0.41521 0.52082 0.9646 0.0
C233 C 0.39665 0.39966 0.70711 0.0
C234 C 0.40308 0.37995 0.7657 0.0
C235 C 0.52233 0.47586 0.02364 0.0
C236 C 0.63387 0.5598 0.05064 0.0
C237 C 0.65403 0.55007 0.02189 0.0
C238 C 0.68583 0.56953 0.05188 0.0
C239 C 0.69684 0.59798 0.11137 0.0
C240 C 0.64609 0.58836 0.10987 0.0
C241 C 0.67721 0.60718 0.13996 0.0
C242 C 0.50615 0.52761 0.85441 0.0
C243 C 0.60019 0.54083 0.01987 0.0
H244 H 0.37049 0.53269 0.00946 0.0
H245 H 0.29443 0.44837 0.84666 0.0
H246 H 0.38381 0.46625 0.84957 0.0
H247 H 0.32917 0.4332 0.79641 0.0
H248 H 0.64496 0.52808 0.97604 0.0
H249 H 0.72099 0.6131 0.13664 0.0
H250 H 0.63155 0.59615 0.13323 0.0
H251 H 0.68621 0.6291 0.18588 0.0
C252 C 0.99018 0.55135 0.73177 0.0
C253 C 0.99741 0.5235 0.77144 0.0
C254 C 0.99211 0.55257 0.66343 0.0
C255 C 0.0295 0.51784 0.5543 0.0
H256 H 0.96851 0.54884 0.38785 0.0
C257 C 0.02459 0.50604 0.256 0.0
C258 C 0.01762 0.53395 0.21633 0.0
C259 C 0.02283 0.50511 0.32456 0.0
C260 C 0.98598 0.5405 0.43407 0.0
H261 H 0.01236 0.4751 0.76954 0.0
H262 H 0.01482 0.47675 0.65046 0.0
H263 H 0.96331 0.54655 0.50438 0.0
H264 H 1.00343 0.58286 0.21858 0.0
H265 H 1.0011 0.58158 0.33795 0.0
H266 H 0.05214 0.51172 0.4839 0.0
C267 C 0.00806 0.49794 0.67238 0.0
C268 C 0.98297 0.53919 0.50099 0.0
C269 C 1.00619 0.49675 0.74048 0.0
C270 C 0.00931 0.5611 0.24756 0.0
C271 C 1.00755 0.56016 0.31585 0.0
C272 C 0.03249 0.51911 0.48736 0.0
C273 C 1.0014 0.52604 0.63325 0.0
C274 C 1.00467 0.52779 0.562 0.0
C275 C 0.01394 0.53198 0.35494 0.0
C276 C 0.01078 0.53048 0.42633 0.0
H277 H 0.98354 0.57254 0.75404 0.0
H278 H 0.98708 0.57481 0.63524 0.0
H279 H 0.04699 0.5095 0.60049 0.0
H280 H 0.03091 0.48459 0.23358 0.0
H281 H 0.02765 0.48283 0.35278 0.0
C282 C 0.48671 1.00386 0.21456 0.0
C283 C 0.50848 0.03018 0.20543 0.0
C284 C 0.4864 1.0035 0.28452 0.0
C285 C 0.51167 0.06109 0.46562 0.0
H286 H 0.49985 0.97256 0.53802 0.0
C287 C 0.52896 0.05468 0.76972 0.0
C288 C 0.50647 0.02936 0.77874 0.0
C289 C 0.52919 0.05466 0.69966 0.0
C290 C 0.50287 0.99745 0.51821 0.0
H291 H 0.54666 0.07711 0.26216 0.0
H292 H 0.54661 0.07597 0.38438 0.0
H293 H 0.50017 0.97266 0.41556 0.0
H294 H 0.46697 0.98371 0.72175 0.0
H295 H 0.46719 0.98395 0.59937 0.0
H296 H 0.51451 0.08587 0.56843 0.0
C297 C 0.52958 0.05579 0.33743 0.0
C298 C 0.50302 0.9975 0.44806 0.0
C299 C 0.52985 0.05618 0.26754 0.0
C300 C 0.48442 1.00381 0.71647 0.0
C301 C 0.48471 1.00372 0.64652 0.0
C302 C 0.5116 0.06103 0.53581 0.0
C303 C 0.50783 0.02949 0.34672 0.0
C304 C 0.50745 0.02933 0.42101 0.0
C305 C 0.50705 0.02919 0.63731 0.0
C306 C 0.50721 0.02922 0.56285 0.0
H307 H 0.46988 0.98352 0.16768 0.0
H308 H 0.46909 0.98314 0.28961 0.0
H309 H 0.51462 0.08599 0.44585 0.0
H310 H 0.54632 0.07465 0.81668 0.0
H311 H 0.54693 0.07435 0.69448 0.0
C312 C 0.48617 0.50087 0.71848 0.0
C313 C 0.5064 0.52782 0.7799 0.0
C314 C 0.48636 0.50148 0.64825 0.0
C315 C 0.51071 0.56187 0.53603 0.0
H316 H 0.50305 0.47514 0.41657 0.0
C317 C 0.52945 0.56062 0.26644 0.0
C318 C 0.50916 0.53374 0.20493 0.0
C319 C 0.52928 0.55996 0.33668 0.0
C320 C 0.50488 0.49957 0.4488 0.0
H321 H 0.5431 0.57632 0.8155 0.0
H322 H 0.54374 0.57707 0.6939 0.0
H323 H 0.50205 0.47364 0.53802 0.0
H324 H 0.4724 0.48529 0.1692 0.0
H325 H 0.4718 0.48445 0.29085 0.0
H326 H 0.51354 0.5878 0.44682 0.0
C327 C 0.52727 0.55577 0.69945 0.0
C328 C 0.50428 0.49869 0.51851 0.0
C329 C 0.52706 0.55517 0.76953 0.0
C330 C 0.48848 0.50639 0.21524 0.0
C331 C 0.48829 0.50573 0.28534 0.0
C332 C 0.51132 0.56274 0.46633 0.0
C333 C 0.50688 0.52901 0.63778 0.0
C334 C 0.5072 0.52984 0.5631 0.0
C335 C 0.50872 0.53245 0.34708 0.0
C336 C 0.5084 0.5316 0.42175 0.0
H337 H 0.47026 0.47913 0.72463 0.0
H338 H 0.47016 0.48056 0.60193 0.0
H339 H 0.51253 0.5863 0.56824 0.0
H340 H 0.54538 0.58235 0.26035 0.0
H341 H 0.54552 0.58084 0.38306 0.0
C342 C 0.08718 0.51667 0.96798 0.0
C343 C 0.08976 0.53269 0.03667 0.0
C344 C 0.11376 0.51209 0.96068 0.0
C345 C 0.20084 0.54697 0.04842 0.0
H346 H 0.19715 0.46321 0.92704 0.0
C347 C 0.30187 0.53284 0.96835 0.0
C348 C 0.30697 0.49902 0.96131 0.0
C349 C 0.27663 0.53782 0.982 0.0
C350 C 0.19885 0.48674 0.96178 0.0
H351 H 0.12265 0.557 0.15102 0.0
H352 H 0.16884 0.54894 0.13876 0.0
H353 H 0.15109 0.46889 0.94181 0.0
H354 H 0.2905 0.44444 0.9683 0.0
H355 H 0.24741 0.45309 -0.00687 0.0
H356 H 0.24878 0.56459 0.06908 0.0
C357 C 0.14631 0.53986 0.0902 0.0
C358 C 0.17211 0.49019 0.96948 0.0
C359 C 0.11973 0.54424 0.09752 0.0
C360 C 0.28715 0.47082 0.97233 0.0
C361 C 0.26211 0.47574 0.98593 0.0
C362 C 0.22759 0.54358 0.04043 0.0
C363 C 0.14389 0.52396 0.02148 0.0
C364 C 0.1726 0.52031 0.01311 0.0
C365 C 0.2558 0.50911 0.98904 0.0
C366 C 0.22715 0.51331 -0.00274 0.0
H367 H 0.0647 0.5083 0.91923 0.0
H368 H 0.11073 0.50012 0.90649 0.0
H369 H 0.20226 0.57081 0.08174 0.0
H370 H 0.3164 0.55511 0.95955 0.0
H371 H 0.2727 0.56396 0.98384 0.0
C372 C 0.73091 0.11075 0.05254 0.0
C373 C 0.7085 0.12248 0.06836 0.0
C374 C 0.75238 0.13405 0.03709 0.0
C375 C 0.78772 0.22999 0.06 0.0
H376 H 0.82108 0.19592 0.93011 0.0
C377 C 0.87655 0.31837 0.97817 0.0
C378 C 0.90392 0.30683 -0.00461 0.0
C379 C 0.85073 0.29704 0.98205 0.0
C380 C 0.81189 0.20574 0.96641 0.0
H381 H 0.69097 0.16821 0.07873 0.0
H382 H 0.72725 0.2083 0.04781 0.0
H383 H 0.77847 0.15663 0.94232 0.0
H384 H 0.92536 0.26369 0.03174 0.0
H385 H 0.87984 0.22612 0.03482 0.0
H386 H 0.82099 0.27944 0.08237 0.0
C387 C 0.72884 0.18124 0.0495 0.0
C388 C 0.78763 0.18321 0.97397 0.0
C389 C 0.70762 0.15801 0.0661 0.0
C390 C 0.90459 0.27329 0.0162 0.0
C391 C 0.87858 0.25176 0.01849 0.0
C392 C 0.81161 0.25272 0.05122 0.0
C393 C 0.75178 0.16969 0.03565 0.0
C394 C 0.77565 0.19474 0.02222 0.0
C395 C 0.85148 0.26345 0.00164 0.0
C396 C 0.8243 0.24055 0.00556 0.0
H397 H 0.73202 0.08349 0.05232 0.0
H398 H 0.76989 0.12412 0.02793 0.0
H399 H 0.77952 0.23981 0.09845 0.0
H400 H 0.87481 0.34367 0.9606 0.0
H401 H 0.82996 0.30651 0.96846 0.0
C402 C 0.51169 0.91712 0.04124 0.0
C403 C 0.50429 0.92981 0.97231 0.0
C404 C 0.51364 0.88145 0.04707 0.0
C405 C 0.51634 0.79797 0.93737 0.0
H406 H 0.49764 0.74948 0.08228 0.0
C407 C 0.49389 0.64343 0.90996 0.0
C408 C 0.50156 0.62639 0.97347 0.0
C409 C 0.49693 0.68031 0.91561 0.0
C410 C 0.50329 0.76239 0.04161 0.0
H411 H 0.49202 0.91306 0.85521 0.0
H412 H 0.49507 0.85247 0.86451 0.0
H413 H 0.49774 0.81192 0.08154 0.0
H414 H 0.51757 0.63654 0.09401 0.0
H415 H 0.52307 0.7009 0.10444 0.0
H416 H 0.52171 0.7487 0.89703 0.0
C417 C 0.50046 0.86977 0.91551 0.0
C418 C 0.50336 0.79881 0.04116 0.0
C419 C 0.49849 0.90508 0.90984 0.0
C420 C 0.51215 0.64827 0.04364 0.0
C421 C 0.51488 0.68549 0.04933 0.0
C422 C 0.51612 0.76172 0.93759 0.0
C423 C 0.50806 0.85667 0.98413 0.0
C424 C 0.50949 0.81761 0.98827 0.0
C425 C 0.50724 0.70254 0.98519 0.0
C426 C 0.50921 0.74263 0.98899 0.0
H427 H 0.51553 0.93461 0.09063 0.0
H428 H 0.51971 0.87346 0.1015 0.0
H429 H 0.52224 0.8106 0.89679 0.0
H430 H 0.48493 0.62787 0.85455 0.0
H431 H 0.49007 0.69117 0.86407 0.0
C432 C 0.89543 0.51265 0.89016 0.0
C433 C 0.92544 0.52461 0.95071 0.0
C434 C 0.8689 0.51749 0.89715 0.0
C435 C 0.84324 0.56891 0.01574 0.0
H436 H 0.76663 0.49431 0.91899 0.0
C437 C 0.7283 0.58939 0.01175 0.0
C438 C 0.70849 0.56154 0.02367 0.0
C439 C 0.75333 0.58408 -0.0015 0.0
C440 C 0.78781 0.51538 0.94685 0.0
H441 H 0.95066 0.55038 0.06723 0.0
H442 H 0.90472 0.55932 0.0794 0.0
H443 H 0.81308 0.48745 0.90679 0.0
H444 H 0.69907 0.50564 0.02754 0.0
H445 H 0.74276 0.49613 0.00393 0.0
H446 H 0.81826 0.59659 0.05701 0.0
C447 C 0.9016 0.54663 0.02568 0.0
C448 C 0.81452 0.51163 0.9391 0.0
C449 C 0.92814 0.54161 0.0187 0.0
C450 C 0.7136 0.52765 0.01799 0.0
C451 C 0.73883 0.52229 0.00472 0.0
C452 C 0.81654 0.57272 0.02323 0.0
C453 C 0.87142 0.53429 0.96524 0.0
C454 C 0.84274 0.53835 0.97337 0.0
C455 C 0.75964 0.55067 -0.0033 0.0
C456 C 0.78826 0.54609 0.98876 0.0
H457 H 0.89243 0.49919 0.83717 0.0
H458 H 0.84633 0.50803 0.84884 0.0
H459 H 0.86425 0.59027 0.04259 0.0
H460 H 0.72494 0.6158 0.01473 0.0
H461 H 0.76801 0.60649 0.99051 0.0
C462 C 0.14359 0.73156 0.01586 0.0
C463 C 0.11641 0.74389 0.98756 0.0
C464 C 0.17048 0.74939 0.01148 0.0
C465 C 0.19625 0.81228 0.9063 0.0
H466 H 0.27864 0.81923 0.06604 0.0
C467 C 0.30804 0.89236 0.90096 0.0
C468 C 0.33244 0.87557 0.9179 0.0
C469 C 0.28243 0.87823 0.91418 0.0
C470 C 0.25578 0.81731 0.0208 0.0
H471 H 0.09646 0.78502 0.93324 0.0
H472 H 0.14361 0.81669 0.92767 0.0
H473 H 0.23248 0.79128 0.08067 0.0
H474 H 0.34964 0.83151 0.96443 0.0
H475 H 0.30482 0.80672 0.98716 0.0
H476 H 0.21958 0.8383 0.84651 0.0
C477 C 0.14396 0.79283 0.95205 0.0
C478 C 0.22932 0.80123 0.02906 0.0
C479 C 0.11702 0.77491 0.95613 0.0
C480 C 0.33105 0.84485 0.95015 0.0
C481 C 0.30553 0.83085 0.9638 0.0
C482 C 0.22269 0.8285 0.89826 0.0
C483 C 0.17095 0.78013 0.97905 0.0
C484 C 0.1992 0.79832 0.97169 0.0
C485 C 0.28075 0.84713 0.94506 0.0
C486 C 0.25275 0.83103 0.9552 0.0
H487 H 0.14414 0.70806 0.0415 0.0
H488 H 0.1907 0.73862 0.03218 0.0
H489 H 0.17347 0.80994 0.86037 0.0
H490 H 0.30832 0.9159 0.87552 0.0
H491 H 0.26384 0.89157 0.89986 0.0
C492 C 0.50335 0.41363 0.94077 0.0
C493 C 0.51368 0.4354 0.01092 0.0
C494 C 0.50052 0.37641 0.93491 0.0
C495 C 0.49778 0.29981 0.04464 0.0
H496 H 0.51869 0.25036 0.90487 0.0
C497 C 0.51455 0.15606 0.07262 0.0
C498 C 0.51033 0.13188 0.01102 0.0
C499 C 0.51251 0.19136 0.06698 0.0
C500 C 0.51232 0.26322 0.94401 0.0
H501 H 0.52968 0.43372 0.12963 0.0
H502 H 0.52422 0.37032 0.11972 0.0
H503 H 0.51888 0.3128 0.90424 0.0
H504 H 0.50188 0.12805 0.89452 0.0
H505 H 0.49754 0.18911 0.88355 0.0
H506 H 0.49069 0.25069 0.08392 0.0
C507 C 0.51773 0.38133 0.06838 0.0
C508 C 0.51247 0.29965 0.94363 0.0
C509 C 0.52094 0.41824 0.07424 0.0
C510 C 0.50444 0.14509 0.94309 0.0
C511 C 0.50242 0.18074 0.93728 0.0
C512 C 0.49741 0.26352 0.04469 0.0
C513 C 0.50774 0.35924 -0.00118 0.0
C514 C 0.50566 0.31915 -0.00519 0.0
C515 C 0.50648 0.20502 -0.00067 0.0
C516 C 0.50516 0.24412 -0.0047 0.0
H517 H 0.49825 0.42547 0.89059 0.0
H518 H 0.4926 0.36107 0.87986 0.0
H519 H 0.49153 0.31269 0.08405 0.0
H520 H 0.51985 0.14765 0.12657 0.0
H521 H 0.51667 0.20822 0.1174 0.0
loop_
_geom_bond_atom_site_label_1
_geom_bond_atom_site_label_2
_geom_bond_distance
_geom_bond_site_symmetry_2
_ccdc_geom_bond_type
Eu0 N31 2.657 1_656 S
Eu0 N38 2.609 . S
Eu0 O44 2.558 . S
Eu0 O45 2.613 . S
Eu0 O47 2.338 1_556 S
Eu0 O48 2.563 . S
Eu0 O49 2.419 1_556 S
Eu0 O51 2.380 1_656 S
Eu0 O52 2.432 . S
Eu0 C64 2.848 . S
C1 C4 1.429 . S
C1 C5 1.411 . S
C1 N8 1.377 1_655 S
C2 C4 1.420 1_556 S
C2 C6 1.423 1_556 S
C2 C14 1.392 . S
C3 C5 1.420 . S
C3 C6 1.351 . S
C3 H26 0.931 . S
C4 C1 1.429 . S
C4 C2 1.420 1_554 S
C4 N12 1.362 1_554 S
C5 C1 1.411 . S
C5 C3 1.420 . S
C5 C10 1.395 1_655 S
C6 C2 1.423 1_554 S
C6 C3 1.351 . S
C6 H18 0.930 1_554 S
C7 C9 1.400 . S
C7 C10 1.386 . S
C7 H19 0.930 . S
N8 C1 1.377 1_455 S
N8 C9 1.321 . S
N8 Eu11 2.609 . S
C9 C7 1.400 . S
C9 N8 1.321 . S
C9 H16 0.930 . S
C10 C5 1.395 1_455 S
C10 C7 1.386 . S
C10 H29 0.930 . S
Eu11 N8 2.609 . S
Eu11 N12 2.657 1_454 S
Eu11 O45 2.381 1_454 S
Eu11 O46 2.432 . S
Eu11 O50 2.558 . S
Eu11 O51 2.612 . S
Eu11 O53 2.339 1_554 S
Eu11 O54 2.563 . S
Eu11 O55 2.419 1_554 S
Eu11 C75 2.848 . S
N12 C4 1.362 1_556 S
N12 Eu11 2.657 1_656 S
N12 C13 1.334 . S
C13 N12 1.334 . S
C13 C15 1.413 . S
C13 H20 0.929 . S
C14 C2 1.392 . S
C14 C15 1.367 . S
C14 H22 0.930 . S
C15 C13 1.413 . S
C15 C14 1.367 . S
C15 H17 0.930 . S
H16 C9 0.930 . S
H17 C15 0.930 . S
H18 C6 0.930 1_556 S
H19 C7 0.930 . S
H20 C13 0.929 . S
H21 C35 0.930 . S
H22 C14 0.930 . S
H23 C41 0.930 . S
H24 C32 0.929 . S
H25 C39 0.930 . S
H26 C3 0.931 . S
H27 C33 0.930 . S
H28 C66 0.930 1_554 S
H29 C10 0.930 . S
H30 C65 0.931 . S
N31 Eu0 2.657 1_454 S
N31 C32 1.334 . S
N31 C36 1.362 1_554 S
C32 H24 0.929 . S
C32 N31 1.334 . S
C32 C35 1.413 . S
C33 H27 0.930 . S
C33 C34 1.392 . S
C33 C35 1.367 . S
C34 C33 1.392 . S
C34 C36 1.420 1_554 S
C34 C66 1.423 1_554 S
C35 H21 0.930 . S
C35 C32 1.413 . S
C35 C33 1.367 . S
C36 N31 1.362 1_556 S
C36 C34 1.420 1_556 S
C36 C40 1.429 . S
H37 C42 0.930 . S
N38 Eu0 2.609 . S
N38 C40 1.377 1_655 S
N38 C41 1.321 . S
C39 H25 0.930 . S
C39 C41 1.400 . S
C39 C42 1.386 . S
C40 C36 1.429 . S
C40 N38 1.377 1_455 S
C40 C43 1.411 . S
C41 H23 0.930 . S
C41 N38 1.321 . S
C41 C39 1.400 . S
C42 H37 0.930 . S
C42 C39 1.386 . S
C42 C43 1.395 1_655 S
C43 C40 1.411 . S
C43 C42 1.395 1_455 S
C43 C65 1.420 . S
O44 Eu0 2.558 . S
O44 C64 1.257 . S
O45 Eu0 2.613 . S
O45 Eu11 2.381 1_656 S
O45 C56 1.275 . S
O46 Eu11 2.432 . S
O46 C63 1.264 . S
O47 Eu0 2.338 1_554 S
O47 C63 1.254 1_655 S
O48 Eu0 2.563 . S
O48 C56 1.235 . S
O49 Eu0 2.419 1_554 S
O49 C64 1.249 1_554 S
O50 Eu11 2.558 . S
O50 C75 1.257 . S
O51 Eu0 2.380 1_454 S
O51 Eu11 2.612 . S
O51 C67 1.276 . S
O52 Eu0 2.432 . S
O52 C74 1.264 . S
O53 Eu11 2.339 1_556 S
O53 C74 1.254 1_455 S
O54 Eu11 2.563 . S
O54 C67 1.235 . S
O55 Eu11 2.419 1_556 S
O55 C75 1.249 1_556 S
C56 O45 1.275 . S
C56 O48 1.235 . S
C57 C59 1.393 . S
C57 C61 1.395 . S
C57 C64 1.492 . S
C58 C59 1.392 . S
C58 C60 1.386 . S
C59 C57 1.393 . S
C59 C58 1.392 . S
C59 H76 0.930 1_556 S
C60 C58 1.386 . S
C60 C62 1.395 . S
C60 H77 0.930 . S
C61 C57 1.395 . S
C61 C62 1.379 . S
C61 H78 0.930 . S
C62 C60 1.395 . S
C62 C61 1.379 . S
C62 H79 0.930 . S
C63 O46 1.264 . S
C63 O47 1.254 1_455 S
C64 Eu0 2.848 . S
C64 O44 1.257 . S
C64 O49 1.249 1_556 S
C64 C57 1.492 . S
C65 H30 0.931 . S
C65 C43 1.420 . S
C65 C66 1.351 . S
C66 H28 0.930 1_556 S
C66 C34 1.423 1_556 S
C66 C65 1.351 . S
C67 O51 1.276 . S
C67 O54 1.235 . S
C68 C69 1.393 . S
C68 C72 1.395 . S
C68 C75 1.492 . S
C69 C68 1.393 . S
C69 C70 1.392 . S
C69 H80 0.930 1_554 S
C70 C69 1.392 . S
C70 C71 1.386 . S
C71 C70 1.386 . S
C71 C73 1.395 . S
C71 H81 0.930 . S
C72 C68 1.395 . S
C72 C73 1.379 . S
C72 H82 0.930 . S
C73 C71 1.395 . S
C73 C72 1.379 . S
C73 H83 0.930 . S
C74 O52 1.264 . S
C74 O53 1.254 1_655 S
C75 Eu11 2.848 . S
C75 O50 1.257 . S
C75 O55 1.249 1_554 S
C75 C68 1.492 . S
H76 C59 0.930 1_554 S
H77 C60 0.930 . S
H78 C61 0.930 . S
H79 C62 0.930 . S
H80 C69 0.930 1_556 S
H81 C71 0.930 . S
H82 C72 0.930 . S
H83 C73 0.930 . S
Eu84 N115 2.657 1_545 S
Eu84 N122 2.609 1_545 S
Eu84 O128 2.558 . S
Eu84 O129 2.612 1_554 S
Eu84 O131 2.339 1_554 S
Eu84 O132 2.563 . S
Eu84 O133 2.419 . S
Eu84 O135 2.380 1_545 S
Eu84 O136 2.432 . S
Eu84 C148 2.848 . S
C85 C88 1.429 . S
C85 C89 1.411 . S
C85 N92 1.377 . S
C86 C88 1.420 . S
C86 C90 1.423 . S
C86 C98 1.392 1_556 S
C87 C89 1.420 . S
C87 C90 1.351 . S
C87 H110 0.931 . S
C88 C85 1.429 . S
C88 C86 1.420 . S
C88 N96 1.362 . S
C89 C85 1.411 . S
C89 C87 1.420 . S
C89 C94 1.395 . S
C90 C86 1.423 . S
C90 C87 1.351 . S
C90 H102 0.930 . S
C91 C93 1.400 . S
C91 C94 1.386 1_565 S
C91 H103 0.930 . S
N92 C85 1.377 . S
N92 C93 1.321 1_545 S
N92 Eu95 2.609 1_545 S
C93 C91 1.400 . S
C93 N92 1.321 1_565 S
C93 H100 0.930 . S
C94 C89 1.395 . S
C94 C91 1.386 1_545 S
C94 H113 0.930 . S
Eu95 N92 2.609 1_565 S
Eu95 N96 2.657 1_565 S
Eu95 O129 2.380 1_565 S
Eu95 O130 2.432 . S
Eu95 O134 2.558 . S
Eu95 O135 2.612 1_556 S
Eu95 O137 2.339 1_556 S
Eu95 O138 2.563 . S
Eu95 O139 2.419 . S
Eu95 C159 2.848 . S
N96 C88 1.362 . S
N96 Eu95 2.657 1_545 S
N96 C97 1.334 1_556 S
C97 N96 1.334 1_554 S
C97 C99 1.413 . S
C97 H104 0.929 . S
C98 C86 1.392 1_554 S
C98 C99 1.367 . S
C98 H106 0.930 . S
C99 C97 1.413 . S
C99 C98 1.367 . S
C99 H101 0.930 . S
H100 C93 0.930 . S
H101 C99 0.930 . S
H102 C90 0.930 . S
H103 C91 0.930 . S
H104 C97 0.929 . S
H105 C119 0.930 . S
H106 C98 0.930 . S
H107 C125 0.930 . S
H108 C116 0.929 . S
H109 C123 0.930 . S
H110 C87 0.931 . S
H111 C117 0.930 . S
H112 C150 0.930 . S
H113 C94 0.930 . S
H114 C149 0.931 . S
N115 Eu84 2.657 1_565 S
N115 C116 1.334 1_554 S
N115 C120 1.362 . S
C116 H108 0.929 . S
C116 N115 1.334 1_556 S
C116 C119 1.413 . S
C117 H111 0.930 . S
C117 C118 1.392 1_556 S
C117 C119 1.367 . S
C118 C117 1.392 1_554 S
C118 C120 1.420 . S
C118 C150 1.423 . S
C119 H105 0.930 . S
C119 C116 1.413 . S
C119 C117 1.367 . S
C120 N115 1.362 . S
C120 C118 1.420 . S
C120 C124 1.429 . S
H121 C126 0.930 . S
N122 Eu84 2.609 1_565 S
N122 C124 1.377 . S
N122 C125 1.321 1_565 S
C123 H109 0.930 . S
C123 C125 1.400 . S
C123 C126 1.386 1_545 S
C124 C120 1.429 . S
C124 N122 1.377 . S
C124 C127 1.411 . S
C125 H107 0.930 . S
C125 N122 1.321 1_545 S
C125 C123 1.400 . S
C126 H121 0.930 . S
C126 C123 1.386 1_565 S
C126 C127 1.395 . S
C127 C124 1.411 . S
C127 C126 1.395 . S
C127 C149 1.420 . S
O128 Eu84 2.558 . S
O128 C148 1.257 . S
O129 Eu84 2.612 1_556 S
O129 Eu95 2.380 1_545 S
O129 C140 1.276 . S
O130 Eu95 2.432 . S
O130 C147 1.259 1_565 S
O131 Eu84 2.339 1_556 S
O131 C147 1.252 . S
O132 Eu84 2.563 . S
O132 C140 1.235 1_554 S
O133 Eu84 2.419 . S
O133 C148 1.249 . S
O134 Eu95 2.558 . S
O134 C159 1.257 . S
O135 Eu84 2.380 1_565 S
O135 Eu95 2.612 1_554 S
O135 C151 1.276 . S
O136 Eu84 2.432 . S
O136 C158 1.262 1_545 S
O137 Eu95 2.339 1_554 S
O137 C158 1.253 . S
O138 Eu95 2.563 . S
O138 C151 1.235 1_556 S
O139 Eu95 2.419 . S
O139 C159 1.249 . S
C140 O129 1.276 . S
C140 O132 1.235 1_556 S
C141 C143 1.393 . S
C141 C145 1.395 . S
C141 C148 1.492 . S
C142 C143 1.392 . S
C142 C144 1.386 . S
C143 C141 1.393 . S
C143 C142 1.392 . S
C143 H160 0.930 1_554 S
C144 C142 1.386 . S
C144 C146 1.395 . S
C144 H161 0.930 . S
C145 C141 1.395 . S
C145 C146 1.379 . S
C145 H162 0.930 . S
C146 C144 1.395 . S
C146 C145 1.379 . S
C146 H163 0.930 . S
C147 O130 1.259 1_545 S
C147 O131 1.252 . S
C148 Eu84 2.848 . S
C148 O128 1.257 . S
C148 O133 1.249 . S
C148 C141 1.492 . S
C149 H114 0.931 . S
C149 C127 1.420 . S
C149 C150 1.351 . S
C150 H112 0.930 . S
C150 C118 1.423 . S
C150 C149 1.351 . S
C151 O135 1.276 . S
C151 O138 1.235 1_554 S
C152 C153 1.393 . S
C152 C156 1.395 . S
C152 C159 1.492 . S
C153 C152 1.393 . S
C153 C154 1.392 . S
C153 H164 0.930 1_556 S
C154 C153 1.392 . S
C154 C155 1.386 . S
C155 C154 1.386 . S
C155 C157 1.395 . S
C155 H165 0.930 . S
C156 C152 1.395 . S
C156 C157 1.379 . S
C156 H166 0.930 . S
C157 C155 1.395 . S
C157 C156 1.379 . S
C157 H167 0.930 . S
C158 O136 1.262 1_565 S
C158 O137 1.253 . S
C159 Eu95 2.848 . S
C159 O134 1.257 . S
C159 O139 1.249 . S
C159 C152 1.492 . S
H160 C143 0.930 1_556 S
H161 C144 0.930 . S
H162 C145 0.930 . S
H163 C146 0.930 . S
H164 C153 0.930 1_554 S
H165 C155 0.930 . S
H166 C156 0.930 . S
H167 C157 0.930 . S
Eu168 N199 2.657 . S
Eu168 N206 2.609 . S
Eu168 O212 2.558 . S
Eu168 O213 2.612 1_556 S
Eu168 O215 2.339 1_556 S
Eu168 O216 2.563 . S
Eu168 O217 2.419 . S
Eu168 O219 2.380 . S
Eu168 O220 2.432 . S
Eu168 C232 2.848 . S
C169 C172 1.429 . S
C169 C173 1.411 . S
C169 N176 1.377 . S
C170 C172 1.420 . S
C170 C174 1.423 . S
C170 C182 1.392 1_554 S
C171 C173 1.420 . S
C171 C174 1.351 . S
C171 H194 0.931 . S
C172 C169 1.429 . S
C172 C170 1.420 . S
C172 N180 1.362 . S
C173 C169 1.411 . S
C173 C171 1.420 . S
C173 C178 1.395 . S
C174 C170 1.423 . S
C174 C171 1.351 . S
C174 H186 0.930 . S
C175 C177 1.400 . S
C175 C178 1.386 . S
C175 H187 0.930 . S
N176 C169 1.377 . S
N176 C177 1.321 . S
N176 Eu179 2.609 . S
C177 C175 1.400 . S
C177 N176 1.321 . S
C177 H184 0.930 . S
C178 C173 1.395 . S
C178 C175 1.386 . S
C178 H197 0.930 . S
Eu179 N176 2.609 . S
Eu179 N180 2.657 . S
Eu179 O213 2.380 . S
Eu179 O214 2.432 . S
Eu179 O218 2.558 . S
Eu179 O219 2.612 1_554 S
Eu179 O221 2.339 1_554 S
Eu179 O222 2.563 . S
Eu179 O223 2.419 . S
Eu179 C243 2.848 . S
N180 C172 1.362 . S
N180 Eu179 2.657 . S
N180 C181 1.334 1_554 S
C181 N180 1.334 1_556 S
C181 C183 1.413 . S
C181 H188 0.929 . S
C182 C170 1.392 1_556 S
C182 C183 1.367 . S
C182 H190 0.930 . S
C183 C181 1.413 . S
C183 C182 1.367 . S
C183 H185 0.930 . S
H184 C177 0.930 . S
H185 C183 0.930 . S
H186 C174 0.930 . S
H187 C175 0.930 . S
H188 C181 0.929 . S
H189 C203 0.930 . S
H190 C182 0.930 . S
H191 C209 0.930 . S
H192 C200 0.929 . S
H193 C207 0.930 . S
H194 C171 0.931 . S
H195 C201 0.930 . S
H196 C234 0.930 . S
H197 C178 0.930 . S
H198 C233 0.931 . S
N199 Eu168 2.657 . S
N199 C200 1.334 1_556 S
N199 C204 1.362 . S
C200 H192 0.929 . S
C200 N199 1.334 1_554 S
C200 C203 1.413 . S
C201 H195 0.930 . S
C201 C202 1.392 1_554 S
C201 C203 1.367 . S
C202 C201 1.392 1_556 S
C202 C204 1.420 . S
C202 C234 1.423 . S
C203 H189 0.930 . S
C203 C200 1.413 . S
C203 C201 1.367 . S
C204 N199 1.362 . S
C204 C202 1.420 . S
C204 C208 1.429 . S
H205 C210 0.930 . S
N206 Eu168 2.609 . S
N206 C208 1.377 . S
N206 C209 1.321 . S
C207 H193 0.930 . S
C207 C209 1.400 . S
C207 C210 1.386 . S
C208 C204 1.429 . S
C208 N206 1.377 . S
C208 C211 1.411 . S
C209 H191 0.930 . S
C209 N206 1.321 . S
C209 C207 1.400 . S
C210 H205 0.930 . S
C210 C207 1.386 . S
C210 C211 1.395 . S
C211 C208 1.411 . S
C211 C210 1.395 . S
C211 C233 1.420 . S
O212 Eu168 2.558 . S
O212 C232 1.257 . S
O213 Eu168 2.612 1_554 S
O213 Eu179 2.380 . S
O213 C224 1.276 . S
O214 Eu179 2.432 . S
O214 C231 1.264 . S
O215 Eu168 2.339 1_554 S
O215 C231 1.254 . S
O216 Eu168 2.563 . S
O216 C224 1.235 1_556 S
O217 Eu168 2.419 . S
O217 C232 1.249 . S
O218 Eu179 2.558 . S
O218 C243 1.257 . S
O219 Eu168 2.380 . S
O219 Eu179 2.612 1_556 S
O219 C235 1.276 . S
O220 Eu168 2.432 . S
O220 C242 1.264 . S
O221 Eu179 2.339 1_556 S
O221 C242 1.254 . S
O222 Eu179 2.563 . S
O222 C235 1.235 1_554 S
O223 Eu179 2.419 . S
O223 C243 1.249 . S
C224 O213 1.276 . S
C224 O216 1.235 1_554 S
C225 C227 1.393 . S
C225 C229 1.395 . S
C225 C232 1.492 . S
C226 C227 1.392 . S
C226 C228 1.386 . S
C227 C225 1.393 . S
C227 C226 1.392 . S
C227 H244 0.930 1_556 S
C228 C226 1.386 . S
C228 C230 1.395 . S
C228 H245 0.930 . S
C229 C225 1.395 . S
C229 C230 1.379 . S
C229 H246 0.930 . S
C230 C228 1.395 . S
C230 C229 1.379 . S
C230 H247 0.930 . S
C231 O214 1.264 . S
C231 O215 1.254 . S
C232 Eu168 2.848 . S
C232 O212 1.257 . S
C232 O217 1.249 . S
C232 C225 1.492 . S
C233 H198 0.931 . S
C233 C211 1.420 . S
C233 C234 1.351 . S
C234 H196 0.930 . S
C234 C202 1.423 . S
C234 C233 1.351 . S
C235 O219 1.276 . S
C235 O222 1.235 1_556 S
C236 C237 1.393 . S
C236 C240 1.395 . S
C236 C243 1.492 . S
C237 C236 1.393 . S
C237 C238 1.392 . S
C237 H248 0.930 1_554 S
C238 C237 1.392 . S
C238 C239 1.386 . S
C239 C238 1.386 . S
C239 C241 1.395 . S
C239 H249 0.930 . S
C240 C236 1.395 . S
C240 C241 1.379 . S
C240 H250 0.930 . S
C241 C239 1.395 . S
C241 C240 1.379 . S
C241 H251 0.930 . S
C242 O220 1.264 . S
C242 O221 1.254 . S
C243 Eu179 2.848 . S
C243 O218 1.257 . S
C243 O223 1.249 . S
C243 C236 1.492 . S
H244 C227 0.930 1_554 S
H245 C228 0.930 . S
H246 C229 0.930 . S
H247 C230 0.930 . S
H248 C237 0.930 1_556 S
H249 C239 0.930 . S
H250 C240 0.930 . S
H251 C241 0.930 . S
C252 C253 1.339 1_455 S
C252 C254 1.327 . S
C252 H277 0.950 . S
C253 C252 1.339 1_655 S
C253 C269 1.353 . S
C254 C252 1.327 . S
C254 C273 1.434 . S
C254 H278 0.950 . S
C255 C272 1.574 . S
C255 C274 1.368 1_655 S
C255 H279 0.949 . S
H256 C260 0.949 . S
C257 C258 1.349 1_655 S
C257 C259 1.327 . S
C257 H280 0.950 . S
C258 C257 1.349 1_455 S
C258 C270 1.349 . S
C259 C257 1.327 . S
C259 C275 1.429 1_655 S
C259 H281 0.950 . S
C260 H256 0.949 . S
C260 C268 1.574 . S
C260 C276 1.368 . S
H261 C269 0.950 . S
H262 C267 0.950 . S
H263 C268 0.949 . S
H264 C270 0.950 . S
H265 C271 0.950 . S
H266 C272 0.949 . S
C267 H262 0.950 . S
C267 C269 1.327 . S
C267 C273 1.414 1_655 S
C268 C260 1.574 . S
C268 H263 0.949 . S
C268 C274 1.368 . S
C269 C253 1.353 . S
C269 H261 0.950 . S
C269 C267 1.327 . S
C270 C258 1.349 . S
C270 H264 0.950 . S
C270 C271 1.327 . S
C271 H265 0.950 . S
C271 C270 1.327 . S
C271 C275 1.429 . S
C272 C255 1.574 . S
C272 H266 0.949 . S
C272 C276 1.368 1_655 S
C273 C254 1.434 . S
C273 C267 1.414 1_455 S
C273 C274 1.532 . S
C274 C255 1.368 1_455 S
C274 C268 1.368 . S
C274 C273 1.532 . S
C275 C259 1.429 1_455 S
C275 C271 1.429 . S
C275 C276 1.523 . S
C276 C260 1.368 . S
C276 C272 1.368 1_455 S
C276 C275 1.523 . S
H277 C252 0.950 . S
H278 C254 0.950 . S
H279 C255 0.949 . S
H280 C257 0.950 . S
H281 C259 0.950 . S
C282 C283 1.349 . S
C282 C284 1.327 . S
C282 H307 0.950 . S
C283 C282 1.349 . S
C283 C299 1.349 1_565 S
C284 C282 1.327 . S
C284 C303 1.429 . S
C284 H308 0.950 . S
C285 C302 1.574 . S
C285 C304 1.368 1_545 S
C285 H309 0.949 . S
H286 C290 0.949 . S
C287 C288 1.349 . S
C287 C289 1.327 . S
C287 H310 0.950 . S
C288 C287 1.349 . S
C288 C300 1.349 1_545 S
C289 C287 1.327 . S
C289 C305 1.429 . S
C289 H311 0.950 . S
C290 H286 0.949 . S
C290 C298 1.574 . S
C290 C306 1.368 1_565 S
H291 C299 0.950 . S
H292 C297 0.950 . S
H293 C298 0.949 . S
H294 C300 0.950 . S
H295 C301 0.950 . S
H296 C302 0.949 . S
C297 H292 0.950 . S
C297 C299 1.327 . S
C297 C303 1.429 1_545 S
C298 C290 1.574 . S
C298 H293 0.949 . S
C298 C304 1.368 . S
C299 C283 1.349 1_545 S
C299 H291 0.950 . S
C299 C297 1.327 . S
C300 C288 1.349 1_565 S
C300 H294 0.950 . S
C300 C301 1.327 . S
C301 H295 0.950 . S
C301 C300 1.327 . S
C301 C305 1.429 1_565 S
C302 C285 1.574 . S
C302 H296 0.949 . S
C302 C306 1.368 . S
C303 C284 1.429 . S
C303 C297 1.429 1_565 S
C303 C304 1.523 . S
C304 C285 1.368 1_565 S
C304 C298 1.368 . S
C304 C303 1.523 . S
C305 C289 1.429 . S
C305 C301 1.429 1_545 S
C305 C306 1.523 . S
C306 C290 1.368 1_545 S
C306 C302 1.368 . S
C306 C305 1.523 . S
H307 C282 0.950 . S
H308 C284 0.950 . S
H309 C285 0.949 . S
H310 C287 0.950 . S
H311 C289 0.950 . S
C312 C313 1.349 . S
C312 C314 1.327 . S
C312 H337 0.950 . S
C313 C312 1.349 . S
C313 C329 1.349 . S
C314 C312 1.327 . S
C314 C333 1.429 . S
C314 H338 0.950 . S
C315 C332 1.574 . S
C315 C334 1.368 . S
C315 H339 0.949 . S
H316 C320 0.949 . S
C317 C318 1.349 . S
C317 C319 1.327 . S
C317 H340 0.950 . S
C318 C317 1.349 . S
C318 C330 1.349 . S
C319 C317 1.327 . S
C319 C335 1.429 . S
C319 H341 0.950 . S
C320 H316 0.949 . S
C320 C328 1.574 . S
C320 C336 1.368 . S
H321 C329 0.950 . S
H322 C327 0.950 . S
H323 C328 0.949 . S
H324 C330 0.950 . S
H325 C331 0.950 . S
H326 C332 0.949 . S
C327 H322 0.950 . S
C327 C329 1.327 . S
C327 C333 1.429 . S
C328 C320 1.574 . S
C328 H323 0.949 . S
C328 C334 1.368 . S
C329 C313 1.349 . S
C329 H321 0.950 . S
C329 C327 1.327 . S
C330 C318 1.349 . S
C330 H324 0.950 . S
C330 C331 1.327 . S
C331 H325 0.950 . S
C331 C330 1.327 . S
C331 C335 1.429 . S
C332 C315 1.574 . S
C332 H326 0.949 . S
C332 C336 1.368 . S
C333 C314 1.429 . S
C333 C327 1.429 . S
C333 C334 1.523 . S
C334 C315 1.368 . S
C334 C328 1.368 . S
C334 C333 1.523 . S
C335 C319 1.429 . S
C335 C331 1.429 . S
C335 C336 1.523 . S
C336 C320 1.368 . S
C336 C332 1.368 . S
C336 C335 1.523 . S
H337 C312 0.950 . S
H338 C314 0.950 . S
H339 C315 0.949 . S
H340 C317 0.950 . S
H341 C319 0.950 . S
C342 C343 1.349 1_556 S
C342 C344 1.327 . S
C342 H367 0.950 . S
C343 C342 1.349 1_554 S
C343 C359 1.349 . S
C344 C342 1.327 . S
C344 C363 1.429 1_556 S
C344 H368 0.950 . S
C345 C362 1.574 . S
C345 C364 1.368 . S
C345 H369 0.949 . S
H346 C350 0.949 . S
C347 C348 1.349 1_554 S
C347 C349 1.327 . S
C347 H370 0.950 . S
C348 C347 1.349 1_556 S
C348 C360 1.349 . S
C349 C347 1.327 . S
C349 C365 1.429 . S
C349 H371 0.950 . S
C350 H346 0.949 . S
C350 C358 1.574 . S
C350 C366 1.368 1_556 S
H351 C359 0.950 . S
H352 C357 0.950 . S
H353 C358 0.949 . S
H354 C360 0.950 . S
H355 C361 0.950 . S
H356 C362 0.949 . S
C357 H352 0.950 . S
C357 C359 1.327 . S
C357 C363 1.429 . S
C358 C350 1.574 . S
C358 H353 0.949 . S
C358 C364 1.368 1_556 S
C359 C343 1.349 . S
C359 H351 0.950 . S
C359 C357 1.327 . S
C360 C348 1.349 . S
C360 H354 0.950 . S
C360 C361 1.327 . S
C361 H355 0.950 . S
C361 C360 1.327 . S
C361 C365 1.429 1_556 S
C362 C345 1.574 . S
C362 H356 0.949 . S
C362 C366 1.368 . S
C363 C344 1.429 1_554 S
C363 C357 1.429 . S
C363 C364 1.523 . S
C364 C345 1.368 . S
C364 C358 1.368 1_554 S
C364 C363 1.523 . S
C365 C349 1.429 . S
C365 C361 1.429 1_554 S
C365 C366 1.523 . S
C366 C350 1.368 1_554 S
C366 C362 1.368 . S
C366 C365 1.523 . S
H367 C342 0.950 . S
H368 C344 0.950 . S
H369 C345 0.949 . S
H370 C347 0.950 . S
H371 C349 0.950 . S
C372 C373 1.349 1_556 S
C372 C374 1.327 . S
C372 H397 0.950 . S
C373 C372 1.349 1_554 S
C373 C389 1.349 . S
C374 C372 1.327 . S
C374 C393 1.429 1_556 S
C374 H398 0.950 . S
C375 C392 1.574 . S
C375 C394 1.368 . S
C375 H399 0.949 . S
H376 C380 0.949 . S
C377 C378 1.349 . S
C377 C379 1.327 . S
C377 H400 0.950 . S
C378 C377 1.349 . S
C378 C390 1.349 1_554 S
C379 C377 1.327 . S
C379 C395 1.429 . S
C379 H401 0.950 . S
C380 H376 0.949 . S
C380 C388 1.574 . S
C380 C396 1.368 1_556 S
H381 C389 0.950 . S
H382 C387 0.950 . S
H383 C388 0.949 . S
H384 C390 0.950 . S
H385 C391 0.950 . S
H386 C392 0.949 . S
C387 H382 0.950 . S
C387 C389 1.327 . S
C387 C393 1.429 . S
C388 C380 1.574 . S
C388 H383 0.949 . S
C388 C394 1.368 1_556 S
C389 C373 1.349 . S
C389 H381 0.950 . S
C389 C387 1.327 . S
C390 C378 1.349 1_556 S
C390 H384 0.950 . S
C390 C391 1.327 . S
C391 H385 0.950 . S
C391 C390 1.327 . S
C391 C395 1.429 1_556 S
C392 C375 1.574 . S
C392 H386 0.949 . S
C392 C396 1.368 . S
C393 C374 1.429 1_554 S
C393 C387 1.429 . S
C393 C394 1.523 . S
C394 C375 1.368 . S
C394 C388 1.368 1_554 S
C394 C393 1.523 . S
C395 C379 1.429 . S
C395 C391 1.429 1_554 S
C395 C396 1.523 . S
C396 C380 1.368 1_554 S
C396 C392 1.368 . S
C396 C395 1.523 . S
H397 C372 0.950 . S
H398 C374 0.950 . S
H399 C375 0.949 . S
H400 C377 0.950 . S
H401 C379 0.950 . S
C402 C403 1.349 . S
C402 C404 1.327 . S
C402 H427 0.950 . S
C403 C402 1.349 . S
C403 C419 1.349 1_554 S
C404 C402 1.327 . S
C404 C423 1.429 . S
C404 H428 0.950 . S
C405 C422 1.574 . S
C405 C424 1.368 1_556 S
C405 H429 0.949 . S
H406 C410 0.949 . S
C407 C408 1.349 1_556 S
C407 C409 1.327 . S
C407 H430 0.950 . S
C408 C407 1.349 1_554 S
C408 C420 1.349 . S
C409 C407 1.327 . S
C409 C425 1.429 1_556 S
C409 H431 0.950 . S
C410 H406 0.949 . S
C410 C418 1.574 . S
C410 C426 1.368 . S
H411 C419 0.950 . S
H412 C417 0.950 . S
H413 C418 0.949 . S
H414 C420 0.950 . S
H415 C421 0.950 . S
H416 C422 0.949 . S
C417 H412 0.950 . S
C417 C419 1.327 . S
C417 C423 1.429 1_556 S
C418 C410 1.574 . S
C418 H413 0.949 . S
C418 C424 1.368 . S
C419 C403 1.349 1_556 S
C419 H411 0.950 . S
C419 C417 1.327 . S
C420 C408 1.349 . S
C420 H414 0.950 . S
C420 C421 1.327 . S
C421 H415 0.950 . S
C421 C420 1.327 . S
C421 C425 1.429 . S
C422 C405 1.574 . S
C422 H416 0.949 . S
C422 C426 1.368 1_556 S
C423 C404 1.429 . S
C423 C417 1.429 1_554 S
C423 C424 1.523 . S
C424 C405 1.368 1_554 S
C424 C418 1.368 . S
C424 C423 1.523 . S
C425 C409 1.429 1_554 S
C425 C421 1.429 . S
C425 C426 1.523 . S
C426 C410 1.368 . S
C426 C422 1.368 1_554 S
C426 C425 1.523 . S
H427 C402 0.950 . S
H428 C404 0.950 . S
H429 C405 0.949 . S
H430 C407 0.950 . S
H431 C409 0.950 . S
C432 C433 1.349 . S
C432 C434 1.327 . S
C432 H457 0.950 . S
C433 C432 1.349 . S
C433 C449 1.349 1_556 S
C434 C432 1.327 . S
C434 C453 1.429 . S
C434 H458 0.950 . S
C435 C452 1.574 . S
C435 C454 1.368 1_554 S
C435 H459 0.949 . S
H436 C440 0.949 . S
C437 C438 1.349 . S
C437 C439 1.327 . S
C437 H460 0.950 . S
C438 C437 1.349 . S
C438 C450 1.349 1_554 S
C439 C437 1.327 . S
C439 C455 1.428 1_554 S
C439 H461 0.950 . S
C440 H436 0.949 . S
C440 C448 1.574 . S
C440 C456 1.368 . S
H441 C449 0.950 . S
H442 C447 0.950 . S
H443 C448 0.949 . S
H444 C450 0.950 . S
H445 C451 0.950 . S
H446 C452 0.949 . S
C447 H442 0.950 . S
C447 C449 1.327 . S
C447 C453 1.429 1_554 S
C448 C440 1.574 . S
C448 H443 0.949 . S
C448 C454 1.368 . S
C449 C433 1.349 1_554 S
C449 H441 0.950 . S
C449 C447 1.327 . S
C450 C438 1.349 1_556 S
C450 H444 0.950 . S
C450 C451 1.327 . S
C451 H445 0.950 . S
C451 C450 1.327 . S
C451 C455 1.428 . S
C452 C435 1.574 . S
C452 H446 0.949 . S
C452 C456 1.368 1_554 S
C453 C434 1.429 . S
C453 C447 1.429 1_556 S
C453 C454 1.523 . S
C454 C435 1.368 1_556 S
C454 C448 1.368 . S
C454 C453 1.523 . S
C455 C439 1.428 1_556 S
C455 C451 1.428 . S
C455 C456 1.524 . S
C456 C440 1.368 . S
C456 C452 1.368 1_556 S
C456 C455 1.524 . S
H457 C432 0.950 . S
H458 C434 0.950 . S
H459 C435 0.949 . S
H460 C437 0.950 . S
H461 C439 0.950 . S
C462 C463 1.349 1_554 S
C462 C464 1.327 . S
C462 H487 0.950 . S
C463 C462 1.349 1_556 S
C463 C479 1.349 . S
C464 C462 1.327 . S
C464 C483 1.429 1_554 S
C464 H488 0.950 . S
C465 C482 1.574 . S
C465 C484 1.368 . S
C465 H489 0.949 . S
H466 C470 0.949 . S
C467 C468 1.349 . S
C467 C469 1.327 . S
C467 H490 0.950 . S
C468 C467 1.349 . S
C468 C480 1.349 1_556 S
C469 C467 1.327 . S
C469 C485 1.429 . S
C469 H491 0.950 . S
C470 H466 0.949 . S
C470 C478 1.574 . S
C470 C486 1.368 1_554 S
H471 C479 0.950 . S
H472 C477 0.950 . S
H473 C478 0.949 . S
H474 C480 0.950 . S
H475 C481 0.950 . S
H476 C482 0.949 . S
C477 H472 0.950 . S
C477 C479 1.327 . S
C477 C483 1.429 . S
C478 C470 1.574 . S
C478 H473 0.949 . S
C478 C484 1.368 1_554 S
C479 C463 1.349 . S
C479 H471 0.950 . S
C479 C477 1.327 . S
C480 C468 1.349 1_554 S
C480 H474 0.950 . S
C480 C481 1.327 . S
C481 H475 0.950 . S
C481 C480 1.327 . S
C481 C485 1.429 1_554 S
C482 C465 1.574 . S
C482 H476 0.949 . S
C482 C486 1.368 . S
C483 C464 1.429 1_556 S
C483 C477 1.429 . S
C483 C484 1.523 . S
C484 C465 1.368 . S
C484 C478 1.368 1_556 S
C484 C483 1.523 . S
C485 C469 1.429 . S
C485 C481 1.429 1_556 S
C485 C486 1.523 . S
C486 C470 1.368 1_556 S
C486 C482 1.368 . S
C486 C485 1.523 . S
H487 C462 0.950 . S
H488 C464 0.950 . S
H489 C465 0.949 . S
H490 C467 0.950 . S
H491 C469 0.950 . S
C492 C493 1.349 . S
C492 C494 1.327 . S
C492 H517 0.950 . S
C493 C492 1.349 . S
C493 C509 1.349 1_556 S
C494 C492 1.327 . S
C494 C513 1.429 . S
C494 H518 0.950 . S
C495 C512 1.574 . S
C495 C514 1.368 1_554 S
C495 H519 0.949 . S
H496 C500 0.949 . S
C497 C498 1.349 1_554 S
C497 C499 1.327 . S
C497 H520 0.950 . S
C498 C497 1.349 1_556 S
C498 C510 1.349 . S
C499 C497 1.327 . S
C499 C515 1.429 1_554 S
C499 H521 0.950 . S
C500 H496 0.949 . S
C500 C508 1.574 . S
C500 C516 1.368 . S
H501 C509 0.950 . S
H502 C507 0.950 . S
H503 C508 0.949 . S
H504 C510 0.950 . S
H505 C511 0.950 . S
H506 C512 0.949 . S
C507 H502 0.950 . S
C507 C509 1.327 . S
C507 C513 1.429 1_554 S
C508 C500 1.574 . S
C508 H503 0.949 . S
C508 C514 1.368 . S
C509 C493 1.349 1_554 S
C509 H501 0.950 . S
C509 C507 1.327 . S
C510 C498 1.349 . S
C510 H504 0.950 . S
C510 C511 1.327 . S
C511 H505 0.950 . S
C511 C510 1.327 . S
C511 C515 1.429 . S
C512 C495 1.574 . S
C512 H506 0.949 . S
C512 C516 1.368 1_554 S
C513 C494 1.429 . S
C513 C507 1.429 1_556 S
C513 C514 1.523 . S
C514 C495 1.368 1_556 S
C514 C508 1.368 . S
C514 C513 1.523 . S
C515 C499 1.429 1_556 S
C515 C511 1.429 . S
C515 C516 1.523 . S
C516 C500 1.368 . S
C516 C512 1.368 1_556 S
C516 C515 1.523 . S
H517 C492 0.950 . S
H518 C494 0.950 . S
H519 C495 0.949 . S
H520 C497 0.950 . S
H521 C499 0.950 . S
C253 C74 1.494 . S
C258 C63 1.486 . S
C283 C158 1.479 . S
C288 C147 1.481 . S
C313 C242 1.489 . S
C318 C231 1.489 . S
C343 C67 1.530 . S
C348 C226 1.435 . S
C373 C142 0.767 . S
C378 C58 0.768 1_554 S
C403 C151 2.297 . S
C408 C224 2.337 . S
C433 C56 1.530 . S
C438 C238 1.435 . S
C463 C70 0.768 1_556 S
C468 C154 0.768 . S
C493 C235 2.336 . S
C498 C140 2.296 . S
