# Generated by pormake.
# Topology uox, (4)-cn, num edge types: 1
# Building blocks:
#     Node 0, Type 0, BuildingBlock: CEKHIL_clean_sbu_0, # of connection points: 4
#     Node 1, Type 0, BuildingBlock: CEKHIL_clean_sbu_0, # of connection points: 4
#     Node 2, Type 0, BuildingBlock: CEKHIL_clean_sbu_0, # of connection points: 4
#     Node 3, Type 0, BuildingBlock: CEKHIL_clean_sbu_0, # of connection points: 4
#     Node 4, Type 0, BuildingBlock: CEKHIL_clean_sbu_0, # of connection points: 4
#     Node 5, Type 0, BuildingBlock: CEKHIL_clean_sbu_0, # of connection points: 4
#     Node 6, Type 0, BuildingBlock: CEKHIL_clean_sbu_0, # of connection points: 4
#     Node 7, Type 0, BuildingBlock: CEKHIL_clean_sbu_0, # of connection points: 4
#     Node 8, Type 0, BuildingBlock: CEKHIL_clean_sbu_0, # of connection points: 4
#     Node 9, Type 0, BuildingBlock: CEKHIL_clean_sbu_0, # of connection points: 4
#     Node 10, Type 0, BuildingBlock: CEKHIL_clean_sbu_0, # of connection points: 4
#     Node 11, Type 0, BuildingBlock: CEKHIL_clean_sbu_0, # of connection points: 4
#     Node 12, Type 0, BuildingBlock: CEKHIL_clean_sbu_0, # of connection points: 4
#     Node 13, Type 0, BuildingBlock: CEKHIL_clean_sbu_0, # of connection points: 4
#     Node 14, Type 0, BuildingBlock: CEKHIL_clean_sbu_0, # of connection points: 4
#     Node 15, Type 0, BuildingBlock: CEKHIL_clean_sbu_0, # of connection points: 4
#     Node 16, Type 0, BuildingBlock: CEKHIL_clean_sbu_0, # of connection points: 4
#     Node 17, Type 0, BuildingBlock: CEKHIL_clean_sbu_0, # of connection points: 4
#     Node 18, Type 0, BuildingBlock: CEKHIL_clean_sbu_0, # of connection points: 4
#     Node 19, Type 0, BuildingBlock: CEKHIL_clean_sbu_0, # of connection points: 4
#     Node 20, Type 0, BuildingBlock: CEKHIL_clean_sbu_0, # of connection points: 4
#     Node 21, Type 0, BuildingBlock: CEKHIL_clean_sbu_0, # of connection points: 4
#     Node 22, Type 0, BuildingBlock: CEKHIL_clean_sbu_0, # of connection points: 4
#     Node 23, Type 0, BuildingBlock: CEKHIL_clean_sbu_0, # of connection points: 4
#     Node 24, Type 0, BuildingBlock: CEKHIL_clean_sbu_0, # of connection points: 4
#     Node 25, Type 0, BuildingBlock: CEKHIL_clean_sbu_0, # of connection points: 4
#     Node 26, Type 0, BuildingBlock: CEKHIL_clean_sbu_0, # of connection points: 4
#     Node 27, Type 0, BuildingBlock: CEKHIL_clean_sbu_0, # of connection points: 4
#     Node 28, Type 0, BuildingBlock: CEKHIL_clean_sbu_0, # of connection points: 4
#     Node 29, Type 0, BuildingBlock: CEKHIL_clean_sbu_0, # of connection points: 4
#     Node 30, Type 0, BuildingBlock: CEKHIL_clean_sbu_0, # of connection points: 4
#     Node 31, Type 0, BuildingBlock: CEKHIL_clean_sbu_0, # of connection points: 4
#     Edge 32, Type (0, 0), BuildingBlock: XIVTED_clean_linker_0, # of connection points: 2
#     Edge 33, Type (0, 0), BuildingBlock: XIVTED_clean_linker_0, # of connection points: 2
#     Edge 34, Type (0, 0), BuildingBlock: XIVTED_clean_linker_0, # of connection points: 2
#     Edge 35, Type (0, 0), BuildingBlock: XIVTED_clean_linker_0, # of connection points: 2
#     Edge 36, Type (0, 0), BuildingBlock: XIVTED_clean_linker_0, # of connection points: 2
#     Edge 37, Type (0, 0), BuildingBlock: XIVTED_clean_linker_0, # of connection points: 2
#     Edge 38, Type (0, 0), BuildingBlock: XIVTED_clean_linker_0, # of connection points: 2
#     Edge 39, Type (0, 0), BuildingBlock: XIVTED_clean_linker_0, # of connection points: 2
#     Edge 40, Type (0, 0), BuildingBlock: XIVTED_clean_linker_0, # of connection points: 2
#     Edge 41, Type (0, 0), BuildingBlock: XIVTED_clean_linker_0, # of connection points: 2
#     Edge 42, Type (0, 0), BuildingBlock: XIVTED_clean_linker_0, # of connection points: 2
#     Edge 43, Type (0, 0), BuildingBlock: XIVTED_clean_linker_0, # of connection points: 2
#     Edge 44, Type (0, 0), BuildingBlock: XIVTED_clean_linker_0, # of connection points: 2
#     Edge 45, Type (0, 0), BuildingBlock: XIVTED_clean_linker_0, # of connection points: 2
#     Edge 46, Type (0, 0), BuildingBlock: XIVTED_clean_linker_0, # of connection points: 2
#     Edge 47, Type (0, 0), BuildingBlock: XIVTED_clean_linker_0, # of connection points: 2
#     Edge 48, Type (0, 0), BuildingBlock: XIVTED_clean_linker_0, # of connection points: 2
#     Edge 49, Type (0, 0), BuildingBlock: XIVTED_clean_linker_0, # of connection points: 2
#     Edge 50, Type (0, 0), BuildingBlock: XIVTED_clean_linker_0, # of connection points: 2
#     Edge 51, Type (0, 0), BuildingBlock: XIVTED_clean_linker_0, # of connection points: 2
#     Edge 52, Type (0, 0), BuildingBlock: XIVTED_clean_linker_0, # of connection points: 2
#     Edge 53, Type (0, 0), BuildingBlock: XIVTED_clean_linker_0, # of connection points: 2
#     Edge 54, Type (0, 0), BuildingBlock: XIVTED_clean_linker_0, # of connection points: 2
#     Edge 55, Type (0, 0), BuildingBlock: XIVTED_clean_linker_0, # of connection points: 2
#     Edge 56, Type (0, 0), BuildingBlock: XIVTED_clean_linker_0, # of connection points: 2
#     Edge 57, Type (0, 0), BuildingBlock: XIVTED_clean_linker_0, # of connection points: 2
#     Edge 58, Type (0, 0), BuildingBlock: XIVTED_clean_linker_0, # of connection points: 2
#     Edge 59, Type (0, 0), BuildingBlock: XIVTED_clean_linker_0, # of connection points: 2
#     Edge 60, Type (0, 0), BuildingBlock: XIVTED_clean_linker_0, # of connection points: 2
#     Edge 61, Type (0, 0), BuildingBlock: XIVTED_clean_linker_0, # of connection points: 2
#     Edge 62, Type (0, 0), BuildingBlock: XIVTED_clean_linker_0, # of connection points: 2
#     Edge 63, Type (0, 0), BuildingBlock: XIVTED_clean_linker_0, # of connection points: 2
#     Edge 64, Type (0, 0), BuildingBlock: XIVTED_clean_linker_0, # of connection points: 2
#     Edge 65, Type (0, 0), BuildingBlock: XIVTED_clean_linker_0, # of connection points: 2
#     Edge 66, Type (0, 0), BuildingBlock: XIVTED_clean_linker_0, # of connection points: 2
#     Edge 67, Type (0, 0), BuildingBlock: XIVTED_clean_linker_0, # of connection points: 2
#     Edge 68, Type (0, 0), BuildingBlock: XIVTED_clean_linker_0, # of connection points: 2
#     Edge 69, Type (0, 0), BuildingBlock: XIVTED_clean_linker_0, # of connection points: 2
#     Edge 70, Type (0, 0), BuildingBlock: XIVTED_clean_linker_0, # of connection points: 2
#     Edge 71, Type (0, 0), BuildingBlock: XIVTED_clean_linker_0, # of connection points: 2
#     Edge 72, Type (0, 0), BuildingBlock: XIVTED_clean_linker_0, # of connection points: 2
#     Edge 73, Type (0, 0), BuildingBlock: XIVTED_clean_linker_0, # of connection points: 2
#     Edge 74, Type (0, 0), BuildingBlock: XIVTED_clean_linker_0, # of connection points: 2
#     Edge 75, Type (0, 0), BuildingBlock: XIVTED_clean_linker_0, # of connection points: 2
#     Edge 76, Type (0, 0), BuildingBlock: XIVTED_clean_linker_0, # of connection points: 2
#     Edge 77, Type (0, 0), BuildingBlock: XIVTED_clean_linker_0, # of connection points: 2
#     Edge 78, Type (0, 0), BuildingBlock: XIVTED_clean_linker_0, # of connection points: 2
#     Edge 79, Type (0, 0), BuildingBlock: XIVTED_clean_linker_0, # of connection points: 2
#     Edge 80, Type (0, 0), BuildingBlock: XIVTED_clean_linker_0, # of connection points: 2
#     Edge 81, Type (0, 0), BuildingBlock: XIVTED_clean_linker_0, # of connection points: 2
#     Edge 82, Type (0, 0), BuildingBlock: XIVTED_clean_linker_0, # of connection points: 2
#     Edge 83, Type (0, 0), BuildingBlock: XIVTED_clean_linker_0, # of connection points: 2
#     Edge 84, Type (0, 0), BuildingBlock: XIVTED_clean_linker_0, # of connection points: 2
#     Edge 85, Type (0, 0), BuildingBlock: XIVTED_clean_linker_0, # of connection points: 2
#     Edge 86, Type (0, 0), BuildingBlock: XIVTED_clean_linker_0, # of connection points: 2
#     Edge 87, Type (0, 0), BuildingBlock: XIVTED_clean_linker_0, # of connection points: 2
#     Edge 88, Type (0, 0), BuildingBlock: XIVTED_clean_linker_0, # of connection points: 2
#     Edge 89, Type (0, 0), BuildingBlock: XIVTED_clean_linker_0, # of connection points: 2
#     Edge 90, Type (0, 0), BuildingBlock: XIVTED_clean_linker_0, # of connection points: 2
#     Edge 91, Type (0, 0), BuildingBlock: XIVTED_clean_linker_0, # of connection points: 2
#     Edge 92, Type (0, 0), BuildingBlock: XIVTED_clean_linker_0, # of connection points: 2
#     Edge 93, Type (0, 0), BuildingBlock: XIVTED_clean_linker_0, # of connection points: 2
#     Edge 94, Type (0, 0), BuildingBlock: XIVTED_clean_linker_0, # of connection points: 2
#     Edge 95, Type (0, 0), BuildingBlock: XIVTED_clean_linker_0, # of connection points: 2
# Relax obj value: 0.060
# Max RMSD: 0.089
# Mean RMSD: 0.089
data_MOF--net-uox--node1-CEKHIL_clean_sbu_0--edge1-XIVTED_clean_linker_0
_symmetry_space_group_name_H-M    P1
_symmetry_Int_Tables_number       1
_symmetry_cell_setting            triclinic
loop_
_symmetry_equiv_pos_as_xyz
'x, y, z'
_cell_length_a     46.075254
_cell_length_b     46.081569
_cell_length_c     77.083329
_cell_angle_alpha  89.998853
_cell_angle_beta   90.001805
_cell_angle_gamma 90.003907
loop_
_atom_site_label
_atom_site_type_symbol
_atom_site_fract_x
_atom_site_fract_y
_atom_site_fract_z
_atom_type_partial_charge
Co0 Co 0.42222 0.05216 0.16302 0.0
O1 O 0.43242 0.02377 0.18042 0.0
O2 O 0.3973 0.05622 0.18314 0.0
C3 C 0.46772 0.06769 0.15719 0.0
O4 O 0.40613 0.08559 0.14839 0.0
Co5 Co 0.44298 0.04555 0.1249 0.0
O6 O 0.42979 0.08632 0.12289 0.0
C7 C 0.39436 0.00956 0.13749 0.0
C8 C 0.41204 0.03499 0.18992 0.0
C9 C 0.41245 0.09777 0.1338 0.0
O10 O 0.39447 0.02352 0.15199 0.0
O11 O 0.41307 0.0139 0.12548 0.0
O12 O 0.45369 0.07746 0.17059 0.0
O13 O 0.45517 0.04676 0.14892 0.0
Co14 Co 0.20048 0.17173 0.41346 0.0
O15 O 0.22926 0.18189 0.43068 0.0
O16 O 0.19696 0.14667 0.43355 0.0
C17 C 0.1847 0.21722 0.40783 0.0
O18 O 0.16676 0.15555 0.39911 0.0
Co19 Co 0.20607 0.19257 0.37532 0.0
O20 O 0.16535 0.17909 0.37358 0.0
C21 C 0.24257 0.1441 0.38755 0.0
C22 C 0.21832 0.16138 0.4402 0.0
C23 C 0.15423 0.16173 0.3846 0.0
O24 O 0.22895 0.14412 0.40215 0.0
O25 O 0.23787 0.16281 0.37559 0.0
O26 O 0.17528 0.2031 0.42128 0.0
O27 O 0.20546 0.20476 0.39935 0.0
Co28 Co 0.07953 0.95237 0.6635 0.0
O29 O 0.06699 0.97978 0.68078 0.0
O30 O 0.10396 0.94969 0.68404 0.0
C31 C 0.03498 0.93494 0.65696 0.0
O32 O 0.09742 0.91995 0.64886 0.0
Co33 Co 0.05964 0.96007 0.62523 0.0
O34 O 0.07481 0.9199 0.62298 0.0
C35 C 0.105 0.9982 0.63927 0.0
C36 C 0.08746 0.96978 0.69065 0.0
C37 C 0.09189 0.90829 0.634 0.0
O38 O 0.10652 0.98219 0.65293 0.0
O39 O 0.08578 0.99477 0.62745 0.0
O40 O 0.04889 0.92551 0.67049 0.0
O41 O 0.04695 0.95657 0.64906 0.0
Co42 Co 0.30324 0.82791 0.91444 0.0
O43 O 0.27505 0.81748 0.9319 0.0
O44 O 0.3072 0.8529 0.93454 0.0
C45 C 0.31911 0.78259 0.90855 0.0
O46 O 0.33642 0.8443 0.8997 0.0
Co47 Co 0.29635 0.80717 0.87633 0.0
O48 O 0.337 0.82072 0.87417 0.0
C49 C 0.25993 0.85523 0.88915 0.0
C50 C 0.28609 0.83802 0.94135 0.0
C51 C 0.34847 0.8381 0.88505 0.0
O52 O 0.27425 0.85536 0.90351 0.0
O53 O 0.26423 0.83655 0.87712 0.0
O54 O 0.32887 0.79668 0.92193 0.0
O55 O 0.29799 0.79496 0.90034 0.0
Co56 Co 0.42339 0.95052 0.33998 0.0
O57 O 0.43336 0.97921 0.32268 0.0
O58 O 0.3984 0.94661 0.3199 0.0
C59 C 0.46896 0.93511 0.3457 0.0
O60 O 0.40748 0.91679 0.35442 0.0
Co61 Co 0.44413 0.95648 0.37814 0.0
O62 O 0.4312 0.91558 0.37989 0.0
C63 C 0.39537 0.99252 0.36579 0.0
C64 C 0.41298 0.96799 0.31318 0.0
C65 C 0.41389 0.9043 0.36889 0.0
O66 O 0.39553 0.97886 0.3512 0.0
O67 O 0.41409 0.98801 0.37777 0.0
O68 O 0.45496 0.9255 0.33225 0.0
O69 O 0.45633 0.95585 0.35411 0.0
Co70 Co 0.30344 0.1716 0.59013 0.0
O71 O 0.2757 0.18197 0.57241 0.0
O72 O 0.30749 0.14616 0.57021 0.0
C73 C 0.31972 0.2169 0.59581 0.0
O74 O 0.33599 0.15531 0.60531 0.0
Co75 Co 0.29505 0.19361 0.62793 0.0
O76 O 0.33492 0.17811 0.63112 0.0
C77 C 0.25715 0.14762 0.61435 0.0
C78 C 0.28667 0.16115 0.56317 0.0
C79 C 0.34699 0.16091 0.62033 0.0
O80 O 0.27399 0.14468 0.60113 0.0
O81 O 0.26004 0.1679 0.62557 0.0
O82 O 0.32962 0.20246 0.5826 0.0
O83 O 0.29824 0.20492 0.60385 0.0
Co84 Co 0.07872 0.04978 0.84259 0.0
O85 O 0.06559 0.02238 0.82546 0.0
O86 O 0.10284 0.05203 0.82188 0.0
C87 C 0.03441 0.0676 0.84928 0.0
O88 O 0.09729 0.08224 0.85702 0.0
Co89 Co 0.0595 0.04325 0.88101 0.0
O90 O 0.07387 0.08366 0.88261 0.0
C91 C 0.10606 0.00569 0.86751 0.0
C92 C 0.08602 0.03205 0.81544 0.0
C93 C 0.09142 0.09462 0.87163 0.0
O94 O 0.1055 0.01962 0.85301 0.0
O95 O 0.08829 0.01068 0.87993 0.0
O96 O 0.04828 0.07687 0.83569 0.0
O97 O 0.04631 0.04598 0.85724 0.0
Co98 Co 0.19945 0.82949 0.09107 0.0
O99 O 0.22808 0.81893 0.07387 0.0
O100 O 0.19594 0.85426 0.07086 0.0
C101 C 0.18345 0.78418 0.09696 0.0
O102 O 0.16589 0.84598 0.10542 0.0
Co103 Co 0.20527 0.80912 0.1293 0.0
O104 O 0.16459 0.82272 0.13105 0.0
C105 C 0.2418 0.85734 0.11676 0.0
C106 C 0.21719 0.83933 0.06425 0.0
C107 C 0.15344 0.83998 0.11998 0.0
O108 O 0.2281 0.85714 0.10218 0.0
O109 O 0.23713 0.83881 0.12882 0.0
O110 O 0.17405 0.79815 0.08345 0.0
O111 O 0.20435 0.79663 0.10533 0.0
Co112 Co 0.57934 0.94985 0.84149 0.0
O113 O 0.56971 0.9787 0.82423 0.0
O114 O 0.60416 0.94559 0.82135 0.0
C115 C 0.53357 0.93513 0.84725 0.0
O116 O 0.59474 0.91584 0.8559 0.0
Co117 Co 0.55876 0.95607 0.87967 0.0
O118 O 0.57082 0.91489 0.88131 0.0
C119 C 0.60801 0.99142 0.86729 0.0
C120 C 0.58983 0.96717 0.81466 0.0
C121 C 0.58798 0.90337 0.87033 0.0
O122 O 0.60765 0.97776 0.8527 0.0
O123 O 0.58925 0.98716 0.87928 0.0
O124 O 0.54737 0.92532 0.83378 0.0
O125 O 0.54654 0.95566 0.85565 0.0
Co126 Co 0.80249 0.82961 0.59135 0.0
O127 O 0.77364 0.81968 0.57414 0.0
O128 O 0.80632 0.85453 0.57122 0.0
C129 C 0.81777 0.78397 0.59703 0.0
O130 O 0.83641 0.84539 0.60572 0.0
Co131 Co 0.79661 0.80892 0.62951 0.0
O132 O 0.83767 0.82142 0.63111 0.0
C133 C 0.76065 0.85777 0.61722 0.0
C134 C 0.78485 0.83997 0.56457 0.0
C135 C 0.84899 0.83873 0.62014 0.0
O136 O 0.77429 0.85756 0.60262 0.0
O137 O 0.76516 0.83905 0.6292 0.0
O138 O 0.82735 0.79796 0.58357 0.0
O139 O 0.79712 0.79667 0.60549 0.0
Co140 Co 0.92271 0.0517 0.34054 0.0
O141 O 0.93253 0.02311 0.32319 0.0
O142 O 0.89767 0.05587 0.32052 0.0
C143 C 0.9683 0.06695 0.34625 0.0
O144 O 0.90701 0.08538 0.35507 0.0
Co145 Co 0.94334 0.04529 0.37866 0.0
O146 O 0.93074 0.08629 0.38054 0.0
C147 C 0.89451 0.00953 0.36619 0.0
C148 C 0.91217 0.03448 0.31374 0.0
C149 C 0.91353 0.09776 0.36956 0.0
O150 O 0.89477 0.02341 0.35168 0.0
O151 O 0.9132 0.01383 0.37822 0.0
O152 O 0.95428 0.07665 0.33283 0.0
O153 O 0.95568 0.04616 0.35463 0.0
Co154 Co 0.69999 0.1735 0.09159 0.0
O155 O 0.7287 0.18335 0.07429 0.0
O156 O 0.69556 0.14895 0.07135 0.0
C157 C 0.68545 0.21926 0.09762 0.0
O158 O 0.66611 0.1578 0.10603 0.0
Co159 Co 0.70644 0.19353 0.12987 0.0
O160 O 0.66541 0.18104 0.13167 0.0
C161 C 0.74183 0.14457 0.11709 0.0
C162 C 0.71712 0.16333 0.06467 0.0
C163 C 0.65383 0.16406 0.1206 0.0
O164 O 0.728 0.14505 0.10256 0.0
O165 O 0.73764 0.16318 0.12917 0.0
O166 O 0.67543 0.20562 0.08414 0.0
O167 O 0.70599 0.20609 0.10591 0.0
Co168 Co 0.5784 0.05049 0.66436 0.0
O169 O 0.56885 0.02171 0.68169 0.0
O170 O 0.60325 0.05491 0.68447 0.0
C171 C 0.53256 0.06506 0.65859 0.0
O172 O 0.59377 0.08444 0.64988 0.0
Co173 Co 0.55788 0.04407 0.62619 0.0
O174 O 0.57001 0.08521 0.62442 0.0
C175 C 0.60719 0.00885 0.63863 0.0
C176 C 0.58899 0.03332 0.69121 0.0
C177 C 0.58713 0.0968 0.6354 0.0
O178 O 0.60677 0.02257 0.65321 0.0
O179 O 0.58843 0.01304 0.62663 0.0
O180 O 0.54636 0.07499 0.67203 0.0
O181 O 0.5456 0.04454 0.65021 0.0
Co182 Co 0.69967 0.82975 0.4145 0.0
O183 O 0.72813 0.8195 0.43187 0.0
O184 O 0.69561 0.85451 0.4347 0.0
C185 C 0.68429 0.78423 0.40858 0.0
O186 O 0.66616 0.84594 0.39995 0.0
Co187 Co 0.70621 0.80947 0.37632 0.0
O188 O 0.66547 0.82277 0.37429 0.0
C189 C 0.74222 0.85793 0.38909 0.0
C190 C 0.7169 0.8398 0.44143 0.0
C191 C 0.654 0.83992 0.38531 0.0
O192 O 0.72823 0.85766 0.40356 0.0
O193 O 0.73789 0.83936 0.377 0.0
O194 O 0.6745 0.79818 0.42199 0.0
O195 O 0.70515 0.79689 0.40029 0.0
Co196 Co 0.92201 0.95025 0.16379 0.0
O197 O 0.93179 0.97914 0.18099 0.0
O198 O 0.89699 0.94635 0.18384 0.0
C199 C 0.96763 0.93503 0.15819 0.0
O200 O 0.90635 0.9163 0.14948 0.0
Co201 Co 0.94269 0.95593 0.12563 0.0
O202 O 0.93016 0.91488 0.12404 0.0
C203 C 0.8938 0.99188 0.13785 0.0
C204 C 0.91147 0.96785 0.19051 0.0
C205 C 0.91292 0.90363 0.13508 0.0
O206 O 0.89404 0.97831 0.15247 0.0
O207 O 0.91251 0.98736 0.12587 0.0
O208 O 0.95363 0.9255 0.17166 0.0
O209 O 0.95495 0.95563 0.14967 0.0
Co210 Co 0.80163 0.17267 0.91447 0.0
O211 O 0.77271 0.18253 0.93165 0.0
O212 O 0.80578 0.14809 0.93472 0.0
C213 C 0.81639 0.21837 0.90852 0.0
O214 O 0.83569 0.15705 0.90017 0.0
Co215 Co 0.79562 0.19282 0.87618 0.0
O216 O 0.83681 0.18074 0.87469 0.0
C217 C 0.76019 0.14371 0.88871 0.0
C218 C 0.78418 0.16251 0.94132 0.0
C219 C 0.84826 0.16366 0.88575 0.0
O220 O 0.77374 0.14425 0.90334 0.0
O221 O 0.76454 0.16233 0.87665 0.0
O222 O 0.82615 0.20474 0.92207 0.0
O223 O 0.79589 0.20529 0.90016 0.0
Co224 Co 0.92232 0.55122 0.66398 0.0
O225 O 0.93282 0.52235 0.68104 0.0
O226 O 0.89743 0.55438 0.68419 0.0
C227 C 0.96769 0.56722 0.6583 0.0
O228 O 0.90588 0.58499 0.64973 0.0
Co229 Co 0.94298 0.54588 0.62578 0.0
O230 O 0.92934 0.58656 0.62417 0.0
C231 C 0.89502 0.50885 0.63813 0.0
C232 C 0.91235 0.53302 0.69068 0.0
C233 C 0.912 0.5976 0.63523 0.0
O234 O 0.89484 0.52264 0.65268 0.0
O235 O 0.91369 0.51365 0.62617 0.0
O236 O 0.9536 0.57652 0.6718 0.0
O237 O 0.95526 0.54648 0.64979 0.0
Co238 Co 0.70048 0.67212 0.91337 0.0
O239 O 0.72826 0.68537 0.93025 0.0
O240 O 0.69861 0.64822 0.93417 0.0
C241 C 0.68266 0.71642 0.90664 0.0
O242 O 0.66771 0.65343 0.89924 0.0
Co243 Co 0.70616 0.69095 0.87482 0.0
O244 O 0.66574 0.67649 0.87354 0.0
C245 C 0.74405 0.64456 0.88823 0.0
C246 C 0.71876 0.66506 0.94041 0.0
C247 C 0.65503 0.65907 0.88468 0.0
O248 O 0.73039 0.64521 0.90281 0.0
O249 O 0.7388 0.66222 0.87579 0.0
O250 O 0.67359 0.70271 0.92034 0.0
O251 O 0.70407 0.70435 0.89857 0.0
Co252 Co 0.57812 0.45013 0.16447 0.0
O253 O 0.56509 0.47717 0.18185 0.0
O254 O 0.60281 0.44798 0.18494 0.0
C255 C 0.53386 0.43185 0.15811 0.0
O256 O 0.59672 0.41806 0.14973 0.0
Co257 Co 0.55775 0.45675 0.12624 0.0
O258 O 0.57271 0.4166 0.12433 0.0
C259 C 0.60404 0.49493 0.13948 0.0
C260 C 0.58592 0.46766 0.19163 0.0
C261 C 0.59067 0.40576 0.13511 0.0
O262 O 0.60419 0.48078 0.1539 0.0
O263 O 0.58598 0.48983 0.12723 0.0
O264 O 0.54817 0.42257 0.17154 0.0
O265 O 0.54531 0.45369 0.15014 0.0
Co266 Co 0.80166 0.32843 0.41403 0.0
O267 O 0.77399 0.31503 0.43093 0.0
O268 O 0.8031 0.35263 0.43474 0.0
C269 C 0.82008 0.28428 0.40761 0.0
O270 O 0.83428 0.34731 0.39985 0.0
Co271 Co 0.79643 0.30882 0.37558 0.0
O272 O 0.83666 0.32376 0.37432 0.0
C273 C 0.7577 0.35477 0.38868 0.0
C274 C 0.7832 0.33556 0.44103 0.0
C275 C 0.84712 0.34151 0.38536 0.0
O276 O 0.7714 0.35473 0.40326 0.0
O277 O 0.76323 0.3369 0.3764 0.0
O278 O 0.82893 0.29832 0.42123 0.0
O279 O 0.79857 0.29593 0.39942 0.0
Co280 Co 0.92314 0.44878 0.84089 0.0
O281 O 0.93355 0.47725 0.82359 0.0
O282 O 0.89837 0.44491 0.82067 0.0
C283 C 0.96854 0.43319 0.84687 0.0
O284 O 0.90688 0.41536 0.8555 0.0
Co285 Co 0.94364 0.45559 0.87908 0.0
O286 O 0.93037 0.41484 0.88107 0.0
C287 C 0.89538 0.49173 0.86623 0.0
C288 C 0.91316 0.46623 0.81402 0.0
C289 C 0.91311 0.40329 0.87014 0.0
O290 O 0.8954 0.47748 0.85184 0.0
O291 O 0.91406 0.48751 0.87828 0.0
O292 O 0.95466 0.42344 0.83341 0.0
O293 O 0.95593 0.45415 0.85509 0.0
Co294 Co 0.80113 0.67226 0.09189 0.0
O295 O 0.77395 0.68523 0.07459 0.0
O296 O 0.80308 0.64746 0.07147 0.0
C297 C 0.81949 0.71652 0.09807 0.0
O298 O 0.83331 0.65374 0.10658 0.0
Co299 Co 0.79477 0.69284 0.13008 0.0
O300 O 0.83492 0.67787 0.13193 0.0
C301 C 0.75643 0.64656 0.11704 0.0
C302 C 0.78336 0.66436 0.0648 0.0
C303 C 0.84571 0.65986 0.12116 0.0
O304 O 0.77053 0.6463 0.1026 0.0
O305 O 0.76162 0.66469 0.12924 0.0
O306 O 0.82865 0.7021 0.08466 0.0
O307 O 0.7977 0.70516 0.10615 0.0
Co308 Co 0.57836 0.5506 0.34308 0.0
O309 O 0.56512 0.52268 0.32627 0.0
O310 O 0.6025 0.55201 0.32235 0.0
C311 C 0.53405 0.56874 0.34948 0.0
O312 O 0.59711 0.5835 0.35711 0.0
Co313 Co 0.55899 0.54577 0.38157 0.0
O314 O 0.57373 0.58609 0.38267 0.0
C315 C 0.60506 0.50709 0.36856 0.0
C316 C 0.58557 0.53193 0.31613 0.0
C317 C 0.59137 0.59649 0.37155 0.0
O318 O 0.60489 0.52062 0.35392 0.0
O319 O 0.58723 0.5127 0.38085 0.0
O320 O 0.54804 0.57756 0.33582 0.0
O321 O 0.54589 0.54743 0.35775 0.0
Co322 Co 0.70078 0.32752 0.59249 0.0
O323 O 0.72834 0.31481 0.57532 0.0
O324 O 0.69858 0.35202 0.57196 0.0
C325 C 0.68308 0.28303 0.59888 0.0
O326 O 0.66816 0.34576 0.60694 0.0
Co327 Co 0.70685 0.30766 0.63084 0.0
O328 O 0.66642 0.32201 0.63241 0.0
C329 C 0.74455 0.35449 0.61774 0.0
C330 C 0.71866 0.33542 0.56543 0.0
C331 C 0.6556 0.33971 0.62147 0.0
O332 O 0.73078 0.3542 0.60318 0.0
O333 O 0.73942 0.33649 0.63002 0.0
O334 O 0.67384 0.29706 0.58534 0.0
O335 O 0.70457 0.29491 0.60697 0.0
Co336 Co 0.07967 0.45017 0.3414 0.0
O337 O 0.06901 0.47892 0.3243 0.0
O338 O 0.1041 0.44661 0.32102 0.0
C339 C 0.03428 0.43457 0.34749 0.0
O340 O 0.09619 0.4164 0.35563 0.0
Co341 Co 0.05992 0.45587 0.37975 0.0
O342 O 0.07332 0.41512 0.38138 0.0
C343 C 0.10772 0.49264 0.36688 0.0
C344 C 0.08919 0.46798 0.31454 0.0
C345 C 0.09034 0.40391 0.37021 0.0
O346 O 0.10757 0.47869 0.35239 0.0
O347 O 0.08927 0.48803 0.379 0.0
O348 O 0.04803 0.42503 0.33393 0.0
O349 O 0.04705 0.45528 0.35584 0.0
Co350 Co 0.30108 0.32911 0.09091 0.0
O351 O 0.2721 0.31942 0.07374 0.0
O352 O 0.30512 0.35394 0.07076 0.0
C353 C 0.31591 0.28339 0.09663 0.0
O354 O 0.33515 0.34461 0.10522 0.0
Co355 Co 0.29521 0.30855 0.12912 0.0
O356 O 0.33633 0.32086 0.13069 0.0
C357 C 0.25969 0.35773 0.11682 0.0
C358 C 0.2835 0.33957 0.06414 0.0
C359 C 0.34771 0.33802 0.11965 0.0
O360 O 0.27322 0.35735 0.10218 0.0
O361 O 0.26407 0.339 0.12881 0.0
O362 O 0.3256 0.2972 0.08313 0.0
O363 O 0.29543 0.29632 0.10509 0.0
Co364 Co 0.42274 0.55045 0.84055 0.0
O365 O 0.43291 0.5216 0.82341 0.0
O366 O 0.39818 0.55435 0.82025 0.0
C367 C 0.46829 0.56557 0.84654 0.0
O368 O 0.40674 0.58432 0.85487 0.0
Co369 Co 0.4427 0.54424 0.87883 0.0
O370 O 0.42988 0.58517 0.88054 0.0
C371 C 0.39402 0.50853 0.86611 0.0
C372 C 0.41277 0.5328 0.81372 0.0
C373 C 0.41288 0.59664 0.86945 0.0
O374 O 0.39452 0.52233 0.85158 0.0
O375 O 0.41254 0.51283 0.87823 0.0
O376 O 0.45457 0.57524 0.833 0.0
O377 O 0.4554 0.54493 0.85489 0.0
Co378 Co 0.20057 0.67406 0.59293 0.0
O379 O 0.22852 0.6867 0.57596 0.0
O380 O 0.19832 0.64992 0.57227 0.0
C381 C 0.18347 0.71875 0.59941 0.0
O382 O 0.16752 0.65592 0.60705 0.0
Co383 Co 0.206 0.69306 0.63141 0.0
O384 O 0.16545 0.67899 0.63272 0.0
C385 C 0.24356 0.64616 0.61825 0.0
C386 C 0.21867 0.66638 0.56592 0.0
C387 C 0.15474 0.66163 0.62155 0.0
O388 O 0.23008 0.64687 0.60361 0.0
O389 O 0.23834 0.66394 0.63063 0.0
O390 O 0.17418 0.70495 0.5858 0.0
O391 O 0.20459 0.70643 0.60762 0.0
Co392 Co 0.07885 0.55156 0.16406 0.0
O393 O 0.06888 0.52239 0.18107 0.0
O394 O 0.1032 0.55549 0.18445 0.0
C395 C 0.03308 0.56611 0.15804 0.0
O396 O 0.09462 0.58582 0.14996 0.0
Co397 Co 0.05907 0.54601 0.12568 0.0
O398 O 0.07165 0.58704 0.12424 0.0
C399 C 0.10798 0.51037 0.13828 0.0
C400 C 0.08879 0.53373 0.19087 0.0
C401 C 0.08853 0.59838 0.13545 0.0
O402 O 0.10743 0.52386 0.15293 0.0
O403 O 0.08942 0.5148 0.12621 0.0
O404 O 0.04659 0.57586 0.17163 0.0
O405 O 0.04638 0.54584 0.14961 0.0
Co406 Co 0.19977 0.32792 0.91392 0.0
O407 O 0.22829 0.31822 0.93137 0.0
O408 O 0.19512 0.35266 0.93406 0.0
C409 C 0.18528 0.28214 0.90799 0.0
O410 O 0.1661 0.34346 0.89927 0.0
Co411 Co 0.20685 0.30759 0.87576 0.0
O412 O 0.16584 0.32003 0.87369 0.0
C413 C 0.24201 0.35663 0.88858 0.0
C414 C 0.21663 0.33836 0.94086 0.0
C415 C 0.15406 0.33707 0.88465 0.0
O416 O 0.22791 0.35625 0.90301 0.0
O417 O 0.23807 0.33793 0.87652 0.0
O418 O 0.17512 0.29591 0.92139 0.0
O419 O 0.20595 0.29519 0.89975 0.0
Co420 Co 0.42279 0.44979 0.66326 0.0
O421 O 0.43298 0.47861 0.68041 0.0
O422 O 0.39817 0.44594 0.68354 0.0
C423 C 0.46837 0.43466 0.65734 0.0
O424 O 0.40677 0.41591 0.64893 0.0
Co425 Co 0.44293 0.45578 0.62499 0.0
O426 O 0.4301 0.41484 0.62332 0.0
C427 C 0.39459 0.492 0.6377 0.0
C428 C 0.4128 0.46745 0.69009 0.0
C429 C 0.41301 0.40347 0.63441 0.0
O430 O 0.39473 0.47804 0.65219 0.0
O431 O 0.41321 0.48759 0.62565 0.0
O432 O 0.45459 0.42494 0.67084 0.0
O433 O 0.45548 0.45526 0.64896 0.0
Co434 Co 0.30068 0.67485 0.41441 0.0
O435 O 0.27283 0.688 0.43128 0.0
O436 O 0.30252 0.65085 0.43515 0.0
C437 C 0.3186 0.71912 0.40778 0.0
O438 O 0.33356 0.65629 0.40035 0.0
Co439 Co 0.29529 0.69366 0.37587 0.0
O440 O 0.33586 0.6796 0.37475 0.0
C441 C 0.25743 0.64711 0.38911 0.0
C442 C 0.28237 0.66766 0.44142 0.0
C443 C 0.34648 0.66216 0.38591 0.0
O444 O 0.27088 0.64791 0.40377 0.0
O445 O 0.26278 0.66472 0.37667 0.0
O446 O 0.3275 0.70536 0.4215 0.0
O447 O 0.29721 0.70715 0.39963 0.0
H448 H 0.39264 0.93666 0.28561 0.0
H449 H 0.3924 0.06657 0.21759 0.0
H450 H 0.42232 0.02215 0.29986 0.0
H451 H 0.42115 0.98083 0.20322 0.0
H452 H 0.38921 0.05055 0.24799 0.0
H453 H 0.38892 0.9528 0.25526 0.0
C454 C 0.39793 0.95893 0.28239 0.0
C455 C 0.40792 0.9781 0.29521 0.0
C456 C 0.39591 0.03525 0.2381 0.0
C457 C 0.40323 0.99669 0.26074 0.0
C458 C 0.39758 0.04428 0.2208 0.0
C459 C 0.40716 0.02499 0.20793 0.0
C460 C 0.40308 0.00654 0.24244 0.0
C461 C 0.41384 0.9964 0.21279 0.0
C462 C 0.39595 0.96802 0.26511 0.0
C463 C 0.4147 0.00666 0.29033 0.0
N464 N 0.41153 0.98797 0.22965 0.0
N465 N 0.41209 0.01517 0.27348 0.0
H466 H 0.3182 0.14128 0.53548 0.0
H467 H 0.18757 0.14063 0.4679 0.0
H468 H 0.23245 0.16984 0.54997 0.0
H469 H 0.27263 0.17103 0.45326 0.0
H470 H 0.20417 0.13689 0.49815 0.0
H471 H 0.30195 0.1378 0.50511 0.0
C472 C 0.29586 0.14634 0.53231 0.0
C473 C 0.27663 0.15596 0.5452 0.0
C474 C 0.21921 0.14407 0.48824 0.0
C475 C 0.25792 0.15154 0.51074 0.0
C476 C 0.20984 0.14607 0.47101 0.0
C477 C 0.22875 0.15628 0.45811 0.0
C478 C 0.24788 0.15156 0.49247 0.0
C479 C 0.25734 0.16324 0.46286 0.0
C480 C 0.2867 0.14451 0.51502 0.0
C481 C 0.24797 0.16249 0.54039 0.0
N482 N 0.26611 0.16062 0.47965 0.0
N483 N 0.23942 0.16001 0.52355 0.0
H484 H 0.04384 0.00646 0.79626 0.0
H485 H 0.1347 0.96641 0.7127 0.0
H486 H 0.13296 0.03472 0.7931 0.0
H487 H 0.04572 0.99526 0.71022 0.0
H488 H 0.13647 0.9819 0.74339 0.0
H489 H 0.04601 0.99158 0.7659 0.0
C490 C 0.06399 0.00932 0.78922 0.0
C491 C 0.08824 0.02196 0.79722 0.0
C492 C 0.11671 0.9849 0.736 0.0
C493 C 0.09089 0.00459 0.76244 0.0
C494 C 0.11563 0.97601 0.71858 0.0
C495 C 0.09003 0.9796 0.7089 0.0
C496 C 0.09176 0.99659 0.74381 0.0
C497 C 0.06594 0.99219 0.71713 0.0
C498 C 0.06513 0.00095 0.77187 0.0
C499 C 0.11373 0.02521 0.78738 0.0
N500 N 0.06729 0.99987 0.73411 0.0
N501 N 0.1145 0.01639 0.77047 0.0
H502 H 0.31729 0.8581 0.96908 0.0
H503 H 0.18635 0.85932 0.03638 0.0
H504 H 0.23178 0.82898 0.95445 0.0
H505 H 0.27151 0.82961 0.05129 0.0
H506 H 0.20297 0.86243 0.0061 0.0
H507 H 0.30079 0.86185 0.99937 0.0
C508 C 0.29495 0.85294 0.9722 0.0
C509 C 0.27587 0.8431 0.9593 0.0
C510 C 0.21801 0.85553 0.01608 0.0
C511 C 0.25687 0.84784 0.99368 0.0
C512 C 0.20864 0.8539 0.03332 0.0
C513 C 0.22758 0.84408 0.04631 0.0
C514 C 0.24673 0.84807 0.01192 0.0
C515 C 0.2562 0.83711 0.04163 0.0
C516 C 0.28565 0.85493 0.98945 0.0
C517 C 0.2472 0.83648 0.96405 0.0
N518 N 0.26497 0.83938 0.02482 0.0
N519 N 0.2385 0.83912 0.98085 0.0
H520 H 0.60946 0.93547 0.78704 0.0
H521 H 0.60888 0.06507 0.71874 0.0
H522 H 0.58086 0.02133 0.80126 0.0
H523 H 0.58017 0.97917 0.70467 0.0
H524 H 0.61258 0.04921 0.74914 0.0
H525 H 0.61271 0.95134 0.75663 0.0
C526 C 0.60432 0.95776 0.7838 0.0
C527 C 0.59477 0.97712 0.79664 0.0
C528 C 0.60576 0.03384 0.73932 0.0
C529 C 0.5989 0.9954 0.76208 0.0
C530 C 0.6038 0.04278 0.72201 0.0
C531 C 0.59409 0.0234 0.70922 0.0
C532 C 0.59875 0.00513 0.74376 0.0
C533 C 0.58758 0.99481 0.71417 0.0
C534 C 0.60602 0.9667 0.76648 0.0
C535 C 0.58816 0.00571 0.79173 0.0
N536 N 0.59016 0.98647 0.73104 0.0
N537 N 0.59048 0.01405 0.77484 0.0
H538 H 0.68555 0.85962 0.46915 0.0
H539 H 0.81606 0.85985 0.53681 0.0
H540 H 0.77115 0.83061 0.45464 0.0
H541 H 0.73053 0.83078 0.55144 0.0
H542 H 0.79971 0.86319 0.50648 0.0
H543 H 0.70183 0.86308 0.4995 0.0
C544 C 0.70786 0.85442 0.47231 0.0
C545 C 0.72703 0.8447 0.45942 0.0
C546 C 0.78453 0.85638 0.51641 0.0
C547 C 0.74578 0.8491 0.49388 0.0
C548 C 0.79375 0.85463 0.53368 0.0
C549 C 0.77462 0.84492 0.5466 0.0
C550 C 0.75579 0.84917 0.51215 0.0
C551 C 0.74599 0.8382 0.54183 0.0
C552 C 0.71704 0.85624 0.48959 0.0
C553 C 0.75566 0.83802 0.46422 0.0
N554 N 0.73737 0.84059 0.52499 0.0
N555 N 0.76423 0.84049 0.48106 0.0
H556 H 0.8921 0.06613 0.28623 0.0
H557 H 0.89141 0.93642 0.2181 0.0
H558 H 0.92106 0.98033 0.30035 0.0
H559 H 0.92068 0.02204 0.20381 0.0
H560 H 0.88802 0.95245 0.24847 0.0
H561 H 0.88835 0.05018 0.25585 0.0
C562 C 0.89721 0.04384 0.28297 0.0
C563 C 0.90702 0.02451 0.29576 0.0
C564 C 0.89488 0.96772 0.23861 0.0
C565 C 0.9023 0.00616 0.26127 0.0
C566 C 0.89666 0.95869 0.22132 0.0
C567 C 0.90645 0.97794 0.20848 0.0
C568 C 0.90216 0.99639 0.24297 0.0
C569 C 0.9132 0.0065 0.21335 0.0
C570 C 0.89522 0.03485 0.26568 0.0
C571 C 0.91358 0.99593 0.29084 0.0
N572 N 0.9108 0.01494 0.23021 0.0
N573 N 0.91097 0.98754 0.27399 0.0
H574 H 0.81564 0.143 0.96907 0.0
H575 H 0.6855 0.14371 0.037 0.0
H576 H 0.72993 0.1717 0.95457 0.0
H577 H 0.77135 0.17226 0.05133 0.0
H578 H 0.70157 0.14015 0.00663 0.0
H579 H 0.79952 0.13988 0.99945 0.0
C580 C 0.79333 0.1482 0.97224 0.0
C581 C 0.77409 0.15773 0.95933 0.0
C582 C 0.71688 0.14691 0.0165 0.0
C583 C 0.75552 0.15374 0.99385 0.0
C584 C 0.70782 0.1488 0.03379 0.0
C585 C 0.72712 0.15841 0.04665 0.0
C586 C 0.74563 0.1539 0.01215 0.0
C587 C 0.75576 0.16493 0.04178 0.0
C588 C 0.78425 0.14657 0.98954 0.0
C589 C 0.74547 0.16442 0.96416 0.0
N590 N 0.76421 0.16242 0.02492 0.0
N591 N 0.73699 0.16216 0.98102 0.0
H592 H 0.92207 0.47844 0.70316 0.0
H593 H 0.92186 0.52087 0.80144 0.0
H594 H 0.89239 0.5632 0.71885 0.0
H595 H 0.89379 0.43548 0.78589 0.0
H596 H 0.91729 0.53717 0.77123 0.0
H597 H 0.91791 0.46195 0.73336 0.0
C598 C 0.91449 0.4935 0.71296 0.0
C599 C 0.90752 0.52221 0.70854 0.0
C600 C 0.91186 0.51496 0.77449 0.0
C601 C 0.90345 0.50371 0.74305 0.0
C602 C 0.91456 0.50562 0.79167 0.0
C603 C 0.90815 0.4768 0.79613 0.0
C604 C 0.9036 0.4951 0.7616 0.0
C605 C 0.89876 0.45792 0.78299 0.0
C606 C 0.91203 0.48405 0.73013 0.0
C607 C 0.8978 0.54085 0.72172 0.0
N608 N 0.89725 0.46726 0.76624 0.0
N609 N 0.89653 0.53143 0.73845 0.0
H610 H 0.78522 0.61666 0.04305 0.0
H611 H 0.74551 0.70709 0.95915 0.0
H612 H 0.75888 0.70643 0.04504 0.0
H613 H 0.71593 0.61849 0.96302 0.0
H614 H 0.76106 0.70513 0.98938 0.0
H615 H 0.76925 0.61473 0.01245 0.0
C616 C 0.77608 0.63588 0.03708 0.0
C617 C 0.77332 0.66174 0.0466 0.0
C618 C 0.75126 0.68608 0.9836 0.0
C619 C 0.75578 0.65982 0.01179 0.0
C620 C 0.74249 0.6871 0.96632 0.0
C621 C 0.72928 0.66294 0.95855 0.0
C622 C 0.74742 0.66053 0.99321 0.0
C623 C 0.72587 0.63765 0.96856 0.0
C624 C 0.76691 0.63471 0.01971 0.0
C625 C 0.76129 0.686 0.03826 0.0
N626 N 0.73506 0.637 0.9854 0.0
N627 N 0.75332 0.68454 0.02133 0.0
H628 H 0.54346 0.50524 0.29741 0.0
H629 H 0.63365 0.46568 0.21336 0.0
H630 H 0.63215 0.53458 0.2935 0.0
H631 H 0.54387 0.49206 0.21148 0.0
H632 H 0.63566 0.4815 0.24398 0.0
H633 H 0.5453 0.48975 0.26716 0.0
C634 C 0.56345 0.50821 0.29023 0.0
C635 C 0.58767 0.52133 0.29799 0.0
C636 C 0.61566 0.48387 0.23674 0.0
C637 C 0.58994 0.50328 0.26331 0.0
C638 C 0.61445 0.47479 0.21936 0.0
C639 C 0.58856 0.47761 0.20987 0.0
C640 C 0.59058 0.49498 0.24471 0.0
C641 C 0.56432 0.4896 0.21824 0.0
C642 C 0.5644 0.49949 0.27294 0.0
C643 C 0.61295 0.52469 0.28797 0.0
N644 N 0.56583 0.49749 0.23519 0.0
N645 N 0.61352 0.51554 0.27111 0.0
H646 H 0.71594 0.38294 0.5436 0.0
H647 H 0.75746 0.29307 0.45988 0.0
H648 H 0.74433 0.2938 0.54583 0.0
H649 H 0.78524 0.38227 0.46358 0.0
H650 H 0.74209 0.29479 0.49015 0.0
H651 H 0.73199 0.38507 0.51303 0.0
C652 C 0.72556 0.3639 0.53769 0.0
C653 C 0.72884 0.33815 0.54726 0.0
C654 C 0.75146 0.31403 0.48433 0.0
C655 C 0.74649 0.3403 0.51248 0.0
C656 C 0.76011 0.31314 0.46702 0.0
C657 C 0.77275 0.33755 0.45919 0.0
C658 C 0.75483 0.33968 0.49389 0.0
C659 C 0.77573 0.36293 0.46916 0.0
C660 C 0.73477 0.36519 0.52034 0.0
C661 C 0.74148 0.31413 0.539 0.0
N662 N 0.76664 0.36344 0.48603 0.0
N663 N 0.74948 0.31569 0.52207 0.0
H664 H 0.07935 0.52241 0.30183 0.0
H665 H 0.07996 0.47908 0.20354 0.0
H666 H 0.10871 0.4374 0.2864 0.0
H667 H 0.10764 0.56462 0.21904 0.0
H668 H 0.08415 0.46298 0.23382 0.0
H669 H 0.08334 0.53856 0.27156 0.0
C670 C 0.08681 0.50722 0.29208 0.0
C671 C 0.09376 0.47855 0.2966 0.0
C672 C 0.08957 0.48518 0.23053 0.0
C673 C 0.09765 0.49666 0.26199 0.0
C674 C 0.0871 0.4944 0.21331 0.0
C675 C 0.09352 0.5232 0.2088 0.0
C676 C 0.09762 0.50514 0.24341 0.0
C677 C 0.10266 0.54218 0.22196 0.0
C678 C 0.08917 0.51646 0.27486 0.0
C679 C 0.10331 0.45973 0.28346 0.0
N680 N 0.10398 0.53296 0.23874 0.0
N681 N 0.10452 0.46897 0.26669 0.0
H682 H 0.31486 0.35945 0.03645 0.0
H683 H 0.18481 0.35803 0.96843 0.0
H684 H 0.22925 0.33035 0.0509 0.0
H685 H 0.27086 0.32989 0.95425 0.0
H686 H 0.20079 0.36187 0.99881 0.0
H687 H 0.29872 0.36266 0.00609 0.0
C688 C 0.29257 0.3542 0.03327 0.0
C689 C 0.27336 0.3445 0.04616 0.0
C690 C 0.21616 0.35515 0.98897 0.0
C691 C 0.25478 0.34859 0.01166 0.0
C692 C 0.20715 0.3531 0.97167 0.0
C693 C 0.22654 0.34351 0.95886 0.0
C694 C 0.24494 0.34834 0.99336 0.0
C695 C 0.2552 0.3372 0.96377 0.0
C696 C 0.28347 0.35588 0.01598 0.0
C697 C 0.24477 0.33775 0.04133 0.0
N698 N 0.2636 0.33986 0.98062 0.0
N699 N 0.23627 0.34005 0.02447 0.0
H700 H 0.42187 0.47827 0.80099 0.0
H701 H 0.42193 0.52196 0.70283 0.0
H702 H 0.39341 0.56364 0.78565 0.0
H703 H 0.39338 0.43661 0.71814 0.0
H704 H 0.41765 0.53799 0.73311 0.0
H705 H 0.4176 0.46223 0.77071 0.0
C706 C 0.41454 0.49357 0.79126 0.0
C707 C 0.40794 0.52231 0.7958 0.0
C708 C 0.41205 0.51585 0.72978 0.0
C709 C 0.40373 0.50432 0.76119 0.0
C710 C 0.41457 0.50667 0.71256 0.0
C711 C 0.40795 0.47793 0.708 0.0
C712 C 0.40373 0.49591 0.74261 0.0
C713 C 0.39852 0.45899 0.72111 0.0
C714 C 0.41202 0.48438 0.77404 0.0
C715 C 0.39853 0.54125 0.78269 0.0
N716 N 0.39716 0.46817 0.73789 0.0
N717 N 0.39718 0.53207 0.76591 0.0
H718 H 0.21563 0.61925 0.54383 0.0
H719 H 0.2567 0.70999 0.46045 0.0
H720 H 0.24463 0.70816 0.54656 0.0
H721 H 0.28466 0.62081 0.46379 0.0
H722 H 0.24161 0.70798 0.49078 0.0
H723 H 0.23149 0.61754 0.51323 0.0
C724 C 0.22536 0.63832 0.53803 0.0
C725 C 0.22887 0.66388 0.54774 0.0
C726 C 0.25096 0.68882 0.48486 0.0
C727 C 0.24627 0.66222 0.51292 0.0
C728 C 0.25944 0.68987 0.46752 0.0
C729 C 0.27205 0.66554 0.45958 0.0
C730 C 0.25446 0.66308 0.49433 0.0
C731 C 0.27516 0.64009 0.46946 0.0
C732 C 0.23445 0.63728 0.52066 0.0
C733 C 0.24162 0.68796 0.53961 0.0
N734 N 0.26623 0.63941 0.48635 0.0
N735 N 0.2495 0.68666 0.52265 0.0
H736 H 0.37836 0.98532 0.1065 0.0
H737 H 0.26574 0.87355 0.14782 0.0
H738 H 0.35783 0.98377 0.16115 0.0
H739 H 0.26805 0.8935 0.09309 0.0
H740 H 0.30217 0.91105 0.15294 0.0
H741 H 0.3408 0.94896 0.10139 0.0
C742 C 0.366 0.97732 0.11746 0.0
C743 C 0.37137 0.98764 0.13431 0.0
C744 C 0.29465 0.90728 0.13982 0.0
C745 C 0.32828 0.94581 0.12849 0.0
C746 C 0.27392 0.88576 0.13685 0.0
C747 C 0.26379 0.88026 0.11996 0.0
C748 C 0.30569 0.92326 0.12581 0.0
C749 C 0.27513 0.89699 0.10632 0.0
C750 C 0.34445 0.95663 0.11449 0.0
C751 C 0.35445 0.97654 0.14794 0.0
N752 N 0.29559 0.91761 0.10953 0.0
N753 N 0.3338 0.9561 0.14475 0.0
H754 H 0.26636 0.12833 0.35637 0.0
H755 H 0.37934 0.01618 0.39694 0.0
H756 H 0.26892 0.10758 0.41098 0.0
H757 H 0.3587 0.01859 0.34231 0.0
H758 H 0.34169 0.05234 0.40229 0.0
H759 H 0.30281 0.09096 0.35099 0.0
C760 C 0.27459 0.11597 0.36726 0.0
C761 C 0.26454 0.12121 0.38419 0.0
C762 C 0.34534 0.0449 0.38914 0.0
C763 C 0.30647 0.07836 0.37805 0.0
C764 C 0.36694 0.02433 0.38604 0.0
C765 C 0.3723 0.01431 0.36912 0.0
C766 C 0.32911 0.05591 0.37522 0.0
C767 C 0.35533 0.02559 0.35557 0.0
C768 C 0.29534 0.09453 0.36414 0.0
C769 C 0.27595 0.1043 0.39772 0.0
N770 N 0.33462 0.04591 0.3589 0.0
N771 N 0.29642 0.08376 0.39438 0.0
H772 H 0.16282 0.99531 0.64692 0.0
H773 H 0.20213 0.15755 0.62587 0.0
H774 H 0.09796 0.05196 0.62499 0.0
H775 H 0.2597 0.08883 0.60982 0.0
H776 H 0.16448 0.1212 0.63206 0.0
H777 H 0.20016 0.03179 0.64016 0.0
C778 C 0.15643 0.01556 0.64089 0.0
C779 C 0.12733 0.02072 0.63649 0.0
C780 C 0.18535 0.1142 0.62713 0.0
C781 C 0.16961 0.06235 0.62902 0.0
C782 C 0.20678 0.13481 0.62363 0.0
C783 C 0.23392 0.12609 0.61724 0.0
C784 C 0.19151 0.08466 0.62479 0.0
C785 C 0.23892 0.09639 0.61458 0.0
C786 C 0.1777 0.03615 0.63692 0.0
C787 C 0.12019 0.04717 0.62852 0.0
N788 N 0.21802 0.07662 0.6186 0.0
N789 N 0.14116 0.06718 0.62519 0.0
H790 H 0.14128 0.9797 0.84324 0.0
H791 H 0.23443 0.89131 0.91309 0.0
H792 H 0.12299 0.98095 0.89819 0.0
H793 H 0.23442 0.87086 0.85842 0.0
H794 H 0.19716 0.92811 0.90776 0.0
H795 H 0.1791 0.94337 0.84846 0.0
C796 C 0.14518 0.97237 0.85639 0.0
C797 C 0.12881 0.98337 0.87028 0.0
C798 C 0.20533 0.91552 0.89695 0.0
C799 C 0.17223 0.942 0.87634 0.0
C800 C 0.22668 0.89458 0.89997 0.0
C801 C 0.23755 0.87786 0.8862 0.0
C802 C 0.195 0.92005 0.88001 0.0
C803 C 0.22658 0.88306 0.86947 0.0
C804 C 0.16673 0.95159 0.85935 0.0
C805 C 0.13488 0.973 0.88705 0.0
N806 N 0.20602 0.90375 0.86684 0.0
N807 N 0.15615 0.95303 0.88961 0.0
H808 H 0.73704 0.12698 0.85756 0.0
H809 H 0.62431 0.01497 0.89843 0.0
H810 H 0.73418 0.10717 0.91229 0.0
H811 H 0.64493 0.01709 0.84379 0.0
H812 H 0.66209 0.05102 0.90372 0.0
H813 H 0.70102 0.08918 0.85229 0.0
C814 C 0.72884 0.11472 0.8685 0.0
C815 C 0.73866 0.12039 0.88543 0.0
C816 C 0.65842 0.04352 0.89059 0.0
C817 C 0.6972 0.07702 0.87942 0.0
C818 C 0.63674 0.02301 0.88752 0.0
C819 C 0.63131 0.01297 0.8706 0.0
C820 C 0.67465 0.05445 0.87664 0.0
C821 C 0.64834 0.02411 0.85704 0.0
C822 C 0.70834 0.09302 0.86544 0.0
C823 C 0.72732 0.10357 0.89903 0.0
N824 N 0.66911 0.04439 0.86034 0.0
N825 N 0.70706 0.08278 0.89574 0.0
H826 H 0.62369 0.98538 0.60752 0.0
H827 H 0.73701 0.87389 0.64838 0.0
H828 H 0.64408 0.98325 0.66218 0.0
H829 H 0.73445 0.89428 0.59372 0.0
H830 H 0.70057 0.91132 0.65367 0.0
H831 H 0.66167 0.94954 0.60225 0.0
C832 C 0.63611 0.97737 0.61844 0.0
C833 C 0.63056 0.98736 0.63535 0.0
C834 C 0.70805 0.90767 0.64053 0.0
C835 C 0.67414 0.94611 0.62935 0.0
C836 C 0.72879 0.8862 0.63746 0.0
C837 C 0.73883 0.88081 0.62054 0.0
C838 C 0.69689 0.92373 0.62658 0.0
C839 C 0.72744 0.89767 0.60697 0.0
C840 C 0.65791 0.95698 0.61539 0.0
C841 C 0.64759 0.97626 0.64894 0.0
N842 N 0.70696 0.91823 0.61027 0.0
N843 N 0.66847 0.9561 0.64565 0.0
H844 H 0.76782 0.89414 0.41297 0.0
H845 H 0.858 0.98418 0.34241 0.0
H846 H 0.76659 0.87442 0.3582 0.0
H847 H 0.87811 0.9852 0.39713 0.0
H848 H 0.82034 0.94788 0.34801 0.0
H849 H 0.80433 0.93165 0.40742 0.0
C850 C 0.77513 0.89772 0.39978 0.0
C851 C 0.76415 0.88098 0.38605 0.0
C852 C 0.83304 0.95607 0.35877 0.0
C853 C 0.8058 0.924 0.37962 0.0
C854 C 0.85448 0.97686 0.3556 0.0
C855 C 0.87137 0.98773 0.3693 0.0
C856 C 0.82817 0.9463 0.3758 0.0
C857 C 0.8658 0.97734 0.38613 0.0
C858 C 0.79605 0.91907 0.39664 0.0
C859 C 0.77454 0.8866 0.36923 0.0
N860 N 0.84464 0.95731 0.3889 0.0
N861 N 0.79467 0.90767 0.36649 0.0
H862 H 0.76545 0.12783 0.1481 0.0
H863 H 0.87767 0.01577 0.10675 0.0
H864 H 0.76761 0.10819 0.09334 0.0
H865 H 0.85718 0.01769 0.1614 0.0
H866 H 0.84002 0.05206 0.10157 0.0
H867 H 0.80158 0.09007 0.15315 0.0
C868 C 0.77352 0.11562 0.13711 0.0
C869 C 0.76347 0.12131 0.12024 0.0
C870 C 0.84371 0.04446 0.11468 0.0
C871 C 0.80505 0.07798 0.126 0.0
C872 C 0.8653 0.02382 0.11768 0.0
C873 C 0.87071 0.01365 0.13457 0.0
C874 C 0.82756 0.05537 0.12867 0.0
C875 C 0.85378 0.02481 0.14817 0.0
C876 C 0.79409 0.09395 0.14004 0.0
C877 C 0.77465 0.10455 0.10656 0.0
N878 N 0.83311 0.04518 0.14494 0.0
N879 N 0.79498 0.08378 0.10973 0.0
H880 H 0.76916 0.37053 0.64862 0.0
H881 H 0.87957 0.48433 0.60709 0.0
H882 H 0.77073 0.39039 0.59387 0.0
H883 H 0.85912 0.48222 0.66175 0.0
H884 H 0.84288 0.44705 0.60199 0.0
H885 H 0.8053 0.40831 0.65359 0.0
C886 C 0.77716 0.38274 0.63761 0.0
C887 C 0.76685 0.37717 0.62077 0.0
C888 C 0.84637 0.4548 0.61509 0.0
C889 C 0.80839 0.42057 0.62644 0.0
C890 C 0.86741 0.47603 0.61805 0.0
C891 C 0.87252 0.48646 0.63491 0.0
C892 C 0.8305 0.44358 0.6291 0.0
C893 C 0.8559 0.47493 0.64854 0.0
C894 C 0.79771 0.40443 0.64049 0.0
C895 C 0.77796 0.39392 0.60707 0.0
N896 N 0.83577 0.454 0.64535 0.0
N897 N 0.79823 0.41476 0.6102 0.0
H898 H 0.85899 0.51695 0.84233 0.0
H899 H 0.77049 0.60955 0.91242 0.0
H900 H 0.87963 0.51704 0.89698 0.0
H901 H 0.76841 0.62756 0.85745 0.0
H902 H 0.80696 0.57192 0.9071 0.0
H903 H 0.8219 0.55391 0.84774 0.0
C904 C 0.8557 0.52465 0.85546 0.0
C905 C 0.87257 0.5139 0.86921 0.0
C906 C 0.79853 0.58419 0.89623 0.0
C907 C 0.83004 0.55608 0.87548 0.0
C908 C 0.77766 0.60562 0.89925 0.0
C909 C 0.76639 0.62187 0.88538 0.0
C910 C 0.80795 0.57868 0.8792 0.0
C911 C 0.77657 0.61577 0.86857 0.0
C912 C 0.8346 0.54582 0.85853 0.0
C913 C 0.86733 0.52479 0.88596 0.0
N914 N 0.79665 0.59462 0.86596 0.0
N915 N 0.84649 0.54518 0.88862 0.0
H916 H 0.7299 0.61117 0.09309 0.0
H917 H 0.63949 0.5213 0.16348 0.0
H918 H 0.73101 0.63119 0.14782 0.0
H919 H 0.61958 0.52034 0.10873 0.0
H920 H 0.6765 0.55834 0.15801 0.0
H921 H 0.69269 0.57437 0.09859 0.0
C922 C 0.72236 0.60786 0.10625 0.0
C923 C 0.73359 0.6244 0.12 0.0
C924 C 0.66394 0.55004 0.14722 0.0
C925 C 0.69116 0.58216 0.12639 0.0
C926 C 0.64287 0.52884 0.15032 0.0
C927 C 0.6263 0.5177 0.13656 0.0
C928 C 0.66877 0.55991 0.13021 0.0
C929 C 0.63166 0.52838 0.11978 0.0
C930 C 0.70105 0.5869 0.10938 0.0
C931 C 0.7229 0.61913 0.13679 0.0
N932 N 0.6525 0.54875 0.11707 0.0
N933 N 0.70242 0.5984 0.13952 0.0
H934 H 0.7326 0.37011 0.3578 0.0
H935 H 0.62071 0.48236 0.3995 0.0
H936 H 0.73081 0.39017 0.41252 0.0
H937 H 0.64032 0.48003 0.34472 0.0
H938 H 0.65767 0.44537 0.40448 0.0
H939 H 0.69555 0.40701 0.35284 0.0
C940 C 0.72437 0.38218 0.36881 0.0
C941 C 0.7349 0.37694 0.38564 0.0
C942 C 0.65391 0.45298 0.39138 0.0
C943 C 0.6923 0.41929 0.37997 0.0
C944 C 0.6327 0.47403 0.38848 0.0
C945 C 0.62731 0.48438 0.37163 0.0
C946 C 0.66972 0.44185 0.37733 0.0
C947 C 0.64374 0.4728 0.35793 0.0
C948 C 0.70328 0.40336 0.36592 0.0
C949 C 0.72345 0.39347 0.39933 0.0
N950 N 0.6641 0.45208 0.36107 0.0
N951 N 0.70268 0.41381 0.3962 0.0
H952 H 0.14363 0.51858 0.34297 0.0
H953 H 0.23123 0.61177 0.41323 0.0
H954 H 0.12353 0.51772 0.39769 0.0
H955 H 0.23319 0.63004 0.35829 0.0
H956 H 0.1952 0.57377 0.40784 0.0
H957 H 0.18027 0.55599 0.34842 0.0
C958 C 0.14695 0.52616 0.35613 0.0
C959 C 0.13036 0.515 0.36988 0.0
C960 C 0.2035 0.58617 0.39699 0.0
C961 C 0.17236 0.55773 0.37619 0.0
C962 C 0.22412 0.60783 0.40005 0.0
C963 C 0.23524 0.62425 0.38621 0.0
C964 C 0.19417 0.58061 0.37995 0.0
C965 C 0.22514 0.61812 0.36939 0.0
C966 C 0.16779 0.5476 0.35921 0.0
C967 C 0.13563 0.52577 0.38666 0.0
N968 N 0.20531 0.59674 0.36673 0.0
N969 N 0.1562 0.54642 0.38934 0.0
H970 H 0.23616 0.37396 0.14798 0.0
H971 H 0.12475 0.48731 0.10713 0.0
H972 H 0.2341 0.39472 0.09336 0.0
H973 H 0.14432 0.48414 0.16189 0.0
H974 H 0.16239 0.45112 0.10187 0.0
H975 H 0.20025 0.41186 0.15331 0.0
C976 C 0.22816 0.38645 0.13708 0.0
C977 C 0.23817 0.38103 0.12016 0.0
C978 C 0.15853 0.45841 0.11503 0.0
C979 C 0.19687 0.4245 0.12624 0.0
C980 C 0.13693 0.47901 0.11808 0.0
C981 C 0.13124 0.48878 0.13501 0.0
C982 C 0.17441 0.44714 0.12902 0.0
C983 C 0.14795 0.47731 0.14863 0.0
C984 C 0.20773 0.40819 0.14017 0.0
C985 C 0.22709 0.39813 0.10661 0.0
N986 N 0.16864 0.45696 0.14534 0.0
N987 N 0.20691 0.41896 0.10993 0.0
H988 H 0.3578 0.48313 0.8422 0.0
H989 H 0.26699 0.39318 0.9125 0.0
H990 H 0.37713 0.48447 0.89701 0.0
H991 H 0.26646 0.37326 0.85776 0.0
H992 H 0.3033 0.43091 0.90705 0.0
H993 H 0.32004 0.44689 0.84768 0.0
C994 C 0.35408 0.4759 0.85538 0.0
C995 C 0.37079 0.48682 0.86915 0.0
C996 C 0.29521 0.41824 0.89625 0.0
C997 C 0.32748 0.44547 0.87551 0.0
C998 C 0.2744 0.39677 0.89934 0.0
C999 C 0.2637 0.3799 0.88558 0.0
C1000 C 0.30512 0.42315 0.87926 0.0
C1001 C 0.2742 0.38555 0.86879 0.0
C1002 C 0.33258 0.45514 0.85849 0.0
C1003 C 0.36497 0.47655 0.88597 0.0
N1004 N 0.29424 0.40672 0.86611 0.0
N1005 N 0.34377 0.45654 0.88868 0.0
H1006 H 0.37864 0.51675 0.60682 0.0
H1007 H 0.26778 0.62931 0.64912 0.0
H1008 H 0.35854 0.51792 0.66154 0.0
H1009 H 0.26984 0.6107 0.59422 0.0
H1010 H 0.30389 0.59141 0.65389 0.0
H1011 H 0.34168 0.55382 0.602 0.0
C1012 C 0.36649 0.52479 0.61785 0.0
C1013 C 0.3718 0.51417 0.63464 0.0
C1014 C 0.29641 0.59558 0.64081 0.0
C1015 C 0.32944 0.55683 0.62915 0.0
C1016 C 0.27586 0.61734 0.63803 0.0
C1017 C 0.26572 0.62331 0.62121 0.0
C1018 C 0.30723 0.5798 0.62665 0.0
C1019 C 0.27694 0.60686 0.60741 0.0
C1020 C 0.3453 0.54591 0.61505 0.0
C1021 C 0.35518 0.52537 0.64837 0.0
N1022 N 0.29719 0.58597 0.61043 0.0
N1023 N 0.33488 0.5462 0.64533 0.0
H1024 H 0.42408 0.13159 0.10553 0.0
H1025 H 0.30282 0.25149 0.12573 0.0
H1026 H 0.3693 0.12805 0.15096 0.0
H1027 H 0.35995 0.25321 0.0814 0.0
H1028 H 0.32643 0.20663 0.13552 0.0
H1029 H 0.40063 0.1765 0.09696 0.0
C1030 C 0.4071 0.14023 0.11376 0.0
C1031 C 0.39864 0.12579 0.129 0.0
C1032 C 0.33376 0.21685 0.12365 0.0
C1033 C 0.37145 0.17769 0.11913 0.0
C1034 C 0.32027 0.24241 0.11805 0.0
C1035 C 0.32941 0.25608 0.1027 0.0
C1036 C 0.35651 0.2049 0.11383 0.0
C1037 C 0.35216 0.24343 0.09328 0.0
C1038 C 0.39368 0.16601 0.10883 0.0
C1039 C 0.37656 0.13836 0.13911 0.0
N1040 N 0.36487 0.21862 0.09899 0.0
N1041 N 0.36366 0.16355 0.13396 0.0
H1042 H 0.12438 0.11879 0.40222 0.0
H1043 H 0.99777 0.11129 0.33092 0.0
H1044 H 0.11996 0.17261 0.35641 0.0
H1045 H 0.00087 0.05403 0.37518 0.0
H1046 H 0.04228 0.13442 0.34082 0.0
H1047 H 0.07883 0.09539 0.3934 0.0
C1048 C 0.11387 0.12577 0.39037 0.0
C1049 C 0.1262 0.14769 0.38004 0.0
C1050 C 0.03333 0.11679 0.34841 0.0
C1051 C 0.07414 0.12097 0.36988 0.0
C1052 C 0.00786 0.10353 0.34274 0.0
C1053 C 0.9956 0.08064 0.35221 0.0
C1054 C 0.04681 0.10718 0.36372 0.0
C1055 C 0.00965 0.07158 0.36745 0.0
C1056 C 0.08789 0.11236 0.38533 0.0
C1057 C 0.11151 0.15577 0.3648 0.0
N1058 N 0.03454 0.08488 0.37275 0.0
N1059 N 0.0864 0.14244 0.36022 0.0
H1060 H 0.08238 0.87583 0.60488 0.0
H1061 H 0.19665 0.75092 0.62836 0.0
H1062 H 0.13268 0.87641 0.65217 0.0
H1063 H 0.14008 0.74935 0.58376 0.0
H1064 H 0.17457 0.797 0.63734 0.0
H1065 H 0.10446 0.82989 0.59697 0.0
C1066 C 0.09813 0.86637 0.61364 0.0
C1067 C 0.10566 0.88022 0.62925 0.0
C1068 C 0.16698 0.78652 0.62561 0.0
C1069 C 0.1312 0.82708 0.62015 0.0
C1070 C 0.17958 0.76025 0.62047 0.0
C1071 C 0.17022 0.74631 0.60526 0.0
C1072 C 0.14495 0.79896 0.61543 0.0
C1073 C 0.14801 0.75932 0.59556 0.0
C1074 C 0.11073 0.83998 0.60909 0.0
C1075 C 0.12619 0.8666 0.64002 0.0
N1076 N 0.13622 0.78488 0.60078 0.0
N1077 N 0.13828 0.8408 0.63525 0.0
H1078 H 0.50178 0.94832 0.87639 0.0
H1079 H 0.38205 0.82665 0.85666 0.0
H1080 H 0.50333 0.89101 0.83214 0.0
H1081 H 0.37874 0.88143 0.90209 0.0
H1082 H 0.42678 0.85027 0.84793 0.0
H1083 H 0.45702 0.92466 0.88632 0.0
C1084 C 0.49269 0.93082 0.86875 0.0
C1085 C 0.50628 0.92165 0.85339 0.0
C1086 C 0.41637 0.85719 0.85983 0.0
C1087 C 0.45522 0.89449 0.86468 0.0
C1088 C 0.39069 0.84367 0.86486 0.0
C1089 C 0.37637 0.85207 0.88014 0.0
C1090 C 0.42809 0.87947 0.87008 0.0
C1091 C 0.38896 0.87421 0.8902 0.0
C1092 C 0.46718 0.9173 0.87444 0.0
C1093 C 0.49361 0.89883 0.84404 0.0
N1094 N 0.41406 0.88721 0.88496 0.0
N1095 N 0.46886 0.88609 0.84982 0.0
H1096 H 0.3644 0.74733 0.42249 0.0
H1097 H 0.37085 0.87441 0.35146 0.0
H1098 H 0.30591 0.75158 0.37885 0.0
H1099 H 0.42563 0.86974 0.39685 0.0
H1100 H 0.34784 0.82869 0.36026 0.0
H1101 H 0.38808 0.79146 0.41234 0.0
C1102 C 0.35653 0.75756 0.41074 0.0
C1103 C 0.33308 0.7458 0.40154 0.0
C1104 C 0.36495 0.83772 0.36824 0.0
C1105 C 0.36017 0.79654 0.38977 0.0
C1106 C 0.37814 0.8638 0.36321 0.0
C1107 C 0.40017 0.87613 0.37345 0.0
C1108 C 0.37392 0.82385 0.38358 0.0
C1109 C 0.40866 0.8613 0.38855 0.0
C1110 C 0.37008 0.78281 0.40493 0.0
C1111 C 0.32388 0.75998 0.38637 0.0
N1112 N 0.39553 0.83608 0.39314 0.0
N1113 N 0.33742 0.78465 0.38096 0.0
H1114 H 0.37834 0.17025 0.64995 0.0
H1115 H 0.50122 0.05217 0.62923 0.0
H1116 H 0.37879 0.11915 0.60297 0.0
H1117 H 0.50138 0.10819 0.67408 0.0
H1118 H 0.45612 0.07527 0.61943 0.0
H1119 H 0.42305 0.14673 0.65894 0.0
C1120 C 0.38779 0.15406 0.64148 0.0
C1121 C 0.37458 0.14671 0.62564 0.0
C1122 C 0.46604 0.08247 0.63141 0.0
C1123 C 0.42624 0.11947 0.636 0.0
C1124 C 0.49175 0.06927 0.63703 0.0
C1125 C 0.50507 0.07825 0.65252 0.0
C1126 C 0.45355 0.10476 0.64138 0.0
C1127 C 0.49189 0.10054 0.66208 0.0
C1128 C 0.41346 0.14061 0.64665 0.0
C1129 C 0.38812 0.12556 0.61527 0.0
N1130 N 0.46692 0.11297 0.65637 0.0
N1131 N 0.41318 0.11264 0.62065 0.0
H1132 H 0.08063 0.12815 0.90006 0.0
H1133 H 0.19934 0.25011 0.87905 0.0
H1134 H 0.13432 0.12509 0.85416 0.0
H1135 H 0.1417 0.25132 0.92316 0.0
H1136 H 0.17682 0.2045 0.86946 0.0
H1137 H 0.10363 0.17328 0.90837 0.0
C1138 C 0.09732 0.13691 0.89167 0.0
C1139 C 0.10554 0.12255 0.87636 0.0
C1140 C 0.16915 0.21479 0.88123 0.0
C1141 C 0.13223 0.17488 0.88594 0.0
C1142 C 0.182 0.24078 0.88672 0.0
C1143 C 0.1724 0.25451 0.90195 0.0
C1144 C 0.1466 0.2025 0.89107 0.0
C1145 C 0.14984 0.24152 0.91136 0.0
C1146 C 0.11049 0.16286 0.89646 0.0
C1147 C 0.12727 0.13533 0.86607 0.0
N1148 N 0.13778 0.21632 0.90577 0.0
N1149 N 0.13992 0.16077 0.87107 0.0
H1150 H 0.12349 0.88268 0.10223 0.0
H1151 H 0.99726 0.89101 0.17374 0.0
H1152 H 0.11939 0.82949 0.14831 0.0
H1153 H 1.00006 0.9476 0.12917 0.0
H1154 H 0.04179 0.86783 0.16389 0.0
H1155 H 0.07798 0.90616 0.11104 0.0
C1156 C 0.11305 0.87586 0.11414 0.0
C1157 C 0.12546 0.85409 0.12455 0.0
C1158 C 0.03277 0.88532 0.15622 0.0
C1159 C 0.07345 0.8809 0.1347 0.0
C1160 C 0.00729 0.89861 0.16186 0.0
C1161 C 0.99494 0.92132 0.15228 0.0
C1162 C 0.04615 0.89473 0.14083 0.0
C1163 C 0.00891 0.93019 0.13697 0.0
C1164 C 0.08711 0.88932 0.11917 0.0
C1165 C 0.11088 0.84621 0.13986 0.0
N1166 N 0.03379 0.91687 0.1317 0.0
N1167 N 0.0858 0.85958 0.14443 0.0
H1168 H 0.696 0.74866 0.87777 0.0
H1169 H 0.57478 0.86856 0.89793 0.0
H1170 H 0.63717 0.74537 0.92127 0.0
H1171 H 0.63101 0.87298 0.85318 0.0
H1172 H 0.59718 0.82286 0.90608 0.0
H1173 H 0.67244 0.79355 0.86805 0.0
C1174 C 0.67812 0.75736 0.88526 0.0
C1175 C 0.66858 0.74331 0.90039 0.0
C1176 C 0.60466 0.83372 0.89445 0.0
C1177 C 0.64157 0.79458 0.88935 0.0
C1178 C 0.59185 0.85995 0.88976 0.0
C1179 C 0.60107 0.87488 0.87485 0.0
C1180 C 0.62703 0.8221 0.88423 0.0
C1181 C 0.6232 0.86232 0.86479 0.0
C1182 C 0.66468 0.78296 0.8797 0.0
C1183 C 0.6453 0.75548 0.90956 0.0
N1184 N 0.63551 0.83671 0.8697 0.0
N1185 N 0.63266 0.78039 0.90393 0.0
H1186 H 0.00238 0.94875 0.62827 0.0
H1187 H 0.88418 0.82541 0.64753 0.0
H1188 H 0.00651 0.88888 0.67123 0.0
H1189 H 0.8787 0.88256 0.60324 0.0
H1190 H 0.92957 0.8483 0.65578 0.0
H1191 H 0.95771 0.92489 0.61839 0.0
C1192 C 0.99391 0.93059 0.63561 0.0
C1193 C 0.00813 0.92083 0.65063 0.0
C1194 C 0.91855 0.85588 0.64423 0.0
C1195 C 0.95714 0.89347 0.63941 0.0
C1196 C 0.89249 0.84279 0.63948 0.0
C1197 C 0.87735 0.85212 0.62467 0.0
C1198 C 0.9298 0.87866 0.63419 0.0
C1199 C 0.88954 0.87465 0.61477 0.0
C1200 C 0.96844 0.91698 0.62995 0.0
C1201 C 0.99625 0.89719 0.65961 0.0
N1202 N 0.915 0.88724 0.61974 0.0
N1203 N 0.97149 0.88439 0.65388 0.0
H1204 H 0.86579 0.25607 0.4225 0.0
H1205 H 0.87113 0.12818 0.35196 0.0
H1206 H 0.8073 0.25154 0.37887 0.0
H1207 H 0.92533 0.13209 0.39763 0.0
H1208 H 0.84874 0.17424 0.3606 0.0
H1209 H 0.88911 0.21152 0.41261 0.0
C1210 C 0.85786 0.24569 0.41081 0.0
C1211 C 0.83451 0.25747 0.40153 0.0
C1212 C 0.86557 0.16498 0.36868 0.0
C1213 C 0.86114 0.20632 0.39008 0.0
C1214 C 0.87841 0.1387 0.36375 0.0
C1215 C 0.90011 0.12607 0.3741 0.0
C1216 C 0.87456 0.17877 0.38404 0.0
C1217 C 0.90861 0.14079 0.38924 0.0
C1218 C 0.87119 0.22022 0.40516 0.0
C1219 C 0.8252 0.24313 0.38645 0.0
N1220 N 0.89583 0.16623 0.39373 0.0
N1221 N 0.83852 0.21826 0.38119 0.0
H1222 H 0.61939 0.17623 0.14853 0.0
H1223 H 0.50011 0.0543 0.12832 0.0
H1224 H 0.62366 0.12093 0.10336 0.0
H1225 H 0.49723 0.11244 0.17216 0.0
H1226 H 0.54496 0.07803 0.1186 0.0
H1227 H 0.57423 0.15299 0.15688 0.0
C1228 C 0.61086 0.15919 0.1403 0.0
C1229 C 0.62558 0.1505 0.12521 0.0
C1230 C 0.53448 0.08557 0.13034 0.0
C1231 C 0.5734 0.12354 0.13484 0.0
C1232 C 0.50892 0.07201 0.13591 0.0
C1233 C 0.49495 0.08137 0.1511 0.0
C1234 C 0.54612 0.10861 0.14005 0.0
C1235 C 0.50726 0.10446 0.16039 0.0
C1236 C 0.58493 0.14589 0.14511 0.0
C1237 C 0.61313 0.12836 0.1151 0.0
N1238 N 0.53208 0.11722 0.15473 0.0
N1239 N 0.58781 0.11556 0.12013 0.0
H1240 H 0.69639 0.25053 0.62765 0.0
H1241 H 0.5742 0.13149 0.60769 0.0
H1242 H 0.63736 0.25439 0.58425 0.0
H1243 H 0.63027 0.12706 0.65251 0.0
H1244 H 0.59697 0.17698 0.59943 0.0
H1245 H 0.67253 0.20583 0.63738 0.0
C1246 C 0.67841 0.24198 0.62017 0.0
C1247 C 0.66889 0.25615 0.60508 0.0
C1248 C 0.60433 0.16616 0.6111 0.0
C1249 C 0.64152 0.20509 0.61613 0.0
C1250 C 0.59131 0.14006 0.61585 0.0
C1251 C 0.60038 0.12519 0.63082 0.0
C1252 C 0.62675 0.1777 0.6213 0.0
C1253 C 0.62257 0.13768 0.64087 0.0
C1254 C 0.66479 0.21649 0.62575 0.0
C1255 C 0.64547 0.24417 0.59593 0.0
N1256 N 0.63508 0.16315 0.63589 0.0
N1257 N 0.63266 0.21936 0.60158 0.0
H1258 H 0.49853 0.89063 0.33052 0.0
H1259 H 0.6237 0.88272 0.40275 0.0
H1260 H 0.50112 0.94787 0.37478 0.0
H1261 H 0.62033 0.8291 0.35684 0.0
H1262 H 0.57837 0.90616 0.39359 0.0
H1263 H 0.54282 0.86732 0.34071 0.0
C1264 C 0.50846 0.89834 0.34239 0.0
C1265 C 0.49613 0.92128 0.35179 0.0
C1266 C 0.58761 0.88923 0.38557 0.0
C1267 C 0.54704 0.89455 0.36363 0.0
C1268 C 0.61346 0.87578 0.39081 0.0
C1269 C 0.62604 0.85392 0.38055 0.0
C1270 C 0.57421 0.88069 0.36999 0.0
C1271 C 0.61169 0.8459 0.36518 0.0
C1272 C 0.5338 0.88499 0.34823 0.0
C1273 C 0.50996 0.93029 0.36712 0.0
N1274 N 0.58669 0.85926 0.36041 0.0
N1275 N 0.53469 0.9169 0.37258 0.0
H1276 H 0.86568 0.74413 0.08333 0.0
H1277 H 0.8702 0.87374 0.15273 0.0
H1278 H 0.80619 0.75006 0.12641 0.0
H1279 H 0.92507 0.86857 0.1074 0.0
H1280 H 0.84779 0.82754 0.14438 0.0
H1281 H 0.88899 0.7888 0.09299 0.0
C1282 C 0.85752 0.75484 0.09485 0.0
C1283 C 0.83389 0.74342 0.10404 0.0
C1284 C 0.86477 0.83656 0.1363 0.0
C1285 C 0.86053 0.79472 0.11524 0.0
C1286 C 0.87762 0.86292 0.14108 0.0
C1287 C 0.8995 0.87524 0.13073 0.0
C1288 C 0.87394 0.82237 0.12112 0.0
C1289 C 0.9082 0.86013 0.11577 0.0
C1290 C 0.87085 0.78039 0.10037 0.0
C1291 C 0.82431 0.75819 0.11891 0.0
N1292 N 0.8954 0.83461 0.11143 0.0
N1293 N 0.83764 0.78313 0.12404 0.0
H1294 H 0.00182 0.05401 0.878 0.0
H1295 H 0.88358 0.17715 0.85844 0.0
H1296 H 0.00608 0.11371 0.83495 0.0
H1297 H 0.87804 0.12005 0.90276 0.0
H1298 H 0.92911 0.1544 0.8503 0.0
H1299 H 0.95718 0.07794 0.88782 0.0
C1300 C 0.99339 0.07215 0.87062 0.0
C1301 C 0.00763 0.08183 0.85559 0.0
C1302 C 0.91805 0.1468 0.86184 0.0
C1303 C 0.95667 0.10928 0.86675 0.0
C1304 C 0.89192 0.15981 0.86652 0.0
C1305 C 0.87672 0.15044 0.8813 0.0
C1306 C 0.9293 0.12408 0.87192 0.0
C1307 C 0.88893 0.12798 0.89125 0.0
C1308 C 0.96793 0.08581 0.87625 0.0
C1309 C 0.99581 0.10546 0.84658 0.0
N1310 N 0.91445 0.11547 0.88634 0.0
N1311 N 0.97104 0.1183 0.85227 0.0
H1312 H 0.86196 0.75432 0.58164 0.0
H1313 H 0.8691 0.62752 0.65289 0.0
H1314 H 0.80486 0.75146 0.62598 0.0
H1315 H 0.92289 0.63191 0.60708 0.0
H1316 H 0.84583 0.67318 0.64411 0.0
H1317 H 0.88492 0.70968 0.59151 0.0
C1318 C 0.85421 0.74426 0.59347 0.0
C1319 C 0.83141 0.75662 0.60297 0.0
C1320 C 0.86277 0.66409 0.63603 0.0
C1321 C 0.85774 0.70527 0.61445 0.0
C1322 C 0.8761 0.63805 0.64105 0.0
C1323 C 0.89797 0.62567 0.6307 0.0
C1324 C 0.87142 0.67786 0.62059 0.0
C1325 C 0.90609 0.64038 0.61548 0.0
C1326 C 0.86736 0.71871 0.59913 0.0
C1327 C 0.82234 0.7426 0.61823 0.0
N1328 N 0.89284 0.66554 0.61092 0.0
N1329 N 0.83553 0.71765 0.62351 0.0
H1330 H 0.62522 0.6161 0.90248 0.0
H1331 H 0.49833 0.60951 0.83125 0.0
H1332 H 0.62089 0.66939 0.85645 0.0
H1333 H 0.50058 0.55233 0.87556 0.0
H1334 H 0.54314 0.632 0.84113 0.0
H1335 H 0.57944 0.59282 0.89376 0.0
C1336 C 0.61471 0.62296 0.8906 0.0
C1337 C 0.62711 0.64471 0.88018 0.0
C1338 C 0.53395 0.61453 0.84874 0.0
C1339 C 0.57484 0.61822 0.87017 0.0
C1340 C 0.5083 0.60164 0.84308 0.0
C1341 C 0.49571 0.57896 0.85256 0.0
C1342 C 0.54731 0.60476 0.86407 0.0
C1343 C 0.50962 0.56973 0.86783 0.0
C1344 C 0.58861 0.60964 0.88563 0.0
C1345 C 0.61243 0.65268 0.86492 0.0
N1346 N 0.53471 0.58267 0.87312 0.0
N1347 N 0.58724 0.63947 0.86042 0.0
H1348 H 0.58019 0.37279 0.10639 0.0
H1349 H 0.69928 0.25089 0.12675 0.0
H1350 H 0.63386 0.37526 0.15232 0.0
H1351 H 0.64195 0.2503 0.0825 0.0
H1352 H 0.67664 0.29629 0.13655 0.0
H1353 H 0.60347 0.32797 0.09777 0.0
C1354 C 0.59694 0.36397 0.11472 0.0
C1355 C 0.60505 0.37807 0.13015 0.0
C1356 C 0.66906 0.28619 0.1247 0.0
C1357 C 0.63207 0.32609 0.12018 0.0
C1358 C 0.68199 0.26032 0.11909 0.0
C1359 C 0.6725 0.24681 0.10376 0.0
C1360 C 0.64655 0.2986 0.11489 0.0
C1361 C 0.64999 0.25992 0.09437 0.0
C1362 C 0.61026 0.33819 0.10975 0.0
C1363 C 0.62688 0.36523 0.14033 0.0
N1364 N 0.63785 0.28501 0.10008 0.0
N1365 N 0.63968 0.33996 0.13515 0.0
H1366 H 0.87693 0.3845 0.40317 0.0
H1367 H 0.00426 0.39061 0.33218 0.0
H1368 H 0.8812 0.33135 0.35708 0.0
H1369 H 0.00188 0.44789 0.37643 0.0
H1370 H 0.95928 0.36831 0.34196 0.0
H1371 H 0.9228 0.40767 0.3945 0.0
C1372 C 0.88742 0.37767 0.39128 0.0
C1373 C 0.87499 0.35595 0.38084 0.0
C1374 C 0.96848 0.38576 0.34959 0.0
C1375 C 0.92739 0.38231 0.37089 0.0
C1376 C 0.99424 0.39853 0.34398 0.0
C1377 C 0.00683 0.42119 0.35348 0.0
C1378 C 0.95503 0.39563 0.36486 0.0
C1379 C 0.99285 0.4305 0.3687 0.0
C1380 C 0.91358 0.39092 0.38634 0.0
C1381 C 0.88968 0.34801 0.36557 0.0
N1382 N 0.96766 0.41768 0.37394 0.0
N1383 N 0.91493 0.36114 0.36111 0.0
H1384 H 0.92511 0.36955 0.89837 0.0
H1385 H 0.8031 0.24988 0.87929 0.0
H1386 H 0.86962 0.37298 0.85325 0.0
H1387 H 0.86068 0.24868 0.92342 0.0
H1388 H 0.82676 0.29451 0.86915 0.0
H1389 H 0.90164 0.32482 0.90719 0.0
C1390 C 0.90797 0.36092 0.89025 0.0
C1391 C 0.89931 0.3753 0.87503 0.0
C1392 C 0.83418 0.28445 0.88105 0.0
C1393 C 0.87207 0.32356 0.88522 0.0
C1394 C 0.82066 0.25902 0.88686 0.0
C1395 C 0.8299 0.24557 0.90225 0.0
C1396 C 0.85707 0.29648 0.89072 0.0
C1397 C 0.85279 0.2583 0.91151 0.0
C1398 C 0.89453 0.33524 0.89534 0.0
C1399 C 0.87703 0.36273 0.86508 0.0
N1400 N 0.86553 0.28297 0.90561 0.0
N1401 N 0.8641 0.33762 0.87038 0.0
H1402 H 0.00161 0.55261 0.1288 0.0
H1403 H 0.87844 0.66995 0.15003 0.0
H1404 H 0.00162 0.60901 0.17348 0.0
H1405 H 0.87658 0.61724 0.1037 0.0
H1406 H 0.92347 0.64692 0.15852 0.0
H1407 H 0.95596 0.57496 0.11918 0.0
C1408 C 0.992 0.56965 0.13659 0.0
C1409 C 0.00542 0.57895 0.15199 0.0
C1410 C 0.91334 0.64029 0.14648 0.0
C1411 C 0.95333 0.60456 0.14107 0.0
C1412 C 0.88744 0.65347 0.14158 0.0
C1413 C 0.87345 0.64555 0.12608 0.0
C1414 C 0.92568 0.61884 0.13589 0.0
C1415 C 0.88652 0.62406 0.11575 0.0
C1416 C 0.96598 0.5824 0.13108 0.0
C1417 C 0.99208 0.60112 0.16155 0.0
N1418 N 0.9119 0.6114 0.12085 0.0
N1419 N 0.96684 0.6131 0.15594 0.0
H1420 H 0.63436 0.62606 0.35359 0.0
H1421 H 0.64022 0.75443 0.4239 0.0
H1422 H 0.58114 0.631 0.39963 0.0
H1423 H 0.69786 0.75136 0.37983 0.0
H1424 H 0.61797 0.70934 0.41432 0.0
H1425 H 0.65753 0.67206 0.36203 0.0
C1426 C 0.62751 0.63674 0.36542 0.0
C1427 C 0.60578 0.62445 0.37592 0.0
C1428 C 0.63549 0.71841 0.40669 0.0
C1429 C 0.63214 0.67699 0.38561 0.0
C1430 C 0.64824 0.74424 0.41218 0.0
C1431 C 0.67099 0.75668 0.40269 0.0
C1432 C 0.64546 0.70472 0.39152 0.0
C1433 C 0.6804 0.74245 0.38757 0.0
C1434 C 0.64076 0.66296 0.37023 0.0
C1435 C 0.59782 0.63936 0.3911 0.0
N1436 N 0.6676 0.71719 0.38243 0.0
N1437 N 0.61095 0.66467 0.39544 0.0
H1438 H 0.62175 0.32887 0.64978 0.0
H1439 H 0.50056 0.44818 0.62838 0.0
H1440 H 0.62546 0.38276 0.60398 0.0
H1441 H 0.49882 0.39096 0.67268 0.0
H1442 H 0.54605 0.42531 0.61893 0.0
H1443 H 0.57661 0.35204 0.65797 0.0
C1444 C 0.61313 0.34563 0.64138 0.0
C1445 C 0.62768 0.35387 0.62614 0.0
C1446 C 0.53567 0.4178 0.63071 0.0
C1447 C 0.57537 0.38075 0.63559 0.0
C1448 C 0.50975 0.43085 0.63612 0.0
C1449 C 0.49591 0.42148 0.65137 0.0
C1450 C 0.54779 0.39528 0.64064 0.0
C1451 C 0.50871 0.39892 0.66086 0.0
C1452 C 0.58718 0.35889 0.64611 0.0
C1453 C 0.61508 0.37569 0.61584 0.0
N1454 N 0.53387 0.38666 0.65535 0.0
N1455 N 0.58966 0.38843 0.62077 0.0
H1456 H 0.13281 0.37379 0.35231 0.0
H1457 H 0.14038 0.24661 0.42331 0.0
H1458 H 0.07973 0.36962 0.39843 0.0
H1459 H 0.19739 0.24995 0.37895 0.0
H1460 H 0.11731 0.29131 0.41358 0.0
H1461 H 0.156 0.32802 0.36094 0.0
C1462 C 0.12595 0.36329 0.36419 0.0
C1463 C 0.1043 0.37576 0.37466 0.0
C1464 C 0.13487 0.28236 0.40593 0.0
C1465 C 0.13077 0.32343 0.38461 0.0
C1466 C 0.14809 0.25678 0.41151 0.0
C1467 C 0.1709 0.24454 0.40196 0.0
C1468 C 0.14445 0.29595 0.39064 0.0
C1469 C 0.1799 0.2587 0.38673 0.0
C1470 C 0.13924 0.33719 0.36912 0.0
C1471 C 0.09636 0.36108 0.38993 0.0
N1472 N 0.16666 0.28368 0.38153 0.0
N1473 N 0.10957 0.33584 0.3944 0.0
H1474 H 0.37765 0.38112 0.10232 0.0
H1475 H 0.50624 0.38532 0.17247 0.0
H1476 H 0.38271 0.32538 0.14727 0.0
H1477 H 0.5007 0.44536 0.12965 0.0
H1478 H 0.46189 0.36186 0.16239 0.0
H1479 H 0.42366 0.40363 0.11102 0.0
C1480 C 0.38842 0.37352 0.11396 0.0
C1481 C 0.3761 0.35138 0.12411 0.0
C1482 C 0.47032 0.38015 0.15516 0.0
C1483 C 0.42873 0.37706 0.13412 0.0
C1484 C 0.49568 0.39357 0.16093 0.0
C1485 C 0.50712 0.4174 0.15193 0.0
C1486 C 0.45619 0.39057 0.14024 0.0
C1487 C 0.49255 0.42709 0.13701 0.0
C1488 C 0.41466 0.38642 0.11893 0.0
C1489 C 0.39114 0.34246 0.13905 0.0
N1490 N 0.4678 0.41367 0.13163 0.0
N1491 N 0.41652 0.35532 0.14358 0.0
H1492 H 0.3642 0.75348 0.92339 0.0
H1493 H 0.36997 0.62684 0.85202 0.0
H1494 H 0.30567 0.75003 0.87974 0.0
H1495 H 0.42458 0.63093 0.8975 0.0
H1496 H 0.347 0.67252 0.86099 0.0
H1497 H 0.38729 0.70906 0.91323 0.0
C1498 C 0.35617 0.74334 0.91165 0.0
C1499 C 0.33291 0.75545 0.90243 0.0
C1500 C 0.36405 0.66337 0.86895 0.0
C1501 C 0.35937 0.70439 0.89063 0.0
C1502 C 0.37723 0.63732 0.86383 0.0
C1503 C 0.39921 0.62484 0.87404 0.0
C1504 C 0.37299 0.67705 0.88436 0.0
C1505 C 0.40766 0.63948 0.88921 0.0
C1506 C 0.36939 0.71793 0.90583 0.0
C1507 C 0.32349 0.74136 0.88727 0.0
N1508 N 0.39455 0.66466 0.89388 0.0
N1509 N 0.33675 0.71655 0.88184 0.0
H1510 H 0.997 0.61141 0.6739 0.0
H1511 H 0.12513 0.61891 0.60352 0.0
H1512 H 1.00064 0.55448 0.62952 0.0
H1513 H 0.12023 0.6718 0.64969 0.0
H1514 H 0.07927 0.59558 0.61193 0.0
H1515 H 0.0419 0.63429 0.6644 0.0
C1516 C 0.00728 0.60369 0.66213 0.0
C1517 C 0.99508 0.58095 0.65252 0.0
C1518 C 0.08832 0.61232 0.62017 0.0
C1519 C 0.04673 0.60717 0.64146 0.0
C1520 C 0.11447 0.62568 0.61537 0.0
C1521 C 0.12674 0.64733 0.62592 0.0
C1522 C 0.07433 0.62076 0.63558 0.0
C1523 C 0.11186 0.65517 0.64113 0.0
C1524 C 0.03298 0.61679 0.65669 0.0
C1525 C 0.00937 0.57191 0.63734 0.0
N1526 N 0.08659 0.64192 0.64547 0.0
N1527 N 0.03448 0.58505 0.63227 0.0
H1528 H 0.13144 0.62828 0.15307 0.0
H1529 H 0.13846 0.75521 0.08191 0.0
H1530 H 0.0769 0.63315 0.10759 0.0
H1531 H 0.19628 0.75162 0.12589 0.0
H1532 H 0.11502 0.71093 0.09197 0.0
H1533 H 0.15464 0.67398 0.1443 0.0
C1534 C 0.12424 0.63894 0.14131 0.0
C1535 C 0.10223 0.62666 0.13103 0.0
C1536 C 0.13283 0.71974 0.09947 0.0
C1537 C 0.12871 0.67888 0.12093 0.0
C1538 C 0.14627 0.74507 0.0937 0.0
C1539 C 0.16943 0.75711 0.10304 0.0
C1540 C 0.14254 0.70617 0.11473 0.0
C1541 C 0.17853 0.74301 0.11826 0.0
C1542 C 0.13754 0.66499 0.1363 0.0
C1543 C 0.09385 0.64154 0.11592 0.0
N1544 N 0.16508 0.71826 0.12364 0.0
N1545 N 0.10709 0.6667 0.11135 0.0
H1546 H 0.12009 0.32468 0.85655 0.0
H1547 H 1.00053 0.44668 0.87587 0.0
H1548 H 0.12358 0.38025 0.90163 0.0
H1549 H 0.9982 0.38832 0.83212 0.0
H1550 H 0.0452 0.42298 0.88586 0.0
H1551 H 0.07504 0.34783 0.84789 0.0
C1552 C 0.1114 0.34176 0.86469 0.0
C1553 C 0.12588 0.35055 0.87985 0.0
C1554 C 0.03488 0.41538 0.87408 0.0
C1555 C 0.07384 0.3774 0.86987 0.0
C1556 C 0.00943 0.42892 0.86836 0.0
C1557 C 0.99566 0.4195 0.85311 0.0
C1558 C 0.04664 0.39229 0.86447 0.0
C1559 C 0.00808 0.39635 0.84392 0.0
C1560 C 0.08555 0.355 0.8597 0.0
C1561 C 0.11325 0.37273 0.88984 0.0
N1562 N 0.03281 0.3836 0.84973 0.0
N1563 N 0.088 0.38547 0.88464 0.0
H1564 H 0.36545 0.24544 0.58122 0.0
H1565 H 0.36986 0.37348 0.65175 0.0
H1566 H 0.30572 0.25012 0.62423 0.0
H1567 H 0.4251 0.3688 0.60657 0.0
H1568 H 0.34708 0.32762 0.64291 0.0
H1569 H 0.38845 0.29001 0.59125 0.0
C1570 C 0.35714 0.25587 0.59279 0.0
C1571 C 0.33357 0.24407 0.60186 0.0
C1572 C 0.36423 0.33669 0.63498 0.0
C1573 C 0.35991 0.29531 0.61352 0.0
C1574 C 0.37729 0.36284 0.64004 0.0
C1575 C 0.39939 0.37521 0.62987 0.0
C1576 C 0.37341 0.32277 0.6197 0.0
C1577 C 0.40807 0.36034 0.61481 0.0
C1578 C 0.37031 0.28137 0.59853 0.0
C1579 C 0.3238 0.25853 0.61681 0.0
N1580 N 0.39508 0.33506 0.61022 0.0
N1581 N 0.33701 0.28342 0.62218 0.0
H1582 H 0.50564 0.61404 0.33437 0.0
H1583 H 0.37607 0.61936 0.40389 0.0
H1584 H 0.50091 0.55573 0.37808 0.0
H1585 H 0.3814 0.67308 0.35807 0.0
H1586 H 0.42233 0.59665 0.39568 0.0
H1587 H 0.46071 0.6369 0.34389 0.0
C1588 C 0.49514 0.60605 0.346 0.0
C1589 C 0.50699 0.58289 0.35541 0.0
C1590 C 0.41328 0.61343 0.38747 0.0
C1591 C 0.45531 0.60901 0.36645 0.0
C1592 C 0.3869 0.62643 0.39215 0.0
C1593 C 0.37464 0.64812 0.38164 0.0
C1594 C 0.42752 0.62229 0.37222 0.0
C1595 C 0.38976 0.65638 0.36658 0.0
C1596 C 0.46942 0.61911 0.35145 0.0
C1597 C 0.49244 0.5735 0.37042 0.0
N1598 N 0.41525 0.64349 0.36237 0.0
N1599 N 0.46731 0.58658 0.37548 0.0
loop_
_geom_bond_atom_site_label_1
_geom_bond_atom_site_label_2
_geom_bond_distance
_geom_bond_site_symmetry_2
_ccdc_geom_bond_type
Co0 O1 2.216 . S
Co0 O2 2.091 . S
Co0 O4 2.004 . S
Co0 O10 2.021 . S
Co0 O12 2.137 . S
Co0 O13 2.244 . S
O1 Co0 2.216 . S
O1 C8 1.247 . S
O2 Co0 2.091 . S
O2 C8 1.261 . S
C3 O12 1.247 . S
C3 O13 1.272 . S
O4 Co0 2.004 . S
O4 C9 1.259 . S
Co5 O6 2.061 . S
Co5 O11 2.052 . S
Co5 O13 2.135 . S
O6 Co5 2.061 . S
O6 C9 1.235 . S
C7 O10 1.238 . S
C7 O11 1.241 . S
C8 O1 1.247 . S
C8 O2 1.261 . S
C9 O4 1.259 . S
C9 O6 1.235 . S
O10 Co0 2.021 . S
O10 C7 1.238 . S
O11 Co5 2.052 . S
O11 C7 1.241 . S
O12 Co0 2.137 . S
O12 C3 1.247 . S
O13 Co0 2.244 . S
O13 C3 1.272 . S
O13 Co5 2.135 . S
Co14 O15 2.216 . S
Co14 O16 2.091 . S
Co14 O18 2.004 . S
Co14 O24 2.021 . S
Co14 O26 2.137 . S
Co14 O27 2.244 . S
O15 Co14 2.216 . S
O15 C22 1.247 . S
O16 Co14 2.091 . S
O16 C22 1.261 . S
C17 O26 1.247 . S
C17 O27 1.272 . S
O18 Co14 2.004 . S
O18 C23 1.259 . S
Co19 O20 2.061 . S
Co19 O25 2.052 . S
Co19 O27 2.135 . S
O20 Co19 2.061 . S
O20 C23 1.235 . S
C21 O24 1.238 . S
C21 O25 1.241 . S
C22 O15 1.247 . S
C22 O16 1.261 . S
C23 O18 1.259 . S
C23 O20 1.235 . S
O24 Co14 2.021 . S
O24 C21 1.238 . S
O25 Co19 2.052 . S
O25 C21 1.241 . S
O26 Co14 2.137 . S
O26 C17 1.247 . S
O27 Co14 2.244 . S
O27 C17 1.272 . S
O27 Co19 2.135 . S
Co28 O29 2.216 . S
Co28 O30 2.091 . S
Co28 O32 2.004 . S
Co28 O38 2.021 . S
Co28 O40 2.137 . S
Co28 O41 2.244 . S
O29 Co28 2.216 . S
O29 C36 1.247 . S
O30 Co28 2.091 . S
O30 C36 1.261 . S
C31 O40 1.247 . S
C31 O41 1.272 . S
O32 Co28 2.004 . S
O32 C37 1.259 . S
Co33 O34 2.061 . S
Co33 O39 2.052 . S
Co33 O41 2.135 . S
O34 Co33 2.061 . S
O34 C37 1.235 . S
C35 O38 1.238 . S
C35 O39 1.241 . S
C36 O29 1.247 . S
C36 O30 1.261 . S
C37 O32 1.259 . S
C37 O34 1.235 . S
O38 Co28 2.021 . S
O38 C35 1.238 . S
O39 Co33 2.052 . S
O39 C35 1.241 . S
O40 Co28 2.137 . S
O40 C31 1.247 . S
O41 Co28 2.244 . S
O41 C31 1.272 . S
O41 Co33 2.135 . S
Co42 O43 2.216 . S
Co42 O44 2.091 . S
Co42 O46 2.004 . S
Co42 O52 2.021 . S
Co42 O54 2.137 . S
Co42 O55 2.244 . S
O43 Co42 2.216 . S
O43 C50 1.247 . S
O44 Co42 2.091 . S
O44 C50 1.261 . S
C45 O54 1.247 . S
C45 O55 1.272 . S
O46 Co42 2.004 . S
O46 C51 1.259 . S
Co47 O48 2.061 . S
Co47 O53 2.052 . S
Co47 O55 2.135 . S
O48 Co47 2.061 . S
O48 C51 1.235 . S
C49 O52 1.238 . S
C49 O53 1.241 . S
C50 O43 1.247 . S
C50 O44 1.261 . S
C51 O46 1.259 . S
C51 O48 1.235 . S
O52 Co42 2.021 . S
O52 C49 1.238 . S
O53 Co47 2.052 . S
O53 C49 1.241 . S
O54 Co42 2.137 . S
O54 C45 1.247 . S
O55 Co42 2.244 . S
O55 C45 1.272 . S
O55 Co47 2.135 . S
Co56 O57 2.216 . S
Co56 O58 2.091 . S
Co56 O60 2.004 . S
Co56 O66 2.021 . S
Co56 O68 2.137 . S
Co56 O69 2.244 . S
O57 Co56 2.216 . S
O57 C64 1.247 . S
O58 Co56 2.091 . S
O58 C64 1.261 . S
C59 O68 1.247 . S
C59 O69 1.272 . S
O60 Co56 2.004 . S
O60 C65 1.259 . S
Co61 O62 2.061 . S
Co61 O67 2.052 . S
Co61 O69 2.135 . S
O62 Co61 2.061 . S
O62 C65 1.235 . S
C63 O66 1.238 . S
C63 O67 1.241 . S
C64 O57 1.247 . S
C64 O58 1.261 . S
C65 O60 1.259 . S
C65 O62 1.235 . S
O66 Co56 2.021 . S
O66 C63 1.238 . S
O67 Co61 2.052 . S
O67 C63 1.241 . S
O68 Co56 2.137 . S
O68 C59 1.247 . S
O69 Co56 2.244 . S
O69 C59 1.272 . S
O69 Co61 2.135 . S
Co70 O71 2.216 . S
Co70 O72 2.091 . S
Co70 O74 2.004 . S
Co70 O80 2.021 . S
Co70 O82 2.137 . S
Co70 O83 2.244 . S
O71 Co70 2.216 . S
O71 C78 1.247 . S
O72 Co70 2.091 . S
O72 C78 1.261 . S
C73 O82 1.247 . S
C73 O83 1.272 . S
O74 Co70 2.004 . S
O74 C79 1.259 . S
Co75 O76 2.061 . S
Co75 O81 2.052 . S
Co75 O83 2.135 . S
O76 Co75 2.061 . S
O76 C79 1.235 . S
C77 O80 1.238 . S
C77 O81 1.241 . S
C78 O71 1.247 . S
C78 O72 1.261 . S
C79 O74 1.259 . S
C79 O76 1.235 . S
O80 Co70 2.021 . S
O80 C77 1.238 . S
O81 Co75 2.052 . S
O81 C77 1.241 . S
O82 Co70 2.137 . S
O82 C73 1.247 . S
O83 Co70 2.244 . S
O83 C73 1.272 . S
O83 Co75 2.135 . S
Co84 O85 2.216 . S
Co84 O86 2.091 . S
Co84 O88 2.004 . S
Co84 O94 2.021 . S
Co84 O96 2.137 . S
Co84 O97 2.244 . S
O85 Co84 2.216 . S
O85 C92 1.247 . S
O86 Co84 2.091 . S
O86 C92 1.261 . S
C87 O96 1.247 . S
C87 O97 1.272 . S
O88 Co84 2.004 . S
O88 C93 1.259 . S
Co89 O90 2.061 . S
Co89 O95 2.052 . S
Co89 O97 2.135 . S
O90 Co89 2.061 . S
O90 C93 1.235 . S
C91 O94 1.238 . S
C91 O95 1.241 . S
C92 O85 1.247 . S
C92 O86 1.261 . S
C93 O88 1.259 . S
C93 O90 1.235 . S
O94 Co84 2.021 . S
O94 C91 1.238 . S
O95 Co89 2.052 . S
O95 C91 1.241 . S
O96 Co84 2.137 . S
O96 C87 1.247 . S
O97 Co84 2.244 . S
O97 C87 1.272 . S
O97 Co89 2.135 . S
Co98 O99 2.216 . S
Co98 O100 2.091 . S
Co98 O102 2.004 . S
Co98 O108 2.021 . S
Co98 O110 2.137 . S
Co98 O111 2.244 . S
O99 Co98 2.216 . S
O99 C106 1.247 . S
O100 Co98 2.091 . S
O100 C106 1.261 . S
C101 O110 1.247 . S
C101 O111 1.272 . S
O102 Co98 2.004 . S
O102 C107 1.259 . S
Co103 O104 2.061 . S
Co103 O109 2.052 . S
Co103 O111 2.135 . S
O104 Co103 2.061 . S
O104 C107 1.235 . S
C105 O108 1.238 . S
C105 O109 1.241 . S
C106 O99 1.247 . S
C106 O100 1.261 . S
C107 O102 1.259 . S
C107 O104 1.235 . S
O108 Co98 2.021 . S
O108 C105 1.238 . S
O109 Co103 2.052 . S
O109 C105 1.241 . S
O110 Co98 2.137 . S
O110 C101 1.247 . S
O111 Co98 2.244 . S
O111 C101 1.272 . S
O111 Co103 2.135 . S
Co112 O113 2.216 . S
Co112 O114 2.091 . S
Co112 O116 2.004 . S
Co112 O122 2.021 . S
Co112 O124 2.137 . S
Co112 O125 2.244 . S
O113 Co112 2.216 . S
O113 C120 1.247 . S
O114 Co112 2.091 . S
O114 C120 1.261 . S
C115 O124 1.247 . S
C115 O125 1.272 . S
O116 Co112 2.004 . S
O116 C121 1.259 . S
Co117 O118 2.061 . S
Co117 O123 2.052 . S
Co117 O125 2.135 . S
O118 Co117 2.061 . S
O118 C121 1.235 . S
C119 O122 1.238 . S
C119 O123 1.241 . S
C120 O113 1.247 . S
C120 O114 1.261 . S
C121 O116 1.259 . S
C121 O118 1.235 . S
O122 Co112 2.021 . S
O122 C119 1.238 . S
O123 Co117 2.052 . S
O123 C119 1.241 . S
O124 Co112 2.137 . S
O124 C115 1.247 . S
O125 Co112 2.244 . S
O125 C115 1.272 . S
O125 Co117 2.135 . S
Co126 O127 2.216 . S
Co126 O128 2.091 . S
Co126 O130 2.004 . S
Co126 O136 2.021 . S
Co126 O138 2.137 . S
Co126 O139 2.244 . S
O127 Co126 2.216 . S
O127 C134 1.247 . S
O128 Co126 2.091 . S
O128 C134 1.261 . S
C129 O138 1.247 . S
C129 O139 1.272 . S
O130 Co126 2.004 . S
O130 C135 1.259 . S
Co131 O132 2.061 . S
Co131 O137 2.052 . S
Co131 O139 2.135 . S
O132 Co131 2.061 . S
O132 C135 1.235 . S
C133 O136 1.238 . S
C133 O137 1.241 . S
C134 O127 1.247 . S
C134 O128 1.261 . S
C135 O130 1.259 . S
C135 O132 1.235 . S
O136 Co126 2.021 . S
O136 C133 1.238 . S
O137 Co131 2.052 . S
O137 C133 1.241 . S
O138 Co126 2.137 . S
O138 C129 1.247 . S
O139 Co126 2.244 . S
O139 C129 1.272 . S
O139 Co131 2.135 . S
Co140 O141 2.216 . S
Co140 O142 2.091 . S
Co140 O144 2.004 . S
Co140 O150 2.021 . S
Co140 O152 2.137 . S
Co140 O153 2.244 . S
O141 Co140 2.216 . S
O141 C148 1.247 . S
O142 Co140 2.091 . S
O142 C148 1.261 . S
C143 O152 1.247 . S
C143 O153 1.272 . S
O144 Co140 2.004 . S
O144 C149 1.259 . S
Co145 O146 2.061 . S
Co145 O151 2.052 . S
Co145 O153 2.135 . S
O146 Co145 2.061 . S
O146 C149 1.235 . S
C147 O150 1.238 . S
C147 O151 1.241 . S
C148 O141 1.247 . S
C148 O142 1.261 . S
C149 O144 1.259 . S
C149 O146 1.235 . S
O150 Co140 2.021 . S
O150 C147 1.238 . S
O151 Co145 2.052 . S
O151 C147 1.241 . S
O152 Co140 2.137 . S
O152 C143 1.247 . S
O153 Co140 2.244 . S
O153 C143 1.272 . S
O153 Co145 2.135 . S
Co154 O155 2.216 . S
Co154 O156 2.091 . S
Co154 O158 2.004 . S
Co154 O164 2.021 . S
Co154 O166 2.137 . S
Co154 O167 2.244 . S
O155 Co154 2.216 . S
O155 C162 1.247 . S
O156 Co154 2.091 . S
O156 C162 1.261 . S
C157 O166 1.247 . S
C157 O167 1.272 . S
O158 Co154 2.004 . S
O158 C163 1.259 . S
Co159 O160 2.061 . S
Co159 O165 2.052 . S
Co159 O167 2.135 . S
O160 Co159 2.061 . S
O160 C163 1.235 . S
C161 O164 1.238 . S
C161 O165 1.241 . S
C162 O155 1.247 . S
C162 O156 1.261 . S
C163 O158 1.259 . S
C163 O160 1.235 . S
O164 Co154 2.021 . S
O164 C161 1.238 . S
O165 Co159 2.052 . S
O165 C161 1.241 . S
O166 Co154 2.137 . S
O166 C157 1.247 . S
O167 Co154 2.244 . S
O167 C157 1.272 . S
O167 Co159 2.135 . S
Co168 O169 2.216 . S
Co168 O170 2.091 . S
Co168 O172 2.004 . S
Co168 O178 2.021 . S
Co168 O180 2.137 . S
Co168 O181 2.244 . S
O169 Co168 2.216 . S
O169 C176 1.247 . S
O170 Co168 2.091 . S
O170 C176 1.261 . S
C171 O180 1.247 . S
C171 O181 1.272 . S
O172 Co168 2.004 . S
O172 C177 1.259 . S
Co173 O174 2.061 . S
Co173 O179 2.052 . S
Co173 O181 2.135 . S
O174 Co173 2.061 . S
O174 C177 1.235 . S
C175 O178 1.238 . S
C175 O179 1.241 . S
C176 O169 1.247 . S
C176 O170 1.261 . S
C177 O172 1.259 . S
C177 O174 1.235 . S
O178 Co168 2.021 . S
O178 C175 1.238 . S
O179 Co173 2.052 . S
O179 C175 1.241 . S
O180 Co168 2.137 . S
O180 C171 1.247 . S
O181 Co168 2.244 . S
O181 C171 1.272 . S
O181 Co173 2.135 . S
Co182 O183 2.216 . S
Co182 O184 2.091 . S
Co182 O186 2.004 . S
Co182 O192 2.021 . S
Co182 O194 2.137 . S
Co182 O195 2.244 . S
O183 Co182 2.216 . S
O183 C190 1.247 . S
O184 Co182 2.091 . S
O184 C190 1.261 . S
C185 O194 1.247 . S
C185 O195 1.272 . S
O186 Co182 2.004 . S
O186 C191 1.259 . S
Co187 O188 2.061 . S
Co187 O193 2.052 . S
Co187 O195 2.135 . S
O188 Co187 2.061 . S
O188 C191 1.235 . S
C189 O192 1.238 . S
C189 O193 1.241 . S
C190 O183 1.247 . S
C190 O184 1.261 . S
C191 O186 1.259 . S
C191 O188 1.235 . S
O192 Co182 2.021 . S
O192 C189 1.238 . S
O193 Co187 2.052 . S
O193 C189 1.241 . S
O194 Co182 2.137 . S
O194 C185 1.247 . S
O195 Co182 2.244 . S
O195 C185 1.272 . S
O195 Co187 2.135 . S
Co196 O197 2.216 . S
Co196 O198 2.091 . S
Co196 O200 2.004 . S
Co196 O206 2.021 . S
Co196 O208 2.137 . S
Co196 O209 2.244 . S
O197 Co196 2.216 . S
O197 C204 1.247 . S
O198 Co196 2.091 . S
O198 C204 1.261 . S
C199 O208 1.247 . S
C199 O209 1.272 . S
O200 Co196 2.004 . S
O200 C205 1.259 . S
Co201 O202 2.061 . S
Co201 O207 2.052 . S
Co201 O209 2.135 . S
O202 Co201 2.061 . S
O202 C205 1.235 . S
C203 O206 1.238 . S
C203 O207 1.241 . S
C204 O197 1.247 . S
C204 O198 1.261 . S
C205 O200 1.259 . S
C205 O202 1.235 . S
O206 Co196 2.021 . S
O206 C203 1.238 . S
O207 Co201 2.052 . S
O207 C203 1.241 . S
O208 Co196 2.137 . S
O208 C199 1.247 . S
O209 Co196 2.244 . S
O209 C199 1.272 . S
O209 Co201 2.135 . S
Co210 O211 2.216 . S
Co210 O212 2.091 . S
Co210 O214 2.004 . S
Co210 O220 2.021 . S
Co210 O222 2.137 . S
Co210 O223 2.244 . S
O211 Co210 2.216 . S
O211 C218 1.247 . S
O212 Co210 2.091 . S
O212 C218 1.261 . S
C213 O222 1.247 . S
C213 O223 1.272 . S
O214 Co210 2.004 . S
O214 C219 1.259 . S
Co215 O216 2.061 . S
Co215 O221 2.052 . S
Co215 O223 2.135 . S
O216 Co215 2.061 . S
O216 C219 1.235 . S
C217 O220 1.238 . S
C217 O221 1.241 . S
C218 O211 1.247 . S
C218 O212 1.261 . S
C219 O214 1.259 . S
C219 O216 1.235 . S
O220 Co210 2.021 . S
O220 C217 1.238 . S
O221 Co215 2.052 . S
O221 C217 1.241 . S
O222 Co210 2.137 . S
O222 C213 1.247 . S
O223 Co210 2.244 . S
O223 C213 1.272 . S
O223 Co215 2.135 . S
Co224 O225 2.216 . S
Co224 O226 2.091 . S
Co224 O228 2.004 . S
Co224 O234 2.021 . S
Co224 O236 2.137 . S
Co224 O237 2.244 . S
O225 Co224 2.216 . S
O225 C232 1.247 . S
O226 Co224 2.091 . S
O226 C232 1.261 . S
C227 O236 1.247 . S
C227 O237 1.272 . S
O228 Co224 2.004 . S
O228 C233 1.259 . S
Co229 O230 2.061 . S
Co229 O235 2.052 . S
Co229 O237 2.135 . S
O230 Co229 2.061 . S
O230 C233 1.235 . S
C231 O234 1.238 . S
C231 O235 1.241 . S
C232 O225 1.247 . S
C232 O226 1.261 . S
C233 O228 1.259 . S
C233 O230 1.235 . S
O234 Co224 2.021 . S
O234 C231 1.238 . S
O235 Co229 2.052 . S
O235 C231 1.241 . S
O236 Co224 2.137 . S
O236 C227 1.247 . S
O237 Co224 2.244 . S
O237 C227 1.272 . S
O237 Co229 2.135 . S
Co238 O239 2.216 . S
Co238 O240 2.091 . S
Co238 O242 2.004 . S
Co238 O248 2.021 . S
Co238 O250 2.137 . S
Co238 O251 2.244 . S
O239 Co238 2.216 . S
O239 C246 1.247 . S
O240 Co238 2.091 . S
O240 C246 1.261 . S
C241 O250 1.247 . S
C241 O251 1.272 . S
O242 Co238 2.004 . S
O242 C247 1.259 . S
Co243 O244 2.061 . S
Co243 O249 2.052 . S
Co243 O251 2.135 . S
O244 Co243 2.061 . S
O244 C247 1.235 . S
C245 O248 1.238 . S
C245 O249 1.241 . S
C246 O239 1.247 . S
C246 O240 1.261 . S
C247 O242 1.259 . S
C247 O244 1.235 . S
O248 Co238 2.021 . S
O248 C245 1.238 . S
O249 Co243 2.052 . S
O249 C245 1.241 . S
O250 Co238 2.137 . S
O250 C241 1.247 . S
O251 Co238 2.244 . S
O251 C241 1.272 . S
O251 Co243 2.135 . S
Co252 O253 2.216 . S
Co252 O254 2.091 . S
Co252 O256 2.004 . S
Co252 O262 2.021 . S
Co252 O264 2.137 . S
Co252 O265 2.244 . S
O253 Co252 2.216 . S
O253 C260 1.247 . S
O254 Co252 2.091 . S
O254 C260 1.261 . S
C255 O264 1.247 . S
C255 O265 1.272 . S
O256 Co252 2.004 . S
O256 C261 1.259 . S
Co257 O258 2.061 . S
Co257 O263 2.052 . S
Co257 O265 2.135 . S
O258 Co257 2.061 . S
O258 C261 1.235 . S
C259 O262 1.238 . S
C259 O263 1.241 . S
C260 O253 1.247 . S
C260 O254 1.261 . S
C261 O256 1.259 . S
C261 O258 1.235 . S
O262 Co252 2.021 . S
O262 C259 1.238 . S
O263 Co257 2.052 . S
O263 C259 1.241 . S
O264 Co252 2.137 . S
O264 C255 1.247 . S
O265 Co252 2.244 . S
O265 C255 1.272 . S
O265 Co257 2.135 . S
Co266 O267 2.216 . S
Co266 O268 2.091 . S
Co266 O270 2.004 . S
Co266 O276 2.021 . S
Co266 O278 2.137 . S
Co266 O279 2.244 . S
O267 Co266 2.216 . S
O267 C274 1.247 . S
O268 Co266 2.091 . S
O268 C274 1.261 . S
C269 O278 1.247 . S
C269 O279 1.272 . S
O270 Co266 2.004 . S
O270 C275 1.259 . S
Co271 O272 2.061 . S
Co271 O277 2.052 . S
Co271 O279 2.135 . S
O272 Co271 2.061 . S
O272 C275 1.235 . S
C273 O276 1.238 . S
C273 O277 1.241 . S
C274 O267 1.247 . S
C274 O268 1.261 . S
C275 O270 1.259 . S
C275 O272 1.235 . S
O276 Co266 2.021 . S
O276 C273 1.238 . S
O277 Co271 2.052 . S
O277 C273 1.241 . S
O278 Co266 2.137 . S
O278 C269 1.247 . S
O279 Co266 2.244 . S
O279 C269 1.272 . S
O279 Co271 2.135 . S
Co280 O281 2.216 . S
Co280 O282 2.091 . S
Co280 O284 2.004 . S
Co280 O290 2.021 . S
Co280 O292 2.137 . S
Co280 O293 2.244 . S
O281 Co280 2.216 . S
O281 C288 1.247 . S
O282 Co280 2.091 . S
O282 C288 1.261 . S
C283 O292 1.247 . S
C283 O293 1.272 . S
O284 Co280 2.004 . S
O284 C289 1.259 . S
Co285 O286 2.061 . S
Co285 O291 2.052 . S
Co285 O293 2.135 . S
O286 Co285 2.061 . S
O286 C289 1.235 . S
C287 O290 1.238 . S
C287 O291 1.241 . S
C288 O281 1.247 . S
C288 O282 1.261 . S
C289 O284 1.259 . S
C289 O286 1.235 . S
O290 Co280 2.021 . S
O290 C287 1.238 . S
O291 Co285 2.052 . S
O291 C287 1.241 . S
O292 Co280 2.137 . S
O292 C283 1.247 . S
O293 Co280 2.244 . S
O293 C283 1.272 . S
O293 Co285 2.135 . S
Co294 O295 2.216 . S
Co294 O296 2.091 . S
Co294 O298 2.004 . S
Co294 O304 2.021 . S
Co294 O306 2.137 . S
Co294 O307 2.244 . S
O295 Co294 2.216 . S
O295 C302 1.247 . S
O296 Co294 2.091 . S
O296 C302 1.261 . S
C297 O306 1.247 . S
C297 O307 1.272 . S
O298 Co294 2.004 . S
O298 C303 1.259 . S
Co299 O300 2.061 . S
Co299 O305 2.052 . S
Co299 O307 2.135 . S
O300 Co299 2.061 . S
O300 C303 1.235 . S
C301 O304 1.238 . S
C301 O305 1.241 . S
C302 O295 1.247 . S
C302 O296 1.261 . S
C303 O298 1.259 . S
C303 O300 1.235 . S
O304 Co294 2.021 . S
O304 C301 1.238 . S
O305 Co299 2.052 . S
O305 C301 1.241 . S
O306 Co294 2.137 . S
O306 C297 1.247 . S
O307 Co294 2.244 . S
O307 C297 1.272 . S
O307 Co299 2.135 . S
Co308 O309 2.216 . S
Co308 O310 2.091 . S
Co308 O312 2.004 . S
Co308 O318 2.021 . S
Co308 O320 2.137 . S
Co308 O321 2.244 . S
O309 Co308 2.216 . S
O309 C316 1.247 . S
O310 Co308 2.091 . S
O310 C316 1.261 . S
C311 O320 1.247 . S
C311 O321 1.272 . S
O312 Co308 2.004 . S
O312 C317 1.259 . S
Co313 O314 2.061 . S
Co313 O319 2.052 . S
Co313 O321 2.135 . S
O314 Co313 2.061 . S
O314 C317 1.235 . S
C315 O318 1.238 . S
C315 O319 1.241 . S
C316 O309 1.247 . S
C316 O310 1.261 . S
C317 O312 1.259 . S
C317 O314 1.235 . S
O318 Co308 2.021 . S
O318 C315 1.238 . S
O319 Co313 2.052 . S
O319 C315 1.241 . S
O320 Co308 2.137 . S
O320 C311 1.247 . S
O321 Co308 2.244 . S
O321 C311 1.272 . S
O321 Co313 2.135 . S
Co322 O323 2.216 . S
Co322 O324 2.091 . S
Co322 O326 2.004 . S
Co322 O332 2.021 . S
Co322 O334 2.137 . S
Co322 O335 2.244 . S
O323 Co322 2.216 . S
O323 C330 1.247 . S
O324 Co322 2.091 . S
O324 C330 1.261 . S
C325 O334 1.247 . S
C325 O335 1.272 . S
O326 Co322 2.004 . S
O326 C331 1.259 . S
Co327 O328 2.061 . S
Co327 O333 2.052 . S
Co327 O335 2.135 . S
O328 Co327 2.061 . S
O328 C331 1.235 . S
C329 O332 1.238 . S
C329 O333 1.241 . S
C330 O323 1.247 . S
C330 O324 1.261 . S
C331 O326 1.259 . S
C331 O328 1.235 . S
O332 Co322 2.021 . S
O332 C329 1.238 . S
O333 Co327 2.052 . S
O333 C329 1.241 . S
O334 Co322 2.137 . S
O334 C325 1.247 . S
O335 Co322 2.244 . S
O335 C325 1.272 . S
O335 Co327 2.135 . S
Co336 O337 2.216 . S
Co336 O338 2.091 . S
Co336 O340 2.004 . S
Co336 O346 2.021 . S
Co336 O348 2.137 . S
Co336 O349 2.244 . S
O337 Co336 2.216 . S
O337 C344 1.247 . S
O338 Co336 2.091 . S
O338 C344 1.261 . S
C339 O348 1.247 . S
C339 O349 1.272 . S
O340 Co336 2.004 . S
O340 C345 1.259 . S
Co341 O342 2.061 . S
Co341 O347 2.052 . S
Co341 O349 2.135 . S
O342 Co341 2.061 . S
O342 C345 1.235 . S
C343 O346 1.238 . S
C343 O347 1.241 . S
C344 O337 1.247 . S
C344 O338 1.261 . S
C345 O340 1.259 . S
C345 O342 1.235 . S
O346 Co336 2.021 . S
O346 C343 1.238 . S
O347 Co341 2.052 . S
O347 C343 1.241 . S
O348 Co336 2.137 . S
O348 C339 1.247 . S
O349 Co336 2.244 . S
O349 C339 1.272 . S
O349 Co341 2.135 . S
Co350 O351 2.216 . S
Co350 O352 2.091 . S
Co350 O354 2.004 . S
Co350 O360 2.021 . S
Co350 O362 2.137 . S
Co350 O363 2.244 . S
O351 Co350 2.216 . S
O351 C358 1.247 . S
O352 Co350 2.091 . S
O352 C358 1.261 . S
C353 O362 1.247 . S
C353 O363 1.272 . S
O354 Co350 2.004 . S
O354 C359 1.259 . S
Co355 O356 2.061 . S
Co355 O361 2.052 . S
Co355 O363 2.135 . S
O356 Co355 2.061 . S
O356 C359 1.235 . S
C357 O360 1.238 . S
C357 O361 1.241 . S
C358 O351 1.247 . S
C358 O352 1.261 . S
C359 O354 1.259 . S
C359 O356 1.235 . S
O360 Co350 2.021 . S
O360 C357 1.238 . S
O361 Co355 2.052 . S
O361 C357 1.241 . S
O362 Co350 2.137 . S
O362 C353 1.247 . S
O363 Co350 2.244 . S
O363 C353 1.272 . S
O363 Co355 2.135 . S
Co364 O365 2.216 . S
Co364 O366 2.091 . S
Co364 O368 2.004 . S
Co364 O374 2.021 . S
Co364 O376 2.137 . S
Co364 O377 2.244 . S
O365 Co364 2.216 . S
O365 C372 1.247 . S
O366 Co364 2.091 . S
O366 C372 1.261 . S
C367 O376 1.247 . S
C367 O377 1.272 . S
O368 Co364 2.004 . S
O368 C373 1.259 . S
Co369 O370 2.061 . S
Co369 O375 2.052 . S
Co369 O377 2.135 . S
O370 Co369 2.061 . S
O370 C373 1.235 . S
C371 O374 1.238 . S
C371 O375 1.241 . S
C372 O365 1.247 . S
C372 O366 1.261 . S
C373 O368 1.259 . S
C373 O370 1.235 . S
O374 Co364 2.021 . S
O374 C371 1.238 . S
O375 Co369 2.052 . S
O375 C371 1.241 . S
O376 Co364 2.137 . S
O376 C367 1.247 . S
O377 Co364 2.244 . S
O377 C367 1.272 . S
O377 Co369 2.135 . S
Co378 O379 2.216 . S
Co378 O380 2.091 . S
Co378 O382 2.004 . S
Co378 O388 2.021 . S
Co378 O390 2.137 . S
Co378 O391 2.244 . S
O379 Co378 2.216 . S
O379 C386 1.247 . S
O380 Co378 2.091 . S
O380 C386 1.261 . S
C381 O390 1.247 . S
C381 O391 1.272 . S
O382 Co378 2.004 . S
O382 C387 1.259 . S
Co383 O384 2.061 . S
Co383 O389 2.052 . S
Co383 O391 2.135 . S
O384 Co383 2.061 . S
O384 C387 1.235 . S
C385 O388 1.238 . S
C385 O389 1.241 . S
C386 O379 1.247 . S
C386 O380 1.261 . S
C387 O382 1.259 . S
C387 O384 1.235 . S
O388 Co378 2.021 . S
O388 C385 1.238 . S
O389 Co383 2.052 . S
O389 C385 1.241 . S
O390 Co378 2.137 . S
O390 C381 1.247 . S
O391 Co378 2.244 . S
O391 C381 1.272 . S
O391 Co383 2.135 . S
Co392 O393 2.216 . S
Co392 O394 2.091 . S
Co392 O396 2.004 . S
Co392 O402 2.021 . S
Co392 O404 2.137 . S
Co392 O405 2.244 . S
O393 Co392 2.216 . S
O393 C400 1.247 . S
O394 Co392 2.091 . S
O394 C400 1.261 . S
C395 O404 1.247 . S
C395 O405 1.272 . S
O396 Co392 2.004 . S
O396 C401 1.259 . S
Co397 O398 2.061 . S
Co397 O403 2.052 . S
Co397 O405 2.135 . S
O398 Co397 2.061 . S
O398 C401 1.235 . S
C399 O402 1.238 . S
C399 O403 1.241 . S
C400 O393 1.247 . S
C400 O394 1.261 . S
C401 O396 1.259 . S
C401 O398 1.235 . S
O402 Co392 2.021 . S
O402 C399 1.238 . S
O403 Co397 2.052 . S
O403 C399 1.241 . S
O404 Co392 2.137 . S
O404 C395 1.247 . S
O405 Co392 2.244 . S
O405 C395 1.272 . S
O405 Co397 2.135 . S
Co406 O407 2.216 . S
Co406 O408 2.091 . S
Co406 O410 2.004 . S
Co406 O416 2.021 . S
Co406 O418 2.137 . S
Co406 O419 2.244 . S
O407 Co406 2.216 . S
O407 C414 1.247 . S
O408 Co406 2.091 . S
O408 C414 1.261 . S
C409 O418 1.247 . S
C409 O419 1.272 . S
O410 Co406 2.004 . S
O410 C415 1.259 . S
Co411 O412 2.061 . S
Co411 O417 2.052 . S
Co411 O419 2.135 . S
O412 Co411 2.061 . S
O412 C415 1.235 . S
C413 O416 1.238 . S
C413 O417 1.241 . S
C414 O407 1.247 . S
C414 O408 1.261 . S
C415 O410 1.259 . S
C415 O412 1.235 . S
O416 Co406 2.021 . S
O416 C413 1.238 . S
O417 Co411 2.052 . S
O417 C413 1.241 . S
O418 Co406 2.137 . S
O418 C409 1.247 . S
O419 Co406 2.244 . S
O419 C409 1.272 . S
O419 Co411 2.135 . S
Co420 O421 2.216 . S
Co420 O422 2.091 . S
Co420 O424 2.004 . S
Co420 O430 2.021 . S
Co420 O432 2.137 . S
Co420 O433 2.244 . S
O421 Co420 2.216 . S
O421 C428 1.247 . S
O422 Co420 2.091 . S
O422 C428 1.261 . S
C423 O432 1.247 . S
C423 O433 1.272 . S
O424 Co420 2.004 . S
O424 C429 1.259 . S
Co425 O426 2.061 . S
Co425 O431 2.052 . S
Co425 O433 2.135 . S
O426 Co425 2.061 . S
O426 C429 1.235 . S
C427 O430 1.238 . S
C427 O431 1.241 . S
C428 O421 1.247 . S
C428 O422 1.261 . S
C429 O424 1.259 . S
C429 O426 1.235 . S
O430 Co420 2.021 . S
O430 C427 1.238 . S
O431 Co425 2.052 . S
O431 C427 1.241 . S
O432 Co420 2.137 . S
O432 C423 1.247 . S
O433 Co420 2.244 . S
O433 C423 1.272 . S
O433 Co425 2.135 . S
Co434 O435 2.216 . S
Co434 O436 2.091 . S
Co434 O438 2.004 . S
Co434 O444 2.021 . S
Co434 O446 2.137 . S
Co434 O447 2.244 . S
O435 Co434 2.216 . S
O435 C442 1.247 . S
O436 Co434 2.091 . S
O436 C442 1.261 . S
C437 O446 1.247 . S
C437 O447 1.272 . S
O438 Co434 2.004 . S
O438 C443 1.259 . S
Co439 O440 2.061 . S
Co439 O445 2.052 . S
Co439 O447 2.135 . S
O440 Co439 2.061 . S
O440 C443 1.235 . S
C441 O444 1.238 . S
C441 O445 1.241 . S
C442 O435 1.247 . S
C442 O436 1.261 . S
C443 O438 1.259 . S
C443 O440 1.235 . S
O444 Co434 2.021 . S
O444 C441 1.238 . S
O445 Co439 2.052 . S
O445 C441 1.241 . S
O446 Co434 2.137 . S
O446 C437 1.247 . S
O447 Co434 2.244 . S
O447 C437 1.272 . S
O447 Co439 2.135 . S
H448 C454 0.930 . S
H449 C458 0.930 . S
H450 C463 0.929 . S
H451 C461 0.929 . S
H452 C456 0.929 . S
H453 C462 0.929 . S
C454 H448 0.930 . S
C454 C455 1.367 . S
C454 C462 1.378 . S
C455 C454 1.367 . S
C455 C463 1.433 1_565 S
C456 H452 0.929 . S
C456 C458 1.378 . S
C456 C460 1.350 . S
C457 C460 1.463 1_565 S
C457 C462 1.350 . S
C457 N465 1.427 1_565 S
C458 H449 0.930 . S
C458 C456 1.378 . S
C458 C459 1.367 . S
C459 C458 1.367 . S
C459 C461 1.433 1_545 S
C460 C456 1.350 . S
C460 C457 1.463 1_545 S
C460 N464 1.427 1_545 S
C461 H451 0.929 . S
C461 C459 1.433 1_565 S
C461 N464 1.384 . S
C462 H453 0.929 . S
C462 C454 1.378 . S
C462 C457 1.350 . S
C463 H450 0.929 . S
C463 C455 1.433 1_545 S
C463 N465 1.384 . S
N464 C460 1.427 1_565 S
N464 C461 1.384 . S
N465 C457 1.427 1_545 S
N465 C463 1.384 . S
H466 C472 0.930 . S
H467 C476 0.930 . S
H468 C481 0.929 . S
H469 C479 0.929 . S
H470 C474 0.929 . S
H471 C480 0.929 . S
C472 H466 0.930 . S
C472 C473 1.367 . S
C472 C480 1.378 . S
C473 C472 1.367 . S
C473 C481 1.433 . S
C474 H470 0.929 . S
C474 C476 1.378 . S
C474 C478 1.350 . S
C475 C478 1.463 . S
C475 C480 1.350 . S
C475 N483 1.427 . S
C476 H467 0.930 . S
C476 C474 1.378 . S
C476 C477 1.367 . S
C477 C476 1.367 . S
C477 C479 1.433 . S
C478 C474 1.350 . S
C478 C475 1.463 . S
C478 N482 1.427 . S
C479 H469 0.929 . S
C479 C477 1.433 . S
C479 N482 1.384 . S
C480 H471 0.929 . S
C480 C472 1.378 . S
C480 C475 1.350 . S
C481 H468 0.929 . S
C481 C473 1.433 . S
C481 N483 1.384 . S
N482 C478 1.427 . S
N482 C479 1.384 . S
N483 C475 1.427 . S
N483 C481 1.384 . S
H484 C490 0.930 . S
H485 C494 0.930 . S
H486 C499 0.929 . S
H487 C497 0.929 . S
H488 C492 0.929 . S
H489 C498 0.929 . S
C490 H484 0.930 . S
C490 C491 1.367 . S
C490 C498 1.378 . S
C491 C490 1.367 . S
C491 C499 1.433 . S
C492 H488 0.929 . S
C492 C494 1.378 . S
C492 C496 1.350 . S
C493 C496 1.463 1_545 S
C493 C498 1.350 . S
C493 N501 1.427 1_545 S
C494 H485 0.930 . S
C494 C492 1.378 . S
C494 C495 1.367 . S
C495 C494 1.367 . S
C495 C497 1.433 . S
C496 C492 1.350 . S
C496 C493 1.463 1_565 S
C496 N500 1.427 1_565 S
C497 H487 0.929 . S
C497 C495 1.433 . S
C497 N500 1.384 1_565 S
C498 H489 0.929 . S
C498 C490 1.378 . S
C498 C493 1.350 . S
C499 H486 0.929 . S
C499 C491 1.433 . S
C499 N501 1.384 1_545 S
N500 C496 1.427 1_545 S
N500 C497 1.384 1_545 S
N501 C493 1.427 1_565 S
N501 C499 1.384 1_565 S
H502 C508 0.930 . S
H503 C512 0.930 . S
H504 C517 0.929 . S
H505 C515 0.929 . S
H506 C510 0.929 . S
H507 C516 0.929 . S
C508 H502 0.930 . S
C508 C509 1.367 . S
C508 C516 1.378 . S
C509 C508 1.367 . S
C509 C517 1.433 . S
C510 H506 0.929 . S
C510 C512 1.378 . S
C510 C514 1.350 . S
C511 C514 1.463 1_556 S
C511 C516 1.350 . S
C511 N519 1.427 . S
C512 H503 0.930 . S
C512 C510 1.378 . S
C512 C513 1.367 . S
C513 C512 1.367 . S
C513 C515 1.433 . S
C514 C510 1.350 . S
C514 C511 1.463 1_554 S
C514 N518 1.427 . S
C515 H505 0.929 . S
C515 C513 1.433 . S
C515 N518 1.384 . S
C516 H507 0.929 . S
C516 C508 1.378 . S
C516 C511 1.350 . S
C517 H504 0.929 . S
C517 C509 1.433 . S
C517 N519 1.384 . S
N518 C514 1.427 . S
N518 C515 1.384 . S
N519 C511 1.427 . S
N519 C517 1.384 . S
H520 C526 0.930 . S
H521 C530 0.930 . S
H522 C535 0.929 . S
H523 C533 0.929 . S
H524 C528 0.929 . S
H525 C534 0.929 . S
C526 H520 0.930 . S
C526 C527 1.367 . S
C526 C534 1.378 . S
C527 C526 1.367 . S
C527 C535 1.433 1_565 S
C528 H524 0.929 . S
C528 C530 1.378 . S
C528 C532 1.350 . S
C529 C532 1.463 1_565 S
C529 C534 1.350 . S
C529 N537 1.427 1_565 S
C530 H521 0.930 . S
C530 C528 1.378 . S
C530 C531 1.367 . S
C531 C530 1.367 . S
C531 C533 1.433 1_545 S
C532 C528 1.350 . S
C532 C529 1.463 1_545 S
C532 N536 1.427 1_545 S
C533 H523 0.929 . S
C533 C531 1.433 1_565 S
C533 N536 1.384 . S
C534 H525 0.929 . S
C534 C526 1.378 . S
C534 C529 1.350 . S
C535 H522 0.929 . S
C535 C527 1.433 1_545 S
C535 N537 1.384 . S
N536 C532 1.427 1_565 S
N536 C533 1.384 . S
N537 C529 1.427 1_545 S
N537 C535 1.384 . S
H538 C544 0.930 . S
H539 C548 0.930 . S
H540 C553 0.929 . S
H541 C551 0.929 . S
H542 C546 0.929 . S
H543 C552 0.929 . S
C544 H538 0.930 . S
C544 C545 1.367 . S
C544 C552 1.378 . S
C545 C544 1.367 . S
C545 C553 1.433 . S
C546 H542 0.929 . S
C546 C548 1.378 . S
C546 C550 1.350 . S
C547 C550 1.463 . S
C547 C552 1.350 . S
C547 N555 1.427 . S
C548 H539 0.930 . S
C548 C546 1.378 . S
C548 C549 1.367 . S
C549 C548 1.367 . S
C549 C551 1.433 . S
C550 C546 1.350 . S
C550 C547 1.463 . S
C550 N554 1.427 . S
C551 H541 0.929 . S
C551 C549 1.433 . S
C551 N554 1.384 . S
C552 H543 0.929 . S
C552 C544 1.378 . S
C552 C547 1.350 . S
C553 H540 0.929 . S
C553 C545 1.433 . S
C553 N555 1.384 . S
N554 C550 1.427 . S
N554 C551 1.384 . S
N555 C547 1.427 . S
N555 C553 1.384 . S
H556 C562 0.930 . S
H557 C566 0.930 . S
H558 C571 0.929 . S
H559 C569 0.929 . S
H560 C564 0.929 . S
H561 C570 0.929 . S
C562 H556 0.930 . S
C562 C563 1.367 . S
C562 C570 1.378 . S
C563 C562 1.367 . S
C563 C571 1.433 1_545 S
C564 H560 0.929 . S
C564 C566 1.378 . S
C564 C568 1.350 . S
C565 C568 1.463 1_545 S
C565 C570 1.350 . S
C565 N573 1.427 1_545 S
C566 H557 0.930 . S
C566 C564 1.378 . S
C566 C567 1.367 . S
C567 C566 1.367 . S
C567 C569 1.433 1_565 S
C568 C564 1.350 . S
C568 C565 1.463 1_565 S
C568 N572 1.427 1_565 S
C569 H559 0.929 . S
C569 C567 1.433 1_545 S
C569 N572 1.384 . S
C570 H561 0.929 . S
C570 C562 1.378 . S
C570 C565 1.350 . S
C571 H558 0.929 . S
C571 C563 1.433 1_565 S
C571 N573 1.384 . S
N572 C568 1.427 1_545 S
N572 C569 1.384 . S
N573 C565 1.427 1_565 S
N573 C571 1.384 . S
H574 C580 0.930 . S
H575 C584 0.930 . S
H576 C589 0.929 . S
H577 C587 0.929 . S
H578 C582 0.929 . S
H579 C588 0.929 . S
C580 H574 0.930 . S
C580 C581 1.367 . S
C580 C588 1.378 . S
C581 C580 1.367 . S
C581 C589 1.433 . S
C582 H578 0.929 . S
C582 C584 1.378 . S
C582 C586 1.350 . S
C583 C586 1.463 1_556 S
C583 C588 1.350 . S
C583 N591 1.427 . S
C584 H575 0.930 . S
C584 C582 1.378 . S
C584 C585 1.367 . S
C585 C584 1.367 . S
C585 C587 1.433 . S
C586 C582 1.350 . S
C586 C583 1.463 1_554 S
C586 N590 1.427 . S
C587 H577 0.929 . S
C587 C585 1.433 . S
C587 N590 1.384 . S
C588 H579 0.929 . S
C588 C580 1.378 . S
C588 C583 1.350 . S
C589 H576 0.929 . S
C589 C581 1.433 . S
C589 N591 1.384 . S
N590 C586 1.427 . S
N590 C587 1.384 . S
N591 C583 1.427 . S
N591 C589 1.384 . S
H592 C598 0.930 . S
H593 C602 0.930 . S
H594 C607 0.929 . S
H595 C605 0.929 . S
H596 C600 0.929 . S
H597 C606 0.929 . S
C598 H592 0.930 . S
C598 C599 1.367 . S
C598 C606 1.378 . S
C599 C598 1.367 . S
C599 C607 1.433 . S
C600 H596 0.929 . S
C600 C602 1.378 . S
C600 C604 1.350 . S
C601 C604 1.463 . S
C601 C606 1.350 . S
C601 N609 1.427 . S
C602 H593 0.930 . S
C602 C600 1.378 . S
C602 C603 1.367 . S
C603 C602 1.367 . S
C603 C605 1.433 . S
C604 C600 1.350 . S
C604 C601 1.463 . S
C604 N608 1.427 . S
C605 H595 0.929 . S
C605 C603 1.433 . S
C605 N608 1.384 . S
C606 H597 0.929 . S
C606 C598 1.378 . S
C606 C601 1.350 . S
C607 H594 0.929 . S
C607 C599 1.433 . S
C607 N609 1.384 . S
N608 C604 1.427 . S
N608 C605 1.384 . S
N609 C601 1.427 . S
N609 C607 1.384 . S
H610 C616 0.930 . S
H611 C620 0.930 . S
H612 C625 0.929 . S
H613 C623 0.929 . S
H614 C618 0.929 . S
H615 C624 0.929 . S
C616 H610 0.930 . S
C616 C617 1.367 . S
C616 C624 1.378 . S
C617 C616 1.367 . S
C617 C625 1.433 . S
C618 H614 0.929 . S
C618 C620 1.378 . S
C618 C622 1.350 . S
C619 C622 1.463 1_554 S
C619 C624 1.350 . S
C619 N627 1.427 . S
C620 H611 0.930 . S
C620 C618 1.378 . S
C620 C621 1.367 . S
C621 C620 1.367 . S
C621 C623 1.433 . S
C622 C618 1.350 . S
C622 C619 1.463 1_556 S
C622 N626 1.427 . S
C623 H613 0.929 . S
C623 C621 1.433 . S
C623 N626 1.384 . S
C624 H615 0.929 . S
C624 C616 1.378 . S
C624 C619 1.350 . S
C625 H612 0.929 . S
C625 C617 1.433 . S
C625 N627 1.384 . S
N626 C622 1.427 . S
N626 C623 1.384 . S
N627 C619 1.427 . S
N627 C625 1.384 . S
H628 C634 0.930 . S
H629 C638 0.930 . S
H630 C643 0.929 . S
H631 C641 0.929 . S
H632 C636 0.929 . S
H633 C642 0.929 . S
C634 H628 0.930 . S
C634 C635 1.367 . S
C634 C642 1.378 . S
C635 C634 1.367 . S
C635 C643 1.433 . S
C636 H632 0.929 . S
C636 C638 1.378 . S
C636 C640 1.350 . S
C637 C640 1.463 . S
C637 C642 1.350 . S
C637 N645 1.427 . S
C638 H629 0.930 . S
C638 C636 1.378 . S
C638 C639 1.367 . S
C639 C638 1.367 . S
C639 C641 1.433 . S
C640 C636 1.350 . S
C640 C637 1.463 . S
C640 N644 1.427 . S
C641 H631 0.929 . S
C641 C639 1.433 . S
C641 N644 1.384 . S
C642 H633 0.929 . S
C642 C634 1.378 . S
C642 C637 1.350 . S
C643 H630 0.929 . S
C643 C635 1.433 . S
C643 N645 1.384 . S
N644 C640 1.427 . S
N644 C641 1.384 . S
N645 C637 1.427 . S
N645 C643 1.384 . S
H646 C652 0.930 . S
H647 C656 0.930 . S
H648 C661 0.929 . S
H649 C659 0.929 . S
H650 C654 0.929 . S
H651 C660 0.929 . S
C652 H646 0.930 . S
C652 C653 1.367 . S
C652 C660 1.378 . S
C653 C652 1.367 . S
C653 C661 1.433 . S
C654 H650 0.929 . S
C654 C656 1.378 . S
C654 C658 1.350 . S
C655 C658 1.463 . S
C655 C660 1.350 . S
C655 N663 1.427 . S
C656 H647 0.930 . S
C656 C654 1.378 . S
C656 C657 1.367 . S
C657 C656 1.367 . S
C657 C659 1.433 . S
C658 C654 1.350 . S
C658 C655 1.463 . S
C658 N662 1.427 . S
C659 H649 0.929 . S
C659 C657 1.433 . S
C659 N662 1.384 . S
C660 H651 0.929 . S
C660 C652 1.378 . S
C660 C655 1.350 . S
C661 H648 0.929 . S
C661 C653 1.433 . S
C661 N663 1.384 . S
N662 C658 1.427 . S
N662 C659 1.384 . S
N663 C655 1.427 . S
N663 C661 1.384 . S
H664 C670 0.930 . S
H665 C674 0.930 . S
H666 C679 0.929 . S
H667 C677 0.929 . S
H668 C672 0.929 . S
H669 C678 0.929 . S
C670 H664 0.930 . S
C670 C671 1.367 . S
C670 C678 1.378 . S
C671 C670 1.367 . S
C671 C679 1.433 . S
C672 H668 0.929 . S
C672 C674 1.378 . S
C672 C676 1.350 . S
C673 C676 1.463 . S
C673 C678 1.350 . S
C673 N681 1.427 . S
C674 H665 0.930 . S
C674 C672 1.378 . S
C674 C675 1.367 . S
C675 C674 1.367 . S
C675 C677 1.433 . S
C676 C672 1.350 . S
C676 C673 1.463 . S
C676 N680 1.427 . S
C677 H667 0.929 . S
C677 C675 1.433 . S
C677 N680 1.384 . S
C678 H669 0.929 . S
C678 C670 1.378 . S
C678 C673 1.350 . S
C679 H666 0.929 . S
C679 C671 1.433 . S
C679 N681 1.384 . S
N680 C676 1.427 . S
N680 C677 1.384 . S
N681 C673 1.427 . S
N681 C679 1.384 . S
H682 C688 0.930 . S
H683 C692 0.930 . S
H684 C697 0.929 . S
H685 C695 0.929 . S
H686 C690 0.929 . S
H687 C696 0.929 . S
C688 H682 0.930 . S
C688 C689 1.367 . S
C688 C696 1.378 . S
C689 C688 1.367 . S
C689 C697 1.433 . S
C690 H686 0.929 . S
C690 C692 1.378 . S
C690 C694 1.350 . S
C691 C694 1.463 1_554 S
C691 C696 1.350 . S
C691 N699 1.427 . S
C692 H683 0.930 . S
C692 C690 1.378 . S
C692 C693 1.367 . S
C693 C692 1.367 . S
C693 C695 1.433 . S
C694 C690 1.350 . S
C694 C691 1.463 1_556 S
C694 N698 1.427 . S
C695 H685 0.929 . S
C695 C693 1.433 . S
C695 N698 1.384 . S
C696 H687 0.929 . S
C696 C688 1.378 . S
C696 C691 1.350 . S
C697 H684 0.929 . S
C697 C689 1.433 . S
C697 N699 1.384 . S
N698 C694 1.427 . S
N698 C695 1.384 . S
N699 C691 1.427 . S
N699 C697 1.384 . S
H700 C706 0.930 . S
H701 C710 0.930 . S
H702 C715 0.929 . S
H703 C713 0.929 . S
H704 C708 0.929 . S
H705 C714 0.929 . S
C706 H700 0.930 . S
C706 C707 1.367 . S
C706 C714 1.378 . S
C707 C706 1.367 . S
C707 C715 1.433 . S
C708 H704 0.929 . S
C708 C710 1.378 . S
C708 C712 1.350 . S
C709 C712 1.463 . S
C709 C714 1.350 . S
C709 N717 1.427 . S
C710 H701 0.930 . S
C710 C708 1.378 . S
C710 C711 1.367 . S
C711 C710 1.367 . S
C711 C713 1.433 . S
C712 C708 1.350 . S
C712 C709 1.463 . S
C712 N716 1.427 . S
C713 H703 0.929 . S
C713 C711 1.433 . S
C713 N716 1.384 . S
C714 H705 0.929 . S
C714 C706 1.378 . S
C714 C709 1.350 . S
C715 H702 0.929 . S
C715 C707 1.433 . S
C715 N717 1.384 . S
N716 C712 1.427 . S
N716 C713 1.384 . S
N717 C709 1.427 . S
N717 C715 1.384 . S
H718 C724 0.930 . S
H719 C728 0.930 . S
H720 C733 0.929 . S
H721 C731 0.929 . S
H722 C726 0.929 . S
H723 C732 0.929 . S
C724 H718 0.930 . S
C724 C725 1.367 . S
C724 C732 1.378 . S
C725 C724 1.367 . S
C725 C733 1.433 . S
C726 H722 0.929 . S
C726 C728 1.378 . S
C726 C730 1.350 . S
C727 C730 1.463 . S
C727 C732 1.350 . S
C727 N735 1.427 . S
C728 H719 0.930 . S
C728 C726 1.378 . S
C728 C729 1.367 . S
C729 C728 1.367 . S
C729 C731 1.433 . S
C730 C726 1.350 . S
C730 C727 1.463 . S
C730 N734 1.427 . S
C731 H721 0.929 . S
C731 C729 1.433 . S
C731 N734 1.384 . S
C732 H723 0.929 . S
C732 C724 1.378 . S
C732 C727 1.350 . S
C733 H720 0.929 . S
C733 C725 1.433 . S
C733 N735 1.384 . S
N734 C730 1.427 . S
N734 C731 1.384 . S
N735 C727 1.427 . S
N735 C733 1.384 . S
H736 C742 0.930 1_545 S
H737 C746 0.930 . S
H738 C751 0.929 . S
H739 C749 0.929 . S
H740 C744 0.929 . S
H741 C750 0.929 . S
C742 H736 0.930 1_565 S
C742 C743 1.366 1_565 S
C742 C750 1.378 . S
C743 C742 1.366 1_545 S
C743 C751 1.428 1_545 S
C744 H740 0.929 . S
C744 C746 1.378 . S
C744 C748 1.350 . S
C745 C748 1.463 . S
C745 C750 1.350 . S
C745 N753 1.427 . S
C746 H737 0.930 . S
C746 C744 1.378 . S
C746 C747 1.367 . S
C747 C746 1.367 . S
C747 C749 1.433 . S
C748 C744 1.350 . S
C748 C745 1.463 . S
C748 N752 1.427 . S
C749 H739 0.929 . S
C749 C747 1.433 . S
C749 N752 1.384 . S
C750 H741 0.929 . S
C750 C742 1.378 . S
C750 C745 1.350 . S
C751 H738 0.929 . S
C751 C743 1.428 1_565 S
C751 N753 1.384 . S
N752 C748 1.427 . S
N752 C749 1.384 . S
N753 C745 1.427 . S
N753 C751 1.384 . S
H754 C760 0.930 . S
H755 C764 0.931 . S
H756 C769 0.929 . S
H757 C767 0.929 . S
H758 C762 0.929 . S
H759 C768 0.929 . S
C760 H754 0.930 . S
C760 C761 1.367 . S
C760 C768 1.378 . S
C761 C760 1.367 . S
C761 C769 1.433 . S
C762 H758 0.929 . S
C762 C764 1.377 1_545 S
C762 C766 1.350 . S
C763 C766 1.463 . S
C763 C768 1.350 . S
C763 N771 1.427 . S
C764 H755 0.931 . S
C764 C762 1.377 1_565 S
C764 C765 1.367 . S
C765 C764 1.367 . S
C765 C767 1.427 1_565 S
C766 C762 1.350 . S
C766 C763 1.463 . S
C766 N770 1.427 . S
C767 H757 0.929 . S
C767 C765 1.427 1_545 S
C767 N770 1.384 . S
C768 H759 0.929 . S
C768 C760 1.378 . S
C768 C763 1.350 . S
C769 H756 0.929 . S
C769 C761 1.433 . S
C769 N771 1.384 . S
N770 C766 1.427 . S
N770 C767 1.384 . S
N771 C763 1.427 . S
N771 C769 1.384 . S
H772 C778 0.930 . S
H773 C782 0.930 . S
H774 C787 0.929 . S
H775 C785 0.929 . S
H776 C780 0.929 . S
H777 C786 0.929 . S
C778 H772 0.930 . S
C778 C779 1.371 . S
C778 C786 1.378 1_565 S
C779 C778 1.371 . S
C779 C787 1.417 1_565 S
C780 H776 0.929 . S
C780 C782 1.378 . S
C780 C784 1.350 . S
C781 C784 1.463 . S
C781 C786 1.350 . S
C781 N789 1.427 . S
C782 H773 0.930 . S
C782 C780 1.378 . S
C782 C783 1.367 . S
C783 C782 1.367 . S
C783 C785 1.433 . S
C784 C780 1.350 . S
C784 C781 1.463 . S
C784 N788 1.427 . S
C785 H775 0.929 . S
C785 C783 1.433 . S
C785 N788 1.384 . S
C786 H777 0.929 . S
C786 C778 1.378 1_545 S
C786 C781 1.350 . S
C787 H774 0.929 . S
C787 C779 1.417 1_545 S
C787 N789 1.384 . S
N788 C784 1.427 . S
N788 C785 1.384 . S
N789 C781 1.427 . S
N789 C787 1.384 . S
H790 C796 0.930 . S
H791 C800 0.930 . S
H792 C805 0.929 . S
H793 C803 0.929 . S
H794 C798 0.929 . S
H795 C804 0.929 . S
C796 H790 0.930 . S
C796 C797 1.368 . S
C796 C804 1.378 1_545 S
C797 C796 1.368 . S
C797 C805 1.424 1_545 S
C798 H794 0.929 . S
C798 C800 1.378 . S
C798 C802 1.350 . S
C799 C802 1.463 . S
C799 C804 1.350 . S
C799 N807 1.427 . S
C800 H791 0.930 . S
C800 C798 1.378 . S
C800 C801 1.367 . S
C801 C800 1.367 . S
C801 C803 1.433 . S
C802 C798 1.350 . S
C802 C799 1.463 . S
C802 N806 1.427 . S
C803 H793 0.929 . S
C803 C801 1.433 . S
C803 N806 1.384 . S
C804 H795 0.929 . S
C804 C796 1.378 1_565 S
C804 C799 1.350 . S
C805 H792 0.929 . S
C805 C797 1.424 1_565 S
C805 N807 1.384 . S
N806 C802 1.427 . S
N806 C803 1.384 . S
N807 C799 1.427 . S
N807 C805 1.384 . S
H808 C814 0.930 . S
H809 C818 0.930 1_565 S
H810 C823 0.929 . S
H811 C821 0.929 . S
H812 C816 0.929 . S
H813 C822 0.929 . S
C814 H808 0.930 . S
C814 C815 1.367 . S
C814 C822 1.378 . S
C815 C814 1.367 . S
C815 C823 1.433 . S
C816 H812 0.929 . S
C816 C818 1.378 . S
C816 C820 1.350 . S
C817 C820 1.463 . S
C817 C822 1.350 . S
C817 N825 1.427 . S
C818 H809 0.930 1_545 S
C818 C816 1.378 . S
C818 C819 1.366 1_545 S
C819 C818 1.366 1_565 S
C819 C821 1.429 1_565 S
C820 C816 1.350 . S
C820 C817 1.463 . S
C820 N824 1.427 . S
C821 H811 0.929 . S
C821 C819 1.429 1_545 S
C821 N824 1.384 . S
C822 H813 0.929 . S
C822 C814 1.378 . S
C822 C817 1.350 . S
C823 H810 0.929 . S
C823 C815 1.433 . S
C823 N825 1.384 . S
N824 C820 1.427 . S
N824 C821 1.384 . S
N825 C817 1.427 . S
N825 C823 1.384 . S
H826 C832 0.930 . S
H827 C836 0.930 . S
H828 C841 0.929 . S
H829 C839 0.929 . S
H830 C834 0.929 . S
H831 C840 0.929 . S
C832 H826 0.930 . S
C832 C833 1.371 . S
C832 C840 1.378 1_545 S
C833 C832 1.371 . S
C833 C841 1.418 1_545 S
C834 H830 0.929 . S
C834 C836 1.378 . S
C834 C838 1.350 . S
C835 C838 1.463 . S
C835 C840 1.350 . S
C835 N843 1.427 . S
C836 H827 0.930 . S
C836 C834 1.378 . S
C836 C837 1.367 . S
C837 C836 1.367 . S
C837 C839 1.433 . S
C838 C834 1.350 . S
C838 C835 1.463 . S
C838 N842 1.427 . S
C839 H829 0.929 . S
C839 C837 1.433 . S
C839 N842 1.384 . S
C840 H831 0.929 . S
C840 C832 1.378 1_565 S
C840 C835 1.350 . S
C841 H828 0.929 . S
C841 C833 1.418 1_565 S
C841 N843 1.384 . S
N842 C838 1.427 . S
N842 C839 1.384 . S
N843 C835 1.427 . S
N843 C841 1.384 . S
H844 C850 0.930 . S
H845 C854 0.930 . S
H846 C859 0.929 . S
H847 C857 0.929 1_545 S
H848 C852 0.929 . S
H849 C858 0.929 . S
C850 H844 0.930 . S
C850 C851 1.367 . S
C850 C858 1.378 . S
C851 C850 1.367 . S
C851 C859 1.433 . S
C852 H848 0.929 . S
C852 C854 1.378 . S
C852 C856 1.350 . S
C853 C856 1.463 . S
C853 C858 1.350 . S
C853 N861 1.427 . S
C854 H845 0.930 . S
C854 C852 1.378 . S
C854 C855 1.368 1_565 S
C855 C854 1.368 1_545 S
C855 C857 1.434 1_545 S
C856 C852 1.350 . S
C856 C853 1.463 . S
C856 N860 1.427 . S
C857 H847 0.929 1_565 S
C857 C855 1.434 1_565 S
C857 N860 1.384 . S
C858 H849 0.929 . S
C858 C850 1.378 . S
C858 C853 1.350 . S
C859 H846 0.929 . S
C859 C851 1.433 . S
C859 N861 1.384 . S
N860 C856 1.427 . S
N860 C857 1.384 . S
N861 C853 1.427 . S
N861 C859 1.384 . S
H862 C868 0.930 . S
H863 C872 0.912 1_565 S
H864 C877 0.929 . S
H865 C875 0.929 . S
H866 C870 0.929 . S
H867 C876 0.929 . S
C868 H862 0.930 . S
C868 C869 1.367 . S
C868 C876 1.378 . S
C869 C868 1.367 . S
C869 C877 1.433 . S
C870 H866 0.929 . S
C870 C872 1.397 . S
C870 C874 1.350 . S
C871 C874 1.463 . S
C871 C876 1.350 . S
C871 N879 1.427 . S
C872 H863 0.912 1_545 S
C872 C870 1.397 . S
C872 C873 1.366 1_545 S
C873 C872 1.366 1_565 S
C873 C875 1.427 1_565 S
C874 C870 1.350 . S
C874 C871 1.463 . S
C874 N878 1.427 . S
C875 H865 0.929 . S
C875 C873 1.427 1_545 S
C875 N878 1.384 . S
C876 H867 0.929 . S
C876 C868 1.378 . S
C876 C871 1.350 . S
C877 H864 0.929 . S
C877 C869 1.433 . S
C877 N879 1.384 . S
N878 C874 1.427 . S
N878 C875 1.384 . S
N879 C871 1.427 . S
N879 C877 1.384 . S
H880 C886 0.930 . S
H881 C890 0.930 . S
H882 C895 0.929 . S
H883 C893 0.929 . S
H884 C888 0.929 . S
H885 C894 0.929 . S
C886 H880 0.930 . S
C886 C887 1.367 . S
C886 C894 1.378 . S
C887 C886 1.367 . S
C887 C895 1.433 . S
C888 H884 0.929 . S
C888 C890 1.378 . S
C888 C892 1.350 . S
C889 C892 1.463 . S
C889 C894 1.350 . S
C889 N897 1.427 . S
C890 H881 0.930 . S
C890 C888 1.378 . S
C890 C891 1.367 . S
C891 C890 1.367 . S
C891 C893 1.433 . S
C892 C888 1.350 . S
C892 C889 1.463 . S
C892 N896 1.427 . S
C893 H883 0.929 . S
C893 C891 1.433 . S
C893 N896 1.384 . S
C894 H885 0.929 . S
C894 C886 1.378 . S
C894 C889 1.350 . S
C895 H882 0.929 . S
C895 C887 1.433 . S
C895 N897 1.384 . S
N896 C892 1.427 . S
N896 C893 1.384 . S
N897 C889 1.427 . S
N897 C895 1.384 . S
H898 C904 0.930 . S
H899 C908 0.930 . S
H900 C913 0.929 . S
H901 C911 0.929 . S
H902 C906 0.929 . S
H903 C912 0.929 . S
C904 H898 0.930 . S
C904 C905 1.367 . S
C904 C912 1.378 . S
C905 C904 1.367 . S
C905 C913 1.433 . S
C906 H902 0.929 . S
C906 C908 1.378 . S
C906 C910 1.350 . S
C907 C910 1.463 . S
C907 C912 1.350 . S
C907 N915 1.427 . S
C908 H899 0.930 . S
C908 C906 1.378 . S
C908 C909 1.367 . S
C909 C908 1.367 . S
C909 C911 1.433 . S
C910 C906 1.350 . S
C910 C907 1.463 . S
C910 N914 1.427 . S
C911 H901 0.929 . S
C911 C909 1.433 . S
C911 N914 1.384 . S
C912 H903 0.929 . S
C912 C904 1.378 . S
C912 C907 1.350 . S
C913 H900 0.929 . S
C913 C905 1.433 . S
C913 N915 1.384 . S
N914 C910 1.427 . S
N914 C911 1.384 . S
N915 C907 1.427 . S
N915 C913 1.384 . S
H916 C922 0.930 . S
H917 C926 0.930 . S
H918 C931 0.929 . S
H919 C929 0.929 . S
H920 C924 0.929 . S
H921 C930 0.929 . S
C922 H916 0.930 . S
C922 C923 1.367 . S
C922 C930 1.378 . S
C923 C922 1.367 . S
C923 C931 1.433 . S
C924 H920 0.929 . S
C924 C926 1.378 . S
C924 C928 1.350 . S
C925 C928 1.463 . S
C925 C930 1.350 . S
C925 N933 1.427 . S
C926 H917 0.930 . S
C926 C924 1.378 . S
C926 C927 1.367 . S
C927 C926 1.367 . S
C927 C929 1.433 . S
C928 C924 1.350 . S
C928 C925 1.463 . S
C928 N932 1.427 . S
C929 H919 0.929 . S
C929 C927 1.433 . S
C929 N932 1.384 . S
C930 H921 0.929 . S
C930 C922 1.378 . S
C930 C925 1.350 . S
C931 H918 0.929 . S
C931 C923 1.433 . S
C931 N933 1.384 . S
N932 C928 1.427 . S
N932 C929 1.384 . S
N933 C925 1.427 . S
N933 C931 1.384 . S
H934 C940 0.930 . S
H935 C944 0.930 . S
H936 C949 0.929 . S
H937 C947 0.929 . S
H938 C942 0.929 . S
H939 C948 0.929 . S
C940 H934 0.930 . S
C940 C941 1.367 . S
C940 C948 1.378 . S
C941 C940 1.367 . S
C941 C949 1.433 . S
C942 H938 0.929 . S
C942 C944 1.378 . S
C942 C946 1.350 . S
C943 C946 1.463 . S
C943 C948 1.350 . S
C943 N951 1.427 . S
C944 H935 0.930 . S
C944 C942 1.378 . S
C944 C945 1.367 . S
C945 C944 1.367 . S
C945 C947 1.433 . S
C946 C942 1.350 . S
C946 C943 1.463 . S
C946 N950 1.427 . S
C947 H937 0.929 . S
C947 C945 1.433 . S
C947 N950 1.384 . S
C948 H939 0.929 . S
C948 C940 1.378 . S
C948 C943 1.350 . S
C949 H936 0.929 . S
C949 C941 1.433 . S
C949 N951 1.384 . S
N950 C946 1.427 . S
N950 C947 1.384 . S
N951 C943 1.427 . S
N951 C949 1.384 . S
H952 C958 0.930 . S
H953 C962 0.930 . S
H954 C967 0.929 . S
H955 C965 0.929 . S
H956 C960 0.929 . S
H957 C966 0.929 . S
C958 H952 0.930 . S
C958 C959 1.367 . S
C958 C966 1.378 . S
C959 C958 1.367 . S
C959 C967 1.433 . S
C960 H956 0.929 . S
C960 C962 1.378 . S
C960 C964 1.350 . S
C961 C964 1.463 . S
C961 C966 1.350 . S
C961 N969 1.427 . S
C962 H953 0.930 . S
C962 C960 1.378 . S
C962 C963 1.367 . S
C963 C962 1.367 . S
C963 C965 1.433 . S
C964 C960 1.350 . S
C964 C961 1.463 . S
C964 N968 1.427 . S
C965 H955 0.929 . S
C965 C963 1.433 . S
C965 N968 1.384 . S
C966 H957 0.929 . S
C966 C958 1.378 . S
C966 C961 1.350 . S
C967 H954 0.929 . S
C967 C959 1.433 . S
C967 N969 1.384 . S
N968 C964 1.427 . S
N968 C965 1.384 . S
N969 C961 1.427 . S
N969 C967 1.384 . S
H970 C976 0.930 . S
H971 C980 0.930 . S
H972 C985 0.929 . S
H973 C983 0.929 . S
H974 C978 0.929 . S
H975 C984 0.929 . S
C976 H970 0.930 . S
C976 C977 1.367 . S
C976 C984 1.378 . S
C977 C976 1.367 . S
C977 C985 1.433 . S
C978 H974 0.929 . S
C978 C980 1.378 . S
C978 C982 1.350 . S
C979 C982 1.463 . S
C979 C984 1.350 . S
C979 N987 1.427 . S
C980 H971 0.930 . S
C980 C978 1.378 . S
C980 C981 1.367 . S
C981 C980 1.367 . S
C981 C983 1.433 . S
C982 C978 1.350 . S
C982 C979 1.463 . S
C982 N986 1.427 . S
C983 H973 0.929 . S
C983 C981 1.433 . S
C983 N986 1.384 . S
C984 H975 0.929 . S
C984 C976 1.378 . S
C984 C979 1.350 . S
C985 H972 0.929 . S
C985 C977 1.433 . S
C985 N987 1.384 . S
N986 C982 1.427 . S
N986 C983 1.384 . S
N987 C979 1.427 . S
N987 C985 1.384 . S
H988 C994 0.930 . S
H989 C998 0.930 . S
H990 C1003 0.929 . S
H991 C1001 0.929 . S
H992 C996 0.929 . S
H993 C1002 0.929 . S
C994 H988 0.930 . S
C994 C995 1.367 . S
C994 C1002 1.378 . S
C995 C994 1.367 . S
C995 C1003 1.433 . S
C996 H992 0.929 . S
C996 C998 1.378 . S
C996 C1000 1.350 . S
C997 C1000 1.463 . S
C997 C1002 1.350 . S
C997 N1005 1.427 . S
C998 H989 0.930 . S
C998 C996 1.378 . S
C998 C999 1.367 . S
C999 C998 1.367 . S
C999 C1001 1.433 . S
C1000 C996 1.350 . S
C1000 C997 1.463 . S
C1000 N1004 1.427 . S
C1001 H991 0.929 . S
C1001 C999 1.433 . S
C1001 N1004 1.384 . S
C1002 H993 0.929 . S
C1002 C994 1.378 . S
C1002 C997 1.350 . S
C1003 H990 0.929 . S
C1003 C995 1.433 . S
C1003 N1005 1.384 . S
N1004 C1000 1.427 . S
N1004 C1001 1.384 . S
N1005 C997 1.427 . S
N1005 C1003 1.384 . S
H1006 C1012 0.930 . S
H1007 C1016 0.930 . S
H1008 C1021 0.929 . S
H1009 C1019 0.929 . S
H1010 C1014 0.929 . S
H1011 C1020 0.929 . S
C1012 H1006 0.930 . S
C1012 C1013 1.367 . S
C1012 C1020 1.378 . S
C1013 C1012 1.367 . S
C1013 C1021 1.433 . S
C1014 H1010 0.929 . S
C1014 C1016 1.378 . S
C1014 C1018 1.350 . S
C1015 C1018 1.463 . S
C1015 C1020 1.350 . S
C1015 N1023 1.427 . S
C1016 H1007 0.930 . S
C1016 C1014 1.378 . S
C1016 C1017 1.367 . S
C1017 C1016 1.367 . S
C1017 C1019 1.433 . S
C1018 C1014 1.350 . S
C1018 C1015 1.463 . S
C1018 N1022 1.427 . S
C1019 H1009 0.929 . S
C1019 C1017 1.433 . S
C1019 N1022 1.384 . S
C1020 H1011 0.929 . S
C1020 C1012 1.378 . S
C1020 C1015 1.350 . S
C1021 H1008 0.929 . S
C1021 C1013 1.433 . S
C1021 N1023 1.384 . S
N1022 C1018 1.427 . S
N1022 C1019 1.384 . S
N1023 C1015 1.427 . S
N1023 C1021 1.384 . S
H1024 C1030 0.930 . S
H1025 C1034 0.930 . S
H1026 C1039 0.929 . S
H1027 C1037 0.929 . S
H1028 C1032 0.929 . S
H1029 C1038 0.929 . S
C1030 H1024 0.930 . S
C1030 C1031 1.367 . S
C1030 C1038 1.378 . S
C1031 C1030 1.367 . S
C1031 C1039 1.433 . S
C1032 H1028 0.929 . S
C1032 C1034 1.378 . S
C1032 C1036 1.350 . S
C1033 C1036 1.463 . S
C1033 C1038 1.350 . S
C1033 N1041 1.427 . S
C1034 H1025 0.930 . S
C1034 C1032 1.378 . S
C1034 C1035 1.367 . S
C1035 C1034 1.367 . S
C1035 C1037 1.433 . S
C1036 C1032 1.350 . S
C1036 C1033 1.463 . S
C1036 N1040 1.427 . S
C1037 H1027 0.929 . S
C1037 C1035 1.433 . S
C1037 N1040 1.384 . S
C1038 H1029 0.929 . S
C1038 C1030 1.378 . S
C1038 C1033 1.350 . S
C1039 H1026 0.929 . S
C1039 C1031 1.433 . S
C1039 N1041 1.384 . S
N1040 C1036 1.427 . S
N1040 C1037 1.384 . S
N1041 C1033 1.427 . S
N1041 C1039 1.384 . S
H1042 C1048 0.930 . S
H1043 C1052 0.930 . S
H1044 C1057 0.929 . S
H1045 C1055 0.929 . S
H1046 C1050 0.929 . S
H1047 C1056 0.929 . S
C1048 H1042 0.930 . S
C1048 C1049 1.367 . S
C1048 C1056 1.378 . S
C1049 C1048 1.367 . S
C1049 C1057 1.433 . S
C1050 H1046 0.929 . S
C1050 C1052 1.378 . S
C1050 C1054 1.350 . S
C1051 C1054 1.463 . S
C1051 C1056 1.350 . S
C1051 N1059 1.427 . S
C1052 H1043 0.930 . S
C1052 C1050 1.378 . S
C1052 C1053 1.367 1_455 S
C1053 C1052 1.367 1_655 S
C1053 C1055 1.433 . S
C1054 C1050 1.350 . S
C1054 C1051 1.463 . S
C1054 N1058 1.427 . S
C1055 H1045 0.929 . S
C1055 C1053 1.433 . S
C1055 N1058 1.384 1_655 S
C1056 H1047 0.929 . S
C1056 C1048 1.378 . S
C1056 C1051 1.350 . S
C1057 H1044 0.929 . S
C1057 C1049 1.433 . S
C1057 N1059 1.384 . S
N1058 C1054 1.427 . S
N1058 C1055 1.384 1_455 S
N1059 C1051 1.427 . S
N1059 C1057 1.384 . S
H1060 C1066 0.930 . S
H1061 C1070 0.930 . S
H1062 C1075 0.929 . S
H1063 C1073 0.929 . S
H1064 C1068 0.929 . S
H1065 C1074 0.929 . S
C1066 H1060 0.930 . S
C1066 C1067 1.367 . S
C1066 C1074 1.378 . S
C1067 C1066 1.367 . S
C1067 C1075 1.433 . S
C1068 H1064 0.929 . S
C1068 C1070 1.378 . S
C1068 C1072 1.350 . S
C1069 C1072 1.463 . S
C1069 C1074 1.350 . S
C1069 N1077 1.427 . S
C1070 H1061 0.930 . S
C1070 C1068 1.378 . S
C1070 C1071 1.367 . S
C1071 C1070 1.367 . S
C1071 C1073 1.433 . S
C1072 C1068 1.350 . S
C1072 C1069 1.463 . S
C1072 N1076 1.427 . S
C1073 H1063 0.929 . S
C1073 C1071 1.433 . S
C1073 N1076 1.384 . S
C1074 H1065 0.929 . S
C1074 C1066 1.378 . S
C1074 C1069 1.350 . S
C1075 H1062 0.929 . S
C1075 C1067 1.433 . S
C1075 N1077 1.384 . S
N1076 C1072 1.427 . S
N1076 C1073 1.384 . S
N1077 C1069 1.427 . S
N1077 C1075 1.384 . S
H1078 C1084 0.930 . S
H1079 C1088 0.930 . S
H1080 C1093 0.929 . S
H1081 C1091 0.929 . S
H1082 C1086 0.929 . S
H1083 C1092 0.929 . S
C1084 H1078 0.930 . S
C1084 C1085 1.367 . S
C1084 C1092 1.378 . S
C1085 C1084 1.367 . S
C1085 C1093 1.433 . S
C1086 H1082 0.929 . S
C1086 C1088 1.378 . S
C1086 C1090 1.350 . S
C1087 C1090 1.463 . S
C1087 C1092 1.350 . S
C1087 N1095 1.427 . S
C1088 H1079 0.930 . S
C1088 C1086 1.378 . S
C1088 C1089 1.367 . S
C1089 C1088 1.367 . S
C1089 C1091 1.433 . S
C1090 C1086 1.350 . S
C1090 C1087 1.463 . S
C1090 N1094 1.427 . S
C1091 H1081 0.929 . S
C1091 C1089 1.433 . S
C1091 N1094 1.384 . S
C1092 H1083 0.929 . S
C1092 C1084 1.378 . S
C1092 C1087 1.350 . S
C1093 H1080 0.929 . S
C1093 C1085 1.433 . S
C1093 N1095 1.384 . S
N1094 C1090 1.427 . S
N1094 C1091 1.384 . S
N1095 C1087 1.427 . S
N1095 C1093 1.384 . S
H1096 C1102 0.930 . S
H1097 C1106 0.930 . S
H1098 C1111 0.929 . S
H1099 C1109 0.929 . S
H1100 C1104 0.929 . S
H1101 C1110 0.929 . S
C1102 H1096 0.930 . S
C1102 C1103 1.367 . S
C1102 C1110 1.378 . S
C1103 C1102 1.367 . S
C1103 C1111 1.433 . S
C1104 H1100 0.929 . S
C1104 C1106 1.378 . S
C1104 C1108 1.350 . S
C1105 C1108 1.463 . S
C1105 C1110 1.350 . S
C1105 N1113 1.427 . S
C1106 H1097 0.930 . S
C1106 C1104 1.378 . S
C1106 C1107 1.367 . S
C1107 C1106 1.367 . S
C1107 C1109 1.433 . S
C1108 C1104 1.350 . S
C1108 C1105 1.463 . S
C1108 N1112 1.427 . S
C1109 H1099 0.929 . S
C1109 C1107 1.433 . S
C1109 N1112 1.384 . S
C1110 H1101 0.929 . S
C1110 C1102 1.378 . S
C1110 C1105 1.350 . S
C1111 H1098 0.929 . S
C1111 C1103 1.433 . S
C1111 N1113 1.384 . S
N1112 C1108 1.427 . S
N1112 C1109 1.384 . S
N1113 C1105 1.427 . S
N1113 C1111 1.384 . S
H1114 C1120 0.930 . S
H1115 C1124 0.930 . S
H1116 C1129 0.929 . S
H1117 C1127 0.929 . S
H1118 C1122 0.929 . S
H1119 C1128 0.929 . S
C1120 H1114 0.930 . S
C1120 C1121 1.367 . S
C1120 C1128 1.378 . S
C1121 C1120 1.367 . S
C1121 C1129 1.433 . S
C1122 H1118 0.929 . S
C1122 C1124 1.378 . S
C1122 C1126 1.350 . S
C1123 C1126 1.463 . S
C1123 C1128 1.350 . S
C1123 N1131 1.427 . S
C1124 H1115 0.930 . S
C1124 C1122 1.378 . S
C1124 C1125 1.367 . S
C1125 C1124 1.367 . S
C1125 C1127 1.433 . S
C1126 C1122 1.350 . S
C1126 C1123 1.463 . S
C1126 N1130 1.427 . S
C1127 H1117 0.929 . S
C1127 C1125 1.433 . S
C1127 N1130 1.384 . S
C1128 H1119 0.929 . S
C1128 C1120 1.378 . S
C1128 C1123 1.350 . S
C1129 H1116 0.929 . S
C1129 C1121 1.433 . S
C1129 N1131 1.384 . S
N1130 C1126 1.427 . S
N1130 C1127 1.384 . S
N1131 C1123 1.427 . S
N1131 C1129 1.384 . S
H1132 C1138 0.930 . S
H1133 C1142 0.930 . S
H1134 C1147 0.929 . S
H1135 C1145 0.929 . S
H1136 C1140 0.929 . S
H1137 C1146 0.929 . S
C1138 H1132 0.930 . S
C1138 C1139 1.367 . S
C1138 C1146 1.378 . S
C1139 C1138 1.367 . S
C1139 C1147 1.433 . S
C1140 H1136 0.929 . S
C1140 C1142 1.378 . S
C1140 C1144 1.350 . S
C1141 C1144 1.463 . S
C1141 C1146 1.350 . S
C1141 N1149 1.427 . S
C1142 H1133 0.930 . S
C1142 C1140 1.378 . S
C1142 C1143 1.367 . S
C1143 C1142 1.367 . S
C1143 C1145 1.433 . S
C1144 C1140 1.350 . S
C1144 C1141 1.463 . S
C1144 N1148 1.427 . S
C1145 H1135 0.929 . S
C1145 C1143 1.433 . S
C1145 N1148 1.384 . S
C1146 H1137 0.929 . S
C1146 C1138 1.378 . S
C1146 C1141 1.350 . S
C1147 H1134 0.929 . S
C1147 C1139 1.433 . S
C1147 N1149 1.384 . S
N1148 C1144 1.427 . S
N1148 C1145 1.384 . S
N1149 C1141 1.427 . S
N1149 C1147 1.384 . S
H1150 C1156 0.930 . S
H1151 C1160 0.930 . S
H1152 C1165 0.929 . S
H1153 C1163 0.918 1_655 S
H1154 C1158 0.929 . S
H1155 C1164 0.929 . S
C1156 H1150 0.930 . S
C1156 C1157 1.367 . S
C1156 C1164 1.378 . S
C1157 C1156 1.367 . S
C1157 C1165 1.433 . S
C1158 H1154 0.929 . S
C1158 C1160 1.378 1_455 S
C1158 C1162 1.350 . S
C1159 C1162 1.463 . S
C1159 C1164 1.350 . S
C1159 N1167 1.427 . S
C1160 H1151 0.930 . S
C1160 C1158 1.378 1_655 S
C1160 C1161 1.367 . S
C1161 C1160 1.367 . S
C1161 C1163 1.417 1_655 S
C1162 C1158 1.350 . S
C1162 C1159 1.463 . S
C1162 N1166 1.427 . S
C1163 H1153 0.918 1_455 S
C1163 C1161 1.417 1_455 S
C1163 N1166 1.412 . S
C1164 H1155 0.929 . S
C1164 C1156 1.378 . S
C1164 C1159 1.350 . S
C1165 H1152 0.929 . S
C1165 C1157 1.433 . S
C1165 N1167 1.384 . S
N1166 C1162 1.427 . S
N1166 C1163 1.412 . S
N1167 C1159 1.427 . S
N1167 C1165 1.384 . S
H1168 C1174 0.930 . S
H1169 C1178 0.930 . S
H1170 C1183 0.929 . S
H1171 C1181 0.929 . S
H1172 C1176 0.929 . S
H1173 C1182 0.929 . S
C1174 H1168 0.930 . S
C1174 C1175 1.367 . S
C1174 C1182 1.378 . S
C1175 C1174 1.367 . S
C1175 C1183 1.433 . S
C1176 H1172 0.929 . S
C1176 C1178 1.378 . S
C1176 C1180 1.350 . S
C1177 C1180 1.463 . S
C1177 C1182 1.350 . S
C1177 N1185 1.427 . S
C1178 H1169 0.930 . S
C1178 C1176 1.378 . S
C1178 C1179 1.367 . S
C1179 C1178 1.367 . S
C1179 C1181 1.433 . S
C1180 C1176 1.350 . S
C1180 C1177 1.463 . S
C1180 N1184 1.427 . S
C1181 H1171 0.929 . S
C1181 C1179 1.433 . S
C1181 N1184 1.384 . S
C1182 H1173 0.929 . S
C1182 C1174 1.378 . S
C1182 C1177 1.350 . S
C1183 H1170 0.929 . S
C1183 C1175 1.433 . S
C1183 N1185 1.384 . S
N1184 C1180 1.427 . S
N1184 C1181 1.384 . S
N1185 C1177 1.427 . S
N1185 C1183 1.384 . S
H1186 C1192 0.930 . S
H1187 C1196 0.930 . S
H1188 C1201 0.929 . S
H1189 C1199 0.929 . S
H1190 C1194 0.929 . S
H1191 C1200 0.929 . S
C1192 H1186 0.930 . S
C1192 C1193 1.367 . S
C1192 C1200 1.378 1_455 S
C1193 C1192 1.367 . S
C1193 C1201 1.433 . S
C1194 H1190 0.929 . S
C1194 C1196 1.378 . S
C1194 C1198 1.350 . S
C1195 C1198 1.463 . S
C1195 C1200 1.350 . S
C1195 N1203 1.427 . S
C1196 H1187 0.930 . S
C1196 C1194 1.378 . S
C1196 C1197 1.367 . S
C1197 C1196 1.367 . S
C1197 C1199 1.433 . S
C1198 C1194 1.350 . S
C1198 C1195 1.463 . S
C1198 N1202 1.427 . S
C1199 H1189 0.929 . S
C1199 C1197 1.433 . S
C1199 N1202 1.384 . S
C1200 H1191 0.929 . S
C1200 C1192 1.378 1_655 S
C1200 C1195 1.350 . S
C1201 H1188 0.929 . S
C1201 C1193 1.433 . S
C1201 N1203 1.384 1_455 S
N1202 C1198 1.427 . S
N1202 C1199 1.384 . S
N1203 C1195 1.427 . S
N1203 C1201 1.384 1_655 S
H1204 C1210 0.930 . S
H1205 C1214 0.930 . S
H1206 C1219 0.929 . S
H1207 C1217 0.929 . S
H1208 C1212 0.929 . S
H1209 C1218 0.929 . S
C1210 H1204 0.930 . S
C1210 C1211 1.367 . S
C1210 C1218 1.378 . S
C1211 C1210 1.367 . S
C1211 C1219 1.433 . S
C1212 H1208 0.929 . S
C1212 C1214 1.378 . S
C1212 C1216 1.350 . S
C1213 C1216 1.463 . S
C1213 C1218 1.350 . S
C1213 N1221 1.427 . S
C1214 H1205 0.930 . S
C1214 C1212 1.378 . S
C1214 C1215 1.367 . S
C1215 C1214 1.367 . S
C1215 C1217 1.433 . S
C1216 C1212 1.350 . S
C1216 C1213 1.463 . S
C1216 N1220 1.427 . S
C1217 H1207 0.929 . S
C1217 C1215 1.433 . S
C1217 N1220 1.384 . S
C1218 H1209 0.929 . S
C1218 C1210 1.378 . S
C1218 C1213 1.350 . S
C1219 H1206 0.929 . S
C1219 C1211 1.433 . S
C1219 N1221 1.384 . S
N1220 C1216 1.427 . S
N1220 C1217 1.384 . S
N1221 C1213 1.427 . S
N1221 C1219 1.384 . S
H1222 C1228 0.930 . S
H1223 C1232 0.930 . S
H1224 C1237 0.929 . S
H1225 C1235 0.929 . S
H1226 C1230 0.929 . S
H1227 C1236 0.929 . S
C1228 H1222 0.930 . S
C1228 C1229 1.367 . S
C1228 C1236 1.378 . S
C1229 C1228 1.367 . S
C1229 C1237 1.433 . S
C1230 H1226 0.929 . S
C1230 C1232 1.378 . S
C1230 C1234 1.350 . S
C1231 C1234 1.463 . S
C1231 C1236 1.350 . S
C1231 N1239 1.427 . S
C1232 H1223 0.930 . S
C1232 C1230 1.378 . S
C1232 C1233 1.367 . S
C1233 C1232 1.367 . S
C1233 C1235 1.433 . S
C1234 C1230 1.350 . S
C1234 C1231 1.463 . S
C1234 N1238 1.427 . S
C1235 H1225 0.929 . S
C1235 C1233 1.433 . S
C1235 N1238 1.384 . S
C1236 H1227 0.929 . S
C1236 C1228 1.378 . S
C1236 C1231 1.350 . S
C1237 H1224 0.929 . S
C1237 C1229 1.433 . S
C1237 N1239 1.384 . S
N1238 C1234 1.427 . S
N1238 C1235 1.384 . S
N1239 C1231 1.427 . S
N1239 C1237 1.384 . S
H1240 C1246 0.930 . S
H1241 C1250 0.930 . S
H1242 C1255 0.929 . S
H1243 C1253 0.929 . S
H1244 C1248 0.929 . S
H1245 C1254 0.929 . S
C1246 H1240 0.930 . S
C1246 C1247 1.367 . S
C1246 C1254 1.378 . S
C1247 C1246 1.367 . S
C1247 C1255 1.433 . S
C1248 H1244 0.929 . S
C1248 C1250 1.378 . S
C1248 C1252 1.350 . S
C1249 C1252 1.463 . S
C1249 C1254 1.350 . S
C1249 N1257 1.427 . S
C1250 H1241 0.930 . S
C1250 C1248 1.378 . S
C1250 C1251 1.367 . S
C1251 C1250 1.367 . S
C1251 C1253 1.433 . S
C1252 C1248 1.350 . S
C1252 C1249 1.463 . S
C1252 N1256 1.427 . S
C1253 H1243 0.929 . S
C1253 C1251 1.433 . S
C1253 N1256 1.384 . S
C1254 H1245 0.929 . S
C1254 C1246 1.378 . S
C1254 C1249 1.350 . S
C1255 H1242 0.929 . S
C1255 C1247 1.433 . S
C1255 N1257 1.384 . S
N1256 C1252 1.427 . S
N1256 C1253 1.384 . S
N1257 C1249 1.427 . S
N1257 C1255 1.384 . S
H1258 C1264 0.930 . S
H1259 C1268 0.930 . S
H1260 C1273 0.929 . S
H1261 C1271 0.929 . S
H1262 C1266 0.929 . S
H1263 C1272 0.929 . S
C1264 H1258 0.930 . S
C1264 C1265 1.367 . S
C1264 C1272 1.378 . S
C1265 C1264 1.367 . S
C1265 C1273 1.433 . S
C1266 H1262 0.929 . S
C1266 C1268 1.378 . S
C1266 C1270 1.350 . S
C1267 C1270 1.463 . S
C1267 C1272 1.350 . S
C1267 N1275 1.427 . S
C1268 H1259 0.930 . S
C1268 C1266 1.378 . S
C1268 C1269 1.367 . S
C1269 C1268 1.367 . S
C1269 C1271 1.433 . S
C1270 C1266 1.350 . S
C1270 C1267 1.463 . S
C1270 N1274 1.427 . S
C1271 H1261 0.929 . S
C1271 C1269 1.433 . S
C1271 N1274 1.384 . S
C1272 H1263 0.929 . S
C1272 C1264 1.378 . S
C1272 C1267 1.350 . S
C1273 H1260 0.929 . S
C1273 C1265 1.433 . S
C1273 N1275 1.384 . S
N1274 C1270 1.427 . S
N1274 C1271 1.384 . S
N1275 C1267 1.427 . S
N1275 C1273 1.384 . S
H1276 C1282 0.930 . S
H1277 C1286 0.930 . S
H1278 C1291 0.929 . S
H1279 C1289 0.929 . S
H1280 C1284 0.929 . S
H1281 C1290 0.929 . S
C1282 H1276 0.930 . S
C1282 C1283 1.367 . S
C1282 C1290 1.378 . S
C1283 C1282 1.367 . S
C1283 C1291 1.433 . S
C1284 H1280 0.929 . S
C1284 C1286 1.378 . S
C1284 C1288 1.350 . S
C1285 C1288 1.463 . S
C1285 C1290 1.350 . S
C1285 N1293 1.427 . S
C1286 H1277 0.930 . S
C1286 C1284 1.378 . S
C1286 C1287 1.367 . S
C1287 C1286 1.367 . S
C1287 C1289 1.433 . S
C1288 C1284 1.350 . S
C1288 C1285 1.463 . S
C1288 N1292 1.427 . S
C1289 H1279 0.929 . S
C1289 C1287 1.433 . S
C1289 N1292 1.384 . S
C1290 H1281 0.929 . S
C1290 C1282 1.378 . S
C1290 C1285 1.350 . S
C1291 H1278 0.929 . S
C1291 C1283 1.433 . S
C1291 N1293 1.384 . S
N1292 C1288 1.427 . S
N1292 C1289 1.384 . S
N1293 C1285 1.427 . S
N1293 C1291 1.384 . S
H1294 C1300 0.930 . S
H1295 C1304 0.930 . S
H1296 C1309 0.929 . S
H1297 C1307 0.929 . S
H1298 C1302 0.929 . S
H1299 C1308 0.929 . S
C1300 H1294 0.930 . S
C1300 C1301 1.367 1_655 S
C1300 C1308 1.378 . S
C1301 C1300 1.367 1_455 S
C1301 C1309 1.433 . S
C1302 H1298 0.929 . S
C1302 C1304 1.378 . S
C1302 C1306 1.350 . S
C1303 C1306 1.463 . S
C1303 C1308 1.350 . S
C1303 N1311 1.427 . S
C1304 H1295 0.930 . S
C1304 C1302 1.378 . S
C1304 C1305 1.367 . S
C1305 C1304 1.367 . S
C1305 C1307 1.433 . S
C1306 C1302 1.350 . S
C1306 C1303 1.463 . S
C1306 N1310 1.427 . S
C1307 H1297 0.929 . S
C1307 C1305 1.433 . S
C1307 N1310 1.384 . S
C1308 H1299 0.929 . S
C1308 C1300 1.378 . S
C1308 C1303 1.350 . S
C1309 H1296 0.929 . S
C1309 C1301 1.433 . S
C1309 N1311 1.384 1_455 S
N1310 C1306 1.427 . S
N1310 C1307 1.384 . S
N1311 C1303 1.427 . S
N1311 C1309 1.384 1_655 S
H1312 C1318 0.930 . S
H1313 C1322 0.930 . S
H1314 C1327 0.929 . S
H1315 C1325 0.929 . S
H1316 C1320 0.929 . S
H1317 C1326 0.929 . S
C1318 H1312 0.930 . S
C1318 C1319 1.367 . S
C1318 C1326 1.378 . S
C1319 C1318 1.367 . S
C1319 C1327 1.433 . S
C1320 H1316 0.929 . S
C1320 C1322 1.378 . S
C1320 C1324 1.350 . S
C1321 C1324 1.463 . S
C1321 C1326 1.350 . S
C1321 N1329 1.427 . S
C1322 H1313 0.930 . S
C1322 C1320 1.378 . S
C1322 C1323 1.367 . S
C1323 C1322 1.367 . S
C1323 C1325 1.433 . S
C1324 C1320 1.350 . S
C1324 C1321 1.463 . S
C1324 N1328 1.427 . S
C1325 H1315 0.929 . S
C1325 C1323 1.433 . S
C1325 N1328 1.384 . S
C1326 H1317 0.929 . S
C1326 C1318 1.378 . S
C1326 C1321 1.350 . S
C1327 H1314 0.929 . S
C1327 C1319 1.433 . S
C1327 N1329 1.384 . S
N1328 C1324 1.427 . S
N1328 C1325 1.384 . S
N1329 C1321 1.427 . S
N1329 C1327 1.384 . S
H1330 C1336 0.930 . S
H1331 C1340 0.930 . S
H1332 C1345 0.929 . S
H1333 C1343 0.929 . S
H1334 C1338 0.929 . S
H1335 C1344 0.929 . S
C1336 H1330 0.930 . S
C1336 C1337 1.367 . S
C1336 C1344 1.378 . S
C1337 C1336 1.367 . S
C1337 C1345 1.433 . S
C1338 H1334 0.929 . S
C1338 C1340 1.378 . S
C1338 C1342 1.350 . S
C1339 C1342 1.463 . S
C1339 C1344 1.350 . S
C1339 N1347 1.427 . S
C1340 H1331 0.930 . S
C1340 C1338 1.378 . S
C1340 C1341 1.367 . S
C1341 C1340 1.367 . S
C1341 C1343 1.433 . S
C1342 C1338 1.350 . S
C1342 C1339 1.463 . S
C1342 N1346 1.427 . S
C1343 H1333 0.929 . S
C1343 C1341 1.433 . S
C1343 N1346 1.384 . S
C1344 H1335 0.929 . S
C1344 C1336 1.378 . S
C1344 C1339 1.350 . S
C1345 H1332 0.929 . S
C1345 C1337 1.433 . S
C1345 N1347 1.384 . S
N1346 C1342 1.427 . S
N1346 C1343 1.384 . S
N1347 C1339 1.427 . S
N1347 C1345 1.384 . S
H1348 C1354 0.930 . S
H1349 C1358 0.930 . S
H1350 C1363 0.929 . S
H1351 C1361 0.929 . S
H1352 C1356 0.929 . S
H1353 C1362 0.929 . S
C1354 H1348 0.930 . S
C1354 C1355 1.367 . S
C1354 C1362 1.378 . S
C1355 C1354 1.367 . S
C1355 C1363 1.433 . S
C1356 H1352 0.929 . S
C1356 C1358 1.378 . S
C1356 C1360 1.350 . S
C1357 C1360 1.463 . S
C1357 C1362 1.350 . S
C1357 N1365 1.427 . S
C1358 H1349 0.930 . S
C1358 C1356 1.378 . S
C1358 C1359 1.367 . S
C1359 C1358 1.367 . S
C1359 C1361 1.433 . S
C1360 C1356 1.350 . S
C1360 C1357 1.463 . S
C1360 N1364 1.427 . S
C1361 H1351 0.929 . S
C1361 C1359 1.433 . S
C1361 N1364 1.384 . S
C1362 H1353 0.929 . S
C1362 C1354 1.378 . S
C1362 C1357 1.350 . S
C1363 H1350 0.929 . S
C1363 C1355 1.433 . S
C1363 N1365 1.384 . S
N1364 C1360 1.427 . S
N1364 C1361 1.384 . S
N1365 C1357 1.427 . S
N1365 C1363 1.384 . S
H1366 C1372 0.930 . S
H1367 C1376 0.930 . S
H1368 C1381 0.929 . S
H1369 C1379 0.929 . S
H1370 C1374 0.929 . S
H1371 C1380 0.929 . S
C1372 H1366 0.930 . S
C1372 C1373 1.367 . S
C1372 C1380 1.378 . S
C1373 C1372 1.367 . S
C1373 C1381 1.433 . S
C1374 H1370 0.929 . S
C1374 C1376 1.378 . S
C1374 C1378 1.350 . S
C1375 C1378 1.463 . S
C1375 C1380 1.350 . S
C1375 N1383 1.427 . S
C1376 H1367 0.930 . S
C1376 C1374 1.378 . S
C1376 C1377 1.367 1_655 S
C1377 C1376 1.367 1_455 S
C1377 C1379 1.433 . S
C1378 C1374 1.350 . S
C1378 C1375 1.463 . S
C1378 N1382 1.427 . S
C1379 H1369 0.929 . S
C1379 C1377 1.433 . S
C1379 N1382 1.384 1_455 S
C1380 H1371 0.929 . S
C1380 C1372 1.378 . S
C1380 C1375 1.350 . S
C1381 H1368 0.929 . S
C1381 C1373 1.433 . S
C1381 N1383 1.384 . S
N1382 C1378 1.427 . S
N1382 C1379 1.384 1_655 S
N1383 C1375 1.427 . S
N1383 C1381 1.384 . S
H1384 C1390 0.930 . S
H1385 C1394 0.930 . S
H1386 C1399 0.929 . S
H1387 C1397 0.929 . S
H1388 C1392 0.929 . S
H1389 C1398 0.929 . S
C1390 H1384 0.930 . S
C1390 C1391 1.367 . S
C1390 C1398 1.378 . S
C1391 C1390 1.367 . S
C1391 C1399 1.433 . S
C1392 H1388 0.929 . S
C1392 C1394 1.378 . S
C1392 C1396 1.350 . S
C1393 C1396 1.463 . S
C1393 C1398 1.350 . S
C1393 N1401 1.427 . S
C1394 H1385 0.930 . S
C1394 C1392 1.378 . S
C1394 C1395 1.367 . S
C1395 C1394 1.367 . S
C1395 C1397 1.433 . S
C1396 C1392 1.350 . S
C1396 C1393 1.463 . S
C1396 N1400 1.427 . S
C1397 H1387 0.929 . S
C1397 C1395 1.433 . S
C1397 N1400 1.384 . S
C1398 H1389 0.929 . S
C1398 C1390 1.378 . S
C1398 C1393 1.350 . S
C1399 H1386 0.929 . S
C1399 C1391 1.433 . S
C1399 N1401 1.384 . S
N1400 C1396 1.427 . S
N1400 C1397 1.384 . S
N1401 C1393 1.427 . S
N1401 C1399 1.384 . S
H1402 C1408 0.930 . S
H1403 C1412 0.930 . S
H1404 C1417 0.929 . S
H1405 C1415 0.929 . S
H1406 C1410 0.929 . S
H1407 C1416 0.929 . S
C1408 H1402 0.930 . S
C1408 C1409 1.367 . S
C1408 C1416 1.378 1_455 S
C1409 C1408 1.367 . S
C1409 C1417 1.433 1_455 S
C1410 H1406 0.929 . S
C1410 C1412 1.378 . S
C1410 C1414 1.350 . S
C1411 C1414 1.463 . S
C1411 C1416 1.350 . S
C1411 N1419 1.427 . S
C1412 H1403 0.930 . S
C1412 C1410 1.378 . S
C1412 C1413 1.367 . S
C1413 C1412 1.367 . S
C1413 C1415 1.433 . S
C1414 C1410 1.350 . S
C1414 C1411 1.463 . S
C1414 N1418 1.427 . S
C1415 H1405 0.929 . S
C1415 C1413 1.433 . S
C1415 N1418 1.384 . S
C1416 H1407 0.929 . S
C1416 C1408 1.378 1_655 S
C1416 C1411 1.350 . S
C1417 H1404 0.929 . S
C1417 C1409 1.433 1_655 S
C1417 N1419 1.384 . S
N1418 C1414 1.427 . S
N1418 C1415 1.384 . S
N1419 C1411 1.427 . S
N1419 C1417 1.384 . S
H1420 C1426 0.930 . S
H1421 C1430 0.930 . S
H1422 C1435 0.929 . S
H1423 C1433 0.929 . S
H1424 C1428 0.929 . S
H1425 C1434 0.929 . S
C1426 H1420 0.930 . S
C1426 C1427 1.367 . S
C1426 C1434 1.378 . S
C1427 C1426 1.367 . S
C1427 C1435 1.433 . S
C1428 H1424 0.929 . S
C1428 C1430 1.378 . S
C1428 C1432 1.350 . S
C1429 C1432 1.463 . S
C1429 C1434 1.350 . S
C1429 N1437 1.427 . S
C1430 H1421 0.930 . S
C1430 C1428 1.378 . S
C1430 C1431 1.367 . S
C1431 C1430 1.367 . S
C1431 C1433 1.433 . S
C1432 C1428 1.350 . S
C1432 C1429 1.463 . S
C1432 N1436 1.427 . S
C1433 H1423 0.929 . S
C1433 C1431 1.433 . S
C1433 N1436 1.384 . S
C1434 H1425 0.929 . S
C1434 C1426 1.378 . S
C1434 C1429 1.350 . S
C1435 H1422 0.929 . S
C1435 C1427 1.433 . S
C1435 N1437 1.384 . S
N1436 C1432 1.427 . S
N1436 C1433 1.384 . S
N1437 C1429 1.427 . S
N1437 C1435 1.384 . S
H1438 C1444 0.930 . S
H1439 C1448 0.930 . S
H1440 C1453 0.929 . S
H1441 C1451 0.929 . S
H1442 C1446 0.929 . S
H1443 C1452 0.929 . S
C1444 H1438 0.930 . S
C1444 C1445 1.367 . S
C1444 C1452 1.378 . S
C1445 C1444 1.367 . S
C1445 C1453 1.433 . S
C1446 H1442 0.929 . S
C1446 C1448 1.378 . S
C1446 C1450 1.350 . S
C1447 C1450 1.463 . S
C1447 C1452 1.350 . S
C1447 N1455 1.427 . S
C1448 H1439 0.930 . S
C1448 C1446 1.378 . S
C1448 C1449 1.367 . S
C1449 C1448 1.367 . S
C1449 C1451 1.433 . S
C1450 C1446 1.350 . S
C1450 C1447 1.463 . S
C1450 N1454 1.427 . S
C1451 H1441 0.929 . S
C1451 C1449 1.433 . S
C1451 N1454 1.384 . S
C1452 H1443 0.929 . S
C1452 C1444 1.378 . S
C1452 C1447 1.350 . S
C1453 H1440 0.929 . S
C1453 C1445 1.433 . S
C1453 N1455 1.384 . S
N1454 C1450 1.427 . S
N1454 C1451 1.384 . S
N1455 C1447 1.427 . S
N1455 C1453 1.384 . S
H1456 C1462 0.930 . S
H1457 C1466 0.930 . S
H1458 C1471 0.929 . S
H1459 C1469 0.929 . S
H1460 C1464 0.929 . S
H1461 C1470 0.929 . S
C1462 H1456 0.930 . S
C1462 C1463 1.367 . S
C1462 C1470 1.378 . S
C1463 C1462 1.367 . S
C1463 C1471 1.433 . S
C1464 H1460 0.929 . S
C1464 C1466 1.378 . S
C1464 C1468 1.350 . S
C1465 C1468 1.463 . S
C1465 C1470 1.350 . S
C1465 N1473 1.427 . S
C1466 H1457 0.930 . S
C1466 C1464 1.378 . S
C1466 C1467 1.367 . S
C1467 C1466 1.367 . S
C1467 C1469 1.433 . S
C1468 C1464 1.350 . S
C1468 C1465 1.463 . S
C1468 N1472 1.427 . S
C1469 H1459 0.929 . S
C1469 C1467 1.433 . S
C1469 N1472 1.384 . S
C1470 H1461 0.929 . S
C1470 C1462 1.378 . S
C1470 C1465 1.350 . S
C1471 H1458 0.929 . S
C1471 C1463 1.433 . S
C1471 N1473 1.384 . S
N1472 C1468 1.427 . S
N1472 C1469 1.384 . S
N1473 C1465 1.427 . S
N1473 C1471 1.384 . S
H1474 C1480 0.930 . S
H1475 C1484 0.930 . S
H1476 C1489 0.929 . S
H1477 C1487 0.929 . S
H1478 C1482 0.929 . S
H1479 C1488 0.929 . S
C1480 H1474 0.930 . S
C1480 C1481 1.367 . S
C1480 C1488 1.378 . S
C1481 C1480 1.367 . S
C1481 C1489 1.433 . S
C1482 H1478 0.929 . S
C1482 C1484 1.378 . S
C1482 C1486 1.350 . S
C1483 C1486 1.463 . S
C1483 C1488 1.350 . S
C1483 N1491 1.427 . S
C1484 H1475 0.930 . S
C1484 C1482 1.378 . S
C1484 C1485 1.367 . S
C1485 C1484 1.367 . S
C1485 C1487 1.433 . S
C1486 C1482 1.350 . S
C1486 C1483 1.463 . S
C1486 N1490 1.427 . S
C1487 H1477 0.929 . S
C1487 C1485 1.433 . S
C1487 N1490 1.384 . S
C1488 H1479 0.929 . S
C1488 C1480 1.378 . S
C1488 C1483 1.350 . S
C1489 H1476 0.929 . S
C1489 C1481 1.433 . S
C1489 N1491 1.384 . S
N1490 C1486 1.427 . S
N1490 C1487 1.384 . S
N1491 C1483 1.427 . S
N1491 C1489 1.384 . S
H1492 C1498 0.930 . S
H1493 C1502 0.930 . S
H1494 C1507 0.929 . S
H1495 C1505 0.929 . S
H1496 C1500 0.929 . S
H1497 C1506 0.929 . S
C1498 H1492 0.930 . S
C1498 C1499 1.367 . S
C1498 C1506 1.378 . S
C1499 C1498 1.367 . S
C1499 C1507 1.433 . S
C1500 H1496 0.929 . S
C1500 C1502 1.378 . S
C1500 C1504 1.350 . S
C1501 C1504 1.463 . S
C1501 C1506 1.350 . S
C1501 N1509 1.427 . S
C1502 H1493 0.930 . S
C1502 C1500 1.378 . S
C1502 C1503 1.367 . S
C1503 C1502 1.367 . S
C1503 C1505 1.433 . S
C1504 C1500 1.350 . S
C1504 C1501 1.463 . S
C1504 N1508 1.427 . S
C1505 H1495 0.929 . S
C1505 C1503 1.433 . S
C1505 N1508 1.384 . S
C1506 H1497 0.929 . S
C1506 C1498 1.378 . S
C1506 C1501 1.350 . S
C1507 H1494 0.929 . S
C1507 C1499 1.433 . S
C1507 N1509 1.384 . S
N1508 C1504 1.427 . S
N1508 C1505 1.384 . S
N1509 C1501 1.427 . S
N1509 C1507 1.384 . S
H1510 C1516 0.930 . S
H1511 C1520 0.930 . S
H1512 C1525 0.929 . S
H1513 C1523 0.929 . S
H1514 C1518 0.929 . S
H1515 C1524 0.929 . S
C1516 H1510 0.930 . S
C1516 C1517 1.367 . S
C1516 C1524 1.378 1_655 S
C1517 C1516 1.367 . S
C1517 C1525 1.433 1_655 S
C1518 H1514 0.929 . S
C1518 C1520 1.378 . S
C1518 C1522 1.350 . S
C1519 C1522 1.463 . S
C1519 C1524 1.350 . S
C1519 N1527 1.427 . S
C1520 H1511 0.930 . S
C1520 C1518 1.378 . S
C1520 C1521 1.367 . S
C1521 C1520 1.367 . S
C1521 C1523 1.433 . S
C1522 C1518 1.350 . S
C1522 C1519 1.463 . S
C1522 N1526 1.427 . S
C1523 H1513 0.929 . S
C1523 C1521 1.433 . S
C1523 N1526 1.384 . S
C1524 H1515 0.929 . S
C1524 C1516 1.378 1_455 S
C1524 C1519 1.350 . S
C1525 H1512 0.929 . S
C1525 C1517 1.433 1_455 S
C1525 N1527 1.384 . S
N1526 C1522 1.427 . S
N1526 C1523 1.384 . S
N1527 C1519 1.427 . S
N1527 C1525 1.384 . S
H1528 C1534 0.930 . S
H1529 C1538 0.930 . S
H1530 C1543 0.929 . S
H1531 C1541 0.929 . S
H1532 C1536 0.929 . S
H1533 C1542 0.929 . S
C1534 H1528 0.930 . S
C1534 C1535 1.367 . S
C1534 C1542 1.378 . S
C1535 C1534 1.367 . S
C1535 C1543 1.433 . S
C1536 H1532 0.929 . S
C1536 C1538 1.378 . S
C1536 C1540 1.350 . S
C1537 C1540 1.463 . S
C1537 C1542 1.350 . S
C1537 N1545 1.427 . S
C1538 H1529 0.930 . S
C1538 C1536 1.378 . S
C1538 C1539 1.367 . S
C1539 C1538 1.367 . S
C1539 C1541 1.433 . S
C1540 C1536 1.350 . S
C1540 C1537 1.463 . S
C1540 N1544 1.427 . S
C1541 H1531 0.929 . S
C1541 C1539 1.433 . S
C1541 N1544 1.384 . S
C1542 H1533 0.929 . S
C1542 C1534 1.378 . S
C1542 C1537 1.350 . S
C1543 H1530 0.929 . S
C1543 C1535 1.433 . S
C1543 N1545 1.384 . S
N1544 C1540 1.427 . S
N1544 C1541 1.384 . S
N1545 C1537 1.427 . S
N1545 C1543 1.384 . S
H1546 C1552 0.930 . S
H1547 C1556 0.930 . S
H1548 C1561 0.929 . S
H1549 C1559 0.929 . S
H1550 C1554 0.929 . S
H1551 C1560 0.929 . S
C1552 H1546 0.930 . S
C1552 C1553 1.367 . S
C1552 C1560 1.378 . S
C1553 C1552 1.367 . S
C1553 C1561 1.433 . S
C1554 H1550 0.929 . S
C1554 C1556 1.378 1_455 S
C1554 C1558 1.350 . S
C1555 C1558 1.463 . S
C1555 C1560 1.350 . S
C1555 N1563 1.427 . S
C1556 H1547 0.930 . S
C1556 C1554 1.378 1_655 S
C1556 C1557 1.367 . S
C1557 C1556 1.367 . S
C1557 C1559 1.433 1_655 S
C1558 C1554 1.350 . S
C1558 C1555 1.463 . S
C1558 N1562 1.427 . S
C1559 H1549 0.929 . S
C1559 C1557 1.433 1_455 S
C1559 N1562 1.384 . S
C1560 H1551 0.929 . S
C1560 C1552 1.378 . S
C1560 C1555 1.350 . S
C1561 H1548 0.929 . S
C1561 C1553 1.433 . S
C1561 N1563 1.384 . S
N1562 C1558 1.427 . S
N1562 C1559 1.384 . S
N1563 C1555 1.427 . S
N1563 C1561 1.384 . S
H1564 C1570 0.930 . S
H1565 C1574 0.930 . S
H1566 C1579 0.929 . S
H1567 C1577 0.929 . S
H1568 C1572 0.929 . S
H1569 C1578 0.929 . S
C1570 H1564 0.930 . S
C1570 C1571 1.367 . S
C1570 C1578 1.378 . S
C1571 C1570 1.367 . S
C1571 C1579 1.433 . S
C1572 H1568 0.929 . S
C1572 C1574 1.378 . S
C1572 C1576 1.350 . S
C1573 C1576 1.463 . S
C1573 C1578 1.350 . S
C1573 N1581 1.427 . S
C1574 H1565 0.930 . S
C1574 C1572 1.378 . S
C1574 C1575 1.367 . S
C1575 C1574 1.367 . S
C1575 C1577 1.433 . S
C1576 C1572 1.350 . S
C1576 C1573 1.463 . S
C1576 N1580 1.427 . S
C1577 H1567 0.929 . S
C1577 C1575 1.433 . S
C1577 N1580 1.384 . S
C1578 H1569 0.929 . S
C1578 C1570 1.378 . S
C1578 C1573 1.350 . S
C1579 H1566 0.929 . S
C1579 C1571 1.433 . S
C1579 N1581 1.384 . S
N1580 C1576 1.427 . S
N1580 C1577 1.384 . S
N1581 C1573 1.427 . S
N1581 C1579 1.384 . S
H1582 C1588 0.930 . S
H1583 C1592 0.930 . S
H1584 C1597 0.929 . S
H1585 C1595 0.929 . S
H1586 C1590 0.929 . S
H1587 C1596 0.929 . S
C1588 H1582 0.930 . S
C1588 C1589 1.367 . S
C1588 C1596 1.378 . S
C1589 C1588 1.367 . S
C1589 C1597 1.433 . S
C1590 H1586 0.929 . S
C1590 C1592 1.378 . S
C1590 C1594 1.350 . S
C1591 C1594 1.463 . S
C1591 C1596 1.350 . S
C1591 N1599 1.427 . S
C1592 H1583 0.930 . S
C1592 C1590 1.378 . S
C1592 C1593 1.367 . S
C1593 C1592 1.367 . S
C1593 C1595 1.433 . S
C1594 C1590 1.350 . S
C1594 C1591 1.463 . S
C1594 N1598 1.427 . S
C1595 H1585 0.929 . S
C1595 C1593 1.433 . S
C1595 N1598 1.384 . S
C1596 H1587 0.929 . S
C1596 C1588 1.378 . S
C1596 C1591 1.350 . S
C1597 H1584 0.929 . S
C1597 C1589 1.433 . S
C1597 N1599 1.384 . S
N1598 C1594 1.427 . S
N1598 C1595 1.384 . S
N1599 C1591 1.427 . S
N1599 C1597 1.384 . S
C455 C64 1.512 . S
C459 C8 1.512 . S
C473 C78 1.512 . S
C477 C22 1.512 . S
C491 C92 1.514 . S
C495 C36 1.512 . S
C509 C50 1.512 . S
C513 C106 1.512 . S
C527 C120 1.512 . S
C531 C176 1.512 . S
C545 C190 1.512 . S
C549 C134 1.513 . S
C563 C148 1.513 . S
C567 C204 1.512 . S
C581 C218 1.512 . S
C585 C162 1.512 . S
C599 C232 1.517 . S
C603 C288 1.516 . S
C617 C302 1.515 . S
C621 C246 1.516 . S
C635 C316 1.516 . S
C639 C260 1.514 . S
C653 C330 1.512 . S
C657 C274 1.514 . S
C671 C344 1.515 . S
C675 C400 1.516 . S
C689 C358 1.512 . S
C693 C414 1.512 . S
C707 C372 1.517 . S
C711 C428 1.516 . S
C725 C386 1.512 . S
C729 C442 1.514 . S
C743 C7 1.268 . S
C747 C105 1.262 . S
C761 C21 1.262 . S
C765 C63 1.269 . S
C779 C35 1.280 . S
C783 C77 1.268 . S
C797 C91 1.278 . S
C801 C49 1.270 . S
C815 C217 1.262 . S
C819 C119 1.268 . S
C833 C175 1.275 . S
C837 C133 1.264 . S
C851 C189 1.272 . S
C855 C147 1.269 . S
C869 C161 1.262 . S
C873 C203 1.269 . S
C887 C329 1.263 . S
C891 C231 1.262 . S
C905 C287 1.271 . S
C909 C245 1.271 . S
C923 C301 1.267 . S
C927 C259 1.268 . S
C941 C273 1.262 . S
C945 C315 1.262 . S
C959 C343 1.270 . S
C963 C441 1.269 . S
C977 C357 1.263 . S
C981 C399 1.262 . S
C995 C371 1.267 . S
C999 C413 1.269 . S
C1013 C427 1.263 . S
C1017 C385 1.262 . S
C1031 C9 1.452 . S
C1035 C353 1.456 . S
C1049 C23 1.455 . S
C1053 C143 1.458 . S
C1067 C37 1.451 . S
C1071 C381 1.456 . S
C1085 C115 1.460 . S
C1089 C51 1.450 . S
C1103 C437 1.454 . S
C1107 C65 1.456 . S
C1121 C79 1.450 . S
C1125 C171 1.457 . S
C1139 C93 1.453 . S
C1143 C409 1.455 . S
C1157 C107 1.457 . S
C1161 C199 1.454 . S
C1175 C241 1.456 . S
C1179 C121 1.451 . S
C1193 C31 1.460 . S
C1197 C135 1.449 . S
C1211 C269 1.456 . S
C1215 C149 1.456 . S
C1229 C163 1.449 . S
C1233 C3 1.459 . S
C1247 C325 1.455 . S
C1251 C177 1.453 . S
C1265 C59 1.454 . S
C1269 C191 1.455 . S
C1283 C297 1.455 . S
C1287 C205 1.454 . S
C1301 C87 1.460 . S
C1305 C219 1.453 . S
C1319 C129 1.458 . S
C1323 C233 1.455 . S
C1337 C247 1.454 . S
C1341 C367 1.459 . S
C1355 C261 1.450 . S
C1359 C157 1.460 . S
C1373 C275 1.454 . S
C1377 C339 1.458 . S
C1391 C289 1.450 . S
C1395 C213 1.457 . S
C1409 C395 1.457 . S
C1413 C303 1.450 . S
C1427 C317 1.455 . S
C1431 C185 1.458 . S
C1445 C331 1.450 . S
C1449 C423 1.458 . S
C1463 C345 1.455 . S
C1467 C17 1.458 . S
C1481 C359 1.454 . S
C1485 C255 1.455 . S
C1499 C45 1.459 . S
C1503 C373 1.454 . S
C1517 C227 1.455 . S
C1521 C387 1.454 . S
C1535 C401 1.457 . S
C1539 C101 1.454 . S
C1553 C415 1.453 . S
C1557 C283 1.455 . S
C1571 C73 1.458 . S
C1575 C429 1.454 . S
C1589 C311 1.454 . S
C1593 C443 1.455 . S
