# Generated by pormake.
# Topology vbv, (6)-cn, num edge types: 1
# Building blocks:
#     Node 0, Type 0, BuildingBlock: IZENUY_clean_sbu_0, # of connection points: 6
#     Node 1, Type 0, BuildingBlock: IZENUY_clean_sbu_0, # of connection points: 6
#     Node 2, Type 0, BuildingBlock: IZENUY_clean_sbu_0, # of connection points: 6
#     Node 3, Type 0, BuildingBlock: IZENUY_clean_sbu_0, # of connection points: 6
#     Node 4, Type 0, BuildingBlock: IZENUY_clean_sbu_0, # of connection points: 6
#     Node 5, Type 0, BuildingBlock: IZENUY_clean_sbu_0, # of connection points: 6
#     Node 6, Type 0, BuildingBlock: IZENUY_clean_sbu_0, # of connection points: 6
#     Node 7, Type 0, BuildingBlock: IZENUY_clean_sbu_0, # of connection points: 6
#     Node 8, Type 0, BuildingBlock: IZENUY_clean_sbu_0, # of connection points: 6
#     Node 9, Type 0, BuildingBlock: IZENUY_clean_sbu_0, # of connection points: 6
#     Node 10, Type 0, BuildingBlock: IZENUY_clean_sbu_0, # of connection points: 6
#     Node 11, Type 0, BuildingBlock: IZENUY_clean_sbu_0, # of connection points: 6
#     Node 12, Type 0, BuildingBlock: IZENUY_clean_sbu_0, # of connection points: 6
#     Node 13, Type 0, BuildingBlock: IZENUY_clean_sbu_0, # of connection points: 6
#     Node 14, Type 0, BuildingBlock: IZENUY_clean_sbu_0, # of connection points: 6
#     Node 15, Type 0, BuildingBlock: IZENUY_clean_sbu_0, # of connection points: 6
#     Edge 16, Type (0, 0), BuildingBlock: OJICUG_clean_linker_0, # of connection points: 2
#     Edge 17, Type (0, 0), BuildingBlock: OJICUG_clean_linker_0, # of connection points: 2
#     Edge 18, Type (0, 0), BuildingBlock: OJICUG_clean_linker_0, # of connection points: 2
#     Edge 19, Type (0, 0), BuildingBlock: OJICUG_clean_linker_0, # of connection points: 2
#     Edge 20, Type (0, 0), BuildingBlock: OJICUG_clean_linker_0, # of connection points: 2
#     Edge 21, Type (0, 0), BuildingBlock: OJICUG_clean_linker_0, # of connection points: 2
#     Edge 22, Type (0, 0), BuildingBlock: OJICUG_clean_linker_0, # of connection points: 2
#     Edge 23, Type (0, 0), BuildingBlock: OJICUG_clean_linker_0, # of connection points: 2
#     Edge 24, Type (0, 0), BuildingBlock: OJICUG_clean_linker_0, # of connection points: 2
#     Edge 25, Type (0, 0), BuildingBlock: OJICUG_clean_linker_0, # of connection points: 2
#     Edge 26, Type (0, 0), BuildingBlock: OJICUG_clean_linker_0, # of connection points: 2
#     Edge 27, Type (0, 0), BuildingBlock: OJICUG_clean_linker_0, # of connection points: 2
#     Edge 28, Type (0, 0), BuildingBlock: OJICUG_clean_linker_0, # of connection points: 2
#     Edge 29, Type (0, 0), BuildingBlock: OJICUG_clean_linker_0, # of connection points: 2
#     Edge 30, Type (0, 0), BuildingBlock: OJICUG_clean_linker_0, # of connection points: 2
#     Edge 31, Type (0, 0), BuildingBlock: OJICUG_clean_linker_0, # of connection points: 2
#     Edge 32, Type (0, 0), BuildingBlock: OJICUG_clean_linker_0, # of connection points: 2
#     Edge 33, Type (0, 0), BuildingBlock: OJICUG_clean_linker_0, # of connection points: 2
#     Edge 34, Type (0, 0), BuildingBlock: OJICUG_clean_linker_0, # of connection points: 2
#     Edge 35, Type (0, 0), BuildingBlock: OJICUG_clean_linker_0, # of connection points: 2
#     Edge 36, Type (0, 0), BuildingBlock: OJICUG_clean_linker_0, # of connection points: 2
#     Edge 37, Type (0, 0), BuildingBlock: OJICUG_clean_linker_0, # of connection points: 2
#     Edge 38, Type (0, 0), BuildingBlock: OJICUG_clean_linker_0, # of connection points: 2
#     Edge 39, Type (0, 0), BuildingBlock: OJICUG_clean_linker_0, # of connection points: 2
#     Edge 40, Type (0, 0), BuildingBlock: OJICUG_clean_linker_0, # of connection points: 2
#     Edge 41, Type (0, 0), BuildingBlock: OJICUG_clean_linker_0, # of connection points: 2
#     Edge 42, Type (0, 0), BuildingBlock: OJICUG_clean_linker_0, # of connection points: 2
#     Edge 43, Type (0, 0), BuildingBlock: OJICUG_clean_linker_0, # of connection points: 2
#     Edge 44, Type (0, 0), BuildingBlock: OJICUG_clean_linker_0, # of connection points: 2
#     Edge 45, Type (0, 0), BuildingBlock: OJICUG_clean_linker_0, # of connection points: 2
#     Edge 46, Type (0, 0), BuildingBlock: OJICUG_clean_linker_0, # of connection points: 2
#     Edge 47, Type (0, 0), BuildingBlock: OJICUG_clean_linker_0, # of connection points: 2
#     Edge 48, Type (0, 0), BuildingBlock: OJICUG_clean_linker_0, # of connection points: 2
#     Edge 49, Type (0, 0), BuildingBlock: OJICUG_clean_linker_0, # of connection points: 2
#     Edge 50, Type (0, 0), BuildingBlock: OJICUG_clean_linker_0, # of connection points: 2
#     Edge 51, Type (0, 0), BuildingBlock: OJICUG_clean_linker_0, # of connection points: 2
#     Edge 52, Type (0, 0), BuildingBlock: OJICUG_clean_linker_0, # of connection points: 2
#     Edge 53, Type (0, 0), BuildingBlock: OJICUG_clean_linker_0, # of connection points: 2
#     Edge 54, Type (0, 0), BuildingBlock: OJICUG_clean_linker_0, # of connection points: 2
#     Edge 55, Type (0, 0), BuildingBlock: OJICUG_clean_linker_0, # of connection points: 2
#     Edge 56, Type (0, 0), BuildingBlock: OJICUG_clean_linker_0, # of connection points: 2
#     Edge 57, Type (0, 0), BuildingBlock: OJICUG_clean_linker_0, # of connection points: 2
#     Edge 58, Type (0, 0), BuildingBlock: OJICUG_clean_linker_0, # of connection points: 2
#     Edge 59, Type (0, 0), BuildingBlock: OJICUG_clean_linker_0, # of connection points: 2
#     Edge 60, Type (0, 0), BuildingBlock: OJICUG_clean_linker_0, # of connection points: 2
#     Edge 61, Type (0, 0), BuildingBlock: OJICUG_clean_linker_0, # of connection points: 2
#     Edge 62, Type (0, 0), BuildingBlock: OJICUG_clean_linker_0, # of connection points: 2
#     Edge 63, Type (0, 0), BuildingBlock: OJICUG_clean_linker_0, # of connection points: 2
# Relax obj value: 0.262
# Max RMSD: 0.241
# Mean RMSD: 0.241
data_MOF--net-vbv--node1-IZENUY_clean_sbu_0--edge1-OJICUG_clean_linker_0
_symmetry_space_group_name_H-M    P1
_symmetry_Int_Tables_number       1
_symmetry_cell_setting            triclinic
loop_
_symmetry_equiv_pos_as_xyz
'x, y, z'
_cell_length_a     38.640986
_cell_length_b     19.606206
_cell_length_c     34.526677
_cell_angle_alpha  90.011406
_cell_angle_beta   89.887018
_cell_angle_gamma 90.175812
loop_
_atom_site_label
_atom_site_type_symbol
_atom_site_fract_x
_atom_site_fract_y
_atom_site_fract_z
_atom_type_partial_charge
Fe0 Fe 0.14043 0.43425 0.13186 0.0
Fe1 Fe 0.19045 0.31467 0.1253 0.0
O2 O 0.15844 0.36666 0.10487 0.0
Fe3 Fe 0.14391 0.35049 0.05746 0.0
O4 O 0.15808 0.43305 0.04169 0.0
O5 O 0.13175 0.4887 0.08837 0.0
O6 O 0.18277 0.47676 0.13494 0.0
C7 C 0.21013 0.44827 0.14719 0.0
C8 C 0.08393 0.37093 0.09924 0.0
O9 O 0.20983 0.38451 0.15456 0.0
C10 C 0.15015 0.22064 0.07947 0.0
O11 O 0.14635 0.39179 0.17955 0.0
O12 O 0.16162 0.28772 0.16351 0.0
O13 O 0.0997 0.37958 0.06743 0.0
O14 O 0.09795 0.39204 0.13013 0.0
C15 C 0.21588 0.32847 0.05347 0.0
O16 O 0.1777 0.23602 0.09787 0.0
O17 O 0.12922 0.26677 0.07076 0.0
C18 C 0.14871 0.32855 0.18765 0.0
O19 O 0.22043 0.33986 0.08874 0.0
O20 O 0.18582 0.31852 0.03997 0.0
C21 C 0.14685 0.48793 0.05539 0.0
Fe22 Fe 0.40717 0.70217 0.05957 0.0
Fe23 Fe 0.40999 0.61935 0.13424 0.0
O24 O 0.39215 0.68656 0.1069 0.0
Fe25 Fe 0.35989 0.73875 0.1269 0.0
O26 O 0.33024 0.71351 0.09006 0.0
O27 O 0.36545 0.73414 0.04159 0.0
O28 O 0.39308 0.61951 0.04398 0.0
C29 C 0.40415 0.5648 0.05799 0.0
C30 C 0.40084 0.83207 0.08134 0.0
O31 O 0.41904 0.56445 0.09102 0.0
C32 C 0.40119 0.72559 0.18962 0.0
O33 O 0.45128 0.6731 0.06989 0.0
O34 O 0.45251 0.66159 0.13264 0.0
O35 O 0.37304 0.81699 0.09946 0.0
O36 O 0.4218 0.78584 0.07284 0.0
C37 C 0.34006 0.60532 0.14883 0.0
O38 O 0.40367 0.6623 0.18171 0.0
O39 O 0.38825 0.76608 0.16537 0.0
C40 C 0.46685 0.68205 0.10172 0.0
O41 O 0.36764 0.57679 0.13712 0.0
O42 O 0.3402 0.66912 0.15609 0.0
C43 C 0.3352 0.72459 0.05479 0.0
Fe44 Fe 0.63995 0.6165 0.40241 0.0
Fe45 Fe 0.69053 0.73577 0.40919 0.0
O46 O 0.65827 0.68369 0.42955 0.0
Fe47 Fe 0.64374 0.69946 0.47705 0.0
O48 O 0.65766 0.61682 0.49254 0.0
O49 O 0.63119 0.56158 0.44578 0.0
O50 O 0.68215 0.57384 0.39897 0.0
C51 C 0.7097 0.60233 0.38687 0.0
C52 C 0.58354 0.67929 0.43566 0.0
O53 O 0.70968 0.66615 0.37969 0.0
C54 C 0.65041 0.82929 0.45532 0.0
O55 O 0.64595 0.65948 0.35482 0.0
O56 O 0.6619 0.7632 0.37109 0.0
O57 O 0.5994 0.67047 0.46731 0.0
O58 O 0.59755 0.6588 0.40458 0.0
C59 C 0.71587 0.72201 0.48095 0.0
O60 O 0.67797 0.81409 0.43686 0.0
O61 O 0.62929 0.78313 0.46387 0.0
C62 C 0.64868 0.72279 0.3469 0.0
O63 O 0.72042 0.71031 0.44568 0.0
O64 O 0.68576 0.73144 0.49451 0.0
C65 C 0.64636 0.56203 0.47866 0.0
Fe66 Fe 0.90725 0.35172 0.47517 0.0
Fe67 Fe 0.90954 0.43399 0.40017 0.0
O68 O 0.89208 0.36647 0.42787 0.0
Fe69 Fe 0.85993 0.31338 0.40835 0.0
O70 O 0.83041 0.33862 0.44529 0.0
O71 O 0.86573 0.31905 0.49358 0.0
O72 O 0.89288 0.43414 0.49049 0.0
C73 C 0.90364 0.48903 0.47624 0.0
C74 C 0.90112 0.22127 0.45434 0.0
O75 O 0.91851 0.48955 0.44314 0.0
C76 C 0.90109 0.32689 0.34532 0.0
O77 O 0.95116 0.3819 0.46428 0.0
O78 O 0.95218 0.39297 0.40149 0.0
O79 O 0.87336 0.23562 0.43609 0.0
O80 O 0.92209 0.26802 0.46232 0.0
C81 C 0.83956 0.44616 0.386 0.0
O82 O 0.90324 0.39037 0.35292 0.0
O83 O 0.88828 0.2863 0.36976 0.0
C84 C 0.9666 0.37293 0.43232 0.0
O85 O 0.86706 0.4754 0.3975 0.0
O86 O 0.83988 0.38223 0.37903 0.0
C87 C 0.83548 0.32813 0.48055 0.0
Fe88 Fe 0.90798 0.70099 0.97556 0.0
Fe89 Fe 0.86085 0.73715 0.90828 0.0
O90 O 0.89311 0.68517 0.92825 0.0
Fe91 Fe 0.91109 0.61799 0.90089 0.0
O92 O 0.92007 0.5632 0.94413 0.0
O93 O 0.89396 0.6183 0.99118 0.0
O94 O 0.86615 0.73276 0.99357 0.0
C95 C 0.83596 0.72306 0.98036 0.0
C96 C 0.96774 0.68131 0.93327 0.0
O97 O 0.83116 0.71162 0.94512 0.0
C98 C 0.90239 0.72415 0.84557 0.0
O99 O 0.92252 0.78475 0.96228 0.0
O100 O 0.87377 0.81556 0.9358 0.0
O101 O 0.95355 0.6605 0.90241 0.0
O102 O 0.95215 0.67213 0.96515 0.0
C103 C 0.84122 0.60357 0.88626 0.0
O104 O 0.88933 0.76459 0.86984 0.0
O105 O 0.90483 0.66084 0.85341 0.0
C106 C 0.90147 0.83085 0.95396 0.0
O107 O 0.84133 0.6674 0.87906 0.0
O108 O 0.86879 0.57519 0.89804 0.0
C109 C 0.90507 0.56359 0.97716 0.0
Fe110 Fe 0.64465 0.34952 0.97678 0.0
Fe111 Fe 0.69151 0.31257 0.90921 0.0
O112 O 0.6594 0.36488 0.92931 0.0
Fe113 Fe 0.64153 0.43208 0.90197 0.0
O114 O 0.63278 0.48722 0.94517 0.0
O115 O 0.65892 0.43217 0.99209 0.0
O116 O 0.68642 0.31756 0.99449 0.0
C117 C 0.71656 0.32725 0.98104 0.0
C118 C 0.58485 0.3697 0.93495 0.0
O119 O 0.7213 0.33828 0.94575 0.0
C120 C 0.64989 0.32543 0.84678 0.0
O121 O 0.6299 0.26569 0.96388 0.0
O122 O 0.67851 0.23441 0.937 0.0
O123 O 0.59901 0.39006 0.90393 0.0
O124 O 0.60054 0.37876 0.96669 0.0
C125 C 0.71137 0.44585 0.88678 0.0
O126 O 0.66291 0.28505 0.87103 0.0
O127 O 0.64756 0.38882 0.85452 0.0
C128 C 0.65086 0.21939 0.95547 0.0
O129 O 0.71112 0.38197 0.87969 0.0
O130 O 0.6839 0.47448 0.89872 0.0
C131 C 0.64787 0.48687 0.97808 0.0
Fe132 Fe 0.41243 0.42751 0.6334 0.0
Fe133 Fe 0.40794 0.34174 0.55988 0.0
O134 O 0.39363 0.35966 0.60722 0.0
Fe135 Fe 0.36111 0.30906 0.62833 0.0
O136 O 0.34223 0.38025 0.65708 0.0
O137 O 0.37064 0.47092 0.63675 0.0
O138 O 0.42116 0.48066 0.58934 0.0
C139 C 0.40583 0.47914 0.55657 0.0
C140 C 0.40361 0.32345 0.68998 0.0
O141 O 0.39434 0.424 0.54337 0.0
C142 C 0.40062 0.21265 0.58327 0.0
O143 O 0.45453 0.38467 0.63152 0.0
O144 O 0.45237 0.37044 0.56899 0.0
O145 O 0.3897 0.28254 0.66657 0.0
O146 O 0.40653 0.38641 0.68143 0.0
C147 C 0.33588 0.32103 0.55652 0.0
O148 O 0.42196 0.25813 0.57402 0.0
O149 O 0.37318 0.22921 0.60162 0.0
C150 C 0.46831 0.3629 0.60066 0.0
O151 O 0.36584 0.31002 0.54306 0.0
O152 O 0.33135 0.33375 0.59167 0.0
C153 C 0.34301 0.44403 0.6497 0.0
Fe154 Fe 0.14591 0.62391 0.63224 0.0
Fe155 Fe 0.15225 0.69476 0.5534 0.0
O156 O 0.16504 0.68773 0.60293 0.0
Fe157 Fe 0.19725 0.74467 0.61996 0.0
O158 O 0.22414 0.67666 0.63925 0.0
O159 O 0.18799 0.59068 0.64993 0.0
O160 O 0.15111 0.55702 0.59518 0.0
C161 C 0.14189 0.55937 0.56052 0.0
C162 C 0.15452 0.73214 0.68622 0.0
O163 O 0.13098 0.61402 0.54783 0.0
C164 C 0.16572 0.82812 0.56716 0.0
O165 O 0.10156 0.65428 0.61657 0.0
O166 O 0.11184 0.72994 0.56888 0.0
O167 O 0.17762 0.76139 0.66656 0.0
O168 O 0.13995 0.67812 0.67475 0.0
C169 C 0.22174 0.68579 0.55056 0.0
O170 O 0.169 0.77879 0.54495 0.0
O171 O 0.1735 0.82042 0.60231 0.0
C172 C 0.09222 0.70513 0.59494 0.0
O173 O 0.19357 0.65936 0.53864 0.0
O174 O 0.22199 0.73367 0.57557 0.0
C175 C 0.2186 0.61538 0.64909 0.0
Fe176 Fe 0.64147 0.93174 0.13498 0.0
Fe177 Fe 0.69165 0.81245 0.12763 0.0
O178 O 0.6595 0.86464 0.1076 0.0
Fe179 Fe 0.64482 0.8492 0.06018 0.0
O180 O 0.65901 0.93192 0.04479 0.0
O181 O 0.63271 0.98682 0.09178 0.0
O182 O 0.68377 0.97438 0.1381 0.0
C183 C 0.71131 0.94591 0.14986 0.0
C184 C 0.58485 0.8691 0.10212 0.0
O185 O 0.71116 0.88205 0.15701 0.0
C186 C 0.65106 0.71917 0.08159 0.0
O187 O 0.64748 0.8886 0.18245 0.0
O188 O 0.66305 0.78492 0.16596 0.0
O189 O 0.60063 0.87821 0.07036 0.0
O190 O 0.59897 0.88945 0.13313 0.0
C191 C 0.71681 0.82676 0.05568 0.0
O192 O 0.6787 0.7342 0.09995 0.0
O193 O 0.63011 0.76542 0.07321 0.0
C194 C 0.64992 0.82525 0.19024 0.0
O195 O 0.7215 0.83801 0.09095 0.0
O196 O 0.68666 0.81729 0.04233 0.0
C197 C 0.64781 0.98658 0.05881 0.0
Fe198 Fe 0.90765 0.20025 0.05875 0.0
Fe199 Fe 0.91094 0.11785 0.13359 0.0
O200 O 0.89297 0.18495 0.10626 0.0
Fe201 Fe 0.86087 0.23722 0.12637 0.0
O202 O 0.83106 0.2115 0.08986 0.0
O203 O 0.86589 0.23227 0.0411 0.0
O204 O 0.89333 0.11759 0.04354 0.0
C205 C 0.90447 0.06295 0.05754 0.0
C206 C 0.90153 0.33038 0.08012 0.0
O207 O 0.91967 0.06273 0.09039 0.0
C208 C 0.90245 0.22441 0.18882 0.0
O209 O 0.95176 0.17096 0.06877 0.0
O210 O 0.95343 0.16013 0.13153 0.0
O211 O 0.87388 0.3154 0.09859 0.0
O212 O 0.92245 0.28405 0.07161 0.0
C213 C 0.84112 0.10385 0.14888 0.0
O214 O 0.9049 0.16106 0.18104 0.0
O215 O 0.88947 0.26477 0.16453 0.0
C216 C 0.96752 0.18037 0.10043 0.0
O217 O 0.86861 0.07528 0.13694 0.0
O218 O 0.84129 0.16776 0.15589 0.0
C219 C 0.83576 0.22257 0.05457 0.0
Fe220 Fe 0.19284 0.23983 0.40725 0.0
Fe221 Fe 0.14411 0.2077 0.47406 0.0
O222 O 0.15952 0.18965 0.42718 0.0
Fe223 Fe 0.14098 0.12274 0.40016 0.0
O224 O 0.18275 0.07828 0.39771 0.0
O225 O 0.21165 0.16881 0.37839 0.0
O226 O 0.22157 0.21309 0.44449 0.0
C227 C 0.21631 0.22472 0.47965 0.0
C228 C 0.15132 0.22799 0.34451 0.0
O229 O 0.18619 0.23749 0.49217 0.0
C230 C 0.08445 0.18772 0.43187 0.0
O231 O 0.18104 0.31929 0.43459 0.0
O232 O 0.13102 0.29133 0.45917 0.0
O233 O 0.14796 0.16486 0.35256 0.0
O234 O 0.16518 0.26813 0.36845 0.0
C235 C 0.14527 0.07076 0.4773 0.0
O236 O 0.09981 0.17997 0.46382 0.0
O237 O 0.09886 0.16639 0.40122 0.0
C238 C 0.15323 0.33613 0.45203 0.0
O239 O 0.15648 0.12562 0.491 0.0
O240 O 0.13137 0.06913 0.44371 0.0
C241 C 0.21084 0.10511 0.386 0.0
Fe242 Fe 0.4084 0.92662 0.40449 0.0
Fe243 Fe 0.35873 0.80571 0.40976 0.0
O244 O 0.39065 0.85754 0.43059 0.0
Fe245 Fe 0.40541 0.83992 0.47786 0.0
O246 O 0.39006 0.92127 0.49483 0.0
O247 O 0.41662 0.97902 0.44882 0.0
O248 O 0.36608 0.96865 0.40176 0.0
C249 C 0.33845 0.94069 0.38964 0.0
C250 C 0.46526 0.86474 0.43671 0.0
O251 O 0.33808 0.87675 0.38245 0.0
C252 C 0.40111 0.71118 0.4531 0.0
O253 O 0.40269 0.88647 0.35611 0.0
O254 O 0.38671 0.78188 0.37031 0.0
O255 O 0.44923 0.87258 0.46843 0.0
O256 O 0.45105 0.88525 0.40583 0.0
C257 C 0.334 0.80529 0.4812 0.0
O258 O 0.37324 0.72578 0.43503 0.0
O259 O 0.42135 0.75819 0.46284 0.0
C260 C 0.39999 0.82374 0.347 0.0
O261 O 0.32954 0.82771 0.44776 0.0
O262 O 0.36429 0.80198 0.49506 0.0
C263 C 0.40138 0.97694 0.48173 0.0
Fe264 Fe 0.36125 0.23805 0.90882 0.0
Fe265 Fe 0.41119 0.11837 0.90215 0.0
O266 O 0.39318 0.18586 0.92922 0.0
Fe267 Fe 0.40763 0.2017 0.97668 0.0
O268 O 0.36573 0.2338 0.99413 0.0
O269 O 0.33118 0.21273 0.94527 0.0
O270 O 0.34184 0.16841 0.87939 0.0
C271 C 0.34145 0.10461 0.88667 0.0
C272 C 0.4016 0.33161 0.95496 0.0
O273 O 0.36881 0.07599 0.89887 0.0
C274 C 0.4677 0.18106 0.93512 0.0
O275 O 0.39018 0.26515 0.87075 0.0
O276 O 0.40548 0.16112 0.85464 0.0
O277 O 0.42248 0.28536 0.96357 0.0
O278 O 0.37405 0.31646 0.93646 0.0
C279 C 0.40446 0.06442 0.97833 0.0
O280 O 0.45372 0.16036 0.90412 0.0
O281 O 0.45181 0.17239 0.96684 0.0
C282 C 0.40341 0.22444 0.84675 0.0
O283 O 0.4197 0.06376 0.94548 0.0
O284 O 0.39328 0.1192 0.99218 0.0
C285 C 0.33568 0.22398 0.98056 0.0
Fe286 Fe 0.14134 0.93451 0.90011 0.0
Fe287 Fe 0.14448 0.8498 0.97405 0.0
O288 O 0.15912 0.86618 0.92664 0.0
Fe289 Fe 0.19077 0.81376 0.90565 0.0
O290 O 0.21078 0.88432 0.87726 0.0
O291 O 0.18382 0.97658 0.89747 0.0
O292 O 0.13252 0.98804 0.94387 0.0
C293 C 0.14771 0.98706 0.97669 0.0
C294 C 0.14947 0.8309 0.8432 0.0
O295 O 0.15907 0.93206 0.99007 0.0
C296 C 0.1499 0.72004 0.95144 0.0
O297 O 0.09873 0.89233 0.90161 0.0
O298 O 0.10044 0.87984 0.96429 0.0
O299 O 0.16181 0.78878 0.86698 0.0
O300 O 0.1475 0.89376 0.85207 0.0
C301 C 0.21633 0.825 0.97765 0.0
O302 O 0.12932 0.7666 0.9605 0.0
O303 O 0.17734 0.73477 0.93249 0.0
C304 C 0.08463 0.87126 0.93257 0.0
O305 O 0.18617 0.81662 0.99133 0.0
O306 O 0.22102 0.83654 0.94239 0.0
C307 C 0.21123 0.94796 0.88524 0.0
Fe308 Fe 0.91117 0.93305 0.6339 0.0
Fe309 Fe 0.90741 0.85094 0.55901 0.0
O310 O 0.89288 0.86607 0.60653 0.0
Fe311 Fe 0.86066 0.81367 0.62667 0.0
O312 O 0.84144 0.88305 0.65633 0.0
O313 O 0.86898 0.97559 0.63735 0.0
O314 O 0.92001 0.98846 0.59069 0.0
C315 C 0.90479 0.98835 0.55783 0.0
C316 C 0.9025 0.82635 0.68901 0.0
O317 O 0.8934 0.93371 0.54387 0.0
C318 C 0.9009 0.72077 0.58016 0.0
O319 O 0.95358 0.89072 0.63182 0.0
O320 O 0.95165 0.87999 0.56906 0.0
O321 O 0.8893 0.78604 0.66473 0.0
O322 O 0.90507 0.88972 0.6813 0.0
C323 C 0.83534 0.82813 0.55493 0.0
O324 O 0.92195 0.76715 0.57178 0.0
O325 O 0.87334 0.7356 0.59875 0.0
C326 C 0.96748 0.87043 0.60067 0.0
O327 O 0.86546 0.81901 0.54134 0.0
O328 O 0.83076 0.83933 0.59025 0.0
C329 C 0.84144 0.94697 0.64937 0.0
Fe330 Fe 0.64205 0.11577 0.63526 0.0
Fe331 Fe 0.64519 0.19771 0.56024 0.0
O332 O 0.65982 0.1832 0.60776 0.0
Fe333 Fe 0.69171 0.23642 0.62769 0.0
O334 O 0.71155 0.16753 0.65718 0.0
O335 O 0.68444 0.07434 0.63852 0.0
O336 O 0.63353 0.06022 0.5922 0.0
C337 C 0.64877 0.06057 0.55933 0.0
C338 C 0.65006 0.22279 0.6903 0.0
O339 O 0.6599 0.11533 0.54525 0.0
C340 C 0.65071 0.32824 0.58133 0.0
O341 O 0.59947 0.15684 0.63323 0.0
O342 O 0.60121 0.1672 0.57041 0.0
O343 O 0.66298 0.26336 0.66594 0.0
O344 O 0.64787 0.15936 0.68262 0.0
C345 C 0.71694 0.22214 0.55583 0.0
O346 O 0.63002 0.28126 0.57284 0.0
O347 O 0.67836 0.31414 0.59985 0.0
C348 C 0.58535 0.17624 0.60209 0.0
O349 O 0.6868 0.23082 0.54242 0.0
O350 O 0.72166 0.21143 0.59112 0.0
C351 C 0.71186 0.10357 0.65025 0.0
C352 C 0.12111 0.14886 0.02876 0.0
C353 C 0.14773 0.15652 0.0565 0.0
H354 H 0.10082 0.09112 0.98104 0.0
C355 C 0.17409 0.1075 0.0576 0.0
H356 H 0.10031 0.18561 0.0268 0.0
C357 C 0.17407 0.053 0.03134 0.0
C358 C 0.14806 0.04687 1.00292 0.0
H359 H 0.19516 0.11205 0.07809 0.0
H360 H 0.19481 1.01605 0.03288 0.0
C361 C 0.12152 0.09522 1.00203 0.0
C362 C 0.37718 0.99826 0.03215 0.0
C363 C 0.40371 1.00443 1.00424 0.0
H364 H 0.35551 0.93971 0.07877 0.0
C365 C 0.43049 0.95663 1.004 0.0
H366 H 0.35627 0.03491 0.03316 0.0
C367 C 0.43065 0.90343 0.03098 0.0
C368 C 0.40355 0.89583 0.05826 0.0
H369 H 0.45159 0.96094 0.98343 0.0
H370 H 0.45164 0.86701 0.02959 0.0
C371 C 0.37694 0.9443 0.05866 0.0
C372 C 0.62199 0.95325 0.53346 0.0
C373 C 0.64919 1.00049 0.53344 0.0
H374 H 0.60002 0.86452 0.5074 0.0
C375 C 0.67567 0.99406 0.50552 0.0
H376 H 0.60091 0.9578 0.55403 0.0
C377 C 0.67541 0.9405 0.47872 0.0
C378 C 0.64834 0.89269 0.47883 0.0
H379 H 0.69689 0.03029 0.50465 0.0
H380 H 0.69679 0.93573 0.45857 0.0
C381 C 0.62135 0.90046 0.50621 0.0
C382 C 0.93035 0.09795 0.53269 0.0
C383 C 0.90398 0.04888 0.53207 0.0
H384 H 0.95114 0.18866 0.5074 0.0
C385 C 0.87774 0.05436 0.50387 0.0
H386 H 0.9512 0.09444 0.55351 0.0
C387 C 0.87747 0.10842 0.47736 0.0
C388 C 0.90374 0.15792 0.47799 0.0
H389 H 0.85708 1.01694 0.50253 0.0
H390 H 0.8563 0.11213 0.45696 0.0
C391 C 0.93045 0.15137 0.50573 0.0
C392 C 0.87722 0.99629 1.00396 0.0
C393 C 0.90377 1.00271 0.03172 0.0
H394 H 0.85569 0.93779 0.9573 0.0
C395 C 0.93068 0.95515 0.03172 0.0
H396 H 0.8562 0.03272 1.00313 0.0
C397 C 0.93096 0.9021 1.00461 0.0
C398 C 0.90389 0.89437 0.97739 0.0
H399 H 0.95179 0.95962 0.05216 0.0
H400 H 0.95207 0.86593 1.00578 0.0
C401 C 0.87712 0.94249 0.97731 0.0
C402 C 0.67487 0.10706 0.97823 0.0
C403 C 0.6484 0.15584 0.97893 0.0
H404 H 0.69554 1.01613 1.00338 0.0
C405 C 0.62162 0.14852 1.00666 0.0
H406 H 0.69607 0.1114 0.95781 0.0
C407 C 0.62189 0.09518 0.03362 0.0
C408 C 0.64848 0.04691 0.03298 0.0
H409 H 0.60076 0.18519 1.00835 0.0
H410 H 0.601 0.09109 0.05447 0.0
C411 C 0.67474 0.053 1.00473 0.0
C412 C 0.42823 0.0848 0.50675 0.0
C413 C 0.40153 0.03645 0.50829 0.0
H414 H 0.44994 0.17572 0.53043 0.0
C415 C 0.37582 0.04315 0.53708 0.0
H416 H 0.44874 0.08036 0.48546 0.0
C417 C 0.37613 0.0985 0.56287 0.0
C418 C 0.4026 0.14764 0.56096 0.0
H419 H 0.35498 1.00622 0.53914 0.0
H420 H 0.35521 0.10366 0.58358 0.0
C421 C 0.42903 0.13907 0.53301 0.0
C422 C 0.169 0.95563 0.56157 0.0
C423 C 0.1556 0.89317 0.54917 0.0
H424 H 0.17651 0.06087 0.54816 0.0
C425 C 0.13591 0.89064 0.51478 0.0
H426 H 0.18438 0.95885 0.58771 0.0
C427 C 0.13173 0.94835 0.49172 0.0
C428 C 0.14687 1.01013 0.50276 0.0
H429 H 0.12486 0.84293 0.50475 0.0
H430 H 0.11748 0.94407 0.46484 0.0
C431 C 0.1647 1.01368 0.53852 0.0
C432 C 0.67506 0.55332 0.03181 0.0
C433 C 0.64861 0.54713 1.0039 0.0
H434 H 0.69656 0.6117 0.07855 0.0
C435 C 0.62186 0.59503 1.00372 0.0
H436 H 0.69597 0.51666 0.03279 0.0
C437 C 0.62162 0.64816 0.03079 0.0
C438 C 0.64858 0.65564 0.05816 0.0
H439 H 0.60082 0.59077 0.98316 0.0
H440 H 0.60062 0.68457 0.02947 0.0
C441 C 0.67521 0.6072 0.05842 0.0
C442 C 0.93099 0.40144 0.0292 0.0
C443 C 0.90413 0.39408 0.05682 0.0
H444 H 0.95179 0.45899 0.98155 0.0
C445 C 0.87772 0.44297 0.05753 0.0
H446 H 0.95183 0.3647 0.02753 0.0
C447 C 0.87797 0.49716 0.03112 0.0
C448 C 0.90431 0.50324 1.00296 0.0
H449 H 0.85645 0.4386 0.07787 0.0
H450 H 0.85721 0.53412 0.03244 0.0
C451 C 0.93085 0.45489 1.00233 0.0
C452 C 0.14685 0.43436 0.54598 0.0
C453 C 0.14645 0.50193 0.53313 0.0
H454 H 0.14869 0.32925 0.52996 0.0
C455 C 0.15057 0.51521 0.4931 0.0
H456 H 0.14395 0.42258 0.57647 0.0
C457 C 0.15434 0.46184 0.46641 0.0
C458 C 0.15329 0.3943 0.47923 0.0
H459 H 0.15088 0.56711 0.48235 0.0
H460 H 0.15691 0.47324 0.43584 0.0
C461 C 0.14971 0.38114 0.51925 0.0
C462 C 0.43237 0.58543 0.52877 0.0
C463 C 0.40501 0.5386 0.53015 0.0
H464 H 0.45366 0.674 0.50173 0.0
C465 C 0.37768 0.54524 0.5034 0.0
H466 H 0.45409 0.58071 0.54837 0.0
C467 C 0.37713 0.59894 0.47665 0.0
C468 C 0.40424 0.64667 0.47557 0.0
H469 H 0.35631 0.50933 0.50361 0.0
H470 H 0.35498 0.6042 0.45772 0.0
C471 C 0.43222 0.63825 0.50151 0.0
C472 C 0.43062 0.40282 1.006 0.0
C473 C 0.40397 0.39535 0.97826 0.0
H474 H 0.45101 0.46043 0.05377 0.0
C475 C 0.37751 0.44413 0.97743 0.0
H476 H 0.45148 0.36616 1.00777 0.0
C477 C 0.37751 0.49833 1.00386 0.0
C478 C 0.40363 0.5045 0.03215 0.0
H479 H 0.35639 0.43968 0.957 0.0
H480 H 0.35672 0.5352 1.00245 0.0
C481 C 0.43023 0.45626 0.03288 0.0
C482 C 0.17379 0.55381 1.00101 0.0
C483 C 0.14745 0.54783 0.02919 0.0
H484 H 0.19523 0.61205 0.95406 0.0
C485 C 0.12071 0.59579 0.02945 0.0
H486 H 0.19468 0.51712 0.99993 0.0
C487 C 0.12043 0.64881 1.0023 0.0
C488 C 0.14735 0.65623 0.97473 0.0
H489 H 0.09975 0.59175 0.05021 0.0
H490 H 0.09946 0.68528 1.00375 0.0
C491 C 0.17391 0.60764 0.97432 0.0
C492 C 0.93004 0.65047 0.52885 0.0
C493 C 0.90318 0.65751 0.55649 0.0
H494 H 0.95066 0.59354 0.48095 0.0
C495 C 0.8765 0.60887 0.55685 0.0
H496 H 0.95107 0.68707 0.52743 0.0
C497 C 0.87654 0.55515 0.53013 0.0
C498 C 0.90291 0.54934 0.50202 0.0
H499 H 0.85523 0.61304 0.57717 0.0
H500 H 0.85562 0.51825 0.53123 0.0
C501 C 0.92968 0.59751 0.50168 0.0
C502 C 0.67351 0.49617 0.53263 0.0
C503 C 0.64726 0.50159 0.50444 0.0
H504 H 0.69516 0.43805 0.57928 0.0
C505 C 0.62101 0.45229 0.50368 0.0
H506 H 0.69406 0.53379 0.53406 0.0
C507 C 0.62108 0.3986 0.53043 0.0
C508 C 0.64785 0.39197 0.55808 0.0
H509 H 0.60015 0.45577 0.48287 0.0
H510 H 0.60048 0.36112 0.52864 0.0
C511 C 0.67396 0.4418 0.55893 0.0
C512 C 0.14445 0.32424 0.29727 0.0
C513 C 0.1449 0.25357 0.3047 0.0
H514 H 0.14471 0.40357 0.25455 0.0
C515 C 0.14217 0.2083 0.27333 0.0
H516 H 0.1461 0.3606 0.32083 0.0
C517 C 0.14154 0.23305 0.23532 0.0
C518 C 0.14327 0.30362 0.22781 0.0
H519 H 0.14225 0.15367 0.27799 0.0
H520 H 0.141 0.19666 0.21171 0.0
C521 C 0.14347 0.349 0.25926 0.0
C522 C 0.40922 0.70537 0.26087 0.0
C523 C 0.40691 0.75096 0.22966 0.0
H524 H 0.4091 0.69282 0.32241 0.0
C525 C 0.40679 0.82158 0.23745 0.0
H526 H 0.40956 0.6508 0.25598 0.0
C527 C 0.40671 0.84583 0.27562 0.0
C528 C 0.40645 0.79996 0.30682 0.0
H529 H 0.40542 0.85822 0.21403 0.0
H530 H 0.40501 0.90026 0.28061 0.0
C531 C 0.40884 0.72957 0.29899 0.0
C532 C 0.64258 0.72867 0.23734 0.0
C533 C 0.64369 0.79942 0.23013 0.0
H534 H 0.64274 0.6488 0.27976 0.0
C535 C 0.64209 0.84435 0.26175 0.0
H536 H 0.64339 0.69256 0.2136 0.0
C537 C 0.6419 0.81914 0.29969 0.0
C538 C 0.64296 0.74841 0.30692 0.0
H539 H 0.64274 0.89902 0.2573 0.0
H540 H 0.6422 0.85526 0.32344 0.0
C541 C 0.64205 0.70346 0.27528 0.0
C542 C 0.90926 0.32082 0.23596 0.0
C543 C 0.90814 0.2501 0.22876 0.0
H544 H 0.90839 0.4007 0.27833 0.0
C545 C 0.90897 0.20513 0.26038 0.0
H546 H 0.90904 0.35693 0.21222 0.0
C547 C 0.90839 0.23034 0.29831 0.0
C548 C 0.9073 0.30107 0.30548 0.0
H549 H 0.90826 0.15047 0.2559 0.0
H550 H 0.90754 0.19423 0.32204 0.0
C551 C 0.90901 0.34603 0.27389 0.0
C552 C 0.90991 0.84558 0.76047 0.0
C553 C 0.90843 0.80058 0.72888 0.0
H554 H 0.90934 0.8566 0.82214 0.0
C555 C 0.90928 0.72986 0.73609 0.0
H556 H 0.90944 0.90025 0.75599 0.0
C557 C 0.90943 0.70472 0.77404 0.0
C558 C 0.90837 0.74975 0.80564 0.0
H559 H 0.90857 0.69372 0.71237 0.0
H560 H 0.90857 0.65006 0.77853 0.0
C561 C 0.90971 0.82045 0.79841 0.0
C562 C 0.64266 0.34455 0.77528 0.0
C563 C 0.6439 0.29963 0.8069 0.0
H564 H 0.64345 0.35538 0.7136 0.0
C565 C 0.64278 0.22889 0.79973 0.0
H566 H 0.64334 0.39923 0.77972 0.0
C567 C 0.64267 0.20364 0.7618 0.0
C568 C 0.64399 0.24856 0.73018 0.0
H569 H 0.6433 0.19281 0.82348 0.0
H570 H 0.64334 0.14897 0.75736 0.0
C571 C 0.64286 0.31929 0.73735 0.0
C572 C 0.41147 0.22841 0.73753 0.0
C573 C 0.40999 0.29893 0.72992 0.0
H574 H 0.41107 0.14941 0.78037 0.0
C575 C 0.41098 0.34462 0.7612 0.0
H576 H 0.41118 0.19182 0.71401 0.0
C577 C 0.41072 0.3202 0.79927 0.0
C578 C 0.40979 0.24959 0.80686 0.0
H579 H 0.41002 0.39917 0.75635 0.0
H580 H 0.40984 0.35675 0.82278 0.0
C581 C 0.41153 0.204 0.77558 0.0
C582 C 0.1373 0.73944 0.7942 0.0
C583 C 0.14455 0.80829 0.80255 0.0
H584 H 0.13384 0.66162 0.75065 0.0
C585 C 0.15085 0.85333 0.77168 0.0
H586 H 0.1322 0.70358 0.8174 0.0
C587 C 0.15242 0.82905 0.73357 0.0
C588 C 0.14692 0.75952 0.7254 0.0
H589 H 0.15663 0.90657 0.77714 0.0
H590 H 0.15912 0.86434 0.71058 0.0
C591 C 0.13808 0.71545 0.75597 0.0
C592 C 0.27561 0.45561 0.15264 0.0
C593 C 0.24321 0.48868 0.15167 0.0
H594 H 0.3311 0.46544 0.15223 0.0
C595 C 0.24322 0.56057 0.15192 0.0
H596 H 0.27691 0.40045 0.15197 0.0
C597 C 0.27447 0.59799 0.15274 0.0
C598 C 0.30689 0.56493 0.15254 0.0
H599 H 0.219 0.58815 0.1509 0.0
H600 H 0.27318 0.65315 0.15209 0.0
C601 C 0.30687 0.49303 0.15269 0.0
C602 C 0.74267 0.49001 0.38278 0.0
C603 C 0.74273 0.56194 0.38254 0.0
H604 H 0.77256 0.39762 0.38321 0.0
C605 C 0.77519 0.59517 0.38127 0.0
H606 H 0.71842 0.46228 0.38406 0.0
C607 C 0.8064 0.55797 0.38142 0.0
C608 C 0.80636 0.48607 0.38206 0.0
H609 H 0.77658 0.65035 0.38157 0.0
H610 H 0.83066 0.58577 0.38163 0.0
C611 C 0.7739 0.45277 0.38217 0.0
C612 C 0.80818 0.49102 0.88223 0.0
C613 C 0.80813 0.56293 0.88228 0.0
H614 H 0.77832 0.39827 0.88275 0.0
C615 C 0.77567 0.59581 0.88167 0.0
H616 H 0.83245 0.46355 0.88301 0.0
C617 C 0.74445 0.55823 0.88216 0.0
C618 C 0.7445 0.48632 0.88251 0.0
H619 H 0.77429 0.65096 0.88222 0.0
H620 H 0.72019 0.58572 0.88288 0.0
C621 C 0.77696 0.45342 0.88196 0.0
C622 C 0.28349 0.59972 0.65417 0.0
C623 C 0.24996 0.57079 0.6556 0.0
H624 H 0.33833 0.58374 0.65117 0.0
C625 C 0.24763 0.49912 0.6585 0.0
H626 H 0.28683 0.65444 0.65191 0.0
C627 C 0.27772 0.45808 0.65845 0.0
C628 C 0.3111 0.4873 0.65517 0.0
H629 H 0.22253 0.47445 0.65928 0.0
H630 H 0.27472 0.40317 0.65931 0.0
C631 C 0.31335 0.5589 0.6537 0.0
C632 C 0.80811 0.99134 0.1536 0.0
C633 C 0.80803 0.06326 0.15329 0.0
H634 H 0.77829 0.89854 0.15363 0.0
C635 C 0.77556 0.09609 0.15403 0.0
H636 H 0.83238 0.9639 0.15274 0.0
C637 C 0.74435 0.05844 0.1539 0.0
C638 C 0.74443 0.98652 0.1538 0.0
H639 H 0.77416 0.15123 0.15329 0.0
H640 H 0.72008 0.08588 0.15326 0.0
C641 C 0.7769 0.9537 0.15423 0.0
C642 C 0.27644 0.09384 0.38268 0.0
C643 C 0.24343 0.06272 0.38277 0.0
H644 H 0.33171 0.08096 0.38505 0.0
C645 C 0.24228 0.99076 0.38304 0.0
H646 H 0.27869 0.14891 0.38302 0.0
C647 C 0.27292 0.95152 0.38357 0.0
C648 C 0.30591 0.98269 0.38467 0.0
H649 H 0.21758 0.96453 0.38343 0.0
H650 H 0.27066 0.89647 0.38453 0.0
C651 C 0.30705 0.05464 0.38399 0.0
C652 C 0.27688 0.95505 0.88102 0.0
C653 C 0.24449 0.98821 0.8815 0.0
H654 H 0.33238 0.96469 0.8826 0.0
C655 C 0.2446 0.06012 0.88159 0.0
H656 H 0.27811 0.89987 0.88148 0.0
C657 C 0.27591 0.09745 0.88156 0.0
C658 C 0.30829 0.06429 0.88225 0.0
H659 H 0.2204 0.08781 0.88227 0.0
H660 H 0.27466 0.1526 0.88242 0.0
C661 C 0.30819 0.99237 0.88179 0.0
C662 C 0.77599 0.95431 0.65502 0.0
C663 C 0.80847 0.98741 0.65386 0.0
H664 H 0.72054 0.96397 0.65457 0.0
C665 C 0.80863 0.05934 0.65381 0.0
H666 H 0.77453 0.89914 0.65458 0.0
C667 C 0.77746 0.09672 0.65444 0.0
C668 C 0.74498 0.06356 0.65438 0.0
H669 H 0.83292 0.08697 0.65263 0.0
H670 H 0.77887 0.15188 0.6535 0.0
C671 C 0.74484 0.99165 0.65491 0.0
C672 C 0.27259 0.22361 0.98998 0.0
C673 C 0.30542 0.24632 1.00182 0.0
H674 H 0.21795 0.23409 0.99633 0.0
C675 C 0.3085 0.29888 0.02901 0.0
H676 H 0.26983 0.18337 0.96865 0.0
C677 C 0.27896 0.32885 0.04402 0.0
C678 C 0.24614 0.30613 0.03219 0.0
H679 H 0.3336 0.31836 0.03767 0.0
H680 H 0.28173 0.36909 0.06535 0.0
C681 C 0.24305 0.25357 1.00499 0.0
C682 C 0.27205 0.72512 0.04494 0.0
C683 C 0.30515 0.74581 0.0327 0.0
H684 H 0.21752 0.73596 0.03764 0.0
C685 C 0.30878 0.79478 1.00349 0.0
H686 H 0.26879 0.68752 0.06768 0.0
C687 C 0.27955 0.82335 0.98697 0.0
C688 C 0.24644 0.80289 0.99932 0.0
H689 H 0.33407 0.81262 0.9943 0.0
H690 H 0.2828 0.86101 0.96425 0.0
C691 C 0.24282 0.75372 0.02842 0.0
C692 C 0.77913 0.72434 0.48986 0.0
C693 C 0.74613 0.74504 0.50221 0.0
H694 H 0.83371 0.73654 0.4962 0.0
C695 C 0.74275 0.79596 0.53037 0.0
H696 H 0.78219 0.68538 0.46784 0.0
C697 C 0.77211 0.82616 0.54585 0.0
C698 C 0.80511 0.8054 0.53353 0.0
H699 H 0.71753 0.81393 0.53953 0.0
H700 H 0.76906 0.86508 0.5679 0.0
C701 C 0.80849 0.75455 0.50534 0.0
C702 C 0.80921 0.25409 0.53018 0.0
C703 C 0.80559 0.30576 0.50255 0.0
H704 H 0.78311 0.18413 0.56747 0.0
C705 C 0.77256 0.32737 0.49105 0.0
H706 H 0.83448 0.23552 0.53863 0.0
C707 C 0.74333 0.29698 0.50671 0.0
C708 C 0.74693 0.24517 0.53424 0.0
H709 H 0.7694 0.36696 0.46944 0.0
H710 H 0.71806 0.31551 0.49821 0.0
C711 C 0.77996 0.22375 0.54587 0.0
C712 C 0.80931 0.79628 0.03017 0.0
C713 C 0.80585 0.74524 1.0021 0.0
H714 H 0.78307 0.86499 0.06793 0.0
C715 C 0.77283 0.72371 0.99021 0.0
H716 H 0.83454 0.81485 0.03898 0.0
C717 C 0.7435 0.75334 1.00601 0.0
C718 C 0.74696 0.80442 0.03406 0.0
H719 H 0.76973 0.68462 0.96827 0.0
H720 H 0.71827 0.73479 0.99719 0.0
C721 C 0.77997 0.8259 0.04598 0.0
C722 C 0.74332 0.25272 0.02985 0.0
C723 C 0.74666 0.30493 1.00247 0.0
H724 H 0.76975 0.18271 0.0665 0.0
C725 C 0.77959 0.32726 0.99065 0.0
H726 H 0.71813 0.23353 0.03851 0.0
C727 C 0.80899 0.29723 1.00584 0.0
C728 C 0.80564 0.24499 0.03321 0.0
H729 H 0.78256 0.36723 0.96919 0.0
H730 H 0.83417 0.3164 0.99717 0.0
C731 C 0.77271 0.22269 0.04504 0.0
C732 C 0.30868 0.24921 0.50659 0.0
C733 C 0.30559 0.29946 0.53515 0.0
H734 H 0.28196 0.18311 0.46781 0.0
C735 C 0.2728 0.32151 0.54735 0.0
H736 H 0.33374 0.23018 0.49759 0.0
C737 C 0.24329 0.29366 0.53103 0.0
C738 C 0.24638 0.24406 0.50211 0.0
H739 H 0.27001 0.3599 0.56974 0.0
H740 H 0.21825 0.31272 0.54005 0.0
C741 C 0.27916 0.22138 0.49027 0.0
C742 C 0.3114 0.72426 0.53089 0.0
C743 C 0.30656 0.76133 0.49664 0.0
H744 H 0.28694 0.66336 0.57435 0.0
C745 C 0.27601 0.75172 0.47505 0.0
H746 H 0.33522 0.72828 0.54722 0.0
C747 C 0.24924 0.7121 0.48965 0.0
C748 C 0.25233 0.6837 0.52651 0.0
H749 H 0.27196 0.77737 0.44764 0.0
H750 H 0.22462 0.71194 0.47463 0.0
C751 C 0.28435 0.68512 0.54566 0.0
C752 C 0.03908 0.30076 0.13551 0.0
C753 C 0.05282 0.32528 0.10029 0.0
H754 H 1.00196 0.23504 0.16341 0.0
C755 C 0.03907 0.29932 0.06554 0.0
H756 H 0.04933 0.31863 0.16288 0.0
C757 C 1.0125 0.25061 0.06585 0.0
C758 C 0.99864 0.226 0.10093 0.0
H759 H 0.04913 0.31606 0.03781 0.0
H760 H 1.00253 0.23281 0.03834 0.0
C761 C 1.01229 0.25185 0.13582 0.0
C762 C 0.51247 0.75174 0.06777 0.0
C763 C 0.49832 0.72682 0.10263 0.0
H764 H 0.54972 0.81655 0.04027 0.0
C765 C 0.51213 0.75147 0.13773 0.0
H766 H 0.5024 0.73488 0.04011 0.0
C767 C 0.53935 0.79947 0.13782 0.0
C768 C 0.55339 0.82431 0.10282 0.0
H769 H 0.5016 0.73439 0.16517 0.0
H770 H 0.5497 0.81642 0.16534 0.0
C771 C 0.53947 0.79955 0.06786 0.0
C772 C 0.51079 0.79511 0.47047 0.0
C773 C 0.49674 0.82024 0.4357 0.0
H774 H 0.54807 0.73062 0.49772 0.0
C775 C 0.51072 0.79617 0.40052 0.0
H776 H 0.5006 0.81151 0.49818 0.0
C777 C 0.53801 0.7486 0.40025 0.0
C778 C 0.55199 0.72361 0.43515 0.0
H779 H 0.50029 0.8134 0.37314 0.0
H780 H 0.54847 0.73215 0.37267 0.0
C781 C 0.53789 0.74776 0.4702 0.0
C782 C 0.03945 0.2573 0.39585 0.0
C783 C 0.05286 0.23153 0.43082 0.0
H784 H 1.00217 0.32301 0.36866 0.0
C785 C 0.03829 0.25474 0.46581 0.0
H786 H 0.05033 0.24149 0.36836 0.0
C787 C 1.01141 0.30229 0.46602 0.0
C788 C 0.99792 0.32835 0.43123 0.0
H789 H 0.04798 0.23681 0.4934 0.0
H790 H 1.00091 0.31801 0.49371 0.0
C791 C 1.01223 0.305 0.39605 0.0
C792 C 1.0128 0.75242 0.96704 0.0
C793 C 0.99892 0.72692 0.93224 0.0
H794 H 0.04951 0.81833 0.99442 0.0
C795 C 1.01268 0.75177 0.89709 0.0
H796 H 1.00276 0.73546 0.99474 0.0
C797 C 0.03961 0.80047 0.89689 0.0
C798 C 0.05337 0.82584 0.93185 0.0
H799 H 1.00235 0.73427 0.86968 0.0
H800 H 0.04995 0.81749 0.86936 0.0
C801 C 0.03948 0.80093 0.96685 0.0
C802 C 0.53958 0.29967 0.96917 0.0
C803 C 0.55357 0.32455 0.93422 0.0
H804 H 0.50265 0.23442 0.99685 0.0
C805 C 0.53987 0.29941 0.89919 0.0
H806 H 0.54959 0.31693 0.99677 0.0
C807 C 0.51289 0.25093 0.89924 0.0
C808 C 0.499 0.22616 0.93432 0.0
H809 H 0.5503 0.31644 0.8717 0.0
H810 H 0.5026 0.23362 0.87177 0.0
C811 C 0.51281 0.2514 0.96922 0.0
C812 C 0.54044 0.24685 0.63739 0.0
C813 C 0.55402 0.22067 0.60254 0.0
H814 H 0.50329 0.31319 0.66432 0.0
C815 C 0.53993 0.24397 0.56741 0.0
H816 H 0.55098 0.231 0.66499 0.0
C817 C 0.51318 0.29187 0.567 0.0
C818 C 0.49952 0.3182 0.60172 0.0
H819 H 0.54986 0.2258 0.53994 0.0
H820 H 0.50292 0.30769 0.53926 0.0
C821 C 0.51348 0.29495 0.63698 0.0
C822 C 0.04293 0.75708 0.63375 0.0
C823 C 0.05753 0.73791 0.59799 0.0
H824 H 1.00346 0.81537 0.66298 0.0
C825 C 0.04214 0.7626 0.56386 0.0
H826 H 0.05463 0.74032 0.66058 0.0
C827 C 1.01369 0.80629 0.56515 0.0
C828 C 0.99945 0.82737 0.60067 0.0
H829 H 0.05284 0.74953 0.53579 0.0
H830 H 1.00297 0.82389 0.53798 0.0
C831 C 1.01414 0.80137 0.63507 0.0
loop_
_geom_bond_atom_site_label_1
_geom_bond_atom_site_label_2
_geom_bond_distance
_geom_bond_site_symmetry_2
_ccdc_geom_bond_type
Fe0 O2 1.918 . S
Fe0 O5 1.997 . S
Fe0 O6 2.002 . S
Fe0 O11 1.976 . S
Fe0 O14 1.996 . S
Fe1 O2 1.918 . S
Fe1 O9 1.997 . S
Fe1 O12 1.996 . S
Fe1 O16 1.976 . S
Fe1 O19 2.002 . S
O2 Fe0 1.918 . S
O2 Fe1 1.918 . S
O2 Fe3 1.918 . S
Fe3 O2 1.918 . S
Fe3 O4 2.002 . S
Fe3 O13 1.976 . S
Fe3 O17 1.996 . S
Fe3 O20 1.997 . S
O4 Fe3 2.002 . S
O4 C21 1.295 . S
O5 Fe0 1.997 . S
O5 C21 1.235 . S
O6 Fe0 2.002 . S
O6 C7 1.295 . S
C7 O6 1.295 . S
C7 O9 1.235 . S
C8 O13 1.287 . S
C8 O14 1.255 . S
O9 Fe1 1.997 . S
O9 C7 1.235 . S
C10 O16 1.287 . S
C10 O17 1.255 . S
O11 Fe0 1.976 . S
O11 C18 1.287 . S
O12 Fe1 1.996 . S
O12 C18 1.255 . S
O13 Fe3 1.976 . S
O13 C8 1.287 . S
O14 Fe0 1.996 . S
O14 C8 1.255 . S
C15 O19 1.295 . S
C15 O20 1.235 . S
O16 Fe1 1.976 . S
O16 C10 1.287 . S
O17 Fe3 1.996 . S
O17 C10 1.255 . S
C18 O11 1.287 . S
C18 O12 1.255 . S
O19 Fe1 2.002 . S
O19 C15 1.295 . S
O20 Fe3 1.997 . S
O20 C15 1.235 . S
C21 O4 1.295 . S
C21 O5 1.235 . S
Fe22 O24 1.918 . S
Fe22 O27 1.997 . S
Fe22 O28 2.002 . S
Fe22 O33 1.976 . S
Fe22 O36 1.996 . S
Fe23 O24 1.918 . S
Fe23 O31 1.997 . S
Fe23 O34 1.996 . S
Fe23 O38 1.976 . S
Fe23 O41 2.002 . S
O24 Fe22 1.918 . S
O24 Fe23 1.918 . S
O24 Fe25 1.918 . S
Fe25 O24 1.918 . S
Fe25 O26 2.002 . S
Fe25 O35 1.976 . S
Fe25 O39 1.996 . S
Fe25 O42 1.997 . S
O26 Fe25 2.002 . S
O26 C43 1.295 . S
O27 Fe22 1.997 . S
O27 C43 1.235 . S
O28 Fe22 2.002 . S
O28 C29 1.295 . S
C29 O28 1.295 . S
C29 O31 1.235 . S
C30 O35 1.287 . S
C30 O36 1.255 . S
O31 Fe23 1.997 . S
O31 C29 1.235 . S
C32 O38 1.287 . S
C32 O39 1.255 . S
O33 Fe22 1.976 . S
O33 C40 1.287 . S
O34 Fe23 1.996 . S
O34 C40 1.255 . S
O35 Fe25 1.976 . S
O35 C30 1.287 . S
O36 Fe22 1.996 . S
O36 C30 1.255 . S
C37 O41 1.295 . S
C37 O42 1.235 . S
O38 Fe23 1.976 . S
O38 C32 1.287 . S
O39 Fe25 1.996 . S
O39 C32 1.255 . S
C40 O33 1.287 . S
C40 O34 1.255 . S
O41 Fe23 2.002 . S
O41 C37 1.295 . S
O42 Fe25 1.997 . S
O42 C37 1.235 . S
C43 O26 1.295 . S
C43 O27 1.235 . S
Fe44 O46 1.918 . S
Fe44 O49 1.997 . S
Fe44 O50 2.002 . S
Fe44 O55 1.976 . S
Fe44 O58 1.996 . S
Fe45 O46 1.918 . S
Fe45 O53 1.997 . S
Fe45 O56 1.996 . S
Fe45 O60 1.976 . S
Fe45 O63 2.002 . S
O46 Fe44 1.918 . S
O46 Fe45 1.918 . S
O46 Fe47 1.918 . S
Fe47 O46 1.918 . S
Fe47 O48 2.002 . S
Fe47 O57 1.976 . S
Fe47 O61 1.996 . S
Fe47 O64 1.997 . S
O48 Fe47 2.002 . S
O48 C65 1.295 . S
O49 Fe44 1.997 . S
O49 C65 1.235 . S
O50 Fe44 2.002 . S
O50 C51 1.295 . S
C51 O50 1.295 . S
C51 O53 1.235 . S
C52 O57 1.287 . S
C52 O58 1.255 . S
O53 Fe45 1.997 . S
O53 C51 1.235 . S
C54 O60 1.287 . S
C54 O61 1.255 . S
O55 Fe44 1.976 . S
O55 C62 1.287 . S
O56 Fe45 1.996 . S
O56 C62 1.255 . S
O57 Fe47 1.976 . S
O57 C52 1.287 . S
O58 Fe44 1.996 . S
O58 C52 1.255 . S
C59 O63 1.295 . S
C59 O64 1.235 . S
O60 Fe45 1.976 . S
O60 C54 1.287 . S
O61 Fe47 1.996 . S
O61 C54 1.255 . S
C62 O55 1.287 . S
C62 O56 1.255 . S
O63 Fe45 2.002 . S
O63 C59 1.295 . S
O64 Fe47 1.997 . S
O64 C59 1.235 . S
C65 O48 1.295 . S
C65 O49 1.235 . S
Fe66 O68 1.918 . S
Fe66 O71 1.997 . S
Fe66 O72 2.002 . S
Fe66 O77 1.976 . S
Fe66 O80 1.996 . S
Fe67 O68 1.918 . S
Fe67 O75 1.997 . S
Fe67 O78 1.996 . S
Fe67 O82 1.976 . S
Fe67 O85 2.002 . S
O68 Fe66 1.918 . S
O68 Fe67 1.918 . S
O68 Fe69 1.918 . S
Fe69 O68 1.918 . S
Fe69 O70 2.002 . S
Fe69 O79 1.976 . S
Fe69 O83 1.996 . S
Fe69 O86 1.997 . S
O70 Fe69 2.002 . S
O70 C87 1.295 . S
O71 Fe66 1.997 . S
O71 C87 1.235 . S
O72 Fe66 2.002 . S
O72 C73 1.295 . S
C73 O72 1.295 . S
C73 O75 1.235 . S
C74 O79 1.287 . S
C74 O80 1.255 . S
O75 Fe67 1.997 . S
O75 C73 1.235 . S
C76 O82 1.287 . S
C76 O83 1.255 . S
O77 Fe66 1.976 . S
O77 C84 1.287 . S
O78 Fe67 1.996 . S
O78 C84 1.255 . S
O79 Fe69 1.976 . S
O79 C74 1.287 . S
O80 Fe66 1.996 . S
O80 C74 1.255 . S
C81 O85 1.295 . S
C81 O86 1.235 . S
O82 Fe67 1.976 . S
O82 C76 1.287 . S
O83 Fe69 1.996 . S
O83 C76 1.255 . S
C84 O77 1.287 . S
C84 O78 1.255 . S
O85 Fe67 2.002 . S
O85 C81 1.295 . S
O86 Fe69 1.997 . S
O86 C81 1.235 . S
C87 O70 1.295 . S
C87 O71 1.235 . S
Fe88 O90 1.918 . S
Fe88 O93 1.997 . S
Fe88 O94 2.002 . S
Fe88 O99 1.976 . S
Fe88 O102 1.996 . S
Fe89 O90 1.918 . S
Fe89 O97 1.997 . S
Fe89 O100 1.996 . S
Fe89 O104 1.976 . S
Fe89 O107 2.002 . S
O90 Fe88 1.918 . S
O90 Fe89 1.918 . S
O90 Fe91 1.918 . S
Fe91 O90 1.918 . S
Fe91 O92 2.002 . S
Fe91 O101 1.976 . S
Fe91 O105 1.996 . S
Fe91 O108 1.997 . S
O92 Fe91 2.002 . S
O92 C109 1.295 . S
O93 Fe88 1.997 . S
O93 C109 1.235 . S
O94 Fe88 2.002 . S
O94 C95 1.295 . S
C95 O94 1.295 . S
C95 O97 1.235 . S
C96 O101 1.287 . S
C96 O102 1.255 . S
O97 Fe89 1.997 . S
O97 C95 1.235 . S
C98 O104 1.287 . S
C98 O105 1.255 . S
O99 Fe88 1.976 . S
O99 C106 1.287 . S
O100 Fe89 1.996 . S
O100 C106 1.255 . S
O101 Fe91 1.976 . S
O101 C96 1.287 . S
O102 Fe88 1.996 . S
O102 C96 1.255 . S
C103 O107 1.295 . S
C103 O108 1.235 . S
O104 Fe89 1.976 . S
O104 C98 1.287 . S
O105 Fe91 1.996 . S
O105 C98 1.255 . S
C106 O99 1.287 . S
C106 O100 1.255 . S
O107 Fe89 2.002 . S
O107 C103 1.295 . S
O108 Fe91 1.997 . S
O108 C103 1.235 . S
C109 O92 1.295 . S
C109 O93 1.235 . S
Fe110 O112 1.918 . S
Fe110 O115 1.997 . S
Fe110 O116 2.002 . S
Fe110 O121 1.976 . S
Fe110 O124 1.996 . S
Fe111 O112 1.918 . S
Fe111 O119 1.997 . S
Fe111 O122 1.996 . S
Fe111 O126 1.976 . S
Fe111 O129 2.002 . S
O112 Fe110 1.918 . S
O112 Fe111 1.918 . S
O112 Fe113 1.918 . S
Fe113 O112 1.918 . S
Fe113 O114 2.002 . S
Fe113 O123 1.976 . S
Fe113 O127 1.996 . S
Fe113 O130 1.997 . S
O114 Fe113 2.002 . S
O114 C131 1.295 . S
O115 Fe110 1.997 . S
O115 C131 1.235 . S
O116 Fe110 2.002 . S
O116 C117 1.295 . S
C117 O116 1.295 . S
C117 O119 1.235 . S
C118 O123 1.287 . S
C118 O124 1.255 . S
O119 Fe111 1.997 . S
O119 C117 1.235 . S
C120 O126 1.287 . S
C120 O127 1.255 . S
O121 Fe110 1.976 . S
O121 C128 1.287 . S
O122 Fe111 1.996 . S
O122 C128 1.255 . S
O123 Fe113 1.976 . S
O123 C118 1.287 . S
O124 Fe110 1.996 . S
O124 C118 1.255 . S
C125 O129 1.295 . S
C125 O130 1.235 . S
O126 Fe111 1.976 . S
O126 C120 1.287 . S
O127 Fe113 1.996 . S
O127 C120 1.255 . S
C128 O121 1.287 . S
C128 O122 1.255 . S
O129 Fe111 2.002 . S
O129 C125 1.295 . S
O130 Fe113 1.997 . S
O130 C125 1.235 . S
C131 O114 1.295 . S
C131 O115 1.235 . S
Fe132 O134 1.918 . S
Fe132 O137 1.997 . S
Fe132 O138 2.002 . S
Fe132 O143 1.976 . S
Fe132 O146 1.996 . S
Fe133 O134 1.918 . S
Fe133 O141 1.997 . S
Fe133 O144 1.996 . S
Fe133 O148 1.976 . S
Fe133 O151 2.002 . S
O134 Fe132 1.918 . S
O134 Fe133 1.918 . S
O134 Fe135 1.918 . S
Fe135 O134 1.918 . S
Fe135 O136 2.002 . S
Fe135 O145 1.976 . S
Fe135 O149 1.996 . S
Fe135 O152 1.997 . S
O136 Fe135 2.002 . S
O136 C153 1.295 . S
O137 Fe132 1.997 . S
O137 C153 1.235 . S
O138 Fe132 2.002 . S
O138 C139 1.295 . S
C139 O138 1.295 . S
C139 O141 1.235 . S
C140 O145 1.287 . S
C140 O146 1.255 . S
O141 Fe133 1.997 . S
O141 C139 1.235 . S
C142 O148 1.287 . S
C142 O149 1.255 . S
O143 Fe132 1.976 . S
O143 C150 1.287 . S
O144 Fe133 1.996 . S
O144 C150 1.255 . S
O145 Fe135 1.976 . S
O145 C140 1.287 . S
O146 Fe132 1.996 . S
O146 C140 1.255 . S
C147 O151 1.295 . S
C147 O152 1.235 . S
O148 Fe133 1.976 . S
O148 C142 1.287 . S
O149 Fe135 1.996 . S
O149 C142 1.255 . S
C150 O143 1.287 . S
C150 O144 1.255 . S
O151 Fe133 2.002 . S
O151 C147 1.295 . S
O152 Fe135 1.997 . S
O152 C147 1.235 . S
C153 O136 1.295 . S
C153 O137 1.235 . S
Fe154 O156 1.918 . S
Fe154 O159 1.997 . S
Fe154 O160 2.002 . S
Fe154 O165 1.976 . S
Fe154 O168 1.996 . S
Fe155 O156 1.918 . S
Fe155 O163 1.997 . S
Fe155 O166 1.996 . S
Fe155 O170 1.976 . S
Fe155 O173 2.002 . S
O156 Fe154 1.918 . S
O156 Fe155 1.918 . S
O156 Fe157 1.918 . S
Fe157 O156 1.918 . S
Fe157 O158 2.002 . S
Fe157 O167 1.976 . S
Fe157 O171 1.996 . S
Fe157 O174 1.997 . S
O158 Fe157 2.002 . S
O158 C175 1.295 . S
O159 Fe154 1.997 . S
O159 C175 1.235 . S
O160 Fe154 2.002 . S
O160 C161 1.295 . S
C161 O160 1.295 . S
C161 O163 1.235 . S
C162 O167 1.287 . S
C162 O168 1.255 . S
O163 Fe155 1.997 . S
O163 C161 1.235 . S
C164 O170 1.287 . S
C164 O171 1.255 . S
O165 Fe154 1.976 . S
O165 C172 1.287 . S
O166 Fe155 1.996 . S
O166 C172 1.255 . S
O167 Fe157 1.976 . S
O167 C162 1.287 . S
O168 Fe154 1.996 . S
O168 C162 1.255 . S
C169 O173 1.295 . S
C169 O174 1.235 . S
O170 Fe155 1.976 . S
O170 C164 1.287 . S
O171 Fe157 1.996 . S
O171 C164 1.255 . S
C172 O165 1.287 . S
C172 O166 1.255 . S
O173 Fe155 2.002 . S
O173 C169 1.295 . S
O174 Fe157 1.997 . S
O174 C169 1.235 . S
C175 O158 1.295 . S
C175 O159 1.235 . S
Fe176 O178 1.918 . S
Fe176 O181 1.997 . S
Fe176 O182 2.002 . S
Fe176 O187 1.976 . S
Fe176 O190 1.996 . S
Fe177 O178 1.918 . S
Fe177 O185 1.997 . S
Fe177 O188 1.996 . S
Fe177 O192 1.976 . S
Fe177 O195 2.002 . S
O178 Fe176 1.918 . S
O178 Fe177 1.918 . S
O178 Fe179 1.918 . S
Fe179 O178 1.918 . S
Fe179 O180 2.002 . S
Fe179 O189 1.976 . S
Fe179 O193 1.996 . S
Fe179 O196 1.997 . S
O180 Fe179 2.002 . S
O180 C197 1.295 . S
O181 Fe176 1.997 . S
O181 C197 1.235 . S
O182 Fe176 2.002 . S
O182 C183 1.295 . S
C183 O182 1.295 . S
C183 O185 1.235 . S
C184 O189 1.287 . S
C184 O190 1.255 . S
O185 Fe177 1.997 . S
O185 C183 1.235 . S
C186 O192 1.287 . S
C186 O193 1.255 . S
O187 Fe176 1.976 . S
O187 C194 1.287 . S
O188 Fe177 1.996 . S
O188 C194 1.255 . S
O189 Fe179 1.976 . S
O189 C184 1.287 . S
O190 Fe176 1.996 . S
O190 C184 1.255 . S
C191 O195 1.295 . S
C191 O196 1.235 . S
O192 Fe177 1.976 . S
O192 C186 1.287 . S
O193 Fe179 1.996 . S
O193 C186 1.255 . S
C194 O187 1.287 . S
C194 O188 1.255 . S
O195 Fe177 2.002 . S
O195 C191 1.295 . S
O196 Fe179 1.997 . S
O196 C191 1.235 . S
C197 O180 1.295 . S
C197 O181 1.235 . S
Fe198 O200 1.918 . S
Fe198 O203 1.997 . S
Fe198 O204 2.002 . S
Fe198 O209 1.976 . S
Fe198 O212 1.996 . S
Fe199 O200 1.918 . S
Fe199 O207 1.997 . S
Fe199 O210 1.996 . S
Fe199 O214 1.976 . S
Fe199 O217 2.002 . S
O200 Fe198 1.918 . S
O200 Fe199 1.918 . S
O200 Fe201 1.918 . S
Fe201 O200 1.918 . S
Fe201 O202 2.002 . S
Fe201 O211 1.976 . S
Fe201 O215 1.996 . S
Fe201 O218 1.997 . S
O202 Fe201 2.002 . S
O202 C219 1.295 . S
O203 Fe198 1.997 . S
O203 C219 1.235 . S
O204 Fe198 2.002 . S
O204 C205 1.295 . S
C205 O204 1.295 . S
C205 O207 1.235 . S
C206 O211 1.287 . S
C206 O212 1.255 . S
O207 Fe199 1.997 . S
O207 C205 1.235 . S
C208 O214 1.287 . S
C208 O215 1.255 . S
O209 Fe198 1.976 . S
O209 C216 1.287 . S
O210 Fe199 1.996 . S
O210 C216 1.255 . S
O211 Fe201 1.976 . S
O211 C206 1.287 . S
O212 Fe198 1.996 . S
O212 C206 1.255 . S
C213 O217 1.295 . S
C213 O218 1.235 . S
O214 Fe199 1.976 . S
O214 C208 1.287 . S
O215 Fe201 1.996 . S
O215 C208 1.255 . S
C216 O209 1.287 . S
C216 O210 1.255 . S
O217 Fe199 2.002 . S
O217 C213 1.295 . S
O218 Fe201 1.997 . S
O218 C213 1.235 . S
C219 O202 1.295 . S
C219 O203 1.235 . S
Fe220 O222 1.918 . S
Fe220 O225 1.997 . S
Fe220 O226 2.002 . S
Fe220 O231 1.976 . S
Fe220 O234 1.996 . S
Fe221 O222 1.918 . S
Fe221 O229 1.997 . S
Fe221 O232 1.996 . S
Fe221 O236 1.976 . S
Fe221 O239 2.002 . S
O222 Fe220 1.918 . S
O222 Fe221 1.918 . S
O222 Fe223 1.918 . S
Fe223 O222 1.918 . S
Fe223 O224 2.002 . S
Fe223 O233 1.976 . S
Fe223 O237 1.996 . S
Fe223 O240 1.997 . S
O224 Fe223 2.002 . S
O224 C241 1.295 . S
O225 Fe220 1.997 . S
O225 C241 1.235 . S
O226 Fe220 2.002 . S
O226 C227 1.295 . S
C227 O226 1.295 . S
C227 O229 1.235 . S
C228 O233 1.287 . S
C228 O234 1.255 . S
O229 Fe221 1.997 . S
O229 C227 1.235 . S
C230 O236 1.287 . S
C230 O237 1.255 . S
O231 Fe220 1.976 . S
O231 C238 1.287 . S
O232 Fe221 1.996 . S
O232 C238 1.255 . S
O233 Fe223 1.976 . S
O233 C228 1.287 . S
O234 Fe220 1.996 . S
O234 C228 1.255 . S
C235 O239 1.295 . S
C235 O240 1.235 . S
O236 Fe221 1.976 . S
O236 C230 1.287 . S
O237 Fe223 1.996 . S
O237 C230 1.255 . S
C238 O231 1.287 . S
C238 O232 1.255 . S
O239 Fe221 2.002 . S
O239 C235 1.295 . S
O240 Fe223 1.997 . S
O240 C235 1.235 . S
C241 O224 1.295 . S
C241 O225 1.235 . S
Fe242 O244 1.918 . S
Fe242 O247 1.997 . S
Fe242 O248 2.002 . S
Fe242 O253 1.976 . S
Fe242 O256 1.996 . S
Fe243 O244 1.918 . S
Fe243 O251 1.997 . S
Fe243 O254 1.996 . S
Fe243 O258 1.976 . S
Fe243 O261 2.002 . S
O244 Fe242 1.918 . S
O244 Fe243 1.918 . S
O244 Fe245 1.918 . S
Fe245 O244 1.918 . S
Fe245 O246 2.002 . S
Fe245 O255 1.976 . S
Fe245 O259 1.996 . S
Fe245 O262 1.997 . S
O246 Fe245 2.002 . S
O246 C263 1.295 . S
O247 Fe242 1.997 . S
O247 C263 1.235 . S
O248 Fe242 2.002 . S
O248 C249 1.295 . S
C249 O248 1.295 . S
C249 O251 1.235 . S
C250 O255 1.287 . S
C250 O256 1.255 . S
O251 Fe243 1.997 . S
O251 C249 1.235 . S
C252 O258 1.287 . S
C252 O259 1.255 . S
O253 Fe242 1.976 . S
O253 C260 1.287 . S
O254 Fe243 1.996 . S
O254 C260 1.255 . S
O255 Fe245 1.976 . S
O255 C250 1.287 . S
O256 Fe242 1.996 . S
O256 C250 1.255 . S
C257 O261 1.295 . S
C257 O262 1.235 . S
O258 Fe243 1.976 . S
O258 C252 1.287 . S
O259 Fe245 1.996 . S
O259 C252 1.255 . S
C260 O253 1.287 . S
C260 O254 1.255 . S
O261 Fe243 2.002 . S
O261 C257 1.295 . S
O262 Fe245 1.997 . S
O262 C257 1.235 . S
C263 O246 1.295 . S
C263 O247 1.235 . S
Fe264 O266 1.918 . S
Fe264 O269 1.997 . S
Fe264 O270 2.002 . S
Fe264 O275 1.976 . S
Fe264 O278 1.996 . S
Fe265 O266 1.918 . S
Fe265 O273 1.997 . S
Fe265 O276 1.996 . S
Fe265 O280 1.976 . S
Fe265 O283 2.002 . S
O266 Fe264 1.918 . S
O266 Fe265 1.918 . S
O266 Fe267 1.918 . S
Fe267 O266 1.918 . S
Fe267 O268 2.002 . S
Fe267 O277 1.976 . S
Fe267 O281 1.996 . S
Fe267 O284 1.997 . S
O268 Fe267 2.002 . S
O268 C285 1.295 . S
O269 Fe264 1.997 . S
O269 C285 1.235 . S
O270 Fe264 2.002 . S
O270 C271 1.295 . S
C271 O270 1.295 . S
C271 O273 1.235 . S
C272 O277 1.287 . S
C272 O278 1.255 . S
O273 Fe265 1.997 . S
O273 C271 1.235 . S
C274 O280 1.287 . S
C274 O281 1.255 . S
O275 Fe264 1.976 . S
O275 C282 1.287 . S
O276 Fe265 1.996 . S
O276 C282 1.255 . S
O277 Fe267 1.976 . S
O277 C272 1.287 . S
O278 Fe264 1.996 . S
O278 C272 1.255 . S
C279 O283 1.295 . S
C279 O284 1.235 . S
O280 Fe265 1.976 . S
O280 C274 1.287 . S
O281 Fe267 1.996 . S
O281 C274 1.255 . S
C282 O275 1.287 . S
C282 O276 1.255 . S
O283 Fe265 2.002 . S
O283 C279 1.295 . S
O284 Fe267 1.997 . S
O284 C279 1.235 . S
C285 O268 1.295 . S
C285 O269 1.235 . S
Fe286 O288 1.918 . S
Fe286 O291 1.997 . S
Fe286 O292 2.002 . S
Fe286 O297 1.976 . S
Fe286 O300 1.996 . S
Fe287 O288 1.918 . S
Fe287 O295 1.997 . S
Fe287 O298 1.996 . S
Fe287 O302 1.976 . S
Fe287 O305 2.002 . S
O288 Fe286 1.918 . S
O288 Fe287 1.918 . S
O288 Fe289 1.918 . S
Fe289 O288 1.918 . S
Fe289 O290 2.002 . S
Fe289 O299 1.976 . S
Fe289 O303 1.996 . S
Fe289 O306 1.997 . S
O290 Fe289 2.002 . S
O290 C307 1.295 . S
O291 Fe286 1.997 . S
O291 C307 1.235 . S
O292 Fe286 2.002 . S
O292 C293 1.295 . S
C293 O292 1.295 . S
C293 O295 1.235 . S
C294 O299 1.287 . S
C294 O300 1.255 . S
O295 Fe287 1.997 . S
O295 C293 1.235 . S
C296 O302 1.287 . S
C296 O303 1.255 . S
O297 Fe286 1.976 . S
O297 C304 1.287 . S
O298 Fe287 1.996 . S
O298 C304 1.255 . S
O299 Fe289 1.976 . S
O299 C294 1.287 . S
O300 Fe286 1.996 . S
O300 C294 1.255 . S
C301 O305 1.295 . S
C301 O306 1.235 . S
O302 Fe287 1.976 . S
O302 C296 1.287 . S
O303 Fe289 1.996 . S
O303 C296 1.255 . S
C304 O297 1.287 . S
C304 O298 1.255 . S
O305 Fe287 2.002 . S
O305 C301 1.295 . S
O306 Fe289 1.997 . S
O306 C301 1.235 . S
C307 O290 1.295 . S
C307 O291 1.235 . S
Fe308 O310 1.918 . S
Fe308 O313 1.997 . S
Fe308 O314 2.002 . S
Fe308 O319 1.976 . S
Fe308 O322 1.996 . S
Fe309 O310 1.918 . S
Fe309 O317 1.997 . S
Fe309 O320 1.996 . S
Fe309 O324 1.976 . S
Fe309 O327 2.002 . S
O310 Fe308 1.918 . S
O310 Fe309 1.918 . S
O310 Fe311 1.918 . S
Fe311 O310 1.918 . S
Fe311 O312 2.002 . S
Fe311 O321 1.976 . S
Fe311 O325 1.996 . S
Fe311 O328 1.997 . S
O312 Fe311 2.002 . S
O312 C329 1.295 . S
O313 Fe308 1.997 . S
O313 C329 1.235 . S
O314 Fe308 2.002 . S
O314 C315 1.295 . S
C315 O314 1.295 . S
C315 O317 1.235 . S
C316 O321 1.287 . S
C316 O322 1.255 . S
O317 Fe309 1.997 . S
O317 C315 1.235 . S
C318 O324 1.287 . S
C318 O325 1.255 . S
O319 Fe308 1.976 . S
O319 C326 1.287 . S
O320 Fe309 1.996 . S
O320 C326 1.255 . S
O321 Fe311 1.976 . S
O321 C316 1.287 . S
O322 Fe308 1.996 . S
O322 C316 1.255 . S
C323 O327 1.295 . S
C323 O328 1.235 . S
O324 Fe309 1.976 . S
O324 C318 1.287 . S
O325 Fe311 1.996 . S
O325 C318 1.255 . S
C326 O319 1.287 . S
C326 O320 1.255 . S
O327 Fe309 2.002 . S
O327 C323 1.295 . S
O328 Fe311 1.997 . S
O328 C323 1.235 . S
C329 O312 1.295 . S
C329 O313 1.235 . S
Fe330 O332 1.918 . S
Fe330 O335 1.997 . S
Fe330 O336 2.002 . S
Fe330 O341 1.976 . S
Fe330 O344 1.996 . S
Fe331 O332 1.918 . S
Fe331 O339 1.997 . S
Fe331 O342 1.996 . S
Fe331 O346 1.976 . S
Fe331 O349 2.002 . S
O332 Fe330 1.918 . S
O332 Fe331 1.918 . S
O332 Fe333 1.918 . S
Fe333 O332 1.918 . S
Fe333 O334 2.002 . S
Fe333 O343 1.976 . S
Fe333 O347 1.996 . S
Fe333 O350 1.997 . S
O334 Fe333 2.002 . S
O334 C351 1.295 . S
O335 Fe330 1.997 . S
O335 C351 1.235 . S
O336 Fe330 2.002 . S
O336 C337 1.295 . S
C337 O336 1.295 . S
C337 O339 1.235 . S
C338 O343 1.287 . S
C338 O344 1.255 . S
O339 Fe331 1.997 . S
O339 C337 1.235 . S
C340 O346 1.287 . S
C340 O347 1.255 . S
O341 Fe330 1.976 . S
O341 C348 1.287 . S
O342 Fe331 1.996 . S
O342 C348 1.255 . S
O343 Fe333 1.976 . S
O343 C338 1.287 . S
O344 Fe330 1.996 . S
O344 C338 1.255 . S
C345 O349 1.295 . S
C345 O350 1.235 . S
O346 Fe331 1.976 . S
O346 C340 1.287 . S
O347 Fe333 1.996 . S
O347 C340 1.255 . S
C348 O341 1.287 . S
C348 O342 1.255 . S
O349 Fe331 2.002 . S
O349 C345 1.295 . S
O350 Fe333 1.997 . S
O350 C345 1.235 . S
C351 O334 1.295 . S
C351 O335 1.235 . S
C352 C353 1.387 . S
C352 H356 0.950 . S
C352 C361 1.390 1_554 S
C353 C352 1.387 . S
C353 C355 1.387 . S
H354 C361 0.950 . S
C355 C353 1.387 . S
C355 C357 1.390 1_545 S
C355 H359 0.950 . S
H356 C352 0.950 . S
C357 C355 1.390 1_565 S
C357 C358 1.387 1_554 S
C357 H360 0.950 . S
C358 C357 1.387 1_556 S
C358 C361 1.387 1_565 S
H359 C355 0.950 . S
H360 C357 0.950 . S
C361 C352 1.390 1_556 S
C361 H354 0.950 . S
C361 C358 1.387 1_545 S
C362 C363 1.387 1_554 S
C362 H366 0.950 . S
C362 C371 1.390 1_545 S
C363 C362 1.387 1_556 S
C363 C365 1.387 1_545 S
H364 C371 0.950 . S
C365 C363 1.387 1_565 S
C365 C367 1.390 1_556 S
C365 H369 0.950 . S
H366 C362 0.950 . S
C367 C365 1.390 1_554 S
C367 C368 1.387 . S
C367 H370 0.950 . S
C368 C367 1.387 . S
C368 C371 1.387 . S
H369 C365 0.950 . S
H370 C367 0.950 . S
C371 C362 1.390 1_565 S
C371 H364 0.950 . S
C371 C368 1.387 . S
C372 C373 1.388 . S
C372 H376 0.951 . S
C372 C381 1.388 1_545 S
C373 C372 1.388 . S
C373 C375 1.387 1_545 S
H374 C381 0.950 . S
C375 C373 1.387 1_565 S
C375 C377 1.390 . S
C375 H379 0.950 . S
H376 C372 0.951 . S
C377 C375 1.390 . S
C377 C378 1.387 . S
C377 H380 0.950 . S
C378 C377 1.387 . S
C378 C381 1.387 . S
H379 C375 0.950 . S
H380 C377 0.950 . S
C381 C372 1.388 1_565 S
C381 H374 0.950 . S
C381 C378 1.387 . S
C382 C383 1.387 1_545 S
C382 H386 0.950 . S
C382 C391 1.390 . S
C383 C382 1.387 1_565 S
C383 C385 1.387 . S
H384 C391 0.950 . S
C385 C383 1.387 . S
C385 C387 1.390 1_565 S
C385 H389 0.950 . S
H386 C382 0.950 . S
C387 C385 1.390 1_545 S
C387 C388 1.387 . S
C387 H390 0.950 . S
C388 C387 1.387 . S
C388 C391 1.387 . S
H389 C385 0.950 . S
H390 C387 0.950 . S
C391 C382 1.390 . S
C391 H384 0.950 . S
C391 C388 1.387 . S
C392 C393 1.387 1_556 S
C392 H396 0.950 . S
C392 C401 1.390 1_545 S
C393 C392 1.387 1_554 S
C393 C395 1.386 1_544 S
H394 C401 0.950 . S
C395 C393 1.386 1_566 S
C395 C397 1.396 . S
C395 H399 0.945 1_556 S
H396 C392 0.950 . S
C397 C395 1.396 . S
C397 C398 1.387 . S
C397 H400 0.950 . S
C398 C397 1.387 . S
C398 C401 1.387 . S
H399 C395 0.945 1_554 S
H400 C397 0.950 . S
C401 C392 1.390 1_565 S
C401 H394 0.950 . S
C401 C398 1.387 . S
C402 C403 1.387 . S
C402 H406 0.950 . S
C402 C411 1.390 1_545 S
C403 C402 1.387 . S
C403 C405 1.387 . S
H404 C411 0.950 . S
C405 C403 1.387 . S
C405 C407 1.390 1_556 S
C405 H409 0.950 . S
H406 C402 0.950 . S
C407 C405 1.390 1_554 S
C407 C408 1.387 1_545 S
C407 H410 0.950 . S
C408 C407 1.387 1_565 S
C408 C411 1.387 1_554 S
H409 C405 0.950 . S
H410 C407 0.950 . S
C411 C402 1.390 1_565 S
C411 H404 0.950 . S
C411 C408 1.387 1_556 S
C412 C413 1.387 1_545 S
C412 H416 0.950 . S
C412 C421 1.390 . S
C413 C412 1.387 1_565 S
C413 C415 1.387 . S
H414 C421 0.950 . S
C415 C413 1.387 . S
C415 C417 1.390 1_565 S
C415 H419 0.950 . S
H416 C412 0.950 . S
C417 C415 1.390 1_545 S
C417 C418 1.387 . S
C417 H420 0.950 . S
C418 C417 1.387 . S
C418 C421 1.387 . S
H419 C415 0.950 . S
H420 C417 0.950 . S
C421 C412 1.390 . S
C421 H414 0.950 . S
C421 C418 1.387 . S
C422 C423 1.387 . S
C422 H426 0.950 . S
C422 C431 1.390 . S
C423 C422 1.387 . S
C423 C425 1.387 . S
H424 C431 0.950 1_545 S
C425 C423 1.387 . S
C425 C427 1.390 . S
C425 H429 0.950 . S
H426 C422 0.950 . S
C427 C425 1.390 . S
C427 C428 1.387 1_565 S
C427 H430 0.950 1_565 S
C428 C427 1.387 1_545 S
C428 C431 1.387 1_545 S
H429 C425 0.950 . S
H430 C427 0.950 1_545 S
C431 C422 1.390 . S
C431 H424 0.950 1_565 S
C431 C428 1.387 1_565 S
C432 C433 1.387 1_554 S
C432 H436 0.950 1_554 S
C432 C441 1.390 . S
C433 C432 1.387 1_556 S
C433 C435 1.387 1_556 S
H434 C441 0.950 . S
C435 C433 1.387 1_554 S
C435 C437 1.390 . S
C435 H439 0.951 . S
H436 C432 0.950 1_556 S
C437 C435 1.390 . S
C437 C438 1.387 . S
C437 H440 0.950 . S
C438 C437 1.387 . S
C438 C441 1.387 . S
H439 C435 0.951 . S
H440 C437 0.950 . S
C441 C432 1.390 . S
C441 H434 0.950 . S
C441 C438 1.387 . S
C442 C443 1.387 . S
C442 H446 0.950 . S
C442 C451 1.390 . S
C443 C442 1.387 . S
C443 C445 1.387 . S
H444 C451 0.950 . S
C445 C443 1.387 . S
C445 C447 1.390 1_554 S
C445 H449 0.950 . S
H446 C442 0.950 . S
C447 C445 1.390 1_556 S
C447 C448 1.387 . S
C447 H450 0.950 . S
C448 C447 1.387 . S
C448 C451 1.387 1_556 S
H449 C445 0.950 . S
H450 C447 0.950 . S
C451 C442 1.390 . S
C451 H444 0.950 . S
C451 C448 1.387 1_554 S
C452 C453 1.387 . S
C452 H456 0.950 . S
C452 C461 1.390 . S
C453 C452 1.387 . S
C453 C455 1.387 . S
H454 C461 0.950 . S
C455 C453 1.387 . S
C455 C457 1.390 . S
C455 H459 0.950 . S
H456 C452 0.950 . S
C457 C455 1.390 . S
C457 C458 1.387 . S
C457 H460 0.950 . S
C458 C457 1.387 . S
C458 C461 1.387 . S
H459 C455 0.950 . S
H460 C457 0.950 . S
C461 C452 1.390 . S
C461 H454 0.950 . S
C461 C458 1.387 . S
C462 C463 1.387 . S
C462 H466 0.950 . S
C462 C471 1.390 . S
C463 C462 1.387 . S
C463 C465 1.387 . S
H464 C471 0.950 . S
C465 C463 1.387 . S
C465 C467 1.390 . S
C465 H469 0.950 . S
H466 C462 0.950 . S
C467 C465 1.390 . S
C467 C468 1.387 . S
C467 H470 0.950 . S
C468 C467 1.387 . S
C468 C471 1.387 . S
H469 C465 0.950 . S
H470 C467 0.950 . S
C471 C462 1.390 . S
C471 H464 0.950 . S
C471 C468 1.387 . S
C472 C473 1.387 . S
C472 H476 0.950 . S
C472 C481 1.390 1_556 S
C473 C472 1.387 . S
C473 C475 1.387 . S
H474 C481 0.950 . S
C475 C473 1.387 . S
C475 C477 1.390 . S
C475 H479 0.950 . S
H476 C472 0.950 . S
C477 C475 1.390 . S
C477 C478 1.387 1_556 S
C477 H480 0.950 . S
C478 C477 1.387 1_554 S
C478 C481 1.387 . S
H479 C475 0.950 . S
H480 C477 0.950 . S
C481 C472 1.390 1_554 S
C481 H474 0.950 . S
C481 C478 1.387 . S
C482 C483 1.387 1_556 S
C482 H486 0.950 . S
C482 C491 1.390 . S
C483 C482 1.387 1_554 S
C483 C485 1.387 . S
H484 C491 0.950 . S
C485 C483 1.387 . S
C485 C487 1.390 1_554 S
C485 H489 0.950 . S
H486 C482 0.950 . S
C487 C485 1.390 1_556 S
C487 C488 1.387 . S
C487 H490 0.950 . S
C488 C487 1.387 . S
C488 C491 1.387 . S
H489 C485 0.950 . S
H490 C487 0.950 . S
C491 C482 1.390 . S
C491 H484 0.950 . S
C491 C488 1.387 . S
C492 C493 1.387 . S
C492 H496 0.950 . S
C492 C501 1.390 . S
C493 C492 1.387 . S
C493 C495 1.387 . S
H494 C501 0.950 . S
C495 C493 1.387 . S
C495 C497 1.390 . S
C495 H499 0.950 . S
H496 C492 0.950 . S
C497 C495 1.390 . S
C497 C498 1.387 . S
C497 H500 0.950 . S
C498 C497 1.387 . S
C498 C501 1.387 . S
H499 C495 0.950 . S
H500 C497 0.950 . S
C501 C492 1.390 . S
C501 H494 0.950 . S
C501 C498 1.387 . S
C502 C503 1.387 . S
C502 H506 0.950 . S
C502 C511 1.390 . S
C503 C502 1.387 . S
C503 C505 1.387 . S
H504 C511 0.950 . S
C505 C503 1.387 . S
C505 C507 1.390 . S
C505 H509 0.950 . S
H506 C502 0.950 . S
C507 C505 1.390 . S
C507 C508 1.387 . S
C507 H510 0.950 . S
C508 C507 1.387 . S
C508 C511 1.387 . S
H509 C505 0.950 . S
H510 C507 0.950 . S
C511 C502 1.390 . S
C511 H504 0.950 . S
C511 C508 1.387 . S
C512 C513 1.387 . S
C512 H516 0.950 . S
C512 C521 1.390 . S
C513 C512 1.387 . S
C513 C515 1.387 . S
H514 C521 0.950 . S
C515 C513 1.387 . S
C515 C517 1.390 . S
C515 H519 0.950 . S
H516 C512 0.950 . S
C517 C515 1.390 . S
C517 C518 1.387 . S
C517 H520 0.950 . S
C518 C517 1.387 . S
C518 C521 1.387 . S
H519 C515 0.950 . S
H520 C517 0.950 . S
C521 C512 1.390 . S
C521 H514 0.950 . S
C521 C518 1.387 . S
C522 C523 1.387 . S
C522 H526 0.950 . S
C522 C531 1.390 . S
C523 C522 1.387 . S
C523 C525 1.387 . S
H524 C531 0.950 . S
C525 C523 1.387 . S
C525 C527 1.390 . S
C525 H529 0.950 . S
H526 C522 0.950 . S
C527 C525 1.390 . S
C527 C528 1.387 . S
C527 H530 0.950 . S
C528 C527 1.387 . S
C528 C531 1.387 . S
H529 C525 0.950 . S
H530 C527 0.950 . S
C531 C522 1.390 . S
C531 H524 0.950 . S
C531 C528 1.387 . S
C532 C533 1.387 . S
C532 H536 0.950 . S
C532 C541 1.390 . S
C533 C532 1.387 . S
C533 C535 1.387 . S
H534 C541 0.950 . S
C535 C533 1.387 . S
C535 C537 1.390 . S
C535 H539 0.950 . S
H536 C532 0.950 . S
C537 C535 1.390 . S
C537 C538 1.387 . S
C537 H540 0.950 . S
C538 C537 1.387 . S
C538 C541 1.387 . S
H539 C535 0.950 . S
H540 C537 0.950 . S
C541 C532 1.390 . S
C541 H534 0.950 . S
C541 C538 1.387 . S
C542 C543 1.387 . S
C542 H546 0.950 . S
C542 C551 1.390 . S
C543 C542 1.387 . S
C543 C545 1.387 . S
H544 C551 0.950 . S
C545 C543 1.387 . S
C545 C547 1.390 . S
C545 H549 0.950 . S
H546 C542 0.950 . S
C547 C545 1.390 . S
C547 C548 1.387 . S
C547 H550 0.950 . S
C548 C547 1.387 . S
C548 C551 1.387 . S
H549 C545 0.950 . S
H550 C547 0.950 . S
C551 C542 1.390 . S
C551 H544 0.950 . S
C551 C548 1.387 . S
C552 C553 1.387 . S
C552 H556 0.950 . S
C552 C561 1.390 . S
C553 C552 1.387 . S
C553 C555 1.387 . S
H554 C561 0.950 . S
C555 C553 1.387 . S
C555 C557 1.390 . S
C555 H559 0.950 . S
H556 C552 0.950 . S
C557 C555 1.390 . S
C557 C558 1.387 . S
C557 H560 0.950 . S
C558 C557 1.387 . S
C558 C561 1.387 . S
H559 C555 0.950 . S
H560 C557 0.950 . S
C561 C552 1.390 . S
C561 H554 0.950 . S
C561 C558 1.387 . S
C562 C563 1.387 . S
C562 H566 0.950 . S
C562 C571 1.390 . S
C563 C562 1.387 . S
C563 C565 1.387 . S
H564 C571 0.950 . S
C565 C563 1.387 . S
C565 C567 1.390 . S
C565 H569 0.950 . S
H566 C562 0.950 . S
C567 C565 1.390 . S
C567 C568 1.387 . S
C567 H570 0.950 . S
C568 C567 1.387 . S
C568 C571 1.387 . S
H569 C565 0.950 . S
H570 C567 0.950 . S
C571 C562 1.390 . S
C571 H564 0.950 . S
C571 C568 1.387 . S
C572 C573 1.387 . S
C572 H576 0.950 . S
C572 C581 1.390 . S
C573 C572 1.387 . S
C573 C575 1.387 . S
H574 C581 0.950 . S
C575 C573 1.387 . S
C575 C577 1.390 . S
C575 H579 0.950 . S
H576 C572 0.950 . S
C577 C575 1.390 . S
C577 C578 1.387 . S
C577 H580 0.950 . S
C578 C577 1.387 . S
C578 C581 1.387 . S
H579 C575 0.950 . S
H580 C577 0.950 . S
C581 C572 1.390 . S
C581 H574 0.950 . S
C581 C578 1.387 . S
C582 C583 1.387 . S
C582 H586 0.950 . S
C582 C591 1.390 . S
C583 C582 1.387 . S
C583 C585 1.387 . S
H584 C591 0.950 . S
C585 C583 1.387 . S
C585 C587 1.390 . S
C585 H589 0.950 . S
H586 C582 0.950 . S
C587 C585 1.390 . S
C587 C588 1.387 . S
C587 H590 0.950 . S
C588 C587 1.387 . S
C588 C591 1.387 . S
H589 C585 0.950 . S
H590 C587 0.950 . S
C591 C582 1.390 . S
C591 H584 0.950 . S
C591 C588 1.387 . S
C592 C593 1.387 . S
C592 H596 0.950 . S
C592 C601 1.390 . S
C593 C592 1.387 . S
C593 C595 1.387 . S
H594 C601 0.950 . S
C595 C593 1.387 . S
C595 C597 1.390 . S
C595 H599 0.950 . S
H596 C592 0.950 . S
C597 C595 1.390 . S
C597 C598 1.387 . S
C597 H600 0.950 . S
C598 C597 1.387 . S
C598 C601 1.387 . S
H599 C595 0.950 . S
H600 C597 0.950 . S
C601 C592 1.390 . S
C601 H594 0.950 . S
C601 C598 1.387 . S
C602 C603 1.387 . S
C602 H606 0.950 . S
C602 C611 1.390 . S
C603 C602 1.387 . S
C603 C605 1.387 . S
H604 C611 0.950 . S
C605 C603 1.387 . S
C605 C607 1.390 . S
C605 H609 0.950 . S
H606 C602 0.950 . S
C607 C605 1.390 . S
C607 C608 1.387 . S
C607 H610 0.950 . S
C608 C607 1.387 . S
C608 C611 1.387 . S
H609 C605 0.950 . S
H610 C607 0.950 . S
C611 C602 1.390 . S
C611 H604 0.950 . S
C611 C608 1.387 . S
C612 C613 1.387 . S
C612 H616 0.950 . S
C612 C621 1.390 . S
C613 C612 1.387 . S
C613 C615 1.387 . S
H614 C621 0.950 . S
C615 C613 1.387 . S
C615 C617 1.390 . S
C615 H619 0.950 . S
H616 C612 0.950 . S
C617 C615 1.390 . S
C617 C618 1.387 . S
C617 H620 0.950 . S
C618 C617 1.387 . S
C618 C621 1.387 . S
H619 C615 0.950 . S
H620 C617 0.950 . S
C621 C612 1.390 . S
C621 H614 0.950 . S
C621 C618 1.387 . S
C622 C623 1.387 . S
C622 H626 0.950 . S
C622 C631 1.390 . S
C623 C622 1.387 . S
C623 C625 1.387 . S
H624 C631 0.950 . S
C625 C623 1.387 . S
C625 C627 1.390 . S
C625 H629 0.950 . S
H626 C622 0.950 . S
C627 C625 1.390 . S
C627 C628 1.387 . S
C627 H630 0.950 . S
C628 C627 1.387 . S
C628 C631 1.387 . S
H629 C625 0.950 . S
H630 C627 0.950 . S
C631 C622 1.390 . S
C631 H624 0.950 . S
C631 C628 1.387 . S
C632 C633 1.387 . S
C632 H636 0.950 . S
C632 C641 1.390 1_545 S
C633 C632 1.387 . S
C633 C635 1.387 . S
H634 C641 0.950 . S
C635 C633 1.387 . S
C635 C637 1.390 1_545 S
C635 H639 0.950 . S
H636 C632 0.950 . S
C637 C635 1.390 1_565 S
C637 C638 1.387 . S
C637 H640 0.950 . S
C638 C637 1.387 . S
C638 C641 1.387 . S
H639 C635 0.950 . S
H640 C637 0.950 . S
C641 C632 1.390 1_565 S
C641 H634 0.950 . S
C641 C638 1.387 . S
C642 C643 1.387 . S
C642 H646 0.950 . S
C642 C651 1.390 1_545 S
C643 C642 1.387 . S
C643 C645 1.387 . S
H644 C651 0.950 . S
C645 C643 1.387 . S
C645 C647 1.390 1_545 S
C645 H649 0.950 . S
H646 C642 0.950 . S
C647 C645 1.390 1_565 S
C647 C648 1.387 . S
C647 H650 0.950 . S
C648 C647 1.387 . S
C648 C651 1.387 . S
H649 C645 0.950 . S
H650 C647 0.950 . S
C651 C642 1.390 1_565 S
C651 H644 0.950 . S
C651 C648 1.387 . S
C652 C653 1.387 . S
C652 H656 0.950 . S
C652 C661 1.390 1_565 S
C653 C652 1.387 . S
C653 C655 1.387 . S
H654 C661 0.950 . S
C655 C653 1.387 . S
C655 C657 1.390 1_565 S
C655 H659 0.950 . S
H656 C652 0.950 . S
C657 C655 1.390 1_545 S
C657 C658 1.387 . S
C657 H660 0.950 . S
C658 C657 1.387 . S
C658 C661 1.387 . S
H659 C655 0.950 . S
H660 C657 0.950 . S
C661 C652 1.390 1_545 S
C661 H654 0.950 . S
C661 C658 1.387 . S
C662 C663 1.387 . S
C662 H666 0.950 . S
C662 C671 1.390 1_565 S
C663 C662 1.387 . S
C663 C665 1.387 . S
H664 C671 0.950 . S
C665 C663 1.387 . S
C665 C667 1.390 1_565 S
C665 H669 0.950 . S
H666 C662 0.950 . S
C667 C665 1.390 1_545 S
C667 C668 1.387 . S
C667 H670 0.950 . S
C668 C667 1.387 . S
C668 C671 1.387 . S
H669 C665 0.950 . S
H670 C667 0.950 . S
C671 C662 1.390 1_545 S
C671 H664 0.950 . S
C671 C668 1.387 . S
C672 C673 1.387 . S
C672 H676 0.950 . S
C672 C681 1.390 . S
C673 C672 1.387 . S
C673 C675 1.387 1_556 S
H674 C681 0.950 . S
C675 C673 1.387 1_554 S
C675 C677 1.390 . S
C675 H679 0.950 . S
H676 C672 0.950 . S
C677 C675 1.390 . S
C677 C678 1.387 . S
C677 H680 0.950 . S
C678 C677 1.387 . S
C678 C681 1.387 1_554 S
H679 C675 0.950 . S
H680 C677 0.950 . S
C681 C672 1.390 . S
C681 H674 0.950 . S
C681 C678 1.387 1_556 S
C682 C683 1.387 1_556 S
C682 H686 0.950 . S
C682 C691 1.390 . S
C683 C682 1.387 1_554 S
C683 C685 1.387 . S
H684 C691 0.950 . S
C685 C683 1.387 . S
C685 C687 1.390 . S
C685 H689 0.950 . S
H686 C682 0.950 . S
C687 C685 1.390 . S
C687 C688 1.387 1_554 S
C687 H690 0.950 . S
C688 C687 1.387 1_556 S
C688 C691 1.387 . S
H689 C685 0.950 . S
H690 C687 0.950 . S
C691 C682 1.390 . S
C691 H684 0.950 . S
C691 C688 1.387 . S
C692 C693 1.387 . S
C692 H696 0.950 . S
C692 C701 1.390 . S
C693 C692 1.387 . S
C693 C695 1.387 . S
H694 C701 0.950 . S
C695 C693 1.387 . S
C695 C697 1.390 . S
C695 H699 0.950 . S
H696 C692 0.950 . S
C697 C695 1.390 . S
C697 C698 1.387 . S
C697 H700 0.950 . S
C698 C697 1.387 . S
C698 C701 1.387 . S
H699 C695 0.950 . S
H700 C697 0.950 . S
C701 C692 1.390 . S
C701 H694 0.950 . S
C701 C698 1.387 . S
C702 C703 1.387 . S
C702 H706 0.950 . S
C702 C711 1.390 . S
C703 C702 1.387 . S
C703 C705 1.387 . S
H704 C711 0.950 . S
C705 C703 1.387 . S
C705 C707 1.390 . S
C705 H709 0.950 . S
H706 C702 0.950 . S
C707 C705 1.390 . S
C707 C708 1.387 . S
C707 H710 0.950 . S
C708 C707 1.387 . S
C708 C711 1.387 . S
H709 C705 0.950 . S
H710 C707 0.950 . S
C711 C702 1.390 . S
C711 H704 0.950 . S
C711 C708 1.387 . S
C712 C713 1.387 . S
C712 H716 0.950 . S
C712 C721 1.390 . S
C713 C712 1.387 . S
C713 C715 1.387 1_556 S
H714 C721 0.950 . S
C715 C713 1.387 1_554 S
C715 C717 1.390 . S
C715 H719 0.950 . S
H716 C712 0.950 . S
C717 C715 1.390 . S
C717 C718 1.387 . S
C717 H720 0.950 . S
C718 C717 1.387 . S
C718 C721 1.387 1_554 S
H719 C715 0.950 . S
H720 C717 0.950 . S
C721 C712 1.390 . S
C721 H714 0.950 . S
C721 C718 1.387 1_556 S
C722 C723 1.387 1_554 S
C722 H726 0.950 . S
C722 C731 1.390 . S
C723 C722 1.387 1_556 S
C723 C725 1.387 . S
H724 C731 0.950 . S
C725 C723 1.387 . S
C725 C727 1.390 . S
C725 H729 0.950 . S
H726 C722 0.950 . S
C727 C725 1.390 . S
C727 C728 1.387 1_556 S
C727 H730 0.950 . S
C728 C727 1.387 1_554 S
C728 C731 1.387 . S
H729 C725 0.950 . S
H730 C727 0.950 . S
C731 C722 1.390 . S
C731 H724 0.950 . S
C731 C728 1.387 . S
C732 C733 1.387 . S
C732 H736 0.950 . S
C732 C741 1.390 . S
C733 C732 1.387 . S
C733 C735 1.387 . S
H734 C741 0.950 . S
C735 C733 1.387 . S
C735 C737 1.390 . S
C735 H739 0.950 . S
H736 C732 0.950 . S
C737 C735 1.390 . S
C737 C738 1.387 . S
C737 H740 0.950 . S
C738 C737 1.387 . S
C738 C741 1.387 . S
H739 C735 0.950 . S
H740 C737 0.950 . S
C741 C732 1.390 . S
C741 H734 0.950 . S
C741 C738 1.387 . S
C742 C743 1.387 . S
C742 H746 0.950 . S
C742 C751 1.390 . S
C743 C742 1.387 . S
C743 C745 1.387 . S
H744 C751 0.950 . S
C745 C743 1.387 . S
C745 C747 1.390 . S
C745 H749 0.950 . S
H746 C742 0.950 . S
C747 C745 1.390 . S
C747 C748 1.387 . S
C747 H750 0.950 . S
C748 C747 1.387 . S
C748 C751 1.387 . S
H749 C745 0.950 . S
H750 C747 0.950 . S
C751 C742 1.390 . S
C751 H744 0.950 . S
C751 C748 1.387 . S
C752 C753 1.387 . S
C752 H756 0.950 . S
C752 C761 1.390 1_455 S
C753 C752 1.387 . S
C753 C755 1.387 . S
H754 C761 0.950 . S
C755 C753 1.387 . S
C755 C757 1.390 1_455 S
C755 H759 0.950 . S
H756 C752 0.950 . S
C757 C755 1.390 1_655 S
C757 C758 1.387 . S
C757 H760 0.950 . S
C758 C757 1.387 . S
C758 C761 1.387 . S
H759 C755 0.950 . S
H760 C757 0.950 . S
C761 C752 1.390 1_655 S
C761 H754 0.950 . S
C761 C758 1.387 . S
C762 C763 1.387 . S
C762 H766 0.950 . S
C762 C771 1.390 . S
C763 C762 1.387 . S
C763 C765 1.387 . S
H764 C771 0.950 . S
C765 C763 1.387 . S
C765 C767 1.390 . S
C765 H769 0.950 . S
H766 C762 0.950 . S
C767 C765 1.390 . S
C767 C768 1.387 . S
C767 H770 0.950 . S
C768 C767 1.387 . S
C768 C771 1.387 . S
H769 C765 0.950 . S
H770 C767 0.950 . S
C771 C762 1.390 . S
C771 H764 0.950 . S
C771 C768 1.387 . S
C772 C773 1.387 . S
C772 H776 0.950 . S
C772 C781 1.390 . S
C773 C772 1.387 . S
C773 C775 1.387 . S
H774 C781 0.950 . S
C775 C773 1.387 . S
C775 C777 1.390 . S
C775 H779 0.950 . S
H776 C772 0.950 . S
C777 C775 1.390 . S
C777 C778 1.387 . S
C777 H780 0.950 . S
C778 C777 1.387 . S
C778 C781 1.387 . S
H779 C775 0.950 . S
H780 C777 0.950 . S
C781 C772 1.390 . S
C781 H774 0.950 . S
C781 C778 1.387 . S
C782 C783 1.387 . S
C782 H786 0.950 . S
C782 C791 1.390 1_455 S
C783 C782 1.387 . S
C783 C785 1.387 . S
H784 C791 0.950 . S
C785 C783 1.387 . S
C785 C787 1.390 1_455 S
C785 H789 0.950 . S
H786 C782 0.950 . S
C787 C785 1.390 1_655 S
C787 C788 1.387 . S
C787 H790 0.950 . S
C788 C787 1.387 . S
C788 C791 1.387 . S
H789 C785 0.950 . S
H790 C787 0.950 . S
C791 C782 1.390 1_655 S
C791 H784 0.950 . S
C791 C788 1.387 . S
C792 C793 1.387 . S
C792 H796 0.950 . S
C792 C801 1.390 1_655 S
C793 C792 1.387 . S
C793 C795 1.387 . S
H794 C801 0.950 . S
C795 C793 1.387 . S
C795 C797 1.390 1_655 S
C795 H799 0.950 . S
H796 C792 0.950 . S
C797 C795 1.390 1_455 S
C797 C798 1.387 . S
C797 H800 0.950 . S
C798 C797 1.387 . S
C798 C801 1.387 . S
H799 C795 0.950 . S
H800 C797 0.950 . S
C801 C792 1.390 1_455 S
C801 H794 0.950 . S
C801 C798 1.387 . S
C802 C803 1.387 . S
C802 H806 0.950 . S
C802 C811 1.390 . S
C803 C802 1.387 . S
C803 C805 1.387 . S
H804 C811 0.950 . S
C805 C803 1.387 . S
C805 C807 1.390 . S
C805 H809 0.950 . S
H806 C802 0.950 . S
C807 C805 1.390 . S
C807 C808 1.387 . S
C807 H810 0.950 . S
C808 C807 1.387 . S
C808 C811 1.387 . S
H809 C805 0.950 . S
H810 C807 0.950 . S
C811 C802 1.390 . S
C811 H804 0.950 . S
C811 C808 1.387 . S
C812 C813 1.387 . S
C812 H816 0.950 . S
C812 C821 1.390 . S
C813 C812 1.387 . S
C813 C815 1.387 . S
H814 C821 0.950 . S
C815 C813 1.387 . S
C815 C817 1.390 . S
C815 H819 0.950 . S
H816 C812 0.950 . S
C817 C815 1.390 . S
C817 C818 1.387 . S
C817 H820 0.950 . S
C818 C817 1.387 . S
C818 C821 1.387 . S
H819 C815 0.950 . S
H820 C817 0.950 . S
C821 C812 1.390 . S
C821 H814 0.950 . S
C821 C818 1.387 . S
C822 C823 1.387 . S
C822 H826 0.950 . S
C822 C831 1.390 1_455 S
C823 C822 1.387 . S
C823 C825 1.387 . S
H824 C831 0.950 . S
C825 C823 1.387 . S
C825 C827 1.390 1_455 S
C825 H829 0.950 . S
H826 C822 0.950 . S
C827 C825 1.390 1_655 S
C827 C828 1.387 . S
C827 H830 0.950 . S
C828 C827 1.387 . S
C828 C831 1.387 . S
H829 C825 0.950 . S
H830 C827 0.950 . S
C831 C822 1.390 1_655 S
C831 H824 0.950 . S
C831 C828 1.387 . S
C353 C10 1.506 . S
C358 C293 1.586 . S
C363 C279 1.587 . S
C368 C30 1.509 . S
C373 C337 1.587 . S
C378 C54 1.509 . S
C383 C315 1.586 . S
C388 C74 1.508 . S
C393 C205 1.587 . S
C398 C106 1.527 . S
C403 C128 1.525 . S
C408 C197 1.586 . S
C413 C263 1.587 . S
C418 C142 1.525 . S
C423 C164 1.528 . S
C428 C235 1.587 . S
C433 C131 1.586 . S
C438 C186 1.506 . S
C443 C206 1.509 . S
C448 C109 1.587 . S
C453 C161 1.586 . S
C458 C238 1.507 . S
C463 C139 1.586 . S
C468 C252 1.509 . S
C473 C272 1.527 . S
C478 C29 1.587 . S
C483 C21 1.586 . S
C488 C296 1.525 . S
C493 C318 1.524 . S
C498 C73 1.586 . S
C503 C65 1.587 . S
C508 C340 1.527 . S
C513 C228 1.471 . S
C518 C18 1.471 . S
C523 C32 1.471 . S
C528 C260 1.471 . S
C533 C194 1.471 . S
C538 C62 1.471 . S
C543 C208 1.471 . S
C548 C76 1.471 . S
C553 C316 1.467 . S
C558 C98 1.467 . S
C563 C120 1.467 . S
C568 C338 1.467 . S
C573 C140 1.467 . S
C578 C282 1.467 . S
C583 C294 1.468 . S
C588 C162 1.468 . S
C593 C7 1.666 . S
C598 C37 1.666 . S
C603 C51 1.666 . S
C608 C81 1.666 . S
C613 C103 1.675 . S
C618 C125 1.675 . S
C623 C175 1.674 . S
C628 C153 1.674 . S
C633 C213 1.667 . S
C638 C183 1.667 . S
C643 C241 1.666 . S
C648 C249 1.666 . S
C653 C307 1.674 . S
C658 C271 1.674 . S
C663 C329 1.674 . S
C668 C351 1.674 . S
C673 C285 0.877 . S
C678 C15 0.872 . S
C683 C43 0.873 . S
C688 C301 0.878 . S
C693 C59 0.873 . S
C698 C323 0.878 . S
C703 C87 0.872 . S
C708 C345 0.877 . S
C713 C95 0.880 . S
C718 C191 0.875 . S
C723 C117 0.878 . S
C728 C219 0.873 . S
C733 C147 0.881 . S
C738 C227 0.876 . S
C743 C257 0.871 . S
C748 C169 0.876 . S
C753 C8 1.576 . S
C758 C216 1.576 . S
C763 C40 1.578 . S
C768 C184 1.578 . S
C773 C250 1.578 . S
C778 C52 1.578 . S
C783 C230 1.576 . S
C788 C84 1.576 . S
C793 C96 1.555 . S
C798 C304 1.555 . S
C803 C118 1.555 . S
C808 C274 1.555 . S
C813 C348 1.558 . S
C818 C150 1.558 . S
C823 C172 1.558 . S
C828 C326 1.558 . S
