# Generated by pormake.
# Topology umb, (4)-cn, num edge types: 1
# Building blocks:
#     Node 0, Type 0, BuildingBlock: KOZSID_clean_sbu_0, # of connection points: 4
#     Node 1, Type 0, BuildingBlock: KOZSID_clean_sbu_0, # of connection points: 4
#     Node 2, Type 0, BuildingBlock: KOZSID_clean_sbu_0, # of connection points: 4
#     Node 3, Type 0, BuildingBlock: KOZSID_clean_sbu_0, # of connection points: 4
#     Node 4, Type 0, BuildingBlock: KOZSID_clean_sbu_0, # of connection points: 4
#     Node 5, Type 0, BuildingBlock: KOZSID_clean_sbu_0, # of connection points: 4
#     Node 6, Type 0, BuildingBlock: KOZSID_clean_sbu_0, # of connection points: 4
#     Node 7, Type 0, BuildingBlock: KOZSID_clean_sbu_0, # of connection points: 4
#     Node 8, Type 0, BuildingBlock: KOZSID_clean_sbu_0, # of connection points: 4
#     Node 9, Type 0, BuildingBlock: KOZSID_clean_sbu_0, # of connection points: 4
#     Node 10, Type 0, BuildingBlock: KOZSID_clean_sbu_0, # of connection points: 4
#     Node 11, Type 0, BuildingBlock: KOZSID_clean_sbu_0, # of connection points: 4
#     Edge 12, Type (0, 0), BuildingBlock: AJUNOK_clean_linker_0, # of connection points: 2
#     Edge 13, Type (0, 0), BuildingBlock: AJUNOK_clean_linker_0, # of connection points: 2
#     Edge 14, Type (0, 0), BuildingBlock: AJUNOK_clean_linker_0, # of connection points: 2
#     Edge 15, Type (0, 0), BuildingBlock: AJUNOK_clean_linker_0, # of connection points: 2
#     Edge 16, Type (0, 0), BuildingBlock: AJUNOK_clean_linker_0, # of connection points: 2
#     Edge 17, Type (0, 0), BuildingBlock: AJUNOK_clean_linker_0, # of connection points: 2
#     Edge 18, Type (0, 0), BuildingBlock: AJUNOK_clean_linker_0, # of connection points: 2
#     Edge 19, Type (0, 0), BuildingBlock: AJUNOK_clean_linker_0, # of connection points: 2
#     Edge 20, Type (0, 0), BuildingBlock: AJUNOK_clean_linker_0, # of connection points: 2
#     Edge 21, Type (0, 0), BuildingBlock: AJUNOK_clean_linker_0, # of connection points: 2
#     Edge 22, Type (0, 0), BuildingBlock: AJUNOK_clean_linker_0, # of connection points: 2
#     Edge 23, Type (0, 0), BuildingBlock: AJUNOK_clean_linker_0, # of connection points: 2
#     Edge 24, Type (0, 0), BuildingBlock: AJUNOK_clean_linker_0, # of connection points: 2
#     Edge 25, Type (0, 0), BuildingBlock: AJUNOK_clean_linker_0, # of connection points: 2
#     Edge 26, Type (0, 0), BuildingBlock: AJUNOK_clean_linker_0, # of connection points: 2
#     Edge 27, Type (0, 0), BuildingBlock: AJUNOK_clean_linker_0, # of connection points: 2
#     Edge 28, Type (0, 0), BuildingBlock: AJUNOK_clean_linker_0, # of connection points: 2
#     Edge 29, Type (0, 0), BuildingBlock: AJUNOK_clean_linker_0, # of connection points: 2
#     Edge 30, Type (0, 0), BuildingBlock: AJUNOK_clean_linker_0, # of connection points: 2
#     Edge 31, Type (0, 0), BuildingBlock: AJUNOK_clean_linker_0, # of connection points: 2
#     Edge 32, Type (0, 0), BuildingBlock: AJUNOK_clean_linker_0, # of connection points: 2
#     Edge 33, Type (0, 0), BuildingBlock: AJUNOK_clean_linker_0, # of connection points: 2
#     Edge 34, Type (0, 0), BuildingBlock: AJUNOK_clean_linker_0, # of connection points: 2
#     Edge 35, Type (0, 0), BuildingBlock: AJUNOK_clean_linker_0, # of connection points: 2
# Relax obj value: 0.222
# Max RMSD: 0.237
# Mean RMSD: 0.236
data_MOF--net-umb--node1-KOZSID_clean_sbu_0--edge1-AJUNOK_clean_linker_0
_symmetry_space_group_name_H-M    P1
_symmetry_Int_Tables_number       1
_symmetry_cell_setting            triclinic
loop_
_symmetry_equiv_pos_as_xyz
'x, y, z'
_cell_length_a     48.674892
_cell_length_b     48.759656
_cell_length_c     31.65329
_cell_angle_alpha  90.13104
_cell_angle_beta   89.886064
_cell_angle_gamma 120.13601
loop_
_atom_site_label
_atom_site_type_symbol
_atom_site_fract_x
_atom_site_fract_y
_atom_site_fract_z
_atom_type_partial_charge
C0 C 0.57171 0.21509 0.2278 0.0
C1 C 0.58817 0.21615 0.19142 0.0
C2 C 0.60624 0.20241 0.20116 0.0
C3 C 0.59946 0.19294 0.24267 0.0
N4 N 0.57793 0.19952 0.25892 0.0
Co5 Co 0.5625 0.19091 0.31787 0.0
N6 N 0.60042 0.19049 0.33929 0.0
C7 C 0.62019 0.1856 0.31486 0.0
C8 C 0.64381 0.18511 0.33809 0.0
C9 C 0.63812 0.18959 0.37956 0.0
C10 C 0.61128 0.19264 0.37954 0.0
N11 N 0.54649 0.18326 0.37681 0.0
C12 C 0.56181 0.18688 0.41403 0.0
C13 C 0.54063 0.17791 0.44765 0.0
C14 C 0.51118 0.16793 0.43065 0.0
C15 C 0.51592 0.17135 0.38777 0.0
N16 N 0.52498 0.19212 0.29588 0.0
C17 C 0.49694 0.18027 0.31619 0.0
C18 C 0.47871 0.19198 0.30045 0.0
C19 C 0.49643 0.21269 0.26912 0.0
C20 C 0.52434 0.21155 0.26511 0.0
N21 N 0.5423 0.14365 0.30866 0.0
C22 C 0.52686 0.07885 0.29598 0.0
C23 C 0.53552 0.09377 0.33564 0.0
C24 C 0.54327 0.12549 0.34113 0.0
C25 C 0.52462 0.09723 0.26295 0.0
C26 C 0.53208 0.1292 0.26999 0.0
N27 N 0.58386 0.23677 0.32734 0.0
C28 C 0.58549 0.28423 0.35302 0.0
C29 C 0.61593 0.3028 0.33578 0.0
C30 C 0.63006 0.28769 0.31515 0.0
C31 C 0.61397 0.25491 0.31187 0.0
C32 C 0.56959 0.25108 0.34793 0.0
H33 H 0.62604 0.24425 0.29652 0.0
H34 H 0.54591 0.23704 0.36059 0.0
H35 H 0.55164 0.13551 0.37189 0.0
H36 H 0.53083 0.14256 0.2436 0.0
C37 C 0.61795 0.18586 0.27021 0.0
C38 C 0.54981 0.22831 0.23206 0.0
C39 C 0.59513 0.19475 0.41825 0.0
C40 C 0.49393 0.16947 0.35786 0.0
H41 H 0.58787 0.22652 0.16137 0.0
H42 H 0.62382 0.2015 0.18115 0.0
H43 H 0.66327 0.18251 0.32631 0.0
H44 H 0.65181 0.19006 0.40673 0.0
H45 H 0.54577 0.17798 0.48091 0.0
H46 H 0.48918 0.16016 0.44766 0.0
H47 H 0.4572 0.18952 0.31421 0.0
H48 H 0.48999 0.22863 0.2548 0.0
H49 H 0.53704 0.0812 0.36287 0.0
H50 H 0.51839 0.08762 0.23134 0.0
H51 H 0.5742 0.29517 0.37013 0.0
H52 H 0.65399 0.30116 0.30266 0.0
C53 C 0.37943 0.57982 0.55908 0.0
C54 C 0.39558 0.60223 0.52798 0.0
C55 C 0.42706 0.61899 0.5402 0.0
C56 C 0.42872 0.6062 0.57824 0.0
N57 N 0.40022 0.58221 0.59003 0.0
Co58 Co 0.39026 0.56146 0.64625 0.0
N59 N 0.42745 0.59703 0.67408 0.0
C60 C 0.45334 0.61901 0.65339 0.0
C61 C 0.47618 0.64028 0.68055 0.0
C62 C 0.46388 0.6307 0.72058 0.0
C63 C 0.43408 0.604 0.71582 0.0
N64 N 0.37829 0.54021 0.70203 0.0
C65 C 0.38794 0.55212 0.74158 0.0
C66 C 0.37361 0.5282 0.77148 0.0
C67 C 0.35473 0.50054 0.74973 0.0
C68 C 0.3585 0.50894 0.70781 0.0
N69 N 0.35299 0.52622 0.61795 0.0
C70 C 0.33639 0.49623 0.63201 0.0
C71 C 0.30984 0.47797 0.60777 0.0
C72 C 0.30957 0.49796 0.57729 0.0
C73 C 0.33593 0.52748 0.58466 0.0
N74 N 0.418 0.54224 0.63503 0.0
C75 C 0.46836 0.52817 0.62279 0.0
C76 C 0.45912 0.53263 0.66303 0.0
C77 C 0.43475 0.53982 0.66835 0.0
C78 C 0.44995 0.52886 0.58864 0.0
C79 C 0.42502 0.53587 0.59537 0.0
N80 N 0.36517 0.58183 0.65829 0.0
C81 C 0.31723 0.58099 0.68042 0.0
C82 C 0.33021 0.61268 0.6679 0.0
C83 C 0.3613 0.62884 0.65272 0.0
C84 C 0.37838 0.61327 0.64879 0.0
C85 C 0.33505 0.56574 0.67469 0.0
H86 H 0.40227 0.62677 0.6371 0.0
H87 H 0.32444 0.54099 0.68287 0.0
H88 H 0.43092 0.54503 0.70003 0.0
H89 H 0.41232 0.53731 0.56828 0.0
C90 C 0.45285 0.62159 0.60889 0.0
C91 C 0.34454 0.55625 0.55932 0.0
C92 C 0.4136 0.58466 0.75133 0.0
C93 C 0.34064 0.48946 0.67386 0.0
H94 H 0.3857 0.60699 0.5003 0.0
H95 H 0.44581 0.63993 0.52503 0.0
H96 H 0.49865 0.66088 0.67229 0.0
H97 H 0.47559 0.64194 0.74987 0.0
H98 H 0.37706 0.53035 0.80535 0.0
H99 H 0.33954 0.47726 0.76304 0.0
H100 H 0.29127 0.45383 0.6138 0.0
H101 H 0.29152 0.49186 0.55341 0.0
H102 H 0.47125 0.53131 0.69092 0.0
H103 H 0.45548 0.52518 0.55672 0.0
H104 H 0.29343 0.56801 0.6933 0.0
H105 H 0.37255 0.65369 0.64417 0.0
C106 C 0.81222 0.37386 0.89338 0.0
C107 C 0.8058 0.39007 0.86272 0.0
C108 C 0.8206 0.42142 0.87545 0.0
C109 C 0.83527 0.42287 0.91329 0.0
N110 N 0.83083 0.39438 0.92442 0.0
Co111 Co 0.84182 0.38389 0.98001 0.0
N112 N 0.84343 0.42064 0.00889 0.0
C113 C 0.84744 0.44674 0.98891 0.0
C114 C 0.84884 0.46913 0.01672 0.0
C115 C 0.84589 0.45631 0.0564 0.0
C116 C 0.84266 0.42659 0.05081 0.0
N117 N 0.85129 0.37146 0.03527 0.0
C118 C 0.84886 0.38051 0.07516 0.0
C119 C 0.8573 0.36488 0.1045 0.0
C120 C 0.86612 0.34638 0.08206 0.0
C121 C 0.86234 0.35132 0.04032 0.0
N122 N 0.83982 0.34706 0.95057 0.0
C123 C 0.85316 0.3303 0.9639 0.0
C124 C 0.84451 0.30392 0.93915 0.0
C125 C 0.82403 0.30391 0.90917 0.0
C126 C 0.82117 0.33027 0.9173 0.0
N127 N 0.88883 0.41162 0.96875 0.0
C128 C 0.95433 0.45951 0.95633 0.0
C129 C 0.94048 0.45143 0.99658 0.0
C130 C 0.90834 0.4282 1.002 0.0
C131 C 0.93437 0.44222 0.92212 0.0
C132 C 0.90201 0.4183 0.929 0.0
N133 N 0.79622 0.35857 0.9918 0.0
C134 C 0.74854 0.30932 0.00835 0.0
C135 C 0.73007 0.32296 0.99781 0.0
C136 C 0.7453 0.35485 0.98638 0.0
C137 C 0.77811 0.37217 0.98398 0.0
C138 C 0.78185 0.32763 1.00485 0.0
H139 H 0.78869 0.3965 0.97438 0.0
H140 H 0.79589 0.31671 0.01177 0.0
H141 H 0.89921 0.42485 0.03363 0.0
H142 H 0.88751 0.40581 0.90198 0.0
C143 C 0.84422 0.44672 0.94444 0.0
C144 C 0.80081 0.33911 0.89304 0.0
C145 C 0.84182 0.40597 0.08581 0.0
C146 C 0.86397 0.33391 1.0058 0.0
H147 H 0.79108 0.38017 0.835 0.0
H148 H 0.81835 0.44022 0.86073 0.0
H149 H 0.85075 0.49165 0.00912 0.0
H150 H 0.8464 0.46767 0.08604 0.0
H151 H 0.85741 0.36675 0.13855 0.0
H152 H 0.87336 0.3304 0.09481 0.0
H153 H 0.84987 0.2852 0.94467 0.0
H154 H 0.81168 0.286 0.8852 0.0
H155 H 0.95423 0.4639 0.02421 0.0
H156 H 0.94366 0.44699 0.89023 0.0
H157 H 0.73741 0.2848 0.01827 0.0
H158 H 0.7318 0.36643 0.97922 0.0
C159 C 0.44927 0.80464 0.22768 0.0
C160 C 0.42647 0.79787 0.19703 0.0
C161 C 0.40931 0.81194 0.21004 0.0
C162 C 0.4224 0.82657 0.24802 0.0
N163 N 0.44694 0.82281 0.25894 0.0
Co164 Co 0.46867 0.83411 0.31445 0.0
N165 N 0.43304 0.83476 0.34355 0.0
C166 C 0.41043 0.8381 0.3238 0.0
C167 C 0.3892 0.83889 0.35181 0.0
C168 C 0.39944 0.83626 0.39137 0.0
C169 C 0.42648 0.83396 0.38549 0.0
N170 N 0.49077 0.84382 0.3696 0.0
C171 C 0.47925 0.84115 0.40949 0.0
C172 C 0.50364 0.85123 0.43879 0.0
C173 C 0.53117 0.86072 0.41629 0.0
C174 C 0.52224 0.85599 0.37455 0.0
N175 N 0.50397 0.83312 0.28475 0.0
C176 C 0.53422 0.84702 0.29803 0.0
C177 C 0.5523 0.83886 0.27316 0.0
C178 C 0.53189 0.81813 0.24317 0.0
C179 C 0.50237 0.81466 0.25139 0.0
N180 N 0.48702 0.8809 0.3036 0.0
C181 C 0.50297 0.94574 0.29199 0.0
C182 C 0.49808 0.93201 0.33212 0.0
C183 C 0.48989 0.90015 0.33715 0.0
C184 C 0.50036 0.9261 0.25745 0.0
C185 C 0.4928 0.89407 0.26392 0.0
N186 N 0.44937 0.78872 0.32594 0.0
C187 C 0.45268 0.74207 0.3418 0.0
C188 C 0.42062 0.72284 0.33098 0.0
C189 C 0.40304 0.73719 0.32006 0.0
C190 C 0.41766 0.7699 0.31812 0.0
C191 C 0.46676 0.77522 0.33878 0.0
H192 H 0.40329 0.77985 0.30881 0.0
H193 H 0.49173 0.78986 0.3458 0.0
H194 H 0.48458 0.891 0.36876 0.0
H195 H 0.49083 0.87978 0.23668 0.0
C196 C 0.40712 0.8349 0.27934 0.0
C197 C 0.47312 0.79393 0.22712 0.0
C198 C 0.44648 0.83313 0.42017 0.0
C199 C 0.54145 0.85809 0.33992 0.0
H200 H 0.42196 0.78339 0.16911 0.0
H201 H 0.38802 0.80925 0.1954 0.0
H202 H 0.36814 0.84011 0.3444 0.0
H203 H 0.3884 0.83621 0.42109 0.0
H204 H 0.50183 0.85229 0.47278 0.0
H205 H 0.55473 0.86928 0.429 0.0
H206 H 0.57661 0.84475 0.27857 0.0
H207 H 0.53772 0.80606 0.21911 0.0
H208 H 0.49942 0.94561 0.35996 0.0
H209 H 0.5042 0.93539 0.22562 0.0
H210 H 0.46674 0.73163 0.35146 0.0
H211 H 0.37791 0.72308 0.31291 0.0
C212 C 0.66241 0.44664 0.55837 0.0
C213 C 0.64619 0.42386 0.52764 0.0
C214 C 0.61477 0.40713 0.54022 0.0
C215 C 0.61322 0.42029 0.57809 0.0
N216 N 0.64175 0.44448 0.58941 0.0
Co217 Co 0.65194 0.46593 0.6452 0.0
N218 N 0.61516 0.43049 0.67371 0.0
C219 C 0.58915 0.40818 0.6536 0.0
C220 C 0.56678 0.38698 0.68128 0.0
C221 C 0.57954 0.39694 0.72103 0.0
C222 C 0.6092 0.42371 0.71556 0.0
N223 N 0.664 0.48791 0.70051 0.0
C224 C 0.65484 0.47638 0.74026 0.0
C225 C 0.66965 0.50059 0.76978 0.0
C226 C 0.68801 0.52807 0.74753 0.0
C227 C 0.68367 0.51927 0.70573 0.0
N228 N 0.68887 0.50099 0.61622 0.0
C229 C 0.70532 0.53117 0.62965 0.0
C230 C 0.73168 0.54927 0.60497 0.0
C231 C 0.73195 0.52896 0.57486 0.0
C232 C 0.7058 0.49944 0.58289 0.0
N233 N 0.62398 0.48478 0.63379 0.0
C234 C 0.57626 0.50234 0.62138 0.0
C235 C 0.58382 0.49605 0.66154 0.0
C236 C 0.60702 0.48722 0.66695 0.0
C237 C 0.59368 0.49988 0.5872 0.0
C238 C 0.61756 0.49148 0.59407 0.0
N239 N 0.67738 0.44599 0.65746 0.0
C240 C 0.72562 0.44745 0.6793 0.0
C241 C 0.7128 0.41565 0.66722 0.0
C242 C 0.68162 0.39914 0.65245 0.0
C243 C 0.66432 0.41447 0.64844 0.0
C244 C 0.70756 0.46243 0.67353 0.0
H245 H 0.6404 0.4007 0.63701 0.0
H246 H 0.71805 0.48725 0.68133 0.0
H247 H 0.61008 0.48117 0.69851 0.0
H248 H 0.63025 0.48971 0.56711 0.0
C249 C 0.58929 0.40512 0.60911 0.0
C250 C 0.69725 0.47036 0.55822 0.0
C251 C 0.62982 0.44364 0.75057 0.0
C252 C 0.70125 0.53842 0.6714 0.0
H253 H 0.65598 0.41886 0.49998 0.0
H254 H 0.596 0.38597 0.52542 0.0
H255 H 0.54431 0.36617 0.67356 0.0
H256 H 0.56823 0.38598 0.75063 0.0
H257 H 0.66711 0.49875 0.80378 0.0
H258 H 0.70345 0.55146 0.76045 0.0
H259 H 0.75014 0.57355 0.61048 0.0
H260 H 0.74988 0.53487 0.55078 0.0
H261 H 0.57109 0.49706 0.68907 0.0
H262 H 0.58904 0.50457 0.55537 0.0
H263 H 0.74952 0.46073 0.69178 0.0
H264 H 0.67048 0.37423 0.6442 0.0
C265 C 0.23079 0.65619 0.89493 0.0
C266 C 0.23755 0.64029 0.86397 0.0
C267 C 0.22316 0.60893 0.87632 0.0
C268 C 0.20844 0.6071 0.91428 0.0
N269 N 0.21246 0.63538 0.92591 0.0
Co270 Co 0.20096 0.64507 0.98191 0.0
N271 N 0.20018 0.60855 0.01 0.0
C272 C 0.19682 0.58283 0.98954 0.0
C273 C 0.19598 0.56053 0.01687 0.0
C274 C 0.19864 0.57301 0.05677 0.0
C275 C 0.20112 0.60243 0.05177 0.0
N276 N 0.19079 0.65659 0.03749 0.0
C277 C 0.19332 0.64738 0.07716 0.0
C278 C 0.18405 0.66216 0.10689 0.0
C279 C 0.17472 0.68038 0.0849 0.0
C280 C 0.17898 0.67608 0.04302 0.0
N281 N 0.20236 0.68179 0.95325 0.0
C282 C 0.18844 0.69793 0.96706 0.0
C283 C 0.19653 0.72432 0.94274 0.0
C284 C 0.21722 0.72497 0.91247 0.0
C285 C 0.22084 0.699 0.92004 0.0
N286 N 0.15407 0.61665 0.9704 0.0
C287 C 0.08908 0.56712 0.95764 0.0
C288 C 0.10304 0.57531 0.99787 0.0
C289 C 0.13483 0.59933 1.00343 0.0
C290 C 0.10865 0.58571 0.92374 0.0
C291 C 0.14077 0.61027 0.93076 0.0
N292 N 0.24636 0.67105 0.99427 0.0
C293 C 0.29277 0.7198 0.01596 0.0
C294 C 0.31219 0.70754 1.00382 0.0
C295 C 0.29799 0.67639 0.98917 0.0
C296 C 0.26529 0.65854 0.98519 0.0
C297 C 0.25968 0.70116 0.01035 0.0
H298 H 0.25545 0.6347 0.97367 0.0
H299 H 0.24497 0.71121 0.01821 0.0
H300 H 0.14396 0.60265 0.03501 0.0
H301 H 0.1551 0.62329 0.90388 0.0
C302 C 0.19997 0.58318 0.94506 0.0
C303 C 0.24159 0.69088 0.89499 0.0
C304 C 0.20133 0.62253 0.08718 0.0
C305 C 0.17724 0.69364 0.0089 0.0
H306 H 0.25228 0.65027 0.8363 0.0
H307 H 0.22578 0.5904 0.86129 0.0
H308 H 0.19461 0.53829 0.0088 0.0
H309 H 0.19841 0.5616 0.08618 0.0
H310 H 0.18373 0.65989 0.14089 0.0
H311 H 0.16684 0.69579 0.09804 0.0
H312 H 0.19055 0.74258 0.94862 0.0
H313 H 0.22918 0.74303 0.88862 0.0
H314 H 0.08958 0.56278 0.02562 0.0
H315 H 0.09977 0.58071 0.8917 0.0
H316 H 0.30307 0.74367 0.02834 0.0
H317 H 0.31221 0.66576 0.98083 0.0
C318 C 0.81289 0.44644 0.45688 0.0
C319 C 0.80665 0.42425 0.48818 0.0
C320 C 0.82159 0.40771 0.47613 0.0
C321 C 0.83611 0.42045 0.438 0.0
N322 N 0.83145 0.4442 0.42606 0.0
Co323 Co 0.84202 0.46479 0.36984 0.0
N324 N 0.84396 0.42941 0.3422 0.0
C325 C 0.84826 0.40778 0.36292 0.0
C326 C 0.84967 0.38644 0.3358 0.0
C327 C 0.84642 0.39558 0.29579 0.0
C328 C 0.84317 0.42211 0.30052 0.0
N329 N 0.85097 0.48571 0.31393 0.0
C330 C 0.84846 0.47355 0.2745 0.0
C331 C 0.85783 0.49724 0.24434 0.0
C332 C 0.86669 0.525 0.26582 0.0
C333 C 0.86232 0.51689 0.30785 0.0
N334 N 0.83988 0.49994 0.39794 0.0
C335 C 0.85307 0.52983 0.38367 0.0
C336 C 0.84442 0.54786 0.40775 0.0
C337 C 0.82413 0.52779 0.43832 0.0
C338 C 0.82139 0.49849 0.43119 0.0
N339 N 0.88906 0.48468 0.38081 0.0
C340 C 0.95444 0.50244 0.39352 0.0
C341 C 0.94068 0.49634 0.35323 0.0
C342 C 0.90857 0.48735 0.34767 0.0
C343 C 0.93452 0.50017 0.42756 0.0
C344 C 0.90222 0.49168 0.42053 0.0
N345 N 0.79635 0.44386 0.35853 0.0
C346 C 0.74828 0.44472 0.34271 0.0
C347 C 0.73006 0.41271 0.35429 0.0
C348 C 0.74568 0.39646 0.36576 0.0
C349 C 0.77852 0.41222 0.36726 0.0
C350 C 0.78164 0.46 0.34529 0.0
H351 H 0.78937 0.39878 0.377 0.0
H352 H 0.79546 0.4849 0.3376 0.0
H353 H 0.89943 0.48122 0.31609 0.0
H354 H 0.88772 0.48995 0.44744 0.0
C355 C 0.84514 0.40523 0.40745 0.0
C356 C 0.80134 0.46964 0.45636 0.0
C357 C 0.84131 0.44094 0.26503 0.0
C358 C 0.86398 0.5365 0.34168 0.0
H359 H 0.79191 0.41962 0.51587 0.0
H360 H 0.8195 0.38693 0.49147 0.0
H361 H 0.85163 0.36597 0.34409 0.0
H362 H 0.84655 0.3841 0.26654 0.0
H363 H 0.85885 0.49485 0.21046 0.0
H364 H 0.8746 0.54815 0.25227 0.0
H365 H 0.84971 0.57184 0.4015 0.0
H366 H 0.81187 0.53365 0.46207 0.0
H367 H 0.95447 0.49737 0.32575 0.0
H368 H 0.94378 0.50499 0.45944 0.0
H369 H 0.73692 0.45784 0.33271 0.0
H370 H 0.73249 0.37143 0.3735 0.0
C371 C 0.38085 0.8063 0.792 0.0
C372 C 0.39705 0.79995 0.82279 0.0
C373 C 0.42848 0.81469 0.81015 0.0
C374 C 0.42998 0.82923 0.77221 0.0
N375 N 0.40144 0.82477 0.76095 0.0
Co376 Co 0.39097 0.83551 0.70518 0.0
N377 N 0.42773 0.83686 0.67652 0.0
C378 C 0.45385 0.84088 0.69659 0.0
C379 C 0.47618 0.84197 0.66887 0.0
C380 C 0.4633 0.8388 0.62917 0.0
C381 C 0.43361 0.83578 0.63466 0.0
N382 N 0.37857 0.84476 0.64978 0.0
C383 C 0.38761 0.84212 0.60998 0.0
C384 C 0.37216 0.85065 0.58045 0.0
C385 C 0.35371 0.85967 0.60268 0.0
C386 C 0.35853 0.85595 0.6445 0.0
N387 N 0.3541 0.8337 0.73437 0.0
C388 C 0.33738 0.84703 0.72083 0.0
C389 C 0.31092 0.83849 0.74546 0.0
C390 C 0.31083 0.8181 0.77559 0.0
C391 C 0.33723 0.81518 0.76766 0.0
N392 N 0.41888 0.88253 0.71604 0.0
C393 C 0.46662 0.94813 0.72763 0.0
C394 C 0.45872 0.9339 0.68762 0.0
C395 C 0.43554 0.90174 0.68261 0.0
C396 C 0.44952 0.92845 0.76209 0.0
C397 C 0.42563 0.89602 0.75563 0.0
N398 N 0.36554 0.78991 0.69363 0.0
C399 C 0.3166 0.74239 0.67529 0.0
C400 C 0.33025 0.72389 0.68567 0.0
C401 C 0.36193 0.73908 0.69839 0.0
C402 C 0.37909 0.7718 0.70174 0.0
C403 C 0.33473 0.7756 0.67979 0.0
H404 H 0.40332 0.78233 0.71199 0.0
H405 H 0.32383 0.78964 0.67274 0.0
H406 H 0.43224 0.89237 0.65112 0.0
H407 H 0.4132 0.88174 0.78281 0.0
C408 C 0.45384 0.83793 0.7411 0.0
C409 C 0.34603 0.79493 0.79218 0.0
C410 C 0.41294 0.83481 0.5996 0.0
C411 C 0.34109 0.85774 0.67888 0.0
H412 H 0.38711 0.78526 0.85051 0.0
H413 H 0.44727 0.81244 0.82496 0.0
H414 H 0.4987 0.8438 0.67656 0.0
H415 H 0.47459 0.83903 0.59957 0.0
H416 H 0.37416 0.85071 0.54642 0.0
H417 H 0.33784 0.86701 0.58976 0.0
H418 H 0.29222 0.84388 0.73978 0.0
H419 H 0.29286 0.80586 0.79954 0.0
H420 H 0.47121 0.94743 0.65988 0.0
H421 H 0.4544 0.93803 0.79383 0.0
H422 H 0.29224 0.73135 0.6645 0.0
H423 H 0.37357 0.72564 0.70552 0.0
C424 C 0.57128 0.36193 0.11806 0.0
C425 C 0.58902 0.37741 0.15357 0.0
C426 C 0.60649 0.40927 0.14366 0.0
C427 C 0.59829 0.41186 0.10285 0.0
N428 N 0.57637 0.38364 0.08718 0.0
Co429 Co 0.56048 0.37606 0.02835 0.0
N430 N 0.59756 0.41494 1.00629 0.0
C431 C 0.61704 0.44005 0.03034 0.0
C432 C 0.63989 0.46456 1.00667 0.0
C433 C 0.63403 0.4542 0.96534 0.0
C434 C 0.60787 0.42379 0.96588 0.0
N435 N 0.54442 0.36633 0.96949 0.0
C436 C 0.55955 0.37801 0.93211 0.0
C437 C 0.53848 0.36468 0.89859 0.0
C438 C 0.50926 0.34448 0.91579 0.0
C439 C 0.51402 0.34652 0.95868 0.0
N440 N 0.52351 0.33699 0.05105 0.0
C441 C 0.49537 0.32013 0.03121 0.0
C442 C 0.47731 0.29053 0.04822 0.0
C443 C 0.49529 0.28838 0.07981 0.0
C444 C 0.52323 0.31757 0.08247 0.0
N445 N 0.5393 0.4025 0.03685 0.0
C446 C 0.52532 0.45334 0.04589 0.0
C447 C 0.52766 0.44158 1.00629 0.0
C448 C 0.53554 0.41759 1.00253 0.0
C449 C 0.52732 0.43655 0.08113 0.0
C450 C 0.53367 0.4111 0.07596 0.0
N451 N 0.58288 0.35251 0.0194 0.0
C452 C 0.58529 0.30635 0.99716 0.0
C453 C 0.61638 0.3199 0.01275 0.0
C454 C 0.63039 0.35012 0.03067 0.0
C455 C 0.61354 0.36603 0.03321 0.0
C456 C 0.56878 0.32305 1.0011 0.0
H457 H 0.62544 0.38935 0.04694 0.0
H458 H 0.54468 0.31218 0.98965 0.0
H459 H 0.54003 0.41283 0.97099 0.0
H460 H 0.53535 0.39947 0.104 0.0
C461 C 0.61575 0.43755 0.07498 0.0
C462 C 0.54928 0.32676 0.11449 0.0
C463 C 0.59223 0.40477 0.92756 0.0
C464 C 0.49218 0.32679 0.98906 0.0
H465 H 0.58998 0.36673 0.18306 0.0
H466 H 0.62471 0.42785 0.1629 0.0
H467 H 0.65908 0.48696 0.01809 0.0
H468 H 0.6473 0.46754 0.93793 0.0
H469 H 0.54348 0.36967 0.86528 0.0
H470 H 0.48737 0.32954 0.89894 0.0
H471 H 0.45571 0.27107 0.03523 0.0
H472 H 0.48897 0.26642 0.09543 0.0
H473 H 0.52406 0.45115 0.97744 0.0
H474 H 0.52497 0.44352 0.11281 0.0
H475 H 0.57393 0.28319 0.98235 0.0
H476 H 0.65468 0.36178 0.042 0.0
C477 C 0.22995 0.58075 0.45731 0.0
C478 C 0.23687 0.60325 0.48852 0.0
C479 C 0.2227 0.62046 0.47649 0.0
C480 C 0.20793 0.6078 0.43846 0.0
N481 N 0.21171 0.58344 0.42655 0.0
Co482 Co 0.20055 0.56262 0.37039 0.0
N483 N 0.20011 0.59868 0.34267 0.0
C484 C 0.19677 0.62098 0.36332 0.0
C485 C 0.19619 0.64267 0.33616 0.0
C486 C 0.19898 0.63305 0.29618 0.0
C487 C 0.20116 0.60593 0.30098 0.0
N488 N 0.19086 0.54139 0.31455 0.0
C489 C 0.1937 0.5535 0.27507 0.0
C490 C 0.18359 0.52959 0.24502 0.0
C491 C 0.17392 0.50175 0.26663 0.0
C492 C 0.17857 0.51004 0.30863 0.0
N493 N 0.20149 0.52697 0.39865 0.0
C494 C 0.18757 0.49697 0.38446 0.0
C495 C 0.19575 0.47858 0.40838 0.0
C496 C 0.21651 0.49851 0.43871 0.0
C497 C 0.22001 0.5281 0.43163 0.0
N498 N 0.15364 0.54418 0.38136 0.0
C499 C 0.08876 0.529 0.39348 0.0
C500 C 0.10293 0.53474 0.35337 0.0
C501 C 0.13467 0.5424 0.34812 0.0
C502 C 0.10802 0.52983 0.42759 0.0
C503 C 0.1401 0.53724 0.42088 0.0
N504 N 0.24599 0.58195 0.35867 0.0
C505 C 0.29231 0.57923 0.33798 0.0
C506 C 0.31174 0.61119 0.34891 0.0
C507 C 0.29766 0.62826 0.36344 0.0
C508 C 0.26499 0.61342 0.36762 0.0
C509 C 0.25925 0.56489 0.34345 0.0
H510 H 0.25519 0.62752 0.37886 0.0
H511 H 0.24448 0.54008 0.33579 0.0
H512 H 0.144 0.54826 0.31662 0.0
H513 H 0.15421 0.53843 0.4479 0.0
C514 C 0.19976 0.62356 0.40784 0.0
C515 C 0.2407 0.55692 0.45675 0.0
C516 C 0.20203 0.58645 0.26551 0.0
C517 C 0.17646 0.49037 0.34253 0.0
H518 H 0.2516 0.60766 0.51608 0.0
H519 H 0.22551 0.64162 0.49172 0.0
H520 H 0.195 0.6636 0.34441 0.0
H521 H 0.19919 0.64456 0.26689 0.0
H522 H 0.18267 0.53191 0.21113 0.0
H523 H 0.16533 0.47842 0.25317 0.0
H524 H 0.18985 0.4544 0.40212 0.0
H525 H 0.22858 0.49234 0.46226 0.0
H526 H 0.08968 0.53391 0.32548 0.0
H527 H 0.09896 0.52596 0.45955 0.0
H528 H 0.30252 0.56557 0.32569 0.0
H529 H 0.31191 0.65327 0.37098 0.0
C530 C 0.66258 0.22345 0.78865 0.0
C531 C 0.64602 0.2299 0.81899 0.0
C532 C 0.61473 0.21515 0.80587 0.0
C533 C 0.61358 0.2005 0.76809 0.0
N534 N 0.64223 0.20492 0.75734 0.0
Co535 Co 0.65299 0.19381 0.70181 0.0
N536 N 0.61652 0.19241 0.67251 0.0
C537 C 0.59029 0.18858 0.69213 0.0
C538 C 0.56827 0.18752 0.66399 0.0
C539 C 0.5815 0.19053 0.62447 0.0
C540 C 0.61107 0.19341 0.63051 0.0
N541 N 0.66565 0.18407 0.64678 0.0
C542 C 0.65687 0.18644 0.6068 0.0
C543 C 0.6718 0.1769 0.57769 0.0
C544 C 0.68996 0.16783 0.60041 0.0
C545 C 0.68532 0.17238 0.64207 0.0
N546 N 0.68963 0.19576 0.73154 0.0
C547 C 0.70625 0.18213 0.7185 0.0
C548 C 0.73239 0.19047 0.74358 0.0
C549 C 0.73236 0.211 0.77353 0.0
C550 C 0.70626 0.21427 0.76502 0.0
N551 N 0.62483 0.14688 0.71304 0.0
C552 C 0.57442 0.08235 0.72523 0.0
C553 C 0.5837 0.09598 0.68499 0.0
C554 C 0.60812 0.1276 0.67969 0.0
C555 C 0.59277 0.10162 0.75941 0.0
C556 C 0.61769 0.13361 0.75271 0.0
N557 N 0.67848 0.23927 0.68977 0.0
C558 C 0.72696 0.28646 0.66925 0.0
C559 C 0.71384 0.30517 0.68123 0.0
C560 C 0.6824 0.2902 0.69495 0.0
C561 C 0.66514 0.25753 0.69839 0.0
C562 C 0.7089 0.2533 0.67445 0.0
H563 H 0.64104 0.24717 0.70917 0.0
H564 H 0.71958 0.23912 0.66689 0.0
H565 H 0.61213 0.13662 0.648 0.0
H566 H 0.63036 0.14788 0.77981 0.0
C567 C 0.58998 0.19171 0.73662 0.0
C568 C 0.69744 0.23472 0.78944 0.0
C569 C 0.63213 0.19434 0.59589 0.0
C570 C 0.70258 0.17085 0.67677 0.0
H571 H 0.65552 0.24463 0.84675 0.0
H572 H 0.59581 0.21747 0.82027 0.0
H573 H 0.54574 0.18583 0.67127 0.0
H574 H 0.57057 0.19034 0.59465 0.0
H575 H 0.66951 0.17612 0.54366 0.0
H576 H 0.70545 0.15983 0.58789 0.0
H577 H 0.75093 0.18473 0.73844 0.0
H578 H 0.75007 0.22305 0.79782 0.0
H579 H 0.57163 0.08241 0.65708 0.0
H580 H 0.5872 0.09251 0.79133 0.0
H581 H 0.75106 0.29734 0.65742 0.0
H582 H 0.67106 0.30381 0.70299 0.0
C583 C 0.44637 0.65568 0.12171 0.0
C584 C 0.42084 0.64209 0.14932 0.0
C585 C 0.40109 0.61168 0.13545 0.0
C586 C 0.41534 0.60821 0.09992 0.0
N587 N 0.44362 0.63423 0.09134 0.0
Co588 Co 0.46797 0.6425 0.037 0.0
N589 N 0.4328 0.60508 1.00763 0.0
C590 C 0.40697 0.58133 0.02668 0.0
C591 C 0.38651 0.5588 0.99864 0.0
C592 C 0.40011 0.56901 0.95958 0.0
C593 C 0.42815 0.59745 0.96577 0.0
N594 N 0.49188 0.65301 0.98238 0.0
C595 C 0.48177 0.64201 0.94249 0.0
C596 C 0.50583 0.65853 0.91322 0.0
C597 C 0.53183 0.68033 0.93536 0.0
C598 C 0.52226 0.67634 0.97674 0.0
N599 N 0.50292 0.6801 0.06678 0.0
C600 C 0.53298 0.69808 0.05279 0.0
C601 C 0.55078 0.72426 0.07771 0.0
C602 C 0.53048 0.72351 0.10832 0.0
C603 C 0.50123 0.69695 0.10028 0.0
N604 N 0.48598 0.61384 0.05367 0.0
C605 C 0.50306 0.56459 0.05677 0.0
C606 C 0.52364 0.59515 0.04042 0.0
C607 C 0.51471 0.61875 0.03878 0.0
C608 C 0.47525 0.56099 0.07565 0.0
C609 C 0.46785 0.58567 0.07485 0.0
N610 N 0.44956 0.66876 0.01993 0.0
C611 C 0.45426 0.71936 1.00313 0.0
C612 C 0.42176 0.70658 0.0107 0.0
C613 C 0.40325 0.67432 0.01905 0.0
C614 C 0.4174 0.65596 0.02306 0.0
C615 C 0.46782 0.69995 0.00822 0.0
H616 H 0.40194 0.63162 0.03057 0.0
H617 H 0.49308 0.71054 1.00414 0.0
H618 H 0.53159 0.6407 0.02486 0.0
H619 H 0.44687 0.58084 0.09131 0.0
C620 C 0.39995 0.58428 0.06913 0.0
C621 C 0.47198 0.68959 0.12356 0.0
C622 C 0.44962 0.61641 0.9311 0.0
C623 C 0.54021 0.69557 0.01061 0.0
H624 H 0.41602 0.6534 0.17535 0.0
H625 H 0.37772 0.59514 0.14764 0.0
H626 H 0.3636 0.53827 1.00545 0.0
H627 H 0.3902 0.55723 0.92981 0.0
H628 H 0.50471 0.65572 0.87928 0.0
H629 H 0.55462 0.69782 0.92256 0.0
H630 H 0.57467 0.74348 0.0717 0.0
H631 H 0.53598 0.74149 0.13215 0.0
H632 H 0.54692 0.60139 0.0287 0.0
H633 H 0.45845 0.53883 0.09047 0.0
H634 H 0.46914 0.74419 0.99527 0.0
H635 H 0.37779 0.66336 0.02358 0.0
C636 C 0.6002 0.16711 0.48311 0.0
C637 C 0.60787 0.19556 0.46208 0.0
C638 C 0.60793 0.16687 0.52613 0.0
C639 C 0.62367 0.19507 0.55006 0.0
H640 H 0.58737 0.14475 0.46641 0.0
H641 H 0.60131 0.14438 0.54094 0.0
S642 S 0.64921 0.27582 0.51008 0.0
N643 N 0.6321 0.25262 0.46878 0.0
N644 N 0.64693 0.25222 0.54904 0.0
C645 C 0.63166 0.22363 0.52932 0.0
C646 C 0.62373 0.22386 0.48557 0.0
C647 C 0.44793 0.59083 0.8151 0.0
C648 C 0.42327 0.594 0.79685 0.0
C649 C 0.45599 0.59762 0.8583 0.0
C650 C 0.43997 0.60819 0.88516 0.0
H651 H 0.46084 0.58265 0.79589 0.0
H652 H 0.47499 0.59459 0.87081 0.0
S653 S 0.37295 0.61941 0.85332 0.0
N654 N 0.38223 0.60737 0.80951 0.0
N655 N 0.39775 0.62077 0.88998 0.0
C656 C 0.41505 0.61107 0.86731 0.0
C657 C 0.40668 0.6039 0.82345 0.0
C658 C 0.86812 0.43373 0.20043 0.0
C659 C 0.84069 0.43103 0.21955 0.0
C660 C 0.86847 0.42613 0.15736 0.0
C661 C 0.84131 0.41516 0.1315 0.0
H662 H 0.8896 0.44211 0.21886 0.0
H663 H 0.89022 0.4288 0.14414 0.0
S664 S 0.76391 0.40526 0.16569 0.0
N665 N 0.7861 0.41788 0.2087 0.0
N666 N 0.78655 0.40307 0.12838 0.0
C667 C 0.81396 0.41291 0.15013 0.0
C668 C 0.81368 0.42088 0.1939 0.0
C669 C 0.44126 0.86073 0.4852 0.0
C670 C 0.43737 0.83292 0.4659 0.0
C671 C 0.43391 0.86132 0.52831 0.0
C672 C 0.42205 0.83406 0.554 0.0
H673 H 0.45024 0.88226 0.46682 0.0
H674 H 0.43736 0.88331 0.54166 0.0
S675 S 0.4087 0.7556 0.51927 0.0
N676 N 0.42198 0.77777 0.47634 0.0
N677 N 0.40773 0.77873 0.5568 0.0
C678 C 0.41859 0.8063 0.5352 0.0
C679 C 0.42627 0.80576 0.49138 0.0
C680 C 0.61974 0.40449 0.85942 0.0
C681 C 0.60433 0.41709 0.88371 0.0
C682 C 0.62782 0.41301 0.81654 0.0
C683 C 0.6205 0.43421 0.7961 0.0
H684 H 0.62518 0.38756 0.87354 0.0
H685 H 0.63977 0.40285 0.79918 0.0
S686 S 0.57862 0.47234 0.8448 0.0
N687 N 0.58122 0.45106 0.88349 0.0
N688 N 0.59587 0.46665 0.80335 0.0
C689 C 0.60476 0.44662 0.81996 0.0
C690 C 0.59684 0.4382 0.86356 0.0
C691 C 0.17469 0.59238 0.20083 0.0
C692 C 0.20252 0.59633 0.22014 0.0
C693 C 0.17436 0.60044 0.15802 0.0
C694 C 0.20193 0.61309 0.13263 0.0
H695 H 0.1529 0.58277 0.21897 0.0
H696 H 0.15232 0.59682 0.14465 0.0
S697 S 0.28069 0.62713 0.16752 0.0
N698 N 0.25811 0.61282 0.21003 0.0
N699 N 0.25764 0.62834 0.13013 0.0
C700 C 0.22976 0.6167 0.15144 0.0
C701 C 0.23004 0.60833 0.19497 0.0
C702 C 0.6781 0.37616 0.3878 0.0
C703 C 0.69492 0.39431 0.35233 0.0
C704 C 0.64887 0.34803 0.38314 0.0
C705 C 0.63566 0.33739 0.34288 0.0
H706 H 0.6894 0.38166 0.41856 0.0
H707 H 0.63873 0.33269 0.41033 0.0
S708 S 0.66588 0.38094 0.24212 0.0
N709 N 0.69306 0.40322 0.27731 0.0
N710 N 0.63789 0.35045 0.26851 0.0
C711 C 0.64978 0.35787 0.30834 0.0
C712 C 0.67954 0.38645 0.31309 0.0
C713 C 0.31207 0.67095 0.71707 0.0
C714 C 0.31362 0.68894 0.68141 0.0
C715 C 0.3121 0.6423 0.71264 0.0
C716 C 0.31357 0.6309 0.67243 0.0
H717 H 0.31495 0.68103 0.74841 0.0
H718 H 0.31515 0.63136 0.74064 0.0
S719 S 0.30996 0.66503 0.56958 0.0
N720 N 0.31054 0.69026 0.60502 0.0
N721 N 0.31013 0.6362 0.59668 0.0
C722 C 0.31009 0.64611 0.63683 0.0
C723 C 0.31022 0.6753 0.64133 0.0
C724 C 0.65197 0.30248 0.04387 0.0
C725 C 0.63637 0.30509 1.00794 0.0
C726 C 0.68094 0.30297 0.04018 0.0
C727 C 0.69503 0.30599 1.00044 0.0
H728 H 0.64367 0.30388 0.07513 0.0
H729 H 0.69417 0.30505 0.06867 0.0
S730 S 0.66019 0.30609 0.89655 0.0
N731 N 0.63427 0.30496 0.93133 0.0
N732 N 0.6886 0.30558 0.92439 0.0
C733 C 0.67736 0.30384 0.96422 0.0
C734 C 0.64795 0.30345 0.96796 0.0
C735 C 0.39426 0.67337 0.37282 0.0
C736 C 0.40355 0.68785 0.33302 0.0
C737 C 0.36601 0.64423 0.3774 0.0
C738 C 0.34644 0.62897 0.34229 0.0
H739 H 0.40637 0.68649 0.40102 0.0
H740 H 0.35732 0.63584 0.40903 0.0
S741 S 0.36457 0.6537 0.23057 0.0
N742 N 0.39463 0.68195 0.25729 0.0
N743 N 0.34139 0.62734 0.26601 0.0
C744 C 0.35817 0.64074 0.30187 0.0
C745 C 0.38689 0.6703 0.2972 0.0
C746 C 0.73247 0.38231 0.63498 0.0
C747 C 0.72984 0.39776 0.67118 0.0
C748 C 0.73284 0.35381 0.63839 0.0
C749 C 0.73081 0.34015 0.67811 0.0
H750 H 0.73004 0.39008 0.60386 0.0
H751 H 0.73044 0.34044 0.60988 0.0
S752 S 0.73199 0.37548 0.78228 0.0
N753 N 0.73156 0.40062 0.74773 0.0
N754 N 0.73286 0.34733 0.75417 0.0
C755 C 0.73346 0.35804 0.71439 0.0
C756 C 0.73282 0.3869 0.71092 0.0
C757 C 0.36502 0.72935 0.97033 0.0
C758 C 0.3472 0.72525 1.00732 0.0
C759 C 0.39376 0.72919 0.9719 0.0
C760 C 0.40544 0.72521 0.01053 0.0
H761 H 0.35457 0.72817 0.93969 0.0
H762 H 0.40436 0.72768 0.94249 0.0
S763 S 0.37194 0.72202 0.11675 0.0
N764 N 0.34643 0.7236 0.08389 0.0
N765 N 0.40073 0.72391 0.08693 0.0
C766 C 0.39062 0.72665 0.048 0.0
C767 C 0.36128 0.7265 0.04639 0.0
C768 C 0.53993 0.03545 0.31431 0.0
C769 C 0.52167 0.04517 0.29046 0.0
C770 C 0.53439 1.00401 0.31337 0.0
C771 C 0.5106 0.98012 0.28788 0.0
H772 H 0.55883 0.0523 0.33452 0.0
H773 H 0.54884 0.99828 0.33334 0.0
S774 S 0.45607 0.99184 0.21809 0.0
N775 N 0.47846 0.02711 0.23975 0.0
N776 N 0.46888 0.96876 0.23721 0.0
C777 C 0.49282 0.98948 0.2626 0.0
C778 C 0.49816 0.02159 0.26398 0.0
C779 C 0.49723 0.49999 0.59215 0.0
C780 C 0.49741 0.52387 0.61798 0.0
C781 C 0.5231 0.49396 0.5916 0.0
C782 C 0.55054 0.51146 0.61688 0.0
H783 H 0.47642 0.48498 0.57335 0.0
H784 H 0.52101 0.47457 0.57247 0.0
S785 S 0.56563 0.57977 0.68502 0.0
N786 N 0.52988 0.56754 0.66555 0.0
N787 N 0.57715 0.55584 0.66517 0.0
C788 C 0.55158 0.53631 0.64109 0.0
C789 C 0.52556 0.54258 0.64144 0.0
C790 C 1.0125 0.48643 0.97894 0.0
C791 C 0.98915 0.48571 0.95176 0.0
C792 C 0.04431 0.51189 0.9792 0.0
C793 C 0.05509 0.53881 0.95274 0.0
H794 H 1.00604 0.46707 1.0008 0.0
H795 H 0.06063 0.5104 1.00096 0.0
S796 S 1.00379 0.54921 0.87493 0.0
N797 N 0.97959 0.51444 0.89664 0.0
N798 N 0.03873 0.56229 0.89765 0.0
C799 C 0.03215 0.53808 0.9245 0.0
C800 C 0.99959 0.51178 0.92395 0.0
C801 C 0.04443 0.53978 0.37138 0.0
C802 C 0.05486 0.5235 0.39805 0.0
C803 C 1.01269 0.53355 0.37131 0.0
C804 C 0.98913 0.51095 0.39838 0.0
H805 H 0.06095 0.5576 0.34969 0.0
H806 H 1.00646 0.54652 0.34928 0.0
S807 S 1.00285 0.46178 0.47566 0.0
N808 N 0.03797 0.48356 0.45319 0.0
N809 N 0.97897 0.47255 0.45363 0.0
C810 C 0.99924 0.4952 0.42641 0.0
C811 C 0.0317 0.5013 0.42617 0.0
C812 C 0.54564 0.02539 0.75625 0.0
C813 C 0.54544 0.04887 0.73009 0.0
C814 C 0.51981 0.9934 0.75705 0.0
C815 C 0.49236 0.98311 0.73171 0.0
H816 H 0.56644 0.03145 0.77517 0.0
H817 H 0.52193 0.9763 0.77647 0.0
S818 S 0.47716 0.03565 0.66276 0.0
N819 N 0.51291 0.05946 0.68213 0.0
N820 N 0.46571 1.00035 0.68301 0.0
C821 C 0.49129 1.00669 0.70715 0.0
C822 C 0.51728 0.03907 0.70653 0.0
C823 C 0.4982 0.51234 0.08498 0.0
C824 C 0.51014 0.53701 0.05443 0.0
C825 C 0.50338 0.48607 0.0825 0.0
C826 C 0.52112 0.48266 0.04948 0.0
H827 H 0.48461 0.51314 0.11155 0.0
H828 H 0.4928 0.46796 0.10659 0.0
S829 S 0.55973 0.54104 0.96207 0.0
N830 N 0.54082 0.5553 0.98939 0.0
N831 N 0.55302 0.50866 0.98715 0.0
C832 C 0.53418 0.50772 0.01951 0.0
C833 C 0.52818 0.53398 0.02139 0.0
C834 C 0.52282 0.25227 0.18598 0.0
C835 C 0.55085 0.25379 0.20122 0.0
C836 C 0.52284 0.27723 0.16312 0.0
C837 C 0.55064 0.3026 0.14534 0.0
H838 H 0.50006 0.23125 0.19054 0.0
H839 H 0.50032 0.27622 0.15983 0.0
S840 S 0.63178 0.31666 0.16792 0.0
N841 N 0.60852 0.285 0.19647 0.0
N842 N 0.60805 0.32627 0.14293 0.0
C843 C 0.57922 0.30353 0.15727 0.0
C844 C 0.57941 0.28027 0.1861 0.0
C845 C 0.29569 0.56188 0.46469 0.0
C846 C 0.26803 0.55911 0.48373 0.0
C847 C 0.3205 0.56184 0.48867 0.0
C848 C 0.3191 0.55884 0.53326 0.0
H849 H 0.29803 0.5637 0.43064 0.0
H850 H 0.34042 0.56305 0.47179 0.0
S851 S 0.25104 0.54859 0.59881 0.0
N852 N 0.24052 0.55176 0.55029 0.0
N853 N 0.2863 0.55164 0.5947 0.0
C854 C 0.29129 0.5556 0.55243 0.0
C855 C 0.26619 0.55582 0.52808 0.0
C856 C 0.74539 0.2897 0.88438 0.0
C857 C 0.77337 0.31441 0.8657 0.0
C858 C 0.7207 0.26483 0.86014 0.0
C859 C 0.72263 0.26294 0.81566 0.0
H860 H 0.74274 0.28926 0.91837 0.0
H861 H 0.70049 0.24627 0.87679 0.0
S862 S 0.79176 0.32012 0.75112 0.0
N863 N 0.8017 0.33416 0.79965 0.0
N864 N 0.75633 0.288 0.75478 0.0
C865 C 0.75077 0.28731 0.79687 0.0
C866 C 0.77567 0.31274 0.82146 0.0
C867 C 0.46615 0.71355 0.19414 0.0
C868 C 0.47008 0.71544 0.14969 0.0
C869 C 0.46653 0.73844 0.21843 0.0
C870 C 0.47049 0.76659 0.1998 0.0
H871 H 0.46367 0.69301 0.21065 0.0
H872 H 0.46406 0.73573 0.25236 0.0
S873 S 0.48389 0.78501 0.08536 0.0
N874 N 0.47977 0.74933 0.08892 0.0
N875 N 0.47989 0.79507 0.13387 0.0
C876 C 0.47468 0.76891 0.1556 0.0
C877 C 0.47467 0.7438 0.13096 0.0
C878 C 0.72118 0.4639 0.48798 0.0
C879 C 0.72269 0.46754 0.53246 0.0
C880 C 0.74603 0.46375 0.46416 0.0
C881 C 0.7738 0.46699 0.48329 0.0
H882 H 0.70118 0.46235 0.47101 0.0
H883 H 0.74367 0.46161 0.43015 0.0
S884 S 0.79117 0.47946 0.5981 0.0
N885 N 0.75577 0.47603 0.59389 0.0
N886 N 0.8016 0.47559 0.54974 0.0
C887 C 0.77576 0.47093 0.52753 0.0
C888 C 0.75063 0.47131 0.55172 0.0
C889 C 0.27148 0.71488 0.82438 0.0
C890 C 0.26965 0.71645 0.86893 0.0
C891 C 0.2964 0.73967 0.80035 0.0
C892 C 0.32118 0.76745 0.81931 0.0
H893 H 0.25286 0.69485 0.80754 0.0
H894 H 0.29598 0.73723 0.76632 0.0
S895 S 0.32696 0.78496 0.93419 0.0
N896 N 0.29481 0.74961 0.9302 0.0
N897 N 0.34095 0.79528 0.8857 0.0
C898 C 0.31949 0.76947 0.86361 0.0
C899 C 0.29405 0.74441 0.888 0.0
loop_
_geom_bond_atom_site_label_1
_geom_bond_atom_site_label_2
_geom_bond_distance
_geom_bond_site_symmetry_2
_ccdc_geom_bond_type
C0 C1 1.443 . S
C0 N4 1.376 . S
C0 C38 1.389 . S
C1 C0 1.443 . S
C1 C2 1.340 . S
C1 H41 0.951 . S
C2 C1 1.340 . S
C2 C3 1.439 . S
C2 H42 0.950 . S
C3 C2 1.439 . S
C3 N4 1.374 . S
C3 C37 1.395 . S
N4 C0 1.376 . S
N4 C3 1.374 . S
N4 Co5 2.008 . S
Co5 N4 2.008 . S
Co5 N6 1.995 . S
Co5 N11 2.008 . S
Co5 N16 1.995 . S
Co5 N21 2.282 . S
Co5 N27 2.282 . S
N6 Co5 1.995 . S
N6 C7 1.376 . S
N6 C10 1.383 . S
C7 N6 1.376 . S
C7 C8 1.446 . S
C7 C37 1.391 . S
C8 C7 1.446 . S
C8 C9 1.339 . S
C8 H43 0.949 . S
C9 C8 1.339 . S
C9 C10 1.439 . S
C9 H44 0.950 . S
C10 N6 1.383 . S
C10 C9 1.439 . S
C10 C39 1.392 . S
N11 Co5 2.008 . S
N11 C12 1.376 . S
N11 C15 1.374 . S
C12 N11 1.376 . S
C12 C13 1.443 . S
C12 C39 1.389 . S
C13 C12 1.443 . S
C13 C14 1.340 . S
C13 H45 0.951 . S
C14 C13 1.340 . S
C14 C15 1.439 . S
C14 H46 0.950 . S
C15 N11 1.374 . S
C15 C14 1.439 . S
C15 C40 1.395 . S
N16 Co5 1.995 . S
N16 C17 1.376 . S
N16 C20 1.383 . S
C17 N16 1.376 . S
C17 C18 1.446 . S
C17 C40 1.391 . S
C18 C17 1.446 . S
C18 C19 1.339 . S
C18 H47 0.949 . S
C19 C18 1.339 . S
C19 C20 1.439 . S
C19 H48 0.950 . S
C20 N16 1.383 . S
C20 C19 1.439 . S
C20 C38 1.392 . S
N21 Co5 2.282 . S
N21 C24 1.332 . S
N21 C26 1.332 . S
C22 C23 1.386 . S
C22 C25 1.388 . S
C23 C22 1.386 . S
C23 C24 1.382 . S
C23 H49 0.950 . S
C24 N21 1.332 . S
C24 C23 1.382 . S
C24 H35 0.952 . S
C25 C22 1.388 . S
C25 C26 1.382 . S
C25 H50 0.950 . S
C26 N21 1.332 . S
C26 C25 1.382 . S
C26 H36 0.948 . S
N27 Co5 2.282 . S
N27 C31 1.332 . S
N27 C32 1.332 . S
C28 C29 1.388 . S
C28 C32 1.382 . S
C28 H51 0.950 . S
C29 C28 1.388 . S
C29 C30 1.386 . S
C30 C29 1.386 . S
C30 C31 1.382 . S
C30 H52 0.950 . S
C31 N27 1.332 . S
C31 C30 1.382 . S
C31 H33 0.952 . S
C32 N27 1.332 . S
C32 C28 1.382 . S
C32 H34 0.948 . S
H33 C31 0.952 . S
H34 C32 0.948 . S
H35 C24 0.952 . S
H36 C26 0.948 . S
C37 C3 1.395 . S
C37 C7 1.391 . S
C38 C0 1.389 . S
C38 C20 1.392 . S
C39 C10 1.392 . S
C39 C12 1.389 . S
C40 C15 1.395 . S
C40 C17 1.391 . S
H41 C1 0.951 . S
H42 C2 0.950 . S
H43 C8 0.949 . S
H44 C9 0.950 . S
H45 C13 0.951 . S
H46 C14 0.950 . S
H47 C18 0.949 . S
H48 C19 0.950 . S
H49 C23 0.950 . S
H50 C25 0.950 . S
H51 C28 0.950 . S
H52 C30 0.950 . S
C53 C54 1.443 . S
C53 N57 1.376 . S
C53 C91 1.389 . S
C54 C53 1.443 . S
C54 C55 1.340 . S
C54 H94 0.951 . S
C55 C54 1.340 . S
C55 C56 1.439 . S
C55 H95 0.950 . S
C56 C55 1.439 . S
C56 N57 1.374 . S
C56 C90 1.395 . S
N57 C53 1.376 . S
N57 C56 1.374 . S
N57 Co58 2.008 . S
Co58 N57 2.008 . S
Co58 N59 1.995 . S
Co58 N64 2.008 . S
Co58 N69 1.995 . S
Co58 N74 2.282 . S
Co58 N80 2.282 . S
N59 Co58 1.995 . S
N59 C60 1.376 . S
N59 C63 1.383 . S
C60 N59 1.376 . S
C60 C61 1.446 . S
C60 C90 1.391 . S
C61 C60 1.446 . S
C61 C62 1.339 . S
C61 H96 0.949 . S
C62 C61 1.339 . S
C62 C63 1.439 . S
C62 H97 0.950 . S
C63 N59 1.383 . S
C63 C62 1.439 . S
C63 C92 1.392 . S
N64 Co58 2.008 . S
N64 C65 1.376 . S
N64 C68 1.374 . S
C65 N64 1.376 . S
C65 C66 1.443 . S
C65 C92 1.389 . S
C66 C65 1.443 . S
C66 C67 1.340 . S
C66 H98 0.951 . S
C67 C66 1.340 . S
C67 C68 1.439 . S
C67 H99 0.950 . S
C68 N64 1.374 . S
C68 C67 1.439 . S
C68 C93 1.395 . S
N69 Co58 1.995 . S
N69 C70 1.376 . S
N69 C73 1.383 . S
C70 N69 1.376 . S
C70 C71 1.446 . S
C70 C93 1.391 . S
C71 C70 1.446 . S
C71 C72 1.339 . S
C71 H100 0.949 . S
C72 C71 1.339 . S
C72 C73 1.439 . S
C72 H101 0.950 . S
C73 N69 1.383 . S
C73 C72 1.439 . S
C73 C91 1.392 . S
N74 Co58 2.282 . S
N74 C77 1.332 . S
N74 C79 1.332 . S
C75 C76 1.386 . S
C75 C78 1.388 . S
C76 C75 1.386 . S
C76 C77 1.382 . S
C76 H102 0.950 . S
C77 N74 1.332 . S
C77 C76 1.382 . S
C77 H88 0.952 . S
C78 C75 1.388 . S
C78 C79 1.382 . S
C78 H103 0.950 . S
C79 N74 1.332 . S
C79 C78 1.382 . S
C79 H89 0.948 . S
N80 Co58 2.282 . S
N80 C84 1.332 . S
N80 C85 1.332 . S
C81 C82 1.388 . S
C81 C85 1.382 . S
C81 H104 0.950 . S
C82 C81 1.388 . S
C82 C83 1.386 . S
C83 C82 1.386 . S
C83 C84 1.382 . S
C83 H105 0.950 . S
C84 N80 1.332 . S
C84 C83 1.382 . S
C84 H86 0.952 . S
C85 N80 1.332 . S
C85 C81 1.382 . S
C85 H87 0.948 . S
H86 C84 0.952 . S
H87 C85 0.948 . S
H88 C77 0.952 . S
H89 C79 0.948 . S
C90 C56 1.395 . S
C90 C60 1.391 . S
C91 C53 1.389 . S
C91 C73 1.392 . S
C92 C63 1.392 . S
C92 C65 1.389 . S
C93 C68 1.395 . S
C93 C70 1.391 . S
H94 C54 0.951 . S
H95 C55 0.950 . S
H96 C61 0.949 . S
H97 C62 0.950 . S
H98 C66 0.951 . S
H99 C67 0.950 . S
H100 C71 0.949 . S
H101 C72 0.950 . S
H102 C76 0.950 . S
H103 C78 0.950 . S
H104 C81 0.950 . S
H105 C83 0.950 . S
C106 C107 1.443 . S
C106 N110 1.376 . S
C106 C144 1.389 . S
C107 C106 1.443 . S
C107 C108 1.340 . S
C107 H147 0.951 . S
C108 C107 1.340 . S
C108 C109 1.439 . S
C108 H148 0.950 . S
C109 C108 1.439 . S
C109 N110 1.374 . S
C109 C143 1.395 . S
N110 C106 1.376 . S
N110 C109 1.374 . S
N110 Co111 2.008 . S
Co111 N110 2.008 . S
Co111 N112 1.995 1_556 S
Co111 N117 2.008 1_556 S
Co111 N122 1.995 . S
Co111 N127 2.282 . S
Co111 N133 2.282 1_556 S
N112 Co111 1.995 1_554 S
N112 C113 1.376 1_554 S
N112 C116 1.383 . S
C113 N112 1.376 1_556 S
C113 C114 1.446 1_556 S
C113 C143 1.391 . S
C114 C113 1.446 1_554 S
C114 C115 1.339 . S
C114 H149 0.949 . S
C115 C114 1.339 . S
C115 C116 1.439 . S
C115 H150 0.950 . S
C116 N112 1.383 . S
C116 C115 1.439 . S
C116 C145 1.392 . S
N117 Co111 2.008 1_554 S
N117 C118 1.376 . S
N117 C121 1.374 . S
C118 N117 1.376 . S
C118 C119 1.443 . S
C118 C145 1.389 . S
C119 C118 1.443 . S
C119 C120 1.340 . S
C119 H151 0.951 . S
C120 C119 1.340 . S
C120 C121 1.439 . S
C120 H152 0.950 . S
C121 N117 1.374 . S
C121 C120 1.439 . S
C121 C146 1.395 . S
N122 Co111 1.995 . S
N122 C123 1.376 1_556 S
N122 C126 1.383 . S
C123 N122 1.376 1_554 S
C123 C124 1.446 1_554 S
C123 C146 1.391 . S
C124 C123 1.446 1_556 S
C124 C125 1.339 . S
C124 H153 0.949 . S
C125 C124 1.339 . S
C125 C126 1.439 . S
C125 H154 0.950 . S
C126 N122 1.383 . S
C126 C125 1.439 . S
C126 C144 1.392 . S
N127 Co111 2.282 . S
N127 C130 1.332 1_556 S
N127 C132 1.332 . S
C128 C129 1.386 . S
C128 C131 1.388 1_554 S
C129 C128 1.386 . S
C129 C130 1.382 . S
C129 H155 0.950 . S
C130 N127 1.332 1_554 S
C130 C129 1.382 . S
C130 H141 0.952 . S
C131 C128 1.388 1_556 S
C131 C132 1.382 . S
C131 H156 0.950 . S
C132 N127 1.332 . S
C132 C131 1.382 . S
C132 H142 0.948 . S
N133 Co111 2.282 1_554 S
N133 C137 1.332 1_554 S
N133 C138 1.332 . S
C134 C135 1.388 1_554 S
C134 C138 1.382 . S
C134 H157 0.950 . S
C135 C134 1.388 1_556 S
C135 C136 1.386 . S
C136 C135 1.386 . S
C136 C137 1.382 . S
C136 H158 0.950 . S
C137 N133 1.332 1_556 S
C137 C136 1.382 . S
C137 H139 0.952 . S
C138 N133 1.332 . S
C138 C134 1.382 . S
C138 H140 0.948 . S
H139 C137 0.952 . S
H140 C138 0.948 . S
H141 C130 0.952 . S
H142 C132 0.948 . S
C143 C109 1.395 . S
C143 C113 1.391 . S
C144 C106 1.389 . S
C144 C126 1.392 . S
C145 C116 1.392 . S
C145 C118 1.389 . S
C146 C121 1.395 . S
C146 C123 1.391 . S
H147 C107 0.951 . S
H148 C108 0.950 . S
H149 C114 0.949 . S
H150 C115 0.950 . S
H151 C119 0.951 . S
H152 C120 0.950 . S
H153 C124 0.949 . S
H154 C125 0.950 . S
H155 C129 0.950 . S
H156 C131 0.950 . S
H157 C134 0.950 . S
H158 C136 0.950 . S
C159 C160 1.443 . S
C159 N163 1.376 . S
C159 C197 1.389 . S
C160 C159 1.443 . S
C160 C161 1.340 . S
C160 H200 0.951 . S
C161 C160 1.340 . S
C161 C162 1.439 . S
C161 H201 0.950 . S
C162 C161 1.439 . S
C162 N163 1.374 . S
C162 C196 1.395 . S
N163 C159 1.376 . S
N163 C162 1.374 . S
N163 Co164 2.008 . S
Co164 N163 2.008 . S
Co164 N165 1.995 . S
Co164 N170 2.008 . S
Co164 N175 1.995 . S
Co164 N180 2.282 . S
Co164 N186 2.282 . S
N165 Co164 1.995 . S
N165 C166 1.376 . S
N165 C169 1.383 . S
C166 N165 1.376 . S
C166 C167 1.446 . S
C166 C196 1.391 . S
C167 C166 1.446 . S
C167 C168 1.339 . S
C167 H202 0.949 . S
C168 C167 1.339 . S
C168 C169 1.439 . S
C168 H203 0.950 . S
C169 N165 1.383 . S
C169 C168 1.439 . S
C169 C198 1.392 . S
N170 Co164 2.008 . S
N170 C171 1.376 . S
N170 C174 1.374 . S
C171 N170 1.376 . S
C171 C172 1.443 . S
C171 C198 1.389 . S
C172 C171 1.443 . S
C172 C173 1.340 . S
C172 H204 0.951 . S
C173 C172 1.340 . S
C173 C174 1.439 . S
C173 H205 0.950 . S
C174 N170 1.374 . S
C174 C173 1.439 . S
C174 C199 1.395 . S
N175 Co164 1.995 . S
N175 C176 1.376 . S
N175 C179 1.383 . S
C176 N175 1.376 . S
C176 C177 1.446 . S
C176 C199 1.391 . S
C177 C176 1.446 . S
C177 C178 1.339 . S
C177 H206 0.949 . S
C178 C177 1.339 . S
C178 C179 1.439 . S
C178 H207 0.950 . S
C179 N175 1.383 . S
C179 C178 1.439 . S
C179 C197 1.392 . S
N180 Co164 2.282 . S
N180 C183 1.332 . S
N180 C185 1.332 . S
C181 C182 1.386 . S
C181 C184 1.388 . S
C182 C181 1.386 . S
C182 C183 1.382 . S
C182 H208 0.950 . S
C183 N180 1.332 . S
C183 C182 1.382 . S
C183 H194 0.952 . S
C184 C181 1.388 . S
C184 C185 1.382 . S
C184 H209 0.950 . S
C185 N180 1.332 . S
C185 C184 1.382 . S
C185 H195 0.948 . S
N186 Co164 2.282 . S
N186 C190 1.332 . S
N186 C191 1.332 . S
C187 C188 1.388 . S
C187 C191 1.382 . S
C187 H210 0.950 . S
C188 C187 1.388 . S
C188 C189 1.386 . S
C189 C188 1.386 . S
C189 C190 1.382 . S
C189 H211 0.950 . S
C190 N186 1.332 . S
C190 C189 1.382 . S
C190 H192 0.952 . S
C191 N186 1.332 . S
C191 C187 1.382 . S
C191 H193 0.948 . S
H192 C190 0.952 . S
H193 C191 0.948 . S
H194 C183 0.952 . S
H195 C185 0.948 . S
C196 C162 1.395 . S
C196 C166 1.391 . S
C197 C159 1.389 . S
C197 C179 1.392 . S
C198 C169 1.392 . S
C198 C171 1.389 . S
C199 C174 1.395 . S
C199 C176 1.391 . S
H200 C160 0.951 . S
H201 C161 0.950 . S
H202 C167 0.949 . S
H203 C168 0.950 . S
H204 C172 0.951 . S
H205 C173 0.950 . S
H206 C177 0.949 . S
H207 C178 0.950 . S
H208 C182 0.950 . S
H209 C184 0.950 . S
H210 C187 0.950 . S
H211 C189 0.950 . S
C212 C213 1.443 . S
C212 N216 1.376 . S
C212 C250 1.389 . S
C213 C212 1.443 . S
C213 C214 1.340 . S
C213 H253 0.951 . S
C214 C213 1.340 . S
C214 C215 1.439 . S
C214 H254 0.950 . S
C215 C214 1.439 . S
C215 N216 1.374 . S
C215 C249 1.395 . S
N216 C212 1.376 . S
N216 C215 1.374 . S
N216 Co217 2.008 . S
Co217 N216 2.008 . S
Co217 N218 1.995 . S
Co217 N223 2.008 . S
Co217 N228 1.995 . S
Co217 N233 2.282 . S
Co217 N239 2.282 . S
N218 Co217 1.995 . S
N218 C219 1.376 . S
N218 C222 1.383 . S
C219 N218 1.376 . S
C219 C220 1.446 . S
C219 C249 1.391 . S
C220 C219 1.446 . S
C220 C221 1.339 . S
C220 H255 0.949 . S
C221 C220 1.339 . S
C221 C222 1.439 . S
C221 H256 0.950 . S
C222 N218 1.383 . S
C222 C221 1.439 . S
C222 C251 1.392 . S
N223 Co217 2.008 . S
N223 C224 1.376 . S
N223 C227 1.374 . S
C224 N223 1.376 . S
C224 C225 1.443 . S
C224 C251 1.389 . S
C225 C224 1.443 . S
C225 C226 1.340 . S
C225 H257 0.951 . S
C226 C225 1.340 . S
C226 C227 1.439 . S
C226 H258 0.950 . S
C227 N223 1.374 . S
C227 C226 1.439 . S
C227 C252 1.395 . S
N228 Co217 1.995 . S
N228 C229 1.376 . S
N228 C232 1.383 . S
C229 N228 1.376 . S
C229 C230 1.446 . S
C229 C252 1.391 . S
C230 C229 1.446 . S
C230 C231 1.339 . S
C230 H259 0.949 . S
C231 C230 1.339 . S
C231 C232 1.439 . S
C231 H260 0.950 . S
C232 N228 1.383 . S
C232 C231 1.439 . S
C232 C250 1.392 . S
N233 Co217 2.282 . S
N233 C236 1.332 . S
N233 C238 1.332 . S
C234 C235 1.386 . S
C234 C237 1.388 . S
C235 C234 1.386 . S
C235 C236 1.382 . S
C235 H261 0.950 . S
C236 N233 1.332 . S
C236 C235 1.382 . S
C236 H247 0.952 . S
C237 C234 1.388 . S
C237 C238 1.382 . S
C237 H262 0.950 . S
C238 N233 1.332 . S
C238 C237 1.382 . S
C238 H248 0.948 . S
N239 Co217 2.282 . S
N239 C243 1.332 . S
N239 C244 1.332 . S
C240 C241 1.388 . S
C240 C244 1.382 . S
C240 H263 0.950 . S
C241 C240 1.388 . S
C241 C242 1.386 . S
C242 C241 1.386 . S
C242 C243 1.382 . S
C242 H264 0.950 . S
C243 N239 1.332 . S
C243 C242 1.382 . S
C243 H245 0.952 . S
C244 N239 1.332 . S
C244 C240 1.382 . S
C244 H246 0.948 . S
H245 C243 0.952 . S
H246 C244 0.948 . S
H247 C236 0.952 . S
H248 C238 0.948 . S
C249 C215 1.395 . S
C249 C219 1.391 . S
C250 C212 1.389 . S
C250 C232 1.392 . S
C251 C222 1.392 . S
C251 C224 1.389 . S
C252 C227 1.395 . S
C252 C229 1.391 . S
H253 C213 0.951 . S
H254 C214 0.950 . S
H255 C220 0.949 . S
H256 C221 0.950 . S
H257 C225 0.951 . S
H258 C226 0.950 . S
H259 C230 0.949 . S
H260 C231 0.950 . S
H261 C235 0.950 . S
H262 C237 0.950 . S
H263 C240 0.950 . S
H264 C242 0.950 . S
C265 C266 1.443 . S
C265 N269 1.376 . S
C265 C303 1.389 . S
C266 C265 1.443 . S
C266 C267 1.340 . S
C266 H306 0.951 . S
C267 C266 1.340 . S
C267 C268 1.439 . S
C267 H307 0.950 . S
C268 C267 1.439 . S
C268 N269 1.374 . S
C268 C302 1.395 . S
N269 C265 1.376 . S
N269 C268 1.374 . S
N269 Co270 2.008 . S
Co270 N269 2.008 . S
Co270 N271 1.995 1_556 S
Co270 N276 2.008 1_556 S
Co270 N281 1.995 . S
Co270 N286 2.282 . S
Co270 N292 2.282 1_556 S
N271 Co270 1.995 1_554 S
N271 C272 1.376 1_554 S
N271 C275 1.383 . S
C272 N271 1.376 1_556 S
C272 C273 1.446 1_556 S
C272 C302 1.391 . S
C273 C272 1.446 1_554 S
C273 C274 1.339 . S
C273 H308 0.949 . S
C274 C273 1.339 . S
C274 C275 1.439 . S
C274 H309 0.950 . S
C275 N271 1.383 . S
C275 C274 1.439 . S
C275 C304 1.392 . S
N276 Co270 2.008 1_554 S
N276 C277 1.376 . S
N276 C280 1.374 . S
C277 N276 1.376 . S
C277 C278 1.443 . S
C277 C304 1.389 . S
C278 C277 1.443 . S
C278 C279 1.340 . S
C278 H310 0.951 . S
C279 C278 1.340 . S
C279 C280 1.439 . S
C279 H311 0.950 . S
C280 N276 1.374 . S
C280 C279 1.439 . S
C280 C305 1.395 . S
N281 Co270 1.995 . S
N281 C282 1.376 1_556 S
N281 C285 1.383 . S
C282 N281 1.376 1_554 S
C282 C283 1.446 1_554 S
C282 C305 1.391 . S
C283 C282 1.446 1_556 S
C283 C284 1.339 . S
C283 H312 0.949 . S
C284 C283 1.339 . S
C284 C285 1.439 . S
C284 H313 0.950 . S
C285 N281 1.383 . S
C285 C284 1.439 . S
C285 C303 1.392 . S
N286 Co270 2.282 . S
N286 C289 1.332 1_556 S
N286 C291 1.332 . S
C287 C288 1.386 . S
C287 C290 1.388 1_554 S
C288 C287 1.386 . S
C288 C289 1.382 . S
C288 H314 0.950 . S
C289 N286 1.332 1_554 S
C289 C288 1.382 . S
C289 H300 0.952 . S
C290 C287 1.388 1_556 S
C290 C291 1.382 . S
C290 H315 0.950 . S
C291 N286 1.332 . S
C291 C290 1.382 . S
C291 H301 0.948 . S
N292 Co270 2.282 1_554 S
N292 C296 1.332 1_554 S
N292 C297 1.332 . S
C293 C294 1.388 1_554 S
C293 C297 1.382 . S
C293 H316 0.950 . S
C294 C293 1.388 1_556 S
C294 C295 1.386 . S
C295 C294 1.386 . S
C295 C296 1.382 . S
C295 H317 0.950 . S
C296 N292 1.332 1_556 S
C296 C295 1.382 . S
C296 H298 0.952 . S
C297 N292 1.332 . S
C297 C293 1.382 . S
C297 H299 0.948 . S
H298 C296 0.952 . S
H299 C297 0.948 . S
H300 C289 0.952 . S
H301 C291 0.948 . S
C302 C268 1.395 . S
C302 C272 1.391 . S
C303 C265 1.389 . S
C303 C285 1.392 . S
C304 C275 1.392 . S
C304 C277 1.389 . S
C305 C280 1.395 . S
C305 C282 1.391 . S
H306 C266 0.951 . S
H307 C267 0.950 . S
H308 C273 0.949 . S
H309 C274 0.950 . S
H310 C278 0.951 . S
H311 C279 0.950 . S
H312 C283 0.949 . S
H313 C284 0.950 . S
H314 C288 0.950 . S
H315 C290 0.950 . S
H316 C293 0.950 . S
H317 C295 0.950 . S
C318 C319 1.443 . S
C318 N322 1.376 . S
C318 C356 1.389 . S
C319 C318 1.443 . S
C319 C320 1.340 . S
C319 H359 0.951 . S
C320 C319 1.340 . S
C320 C321 1.439 . S
C320 H360 0.950 . S
C321 C320 1.439 . S
C321 N322 1.374 . S
C321 C355 1.395 . S
N322 C318 1.376 . S
N322 C321 1.374 . S
N322 Co323 2.008 . S
Co323 N322 2.008 . S
Co323 N324 1.995 . S
Co323 N329 2.008 . S
Co323 N334 1.995 . S
Co323 N339 2.282 . S
Co323 N345 2.282 . S
N324 Co323 1.995 . S
N324 C325 1.376 . S
N324 C328 1.383 . S
C325 N324 1.376 . S
C325 C326 1.446 . S
C325 C355 1.391 . S
C326 C325 1.446 . S
C326 C327 1.339 . S
C326 H361 0.949 . S
C327 C326 1.339 . S
C327 C328 1.439 . S
C327 H362 0.950 . S
C328 N324 1.383 . S
C328 C327 1.439 . S
C328 C357 1.392 . S
N329 Co323 2.008 . S
N329 C330 1.376 . S
N329 C333 1.374 . S
C330 N329 1.376 . S
C330 C331 1.443 . S
C330 C357 1.389 . S
C331 C330 1.443 . S
C331 C332 1.340 . S
C331 H363 0.951 . S
C332 C331 1.340 . S
C332 C333 1.439 . S
C332 H364 0.950 . S
C333 N329 1.374 . S
C333 C332 1.439 . S
C333 C358 1.395 . S
N334 Co323 1.995 . S
N334 C335 1.376 . S
N334 C338 1.383 . S
C335 N334 1.376 . S
C335 C336 1.446 . S
C335 C358 1.391 . S
C336 C335 1.446 . S
C336 C337 1.339 . S
C336 H365 0.949 . S
C337 C336 1.339 . S
C337 C338 1.439 . S
C337 H366 0.950 . S
C338 N334 1.383 . S
C338 C337 1.439 . S
C338 C356 1.392 . S
N339 Co323 2.282 . S
N339 C342 1.332 . S
N339 C344 1.332 . S
C340 C341 1.386 . S
C340 C343 1.388 . S
C341 C340 1.386 . S
C341 C342 1.382 . S
C341 H367 0.950 . S
C342 N339 1.332 . S
C342 C341 1.382 . S
C342 H353 0.952 . S
C343 C340 1.388 . S
C343 C344 1.382 . S
C343 H368 0.950 . S
C344 N339 1.332 . S
C344 C343 1.382 . S
C344 H354 0.948 . S
N345 Co323 2.282 . S
N345 C349 1.332 . S
N345 C350 1.332 . S
C346 C347 1.388 . S
C346 C350 1.382 . S
C346 H369 0.950 . S
C347 C346 1.388 . S
C347 C348 1.386 . S
C348 C347 1.386 . S
C348 C349 1.382 . S
C348 H370 0.950 . S
C349 N345 1.332 . S
C349 C348 1.382 . S
C349 H351 0.952 . S
C350 N345 1.332 . S
C350 C346 1.382 . S
C350 H352 0.948 . S
H351 C349 0.952 . S
H352 C350 0.948 . S
H353 C342 0.952 . S
H354 C344 0.948 . S
C355 C321 1.395 . S
C355 C325 1.391 . S
C356 C318 1.389 . S
C356 C338 1.392 . S
C357 C328 1.392 . S
C357 C330 1.389 . S
C358 C333 1.395 . S
C358 C335 1.391 . S
H359 C319 0.951 . S
H360 C320 0.950 . S
H361 C326 0.949 . S
H362 C327 0.950 . S
H363 C331 0.951 . S
H364 C332 0.950 . S
H365 C336 0.949 . S
H366 C337 0.950 . S
H367 C341 0.950 . S
H368 C343 0.950 . S
H369 C346 0.950 . S
H370 C348 0.950 . S
C371 C372 1.443 . S
C371 N375 1.376 . S
C371 C409 1.389 . S
C372 C371 1.443 . S
C372 C373 1.340 . S
C372 H412 0.951 . S
C373 C372 1.340 . S
C373 C374 1.439 . S
C373 H413 0.950 . S
C374 C373 1.439 . S
C374 N375 1.374 . S
C374 C408 1.395 . S
N375 C371 1.376 . S
N375 C374 1.374 . S
N375 Co376 2.008 . S
Co376 N375 2.008 . S
Co376 N377 1.995 . S
Co376 N382 2.008 . S
Co376 N387 1.995 . S
Co376 N392 2.282 . S
Co376 N398 2.282 . S
N377 Co376 1.995 . S
N377 C378 1.376 . S
N377 C381 1.383 . S
C378 N377 1.376 . S
C378 C379 1.446 . S
C378 C408 1.391 . S
C379 C378 1.446 . S
C379 C380 1.339 . S
C379 H414 0.949 . S
C380 C379 1.339 . S
C380 C381 1.439 . S
C380 H415 0.950 . S
C381 N377 1.383 . S
C381 C380 1.439 . S
C381 C410 1.392 . S
N382 Co376 2.008 . S
N382 C383 1.376 . S
N382 C386 1.374 . S
C383 N382 1.376 . S
C383 C384 1.443 . S
C383 C410 1.389 . S
C384 C383 1.443 . S
C384 C385 1.340 . S
C384 H416 0.951 . S
C385 C384 1.340 . S
C385 C386 1.439 . S
C385 H417 0.950 . S
C386 N382 1.374 . S
C386 C385 1.439 . S
C386 C411 1.395 . S
N387 Co376 1.995 . S
N387 C388 1.376 . S
N387 C391 1.383 . S
C388 N387 1.376 . S
C388 C389 1.446 . S
C388 C411 1.391 . S
C389 C388 1.446 . S
C389 C390 1.339 . S
C389 H418 0.949 . S
C390 C389 1.339 . S
C390 C391 1.439 . S
C390 H419 0.950 . S
C391 N387 1.383 . S
C391 C390 1.439 . S
C391 C409 1.392 . S
N392 Co376 2.282 . S
N392 C395 1.332 . S
N392 C397 1.332 . S
C393 C394 1.386 . S
C393 C396 1.388 . S
C394 C393 1.386 . S
C394 C395 1.382 . S
C394 H420 0.950 . S
C395 N392 1.332 . S
C395 C394 1.382 . S
C395 H406 0.952 . S
C396 C393 1.388 . S
C396 C397 1.382 . S
C396 H421 0.950 . S
C397 N392 1.332 . S
C397 C396 1.382 . S
C397 H407 0.948 . S
N398 Co376 2.282 . S
N398 C402 1.332 . S
N398 C403 1.332 . S
C399 C400 1.388 . S
C399 C403 1.382 . S
C399 H422 0.950 . S
C400 C399 1.388 . S
C400 C401 1.386 . S
C401 C400 1.386 . S
C401 C402 1.382 . S
C401 H423 0.950 . S
C402 N398 1.332 . S
C402 C401 1.382 . S
C402 H404 0.952 . S
C403 N398 1.332 . S
C403 C399 1.382 . S
C403 H405 0.948 . S
H404 C402 0.952 . S
H405 C403 0.948 . S
H406 C395 0.952 . S
H407 C397 0.948 . S
C408 C374 1.395 . S
C408 C378 1.391 . S
C409 C371 1.389 . S
C409 C391 1.392 . S
C410 C381 1.392 . S
C410 C383 1.389 . S
C411 C386 1.395 . S
C411 C388 1.391 . S
H412 C372 0.951 . S
H413 C373 0.950 . S
H414 C379 0.949 . S
H415 C380 0.950 . S
H416 C384 0.951 . S
H417 C385 0.950 . S
H418 C389 0.949 . S
H419 C390 0.950 . S
H420 C394 0.950 . S
H421 C396 0.950 . S
H422 C399 0.950 . S
H423 C401 0.950 . S
C424 C425 1.443 . S
C424 N428 1.376 . S
C424 C462 1.389 . S
C425 C424 1.443 . S
C425 C426 1.340 . S
C425 H465 0.951 . S
C426 C425 1.340 . S
C426 C427 1.439 . S
C426 H466 0.950 . S
C427 C426 1.439 . S
C427 N428 1.374 . S
C427 C461 1.395 . S
N428 C424 1.376 . S
N428 C427 1.374 . S
N428 Co429 2.008 . S
Co429 N428 2.008 . S
Co429 N430 1.995 1_554 S
Co429 N435 2.008 1_554 S
Co429 N440 1.995 . S
Co429 N445 2.282 . S
Co429 N451 2.282 1_554 S
N430 Co429 1.995 1_556 S
N430 C431 1.376 1_556 S
N430 C434 1.383 . S
C431 N430 1.376 1_554 S
C431 C432 1.446 1_554 S
C431 C461 1.391 . S
C432 C431 1.446 1_556 S
C432 C433 1.339 . S
C432 H467 0.949 . S
C433 C432 1.339 . S
C433 C434 1.439 . S
C433 H468 0.950 . S
C434 N430 1.383 . S
C434 C433 1.439 . S
C434 C463 1.392 . S
N435 Co429 2.008 1_556 S
N435 C436 1.376 . S
N435 C439 1.374 . S
C436 N435 1.376 . S
C436 C437 1.443 . S
C436 C463 1.389 . S
C437 C436 1.443 . S
C437 C438 1.340 . S
C437 H469 0.951 . S
C438 C437 1.340 . S
C438 C439 1.439 . S
C438 H470 0.950 . S
C439 N435 1.374 . S
C439 C438 1.439 . S
C439 C464 1.395 . S
N440 Co429 1.995 . S
N440 C441 1.376 1_554 S
N440 C444 1.383 . S
C441 N440 1.376 1_556 S
C441 C442 1.446 1_556 S
C441 C464 1.391 . S
C442 C441 1.446 1_554 S
C442 C443 1.339 . S
C442 H471 0.949 . S
C443 C442 1.339 . S
C443 C444 1.439 . S
C443 H472 0.950 . S
C444 N440 1.383 . S
C444 C443 1.439 . S
C444 C462 1.392 . S
N445 Co429 2.282 . S
N445 C448 1.332 1_554 S
N445 C450 1.332 . S
C446 C447 1.386 . S
C446 C449 1.388 1_556 S
C447 C446 1.386 . S
C447 C448 1.382 . S
C447 H473 0.950 . S
C448 N445 1.332 1_556 S
C448 C447 1.382 . S
C448 H459 0.952 . S
C449 C446 1.388 1_554 S
C449 C450 1.382 . S
C449 H474 0.950 . S
C450 N445 1.332 . S
C450 C449 1.382 . S
C450 H460 0.948 . S
N451 Co429 2.282 1_556 S
N451 C455 1.332 1_556 S
N451 C456 1.332 . S
C452 C453 1.388 1_556 S
C452 C456 1.382 . S
C452 H475 0.950 . S
C453 C452 1.388 1_554 S
C453 C454 1.386 . S
C454 C453 1.386 . S
C454 C455 1.382 . S
C454 H476 0.950 . S
C455 N451 1.332 1_554 S
C455 C454 1.382 . S
C455 H457 0.952 . S
C456 N451 1.332 . S
C456 C452 1.382 . S
C456 H458 0.948 . S
H457 C455 0.952 . S
H458 C456 0.948 . S
H459 C448 0.952 . S
H460 C450 0.948 . S
C461 C427 1.395 . S
C461 C431 1.391 . S
C462 C424 1.389 . S
C462 C444 1.392 . S
C463 C434 1.392 . S
C463 C436 1.389 . S
C464 C439 1.395 . S
C464 C441 1.391 . S
H465 C425 0.951 . S
H466 C426 0.950 . S
H467 C432 0.949 . S
H468 C433 0.950 . S
H469 C437 0.951 . S
H470 C438 0.950 . S
H471 C442 0.949 . S
H472 C443 0.950 . S
H473 C447 0.950 . S
H474 C449 0.950 . S
H475 C452 0.950 . S
H476 C454 0.950 . S
C477 C478 1.443 . S
C477 N481 1.376 . S
C477 C515 1.389 . S
C478 C477 1.443 . S
C478 C479 1.340 . S
C478 H518 0.951 . S
C479 C478 1.340 . S
C479 C480 1.439 . S
C479 H519 0.950 . S
C480 C479 1.439 . S
C480 N481 1.374 . S
C480 C514 1.395 . S
N481 C477 1.376 . S
N481 C480 1.374 . S
N481 Co482 2.008 . S
Co482 N481 2.008 . S
Co482 N483 1.995 . S
Co482 N488 2.008 . S
Co482 N493 1.995 . S
Co482 N498 2.282 . S
Co482 N504 2.282 . S
N483 Co482 1.995 . S
N483 C484 1.376 . S
N483 C487 1.383 . S
C484 N483 1.376 . S
C484 C485 1.446 . S
C484 C514 1.391 . S
C485 C484 1.446 . S
C485 C486 1.339 . S
C485 H520 0.949 . S
C486 C485 1.339 . S
C486 C487 1.439 . S
C486 H521 0.950 . S
C487 N483 1.383 . S
C487 C486 1.439 . S
C487 C516 1.392 . S
N488 Co482 2.008 . S
N488 C489 1.376 . S
N488 C492 1.374 . S
C489 N488 1.376 . S
C489 C490 1.443 . S
C489 C516 1.389 . S
C490 C489 1.443 . S
C490 C491 1.340 . S
C490 H522 0.951 . S
C491 C490 1.340 . S
C491 C492 1.439 . S
C491 H523 0.950 . S
C492 N488 1.374 . S
C492 C491 1.439 . S
C492 C517 1.395 . S
N493 Co482 1.995 . S
N493 C494 1.376 . S
N493 C497 1.383 . S
C494 N493 1.376 . S
C494 C495 1.446 . S
C494 C517 1.391 . S
C495 C494 1.446 . S
C495 C496 1.339 . S
C495 H524 0.949 . S
C496 C495 1.339 . S
C496 C497 1.439 . S
C496 H525 0.950 . S
C497 N493 1.383 . S
C497 C496 1.439 . S
C497 C515 1.392 . S
N498 Co482 2.282 . S
N498 C501 1.332 . S
N498 C503 1.332 . S
C499 C500 1.386 . S
C499 C502 1.388 . S
C500 C499 1.386 . S
C500 C501 1.382 . S
C500 H526 0.950 . S
C501 N498 1.332 . S
C501 C500 1.382 . S
C501 H512 0.952 . S
C502 C499 1.388 . S
C502 C503 1.382 . S
C502 H527 0.950 . S
C503 N498 1.332 . S
C503 C502 1.382 . S
C503 H513 0.948 . S
N504 Co482 2.282 . S
N504 C508 1.332 . S
N504 C509 1.332 . S
C505 C506 1.388 . S
C505 C509 1.382 . S
C505 H528 0.950 . S
C506 C505 1.388 . S
C506 C507 1.386 . S
C507 C506 1.386 . S
C507 C508 1.382 . S
C507 H529 0.950 . S
C508 N504 1.332 . S
C508 C507 1.382 . S
C508 H510 0.952 . S
C509 N504 1.332 . S
C509 C505 1.382 . S
C509 H511 0.948 . S
H510 C508 0.952 . S
H511 C509 0.948 . S
H512 C501 0.952 . S
H513 C503 0.948 . S
C514 C480 1.395 . S
C514 C484 1.391 . S
C515 C477 1.389 . S
C515 C497 1.392 . S
C516 C487 1.392 . S
C516 C489 1.389 . S
C517 C492 1.395 . S
C517 C494 1.391 . S
H518 C478 0.951 . S
H519 C479 0.950 . S
H520 C485 0.949 . S
H521 C486 0.950 . S
H522 C490 0.951 . S
H523 C491 0.950 . S
H524 C495 0.949 . S
H525 C496 0.950 . S
H526 C500 0.950 . S
H527 C502 0.950 . S
H528 C505 0.950 . S
H529 C507 0.950 . S
C530 C531 1.443 . S
C530 N534 1.376 . S
C530 C568 1.389 . S
C531 C530 1.443 . S
C531 C532 1.340 . S
C531 H571 0.951 . S
C532 C531 1.340 . S
C532 C533 1.439 . S
C532 H572 0.950 . S
C533 C532 1.439 . S
C533 N534 1.374 . S
C533 C567 1.395 . S
N534 C530 1.376 . S
N534 C533 1.374 . S
N534 Co535 2.008 . S
Co535 N534 2.008 . S
Co535 N536 1.995 . S
Co535 N541 2.008 . S
Co535 N546 1.995 . S
Co535 N551 2.282 . S
Co535 N557 2.282 . S
N536 Co535 1.995 . S
N536 C537 1.376 . S
N536 C540 1.383 . S
C537 N536 1.376 . S
C537 C538 1.446 . S
C537 C567 1.391 . S
C538 C537 1.446 . S
C538 C539 1.339 . S
C538 H573 0.949 . S
C539 C538 1.339 . S
C539 C540 1.439 . S
C539 H574 0.950 . S
C540 N536 1.383 . S
C540 C539 1.439 . S
C540 C569 1.392 . S
N541 Co535 2.008 . S
N541 C542 1.376 . S
N541 C545 1.374 . S
C542 N541 1.376 . S
C542 C543 1.443 . S
C542 C569 1.389 . S
C543 C542 1.443 . S
C543 C544 1.340 . S
C543 H575 0.951 . S
C544 C543 1.340 . S
C544 C545 1.439 . S
C544 H576 0.950 . S
C545 N541 1.374 . S
C545 C544 1.439 . S
C545 C570 1.395 . S
N546 Co535 1.995 . S
N546 C547 1.376 . S
N546 C550 1.383 . S
C547 N546 1.376 . S
C547 C548 1.446 . S
C547 C570 1.391 . S
C548 C547 1.446 . S
C548 C549 1.339 . S
C548 H577 0.949 . S
C549 C548 1.339 . S
C549 C550 1.439 . S
C549 H578 0.950 . S
C550 N546 1.383 . S
C550 C549 1.439 . S
C550 C568 1.392 . S
N551 Co535 2.282 . S
N551 C554 1.332 . S
N551 C556 1.332 . S
C552 C553 1.386 . S
C552 C555 1.388 . S
C553 C552 1.386 . S
C553 C554 1.382 . S
C553 H579 0.950 . S
C554 N551 1.332 . S
C554 C553 1.382 . S
C554 H565 0.952 . S
C555 C552 1.388 . S
C555 C556 1.382 . S
C555 H580 0.950 . S
C556 N551 1.332 . S
C556 C555 1.382 . S
C556 H566 0.948 . S
N557 Co535 2.282 . S
N557 C561 1.332 . S
N557 C562 1.332 . S
C558 C559 1.388 . S
C558 C562 1.382 . S
C558 H581 0.950 . S
C559 C558 1.388 . S
C559 C560 1.386 . S
C560 C559 1.386 . S
C560 C561 1.382 . S
C560 H582 0.950 . S
C561 N557 1.332 . S
C561 C560 1.382 . S
C561 H563 0.952 . S
C562 N557 1.332 . S
C562 C558 1.382 . S
C562 H564 0.948 . S
H563 C561 0.952 . S
H564 C562 0.948 . S
H565 C554 0.952 . S
H566 C556 0.948 . S
C567 C533 1.395 . S
C567 C537 1.391 . S
C568 C530 1.389 . S
C568 C550 1.392 . S
C569 C540 1.392 . S
C569 C542 1.389 . S
C570 C545 1.395 . S
C570 C547 1.391 . S
H571 C531 0.951 . S
H572 C532 0.950 . S
H573 C538 0.949 . S
H574 C539 0.950 . S
H575 C543 0.951 . S
H576 C544 0.950 . S
H577 C548 0.949 . S
H578 C549 0.950 . S
H579 C553 0.950 . S
H580 C555 0.950 . S
H581 C558 0.950 . S
H582 C560 0.950 . S
C583 C584 1.443 . S
C583 N587 1.376 . S
C583 C621 1.389 . S
C584 C583 1.443 . S
C584 C585 1.340 . S
C584 H624 0.951 . S
C585 C584 1.340 . S
C585 C586 1.439 . S
C585 H625 0.950 . S
C586 C585 1.439 . S
C586 N587 1.374 . S
C586 C620 1.395 . S
N587 C583 1.376 . S
N587 C586 1.374 . S
N587 Co588 2.008 . S
Co588 N587 2.008 . S
Co588 N589 1.995 1_554 S
Co588 N594 2.008 1_554 S
Co588 N599 1.995 . S
Co588 N604 2.282 . S
Co588 N610 2.282 1_554 S
N589 Co588 1.995 1_556 S
N589 C590 1.376 1_556 S
N589 C593 1.383 . S
C590 N589 1.376 1_554 S
C590 C591 1.446 1_554 S
C590 C620 1.391 . S
C591 C590 1.446 1_556 S
C591 C592 1.339 . S
C591 H626 0.949 . S
C592 C591 1.339 . S
C592 C593 1.439 . S
C592 H627 0.950 . S
C593 N589 1.383 . S
C593 C592 1.439 . S
C593 C622 1.392 . S
N594 Co588 2.008 1_556 S
N594 C595 1.376 . S
N594 C598 1.374 . S
C595 N594 1.376 . S
C595 C596 1.443 . S
C595 C622 1.389 . S
C596 C595 1.443 . S
C596 C597 1.340 . S
C596 H628 0.951 . S
C597 C596 1.340 . S
C597 C598 1.439 . S
C597 H629 0.950 . S
C598 N594 1.374 . S
C598 C597 1.439 . S
C598 C623 1.395 . S
N599 Co588 1.995 . S
N599 C600 1.376 1_554 S
N599 C603 1.383 . S
C600 N599 1.376 1_556 S
C600 C601 1.446 1_556 S
C600 C623 1.391 . S
C601 C600 1.446 1_554 S
C601 C602 1.339 . S
C601 H630 0.949 . S
C602 C601 1.339 . S
C602 C603 1.439 . S
C602 H631 0.950 . S
C603 N599 1.383 . S
C603 C602 1.439 . S
C603 C621 1.392 . S
N604 Co588 2.282 . S
N604 C607 1.332 1_554 S
N604 C609 1.332 . S
C605 C606 1.386 . S
C605 C608 1.388 1_556 S
C606 C605 1.386 . S
C606 C607 1.382 . S
C606 H632 0.950 . S
C607 N604 1.332 1_556 S
C607 C606 1.382 . S
C607 H618 0.952 . S
C608 C605 1.388 1_554 S
C608 C609 1.382 . S
C608 H633 0.950 . S
C609 N604 1.332 . S
C609 C608 1.382 . S
C609 H619 0.948 . S
N610 Co588 2.282 1_556 S
N610 C614 1.332 1_556 S
N610 C615 1.332 . S
C611 C612 1.388 1_556 S
C611 C615 1.382 . S
C611 H634 0.950 . S
C612 C611 1.388 1_554 S
C612 C613 1.386 . S
C613 C612 1.386 . S
C613 C614 1.382 . S
C613 H635 0.950 . S
C614 N610 1.332 1_554 S
C614 C613 1.382 . S
C614 H616 0.952 . S
C615 N610 1.332 . S
C615 C611 1.382 . S
C615 H617 0.948 . S
H616 C614 0.952 . S
H617 C615 0.948 . S
H618 C607 0.952 . S
H619 C609 0.948 . S
C620 C586 1.395 . S
C620 C590 1.391 . S
C621 C583 1.389 . S
C621 C603 1.392 . S
C622 C593 1.392 . S
C622 C595 1.389 . S
C623 C598 1.395 . S
C623 C600 1.391 . S
H624 C584 0.951 . S
H625 C585 0.950 . S
H626 C591 0.949 . S
H627 C592 0.950 . S
H628 C596 0.951 . S
H629 C597 0.950 . S
H630 C601 0.949 . S
H631 C602 0.950 . S
H632 C606 0.950 . S
H633 C608 0.950 . S
H634 C611 0.950 . S
H635 C613 0.950 . S
C636 C637 1.369 . S
C636 C638 1.419 . S
C636 H640 0.930 . S
C637 C636 1.369 . S
C637 C646 1.429 . S
C638 C636 1.419 . S
C638 C639 1.363 . S
C638 H641 0.929 . S
C639 C638 1.363 . S
C639 C645 1.428 . S
H640 C636 0.930 . S
H641 C638 0.929 . S
S642 N643 1.613 . S
S642 N644 1.610 . S
N643 S642 1.613 . S
N643 C646 1.350 . S
N644 S642 1.610 . S
N644 C645 1.351 . S
C645 C639 1.428 . S
C645 N644 1.351 . S
C645 C646 1.434 . S
C646 C637 1.429 . S
C646 N643 1.350 . S
C646 C645 1.434 . S
C647 C648 1.369 . S
C647 C649 1.419 . S
C647 H651 0.930 . S
C648 C647 1.369 . S
C648 C657 1.429 . S
C649 C647 1.419 . S
C649 C650 1.363 . S
C649 H652 0.929 . S
C650 C649 1.363 . S
C650 C656 1.428 . S
H651 C647 0.930 . S
H652 C649 0.929 . S
S653 N654 1.613 . S
S653 N655 1.610 . S
N654 S653 1.613 . S
N654 C657 1.350 . S
N655 S653 1.610 . S
N655 C656 1.351 . S
C656 C650 1.428 . S
C656 N655 1.351 . S
C656 C657 1.434 . S
C657 C648 1.429 . S
C657 N654 1.350 . S
C657 C656 1.434 . S
C658 C659 1.369 . S
C658 C660 1.419 . S
C658 H662 0.930 . S
C659 C658 1.369 . S
C659 C668 1.429 . S
C660 C658 1.419 . S
C660 C661 1.363 . S
C660 H663 0.929 . S
C661 C660 1.363 . S
C661 C667 1.428 . S
H662 C658 0.930 . S
H663 C660 0.929 . S
S664 N665 1.613 . S
S664 N666 1.610 . S
N665 S664 1.613 . S
N665 C668 1.350 . S
N666 S664 1.610 . S
N666 C667 1.351 . S
C667 C661 1.428 . S
C667 N666 1.351 . S
C667 C668 1.434 . S
C668 C659 1.429 . S
C668 N665 1.350 . S
C668 C667 1.434 . S
C669 C670 1.369 . S
C669 C671 1.419 . S
C669 H673 0.930 . S
C670 C669 1.369 . S
C670 C679 1.429 . S
C671 C669 1.419 . S
C671 C672 1.363 . S
C671 H674 0.929 . S
C672 C671 1.363 . S
C672 C678 1.428 . S
H673 C669 0.930 . S
H674 C671 0.929 . S
S675 N676 1.613 . S
S675 N677 1.610 . S
N676 S675 1.613 . S
N676 C679 1.350 . S
N677 S675 1.610 . S
N677 C678 1.351 . S
C678 C672 1.428 . S
C678 N677 1.351 . S
C678 C679 1.434 . S
C679 C670 1.429 . S
C679 N676 1.350 . S
C679 C678 1.434 . S
C680 C681 1.369 . S
C680 C682 1.419 . S
C680 H684 0.930 . S
C681 C680 1.369 . S
C681 C690 1.429 . S
C682 C680 1.419 . S
C682 C683 1.363 . S
C682 H685 0.929 . S
C683 C682 1.363 . S
C683 C689 1.428 . S
H684 C680 0.930 . S
H685 C682 0.929 . S
S686 N687 1.613 . S
S686 N688 1.610 . S
N687 S686 1.613 . S
N687 C690 1.350 . S
N688 S686 1.610 . S
N688 C689 1.351 . S
C689 C683 1.428 . S
C689 N688 1.351 . S
C689 C690 1.434 . S
C690 C681 1.429 . S
C690 N687 1.350 . S
C690 C689 1.434 . S
C691 C692 1.369 . S
C691 C693 1.419 . S
C691 H695 0.930 . S
C692 C691 1.369 . S
C692 C701 1.429 . S
C693 C691 1.419 . S
C693 C694 1.363 . S
C693 H696 0.929 . S
C694 C693 1.363 . S
C694 C700 1.428 . S
H695 C691 0.930 . S
H696 C693 0.929 . S
S697 N698 1.613 . S
S697 N699 1.610 . S
N698 S697 1.613 . S
N698 C701 1.350 . S
N699 S697 1.610 . S
N699 C700 1.351 . S
C700 C694 1.428 . S
C700 N699 1.351 . S
C700 C701 1.434 . S
C701 C692 1.429 . S
C701 N698 1.350 . S
C701 C700 1.434 . S
C702 C703 1.369 . S
C702 C704 1.419 . S
C702 H706 0.930 . S
C703 C702 1.369 . S
C703 C712 1.429 . S
C704 C702 1.419 . S
C704 C705 1.363 . S
C704 H707 0.929 . S
C705 C704 1.363 . S
C705 C711 1.428 . S
H706 C702 0.930 . S
H707 C704 0.929 . S
S708 N709 1.613 . S
S708 N710 1.610 . S
N709 S708 1.613 . S
N709 C712 1.350 . S
N710 S708 1.610 . S
N710 C711 1.351 . S
C711 C705 1.428 . S
C711 N710 1.351 . S
C711 C712 1.434 . S
C712 C703 1.429 . S
C712 N709 1.350 . S
C712 C711 1.434 . S
C713 C714 1.369 . S
C713 C715 1.419 . S
C713 H717 0.930 . S
C714 C713 1.369 . S
C714 C723 1.429 . S
C715 C713 1.419 . S
C715 C716 1.363 . S
C715 H718 0.929 . S
C716 C715 1.363 . S
C716 C722 1.428 . S
H717 C713 0.930 . S
H718 C715 0.929 . S
S719 N720 1.613 . S
S719 N721 1.610 . S
N720 S719 1.613 . S
N720 C723 1.350 . S
N721 S719 1.610 . S
N721 C722 1.351 . S
C722 C716 1.428 . S
C722 N721 1.351 . S
C722 C723 1.434 . S
C723 C714 1.429 . S
C723 N720 1.350 . S
C723 C722 1.434 . S
C724 C725 1.369 . S
C724 C726 1.419 . S
C724 H728 0.930 . S
C725 C724 1.369 . S
C725 C734 1.429 1_554 S
C726 C724 1.419 . S
C726 C727 1.363 1_554 S
C726 H729 0.929 . S
C727 C726 1.363 1_556 S
C727 C733 1.428 . S
H728 C724 0.930 . S
H729 C726 0.929 . S
S730 N731 1.613 . S
S730 N732 1.610 . S
N731 S730 1.613 . S
N731 C734 1.350 . S
N732 S730 1.610 . S
N732 C733 1.351 . S
C733 C727 1.428 . S
C733 N732 1.351 . S
C733 C734 1.434 . S
C734 C725 1.429 1_556 S
C734 N731 1.350 . S
C734 C733 1.434 . S
C735 C736 1.369 . S
C735 C737 1.419 . S
C735 H739 0.930 . S
C736 C735 1.369 . S
C736 C745 1.429 . S
C737 C735 1.419 . S
C737 C738 1.363 . S
C737 H740 0.929 . S
C738 C737 1.363 . S
C738 C744 1.428 . S
H739 C735 0.930 . S
H740 C737 0.929 . S
S741 N742 1.613 . S
S741 N743 1.610 . S
N742 S741 1.613 . S
N742 C745 1.350 . S
N743 S741 1.610 . S
N743 C744 1.351 . S
C744 C738 1.428 . S
C744 N743 1.351 . S
C744 C745 1.434 . S
C745 C736 1.429 . S
C745 N742 1.350 . S
C745 C744 1.434 . S
C746 C747 1.369 . S
C746 C748 1.419 . S
C746 H750 0.930 . S
C747 C746 1.369 . S
C747 C756 1.429 . S
C748 C746 1.419 . S
C748 C749 1.363 . S
C748 H751 0.929 . S
C749 C748 1.363 . S
C749 C755 1.428 . S
H750 C746 0.930 . S
H751 C748 0.929 . S
S752 N753 1.613 . S
S752 N754 1.610 . S
N753 S752 1.613 . S
N753 C756 1.350 . S
N754 S752 1.610 . S
N754 C755 1.351 . S
C755 C749 1.428 . S
C755 N754 1.351 . S
C755 C756 1.434 . S
C756 C747 1.429 . S
C756 N753 1.350 . S
C756 C755 1.434 . S
C757 C758 1.369 . S
C757 C759 1.419 . S
C757 H761 0.930 . S
C758 C757 1.369 . S
C758 C767 1.429 1_556 S
C759 C757 1.419 . S
C759 C760 1.363 1_556 S
C759 H762 0.929 . S
C760 C759 1.363 1_554 S
C760 C766 1.428 . S
H761 C757 0.930 . S
H762 C759 0.929 . S
S763 N764 1.613 . S
S763 N765 1.610 . S
N764 S763 1.613 . S
N764 C767 1.350 . S
N765 S763 1.610 . S
N765 C766 1.351 . S
C766 C760 1.428 . S
C766 N765 1.351 . S
C766 C767 1.434 . S
C767 C758 1.429 1_554 S
C767 N764 1.350 . S
C767 C766 1.434 . S
C768 C769 1.369 . S
C768 C770 1.419 . S
C768 H772 0.930 . S
C769 C768 1.369 . S
C769 C778 1.429 1_545 S
C770 C768 1.419 . S
C770 C771 1.363 1_545 S
C770 H773 0.929 . S
C771 C770 1.363 1_565 S
C771 C777 1.428 . S
H772 C768 0.930 . S
H773 C770 0.929 . S
S774 N775 1.613 . S
S774 N776 1.610 . S
N775 S774 1.613 . S
N775 C778 1.350 . S
N776 S774 1.610 . S
N776 C777 1.351 . S
C777 C771 1.428 . S
C777 N776 1.351 . S
C777 C778 1.434 . S
C778 C769 1.429 1_565 S
C778 N775 1.350 . S
C778 C777 1.434 . S
C779 C780 1.369 . S
C779 C781 1.419 . S
C779 H783 0.930 . S
C780 C779 1.369 . S
C780 C789 1.429 . S
C781 C779 1.419 . S
C781 C782 1.363 . S
C781 H784 0.929 . S
C782 C781 1.363 . S
C782 C788 1.428 . S
H783 C779 0.930 . S
H784 C781 0.929 . S
S785 N786 1.613 . S
S785 N787 1.610 . S
N786 S785 1.613 . S
N786 C789 1.350 . S
N787 S785 1.610 . S
N787 C788 1.351 . S
C788 C782 1.428 . S
C788 N787 1.351 . S
C788 C789 1.434 . S
C789 C780 1.429 . S
C789 N786 1.350 . S
C789 C788 1.434 . S
C790 C791 1.369 1_455 S
C790 C792 1.419 . S
C790 H794 0.930 . S
C791 C790 1.369 1_655 S
C791 C800 1.429 1_554 S
C792 C790 1.419 . S
C792 C793 1.363 . S
C792 H795 0.929 . S
C793 C792 1.363 . S
C793 C799 1.428 1_454 S
H794 C790 0.930 . S
H795 C792 0.929 . S
S796 N797 1.613 . S
S796 N798 1.610 . S
N797 S796 1.613 . S
N797 C800 1.350 . S
N798 S796 1.610 . S
N798 C799 1.351 . S
C799 C793 1.428 1_656 S
C799 N798 1.351 . S
C799 C800 1.434 . S
C800 C791 1.429 1_556 S
C800 N797 1.350 . S
C800 C799 1.434 . S
C801 C802 1.369 . S
C801 C803 1.419 . S
C801 H805 0.930 . S
C802 C801 1.369 . S
C802 C811 1.429 1_455 S
C803 C801 1.419 . S
C803 C804 1.363 1_455 S
C803 H806 0.929 . S
C804 C803 1.363 1_655 S
C804 C810 1.428 . S
H805 C801 0.930 . S
H806 C803 0.929 . S
S807 N808 1.613 . S
S807 N809 1.610 . S
N808 S807 1.613 . S
N808 C811 1.350 . S
N809 S807 1.610 . S
N809 C810 1.351 . S
C810 C804 1.428 . S
C810 N809 1.351 . S
C810 C811 1.434 . S
C811 C802 1.429 1_655 S
C811 N808 1.350 . S
C811 C810 1.434 . S
C812 C813 1.369 1_565 S
C812 C814 1.419 . S
C812 H816 0.930 . S
C813 C812 1.369 1_545 S
C813 C822 1.429 . S
C814 C812 1.419 . S
C814 C815 1.363 . S
C814 H817 0.929 . S
C815 C814 1.363 . S
C815 C821 1.428 1_565 S
H816 C812 0.930 . S
H817 C814 0.929 . S
S818 N819 1.613 . S
S818 N820 1.610 . S
N819 S818 1.613 . S
N819 C822 1.350 . S
N820 S818 1.610 . S
N820 C821 1.351 . S
C821 C815 1.428 1_545 S
C821 N820 1.351 . S
C821 C822 1.434 . S
C822 C813 1.429 . S
C822 N819 1.350 . S
C822 C821 1.434 . S
C823 C824 1.369 1_554 S
C823 C825 1.419 . S
C823 H827 0.930 . S
C824 C823 1.369 1_556 S
C824 C833 1.429 . S
C825 C823 1.419 . S
C825 C826 1.363 1_554 S
C825 H828 0.929 . S
C826 C825 1.363 1_556 S
C826 C832 1.428 . S
H827 C823 0.930 . S
H828 C825 0.929 . S
S829 N830 1.613 . S
S829 N831 1.610 . S
N830 S829 1.613 . S
N830 C833 1.350 . S
N831 S829 1.610 . S
N831 C832 1.351 . S
C832 C826 1.428 . S
C832 N831 1.351 . S
C832 C833 1.434 . S
C833 C824 1.429 . S
C833 N830 1.350 . S
C833 C832 1.434 . S
C834 C835 1.369 . S
C834 C836 1.419 . S
C834 H838 0.930 . S
C835 C834 1.369 . S
C835 C844 1.429 . S
C836 C834 1.419 . S
C836 C837 1.363 . S
C836 H839 0.929 . S
C837 C836 1.363 . S
C837 C843 1.428 . S
H838 C834 0.930 . S
H839 C836 0.929 . S
S840 N841 1.613 . S
S840 N842 1.610 . S
N841 S840 1.613 . S
N841 C844 1.350 . S
N842 S840 1.610 . S
N842 C843 1.351 . S
C843 C837 1.428 . S
C843 N842 1.351 . S
C843 C844 1.434 . S
C844 C835 1.429 . S
C844 N841 1.350 . S
C844 C843 1.434 . S
C845 C846 1.369 . S
C845 C847 1.419 . S
C845 H849 0.930 . S
C846 C845 1.369 . S
C846 C855 1.429 . S
C847 C845 1.419 . S
C847 C848 1.363 . S
C847 H850 0.929 . S
C848 C847 1.363 . S
C848 C854 1.428 . S
H849 C845 0.930 . S
H850 C847 0.929 . S
S851 N852 1.613 . S
S851 N853 1.610 . S
N852 S851 1.613 . S
N852 C855 1.350 . S
N853 S851 1.610 . S
N853 C854 1.351 . S
C854 C848 1.428 . S
C854 N853 1.351 . S
C854 C855 1.434 . S
C855 C846 1.429 . S
C855 N852 1.350 . S
C855 C854 1.434 . S
C856 C857 1.369 . S
C856 C858 1.419 . S
C856 H860 0.930 . S
C857 C856 1.369 . S
C857 C866 1.429 . S
C858 C856 1.419 . S
C858 C859 1.363 . S
C858 H861 0.929 . S
C859 C858 1.363 . S
C859 C865 1.428 . S
H860 C856 0.930 . S
H861 C858 0.929 . S
S862 N863 1.613 . S
S862 N864 1.610 . S
N863 S862 1.613 . S
N863 C866 1.350 . S
N864 S862 1.610 . S
N864 C865 1.351 . S
C865 C859 1.428 . S
C865 N864 1.351 . S
C865 C866 1.434 . S
C866 C857 1.429 . S
C866 N863 1.350 . S
C866 C865 1.434 . S
C867 C868 1.369 . S
C867 C869 1.419 . S
C867 H871 0.930 . S
C868 C867 1.369 . S
C868 C877 1.429 . S
C869 C867 1.419 . S
C869 C870 1.363 . S
C869 H872 0.929 . S
C870 C869 1.363 . S
C870 C876 1.428 . S
H871 C867 0.930 . S
H872 C869 0.929 . S
S873 N874 1.613 . S
S873 N875 1.610 . S
N874 S873 1.613 . S
N874 C877 1.350 . S
N875 S873 1.610 . S
N875 C876 1.351 . S
C876 C870 1.428 . S
C876 N875 1.351 . S
C876 C877 1.434 . S
C877 C868 1.429 . S
C877 N874 1.350 . S
C877 C876 1.434 . S
C878 C879 1.369 . S
C878 C880 1.419 . S
C878 H882 0.930 . S
C879 C878 1.369 . S
C879 C888 1.429 . S
C880 C878 1.419 . S
C880 C881 1.363 . S
C880 H883 0.929 . S
C881 C880 1.363 . S
C881 C887 1.428 . S
H882 C878 0.930 . S
H883 C880 0.929 . S
S884 N885 1.613 . S
S884 N886 1.610 . S
N885 S884 1.613 . S
N885 C888 1.350 . S
N886 S884 1.610 . S
N886 C887 1.351 . S
C887 C881 1.428 . S
C887 N886 1.351 . S
C887 C888 1.434 . S
C888 C879 1.429 . S
C888 N885 1.350 . S
C888 C887 1.434 . S
C889 C890 1.369 . S
C889 C891 1.419 . S
C889 H893 0.930 . S
C890 C889 1.369 . S
C890 C899 1.429 . S
C891 C889 1.419 . S
C891 C892 1.363 . S
C891 H894 0.929 . S
C892 C891 1.363 . S
C892 C898 1.428 . S
H893 C889 0.930 . S
H894 C891 0.929 . S
S895 N896 1.613 . S
S895 N897 1.610 . S
N896 S895 1.613 . S
N896 C899 1.350 . S
N897 S895 1.610 . S
N897 C898 1.351 . S
C898 C892 1.428 . S
C898 N897 1.351 . S
C898 C899 1.434 . S
C899 C890 1.429 . S
C899 N896 1.350 . S
C899 C898 1.434 . S
C637 C39 1.438 . S
C639 C569 1.443 . S
C648 C92 1.543 . S
C650 C622 1.539 . S
C659 C357 1.541 . S
C661 C145 1.541 . S
C670 C198 1.440 . S
C672 C410 1.439 . S
C681 C463 1.543 . S
C683 C251 1.545 . S
C692 C516 1.543 . S
C694 C304 1.540 . S
C703 C347 1.498 . S
C705 C29 1.499 . S
C714 C400 1.494 . S
C716 C82 1.495 . S
C725 C453 1.509 . S
C727 C135 1.509 . S
C736 C188 1.501 . S
C738 C506 1.500 . S
C747 C241 1.501 . S
C749 C559 1.501 . S
C758 C294 1.507 . S
C760 C612 1.508 . S
C769 C22 3.043 . S
C771 C181 3.037 . S
C780 C75 3.031 . S
C782 C234 3.038 . S
C791 C128 3.015 . S
C793 C287 3.018 . S
C802 C499 3.039 . S
C804 C340 3.033 . S
C813 C552 3.035 . S
C815 C393 3.041 . S
C824 C605 3.014 . S
C826 C446 3.019 . S
C835 C38 2.223 . S
C837 C462 2.225 . S
C846 C515 2.311 . S
C848 C91 2.309 . S
C857 C144 2.229 . S
C859 C568 2.221 . S
C868 C621 2.228 . S
C870 C197 2.224 . S
C879 C250 2.311 . S
C881 C356 2.312 . S
C890 C303 2.227 . S
C892 C409 2.223 . S
