# Generated by pormake.
# Topology uow, (4)-cn, num edge types: 1
# Building blocks:
#     Node 0, Type 0, BuildingBlock: ESEHIV_clean_sbu_0, # of connection points: 4
#     Node 1, Type 0, BuildingBlock: ESEHIV_clean_sbu_0, # of connection points: 4
#     Node 2, Type 0, BuildingBlock: ESEHIV_clean_sbu_0, # of connection points: 4
#     Node 3, Type 0, BuildingBlock: ESEHIV_clean_sbu_0, # of connection points: 4
#     Node 4, Type 0, BuildingBlock: ESEHIV_clean_sbu_0, # of connection points: 4
#     Node 5, Type 0, BuildingBlock: ESEHIV_clean_sbu_0, # of connection points: 4
#     Node 6, Type 0, BuildingBlock: ESEHIV_clean_sbu_0, # of connection points: 4
#     Node 7, Type 0, BuildingBlock: ESEHIV_clean_sbu_0, # of connection points: 4
#     Node 8, Type 0, BuildingBlock: ESEHIV_clean_sbu_0, # of connection points: 4
#     Node 9, Type 0, BuildingBlock: ESEHIV_clean_sbu_0, # of connection points: 4
#     Node 10, Type 0, BuildingBlock: ESEHIV_clean_sbu_0, # of connection points: 4
#     Node 11, Type 0, BuildingBlock: ESEHIV_clean_sbu_0, # of connection points: 4
#     Node 12, Type 0, BuildingBlock: ESEHIV_clean_sbu_0, # of connection points: 4
#     Node 13, Type 0, BuildingBlock: ESEHIV_clean_sbu_0, # of connection points: 4
#     Node 14, Type 0, BuildingBlock: ESEHIV_clean_sbu_0, # of connection points: 4
#     Node 15, Type 0, BuildingBlock: ESEHIV_clean_sbu_0, # of connection points: 4
#     Node 16, Type 0, BuildingBlock: ESEHIV_clean_sbu_0, # of connection points: 4
#     Node 17, Type 0, BuildingBlock: ESEHIV_clean_sbu_0, # of connection points: 4
#     Node 18, Type 0, BuildingBlock: ESEHIV_clean_sbu_0, # of connection points: 4
#     Node 19, Type 0, BuildingBlock: ESEHIV_clean_sbu_0, # of connection points: 4
#     Node 20, Type 0, BuildingBlock: ESEHIV_clean_sbu_0, # of connection points: 4
#     Node 21, Type 0, BuildingBlock: ESEHIV_clean_sbu_0, # of connection points: 4
#     Node 22, Type 0, BuildingBlock: ESEHIV_clean_sbu_0, # of connection points: 4
#     Node 23, Type 0, BuildingBlock: ESEHIV_clean_sbu_0, # of connection points: 4
#     Node 24, Type 0, BuildingBlock: ESEHIV_clean_sbu_0, # of connection points: 4
#     Node 25, Type 0, BuildingBlock: ESEHIV_clean_sbu_0, # of connection points: 4
#     Node 26, Type 0, BuildingBlock: ESEHIV_clean_sbu_0, # of connection points: 4
#     Node 27, Type 0, BuildingBlock: ESEHIV_clean_sbu_0, # of connection points: 4
#     Node 28, Type 0, BuildingBlock: ESEHIV_clean_sbu_0, # of connection points: 4
#     Node 29, Type 0, BuildingBlock: ESEHIV_clean_sbu_0, # of connection points: 4
#     Node 30, Type 0, BuildingBlock: ESEHIV_clean_sbu_0, # of connection points: 4
#     Node 31, Type 0, BuildingBlock: ESEHIV_clean_sbu_0, # of connection points: 4
#     Edge 32, Type (0, 0), BuildingBlock: XIVTED_clean_linker_0, # of connection points: 2
#     Edge 33, Type (0, 0), BuildingBlock: XIVTED_clean_linker_0, # of connection points: 2
#     Edge 34, Type (0, 0), BuildingBlock: XIVTED_clean_linker_0, # of connection points: 2
#     Edge 35, Type (0, 0), BuildingBlock: XIVTED_clean_linker_0, # of connection points: 2
#     Edge 36, Type (0, 0), BuildingBlock: XIVTED_clean_linker_0, # of connection points: 2
#     Edge 37, Type (0, 0), BuildingBlock: XIVTED_clean_linker_0, # of connection points: 2
#     Edge 38, Type (0, 0), BuildingBlock: XIVTED_clean_linker_0, # of connection points: 2
#     Edge 39, Type (0, 0), BuildingBlock: XIVTED_clean_linker_0, # of connection points: 2
#     Edge 40, Type (0, 0), BuildingBlock: XIVTED_clean_linker_0, # of connection points: 2
#     Edge 41, Type (0, 0), BuildingBlock: XIVTED_clean_linker_0, # of connection points: 2
#     Edge 42, Type (0, 0), BuildingBlock: XIVTED_clean_linker_0, # of connection points: 2
#     Edge 43, Type (0, 0), BuildingBlock: XIVTED_clean_linker_0, # of connection points: 2
#     Edge 44, Type (0, 0), BuildingBlock: XIVTED_clean_linker_0, # of connection points: 2
#     Edge 45, Type (0, 0), BuildingBlock: XIVTED_clean_linker_0, # of connection points: 2
#     Edge 46, Type (0, 0), BuildingBlock: XIVTED_clean_linker_0, # of connection points: 2
#     Edge 47, Type (0, 0), BuildingBlock: XIVTED_clean_linker_0, # of connection points: 2
#     Edge 48, Type (0, 0), BuildingBlock: XIVTED_clean_linker_0, # of connection points: 2
#     Edge 49, Type (0, 0), BuildingBlock: XIVTED_clean_linker_0, # of connection points: 2
#     Edge 50, Type (0, 0), BuildingBlock: XIVTED_clean_linker_0, # of connection points: 2
#     Edge 51, Type (0, 0), BuildingBlock: XIVTED_clean_linker_0, # of connection points: 2
#     Edge 52, Type (0, 0), BuildingBlock: XIVTED_clean_linker_0, # of connection points: 2
#     Edge 53, Type (0, 0), BuildingBlock: XIVTED_clean_linker_0, # of connection points: 2
#     Edge 54, Type (0, 0), BuildingBlock: XIVTED_clean_linker_0, # of connection points: 2
#     Edge 55, Type (0, 0), BuildingBlock: XIVTED_clean_linker_0, # of connection points: 2
#     Edge 56, Type (0, 0), BuildingBlock: XIVTED_clean_linker_0, # of connection points: 2
#     Edge 57, Type (0, 0), BuildingBlock: XIVTED_clean_linker_0, # of connection points: 2
#     Edge 58, Type (0, 0), BuildingBlock: XIVTED_clean_linker_0, # of connection points: 2
#     Edge 59, Type (0, 0), BuildingBlock: XIVTED_clean_linker_0, # of connection points: 2
#     Edge 60, Type (0, 0), BuildingBlock: XIVTED_clean_linker_0, # of connection points: 2
#     Edge 61, Type (0, 0), BuildingBlock: XIVTED_clean_linker_0, # of connection points: 2
#     Edge 62, Type (0, 0), BuildingBlock: XIVTED_clean_linker_0, # of connection points: 2
#     Edge 63, Type (0, 0), BuildingBlock: XIVTED_clean_linker_0, # of connection points: 2
#     Edge 64, Type (0, 0), BuildingBlock: XIVTED_clean_linker_0, # of connection points: 2
#     Edge 65, Type (0, 0), BuildingBlock: XIVTED_clean_linker_0, # of connection points: 2
#     Edge 66, Type (0, 0), BuildingBlock: XIVTED_clean_linker_0, # of connection points: 2
#     Edge 67, Type (0, 0), BuildingBlock: XIVTED_clean_linker_0, # of connection points: 2
#     Edge 68, Type (0, 0), BuildingBlock: XIVTED_clean_linker_0, # of connection points: 2
#     Edge 69, Type (0, 0), BuildingBlock: XIVTED_clean_linker_0, # of connection points: 2
#     Edge 70, Type (0, 0), BuildingBlock: XIVTED_clean_linker_0, # of connection points: 2
#     Edge 71, Type (0, 0), BuildingBlock: XIVTED_clean_linker_0, # of connection points: 2
#     Edge 72, Type (0, 0), BuildingBlock: XIVTED_clean_linker_0, # of connection points: 2
#     Edge 73, Type (0, 0), BuildingBlock: XIVTED_clean_linker_0, # of connection points: 2
#     Edge 74, Type (0, 0), BuildingBlock: XIVTED_clean_linker_0, # of connection points: 2
#     Edge 75, Type (0, 0), BuildingBlock: XIVTED_clean_linker_0, # of connection points: 2
#     Edge 76, Type (0, 0), BuildingBlock: XIVTED_clean_linker_0, # of connection points: 2
#     Edge 77, Type (0, 0), BuildingBlock: XIVTED_clean_linker_0, # of connection points: 2
#     Edge 78, Type (0, 0), BuildingBlock: XIVTED_clean_linker_0, # of connection points: 2
#     Edge 79, Type (0, 0), BuildingBlock: XIVTED_clean_linker_0, # of connection points: 2
#     Edge 80, Type (0, 0), BuildingBlock: XIVTED_clean_linker_0, # of connection points: 2
#     Edge 81, Type (0, 0), BuildingBlock: XIVTED_clean_linker_0, # of connection points: 2
#     Edge 82, Type (0, 0), BuildingBlock: XIVTED_clean_linker_0, # of connection points: 2
#     Edge 83, Type (0, 0), BuildingBlock: XIVTED_clean_linker_0, # of connection points: 2
#     Edge 84, Type (0, 0), BuildingBlock: XIVTED_clean_linker_0, # of connection points: 2
#     Edge 85, Type (0, 0), BuildingBlock: XIVTED_clean_linker_0, # of connection points: 2
#     Edge 86, Type (0, 0), BuildingBlock: XIVTED_clean_linker_0, # of connection points: 2
#     Edge 87, Type (0, 0), BuildingBlock: XIVTED_clean_linker_0, # of connection points: 2
#     Edge 88, Type (0, 0), BuildingBlock: XIVTED_clean_linker_0, # of connection points: 2
#     Edge 89, Type (0, 0), BuildingBlock: XIVTED_clean_linker_0, # of connection points: 2
#     Edge 90, Type (0, 0), BuildingBlock: XIVTED_clean_linker_0, # of connection points: 2
#     Edge 91, Type (0, 0), BuildingBlock: XIVTED_clean_linker_0, # of connection points: 2
#     Edge 92, Type (0, 0), BuildingBlock: XIVTED_clean_linker_0, # of connection points: 2
#     Edge 93, Type (0, 0), BuildingBlock: XIVTED_clean_linker_0, # of connection points: 2
#     Edge 94, Type (0, 0), BuildingBlock: XIVTED_clean_linker_0, # of connection points: 2
#     Edge 95, Type (0, 0), BuildingBlock: XIVTED_clean_linker_0, # of connection points: 2
# Relax obj value: 0.062
# Max RMSD: 0.244
# Mean RMSD: 0.222
data_MOF--net-uow--node1-ESEHIV_clean_sbu_0--edge1-XIVTED_clean_linker_0
_symmetry_space_group_name_H-M    P1
_symmetry_Int_Tables_number       1
_symmetry_cell_setting            triclinic
loop_
_symmetry_equiv_pos_as_xyz
'x, y, z'
_cell_length_a     63.755277
_cell_length_b     69.450546
_cell_length_c     48.860039
_cell_angle_alpha  89.917068
_cell_angle_beta   90.145706
_cell_angle_gamma 90.012539
loop_
_atom_site_label
_atom_site_type_symbol
_atom_site_fract_x
_atom_site_fract_y
_atom_site_fract_z
_atom_type_partial_charge
Cu0 Cu 0.0863 0.38583 0.3087 0.0
N1 N 0.10264 0.36884 0.32973 0.0
N2 N 0.11154 0.34526 0.35906 0.0
C3 C 0.09574 0.35593 0.34834 0.0
C4 C 0.12906 0.35188 0.34668 0.0
C5 C 0.12353 0.36635 0.32868 0.0
O6 O 0.05802 0.38491 0.32317 0.0
C7 C 0.10292 0.3812 0.25563 0.0
O8 O 0.11892 0.39044 0.26636 0.0
H9 H 0.07942 0.35443 0.35388 0.0
H10 H 0.13398 0.37433 0.31546 0.0
N11 N 0.09627 0.41113 0.312 0.0
N12 N 0.10144 0.44266 0.30469 0.0
C13 C 0.09243 0.42626 0.29534 0.0
C14 C 0.10812 0.41814 0.33248 0.0
C15 C 0.11133 0.43753 0.32806 0.0
C16 C 0.04647 0.3701 0.32032 0.0
O17 O 0.05331 0.35565 0.30548 0.0
H18 H 0.08286 0.42531 0.27706 0.0
H19 H 0.11389 0.40974 0.34958 0.0
O20 O 0.08693 0.3778 0.27047 0.0
H21 H 0.14476 0.34639 0.3498 0.0
H22 H 0.12041 0.44705 0.341 0.0
Cu23 Cu 0.87881 0.82233 0.54212 0.0
N24 N 0.89558 0.82568 0.51115 0.0
N25 N 0.9068 0.8332 0.46906 0.0
C26 C 0.89021 0.83268 0.48634 0.0
C27 C 0.92311 0.82626 0.48377 0.0
C28 C 0.91615 0.82164 0.5096 0.0
O29 O 0.85071 0.83222 0.53468 0.0
C30 C 0.90276 0.8501 0.5711 0.0
O31 O 0.90141 0.85978 0.54804 0.0
H32 H 0.87445 0.83716 0.48113 0.0
H33 H 0.92545 0.81591 0.52627 0.0
N34 N 0.8769 0.79602 0.54922 0.0
N35 N 0.88177 0.76713 0.56853 0.0
C36 C 0.88636 0.78614 0.56952 0.0
C37 C 0.86597 0.78293 0.53483 0.0
C38 C 0.86892 0.76511 0.54668 0.0
C39 C 0.83549 0.82969 0.55113 0.0
O40 O 0.83913 0.82151 0.57494 0.0
H41 H 0.89624 0.79286 0.5848 0.0
H42 H 0.85663 0.78614 0.51688 0.0
O43 O 0.89292 0.83423 0.5733 0.0
H44 H 0.9391 0.82492 0.47665 0.0
H45 H 0.86237 0.75169 0.53939 0.0
Cu46 Cu 0.43266 0.63262 0.79959 0.0
N47 N 0.41504 0.64833 0.82056 0.0
N48 N 0.40385 0.67 0.85114 0.0
C49 C 0.42067 0.66121 0.8399 0.0
C50 C 0.38702 0.66228 0.83838 0.0
C51 C 0.39397 0.64898 0.81956 0.0
O52 O 0.46084 0.63509 0.81422 0.0
C53 C 0.41582 0.63662 0.74638 0.0
O54 O 0.40073 0.6259 0.75649 0.0
H55 H 0.43674 0.66388 0.8459 0.0
H56 H 0.38434 0.64034 0.80607 0.0
N57 N 0.42413 0.60689 0.80307 0.0
N58 N 0.42005 0.57516 0.79649 0.0
C59 C 0.42862 0.5917 0.78688 0.0
C60 C 0.41235 0.59975 0.82349 0.0
C61 C 0.40979 0.58027 0.81951 0.0
C62 C 0.47106 0.65081 0.81304 0.0
O63 O 0.46298 0.6655 0.79973 0.0
H64 H 0.43822 0.59274 0.76871 0.0
H65 H 0.4061 0.60816 0.8402 0.0
O66 O 0.4314 0.64095 0.76154 0.0
H67 H 0.37084 0.66617 0.84205 0.0
H68 H 0.40082 0.57069 0.83247 0.0
Cu69 Cu 0.64063 0.19053 0.03893 0.0
N70 N 0.62502 0.18234 1.00854 0.0
N71 N 0.61398 0.17536 0.96615 0.0
C72 C 0.63046 0.18073 0.98194 0.0
C73 C 0.59766 0.17363 0.98352 0.0
C74 C 0.60447 0.17802 1.00947 0.0
O75 O 0.67069 0.18502 0.03573 0.0
C76 C 0.62123 0.16265 0.07362 0.0
O77 O 0.62581 0.15058 0.05384 0.0
H78 H 0.64601 0.18387 0.97427 0.0
H79 H 0.59503 0.17824 0.02782 0.0
N80 N 0.63781 0.21715 0.04113 0.0
N81 N 0.63003 0.24648 0.05683 0.0
C82 C 0.62908 0.22733 0.06159 0.0
C83 C 0.64443 0.23021 0.02276 0.0
C84 C 0.63969 0.24833 0.03239 0.0
C85 C 0.67889 0.17134 0.02208 0.0
O86 O 0.66665 0.1586 1.01024 0.0
H87 H 0.62259 0.22081 0.07983 0.0
H88 H 0.65223 0.22675 1.00376 0.0
O89 O 0.62761 0.17998 0.07189 0.0
H90 H 0.58189 0.16936 0.97795 0.0
H91 H 0.643 0.26179 0.0221 0.0
Cu92 Cu 0.09247 0.63108 0.21452 0.0
N93 N 0.10904 0.64643 0.19156 0.0
N94 N 0.11863 0.66941 0.16179 0.0
C95 C 0.10248 0.66059 0.17466 0.0
C96 C 0.13601 0.66026 0.17093 0.0
C97 C 0.13004 0.64615 0.18923 0.0
O98 O 0.06354 0.63394 0.20279 0.0
C99 C 0.08278 0.63639 0.27048 0.0
O100 O 0.06536 0.62739 0.26385 0.0
H101 H 0.08622 0.66464 0.17233 0.0
H102 H 0.1403 0.63645 0.20028 0.0
N103 N 0.1001 0.60513 0.21097 0.0
N104 N 0.10326 0.57337 0.21822 0.0
C105 C 0.09657 0.59041 0.22847 0.0
C106 C 0.10937 0.59717 0.18904 0.0
C107 C 0.11135 0.57766 0.19343 0.0
C108 C 0.05345 0.64966 0.20515 0.0
O109 O 0.06227 0.66426 0.2178 0.0
H110 H 0.08878 0.5921 0.24796 0.0
H111 H 0.11413 0.60501 0.17096 0.0
O112 O 0.09649 0.63941 0.25212 0.0
H113 H 0.15194 0.66347 0.16488 0.0
H114 H 0.11832 0.56744 0.17943 0.0
Cu115 Cu 0.64372 0.82448 0.49043 0.0
N116 N 0.62639 0.8249 0.52119 0.0
N117 N 0.61226 0.83182 0.56187 0.0
C118 C 0.62905 0.83409 0.54527 0.0
C119 C 0.59868 0.82072 0.54768 0.0
C120 C 0.60744 0.81648 0.52268 0.0
O121 O 0.67129 0.83497 0.50008 0.0
C122 C 0.63183 0.83546 0.43565 0.0
O123 O 0.64765 0.82477 0.4277 0.0
H124 H 0.64272 0.84268 0.55018 0.0
H125 H 0.60039 0.80806 0.50649 0.0
N126 N 0.64736 0.79886 0.48014 0.0
N127 N 0.64344 0.77062 0.45894 0.0
C128 C 0.63525 0.7883 0.46322 0.0
C129 C 0.66354 0.78743 0.48709 0.0
C130 C 0.66122 0.77003 0.47398 0.0
C131 C 0.68693 0.83393 0.48395 0.0
O132 O 0.68403 0.82736 0.45905 0.0
H133 H 0.62117 0.79372 0.45348 0.0
H134 H 0.67635 0.79163 0.50037 0.0
O135 O 0.62862 0.83794 0.46116 0.0
H136 H 0.5835 0.81594 0.55486 0.0
H137 H 0.67186 0.75791 0.4753 0.0
Cu138 Cu 0.42656 0.38393 0.71858 0.0
N139 N 0.40969 0.36922 0.69526 0.0
N140 N 0.40063 0.34686 0.66437 0.0
C141 C 0.41628 0.35438 0.67976 0.0
C142 C 0.38351 0.35746 0.6706 0.0
C143 C 0.38917 0.37124 0.6896 0.0
O144 O 0.45522 0.37732 0.70878 0.0
C145 C 0.43336 0.38022 0.77565 0.0
O146 O 0.45144 0.38835 0.76997 0.0
H147 H 0.43227 0.34918 0.67999 0.0
H148 H 0.3791 0.3821 0.69844 0.0
N149 N 0.42152 0.41019 0.71247 0.0
N150 N 0.41968 0.44221 0.71784 0.0
C151 C 0.42366 0.42506 0.73005 0.0
C152 C 0.41588 0.41816 0.68847 0.0
C153 C 0.41472 0.43783 0.69169 0.0
C154 C 0.47012 0.38933 0.70598 0.0
O155 O 0.46705 0.40747 0.7124 0.0
H156 H 0.42862 0.42333 0.7511 0.0
H157 H 0.41303 0.41018 0.66983 0.0
O158 O 0.42039 0.3771 0.75633 0.0
H159 H 0.36807 0.35568 0.66174 0.0
H160 H 0.41043 0.44807 0.67593 0.0
Cu161 Cu 0.87519 0.19389 0.98604 0.0
N162 N 0.89414 0.18544 0.01273 0.0
N163 N 0.90895 0.17443 0.05128 0.0
C164 C 0.89075 0.17894 0.03839 0.0
C165 C 0.92421 0.17838 0.03301 0.0
C166 C 0.91506 0.18518 1.0094 0.0
O167 O 0.84631 0.18699 0.99545 0.0
C168 C 0.89383 0.16869 0.94671 0.0
O169 O 0.89352 0.15586 0.96649 0.0
H170 H 0.87531 0.17747 0.0473 0.0
H171 H 0.92308 0.18977 0.99103 0.0
N172 N 0.87688 0.22062 0.9845 0.0
N173 N 0.88454 0.25013 0.96924 0.0
C174 C 0.88691 0.23101 0.96529 0.0
C175 C 0.86794 0.23351 1.00132 0.0
C176 C 0.8726 0.25176 0.99192 0.0
C177 C 0.83346 0.17812 0.97992 0.0
O178 O 0.83985 0.172 0.95592 0.0
H179 H 0.89524 0.22463 0.94829 0.0
H180 H 0.8585 0.22987 0.01894 0.0
O181 O 0.88506 0.18494 0.95049 0.0
H182 H 0.94089 0.17688 0.03659 0.0
H183 H 0.86754 0.26516 1.00105 0.0
Cu184 Cu 0.97851 0.63835 0.741 0.0
N185 N 0.95522 0.64613 0.72071 0.0
N186 N 0.93448 0.66367 0.69336 0.0
C187 C 0.95374 0.66191 0.70477 0.0
C188 C 0.92352 0.64833 0.70259 0.0
C189 C 0.93635 0.63757 0.71946 0.0
O190 O 1.00241 0.6527 0.72701 0.0
C191 C 0.96899 0.66016 0.78802 0.0
O192 O 0.97133 0.67465 0.77099 0.0
H193 H 0.96662 0.67179 0.70155 0.0
H194 H 0.93218 0.62453 0.73028 0.0
N195 N 0.98363 0.61226 0.73411 0.0
N196 N 0.98385 0.57999 0.73505 0.0
C197 C 0.97657 0.59631 0.74695 0.0
C198 C 0.99571 0.60585 0.71355 0.0
C199 C 0.99594 0.58607 0.71408 0.0
C200 C 0.02143 0.64903 0.73302 0.0
O201 O 0.0256 0.63644 0.75237 0.0
H202 H 0.96611 0.59669 0.76434 0.0
H203 H 1.00384 0.61501 0.69913 0.0
O204 O 0.97246 0.64312 0.77949 0.0
H205 H 0.90726 0.64524 0.69797 0.0
H206 H 1.00462 0.57693 0.70024 0.0
Cu207 Cu 0.11884 0.19626 0.50723 0.0
N208 N 0.09853 0.18049 0.49095 0.0
N209 N 0.07789 0.1653 0.4609 0.0
C210 C 0.09124 0.18017 0.46497 0.0
C211 C 0.07671 0.15606 0.48512 0.0
C212 C 0.08939 0.16543 0.50354 0.0
O213 O 0.11781 0.22224 0.49175 0.0
C214 C 0.12027 0.18065 0.56041 0.0
O215 O 0.13226 0.16805 0.54793 0.0
H216 H 0.09604 0.19025 0.44927 0.0
H217 H 0.09201 0.16134 0.52461 0.0
N218 N 0.1451 0.1857 0.49872 0.0
N219 N 0.17943 0.17901 0.49698 0.0
C220 C 0.16448 0.19074 0.50741 0.0
C221 C 0.14796 0.1705 0.48213 0.0
C222 C 0.16901 0.16634 0.48104 0.0
C223 C 0.10105 0.23049 0.48366 0.0
O224 O 0.08293 0.22196 0.48774 0.0
H225 H 0.16748 0.20241 0.52154 0.0
H226 H 0.13554 0.16287 0.47166 0.0
O227 O 0.11349 0.19509 0.54684 0.0
H228 H 0.06726 0.14344 0.48924 0.0
H229 H 0.1761 0.15489 0.46924 0.0
Cu230 Cu 0.54688 0.38241 0.23221 0.0
N231 N 0.56831 0.36937 0.21386 0.0
N232 N 0.58603 0.34961 0.18622 0.0
C233 C 0.56697 0.35463 0.19598 0.0
C234 C 0.59979 0.36154 0.19858 0.0
C235 C 0.58885 0.37364 0.21559 0.0
O236 O 0.51979 0.37532 0.21585 0.0
C237 C 0.56461 0.38393 0.2846 0.0
O238 O 0.57582 0.39724 0.27232 0.0
H239 H 0.55231 0.34805 0.18982 0.0
H240 H 0.59541 0.38499 0.22806 0.0
N241 N 0.55112 0.40891 0.22636 0.0
N242 N 0.55027 0.44108 0.22916 0.0
C243 C 0.54397 0.42425 0.24053 0.0
C244 C 0.56235 0.41635 0.2056 0.0
C245 C 0.56182 0.43608 0.20721 0.0
C246 C 0.51697 0.38033 0.19097 0.0
O247 O 0.53231 0.38914 0.17816 0.0
H248 H 0.53429 0.42309 0.25862 0.0
H249 H 0.57036 0.40796 0.1902 0.0
O250 O 0.54985 0.37584 0.27118 0.0
H251 H 0.61662 0.36149 0.19568 0.0
H252 H 0.56971 0.44599 0.19355 0.0
Cu253 Cu 0.40317 0.8185 0.99847 0.0
N254 N 0.41854 0.83711 0.97949 0.0
N255 N 0.44095 0.85117 0.95051 0.0
C256 C 0.43496 0.8345 0.96256 0.0
C257 C 0.4277 0.86468 0.96024 0.0
C258 C 0.4139 0.85597 0.97793 0.0
O259 O 0.40986 0.79351 0.98255 0.0
C260 C 0.40783 0.83556 0.05074 0.0
O261 O 0.39832 0.85002 0.03861 0.0
H262 H 0.44214 0.82062 0.95893 0.0
H263 H 0.40086 0.86279 0.98815 0.0
N264 N 0.37488 0.82354 0.99099 0.0
N265 N 0.33983 0.82518 0.99113 0.0
C266 C 0.3573 0.82155 1.00614 0.0
C267 C 0.36825 0.82873 0.9659 0.0
C268 C 0.34677 0.82978 0.9659 0.0
C269 C 0.39726 0.77933 0.98426 0.0
O270 O 0.38032 0.78107 0.9993 0.0
H271 H 0.35726 0.81686 0.02728 0.0
H272 H 0.37844 0.83119 0.94858 0.0
O273 O 0.4105 0.81997 0.03742 0.0
H274 H 0.42744 0.87968 0.95424 0.0
H275 H 0.33699 0.8336 0.94859 0.0
Cu276 Cu 0.96404 0.38504 0.78939 0.0
N277 N 0.94296 0.37092 0.80693 0.0
N278 N 0.92568 0.35153 0.83565 0.0
C279 C 0.94468 0.358 0.82747 0.0
C280 C 0.9116 0.36062 0.81955 0.0
C281 C 0.92227 0.37248 0.80189 0.0
O282 O 0.9907 0.38011 0.80821 0.0
C283 C 0.94927 0.38187 0.73515 0.0
O284 O 0.93533 0.39422 0.74423 0.0
H285 H 0.95946 0.35378 0.83662 0.0
H286 H 0.91534 0.38191 0.78677 0.0
N287 N 0.95711 0.41127 0.79261 0.0
N288 N 0.95685 0.44349 0.78986 0.0
C289 C 0.96572 0.42697 0.78071 0.0
C290 C 0.94235 0.41815 0.80962 0.0
C291 C 0.94212 0.43788 0.80796 0.0
C292 C 0.99328 0.38718 0.83207 0.0
O293 O 0.9781 0.39753 0.84266 0.0
H294 H 0.97852 0.4263 0.76623 0.0
H295 H 0.93263 0.40941 0.82281 0.0
O296 O 0.96417 0.37673 0.75103 0.0
H297 H 0.89475 0.35876 0.82039 0.0
H298 H 0.9318 0.44736 0.81921 0.0
Cu299 Cu 0.39509 0.19694 0.51695 0.0
N300 N 0.41557 0.18186 0.53406 0.0
N301 N 0.43806 0.16905 0.56417 0.0
C302 C 0.42367 0.18301 0.55954 0.0
C303 C 0.4389 0.15879 0.54076 0.0
C304 C 0.42503 0.16669 0.52233 0.0
O305 O 0.39431 0.22279 0.5328 0.0
C306 C 0.41909 0.20074 0.46823 0.0
O307 O 0.43317 0.20816 0.48479 0.0
H308 H 0.41901 0.19374 0.57437 0.0
H309 H 0.42205 0.16177 0.50169 0.0
N310 N 0.36916 0.1851 0.52311 0.0
N311 N 0.33483 0.1783 0.52401 0.0
C312 C 0.34968 0.19116 0.51637 0.0
C313 C 0.36649 0.16799 0.53553 0.0
C314 C 0.34543 0.16375 0.5361 0.0
C315 C 0.4105 0.23186 0.54105 0.0
O316 O 0.42913 0.22427 0.53727 0.0
H317 H 0.34654 0.20451 0.50567 0.0
H318 H 0.37905 0.15916 0.54359 0.0
O319 O 0.40115 0.19618 0.47771 0.0
H320 H 0.44914 0.14666 0.53695 0.0
H321 H 0.33847 0.15099 0.54499 0.0
Cu322 Cu 0.54886 0.63441 0.29385 0.0
N323 N 0.57149 0.64704 0.31018 0.0
N324 N 0.59147 0.66751 0.3341 0.0
C325 C 0.57171 0.66266 0.32653 0.0
C326 C 0.60397 0.65434 0.32198 0.0
C327 C 0.59165 0.64187 0.30723 0.0
O328 O 0.52267 0.64217 0.31163 0.0
C329 C 0.55311 0.65738 0.24631 0.0
O330 O 0.55236 0.67157 0.26405 0.0
H331 H 0.55769 0.67037 0.3324 0.0
H332 H 0.59696 0.62973 0.29526 0.0
N333 N 0.55285 0.60793 0.29961 0.0
N334 N 0.55164 0.57578 0.29667 0.0
C335 C 0.54568 0.5927 0.2852 0.0
C336 C 0.56379 0.60035 0.3206 0.0
C337 C 0.56304 0.58063 0.31891 0.0
C338 C 0.52109 0.63828 0.33706 0.0
O339 O 0.53711 0.63017 0.34947 0.0
H340 H 0.53614 0.59399 0.26693 0.0
H341 H 0.57179 0.60864 0.33617 0.0
O342 O 0.55035 0.64019 0.25477 0.0
H343 H 0.62085 0.65349 0.32386 0.0
H344 H 0.57066 0.57063 0.33273 0.0
Cu345 Cu 0.12524 0.82332 0.02424 0.0
N346 N 0.1066 0.84003 0.04169 0.0
N347 N 0.08249 0.85319 0.06914 0.0
C348 C 0.09338 0.83705 0.06279 0.0
C349 C 0.08935 0.86673 0.0514 0.0
C350 C 0.10409 0.85858 0.03457 0.0
O351 O 0.12401 0.79745 0.03976 0.0
C352 C 0.10082 0.82539 0.97549 0.0
O353 O 0.08503 0.82327 0.99244 0.0
H354 H 0.09164 0.82332 0.073 0.0
H355 H 0.11256 0.86568 0.01826 0.0
N356 N 0.15239 0.83243 0.03093 0.0
N357 N 0.18742 0.83471 0.03246 0.0
C358 C 0.17073 0.82521 0.02183 0.0
C359 C 0.15764 0.84695 0.04781 0.0
C360 C 0.17916 0.84842 0.04876 0.0
C361 C 0.10772 0.78713 0.04321 0.0
O362 O 0.08945 0.79346 0.03458 0.0
H363 H 0.17178 0.81293 1.00829 0.0
H364 H 0.14657 0.8557 0.05901 0.0
O365 O 0.1195 0.82469 0.98489 0.0
H366 H 0.08434 0.8816 0.05071 0.0
H367 H 0.18801 0.85887 0.06046 0.0
Cu368 Cu 0.59738 0.88805 0.80793 0.0
N369 N 0.61331 0.87257 0.83165 0.0
N370 N 0.62155 0.84995 0.86272 0.0
C371 C 0.60596 0.85914 0.84916 0.0
C372 C 0.63943 0.85806 0.85337 0.0
C373 C 0.63429 0.87196 0.83426 0.0
O374 O 0.56842 0.88589 0.81957 0.0
C375 C 0.5882 0.88192 0.75155 0.0
O376 O 0.57054 0.8908 0.75721 0.0
H377 H 0.58949 0.85591 0.85146 0.0
H378 H 0.64509 0.88093 0.82291 0.0
N379 N 0.60557 0.91388 0.81107 0.0
N380 N 0.60865 0.94561 0.8035 0.0
C381 C 0.60125 0.92862 0.79389 0.0
C382 C 0.61606 0.92178 0.83216 0.0
C383 C 0.618 0.94128 0.82757 0.0
C384 C 0.55799 0.87034 0.81744 0.0
O385 O 0.56627 0.85569 0.80432 0.0
H386 H 0.59241 0.92696 0.77511 0.0
H387 H 0.62168 0.91391 0.84983 0.0
O388 O 0.6016 0.87928 0.77052 0.0
H389 H 0.65515 0.85433 0.85983 0.0
H390 H 0.62581 0.95144 0.84092 0.0
Cu391 Cu 0.37304 0.32365 0.03623 0.0
N392 N 0.3915 0.32673 1.00693 0.0
N393 N 0.40637 0.33512 0.96724 0.0
C394 C 0.38854 0.33508 0.98225 0.0
C395 C 0.42091 0.32638 0.98308 0.0
C396 C 0.41171 0.32123 1.00743 0.0
O397 O 0.34508 0.33313 0.0267 0.0
C398 C 0.39575 0.35147 0.06657 0.0
O399 O 0.39504 0.3611 0.04341 0.0
H400 H 0.37381 0.34136 0.97574 0.0
H401 H 0.41924 0.31412 0.02453 0.0
N402 N 0.37106 0.29741 0.04353 0.0
N403 N 0.37693 0.26847 0.06206 0.0
C404 C 0.38253 0.28723 0.06165 0.0
C405 C 0.35783 0.28473 0.03195 0.0
C406 C 0.36137 0.26686 0.04337 0.0
C407 C 0.32982 0.33184 0.04339 0.0
O408 O 0.33347 0.32551 0.06831 0.0
H409 H 0.39443 0.29359 0.07463 0.0
H410 H 0.34638 0.28828 0.01638 0.0
O411 O 0.38579 0.33563 0.06836 0.0
H412 H 0.43706 0.32375 0.97741 0.0
H413 H 0.3532 0.25371 0.03814 0.0
Cu414 Cu 0.9323 0.13284 0.30176 0.0
N415 N 0.91503 0.14889 0.32245 0.0
N416 N 0.90581 0.17143 0.35271 0.0
C417 C 0.92019 0.15801 0.34588 0.0
C418 C 0.89103 0.17066 0.33294 0.0
C419 C 0.89672 0.15669 0.31435 0.0
O420 O 0.9608 0.13928 0.31275 0.0
C421 C 0.93959 0.13384 0.24422 0.0
O422 O 0.95691 0.12449 0.25026 0.0
H423 H 0.93489 0.15585 0.3566 0.0
H424 H 0.88873 0.15324 0.29542 0.0
N425 N 0.92611 0.10696 0.30912 0.0
N426 N 0.92253 0.07499 0.30484 0.0
C427 C 0.92721 0.09174 0.29201 0.0
C428 C 0.92046 0.09964 0.33349 0.0
C429 C 0.91824 0.07998 0.33095 0.0
C430 C 0.97469 0.12704 0.31961 0.0
O431 O 0.97076 0.10859 0.31669 0.0
H432 H 0.93185 0.09291 0.27079 0.0
H433 H 0.9183 0.10804 0.3519 0.0
O434 O 0.9272 0.13863 0.26338 0.0
H435 H 0.87751 0.18005 0.3315 0.0
H436 H 0.91369 0.07017 0.3471 0.0
Cu437 Cu 0.13965 0.68811 0.53556 0.0
N438 N 0.12495 0.67606 0.50715 0.0
N439 N 0.11129 0.66722 0.46685 0.0
C440 C 0.12481 0.67919 0.47985 0.0
C441 C 0.10275 0.65625 0.48673 0.0
C442 C 0.11116 0.66172 0.51139 0.0
O443 O 0.16999 0.68357 0.53337 0.0
C444 C 0.13125 0.68194 0.5937 0.0
O445 O 0.14818 0.69191 0.59959 0.0
H446 H 0.13427 0.69004 0.46981 0.0
H447 H 0.10751 0.65561 0.53119 0.0
N448 N 0.13484 0.71458 0.53434 0.0
N449 N 0.1261 0.74426 0.5478 0.0
C450 C 0.12554 0.72528 0.55381 0.0
C451 C 0.14139 0.72715 0.51522 0.0
C452 C 0.13606 0.74549 0.5235 0.0
C453 C 0.17839 0.67231 0.51595 0.0
O454 O 0.16629 0.66191 0.49998 0.0
H455 H 0.11927 0.71934 0.57256 0.0
H456 H 0.14992 0.72326 0.49694 0.0
O457 O 0.12665 0.67847 0.56884 0.0
H458 H 0.09149 0.64479 0.48363 0.0
H459 H 0.13951 0.75871 0.51264 0.0
Cu460 Cu 0.58846 0.13411 0.71614 0.0
N461 N 0.60439 0.15074 0.69411 0.0
N462 N 0.61277 0.17446 0.66483 0.0
C463 C 0.5972 0.16545 0.67864 0.0
C464 C 0.63044 0.16491 0.67198 0.0
C465 C 0.62522 0.15035 0.68995 0.0
O466 O 0.55982 0.13511 0.7028 0.0
C467 C 0.60752 0.14081 0.76725 0.0
O468 O 0.62405 0.1339 0.75462 0.0
H469 H 0.58087 0.16952 0.67769 0.0
H470 H 0.63586 0.14006 0.69915 0.0
N471 N 0.59806 0.10871 0.71262 0.0
N472 N 0.60333 0.07722 0.72011 0.0
C473 C 0.5954 0.09386 0.73015 0.0
C474 C 0.60802 0.10125 0.69086 0.0
C475 C 0.61131 0.0819 0.6954 0.0
C476 C 0.54808 0.14975 0.70592 0.0
O477 O 0.55486 0.1643 0.72068 0.0
H478 H 0.58732 0.09517 0.74951 0.0
H479 H 0.61234 0.1093 0.67277 0.0
O480 O 0.59025 0.14212 0.75422 0.0
H481 H 0.64604 0.16795 0.66449 0.0
H482 H 0.61906 0.07207 0.68155 0.0
Cu483 Cu 0.13668 0.3262 0.98761 0.0
N484 N 0.11983 0.32876 0.01867 0.0
N485 N 0.10837 0.3353 0.06097 0.0
C486 C 0.12498 0.33548 0.0437 0.0
C487 C 0.09227 0.32821 0.04603 0.0
C488 C 0.09938 0.32419 0.02008 0.0
O489 O 0.16495 0.33561 0.99558 0.0
C490 C 0.11193 0.35402 0.95942 0.0
O491 O 0.11211 0.36293 0.98312 0.0
H492 H 0.14061 0.34024 0.04909 0.0
H493 H 0.09026 0.31849 1.00325 0.0
N494 N 0.13867 0.3001 0.97931 0.0
N495 N 0.13401 0.27164 0.95891 0.0
C496 C 0.12774 0.2902 0.96032 0.0
C497 C 0.15217 0.28742 0.99039 0.0
C498 C 0.14937 0.26986 0.97783 0.0
C499 C 0.18006 0.33326 0.97889 0.0
O500 O 0.17609 0.32597 0.95462 0.0
H501 H 0.11587 0.29663 0.94733 0.0
H502 H 0.16344 0.29081 1.00625 0.0
O503 O 0.12272 0.33872 0.95668 0.0
H504 H 0.07633 0.32635 0.05309 0.0
H505 H 0.15796 0.25679 0.98234 0.0
Cu506 Cu 0.92898 0.88534 0.2216 0.0
N507 N 0.91169 0.86877 0.20137 0.0
N508 N 0.9015 0.8455 0.17245 0.0
C509 C 0.91791 0.85497 0.18377 0.0
C510 C 0.88428 0.85378 0.18344 0.0
C511 C 0.89061 0.86808 0.20121 0.0
O512 O 0.95672 0.88405 0.20552 0.0
C513 C 0.91338 0.88034 0.27497 0.0
O514 O 0.8971 0.88942 0.26463 0.0
H515 H 0.93419 0.85182 0.17964 0.0
H516 H 0.88056 0.8774 0.21307 0.0
N517 N 0.9193 0.91076 0.21862 0.0
N518 N 0.91514 0.94247 0.22524 0.0
C519 C 0.92442 0.92608 0.23425 0.0
C520 C 0.90636 0.91764 0.19917 0.0
C521 C 0.90375 0.93712 0.20319 0.0
C522 C 0.96864 0.86945 0.20794 0.0
O523 O 0.96283 0.85512 0.22379 0.0
H524 H 0.9351 0.92527 0.25146 0.0
H525 H 0.89947 0.9091 0.18298 0.0
O526 O 0.92922 0.87722 0.25977 0.0
H527 H 0.8682 0.85 0.1788 0.0
H528 H 0.89407 0.94656 0.19085 0.0
Cu529 Cu 0.37366 0.6994 0.48399 0.0
N530 N 0.39057 0.69856 0.51525 0.0
N531 N 0.40309 0.69157 0.55697 0.0
C532 C 0.38677 0.68975 0.53934 0.0
C533 C 0.4176 0.70194 0.54323 0.0
C534 C 0.40984 0.70619 0.5176 0.0
O535 O 0.34593 0.68925 0.49264 0.0
C536 C 0.39951 0.67146 0.45846 0.0
O537 O 0.39955 0.66353 0.4829 0.0
H538 H 0.37233 0.68217 0.54372 0.0
H539 H 0.41781 0.71405 0.50157 0.0
N540 N 0.37051 0.725 0.47339 0.0
N541 N 0.37579 0.75318 0.45228 0.0
C542 C 0.38308 0.73513 0.4566 0.0
C543 C 0.35474 0.73692 0.48001 0.0
C544 C 0.35794 0.75431 0.46707 0.0
C545 C 0.33204 0.68605 0.47445 0.0
O546 O 0.33698 0.68815 0.44853 0.0
H547 H 0.39727 0.7293 0.44779 0.0
H548 H 0.34166 0.7331 0.493 0.0
O549 O 0.38813 0.68623 0.45426 0.0
H550 H 0.43299 0.70583 0.5508 0.0
H551 H 0.34757 0.76662 0.46799 0.0
Cu552 Cu 0.46769 0.13482 0.23574 0.0
N553 N 0.44612 0.14914 0.21981 0.0
N554 N 0.4269 0.16844 0.19311 0.0
C555 C 0.44622 0.16114 0.19808 0.0
C556 C 0.41436 0.16083 0.21253 0.0
C557 C 0.42626 0.14902 0.22895 0.0
O558 O 0.49448 0.14078 0.21805 0.0
C559 C 0.4692 0.15854 0.28251 0.0
O560 O 0.4747 0.17169 0.26455 0.0
H561 H 0.46004 0.16425 0.18602 0.0
H562 H 0.42084 0.14082 0.24639 0.0
N563 N 0.46098 0.10872 0.2311 0.0
N564 N 0.46078 0.07646 0.23311 0.0
C565 C 0.47031 0.09288 0.24158 0.0
C566 C 0.44508 0.10212 0.2156 0.0
C567 C 0.44488 0.08235 0.21682 0.0
C568 C 0.4987 0.13289 0.19516 0.0
O569 O 0.48491 0.12109 0.18429 0.0
H570 H 0.4839 0.09344 0.25486 0.0
H571 H 0.43433 0.11109 0.20414 0.0
O572 O 0.46688 0.1412 0.27458 0.0
H573 H 0.39781 0.1638 0.21496 0.0
H574 H 0.43359 0.07311 0.20677 0.0
Cu575 Cu 0.61979 0.69894 1.00807 0.0
N576 N 0.59852 0.68504 0.99046 0.0
N577 N 0.57649 0.6729 0.95924 0.0
C578 C 0.59159 0.68613 0.96436 0.0
C579 C 0.57383 0.66329 0.98298 0.0
C580 C 0.58735 0.67079 1.00209 0.0
O581 O 0.62205 0.72462 0.99214 0.0
C582 C 0.61608 0.68365 0.06108 0.0
O583 O 0.62574 0.66917 0.0493 0.0
H584 H 0.59769 0.69617 0.9494 0.0
H585 H 0.5889 0.66609 0.02307 0.0
N586 N 0.6452 0.68616 1.00196 0.0
N587 N 0.67923 0.67827 1.00105 0.0
C588 C 0.66484 0.69139 1.00921 0.0
C589 C 0.64726 0.66934 0.98866 0.0
C590 C 0.66815 0.66443 0.98809 0.0
C591 C 0.60634 0.73514 0.98614 0.0
O592 O 0.58741 0.72918 0.99251 0.0
H593 H 0.66842 0.70437 0.02053 0.0
H594 H 0.63442 0.66122 0.97992 0.0
O595 O 0.6129 0.69896 0.04719 0.0
H596 H 0.56263 0.65182 0.98644 0.0
H597 H 0.67466 0.65174 0.97851 0.0
Cu598 Cu 0.05565 0.87976 0.73305 0.0
N599 N 0.07551 0.86507 0.71415 0.0
N600 N 0.09073 0.84514 0.68429 0.0
C601 C 0.0724 0.85219 0.69389 0.0
C602 C 0.10585 0.8538 0.69919 0.0
C603 C 0.09644 0.866 0.71758 0.0
O604 O 0.02813 0.8752 0.71637 0.0
C605 C 0.07265 0.87723 0.78615 0.0
O606 O 0.08647 0.88902 0.77537 0.0
H607 H 0.05708 0.84842 0.68593 0.0
H608 H 0.10438 0.8752 0.73208 0.0
N609 N 0.06284 0.90587 0.72888 0.0
N610 N 0.06325 0.93811 0.73108 0.0
C611 C 0.05429 0.92167 0.74046 0.0
C612 C 0.07765 0.91256 0.71176 0.0
C613 C 0.07798 0.93231 0.7131 0.0
C614 C 0.02454 0.88263 0.69293 0.0
O615 O 0.03928 0.89309 0.68145 0.0
H616 H 0.04152 0.92111 0.75499 0.0
H617 H 0.08737 0.90369 0.69881 0.0
O618 O 0.057 0.87199 0.77164 0.0
H619 H 0.12254 0.85144 0.69703 0.0
H620 H 0.08844 0.94165 0.7018 0.0
Cu621 Cu 0.89777 0.31449 0.50286 0.0
N622 N 0.909 0.33462 0.48238 0.0
N623 N 0.92877 0.35038 0.45197 0.0
C624 C 0.92372 0.33308 0.46282 0.0
C625 C 0.91668 0.36327 0.46534 0.0
C626 C 0.90448 0.35348 0.48405 0.0
O627 O 0.91089 0.29106 0.48948 0.0
C628 C 0.92109 0.32138 0.55116 0.0
O629 O 0.93704 0.31778 0.53498 0.0
H630 H 0.93086 0.31955 0.45708 0.0
H631 H 0.89315 0.35966 0.49795 0.0
N632 N 0.86928 0.31226 0.49426 0.0
N633 N 0.8342 0.31257 0.4944 0.0
C634 C 0.8519 0.31788 0.50783 0.0
C635 C 0.86232 0.30335 0.47158 0.0
C636 C 0.84078 0.30347 0.47161 0.0
C637 C 0.9039 0.27425 0.49446 0.0
O638 O 0.88936 0.27202 0.51319 0.0
H639 H 0.85221 0.32534 0.52726 0.0
H640 H 0.87232 0.29708 0.45613 0.0
O641 O 0.90254 0.31985 0.54161 0.0
H642 H 0.91651 0.37865 0.46175 0.0
H643 H 0.83074 0.2975 0.45587 0.0
Cu644 Cu 0.47825 0.88116 0.2854 0.0
N645 N 0.45427 0.87329 0.30403 0.0
N646 N 0.43263 0.85638 0.33077 0.0
C647 C 0.4519 0.85732 0.31937 0.0
C648 C 0.42256 0.8724 0.32216 0.0
C649 C 0.43594 0.88278 0.30565 0.0
O650 O 0.50193 0.86777 0.30203 0.0
C651 C 0.46954 0.85908 0.23807 0.0
O652 O 0.46975 0.84478 0.25571 0.0
H653 H 0.46423 0.84683 0.32255 0.0
H654 H 0.43264 0.89636 0.29567 0.0
N655 N 0.48201 0.90743 0.29215 0.0
N656 N 0.48326 0.93961 0.28912 0.0
C657 C 0.47892 0.92291 0.27589 0.0
C658 C 0.48841 0.91452 0.31633 0.0
C659 C 0.4892 0.93426 0.31458 0.0
C660 C 0.52091 0.87303 0.29887 0.0
O661 O 0.52526 0.88654 0.2809 0.0
H662 H 0.47367 0.92189 0.25487 0.0
H663 H 0.49205 0.90586 0.33413 0.0
O664 O 0.47396 0.87598 0.24646 0.0
H665 H 0.4066 0.8763 0.32724 0.0
H666 H 0.49336 0.94388 0.3311 0.0
Cu667 Cu 0.89507 0.69697 0.02353 0.0
N668 N 0.91527 0.68167 0.0409 0.0
N669 N 0.93833 0.6695 0.07083 0.0
C670 C 0.92494 0.68412 0.06526 0.0
C671 C 0.93703 0.65756 0.04915 0.0
C672 C 0.92288 0.66508 0.03082 0.0
O673 O 0.89403 0.72216 0.04095 0.0
C674 C 0.89886 0.68356 0.96947 0.0
O675 O 0.88751 0.66941 0.9794 0.0
H676 H 0.92206 0.69621 0.07868 0.0
H677 H 0.91845 0.65882 1.01142 0.0
N678 N 0.86899 0.685 0.02819 0.0
N679 N 0.8347 0.678 0.02748 0.0
C680 C 0.8497 0.69083 0.02021 0.0
C681 C 0.86603 0.66809 0.04106 0.0
C682 C 0.84501 0.66373 0.04063 0.0
C683 C 0.9101 0.73275 0.04459 0.0
O684 O 0.92826 0.72714 0.03477 0.0
H685 H 0.8468 0.70403 1.00903 0.0
H686 H 0.87835 0.65953 0.05023 0.0
O687 O 0.90289 0.69797 0.98478 0.0
H688 H 0.94598 0.64446 0.04643 0.0
H689 H 0.83785 0.65112 0.0497 0.0
Cu690 Cu 0.04554 0.13242 0.79274 0.0
N691 N 0.0666 0.14362 0.81428 0.0
N692 N 0.08584 0.16377 0.83981 0.0
C693 C 0.06764 0.16122 0.8259 0.0
C694 C 0.09647 0.14709 0.83682 0.0
C695 C 0.08464 0.1348 0.82112 0.0
O696 O 0.01804 0.13902 0.80736 0.0
C697 C 0.06763 0.13471 0.74372 0.0
O698 O 0.08016 0.12346 0.75792 0.0
H699 H 0.05547 0.17197 0.82394 0.0
H700 H 0.08887 0.12033 0.81514 0.0
N701 N 0.04762 0.10575 0.79812 0.0
N702 N 0.04747 0.0736 0.7944 0.0
C703 C 0.0468 0.09062 0.78075 0.0
C704 C 0.04886 0.098 0.8233 0.0
C705 C 0.04886 0.07831 0.82111 0.0
C706 C 1.00913 0.15536 0.80907 0.0
O707 O 0.01818 0.17058 0.79832 0.0
H708 H 0.04524 0.09205 0.75878 0.0
H709 H 0.04953 0.10622 0.84206 0.0
O710 O 0.05042 0.14002 0.7546 0.0
H711 H 0.11161 0.1438 0.8457 0.0
H712 H 0.04996 0.06825 0.83799 0.0
Cu713 Cu 0.61995 0.32668 0.52259 0.0
N714 N 0.6019 0.34329 0.54127 0.0
N715 N 0.58116 0.35703 0.57245 0.0
C716 C 0.59206 0.34106 0.56551 0.0
C717 C 0.58424 0.36964 0.55183 0.0
C718 C 0.59697 0.36114 0.53271 0.0
O719 O 0.61892 0.30082 0.53816 0.0
C720 C 0.61893 0.342 0.46931 0.0
O721 O 0.63239 0.35399 0.48047 0.0
H722 H 0.59317 0.32821 0.57798 0.0
H723 H 0.6024 0.36761 0.5139 0.0
N724 N 0.64734 0.33569 0.52814 0.0
N725 N 0.68242 0.33788 0.52889 0.0
C726 C 0.66556 0.32792 0.51957 0.0
C727 C 0.65279 0.35099 0.54341 0.0
C728 C 0.67431 0.3524 0.54389 0.0
C729 C 0.60243 0.29146 0.54438 0.0
O730 O 0.58396 0.29878 0.53849 0.0
H731 H 0.66633 0.3152 0.50687 0.0
H732 H 0.64185 0.36028 0.55393 0.0
O733 O 0.6121 0.328 0.48369 0.0
H734 H 0.57752 0.38392 0.55047 0.0
H735 H 0.68321 0.36306 0.55511 0.0
H736 H 0.13365 0.3882 0.21784 0.0
H737 H 0.07972 0.32531 0.09981 0.0
H738 H 0.07426 0.35915 0.22744 0.0
H739 H 0.13541 0.35957 0.08731 0.0
H740 H 0.07817 0.33663 0.14691 0.0
H741 H 0.13521 0.37695 0.17055 0.0
C742 C 0.1209 0.37946 0.21003 0.0
C743 C 0.10378 0.37463 0.22673 0.0
C744 C 0.09073 0.34169 0.13387 0.0
C745 C 0.10554 0.36161 0.17241 0.0
C746 C 0.09159 0.33529 0.10681 0.0
C747 C 0.10768 0.34153 0.08924 0.0
C748 C 0.10608 0.35442 0.1437 0.0
C749 C 0.12282 0.35419 0.09997 0.0
C750 C 0.12182 0.37305 0.18296 0.0
C751 C 0.08775 0.36327 0.21537 0.0
N752 N 0.12163 0.36021 0.12643 0.0
N753 N 0.08905 0.35712 0.18897 0.0
H754 H 0.94281 0.85866 0.30234 0.0
H755 H 0.87906 0.85731 0.44366 0.0
H756 H 0.88284 0.88637 0.31333 0.0
H757 H 0.93566 0.82465 0.42986 0.0
H758 H 0.88064 0.86882 0.39647 0.0
H759 H 0.94116 0.8471 0.34962 0.0
C760 C 0.92932 0.86236 0.31468 0.0
C761 C 0.91293 0.8735 0.30377 0.0
C762 C 0.89271 0.85913 0.40379 0.0
C763 C 0.91093 0.86028 0.35801 0.0
C764 C 0.89176 0.85244 0.43078 0.0
C765 C 0.90727 0.83996 0.44102 0.0
C766 C 0.90931 0.85337 0.38679 0.0
C767 C 0.9235 0.83444 0.42321 0.0
C768 C 0.92836 0.85571 0.34169 0.0
C769 C 0.89583 0.87781 0.32079 0.0
N770 N 0.92409 0.84118 0.39708 0.0
N771 N 0.89528 0.87121 0.34701 0.0
H772 H 0.38632 0.6278 0.70753 0.0
H773 H 0.42997 0.70303 0.59729 0.0
H774 H 0.44152 0.66265 0.72047 0.0
H775 H 0.38062 0.6622 0.57989 0.0
H776 H 0.43355 0.68926 0.64292 0.0
H777 H 0.38317 0.64103 0.66134 0.0
C778 C 0.39782 0.63821 0.70066 0.0
C779 C 0.41421 0.64412 0.71798 0.0
C780 C 0.42195 0.68329 0.6291 0.0
C781 C 0.4106 0.65943 0.665 0.0
C782 C 0.41993 0.69111 0.60288 0.0
C783 C 0.405 0.68378 0.58438 0.0
C784 C 0.4089 0.66804 0.63716 0.0
C785 C 0.3922 0.66853 0.59332 0.0
C786 C 0.396 0.64575 0.67424 0.0
C787 C 0.42865 0.65764 0.70786 0.0
N788 N 0.39445 0.66119 0.61901 0.0
N789 N 0.42646 0.66487 0.68211 0.0
H790 H 0.64207 0.13983 0.80074 0.0
H791 H 0.58056 0.17905 0.93204 0.0
H792 H 0.57655 0.15548 0.80018 0.0
H793 H 0.64621 0.16404 0.93337 0.0
H794 H 0.57923 0.17137 0.88344 0.0
H795 H 0.64427 0.14938 0.84879 0.0
C796 C 0.62813 0.1453 0.81068 0.0
C797 C 0.60907 0.1468 0.79634 0.0
C798 C 0.59397 0.16978 0.89428 0.0
C799 C 0.61151 0.15779 0.8515 0.0
C800 C 0.59472 0.17408 0.92214 0.0
C801 C 0.61349 0.17202 0.93698 0.0
C802 C 0.61211 0.16328 0.88095 0.0
C803 C 0.63143 0.16593 0.92278 0.0
C804 C 0.62942 0.15077 0.83815 0.0
C805 C 0.59157 0.15402 0.81037 0.0
N806 N 0.63027 0.16167 0.89561 0.0
N807 N 0.59321 0.1592 0.83713 0.0
H808 H 0.05594 0.63373 0.31388 0.0
H809 H 0.13764 0.67487 0.42435 0.0
H810 H 0.118 0.65338 0.29239 0.0
H811 H 0.07491 0.65588 0.44323 0.0
H812 H 0.1305 0.66906 0.37561 0.0
H813 H 0.06243 0.6433 0.36111 0.0
C814 C 0.07095 0.64009 0.31906 0.0
C815 C 0.08647 0.64266 0.2991 0.0
C816 C 0.11828 0.66627 0.39045 0.0
C817 C 0.09407 0.6537 0.35341 0.0
C818 C 0.12232 0.6697 0.41823 0.0
C819 C 0.10694 0.66565 0.43794 0.0
C820 C 0.0987 0.6588 0.38238 0.0
C821 C 0.08739 0.65883 0.42886 0.0
C822 C 0.07465 0.6456 0.3461 0.0
C823 C 0.10558 0.65108 0.30711 0.0
N824 N 0.08389 0.65555 0.40186 0.0
N825 N 0.10888 0.65622 0.33366 0.0
H826 H 0.57519 0.84201 0.58469 0.0
H827 H 0.62486 0.86719 0.73081 0.0
H828 H 0.64173 0.84009 0.60052 0.0
H829 H 0.56112 0.88078 0.70795 0.0
H830 H 0.6312 0.85562 0.68422 0.0
H831 H 0.56958 0.85456 0.63071 0.0
C832 C 0.58864 0.84416 0.5979 0.0
C833 C 0.60897 0.83988 0.58875 0.0
C834 C 0.61585 0.86119 0.6894 0.0
C835 C 0.60264 0.85437 0.64165 0.0
C836 C 0.61219 0.86774 0.71603 0.0
C837 C 0.5924 0.87496 0.72337 0.0
C838 C 0.59957 0.86166 0.66999 0.0
C839 C 0.57662 0.87537 0.70327 0.0
C840 C 0.58543 0.85146 0.62415 0.0
C841 C 0.62582 0.84331 0.60666 0.0
N842 N 0.58052 0.86874 0.6776 0.0
N843 N 0.62228 0.85023 0.63232 0.0
H844 H 0.44247 0.34976 0.94678 0.0
H845 H 0.39667 0.36479 0.79554 0.0
H846 H 0.37787 0.33851 0.92586 0.0
H847 H 0.45865 0.38247 0.82088 0.0
H848 H 0.3893 0.35479 0.84266 0.0
H849 H 0.44851 0.36144 0.90043 0.0
C850 C 0.42954 0.34969 0.93239 0.0
C851 C 0.40966 0.34298 0.94021 0.0
C852 C 0.40447 0.36092 0.8379 0.0
C853 C 0.41646 0.3565 0.88684 0.0
C854 C 0.40872 0.36661 0.81099 0.0
C855 C 0.42835 0.37445 0.80417 0.0
C856 C 0.42 0.36297 0.85815 0.0
C857 C 0.44331 0.37649 0.8251 0.0
C858 C 0.43297 0.35648 0.90591 0.0
C859 C 0.3934 0.34363 0.92076 0.0
N860 N 0.43885 0.37073 0.85104 0.0
N861 N 0.39719 0.35014 0.89491 0.0
H862 H 0.88336 0.1796 0.0953 0.0
H863 H 0.9625 0.12595 0.19817 0.0
H864 H 0.94143 0.15303 0.07048 0.0
H865 H 0.90517 0.15324 0.22446 0.0
H866 H 0.9542 0.1348 0.15098 0.0
H867 H 0.89001 0.16886 0.14234 0.0
C868 C 0.8974 0.17139 0.09965 0.0
C869 C 0.91193 0.16737 0.07886 0.0
C870 C 0.9434 0.13884 0.16705 0.0
C871 C 0.91974 0.15516 0.13273 0.0
C872 C 0.94814 0.13378 0.19405 0.0
C873 C 0.93456 0.13889 0.2154 0.0
C874 C 0.92491 0.14911 0.16122 0.0
C875 C 0.91615 0.14902 0.20871 0.0
C876 C 0.90126 0.16535 0.12656 0.0
C877 C 0.92997 0.1568 0.08584 0.0
N878 N 0.91189 0.15382 0.18225 0.0
N879 N 0.93337 0.15113 0.1121 0.0
H880 H 0.95425 0.63346 0.82472 0.0
H881 H 0.92236 0.70993 0.94018 0.0
H882 H 0.9635 0.69462 0.81455 0.0
H883 H 0.89871 0.65174 0.93679 0.0
H884 H 0.94042 0.70447 0.89646 0.0
H885 H 0.93736 0.63961 0.86872 0.0
C886 C 0.95291 0.64818 0.83182 0.0
C887 C 0.96028 0.66354 0.81581 0.0
C888 C 0.93119 0.69296 0.90531 0.0
C889 C 0.94083 0.67071 0.86629 0.0
C890 C 0.92086 0.69607 0.93023 0.0
C891 C 0.90892 0.6813 0.94222 0.0
C892 C 0.92981 0.67487 0.89249 0.0
C893 C 0.90763 0.6636 0.92838 0.0
C894 C 0.94314 0.6517 0.85691 0.0
C895 C 0.958 0.68232 0.82613 0.0
N896 N 0.918 0.66087 0.90444 0.0
N897 N 0.94849 0.68538 0.85069 0.0
H898 H 0.08708 0.19661 0.58912 0.0
H899 H 0.10184 0.12321 0.71487 0.0
H900 H 0.13635 0.15429 0.59594 0.0
H901 H 0.04955 0.16254 0.71028 0.0
H902 H 0.11471 0.13561 0.67161 0.0
H903 H 0.07354 0.18602 0.63388 0.0
C904 C 0.0952 0.18529 0.60012 0.0
C905 C 0.11289 0.17632 0.58865 0.0
C906 C 0.10039 0.14159 0.67989 0.0
C907 C 0.09737 0.16402 0.63966 0.0
C908 C 0.09296 0.13445 0.70472 0.0
C909 C 0.07453 0.14179 0.71638 0.0
C910 C 0.08943 0.15632 0.66628 0.0
C911 C 0.06379 0.15638 0.70204 0.0
C912 C 0.08738 0.17917 0.62558 0.0
C913 C 0.12264 0.16161 0.60378 0.0
N914 N 0.07142 0.1632 0.67776 0.0
N915 N 0.11475 0.15595 0.6283 0.0
H916 H 0.58673 0.32405 0.44061 0.0
H917 H 0.59272 0.40121 0.31845 0.0
H918 H 0.63194 0.37011 0.43444 0.0
H919 H 0.55082 0.35246 0.3149 0.0
H920 H 0.60538 0.39022 0.36257 0.0
H921 H 0.57216 0.33385 0.39589 0.0
C922 C 0.5937 0.33608 0.42984 0.0
C923 C 0.6106 0.34627 0.44143 0.0
C924 C 0.59339 0.38184 0.35232 0.0
C925 C 0.59387 0.35766 0.39055 0.0
C926 C 0.58605 0.38818 0.327 0.0
C927 C 0.57069 0.37773 0.31272 0.0
C928 C 0.58543 0.36481 0.36384 0.0
C929 C 0.56266 0.36099 0.32515 0.0
C930 C 0.58532 0.34171 0.40438 0.0
C931 C 0.6189 0.3618 0.42654 0.0
N932 N 0.57018 0.35499 0.34998 0.0
N933 N 0.61044 0.367 0.40211 0.0
H934 H 0.45938 0.88592 0.19878 0.0
H935 H 0.42638 0.80854 0.08453 0.0
H936 H 0.46246 0.82457 0.21233 0.0
H937 H 0.41024 0.86882 0.08049 0.0
H938 H 0.4424 0.81408 0.12961 0.0
H939 H 0.44464 0.87995 0.15327 0.0
C940 C 0.45714 0.87119 0.19213 0.0
C941 C 0.46216 0.85574 0.20953 0.0
C942 C 0.43529 0.82607 0.11884 0.0
C943 C 0.44515 0.84878 0.1573 0.0
C944 C 0.42613 0.8229 0.09311 0.0
C945 C 0.41686 0.83821 0.07863 0.0
C946 C 0.43543 0.84471 0.13009 0.0
C947 C 0.41708 0.85654 0.09083 0.0
C948 C 0.4486 0.86778 0.16616 0.0
C949 C 0.45879 0.83695 0.19972 0.0
N950 N 0.42627 0.85927 0.11569 0.0
N951 N 0.45052 0.834 0.17432 0.0
H952 H 0.97588 0.35768 0.70676 0.0
H953 H 0.89271 0.33754 0.58657 0.0
H954 H 0.9153 0.38516 0.70129 0.0
H955 H 0.95819 0.32262 0.57979 0.0
H956 H 0.89988 0.35193 0.63132 0.0
H957 H 0.96908 0.34205 0.66249 0.0
C958 C 0.96121 0.36049 0.69626 0.0
C959 C 0.94619 0.37283 0.70781 0.0
C960 C 0.91268 0.34546 0.62008 0.0
C961 C 0.93818 0.35477 0.65736 0.0
C962 C 0.90856 0.33713 0.59456 0.0
C963 C 0.92486 0.32887 0.57928 0.0
C964 C 0.93323 0.34542 0.63064 0.0
C965 C 0.94513 0.32887 0.59075 0.0
C966 C 0.95733 0.35155 0.67101 0.0
C967 C 0.92742 0.37586 0.69324 0.0
N968 N 0.94873 0.33699 0.6157 0.0
N969 N 0.92394 0.36685 0.66896 0.0
H970 H 0.47949 0.19175 0.30951 0.0
H971 H 0.40046 0.17447 0.43385 0.0
H972 H 0.44445 0.13905 0.31926 0.0
H973 H 0.45206 0.21454 0.4383 0.0
H974 H 0.4131 0.16383 0.38894 0.0
H975 H 0.46686 0.2025 0.35425 0.0
C976 C 0.46926 0.18237 0.32113 0.0
C977 C 0.46312 0.16442 0.31063 0.0
C978 C 0.42159 0.175 0.39974 0.0
C979 C 0.44822 0.17685 0.36167 0.0
C980 C 0.41428 0.18121 0.42525 0.0
C981 C 0.4252 0.19545 0.43988 0.0
C982 C 0.43977 0.18328 0.38854 0.0
C983 C 0.44316 0.20351 0.4278 0.0
C984 C 0.46203 0.18854 0.34667 0.0
C985 C 0.44975 0.15292 0.32663 0.0
N986 N 0.44983 0.19737 0.40285 0.0
N987 N 0.4426 0.1594 0.35121 0.0
H988 H 0.56437 0.63124 0.20688 0.0
H989 H 0.59543 0.71008 0.09367 0.0
H990 H 0.55808 0.69232 0.2207 0.0
H991 H 0.61504 0.65063 0.09136 0.0
H992 H 0.57864 0.70394 0.13811 0.0
H993 H 0.5792 0.63805 0.16179 0.0
C994 C 0.56588 0.64608 0.20035 0.0
C995 C 0.56 0.66121 0.21774 0.0
C996 C 0.58669 0.69228 0.12784 0.0
C997 C 0.57717 0.66915 0.16601 0.0
C998 C 0.59631 0.69579 0.10251 0.0
C999 C 0.60676 0.68089 0.08871 0.0
C1000 C 0.58729 0.67369 0.13929 0.0
C1001 C 0.60727 0.66262 0.10117 0.0
C1002 C 0.57449 0.64997 0.17463 0.0
C1003 C 0.56244 0.68018 0.20807 0.0
N1004 N 0.59764 0.65955 0.12556 0.0
N1005 N 0.57085 0.68361 0.18292 0.0
H1006 H 0.10772 0.8813 0.81778 0.0
H1007 H 0.0634 0.82449 0.94766 0.0
H1008 H 0.04657 0.85464 0.81803 0.0
H1009 H 0.12868 0.83915 0.93729 0.0
H1010 H 0.05624 0.83635 0.90134 0.0
H1011 H 0.11475 0.86744 0.8627 0.0
C1012 C 0.09568 0.87258 0.8273 0.0
C1013 C 0.07646 0.8692 0.81399 0.0
C1014 C 0.07215 0.83684 0.90913 0.0
C1015 C 0.08453 0.85315 0.86582 0.0
C1016 C 0.07628 0.83006 0.93559 0.0
C1017 C 0.0967 0.83082 0.94649 0.0
C1018 C 0.08849 0.8447 0.89346 0.0
C1019 C 0.11272 0.83821 0.92981 0.0
C1020 C 0.09979 0.86457 0.85298 0.0
C1021 C 0.06159 0.85766 0.82747 0.0
N1022 N 0.10824 0.84499 0.90428 0.0
N1023 N 0.0659 0.85012 0.85268 0.0
H1024 H 0.14275 0.33023 0.39095 0.0
H1025 H 0.06869 0.2502 0.45926 0.0
H1026 H 0.0768 0.3242 0.37247 0.0
H1027 H 0.13578 0.25222 0.47087 0.0
H1028 H 0.07096 0.27882 0.43024 0.0
H1029 H 0.1401 0.30314 0.42259 0.0
C1030 C 0.1277 0.32325 0.39338 0.0
C1031 C 0.11001 0.32962 0.37868 0.0
C1032 C 0.08518 0.27306 0.43921 0.0
C1033 C 0.10683 0.29851 0.41545 0.0
C1034 C 0.0839 0.25672 0.4559 0.0
C1035 C 0.10208 0.24869 0.46756 0.0
C1036 C 0.10479 0.28156 0.43409 0.0
C1037 C 0.12134 0.25784 0.46234 0.0
C1038 C 0.12619 0.30778 0.41164 0.0
C1039 C 0.09087 0.32006 0.38335 0.0
N1040 N 0.12218 0.27372 0.44598 0.0
N1041 N 0.08983 0.30501 0.40121 0.0
H1042 H 0.91331 0.83157 0.61919 0.0
H1043 H 0.01001 0.90204 0.64835 0.0
H1044 H 0.92717 0.88249 0.57181 0.0
H1045 H 0.99368 0.85548 0.70286 0.0
H1046 H 0.97873 0.89541 0.6214 0.0
H1047 H 0.9413 0.84044 0.65135 0.0
C1048 C 0.92204 0.84473 0.61569 0.0
C1049 C 0.91791 0.85624 0.5926 0.0
C1050 C 0.98183 0.88667 0.63932 0.0
C1051 C 0.95011 0.86635 0.62924 0.0
C1052 C 0.99978 0.89043 0.65475 0.0
C1053 C 1.0046 0.87923 0.67787 0.0
C1054 C 0.96851 0.87143 0.64674 0.0
C1055 C 0.99059 0.86448 0.68519 0.0
C1056 C 0.93806 0.84975 0.63406 0.0
C1057 C 0.92979 0.87309 0.58918 0.0
N1058 N 0.97327 0.86089 0.66953 0.0
N1059 N 0.94539 0.87753 0.60712 0.0
H1060 H 0.42961 0.77111 0.94889 0.0
H1061 H 0.37296 0.67759 0.88775 0.0
H1062 H 0.37147 0.74797 0.97985 0.0
H1063 H 0.43454 0.69612 0.86252 0.0
H1064 H 0.37245 0.70324 0.92181 0.0
H1065 H 0.43226 0.74359 0.91776 0.0
C1066 C 0.4175 0.76018 0.94935 0.0
C1067 C 0.40025 0.76194 0.96701 0.0
C1068 C 0.38613 0.70168 0.90892 0.0
C1069 C 0.40309 0.73046 0.93119 0.0
C1070 C 0.38637 0.68707 0.8893 0.0
C1071 C 0.40376 0.6847 0.87206 0.0
C1072 C 0.40336 0.7142 0.91132 0.0
C1073 C 0.42085 0.69729 0.87545 0.0
C1074 C 0.41901 0.74448 0.93152 0.0
C1075 C 0.38503 0.7473 0.96662 0.0
N1076 N 0.42017 0.71155 0.89454 0.0
N1077 N 0.38675 0.7323 0.9489 0.0
H1078 H 0.60109 0.12811 0.07975 0.0
H1079 H 0.52748 0.16208 0.20374 0.0
H1080 H 0.60605 0.18445 0.11637 0.0
H1081 H 0.51529 0.11268 0.15265 0.0
H1082 H 0.55926 0.1687 0.1768 0.0
H1083 H 0.57293 0.12028 0.11158 0.0
C1084 C 0.59645 0.13879 0.09468 0.0
C1085 C 0.60594 0.15703 0.09518 0.0
C1086 C 0.54964 0.15638 0.17163 0.0
C1087 C 0.57341 0.14814 0.13179 0.0
C1088 C 0.53154 0.15256 0.18704 0.0
C1089 C 0.5186 0.13686 0.18038 0.0
C1090 C 0.55494 0.14427 0.14964 0.0
C1091 C 0.52465 0.12503 0.15846 0.0
C1092 C 0.58025 0.13433 0.11282 0.0
C1093 C 0.59917 0.17023 0.11513 0.0
N1094 N 0.5423 0.12897 0.14397 0.0
N1095 N 0.58326 0.16557 0.13253 0.0
H1096 H 0.14983 0.69475 0.14913 0.0
H1097 H 0.07642 0.76111 0.05476 0.0
H1098 H 0.08493 0.68163 0.13183 0.0
H1099 H 0.14256 0.77122 0.06729 0.0
H1100 H 0.07918 0.73179 0.08242 0.0
H1101 H 0.14745 0.72251 0.11874 0.0
C1102 C 0.1351 0.69754 0.13884 0.0
C1103 C 0.11755 0.68569 0.14326 0.0
C1104 C 0.0931 0.74038 0.07901 0.0
C1105 C 0.11465 0.71786 0.10845 0.0
C1106 C 0.09155 0.75714 0.06319 0.0
C1107 C 0.10927 0.76873 0.05868 0.0
C1108 C 0.11251 0.73516 0.09056 0.0
C1109 C 0.12845 0.7628 0.07017 0.0
C1110 C 0.13373 0.71353 0.12152 0.0
C1111 C 0.09882 0.6904 0.12949 0.0
N1112 N 0.12952 0.74652 0.08563 0.0
N1113 N 0.09786 0.7061 0.11281 0.0
H1114 H 0.51569 0.85533 0.34853 0.0
H1115 H 0.63726 0.84046 0.38046 0.0
H1116 H 0.56369 0.87545 0.29333 0.0
H1117 H 0.59076 0.84552 0.44404 0.0
H1118 H 0.61049 0.84919 0.34647 0.0
H1119 H 0.54295 0.84684 0.38181 0.0
C1120 C 0.53197 0.85775 0.34324 0.0
C1121 C 0.5374 0.86612 0.31804 0.0
C1122 C 0.60621 0.8485 0.36789 0.0
C1123 C 0.56868 0.85643 0.35615 0.0
C1124 C 0.62147 0.84353 0.3873 0.0
C1125 C 0.61628 0.84234 0.41518 0.0
C1126 C 0.5855 0.85189 0.37631 0.0
C1127 C 0.59552 0.84642 0.42283 0.0
C1128 C 0.5475 0.85305 0.36237 0.0
C1129 C 0.55878 0.86907 0.31249 0.0
N1130 N 0.58086 0.85081 0.40349 0.0
N1131 N 0.57364 0.86416 0.33133 0.0
H1132 H 0.3744 0.24969 0.55855 0.0
H1133 H 0.4357 0.333 0.63936 0.0
H1134 H 0.44182 0.25528 0.56023 0.0
H1135 H 0.36881 0.32426 0.64515 0.0
H1136 H 0.43786 0.30581 0.60807 0.0
H1137 H 0.37167 0.27835 0.58747 0.0
C1138 C 0.38863 0.257 0.5648 0.0
C1139 C 0.40838 0.24998 0.55695 0.0
C1140 C 0.42269 0.30984 0.61616 0.0
C1141 C 0.40535 0.28281 0.59021 0.0
C1142 C 0.42144 0.32536 0.63424 0.0
C1143 C 0.40204 0.331 0.64524 0.0
C1144 C 0.40442 0.29978 0.60881 0.0
C1145 C 0.38409 0.32064 0.63715 0.0
C1146 C 0.38705 0.27334 0.58141 0.0
C1147 C 0.42625 0.26008 0.56578 0.0
N1148 N 0.38573 0.30554 0.61953 0.0
N1149 N 0.42431 0.27591 0.58194 0.0
H1150 H 0.98595 0.18801 0.81976 0.0
H1151 H 0.91348 0.13549 0.93064 0.0
H1152 H 0.98781 0.12695 0.83625 0.0
H1153 H 0.90578 0.19512 0.90779 0.0
H1154 H 0.93947 0.13186 0.89436 0.0
H1155 H 0.95556 0.1908 0.85014 0.0
C1156 C 0.97989 0.17516 0.82954 0.0
C1157 C 0.9896 0.15724 0.82549 0.0
C1158 C 0.93196 0.1457 0.89706 0.0
C1159 C 0.95484 0.16035 0.86049 0.0
C1160 C 0.91705 0.14777 0.91779 0.0
C1161 C 0.90743 0.16565 0.92242 0.0
C1162 C 0.93753 0.16167 0.88091 0.0
C1163 C 0.91275 0.18105 0.90502 0.0
C1164 C 0.96252 0.17677 0.84691 0.0
C1165 C 0.98098 0.1411 0.83877 0.0
N1166 N 0.92757 0.17875 0.88526 0.0
N1167 N 0.96425 0.14308 0.85576 0.0
H1168 H 0.95047 0.69988 0.68767 0.0
H1169 H 0.86401 0.73203 0.57762 0.0
H1170 H 0.90148 0.66238 0.65786 0.0
H1171 H 0.91644 0.76771 0.60136 0.0
H1172 H 0.87694 0.70675 0.60789 0.0
H1173 H 0.93774 0.72518 0.65719 0.0
C1174 C 0.93713 0.69686 0.67465 0.0
C1175 C 0.9271 0.67884 0.67543 0.0
C1176 C 0.88563 0.72011 0.60647 0.0
C1177 C 0.91223 0.70799 0.64058 0.0
C1178 C 0.87829 0.73458 0.58903 0.0
C1179 C 0.88913 0.75213 0.58674 0.0
C1180 C 0.90395 0.72313 0.62189 0.0
C1181 C 0.90738 0.75458 0.60258 0.0
C1182 C 0.92979 0.7114 0.65731 0.0
C1183 C 0.90961 0.67603 0.65831 0.0
N1184 N 0.9142 0.74026 0.61942 0.0
N1185 N 0.90276 0.69042 0.64164 0.0
H1186 H 0.9871 0.16401 0.33143 0.0
H1187 H 0.06979 0.12931 0.44312 0.0
H1188 H 1.0053 0.10467 0.34289 0.0
H1189 H 0.06093 0.18912 0.42263 0.0
H1190 H 0.04776 0.12025 0.40433 0.0
H1191 H 0.01551 0.17384 0.36212 0.0
C1192 C 0.99723 0.15305 0.34007 0.0
C1193 C 0.99363 0.13344 0.33477 0.0
C1194 C 0.05075 0.13537 0.40805 0.0
C1195 C 0.02607 0.14462 0.37016 0.0
C1196 C 0.06325 0.14053 0.43028 0.0
C1197 C 0.06696 0.15998 0.43622 0.0
C1198 C 0.04155 0.14976 0.39176 0.0
C1199 C 0.05843 0.17396 0.41867 0.0
C1200 C 0.01346 0.15869 0.35762 0.0
C1201 C 1.00734 0.11993 0.3465 0.0
N1202 N 0.04585 0.16859 0.39743 0.0
N1203 N 0.02276 0.12575 0.36387 0.0
H1204 H 0.64529 0.28289 0.05992 0.0
H1205 H 0.56509 0.31611 0.17678 0.0
H1206 H 0.59853 0.24507 0.09429 0.0
H1207 H 0.6183 0.34959 0.15027 0.0
H1208 H 0.57492 0.29087 0.14412 0.0
H1209 H 0.63346 0.30844 0.09035 0.0
C1210 C 0.63242 0.27998 0.07372 0.0
C1211 C 0.62292 0.26176 0.07452 0.0
C1212 C 0.58441 0.30376 0.14547 0.0
C1213 C 0.60934 0.29102 0.10972 0.0
C1214 C 0.57873 0.31821 0.16397 0.0
C1215 C 0.59098 0.33493 0.16641 0.0
C1216 C 0.60234 0.30616 0.12912 0.0
C1217 C 0.6086 0.33683 0.14945 0.0
C1218 C 0.62575 0.29457 0.09125 0.0
C1219 C 0.60649 0.2588 0.09319 0.0
N1220 N 0.61374 0.32265 0.13158 0.0
N1221 N 0.6002 0.27328 0.11003 0.0
H1222 H 0.46175 0.88438 0.93946 0.0
H1223 H 0.53466 0.83745 0.82429 0.0
H1224 H 0.45766 0.82468 0.91564 0.0
H1225 H 0.53743 0.89718 0.84837 0.0
H1226 H 0.50532 0.83268 0.85576 0.0
H1227 H 0.4886 0.8894 0.90486 0.0
C1228 C 0.46639 0.87232 0.92687 0.0
C1229 C 0.45731 0.85407 0.93052 0.0
C1230 C 0.51226 0.84686 0.854 0.0
C1231 C 0.48838 0.85972 0.89079 0.0
C1232 C 0.52896 0.84962 0.83592 0.0
C1233 C 0.53862 0.86774 0.83373 0.0
C1234 C 0.50516 0.8623 0.87004 0.0
C1235 C 0.53056 0.88295 0.84941 0.0
C1236 C 0.48183 0.87519 0.90713 0.0
C1237 C 0.46433 0.83893 0.91383 0.0
N1238 N 0.51441 0.87986 0.86697 0.0
N1239 N 0.47944 0.8421 0.89469 0.0
H1240 H 0.91909 0.24981 0.93672 0.0
H1241 H 0.89134 0.35109 0.86805 0.0
H1242 H 0.86721 0.28547 0.96183 0.0
H1243 H 0.94926 0.32106 0.85241 0.0
H1244 H 0.88233 0.32695 0.90235 0.0
H1245 H 0.93048 0.27536 0.90557 0.0
C1246 C 0.91009 0.263 0.9357 0.0
C1247 C 0.89209 0.26544 0.95186 0.0
C1248 C 0.89707 0.32565 0.89156 0.0
C1249 C 0.90509 0.29478 0.91629 0.0
C1250 C 0.90217 0.33938 0.87184 0.0
C1251 C 0.921 0.33799 0.85717 0.0
C1252 C 0.9108 0.31023 0.89658 0.0
C1253 C 0.93463 0.3227 0.86333 0.0
C1254 C 0.91669 0.27763 0.91803 0.0
C1255 C 0.88125 0.28298 0.94998 0.0
N1256 N 0.92918 0.3093 0.8824 0.0
N1257 N 0.88783 0.2969 0.9324 0.0
H1258 H 0.52852 0.12193 0.67556 0.0
H1259 H 0.45038 0.19573 0.60174 0.0
H1260 H 0.52343 0.18176 0.6984 0.0
H1261 H 0.45487 0.13538 0.58183 0.0
H1262 H 0.47455 0.19052 0.64011 0.0
H1263 H 0.4991 0.12612 0.64413 0.0
C1264 C 0.52107 0.13592 0.67419 0.0
C1265 C 0.52859 0.15155 0.68951 0.0
C1266 C 0.47011 0.1784 0.62745 0.0
C1267 C 0.49493 0.15654 0.65322 0.0
C1268 C 0.45622 0.18135 0.60562 0.0
C1269 C 0.45076 0.16602 0.58829 0.0
C1270 C 0.47858 0.15998 0.632 0.0
C1271 C 0.45897 0.14771 0.59422 0.0
C1272 C 0.50426 0.13832 0.65618 0.0
C1273 C 0.51821 0.16931 0.68695 0.0
N1274 N 0.47253 0.14524 0.61541 0.0
N1275 N 0.50205 0.17138 0.66892 0.0
H1276 H 0.66641 0.74472 0.43055 0.0
H1277 H 0.56761 0.68843 0.36981 0.0
H1278 H 0.60285 0.76306 0.44553 0.0
H1279 H 0.63064 0.68289 0.33849 0.0
H1280 H 0.57978 0.71422 0.4 0.0
H1281 H 0.65323 0.71991 0.3997 0.0
C1282 C 0.64965 0.74344 0.42748 0.0
C1283 C 0.6357 0.75593 0.44072 0.0
C1284 C 0.59088 0.70732 0.38643 0.0
C1285 C 0.62045 0.72757 0.4052 0.0
C1286 C 0.58394 0.69262 0.36906 0.0
C1287 C 0.5981 0.6832 0.35156 0.0
C1288 C 0.61215 0.71257 0.38648 0.0
C1289 C 0.61914 0.68928 0.35188 0.0
C1290 C 0.64213 0.72936 0.40968 0.0
C1291 C 0.61413 0.75381 0.43557 0.0
N1292 N 0.6255 0.70345 0.36911 0.0
N1293 N 0.60714 0.73981 0.41832 0.0
H1294 H 0.0529 0.88136 0.07191 0.0
H1295 H 0.99682 0.83954 0.20532 0.0
H1296 H 0.07536 0.83073 0.11423 0.0
H1297 H 0.98279 0.89488 0.16935 0.0
H1298 H 0.02543 0.83555 0.17242 0.0
H1299 H 0.02678 0.88586 0.10727 0.0
C1300 C 0.05255 0.87123 0.08871 0.0
C1301 C 0.06664 0.85569 0.08999 0.0
C1302 C 0.01617 0.84862 0.17189 0.0
C1303 C 0.03617 0.86067 0.13073 0.0
C1304 C 0.99985 0.85093 0.1907 0.0
C1305 C 0.98729 0.86755 0.19007 0.0
C1306 C 0.01987 0.86297 0.1522 0.0
C1307 C 0.99198 0.88181 0.17063 0.0
C1308 C 0.03746 0.87379 0.10895 0.0
C1309 C 0.06482 0.84283 0.11215 0.0
N1310 N 1.00776 0.87913 0.15241 0.0
N1311 N 0.04986 0.8456 0.13162 0.0
H1312 H 0.64286 0.74994 0.96506 0.0
H1313 H 0.58678 0.83971 0.89193 0.0
H1314 H 0.57644 0.76137 0.97028 0.0
H1315 H 0.65149 0.82405 0.87849 0.0
H1316 H 0.58329 0.81253 0.9232 0.0
H1317 H 0.6469 0.77855 0.93631 0.0
C1318 C 0.62913 0.75852 0.96033 0.0
C1319 C 0.60925 0.75316 0.97011 0.0
C1320 C 0.59827 0.81507 0.91344 0.0
C1321 C 0.6138 0.78601 0.93702 0.0
C1322 C 0.60028 0.8306 0.89538 0.0
C1323 C 0.61946 0.83428 0.8822 0.0
C1324 C 0.61556 0.80305 0.91857 0.0
C1325 C 0.63644 0.82201 0.88818 0.0
C1326 C 0.63145 0.77485 0.94382 0.0
C1327 C 0.59206 0.76488 0.96321 0.0
N1328 N 0.63407 0.80698 0.90582 0.0
N1329 N 0.59473 0.7807 0.94708 0.0
H1330 H 0.48472 0.35491 0.20326 0.0
H1331 H 0.41961 0.38411 0.0685 0.0
H1332 H 0.50364 0.39791 0.14447 0.0
H1333 H 0.40616 0.33246 0.11444 0.0
H1334 H 0.44714 0.39204 0.10122 0.0
H1335 H 0.45295 0.34885 0.17561 0.0
C1336 C 0.48214 0.36316 0.18473 0.0
C1337 C 0.49696 0.37684 0.17609 0.0
C1338 C 0.43811 0.37902 0.10432 0.0
C1339 C 0.46073 0.37013 0.14461 0.0
C1340 C 0.42227 0.3745 0.08564 0.0
C1341 C 0.41059 0.3575 0.08851 0.0
C1342 C 0.44246 0.36647 0.1262 0.0
C1343 C 0.4148 0.3457 0.11133 0.0
C1344 C 0.46406 0.35967 0.16894 0.0
C1345 C 0.49282 0.38709 0.15187 0.0
N1346 N 0.43049 0.35032 0.1292 0.0
N1347 N 0.47519 0.38353 0.13709 0.0
H1348 H 0.91914 0.27708 0.44239 0.0
H1349 H 0.91683 0.16547 0.40565 0.0
H1350 H 0.89844 0.23531 0.502 0.0
H1351 H 0.89883 0.20962 0.34825 0.0
H1352 H 0.91898 0.19012 0.44196 0.0
H1353 H 0.92141 0.25144 0.40826 0.0
C1354 C 0.91548 0.26246 0.4485 0.0
C1355 C 0.9085 0.25835 0.47513 0.0
C1356 C 0.91461 0.19433 0.42137 0.0
C1357 C 0.91117 0.22897 0.43607 0.0
C1358 C 0.91345 0.18036 0.40076 0.0
C1359 C 0.90747 0.18558 0.37411 0.0
C1360 C 0.9104 0.21367 0.41496 0.0
C1361 C 0.90323 0.20503 0.36864 0.0
C1362 C 0.91662 0.24788 0.42892 0.0
C1363 C 0.9038 0.23912 0.4817 0.0
N1364 N 0.90494 0.21839 0.38882 0.0
N1365 N 0.90523 0.2251 0.46229 0.0
H1366 H 0.09029 0.67189 0.58668 0.0
H1367 H 0.06415 0.64769 0.74149 0.0
H1368 H 0.13673 0.68094 0.64983 0.0
H1369 H 0.0175 0.66638 0.68304 0.0
H1370 H 0.09173 0.65637 0.70858 0.0
H1371 H 0.06417 0.66547 0.6218 0.0
C1372 C 0.09508 0.67239 0.60796 0.0
C1373 C 0.11581 0.67696 0.61527 0.0
C1374 C 0.07544 0.65873 0.70319 0.0
C1375 C 0.08576 0.66956 0.65575 0.0
C1376 C 0.0597 0.6538 0.72191 0.0
C1377 C 0.03845 0.65627 0.71503 0.0
C1378 C 0.06984 0.66578 0.67723 0.0
C1379 C 0.03363 0.66423 0.68933 0.0
C1380 C 0.08007 0.66886 0.62802 0.0
C1381 C 0.12094 0.6775 0.64327 0.0
N1382 N 0.04915 0.66845 0.6713 0.0
N1383 N 0.10603 0.67372 0.66254 0.0
H1384 H 0.63811 0.27377 0.56327 0.0
H1385 H 0.57749 0.18783 0.63909 0.0
H1386 H 0.57074 0.26761 0.5621 0.0
H1387 H 0.64383 0.19882 0.64812 0.0
H1388 H 0.57485 0.2157 0.60881 0.0
H1389 H 0.64062 0.24491 0.59167 0.0
C1390 C 0.62382 0.2663 0.56883 0.0
C1391 C 0.60416 0.27322 0.56025 0.0
C1392 C 0.58998 0.21198 0.61741 0.0
C1393 C 0.60696 0.24004 0.59303 0.0
C1394 C 0.59152 0.19606 0.63491 0.0
C1395 C 0.61094 0.1908 0.64646 0.0
C1396 C 0.60798 0.22279 0.61122 0.0
C1397 C 0.62856 0.20203 0.63964 0.0
C1398 C 0.62528 0.24982 0.58516 0.0
C1399 C 0.58623 0.26286 0.56821 0.0
N1400 N 0.62664 0.21742 0.62256 0.0
N1401 N 0.58806 0.24684 0.58416 0.0
H1402 H 1.00536 0.40523 0.87896 0.0
H1403 H 0.10365 0.33677 0.90969 0.0
H1404 H 0.02516 0.36091 0.82288 0.0
H1405 H 0.08593 0.38535 0.95952 0.0
H1406 H 0.07629 0.34571 0.8766 0.0
H1407 H 0.03571 0.39842 0.9076 0.0
C1408 C 0.01614 0.39406 0.87257 0.0
C1409 C 0.01258 0.38357 0.84846 0.0
C1410 C 0.07854 0.35449 0.89466 0.0
C1411 C 0.04763 0.37556 0.88156 0.0
C1412 C 0.0942 0.34944 0.91355 0.0
C1413 C 0.09709 0.36027 0.93757 0.0
C1414 C 0.06559 0.37045 0.89985 0.0
C1415 C 0.0843 0.37649 0.94143 0.0
C1416 C 0.03357 0.39019 0.88899 0.0
C1417 C 0.02727 0.36936 0.84128 0.0
N1418 N 0.06909 0.38098 0.92294 0.0
N1419 N 0.04407 0.36567 0.85786 0.0
H1420 H 0.94111 0.75895 0.05628 0.0
H1421 H 0.87067 0.81943 0.16102 0.0
H1422 H 0.87586 0.74678 0.07211 0.0
H1423 H 0.93398 0.83521 0.13915 0.0
H1424 H 0.87233 0.79285 0.12859 0.0
H1425 H 0.93886 0.78692 0.08648 0.0
C1426 C 0.92627 0.76219 0.06597 0.0
C1427 C 0.90866 0.75042 0.06161 0.0
C1428 C 0.88585 0.80216 0.13084 0.0
C1429 C 0.90601 0.78245 0.09647 0.0
C1430 C 0.88489 0.81746 0.14935 0.0
C1431 C 0.90221 0.82974 0.15305 0.0
C1432 C 0.90428 0.79893 0.11585 0.0
C1433 C 0.9203 0.82609 0.13744 0.0
C1434 C 0.925 0.77819 0.08326 0.0
C1435 C 0.88986 0.7554 0.0748 0.0
N1436 N 0.92086 0.81104 0.11962 0.0
N1437 N 0.88907 0.77095 0.09168 0.0
H1438 H 0.40701 0.68667 0.40717 0.0
H1439 H 0.5111 0.62436 0.38733 0.0
H1440 H 0.42735 0.64164 0.46213 0.0
H1441 H 0.48681 0.66093 0.32319 0.0
H1442 H 0.48017 0.63104 0.41455 0.0
H1443 H 0.43528 0.67775 0.37559 0.0
C1444 C 0.41722 0.67477 0.41248 0.0
C1445 C 0.41482 0.66497 0.43749 0.0
C1446 C 0.48145 0.63759 0.3945 0.0
C1447 C 0.44733 0.65486 0.40155 0.0
C1448 C 0.49923 0.63383 0.37889 0.0
C1449 C 0.50168 0.64217 0.3529 0.0
C1450 C 0.46588 0.64999 0.38434 0.0
C1451 C 0.48559 0.6542 0.34312 0.0
C1452 C 0.43339 0.66973 0.39444 0.0
C1453 C 0.42858 0.6497 0.44322 0.0
N1454 N 0.46842 0.65788 0.35895 0.0
N1455 N 0.44427 0.64526 0.42555 0.0
H1456 H 0.38898 0.17043 0.16836 0.0
H1457 H 0.41576 0.26662 0.08527 0.0
H1458 H 0.45025 0.19673 0.16947 0.0
H1459 H 0.35711 0.23592 0.07877 0.0
H1460 H 0.42899 0.24139 0.11581 0.0
H1461 H 0.37741 0.1943 0.13502 0.0
C1462 C 0.40001 0.18127 0.16158 0.0
C1463 C 0.42056 0.18169 0.17192 0.0
C1464 C 0.41326 0.24015 0.10758 0.0
C1465 C 0.40742 0.20917 0.13353 0.0
C1466 C 0.40564 0.25462 0.09028 0.0
C1467 C 0.38524 0.25346 0.07944 0.0
C1468 C 0.40035 0.22445 0.11426 0.0
C1469 C 0.37298 0.23738 0.08634 0.0
C1470 C 0.39343 0.19486 0.14241 0.0
C1471 C 0.4343 0.19585 0.16195 0.0
N1472 N 0.38069 0.2236 0.10337 0.0
N1473 N 0.42744 0.20914 0.14346 0.0
H1474 H 0.49241 0.62335 0.8421 0.0
H1475 H 0.56556 0.69926 0.92047 0.0
H1476 H 0.49314 0.68406 0.82302 0.0
H1477 H 0.5611 0.639 0.94096 0.0
H1478 H 0.54266 0.6936 0.88077 0.0
H1479 H 0.52113 0.62839 0.87434 0.0
C1480 C 0.49875 0.63773 0.84447 0.0
C1481 C 0.49019 0.65333 0.82999 0.0
C1482 C 0.54685 0.6816 0.89385 0.0
C1483 C 0.52306 0.65927 0.86721 0.0
C1484 C 0.56 0.68481 0.9164 0.0
C1485 C 0.56499 0.66963 0.93424 0.0
C1486 C 0.53877 0.66304 0.88909 0.0
C1487 C 0.55728 0.6512 0.92809 0.0
C1488 C 0.51516 0.64061 0.86296 0.0
C1489 C 0.49918 0.67161 0.83383 0.0
N1490 N 0.5445 0.64846 0.90619 0.0
N1491 N 0.51498 0.67412 0.85227 0.0
H1492 H 0.06551 0.81521 0.67001 0.0
H1493 H 0.14241 0.78032 0.55041 0.0
H1494 H 0.12322 0.84389 0.64882 0.0
H1495 H 0.09443 0.74391 0.58494 0.0
H1496 H 0.13216 0.80595 0.58182 0.0
H1497 H 0.07257 0.79106 0.63451 0.0
C1498 C 0.07954 0.81651 0.65773 0.0
C1499 C 0.09389 0.83147 0.66252 0.0
C1500 C 0.1238 0.79238 0.58246 0.0
C1501 C 0.10206 0.80401 0.62197 0.0
C1502 C 0.12955 0.77778 0.56437 0.0
C1503 C 0.11934 0.75988 0.5651 0.0
C1504 C 0.10759 0.78917 0.60135 0.0
C1505 C 0.10293 0.75737 0.58393 0.0
C1506 C 0.08363 0.80269 0.63761 0.0
C1507 C 0.11192 0.83243 0.64613 0.0
N1508 N 0.09757 0.77184 0.60133 0.0
N1509 N 0.11548 0.81891 0.62663 0.0
H1510 H 0.95014 0.38375 0.44326 0.0
H1511 H 0.01983 0.33917 0.32276 0.0
H1512 H 0.94285 0.32584 0.41275 0.0
H1513 H 0.02881 0.39635 0.35529 0.0
H1514 H 0.98974 0.33497 0.35305 0.0
H1515 H 0.97712 0.38952 0.40881 0.0
C1516 C 0.95405 0.37228 0.42921 0.0
C1517 C 0.94423 0.35423 0.4311 0.0
C1518 C 0.9982 0.34849 0.35345 0.0
C1519 C 0.97533 0.36071 0.39164 0.0
C1520 C 0.01537 0.35093 0.33608 0.0
C1521 C 0.02697 0.36811 0.33655 0.0
C1522 C 0.99255 0.36333 0.3715 0.0
C1523 C 0.0204 0.38283 0.35427 0.0
C1524 C 0.96957 0.37557 0.40959 0.0
C1525 C 0.9502 0.33987 0.41244 0.0
N1526 N 1.00372 0.38006 0.37113 0.0
N1527 N 0.96537 0.34341 0.39358 0.0
H1528 H 0.4026 0.86022 0.36971 0.0
H1529 H 0.40366 0.74857 0.41047 0.0
H1530 H 0.44426 0.81873 0.33302 0.0
H1531 H 0.3685 0.79181 0.45419 0.0
H1532 H 0.41806 0.77376 0.38117 0.0
H1533 H 0.38896 0.83501 0.39963 0.0
C1534 C 0.40882 0.84579 0.36783 0.0
C1535 C 0.42459 0.84162 0.34873 0.0
C1536 C 0.40722 0.77772 0.39723 0.0
C1537 C 0.40911 0.81261 0.38318 0.0
C1538 C 0.39903 0.76332 0.41412 0.0
C1539 C 0.38474 0.76795 0.43497 0.0
C1540 C 0.40105 0.79694 0.40104 0.0
C1541 C 0.37917 0.7874 0.43824 0.0
C1542 C 0.40111 0.83141 0.38507 0.0
C1543 C 0.43227 0.82267 0.34759 0.0
N1544 N 0.38729 0.80112 0.42146 0.0
N1545 N 0.42441 0.80887 0.36449 0.0
H1546 H 0.02937 0.622 0.18064 0.0
H1547 H 0.95559 0.69749 0.10276 0.0
H1548 H 0.03205 0.68325 0.19507 0.0
H1549 H 0.95203 0.63589 0.09257 0.0
H1550 H 0.98127 0.69276 0.13964 0.0
H1551 H 0.9988 0.62689 0.1514 0.0
C1552 C 0.0234 0.63648 0.17788 0.0
C1553 C 0.03341 0.65225 0.19018 0.0
C1554 C 0.97473 0.68028 0.12945 0.0
C1555 C 0.99842 0.65802 0.15636 0.0
C1556 C 0.96 0.68298 0.1085 0.0
C1557 C 0.95186 0.66707 0.09429 0.0
C1558 C 0.98132 0.66154 0.13624 0.0
C1559 C 0.95823 0.64859 0.1025 0.0
C1560 C 1.00592 0.63928 0.16113 0.0
C1561 C 0.02487 0.67067 0.18596 0.0
N1562 N 0.97264 0.64636 0.12274 0.0
N1563 N 1.008 0.67308 0.16916 0.0
H1564 H 0.09502 0.26824 0.93659 0.0
H1565 H 0.12593 0.17381 0.85208 0.0
H1566 H 0.15602 0.24144 0.93886 0.0
H1567 H 0.06174 0.19219 0.8622 0.0
H1568 H 0.13742 0.20069 0.88012 0.0
H1569 H 0.08279 0.24269 0.90573 0.0
C1570 C 0.10586 0.25706 0.9305 0.0
C1571 C 0.12655 0.25693 0.94046 0.0
C1572 C 0.12081 0.19888 0.87625 0.0
C1573 C 0.1127 0.22772 0.90521 0.0
C1574 C 0.11418 0.18342 0.86029 0.0
C1575 C 0.09276 0.18046 0.855 0.0
C1576 C 0.10597 0.21169 0.88706 0.0
C1577 C 0.0784 0.19387 0.86564 0.0
C1578 C 0.09885 0.24244 0.91301 0.0
C1579 C 0.13987 0.24198 0.93207 0.0
N1580 N 0.08526 0.20886 0.88126 0.0
N1581 N 0.13274 0.22805 0.91495 0.0
H1582 H 0.55816 0.3306 0.60043 0.0
H1583 H 0.5041 0.41167 0.69303 0.0
H1584 H 0.57479 0.39076 0.59873 0.0
H1585 H 0.48057 0.35356 0.68641 0.0
H1586 H 0.5339 0.40272 0.66449 0.0
H1587 H 0.53348 0.33728 0.63774 0.0
C1588 C 0.55683 0.34514 0.60818 0.0
C1589 C 0.56832 0.36019 0.59625 0.0
C1590 C 0.52232 0.39187 0.66948 0.0
C1591 C 0.54015 0.36797 0.63872 0.0
C1592 C 0.50531 0.39696 0.68587 0.0
C1593 C 0.48965 0.38342 0.69191 0.0
C1594 C 0.52374 0.37309 0.65897 0.0
C1595 C 0.49217 0.36453 0.68212 0.0
C1596 C 0.54268 0.34897 0.62933 0.0
C1597 C 0.56593 0.3788 0.60696 0.0
N1598 N 0.50878 0.35997 0.66594 0.0
N1599 N 0.55206 0.38217 0.62744 0.0
H1600 H 0.10487 0.47711 0.33078 0.0
H1601 H 0.1011 0.53882 0.19223 0.0
H1602 H 0.09615 0.45193 0.25091 0.0
H1603 H 0.10208 0.56448 0.27256 0.0
H1604 H 0.09992 0.50696 0.21332 0.0
H1605 H 0.10454 0.5091 0.30991 0.0
C1606 C 0.10296 0.47827 0.30883 0.0
C1607 C 0.10063 0.4617 0.2926 0.0
C1608 C 0.10034 0.51954 0.22638 0.0
C1609 C 0.10012 0.49849 0.26849 0.0
C1610 C 0.10115 0.53779 0.21432 0.0
C1611 C 0.10183 0.55446 0.2306 0.0
C1612 C 0.10033 0.51779 0.25501 0.0
C1613 C 0.10145 0.55211 0.25917 0.0
C1614 C 0.10264 0.49659 0.29693 0.0
C1615 C 0.09784 0.46423 0.26429 0.0
N1616 N 0.10084 0.53415 0.27044 0.0
N1617 N 0.09777 0.48223 0.25315 0.0
H1618 H 0.79967 0.82857 0.58215 0.0
H1619 H 0.72274 0.83773 0.45369 0.0
H1620 H 0.82122 0.84017 0.50011 0.0
H1621 H 0.70077 0.83755 0.53714 0.0
H1622 H 0.75882 0.83954 0.47046 0.0
H1623 H 0.76346 0.83261 0.56644 0.0
C1624 C 0.79683 0.83213 0.56087 0.0
C1625 C 0.81359 0.83393 0.54242 0.0
C1626 C 0.74613 0.83931 0.48514 0.0
C1627 C 0.77202 0.83841 0.5242 0.0
C1628 C 0.72548 0.83827 0.47557 0.0
C1629 C 0.70864 0.83741 0.49401 0.0
C1630 C 0.75011 0.83923 0.51343 0.0
C1631 C 0.71322 0.83821 0.52214 0.0
C1632 C 0.77611 0.83445 0.55192 0.0
C1633 C 0.80886 0.83861 0.5151 0.0
N1634 N 0.7335 0.83885 0.53098 0.0
N1635 N 0.78855 0.8405 0.5068 0.0
H1636 H 0.41612 0.4519 0.77169 0.0
H1637 H 0.42713 0.56538 0.74327 0.0
H1638 H 0.42593 0.47631 0.69146 0.0
H1639 H 0.41601 0.54092 0.82316 0.0
H1640 H 0.42814 0.53284 0.72414 0.0
H1641 H 0.41737 0.48431 0.79114 0.0
C1642 C 0.41866 0.46401 0.75814 0.0
C1643 C 0.4208 0.46125 0.72981 0.0
C1644 C 0.4255 0.5346 0.74587 0.0
C1645 C 0.42211 0.49858 0.752 0.0
C1646 C 0.42504 0.55321 0.75685 0.0
C1647 C 0.42136 0.55602 0.7849 0.0
C1648 C 0.42232 0.51859 0.76304 0.0
C1649 C 0.41854 0.53959 0.80138 0.0
C1650 C 0.41927 0.48257 0.76927 0.0
C1651 C 0.42384 0.47765 0.71332 0.0
N1652 N 0.41905 0.52166 0.79022 0.0
N1653 N 0.42438 0.49554 0.72463 0.0
H1654 H 0.81325 0.19389 0.0242 0.0
H1655 H 0.70117 0.14782 0.98761 0.0
H1656 H 0.80252 0.15721 0.95433 0.0
H1657 H 0.70946 0.19356 0.04634 0.0
H1658 H 0.7389 0.14838 0.97861 0.0
H1659 H 0.77605 0.19124 0.03592 0.0
C1660 C 0.80313 0.18517 1.01139 0.0
C1661 C 0.81111 0.1758 0.98815 0.0
C1662 C 0.73248 0.15825 0.99354 0.0
C1663 C 0.76834 0.1727 1.00155 0.0
C1664 C 0.71091 0.15789 0.99879 0.0
C1665 C 0.70201 0.1707 0.01774 0.0
C1666 C 0.74541 0.1714 1.00746 0.0
C1667 C 0.71554 0.18345 0.0315 0.0
C1668 C 0.78184 0.18372 0.01807 0.0
C1669 C 0.79713 0.16475 0.97237 0.0
N1670 N 0.7365 0.18348 0.02609 0.0
N1671 N 0.77649 0.16351 0.97934 0.0
H1672 H 0.95231 0.47533 0.82142 0.0
H1673 H 0.98719 0.54811 0.70292 0.0
H1674 H 0.97292 0.4567 0.74173 0.0
H1675 H 0.97128 0.56625 0.78475 0.0
H1676 H 0.98167 0.51476 0.71651 0.0
H1677 H 0.95883 0.50864 0.80815 0.0
C1678 C 0.95815 0.47823 0.80106 0.0
C1679 C 0.96188 0.46313 0.78258 0.0
C1680 C 0.97942 0.52602 0.73152 0.0
C1681 C 0.96956 0.50146 0.76725 0.0
C1682 C 0.98266 0.54515 0.72382 0.0
C1683 C 0.97986 0.56019 0.74274 0.0
C1684 C 0.97322 0.52171 0.75838 0.0
C1685 C 0.97349 0.55527 0.76936 0.0
C1686 C 0.96198 0.4973 0.79354 0.0
C1687 C 0.96991 0.46783 0.75668 0.0
N1688 N 0.97042 0.53649 0.77636 0.0
N1689 N 0.97336 0.48657 0.74974 0.0
H1690 H 0.31034 0.21043 0.51991 0.0
H1691 H 0.2057 0.14845 0.49694 0.0
H1692 H 0.30792 0.14838 0.51833 0.0
H1693 H 0.20429 0.20996 0.50864 0.0
H1694 H 0.24353 0.14881 0.50321 0.0
H1695 H 0.27203 0.21129 0.51393 0.0
C1696 C 0.30181 0.19701 0.51819 0.0
C1697 C 0.3124 0.1793 0.51979 0.0
C1698 C 0.23504 0.16228 0.50446 0.0
C1699 C 0.26864 0.18017 0.51307 0.0
C1700 C 0.21338 0.16209 0.50072 0.0
C1701 C 0.20176 0.17922 0.50204 0.0
C1702 C 0.24542 0.17977 0.50948 0.0
C1703 C 0.21261 0.19641 0.50759 0.0
C1704 C 0.27994 0.19751 0.51496 0.0
C1705 C 0.30048 0.16236 0.51767 0.0
N1706 N 0.23387 0.19628 0.51096 0.0
N1707 N 0.27935 0.16323 0.51439 0.0
H1708 H 0.54816 0.5435 0.32761 0.0
H1709 H 0.54739 0.47339 0.1982 0.0
H1710 H 0.54586 0.56376 0.24419 0.0
H1711 H 0.54467 0.45317 0.28159 0.0
H1712 H 0.54465 0.50648 0.21456 0.0
H1713 H 0.54473 0.51046 0.31123 0.0
C1714 C 0.54689 0.541 0.30581 0.0
C1715 C 0.54756 0.55644 0.28722 0.0
C1716 C 0.54449 0.49484 0.22932 0.0
C1717 C 0.54355 0.51851 0.26825 0.0
C1718 C 0.54616 0.47592 0.21999 0.0
C1719 C 0.54651 0.46047 0.23858 0.0
C1720 C 0.54331 0.49845 0.25753 0.0
C1721 C 0.54441 0.46461 0.26655 0.0
C1722 C 0.54482 0.52211 0.29647 0.0
C1723 C 0.54538 0.55233 0.25924 0.0
N1724 N 0.54313 0.48321 0.27519 0.0
N1725 N 0.54369 0.53376 0.2506 0.0
H1726 H 0.20507 0.81821 0.98765 0.0
H1727 H 0.3232 0.83277 0.04123 0.0
H1728 H 0.22025 0.84295 0.0662 0.0
H1729 H 0.30684 0.81479 0.9595 0.0
H1730 H 0.28571 0.83326 0.05294 0.0
H1731 H 0.24246 0.81357 0.97908 0.0
C1732 C 0.21622 0.82252 1.00321 0.0
C1733 C 0.20943 0.83112 0.0276 0.0
C1734 C 0.29037 0.82913 0.03248 0.0
C1735 C 0.25242 0.82598 0.01783 0.0
C1736 C 0.31175 0.82874 0.02588 0.0
C1737 C 0.31813 0.82398 0.99927 0.0
C1738 C 0.27533 0.82454 0.01238 0.0
C1739 C 0.30262 0.81894 0.98009 0.0
C1740 C 0.23762 0.81997 0.99825 0.0
C1741 C 0.22472 0.83658 0.0469 0.0
N1742 N 0.28201 0.81942 0.98698 0.0
N1743 N 0.24547 0.83397 0.04158 0.0
H1744 H 0.60413 0.95424 0.74939 0.0
H1745 H 0.60181 0.06851 0.77446 0.0
H1746 H 0.60882 0.98035 0.82924 0.0
H1747 H 0.6041 0.04249 0.69441 0.0
H1748 H 0.60209 0.03632 0.795 0.0
H1749 H 0.60181 0.98638 0.72898 0.0
C1750 C 0.60455 0.96669 0.76267 0.0
C1751 C 0.60678 0.96449 0.79112 0.0
C1752 C 0.60252 0.03766 0.77293 0.0
C1753 C 0.60424 1.00147 0.76782 0.0
C1754 C 0.60224 0.05606 0.76118 0.0
C1755 C 0.60303 0.0583 0.73262 0.0
C1756 C 0.60346 0.02129 0.75605 0.0
C1757 C 0.6038 0.04155 0.71649 0.0
C1758 C 0.60334 0.98508 0.75098 0.0
C1759 C 0.60744 0.98126 0.80722 0.0
N1760 N 0.60399 0.02383 0.7284 0.0
N1761 N 0.60617 0.99897 0.79537 0.0
H1762 H 0.29432 0.33399 0.07479 0.0
H1763 H 0.21556 0.33284 0.94731 0.0
H1764 H 0.3151 0.33741 0.99095 0.0
H1765 H 0.19512 0.34058 0.03069 0.0
H1766 H 0.25201 0.33498 0.96274 0.0
H1767 H 0.25801 0.33687 0.05908 0.0
C1768 C 0.29129 0.3355 0.05307 0.0
C1769 C 0.30787 0.33539 0.03418 0.0
C1770 C 0.23957 0.33639 0.97765 0.0
C1771 C 0.26612 0.33851 0.01597 0.0
C1772 C 0.2187 0.33516 0.96884 0.0
C1773 C 0.20217 0.33647 0.98771 0.0
C1774 C 0.24406 0.33873 1.00562 0.0
C1775 C 0.2073 0.33951 0.01537 0.0
C1776 C 0.2705 0.33716 0.04411 0.0
C1777 C 0.30288 0.33744 1.00629 0.0
N1778 N 0.22775 0.34035 0.02349 0.0
N1779 N 0.28249 0.33873 0.99803 0.0
H1780 H 0.92803 0.04107 0.33194 0.0
H1781 H 0.91006 0.97643 0.1982 0.0
H1782 H 0.91678 0.06472 0.25152 0.0
H1783 H 0.92479 0.95274 0.27763 0.0
H1784 H 0.91239 0.00877 0.2174 0.0
H1785 H 0.92683 0.00872 0.31254 0.0
C1786 C 0.92521 0.03951 0.31021 0.0
C1787 C 0.92239 0.05576 0.29341 0.0
C1788 C 0.91516 0.99652 0.23066 0.0
C1789 C 0.92117 0.01853 0.27093 0.0
C1790 C 0.9137 0.97798 0.21972 0.0
C1791 C 0.91711 0.96171 0.23631 0.0
C1792 C 0.92 0.99895 0.25849 0.0
C1793 C 0.92219 0.96477 0.26398 0.0
C1794 C 0.92465 0.02097 0.2991 0.0
C1795 C 0.9192 0.05271 0.26528 0.0
N1796 N 0.92338 0.98299 0.27419 0.0
N1797 N 0.91859 0.0345 0.25498 0.0
H1798 H 0.31365 0.69012 0.52494 0.0
H1799 H 0.20027 0.65515 0.47455 0.0
H1800 H 0.30008 0.67265 0.44205 0.0
H1801 H 0.20927 0.68938 0.54731 0.0
H1802 H 0.23788 0.65687 0.46567 0.0
H1803 H 0.2766 0.6854 0.53657 0.0
C1804 C 0.30295 0.6851 0.50924 0.0
C1805 C 0.31002 0.68182 0.48242 0.0
C1806 C 0.23166 0.66394 0.48365 0.0
C1807 C 0.26759 0.67636 0.49567 0.0
C1808 C 0.21015 0.6629 0.48884 0.0
C1809 C 0.20149 0.6722 0.5117 0.0
C1810 C 0.24479 0.67419 0.50155 0.0
C1811 C 0.21521 0.68205 0.52938 0.0
C1812 C 0.28178 0.68252 0.51588 0.0
C1813 C 0.29537 0.67544 0.46294 0.0
N1814 N 0.23616 0.68279 0.52394 0.0
N1815 N 0.2749 0.6729 0.46995 0.0
H1816 H 0.48349 0.06358 0.27693 0.0
H1817 H 0.46003 0.95248 0.24575 0.0
H1818 H 0.44988 0.0439 0.20541 0.0
H1819 H 0.50232 0.97177 0.30922 0.0
H1820 H 0.45593 0.98586 0.23076 0.0
H1821 H 0.49041 0.03007 0.28929 0.0
C1822 C 0.47768 0.0523 0.26368 0.0
C1823 C 0.4659 0.05675 0.24016 0.0
C1824 C 0.46616 0.98275 0.24793 0.0
C1825 C 0.47357 0.01817 0.25446 0.0
C1826 C 0.46859 0.96363 0.25645 0.0
C1827 C 0.48141 0.95915 0.27901 0.0
C1828 C 0.47654 0.99758 0.26209 0.0
C1829 C 0.49192 0.97441 0.29213 0.0
C1830 C 0.48156 0.03311 0.27084 0.0
C1831 C 0.45864 0.04133 0.22401 0.0
N1832 N 0.48917 0.99288 0.28358 0.0
N1833 N 0.46249 0.02281 0.23152 0.0
H1834 H 0.81031 0.71002 0.02126 0.0
H1835 H 0.7053 0.64753 1.0042 0.0
H1836 H 0.80791 0.64796 0.02214 0.0
H1837 H 0.70466 0.70959 1.00766 0.0
H1838 H 0.74319 0.64796 1.00961 0.0
H1839 H 0.77208 0.71076 0.01471 0.0
C1840 C 0.8018 0.69657 0.01991 0.0
C1841 C 0.81237 0.6789 0.02247 0.0
C1842 C 0.73484 0.66153 1.0092 0.0
C1843 C 0.76867 0.67963 0.01517 0.0
C1844 C 0.71313 0.6613 1.00594 0.0
C1845 C 0.70169 0.67856 1.00526 0.0
C1846 C 0.74544 0.67917 1.01178 0.0
C1847 C 0.71279 0.69593 1.00824 0.0
C1848 C 0.77997 0.697 0.01636 0.0
C1849 C 0.80048 0.66192 0.02079 0.0
N1850 N 0.73407 0.69581 1.01128 0.0
N1851 N 0.77937 0.66272 0.01727 0.0
H1852 H 0.0326 0.04157 0.81956 0.0
H1853 H 0.07005 0.9704 0.70074 0.0
H1854 H 0.06084 0.06125 0.74443 0.0
H1855 H 0.04551 0.95108 0.77829 0.0
H1856 H 0.06427 1.00366 0.71472 0.0
H1857 H 0.03453 1.00855 0.80305 0.0
C1858 C 0.03925 0.03896 0.79956 0.0
C1859 C 0.04686 0.05426 0.78354 0.0
C1860 C 0.06008 0.99216 0.72866 0.0
C1861 C 0.04896 0.01625 0.7643 0.0
C1862 C 0.06349 0.9731 0.72076 0.0
C1863 C 0.05852 0.95779 0.73849 0.0
C1864 C 0.0516 0.99609 0.75452 0.0
C1865 C 0.04954 0.96232 0.76389 0.0
C1866 C 0.04025 0.02005 0.79008 0.0
C1867 C 0.05477 0.04995 0.75746 0.0
N1868 N 0.04649 0.98103 0.77119 0.0
N1869 N 0.05577 0.03134 0.74875 0.0
H1870 H 0.69994 0.30412 0.51162 0.0
H1871 H 0.8182 0.34275 0.52299 0.0
H1872 H 0.71575 0.36202 0.53644 0.0
H1873 H 0.80089 0.28966 0.48326 0.0
H1874 H 0.78101 0.34878 0.53274 0.0
H1875 H 0.73712 0.29753 0.50487 0.0
C1876 C 0.7111 0.31551 0.51556 0.0
C1877 C 0.70444 0.33371 0.52463 0.0
C1878 C 0.78538 0.33579 0.52194 0.0
C1879 C 0.74734 0.32606 0.5173 0.0
C1880 C 0.80661 0.3323 0.51656 0.0
C1881 C 0.81264 0.31577 0.50209 0.0
C1882 C 0.77012 0.32256 0.51301 0.0
C1883 C 0.79693 0.30275 0.49405 0.0
C1884 C 0.73242 0.31168 0.51183 0.0
C1885 C 0.71994 0.34771 0.52978 0.0
N1886 N 0.77645 0.30642 0.49959 0.0
N1887 N 0.74059 0.34359 0.52606 0.0
loop_
_geom_bond_atom_site_label_1
_geom_bond_atom_site_label_2
_geom_bond_distance
_geom_bond_site_symmetry_2
_ccdc_geom_bond_type
Cu0 N1 1.999 . S
Cu0 O6 1.974 . S
Cu0 N11 1.985 . S
Cu0 O20 1.959 . S
N1 Cu0 1.999 . S
N1 C3 1.263 . S
N1 C5 1.389 . S
N2 C3 1.358 . S
N2 C4 1.400 . S
C3 N1 1.263 . S
C3 N2 1.358 . S
C3 H9 0.930 . S
C4 N2 1.400 . S
C4 C5 1.351 . S
C4 H21 0.930 . S
C5 N1 1.389 . S
C5 C4 1.351 . S
C5 H10 0.930 . S
O6 Cu0 1.974 . S
O6 C16 1.282 . S
C7 O8 1.261 . S
C7 O20 1.251 . S
O8 C7 1.261 . S
H9 C3 0.930 . S
H10 C5 0.930 . S
N11 Cu0 1.985 . S
N11 C13 1.335 . S
N11 C14 1.390 . S
N12 C13 1.345 . S
N12 C15 1.336 . S
C13 N11 1.335 . S
C13 N12 1.345 . S
C13 H18 0.930 . S
C14 N11 1.390 . S
C14 C15 1.346 . S
C14 H19 0.930 . S
C15 N12 1.336 . S
C15 C14 1.346 . S
C15 H22 0.929 . S
C16 O6 1.282 . S
C16 O17 1.216 . S
O17 C16 1.216 . S
H18 C13 0.930 . S
H19 C14 0.930 . S
O20 Cu0 1.959 . S
O20 C7 1.251 . S
H21 C4 0.930 . S
H22 C15 0.929 . S
Cu23 N24 1.999 . S
Cu23 O29 1.974 . S
Cu23 N34 1.985 . S
Cu23 O43 1.959 . S
N24 Cu23 1.999 . S
N24 C26 1.263 . S
N24 C28 1.389 . S
N25 C26 1.358 . S
N25 C27 1.400 . S
C26 N24 1.263 . S
C26 N25 1.358 . S
C26 H32 0.930 . S
C27 N25 1.400 . S
C27 C28 1.351 . S
C27 H44 0.930 . S
C28 N24 1.389 . S
C28 C27 1.351 . S
C28 H33 0.930 . S
O29 Cu23 1.974 . S
O29 C39 1.282 . S
C30 O31 1.261 . S
C30 O43 1.251 . S
O31 C30 1.261 . S
H32 C26 0.930 . S
H33 C28 0.930 . S
N34 Cu23 1.985 . S
N34 C36 1.335 . S
N34 C37 1.390 . S
N35 C36 1.345 . S
N35 C38 1.336 . S
C36 N34 1.335 . S
C36 N35 1.345 . S
C36 H41 0.930 . S
C37 N34 1.390 . S
C37 C38 1.346 . S
C37 H42 0.930 . S
C38 N35 1.336 . S
C38 C37 1.346 . S
C38 H45 0.929 . S
C39 O29 1.282 . S
C39 O40 1.216 . S
O40 C39 1.216 . S
H41 C36 0.930 . S
H42 C37 0.930 . S
O43 Cu23 1.959 . S
O43 C30 1.251 . S
H44 C27 0.930 . S
H45 C38 0.929 . S
Cu46 N47 1.999 . S
Cu46 O52 1.974 . S
Cu46 N57 1.985 . S
Cu46 O66 1.959 . S
N47 Cu46 1.999 . S
N47 C49 1.263 . S
N47 C51 1.389 . S
N48 C49 1.358 . S
N48 C50 1.400 . S
C49 N47 1.263 . S
C49 N48 1.358 . S
C49 H55 0.930 . S
C50 N48 1.400 . S
C50 C51 1.351 . S
C50 H67 0.930 . S
C51 N47 1.389 . S
C51 C50 1.351 . S
C51 H56 0.930 . S
O52 Cu46 1.974 . S
O52 C62 1.282 . S
C53 O54 1.261 . S
C53 O66 1.251 . S
O54 C53 1.261 . S
H55 C49 0.930 . S
H56 C51 0.930 . S
N57 Cu46 1.985 . S
N57 C59 1.335 . S
N57 C60 1.390 . S
N58 C59 1.345 . S
N58 C61 1.336 . S
C59 N57 1.335 . S
C59 N58 1.345 . S
C59 H64 0.930 . S
C60 N57 1.390 . S
C60 C61 1.346 . S
C60 H65 0.930 . S
C61 N58 1.336 . S
C61 C60 1.346 . S
C61 H68 0.929 . S
C62 O52 1.282 . S
C62 O63 1.216 . S
O63 C62 1.216 . S
H64 C59 0.930 . S
H65 C60 0.930 . S
O66 Cu46 1.959 . S
O66 C53 1.251 . S
H67 C50 0.930 . S
H68 C61 0.929 . S
Cu69 N70 1.999 . S
Cu69 O75 1.974 . S
Cu69 N80 1.985 . S
Cu69 O89 1.959 . S
N70 Cu69 1.999 . S
N70 C72 1.263 1_554 S
N70 C74 1.389 1_554 S
N71 C72 1.358 . S
N71 C73 1.400 . S
C72 N70 1.263 1_556 S
C72 N71 1.358 . S
C72 H78 0.930 . S
C73 N71 1.400 . S
C73 C74 1.351 . S
C73 H90 0.930 . S
C74 N70 1.389 1_556 S
C74 C73 1.351 . S
C74 H79 0.930 . S
O75 Cu69 1.974 . S
O75 C85 1.282 . S
C76 O77 1.261 . S
C76 O89 1.251 . S
O77 C76 1.261 . S
H78 C72 0.930 . S
H79 C74 0.930 . S
N80 Cu69 1.985 . S
N80 C82 1.335 . S
N80 C83 1.390 . S
N81 C82 1.345 . S
N81 C84 1.336 . S
C82 N80 1.335 . S
C82 N81 1.345 . S
C82 H87 0.930 . S
C83 N80 1.390 . S
C83 C84 1.346 . S
C83 H88 0.930 . S
C84 N81 1.336 . S
C84 C83 1.346 . S
C84 H91 0.929 . S
C85 O75 1.282 . S
C85 O86 1.216 . S
O86 C85 1.216 . S
H87 C82 0.930 . S
H88 C83 0.930 . S
O89 Cu69 1.959 . S
O89 C76 1.251 . S
H90 C73 0.930 . S
H91 C84 0.929 . S
Cu92 N93 1.999 . S
Cu92 O98 1.974 . S
Cu92 N103 1.985 . S
Cu92 O112 1.959 . S
N93 Cu92 1.999 . S
N93 C95 1.263 . S
N93 C97 1.389 . S
N94 C95 1.358 . S
N94 C96 1.400 . S
C95 N93 1.263 . S
C95 N94 1.358 . S
C95 H101 0.930 . S
C96 N94 1.400 . S
C96 C97 1.351 . S
C96 H113 0.930 . S
C97 N93 1.389 . S
C97 C96 1.351 . S
C97 H102 0.930 . S
O98 Cu92 1.974 . S
O98 C108 1.282 . S
C99 O100 1.261 . S
C99 O112 1.251 . S
O100 C99 1.261 . S
H101 C95 0.930 . S
H102 C97 0.930 . S
N103 Cu92 1.985 . S
N103 C105 1.335 . S
N103 C106 1.390 . S
N104 C105 1.345 . S
N104 C107 1.336 . S
C105 N103 1.335 . S
C105 N104 1.345 . S
C105 H110 0.930 . S
C106 N103 1.390 . S
C106 C107 1.346 . S
C106 H111 0.930 . S
C107 N104 1.336 . S
C107 C106 1.346 . S
C107 H114 0.929 . S
C108 O98 1.282 . S
C108 O109 1.216 . S
O109 C108 1.216 . S
H110 C105 0.930 . S
H111 C106 0.930 . S
O112 Cu92 1.959 . S
O112 C99 1.251 . S
H113 C96 0.930 . S
H114 C107 0.929 . S
Cu115 N116 1.999 . S
Cu115 O121 1.974 . S
Cu115 N126 1.985 . S
Cu115 O135 1.959 . S
N116 Cu115 1.999 . S
N116 C118 1.263 . S
N116 C120 1.389 . S
N117 C118 1.358 . S
N117 C119 1.400 . S
C118 N116 1.263 . S
C118 N117 1.358 . S
C118 H124 0.930 . S
C119 N117 1.400 . S
C119 C120 1.351 . S
C119 H136 0.930 . S
C120 N116 1.389 . S
C120 C119 1.351 . S
C120 H125 0.930 . S
O121 Cu115 1.974 . S
O121 C131 1.282 . S
C122 O123 1.261 . S
C122 O135 1.251 . S
O123 C122 1.261 . S
H124 C118 0.930 . S
H125 C120 0.930 . S
N126 Cu115 1.985 . S
N126 C128 1.335 . S
N126 C129 1.390 . S
N127 C128 1.345 . S
N127 C130 1.336 . S
C128 N126 1.335 . S
C128 N127 1.345 . S
C128 H133 0.930 . S
C129 N126 1.390 . S
C129 C130 1.346 . S
C129 H134 0.930 . S
C130 N127 1.336 . S
C130 C129 1.346 . S
C130 H137 0.929 . S
C131 O121 1.282 . S
C131 O132 1.216 . S
O132 C131 1.216 . S
H133 C128 0.930 . S
H134 C129 0.930 . S
O135 Cu115 1.959 . S
O135 C122 1.251 . S
H136 C119 0.930 . S
H137 C130 0.929 . S
Cu138 N139 1.999 . S
Cu138 O144 1.974 . S
Cu138 N149 1.985 . S
Cu138 O158 1.959 . S
N139 Cu138 1.999 . S
N139 C141 1.263 . S
N139 C143 1.389 . S
N140 C141 1.358 . S
N140 C142 1.400 . S
C141 N139 1.263 . S
C141 N140 1.358 . S
C141 H147 0.930 . S
C142 N140 1.400 . S
C142 C143 1.351 . S
C142 H159 0.930 . S
C143 N139 1.389 . S
C143 C142 1.351 . S
C143 H148 0.930 . S
O144 Cu138 1.974 . S
O144 C154 1.282 . S
C145 O146 1.261 . S
C145 O158 1.251 . S
O146 C145 1.261 . S
H147 C141 0.930 . S
H148 C143 0.930 . S
N149 Cu138 1.985 . S
N149 C151 1.335 . S
N149 C152 1.390 . S
N150 C151 1.345 . S
N150 C153 1.336 . S
C151 N149 1.335 . S
C151 N150 1.345 . S
C151 H156 0.930 . S
C152 N149 1.390 . S
C152 C153 1.346 . S
C152 H157 0.930 . S
C153 N150 1.336 . S
C153 C152 1.346 . S
C153 H160 0.929 . S
C154 O144 1.282 . S
C154 O155 1.216 . S
O155 C154 1.216 . S
H156 C151 0.930 . S
H157 C152 0.930 . S
O158 Cu138 1.959 . S
O158 C145 1.251 . S
H159 C142 0.930 . S
H160 C153 0.929 . S
Cu161 N162 1.999 . S
Cu161 O167 1.974 . S
Cu161 N172 1.985 . S
Cu161 O181 1.959 . S
N162 Cu161 1.999 . S
N162 C164 1.263 1_556 S
N162 C166 1.389 1_556 S
N163 C164 1.358 . S
N163 C165 1.400 . S
C164 N162 1.263 1_554 S
C164 N163 1.358 . S
C164 H170 0.930 . S
C165 N163 1.400 . S
C165 C166 1.351 . S
C165 H182 0.930 . S
C166 N162 1.389 1_554 S
C166 C165 1.351 . S
C166 H171 0.930 . S
O167 Cu161 1.974 . S
O167 C177 1.282 . S
C168 O169 1.261 . S
C168 O181 1.251 . S
O169 C168 1.261 . S
H170 C164 0.930 . S
H171 C166 0.930 . S
N172 Cu161 1.985 . S
N172 C174 1.335 . S
N172 C175 1.390 . S
N173 C174 1.345 . S
N173 C176 1.336 . S
C174 N172 1.335 . S
C174 N173 1.345 . S
C174 H179 0.930 . S
C175 N172 1.390 . S
C175 C176 1.346 . S
C175 H180 0.930 . S
C176 N173 1.336 . S
C176 C175 1.346 . S
C176 H183 0.929 . S
C177 O167 1.282 . S
C177 O178 1.216 . S
O178 C177 1.216 . S
H179 C174 0.930 . S
H180 C175 0.930 . S
O181 Cu161 1.959 . S
O181 C168 1.251 . S
H182 C165 0.930 . S
H183 C176 0.929 . S
Cu184 N185 1.999 . S
Cu184 O190 1.974 . S
Cu184 N195 1.985 . S
Cu184 O204 1.959 . S
N185 Cu184 1.999 . S
N185 C187 1.263 . S
N185 C189 1.389 . S
N186 C187 1.358 . S
N186 C188 1.400 . S
C187 N185 1.263 . S
C187 N186 1.358 . S
C187 H193 0.930 . S
C188 N186 1.400 . S
C188 C189 1.351 . S
C188 H205 0.930 . S
C189 N185 1.389 . S
C189 C188 1.351 . S
C189 H194 0.930 . S
O190 Cu184 1.974 . S
O190 C200 1.282 . S
C191 O192 1.261 . S
C191 O204 1.251 . S
O192 C191 1.261 . S
H193 C187 0.930 . S
H194 C189 0.930 . S
N195 Cu184 1.985 . S
N195 C197 1.335 . S
N195 C198 1.390 . S
N196 C197 1.345 . S
N196 C199 1.336 . S
C197 N195 1.335 . S
C197 N196 1.345 . S
C197 H202 0.930 . S
C198 N195 1.390 . S
C198 C199 1.346 . S
C198 H203 0.930 . S
C199 N196 1.336 . S
C199 C198 1.346 . S
C199 H206 0.929 . S
C200 O190 1.282 . S
C200 O201 1.216 . S
O201 C200 1.216 . S
H202 C197 0.930 . S
H203 C198 0.930 . S
O204 Cu184 1.959 . S
O204 C191 1.251 . S
H205 C188 0.930 . S
H206 C199 0.929 . S
Cu207 N208 1.999 . S
Cu207 O213 1.974 . S
Cu207 N218 1.985 . S
Cu207 O227 1.959 . S
N208 Cu207 1.999 . S
N208 C210 1.263 . S
N208 C212 1.389 . S
N209 C210 1.358 . S
N209 C211 1.400 . S
C210 N208 1.263 . S
C210 N209 1.358 . S
C210 H216 0.930 . S
C211 N209 1.400 . S
C211 C212 1.351 . S
C211 H228 0.930 . S
C212 N208 1.389 . S
C212 C211 1.351 . S
C212 H217 0.930 . S
O213 Cu207 1.974 . S
O213 C223 1.282 . S
C214 O215 1.261 . S
C214 O227 1.251 . S
O215 C214 1.261 . S
H216 C210 0.930 . S
H217 C212 0.930 . S
N218 Cu207 1.985 . S
N218 C220 1.335 . S
N218 C221 1.390 . S
N219 C220 1.345 . S
N219 C222 1.336 . S
C220 N218 1.335 . S
C220 N219 1.345 . S
C220 H225 0.930 . S
C221 N218 1.390 . S
C221 C222 1.346 . S
C221 H226 0.930 . S
C222 N219 1.336 . S
C222 C221 1.346 . S
C222 H229 0.929 . S
C223 O213 1.282 . S
C223 O224 1.216 . S
O224 C223 1.216 . S
H225 C220 0.930 . S
H226 C221 0.930 . S
O227 Cu207 1.959 . S
O227 C214 1.251 . S
H228 C211 0.930 . S
H229 C222 0.929 . S
Cu230 N231 1.999 . S
Cu230 O236 1.974 . S
Cu230 N241 1.985 . S
Cu230 O250 1.959 . S
N231 Cu230 1.999 . S
N231 C233 1.263 . S
N231 C235 1.389 . S
N232 C233 1.358 . S
N232 C234 1.400 . S
C233 N231 1.263 . S
C233 N232 1.358 . S
C233 H239 0.930 . S
C234 N232 1.400 . S
C234 C235 1.351 . S
C234 H251 0.930 . S
C235 N231 1.389 . S
C235 C234 1.351 . S
C235 H240 0.930 . S
O236 Cu230 1.974 . S
O236 C246 1.282 . S
C237 O238 1.261 . S
C237 O250 1.251 . S
O238 C237 1.261 . S
H239 C233 0.930 . S
H240 C235 0.930 . S
N241 Cu230 1.985 . S
N241 C243 1.335 . S
N241 C244 1.390 . S
N242 C243 1.345 . S
N242 C245 1.336 . S
C243 N241 1.335 . S
C243 N242 1.345 . S
C243 H248 0.930 . S
C244 N241 1.390 . S
C244 C245 1.346 . S
C244 H249 0.930 . S
C245 N242 1.336 . S
C245 C244 1.346 . S
C245 H252 0.929 . S
C246 O236 1.282 . S
C246 O247 1.216 . S
O247 C246 1.216 . S
H248 C243 0.930 . S
H249 C244 0.930 . S
O250 Cu230 1.959 . S
O250 C237 1.251 . S
H251 C234 0.930 . S
H252 C245 0.929 . S
Cu253 N254 1.999 . S
Cu253 O259 1.974 . S
Cu253 N264 1.985 . S
Cu253 O273 1.959 . S
N254 Cu253 1.999 . S
N254 C256 1.263 . S
N254 C258 1.389 . S
N255 C256 1.358 . S
N255 C257 1.400 . S
C256 N254 1.263 . S
C256 N255 1.358 . S
C256 H262 0.930 . S
C257 N255 1.400 . S
C257 C258 1.351 . S
C257 H274 0.930 . S
C258 N254 1.389 . S
C258 C257 1.351 . S
C258 H263 0.930 . S
O259 Cu253 1.974 . S
O259 C269 1.282 . S
C260 O261 1.261 . S
C260 O273 1.251 1_554 S
O261 C260 1.261 . S
H262 C256 0.930 . S
H263 C258 0.930 . S
N264 Cu253 1.985 . S
N264 C266 1.335 . S
N264 C267 1.390 . S
N265 C266 1.345 . S
N265 C268 1.336 . S
C266 N264 1.335 . S
C266 N265 1.345 . S
C266 H271 0.930 . S
C267 N264 1.390 . S
C267 C268 1.346 . S
C267 H272 0.930 . S
C268 N265 1.336 . S
C268 C267 1.346 . S
C268 H275 0.929 . S
C269 O259 1.282 . S
C269 O270 1.216 . S
O270 C269 1.216 . S
H271 C266 0.930 . S
H272 C267 0.930 . S
O273 Cu253 1.959 . S
O273 C260 1.251 1_556 S
H274 C257 0.930 . S
H275 C268 0.929 . S
Cu276 N277 1.999 . S
Cu276 O282 1.974 . S
Cu276 N287 1.985 . S
Cu276 O296 1.959 . S
N277 Cu276 1.999 . S
N277 C279 1.263 . S
N277 C281 1.389 . S
N278 C279 1.358 . S
N278 C280 1.400 . S
C279 N277 1.263 . S
C279 N278 1.358 . S
C279 H285 0.930 . S
C280 N278 1.400 . S
C280 C281 1.351 . S
C280 H297 0.930 . S
C281 N277 1.389 . S
C281 C280 1.351 . S
C281 H286 0.930 . S
O282 Cu276 1.974 . S
O282 C292 1.282 . S
C283 O284 1.261 . S
C283 O296 1.251 . S
O284 C283 1.261 . S
H285 C279 0.930 . S
H286 C281 0.930 . S
N287 Cu276 1.985 . S
N287 C289 1.335 . S
N287 C290 1.390 . S
N288 C289 1.345 . S
N288 C291 1.336 . S
C289 N287 1.335 . S
C289 N288 1.345 . S
C289 H294 0.930 . S
C290 N287 1.390 . S
C290 C291 1.346 . S
C290 H295 0.930 . S
C291 N288 1.336 . S
C291 C290 1.346 . S
C291 H298 0.929 . S
C292 O282 1.282 . S
C292 O293 1.216 . S
O293 C292 1.216 . S
H294 C289 0.930 . S
H295 C290 0.930 . S
O296 Cu276 1.959 . S
O296 C283 1.251 . S
H297 C280 0.930 . S
H298 C291 0.929 . S
Cu299 N300 1.999 . S
Cu299 O305 1.974 . S
Cu299 N310 1.985 . S
Cu299 O319 1.959 . S
N300 Cu299 1.999 . S
N300 C302 1.263 . S
N300 C304 1.389 . S
N301 C302 1.358 . S
N301 C303 1.400 . S
C302 N300 1.263 . S
C302 N301 1.358 . S
C302 H308 0.930 . S
C303 N301 1.400 . S
C303 C304 1.351 . S
C303 H320 0.930 . S
C304 N300 1.389 . S
C304 C303 1.351 . S
C304 H309 0.930 . S
O305 Cu299 1.974 . S
O305 C315 1.282 . S
C306 O307 1.261 . S
C306 O319 1.251 . S
O307 C306 1.261 . S
H308 C302 0.930 . S
H309 C304 0.930 . S
N310 Cu299 1.985 . S
N310 C312 1.335 . S
N310 C313 1.390 . S
N311 C312 1.345 . S
N311 C314 1.336 . S
C312 N310 1.335 . S
C312 N311 1.345 . S
C312 H317 0.930 . S
C313 N310 1.390 . S
C313 C314 1.346 . S
C313 H318 0.930 . S
C314 N311 1.336 . S
C314 C313 1.346 . S
C314 H321 0.929 . S
C315 O305 1.282 . S
C315 O316 1.216 . S
O316 C315 1.216 . S
H317 C312 0.930 . S
H318 C313 0.930 . S
O319 Cu299 1.959 . S
O319 C306 1.251 . S
H320 C303 0.930 . S
H321 C314 0.929 . S
Cu322 N323 1.999 . S
Cu322 O328 1.974 . S
Cu322 N333 1.985 . S
Cu322 O342 1.959 . S
N323 Cu322 1.999 . S
N323 C325 1.263 . S
N323 C327 1.389 . S
N324 C325 1.358 . S
N324 C326 1.400 . S
C325 N323 1.263 . S
C325 N324 1.358 . S
C325 H331 0.930 . S
C326 N324 1.400 . S
C326 C327 1.351 . S
C326 H343 0.930 . S
C327 N323 1.389 . S
C327 C326 1.351 . S
C327 H332 0.930 . S
O328 Cu322 1.974 . S
O328 C338 1.282 . S
C329 O330 1.261 . S
C329 O342 1.251 . S
O330 C329 1.261 . S
H331 C325 0.930 . S
H332 C327 0.930 . S
N333 Cu322 1.985 . S
N333 C335 1.335 . S
N333 C336 1.390 . S
N334 C335 1.345 . S
N334 C337 1.336 . S
C335 N333 1.335 . S
C335 N334 1.345 . S
C335 H340 0.930 . S
C336 N333 1.390 . S
C336 C337 1.346 . S
C336 H341 0.930 . S
C337 N334 1.336 . S
C337 C336 1.346 . S
C337 H344 0.929 . S
C338 O328 1.282 . S
C338 O339 1.216 . S
O339 C338 1.216 . S
H340 C335 0.930 . S
H341 C336 0.930 . S
O342 Cu322 1.959 . S
O342 C329 1.251 . S
H343 C326 0.930 . S
H344 C337 0.929 . S
Cu345 N346 1.999 . S
Cu345 O351 1.974 . S
Cu345 N356 1.985 . S
Cu345 O365 1.959 . S
N346 Cu345 1.999 . S
N346 C348 1.263 . S
N346 C350 1.389 . S
N347 C348 1.358 . S
N347 C349 1.400 . S
C348 N346 1.263 . S
C348 N347 1.358 . S
C348 H354 0.930 . S
C349 N347 1.400 . S
C349 C350 1.351 . S
C349 H366 0.930 . S
C350 N346 1.389 . S
C350 C349 1.351 . S
C350 H355 0.930 . S
O351 Cu345 1.974 . S
O351 C361 1.282 . S
C352 O353 1.261 . S
C352 O365 1.251 1_556 S
O353 C352 1.261 . S
H354 C348 0.930 . S
H355 C350 0.930 . S
N356 Cu345 1.985 . S
N356 C358 1.335 . S
N356 C359 1.390 . S
N357 C358 1.345 . S
N357 C360 1.336 . S
C358 N356 1.335 . S
C358 N357 1.345 . S
C358 H363 0.930 . S
C359 N356 1.390 . S
C359 C360 1.346 . S
C359 H364 0.930 . S
C360 N357 1.336 . S
C360 C359 1.346 . S
C360 H367 0.929 . S
C361 O351 1.282 . S
C361 O362 1.216 . S
O362 C361 1.216 . S
H363 C358 0.930 . S
H364 C359 0.930 . S
O365 Cu345 1.959 . S
O365 C352 1.251 1_554 S
H366 C349 0.930 . S
H367 C360 0.929 . S
Cu368 N369 1.999 . S
Cu368 O374 1.974 . S
Cu368 N379 1.985 . S
Cu368 O388 1.959 . S
N369 Cu368 1.999 . S
N369 C371 1.263 . S
N369 C373 1.389 . S
N370 C371 1.358 . S
N370 C372 1.400 . S
C371 N369 1.263 . S
C371 N370 1.358 . S
C371 H377 0.930 . S
C372 N370 1.400 . S
C372 C373 1.351 . S
C372 H389 0.930 . S
C373 N369 1.389 . S
C373 C372 1.351 . S
C373 H378 0.930 . S
O374 Cu368 1.974 . S
O374 C384 1.282 . S
C375 O376 1.261 . S
C375 O388 1.251 . S
O376 C375 1.261 . S
H377 C371 0.930 . S
H378 C373 0.930 . S
N379 Cu368 1.985 . S
N379 C381 1.335 . S
N379 C382 1.390 . S
N380 C381 1.345 . S
N380 C383 1.336 . S
C381 N379 1.335 . S
C381 N380 1.345 . S
C381 H386 0.930 . S
C382 N379 1.390 . S
C382 C383 1.346 . S
C382 H387 0.930 . S
C383 N380 1.336 . S
C383 C382 1.346 . S
C383 H390 0.929 . S
C384 O374 1.282 . S
C384 O385 1.216 . S
O385 C384 1.216 . S
H386 C381 0.930 . S
H387 C382 0.930 . S
O388 Cu368 1.959 . S
O388 C375 1.251 . S
H389 C372 0.930 . S
H390 C383 0.929 . S
Cu391 N392 1.999 . S
Cu391 O397 1.974 . S
Cu391 N402 1.985 . S
Cu391 O411 1.959 . S
N392 Cu391 1.999 . S
N392 C394 1.263 1_554 S
N392 C396 1.389 1_554 S
N393 C394 1.358 . S
N393 C395 1.400 . S
C394 N392 1.263 1_556 S
C394 N393 1.358 . S
C394 H400 0.930 . S
C395 N393 1.400 . S
C395 C396 1.351 . S
C395 H412 0.930 . S
C396 N392 1.389 1_556 S
C396 C395 1.351 . S
C396 H401 0.930 . S
O397 Cu391 1.974 . S
O397 C407 1.282 . S
C398 O399 1.261 . S
C398 O411 1.251 . S
O399 C398 1.261 . S
H400 C394 0.930 . S
H401 C396 0.930 . S
N402 Cu391 1.985 . S
N402 C404 1.335 . S
N402 C405 1.390 . S
N403 C404 1.345 . S
N403 C406 1.336 . S
C404 N402 1.335 . S
C404 N403 1.345 . S
C404 H409 0.930 . S
C405 N402 1.390 . S
C405 C406 1.346 . S
C405 H410 0.930 . S
C406 N403 1.336 . S
C406 C405 1.346 . S
C406 H413 0.929 . S
C407 O397 1.282 . S
C407 O408 1.216 . S
O408 C407 1.216 . S
H409 C404 0.930 . S
H410 C405 0.930 . S
O411 Cu391 1.959 . S
O411 C398 1.251 . S
H412 C395 0.930 . S
H413 C406 0.929 . S
Cu414 N415 1.999 . S
Cu414 O420 1.974 . S
Cu414 N425 1.985 . S
Cu414 O434 1.959 . S
N415 Cu414 1.999 . S
N415 C417 1.263 . S
N415 C419 1.389 . S
N416 C417 1.358 . S
N416 C418 1.400 . S
C417 N415 1.263 . S
C417 N416 1.358 . S
C417 H423 0.930 . S
C418 N416 1.400 . S
C418 C419 1.351 . S
C418 H435 0.930 . S
C419 N415 1.389 . S
C419 C418 1.351 . S
C419 H424 0.930 . S
O420 Cu414 1.974 . S
O420 C430 1.282 . S
C421 O422 1.261 . S
C421 O434 1.251 . S
O422 C421 1.261 . S
H423 C417 0.930 . S
H424 C419 0.930 . S
N425 Cu414 1.985 . S
N425 C427 1.335 . S
N425 C428 1.390 . S
N426 C427 1.345 . S
N426 C429 1.336 . S
C427 N425 1.335 . S
C427 N426 1.345 . S
C427 H432 0.930 . S
C428 N425 1.390 . S
C428 C429 1.346 . S
C428 H433 0.930 . S
C429 N426 1.336 . S
C429 C428 1.346 . S
C429 H436 0.929 . S
C430 O420 1.282 . S
C430 O431 1.216 . S
O431 C430 1.216 . S
H432 C427 0.930 . S
H433 C428 0.930 . S
O434 Cu414 1.959 . S
O434 C421 1.251 . S
H435 C418 0.930 . S
H436 C429 0.929 . S
Cu437 N438 1.999 . S
Cu437 O443 1.974 . S
Cu437 N448 1.985 . S
Cu437 O457 1.959 . S
N438 Cu437 1.999 . S
N438 C440 1.263 . S
N438 C442 1.389 . S
N439 C440 1.358 . S
N439 C441 1.400 . S
C440 N438 1.263 . S
C440 N439 1.358 . S
C440 H446 0.930 . S
C441 N439 1.400 . S
C441 C442 1.351 . S
C441 H458 0.930 . S
C442 N438 1.389 . S
C442 C441 1.351 . S
C442 H447 0.930 . S
O443 Cu437 1.974 . S
O443 C453 1.282 . S
C444 O445 1.261 . S
C444 O457 1.251 . S
O445 C444 1.261 . S
H446 C440 0.930 . S
H447 C442 0.930 . S
N448 Cu437 1.985 . S
N448 C450 1.335 . S
N448 C451 1.390 . S
N449 C450 1.345 . S
N449 C452 1.336 . S
C450 N448 1.335 . S
C450 N449 1.345 . S
C450 H455 0.930 . S
C451 N448 1.390 . S
C451 C452 1.346 . S
C451 H456 0.930 . S
C452 N449 1.336 . S
C452 C451 1.346 . S
C452 H459 0.929 . S
C453 O443 1.282 . S
C453 O454 1.216 . S
O454 C453 1.216 . S
H455 C450 0.930 . S
H456 C451 0.930 . S
O457 Cu437 1.959 . S
O457 C444 1.251 . S
H458 C441 0.930 . S
H459 C452 0.929 . S
Cu460 N461 1.999 . S
Cu460 O466 1.974 . S
Cu460 N471 1.985 . S
Cu460 O480 1.959 . S
N461 Cu460 1.999 . S
N461 C463 1.263 . S
N461 C465 1.389 . S
N462 C463 1.358 . S
N462 C464 1.400 . S
C463 N461 1.263 . S
C463 N462 1.358 . S
C463 H469 0.930 . S
C464 N462 1.400 . S
C464 C465 1.351 . S
C464 H481 0.930 . S
C465 N461 1.389 . S
C465 C464 1.351 . S
C465 H470 0.930 . S
O466 Cu460 1.974 . S
O466 C476 1.282 . S
C467 O468 1.261 . S
C467 O480 1.251 . S
O468 C467 1.261 . S
H469 C463 0.930 . S
H470 C465 0.930 . S
N471 Cu460 1.985 . S
N471 C473 1.335 . S
N471 C474 1.390 . S
N472 C473 1.345 . S
N472 C475 1.336 . S
C473 N471 1.335 . S
C473 N472 1.345 . S
C473 H478 0.930 . S
C474 N471 1.390 . S
C474 C475 1.346 . S
C474 H479 0.930 . S
C475 N472 1.336 . S
C475 C474 1.346 . S
C475 H482 0.929 . S
C476 O466 1.282 . S
C476 O477 1.216 . S
O477 C476 1.216 . S
H478 C473 0.930 . S
H479 C474 0.930 . S
O480 Cu460 1.959 . S
O480 C467 1.251 . S
H481 C464 0.930 . S
H482 C475 0.929 . S
Cu483 N484 1.999 . S
Cu483 O489 1.974 . S
Cu483 N494 1.985 . S
Cu483 O503 1.959 . S
N484 Cu483 1.999 . S
N484 C486 1.263 1_556 S
N484 C488 1.389 1_556 S
N485 C486 1.358 . S
N485 C487 1.400 . S
C486 N484 1.263 1_554 S
C486 N485 1.358 . S
C486 H492 0.930 . S
C487 N485 1.400 . S
C487 C488 1.351 . S
C487 H504 0.930 . S
C488 N484 1.389 1_554 S
C488 C487 1.351 . S
C488 H493 0.930 . S
O489 Cu483 1.974 . S
O489 C499 1.282 . S
C490 O491 1.261 . S
C490 O503 1.251 . S
O491 C490 1.261 . S
H492 C486 0.930 . S
H493 C488 0.930 . S
N494 Cu483 1.985 . S
N494 C496 1.335 . S
N494 C497 1.390 . S
N495 C496 1.345 . S
N495 C498 1.336 . S
C496 N494 1.335 . S
C496 N495 1.345 . S
C496 H501 0.930 . S
C497 N494 1.390 . S
C497 C498 1.346 . S
C497 H502 0.930 . S
C498 N495 1.336 . S
C498 C497 1.346 . S
C498 H505 0.929 . S
C499 O489 1.282 . S
C499 O500 1.216 . S
O500 C499 1.216 . S
H501 C496 0.930 . S
H502 C497 0.930 . S
O503 Cu483 1.959 . S
O503 C490 1.251 . S
H504 C487 0.930 . S
H505 C498 0.929 . S
Cu506 N507 1.999 . S
Cu506 O512 1.974 . S
Cu506 N517 1.985 . S
Cu506 O526 1.959 . S
N507 Cu506 1.999 . S
N507 C509 1.263 . S
N507 C511 1.389 . S
N508 C509 1.358 . S
N508 C510 1.400 . S
C509 N507 1.263 . S
C509 N508 1.358 . S
C509 H515 0.930 . S
C510 N508 1.400 . S
C510 C511 1.351 . S
C510 H527 0.930 . S
C511 N507 1.389 . S
C511 C510 1.351 . S
C511 H516 0.930 . S
O512 Cu506 1.974 . S
O512 C522 1.282 . S
C513 O514 1.261 . S
C513 O526 1.251 . S
O514 C513 1.261 . S
H515 C509 0.930 . S
H516 C511 0.930 . S
N517 Cu506 1.985 . S
N517 C519 1.335 . S
N517 C520 1.390 . S
N518 C519 1.345 . S
N518 C521 1.336 . S
C519 N517 1.335 . S
C519 N518 1.345 . S
C519 H524 0.930 . S
C520 N517 1.390 . S
C520 C521 1.346 . S
C520 H525 0.930 . S
C521 N518 1.336 . S
C521 C520 1.346 . S
C521 H528 0.929 . S
C522 O512 1.282 . S
C522 O523 1.216 . S
O523 C522 1.216 . S
H524 C519 0.930 . S
H525 C520 0.930 . S
O526 Cu506 1.959 . S
O526 C513 1.251 . S
H527 C510 0.930 . S
H528 C521 0.929 . S
Cu529 N530 1.999 . S
Cu529 O535 1.974 . S
Cu529 N540 1.985 . S
Cu529 O549 1.959 . S
N530 Cu529 1.999 . S
N530 C532 1.263 . S
N530 C534 1.389 . S
N531 C532 1.358 . S
N531 C533 1.400 . S
C532 N530 1.263 . S
C532 N531 1.358 . S
C532 H538 0.930 . S
C533 N531 1.400 . S
C533 C534 1.351 . S
C533 H550 0.930 . S
C534 N530 1.389 . S
C534 C533 1.351 . S
C534 H539 0.930 . S
O535 Cu529 1.974 . S
O535 C545 1.282 . S
C536 O537 1.261 . S
C536 O549 1.251 . S
O537 C536 1.261 . S
H538 C532 0.930 . S
H539 C534 0.930 . S
N540 Cu529 1.985 . S
N540 C542 1.335 . S
N540 C543 1.390 . S
N541 C542 1.345 . S
N541 C544 1.336 . S
C542 N540 1.335 . S
C542 N541 1.345 . S
C542 H547 0.930 . S
C543 N540 1.390 . S
C543 C544 1.346 . S
C543 H548 0.930 . S
C544 N541 1.336 . S
C544 C543 1.346 . S
C544 H551 0.929 . S
C545 O535 1.282 . S
C545 O546 1.216 . S
O546 C545 1.216 . S
H547 C542 0.930 . S
H548 C543 0.930 . S
O549 Cu529 1.959 . S
O549 C536 1.251 . S
H550 C533 0.930 . S
H551 C544 0.929 . S
Cu552 N553 1.999 . S
Cu552 O558 1.974 . S
Cu552 N563 1.985 . S
Cu552 O572 1.959 . S
N553 Cu552 1.999 . S
N553 C555 1.263 . S
N553 C557 1.389 . S
N554 C555 1.358 . S
N554 C556 1.400 . S
C555 N553 1.263 . S
C555 N554 1.358 . S
C555 H561 0.930 . S
C556 N554 1.400 . S
C556 C557 1.351 . S
C556 H573 0.930 . S
C557 N553 1.389 . S
C557 C556 1.351 . S
C557 H562 0.930 . S
O558 Cu552 1.974 . S
O558 C568 1.282 . S
C559 O560 1.261 . S
C559 O572 1.251 . S
O560 C559 1.261 . S
H561 C555 0.930 . S
H562 C557 0.930 . S
N563 Cu552 1.985 . S
N563 C565 1.335 . S
N563 C566 1.390 . S
N564 C565 1.345 . S
N564 C567 1.336 . S
C565 N563 1.335 . S
C565 N564 1.345 . S
C565 H570 0.930 . S
C566 N563 1.390 . S
C566 C567 1.346 . S
C566 H571 0.930 . S
C567 N564 1.336 . S
C567 C566 1.346 . S
C567 H574 0.929 . S
C568 O558 1.282 . S
C568 O569 1.216 . S
O569 C568 1.216 . S
H570 C565 0.930 . S
H571 C566 0.930 . S
O572 Cu552 1.959 . S
O572 C559 1.251 . S
H573 C556 0.930 . S
H574 C567 0.929 . S
Cu575 N576 1.999 . S
Cu575 O581 1.974 . S
Cu575 N586 1.985 . S
Cu575 O595 1.959 . S
N576 Cu575 1.999 . S
N576 C578 1.263 . S
N576 C580 1.389 . S
N577 C578 1.358 . S
N577 C579 1.400 . S
C578 N576 1.263 . S
C578 N577 1.358 . S
C578 H584 0.930 . S
C579 N577 1.400 . S
C579 C580 1.351 . S
C579 H596 0.930 . S
C580 N576 1.389 . S
C580 C579 1.351 . S
C580 H585 0.930 . S
O581 Cu575 1.974 . S
O581 C591 1.282 . S
C582 O583 1.261 . S
C582 O595 1.251 1_554 S
O583 C582 1.261 . S
H584 C578 0.930 . S
H585 C580 0.930 . S
N586 Cu575 1.985 . S
N586 C588 1.335 . S
N586 C589 1.390 . S
N587 C588 1.345 . S
N587 C590 1.336 . S
C588 N586 1.335 . S
C588 N587 1.345 . S
C588 H593 0.930 . S
C589 N586 1.390 . S
C589 C590 1.346 . S
C589 H594 0.930 . S
C590 N587 1.336 . S
C590 C589 1.346 . S
C590 H597 0.929 . S
C591 O581 1.282 . S
C591 O592 1.216 . S
O592 C591 1.216 . S
H593 C588 0.930 . S
H594 C589 0.930 . S
O595 Cu575 1.959 . S
O595 C582 1.251 1_556 S
H596 C579 0.930 . S
H597 C590 0.929 . S
Cu598 N599 1.999 . S
Cu598 O604 1.974 . S
Cu598 N609 1.985 . S
Cu598 O618 1.959 . S
N599 Cu598 1.999 . S
N599 C601 1.263 . S
N599 C603 1.389 . S
N600 C601 1.358 . S
N600 C602 1.400 . S
C601 N599 1.263 . S
C601 N600 1.358 . S
C601 H607 0.930 . S
C602 N600 1.400 . S
C602 C603 1.351 . S
C602 H619 0.930 . S
C603 N599 1.389 . S
C603 C602 1.351 . S
C603 H608 0.930 . S
O604 Cu598 1.974 . S
O604 C614 1.282 . S
C605 O606 1.261 . S
C605 O618 1.251 . S
O606 C605 1.261 . S
H607 C601 0.930 . S
H608 C603 0.930 . S
N609 Cu598 1.985 . S
N609 C611 1.335 . S
N609 C612 1.390 . S
N610 C611 1.345 . S
N610 C613 1.336 . S
C611 N609 1.335 . S
C611 N610 1.345 . S
C611 H616 0.930 . S
C612 N609 1.390 . S
C612 C613 1.346 . S
C612 H617 0.930 . S
C613 N610 1.336 . S
C613 C612 1.346 . S
C613 H620 0.929 . S
C614 O604 1.282 . S
C614 O615 1.216 . S
O615 C614 1.216 . S
H616 C611 0.930 . S
H617 C612 0.930 . S
O618 Cu598 1.959 . S
O618 C605 1.251 . S
H619 C602 0.930 . S
H620 C613 0.929 . S
Cu621 N622 1.999 . S
Cu621 O627 1.974 . S
Cu621 N632 1.985 . S
Cu621 O641 1.959 . S
N622 Cu621 1.999 . S
N622 C624 1.263 . S
N622 C626 1.389 . S
N623 C624 1.358 . S
N623 C625 1.400 . S
C624 N622 1.263 . S
C624 N623 1.358 . S
C624 H630 0.930 . S
C625 N623 1.400 . S
C625 C626 1.351 . S
C625 H642 0.930 . S
C626 N622 1.389 . S
C626 C625 1.351 . S
C626 H631 0.930 . S
O627 Cu621 1.974 . S
O627 C637 1.282 . S
C628 O629 1.261 . S
C628 O641 1.251 . S
O629 C628 1.261 . S
H630 C624 0.930 . S
H631 C626 0.930 . S
N632 Cu621 1.985 . S
N632 C634 1.335 . S
N632 C635 1.390 . S
N633 C634 1.345 . S
N633 C636 1.336 . S
C634 N632 1.335 . S
C634 N633 1.345 . S
C634 H639 0.930 . S
C635 N632 1.390 . S
C635 C636 1.346 . S
C635 H640 0.930 . S
C636 N633 1.336 . S
C636 C635 1.346 . S
C636 H643 0.929 . S
C637 O627 1.282 . S
C637 O638 1.216 . S
O638 C637 1.216 . S
H639 C634 0.930 . S
H640 C635 0.930 . S
O641 Cu621 1.959 . S
O641 C628 1.251 . S
H642 C625 0.930 . S
H643 C636 0.929 . S
Cu644 N645 1.999 . S
Cu644 O650 1.974 . S
Cu644 N655 1.985 . S
Cu644 O664 1.959 . S
N645 Cu644 1.999 . S
N645 C647 1.263 . S
N645 C649 1.389 . S
N646 C647 1.358 . S
N646 C648 1.400 . S
C647 N645 1.263 . S
C647 N646 1.358 . S
C647 H653 0.930 . S
C648 N646 1.400 . S
C648 C649 1.351 . S
C648 H665 0.930 . S
C649 N645 1.389 . S
C649 C648 1.351 . S
C649 H654 0.930 . S
O650 Cu644 1.974 . S
O650 C660 1.282 . S
C651 O652 1.261 . S
C651 O664 1.251 . S
O652 C651 1.261 . S
H653 C647 0.930 . S
H654 C649 0.930 . S
N655 Cu644 1.985 . S
N655 C657 1.335 . S
N655 C658 1.390 . S
N656 C657 1.345 . S
N656 C659 1.336 . S
C657 N655 1.335 . S
C657 N656 1.345 . S
C657 H662 0.930 . S
C658 N655 1.390 . S
C658 C659 1.346 . S
C658 H663 0.930 . S
C659 N656 1.336 . S
C659 C658 1.346 . S
C659 H666 0.929 . S
C660 O650 1.282 . S
C660 O661 1.216 . S
O661 C660 1.216 . S
H662 C657 0.930 . S
H663 C658 0.930 . S
O664 Cu644 1.959 . S
O664 C651 1.251 . S
H665 C648 0.930 . S
H666 C659 0.929 . S
Cu667 N668 1.999 . S
Cu667 O673 1.974 . S
Cu667 N678 1.985 . S
Cu667 O687 1.959 . S
N668 Cu667 1.999 . S
N668 C670 1.263 . S
N668 C672 1.389 . S
N669 C670 1.358 . S
N669 C671 1.400 . S
C670 N668 1.263 . S
C670 N669 1.358 . S
C670 H676 0.930 . S
C671 N669 1.400 . S
C671 C672 1.351 . S
C671 H688 0.930 . S
C672 N668 1.389 . S
C672 C671 1.351 . S
C672 H677 0.930 . S
O673 Cu667 1.974 . S
O673 C683 1.282 . S
C674 O675 1.261 . S
C674 O687 1.251 1_556 S
O675 C674 1.261 . S
H676 C670 0.930 . S
H677 C672 0.930 . S
N678 Cu667 1.985 . S
N678 C680 1.335 . S
N678 C681 1.390 . S
N679 C680 1.345 . S
N679 C682 1.336 . S
C680 N678 1.335 . S
C680 N679 1.345 . S
C680 H685 0.930 . S
C681 N678 1.390 . S
C681 C682 1.346 . S
C681 H686 0.930 . S
C682 N679 1.336 . S
C682 C681 1.346 . S
C682 H689 0.929 . S
C683 O673 1.282 . S
C683 O684 1.216 . S
O684 C683 1.216 . S
H685 C680 0.930 . S
H686 C681 0.930 . S
O687 Cu667 1.959 . S
O687 C674 1.251 1_554 S
H688 C671 0.930 . S
H689 C682 0.929 . S
Cu690 N691 1.999 . S
Cu690 O696 1.974 . S
Cu690 N701 1.985 . S
Cu690 O710 1.959 . S
N691 Cu690 1.999 . S
N691 C693 1.263 . S
N691 C695 1.389 . S
N692 C693 1.358 . S
N692 C694 1.400 . S
C693 N691 1.263 . S
C693 N692 1.358 . S
C693 H699 0.930 . S
C694 N692 1.400 . S
C694 C695 1.351 . S
C694 H711 0.930 . S
C695 N691 1.389 . S
C695 C694 1.351 . S
C695 H700 0.930 . S
O696 Cu690 1.974 . S
O696 C706 1.282 . S
C697 O698 1.261 . S
C697 O710 1.251 . S
O698 C697 1.261 . S
H699 C693 0.930 . S
H700 C695 0.930 . S
N701 Cu690 1.985 . S
N701 C703 1.335 . S
N701 C704 1.390 . S
N702 C703 1.345 . S
N702 C705 1.336 . S
C703 N701 1.335 . S
C703 N702 1.345 . S
C703 H708 0.930 . S
C704 N701 1.390 . S
C704 C705 1.346 . S
C704 H709 0.930 . S
C705 N702 1.336 . S
C705 C704 1.346 . S
C705 H712 0.929 . S
C706 O696 1.282 . S
C706 O707 1.216 . S
O707 C706 1.216 . S
H708 C703 0.930 . S
H709 C704 0.930 . S
O710 Cu690 1.959 . S
O710 C697 1.251 . S
H711 C694 0.930 . S
H712 C705 0.929 . S
Cu713 N714 1.999 . S
Cu713 O719 1.974 . S
Cu713 N724 1.985 . S
Cu713 O733 1.959 . S
N714 Cu713 1.999 . S
N714 C716 1.263 . S
N714 C718 1.389 . S
N715 C716 1.358 . S
N715 C717 1.400 . S
C716 N714 1.263 . S
C716 N715 1.358 . S
C716 H722 0.930 . S
C717 N715 1.400 . S
C717 C718 1.351 . S
C717 H734 0.930 . S
C718 N714 1.389 . S
C718 C717 1.351 . S
C718 H723 0.930 . S
O719 Cu713 1.974 . S
O719 C729 1.282 . S
C720 O721 1.261 . S
C720 O733 1.251 . S
O721 C720 1.261 . S
H722 C716 0.930 . S
H723 C718 0.930 . S
N724 Cu713 1.985 . S
N724 C726 1.335 . S
N724 C727 1.390 . S
N725 C726 1.345 . S
N725 C728 1.336 . S
C726 N724 1.335 . S
C726 N725 1.345 . S
C726 H731 0.930 . S
C727 N724 1.390 . S
C727 C728 1.346 . S
C727 H732 0.930 . S
C728 N725 1.336 . S
C728 C727 1.346 . S
C728 H735 0.929 . S
C729 O719 1.282 . S
C729 O730 1.216 . S
O730 C729 1.216 . S
H731 C726 0.930 . S
H732 C727 0.930 . S
O733 Cu713 1.959 . S
O733 C720 1.251 . S
H734 C717 0.930 . S
H735 C728 0.929 . S
H736 C742 0.930 . S
H737 C746 0.930 . S
H738 C751 0.929 . S
H739 C749 0.929 . S
H740 C744 0.929 . S
H741 C750 0.929 . S
C742 H736 0.930 . S
C742 C743 1.367 . S
C742 C750 1.378 . S
C743 C742 1.367 . S
C743 C751 1.433 . S
C744 H740 0.929 . S
C744 C746 1.378 . S
C744 C748 1.350 . S
C745 C748 1.463 . S
C745 C750 1.350 . S
C745 N753 1.427 . S
C746 H737 0.930 . S
C746 C744 1.378 . S
C746 C747 1.367 . S
C747 C746 1.367 . S
C747 C749 1.433 . S
C748 C744 1.350 . S
C748 C745 1.463 . S
C748 N752 1.427 . S
C749 H739 0.929 . S
C749 C747 1.433 . S
C749 N752 1.384 . S
C750 H741 0.929 . S
C750 C742 1.378 . S
C750 C745 1.350 . S
C751 H738 0.929 . S
C751 C743 1.433 . S
C751 N753 1.384 . S
N752 C748 1.427 . S
N752 C749 1.384 . S
N753 C745 1.427 . S
N753 C751 1.384 . S
H754 C760 0.930 . S
H755 C764 0.930 . S
H756 C769 0.929 . S
H757 C767 0.929 . S
H758 C762 0.929 . S
H759 C768 0.929 . S
C760 H754 0.930 . S
C760 C761 1.367 . S
C760 C768 1.378 . S
C761 C760 1.367 . S
C761 C769 1.433 . S
C762 H758 0.929 . S
C762 C764 1.378 . S
C762 C766 1.350 . S
C763 C766 1.463 . S
C763 C768 1.350 . S
C763 N771 1.427 . S
C764 H755 0.930 . S
C764 C762 1.378 . S
C764 C765 1.367 . S
C765 C764 1.367 . S
C765 C767 1.433 . S
C766 C762 1.350 . S
C766 C763 1.463 . S
C766 N770 1.427 . S
C767 H757 0.929 . S
C767 C765 1.433 . S
C767 N770 1.384 . S
C768 H759 0.929 . S
C768 C760 1.378 . S
C768 C763 1.350 . S
C769 H756 0.929 . S
C769 C761 1.433 . S
C769 N771 1.384 . S
N770 C766 1.427 . S
N770 C767 1.384 . S
N771 C763 1.427 . S
N771 C769 1.384 . S
H772 C778 0.930 . S
H773 C782 0.930 . S
H774 C787 0.929 . S
H775 C785 0.929 . S
H776 C780 0.929 . S
H777 C786 0.929 . S
C778 H772 0.930 . S
C778 C779 1.367 . S
C778 C786 1.378 . S
C779 C778 1.367 . S
C779 C787 1.433 . S
C780 H776 0.929 . S
C780 C782 1.378 . S
C780 C784 1.350 . S
C781 C784 1.463 . S
C781 C786 1.350 . S
C781 N789 1.427 . S
C782 H773 0.930 . S
C782 C780 1.378 . S
C782 C783 1.367 . S
C783 C782 1.367 . S
C783 C785 1.433 . S
C784 C780 1.350 . S
C784 C781 1.463 . S
C784 N788 1.427 . S
C785 H775 0.929 . S
C785 C783 1.433 . S
C785 N788 1.384 . S
C786 H777 0.929 . S
C786 C778 1.378 . S
C786 C781 1.350 . S
C787 H774 0.929 . S
C787 C779 1.433 . S
C787 N789 1.384 . S
N788 C784 1.427 . S
N788 C785 1.384 . S
N789 C781 1.427 . S
N789 C787 1.384 . S
H790 C796 0.930 . S
H791 C800 0.930 . S
H792 C805 0.929 . S
H793 C803 0.929 . S
H794 C798 0.929 . S
H795 C804 0.929 . S
C796 H790 0.930 . S
C796 C797 1.367 . S
C796 C804 1.378 . S
C797 C796 1.367 . S
C797 C805 1.433 . S
C798 H794 0.929 . S
C798 C800 1.378 . S
C798 C802 1.350 . S
C799 C802 1.463 . S
C799 C804 1.350 . S
C799 N807 1.427 . S
C800 H791 0.930 . S
C800 C798 1.378 . S
C800 C801 1.367 . S
C801 C800 1.367 . S
C801 C803 1.433 . S
C802 C798 1.350 . S
C802 C799 1.463 . S
C802 N806 1.427 . S
C803 H793 0.929 . S
C803 C801 1.433 . S
C803 N806 1.384 . S
C804 H795 0.929 . S
C804 C796 1.378 . S
C804 C799 1.350 . S
C805 H792 0.929 . S
C805 C797 1.433 . S
C805 N807 1.384 . S
N806 C802 1.427 . S
N806 C803 1.384 . S
N807 C799 1.427 . S
N807 C805 1.384 . S
H808 C814 0.930 . S
H809 C818 0.930 . S
H810 C823 0.929 . S
H811 C821 0.929 . S
H812 C816 0.929 . S
H813 C822 0.929 . S
C814 H808 0.930 . S
C814 C815 1.367 . S
C814 C822 1.378 . S
C815 C814 1.367 . S
C815 C823 1.433 . S
C816 H812 0.929 . S
C816 C818 1.378 . S
C816 C820 1.350 . S
C817 C820 1.463 . S
C817 C822 1.350 . S
C817 N825 1.427 . S
C818 H809 0.930 . S
C818 C816 1.378 . S
C818 C819 1.367 . S
C819 C818 1.367 . S
C819 C821 1.433 . S
C820 C816 1.350 . S
C820 C817 1.463 . S
C820 N824 1.427 . S
C821 H811 0.929 . S
C821 C819 1.433 . S
C821 N824 1.384 . S
C822 H813 0.929 . S
C822 C814 1.378 . S
C822 C817 1.350 . S
C823 H810 0.929 . S
C823 C815 1.433 . S
C823 N825 1.384 . S
N824 C820 1.427 . S
N824 C821 1.384 . S
N825 C817 1.427 . S
N825 C823 1.384 . S
H826 C832 0.930 . S
H827 C836 0.930 . S
H828 C841 0.929 . S
H829 C839 0.929 . S
H830 C834 0.929 . S
H831 C840 0.929 . S
C832 H826 0.930 . S
C832 C833 1.367 . S
C832 C840 1.378 . S
C833 C832 1.367 . S
C833 C841 1.433 . S
C834 H830 0.929 . S
C834 C836 1.378 . S
C834 C838 1.350 . S
C835 C838 1.463 . S
C835 C840 1.350 . S
C835 N843 1.427 . S
C836 H827 0.930 . S
C836 C834 1.378 . S
C836 C837 1.367 . S
C837 C836 1.367 . S
C837 C839 1.433 . S
C838 C834 1.350 . S
C838 C835 1.463 . S
C838 N842 1.427 . S
C839 H829 0.929 . S
C839 C837 1.433 . S
C839 N842 1.384 . S
C840 H831 0.929 . S
C840 C832 1.378 . S
C840 C835 1.350 . S
C841 H828 0.929 . S
C841 C833 1.433 . S
C841 N843 1.384 . S
N842 C838 1.427 . S
N842 C839 1.384 . S
N843 C835 1.427 . S
N843 C841 1.384 . S
H844 C850 0.930 . S
H845 C854 0.930 . S
H846 C859 0.929 . S
H847 C857 0.929 . S
H848 C852 0.929 . S
H849 C858 0.929 . S
C850 H844 0.930 . S
C850 C851 1.367 . S
C850 C858 1.378 . S
C851 C850 1.367 . S
C851 C859 1.433 . S
C852 H848 0.929 . S
C852 C854 1.378 . S
C852 C856 1.350 . S
C853 C856 1.463 . S
C853 C858 1.350 . S
C853 N861 1.427 . S
C854 H845 0.930 . S
C854 C852 1.378 . S
C854 C855 1.367 . S
C855 C854 1.367 . S
C855 C857 1.433 . S
C856 C852 1.350 . S
C856 C853 1.463 . S
C856 N860 1.427 . S
C857 H847 0.929 . S
C857 C855 1.433 . S
C857 N860 1.384 . S
C858 H849 0.929 . S
C858 C850 1.378 . S
C858 C853 1.350 . S
C859 H846 0.929 . S
C859 C851 1.433 . S
C859 N861 1.384 . S
N860 C856 1.427 . S
N860 C857 1.384 . S
N861 C853 1.427 . S
N861 C859 1.384 . S
H862 C868 0.930 . S
H863 C872 0.930 . S
H864 C877 0.929 . S
H865 C875 0.929 . S
H866 C870 0.929 . S
H867 C876 0.929 . S
C868 H862 0.930 . S
C868 C869 1.367 . S
C868 C876 1.378 . S
C869 C868 1.367 . S
C869 C877 1.433 . S
C870 H866 0.929 . S
C870 C872 1.378 . S
C870 C874 1.350 . S
C871 C874 1.463 . S
C871 C876 1.350 . S
C871 N879 1.427 . S
C872 H863 0.930 . S
C872 C870 1.378 . S
C872 C873 1.367 . S
C873 C872 1.367 . S
C873 C875 1.433 . S
C874 C870 1.350 . S
C874 C871 1.463 . S
C874 N878 1.427 . S
C875 H865 0.929 . S
C875 C873 1.433 . S
C875 N878 1.384 . S
C876 H867 0.929 . S
C876 C868 1.378 . S
C876 C871 1.350 . S
C877 H864 0.929 . S
C877 C869 1.433 . S
C877 N879 1.384 . S
N878 C874 1.427 . S
N878 C875 1.384 . S
N879 C871 1.427 . S
N879 C877 1.384 . S
H880 C886 0.930 . S
H881 C890 0.930 . S
H882 C895 0.929 . S
H883 C893 0.929 . S
H884 C888 0.929 . S
H885 C894 0.929 . S
C886 H880 0.930 . S
C886 C887 1.367 . S
C886 C894 1.378 . S
C887 C886 1.367 . S
C887 C895 1.433 . S
C888 H884 0.929 . S
C888 C890 1.378 . S
C888 C892 1.350 . S
C889 C892 1.463 . S
C889 C894 1.350 . S
C889 N897 1.427 . S
C890 H881 0.930 . S
C890 C888 1.378 . S
C890 C891 1.367 . S
C891 C890 1.367 . S
C891 C893 1.433 . S
C892 C888 1.350 . S
C892 C889 1.463 . S
C892 N896 1.427 . S
C893 H883 0.929 . S
C893 C891 1.433 . S
C893 N896 1.384 . S
C894 H885 0.929 . S
C894 C886 1.378 . S
C894 C889 1.350 . S
C895 H882 0.929 . S
C895 C887 1.433 . S
C895 N897 1.384 . S
N896 C892 1.427 . S
N896 C893 1.384 . S
N897 C889 1.427 . S
N897 C895 1.384 . S
H898 C904 0.930 . S
H899 C908 0.930 . S
H900 C913 0.929 . S
H901 C911 0.929 . S
H902 C906 0.929 . S
H903 C912 0.929 . S
C904 H898 0.930 . S
C904 C905 1.367 . S
C904 C912 1.378 . S
C905 C904 1.367 . S
C905 C913 1.433 . S
C906 H902 0.929 . S
C906 C908 1.378 . S
C906 C910 1.350 . S
C907 C910 1.463 . S
C907 C912 1.350 . S
C907 N915 1.427 . S
C908 H899 0.930 . S
C908 C906 1.378 . S
C908 C909 1.367 . S
C909 C908 1.367 . S
C909 C911 1.433 . S
C910 C906 1.350 . S
C910 C907 1.463 . S
C910 N914 1.427 . S
C911 H901 0.929 . S
C911 C909 1.433 . S
C911 N914 1.384 . S
C912 H903 0.929 . S
C912 C904 1.378 . S
C912 C907 1.350 . S
C913 H900 0.929 . S
C913 C905 1.433 . S
C913 N915 1.384 . S
N914 C910 1.427 . S
N914 C911 1.384 . S
N915 C907 1.427 . S
N915 C913 1.384 . S
H916 C922 0.930 . S
H917 C926 0.930 . S
H918 C931 0.929 . S
H919 C929 0.929 . S
H920 C924 0.929 . S
H921 C930 0.929 . S
C922 H916 0.930 . S
C922 C923 1.367 . S
C922 C930 1.378 . S
C923 C922 1.367 . S
C923 C931 1.433 . S
C924 H920 0.929 . S
C924 C926 1.378 . S
C924 C928 1.350 . S
C925 C928 1.463 . S
C925 C930 1.350 . S
C925 N933 1.427 . S
C926 H917 0.930 . S
C926 C924 1.378 . S
C926 C927 1.367 . S
C927 C926 1.367 . S
C927 C929 1.433 . S
C928 C924 1.350 . S
C928 C925 1.463 . S
C928 N932 1.427 . S
C929 H919 0.929 . S
C929 C927 1.433 . S
C929 N932 1.384 . S
C930 H921 0.929 . S
C930 C922 1.378 . S
C930 C925 1.350 . S
C931 H918 0.929 . S
C931 C923 1.433 . S
C931 N933 1.384 . S
N932 C928 1.427 . S
N932 C929 1.384 . S
N933 C925 1.427 . S
N933 C931 1.384 . S
H934 C940 0.930 . S
H935 C944 0.930 . S
H936 C949 0.929 . S
H937 C947 0.929 . S
H938 C942 0.929 . S
H939 C948 0.929 . S
C940 H934 0.930 . S
C940 C941 1.367 . S
C940 C948 1.378 . S
C941 C940 1.367 . S
C941 C949 1.433 . S
C942 H938 0.929 . S
C942 C944 1.378 . S
C942 C946 1.350 . S
C943 C946 1.463 . S
C943 C948 1.350 . S
C943 N951 1.427 . S
C944 H935 0.930 . S
C944 C942 1.378 . S
C944 C945 1.367 . S
C945 C944 1.367 . S
C945 C947 1.433 . S
C946 C942 1.350 . S
C946 C943 1.463 . S
C946 N950 1.427 . S
C947 H937 0.929 . S
C947 C945 1.433 . S
C947 N950 1.384 . S
C948 H939 0.929 . S
C948 C940 1.378 . S
C948 C943 1.350 . S
C949 H936 0.929 . S
C949 C941 1.433 . S
C949 N951 1.384 . S
N950 C946 1.427 . S
N950 C947 1.384 . S
N951 C943 1.427 . S
N951 C949 1.384 . S
H952 C958 0.930 . S
H953 C962 0.930 . S
H954 C967 0.929 . S
H955 C965 0.929 . S
H956 C960 0.929 . S
H957 C966 0.929 . S
C958 H952 0.930 . S
C958 C959 1.367 . S
C958 C966 1.378 . S
C959 C958 1.367 . S
C959 C967 1.433 . S
C960 H956 0.929 . S
C960 C962 1.378 . S
C960 C964 1.350 . S
C961 C964 1.463 . S
C961 C966 1.350 . S
C961 N969 1.427 . S
C962 H953 0.930 . S
C962 C960 1.378 . S
C962 C963 1.367 . S
C963 C962 1.367 . S
C963 C965 1.433 . S
C964 C960 1.350 . S
C964 C961 1.463 . S
C964 N968 1.427 . S
C965 H955 0.929 . S
C965 C963 1.433 . S
C965 N968 1.384 . S
C966 H957 0.929 . S
C966 C958 1.378 . S
C966 C961 1.350 . S
C967 H954 0.929 . S
C967 C959 1.433 . S
C967 N969 1.384 . S
N968 C964 1.427 . S
N968 C965 1.384 . S
N969 C961 1.427 . S
N969 C967 1.384 . S
H970 C976 0.930 . S
H971 C980 0.930 . S
H972 C985 0.929 . S
H973 C983 0.929 . S
H974 C978 0.929 . S
H975 C984 0.929 . S
C976 H970 0.930 . S
C976 C977 1.367 . S
C976 C984 1.378 . S
C977 C976 1.367 . S
C977 C985 1.433 . S
C978 H974 0.929 . S
C978 C980 1.378 . S
C978 C982 1.350 . S
C979 C982 1.463 . S
C979 C984 1.350 . S
C979 N987 1.427 . S
C980 H971 0.930 . S
C980 C978 1.378 . S
C980 C981 1.367 . S
C981 C980 1.367 . S
C981 C983 1.433 . S
C982 C978 1.350 . S
C982 C979 1.463 . S
C982 N986 1.427 . S
C983 H973 0.929 . S
C983 C981 1.433 . S
C983 N986 1.384 . S
C984 H975 0.929 . S
C984 C976 1.378 . S
C984 C979 1.350 . S
C985 H972 0.929 . S
C985 C977 1.433 . S
C985 N987 1.384 . S
N986 C982 1.427 . S
N986 C983 1.384 . S
N987 C979 1.427 . S
N987 C985 1.384 . S
H988 C994 0.930 . S
H989 C998 0.930 . S
H990 C1003 0.929 . S
H991 C1001 0.929 . S
H992 C996 0.929 . S
H993 C1002 0.929 . S
C994 H988 0.930 . S
C994 C995 1.367 . S
C994 C1002 1.378 . S
C995 C994 1.367 . S
C995 C1003 1.433 . S
C996 H992 0.929 . S
C996 C998 1.378 . S
C996 C1000 1.350 . S
C997 C1000 1.463 . S
C997 C1002 1.350 . S
C997 N1005 1.427 . S
C998 H989 0.930 . S
C998 C996 1.378 . S
C998 C999 1.367 . S
C999 C998 1.367 . S
C999 C1001 1.433 . S
C1000 C996 1.350 . S
C1000 C997 1.463 . S
C1000 N1004 1.427 . S
C1001 H991 0.929 . S
C1001 C999 1.433 . S
C1001 N1004 1.384 . S
C1002 H993 0.929 . S
C1002 C994 1.378 . S
C1002 C997 1.350 . S
C1003 H990 0.929 . S
C1003 C995 1.433 . S
C1003 N1005 1.384 . S
N1004 C1000 1.427 . S
N1004 C1001 1.384 . S
N1005 C997 1.427 . S
N1005 C1003 1.384 . S
H1006 C1012 0.930 . S
H1007 C1016 0.930 . S
H1008 C1021 0.929 . S
H1009 C1019 0.929 . S
H1010 C1014 0.929 . S
H1011 C1020 0.929 . S
C1012 H1006 0.930 . S
C1012 C1013 1.367 . S
C1012 C1020 1.378 . S
C1013 C1012 1.367 . S
C1013 C1021 1.433 . S
C1014 H1010 0.929 . S
C1014 C1016 1.378 . S
C1014 C1018 1.350 . S
C1015 C1018 1.463 . S
C1015 C1020 1.350 . S
C1015 N1023 1.427 . S
C1016 H1007 0.930 . S
C1016 C1014 1.378 . S
C1016 C1017 1.367 . S
C1017 C1016 1.367 . S
C1017 C1019 1.433 . S
C1018 C1014 1.350 . S
C1018 C1015 1.463 . S
C1018 N1022 1.427 . S
C1019 H1009 0.929 . S
C1019 C1017 1.433 . S
C1019 N1022 1.384 . S
C1020 H1011 0.929 . S
C1020 C1012 1.378 . S
C1020 C1015 1.350 . S
C1021 H1008 0.929 . S
C1021 C1013 1.433 . S
C1021 N1023 1.384 . S
N1022 C1018 1.427 . S
N1022 C1019 1.384 . S
N1023 C1015 1.427 . S
N1023 C1021 1.384 . S
H1024 C1030 0.930 . S
H1025 C1034 0.930 . S
H1026 C1039 0.929 . S
H1027 C1037 0.929 . S
H1028 C1032 0.929 . S
H1029 C1038 0.929 . S
C1030 H1024 0.930 . S
C1030 C1031 1.367 . S
C1030 C1038 1.378 . S
C1031 C1030 1.367 . S
C1031 C1039 1.433 . S
C1032 H1028 0.929 . S
C1032 C1034 1.378 . S
C1032 C1036 1.350 . S
C1033 C1036 1.463 . S
C1033 C1038 1.350 . S
C1033 N1041 1.427 . S
C1034 H1025 0.930 . S
C1034 C1032 1.378 . S
C1034 C1035 1.367 . S
C1035 C1034 1.367 . S
C1035 C1037 1.433 . S
C1036 C1032 1.350 . S
C1036 C1033 1.463 . S
C1036 N1040 1.427 . S
C1037 H1027 0.929 . S
C1037 C1035 1.433 . S
C1037 N1040 1.384 . S
C1038 H1029 0.929 . S
C1038 C1030 1.378 . S
C1038 C1033 1.350 . S
C1039 H1026 0.929 . S
C1039 C1031 1.433 . S
C1039 N1041 1.384 . S
N1040 C1036 1.427 . S
N1040 C1037 1.384 . S
N1041 C1033 1.427 . S
N1041 C1039 1.384 . S
H1042 C1048 0.930 . S
H1043 C1052 0.930 . S
H1044 C1057 0.929 . S
H1045 C1055 0.929 . S
H1046 C1050 0.929 . S
H1047 C1056 0.929 . S
C1048 H1042 0.930 . S
C1048 C1049 1.367 . S
C1048 C1056 1.378 . S
C1049 C1048 1.367 . S
C1049 C1057 1.433 . S
C1050 H1046 0.929 . S
C1050 C1052 1.378 1_655 S
C1050 C1054 1.350 . S
C1051 C1054 1.463 . S
C1051 C1056 1.350 . S
C1051 N1059 1.427 . S
C1052 H1043 0.930 . S
C1052 C1050 1.378 1_455 S
C1052 C1053 1.367 . S
C1053 C1052 1.367 . S
C1053 C1055 1.433 . S
C1054 C1050 1.350 . S
C1054 C1051 1.463 . S
C1054 N1058 1.427 . S
C1055 H1045 0.929 . S
C1055 C1053 1.433 . S
C1055 N1058 1.384 1_455 S
C1056 H1047 0.929 . S
C1056 C1048 1.378 . S
C1056 C1051 1.350 . S
C1057 H1044 0.929 . S
C1057 C1049 1.433 . S
C1057 N1059 1.384 . S
N1058 C1054 1.427 . S
N1058 C1055 1.384 1_655 S
N1059 C1051 1.427 . S
N1059 C1057 1.384 . S
H1060 C1066 0.930 . S
H1061 C1070 0.930 . S
H1062 C1075 0.929 . S
H1063 C1073 0.929 . S
H1064 C1068 0.929 . S
H1065 C1074 0.929 . S
C1066 H1060 0.930 . S
C1066 C1067 1.367 . S
C1066 C1074 1.378 . S
C1067 C1066 1.367 . S
C1067 C1075 1.433 . S
C1068 H1064 0.929 . S
C1068 C1070 1.378 . S
C1068 C1072 1.350 . S
C1069 C1072 1.463 . S
C1069 C1074 1.350 . S
C1069 N1077 1.427 . S
C1070 H1061 0.930 . S
C1070 C1068 1.378 . S
C1070 C1071 1.367 . S
C1071 C1070 1.367 . S
C1071 C1073 1.433 . S
C1072 C1068 1.350 . S
C1072 C1069 1.463 . S
C1072 N1076 1.427 . S
C1073 H1063 0.929 . S
C1073 C1071 1.433 . S
C1073 N1076 1.384 . S
C1074 H1065 0.929 . S
C1074 C1066 1.378 . S
C1074 C1069 1.350 . S
C1075 H1062 0.929 . S
C1075 C1067 1.433 . S
C1075 N1077 1.384 . S
N1076 C1072 1.427 . S
N1076 C1073 1.384 . S
N1077 C1069 1.427 . S
N1077 C1075 1.384 . S
H1078 C1084 0.930 . S
H1079 C1088 0.930 . S
H1080 C1093 0.929 . S
H1081 C1091 0.929 . S
H1082 C1086 0.929 . S
H1083 C1092 0.929 . S
C1084 H1078 0.930 . S
C1084 C1085 1.367 . S
C1084 C1092 1.378 . S
C1085 C1084 1.367 . S
C1085 C1093 1.433 . S
C1086 H1082 0.929 . S
C1086 C1088 1.378 . S
C1086 C1090 1.350 . S
C1087 C1090 1.463 . S
C1087 C1092 1.350 . S
C1087 N1095 1.427 . S
C1088 H1079 0.930 . S
C1088 C1086 1.378 . S
C1088 C1089 1.367 . S
C1089 C1088 1.367 . S
C1089 C1091 1.433 . S
C1090 C1086 1.350 . S
C1090 C1087 1.463 . S
C1090 N1094 1.427 . S
C1091 H1081 0.929 . S
C1091 C1089 1.433 . S
C1091 N1094 1.384 . S
C1092 H1083 0.929 . S
C1092 C1084 1.378 . S
C1092 C1087 1.350 . S
C1093 H1080 0.929 . S
C1093 C1085 1.433 . S
C1093 N1095 1.384 . S
N1094 C1090 1.427 . S
N1094 C1091 1.384 . S
N1095 C1087 1.427 . S
N1095 C1093 1.384 . S
H1096 C1102 0.930 . S
H1097 C1106 0.930 . S
H1098 C1111 0.929 . S
H1099 C1109 0.929 . S
H1100 C1104 0.929 . S
H1101 C1110 0.929 . S
C1102 H1096 0.930 . S
C1102 C1103 1.367 . S
C1102 C1110 1.378 . S
C1103 C1102 1.367 . S
C1103 C1111 1.433 . S
C1104 H1100 0.929 . S
C1104 C1106 1.378 . S
C1104 C1108 1.350 . S
C1105 C1108 1.463 . S
C1105 C1110 1.350 . S
C1105 N1113 1.427 . S
C1106 H1097 0.930 . S
C1106 C1104 1.378 . S
C1106 C1107 1.367 . S
C1107 C1106 1.367 . S
C1107 C1109 1.433 . S
C1108 C1104 1.350 . S
C1108 C1105 1.463 . S
C1108 N1112 1.427 . S
C1109 H1099 0.929 . S
C1109 C1107 1.433 . S
C1109 N1112 1.384 . S
C1110 H1101 0.929 . S
C1110 C1102 1.378 . S
C1110 C1105 1.350 . S
C1111 H1098 0.929 . S
C1111 C1103 1.433 . S
C1111 N1113 1.384 . S
N1112 C1108 1.427 . S
N1112 C1109 1.384 . S
N1113 C1105 1.427 . S
N1113 C1111 1.384 . S
H1114 C1120 0.930 . S
H1115 C1124 0.930 . S
H1116 C1129 0.929 . S
H1117 C1127 0.929 . S
H1118 C1122 0.929 . S
H1119 C1128 0.929 . S
C1120 H1114 0.930 . S
C1120 C1121 1.367 . S
C1120 C1128 1.378 . S
C1121 C1120 1.367 . S
C1121 C1129 1.433 . S
C1122 H1118 0.929 . S
C1122 C1124 1.378 . S
C1122 C1126 1.350 . S
C1123 C1126 1.463 . S
C1123 C1128 1.350 . S
C1123 N1131 1.427 . S
C1124 H1115 0.930 . S
C1124 C1122 1.378 . S
C1124 C1125 1.367 . S
C1125 C1124 1.367 . S
C1125 C1127 1.433 . S
C1126 C1122 1.350 . S
C1126 C1123 1.463 . S
C1126 N1130 1.427 . S
C1127 H1117 0.929 . S
C1127 C1125 1.433 . S
C1127 N1130 1.384 . S
C1128 H1119 0.929 . S
C1128 C1120 1.378 . S
C1128 C1123 1.350 . S
C1129 H1116 0.929 . S
C1129 C1121 1.433 . S
C1129 N1131 1.384 . S
N1130 C1126 1.427 . S
N1130 C1127 1.384 . S
N1131 C1123 1.427 . S
N1131 C1129 1.384 . S
H1132 C1138 0.930 . S
H1133 C1142 0.930 . S
H1134 C1147 0.929 . S
H1135 C1145 0.929 . S
H1136 C1140 0.929 . S
H1137 C1146 0.929 . S
C1138 H1132 0.930 . S
C1138 C1139 1.367 . S
C1138 C1146 1.378 . S
C1139 C1138 1.367 . S
C1139 C1147 1.433 . S
C1140 H1136 0.929 . S
C1140 C1142 1.378 . S
C1140 C1144 1.350 . S
C1141 C1144 1.463 . S
C1141 C1146 1.350 . S
C1141 N1149 1.427 . S
C1142 H1133 0.930 . S
C1142 C1140 1.378 . S
C1142 C1143 1.367 . S
C1143 C1142 1.367 . S
C1143 C1145 1.433 . S
C1144 C1140 1.350 . S
C1144 C1141 1.463 . S
C1144 N1148 1.427 . S
C1145 H1135 0.929 . S
C1145 C1143 1.433 . S
C1145 N1148 1.384 . S
C1146 H1137 0.929 . S
C1146 C1138 1.378 . S
C1146 C1141 1.350 . S
C1147 H1134 0.929 . S
C1147 C1139 1.433 . S
C1147 N1149 1.384 . S
N1148 C1144 1.427 . S
N1148 C1145 1.384 . S
N1149 C1141 1.427 . S
N1149 C1147 1.384 . S
H1150 C1156 0.930 . S
H1151 C1160 0.930 . S
H1152 C1165 0.929 . S
H1153 C1163 0.929 . S
H1154 C1158 0.929 . S
H1155 C1164 0.929 . S
C1156 H1150 0.930 . S
C1156 C1157 1.367 . S
C1156 C1164 1.378 1_455 S
C1157 C1156 1.367 . S
C1157 C1165 1.433 . S
C1158 H1154 0.929 . S
C1158 C1160 1.378 . S
C1158 C1162 1.350 . S
C1159 C1162 1.463 . S
C1159 C1164 1.350 . S
C1159 N1167 1.427 . S
C1160 H1151 0.930 . S
C1160 C1158 1.378 . S
C1160 C1161 1.367 . S
C1161 C1160 1.367 . S
C1161 C1163 1.433 . S
C1162 C1158 1.350 . S
C1162 C1159 1.463 . S
C1162 N1166 1.427 . S
C1163 H1153 0.929 . S
C1163 C1161 1.433 . S
C1163 N1166 1.384 . S
C1164 H1155 0.929 . S
C1164 C1156 1.378 1_655 S
C1164 C1159 1.350 . S
C1165 H1152 0.929 . S
C1165 C1157 1.433 . S
C1165 N1167 1.384 1_455 S
N1166 C1162 1.427 . S
N1166 C1163 1.384 . S
N1167 C1159 1.427 . S
N1167 C1165 1.384 1_655 S
H1168 C1174 0.930 . S
H1169 C1178 0.930 . S
H1170 C1183 0.929 . S
H1171 C1181 0.929 . S
H1172 C1176 0.929 . S
H1173 C1182 0.929 . S
C1174 H1168 0.930 . S
C1174 C1175 1.367 . S
C1174 C1182 1.378 . S
C1175 C1174 1.367 . S
C1175 C1183 1.433 . S
C1176 H1172 0.929 . S
C1176 C1178 1.378 . S
C1176 C1180 1.350 . S
C1177 C1180 1.463 . S
C1177 C1182 1.350 . S
C1177 N1185 1.427 . S
C1178 H1169 0.930 . S
C1178 C1176 1.378 . S
C1178 C1179 1.367 . S
C1179 C1178 1.367 . S
C1179 C1181 1.433 . S
C1180 C1176 1.350 . S
C1180 C1177 1.463 . S
C1180 N1184 1.427 . S
C1181 H1171 0.929 . S
C1181 C1179 1.433 . S
C1181 N1184 1.384 . S
C1182 H1173 0.929 . S
C1182 C1174 1.378 . S
C1182 C1177 1.350 . S
C1183 H1170 0.929 . S
C1183 C1175 1.433 . S
C1183 N1185 1.384 . S
N1184 C1180 1.427 . S
N1184 C1181 1.384 . S
N1185 C1177 1.427 . S
N1185 C1183 1.384 . S
H1186 C1192 0.930 . S
H1187 C1196 0.930 . S
H1188 C1201 0.929 . S
H1189 C1199 0.929 . S
H1190 C1194 0.929 . S
H1191 C1200 0.929 . S
C1192 H1186 0.930 . S
C1192 C1193 1.367 . S
C1192 C1200 1.378 . S
C1193 C1192 1.367 . S
C1193 C1201 1.433 . S
C1194 H1190 0.929 . S
C1194 C1196 1.378 . S
C1194 C1198 1.350 . S
C1195 C1198 1.463 1_655 S
C1195 C1200 1.350 . S
C1195 N1203 1.427 . S
C1196 H1187 0.930 . S
C1196 C1194 1.378 . S
C1196 C1197 1.367 . S
C1197 C1196 1.367 . S
C1197 C1199 1.433 . S
C1198 C1194 1.350 . S
C1198 C1195 1.463 1_455 S
C1198 N1202 1.427 . S
C1199 H1189 0.929 . S
C1199 C1197 1.433 . S
C1199 N1202 1.384 . S
C1200 H1191 0.929 . S
C1200 C1192 1.378 . S
C1200 C1195 1.350 . S
C1201 H1188 0.929 . S
C1201 C1193 1.433 . S
C1201 N1203 1.384 . S
N1202 C1198 1.427 . S
N1202 C1199 1.384 . S
N1203 C1195 1.427 . S
N1203 C1201 1.384 . S
H1204 C1210 0.930 . S
H1205 C1214 0.930 . S
H1206 C1219 0.929 . S
H1207 C1217 0.929 . S
H1208 C1212 0.929 . S
H1209 C1218 0.929 . S
C1210 H1204 0.930 . S
C1210 C1211 1.367 . S
C1210 C1218 1.378 . S
C1211 C1210 1.367 . S
C1211 C1219 1.433 . S
C1212 H1208 0.929 . S
C1212 C1214 1.378 . S
C1212 C1216 1.350 . S
C1213 C1216 1.463 . S
C1213 C1218 1.350 . S
C1213 N1221 1.427 . S
C1214 H1205 0.930 . S
C1214 C1212 1.378 . S
C1214 C1215 1.367 . S
C1215 C1214 1.367 . S
C1215 C1217 1.433 . S
C1216 C1212 1.350 . S
C1216 C1213 1.463 . S
C1216 N1220 1.427 . S
C1217 H1207 0.929 . S
C1217 C1215 1.433 . S
C1217 N1220 1.384 . S
C1218 H1209 0.929 . S
C1218 C1210 1.378 . S
C1218 C1213 1.350 . S
C1219 H1206 0.929 . S
C1219 C1211 1.433 . S
C1219 N1221 1.384 . S
N1220 C1216 1.427 . S
N1220 C1217 1.384 . S
N1221 C1213 1.427 . S
N1221 C1219 1.384 . S
H1222 C1228 0.930 . S
H1223 C1232 0.930 . S
H1224 C1237 0.929 . S
H1225 C1235 0.929 . S
H1226 C1230 0.929 . S
H1227 C1236 0.929 . S
C1228 H1222 0.930 . S
C1228 C1229 1.367 . S
C1228 C1236 1.378 . S
C1229 C1228 1.367 . S
C1229 C1237 1.433 . S
C1230 H1226 0.929 . S
C1230 C1232 1.378 . S
C1230 C1234 1.350 . S
C1231 C1234 1.463 . S
C1231 C1236 1.350 . S
C1231 N1239 1.427 . S
C1232 H1223 0.930 . S
C1232 C1230 1.378 . S
C1232 C1233 1.367 . S
C1233 C1232 1.367 . S
C1233 C1235 1.433 . S
C1234 C1230 1.350 . S
C1234 C1231 1.463 . S
C1234 N1238 1.427 . S
C1235 H1225 0.929 . S
C1235 C1233 1.433 . S
C1235 N1238 1.384 . S
C1236 H1227 0.929 . S
C1236 C1228 1.378 . S
C1236 C1231 1.350 . S
C1237 H1224 0.929 . S
C1237 C1229 1.433 . S
C1237 N1239 1.384 . S
N1238 C1234 1.427 . S
N1238 C1235 1.384 . S
N1239 C1231 1.427 . S
N1239 C1237 1.384 . S
H1240 C1246 0.930 . S
H1241 C1250 0.930 . S
H1242 C1255 0.929 . S
H1243 C1253 0.929 . S
H1244 C1248 0.929 . S
H1245 C1254 0.929 . S
C1246 H1240 0.930 . S
C1246 C1247 1.367 . S
C1246 C1254 1.378 . S
C1247 C1246 1.367 . S
C1247 C1255 1.433 . S
C1248 H1244 0.929 . S
C1248 C1250 1.378 . S
C1248 C1252 1.350 . S
C1249 C1252 1.463 . S
C1249 C1254 1.350 . S
C1249 N1257 1.427 . S
C1250 H1241 0.930 . S
C1250 C1248 1.378 . S
C1250 C1251 1.367 . S
C1251 C1250 1.367 . S
C1251 C1253 1.433 . S
C1252 C1248 1.350 . S
C1252 C1249 1.463 . S
C1252 N1256 1.427 . S
C1253 H1243 0.929 . S
C1253 C1251 1.433 . S
C1253 N1256 1.384 . S
C1254 H1245 0.929 . S
C1254 C1246 1.378 . S
C1254 C1249 1.350 . S
C1255 H1242 0.929 . S
C1255 C1247 1.433 . S
C1255 N1257 1.384 . S
N1256 C1252 1.427 . S
N1256 C1253 1.384 . S
N1257 C1249 1.427 . S
N1257 C1255 1.384 . S
H1258 C1264 0.930 . S
H1259 C1268 0.930 . S
H1260 C1273 0.929 . S
H1261 C1271 0.929 . S
H1262 C1266 0.929 . S
H1263 C1272 0.929 . S
C1264 H1258 0.930 . S
C1264 C1265 1.367 . S
C1264 C1272 1.378 . S
C1265 C1264 1.367 . S
C1265 C1273 1.433 . S
C1266 H1262 0.929 . S
C1266 C1268 1.378 . S
C1266 C1270 1.350 . S
C1267 C1270 1.463 . S
C1267 C1272 1.350 . S
C1267 N1275 1.427 . S
C1268 H1259 0.930 . S
C1268 C1266 1.378 . S
C1268 C1269 1.367 . S
C1269 C1268 1.367 . S
C1269 C1271 1.433 . S
C1270 C1266 1.350 . S
C1270 C1267 1.463 . S
C1270 N1274 1.427 . S
C1271 H1261 0.929 . S
C1271 C1269 1.433 . S
C1271 N1274 1.384 . S
C1272 H1263 0.929 . S
C1272 C1264 1.378 . S
C1272 C1267 1.350 . S
C1273 H1260 0.929 . S
C1273 C1265 1.433 . S
C1273 N1275 1.384 . S
N1274 C1270 1.427 . S
N1274 C1271 1.384 . S
N1275 C1267 1.427 . S
N1275 C1273 1.384 . S
H1276 C1282 0.930 . S
H1277 C1286 0.930 . S
H1278 C1291 0.929 . S
H1279 C1289 0.929 . S
H1280 C1284 0.929 . S
H1281 C1290 0.929 . S
C1282 H1276 0.930 . S
C1282 C1283 1.367 . S
C1282 C1290 1.378 . S
C1283 C1282 1.367 . S
C1283 C1291 1.433 . S
C1284 H1280 0.929 . S
C1284 C1286 1.378 . S
C1284 C1288 1.350 . S
C1285 C1288 1.463 . S
C1285 C1290 1.350 . S
C1285 N1293 1.427 . S
C1286 H1277 0.930 . S
C1286 C1284 1.378 . S
C1286 C1287 1.367 . S
C1287 C1286 1.367 . S
C1287 C1289 1.433 . S
C1288 C1284 1.350 . S
C1288 C1285 1.463 . S
C1288 N1292 1.427 . S
C1289 H1279 0.929 . S
C1289 C1287 1.433 . S
C1289 N1292 1.384 . S
C1290 H1281 0.929 . S
C1290 C1282 1.378 . S
C1290 C1285 1.350 . S
C1291 H1278 0.929 . S
C1291 C1283 1.433 . S
C1291 N1293 1.384 . S
N1292 C1288 1.427 . S
N1292 C1289 1.384 . S
N1293 C1285 1.427 . S
N1293 C1291 1.384 . S
H1294 C1300 0.930 . S
H1295 C1304 0.930 . S
H1296 C1309 0.929 . S
H1297 C1307 0.929 . S
H1298 C1302 0.929 . S
H1299 C1308 0.929 1_655 S
C1300 H1294 0.930 . S
C1300 C1301 1.367 . S
C1300 C1308 1.378 . S
C1301 C1300 1.367 . S
C1301 C1309 1.433 . S
C1302 H1298 0.929 . S
C1302 C1304 1.378 . S
C1302 C1306 1.350 . S
C1303 C1306 1.463 1_455 S
C1303 C1308 1.350 . S
C1303 N1311 1.427 . S
C1304 H1295 0.930 . S
C1304 C1302 1.378 . S
C1304 C1305 1.367 . S
C1305 C1304 1.367 . S
C1305 C1307 1.433 . S
C1306 C1302 1.350 . S
C1306 C1303 1.463 1_655 S
C1306 N1310 1.427 . S
C1307 H1297 0.929 . S
C1307 C1305 1.433 . S
C1307 N1310 1.384 . S
C1308 H1299 0.929 1_455 S
C1308 C1300 1.378 . S
C1308 C1303 1.350 . S
C1309 H1296 0.929 . S
C1309 C1301 1.433 . S
C1309 N1311 1.384 . S
N1310 C1306 1.427 . S
N1310 C1307 1.384 . S
N1311 C1303 1.427 . S
N1311 C1309 1.384 . S
H1312 C1318 0.930 . S
H1313 C1322 0.930 . S
H1314 C1327 0.929 . S
H1315 C1325 0.929 . S
H1316 C1320 0.929 . S
H1317 C1326 0.929 . S
C1318 H1312 0.930 . S
C1318 C1319 1.367 . S
C1318 C1326 1.378 . S
C1319 C1318 1.367 . S
C1319 C1327 1.433 . S
C1320 H1316 0.929 . S
C1320 C1322 1.378 . S
C1320 C1324 1.350 . S
C1321 C1324 1.463 . S
C1321 C1326 1.350 . S
C1321 N1329 1.427 . S
C1322 H1313 0.930 . S
C1322 C1320 1.378 . S
C1322 C1323 1.367 . S
C1323 C1322 1.367 . S
C1323 C1325 1.433 . S
C1324 C1320 1.350 . S
C1324 C1321 1.463 . S
C1324 N1328 1.427 . S
C1325 H1315 0.929 . S
C1325 C1323 1.433 . S
C1325 N1328 1.384 . S
C1326 H1317 0.929 . S
C1326 C1318 1.378 . S
C1326 C1321 1.350 . S
C1327 H1314 0.929 . S
C1327 C1319 1.433 . S
C1327 N1329 1.384 . S
N1328 C1324 1.427 . S
N1328 C1325 1.384 . S
N1329 C1321 1.427 . S
N1329 C1327 1.384 . S
H1330 C1336 0.930 . S
H1331 C1340 0.930 . S
H1332 C1345 0.929 . S
H1333 C1343 0.929 . S
H1334 C1338 0.929 . S
H1335 C1344 0.929 . S
C1336 H1330 0.930 . S
C1336 C1337 1.367 . S
C1336 C1344 1.378 . S
C1337 C1336 1.367 . S
C1337 C1345 1.433 . S
C1338 H1334 0.929 . S
C1338 C1340 1.378 . S
C1338 C1342 1.350 . S
C1339 C1342 1.463 . S
C1339 C1344 1.350 . S
C1339 N1347 1.427 . S
C1340 H1331 0.930 . S
C1340 C1338 1.378 . S
C1340 C1341 1.367 . S
C1341 C1340 1.367 . S
C1341 C1343 1.433 . S
C1342 C1338 1.350 . S
C1342 C1339 1.463 . S
C1342 N1346 1.427 . S
C1343 H1333 0.929 . S
C1343 C1341 1.433 . S
C1343 N1346 1.384 . S
C1344 H1335 0.929 . S
C1344 C1336 1.378 . S
C1344 C1339 1.350 . S
C1345 H1332 0.929 . S
C1345 C1337 1.433 . S
C1345 N1347 1.384 . S
N1346 C1342 1.427 . S
N1346 C1343 1.384 . S
N1347 C1339 1.427 . S
N1347 C1345 1.384 . S
H1348 C1354 0.930 . S
H1349 C1358 0.930 . S
H1350 C1363 0.929 . S
H1351 C1361 0.929 . S
H1352 C1356 0.929 . S
H1353 C1362 0.929 . S
C1354 H1348 0.930 . S
C1354 C1355 1.367 . S
C1354 C1362 1.378 . S
C1355 C1354 1.367 . S
C1355 C1363 1.433 . S
C1356 H1352 0.929 . S
C1356 C1358 1.378 . S
C1356 C1360 1.350 . S
C1357 C1360 1.463 . S
C1357 C1362 1.350 . S
C1357 N1365 1.427 . S
C1358 H1349 0.930 . S
C1358 C1356 1.378 . S
C1358 C1359 1.367 . S
C1359 C1358 1.367 . S
C1359 C1361 1.433 . S
C1360 C1356 1.350 . S
C1360 C1357 1.463 . S
C1360 N1364 1.427 . S
C1361 H1351 0.929 . S
C1361 C1359 1.433 . S
C1361 N1364 1.384 . S
C1362 H1353 0.929 . S
C1362 C1354 1.378 . S
C1362 C1357 1.350 . S
C1363 H1350 0.929 . S
C1363 C1355 1.433 . S
C1363 N1365 1.384 . S
N1364 C1360 1.427 . S
N1364 C1361 1.384 . S
N1365 C1357 1.427 . S
N1365 C1363 1.384 . S
H1366 C1372 0.930 . S
H1367 C1376 0.930 . S
H1368 C1381 0.929 . S
H1369 C1379 0.929 . S
H1370 C1374 0.929 . S
H1371 C1380 0.929 . S
C1372 H1366 0.930 . S
C1372 C1373 1.367 . S
C1372 C1380 1.378 . S
C1373 C1372 1.367 . S
C1373 C1381 1.433 . S
C1374 H1370 0.929 . S
C1374 C1376 1.378 1_455 S
C1374 C1378 1.350 . S
C1375 C1378 1.463 . S
C1375 C1380 1.350 . S
C1375 N1383 1.427 . S
C1376 H1367 0.930 . S
C1376 C1374 1.378 1_655 S
C1376 C1377 1.367 . S
C1377 C1376 1.367 . S
C1377 C1379 1.433 . S
C1378 C1374 1.350 . S
C1378 C1375 1.463 . S
C1378 N1382 1.427 1_455 S
C1379 H1369 0.929 . S
C1379 C1377 1.433 . S
C1379 N1382 1.384 . S
C1380 H1371 0.929 . S
C1380 C1372 1.378 . S
C1380 C1375 1.350 . S
C1381 H1368 0.929 . S
C1381 C1373 1.433 . S
C1381 N1383 1.384 . S
N1382 C1378 1.427 1_655 S
N1382 C1379 1.384 . S
N1383 C1375 1.427 . S
N1383 C1381 1.384 . S
H1384 C1390 0.930 . S
H1385 C1394 0.930 . S
H1386 C1399 0.929 . S
H1387 C1397 0.929 . S
H1388 C1392 0.929 . S
H1389 C1398 0.929 . S
C1390 H1384 0.930 . S
C1390 C1391 1.367 . S
C1390 C1398 1.378 . S
C1391 C1390 1.367 . S
C1391 C1399 1.433 . S
C1392 H1388 0.929 . S
C1392 C1394 1.378 . S
C1392 C1396 1.350 . S
C1393 C1396 1.463 . S
C1393 C1398 1.350 . S
C1393 N1401 1.427 . S
C1394 H1385 0.930 . S
C1394 C1392 1.378 . S
C1394 C1395 1.367 . S
C1395 C1394 1.367 . S
C1395 C1397 1.433 . S
C1396 C1392 1.350 . S
C1396 C1393 1.463 . S
C1396 N1400 1.427 . S
C1397 H1387 0.929 . S
C1397 C1395 1.433 . S
C1397 N1400 1.384 . S
C1398 H1389 0.929 . S
C1398 C1390 1.378 . S
C1398 C1393 1.350 . S
C1399 H1386 0.929 . S
C1399 C1391 1.433 . S
C1399 N1401 1.384 . S
N1400 C1396 1.427 . S
N1400 C1397 1.384 . S
N1401 C1393 1.427 . S
N1401 C1399 1.384 . S
H1402 C1408 0.930 . S
H1403 C1412 0.930 . S
H1404 C1417 0.929 . S
H1405 C1415 0.929 . S
H1406 C1410 0.929 . S
H1407 C1416 0.929 . S
C1408 H1402 0.930 . S
C1408 C1409 1.367 . S
C1408 C1416 1.378 1_655 S
C1409 C1408 1.367 . S
C1409 C1417 1.433 . S
C1410 H1406 0.929 . S
C1410 C1412 1.378 . S
C1410 C1414 1.350 . S
C1411 C1414 1.463 . S
C1411 C1416 1.350 . S
C1411 N1419 1.427 1_455 S
C1412 H1403 0.930 . S
C1412 C1410 1.378 . S
C1412 C1413 1.367 . S
C1413 C1412 1.367 . S
C1413 C1415 1.433 . S
C1414 C1410 1.350 . S
C1414 C1411 1.463 . S
C1414 N1418 1.427 . S
C1415 H1405 0.929 . S
C1415 C1413 1.433 . S
C1415 N1418 1.384 . S
C1416 H1407 0.929 . S
C1416 C1408 1.378 1_455 S
C1416 C1411 1.350 . S
C1417 H1404 0.929 . S
C1417 C1409 1.433 . S
C1417 N1419 1.384 . S
N1418 C1414 1.427 . S
N1418 C1415 1.384 . S
N1419 C1411 1.427 1_655 S
N1419 C1417 1.384 . S
H1420 C1426 0.930 . S
H1421 C1430 0.930 . S
H1422 C1435 0.929 . S
H1423 C1433 0.929 . S
H1424 C1428 0.929 . S
H1425 C1434 0.929 . S
C1426 H1420 0.930 . S
C1426 C1427 1.367 . S
C1426 C1434 1.378 . S
C1427 C1426 1.367 . S
C1427 C1435 1.433 . S
C1428 H1424 0.929 . S
C1428 C1430 1.378 . S
C1428 C1432 1.350 . S
C1429 C1432 1.463 . S
C1429 C1434 1.350 . S
C1429 N1437 1.427 . S
C1430 H1421 0.930 . S
C1430 C1428 1.378 . S
C1430 C1431 1.367 . S
C1431 C1430 1.367 . S
C1431 C1433 1.433 . S
C1432 C1428 1.350 . S
C1432 C1429 1.463 . S
C1432 N1436 1.427 . S
C1433 H1423 0.929 . S
C1433 C1431 1.433 . S
C1433 N1436 1.384 . S
C1434 H1425 0.929 . S
C1434 C1426 1.378 . S
C1434 C1429 1.350 . S
C1435 H1422 0.929 . S
C1435 C1427 1.433 . S
C1435 N1437 1.384 . S
N1436 C1432 1.427 . S
N1436 C1433 1.384 . S
N1437 C1429 1.427 . S
N1437 C1435 1.384 . S
H1438 C1444 0.930 . S
H1439 C1448 0.930 . S
H1440 C1453 0.929 . S
H1441 C1451 0.929 . S
H1442 C1446 0.929 . S
H1443 C1452 0.929 . S
C1444 H1438 0.930 . S
C1444 C1445 1.367 . S
C1444 C1452 1.378 . S
C1445 C1444 1.367 . S
C1445 C1453 1.433 . S
C1446 H1442 0.929 . S
C1446 C1448 1.378 . S
C1446 C1450 1.350 . S
C1447 C1450 1.463 . S
C1447 C1452 1.350 . S
C1447 N1455 1.427 . S
C1448 H1439 0.930 . S
C1448 C1446 1.378 . S
C1448 C1449 1.367 . S
C1449 C1448 1.367 . S
C1449 C1451 1.433 . S
C1450 C1446 1.350 . S
C1450 C1447 1.463 . S
C1450 N1454 1.427 . S
C1451 H1441 0.929 . S
C1451 C1449 1.433 . S
C1451 N1454 1.384 . S
C1452 H1443 0.929 . S
C1452 C1444 1.378 . S
C1452 C1447 1.350 . S
C1453 H1440 0.929 . S
C1453 C1445 1.433 . S
C1453 N1455 1.384 . S
N1454 C1450 1.427 . S
N1454 C1451 1.384 . S
N1455 C1447 1.427 . S
N1455 C1453 1.384 . S
H1456 C1462 0.930 . S
H1457 C1466 0.930 . S
H1458 C1471 0.929 . S
H1459 C1469 0.929 . S
H1460 C1464 0.929 . S
H1461 C1470 0.929 . S
C1462 H1456 0.930 . S
C1462 C1463 1.367 . S
C1462 C1470 1.378 . S
C1463 C1462 1.367 . S
C1463 C1471 1.433 . S
C1464 H1460 0.929 . S
C1464 C1466 1.378 . S
C1464 C1468 1.350 . S
C1465 C1468 1.463 . S
C1465 C1470 1.350 . S
C1465 N1473 1.427 . S
C1466 H1457 0.930 . S
C1466 C1464 1.378 . S
C1466 C1467 1.367 . S
C1467 C1466 1.367 . S
C1467 C1469 1.433 . S
C1468 C1464 1.350 . S
C1468 C1465 1.463 . S
C1468 N1472 1.427 . S
C1469 H1459 0.929 . S
C1469 C1467 1.433 . S
C1469 N1472 1.384 . S
C1470 H1461 0.929 . S
C1470 C1462 1.378 . S
C1470 C1465 1.350 . S
C1471 H1458 0.929 . S
C1471 C1463 1.433 . S
C1471 N1473 1.384 . S
N1472 C1468 1.427 . S
N1472 C1469 1.384 . S
N1473 C1465 1.427 . S
N1473 C1471 1.384 . S
H1474 C1480 0.930 . S
H1475 C1484 0.930 . S
H1476 C1489 0.929 . S
H1477 C1487 0.929 . S
H1478 C1482 0.929 . S
H1479 C1488 0.929 . S
C1480 H1474 0.930 . S
C1480 C1481 1.367 . S
C1480 C1488 1.378 . S
C1481 C1480 1.367 . S
C1481 C1489 1.433 . S
C1482 H1478 0.929 . S
C1482 C1484 1.378 . S
C1482 C1486 1.350 . S
C1483 C1486 1.463 . S
C1483 C1488 1.350 . S
C1483 N1491 1.427 . S
C1484 H1475 0.930 . S
C1484 C1482 1.378 . S
C1484 C1485 1.367 . S
C1485 C1484 1.367 . S
C1485 C1487 1.433 . S
C1486 C1482 1.350 . S
C1486 C1483 1.463 . S
C1486 N1490 1.427 . S
C1487 H1477 0.929 . S
C1487 C1485 1.433 . S
C1487 N1490 1.384 . S
C1488 H1479 0.929 . S
C1488 C1480 1.378 . S
C1488 C1483 1.350 . S
C1489 H1476 0.929 . S
C1489 C1481 1.433 . S
C1489 N1491 1.384 . S
N1490 C1486 1.427 . S
N1490 C1487 1.384 . S
N1491 C1483 1.427 . S
N1491 C1489 1.384 . S
H1492 C1498 0.930 . S
H1493 C1502 0.930 . S
H1494 C1507 0.929 . S
H1495 C1505 0.929 . S
H1496 C1500 0.929 . S
H1497 C1506 0.929 . S
C1498 H1492 0.930 . S
C1498 C1499 1.367 . S
C1498 C1506 1.378 . S
C1499 C1498 1.367 . S
C1499 C1507 1.433 . S
C1500 H1496 0.929 . S
C1500 C1502 1.378 . S
C1500 C1504 1.350 . S
C1501 C1504 1.463 . S
C1501 C1506 1.350 . S
C1501 N1509 1.427 . S
C1502 H1493 0.930 . S
C1502 C1500 1.378 . S
C1502 C1503 1.367 . S
C1503 C1502 1.367 . S
C1503 C1505 1.433 . S
C1504 C1500 1.350 . S
C1504 C1501 1.463 . S
C1504 N1508 1.427 . S
C1505 H1495 0.929 . S
C1505 C1503 1.433 . S
C1505 N1508 1.384 . S
C1506 H1497 0.929 . S
C1506 C1498 1.378 . S
C1506 C1501 1.350 . S
C1507 H1494 0.929 . S
C1507 C1499 1.433 . S
C1507 N1509 1.384 . S
N1508 C1504 1.427 . S
N1508 C1505 1.384 . S
N1509 C1501 1.427 . S
N1509 C1507 1.384 . S
H1510 C1516 0.930 . S
H1511 C1520 0.930 . S
H1512 C1525 0.929 . S
H1513 C1523 0.929 . S
H1514 C1518 0.929 . S
H1515 C1524 0.929 . S
C1516 H1510 0.930 . S
C1516 C1517 1.367 . S
C1516 C1524 1.378 . S
C1517 C1516 1.367 . S
C1517 C1525 1.433 . S
C1518 H1514 0.929 . S
C1518 C1520 1.378 . S
C1518 C1522 1.350 . S
C1519 C1522 1.463 1_655 S
C1519 C1524 1.350 . S
C1519 N1527 1.427 . S
C1520 H1511 0.930 . S
C1520 C1518 1.378 . S
C1520 C1521 1.367 . S
C1521 C1520 1.367 . S
C1521 C1523 1.433 . S
C1522 C1518 1.350 . S
C1522 C1519 1.463 1_455 S
C1522 N1526 1.427 . S
C1523 H1513 0.929 . S
C1523 C1521 1.433 . S
C1523 N1526 1.384 . S
C1524 H1515 0.929 . S
C1524 C1516 1.378 . S
C1524 C1519 1.350 . S
C1525 H1512 0.929 . S
C1525 C1517 1.433 . S
C1525 N1527 1.384 . S
N1526 C1522 1.427 . S
N1526 C1523 1.384 . S
N1527 C1519 1.427 . S
N1527 C1525 1.384 . S
H1528 C1534 0.930 . S
H1529 C1538 0.930 . S
H1530 C1543 0.929 . S
H1531 C1541 0.929 . S
H1532 C1536 0.929 . S
H1533 C1542 0.929 . S
C1534 H1528 0.930 . S
C1534 C1535 1.367 . S
C1534 C1542 1.378 . S
C1535 C1534 1.367 . S
C1535 C1543 1.433 . S
C1536 H1532 0.929 . S
C1536 C1538 1.378 . S
C1536 C1540 1.350 . S
C1537 C1540 1.463 . S
C1537 C1542 1.350 . S
C1537 N1545 1.427 . S
C1538 H1529 0.930 . S
C1538 C1536 1.378 . S
C1538 C1539 1.367 . S
C1539 C1538 1.367 . S
C1539 C1541 1.433 . S
C1540 C1536 1.350 . S
C1540 C1537 1.463 . S
C1540 N1544 1.427 . S
C1541 H1531 0.929 . S
C1541 C1539 1.433 . S
C1541 N1544 1.384 . S
C1542 H1533 0.929 . S
C1542 C1534 1.378 . S
C1542 C1537 1.350 . S
C1543 H1530 0.929 . S
C1543 C1535 1.433 . S
C1543 N1545 1.384 . S
N1544 C1540 1.427 . S
N1544 C1541 1.384 . S
N1545 C1537 1.427 . S
N1545 C1543 1.384 . S
H1546 C1552 0.930 . S
H1547 C1556 0.930 . S
H1548 C1561 0.929 . S
H1549 C1559 0.929 . S
H1550 C1554 0.929 1_455 S
H1551 C1560 0.929 . S
C1552 H1546 0.930 . S
C1552 C1553 1.367 . S
C1552 C1560 1.378 . S
C1553 C1552 1.367 . S
C1553 C1561 1.433 . S
C1554 H1550 0.929 1_655 S
C1554 C1556 1.378 . S
C1554 C1558 1.350 . S
C1555 C1558 1.463 1_455 S
C1555 C1560 1.350 . S
C1555 N1563 1.427 . S
C1556 H1547 0.930 . S
C1556 C1554 1.378 . S
C1556 C1557 1.367 . S
C1557 C1556 1.367 . S
C1557 C1559 1.433 . S
C1558 C1554 1.350 . S
C1558 C1555 1.463 1_655 S
C1558 N1562 1.427 . S
C1559 H1549 0.929 . S
C1559 C1557 1.433 . S
C1559 N1562 1.384 . S
C1560 H1551 0.929 . S
C1560 C1552 1.378 . S
C1560 C1555 1.350 . S
C1561 H1548 0.929 . S
C1561 C1553 1.433 . S
C1561 N1563 1.384 . S
N1562 C1558 1.427 . S
N1562 C1559 1.384 . S
N1563 C1555 1.427 . S
N1563 C1561 1.384 . S
H1564 C1570 0.930 . S
H1565 C1574 0.930 . S
H1566 C1579 0.929 . S
H1567 C1577 0.929 . S
H1568 C1572 0.929 . S
H1569 C1578 0.929 . S
C1570 H1564 0.930 . S
C1570 C1571 1.367 . S
C1570 C1578 1.378 . S
C1571 C1570 1.367 . S
C1571 C1579 1.433 . S
C1572 H1568 0.929 . S
C1572 C1574 1.378 . S
C1572 C1576 1.350 . S
C1573 C1576 1.463 . S
C1573 C1578 1.350 . S
C1573 N1581 1.427 . S
C1574 H1565 0.930 . S
C1574 C1572 1.378 . S
C1574 C1575 1.367 . S
C1575 C1574 1.367 . S
C1575 C1577 1.433 . S
C1576 C1572 1.350 . S
C1576 C1573 1.463 . S
C1576 N1580 1.427 . S
C1577 H1567 0.929 . S
C1577 C1575 1.433 . S
C1577 N1580 1.384 . S
C1578 H1569 0.929 . S
C1578 C1570 1.378 . S
C1578 C1573 1.350 . S
C1579 H1566 0.929 . S
C1579 C1571 1.433 . S
C1579 N1581 1.384 . S
N1580 C1576 1.427 . S
N1580 C1577 1.384 . S
N1581 C1573 1.427 . S
N1581 C1579 1.384 . S
H1582 C1588 0.930 . S
H1583 C1592 0.930 . S
H1584 C1597 0.929 . S
H1585 C1595 0.929 . S
H1586 C1590 0.929 . S
H1587 C1596 0.929 . S
C1588 H1582 0.930 . S
C1588 C1589 1.367 . S
C1588 C1596 1.378 . S
C1589 C1588 1.367 . S
C1589 C1597 1.433 . S
C1590 H1586 0.929 . S
C1590 C1592 1.378 . S
C1590 C1594 1.350 . S
C1591 C1594 1.463 . S
C1591 C1596 1.350 . S
C1591 N1599 1.427 . S
C1592 H1583 0.930 . S
C1592 C1590 1.378 . S
C1592 C1593 1.367 . S
C1593 C1592 1.367 . S
C1593 C1595 1.433 . S
C1594 C1590 1.350 . S
C1594 C1591 1.463 . S
C1594 N1598 1.427 . S
C1595 H1585 0.929 . S
C1595 C1593 1.433 . S
C1595 N1598 1.384 . S
C1596 H1587 0.929 . S
C1596 C1588 1.378 . S
C1596 C1591 1.350 . S
C1597 H1584 0.929 . S
C1597 C1589 1.433 . S
C1597 N1599 1.384 . S
N1598 C1594 1.427 . S
N1598 C1595 1.384 . S
N1599 C1591 1.427 . S
N1599 C1597 1.384 . S
H1600 C1606 0.930 . S
H1601 C1610 0.930 . S
H1602 C1615 0.929 . S
H1603 C1613 0.929 . S
H1604 C1608 0.929 . S
H1605 C1614 0.929 . S
C1606 H1600 0.930 . S
C1606 C1607 1.367 . S
C1606 C1614 1.378 . S
C1607 C1606 1.367 . S
C1607 C1615 1.433 . S
C1608 H1604 0.929 . S
C1608 C1610 1.378 . S
C1608 C1612 1.350 . S
C1609 C1612 1.463 . S
C1609 C1614 1.350 . S
C1609 N1617 1.427 . S
C1610 H1601 0.930 . S
C1610 C1608 1.378 . S
C1610 C1611 1.367 . S
C1611 C1610 1.367 . S
C1611 C1613 1.433 . S
C1612 C1608 1.350 . S
C1612 C1609 1.463 . S
C1612 N1616 1.427 . S
C1613 H1603 0.929 . S
C1613 C1611 1.433 . S
C1613 N1616 1.384 . S
C1614 H1605 0.929 . S
C1614 C1606 1.378 . S
C1614 C1609 1.350 . S
C1615 H1602 0.929 . S
C1615 C1607 1.433 . S
C1615 N1617 1.384 . S
N1616 C1612 1.427 . S
N1616 C1613 1.384 . S
N1617 C1609 1.427 . S
N1617 C1615 1.384 . S
H1618 C1624 0.930 . S
H1619 C1628 0.930 . S
H1620 C1633 0.929 . S
H1621 C1631 0.929 . S
H1622 C1626 0.929 . S
H1623 C1632 0.929 . S
C1624 H1618 0.930 . S
C1624 C1625 1.367 . S
C1624 C1632 1.378 . S
C1625 C1624 1.367 . S
C1625 C1633 1.433 . S
C1626 H1622 0.929 . S
C1626 C1628 1.378 . S
C1626 C1630 1.350 . S
C1627 C1630 1.463 . S
C1627 C1632 1.350 . S
C1627 N1635 1.427 . S
C1628 H1619 0.930 . S
C1628 C1626 1.378 . S
C1628 C1629 1.367 . S
C1629 C1628 1.367 . S
C1629 C1631 1.433 . S
C1630 C1626 1.350 . S
C1630 C1627 1.463 . S
C1630 N1634 1.427 . S
C1631 H1621 0.929 . S
C1631 C1629 1.433 . S
C1631 N1634 1.384 . S
C1632 H1623 0.929 . S
C1632 C1624 1.378 . S
C1632 C1627 1.350 . S
C1633 H1620 0.929 . S
C1633 C1625 1.433 . S
C1633 N1635 1.384 . S
N1634 C1630 1.427 . S
N1634 C1631 1.384 . S
N1635 C1627 1.427 . S
N1635 C1633 1.384 . S
H1636 C1642 0.930 . S
H1637 C1646 0.930 . S
H1638 C1651 0.929 . S
H1639 C1649 0.929 . S
H1640 C1644 0.929 . S
H1641 C1650 0.929 . S
C1642 H1636 0.930 . S
C1642 C1643 1.367 . S
C1642 C1650 1.378 . S
C1643 C1642 1.367 . S
C1643 C1651 1.433 . S
C1644 H1640 0.929 . S
C1644 C1646 1.378 . S
C1644 C1648 1.350 . S
C1645 C1648 1.463 . S
C1645 C1650 1.350 . S
C1645 N1653 1.427 . S
C1646 H1637 0.930 . S
C1646 C1644 1.378 . S
C1646 C1647 1.367 . S
C1647 C1646 1.367 . S
C1647 C1649 1.433 . S
C1648 C1644 1.350 . S
C1648 C1645 1.463 . S
C1648 N1652 1.427 . S
C1649 H1639 0.929 . S
C1649 C1647 1.433 . S
C1649 N1652 1.384 . S
C1650 H1641 0.929 . S
C1650 C1642 1.378 . S
C1650 C1645 1.350 . S
C1651 H1638 0.929 . S
C1651 C1643 1.433 . S
C1651 N1653 1.384 . S
N1652 C1648 1.427 . S
N1652 C1649 1.384 . S
N1653 C1645 1.427 . S
N1653 C1651 1.384 . S
H1654 C1660 0.930 . S
H1655 C1664 0.930 . S
H1656 C1669 0.929 . S
H1657 C1667 0.929 . S
H1658 C1662 0.929 . S
H1659 C1668 0.929 . S
C1660 H1654 0.930 . S
C1660 C1661 1.367 . S
C1660 C1668 1.378 . S
C1661 C1660 1.367 . S
C1661 C1669 1.433 . S
C1662 H1658 0.929 . S
C1662 C1664 1.378 . S
C1662 C1666 1.350 . S
C1663 C1666 1.463 1_556 S
C1663 C1668 1.350 . S
C1663 N1671 1.427 . S
C1664 H1655 0.930 . S
C1664 C1662 1.378 . S
C1664 C1665 1.367 . S
C1665 C1664 1.367 . S
C1665 C1667 1.433 . S
C1666 C1662 1.350 . S
C1666 C1663 1.463 1_554 S
C1666 N1670 1.427 . S
C1667 H1657 0.929 . S
C1667 C1665 1.433 . S
C1667 N1670 1.384 . S
C1668 H1659 0.929 . S
C1668 C1660 1.378 . S
C1668 C1663 1.350 . S
C1669 H1656 0.929 . S
C1669 C1661 1.433 . S
C1669 N1671 1.384 . S
N1670 C1666 1.427 . S
N1670 C1667 1.384 . S
N1671 C1663 1.427 . S
N1671 C1669 1.384 . S
H1672 C1678 0.930 . S
H1673 C1682 0.930 . S
H1674 C1687 0.929 . S
H1675 C1685 0.929 . S
H1676 C1680 0.929 . S
H1677 C1686 0.929 . S
C1678 H1672 0.930 . S
C1678 C1679 1.367 . S
C1678 C1686 1.378 . S
C1679 C1678 1.367 . S
C1679 C1687 1.433 . S
C1680 H1676 0.929 . S
C1680 C1682 1.378 . S
C1680 C1684 1.350 . S
C1681 C1684 1.463 . S
C1681 C1686 1.350 . S
C1681 N1689 1.427 . S
C1682 H1673 0.930 . S
C1682 C1680 1.378 . S
C1682 C1683 1.367 . S
C1683 C1682 1.367 . S
C1683 C1685 1.433 . S
C1684 C1680 1.350 . S
C1684 C1681 1.463 . S
C1684 N1688 1.427 . S
C1685 H1675 0.929 . S
C1685 C1683 1.433 . S
C1685 N1688 1.384 . S
C1686 H1677 0.929 . S
C1686 C1678 1.378 . S
C1686 C1681 1.350 . S
C1687 H1674 0.929 . S
C1687 C1679 1.433 . S
C1687 N1689 1.384 . S
N1688 C1684 1.427 . S
N1688 C1685 1.384 . S
N1689 C1681 1.427 . S
N1689 C1687 1.384 . S
H1690 C1696 0.930 . S
H1691 C1700 0.930 . S
H1692 C1705 0.929 . S
H1693 C1703 0.929 . S
H1694 C1698 0.929 . S
H1695 C1704 0.929 . S
C1696 H1690 0.930 . S
C1696 C1697 1.367 . S
C1696 C1704 1.378 . S
C1697 C1696 1.367 . S
C1697 C1705 1.433 . S
C1698 H1694 0.929 . S
C1698 C1700 1.378 . S
C1698 C1702 1.350 . S
C1699 C1702 1.463 . S
C1699 C1704 1.350 . S
C1699 N1707 1.427 . S
C1700 H1691 0.930 . S
C1700 C1698 1.378 . S
C1700 C1701 1.367 . S
C1701 C1700 1.367 . S
C1701 C1703 1.433 . S
C1702 C1698 1.350 . S
C1702 C1699 1.463 . S
C1702 N1706 1.427 . S
C1703 H1693 0.929 . S
C1703 C1701 1.433 . S
C1703 N1706 1.384 . S
C1704 H1695 0.929 . S
C1704 C1696 1.378 . S
C1704 C1699 1.350 . S
C1705 H1692 0.929 . S
C1705 C1697 1.433 . S
C1705 N1707 1.384 . S
N1706 C1702 1.427 . S
N1706 C1703 1.384 . S
N1707 C1699 1.427 . S
N1707 C1705 1.384 . S
H1708 C1714 0.930 . S
H1709 C1718 0.930 . S
H1710 C1723 0.929 . S
H1711 C1721 0.929 . S
H1712 C1716 0.929 . S
H1713 C1722 0.929 . S
C1714 H1708 0.930 . S
C1714 C1715 1.367 . S
C1714 C1722 1.378 . S
C1715 C1714 1.367 . S
C1715 C1723 1.433 . S
C1716 H1712 0.929 . S
C1716 C1718 1.378 . S
C1716 C1720 1.350 . S
C1717 C1720 1.463 . S
C1717 C1722 1.350 . S
C1717 N1725 1.427 . S
C1718 H1709 0.930 . S
C1718 C1716 1.378 . S
C1718 C1719 1.367 . S
C1719 C1718 1.367 . S
C1719 C1721 1.433 . S
C1720 C1716 1.350 . S
C1720 C1717 1.463 . S
C1720 N1724 1.427 . S
C1721 H1711 0.929 . S
C1721 C1719 1.433 . S
C1721 N1724 1.384 . S
C1722 H1713 0.929 . S
C1722 C1714 1.378 . S
C1722 C1717 1.350 . S
C1723 H1710 0.929 . S
C1723 C1715 1.433 . S
C1723 N1725 1.384 . S
N1724 C1720 1.427 . S
N1724 C1721 1.384 . S
N1725 C1717 1.427 . S
N1725 C1723 1.384 . S
H1726 C1732 0.930 . S
H1727 C1736 0.930 . S
H1728 C1741 0.929 . S
H1729 C1739 0.929 . S
H1730 C1734 0.929 . S
H1731 C1740 0.929 . S
C1732 H1726 0.930 . S
C1732 C1733 1.368 . S
C1732 C1740 1.378 . S
C1733 C1732 1.368 . S
C1733 C1741 1.432 1_556 S
C1734 H1730 0.929 . S
C1734 C1736 1.378 . S
C1734 C1738 1.377 . S
C1735 C1738 1.461 1_556 S
C1735 C1740 1.377 . S
C1735 N1743 1.400 1_556 S
C1736 H1727 0.930 . S
C1736 C1734 1.378 . S
C1736 C1737 1.368 . S
C1737 C1736 1.368 . S
C1737 C1739 1.432 1_554 S
C1738 C1734 1.377 . S
C1738 C1735 1.461 1_554 S
C1738 N1742 1.400 1_554 S
C1739 H1729 0.929 . S
C1739 C1737 1.432 1_556 S
C1739 N1742 1.384 . S
C1740 H1731 0.929 . S
C1740 C1732 1.378 . S
C1740 C1735 1.377 . S
C1741 H1728 0.929 . S
C1741 C1733 1.432 1_554 S
C1741 N1743 1.384 . S
N1742 C1738 1.400 1_556 S
N1742 C1739 1.384 . S
N1743 C1735 1.400 1_554 S
N1743 C1741 1.384 . S
H1744 C1750 0.930 . S
H1745 C1754 0.930 . S
H1746 C1759 0.929 . S
H1747 C1757 0.929 . S
H1748 C1752 0.929 . S
H1749 C1758 0.929 . S
C1750 H1744 0.930 . S
C1750 C1751 1.367 . S
C1750 C1758 1.378 . S
C1751 C1750 1.367 . S
C1751 C1759 1.433 . S
C1752 H1748 0.929 . S
C1752 C1754 1.378 . S
C1752 C1756 1.350 . S
C1753 C1756 1.463 1_565 S
C1753 C1758 1.350 . S
C1753 N1761 1.427 . S
C1754 H1745 0.930 . S
C1754 C1752 1.378 . S
C1754 C1755 1.367 . S
C1755 C1754 1.367 . S
C1755 C1757 1.433 . S
C1756 C1752 1.350 . S
C1756 C1753 1.463 1_545 S
C1756 N1760 1.427 . S
C1757 H1747 0.929 . S
C1757 C1755 1.433 . S
C1757 N1760 1.384 . S
C1758 H1749 0.929 . S
C1758 C1750 1.378 . S
C1758 C1753 1.350 . S
C1759 H1746 0.929 . S
C1759 C1751 1.433 . S
C1759 N1761 1.384 . S
N1760 C1756 1.427 . S
N1760 C1757 1.384 . S
N1761 C1753 1.427 . S
N1761 C1759 1.384 . S
H1762 C1768 0.930 . S
H1763 C1772 0.930 . S
H1764 C1777 0.929 . S
H1765 C1775 0.929 . S
H1766 C1770 0.929 . S
H1767 C1776 0.929 . S
C1768 H1762 0.930 . S
C1768 C1769 1.367 . S
C1768 C1776 1.378 . S
C1769 C1768 1.367 . S
C1769 C1777 1.433 1_554 S
C1770 H1766 0.929 . S
C1770 C1772 1.378 . S
C1770 C1774 1.350 . S
C1771 C1774 1.463 1_554 S
C1771 C1776 1.350 . S
C1771 N1779 1.427 1_554 S
C1772 H1763 0.930 . S
C1772 C1770 1.378 . S
C1772 C1773 1.367 . S
C1773 C1772 1.367 . S
C1773 C1775 1.433 1_556 S
C1774 C1770 1.350 . S
C1774 C1771 1.463 1_556 S
C1774 N1778 1.427 1_556 S
C1775 H1765 0.929 . S
C1775 C1773 1.433 1_554 S
C1775 N1778 1.384 . S
C1776 H1767 0.929 . S
C1776 C1768 1.378 . S
C1776 C1771 1.350 . S
C1777 H1764 0.929 . S
C1777 C1769 1.433 1_556 S
C1777 N1779 1.384 . S
N1778 C1774 1.427 1_554 S
N1778 C1775 1.384 . S
N1779 C1771 1.427 1_556 S
N1779 C1777 1.384 . S
H1780 C1786 0.930 . S
H1781 C1790 0.930 . S
H1782 C1795 0.929 . S
H1783 C1793 0.929 . S
H1784 C1788 0.929 . S
H1785 C1794 0.929 . S
C1786 H1780 0.930 . S
C1786 C1787 1.367 . S
C1786 C1794 1.378 . S
C1787 C1786 1.367 . S
C1787 C1795 1.433 . S
C1788 H1784 0.929 . S
C1788 C1790 1.378 . S
C1788 C1792 1.350 . S
C1789 C1792 1.463 1_545 S
C1789 C1794 1.350 . S
C1789 N1797 1.427 . S
C1790 H1781 0.930 . S
C1790 C1788 1.378 . S
C1790 C1791 1.367 . S
C1791 C1790 1.367 . S
C1791 C1793 1.433 . S
C1792 C1788 1.350 . S
C1792 C1789 1.463 1_565 S
C1792 N1796 1.427 . S
C1793 H1783 0.929 . S
C1793 C1791 1.433 . S
C1793 N1796 1.384 . S
C1794 H1785 0.929 . S
C1794 C1786 1.378 . S
C1794 C1789 1.350 . S
C1795 H1782 0.929 . S
C1795 C1787 1.433 . S
C1795 N1797 1.384 . S
N1796 C1792 1.427 . S
N1796 C1793 1.384 . S
N1797 C1789 1.427 . S
N1797 C1795 1.384 . S
H1798 C1804 0.930 . S
H1799 C1808 0.930 . S
H1800 C1813 0.929 . S
H1801 C1811 0.929 . S
H1802 C1806 0.929 . S
H1803 C1812 0.929 . S
C1804 H1798 0.930 . S
C1804 C1805 1.367 . S
C1804 C1812 1.378 . S
C1805 C1804 1.367 . S
C1805 C1813 1.433 . S
C1806 H1802 0.929 . S
C1806 C1808 1.378 . S
C1806 C1810 1.350 . S
C1807 C1810 1.463 . S
C1807 C1812 1.350 . S
C1807 N1815 1.427 . S
C1808 H1799 0.930 . S
C1808 C1806 1.378 . S
C1808 C1809 1.367 . S
C1809 C1808 1.367 . S
C1809 C1811 1.433 . S
C1810 C1806 1.350 . S
C1810 C1807 1.463 . S
C1810 N1814 1.427 . S
C1811 H1801 0.929 . S
C1811 C1809 1.433 . S
C1811 N1814 1.384 . S
C1812 H1803 0.929 . S
C1812 C1804 1.378 . S
C1812 C1807 1.350 . S
C1813 H1800 0.929 . S
C1813 C1805 1.433 . S
C1813 N1815 1.384 . S
N1814 C1810 1.427 . S
N1814 C1811 1.384 . S
N1815 C1807 1.427 . S
N1815 C1813 1.384 . S
H1816 C1822 0.930 . S
H1817 C1826 0.930 . S
H1818 C1831 0.929 . S
H1819 C1829 0.929 . S
H1820 C1824 0.929 . S
H1821 C1830 0.929 . S
C1822 H1816 0.930 . S
C1822 C1823 1.367 . S
C1822 C1830 1.378 . S
C1823 C1822 1.367 . S
C1823 C1831 1.433 . S
C1824 H1820 0.929 . S
C1824 C1826 1.378 . S
C1824 C1828 1.350 . S
C1825 C1828 1.463 1_545 S
C1825 C1830 1.350 . S
C1825 N1833 1.427 . S
C1826 H1817 0.930 . S
C1826 C1824 1.378 . S
C1826 C1827 1.367 . S
C1827 C1826 1.367 . S
C1827 C1829 1.433 . S
C1828 C1824 1.350 . S
C1828 C1825 1.463 1_565 S
C1828 N1832 1.427 . S
C1829 H1819 0.929 . S
C1829 C1827 1.433 . S
C1829 N1832 1.384 . S
C1830 H1821 0.929 . S
C1830 C1822 1.378 . S
C1830 C1825 1.350 . S
C1831 H1818 0.929 . S
C1831 C1823 1.433 . S
C1831 N1833 1.384 . S
N1832 C1828 1.427 . S
N1832 C1829 1.384 . S
N1833 C1825 1.427 . S
N1833 C1831 1.384 . S
H1834 C1840 0.930 . S
H1835 C1844 0.930 . S
H1836 C1849 0.929 . S
H1837 C1847 0.929 . S
H1838 C1842 0.929 . S
H1839 C1848 0.929 . S
C1840 H1834 0.930 . S
C1840 C1841 1.369 . S
C1840 C1848 1.378 . S
C1841 C1840 1.369 . S
C1841 C1849 1.431 1_554 S
C1842 H1838 0.929 . S
C1842 C1844 1.378 . S
C1842 C1846 1.350 . S
C1843 C1846 1.462 1_554 S
C1843 C1848 1.350 . S
C1843 N1851 1.427 1_554 S
C1844 H1835 0.930 . S
C1844 C1842 1.378 . S
C1844 C1845 1.369 . S
C1845 C1844 1.369 . S
C1845 C1847 1.431 1_556 S
C1846 C1842 1.350 . S
C1846 C1843 1.462 1_556 S
C1846 N1850 1.427 1_556 S
C1847 H1837 0.929 . S
C1847 C1845 1.431 1_554 S
C1847 N1850 1.384 . S
C1848 H1839 0.929 . S
C1848 C1840 1.378 . S
C1848 C1843 1.350 . S
C1849 H1836 0.929 . S
C1849 C1841 1.431 1_556 S
C1849 N1851 1.384 . S
N1850 C1846 1.427 1_554 S
N1850 C1847 1.384 . S
N1851 C1843 1.427 1_556 S
N1851 C1849 1.384 . S
H1852 C1858 0.930 . S
H1853 C1862 0.930 . S
H1854 C1867 0.929 . S
H1855 C1865 0.929 . S
H1856 C1860 0.929 . S
H1857 C1866 0.929 . S
C1858 H1852 0.930 . S
C1858 C1859 1.367 . S
C1858 C1866 1.378 . S
C1859 C1858 1.367 . S
C1859 C1867 1.433 . S
C1860 H1856 0.929 . S
C1860 C1862 1.378 . S
C1860 C1864 1.350 . S
C1861 C1864 1.463 1_545 S
C1861 C1866 1.350 . S
C1861 N1869 1.427 . S
C1862 H1853 0.930 . S
C1862 C1860 1.378 . S
C1862 C1863 1.367 . S
C1863 C1862 1.367 . S
C1863 C1865 1.433 . S
C1864 C1860 1.350 . S
C1864 C1861 1.463 1_565 S
C1864 N1868 1.427 . S
C1865 H1855 0.929 . S
C1865 C1863 1.433 . S
C1865 N1868 1.384 . S
C1866 H1857 0.929 . S
C1866 C1858 1.378 . S
C1866 C1861 1.350 . S
C1867 H1854 0.929 . S
C1867 C1859 1.433 . S
C1867 N1869 1.384 . S
N1868 C1864 1.427 . S
N1868 C1865 1.384 . S
N1869 C1861 1.427 . S
N1869 C1867 1.384 . S
H1870 C1876 0.930 . S
H1871 C1880 0.930 . S
H1872 C1885 0.929 . S
H1873 C1883 0.929 . S
H1874 C1878 0.929 . S
H1875 C1884 0.929 . S
C1876 H1870 0.930 . S
C1876 C1877 1.367 . S
C1876 C1884 1.378 . S
C1877 C1876 1.367 . S
C1877 C1885 1.433 . S
C1878 H1874 0.929 . S
C1878 C1880 1.378 . S
C1878 C1882 1.350 . S
C1879 C1882 1.463 . S
C1879 C1884 1.350 . S
C1879 N1887 1.427 . S
C1880 H1871 0.930 . S
C1880 C1878 1.378 . S
C1880 C1881 1.367 . S
C1881 C1880 1.367 . S
C1881 C1883 1.433 . S
C1882 C1878 1.350 . S
C1882 C1879 1.463 . S
C1882 N1886 1.427 . S
C1883 H1873 0.929 . S
C1883 C1881 1.433 . S
C1883 N1886 1.384 . S
C1884 H1875 0.929 . S
C1884 C1876 1.378 . S
C1884 C1879 1.350 . S
C1885 H1872 0.929 . S
C1885 C1877 1.433 . S
C1885 N1887 1.384 . S
N1886 C1882 1.427 . S
N1886 C1883 1.384 . S
N1887 C1879 1.427 . S
N1887 C1885 1.384 . S
C743 C7 2.154 . S
C747 N485 1.970 . S
C761 C513 2.147 . S
C765 N25 1.987 . S
C779 C53 2.154 . S
C783 N531 1.970 . S
C797 C467 2.153 . S
C801 N71 1.970 . S
C815 C99 2.146 . S
C819 N439 1.986 . S
C833 N117 1.980 . S
C837 C375 2.153 . S
C851 N393 1.983 . S
C855 C145 2.152 . S
C869 N163 1.975 . S
C873 C421 2.148 . S
C887 C191 2.411 . S
C891 C674 2.393 . S
C905 C214 2.391 . S
C909 C697 2.409 . S
C923 C720 2.391 . S
C927 C237 2.409 . S
C941 C651 2.408 . S
C945 C260 2.397 . S
C959 C283 2.410 . S
C963 C628 2.394 . S
C977 C559 2.406 . S
C981 C306 2.393 . S
C995 C329 2.408 . S
C999 C582 2.398 . S
C1013 C605 2.407 . S
C1017 C352 2.392 . S
C1031 N2 1.858 . S
C1035 C223 1.806 . S
C1049 C30 2.052 . S
C1053 C614 1.950 . S
C1067 C269 1.813 . S
C1071 N48 1.860 . S
C1085 C76 2.049 . S
C1089 C568 1.954 . S
C1103 N94 1.864 . S
C1107 C361 1.801 . S
C1121 C660 1.957 . S
C1125 C122 2.051 . S
C1139 C315 1.801 . S
C1143 N140 1.866 . S
C1157 C706 1.946 . S
C1161 C168 2.050 . S
C1175 N186 1.617 . S
C1179 N35 1.644 . S
C1193 C430 1.401 . S
C1197 N209 1.407 . S
C1211 N81 1.654 . S
C1215 N232 1.612 . S
C1229 N255 1.408 . S
C1233 C384 1.394 . S
C1247 N173 1.644 . S
C1251 N278 1.607 . S
C1265 C476 1.397 . S
C1269 N301 1.424 . S
C1283 N127 1.650 . S
C1287 N324 1.618 . S
C1301 N347 1.413 . S
C1305 C522 1.390 . S
C1319 C591 1.815 . S
C1323 N370 1.862 . S
C1337 C246 1.950 . S
C1341 C398 2.050 . S
C1355 C637 1.815 . S
C1359 N416 1.862 . S
C1373 C444 2.052 . S
C1377 C200 1.946 . S
C1391 C729 1.814 . S
C1395 N462 1.861 . S
C1409 C292 1.947 . S
C1413 C490 2.052 . S
C1427 C683 1.800 . S
C1431 N508 1.864 . S
C1445 C536 2.052 . S
C1449 C338 1.947 . S
C1463 N554 1.605 . S
C1467 N403 1.645 . S
C1481 C62 1.395 . S
C1485 N577 1.423 . S
C1499 N600 1.615 . S
C1503 N449 1.643 . S
C1517 N623 1.409 . S
C1521 C16 1.392 . S
C1535 N646 1.607 . S
C1539 N541 1.655 . S
C1553 C108 1.399 . S
C1557 N669 1.424 . S
C1571 N495 1.644 . S
C1575 N692 1.606 . S
C1589 N715 1.423 . S
C1593 C154 1.395 . S
C1607 N12 1.548 . S
C1611 N104 1.546 . S
C1625 C39 1.727 . S
C1629 C131 1.729 . S
C1643 N150 1.555 . S
C1647 N58 1.560 . S
C1661 C177 1.735 . S
C1665 C85 1.730 . S
C1679 N288 1.450 . S
C1683 N196 1.455 . S
C1697 N311 1.346 . S
C1701 N219 1.355 . S
C1715 N334 1.449 . S
C1719 N242 1.451 . S
C1733 N357 1.357 1_556 S
C1737 N265 1.357 1_554 S
C1751 N380 1.556 . S
C1755 N472 1.560 . S
C1769 C407 1.729 . S
C1773 C499 1.727 . S
C1787 N426 1.554 . S
C1791 N518 1.547 . S
C1805 C545 1.737 . S
C1809 C453 1.734 . S
C1823 N564 1.459 . S
C1827 N656 1.465 . S
C1841 N679 1.350 . S
C1845 N587 1.359 . S
C1859 N702 1.449 . S
C1863 N610 1.452 . S
C1877 N725 1.344 . S
C1881 N633 1.353 . S
