# Generated by pormake.
# Topology wkf, (6)-cn, num edge types: 1
# Building blocks:
#     Node 0, Type 0, BuildingBlock: IZENUY_clean_sbu_0, # of connection points: 6
#     Node 1, Type 0, BuildingBlock: IZENUY_clean_sbu_0, # of connection points: 6
#     Node 2, Type 0, BuildingBlock: IZENUY_clean_sbu_0, # of connection points: 6
#     Node 3, Type 0, BuildingBlock: IZENUY_clean_sbu_0, # of connection points: 6
#     Node 4, Type 0, BuildingBlock: IZENUY_clean_sbu_0, # of connection points: 6
#     Node 5, Type 0, BuildingBlock: IZENUY_clean_sbu_0, # of connection points: 6
#     Node 6, Type 0, BuildingBlock: IZENUY_clean_sbu_0, # of connection points: 6
#     Node 7, Type 0, BuildingBlock: IZENUY_clean_sbu_0, # of connection points: 6
#     Node 8, Type 0, BuildingBlock: IZENUY_clean_sbu_0, # of connection points: 6
#     Node 9, Type 0, BuildingBlock: IZENUY_clean_sbu_0, # of connection points: 6
#     Node 10, Type 0, BuildingBlock: IZENUY_clean_sbu_0, # of connection points: 6
#     Node 11, Type 0, BuildingBlock: IZENUY_clean_sbu_0, # of connection points: 6
#     Edge 12, Type (0, 0), BuildingBlock: MIFKUJ_clean_linker_0, # of connection points: 2
#     Edge 13, Type (0, 0), BuildingBlock: MIFKUJ_clean_linker_0, # of connection points: 2
#     Edge 14, Type (0, 0), BuildingBlock: MIFKUJ_clean_linker_0, # of connection points: 2
#     Edge 15, Type (0, 0), BuildingBlock: MIFKUJ_clean_linker_0, # of connection points: 2
#     Edge 16, Type (0, 0), BuildingBlock: MIFKUJ_clean_linker_0, # of connection points: 2
#     Edge 17, Type (0, 0), BuildingBlock: MIFKUJ_clean_linker_0, # of connection points: 2
#     Edge 18, Type (0, 0), BuildingBlock: MIFKUJ_clean_linker_0, # of connection points: 2
#     Edge 19, Type (0, 0), BuildingBlock: MIFKUJ_clean_linker_0, # of connection points: 2
#     Edge 20, Type (0, 0), BuildingBlock: MIFKUJ_clean_linker_0, # of connection points: 2
#     Edge 21, Type (0, 0), BuildingBlock: MIFKUJ_clean_linker_0, # of connection points: 2
#     Edge 22, Type (0, 0), BuildingBlock: MIFKUJ_clean_linker_0, # of connection points: 2
#     Edge 23, Type (0, 0), BuildingBlock: MIFKUJ_clean_linker_0, # of connection points: 2
#     Edge 24, Type (0, 0), BuildingBlock: MIFKUJ_clean_linker_0, # of connection points: 2
#     Edge 25, Type (0, 0), BuildingBlock: MIFKUJ_clean_linker_0, # of connection points: 2
#     Edge 26, Type (0, 0), BuildingBlock: MIFKUJ_clean_linker_0, # of connection points: 2
#     Edge 27, Type (0, 0), BuildingBlock: MIFKUJ_clean_linker_0, # of connection points: 2
#     Edge 28, Type (0, 0), BuildingBlock: MIFKUJ_clean_linker_0, # of connection points: 2
#     Edge 29, Type (0, 0), BuildingBlock: MIFKUJ_clean_linker_0, # of connection points: 2
#     Edge 30, Type (0, 0), BuildingBlock: MIFKUJ_clean_linker_0, # of connection points: 2
#     Edge 31, Type (0, 0), BuildingBlock: MIFKUJ_clean_linker_0, # of connection points: 2
#     Edge 32, Type (0, 0), BuildingBlock: MIFKUJ_clean_linker_0, # of connection points: 2
#     Edge 33, Type (0, 0), BuildingBlock: MIFKUJ_clean_linker_0, # of connection points: 2
#     Edge 34, Type (0, 0), BuildingBlock: MIFKUJ_clean_linker_0, # of connection points: 2
#     Edge 35, Type (0, 0), BuildingBlock: MIFKUJ_clean_linker_0, # of connection points: 2
#     Edge 36, Type (0, 0), BuildingBlock: MIFKUJ_clean_linker_0, # of connection points: 2
#     Edge 37, Type (0, 0), BuildingBlock: MIFKUJ_clean_linker_0, # of connection points: 2
#     Edge 38, Type (0, 0), BuildingBlock: MIFKUJ_clean_linker_0, # of connection points: 2
#     Edge 39, Type (0, 0), BuildingBlock: MIFKUJ_clean_linker_0, # of connection points: 2
#     Edge 40, Type (0, 0), BuildingBlock: MIFKUJ_clean_linker_0, # of connection points: 2
#     Edge 41, Type (0, 0), BuildingBlock: MIFKUJ_clean_linker_0, # of connection points: 2
#     Edge 42, Type (0, 0), BuildingBlock: MIFKUJ_clean_linker_0, # of connection points: 2
#     Edge 43, Type (0, 0), BuildingBlock: MIFKUJ_clean_linker_0, # of connection points: 2
#     Edge 44, Type (0, 0), BuildingBlock: MIFKUJ_clean_linker_0, # of connection points: 2
#     Edge 45, Type (0, 0), BuildingBlock: MIFKUJ_clean_linker_0, # of connection points: 2
#     Edge 46, Type (0, 0), BuildingBlock: MIFKUJ_clean_linker_0, # of connection points: 2
#     Edge 47, Type (0, 0), BuildingBlock: MIFKUJ_clean_linker_0, # of connection points: 2
# Relax obj value: 0.283
# Max RMSD: 0.255
# Mean RMSD: 0.255
data_MOF--net-wkf--node1-IZENUY_clean_sbu_0--edge1-MIFKUJ_clean_linker_0
_symmetry_space_group_name_H-M    P1
_symmetry_Int_Tables_number       1
_symmetry_cell_setting            triclinic
loop_
_symmetry_equiv_pos_as_xyz
'x, y, z'
_cell_length_a     34.295554
_cell_length_b     34.37922
_cell_length_c     95.399773
_cell_angle_alpha  90.032326
_cell_angle_beta   90.110483
_cell_angle_gamma 119.95839
loop_
_atom_site_label
_atom_site_type_symbol
_atom_site_fract_x
_atom_site_fract_y
_atom_site_fract_z
_atom_type_partial_charge
Fe0 Fe 0.41754 0.12203 0.35097 0.0
Fe1 Fe 0.32652 0.08982 0.36514 0.0
O2 O 0.38257 0.10087 0.36591 0.0
Fe3 Fe 0.40469 0.09152 0.38151 0.0
O4 O 0.46194 0.13826 0.37845 0.0
O5 O 0.45479 0.17366 0.3603 0.0
O6 O 0.38957 0.15047 0.3435 0.0
C7 C 0.36692 0.16557 0.34931 0.0
C8 C 0.44169 0.06182 0.36218 0.0
O9 O 0.34423 0.14719 0.36011 0.0
C10 C 0.31493 0.01882 0.38111 0.0
O11 O 0.38123 0.07158 0.34113 0.0
O12 O 0.31811 0.07008 0.34694 0.0
O13 O 0.41592 0.05131 0.37263 0.0
O14 O 0.45236 0.0972 0.35536 0.0
C15 C 0.35775 0.13085 0.39162 0.0
O16 O 0.30414 0.03189 0.37021 0.0
O17 O 0.3515 0.04393 0.38743 0.0
C18 C 0.33942 0.05623 0.33952 0.0
O19 O 0.32603 0.10739 0.38318 0.0
O20 O 0.39456 0.13091 0.39125 0.0
C21 C 0.47388 0.17422 0.3717 0.0
Fe22 Fe 0.28291 0.39886 0.54169 0.0
Fe23 Fe 0.25227 0.41111 0.51255 0.0
O24 O 0.24464 0.37753 0.52749 0.0
Fe25 Fe 0.1984 0.32195 0.5282 0.0
O26 O 0.17581 0.3354 0.54322 0.0
O27 O 0.23949 0.3682 0.55514 0.0
O28 O 0.27198 0.44417 0.54437 0.0
C29 C 0.27536 0.47216 0.53529 0.0
C30 C 0.26816 0.3139 0.54145 0.0
O31 O 0.27553 0.46443 0.52231 0.0
C32 C 0.22864 0.32597 0.50159 0.0
O33 O 0.33254 0.43397 0.5308 0.0
O34 O 0.30707 0.41859 0.50917 0.0
O35 O 0.22684 0.30008 0.53932 0.0
O36 O 0.29675 0.35477 0.54001 0.0
C37 C 0.16157 0.36988 0.51528 0.0
O38 O 0.23057 0.36361 0.5002 0.0
O39 O 0.21935 0.30614 0.51324 0.0
C40 C 0.33926 0.43456 0.51772 0.0
O41 O 0.1981 0.40628 0.51485 0.0
O42 O 0.16059 0.3331 0.51737 0.0
C43 C 0.197 0.35109 0.55453 0.0
Fe44 Fe 0.91898 0.31086 0.71724 0.0
Fe45 Fe 0.86763 0.30224 0.68994 0.0
O46 O 0.8922 0.28107 0.70173 0.0
Fe47 Fe 0.89 0.22955 0.69803 0.0
O48 O 0.85687 0.20444 0.71359 0.0
O49 O 0.90247 0.25965 0.7276 0.0
O50 O 0.86805 0.30769 0.7234 0.0
C51 C 0.84371 0.31913 0.71675 0.0
C52 C 0.97631 0.28142 0.7105 0.0
O53 O 0.84847 0.32654 0.70366 0.0
C54 C 0.9133 0.27101 0.6727 0.0
O55 O 0.93932 0.36725 0.70974 0.0
O56 O 0.92015 0.35343 0.68756 0.0
O57 O 0.94246 0.24395 0.70731 0.0
O58 O 0.97198 0.31547 0.71209 0.0
C59 C 0.80541 0.21358 0.68837 0.0
O60 O 0.88314 0.28184 0.67421 0.0
O61 O 0.92309 0.25266 0.68246 0.0
C62 C 0.94402 0.37985 0.69709 0.0
O63 O 0.81302 0.25227 0.69145 0.0
O64 O 0.83721 0.20505 0.68794 0.0
C65 C 0.87038 0.21974 0.72577 0.0
Fe66 Fe 0.59624 0.8295 0.84438 0.0
Fe67 Fe 0.68095 0.866 0.86258 0.0
O68 O 0.62508 0.8544 0.86017 0.0
Fe69 Fe 0.59668 0.86573 0.87356 0.0
O70 O 0.54111 0.81836 0.86907 0.0
O71 O 0.55583 0.77953 0.85382 0.0
O72 O 0.62747 0.80085 0.8404 0.0
C73 C 0.64434 0.78546 0.84893 0.0
C74 C 0.56738 0.89086 0.85083 0.0
O75 O 0.66431 0.80743 0.8597 0.0
C76 C 0.68612 0.93927 0.87548 0.0
O77 O 0.63557 0.8778 0.83457 0.0
O78 O 0.69671 0.8824 0.84407 0.0
O79 O 0.58899 0.90369 0.86222 0.0
O80 O 0.56008 0.85458 0.84512 0.0
C81 C 0.63841 0.82842 0.88832 0.0
O82 O 0.70119 0.92476 0.86603 0.0
O83 O 0.64729 0.91465 0.88057 0.0
C84 C 0.67764 0.89365 0.83471 0.0
O85 O 0.67407 0.85217 0.88137 0.0
O86 O 0.60232 0.82788 0.88541 0.0
C87 C 0.53225 0.7812 0.86367 0.0
Fe88 Fe 0.70483 0.56313 0.0253 0.0
Fe89 Fe 0.7641 0.66561 0.0274 0.0
O90 O 0.72182 0.61383 0.03453 0.0
Fe91 Fe 0.69758 0.61343 0.05093 0.0
O92 O 0.71494 0.57665 0.05848 0.0
O93 O 0.69593 0.52869 0.04106 0.0
O94 O 0.76146 0.57256 0.02526 0.0
C95 C 0.79468 0.60606 0.01994 0.0
C96 C 0.62359 0.54885 0.03494 0.0
O97 O 0.79343 0.64162 0.01762 0.0
C98 C 0.70512 0.69009 0.04057 0.0
O99 O 0.71049 0.58907 0.00789 0.0
O100 O 0.72906 0.65932 0.01254 0.0
O101 O 0.64115 0.56702 0.04655 0.0
O102 O 0.64711 0.54967 0.02474 0.0
C103 C 0.79054 0.67319 0.05459 0.0
O104 O 0.74351 0.70023 0.03582 0.0
O105 O 0.67864 0.65071 0.04459 0.0
C106 C 0.71251 0.62578 0.00443 0.0
O107 O 0.80107 0.67381 0.04192 0.0
O108 O 0.75015 0.65948 0.05823 0.0
C109 C 0.70897 0.54015 0.0536 0.0
Fe110 Fe 0.12336 0.80309 0.18914 0.0
Fe111 Fe 0.0923 0.71319 0.20375 0.0
O112 O 0.12334 0.75167 0.19037 0.0
Fe113 Fe 0.15506 0.73941 0.17843 0.0
O114 O 0.20637 0.78873 0.18378 0.0
O115 O 0.18042 0.83525 0.18193 0.0
O116 O 0.14854 0.81971 0.2063 0.0
C117 C 0.13202 0.79698 0.21726 0.0
C118 C 0.11487 0.77807 0.16182 0.0
O119 O 0.10023 0.75664 0.21657 0.0
C120 C 0.07994 0.65715 0.18029 0.0
O121 O 0.06601 0.78035 0.19611 0.0
O122 O 0.04041 0.70781 0.19727 0.0
O123 O 0.14542 0.76791 0.16357 0.0
O124 O 0.09871 0.78877 0.17198 0.0
C125 C 0.1703 0.71015 0.20447 0.0
O126 O 0.0794 0.66294 0.1934 0.0
O127 O 0.1058 0.68905 0.17245 0.0
C128 C 0.03336 0.74037 0.19659 0.0
O129 O 0.14236 0.71675 0.21104 0.0
O130 O 0.1699 0.70863 0.19119 0.0
C131 C 0.21272 0.82797 0.18361 0.0
Fe132 Fe 0.82819 0.57725 0.48171 0.0
Fe133 Fe 0.87071 0.66881 0.46724 0.0
O134 O 0.85777 0.61215 0.46741 0.0
Fe135 Fe 0.87355 0.58961 0.45331 0.0
O136 O 0.82442 0.53317 0.45488 0.0
O137 O 0.78126 0.54123 0.47029 0.0
O138 O 0.79796 0.60672 0.48622 0.0
C139 C 0.78685 0.6296 0.47861 0.0
C140 C 0.89086 0.55001 0.47511 0.0
O141 O 0.81178 0.65277 0.46871 0.0
C142 C 0.94823 0.67746 0.45628 0.0
O143 O 0.87389 0.61205 0.49346 0.0
O144 O 0.88024 0.67602 0.48634 0.0
O145 O 0.90714 0.57593 0.46475 0.0
O146 O 0.85326 0.54126 0.48015 0.0
C147 C 0.84339 0.63919 0.43937 0.0
O148 O 0.93038 0.68918 0.46565 0.0
O149 O 0.92507 0.64206 0.44919 0.0
C150 C 0.89009 0.65384 0.49489 0.0
O151 O 0.86366 0.67075 0.44818 0.0
O152 O 0.84075 0.60163 0.4411 0.0
C153 C 0.78585 0.5221 0.45963 0.0
Fe154 Fe 0.27942 0.86018 0.63829 0.0
Fe155 Fe 0.22383 0.90476 0.63145 0.0
O156 O 0.26804 0.8945 0.62723 0.0
Fe157 Fe 0.30065 0.91864 0.61205 0.0
O158 O 0.28497 0.86436 0.605 0.0
O159 O 0.29783 0.83677 0.62405 0.0
O160 O 0.22359 0.81316 0.63556 0.0
C161 C 0.18833 0.81361 0.63883 0.0
C162 C 0.36444 0.92773 0.63249 0.0
O163 O 0.18905 0.85056 0.64048 0.0
C164 C 0.29085 0.98839 0.62059 0.0
O165 O 0.26337 0.87799 0.65453 0.0
O166 O 0.25211 0.9325 0.64742 0.0
O167 O 0.35345 0.92609 0.61971 0.0
O168 O 0.33557 0.9052 0.64163 0.0
C169 C 0.21122 0.88935 0.6034 0.0
O170 O 0.25002 0.96053 0.62326 0.0
O171 O 0.31808 0.97484 0.61809 0.0
C172 C 0.26387 0.91462 0.65678 0.0
O173 O 0.19432 0.87789 0.61548 0.0
O174 O 0.25332 0.91477 0.60174 0.0
C175 C 0.28925 0.83429 0.61105 0.0
Fe176 Fe 0.41084 0.24407 0.8176 0.0
Fe177 Fe 0.31572 0.18423 0.80566 0.0
O178 O 0.37023 0.23203 0.80427 0.0
Fe179 Fe 0.38478 0.26774 0.78949 0.0
O180 O 0.44386 0.28246 0.78943 0.0
O181 O 0.44845 0.23874 0.80536 0.0
O182 O 0.38984 0.18573 0.82252 0.0
C183 C 0.36742 0.15019 0.81551 0.0
C184 C 0.42311 0.32855 0.81067 0.0
O185 O 0.33873 0.14688 0.80665 0.0
C186 C 0.29489 0.24519 0.79485 0.0
O187 O 0.37583 0.25001 0.83047 0.0
O188 O 0.31299 0.18822 0.82481 0.0
O189 O 0.39609 0.31543 0.80045 0.0
O190 O 0.43889 0.30479 0.8153 0.0
C191 C 0.3388 0.18446 0.77732 0.0
O192 O 0.28843 0.21773 0.80454 0.0
O193 O 0.32841 0.25915 0.7868 0.0
C194 C 0.33562 0.22088 0.83306 0.0
O195 O 0.3093 0.1725 0.78682 0.0
O196 O 0.3744 0.22214 0.77776 0.0
C197 C 0.46183 0.26069 0.7941 0.0
Fe198 Fe 0.10444 0.33908 0.96875 0.0
Fe199 Fe 0.08673 0.3895 0.94546 0.0
O200 O 0.10737 0.38885 0.96245 0.0
Fe201 Fe 0.13047 0.43729 0.97316 0.0
O202 O 0.18317 0.43834 0.97488 0.0
O203 O 0.1543 0.36724 0.98018 0.0
O204 O 0.1414 0.341 0.955 0.0
C205 C 0.13262 0.34083 0.94215 0.0
C206 C 0.07553 0.36608 0.99138 0.0
O207 O 0.10273 0.34985 0.93808 0.0
C208 C 0.05915 0.4402 0.96152 0.0
O209 O 0.05399 0.30098 0.95853 0.0
O210 O 0.03072 0.34503 0.94998 0.0
O211 O 0.10802 0.4057 0.98956 0.0
O212 O 0.06734 0.33532 0.98266 0.0
C213 C 0.16564 0.46978 0.94616 0.0
O214 O 0.06786 0.42985 0.94969 0.0
O215 O 0.07942 0.43955 0.97238 0.0
C216 C 0.02289 0.30647 0.95347 0.0
O217 O 0.14105 0.43321 0.93995 0.0
O218 O 0.15681 0.47684 0.9585 0.0
C219 C 0.18737 0.40686 0.97986 0.0
Fe220 Fe 0.79903 0.12028 0.13169 0.0
Fe221 Fe 0.7152 0.12386 0.12241 0.0
O222 O 0.75657 0.13378 0.13521 0.0
Fe223 Fe 0.75571 0.15869 0.1514 0.0
O224 O 0.81653 0.18785 0.15421 0.0
O225 O 0.84296 0.17784 0.13453 0.0
O226 O 0.80359 0.1354 0.11304 0.0
C227 C 0.7922 0.1609 0.10684 0.0
C228 C 0.77342 0.09338 0.15993 0.0
O229 O 0.75746 0.16204 0.11042 0.0
C230 C 0.66466 0.09677 0.14601 0.0
O231 O 0.75827 0.06192 0.12823 0.0
O232 O 0.71503 0.07525 0.11446 0.0
O233 O 0.74856 0.11058 0.16091 0.0
O234 O 0.80101 0.10288 0.14988 0.0
C235 C 0.73797 0.20817 0.1329 0.0
O236 O 0.67096 0.08552 0.134 0.0
O237 O 0.69424 0.13288 0.15173 0.0
C238 C 0.72805 0.04903 0.11897 0.0
O239 O 0.70824 0.17112 0.12781 0.0
O240 O 0.76353 0.20894 0.14254 0.0
C241 C 0.84751 0.20096 0.14525 0.0
Fe242 Fe 0.58294 0.66938 0.27541 0.0
Fe243 Fe 0.55602 0.68426 0.30468 0.0
O244 O 0.59558 0.70155 0.29097 0.0
Fe245 Fe 0.64804 0.75162 0.29284 0.0
O246 O 0.63542 0.77653 0.27815 0.0
O247 O 0.61421 0.71878 0.26395 0.0
O248 O 0.53451 0.67485 0.27197 0.0
C249 C 0.50227 0.66429 0.28022 0.0
C250 C 0.67064 0.69432 0.27762 0.0
O251 O 0.50604 0.65937 0.29322 0.0
C252 C 0.63922 0.71396 0.31854 0.0
O253 O 0.5486 0.6146 0.28414 0.0
O254 O 0.55541 0.63223 0.3065 0.0
O255 O 0.67907 0.73293 0.28158 0.0
O256 O 0.63096 0.66187 0.2777 0.0
C257 C 0.58728 0.77368 0.30549 0.0
O258 O 0.59882 0.70582 0.31868 0.0
O259 O 0.66293 0.72879 0.30764 0.0
C260 C 0.54452 0.60349 0.29696 0.0
O261 O 0.55403 0.73523 0.30364 0.0
O262 O 0.62693 0.78035 0.30429 0.0
C263 C 0.62592 0.75974 0.26599 0.0
H264 H 0.08891 0.77424 0.24256 0.0
H265 H 0.11946 0.8105 0.26529 0.0
H266 H 0.24554 0.90202 0.24553 0.0
H267 H 0.21518 0.8668 0.22283 0.0
H268 H 0.24973 0.85842 0.27224 0.0
H269 H 0.18249 0.941 0.25054 0.0
H270 H 0.11845 0.94454 0.24011 0.0
H271 H 0.0418 0.88905 0.27769 0.0
H272 H 0.10525 0.88463 0.28826 0.0
H273 H 0.37468 0.04386 0.31544 0.0
H274 H 0.33365 0.9927 0.29619 0.0
H275 H 0.20899 0.9448 0.31879 0.0
H276 H 0.24965 -0.00261 0.3378 0.0
H277 H 0.19566 0.95565 0.29279 0.0
H278 H 0.25988 0.88012 0.31621 0.0
H279 H 0.32163 0.87682 0.32836 0.0
H280 H 0.39739 0.91089 0.29012 0.0
H281 H 0.33623 0.91494 0.27774 0.0
C282 C 0.12312 0.80208 0.2431 0.0
C283 C 0.14957 0.81814 0.23096 0.0
C284 C 0.14047 0.82256 0.25604 0.0
C285 C 0.18465 0.85868 0.25698 0.0
C286 C 0.21141 0.87401 0.24494 0.0
C287 C 0.19388 0.85418 0.232 0.0
C288 C 0.20268 0.88236 0.27034 0.0
C289 C 0.23809 0.87976 0.27677 0.0
C290 C 0.18617 0.90875 0.27642 0.0
C291 C 0.14836 0.91199 0.27012 0.0
C292 C 0.15184 0.92921 0.25653 0.0
C293 C 0.11569 0.93145 0.2506 0.0
C294 C 0.07602 0.91689 0.25822 0.0
C295 C 0.0725 0.90023 0.2718 0.0
C296 C 0.10855 0.89788 0.27776 0.0
C297 C 0.33857 0.02229 0.31631 0.0
C298 C 0.31531 0.02448 0.32808 0.0
C299 C 0.31516 0.99295 0.30535 0.0
C300 C 0.26833 0.96437 0.30617 0.0
C301 C 0.24508 0.96652 0.31794 0.0
C302 C 0.26836 -0.00352 0.32879 0.0
C303 C 0.24371 0.93278 0.2946 0.0
C304 C 0.20696 0.93375 0.28849 0.0
C305 C 0.25818 0.90392 0.28905 0.0
C306 C 0.2936 0.89815 0.29608 0.0
C307 C 0.28966 0.88679 0.31037 0.0
C308 C 0.32455 0.88486 0.31731 0.0
C309 C 0.36343 0.89384 0.31003 0.0
C310 C 0.36722 0.90399 0.29574 0.0
C311 C 0.33238 0.906 0.28874 0.0
H312 H 0.39063 0.89314 0.31552 0.0
H313 H 0.04806 0.91862 0.25361 0.0
H314 H 0.2193 0.24254 0.50017 0.0
H315 H 0.24441 0.21207 0.48143 0.0
H316 H 0.28657 0.3324 0.45716 0.0
H317 H 0.26195 0.36357 0.47597 0.0
H318 H 0.21994 0.19306 0.45453 0.0
H319 H 0.3856 0.35514 0.43992 0.0
H320 H 0.44084 0.4265 0.45109 0.0
H321 H 0.40733 0.3635 0.49152 0.0
H322 H 0.35252 0.2916 0.48059 0.0
H323 H 0.29683 0.15907 0.39091 0.0
H324 H 0.27903 0.19636 0.40946 0.0
H325 H 0.38221 0.19728 0.43565 0.0
H326 H 0.40119 0.16082 0.41686 0.0
H327 H 0.3788 0.27449 0.43852 0.0
H328 H 0.27416 0.11548 0.43946 0.0
H329 H 0.21877 0.04233 0.42931 0.0
H330 H 0.13203 0.09457 0.41877 0.0
H331 H 0.18713 0.16826 0.42865 0.0
C332 C 0.23348 0.26242 0.4908 0.0
C333 C 0.23871 0.30552 0.48956 0.0
C334 C 0.24782 0.24493 0.48011 0.0
C335 C 0.26787 0.27028 0.46804 0.0
C336 C 0.27175 0.31266 0.46652 0.0
C337 C 0.25732 0.33021 0.47721 0.0
C338 C 0.28494 0.25223 0.45712 0.0
C339 C 0.25465 0.21087 0.45102 0.0
C340 C 0.33048 0.27527 0.45278 0.0
C341 C 0.36446 0.31807 0.45943 0.0
C342 C 0.39016 0.35644 0.45119 0.0
C343 C 0.42138 0.397 0.45748 0.0
C344 C 0.42741 0.39957 0.47201 0.0
C345 C 0.40248 0.36151 0.48027 0.0
C346 C 0.3713 0.32084 0.47403 0.0
C347 C 0.31592 0.16736 0.40059 0.0
C348 C 0.3498 0.15627 0.40257 0.0
C349 C 0.30576 0.18875 0.41116 0.0
C350 C 0.32865 0.19863 0.42401 0.0
C351 C 0.36403 0.18964 0.42581 0.0
C352 C 0.37468 0.1687 0.41512 0.0
C353 C 0.3135 0.2157 0.43578 0.0
C354 C 0.34412 0.25677 0.44205 0.0
C355 C 0.26838 0.19206 0.44049 0.0
C356 C 0.23495 0.14751 0.43471 0.0
C357 C 0.2434 0.11146 0.43491 0.0
C358 C 0.21206 0.0699 0.42921 0.0
C359 C 0.17199 0.06384 0.42339 0.0
C360 C 0.1631 0.09931 0.42328 0.0
C361 C 0.19435 0.14097 0.42894 0.0
H362 H 0.14781 0.03164 0.41898 0.0
H363 H 0.45151 0.43099 0.47687 0.0
H364 H 0.95011 0.22446 0.66127 0.0
H365 H 0.00031 0.24595 0.64112 0.0
H366 H 0.98558 0.36225 0.63466 0.0
H367 H 0.93359 0.33968 0.65454 0.0
H368 H 0.98951 0.32984 0.61054 0.0
H369 H 0.07849 0.37133 0.6515 0.0
H370 H 0.10177 0.36207 0.67515 0.0
H371 H 0.12879 0.26061 0.65965 0.0
H372 H 0.1049 0.26868 0.63594 0.0
H373 H 0.22693 0.39938 0.57887 0.0
H374 H 0.18154 0.39468 0.59934 0.0
H375 H 0.06396 0.28654 0.57955 0.0
H376 H 0.10845 0.29208 0.55903 0.0
H377 H 0.13462 0.33338 0.61789 0.0
H378 H 0.97087 0.29373 0.58654 0.0
H379 H 0.95188 0.31171 0.56339 0.0
H380 H 0.08386 0.42754 0.56049 0.0
H381 H 0.10284 0.41177 0.58385 0.0
C382 C 0.95706 0.25423 0.65542 0.0
C383 C 0.93823 0.28056 0.65945 0.0
C384 C 0.986 0.26668 0.64399 0.0
C385 C -0.0023 0.3064 0.63665 0.0
C386 C 0.97724 0.33165 0.64025 0.0
C387 C 0.94748 0.31867 0.65155 0.0
C388 C 0.03208 0.32173 0.62546 0.0
C389 C 0.02131 0.33082 0.61213 0.0
C390 C 0.07444 0.32495 0.62774 0.0
C391 C 0.08964 0.32046 0.64194 0.0
C392 C 0.08918 0.34688 0.65314 0.0
C393 C 0.10248 0.34183 0.66656 0.0
C394 C 0.11669 0.31073 0.6689 0.0
C395 C 0.11776 0.28469 0.65782 0.0
C396 C 0.10439 0.28952 0.64438 0.0
C397 C 0.19143 0.37452 0.57896 0.0
C398 C 0.1711 0.3464 0.56733 0.0
C399 C 0.16559 0.37187 0.59063 0.0
C400 C 0.11921 0.3409 0.59083 0.0
C401 C 0.09943 0.31152 0.57946 0.0
C402 C 0.12496 0.3146 0.56776 0.0
C403 C 0.09095 0.33905 0.6028 0.0
C404 C 0.10303 0.33286 0.61631 0.0
C405 C 0.05057 0.3402 0.60078 0.0
C406 C 0.03844 0.35125 0.58695 0.0
C407 C -0.00436 0.32343 0.58106 0.0
C408 C 0.98481 0.33334 0.56789 0.0
C409 C 0.01655 0.37089 0.56048 0.0
C410 C 0.05909 0.39873 0.56626 0.0
C411 C 0.06987 0.38939 0.57949 0.0
H412 H 0.00816 0.3784 0.55028 0.0
H413 H 0.12693 0.30684 0.67931 0.0
H414 H 0.7934 0.1384 0.72687 0.0
H415 H 0.76549 0.08618 0.74658 0.0
H416 H 0.87939 0.1788 0.77156 0.0
H417 H 0.90767 0.23137 0.75187 0.0
H418 H 0.86268 0.09027 0.77257 0.0
H419 H 0.78193 0.1697 0.77817 0.0
H420 H 0.73378 0.20078 0.77111 0.0
H421 H 0.62595 0.06822 0.76154 0.0
H422 H 0.67367 0.03636 0.76832 0.0
H423 H 0.76466 0.96288 0.83575 0.0
H424 H 0.80326 0.02117 0.81791 0.0
H425 H 0.68851 0.95185 0.7904 0.0
H426 H 0.64957 0.89479 0.80825 0.0
H427 H 0.71056 0.03567 0.79245 0.0
H428 H 0.79131 0.95622 0.78458 0.0
H429 H 0.83819 0.92327 0.79119 0.0
H430 H 0.94433 0.05295 0.80421 0.0
H431 H 0.89783 0.08659 0.79784 0.0
C432 C 0.81247 0.14772 0.73656 0.0
C433 C 0.8527 0.18896 0.73783 0.0
C434 C 0.79641 0.11796 0.74782 0.0
C435 C 0.82031 0.12886 0.76051 0.0
C436 C 0.86051 0.16992 0.76183 0.0
C437 C 0.87643 0.19994 0.75061 0.0
C438 C 0.80341 0.09682 0.77229 0.0
C439 C 0.82971 0.07875 0.77711 0.0
C440 C 0.76012 0.08144 0.77796 0.0
C441 C 0.73154 0.10065 0.77368 0.0
C442 C 0.74811 0.14719 0.77443 0.0
C443 C 0.72085 0.16495 0.77051 0.0
C444 C 0.67681 0.13647 0.76591 0.0
C445 C 0.66004 0.09022 0.76513 0.0
C446 C 0.68717 0.07229 0.76902 0.0
C447 C 0.74821 0.95978 0.82577 0.0
C448 C 0.70413 0.9246 0.82338 0.0
C449 C 0.77021 0.99303 0.8156 0.0
C450 C 0.74867 0.99091 0.80283 0.0
C451 C 0.70558 0.95442 0.80022 0.0
C452 C 0.68344 0.92176 0.81041 0.0
C453 C 0.76918 0.02788 0.79249 0.0
C454 C 0.74364 0.04721 0.78799 0.0
C455 C 0.81294 0.04402 0.78704 0.0
C456 C 0.84088 0.02382 0.79089 0.0
C457 C 0.82449 0.97764 0.78897 0.0
C458 C 0.85103 0.95885 0.79265 0.0
C459 C 0.89415 0.98597 0.79816 0.0
C460 C 0.91089 0.03197 0.79997 0.0
C461 C 0.88447 0.05092 0.79632 0.0
H462 H 0.91465 0.97136 0.80099 0.0
H463 H 0.6556 0.15019 0.76299 0.0
H464 H 0.56691 0.75296 0.8989 0.0
H465 H 0.56835 0.70168 0.91634 0.0
H466 H 0.71166 0.78903 0.92137 0.0
H467 H 0.7107 0.83902 0.90339 0.0
H468 H 0.6937 0.70655 0.91933 0.0
H469 H 0.62599 0.78097 0.94566 0.0
H470 H 0.56705 0.80099 0.9496 0.0
H471 H 0.46624 0.66134 0.95034 0.0
H472 H 0.52457 0.64049 0.94634 0.0
H473 H 0.75861 0.69768 0.9877 0.0
H474 H 0.73476 0.71247 0.96516 0.0
H475 H 0.61323 0.58345 0.9668 0.0
H476 H 0.63791 0.5678 0.98937 0.0
H477 H 0.60298 0.66357 0.96289 0.0
H478 H 0.66986 0.58861 0.94035 0.0
H479 H 0.72569 0.56565 0.93489 0.0
H480 H 0.82517 0.70285 0.92667 0.0
H481 H 0.76966 0.72655 0.93191 0.0
C482 C 0.59865 0.76134 0.90382 0.0
C483 C 0.63874 0.80001 0.89983 0.0
C484 C 0.59939 0.73205 0.91381 0.0
C485 C 0.64004 0.74166 0.92028 0.0
C486 C 0.67991 0.78078 0.91647 0.0
C487 C 0.67934 0.80949 0.90626 0.0
C488 C 0.64197 0.71096 0.9308 0.0
C489 C 0.67396 0.69737 0.92888 0.0
C490 C 0.61438 0.69663 0.9429 0.0
C491 C 0.57955 0.70923 0.94556 0.0
C492 C 0.59122 0.75457 0.94661 0.0
C493 C 0.55793 0.76604 0.94887 0.0
C494 C 0.51291 0.73244 0.95019 0.0
C495 C 0.50111 0.68729 0.94932 0.0
C496 C 0.53427 0.67564 0.94708 0.0
C497 C 0.7272 0.67214 0.98313 0.0
C498 C 0.69998 0.6317 0.99019 0.0
C499 C 0.71372 0.68049 0.97025 0.0
C500 C 0.67238 0.64895 0.96434 0.0
C501 C 0.6454 0.60798 0.9712 0.0
C502 C 0.65951 0.59908 0.984 0.0
C503 C 0.65656 0.66178 0.95171 0.0
C504 C 0.62191 0.67192 0.95319 0.0
C505 C 0.68151 0.67287 0.93916 0.0
C506 C 0.71568 0.65933 0.93659 0.0
C507 C 0.70376 0.61393 0.9375 0.0
C508 C 0.73528 0.60076 0.93437 0.0
C509 C 0.77902 0.6328 0.93048 0.0
C510 C 0.79128 0.67807 0.92968 0.0
C511 C 0.75973 0.69136 0.93265 0.0
H512 H 0.80337 0.62252 0.92805 0.0
H513 H 0.48717 0.74138 0.9519 0.0
H514 H 0.08403 0.83078 0.15129 0.0
H515 H 0.03461 0.81399 0.13102 0.0
H516 H 0.0493 0.69933 0.12129 0.0
H517 H 0.10024 0.71705 0.14136 0.0
H518 H 0.03792 0.73425 0.09783 0.0
H519 H 0.96366 0.68435 0.14104 0.0
H520 H 0.94372 0.68594 0.16578 0.0
H521 H 0.90448 0.78339 0.15587 0.0
H522 H 0.92496 0.78305 0.13111 0.0
H523 H 0.78135 0.63902 0.08069 0.0
H524 H 0.84113 0.65513 0.09757 0.0
H525 H 0.93804 0.75659 0.06983 0.0
H526 H 0.8786 0.73808 0.05252 0.0
H527 H 0.89204 0.71901 0.11239 0.0
H528 H 0.04039 0.76842 0.07301 0.0
H529 H 0.05119 0.74795 0.04913 0.0
H530 H 0.92973 0.62059 0.05281 0.0
H531 H 0.91859 0.63996 0.07679 0.0
C532 C 0.07782 0.80285 0.14456 0.0
C533 C 0.09539 0.77488 0.14789 0.0
C534 C 0.04947 0.79316 0.13305 0.0
C535 C 0.03738 0.75471 0.12494 0.0
C536 C 0.05808 0.729 0.1275 0.0
C537 C 0.0872 0.7392 0.13891 0.0
C538 C -0.00039 0.73899 0.11492 0.0
C539 C 0.006 0.73093 0.10095 0.0
C540 C 0.95728 0.73247 0.11923 0.0
C541 C 0.94624 0.73396 0.13422 0.0
C542 C 0.9513 0.70654 0.14416 0.0
C543 C 0.9398 0.70713 0.15818 0.0
C544 C 0.9228 0.7347 0.16238 0.0
C545 C 0.91763 0.76203 0.15259 0.0
C546 C 0.92919 0.76166 0.13856 0.0
C547 C 0.81541 0.66493 0.07827 0.0
C548 C 0.82559 0.68731 0.06536 0.0
C549 C 0.84956 0.67409 0.08789 0.0
C550 C 0.8943 0.70652 0.08488 0.0
C551 C 0.90406 0.73045 0.07222 0.0
C552 C 0.87009 0.72029 0.06241 0.0
C553 C 0.93055 0.71563 0.09507 0.0
C554 C 0.92386 0.72228 0.10916 0.0
C555 C 0.9715 0.71814 0.091 0.0
C556 C 0.97845 0.70589 0.07666 0.0
C557 C 0.01612 0.73595 0.06876 0.0
C558 C 0.02228 0.72455 0.0552 0.0
C559 C 0.99109 0.68306 0.04944 0.0
C560 C 0.95379 0.65278 0.05726 0.0
C561 C 0.94753 0.66397 0.07084 0.0
H562 H -0.00412 0.67433 0.03893 0.0
H563 H 0.91338 0.73471 0.17319 0.0
H564 H 0.1216 0.86093 0.60237 0.0
H565 H 0.07045 0.82494 0.58267 0.0
H566 H 0.18177 0.84282 0.55705 0.0
H567 H 0.23353 0.88036 0.57663 0.0
H568 H 0.12097 0.85204 0.54154 0.0
H569 H 0.12067 0.74503 0.57289 0.0
H570 H 0.11992 0.71656 0.59666 0.0
H571 H 0.98623 0.69378 0.60308 0.0
H572 H 0.98652 0.72296 0.57946 0.0
H573 H 0.93353 0.62249 0.51134 0.0
H574 H 0.99121 0.66396 0.52902 0.0
H575 H 0.97435 0.77907 0.52287 0.0
H576 H 0.91768 0.73832 0.50483 0.0
H577 H -0.00477 0.69987 0.5531 0.0
H578 H 0.07336 0.87473 0.52539 0.0
H579 H 0.08329 0.90409 0.50128 0.0
H580 H 0.07492 0.78333 0.48532 0.0
H581 H 0.06578 0.7536 0.50934 0.0
C582 C 0.1353 0.85787 0.59247 0.0
C583 C 0.18142 0.87299 0.59105 0.0
C584 C 0.10607 0.83731 0.58124 0.0
C585 C 0.12226 0.83044 0.56851 0.0
C586 C 0.16865 0.84776 0.5668 0.0
C587 C 0.1981 0.86907 0.57799 0.0
C588 C 0.09013 0.80167 0.55756 0.0
C589 C 0.09344 0.81881 0.54402 0.0
C590 C 0.05558 0.75749 0.56067 0.0
C591 C 0.05367 0.73636 0.57442 0.0
C592 C 0.09104 0.7338 0.57936 0.0
C593 C 0.09076 0.71763 0.59282 0.0
C594 C 0.05301 0.70319 0.60136 0.0
C595 C 0.01537 0.7047 0.59643 0.0
C596 C 0.01555 0.72105 0.583 0.0
C597 C 0.94179 0.65651 0.51384 0.0
C598 C 0.92125 0.67727 0.50663 0.0
C599 C 0.97478 0.68015 0.52395 0.0
C600 C 0.98768 0.72487 0.52709 0.0
C601 C 0.96569 0.74494 0.52037 0.0
C602 C 0.93312 0.72153 0.51013 0.0
C603 C 0.02478 0.75091 0.53715 0.0
C604 C 0.0227 0.73305 0.55053 0.0
C605 C 0.06167 0.79355 0.53365 0.0
C606 C 0.06844 0.81178 0.51918 0.0
C607 C 0.07394 0.85457 0.51675 0.0
C608 C 0.07939 0.87125 0.50309 0.0
C609 C 0.0796 0.84553 0.49177 0.0
C610 C 0.07462 0.80317 0.49409 0.0
C611 C 0.06929 0.78639 0.50773 0.0
H612 H 0.08368 0.85844 0.4812 0.0
H613 H 0.05307 0.69101 0.61182 0.0
H614 H 0.24443 0.87522 0.6827 0.0
H615 H 0.261 0.9142 0.70548 0.0
H616 H 0.3304 0.04191 0.68432 0.0
H617 H 0.31282 0.00345 0.66168 0.0
H618 H 0.37357 0.03085 0.71048 0.0
H619 H 0.2322 0.01219 0.69085 0.0
H620 H 0.1552 0.96515 0.68165 0.0
H621 H 0.11616 0.8892 0.71987 0.0
H622 H 0.19322 0.93547 0.72921 0.0
H623 H 0.38278 0.20336 0.75218 0.0
H624 H 0.37261 0.15034 0.73352 0.0
H625 H 0.26986 0.04189 0.75788 0.0
H626 H 0.27868 0.09486 0.77631 0.0
H627 H 0.24336 0.03254 0.73246 0.0
H628 H 0.37772 0.0579 0.75441 0.0
H629 H 0.45416 0.10013 0.76441 0.0
H630 H 0.50705 0.15624 0.72397 0.0
H631 H 0.43082 0.11507 0.71377 0.0
C632 C 0.26368 0.91156 0.683 0.0
C633 C 0.27693 0.93654 0.67054 0.0
C634 C 0.27316 0.93367 0.69594 0.0
C635 C 0.29691 0.98078 0.69648 0.0
C636 C 0.31223 0.00553 0.68406 0.0
C637 C 0.30184 0.98359 0.67118 0.0
C638 C 0.3021 0.00491 0.70973 0.0
C639 C 0.34531 0.0314 0.71536 0.0
C640 C 0.26483 0.00427 0.71621 0.0
C641 C 0.21852 0.97685 0.71064 0.0
C642 C 0.20729 0.9852 0.69723 0.0
C643 C 0.16364 0.95874 0.692 0.0
C644 C 0.13085 0.92411 0.70015 0.0
C645 C 0.14162 0.91597 0.71356 0.0
C646 C 0.18526 0.94229 0.71882 0.0
C647 C 0.35786 0.16826 0.75351 0.0
C648 C 0.33142 0.15329 0.76568 0.0
C649 C 0.35237 0.13792 0.74291 0.0
C650 C 0.32108 0.09198 0.74443 0.0
C651 C 0.29428 0.07713 0.7565 0.0
C652 C 0.29929 0.1075 0.767 0.0
C653 C 0.31528 0.05968 0.73323 0.0
C654 C 0.27183 0.03161 0.72789 0.0
C655 C 0.35237 0.0583 0.72723 0.0
C656 C 0.39838 0.08358 0.73334 0.0
C657 C 0.40556 0.07957 0.74767 0.0
C658 C 0.44888 0.1033 0.75337 0.0
C659 C 0.48543 0.13087 0.74483 0.0
C660 C 0.47871 0.13489 0.73058 0.0
C661 C 0.43543 0.11134 0.72482 0.0
H662 H 0.51894 0.14891 0.74925 0.0
H663 H 0.09706 0.90366 0.69608 0.0
H664 H 0.10239 0.30675 0.91602 0.0
H665 H 0.13824 0.28094 0.89914 0.0
H666 H 0.24708 0.31482 0.92822 0.0
H667 H 0.21121 0.34022 0.94527 0.0
H668 H 0.27244 0.34813 0.89978 0.0
H669 H 0.17793 0.21166 0.92512 0.0
H670 H 0.10596 0.15364 0.93514 0.0
H671 H 0.04683 0.12172 0.89403 0.0
H672 H 0.1183 0.18007 0.88379 0.0
H673 H 0.37699 0.2589 0.85778 0.0
H674 H 0.34325 0.27315 0.87828 0.0
H675 H 0.21413 0.20971 0.85737 0.0
H676 H 0.24728 0.19317 0.83721 0.0
H677 H 0.20119 0.19017 0.88339 0.0
H678 H 0.29051 0.32679 0.85772 0.0
H679 H 0.35901 0.38775 0.84691 0.0
H680 H 0.42384 0.42382 0.88716 0.0
H681 H 0.35616 0.36216 0.89817 0.0
C682 C 0.13394 0.30868 0.91882 0.0
C683 C 0.15404 0.32537 0.93194 0.0
C684 C 0.15419 0.29376 0.90921 0.0
C685 C 0.19499 0.29581 0.91255 0.0
C686 C 0.21544 0.31291 0.92556 0.0
C687 C 0.19488 0.32722 0.93526 0.0
C688 C 0.21682 0.28103 0.90226 0.0
C689 C 0.25745 0.3135 0.89632 0.0
C690 C 0.1962 0.23609 0.89758 0.0
C691 C 0.15339 0.20051 0.9037 0.0
C692 C 0.14949 0.19251 0.91823 0.0
C693 C 0.1088 0.15952 0.92395 0.0
C694 C 0.07181 0.13408 0.91523 0.0
C695 C 0.0755 0.14148 0.90077 0.0
C696 C 0.11611 0.17447 0.895 0.0
C697 C 0.34127 0.24744 0.85768 0.0
C698 C 0.31468 0.22522 0.84593 0.0
C699 C 0.32209 0.2558 0.86934 0.0
C700 C 0.27642 0.24354 0.86921 0.0
C701 C 0.24948 0.21961 0.8577 0.0
C702 C 0.2684 0.2102 0.84619 0.0
C703 C 0.25702 0.25739 0.88071 0.0
C704 C 0.21667 0.22479 0.88688 0.0
C705 C 0.27753 0.30253 0.88542 0.0
C706 C 0.3184 0.33946 0.87875 0.0
C707 C 0.31952 0.34741 0.86426 0.0
C708 C 0.35822 0.38216 0.85809 0.0
C709 C 0.39575 0.40971 0.86635 0.0
C710 C 0.39475 0.40244 0.88078 0.0
C711 C 0.35627 0.36752 0.88698 0.0
H712 H 0.42561 0.43678 0.86161 0.0
H713 H 0.04032 0.10858 0.91968 0.0
H714 H 0.77775 0.21946 0.09139 0.0
H715 H 0.82535 0.26979 0.073 0.0
H716 H 0.91767 0.21989 0.07808 0.0
H717 H 0.8704 0.16954 0.09657 0.0
H718 H 0.96282 0.30948 0.07521 0.0
H719 H 0.836 0.18112 0.05154 0.0
H720 H 0.75505 0.13187 0.04662 0.0
H721 H 0.74451 0.24622 0.03405 0.0
H722 H 0.82536 0.29614 0.03903 0.0
H723 H 0.01042 0.2834 -0.0002 0.0
H724 H 0.96148 0.26461 0.02004 0.0
H725 H 0.02565 0.40454 0.03164 0.0
H726 H 0.07562 0.4239 0.01128 0.0
H727 H 0.90029 0.28921 0.0271 0.0
H728 H 0.02178 0.40393 0.0686 0.0
H729 H 0.10337 0.44912 0.07334 0.0
H730 H 0.12574 0.35552 0.04981 0.0
H731 H 0.04428 0.30961 0.04508 0.0
C732 C 0.80814 0.21908 0.08859 0.0
C733 C 0.82003 0.19006 0.09532 0.0
C734 C 0.83549 0.24819 0.07814 0.0
C735 C 0.87513 0.24874 0.07422 0.0
C736 C 0.88736 0.22023 0.08104 0.0
C737 C 0.86005 0.19111 0.09149 0.0
C738 C 0.90287 0.27681 0.06247 0.0
C739 C 0.9491 0.30555 0.06471 0.0
C740 C 0.88483 0.2723 0.04885 0.0
C741 C 0.83647 0.2423 0.04575 0.0
C742 C 0.81632 0.19571 0.04778 0.0
C743 C 0.7705 0.16771 0.04498 0.0
C744 C 0.74463 0.18592 0.04006 0.0
C745 C 0.76457 0.23217 0.03788 0.0
C746 C 0.81038 0.26032 0.04067 0.0
C747 C 0.01436 0.31032 0.00663 0.0
C748 C 0.04719 0.35512 0.004 0.0
C749 C 0.98607 0.29953 0.01814 0.0
C750 C 0.98986 0.33319 0.02727 0.0
C751 C 0.02236 0.37811 0.0247 0.0
C752 C 0.05095 0.38902 0.01313 0.0
C753 C 0.96055 0.31987 0.03973 0.0
C754 C 0.91387 0.29431 0.03766 0.0
C755 C 0.97827 0.3269 0.05347 0.0
C756 C 0.02715 0.35377 0.05635 0.0
C757 C 0.04418 0.39304 0.06447 0.0
C758 C 0.09036 0.41874 0.06715 0.0
C759 C 0.11974 0.4053 0.06183 0.0
C760 C 0.10298 0.366 0.05387 0.0
C761 C 0.05683 0.34015 0.05118 0.0
H762 H 0.15548 0.42526 0.0639 0.0
H763 H 0.70916 0.16419 0.0379 0.0
H764 H 0.64833 0.84773 0.26679 0.0
H765 H 0.67085 0.90008 0.2473 0.0
H766 H 0.64534 0.79357 0.21836 0.0
H767 H 0.6236 0.74057 0.23795 0.0
H768 H 0.73628 0.87638 0.21825 0.0
H769 H 0.57701 0.85358 0.20242 0.0
H770 H 0.502 0.84076 0.20913 0.0
H771 H 0.55934 0.92508 0.2453 0.0
H772 H 0.63488 0.93979 0.23843 0.0
H773 H 0.77813 0.0168 0.15688 0.0
H774 H 0.75417 0.95623 0.17418 0.0
H775 H 0.73515 0.03791 0.20474 0.0
H776 H 0.75753 0.09744 0.18745 0.0
H777 H 0.66161 0.96016 0.2021 0.0
H778 H 0.81983 0.01063 0.20736 0.0
H779 H 0.89571 0.02943 0.1995 0.0
H780 H 0.84414 0.89439 0.18478 0.0
H781 H 0.76779 0.87494 0.19237 0.0
C782 C 0.64685 0.8351 0.25628 0.0
C783 C 0.63455 0.79 0.25394 0.0
C784 C 0.65918 0.86505 0.24513 0.0
C785 C 0.6588 0.85044 0.2314 0.0
C786 C 0.64526 0.80522 0.22891 0.0
C787 C 0.63295 0.77509 0.2401 0.0
C788 C 0.67766 0.88372 0.22001 0.0
C789 C 0.7198 0.89438 0.21452 0.0
C790 C 0.65648 0.90755 0.2154 0.0
C791 C 0.61117 0.89661 0.22016 0.0
C792 C 0.57343 0.86902 0.21186 0.0
C793 C 0.53096 0.86194 0.21559 0.0
C794 C 0.52583 0.88189 0.22769 0.0
C795 C 0.56328 0.90937 0.236 0.0
C796 C 0.60595 0.91719 0.23217 0.0
C797 C 0.77002 0.0221 0.16742 0.0
C798 C 0.76933 0.06147 0.17086 0.0
C799 C 0.75629 0.98754 0.17727 0.0
C800 C 0.74256 0.99248 0.19072 0.0
C801 C 0.74511 0.0332 0.19439 0.0
C802 C 0.75807 0.06724 0.18454 0.0
C803 C 0.72123 0.95422 0.20057 0.0
C804 C 0.67829 0.94219 0.20568 0.0
C805 C 0.74216 0.92972 0.20493 0.0
C806 C 0.78798 0.9415 0.20027 0.0
C807 C 0.82457 0.98507 0.20231 0.0
C808 C 0.8677 0.99582 0.19794 0.0
C809 C 0.87472 0.96317 0.1916 0.0
C810 C 0.83864 0.91967 0.18966 0.0
C811 C 0.79544 0.90877 0.194 0.0
H812 H 0.90813 0.97155 0.18823 0.0
H813 H 0.49289 0.87607 0.23063 0.0
H814 H 0.84868 0.71744 0.43047 0.0
H815 H 0.8118 0.72795 0.41003 0.0
H816 H 0.75438 0.58789 0.39939 0.0
H817 H 0.79137 0.57708 0.41966 0.0
H818 H 0.78553 0.63907 0.37655 0.0
H819 H 0.69108 0.62282 0.41499 0.0
H820 H 0.67369 0.63857 0.43865 0.0
H821 H 0.71487 0.77392 0.42653 0.0
H822 H 0.73368 0.75937 0.40287 0.0
H823 H 0.59537 0.66851 0.34218 0.0
H824 H 0.62786 0.6536 0.36289 0.0
H825 H 0.76046 0.7305 0.34497 0.0
H826 H 0.72815 0.74449 0.32407 0.0
H827 H 0.6853 0.70346 0.38246 0.0
H828 H 0.82334 0.68346 0.3533 0.0
H829 H 0.83501 0.65882 0.33017 0.0
H830 H 0.69209 0.57837 0.32436 0.0
H831 H 0.67953 0.60189 0.34754 0.0
C832 C 0.8284 0.68892 0.42374 0.0
C833 C 0.82301 0.64645 0.42669 0.0
C834 C 0.80724 0.69495 0.4121 0.0
C835 C 0.78005 0.65858 0.40329 0.0
C836 C 0.7753 0.61639 0.40605 0.0
C837 C 0.79648 0.61032 0.41765 0.0
C838 C 0.75608 0.66441 0.39128 0.0
C839 C 0.76367 0.65321 0.37782 0.0
C840 C 0.72642 0.68145 0.39305 0.0
C841 C 0.71418 0.69012 0.40717 0.0
C842 C 0.69673 0.65605 0.41738 0.0
C843 C 0.68658 0.66474 0.4308 0.0
C844 C 0.69314 0.70719 0.4341 0.0
C845 C 0.70982 0.74104 0.42397 0.0
C846 C 0.72026 0.73261 0.41055 0.0
C847 C 0.63149 0.6825 0.34268 0.0
C848 C 0.65919 0.70754 0.33146 0.0
C849 C 0.64999 0.67399 0.35454 0.0
C850 C 0.69649 0.69046 0.35541 0.0
C851 C 0.72437 0.71673 0.34441 0.0
C852 C 0.70587 0.72485 0.33249 0.0
C853 C 0.71584 0.67939 0.36765 0.0
C854 C 0.70722 0.68941 0.38117 0.0
C855 C 0.74335 0.65978 0.36599 0.0
C856 C 0.75054 0.6448 0.35212 0.0
C857 C 0.7944 0.66032 0.34712 0.0
C858 C 0.80117 0.64656 0.33399 0.0
C859 C 0.7643 0.61713 0.32579 0.0
C860 C 0.72059 0.60123 0.33072 0.0
C861 C 0.71364 0.61479 0.34384 0.0
H862 H 0.76961 0.60659 0.31562 0.0
H863 H 0.68528 0.71385 0.44449 0.0
H864 H 0.50652 0.76437 0.31249 0.0
H865 H 0.49102 0.82072 0.32171 0.0
H866 H 0.63204 0.92018 0.31945 0.0
H867 H 0.64849 0.86281 0.31045 0.0
H868 H 0.59324 0.92387 0.34432 0.0
H869 H 0.56291 0.93275 0.2957 0.0
H870 H 0.53399 0.90068 0.27225 0.0
H871 H 0.40079 0.82237 0.28906 0.0
H872 H 0.42928 0.8532 0.31265 0.0
H873 H 0.52619 0.09241 0.35253 0.0
H874 H 0.55768 0.04783 0.343 0.0
H875 H 0.43385 0.92615 0.35232 0.0
H876 H 0.40251 0.9707 0.3623 0.0
H877 H 0.47263 0.94299 0.32223 0.0
H878 H 0.50782 0.93849 0.37146 0.0
H879 H 0.54083 0.97329 0.39426 0.0
H880 H 0.67128 0.04767 0.37529 0.0
H881 H 0.63886 0.01378 0.35231 0.0
C882 C 0.53448 0.79817 0.31387 0.0
C883 C 0.57883 0.80916 0.31069 0.0
C884 C 0.52542 0.83046 0.31908 0.0
C885 C 0.56025 0.87473 0.32098 0.0
C886 C 0.60473 0.88612 0.31793 0.0
C887 C 0.61401 0.85345 0.31278 0.0
C888 C 0.54913 0.90807 0.32649 0.0
C889 C 0.56763 0.92893 0.33936 0.0
C890 C 0.51547 0.9142 0.32004 0.0
C891 C 0.49799 0.89595 0.30586 0.0
C892 C 0.52743 0.9088 0.29436 0.0
C893 C 0.51118 0.89072 0.28107 0.0
C894 C 0.46552 0.85976 0.27915 0.0
C895 C 0.43608 0.84662 0.29054 0.0
C896 C 0.45221 0.86456 0.30386 0.0
C897 C 0.50601 0.05612 0.35275 0.0
C898 C 0.46208 0.03477 0.35817 0.0
C899 C 0.52397 0.03084 0.34731 0.0
C900 C 0.49791 0.98397 0.34696 0.0
C901 C 0.45428 0.96243 0.35255 0.0
C902 C 0.43663 0.98773 0.35832 0.0
C903 C 0.51584 0.95766 0.34024 0.0
C904 C 0.49865 0.93838 0.3271 0.0
C905 C 0.55132 0.95378 0.34633 0.0
C906 C 0.57082 0.97404 0.36014 0.0
C907 C 0.54345 0.96264 0.37212 0.0
C908 C 0.56207 0.9821 0.38508 0.0
C909 C 0.6081 0.01279 0.38621 0.0
C910 C 0.63562 0.02396 0.37439 0.0
C911 C 0.61715 0.00461 0.3614 0.0
H912 H 0.62246 0.02782 0.39626 0.0
H913 H 0.453 0.84585 0.26885 0.0
H914 H 0.41866 0.4589 0.53115 0.0
H915 H 0.49459 0.50778 0.5222 0.0
H916 H 0.43905 0.521 0.48301 0.0
H917 H 0.36347 0.4703 0.49159 0.0
H918 H 0.50719 0.51472 0.47747 0.0
H919 H 0.48189 0.60549 0.50905 0.0
H920 H 0.45795 0.62372 0.53123 0.0
H921 H 0.56506 0.61903 0.55309 0.0
H922 H 0.58889 0.59939 0.53111 0.0
H923 H 0.73889 0.65533 0.46159 0.0
H924 H 0.66302 0.64309 0.46603 0.0
H925 H 0.66389 0.58961 0.50688 0.0
H926 H 0.73915 0.60252 0.50272 0.0
H927 H 0.62031 0.63661 0.50766 0.0
H928 H 0.61764 0.51557 0.47712 0.0
H929 H 0.63746 0.49187 0.4552 0.0
H930 H 0.58285 0.55929 0.43121 0.0
H931 H 0.56201 0.5828 0.45311 0.0
C932 C 0.42276 0.472 0.5206 0.0
C933 C 0.38522 0.46105 0.51212 0.0
C934 C 0.46608 0.50031 0.51553 0.0
C935 C 0.47246 0.5193 0.50209 0.0
C936 C 0.43498 0.50721 0.49346 0.0
C937 C 0.39179 0.47811 0.49839 0.0
C938 C 0.51834 0.55089 0.49693 0.0
C939 C 0.53151 0.54209 0.48395 0.0
C940 C 0.55013 0.58718 0.50522 0.0
C941 C 0.5371 0.6008 0.5184 0.0
C942 C 0.50031 0.60823 0.51859 0.0
C943 C 0.48671 0.61876 0.53114 0.0
C944 C 0.51 0.6226 0.54356 0.0
C945 C 0.54707 0.61607 0.54345 0.0
C946 C 0.56064 0.60523 0.53094 0.0
C947 C 0.72319 0.64198 0.47163 0.0
C948 C 0.74459 0.62921 0.48173 0.0
C949 C 0.67989 0.63488 0.47413 0.0
C950 C 0.65767 0.61488 0.48671 0.0
C951 C 0.6804 0.60513 0.49711 0.0
C952 C 0.72334 0.61216 0.49465 0.0
C953 C 0.60917 0.59846 0.4887 0.0
C954 C 0.59533 0.61027 0.50103 0.0
C955 C 0.57653 0.56539 0.47976 0.0
C956 C 0.58882 0.55127 0.46667 0.0
C957 C 0.61011 0.52547 0.46716 0.0
C958 C 0.62164 0.51223 0.45474 0.0
C959 C 0.61205 0.5246 0.44178 0.0
C960 C 0.59041 0.54987 0.44124 0.0
C961 C 0.57864 0.56308 0.45365 0.0
H962 H 0.62094 0.51427 0.43217 0.0
H963 H 0.4993 0.63055 0.55329 0.0
H964 H 0.15904 0.73061 0.62811 0.0
H965 H 0.10694 0.65899 0.63906 0.0
H966 H 0.08061 0.72892 0.67197 0.0
H967 H 0.13262 0.80099 0.66089 0.0
H968 H 0.11033 0.67243 0.68186 0.0
H969 H 0.99433 0.66029 0.65127 0.0
H970 H 0.95715 0.66063 0.62915 0.0
H971 H 0.9802 0.55789 0.61242 0.0
H972 H 0.01761 0.55699 0.63442 0.0
H973 H 0.96278 0.4545 0.71252 0.0
H974 H -0.00144 0.53207 0.70391 0.0
H975 H 0.02558 0.48909 0.66437 0.0
H976 H 0.98876 0.41187 0.67275 0.0
H977 H 0.98598 0.53577 0.65995 0.0
H978 H 0.1094 0.55345 0.68897 0.0
H979 H 0.14558 0.55063 0.71102 0.0
H980 H 0.11137 0.6427 0.73015 0.0
H981 H 0.07445 0.64561 0.70826 0.0
C982 C 0.14115 0.7306 0.63746 0.0
C983 C 0.14986 0.77117 0.64371 0.0
C984 C 0.11131 0.6897 0.64369 0.0
C985 C 0.08998 0.68868 0.65634 0.0
C986 C 0.09671 0.72908 0.66219 0.0
C987 C 0.12613 0.77011 0.65582 0.0
C988 C 0.0654 0.64592 0.66414 0.0
C989 C 0.0824 0.64268 0.67723 0.0
C990 C 0.02981 0.60704 0.65794 0.0
C991 C 0.00888 0.60868 0.64449 0.0
C992 C 0.9918 0.63803 0.64283 0.0
C993 C 0.97046 0.63814 0.63034 0.0
C994 C 0.9661 0.60912 0.61942 0.0
C995 C 0.98338 0.58017 0.62092 0.0
C996 C 0.00454 0.57976 0.63341 0.0
C997 C 0.97733 0.46198 0.70213 0.0
C998 C 0.97289 0.42736 0.69326 0.0
C999 C -0.00235 0.50621 0.69719 0.0
C1000 C 0.01452 0.51636 0.68345 0.0
C1001 C 0.01233 0.48202 0.67494 0.0
C1002 C 0.99154 0.43797 0.67976 0.0
C1003 C 0.03193 0.56186 0.67743 0.0
C1004 C 0.01347 0.5656 0.66469 0.0
C1005 C 0.0665 0.60104 0.68389 0.0
C1006 C 0.08868 0.59931 0.69704 0.0
C1007 C 0.10925 0.57279 0.69792 0.0
C1008 C 0.12996 0.57123 0.71038 0.0
C1009 C 0.13064 0.59635 0.72199 0.0
C1010 C 0.11073 0.62318 0.72116 0.0
C1011 C 0.08993 0.62482 0.70873 0.0
H1012 H 0.1467 0.59511 0.73163 0.0
H1013 H 0.94948 0.60916 0.60977 0.0
H1014 H 0.40628 0.13688 0.83832 0.0
H1015 H 0.43383 0.08433 0.84063 0.0
H1016 H 0.37769 0.02733 0.80022 0.0
H1017 H 0.34964 0.08038 0.79776 0.0
H1018 H 0.36985 0.96365 0.82346 0.0
H1019 H 0.47882 0.09364 0.79829 0.0
H1020 H 0.52626 0.17447 0.79342 0.0
H1021 H 0.59062 0.19403 0.83353 0.0
H1022 H 0.54324 0.11337 0.8387 0.0
H1023 H 0.51504 0.86913 0.82736 0.0
H1024 H 0.47576 0.90647 0.81819 0.0
H1025 H 0.52932 0.00273 0.85199 0.0
H1026 H 0.56916 0.9659 0.86121 0.0
H1027 H 0.5366 0.04184 0.82659 0.0
H1028 H 0.42271 0.9157 0.853 0.0
H1029 H 0.37602 0.8353 0.85868 0.0
H1030 H 0.32084 0.80859 0.81703 0.0
H1031 H 0.36774 0.8888 0.81105 0.0
C1032 C 0.39907 0.11275 0.83 0.0
C1033 C 0.37633 0.11304 0.81778 0.0
C1034 C 0.41481 0.08277 0.83135 0.0
C1035 C 0.40833 0.05271 0.82049 0.0
C1036 C 0.383 0.05057 0.80866 0.0
C1037 C 0.36701 0.08073 0.8073 0.0
C1038 C 0.43158 0.02661 0.82133 0.0
C1039 C 0.40631 0.98034 0.82379 0.0
C1040 C 0.47907 0.04884 0.82193 0.0
C1041 C 0.50733 0.09748 0.8189 0.0
C1042 C 0.50282 0.11524 0.80612 0.0
C1043 C 0.52977 0.16104 0.8033 0.0
C1044 C 0.56141 0.18938 0.81318 0.0
C1045 C 0.56612 0.17202 0.82589 0.0
C1046 C 0.5393 0.12626 0.82876 0.0
C1047 C 0.51856 0.8983 0.83286 0.0
C1048 C 0.54499 0.91445 0.84508 0.0
C1049 C 0.49595 0.91942 0.82761 0.0
C1050 C 0.49932 0.95691 0.83451 0.0
C1051 C 0.52632 0.97367 0.84655 0.0
C1052 C 0.54896 0.95259 0.85182 0.0
C1053 C 0.47495 0.97912 0.82924 0.0
C1054 C 0.50016 0.02476 0.82591 0.0
C1055 C 0.4275 0.95624 0.82789 0.0
C1056 C 0.39912 0.90812 0.83152 0.0
C1057 C 0.4009 0.89261 0.84502 0.0
C1058 C 0.37436 0.84709 0.8483 0.0
C1059 C 0.34559 0.81683 0.83821 0.0
C1060 C 0.34321 0.83205 0.82483 0.0
C1061 C 0.36975 0.87753 0.82149 0.0
H1062 H 0.32507 0.7816 0.84077 0.0
H1063 H 0.58242 0.22477 0.81101 0.0
H1064 H 0.24626 0.48581 0.99219 0.0
H1065 H 0.31707 0.50533 0.00374 0.0
H1066 H 0.29623 0.37317 0.99471 0.0
H1067 H 0.22369 0.35264 0.98369 0.0
H1068 H 0.33043 0.39691 0.01959 0.0
H1069 H 0.36761 0.46717 0.97495 0.0
H1070 H 0.36552 0.51298 0.9554 0.0
H1071 H 0.42406 0.62982 0.98181 0.0
H1072 H 0.42562 0.58451 0.00163 0.0
H1073 H 0.57101 0.47474 0.01937 0.0
H1074 H 0.49219 0.44576 0.01277 0.0
H1075 H 0.48805 0.54694 0.03841 0.0
H1076 H 0.56673 0.57534 0.04544 0.0
H1077 H 0.46718 0.53816 0.00564 0.0
H1078 H 0.42865 0.46076 0.05045 0.0
H1079 H 0.43258 0.41082 0.06824 0.0
H1080 H 0.38107 0.30275 0.0384 0.0
H1081 H 0.3775 0.3523 0.02036 0.0
C1082 C 0.25673 0.46087 0.99267 0.0
C1083 C 0.22983 0.41785 0.98693 0.0
C1084 C 0.29728 0.47211 -0.00076 0.0
C1085 C 0.3125 0.4411 -0.0002 0.0
C1086 C 0.28522 0.3977 0.99434 0.0
C1087 C 0.24396 0.38605 0.98802 0.0
C1088 C 0.35721 0.45449 0.00592 0.0
C1089 C 0.36036 0.42757 0.01643 0.0
C1090 C 0.39634 0.49463 0.00182 0.0
C1091 C 0.39626 0.52227 0.98984 0.0
C1092 C 0.37975 0.50256 0.97663 0.0
C1093 C 0.37865 0.52844 0.96549 0.0
C1094 C 0.39446 0.57423 0.96738 0.0
C1095 C 0.41168 0.5943 0.98038 0.0
C1096 C 0.41268 0.56853 0.99157 0.0
C1097 C 0.5529 0.49007 0.02386 0.0
C1098 C 0.57467 0.52715 0.03291 0.0
C1099 C 0.50805 0.47351 0.0201 0.0
C1100 C 0.48468 0.49433 0.02513 0.0
C1101 C 0.50577 0.53043 0.03453 0.0
C1102 C 0.55042 0.54639 0.03857 0.0
C1103 C 0.43986 0.48104 0.0194 0.0
C1104 C 0.43698 0.50778 0.00884 0.0
C1105 C 0.40139 0.44026 0.02316 0.0
C1106 C 0.40328 0.41039 0.03402 0.0
C1107 C 0.41861 0.42649 0.04764 0.0
C1108 C 0.42066 0.39822 0.05778 0.0
C1109 C 0.40721 0.35367 0.05444 0.0
C1110 C 0.39154 0.33728 0.04097 0.0
C1111 C 0.38945 0.36543 0.03079 0.0
H1112 H 0.40882 0.33183 0.0623 0.0
H1113 H 0.39339 0.59414 0.95876 0.0
H1114 H 0.07178 0.6324 0.15267 0.0
H1115 H 0.03982 0.55625 0.14327 0.0
H1116 H 0.0018 0.50232 0.185 0.0
H1117 H 0.03375 0.57806 0.19452 0.0
H1118 H 0.05138 0.47159 0.1711 0.0
H1119 H 0.92614 0.49558 0.16157 0.0
H1120 H 0.88646 0.53127 0.15082 0.0
H1121 H 0.91626 0.50179 0.10979 0.0
H1122 H 0.95716 0.46695 0.12029 0.0
H1123 H 0.88278 0.24731 0.16937 0.0
H1124 H 0.9354 0.32753 0.17155 0.0
H1125 H 0.95151 0.33813 0.12661 0.0
H1126 H 0.89866 0.25735 0.12435 0.0
H1127 H 0.92552 0.39501 0.13723 0.0
H1128 H 0.04145 0.36244 0.14636 0.0
H1129 H 0.07829 0.32339 0.15676 0.0
H1130 H 0.06501 0.3667 0.19781 0.0
H1131 H 0.02746 0.40547 0.18769 0.0
C1132 C 0.05616 0.60429 0.15983 0.0
C1133 C 0.05575 0.61129 0.17437 0.0
C1134 C 0.03783 0.56085 0.15442 0.0
C1135 C 0.01876 0.52382 0.16346 0.0
C1136 C 0.01669 0.53061 0.17788 0.0
C1137 C 0.03481 0.57391 0.18329 0.0
C1138 C 0.00334 0.478 0.15817 0.0
C1139 C 0.02371 0.45471 0.16374 0.0
C1140 C 0.96881 0.45697 0.14802 0.0
C1141 C 0.94555 0.47942 0.14173 0.0
C1142 C 0.925 0.49744 0.15026 0.0
C1143 C 0.90212 0.51739 0.1442 0.0
C1144 C 0.89907 0.51905 0.12963 0.0
C1145 C 0.91889 0.50076 0.12108 0.0
C1146 C 0.942 0.48099 0.12708 0.0
C1147 C 0.89858 0.26647 0.15999 0.0
C1148 C 0.88671 0.24626 0.14671 0.0
C1149 C 0.92876 0.31226 0.16124 0.0
C1150 C 0.94745 0.33867 0.14924 0.0
C1151 C 0.93759 0.31817 0.13599 0.0
C1152 C 0.9077 0.27208 0.13473 0.0
C1153 C 0.97227 0.38805 0.15066 0.0
C1154 C 0.95393 0.4122 0.14433 0.0
C1155 C 0.00878 0.41 0.16006 0.0
C1156 C 0.03143 0.38676 0.16625 0.0
C1157 C 0.04607 0.3634 0.15762 0.0
C1158 C 0.06714 0.34134 0.16346 0.0
C1159 C 0.07395 0.34253 0.17794 0.0
C1160 C 0.05974 0.36583 0.1866 0.0
C1161 C 0.03863 0.38793 0.18081 0.0
H1162 H 0.09027 0.32543 0.18244 0.0
H1163 H 0.88117 0.53432 0.12496 0.0
H1164 H 0.95504 0.53812 0.46206 0.0
H1165 H 0.98825 0.49383 0.47045 0.0
H1166 H 0.90885 0.46137 0.50816 0.0
H1167 H 0.8752 0.50533 0.49984 0.0
H1168 H 0.0012 0.49173 0.51253 0.0
H1169 H 0.87746 0.38232 0.48553 0.0
H1170 H 0.82851 0.35323 0.4647 0.0
H1171 H 0.94007 0.36822 0.44019 0.0
H1172 H 0.98991 0.39811 0.46083 0.0
H1173 H 0.0891 0.34928 0.53165 0.0
H1174 H 0.02929 0.36698 0.5264 0.0
H1175 H 0.08504 0.41194 0.48513 0.0
H1176 H 0.14477 0.39498 0.49043 0.0
H1177 H 0.99146 0.36422 0.48524 0.0
H1178 H 0.11663 0.48257 0.51038 0.0
H1179 H 0.16951 0.52082 0.52982 0.0
H1180 H 0.05959 0.49717 0.55669 0.0
H1181 H 0.00576 0.45723 0.53754 0.0
C1182 C 0.94472 0.52163 0.47215 0.0
C1183 C 0.91242 0.52497 0.48028 0.0
C1184 C 0.96344 0.49614 0.47687 0.0
C1185 C 0.95039 0.47398 0.48981 0.0
C1186 C 0.91893 0.47801 0.49809 0.0
C1187 C 0.8998 0.50305 0.49331 0.0
C1188 C 0.97094 0.44782 0.49485 0.0
C1189 C -0.00176 0.46305 0.50682 0.0
C1190 C 0.96745 0.41112 0.48715 0.0
C1191 C 0.9375 0.39273 0.47473 0.0
C1192 C 0.89165 0.37973 0.47568 0.0
C1193 C 0.86372 0.36305 0.46391 0.0
C1194 C 0.88118 0.35894 0.45113 0.0
C1195 C 0.92659 0.37143 0.4501 0.0
C1196 C 0.95469 0.38819 0.46184 0.0
C1197 C 0.08748 0.36166 0.52134 0.0
C1198 C 0.12086 0.37063 0.51135 0.0
C1199 C 0.05375 0.37203 0.51841 0.0
C1200 C 0.05317 0.39105 0.50544 0.0
C1201 C 0.08492 0.39714 0.49517 0.0
C1202 C 0.11888 0.38749 0.49817 0.0
C1203 C 0.0225 0.40865 0.50281 0.0
C1204 C 0.99337 0.39195 0.49124 0.0
C1205 C 0.02477 0.44445 0.51081 0.0
C1206 C 0.05699 0.46594 0.52258 0.0
C1207 C 0.10356 0.48452 0.52051 0.0
C1208 C 0.13377 0.50673 0.53148 0.0
C1209 C 0.11794 0.51131 0.5445 0.0
C1210 C 0.07182 0.49354 0.5466 0.0
C1211 C 0.04142 0.47084 0.53572 0.0
H1212 H 0.14137 0.52865 0.55296 0.0
H1213 H 0.85951 0.34603 0.44202 0.0
H1214 H 0.39356 0.96237 0.65838 0.0
H1215 H 0.47092 0.01019 0.6663 0.0
H1216 H 0.51951 0.00481 0.62511 0.0
H1217 H 0.44147 0.9573 0.6169 0.0
H1218 H 0.56032 0.986 0.65297 0.0
H1219 H 0.52822 0.09209 0.62893 0.0
H1220 H 0.47952 0.12444 0.62419 0.0
H1221 H 0.48632 0.16074 0.66757 0.0
H1222 H 0.53439 0.12783 0.67261 0.0
H1223 H 0.78582 0.15122 0.66795 0.0
H1224 H 0.71255 0.10198 0.65728 0.0
H1225 H 0.65064 0.15181 0.68612 0.0
H1226 H 0.72449 0.20307 0.69625 0.0
H1227 H 0.61679 0.14733 0.66265 0.0
H1228 H 0.64152 0.04257 0.68836 0.0
H1229 H 0.68203 0.00409 0.69626 0.0
H1230 H 0.6815 0.95923 0.65421 0.0
H1231 H 0.64149 -0.00205 0.64601 0.0
C1232 C 0.42064 0.97109 0.65099 0.0
C1233 C 0.41157 0.95598 0.63702 0.0
C1234 C 0.46473 -0.00154 0.65554 0.0
C1235 C 0.50058 0.01077 0.64627 0.0
C1236 C 0.49198 0.99538 0.63237 0.0
C1237 C 0.44759 0.96853 0.6277 0.0
C1238 C 0.54687 0.04055 0.65128 0.0
C1239 C 0.57336 0.02154 0.65483 0.0
C1240 C 0.56241 0.08619 0.65427 0.0
C1241 C 0.53462 0.10718 0.65116 0.0
C1242 C 0.51907 0.10669 0.63747 0.0
C1243 C 0.49162 0.12516 0.63473 0.0
C1244 C 0.47977 0.14457 0.64558 0.0
C1245 C 0.49551 0.14569 0.65918 0.0
C1246 C 0.5229 0.12717 0.66198 0.0
C1247 C 0.75644 0.1512 0.67211 0.0
C1248 C 0.76064 0.18071 0.68295 0.0
C1249 C 0.7145 0.12292 0.66604 0.0
C1250 C 0.67574 0.12249 0.67103 0.0
C1251 C 0.67994 0.15146 0.68207 0.0
C1252 C 0.72206 0.18058 0.68789 0.0
C1253 C 0.6311 0.09306 0.66444 0.0
C1254 C 0.60453 0.11201 0.66067 0.0
C1255 C 0.6149 0.04693 0.66166 0.0
C1256 C 0.63894 0.02357 0.66655 0.0
C1257 C 0.65035 0.02478 0.68077 0.0
C1258 C 0.67316 0.00288 0.68531 0.0
C1259 C 0.68444 0.97934 0.67574 0.0
C1260 C 0.67281 0.97754 0.66161 0.0
C1261 C 0.65003 -0.00057 0.65701 0.0
H1262 H 0.70211 0.9624 0.67927 0.0
H1263 H 0.45846 0.15879 0.64344 0.0
H1264 H 0.63199 0.72412 0.86915 0.0
H1265 H 0.59356 0.64233 0.86583 0.0
H1266 H 0.59226 0.66037 0.82112 0.0
H1267 H 0.63045 0.74153 0.82432 0.0
H1268 H 0.50584 0.60661 0.83385 0.0
H1269 H 0.65705 0.62497 0.83353 0.0
H1270 H 0.73078 0.6477 0.84434 0.0
H1271 H 0.6652 0.55928 0.879 0.0
H1272 H 0.59103 0.53642 0.86845 0.0
H1273 H 0.4343 0.40419 0.79761 0.0
H1274 H 0.46981 0.48001 0.80746 0.0
H1275 H 0.48353 0.42885 0.8474 0.0
H1276 H 0.44981 0.35358 0.83742 0.0
H1277 H 0.5575 0.49709 0.84193 0.0
H1278 H 0.40773 0.46791 0.84082 0.0
H1279 H 0.33218 0.44557 0.83175 0.0
H1280 H 0.38969 0.55347 0.802 0.0
H1281 H 0.46572 0.57608 0.8108 0.0
C1282 C 0.62503 0.71058 0.8586 0.0
C1283 C 0.63393 0.7389 0.84697 0.0
C1284 C 0.60277 0.664 0.85674 0.0
C1285 C 0.58964 0.64567 0.84325 0.0
C1286 C 0.60176 0.67411 0.8316 0.0
C1287 C 0.62381 0.72036 0.83344 0.0
C1288 C 0.55995 0.59711 0.84111 0.0
C1289 C 0.517 0.58245 0.83549 0.0
C1290 C 0.57396 0.56578 0.84402 0.0
C1291 C 0.61854 0.5794 0.85029 0.0
C1292 C 0.65836 0.61068 0.84351 0.0
C1293 C 0.70022 0.62351 0.84958 0.0
C1294 C 0.70267 0.60506 0.86237 0.0
C1295 C 0.66325 0.57361 0.8691 0.0
C1296 C 0.62131 0.56067 0.86308 0.0
C1297 C 0.4444 0.40921 0.80853 0.0
C1298 C 0.43987 0.37338 0.81673 0.0
C1299 C 0.46441 0.45242 0.81419 0.0
C1300 C 0.47889 0.4601 0.82825 0.0
C1301 C 0.4727 0.42382 0.83655 0.0
C1302 C 0.45353 0.3809 0.83083 0.0
C1303 C 0.50368 0.50636 0.83393 0.0
C1304 C 0.54562 0.5207 0.84039 0.0
C1305 C 0.48834 0.53733 0.83196 0.0
C1306 C 0.44259 0.52355 0.82647 0.0
C1307 C 0.40435 0.48667 0.83229 0.0
C1308 C 0.36139 0.474 0.8272 0.0
C1309 C 0.35612 0.49806 0.81629 0.0
C1310 C 0.39382 0.53486 0.81046 0.0
C1311 C 0.43688 0.54766 0.81552 0.0
H1312 H 0.32282 0.48821 0.81236 0.0
H1313 H 0.73511 0.61504 0.86706 0.0
H1314 H 0.85786 0.65733 0.00026 0.0
H1315 H 0.91197 0.64055 0.98897 0.0
H1316 H 0.86874 0.52532 0.01583 0.0
H1317 H 0.81523 0.542 0.0272 0.0
H1318 H 0.95826 0.56699 0.01151 0.0
H1319 H 0.82248 0.51186 0.9841 0.0
H1320 H 0.76419 0.52 0.97145 0.0
H1321 H 0.86435 0.61498 0.94345 0.0
H1322 H 0.9234 0.60779 0.95607 0.0
H1323 H 0.98871 0.4071 0.97891 0.0
H1324 H 0.94817 0.44479 0.98664 0.0
H1325 H 0.02029 0.55 0.95641 0.0
H1326 H 0.06024 0.51123 0.94832 0.0
H1327 H 0.92833 0.52777 0.96101 0.0
H1328 H 0.06232 0.56637 0.9879 0.0
H1329 H 0.1126 0.54738 0.00103 0.0
H1330 H 0.00773 0.47315 0.03088 0.0
H1331 H 0.95659 0.49111 0.01781 0.0
C1332 C 0.86057 0.62897 0.00393 0.0
C1333 C 0.83183 0.60053 0.01445 0.0
C1334 C 0.89136 0.61937 -0.00255 0.0
C1335 C 0.89384 0.58134 0.00144 0.0
C1336 C 0.8673 0.55477 0.01257 0.0
C1337 C 0.8365 0.56418 0.01899 0.0
C1338 C 0.92068 0.56636 0.99332 0.0
C1339 C 0.95195 0.55867 0.00046 0.0
C1340 C 0.91263 0.55582 0.97887 0.0
C1341 C 0.87733 0.55971 0.97111 0.0
C1342 C 0.83208 0.53468 0.97529 0.0
C1343 C 0.79894 0.53908 0.96813 0.0
C1344 C 0.81062 0.56808 0.95669 0.0
C1345 C 0.85542 0.5926 0.95234 0.0
C1346 C 0.88874 0.58837 0.95948 0.0
C1347 C 0.99463 0.43741 0.97358 0.0
C1348 C 0.0273 0.45646 0.96306 0.0
C1349 C 0.9718 0.45905 0.97805 0.0
C1350 C 0.98222 0.50069 0.97233 0.0
C1351 C 0.01213 0.518 0.96099 0.0
C1352 C 0.03465 0.49583 0.95633 0.0
C1353 C 0.96515 0.52761 0.97928 0.0
C1354 C 0.93573 0.53744 0.97194 0.0
C1355 C 0.97424 0.5393 0.99364 0.0
C1356 C 0.00559 0.53004 0.00185 0.0
C1357 C 0.04996 0.54595 0.99725 0.0
C1358 C 0.0786 0.53532 0.00468 0.0
C1359 C 0.06337 0.50908 0.01678 0.0
C1360 C 0.01951 0.49353 0.02151 0.0
C1361 C 0.99071 0.504 0.01411 0.0
H1362 H 0.08555 0.50081 0.02249 0.0
H1363 H 0.78489 0.57139 0.95121 0.0
H1364 H 0.58365 0.04244 0.13353 0.0
H1365 H 0.50997 0.00296 0.14492 0.0
H1366 H 0.5728 0.05159 0.18523 0.0
H1367 H 0.64671 0.09224 0.17389 0.0
H1368 H 0.49661 0.94679 0.17952 0.0
H1369 H 0.53263 0.1025 0.17984 0.0
H1370 H 0.56119 0.17679 0.16889 0.0
H1371 H 0.46042 0.11788 0.1367 0.0
H1372 H 0.43175 0.04309 0.14734 0.0
H1373 H 0.27384 0.85017 0.20431 0.0
H1374 H 0.35434 0.90559 0.20313 0.0
H1375 H 0.33563 0.94068 0.16113 0.0
H1376 H 0.2548 0.8877 0.16281 0.0
H1377 H 0.39653 0.01123 0.17306 0.0
H1378 H 0.36753 0.85707 0.16955 0.0
H1379 H 0.33777 0.78012 0.17858 0.0
H1380 H 0.4233 0.83194 0.21476 0.0
H1381 H 0.45357 0.90931 0.20594 0.0
C1382 C 0.5818 0.04447 0.14482 0.0
C1383 C 0.62066 0.07066 0.15284 0.0
C1384 C 0.53985 0.02198 0.15129 0.0
C1385 C 0.53638 0.02474 0.16584 0.0
C1386 C 0.57517 0.04933 0.17397 0.0
C1387 C 0.6171 0.07261 0.16748 0.0
C1388 C 0.49163 0.00345 0.17232 0.0
C1389 C 0.47483 0.9611 0.17845 0.0
C1390 C 0.46355 0.02222 0.17065 0.0
C1391 C 0.48034 0.06718 0.16432 0.0
C1392 C 0.51684 0.10534 0.17035 0.0
C1393 C 0.53299 0.14754 0.16422 0.0
C1394 C 0.5127 0.15204 0.15209 0.0
C1395 C 0.47613 0.11434 0.14609 0.0
C1396 C 0.45989 0.07205 0.15218 0.0
C1397 C 0.28712 0.87071 0.19501 0.0
C1398 C 0.25892 0.86507 0.18361 0.0
C1399 C 0.33293 0.90198 0.19428 0.0
C1400 C 0.35122 0.92636 0.18189 0.0
C1401 C 0.32233 0.92219 0.17079 0.0
C1402 C 0.2763 0.89197 0.1717 0.0
C1403 C 0.40049 0.95349 0.17989 0.0
C1404 C 0.41833 -0.0029 0.17454 0.0
C1405 C 0.42931 0.93546 0.1821 0.0
C1406 C 0.41242 0.88895 0.18716 0.0
C1407 C 0.37998 0.85204 0.17943 0.0
C1408 C 0.36306 0.80838 0.18451 0.0
C1409 C 0.37865 0.80119 0.19724 0.0
C1410 C 0.41137 0.83763 0.20489 0.0
C1411 C 0.42846 0.88138 0.19985 0.0
H1412 H 0.36541 0.7674 0.20118 0.0
H1413 H 0.52525 0.18474 0.14735 0.0
H1414 H 0.49914 0.57084 0.32117 0.0
H1415 H 0.45695 0.49343 0.32874 0.0
H1416 H 0.48951 0.4505 0.29017 0.0
H1417 H 0.53119 0.52904 0.28215 0.0
H1418 H 0.40154 0.39437 0.29853 0.0
H1419 H 0.54887 0.46088 0.31945 0.0
H1420 H 0.61391 0.51889 0.33265 0.0
H1421 H 0.53049 0.49452 0.3688 0.0
H1422 H 0.46475 0.43676 0.35576 0.0
H1423 H 0.38495 0.19239 0.32228 0.0
H1424 H 0.39978 0.2639 0.31263 0.0
H1425 H 0.36494 0.29904 0.35225 0.0
H1426 H 0.35029 0.22703 0.36211 0.0
H1427 H 0.4489 0.35923 0.34374 0.0
H1428 H 0.30265 0.28745 0.32331 0.0
H1429 H 0.23793 0.22945 0.31002 0.0
H1430 H 0.31918 0.26231 0.27297 0.0
H1431 H 0.38462 0.32009 0.28608 0.0
C1432 C 0.49764 0.54512 0.31425 0.0
C1433 C 0.51929 0.55603 0.30116 0.0
C1434 C 0.47331 0.50084 0.31861 0.0
C1435 C 0.47098 0.46651 0.31015 0.0
C1436 C 0.49127 0.47681 0.29686 0.0
C1437 C 0.51521 0.52148 0.29234 0.0
C1438 C 0.44884 0.42031 0.31564 0.0
C1439 C 0.41212 0.38636 0.30831 0.0
C1440 C 0.46203 0.41057 0.32863 0.0
C1441 C 0.50179 0.44473 0.33658 0.0
C1442 C 0.54433 0.46806 0.33019 0.0
C1443 C 0.58133 0.5009 0.33764 0.0
C1444 C 0.57632 0.51049 0.35154 0.0
C1445 C 0.53432 0.4871 0.35803 0.0
C1446 C 0.49718 0.45427 0.35062 0.0
C1447 C 0.37949 0.21491 0.32887 0.0
C1448 C 0.36712 0.20461 0.343 0.0
C1449 C 0.38754 0.25557 0.32329 0.0
C1450 C 0.3833 0.2866 0.33172 0.0
C1451 C 0.36817 0.27527 0.34559 0.0
C1452 C 0.35978 0.23426 0.35119 0.0
C1453 C 0.40147 0.33294 0.32663 0.0
C1454 C 0.43781 0.3671 0.33402 0.0
C1455 C 0.38802 0.34263 0.31368 0.0
C1456 C 0.34868 0.30795 0.30572 0.0
C1457 C 0.30685 0.28209 0.31236 0.0
C1458 C 0.27 0.24929 0.30485 0.0
C1459 C 0.27446 0.24215 0.29067 0.0
C1460 C 0.31577 0.26787 0.28396 0.0
C1461 C 0.35275 0.30071 0.29142 0.0
H1462 H 0.24589 0.21673 0.28487 0.0
H1463 H 0.60499 0.53595 0.35729 0.0
H1464 H -0.001 0.76707 0.46237 0.0
H1465 H 0.06902 0.82134 0.45099 0.0
H1466 H 0.07338 0.71359 0.42917 0.0
H1467 H 0.00259 0.65925 0.44012 0.0
H1468 H 0.15354 0.84172 0.44756 0.0
H1469 H 0.09906 0.74186 0.39535 0.0
H1470 H 0.02919 0.68577 0.38357 0.0
H1471 H 0.95351 0.7326 0.40683 0.0
H1472 H 0.02299 0.78941 0.41855 0.0
H1473 H 0.32959 0.96707 0.39968 0.0
H1474 H 0.2729 0.9035 0.41322 0.0
H1475 H 0.16776 0.91566 0.39227 0.0
H1476 H 0.22394 0.97733 0.37826 0.0
H1477 H 0.13997 0.83342 0.39569 0.0
H1478 H 0.21295 0.96275 0.42568 0.0
H1479 H 0.27726 0.02591 0.4377 0.0
H1480 H 0.30603 0.93356 0.45927 0.0
H1481 H 0.24255 0.86992 0.44718 0.0
C1482 C 0.01527 0.75483 0.45533 0.0
C1483 C 0.99471 0.70905 0.45182 0.0
C1484 C 0.05541 0.7859 0.44889 0.0
C1485 C 0.07567 0.77154 0.43895 0.0
C1486 C 0.05761 0.72542 0.43654 0.0
C1487 C 0.01719 0.69444 0.44281 0.0
C1488 C 0.11224 0.80478 0.42995 0.0
C1489 C 0.15085 0.83983 0.43622 0.0
C1490 C 0.108 0.80295 0.41516 0.0
C1491 C 0.06615 0.76948 0.40794 0.0
C1492 C 0.06753 0.74028 0.3979 0.0
C1493 C 0.028 0.70837 0.39123 0.0
C1494 C 0.98692 0.70552 0.39449 0.0
C1495 C 0.98532 0.73474 0.40435 0.0
C1496 C 0.02476 0.76679 0.41101 0.0
C1497 C 0.29429 0.95558 0.39783 0.0
C1498 C 0.28112 0.9772 0.38798 0.0
C1499 C 0.26198 0.91953 0.40564 0.0
C1500 C 0.2161 0.90545 0.40401 0.0
C1501 C 0.20293 0.92589 0.39374 0.0
C1502 C 0.23509 0.96118 0.38572 0.0
C1503 C 0.18164 0.87065 0.41325 0.0
C1504 C 0.14321 0.83517 0.40702 0.0
C1505 C 0.18527 0.87333 0.42808 0.0
C1506 C 0.22331 0.9116 0.43541 0.0
C1507 C 0.2332 0.95595 0.43291 0.0
C1508 C 0.26945 0.99182 0.43974 0.0
C1509 C 0.29569 0.98374 0.44922 0.0
C1510 C 0.28572 0.93977 0.45191 0.0
C1511 C 0.24964 0.90379 0.44506 0.0
H1512 H 0.32371 0.01155 0.4545 0.0
H1513 H 0.95636 0.68073 0.38934 0.0
H1514 H 0.3532 0.32729 0.54545 0.0
H1515 H 0.37494 0.28389 0.56079 0.0
H1516 H 0.23521 0.19294 0.57012 0.0
H1517 H 0.21308 0.23516 0.55472 0.0
H1518 H 0.29833 0.23571 0.59432 0.0
H1519 H 0.27806 0.155 0.55003 0.0
H1520 H 0.29609 0.15103 0.52525 0.0
H1521 H 0.43433 0.19958 0.53625 0.0
H1522 H 0.41718 0.20443 0.5611 0.0
H1523 H 0.23746 0.02622 0.62076 0.0
H1524 H 0.25361 0.09664 0.61003 0.0
H1525 H 0.38977 0.12763 0.60161 0.0
H1526 H 0.37348 0.05618 0.61211 0.0
H1527 H 0.35192 0.13301 0.57852 0.0
H1528 H 0.36858 0.19547 0.62347 0.0
H1529 H 0.35228 0.20014 0.64836 0.0
H1530 H 0.22643 0.19027 0.63702 0.0
H1531 H 0.24156 0.1848 0.61207 0.0
C1532 C 0.32712 0.29762 0.55061 0.0
C1533 C 0.28144 0.28472 0.54892 0.0
C1534 C 0.33962 0.27308 0.55938 0.0
C1535 C 0.30661 0.23577 0.56666 0.0
C1536 C 0.26107 0.22199 0.56464 0.0
C1537 C 0.24852 0.24595 0.55574 0.0
C1538 C 0.3189 0.21117 0.57671 0.0
C1539 C 0.31015 0.21323 0.59096 0.0
C1540 C 0.3363 0.18371 0.57229 0.0
C1541 C 0.34649 0.18072 0.55737 0.0
C1542 C 0.3124 0.1653 0.54714 0.0
C1543 C 0.32242 0.16277 0.53309 0.0
C1544 C 0.36637 0.17522 0.52917 0.0
C1545 C 0.40034 0.19007 0.5393 0.0
C1546 C 0.39048 0.19271 0.55336 0.0
C1547 C 0.27121 0.04839 0.61695 0.0
C1548 C 0.30389 0.03516 0.61705 0.0
C1549 C 0.28055 0.08897 0.61089 0.0
C1550 C 0.32298 0.11754 0.60502 0.0
C1551 C 0.35678 0.10601 0.60604 0.0
C1552 C 0.34738 0.06519 0.61206 0.0
C1553 C 0.32923 0.15566 0.5962 0.0
C1554 C 0.34154 0.1564 0.58212 0.0
C1555 C 0.31557 0.18612 0.60084 0.0
C1556 C 0.30623 0.18963 0.61586 0.0
C1557 C 0.33729 0.19403 0.62627 0.0
C1558 C 0.32827 0.19684 0.6404 0.0
C1559 C 0.28834 0.19549 0.64427 0.0
C1560 C 0.25737 0.19137 0.63401 0.0
C1561 C 0.26621 0.18851 0.61986 0.0
H1562 H 0.28141 0.19765 0.65522 0.0
H1563 H 0.37407 0.17322 0.51828 0.0
H1564 H 0.20514 0.18563 0.79343 0.0
H1565 H 0.14982 0.19612 0.7801 0.0
H1566 H 0.2489 0.33511 0.77333 0.0
H1567 H 0.30468 0.32447 0.78625 0.0
H1568 H 0.14748 0.30757 0.77824 0.0
H1569 H 0.25254 0.28125 0.75012 0.0
H1570 H 0.2903 0.2374 0.7456 0.0
H1571 H 0.16194 0.11798 0.74021 0.0
H1572 H 0.12342 0.16102 0.74502 0.0
H1573 H 0.0548 0.35403 0.71974 0.0
H1574 H 0.11248 0.3519 0.73428 0.0
H1575 H 0.04502 0.20781 0.72981 0.0
H1576 H 0.98841 0.20974 0.71492 0.0
H1577 H 0.13097 0.23852 0.73125 0.0
H1578 H 0.02403 0.25783 0.75795 0.0
H1579 H 0.97981 0.29347 0.76475 0.0
H1580 H 0.10152 0.41565 0.7747 0.0
H1581 H 0.14654 0.38089 0.76778 0.0
C1582 C 0.21449 0.21878 0.78956 0.0
C1583 C 0.25898 0.25426 0.79075 0.0
C1584 C 0.18302 0.22468 0.78194 0.0
C1585 C 0.19564 0.26628 0.77572 0.0
C1586 C 0.23872 0.30288 0.77813 0.0
C1587 C 0.27044 0.29675 0.78546 0.0
C1588 C 0.16688 0.26974 0.76489 0.0
C1589 C 0.14414 0.29303 0.7679 0.0
C1590 C 0.16195 0.24965 0.75159 0.0
C1591 C 0.18512 0.22425 0.74806 0.0
C1592 C 0.23238 0.24559 0.74806 0.0
C1593 C 0.25392 0.2209 0.74545 0.0
C1594 C 0.22854 0.17491 0.74266 0.0
C1595 C 0.18156 0.15359 0.7424 0.0
C1596 C 0.15986 0.17812 0.74506 0.0
C1597 C 0.05289 0.32203 0.72156 0.0
C1598 C 0.01648 0.28198 0.71641 0.0
C1599 C 0.08569 0.32082 0.72995 0.0
C1600 C 0.08219 0.27953 0.73349 0.0
C1601 C 0.04815 0.24001 0.72735 0.0
C1602 C 0.01572 0.24122 0.71882 0.0
C1603 C 0.11145 0.27687 0.74446 0.0
C1604 C 0.13433 0.2535 0.74151 0.0
C1605 C 0.11561 0.296 0.75794 0.0
C1606 C 0.08867 0.31693 0.7622 0.0
C1607 C 0.04138 0.2924 0.76149 0.0
C1608 C 0.01617 0.31242 0.76538 0.0
C1609 C 0.03785 0.35684 0.77011 0.0
C1610 C 0.08479 0.38127 0.77101 0.0
C1611 C 0.11017 0.36143 0.76712 0.0
H1612 H 0.01827 0.37228 0.77311 0.0
H1613 H 0.24528 0.15582 0.74068 0.0
H1614 H 0.66426 0.99052 0.89202 0.0
H1615 H 0.71585 0.05595 0.90618 0.0
H1616 H 0.82878 0.04869 0.88952 0.0
H1617 H 0.7779 0.98424 0.8751 0.0
H1618 H 0.81207 0.0453 0.92194 0.0
H1619 H 0.82801 0.12727 0.87838 0.0
H1620 H 0.7972 0.15032 0.85874 0.0
H1621 H 0.7416 0.20492 0.88781 0.0
H1622 H 0.77154 0.18155 0.90764 0.0
H1623 H 0.01375 0.22723 0.94483 0.0
H1624 H 0.94975 0.16626 0.93293 0.0
H1625 H 0.87421 0.23494 0.93827 0.0
H1626 H 0.93993 0.29791 0.94946 0.0
H1627 H 0.86158 0.20575 0.91353 0.0
H1628 H 0.85026 0.13399 0.95697 0.0
H1629 H 0.87564 0.10953 0.97764 0.0
H1630 H 0.91383 0.03315 0.95116 0.0
H1631 H 0.88925 0.05761 0.9303 0.0
C1632 C 0.70015 0.0034 0.89119 0.0
C1633 C 0.71703 0.98217 0.88249 0.0
C1634 C 0.72945 0.04066 0.89927 0.0
C1635 C 0.77587 0.05672 0.89888 0.0
C1636 C 0.79294 0.03656 0.88991 0.0
C1637 C 0.76383 -8e-05 0.88164 0.0
C1638 C 0.8066 0.09256 0.90852 0.0
C1639 C 0.82328 0.08049 0.92012 0.0
C1640 C 0.81922 0.13794 0.9064 0.0
C1641 C 0.80148 0.15213 0.89448 0.0
C1642 C 0.80878 0.14374 0.88058 0.0
C1643 C 0.79159 0.15697 0.86942 0.0
C1644 C 0.76731 0.17892 0.87203 0.0
C1645 C 0.76032 0.18782 0.88581 0.0
C1646 C 0.77741 0.17462 0.89701 0.0
C1647 C 0.98323 0.22901 0.94373 0.0
C1648 C 0.98163 0.26712 0.94817 0.0
C1649 C 0.94644 0.19392 0.93696 0.0
C1650 C 0.90657 0.19534 0.93493 0.0
C1651 C 0.90448 0.23293 0.93973 0.0
C1652 C 0.94187 0.26874 0.94619 0.0
C1653 C 0.86861 0.15894 0.92693 0.0
C1654 C 0.85019 0.17067 0.91561 0.0
C1655 C 0.85353 0.11297 0.92952 0.0
C1656 C 0.86809 0.09785 0.94205 0.0
C1657 C 0.86429 0.11217 0.95554 0.0
C1658 C 0.87852 0.09828 0.9673 0.0
C1659 C 0.89639 0.06985 0.96571 0.0
C1660 C 0.89997 0.05516 0.95237 0.0
C1661 C 0.88581 0.06896 0.94058 0.0
H1662 H 0.90741 0.05915 0.97482 0.0
H1663 H 0.75403 0.18915 0.86338 0.0
H1664 H 0.66408 0.01094 0.09847 0.0
H1665 H 0.64644 0.94515 0.0842 0.0
H1666 H 0.74204 0.92494 0.10795 0.0
H1667 H 0.75935 0.99021 0.12243 0.0
H1668 H 0.70069 0.93419 0.06712 0.0
H1669 H 0.71139 0.81561 0.10838 0.0
H1670 H 0.69389 0.79646 0.13336 0.0
H1671 H 0.5945 0.83749 0.1317 0.0
H1672 H 0.61094 0.8563 0.10667 0.0
H1673 H 0.7622 0.78099 0.0396 0.0
H1674 H 0.75223 0.83857 0.05126 0.0
H1675 H 0.61757 0.73862 0.0632 0.0
H1676 H 0.62739 0.68062 0.05171 0.0
H1677 H 0.66408 0.78469 0.08537 0.0
H1678 H 0.63513 0.82115 0.03991 0.0
H1679 H 0.64807 0.83903 0.01474 0.0
H1680 H 0.77307 0.95835 0.02419 0.0
H1681 H 0.76122 0.94087 0.04942 0.0
C1682 C 0.6809 0.99213 0.10081 0.0
C1683 C 0.71333 0.00602 0.11156 0.0
C1684 C 0.67086 0.95462 0.0926 0.0
C1685 C 0.69285 0.9301 0.09501 0.0
C1686 C 0.72419 0.943 0.10601 0.0
C1687 C 0.73415 0.98043 0.11427 0.0
C1688 C 0.68508 0.89269 0.08551 0.0
C1689 C 0.69238 0.90138 0.07109 0.0
C1690 C 0.67337 0.84965 0.09066 0.0
C1691 C 0.66267 0.83767 0.10566 0.0
C1692 C 0.68562 0.82031 0.11332 0.0
C1693 C 0.67593 0.80957 0.12749 0.0
C1694 C 0.64319 0.81586 0.13412 0.0
C1695 C 0.61995 0.83277 0.12657 0.0
C1696 C 0.62949 0.84353 0.11239 0.0
C1697 C 0.73004 0.77134 0.0444 0.0
C1698 C 0.69581 0.72607 0.04486 0.0
C1699 C 0.72436 0.80438 0.05105 0.0
C1700 C 0.68419 0.79287 0.05815 0.0
C1701 C 0.64893 0.74818 0.05786 0.0
C1702 C 0.65459 0.71511 0.05124 0.0
C1703 C 0.68084 0.82654 0.06701 0.0
C1704 C 0.6717 0.81725 0.08135 0.0
C1705 C 0.69014 0.86875 0.06174 0.0
C1706 C 0.6974 0.87951 0.04657 0.0
C1707 C 0.66555 0.85103 0.03662 0.0
C1708 C 0.67266 0.86113 0.02234 0.0
C1709 C 0.7114 0.89976 0.01786 0.0
C1710 C 0.74307 0.92843 0.02767 0.0
C1711 C 0.73615 0.91847 0.04197 0.0
H1712 H 0.71684 0.90752 0.0068 0.0
H1713 H 0.63577 0.80758 0.1451 0.0
H1714 H 0.76064 0.72861 0.28185 0.0
H1715 H 0.81558 0.73409 0.26443 0.0
H1716 H 0.70832 0.66502 0.23425 0.0
H1717 H 0.65355 0.65622 0.25198 0.0
H1718 H 0.76186 0.64149 0.22874 0.0
H1719 H 0.78147 0.78486 0.2348 0.0
H1720 H 0.79146 0.85285 0.24676 0.0
H1721 H 0.91983 0.87941 0.26255 0.0
H1722 H 0.91034 0.81122 0.25085 0.0
H1723 H -0.00041 0.79661 0.19218 0.0
H1724 H 0.9284 0.78723 0.20102 0.0
H1725 H 0.89638 0.6587 0.21846 0.0
H1726 H 0.96523 0.66655 0.20893 0.0
H1727 H 0.90393 0.78722 0.22509 0.0
H1728 H 0.79089 0.58908 0.22398 0.0
H1729 H 0.7743 0.52792 0.20729 0.0
H1730 H 0.81925 0.62166 0.17316 0.0
H1731 H 0.83524 0.68324 0.18956 0.0
C1732 C 0.74899 0.71361 0.2716 0.0
C1733 C 0.70308 0.69158 0.26826 0.0
C1734 C 0.78031 0.71736 0.26156 0.0
C1735 C 0.76635 0.70118 0.24783 0.0
C1736 C 0.72016 0.67781 0.24471 0.0
C1737 C 0.68881 0.67262 0.25488 0.0
C1738 C 0.79985 0.70916 0.23671 0.0
C1739 C 0.79278 0.67345 0.22789 0.0
C1740 C 0.83901 0.75162 0.23489 0.0
C1741 C 0.84502 0.79269 0.24202 0.0
C1742 C 0.8117 0.80502 0.24091 0.0
C1743 C 0.81729 0.84363 0.24763 0.0
C1744 C 0.85622 0.87038 0.25544 0.0
C1745 C 0.88967 0.85863 0.25651 0.0
C1746 C 0.88424 0.82003 0.24982 0.0
C1747 C 0.97664 0.76589 0.19759 0.0
C1748 C 0.98797 0.73237 0.19988 0.0
C1749 C 0.93611 0.76064 0.2027 0.0
C1750 C 0.90664 0.72209 0.21035 0.0
C1751 C 0.91757 0.68813 0.21224 0.0
C1752 C 0.95733 0.69284 0.20685 0.0
C1753 C 0.86693 0.71884 0.21766 0.0
C1754 C 0.87266 0.75549 0.22573 0.0
C1755 C 0.82516 0.67825 0.21802 0.0
C1756 C 0.81448 0.64091 0.20806 0.0
C1757 C 0.79684 0.59663 0.2129 0.0
C1758 C 0.78761 0.56187 0.20349 0.0
C1759 C 0.79577 0.5709 0.18918 0.0
C1760 C 0.81301 0.61469 0.18424 0.0
C1761 C 0.82217 0.64955 0.1936 0.0
H1762 H 0.7887 0.54395 0.18192 0.0
H1763 H 0.86049 0.90027 0.26063 0.0
H1764 H 0.72013 0.5299 0.44659 0.0
H1765 H 0.66453 0.47606 0.42994 0.0
H1766 H 0.7105 0.38257 0.43893 0.0
H1767 H 0.76694 0.4369 0.45514 0.0
H1768 H 0.70983 0.39668 0.41151 0.0
H1769 H 0.60863 0.36639 0.45028 0.0
H1770 H 0.56799 0.3828 0.4685 0.0
H1771 H 0.50872 0.42628 0.43697 0.0
H1772 H 0.54977 0.41104 0.41857 0.0
H1773 H 0.54245 0.18509 0.38848 0.0
H1774 H 0.59551 0.25271 0.40118 0.0
H1775 H 0.53899 0.3264 0.38146 0.0
H1776 H 0.48569 0.25843 0.3685 0.0
H1777 H 0.54426 0.3325 0.41139 0.0
H1778 H 0.63989 0.35515 0.37255 0.0
H1779 H 0.67735 0.33412 0.35449 0.0
H1780 H 0.74505 0.30222 0.3865 0.0
H1781 H 0.70749 0.32242 0.40477 0.0
C1782 C 0.71708 0.49716 0.44532 0.0
C1783 C 0.7467 0.48673 0.4523 0.0
C1784 C 0.68558 0.46663 0.4358 0.0
C1785 C 0.6831 0.42522 0.43332 0.0
C1786 C 0.71177 0.41431 0.44073 0.0
C1787 C 0.74363 0.44503 0.45005 0.0
C1788 C 0.6535 0.39463 0.4222 0.0
C1789 C 0.67357 0.38241 0.41156 0.0
C1790 C 0.60644 0.37765 0.42192 0.0
C1791 C 0.58282 0.38814 0.43304 0.0
C1792 C 0.58744 0.38004 0.44723 0.0
C1793 C 0.56414 0.38893 0.45759 0.0
C1794 C 0.53575 0.40552 0.4539 0.0
C1795 C 0.53062 0.41331 0.43982 0.0
C1796 C 0.554 0.40466 0.42942 0.0
C1797 C 0.54187 0.21589 0.38664 0.0
C1798 C 0.51013 0.21666 0.3775 0.0
C1799 C 0.5722 0.25447 0.39388 0.0
C1800 C 0.57112 0.29444 0.39222 0.0
C1801 C 0.54029 0.29579 0.38282 0.0
C1802 C 0.51024 0.25717 0.37537 0.0
C1803 C 0.60057 0.33351 0.40109 0.0
C1804 C 0.5806 0.3475 0.41125 0.0
C1805 C 0.64774 0.35212 0.40099 0.0
C1806 C 0.67063 0.34009 0.39004 0.0
C1807 C 0.6625 0.34334 0.37575 0.0
C1808 C 0.68381 0.33162 0.36547 0.0
C1809 C 0.71352 0.31679 0.36934 0.0
C1810 C 0.72204 0.31372 0.38351 0.0
C1811 C 0.7008 0.32537 0.39383 0.0
H1812 H 0.72998 0.30773 0.36137 0.0
H1813 H 0.51791 0.41253 0.46194 0.0
H1814 H 0.25235 0.80902 0.58508 0.0
H1815 H 0.24953 0.74992 0.57025 0.0
H1816 H 0.31567 0.71621 0.60259 0.0
H1817 H 0.31873 0.77562 0.61761 0.0
H1818 H 0.35518 0.72852 0.57636 0.0
H1819 H 0.20686 0.65022 0.59654 0.0
H1820 H 0.13091 0.6361 0.60243 0.0
H1821 H 0.09999 0.63323 0.55868 0.0
H1822 H 0.17604 0.6481 0.55251 0.0
H1823 H 0.31468 0.51397 0.55957 0.0
H1824 H 0.31988 0.58192 0.56922 0.0
H1825 H 0.25582 0.59636 0.53219 0.0
H1826 H 0.25088 0.52786 0.52229 0.0
H1827 H 0.21557 0.59927 0.55752 0.0
H1828 H 0.36034 0.67303 0.53703 0.0
H1829 H 0.4362 0.68823 0.53053 0.0
H1830 H 0.47312 0.69982 0.574 0.0
H1831 H 0.39733 0.68438 0.58079 0.0
C1832 C 0.26631 0.78904 0.58908 0.0
C1833 C 0.28625 0.79723 0.60247 0.0
C1834 C 0.26432 0.75508 0.58061 0.0
C1835 C 0.28225 0.72875 0.58536 0.0
C1836 C 0.30165 0.73635 0.59878 0.0
C1837 C 0.30332 0.77014 0.60734 0.0
C1838 C 0.28276 0.69475 0.57605 0.0
C1839 C 0.32465 0.69994 0.57237 0.0
C1840 C 0.24288 0.65879 0.57034 0.0
C1841 C 0.19745 0.6509 0.57407 0.0
C1842 C 0.18412 0.64719 0.58817 0.0
C1843 C 0.14096 0.63884 0.59156 0.0
C1844 C 0.11065 0.63374 0.58093 0.0
C1845 C 0.1235 0.63717 0.5669 0.0
C1846 C 0.16663 0.64557 0.56345 0.0
C1847 C 0.30218 0.53187 0.55338 0.0
C1848 C 0.28218 0.51566 0.54022 0.0
C1849 C 0.30546 0.57083 0.55887 0.0
C1850 C 0.28853 0.59421 0.55136 0.0
C1851 C 0.26933 0.57878 0.53806 0.0
C1852 C 0.26666 0.53991 0.53243 0.0
C1853 C 0.28791 0.63243 0.55816 0.0
C1854 C 0.24608 0.62817 0.56137 0.0
C1855 C 0.32779 0.6694 0.56339 0.0
C1856 C 0.37302 0.67731 0.55942 0.0
C1857 C 0.38446 0.67837 0.54522 0.0
C1858 C 0.42751 0.6872 0.54148 0.0
C1859 C 0.45946 0.69505 0.55184 0.0
C1860 C 0.44835 0.69384 0.56598 0.0
C1861 C 0.40538 0.68515 0.56978 0.0
H1862 H 0.49286 0.70218 0.54892 0.0
H1863 H 0.07719 0.62707 0.58357 0.0
H1864 H 0.53885 0.26775 0.80504 0.0
H1865 H 0.60551 0.27947 0.79186 0.0
H1866 H 0.53762 0.27202 0.753 0.0
H1867 H 0.47168 0.26129 0.76606 0.0
H1868 H 0.58283 0.22375 0.75241 0.0
H1869 H 0.6109 0.37134 0.76558 0.0
H1870 H 0.61795 0.42908 0.78237 0.0
H1871 H 0.72339 0.42074 0.80404 0.0
H1872 H 0.7165 0.36244 0.78748 0.0
H1873 H 0.76786 0.31547 0.70605 0.0
H1874 H 0.70339 0.30791 0.71938 0.0
H1875 H 0.77385 0.31984 0.75808 0.0
H1876 H 0.83823 0.32759 0.74492 0.0
H1877 H 0.72763 0.36549 0.75903 0.0
H1878 H 0.70296 0.22102 0.74612 0.0
H1879 H 0.69546 0.16051 0.73053 0.0
H1880 H 0.584 0.15934 0.70954 0.0
H1881 H 0.59136 0.2205 0.72487 0.0
C1882 C 0.53821 0.2682 0.79369 0.0
C1883 C 0.50054 0.26392 0.78652 0.0
C1884 C 0.57613 0.275 0.78621 0.0
C1885 C 0.57639 0.27682 0.7715 0.0
C1886 C 0.53804 0.27077 0.76434 0.0
C1887 C 0.50059 0.26486 0.7718 0.0
C1888 C 0.61713 0.28662 0.7635 0.0
C1889 C 0.61437 0.2549 0.75371 0.0
C1890 C 0.65842 0.3269 0.7655 0.0
C1891 C 0.66288 0.36223 0.77538 0.0
C1892 C 0.63535 0.38158 0.77399 0.0
C1893 C 0.63935 0.41444 0.78345 0.0
C1894 C 0.67102 0.42849 0.79429 0.0
C1895 C 0.69883 0.40978 0.79566 0.0
C1896 C 0.69492 0.37685 0.78623 0.0
C1897 C 0.76996 0.31749 0.71739 0.0
C1898 C 0.80794 0.32189 0.72445 0.0
C1899 C 0.73305 0.31285 0.72497 0.0
C1900 C 0.73379 0.31275 0.73969 0.0
C1901 C 0.77266 0.31975 0.74672 0.0
C1902 C 0.80933 0.32404 0.73918 0.0
C1903 C 0.69323 0.30272 0.74782 0.0
C1904 C 0.69606 0.33433 0.75767 0.0
C1905 C 0.6521 0.26208 0.74597 0.0
C1906 C 0.64803 0.22575 0.73656 0.0
C1907 C 0.67719 0.20829 0.73807 0.0
C1908 C 0.6729 0.17377 0.7293 0.0
C1909 C 0.63932 0.15614 0.71903 0.0
C1910 C 0.61003 0.17306 0.71749 0.0
C1911 C 0.61423 0.20765 0.72623 0.0
H1912 H 0.63591 0.12924 0.71231 0.0
H1913 H 0.67406 0.45393 0.80161 0.0
H1914 H 0.53489 0.70918 0.87408 0.0
H1915 H 0.47876 0.65204 0.88972 0.0
H1916 H 0.39012 0.70533 0.88218 0.0
H1917 H 0.44728 0.76388 0.86738 0.0
H1918 H 0.39998 0.69937 0.90903 0.0
H1919 H 0.37632 0.5996 0.8684 0.0
H1920 H 0.40565 0.56543 0.85173 0.0
H1921 H 0.44251 0.50929 0.88598 0.0
H1922 H 0.41389 0.54347 0.90283 0.0
H1923 H 0.17784 0.4803 0.91808 0.0
H1924 H 0.24715 0.52942 0.90559 0.0
H1925 H 0.31561 0.58263 0.94496 0.0
H1926 H 0.24545 0.53395 0.9576 0.0
H1927 H 0.32763 0.5337 0.90571 0.0
H1928 H 0.39883 0.69041 0.9391 0.0
H1929 H 0.37512 0.72776 0.95645 0.0
H1930 H 0.24552 0.67104 0.93661 0.0
H1931 H 0.26868 0.63373 0.91908 0.0
C1932 C 0.50275 0.70756 0.87547 0.0
C1933 C 0.49485 0.74034 0.86953 0.0
C1934 C 0.47084 0.67514 0.88444 0.0
C1935 C 0.43022 0.67445 0.88715 0.0
C1936 C 0.42138 0.70548 0.88036 0.0
C1937 C 0.45367 0.73852 0.87178 0.0
C1938 C 0.39775 0.64393 0.89771 0.0
C1939 C 0.38429 0.66311 0.9083 0.0
C1940 C 0.3784 0.59673 0.89712 0.0
C1941 C 0.39337 0.57445 0.88687 0.0
C1942 C 0.3907 0.57998 0.87236 0.0
C1943 C 0.40723 0.56063 0.86288 0.0
C1944 C 0.42611 0.5354 0.86781 0.0
C1945 C 0.42795 0.52891 0.88219 0.0
C1946 C 0.41155 0.54821 0.8917 0.0
C1947 C 0.20749 0.50288 0.92409 0.0
C1948 C 0.20616 0.50374 0.9388 0.0
C1949 C 0.2472 0.53056 0.91695 0.0
C1950 C 0.28658 0.55951 0.92433 0.0
C1951 C 0.28546 0.56077 0.93905 0.0
C1952 C 0.24536 0.53332 0.94624 0.0
C1953 C 0.3279 0.58924 0.91634 0.0
C1954 C 0.34363 0.56997 0.90645 0.0
C1955 C 0.34955 0.63644 0.91757 0.0
C1956 C 0.33533 0.65902 0.9279 0.0
C1957 C 0.36533 0.68606 0.93844 0.0
C1958 C 0.35199 0.70718 0.9483 0.0
C1959 C 0.30879 0.70167 0.94766 0.0
C1960 C 0.27891 0.67516 0.93712 0.0
C1961 C 0.2921 0.654 0.92723 0.0
H1962 H 0.29851 0.71801 0.95531 0.0
H1963 H 0.43948 0.52096 0.86052 0.0
H1964 H 0.71403 0.21894 0.10684 0.0
H1965 H 0.72469 0.28758 0.09596 0.0
H1966 H 0.78462 0.36109 0.13405 0.0
H1967 H 0.77571 0.29211 0.145 0.0
H1968 H 0.70264 0.3629 0.11961 0.0
H1969 H 0.85213 0.39508 0.11372 0.0
H1970 H 0.91435 0.38146 0.10811 0.0
H1971 H 0.87138 0.35602 0.06513 0.0
H1972 H 0.80781 0.36789 0.07057 0.0
H1973 H 0.7307 0.55267 0.08139 0.0
H1974 H 0.74758 0.50645 0.09674 0.0
H1975 H 0.72443 0.4152 0.06255 0.0
H1976 H 0.70793 0.46182 0.04693 0.0
H1977 H 0.80121 0.43512 0.07852 0.0
H1978 H 0.64412 0.38934 0.08626 0.0
H1979 H 0.58165 0.40248 0.09216 0.0
H1980 H 0.64192 0.45561 0.13227 0.0
H1981 H 0.70509 0.44331 0.12652 0.0
C1982 C 0.72954 0.24963 0.11295 0.0
C1983 C 0.74361 0.25011 0.12683 0.0
C1984 C 0.73593 0.28885 0.10667 0.0
C1985 C 0.75568 0.3292 0.11419 0.0
C1986 C 0.76959 0.3301 0.1281 0.0
C1987 C 0.7643 0.29082 0.13432 0.0
C1988 C 0.75831 0.36906 0.1075 0.0
C1989 C 0.72504 0.37975 0.11088 0.0
C1990 C 0.78704 0.39005 0.09596 0.0
C1991 C 0.82474 0.38193 0.09261 0.0
C1992 C 0.8554 0.38584 0.10312 0.0
C1993 C 0.89102 0.37853 0.09996 0.0
C1994 C 0.89676 0.36781 0.08628 0.0
C1995 C 0.86688 0.36437 0.07573 0.0
C1996 C 0.83093 0.37123 0.07886 0.0
C1997 C 0.72909 0.52277 0.07707 0.0
C1998 C 0.71748 0.51071 0.06292 0.0
C1999 C 0.73885 0.49644 0.08589 0.0
C2000 C 0.73701 0.45733 0.0808 0.0
C2001 C 0.7261 0.44538 0.06666 0.0
C2002 C 0.71626 0.47178 0.05778 0.0
C2003 C 0.74466 0.42794 0.09039 0.0
C2004 C 0.77961 0.41912 0.08747 0.0
C2005 C 0.71762 0.40872 0.10241 0.0
C2006 C 0.67956 0.4159 0.10589 0.0
C2007 C 0.64422 0.40416 0.09629 0.0
C2008 C 0.60866 0.41139 0.09962 0.0
C2009 C 0.60789 0.43 0.11257 0.0
C2010 C 0.64261 0.44129 0.12224 0.0
C2011 C 0.67828 0.43417 0.11895 0.0
H2012 H 0.58032 0.43557 0.11513 0.0
H2013 H 0.92442 0.36226 0.08384 0.0
H2014 H 0.47175 0.63788 0.25381 0.0
H2015 H 0.40847 0.63877 0.24251 0.0
H2016 H 0.37363 0.67651 0.28163 0.0
H2017 H 0.43712 0.67513 0.29319 0.0
H2018 H 0.29715 0.61206 0.26258 0.0
H2019 H 0.43105 0.76098 0.26318 0.0
H2020 H 0.51375 0.806 0.26117 0.0
H2021 H 0.50606 0.75944 0.21893 0.0
H2022 H 0.42321 0.71457 0.22065 0.0
H2023 H 0.17726 0.70858 0.23288 0.0
H2024 H 0.23071 0.69721 0.2465 0.0
H2025 H 0.29056 0.68384 0.20839 0.0
H2026 H 0.23726 0.6959 0.19453 0.0
H2027 H 0.3541 0.7363 0.22789 0.0
H2028 H 0.21978 0.59187 0.22648 0.0
H2029 H 0.13867 0.53829 0.22911 0.0
H2030 H 0.14702 0.56945 0.27299 0.0
H2031 H 0.22812 0.62373 0.27059 0.0
C2032 C 0.4501 0.64548 0.2601 0.0
C2033 C 0.45958 0.65709 0.27431 0.0
C2034 C 0.41393 0.64576 0.25364 0.0
C2035 C 0.38701 0.65825 0.26123 0.0
C2036 C 0.3942 0.66672 0.27567 0.0
C2037 C 0.43038 0.66601 0.28222 0.0
C2038 C 0.35564 0.66803 0.25356 0.0
C2039 C 0.30931 0.63962 0.25518 0.0
C2040 C 0.37204 0.70343 0.24372 0.0
C2041 C 0.42106 0.73448 0.24204 0.0
C2042 C 0.44702 0.76078 0.25341 0.0
C2043 C 0.49389 0.7861 0.25235 0.0
C2044 C 0.51515 0.78521 0.23998 0.0
C2045 C 0.48951 0.75986 0.22854 0.0
C2046 C 0.44258 0.73484 0.2295 0.0
C2047 C 0.2016 0.70306 0.22733 0.0
C2048 C 0.20257 0.7025 0.21259 0.0
C2049 C 0.23213 0.69655 0.23516 0.0
C2050 C 0.26406 0.68903 0.22845 0.0
C2051 C 0.26591 0.68937 0.21375 0.0
C2052 C 0.2353 0.69596 0.20586 0.0
C2053 C 0.29501 0.68023 0.23687 0.0
C2054 C 0.34156 0.70894 0.23537 0.0
C2055 C 0.27865 0.64498 0.24683 0.0
C2056 C 0.22993 0.61219 0.24832 0.0
C2057 C 0.20426 0.58756 0.23667 0.0
C2058 C 0.15829 0.55702 0.23812 0.0
C2059 C 0.13768 0.55056 0.2512 0.0
C2060 C 0.16303 0.57454 0.26286 0.0
C2061 C 0.209 0.60517 0.26146 0.0
H2062 H 0.10209 0.5269 0.2523 0.0
H2063 H 0.55146 0.80449 0.23921 0.0
loop_
_geom_bond_atom_site_label_1
_geom_bond_atom_site_label_2
_geom_bond_distance
_geom_bond_site_symmetry_2
_ccdc_geom_bond_type
Fe0 O2 1.918 . S
Fe0 O5 1.997 . S
Fe0 O6 2.002 . S
Fe0 O11 1.976 . S
Fe0 O14 1.996 . S
Fe1 O2 1.918 . S
Fe1 O9 1.997 . S
Fe1 O12 1.996 . S
Fe1 O16 1.976 . S
Fe1 O19 2.002 . S
O2 Fe0 1.918 . S
O2 Fe1 1.918 . S
O2 Fe3 1.918 . S
Fe3 O2 1.918 . S
Fe3 O4 2.002 . S
Fe3 O13 1.976 . S
Fe3 O17 1.996 . S
Fe3 O20 1.997 . S
O4 Fe3 2.002 . S
O4 C21 1.295 . S
O5 Fe0 1.997 . S
O5 C21 1.235 . S
O6 Fe0 2.002 . S
O6 C7 1.295 . S
C7 O6 1.295 . S
C7 O9 1.235 . S
C8 O13 1.287 . S
C8 O14 1.255 . S
O9 Fe1 1.997 . S
O9 C7 1.235 . S
C10 O16 1.287 . S
C10 O17 1.255 . S
O11 Fe0 1.976 . S
O11 C18 1.287 . S
O12 Fe1 1.996 . S
O12 C18 1.255 . S
O13 Fe3 1.976 . S
O13 C8 1.287 . S
O14 Fe0 1.996 . S
O14 C8 1.255 . S
C15 O19 1.295 . S
C15 O20 1.235 . S
O16 Fe1 1.976 . S
O16 C10 1.287 . S
O17 Fe3 1.996 . S
O17 C10 1.255 . S
C18 O11 1.287 . S
C18 O12 1.255 . S
O19 Fe1 2.002 . S
O19 C15 1.295 . S
O20 Fe3 1.997 . S
O20 C15 1.235 . S
C21 O4 1.295 . S
C21 O5 1.235 . S
Fe22 O24 1.918 . S
Fe22 O27 1.997 . S
Fe22 O28 2.002 . S
Fe22 O33 1.976 . S
Fe22 O36 1.996 . S
Fe23 O24 1.918 . S
Fe23 O31 1.997 . S
Fe23 O34 1.996 . S
Fe23 O38 1.976 . S
Fe23 O41 2.002 . S
O24 Fe22 1.918 . S
O24 Fe23 1.918 . S
O24 Fe25 1.918 . S
Fe25 O24 1.918 . S
Fe25 O26 2.002 . S
Fe25 O35 1.976 . S
Fe25 O39 1.996 . S
Fe25 O42 1.997 . S
O26 Fe25 2.002 . S
O26 C43 1.295 . S
O27 Fe22 1.997 . S
O27 C43 1.235 . S
O28 Fe22 2.002 . S
O28 C29 1.295 . S
C29 O28 1.295 . S
C29 O31 1.235 . S
C30 O35 1.287 . S
C30 O36 1.255 . S
O31 Fe23 1.997 . S
O31 C29 1.235 . S
C32 O38 1.287 . S
C32 O39 1.255 . S
O33 Fe22 1.976 . S
O33 C40 1.287 . S
O34 Fe23 1.996 . S
O34 C40 1.255 . S
O35 Fe25 1.976 . S
O35 C30 1.287 . S
O36 Fe22 1.996 . S
O36 C30 1.255 . S
C37 O41 1.295 . S
C37 O42 1.235 . S
O38 Fe23 1.976 . S
O38 C32 1.287 . S
O39 Fe25 1.996 . S
O39 C32 1.255 . S
C40 O33 1.287 . S
C40 O34 1.255 . S
O41 Fe23 2.002 . S
O41 C37 1.295 . S
O42 Fe25 1.997 . S
O42 C37 1.235 . S
C43 O26 1.295 . S
C43 O27 1.235 . S
Fe44 O46 1.918 . S
Fe44 O49 1.997 . S
Fe44 O50 2.002 . S
Fe44 O55 1.976 . S
Fe44 O58 1.996 . S
Fe45 O46 1.918 . S
Fe45 O53 1.997 . S
Fe45 O56 1.996 . S
Fe45 O60 1.976 . S
Fe45 O63 2.002 . S
O46 Fe44 1.918 . S
O46 Fe45 1.918 . S
O46 Fe47 1.918 . S
Fe47 O46 1.918 . S
Fe47 O48 2.002 . S
Fe47 O57 1.976 . S
Fe47 O61 1.996 . S
Fe47 O64 1.997 . S
O48 Fe47 2.002 . S
O48 C65 1.295 . S
O49 Fe44 1.997 . S
O49 C65 1.235 . S
O50 Fe44 2.002 . S
O50 C51 1.295 . S
C51 O50 1.295 . S
C51 O53 1.235 . S
C52 O57 1.287 . S
C52 O58 1.255 . S
O53 Fe45 1.997 . S
O53 C51 1.235 . S
C54 O60 1.287 . S
C54 O61 1.255 . S
O55 Fe44 1.976 . S
O55 C62 1.287 . S
O56 Fe45 1.996 . S
O56 C62 1.255 . S
O57 Fe47 1.976 . S
O57 C52 1.287 . S
O58 Fe44 1.996 . S
O58 C52 1.255 . S
C59 O63 1.295 . S
C59 O64 1.235 . S
O60 Fe45 1.976 . S
O60 C54 1.287 . S
O61 Fe47 1.996 . S
O61 C54 1.255 . S
C62 O55 1.287 . S
C62 O56 1.255 . S
O63 Fe45 2.002 . S
O63 C59 1.295 . S
O64 Fe47 1.997 . S
O64 C59 1.235 . S
C65 O48 1.295 . S
C65 O49 1.235 . S
Fe66 O68 1.918 . S
Fe66 O71 1.997 . S
Fe66 O72 2.002 . S
Fe66 O77 1.976 . S
Fe66 O80 1.996 . S
Fe67 O68 1.918 . S
Fe67 O75 1.997 . S
Fe67 O78 1.996 . S
Fe67 O82 1.976 . S
Fe67 O85 2.002 . S
O68 Fe66 1.918 . S
O68 Fe67 1.918 . S
O68 Fe69 1.918 . S
Fe69 O68 1.918 . S
Fe69 O70 2.002 . S
Fe69 O79 1.976 . S
Fe69 O83 1.996 . S
Fe69 O86 1.997 . S
O70 Fe69 2.002 . S
O70 C87 1.295 . S
O71 Fe66 1.997 . S
O71 C87 1.235 . S
O72 Fe66 2.002 . S
O72 C73 1.295 . S
C73 O72 1.295 . S
C73 O75 1.235 . S
C74 O79 1.287 . S
C74 O80 1.255 . S
O75 Fe67 1.997 . S
O75 C73 1.235 . S
C76 O82 1.287 . S
C76 O83 1.255 . S
O77 Fe66 1.976 . S
O77 C84 1.287 . S
O78 Fe67 1.996 . S
O78 C84 1.255 . S
O79 Fe69 1.976 . S
O79 C74 1.287 . S
O80 Fe66 1.996 . S
O80 C74 1.255 . S
C81 O85 1.295 . S
C81 O86 1.235 . S
O82 Fe67 1.976 . S
O82 C76 1.287 . S
O83 Fe69 1.996 . S
O83 C76 1.255 . S
C84 O77 1.287 . S
C84 O78 1.255 . S
O85 Fe67 2.002 . S
O85 C81 1.295 . S
O86 Fe69 1.997 . S
O86 C81 1.235 . S
C87 O70 1.295 . S
C87 O71 1.235 . S
Fe88 O90 1.918 . S
Fe88 O93 1.997 . S
Fe88 O94 2.002 . S
Fe88 O99 1.976 . S
Fe88 O102 1.996 . S
Fe89 O90 1.918 . S
Fe89 O97 1.997 . S
Fe89 O100 1.996 . S
Fe89 O104 1.976 . S
Fe89 O107 2.002 . S
O90 Fe88 1.918 . S
O90 Fe89 1.918 . S
O90 Fe91 1.918 . S
Fe91 O90 1.918 . S
Fe91 O92 2.002 . S
Fe91 O101 1.976 . S
Fe91 O105 1.996 . S
Fe91 O108 1.997 . S
O92 Fe91 2.002 . S
O92 C109 1.295 . S
O93 Fe88 1.997 . S
O93 C109 1.235 . S
O94 Fe88 2.002 . S
O94 C95 1.295 . S
C95 O94 1.295 . S
C95 O97 1.235 . S
C96 O101 1.287 . S
C96 O102 1.255 . S
O97 Fe89 1.997 . S
O97 C95 1.235 . S
C98 O104 1.287 . S
C98 O105 1.255 . S
O99 Fe88 1.976 . S
O99 C106 1.287 . S
O100 Fe89 1.996 . S
O100 C106 1.255 . S
O101 Fe91 1.976 . S
O101 C96 1.287 . S
O102 Fe88 1.996 . S
O102 C96 1.255 . S
C103 O107 1.295 . S
C103 O108 1.235 . S
O104 Fe89 1.976 . S
O104 C98 1.287 . S
O105 Fe91 1.996 . S
O105 C98 1.255 . S
C106 O99 1.287 . S
C106 O100 1.255 . S
O107 Fe89 2.002 . S
O107 C103 1.295 . S
O108 Fe91 1.997 . S
O108 C103 1.235 . S
C109 O92 1.295 . S
C109 O93 1.235 . S
Fe110 O112 1.918 . S
Fe110 O115 1.997 . S
Fe110 O116 2.002 . S
Fe110 O121 1.976 . S
Fe110 O124 1.996 . S
Fe111 O112 1.918 . S
Fe111 O119 1.997 . S
Fe111 O122 1.996 . S
Fe111 O126 1.976 . S
Fe111 O129 2.002 . S
O112 Fe110 1.918 . S
O112 Fe111 1.918 . S
O112 Fe113 1.918 . S
Fe113 O112 1.918 . S
Fe113 O114 2.002 . S
Fe113 O123 1.976 . S
Fe113 O127 1.996 . S
Fe113 O130 1.997 . S
O114 Fe113 2.002 . S
O114 C131 1.295 . S
O115 Fe110 1.997 . S
O115 C131 1.235 . S
O116 Fe110 2.002 . S
O116 C117 1.295 . S
C117 O116 1.295 . S
C117 O119 1.235 . S
C118 O123 1.287 . S
C118 O124 1.255 . S
O119 Fe111 1.997 . S
O119 C117 1.235 . S
C120 O126 1.287 . S
C120 O127 1.255 . S
O121 Fe110 1.976 . S
O121 C128 1.287 . S
O122 Fe111 1.996 . S
O122 C128 1.255 . S
O123 Fe113 1.976 . S
O123 C118 1.287 . S
O124 Fe110 1.996 . S
O124 C118 1.255 . S
C125 O129 1.295 . S
C125 O130 1.235 . S
O126 Fe111 1.976 . S
O126 C120 1.287 . S
O127 Fe113 1.996 . S
O127 C120 1.255 . S
C128 O121 1.287 . S
C128 O122 1.255 . S
O129 Fe111 2.002 . S
O129 C125 1.295 . S
O130 Fe113 1.997 . S
O130 C125 1.235 . S
C131 O114 1.295 . S
C131 O115 1.235 . S
Fe132 O134 1.918 . S
Fe132 O137 1.997 . S
Fe132 O138 2.002 . S
Fe132 O143 1.976 . S
Fe132 O146 1.996 . S
Fe133 O134 1.918 . S
Fe133 O141 1.997 . S
Fe133 O144 1.996 . S
Fe133 O148 1.976 . S
Fe133 O151 2.002 . S
O134 Fe132 1.918 . S
O134 Fe133 1.918 . S
O134 Fe135 1.918 . S
Fe135 O134 1.918 . S
Fe135 O136 2.002 . S
Fe135 O145 1.976 . S
Fe135 O149 1.996 . S
Fe135 O152 1.997 . S
O136 Fe135 2.002 . S
O136 C153 1.295 . S
O137 Fe132 1.997 . S
O137 C153 1.235 . S
O138 Fe132 2.002 . S
O138 C139 1.295 . S
C139 O138 1.295 . S
C139 O141 1.235 . S
C140 O145 1.287 . S
C140 O146 1.255 . S
O141 Fe133 1.997 . S
O141 C139 1.235 . S
C142 O148 1.287 . S
C142 O149 1.255 . S
O143 Fe132 1.976 . S
O143 C150 1.287 . S
O144 Fe133 1.996 . S
O144 C150 1.255 . S
O145 Fe135 1.976 . S
O145 C140 1.287 . S
O146 Fe132 1.996 . S
O146 C140 1.255 . S
C147 O151 1.295 . S
C147 O152 1.235 . S
O148 Fe133 1.976 . S
O148 C142 1.287 . S
O149 Fe135 1.996 . S
O149 C142 1.255 . S
C150 O143 1.287 . S
C150 O144 1.255 . S
O151 Fe133 2.002 . S
O151 C147 1.295 . S
O152 Fe135 1.997 . S
O152 C147 1.235 . S
C153 O136 1.295 . S
C153 O137 1.235 . S
Fe154 O156 1.918 . S
Fe154 O159 1.997 . S
Fe154 O160 2.002 . S
Fe154 O165 1.976 . S
Fe154 O168 1.996 . S
Fe155 O156 1.918 . S
Fe155 O163 1.997 . S
Fe155 O166 1.996 . S
Fe155 O170 1.976 . S
Fe155 O173 2.002 . S
O156 Fe154 1.918 . S
O156 Fe155 1.918 . S
O156 Fe157 1.918 . S
Fe157 O156 1.918 . S
Fe157 O158 2.002 . S
Fe157 O167 1.976 . S
Fe157 O171 1.996 . S
Fe157 O174 1.997 . S
O158 Fe157 2.002 . S
O158 C175 1.295 . S
O159 Fe154 1.997 . S
O159 C175 1.235 . S
O160 Fe154 2.002 . S
O160 C161 1.295 . S
C161 O160 1.295 . S
C161 O163 1.235 . S
C162 O167 1.287 . S
C162 O168 1.255 . S
O163 Fe155 1.997 . S
O163 C161 1.235 . S
C164 O170 1.287 . S
C164 O171 1.255 . S
O165 Fe154 1.976 . S
O165 C172 1.287 . S
O166 Fe155 1.996 . S
O166 C172 1.255 . S
O167 Fe157 1.976 . S
O167 C162 1.287 . S
O168 Fe154 1.996 . S
O168 C162 1.255 . S
C169 O173 1.295 . S
C169 O174 1.235 . S
O170 Fe155 1.976 . S
O170 C164 1.287 . S
O171 Fe157 1.996 . S
O171 C164 1.255 . S
C172 O165 1.287 . S
C172 O166 1.255 . S
O173 Fe155 2.002 . S
O173 C169 1.295 . S
O174 Fe157 1.997 . S
O174 C169 1.235 . S
C175 O158 1.295 . S
C175 O159 1.235 . S
Fe176 O178 1.918 . S
Fe176 O181 1.997 . S
Fe176 O182 2.002 . S
Fe176 O187 1.976 . S
Fe176 O190 1.996 . S
Fe177 O178 1.918 . S
Fe177 O185 1.997 . S
Fe177 O188 1.996 . S
Fe177 O192 1.976 . S
Fe177 O195 2.002 . S
O178 Fe176 1.918 . S
O178 Fe177 1.918 . S
O178 Fe179 1.918 . S
Fe179 O178 1.918 . S
Fe179 O180 2.002 . S
Fe179 O189 1.976 . S
Fe179 O193 1.996 . S
Fe179 O196 1.997 . S
O180 Fe179 2.002 . S
O180 C197 1.295 . S
O181 Fe176 1.997 . S
O181 C197 1.235 . S
O182 Fe176 2.002 . S
O182 C183 1.295 . S
C183 O182 1.295 . S
C183 O185 1.235 . S
C184 O189 1.287 . S
C184 O190 1.255 . S
O185 Fe177 1.997 . S
O185 C183 1.235 . S
C186 O192 1.287 . S
C186 O193 1.255 . S
O187 Fe176 1.976 . S
O187 C194 1.287 . S
O188 Fe177 1.996 . S
O188 C194 1.255 . S
O189 Fe179 1.976 . S
O189 C184 1.287 . S
O190 Fe176 1.996 . S
O190 C184 1.255 . S
C191 O195 1.295 . S
C191 O196 1.235 . S
O192 Fe177 1.976 . S
O192 C186 1.287 . S
O193 Fe179 1.996 . S
O193 C186 1.255 . S
C194 O187 1.287 . S
C194 O188 1.255 . S
O195 Fe177 2.002 . S
O195 C191 1.295 . S
O196 Fe179 1.997 . S
O196 C191 1.235 . S
C197 O180 1.295 . S
C197 O181 1.235 . S
Fe198 O200 1.918 . S
Fe198 O203 1.997 . S
Fe198 O204 2.002 . S
Fe198 O209 1.976 . S
Fe198 O212 1.996 . S
Fe199 O200 1.918 . S
Fe199 O207 1.997 . S
Fe199 O210 1.996 . S
Fe199 O214 1.976 . S
Fe199 O217 2.002 . S
O200 Fe198 1.918 . S
O200 Fe199 1.918 . S
O200 Fe201 1.918 . S
Fe201 O200 1.918 . S
Fe201 O202 2.002 . S
Fe201 O211 1.976 . S
Fe201 O215 1.996 . S
Fe201 O218 1.997 . S
O202 Fe201 2.002 . S
O202 C219 1.295 . S
O203 Fe198 1.997 . S
O203 C219 1.235 . S
O204 Fe198 2.002 . S
O204 C205 1.295 . S
C205 O204 1.295 . S
C205 O207 1.235 . S
C206 O211 1.287 . S
C206 O212 1.255 . S
O207 Fe199 1.997 . S
O207 C205 1.235 . S
C208 O214 1.287 . S
C208 O215 1.255 . S
O209 Fe198 1.976 . S
O209 C216 1.287 . S
O210 Fe199 1.996 . S
O210 C216 1.255 . S
O211 Fe201 1.976 . S
O211 C206 1.287 . S
O212 Fe198 1.996 . S
O212 C206 1.255 . S
C213 O217 1.295 . S
C213 O218 1.235 . S
O214 Fe199 1.976 . S
O214 C208 1.287 . S
O215 Fe201 1.996 . S
O215 C208 1.255 . S
C216 O209 1.287 . S
C216 O210 1.255 . S
O217 Fe199 2.002 . S
O217 C213 1.295 . S
O218 Fe201 1.997 . S
O218 C213 1.235 . S
C219 O202 1.295 . S
C219 O203 1.235 . S
Fe220 O222 1.918 . S
Fe220 O225 1.997 . S
Fe220 O226 2.002 . S
Fe220 O231 1.976 . S
Fe220 O234 1.996 . S
Fe221 O222 1.918 . S
Fe221 O229 1.997 . S
Fe221 O232 1.996 . S
Fe221 O236 1.976 . S
Fe221 O239 2.002 . S
O222 Fe220 1.918 . S
O222 Fe221 1.918 . S
O222 Fe223 1.918 . S
Fe223 O222 1.918 . S
Fe223 O224 2.002 . S
Fe223 O233 1.976 . S
Fe223 O237 1.996 . S
Fe223 O240 1.997 . S
O224 Fe223 2.002 . S
O224 C241 1.295 . S
O225 Fe220 1.997 . S
O225 C241 1.235 . S
O226 Fe220 2.002 . S
O226 C227 1.295 . S
C227 O226 1.295 . S
C227 O229 1.235 . S
C228 O233 1.287 . S
C228 O234 1.255 . S
O229 Fe221 1.997 . S
O229 C227 1.235 . S
C230 O236 1.287 . S
C230 O237 1.255 . S
O231 Fe220 1.976 . S
O231 C238 1.287 . S
O232 Fe221 1.996 . S
O232 C238 1.255 . S
O233 Fe223 1.976 . S
O233 C228 1.287 . S
O234 Fe220 1.996 . S
O234 C228 1.255 . S
C235 O239 1.295 . S
C235 O240 1.235 . S
O236 Fe221 1.976 . S
O236 C230 1.287 . S
O237 Fe223 1.996 . S
O237 C230 1.255 . S
C238 O231 1.287 . S
C238 O232 1.255 . S
O239 Fe221 2.002 . S
O239 C235 1.295 . S
O240 Fe223 1.997 . S
O240 C235 1.235 . S
C241 O224 1.295 . S
C241 O225 1.235 . S
Fe242 O244 1.918 . S
Fe242 O247 1.997 . S
Fe242 O248 2.002 . S
Fe242 O253 1.976 . S
Fe242 O256 1.996 . S
Fe243 O244 1.918 . S
Fe243 O251 1.997 . S
Fe243 O254 1.996 . S
Fe243 O258 1.976 . S
Fe243 O261 2.002 . S
O244 Fe242 1.918 . S
O244 Fe243 1.918 . S
O244 Fe245 1.918 . S
Fe245 O244 1.918 . S
Fe245 O246 2.002 . S
Fe245 O255 1.976 . S
Fe245 O259 1.996 . S
Fe245 O262 1.997 . S
O246 Fe245 2.002 . S
O246 C263 1.295 . S
O247 Fe242 1.997 . S
O247 C263 1.235 . S
O248 Fe242 2.002 . S
O248 C249 1.295 . S
C249 O248 1.295 . S
C249 O251 1.235 . S
C250 O255 1.287 . S
C250 O256 1.255 . S
O251 Fe243 1.997 . S
O251 C249 1.235 . S
C252 O258 1.287 . S
C252 O259 1.255 . S
O253 Fe242 1.976 . S
O253 C260 1.287 . S
O254 Fe243 1.996 . S
O254 C260 1.255 . S
O255 Fe245 1.976 . S
O255 C250 1.287 . S
O256 Fe242 1.996 . S
O256 C250 1.255 . S
C257 O261 1.295 . S
C257 O262 1.235 . S
O258 Fe243 1.976 . S
O258 C252 1.287 . S
O259 Fe245 1.996 . S
O259 C252 1.255 . S
C260 O253 1.287 . S
C260 O254 1.255 . S
O261 Fe243 2.002 . S
O261 C257 1.295 . S
O262 Fe245 1.997 . S
O262 C257 1.235 . S
C263 O246 1.295 . S
C263 O247 1.235 . S
H264 C282 0.951 . S
H265 C284 0.951 . S
H266 C286 0.950 . S
H267 C287 0.950 . S
H268 C289 0.950 . S
H269 C292 0.950 . S
H270 C293 0.950 . S
H271 C295 0.950 . S
H272 C296 0.950 . S
H273 C297 0.951 . S
H274 C299 0.951 . S
H275 C301 0.950 1_565 S
H276 C302 0.950 . S
H277 C304 0.950 . S
H278 C307 0.950 . S
H279 C308 0.950 . S
H280 C310 0.950 . S
H281 C311 0.950 . S
C282 H264 0.951 . S
C282 C283 1.366 . S
C282 C284 1.388 . S
C283 C282 1.366 . S
C283 C287 1.385 . S
C284 H265 0.951 . S
C284 C282 1.388 . S
C284 C285 1.366 . S
C285 C284 1.366 . S
C285 C286 1.414 . S
C285 C288 1.499 . S
C286 H266 0.950 . S
C286 C285 1.414 . S
C286 C287 1.374 . S
C287 H267 0.950 . S
C287 C283 1.385 . S
C287 C286 1.374 . S
C288 C285 1.499 . S
C288 C289 1.373 . S
C288 C290 1.389 . S
C289 H268 0.950 . S
C289 C288 1.373 . S
C289 C305 1.377 . S
C290 C288 1.389 . S
C290 C291 1.524 . S
C290 C304 1.377 . S
C291 C290 1.524 . S
C291 C292 1.397 . S
C291 C296 1.363 . S
C292 H269 0.950 . S
C292 C291 1.397 . S
C292 C293 1.334 . S
C293 H270 0.950 . S
C293 C292 1.334 . S
C293 C294 1.287 . S
C294 C293 1.287 . S
C294 C295 1.524 . S
C294 H313 0.913 . S
C295 H271 0.950 . S
C295 C294 1.524 . S
C295 C296 1.415 . S
C296 H272 0.950 . S
C296 C291 1.363 . S
C296 C295 1.415 . S
C297 H273 0.951 . S
C297 C298 1.366 . S
C297 C299 1.388 . S
C298 C297 1.366 . S
C298 C302 1.385 . S
C299 H274 0.951 . S
C299 C297 1.388 . S
C299 C300 1.366 . S
C300 C299 1.366 . S
C300 C301 1.414 . S
C300 C303 1.499 . S
C301 H275 0.950 1_545 S
C301 C300 1.414 . S
C301 C302 1.374 . S
C302 H276 0.950 . S
C302 C298 1.385 . S
C302 C301 1.374 . S
C303 C300 1.499 . S
C303 C304 1.373 1_545 S
C303 C305 1.389 1_545 S
C304 H277 0.950 . S
C304 C290 1.377 . S
C304 C303 1.373 1_565 S
C305 C289 1.377 . S
C305 C303 1.389 1_565 S
C305 C306 1.524 1_565 S
C306 C305 1.524 1_545 S
C306 C307 1.396 1_545 S
C306 C311 1.363 . S
C307 H278 0.950 . S
C307 C306 1.396 1_565 S
C307 C308 1.334 1_565 S
C308 H279 0.950 . S
C308 C307 1.334 1_545 S
C308 C309 1.287 . S
C309 C308 1.287 . S
C309 C310 1.524 . S
C309 H312 0.999 . S
C310 H280 0.950 . S
C310 C309 1.524 . S
C310 C311 1.415 . S
C311 H281 0.950 . S
C311 C306 1.363 . S
C311 C310 1.415 . S
H312 C309 0.999 . S
H313 C294 0.913 . S
H314 C332 0.951 . S
H315 C334 0.951 . S
H316 C336 0.950 . S
H317 C337 0.950 . S
H318 C339 0.950 . S
H319 C342 0.950 . S
H320 C343 0.950 . S
H321 C345 0.950 . S
H322 C346 0.950 . S
H323 C347 0.951 . S
H324 C349 0.951 . S
H325 C351 0.950 . S
H326 C352 0.950 . S
H327 C354 0.950 . S
H328 C357 0.950 . S
H329 C358 0.950 . S
H330 C360 0.950 . S
H331 C361 0.950 . S
C332 H314 0.951 . S
C332 C333 1.366 . S
C332 C334 1.388 . S
C333 C332 1.366 . S
C333 C337 1.385 . S
C334 H315 0.951 . S
C334 C332 1.388 . S
C334 C335 1.366 . S
C335 C334 1.366 . S
C335 C336 1.414 . S
C335 C338 1.499 . S
C336 H316 0.950 . S
C336 C335 1.414 . S
C336 C337 1.374 . S
C337 H317 0.950 . S
C337 C333 1.385 . S
C337 C336 1.374 . S
C338 C335 1.499 . S
C338 C339 1.373 . S
C338 C340 1.389 . S
C339 H318 0.950 . S
C339 C338 1.373 . S
C339 C355 1.377 . S
C340 C338 1.389 . S
C340 C341 1.524 . S
C340 C354 1.377 . S
C341 C340 1.524 . S
C341 C342 1.397 . S
C341 C346 1.363 . S
C342 H319 0.950 . S
C342 C341 1.397 . S
C342 C343 1.334 . S
C343 H320 0.950 . S
C343 C342 1.334 . S
C343 C344 1.287 . S
C344 C343 1.287 . S
C344 C345 1.524 . S
C344 H363 0.913 . S
C345 H321 0.950 . S
C345 C344 1.524 . S
C345 C346 1.415 . S
C346 H322 0.950 . S
C346 C341 1.363 . S
C346 C345 1.415 . S
C347 H323 0.951 . S
C347 C348 1.366 . S
C347 C349 1.388 . S
C348 C347 1.366 . S
C348 C352 1.385 . S
C349 H324 0.951 . S
C349 C347 1.388 . S
C349 C350 1.366 . S
C350 C349 1.366 . S
C350 C351 1.414 . S
C350 C353 1.499 . S
C351 H325 0.950 . S
C351 C350 1.414 . S
C351 C352 1.374 . S
C352 H326 0.950 . S
C352 C348 1.385 . S
C352 C351 1.374 . S
C353 C350 1.499 . S
C353 C354 1.373 . S
C353 C355 1.389 . S
C354 H327 0.950 . S
C354 C340 1.377 . S
C354 C353 1.373 . S
C355 C339 1.377 . S
C355 C353 1.389 . S
C355 C356 1.524 . S
C356 C355 1.524 . S
C356 C357 1.397 . S
C356 C361 1.363 . S
C357 H328 0.950 . S
C357 C356 1.397 . S
C357 C358 1.334 . S
C358 H329 0.950 . S
C358 C357 1.334 . S
C358 C359 1.287 . S
C359 C358 1.287 . S
C359 C360 1.524 . S
C359 H362 0.999 . S
C360 H330 0.950 . S
C360 C359 1.524 . S
C360 C361 1.415 . S
C361 H331 0.950 . S
C361 C356 1.363 . S
C361 C360 1.415 . S
H362 C359 0.999 . S
H363 C344 0.913 . S
H364 C382 0.951 . S
H365 C384 0.951 . S
H366 C386 0.950 . S
H367 C387 0.950 . S
H368 C389 0.950 . S
H369 C392 0.950 . S
H370 C393 0.950 . S
H371 C395 0.950 . S
H372 C396 0.950 . S
H373 C397 0.951 . S
H374 C399 0.951 . S
H375 C401 0.950 . S
H376 C402 0.950 . S
H377 C404 0.950 . S
H378 C407 0.951 1_655 S
H379 C408 0.950 . S
H380 C410 0.950 . S
H381 C411 0.950 . S
C382 H364 0.951 . S
C382 C383 1.366 . S
C382 C384 1.388 . S
C383 C382 1.366 . S
C383 C387 1.385 . S
C384 H365 0.951 . S
C384 C382 1.388 . S
C384 C385 1.366 . S
C385 C384 1.366 . S
C385 C386 1.414 . S
C385 C388 1.499 . S
C386 H366 0.950 . S
C386 C385 1.414 . S
C386 C387 1.374 . S
C387 H367 0.950 . S
C387 C383 1.385 . S
C387 C386 1.374 . S
C388 C385 1.499 . S
C388 C389 1.373 . S
C388 C390 1.389 1_655 S
C389 H368 0.950 . S
C389 C388 1.373 . S
C389 C405 1.377 1_655 S
C390 C388 1.389 1_455 S
C390 C391 1.524 . S
C390 C404 1.377 . S
C391 C390 1.524 . S
C391 C392 1.397 . S
C391 C396 1.363 . S
C392 H369 0.950 . S
C392 C391 1.397 . S
C392 C393 1.334 . S
C393 H370 0.950 . S
C393 C392 1.334 . S
C393 C394 1.287 . S
C394 C393 1.287 . S
C394 C395 1.524 . S
C394 H413 0.913 . S
C395 H371 0.950 . S
C395 C394 1.524 . S
C395 C396 1.415 . S
C396 H372 0.950 . S
C396 C391 1.363 . S
C396 C395 1.415 . S
C397 H373 0.951 . S
C397 C398 1.366 . S
C397 C399 1.388 . S
C398 C397 1.366 . S
C398 C402 1.385 . S
C399 H374 0.951 . S
C399 C397 1.388 . S
C399 C400 1.366 . S
C400 C399 1.366 . S
C400 C401 1.414 . S
C400 C403 1.499 . S
C401 H375 0.950 . S
C401 C400 1.414 . S
C401 C402 1.374 . S
C402 H376 0.950 . S
C402 C398 1.385 . S
C402 C401 1.374 . S
C403 C400 1.499 . S
C403 C404 1.373 . S
C403 C405 1.389 . S
C404 H377 0.950 . S
C404 C390 1.377 . S
C404 C403 1.373 . S
C405 C389 1.377 1_455 S
C405 C403 1.389 . S
C405 C406 1.524 . S
C406 C405 1.524 . S
C406 C407 1.397 . S
C406 C411 1.363 . S
C407 H378 0.951 1_455 S
C407 C406 1.397 . S
C407 C408 1.334 1_455 S
C408 H379 0.950 . S
C408 C407 1.334 1_655 S
C408 C409 1.287 . S
C409 C408 1.287 . S
C409 C410 1.524 1_655 S
C409 H412 0.999 . S
C410 H380 0.950 . S
C410 C409 1.524 1_455 S
C410 C411 1.415 . S
C411 H381 0.950 . S
C411 C406 1.363 . S
C411 C410 1.415 . S
H412 C409 0.999 . S
H413 C394 0.913 . S
H414 C432 0.951 . S
H415 C434 0.951 . S
H416 C436 0.950 . S
H417 C437 0.950 . S
H418 C439 0.950 . S
H419 C442 0.950 . S
H420 C443 0.950 . S
H421 C445 0.950 . S
H422 C446 0.950 . S
H423 C447 0.951 . S
H424 C449 0.951 1_545 S
H425 C451 0.950 . S
H426 C452 0.950 . S
H427 C454 0.950 . S
H428 C457 0.950 . S
H429 C458 0.950 . S
H430 C460 0.950 . S
H431 C461 0.950 . S
C432 H414 0.951 . S
C432 C433 1.366 . S
C432 C434 1.388 . S
C433 C432 1.366 . S
C433 C437 1.385 . S
C434 H415 0.951 . S
C434 C432 1.388 . S
C434 C435 1.366 . S
C435 C434 1.366 . S
C435 C436 1.414 . S
C435 C438 1.499 . S
C436 H416 0.950 . S
C436 C435 1.414 . S
C436 C437 1.374 . S
C437 H417 0.950 . S
C437 C433 1.385 . S
C437 C436 1.374 . S
C438 C435 1.499 . S
C438 C439 1.373 . S
C438 C440 1.389 . S
C439 H418 0.950 . S
C439 C438 1.373 . S
C439 C455 1.377 . S
C440 C438 1.389 . S
C440 C441 1.524 . S
C440 C454 1.377 1_545 S
C441 C440 1.524 . S
C441 C442 1.397 . S
C441 C446 1.363 1_545 S
C442 H419 0.950 . S
C442 C441 1.397 . S
C442 C443 1.334 . S
C443 H420 0.950 . S
C443 C442 1.334 . S
C443 C444 1.287 . S
C444 C443 1.287 . S
C444 C445 1.524 1_545 S
C444 H463 0.913 . S
C445 H421 0.950 . S
C445 C444 1.524 1_565 S
C445 C446 1.415 . S
C446 H422 0.950 . S
C446 C441 1.363 1_565 S
C446 C445 1.415 . S
C447 H423 0.951 . S
C447 C448 1.366 . S
C447 C449 1.388 . S
C448 C447 1.366 . S
C448 C452 1.385 . S
C449 H424 0.951 1_565 S
C449 C447 1.388 . S
C449 C450 1.366 . S
C450 C449 1.366 . S
C450 C451 1.414 . S
C450 C453 1.499 . S
C451 H425 0.950 . S
C451 C450 1.414 . S
C451 C452 1.374 . S
C452 H426 0.950 . S
C452 C448 1.385 . S
C452 C451 1.374 . S
C453 C450 1.499 . S
C453 C454 1.373 . S
C453 C455 1.389 1_565 S
C454 H427 0.950 . S
C454 C440 1.377 1_565 S
C454 C453 1.373 . S
C455 C439 1.377 . S
C455 C453 1.389 1_545 S
C455 C456 1.524 . S
C456 C455 1.524 . S
C456 C457 1.397 1_545 S
C456 C461 1.363 . S
C457 H428 0.950 . S
C457 C456 1.397 1_565 S
C457 C458 1.334 . S
C458 H429 0.950 . S
C458 C457 1.334 . S
C458 C459 1.287 1_565 S
C459 C458 1.287 1_545 S
C459 C460 1.524 . S
C459 H462 0.999 . S
C460 H430 0.950 . S
C460 C459 1.524 . S
C460 C461 1.415 . S
C461 H431 0.950 . S
C461 C456 1.363 . S
C461 C460 1.415 . S
H462 C459 0.999 . S
H463 C444 0.913 . S
H464 C482 0.951 . S
H465 C484 0.951 . S
H466 C486 0.950 . S
H467 C487 0.950 . S
H468 C489 0.950 . S
H469 C492 0.950 . S
H470 C493 0.950 . S
H471 C495 0.950 . S
H472 C496 0.950 . S
H473 C497 0.951 . S
H474 C499 0.951 . S
H475 C501 0.950 . S
H476 C502 0.954 1_554 S
H477 C504 0.950 . S
H478 C507 0.950 . S
H479 C508 0.950 . S
H480 C510 0.950 . S
H481 C511 0.950 . S
C482 H464 0.951 . S
C482 C483 1.366 . S
C482 C484 1.388 . S
C483 C482 1.366 . S
C483 C487 1.385 . S
C484 H465 0.951 . S
C484 C482 1.388 . S
C484 C485 1.366 . S
C485 C484 1.366 . S
C485 C486 1.414 . S
C485 C488 1.499 . S
C486 H466 0.950 . S
C486 C485 1.414 . S
C486 C487 1.374 . S
C487 H467 0.950 . S
C487 C483 1.385 . S
C487 C486 1.374 . S
C488 C485 1.499 . S
C488 C489 1.373 . S
C488 C490 1.389 . S
C489 H468 0.950 . S
C489 C488 1.373 . S
C489 C505 1.377 . S
C490 C488 1.389 . S
C490 C491 1.524 . S
C490 C504 1.377 . S
C491 C490 1.524 . S
C491 C492 1.397 . S
C491 C496 1.363 . S
C492 H469 0.950 . S
C492 C491 1.397 . S
C492 C493 1.334 . S
C493 H470 0.950 . S
C493 C492 1.334 . S
C493 C494 1.287 . S
C494 C493 1.287 . S
C494 C495 1.524 . S
C494 H513 0.913 . S
C495 H471 0.950 . S
C495 C494 1.524 . S
C495 C496 1.415 . S
C496 H472 0.950 . S
C496 C491 1.363 . S
C496 C495 1.415 . S
C497 H473 0.951 . S
C497 C498 1.366 . S
C497 C499 1.388 . S
C498 C497 1.366 . S
C498 C502 1.385 . S
C499 H474 0.951 . S
C499 C497 1.388 . S
C499 C500 1.366 . S
C500 C499 1.366 . S
C500 C501 1.414 . S
C500 C503 1.499 . S
C501 H475 0.950 . S
C501 C500 1.414 . S
C501 C502 1.374 . S
C502 H476 0.954 1_556 S
C502 C498 1.385 . S
C502 C501 1.374 . S
C503 C500 1.499 . S
C503 C504 1.373 . S
C503 C505 1.389 . S
C504 H477 0.950 . S
C504 C490 1.377 . S
C504 C503 1.373 . S
C505 C489 1.377 . S
C505 C503 1.389 . S
C505 C506 1.524 . S
C506 C505 1.524 . S
C506 C507 1.397 . S
C506 C511 1.363 . S
C507 H478 0.950 . S
C507 C506 1.397 . S
C507 C508 1.334 . S
C508 H479 0.950 . S
C508 C507 1.334 . S
C508 C509 1.287 . S
C509 C508 1.287 . S
C509 C510 1.524 . S
C509 H512 0.999 . S
C510 H480 0.950 . S
C510 C509 1.524 . S
C510 C511 1.415 . S
C511 H481 0.950 . S
C511 C506 1.363 . S
C511 C510 1.415 . S
H512 C509 0.999 . S
H513 C494 0.913 . S
H514 C532 0.951 . S
H515 C534 0.951 . S
H516 C536 0.950 . S
H517 C537 0.950 . S
H518 C539 0.950 . S
H519 C542 0.950 . S
H520 C543 0.950 . S
H521 C545 0.950 . S
H522 C546 0.950 . S
H523 C547 0.951 . S
H524 C549 0.951 . S
H525 C551 0.950 . S
H526 C552 0.950 . S
H527 C554 0.950 . S
H528 C557 0.950 . S
H529 C558 0.950 . S
H530 C560 0.950 . S
H531 C561 0.950 . S
C532 H514 0.951 . S
C532 C533 1.366 . S
C532 C534 1.388 . S
C533 C532 1.366 . S
C533 C537 1.385 . S
C534 H515 0.951 . S
C534 C532 1.388 . S
C534 C535 1.366 . S
C535 C534 1.366 . S
C535 C536 1.414 . S
C535 C538 1.499 . S
C536 H516 0.950 . S
C536 C535 1.414 . S
C536 C537 1.374 . S
C537 H517 0.950 . S
C537 C533 1.385 . S
C537 C536 1.374 . S
C538 C535 1.499 . S
C538 C539 1.373 . S
C538 C540 1.389 1_455 S
C539 H518 0.950 . S
C539 C538 1.373 . S
C539 C555 1.377 1_455 S
C540 C538 1.389 1_655 S
C540 C541 1.524 . S
C540 C554 1.377 . S
C541 C540 1.524 . S
C541 C542 1.397 . S
C541 C546 1.363 . S
C542 H519 0.950 . S
C542 C541 1.397 . S
C542 C543 1.334 . S
C543 H520 0.950 . S
C543 C542 1.334 . S
C543 C544 1.287 . S
C544 C543 1.287 . S
C544 C545 1.524 . S
C544 H563 0.913 . S
C545 H521 0.950 . S
C545 C544 1.524 . S
C545 C546 1.415 . S
C546 H522 0.950 . S
C546 C541 1.363 . S
C546 C545 1.415 . S
C547 H523 0.951 . S
C547 C548 1.366 . S
C547 C549 1.388 . S
C548 C547 1.366 . S
C548 C552 1.385 . S
C549 H524 0.951 . S
C549 C547 1.388 . S
C549 C550 1.366 . S
C550 C549 1.366 . S
C550 C551 1.414 . S
C550 C553 1.499 . S
C551 H525 0.950 . S
C551 C550 1.414 . S
C551 C552 1.374 . S
C552 H526 0.950 . S
C552 C548 1.385 . S
C552 C551 1.374 . S
C553 C550 1.499 . S
C553 C554 1.373 . S
C553 C555 1.389 . S
C554 H527 0.950 . S
C554 C540 1.377 . S
C554 C553 1.373 . S
C555 C539 1.377 1_655 S
C555 C553 1.389 . S
C555 C556 1.524 . S
C556 C555 1.524 . S
C556 C557 1.397 1_655 S
C556 C561 1.363 . S
C557 H528 0.950 . S
C557 C556 1.397 1_455 S
C557 C558 1.334 . S
C558 H529 0.950 . S
C558 C557 1.334 . S
C558 C559 1.287 . S
C559 C558 1.287 . S
C559 C560 1.524 1_455 S
C559 H562 0.999 . S
C560 H530 0.950 . S
C560 C559 1.524 1_655 S
C560 C561 1.415 . S
C561 H531 0.950 . S
C561 C556 1.363 . S
C561 C560 1.415 . S
H562 C559 0.999 . S
H563 C544 0.913 . S
H564 C582 0.951 . S
H565 C584 0.951 . S
H566 C586 0.950 . S
H567 C587 0.950 . S
H568 C589 0.950 . S
H569 C592 0.950 . S
H570 C593 0.950 . S
H571 C595 0.950 . S
H572 C596 0.950 . S
H573 C597 0.951 . S
H574 C599 0.951 1_455 S
H575 C601 0.950 . S
H576 C602 0.950 . S
H577 C604 0.950 . S
H578 C607 0.950 1_655 S
H579 C608 0.950 . S
H580 C610 0.950 . S
H581 C611 0.950 . S
C582 H564 0.951 . S
C582 C583 1.366 . S
C582 C584 1.388 . S
C583 C582 1.366 . S
C583 C587 1.385 . S
C584 H565 0.951 . S
C584 C582 1.388 . S
C584 C585 1.366 . S
C585 C584 1.366 . S
C585 C586 1.414 . S
C585 C588 1.499 . S
C586 H566 0.950 . S
C586 C585 1.414 . S
C586 C587 1.374 . S
C587 H567 0.950 . S
C587 C583 1.385 . S
C587 C586 1.374 . S
C588 C585 1.499 . S
C588 C589 1.373 . S
C588 C590 1.389 . S
C589 H568 0.950 . S
C589 C588 1.373 . S
C589 C605 1.377 . S
C590 C588 1.389 . S
C590 C591 1.524 1_455 S
C590 C604 1.377 1_455 S
C591 C590 1.524 1_655 S
C591 C592 1.397 1_655 S
C591 C596 1.363 . S
C592 H569 0.950 . S
C592 C591 1.397 1_455 S
C592 C593 1.334 . S
C593 H570 0.950 . S
C593 C592 1.334 . S
C593 C594 1.287 1_455 S
C594 C593 1.287 1_655 S
C594 C595 1.524 . S
C594 H613 0.913 . S
C595 H571 0.950 . S
C595 C594 1.524 . S
C595 C596 1.415 . S
C596 H572 0.950 . S
C596 C591 1.363 . S
C596 C595 1.415 . S
C597 H573 0.951 . S
C597 C598 1.366 . S
C597 C599 1.388 . S
C598 C597 1.366 . S
C598 C602 1.385 . S
C599 H574 0.951 1_655 S
C599 C597 1.388 . S
C599 C600 1.366 . S
C600 C599 1.366 . S
C600 C601 1.414 . S
C600 C603 1.499 . S
C601 H575 0.950 . S
C601 C600 1.414 . S
C601 C602 1.374 . S
C602 H576 0.950 . S
C602 C598 1.385 . S
C602 C601 1.374 . S
C603 C600 1.499 . S
C603 C604 1.373 . S
C603 C605 1.389 1_655 S
C604 H577 0.950 . S
C604 C590 1.377 1_655 S
C604 C603 1.373 . S
C605 C589 1.377 . S
C605 C603 1.389 1_455 S
C605 C606 1.524 . S
C606 C605 1.524 . S
C606 C607 1.397 . S
C606 C611 1.363 . S
C607 H578 0.950 1_455 S
C607 C606 1.397 . S
C607 C608 1.334 . S
C608 H579 0.950 . S
C608 C607 1.334 . S
C608 C609 1.287 . S
C609 C608 1.287 . S
C609 C610 1.524 . S
C609 H612 0.999 . S
C610 H580 0.950 . S
C610 C609 1.524 . S
C610 C611 1.415 . S
C611 H581 0.950 . S
C611 C606 1.363 . S
C611 C610 1.415 . S
H612 C609 0.999 . S
H613 C594 0.913 . S
H614 C632 0.951 . S
H615 C634 0.951 . S
H616 C636 0.950 1_545 S
H617 C637 0.950 . S
H618 C639 0.950 . S
H619 C642 0.950 . S
H620 C643 0.950 . S
H621 C645 0.950 . S
H622 C646 0.950 . S
H623 C647 0.951 . S
H624 C649 0.951 . S
H625 C651 0.950 . S
H626 C652 0.950 . S
H627 C654 0.950 . S
H628 C657 0.950 . S
H629 C658 0.950 . S
H630 C660 0.950 . S
H631 C661 0.950 . S
C632 H614 0.951 . S
C632 C633 1.366 . S
C632 C634 1.388 . S
C633 C632 1.366 . S
C633 C637 1.385 . S
C634 H615 0.951 . S
C634 C632 1.388 . S
C634 C635 1.366 . S
C635 C634 1.366 . S
C635 C636 1.414 . S
C635 C638 1.499 . S
C636 H616 0.950 1_565 S
C636 C635 1.414 . S
C636 C637 1.374 . S
C637 H617 0.950 . S
C637 C633 1.385 . S
C637 C636 1.374 . S
C638 C635 1.499 . S
C638 C639 1.373 1_565 S
C638 C640 1.389 1_565 S
C639 H618 0.950 . S
C639 C638 1.373 1_545 S
C639 C655 1.377 . S
C640 C638 1.389 1_545 S
C640 C641 1.524 1_545 S
C640 C654 1.377 . S
C641 C640 1.524 1_565 S
C641 C642 1.395 1_565 S
C641 C646 1.363 . S
C642 H619 0.950 . S
C642 C641 1.395 1_545 S
C642 C643 1.336 1_545 S
C643 H620 0.950 . S
C643 C642 1.336 1_565 S
C643 C644 1.287 . S
C644 C643 1.287 . S
C644 C645 1.524 . S
C644 H663 0.913 . S
C645 H621 0.950 . S
C645 C644 1.524 . S
C645 C646 1.415 . S
C646 H622 0.950 . S
C646 C641 1.363 . S
C646 C645 1.415 . S
C647 H623 0.951 . S
C647 C648 1.366 . S
C647 C649 1.388 . S
C648 C647 1.366 . S
C648 C652 1.385 . S
C649 H624 0.951 . S
C649 C647 1.388 . S
C649 C650 1.366 . S
C650 C649 1.366 . S
C650 C651 1.414 . S
C650 C653 1.499 . S
C651 H625 0.950 . S
C651 C650 1.414 . S
C651 C652 1.374 . S
C652 H626 0.950 . S
C652 C648 1.385 . S
C652 C651 1.374 . S
C653 C650 1.499 . S
C653 C654 1.373 . S
C653 C655 1.389 . S
C654 H627 0.950 . S
C654 C640 1.377 . S
C654 C653 1.373 . S
C655 C639 1.377 . S
C655 C653 1.389 . S
C655 C656 1.524 . S
C656 C655 1.524 . S
C656 C657 1.397 . S
C656 C661 1.363 . S
C657 H628 0.950 . S
C657 C656 1.397 . S
C657 C658 1.334 . S
C658 H629 0.950 . S
C658 C657 1.334 . S
C658 C659 1.287 . S
C659 C658 1.287 . S
C659 C660 1.524 . S
C659 H662 0.999 . S
C660 H630 0.950 . S
C660 C659 1.524 . S
C660 C661 1.415 . S
C661 H631 0.950 . S
C661 C656 1.363 . S
C661 C660 1.415 . S
H662 C659 0.999 . S
H663 C644 0.913 . S
H664 C682 0.951 . S
H665 C684 0.951 . S
H666 C686 0.950 . S
H667 C687 0.950 . S
H668 C689 0.950 . S
H669 C692 0.950 . S
H670 C693 0.950 . S
H671 C695 0.950 . S
H672 C696 0.950 . S
H673 C697 0.951 . S
H674 C699 0.951 . S
H675 C701 0.950 . S
H676 C702 0.950 . S
H677 C704 0.950 . S
H678 C707 0.950 . S
H679 C708 0.950 . S
H680 C710 0.950 . S
H681 C711 0.950 . S
C682 H664 0.951 . S
C682 C683 1.366 . S
C682 C684 1.388 . S
C683 C682 1.366 . S
C683 C687 1.385 . S
C684 H665 0.951 . S
C684 C682 1.388 . S
C684 C685 1.366 . S
C685 C684 1.366 . S
C685 C686 1.414 . S
C685 C688 1.499 . S
C686 H666 0.950 . S
C686 C685 1.414 . S
C686 C687 1.374 . S
C687 H667 0.950 . S
C687 C683 1.385 . S
C687 C686 1.374 . S
C688 C685 1.499 . S
C688 C689 1.373 . S
C688 C690 1.389 . S
C689 H668 0.950 . S
C689 C688 1.373 . S
C689 C705 1.377 . S
C690 C688 1.389 . S
C690 C691 1.524 . S
C690 C704 1.377 . S
C691 C690 1.524 . S
C691 C692 1.397 . S
C691 C696 1.363 . S
C692 H669 0.950 . S
C692 C691 1.397 . S
C692 C693 1.334 . S
C693 H670 0.950 . S
C693 C692 1.334 . S
C693 C694 1.287 . S
C694 C693 1.287 . S
C694 C695 1.524 . S
C694 H713 0.913 . S
C695 H671 0.950 . S
C695 C694 1.524 . S
C695 C696 1.415 . S
C696 H672 0.950 . S
C696 C691 1.363 . S
C696 C695 1.415 . S
C697 H673 0.951 . S
C697 C698 1.366 . S
C697 C699 1.388 . S
C698 C697 1.366 . S
C698 C702 1.385 . S
C699 H674 0.951 . S
C699 C697 1.388 . S
C699 C700 1.366 . S
C700 C699 1.366 . S
C700 C701 1.414 . S
C700 C703 1.499 . S
C701 H675 0.950 . S
C701 C700 1.414 . S
C701 C702 1.374 . S
C702 H676 0.950 . S
C702 C698 1.385 . S
C702 C701 1.374 . S
C703 C700 1.499 . S
C703 C704 1.373 . S
C703 C705 1.389 . S
C704 H677 0.950 . S
C704 C690 1.377 . S
C704 C703 1.373 . S
C705 C689 1.377 . S
C705 C703 1.389 . S
C705 C706 1.524 . S
C706 C705 1.524 . S
C706 C707 1.397 . S
C706 C711 1.363 . S
C707 H678 0.950 . S
C707 C706 1.397 . S
C707 C708 1.334 . S
C708 H679 0.950 . S
C708 C707 1.334 . S
C708 C709 1.287 . S
C709 C708 1.287 . S
C709 C710 1.524 . S
C709 H712 0.999 . S
C710 H680 0.950 . S
C710 C709 1.524 . S
C710 C711 1.415 . S
C711 H681 0.950 . S
C711 C706 1.363 . S
C711 C710 1.415 . S
H712 C709 0.999 . S
H713 C694 0.913 . S
H714 C732 0.951 . S
H715 C734 0.951 . S
H716 C736 0.950 . S
H717 C737 0.950 . S
H718 C739 0.950 1_455 S
H719 C742 0.950 . S
H720 C743 0.950 . S
H721 C745 0.950 . S
H722 C746 0.950 . S
H723 C747 0.951 . S
H724 C749 0.951 . S
H725 C751 0.950 . S
H726 C752 0.950 1_556 S
H727 C754 0.950 . S
H728 C757 0.950 . S
H729 C758 0.950 . S
H730 C760 0.950 . S
H731 C761 0.950 . S
C732 H714 0.951 . S
C732 C733 1.366 . S
C732 C734 1.388 . S
C733 C732 1.366 . S
C733 C737 1.385 . S
C734 H715 0.951 . S
C734 C732 1.388 . S
C734 C735 1.366 . S
C735 C734 1.366 . S
C735 C736 1.414 . S
C735 C738 1.499 . S
C736 H716 0.950 . S
C736 C735 1.414 . S
C736 C737 1.374 . S
C737 H717 0.950 . S
C737 C733 1.385 . S
C737 C736 1.374 . S
C738 C735 1.499 . S
C738 C739 1.373 . S
C738 C740 1.389 . S
C739 H718 0.950 1_655 S
C739 C738 1.373 . S
C739 C755 1.377 1_655 S
C740 C738 1.389 . S
C740 C741 1.524 . S
C740 C754 1.377 . S
C741 C740 1.524 . S
C741 C742 1.397 . S
C741 C746 1.363 . S
C742 H719 0.950 . S
C742 C741 1.397 . S
C742 C743 1.334 . S
C743 H720 0.950 . S
C743 C742 1.334 . S
C743 C744 1.287 . S
C744 C743 1.287 . S
C744 C745 1.524 . S
C744 H763 0.913 . S
C745 H721 0.950 . S
C745 C744 1.524 . S
C745 C746 1.415 . S
C746 H722 0.950 . S
C746 C741 1.363 . S
C746 C745 1.415 . S
C747 H723 0.951 . S
C747 C748 1.366 . S
C747 C749 1.388 . S
C748 C747 1.366 . S
C748 C752 1.385 . S
C749 H724 0.951 . S
C749 C747 1.388 . S
C749 C750 1.366 . S
C750 C749 1.366 . S
C750 C751 1.414 . S
C750 C753 1.499 . S
C751 H725 0.950 . S
C751 C750 1.414 . S
C751 C752 1.374 . S
C752 H726 0.950 1_554 S
C752 C748 1.385 . S
C752 C751 1.374 . S
C753 C750 1.499 . S
C753 C754 1.373 1_455 S
C753 C755 1.389 . S
C754 H727 0.950 . S
C754 C740 1.377 . S
C754 C753 1.373 1_655 S
C755 C739 1.377 1_455 S
C755 C753 1.389 . S
C755 C756 1.524 . S
C756 C755 1.524 . S
C756 C757 1.397 . S
C756 C761 1.363 . S
C757 H728 0.950 . S
C757 C756 1.397 . S
C757 C758 1.334 . S
C758 H729 0.950 . S
C758 C757 1.334 . S
C758 C759 1.287 . S
C759 C758 1.287 . S
C759 C760 1.524 . S
C759 H762 0.999 . S
C760 H730 0.950 . S
C760 C759 1.524 . S
C760 C761 1.415 . S
C761 H731 0.950 . S
C761 C756 1.363 . S
C761 C760 1.415 . S
H762 C759 0.999 . S
H763 C744 0.913 . S
H764 C782 0.951 . S
H765 C784 0.951 . S
H766 C786 0.950 . S
H767 C787 0.950 . S
H768 C789 0.950 . S
H769 C792 0.950 . S
H770 C793 0.950 . S
H771 C795 0.950 . S
H772 C796 0.950 . S
H773 C797 0.951 . S
H774 C799 0.951 1_565 S
H775 C801 0.950 . S
H776 C802 0.950 . S
H777 C804 0.950 . S
H778 C807 0.950 . S
H779 C808 0.950 . S
H780 C810 0.950 . S
H781 C811 0.950 . S
C782 H764 0.951 . S
C782 C783 1.366 . S
C782 C784 1.388 . S
C783 C782 1.366 . S
C783 C787 1.385 . S
C784 H765 0.951 . S
C784 C782 1.388 . S
C784 C785 1.366 . S
C785 C784 1.366 . S
C785 C786 1.414 . S
C785 C788 1.499 . S
C786 H766 0.950 . S
C786 C785 1.414 . S
C786 C787 1.374 . S
C787 H767 0.950 . S
C787 C783 1.385 . S
C787 C786 1.374 . S
C788 C785 1.499 . S
C788 C789 1.373 . S
C788 C790 1.389 . S
C789 H768 0.950 . S
C789 C788 1.373 . S
C789 C805 1.377 . S
C790 C788 1.389 . S
C790 C791 1.524 . S
C790 C804 1.377 1_565 S
C791 C790 1.524 . S
C791 C792 1.397 . S
C791 C796 1.363 1_565 S
C792 H769 0.950 . S
C792 C791 1.397 . S
C792 C793 1.334 . S
C793 H770 0.950 . S
C793 C792 1.334 . S
C793 C794 1.287 . S
C794 C793 1.287 . S
C794 C795 1.524 1_565 S
C794 H813 0.913 . S
C795 H771 0.950 . S
C795 C794 1.524 1_545 S
C795 C796 1.415 . S
C796 H772 0.950 . S
C796 C791 1.363 1_545 S
C796 C795 1.415 . S
C797 H773 0.951 . S
C797 C798 1.366 . S
C797 C799 1.388 . S
C798 C797 1.366 . S
C798 C802 1.385 . S
C799 H774 0.951 1_545 S
C799 C797 1.388 . S
C799 C800 1.366 . S
C800 C799 1.366 . S
C800 C801 1.414 . S
C800 C803 1.499 . S
C801 H775 0.950 . S
C801 C800 1.414 . S
C801 C802 1.374 . S
C802 H776 0.950 . S
C802 C798 1.385 . S
C802 C801 1.374 . S
C803 C800 1.499 . S
C803 C804 1.373 . S
C803 C805 1.389 1_545 S
C804 H777 0.950 . S
C804 C790 1.377 1_545 S
C804 C803 1.373 . S
C805 C789 1.377 . S
C805 C803 1.389 1_565 S
C805 C806 1.524 . S
C806 C805 1.524 . S
C806 C807 1.397 1_565 S
C806 C811 1.363 . S
C807 H778 0.950 . S
C807 C806 1.397 1_545 S
C807 C808 1.334 . S
C808 H779 0.950 . S
C808 C807 1.334 . S
C808 C809 1.287 1_545 S
C809 C808 1.287 1_565 S
C809 C810 1.524 . S
C809 H812 0.992 . S
C810 H780 0.950 . S
C810 C809 1.524 . S
C810 C811 1.415 . S
C811 H781 0.950 . S
C811 C806 1.363 . S
C811 C810 1.415 . S
H812 C809 0.992 . S
H813 C794 0.913 . S
H814 C832 0.951 . S
H815 C834 0.951 . S
H816 C836 0.950 . S
H817 C837 0.950 . S
H818 C839 0.950 . S
H819 C842 0.950 . S
H820 C843 0.950 . S
H821 C845 0.950 . S
H822 C846 0.950 . S
H823 C847 0.951 . S
H824 C849 0.951 . S
H825 C851 0.950 . S
H826 C852 0.950 . S
H827 C854 0.950 . S
H828 C857 0.950 . S
H829 C858 0.950 . S
H830 C860 0.950 . S
H831 C861 0.950 . S
C832 H814 0.951 . S
C832 C833 1.366 . S
C832 C834 1.388 . S
C833 C832 1.366 . S
C833 C837 1.385 . S
C834 H815 0.951 . S
C834 C832 1.388 . S
C834 C835 1.366 . S
C835 C834 1.366 . S
C835 C836 1.414 . S
C835 C838 1.499 . S
C836 H816 0.950 . S
C836 C835 1.414 . S
C836 C837 1.374 . S
C837 H817 0.950 . S
C837 C833 1.385 . S
C837 C836 1.374 . S
C838 C835 1.499 . S
C838 C839 1.373 . S
C838 C840 1.389 . S
C839 H818 0.950 . S
C839 C838 1.373 . S
C839 C855 1.377 . S
C840 C838 1.389 . S
C840 C841 1.524 . S
C840 C854 1.377 . S
C841 C840 1.524 . S
C841 C842 1.397 . S
C841 C846 1.363 . S
C842 H819 0.950 . S
C842 C841 1.397 . S
C842 C843 1.334 . S
C843 H820 0.950 . S
C843 C842 1.334 . S
C843 C844 1.287 . S
C844 C843 1.287 . S
C844 C845 1.524 . S
C844 H863 0.913 . S
C845 H821 0.950 . S
C845 C844 1.524 . S
C845 C846 1.415 . S
C846 H822 0.950 . S
C846 C841 1.363 . S
C846 C845 1.415 . S
C847 H823 0.951 . S
C847 C848 1.366 . S
C847 C849 1.388 . S
C848 C847 1.366 . S
C848 C852 1.385 . S
C849 H824 0.951 . S
C849 C847 1.388 . S
C849 C850 1.366 . S
C850 C849 1.366 . S
C850 C851 1.414 . S
C850 C853 1.499 . S
C851 H825 0.950 . S
C851 C850 1.414 . S
C851 C852 1.374 . S
C852 H826 0.950 . S
C852 C848 1.385 . S
C852 C851 1.374 . S
C853 C850 1.499 . S
C853 C854 1.373 . S
C853 C855 1.389 . S
C854 H827 0.950 . S
C854 C840 1.377 . S
C854 C853 1.373 . S
C855 C839 1.377 . S
C855 C853 1.389 . S
C855 C856 1.524 . S
C856 C855 1.524 . S
C856 C857 1.397 . S
C856 C861 1.363 . S
C857 H828 0.950 . S
C857 C856 1.397 . S
C857 C858 1.334 . S
C858 H829 0.950 . S
C858 C857 1.334 . S
C858 C859 1.287 . S
C859 C858 1.287 . S
C859 C860 1.524 . S
C859 H862 0.999 . S
C860 H830 0.950 . S
C860 C859 1.524 . S
C860 C861 1.415 . S
C861 H831 0.950 . S
C861 C856 1.363 . S
C861 C860 1.415 . S
H862 C859 0.999 . S
H863 C844 0.913 . S
H864 C882 0.951 . S
H865 C884 0.951 . S
H866 C886 0.950 . S
H867 C887 0.950 . S
H868 C889 0.950 . S
H869 C892 0.950 1_545 S
H870 C893 0.950 . S
H871 C895 0.950 . S
H872 C896 0.950 . S
H873 C897 0.951 . S
H874 C899 0.951 . S
H875 C901 0.950 1_565 S
H876 C902 0.950 . S
H877 C904 0.950 1_545 S
H878 C907 0.950 . S
H879 C908 0.950 . S
H880 C910 0.950 . S
H881 C911 0.950 . S
C882 H864 0.951 . S
C882 C883 1.366 . S
C882 C884 1.388 . S
C883 C882 1.366 . S
C883 C887 1.385 . S
C884 H865 0.951 . S
C884 C882 1.388 . S
C884 C885 1.366 . S
C885 C884 1.366 . S
C885 C886 1.414 . S
C885 C888 1.499 . S
C886 H866 0.950 . S
C886 C885 1.414 . S
C886 C887 1.374 . S
C887 H867 0.950 . S
C887 C883 1.385 . S
C887 C886 1.374 . S
C888 C885 1.499 . S
C888 C889 1.373 . S
C888 C890 1.389 . S
C889 H868 0.950 . S
C889 C888 1.373 . S
C889 C905 1.377 . S
C890 C888 1.389 . S
C890 C891 1.524 . S
C890 C904 1.377 . S
C891 C890 1.524 . S
C891 C892 1.397 . S
C891 C896 1.363 . S
C892 H869 0.950 1_565 S
C892 C891 1.397 . S
C892 C893 1.334 1_565 S
C893 H870 0.950 . S
C893 C892 1.334 1_545 S
C893 C894 1.287 1_545 S
C894 C893 1.287 1_565 S
C894 C895 1.524 . S
C894 H913 0.913 1_565 S
C895 H871 0.950 . S
C895 C894 1.524 . S
C895 C896 1.415 . S
C896 H872 0.950 . S
C896 C891 1.363 . S
C896 C895 1.415 . S
C897 H873 0.951 . S
C897 C898 1.366 . S
C897 C899 1.388 . S
C898 C897 1.366 . S
C898 C902 1.385 . S
C899 H874 0.951 . S
C899 C897 1.388 . S
C899 C900 1.366 . S
C900 C899 1.366 . S
C900 C901 1.414 . S
C900 C903 1.499 1_545 S
C901 H875 0.950 1_545 S
C901 C900 1.414 . S
C901 C902 1.374 . S
C902 H876 0.950 . S
C902 C898 1.385 . S
C902 C901 1.374 . S
C903 C900 1.499 1_565 S
C903 C904 1.373 . S
C903 C905 1.389 . S
C904 H877 0.950 1_565 S
C904 C890 1.377 . S
C904 C903 1.373 . S
C905 C889 1.377 . S
C905 C903 1.389 . S
C905 C906 1.524 . S
C906 C905 1.524 . S
C906 C907 1.397 . S
C906 C911 1.363 . S
C907 H878 0.950 . S
C907 C906 1.397 . S
C907 C908 1.334 . S
C908 H879 0.950 . S
C908 C907 1.334 . S
C908 C909 1.287 . S
C909 C908 1.287 . S
C909 C910 1.524 . S
C909 H912 0.999 . S
C910 H880 0.950 . S
C910 C909 1.524 . S
C910 C911 1.415 . S
C911 H881 0.950 . S
C911 C906 1.363 . S
C911 C910 1.415 . S
H912 C909 0.999 . S
H913 C894 0.913 1_545 S
H914 C932 0.951 . S
H915 C934 0.951 . S
H916 C936 0.950 . S
H917 C937 0.950 . S
H918 C939 0.950 . S
H919 C942 0.950 . S
H920 C943 0.950 . S
H921 C945 0.950 . S
H922 C946 0.950 . S
H923 C947 0.951 . S
H924 C949 0.951 . S
H925 C951 0.950 . S
H926 C952 0.950 . S
H927 C954 0.950 . S
H928 C957 0.950 . S
H929 C958 0.950 . S
H930 C960 0.950 . S
H931 C961 0.950 . S
C932 H914 0.951 . S
C932 C933 1.366 . S
C932 C934 1.388 . S
C933 C932 1.366 . S
C933 C937 1.385 . S
C934 H915 0.951 . S
C934 C932 1.388 . S
C934 C935 1.366 . S
C935 C934 1.366 . S
C935 C936 1.414 . S
C935 C938 1.499 . S
C936 H916 0.950 . S
C936 C935 1.414 . S
C936 C937 1.374 . S
C937 H917 0.950 . S
C937 C933 1.385 . S
C937 C936 1.374 . S
C938 C935 1.499 . S
C938 C939 1.373 . S
C938 C940 1.389 . S
C939 H918 0.950 . S
C939 C938 1.373 . S
C939 C955 1.377 . S
C940 C938 1.389 . S
C940 C941 1.524 . S
C940 C954 1.377 . S
C941 C940 1.524 . S
C941 C942 1.397 . S
C941 C946 1.363 . S
C942 H919 0.950 . S
C942 C941 1.397 . S
C942 C943 1.334 . S
C943 H920 0.950 . S
C943 C942 1.334 . S
C943 C944 1.287 . S
C944 C943 1.287 . S
C944 C945 1.524 . S
C944 H963 0.913 . S
C945 H921 0.950 . S
C945 C944 1.524 . S
C945 C946 1.415 . S
C946 H922 0.950 . S
C946 C941 1.363 . S
C946 C945 1.415 . S
C947 H923 0.951 . S
C947 C948 1.366 . S
C947 C949 1.388 . S
C948 C947 1.366 . S
C948 C952 1.385 . S
C949 H924 0.951 . S
C949 C947 1.388 . S
C949 C950 1.366 . S
C950 C949 1.366 . S
C950 C951 1.414 . S
C950 C953 1.499 . S
C951 H925 0.950 . S
C951 C950 1.414 . S
C951 C952 1.374 . S
C952 H926 0.950 . S
C952 C948 1.385 . S
C952 C951 1.374 . S
C953 C950 1.499 . S
C953 C954 1.373 . S
C953 C955 1.389 . S
C954 H927 0.950 . S
C954 C940 1.377 . S
C954 C953 1.373 . S
C955 C939 1.377 . S
C955 C953 1.389 . S
C955 C956 1.524 . S
C956 C955 1.524 . S
C956 C957 1.397 . S
C956 C961 1.363 . S
C957 H928 0.950 . S
C957 C956 1.397 . S
C957 C958 1.334 . S
C958 H929 0.950 . S
C958 C957 1.334 . S
C958 C959 1.287 . S
C959 C958 1.287 . S
C959 C960 1.524 . S
C959 H962 0.999 . S
C960 H930 0.950 . S
C960 C959 1.524 . S
C960 C961 1.415 . S
C961 H931 0.950 . S
C961 C956 1.363 . S
C961 C960 1.415 . S
H962 C959 0.999 . S
H963 C944 0.913 . S
H964 C982 0.951 . S
H965 C984 0.951 . S
H966 C986 0.950 . S
H967 C987 0.950 . S
H968 C989 0.950 . S
H969 C992 0.937 1_655 S
H970 C993 0.950 1_655 S
H971 C995 0.950 . S
H972 C996 0.950 . S
H973 C997 0.951 . S
H974 C999 0.951 . S
H975 C1001 0.950 1_455 S
H976 C1002 0.950 . S
H977 C1004 0.950 1_655 S
H978 C1007 0.950 . S
H979 C1008 0.950 . S
H980 C1010 0.950 . S
H981 C1011 0.950 . S
C982 H964 0.951 . S
C982 C983 1.366 . S
C982 C984 1.388 . S
C983 C982 1.366 . S
C983 C987 1.385 . S
C984 H965 0.951 . S
C984 C982 1.388 . S
C984 C985 1.366 . S
C985 C984 1.366 . S
C985 C986 1.414 . S
C985 C988 1.499 . S
C986 H966 0.950 . S
C986 C985 1.414 . S
C986 C987 1.374 . S
C987 H967 0.950 . S
C987 C983 1.385 . S
C987 C986 1.374 . S
C988 C985 1.499 . S
C988 C989 1.373 . S
C988 C990 1.389 . S
C989 H968 0.950 . S
C989 C988 1.373 . S
C989 C1005 1.377 . S
C990 C988 1.389 . S
C990 C991 1.524 . S
C990 C1004 1.377 . S
C991 C990 1.524 . S
C991 C992 1.397 . S
C991 C996 1.363 . S
C992 H969 0.937 1_455 S
C992 C991 1.397 . S
C992 C993 1.334 . S
C993 H970 0.950 1_455 S
C993 C992 1.334 . S
C993 C994 1.287 . S
C994 C993 1.287 . S
C994 C995 1.524 . S
C994 H1013 0.913 . S
C995 H971 0.950 . S
C995 C994 1.524 . S
C995 C996 1.415 . S
C996 H972 0.950 . S
C996 C991 1.363 . S
C996 C995 1.415 . S
C997 H973 0.951 . S
C997 C998 1.366 . S
C997 C999 1.388 . S
C998 C997 1.366 . S
C998 C1002 1.385 . S
C999 H974 0.951 . S
C999 C997 1.388 . S
C999 C1000 1.366 . S
C1000 C999 1.366 . S
C1000 C1001 1.414 . S
C1000 C1003 1.499 1_655 S
C1001 H975 0.950 1_655 S
C1001 C1000 1.414 . S
C1001 C1002 1.374 . S
C1002 H976 0.950 . S
C1002 C998 1.385 . S
C1002 C1001 1.374 . S
C1003 C1000 1.499 1_455 S
C1003 C1004 1.373 . S
C1003 C1005 1.389 . S
C1004 H977 0.950 1_455 S
C1004 C990 1.377 . S
C1004 C1003 1.373 . S
C1005 C989 1.377 . S
C1005 C1003 1.389 . S
C1005 C1006 1.524 . S
C1006 C1005 1.524 . S
C1006 C1007 1.397 . S
C1006 C1011 1.363 . S
C1007 H978 0.950 . S
C1007 C1006 1.397 . S
C1007 C1008 1.334 . S
C1008 H979 0.950 . S
C1008 C1007 1.334 . S
C1008 C1009 1.287 . S
C1009 C1008 1.287 . S
C1009 C1010 1.524 . S
C1009 H1012 0.999 . S
C1010 H980 0.950 . S
C1010 C1009 1.524 . S
C1010 C1011 1.415 . S
C1011 H981 0.950 . S
C1011 C1006 1.363 . S
C1011 C1010 1.415 . S
H1012 C1009 0.999 . S
H1013 C994 0.913 . S
H1014 C1032 0.951 . S
H1015 C1034 0.951 . S
H1016 C1036 0.950 . S
H1017 C1037 0.950 . S
H1018 C1039 0.950 . S
H1019 C1042 0.950 . S
H1020 C1043 0.950 . S
H1021 C1045 0.950 . S
H1022 C1046 0.950 . S
H1023 C1047 0.951 . S
H1024 C1049 0.951 . S
H1025 C1051 0.950 . S
H1026 C1052 0.950 . S
H1027 C1054 0.950 . S
H1028 C1057 0.950 . S
H1029 C1058 0.950 . S
H1030 C1060 0.950 . S
H1031 C1061 0.950 . S
C1032 H1014 0.951 . S
C1032 C1033 1.366 . S
C1032 C1034 1.388 . S
C1033 C1032 1.366 . S
C1033 C1037 1.385 . S
C1034 H1015 0.951 . S
C1034 C1032 1.388 . S
C1034 C1035 1.366 . S
C1035 C1034 1.366 . S
C1035 C1036 1.414 . S
C1035 C1038 1.499 . S
C1036 H1016 0.950 . S
C1036 C1035 1.414 . S
C1036 C1037 1.374 . S
C1037 H1017 0.950 . S
C1037 C1033 1.385 . S
C1037 C1036 1.374 . S
C1038 C1035 1.499 . S
C1038 C1039 1.373 . S
C1038 C1040 1.389 . S
C1039 H1018 0.950 . S
C1039 C1038 1.373 . S
C1039 C1055 1.377 1_545 S
C1040 C1038 1.389 . S
C1040 C1041 1.524 . S
C1040 C1054 1.377 . S
C1041 C1040 1.524 . S
C1041 C1042 1.397 . S
C1041 C1046 1.363 . S
C1042 H1019 0.950 . S
C1042 C1041 1.397 . S
C1042 C1043 1.334 . S
C1043 H1020 0.950 . S
C1043 C1042 1.334 . S
C1043 C1044 1.287 . S
C1044 C1043 1.287 . S
C1044 C1045 1.524 . S
C1044 H1063 0.913 . S
C1045 H1021 0.950 . S
C1045 C1044 1.524 . S
C1045 C1046 1.415 . S
C1046 H1022 0.950 . S
C1046 C1041 1.363 . S
C1046 C1045 1.415 . S
C1047 H1023 0.951 . S
C1047 C1048 1.366 . S
C1047 C1049 1.388 . S
C1048 C1047 1.366 . S
C1048 C1052 1.385 . S
C1049 H1024 0.951 . S
C1049 C1047 1.388 . S
C1049 C1050 1.366 . S
C1050 C1049 1.366 . S
C1050 C1051 1.414 . S
C1050 C1053 1.499 1_565 S
C1051 H1025 0.950 . S
C1051 C1050 1.414 . S
C1051 C1052 1.374 . S
C1052 H1026 0.950 . S
C1052 C1048 1.385 . S
C1052 C1051 1.374 . S
C1053 C1050 1.499 1_545 S
C1053 C1054 1.373 . S
C1053 C1055 1.389 1_545 S
C1054 H1027 0.950 . S
C1054 C1040 1.377 . S
C1054 C1053 1.373 . S
C1055 C1039 1.377 1_565 S
C1055 C1053 1.389 1_565 S
C1055 C1056 1.524 . S
C1056 C1055 1.524 . S
C1056 C1057 1.397 . S
C1056 C1061 1.363 . S
C1057 H1028 0.950 . S
C1057 C1056 1.397 . S
C1057 C1058 1.334 . S
C1058 H1029 0.950 . S
C1058 C1057 1.334 . S
C1058 C1059 1.287 . S
C1059 C1058 1.287 . S
C1059 C1060 1.524 . S
C1059 H1062 0.999 . S
C1060 H1030 0.950 . S
C1060 C1059 1.524 . S
C1060 C1061 1.415 . S
C1061 H1031 0.950 . S
C1061 C1056 1.363 . S
C1061 C1060 1.415 . S
H1062 C1059 0.999 . S
H1063 C1044 0.913 . S
H1064 C1082 0.981 . S
H1065 C1084 1.015 . S
H1066 C1086 0.950 . S
H1067 C1087 0.950 . S
H1068 C1089 0.950 . S
H1069 C1092 0.950 . S
H1070 C1093 0.950 . S
H1071 C1095 0.950 . S
H1072 C1096 0.950 . S
H1073 C1097 0.951 . S
H1074 C1099 0.951 . S
H1075 C1101 0.950 . S
H1076 C1102 0.950 . S
H1077 C1104 0.950 . S
H1078 C1107 0.950 . S
H1079 C1108 0.950 . S
H1080 C1110 0.950 . S
H1081 C1111 0.943 . S
C1082 H1064 0.981 . S
C1082 C1083 1.366 . S
C1082 C1084 1.358 1_556 S
C1083 C1082 1.366 . S
C1083 C1087 1.385 . S
C1084 H1065 1.015 . S
C1084 C1082 1.358 1_554 S
C1084 C1085 1.338 1_554 S
C1085 C1084 1.338 1_556 S
C1085 C1086 1.414 . S
C1085 C1088 1.499 1_556 S
C1086 H1066 0.950 . S
C1086 C1085 1.414 . S
C1086 C1087 1.374 . S
C1087 H1067 0.950 . S
C1087 C1083 1.385 . S
C1087 C1086 1.374 . S
C1088 C1085 1.499 1_554 S
C1088 C1089 1.373 . S
C1088 C1090 1.389 . S
C1089 H1068 0.950 . S
C1089 C1088 1.373 . S
C1089 C1105 1.377 . S
C1090 C1088 1.389 . S
C1090 C1091 1.524 1_554 S
C1090 C1104 1.377 . S
C1091 C1090 1.524 1_556 S
C1091 C1092 1.397 . S
C1091 C1096 1.363 1_556 S
C1092 H1069 0.950 . S
C1092 C1091 1.397 . S
C1092 C1093 1.334 . S
C1093 H1070 0.950 . S
C1093 C1092 1.334 . S
C1093 C1094 1.287 . S
C1094 C1093 1.287 . S
C1094 C1095 1.524 1_556 S
C1094 H1113 0.913 . S
C1095 H1071 0.950 . S
C1095 C1094 1.524 1_554 S
C1095 C1096 1.415 . S
C1096 H1072 0.950 . S
C1096 C1091 1.363 1_554 S
C1096 C1095 1.415 . S
C1097 H1073 0.951 . S
C1097 C1098 1.366 . S
C1097 C1099 1.388 . S
C1098 C1097 1.366 . S
C1098 C1102 1.385 . S
C1099 H1074 0.951 . S
C1099 C1097 1.388 . S
C1099 C1100 1.366 . S
C1100 C1099 1.366 . S
C1100 C1101 1.414 . S
C1100 C1103 1.499 . S
C1101 H1075 0.950 . S
C1101 C1100 1.414 . S
C1101 C1102 1.374 . S
C1102 H1076 0.950 . S
C1102 C1098 1.385 . S
C1102 C1101 1.374 . S
C1103 C1100 1.499 . S
C1103 C1104 1.373 . S
C1103 C1105 1.389 . S
C1104 H1077 0.950 . S
C1104 C1090 1.377 . S
C1104 C1103 1.373 . S
C1105 C1089 1.377 . S
C1105 C1103 1.389 . S
C1105 C1106 1.524 . S
C1106 C1105 1.524 . S
C1106 C1107 1.397 . S
C1106 C1111 1.363 . S
C1107 H1078 0.950 . S
C1107 C1106 1.397 . S
C1107 C1108 1.334 . S
C1108 H1079 0.950 . S
C1108 C1107 1.334 . S
C1108 C1109 1.287 . S
C1109 C1108 1.287 . S
C1109 C1110 1.524 . S
C1109 H1112 0.999 . S
C1110 H1080 0.950 . S
C1110 C1109 1.524 . S
C1110 C1111 1.415 . S
C1111 H1081 0.943 . S
C1111 C1106 1.363 . S
C1111 C1110 1.415 . S
H1112 C1109 0.999 . S
H1113 C1094 0.913 . S
H1114 C1132 0.951 . S
H1115 C1134 0.951 . S
H1116 C1136 0.950 . S
H1117 C1137 0.950 . S
H1118 C1139 0.950 . S
H1119 C1142 0.950 . S
H1120 C1143 0.950 . S
H1121 C1145 0.950 . S
H1122 C1146 0.950 . S
H1123 C1147 0.951 . S
H1124 C1149 0.951 . S
H1125 C1151 0.950 . S
H1126 C1152 0.950 . S
H1127 C1154 0.950 . S
H1128 C1157 0.950 . S
H1129 C1158 0.950 . S
H1130 C1160 0.950 . S
H1131 C1161 0.950 . S
C1132 H1114 0.951 . S
C1132 C1133 1.366 . S
C1132 C1134 1.388 . S
C1133 C1132 1.366 . S
C1133 C1137 1.385 . S
C1134 H1115 0.951 . S
C1134 C1132 1.388 . S
C1134 C1135 1.366 . S
C1135 C1134 1.366 . S
C1135 C1136 1.414 . S
C1135 C1138 1.499 1_455 S
C1136 H1116 0.950 . S
C1136 C1135 1.414 . S
C1136 C1137 1.374 . S
C1137 H1117 0.950 . S
C1137 C1133 1.385 . S
C1137 C1136 1.374 . S
C1138 C1135 1.499 1_655 S
C1138 C1139 1.373 1_655 S
C1138 C1140 1.389 . S
C1139 H1118 0.950 . S
C1139 C1138 1.373 1_455 S
C1139 C1155 1.377 1_455 S
C1140 C1138 1.389 . S
C1140 C1141 1.524 . S
C1140 C1154 1.377 . S
C1141 C1140 1.524 . S
C1141 C1142 1.397 . S
C1141 C1146 1.363 . S
C1142 H1119 0.950 . S
C1142 C1141 1.397 . S
C1142 C1143 1.334 . S
C1143 H1120 0.950 . S
C1143 C1142 1.334 . S
C1143 C1144 1.287 . S
C1144 C1143 1.287 . S
C1144 C1145 1.524 . S
C1144 H1163 0.913 . S
C1145 H1121 0.950 . S
C1145 C1144 1.524 . S
C1145 C1146 1.415 . S
C1146 H1122 0.950 . S
C1146 C1141 1.363 . S
C1146 C1145 1.415 . S
C1147 H1123 0.951 . S
C1147 C1148 1.366 . S
C1147 C1149 1.388 . S
C1148 C1147 1.366 . S
C1148 C1152 1.385 . S
C1149 H1124 0.951 . S
C1149 C1147 1.388 . S
C1149 C1150 1.366 . S
C1150 C1149 1.366 . S
C1150 C1151 1.414 . S
C1150 C1153 1.499 . S
C1151 H1125 0.950 . S
C1151 C1150 1.414 . S
C1151 C1152 1.374 . S
C1152 H1126 0.950 . S
C1152 C1148 1.385 . S
C1152 C1151 1.374 . S
C1153 C1150 1.499 . S
C1153 C1154 1.373 . S
C1153 C1155 1.389 . S
C1154 H1127 0.950 . S
C1154 C1140 1.377 . S
C1154 C1153 1.373 . S
C1155 C1139 1.377 1_655 S
C1155 C1153 1.389 . S
C1155 C1156 1.524 1_655 S
C1156 C1155 1.524 1_455 S
C1156 C1157 1.397 . S
C1156 C1161 1.363 . S
C1157 H1128 0.950 . S
C1157 C1156 1.397 . S
C1157 C1158 1.334 . S
C1158 H1129 0.950 . S
C1158 C1157 1.334 . S
C1158 C1159 1.287 . S
C1159 C1158 1.287 . S
C1159 C1160 1.524 . S
C1159 H1162 0.999 . S
C1160 H1130 0.950 . S
C1160 C1159 1.524 . S
C1160 C1161 1.415 . S
C1161 H1131 0.950 . S
C1161 C1156 1.363 . S
C1161 C1160 1.415 . S
H1162 C1159 0.999 . S
H1163 C1144 0.913 . S
H1164 C1182 0.951 . S
H1165 C1184 0.951 1_455 S
H1166 C1186 0.950 . S
H1167 C1187 0.950 . S
H1168 C1189 0.950 . S
H1169 C1192 0.950 . S
H1170 C1193 0.950 . S
H1171 C1195 0.950 1_455 S
H1172 C1196 0.950 . S
H1173 C1197 0.951 . S
H1174 C1199 0.951 . S
H1175 C1201 0.950 . S
H1176 C1202 0.950 . S
H1177 C1204 0.950 . S
H1178 C1207 0.950 . S
H1179 C1208 0.950 . S
H1180 C1210 0.950 . S
H1181 C1211 0.950 . S
C1182 H1164 0.951 . S
C1182 C1183 1.366 . S
C1182 C1184 1.388 . S
C1183 C1182 1.366 . S
C1183 C1187 1.385 . S
C1184 H1165 0.951 1_655 S
C1184 C1182 1.388 . S
C1184 C1185 1.366 . S
C1185 C1184 1.366 . S
C1185 C1186 1.414 . S
C1185 C1188 1.499 1_655 S
C1186 H1166 0.950 . S
C1186 C1185 1.414 . S
C1186 C1187 1.374 . S
C1187 H1167 0.950 . S
C1187 C1183 1.385 . S
C1187 C1186 1.374 . S
C1188 C1185 1.499 1_455 S
C1188 C1189 1.373 . S
C1188 C1190 1.389 . S
C1189 H1168 0.950 . S
C1189 C1188 1.373 . S
C1189 C1205 1.377 . S
C1190 C1188 1.389 . S
C1190 C1191 1.524 1_455 S
C1190 C1204 1.377 . S
C1191 C1190 1.524 1_655 S
C1191 C1192 1.397 . S
C1191 C1196 1.363 1_655 S
C1192 H1169 0.950 . S
C1192 C1191 1.397 . S
C1192 C1193 1.334 . S
C1193 H1170 0.950 . S
C1193 C1192 1.334 . S
C1193 C1194 1.287 . S
C1194 C1193 1.287 . S
C1194 C1195 1.524 . S
C1194 H1213 0.913 . S
C1195 H1171 0.950 1_655 S
C1195 C1194 1.524 . S
C1195 C1196 1.415 1_655 S
C1196 H1172 0.950 . S
C1196 C1191 1.363 1_455 S
C1196 C1195 1.415 1_455 S
C1197 H1173 0.951 . S
C1197 C1198 1.366 . S
C1197 C1199 1.388 . S
C1198 C1197 1.366 . S
C1198 C1202 1.385 . S
C1199 H1174 0.951 . S
C1199 C1197 1.388 . S
C1199 C1200 1.366 . S
C1200 C1199 1.366 . S
C1200 C1201 1.414 . S
C1200 C1203 1.499 . S
C1201 H1175 0.950 . S
C1201 C1200 1.414 . S
C1201 C1202 1.374 . S
C1202 H1176 0.950 . S
C1202 C1198 1.385 . S
C1202 C1201 1.374 . S
C1203 C1200 1.499 . S
C1203 C1204 1.373 . S
C1203 C1205 1.389 . S
C1204 H1177 0.950 . S
C1204 C1190 1.377 . S
C1204 C1203 1.373 . S
C1205 C1189 1.377 . S
C1205 C1203 1.389 . S
C1205 C1206 1.524 . S
C1206 C1205 1.524 . S
C1206 C1207 1.397 . S
C1206 C1211 1.363 . S
C1207 H1178 0.950 . S
C1207 C1206 1.397 . S
C1207 C1208 1.334 . S
C1208 H1179 0.950 . S
C1208 C1207 1.334 . S
C1208 C1209 1.287 . S
C1209 C1208 1.287 . S
C1209 C1210 1.524 . S
C1209 H1212 0.999 . S
C1210 H1180 0.950 . S
C1210 C1209 1.524 . S
C1210 C1211 1.415 . S
C1211 H1181 0.950 . S
C1211 C1206 1.363 . S
C1211 C1210 1.415 . S
H1212 C1209 0.999 . S
H1213 C1194 0.913 . S
H1214 C1232 0.951 . S
H1215 C1234 0.951 . S
H1216 C1236 0.950 . S
H1217 C1237 0.950 . S
H1218 C1239 0.950 . S
H1219 C1242 0.950 . S
H1220 C1243 0.950 . S
H1221 C1245 0.950 . S
H1222 C1246 0.950 . S
H1223 C1247 0.951 . S
H1224 C1249 0.951 . S
H1225 C1251 0.950 . S
H1226 C1252 0.950 . S
H1227 C1254 0.950 . S
H1228 C1257 0.950 . S
H1229 C1258 0.950 . S
H1230 C1260 0.950 . S
H1231 C1261 0.950 . S
C1232 H1214 0.951 . S
C1232 C1233 1.366 . S
C1232 C1234 1.388 . S
C1233 C1232 1.366 . S
C1233 C1237 1.385 . S
C1234 H1215 0.951 . S
C1234 C1232 1.388 . S
C1234 C1235 1.366 . S
C1235 C1234 1.366 . S
C1235 C1236 1.414 . S
C1235 C1238 1.499 1_565 S
C1236 H1216 0.950 . S
C1236 C1235 1.414 . S
C1236 C1237 1.374 . S
C1237 H1217 0.950 . S
C1237 C1233 1.385 . S
C1237 C1236 1.374 . S
C1238 C1235 1.499 1_545 S
C1238 C1239 1.373 1_545 S
C1238 C1240 1.389 . S
C1239 H1218 0.950 . S
C1239 C1238 1.373 1_565 S
C1239 C1255 1.377 1_565 S
C1240 C1238 1.389 . S
C1240 C1241 1.524 . S
C1240 C1254 1.377 . S
C1241 C1240 1.524 . S
C1241 C1242 1.397 . S
C1241 C1246 1.363 . S
C1242 H1219 0.950 . S
C1242 C1241 1.397 . S
C1242 C1243 1.334 . S
C1243 H1220 0.950 . S
C1243 C1242 1.334 . S
C1243 C1244 1.287 . S
C1244 C1243 1.287 . S
C1244 C1245 1.524 . S
C1244 H1263 0.913 . S
C1245 H1221 0.950 . S
C1245 C1244 1.524 . S
C1245 C1246 1.415 . S
C1246 H1222 0.950 . S
C1246 C1241 1.363 . S
C1246 C1245 1.415 . S
C1247 H1223 0.951 . S
C1247 C1248 1.366 . S
C1247 C1249 1.388 . S
C1248 C1247 1.366 . S
C1248 C1252 1.385 . S
C1249 H1224 0.951 . S
C1249 C1247 1.388 . S
C1249 C1250 1.366 . S
C1250 C1249 1.366 . S
C1250 C1251 1.414 . S
C1250 C1253 1.499 . S
C1251 H1225 0.950 . S
C1251 C1250 1.414 . S
C1251 C1252 1.374 . S
C1252 H1226 0.950 . S
C1252 C1248 1.385 . S
C1252 C1251 1.374 . S
C1253 C1250 1.499 . S
C1253 C1254 1.373 . S
C1253 C1255 1.389 . S
C1254 H1227 0.950 . S
C1254 C1240 1.377 . S
C1254 C1253 1.373 . S
C1255 C1239 1.377 1_545 S
C1255 C1253 1.389 . S
C1255 C1256 1.524 1_545 S
C1256 C1255 1.524 1_565 S
C1256 C1257 1.397 . S
C1256 C1261 1.363 . S
C1257 H1228 0.950 . S
C1257 C1256 1.397 . S
C1257 C1258 1.334 . S
C1258 H1229 0.950 . S
C1258 C1257 1.334 . S
C1258 C1259 1.287 . S
C1259 C1258 1.287 . S
C1259 C1260 1.524 . S
C1259 H1262 0.999 . S
C1260 H1230 0.950 . S
C1260 C1259 1.524 . S
C1260 C1261 1.415 . S
C1261 H1231 0.950 . S
C1261 C1256 1.363 . S
C1261 C1260 1.415 . S
H1262 C1259 0.999 . S
H1263 C1244 0.913 . S
H1264 C1282 0.951 . S
H1265 C1284 0.951 . S
H1266 C1286 0.950 . S
H1267 C1287 0.950 . S
H1268 C1289 0.950 . S
H1269 C1292 0.950 . S
H1270 C1293 0.950 . S
H1271 C1295 0.950 . S
H1272 C1296 0.950 . S
H1273 C1297 0.951 . S
H1274 C1299 0.951 . S
H1275 C1301 0.950 . S
H1276 C1302 0.950 . S
H1277 C1304 0.950 . S
H1278 C1307 0.950 . S
H1279 C1308 0.950 . S
H1280 C1310 0.950 . S
H1281 C1311 0.950 . S
C1282 H1264 0.951 . S
C1282 C1283 1.366 . S
C1282 C1284 1.388 . S
C1283 C1282 1.366 . S
C1283 C1287 1.385 . S
C1284 H1265 0.951 . S
C1284 C1282 1.388 . S
C1284 C1285 1.366 . S
C1285 C1284 1.366 . S
C1285 C1286 1.414 . S
C1285 C1288 1.499 . S
C1286 H1266 0.950 . S
C1286 C1285 1.414 . S
C1286 C1287 1.374 . S
C1287 H1267 0.950 . S
C1287 C1283 1.385 . S
C1287 C1286 1.374 . S
C1288 C1285 1.499 . S
C1288 C1289 1.373 . S
C1288 C1290 1.389 . S
C1289 H1268 0.950 . S
C1289 C1288 1.373 . S
C1289 C1305 1.377 . S
C1290 C1288 1.389 . S
C1290 C1291 1.524 . S
C1290 C1304 1.377 . S
C1291 C1290 1.524 . S
C1291 C1292 1.397 . S
C1291 C1296 1.363 . S
C1292 H1269 0.950 . S
C1292 C1291 1.397 . S
C1292 C1293 1.334 . S
C1293 H1270 0.950 . S
C1293 C1292 1.334 . S
C1293 C1294 1.287 . S
C1294 C1293 1.287 . S
C1294 C1295 1.524 . S
C1294 H1313 0.913 . S
C1295 H1271 0.950 . S
C1295 C1294 1.524 . S
C1295 C1296 1.415 . S
C1296 H1272 0.950 . S
C1296 C1291 1.363 . S
C1296 C1295 1.415 . S
C1297 H1273 0.951 . S
C1297 C1298 1.366 . S
C1297 C1299 1.388 . S
C1298 C1297 1.366 . S
C1298 C1302 1.385 . S
C1299 H1274 0.951 . S
C1299 C1297 1.388 . S
C1299 C1300 1.366 . S
C1300 C1299 1.366 . S
C1300 C1301 1.414 . S
C1300 C1303 1.499 . S
C1301 H1275 0.950 . S
C1301 C1300 1.414 . S
C1301 C1302 1.374 . S
C1302 H1276 0.950 . S
C1302 C1298 1.385 . S
C1302 C1301 1.374 . S
C1303 C1300 1.499 . S
C1303 C1304 1.373 . S
C1303 C1305 1.389 . S
C1304 H1277 0.950 . S
C1304 C1290 1.377 . S
C1304 C1303 1.373 . S
C1305 C1289 1.377 . S
C1305 C1303 1.389 . S
C1305 C1306 1.524 . S
C1306 C1305 1.524 . S
C1306 C1307 1.397 . S
C1306 C1311 1.363 . S
C1307 H1278 0.950 . S
C1307 C1306 1.397 . S
C1307 C1308 1.334 . S
C1308 H1279 0.950 . S
C1308 C1307 1.334 . S
C1308 C1309 1.287 . S
C1309 C1308 1.287 . S
C1309 C1310 1.524 . S
C1309 H1312 0.999 . S
C1310 H1280 0.950 . S
C1310 C1309 1.524 . S
C1310 C1311 1.415 . S
C1311 H1281 0.950 . S
C1311 C1306 1.363 . S
C1311 C1310 1.415 . S
H1312 C1309 0.999 . S
H1313 C1294 0.913 . S
H1314 C1332 0.951 . S
H1315 C1334 0.951 1_556 S
H1316 C1336 0.950 . S
H1317 C1337 0.950 . S
H1318 C1339 0.950 . S
H1319 C1342 0.950 . S
H1320 C1343 0.950 . S
H1321 C1345 0.950 1_455 S
H1322 C1346 0.950 1_455 S
H1323 C1347 0.951 . S
H1324 C1349 0.951 1_655 S
H1325 C1351 0.950 . S
H1326 C1352 0.950 . S
H1327 C1354 0.950 1_455 S
H1328 C1357 0.950 . S
H1329 C1358 0.950 . S
H1330 C1360 0.950 . S
H1331 C1361 0.950 . S
C1332 H1314 0.951 . S
C1332 C1333 1.366 . S
C1332 C1334 1.388 . S
C1333 C1332 1.366 . S
C1333 C1337 1.385 . S
C1334 H1315 0.951 1_554 S
C1334 C1332 1.388 . S
C1334 C1335 1.366 . S
C1335 C1334 1.366 . S
C1335 C1336 1.414 . S
C1335 C1338 1.499 1_554 S
C1336 H1316 0.950 . S
C1336 C1335 1.414 . S
C1336 C1337 1.374 . S
C1337 H1317 0.950 . S
C1337 C1333 1.385 . S
C1337 C1336 1.374 . S
C1338 C1335 1.499 1_556 S
C1338 C1339 1.373 1_556 S
C1338 C1340 1.389 . S
C1339 H1318 0.950 . S
C1339 C1338 1.373 1_554 S
C1339 C1355 1.369 1_554 S
C1340 C1338 1.389 . S
C1340 C1341 1.524 . S
C1340 C1354 1.377 . S
C1341 C1340 1.524 . S
C1341 C1342 1.397 . S
C1341 C1346 1.363 . S
C1342 H1319 0.950 . S
C1342 C1341 1.397 . S
C1342 C1343 1.334 . S
C1343 H1320 0.950 . S
C1343 C1342 1.334 . S
C1343 C1344 1.287 . S
C1344 C1343 1.287 . S
C1344 C1345 1.524 . S
C1344 H1363 0.913 . S
C1345 H1321 0.950 1_655 S
C1345 C1344 1.524 . S
C1345 C1346 1.415 . S
C1346 H1322 0.950 1_655 S
C1346 C1341 1.363 . S
C1346 C1345 1.415 . S
C1347 H1323 0.951 . S
C1347 C1348 1.366 . S
C1347 C1349 1.388 . S
C1348 C1347 1.366 . S
C1348 C1352 1.385 . S
C1349 H1324 0.951 1_455 S
C1349 C1347 1.388 . S
C1349 C1350 1.366 . S
C1350 C1349 1.366 . S
C1350 C1351 1.414 . S
C1350 C1353 1.499 1_455 S
C1351 H1325 0.950 . S
C1351 C1350 1.414 . S
C1351 C1352 1.374 . S
C1352 H1326 0.950 . S
C1352 C1348 1.385 . S
C1352 C1351 1.374 . S
C1353 C1350 1.499 1_655 S
C1353 C1354 1.373 . S
C1353 C1355 1.409 . S
C1354 H1327 0.950 1_655 S
C1354 C1340 1.377 . S
C1354 C1353 1.373 . S
C1355 C1339 1.369 1_556 S
C1355 C1353 1.409 . S
C1355 C1356 1.511 1_556 S
C1356 C1355 1.511 1_554 S
C1356 C1357 1.397 1_655 S
C1356 C1361 1.363 . S
C1357 H1328 0.950 . S
C1357 C1356 1.397 1_455 S
C1357 C1358 1.334 . S
C1358 H1329 0.950 . S
C1358 C1357 1.334 . S
C1358 C1359 1.287 . S
C1359 C1358 1.287 . S
C1359 C1360 1.524 1_455 S
C1359 H1362 0.999 . S
C1360 H1330 0.950 . S
C1360 C1359 1.524 1_655 S
C1360 C1361 1.415 . S
C1361 H1331 0.950 . S
C1361 C1356 1.363 . S
C1361 C1360 1.415 . S
H1362 C1359 0.999 . S
H1363 C1344 0.913 . S
H1364 C1382 0.951 . S
H1365 C1384 0.951 . S
H1366 C1386 0.950 . S
H1367 C1387 0.950 . S
H1368 C1389 0.950 . S
H1369 C1392 0.950 . S
H1370 C1393 0.950 . S
H1371 C1395 0.950 . S
H1372 C1396 0.950 1_565 S
H1373 C1397 0.951 . S
H1374 C1399 0.951 . S
H1375 C1401 0.950 . S
H1376 C1402 0.950 . S
H1377 C1404 0.950 . S
H1378 C1407 0.950 . S
H1379 C1408 0.950 . S
H1380 C1410 0.950 . S
H1381 C1411 0.950 . S
C1382 H1364 0.951 . S
C1382 C1383 1.366 . S
C1382 C1384 1.388 . S
C1383 C1382 1.366 . S
C1383 C1387 1.385 . S
C1384 H1365 0.951 . S
C1384 C1382 1.388 . S
C1384 C1385 1.366 . S
C1385 C1384 1.366 . S
C1385 C1386 1.414 . S
C1385 C1388 1.499 1_545 S
C1386 H1366 0.950 . S
C1386 C1385 1.414 . S
C1386 C1387 1.374 . S
C1387 H1367 0.950 . S
C1387 C1383 1.385 . S
C1387 C1386 1.374 . S
C1388 C1385 1.499 1_565 S
C1388 C1389 1.373 . S
C1388 C1390 1.380 1_565 S
C1389 H1368 0.950 . S
C1389 C1388 1.373 . S
C1389 C1405 1.377 . S
C1390 C1388 1.380 1_545 S
C1390 C1391 1.537 . S
C1390 C1404 1.375 1_545 S
C1391 C1390 1.537 . S
C1391 C1392 1.397 . S
C1391 C1396 1.363 . S
C1392 H1369 0.950 . S
C1392 C1391 1.397 . S
C1392 C1393 1.334 . S
C1393 H1370 0.950 . S
C1393 C1392 1.334 . S
C1393 C1394 1.287 . S
C1394 C1393 1.287 . S
C1394 C1395 1.524 . S
C1394 H1413 0.913 . S
C1395 H1371 0.950 . S
C1395 C1394 1.524 . S
C1395 C1396 1.415 . S
C1396 H1372 0.950 1_545 S
C1396 C1391 1.363 . S
C1396 C1395 1.415 . S
C1397 H1373 0.951 . S
C1397 C1398 1.366 . S
C1397 C1399 1.388 . S
C1398 C1397 1.366 . S
C1398 C1402 1.385 . S
C1399 H1374 0.951 . S
C1399 C1397 1.388 . S
C1399 C1400 1.366 . S
C1400 C1399 1.366 . S
C1400 C1401 1.414 . S
C1400 C1403 1.499 . S
C1401 H1375 0.950 . S
C1401 C1400 1.414 . S
C1401 C1402 1.374 . S
C1402 H1376 0.950 . S
C1402 C1398 1.385 . S
C1402 C1401 1.374 . S
C1403 C1400 1.499 . S
C1403 C1404 1.373 . S
C1403 C1405 1.389 . S
C1404 H1377 0.950 . S
C1404 C1390 1.375 1_565 S
C1404 C1403 1.373 . S
C1405 C1389 1.377 . S
C1405 C1403 1.389 . S
C1405 C1406 1.524 . S
C1406 C1405 1.524 . S
C1406 C1407 1.397 . S
C1406 C1411 1.363 . S
C1407 H1378 0.950 . S
C1407 C1406 1.397 . S
C1407 C1408 1.334 . S
C1408 H1379 0.950 . S
C1408 C1407 1.334 . S
C1408 C1409 1.287 . S
C1409 C1408 1.287 . S
C1409 C1410 1.524 . S
C1409 H1412 0.999 . S
C1410 H1380 0.950 . S
C1410 C1409 1.524 . S
C1410 C1411 1.415 . S
C1411 H1381 0.950 . S
C1411 C1406 1.363 . S
C1411 C1410 1.415 . S
H1412 C1409 0.999 . S
H1413 C1394 0.913 . S
H1414 C1432 0.951 . S
H1415 C1434 0.951 . S
H1416 C1436 0.950 . S
H1417 C1437 0.950 . S
H1418 C1439 0.950 . S
H1419 C1442 0.950 . S
H1420 C1443 0.950 . S
H1421 C1445 0.950 . S
H1422 C1446 0.950 . S
H1423 C1447 0.951 . S
H1424 C1449 0.951 . S
H1425 C1451 0.950 . S
H1426 C1452 0.950 . S
H1427 C1454 0.950 . S
H1428 C1457 0.950 . S
H1429 C1458 0.950 . S
H1430 C1460 0.950 . S
H1431 C1461 0.950 . S
C1432 H1414 0.951 . S
C1432 C1433 1.366 . S
C1432 C1434 1.388 . S
C1433 C1432 1.366 . S
C1433 C1437 1.385 . S
C1434 H1415 0.951 . S
C1434 C1432 1.388 . S
C1434 C1435 1.366 . S
C1435 C1434 1.366 . S
C1435 C1436 1.414 . S
C1435 C1438 1.499 . S
C1436 H1416 0.950 . S
C1436 C1435 1.414 . S
C1436 C1437 1.374 . S
C1437 H1417 0.950 . S
C1437 C1433 1.385 . S
C1437 C1436 1.374 . S
C1438 C1435 1.499 . S
C1438 C1439 1.373 . S
C1438 C1440 1.389 . S
C1439 H1418 0.950 . S
C1439 C1438 1.373 . S
C1439 C1455 1.377 . S
C1440 C1438 1.389 . S
C1440 C1441 1.524 . S
C1440 C1454 1.377 . S
C1441 C1440 1.524 . S
C1441 C1442 1.397 . S
C1441 C1446 1.363 . S
C1442 H1419 0.950 . S
C1442 C1441 1.397 . S
C1442 C1443 1.334 . S
C1443 H1420 0.950 . S
C1443 C1442 1.334 . S
C1443 C1444 1.287 . S
C1444 C1443 1.287 . S
C1444 C1445 1.524 . S
C1444 H1463 0.913 . S
C1445 H1421 0.950 . S
C1445 C1444 1.524 . S
C1445 C1446 1.415 . S
C1446 H1422 0.950 . S
C1446 C1441 1.363 . S
C1446 C1445 1.415 . S
C1447 H1423 0.951 . S
C1447 C1448 1.366 . S
C1447 C1449 1.388 . S
C1448 C1447 1.366 . S
C1448 C1452 1.385 . S
C1449 H1424 0.951 . S
C1449 C1447 1.388 . S
C1449 C1450 1.366 . S
C1450 C1449 1.366 . S
C1450 C1451 1.414 . S
C1450 C1453 1.499 . S
C1451 H1425 0.950 . S
C1451 C1450 1.414 . S
C1451 C1452 1.374 . S
C1452 H1426 0.950 . S
C1452 C1448 1.385 . S
C1452 C1451 1.374 . S
C1453 C1450 1.499 . S
C1453 C1454 1.373 . S
C1453 C1455 1.389 . S
C1454 H1427 0.950 . S
C1454 C1440 1.377 . S
C1454 C1453 1.373 . S
C1455 C1439 1.377 . S
C1455 C1453 1.389 . S
C1455 C1456 1.524 . S
C1456 C1455 1.524 . S
C1456 C1457 1.397 . S
C1456 C1461 1.363 . S
C1457 H1428 0.950 . S
C1457 C1456 1.397 . S
C1457 C1458 1.334 . S
C1458 H1429 0.950 . S
C1458 C1457 1.334 . S
C1458 C1459 1.287 . S
C1459 C1458 1.287 . S
C1459 C1460 1.524 . S
C1459 H1462 0.999 . S
C1460 H1430 0.950 . S
C1460 C1459 1.524 . S
C1460 C1461 1.415 . S
C1461 H1431 0.950 . S
C1461 C1456 1.363 . S
C1461 C1460 1.415 . S
H1462 C1459 0.999 . S
H1463 C1444 0.913 . S
H1464 C1482 0.951 . S
H1465 C1484 0.938 1_655 S
H1466 C1486 0.950 . S
H1467 C1487 0.950 . S
H1468 C1489 0.950 . S
H1469 C1492 0.950 . S
H1470 C1493 0.950 . S
H1471 C1495 0.950 . S
H1472 C1496 0.950 . S
H1473 C1497 0.951 . S
H1474 C1499 0.951 . S
H1475 C1501 0.950 . S
H1476 C1502 0.950 . S
H1477 C1504 0.950 . S
H1478 C1507 0.950 . S
H1479 C1508 0.950 . S
H1480 C1510 0.950 . S
H1481 C1511 0.950 . S
C1482 H1464 0.951 . S
C1482 C1483 1.366 . S
C1482 C1484 1.378 1_655 S
C1483 C1482 1.366 . S
C1483 C1487 1.385 1_655 S
C1484 H1465 0.938 1_455 S
C1484 C1482 1.378 1_455 S
C1484 C1485 1.388 . S
C1485 C1484 1.388 . S
C1485 C1486 1.414 . S
C1485 C1488 1.499 . S
C1486 H1466 0.950 . S
C1486 C1485 1.414 . S
C1486 C1487 1.374 . S
C1487 H1467 0.950 . S
C1487 C1483 1.385 1_455 S
C1487 C1486 1.374 . S
C1488 C1485 1.499 . S
C1488 C1489 1.373 . S
C1488 C1490 1.389 . S
C1489 H1468 0.950 . S
C1489 C1488 1.373 . S
C1489 C1505 1.377 . S
C1490 C1488 1.389 . S
C1490 C1491 1.524 . S
C1490 C1504 1.377 . S
C1491 C1490 1.524 . S
C1491 C1492 1.397 . S
C1491 C1496 1.363 . S
C1492 H1469 0.950 . S
C1492 C1491 1.397 . S
C1492 C1493 1.334 1_455 S
C1493 H1470 0.950 . S
C1493 C1492 1.334 1_655 S
C1493 C1494 1.287 . S
C1494 C1493 1.287 . S
C1494 C1495 1.524 . S
C1494 H1513 0.913 . S
C1495 H1471 0.950 . S
C1495 C1494 1.524 . S
C1495 C1496 1.415 1_655 S
C1496 H1472 0.950 . S
C1496 C1491 1.363 . S
C1496 C1495 1.415 1_455 S
C1497 H1473 0.951 . S
C1497 C1498 1.366 1_565 S
C1497 C1499 1.388 . S
C1498 C1497 1.366 1_545 S
C1498 C1502 1.385 . S
C1499 H1474 0.951 . S
C1499 C1497 1.388 . S
C1499 C1500 1.366 . S
C1500 C1499 1.366 . S
C1500 C1501 1.414 . S
C1500 C1503 1.499 . S
C1501 H1475 0.950 . S
C1501 C1500 1.414 . S
C1501 C1502 1.374 1_565 S
C1502 H1476 0.950 . S
C1502 C1498 1.385 . S
C1502 C1501 1.374 1_545 S
C1503 C1500 1.499 . S
C1503 C1504 1.373 . S
C1503 C1505 1.389 . S
C1504 H1477 0.950 . S
C1504 C1490 1.377 . S
C1504 C1503 1.373 . S
C1505 C1489 1.377 . S
C1505 C1503 1.389 . S
C1505 C1506 1.524 . S
C1506 C1505 1.524 . S
C1506 C1507 1.397 . S
C1506 C1511 1.363 . S
C1507 H1478 0.950 . S
C1507 C1506 1.397 . S
C1507 C1508 1.334 1_565 S
C1508 H1479 0.950 . S
C1508 C1507 1.334 1_545 S
C1508 C1509 1.287 1_545 S
C1509 C1508 1.287 1_565 S
C1509 C1510 1.524 . S
C1509 H1512 0.999 1_565 S
C1510 H1480 0.950 . S
C1510 C1509 1.524 . S
C1510 C1511 1.415 . S
C1511 H1481 0.950 . S
C1511 C1506 1.363 . S
C1511 C1510 1.415 . S
H1512 C1509 0.999 1_545 S
H1513 C1494 0.913 . S
H1514 C1532 0.951 . S
H1515 C1534 0.951 . S
H1516 C1536 0.950 . S
H1517 C1537 0.950 . S
H1518 C1539 0.950 . S
H1519 C1542 0.950 . S
H1520 C1543 0.950 . S
H1521 C1545 0.950 . S
H1522 C1546 0.950 . S
H1523 C1547 0.951 . S
H1524 C1549 0.951 . S
H1525 C1551 0.950 . S
H1526 C1552 0.950 . S
H1527 C1554 0.950 . S
H1528 C1557 0.950 . S
H1529 C1558 0.950 . S
H1530 C1560 0.950 . S
H1531 C1561 0.950 . S
C1532 H1514 0.951 . S
C1532 C1533 1.366 . S
C1532 C1534 1.388 . S
C1533 C1532 1.366 . S
C1533 C1537 1.385 . S
C1534 H1515 0.951 . S
C1534 C1532 1.388 . S
C1534 C1535 1.366 . S
C1535 C1534 1.366 . S
C1535 C1536 1.414 . S
C1535 C1538 1.499 . S
C1536 H1516 0.950 . S
C1536 C1535 1.414 . S
C1536 C1537 1.374 . S
C1537 H1517 0.950 . S
C1537 C1533 1.385 . S
C1537 C1536 1.374 . S
C1538 C1535 1.499 . S
C1538 C1539 1.373 . S
C1538 C1540 1.389 . S
C1539 H1518 0.950 . S
C1539 C1538 1.373 . S
C1539 C1555 1.377 . S
C1540 C1538 1.389 . S
C1540 C1541 1.524 . S
C1540 C1554 1.377 . S
C1541 C1540 1.524 . S
C1541 C1542 1.397 . S
C1541 C1546 1.363 . S
C1542 H1519 0.950 . S
C1542 C1541 1.397 . S
C1542 C1543 1.334 . S
C1543 H1520 0.950 . S
C1543 C1542 1.334 . S
C1543 C1544 1.287 . S
C1544 C1543 1.287 . S
C1544 C1545 1.524 . S
C1544 H1563 0.913 . S
C1545 H1521 0.950 . S
C1545 C1544 1.524 . S
C1545 C1546 1.415 . S
C1546 H1522 0.950 . S
C1546 C1541 1.363 . S
C1546 C1545 1.415 . S
C1547 H1523 0.951 . S
C1547 C1548 1.366 . S
C1547 C1549 1.388 1_565 S
C1548 C1547 1.366 . S
C1548 C1552 1.385 . S
C1549 H1524 0.951 . S
C1549 C1547 1.388 1_545 S
C1549 C1550 1.366 . S
C1550 C1549 1.366 . S
C1550 C1551 1.414 . S
C1550 C1553 1.499 . S
C1551 H1525 0.950 . S
C1551 C1550 1.414 . S
C1551 C1552 1.374 1_545 S
C1552 H1526 0.950 . S
C1552 C1548 1.385 . S
C1552 C1551 1.374 1_565 S
C1553 C1550 1.499 . S
C1553 C1554 1.373 . S
C1553 C1555 1.389 . S
C1554 H1527 0.950 . S
C1554 C1540 1.377 . S
C1554 C1553 1.373 . S
C1555 C1539 1.377 . S
C1555 C1553 1.389 . S
C1555 C1556 1.524 . S
C1556 C1555 1.524 . S
C1556 C1557 1.397 . S
C1556 C1561 1.363 . S
C1557 H1528 0.950 . S
C1557 C1556 1.397 . S
C1557 C1558 1.334 . S
C1558 H1529 0.950 . S
C1558 C1557 1.334 . S
C1558 C1559 1.287 . S
C1559 C1558 1.287 . S
C1559 C1560 1.524 . S
C1559 H1562 0.999 . S
C1560 H1530 0.950 . S
C1560 C1559 1.524 . S
C1560 C1561 1.415 . S
C1561 H1531 0.950 . S
C1561 C1556 1.363 . S
C1561 C1560 1.415 . S
H1562 C1559 0.999 . S
H1563 C1544 0.913 . S
H1564 C1582 0.951 . S
H1565 C1584 0.951 . S
H1566 C1586 0.950 . S
H1567 C1587 0.950 . S
H1568 C1589 0.950 . S
H1569 C1592 0.950 . S
H1570 C1593 0.950 . S
H1571 C1595 0.950 . S
H1572 C1596 0.950 . S
H1573 C1597 0.951 . S
H1574 C1599 0.951 . S
H1575 C1601 0.950 . S
H1576 C1602 0.950 . S
H1577 C1604 0.950 . S
H1578 C1607 0.950 . S
H1579 C1608 0.950 . S
H1580 C1610 0.950 . S
H1581 C1611 0.950 . S
C1582 H1564 0.951 . S
C1582 C1583 1.366 . S
C1582 C1584 1.388 . S
C1583 C1582 1.366 . S
C1583 C1587 1.385 . S
C1584 H1565 0.951 . S
C1584 C1582 1.388 . S
C1584 C1585 1.366 . S
C1585 C1584 1.366 . S
C1585 C1586 1.414 . S
C1585 C1588 1.499 . S
C1586 H1566 0.950 . S
C1586 C1585 1.414 . S
C1586 C1587 1.374 . S
C1587 H1567 0.950 . S
C1587 C1583 1.385 . S
C1587 C1586 1.374 . S
C1588 C1585 1.499 . S
C1588 C1589 1.373 . S
C1588 C1590 1.389 . S
C1589 H1568 0.950 . S
C1589 C1588 1.373 . S
C1589 C1605 1.377 . S
C1590 C1588 1.389 . S
C1590 C1591 1.524 . S
C1590 C1604 1.377 . S
C1591 C1590 1.524 . S
C1591 C1592 1.397 . S
C1591 C1596 1.363 . S
C1592 H1569 0.950 . S
C1592 C1591 1.397 . S
C1592 C1593 1.334 . S
C1593 H1570 0.950 . S
C1593 C1592 1.334 . S
C1593 C1594 1.287 . S
C1594 C1593 1.287 . S
C1594 C1595 1.524 . S
C1594 H1613 0.913 . S
C1595 H1571 0.950 . S
C1595 C1594 1.524 . S
C1595 C1596 1.415 . S
C1596 H1572 0.950 . S
C1596 C1591 1.363 . S
C1596 C1595 1.415 . S
C1597 H1573 0.951 . S
C1597 C1598 1.366 1_455 S
C1597 C1599 1.388 . S
C1598 C1597 1.366 1_655 S
C1598 C1602 1.385 . S
C1599 H1574 0.951 . S
C1599 C1597 1.388 . S
C1599 C1600 1.366 . S
C1600 C1599 1.366 . S
C1600 C1601 1.414 1_455 S
C1600 C1603 1.499 . S
C1601 H1575 0.950 . S
C1601 C1600 1.414 1_655 S
C1601 C1602 1.374 . S
C1602 H1576 0.950 . S
C1602 C1598 1.385 . S
C1602 C1601 1.374 . S
C1603 C1600 1.499 . S
C1603 C1604 1.373 . S
C1603 C1605 1.389 . S
C1604 H1577 0.950 . S
C1604 C1590 1.377 . S
C1604 C1603 1.373 . S
C1605 C1589 1.377 . S
C1605 C1603 1.389 . S
C1605 C1606 1.524 . S
C1606 C1605 1.524 . S
C1606 C1607 1.397 . S
C1606 C1611 1.363 . S
C1607 H1578 0.950 . S
C1607 C1606 1.397 . S
C1607 C1608 1.334 . S
C1608 H1579 0.950 . S
C1608 C1607 1.334 . S
C1608 C1609 1.287 . S
C1609 C1608 1.287 . S
C1609 C1610 1.524 . S
C1609 H1612 0.999 . S
C1610 H1580 0.950 . S
C1610 C1609 1.524 . S
C1610 C1611 1.415 . S
C1611 H1581 0.950 . S
C1611 C1606 1.363 . S
C1611 C1610 1.415 . S
H1612 C1609 0.999 . S
H1613 C1594 0.913 . S
H1614 C1632 0.957 1_565 S
H1615 C1634 0.951 . S
H1616 C1636 0.950 . S
H1617 C1637 0.950 . S
H1618 C1639 0.950 . S
H1619 C1642 0.950 . S
H1620 C1643 0.950 . S
H1621 C1645 0.950 . S
H1622 C1646 0.950 . S
H1623 C1647 0.951 . S
H1624 C1649 0.937 1_455 S
H1625 C1651 0.950 . S
H1626 C1652 0.950 . S
H1627 C1654 0.950 . S
H1628 C1657 0.950 . S
H1629 C1658 0.950 . S
H1630 C1660 0.950 . S
H1631 C1661 0.950 . S
C1632 H1614 0.957 1_545 S
C1632 C1633 1.366 1_545 S
C1632 C1634 1.388 . S
C1633 C1632 1.366 1_565 S
C1633 C1637 1.385 . S
C1634 H1615 0.951 . S
C1634 C1632 1.388 . S
C1634 C1635 1.366 . S
C1635 C1634 1.366 . S
C1635 C1636 1.414 . S
C1635 C1638 1.499 . S
C1636 H1616 0.950 . S
C1636 C1635 1.414 . S
C1636 C1637 1.374 1_545 S
C1637 H1617 0.950 . S
C1637 C1633 1.385 . S
C1637 C1636 1.374 1_565 S
C1638 C1635 1.499 . S
C1638 C1639 1.373 . S
C1638 C1640 1.389 . S
C1639 H1618 0.950 . S
C1639 C1638 1.373 . S
C1639 C1655 1.377 . S
C1640 C1638 1.389 . S
C1640 C1641 1.524 . S
C1640 C1654 1.377 . S
C1641 C1640 1.524 . S
C1641 C1642 1.397 . S
C1641 C1646 1.363 . S
C1642 H1619 0.950 . S
C1642 C1641 1.397 . S
C1642 C1643 1.334 . S
C1643 H1620 0.950 . S
C1643 C1642 1.334 . S
C1643 C1644 1.287 . S
C1644 C1643 1.287 . S
C1644 C1645 1.524 . S
C1644 H1663 0.913 . S
C1645 H1621 0.950 . S
C1645 C1644 1.524 . S
C1645 C1646 1.415 . S
C1646 H1622 0.950 . S
C1646 C1641 1.363 . S
C1646 C1645 1.415 . S
C1647 H1623 0.951 . S
C1647 C1648 1.366 . S
C1647 C1649 1.377 1_455 S
C1648 C1647 1.366 . S
C1648 C1652 1.385 1_455 S
C1649 H1624 0.937 1_655 S
C1649 C1647 1.377 1_655 S
C1649 C1650 1.390 . S
C1650 C1649 1.390 . S
C1650 C1651 1.414 . S
C1650 C1653 1.499 . S
C1651 H1625 0.950 . S
C1651 C1650 1.414 . S
C1651 C1652 1.374 . S
C1652 H1626 0.950 . S
C1652 C1648 1.385 1_655 S
C1652 C1651 1.374 . S
C1653 C1650 1.499 . S
C1653 C1654 1.373 . S
C1653 C1655 1.389 . S
C1654 H1627 0.950 . S
C1654 C1640 1.377 . S
C1654 C1653 1.373 . S
C1655 C1639 1.377 . S
C1655 C1653 1.389 . S
C1655 C1656 1.524 . S
C1656 C1655 1.524 . S
C1656 C1657 1.397 . S
C1656 C1661 1.363 . S
C1657 H1628 0.950 . S
C1657 C1656 1.397 . S
C1657 C1658 1.334 . S
C1658 H1629 0.950 . S
C1658 C1657 1.334 . S
C1658 C1659 1.287 . S
C1659 C1658 1.287 . S
C1659 C1660 1.524 . S
C1659 H1662 0.999 . S
C1660 H1630 0.950 . S
C1660 C1659 1.524 . S
C1660 C1661 1.415 . S
C1661 H1631 0.950 . S
C1661 C1656 1.363 . S
C1661 C1660 1.415 . S
H1662 C1659 0.999 . S
H1663 C1644 0.913 . S
H1664 C1682 0.951 . S
H1665 C1684 0.951 . S
H1666 C1686 0.950 . S
H1667 C1687 0.950 . S
H1668 C1689 0.950 . S
H1669 C1692 0.950 . S
H1670 C1693 0.950 . S
H1671 C1695 0.950 . S
H1672 C1696 0.950 . S
H1673 C1697 0.951 . S
H1674 C1699 0.951 . S
H1675 C1701 0.950 . S
H1676 C1702 0.950 . S
H1677 C1704 0.950 . S
H1678 C1707 0.950 . S
H1679 C1708 0.950 . S
H1680 C1710 0.950 . S
H1681 C1711 0.950 . S
C1682 H1664 0.951 . S
C1682 C1683 1.366 1_565 S
C1682 C1684 1.388 . S
C1683 C1682 1.366 1_545 S
C1683 C1687 1.385 . S
C1684 H1665 0.951 . S
C1684 C1682 1.388 . S
C1684 C1685 1.366 . S
C1685 C1684 1.366 . S
C1685 C1686 1.414 1_565 S
C1685 C1688 1.499 . S
C1686 H1666 0.950 . S
C1686 C1685 1.414 1_545 S
C1686 C1687 1.374 . S
C1687 H1667 0.950 . S
C1687 C1683 1.385 . S
C1687 C1686 1.374 . S
C1688 C1685 1.499 . S
C1688 C1689 1.373 . S
C1688 C1690 1.389 . S
C1689 H1668 0.950 . S
C1689 C1688 1.373 . S
C1689 C1705 1.377 . S
C1690 C1688 1.389 . S
C1690 C1691 1.524 . S
C1690 C1704 1.377 . S
C1691 C1690 1.524 . S
C1691 C1692 1.397 . S
C1691 C1696 1.363 . S
C1692 H1669 0.950 . S
C1692 C1691 1.397 . S
C1692 C1693 1.334 . S
C1693 H1670 0.950 . S
C1693 C1692 1.334 . S
C1693 C1694 1.287 . S
C1694 C1693 1.287 . S
C1694 C1695 1.524 . S
C1694 H1713 0.913 . S
C1695 H1671 0.950 . S
C1695 C1694 1.524 . S
C1695 C1696 1.415 . S
C1696 H1672 0.950 . S
C1696 C1691 1.363 . S
C1696 C1695 1.415 . S
C1697 H1673 0.951 . S
C1697 C1698 1.366 . S
C1697 C1699 1.388 . S
C1698 C1697 1.366 . S
C1698 C1702 1.385 . S
C1699 H1674 0.951 . S
C1699 C1697 1.388 . S
C1699 C1700 1.366 . S
C1700 C1699 1.366 . S
C1700 C1701 1.414 . S
C1700 C1703 1.499 . S
C1701 H1675 0.950 . S
C1701 C1700 1.414 . S
C1701 C1702 1.374 . S
C1702 H1676 0.950 . S
C1702 C1698 1.385 . S
C1702 C1701 1.374 . S
C1703 C1700 1.499 . S
C1703 C1704 1.373 . S
C1703 C1705 1.389 . S
C1704 H1677 0.950 . S
C1704 C1690 1.377 . S
C1704 C1703 1.373 . S
C1705 C1689 1.377 . S
C1705 C1703 1.389 . S
C1705 C1706 1.524 . S
C1706 C1705 1.524 . S
C1706 C1707 1.397 . S
C1706 C1711 1.363 . S
C1707 H1678 0.950 . S
C1707 C1706 1.397 . S
C1707 C1708 1.334 . S
C1708 H1679 0.950 . S
C1708 C1707 1.334 . S
C1708 C1709 1.287 . S
C1709 C1708 1.287 . S
C1709 C1710 1.524 . S
C1709 H1712 0.999 . S
C1710 H1680 0.950 . S
C1710 C1709 1.524 . S
C1710 C1711 1.415 . S
C1711 H1681 0.950 . S
C1711 C1706 1.363 . S
C1711 C1710 1.415 . S
H1712 C1709 0.999 . S
H1713 C1694 0.913 . S
H1714 C1732 0.951 . S
H1715 C1734 0.951 . S
H1716 C1736 0.950 . S
H1717 C1737 0.950 . S
H1718 C1739 0.950 . S
H1719 C1742 0.950 . S
H1720 C1743 0.950 . S
H1721 C1745 0.950 . S
H1722 C1746 0.950 . S
H1723 C1747 0.951 . S
H1724 C1749 0.951 . S
H1725 C1751 0.950 . S
H1726 C1752 0.950 . S
H1727 C1754 0.950 . S
H1728 C1757 0.950 . S
H1729 C1758 0.950 . S
H1730 C1760 0.950 . S
H1731 C1761 0.950 . S
C1732 H1714 0.951 . S
C1732 C1733 1.366 . S
C1732 C1734 1.388 . S
C1733 C1732 1.366 . S
C1733 C1737 1.385 . S
C1734 H1715 0.951 . S
C1734 C1732 1.388 . S
C1734 C1735 1.366 . S
C1735 C1734 1.366 . S
C1735 C1736 1.414 . S
C1735 C1738 1.499 . S
C1736 H1716 0.950 . S
C1736 C1735 1.414 . S
C1736 C1737 1.374 . S
C1737 H1717 0.950 . S
C1737 C1733 1.385 . S
C1737 C1736 1.374 . S
C1738 C1735 1.499 . S
C1738 C1739 1.373 . S
C1738 C1740 1.389 . S
C1739 H1718 0.950 . S
C1739 C1738 1.373 . S
C1739 C1755 1.377 . S
C1740 C1738 1.389 . S
C1740 C1741 1.524 . S
C1740 C1754 1.377 . S
C1741 C1740 1.524 . S
C1741 C1742 1.397 . S
C1741 C1746 1.363 . S
C1742 H1719 0.950 . S
C1742 C1741 1.397 . S
C1742 C1743 1.334 . S
C1743 H1720 0.950 . S
C1743 C1742 1.334 . S
C1743 C1744 1.287 . S
C1744 C1743 1.287 . S
C1744 C1745 1.524 . S
C1744 H1763 0.913 . S
C1745 H1721 0.950 . S
C1745 C1744 1.524 . S
C1745 C1746 1.415 . S
C1746 H1722 0.950 . S
C1746 C1741 1.363 . S
C1746 C1745 1.415 . S
C1747 H1723 0.951 . S
C1747 C1748 1.366 1_655 S
C1747 C1749 1.388 . S
C1748 C1747 1.366 1_455 S
C1748 C1752 1.385 . S
C1749 H1724 0.951 . S
C1749 C1747 1.388 . S
C1749 C1750 1.366 . S
C1750 C1749 1.366 . S
C1750 C1751 1.414 . S
C1750 C1753 1.499 . S
C1751 H1725 0.950 . S
C1751 C1750 1.414 . S
C1751 C1752 1.374 1_655 S
C1752 H1726 0.950 . S
C1752 C1748 1.385 . S
C1752 C1751 1.374 1_455 S
C1753 C1750 1.499 . S
C1753 C1754 1.373 . S
C1753 C1755 1.389 . S
C1754 H1727 0.950 . S
C1754 C1740 1.377 . S
C1754 C1753 1.373 . S
C1755 C1739 1.377 . S
C1755 C1753 1.389 . S
C1755 C1756 1.524 . S
C1756 C1755 1.524 . S
C1756 C1757 1.397 . S
C1756 C1761 1.363 . S
C1757 H1728 0.950 . S
C1757 C1756 1.397 . S
C1757 C1758 1.334 . S
C1758 H1729 0.950 . S
C1758 C1757 1.334 . S
C1758 C1759 1.287 . S
C1759 C1758 1.287 . S
C1759 C1760 1.524 . S
C1759 H1762 0.999 . S
C1760 H1730 0.950 . S
C1760 C1759 1.524 . S
C1760 C1761 1.415 . S
C1761 H1731 0.950 . S
C1761 C1756 1.363 . S
C1761 C1760 1.415 . S
H1762 C1759 0.999 . S
H1763 C1744 0.913 . S
H1764 C1782 0.951 . S
H1765 C1784 0.951 . S
H1766 C1786 0.950 . S
H1767 C1787 0.950 . S
H1768 C1789 0.950 . S
H1769 C1792 0.950 . S
H1770 C1793 0.950 . S
H1771 C1795 0.950 . S
H1772 C1796 0.950 . S
H1773 C1797 0.951 . S
H1774 C1799 0.951 . S
H1775 C1801 0.950 . S
H1776 C1802 0.950 . S
H1777 C1804 0.950 . S
H1778 C1807 0.950 . S
H1779 C1808 0.950 . S
H1780 C1810 0.950 . S
H1781 C1811 0.950 . S
C1782 H1764 0.951 . S
C1782 C1783 1.366 . S
C1782 C1784 1.388 . S
C1783 C1782 1.366 . S
C1783 C1787 1.385 . S
C1784 H1765 0.951 . S
C1784 C1782 1.388 . S
C1784 C1785 1.366 . S
C1785 C1784 1.366 . S
C1785 C1786 1.414 . S
C1785 C1788 1.499 . S
C1786 H1766 0.950 . S
C1786 C1785 1.414 . S
C1786 C1787 1.374 . S
C1787 H1767 0.950 . S
C1787 C1783 1.385 . S
C1787 C1786 1.374 . S
C1788 C1785 1.499 . S
C1788 C1789 1.373 . S
C1788 C1790 1.389 . S
C1789 H1768 0.950 . S
C1789 C1788 1.373 . S
C1789 C1805 1.377 . S
C1790 C1788 1.389 . S
C1790 C1791 1.524 . S
C1790 C1804 1.377 . S
C1791 C1790 1.524 . S
C1791 C1792 1.397 . S
C1791 C1796 1.363 . S
C1792 H1769 0.950 . S
C1792 C1791 1.397 . S
C1792 C1793 1.334 . S
C1793 H1770 0.950 . S
C1793 C1792 1.334 . S
C1793 C1794 1.287 . S
C1794 C1793 1.287 . S
C1794 C1795 1.524 . S
C1794 H1813 0.913 . S
C1795 H1771 0.950 . S
C1795 C1794 1.524 . S
C1795 C1796 1.415 . S
C1796 H1772 0.950 . S
C1796 C1791 1.363 . S
C1796 C1795 1.415 . S
C1797 H1773 0.951 . S
C1797 C1798 1.366 . S
C1797 C1799 1.388 . S
C1798 C1797 1.366 . S
C1798 C1802 1.385 . S
C1799 H1774 0.951 . S
C1799 C1797 1.388 . S
C1799 C1800 1.366 . S
C1800 C1799 1.366 . S
C1800 C1801 1.414 . S
C1800 C1803 1.499 . S
C1801 H1775 0.950 . S
C1801 C1800 1.414 . S
C1801 C1802 1.374 . S
C1802 H1776 0.950 . S
C1802 C1798 1.385 . S
C1802 C1801 1.374 . S
C1803 C1800 1.499 . S
C1803 C1804 1.373 . S
C1803 C1805 1.389 . S
C1804 H1777 0.950 . S
C1804 C1790 1.377 . S
C1804 C1803 1.373 . S
C1805 C1789 1.377 . S
C1805 C1803 1.389 . S
C1805 C1806 1.524 . S
C1806 C1805 1.524 . S
C1806 C1807 1.397 . S
C1806 C1811 1.363 . S
C1807 H1778 0.950 . S
C1807 C1806 1.397 . S
C1807 C1808 1.334 . S
C1808 H1779 0.950 . S
C1808 C1807 1.334 . S
C1808 C1809 1.287 . S
C1809 C1808 1.287 . S
C1809 C1810 1.524 . S
C1809 H1812 0.999 . S
C1810 H1780 0.950 . S
C1810 C1809 1.524 . S
C1810 C1811 1.415 . S
C1811 H1781 0.950 . S
C1811 C1806 1.363 . S
C1811 C1810 1.415 . S
H1812 C1809 0.999 . S
H1813 C1794 0.913 . S
H1814 C1832 0.951 . S
H1815 C1834 0.951 . S
H1816 C1836 0.950 . S
H1817 C1837 0.950 . S
H1818 C1839 0.950 . S
H1819 C1842 0.950 . S
H1820 C1843 0.950 . S
H1821 C1845 0.950 . S
H1822 C1846 0.950 . S
H1823 C1847 0.951 . S
H1824 C1849 0.951 . S
H1825 C1851 0.950 . S
H1826 C1852 0.950 . S
H1827 C1854 0.950 . S
H1828 C1857 0.950 . S
H1829 C1858 0.950 . S
H1830 C1860 0.950 . S
H1831 C1861 0.950 . S
C1832 H1814 0.951 . S
C1832 C1833 1.366 . S
C1832 C1834 1.388 . S
C1833 C1832 1.366 . S
C1833 C1837 1.385 . S
C1834 H1815 0.951 . S
C1834 C1832 1.388 . S
C1834 C1835 1.366 . S
C1835 C1834 1.366 . S
C1835 C1836 1.414 . S
C1835 C1838 1.499 . S
C1836 H1816 0.950 . S
C1836 C1835 1.414 . S
C1836 C1837 1.374 . S
C1837 H1817 0.950 . S
C1837 C1833 1.385 . S
C1837 C1836 1.374 . S
C1838 C1835 1.499 . S
C1838 C1839 1.373 . S
C1838 C1840 1.389 . S
C1839 H1818 0.950 . S
C1839 C1838 1.373 . S
C1839 C1855 1.377 . S
C1840 C1838 1.389 . S
C1840 C1841 1.524 . S
C1840 C1854 1.377 . S
C1841 C1840 1.524 . S
C1841 C1842 1.397 . S
C1841 C1846 1.363 . S
C1842 H1819 0.950 . S
C1842 C1841 1.397 . S
C1842 C1843 1.334 . S
C1843 H1820 0.950 . S
C1843 C1842 1.334 . S
C1843 C1844 1.287 . S
C1844 C1843 1.287 . S
C1844 C1845 1.524 . S
C1844 H1863 0.913 . S
C1845 H1821 0.950 . S
C1845 C1844 1.524 . S
C1845 C1846 1.415 . S
C1846 H1822 0.950 . S
C1846 C1841 1.363 . S
C1846 C1845 1.415 . S
C1847 H1823 0.951 . S
C1847 C1848 1.366 . S
C1847 C1849 1.388 . S
C1848 C1847 1.366 . S
C1848 C1852 1.385 . S
C1849 H1824 0.951 . S
C1849 C1847 1.388 . S
C1849 C1850 1.366 . S
C1850 C1849 1.366 . S
C1850 C1851 1.414 . S
C1850 C1853 1.499 . S
C1851 H1825 0.950 . S
C1851 C1850 1.414 . S
C1851 C1852 1.374 . S
C1852 H1826 0.950 . S
C1852 C1848 1.385 . S
C1852 C1851 1.374 . S
C1853 C1850 1.499 . S
C1853 C1854 1.373 . S
C1853 C1855 1.389 . S
C1854 H1827 0.950 . S
C1854 C1840 1.377 . S
C1854 C1853 1.373 . S
C1855 C1839 1.377 . S
C1855 C1853 1.389 . S
C1855 C1856 1.524 . S
C1856 C1855 1.524 . S
C1856 C1857 1.397 . S
C1856 C1861 1.363 . S
C1857 H1828 0.950 . S
C1857 C1856 1.397 . S
C1857 C1858 1.334 . S
C1858 H1829 0.950 . S
C1858 C1857 1.334 . S
C1858 C1859 1.287 . S
C1859 C1858 1.287 . S
C1859 C1860 1.524 . S
C1859 H1862 0.999 . S
C1860 H1830 0.950 . S
C1860 C1859 1.524 . S
C1860 C1861 1.415 . S
C1861 H1831 0.950 . S
C1861 C1856 1.363 . S
C1861 C1860 1.415 . S
H1862 C1859 0.999 . S
H1863 C1844 0.913 . S
H1864 C1882 0.951 . S
H1865 C1884 0.951 . S
H1866 C1886 0.950 . S
H1867 C1887 0.950 . S
H1868 C1889 0.950 . S
H1869 C1892 0.950 . S
H1870 C1893 0.950 . S
H1871 C1895 0.950 . S
H1872 C1896 0.950 . S
H1873 C1897 0.951 . S
H1874 C1899 0.951 . S
H1875 C1901 0.950 . S
H1876 C1902 0.950 . S
H1877 C1904 0.950 . S
H1878 C1907 0.950 . S
H1879 C1908 0.950 . S
H1880 C1910 0.950 . S
H1881 C1911 0.950 . S
C1882 H1864 0.951 . S
C1882 C1883 1.366 . S
C1882 C1884 1.388 . S
C1883 C1882 1.366 . S
C1883 C1887 1.385 . S
C1884 H1865 0.951 . S
C1884 C1882 1.388 . S
C1884 C1885 1.366 . S
C1885 C1884 1.366 . S
C1885 C1886 1.414 . S
C1885 C1888 1.499 . S
C1886 H1866 0.950 . S
C1886 C1885 1.414 . S
C1886 C1887 1.374 . S
C1887 H1867 0.950 . S
C1887 C1883 1.385 . S
C1887 C1886 1.374 . S
C1888 C1885 1.499 . S
C1888 C1889 1.373 . S
C1888 C1890 1.389 . S
C1889 H1868 0.950 . S
C1889 C1888 1.373 . S
C1889 C1905 1.377 . S
C1890 C1888 1.389 . S
C1890 C1891 1.524 . S
C1890 C1904 1.377 . S
C1891 C1890 1.524 . S
C1891 C1892 1.397 . S
C1891 C1896 1.363 . S
C1892 H1869 0.950 . S
C1892 C1891 1.397 . S
C1892 C1893 1.334 . S
C1893 H1870 0.950 . S
C1893 C1892 1.334 . S
C1893 C1894 1.287 . S
C1894 C1893 1.287 . S
C1894 C1895 1.524 . S
C1894 H1913 0.913 . S
C1895 H1871 0.950 . S
C1895 C1894 1.524 . S
C1895 C1896 1.415 . S
C1896 H1872 0.950 . S
C1896 C1891 1.363 . S
C1896 C1895 1.415 . S
C1897 H1873 0.951 . S
C1897 C1898 1.366 . S
C1897 C1899 1.388 . S
C1898 C1897 1.366 . S
C1898 C1902 1.385 . S
C1899 H1874 0.951 . S
C1899 C1897 1.388 . S
C1899 C1900 1.366 . S
C1900 C1899 1.366 . S
C1900 C1901 1.414 . S
C1900 C1903 1.499 . S
C1901 H1875 0.950 . S
C1901 C1900 1.414 . S
C1901 C1902 1.374 . S
C1902 H1876 0.950 . S
C1902 C1898 1.385 . S
C1902 C1901 1.374 . S
C1903 C1900 1.499 . S
C1903 C1904 1.373 . S
C1903 C1905 1.389 . S
C1904 H1877 0.950 . S
C1904 C1890 1.377 . S
C1904 C1903 1.373 . S
C1905 C1889 1.377 . S
C1905 C1903 1.389 . S
C1905 C1906 1.524 . S
C1906 C1905 1.524 . S
C1906 C1907 1.397 . S
C1906 C1911 1.363 . S
C1907 H1878 0.950 . S
C1907 C1906 1.397 . S
C1907 C1908 1.334 . S
C1908 H1879 0.950 . S
C1908 C1907 1.334 . S
C1908 C1909 1.287 . S
C1909 C1908 1.287 . S
C1909 C1910 1.524 . S
C1909 H1912 0.999 . S
C1910 H1880 0.950 . S
C1910 C1909 1.524 . S
C1910 C1911 1.415 . S
C1911 H1881 0.950 . S
C1911 C1906 1.363 . S
C1911 C1910 1.415 . S
H1912 C1909 0.999 . S
H1913 C1894 0.913 . S
H1914 C1932 0.951 . S
H1915 C1934 0.951 . S
H1916 C1936 0.950 . S
H1917 C1937 0.950 . S
H1918 C1939 0.950 . S
H1919 C1942 0.950 . S
H1920 C1943 0.950 . S
H1921 C1945 0.950 . S
H1922 C1946 0.950 . S
H1923 C1947 0.951 . S
H1924 C1949 0.951 . S
H1925 C1951 0.950 . S
H1926 C1952 0.950 . S
H1927 C1954 0.950 . S
H1928 C1957 0.950 . S
H1929 C1958 0.950 . S
H1930 C1960 0.950 . S
H1931 C1961 0.950 . S
C1932 H1914 0.951 . S
C1932 C1933 1.366 . S
C1932 C1934 1.388 . S
C1933 C1932 1.366 . S
C1933 C1937 1.385 . S
C1934 H1915 0.951 . S
C1934 C1932 1.388 . S
C1934 C1935 1.366 . S
C1935 C1934 1.366 . S
C1935 C1936 1.414 . S
C1935 C1938 1.499 . S
C1936 H1916 0.950 . S
C1936 C1935 1.414 . S
C1936 C1937 1.374 . S
C1937 H1917 0.950 . S
C1937 C1933 1.385 . S
C1937 C1936 1.374 . S
C1938 C1935 1.499 . S
C1938 C1939 1.373 . S
C1938 C1940 1.389 . S
C1939 H1918 0.950 . S
C1939 C1938 1.373 . S
C1939 C1955 1.377 . S
C1940 C1938 1.389 . S
C1940 C1941 1.524 . S
C1940 C1954 1.377 . S
C1941 C1940 1.524 . S
C1941 C1942 1.397 . S
C1941 C1946 1.363 . S
C1942 H1919 0.950 . S
C1942 C1941 1.397 . S
C1942 C1943 1.334 . S
C1943 H1920 0.950 . S
C1943 C1942 1.334 . S
C1943 C1944 1.287 . S
C1944 C1943 1.287 . S
C1944 C1945 1.524 . S
C1944 H1963 0.913 . S
C1945 H1921 0.950 . S
C1945 C1944 1.524 . S
C1945 C1946 1.415 . S
C1946 H1922 0.950 . S
C1946 C1941 1.363 . S
C1946 C1945 1.415 . S
C1947 H1923 0.951 . S
C1947 C1948 1.366 . S
C1947 C1949 1.388 . S
C1948 C1947 1.366 . S
C1948 C1952 1.385 . S
C1949 H1924 0.951 . S
C1949 C1947 1.388 . S
C1949 C1950 1.366 . S
C1950 C1949 1.366 . S
C1950 C1951 1.414 . S
C1950 C1953 1.499 . S
C1951 H1925 0.950 . S
C1951 C1950 1.414 . S
C1951 C1952 1.374 . S
C1952 H1926 0.950 . S
C1952 C1948 1.385 . S
C1952 C1951 1.374 . S
C1953 C1950 1.499 . S
C1953 C1954 1.373 . S
C1953 C1955 1.389 . S
C1954 H1927 0.950 . S
C1954 C1940 1.377 . S
C1954 C1953 1.373 . S
C1955 C1939 1.377 . S
C1955 C1953 1.389 . S
C1955 C1956 1.524 . S
C1956 C1955 1.524 . S
C1956 C1957 1.397 . S
C1956 C1961 1.363 . S
C1957 H1928 0.950 . S
C1957 C1956 1.397 . S
C1957 C1958 1.334 . S
C1958 H1929 0.950 . S
C1958 C1957 1.334 . S
C1958 C1959 1.287 . S
C1959 C1958 1.287 . S
C1959 C1960 1.524 . S
C1959 H1962 0.999 . S
C1960 H1930 0.950 . S
C1960 C1959 1.524 . S
C1960 C1961 1.415 . S
C1961 H1931 0.950 . S
C1961 C1956 1.363 . S
C1961 C1960 1.415 . S
H1962 C1959 0.999 . S
H1963 C1944 0.913 . S
H1964 C1982 0.951 . S
H1965 C1984 0.951 . S
H1966 C1986 0.950 . S
H1967 C1987 0.950 . S
H1968 C1989 0.950 . S
H1969 C1992 0.950 . S
H1970 C1993 0.950 . S
H1971 C1995 0.950 . S
H1972 C1996 0.950 . S
H1973 C1997 0.951 . S
H1974 C1999 0.951 . S
H1975 C2001 0.950 . S
H1976 C2002 0.950 . S
H1977 C2004 0.950 . S
H1978 C2007 0.950 . S
H1979 C2008 0.950 . S
H1980 C2010 0.950 . S
H1981 C2011 0.950 . S
C1982 H1964 0.951 . S
C1982 C1983 1.366 . S
C1982 C1984 1.388 . S
C1983 C1982 1.366 . S
C1983 C1987 1.385 . S
C1984 H1965 0.951 . S
C1984 C1982 1.388 . S
C1984 C1985 1.366 . S
C1985 C1984 1.366 . S
C1985 C1986 1.414 . S
C1985 C1988 1.499 . S
C1986 H1966 0.950 . S
C1986 C1985 1.414 . S
C1986 C1987 1.374 . S
C1987 H1967 0.950 . S
C1987 C1983 1.385 . S
C1987 C1986 1.374 . S
C1988 C1985 1.499 . S
C1988 C1989 1.373 . S
C1988 C1990 1.389 . S
C1989 H1968 0.950 . S
C1989 C1988 1.373 . S
C1989 C2005 1.377 . S
C1990 C1988 1.389 . S
C1990 C1991 1.524 . S
C1990 C2004 1.377 . S
C1991 C1990 1.524 . S
C1991 C1992 1.397 . S
C1991 C1996 1.363 . S
C1992 H1969 0.950 . S
C1992 C1991 1.397 . S
C1992 C1993 1.334 . S
C1993 H1970 0.950 . S
C1993 C1992 1.334 . S
C1993 C1994 1.287 . S
C1994 C1993 1.287 . S
C1994 C1995 1.524 . S
C1994 H2013 0.913 . S
C1995 H1971 0.950 . S
C1995 C1994 1.524 . S
C1995 C1996 1.415 . S
C1996 H1972 0.950 . S
C1996 C1991 1.363 . S
C1996 C1995 1.415 . S
C1997 H1973 0.951 . S
C1997 C1998 1.366 . S
C1997 C1999 1.388 . S
C1998 C1997 1.366 . S
C1998 C2002 1.385 . S
C1999 H1974 0.951 . S
C1999 C1997 1.388 . S
C1999 C2000 1.366 . S
C2000 C1999 1.366 . S
C2000 C2001 1.414 . S
C2000 C2003 1.499 . S
C2001 H1975 0.950 . S
C2001 C2000 1.414 . S
C2001 C2002 1.374 . S
C2002 H1976 0.950 . S
C2002 C1998 1.385 . S
C2002 C2001 1.374 . S
C2003 C2000 1.499 . S
C2003 C2004 1.373 . S
C2003 C2005 1.389 . S
C2004 H1977 0.950 . S
C2004 C1990 1.377 . S
C2004 C2003 1.373 . S
C2005 C1989 1.377 . S
C2005 C2003 1.389 . S
C2005 C2006 1.524 . S
C2006 C2005 1.524 . S
C2006 C2007 1.397 . S
C2006 C2011 1.363 . S
C2007 H1978 0.950 . S
C2007 C2006 1.397 . S
C2007 C2008 1.334 . S
C2008 H1979 0.950 . S
C2008 C2007 1.334 . S
C2008 C2009 1.287 . S
C2009 C2008 1.287 . S
C2009 C2010 1.524 . S
C2009 H2012 0.999 . S
C2010 H1980 0.950 . S
C2010 C2009 1.524 . S
C2010 C2011 1.415 . S
C2011 H1981 0.950 . S
C2011 C2006 1.363 . S
C2011 C2010 1.415 . S
H2012 C2009 0.999 . S
H2013 C1994 0.913 . S
H2014 C2032 0.951 . S
H2015 C2034 0.951 . S
H2016 C2036 0.950 . S
H2017 C2037 0.950 . S
H2018 C2039 0.950 . S
H2019 C2042 0.950 . S
H2020 C2043 0.950 . S
H2021 C2045 0.950 . S
H2022 C2046 0.950 . S
H2023 C2047 0.951 . S
H2024 C2049 0.951 . S
H2025 C2051 0.950 . S
H2026 C2052 0.950 . S
H2027 C2054 0.950 . S
H2028 C2057 0.950 . S
H2029 C2058 0.950 . S
H2030 C2060 0.950 . S
H2031 C2061 0.950 . S
C2032 H2014 0.951 . S
C2032 C2033 1.366 . S
C2032 C2034 1.388 . S
C2033 C2032 1.366 . S
C2033 C2037 1.385 . S
C2034 H2015 0.951 . S
C2034 C2032 1.388 . S
C2034 C2035 1.366 . S
C2035 C2034 1.366 . S
C2035 C2036 1.414 . S
C2035 C2038 1.499 . S
C2036 H2016 0.950 . S
C2036 C2035 1.414 . S
C2036 C2037 1.374 . S
C2037 H2017 0.950 . S
C2037 C2033 1.385 . S
C2037 C2036 1.374 . S
C2038 C2035 1.499 . S
C2038 C2039 1.373 . S
C2038 C2040 1.389 . S
C2039 H2018 0.950 . S
C2039 C2038 1.373 . S
C2039 C2055 1.377 . S
C2040 C2038 1.389 . S
C2040 C2041 1.524 . S
C2040 C2054 1.377 . S
C2041 C2040 1.524 . S
C2041 C2042 1.397 . S
C2041 C2046 1.363 . S
C2042 H2019 0.950 . S
C2042 C2041 1.397 . S
C2042 C2043 1.334 . S
C2043 H2020 0.950 . S
C2043 C2042 1.334 . S
C2043 C2044 1.287 . S
C2044 C2043 1.287 . S
C2044 C2045 1.524 . S
C2044 H2063 0.913 . S
C2045 H2021 0.950 . S
C2045 C2044 1.524 . S
C2045 C2046 1.415 . S
C2046 H2022 0.950 . S
C2046 C2041 1.363 . S
C2046 C2045 1.415 . S
C2047 H2023 0.951 . S
C2047 C2048 1.366 . S
C2047 C2049 1.388 . S
C2048 C2047 1.366 . S
C2048 C2052 1.385 . S
C2049 H2024 0.951 . S
C2049 C2047 1.388 . S
C2049 C2050 1.366 . S
C2050 C2049 1.366 . S
C2050 C2051 1.414 . S
C2050 C2053 1.499 . S
C2051 H2025 0.950 . S
C2051 C2050 1.414 . S
C2051 C2052 1.374 . S
C2052 H2026 0.950 . S
C2052 C2048 1.385 . S
C2052 C2051 1.374 . S
C2053 C2050 1.499 . S
C2053 C2054 1.373 . S
C2053 C2055 1.389 . S
C2054 H2027 0.950 . S
C2054 C2040 1.377 . S
C2054 C2053 1.373 . S
C2055 C2039 1.377 . S
C2055 C2053 1.389 . S
C2055 C2056 1.524 . S
C2056 C2055 1.524 . S
C2056 C2057 1.397 . S
C2056 C2061 1.363 . S
C2057 H2028 0.950 . S
C2057 C2056 1.397 . S
C2057 C2058 1.334 . S
C2058 H2029 0.950 . S
C2058 C2057 1.334 . S
C2058 C2059 1.287 . S
C2059 C2058 1.287 . S
C2059 C2060 1.524 . S
C2059 H2062 0.999 . S
C2060 H2030 0.950 . S
C2060 C2059 1.524 . S
C2060 C2061 1.415 . S
C2061 H2031 0.950 . S
C2061 C2056 1.363 . S
C2061 C2060 1.415 . S
H2062 C2059 0.999 . S
H2063 C2044 0.913 . S
C283 C117 0.894 . S
C298 C18 0.893 . S
C333 C32 0.893 . S
C348 C15 0.894 . S
C383 C54 0.893 . S
C398 C43 0.894 . S
C433 C65 0.894 . S
C448 C84 0.893 . S
C483 C81 0.894 . S
C498 C106 0.892 1_556 S
C533 C118 0.893 . S
C548 C103 0.894 . S
C583 C169 0.894 . S
C598 C150 0.893 . S
C633 C172 0.893 . S
C648 C191 0.894 . S
C683 C205 0.894 . S
C698 C194 0.893 . S
C733 C227 0.894 . S
C748 C206 0.892 1_554 S
C783 C263 0.894 . S
C798 C228 0.893 . S
C833 C147 0.894 . S
C848 C252 0.893 . S
C883 C257 1.252 . S
C898 C8 1.249 . S
C933 C40 1.249 . S
C948 C139 1.252 . S
C983 C161 1.252 . S
C998 C62 1.249 . S
C1033 C183 1.253 . S
C1048 C74 1.250 . S
C1083 C219 1.253 . S
C1098 C96 1.249 . S
C1133 C120 1.250 . S
C1148 C241 1.252 . S
C1183 C140 1.249 . S
C1198 C37 1.253 . S
C1233 C162 1.250 . S
C1248 C59 1.252 . S
C1283 C73 1.252 . S
C1298 C184 1.249 . S
C1333 C95 1.253 . S
C1348 C208 1.250 . S
C1383 C230 1.250 . S
C1398 C131 1.253 . S
C1433 C260 1.250 . S
C1448 C7 1.252 . S
C1483 C142 0.958 . S
C1498 C10 0.958 . S
C1533 C30 0.957 . S
C1548 C164 0.957 . S
C1583 C186 0.958 . S
C1598 C52 0.958 . S
C1633 C76 0.957 . S
C1648 C216 0.957 . S
C1683 C238 0.957 . S
C1698 C98 0.957 . S
C1733 C250 0.958 . S
C1748 C128 0.958 . S
C1783 C153 0.693 . S
C1798 C21 0.692 . S
C1833 C175 0.692 . S
C1848 C29 0.692 . S
C1883 C197 0.692 . S
C1898 C51 0.693 . S
C1933 C87 0.693 . S
C1948 C213 0.692 . S
C1983 C235 0.693 . S
C1998 C109 0.692 . S
C2033 C249 0.693 . S
C2048 C125 0.692 . S
