# Generated by pormake.
# Topology uou, (4)-cn, num edge types: 1
# Building blocks:
#     Node 0, Type 0, BuildingBlock: NAHDIM_clean_sbu_0, # of connection points: 4
#     Node 1, Type 0, BuildingBlock: NAHDIM_clean_sbu_0, # of connection points: 4
#     Node 2, Type 0, BuildingBlock: NAHDIM_clean_sbu_0, # of connection points: 4
#     Node 3, Type 0, BuildingBlock: NAHDIM_clean_sbu_0, # of connection points: 4
#     Node 4, Type 0, BuildingBlock: NAHDIM_clean_sbu_0, # of connection points: 4
#     Node 5, Type 0, BuildingBlock: NAHDIM_clean_sbu_0, # of connection points: 4
#     Node 6, Type 0, BuildingBlock: NAHDIM_clean_sbu_0, # of connection points: 4
#     Node 7, Type 0, BuildingBlock: NAHDIM_clean_sbu_0, # of connection points: 4
#     Node 8, Type 0, BuildingBlock: NAHDIM_clean_sbu_0, # of connection points: 4
#     Node 9, Type 0, BuildingBlock: NAHDIM_clean_sbu_0, # of connection points: 4
#     Node 10, Type 0, BuildingBlock: NAHDIM_clean_sbu_0, # of connection points: 4
#     Node 11, Type 0, BuildingBlock: NAHDIM_clean_sbu_0, # of connection points: 4
#     Node 12, Type 0, BuildingBlock: NAHDIM_clean_sbu_0, # of connection points: 4
#     Node 13, Type 0, BuildingBlock: NAHDIM_clean_sbu_0, # of connection points: 4
#     Node 14, Type 0, BuildingBlock: NAHDIM_clean_sbu_0, # of connection points: 4
#     Node 15, Type 0, BuildingBlock: NAHDIM_clean_sbu_0, # of connection points: 4
#     Edge 16, Type (0, 0), BuildingBlock: TEMPAE_clean_linker_10, # of connection points: 2
#     Edge 17, Type (0, 0), BuildingBlock: TEMPAE_clean_linker_10, # of connection points: 2
#     Edge 18, Type (0, 0), BuildingBlock: TEMPAE_clean_linker_10, # of connection points: 2
#     Edge 19, Type (0, 0), BuildingBlock: TEMPAE_clean_linker_10, # of connection points: 2
#     Edge 20, Type (0, 0), BuildingBlock: TEMPAE_clean_linker_10, # of connection points: 2
#     Edge 21, Type (0, 0), BuildingBlock: TEMPAE_clean_linker_10, # of connection points: 2
#     Edge 22, Type (0, 0), BuildingBlock: TEMPAE_clean_linker_10, # of connection points: 2
#     Edge 23, Type (0, 0), BuildingBlock: TEMPAE_clean_linker_10, # of connection points: 2
#     Edge 24, Type (0, 0), BuildingBlock: TEMPAE_clean_linker_10, # of connection points: 2
#     Edge 25, Type (0, 0), BuildingBlock: TEMPAE_clean_linker_10, # of connection points: 2
#     Edge 26, Type (0, 0), BuildingBlock: TEMPAE_clean_linker_10, # of connection points: 2
#     Edge 27, Type (0, 0), BuildingBlock: TEMPAE_clean_linker_10, # of connection points: 2
#     Edge 28, Type (0, 0), BuildingBlock: TEMPAE_clean_linker_10, # of connection points: 2
#     Edge 29, Type (0, 0), BuildingBlock: TEMPAE_clean_linker_10, # of connection points: 2
#     Edge 30, Type (0, 0), BuildingBlock: TEMPAE_clean_linker_10, # of connection points: 2
#     Edge 31, Type (0, 0), BuildingBlock: TEMPAE_clean_linker_10, # of connection points: 2
#     Edge 32, Type (0, 0), BuildingBlock: TEMPAE_clean_linker_10, # of connection points: 2
#     Edge 33, Type (0, 0), BuildingBlock: TEMPAE_clean_linker_10, # of connection points: 2
#     Edge 34, Type (0, 0), BuildingBlock: TEMPAE_clean_linker_10, # of connection points: 2
#     Edge 35, Type (0, 0), BuildingBlock: TEMPAE_clean_linker_10, # of connection points: 2
#     Edge 36, Type (0, 0), BuildingBlock: TEMPAE_clean_linker_10, # of connection points: 2
#     Edge 37, Type (0, 0), BuildingBlock: TEMPAE_clean_linker_10, # of connection points: 2
#     Edge 38, Type (0, 0), BuildingBlock: TEMPAE_clean_linker_10, # of connection points: 2
#     Edge 39, Type (0, 0), BuildingBlock: TEMPAE_clean_linker_10, # of connection points: 2
#     Edge 40, Type (0, 0), BuildingBlock: TEMPAE_clean_linker_10, # of connection points: 2
#     Edge 41, Type (0, 0), BuildingBlock: TEMPAE_clean_linker_10, # of connection points: 2
#     Edge 42, Type (0, 0), BuildingBlock: TEMPAE_clean_linker_10, # of connection points: 2
#     Edge 43, Type (0, 0), BuildingBlock: TEMPAE_clean_linker_10, # of connection points: 2
#     Edge 44, Type (0, 0), BuildingBlock: TEMPAE_clean_linker_10, # of connection points: 2
#     Edge 45, Type (0, 0), BuildingBlock: TEMPAE_clean_linker_10, # of connection points: 2
#     Edge 46, Type (0, 0), BuildingBlock: TEMPAE_clean_linker_10, # of connection points: 2
#     Edge 47, Type (0, 0), BuildingBlock: TEMPAE_clean_linker_10, # of connection points: 2
# Relax obj value: 0.108
# Max RMSD: 0.148
# Mean RMSD: 0.148
data_MOF--net-uou--node1-NAHDIM_clean_sbu_0--edge1-TEMPAE_clean_linker_10
_symmetry_space_group_name_H-M    P1
_symmetry_Int_Tables_number       1
_symmetry_cell_setting            triclinic
loop_
_symmetry_equiv_pos_as_xyz
'x, y, z'
_cell_length_a     40.511447
_cell_length_b     39.860407
_cell_length_c     51.171743
_cell_angle_alpha  90.016727
_cell_angle_beta   90.071911
_cell_angle_gamma 90.009888
loop_
_atom_site_label
_atom_site_type_symbol
_atom_site_fract_x
_atom_site_fract_y
_atom_site_fract_z
_atom_type_partial_charge
C0 C 0.11146 0.98945 0.12853 0.0
O1 O 0.08774 0.9682 0.13424 0.0
O2 O 0.03693 0.01251 0.15583 0.0
Zn3 Zn 0.05539 0.02965 0.12214 0.0
O4 O 0.03403 0.0074 0.09143 0.0
C5 C 0.01662 0.08809 0.1159 0.0
O6 O 0.99479 0.06468 0.11059 0.0
O7 O 0.10384 0.01922 0.12198 0.0
C8 C 0.0421 0.01779 0.06888 0.0
O9 O 0.06412 0.04188 0.0669 0.0
C10 C 0.00786 0.00142 0.15921 0.0
O11 O 0.98757 0.99956 0.13922 0.0
O12 O 0.04615 0.0794 0.12101 0.0
C13 C 0.3518 0.93025 0.14814 0.0
O14 O 0.369 0.94828 0.16478 0.0
O15 O 0.43507 0.93202 0.16367 0.0
Zn16 Zn 0.41657 0.91173 0.13089 0.0
O17 O 0.42912 0.93911 0.09988 0.0
C18 C 0.46705 0.86282 0.13121 0.0
O19 O 0.4837 0.88954 0.13847 0.0
O20 O 0.36688 0.91113 0.13225 0.0
C21 C 0.41898 0.92927 0.07769 0.0
O22 O 0.40138 0.90164 0.07619 0.0
C23 C 0.45208 0.95877 0.16473 0.0
O24 O 0.4583 0.97545 0.14316 0.0
O25 O 0.43629 0.8656 0.1266 0.0
C26 C 0.64911 0.95342 0.38713 0.0
O27 O 0.62295 0.97177 0.39217 0.0
O28 O 0.58495 0.93423 0.33593 0.0
Zn29 Zn 0.59782 0.9125 0.36964 0.0
O30 O 0.57019 0.93043 0.39885 0.0
C31 C 0.5591 0.85739 0.35797 0.0
O32 O 0.53951 0.88304 0.35351 0.0
O33 O 0.64521 0.9245 0.37704 0.0
C34 C 0.56719 0.9141 0.42 0.0
O35 O 0.58055 0.88417 0.4219 0.0
C36 C 0.56958 0.96184 0.33366 0.0
O37 O 0.56176 0.97893 0.35471 0.0
O38 O 0.58837 0.86306 0.36589 0.0
C39 C 0.87278 0.06144 0.40098 0.0
O40 O 0.8964 0.04602 0.41382 0.0
O41 O 0.94193 0.07615 0.3472 0.0
Zn42 Zn 0.92822 0.09718 0.38093 0.0
O43 O 0.95468 0.07843 0.41068 0.0
C44 C 0.96807 0.15248 0.37279 0.0
O45 O 0.98805 0.12693 0.36919 0.0
O46 O 0.88011 0.086 0.38619 0.0
C47 C 0.95829 0.09577 0.43133 0.0
O48 O 0.94607 0.12628 0.43219 0.0
C49 C 0.93874 0.04521 0.34181 0.0
O50 O 0.92688 0.02466 0.35953 0.0
O51 O 0.938 0.1466 0.37825 0.0
C52 C 0.83064 0.96919 0.86557 0.0
O53 O 0.85731 0.98796 0.86601 0.0
O54 O 0.90467 0.9372 0.83619 0.0
Zn55 Zn 0.88074 0.92107 0.86827 0.0
O56 O 0.90234 0.94004 0.90032 0.0
C57 C 0.89734 0.85303 0.85299 0.0
O58 O 0.90432 0.86729 0.83053 0.0
O59 O 0.83387 0.93748 0.86654 0.0
C60 C 0.92928 0.92711 0.90812 0.0
O61 O 0.9422 0.9022 0.89478 0.0
C62 C 0.92779 0.95875 0.83648 0.0
O63 O 0.93696 0.97222 0.85876 0.0
O64 O 0.88473 0.87066 0.87114 0.0
C65 C 0.60331 0.07204 0.85918 0.0
O66 O 0.58881 0.07927 0.8369 0.0
O67 O 0.51711 0.06142 0.84791 0.0
Zn68 Zn 0.53736 0.07984 0.88062 0.0
O69 O 0.51926 0.05446 0.91088 0.0
C70 C 0.51792 0.14578 0.86401 0.0
O71 O 0.51994 0.13154 0.84091 0.0
O72 O 0.58644 0.07236 0.8801 0.0
C73 C 0.48943 0.0576 0.91802 0.0
O74 O 0.46998 0.07831 0.90529 0.0
C75 C 0.52434 0.03297 0.83832 0.0
O76 O 0.54581 0.01373 0.85041 0.0
O77 O 0.52534 0.12875 0.88419 0.0
C78 C 0.37376 0.06676 0.63214 0.0
O79 O 0.38852 0.0741 0.65429 0.0
O80 O 0.45995 0.05818 0.64284 0.0
Zn81 Zn 0.43929 0.07479 0.60976 0.0
O82 O 0.45641 0.04783 0.57976 0.0
C83 C 0.47037 0.13521 0.58906 0.0
O84 O 0.48309 0.11443 0.57189 0.0
O85 O 0.39033 0.06706 0.61107 0.0
C86 C 0.48579 0.03681 0.57896 0.0
O87 O 0.50629 0.04414 0.59804 0.0
C88 C 0.45389 0.0296 0.6527 0.0
O89 O 0.43332 0.00922 0.64075 0.0
O90 O 0.45047 0.12401 0.60617 0.0
C91 C 0.13946 0.98139 0.62582 0.0
O92 O 0.11542 0.00299 0.62219 0.0
O93 O 0.06243 0.9489 0.65931 0.0
Zn94 Zn 0.08387 0.93947 0.62467 0.0
O95 O 0.06502 0.96805 0.59573 0.0
C96 C 0.04435 0.88397 0.61243 0.0
O97 O 0.02295 0.90866 0.61315 0.0
O98 O 0.13244 0.95035 0.62749 0.0
C99 C 0.03681 0.98197 0.59522 0.0
O100 O 0.01648 0.97802 0.61495 0.0
C101 C 0.05416 0.97715 0.66877 0.0
O102 O 0.05931 0.00467 0.65527 0.0
O103 O 0.07467 0.89053 0.61653 0.0
C104 C 0.6576 0.53589 0.08286 0.0
O105 O 0.63141 0.51742 0.07806 0.0
O106 O 0.59188 0.55362 0.12925 0.0
Zn107 Zn 0.60586 0.57783 0.09673 0.0
O108 O 0.57949 0.56201 0.06588 0.0
C109 C 0.57223 0.63469 0.11629 0.0
O110 O 0.55524 0.61029 0.12706 0.0
O111 O 0.6535 0.56582 0.09088 0.0
C112 C 0.57232 0.58173 0.04722 0.0
O113 O 0.58147 0.6133 0.04855 0.0
C114 C 0.57384 0.52761 0.13055 0.0
O115 O 0.56329 0.51343 0.10892 0.0
O116 O 0.59701 0.62744 0.10208 0.0
C117 C 0.87704 0.42032 0.10072 0.0
O118 O 0.9004 0.42188 0.08298 0.0
O119 O 0.9377 0.40844 0.17022 0.0
Zn120 Zn 0.93067 0.3969 0.13254 0.0
O121 O 0.95987 0.42646 0.11094 0.0
C122 C 0.93749 0.32565 0.14286 0.0
O123 O 0.92492 0.33386 0.16564 0.0
O124 O 0.88384 0.40855 0.12319 0.0
C125 C 0.98416 0.41613 0.09752 0.0
O126 O 0.9925 0.38431 0.09855 0.0
C127 C 0.9645 0.40117 0.18178 0.0
O128 O 0.98772 0.38528 0.16883 0.0
O129 O 0.94119 0.34824 0.12559 0.0
C130 C 0.13645 0.46537 0.3681 0.0
O131 O 0.1159 0.46422 0.34824 0.0
O132 O 0.04998 0.46782 0.36838 0.0
Zn133 Zn 0.07779 0.44971 0.39751 0.0
O134 O 0.06399 0.46986 0.43154 0.0
C135 C 0.06598 0.38494 0.37599 0.0
O136 O 0.07185 0.40155 0.35431 0.0
O137 O 0.12568 0.45958 0.39097 0.0
C138 C 0.06897 0.45424 0.45281 0.0
O139 O 0.08333 0.42469 0.45219 0.0
C140 C 0.02052 0.45703 0.36689 0.0
O141 O 0.00843 0.43991 0.38663 0.0
O142 O 0.0692 0.3999 0.39781 0.0
C143 C 0.37618 0.52578 0.34378 0.0
O144 O 0.39816 0.50185 0.34075 0.0
O145 O 0.45014 0.5443 0.3079 0.0
Zn146 Zn 0.43496 0.56262 0.34236 0.0
O147 O 0.45608 0.53792 0.3721 0.0
C148 C 0.46972 0.62371 0.33013 0.0
O149 O 0.48282 0.60446 0.31207 0.0
O150 O 0.38601 0.55602 0.345 0.0
C151 C 0.48467 0.54575 0.38027 0.0
O152 O 0.50116 0.56962 0.36835 0.0
C153 C 0.46754 0.51814 0.30454 0.0
O154 O 0.47632 0.50006 0.32485 0.0
O155 O 0.4477 0.6116 0.34513 0.0
C156 C 0.3529 0.49053 0.8718 0.0
O157 O 0.37811 0.51048 0.87618 0.0
O158 O 0.42316 0.45389 0.82873 0.0
Zn159 Zn 0.40602 0.44532 0.86495 0.0
O160 O 0.43148 0.47099 0.89217 0.0
C161 C 0.44265 0.38664 0.87051 0.0
O162 O 0.4653 0.40949 0.86601 0.0
O163 O 0.35833 0.45975 0.86677 0.0
C164 C 0.45963 0.48444 0.88903 0.0
O165 O 0.47458 0.48194 0.86635 0.0
C166 C 0.42531 0.48194 0.81707 0.0
O167 O 0.41628 0.50948 0.82921 0.0
O168 O 0.41259 0.39578 0.87162 0.0
C169 C 0.11964 0.57838 0.87194 0.0
O170 O 0.10343 0.5806 0.84975 0.0
O171 O 0.03813 0.55661 0.86226 0.0
Zn172 Zn 0.05422 0.58103 0.89402 0.0
O173 O 0.03949 0.55718 0.92638 0.0
C174 C 0.00382 0.62951 0.89077 0.0
O175 O 0.98663 0.60158 0.89135 0.0
O176 O 0.10379 0.58013 0.8933 0.0
C177 C 0.0563 0.56008 0.94724 0.0
O178 O 0.08231 0.57977 0.94737 0.0
C179 C 0.01397 0.53634 0.86114 0.0
O180 O -0.00239 0.52893 0.88253 0.0
O181 O 0.03511 0.62779 0.8926 0.0
C182 C 0.85596 0.57917 0.60969 0.0
O183 O 0.87594 0.57594 0.58964 0.0
O184 O 0.92713 0.58078 0.67335 0.0
Zn185 Zn 0.91643 0.59447 0.6368 0.0
O186 O 0.94045 0.56429 0.61208 0.0
C187 C 0.94476 0.65243 0.6106 0.0
O188 O 0.94608 0.63207 0.59044 0.0
O189 O 0.86765 0.58861 0.63154 0.0
C190 C 0.97168 0.5617 0.61231 0.0
O191 O 0.98881 0.57888 0.62954 0.0
C192 C 0.9286 0.55025 0.68037 0.0
O193 O 0.92308 0.52652 0.66308 0.0
O194 O 0.93182 0.64218 0.63179 0.0
C195 C 0.62565 0.48366 0.60284 0.0
O196 O 0.59985 0.50329 0.5999 0.0
O197 O 0.55104 0.45676 0.63604 0.0
Zn198 Zn 0.57325 0.43876 0.60397 0.0
O199 O 0.55443 0.45897 0.57134 0.0
C200 C 0.53845 0.37884 0.59395 0.0
O201 O 0.51685 0.40149 0.58652 0.0
O202 O 0.62102 0.45227 0.60543 0.0
C203 C 0.56646 0.44842 0.54995 0.0
O204 O 0.58957 0.4253 0.55063 0.0
C205 C 0.52116 0.46634 0.63692 0.0
O206 O 0.5031 0.46537 0.61559 0.0
O207 O 0.56632 0.38856 0.60261 0.0
C208 C 0.29833 0.92348 0.12417 0.0
C209 C 0.3157 0.93512 0.1461 0.0
C210 C 0.26472 0.93088 0.12083 0.0
C211 C 0.24809 0.95004 0.14003 0.0
C212 C 0.26522 0.96088 0.16262 0.0
C213 C 0.29887 0.95342 0.16532 0.0
C214 C 0.24726 0.91904 0.09643 0.0
C215 C 0.24818 0.981 0.18368 0.0
C216 C 0.17172 0.99975 0.12135 0.0
C217 C 0.14639 0.979 0.13067 0.0
C218 C 0.20494 0.99031 0.12386 0.0
C219 C 0.21297 0.95959 0.13621 0.0
C220 C 0.18752 0.93844 0.14549 0.0
C221 C 0.15451 0.94833 0.14249 0.0
C222 C 0.23146 0.01336 0.1135 0.0
C223 C 0.19517 0.90566 0.15899 0.0
H224 H 0.31122 0.90945 0.10918 0.0
H225 H 0.3121 0.96235 0.18239 0.0
H226 H 0.22505 0.90424 0.10167 0.0
H227 H 0.23875 0.94101 0.08494 0.0
H228 H 0.26341 0.90338 0.08383 0.0
H229 H 0.26461 0.98611 0.20062 0.0
H230 H 0.23969 0.00532 0.17555 0.0
H231 H 0.22601 0.96743 0.19073 0.0
H232 H 0.1656 0.0234 0.11209 0.0
H233 H 0.13508 0.9322 0.14982 0.0
H234 H 0.2474 0.99967 0.09947 0.0
H235 H 0.24749 0.02192 0.12979 0.0
H236 H 0.22105 0.03577 0.10356 0.0
H237 H 0.2102 0.88942 0.14603 0.0
H238 H 0.17248 0.89178 0.16463 0.0
H239 H 0.20999 0.91045 0.17686 0.0
C240 C 0.7101 0.95396 0.37937 0.0
C241 C 0.68231 0.96758 0.39171 0.0
C242 C 0.74116 0.96926 0.38189 0.0
C243 C 0.74444 0.99854 0.39739 0.0
C244 C 0.71667 0.01167 0.41061 0.0
C245 C 0.6859 0.99614 0.40748 0.0
C246 C 0.77026 0.95467 0.3674 0.0
C247 C 0.71933 0.04251 0.42765 0.0
C248 C 0.8306 0.02259 0.41956 0.0
C249 C 0.83896 0.04754 0.40139 0.0
C250 C 0.7997 0.00679 0.41877 0.0
C251 C 0.77674 0.01599 0.3992 0.0
C252 C 0.78472 0.04167 0.38116 0.0
C253 C 0.81571 0.05728 0.38256 0.0
C254 C 0.79186 0.97986 0.43856 0.0
C255 C 0.76082 0.05206 0.35998 0.0
H256 H 0.70741 0.93196 0.3671 0.0
H257 H 0.66453 0.00661 0.41726 0.0
H258 H 0.77976 0.97327 0.35314 0.0
H259 H 0.79062 0.94908 0.38125 0.0
H260 H 0.76378 0.9313 0.35674 0.0
H261 H 0.69574 0.04845 0.43769 0.0
H262 H 0.73883 0.03895 0.44263 0.0
H263 H 0.72658 0.06442 0.41559 0.0
H264 H 0.84841 0.01504 0.43425 0.0
H265 H 0.82206 0.07643 0.36839 0.0
H266 H 0.7879 0.95556 0.42847 0.0
H267 H 0.76865 0.98605 0.449 0.0
H268 H 0.81189 0.97666 0.4532 0.0
H269 H 0.7553 0.0303 0.34716 0.0
H270 H 0.77062 0.07279 0.34773 0.0
H271 H 0.73715 0.06027 0.36878 0.0
C272 C 0.76898 0.96525 0.86272 0.0
C273 C 0.79761 0.98498 0.86399 0.0
C274 C 0.73761 0.98013 0.86137 0.0
C275 C 0.73483 0.01555 0.86137 0.0
C276 C 0.76362 0.03558 0.8625 0.0
C277 C 0.79465 0.02006 0.86377 0.0
C278 C 0.70742 0.95795 0.86013 0.0
C279 C 0.76163 0.07342 0.86259 0.0
C280 C 0.6549 0.05378 0.83633 0.0
C281 C 0.63786 0.05993 0.8597 0.0
C282 C 0.68665 0.03965 0.83657 0.0
C283 C 0.70173 0.03164 0.86075 0.0
C284 C 0.685 0.03854 0.8844 0.0
C285 C 0.65327 0.05256 0.88359 0.0
C286 C 0.70378 0.03266 0.81095 0.0
C287 C 0.70038 0.03056 0.91058 0.0
H288 H 0.77105 0.93814 0.86281 0.0
H289 H 0.81663 0.03553 0.86473 0.0
H290 H 0.69142 0.96278 0.8773 0.0
H291 H 0.69274 0.96393 0.84241 0.0
H292 H 0.71383 0.93086 0.85975 0.0
H293 H 0.78639 0.08539 0.8631 0.0
H294 H 0.74833 0.08231 0.84494 0.0
H295 H 0.74739 0.08205 0.87983 0.0
H296 H 0.64317 0.05931 0.81778 0.0
H297 H 0.64033 0.05729 0.90175 0.0
H298 H 0.70833 0.00533 0.80894 0.0
H299 H 0.72816 0.04531 0.81051 0.0
H300 H 0.68909 0.04125 0.79387 0.0
H301 H 0.70493 0.00318 0.91211 0.0
H302 H 0.68451 0.03839 0.92718 0.0
H303 H 0.72463 0.04329 0.91243 0.0
C304 C 0.20026 0.97099 0.6308 0.0
C305 C 0.17392 0.9935 0.62782 0.0
C306 C 0.23296 0.98259 0.63228 0.0
C307 C 0.23938 0.01748 0.63076 0.0
C308 C 0.21287 0.04029 0.62803 0.0
C309 C 0.18051 0.02804 0.62658 0.0
C310 C 0.26067 0.95754 0.63516 0.0
C311 C 0.21872 0.07767 0.62635 0.0
C312 C 0.32138 0.05154 0.65524 0.0
C313 C 0.33899 0.0553 0.63184 0.0
C314 C 0.28897 0.03905 0.65522 0.0
C315 C 0.27385 0.03019 0.63124 0.0
C316 C 0.29141 0.03415 0.60755 0.0
C317 C 0.32374 0.04667 0.60814 0.0
C318 C 0.27093 0.03525 0.68086 0.0
C319 C 0.27605 0.02511 0.58157 0.0
H320 H 0.19536 0.94429 0.63181 0.0
H321 H 0.16033 0.04566 0.62435 0.0
H322 H 0.27743 0.95921 0.61808 0.0
H323 H 0.27554 0.96344 0.6528 0.0
H324 H 0.2515 0.93136 0.63675 0.0
H325 H 0.19533 0.0921 0.62493 0.0
H326 H 0.23253 0.08643 0.6438 0.0
H327 H 0.23406 0.08347 0.60899 0.0
H328 H 0.33301 0.05803 0.67365 0.0
H329 H 0.33716 0.04944 0.58995 0.0
H330 H 0.2634 0.00873 0.68364 0.0
H331 H 0.24807 0.05057 0.68063 0.0
H332 H 0.28625 0.04306 0.69782 0.0
H333 H 0.26858 0.99833 0.58157 0.0
H334 H 0.29314 0.02942 0.56494 0.0
H335 H 0.2534 0.0402 0.57836 0.0
C336 C 0.83837 0.45281 0.07215 0.0
C337 C 0.84438 0.43566 0.09564 0.0
C338 C 0.8085 0.46983 0.06796 0.0
C339 C 0.78408 0.46959 0.08769 0.0
C340 C 0.7897 0.45175 0.1112 0.0
C341 C 0.81979 0.43501 0.11489 0.0
C342 C 0.8033 0.48851 0.04262 0.0
C343 C 0.76411 0.45076 0.13263 0.0
C344 C 0.71855 0.53754 0.09125 0.0
C345 C 0.69082 0.52058 0.08152 0.0
C346 C 0.74942 0.52159 0.09258 0.0
C347 C 0.75254 0.48798 0.08392 0.0
C348 C 0.72495 0.47127 0.07306 0.0
C349 C 0.69443 0.48776 0.07201 0.0
C350 C 0.77838 0.54025 0.10418 0.0
C351 C 0.72735 0.4355 0.06348 0.0
H352 H 0.85726 0.4535 0.05718 0.0
H353 H 0.8242 0.42182 0.13308 0.0
H354 H 0.78057 0.47944 0.03279 0.0
H355 H 0.79981 0.51563 0.04666 0.0
H356 H 0.82443 0.48555 0.02899 0.0
H357 H 0.77214 0.43535 0.14958 0.0
H358 H 0.7589 0.47658 0.13959 0.0
H359 H 0.74063 0.44033 0.12497 0.0
H360 H 0.71596 0.56291 0.09858 0.0
H361 H 0.67318 0.47453 0.06427 0.0
H362 H 0.79979 0.53927 0.0907 0.0
H363 H 0.78604 0.52803 0.12269 0.0
H364 H 0.77247 0.56694 0.10831 0.0
H365 H 0.74801 0.43291 0.04942 0.0
H366 H 0.70424 0.42693 0.05385 0.0
H367 H 0.73267 0.41859 0.08018 0.0
C368 C 0.31719 0.54261 0.35033 0.0
C369 C 0.34075 0.51736 0.3463 0.0
C370 C 0.28366 0.53469 0.35336 0.0
C371 C 0.27351 0.50073 0.35234 0.0
C372 C 0.2971 0.47517 0.348 0.0
C373 C 0.33043 0.48379 0.34504 0.0
C374 C 0.25914 0.56261 0.35794 0.0
C375 C 0.28717 0.43867 0.34677 0.0
C376 C 0.19325 0.47625 0.38533 0.0
C377 C 0.17155 0.47417 0.364 0.0
C378 C 0.22647 0.48501 0.3818 0.0
C379 C 0.23828 0.49181 0.35633 0.0
C380 C 0.21656 0.48971 0.33471 0.0
C381 C 0.18343 0.48091 0.3388 0.0
C382 C 0.24894 0.48696 0.40533 0.0
C383 C 0.22834 0.49673 0.30726 0.0
H384 H 0.32496 0.56861 0.3513 0.0
H385 H 0.34845 0.46411 0.3419 0.0
H386 H 0.23958 0.5619 0.34276 0.0
H387 H 0.24688 0.55909 0.37712 0.0
H388 H 0.27093 0.58777 0.35765 0.0
H389 H 0.30846 0.42191 0.3427 0.0
H390 H 0.27585 0.43101 0.36557 0.0
H391 H 0.26832 0.43491 0.3313 0.0
H392 H 0.18428 0.47111 0.40487 0.0
H393 H 0.16684 0.47937 0.32222 0.0
H394 H 0.25973 0.51246 0.40689 0.0
H395 H 0.26973 0.46908 0.40306 0.0
H396 H 0.23583 0.48113 0.42384 0.0
H397 H 0.23856 0.52251 0.30607 0.0
H398 H 0.20827 0.4942 0.29258 0.0
H399 H 0.24852 0.47916 0.30204 0.0
C400 C 0.17256 0.56624 0.8486 0.0
C401 C 0.15506 0.56924 0.87212 0.0
C402 C 0.20518 0.5544 0.84831 0.0
C403 C 0.22058 0.54521 0.87211 0.0
C404 C 0.20336 0.54899 0.89597 0.0
C405 C 0.17085 0.56107 0.8957 0.0
C406 C 0.22293 0.55104 0.82251 0.0
C407 C 0.21898 0.53943 0.92173 0.0
C408 C 0.29154 0.48301 0.86947 0.0
C409 C 0.31895 0.50423 0.87206 0.0
C410 C 0.25934 0.49603 0.86951 0.0
C411 C 0.25451 0.53108 0.87202 0.0
C412 C 0.28207 0.55261 0.87458 0.0
C413 C 0.31395 0.53891 0.87465 0.0
C414 C 0.23047 0.47229 0.8669 0.0
C415 C 0.2779 0.59012 0.87716 0.0
H416 H 0.16057 0.57255 0.8303 0.0
H417 H 0.15752 0.56325 0.91398 0.0
H418 H 0.24661 0.565 0.82312 0.0
H419 H 0.22893 0.5243 0.81883 0.0
H420 H 0.20798 0.56059 0.80588 0.0
H421 H 0.20259 0.54477 0.93862 0.0
H422 H 0.225 0.51228 0.92173 0.0
H423 H 0.24248 0.55328 0.9245 0.0
H424 H 0.29522 0.4562 0.86749 0.0
H425 H 0.33499 0.55553 0.87657 0.0
H426 H 0.2157 0.47883 0.84936 0.0
H427 H 0.214 0.47478 0.8841 0.0
H428 H 0.2384 0.44569 0.86526 0.0
H429 H 0.26441 0.6001 0.85995 0.0
H430 H 0.30192 0.60341 0.8788 0.0
H431 H 0.2629 0.59601 0.89469 0.0
C432 C 0.68691 0.47808 0.60819 0.0
C433 C 0.65927 0.4982 0.60308 0.0
C434 C 0.71878 0.49194 0.60877 0.0
C435 C 0.72305 0.52667 0.60399 0.0
C436 C 0.69528 0.54703 0.59858 0.0
C437 C 0.66373 0.53257 0.59824 0.0
C438 C 0.74785 0.46948 0.6147 0.0
C439 C 0.69888 0.58413 0.59329 0.0
C440 C 0.80099 0.56765 0.63001 0.0
C441 C 0.82112 0.56819 0.60772 0.0
C442 C 0.76888 0.55454 0.62899 0.0
C443 C 0.75654 0.54181 0.60508 0.0
C444 C 0.77637 0.54311 0.58235 0.0
C445 C 0.80845 0.55625 0.58394 0.0
C446 C 0.74842 0.55364 0.65364 0.0
C447 C 0.76391 0.53002 0.55645 0.0
H448 H 0.68366 0.45153 0.61195 0.0
H449 H 0.64253 0.5483 0.59417 0.0
H450 H 0.76591 0.47053 0.59844 0.0
H451 H 0.76068 0.47843 0.63256 0.0
H452 H 0.74038 0.44294 0.61771 0.0
H453 H 0.67486 0.59633 0.58888 0.0
H454 H 0.71004 0.59674 0.61049 0.0
H455 H 0.71576 0.58821 0.57653 0.0
H456 H 0.81055 0.57681 0.64848 0.0
H457 H 0.8238 0.55663 0.56661 0.0
H458 H 0.74241 0.52727 0.6587 0.0
H459 H 0.7247 0.56695 0.65051 0.0
H460 H 0.76134 0.56532 0.67051 0.0
H461 H 0.75864 0.50278 0.55802 0.0
H462 H 0.78195 0.53396 0.54041 0.0
H463 H 0.74043 0.54263 0.55115 0.0
C464 C 0.95575 0.05624 0.29588 0.0
C465 C 0.94731 0.03307 0.31537 0.0
C466 C 0.96386 0.04566 0.27064 0.0
C467 C 0.96377 0.01098 0.2647 0.0
C468 C 0.95506 0.98737 0.28416 0.0
C469 C 0.94682 0.99873 0.30933 0.0
C470 C 0.97287 0.07169 0.25038 0.0
C471 C 0.95489 0.95021 0.27848 0.0
C472 C 0.96205 0.99681 0.19171 0.0
C473 C 0.99591 0.99612 0.18615 0.0
C474 C 0.95086 0.99883 0.21761 0.0
C475 C 0.97415 -2e-05 0.23826 0.0
C476 C 0.00815 0.99608 0.23281 0.0
C477 C 0.01864 0.99429 0.20679 0.0
C478 C 0.91436 0.00273 0.22267 0.0
C479 C 0.03375 0.99677 0.25429 0.0
H480 H 0.95599 0.08283 0.3003 0.0
H481 H 0.94027 0.9807 0.32431 0.0
H482 H -0.00137 0.0677 0.24374 0.0
H483 H 0.95661 0.06917 0.23303 0.0
H484 H 0.9707 0.09771 0.25798 0.0
H485 H 0.94599 0.93524 0.29537 0.0
H486 H 0.93897 0.94481 0.26134 0.0
H487 H 0.98021 0.9418 0.27346 0.0
H488 H 0.94434 0.99798 0.17584 0.0
H489 H 0.04485 0.99316 0.20261 0.0
H490 H 0.90896 0.02933 0.22746 0.0
H491 H 0.90659 0.9873 0.23961 0.0
H492 H 0.89933 0.99552 0.20538 0.0
H493 H 0.03632 0.02279 0.26176 0.0
H494 H 0.0583 0.98821 0.24731 0.0
H495 H 0.02607 0.98073 0.27091 0.0
C496 C 0.45848 0.95199 0.2128 0.0
C497 C 0.46734 0.96877 0.18979 0.0
C498 C 0.47553 0.95762 0.23617 0.0
C499 C 0.5021 0.98067 0.23657 0.0
C500 C 0.50977 0.99941 0.21388 0.0
C501 C 0.49227 0.99319 0.19066 0.0
C502 C 0.46642 0.93725 0.26 0.0
C503 C 0.53766 0.0245 0.21369 0.0
C504 C 0.53278 0.99693 0.30529 0.0
C505 C 0.55668 0.97166 0.30774 0.0
C506 C 0.51637 0.00218 0.28145 0.0
C507 C 0.52406 0.98156 0.25977 0.0
C508 C 0.55003 0.95795 0.26161 0.0
C509 C 0.56606 0.95335 0.28556 0.0
C510 C 0.48923 0.02804 0.28004 0.0
C511 C 0.55917 0.93561 0.23888 0.0
H512 H 0.43889 0.93345 0.21239 0.0
H513 H 0.49908 0.00646 0.17298 0.0
H514 H 0.48672 0.91954 0.26469 0.0
H515 H 0.46306 0.95388 0.27718 0.0
H516 H 0.4434 0.92256 0.25706 0.0
H517 H 0.53654 0.0412 0.19634 0.0
H518 H 0.53727 0.04015 0.23162 0.0
H519 H 0.56158 0.01095 0.21335 0.0
H520 H 0.52565 0.01144 0.32229 0.0
H521 H 0.58492 0.93416 0.28717 0.0
H522 H 0.46492 0.01526 0.28082 0.0
H523 H 0.49037 0.04212 0.26136 0.0
H524 H 0.4906 0.04614 0.29652 0.0
H525 H 0.53886 0.91752 0.23514 0.0
H526 H 0.58217 0.9212 0.24263 0.0
H527 H 0.56254 0.95067 0.22087 0.0
C528 C 0.03864 0.95058 0.71103 0.0
C529 C 0.03738 0.97843 0.69434 0.0
C530 C 0.02142 0.95035 0.73473 0.0
C531 C 0.00212 0.97851 0.74176 0.0
C532 C 0.00126 0.00703 0.72529 0.0
C533 C 0.01913 0.00674 0.70179 0.0
C534 C 0.0233 0.91962 0.75195 0.0
C535 C 0.98066 0.03735 0.73209 0.0
C536 C 0.93218 0.95747 0.78787 0.0
C537 C 0.94552 0.96687 0.81208 0.0
C538 C 0.94976 0.96263 0.76466 0.0
C539 C 0.98163 0.97712 0.76575 0.0
C540 C 0.9948 0.98768 0.79003 0.0
C541 C 0.97646 0.98261 0.81294 0.0
C542 C 0.93472 0.95144 0.73908 0.0
C543 C 0.02885 0.00291 0.79195 0.0
H544 H 0.05296 0.92874 0.70548 0.0
H545 H 0.01801 0.0283 0.68891 0.0
H546 H 0.03088 0.9268 0.77203 0.0
H547 H -0.00142 0.90778 0.75336 0.0
H548 H 0.041 0.90068 0.7444 0.0
H549 H 0.98412 0.0582 0.71796 0.0
H550 H 0.95416 0.03031 0.73232 0.0
H551 H 0.987 0.0465 0.75195 0.0
H552 H 0.90812 0.94559 0.78707 0.0
H553 H 0.9869 0.98991 0.8316 0.0
H554 H 0.94907 0.93009 0.73105 0.0
H555 H 0.9358 0.97204 0.72453 0.0
H556 H 0.90861 0.94341 0.74131 0.0
H557 H 0.0476 0.9838 0.78666 0.0
H558 H 0.03438 0.0123 0.81192 0.0
H559 H 0.03142 0.02397 0.77793 0.0
C560 C 0.45204 0.99677 0.69436 0.0
C561 C 0.46703 0.02143 0.67885 0.0
C562 C 0.46139 0.99241 0.72058 0.0
C563 C 0.48639 0.01308 0.73131 0.0
C564 C 0.50309 0.03639 0.71518 0.0
C565 C 0.49311 0.04036 0.68918 0.0
C566 C 0.44312 0.96724 0.73718 0.0
C567 C 0.53018 0.05863 0.7258 0.0
C568 C 0.48508 0.04185 0.80155 0.0
C569 C 0.51154 0.02382 0.81225 0.0
C570 C 0.47531 0.03694 0.7756 0.0
C571 C 0.49258 0.01359 0.75989 0.0
C572 C 0.51803 0.99385 0.77099 0.0
C573 C 0.52718 0.99914 0.79715 0.0
C574 C 0.44776 0.05823 0.76457 0.0
C575 C 0.53693 0.96867 0.75484 0.0
H576 H 0.43191 0.982 0.68644 0.0
H577 H 0.50511 0.05913 0.67715 0.0
H578 H 0.46061 0.95244 0.74925 0.0
H579 H 0.42638 0.98069 0.75075 0.0
H580 H 0.42812 0.94972 0.72515 0.0
H581 H 0.54288 0.07294 0.71012 0.0
H582 H 0.51956 0.07678 0.73992 0.0
H583 H 0.54879 0.04345 0.73643 0.0
H584 H 0.47261 0.06065 0.81324 0.0
H585 H 0.54761 0.98507 0.80535 0.0
H586 H 0.4295 0.04231 0.7542 0.0
H587 H 0.458 0.07619 0.75013 0.0
H588 H 0.43473 0.07273 0.77998 0.0
H589 H 0.51982 0.95311 0.743 0.0
H590 H 0.55232 0.95188 0.76717 0.0
H591 H 0.55338 0.98214 0.74106 0.0
C592 C 0.57289 0.53255 0.17906 0.0
C593 C 0.56148 0.51659 0.15635 0.0
C594 C 0.55806 0.52657 0.20329 0.0
C595 C 0.53127 0.5039 0.20491 0.0
C596 C 0.52125 0.48576 0.18247 0.0
C597 C 0.53645 0.49239 0.15835 0.0
C598 C 0.5696 0.54636 0.22678 0.0
C599 C 0.49312 0.46098 0.18357 0.0
C600 C 0.50461 0.48572 0.2745 0.0
C601 C 0.48056 0.5106 0.27819 0.0
C602 C 0.52006 0.48162 0.25014 0.0
C603 C 0.51126 0.503 0.22917 0.0
C604 C 0.48559 0.5267 0.23241 0.0
C605 C 0.47052 0.53015 0.25684 0.0
C606 C 0.54704 0.45578 0.24729 0.0
C607 C 0.47539 0.54996 0.21051 0.0
H608 H 0.59254 0.55093 0.17778 0.0
H609 H 0.52771 0.4797 0.14093 0.0
H610 H 0.55018 0.56455 0.23254 0.0
H611 H 0.57387 0.52946 0.24366 0.0
H612 H 0.59271 0.56047 0.22282 0.0
H613 H 0.49219 0.44484 0.16588 0.0
H614 H 0.49525 0.44474 0.2011 0.0
H615 H 0.46941 0.47478 0.18507 0.0
H616 H 0.51232 0.47032 0.29086 0.0
H617 H 0.45166 0.54915 0.25942 0.0
H618 H 0.57137 0.46856 0.24692 0.0
H619 H 0.54438 0.44189 0.22862 0.0
H620 H 0.54703 0.43752 0.26369 0.0
H621 H 0.49592 0.56749 0.20605 0.0
H622 H 0.45318 0.56497 0.21554 0.0
H623 H 0.47014 0.53545 0.19248 0.0
C624 C 0.01595 0.47491 0.32034 0.0
C625 C 0.00475 0.45477 0.34094 0.0
C626 C 0.00635 0.46833 0.29451 0.0
C627 C 0.98542 0.4407 0.28922 0.0
C628 C 0.97251 0.42149 0.3101 0.0
C629 C 0.98215 0.42893 0.33577 0.0
C630 C 0.02026 0.48966 0.27277 0.0
C631 C 0.95042 0.3916 0.30524 0.0
C632 C 0.94726 0.4327 0.22175 0.0
C633 C 0.96947 0.41083 0.2094 0.0
C634 C 0.95203 0.44261 0.24779 0.0
C635 C 0.97949 0.43012 0.26181 0.0
C636 C 0.00174 0.40768 0.24958 0.0
C637 C -0.00345 0.39844 0.22346 0.0
C638 C 0.92788 0.46663 0.26022 0.0
C639 C 0.03111 0.3935 0.26408 0.0
H640 H 0.03337 0.49495 0.32428 0.0
H641 H 0.97361 0.41305 0.35157 0.0
H642 H 0.03809 0.47466 0.26119 0.0
H643 H 0.00031 0.49774 0.2593 0.0
H644 H 0.03315 0.51229 0.2803 0.0
H645 H 0.93918 0.38199 0.32356 0.0
H646 H 0.93038 0.39813 0.29135 0.0
H647 H 0.96508 0.37109 0.29629 0.0
H648 H 0.92628 0.44242 0.21098 0.0
H649 H 0.01369 0.38139 0.21408 0.0
H650 H 0.94095 0.48971 0.26656 0.0
H651 H 0.91692 0.45511 0.27793 0.0
H652 H 0.90762 0.47384 0.24669 0.0
H653 H 0.04752 0.41418 0.27057 0.0
H654 H 0.04571 0.37586 0.25189 0.0
H655 H 0.02274 0.38005 0.28187 0.0
C656 C 0.5265 0.47952 0.68443 0.0
C657 C 0.50632 0.47542 0.66236 0.0
C658 C 0.5128 0.48442 0.70927 0.0
C659 C 0.47808 0.48504 0.71212 0.0
C660 C 0.45758 0.48259 0.68977 0.0
C661 C 0.47197 0.47791 0.66509 0.0
C662 C 0.5355 0.48723 0.73261 0.0
C663 C 0.42043 0.4831 0.69208 0.0
C664 C 0.44565 0.45324 0.77688 0.0
C665 C 0.4381 0.48316 0.79001 0.0
C666 C 0.45814 0.45361 0.75139 0.0
C667 C 0.46338 0.48468 0.73869 0.0
C668 C 0.45557 0.51502 0.75168 0.0
C669 C 0.44294 0.5139 0.77723 0.0
C670 C 0.4661 0.42069 0.73817 0.0
C671 C 0.46097 0.54858 0.73872 0.0
H672 H 0.5531 0.47801 0.68243 0.0
H673 H 0.45622 0.47487 0.64812 0.0
H674 H 0.52862 0.50917 0.74479 0.0
H675 H 0.53295 0.46453 0.74499 0.0
H676 H 0.5618 0.48976 0.72681 0.0
H677 H 0.40811 0.48451 0.67271 0.0
H678 H 0.41198 0.45998 0.70213 0.0
H679 H 0.41232 0.50475 0.70409 0.0
H680 H 0.44188 0.42935 0.78655 0.0
H681 H 0.43715 0.53712 0.78724 0.0
H682 H 0.49284 0.41955 0.73359 0.0
H683 H 0.4525 0.41871 0.7194 0.0
H684 H 0.45967 0.39869 0.75048 0.0
H685 H 0.48758 0.55198 0.73434 0.0
H686 H 0.45262 0.56981 0.75113 0.0
H687 H 0.44753 0.54958 0.71984 0.0
C688 C 0.96812 0.51757 0.83184 0.0
C689 C 0.00138 0.5263 0.83523 0.0
C690 C 0.95441 0.51511 0.80669 0.0
C691 C 0.97458 0.52133 0.78464 0.0
C692 C 0.00881 0.52699 0.78798 0.0
C693 C 0.02177 0.52952 0.81327 0.0
C694 C 0.91786 0.50875 0.80388 0.0
C695 C 0.03126 0.53329 0.76496 0.0
C696 C 0.9455 0.5088 0.71472 0.0
C697 C 0.93771 0.54185 0.70756 0.0
C698 C 0.95641 0.50129 0.74013 0.0
C699 C 0.95944 0.52746 0.75867 0.0
C700 C 0.95033 0.56059 0.7518 0.0
C701 C 0.93966 0.56737 0.72634 0.0
C702 C 0.96586 0.46569 0.74681 0.0
C703 C 0.95298 0.58921 0.77109 0.0
H704 H 0.95228 0.51488 0.84877 0.0
H705 H 0.04764 0.53572 0.81582 0.0
H706 H 0.90518 0.5327 0.79922 0.0
H707 H 0.91286 0.49108 0.7876 0.0
H708 H 0.90698 0.49845 0.82211 0.0
H709 H 0.05775 0.53259 0.77059 0.0
H710 H 0.02694 0.51443 0.74939 0.0
H711 H 0.02581 0.55836 0.75656 0.0
H712 H 0.94394 0.48893 0.7003 0.0
H713 H 0.93334 0.59291 0.72105 0.0
H714 H 0.9545 0.458 0.7656 0.0
H715 H 0.99302 0.46403 0.74928 0.0
H716 H 0.95825 0.44767 0.73137 0.0
H717 H 0.93945 0.58303 0.7893 0.0
H718 H 0.94299 0.61306 0.76312 0.0
H719 H 0.97924 0.59323 0.77644 0.0
C720 C 0.97344 0.13255 0.1119 0.0
C721 C 0.00616 0.12365 0.11765 0.0
C722 C 0.96236 0.16565 0.11499 0.0
C723 C 0.98451 0.1905 0.12408 0.0
C724 C 0.01777 0.18189 0.12938 0.0
C725 C 0.02823 0.14855 0.12607 0.0
C726 C 0.92673 0.17387 0.10904 0.0
C727 C 0.04212 0.20774 0.13908 0.0
C728 C 0.96201 0.28206 0.11342 0.0
C729 C 0.94894 0.29093 0.13785 0.0
C730 C 0.97377 0.24949 0.10866 0.0
C731 C 0.97253 0.22525 0.12884 0.0
C732 C 0.95935 0.23403 0.15353 0.0
C733 C 0.94766 0.26673 0.15772 0.0
C734 C 0.98751 0.24101 0.08205 0.0
C735 C 0.95765 0.20886 0.17555 0.0
H736 H 0.95622 0.11353 0.1053 0.0
H737 H 0.05355 0.14189 0.13055 0.0
H738 H 0.91419 0.18255 0.12707 0.0
H739 H 0.92533 0.19463 0.09464 0.0
H740 H 0.91301 0.15196 0.10114 0.0
H741 H 0.06738 0.19729 0.14135 0.0
H742 H 0.04315 0.22924 0.12535 0.0
H743 H 0.0339 0.21767 0.15826 0.0
H744 H 0.96314 0.30059 0.09795 0.0
H745 H 0.93772 0.27337 0.17668 0.0
H746 H 0.97317 0.22016 0.07324 0.0
H747 H 0.01342 0.23232 0.08393 0.0
H748 H 0.98688 0.26277 0.06849 0.0
H749 H 0.94237 0.18706 0.16958 0.0
H750 H 0.947 0.21977 0.19366 0.0
H751 H 0.98272 0.19925 0.18003 0.0
C752 C 0.51556 0.82562 0.13953 0.0
C753 C 0.48406 0.83013 0.12865 0.0
C754 C 0.53196 0.79471 0.13765 0.0
C755 C 0.51669 0.76781 0.12423 0.0
C756 C 0.48512 0.77237 0.11283 0.0
C757 C 0.46906 0.80342 0.11536 0.0
C758 C 0.56534 0.79065 0.15044 0.0
C759 C 0.4682 0.74436 0.09813 0.0
C760 C 0.56861 0.6942 0.10076 0.0
C761 C 0.56073 0.66966 0.11934 0.0
C762 C 0.55477 0.72649 0.10224 0.0
C763 C 0.53306 0.73444 0.12303 0.0
C764 C 0.5261 0.7101 0.14238 0.0
C765 C 0.5398 0.67794 0.14017 0.0
C766 C 0.5625 0.75172 0.08112 0.0
C767 C 0.50361 0.71778 0.16514 0.0
H768 H 0.52726 0.84613 0.14993 0.0
H769 H 0.44482 0.80682 0.10676 0.0
H770 H 0.56406 0.77088 0.16567 0.0
H771 H 0.58383 0.78242 0.13582 0.0
H772 H 0.57416 0.81426 0.15965 0.0
H773 H 0.44442 0.75245 0.08934 0.0
H774 H 0.48451 0.73493 0.08235 0.0
H775 H 0.46334 0.72306 0.11154 0.0
H776 H 0.58461 0.68782 0.08454 0.0
H777 H 0.53384 0.65911 0.15471 0.0
H778 H 0.57231 0.77514 0.0899 0.0
H779 H 0.53952 0.75839 0.0705 0.0
H780 H 0.58076 0.74203 0.06681 0.0
H781 H 0.51232 0.74054 0.17557 0.0
H782 H 0.50228 0.69672 0.17931 0.0
H783 H 0.47833 0.7231 0.15789 0.0
C784 C 0.47389 0.67653 0.35647 0.0
C785 C 0.4823 0.65823 0.33403 0.0
C786 C 0.48691 0.70869 0.36086 0.0
C787 C 0.50859 0.72298 0.34225 0.0
C788 C 0.51694 0.70475 0.31946 0.0
C789 C 0.5038 0.67255 0.31569 0.0
C790 C 0.47757 0.72735 0.38545 0.0
C791 C 0.53966 0.71932 0.29901 0.0
C792 C 0.51659 0.81776 0.34091 0.0
C793 C 0.54678 0.82284 0.3538 0.0
C794 C 0.50401 0.7854 0.33692 0.0
C795 C 0.52189 0.75738 0.34626 0.0
C796 C 0.55239 0.76226 0.3593 0.0
C797 C 0.56458 0.79498 0.3628 0.0
C798 C 0.47158 0.78122 0.32267 0.0
C799 C 0.57201 0.73294 0.36966 0.0
H800 H 0.45746 0.66556 0.37082 0.0
H801 H 0.51038 0.65859 0.29827 0.0
H802 H 0.5001 0.73393 0.39668 0.0
H803 H 0.46501 0.75119 0.38033 0.0
H804 H 0.46095 0.71246 0.39823 0.0
H805 H 0.54376 0.70184 0.28241 0.0
H806 H 0.52913 0.74302 0.29128 0.0
H807 H 0.5639 0.72551 0.30789 0.0
H808 H 0.50274 0.83914 0.33375 0.0
H809 H 0.58786 0.79874 0.37285 0.0
H810 H 0.45347 0.76838 0.33547 0.0
H811 H 0.47508 0.76521 0.30516 0.0
H812 H 0.46093 0.8056 0.31637 0.0
H813 H 0.55689 0.7185 0.3838 0.0
H814 H 0.59516 0.74098 0.37951 0.0
H815 H 0.57843 0.71567 0.35344 0.0
C816 C 0.03888 0.33849 0.35126 0.0
C817 C 0.05183 0.3508 0.37483 0.0
C818 C 0.02382 0.30685 0.35003 0.0
C819 C 0.022 0.28691 0.37287 0.0
C820 C 0.03504 0.29919 0.39671 0.0
C821 C 0.04967 0.33109 0.39743 0.0
C822 C 0.00989 0.29476 0.3243 0.0
C823 C 0.03371 0.27856 0.42144 0.0
C824 C 0.96074 0.2148 0.37685 0.0
C825 C 0.98113 0.18715 0.3717 0.0
C826 C 0.97357 0.24756 0.37688 0.0
C827 C 0.00753 0.25268 0.37169 0.0
C828 C 0.02806 0.22492 0.36604 0.0
C829 C 0.01461 0.19253 0.36609 0.0
C830 C 0.95092 0.27665 0.38285 0.0
C831 C 0.06439 0.22936 0.36037 0.0
H832 H 0.04001 0.35382 0.33378 0.0
H833 H 0.05953 0.34054 0.41571 0.0
H834 H 0.02296 0.27168 0.31802 0.0
H835 H 0.98344 0.2882 0.32659 0.0
H836 H 0.01217 0.31388 0.30861 0.0
H837 H 0.04448 0.29198 0.43846 0.0
H838 H 0.00776 0.27193 0.42603 0.0
H839 H 0.04737 0.25471 0.41861 0.0
H840 H 0.93485 0.21085 0.38116 0.0
H841 H 0.03056 0.17135 0.36201 0.0
H842 H 0.95204 0.29543 0.36688 0.0
H843 H 0.95916 0.28937 0.401 0.0
H844 H 0.92487 0.26859 0.38538 0.0
H845 H 0.06779 0.24673 0.34366 0.0
H846 H 0.0768 0.20523 0.35574 0.0
H847 H 0.07686 0.24078 0.37752 0.0
C848 C 0.9529 0.66267 0.88103 0.0
C849 C 0.98689 0.662 0.88642 0.0
C850 C 0.93654 0.69293 0.87573 0.0
C851 C 0.95453 0.72335 0.87598 0.0
C852 C 0.98874 0.72295 0.88178 0.0
C853 C 0.00454 0.69226 0.88685 0.0
C854 C 0.90009 0.6923 0.86949 0.0
C855 C 0.0087 0.75494 0.88238 0.0
C856 C 0.92236 0.79878 0.8384 0.0
C857 C 0.90883 0.81843 0.85846 0.0
C858 C 0.93668 0.76745 0.84376 0.0
C859 C 0.93768 0.75557 0.86982 0.0
C860 C 0.92324 0.77483 0.89005 0.0
C861 C 0.90888 0.80597 0.88411 0.0
C862 C 0.95149 0.74745 0.82161 0.0
C863 C 0.92384 0.76301 0.91808 0.0
H864 H 0.93904 0.63942 0.88057 0.0
H865 H 0.03078 0.69197 0.89103 0.0
H866 H 0.88645 0.70858 0.88335 0.0
H867 H 0.89582 0.70247 0.84959 0.0
H868 H 0.88958 0.66659 0.87046 0.0
H869 H 0.03488 0.75045 0.88784 0.0
H870 H 0.00802 0.76714 0.86291 0.0
H871 H -0.00221 0.77282 0.89658 0.0
H872 H 0.92237 0.80816 0.81853 0.0
H873 H 0.89861 0.82101 0.89976 0.0
H874 H 0.94076 0.72185 0.82118 0.0
H875 H 0.97846 0.74468 0.8247 0.0
H876 H 0.94732 0.75947 0.8023 0.0
H877 H 0.91257 0.73772 0.91961 0.0
H878 H 0.91045 0.78033 0.93136 0.0
H879 H 0.94977 0.76085 0.92489 0.0
C880 C 0.48592 0.34219 0.87222 0.0
C881 C 0.45236 0.3509 0.87262 0.0
C882 C 0.49596 0.30856 0.87236 0.0
C883 C 0.47187 0.28288 0.87291 0.0
C884 C 0.43795 0.29142 0.87409 0.0
C885 C 0.42857 0.32539 0.87395 0.0
C886 C 0.53237 0.30051 0.87116 0.0
C887 C 0.41158 0.26468 0.87478 0.0
C888 C 0.49796 0.19931 0.84405 0.0
C889 C 0.50588 0.18074 0.86648 0.0
C890 C 0.48626 0.23234 0.84593 0.0
C891 C 0.48233 0.2472 0.87086 0.0
C892 C 0.48992 0.22852 0.89361 0.0
C893 C 0.50165 0.19551 0.89115 0.0
C894 C 0.47854 0.25149 0.8212 0.0
C895 C 0.48603 0.24355 0.92052 0.0
H896 H 0.50452 0.36171 0.87137 0.0
H897 H 0.4026 0.33191 0.87431 0.0
H898 H 0.53933 0.28365 0.88751 0.0
H899 H 0.53796 0.28707 0.8527 0.0
H900 H 0.548 0.32338 0.87214 0.0
H901 H 0.38648 0.2754 0.87732 0.0
H902 H 0.41207 0.2501 0.85631 0.0
H903 H 0.41644 0.24682 0.89096 0.0
H904 H 0.50103 0.1881 0.8249 0.0
H905 H 0.50754 0.18129 0.90859 0.0
H906 H 0.49488 0.27375 0.81972 0.0
H907 H 0.45273 0.26076 0.8217 0.0
H908 H 0.48184 0.23593 0.80338 0.0
H909 H 0.50276 0.26542 0.92269 0.0
H910 H 0.49166 0.22525 0.93627 0.0
H911 H 0.46044 0.25284 0.92319 0.0
C912 C 0.50106 0.1837 0.56965 0.0
C913 C 0.48052 0.17094 0.58935 0.0
C914 C 0.51156 0.21727 0.57002 0.0
C915 C 0.50141 0.23855 0.59065 0.0
C916 C 0.48077 0.22582 0.61063 0.0
C917 C 0.47048 0.19221 0.60969 0.0
C918 C 0.53335 0.23002 0.54825 0.0
C919 C 0.46953 0.24773 0.633 0.0
C920 C 0.55001 0.31839 0.6042 0.0
C921 C 0.52983 0.34277 0.59257 0.0
C922 C 0.54117 0.28429 0.60364 0.0
C923 C 0.51162 0.2744 0.59097 0.0
C924 C 0.49144 0.29885 0.57886 0.0
C925 C 0.50073 0.33271 0.57989 0.0
C926 C 0.56321 0.25891 0.61689 0.0
C927 C 0.45989 0.28928 0.56497 0.0
H928 H 0.50896 0.16746 0.55386 0.0
H929 H 0.45475 0.18255 0.62507 0.0
H930 H 0.52094 0.25101 0.53794 0.0
H931 H 0.55675 0.23998 0.55644 0.0
H932 H 0.53933 0.21016 0.53377 0.0
H933 H 0.45413 0.2338 0.6473 0.0
H934 H 0.49125 0.25828 0.64337 0.0
H935 H 0.45498 0.26919 0.62538 0.0
H936 H 0.57249 0.32598 0.61407 0.0
H937 H 0.48505 0.35135 0.57072 0.0
H938 H 0.5711 0.23953 0.60265 0.0
H939 H 0.54933 0.24588 0.63258 0.0
H940 H 0.58555 0.27061 0.6256 0.0
H941 H 0.46517 0.27065 0.54942 0.0
H942 H 0.44739 0.31125 0.55599 0.0
H943 H 0.4426 0.27731 0.57894 0.0
C944 C -0.00041 0.84373 0.60089 0.0
C945 C 0.03236 0.84919 0.60874 0.0
C946 C 0.98639 0.81129 0.59954 0.0
C947 C 0.00637 0.78353 0.6063 0.0
C948 C 0.03983 0.78869 0.61335 0.0
C949 C 0.0525 0.82153 0.61442 0.0
C950 C 0.95067 0.80687 0.59171 0.0
C951 C 0.06188 0.75965 0.62069 0.0
C952 C 0.96073 0.7069 0.63143 0.0
C953 C 0.96026 0.68609 0.60932 0.0
C954 C 0.97618 0.73839 0.6308 0.0
C955 C 0.9915 0.74943 0.60748 0.0
C956 C 0.99122 0.72855 0.58511 0.0
C957 C 0.97561 0.69711 0.58629 0.0
C958 C 0.97589 0.75997 0.65507 0.0
C959 C 0.00716 0.73954 0.55987 0.0
H960 H 0.98392 0.86495 0.59622 0.0
H961 H 0.07783 0.82557 0.62049 0.0
H962 H 0.9486 0.78847 0.57553 0.0
H963 H 0.93642 0.79676 0.60846 0.0
H964 H 0.93911 0.83081 0.5854 0.0
H965 H 0.08786 0.7676 0.62389 0.0
H966 H 0.05263 0.7478 0.63888 0.0
H967 H 0.06135 0.74022 0.60517 0.0
H968 H 0.94907 0.69858 0.64934 0.0
H969 H 0.9755 0.68115 0.56914 0.0
H970 H 0.96256 0.78374 0.65108 0.0
H971 H 0.00151 0.76668 0.66071 0.0
H972 H 0.96387 0.74727 0.67187 0.0
H973 H 0.99493 0.76259 0.55252 0.0
H974 H 0.00571 0.71993 0.54447 0.0
H975 H 0.0335 0.74583 0.56328 0.0
C976 C 0.97533 0.92523 0.9406 0.0
C977 C 0.94607 0.94016 0.93168 0.0
C978 C 0.99152 0.93729 0.96294 0.0
C979 C 0.97812 0.96496 0.97662 0.0
C980 C 0.94862 0.98017 0.96772 0.0
C981 C 0.93292 0.96757 0.94535 0.0
C982 C 0.02294 0.92044 0.97191 0.0
C983 C 0.93366 0.00977 0.98183 0.0
C984 C 0.00249 0.9783 0.04744 0.0
C985 C 0.02625 0.00375 0.04525 0.0
C986 C 0.98677 0.96528 0.02522 0.0
C987 C 0.99499 0.97806 0.00027 0.0
C988 C 0.01909 0.00357 -0.0021 0.0
C989 C 0.03446 0.0161 0.02044 0.0
C990 C 0.96119 0.93802 0.02845 0.0
C991 C 0.02846 0.01778 0.97157 0.0
H992 H 0.98563 0.90402 0.93016 0.0
H993 H 0.91033 0.97927 0.93855 0.0
H994 H 0.04346 0.93887 0.97222 0.0
H995 H 0.01991 0.91096 0.99214 0.0
H996 H 0.03007 0.89914 0.9591 0.0
H997 H 0.91059 0.01872 0.97236 0.0
H998 H 0.92803 0.00285 0.00235 0.0
H999 H 0.95157 0.03081 0.98244 0.0
H1000 H 0.99603 0.96861 0.06655 0.0
H1001 H 0.05279 0.03576 0.01859 0.0
H1002 H 0.96838 0.91557 0.01698 0.0
H1003 H 0.93706 0.94673 0.02075 0.0
H1004 H 0.95796 0.93051 0.0492 0.0
H1005 H 0.03745 0.99743 0.95861 0.0
H1006 H 0.04795 0.0373 0.97308 0.0
H1007 H 0.00645 0.02899 0.96206 0.0
C1008 C 0.4455 0.0442 0.95074 0.0
C1009 C 0.47715 0.03833 0.94067 0.0
C1010 C 0.43414 0.02661 0.97271 0.0
C1011 C 0.4549 0.00255 0.98471 0.0
C1012 C 0.48663 0.99613 0.97436 0.0
C1013 C 0.4974 0.01416 0.9525 0.0
C1014 C 0.40017 0.0341 0.98333 0.0
C1015 C 0.50939 0.9705 0.98657 0.0
C1016 C 0.44312 0.9796 0.05588 0.0
C1017 C 0.42704 0.94855 0.0539 0.0
C1018 C 0.45158 0.99786 0.03348 0.0
C1019 C 0.44395 0.9846 0.00854 0.0
C1020 C 0.42731 0.95351 0.00639 0.0
C1021 C 0.41896 0.93587 0.02914 0.0
C1022 C 0.4692 0.03104 0.03649 0.0
C1023 C 0.41898 0.93856 0.98008 0.0
H1024 H 0.42973 0.06283 0.94168 0.0
H1025 H 0.52183 0.00934 0.94475 0.0
H1026 H 0.38529 0.01076 0.98416 0.0
H1027 H 0.40221 0.04379 0.0036 0.0
H1028 H 0.38674 0.05287 0.9713 0.0
H1029 H 0.5329 0.96778 0.97563 0.0
H1030 H 0.51524 0.97787 0.00696 0.0
H1031 H 0.49702 0.94568 0.98737 0.0
H1032 H 0.44927 0.98965 0.07496 0.0
H1033 H 0.40651 0.91189 0.02748 0.0
H1034 H 0.45555 0.05102 0.02595 0.0
H1035 H 0.49414 0.02943 0.02763 0.0
H1036 H 0.47191 0.03857 0.05728 0.0
H1037 H 0.40438 0.95666 0.96834 0.0
H1038 H 0.40474 0.91485 0.98181 0.0
H1039 H 0.44203 0.93335 0.96911 0.0
C1040 C 0.53038 0.01053 0.55219 0.0
C1041 C 0.49674 0.01659 0.5564 0.0
C1042 C 0.54103 0.99246 0.53024 0.0
C1043 C 0.5174 0.97988 0.51233 0.0
C1044 C 0.48337 0.98519 0.51684 0.0
C1045 C 0.47345 0.00367 0.53875 0.0
C1046 C 0.57757 0.98752 0.52588 0.0
C1047 C 0.45748 0.9718 0.49829 0.0
C1048 C 0.54583 0.96485 0.44287 0.0
C1049 C 0.55214 0.93026 0.44306 0.0
C1050 C 0.53423 0.98123 0.46526 0.0
C1051 C 0.5284 0.96248 0.48826 0.0
C1052 C 0.53374 0.92739 0.48836 0.0
C1053 C 0.54577 0.91169 0.46576 0.0
C1054 C 0.52902 0.01875 0.46448 0.0
C1055 C 0.52728 0.90657 0.51247 0.0
H1056 H 0.54847 0.02048 0.56575 0.0
H1057 H 0.44737 0.00803 0.54202 0.0
H1058 H 0.58327 0.96041 0.524 0.0
H1059 H 0.58505 -0.00024 0.50733 0.0
H1060 H 0.59268 0.99811 0.54203 0.0
H1061 H 0.432 0.97651 0.50539 0.0
H1062 H 0.46032 0.98378 0.47886 0.0
H1063 H 0.46078 0.9444 0.49552 0.0
H1064 H 0.55083 0.97939 0.42542 0.0
H1065 H 0.55047 0.88492 0.46596 0.0
H1066 H 0.54538 0.03111 0.47898 0.0
H1067 H 0.50322 0.0249 0.4699 0.0
H1068 H 0.53419 0.02954 0.44489 0.0
H1069 H 0.54396 0.91465 0.52849 0.0
H1070 H 0.5311 0.87935 0.50893 0.0
H1071 H 0.50159 0.91051 0.51931 0.0
C1072 C 0.99327 0.00884 0.56771 0.0
C1073 C 0.02662 0.00124 0.57194 0.0
C1074 C 0.98313 0.02547 0.54493 0.0
C1075 C 0.007 0.03507 0.52618 0.0
C1076 C 0.04081 0.02834 0.5307 0.0
C1077 C 0.0502 0.01129 0.55348 0.0
C1078 C 0.94681 0.03198 0.5406 0.0
C1079 C 0.06697 0.03865 0.5113 0.0
C1080 C 0.97762 0.0458 0.45638 0.0
C1081 C 0.97303 0.08061 0.45493 0.0
C1082 C 0.98902 0.0307 0.4794 0.0
C1083 C -0.0036 0.05097 0.50135 0.0
C1084 C 0.99281 0.08622 0.49976 0.0
C1085 C 0.98095 0.10063 0.47658 0.0
C1086 C 0.99232 0.99297 0.48045 0.0
C1087 C 0.00094 0.10863 0.52268 0.0
H1088 H 0.97495 0.00106 0.58189 0.0
H1089 H 0.07607 0.00574 0.55677 0.0
H1090 H 0.94247 0.05913 0.53732 0.0
H1091 H 0.93834 0.01856 0.52281 0.0
H1092 H 0.9315 0.02367 0.5574 0.0
H1093 H 0.09232 0.03325 0.51846 0.0
H1094 H 0.06316 0.02512 0.49259 0.0
H1095 H 0.065 0.06587 0.50706 0.0
H1096 H 0.9714 0.03017 0.43974 0.0
H1097 H 0.97762 0.12758 0.4755 0.0
H1098 H 0.97568 0.98272 0.49569 0.0
H1099 H 0.0179 0.98593 0.48594 0.0
H1100 H 0.98619 0.98089 0.46149 0.0
H1101 H 0.98424 0.10286 0.53925 0.0
H1102 H -0.00153 0.13567 0.5178 0.0
H1103 H 0.02654 0.10386 0.52946 0.0
C1104 C 0.54296 0.59103 0.00483 0.0
C1105 C 0.55514 0.56885 0.02379 0.0
C1106 C 0.5271 0.57899 0.98231 0.0
C1107 C 0.52371 0.54398 0.9786 0.0
C1108 C 0.53602 0.52148 -0.00235 0.0
C1109 C 0.55143 0.53419 0.02009 0.0
C1110 C 0.5139 0.60371 0.96253 0.0
C1111 C 0.53304 0.48394 0.99427 0.0
C1112 C 0.45754 0.5093 0.93375 0.0
C1113 C 0.47578 0.50149 0.91127 0.0
C1114 C 0.47269 0.524 0.95555 0.0
C1115 C 0.50696 0.53071 0.95495 0.0
C1116 C 0.52543 0.52347 0.93217 0.0
C1117 C 0.50955 0.50909 0.9105 0.0
C1118 C 0.45213 0.53174 0.97942 0.0
C1119 C 0.5621 0.53007 0.93094 0.0
H1120 H 0.54566 0.61785 0.00763 0.0
H1121 H 0.56093 0.51689 0.03461 0.0
H1122 H 0.52565 0.59934 0.94326 0.0
H1123 H 0.48695 0.59996 0.95993 0.0
H1124 H 0.51836 0.63015 0.96841 0.0
H1125 H 0.5444 0.46987 0.01072 0.0
H1126 H 0.50665 0.47673 0.99282 0.0
H1127 H 0.54515 0.4761 0.97582 0.0
H1128 H 0.43135 0.50375 0.93438 0.0
H1129 H 0.52378 0.50306 0.8932 0.0
H1130 H 0.45518 0.55844 0.98505 0.0
H1131 H 0.46069 0.51631 -0.00386 0.0
H1132 H 0.42546 0.5267 0.97619 0.0
H1133 H 0.56729 0.55676 0.9355 0.0
H1134 H 0.57265 0.52411 0.91146 0.0
H1135 H 0.57498 0.51469 0.94587 0.0
C1136 C 0.02302 0.42681 0.06046 0.0
C1137 C -0.00023 0.43896 0.0784 0.0
C1138 C 0.03479 0.44727 0.04019 0.0
C1139 C 0.02302 0.48058 0.03791 0.0
C1140 C 0.00084 0.49348 0.05671 0.0
C1141 C 0.9895 0.47251 0.07675 0.0
C1142 C 0.0586 0.43275 0.02053 0.0
C1143 C 0.98786 0.52893 0.05498 0.0
C1144 C 0.06724 0.54182 0.99321 0.0
C1145 C 0.04756 0.5403 0.97066 0.0
C1146 C 0.05968 0.52241 0.01529 0.0
C1147 C 0.03177 0.50109 0.01474 0.0
C1148 C 0.01174 0.49956 0.99209 0.0
C1149 C 0.01988 0.51918 0.97032 0.0
C1150 C 0.08154 0.52466 0.03915 0.0
C1151 C 0.98168 0.47717 0.99083 0.0
H1152 H 0.03118 0.40097 0.06166 0.0
H1153 H 0.9717 0.4822 0.09064 0.0
H1154 H 0.04623 0.43057 0.00124 0.0
H1155 H 0.08013 0.44963 0.018 0.0
H1156 H 0.06764 0.40753 0.02638 0.0
H1157 H 0.97301 0.536 0.07237 0.0
H1158 H 0.00855 0.54697 0.05296 0.0
H1159 H 0.97211 0.53152 0.03734 0.0
H1160 H 0.08872 0.55803 0.99361 0.0
H1161 H 0.00455 0.51786 0.95297 0.0
H1162 H 0.09168 0.49954 0.04391 0.0
H1163 H 0.06686 0.53299 0.05625 0.0
H1164 H 0.10242 0.54237 0.03637 0.0
H1165 H 0.98896 0.4507 0.99424 0.0
H1166 H 0.9688 0.47878 0.97169 0.0
H1167 H 0.96402 0.48418 0.00646 0.0
C1168 C 0.02258 0.54466 0.58805 0.0
C1169 C 0.98838 0.54205 0.59172 0.0
C1170 C 0.03805 0.52873 0.56689 0.0
C1171 C 0.01882 0.50969 0.54916 0.0
C1172 C 0.98455 0.50574 0.55346 0.0
C1173 C 0.96973 0.52204 0.57466 0.0
C1174 C 0.07466 0.53348 0.56287 0.0
C1175 C 0.96327 0.48542 0.53508 0.0
C1176 C 0.04549 0.5017 0.47858 0.0
C1177 C 0.05784 0.46886 0.47784 0.0
C1178 C 0.03358 0.51556 0.50188 0.0
C1179 C 0.03385 0.49604 0.52497 0.0
C1180 C 0.04688 0.46312 0.52453 0.0
C1181 C 0.05884 0.44992 0.50093 0.0
C1182 C 0.02001 0.55087 0.50164 0.0
C1183 C 0.04741 0.44157 0.54879 0.0
H1184 H 0.03714 0.56004 0.60119 0.0
H1185 H 0.94332 0.51966 0.57751 0.0
H1186 H 0.08694 0.50889 0.55996 0.0
H1187 H 0.07893 0.54853 0.54495 0.0
H1188 H 0.08655 0.54649 0.57962 0.0
H1189 H 0.93756 0.48268 0.54231 0.0
H1190 H 0.96249 0.49775 0.51565 0.0
H1191 H 0.97395 0.46005 0.53225 0.0
H1192 H 0.04484 0.51658 0.46086 0.0
H1193 H 0.06837 0.42452 0.50051 0.0
H1194 H 0.03256 0.56631 0.51672 0.0
H1195 H 0.99334 0.55043 0.50652 0.0
H1196 H 0.02309 0.56327 0.48236 0.0
H1197 H 0.06001 0.45499 0.56497 0.0
H1198 H 0.06009 0.41722 0.54551 0.0
H1199 H 0.02176 0.43648 0.55524 0.0
C1200 C 0.5323 0.48864 0.524 0.0
C1201 C 0.55485 0.46197 0.52469 0.0
C1202 C 0.52136 0.5019 0.50013 0.0
C1203 C 0.53315 0.48802 0.47645 0.0
C1204 C 0.5558 0.46103 0.47701 0.0
C1205 C 0.56645 0.44837 0.50115 0.0
C1206 C 0.49726 0.5308 0.50026 0.0
C1207 C 0.56874 0.44551 0.45212 0.0
C1208 C 0.48134 0.50296 0.41584 0.0
C1209 C 0.49817 0.52971 0.40403 0.0
C1210 C 0.49279 0.48876 0.43921 0.0
C1211 C 0.52164 0.50175 0.45108 0.0
C1212 C 0.53908 0.52833 0.43904 0.0
C1213 C 0.52718 0.54194 0.41558 0.0
C1214 C 0.4737 0.46024 0.45142 0.0
C1215 C 0.56992 0.54285 0.45122 0.0
H1216 H 0.52328 0.49931 0.54212 0.0
H1217 H 0.58383 0.42771 0.50153 0.0
H1218 H 0.50797 0.55255 0.48973 0.0
H1219 H 0.47432 0.52357 0.48981 0.0
H1220 H 0.49066 0.53885 0.52037 0.0
H1221 H 0.58617 0.42456 0.45594 0.0
H1222 H 0.5479 0.43586 0.4402 0.0
H1223 H 0.58157 0.46479 0.44025 0.0
H1224 H 0.45898 0.49328 0.40696 0.0
H1225 H 0.54029 0.56263 0.40659 0.0
H1226 H 0.46433 0.46796 0.47087 0.0
H1227 H 0.49015 0.43834 0.4545 0.0
H1228 H 0.45243 0.45224 0.4392 0.0
H1229 H 0.56402 0.55348 0.4707 0.0
H1230 H 0.58107 0.5629 0.43901 0.0
H1231 H 0.58853 0.52281 0.45424 0.0
loop_
_geom_bond_atom_site_label_1
_geom_bond_atom_site_label_2
_geom_bond_distance
_geom_bond_site_symmetry_2
_ccdc_geom_bond_type
C0 O1 1.160 . S
C0 O7 1.185 . S
O1 C0 1.160 . S
O2 Zn3 1.899 . S
O2 C10 1.284 . S
Zn3 O2 1.899 . S
Zn3 O4 2.032 . S
Zn3 O7 2.086 . S
Zn3 O12 1.977 . S
O4 Zn3 2.032 . S
O4 C8 1.278 . S
C5 O6 1.203 . S
C5 O12 1.267 . S
O6 C5 1.203 . S
O7 C0 1.185 . S
O7 Zn3 2.086 . S
C8 O4 1.278 . S
C8 O9 1.211 . S
O9 C8 1.211 . S
C10 O2 1.284 . S
C10 O11 1.273 . S
O11 C10 1.273 . S
O12 Zn3 1.977 . S
O12 C5 1.267 . S
C13 O14 1.160 . S
C13 O20 1.185 . S
O14 C13 1.160 . S
O15 Zn16 1.899 . S
O15 C23 1.284 . S
Zn16 O15 1.899 . S
Zn16 O17 2.032 . S
Zn16 O20 2.086 . S
Zn16 O25 1.977 . S
O17 Zn16 2.032 . S
O17 C21 1.278 . S
C18 O19 1.203 . S
C18 O25 1.267 . S
O19 C18 1.203 . S
O20 C13 1.185 . S
O20 Zn16 2.086 . S
C21 O17 1.278 . S
C21 O22 1.211 . S
O22 C21 1.211 . S
C23 O15 1.284 . S
C23 O24 1.273 . S
O24 C23 1.273 . S
O25 Zn16 1.977 . S
O25 C18 1.267 . S
C26 O27 1.160 . S
C26 O33 1.185 . S
O27 C26 1.160 . S
O28 Zn29 1.899 . S
O28 C36 1.284 . S
Zn29 O28 1.899 . S
Zn29 O30 2.032 . S
Zn29 O33 2.086 . S
Zn29 O38 1.977 . S
O30 Zn29 2.032 . S
O30 C34 1.278 . S
C31 O32 1.203 . S
C31 O38 1.267 . S
O32 C31 1.203 . S
O33 C26 1.185 . S
O33 Zn29 2.086 . S
C34 O30 1.278 . S
C34 O35 1.211 . S
O35 C34 1.211 . S
C36 O28 1.284 . S
C36 O37 1.273 . S
O37 C36 1.273 . S
O38 Zn29 1.977 . S
O38 C31 1.267 . S
C39 O40 1.160 . S
C39 O46 1.185 . S
O40 C39 1.160 . S
O41 Zn42 1.899 . S
O41 C49 1.284 . S
Zn42 O41 1.899 . S
Zn42 O43 2.032 . S
Zn42 O46 2.086 . S
Zn42 O51 1.977 . S
O43 Zn42 2.032 . S
O43 C47 1.278 . S
C44 O45 1.203 . S
C44 O51 1.267 . S
O45 C44 1.203 . S
O46 C39 1.185 . S
O46 Zn42 2.086 . S
C47 O43 1.278 . S
C47 O48 1.211 . S
O48 C47 1.211 . S
C49 O41 1.284 . S
C49 O50 1.273 . S
O50 C49 1.273 . S
O51 Zn42 1.977 . S
O51 C44 1.267 . S
C52 O53 1.160 . S
C52 O59 1.185 . S
O53 C52 1.160 . S
O54 Zn55 1.899 . S
O54 C62 1.284 . S
Zn55 O54 1.899 . S
Zn55 O56 2.032 . S
Zn55 O59 2.086 . S
Zn55 O64 1.977 . S
O56 Zn55 2.032 . S
O56 C60 1.278 . S
C57 O58 1.203 . S
C57 O64 1.267 . S
O58 C57 1.203 . S
O59 C52 1.185 . S
O59 Zn55 2.086 . S
C60 O56 1.278 . S
C60 O61 1.211 . S
O61 C60 1.211 . S
C62 O54 1.284 . S
C62 O63 1.273 . S
O63 C62 1.273 . S
O64 Zn55 1.977 . S
O64 C57 1.267 . S
C65 O66 1.160 . S
C65 O72 1.185 . S
O66 C65 1.160 . S
O67 Zn68 1.899 . S
O67 C75 1.284 . S
Zn68 O67 1.899 . S
Zn68 O69 2.032 . S
Zn68 O72 2.086 . S
Zn68 O77 1.977 . S
O69 Zn68 2.032 . S
O69 C73 1.278 . S
C70 O71 1.203 . S
C70 O77 1.267 . S
O71 C70 1.203 . S
O72 C65 1.185 . S
O72 Zn68 2.086 . S
C73 O69 1.278 . S
C73 O74 1.211 . S
O74 C73 1.211 . S
C75 O67 1.284 . S
C75 O76 1.273 . S
O76 C75 1.273 . S
O77 Zn68 1.977 . S
O77 C70 1.267 . S
C78 O79 1.160 . S
C78 O85 1.185 . S
O79 C78 1.160 . S
O80 Zn81 1.899 . S
O80 C88 1.284 . S
Zn81 O80 1.899 . S
Zn81 O82 2.032 . S
Zn81 O85 2.086 . S
Zn81 O90 1.977 . S
O82 Zn81 2.032 . S
O82 C86 1.278 . S
C83 O84 1.203 . S
C83 O90 1.267 . S
O84 C83 1.203 . S
O85 C78 1.185 . S
O85 Zn81 2.086 . S
C86 O82 1.278 . S
C86 O87 1.211 . S
O87 C86 1.211 . S
C88 O80 1.284 . S
C88 O89 1.273 . S
O89 C88 1.273 . S
O90 Zn81 1.977 . S
O90 C83 1.267 . S
C91 O92 1.160 . S
C91 O98 1.185 . S
O92 C91 1.160 . S
O93 Zn94 1.899 . S
O93 C101 1.284 . S
Zn94 O93 1.899 . S
Zn94 O95 2.032 . S
Zn94 O98 2.086 . S
Zn94 O103 1.977 . S
O95 Zn94 2.032 . S
O95 C99 1.278 . S
C96 O97 1.203 . S
C96 O103 1.267 . S
O97 C96 1.203 . S
O98 C91 1.185 . S
O98 Zn94 2.086 . S
C99 O95 1.278 . S
C99 O100 1.211 . S
O100 C99 1.211 . S
C101 O93 1.284 . S
C101 O102 1.273 . S
O102 C101 1.273 . S
O103 Zn94 1.977 . S
O103 C96 1.267 . S
C104 O105 1.160 . S
C104 O111 1.185 . S
O105 C104 1.160 . S
O106 Zn107 1.899 . S
O106 C114 1.284 . S
Zn107 O106 1.899 . S
Zn107 O108 2.032 . S
Zn107 O111 2.086 . S
Zn107 O116 1.977 . S
O108 Zn107 2.032 . S
O108 C112 1.278 . S
C109 O110 1.203 . S
C109 O116 1.267 . S
O110 C109 1.203 . S
O111 C104 1.185 . S
O111 Zn107 2.086 . S
C112 O108 1.278 . S
C112 O113 1.211 . S
O113 C112 1.211 . S
C114 O106 1.284 . S
C114 O115 1.273 . S
O115 C114 1.273 . S
O116 Zn107 1.977 . S
O116 C109 1.267 . S
C117 O118 1.160 . S
C117 O124 1.185 . S
O118 C117 1.160 . S
O119 Zn120 1.899 . S
O119 C127 1.284 . S
Zn120 O119 1.899 . S
Zn120 O121 2.032 . S
Zn120 O124 2.086 . S
Zn120 O129 1.977 . S
O121 Zn120 2.032 . S
O121 C125 1.278 . S
C122 O123 1.203 . S
C122 O129 1.267 . S
O123 C122 1.203 . S
O124 C117 1.185 . S
O124 Zn120 2.086 . S
C125 O121 1.278 . S
C125 O126 1.211 . S
O126 C125 1.211 . S
C127 O119 1.284 . S
C127 O128 1.273 . S
O128 C127 1.273 . S
O129 Zn120 1.977 . S
O129 C122 1.267 . S
C130 O131 1.160 . S
C130 O137 1.185 . S
O131 C130 1.160 . S
O132 Zn133 1.899 . S
O132 C140 1.284 . S
Zn133 O132 1.899 . S
Zn133 O134 2.032 . S
Zn133 O137 2.086 . S
Zn133 O142 1.977 . S
O134 Zn133 2.032 . S
O134 C138 1.278 . S
C135 O136 1.203 . S
C135 O142 1.267 . S
O136 C135 1.203 . S
O137 C130 1.185 . S
O137 Zn133 2.086 . S
C138 O134 1.278 . S
C138 O139 1.211 . S
O139 C138 1.211 . S
C140 O132 1.284 . S
C140 O141 1.273 . S
O141 C140 1.273 . S
O142 Zn133 1.977 . S
O142 C135 1.267 . S
C143 O144 1.160 . S
C143 O150 1.185 . S
O144 C143 1.160 . S
O145 Zn146 1.899 . S
O145 C153 1.284 . S
Zn146 O145 1.899 . S
Zn146 O147 2.032 . S
Zn146 O150 2.086 . S
Zn146 O155 1.977 . S
O147 Zn146 2.032 . S
O147 C151 1.278 . S
C148 O149 1.203 . S
C148 O155 1.267 . S
O149 C148 1.203 . S
O150 C143 1.185 . S
O150 Zn146 2.086 . S
C151 O147 1.278 . S
C151 O152 1.211 . S
O152 C151 1.211 . S
C153 O145 1.284 . S
C153 O154 1.273 . S
O154 C153 1.273 . S
O155 Zn146 1.977 . S
O155 C148 1.267 . S
C156 O157 1.160 . S
C156 O163 1.185 . S
O157 C156 1.160 . S
O158 Zn159 1.899 . S
O158 C166 1.284 . S
Zn159 O158 1.899 . S
Zn159 O160 2.032 . S
Zn159 O163 2.086 . S
Zn159 O168 1.977 . S
O160 Zn159 2.032 . S
O160 C164 1.278 . S
C161 O162 1.203 . S
C161 O168 1.267 . S
O162 C161 1.203 . S
O163 C156 1.185 . S
O163 Zn159 2.086 . S
C164 O160 1.278 . S
C164 O165 1.211 . S
O165 C164 1.211 . S
C166 O158 1.284 . S
C166 O167 1.273 . S
O167 C166 1.273 . S
O168 Zn159 1.977 . S
O168 C161 1.267 . S
C169 O170 1.160 . S
C169 O176 1.185 . S
O170 C169 1.160 . S
O171 Zn172 1.899 . S
O171 C179 1.284 . S
Zn172 O171 1.899 . S
Zn172 O173 2.032 . S
Zn172 O176 2.086 . S
Zn172 O181 1.977 . S
O173 Zn172 2.032 . S
O173 C177 1.278 . S
C174 O175 1.203 . S
C174 O181 1.267 . S
O175 C174 1.203 . S
O176 C169 1.185 . S
O176 Zn172 2.086 . S
C177 O173 1.278 . S
C177 O178 1.211 . S
O178 C177 1.211 . S
C179 O171 1.284 . S
C179 O180 1.273 . S
O180 C179 1.273 . S
O181 Zn172 1.977 . S
O181 C174 1.267 . S
C182 O183 1.160 . S
C182 O189 1.185 . S
O183 C182 1.160 . S
O184 Zn185 1.899 . S
O184 C192 1.284 . S
Zn185 O184 1.899 . S
Zn185 O186 2.032 . S
Zn185 O189 2.086 . S
Zn185 O194 1.977 . S
O186 Zn185 2.032 . S
O186 C190 1.278 . S
C187 O188 1.203 . S
C187 O194 1.267 . S
O188 C187 1.203 . S
O189 C182 1.185 . S
O189 Zn185 2.086 . S
C190 O186 1.278 . S
C190 O191 1.211 . S
O191 C190 1.211 . S
C192 O184 1.284 . S
C192 O193 1.273 . S
O193 C192 1.273 . S
O194 Zn185 1.977 . S
O194 C187 1.267 . S
C195 O196 1.160 . S
C195 O202 1.185 . S
O196 C195 1.160 . S
O197 Zn198 1.899 . S
O197 C205 1.284 . S
Zn198 O197 1.899 . S
Zn198 O199 2.032 . S
Zn198 O202 2.086 . S
Zn198 O207 1.977 . S
O199 Zn198 2.032 . S
O199 C203 1.278 . S
C200 O201 1.203 . S
C200 O207 1.267 . S
O201 C200 1.203 . S
O202 C195 1.185 . S
O202 Zn198 2.086 . S
C203 O199 1.278 . S
C203 O204 1.211 . S
O204 C203 1.211 . S
C205 O197 1.284 . S
C205 O206 1.273 . S
O206 C205 1.273 . S
O207 Zn198 1.977 . S
O207 C200 1.267 . S
C208 C209 1.391 . S
C208 C210 1.394 . S
C208 H224 0.931 . S
C209 C208 1.391 . S
C209 C213 1.376 . S
C210 C208 1.394 . S
C210 C211 1.369 . S
C210 C214 1.531 . S
C211 C210 1.369 . S
C211 C212 1.410 1_565 S
C211 C219 1.503 1_565 S
C212 C211 1.410 1_545 S
C212 C213 1.392 1_545 S
C212 C215 1.511 . S
C213 C209 1.376 . S
C213 C212 1.392 1_565 S
C213 H225 0.922 1_565 S
C214 C210 1.531 . S
C214 H226 0.960 . S
C214 H227 0.962 . S
C214 H228 0.960 . S
C215 C212 1.511 . S
C215 H229 0.961 . S
C215 H230 0.961 . S
C215 H231 0.961 . S
C216 C217 1.370 . S
C216 C218 1.363 . S
C216 H232 0.931 . S
C217 C216 1.370 . S
C217 C221 1.408 . S
C218 C216 1.363 . S
C218 C219 1.370 . S
C218 C222 1.524 . S
C219 C211 1.503 1_545 S
C219 C218 1.370 . S
C219 C220 1.403 1_545 S
C220 C219 1.403 1_565 S
C220 C221 1.404 1_565 S
C220 C223 1.539 . S
C221 C217 1.408 . S
C221 C220 1.404 1_545 S
C221 H233 0.930 1_545 S
C222 C218 1.524 . S
C222 H234 0.956 . S
C222 H235 0.961 . S
C222 H236 0.961 . S
C223 C220 1.539 . S
C223 H237 0.958 . S
C223 H238 0.961 . S
C223 H239 0.960 . S
H224 C208 0.931 . S
H225 C213 0.922 1_545 S
H226 C214 0.960 . S
H227 C214 0.962 . S
H228 C214 0.960 . S
H229 C215 0.961 . S
H230 C215 0.961 . S
H231 C215 0.961 . S
H232 C216 0.931 . S
H233 C221 0.930 1_565 S
H234 C222 0.956 . S
H235 C222 0.961 . S
H236 C222 0.961 . S
H237 C223 0.958 . S
H238 C223 0.961 . S
H239 C223 0.960 . S
C240 C241 1.391 . S
C240 C242 1.394 . S
C240 H256 0.931 . S
C241 C240 1.391 . S
C241 C245 1.376 . S
C242 C240 1.394 . S
C242 C243 1.369 . S
C242 C246 1.531 . S
C243 C242 1.369 . S
C243 C244 1.410 1_565 S
C243 C251 1.503 1_565 S
C244 C243 1.410 1_545 S
C244 C245 1.392 1_545 S
C244 C247 1.511 . S
C245 C241 1.376 . S
C245 C244 1.392 1_565 S
C245 H257 0.929 1_565 S
C246 C242 1.531 . S
C246 H258 0.960 . S
C246 H259 0.962 . S
C246 H260 0.960 . S
C247 C244 1.511 . S
C247 H261 0.961 . S
C247 H262 0.961 . S
C247 H263 0.961 . S
C248 C249 1.370 . S
C248 C250 1.363 1_545 S
C248 H264 0.931 1_545 S
C249 C248 1.370 . S
C249 C253 1.408 . S
C250 C248 1.363 1_565 S
C250 C251 1.370 1_565 S
C250 C254 1.524 . S
C251 C243 1.503 1_545 S
C251 C250 1.370 1_545 S
C251 C252 1.403 . S
C252 C251 1.403 . S
C252 C253 1.404 . S
C252 C255 1.539 . S
C253 C249 1.408 . S
C253 C252 1.404 . S
C253 H265 0.930 . S
C254 C250 1.524 . S
C254 H266 0.956 . S
C254 H267 0.961 . S
C254 H268 0.961 . S
C255 C252 1.539 . S
C255 H269 0.958 . S
C255 H270 0.961 . S
C255 H271 0.960 . S
H256 C240 0.931 . S
H257 C245 0.929 1_545 S
H258 C246 0.960 . S
H259 C246 0.962 . S
H260 C246 0.960 . S
H261 C247 0.961 . S
H262 C247 0.961 . S
H263 C247 0.961 . S
H264 C248 0.931 1_565 S
H265 C253 0.930 . S
H266 C254 0.956 . S
H267 C254 0.961 . S
H268 C254 0.961 . S
H269 C255 0.958 . S
H270 C255 0.961 . S
H271 C255 0.960 . S
C272 C273 1.391 . S
C272 C274 1.394 . S
C272 H288 0.931 . S
C273 C272 1.391 . S
C273 C277 1.376 . S
C274 C272 1.394 . S
C274 C275 1.369 . S
C274 C278 1.531 . S
C275 C274 1.369 . S
C275 C276 1.410 1_565 S
C275 C283 1.503 1_565 S
C276 C275 1.410 1_545 S
C276 C277 1.392 1_545 S
C276 C279 1.511 . S
C277 C273 1.376 . S
C277 C276 1.392 1_565 S
C277 H289 0.929 1_565 S
C278 C274 1.531 . S
C278 H290 0.960 . S
C278 H291 0.962 . S
C278 H292 0.960 . S
C279 C276 1.511 . S
C279 H293 0.961 . S
C279 H294 0.961 . S
C279 H295 0.961 . S
C280 C281 1.370 . S
C280 C282 1.363 1_545 S
C280 H296 0.931 1_545 S
C281 C280 1.370 . S
C281 C285 1.408 . S
C282 C280 1.363 1_565 S
C282 C283 1.370 1_565 S
C282 C286 1.524 . S
C283 C275 1.503 1_545 S
C283 C282 1.370 1_545 S
C283 C284 1.403 . S
C284 C283 1.403 . S
C284 C285 1.404 . S
C284 C287 1.539 . S
C285 C281 1.408 . S
C285 C284 1.404 . S
C285 H297 0.930 . S
C286 C282 1.524 . S
C286 H298 0.956 . S
C286 H299 0.961 . S
C286 H300 0.961 . S
C287 C284 1.539 . S
C287 H301 0.958 . S
C287 H302 0.961 . S
C287 H303 0.960 . S
H288 C272 0.931 . S
H289 C277 0.929 1_545 S
H290 C278 0.960 . S
H291 C278 0.962 . S
H292 C278 0.960 . S
H293 C279 0.961 . S
H294 C279 0.961 . S
H295 C279 0.961 . S
H296 C280 0.931 1_565 S
H297 C285 0.930 . S
H298 C286 0.956 . S
H299 C286 0.961 . S
H300 C286 0.961 . S
H301 C287 0.958 . S
H302 C287 0.961 . S
H303 C287 0.960 . S
C304 C305 1.391 . S
C304 C306 1.394 . S
C304 H320 0.931 . S
C305 C304 1.391 . S
C305 C309 1.376 1_565 S
C306 C304 1.394 . S
C306 C307 1.369 . S
C306 C310 1.531 . S
C307 C306 1.369 . S
C307 C308 1.410 1_565 S
C307 C315 1.503 1_565 S
C308 C307 1.410 1_545 S
C308 C309 1.392 . S
C308 C311 1.511 . S
C309 C305 1.376 1_545 S
C309 C308 1.392 . S
C309 H321 0.929 . S
C310 C306 1.531 . S
C310 H322 0.960 . S
C310 H323 0.962 . S
C310 H324 0.960 . S
C311 C308 1.511 . S
C311 H325 0.961 . S
C311 H326 0.961 . S
C311 H327 0.961 . S
C312 C313 1.370 . S
C312 C314 1.363 . S
C312 H328 0.931 . S
C313 C312 1.370 . S
C313 C317 1.408 . S
C314 C312 1.363 . S
C314 C315 1.370 . S
C314 C318 1.524 1_545 S
C315 C307 1.503 1_545 S
C315 C314 1.370 . S
C315 C316 1.403 . S
C316 C315 1.403 . S
C316 C317 1.404 . S
C316 C319 1.539 . S
C317 C313 1.408 . S
C317 C316 1.404 . S
C317 H329 0.930 . S
C318 C314 1.524 1_565 S
C318 H330 0.956 . S
C318 H331 0.961 . S
C318 H332 0.961 . S
C319 C316 1.539 . S
C319 H333 0.958 . S
C319 H334 0.961 . S
C319 H335 0.960 . S
H320 C304 0.931 . S
H321 C309 0.929 . S
H322 C310 0.960 . S
H323 C310 0.962 . S
H324 C310 0.960 . S
H325 C311 0.961 . S
H326 C311 0.961 . S
H327 C311 0.961 . S
H328 C312 0.931 . S
H329 C317 0.930 . S
H330 C318 0.956 . S
H331 C318 0.961 . S
H332 C318 0.961 . S
H333 C319 0.958 . S
H334 C319 0.961 . S
H335 C319 0.960 . S
C336 C337 1.391 . S
C336 C338 1.394 . S
C336 H352 0.931 . S
C337 C336 1.391 . S
C337 C341 1.376 . S
C338 C336 1.394 . S
C338 C339 1.369 . S
C338 C342 1.531 . S
C339 C338 1.369 . S
C339 C340 1.410 . S
C339 C347 1.503 . S
C340 C339 1.410 . S
C340 C341 1.392 . S
C340 C343 1.511 . S
C341 C337 1.376 . S
C341 C340 1.392 . S
C341 H353 0.929 . S
C342 C338 1.531 . S
C342 H354 0.960 . S
C342 H355 0.962 . S
C342 H356 0.960 . S
C343 C340 1.511 . S
C343 H357 0.961 . S
C343 H358 0.961 . S
C343 H359 0.961 . S
C344 C345 1.370 . S
C344 C346 1.363 . S
C344 H360 0.931 . S
C345 C344 1.370 . S
C345 C349 1.408 . S
C346 C344 1.363 . S
C346 C347 1.370 . S
C346 C350 1.524 . S
C347 C339 1.503 . S
C347 C346 1.370 . S
C347 C348 1.403 . S
C348 C347 1.403 . S
C348 C349 1.404 . S
C348 C351 1.539 . S
C349 C345 1.408 . S
C349 C348 1.404 . S
C349 H361 0.930 . S
C350 C346 1.524 . S
C350 H362 0.956 . S
C350 H363 0.961 . S
C350 H364 0.961 . S
C351 C348 1.539 . S
C351 H365 0.958 . S
C351 H366 0.961 . S
C351 H367 0.960 . S
H352 C336 0.931 . S
H353 C341 0.929 . S
H354 C342 0.960 . S
H355 C342 0.962 . S
H356 C342 0.960 . S
H357 C343 0.961 . S
H358 C343 0.961 . S
H359 C343 0.961 . S
H360 C344 0.931 . S
H361 C349 0.930 . S
H362 C350 0.956 . S
H363 C350 0.961 . S
H364 C350 0.961 . S
H365 C351 0.958 . S
H366 C351 0.961 . S
H367 C351 0.960 . S
C368 C369 1.391 . S
C368 C370 1.394 . S
C368 H384 0.931 . S
C369 C368 1.391 . S
C369 C373 1.376 . S
C370 C368 1.394 . S
C370 C371 1.369 . S
C370 C374 1.531 . S
C371 C370 1.369 . S
C371 C372 1.410 . S
C371 C379 1.503 . S
C372 C371 1.410 . S
C372 C373 1.392 . S
C372 C375 1.511 . S
C373 C369 1.376 . S
C373 C372 1.392 . S
C373 H385 0.929 . S
C374 C370 1.531 . S
C374 H386 0.960 . S
C374 H387 0.962 . S
C374 H388 0.960 . S
C375 C372 1.511 . S
C375 H389 0.961 . S
C375 H390 0.961 . S
C375 H391 0.961 . S
C376 C377 1.370 . S
C376 C378 1.363 . S
C376 H392 0.931 . S
C377 C376 1.370 . S
C377 C381 1.408 . S
C378 C376 1.363 . S
C378 C379 1.370 . S
C378 C382 1.524 . S
C379 C371 1.503 . S
C379 C378 1.370 . S
C379 C380 1.403 . S
C380 C379 1.403 . S
C380 C381 1.404 . S
C380 C383 1.539 . S
C381 C377 1.408 . S
C381 C380 1.404 . S
C381 H393 0.930 . S
C382 C378 1.524 . S
C382 H394 0.956 . S
C382 H395 0.961 . S
C382 H396 0.961 . S
C383 C380 1.539 . S
C383 H397 0.958 . S
C383 H398 0.961 . S
C383 H399 0.960 . S
H384 C368 0.931 . S
H385 C373 0.929 . S
H386 C374 0.960 . S
H387 C374 0.962 . S
H388 C374 0.960 . S
H389 C375 0.961 . S
H390 C375 0.961 . S
H391 C375 0.961 . S
H392 C376 0.931 . S
H393 C381 0.930 . S
H394 C382 0.956 . S
H395 C382 0.961 . S
H396 C382 0.961 . S
H397 C383 0.958 . S
H398 C383 0.961 . S
H399 C383 0.960 . S
C400 C401 1.391 . S
C400 C402 1.394 . S
C400 H416 0.931 . S
C401 C400 1.391 . S
C401 C405 1.376 . S
C402 C400 1.394 . S
C402 C403 1.369 . S
C402 C406 1.531 . S
C403 C402 1.369 . S
C403 C404 1.410 . S
C403 C411 1.503 . S
C404 C403 1.410 . S
C404 C405 1.392 . S
C404 C407 1.511 . S
C405 C401 1.376 . S
C405 C404 1.392 . S
C405 H417 0.929 . S
C406 C402 1.531 . S
C406 H418 0.960 . S
C406 H419 0.962 . S
C406 H420 0.960 . S
C407 C404 1.511 . S
C407 H421 0.961 . S
C407 H422 0.961 . S
C407 H423 0.961 . S
C408 C409 1.370 . S
C408 C410 1.363 . S
C408 H424 0.931 . S
C409 C408 1.370 . S
C409 C413 1.408 . S
C410 C408 1.363 . S
C410 C411 1.370 . S
C410 C414 1.524 . S
C411 C403 1.503 . S
C411 C410 1.370 . S
C411 C412 1.403 . S
C412 C411 1.403 . S
C412 C413 1.404 . S
C412 C415 1.539 . S
C413 C409 1.408 . S
C413 C412 1.404 . S
C413 H425 0.930 . S
C414 C410 1.524 . S
C414 H426 0.956 . S
C414 H427 0.961 . S
C414 H428 0.961 . S
C415 C412 1.539 . S
C415 H429 0.958 . S
C415 H430 0.961 . S
C415 H431 0.960 . S
H416 C400 0.931 . S
H417 C405 0.929 . S
H418 C406 0.960 . S
H419 C406 0.962 . S
H420 C406 0.960 . S
H421 C407 0.961 . S
H422 C407 0.961 . S
H423 C407 0.961 . S
H424 C408 0.931 . S
H425 C413 0.930 . S
H426 C414 0.956 . S
H427 C414 0.961 . S
H428 C414 0.961 . S
H429 C415 0.958 . S
H430 C415 0.961 . S
H431 C415 0.960 . S
C432 C433 1.391 . S
C432 C434 1.394 . S
C432 H448 0.931 . S
C433 C432 1.391 . S
C433 C437 1.376 . S
C434 C432 1.394 . S
C434 C435 1.369 . S
C434 C438 1.531 . S
C435 C434 1.369 . S
C435 C436 1.410 . S
C435 C443 1.503 . S
C436 C435 1.410 . S
C436 C437 1.392 . S
C436 C439 1.511 . S
C437 C433 1.376 . S
C437 C436 1.392 . S
C437 H449 0.929 . S
C438 C434 1.531 . S
C438 H450 0.960 . S
C438 H451 0.962 . S
C438 H452 0.960 . S
C439 C436 1.511 . S
C439 H453 0.961 . S
C439 H454 0.961 . S
C439 H455 0.961 . S
C440 C441 1.370 . S
C440 C442 1.363 . S
C440 H456 0.931 . S
C441 C440 1.370 . S
C441 C445 1.408 . S
C442 C440 1.363 . S
C442 C443 1.370 . S
C442 C446 1.524 . S
C443 C435 1.503 . S
C443 C442 1.370 . S
C443 C444 1.403 . S
C444 C443 1.403 . S
C444 C445 1.404 . S
C444 C447 1.539 . S
C445 C441 1.408 . S
C445 C444 1.404 . S
C445 H457 0.930 . S
C446 C442 1.524 . S
C446 H458 0.956 . S
C446 H459 0.961 . S
C446 H460 0.961 . S
C447 C444 1.539 . S
C447 H461 0.958 . S
C447 H462 0.961 . S
C447 H463 0.960 . S
H448 C432 0.931 . S
H449 C437 0.929 . S
H450 C438 0.960 . S
H451 C438 0.962 . S
H452 C438 0.960 . S
H453 C439 0.961 . S
H454 C439 0.961 . S
H455 C439 0.961 . S
H456 C440 0.931 . S
H457 C445 0.930 . S
H458 C446 0.956 . S
H459 C446 0.961 . S
H460 C446 0.961 . S
H461 C447 0.958 . S
H462 C447 0.961 . S
H463 C447 0.960 . S
C464 C465 1.391 . S
C464 C466 1.394 . S
C464 H480 0.931 . S
C465 C464 1.391 . S
C465 C469 1.356 1_655 S
C466 C464 1.394 . S
C466 C467 1.357 1_655 S
C466 C470 1.531 . S
C467 C466 1.357 1_455 S
C467 C468 1.416 . S
C467 C475 1.508 . S
C468 C467 1.416 . S
C468 C469 1.403 . S
C468 C471 1.520 . S
C469 C465 1.356 1_455 S
C469 C468 1.403 . S
C469 H481 0.939 . S
C470 C466 1.531 . S
C470 H482 0.960 . S
C470 H483 0.962 . S
C470 H484 0.960 . S
C471 C468 1.520 . S
C471 H485 0.950 1_545 S
C471 H486 0.959 1_545 S
C471 H487 0.965 . S
C472 C473 1.370 1_655 S
C472 C474 1.363 . S
C472 H488 0.931 . S
C473 C472 1.370 1_455 S
C473 C477 1.408 . S
C474 C472 1.363 . S
C474 C475 1.370 1_655 S
C474 C478 1.524 . S
C475 C467 1.508 . S
C475 C474 1.370 1_455 S
C475 C476 1.403 . S
C476 C475 1.403 . S
C476 C477 1.404 . S
C476 C479 1.539 . S
C477 C473 1.408 . S
C477 C476 1.404 . S
C477 H489 0.930 . S
C478 C474 1.524 . S
C478 H490 0.956 . S
C478 H491 0.961 1_545 S
C478 H492 0.961 1_545 S
C479 C476 1.539 . S
C479 H493 0.958 . S
C479 H494 0.961 . S
C479 H495 0.960 . S
H480 C464 0.931 . S
H481 C469 0.939 . S
H482 C470 0.960 . S
H483 C470 0.962 . S
H484 C470 0.960 . S
H485 C471 0.950 1_565 S
H486 C471 0.959 1_565 S
H487 C471 0.965 . S
H488 C472 0.931 . S
H489 C477 0.930 . S
H490 C478 0.956 . S
H491 C478 0.961 1_565 S
H492 C478 0.961 1_565 S
H493 C479 0.958 . S
H494 C479 0.961 . S
H495 C479 0.960 . S
C496 C497 1.391 . S
C496 C498 1.394 . S
C496 H512 0.931 . S
C497 C496 1.391 . S
C497 C501 1.376 . S
C498 C496 1.394 . S
C498 C499 1.369 . S
C498 C502 1.531 . S
C499 C498 1.369 . S
C499 C500 1.410 . S
C499 C507 1.503 . S
C500 C499 1.410 . S
C500 C501 1.392 . S
C500 C503 1.511 . S
C501 C497 1.376 . S
C501 C500 1.392 . S
C501 H513 0.929 . S
C502 C498 1.531 . S
C502 H514 0.960 . S
C502 H515 0.962 . S
C502 H516 0.960 . S
C503 C500 1.511 . S
C503 H517 0.961 . S
C503 H518 0.961 . S
C503 H519 0.961 . S
C504 C505 1.370 . S
C504 C506 1.363 . S
C504 H520 0.931 . S
C505 C504 1.370 . S
C505 C509 1.408 . S
C506 C504 1.363 . S
C506 C507 1.370 . S
C506 C510 1.524 1_565 S
C507 C499 1.503 . S
C507 C506 1.370 . S
C507 C508 1.403 . S
C508 C507 1.403 . S
C508 C509 1.404 . S
C508 C511 1.539 . S
C509 C505 1.408 . S
C509 C508 1.404 . S
C509 H521 0.930 . S
C510 C506 1.524 1_545 S
C510 H522 0.947 1_545 S
C510 H523 0.961 . S
C510 H524 0.961 . S
C511 C508 1.539 . S
C511 H525 0.958 . S
C511 H526 0.961 . S
C511 H527 0.960 . S
H512 C496 0.931 . S
H513 C501 0.929 . S
H514 C502 0.960 . S
H515 C502 0.962 . S
H516 C502 0.960 . S
H517 C503 0.961 . S
H518 C503 0.961 . S
H519 C503 0.961 . S
H520 C504 0.931 . S
H521 C509 0.930 . S
H522 C510 0.947 1_565 S
H523 C510 0.961 . S
H524 C510 0.961 . S
H525 C511 0.958 . S
H526 C511 0.961 . S
H527 C511 0.960 . S
C528 C529 1.391 . S
C528 C530 1.394 . S
C528 H544 0.931 . S
C529 C528 1.391 . S
C529 C533 1.376 1_455 S
C530 C528 1.394 . S
C530 C531 1.369 . S
C530 C534 1.531 . S
C531 C530 1.369 . S
C531 C532 1.410 1_455 S
C531 C539 1.503 1_455 S
C532 C531 1.410 1_655 S
C532 C533 1.392 . S
C532 C535 1.511 . S
C533 C529 1.376 1_655 S
C533 C532 1.392 . S
C533 H545 0.929 . S
C534 C530 1.531 . S
C534 H546 0.960 . S
C534 H547 0.962 . S
C534 H548 0.960 . S
C535 C532 1.511 . S
C535 H549 0.961 . S
C535 H550 0.961 . S
C535 H551 0.961 1_565 S
C536 C537 1.370 . S
C536 C538 1.363 . S
C536 H552 0.931 . S
C537 C536 1.370 . S
C537 C541 1.408 . S
C538 C536 1.363 . S
C538 C539 1.370 . S
C538 C542 1.524 . S
C539 C531 1.503 1_655 S
C539 C538 1.370 . S
C539 C540 1.403 1_655 S
C540 C539 1.403 1_455 S
C540 C541 1.404 1_455 S
C540 C543 1.539 1_565 S
C541 C537 1.408 . S
C541 C540 1.404 1_655 S
C541 H553 0.930 1_565 S
C542 C538 1.524 . S
C542 H554 0.956 . S
C542 H555 0.961 . S
C542 H556 0.961 . S
C543 C540 1.539 1_545 S
C543 H557 0.958 . S
C543 H558 0.961 . S
C543 H559 0.960 . S
H544 C528 0.931 . S
H545 C533 0.929 . S
H546 C534 0.960 . S
H547 C534 0.962 . S
H548 C534 0.960 . S
H549 C535 0.961 . S
H550 C535 0.961 . S
H551 C535 0.961 1_545 S
H552 C536 0.931 . S
H553 C541 0.930 1_545 S
H554 C542 0.956 . S
H555 C542 0.961 . S
H556 C542 0.961 . S
H557 C543 0.958 . S
H558 C543 0.961 . S
H559 C543 0.960 . S
C560 C561 1.391 . S
C560 C562 1.394 . S
C560 H576 0.931 . S
C561 C560 1.391 . S
C561 C565 1.376 . S
C562 C560 1.394 . S
C562 C563 1.369 . S
C562 C566 1.531 . S
C563 C562 1.369 . S
C563 C564 1.410 . S
C563 C571 1.503 . S
C564 C563 1.410 . S
C564 C565 1.392 . S
C564 C567 1.511 . S
C565 C561 1.376 . S
C565 C564 1.392 . S
C565 H577 0.929 . S
C566 C562 1.531 . S
C566 H578 0.960 1_545 S
C566 H579 0.962 . S
C566 H580 0.960 1_545 S
C567 C564 1.511 . S
C567 H581 0.961 . S
C567 H582 0.961 . S
C567 H583 0.961 . S
C568 C569 1.370 . S
C568 C570 1.363 . S
C568 H584 0.931 . S
C569 C568 1.370 . S
C569 C573 1.408 . S
C570 C568 1.363 . S
C570 C571 1.370 . S
C570 C574 1.524 . S
C571 C563 1.503 . S
C571 C570 1.370 . S
C571 C572 1.403 . S
C572 C571 1.403 . S
C572 C573 1.404 . S
C572 C575 1.539 1_545 S
C573 C569 1.408 . S
C573 C572 1.404 . S
C573 H585 0.930 . S
C574 C570 1.524 . S
C574 H586 0.956 . S
C574 H587 0.961 . S
C574 H588 0.961 . S
C575 C572 1.539 1_565 S
C575 H589 0.958 . S
C575 H590 0.961 . S
C575 H591 0.960 . S
H576 C560 0.931 . S
H577 C565 0.929 . S
H578 C566 0.960 1_565 S
H579 C566 0.962 . S
H580 C566 0.960 1_565 S
H581 C567 0.961 . S
H582 C567 0.961 . S
H583 C567 0.961 . S
H584 C568 0.931 . S
H585 C573 0.930 . S
H586 C574 0.956 . S
H587 C574 0.961 . S
H588 C574 0.961 . S
H589 C575 0.958 . S
H590 C575 0.961 . S
H591 C575 0.960 . S
C592 C593 1.391 . S
C592 C594 1.394 . S
C592 H608 0.931 . S
C593 C592 1.391 . S
C593 C597 1.376 . S
C594 C592 1.394 . S
C594 C595 1.369 . S
C594 C598 1.531 . S
C595 C594 1.369 . S
C595 C596 1.410 . S
C595 C603 1.503 . S
C596 C595 1.410 . S
C596 C597 1.392 . S
C596 C599 1.511 . S
C597 C593 1.376 . S
C597 C596 1.392 . S
C597 H609 0.929 . S
C598 C594 1.531 . S
C598 H610 0.960 . S
C598 H611 0.962 . S
C598 H612 0.960 . S
C599 C596 1.511 . S
C599 H613 0.961 . S
C599 H614 0.961 . S
C599 H615 0.961 . S
C600 C601 1.370 . S
C600 C602 1.363 . S
C600 H616 0.931 . S
C601 C600 1.370 . S
C601 C605 1.408 . S
C602 C600 1.363 . S
C602 C603 1.370 . S
C602 C606 1.524 . S
C603 C595 1.503 . S
C603 C602 1.370 . S
C603 C604 1.403 . S
C604 C603 1.403 . S
C604 C605 1.404 . S
C604 C607 1.539 . S
C605 C601 1.408 . S
C605 C604 1.404 . S
C605 H617 0.930 . S
C606 C602 1.524 . S
C606 H618 0.956 . S
C606 H619 0.961 . S
C606 H620 0.961 . S
C607 C604 1.539 . S
C607 H621 0.958 . S
C607 H622 0.961 . S
C607 H623 0.960 . S
H608 C592 0.931 . S
H609 C597 0.929 . S
H610 C598 0.960 . S
H611 C598 0.962 . S
H612 C598 0.960 . S
H613 C599 0.961 . S
H614 C599 0.961 . S
H615 C599 0.961 . S
H616 C600 0.931 . S
H617 C605 0.930 . S
H618 C606 0.956 . S
H619 C606 0.961 . S
H620 C606 0.961 . S
H621 C607 0.958 . S
H622 C607 0.961 . S
H623 C607 0.960 . S
C624 C625 1.391 . S
C624 C626 1.394 . S
C624 H640 0.931 . S
C625 C624 1.391 . S
C625 C629 1.376 . S
C626 C624 1.394 . S
C626 C627 1.369 . S
C626 C630 1.531 . S
C627 C626 1.369 . S
C627 C628 1.410 1_455 S
C627 C635 1.492 1_455 S
C628 C627 1.410 1_655 S
C628 C629 1.392 1_655 S
C628 C631 1.511 . S
C629 C625 1.376 . S
C629 C628 1.392 1_455 S
C629 H641 0.929 1_455 S
C630 C626 1.531 . S
C630 H642 0.960 . S
C630 H643 0.962 . S
C630 H644 0.960 . S
C631 C628 1.511 . S
C631 H645 0.961 . S
C631 H646 0.961 . S
C631 H647 0.961 . S
C632 C633 1.370 . S
C632 C634 1.363 . S
C632 H648 0.931 . S
C633 C632 1.370 . S
C633 C637 1.408 1_655 S
C634 C632 1.363 . S
C634 C635 1.398 . S
C634 C638 1.524 . S
C635 C627 1.492 1_655 S
C635 C634 1.398 . S
C635 C636 1.387 1_655 S
C636 C635 1.387 1_455 S
C636 C637 1.404 . S
C636 C639 1.539 . S
C637 C633 1.408 1_455 S
C637 C636 1.404 . S
C637 H649 0.930 . S
C638 C634 1.524 . S
C638 H650 0.956 . S
C638 H651 0.961 . S
C638 H652 0.961 . S
C639 C636 1.539 . S
C639 H653 0.958 . S
C639 H654 0.961 . S
C639 H655 0.960 . S
H640 C624 0.931 . S
H641 C629 0.929 1_655 S
H642 C630 0.960 . S
H643 C630 0.962 . S
H644 C630 0.960 . S
H645 C631 0.961 . S
H646 C631 0.961 . S
H647 C631 0.961 . S
H648 C632 0.931 . S
H649 C637 0.930 . S
H650 C638 0.956 . S
H651 C638 0.961 . S
H652 C638 0.961 . S
H653 C639 0.958 . S
H654 C639 0.961 . S
H655 C639 0.960 . S
C656 C657 1.391 . S
C656 C658 1.394 . S
C656 H672 0.931 . S
C657 C656 1.391 . S
C657 C661 1.376 . S
C658 C656 1.394 . S
C658 C659 1.369 . S
C658 C662 1.531 . S
C659 C658 1.369 . S
C659 C660 1.410 . S
C659 C667 1.503 . S
C660 C659 1.410 . S
C660 C661 1.392 . S
C660 C663 1.511 . S
C661 C657 1.376 . S
C661 C660 1.392 . S
C661 H673 0.929 . S
C662 C658 1.531 . S
C662 H674 0.960 . S
C662 H675 0.962 . S
C662 H676 0.960 . S
C663 C660 1.511 . S
C663 H677 0.961 . S
C663 H678 0.961 . S
C663 H679 0.961 . S
C664 C665 1.370 . S
C664 C666 1.363 . S
C664 H680 0.931 . S
C665 C664 1.370 . S
C665 C669 1.408 . S
C666 C664 1.363 . S
C666 C667 1.370 . S
C666 C670 1.524 . S
C667 C659 1.503 . S
C667 C666 1.370 . S
C667 C668 1.403 . S
C668 C667 1.403 . S
C668 C669 1.404 . S
C668 C671 1.539 . S
C669 C665 1.408 . S
C669 C668 1.404 . S
C669 H681 0.930 . S
C670 C666 1.524 . S
C670 H682 0.956 . S
C670 H683 0.961 . S
C670 H684 0.961 . S
C671 C668 1.539 . S
C671 H685 0.958 . S
C671 H686 0.961 . S
C671 H687 0.960 . S
H672 C656 0.931 . S
H673 C661 0.929 . S
H674 C662 0.960 . S
H675 C662 0.962 . S
H676 C662 0.960 . S
H677 C663 0.961 . S
H678 C663 0.961 . S
H679 C663 0.961 . S
H680 C664 0.931 . S
H681 C669 0.930 . S
H682 C670 0.956 . S
H683 C670 0.961 . S
H684 C670 0.961 . S
H685 C671 0.958 . S
H686 C671 0.961 . S
H687 C671 0.960 . S
C688 C689 1.391 . S
C688 C690 1.394 1_455 S
C688 H704 0.931 . S
C689 C688 1.391 . S
C689 C693 1.376 . S
C690 C688 1.394 1_655 S
C690 C691 1.369 . S
C690 C694 1.531 . S
C691 C690 1.369 . S
C691 C692 1.410 1_655 S
C691 C699 1.503 . S
C692 C691 1.410 1_455 S
C692 C693 1.392 . S
C692 C695 1.511 . S
C693 C689 1.376 . S
C693 C692 1.392 . S
C693 H705 0.929 . S
C694 C690 1.531 . S
C694 H706 0.960 . S
C694 H707 0.962 . S
C694 H708 0.960 . S
C695 C692 1.511 . S
C695 H709 0.961 . S
C695 H710 0.961 . S
C695 H711 0.961 1_455 S
C696 C697 1.370 1_455 S
C696 C698 1.363 . S
C696 H712 0.931 . S
C697 C696 1.370 1_655 S
C697 C701 1.408 . S
C698 C696 1.363 . S
C698 C699 1.370 1_455 S
C698 C702 1.524 . S
C699 C691 1.503 . S
C699 C698 1.370 1_655 S
C699 C700 1.403 . S
C700 C699 1.403 . S
C700 C701 1.404 . S
C700 C703 1.539 . S
C701 C697 1.408 . S
C701 C700 1.404 . S
C701 H713 0.930 . S
C702 C698 1.524 . S
C702 H714 0.956 . S
C702 H715 0.961 . S
C702 H716 0.961 . S
C703 C700 1.539 . S
C703 H717 0.958 . S
C703 H718 0.961 . S
C703 H719 0.960 . S
H704 C688 0.931 . S
H705 C693 0.929 . S
H706 C694 0.960 . S
H707 C694 0.962 . S
H708 C694 0.960 . S
H709 C695 0.961 . S
H710 C695 0.961 . S
H711 C695 0.961 1_655 S
H712 C696 0.931 . S
H713 C701 0.930 . S
H714 C702 0.956 . S
H715 C702 0.961 . S
H716 C702 0.961 . S
H717 C703 0.958 . S
H718 C703 0.961 . S
H719 C703 0.960 . S
C720 C721 1.391 . S
C720 C722 1.394 . S
C720 H736 0.931 . S
C721 C720 1.391 . S
C721 C725 1.376 . S
C722 C720 1.394 . S
C722 C723 1.369 . S
C722 C726 1.531 . S
C723 C722 1.369 . S
C723 C724 1.410 . S
C723 C731 1.503 1_455 S
C724 C723 1.410 . S
C724 C725 1.392 . S
C724 C727 1.511 . S
C725 C721 1.376 . S
C725 C724 1.392 . S
C725 H737 0.929 . S
C726 C722 1.531 . S
C726 H738 0.960 . S
C726 H739 0.962 1_455 S
C726 H740 0.960 . S
C727 C724 1.511 . S
C727 H741 0.961 . S
C727 H742 0.961 . S
C727 H743 0.961 . S
C728 C729 1.370 . S
C728 C730 1.363 . S
C728 H744 0.931 . S
C729 C728 1.370 . S
C729 C733 1.403 1_655 S
C730 C728 1.363 . S
C730 C731 1.370 . S
C730 C734 1.524 . S
C731 C723 1.503 1_655 S
C731 C730 1.370 . S
C731 C732 1.403 1_655 S
C732 C731 1.403 1_455 S
C732 C733 1.406 . S
C732 C735 1.539 . S
C733 C729 1.403 1_455 S
C733 C732 1.406 . S
C733 H745 0.933 . S
C734 C730 1.524 . S
C734 H746 0.956 . S
C734 H747 0.961 . S
C734 H748 0.961 . S
C735 C732 1.539 . S
C735 H749 0.958 . S
C735 H750 0.961 . S
C735 H751 0.960 . S
H736 C720 0.931 . S
H737 C725 0.929 . S
H738 C726 0.960 . S
H739 C726 0.962 1_655 S
H740 C726 0.960 . S
H741 C727 0.961 . S
H742 C727 0.961 . S
H743 C727 0.961 . S
H744 C728 0.931 . S
H745 C733 0.933 . S
H746 C734 0.956 . S
H747 C734 0.961 . S
H748 C734 0.961 . S
H749 C735 0.958 . S
H750 C735 0.961 . S
H751 C735 0.960 . S
C752 C753 1.391 . S
C752 C754 1.394 . S
C752 H768 0.931 . S
C753 C752 1.391 . S
C753 C757 1.376 . S
C754 C752 1.394 . S
C754 C755 1.369 . S
C754 C758 1.531 . S
C755 C754 1.369 . S
C755 C756 1.410 . S
C755 C763 1.503 . S
C756 C755 1.410 . S
C756 C757 1.392 . S
C756 C759 1.511 . S
C757 C753 1.376 . S
C757 C756 1.392 . S
C757 H769 0.929 . S
C758 C754 1.531 . S
C758 H770 0.960 . S
C758 H771 0.962 . S
C758 H772 0.960 . S
C759 C756 1.511 . S
C759 H773 0.961 . S
C759 H774 0.961 . S
C759 H775 0.961 . S
C760 C761 1.370 . S
C760 C762 1.363 . S
C760 H776 0.931 . S
C761 C760 1.370 . S
C761 C765 1.408 . S
C762 C760 1.363 . S
C762 C763 1.370 . S
C762 C766 1.524 . S
C763 C755 1.503 . S
C763 C762 1.370 . S
C763 C764 1.403 . S
C764 C763 1.403 . S
C764 C765 1.404 . S
C764 C767 1.539 . S
C765 C761 1.408 . S
C765 C764 1.404 . S
C765 H777 0.930 . S
C766 C762 1.524 . S
C766 H778 0.956 . S
C766 H779 0.961 . S
C766 H780 0.961 . S
C767 C764 1.539 . S
C767 H781 0.958 . S
C767 H782 0.961 . S
C767 H783 0.960 . S
H768 C752 0.931 . S
H769 C757 0.929 . S
H770 C758 0.960 . S
H771 C758 0.962 . S
H772 C758 0.960 . S
H773 C759 0.961 . S
H774 C759 0.961 . S
H775 C759 0.961 . S
H776 C760 0.931 . S
H777 C765 0.930 . S
H778 C766 0.956 . S
H779 C766 0.961 . S
H780 C766 0.961 . S
H781 C767 0.958 . S
H782 C767 0.961 . S
H783 C767 0.960 . S
C784 C785 1.391 . S
C784 C786 1.394 . S
C784 H800 0.931 . S
C785 C784 1.391 . S
C785 C789 1.376 . S
C786 C784 1.394 . S
C786 C787 1.369 . S
C786 C790 1.531 . S
C787 C786 1.369 . S
C787 C788 1.410 . S
C787 C795 1.503 . S
C788 C787 1.410 . S
C788 C789 1.392 . S
C788 C791 1.511 . S
C789 C785 1.376 . S
C789 C788 1.392 . S
C789 H801 0.929 . S
C790 C786 1.531 . S
C790 H802 0.960 . S
C790 H803 0.962 . S
C790 H804 0.960 . S
C791 C788 1.511 . S
C791 H805 0.961 . S
C791 H806 0.961 . S
C791 H807 0.961 . S
C792 C793 1.370 . S
C792 C794 1.363 . S
C792 H808 0.931 . S
C793 C792 1.370 . S
C793 C797 1.408 . S
C794 C792 1.363 . S
C794 C795 1.370 . S
C794 C798 1.524 . S
C795 C787 1.503 . S
C795 C794 1.370 . S
C795 C796 1.403 . S
C796 C795 1.403 . S
C796 C797 1.404 . S
C796 C799 1.539 . S
C797 C793 1.408 . S
C797 C796 1.404 . S
C797 H809 0.930 . S
C798 C794 1.524 . S
C798 H810 0.956 . S
C798 H811 0.961 . S
C798 H812 0.961 . S
C799 C796 1.539 . S
C799 H813 0.958 . S
C799 H814 0.961 . S
C799 H815 0.960 . S
H800 C784 0.931 . S
H801 C789 0.929 . S
H802 C790 0.960 . S
H803 C790 0.962 . S
H804 C790 0.960 . S
H805 C791 0.961 . S
H806 C791 0.961 . S
H807 C791 0.961 . S
H808 C792 0.931 . S
H809 C797 0.930 . S
H810 C798 0.956 . S
H811 C798 0.961 . S
H812 C798 0.961 . S
H813 C799 0.958 . S
H814 C799 0.961 . S
H815 C799 0.960 . S
C816 C817 1.391 . S
C816 C818 1.403 . S
C816 H832 0.931 . S
C817 C816 1.391 . S
C817 C821 1.376 . S
C818 C816 1.403 . S
C818 C819 1.378 . S
C818 C822 1.512 1_455 S
C819 C818 1.378 . S
C819 C820 1.410 . S
C819 C827 1.503 1_455 S
C820 C819 1.410 . S
C820 C821 1.392 . S
C820 C823 1.511 . S
C821 C817 1.376 . S
C821 C820 1.392 . S
C821 H833 0.929 . S
C822 C818 1.512 1_655 S
C822 H834 0.960 . S
C822 H835 0.962 . S
C822 H836 0.960 . S
C823 C820 1.511 . S
C823 H837 0.961 . S
C823 H838 0.961 . S
C823 H839 0.961 . S
C824 C825 1.370 . S
C824 C826 1.363 . S
C824 H840 0.931 . S
C825 C824 1.370 . S
C825 C829 1.408 . S
C826 C824 1.363 . S
C826 C827 1.370 . S
C826 C830 1.524 . S
C827 C819 1.503 1_655 S
C827 C826 1.370 . S
C827 C828 1.403 1_655 S
C828 C827 1.403 1_455 S
C828 C829 1.404 1_455 S
C828 C831 1.539 . S
C829 C825 1.408 . S
C829 C828 1.404 1_655 S
C829 H841 0.935 . S
C830 C826 1.524 . S
C830 H842 0.956 . S
C830 H843 0.961 . S
C830 H844 0.961 . S
C831 C828 1.539 . S
C831 H845 0.958 . S
C831 H846 0.961 . S
C831 H847 0.960 . S
H832 C816 0.931 . S
H833 C821 0.929 . S
H834 C822 0.960 . S
H835 C822 0.962 . S
H836 C822 0.960 . S
H837 C823 0.961 . S
H838 C823 0.961 . S
H839 C823 0.961 . S
H840 C824 0.931 . S
H841 C829 0.935 . S
H842 C830 0.956 . S
H843 C830 0.961 . S
H844 C830 0.961 . S
H845 C831 0.958 . S
H846 C831 0.961 . S
H847 C831 0.960 . S
C848 C849 1.391 . S
C848 C850 1.394 1_455 S
C848 H864 0.931 1_455 S
C849 C848 1.391 . S
C849 C853 1.376 . S
C850 C848 1.394 1_655 S
C850 C851 1.369 1_655 S
C850 C854 1.531 . S
C851 C850 1.369 1_455 S
C851 C852 1.410 . S
C851 C859 1.503 1_455 S
C852 C851 1.410 . S
C852 C853 1.392 . S
C852 C855 1.511 . S
C853 C849 1.376 . S
C853 C852 1.392 . S
C853 H865 0.929 . S
C854 C850 1.531 . S
C854 H866 0.960 . S
C854 H867 0.962 . S
C854 H868 0.960 . S
C855 C852 1.511 . S
C855 H869 0.961 . S
C855 H870 0.961 . S
C855 H871 0.961 . S
C856 C857 1.370 . S
C856 C858 1.363 . S
C856 H872 0.931 . S
C857 C856 1.370 . S
C857 C861 1.408 . S
C858 C856 1.363 . S
C858 C859 1.370 . S
C858 C862 1.524 . S
C859 C851 1.503 1_655 S
C859 C858 1.370 . S
C859 C860 1.403 . S
C860 C859 1.403 . S
C860 C861 1.404 . S
C860 C863 1.539 1_655 S
C861 C857 1.408 . S
C861 C860 1.404 . S
C861 H873 0.930 . S
C862 C858 1.524 . S
C862 H874 0.956 . S
C862 H875 0.961 1_655 S
C862 H876 0.961 . S
C863 C860 1.539 1_455 S
C863 H877 0.958 1_455 S
C863 H878 0.961 . S
C863 H879 0.960 . S
H864 C848 0.931 1_655 S
H865 C853 0.929 . S
H866 C854 0.960 . S
H867 C854 0.962 . S
H868 C854 0.960 . S
H869 C855 0.961 . S
H870 C855 0.961 . S
H871 C855 0.961 . S
H872 C856 0.931 . S
H873 C861 0.930 . S
H874 C862 0.956 . S
H875 C862 0.961 1_455 S
H876 C862 0.961 . S
H877 C863 0.958 1_655 S
H878 C863 0.961 . S
H879 C863 0.960 . S
C880 C881 1.391 . S
C880 C882 1.394 . S
C880 H896 0.931 . S
C881 C880 1.391 . S
C881 C885 1.376 . S
C882 C880 1.394 . S
C882 C883 1.369 . S
C882 C886 1.531 . S
C883 C882 1.369 . S
C883 C884 1.410 . S
C883 C891 1.503 . S
C884 C883 1.410 . S
C884 C885 1.392 . S
C884 C887 1.511 . S
C885 C881 1.376 . S
C885 C884 1.392 . S
C885 H897 0.929 . S
C886 C882 1.531 . S
C886 H898 0.960 . S
C886 H899 0.962 . S
C886 H900 0.960 . S
C887 C884 1.511 . S
C887 H901 0.961 . S
C887 H902 0.961 . S
C887 H903 0.961 . S
C888 C889 1.370 . S
C888 C890 1.363 . S
C888 H904 0.931 . S
C889 C888 1.370 . S
C889 C893 1.408 . S
C890 C888 1.363 . S
C890 C891 1.370 . S
C890 C894 1.524 . S
C891 C883 1.503 . S
C891 C890 1.370 . S
C891 C892 1.403 . S
C892 C891 1.403 . S
C892 C893 1.404 . S
C892 C895 1.539 . S
C893 C889 1.408 . S
C893 C892 1.404 . S
C893 H905 0.930 . S
C894 C890 1.524 . S
C894 H906 0.956 . S
C894 H907 0.961 . S
C894 H908 0.961 . S
C895 C892 1.539 . S
C895 H909 0.958 . S
C895 H910 0.961 . S
C895 H911 0.960 . S
H896 C880 0.931 . S
H897 C885 0.929 . S
H898 C886 0.960 . S
H899 C886 0.962 . S
H900 C886 0.960 . S
H901 C887 0.961 . S
H902 C887 0.961 . S
H903 C887 0.961 . S
H904 C888 0.931 . S
H905 C893 0.930 . S
H906 C894 0.956 . S
H907 C894 0.961 . S
H908 C894 0.961 . S
H909 C895 0.958 . S
H910 C895 0.961 . S
H911 C895 0.960 . S
C912 C913 1.391 . S
C912 C914 1.394 . S
C912 H928 0.931 . S
C913 C912 1.391 . S
C913 C917 1.376 . S
C914 C912 1.394 . S
C914 C915 1.369 . S
C914 C918 1.531 . S
C915 C914 1.369 . S
C915 C916 1.410 . S
C915 C923 1.503 . S
C916 C915 1.410 . S
C916 C917 1.392 . S
C916 C919 1.511 . S
C917 C913 1.376 . S
C917 C916 1.392 . S
C917 H929 0.929 . S
C918 C914 1.531 . S
C918 H930 0.960 . S
C918 H931 0.962 . S
C918 H932 0.960 . S
C919 C916 1.511 . S
C919 H933 0.961 . S
C919 H934 0.961 . S
C919 H935 0.961 . S
C920 C921 1.370 . S
C920 C922 1.363 . S
C920 H936 0.931 . S
C921 C920 1.370 . S
C921 C925 1.408 . S
C922 C920 1.363 . S
C922 C923 1.370 . S
C922 C926 1.524 . S
C923 C915 1.503 . S
C923 C922 1.370 . S
C923 C924 1.403 . S
C924 C923 1.403 . S
C924 C925 1.404 . S
C924 C927 1.539 . S
C925 C921 1.408 . S
C925 C924 1.404 . S
C925 H937 0.930 . S
C926 C922 1.524 . S
C926 H938 0.956 . S
C926 H939 0.961 . S
C926 H940 0.961 . S
C927 C924 1.539 . S
C927 H941 0.958 . S
C927 H942 0.961 . S
C927 H943 0.960 . S
H928 C912 0.931 . S
H929 C917 0.929 . S
H930 C918 0.960 . S
H931 C918 0.962 . S
H932 C918 0.960 . S
H933 C919 0.961 . S
H934 C919 0.961 . S
H935 C919 0.961 . S
H936 C920 0.931 . S
H937 C925 0.930 . S
H938 C926 0.956 . S
H939 C926 0.961 . S
H940 C926 0.961 . S
H941 C927 0.958 . S
H942 C927 0.961 . S
H943 C927 0.960 . S
C944 C945 1.391 . S
C944 C946 1.394 1_455 S
C944 H960 0.931 1_455 S
C945 C944 1.391 . S
C945 C949 1.376 . S
C946 C944 1.394 1_655 S
C946 C947 1.369 1_655 S
C946 C950 1.531 . S
C947 C946 1.369 1_455 S
C947 C948 1.410 . S
C947 C955 1.503 1_455 S
C948 C947 1.410 . S
C948 C949 1.392 . S
C948 C951 1.511 . S
C949 C945 1.376 . S
C949 C948 1.392 . S
C949 H961 0.929 . S
C950 C946 1.531 . S
C950 H962 0.960 . S
C950 H963 0.962 . S
C950 H964 0.960 . S
C951 C948 1.511 . S
C951 H965 0.961 . S
C951 H966 0.961 . S
C951 H967 0.961 . S
C952 C953 1.370 . S
C952 C954 1.363 . S
C952 H968 0.931 . S
C953 C952 1.370 . S
C953 C957 1.408 . S
C954 C952 1.363 . S
C954 C955 1.370 . S
C954 C958 1.524 . S
C955 C947 1.503 1_655 S
C955 C954 1.370 . S
C955 C956 1.403 1_655 S
C956 C955 1.403 1_455 S
C956 C957 1.404 1_455 S
C956 C959 1.539 . S
C957 C953 1.408 . S
C957 C956 1.404 1_655 S
C957 H969 0.930 . S
C958 C954 1.524 . S
C958 H970 0.956 . S
C958 H971 0.961 . S
C958 H972 0.961 . S
C959 C956 1.539 . S
C959 H973 0.958 . S
C959 H974 0.961 . S
C959 H975 0.960 . S
H960 C944 0.931 1_655 S
H961 C949 0.929 . S
H962 C950 0.960 . S
H963 C950 0.962 . S
H964 C950 0.960 . S
H965 C951 0.961 . S
H966 C951 0.961 . S
H967 C951 0.961 . S
H968 C952 0.931 . S
H969 C957 0.930 . S
H970 C958 0.956 . S
H971 C958 0.961 . S
H972 C958 0.961 . S
H973 C959 0.958 . S
H974 C959 0.961 . S
H975 C959 0.960 . S
C976 C977 1.381 1_445 S
C976 C978 1.398 . S
C976 H992 0.936 . S
C977 C976 1.381 1_665 S
C977 C981 1.376 . S
C978 C976 1.398 . S
C978 C979 1.369 1_455 S
C978 C982 1.531 . S
C979 C978 1.369 1_655 S
C979 C980 1.410 1_545 S
C979 C987 1.503 1_656 S
C980 C979 1.410 1_565 S
C980 C981 1.392 . S
C980 C983 1.511 1_556 S
C981 C977 1.376 . S
C981 C980 1.392 . S
C981 H993 0.929 . S
C982 C978 1.531 . S
C982 H994 0.960 . S
C982 H995 0.962 . S
C982 H996 0.960 . S
C983 C980 1.511 1_554 S
C983 H997 0.961 . S
C983 H998 0.961 . S
C983 H999 0.961 . S
C984 C985 1.370 1_565 S
C984 C986 1.363 . S
C984 H1000 0.931 . S
C985 C984 1.370 1_545 S
C985 C989 1.408 . S
C986 C984 1.363 . S
C986 C987 1.370 1_565 S
C986 C990 1.524 . S
C987 C979 1.503 1_454 S
C987 C986 1.370 1_545 S
C987 C988 1.403 1_455 S
C988 C987 1.403 1_655 S
C988 C989 1.404 1_655 S
C988 C991 1.539 . S
C989 C985 1.408 . S
C989 C988 1.404 1_455 S
C989 H1001 0.930 1_455 S
C990 C986 1.524 . S
C990 H1002 0.956 1_554 S
C990 H1003 0.961 . S
C990 H1004 0.961 . S
C991 C988 1.539 . S
C991 H1005 0.958 . S
C991 H1006 0.961 . S
C991 H1007 0.985 . S
H992 C976 0.936 . S
H993 C981 0.929 . S
H994 C982 0.960 . S
H995 C982 0.962 . S
H996 C982 0.960 . S
H997 C983 0.961 . S
H998 C983 0.961 . S
H999 C983 0.961 . S
H1000 C984 0.931 . S
H1001 C989 0.930 1_655 S
H1002 C990 0.956 1_556 S
H1003 C990 0.961 . S
H1004 C990 0.961 . S
H1005 C991 0.958 . S
H1006 C991 0.961 . S
H1007 C991 0.985 . S
C1008 C1009 1.391 . S
C1008 C1010 1.383 1_545 S
C1008 H1024 0.931 . S
C1009 C1008 1.391 . S
C1009 C1013 1.376 . S
C1010 C1008 1.383 1_565 S
C1010 C1011 1.371 . S
C1010 C1014 1.541 . S
C1011 C1010 1.371 . S
C1011 C1012 1.410 1_565 S
C1011 C1019 1.503 1_556 S
C1012 C1011 1.410 1_545 S
C1012 C1013 1.392 . S
C1012 C1015 1.511 1_556 S
C1013 C1009 1.376 . S
C1013 C1012 1.392 . S
C1013 H1025 0.929 . S
C1014 C1010 1.541 . S
C1014 H1026 0.960 . S
C1014 H1027 0.962 1_565 S
C1014 H1028 0.960 . S
C1015 C1012 1.511 1_554 S
C1015 H1029 0.961 1_554 S
C1015 H1030 0.961 . S
C1015 H1031 0.961 1_545 S
C1016 C1017 1.370 1_545 S
C1016 C1018 1.363 . S
C1016 H1032 0.931 . S
C1017 C1016 1.370 1_565 S
C1017 C1021 1.408 . S
C1018 C1016 1.363 . S
C1018 C1019 1.370 1_545 S
C1018 C1022 1.524 . S
C1019 C1011 1.503 1_554 S
C1019 C1018 1.370 1_565 S
C1019 C1020 1.403 . S
C1020 C1019 1.403 . S
C1020 C1021 1.404 . S
C1020 C1023 1.539 . S
C1021 C1017 1.408 . S
C1021 C1020 1.404 . S
C1021 H1033 0.930 . S
C1022 C1018 1.524 . S
C1022 H1034 0.956 . S
C1022 H1035 0.961 . S
C1022 H1036 0.961 . S
C1023 C1020 1.539 . S
C1023 H1037 0.958 1_554 S
C1023 H1038 0.961 . S
C1023 H1039 0.960 1_554 S
H1024 C1008 0.931 . S
H1025 C1013 0.929 . S
H1026 C1014 0.960 . S
H1027 C1014 0.962 1_545 S
H1028 C1014 0.960 . S
H1029 C1015 0.961 1_556 S
H1030 C1015 0.961 . S
H1031 C1015 0.961 1_565 S
H1032 C1016 0.931 . S
H1033 C1021 0.930 . S
H1034 C1022 0.956 . S
H1035 C1022 0.961 . S
H1036 C1022 0.961 . S
H1037 C1023 0.958 1_556 S
H1038 C1023 0.961 . S
H1039 C1023 0.960 1_556 S
C1040 C1041 1.391 1_565 S
C1040 C1042 1.394 . S
C1040 H1056 0.931 . S
C1041 C1040 1.391 1_545 S
C1041 C1045 1.376 . S
C1042 C1040 1.394 . S
C1042 C1043 1.369 . S
C1042 C1046 1.531 . S
C1043 C1042 1.369 . S
C1043 C1044 1.410 1_565 S
C1043 C1051 1.503 . S
C1044 C1043 1.410 1_545 S
C1044 C1045 1.392 . S
C1044 C1047 1.511 . S
C1045 C1041 1.376 . S
C1045 C1044 1.392 . S
C1045 H1057 0.929 . S
C1046 C1042 1.531 . S
C1046 H1058 0.960 . S
C1046 H1059 0.962 . S
C1046 H1060 0.960 . S
C1047 C1044 1.511 . S
C1047 H1061 0.961 . S
C1047 H1062 0.961 . S
C1047 H1063 0.961 . S
C1048 C1049 1.370 1_545 S
C1048 C1050 1.363 . S
C1048 H1064 0.931 . S
C1049 C1048 1.370 1_565 S
C1049 C1053 1.408 . S
C1050 C1048 1.363 . S
C1050 C1051 1.370 1_545 S
C1050 C1054 1.524 . S
C1051 C1043 1.503 . S
C1051 C1050 1.370 1_565 S
C1051 C1052 1.403 . S
C1052 C1051 1.403 . S
C1052 C1053 1.404 . S
C1052 C1055 1.539 . S
C1053 C1049 1.408 . S
C1053 C1052 1.404 . S
C1053 H1065 0.930 . S
C1054 C1050 1.524 . S
C1054 H1066 0.956 . S
C1054 H1067 0.961 . S
C1054 H1068 0.961 . S
C1055 C1052 1.539 . S
C1055 H1069 0.958 . S
C1055 H1070 0.961 . S
C1055 H1071 0.960 . S
H1056 C1040 0.931 . S
H1057 C1045 0.929 . S
H1058 C1046 0.960 . S
H1059 C1046 0.962 . S
H1060 C1046 0.960 . S
H1061 C1047 0.961 . S
H1062 C1047 0.961 . S
H1063 C1047 0.961 . S
H1064 C1048 0.931 . S
H1065 C1053 0.930 . S
H1066 C1054 0.956 . S
H1067 C1054 0.961 . S
H1068 C1054 0.961 . S
H1069 C1055 0.958 . S
H1070 C1055 0.961 . S
H1071 C1055 0.960 . S
C1072 C1073 1.391 1_545 S
C1072 C1074 1.394 . S
C1072 H1088 0.931 . S
C1073 C1072 1.391 1_565 S
C1073 C1077 1.376 . S
C1074 C1072 1.394 . S
C1074 C1075 1.354 1_545 S
C1074 C1078 1.531 1_455 S
C1075 C1074 1.354 1_565 S
C1075 C1076 1.433 . S
C1075 C1083 1.492 1_465 S
C1076 C1075 1.433 . S
C1076 C1077 1.392 . S
C1076 C1079 1.511 . S
C1077 C1073 1.376 . S
C1077 C1076 1.392 . S
C1077 H1089 0.929 . S
C1078 C1074 1.531 1_655 S
C1078 H1090 0.960 . S
C1078 H1091 0.962 . S
C1078 H1092 0.960 . S
C1079 C1076 1.511 . S
C1079 H1093 0.961 . S
C1079 H1094 0.961 . S
C1079 H1095 0.961 . S
C1080 C1081 1.370 . S
C1080 C1082 1.363 1_545 S
C1080 H1096 0.931 1_545 S
C1081 C1080 1.370 . S
C1081 C1085 1.408 1_655 S
C1082 C1080 1.363 1_565 S
C1082 C1083 1.386 1_565 S
C1082 C1086 1.524 . S
C1083 C1075 1.492 1_645 S
C1083 C1082 1.386 1_545 S
C1083 C1084 1.393 1_655 S
C1084 C1083 1.393 1_455 S
C1084 C1085 1.404 . S
C1084 C1087 1.539 . S
C1085 C1081 1.408 1_455 S
C1085 C1084 1.404 . S
C1085 H1097 0.930 . S
C1086 C1082 1.524 . S
C1086 H1098 0.956 . S
C1086 H1099 0.961 . S
C1086 H1100 0.961 . S
C1087 C1084 1.539 . S
C1087 H1101 0.958 . S
C1087 H1102 0.961 . S
C1087 H1103 0.960 . S
H1088 C1072 0.931 . S
H1089 C1077 0.929 . S
H1090 C1078 0.960 . S
H1091 C1078 0.962 . S
H1092 C1078 0.960 . S
H1093 C1079 0.961 . S
H1094 C1079 0.961 . S
H1095 C1079 0.961 . S
H1096 C1080 0.931 1_565 S
H1097 C1085 0.930 . S
H1098 C1086 0.956 . S
H1099 C1086 0.961 . S
H1100 C1086 0.961 . S
H1101 C1087 0.958 . S
H1102 C1087 0.961 . S
H1103 C1087 0.960 . S
C1104 C1105 1.391 . S
C1104 C1106 1.394 . S
C1104 H1120 0.931 . S
C1105 C1104 1.391 . S
C1105 C1109 1.376 . S
C1106 C1104 1.394 . S
C1106 C1107 1.369 . S
C1106 C1110 1.531 . S
C1107 C1106 1.369 . S
C1107 C1108 1.410 . S
C1107 C1115 1.503 1_554 S
C1108 C1107 1.410 . S
C1108 C1109 1.392 . S
C1108 C1111 1.511 . S
C1109 C1105 1.376 . S
C1109 C1108 1.392 . S
C1109 H1121 0.929 . S
C1110 C1106 1.531 . S
C1110 H1122 0.960 1_554 S
C1110 H1123 0.962 . S
C1110 H1124 0.960 . S
C1111 C1108 1.511 . S
C1111 H1125 0.961 . S
C1111 H1126 0.961 1_554 S
C1111 H1127 0.961 1_554 S
C1112 C1113 1.370 . S
C1112 C1114 1.363 . S
C1112 H1128 0.931 . S
C1113 C1112 1.370 . S
C1113 C1117 1.408 . S
C1114 C1112 1.363 . S
C1114 C1115 1.370 . S
C1114 C1118 1.524 1_556 S
C1115 C1107 1.503 1_556 S
C1115 C1114 1.370 . S
C1115 C1116 1.403 . S
C1116 C1115 1.403 . S
C1116 C1117 1.404 . S
C1116 C1119 1.539 . S
C1117 C1113 1.408 . S
C1117 C1116 1.404 . S
C1117 H1129 0.930 . S
C1118 C1114 1.524 1_554 S
C1118 H1130 0.956 . S
C1118 H1131 0.961 . S
C1118 H1132 0.961 . S
C1119 C1116 1.539 . S
C1119 H1133 0.958 . S
C1119 H1134 0.961 . S
C1119 H1135 0.960 . S
H1120 C1104 0.931 . S
H1121 C1109 0.929 . S
H1122 C1110 0.960 1_556 S
H1123 C1110 0.962 . S
H1124 C1110 0.960 . S
H1125 C1111 0.961 . S
H1126 C1111 0.961 1_556 S
H1127 C1111 0.961 1_556 S
H1128 C1112 0.931 . S
H1129 C1117 0.930 . S
H1130 C1118 0.956 . S
H1131 C1118 0.961 . S
H1132 C1118 0.961 . S
H1133 C1119 0.958 . S
H1134 C1119 0.961 . S
H1135 C1119 0.960 . S
C1136 C1137 1.391 1_455 S
C1136 C1138 1.394 . S
C1136 H1152 0.931 . S
C1137 C1136 1.391 1_655 S
C1137 C1141 1.376 . S
C1138 C1136 1.394 . S
C1138 C1139 1.369 1_455 S
C1138 C1142 1.531 . S
C1139 C1138 1.369 1_655 S
C1139 C1140 1.410 . S
C1139 C1147 1.503 1_654 S
C1140 C1139 1.410 . S
C1140 C1141 1.392 . S
C1140 C1143 1.511 1_554 S
C1141 C1137 1.376 . S
C1141 C1140 1.392 . S
C1141 H1153 0.929 . S
C1142 C1138 1.531 . S
C1142 H1154 0.960 . S
C1142 H1155 0.962 . S
C1142 H1156 0.960 . S
C1143 C1140 1.511 1_556 S
C1143 H1157 0.961 1_556 S
C1143 H1158 0.961 . S
C1143 H1159 0.961 . S
C1144 C1145 1.370 . S
C1144 C1146 1.363 . S
C1144 H1160 0.931 . S
C1145 C1144 1.370 . S
C1145 C1149 1.408 . S
C1146 C1144 1.363 . S
C1146 C1147 1.370 . S
C1146 C1150 1.524 1_456 S
C1147 C1139 1.503 1_456 S
C1147 C1146 1.370 . S
C1147 C1148 1.403 . S
C1148 C1147 1.403 . S
C1148 C1149 1.404 . S
C1148 C1151 1.539 . S
C1149 C1145 1.408 . S
C1149 C1148 1.404 . S
C1149 H1161 0.930 . S
C1150 C1146 1.524 1_654 S
C1150 H1162 0.956 1_655 S
C1150 H1163 0.961 . S
C1150 H1164 0.961 1_554 S
C1151 C1148 1.539 . S
C1151 H1165 0.958 . S
C1151 H1166 0.961 . S
C1151 H1167 0.960 1_455 S
H1152 C1136 0.931 . S
H1153 C1141 0.929 . S
H1154 C1142 0.960 . S
H1155 C1142 0.962 . S
H1156 C1142 0.960 . S
H1157 C1143 0.961 1_554 S
H1158 C1143 0.961 . S
H1159 C1143 0.961 . S
H1160 C1144 0.931 . S
H1161 C1149 0.930 . S
H1162 C1150 0.956 1_455 S
H1163 C1150 0.961 . S
H1164 C1150 0.961 1_556 S
H1165 C1151 0.958 . S
H1166 C1151 0.961 . S
H1167 C1151 0.960 1_655 S
C1168 C1169 1.391 . S
C1168 C1170 1.390 1_655 S
C1168 H1184 0.927 1_655 S
C1169 C1168 1.391 . S
C1169 C1173 1.376 . S
C1170 C1168 1.390 1_455 S
C1170 C1171 1.363 1_455 S
C1170 C1174 1.541 . S
C1171 C1170 1.363 1_655 S
C1171 C1172 1.410 . S
C1171 C1179 1.492 1_655 S
C1172 C1171 1.410 . S
C1172 C1173 1.392 . S
C1172 C1175 1.511 . S
C1173 C1169 1.376 . S
C1173 C1172 1.392 . S
C1173 H1185 0.929 . S
C1174 C1170 1.541 . S
C1174 H1186 0.960 . S
C1174 H1187 0.962 . S
C1174 H1188 0.960 . S
C1175 C1172 1.511 . S
C1175 H1189 0.961 . S
C1175 H1190 0.961 . S
C1175 H1191 0.961 . S
C1176 C1177 1.370 . S
C1176 C1178 1.363 . S
C1176 H1192 0.931 . S
C1177 C1176 1.370 . S
C1177 C1181 1.408 1_455 S
C1178 C1176 1.363 . S
C1178 C1179 1.400 . S
C1178 C1182 1.524 . S
C1179 C1171 1.492 1_455 S
C1179 C1178 1.400 . S
C1179 C1180 1.385 1_455 S
C1180 C1179 1.385 1_655 S
C1180 C1181 1.404 . S
C1180 C1183 1.539 . S
C1181 C1177 1.408 1_655 S
C1181 C1180 1.404 . S
C1181 H1193 0.930 . S
C1182 C1178 1.524 . S
C1182 H1194 0.956 . S
C1182 H1195 0.961 . S
C1182 H1196 0.961 . S
C1183 C1180 1.539 . S
C1183 H1197 0.958 . S
C1183 H1198 0.961 . S
C1183 H1199 0.960 . S
H1184 C1168 0.927 1_455 S
H1185 C1173 0.929 . S
H1186 C1174 0.960 . S
H1187 C1174 0.962 . S
H1188 C1174 0.960 . S
H1189 C1175 0.961 . S
H1190 C1175 0.961 . S
H1191 C1175 0.961 . S
H1192 C1176 0.931 . S
H1193 C1181 0.930 . S
H1194 C1182 0.956 . S
H1195 C1182 0.961 . S
H1196 C1182 0.961 . S
H1197 C1183 0.958 . S
H1198 C1183 0.961 . S
H1199 C1183 0.960 . S
C1200 C1201 1.391 . S
C1200 C1202 1.394 . S
C1200 H1216 0.931 . S
C1201 C1200 1.391 . S
C1201 C1205 1.376 . S
C1202 C1200 1.394 . S
C1202 C1203 1.369 . S
C1202 C1206 1.531 . S
C1203 C1202 1.369 . S
C1203 C1204 1.410 . S
C1203 C1211 1.503 . S
C1204 C1203 1.410 . S
C1204 C1205 1.392 . S
C1204 C1207 1.511 . S
C1205 C1201 1.376 . S
C1205 C1204 1.392 . S
C1205 H1217 0.929 . S
C1206 C1202 1.531 . S
C1206 H1218 0.960 . S
C1206 H1219 0.962 . S
C1206 H1220 0.960 . S
C1207 C1204 1.511 . S
C1207 H1221 0.961 . S
C1207 H1222 0.961 . S
C1207 H1223 0.961 . S
C1208 C1209 1.370 . S
C1208 C1210 1.363 . S
C1208 H1224 0.931 . S
C1209 C1208 1.370 . S
C1209 C1213 1.408 . S
C1210 C1208 1.363 . S
C1210 C1211 1.370 . S
C1210 C1214 1.524 . S
C1211 C1203 1.503 . S
C1211 C1210 1.370 . S
C1211 C1212 1.403 . S
C1212 C1211 1.403 . S
C1212 C1213 1.404 . S
C1212 C1215 1.539 . S
C1213 C1209 1.408 . S
C1213 C1212 1.404 . S
C1213 H1225 0.930 . S
C1214 C1210 1.524 . S
C1214 H1226 0.956 . S
C1214 H1227 0.961 . S
C1214 H1228 0.961 . S
C1215 C1212 1.539 . S
C1215 H1229 0.958 . S
C1215 H1230 0.961 . S
C1215 H1231 0.960 . S
H1216 C1200 0.931 . S
H1217 C1205 0.929 . S
H1218 C1206 0.960 . S
H1219 C1206 0.962 . S
H1220 C1206 0.960 . S
H1221 C1207 0.961 . S
H1222 C1207 0.961 . S
H1223 C1207 0.961 . S
H1224 C1208 0.931 . S
H1225 C1213 0.930 . S
H1226 C1214 0.956 . S
H1227 C1214 0.961 . S
H1228 C1214 0.961 . S
H1229 C1215 0.958 . S
H1230 C1215 0.961 . S
H1231 C1215 0.960 . S
C209 C13 1.441 . S
C217 C0 1.441 . S
C241 C26 1.423 . S
C249 C39 1.451 . S
C273 C52 1.453 . S
C281 C65 1.461 . S
C305 C91 1.463 . S
C313 C78 1.463 . S
C337 C117 1.471 . S
C345 C104 1.450 . S
C369 C143 1.426 . S
C377 C130 1.443 . S
C401 C169 1.435 . S
C409 C156 1.441 . S
C433 C195 1.472 . S
C441 C182 1.455 . S
C465 C49 1.204 . S
C473 C10 1.213 . S
C497 C23 1.203 . S
C505 C36 1.212 . S
C529 C101 1.217 . S
C537 C62 1.215 . S
C561 C88 1.214 . S
C569 C75 1.216 . S
C593 C114 1.203 . S
C601 C153 1.213 . S
C625 C140 1.209 . S
C633 C127 1.210 . S
C657 C205 1.215 . S
C665 C166 1.216 . S
C689 C179 1.205 . S
C697 C192 1.213 . S
C721 C5 1.479 . S
C729 C122 1.443 . S
C753 C18 1.455 . S
C761 C109 1.440 . S
C785 C148 1.435 . S
C793 C31 1.469 . S
C817 C135 1.461 . S
C825 C44 1.440 . S
C849 C174 1.476 . S
C857 C57 1.456 . S
C881 C161 1.473 . S
C889 C70 1.458 . S
C913 C83 1.482 . S
C921 C200 1.451 . S
C945 C96 1.482 . S
C953 C187 1.451 . S
C977 C60 1.067 . S
C985 C8 1.016 . S
C1009 C73 1.075 . S
C1017 C21 1.011 . S
C1041 C86 1.063 . S
C1049 C34 1.018 . S
C1073 C99 1.050 . S
C1081 C47 1.024 . S
C1105 C112 0.986 . S
C1113 C164 1.045 . S
C1137 C125 0.979 . S
C1145 C177 1.050 . S
C1169 C190 1.057 . S
C1177 C138 1.021 . S
C1201 C203 1.043 . S
C1209 C151 1.027 . S
