# Generated by pormake.
# Topology rob, (6)-cn, num edge types: 1
# Building blocks:
#     Node 0, Type 0, BuildingBlock: KUMJIN_clean_sbu_0, # of connection points: 6
#     Node 1, Type 0, BuildingBlock: KUMJIN_clean_sbu_0, # of connection points: 6
#     Node 2, Type 0, BuildingBlock: KUMJIN_clean_sbu_0, # of connection points: 6
#     Node 3, Type 0, BuildingBlock: KUMJIN_clean_sbu_0, # of connection points: 6
#     Edge 4, Type (0, 0), BuildingBlock: CIFDUS_clean_linker_0, # of connection points: 2
#     Edge 5, Type (0, 0), BuildingBlock: CIFDUS_clean_linker_0, # of connection points: 2
#     Edge 6, Type (0, 0), BuildingBlock: CIFDUS_clean_linker_0, # of connection points: 2
#     Edge 7, Type (0, 0), BuildingBlock: CIFDUS_clean_linker_0, # of connection points: 2
#     Edge 8, Type (0, 0), BuildingBlock: CIFDUS_clean_linker_0, # of connection points: 2
#     Edge 9, Type (0, 0), BuildingBlock: CIFDUS_clean_linker_0, # of connection points: 2
#     Edge 10, Type (0, 0), BuildingBlock: CIFDUS_clean_linker_0, # of connection points: 2
#     Edge 11, Type (0, 0), BuildingBlock: CIFDUS_clean_linker_0, # of connection points: 2
#     Edge 12, Type (0, 0), BuildingBlock: CIFDUS_clean_linker_0, # of connection points: 2
#     Edge 13, Type (0, 0), BuildingBlock: CIFDUS_clean_linker_0, # of connection points: 2
#     Edge 14, Type (0, 0), BuildingBlock: CIFDUS_clean_linker_0, # of connection points: 2
#     Edge 15, Type (0, 0), BuildingBlock: CIFDUS_clean_linker_0, # of connection points: 2
# Relax obj value: 0.037
# Max RMSD: 0.166
# Mean RMSD: 0.166
data_MOF--net-rob--node1-KUMJIN_clean_sbu_0--edge1-CIFDUS_clean_linker_0
_symmetry_space_group_name_H-M    P1
_symmetry_Int_Tables_number       1
_symmetry_cell_setting            triclinic
loop_
_symmetry_equiv_pos_as_xyz
'x, y, z'
_cell_length_a     14.77057
_cell_length_b     22.295484
_cell_length_c     30.852368
_cell_angle_alpha  118.78383
_cell_angle_beta   89.568974
_cell_angle_gamma 89.777232
loop_
_atom_site_label
_atom_site_type_symbol
_atom_site_fract_x
_atom_site_fract_y
_atom_site_fract_z
_atom_type_partial_charge
Eu0 Eu 0.15944 0.30724 0.06033 0.0
C1 C 0.45238 0.07071 0.96041 0.0
C2 C 0.58214 0.11428 1.01449 0.0
C3 C 0.56998 0.99256 0.95831 0.0
C4 C 0.49925 0.12591 0.99694 0.0
C5 C 0.48747 1.00366 0.94103 0.0
C6 C 0.61734 0.04764 0.99471 0.0
C7 C 0.35966 0.96251 0.88623 0.0
N8 N 0.37432 0.08245 0.94253 0.0
C9 C 0.32963 0.02992 0.9047 0.0
C10 C 0.43828 0.94939 0.90498 0.0
Eu11 Eu 0.33382 0.19817 0.97268 0.0
N12 N 0.46592 0.19066 1.01412 0.0
C13 C 0.51314 0.24539 0.04883 0.0
C14 C 0.6284 0.17002 0.05099 0.0
C15 C 0.59357 0.23574 0.06828 0.0
H16 H 0.2689 0.03987 0.88988 0.0
H17 H 0.62933 0.27933 0.09628 0.0
H18 H 0.68072 0.03802 1.00775 0.0
H19 H 0.32228 0.92077 0.85757 0.0
H20 H 0.48969 0.29723 0.06297 0.0
H21 H 0.84927 0.25323 0.95286 0.0
H22 H 0.69155 0.1629 0.06568 0.0
H23 H 0.24237 0.45761 0.14475 0.0
H24 H 0.98633 0.22523 0.98465 0.0
H25 H 0.21513 0.58106 0.17488 0.0
H26 H 0.5967 0.9414 0.94465 0.0
H27 H 0.81142 0.37396 0.97828 0.0
H28 H 0.84998 0.49846 0.02889 0.0
H29 H 0.46032 0.89723 0.89167 0.0
H30 H 0.95586 0.58624 0.08418 0.0
N31 N 0.02822 0.32877 0.0263 0.0
C32 C 0.97141 0.27808 0.99575 0.0
C33 C 0.87196 0.3619 0.99226 0.0
C34 C 0.92859 0.41376 0.02513 0.0
C35 C 0.8932 0.29375 0.97777 0.0
C36 C 0.00719 0.39533 0.0418 0.0
H37 H 0.09046 0.61801 0.13975 0.0
N38 N 0.13459 0.42593 0.09328 0.0
C39 C 0.17184 0.54339 0.14698 0.0
C40 C 0.06266 0.44536 0.07588 0.0
C41 C 0.18693 0.47358 0.12994 0.0
C42 C 0.10111 0.56411 0.12732 0.0
C43 C 0.04367 0.51504 0.0926 0.0
O44 O 0.14347 0.34163 0.13939 0.0
O45 O 0.27861 0.24028 0.04863 0.0
O46 O 0.24091 0.12726 0.98513 0.0
O47 O 0.11287 0.19598 0.02122 0.0
O48 O 0.27734 0.33106 0.11311 0.0
O49 O 0.04629 0.27133 0.08708 0.0
O50 O 0.43834 0.15695 0.915 0.0
O51 O 0.20904 0.25887 0.98216 0.0
O52 O 0.2447 0.37205 0.0377 0.0
O53 O 0.37882 0.30865 0.01598 0.0
O54 O 0.21382 0.16397 0.92049 0.0
O55 O 0.35748 0.24221 0.92355 0.0
C56 C 0.31892 0.27311 0.08903 0.0
C57 C 8e-05 0.33356 0.17123 0.0
C58 C 0.93131 0.33585 0.24432 0.0
C59 C 0.00208 0.31625 0.20924 0.0
C60 C 0.85979 0.37591 0.2415 0.0
C61 C 0.92887 0.37356 0.16901 0.0
C62 C 0.85928 0.39505 0.2044 0.0
C63 C 0.15609 0.13618 1.0015 0.0
C64 C 0.07113 0.30519 0.13319 0.0
C65 C 0.96803 0.53345 0.07432 0.0
C66 C 0.90905 0.48317 0.04185 0.0
C67 C 0.16702 0.22011 0.94307 0.0
C68 C 0.40405 0.16214 0.84306 0.0
C69 C 0.4557 0.18173 0.81383 0.0
C70 C 0.44434 0.14839 0.76251 0.0
C71 C 0.38149 0.09553 0.74053 0.0
C72 C 0.34132 0.10889 0.82062 0.0
C73 C 0.33009 0.0758 0.76951 0.0
C74 C 0.33275 0.36563 0.02779 0.0
C75 C 0.41752 0.1965 0.89659 0.0
H76 H 0.05894 0.28655 0.21087 0.0
H77 H 0.80307 0.39124 0.26712 0.0
H78 H 0.92673 0.38741 0.13984 0.0
H79 H 0.80384 0.42562 0.20256 0.0
H80 H 0.50433 0.22275 0.83087 0.0
H81 H 0.37376 0.06874 0.70094 0.0
H82 H 0.30165 0.09241 0.84233 0.0
H83 H 0.28224 0.03441 0.75229 0.0
Eu84 Eu 0.66204 0.80304 0.05717 0.0
C85 C 0.95868 0.57022 0.96691 0.0
C86 C 0.08857 0.6236 0.01841 0.0
C87 C 0.07631 0.4999 0.97532 0.0
C88 C 0.00533 0.62889 0.99819 0.0
C89 C 0.99373 0.50512 0.95518 0.0
C90 C 0.12374 0.55899 1.00656 0.0
C91 C 0.86495 0.45419 0.90263 0.0
N92 N 0.87966 0.57648 0.94739 0.0
C93 C 0.83446 0.51953 0.914 0.0
C94 C 0.94416 0.44712 0.92401 0.0
Eu95 Eu 0.83365 0.68846 0.9665 0.0
N96 N 0.97042 0.69084 1.00829 0.0
C97 C 0.01653 0.74935 0.03848 0.0
C98 C 0.13469 0.68333 0.04975 0.0
C99 C 0.09845 0.74644 0.05977 0.0
H100 H 0.77331 0.52496 0.89705 0.0
H101 H 0.13355 0.79311 0.08404 0.0
H102 H 0.18715 0.55436 0.02184 0.0
H103 H 0.82728 0.40943 0.87756 0.0
H104 H 0.99061 0.79925 0.04786 0.0
H105 H 0.36309 0.71117 0.93598 0.0
H106 H 0.1984 0.68126 0.0662 0.0
H107 H 0.72001 0.96484 0.13657 0.0
H108 H 0.4964 0.69812 0.97571 0.0
H109 H 0.67149 0.08235 0.15851 0.0
H110 H 0.10331 0.45058 0.96779 0.0
H111 H 0.31622 0.82497 0.94914 0.0
H112 H 0.33945 0.95033 0.99196 0.0
H113 H 0.96627 0.39678 0.91643 0.0
H114 H 0.42615 0.04972 0.04909 0.0
N115 N 0.53124 0.80476 1.01246 0.0
C116 C 0.47934 0.74902 0.98309 0.0
C117 C 0.37629 0.81995 0.96715 0.0
C118 C 0.42638 0.87718 0.99877 0.0
C119 C 0.40231 0.75578 0.95979 0.0
C120 C 0.50475 0.86832 0.02126 0.0
H121 H 0.54638 0.10029 0.11322 0.0
N122 N 0.62448 0.91708 0.07879 0.0
C123 C 0.63767 0.03882 0.12932 0.0
C124 C 0.55233 0.92561 0.05516 0.0
C125 C 0.66459 0.97233 0.11698 0.0
C126 C 0.56705 0.04868 0.10367 0.0
C127 C 0.52206 0.99194 0.06706 0.0
O128 O 0.56178 0.85528 0.11626 0.0
O129 O 0.78281 0.73763 0.04445 0.0
O130 O 0.74302 0.62467 0.98795 0.0
O131 O 0.61379 0.69322 0.02025 0.0
O132 O 0.78298 0.83002 0.10833 0.0
O133 O 0.63067 0.76701 0.11055 0.0
O134 O 0.86281 0.62213 0.88808 0.0
O135 O 0.71466 0.75649 0.98037 0.0
O136 O 0.76258 0.87182 0.04665 0.0
O137 O 0.87856 0.79863 0.99626 0.0
O138 O 0.70812 0.6643 0.91866 0.0
O139 O 0.91637 0.72399 0.92349 0.0
C140 C 0.82531 0.77183 0.08414 0.0
C141 C 0.58737 0.85311 0.19066 0.0
C142 C 0.54604 0.86845 0.27195 0.0
C143 C 0.53954 0.83159 0.2202 0.0
C144 C 0.59975 0.92717 0.29403 0.0
C145 C 0.64303 0.91086 0.21332 0.0
C146 C 0.6486 0.94794 0.26478 0.0
C147 C 0.65732 0.63395 1.00299 0.0
C148 C 0.57532 0.81706 0.13668 0.0
C149 C 0.44673 0.99983 0.04295 0.0
C150 C 0.39847 0.94292 1.00946 0.0
C151 C 0.6708 0.7241 0.9414 0.0
C152 C 0.87614 0.67582 0.83827 0.0
C153 C 0.93741 0.69791 0.81352 0.0
C154 C 0.90845 0.70589 0.77289 0.0
C155 C 0.81691 0.69451 0.75927 0.0
C156 C 0.78783 0.65816 0.81991 0.0
C157 C 0.75791 0.66936 0.78182 0.0
C158 C 0.8418 0.86021 0.02337 0.0
C159 C 0.90477 0.66832 0.88156 0.0
H160 H 0.49678 0.78683 0.20308 0.0
H161 H 0.60381 0.95689 0.33384 0.0
H162 H 0.68129 0.92778 0.19135 0.0
H163 H 0.69044 0.99308 0.28203 0.0
H164 H 0.00705 0.70826 0.82553 0.0
H165 H 0.79142 0.70172 0.72932 0.0
H166 H 0.74095 0.63573 0.83479 0.0
H167 H 0.68879 0.65757 0.76921 0.0
Eu168 Eu 0.19652 0.69879 0.46984 0.0
C169 C 0.40917 0.97682 0.58361 0.0
C170 C 0.5627 0.9576 0.55138 0.0
C171 C 0.49354 0.06995 0.58387 0.0
C172 C 0.48114 0.9327 0.56044 0.0
C173 C 0.41416 0.04591 0.59499 0.0
C174 C 0.56891 0.02685 0.56397 0.0
C175 C 0.26219 0.06269 0.62819 0.0
N176 N 0.33328 0.9518 0.59378 0.0
C177 C 0.26116 0.99418 0.61741 0.0
C178 C 0.3387 0.0885 0.61637 0.0
Eu179 Eu 0.33254 0.83268 0.56698 0.0
N180 N 0.47141 0.86545 0.54653 0.0
C181 C 0.54134 0.82044 0.5243 0.0
C182 C 0.63429 0.91165 0.5282 0.0
C183 C 0.62357 0.84272 0.51458 0.0
H184 H 0.20085 0.97504 0.62619 0.0
H185 H 0.67847 0.80667 0.49647 0.0
H186 H 0.6298 0.04687 0.5562 0.0
H187 H 0.20389 0.0954 0.64545 0.0
H188 H 0.53422 0.76708 0.51373 0.0
H189 H 0.85499 0.73586 0.54758 0.0
H190 H 0.69733 0.92871 0.52002 0.0
H191 H 0.3109 0.5521 0.4005 0.0
H192 H -0.0027 0.76908 0.52271 0.0
H193 H 0.2974 0.42917 0.37424 0.0
H194 H 0.49596 0.12109 0.58867 0.0
H195 H 0.8339 0.61637 0.53048 0.0
H196 H 0.89429 0.49626 0.49235 0.0
H197 H 0.33921 0.14146 0.62445 0.0
H198 H 0.01529 0.41266 0.44498 0.0
N199 N 0.05825 0.67069 0.49454 0.0
C200 C 0.98947 0.71711 0.51576 0.0
C201 C 0.8968 0.63094 0.51991 0.0
C202 C 0.96534 0.58261 0.49511 0.0
C203 C 0.90845 0.69836 0.52962 0.0
C204 C 0.04625 0.60433 0.48265 0.0
H205 H 0.16396 0.38693 0.40013 0.0
N206 N 0.18783 0.57981 0.44221 0.0
C207 C 0.24517 0.46468 0.39724 0.0
C208 C 0.11322 0.5574 0.45566 0.0
C209 C 0.25251 0.53447 0.4122 0.0
C210 C 0.16992 0.44107 0.41199 0.0
C211 C 0.10211 0.48744 0.44089 0.0
O212 O 0.21093 0.66379 0.39097 0.0
O213 O 0.30998 0.77071 0.48639 0.0
O214 O 0.26467 0.87765 0.52408 0.0
O215 O 0.13821 0.8079 0.49934 0.0
O216 O 0.33109 0.67437 0.42864 0.0
O217 O 0.08812 0.71715 0.42925 0.0
O218 O 0.32273 0.87234 0.64663 0.0
O219 O 0.21803 0.76005 0.55121 0.0
O220 O 0.28161 0.64802 0.5047 0.0
O221 O 0.39792 0.72762 0.53596 0.0
O222 O 0.19793 0.85859 0.6072 0.0
O223 O 0.43676 0.80706 0.60529 0.0
C224 C 0.36584 0.73442 0.45259 0.0
C225 C 0.0825 0.6479 0.34169 0.0
C226 C 0.01692 0.64216 0.26726 0.0
C227 C 0.05585 0.67995 0.31423 0.0
C228 C 0.00396 0.57134 0.24868 0.0
C229 C 0.06818 0.5777 0.32292 0.0
C230 C 0.02878 0.53971 0.27657 0.0
C231 C 0.17975 0.86597 0.50941 0.0
C232 C 0.13277 0.6881 0.38741 0.0
C233 C 0.02329 0.46588 0.45471 0.0
C234 C 0.95477 0.51332 0.48161 0.0
C235 C 0.16222 0.79902 0.58417 0.0
C236 C 0.45276 0.87519 0.69188 0.0
C237 C 0.4704 0.8407 0.71866 0.0
C238 C 0.5167 0.87294 0.76369 0.0
C239 C 0.54592 0.94086 0.78108 0.0
C240 C 0.48494 0.94153 0.70855 0.0
C241 C 0.53115 0.97437 0.75329 0.0
C242 C 0.36434 0.66636 0.52274 0.0
C243 C 0.39637 0.84094 0.64816 0.0
H244 H 0.06662 0.73445 0.32948 0.0
H245 H 0.97639 0.53994 0.21221 0.0
H246 H 0.08911 0.55222 0.34357 0.0
H247 H 0.01911 0.48529 0.26181 0.0
H248 H 0.44753 0.78843 0.70409 0.0
H249 H 0.57935 0.96852 0.81634 0.0
H250 H 0.47319 0.96786 0.68737 0.0
H251 H 0.55452 0.02626 0.76681 0.0
Eu252 Eu 0.68051 0.19365 0.4738 0.0
C253 C 0.90705 0.46338 0.59125 0.0
C254 C 0.0536 0.43604 0.55031 0.0
C255 C 0.00144 0.5541 0.59395 0.0
C256 C 0.97141 0.4153 0.56246 0.0
C257 C 0.9207 0.53331 0.60676 0.0
C258 C 0.06877 0.50583 0.56682 0.0
C259 C 0.77622 0.55744 0.64919 0.0
N260 N 0.8314 0.44191 0.60461 0.0
C261 C 0.76822 0.48813 0.63527 0.0
C262 C 0.85277 0.58021 0.63472 0.0
Eu263 Eu 0.81712 0.32288 0.5752 0.0
N264 N 0.95459 0.3484 0.54727 0.0
C265 C 0.01826 0.29953 0.52046 0.0
C266 C 0.11794 0.38602 0.52178 0.0
C267 C 0.10012 0.31743 0.50681 0.0
H268 H 0.70929 0.47094 0.647 0.0
H269 H 0.14973 0.27831 0.48508 0.0
H270 H 0.13102 0.52276 0.55746 0.0
H271 H 0.72312 0.59304 0.67091 0.0
H272 H 0.0065 0.2464 0.50923 0.0
H273 H 0.33152 0.20482 0.53716 0.0
H274 H 0.1815 0.39982 0.5113 0.0
H275 H 0.81468 0.05659 0.40762 0.0
H276 H 0.47451 0.25125 0.52522 0.0
H277 H 0.81589 0.93267 0.38008 0.0
H278 H 0.01186 0.60716 0.60421 0.0
H279 H 0.31873 0.08091 0.50874 0.0
H280 H 0.39313 0.96504 0.47149 0.0
H281 H 0.85936 0.634 0.64574 0.0
H282 H 0.53062 0.89481 0.43735 0.0
N283 N 0.54291 0.15503 0.4908 0.0
C284 C 0.47025 0.19721 0.51267 0.0
C285 C 0.38134 0.10103 0.50297 0.0
C286 C 0.45567 0.05794 0.48015 0.0
C287 C 0.38863 0.171 0.51932 0.0
C288 C 0.53636 0.08673 0.47405 0.0
H289 H 0.68464 0.87988 0.39871 0.0
N290 N 0.68439 0.07371 0.44167 0.0
C291 C 0.75767 0.96373 0.3998 0.0
C292 C 0.61012 0.04517 0.45 0.0
C293 C 0.7565 0.03389 0.41522 0.0
C294 C 0.6836 0.93417 0.41047 0.0
C295 C 0.60787 0.97471 0.43484 0.0
O296 O 0.6848 0.15155 0.39343 0.0
O297 O 0.7881 0.27137 0.49512 0.0
O298 O 0.72083 0.37949 0.5491 0.0
O299 O 0.60945 0.29696 0.50897 0.0
O300 O 0.81537 0.18059 0.43402 0.0
O301 O 0.5816 0.22646 0.43758 0.0
O302 O 0.80317 0.34974 0.65295 0.0
O303 O 0.70446 0.24927 0.55501 0.0
O304 O 0.7504 0.14259 0.51182 0.0
O305 O 0.87574 0.21302 0.53934 0.0
O306 O 0.6841 0.3437 0.61659 0.0
O307 O 0.9284 0.30465 0.61464 0.0
C308 C 0.84294 0.24264 0.45954 0.0
C309 C 0.54844 0.15388 0.35398 0.0
C310 C 0.46411 0.15633 0.28692 0.0
C311 C 0.53433 0.18066 0.32174 0.0
C312 C 0.41031 0.10241 0.2842 0.0
C313 C 0.49503 0.10002 0.3504 0.0
C314 C 0.42667 0.07404 0.31523 0.0
C315 C 0.63938 0.36059 0.52893 0.0
C316 C 0.61464 0.18731 0.39337 0.0
C317 C 0.53035 0.94708 0.4445 0.0
C318 C 0.45303 0.98775 0.46521 0.0
C319 C 0.64887 0.28438 0.58948 0.0
C320 C 0.93333 0.37425 0.70232 0.0
C321 C 0.97115 0.34658 0.73087 0.0
C322 C 0.01176 0.3895 0.77693 0.0
C323 C 0.01219 0.46064 0.79381 0.0
C324 C 0.93714 0.44496 0.71961 0.0
C325 C 0.97615 0.48777 0.76516 0.0
C326 C 0.83536 0.1536 0.52621 0.0
C327 C 0.88419 0.32966 0.65653 0.0
H328 H 0.57812 0.22118 0.32448 0.0
H329 H 0.35419 0.08279 0.25895 0.0
H330 H 0.5052 0.079 0.37517 0.0
H331 H 0.38482 0.03275 0.31272 0.0
H332 H 0.96886 0.29181 0.71709 0.0
H333 H 0.03958 0.49582 0.82959 0.0
H334 H 0.90835 0.46721 0.69836 0.0
H335 H 0.97769 0.54242 0.77859 0.0
H336 H 0.48132 0.63151 0.02924 0.0
H337 H 0.72476 0.50776 0.98133 0.0
H338 H 0.64654 0.4148 0.98542 0.0
H339 H 0.5093 0.36844 1.00272 0.0
H340 H 0.26674 0.49267 0.05229 0.0
H341 H 0.34536 0.58629 0.0486 0.0
C342 C 0.51747 0.58418 0.01943 0.0
C343 C 0.60878 0.57651 1.00403 0.0
C344 C 0.47243 0.53117 0.02273 0.0
C345 C 0.65423 0.51487 0.99214 0.0
C346 C 0.60966 0.4617 0.99492 0.0
C347 C 0.47343 0.416 1.01292 0.0
C348 C 0.3819 0.42349 0.02788 0.0
C349 C 0.51877 0.46929 1.01016 0.0
C350 C 0.33698 0.48557 0.0408 0.0
C351 C 0.3818 0.53899 0.03844 0.0
H352 H 0.3251 0.53796 0.50801 0.0
H353 H 0.54351 0.68265 0.54643 0.0
H354 H 0.64651 0.60274 0.55333 0.0
H355 H 0.67688 0.4906 0.54712 0.0
H356 H 0.45884 0.34572 0.5084 0.0
H357 H 0.35503 0.42639 0.50295 0.0
C358 C 0.39522 0.55194 0.51769 0.0
C359 C 0.42593 0.61627 0.52638 0.0
C360 C 0.45494 0.5056 0.52174 0.0
C361 C 0.51723 0.63356 0.53939 0.0
C362 C 0.57673 0.58783 0.54343 0.0
C363 C 0.60649 0.47697 0.53808 0.0
C364 C 0.57623 0.41215 0.52847 0.0
C365 C 0.54649 0.52362 0.53465 0.0
C366 C 0.48471 0.39515 0.51606 0.0
C367 C 0.4248 0.44131 0.51283 0.0
H368 H 0.98142 0.13125 0.02903 0.0
H369 H 0.22352 1.0077 0.97193 0.0
H370 H 0.14905 0.91243 0.97479 0.0
H371 H 0.01574 0.86446 0.99465 0.0
H372 H 0.77328 0.98774 0.05066 0.0
H373 H 0.8479 0.08298 0.04804 0.0
C374 C 0.01798 0.08346 0.01693 0.0
C375 C 0.10814 0.07683 0.99998 0.0
C376 C 0.97495 0.02894 0.0192 0.0
C377 C 0.15401 0.0143 0.98464 0.0
C378 C 0.11155 0.95975 0.98656 0.0
C379 C 0.97919 0.91222 1.00654 0.0
C380 C 0.88927 0.91912 0.02391 0.0
C381 C 0.02217 0.96661 1.00404 0.0
C382 C 0.84314 0.98137 0.03866 0.0
C383 C 0.88552 0.03578 0.03654 0.0
H384 H 0.01881 0.14003 0.52777 0.0
H385 H 0.76899 0.0347 0.51759 0.0
H386 H 0.85312 0.9352 0.50887 0.0
H387 H -0.00314 0.87837 0.50551 0.0
H388 H 0.24712 0.98208 0.51336 0.0
H389 H 0.1629 0.08173 0.52192 0.0
C390 C 0.98268 0.09559 0.52409 0.0
C391 C 0.88762 0.0952 0.5237 0.0
C392 C 0.03135 0.03795 0.51855 0.0
C393 C 0.84205 0.03674 0.51837 0.0
C394 C 0.88995 0.9796 0.5132 0.0
C395 C 0.03314 0.92238 0.5085 0.0
C396 C 0.12815 0.92289 0.50927 0.0
C397 C 0.98459 0.97956 0.51321 0.0
C398 C 0.17393 0.98047 0.5131 0.0
C399 C 0.12605 0.03755 0.51802 0.0
H400 H 0.39416 0.09574 0.19335 0.0
H401 H 0.49207 0.29014 0.30744 0.0
H402 H 0.467 0.34051 0.25402 0.0
H403 H 0.40971 0.33141 0.17589 0.0
H404 H 0.29698 0.14018 0.06706 0.0
H405 H 0.32664 0.08963 0.11988 0.0
C406 C 0.4086 0.1495 0.20737 0.0
C407 C 0.44629 0.18813 0.2546 0.0
C408 C 0.39001 0.17954 0.17748 0.0
C409 C 0.46596 0.25764 0.27083 0.0
C410 C 0.45064 0.28711 0.24042 0.0
C411 C 0.39452 0.27797 0.1631 0.0
C412 C 0.35331 0.23928 0.11689 0.0
C413 C 0.4128 0.24847 0.19355 0.0
C414 C 0.33095 0.17086 0.10161 0.0
C415 C 0.34776 0.14174 0.13192 0.0
H416 H 0.60707 0.78173 0.30298 0.0
H417 H 0.37811 0.90746 0.31204 0.0
H418 H 0.30212 0.87854 0.37052 0.0
H419 H 0.30478 0.82144 0.42178 0.0
H420 H 0.53417 0.69636 0.41343 0.0
H421 H 0.60768 0.72185 0.35266 0.0
C422 C 0.53994 0.80168 0.31733 0.0
C423 C 0.49737 0.84604 0.3034 0.0
C424 C 0.49771 0.78553 0.3513 0.0
C425 C 0.41117 0.87275 0.32232 0.0
C426 C 0.36804 0.85629 0.35565 0.0
C427 C 0.37171 0.8011 0.40739 0.0
C428 C 0.41631 0.75971 0.42352 0.0
C429 C 0.41143 0.8138 0.37113 0.0
C430 C 0.50069 0.73058 0.40281 0.0
C431 C 0.54176 0.7441 0.36749 0.0
H432 H 0.52945 0.70078 0.87844 0.0
H433 H 0.77224 0.81899 0.93392 0.0
H434 H 0.75109 0.86983 0.88097 0.0
H435 H 0.66244 0.88376 0.82049 0.0
H436 H 0.40818 0.77796 0.77163 0.0
H437 H 0.43517 0.71931 0.81962 0.0
C438 C 0.57588 0.73919 0.87989 0.0
C439 C 0.65002 0.75828 0.91184 0.0
C440 C 0.56188 0.77005 0.84994 0.0
C441 C 0.71226 0.80574 0.91161 0.0
C442 C 0.70114 0.83406 0.88055 0.0
C443 C 0.61199 0.84872 0.82069 0.0
C444 C 0.5334 0.83589 0.7923 0.0
C445 C 0.62552 0.81747 0.85013 0.0
C446 C 0.47043 0.78833 0.7922 0.0
C447 C 0.48517 0.75511 0.82017 0.0
H448 H 0.70477 0.19798 0.62112 0.0
H449 H 0.4755 0.31719 0.62009 0.0
H450 H 0.39287 0.2888 0.67691 0.0
H451 H 0.38666 0.22967 0.72669 0.0
H452 H 0.61691 0.11259 0.72939 0.0
H453 H 0.70048 0.14186 0.67307 0.0
C454 C 0.63594 0.21627 0.63262 0.0
C455 C 0.59363 0.2563 0.61469 0.0
C456 C 0.59123 0.20263 0.66712 0.0
C457 C 0.50681 0.28331 0.63172 0.0
C458 C 0.4606 0.26833 0.66489 0.0
C459 C 0.45552 0.21146 0.71519 0.0
C460 C 0.49646 0.16947 0.73164 0.0
C461 C 0.50223 0.2282 0.68289 0.0
C462 C 0.58515 0.14537 0.71689 0.0
C463 C 0.63255 0.16202 0.68486 0.0
H464 H 0.96753 0.80659 0.14802 0.0
H465 H 0.74651 0.66516 0.08795 0.0
H466 H 0.77864 0.61924 0.14314 0.0
H467 H 0.87266 0.61504 0.20613 0.0
H468 H 0.10571 0.74604 0.26059 0.0
H469 H 0.06696 0.799 0.2099 0.0
C470 C 0.92818 0.76454 0.14626 0.0
C471 C 0.85613 0.73835 0.1129 0.0
C472 C 0.94924 0.73624 0.17723 0.0
C473 C 0.80372 0.68533 0.11217 0.0
C474 C 0.82121 0.65953 0.14438 0.0
C475 C 0.91563 0.65478 0.2068 0.0
C476 C 0.99203 0.67614 0.23737 0.0
C477 C 0.89466 0.68376 0.17651 0.0
C478 C 0.04551 0.72896 0.23819 0.0
C479 C 0.02394 0.75902 0.20877 0.0
H480 H 0.94538 0.18855 0.37606 0.0
H481 H 0.80408 0.37337 0.47799 0.0
H482 H 0.81416 0.4162 0.41922 0.0
H483 H 0.86478 0.40285 0.33944 0.0
H484 H -0.00401 0.21393 0.23455 0.0
H485 H 0.99523 0.1745 0.29546 0.0
C486 C 0.92 0.2394 0.3862 0.0
C487 C 0.87405 0.27743 0.43158 0.0
C488 C 0.92676 0.26433 0.35221 0.0
C489 C 0.8399 0.34267 0.44367 0.0
C490 C 0.84534 0.36732 0.40985 0.0
C491 C 0.89235 0.35267 0.32944 0.0
C492 C 0.93098 0.31211 0.28218 0.0
C493 C 0.88856 0.32866 0.36401 0.0
C494 C 0.96786 0.24765 0.27083 0.0
C495 C 0.96679 0.22448 0.30559 0.0
H496 H 0.95596 0.28094 0.79016 0.0
H497 H 0.16413 0.43424 0.8333 0.0
H498 H 0.22514 0.39875 0.89037 0.0
H499 H 0.21668 0.32811 0.93131 0.0
H500 H 0.02155 0.16614 0.88295 0.0
H501 H 0.95704 0.20193 0.8257 0.0
C502 C 0.01551 0.30595 0.81138 0.0
C503 C 0.05357 0.3616 0.80789 0.0
C504 C 0.05175 0.28452 0.84405 0.0
C505 C 0.13101 0.39294 0.83604 0.0
C506 C 0.16671 0.37231 0.86859 0.0
C507 C 0.15945 0.30104 0.90858 0.0
C508 C 0.12174 0.24604 0.91254 0.0
C509 C 0.12639 0.3194 0.87386 0.0
C510 C 0.0499 0.20987 0.88148 0.0
C511 C 0.0138 0.22987 0.84838 0.0
H512 H 0.19416 0.70987 0.61954 0.0
H513 H -0.00268 0.85189 0.61802 0.0
H514 H 0.90431 0.83961 0.67902 0.0
H515 H 0.88128 0.79208 0.73484 0.0
H516 H 0.07854 0.65236 0.73962 0.0
H517 H 0.17214 0.66379 0.67809 0.0
C518 C 0.12967 0.73652 0.63174 0.0
C519 C 0.10003 0.77911 0.61258 0.0
C520 C 0.07897 0.73227 0.66916 0.0
C521 C 0.01922 0.81661 0.63075 0.0
C522 C 0.96689 0.81049 0.6662 0.0
C523 C 0.9447 0.76393 0.72242 0.0
C524 C 0.97239 0.72114 0.74178 0.0
C525 C -0.00348 0.76908 0.68604 0.0
C526 C 0.05597 0.68643 0.72599 0.0
C527 C 0.10901 0.69227 0.69028 0.0
loop_
_geom_bond_atom_site_label_1
_geom_bond_atom_site_label_2
_geom_bond_distance
_geom_bond_site_symmetry_2
_ccdc_geom_bond_type
Eu0 N31 2.657 . S
Eu0 N38 2.609 . S
Eu0 O44 2.558 . S
Eu0 O45 2.612 . S
Eu0 O47 2.339 . S
Eu0 O48 2.563 . S
Eu0 O49 2.419 . S
Eu0 O51 2.380 1_554 S
Eu0 O52 2.432 . S
Eu0 C64 2.848 . S
C1 C4 1.429 . S
C1 C5 1.411 . S
C1 N8 1.377 . S
C2 C4 1.420 1_554 S
C2 C6 1.423 . S
C2 C14 1.392 . S
C3 C5 1.420 . S
C3 C6 1.351 1_556 S
C3 H26 0.931 1_545 S
C4 C1 1.429 . S
C4 C2 1.420 1_556 S
C4 N12 1.362 . S
C5 C1 1.411 . S
C5 C3 1.420 . S
C5 C10 1.395 1_545 S
C6 C2 1.423 . S
C6 C3 1.351 1_554 S
C6 H18 0.930 . S
C7 C9 1.400 1_565 S
C7 C10 1.386 . S
C7 H19 0.930 . S
N8 C1 1.377 . S
N8 C9 1.321 . S
N8 Eu11 2.609 . S
C9 C7 1.400 1_545 S
C9 N8 1.321 . S
C9 H16 0.930 . S
C10 C5 1.395 1_565 S
C10 C7 1.386 . S
C10 H29 0.930 . S
Eu11 N8 2.609 . S
Eu11 N12 2.657 . S
Eu11 O45 2.380 1_556 S
Eu11 O46 2.432 . S
Eu11 O50 2.558 . S
Eu11 O51 2.612 . S
Eu11 O53 2.339 . S
Eu11 O54 2.563 . S
Eu11 O55 2.419 . S
Eu11 C75 2.848 . S
N12 C4 1.362 . S
N12 Eu11 2.657 . S
N12 C13 1.334 1_556 S
C13 N12 1.334 1_554 S
C13 C15 1.413 . S
C13 H20 0.929 . S
C14 C2 1.392 . S
C14 C15 1.367 . S
C14 H22 0.930 . S
C15 C13 1.413 . S
C15 C14 1.367 . S
C15 H17 0.930 . S
H16 C9 0.930 . S
H17 C15 0.930 . S
H18 C6 0.930 . S
H19 C7 0.930 . S
H20 C13 0.929 . S
H21 C35 0.930 . S
H22 C14 0.930 . S
H23 C41 0.930 . S
H24 C32 0.929 . S
H25 C39 0.930 . S
H26 C3 0.931 1_565 S
H27 C33 0.930 . S
H28 C66 0.918 1_556 S
H29 C10 0.930 . S
H30 C65 0.931 . S
N31 Eu0 2.657 . S
N31 C32 1.334 1_454 S
N31 C36 1.362 1_455 S
C32 H24 0.929 . S
C32 N31 1.334 1_656 S
C32 C35 1.413 . S
C33 H27 0.930 . S
C33 C34 1.392 . S
C33 C35 1.367 . S
C34 C33 1.392 . S
C34 C36 1.420 1_556 S
C34 C66 1.430 1_556 S
C35 H21 0.930 . S
C35 C32 1.413 . S
C35 C33 1.367 . S
C36 N31 1.362 1_655 S
C36 C34 1.420 1_554 S
C36 C40 1.429 . S
H37 C42 0.930 . S
N38 Eu0 2.609 . S
N38 C40 1.377 1_455 S
N38 C41 1.321 . S
C39 H25 0.930 . S
C39 C41 1.400 . S
C39 C42 1.386 1_455 S
C40 C36 1.429 . S
C40 N38 1.377 1_655 S
C40 C43 1.411 . S
C41 H23 0.930 . S
C41 N38 1.321 . S
C41 C39 1.400 . S
C42 H37 0.930 . S
C42 C39 1.386 1_655 S
C42 C43 1.395 . S
C43 C40 1.411 . S
C43 C42 1.395 . S
C43 C65 1.420 . S
O44 Eu0 2.558 . S
O44 C64 1.257 . S
O45 Eu0 2.612 . S
O45 Eu11 2.380 1_554 S
O45 C56 1.276 . S
O46 Eu11 2.432 . S
O46 C63 1.264 . S
O47 Eu0 2.339 . S
O47 C63 1.254 1_554 S
O48 Eu0 2.563 . S
O48 C56 1.235 . S
O49 Eu0 2.419 . S
O49 C64 1.249 . S
O50 Eu11 2.558 . S
O50 C75 1.257 . S
O51 Eu0 2.380 1_556 S
O51 Eu11 2.612 . S
O51 C67 1.276 . S
O52 Eu0 2.432 . S
O52 C74 1.264 . S
O53 Eu11 2.339 . S
O53 C74 1.254 1_556 S
O54 Eu11 2.563 . S
O54 C67 1.235 . S
O55 Eu11 2.419 . S
O55 C75 1.249 . S
C56 O45 1.276 . S
C56 O48 1.235 . S
C57 C59 1.393 . S
C57 C61 1.395 . S
C57 C64 1.492 . S
C58 C59 1.392 1_655 S
C58 C60 1.386 . S
C59 C57 1.393 . S
C59 C58 1.392 1_455 S
C59 H76 0.930 . S
C60 C58 1.386 . S
C60 C62 1.395 . S
C60 H77 0.930 . S
C61 C57 1.395 . S
C61 C62 1.379 1_455 S
C61 H78 0.930 . S
C62 C60 1.395 . S
C62 C61 1.379 1_655 S
C62 H79 0.930 . S
C63 O46 1.264 . S
C63 O47 1.254 1_556 S
C64 Eu0 2.848 . S
C64 O44 1.257 . S
C64 O49 1.249 . S
C64 C57 1.492 . S
C65 H30 0.931 . S
C65 C43 1.420 . S
C65 C66 1.355 . S
C66 H28 0.918 1_554 S
C66 C34 1.430 1_554 S
C66 C65 1.355 . S
C67 O51 1.276 . S
C67 O54 1.235 . S
C68 C69 1.393 . S
C68 C72 1.395 . S
C68 C75 1.492 . S
C69 C68 1.393 . S
C69 C70 1.392 . S
C69 H80 0.930 . S
C70 C69 1.392 . S
C70 C71 1.386 . S
C71 C70 1.386 . S
C71 C73 1.395 . S
C71 H81 0.930 . S
C72 C68 1.395 . S
C72 C73 1.379 . S
C72 H82 0.930 . S
C73 C71 1.395 . S
C73 C72 1.379 . S
C73 H83 0.930 1_545 S
C74 O52 1.264 . S
C74 O53 1.254 1_554 S
C75 Eu11 2.848 . S
C75 O50 1.257 . S
C75 O55 1.249 . S
C75 C68 1.492 . S
H76 C59 0.930 . S
H77 C60 0.930 . S
H78 C61 0.930 . S
H79 C62 0.930 . S
H80 C69 0.930 . S
H81 C71 0.930 . S
H82 C72 0.930 . S
H83 C73 0.930 1_565 S
Eu84 N115 2.657 . S
Eu84 N122 2.609 . S
Eu84 O128 2.558 . S
Eu84 O129 2.612 . S
Eu84 O131 2.339 . S
Eu84 O132 2.563 . S
Eu84 O133 2.419 . S
Eu84 O135 2.380 1_554 S
Eu84 O136 2.432 . S
Eu84 C148 2.848 . S
C85 C88 1.429 . S
C85 C89 1.411 . S
C85 N92 1.377 1_455 S
C86 C88 1.420 1_554 S
C86 C90 1.423 . S
C86 C98 1.392 . S
C87 C89 1.420 . S
C87 C90 1.351 1_556 S
C87 H110 0.931 . S
C88 C85 1.429 . S
C88 C86 1.420 1_556 S
C88 N96 1.362 1_455 S
C89 C85 1.411 . S
C89 C87 1.420 . S
C89 C94 1.395 . S
C90 C86 1.423 . S
C90 C87 1.351 1_554 S
C90 H102 0.930 . S
C91 C93 1.400 . S
C91 C94 1.386 1_655 S
C91 H103 0.930 . S
N92 C85 1.377 1_655 S
N92 C93 1.321 . S
N92 Eu95 2.609 . S
C93 C91 1.400 . S
C93 N92 1.321 . S
C93 H100 0.930 . S
C94 C89 1.395 . S
C94 C91 1.386 1_455 S
C94 H113 0.930 . S
Eu95 N92 2.609 . S
Eu95 N96 2.657 . S
Eu95 O129 2.380 1_556 S
Eu95 O130 2.432 . S
Eu95 O134 2.558 . S
Eu95 O135 2.612 . S
Eu95 O137 2.339 . S
Eu95 O138 2.563 . S
Eu95 O139 2.419 . S
Eu95 C159 2.848 . S
N96 C88 1.362 1_655 S
N96 Eu95 2.657 . S
N96 C97 1.334 1_656 S
C97 N96 1.334 1_454 S
C97 C99 1.413 . S
C97 H104 0.929 . S
C98 C86 1.392 . S
C98 C99 1.367 . S
C98 H106 0.930 . S
C99 C97 1.413 . S
C99 C98 1.367 . S
C99 H101 0.930 . S
H100 C93 0.930 . S
H101 C99 0.930 . S
H102 C90 0.930 . S
H103 C91 0.930 . S
H104 C97 0.929 . S
H105 C119 0.930 . S
H106 C98 0.930 . S
H107 C125 0.930 . S
H108 C116 0.929 . S
H109 C123 0.930 . S
H110 C87 0.931 . S
H111 C117 0.930 . S
H112 C150 0.918 1_556 S
H113 C94 0.930 . S
H114 C149 0.931 1_545 S
N115 Eu84 2.657 . S
N115 C116 1.334 1_554 S
N115 C120 1.362 . S
C116 H108 0.929 . S
C116 N115 1.334 1_556 S
C116 C119 1.413 . S
C117 H111 0.930 . S
C117 C118 1.392 . S
C117 C119 1.367 . S
C118 C117 1.392 . S
C118 C120 1.420 1_556 S
C118 C150 1.430 1_556 S
C119 H105 0.930 . S
C119 C116 1.413 . S
C119 C117 1.367 . S
C120 N115 1.362 . S
C120 C118 1.420 1_554 S
C120 C124 1.429 . S
H121 C126 0.930 . S
N122 Eu84 2.609 . S
N122 C124 1.377 . S
N122 C125 1.321 . S
C123 H109 0.930 . S
C123 C125 1.400 1_545 S
C123 C126 1.386 . S
C124 C120 1.429 . S
C124 N122 1.377 . S
C124 C127 1.411 . S
C125 H107 0.930 . S
C125 N122 1.321 . S
C125 C123 1.400 1_565 S
C126 H121 0.930 . S
C126 C123 1.386 . S
C126 C127 1.395 1_545 S
C127 C124 1.411 . S
C127 C126 1.395 1_565 S
C127 C149 1.420 . S
O128 Eu84 2.558 . S
O128 C148 1.257 . S
O129 Eu84 2.612 . S
O129 Eu95 2.380 1_554 S
O129 C140 1.276 . S
O130 Eu95 2.432 . S
O130 C147 1.264 . S
O131 Eu84 2.339 . S
O131 C147 1.254 1_554 S
O132 Eu84 2.563 . S
O132 C140 1.235 . S
O133 Eu84 2.419 . S
O133 C148 1.249 . S
O134 Eu95 2.558 . S
O134 C159 1.257 . S
O135 Eu84 2.380 1_556 S
O135 Eu95 2.612 . S
O135 C151 1.276 . S
O136 Eu84 2.432 . S
O136 C158 1.264 . S
O137 Eu95 2.339 . S
O137 C158 1.254 1_556 S
O138 Eu95 2.563 . S
O138 C151 1.235 . S
O139 Eu95 2.419 . S
O139 C159 1.249 . S
C140 O129 1.276 . S
C140 O132 1.235 . S
C141 C143 1.393 . S
C141 C145 1.395 . S
C141 C148 1.492 . S
C142 C143 1.392 . S
C142 C144 1.386 . S
C143 C141 1.393 . S
C143 C142 1.392 . S
C143 H160 0.930 . S
C144 C142 1.386 . S
C144 C146 1.395 . S
C144 H161 0.930 . S
C145 C141 1.395 . S
C145 C146 1.379 . S
C145 H162 0.930 . S
C146 C144 1.395 . S
C146 C145 1.379 . S
C146 H163 0.930 1_565 S
C147 O130 1.264 . S
C147 O131 1.254 1_556 S
C148 Eu84 2.848 . S
C148 O128 1.257 . S
C148 O133 1.249 . S
C148 C141 1.492 . S
C149 H114 0.931 1_565 S
C149 C127 1.420 . S
C149 C150 1.355 . S
C150 H112 0.918 1_554 S
C150 C118 1.430 1_554 S
C150 C149 1.355 . S
C151 O135 1.276 . S
C151 O138 1.235 . S
C152 C153 1.393 . S
C152 C156 1.395 . S
C152 C159 1.492 . S
C153 C152 1.393 . S
C153 C154 1.392 1_655 S
C153 H164 0.930 . S
C154 C153 1.392 1_455 S
C154 C155 1.386 . S
C155 C154 1.386 . S
C155 C157 1.395 . S
C155 H165 0.930 . S
C156 C152 1.395 . S
C156 C157 1.379 1_655 S
C156 H166 0.930 . S
C157 C155 1.395 . S
C157 C156 1.379 1_455 S
C157 H167 0.930 . S
C158 O136 1.264 . S
C158 O137 1.254 1_554 S
C159 Eu95 2.848 . S
C159 O134 1.257 . S
C159 O139 1.249 . S
C159 C152 1.492 . S
H160 C143 0.930 . S
H161 C144 0.930 . S
H162 C145 0.930 . S
H163 C146 0.930 1_545 S
H164 C153 0.930 . S
H165 C155 0.930 . S
H166 C156 0.930 . S
H167 C157 0.930 . S
Eu168 N199 2.657 . S
Eu168 N206 2.609 . S
Eu168 O212 2.558 . S
Eu168 O213 2.612 . S
Eu168 O215 2.339 . S
Eu168 O216 2.563 . S
Eu168 O217 2.419 . S
Eu168 O219 2.380 . S
Eu168 O220 2.432 . S
Eu168 C232 2.848 . S
C169 C172 1.429 . S
C169 C173 1.411 . S
C169 N176 1.377 . S
C170 C172 1.420 . S
C170 C174 1.423 . S
C170 C182 1.392 . S
C171 C173 1.420 . S
C171 C174 1.351 . S
C171 H194 0.931 1_565 S
C172 C169 1.429 . S
C172 C170 1.420 . S
C172 N180 1.362 . S
C173 C169 1.411 . S
C173 C171 1.420 . S
C173 C178 1.395 1_565 S
C174 C170 1.423 . S
C174 C171 1.351 . S
C174 H186 0.930 . S
C175 C177 1.400 1_545 S
C175 C178 1.386 . S
C175 H187 0.930 . S
N176 C169 1.377 . S
N176 C177 1.321 . S
N176 Eu179 2.609 . S
C177 C175 1.400 1_565 S
C177 N176 1.321 . S
C177 H184 0.930 . S
C178 C173 1.395 1_545 S
C178 C175 1.386 . S
C178 H197 0.930 . S
Eu179 N176 2.609 . S
Eu179 N180 2.657 . S
Eu179 O213 2.380 . S
Eu179 O214 2.432 . S
Eu179 O218 2.558 . S
Eu179 O219 2.612 . S
Eu179 O221 2.339 . S
Eu179 O222 2.563 . S
Eu179 O223 2.419 . S
Eu179 C243 2.848 . S
N180 C172 1.362 . S
N180 Eu179 2.657 . S
N180 C181 1.334 . S
C181 N180 1.334 . S
C181 C183 1.413 . S
C181 H188 0.929 . S
C182 C170 1.392 . S
C182 C183 1.367 . S
C182 H190 0.930 . S
C183 C181 1.413 . S
C183 C182 1.367 . S
C183 H185 0.930 . S
H184 C177 0.930 . S
H185 C183 0.930 . S
H186 C174 0.930 . S
H187 C175 0.930 . S
H188 C181 0.929 . S
H189 C203 0.930 . S
H190 C182 0.930 . S
H191 C209 0.930 . S
H192 C200 0.929 . S
H193 C207 0.930 . S
H194 C171 0.931 1_545 S
H195 C201 0.930 . S
H196 C234 0.930 . S
H197 C178 0.930 . S
H198 C233 0.931 . S
N199 Eu168 2.657 . S
N199 C200 1.334 1_455 S
N199 C204 1.362 1_455 S
C200 H192 0.929 . S
C200 N199 1.334 1_655 S
C200 C203 1.413 . S
C201 H195 0.930 . S
C201 C202 1.392 . S
C201 C203 1.367 . S
C202 C201 1.392 . S
C202 C204 1.420 . S
C202 C234 1.423 . S
C203 H189 0.930 . S
C203 C200 1.413 . S
C203 C201 1.367 . S
C204 N199 1.362 1_655 S
C204 C202 1.420 . S
C204 C208 1.429 . S
H205 C210 0.930 . S
N206 Eu168 2.609 . S
N206 C208 1.377 1_455 S
N206 C209 1.321 . S
C207 H193 0.930 . S
C207 C209 1.400 . S
C207 C210 1.386 1_455 S
C208 C204 1.429 . S
C208 N206 1.377 1_655 S
C208 C211 1.411 . S
C209 H191 0.930 . S
C209 N206 1.321 . S
C209 C207 1.400 . S
C210 H205 0.930 . S
C210 C207 1.386 1_655 S
C210 C211 1.395 . S
C211 C208 1.411 . S
C211 C210 1.395 . S
C211 C233 1.420 . S
O212 Eu168 2.558 . S
O212 C232 1.257 . S
O213 Eu168 2.612 . S
O213 Eu179 2.380 . S
O213 C224 1.276 . S
O214 Eu179 2.432 . S
O214 C231 1.264 . S
O215 Eu168 2.339 . S
O215 C231 1.254 . S
O216 Eu168 2.563 . S
O216 C224 1.235 . S
O217 Eu168 2.419 . S
O217 C232 1.249 . S
O218 Eu179 2.558 . S
O218 C243 1.257 . S
O219 Eu168 2.380 . S
O219 Eu179 2.612 . S
O219 C235 1.276 . S
O220 Eu168 2.432 . S
O220 C242 1.264 . S
O221 Eu179 2.339 . S
O221 C242 1.254 . S
O222 Eu179 2.563 . S
O222 C235 1.235 . S
O223 Eu179 2.419 . S
O223 C243 1.249 . S
C224 O213 1.276 . S
C224 O216 1.235 . S
C225 C227 1.393 . S
C225 C229 1.395 . S
C225 C232 1.492 . S
C226 C227 1.392 1_655 S
C226 C228 1.386 . S
C227 C225 1.393 . S
C227 C226 1.392 1_455 S
C227 H244 0.930 . S
C228 C226 1.386 . S
C228 C230 1.395 . S
C228 H245 0.930 . S
C229 C225 1.395 . S
C229 C230 1.379 1_455 S
C229 H246 0.930 . S
C230 C228 1.395 . S
C230 C229 1.379 1_655 S
C230 H247 0.930 . S
C231 O214 1.264 . S
C231 O215 1.254 . S
C232 Eu168 2.848 . S
C232 O212 1.257 . S
C232 O217 1.249 . S
C232 C225 1.492 . S
C233 H198 0.931 . S
C233 C211 1.420 . S
C233 C234 1.351 . S
C234 H196 0.930 . S
C234 C202 1.423 . S
C234 C233 1.351 . S
C235 O219 1.276 . S
C235 O222 1.235 . S
C236 C237 1.393 . S
C236 C240 1.395 . S
C236 C243 1.492 . S
C237 C236 1.393 . S
C237 C238 1.392 . S
C237 H248 0.930 . S
C238 C237 1.392 . S
C238 C239 1.386 . S
C239 C238 1.386 . S
C239 C241 1.395 . S
C239 H249 0.930 . S
C240 C236 1.395 . S
C240 C241 1.379 . S
C240 H250 0.930 . S
C241 C239 1.395 . S
C241 C240 1.379 . S
C241 H251 0.930 1_565 S
C242 O220 1.264 . S
C242 O221 1.254 . S
C243 Eu179 2.848 . S
C243 O218 1.257 . S
C243 O223 1.249 . S
C243 C236 1.492 . S
H244 C227 0.930 . S
H245 C228 0.930 . S
H246 C229 0.930 . S
H247 C230 0.930 . S
H248 C237 0.930 . S
H249 C239 0.930 . S
H250 C240 0.930 . S
H251 C241 0.930 1_545 S
Eu252 N283 2.657 . S
Eu252 N290 2.609 . S
Eu252 O296 2.558 . S
Eu252 O297 2.612 . S
Eu252 O299 2.339 . S
Eu252 O300 2.563 . S
Eu252 O301 2.419 . S
Eu252 O303 2.380 . S
Eu252 O304 2.432 . S
Eu252 C316 2.848 . S
C253 C256 1.429 . S
C253 C257 1.411 . S
C253 N260 1.377 1_455 S
C254 C256 1.420 . S
C254 C258 1.423 . S
C254 C266 1.392 . S
C255 C257 1.420 . S
C255 C258 1.351 . S
C255 H278 0.931 . S
C256 C253 1.429 . S
C256 C254 1.420 . S
C256 N264 1.362 1_455 S
C257 C253 1.411 . S
C257 C255 1.420 . S
C257 C262 1.395 . S
C258 C254 1.423 . S
C258 C255 1.351 . S
C258 H270 0.930 . S
C259 C261 1.400 . S
C259 C262 1.386 1_655 S
C259 H271 0.930 . S
N260 C253 1.377 1_655 S
N260 C261 1.321 . S
N260 Eu263 2.609 . S
C261 C259 1.400 . S
C261 N260 1.321 . S
C261 H268 0.930 . S
C262 C257 1.395 . S
C262 C259 1.386 1_455 S
C262 H281 0.930 . S
Eu263 N260 2.609 . S
Eu263 N264 2.657 . S
Eu263 O297 2.380 . S
Eu263 O298 2.432 . S
Eu263 O302 2.558 . S
Eu263 O303 2.612 . S
Eu263 O305 2.339 . S
Eu263 O306 2.563 . S
Eu263 O307 2.419 . S
Eu263 C327 2.848 . S
N264 C256 1.362 1_655 S
N264 Eu263 2.657 . S
N264 C265 1.334 1_655 S
C265 N264 1.334 1_455 S
C265 C267 1.413 . S
C265 H272 0.929 . S
C266 C254 1.392 . S
C266 C267 1.367 . S
C266 H274 0.930 . S
C267 C265 1.413 . S
C267 C266 1.367 . S
C267 H269 0.930 . S
H268 C261 0.930 . S
H269 C267 0.930 . S
H270 C258 0.930 . S
H271 C259 0.930 . S
H272 C265 0.929 . S
H273 C287 0.930 . S
H274 C266 0.930 . S
H275 C293 0.930 . S
H276 C284 0.929 . S
H277 C291 0.930 . S
H278 C255 0.931 . S
H279 C285 0.930 . S
H280 C318 0.930 . S
H281 C262 0.930 . S
H282 C317 0.931 1_565 S
N283 Eu252 2.657 . S
N283 C284 1.334 . S
N283 C288 1.362 . S
C284 H276 0.929 . S
C284 N283 1.334 . S
C284 C287 1.413 . S
C285 H279 0.930 . S
C285 C286 1.392 . S
C285 C287 1.367 . S
C286 C285 1.392 . S
C286 C288 1.420 . S
C286 C318 1.423 . S
C287 H273 0.930 . S
C287 C284 1.413 . S
C287 C285 1.367 . S
C288 N283 1.362 . S
C288 C286 1.420 . S
C288 C292 1.429 . S
H289 C294 0.930 . S
N290 Eu252 2.609 . S
N290 C292 1.377 . S
N290 C293 1.321 . S
C291 H277 0.930 . S
C291 C293 1.400 1_565 S
C291 C294 1.386 . S
C292 C288 1.429 . S
C292 N290 1.377 . S
C292 C295 1.411 . S
C293 H275 0.930 . S
C293 N290 1.321 . S
C293 C291 1.400 1_545 S
C294 H289 0.930 . S
C294 C291 1.386 . S
C294 C295 1.395 1_565 S
C295 C292 1.411 . S
C295 C294 1.395 1_545 S
C295 C317 1.420 . S
O296 Eu252 2.558 . S
O296 C316 1.257 . S
O297 Eu252 2.612 . S
O297 Eu263 2.380 . S
O297 C308 1.276 . S
O298 Eu263 2.432 . S
O298 C315 1.264 . S
O299 Eu252 2.339 . S
O299 C315 1.254 . S
O300 Eu252 2.563 . S
O300 C308 1.235 . S
O301 Eu252 2.419 . S
O301 C316 1.249 . S
O302 Eu263 2.558 . S
O302 C327 1.257 . S
O303 Eu252 2.380 . S
O303 Eu263 2.612 . S
O303 C319 1.276 . S
O304 Eu252 2.432 . S
O304 C326 1.264 . S
O305 Eu263 2.339 . S
O305 C326 1.254 . S
O306 Eu263 2.563 . S
O306 C319 1.235 . S
O307 Eu263 2.419 . S
O307 C327 1.249 . S
C308 O297 1.276 . S
C308 O300 1.235 . S
C309 C311 1.393 . S
C309 C313 1.395 . S
C309 C316 1.492 . S
C310 C311 1.392 . S
C310 C312 1.386 . S
C311 C309 1.393 . S
C311 C310 1.392 . S
C311 H328 0.930 . S
C312 C310 1.386 . S
C312 C314 1.395 . S
C312 H329 0.930 . S
C313 C309 1.395 . S
C313 C314 1.379 . S
C313 H330 0.930 . S
C314 C312 1.395 . S
C314 C313 1.379 . S
C314 H331 0.930 1_545 S
C315 O298 1.264 . S
C315 O299 1.254 . S
C316 Eu252 2.848 . S
C316 O296 1.257 . S
C316 O301 1.249 . S
C316 C309 1.492 . S
C317 H282 0.931 1_545 S
C317 C295 1.420 . S
C317 C318 1.351 . S
C318 H280 0.930 . S
C318 C286 1.423 . S
C318 C317 1.351 . S
C319 O303 1.276 . S
C319 O306 1.235 . S
C320 C321 1.393 . S
C320 C324 1.395 . S
C320 C327 1.492 . S
C321 C320 1.393 . S
C321 C322 1.392 1_655 S
C321 H332 0.930 . S
C322 C321 1.392 1_455 S
C322 C323 1.386 . S
C323 C322 1.386 . S
C323 C325 1.395 . S
C323 H333 0.930 . S
C324 C320 1.395 . S
C324 C325 1.379 1_655 S
C324 H334 0.930 . S
C325 C323 1.395 . S
C325 C324 1.379 1_455 S
C325 H335 0.930 . S
C326 O304 1.264 . S
C326 O305 1.254 . S
C327 Eu263 2.848 . S
C327 O302 1.257 . S
C327 O307 1.249 . S
C327 C320 1.492 . S
H328 C311 0.930 . S
H329 C312 0.930 . S
H330 C313 0.930 . S
H331 C314 0.930 1_565 S
H332 C321 0.930 . S
H333 C323 0.930 . S
H334 C324 0.930 . S
H335 C325 0.930 . S
H336 C342 0.930 . S
H337 C345 0.930 . S
H338 C346 0.930 . S
H339 C347 0.930 . S
H340 C350 0.930 . S
H341 C351 0.930 . S
C342 H336 0.930 . S
C342 C343 1.355 1_554 S
C342 C344 1.415 . S
C343 C342 1.355 1_556 S
C343 C345 1.419 . S
C344 C342 1.415 . S
C344 C349 1.425 1_554 S
C344 C351 1.409 . S
C345 H337 0.930 . S
C345 C343 1.419 . S
C345 C346 1.362 . S
C346 H338 0.930 . S
C346 C345 1.362 . S
C346 C349 1.409 . S
C347 H339 0.930 . S
C347 C348 1.355 1_556 S
C347 C349 1.415 . S
C348 C347 1.355 1_554 S
C348 C350 1.419 . S
C349 C344 1.425 1_556 S
C349 C346 1.409 . S
C349 C347 1.415 . S
C350 H340 0.930 . S
C350 C348 1.419 . S
C350 C351 1.362 . S
C351 H341 0.930 . S
C351 C344 1.409 . S
C351 C350 1.362 . S
H352 C358 0.930 . S
H353 C361 0.930 . S
H354 C362 0.930 . S
H355 C363 0.930 . S
H356 C366 0.930 . S
H357 C367 0.930 . S
C358 H352 0.930 . S
C358 C359 1.355 . S
C358 C360 1.415 . S
C359 C358 1.355 . S
C359 C361 1.419 . S
C360 C358 1.415 . S
C360 C365 1.425 . S
C360 C367 1.409 . S
C361 H353 0.930 . S
C361 C359 1.419 . S
C361 C362 1.362 . S
C362 H354 0.930 . S
C362 C361 1.362 . S
C362 C365 1.409 . S
C363 H355 0.930 . S
C363 C364 1.355 . S
C363 C365 1.415 . S
C364 C363 1.355 . S
C364 C366 1.419 . S
C365 C360 1.425 . S
C365 C362 1.409 . S
C365 C363 1.415 . S
C366 H356 0.930 . S
C366 C364 1.419 . S
C366 C367 1.362 . S
C367 H357 0.930 . S
C367 C360 1.409 . S
C367 C366 1.362 . S
H368 C374 0.930 . S
H369 C377 0.930 . S
H370 C378 0.930 1_565 S
H371 C379 0.930 . S
H372 C382 0.930 . S
H373 C383 0.930 1_545 S
C374 H368 0.930 . S
C374 C375 1.355 1_554 S
C374 C376 1.415 . S
C375 C374 1.355 1_556 S
C375 C377 1.419 . S
C376 C374 1.415 . S
C376 C381 1.425 1_444 S
C376 C383 1.409 1_545 S
C377 H369 0.930 . S
C377 C375 1.419 . S
C377 C378 1.362 1_455 S
C378 H370 0.930 1_545 S
C378 C377 1.362 1_655 S
C378 C381 1.409 1_545 S
C379 H371 0.930 . S
C379 C380 1.355 1_556 S
C379 C381 1.415 . S
C380 C379 1.355 1_554 S
C380 C382 1.419 . S
C381 C376 1.425 1_666 S
C381 C378 1.409 1_565 S
C381 C379 1.415 . S
C382 H372 0.930 . S
C382 C380 1.419 . S
C382 C383 1.362 1_655 S
C383 H373 0.930 1_565 S
C383 C376 1.409 1_565 S
C383 C382 1.362 1_455 S
H384 C390 0.930 . S
H385 C393 0.930 . S
H386 C394 0.930 . S
H387 C395 0.930 . S
H388 C398 0.930 . S
H389 C399 0.930 . S
C390 H384 0.930 . S
C390 C391 1.355 . S
C390 C392 1.415 1_655 S
C391 C390 1.355 . S
C391 C393 1.419 . S
C392 C390 1.415 1_455 S
C392 C397 1.425 1_445 S
C392 C399 1.409 . S
C393 H385 0.930 . S
C393 C391 1.419 . S
C393 C394 1.362 1_545 S
C394 H386 0.930 . S
C394 C393 1.362 1_565 S
C394 C397 1.409 . S
C395 H387 0.930 . S
C395 C396 1.355 . S
C395 C397 1.415 1_455 S
C396 C395 1.355 . S
C396 C398 1.419 . S
C397 C392 1.425 1_665 S
C397 C394 1.409 . S
C397 C395 1.415 1_655 S
C398 H388 0.930 . S
C398 C396 1.419 . S
C398 C399 1.362 1_565 S
C399 H389 0.930 . S
C399 C392 1.409 . S
C399 C398 1.362 1_545 S
H400 C406 0.930 . S
H401 C409 0.930 . S
H402 C410 0.930 . S
H403 C411 0.930 . S
H404 C414 0.930 . S
H405 C415 0.930 . S
C406 H400 0.930 . S
C406 C407 1.355 . S
C406 C408 1.415 . S
C407 C406 1.355 . S
C407 C409 1.419 . S
C408 C406 1.415 . S
C408 C413 1.425 . S
C408 C415 1.409 . S
C409 H401 0.930 . S
C409 C407 1.419 . S
C409 C410 1.362 . S
C410 H402 0.930 . S
C410 C409 1.362 . S
C410 C413 1.409 . S
C411 H403 0.930 . S
C411 C412 1.355 . S
C411 C413 1.415 . S
C412 C411 1.355 . S
C412 C414 1.419 . S
C413 C408 1.425 . S
C413 C410 1.409 . S
C413 C411 1.415 . S
C414 H404 0.930 . S
C414 C412 1.419 . S
C414 C415 1.362 . S
C415 H405 0.930 . S
C415 C408 1.409 . S
C415 C414 1.362 . S
H416 C422 0.930 . S
H417 C425 0.930 . S
H418 C426 0.930 . S
H419 C427 0.930 . S
H420 C430 0.930 . S
H421 C431 0.930 . S
C422 H416 0.930 . S
C422 C423 1.355 . S
C422 C424 1.415 . S
C423 C422 1.355 . S
C423 C425 1.419 . S
C424 C422 1.415 . S
C424 C429 1.425 . S
C424 C431 1.409 . S
C425 H417 0.930 . S
C425 C423 1.419 . S
C425 C426 1.362 . S
C426 H418 0.930 . S
C426 C425 1.362 . S
C426 C429 1.409 . S
C427 H419 0.930 . S
C427 C428 1.355 . S
C427 C429 1.415 . S
C428 C427 1.355 . S
C428 C430 1.419 . S
C429 C424 1.425 . S
C429 C426 1.409 . S
C429 C427 1.415 . S
C430 H420 0.930 . S
C430 C428 1.419 . S
C430 C431 1.362 . S
C431 H421 0.930 . S
C431 C424 1.409 . S
C431 C430 1.362 . S
H432 C438 0.930 . S
H433 C441 0.930 . S
H434 C442 0.930 . S
H435 C443 0.930 . S
H436 C446 0.930 . S
H437 C447 0.930 . S
C438 H432 0.930 . S
C438 C439 1.355 . S
C438 C440 1.415 . S
C439 C438 1.355 . S
C439 C441 1.419 . S
C440 C438 1.415 . S
C440 C445 1.425 . S
C440 C447 1.409 . S
C441 H433 0.930 . S
C441 C439 1.419 . S
C441 C442 1.362 . S
C442 H434 0.930 . S
C442 C441 1.362 . S
C442 C445 1.409 . S
C443 H435 0.930 . S
C443 C444 1.355 . S
C443 C445 1.415 . S
C444 C443 1.355 . S
C444 C446 1.419 . S
C445 C440 1.425 . S
C445 C442 1.409 . S
C445 C443 1.415 . S
C446 H436 0.930 . S
C446 C444 1.419 . S
C446 C447 1.362 . S
C447 H437 0.930 . S
C447 C440 1.409 . S
C447 C446 1.362 . S
H448 C454 0.930 . S
H449 C457 0.930 . S
H450 C458 0.930 . S
H451 C459 0.930 . S
H452 C462 0.930 . S
H453 C463 0.930 . S
C454 H448 0.930 . S
C454 C455 1.355 . S
C454 C456 1.415 . S
C455 C454 1.355 . S
C455 C457 1.419 . S
C456 C454 1.415 . S
C456 C461 1.425 . S
C456 C463 1.409 . S
C457 H449 0.930 . S
C457 C455 1.419 . S
C457 C458 1.362 . S
C458 H450 0.930 . S
C458 C457 1.362 . S
C458 C461 1.409 . S
C459 H451 0.930 . S
C459 C460 1.355 . S
C459 C461 1.415 . S
C460 C459 1.355 . S
C460 C462 1.419 . S
C461 C456 1.425 . S
C461 C458 1.409 . S
C461 C459 1.415 . S
C462 H452 0.930 . S
C462 C460 1.419 . S
C462 C463 1.362 . S
C463 H453 0.930 . S
C463 C456 1.409 . S
C463 C462 1.362 . S
H464 C470 0.930 . S
H465 C473 0.930 . S
H466 C474 0.930 . S
H467 C475 0.930 . S
H468 C478 0.930 . S
H469 C479 0.923 1_455 S
C470 H464 0.930 . S
C470 C471 1.355 . S
C470 C472 1.415 . S
C471 C470 1.355 . S
C471 C473 1.419 . S
C472 C470 1.415 . S
C472 C477 1.425 . S
C472 C479 1.418 . S
C473 H465 0.930 . S
C473 C471 1.419 . S
C473 C474 1.362 . S
C474 H466 0.930 . S
C474 C473 1.362 . S
C474 C477 1.409 . S
C475 H467 0.930 . S
C475 C476 1.355 . S
C475 C477 1.415 . S
C476 C475 1.355 . S
C476 C478 1.419 1_655 S
C477 C472 1.425 . S
C477 C474 1.409 . S
C477 C475 1.415 . S
C478 H468 0.930 . S
C478 C476 1.419 1_455 S
C478 C479 1.361 1_455 S
C479 H469 0.923 1_655 S
C479 C472 1.418 . S
C479 C478 1.361 1_655 S
H480 C486 0.930 . S
H481 C489 0.930 . S
H482 C490 0.930 . S
H483 C491 0.930 . S
H484 C494 0.930 . S
H485 C495 0.930 . S
C486 H480 0.930 . S
C486 C487 1.355 . S
C486 C488 1.415 . S
C487 C486 1.355 . S
C487 C489 1.419 . S
C488 C486 1.415 . S
C488 C493 1.425 . S
C488 C495 1.409 . S
C489 H481 0.930 . S
C489 C487 1.419 . S
C489 C490 1.362 . S
C490 H482 0.930 . S
C490 C489 1.362 . S
C490 C493 1.409 . S
C491 H483 0.930 . S
C491 C492 1.355 . S
C491 C493 1.415 . S
C492 C491 1.355 . S
C492 C494 1.419 . S
C493 C488 1.425 . S
C493 C490 1.409 . S
C493 C491 1.415 . S
C494 H484 0.930 . S
C494 C492 1.419 . S
C494 C495 1.362 . S
C495 H485 0.930 . S
C495 C488 1.409 . S
C495 C494 1.362 . S
H496 C502 0.930 1_655 S
H497 C505 0.930 . S
H498 C506 0.930 . S
H499 C507 0.930 . S
H500 C510 0.930 . S
H501 C511 0.930 1_655 S
C502 H496 0.930 1_455 S
C502 C503 1.355 . S
C502 C504 1.415 . S
C503 C502 1.355 . S
C503 C505 1.419 . S
C504 C502 1.415 . S
C504 C509 1.425 . S
C504 C511 1.409 . S
C505 H497 0.930 . S
C505 C503 1.419 . S
C505 C506 1.362 . S
C506 H498 0.930 . S
C506 C505 1.362 . S
C506 C509 1.409 . S
C507 H499 0.930 . S
C507 C508 1.355 . S
C507 C509 1.415 . S
C508 C507 1.355 . S
C508 C510 1.419 . S
C509 C504 1.425 . S
C509 C506 1.409 . S
C509 C507 1.415 . S
C510 H500 0.930 . S
C510 C508 1.419 . S
C510 C511 1.362 . S
C511 H501 0.930 1_455 S
C511 C504 1.409 . S
C511 C510 1.362 . S
H512 C518 0.930 . S
H513 C521 0.930 . S
H514 C522 0.930 . S
H515 C523 0.930 . S
H516 C526 0.930 . S
H517 C527 0.930 . S
C518 H512 0.930 . S
C518 C519 1.355 . S
C518 C520 1.415 . S
C519 C518 1.355 . S
C519 C521 1.419 . S
C520 C518 1.415 . S
C520 C525 1.425 . S
C520 C527 1.409 . S
C521 H513 0.930 . S
C521 C519 1.419 . S
C521 C522 1.362 . S
C522 H514 0.930 . S
C522 C521 1.362 . S
C522 C525 1.409 . S
C523 H515 0.930 . S
C523 C524 1.355 . S
C523 C525 1.415 . S
C524 C523 1.355 . S
C524 C526 1.419 . S
C525 C520 1.425 . S
C525 C522 1.409 . S
C525 C523 1.415 . S
C526 H516 0.930 . S
C526 C524 1.419 . S
C526 C527 1.362 . S
C527 H517 0.930 . S
C527 C520 1.409 . S
C527 C526 1.362 . S
C343 C147 1.469 . S
C348 C74 1.469 . S
C359 C242 1.481 . S
C364 C315 1.481 . S
C375 C63 1.483 . S
C380 C158 1.483 . S
C391 C326 1.519 . S
C396 C231 1.519 . S
C407 C310 1.325 . S
C412 C56 1.300 . S
C423 C142 1.241 . S
C428 C224 1.252 . S
C439 C151 1.244 . S
C444 C238 1.308 . S
C455 C319 1.282 . S
C460 C70 1.261 . S
C471 C140 1.207 . S
C476 C226 1.264 . S
C487 C308 1.299 . S
C492 C58 1.325 . S
C503 C322 1.285 . S
C508 C67 1.303 . S
C519 C235 1.255 . S
C524 C154 1.243 . S
