# Generated by pormake.
# Topology snz, (6)-cn, num edge types: 1
# Building blocks:
#     Node 0, Type 0, BuildingBlock: NUHQIS_clean_sbu_0, # of connection points: 6
#     Node 1, Type 0, BuildingBlock: NUHQIS_clean_sbu_0, # of connection points: 6
#     Node 2, Type 0, BuildingBlock: NUHQIS_clean_sbu_0, # of connection points: 6
#     Node 3, Type 0, BuildingBlock: NUHQIS_clean_sbu_0, # of connection points: 6
#     Node 4, Type 0, BuildingBlock: NUHQIS_clean_sbu_0, # of connection points: 6
#     Node 5, Type 0, BuildingBlock: NUHQIS_clean_sbu_0, # of connection points: 6
#     Node 6, Type 0, BuildingBlock: NUHQIS_clean_sbu_0, # of connection points: 6
#     Node 7, Type 0, BuildingBlock: NUHQIS_clean_sbu_0, # of connection points: 6
#     Node 8, Type 0, BuildingBlock: NUHQIS_clean_sbu_0, # of connection points: 6
#     Edge 9, Type (0, 0), BuildingBlock: OJICUG_clean_linker_0, # of connection points: 2
#     Edge 10, Type (0, 0), BuildingBlock: OJICUG_clean_linker_0, # of connection points: 2
#     Edge 11, Type (0, 0), BuildingBlock: OJICUG_clean_linker_0, # of connection points: 2
#     Edge 12, Type (0, 0), BuildingBlock: OJICUG_clean_linker_0, # of connection points: 2
#     Edge 13, Type (0, 0), BuildingBlock: OJICUG_clean_linker_0, # of connection points: 2
#     Edge 14, Type (0, 0), BuildingBlock: OJICUG_clean_linker_0, # of connection points: 2
#     Edge 15, Type (0, 0), BuildingBlock: OJICUG_clean_linker_0, # of connection points: 2
#     Edge 16, Type (0, 0), BuildingBlock: OJICUG_clean_linker_0, # of connection points: 2
#     Edge 17, Type (0, 0), BuildingBlock: OJICUG_clean_linker_0, # of connection points: 2
#     Edge 18, Type (0, 0), BuildingBlock: OJICUG_clean_linker_0, # of connection points: 2
#     Edge 19, Type (0, 0), BuildingBlock: OJICUG_clean_linker_0, # of connection points: 2
#     Edge 20, Type (0, 0), BuildingBlock: OJICUG_clean_linker_0, # of connection points: 2
#     Edge 21, Type (0, 0), BuildingBlock: OJICUG_clean_linker_0, # of connection points: 2
#     Edge 22, Type (0, 0), BuildingBlock: OJICUG_clean_linker_0, # of connection points: 2
#     Edge 23, Type (0, 0), BuildingBlock: OJICUG_clean_linker_0, # of connection points: 2
#     Edge 24, Type (0, 0), BuildingBlock: OJICUG_clean_linker_0, # of connection points: 2
#     Edge 25, Type (0, 0), BuildingBlock: OJICUG_clean_linker_0, # of connection points: 2
#     Edge 26, Type (0, 0), BuildingBlock: OJICUG_clean_linker_0, # of connection points: 2
#     Edge 27, Type (0, 0), BuildingBlock: OJICUG_clean_linker_0, # of connection points: 2
#     Edge 28, Type (0, 0), BuildingBlock: OJICUG_clean_linker_0, # of connection points: 2
#     Edge 29, Type (0, 0), BuildingBlock: OJICUG_clean_linker_0, # of connection points: 2
#     Edge 30, Type (0, 0), BuildingBlock: OJICUG_clean_linker_0, # of connection points: 2
#     Edge 31, Type (0, 0), BuildingBlock: OJICUG_clean_linker_0, # of connection points: 2
#     Edge 32, Type (0, 0), BuildingBlock: OJICUG_clean_linker_0, # of connection points: 2
#     Edge 33, Type (0, 0), BuildingBlock: OJICUG_clean_linker_0, # of connection points: 2
#     Edge 34, Type (0, 0), BuildingBlock: OJICUG_clean_linker_0, # of connection points: 2
#     Edge 35, Type (0, 0), BuildingBlock: OJICUG_clean_linker_0, # of connection points: 2
# Relax obj value: 0.586
# Max RMSD: 0.243
# Mean RMSD: 0.164
data_MOF--net-snz--node1-NUHQIS_clean_sbu_0--edge1-OJICUG_clean_linker_0
_symmetry_space_group_name_H-M    P1
_symmetry_Int_Tables_number       1
_symmetry_cell_setting            triclinic
loop_
_symmetry_equiv_pos_as_xyz
'x, y, z'
_cell_length_a     55.144986
_cell_length_b     41.391098
_cell_length_c     12.416148
_cell_angle_alpha  96.486375
_cell_angle_beta   97.300612
_cell_angle_gamma 122.03894
loop_
_atom_site_label
_atom_site_type_symbol
_atom_site_fract_x
_atom_site_fract_y
_atom_site_fract_z
_atom_type_partial_charge
Tb0 Tb 0.1518 0.50084 0.33014 0.0
Eu1 Eu 0.10025 0.51481 0.3036 0.0
C2 C 0.12821 0.50969 1.07558 0.0
C3 C 0.16812 0.59074 0.38403 0.0
C4 C 0.20062 0.46375 0.41975 0.0
C5 C 0.21069 0.4126 0.40814 0.0
C6 C 0.20048 0.43311 0.35701 0.0
C7 C 0.2114 0.47327 0.53584 0.0
C8 C 0.22173 0.45278 0.58714 0.0
C9 C 0.22164 0.4221 0.52415 0.0
C10 C 0.19224 0.48753 0.36164 0.0
O11 O 0.14352 0.50076 0.50828 0.0
O12 O 0.10555 0.509 0.49337 0.0
O13 O 0.07606 0.4504 0.22245 0.0
O14 O 0.11145 0.43924 0.28045 0.0
C15 C 0.12483 0.50506 0.55825 0.0
O16 O 0.08742 0.55563 0.28927 0.0
O17 O 0.05412 0.49584 0.28978 0.0
O18 O 0.10955 0.51506 0.12149 0.0
O19 O 0.14672 0.50499 0.14409 0.0
O20 O 0.17676 0.56692 0.35609 0.0
O21 O 0.14018 0.57577 0.37915 0.0
C22 C 0.08418 0.42585 0.22863 0.0
O23 O 0.16993 0.46937 0.27713 0.0
O24 O 0.19268 0.51579 0.42159 0.0
C25 C 0.03991 0.53177 0.19093 0.0
C26 C 1.00997 0.55324 1.04431 0.0
C27 C 1.00202 0.54451 0.14577 0.0
C28 C 1.01691 0.53402 0.21836 0.0
C29 C 0.04663 0.53778 1.08657 0.0
C30 C 1.03182 0.54849 1.01394 0.0
C31 C 0.05956 0.5299 0.27856 0.0
H32 H 0.21066 0.38981 0.35578 0.0
H33 H 0.19296 0.42541 0.26741 0.0
H34 H 0.21223 0.49692 0.58727 0.0
H35 H 0.22967 0.46091 0.67651 0.0
H36 H 0.98569 0.54846 0.17302 0.0
H37 H 1.01163 0.52999 0.29897 0.0
H38 H 0.06443 0.53635 1.06391 0.0
H39 H 0.03833 0.55469 0.93619 0.0
Tb40 Tb 0.65821 0.53592 1.03593 0.0
Eu41 Eu 0.6027 0.54054 1.01206 0.0
C42 C 0.6314 0.53675 0.267 0.0
C43 C 0.59243 0.4541 0.98587 0.0
C44 C 0.73304 0.55508 1.01303 0.0
C45 C 0.76656 0.54979 0.91185 0.0
C46 C 0.73933 0.53275 0.94236 0.0
C47 C 0.75482 0.59517 1.05206 0.0
C48 C 0.78214 0.61223 1.02185 0.0
C49 C 0.78856 0.58979 0.95163 0.0
C50 C 0.70468 0.53546 1.05064 0.0
O51 O 0.65256 0.54108 0.85257 0.0
O52 O 0.60999 0.53898 0.82551 0.0
O53 O 0.63913 0.60567 1.0521 0.0
O54 O 0.67884 0.60094 1.07313 0.0
C55 C 0.63135 0.5398 0.78171 0.0
O56 O 0.55636 0.51445 0.93837 0.0
O57 O 0.58067 0.56936 1.057 0.0
O58 O 0.61256 0.54175 0.20455 0.0
O59 O 0.6495 0.53159 0.21438 0.0
O60 O 0.62089 0.4718 0.98587 0.0
O61 O 0.58206 0.47562 1.00881 0.0
C62 C 0.66779 0.62276 1.07753 0.0
O63 O 0.70071 0.55615 0.12433 0.0
O64 O 0.68066 0.51176 0.97534 0.0
C65 C 0.53369 0.52298 1.077 0.0
C66 C 0.49755 0.49677 0.23117 0.0
C67 C 0.4931 0.51627 0.15282 0.0
C68 C 0.51123 0.52955 1.07665 0.0
C69 C 0.53746 0.50239 0.15262 0.0
C70 C 0.5197 0.48959 0.22918 0.0
C71 C 0.55475 0.53954 1.00532 0.0
H72 H 0.7706 0.53125 0.85913 0.0
H73 H 0.72327 0.50174 0.91195 0.0
H74 H 0.75093 0.6134 0.10697 0.0
H75 H 0.79822 0.64315 1.05331 0.0
H76 H 0.4762 0.52223 0.15264 0.0
H77 H 0.50807 0.54551 1.01915 0.0
H78 H 0.55453 0.49675 0.15381 0.0
H79 H 0.52334 0.47408 0.2871 0.0
Tb80 Tb 0.59312 0.06344 0.81391 0.0
Eu81 Eu 0.65701 0.14154 0.87697 0.0
C82 C 0.62165 0.1012 0.60037 0.0
C83 C 0.64551 0.05775 0.88591 0.0
C84 C 0.52034 0.98566 0.84891 0.0
C85 C 0.49216 0.99534 0.96967 0.0
C86 C 0.51174 1.00913 0.89889 0.0
C87 C 0.50869 0.94811 0.86949 0.0
C88 C 0.48944 0.93454 0.94108 0.0
C89 C 0.48124 0.95815 0.99307 0.0
C90 C 0.54317 1.0007 0.78316 0.0
O91 O 0.60292 0.07691 1.00732 0.0
O92 O 0.64745 0.13603 1.05924 0.0
O93 O 0.62595 0.16555 0.85516 0.0
O94 O 0.58214 0.10701 0.84214 0.0
C95 C 0.62466 0.10635 1.0901 0.0
O96 O 0.70397 0.19204 0.94845 0.0
O97 O 0.69264 0.14866 0.80223 0.0
O98 O 0.64386 0.13047 0.67967 0.0
O99 O 0.59997 0.0718 0.63597 0.0
O100 O 0.6227 0.04347 0.80456 0.0
O101 O 0.65686 0.0928 0.94284 0.0
C102 C 0.59654 0.14482 0.84614 0.0
O103 O 0.54796 0.03027 0.73983 0.0
O104 O 0.5676 1.00502 0.82836 0.0
C105 C 0.74326 0.18149 0.90046 0.0
C106 C 0.79845 0.18554 0.90034 0.0
C107 C 0.79748 0.21938 0.92001 0.0
C108 C 0.77076 0.21737 0.91958 0.0
C109 C 0.74417 0.14765 0.88424 0.0
C110 C 0.77089 0.1496 0.88474 0.0
C111 C 0.7141 0.17931 0.87504 0.0
H112 H 0.48637 1.01426 1.00914 0.0
H113 H 0.52066 0.03843 0.88555 0.0
H114 H 0.5151 0.9296 0.83232 0.0
H115 H 0.48113 0.9056 0.95656 0.0
H116 H 0.81751 0.24803 0.93496 0.0
H117 H 0.7716 0.2443 0.93039 0.0
H118 H 0.72385 0.11913 0.86689 0.0
H119 H 0.76953 0.1224 0.86834 0.0
Tb120 Tb 0.81258 0.87634 0.29034 0.0
Eu121 Eu 0.76049 0.88943 0.2624 0.0
C122 C 0.78869 0.88548 1.03566 0.0
C123 C 0.82966 0.96557 0.35368 0.0
C124 C 0.86422 0.84403 0.36211 0.0
C125 C 0.89443 0.81759 0.36994 0.0
C126 C 0.88367 0.83718 0.31835 0.0
C127 C 0.85529 0.83057 0.45778 0.0
C128 C 0.86615 0.81102 0.50986 0.0
C129 C 0.88597 0.80445 0.46675 0.0
C130 C 0.85445 0.86632 0.30811 0.0
O131 O 0.80393 0.87499 0.46798 0.0
O132 O 0.76619 0.88405 0.45286 0.0
O133 O 0.73627 0.82148 0.22346 0.0
O134 O 0.77499 0.8149 0.26044 0.0
C135 C 0.78535 0.87977 0.5178 0.0
O136 O 0.74018 0.92044 0.31458 0.0
O137 O 0.71794 0.87422 0.16859 0.0
O138 O 0.77056 0.89174 1.08199 0.0
O139 O 0.80664 0.87999 1.10402 0.0
O140 O 0.83778 0.94085 0.33993 0.0
O141 O 0.80158 0.95268 0.32396 0.0
C142 C 0.74652 0.7988 0.2274 0.0
O143 O 0.83094 0.84649 0.22889 0.0
O144 O 0.85461 0.89343 0.37275 0.0
C145 C 0.70939 0.92578 0.1714 0.0
C146 C 0.68886 0.96805 1.06802 0.0
C147 C 0.70168 0.97907 0.18278 0.0
C148 C 0.71167 0.95827 0.23344 0.0
C149 C 0.69656 0.91459 1.05668 0.0
C150 C 0.68648 0.93539 1.00585 0.0
C151 C 0.71815 0.90224 0.2289 0.0
H152 H 0.90992 0.81352 0.33531 0.0
H153 H 0.89088 0.84749 0.24479 0.0
H154 H 0.84018 0.83546 0.49262 0.0
H155 H 0.85892 0.80088 0.5835 0.0
H156 H 0.70348 1.00342 0.23466 0.0
H157 H 0.72081 0.96736 0.32218 0.0
H158 H 0.69403 0.88947 1.00597 0.0
H159 H 0.67701 0.926 0.91741 0.0
Tb160 Tb 0.30495 0.85077 0.56874 0.0
Eu161 Eu 0.25832 0.85466 0.55779 0.0
C162 C 0.28406 0.85142 0.80962 0.0
C163 C 0.24587 0.7669 0.52841 0.0
C164 C 0.36762 0.86574 0.44983 0.0
C165 C 0.3993 0.86356 0.33438 0.0
C166 C 0.38062 0.84744 0.40669 0.0
C167 C 0.37348 0.90048 0.41952 0.0
C168 C 0.39231 0.9168 0.34757 0.0
C169 C 0.40549 0.89852 0.30395 0.0
C170 C 0.34679 0.84707 0.52103 0.0
O171 O 0.28194 0.85491 0.40518 0.0
O172 O 0.27826 0.85528 0.39377 0.0
O173 O 0.29423 0.92179 0.61017 0.0
O174 O 0.33195 0.91549 0.60046 0.0
C175 C 0.29558 0.85524 0.32355 0.0
O176 O 0.21539 0.83316 0.45128 0.0
O177 O 0.23337 0.88013 0.59365 0.0
O178 O 0.26243 0.85054 0.74604 0.0
O179 O 0.30389 0.85178 0.75566 0.0
O180 O 0.27471 0.78665 0.55258 0.0
O181 O 0.23395 0.78736 0.52916 0.0
C182 C 0.32277 0.93867 0.61828 0.0
O183 O 0.34933 0.86963 0.6099 0.0
O184 O 0.31952 0.82294 0.46883 0.0
C185 C 0.18148 0.83615 0.54798 0.0
C186 C 0.12671 0.80282 0.61457 0.0
C187 C 0.1326 0.82436 0.53 0.0
C188 C 0.15955 0.84075 0.49738 0.0
C189 C 0.17579 0.81457 0.63194 0.0
C190 C 0.14877 0.79806 0.66461 0.0
C191 C 0.21036 0.85518 0.51523 0.0
H192 H 0.40847 0.84815 0.30079 0.0
H193 H 0.37602 0.82032 0.42781 0.0
H194 H 0.36334 0.91484 0.45073 0.0
H195 H 0.39669 0.94386 0.32687 0.0
H196 H 0.11614 0.82803 0.4871 0.0
H197 H 0.16328 0.85718 0.43237 0.0
H198 H 0.19235 0.81069 0.67286 0.0
H199 H 0.14536 0.78197 0.73026 0.0
Tb200 Tb 0.25909 0.25339 0.7056 0.0
Eu201 Eu 0.3221 0.33191 0.77151 0.0
C202 C 0.28897 0.2863 0.49213 0.0
C203 C 0.3178 0.24851 0.74833 0.0
C204 C 0.17617 0.21584 0.68631 0.0
C205 C 0.12465 0.1922 0.59684 0.0
C206 C 0.15091 0.19255 0.59809 0.0
C207 C 0.17357 0.23892 0.77196 0.0
C208 C 0.14744 0.23813 0.77151 0.0
C209 C 0.12193 0.2144 0.68507 0.0
C210 C 0.20331 0.21276 0.70047 0.0
O211 O 0.27124 0.26332 0.89819 0.0
O212 O 0.31411 0.32326 0.95293 0.0
O213 O 0.29138 0.35173 0.7887 0.0
O214 O 0.25797 0.30128 0.65146 0.0
C215 C 0.29232 0.29246 0.98239 0.0
O216 O 0.36989 0.36606 0.82826 0.0
O217 O 0.3487 0.39376 0.76787 0.0
O218 O 0.31059 0.31665 0.57189 0.0
O219 O 0.2672 0.25656 0.52725 0.0
O220 O 0.28808 0.22852 0.71694 0.0
O221 O 0.33355 0.28685 0.77312 0.0
C222 C 0.26796 0.33584 0.70954 0.0
O223 O 0.21456 0.20764 0.618 0.0
O224 O 0.22435 0.23628 0.78657 0.0
C225 C 0.39305 0.41181 0.71797 0.0
C226 C 0.42777 0.4417 0.56116 0.0
C227 C 0.4354 0.46483 0.66754 0.0
C228 C 0.41804 0.45004 0.74513 0.0
C229 C 0.38582 0.3884 0.61297 0.0
C230 C 0.40289 0.40324 0.5351 0.0
C231 C 0.37352 0.39687 0.79572 0.0
H232 H 0.10598 0.17321 0.52815 0.0
H233 H 0.1511 0.17367 0.53082 0.0
H234 H 0.19173 0.25724 0.84285 0.0
H235 H 0.14729 0.25634 0.84087 0.0
H236 H 0.4544 0.49461 0.68983 0.0
H237 H 0.4239 0.46858 0.82564 0.0
H238 H 0.3668 0.3587 0.59075 0.0
H239 H 0.39672 0.38449 0.45466 0.0
Tb240 Tb 0.45591 0.19663 0.68254 0.0
Eu241 Eu 0.45738 0.19405 0.92533 0.0
C242 C 0.50128 0.27931 0.86241 0.0
C243 C 0.50392 0.18375 0.80178 0.0
C244 C 0.41177 0.15967 0.41053 0.0
C245 C 0.38312 0.11624 0.23208 0.0
C246 C 0.4062 0.15283 0.29488 0.0
C247 C 0.39079 0.13247 0.46179 0.0
C248 C 0.3677 0.09589 0.39957 0.0
C249 C 0.36555 0.08589 0.28524 0.0
C250 C 0.44128 0.19008 0.4779 0.0
O251 O 0.4313 0.13218 0.67922 0.0
O252 O 0.41583 0.13397 0.83743 0.0
O253 O 0.42613 0.21539 0.89957 0.0
O254 O 0.41622 0.19668 0.71234 0.0
C255 C 0.41297 0.11333 0.74249 0.0
O256 O 0.43971 0.17849 1.07225 0.0
O257 O 0.48471 0.19765 1.07638 0.0
O258 O 0.48955 0.26049 0.94044 0.0
O259 O 0.49211 0.25947 0.75757 0.0
O260 O 0.49821 0.19954 0.72323 0.0
O261 O 0.48631 0.1726 0.87197 0.0
C262 C 0.40996 0.2091 0.80137 0.0
O263 O 0.44257 0.21614 0.55212 0.0
O264 O 0.45612 0.17652 0.51993 0.0
C265 C 0.45497 0.13982 0.13637 0.0
C266 C 0.41988 0.06114 0.14947 0.0
C267 C 0.42798 0.07087 1.04918 0.0
C268 C 0.44516 0.11002 1.04254 0.0
C269 C 0.45233 0.13026 0.24024 0.0
C270 C 0.4352 0.0911 0.24729 0.0
C271 C 0.46216 0.17841 0.12019 0.0
H272 H 0.38198 0.11054 0.14371 0.0
H273 H 0.42145 0.1742 0.25407 0.0
H274 H 0.39384 0.13779 0.55108 0.0
H275 H 0.35403 0.07393 0.4431 0.0
H276 H 0.41766 0.04871 0.97296 0.0
H277 H 0.44806 0.11684 0.96176 0.0
H278 H 0.46079 0.15289 0.31412 0.0
H279 H 0.43073 0.08527 0.32777 0.0
Tb280 Tb 0.95726 0.16957 0.85667 0.0
Eu281 Eu 0.95852 0.22382 0.70421 0.0
C282 C 0.92061 0.1292 0.61159 0.0
C283 C 1.01006 0.20461 0.72988 0.0
C284 C 0.95553 0.1254 1.08895 0.0
C285 C 0.99581 0.19889 0.28866 0.0
C286 C 0.9909 0.16756 0.16438 0.0
C287 C 0.92114 0.10883 0.13046 0.0
C288 C 0.91811 0.13358 0.25129 0.0
C289 C 0.95779 0.18394 0.35255 0.0
C290 C 0.95247 0.12012 0.96983 0.0
O291 O 0.98494 0.22795 0.97987 0.0
O292 O 0.99084 0.26798 0.85859 0.0
O293 O 0.92972 0.22545 0.81707 0.0
O294 O 0.91541 0.16759 0.8619 0.0
C295 C 0.99732 0.26377 0.95889 0.0
O296 O 0.98132 0.27415 0.62985 0.0
O297 O 0.93455 0.24371 0.61132 0.0
O298 O 0.9207 0.16101 0.60647 0.0
O299 O 0.94087 0.1325 0.68867 0.0
O300 O 1.00067 0.19227 0.8184 0.0
O301 O 0.99472 0.21354 0.66227 0.0
C302 C 0.91024 0.19512 0.851 0.0
O303 O 0.93046 0.12027 0.91903 0.0
O304 O 0.97612 0.14362 0.9378 0.0
C305 C 0.95362 0.26292 0.45821 0.0
C306 C 0.95076 0.20382 0.1947 0.0
C307 C 0.91284 0.18901 0.25976 0.0
C308 C 0.91806 0.2207 0.38415 0.0
C309 C 0.98777 0.27915 0.41536 0.0
C310 C 0.99047 0.25416 0.29471 0.0
C311 C 0.95722 0.26928 0.57745 0.0
H312 H 1.01779 0.22256 0.33266 0.0
H313 H 1.00994 0.17615 0.12949 0.0
H314 H 0.90106 0.08463 1.07565 0.0
H315 H 0.89708 0.12109 0.27458 0.0
H316 H 0.8908 0.16537 0.21632 0.0
H317 H 0.89919 0.21237 0.41992 0.0
H318 H 1.00797 0.30353 0.46905 0.0
H319 H 1.01142 0.26646 0.27093 0.0
Tb320 Tb 0.94306 0.65726 0.67025 0.0
Eu321 Eu 0.97427 0.72527 0.89245 0.0
C322 C 0.97171 0.64663 0.87526 0.0
C323 C 0.90347 0.65779 0.83427 0.0
C324 C 0.94788 0.59994 0.44579 0.0
C325 C 0.99745 0.61469 0.46791 0.0
C326 C 0.97273 0.60453 0.51127 0.0
C327 C 0.94655 0.60004 0.33269 0.0
C328 C 0.97132 0.61069 0.28969 0.0
C329 C 0.99795 0.62147 0.35948 0.0
C330 C 0.92794 0.60623 0.49935 0.0
O331 O 0.93831 0.70332 0.62323 0.0
O332 O 0.94584 0.73988 0.7934 0.0
O333 O 1.00251 0.74837 0.7686 0.0
O334 O 0.9911 0.68895 0.68618 0.0
C335 C 0.93657 0.72987 0.68475 0.0
O336 O 0.98325 0.74252 1.07278 0.0
O337 O 1.00701 0.78588 0.97846 0.0
O338 O 0.98997 0.68461 0.90206 0.0
O339 O 0.94631 0.63154 0.80908 0.0
O340 O 0.90457 0.64682 0.73178 0.0
O341 O 0.92749 0.68364 0.91095 0.0
C342 C 1.00946 0.72714 0.71178 0.0
O343 O 0.92595 0.59871 0.59801 0.0
O344 O 0.93145 0.63977 0.49608 0.0
C345 C 0.03373 0.78391 0.1394 0.0
C346 C 0.0644 0.75487 0.24051 0.0
C347 C 0.05247 0.77104 0.30458 0.0
C348 C 0.03691 0.78512 0.2537 0.0
C349 C 0.05111 0.77605 1.08216 0.0
C350 C 0.06674 0.76209 0.13316 0.0
C351 C 1.00636 0.77697 1.07606 0.0
H352 H 1.01705 0.62117 0.52306 0.0
H353 H 0.9743 0.60427 0.59901 0.0
H354 H 0.9276 0.59649 0.28065 0.0
H355 H 0.97025 0.61505 0.20538 0.0
H356 H 0.05076 0.76696 0.38858 0.0
H357 H 1.02396 0.79147 0.29975 0.0
H358 H 0.04939 0.77536 0.9939 0.0
H359 H 0.07658 0.75114 1.08279 0.0
C360 C 0.14669 0.50304 0.88478 0.0
C361 C 0.12782 0.50868 0.94297 0.0
H362 H 0.16117 0.49748 0.73138 0.0
C363 C 0.10786 0.51276 0.86838 0.0
H364 H 0.16271 0.49948 0.93199 0.0
C365 C 0.10687 0.51144 0.74933 0.0
C366 C 0.12572 0.50584 0.69102 0.0
H367 H 0.09241 0.51709 0.90231 0.0
H368 H 0.09084 0.515 0.70227 0.0
C369 C 0.14573 0.50177 0.7655 0.0
C370 C 0.65267 0.53717 0.59647 0.0
C371 C 0.63159 0.53912 0.64963 0.0
H372 H 0.66971 0.53466 0.4477 0.0
C373 C 0.61054 0.53992 0.57082 0.0
H374 H 0.66969 0.5363 0.64734 0.0
C375 C 0.61065 0.53913 0.45259 0.0
C376 C 0.63167 0.53713 0.39924 0.0
H377 H 0.59343 0.54128 0.60067 0.0
H378 H 0.59361 0.54002 0.4019 0.0
C379 C 0.65267 0.53611 0.47781 0.0
C380 C 0.64519 0.13324 0.43064 0.0
C381 C 0.62182 0.10215 0.46877 0.0
H382 H 0.66493 0.15965 0.29594 0.0
C383 C 0.59929 0.07255 0.37621 0.0
H384 H 0.66356 0.15735 0.4927 0.0
C385 C 0.60012 0.07396 0.25894 0.0
C386 C 0.62354 0.1051 0.22101 0.0
H387 H 0.58047 0.04747 0.39405 0.0
H388 H 0.58182 0.04979 0.19673 0.0
C389 C 0.64601 0.13464 0.31361 0.0
C390 C 0.80588 0.8762 0.7254 0.0
C391 C 0.78621 0.88077 0.6507 0.0
H392 H 0.82258 0.87373 0.89212 0.0
C393 C 0.76771 0.8872 0.709 0.0
H394 H 0.82105 0.87127 0.69135 0.0
C395 C 0.76871 0.88883 0.82817 0.0
C396 C 0.78833 0.88425 0.90296 0.0
H397 H 0.75195 0.89121 0.66183 0.0
H398 H 0.75353 0.89378 0.86203 0.0
C399 C 0.80685 0.87776 0.84479 0.0
C400 C 0.26449 0.85121 1.00041 0.0
C401 C 0.28589 0.85239 0.94173 0.0
H402 H 0.24903 0.85098 0.15551 0.0
C403 C 0.30933 0.85503 1.01456 0.0
H404 H 0.24571 0.84929 0.95313 0.0
C405 C 0.31123 0.85617 0.13284 0.0
C406 C 0.29009 0.85486 0.19213 0.0
H407 H 0.32679 0.85627 0.97998 0.0
H408 H 0.33007 0.85801 0.17943 0.0
C409 C 0.26641 0.85231 0.1201 0.0
C410 C 0.26836 0.25855 0.15056 0.0
C411 C 0.29138 0.29034 0.11305 0.0
H412 H 0.24891 0.23149 0.28529 0.0
C413 C 0.31344 0.32026 0.20598 0.0
H414 H 0.25036 0.23413 1.0881 0.0
C415 C 0.31259 0.31866 0.3229 0.0
C416 C 0.28959 0.28697 0.36063 0.0
H417 H 0.33198 0.34584 0.18867 0.0
H418 H 0.33057 0.34321 0.38514 0.0
C419 C 0.2675 0.25696 0.26776 0.0
C420 C 0.36551 0.02668 0.29348 0.0
C421 C 0.35437 0.04473 0.23283 0.0
H422 H 0.39766 1.01248 0.30346 0.0
C423 C 0.34937 0.03474 0.11639 0.0
H424 H 0.3668 0.02906 0.382 0.0
C425 C 0.3671 0.02459 1.0715 0.0
C426 C 0.38976 0.02668 0.14587 0.0
H427 H 0.33788 0.04388 1.06394 0.0
H428 H 0.36816 0.02606 0.98557 0.0
C429 C 0.38327 1.01673 0.24786 0.0
C430 C 0.94787 0.21776 0.15248 0.0
C431 C 0.95249 0.17684 0.16245 0.0
H432 H 0.94593 0.27528 0.26622 0.0
C433 C 0.96028 0.13711 0.28197 0.0
H434 H 0.94384 0.22722 1.06358 0.0
C435 C 0.96051 0.16988 0.39465 0.0
C436 C 0.95627 0.21112 0.38489 0.0
H437 H 0.96272 0.11258 0.28073 0.0
H438 H 0.96429 0.16027 0.48365 0.0
C439 C 0.9483 0.25068 0.26506 0.0
C440 C 1.02727 0.64959 0.21736 0.0
C441 C 1.02632 0.64885 0.32929 0.0
H442 H 0.04174 0.68527 1.09904 0.0
C443 C 0.04919 0.68155 0.40964 0.0
H444 H 1.01087 0.62465 0.15385 0.0
C445 C 0.06736 0.71675 0.37827 0.0
C446 C 0.06257 0.71956 0.26722 0.0
H447 H 0.05042 0.68187 0.49712 0.0
H448 H 0.08177 0.74286 0.44152 0.0
C449 C 0.04532 0.68469 0.18614 0.0
C450 C 0.23024 0.33929 0.58291 0.0
C451 C 0.25548 0.35822 0.66998 0.0
H452 H 0.19977 0.34376 0.47099 0.0
C453 C 0.26888 0.39836 0.71249 0.0
H454 H 0.21901 0.30838 0.54806 0.0
C455 C 0.25773 0.41898 0.66721 0.0
C456 C 0.23291 0.40011 0.57781 0.0
H457 H 0.28837 0.41408 0.77909 0.0
H458 H 0.26913 0.45 0.70033 0.0
C459 C 0.21921 0.35977 0.53777 0.0
C460 C 0.71887 0.68815 0.15145 0.0
C461 C 0.68803 0.66795 0.11469 0.0
H462 H 0.76063 0.74302 0.21491 0.0
C463 C 0.67672 0.69186 0.11737 0.0
H464 H 0.72903 0.67183 0.15221 0.0
C465 C 0.69512 0.73342 0.15396 0.0
C466 C 0.72597 0.7536 0.19086 0.0
H467 H 0.65332 0.67841 1.09083 0.0
H468 H 0.685 0.74979 0.153 0.0
C469 C 0.73723 0.72964 0.18843 0.0
C470 C 0.4382 0.94784 1.07084 0.0
C471 C 0.46229 0.94437 1.07462 0.0
H472 H 0.40096 0.93535 0.13821 0.0
C473 C 0.46818 0.92721 0.15667 0.0
H474 H 0.43308 0.96082 1.00819 0.0
C475 C 0.45013 0.91315 0.23202 0.0
C476 C 0.42548 0.91548 0.2267 0.0
H477 H 0.48695 0.92488 0.16313 0.0
H478 H 0.45563 0.90055 0.29487 0.0
C479 C 0.41988 0.93336 0.1457 0.0
C480 C 0.5535 0.14623 0.90089 0.0
C481 C 0.57666 0.16133 0.84319 0.0
H482 H 0.51435 0.14105 0.93526 0.0
C483 C 0.57567 0.18499 0.77011 0.0
H484 H 0.55227 0.12724 0.9563 0.0
C485 C 0.55271 0.19242 0.75553 0.0
C486 C 0.52947 0.17682 0.81354 0.0
H487 H 0.59199 0.19659 0.7204 0.0
H488 H 0.5531 0.21026 0.69753 0.0
C489 C 0.53108 0.154 0.8877 0.0
C490 C 1.01276 0.3321 1.04892 0.0
C491 C 1.01798 0.30211 1.04633 0.0
H492 H 1.02798 0.39206 0.10591 0.0
C493 C 0.04537 0.31293 0.11067 0.0
H494 H 0.99248 0.3259 0.9999 0.0
C495 C 0.06664 0.3522 0.1718 0.0
C496 C 0.06143 0.38237 0.17166 0.0
H497 H 0.05098 0.29151 0.10969 0.0
H498 H 0.08752 0.35909 0.21693 0.0
C499 C 1.03359 0.37075 0.11014 0.0
C500 C 0.87169 0.65245 0.97122 0.0
C501 C 0.87409 0.64061 0.86428 0.0
H502 H 0.84342 0.6459 1.08277 0.0
C503 C 0.84801 0.61218 0.78617 0.0
H504 H 0.89113 0.6742 1.034 0.0
C505 C 0.8205 0.59598 0.81416 0.0
C506 C 0.81806 0.60771 0.92118 0.0
H507 H 0.84876 0.60229 0.70284 0.0
H508 H 0.80106 0.57447 0.75106 0.0
C509 C 0.84416 0.63634 0.99911 0.0
C510 C 0.96042 0.58531 0.93515 0.0
C511 C 0.98063 0.62057 0.90778 0.0
H512 H 0.95362 0.53561 0.99776 0.0
C513 C 1.00914 0.63008 0.9082 0.0
H514 H 0.93808 0.5769 0.93284 0.0
C515 C 1.01795 0.60616 0.94325 0.0
C516 C 0.99846 0.57242 0.97981 0.0
H517 H 1.02487 0.65661 0.8843 0.0
H518 H 0.04066 0.61574 0.94949 0.0
C519 C 0.96928 0.56159 0.97154 0.0
C520 C 0.54689 0.39022 1.01139 0.0
C521 C 0.57058 0.40887 0.95761 0.0
H522 H 0.5081 0.33695 1.02801 0.0
C523 C 0.57104 0.38373 0.87118 0.0
H524 H 0.54497 0.40764 1.07743 0.0
C525 C 0.54878 0.34262 0.83923 0.0
C526 C 0.52529 0.324 0.8943 0.0
H527 H 0.58824 0.39604 0.82537 0.0
H528 H 0.5502 0.32524 0.77145 0.0
C529 C 0.52535 0.34907 0.98236 0.0
C530 C 0.85838 0.16 0.90063 0.0
C531 C 0.88196 0.19235 0.87059 0.0
H532 H 0.81497 0.13225 0.93479 0.0
C533 C 0.87757 0.22234 0.85305 0.0
H534 H 0.86018 0.13598 0.91519 0.0
C535 C 0.85133 0.22018 0.8635 0.0
C536 C 0.82746 0.18782 0.89245 0.0
H537 H 0.8945 0.24787 0.82903 0.0
H538 H 0.84972 0.24404 0.84571 0.0
C539 C 0.83193 0.15779 0.91115 0.0
C540 C 0.68319 0.05275 1.00641 0.0
C541 C 0.65703 0.03422 0.92412 0.0
H542 H 0.71381 0.04725 0.1135 0.0
C543 C 0.64193 0.99357 0.88535 0.0
H544 H 0.69572 0.08401 1.03805 0.0
C545 C 0.65237 0.97212 0.93001 0.0
C546 C 0.67818 0.99069 1.01479 0.0
H547 H 0.62169 0.97818 0.82252 0.0
H548 H 0.6397 0.94078 0.90022 0.0
C549 C 0.69356 0.03148 1.05066 0.0
C550 C 0.1957 0.70061 0.47308 0.0
C551 C 0.22666 0.72163 0.4953 0.0
H552 H 0.1541 0.64546 0.42269 0.0
C553 C 0.23847 0.69853 0.47956 0.0
H554 H 0.18514 0.71626 0.48248 0.0
C555 C 0.22023 0.65679 0.44338 0.0
C556 C 0.18917 0.63589 0.42142 0.0
H557 H 0.26203 0.71278 0.49424 0.0
H558 H 0.23059 0.64093 0.43294 0.0
C559 C 0.17762 0.65923 0.43784 0.0
C560 C 0.49319 0.49128 0.42785 0.0
C561 C 0.47963 0.4843 0.31626 0.0
H562 H 0.48749 0.48343 0.59254 0.0
C563 C 0.44894 0.46435 0.28646 0.0
H564 H 0.51685 0.50689 0.45344 0.0
C565 C 0.43212 0.45079 0.36611 0.0
C566 C 0.44568 0.45735 0.47746 0.0
H567 H 0.43789 0.45839 0.20106 0.0
H568 H 0.40847 0.43516 0.34059 0.0
C569 C 0.47642 0.47813 0.50765 0.0
C570 C 0.9199 0.77593 0.69196 0.0
C571 C 0.92356 0.74891 0.62924 0.0
H572 H 0.90532 0.81469 0.69015 0.0
C573 C 0.91421 0.73979 0.51283 0.0
H574 H 0.92675 0.78361 0.78178 0.0
C575 C 0.90176 0.75746 0.46044 0.0
C576 C 0.89828 0.78466 0.52304 0.0
H577 H 0.91648 0.71896 0.46174 0.0
H578 H 0.89466 0.74957 0.37068 0.0
C579 C 0.90737 0.79354 0.6395 0.0
C580 C 0.36402 0.05043 0.75372 0.0
C581 C 0.38943 0.06865 0.70849 0.0
H582 H 0.32345 0.99737 0.76039 0.0
C583 C 0.39189 0.04313 0.63129 0.0
H584 H 0.36074 0.06817 0.81337 0.0
C585 C 0.37068 1.00186 0.60325 0.0
C586 C 0.34511 0.98369 0.6474 0.0
H587 H 0.41069 0.05498 0.59346 0.0
H588 H 0.37426 0.98405 0.5452 0.0
C589 C 0.34227 1.00929 0.72268 0.0
C590 C 0.05863 0.2116 0.80493 0.0
C591 C 0.0389 0.20858 0.71293 0.0
H592 H 0.09849 0.2157 0.86961 0.0
C593 C 0.04698 0.20742 0.60909 0.0
H594 H 0.05389 0.21248 0.88682 0.0
C595 C 0.07316 0.20867 0.5987 0.0
C596 C 0.09298 0.21208 0.69189 0.0
H597 H 1.03277 0.20475 0.53509 0.0
H598 H 0.07803 0.20745 0.51717 0.0
C599 C 0.0848 0.21364 0.79501 0.0
C600 C 0.37881 0.23332 0.87905 0.0
C601 C 0.384 0.21531 0.78872 0.0
H602 H 0.35476 0.25679 0.93816 0.0
C603 C 0.3642 0.20437 0.68508 0.0
H604 H 0.39295 0.24277 0.96057 0.0
C605 C 0.34126 0.21171 0.6725 0.0
C606 C 0.33652 0.23045 0.76283 0.0
H607 H 0.36677 0.19065 0.61178 0.0
H608 H 0.32808 0.20424 0.59011 0.0
C609 C 0.35622 0.24106 0.86613 0.0
C610 C 0.88171 1.02026 0.46392 0.0
C611 C 0.85321 1.00878 0.4105 0.0
H612 H 0.9242 0.06517 0.56591 0.0
C613 C 0.84779 0.03881 0.4187 0.0
H614 H 0.88738 0.99888 0.46164 0.0
C615 C 0.86963 0.07796 0.47839 0.0
C616 C 0.89779 0.08885 0.53465 0.0
H617 H 0.82642 0.03201 0.38003 0.0
H618 H 0.86403 0.09942 0.48351 0.0
C619 C 0.90318 0.0589 0.52476 0.0
C620 C 0.05483 0.7281 0.69083 0.0
C621 C 0.03944 0.74641 0.68773 0.0
H622 H 0.09425 0.73145 0.67291 0.0
C623 C 0.0536 0.7843 0.66693 0.0
H624 H 0.04476 0.69916 0.70825 0.0
C625 C 0.08193 0.8028 0.64555 0.0
C626 C 0.09733 0.78436 0.64675 0.0
H627 H 0.04256 0.7995 0.66544 0.0
H628 H 0.09178 0.83172 0.6283 0.0
C629 C 0.08348 0.74699 0.6722 0.0
loop_
_geom_bond_atom_site_label_1
_geom_bond_atom_site_label_2
_geom_bond_distance
_geom_bond_site_symmetry_2
_ccdc_geom_bond_type
Tb0 C10 2.825 . S
Tb0 O11 2.347 . S
Tb0 O14 2.366 . S
Tb0 O19 2.418 1_554 S
Tb0 O20 2.384 . S
Tb0 O23 2.479 . S
Tb0 O24 2.471 . S
Eu1 O12 2.418 . S
Eu1 O13 2.384 . S
Eu1 O16 2.438 1_455 S
Eu1 O17 2.471 1_554 S
Eu1 O18 2.347 1_554 S
Eu1 O21 2.366 . S
Eu1 C31 2.825 1_554 S
C2 O18 1.259 . S
C2 O19 1.265 . S
C3 O20 1.255 . S
C3 O21 1.265 . S
C4 C6 1.380 . S
C4 C7 1.374 . S
C4 C10 1.507 . S
C5 C6 1.384 . S
C5 C9 1.387 . S
C5 H32 0.930 . S
C6 C4 1.380 . S
C6 C5 1.384 . S
C6 H33 0.931 . S
C7 C4 1.374 . S
C7 C8 1.390 . S
C7 H34 0.930 . S
C8 C7 1.390 . S
C8 C9 1.391 . S
C8 H35 0.930 . S
C9 C5 1.387 . S
C9 C8 1.391 . S
C10 Tb0 2.825 . S
C10 C4 1.507 . S
C10 O23 1.238 . S
C10 O24 1.247 . S
O11 Tb0 2.347 . S
O11 C15 1.259 . S
O12 Eu1 2.418 . S
O12 C15 1.265 . S
O13 Eu1 2.384 . S
O13 C22 1.255 1_554 S
O14 Tb0 2.366 . S
O14 C22 1.265 1_554 S
C15 O11 1.259 . S
C15 O12 1.265 . S
O16 Eu1 2.438 1_655 S
O16 C31 1.235 1_654 S
O17 Eu1 2.471 1_556 S
O17 C31 1.247 . S
O18 Eu1 2.347 1_556 S
O18 C2 1.259 . S
O19 Tb0 2.418 1_556 S
O19 C2 1.265 . S
O20 Tb0 2.384 . S
O20 C3 1.255 . S
O21 Eu1 2.366 . S
O21 C3 1.265 . S
C22 O13 1.255 1_556 S
C22 O14 1.265 1_556 S
O23 Tb0 2.479 . S
O23 C10 1.238 . S
O24 Tb0 2.471 . S
O24 C10 1.247 . S
C25 C28 1.380 1_556 S
C25 C29 1.374 1_655 S
C25 C31 1.507 1_655 S
C26 C27 1.387 1_556 S
C26 C30 1.354 1_655 S
C27 C26 1.387 1_554 S
C27 C28 1.384 . S
C27 H36 0.930 . S
C28 C25 1.380 1_554 S
C28 C27 1.384 . S
C28 H37 0.931 . S
C29 C25 1.374 1_455 S
C29 C30 1.418 . S
C29 H38 0.930 . S
C30 C26 1.354 1_455 S
C30 C29 1.418 . S
C30 H39 0.940 . S
C31 Eu1 2.825 1_556 S
C31 O16 1.235 1_456 S
C31 O17 1.247 . S
C31 C25 1.507 1_455 S
H32 C5 0.930 . S
H33 C6 0.931 . S
H34 C7 0.930 . S
H35 C8 0.930 . S
H36 C27 0.930 . S
H37 C28 0.931 . S
H38 C29 0.930 . S
H39 C30 0.940 . S
Tb40 C50 2.825 . S
Tb40 O51 2.347 . S
Tb40 O54 2.366 . S
Tb40 O59 2.418 . S
Tb40 O60 2.384 . S
Tb40 O63 2.479 . S
Tb40 O64 2.471 . S
Eu41 O52 2.418 1_554 S
Eu41 O53 2.384 . S
Eu41 O56 2.479 . S
Eu41 O57 2.471 . S
Eu41 O58 2.347 . S
Eu41 O61 2.366 . S
Eu41 C71 2.825 . S
C42 O58 1.259 . S
C42 O59 1.265 . S
C43 O60 1.255 . S
C43 O61 1.265 . S
C44 C46 1.380 . S
C44 C47 1.374 . S
C44 C50 1.507 . S
C45 C46 1.384 . S
C45 C49 1.387 . S
C45 H72 0.930 . S
C46 C44 1.380 . S
C46 C45 1.384 . S
C46 H73 0.931 . S
C47 C44 1.374 . S
C47 C48 1.390 . S
C47 H74 0.928 1_554 S
C48 C47 1.390 . S
C48 C49 1.391 . S
C48 H75 0.930 1_554 S
C49 C45 1.387 . S
C49 C48 1.391 . S
C50 Tb40 2.825 . S
C50 C44 1.507 . S
C50 O63 1.238 . S
C50 O64 1.247 . S
O51 Tb40 2.347 . S
O51 C55 1.259 1_554 S
O52 Eu41 2.418 1_556 S
O52 C55 1.265 . S
O53 Eu41 2.384 . S
O53 C62 1.255 . S
O54 Tb40 2.366 . S
O54 C62 1.265 . S
C55 O51 1.259 1_556 S
C55 O52 1.265 . S
O56 Eu41 2.479 . S
O56 C71 1.238 . S
O57 Eu41 2.471 . S
O57 C71 1.247 . S
O58 Eu41 2.347 . S
O58 C42 1.259 . S
O59 Tb40 2.418 . S
O59 C42 1.265 . S
O60 Tb40 2.384 . S
O60 C43 1.255 . S
O61 Eu41 2.366 . S
O61 C43 1.265 . S
C62 O53 1.255 . S
C62 O54 1.265 . S
O63 Tb40 2.479 . S
O63 C50 1.238 . S
O64 Tb40 2.471 . S
O64 C50 1.247 . S
C65 C68 1.380 . S
C65 C69 1.374 . S
C65 C71 1.507 . S
C66 C67 1.387 . S
C66 C70 1.391 . S
C67 C66 1.387 . S
C67 C68 1.384 . S
C67 H76 0.930 . S
C68 C65 1.380 . S
C68 C67 1.384 . S
C68 H77 0.931 . S
C69 C65 1.374 . S
C69 C70 1.390 . S
C69 H78 0.930 . S
C70 C66 1.391 . S
C70 C69 1.390 . S
C70 H79 0.930 . S
C71 Eu41 2.825 . S
C71 O56 1.238 . S
C71 O57 1.247 . S
C71 C65 1.507 . S
H72 C45 0.930 . S
H73 C46 0.931 . S
H74 C47 0.928 1_556 S
H75 C48 0.930 1_556 S
H76 C67 0.930 . S
H77 C68 0.931 . S
H78 C69 0.930 . S
H79 C70 0.930 . S
Tb80 C90 2.825 . S
Tb80 O91 2.347 . S
Tb80 O94 2.366 . S
Tb80 O99 2.418 1_554 S
Tb80 O100 2.384 . S
Tb80 O103 2.479 . S
Tb80 O104 2.471 . S
Eu81 O92 2.418 . S
Eu81 O93 2.384 . S
Eu81 O96 2.479 . S
Eu81 O97 2.471 . S
Eu81 O98 2.347 . S
Eu81 O101 2.366 . S
Eu81 C111 2.825 . S
C82 O98 1.259 1_556 S
C82 O99 1.265 . S
C83 O100 1.255 . S
C83 O101 1.265 . S
C84 C86 1.380 . S
C84 C87 1.374 . S
C84 C90 1.507 . S
C85 C86 1.384 . S
C85 C89 1.387 . S
C85 H112 0.930 1_545 S
C86 C84 1.380 . S
C86 C85 1.384 . S
C86 H113 0.931 1_554 S
C87 C84 1.374 . S
C87 C88 1.390 . S
C87 H114 0.930 . S
C88 C87 1.390 . S
C88 C89 1.391 . S
C88 H115 0.930 . S
C89 C85 1.387 . S
C89 C88 1.391 . S
C90 Tb80 2.825 . S
C90 C84 1.507 . S
C90 O103 1.238 . S
C90 O104 1.247 . S
O91 Tb80 2.347 . S
O91 C95 1.259 . S
O92 Eu81 2.418 . S
O92 C95 1.265 . S
O93 Eu81 2.384 . S
O93 C102 1.255 . S
O94 Tb80 2.366 . S
O94 C102 1.265 . S
C95 O91 1.259 . S
C95 O92 1.265 . S
O96 Eu81 2.479 . S
O96 C111 1.238 . S
O97 Eu81 2.471 . S
O97 C111 1.247 . S
O98 Eu81 2.347 . S
O98 C82 1.259 1_554 S
O99 Tb80 2.418 1_556 S
O99 C82 1.265 . S
O100 Tb80 2.384 . S
O100 C83 1.255 . S
O101 Eu81 2.366 . S
O101 C83 1.265 . S
C102 O93 1.255 . S
C102 O94 1.265 . S
O103 Tb80 2.479 . S
O103 C90 1.238 . S
O104 Tb80 2.471 . S
O104 C90 1.247 . S
C105 C108 1.380 . S
C105 C109 1.374 . S
C105 C111 1.507 . S
C106 C107 1.387 . S
C106 C110 1.391 . S
C107 C106 1.387 . S
C107 C108 1.384 . S
C107 H116 0.930 . S
C108 C105 1.380 . S
C108 C107 1.384 . S
C108 H117 0.931 . S
C109 C105 1.374 . S
C109 C110 1.390 . S
C109 H118 0.930 . S
C110 C106 1.391 . S
C110 C109 1.390 . S
C110 H119 0.930 . S
C111 Eu81 2.825 . S
C111 O96 1.238 . S
C111 O97 1.247 . S
C111 C105 1.507 . S
H112 C85 0.930 1_565 S
H113 C86 0.931 1_556 S
H114 C87 0.930 . S
H115 C88 0.930 . S
H116 C107 0.930 . S
H117 C108 0.931 . S
H118 C109 0.930 . S
H119 C110 0.930 . S
Tb120 C130 2.825 . S
Tb120 O131 2.347 . S
Tb120 O134 2.366 . S
Tb120 O139 2.418 . S
Tb120 O140 2.384 . S
Tb120 O143 2.479 . S
Tb120 O144 2.471 . S
Eu121 O132 2.418 . S
Eu121 O133 2.384 . S
Eu121 O136 2.479 . S
Eu121 O137 2.471 . S
Eu121 O138 2.347 . S
Eu121 O141 2.366 . S
Eu121 C151 2.825 . S
C122 O138 1.259 . S
C122 O139 1.265 . S
C123 O140 1.255 . S
C123 O141 1.265 . S
C124 C126 1.380 . S
C124 C127 1.374 . S
C124 C130 1.507 . S
C125 C126 1.384 . S
C125 C129 1.387 . S
C125 H152 0.930 . S
C126 C124 1.380 . S
C126 C125 1.384 . S
C126 H153 0.931 . S
C127 C124 1.374 . S
C127 C128 1.390 . S
C127 H154 0.930 . S
C128 C127 1.390 . S
C128 C129 1.391 . S
C128 H155 0.930 . S
C129 C125 1.387 . S
C129 C128 1.391 . S
C130 Tb120 2.825 . S
C130 C124 1.507 . S
C130 O143 1.238 . S
C130 O144 1.247 . S
O131 Tb120 2.347 . S
O131 C135 1.259 . S
O132 Eu121 2.418 . S
O132 C135 1.265 . S
O133 Eu121 2.384 . S
O133 C142 1.255 . S
O134 Tb120 2.366 . S
O134 C142 1.265 . S
C135 O131 1.259 . S
C135 O132 1.265 . S
O136 Eu121 2.479 . S
O136 C151 1.238 . S
O137 Eu121 2.471 . S
O137 C151 1.247 . S
O138 Eu121 2.347 . S
O138 C122 1.259 . S
O139 Tb120 2.418 . S
O139 C122 1.265 . S
O140 Tb120 2.384 . S
O140 C123 1.255 . S
O141 Eu121 2.366 . S
O141 C123 1.265 . S
C142 O133 1.255 . S
C142 O134 1.265 . S
O143 Tb120 2.479 . S
O143 C130 1.238 . S
O144 Tb120 2.471 . S
O144 C130 1.247 . S
C145 C148 1.380 . S
C145 C149 1.374 . S
C145 C151 1.507 . S
C146 C147 1.387 1_545 S
C146 C150 1.391 . S
C147 C146 1.387 1_565 S
C147 C148 1.384 . S
C147 H156 0.930 . S
C148 C145 1.380 . S
C148 C147 1.384 . S
C148 H157 0.931 . S
C149 C145 1.374 . S
C149 C150 1.390 1_565 S
C149 H158 0.930 . S
C150 C146 1.391 . S
C150 C149 1.390 1_545 S
C150 H159 0.930 . S
C151 Eu121 2.825 . S
C151 O136 1.238 . S
C151 O137 1.247 . S
C151 C145 1.507 . S
H152 C125 0.930 . S
H153 C126 0.931 . S
H154 C127 0.930 . S
H155 C128 0.930 . S
H156 C147 0.930 . S
H157 C148 0.931 . S
H158 C149 0.930 . S
H159 C150 0.930 . S
Tb160 C170 2.825 . S
Tb160 O171 2.347 . S
Tb160 O174 2.366 . S
Tb160 O179 2.418 . S
Tb160 O180 2.384 . S
Tb160 O183 2.479 . S
Tb160 O184 2.471 . S
Eu161 O172 2.418 . S
Eu161 O173 2.384 . S
Eu161 O176 2.479 . S
Eu161 O177 2.471 . S
Eu161 O178 2.347 . S
Eu161 O181 2.366 . S
Eu161 C191 2.825 . S
C162 O178 1.259 . S
C162 O179 1.265 . S
C163 O180 1.255 . S
C163 O181 1.265 . S
C164 C166 1.380 . S
C164 C167 1.374 . S
C164 C170 1.507 . S
C165 C166 1.384 . S
C165 C169 1.387 . S
C165 H192 0.930 . S
C166 C164 1.380 . S
C166 C165 1.384 . S
C166 H193 0.931 . S
C167 C164 1.374 . S
C167 C168 1.390 . S
C167 H194 0.930 . S
C168 C167 1.390 . S
C168 C169 1.391 . S
C168 H195 0.930 . S
C169 C165 1.387 . S
C169 C168 1.391 . S
C170 Tb160 2.825 . S
C170 C164 1.507 . S
C170 O183 1.238 . S
C170 O184 1.247 . S
O171 Tb160 2.347 . S
O171 C175 1.259 . S
O172 Eu161 2.418 . S
O172 C175 1.265 . S
O173 Eu161 2.384 . S
O173 C182 1.255 . S
O174 Tb160 2.366 . S
O174 C182 1.265 . S
C175 O171 1.259 . S
C175 O172 1.265 . S
O176 Eu161 2.479 . S
O176 C191 1.238 . S
O177 Eu161 2.471 . S
O177 C191 1.247 . S
O178 Eu161 2.347 . S
O178 C162 1.259 . S
O179 Tb160 2.418 . S
O179 C162 1.265 . S
O180 Tb160 2.384 . S
O180 C163 1.255 . S
O181 Eu161 2.366 . S
O181 C163 1.265 . S
C182 O173 1.255 . S
C182 O174 1.265 . S
O183 Tb160 2.479 . S
O183 C170 1.238 . S
O184 Tb160 2.471 . S
O184 C170 1.247 . S
C185 C188 1.380 . S
C185 C189 1.374 . S
C185 C191 1.507 . S
C186 C187 1.387 . S
C186 C190 1.391 . S
C187 C186 1.387 . S
C187 C188 1.384 . S
C187 H196 0.930 . S
C188 C185 1.380 . S
C188 C187 1.384 . S
C188 H197 0.931 . S
C189 C185 1.374 . S
C189 C190 1.390 . S
C189 H198 0.930 . S
C190 C186 1.391 . S
C190 C189 1.390 . S
C190 H199 0.930 . S
C191 Eu161 2.825 . S
C191 O176 1.238 . S
C191 O177 1.247 . S
C191 C185 1.507 . S
H192 C165 0.930 . S
H193 C166 0.931 . S
H194 C167 0.930 . S
H195 C168 0.930 . S
H196 C187 0.930 . S
H197 C188 0.931 . S
H198 C189 0.930 . S
H199 C190 0.930 . S
Tb200 C210 2.825 . S
Tb200 O211 2.347 . S
Tb200 O214 2.366 . S
Tb200 O219 2.418 . S
Tb200 O220 2.384 . S
Tb200 O223 2.479 . S
Tb200 O224 2.471 . S
Eu201 O212 2.418 . S
Eu201 O213 2.384 . S
Eu201 O216 2.479 . S
Eu201 O217 2.471 . S
Eu201 O218 2.347 . S
Eu201 O221 2.366 . S
Eu201 C231 2.825 . S
C202 O218 1.259 . S
C202 O219 1.265 . S
C203 O220 1.255 . S
C203 O221 1.265 . S
C204 C206 1.380 . S
C204 C207 1.374 . S
C204 C210 1.507 . S
C205 C206 1.384 . S
C205 C209 1.387 . S
C205 H232 0.930 . S
C206 C204 1.380 . S
C206 C205 1.384 . S
C206 H233 0.931 . S
C207 C204 1.374 . S
C207 C208 1.390 . S
C207 H234 0.930 . S
C208 C207 1.390 . S
C208 C209 1.391 . S
C208 H235 0.930 . S
C209 C205 1.387 . S
C209 C208 1.391 . S
C210 Tb200 2.825 . S
C210 C204 1.507 . S
C210 O223 1.238 . S
C210 O224 1.247 . S
O211 Tb200 2.347 . S
O211 C215 1.259 . S
O212 Eu201 2.418 . S
O212 C215 1.265 . S
O213 Eu201 2.384 . S
O213 C222 1.255 . S
O214 Tb200 2.366 . S
O214 C222 1.265 . S
C215 O211 1.259 . S
C215 O212 1.265 . S
O216 Eu201 2.479 . S
O216 C231 1.238 . S
O217 Eu201 2.471 . S
O217 C231 1.247 . S
O218 Eu201 2.347 . S
O218 C202 1.259 . S
O219 Tb200 2.418 . S
O219 C202 1.265 . S
O220 Tb200 2.384 . S
O220 C203 1.255 . S
O221 Eu201 2.366 . S
O221 C203 1.265 . S
C222 O213 1.255 . S
C222 O214 1.265 . S
O223 Tb200 2.479 . S
O223 C210 1.238 . S
O224 Tb200 2.471 . S
O224 C210 1.247 . S
C225 C228 1.380 . S
C225 C229 1.374 . S
C225 C231 1.507 . S
C226 C227 1.387 . S
C226 C230 1.391 . S
C227 C226 1.387 . S
C227 C228 1.384 . S
C227 H236 0.930 . S
C228 C225 1.380 . S
C228 C227 1.384 . S
C228 H237 0.931 . S
C229 C225 1.374 . S
C229 C230 1.390 . S
C229 H238 0.930 . S
C230 C226 1.391 . S
C230 C229 1.390 . S
C230 H239 0.930 . S
C231 Eu201 2.825 . S
C231 O216 1.238 . S
C231 O217 1.247 . S
C231 C225 1.507 . S
H232 C205 0.930 . S
H233 C206 0.931 . S
H234 C207 0.930 . S
H235 C208 0.930 . S
H236 C227 0.930 . S
H237 C228 0.931 . S
H238 C229 0.930 . S
H239 C230 0.930 . S
Tb240 C250 2.825 . S
Tb240 O251 2.347 . S
Tb240 O254 2.366 . S
Tb240 O259 2.418 . S
Tb240 O260 2.384 . S
Tb240 O263 2.479 . S
Tb240 O264 2.471 . S
Eu241 O252 2.418 . S
Eu241 O253 2.384 . S
Eu241 O256 2.479 . S
Eu241 O257 2.471 . S
Eu241 O258 2.347 . S
Eu241 O261 2.366 . S
Eu241 C271 2.825 . S
C242 O258 1.259 . S
C242 O259 1.265 . S
C243 O260 1.255 . S
C243 O261 1.265 . S
C244 C246 1.380 . S
C244 C247 1.374 . S
C244 C250 1.507 . S
C245 C246 1.384 . S
C245 C249 1.387 . S
C245 H272 0.930 . S
C246 C244 1.380 . S
C246 C245 1.384 . S
C246 H273 0.931 . S
C247 C244 1.374 . S
C247 C248 1.390 . S
C247 H274 0.930 . S
C248 C247 1.390 . S
C248 C249 1.391 . S
C248 H275 0.930 . S
C249 C245 1.387 . S
C249 C248 1.391 . S
C250 Tb240 2.825 . S
C250 C244 1.507 . S
C250 O263 1.238 . S
C250 O264 1.247 . S
O251 Tb240 2.347 . S
O251 C255 1.259 . S
O252 Eu241 2.418 . S
O252 C255 1.265 . S
O253 Eu241 2.384 . S
O253 C262 1.255 . S
O254 Tb240 2.366 . S
O254 C262 1.265 . S
C255 O251 1.259 . S
C255 O252 1.265 . S
O256 Eu241 2.479 . S
O256 C271 1.238 . S
O257 Eu241 2.471 . S
O257 C271 1.247 . S
O258 Eu241 2.347 . S
O258 C242 1.259 . S
O259 Tb240 2.418 . S
O259 C242 1.265 . S
O260 Tb240 2.384 . S
O260 C243 1.255 . S
O261 Eu241 2.366 . S
O261 C243 1.265 . S
C262 O253 1.255 . S
C262 O254 1.265 . S
O263 Tb240 2.479 . S
O263 C250 1.238 . S
O264 Tb240 2.471 . S
O264 C250 1.247 . S
C265 C268 1.380 . S
C265 C269 1.374 . S
C265 C271 1.507 1_554 S
C266 C267 1.387 . S
C266 C270 1.391 . S
C267 C266 1.387 . S
C267 C268 1.384 . S
C267 H276 0.930 . S
C268 C265 1.380 . S
C268 C267 1.384 . S
C268 H277 0.931 . S
C269 C265 1.374 . S
C269 C270 1.390 . S
C269 H278 0.930 . S
C270 C266 1.391 . S
C270 C269 1.390 . S
C270 H279 0.930 . S
C271 Eu241 2.825 . S
C271 O256 1.238 . S
C271 O257 1.247 . S
C271 C265 1.507 1_556 S
H272 C245 0.930 . S
H273 C246 0.931 . S
H274 C247 0.930 . S
H275 C248 0.930 . S
H276 C267 0.930 . S
H277 C268 0.931 . S
H278 C269 0.930 . S
H279 C270 0.930 . S
Tb280 C290 2.825 . S
Tb280 O291 2.347 . S
Tb280 O294 2.366 . S
Tb280 O299 2.418 . S
Tb280 O300 2.384 . S
Tb280 O303 2.479 . S
Tb280 O304 2.471 . S
Eu281 O292 2.418 . S
Eu281 O293 2.384 . S
Eu281 O296 2.479 . S
Eu281 O297 2.471 . S
Eu281 O298 2.347 . S
Eu281 O301 2.366 . S
Eu281 C311 2.825 . S
C282 O298 1.259 . S
C282 O299 1.265 . S
C283 O300 1.255 . S
C283 O301 1.265 . S
C284 C286 1.380 . S
C284 C287 1.374 . S
C284 C290 1.507 1_554 S
C285 C286 1.384 . S
C285 C289 1.387 . S
C285 H312 0.930 . S
C286 C284 1.380 . S
C286 C285 1.384 . S
C286 H313 0.931 . S
C287 C284 1.374 . S
C287 C288 1.390 . S
C287 H314 0.930 . S
C288 C287 1.390 . S
C288 C289 1.391 . S
C288 H315 0.930 . S
C289 C285 1.387 . S
C289 C288 1.391 . S
C290 Tb280 2.825 . S
C290 C284 1.507 1_556 S
C290 O303 1.238 . S
C290 O304 1.247 . S
O291 Tb280 2.347 . S
O291 C295 1.259 . S
O292 Eu281 2.418 . S
O292 C295 1.265 . S
O293 Eu281 2.384 . S
O293 C302 1.255 . S
O294 Tb280 2.366 . S
O294 C302 1.265 . S
C295 O291 1.259 . S
C295 O292 1.265 . S
O296 Eu281 2.479 . S
O296 C311 1.238 . S
O297 Eu281 2.471 . S
O297 C311 1.247 . S
O298 Eu281 2.347 . S
O298 C282 1.259 . S
O299 Tb280 2.418 . S
O299 C282 1.265 . S
O300 Tb280 2.384 . S
O300 C283 1.255 . S
O301 Eu281 2.366 . S
O301 C283 1.265 . S
C302 O293 1.255 . S
C302 O294 1.265 . S
O303 Tb280 2.479 . S
O303 C290 1.238 . S
O304 Tb280 2.471 . S
O304 C290 1.247 . S
C305 C308 1.380 . S
C305 C309 1.374 . S
C305 C311 1.507 . S
C306 C307 1.387 . S
C306 C310 1.391 . S
C307 C306 1.387 . S
C307 C308 1.384 . S
C307 H316 0.930 . S
C308 C305 1.380 . S
C308 C307 1.384 . S
C308 H317 0.931 . S
C309 C305 1.374 . S
C309 C310 1.390 . S
C309 H318 0.930 . S
C310 C306 1.391 . S
C310 C309 1.390 . S
C310 H319 0.930 . S
C311 Eu281 2.825 . S
C311 O296 1.238 . S
C311 O297 1.247 . S
C311 C305 1.507 . S
H312 C285 0.930 . S
H313 C286 0.931 . S
H314 C287 0.930 . S
H315 C288 0.930 . S
H316 C307 0.930 . S
H317 C308 0.931 . S
H318 C309 0.930 . S
H319 C310 0.930 . S
Tb320 C330 2.825 . S
Tb320 O331 2.347 . S
Tb320 O334 2.366 . S
Tb320 O339 2.418 . S
Tb320 O340 2.384 . S
Tb320 O343 2.479 . S
Tb320 O344 2.471 . S
Eu321 O332 2.418 . S
Eu321 O333 2.384 . S
Eu321 O336 2.479 . S
Eu321 O337 2.471 . S
Eu321 O338 2.347 . S
Eu321 O341 2.366 . S
Eu321 C351 2.825 . S
C322 O338 1.259 . S
C322 O339 1.265 . S
C323 O340 1.255 . S
C323 O341 1.265 . S
C324 C326 1.380 . S
C324 C327 1.374 . S
C324 C330 1.507 . S
C325 C326 1.384 . S
C325 C329 1.387 . S
C325 H352 0.930 . S
C326 C324 1.380 . S
C326 C325 1.384 . S
C326 H353 0.931 . S
C327 C324 1.374 . S
C327 C328 1.390 . S
C327 H354 0.930 . S
C328 C327 1.390 . S
C328 C329 1.391 . S
C328 H355 0.930 . S
C329 C325 1.387 . S
C329 C328 1.391 . S
C330 Tb320 2.825 . S
C330 C324 1.507 . S
C330 O343 1.238 . S
C330 O344 1.247 . S
O331 Tb320 2.347 . S
O331 C335 1.259 . S
O332 Eu321 2.418 . S
O332 C335 1.265 . S
O333 Eu321 2.384 . S
O333 C342 1.255 . S
O334 Tb320 2.366 . S
O334 C342 1.265 . S
C335 O331 1.259 . S
C335 O332 1.265 . S
O336 Eu321 2.479 . S
O336 C351 1.238 . S
O337 Eu321 2.471 . S
O337 C351 1.247 . S
O338 Eu321 2.347 . S
O338 C322 1.259 . S
O339 Tb320 2.418 . S
O339 C322 1.265 . S
O340 Tb320 2.384 . S
O340 C323 1.255 . S
O341 Eu321 2.366 . S
O341 C323 1.265 . S
C342 O333 1.255 . S
C342 O334 1.265 . S
O343 Tb320 2.479 . S
O343 C330 1.238 . S
O344 Tb320 2.471 . S
O344 C330 1.247 . S
C345 C348 1.380 . S
C345 C349 1.374 . S
C345 C351 1.507 1_554 S
C346 C347 1.387 . S
C346 C350 1.391 . S
C347 C346 1.387 . S
C347 C348 1.384 . S
C347 H356 0.930 . S
C348 C345 1.380 . S
C348 C347 1.384 . S
C348 H357 0.931 . S
C349 C345 1.374 . S
C349 C350 1.390 . S
C349 H358 0.930 . S
C350 C346 1.391 . S
C350 C349 1.390 . S
C350 H359 0.930 . S
C351 Eu321 2.825 . S
C351 O336 1.238 . S
C351 O337 1.247 . S
C351 C345 1.507 1_556 S
H352 C325 0.930 . S
H353 C326 0.931 . S
H354 C327 0.930 . S
H355 C328 0.930 . S
H356 C347 0.930 . S
H357 C348 0.931 . S
H358 C349 0.930 . S
H359 C350 0.930 . S
C360 C361 1.387 . S
C360 H364 0.950 . S
C360 C369 1.390 . S
C361 C360 1.387 . S
C361 C363 1.387 . S
H362 C369 0.950 . S
C363 C361 1.387 . S
C363 C365 1.390 . S
C363 H367 0.950 . S
H364 C360 0.950 . S
C365 C363 1.390 . S
C365 C366 1.387 . S
C365 H368 0.950 . S
C366 C365 1.387 . S
C366 C369 1.387 . S
H367 C363 0.950 . S
H368 C365 0.950 . S
C369 C360 1.390 . S
C369 H362 0.950 . S
C369 C366 1.387 . S
C370 C371 1.387 . S
C370 H374 0.950 . S
C370 C379 1.390 . S
C371 C370 1.387 . S
C371 C373 1.387 . S
H372 C379 0.950 . S
C373 C371 1.387 . S
C373 C375 1.390 . S
C373 H377 0.950 . S
H374 C370 0.950 . S
C375 C373 1.390 . S
C375 C376 1.387 . S
C375 H378 0.950 . S
C376 C375 1.387 . S
C376 C379 1.387 . S
H377 C373 0.950 . S
H378 C375 0.950 . S
C379 C370 1.390 . S
C379 H372 0.950 . S
C379 C376 1.387 . S
C380 C381 1.387 . S
C380 H384 0.950 . S
C380 C389 1.390 . S
C381 C380 1.387 . S
C381 C383 1.387 . S
H382 C389 0.950 . S
C383 C381 1.387 . S
C383 C385 1.390 . S
C383 H387 0.950 . S
H384 C380 0.950 . S
C385 C383 1.390 . S
C385 C386 1.387 . S
C385 H388 0.950 . S
C386 C385 1.387 . S
C386 C389 1.387 . S
H387 C383 0.950 . S
H388 C385 0.950 . S
C389 C380 1.390 . S
C389 H382 0.950 . S
C389 C386 1.387 . S
C390 C391 1.387 . S
C390 H394 0.950 . S
C390 C399 1.390 . S
C391 C390 1.387 . S
C391 C393 1.387 . S
H392 C399 0.950 . S
C393 C391 1.387 . S
C393 C395 1.390 . S
C393 H397 0.950 . S
H394 C390 0.950 . S
C395 C393 1.390 . S
C395 C396 1.387 . S
C395 H398 0.950 . S
C396 C395 1.387 . S
C396 C399 1.387 . S
H397 C393 0.950 . S
H398 C395 0.950 . S
C399 C390 1.390 . S
C399 H392 0.950 . S
C399 C396 1.387 . S
C400 C401 1.387 . S
C400 H404 0.950 . S
C400 C409 1.390 . S
C401 C400 1.387 . S
C401 C403 1.387 . S
H402 C409 0.950 . S
C403 C401 1.387 . S
C403 C405 1.390 . S
C403 H407 0.950 . S
H404 C400 0.950 . S
C405 C403 1.390 . S
C405 C406 1.387 . S
C405 H408 0.950 . S
C406 C405 1.387 . S
C406 C409 1.387 . S
H407 C403 0.950 . S
H408 C405 0.950 . S
C409 C400 1.390 . S
C409 H402 0.950 . S
C409 C406 1.387 . S
C410 C411 1.387 . S
C410 H414 0.950 . S
C410 C419 1.390 . S
C411 C410 1.387 . S
C411 C413 1.387 . S
H412 C419 0.950 . S
C413 C411 1.387 . S
C413 C415 1.390 . S
C413 H417 0.950 . S
H414 C410 0.950 . S
C415 C413 1.390 . S
C415 C416 1.387 . S
C415 H418 0.950 . S
C416 C415 1.387 . S
C416 C419 1.387 . S
H417 C413 0.950 . S
H418 C415 0.950 . S
C419 C410 1.390 . S
C419 H412 0.950 . S
C419 C416 1.387 . S
C420 C421 1.387 . S
C420 H424 0.950 . S
C420 C429 1.390 . S
C421 C420 1.387 . S
C421 C423 1.387 . S
H422 C429 0.950 . S
C423 C421 1.387 . S
C423 C425 1.390 . S
C423 H427 0.950 . S
H424 C420 0.950 . S
C425 C423 1.390 . S
C425 C426 1.387 . S
C425 H428 0.950 . S
C426 C425 1.387 . S
C426 C429 1.387 . S
H427 C423 0.950 . S
H428 C425 0.950 . S
C429 C420 1.390 . S
C429 H422 0.950 . S
C429 C426 1.387 . S
C430 C431 1.387 . S
C430 H434 0.950 . S
C430 C439 1.390 . S
C431 C430 1.387 . S
C431 C433 1.387 . S
H432 C439 0.950 . S
C433 C431 1.387 . S
C433 C435 1.390 . S
C433 H437 0.950 . S
H434 C430 0.950 . S
C435 C433 1.390 . S
C435 C436 1.387 . S
C435 H438 0.950 . S
C436 C435 1.387 . S
C436 C439 1.387 . S
H437 C433 0.950 . S
H438 C435 0.950 . S
C439 C430 1.390 . S
C439 H432 0.950 . S
C439 C436 1.387 . S
C440 C441 1.387 . S
C440 H444 0.950 . S
C440 C449 1.390 . S
C441 C440 1.387 . S
C441 C443 1.387 . S
H442 C449 0.950 . S
C443 C441 1.387 . S
C443 C445 1.390 . S
C443 H447 0.950 . S
H444 C440 0.950 . S
C445 C443 1.390 . S
C445 C446 1.387 . S
C445 H448 0.950 . S
C446 C445 1.387 . S
C446 C449 1.387 . S
H447 C443 0.950 . S
H448 C445 0.950 . S
C449 C440 1.390 . S
C449 H442 0.950 . S
C449 C446 1.387 . S
C450 C451 1.387 . S
C450 H454 0.950 . S
C450 C459 1.390 . S
C451 C450 1.387 . S
C451 C453 1.387 . S
H452 C459 0.950 . S
C453 C451 1.387 . S
C453 C455 1.390 . S
C453 H457 0.950 . S
H454 C450 0.950 . S
C455 C453 1.390 . S
C455 C456 1.387 . S
C455 H458 0.950 . S
C456 C455 1.387 . S
C456 C459 1.387 . S
H457 C453 0.950 . S
H458 C455 0.950 . S
C459 C450 1.390 . S
C459 H452 0.950 . S
C459 C456 1.387 . S
C460 C461 1.387 . S
C460 H464 0.950 . S
C460 C469 1.390 . S
C461 C460 1.387 . S
C461 C463 1.387 . S
H462 C469 0.950 . S
C463 C461 1.387 . S
C463 C465 1.390 . S
C463 H467 0.950 . S
H464 C460 0.950 . S
C465 C463 1.390 . S
C465 C466 1.387 . S
C465 H468 0.950 . S
C466 C465 1.387 . S
C466 C469 1.387 . S
H467 C463 0.950 . S
H468 C465 0.950 . S
C469 C460 1.390 . S
C469 H462 0.950 . S
C469 C466 1.387 . S
C470 C471 1.387 1_565 S
C470 H474 0.950 . S
C470 C479 1.390 . S
C471 C470 1.387 1_545 S
C471 C473 1.387 . S
H472 C479 0.950 . S
C473 C471 1.387 . S
C473 C475 1.390 . S
C473 H477 0.950 . S
H474 C470 0.950 . S
C475 C473 1.390 . S
C475 C476 1.387 1_545 S
C475 H478 0.950 . S
C476 C475 1.387 1_565 S
C476 C479 1.387 . S
H477 C473 0.950 . S
H478 C475 0.950 . S
C479 C470 1.390 . S
C479 H472 0.950 . S
C479 C476 1.387 . S
C480 C481 1.387 1_556 S
C480 H484 0.950 1_556 S
C480 C489 1.390 . S
C481 C480 1.387 1_554 S
C481 C483 1.387 1_554 S
H482 C489 0.950 . S
C483 C481 1.387 1_556 S
C483 C485 1.390 . S
C483 H487 0.950 . S
H484 C480 0.950 1_554 S
C485 C483 1.390 . S
C485 C486 1.387 . S
C485 H488 0.950 . S
C486 C485 1.387 . S
C486 C489 1.387 . S
H487 C483 0.950 . S
H488 C485 0.950 . S
C489 C480 1.390 . S
C489 H482 0.950 . S
C489 C486 1.387 . S
C490 C491 1.387 . S
C490 H494 0.950 . S
C490 C499 1.390 . S
C491 C490 1.387 . S
C491 C493 1.387 . S
H492 C499 0.950 . S
C493 C491 1.387 . S
C493 C495 1.390 1_655 S
C493 H497 0.950 . S
H494 C490 0.950 . S
C495 C493 1.390 1_455 S
C495 C496 1.387 . S
C495 H498 0.950 1_556 S
C496 C495 1.387 . S
C496 C499 1.387 1_455 S
H497 C493 0.950 . S
H498 C495 0.950 1_554 S
C499 C490 1.390 . S
C499 H492 0.950 . S
C499 C496 1.387 1_655 S
C500 C501 1.387 . S
C500 H504 0.950 . S
C500 C509 1.390 . S
C501 C500 1.387 . S
C501 C503 1.387 . S
H502 C509 0.950 1_554 S
C503 C501 1.387 . S
C503 C505 1.390 . S
C503 H507 0.950 . S
H504 C500 0.950 . S
C505 C503 1.390 . S
C505 C506 1.387 1_556 S
C505 H508 0.950 . S
C506 C505 1.387 1_554 S
C506 C509 1.387 1_554 S
H507 C503 0.950 . S
H508 C505 0.950 . S
C509 C500 1.390 . S
C509 H502 0.950 1_556 S
C509 C506 1.387 1_556 S
C510 C511 1.387 . S
C510 H514 0.950 . S
C510 C519 1.390 . S
C511 C510 1.387 . S
C511 C513 1.387 . S
H512 C519 0.950 . S
C513 C511 1.387 . S
C513 C515 1.390 . S
C513 H517 0.950 . S
H514 C510 0.950 . S
C515 C513 1.390 . S
C515 C516 1.387 . S
C515 H518 0.950 . S
C516 C515 1.387 . S
C516 C519 1.387 . S
H517 C513 0.950 . S
H518 C515 0.950 . S
C519 C510 1.390 . S
C519 H512 0.950 . S
C519 C516 1.387 . S
C520 C521 1.387 . S
C520 H524 0.950 1_556 S
C520 C529 1.390 . S
C521 C520 1.387 . S
C521 C523 1.387 . S
H522 C529 0.950 . S
C523 C521 1.387 . S
C523 C525 1.390 . S
C523 H527 0.950 . S
H524 C520 0.950 1_554 S
C525 C523 1.390 . S
C525 C526 1.387 . S
C525 H528 0.950 . S
C526 C525 1.387 . S
C526 C529 1.387 . S
H527 C523 0.950 . S
H528 C525 0.950 . S
C529 C520 1.390 . S
C529 H522 0.950 . S
C529 C526 1.387 . S
C530 C531 1.387 . S
C530 H534 0.950 . S
C530 C539 1.390 1_556 S
C531 C530 1.387 . S
C531 C533 1.387 . S
H532 C539 0.950 . S
C533 C531 1.387 . S
C533 C535 1.390 . S
C533 H537 0.950 . S
H534 C530 0.950 . S
C535 C533 1.390 . S
C535 C536 1.387 1_556 S
C535 H538 0.950 . S
C536 C535 1.387 1_554 S
C536 C539 1.387 . S
H537 C533 0.950 . S
H538 C535 0.950 . S
C539 C530 1.390 1_554 S
C539 H532 0.950 . S
C539 C536 1.387 . S
C540 C541 1.387 . S
C540 H544 0.950 . S
C540 C549 1.390 . S
C541 C540 1.387 . S
C541 C543 1.387 . S
H542 C549 0.950 . S
C543 C541 1.387 . S
C543 C545 1.390 . S
C543 H547 0.950 . S
H544 C540 0.950 . S
C545 C543 1.390 . S
C545 C546 1.387 . S
C545 H548 0.971 . S
C546 C545 1.387 . S
C546 C549 1.387 . S
H547 C543 0.950 . S
H548 C545 0.971 . S
C549 C540 1.390 . S
C549 H542 0.950 . S
C549 C546 1.387 . S
C550 C551 1.387 . S
C550 H554 0.950 . S
C550 C559 1.390 . S
C551 C550 1.387 . S
C551 C553 1.387 . S
H552 C559 0.950 . S
C553 C551 1.387 . S
C553 C555 1.390 . S
C553 H557 0.950 . S
H554 C550 0.950 . S
C555 C553 1.390 . S
C555 C556 1.387 . S
C555 H558 0.950 . S
C556 C555 1.387 . S
C556 C559 1.387 . S
H557 C553 0.950 . S
H558 C555 0.950 . S
C559 C550 1.390 . S
C559 H552 0.950 . S
C559 C556 1.387 . S
C560 C561 1.387 . S
C560 H564 0.950 . S
C560 C569 1.390 . S
C561 C560 1.387 . S
C561 C563 1.387 . S
H562 C569 0.950 . S
C563 C561 1.387 . S
C563 C565 1.390 . S
C563 H567 0.950 . S
H564 C560 0.950 . S
C565 C563 1.390 . S
C565 C566 1.387 . S
C565 H568 0.950 . S
C566 C565 1.387 . S
C566 C569 1.387 . S
H567 C563 0.950 . S
H568 C565 0.950 . S
C569 C560 1.390 . S
C569 H562 0.950 . S
C569 C566 1.387 . S
C570 C571 1.387 . S
C570 H574 0.950 . S
C570 C579 1.390 . S
C571 C570 1.387 . S
C571 C573 1.387 . S
H572 C579 0.950 . S
C573 C571 1.387 . S
C573 C575 1.390 . S
C573 H577 0.950 . S
H574 C570 0.950 . S
C575 C573 1.390 . S
C575 C576 1.387 . S
C575 H578 0.950 . S
C576 C575 1.387 . S
C576 C579 1.387 . S
H577 C573 0.950 . S
H578 C575 0.950 . S
C579 C570 1.390 . S
C579 H572 0.950 . S
C579 C576 1.387 . S
C580 C581 1.387 . S
C580 H584 0.950 . S
C580 C589 1.390 . S
C581 C580 1.387 . S
C581 C583 1.387 . S
H582 C589 0.950 1_565 S
C583 C581 1.387 . S
C583 C585 1.390 1_545 S
C583 H587 0.950 . S
H584 C580 0.950 . S
C585 C583 1.390 1_565 S
C585 C586 1.387 . S
C585 H588 0.950 . S
C586 C585 1.387 . S
C586 C589 1.387 1_565 S
H587 C583 0.950 . S
H588 C585 0.950 . S
C589 C580 1.390 . S
C589 H582 0.950 1_545 S
C589 C586 1.387 1_545 S
C590 C591 1.387 1_455 S
C590 H594 0.950 . S
C590 C599 1.390 . S
C591 C590 1.387 1_655 S
C591 C593 1.387 . S
H592 C599 0.950 . S
C593 C591 1.387 . S
C593 C595 1.390 . S
C593 H597 0.950 . S
H594 C590 0.950 . S
C595 C593 1.390 . S
C595 C596 1.387 1_655 S
C595 H598 0.950 . S
C596 C595 1.387 1_455 S
C596 C599 1.387 . S
H597 C593 0.950 . S
H598 C595 0.950 . S
C599 C590 1.390 . S
C599 H592 0.950 . S
C599 C596 1.387 . S
C600 C601 1.387 . S
C600 H604 0.950 . S
C600 C609 1.390 . S
C601 C600 1.387 . S
C601 C603 1.387 . S
H602 C609 0.950 . S
C603 C601 1.387 . S
C603 C605 1.390 . S
C603 H607 0.950 . S
H604 C600 0.950 . S
C605 C603 1.390 . S
C605 C606 1.387 . S
C605 H608 0.950 . S
C606 C605 1.387 . S
C606 C609 1.387 . S
H607 C603 0.950 . S
H608 C605 0.950 . S
C609 C600 1.390 . S
C609 H602 0.950 . S
C609 C606 1.387 . S
C610 C611 1.387 1_545 S
C610 H614 0.950 1_545 S
C610 C619 1.390 . S
C611 C610 1.387 1_565 S
C611 C613 1.387 1_565 S
H612 C619 0.950 . S
C613 C611 1.387 1_545 S
C613 C615 1.390 . S
C613 H617 0.950 . S
H614 C610 0.950 1_565 S
C615 C613 1.390 . S
C615 C616 1.387 . S
C615 H618 0.950 . S
C616 C615 1.387 . S
C616 C619 1.387 . S
H617 C613 0.950 . S
H618 C615 0.950 . S
C619 C610 1.390 . S
C619 H612 0.950 . S
C619 C616 1.387 . S
C620 C621 1.387 . S
C620 H624 0.950 . S
C620 C629 1.390 . S
C621 C620 1.387 . S
C621 C623 1.386 . S
H622 C629 0.950 . S
C623 C621 1.386 . S
C623 C625 1.385 1_655 S
C623 H627 0.957 1_655 S
H624 C620 0.950 . S
C625 C623 1.385 1_455 S
C625 C626 1.387 . S
C625 H628 0.950 . S
C626 C625 1.387 . S
C626 C629 1.387 1_455 S
H627 C623 0.957 1_455 S
H628 C625 0.950 . S
C629 C620 1.390 . S
C629 H622 0.950 . S
C629 C626 1.387 1_655 S
C361 C2 3.656 . S
C366 C15 3.656 . S
C371 C55 3.737 . S
C376 C42 3.737 . S
C381 C82 3.771 . S
C386 C95 3.771 . S
C391 C135 3.655 . S
C396 C122 3.655 1_556 S
C401 C162 3.737 . S
C406 C175 3.737 1_556 S
C411 C215 3.771 . S
C416 C202 3.771 1_556 S
C421 C249 0.249 . S
C426 C266 0.249 . S
C431 C306 0.325 . S
C436 C289 0.325 . S
C441 C329 0.591 . S
C446 C346 0.591 . S
C451 C222 1.571 . S
C456 C9 1.560 . S
C461 C62 2.591 . S
C466 C142 2.623 . S
C471 C89 1.097 . S
C476 C169 1.123 . S
C481 C102 3.162 . S
C486 C243 3.230 . S
C491 C295 1.431 . S
C496 C22 1.382 . S
C501 C323 2.046 . S
C506 C49 1.903 . S
C511 C322 1.130 . S
C516 C26 1.042 . S
C521 C43 2.455 1_556 S
C526 C242 2.461 . S
C531 C302 2.961 . S
C536 C106 2.828 . S
C541 C83 1.572 . S
C546 C146 1.558 . S
C551 C163 2.590 . S
C556 C3 2.623 . S
C561 C66 1.122 . S
C566 C226 1.093 . S
C571 C335 1.131 . S
C576 C129 1.041 . S
C581 C255 2.461 . S
C586 C182 2.455 . S
C591 C283 2.961 . S
C596 C209 2.827 . S
C601 C262 3.230 . S
C606 C203 3.162 . S
C611 C123 1.380 . S
C616 C282 1.431 . S
C621 C342 2.048 . S
C626 C186 1.907 . S
