# Generated by pormake.
# Topology mer, (4)-cn, num edge types: 1
# Building blocks:
#     Node 0, Type 0, BuildingBlock: NAHDIM_clean_sbu_0, # of connection points: 4
#     Node 1, Type 0, BuildingBlock: NAHDIM_clean_sbu_0, # of connection points: 4
#     Node 2, Type 0, BuildingBlock: NAHDIM_clean_sbu_0, # of connection points: 4
#     Node 3, Type 0, BuildingBlock: NAHDIM_clean_sbu_0, # of connection points: 4
#     Node 4, Type 0, BuildingBlock: NAHDIM_clean_sbu_0, # of connection points: 4
#     Node 5, Type 0, BuildingBlock: NAHDIM_clean_sbu_0, # of connection points: 4
#     Node 6, Type 0, BuildingBlock: NAHDIM_clean_sbu_0, # of connection points: 4
#     Node 7, Type 0, BuildingBlock: NAHDIM_clean_sbu_0, # of connection points: 4
#     Node 8, Type 0, BuildingBlock: NAHDIM_clean_sbu_0, # of connection points: 4
#     Node 9, Type 0, BuildingBlock: NAHDIM_clean_sbu_0, # of connection points: 4
#     Node 10, Type 0, BuildingBlock: NAHDIM_clean_sbu_0, # of connection points: 4
#     Node 11, Type 0, BuildingBlock: NAHDIM_clean_sbu_0, # of connection points: 4
#     Node 12, Type 0, BuildingBlock: NAHDIM_clean_sbu_0, # of connection points: 4
#     Node 13, Type 0, BuildingBlock: NAHDIM_clean_sbu_0, # of connection points: 4
#     Node 14, Type 0, BuildingBlock: NAHDIM_clean_sbu_0, # of connection points: 4
#     Node 15, Type 0, BuildingBlock: NAHDIM_clean_sbu_0, # of connection points: 4
#     Node 16, Type 0, BuildingBlock: NAHDIM_clean_sbu_0, # of connection points: 4
#     Node 17, Type 0, BuildingBlock: NAHDIM_clean_sbu_0, # of connection points: 4
#     Node 18, Type 0, BuildingBlock: NAHDIM_clean_sbu_0, # of connection points: 4
#     Node 19, Type 0, BuildingBlock: NAHDIM_clean_sbu_0, # of connection points: 4
#     Node 20, Type 0, BuildingBlock: NAHDIM_clean_sbu_0, # of connection points: 4
#     Node 21, Type 0, BuildingBlock: NAHDIM_clean_sbu_0, # of connection points: 4
#     Node 22, Type 0, BuildingBlock: NAHDIM_clean_sbu_0, # of connection points: 4
#     Node 23, Type 0, BuildingBlock: NAHDIM_clean_sbu_0, # of connection points: 4
#     Node 24, Type 0, BuildingBlock: NAHDIM_clean_sbu_0, # of connection points: 4
#     Node 25, Type 0, BuildingBlock: NAHDIM_clean_sbu_0, # of connection points: 4
#     Node 26, Type 0, BuildingBlock: NAHDIM_clean_sbu_0, # of connection points: 4
#     Node 27, Type 0, BuildingBlock: NAHDIM_clean_sbu_0, # of connection points: 4
#     Node 28, Type 0, BuildingBlock: NAHDIM_clean_sbu_0, # of connection points: 4
#     Node 29, Type 0, BuildingBlock: NAHDIM_clean_sbu_0, # of connection points: 4
#     Node 30, Type 0, BuildingBlock: NAHDIM_clean_sbu_0, # of connection points: 4
#     Node 31, Type 0, BuildingBlock: NAHDIM_clean_sbu_0, # of connection points: 4
#     Edge 32, Type (0, 0), BuildingBlock: OJICUG_clean_linker_0, # of connection points: 2
#     Edge 33, Type (0, 0), BuildingBlock: OJICUG_clean_linker_0, # of connection points: 2
#     Edge 34, Type (0, 0), BuildingBlock: OJICUG_clean_linker_0, # of connection points: 2
#     Edge 35, Type (0, 0), BuildingBlock: OJICUG_clean_linker_0, # of connection points: 2
#     Edge 36, Type (0, 0), BuildingBlock: OJICUG_clean_linker_0, # of connection points: 2
#     Edge 37, Type (0, 0), BuildingBlock: OJICUG_clean_linker_0, # of connection points: 2
#     Edge 38, Type (0, 0), BuildingBlock: OJICUG_clean_linker_0, # of connection points: 2
#     Edge 39, Type (0, 0), BuildingBlock: OJICUG_clean_linker_0, # of connection points: 2
#     Edge 40, Type (0, 0), BuildingBlock: OJICUG_clean_linker_0, # of connection points: 2
#     Edge 41, Type (0, 0), BuildingBlock: OJICUG_clean_linker_0, # of connection points: 2
#     Edge 42, Type (0, 0), BuildingBlock: OJICUG_clean_linker_0, # of connection points: 2
#     Edge 43, Type (0, 0), BuildingBlock: OJICUG_clean_linker_0, # of connection points: 2
#     Edge 44, Type (0, 0), BuildingBlock: OJICUG_clean_linker_0, # of connection points: 2
#     Edge 45, Type (0, 0), BuildingBlock: OJICUG_clean_linker_0, # of connection points: 2
#     Edge 46, Type (0, 0), BuildingBlock: OJICUG_clean_linker_0, # of connection points: 2
#     Edge 47, Type (0, 0), BuildingBlock: OJICUG_clean_linker_0, # of connection points: 2
#     Edge 48, Type (0, 0), BuildingBlock: OJICUG_clean_linker_0, # of connection points: 2
#     Edge 49, Type (0, 0), BuildingBlock: OJICUG_clean_linker_0, # of connection points: 2
#     Edge 50, Type (0, 0), BuildingBlock: OJICUG_clean_linker_0, # of connection points: 2
#     Edge 51, Type (0, 0), BuildingBlock: OJICUG_clean_linker_0, # of connection points: 2
#     Edge 52, Type (0, 0), BuildingBlock: OJICUG_clean_linker_0, # of connection points: 2
#     Edge 53, Type (0, 0), BuildingBlock: OJICUG_clean_linker_0, # of connection points: 2
#     Edge 54, Type (0, 0), BuildingBlock: OJICUG_clean_linker_0, # of connection points: 2
#     Edge 55, Type (0, 0), BuildingBlock: OJICUG_clean_linker_0, # of connection points: 2
#     Edge 56, Type (0, 0), BuildingBlock: OJICUG_clean_linker_0, # of connection points: 2
#     Edge 57, Type (0, 0), BuildingBlock: OJICUG_clean_linker_0, # of connection points: 2
#     Edge 58, Type (0, 0), BuildingBlock: OJICUG_clean_linker_0, # of connection points: 2
#     Edge 59, Type (0, 0), BuildingBlock: OJICUG_clean_linker_0, # of connection points: 2
#     Edge 60, Type (0, 0), BuildingBlock: OJICUG_clean_linker_0, # of connection points: 2
#     Edge 61, Type (0, 0), BuildingBlock: OJICUG_clean_linker_0, # of connection points: 2
#     Edge 62, Type (0, 0), BuildingBlock: OJICUG_clean_linker_0, # of connection points: 2
#     Edge 63, Type (0, 0), BuildingBlock: OJICUG_clean_linker_0, # of connection points: 2
#     Edge 64, Type (0, 0), BuildingBlock: OJICUG_clean_linker_0, # of connection points: 2
#     Edge 65, Type (0, 0), BuildingBlock: OJICUG_clean_linker_0, # of connection points: 2
#     Edge 66, Type (0, 0), BuildingBlock: OJICUG_clean_linker_0, # of connection points: 2
#     Edge 67, Type (0, 0), BuildingBlock: OJICUG_clean_linker_0, # of connection points: 2
#     Edge 68, Type (0, 0), BuildingBlock: OJICUG_clean_linker_0, # of connection points: 2
#     Edge 69, Type (0, 0), BuildingBlock: OJICUG_clean_linker_0, # of connection points: 2
#     Edge 70, Type (0, 0), BuildingBlock: OJICUG_clean_linker_0, # of connection points: 2
#     Edge 71, Type (0, 0), BuildingBlock: OJICUG_clean_linker_0, # of connection points: 2
#     Edge 72, Type (0, 0), BuildingBlock: OJICUG_clean_linker_0, # of connection points: 2
#     Edge 73, Type (0, 0), BuildingBlock: OJICUG_clean_linker_0, # of connection points: 2
#     Edge 74, Type (0, 0), BuildingBlock: OJICUG_clean_linker_0, # of connection points: 2
#     Edge 75, Type (0, 0), BuildingBlock: OJICUG_clean_linker_0, # of connection points: 2
#     Edge 76, Type (0, 0), BuildingBlock: OJICUG_clean_linker_0, # of connection points: 2
#     Edge 77, Type (0, 0), BuildingBlock: OJICUG_clean_linker_0, # of connection points: 2
#     Edge 78, Type (0, 0), BuildingBlock: OJICUG_clean_linker_0, # of connection points: 2
#     Edge 79, Type (0, 0), BuildingBlock: OJICUG_clean_linker_0, # of connection points: 2
#     Edge 80, Type (0, 0), BuildingBlock: OJICUG_clean_linker_0, # of connection points: 2
#     Edge 81, Type (0, 0), BuildingBlock: OJICUG_clean_linker_0, # of connection points: 2
#     Edge 82, Type (0, 0), BuildingBlock: OJICUG_clean_linker_0, # of connection points: 2
#     Edge 83, Type (0, 0), BuildingBlock: OJICUG_clean_linker_0, # of connection points: 2
#     Edge 84, Type (0, 0), BuildingBlock: OJICUG_clean_linker_0, # of connection points: 2
#     Edge 85, Type (0, 0), BuildingBlock: OJICUG_clean_linker_0, # of connection points: 2
#     Edge 86, Type (0, 0), BuildingBlock: OJICUG_clean_linker_0, # of connection points: 2
#     Edge 87, Type (0, 0), BuildingBlock: OJICUG_clean_linker_0, # of connection points: 2
#     Edge 88, Type (0, 0), BuildingBlock: OJICUG_clean_linker_0, # of connection points: 2
#     Edge 89, Type (0, 0), BuildingBlock: OJICUG_clean_linker_0, # of connection points: 2
#     Edge 90, Type (0, 0), BuildingBlock: OJICUG_clean_linker_0, # of connection points: 2
#     Edge 91, Type (0, 0), BuildingBlock: OJICUG_clean_linker_0, # of connection points: 2
#     Edge 92, Type (0, 0), BuildingBlock: OJICUG_clean_linker_0, # of connection points: 2
#     Edge 93, Type (0, 0), BuildingBlock: OJICUG_clean_linker_0, # of connection points: 2
#     Edge 94, Type (0, 0), BuildingBlock: OJICUG_clean_linker_0, # of connection points: 2
#     Edge 95, Type (0, 0), BuildingBlock: OJICUG_clean_linker_0, # of connection points: 2
# Relax obj value: 0.161
# Max RMSD: 0.166
# Mean RMSD: 0.154
data_MOF--net-mer--node1-NAHDIM_clean_sbu_0--edge1-OJICUG_clean_linker_0
_symmetry_space_group_name_H-M    P1
_symmetry_Int_Tables_number       1
_symmetry_cell_setting            triclinic
loop_
_symmetry_equiv_pos_as_xyz
'x, y, z'
_cell_length_a     51.365384
_cell_length_b     49.920004
_cell_length_c     32.287418
_cell_angle_alpha  89.918058
_cell_angle_beta   89.968173
_cell_angle_gamma 90.026122
loop_
_atom_site_label
_atom_site_type_symbol
_atom_site_fract_x
_atom_site_fract_y
_atom_site_fract_z
_atom_type_partial_charge
C0 C 0.0481 0.22549 0.28202 0.0
O1 O 0.06088 0.24064 0.25562 0.0
O2 O 0.1102 0.25565 0.29379 0.0
Zn3 Zn 0.09729 0.22421 0.32689 0.0
O4 O 0.09875 0.2329 0.38757 0.0
C5 C 0.13355 0.18964 0.28366 0.0
O6 O 0.12925 0.20615 0.25268 0.0
O7 O 0.06005 0.21572 0.31301 0.0
C8 C 0.12039 0.2358 0.40607 0.0
O9 O 0.14209 0.23381 0.38474 0.0
C10 C 0.10807 0.27972 0.3061 0.0
O11 O 0.09655 0.28466 0.34161 0.0
O12 O 0.12115 0.19286 0.31736 0.0
C13 C 0.66793 0.12785 0.2722 0.0
O14 O 0.67625 0.10641 0.25272 0.0
O15 O 0.70094 0.07268 0.32196 0.0
Zn16 Zn 0.7067 0.11206 0.33158 0.0
O17 O 0.74008 0.12519 0.30623 0.0
C18 C 0.69601 0.1058 0.41945 0.0
O19 O 0.67953 0.08746 0.40668 0.0
O20 O 0.67764 0.13373 0.30722 0.0
C21 C 0.76178 0.11978 0.32313 0.0
O22 O 0.76217 0.10374 0.35544 0.0
C23 C 0.71463 0.05828 0.29793 0.0
O24 O 0.73371 0.06932 0.27685 0.0
O25 O 0.7091 0.11894 0.39289 0.0
C26 C 0.93813 0.75905 0.28253 0.0
O27 O 0.92496 0.74283 0.25833 0.0
O28 O 0.87656 0.72931 0.29888 0.0
Zn29 Zn 0.88966 0.76185 0.32894 0.0
O30 O 0.88851 0.75549 0.39039 0.0
C31 C 0.85347 0.79479 0.28269 0.0
O32 O 0.85812 0.77742 0.25306 0.0
O33 O 0.92671 0.76995 0.31311 0.0
C34 C 0.86684 0.75336 0.40912 0.0
O35 O 0.84517 0.75458 0.3876 0.0
C36 C 0.87702 0.70578 0.31393 0.0
O37 O 0.88691 0.70186 0.35095 0.0
O38 O 0.86566 0.79269 0.31679 0.0
C39 C 0.31987 0.85557 0.27263 0.0
O40 O 0.31202 0.87704 0.25265 0.0
O41 O 0.28825 0.91177 0.32463 0.0
Zn42 Zn 0.28173 0.87239 0.33295 0.0
O43 O 0.24771 0.86091 0.30801 0.0
C44 C 0.29471 0.87573 0.42 0.0
O45 O 0.3127 0.89238 0.4067 0.0
O46 O 0.31008 0.85019 0.30781 0.0
C47 C 0.22646 0.86691 0.32587 0.0
O48 O 0.2271 0.88205 0.35912 0.0
C49 C 0.27492 0.92639 0.30037 0.0
O50 O 0.2563 0.91548 0.27819 0.0
O51 O 0.27967 0.86463 0.39397 0.0
C52 C 0.04716 0.76257 0.71058 0.0
O53 O 0.06023 0.74605 0.73448 0.0
O54 O 0.10961 0.73415 0.69622 0.0
Zn55 Zn 0.09575 0.76574 0.66443 0.0
O56 O 0.09675 0.75794 0.60339 0.0
C57 C 0.13077 0.80029 0.70935 0.0
O58 O 0.12477 0.78429 0.74026 0.0
O59 O 0.05868 0.77378 0.6803 0.0
C60 C 0.11842 0.75549 0.58479 0.0
O61 O 0.14009 0.75738 0.60622 0.0
C62 C 0.10918 0.71024 0.68284 0.0
O63 O 0.09858 0.70518 0.64666 0.0
O64 O 0.11962 0.79698 0.6746 0.0
C65 C 0.31096 0.11965 0.73248 0.0
O66 O 0.30169 0.09923 0.75355 0.0
O67 O 0.27579 0.06385 0.6842 0.0
Zn68 Zn 0.27292 0.1032 0.67157 0.0
O69 O 0.23958 0.11834 0.6938 0.0
C70 C 0.28485 0.09487 0.58405 0.0
O71 O 0.29989 0.07548 0.59765 0.0
O72 O 0.30221 0.12433 0.6964 0.0
C73 C 0.21825 0.1138 0.67519 0.0
O74 O 0.2182 0.09774 0.64297 0.0
C75 C 0.26234 0.05239 0.71214 0.0
O76 O 0.24638 0.06673 0.73489 0.0
O77 O 0.27227 0.10901 0.6099 0.0
C78 C 0.93989 0.23698 0.71387 0.0
O79 O 0.9272 0.2569 0.7311 0.0
O80 O 0.87494 0.25844 0.7033 0.0
Zn81 Zn 0.89036 0.22678 0.6738 0.0
O82 O 0.88913 0.23262 0.61221 0.0
C83 C 0.85479 0.19276 0.71926 0.0
O84 O 0.85827 0.2106 0.74862 0.0
O85 O 0.92778 0.22105 0.68997 0.0
C86 C 0.86757 0.23036 0.59325 0.0
O87 O 0.84637 0.22528 0.61468 0.0
C88 C 0.87231 0.28153 0.68727 0.0
O89 O 0.88059 0.28582 0.64934 0.0
O90 O 0.86781 0.19475 0.68592 0.0
C91 C 0.66804 0.86302 0.72207 0.0
O92 O 0.67566 0.88477 0.74147 0.0
O93 O 0.69861 0.91975 0.67106 0.0
Zn94 Zn 0.70537 0.8806 0.66126 0.0
O95 O 0.73955 0.86893 0.68551 0.0
C96 C 0.6949 0.8874 0.57333 0.0
O97 O 0.67918 0.90648 0.58595 0.0
O98 O 0.6775 0.85775 0.68665 0.0
C99 C 0.76075 0.87416 0.66689 0.0
O100 O 0.76014 0.8889 0.63315 0.0
C101 C 0.71214 0.93412 0.69535 0.0
O102 O 0.7312 0.92308 0.71643 0.0
O103 O 0.70732 0.87369 0.59997 0.0
C104 C 0.93503 0.76306 0.71239 0.0
O105 O 0.92223 0.74558 0.73505 0.0
O106 O 0.86912 0.74029 0.70312 0.0
Zn107 Zn 0.88593 0.76873 0.66772 0.0
O108 O 0.88577 0.75779 0.60788 0.0
C109 C 0.84867 0.80659 0.7007 0.0
O110 O 0.848 0.78979 0.73203 0.0
O111 O 0.92316 0.77554 0.68375 0.0
C112 C 0.86454 0.75638 0.58782 0.0
O113 O 0.84248 0.76065 0.60737 0.0
C114 C 0.86736 0.71572 0.69329 0.0
O115 O 0.87784 0.70741 0.65848 0.0
O116 O 0.86444 0.80232 0.67111 0.0
C117 C 0.26021 0.93686 0.71759 0.0
O118 O 0.24187 0.92412 0.73804 0.0
O119 O 0.29382 0.86234 0.71748 0.0
Zn120 Zn 0.27179 0.88485 0.67932 0.0
O121 O 0.28362 0.88124 0.62012 0.0
C122 C 0.22531 0.86236 0.71648 0.0
O123 O 0.24005 0.8614 0.7497 0.0
O124 O 0.27483 0.92392 0.693 0.0
C125 C 0.27344 0.86477 0.59491 0.0
O126 O 0.25516 0.84842 0.60809 0.0
C127 C 0.314 0.84977 0.70564 0.0
O128 O 0.32183 0.85219 0.66708 0.0
O129 O 0.23452 0.87235 0.68333 0.0
C130 C 0.05194 0.23883 0.70823 0.0
O131 O 0.06491 0.25874 0.72498 0.0
O132 O 0.11936 0.25601 0.69889 0.0
Zn133 Zn 0.10066 0.22809 0.6652 0.0
O134 O 0.10081 0.23774 0.60479 0.0
C135 C 0.1348 0.18836 0.70099 0.0
O136 O 0.13543 0.20522 0.73218 0.0
O137 O 0.06351 0.22322 0.68321 0.0
C138 C 0.12211 0.23818 0.58475 0.0
O139 O 0.14402 0.23389 0.60467 0.0
C140 C 0.12285 0.28021 0.68793 0.0
O141 O 0.113 0.28868 0.65273 0.0
O142 O 0.12032 0.19349 0.6701 0.0
C143 C 0.7001 0.04884 0.68779 0.0
O144 O 0.68033 0.05942 0.66779 0.0
O145 O 0.69194 0.12299 0.7149 0.0
Zn146 Zn 0.71787 0.10235 0.68078 0.0
O147 O 0.70741 0.10311 0.62047 0.0
C148 C 0.76182 0.128 0.72105 0.0
O149 O 0.74689 0.12671 0.75405 0.0
O150 O 0.71889 0.06386 0.69849 0.0
C151 C 0.71834 0.11824 0.59395 0.0
O152 O 0.73672 0.13476 0.60609 0.0
C153 C 0.687 0.14706 0.70478 0.0
O154 O 0.69881 0.15743 0.67241 0.0
O155 O 0.75351 0.11861 0.68697 0.0
C156 C 0.93595 0.22636 0.28514 0.0
O157 O 0.92258 0.24037 0.25804 0.0
O158 O 0.87347 0.25641 0.29894 0.0
Zn159 Zn 0.88726 0.22492 0.33181 0.0
O160 O 0.8858 0.23261 0.39323 0.0
C161 C 0.84784 0.1908 0.29394 0.0
O162 O 0.84541 0.21058 0.26735 0.0
O163 O 0.92464 0.21756 0.31742 0.0
C164 C 0.86603 0.22583 0.41456 0.0
O165 O 0.84604 0.2147 0.39592 0.0
C166 C 0.85473 0.27056 0.31243 0.0
O167 O 0.84464 0.26495 0.34879 0.0
O168 O 0.86518 0.19223 0.3219 0.0
C169 C 0.70152 0.94357 0.30464 0.0
O170 O 0.68168 0.93322 0.32481 0.0
O171 O 0.69291 0.86866 0.27872 0.0
Zn172 Zn 0.71866 0.88991 0.31234 0.0
O173 O 0.70778 0.88977 0.37248 0.0
C174 C 0.76231 0.86211 0.2745 0.0
O175 O 0.74746 0.86232 0.24138 0.0
O176 O 0.7201 0.92831 0.29382 0.0
C177 C 0.71836 0.87464 0.39931 0.0
O178 O 0.73666 0.85789 0.38764 0.0
C179 C 0.68934 0.84437 0.28911 0.0
O180 O 0.70224 0.83472 0.32092 0.0
O181 O 0.75418 0.87316 0.30749 0.0
C182 C 0.05024 0.75928 0.28071 0.0
O183 O 0.063 0.74193 0.25786 0.0
O184 O 0.11588 0.73591 0.29037 0.0
Zn185 Zn 0.09933 0.76461 0.32549 0.0
O186 O 0.0996 0.75444 0.38576 0.0
C187 C 0.13704 0.80167 0.29149 0.0
O188 O 0.13762 0.78447 0.26076 0.0
O189 O 0.06212 0.77154 0.30951 0.0
C190 C 0.12079 0.75437 0.40604 0.0
O191 O 0.14272 0.75927 0.38645 0.0
C192 C 0.12097 0.71224 0.30241 0.0
O193 O 0.11417 0.70474 0.3399 0.0
O194 O 0.12104 0.79801 0.32099 0.0
C195 C 0.28545 0.04111 0.31292 0.0
O196 O 0.30503 0.05156 0.33353 0.0
O197 O 0.29355 0.11568 0.28885 0.0
Zn198 Zn 0.26746 0.09433 0.32176 0.0
O199 O 0.27734 0.09402 0.38234 0.0
C200 C 0.22416 0.1213 0.28176 0.0
O201 O 0.23924 0.12012 0.24893 0.0
O202 O 0.26658 0.05613 0.30254 0.0
C203 C 0.26652 0.10931 0.40868 0.0
O204 O 0.24893 0.12659 0.39606 0.0
C205 C 0.29639 0.14032 0.29759 0.0
O206 O 0.28267 0.15058 0.32803 0.0
O207 O 0.23199 0.11106 0.31558 0.0
C208 C 0.55184 0.72476 0.78377 0.0
O209 O 0.56457 0.73955 0.75684 0.0
O210 O 0.61276 0.75736 0.79731 0.0
Zn211 Zn 0.60066 0.72526 0.82959 0.0
O212 O 0.60212 0.73293 0.8906 0.0
C213 C 0.63746 0.69242 0.7846 0.0
O214 O 0.63239 0.70917 0.75423 0.0
O215 O 0.56369 0.71593 0.81552 0.0
C216 C 0.62378 0.73561 0.90911 0.0
O217 O 0.64544 0.73427 0.88754 0.0
C218 C 0.61151 0.78124 0.81071 0.0
O219 O 0.60127 0.78582 0.84731 0.0
O220 O 0.62525 0.69477 0.81864 0.0
C221 C 0.16996 0.63075 0.76926 0.0
O222 O 0.178 0.60925 0.74961 0.0
O223 O 0.20252 0.57479 0.81835 0.0
Zn224 Zn 0.20827 0.61408 0.82902 0.0
O225 O 0.242 0.62722 0.80487 0.0
C226 C 0.19741 0.60653 0.91668 0.0
O227 O 0.18145 0.58787 0.90334 0.0
O228 O 0.17961 0.63626 0.80447 0.0
C229 C 0.26344 0.62151 0.82233 0.0
O230 O 0.26333 0.60529 0.85444 0.0
C231 C 0.21694 0.56047 0.79529 0.0
O232 O 0.23663 0.57159 0.77579 0.0
O233 O 0.21019 0.62033 0.89055 0.0
C234 C 0.43551 0.24987 0.78776 0.0
O235 O 0.42302 0.23139 0.76673 0.0
O236 O 0.37188 0.22392 0.80073 0.0
Zn237 Zn 0.38613 0.25589 0.83104 0.0
O238 O 0.38462 0.24935 0.89246 0.0
C239 C 0.35178 0.29064 0.78439 0.0
O240 O 0.35641 0.27352 0.75441 0.0
O241 O 0.42342 0.2631 0.81534 0.0
C242 C 0.3628 0.24718 0.91074 0.0
O243 O 0.34131 0.24856 0.88878 0.0
C244 C 0.37195 0.20032 0.81554 0.0
O245 O 0.38229 0.19598 0.85213 0.0
O246 O 0.36319 0.2876 0.819 0.0
C247 C 0.81038 0.35991 0.77391 0.0
O248 O 0.80096 0.38078 0.7541 0.0
O249 O 0.78269 0.41662 0.82856 0.0
Zn250 Zn 0.77494 0.37752 0.83698 0.0
O251 O 0.7405 0.36697 0.81247 0.0
C252 C 0.7867 0.38214 0.92461 0.0
O253 O 0.80271 0.40101 0.91202 0.0
O254 O 0.80249 0.35496 0.81043 0.0
C255 C 0.71942 0.372 0.83153 0.0
O256 O 0.72032 0.38591 0.86602 0.0
C257 C 0.77021 0.43174 0.8039 0.0
O258 O 0.75111 0.4217 0.78178 0.0
O259 O 0.77339 0.36935 0.89801 0.0
C260 C 0.54104 0.25494 0.21253 0.0
O261 O 0.55419 0.23776 0.23516 0.0
O262 O 0.60471 0.22945 0.19929 0.0
Zn263 Zn 0.58984 0.26054 0.1676 0.0
O264 O 0.5913 0.25305 0.1065 0.0
C265 C 0.62331 0.29657 0.21291 0.0
O266 O 0.61755 0.28069 0.24409 0.0
O267 O 0.55255 0.26737 0.18341 0.0
C268 C 0.61319 0.25126 0.08833 0.0
O269 O 0.63461 0.25346 0.1103 0.0
C270 C 0.60494 0.20553 0.18592 0.0
O271 O 0.59438 0.20015 0.14983 0.0
O272 O 0.61262 0.29254 0.17799 0.0
C273 C 0.82007 0.62309 0.22846 0.0
O274 O 0.81088 0.60249 0.2492 0.0
O275 O 0.78966 0.5657 0.17634 0.0
Zn276 Zn 0.78398 0.60503 0.16617 0.0
O277 O 0.74987 0.61757 0.18957 0.0
C278 C 0.79543 0.5988 0.07823 0.0
O279 O 0.81101 0.57956 0.09075 0.0
O280 O 0.81205 0.62736 0.19183 0.0
C281 C 0.72877 0.6128 0.17045 0.0
O282 O 0.72943 0.59797 0.13687 0.0
C283 C 0.77568 0.55197 0.20096 0.0
O284 O 0.75709 0.56384 0.222 0.0
O285 O 0.78272 0.61218 0.10488 0.0
C286 C 0.4448 0.72458 0.21858 0.0
O287 O 0.43203 0.74205 0.24119 0.0
O288 O 0.3819 0.75193 0.20462 0.0
Zn289 Zn 0.3957 0.71976 0.17442 0.0
O290 O 0.39451 0.72648 0.11307 0.0
C291 C 0.35827 0.68717 0.21876 0.0
O292 O 0.36221 0.70472 0.24838 0.0
O293 O 0.43288 0.71209 0.19002 0.0
C294 C 0.37273 0.72619 0.09443 0.0
O295 O 0.35136 0.72233 0.11602 0.0
C296 C 0.38147 0.77543 0.18948 0.0
O297 O 0.39121 0.77969 0.15243 0.0
O298 O 0.37167 0.68873 0.18574 0.0
C299 C 0.16473 0.3617 0.21804 0.0
O300 O 0.17211 0.38345 0.23767 0.0
O301 O 0.19635 0.41854 0.16895 0.0
Zn302 Zn 0.20272 0.37937 0.15844 0.0
O303 O 0.2365 0.36702 0.18325 0.0
C304 C 0.19377 0.38761 0.07037 0.0
O305 O 0.17873 0.40726 0.083 0.0
O306 O 0.1745 0.35652 0.18281 0.0
C307 C 0.25794 0.37147 0.16486 0.0
O308 O 0.25795 0.38594 0.13084 0.0
C309 C 0.21039 0.4327 0.19279 0.0
O310 O 0.22966 0.42141 0.21305 0.0
O311 O 0.20517 0.37301 0.09703 0.0
C312 C 0.42892 0.25461 0.21359 0.0
O313 O 0.4162 0.23606 0.23422 0.0
O314 O 0.36216 0.23436 0.20532 0.0
Zn315 Zn 0.37985 0.26202 0.16957 0.0
O316 O 0.38006 0.25059 0.10994 0.0
C317 C 0.34348 0.30129 0.20113 0.0
O318 O 0.34231 0.28495 0.23301 0.0
O319 O 0.41702 0.26832 0.18636 0.0
C320 C 0.359 0.24946 0.0894 0.0
O321 O 0.33684 0.25417 0.1084 0.0
C322 C 0.36088 0.20955 0.1968 0.0
O323 O 0.37234 0.20055 0.16321 0.0
O324 O 0.35913 0.29613 0.17173 0.0
C325 C 0.78268 0.43683 0.19359 0.0
O326 O 0.80217 0.42534 0.17413 0.0
O327 O 0.78482 0.36136 0.22053 0.0
Zn328 Zn 0.76218 0.38453 0.18436 0.0
O329 O 0.77418 0.38395 0.12492 0.0
C330 C 0.71558 0.36209 0.22055 0.0
O331 O 0.72916 0.3638 0.25492 0.0
O332 O 0.76295 0.42279 0.20324 0.0
C333 C 0.76581 0.3669 0.09897 0.0
O334 O 0.74954 0.34824 0.11146 0.0
C335 C 0.80559 0.35004 0.20822 0.0
O336 O 0.81373 0.35415 0.17016 0.0
O337 O 0.72556 0.37038 0.18687 0.0
C338 C 0.55688 0.72621 0.21455 0.0
O339 O 0.56996 0.74369 0.23668 0.0
O340 O 0.62262 0.74915 0.20238 0.0
Zn341 Zn 0.60531 0.72068 0.16787 0.0
O342 O 0.60501 0.73138 0.10788 0.0
C343 C 0.64194 0.68238 0.2014 0.0
O344 O 0.64236 0.69899 0.23292 0.0
O345 O 0.5683 0.71393 0.18528 0.0
C346 C 0.6262 0.73331 0.08778 0.0
O347 O 0.64835 0.72966 0.10734 0.0
C348 C 0.62423 0.7737 0.19224 0.0
O349 O 0.61324 0.78194 0.15777 0.0
O350 O 0.62663 0.68702 0.17134 0.0
C351 C 0.20019 0.54762 0.18524 0.0
O352 O 0.18048 0.55855 0.16553 0.0
O353 O 0.19324 0.62177 0.21252 0.0
Zn354 Zn 0.21887 0.60085 0.17812 0.0
O355 O 0.20851 0.60187 0.11774 0.0
C356 C 0.26322 0.62555 0.21869 0.0
O357 O 0.24821 0.62446 0.25161 0.0
O358 O 0.21929 0.5623 0.19564 0.0
C359 C 0.21947 0.61723 0.09155 0.0
O360 O 0.23775 0.63373 0.10413 0.0
C361 C 0.18603 0.64478 0.20018 0.0
O362 O 0.19531 0.65413 0.1651 0.0
O363 O 0.25479 0.61646 0.18449 0.0
C364 C 0.43977 0.72399 0.78589 0.0
O365 O 0.42633 0.73772 0.75854 0.0
O366 O 0.37836 0.75544 0.80021 0.0
Zn367 Zn 0.39136 0.72364 0.83307 0.0
O368 O 0.39018 0.73112 0.89448 0.0
C369 C 0.35117 0.69072 0.79503 0.0
O370 O 0.34926 0.71069 0.76866 0.0
O371 O 0.42856 0.71561 0.81853 0.0
C372 C 0.37004 0.72538 0.91567 0.0
O373 O 0.34943 0.71572 0.89677 0.0
C374 C 0.36086 0.77112 0.81383 0.0
O375 O 0.35127 0.76711 0.85102 0.0
O376 O 0.36853 0.69154 0.823 0.0
C377 C 0.20451 0.44567 0.80147 0.0
O378 O 0.18403 0.43518 0.81975 0.0
O379 O 0.19505 0.37182 0.77576 0.0
Zn380 Zn 0.22111 0.39206 0.81025 0.0
O381 O 0.2096 0.39187 0.8701 0.0
C382 C 0.26405 0.36251 0.77346 0.0
O383 O 0.24941 0.36304 0.74011 0.0
O384 O 0.22351 0.4305 0.79227 0.0
C385 C 0.21936 0.37613 0.8969 0.0
O386 O 0.23724 0.35886 0.88539 0.0
C387 C 0.19034 0.34772 0.78603 0.0
O388 O 0.20239 0.33752 0.81827 0.0
O389 O 0.25615 0.37416 0.8061 0.0
C390 C 0.54762 0.25365 0.78707 0.0
O391 O 0.56081 0.23404 0.7699 0.0
O392 O 0.61528 0.23736 0.79421 0.0
Zn393 Zn 0.59648 0.26465 0.82912 0.0
O394 O 0.59627 0.25363 0.889 0.0
C395 C 0.63167 0.30462 0.79645 0.0
O396 O 0.63223 0.2885 0.76433 0.0
O397 O 0.5592 0.26956 0.81161 0.0
C398 C 0.61729 0.25316 0.90971 0.0
O399 O 0.63938 0.25835 0.89079 0.0
C400 C 0.61906 0.21311 0.80455 0.0
O401 O 0.60941 0.20418 0.83965 0.0
O402 O 0.61655 0.29922 0.82649 0.0
C403 C 0.78923 0.54553 0.81026 0.0
O404 O 0.80896 0.55485 0.83176 0.0
O405 O 0.79976 0.62099 0.78294 0.0
Zn406 Zn 0.77395 0.59995 0.81691 0.0
O407 O 0.78485 0.59962 0.87703 0.0
C408 C 0.73005 0.62709 0.77882 0.0
O409 O 0.74448 0.62595 0.74525 0.0
O410 O 0.7717 0.5617 0.79822 0.0
C411 C 0.77427 0.61459 0.90404 0.0
O412 O 0.75619 0.63163 0.89247 0.0
C413 C 0.8035 0.64529 0.79306 0.0
O414 O 0.79084 0.65505 0.82501 0.0
O415 O 0.7386 0.61699 0.81229 0.0
C416 C 0.19219 0.15095 0.24501 0.0
C417 C 0.19943 0.13652 0.28061 0.0
H418 H 0.16558 0.17894 0.21791 0.0
C419 C 0.18356 0.13802 0.316 0.0
H420 H 0.20394 0.15016 0.21717 0.0
C421 C 0.16155 0.15444 0.31639 0.0
C422 C 0.15494 0.1698 0.28142 0.0
H423 H 0.18849 0.12705 0.34389 0.0
H424 H 0.1502 0.15569 0.3446 0.0
C425 C 0.17018 0.16745 0.24543 0.0
C426 C 0.78454 0.15349 0.27835 0.0
C427 C 0.78545 0.13469 0.31081 0.0
H428 H 0.80372 0.1858 0.24716 0.0
C429 C 0.80846 0.13224 0.33401 0.0
H430 H 0.76718 0.15572 0.25964 0.0
C431 C 0.8294 0.14951 0.32688 0.0
C432 C 0.82779 0.16954 0.29632 0.0
H433 H 0.80989 0.11784 0.35902 0.0
H434 H 0.84638 0.1479 0.34661 0.0
C435 C 0.80552 0.17072 0.27114 0.0
C436 C 0.81688 0.81545 0.24234 0.0
C437 C 0.83194 0.81433 0.27865 0.0
H438 H 0.78313 0.83154 0.21241 0.0
C439 C 0.825 0.83067 0.31233 0.0
H440 H 0.82174 0.80318 0.2158 0.0
C441 C 0.80285 0.84683 0.31043 0.0
C442 C 0.78716 0.8471 0.27477 0.0
H443 H 0.8362 0.83037 0.34073 0.0
H444 H 0.79768 0.85858 0.33738 0.0
C445 C 0.79473 0.8317 0.2404 0.0
C446 C 0.17945 0.82169 0.2691 0.0
C447 C 0.15788 0.82192 0.29588 0.0
H448 H 0.21809 0.83585 0.25748 0.0
C449 C 0.15785 0.83968 0.32965 0.0
H450 H 0.18005 0.80835 0.24268 0.0
C451 C 0.17964 0.85552 0.33805 0.0
C452 C 0.20195 0.8538 0.313 0.0
H453 H 0.14144 0.8405 0.3507 0.0
H454 H 0.17942 0.8681 0.36535 0.0
C455 C 0.20131 0.83741 0.27765 0.0
C456 C 0.16723 0.82083 0.74994 0.0
C457 C 0.15292 0.81913 0.71294 0.0
H458 H 0.20125 0.83596 0.7802 0.0
C459 C 0.16138 0.83386 0.67829 0.0
H460 H 0.1612 0.80985 0.77726 0.0
C461 C 0.18437 0.84879 0.67995 0.0
C462 C 0.1994 0.84936 0.71631 0.0
H463 H 0.15076 0.8331 0.64934 0.0
H464 H 0.19078 0.85915 0.65227 0.0
C465 C 0.19022 0.8358 0.75162 0.0
C466 C 0.17331 0.12993 0.65893 0.0
C467 C 0.19485 0.12961 0.68572 0.0
H468 H 0.13728 0.14871 0.64288 0.0
C469 C 0.19481 0.1465 0.72052 0.0
H470 H 0.17267 0.11706 0.63197 0.0
C471 C 0.17443 0.16455 0.72692 0.0
C472 C 0.1538 0.16619 0.69847 0.0
H473 H 0.21102 0.14655 0.74197 0.0
H474 H 0.17554 0.1781 0.75304 0.0
C475 C 0.15303 0.14811 0.66516 0.0
C476 C 0.79463 0.15657 0.75787 0.0
C477 C 0.78715 0.14212 0.72249 0.0
H478 H 0.82203 0.1838 0.78477 0.0
C479 C 0.80348 0.14245 0.68755 0.0
H480 H 0.78254 0.15663 0.78537 0.0
C481 C 0.82618 0.15786 0.68731 0.0
C482 C 0.83299 0.17342 0.72191 0.0
H483 H 0.7984 0.13136 0.65989 0.0
H484 H 0.83784 0.15833 0.65935 0.0
C485 C 0.81729 0.17213 0.75754 0.0
C486 C 0.82844 0.8447 0.66184 0.0
C487 C 0.82829 0.82733 0.69615 0.0
H488 H 0.80731 0.87343 0.62595 0.0
C489 C 0.80704 0.82804 0.72357 0.0
H490 H 0.84461 0.8448 0.64029 0.0
C491 C 0.78559 0.84438 0.71522 0.0
C492 C 0.78502 0.86043 0.67942 0.0
H493 H 0.80637 0.81503 0.75042 0.0
H494 H 0.76901 0.84356 0.73595 0.0
C495 C 0.80705 0.86115 0.65363 0.0
C496 C 0.66696 0.65802 0.81585 0.0
C497 C 0.65948 0.67341 0.78137 0.0
H498 H 0.69503 0.63135 0.84207 0.0
C499 C 0.67442 0.67191 0.74495 0.0
H500 H 0.65587 0.65864 0.84438 0.0
C501 C 0.69693 0.65618 0.74361 0.0
C502 C 0.70499 0.64171 0.77871 0.0
H503 H 0.66915 0.68346 0.71779 0.0
H504 H 0.7084 0.65599 0.71544 0.0
C505 C 0.68948 0.64239 0.81456 0.0
C506 C 0.28711 0.65501 0.77838 0.0
C507 C 0.28745 0.63606 0.81066 0.0
H508 H 0.30715 0.68698 0.74774 0.0
C509 C 0.31026 0.63302 0.83418 0.0
H510 H 0.26991 0.6577 0.75943 0.0
C511 C 0.33161 0.64983 0.82749 0.0
C512 C 0.33061 0.66999 0.79706 0.0
H513 H 0.31125 0.61849 0.85907 0.0
H514 H 0.34844 0.64776 0.84743 0.0
C515 C 0.30849 0.67178 0.77162 0.0
C516 C 0.32456 0.32776 0.81336 0.0
C517 C 0.33121 0.31121 0.7798 0.0
H518 H 0.29827 0.35699 0.83764 0.0
C519 C 0.3168 0.31324 0.74293 0.0
H520 H 0.3353 0.32679 0.84219 0.0
C521 C 0.2955 0.33063 0.7403 0.0
C522 C 0.28818 0.3463 0.77451 0.0
H523 H 0.32146 0.30085 0.71644 0.0
H524 H 0.28435 0.33117 0.71186 0.0
C525 C 0.30328 0.34508 0.81076 0.0
C526 C 0.67266 0.32728 0.77334 0.0
C527 C 0.65177 0.32562 0.80135 0.0
H528 H 0.71046 0.3434 0.7608 0.0
C529 C 0.65187 0.34214 0.83658 0.0
H530 H 0.67313 0.31495 0.74578 0.0
C531 C 0.67325 0.35855 0.84511 0.0
C532 C 0.69501 0.35864 0.81872 0.0
H533 H 0.63597 0.34151 0.85861 0.0
H534 H 0.67323 0.37008 0.8735 0.0
C535 C 0.69411 0.34356 0.78201 0.0
C536 C 0.65839 0.31923 0.25394 0.0
C537 C 0.64479 0.3162 0.21647 0.0
H538 H 0.69135 0.33628 0.28475 0.0
C539 C 0.65337 0.33041 0.18139 0.0
H540 H 0.65223 0.30866 0.28158 0.0
C541 C 0.67583 0.34613 0.18316 0.0
C542 C 0.69017 0.3481 0.22009 0.0
H543 H 0.6433 0.32863 0.15205 0.0
H544 H 0.68237 0.35608 0.15519 0.0
C545 C 0.68083 0.33506 0.25575 0.0
C546 C 0.68297 0.62692 0.15577 0.0
C547 C 0.70469 0.62715 0.18217 0.0
H548 H 0.64594 0.64411 0.14127 0.0
C549 C 0.70407 0.64328 0.21782 0.0
H550 H 0.68275 0.6146 0.12818 0.0
C551 C 0.68289 0.66012 0.22545 0.0
C552 C 0.66199 0.66128 0.19745 0.0
H553 H 0.72042 0.64373 0.239 0.0
H554 H 0.68354 0.67315 0.25223 0.0
C555 C 0.66186 0.64387 0.16326 0.0
C556 C 0.30536 0.63901 0.18565 0.0
C557 C 0.28891 0.63896 0.22046 0.0
H558 H 0.34032 0.65389 0.15802 0.0
C559 C 0.29671 0.65295 0.25612 0.0
H560 H 0.30003 0.62827 0.15777 0.0
C561 C 0.31986 0.66772 0.25624 0.0
C562 C 0.33574 0.66869 0.22079 0.0
H563 H 0.28455 0.65321 0.28352 0.0
H564 H 0.32489 0.67902 0.28371 0.0
C565 C 0.32854 0.65363 0.18585 0.0
C566 C 0.30384 0.35678 0.15239 0.0
C567 C 0.28171 0.35706 0.17797 0.0
H568 H 0.34088 0.339 0.1398 0.0
C569 C 0.28162 0.34135 0.21414 0.0
H570 H 0.30461 0.36877 0.12444 0.0
C571 C 0.30249 0.32436 0.22308 0.0
C572 C 0.32379 0.32264 0.19589 0.0
H573 H 0.26496 0.34132 0.23472 0.0
H574 H 0.3013 0.31164 0.25021 0.0
C575 C 0.32464 0.33968 0.16119 0.0
C576 C 0.97859 0.20838 0.31008 0.0
C577 C 0.96449 0.22336 0.28083 0.0
H578 H 0.01598 0.19703 0.3331 0.0
C579 C 0.97813 0.2369 0.24937 0.0
H580 H 0.96869 0.19751 0.33451 0.0
C581 C 0.00537 0.23664 0.24857 0.0
C582 C 0.01946 0.22281 0.27917 0.0
H583 H 0.96784 0.24852 0.22624 0.0
H584 H 0.01534 0.24808 0.22485 0.0
C585 C 0.00575 0.20808 0.30924 0.0
C586 C 0.72801 0.01207 0.27631 0.0
C587 C 0.71011 0.02905 0.29613 0.0
H588 H 0.73934 0.97166 0.26334 0.0
C589 C 0.68839 0.01771 0.31603 0.0
H590 H 0.74491 0.02018 0.26062 0.0
C591 C 0.68511 0.98997 0.31736 0.0
C592 C 0.70358 0.97291 0.29908 0.0
H593 H 0.67413 0.03025 0.33134 0.0
H594 H 0.66848 0.9819 0.33383 0.0
C595 C 0.72482 0.98426 0.27789 0.0
C596 C 0.00761 0.74602 0.24881 0.0
C597 C 0.02164 0.76194 0.2769 0.0
H598 H 0.97014 0.73275 0.22827 0.0
C599 C 0.00787 0.77895 0.30379 0.0
H600 H 0.01763 0.73281 0.22752 0.0
C601 C 0.9807 0.77888 0.30427 0.0
C602 C 0.96666 0.76185 0.27781 0.0
H603 H 0.01805 0.79165 0.32561 0.0
H604 H 0.97074 0.79154 0.32642 0.0
C605 C 0.98038 0.74599 0.24923 0.0
C606 C 0.26099 0.97272 0.2803 0.0
C607 C 0.27895 0.95571 0.29996 0.0
H608 H 0.24893 0.01312 0.26892 0.0
C609 C 0.30009 0.96707 0.32125 0.0
H610 H 0.24452 0.96458 0.26357 0.0
C611 C 0.30271 -0.00515 0.32409 0.0
C612 C 0.28413 0.01187 0.30598 0.0
H613 H 0.31437 0.95452 0.33651 0.0
H614 H 0.31888 0.00292 0.3416 0.0
C615 C 0.2635 0.00053 0.28341 0.0
C616 C 0.00485 0.74939 0.74367 0.0
C617 C 0.01863 0.7654 0.71527 0.0
H618 H 0.96756 0.73617 0.76525 0.0
C619 C 0.00464 0.78263 0.68898 0.0
H620 H 0.01504 0.736 0.7645 0.0
C621 C 0.97747 0.78276 0.68946 0.0
C622 C 0.96365 0.76563 0.71618 0.0
H623 H 0.01465 0.7954 0.66697 0.0
H624 H 0.96733 0.79562 0.66778 0.0
C625 C 0.97762 0.74949 0.7441 0.0
C626 C 0.24512 0.98147 0.74416 0.0
C627 C 0.26228 0.96639 0.71956 0.0
H628 H 0.23176 0.02054 0.76132 0.0
C629 C 0.28059 0.97991 0.69477 0.0
H630 H 0.23085 0.97167 0.7637 0.0
C631 C 0.28104 0.00783 0.69329 0.0
C632 C 0.26328 0.02292 0.7167 0.0
H633 H 0.29419 0.96893 0.67557 0.0
H634 H 0.295 0.01756 0.67309 0.0
C635 C 0.24565 0.00948 0.74279 0.0
C636 C 0.00952 0.21575 0.6948 0.0
C637 C 0.02349 0.23637 0.71442 0.0
H638 H 0.97219 0.19961 0.6796 0.0
C639 C 0.00977 0.25562 0.73744 0.0
H640 H 0.0195 0.20047 0.67709 0.0
C641 C 0.98257 0.25511 0.7389 0.0
C642 C 0.96857 0.23534 0.71737 0.0
H643 H 0.01996 0.27167 0.75312 0.0
H644 H 0.97254 0.2708 0.75565 0.0
C645 C 0.98237 0.21524 0.69627 0.0
C646 C 0.72272 0.00805 0.71526 0.0
C647 C 0.70177 0.01951 0.69356 0.0
H648 H 0.74233 0.97202 0.73318 0.0
C649 C 0.68328 0.00258 0.67509 0.0
H650 H 0.73724 0.02056 0.73 0.0
C651 C 0.68627 0.97481 0.67671 0.0
C652 C 0.70773 0.96335 0.69708 0.0
H653 H 0.66687 0.01076 0.65824 0.0
H654 H 0.67204 0.96235 0.66119 0.0
C655 C 0.72562 0.98023 0.71712 0.0
C656 C 0.50968 0.7068 0.8108 0.0
C657 C 0.52328 0.72145 0.78053 0.0
H658 H 0.47269 0.69592 0.83601 0.0
C659 C 0.50911 0.73468 0.74938 0.0
H660 H 0.51998 0.69618 0.83505 0.0
C661 C 0.48188 0.73451 0.74992 0.0
C662 C 0.46832 0.72114 0.78164 0.0
H663 H 0.51901 0.74604 0.72549 0.0
H664 H 0.4715 0.74574 0.72642 0.0
C665 C 0.48252 0.70666 0.81136 0.0
C666 C 0.22834 0.4865 0.7765 0.0
C667 C 0.20654 0.47502 0.79601 0.0
H668 H 0.24864 0.52256 0.76063 0.0
C669 C 0.18737 0.49195 0.81265 0.0
H670 H 0.24341 0.47399 0.76323 0.0
C671 C 0.19044 0.51973 0.81139 0.0
C672 C 0.21267 0.53121 0.79319 0.0
H673 H 0.17029 0.48378 0.8278 0.0
H674 H 0.17561 0.53217 0.82545 0.0
C675 C 0.23133 0.51433 0.77498 0.0
C676 C 0.4784 0.2352 0.75847 0.0
C677 C 0.46401 0.25307 0.78309 0.0
H678 H 0.51616 0.22144 0.7402 0.0
C679 C 0.47734 0.27282 0.80569 0.0
H680 H 0.46872 0.21983 0.74052 0.0
C681 C 0.50451 0.2738 0.8054 0.0
C682 C 0.51897 0.25498 0.78262 0.0
H683 H 0.46684 0.28704 0.82471 0.0
H684 H 0.51416 0.28871 0.82428 0.0
C685 C 0.50562 0.23612 0.7583 0.0
C686 C 0.79808 0.47083 0.82329 0.0
C687 C 0.7763 0.46067 0.80217 0.0
H688 H 0.81943 0.50553 0.84192 0.0
C689 C 0.75988 0.47854 0.781 0.0
H690 H 0.81123 0.45757 0.83966 0.0
C691 C 0.76455 0.50613 0.78241 0.0
C692 C 0.78581 0.51634 0.8048 0.0
H693 H 0.74299 0.47133 0.76431 0.0
H694 H 0.75112 0.51947 0.76678 0.0
C695 C 0.80283 0.49835 0.82448 0.0
C696 C 0.47128 0.27546 0.1929 0.0
C697 C 0.45751 0.25716 0.21777 0.0
H698 H 0.50843 0.28925 0.17197 0.0
C699 C 0.47151 0.23997 0.2441 0.0
H700 H 0.46111 0.28914 0.17248 0.0
C701 C 0.49874 0.24007 0.24385 0.0
C702 C 0.51248 0.25733 0.21721 0.0
H703 H 0.46149 0.22574 0.26382 0.0
H704 H 0.50897 0.2259 0.26337 0.0
C705 C 0.49845 0.27552 0.19258 0.0
C706 C 0.76017 0.50652 0.22283 0.0
C707 C 0.77888 0.52257 0.20296 0.0
H708 H 0.74668 0.46676 0.23554 0.0
C709 C 0.79995 0.51015 0.18291 0.0
H710 H 0.74374 0.51548 0.23864 0.0
C711 C 0.80173 0.48226 0.18139 0.0
C712 C 0.78237 0.46619 0.19958 0.0
H713 H 0.8148 0.52196 0.16755 0.0
H714 H 0.81784 0.47334 0.16473 0.0
C715 C 0.76184 0.47859 0.22102 0.0
C716 C 0.48723 0.7048 0.19598 0.0
C717 C 0.47345 0.72229 0.22207 0.0
H718 H 0.52435 0.69215 0.17341 0.0
C719 C 0.48748 0.73915 0.24884 0.0
H720 H 0.47704 0.69139 0.1752 0.0
C721 C 0.5147 0.7396 0.2478 0.0
C722 C 0.52841 0.7232 0.21997 0.0
H723 H 0.47745 0.75277 0.26949 0.0
H724 H 0.52492 0.75354 0.26769 0.0
C725 C 0.51439 0.70525 0.19494 0.0
C726 C 0.18498 0.47383 0.17472 0.0
C727 C 0.20643 0.46201 0.19465 0.0
H728 H 0.16605 0.5101 0.15654 0.0
C729 C 0.22477 0.47859 0.21426 0.0
H730 H 0.17041 0.4616 0.15953 0.0
C731 C 0.22232 0.50645 0.21237 0.0
C732 C 0.2014 0.51826 0.19107 0.0
H733 H 0.24147 0.4701 0.22997 0.0
H734 H 0.23718 0.51871 0.22676 0.0
C735 C 0.18245 0.50165 0.17307 0.0
C736 C 0.09779 0.24147 0.47422 0.0
C737 C 0.12107 0.23913 0.4516 0.0
H738 H 0.07987 0.24329 0.53393 0.0
C739 C 0.14484 0.23861 0.4731 0.0
H740 H 0.07915 0.24212 0.4586 0.0
C741 C 0.14526 0.23924 0.5164 0.0
C742 C 0.12191 0.24049 0.53905 0.0
H743 H 0.16313 0.23693 0.45659 0.0
H744 H 0.16386 0.23803 0.53208 0.0
C745 C 0.09821 0.24218 0.51745 0.0
C746 C 0.69264 0.09764 0.53611 0.0
C747 C 0.71146 0.11616 0.54953 0.0
H748 H 0.67292 0.0799 0.48458 0.0
C749 C 0.72432 0.13203 0.51992 0.0
H750 H 0.68233 0.08513 0.55813 0.0
C751 C 0.71892 0.12902 0.47777 0.0
C752 C 0.70053 0.11008 0.46426 0.0
H753 H 0.73887 0.14653 0.52919 0.0
H754 H 0.72949 0.14129 0.45575 0.0
C755 C 0.68723 0.09464 0.49393 0.0
C756 C 0.88928 0.75025 0.47778 0.0
C757 C 0.86606 0.75157 0.45486 0.0
H758 H 0.90702 0.75046 0.53767 0.0
C759 C 0.84221 0.7525 0.47617 0.0
H760 H 0.90799 0.74934 0.46234 0.0
C761 C 0.84165 0.75316 0.51945 0.0
C762 C 0.86492 0.75286 0.54231 0.0
H763 H 0.82396 0.75342 0.45944 0.0
H764 H 0.82298 0.7546 0.53491 0.0
C765 C 0.88872 0.75085 0.52102 0.0
C766 C 0.26655 0.85056 0.52134 0.0
C767 C 0.28044 0.8658 0.55046 0.0
H768 H 0.26016 0.84172 0.45735 0.0
C769 C 0.30014 0.88316 0.53643 0.0
H770 H 0.25129 0.83697 0.53111 0.0
C771 C 0.30527 0.88585 0.49411 0.0
C772 C 0.29076 0.87132 0.46491 0.0
H773 H 0.31129 0.89511 0.55807 0.0
H774 H 0.32021 0.89981 0.48429 0.0
C775 C 0.27162 0.85333 0.47902 0.0
C776 C 0.14366 0.75313 0.47457 0.0
C777 C 0.12041 0.75181 0.45172 0.0
H778 H 0.1613 0.75517 0.53452 0.0
C779 C 0.09664 0.74982 0.47311 0.0
H780 H 0.16231 0.75458 0.45905 0.0
C781 C 0.09605 0.75025 0.51636 0.0
C782 C 0.11923 0.7526 0.53919 0.0
H783 H 0.07837 0.74868 0.45647 0.0
H784 H 0.07736 0.74935 0.53184 0.0
C785 C 0.14308 0.75347 0.51786 0.0
C786 C 0.26005 0.12308 0.48248 0.0
C787 C 0.27248 0.10657 0.45335 0.0
H788 H 0.25424 0.13241 0.54641 0.0
C789 C 0.28988 0.08683 0.46749 0.0
H790 H 0.24658 0.13852 0.47267 0.0
C791 C 0.29428 0.08329 0.50991 0.0
C792 C 0.2814 0.09944 0.53905 0.0
H793 H 0.29981 0.07379 0.44585 0.0
H794 H 0.3075 0.06765 0.51982 0.0
C795 C 0.26445 0.11956 0.52482 0.0
C796 C 0.84342 0.22326 0.4831 0.0
C797 C 0.86597 0.22905 0.4601 0.0
H798 H 0.82617 0.21937 0.5431 0.0
C799 C 0.88868 0.23681 0.48119 0.0
H800 H 0.82556 0.21736 0.46779 0.0
C801 C 0.88906 0.23785 0.52446 0.0
C802 C 0.86669 0.23132 0.54748 0.0
H803 H 0.90637 0.24146 0.46437 0.0
H804 H 0.90702 0.24333 0.53985 0.0
C805 C 0.84375 0.22446 0.52631 0.0
C806 C 0.7175 0.86356 0.51535 0.0
C807 C 0.69958 0.88305 0.52859 0.0
H808 H 0.7374 0.84558 0.46428 0.0
C809 C 0.68703 0.89897 0.49876 0.0
H810 H 0.72749 0.85091 0.53751 0.0
C811 C 0.69273 0.8959 0.45667 0.0
C812 C 0.71112 0.87685 0.44356 0.0
H813 H 0.67309 0.91414 0.5079 0.0
H814 H 0.68302 0.90879 0.43451 0.0
C815 C 0.7232 0.86051 0.47332 0.0
C816 C 0.60193 0.7384 0.021 0.0
C817 C 0.62575 0.73678 0.04225 0.0
H818 H 0.58262 0.73942 0.96237 0.0
C819 C 0.64903 0.73682 0.01933 0.0
H820 H 0.58363 0.73854 0.0377 0.0
C821 C 0.64844 0.73734 0.97604 0.0
C822 C 0.62457 0.7378 0.9548 0.0
H823 H 0.66772 0.7357 0.03475 0.0
H824 H 0.6667 0.73662 0.95927 0.0
C825 C 0.60134 0.73887 0.97777 0.0
C826 C 0.18876 0.59432 0.99082 0.0
C827 C 0.20182 0.61035 0.96162 0.0
H828 H 0.184 0.58395 0.05474 0.0
C829 C 0.2199 0.62943 0.97571 0.0
H830 H 0.17468 0.57947 0.98103 0.0
C831 C 0.22525 0.63199 0.01794 0.0
C832 C 0.21264 0.61555 0.04708 0.0
H833 H 0.23028 0.64214 0.95406 0.0
H834 H 0.23958 0.64662 0.02765 0.0
C835 C 0.19411 0.5969 0.0331 0.0
C836 C 0.33668 0.24656 0.02052 0.0
C837 C 0.35976 0.246 0.04388 0.0
H838 H 0.31951 0.24724 0.96013 0.0
C839 C 0.38372 0.24392 0.02308 0.0
H840 H 0.31789 0.24806 0.03558 0.0
C841 C 0.38465 0.24354 0.97984 0.0
C842 C 0.36164 0.24515 0.95644 0.0
H843 H 0.40187 0.24334 0.04012 0.0
H844 H 0.40348 0.24259 0.96479 0.0
C845 C 0.33761 0.2461 0.97724 0.0
C846 C 0.76089 0.35285 0.02492 0.0
C847 C 0.77271 0.36942 0.05461 0.0
H848 H 0.75603 0.34385 0.96063 0.0
C849 C 0.79026 0.38928 0.04129 0.0
H850 H 0.74731 0.33734 0.03412 0.0
C851 C 0.79531 0.39298 -0.00087 0.0
C852 C 0.78286 0.37696 0.96936 0.0
H853 H 0.79977 0.40233 0.06339 0.0
H854 H 0.80856 0.40878 0.98988 0.0
C855 C 0.76587 0.35662 0.98275 0.0
C856 C 0.63851 0.25051 0.02198 0.0
C857 C 0.61447 0.24902 0.04268 0.0
H858 H 0.6583 0.25285 0.96372 0.0
C859 C 0.59155 0.24679 0.01919 0.0
H860 H 0.65655 0.25212 0.03916 0.0
C861 C 0.59255 0.24712 0.97595 0.0
C862 C 0.6165 0.24977 0.95524 0.0
H863 H 0.57271 0.24543 0.03416 0.0
H864 H 0.57446 0.24608 0.95882 0.0
C865 C 0.63952 0.25091 0.97871 0.0
C866 C 0.77387 0.62382 0.0204 0.0
C867 C 0.79137 0.60389 0.03351 0.0
H868 H 0.75486 0.64291 0.96939 0.0
C869 C 0.80414 0.58831 0.00352 0.0
H870 H 0.76373 0.63624 0.04268 0.0
C871 C 0.79904 0.59216 0.96138 0.0
C872 C 0.78104 0.61166 0.94837 0.0
H873 H 0.81777 0.57283 0.01256 0.0
H874 H 0.80887 0.57951 0.93907 0.0
C875 C 0.76877 0.62766 0.97833 0.0
C876 C 0.39357 0.73365 0.98243 0.0
C877 C 0.37033 0.7278 0.96132 0.0
H878 H 0.41257 0.73773 0.04106 0.0
C879 C 0.34759 0.72299 0.98437 0.0
H880 H 0.41143 0.7375 0.96557 0.0
C881 C 0.34822 0.72325 0.02763 0.0
C882 C 0.37165 0.72815 0.04875 0.0
H883 H 0.32934 0.71855 0.96905 0.0
H884 H 0.33045 0.71893 0.04445 0.0
C885 C 0.39424 0.73373 0.0257 0.0
C886 C 0.19369 0.39768 0.95396 0.0
C887 C 0.21159 0.3781 0.94094 0.0
H888 H 0.17395 0.41599 0.00501 0.0
C889 C 0.22262 0.36093 0.97063 0.0
H890 H 0.18479 0.4112 0.93185 0.0
C891 C 0.21638 0.36366 0.01252 0.0
C892 C 0.19897 0.38364 0.02569 0.0
H893 H 0.2364 0.34559 0.96165 0.0
H894 H 0.22557 0.35036 0.03464 0.0
C895 C 0.18746 0.40043 0.99591 0.0
C896 C 0.1438 0.31648 0.22081 0.0
C897 C 0.14778 0.3418 0.23874 0.0
H898 H 0.12817 0.27706 0.22803 0.0
C899 C 0.13689 0.34716 0.27781 0.0
H900 H 0.15185 0.3117 0.1907 0.0
C901 C 0.12317 0.32727 0.29918 0.0
C902 C 0.12025 0.30159 0.28201 0.0
H903 H 0.13951 0.36651 0.29237 0.0
H904 H 0.11558 0.33178 0.32969 0.0
C905 C 0.13028 0.29657 0.24228 0.0
C906 C 0.62849 0.19006 0.2493 0.0
C907 C 0.61885 0.18455 0.20949 0.0
H908 H 0.65126 0.17641 0.30049 0.0
C909 C 0.62386 0.1594 0.19172 0.0
H910 H 0.62482 0.20919 0.264 0.0
C911 C 0.63916 0.14057 0.21264 0.0
C912 C 0.6496 0.1465 0.25181 0.0
H913 H 0.61664 0.15452 0.16113 0.0
H914 H 0.6433 0.12165 0.19766 0.0
C915 C 0.64363 0.17123 0.27028 0.0
C916 C 0.84322 0.66715 0.22892 0.0
C917 C 0.83707 0.64296 0.24899 0.0
H918 H 0.86063 0.70591 0.23367 0.0
C919 C 0.84586 0.63882 0.28973 0.0
H920 H 0.83683 0.67097 0.19749 0.0
C921 C 0.85967 0.65889 0.31047 0.0
C922 C 0.86476 0.68352 0.29095 0.0
H923 H 0.84154 0.62035 0.30598 0.0
H924 H 0.86561 0.65539 0.3422 0.0
C925 C 0.85682 0.68724 0.24971 0.0
C926 C 0.3588 0.79266 0.25252 0.0
C927 C 0.36801 0.79711 0.21211 0.0
H928 H 0.33666 0.80769 0.30344 0.0
C929 C 0.36291 0.82183 0.19288 0.0
H930 H 0.36255 0.7739 0.26834 0.0
C931 C 0.34793 0.84125 0.21302 0.0
C932 C 0.33788 0.83634 0.25283 0.0
H933 H 0.3698 0.8259 0.16179 0.0
H934 H 0.34369 0.85981 0.19697 0.0
C935 C 0.34397 0.81207 0.27269 0.0
C936 C 0.14169 0.64434 0.70953 0.0
C937 C 0.15211 0.6499 0.74884 0.0
H938 H 0.11973 0.65899 0.65788 0.0
C939 C 0.14665 0.67471 0.76741 0.0
H940 H 0.14544 0.62535 0.69447 0.0
C941 C 0.13206 0.69399 0.7464 0.0
C942 C 0.12246 0.68884 0.70644 0.0
H943 H 0.15429 0.67962 0.79773 0.0
H944 H 0.12879 0.71317 0.76117 0.0
C945 C 0.12693 0.6636 0.68858 0.0
C946 C 0.33855 0.13434 0.79236 0.0
C947 C 0.32897 0.13892 0.7522 0.0
H948 H 0.35989 0.1501 0.84385 0.0
C949 C 0.33532 0.16303 0.73203 0.0
H950 H 0.3341 0.11593 0.80867 0.0
C951 C 0.34991 0.18263 0.75224 0.0
C952 C 0.35866 0.1785 0.79297 0.0
H953 H 0.32834 0.16718 0.70103 0.0
H954 H 0.35386 0.20127 0.73619 0.0
C955 C 0.35335 0.15392 0.8125 0.0
C956 C 0.85147 0.32687 0.69095 0.0
C957 C 0.85838 0.30269 0.71035 0.0
H958 H 0.83087 0.36402 0.69586 0.0
C959 C 0.85079 0.2983 0.75163 0.0
H960 H 0.85708 0.33088 0.6592 0.0
C961 C 0.83588 0.31728 0.77264 0.0
C962 C 0.82813 0.34104 0.75279 0.0
H963 H 0.85594 0.27995 0.76758 0.0
H964 H 0.82992 0.31299 0.80414 0.0
C965 C 0.83643 0.34585 0.71196 0.0
C966 C 0.64618 0.81829 0.72465 0.0
C967 C 0.65108 0.84328 0.74308 0.0
H968 H 0.62982 0.77917 0.73151 0.0
C969 C 0.64107 0.84842 0.78281 0.0
H970 H 0.65351 0.81369 0.69401 0.0
C971 C 0.62734 0.82858 0.80432 0.0
C972 C 0.62353 0.80319 0.78658 0.0
H973 H 0.6444 0.86752 0.79778 0.0
H974 H 0.62049 0.83288 0.83533 0.0
C975 C 0.63263 0.79845 0.74621 0.0
C976 C 0.84878 0.67019 0.70841 0.0
C977 C 0.85224 0.69714 0.71979 0.0
H978 H 0.8307 0.6326 0.72265 0.0
C979 C 0.8403 0.70652 0.75616 0.0
H980 H 0.85773 0.66233 0.68059 0.0
C981 C 0.82483 0.68953 0.78016 0.0
C982 C 0.82093 0.66274 0.76842 0.0
H983 H 0.84258 0.72714 0.7659 0.0
H984 H 0.81567 0.69756 0.80771 0.0
C985 C 0.83328 0.65316 0.7325 0.0
C986 C 0.32953 0.80862 0.80112 0.0
C987 C 0.35014 0.79252 0.78706 0.0
H988 H 0.30203 0.83936 0.78656 0.0
C989 C 0.35968 0.79639 0.74667 0.0
H990 H 0.32175 0.80621 0.83209 0.0
C991 C 0.34838 0.81546 0.72054 0.0
C992 C 0.32728 0.83104 0.73423 0.0
H993 H 0.37561 0.78436 0.73494 0.0
H994 H 0.35588 0.81761 0.68935 0.0
C995 C 0.31821 0.82765 0.77499 0.0
C996 C 0.14409 0.32465 0.70165 0.0
C997 C 0.13911 0.29807 0.71376 0.0
H998 H 0.16417 0.36127 0.715 0.0
C999 C 0.15053 0.28832 0.75035 0.0
H1000 H 0.13559 0.33277 0.67363 0.0
C1001 C 0.16689 0.30458 0.77392 0.0
C1002 C 0.17222 0.33101 0.76155 0.0
H1003 H 0.1471 0.26795 0.76064 0.0
H1004 H 0.17554 0.29628 0.80171 0.0
C1005 C 0.16047 0.34097 0.72534 0.0
C1006 C 0.65718 0.1531 0.76569 0.0
C1007 C 0.66879 0.16347 0.72962 0.0
H1008 H 0.63229 0.1606 0.81765 0.0
C1009 C 0.66322 0.18994 0.71777 0.0
H1010 H 0.66105 0.13276 0.77564 0.0
C1011 C 0.64672 0.20584 0.74174 0.0
C1012 C 0.63543 0.19567 0.7782 0.0
H1013 H 0.67177 0.19853 0.6901 0.0
H1014 H 0.6431 0.22625 0.73189 0.0
C1015 C 0.64068 0.16905 0.78976 0.0
C1016 C 0.84119 0.31672 0.22155 0.0
C1017 C 0.81934 0.33097 0.23571 0.0
H1018 H 0.86959 0.28648 0.23467 0.0
C1019 C 0.81002 0.32602 0.27594 0.0
H1020 H 0.84888 0.32009 0.19074 0.0
C1021 C 0.82187 0.30679 0.30108 0.0
C1022 C 0.84331 0.29205 0.28658 0.0
H1023 H 0.79326 0.33668 0.28788 0.0
H1024 H 0.81391 0.30321 0.33166 0.0
C1025 C 0.85306 0.29745 0.24672 0.0
C1026 C 0.65219 0.78302 0.25396 0.0
C1027 C 0.63975 0.79233 0.21796 0.0
H1028 H 0.67749 0.79209 0.30454 0.0
C1029 C 0.64307 0.81924 0.20618 0.0
H1030 H 0.65004 0.76241 0.26399 0.0
C1031 C 0.65889 0.83633 0.22955 0.0
C1032 C 0.6717 0.82682 0.26512 0.0
H1033 H 0.63374 0.82704 0.17862 0.0
H1034 H 0.66132 0.85687 0.21942 0.0
C1035 C 0.66798 0.80005 0.27724 0.0
C1036 C 0.14373 0.66859 0.28919 0.0
C1037 C 0.13623 0.69417 0.27538 0.0
H1038 H 0.16533 0.63287 0.27628 0.0
C1039 C 0.14442 0.70285 0.23604 0.0
H1040 H 0.13774 0.66129 0.31933 0.0
C1041 C 0.16024 0.68662 0.21145 0.0
C1042 C 0.16823 0.6613 0.22558 0.0
H1043 H 0.13896 0.72242 0.22439 0.0
H1044 H 0.16646 0.69412 0.18154 0.0
C1045 C 0.15957 0.65231 0.26452 0.0
C1046 C 0.32734 0.14731 0.23831 0.0
C1047 C 0.31391 0.15757 0.27277 0.0
H1048 H 0.35277 0.15564 0.18727 0.0
C1049 C 0.31682 0.18479 0.28278 0.0
H1050 H 0.32553 0.12641 0.22979 0.0
C1051 C 0.33241 0.20149 0.2585 0.0
C1052 C 0.34546 0.19139 0.22357 0.0
H1053 H 0.30681 0.19334 0.30917 0.0
H1054 H 0.33394 0.22244 0.26687 0.0
C1055 C 0.34295 0.16406 0.21393 0.0
loop_
_geom_bond_atom_site_label_1
_geom_bond_atom_site_label_2
_geom_bond_distance
_geom_bond_site_symmetry_2
_ccdc_geom_bond_type
C0 O1 1.160 . S
C0 O7 1.185 . S
O1 C0 1.160 . S
O2 Zn3 1.899 . S
O2 C10 1.284 . S
Zn3 O2 1.899 . S
Zn3 O4 2.032 . S
Zn3 O7 2.086 . S
Zn3 O12 1.977 . S
O4 Zn3 2.032 . S
O4 C8 1.278 . S
C5 O6 1.203 . S
C5 O12 1.267 . S
O6 C5 1.203 . S
O7 C0 1.185 . S
O7 Zn3 2.086 . S
C8 O4 1.278 . S
C8 O9 1.211 . S
O9 C8 1.211 . S
C10 O2 1.284 . S
C10 O11 1.273 . S
O11 C10 1.273 . S
O12 Zn3 1.977 . S
O12 C5 1.267 . S
C13 O14 1.160 . S
C13 O20 1.185 . S
O14 C13 1.160 . S
O15 Zn16 1.899 . S
O15 C23 1.284 . S
Zn16 O15 1.899 . S
Zn16 O17 2.032 . S
Zn16 O20 2.086 . S
Zn16 O25 1.977 . S
O17 Zn16 2.032 . S
O17 C21 1.278 . S
C18 O19 1.203 . S
C18 O25 1.267 . S
O19 C18 1.203 . S
O20 C13 1.185 . S
O20 Zn16 2.086 . S
C21 O17 1.278 . S
C21 O22 1.211 . S
O22 C21 1.211 . S
C23 O15 1.284 . S
C23 O24 1.273 . S
O24 C23 1.273 . S
O25 Zn16 1.977 . S
O25 C18 1.267 . S
C26 O27 1.160 . S
C26 O33 1.185 . S
O27 C26 1.160 . S
O28 Zn29 1.899 . S
O28 C36 1.284 . S
Zn29 O28 1.899 . S
Zn29 O30 2.032 . S
Zn29 O33 2.086 . S
Zn29 O38 1.977 . S
O30 Zn29 2.032 . S
O30 C34 1.278 . S
C31 O32 1.203 . S
C31 O38 1.267 . S
O32 C31 1.203 . S
O33 C26 1.185 . S
O33 Zn29 2.086 . S
C34 O30 1.278 . S
C34 O35 1.211 . S
O35 C34 1.211 . S
C36 O28 1.284 . S
C36 O37 1.273 . S
O37 C36 1.273 . S
O38 Zn29 1.977 . S
O38 C31 1.267 . S
C39 O40 1.160 . S
C39 O46 1.185 . S
O40 C39 1.160 . S
O41 Zn42 1.899 . S
O41 C49 1.284 . S
Zn42 O41 1.899 . S
Zn42 O43 2.032 . S
Zn42 O46 2.086 . S
Zn42 O51 1.977 . S
O43 Zn42 2.032 . S
O43 C47 1.278 . S
C44 O45 1.203 . S
C44 O51 1.267 . S
O45 C44 1.203 . S
O46 C39 1.185 . S
O46 Zn42 2.086 . S
C47 O43 1.278 . S
C47 O48 1.211 . S
O48 C47 1.211 . S
C49 O41 1.284 . S
C49 O50 1.273 . S
O50 C49 1.273 . S
O51 Zn42 1.977 . S
O51 C44 1.267 . S
C52 O53 1.160 . S
C52 O59 1.185 . S
O53 C52 1.160 . S
O54 Zn55 1.899 . S
O54 C62 1.284 . S
Zn55 O54 1.899 . S
Zn55 O56 2.032 . S
Zn55 O59 2.086 . S
Zn55 O64 1.977 . S
O56 Zn55 2.032 . S
O56 C60 1.278 . S
C57 O58 1.203 . S
C57 O64 1.267 . S
O58 C57 1.203 . S
O59 C52 1.185 . S
O59 Zn55 2.086 . S
C60 O56 1.278 . S
C60 O61 1.211 . S
O61 C60 1.211 . S
C62 O54 1.284 . S
C62 O63 1.273 . S
O63 C62 1.273 . S
O64 Zn55 1.977 . S
O64 C57 1.267 . S
C65 O66 1.160 . S
C65 O72 1.185 . S
O66 C65 1.160 . S
O67 Zn68 1.899 . S
O67 C75 1.284 . S
Zn68 O67 1.899 . S
Zn68 O69 2.032 . S
Zn68 O72 2.086 . S
Zn68 O77 1.977 . S
O69 Zn68 2.032 . S
O69 C73 1.278 . S
C70 O71 1.203 . S
C70 O77 1.267 . S
O71 C70 1.203 . S
O72 C65 1.185 . S
O72 Zn68 2.086 . S
C73 O69 1.278 . S
C73 O74 1.211 . S
O74 C73 1.211 . S
C75 O67 1.284 . S
C75 O76 1.273 . S
O76 C75 1.273 . S
O77 Zn68 1.977 . S
O77 C70 1.267 . S
C78 O79 1.160 . S
C78 O85 1.185 . S
O79 C78 1.160 . S
O80 Zn81 1.899 . S
O80 C88 1.284 . S
Zn81 O80 1.899 . S
Zn81 O82 2.032 . S
Zn81 O85 2.086 . S
Zn81 O90 1.977 . S
O82 Zn81 2.032 . S
O82 C86 1.278 . S
C83 O84 1.203 . S
C83 O90 1.267 . S
O84 C83 1.203 . S
O85 C78 1.185 . S
O85 Zn81 2.086 . S
C86 O82 1.278 . S
C86 O87 1.211 . S
O87 C86 1.211 . S
C88 O80 1.284 . S
C88 O89 1.273 . S
O89 C88 1.273 . S
O90 Zn81 1.977 . S
O90 C83 1.267 . S
C91 O92 1.160 . S
C91 O98 1.185 . S
O92 C91 1.160 . S
O93 Zn94 1.899 . S
O93 C101 1.284 . S
Zn94 O93 1.899 . S
Zn94 O95 2.032 . S
Zn94 O98 2.086 . S
Zn94 O103 1.977 . S
O95 Zn94 2.032 . S
O95 C99 1.278 . S
C96 O97 1.203 . S
C96 O103 1.267 . S
O97 C96 1.203 . S
O98 C91 1.185 . S
O98 Zn94 2.086 . S
C99 O95 1.278 . S
C99 O100 1.211 . S
O100 C99 1.211 . S
C101 O93 1.284 . S
C101 O102 1.273 . S
O102 C101 1.273 . S
O103 Zn94 1.977 . S
O103 C96 1.267 . S
C104 O105 1.160 . S
C104 O111 1.185 . S
O105 C104 1.160 . S
O106 Zn107 1.899 . S
O106 C114 1.284 . S
Zn107 O106 1.899 . S
Zn107 O108 2.032 . S
Zn107 O111 2.086 . S
Zn107 O116 1.977 . S
O108 Zn107 2.032 . S
O108 C112 1.278 . S
C109 O110 1.203 . S
C109 O116 1.267 . S
O110 C109 1.203 . S
O111 C104 1.185 . S
O111 Zn107 2.086 . S
C112 O108 1.278 . S
C112 O113 1.211 . S
O113 C112 1.211 . S
C114 O106 1.284 . S
C114 O115 1.273 . S
O115 C114 1.273 . S
O116 Zn107 1.977 . S
O116 C109 1.267 . S
C117 O118 1.160 . S
C117 O124 1.185 . S
O118 C117 1.160 . S
O119 Zn120 1.899 . S
O119 C127 1.284 . S
Zn120 O119 1.899 . S
Zn120 O121 2.032 . S
Zn120 O124 2.086 . S
Zn120 O129 1.977 . S
O121 Zn120 2.032 . S
O121 C125 1.278 . S
C122 O123 1.203 . S
C122 O129 1.267 . S
O123 C122 1.203 . S
O124 C117 1.185 . S
O124 Zn120 2.086 . S
C125 O121 1.278 . S
C125 O126 1.211 . S
O126 C125 1.211 . S
C127 O119 1.284 . S
C127 O128 1.273 . S
O128 C127 1.273 . S
O129 Zn120 1.977 . S
O129 C122 1.267 . S
C130 O131 1.160 . S
C130 O137 1.185 . S
O131 C130 1.160 . S
O132 Zn133 1.899 . S
O132 C140 1.284 . S
Zn133 O132 1.899 . S
Zn133 O134 2.032 . S
Zn133 O137 2.086 . S
Zn133 O142 1.977 . S
O134 Zn133 2.032 . S
O134 C138 1.278 . S
C135 O136 1.203 . S
C135 O142 1.267 . S
O136 C135 1.203 . S
O137 C130 1.185 . S
O137 Zn133 2.086 . S
C138 O134 1.278 . S
C138 O139 1.211 . S
O139 C138 1.211 . S
C140 O132 1.284 . S
C140 O141 1.273 . S
O141 C140 1.273 . S
O142 Zn133 1.977 . S
O142 C135 1.267 . S
C143 O144 1.160 . S
C143 O150 1.185 . S
O144 C143 1.160 . S
O145 Zn146 1.899 . S
O145 C153 1.284 . S
Zn146 O145 1.899 . S
Zn146 O147 2.032 . S
Zn146 O150 2.086 . S
Zn146 O155 1.977 . S
O147 Zn146 2.032 . S
O147 C151 1.278 . S
C148 O149 1.203 . S
C148 O155 1.267 . S
O149 C148 1.203 . S
O150 C143 1.185 . S
O150 Zn146 2.086 . S
C151 O147 1.278 . S
C151 O152 1.211 . S
O152 C151 1.211 . S
C153 O145 1.284 . S
C153 O154 1.273 . S
O154 C153 1.273 . S
O155 Zn146 1.977 . S
O155 C148 1.267 . S
C156 O157 1.160 . S
C156 O163 1.185 . S
O157 C156 1.160 . S
O158 Zn159 1.899 . S
O158 C166 1.284 . S
Zn159 O158 1.899 . S
Zn159 O160 2.032 . S
Zn159 O163 2.086 . S
Zn159 O168 1.977 . S
O160 Zn159 2.032 . S
O160 C164 1.278 . S
C161 O162 1.203 . S
C161 O168 1.267 . S
O162 C161 1.203 . S
O163 C156 1.185 . S
O163 Zn159 2.086 . S
C164 O160 1.278 . S
C164 O165 1.211 . S
O165 C164 1.211 . S
C166 O158 1.284 . S
C166 O167 1.273 . S
O167 C166 1.273 . S
O168 Zn159 1.977 . S
O168 C161 1.267 . S
C169 O170 1.160 . S
C169 O176 1.185 . S
O170 C169 1.160 . S
O171 Zn172 1.899 . S
O171 C179 1.284 . S
Zn172 O171 1.899 . S
Zn172 O173 2.032 . S
Zn172 O176 2.086 . S
Zn172 O181 1.977 . S
O173 Zn172 2.032 . S
O173 C177 1.278 . S
C174 O175 1.203 . S
C174 O181 1.267 . S
O175 C174 1.203 . S
O176 C169 1.185 . S
O176 Zn172 2.086 . S
C177 O173 1.278 . S
C177 O178 1.211 . S
O178 C177 1.211 . S
C179 O171 1.284 . S
C179 O180 1.273 . S
O180 C179 1.273 . S
O181 Zn172 1.977 . S
O181 C174 1.267 . S
C182 O183 1.160 . S
C182 O189 1.185 . S
O183 C182 1.160 . S
O184 Zn185 1.899 . S
O184 C192 1.284 . S
Zn185 O184 1.899 . S
Zn185 O186 2.032 . S
Zn185 O189 2.086 . S
Zn185 O194 1.977 . S
O186 Zn185 2.032 . S
O186 C190 1.278 . S
C187 O188 1.203 . S
C187 O194 1.267 . S
O188 C187 1.203 . S
O189 C182 1.185 . S
O189 Zn185 2.086 . S
C190 O186 1.278 . S
C190 O191 1.211 . S
O191 C190 1.211 . S
C192 O184 1.284 . S
C192 O193 1.273 . S
O193 C192 1.273 . S
O194 Zn185 1.977 . S
O194 C187 1.267 . S
C195 O196 1.160 . S
C195 O202 1.185 . S
O196 C195 1.160 . S
O197 Zn198 1.899 . S
O197 C205 1.284 . S
Zn198 O197 1.899 . S
Zn198 O199 2.032 . S
Zn198 O202 2.086 . S
Zn198 O207 1.977 . S
O199 Zn198 2.032 . S
O199 C203 1.278 . S
C200 O201 1.203 . S
C200 O207 1.267 . S
O201 C200 1.203 . S
O202 C195 1.185 . S
O202 Zn198 2.086 . S
C203 O199 1.278 . S
C203 O204 1.211 . S
O204 C203 1.211 . S
C205 O197 1.284 . S
C205 O206 1.273 . S
O206 C205 1.273 . S
O207 Zn198 1.977 . S
O207 C200 1.267 . S
C208 O209 1.160 . S
C208 O215 1.185 . S
O209 C208 1.160 . S
O210 Zn211 1.899 . S
O210 C218 1.284 . S
Zn211 O210 1.899 . S
Zn211 O212 2.032 . S
Zn211 O215 2.086 . S
Zn211 O220 1.977 . S
O212 Zn211 2.032 . S
O212 C216 1.278 . S
C213 O214 1.203 . S
C213 O220 1.267 . S
O214 C213 1.203 . S
O215 C208 1.185 . S
O215 Zn211 2.086 . S
C216 O212 1.278 . S
C216 O217 1.211 . S
O217 C216 1.211 . S
C218 O210 1.284 . S
C218 O219 1.273 . S
O219 C218 1.273 . S
O220 Zn211 1.977 . S
O220 C213 1.267 . S
C221 O222 1.160 . S
C221 O228 1.185 . S
O222 C221 1.160 . S
O223 Zn224 1.899 . S
O223 C231 1.284 . S
Zn224 O223 1.899 . S
Zn224 O225 2.032 . S
Zn224 O228 2.086 . S
Zn224 O233 1.977 . S
O225 Zn224 2.032 . S
O225 C229 1.278 . S
C226 O227 1.203 . S
C226 O233 1.267 . S
O227 C226 1.203 . S
O228 C221 1.185 . S
O228 Zn224 2.086 . S
C229 O225 1.278 . S
C229 O230 1.211 . S
O230 C229 1.211 . S
C231 O223 1.284 . S
C231 O232 1.273 . S
O232 C231 1.273 . S
O233 Zn224 1.977 . S
O233 C226 1.267 . S
C234 O235 1.160 . S
C234 O241 1.185 . S
O235 C234 1.160 . S
O236 Zn237 1.899 . S
O236 C244 1.284 . S
Zn237 O236 1.899 . S
Zn237 O238 2.032 . S
Zn237 O241 2.086 . S
Zn237 O246 1.977 . S
O238 Zn237 2.032 . S
O238 C242 1.278 . S
C239 O240 1.203 . S
C239 O246 1.267 . S
O240 C239 1.203 . S
O241 C234 1.185 . S
O241 Zn237 2.086 . S
C242 O238 1.278 . S
C242 O243 1.211 . S
O243 C242 1.211 . S
C244 O236 1.284 . S
C244 O245 1.273 . S
O245 C244 1.273 . S
O246 Zn237 1.977 . S
O246 C239 1.267 . S
C247 O248 1.160 . S
C247 O254 1.185 . S
O248 C247 1.160 . S
O249 Zn250 1.899 . S
O249 C257 1.284 . S
Zn250 O249 1.899 . S
Zn250 O251 2.032 . S
Zn250 O254 2.086 . S
Zn250 O259 1.977 . S
O251 Zn250 2.032 . S
O251 C255 1.278 . S
C252 O253 1.203 . S
C252 O259 1.267 . S
O253 C252 1.203 . S
O254 C247 1.185 . S
O254 Zn250 2.086 . S
C255 O251 1.278 . S
C255 O256 1.211 . S
O256 C255 1.211 . S
C257 O249 1.284 . S
C257 O258 1.273 . S
O258 C257 1.273 . S
O259 Zn250 1.977 . S
O259 C252 1.267 . S
C260 O261 1.160 . S
C260 O267 1.185 . S
O261 C260 1.160 . S
O262 Zn263 1.899 . S
O262 C270 1.284 . S
Zn263 O262 1.899 . S
Zn263 O264 2.032 . S
Zn263 O267 2.086 . S
Zn263 O272 1.977 . S
O264 Zn263 2.032 . S
O264 C268 1.278 . S
C265 O266 1.203 . S
C265 O272 1.267 . S
O266 C265 1.203 . S
O267 C260 1.185 . S
O267 Zn263 2.086 . S
C268 O264 1.278 . S
C268 O269 1.211 . S
O269 C268 1.211 . S
C270 O262 1.284 . S
C270 O271 1.273 . S
O271 C270 1.273 . S
O272 Zn263 1.977 . S
O272 C265 1.267 . S
C273 O274 1.160 . S
C273 O280 1.185 . S
O274 C273 1.160 . S
O275 Zn276 1.899 . S
O275 C283 1.284 . S
Zn276 O275 1.899 . S
Zn276 O277 2.032 . S
Zn276 O280 2.086 . S
Zn276 O285 1.977 . S
O277 Zn276 2.032 . S
O277 C281 1.278 . S
C278 O279 1.203 . S
C278 O285 1.267 . S
O279 C278 1.203 . S
O280 C273 1.185 . S
O280 Zn276 2.086 . S
C281 O277 1.278 . S
C281 O282 1.211 . S
O282 C281 1.211 . S
C283 O275 1.284 . S
C283 O284 1.273 . S
O284 C283 1.273 . S
O285 Zn276 1.977 . S
O285 C278 1.267 . S
C286 O287 1.160 . S
C286 O293 1.185 . S
O287 C286 1.160 . S
O288 Zn289 1.899 . S
O288 C296 1.284 . S
Zn289 O288 1.899 . S
Zn289 O290 2.032 . S
Zn289 O293 2.086 . S
Zn289 O298 1.977 . S
O290 Zn289 2.032 . S
O290 C294 1.278 . S
C291 O292 1.203 . S
C291 O298 1.267 . S
O292 C291 1.203 . S
O293 C286 1.185 . S
O293 Zn289 2.086 . S
C294 O290 1.278 . S
C294 O295 1.211 . S
O295 C294 1.211 . S
C296 O288 1.284 . S
C296 O297 1.273 . S
O297 C296 1.273 . S
O298 Zn289 1.977 . S
O298 C291 1.267 . S
C299 O300 1.160 . S
C299 O306 1.185 . S
O300 C299 1.160 . S
O301 Zn302 1.899 . S
O301 C309 1.284 . S
Zn302 O301 1.899 . S
Zn302 O303 2.032 . S
Zn302 O306 2.086 . S
Zn302 O311 1.977 . S
O303 Zn302 2.032 . S
O303 C307 1.278 . S
C304 O305 1.203 . S
C304 O311 1.267 . S
O305 C304 1.203 . S
O306 C299 1.185 . S
O306 Zn302 2.086 . S
C307 O303 1.278 . S
C307 O308 1.211 . S
O308 C307 1.211 . S
C309 O301 1.284 . S
C309 O310 1.273 . S
O310 C309 1.273 . S
O311 Zn302 1.977 . S
O311 C304 1.267 . S
C312 O313 1.160 . S
C312 O319 1.185 . S
O313 C312 1.160 . S
O314 Zn315 1.899 . S
O314 C322 1.284 . S
Zn315 O314 1.899 . S
Zn315 O316 2.032 . S
Zn315 O319 2.086 . S
Zn315 O324 1.977 . S
O316 Zn315 2.032 . S
O316 C320 1.278 . S
C317 O318 1.203 . S
C317 O324 1.267 . S
O318 C317 1.203 . S
O319 C312 1.185 . S
O319 Zn315 2.086 . S
C320 O316 1.278 . S
C320 O321 1.211 . S
O321 C320 1.211 . S
C322 O314 1.284 . S
C322 O323 1.273 . S
O323 C322 1.273 . S
O324 Zn315 1.977 . S
O324 C317 1.267 . S
C325 O326 1.160 . S
C325 O332 1.185 . S
O326 C325 1.160 . S
O327 Zn328 1.899 . S
O327 C335 1.284 . S
Zn328 O327 1.899 . S
Zn328 O329 2.032 . S
Zn328 O332 2.086 . S
Zn328 O337 1.977 . S
O329 Zn328 2.032 . S
O329 C333 1.278 . S
C330 O331 1.203 . S
C330 O337 1.267 . S
O331 C330 1.203 . S
O332 C325 1.185 . S
O332 Zn328 2.086 . S
C333 O329 1.278 . S
C333 O334 1.211 . S
O334 C333 1.211 . S
C335 O327 1.284 . S
C335 O336 1.273 . S
O336 C335 1.273 . S
O337 Zn328 1.977 . S
O337 C330 1.267 . S
C338 O339 1.160 . S
C338 O345 1.185 . S
O339 C338 1.160 . S
O340 Zn341 1.899 . S
O340 C348 1.284 . S
Zn341 O340 1.899 . S
Zn341 O342 2.032 . S
Zn341 O345 2.086 . S
Zn341 O350 1.977 . S
O342 Zn341 2.032 . S
O342 C346 1.278 . S
C343 O344 1.203 . S
C343 O350 1.267 . S
O344 C343 1.203 . S
O345 C338 1.185 . S
O345 Zn341 2.086 . S
C346 O342 1.278 . S
C346 O347 1.211 . S
O347 C346 1.211 . S
C348 O340 1.284 . S
C348 O349 1.273 . S
O349 C348 1.273 . S
O350 Zn341 1.977 . S
O350 C343 1.267 . S
C351 O352 1.160 . S
C351 O358 1.185 . S
O352 C351 1.160 . S
O353 Zn354 1.899 . S
O353 C361 1.284 . S
Zn354 O353 1.899 . S
Zn354 O355 2.032 . S
Zn354 O358 2.086 . S
Zn354 O363 1.977 . S
O355 Zn354 2.032 . S
O355 C359 1.278 . S
C356 O357 1.203 . S
C356 O363 1.267 . S
O357 C356 1.203 . S
O358 C351 1.185 . S
O358 Zn354 2.086 . S
C359 O355 1.278 . S
C359 O360 1.211 . S
O360 C359 1.211 . S
C361 O353 1.284 . S
C361 O362 1.273 . S
O362 C361 1.273 . S
O363 Zn354 1.977 . S
O363 C356 1.267 . S
C364 O365 1.160 . S
C364 O371 1.185 . S
O365 C364 1.160 . S
O366 Zn367 1.899 . S
O366 C374 1.284 . S
Zn367 O366 1.899 . S
Zn367 O368 2.032 . S
Zn367 O371 2.086 . S
Zn367 O376 1.977 . S
O368 Zn367 2.032 . S
O368 C372 1.278 . S
C369 O370 1.203 . S
C369 O376 1.267 . S
O370 C369 1.203 . S
O371 C364 1.185 . S
O371 Zn367 2.086 . S
C372 O368 1.278 . S
C372 O373 1.211 . S
O373 C372 1.211 . S
C374 O366 1.284 . S
C374 O375 1.273 . S
O375 C374 1.273 . S
O376 Zn367 1.977 . S
O376 C369 1.267 . S
C377 O378 1.160 . S
C377 O384 1.185 . S
O378 C377 1.160 . S
O379 Zn380 1.899 . S
O379 C387 1.284 . S
Zn380 O379 1.899 . S
Zn380 O381 2.032 . S
Zn380 O384 2.086 . S
Zn380 O389 1.977 . S
O381 Zn380 2.032 . S
O381 C385 1.278 . S
C382 O383 1.203 . S
C382 O389 1.267 . S
O383 C382 1.203 . S
O384 C377 1.185 . S
O384 Zn380 2.086 . S
C385 O381 1.278 . S
C385 O386 1.211 . S
O386 C385 1.211 . S
C387 O379 1.284 . S
C387 O388 1.273 . S
O388 C387 1.273 . S
O389 Zn380 1.977 . S
O389 C382 1.267 . S
C390 O391 1.160 . S
C390 O397 1.185 . S
O391 C390 1.160 . S
O392 Zn393 1.899 . S
O392 C400 1.284 . S
Zn393 O392 1.899 . S
Zn393 O394 2.032 . S
Zn393 O397 2.086 . S
Zn393 O402 1.977 . S
O394 Zn393 2.032 . S
O394 C398 1.278 . S
C395 O396 1.203 . S
C395 O402 1.267 . S
O396 C395 1.203 . S
O397 C390 1.185 . S
O397 Zn393 2.086 . S
C398 O394 1.278 . S
C398 O399 1.211 . S
O399 C398 1.211 . S
C400 O392 1.284 . S
C400 O401 1.273 . S
O401 C400 1.273 . S
O402 Zn393 1.977 . S
O402 C395 1.267 . S
C403 O404 1.160 . S
C403 O410 1.185 . S
O404 C403 1.160 . S
O405 Zn406 1.899 . S
O405 C413 1.284 . S
Zn406 O405 1.899 . S
Zn406 O407 2.032 . S
Zn406 O410 2.086 . S
Zn406 O415 1.977 . S
O407 Zn406 2.032 . S
O407 C411 1.278 . S
C408 O409 1.203 . S
C408 O415 1.267 . S
O409 C408 1.203 . S
O410 C403 1.185 . S
O410 Zn406 2.086 . S
C411 O407 1.278 . S
C411 O412 1.211 . S
O412 C411 1.211 . S
C413 O405 1.284 . S
C413 O414 1.273 . S
O414 C413 1.273 . S
O415 Zn406 1.977 . S
O415 C408 1.267 . S
C416 C417 1.387 . S
C416 H420 0.950 . S
C416 C425 1.390 . S
C417 C416 1.387 . S
C417 C419 1.387 . S
H418 C425 0.950 . S
C419 C417 1.387 . S
C419 C421 1.390 . S
C419 H423 0.950 . S
H420 C416 0.950 . S
C421 C419 1.390 . S
C421 C422 1.387 . S
C421 H424 0.950 . S
C422 C421 1.387 . S
C422 C425 1.387 . S
H423 C419 0.950 . S
H424 C421 0.950 . S
C425 C416 1.390 . S
C425 H418 0.950 . S
C425 C422 1.387 . S
C426 C427 1.387 . S
C426 H430 0.950 . S
C426 C435 1.390 . S
C427 C426 1.387 . S
C427 C429 1.387 . S
H428 C435 0.950 . S
C429 C427 1.387 . S
C429 C431 1.390 . S
C429 H433 0.950 . S
H430 C426 0.950 . S
C431 C429 1.390 . S
C431 C432 1.387 . S
C431 H434 0.950 . S
C432 C431 1.387 . S
C432 C435 1.387 . S
H433 C429 0.950 . S
H434 C431 0.950 . S
C435 C426 1.390 . S
C435 H428 0.950 . S
C435 C432 1.387 . S
C436 C437 1.387 . S
C436 H440 0.950 . S
C436 C445 1.390 . S
C437 C436 1.387 . S
C437 C439 1.387 . S
H438 C445 0.950 . S
C439 C437 1.387 . S
C439 C441 1.390 . S
C439 H443 0.950 . S
H440 C436 0.950 . S
C441 C439 1.390 . S
C441 C442 1.387 . S
C441 H444 0.950 . S
C442 C441 1.387 . S
C442 C445 1.387 . S
H443 C439 0.950 . S
H444 C441 0.950 . S
C445 C436 1.390 . S
C445 H438 0.950 . S
C445 C442 1.387 . S
C446 C447 1.387 . S
C446 H450 0.950 . S
C446 C455 1.390 . S
C447 C446 1.387 . S
C447 C449 1.387 . S
H448 C455 0.950 . S
C449 C447 1.387 . S
C449 C451 1.390 . S
C449 H453 0.950 . S
H450 C446 0.950 . S
C451 C449 1.390 . S
C451 C452 1.387 . S
C451 H454 0.950 . S
C452 C451 1.387 . S
C452 C455 1.387 . S
H453 C449 0.950 . S
H454 C451 0.950 . S
C455 C446 1.390 . S
C455 H448 0.950 . S
C455 C452 1.387 . S
C456 C457 1.387 . S
C456 H460 0.950 . S
C456 C465 1.390 . S
C457 C456 1.387 . S
C457 C459 1.387 . S
H458 C465 0.950 . S
C459 C457 1.387 . S
C459 C461 1.390 . S
C459 H463 0.950 . S
H460 C456 0.950 . S
C461 C459 1.390 . S
C461 C462 1.387 . S
C461 H464 0.950 . S
C462 C461 1.387 . S
C462 C465 1.387 . S
H463 C459 0.950 . S
H464 C461 0.950 . S
C465 C456 1.390 . S
C465 H458 0.950 . S
C465 C462 1.387 . S
C466 C467 1.387 . S
C466 H470 0.950 . S
C466 C475 1.390 . S
C467 C466 1.387 . S
C467 C469 1.387 . S
H468 C475 0.950 . S
C469 C467 1.387 . S
C469 C471 1.390 . S
C469 H473 0.950 . S
H470 C466 0.950 . S
C471 C469 1.390 . S
C471 C472 1.387 . S
C471 H474 0.950 . S
C472 C471 1.387 . S
C472 C475 1.387 . S
H473 C469 0.950 . S
H474 C471 0.950 . S
C475 C466 1.390 . S
C475 H468 0.950 . S
C475 C472 1.387 . S
C476 C477 1.387 . S
C476 H480 0.950 . S
C476 C485 1.390 . S
C477 C476 1.387 . S
C477 C479 1.387 . S
H478 C485 0.950 . S
C479 C477 1.387 . S
C479 C481 1.390 . S
C479 H483 0.950 . S
H480 C476 0.950 . S
C481 C479 1.390 . S
C481 C482 1.387 . S
C481 H484 0.950 . S
C482 C481 1.387 . S
C482 C485 1.387 . S
H483 C479 0.950 . S
H484 C481 0.950 . S
C485 C476 1.390 . S
C485 H478 0.950 . S
C485 C482 1.387 . S
C486 C487 1.387 . S
C486 H490 0.950 . S
C486 C495 1.390 . S
C487 C486 1.387 . S
C487 C489 1.387 . S
H488 C495 0.950 . S
C489 C487 1.387 . S
C489 C491 1.390 . S
C489 H493 0.950 . S
H490 C486 0.950 . S
C491 C489 1.390 . S
C491 C492 1.387 . S
C491 H494 0.950 . S
C492 C491 1.387 . S
C492 C495 1.387 . S
H493 C489 0.950 . S
H494 C491 0.950 . S
C495 C486 1.390 . S
C495 H488 0.950 . S
C495 C492 1.387 . S
C496 C497 1.387 . S
C496 H500 0.950 . S
C496 C505 1.390 . S
C497 C496 1.387 . S
C497 C499 1.387 . S
H498 C505 0.950 . S
C499 C497 1.387 . S
C499 C501 1.390 . S
C499 H503 0.950 . S
H500 C496 0.950 . S
C501 C499 1.390 . S
C501 C502 1.387 . S
C501 H504 0.950 . S
C502 C501 1.387 . S
C502 C505 1.387 . S
H503 C499 0.950 . S
H504 C501 0.950 . S
C505 C496 1.390 . S
C505 H498 0.950 . S
C505 C502 1.387 . S
C506 C507 1.387 . S
C506 H510 0.950 . S
C506 C515 1.390 . S
C507 C506 1.387 . S
C507 C509 1.387 . S
H508 C515 0.950 . S
C509 C507 1.387 . S
C509 C511 1.390 . S
C509 H513 0.950 . S
H510 C506 0.950 . S
C511 C509 1.390 . S
C511 C512 1.387 . S
C511 H514 0.950 . S
C512 C511 1.387 . S
C512 C515 1.387 . S
H513 C509 0.950 . S
H514 C511 0.950 . S
C515 C506 1.390 . S
C515 H508 0.950 . S
C515 C512 1.387 . S
C516 C517 1.387 . S
C516 H520 0.950 . S
C516 C525 1.390 . S
C517 C516 1.387 . S
C517 C519 1.387 . S
H518 C525 0.950 . S
C519 C517 1.387 . S
C519 C521 1.390 . S
C519 H523 0.950 . S
H520 C516 0.950 . S
C521 C519 1.390 . S
C521 C522 1.387 . S
C521 H524 0.950 . S
C522 C521 1.387 . S
C522 C525 1.387 . S
H523 C519 0.950 . S
H524 C521 0.950 . S
C525 C516 1.390 . S
C525 H518 0.950 . S
C525 C522 1.387 . S
C526 C527 1.387 . S
C526 H530 0.950 . S
C526 C535 1.390 . S
C527 C526 1.387 . S
C527 C529 1.387 . S
H528 C535 0.950 . S
C529 C527 1.387 . S
C529 C531 1.390 . S
C529 H533 0.950 . S
H530 C526 0.950 . S
C531 C529 1.390 . S
C531 C532 1.387 . S
C531 H534 0.950 . S
C532 C531 1.387 . S
C532 C535 1.387 . S
H533 C529 0.950 . S
H534 C531 0.950 . S
C535 C526 1.390 . S
C535 H528 0.950 . S
C535 C532 1.387 . S
C536 C537 1.387 . S
C536 H540 0.950 . S
C536 C545 1.390 . S
C537 C536 1.387 . S
C537 C539 1.387 . S
H538 C545 0.950 . S
C539 C537 1.387 . S
C539 C541 1.390 . S
C539 H543 0.950 . S
H540 C536 0.950 . S
C541 C539 1.390 . S
C541 C542 1.387 . S
C541 H544 0.950 . S
C542 C541 1.387 . S
C542 C545 1.387 . S
H543 C539 0.950 . S
H544 C541 0.950 . S
C545 C536 1.390 . S
C545 H538 0.950 . S
C545 C542 1.387 . S
C546 C547 1.387 . S
C546 H550 0.950 . S
C546 C555 1.390 . S
C547 C546 1.387 . S
C547 C549 1.387 . S
H548 C555 0.950 . S
C549 C547 1.387 . S
C549 C551 1.390 . S
C549 H553 0.950 . S
H550 C546 0.950 . S
C551 C549 1.390 . S
C551 C552 1.387 . S
C551 H554 0.950 . S
C552 C551 1.387 . S
C552 C555 1.387 . S
H553 C549 0.950 . S
H554 C551 0.950 . S
C555 C546 1.390 . S
C555 H548 0.950 . S
C555 C552 1.387 . S
C556 C557 1.387 . S
C556 H560 0.950 . S
C556 C565 1.390 . S
C557 C556 1.387 . S
C557 C559 1.387 . S
H558 C565 0.950 . S
C559 C557 1.387 . S
C559 C561 1.390 . S
C559 H563 0.950 . S
H560 C556 0.950 . S
C561 C559 1.390 . S
C561 C562 1.387 . S
C561 H564 0.950 . S
C562 C561 1.387 . S
C562 C565 1.387 . S
H563 C559 0.950 . S
H564 C561 0.950 . S
C565 C556 1.390 . S
C565 H558 0.950 . S
C565 C562 1.387 . S
C566 C567 1.387 . S
C566 H570 0.950 . S
C566 C575 1.390 . S
C567 C566 1.387 . S
C567 C569 1.387 . S
H568 C575 0.950 . S
C569 C567 1.387 . S
C569 C571 1.390 . S
C569 H573 0.950 . S
H570 C566 0.950 . S
C571 C569 1.390 . S
C571 C572 1.387 . S
C571 H574 0.950 . S
C572 C571 1.387 . S
C572 C575 1.387 . S
H573 C569 0.950 . S
H574 C571 0.950 . S
C575 C566 1.390 . S
C575 H568 0.950 . S
C575 C572 1.387 . S
C576 C577 1.387 . S
C576 H580 0.950 . S
C576 C585 1.390 1_655 S
C577 C576 1.387 . S
C577 C579 1.387 . S
H578 C585 0.950 . S
C579 C577 1.387 . S
C579 C581 1.390 1_655 S
C579 H583 0.950 . S
H580 C576 0.950 . S
C581 C579 1.390 1_455 S
C581 C582 1.387 . S
C581 H584 0.950 . S
C582 C581 1.387 . S
C582 C585 1.387 . S
H583 C579 0.950 . S
H584 C581 0.950 . S
C585 C576 1.390 1_455 S
C585 H578 0.950 . S
C585 C582 1.387 . S
C586 C587 1.387 . S
C586 H590 0.950 . S
C586 C595 1.390 1_545 S
C587 C586 1.387 . S
C587 C589 1.387 . S
H588 C595 0.950 . S
C589 C587 1.387 . S
C589 C591 1.390 1_545 S
C589 H593 0.950 . S
H590 C586 0.950 . S
C591 C589 1.390 1_565 S
C591 C592 1.387 . S
C591 H594 0.950 . S
C592 C591 1.387 . S
C592 C595 1.387 . S
H593 C589 0.950 . S
H594 C591 0.950 . S
C595 C586 1.390 1_565 S
C595 H588 0.950 . S
C595 C592 1.387 . S
C596 C597 1.387 . S
C596 H600 0.950 . S
C596 C605 1.390 1_455 S
C597 C596 1.387 . S
C597 C599 1.387 . S
H598 C605 0.950 . S
C599 C597 1.387 . S
C599 C601 1.390 1_455 S
C599 H603 0.950 . S
H600 C596 0.950 . S
C601 C599 1.390 1_655 S
C601 C602 1.387 . S
C601 H604 0.950 . S
C602 C601 1.387 . S
C602 C605 1.387 . S
H603 C599 0.950 . S
H604 C601 0.950 . S
C605 C596 1.390 1_655 S
C605 H598 0.950 . S
C605 C602 1.387 . S
C606 C607 1.387 . S
C606 H610 0.950 . S
C606 C615 1.390 1_565 S
C607 C606 1.387 . S
C607 C609 1.387 . S
H608 C615 0.950 . S
C609 C607 1.387 . S
C609 C611 1.390 1_565 S
C609 H613 0.950 . S
H610 C606 0.950 . S
C611 C609 1.390 1_545 S
C611 C612 1.387 . S
C611 H614 0.950 . S
C612 C611 1.387 . S
C612 C615 1.387 . S
H613 C609 0.950 . S
H614 C611 0.950 . S
C615 C606 1.390 1_545 S
C615 H608 0.950 . S
C615 C612 1.387 . S
C616 C617 1.387 . S
C616 H620 0.950 . S
C616 C625 1.390 1_455 S
C617 C616 1.387 . S
C617 C619 1.387 . S
H618 C625 0.950 . S
C619 C617 1.387 . S
C619 C621 1.390 1_455 S
C619 H623 0.950 . S
H620 C616 0.950 . S
C621 C619 1.390 1_655 S
C621 C622 1.387 . S
C621 H624 0.950 . S
C622 C621 1.387 . S
C622 C625 1.387 . S
H623 C619 0.950 . S
H624 C621 0.950 . S
C625 C616 1.390 1_655 S
C625 H618 0.950 . S
C625 C622 1.387 . S
C626 C627 1.387 . S
C626 H630 0.950 . S
C626 C635 1.390 1_565 S
C627 C626 1.387 . S
C627 C629 1.387 . S
H628 C635 0.950 . S
C629 C627 1.387 . S
C629 C631 1.390 1_565 S
C629 H633 0.950 . S
H630 C626 0.950 . S
C631 C629 1.390 1_545 S
C631 C632 1.387 . S
C631 H634 0.950 . S
C632 C631 1.387 . S
C632 C635 1.387 . S
H633 C629 0.950 . S
H634 C631 0.950 . S
C635 C626 1.390 1_545 S
C635 H628 0.950 . S
C635 C632 1.387 . S
C636 C637 1.387 . S
C636 H640 0.950 . S
C636 C645 1.390 1_455 S
C637 C636 1.387 . S
C637 C639 1.387 . S
H638 C645 0.950 . S
C639 C637 1.387 . S
C639 C641 1.390 1_455 S
C639 H643 0.950 . S
H640 C636 0.950 . S
C641 C639 1.390 1_655 S
C641 C642 1.387 . S
C641 H644 0.950 . S
C642 C641 1.387 . S
C642 C645 1.387 . S
H643 C639 0.950 . S
H644 C641 0.950 . S
C645 C636 1.390 1_655 S
C645 H638 0.950 . S
C645 C642 1.387 . S
C646 C647 1.387 . S
C646 H650 0.950 . S
C646 C655 1.390 1_545 S
C647 C646 1.387 . S
C647 C649 1.387 . S
H648 C655 0.950 . S
C649 C647 1.387 . S
C649 C651 1.390 1_545 S
C649 H653 0.950 . S
H650 C646 0.950 . S
C651 C649 1.390 1_565 S
C651 C652 1.387 . S
C651 H654 0.950 . S
C652 C651 1.387 . S
C652 C655 1.387 . S
H653 C649 0.950 . S
H654 C651 0.950 . S
C655 C646 1.390 1_565 S
C655 H648 0.950 . S
C655 C652 1.387 . S
C656 C657 1.387 . S
C656 H660 0.950 . S
C656 C665 1.390 . S
C657 C656 1.387 . S
C657 C659 1.387 . S
H658 C665 0.950 . S
C659 C657 1.387 . S
C659 C661 1.390 . S
C659 H663 0.950 . S
H660 C656 0.950 . S
C661 C659 1.390 . S
C661 C662 1.387 . S
C661 H664 0.950 . S
C662 C661 1.387 . S
C662 C665 1.387 . S
H663 C659 0.950 . S
H664 C661 0.950 . S
C665 C656 1.390 . S
C665 H658 0.950 . S
C665 C662 1.387 . S
C666 C667 1.387 . S
C666 H670 0.950 . S
C666 C675 1.390 . S
C667 C666 1.387 . S
C667 C669 1.387 . S
H668 C675 0.950 . S
C669 C667 1.387 . S
C669 C671 1.390 . S
C669 H673 0.950 . S
H670 C666 0.950 . S
C671 C669 1.390 . S
C671 C672 1.387 . S
C671 H674 0.950 . S
C672 C671 1.387 . S
C672 C675 1.387 . S
H673 C669 0.950 . S
H674 C671 0.950 . S
C675 C666 1.390 . S
C675 H668 0.950 . S
C675 C672 1.387 . S
C676 C677 1.387 . S
C676 H680 0.950 . S
C676 C685 1.390 . S
C677 C676 1.387 . S
C677 C679 1.387 . S
H678 C685 0.950 . S
C679 C677 1.387 . S
C679 C681 1.390 . S
C679 H683 0.950 . S
H680 C676 0.950 . S
C681 C679 1.390 . S
C681 C682 1.387 . S
C681 H684 0.950 . S
C682 C681 1.387 . S
C682 C685 1.387 . S
H683 C679 0.950 . S
H684 C681 0.950 . S
C685 C676 1.390 . S
C685 H678 0.950 . S
C685 C682 1.387 . S
C686 C687 1.387 . S
C686 H690 0.950 . S
C686 C695 1.390 . S
C687 C686 1.387 . S
C687 C689 1.387 . S
H688 C695 0.950 . S
C689 C687 1.387 . S
C689 C691 1.390 . S
C689 H693 0.950 . S
H690 C686 0.950 . S
C691 C689 1.390 . S
C691 C692 1.387 . S
C691 H694 0.950 . S
C692 C691 1.387 . S
C692 C695 1.387 . S
H693 C689 0.950 . S
H694 C691 0.950 . S
C695 C686 1.390 . S
C695 H688 0.950 . S
C695 C692 1.387 . S
C696 C697 1.387 . S
C696 H700 0.950 . S
C696 C705 1.390 . S
C697 C696 1.387 . S
C697 C699 1.387 . S
H698 C705 0.950 . S
C699 C697 1.387 . S
C699 C701 1.390 . S
C699 H703 0.950 . S
H700 C696 0.950 . S
C701 C699 1.390 . S
C701 C702 1.387 . S
C701 H704 0.950 . S
C702 C701 1.387 . S
C702 C705 1.387 . S
H703 C699 0.950 . S
H704 C701 0.950 . S
C705 C696 1.390 . S
C705 H698 0.950 . S
C705 C702 1.387 . S
C706 C707 1.387 . S
C706 H710 0.950 . S
C706 C715 1.390 . S
C707 C706 1.387 . S
C707 C709 1.387 . S
H708 C715 0.950 . S
C709 C707 1.387 . S
C709 C711 1.390 . S
C709 H713 0.950 . S
H710 C706 0.950 . S
C711 C709 1.390 . S
C711 C712 1.387 . S
C711 H714 0.950 . S
C712 C711 1.387 . S
C712 C715 1.387 . S
H713 C709 0.950 . S
H714 C711 0.950 . S
C715 C706 1.390 . S
C715 H708 0.950 . S
C715 C712 1.387 . S
C716 C717 1.387 . S
C716 H720 0.950 . S
C716 C725 1.390 . S
C717 C716 1.387 . S
C717 C719 1.387 . S
H718 C725 0.950 . S
C719 C717 1.387 . S
C719 C721 1.390 . S
C719 H723 0.950 . S
H720 C716 0.950 . S
C721 C719 1.390 . S
C721 C722 1.387 . S
C721 H724 0.950 . S
C722 C721 1.387 . S
C722 C725 1.387 . S
H723 C719 0.950 . S
H724 C721 0.950 . S
C725 C716 1.390 . S
C725 H718 0.950 . S
C725 C722 1.387 . S
C726 C727 1.387 . S
C726 H730 0.950 . S
C726 C735 1.390 . S
C727 C726 1.387 . S
C727 C729 1.387 . S
H728 C735 0.950 . S
C729 C727 1.387 . S
C729 C731 1.390 . S
C729 H733 0.950 . S
H730 C726 0.950 . S
C731 C729 1.390 . S
C731 C732 1.387 . S
C731 H734 0.950 . S
C732 C731 1.387 . S
C732 C735 1.387 . S
H733 C729 0.950 . S
H734 C731 0.950 . S
C735 C726 1.390 . S
C735 H728 0.950 . S
C735 C732 1.387 . S
C736 C737 1.387 . S
C736 H740 0.950 . S
C736 C745 1.390 . S
C737 C736 1.387 . S
C737 C739 1.387 . S
H738 C745 0.950 . S
C739 C737 1.387 . S
C739 C741 1.390 . S
C739 H743 0.950 . S
H740 C736 0.950 . S
C741 C739 1.390 . S
C741 C742 1.387 . S
C741 H744 0.950 . S
C742 C741 1.387 . S
C742 C745 1.387 . S
H743 C739 0.950 . S
H744 C741 0.950 . S
C745 C736 1.390 . S
C745 H738 0.950 . S
C745 C742 1.387 . S
C746 C747 1.387 . S
C746 H750 0.950 . S
C746 C755 1.390 . S
C747 C746 1.387 . S
C747 C749 1.387 . S
H748 C755 0.950 . S
C749 C747 1.387 . S
C749 C751 1.390 . S
C749 H753 0.950 . S
H750 C746 0.950 . S
C751 C749 1.390 . S
C751 C752 1.387 . S
C751 H754 0.950 . S
C752 C751 1.387 . S
C752 C755 1.387 . S
H753 C749 0.950 . S
H754 C751 0.950 . S
C755 C746 1.390 . S
C755 H748 0.950 . S
C755 C752 1.387 . S
C756 C757 1.387 . S
C756 H760 0.950 . S
C756 C765 1.390 . S
C757 C756 1.387 . S
C757 C759 1.387 . S
H758 C765 0.950 . S
C759 C757 1.387 . S
C759 C761 1.390 . S
C759 H763 0.950 . S
H760 C756 0.950 . S
C761 C759 1.390 . S
C761 C762 1.387 . S
C761 H764 0.950 . S
C762 C761 1.387 . S
C762 C765 1.387 . S
H763 C759 0.950 . S
H764 C761 0.950 . S
C765 C756 1.390 . S
C765 H758 0.950 . S
C765 C762 1.387 . S
C766 C767 1.387 . S
C766 H770 0.950 . S
C766 C775 1.390 . S
C767 C766 1.387 . S
C767 C769 1.387 . S
H768 C775 0.950 . S
C769 C767 1.387 . S
C769 C771 1.390 . S
C769 H773 0.950 . S
H770 C766 0.950 . S
C771 C769 1.390 . S
C771 C772 1.387 . S
C771 H774 0.950 . S
C772 C771 1.387 . S
C772 C775 1.387 . S
H773 C769 0.950 . S
H774 C771 0.950 . S
C775 C766 1.390 . S
C775 H768 0.950 . S
C775 C772 1.387 . S
C776 C777 1.387 . S
C776 H780 0.950 . S
C776 C785 1.390 . S
C777 C776 1.387 . S
C777 C779 1.387 . S
H778 C785 0.950 . S
C779 C777 1.387 . S
C779 C781 1.390 . S
C779 H783 0.950 . S
H780 C776 0.950 . S
C781 C779 1.390 . S
C781 C782 1.387 . S
C781 H784 0.950 . S
C782 C781 1.387 . S
C782 C785 1.387 . S
H783 C779 0.950 . S
H784 C781 0.950 . S
C785 C776 1.390 . S
C785 H778 0.950 . S
C785 C782 1.387 . S
C786 C787 1.387 . S
C786 H790 0.950 . S
C786 C795 1.390 . S
C787 C786 1.387 . S
C787 C789 1.387 . S
H788 C795 0.950 . S
C789 C787 1.387 . S
C789 C791 1.390 . S
C789 H793 0.950 . S
H790 C786 0.950 . S
C791 C789 1.390 . S
C791 C792 1.387 . S
C791 H794 0.950 . S
C792 C791 1.387 . S
C792 C795 1.387 . S
H793 C789 0.950 . S
H794 C791 0.950 . S
C795 C786 1.390 . S
C795 H788 0.950 . S
C795 C792 1.387 . S
C796 C797 1.387 . S
C796 H800 0.950 . S
C796 C805 1.390 . S
C797 C796 1.387 . S
C797 C799 1.387 . S
H798 C805 0.950 . S
C799 C797 1.387 . S
C799 C801 1.390 . S
C799 H803 0.950 . S
H800 C796 0.950 . S
C801 C799 1.390 . S
C801 C802 1.387 . S
C801 H804 0.950 . S
C802 C801 1.387 . S
C802 C805 1.387 . S
H803 C799 0.950 . S
H804 C801 0.950 . S
C805 C796 1.390 . S
C805 H798 0.950 . S
C805 C802 1.387 . S
C806 C807 1.387 . S
C806 H810 0.950 . S
C806 C815 1.390 . S
C807 C806 1.387 . S
C807 C809 1.387 . S
H808 C815 0.950 . S
C809 C807 1.387 . S
C809 C811 1.390 . S
C809 H813 0.950 . S
H810 C806 0.950 . S
C811 C809 1.390 . S
C811 C812 1.387 . S
C811 H814 0.950 . S
C812 C811 1.387 . S
C812 C815 1.387 . S
H813 C809 0.950 . S
H814 C811 0.950 . S
C815 C806 1.390 . S
C815 H808 0.950 . S
C815 C812 1.387 . S
C816 C817 1.387 . S
C816 H820 0.950 . S
C816 C825 1.390 1_554 S
C817 C816 1.387 . S
C817 C819 1.387 . S
H818 C825 0.950 . S
C819 C817 1.387 . S
C819 C821 1.390 1_554 S
C819 H823 0.950 . S
H820 C816 0.950 . S
C821 C819 1.390 1_556 S
C821 C822 1.387 . S
C821 H824 0.950 . S
C822 C821 1.387 . S
C822 C825 1.387 . S
H823 C819 0.950 . S
H824 C821 0.950 . S
C825 C816 1.390 1_556 S
C825 H818 0.950 . S
C825 C822 1.387 . S
C826 C827 1.387 . S
C826 H830 0.950 . S
C826 C835 1.390 1_556 S
C827 C826 1.387 . S
C827 C829 1.387 . S
H828 C835 0.950 . S
C829 C827 1.387 . S
C829 C831 1.390 1_556 S
C829 H833 0.950 . S
H830 C826 0.950 . S
C831 C829 1.390 1_554 S
C831 C832 1.387 . S
C831 H834 0.950 . S
C832 C831 1.387 . S
C832 C835 1.387 . S
H833 C829 0.950 . S
H834 C831 0.950 . S
C835 C826 1.390 1_554 S
C835 H828 0.950 . S
C835 C832 1.387 . S
C836 C837 1.387 . S
C836 H840 0.950 . S
C836 C845 1.390 1_554 S
C837 C836 1.387 . S
C837 C839 1.387 . S
H838 C845 0.950 . S
C839 C837 1.387 . S
C839 C841 1.390 1_554 S
C839 H843 0.950 . S
H840 C836 0.950 . S
C841 C839 1.390 1_556 S
C841 C842 1.387 . S
C841 H844 0.950 . S
C842 C841 1.387 . S
C842 C845 1.387 . S
H843 C839 0.950 . S
H844 C841 0.950 . S
C845 C836 1.390 1_556 S
C845 H838 0.950 . S
C845 C842 1.387 . S
C846 C847 1.387 . S
C846 H850 0.950 . S
C846 C855 1.390 1_554 S
C847 C846 1.387 . S
C847 C849 1.387 . S
H848 C855 0.950 . S
C849 C847 1.387 . S
C849 C851 1.390 1_554 S
C849 H853 0.950 . S
H850 C846 0.950 . S
C851 C849 1.390 1_556 S
C851 C852 1.387 . S
C851 H854 0.950 . S
C852 C851 1.387 . S
C852 C855 1.387 . S
H853 C849 0.950 . S
H854 C851 0.950 . S
C855 C846 1.390 1_556 S
C855 H848 0.950 . S
C855 C852 1.387 . S
C856 C857 1.387 . S
C856 H860 0.950 . S
C856 C865 1.390 1_554 S
C857 C856 1.387 . S
C857 C859 1.387 . S
H858 C865 0.950 . S
C859 C857 1.387 . S
C859 C861 1.390 1_554 S
C859 H863 0.950 . S
H860 C856 0.950 . S
C861 C859 1.390 1_556 S
C861 C862 1.387 . S
C861 H864 0.950 . S
C862 C861 1.387 . S
C862 C865 1.387 . S
H863 C859 0.950 . S
H864 C861 0.950 . S
C865 C856 1.390 1_556 S
C865 H858 0.950 . S
C865 C862 1.387 . S
C866 C867 1.387 . S
C866 H870 0.950 . S
C866 C875 1.390 1_554 S
C867 C866 1.387 . S
C867 C869 1.387 . S
H868 C875 0.950 . S
C869 C867 1.387 . S
C869 C871 1.390 1_554 S
C869 H873 0.950 . S
H870 C866 0.950 . S
C871 C869 1.390 1_556 S
C871 C872 1.387 . S
C871 H874 0.950 . S
C872 C871 1.387 . S
C872 C875 1.387 . S
H873 C869 0.950 . S
H874 C871 0.950 . S
C875 C866 1.390 1_556 S
C875 H868 0.950 . S
C875 C872 1.387 . S
C876 C877 1.387 . S
C876 H880 0.950 . S
C876 C885 1.390 1_556 S
C877 C876 1.387 . S
C877 C879 1.387 . S
H878 C885 0.950 . S
C879 C877 1.387 . S
C879 C881 1.390 1_556 S
C879 H883 0.950 . S
H880 C876 0.950 . S
C881 C879 1.390 1_554 S
C881 C882 1.387 . S
C881 H884 0.950 . S
C882 C881 1.387 . S
C882 C885 1.387 . S
H883 C879 0.950 . S
H884 C881 0.950 . S
C885 C876 1.390 1_554 S
C885 H878 0.950 . S
C885 C882 1.387 . S
C886 C887 1.387 . S
C886 H890 0.950 . S
C886 C895 1.390 1_556 S
C887 C886 1.387 . S
C887 C889 1.387 . S
H888 C895 0.950 . S
C889 C887 1.387 . S
C889 C891 1.390 1_556 S
C889 H893 0.950 . S
H890 C886 0.950 . S
C891 C889 1.390 1_554 S
C891 C892 1.387 . S
C891 H894 0.950 . S
C892 C891 1.387 . S
C892 C895 1.387 . S
H893 C889 0.950 . S
H894 C891 0.950 . S
C895 C886 1.390 1_554 S
C895 H888 0.950 . S
C895 C892 1.387 . S
C896 C897 1.387 . S
C896 H900 0.950 . S
C896 C905 1.390 . S
C897 C896 1.387 . S
C897 C899 1.387 . S
H898 C905 0.950 . S
C899 C897 1.387 . S
C899 C901 1.390 . S
C899 H903 0.950 . S
H900 C896 0.950 . S
C901 C899 1.390 . S
C901 C902 1.387 . S
C901 H904 0.950 . S
C902 C901 1.387 . S
C902 C905 1.387 . S
H903 C899 0.950 . S
H904 C901 0.950 . S
C905 C896 1.390 . S
C905 H898 0.950 . S
C905 C902 1.387 . S
C906 C907 1.387 . S
C906 H910 0.950 . S
C906 C915 1.390 . S
C907 C906 1.387 . S
C907 C909 1.387 . S
H908 C915 0.950 . S
C909 C907 1.387 . S
C909 C911 1.390 . S
C909 H913 0.950 . S
H910 C906 0.950 . S
C911 C909 1.390 . S
C911 C912 1.387 . S
C911 H914 0.950 . S
C912 C911 1.387 . S
C912 C915 1.387 . S
H913 C909 0.950 . S
H914 C911 0.950 . S
C915 C906 1.390 . S
C915 H908 0.950 . S
C915 C912 1.387 . S
C916 C917 1.387 . S
C916 H920 0.950 . S
C916 C925 1.390 . S
C917 C916 1.387 . S
C917 C919 1.387 . S
H918 C925 0.950 . S
C919 C917 1.387 . S
C919 C921 1.390 . S
C919 H923 0.950 . S
H920 C916 0.950 . S
C921 C919 1.390 . S
C921 C922 1.387 . S
C921 H924 0.950 . S
C922 C921 1.387 . S
C922 C925 1.387 . S
H923 C919 0.950 . S
H924 C921 0.950 . S
C925 C916 1.390 . S
C925 H918 0.950 . S
C925 C922 1.387 . S
C926 C927 1.387 . S
C926 H930 0.950 . S
C926 C935 1.390 . S
C927 C926 1.387 . S
C927 C929 1.387 . S
H928 C935 0.950 . S
C929 C927 1.387 . S
C929 C931 1.390 . S
C929 H933 0.950 . S
H930 C926 0.950 . S
C931 C929 1.390 . S
C931 C932 1.387 . S
C931 H934 0.950 . S
C932 C931 1.387 . S
C932 C935 1.387 . S
H933 C929 0.950 . S
H934 C931 0.950 . S
C935 C926 1.390 . S
C935 H928 0.950 . S
C935 C932 1.387 . S
C936 C937 1.387 . S
C936 H940 0.950 . S
C936 C945 1.390 . S
C937 C936 1.387 . S
C937 C939 1.387 . S
H938 C945 0.950 . S
C939 C937 1.387 . S
C939 C941 1.390 . S
C939 H943 0.950 . S
H940 C936 0.950 . S
C941 C939 1.390 . S
C941 C942 1.387 . S
C941 H944 0.950 . S
C942 C941 1.387 . S
C942 C945 1.387 . S
H943 C939 0.950 . S
H944 C941 0.950 . S
C945 C936 1.390 . S
C945 H938 0.950 . S
C945 C942 1.387 . S
C946 C947 1.387 . S
C946 H950 0.950 . S
C946 C955 1.390 . S
C947 C946 1.387 . S
C947 C949 1.387 . S
H948 C955 0.950 . S
C949 C947 1.387 . S
C949 C951 1.390 . S
C949 H953 0.950 . S
H950 C946 0.950 . S
C951 C949 1.390 . S
C951 C952 1.387 . S
C951 H954 0.950 . S
C952 C951 1.387 . S
C952 C955 1.387 . S
H953 C949 0.950 . S
H954 C951 0.950 . S
C955 C946 1.390 . S
C955 H948 0.950 . S
C955 C952 1.387 . S
C956 C957 1.387 . S
C956 H960 0.950 . S
C956 C965 1.390 . S
C957 C956 1.387 . S
C957 C959 1.387 . S
H958 C965 0.950 . S
C959 C957 1.387 . S
C959 C961 1.390 . S
C959 H963 0.950 . S
H960 C956 0.950 . S
C961 C959 1.390 . S
C961 C962 1.387 . S
C961 H964 0.950 . S
C962 C961 1.387 . S
C962 C965 1.387 . S
H963 C959 0.950 . S
H964 C961 0.950 . S
C965 C956 1.390 . S
C965 H958 0.950 . S
C965 C962 1.387 . S
C966 C967 1.387 . S
C966 H970 0.950 . S
C966 C975 1.390 . S
C967 C966 1.387 . S
C967 C969 1.387 . S
H968 C975 0.950 . S
C969 C967 1.387 . S
C969 C971 1.390 . S
C969 H973 0.950 . S
H970 C966 0.950 . S
C971 C969 1.390 . S
C971 C972 1.387 . S
C971 H974 0.950 . S
C972 C971 1.387 . S
C972 C975 1.387 . S
H973 C969 0.950 . S
H974 C971 0.950 . S
C975 C966 1.390 . S
C975 H968 0.950 . S
C975 C972 1.387 . S
C976 C977 1.387 . S
C976 H980 0.950 . S
C976 C985 1.390 . S
C977 C976 1.387 . S
C977 C979 1.387 . S
H978 C985 0.950 . S
C979 C977 1.387 . S
C979 C981 1.390 . S
C979 H983 0.950 . S
H980 C976 0.950 . S
C981 C979 1.390 . S
C981 C982 1.387 . S
C981 H984 0.950 . S
C982 C981 1.387 . S
C982 C985 1.387 . S
H983 C979 0.950 . S
H984 C981 0.950 . S
C985 C976 1.390 . S
C985 H978 0.950 . S
C985 C982 1.387 . S
C986 C987 1.387 . S
C986 H990 0.950 . S
C986 C995 1.390 . S
C987 C986 1.387 . S
C987 C989 1.387 . S
H988 C995 0.950 . S
C989 C987 1.387 . S
C989 C991 1.390 . S
C989 H993 0.950 . S
H990 C986 0.950 . S
C991 C989 1.390 . S
C991 C992 1.387 . S
C991 H994 0.950 . S
C992 C991 1.387 . S
C992 C995 1.387 . S
H993 C989 0.950 . S
H994 C991 0.950 . S
C995 C986 1.390 . S
C995 H988 0.950 . S
C995 C992 1.387 . S
C996 C997 1.387 . S
C996 H1000 0.950 . S
C996 C1005 1.390 . S
C997 C996 1.387 . S
C997 C999 1.387 . S
H998 C1005 0.950 . S
C999 C997 1.387 . S
C999 C1001 1.390 . S
C999 H1003 0.950 . S
H1000 C996 0.950 . S
C1001 C999 1.390 . S
C1001 C1002 1.387 . S
C1001 H1004 0.950 . S
C1002 C1001 1.387 . S
C1002 C1005 1.387 . S
H1003 C999 0.950 . S
H1004 C1001 0.950 . S
C1005 C996 1.390 . S
C1005 H998 0.950 . S
C1005 C1002 1.387 . S
C1006 C1007 1.387 . S
C1006 H1010 0.950 . S
C1006 C1015 1.390 . S
C1007 C1006 1.387 . S
C1007 C1009 1.387 . S
H1008 C1015 0.950 . S
C1009 C1007 1.387 . S
C1009 C1011 1.390 . S
C1009 H1013 0.950 . S
H1010 C1006 0.950 . S
C1011 C1009 1.390 . S
C1011 C1012 1.387 . S
C1011 H1014 0.950 . S
C1012 C1011 1.387 . S
C1012 C1015 1.387 . S
H1013 C1009 0.950 . S
H1014 C1011 0.950 . S
C1015 C1006 1.390 . S
C1015 H1008 0.950 . S
C1015 C1012 1.387 . S
C1016 C1017 1.387 . S
C1016 H1020 0.950 . S
C1016 C1025 1.390 . S
C1017 C1016 1.387 . S
C1017 C1019 1.387 . S
H1018 C1025 0.950 . S
C1019 C1017 1.387 . S
C1019 C1021 1.390 . S
C1019 H1023 0.950 . S
H1020 C1016 0.950 . S
C1021 C1019 1.390 . S
C1021 C1022 1.387 . S
C1021 H1024 0.950 . S
C1022 C1021 1.387 . S
C1022 C1025 1.387 . S
H1023 C1019 0.950 . S
H1024 C1021 0.950 . S
C1025 C1016 1.390 . S
C1025 H1018 0.950 . S
C1025 C1022 1.387 . S
C1026 C1027 1.387 . S
C1026 H1030 0.950 . S
C1026 C1035 1.390 . S
C1027 C1026 1.387 . S
C1027 C1029 1.387 . S
H1028 C1035 0.950 . S
C1029 C1027 1.387 . S
C1029 C1031 1.390 . S
C1029 H1033 0.950 . S
H1030 C1026 0.950 . S
C1031 C1029 1.390 . S
C1031 C1032 1.387 . S
C1031 H1034 0.950 . S
C1032 C1031 1.387 . S
C1032 C1035 1.387 . S
H1033 C1029 0.950 . S
H1034 C1031 0.950 . S
C1035 C1026 1.390 . S
C1035 H1028 0.950 . S
C1035 C1032 1.387 . S
C1036 C1037 1.387 . S
C1036 H1040 0.950 . S
C1036 C1045 1.390 . S
C1037 C1036 1.387 . S
C1037 C1039 1.387 . S
H1038 C1045 0.950 . S
C1039 C1037 1.387 . S
C1039 C1041 1.390 . S
C1039 H1043 0.950 . S
H1040 C1036 0.950 . S
C1041 C1039 1.390 . S
C1041 C1042 1.387 . S
C1041 H1044 0.950 . S
C1042 C1041 1.387 . S
C1042 C1045 1.387 . S
H1043 C1039 0.950 . S
H1044 C1041 0.950 . S
C1045 C1036 1.390 . S
C1045 H1038 0.950 . S
C1045 C1042 1.387 . S
C1046 C1047 1.387 . S
C1046 H1050 0.950 . S
C1046 C1055 1.390 . S
C1047 C1046 1.387 . S
C1047 C1049 1.387 . S
H1048 C1055 0.950 . S
C1049 C1047 1.387 . S
C1049 C1051 1.390 . S
C1049 H1053 0.950 . S
H1050 C1046 0.950 . S
C1051 C1049 1.390 . S
C1051 C1052 1.387 . S
C1051 H1054 0.950 . S
C1052 C1051 1.387 . S
C1052 C1055 1.387 . S
H1053 C1049 0.950 . S
H1054 C1051 0.950 . S
C1055 C1046 1.390 . S
C1055 H1048 0.950 . S
C1055 C1052 1.387 . S
C417 C200 1.344 . S
C422 C5 1.348 . S
C427 C21 1.398 . S
C432 C161 1.387 . S
C437 C31 1.347 . S
C442 C174 1.344 . S
C447 C187 1.387 . S
C452 C47 1.398 . S
C457 C57 1.348 . S
C462 C122 1.344 . S
C467 C73 1.398 . S
C472 C135 1.390 . S
C477 C148 1.344 . S
C482 C83 1.348 . S
C487 C109 1.390 . S
C492 C99 1.398 . S
C497 C213 1.344 . S
C502 C408 1.347 . S
C507 C229 1.398 . S
C512 C369 1.387 . S
C517 C239 1.344 . S
C522 C382 1.347 . S
C527 C395 1.387 . S
C532 C255 1.398 . S
C537 C265 1.347 . S
C542 C330 1.344 . S
C547 C281 1.397 . S
C552 C343 1.390 . S
C557 C356 1.347 . S
C562 C291 1.344 . S
C567 C307 1.398 . S
C572 C317 1.390 . S
C577 C156 1.259 . S
C582 C0 1.257 . S
C587 C23 1.245 . S
C592 C169 1.233 . S
C597 C182 1.258 . S
C602 C26 1.259 . S
C607 C49 1.244 . S
C612 C195 1.233 . S
C617 C52 1.259 . S
C622 C104 1.258 . S
C627 C117 1.235 . S
C632 C75 1.245 . S
C637 C130 1.260 . S
C642 C78 1.256 . S
C647 C143 1.233 . S
C652 C101 1.245 . S
C657 C208 1.257 . S
C662 C364 1.259 . S
C667 C377 1.233 . S
C672 C231 1.245 . S
C677 C234 1.258 . S
C682 C390 1.258 . S
C687 C257 1.245 . S
C692 C403 1.235 . S
C697 C312 1.260 . S
C702 C260 1.256 . S
C707 C283 1.245 . S
C712 C325 1.234 . S
C717 C286 1.257 . S
C722 C338 1.259 . S
C727 C309 1.244 . S
C732 C351 1.234 . S
C737 C8 1.451 . S
C742 C138 1.450 . S
C747 C151 1.431 . S
C752 C18 1.435 . S
C757 C34 1.451 . S
C762 C112 1.451 . S
C767 C125 1.433 . S
C772 C44 1.433 . S
C777 C190 1.451 . S
C782 C60 1.450 . S
C787 C203 1.433 . S
C792 C70 1.433 . S
C797 C164 1.453 . S
C802 C86 1.449 . S
C807 C96 1.433 . S
C812 C177 1.433 . S
C817 C346 1.451 . S
C822 C216 1.451 . S
C827 C226 1.435 . S
C832 C359 1.431 . S
C837 C320 1.451 . S
C842 C242 1.450 . S
C847 C333 1.433 . S
C852 C252 1.433 . S
C857 C268 1.450 . S
C862 C398 1.451 . S
C867 C278 1.433 . S
C872 C411 1.433 . S
C877 C372 1.452 . S
C882 C294 1.449 . S
C887 C385 1.431 . S
C892 C304 1.436 . S
C897 C299 1.241 . S
C902 C10 1.231 . S
C907 C270 1.231 . S
C912 C13 1.241 . S
C917 C273 1.241 . S
C922 C36 1.231 . S
C927 C296 1.231 . S
C932 C39 1.241 . S
C937 C221 1.241 . S
C942 C62 1.232 . S
C947 C65 1.241 . S
C952 C244 1.232 . S
C957 C88 1.233 . S
C962 C247 1.240 . S
C967 C91 1.241 . S
C972 C218 1.231 . S
C977 C114 1.395 . S
C982 C413 1.386 . S
C987 C374 1.396 . S
C992 C127 1.388 . S
C997 C140 1.395 . S
C1002 C387 1.386 . S
C1007 C153 1.386 . S
C1012 C400 1.395 . S
C1017 C335 1.385 . S
C1022 C166 1.395 . S
C1027 C348 1.396 . S
C1032 C179 1.386 . S
C1037 C192 1.395 . S
C1042 C361 1.386 . S
C1047 C205 1.387 . S
C1052 C322 1.395 . S
