# Generated by pormake.
# Topology ukp, (4)-cn, num edge types: 1
# Building blocks:
#     Node 0, Type 0, BuildingBlock: KOZSID_clean_sbu_0, # of connection points: 4
#     Node 1, Type 0, BuildingBlock: KOZSID_clean_sbu_0, # of connection points: 4
#     Node 2, Type 0, BuildingBlock: KOZSID_clean_sbu_0, # of connection points: 4
#     Node 3, Type 0, BuildingBlock: KOZSID_clean_sbu_0, # of connection points: 4
#     Node 4, Type 0, BuildingBlock: KOZSID_clean_sbu_0, # of connection points: 4
#     Node 5, Type 0, BuildingBlock: KOZSID_clean_sbu_0, # of connection points: 4
#     Node 6, Type 0, BuildingBlock: KOZSID_clean_sbu_0, # of connection points: 4
#     Node 7, Type 0, BuildingBlock: KOZSID_clean_sbu_0, # of connection points: 4
#     Node 8, Type 0, BuildingBlock: KOZSID_clean_sbu_0, # of connection points: 4
#     Node 9, Type 0, BuildingBlock: KOZSID_clean_sbu_0, # of connection points: 4
#     Node 10, Type 0, BuildingBlock: KOZSID_clean_sbu_0, # of connection points: 4
#     Node 11, Type 0, BuildingBlock: KOZSID_clean_sbu_0, # of connection points: 4
#     Node 12, Type 0, BuildingBlock: KOZSID_clean_sbu_0, # of connection points: 4
#     Node 13, Type 0, BuildingBlock: KOZSID_clean_sbu_0, # of connection points: 4
#     Node 14, Type 0, BuildingBlock: KOZSID_clean_sbu_0, # of connection points: 4
#     Node 15, Type 0, BuildingBlock: KOZSID_clean_sbu_0, # of connection points: 4
#     Node 16, Type 0, BuildingBlock: KOZSID_clean_sbu_0, # of connection points: 4
#     Node 17, Type 0, BuildingBlock: KOZSID_clean_sbu_0, # of connection points: 4
#     Node 18, Type 0, BuildingBlock: KOZSID_clean_sbu_0, # of connection points: 4
#     Node 19, Type 0, BuildingBlock: KOZSID_clean_sbu_0, # of connection points: 4
#     Node 20, Type 0, BuildingBlock: KOZSID_clean_sbu_0, # of connection points: 4
#     Node 21, Type 0, BuildingBlock: KOZSID_clean_sbu_0, # of connection points: 4
#     Node 22, Type 0, BuildingBlock: KOZSID_clean_sbu_0, # of connection points: 4
#     Node 23, Type 0, BuildingBlock: KOZSID_clean_sbu_0, # of connection points: 4
#     Node 24, Type 0, BuildingBlock: KOZSID_clean_sbu_0, # of connection points: 4
#     Node 25, Type 0, BuildingBlock: KOZSID_clean_sbu_0, # of connection points: 4
#     Node 26, Type 0, BuildingBlock: KOZSID_clean_sbu_0, # of connection points: 4
#     Node 27, Type 0, BuildingBlock: KOZSID_clean_sbu_0, # of connection points: 4
#     Node 28, Type 0, BuildingBlock: KOZSID_clean_sbu_0, # of connection points: 4
#     Node 29, Type 0, BuildingBlock: KOZSID_clean_sbu_0, # of connection points: 4
#     Node 30, Type 0, BuildingBlock: KOZSID_clean_sbu_0, # of connection points: 4
#     Node 31, Type 0, BuildingBlock: KOZSID_clean_sbu_0, # of connection points: 4
#     Node 32, Type 0, BuildingBlock: KOZSID_clean_sbu_0, # of connection points: 4
#     Node 33, Type 0, BuildingBlock: KOZSID_clean_sbu_0, # of connection points: 4
#     Node 34, Type 0, BuildingBlock: KOZSID_clean_sbu_0, # of connection points: 4
#     Node 35, Type 0, BuildingBlock: KOZSID_clean_sbu_0, # of connection points: 4
#     Node 36, Type 0, BuildingBlock: KOZSID_clean_sbu_0, # of connection points: 4
#     Node 37, Type 0, BuildingBlock: KOZSID_clean_sbu_0, # of connection points: 4
#     Node 38, Type 0, BuildingBlock: KOZSID_clean_sbu_0, # of connection points: 4
#     Node 39, Type 0, BuildingBlock: KOZSID_clean_sbu_0, # of connection points: 4
#     Node 40, Type 0, BuildingBlock: KOZSID_clean_sbu_0, # of connection points: 4
#     Node 41, Type 0, BuildingBlock: KOZSID_clean_sbu_0, # of connection points: 4
#     Node 42, Type 0, BuildingBlock: KOZSID_clean_sbu_0, # of connection points: 4
#     Node 43, Type 0, BuildingBlock: KOZSID_clean_sbu_0, # of connection points: 4
#     Node 44, Type 0, BuildingBlock: KOZSID_clean_sbu_0, # of connection points: 4
#     Node 45, Type 0, BuildingBlock: KOZSID_clean_sbu_0, # of connection points: 4
#     Node 46, Type 0, BuildingBlock: KOZSID_clean_sbu_0, # of connection points: 4
#     Node 47, Type 0, BuildingBlock: KOZSID_clean_sbu_0, # of connection points: 4
#     Edge 48, Type (0, 0), BuildingBlock: AJUNOK_clean_linker_0, # of connection points: 2
#     Edge 49, Type (0, 0), BuildingBlock: AJUNOK_clean_linker_0, # of connection points: 2
#     Edge 50, Type (0, 0), BuildingBlock: AJUNOK_clean_linker_0, # of connection points: 2
#     Edge 51, Type (0, 0), BuildingBlock: AJUNOK_clean_linker_0, # of connection points: 2
#     Edge 52, Type (0, 0), BuildingBlock: AJUNOK_clean_linker_0, # of connection points: 2
#     Edge 53, Type (0, 0), BuildingBlock: AJUNOK_clean_linker_0, # of connection points: 2
#     Edge 54, Type (0, 0), BuildingBlock: AJUNOK_clean_linker_0, # of connection points: 2
#     Edge 55, Type (0, 0), BuildingBlock: AJUNOK_clean_linker_0, # of connection points: 2
#     Edge 56, Type (0, 0), BuildingBlock: AJUNOK_clean_linker_0, # of connection points: 2
#     Edge 57, Type (0, 0), BuildingBlock: AJUNOK_clean_linker_0, # of connection points: 2
#     Edge 58, Type (0, 0), BuildingBlock: AJUNOK_clean_linker_0, # of connection points: 2
#     Edge 59, Type (0, 0), BuildingBlock: AJUNOK_clean_linker_0, # of connection points: 2
#     Edge 60, Type (0, 0), BuildingBlock: AJUNOK_clean_linker_0, # of connection points: 2
#     Edge 61, Type (0, 0), BuildingBlock: AJUNOK_clean_linker_0, # of connection points: 2
#     Edge 62, Type (0, 0), BuildingBlock: AJUNOK_clean_linker_0, # of connection points: 2
#     Edge 63, Type (0, 0), BuildingBlock: AJUNOK_clean_linker_0, # of connection points: 2
#     Edge 64, Type (0, 0), BuildingBlock: AJUNOK_clean_linker_0, # of connection points: 2
#     Edge 65, Type (0, 0), BuildingBlock: AJUNOK_clean_linker_0, # of connection points: 2
#     Edge 66, Type (0, 0), BuildingBlock: AJUNOK_clean_linker_0, # of connection points: 2
#     Edge 67, Type (0, 0), BuildingBlock: AJUNOK_clean_linker_0, # of connection points: 2
#     Edge 68, Type (0, 0), BuildingBlock: AJUNOK_clean_linker_0, # of connection points: 2
#     Edge 69, Type (0, 0), BuildingBlock: AJUNOK_clean_linker_0, # of connection points: 2
#     Edge 70, Type (0, 0), BuildingBlock: AJUNOK_clean_linker_0, # of connection points: 2
#     Edge 71, Type (0, 0), BuildingBlock: AJUNOK_clean_linker_0, # of connection points: 2
#     Edge 72, Type (0, 0), BuildingBlock: AJUNOK_clean_linker_0, # of connection points: 2
#     Edge 73, Type (0, 0), BuildingBlock: AJUNOK_clean_linker_0, # of connection points: 2
#     Edge 74, Type (0, 0), BuildingBlock: AJUNOK_clean_linker_0, # of connection points: 2
#     Edge 75, Type (0, 0), BuildingBlock: AJUNOK_clean_linker_0, # of connection points: 2
#     Edge 76, Type (0, 0), BuildingBlock: AJUNOK_clean_linker_0, # of connection points: 2
#     Edge 77, Type (0, 0), BuildingBlock: AJUNOK_clean_linker_0, # of connection points: 2
#     Edge 78, Type (0, 0), BuildingBlock: AJUNOK_clean_linker_0, # of connection points: 2
#     Edge 79, Type (0, 0), BuildingBlock: AJUNOK_clean_linker_0, # of connection points: 2
#     Edge 80, Type (0, 0), BuildingBlock: AJUNOK_clean_linker_0, # of connection points: 2
#     Edge 81, Type (0, 0), BuildingBlock: AJUNOK_clean_linker_0, # of connection points: 2
#     Edge 82, Type (0, 0), BuildingBlock: AJUNOK_clean_linker_0, # of connection points: 2
#     Edge 83, Type (0, 0), BuildingBlock: AJUNOK_clean_linker_0, # of connection points: 2
#     Edge 84, Type (0, 0), BuildingBlock: AJUNOK_clean_linker_0, # of connection points: 2
#     Edge 85, Type (0, 0), BuildingBlock: AJUNOK_clean_linker_0, # of connection points: 2
#     Edge 86, Type (0, 0), BuildingBlock: AJUNOK_clean_linker_0, # of connection points: 2
#     Edge 87, Type (0, 0), BuildingBlock: AJUNOK_clean_linker_0, # of connection points: 2
#     Edge 88, Type (0, 0), BuildingBlock: AJUNOK_clean_linker_0, # of connection points: 2
#     Edge 89, Type (0, 0), BuildingBlock: AJUNOK_clean_linker_0, # of connection points: 2
#     Edge 90, Type (0, 0), BuildingBlock: AJUNOK_clean_linker_0, # of connection points: 2
#     Edge 91, Type (0, 0), BuildingBlock: AJUNOK_clean_linker_0, # of connection points: 2
#     Edge 92, Type (0, 0), BuildingBlock: AJUNOK_clean_linker_0, # of connection points: 2
#     Edge 93, Type (0, 0), BuildingBlock: AJUNOK_clean_linker_0, # of connection points: 2
#     Edge 94, Type (0, 0), BuildingBlock: AJUNOK_clean_linker_0, # of connection points: 2
#     Edge 95, Type (0, 0), BuildingBlock: AJUNOK_clean_linker_0, # of connection points: 2
#     Edge 96, Type (0, 0), BuildingBlock: AJUNOK_clean_linker_0, # of connection points: 2
#     Edge 97, Type (0, 0), BuildingBlock: AJUNOK_clean_linker_0, # of connection points: 2
#     Edge 98, Type (0, 0), BuildingBlock: AJUNOK_clean_linker_0, # of connection points: 2
#     Edge 99, Type (0, 0), BuildingBlock: AJUNOK_clean_linker_0, # of connection points: 2
#     Edge 100, Type (0, 0), BuildingBlock: AJUNOK_clean_linker_0, # of connection points: 2
#     Edge 101, Type (0, 0), BuildingBlock: AJUNOK_clean_linker_0, # of connection points: 2
#     Edge 102, Type (0, 0), BuildingBlock: AJUNOK_clean_linker_0, # of connection points: 2
#     Edge 103, Type (0, 0), BuildingBlock: AJUNOK_clean_linker_0, # of connection points: 2
#     Edge 104, Type (0, 0), BuildingBlock: AJUNOK_clean_linker_0, # of connection points: 2
#     Edge 105, Type (0, 0), BuildingBlock: AJUNOK_clean_linker_0, # of connection points: 2
#     Edge 106, Type (0, 0), BuildingBlock: AJUNOK_clean_linker_0, # of connection points: 2
#     Edge 107, Type (0, 0), BuildingBlock: AJUNOK_clean_linker_0, # of connection points: 2
#     Edge 108, Type (0, 0), BuildingBlock: AJUNOK_clean_linker_0, # of connection points: 2
#     Edge 109, Type (0, 0), BuildingBlock: AJUNOK_clean_linker_0, # of connection points: 2
#     Edge 110, Type (0, 0), BuildingBlock: AJUNOK_clean_linker_0, # of connection points: 2
#     Edge 111, Type (0, 0), BuildingBlock: AJUNOK_clean_linker_0, # of connection points: 2
#     Edge 112, Type (0, 0), BuildingBlock: AJUNOK_clean_linker_0, # of connection points: 2
#     Edge 113, Type (0, 0), BuildingBlock: AJUNOK_clean_linker_0, # of connection points: 2
#     Edge 114, Type (0, 0), BuildingBlock: AJUNOK_clean_linker_0, # of connection points: 2
#     Edge 115, Type (0, 0), BuildingBlock: AJUNOK_clean_linker_0, # of connection points: 2
#     Edge 116, Type (0, 0), BuildingBlock: AJUNOK_clean_linker_0, # of connection points: 2
#     Edge 117, Type (0, 0), BuildingBlock: AJUNOK_clean_linker_0, # of connection points: 2
#     Edge 118, Type (0, 0), BuildingBlock: AJUNOK_clean_linker_0, # of connection points: 2
#     Edge 119, Type (0, 0), BuildingBlock: AJUNOK_clean_linker_0, # of connection points: 2
#     Edge 120, Type (0, 0), BuildingBlock: AJUNOK_clean_linker_0, # of connection points: 2
#     Edge 121, Type (0, 0), BuildingBlock: AJUNOK_clean_linker_0, # of connection points: 2
#     Edge 122, Type (0, 0), BuildingBlock: AJUNOK_clean_linker_0, # of connection points: 2
#     Edge 123, Type (0, 0), BuildingBlock: AJUNOK_clean_linker_0, # of connection points: 2
#     Edge 124, Type (0, 0), BuildingBlock: AJUNOK_clean_linker_0, # of connection points: 2
#     Edge 125, Type (0, 0), BuildingBlock: AJUNOK_clean_linker_0, # of connection points: 2
#     Edge 126, Type (0, 0), BuildingBlock: AJUNOK_clean_linker_0, # of connection points: 2
#     Edge 127, Type (0, 0), BuildingBlock: AJUNOK_clean_linker_0, # of connection points: 2
#     Edge 128, Type (0, 0), BuildingBlock: AJUNOK_clean_linker_0, # of connection points: 2
#     Edge 129, Type (0, 0), BuildingBlock: AJUNOK_clean_linker_0, # of connection points: 2
#     Edge 130, Type (0, 0), BuildingBlock: AJUNOK_clean_linker_0, # of connection points: 2
#     Edge 131, Type (0, 0), BuildingBlock: AJUNOK_clean_linker_0, # of connection points: 2
#     Edge 132, Type (0, 0), BuildingBlock: AJUNOK_clean_linker_0, # of connection points: 2
#     Edge 133, Type (0, 0), BuildingBlock: AJUNOK_clean_linker_0, # of connection points: 2
#     Edge 134, Type (0, 0), BuildingBlock: AJUNOK_clean_linker_0, # of connection points: 2
#     Edge 135, Type (0, 0), BuildingBlock: AJUNOK_clean_linker_0, # of connection points: 2
#     Edge 136, Type (0, 0), BuildingBlock: AJUNOK_clean_linker_0, # of connection points: 2
#     Edge 137, Type (0, 0), BuildingBlock: AJUNOK_clean_linker_0, # of connection points: 2
#     Edge 138, Type (0, 0), BuildingBlock: AJUNOK_clean_linker_0, # of connection points: 2
#     Edge 139, Type (0, 0), BuildingBlock: AJUNOK_clean_linker_0, # of connection points: 2
#     Edge 140, Type (0, 0), BuildingBlock: AJUNOK_clean_linker_0, # of connection points: 2
#     Edge 141, Type (0, 0), BuildingBlock: AJUNOK_clean_linker_0, # of connection points: 2
#     Edge 142, Type (0, 0), BuildingBlock: AJUNOK_clean_linker_0, # of connection points: 2
#     Edge 143, Type (0, 0), BuildingBlock: AJUNOK_clean_linker_0, # of connection points: 2
# Relax obj value: 0.174
# Max RMSD: 0.270
# Mean RMSD: 0.231
data_MOF--net-ukp--node1-KOZSID_clean_sbu_0--edge1-AJUNOK_clean_linker_0
_symmetry_space_group_name_H-M    P1
_symmetry_Int_Tables_number       1
_symmetry_cell_setting            triclinic
loop_
_symmetry_equiv_pos_as_xyz
'x, y, z'
_cell_length_a     56.234582
_cell_length_b     61.766265
_cell_length_c     61.626902
_cell_angle_alpha  90.043746
_cell_angle_beta   90.002089
_cell_angle_gamma 89.950376
loop_
_atom_site_label
_atom_site_type_symbol
_atom_site_fract_x
_atom_site_fract_y
_atom_site_fract_z
_atom_type_partial_charge
C0 C 0.2348 0.29604 0.39537 0.0
C1 C 0.25779 0.29382 0.40329 0.0
C2 C 0.259 0.30602 0.42188 0.0
C3 C 0.23674 0.31489 0.42432 0.0
N4 N 0.22169 0.30895 0.40844 0.0
Co5 Co 0.18795 0.31763 0.40601 0.0
N6 N 0.1933 0.34357 0.42422 0.0
C7 C 0.21146 0.34634 0.43819 0.0
C8 C 0.2103 0.36568 0.44912 0.0
C9 C 0.19006 0.3756 0.44168 0.0
C10 C 0.17996 0.36169 0.42654 0.0
N11 N 0.15412 0.32641 0.40412 0.0
C12 C 0.1438 0.34593 0.40826 0.0
C13 C 0.11944 0.34474 0.40503 0.0
C14 C 0.11454 0.32373 0.39885 0.0
C15 C 0.13611 0.31318 0.39863 0.0
N16 N 0.18336 0.29172 0.38761 0.0
C17 C 0.16237 0.28228 0.38332 0.0
C18 C 0.16471 0.26555 0.36869 0.0
C19 C 0.18861 0.26457 0.36362 0.0
C20 C 0.19969 0.28074 0.3755 0.0
N21 N 0.17991 0.30025 0.43224 0.0
C22 C 0.15973 0.27268 0.46427 0.0
C23 C 0.17732 0.26517 0.44987 0.0
C24 C 0.1871 0.2791 0.43405 0.0
C25 C 0.15382 0.29476 0.46313 0.0
C26 C 0.16416 0.30819 0.44726 0.0
N27 N 0.19465 0.33419 0.37926 0.0
C28 C 0.18281 0.34129 0.34227 0.0
C29 C 0.20386 0.35248 0.33809 0.0
C30 C 0.22027 0.35465 0.35527 0.0
C31 C 0.2152 0.34557 0.37585 0.0
C32 C 0.17862 0.33242 0.36263 0.0
H33 H 0.22811 0.34716 0.38875 0.0
H34 H 0.16258 0.32321 0.36441 0.0
H35 H 0.1997 0.27246 0.42262 0.0
H36 H 0.15846 0.32485 0.44657 0.0
C37 C 0.23084 0.33205 0.43818 0.0
C38 C 0.22568 0.28507 0.37597 0.0
C39 C 0.15662 0.36523 0.4164 0.0
C40 C 0.14096 0.29261 0.38952 0.0
H41 H 0.27218 0.28451 0.39628 0.0
H42 H 0.27459 0.30898 0.43175 0.0
H43 H 0.22297 0.37209 0.46068 0.0
H44 H 0.18331 0.39111 0.44709 0.0
H45 H 0.10659 0.35765 0.40694 0.0
H46 H 0.09742 0.31724 0.39417 0.0
H47 H 0.1506 0.25602 0.36153 0.0
H48 H 0.19678 0.25345 0.35228 0.0
H49 H 0.18278 0.24836 0.45018 0.0
H50 H 0.14093 0.30162 0.47423 0.0
H51 H 0.16994 0.33843 0.32951 0.0
H52 H 0.23696 0.363 0.35275 0.0
C53 C 0.04557 0.8961 0.64791 0.0
C54 C 0.06067 0.87952 0.64137 0.0
C55 C 0.05919 0.87835 0.61932 0.0
C56 C 0.04348 0.89428 0.61354 0.0
N57 N 0.0347 0.90559 0.63046 0.0
Co58 Co 0.01269 0.93113 0.62802 0.0
N59 N 1.00593 0.92536 0.59647 0.0
C60 C 0.01779 0.91115 0.58387 0.0
C61 C 0.01009 0.91062 0.5628 0.0
C62 C 0.99241 0.92571 0.56175 0.0
C63 C 0.9902 0.93462 0.58239 0.0
N64 N 0.99123 0.95685 0.62543 0.0
C65 C 0.97795 0.96434 0.60841 0.0
C66 C 0.96714 0.98386 0.61361 0.0
C67 C 0.97426 0.98905 0.63423 0.0
C68 C 0.98889 0.97243 0.64059 0.0
N69 N 0.01945 0.93611 0.65979 0.0
C70 C 0.01356 0.9542 0.67082 0.0
C71 C 0.01976 0.95337 0.69235 0.0
C72 C 0.03062 0.93369 0.69511 0.0
C73 C 0.03077 0.92356 0.67501 0.0
N74 N 0.03935 0.95087 0.62007 0.0
C75 C 0.05395 0.99427 0.6181 0.0
C76 C 0.06086 0.98109 0.63553 0.0
C77 C 0.05403 0.95913 0.63584 0.0
C78 C 0.04404 0.98413 0.59999 0.0
C79 C 0.03749 0.96239 0.60109 0.0
N80 N 0.98465 0.91333 0.63585 0.0
C81 C 0.9466 0.91446 0.65392 0.0
C82 C 0.93667 0.90063 0.63851 0.0
C83 C 0.95201 0.89094 0.62336 0.0
C84 C 0.97611 0.8973 0.62252 0.0
C85 C 0.97032 0.9206 0.65229 0.0
H86 H 0.98726 0.89031 0.61013 0.0
H87 H 0.97604 0.93272 0.66348 0.0
H88 H 0.05874 0.94962 0.64985 0.0
H89 H 0.02885 0.95607 0.58701 0.0
C90 C 0.03518 0.8978 0.59262 0.0
C91 C 0.04341 0.90286 0.67078 0.0
C92 C 0.97593 0.95409 0.58679 0.0
C93 C 0.99991 0.9704 0.66089 0.0
H94 H 0.07194 0.86946 0.6514 0.0
H95 H 0.0683 0.86704 0.60877 0.0
H96 H 0.01671 0.90061 0.5497 0.0
H97 H 0.98306 0.93027 0.54712 0.0
H98 H 0.95562 0.99353 0.60342 0.0
H99 H 0.96936 1.00328 0.64346 0.0
H100 H 0.01634 0.96545 0.7047 0.0
H101 H 0.03787 0.92762 0.71018 0.0
H102 H 0.07006 0.98791 0.64937 0.0
H103 H 0.04014 0.99324 0.5854 0.0
H104 H 0.93565 0.92167 0.66648 0.0
H105 H 0.9452 0.87957 0.61152 0.0
C106 C 0.28717 0.73068 0.89512 0.0
C107 C 0.264 0.7319 0.90281 0.0
C108 C 0.26309 0.71932 0.92115 0.0
C109 C 0.28568 0.71121 0.92367 0.0
N110 N 0.30067 0.71795 0.90808 0.0
Co111 Co 0.33471 0.7102 0.90571 0.0
N112 N 0.33018 0.68382 0.92344 0.0
C113 C 0.31202 0.68031 0.93723 0.0
C114 C 0.31372 0.66078 0.94773 0.0
C115 C 0.3343 0.65152 0.94017 0.0
C116 C 0.34406 0.66597 0.92539 0.0
N117 N 0.36883 0.70229 0.90381 0.0
C118 C 0.37975 0.68296 0.90755 0.0
C119 C 0.40407 0.68484 0.90441 0.0
C120 C 0.40833 0.70608 0.89869 0.0
C121 C 0.38645 0.71607 0.89864 0.0
N122 N 0.33859 0.7365 0.88777 0.0
C123 C 0.35931 0.74654 0.88376 0.0
C124 C 0.35654 0.76353 0.86953 0.0
C125 C 0.33264 0.76407 0.86444 0.0
C126 C 0.32199 0.74739 0.87591 0.0
N127 N 0.34204 0.72739 0.9322 0.0
C128 C 0.36128 0.75522 0.96444 0.0
C129 C 0.34339 0.76235 0.95018 0.0
C130 C 0.33407 0.74828 0.93426 0.0
C131 C 0.36793 0.73333 0.96311 0.0
C132 C 0.35805 0.71975 0.94713 0.0
N133 N 0.32861 0.6939 0.8788 0.0
C134 C 0.3405 0.68782 0.8417 0.0
C135 C 0.3197 0.67633 0.83739 0.0
C136 C 0.30341 0.67341 0.85451 0.0
C137 C 0.30835 0.68213 0.87524 0.0
C138 C 0.34457 0.69634 0.86221 0.0
H139 H 0.29556 0.67998 0.88814 0.0
H140 H 0.36036 0.70585 0.86417 0.0
H141 H 0.32122 0.75466 0.92292 0.0
H142 H 0.36432 0.70326 0.94623 0.0
C143 C 0.29212 0.694 0.93726 0.0
C144 C 0.29611 0.74259 0.87621 0.0
C145 C 0.36752 0.66315 0.91519 0.0
C146 C 0.381 0.73665 0.88987 0.0
H147 H 0.24931 0.74084 0.89584 0.0
H148 H 0.24752 0.71564 0.93078 0.0
H149 H 0.30116 0.65378 0.95903 0.0
H150 H 0.34146 0.63607 0.94524 0.0
H151 H 0.4173 0.67222 0.90606 0.0
H152 H 0.42525 0.71308 0.89417 0.0
H153 H 0.37039 0.77357 0.86267 0.0
H154 H 0.32413 0.77526 0.85339 0.0
H155 H 0.33737 0.779 0.95065 0.0
H156 H 0.38109 0.72675 0.97412 0.0
H157 H 0.35324 0.6912 0.82896 0.0
H158 H 0.28693 0.66476 0.85184 0.0
C159 C 0.47581 0.13411 0.14605 0.0
C160 C 0.46031 0.1504 0.13957 0.0
C161 C 0.46144 0.15139 0.11749 0.0
C162 C 0.4773 0.1356 0.11163 0.0
N163 N 0.48648 0.12456 0.12854 0.0
Co164 Co 0.5085 0.09908 0.12604 0.0
N165 N 0.51506 0.10476 0.09447 0.0
C166 C 0.50308 0.11888 0.08189 0.0
C167 C 0.51074 0.11939 0.06081 0.0
C168 C 0.52851 0.10437 0.05973 0.0
C169 C 0.53078 0.0955 0.08037 0.0
N170 N 0.52983 0.07328 0.12336 0.0
C171 C 0.54296 0.06571 0.10628 0.0
C172 C 0.5535 0.04604 0.11134 0.0
C173 C 0.54635 0.04083 0.13193 0.0
C174 C 0.53198 0.05759 0.13842 0.0
N175 N 0.50219 0.09427 0.15788 0.0
C176 C 0.50807 0.07619 0.1689 0.0
C177 C 0.50195 0.07706 0.19044 0.0
C178 C 0.4912 0.0968 0.19324 0.0
C179 C 0.49109 0.10692 0.17315 0.0
N180 N 0.48168 0.07939 0.11837 0.0
C181 C 0.46574 0.03642 0.11588 0.0
C182 C 0.45968 0.04943 0.13372 0.0
C183 C 0.46712 0.07121 0.13426 0.0
C184 C 0.4754 0.04669 0.09774 0.0
C185 C 0.48287 0.06815 0.09918 0.0
N186 N 0.53641 0.11701 0.13361 0.0
C187 C 0.57423 0.11795 0.15212 0.0
C188 C 0.58251 0.13424 0.13841 0.0
C189 C 0.56665 0.14287 0.12308 0.0
C190 C 0.54347 0.13431 0.12124 0.0
C191 C 0.55147 0.10955 0.14939 0.0
H192 H 0.53177 0.14103 0.10915 0.0
H193 H 0.54691 0.09602 0.15936 0.0
H194 H 0.46293 0.08057 0.14851 0.0
H195 H 0.49159 0.07442 0.08511 0.0
C196 C 0.48551 0.13207 0.09065 0.0
C197 C 0.47867 0.12771 0.16897 0.0
C198 C 0.54506 0.07602 0.08472 0.0
C199 C 0.52125 0.05975 0.15883 0.0
H200 H 0.44907 0.16043 0.14967 0.0
H201 H 0.45204 0.16251 0.10697 0.0
H202 H 0.50402 0.12932 0.0477 0.0
H203 H 0.53786 0.0998 0.0451 0.0
H204 H 0.56488 0.03628 0.10108 0.0
H205 H 0.55111 0.02652 0.14109 0.0
H206 H 0.50526 0.06495 0.20275 0.0
H207 H 0.484 0.10288 0.20834 0.0
H208 H 0.45075 0.04255 0.14767 0.0
H209 H 0.47867 0.03777 0.08288 0.0
H210 H 0.58581 0.11078 0.1642 0.0
H211 H 0.57221 0.15581 0.11238 0.0
C212 C 0.23388 0.72967 0.13339 0.0
C213 C 0.25725 0.72905 0.12603 0.0
C214 C 0.25744 0.71642 0.10775 0.0
C215 C 0.2344 0.7097 0.10506 0.0
N216 N 0.21974 0.7173 0.12056 0.0
Co217 Co 0.18557 0.70994 0.1236 0.0
N218 N 0.1892 0.68343 0.10576 0.0
C219 C 0.20697 0.67959 0.09166 0.0
C220 C 0.20474 0.6601 0.08115 0.0
C221 C 0.18418 0.65119 0.08904 0.0
C222 C 0.17499 0.66579 0.10402 0.0
N223 N 0.15141 0.70239 0.12631 0.0
C224 C 0.14014 0.68315 0.12286 0.0
C225 C 0.11594 0.68534 0.12657 0.0
C226 C 0.11211 0.70665 0.13235 0.0
C227 C 0.13412 0.71639 0.13186 0.0
N228 N 0.18251 0.73635 0.14157 0.0
C229 C 0.16202 0.74673 0.14579 0.0
C230 C 0.16536 0.76409 0.15949 0.0
C231 C 0.18941 0.7645 0.164 0.0
C232 C 0.19952 0.74729 0.15289 0.0
N233 N 0.17776 0.7272 0.09723 0.0
C234 C 0.15867 0.75533 0.06505 0.0
C235 C 0.17693 0.76209 0.07912 0.0
C236 C 0.18621 0.74788 0.09492 0.0
C237 C 0.15113 0.73372 0.06689 0.0
C238 C 0.16101 0.71996 0.08277 0.0
N239 N 0.19214 0.69365 0.15042 0.0
C240 C 0.18149 0.68832 0.18793 0.0
C241 C 0.20198 0.67613 0.19172 0.0
C242 C 0.21724 0.67221 0.17396 0.0
C243 C 0.21194 0.68108 0.15337 0.0
C244 C 0.17695 0.69676 0.16748 0.0
H245 H 0.22405 0.67829 0.14005 0.0
H246 H 0.1614 0.7067 0.16591 0.0
H247 H 0.1995 0.75402 0.10598 0.0
H248 H 0.15423 0.70366 0.08393 0.0
C249 C 0.22722 0.6927 0.09157 0.0
C250 C 0.22541 0.7426 0.15202 0.0
C251 C 0.15181 0.66319 0.11475 0.0
C252 C 0.14006 0.73701 0.14027 0.0
H253 H 0.2728 0.73644 0.13316 0.0
H254 H 0.27286 0.71155 0.09843 0.0
H255 H 0.217 0.65286 0.0697 0.0
H256 H 0.17671 0.63582 0.08413 0.0
H257 H 0.10251 0.67288 0.12517 0.0
H258 H 0.0954 0.71389 0.13718 0.0
H259 H 0.15183 0.77457 0.16627 0.0
H260 H 0.19846 0.77607 0.17429 0.0
H261 H 0.18337 0.7786 0.07861 0.0
H262 H 0.13738 0.72749 0.05629 0.0
H263 H 0.16932 0.69221 0.20099 0.0
H264 H 0.23318 0.66258 0.17595 0.0
C265 C 0.47554 0.89461 0.38371 0.0
C266 C 0.4613 0.87759 0.39061 0.0
C267 C 0.46391 0.87618 0.41255 0.0
C268 C 0.47933 0.89246 0.41794 0.0
N269 N 0.48687 0.90425 0.40087 0.0
Co270 Co 0.50786 0.93057 0.40289 0.0
N271 N 0.5153 0.92541 0.43439 0.0
C272 C 0.50584 0.90969 0.44683 0.0
C273 C 0.51578 0.90826 0.46705 0.0
C274 C 0.53224 0.92445 0.46779 0.0
C275 C 0.53099 0.93529 0.44806 0.0
N276 N 0.52781 0.95737 0.40517 0.0
C277 C 0.53895 0.96661 0.42263 0.0
C278 C 0.54577 0.98769 0.41786 0.0
C279 C 0.53943 0.9916 0.39682 0.0
C280 C 0.52854 0.97301 0.38992 0.0
N281 N 0.50116 0.93459 0.37096 0.0
C282 C 0.50699 0.95232 0.3594 0.0
C283 C 0.5009 0.95089 0.3379 0.0
C284 C 0.49017 0.93112 0.33564 0.0
C285 C 0.4899 0.92162 0.35603 0.0
N286 N 0.48034 0.94953 0.41067 0.0
C287 C 0.46585 0.99298 0.41401 0.0
C288 C 0.45994 0.98064 0.39566 0.0
C289 C 0.46668 0.95867 0.39463 0.0
C290 C 0.4746 0.9819 0.43208 0.0
C291 C 0.48093 0.96008 0.4303 0.0
N292 N 0.53657 0.91353 0.39538 0.0
C293 C 0.57604 0.91544 0.38011 0.0
C294 C 0.58395 0.89865 0.39347 0.0
C295 C 0.56698 0.88789 0.40624 0.0
C296 C 0.5433 0.89548 0.4068 0.0
C297 C 0.5525 0.92246 0.38119 0.0
H298 H 0.53094 0.88748 0.41743 0.0
H299 H 0.5479 0.93622 0.37152 0.0
H300 H 0.46266 0.94989 0.37998 0.0
H301 H 0.48838 0.95283 0.44455 0.0
C302 C 0.48879 0.89571 0.43851 0.0
C303 C 0.47693 0.90124 0.36075 0.0
C304 C 0.54223 0.95652 0.44429 0.0
C305 C 0.51871 0.96967 0.36933 0.0
H306 H 0.45001 0.86726 0.38088 0.0
H307 H 0.45581 0.86443 0.42327 0.0
H308 H 0.51167 0.89672 0.47972 0.0
H309 H 0.54335 0.92817 0.48162 0.0
H310 H 0.55366 0.99948 0.42865 0.0
H311 H 0.54178 1.0065 0.38785 0.0
H312 H 0.50387 0.96282 0.32533 0.0
H313 H 0.48282 0.9247 0.32075 0.0
H314 H 0.45161 0.98814 0.38172 0.0
H315 H 0.47764 0.9903 0.44727 0.0
H316 H 0.58831 0.92385 0.36951 0.0
H317 H 0.5722 0.87455 0.4166 0.0
C318 C 0.28382 0.298 0.63275 0.0
C319 C 0.26061 0.29842 0.62497 0.0
C320 C 0.26059 0.31144 0.60699 0.0
C321 C 0.28355 0.31857 0.60492 0.0
N322 N 0.29802 0.31088 0.62052 0.0
Co323 Co 0.33202 0.3186 0.62433 0.0
N324 N 0.32833 0.34534 0.60683 0.0
C325 C 0.31073 0.34923 0.59256 0.0
C326 C 0.31294 0.36883 0.58229 0.0
C327 C 0.33331 0.37778 0.5905 0.0
C328 C 0.34242 0.36308 0.60541 0.0
N329 N 0.36603 0.32648 0.62771 0.0
C330 C 0.3772 0.34578 0.62443 0.0
C331 C 0.40137 0.34377 0.6284 0.0
C332 C 0.40531 0.32249 0.63414 0.0
C333 C 0.3834 0.31261 0.63338 0.0
N334 N 0.33514 0.29198 0.6419 0.0
C335 C 0.35569 0.28181 0.64639 0.0
C336 C 0.35232 0.26416 0.65966 0.0
C337 C 0.32818 0.26331 0.66362 0.0
C338 C 0.31807 0.28057 0.65261 0.0
N339 N 0.34061 0.30179 0.5978 0.0
C340 C 0.36122 0.27427 0.56579 0.0
C341 C 0.34262 0.2671 0.57926 0.0
C342 C 0.33264 0.28098 0.59505 0.0
C343 C 0.36795 0.29611 0.56782 0.0
C344 C 0.35741 0.30952 0.58366 0.0
N345 N 0.32463 0.33446 0.6514 0.0
C346 C 0.33459 0.33981 0.68918 0.0
C347 C 0.31382 0.35167 0.69283 0.0
C348 C 0.29873 0.35532 0.67489 0.0
C349 C 0.30453 0.34666 0.65427 0.0
C350 C 0.33959 0.33147 0.66869 0.0
H351 H 0.29256 0.34935 0.64082 0.0
H352 H 0.35535 0.32179 0.66722 0.0
H353 H 0.31921 0.27451 0.60574 0.0
H354 H 0.36373 0.32594 0.58508 0.0
C355 C 0.2907 0.3359 0.5919 0.0
C356 C 0.29215 0.28486 0.65123 0.0
C357 C 0.3655 0.36567 0.61629 0.0
C358 C 0.37761 0.29184 0.64142 0.0
H359 H 0.24503 0.29067 0.63159 0.0
H360 H 0.2453 0.31626 0.59748 0.0
H361 H 0.3008 0.37607 0.57075 0.0
H362 H 0.34077 0.39323 0.58578 0.0
H363 H 0.41472 0.35632 0.62719 0.0
H364 H 0.42203 0.31534 0.63907 0.0
H365 H 0.36585 0.25372 0.66649 0.0
H366 H 0.31906 0.25141 0.67345 0.0
H367 H 0.33648 0.25051 0.57827 0.0
H368 H 0.38161 0.3028 0.55742 0.0
H369 H 0.34668 0.33616 0.70237 0.0
H370 H 0.28257 0.36467 0.67674 0.0
C371 C 0.04236 0.13587 0.88514 0.0
C372 C 0.05395 0.1546 0.89172 0.0
C373 C 0.05121 0.15607 0.91362 0.0
C374 C 0.03785 0.13844 0.91927 0.0
N375 N 0.03166 0.12577 0.90234 0.0
Co376 Co 0.01132 0.09901 0.90428 0.0
N377 N 1.00332 0.10425 0.93567 0.0
C378 C 0.01212 0.12029 0.94813 0.0
C379 C 1.00193 0.12157 0.96826 0.0
C380 C 0.98597 0.10498 0.96891 0.0
C381 C 0.98772 0.09411 0.94922 0.0
N382 N 0.99194 0.07186 0.90646 0.0
C383 C 0.9805 0.06264 0.92374 0.0
C384 C 0.97388 0.04151 0.91894 0.0
C385 C 0.98077 0.0375 0.89805 0.0
C386 C 0.9917 0.05611 0.89129 0.0
N387 N 0.01854 0.09485 0.87244 0.0
C388 C 0.01366 0.07675 0.86106 0.0
C389 C 0.02128 0.07755 0.83994 0.0
C390 C 0.03193 0.09735 0.83772 0.0
C391 C 0.03021 0.10766 0.85767 0.0
N392 N 0.03916 0.08067 0.91253 0.0
C393 C 0.05404 0.03739 0.91616 0.0
C394 C 0.06011 0.0497 0.89786 0.0
C395 C 0.05321 0.07162 0.89671 0.0
C396 C 0.045 0.04849 0.93413 0.0
C397 C 0.03848 0.07025 0.9322 0.0
N398 N 0.98239 0.11546 0.89636 0.0
C399 C 0.94295 0.11257 0.88122 0.0
C400 C 0.93474 0.1293 0.89452 0.0
C401 C 0.95147 0.14067 0.90695 0.0
C402 C 0.9753 0.13357 0.90751 0.0
C403 C 0.96668 0.10606 0.88225 0.0
H404 H 0.98746 0.142 0.91797 0.0
H405 H 0.97167 0.0923 0.87268 0.0
H406 H 0.05738 0.08039 0.88211 0.0
H407 H 0.03083 0.07753 0.94636 0.0
C408 C 0.02841 0.13495 0.93979 0.0
C409 C 0.04236 0.12843 0.86236 0.0
C410 C 0.97682 0.07277 0.9453 0.0
C411 C 1.00204 0.05934 0.87092 0.0
H412 H 0.06319 0.16628 0.88175 0.0
H413 H 0.05744 0.16895 0.9241 0.0
H414 H 1.00544 0.13335 0.98087 0.0
H415 H 0.97477 0.10108 0.98263 0.0
H416 H 0.96578 0.02977 0.92962 0.0
H417 H 0.97873 0.02252 0.88912 0.0
H418 H 0.0197 0.06507 0.82769 0.0
H419 H 0.04078 0.10316 0.82327 0.0
H420 H 0.06868 0.04221 0.88403 0.0
H421 H 0.04187 0.04015 0.94932 0.0
H422 H 0.93079 0.10379 0.87079 0.0
H423 H 0.94597 0.1541 0.91708 0.0
C424 C 0.3654 0.26165 0.25683 0.0
C425 C 0.37917 0.28012 0.25433 0.0
C426 C 0.39988 0.27658 0.26558 0.0
C427 C 0.3976 0.25626 0.27438 0.0
N428 N 0.37676 0.24686 0.26936 0.0
Co429 Co 0.36609 0.21792 0.27926 0.0
N430 N 0.3887 0.21809 0.30389 0.0
C431 C 0.40838 0.23041 0.30525 0.0
C432 C 0.42104 0.22684 0.32395 0.0
C433 C 0.40859 0.21124 0.33495 0.0
C434 C 0.38891 0.20614 0.32233 0.0
N435 N 0.3555 0.18907 0.28946 0.0
C436 C 0.35829 0.17946 0.30919 0.0
C437 C 0.34792 0.15911 0.3092 0.0
C438 C 0.33851 0.15599 0.28877 0.0
C439 C 0.34362 0.17456 0.27735 0.0
N440 N 0.34366 0.2182 0.25454 0.0
C441 C 0.33306 0.20067 0.24599 0.0
C442 C 0.31764 0.20608 0.2295 0.0
C443 C 0.31875 0.22832 0.22771 0.0
C444 C 0.33475 0.23535 0.24328 0.0
N445 N 0.39063 0.2035 0.26047 0.0
C446 C 0.42149 0.17966 0.23217 0.0
C447 C 0.4099 0.19872 0.22535 0.0
C448 C 0.39455 0.21019 0.23953 0.0
C449 C 0.41755 0.17325 0.25376 0.0
C450 C 0.40254 0.18542 0.2676 0.0
N451 N 0.34108 0.23141 0.2975 0.0
C452 C 0.29976 0.23201 0.30867 0.0
C453 C 0.30357 0.24987 0.32222 0.0
C454 C 0.32693 0.2582 0.3232 0.0
C455 C 0.34536 0.2488 0.31071 0.0
C456 C 0.3185 0.22312 0.29665 0.0
H457 H 0.36304 0.25554 0.31173 0.0
H458 H 0.31448 0.20946 0.28648 0.0
H459 H 0.3854 0.22427 0.23334 0.0
H460 H 0.40018 0.17981 0.28403 0.0
C461 C 0.41203 0.24752 0.29071 0.0
C462 C 0.34223 0.25814 0.24634 0.0
C463 C 0.37199 0.18874 0.32751 0.0
C464 C 0.3342 0.18063 0.25698 0.0
H465 H 0.37472 0.29468 0.24547 0.0
H466 H 0.41428 0.28795 0.268 0.0
H467 H 0.43693 0.23513 0.32935 0.0
H468 H 0.41356 0.20429 0.35038 0.0
H469 H 0.34728 0.14773 0.32253 0.0
H470 H 0.32835 0.14218 0.28323 0.0
H471 H 0.30599 0.19531 0.22061 0.0
H472 H 0.30883 0.23824 0.21641 0.0
H473 H 0.41208 0.20442 0.20886 0.0
H474 H 0.42613 0.15885 0.26004 0.0
H475 H 0.28221 0.22498 0.30708 0.0
H476 H 0.3311 0.27169 0.33375 0.0
C477 C 0.03602 0.1453 0.55176 0.0
C478 C 0.01279 0.15301 0.55243 0.0
C479 C 0.013 0.17124 0.56511 0.0
C480 C 0.03612 0.17356 0.57176 0.0
N481 N 0.05048 0.15789 0.56407 0.0
Co482 Co 0.08469 0.15444 0.57114 0.0
N483 N 0.08163 0.17235 0.5977 0.0
C484 C 0.06406 0.18661 0.6017 0.0
C485 C 0.06668 0.19715 0.62115 0.0
C486 C 0.08728 0.18913 0.62988 0.0
C487 C 0.09613 0.17405 0.6152 0.0
N488 N 0.11891 0.15131 0.57839 0.0
C489 C 0.13052 0.1548 0.5975 0.0
C490 C 0.15464 0.15084 0.59505 0.0
C491 C 0.15808 0.14486 0.5737 0.0
C492 C 0.13593 0.14549 0.56421 0.0
N493 N 0.08717 0.13643 0.54468 0.0
C494 C 0.10747 0.13191 0.5341 0.0
C495 C 0.10371 0.11826 0.51676 0.0
C496 C 0.0796 0.11408 0.51657 0.0
C497 C 0.06987 0.12534 0.53388 0.0
N498 N 0.09268 0.18062 0.55374 0.0
C499 C 0.11188 0.21251 0.52542 0.0
C500 C 0.0933 0.19876 0.5188 0.0
C501 C 0.08398 0.18307 0.5331 0.0
C502 C 0.11968 0.21053 0.54699 0.0
C503 C 0.10973 0.19482 0.56086 0.0
N504 N 0.07793 0.12781 0.58762 0.0
C505 C 0.08814 0.0903 0.59318 0.0
C506 C 0.0679 0.08693 0.60585 0.0
C507 C 0.05298 0.10488 0.60982 0.0
C508 C 0.05837 0.12525 0.60058 0.0
C509 C 0.09278 0.11055 0.5844 0.0
H510 H 0.04653 0.13873 0.60346 0.0
H511 H 0.10815 0.11183 0.57417 0.0
H512 H 0.07046 0.17222 0.52707 0.0
H513 H 0.11669 0.19357 0.57712 0.0
C514 C 0.04366 0.18693 0.58873 0.0
C515 C 0.04406 0.12657 0.53881 0.0
C516 C 0.1193 0.16324 0.61756 0.0
C517 C 0.12962 0.13714 0.54362 0.0
H518 H 0.99712 0.14615 0.54501 0.0
H519 H 0.99777 0.18079 0.57003 0.0
H520 H 0.05466 0.20874 0.62848 0.0
H521 H 0.09503 0.19405 0.64515 0.0
H522 H 0.16829 0.15223 0.60735 0.0
H523 H 0.17463 0.13986 0.56627 0.0
H524 H 0.11701 0.1113 0.50614 0.0
H525 H 0.07026 0.10392 0.50508 0.0
H526 H 0.08663 0.19945 0.50233 0.0
H527 H 0.13369 0.2209 0.5531 0.0
H528 H 0.10004 0.07706 0.58923 0.0
H529 H 0.03725 0.10322 0.61979 0.0
C530 C 0.15665 0.76769 0.75728 0.0
C531 C 0.14289 0.74922 0.75458 0.0
C532 C 0.12212 0.75269 0.76574 0.0
C533 C 0.12435 0.77294 0.77473 0.0
N534 N 0.14522 0.78238 0.76989 0.0
Co535 Co 0.15591 0.81118 0.78022 0.0
N536 N 0.13322 0.81073 0.80477 0.0
C537 C 0.11355 0.79839 0.80595 0.0
C538 C 0.10086 0.80173 0.82468 0.0
C539 C 0.11327 0.81722 0.83589 0.0
C540 C 0.13296 0.82248 0.82336 0.0
N541 N 0.16643 0.83995 0.79078 0.0
C542 C 0.16347 0.84942 0.81057 0.0
C543 C 0.17376 0.86981 0.81081 0.0
C544 C 0.18327 0.8731 0.79045 0.0
C545 C 0.1783 0.8546 0.77884 0.0
N546 N 0.17849 0.81113 0.75564 0.0
C547 C 0.18918 0.82872 0.74735 0.0
C548 C 0.20477 0.82344 0.73094 0.0
C549 C 0.20368 0.8012 0.72893 0.0
C550 C 0.18752 0.79406 0.7443 0.0
N551 N 0.13144 0.82589 0.76151 0.0
C552 C 0.10107 0.85055 0.73344 0.0
C553 C 0.11244 0.83147 0.72634 0.0
C554 C 0.12761 0.8196 0.74041 0.0
C555 C 0.10475 0.85642 0.75523 0.0
C556 C 0.11952 0.84386 0.76893 0.0
N557 N 0.18088 0.79745 0.79842 0.0
C558 C 0.22191 0.7975 0.81051 0.0
C559 C 0.21828 0.77915 0.82338 0.0
C560 C 0.19536 0.7699 0.82321 0.0
C561 C 0.17688 0.77938 0.81078 0.0
C562 C 0.20326 0.80624 0.79828 0.0
H563 H 0.15941 0.77213 0.81113 0.0
H564 H 0.20718 0.82023 0.78855 0.0
H565 H 0.13671 0.80558 0.734 0.0
H566 H 0.12172 0.84912 0.7855 0.0
C567 C 0.10991 0.78149 0.79115 0.0
C568 C 0.17995 0.77125 0.74704 0.0
C569 C 0.1498 0.8399 0.82875 0.0
C570 C 0.1879 0.84868 0.75849 0.0
H571 H 0.14739 0.73468 0.7457 0.0
H572 H 0.10773 0.74129 0.76804 0.0
H573 H 0.08497 0.79338 0.82994 0.0
H574 H 0.10826 0.824 0.85139 0.0
H575 H 0.17431 0.88109 0.82424 0.0
H576 H 0.19342 0.88697 0.78508 0.0
H577 H 0.21649 0.83427 0.72224 0.0
H578 H 0.21369 0.79137 0.71761 0.0
H579 H 0.11026 0.82607 0.70974 0.0
H580 H 0.09622 0.87073 0.76176 0.0
H581 H 0.23927 0.80502 0.80965 0.0
H582 H 0.19163 0.75567 0.83286 0.0
C583 C 0.4825 0.88397 0.04902 0.0
C584 C 0.50496 0.87479 0.04715 0.0
C585 C 0.50503 0.85668 0.06004 0.0
C586 C 0.48263 0.85571 0.06886 0.0
N587 N 0.46855 0.87205 0.06231 0.0
Co588 Co 0.43462 0.87568 0.06997 0.0
N589 N 0.43832 0.85782 0.09643 0.0
C590 C 0.45586 0.84341 0.09997 0.0
C591 C 0.45367 0.83291 0.11949 0.0
C592 C 0.43339 0.84112 0.1287 0.0
C593 C 0.42428 0.85625 0.11424 0.0
N594 N 0.40056 0.87872 0.07778 0.0
C595 C 0.38936 0.87521 0.09706 0.0
C596 C 0.36519 0.87915 0.09506 0.0
C597 C 0.36129 0.88515 0.0738 0.0
C598 C 0.38323 0.88455 0.06392 0.0
N599 N 0.43163 0.89374 0.04356 0.0
C600 C 0.41107 0.89866 0.0336 0.0
C601 C 0.41438 0.9131 0.01689 0.0
C602 C 0.43846 0.91736 0.01641 0.0
C603 C 0.44875 0.90511 0.03278 0.0
N604 N 0.42637 0.84949 0.05269 0.0
C605 C 0.40761 0.81693 0.02493 0.0
C606 C 0.42564 0.83105 0.01791 0.0
C607 C 0.43473 0.84708 0.03193 0.0
C608 C 0.40002 0.81899 0.04655 0.0
C609 C 0.40974 0.83507 0.06014 0.0
N610 N 0.44171 0.90239 0.08635 0.0
C611 C 0.43109 0.93976 0.0925 0.0
C612 C 0.45195 0.94349 0.10417 0.0
C613 C 0.46742 0.92577 0.1074 0.0
C614 C 0.4619 0.90528 0.09842 0.0
C615 C 0.42639 0.91944 0.08384 0.0
H616 H 0.47415 0.89199 0.10071 0.0
H617 H 0.41059 0.918 0.07422 0.0
H618 H 0.44787 0.85814 0.02561 0.0
H619 H 0.40302 0.83635 0.07649 0.0
C620 C 0.47564 0.84247 0.08616 0.0
C621 C 0.4747 0.90348 0.03737 0.0
C622 C 0.40111 0.86703 0.11695 0.0
C623 C 0.38914 0.89326 0.04341 0.0
H624 H 0.51976 0.88063 0.03758 0.0
H625 H 0.51994 0.84609 0.06331 0.0
H626 H 0.46568 0.82111 0.12645 0.0
H627 H 0.42593 0.8362 0.1441 0.0
H628 H 0.35182 0.87784 0.10762 0.0
H629 H 0.3446 0.89027 0.06671 0.0
H630 H 0.40079 0.92072 1.00707 0.0
H631 H 0.44717 0.92849 1.00549 0.0
H632 H 0.43206 0.83036 1.00136 0.0
H633 H 0.38639 0.80837 0.05292 0.0
H634 H 0.41873 0.9528 0.08913 0.0
H635 H 0.4837 0.92771 0.11656 0.0
C636 C 0.36278 0.7667 0.27316 0.0
C637 C 0.37641 0.7481 0.27557 0.0
C638 C 0.39722 0.75159 0.2645 0.0
C639 C 0.39514 0.77199 0.25584 0.0
N640 N 0.37431 0.7815 0.26079 0.0
Co641 Co 0.3637 0.81043 0.25075 0.0
N642 N 0.38652 0.81017 0.22627 0.0
C643 C 0.40619 0.79779 0.22505 0.0
C644 C 0.41905 0.80131 0.20645 0.0
C645 C 0.40677 0.81696 0.19537 0.0
C646 C 0.38699 0.82215 0.20785 0.0
N647 N 0.35309 0.83922 0.24039 0.0
C648 C 0.35618 0.84887 0.22071 0.0
C649 C 0.34582 0.86924 0.22061 0.0
C650 C 0.33613 0.87235 0.24093 0.0
C651 C 0.34106 0.85375 0.25238 0.0
N652 N 0.34117 0.81025 0.2754 0.0
C653 C 0.33056 0.82782 0.28388 0.0
C654 C 0.31513 0.82251 0.30039 0.0
C655 C 0.31624 0.80027 0.30225 0.0
C656 C 0.33223 0.79315 0.2867 0.0
N657 N 0.38816 0.82499 0.26965 0.0
C658 C 0.41856 0.84935 0.29803 0.0
C659 C 0.4073 0.83014 0.30485 0.0
C660 C 0.39212 0.81843 0.29064 0.0
C661 C 0.41474 0.8555 0.27633 0.0
C662 C 0.39995 0.8431 0.26249 0.0
N663 N 0.33874 0.79684 0.23237 0.0
C664 C 0.29729 0.79571 0.22143 0.0
C665 C 0.3016 0.77856 0.20718 0.0
C666 C 0.32508 0.77074 0.2057 0.0
C667 C 0.34334 0.77996 0.21855 0.0
C668 C 0.31593 0.80466 0.23359 0.0
H669 H 0.36115 0.77351 0.2173 0.0
H670 H 0.31168 0.81807 0.24404 0.0
H671 H 0.38312 0.80429 0.29686 0.0
H672 H 0.39767 0.8486 0.24601 0.0
C673 C 0.40968 0.78068 0.23961 0.0
C674 C 0.3396 0.77033 0.28364 0.0
C675 C 0.37024 0.83967 0.20257 0.0
C676 C 0.33163 0.84779 0.27276 0.0
H677 H 0.3718 0.73348 0.28424 0.0
H678 H 0.41155 0.74013 0.26206 0.0
H679 H 0.43496 0.79295 0.20118 0.0
H680 H 0.41192 0.82389 0.17997 0.0
H681 H 0.34545 0.88067 0.20731 0.0
H682 H 0.32599 0.88621 0.24641 0.0
H683 H 0.30347 0.83332 0.30922 0.0
H684 H 0.3063 0.7904 0.31358 0.0
H685 H 0.40958 0.82451 0.32135 0.0
H686 H 0.42319 0.86992 0.26998 0.0
H687 H 0.27956 0.80241 0.22297 0.0
H688 H 0.32926 0.75752 0.19479 0.0
C689 C 0.48497 0.14525 0.47902 0.0
C690 C 0.50824 0.15278 0.47782 0.0
C691 C 0.50787 0.17097 0.46513 0.0
C692 C 0.48463 0.17341 0.45889 0.0
N693 N 0.47036 0.15783 0.46685 0.0
Co694 Co 0.4361 0.15433 0.46006 0.0
N695 N 0.43899 0.17188 0.4333 0.0
C696 C 0.45643 0.18617 0.42909 0.0
C697 C 0.45363 0.19649 0.40955 0.0
C698 C 0.43305 0.18827 0.40101 0.0
C699 C 0.42442 0.17329 0.41585 0.0
N700 N 0.40184 0.15123 0.45307 0.0
C701 C 0.39014 0.15439 0.43395 0.0
C702 C 0.36603 0.15054 0.43656 0.0
C703 C 0.36271 0.14493 0.45802 0.0
C704 C 0.3849 0.14568 0.46742 0.0
N705 N 0.43383 0.13664 0.48669 0.0
C706 C 0.41362 0.13229 0.49745 0.0
C707 C 0.41752 0.11881 0.51488 0.0
C708 C 0.44164 0.11457 0.51492 0.0
C709 C 0.45123 0.12562 0.49743 0.0
N710 N 0.42825 0.18078 0.47723 0.0
C711 C 0.40916 0.21317 0.50522 0.0
C712 C 0.42762 0.19932 0.51201 0.0
C713 C 0.4369 0.18341 0.49786 0.0
C714 C 0.40142 0.21097 0.48364 0.0
C715 C 0.41129 0.19501 0.46996 0.0
N716 N 0.44268 0.1274 0.44384 0.0
C717 C 0.43204 0.0899 0.43863 0.0
C718 C 0.45246 0.08606 0.42636 0.0
C719 C 0.46769 0.10376 0.42235 0.0
C720 C 0.46239 0.12438 0.43115 0.0
C721 C 0.42757 0.11034 0.44713 0.0
H722 H 0.47445 0.13767 0.42822 0.0
H723 H 0.41214 0.11191 0.45723 0.0
H724 H 0.45036 0.17255 0.50401 0.0
H725 H 0.40432 0.1936 0.45371 0.0
C726 C 0.47691 0.18665 0.44191 0.0
C727 C 0.47702 0.12669 0.49226 0.0
C728 C 0.40138 0.16228 0.4137 0.0
C729 C 0.39138 0.13751 0.48804 0.0
H730 H 0.52411 0.14583 0.48479 0.0
H731 H 0.52305 0.18035 0.45985 0.0
H732 H 0.46553 0.20804 0.40205 0.0
H733 H 0.42517 0.19298 0.38574 0.0
H734 H 0.35234 0.15169 0.42428 0.0
H735 H 0.3462 0.14003 0.46559 0.0
H736 H 0.40431 0.11199 0.52566 0.0
H737 H 0.45107 0.1045 0.52643 0.0
H738 H 0.43424 0.20009 0.52849 0.0
H739 H 0.38751 0.22137 0.47738 0.0
H740 H 0.41991 0.07686 0.44256 0.0
H741 H 0.48362 0.1017 0.41269 0.0
C742 C 0.15528 0.26254 0.77545 0.0
C743 C 0.14147 0.28105 0.77783 0.0
C744 C 0.12096 0.27763 0.7663 0.0
C745 C 0.1234 0.2574 0.75735 0.0
N746 N 0.14421 0.24791 0.76246 0.0
Co747 Co 0.15495 0.21905 0.75219 0.0
N748 N 0.13213 0.21935 0.72767 0.0
C749 C 0.11247 0.23172 0.72641 0.0
C750 C 0.09978 0.22833 0.70769 0.0
C751 C 0.1122 0.2128 0.69653 0.0
C752 C 0.13188 0.20758 0.70909 0.0
N753 N 0.16544 0.19024 0.74171 0.0
C754 C 0.16242 0.18071 0.72194 0.0
C755 C 0.17284 0.16037 0.72167 0.0
C756 C 0.18252 0.15716 0.74198 0.0
C757 C 0.17753 0.17567 0.75357 0.0
N758 N 0.1777 0.21919 0.77676 0.0
C759 C 0.1885 0.20159 0.78498 0.0
C760 C 0.20381 0.20676 0.80162 0.0
C761 C 0.20238 0.22893 0.80394 0.0
C762 C 0.1863 0.23617 0.78851 0.0
N763 N 0.13064 0.20449 0.77114 0.0
C764 C 0.10035 0.17995 0.79935 0.0
C765 C 0.11418 0.19735 0.80703 0.0
C766 C 0.12875 0.2095 0.79278 0.0
C767 C 0.10171 0.17563 0.77695 0.0
C768 C 0.11694 0.18781 0.76331 0.0
N769 N 0.17981 0.23263 0.73374 0.0
C770 C 0.22112 0.23353 0.72236 0.0
C771 C 0.2166 0.2503 0.70775 0.0
C772 C 0.19312 0.25812 0.70637 0.0
C773 C 0.17504 0.24923 0.71965 0.0
C774 C 0.20264 0.22485 0.73489 0.0
H775 H 0.15722 0.25566 0.71845 0.0
H776 H 0.207 0.2116 0.74547 0.0
H777 H 0.13899 0.22268 0.79949 0.0
H778 H 0.11804 0.18327 0.74643 0.0
C779 C 0.10897 0.24877 0.74101 0.0
C780 C 0.17819 0.2589 0.78644 0.0
C781 C 0.14879 0.19021 0.70372 0.0
C782 C 0.18726 0.18164 0.77383 0.0
H783 H 0.14569 0.29562 0.78675 0.0
H784 H 0.10657 0.28901 0.76384 0.0
H785 H 0.08392 0.23673 0.70237 0.0
H786 H 0.10721 0.20598 0.68103 0.0
H787 H 0.1734 0.14908 0.70824 0.0
H788 H 0.19282 0.14334 0.7473 0.0
H789 H 0.21545 0.19588 0.81038 0.0
H790 H 0.212 0.23866 0.81562 0.0
H791 H 0.11375 0.20161 0.82408 0.0
H792 H 0.09165 0.16236 0.77005 0.0
H793 H 0.23887 0.22684 0.72385 0.0
H794 H 0.18879 0.27105 0.6952 0.0
C795 C 0.03445 0.88425 0.97916 0.0
C796 C 0.01115 0.87683 0.97764 0.0
C797 C 0.01154 0.85891 0.96456 0.0
C798 C 0.03482 0.85651 0.95843 0.0
N799 N 0.04911 0.87184 0.96683 0.0
Co800 Co 0.08344 0.87538 0.96029 0.0
N801 N 0.0807 0.85836 0.93311 0.0
C802 C 0.06311 0.84435 0.92843 0.0
C803 C 0.06597 0.83437 0.90871 0.0
C804 C 0.08677 0.84249 0.90054 0.0
C805 C 0.0955 0.85703 0.91579 0.0
N806 N 0.1178 0.8785 0.95362 0.0
C807 C 0.12979 0.87533 0.93465 0.0
C808 C 0.1539 0.87896 0.93762 0.0
C809 C 0.15694 0.88437 0.95917 0.0
C810 C 0.13459 0.88376 0.96824 0.0
N811 N 0.08554 0.89259 0.9873 0.0
C812 C 0.10567 0.89671 0.99828 0.0
C813 C 0.10167 0.90989 0.01594 0.0
C814 C 0.07757 0.91419 0.01591 0.0
C815 C 0.06809 0.90347 0.99814 0.0
N816 N 0.09114 0.84861 0.97692 0.0
C817 C 0.11108 0.8163 1.00435 0.0
C818 C 0.09246 0.82979 1.0115 0.0
C819 C 0.08279 0.84573 0.99763 0.0
C820 C 0.11807 0.8184 0.98256 0.0
C821 C 0.10787 0.8344 0.9692 0.0
N822 N 0.07704 0.9026 0.94459 0.0
C823 C 0.08778 0.94016 0.94011 0.0
C824 C 0.06743 0.94421 0.92782 0.0
C825 C 0.05218 0.92662 0.92343 0.0
C826 C 0.0574 0.90586 0.93188 0.0
C827 C 0.09217 0.91957 0.94826 0.0
H828 H 0.04533 0.89265 0.92865 0.0
H829 H 0.10755 0.91779 0.95839 0.0
H830 H 0.06933 0.85646 1.00405 0.0
H831 H 0.1145 0.83591 0.95285 0.0
C832 C 0.04257 0.84368 0.94114 0.0
C833 C 0.04235 0.90256 0.99279 0.0
C834 C 0.11893 0.86748 0.91419 0.0
C835 C 0.12795 0.8916 0.98895 0.0
H836 H 0.99525 0.88372 0.98461 0.0
H837 H 0.99636 0.84972 0.95893 0.0
H838 H 0.05402 0.82308 0.90089 0.0
H839 H 0.09475 0.83792 0.88527 0.0
H840 H 0.16779 0.87771 0.92554 0.0
H841 H 0.17339 0.88898 0.96702 0.0
H842 H 0.11481 0.91647 0.02695 0.0
H843 H 0.06808 0.92407 0.02754 0.0
H844 H 0.08611 0.82871 0.02805 0.0
H845 H 0.13173 0.80799 0.97589 0.0
H846 H 0.09992 0.95311 0.9443 0.0
H847 H 0.03631 0.92887 0.91375 0.0
C848 C 0.22732 0.39389 0.1453 0.0
C849 C 0.21389 0.38725 0.12758 0.0
C850 C 0.21498 0.36523 0.12698 0.0
C851 C 0.22929 0.35955 0.14402 0.0
N852 N 0.23763 0.37654 0.15547 0.0
Co853 Co 0.26037 0.37454 0.18061 0.0
N854 N 0.26656 0.34282 0.1756 0.0
C855 C 0.25448 0.33003 0.16172 0.0
C856 C 0.26205 0.30896 0.16154 0.0
C857 C 0.27988 0.3081 0.1765 0.0
C858 C 0.28229 0.32885 0.18499 0.0
N859 N 0.28252 0.37244 0.20593 0.0
C860 C 0.29565 0.3555 0.2137 0.0
C861 C 0.30709 0.36112 0.23284 0.0
C862 C 0.30047 0.38195 0.23755 0.0
C863 C 0.28552 0.388 0.22103 0.0
N864 N 0.25443 0.40652 0.18468 0.0
C865 C 0.26091 0.41794 0.20238 0.0
C866 C 0.25393 0.43922 0.20163 0.0
C867 C 0.24202 0.44147 0.18235 0.0
C868 C 0.24243 0.4214 0.17223 0.0
N869 N 0.23418 0.36757 0.20145 0.0
C870 C 0.21839 0.36515 0.2449 0.0
C871 C 0.21302 0.38323 0.23195 0.0
C872 C 0.22025 0.38372 0.21004 0.0
C873 C 0.22805 0.34709 0.23445 0.0
C874 C 0.23534 0.34848 0.21283 0.0
N875 N 0.28783 0.38133 0.16166 0.0
C876 C 0.32603 0.39904 0.15945 0.0
C877 C 0.33375 0.38461 0.14347 0.0
C878 C 0.31733 0.36942 0.13555 0.0
C879 C 0.2943 0.36834 0.14457 0.0
C880 C 0.30334 0.39708 0.1683 0.0
H881 H 0.28225 0.35631 0.13835 0.0
H882 H 0.2992 0.40762 0.18155 0.0
H883 H 0.21616 0.39804 0.2008 0.0
H884 H 0.24362 0.33426 0.20644 0.0
C885 C 0.23738 0.33869 0.14802 0.0
C886 C 0.22904 0.41682 0.15199 0.0
C887 C 0.29687 0.33355 0.2042 0.0
C888 C 0.27475 0.40832 0.21865 0.0
H889 H 0.20442 0.3972 0.11603 0.0
H890 H 0.20699 0.35464 0.11503 0.0
H891 H 0.25534 0.29577 0.15173 0.0
H892 H 0.2893 0.29357 0.18121 0.0
H893 H 0.31866 0.35105 0.24259 0.0
H894 H 0.3059 0.39152 0.2514 0.0
H895 H 0.25709 0.45165 0.21367 0.0
H896 H 0.23343 0.45609 0.17669 0.0
H897 H 0.20463 0.39741 0.23887 0.0
H898 H 0.23108 0.33215 0.24324 0.0
H899 H 0.33801 0.4111 0.16606 0.0
H900 H 0.32237 0.35823 0.12281 0.0
C901 C 0.72636 0.13362 0.88606 0.0
C902 C 0.71341 0.14009 0.90414 0.0
C903 C 0.71474 0.16209 0.90509 0.0
C904 C 0.72872 0.16791 0.88788 0.0
N905 N 0.73664 0.15102 0.87601 0.0
Co906 Co 0.75883 0.15321 0.85051 0.0
N907 N 0.76558 0.18473 0.85602 0.0
C908 C 0.75378 0.19745 0.87017 0.0
C909 C 0.76161 0.21843 0.87061 0.0
C910 C 0.77934 0.21929 0.85554 0.0
C911 C 0.78145 0.19863 0.84677 0.0
N912 N 0.78049 0.15551 0.82486 0.0
C913 C 0.79388 0.17237 0.81732 0.0
C914 C 0.80468 0.16705 0.7978 0.0
C915 C 0.79741 0.14651 0.79264 0.0
C916 C 0.78272 0.14032 0.80929 0.0
N917 N 0.75225 0.12143 0.84585 0.0
C918 C 0.75796 0.11036 0.82771 0.0
C919 C 0.75062 0.08918 0.82813 0.0
C920 C 0.73927 0.08666 0.84765 0.0
C921 C 0.74034 0.10646 0.85824 0.0
N922 N 0.73233 0.16093 0.83035 0.0
C923 C 0.71568 0.16326 0.78723 0.0
C924 C 0.70972 0.14564 0.8006 0.0
C925 C 0.71743 0.14523 0.82238 0.0
C926 C 0.72639 0.18109 0.79717 0.0
C927 C 0.73411 0.17978 0.81865 0.0
N928 N 0.78657 0.14558 0.86877 0.0
C929 C 0.82422 0.12677 0.8701 0.0
C930 C 0.83261 0.14066 0.88624 0.0
C931 C 0.81695 0.15633 0.8945 0.0
C932 C 0.79379 0.15819 0.88588 0.0
C933 C 0.80146 0.12954 0.86161 0.0
H934 H 0.78228 0.17051 0.8924 0.0
H935 H 0.79679 0.11937 0.84822 0.0
H936 H 0.71303 0.13121 0.83195 0.0
H937 H 0.7434 0.19365 0.82459 0.0
C938 C 0.73687 0.18876 0.88403 0.0
C939 C 0.72755 0.11083 0.87885 0.0
C940 C 0.79596 0.19398 0.82747 0.0
C941 C 0.77155 0.12014 0.81138 0.0
H942 H 0.70406 0.13004 0.91568 0.0
H943 H 0.70709 0.17256 0.91734 0.0
H944 H 0.75519 0.23155 0.88069 0.0
H945 H 0.7889 0.23377 0.851 0.0
H946 H 0.81628 0.17711 0.78809 0.0
H947 H 0.80228 0.13721 0.77842 0.0
H948 H 0.7532 0.077 0.81573 0.0
H949 H 0.73057 0.07205 0.85318 0.0
H950 H 0.70055 0.13168 0.79409 0.0
H951 H 0.73 0.19571 0.78804 0.0
H952 H 0.83571 0.11451 0.86313 0.0
H953 H 0.82267 0.16726 0.90722 0.0
C954 C 0.11472 0.50394 0.01814 0.0
C955 C 0.12815 0.50078 0.99949 0.0
C956 C 0.14902 0.51189 1.00241 0.0
C957 C 0.14719 0.52128 0.02255 0.0
N958 N 0.12645 0.51677 0.03244 0.0
Co959 Co 0.1166 0.52748 0.06141 0.0
N960 N 0.13957 0.55173 0.06025 0.0
C961 C 0.15892 0.55265 0.04745 0.0
C962 C 0.17174 0.57135 0.05023 0.0
C963 C 0.15973 0.58286 0.06582 0.0
C964 C 0.14014 0.57049 0.07168 0.0
N965 N 0.10712 0.53833 0.09041 0.0
C966 C 0.11045 0.55817 0.09958 0.0
C967 C 0.10069 0.55874 0.12022 0.0
C968 C 0.09108 0.53855 0.12396 0.0
C969 C 0.09548 0.5267 0.10546 0.0
N970 N 0.0935 0.50331 0.06201 0.0
C971 C 0.08311 0.49539 0.07995 0.0
C972 C 0.06738 0.47897 0.07521 0.0
C973 C 0.06809 0.47654 0.05296 0.0
C974 C 0.08418 0.49166 0.04525 0.0
N975 N 0.14109 0.50847 0.07575 0.0
C976 C 0.17141 0.48024 0.10038 0.0
C977 C 0.1569 0.47247 0.08345 0.0
C978 C 0.14234 0.48672 0.07123 0.0
C979 C 0.17074 0.50273 0.10415 0.0
C980 C 0.15548 0.51637 0.09194 0.0
N981 N 0.09158 0.54593 0.04808 0.0
C982 C 0.05077 0.55863 0.049 0.0
C983 C 0.05411 0.57131 0.03044 0.0
C984 C 0.07679 0.57074 0.02067 0.0
C985 C 0.0953 0.55809 0.02981 0.0
C986 C 0.06945 0.54622 0.05743 0.0
H987 H 0.11257 0.55812 0.02213 0.0
H988 H 0.06575 0.53669 0.07161 0.0
H989 H 0.13157 0.47993 0.05842 0.0
H990 H 0.15489 0.53334 0.09612 0.0
C991 C 0.16199 0.53765 0.03061 0.0
C992 C 0.09153 0.49375 0.02224 0.0
C993 C 0.12369 0.5762 0.08935 0.0
C994 C 0.08522 0.50657 0.09986 0.0
H995 H 0.12337 0.49154 0.98523 0.0
H996 H 0.16325 0.51381 0.99074 0.0
H997 H 0.18742 0.57643 0.04142 0.0
H998 H 0.16492 0.59844 0.07226 0.0
H999 H 0.10044 0.57232 0.13132 0.0
H1000 H 0.08113 0.53349 0.1381 0.0
H1001 H 0.05593 0.47044 0.08643 0.0
H1002 H 0.05796 0.46501 0.04349 0.0
H1003 H 0.15677 0.45536 0.07961 0.0
H1004 H 0.18137 0.50971 0.11702 0.0
H1005 H 0.03359 0.55801 0.05692 0.0
H1006 H 0.08032 0.58022 1.00626 0.0
C1007 C 0.79314 0.89515 0.38844 0.0
C1008 C 0.80532 0.88879 0.407 0.0
C1009 C 0.80357 0.86684 0.40821 0.0
C1010 C 0.79013 0.86094 0.39066 0.0
N1011 N 0.78293 0.87773 0.3783 0.0
Co1012 Co 0.76185 0.87536 0.35199 0.0
N1013 N 0.75508 0.84378 0.35723 0.0
C1014 C 0.76601 0.83123 0.37208 0.0
C1015 C 0.75855 0.81014 0.37204 0.0
C1016 C 0.74197 0.80901 0.35594 0.0
C1017 C 0.74011 0.82964 0.34707 0.0
N1018 N 0.74142 0.87284 0.32549 0.0
C1019 C 0.72875 0.8558 0.31728 0.0
C1020 C 0.71877 0.86107 0.29738 0.0
C1021 C 0.72579 0.88178 0.29271 0.0
C1022 C 0.73951 0.88812 0.30999 0.0
N1023 N 0.76825 0.90725 0.34768 0.0
C1024 C 0.76271 0.91842 0.32956 0.0
C1025 C 0.76994 0.93962 0.33019 0.0
C1026 C 0.78103 0.94209 0.34984 0.0
C1027 C 0.77994 0.92223 0.36028 0.0
N1028 N 0.78936 0.86782 0.33279 0.0
C1029 C 0.8043 0.86422 0.28935 0.0
C1030 C 0.80964 0.88279 0.30153 0.0
C1031 C 0.80283 0.8839 0.32353 0.0
C1032 C 0.7961 0.84613 0.30072 0.0
C1033 C 0.78926 0.84813 0.32243 0.0
N1034 N 0.73322 0.8827 0.36927 0.0
C1035 C 0.69506 0.90072 0.36921 0.0
C1036 C 0.6864 0.88692 0.38531 0.0
C1037 C 0.70223 0.87183 0.39436 0.0
C1038 C 0.7257 0.87027 0.38639 0.0
C1039 C 0.71818 0.8983 0.36144 0.0
H1040 H 0.73729 0.85835 0.39349 0.0
H1041 H 0.72311 0.9084 0.3481 0.0
H1042 H 0.80673 0.89859 0.33223 0.0
H1043 H 0.78214 0.83384 0.32976 0.0
C1044 C 0.78211 0.84007 0.38664 0.0
C1045 C 0.7925 0.91787 0.38101 0.0
C1046 C 0.72644 0.83416 0.32727 0.0
C1047 C 0.75 0.90851 0.31271 0.0
H1048 H 0.81444 0.8989 0.41864 0.0
H1049 H 0.81066 0.85645 0.42078 0.0
H1050 H 0.76453 0.7971 0.38243 0.0
H1051 H 0.73299 0.79439 0.35084 0.0
H1052 H 0.70785 0.85089 0.28715 0.0
H1053 H 0.72137 0.8911 0.2784 0.0
H1054 H 0.76761 0.95182 0.31777 0.0
H1055 H 0.78964 0.9567 0.35551 0.0
H1056 H 0.81762 0.8968 0.29391 0.0
H1057 H 0.79376 0.83071 0.2926 0.0
H1058 H 0.68356 0.91267 0.36174 0.0
H1059 H 0.69645 0.86113 0.40722 0.0
C1060 C 0.9018 0.02837 0.02194 0.0
C1061 C 0.88354 0.03889 1.01097 0.0
C1062 C 0.86309 0.02739 1.01489 0.0
C1063 C 0.86966 1.01151 0.02924 0.0
N1064 N 0.89278 1.01249 0.03464 0.0
Co1065 Co 0.90509 1.0011 0.06236 0.0
N1066 N 0.8819 0.97712 0.06204 0.0
C1067 C 0.86103 0.97745 0.05136 0.0
C1068 C 0.84789 0.95901 0.05461 0.0
C1069 C 0.86128 0.94648 0.0684 0.0
C1070 C 0.88188 0.95806 0.07293 0.0
N1071 N 0.91662 0.98967 0.09035 0.0
C1072 C 0.91357 0.96975 0.09943 0.0
C1073 C 0.92447 0.96898 0.1196 0.0
C1074 C 0.93437 0.98913 0.12314 0.0
C1075 C 0.92904 1.00117 0.10499 0.0
N1076 N 0.92822 0.02519 0.06196 0.0
C1077 C 0.93881 0.0334 0.07966 0.0
C1078 C 0.95265 0.05106 0.07473 0.0
C1079 C 0.95054 0.05388 0.05257 0.0
C1080 C 0.93612 0.03729 0.04489 0.0
N1081 N 0.88172 0.01995 0.07848 0.0
C1082 C 0.85128 0.04772 0.10347 0.0
C1083 C 0.86544 0.0557 0.08645 0.0
C1084 C 0.88012 0.04172 0.07414 0.0
C1085 C 0.85261 0.02528 0.1074 0.0
C1086 C 0.86795 1.01185 0.095 0.0
N1087 N 0.92916 0.98292 0.04731 0.0
C1088 C 0.97043 0.97156 0.04525 0.0
C1089 C 0.96558 0.95759 0.02803 0.0
C1090 C 0.94189 0.95648 0.02057 0.0
C1091 C 0.92397 0.96947 0.03028 0.0
C1092 C 0.95217 0.98374 0.0547 0.0
H1093 H 0.90597 0.96856 0.02419 0.0
H1094 H 0.95689 0.99381 0.06826 0.0
H1095 H 0.89048 0.04877 0.06125 0.0
H1096 H 0.86892 0.99488 0.09911 0.0
C1097 C 0.85537 0.99471 0.03737 0.0
C1098 C 0.927 0.03507 0.02218 0.0
C1099 C 0.89914 0.952 0.08988 0.0
C1100 C 0.9382 0.02179 0.09945 0.0
H1101 H 0.88487 0.05339 1.0012 0.0
H1102 H 0.84555 0.03048 1.00835 0.0
H1103 H 0.8307 0.9551 0.04778 0.0
H1104 H 0.85599 0.93101 0.07504 0.0
H1105 H 0.92504 0.95537 0.13064 0.0
H1106 H 0.94484 0.99412 0.137 0.0
H1107 H 0.96334 0.06058 0.08578 0.0
H1108 H 0.95809 0.06712 0.04343 0.0
H1109 H 0.86511 0.07279 0.08253 0.0
H1110 H 0.84234 0.01816 0.12042 0.0
H1111 H 0.9883 0.97279 0.05171 0.0
H1112 H 0.93729 0.94576 1.00731 0.0
C1113 C 0.29476 0.63474 0.64636 0.0
C1114 C 0.30732 0.64094 0.62798 0.0
C1115 C 0.30495 0.66281 0.6262 0.0
C1116 C 0.29084 0.66878 0.64328 0.0
N1117 N 0.28378 0.65212 0.65585 0.0
Co1118 Co 0.26221 0.65457 0.6818 0.0
N1119 N 0.25486 0.68593 0.67587 0.0
C1120 C 0.26577 0.69841 0.66096 0.0
C1121 C 0.25764 0.71929 0.66035 0.0
C1122 C 0.24067 0.72039 0.6761 0.0
C1123 C 0.23929 0.69995 0.68545 0.0
N1124 N 0.24121 0.65717 0.70791 0.0
C1125 C 0.22799 0.67412 0.71559 0.0
C1126 C 0.21755 0.66896 0.73531 0.0
C1127 C 0.22492 0.64847 0.74049 0.0
C1128 C 0.23929 0.64213 0.72364 0.0
N1129 N 0.26936 0.62293 0.68693 0.0
C1130 C 0.26397 0.61207 0.70526 0.0
C1131 C 0.27173 0.59101 0.70516 0.0
C1132 C 0.28309 0.58833 0.68568 0.0
C1133 C 0.28162 0.60794 0.67481 0.0
N1134 N 0.28916 0.66292 0.70109 0.0
C1135 C 0.30561 0.6656 0.74412 0.0
C1136 C 0.31167 0.64788 0.73091 0.0
C1137 C 0.3042 0.64738 0.70911 0.0
C1138 C 0.29518 0.68347 0.73398 0.0
C1139 C 0.28753 0.68197 0.71249 0.0
N1140 N 0.23407 0.6463 0.6643 0.0
C1141 C 0.19673 0.62697 0.66399 0.0
C1142 C 0.18774 0.64043 0.64779 0.0
C1143 C 0.20291 0.65613 0.63895 0.0
C1144 C 0.22622 0.65847 0.64711 0.0
C1145 C 0.21961 0.63021 0.67202 0.0
H1146 H 0.23736 0.67078 0.6401 0.0
H1147 H 0.22475 0.62033 0.68546 0.0
H1148 H 0.30876 0.63334 0.69962 0.0
H1149 H 0.27844 0.69585 0.70627 0.0
C1150 C 0.28229 0.68958 0.64678 0.0
C1151 C 0.29458 0.61222 0.65432 0.0
C1152 C 0.22582 0.69569 0.70543 0.0
C1153 C 0.25054 0.62199 0.72163 0.0
H1154 H 0.31719 0.63076 0.61688 0.0
H1155 H 0.31219 0.67309 0.6136 0.0
H1156 H 0.26342 0.73222 0.64974 0.0
H1157 H 0.23115 0.7349 0.68069 0.0
H1158 H 0.20615 0.67914 0.74514 0.0
H1159 H 0.22038 0.63932 0.75487 0.0
H1160 H 0.26951 0.57903 0.7178 0.0
H1161 H 0.29214 0.57378 0.68039 0.0
H1162 H 0.32067 0.63388 0.73753 0.0
H1163 H 0.29169 0.69823 0.74296 0.0
H1164 H 0.18563 0.61464 0.67133 0.0
H1165 H 0.19673 0.6667 0.62612 0.0
C1166 C 0.10555 0.53171 0.50327 0.0
C1167 C 0.12023 0.54222 0.51806 0.0
C1168 C 0.14239 0.53306 0.51613 0.0
C1169 C 0.1402 0.51789 0.49996 0.0
N1170 N 0.11813 0.51705 0.49161 0.0
Co1171 Co 0.10962 0.50157 0.46466 0.0
N1172 N 0.13619 0.48077 0.46822 0.0
C1173 C 0.15548 0.48388 0.48074 0.0
C1174 C 0.17119 0.46685 0.47987 0.0
C1175 C 0.16121 0.45222 0.46574 0.0
C1176 C 0.13993 0.46121 0.45871 0.0
N1177 N 0.10275 0.48697 0.43664 0.0
C1178 C 0.11024 0.4675 0.4289 0.0
C1179 C 0.10091 0.46366 0.40843 0.0
C1180 C 0.08707 0.48132 0.40337 0.0
C1181 C 0.08872 0.49498 0.42094 0.0
N1182 N 0.08224 0.52179 0.46241 0.0
C1183 C 0.06797 0.52353 0.44496 0.0
C1184 C 0.04597 0.53152 0.45031 0.0
C1185 C 0.04657 0.53511 0.47229 0.0
C1186 C 0.06946 0.5304 0.47929 0.0
N1187 N 0.131 0.52191 0.44826 0.0
C1188 C 0.16065 0.55072 0.42372 0.0
C1189 C 0.14316 0.55844 0.43821 0.0
C1190 C 0.12875 0.54396 0.45026 0.0
C1191 C 0.16294 0.52809 0.42216 0.0
C1192 C 0.14797 0.51414 0.43421 0.0
N1193 N 0.08738 0.48145 0.48049 0.0
C1194 C 0.05219 0.45853 0.47934 0.0
C1195 C 0.04918 0.45907 0.50195 0.0
C1196 C 0.0669 0.4705 0.51359 0.0
C1197 C 0.08612 0.48064 0.50273 0.0
C1198 C 0.07034 0.47021 0.46914 0.0
H1199 H 0.09933 0.48851 0.51262 0.0
H1200 H 0.06946 0.4703 0.45181 0.0
H1201 H 0.1157 0.55068 0.46121 0.0
H1202 H 0.15011 0.49694 0.4319 0.0
C1203 C 0.15703 0.50206 0.49436 0.0
C1204 C 0.07958 0.53496 0.50145 0.0
C1205 C 0.12552 0.45225 0.44091 0.0
C1206 C 0.07288 0.5118 0.42593 0.0
H1207 H 0.11532 0.5548 0.52945 0.0
H1208 H 0.15793 0.53652 0.52588 0.0
H1209 H 0.1878 0.46516 0.48857 0.0
H1210 H 0.16908 0.43706 0.46061 0.0
H1211 H 0.10321 0.44932 0.39855 0.0
H1212 H 0.07573 0.48315 0.38929 0.0
H1213 H 0.03041 0.53219 0.43999 0.0
H1214 H 0.03114 0.53887 0.48193 0.0
H1215 H 0.14073 0.57569 0.44047 0.0
H1216 H 0.17594 0.52109 0.41125 0.0
H1217 H 0.0403 0.44946 0.46901 0.0
H1218 H 0.06599 0.47244 0.53095 0.0
C1219 C 0.40445 0.50532 1.01359 0.0
C1220 C 0.39073 0.50242 0.03209 0.0
C1221 C 0.36992 0.51356 0.02877 0.0
C1222 C 0.37209 0.5227 1.00856 0.0
N1223 N 0.39296 0.51799 0.999 0.0
Co1224 Co 0.40349 0.5284 0.97014 0.0
N1225 N 0.38063 0.5528 0.97075 0.0
C1226 C 0.36098 0.55385 0.98319 0.0
C1227 C 0.34813 0.57247 0.97995 0.0
C1228 C 0.3604 0.58376 0.96442 0.0
C1229 C 0.38016 0.57135 0.95903 0.0
N1230 N 0.41392 0.53908 0.94136 0.0
C1231 C 0.41082 0.55885 0.93198 0.0
C1232 C 0.42112 0.55924 0.91155 0.0
C1233 C 0.43079 0.539 0.90813 0.0
C1234 C 0.4259 0.52731 0.9266 0.0
N1235 N 0.42619 0.50392 0.96999 0.0
C1236 C 0.43688 0.49576 0.95228 0.0
C1237 C 0.45248 0.47934 0.95742 0.0
C1238 C 0.4514 0.47719 0.97968 0.0
C1239 C 0.43522 0.49248 0.98699 0.0
N1240 N 0.37906 0.50963 0.95538 0.0
C1241 C 0.34846 0.4815 0.93087 0.0
C1242 C 0.35209 0.50327 0.92498 0.0
C1243 C 0.36701 0.51696 0.93743 0.0
C1244 C 0.36005 0.4745 0.94991 0.0
C1245 C 0.3753 0.48858 0.96169 0.0
N1246 N 0.42844 0.54666 0.98393 0.0
C1247 C 0.46963 0.55838 0.98446 0.0
C1248 C 0.46583 0.57153 1.00266 0.0
C1249 C 0.44251 0.57197 1.01122 0.0
C1250 C 0.42416 0.55945 1.00167 0.0
C1251 C 0.45099 0.54625 0.97547 0.0
H1252 H 0.40652 0.56014 1.00859 0.0
H1253 H 0.45506 0.53639 0.96158 0.0
H1254 H 0.36915 0.53349 0.93213 0.0
H1255 H 0.3845 0.48221 0.97569 0.0
C1256 C 0.35751 0.53904 1.00011 0.0
C1257 C 0.42772 0.49511 1.00987 0.0
C1258 C 0.39692 0.57686 0.94156 0.0
C1259 C 0.43559 0.507 0.93237 0.0
H1260 H 0.39528 0.49336 0.04652 0.0
H1261 H 0.35552 0.51568 0.04023 0.0
H1262 H 0.33223 0.57762 0.9884 0.0
H1263 H 0.35525 0.59924 0.9577 0.0
H1264 H 0.42153 0.57269 0.90031 0.0
H1265 H 0.44096 0.53375 0.89417 0.0
H1266 H 0.46421 0.47074 0.94648 0.0
H1267 H 0.46143 0.46584 0.98944 0.0
H1268 H 0.34338 0.50979 0.91074 0.0
H1269 H 0.35796 0.45795 0.95536 0.0
H1270 H 0.48713 0.55717 0.97722 0.0
H1271 H 0.4383 0.58215 0.02499 0.0
C1272 C 0.73083 0.79808 0.89313 0.0
C1273 C 0.75402 0.79696 0.90078 0.0
C1274 C 0.75494 0.80964 0.91906 0.0
C1275 C 0.73234 0.81773 0.92157 0.0
N1276 N 0.71734 0.81087 0.90602 0.0
Co1277 Co 0.68329 0.81859 0.90358 0.0
N1278 N 0.68788 0.84513 0.92112 0.0
C1279 C 0.70604 0.84871 0.93491 0.0
C1280 C 0.70434 0.86825 0.94541 0.0
C1281 C 0.68375 0.87745 0.93788 0.0
C1282 C 0.67397 0.86295 0.92312 0.0
N1283 N 0.64917 0.82652 0.90169 0.0
C1284 C 0.63824 0.84587 0.90542 0.0
C1285 C 0.6139 0.84394 0.90238 0.0
C1286 C 0.60965 0.82266 0.89674 0.0
C1287 C 0.63155 0.81268 0.89665 0.0
N1288 N 0.67938 0.79215 0.88589 0.0
C1289 C 0.65867 0.78203 0.88203 0.0
C1290 C 0.66151 0.76474 0.86813 0.0
C1291 C 0.68544 0.76413 0.86309 0.0
C1292 C 0.696 0.78111 0.87419 0.0
N1293 N 0.67599 0.80156 0.93025 0.0
C1294 C 0.6574 0.77359 0.96283 0.0
C1295 C 0.67536 0.76671 0.94849 0.0
C1296 C 0.68436 0.78082 0.93247 0.0
C1297 C 0.64994 0.79525 0.96106 0.0
C1298 C 0.65961 0.80895 0.94501 0.0
N1299 N 0.68939 0.83451 0.8763 0.0
C1300 C 0.67744 0.83938 0.83897 0.0
C1301 C 0.69868 0.8499 0.83396 0.0
C1302 C 0.71519 0.85302 0.85089 0.0
C1303 C 0.71007 0.84543 0.87206 0.0
C1304 C 0.67319 0.83196 0.8599 0.0
H1305 H 0.7231 0.84767 0.88475 0.0
H1306 H 0.65708 0.82301 0.86227 0.0
H1307 H 0.69733 0.77455 0.92118 0.0
H1308 H 0.65293 0.82529 0.94395 0.0
C1309 C 0.72592 0.83502 0.93505 0.0
C1310 C 0.72184 0.78605 0.87433 0.0
C1311 C 0.65045 0.86572 0.91304 0.0
C1312 C 0.63699 0.792 0.88806 0.0
H1313 H 0.76874 0.78804 0.89383 0.0
H1314 H 0.77052 0.81342 0.92864 0.0
H1315 H 0.71689 0.87527 0.95672 0.0
H1316 H 0.67656 0.89288 0.94299 0.0
H1317 H 0.60066 0.85655 0.90408 0.0
H1318 H 0.59271 0.8156 0.89236 0.0
H1319 H 0.6477 0.7545 0.8615 0.0
H1320 H 0.69406 0.75269 0.85236 0.0
H1321 H 0.68174 0.75017 0.94896 0.0
H1322 H 0.63642 0.80156 0.97187 0.0
H1323 H 0.66444 0.83587 0.82649 0.0
H1324 H 0.73198 0.86099 0.84775 0.0
C1325 C 0.54381 0.39736 0.14736 0.0
C1326 C 0.56036 0.38194 0.1409 0.0
C1327 C 0.55972 0.38122 0.1188 0.0
C1328 C 0.54308 0.39631 0.1129 0.0
N1329 N 0.53293 0.40663 0.12981 0.0
Co1330 Co 0.50948 0.43106 0.1273 0.0
N1331 N 0.50408 0.42565 0.0955 0.0
C1332 C 0.51711 0.4123 0.08293 0.0
C1333 C 0.50988 0.41167 0.06172 0.0
C1334 C 0.49126 0.4258 0.06056 0.0
C1335 C 0.48812 0.43432 0.08125 0.0
N1336 N 0.4867 0.4558 0.12466 0.0
C1337 C 0.47348 0.46295 0.10748 0.0
C1338 C 0.46136 0.4818 0.11278 0.0
C1339 C 0.46763 0.48697 0.13363 0.0
C1340 C 0.48307 0.47098 0.14002 0.0
N1341 N 0.51473 0.43559 0.15936 0.0
C1342 C 0.50753 0.45315 0.17058 0.0
C1343 C 0.51332 0.45228 0.1922 0.0
C1344 C 0.52527 0.43311 0.19486 0.0
C1345 C 0.52636 0.42331 0.17462 0.0
N1346 N 0.53524 0.45222 0.12058 0.0
C1347 C 0.55173 0.49526 0.11876 0.0
C1348 C 0.55731 0.48191 0.1365 0.0
C1349 C 0.54963 0.46018 0.13671 0.0
C1350 C 0.54137 0.48544 0.10068 0.0
C1351 C 0.53362 0.46404 0.10178 0.0
N1352 N 0.48237 0.41169 0.13384 0.0
C1353 C 0.44301 0.41065 0.14938 0.0
C1354 C 0.43573 0.39515 0.13431 0.0
C1355 C 0.45302 0.38622 0.1205 0.0
C1356 C 0.4764 0.3946 0.1207 0.0
C1357 C 0.4662 0.41851 0.14899 0.0
H1358 H 0.48905 0.38822 0.10922 0.0
H1359 H 0.4701 0.4315 0.1599 0.0
H1360 H 0.55371 0.45061 0.15083 0.0
H1361 H 0.52447 0.45826 0.08774 0.0
C1362 C 0.53517 0.39978 0.09183 0.0
C1363 C 0.54019 0.40328 0.17033 0.0
C1364 C 0.47286 0.45317 0.08559 0.0
C1365 C 0.4935 0.46903 0.16058 0.0
H1366 H 0.57198 0.37232 0.15104 0.0
H1367 H 0.56999 0.37074 0.10827 0.0
H1368 H 0.51739 0.40221 0.04861 0.0
H1369 H 0.4819 0.43008 0.04584 0.0
H1370 H 0.44955 0.49107 0.10249 0.0
H1371 H 0.4616 0.50073 0.14301 0.0
H1372 H 0.50904 0.46403 0.20464 0.0
H1373 H 0.53263 0.42721 0.20995 0.0
H1374 H 0.56617 0.4884 0.15067 0.0
H1375 H 0.53802 0.49463 0.08601 0.0
H1376 H 0.43039 0.41763 0.1607 0.0
H1377 H 0.44822 0.37387 0.10883 0.0
C1378 C 0.78478 0.23069 0.39676 0.0
C1379 C 0.76221 0.23265 0.40572 0.0
C1380 C 0.76189 0.21986 0.4239 0.0
C1381 C 0.78425 0.211 0.42516 0.0
N1382 N 0.79856 0.21746 0.40893 0.0
Co1383 Co 0.83257 0.20982 0.40582 0.0
N1384 N 0.82862 0.18344 0.42374 0.0
C1385 C 0.81077 0.17991 0.43786 0.0
C1386 C 0.81279 0.16048 0.4485 0.0
C1387 C 0.83329 0.15131 0.44073 0.0
C1388 C 0.84272 0.16571 0.42572 0.0
N1389 N 0.86676 0.20211 0.40354 0.0
C1390 C 0.87802 0.18296 0.40746 0.0
C1391 C 0.90227 0.18507 0.40402 0.0
C1392 C 0.90615 0.20625 0.39791 0.0
C1393 C 0.88413 0.216 0.39796 0.0
N1394 N 0.83578 0.23603 0.38758 0.0
C1395 C 0.8564 0.24589 0.38277 0.0
C1396 C 0.85328 0.26234 0.368 0.0
C1397 C 0.82926 0.26274 0.3634 0.0
C1398 C 0.8188 0.2466 0.37579 0.0
N1399 N 0.84025 0.22725 0.43212 0.0
C1400 C 0.85912 0.25553 0.46421 0.0
C1401 C 0.84099 0.26227 0.45004 0.0
C1402 C 0.83191 0.24802 0.43417 0.0
C1403 C 0.86637 0.23378 0.46278 0.0
C1404 C 0.85663 0.21996 0.4469 0.0
N1405 N 0.82607 0.19345 0.37885 0.0
C1406 C 0.83801 0.18725 0.34168 0.0
C1407 C 0.81617 0.17784 0.33672 0.0
C1408 C 0.79953 0.1755 0.35367 0.0
C1409 C 0.80497 0.18317 0.37474 0.0
C1410 C 0.84245 0.19504 0.36244 0.0
H1411 H 0.79182 0.18158 0.38742 0.0
H1412 H 0.85888 0.20351 0.36459 0.0
H1413 H 0.81886 0.25419 0.42291 0.0
H1414 H 0.86322 0.20357 0.446 0.0
C1415 C 0.79101 0.19373 0.4385 0.0
C1416 C 0.79279 0.24205 0.37716 0.0
C1417 C 0.86626 0.16308 0.41559 0.0
C1418 C 0.87825 0.23626 0.38876 0.0
H1419 H 0.74749 0.24219 0.39965 0.0
H1420 H 0.74682 0.21664 0.43434 0.0
H1421 H 0.80056 0.15357 0.46015 0.0
H1422 H 0.84071 0.13599 0.44591 0.0
H1423 H 0.91569 0.17262 0.40571 0.0
H1424 H 0.9229 0.21337 0.39305 0.0
H1425 H 0.86697 0.27204 0.36043 0.0
H1426 H 0.82072 0.27347 0.35196 0.0
H1427 H 0.83456 0.2788 0.45054 0.0
H1428 H 0.87981 0.22751 0.47369 0.0
H1429 H 0.85129 0.18975 0.32919 0.0
H1430 H 0.78237 0.16816 0.3506 0.0
C1431 C 0.97654 0.63526 0.6458 0.0
C1432 C 0.96406 0.6536 0.63942 0.0
C1433 C 0.96927 0.657 0.6181 0.0
C1434 C 0.98432 0.64049 0.61246 0.0
N1435 N 0.98917 0.62668 0.62885 0.0
Co1436 Co 1.00821 0.59922 0.62598 0.0
N1437 N 0.01787 0.606 0.59547 0.0
C1438 C 0.01292 0.62438 0.58467 0.0
C1439 C 0.0272 0.62763 0.56695 0.0
C1440 C 0.04158 0.6098 0.56606 0.0
C1441 C 0.03429 0.59612 0.58266 0.0
N1442 N 0.02583 0.57107 0.62236 0.0
C1443 C 0.03514 0.56155 0.60409 0.0
C1444 C 0.03947 0.5397 0.60774 0.0
C1445 C 0.03338 0.53549 0.62877 0.0
C1446 C 0.02513 0.55472 0.63685 0.0
N1447 N 0.99987 0.59364 0.65731 0.0
C1448 C 1.00481 0.57526 0.66817 0.0
C1449 C 0.99765 0.5757 0.68945 0.0
C1450 C 0.98715 0.59552 0.69226 0.0
C1451 C 0.9881 0.60602 0.67239 0.0
N1452 N 0.97964 0.58296 0.61599 0.0
C1453 C 0.96404 0.54024 0.60941 0.0
C1454 C 0.95843 0.55144 0.62859 0.0
C1455 C 0.96536 0.57315 0.63109 0.0
C1456 C 0.97271 0.55264 0.59206 0.0
C1457 C 0.97992 0.57409 0.59557 0.0
N1458 N 0.03781 0.61379 0.63568 0.0
C1459 C 0.07738 0.60842 0.64993 0.0
C1460 C 0.08571 0.62682 0.63914 0.0
C1461 C 0.06891 0.64004 0.62877 0.0
C1462 C 0.04501 0.63335 0.62745 0.0
C1463 C 0.05357 0.60231 0.6481 0.0
H1464 H 0.03283 0.64359 0.61884 0.0
H1465 H 0.04848 0.58752 0.65583 0.0
H1466 H 0.9612 0.58099 0.64622 0.0
H1467 H 0.98785 0.58238 0.58207 0.0
C1468 C 0.99621 0.63894 0.59269 0.0
C1469 C 0.97561 0.62673 0.66814 0.0
C1470 C 0.03916 0.57262 0.58295 0.0
C1471 C 0.01549 0.55777 0.65755 0.0
H1472 H 0.95241 0.66362 0.64912 0.0
H1473 H 0.9632 0.67024 0.60801 0.0
H1474 H 0.02725 0.64136 0.55604 0.0
H1475 H 0.05461 0.60647 0.55357 0.0
H1476 H 0.04527 0.52752 0.59636 0.0
H1477 H 0.03389 0.51997 0.63691 0.0
H1478 H 0.99944 0.56298 0.7014 0.0
H1479 H 0.97897 0.60125 0.70708 0.0
H1480 H 0.95015 0.54327 0.64216 0.0
H1481 H 0.97505 0.54561 0.5761 0.0
H1482 H 0.08943 0.59825 0.65911 0.0
H1483 H 0.07436 0.65486 0.62083 0.0
C1484 C 0.7327 0.23034 0.63647 0.0
C1485 C 0.7557 0.23163 0.62841 0.0
C1486 C 0.75631 0.21914 0.60999 0.0
C1487 C 0.7337 0.21104 0.60776 0.0
N1488 N 0.71897 0.2177 0.6236 0.0
Co1489 Co 0.68491 0.21009 0.62622 0.0
N1490 N 0.68908 0.18381 0.60815 0.0
C1491 C 0.70712 0.18031 0.59422 0.0
C1492 C 0.70524 0.1609 0.58349 0.0
C1493 C 0.68465 0.15171 0.59103 0.0
C1494 C 0.67505 0.16607 0.60602 0.0
N1495 N 0.65077 0.20232 0.62835 0.0
C1496 C 0.63963 0.18313 0.62433 0.0
C1497 C 0.61536 0.18518 0.62767 0.0
C1498 C 0.61134 0.20636 0.63382 0.0
C1499 C 0.63332 0.21616 0.63389 0.0
N1500 N 0.68146 0.23628 0.6445 0.0
C1501 C 0.66082 0.24635 0.64885 0.0
C1502 C 0.66382 0.26317 0.66326 0.0
C1503 C 0.6878 0.26357 0.66812 0.0
C1504 C 0.69827 0.24698 0.65634 0.0
N1505 N 0.6773 0.2276 0.59989 0.0
C1506 C 0.65809 0.25568 0.56766 0.0
C1507 C 0.67603 0.26264 0.58197 0.0
C1508 C 0.68531 0.24848 0.59789 0.0
C1509 C 0.65129 0.23382 0.56904 0.0
C1510 C 0.66114 0.22013 0.58499 0.0
N1511 N 0.69122 0.19349 0.65298 0.0
C1512 C 0.67954 0.187 0.69011 0.0
C1513 C 0.70021 0.17517 0.69415 0.0
C1514 C 0.71633 0.17235 0.67684 0.0
C1515 C 0.71137 0.18147 0.65627 0.0
C1516 C 0.67543 0.19587 0.66974 0.0
H1517 H 0.72406 0.17938 0.64327 0.0
H1518 H 0.65973 0.20558 0.66803 0.0
H1519 H 0.69823 0.25476 0.60921 0.0
H1520 H 0.65478 0.20369 0.58583 0.0
C1521 C 0.72703 0.19394 0.59412 0.0
C1522 C 0.72418 0.24204 0.65573 0.0
C1523 C 0.65156 0.16331 0.61618 0.0
C1524 C 0.63902 0.2366 0.64286 0.0
H1525 H 0.7705 0.24054 0.63521 0.0
H1526 H 0.77171 0.21553 0.60009 0.0
H1527 H 0.71767 0.15396 0.57201 0.0
H1528 H 0.67735 0.13637 0.58579 0.0
H1529 H 0.602 0.17271 0.62585 0.0
H1530 H 0.59452 0.21345 0.63854 0.0
H1531 H 0.65009 0.27318 0.6704 0.0
H1532 H 0.6964 0.2746 0.67925 0.0
H1533 H 0.68218 0.27924 0.58153 0.0
H1534 H 0.6381 0.22731 0.55803 0.0
H1535 H 0.66694 0.19039 0.70297 0.0
H1536 H 0.73273 0.16349 0.67926 0.0
C1537 C 0.97553 0.39433 0.88566 0.0
C1538 C 0.95902 0.37899 0.89229 0.0
C1539 C 0.95955 0.37864 0.9144 0.0
C1540 C 0.97615 0.39381 0.92013 0.0
N1541 N 0.98638 0.40387 0.90313 0.0
Co1542 Co 0.01018 0.42805 0.90542 0.0
N1543 N 0.0154 0.42303 0.93733 0.0
C1544 C 1.00209 0.41005 0.95001 0.0
C1545 C 1.0091 0.40972 0.97128 0.0
C1546 C 0.02785 0.42367 0.97237 0.0
C1547 C 0.03133 0.43175 0.95155 0.0
N1548 N 0.03336 0.45245 0.90781 0.0
C1549 C 0.0465 0.45977 0.92498 0.0
C1550 C 0.05887 0.47839 0.91948 0.0
C1551 C 0.0529 0.48321 0.89847 0.0
C1552 C 0.03736 0.46727 0.8922 0.0
N1553 N 1.00501 0.43213 0.87328 0.0
C1554 C 0.01267 0.44934 0.8618 0.0
C1555 C 1.00723 0.44804 0.84012 0.0
C1556 C 0.99504 0.42898 0.8377 0.0
C1557 C 0.99337 0.41969 0.85813 0.0
N1558 N 0.98476 0.44983 0.91186 0.0
C1559 C 0.96917 0.49333 0.91404 0.0
C1560 C 0.96387 0.48032 0.89594 0.0
C1561 C 0.97107 0.45842 0.89552 0.0
C1562 C 0.97889 0.483 0.93213 0.0
C1563 C 0.98614 0.46142 0.93086 0.0
N1564 N 0.0371 0.40817 0.89917 0.0
C1565 C 0.0755 0.40502 0.88182 0.0
C1566 C 0.08315 0.38992 0.89715 0.0
C1567 C 0.06655 0.38275 0.91259 0.0
C1568 C 0.04343 0.39173 0.91299 0.0
C1569 C 0.05278 0.41392 0.88316 0.0
H1570 H 0.03123 0.38612 0.92523 0.0
H1571 H 0.04889 0.42662 0.87196 0.0
H1572 H 0.96708 0.44916 0.88117 0.0
H1573 H 0.99457 0.45524 0.94509 0.0
C1574 C 0.984 0.39755 0.94118 0.0
C1575 C 0.97909 0.39994 0.86262 0.0
C1576 C 0.04699 0.45026 0.947 0.0
C1577 C 0.02702 0.4651 0.87162 0.0
H1578 H 0.94748 0.36919 0.88224 0.0
H1579 H 0.94928 0.36831 0.92504 0.0
H1580 H 1.00135 0.40059 0.98449 0.0
H1581 H 0.03708 0.42812 0.9871 0.0
H1582 H 0.07069 0.48772 0.9297 0.0
H1583 H 0.0592 0.49673 0.8889 0.0
H1584 H 0.012 0.45938 0.82747 0.0
H1585 H 0.98793 0.42278 0.82262 0.0
H1586 H 0.9555 0.48717 0.88169 0.0
H1587 H 0.98201 0.49186 0.94705 0.0
H1588 H 0.08759 0.41104 0.86953 0.0
H1589 H 0.07151 0.37067 0.92448 0.0
C1590 C 0.78792 0.79806 0.13565 0.0
C1591 C 0.76555 0.79582 0.12635 0.0
C1592 C 0.76544 0.80846 0.10805 0.0
C1593 C 0.78771 0.81749 0.10709 0.0
N1594 N 0.80177 0.81131 0.12361 0.0
Co1595 Co 0.83562 0.81927 0.12724 0.0
N1596 N 0.83169 0.84544 0.109 0.0
C1597 C 0.81411 0.84867 0.09452 0.0
C1598 C 0.8161 0.86801 0.08374 0.0
C1599 C 0.83631 0.87746 0.0918 0.0
C1600 C 0.84558 0.86328 0.10712 0.0
N1601 N 0.86963 0.82734 0.1301 0.0
C1602 C 0.88069 0.84658 0.1262 0.0
C1603 C 0.90489 0.84476 0.13008 0.0
C1604 C 0.90893 0.82367 0.13647 0.0
C1605 C 0.88706 0.81369 0.13612 0.0
N1606 N 0.83878 0.79322 0.14572 0.0
C1607 C 0.85942 0.78356 0.15092 0.0
C1608 C 0.8562 0.76713 0.1657 0.0
C1609 C 0.83209 0.76654 0.16988 0.0
C1610 C 0.8217 0.78256 0.15727 0.0
N1611 N 0.8441 0.80167 0.10118 0.0
C1612 C 0.86321 0.77342 0.06901 0.0
C1613 C 0.84513 0.76663 0.08324 0.0
C1614 C 0.8359 0.78087 0.09907 0.0
C1615 C 0.87068 0.79507 0.07078 0.0
C1616 C 0.86077 0.80889 0.08664 0.0
N1617 N 0.82833 0.83582 0.15399 0.0
C1618 C 0.83922 0.84229 0.1914 0.0
C1619 C 0.81753 0.85237 0.19571 0.0
C1620 C 0.80149 0.85479 0.17824 0.0
C1621 C 0.80733 0.84656 0.15743 0.0
C1622 C 0.84414 0.83415 0.17084 0.0
H1623 H 0.79461 0.8482 0.14439 0.0
H1624 H 0.8605 0.82542 0.16916 0.0
H1625 H 0.82276 0.77468 0.11023 0.0
H1626 H 0.86738 0.82526 0.08765 0.0
C1627 C 0.79453 0.83468 0.09368 0.0
C1628 C 0.79569 0.78691 0.15546 0.0
C1629 C 0.86879 0.86626 0.11773 0.0
C1630 C 0.88127 0.79339 0.1453 0.0
H1631 H 0.75084 0.78621 0.13226 0.0
H1632 H 0.75055 0.81143 0.09733 0.0
H1633 H 0.80404 0.8747 0.07181 0.0
H1634 H 0.84363 0.89279 0.08662 0.0
H1635 H 0.91817 0.85732 0.12849 0.0
H1636 H 0.92568 0.81676 0.14167 0.0
H1637 H 0.86985 0.75757 0.17354 0.0
H1638 H 0.82342 0.75576 0.18119 0.0
H1639 H 0.83877 0.7501 0.08279 0.0
H1640 H 0.88433 0.80128 0.06008 0.0
H1641 H 0.85208 0.83962 0.20422 0.0
H1642 H 0.78451 0.86269 0.18066 0.0
C1643 C 0.54119 0.63643 0.38531 0.0
C1644 C 0.55179 0.6557 0.39172 0.0
C1645 C 0.54691 0.65834 0.41321 0.0
C1646 C 0.53343 0.64077 0.41883 0.0
N1647 N 0.52928 0.62698 0.40223 0.0
Co1648 Co 0.50979 0.59968 0.40423 0.0
N1649 N 0.49936 0.60613 0.43463 0.0
C1650 C 0.50425 0.62426 0.44588 0.0
C1651 C 0.48927 0.62758 0.46312 0.0
C1652 C 0.47449 0.61001 0.46325 0.0
C1653 C 0.48222 0.5964 0.44675 0.0
N1654 N 0.49148 0.57182 0.40697 0.0
C1655 C 0.4812 0.56224 0.42479 0.0
C1656 C 0.47601 0.54068 0.4204 0.0
C1657 C 0.48279 0.5367 0.39948 0.0
C1658 C 0.49226 0.55573 0.39218 0.0
N1659 N 0.51903 0.5945 0.37303 0.0
C1660 C 0.51492 0.57603 0.36204 0.0
C1661 C 0.52351 0.57633 0.3412 0.0
C1662 C 0.53392 0.59622 0.33879 0.0
C1663 C 0.53112 0.60708 0.35833 0.0
N1664 N 0.53776 0.58266 0.41464 0.0
C1665 C 0.55405 0.53988 0.42007 0.0
C1666 C 0.56086 0.5521 0.4019 0.0
C1667 C 0.55319 0.57374 0.39987 0.0
C1668 C 0.54327 0.55107 0.43723 0.0
C1669 C 0.53609 0.57264 0.43446 0.0
N1670 N 0.48074 0.61486 0.39403 0.0
C1671 C 0.44166 0.61023 0.37846 0.0
C1672 C 0.43311 0.62852 0.38939 0.0
C1673 C 0.44963 0.64118 0.4008 0.0
C1674 C 0.4734 0.63424 0.40261 0.0
C1675 C 0.46536 0.60387 0.38081 0.0
H1676 H 0.48531 0.64414 0.41189 0.0
H1677 H 0.47064 0.58923 0.37283 0.0
H1678 H 0.55794 0.58231 0.38529 0.0
H1679 H 0.52694 0.58003 0.44784 0.0
C1680 C 0.52113 0.63886 0.43835 0.0
C1681 C 0.54256 0.62825 0.36281 0.0
C1682 C 0.47728 0.57293 0.44623 0.0
C1683 C 0.50327 0.55873 0.37205 0.0
H1684 H 0.56146 0.66714 0.38182 0.0
H1685 H 0.55154 0.67208 0.42327 0.0
H1686 H 0.48898 0.64121 0.47416 0.0
H1687 H 0.46098 0.60668 0.47531 0.0
H1688 H 0.46943 0.52839 0.43122 0.0
H1689 H 0.48209 0.52135 0.39101 0.0
H1690 H 0.52271 0.56345 0.3293 0.0
H1691 H 0.54331 0.60177 0.32451 0.0
H1692 H 0.57064 0.54466 0.38872 0.0
H1693 H 0.53933 0.54291 0.45236 0.0
H1694 H 0.42984 0.60035 0.36874 0.0
H1695 H 0.44405 0.65571 0.40922 0.0
C1696 C 0.85681 0.75433 0.75121 0.0
C1697 C 0.87181 0.76983 0.74222 0.0
C1698 C 0.89355 0.76755 0.75211 0.0
C1699 C 0.89092 0.75046 0.7661 0.0
N1700 N 0.86896 0.74188 0.76552 0.0
Co1701 Co 0.86028 0.71398 0.77888 0.0
N1702 N 0.88541 0.71676 0.80118 0.0
C1703 C 0.9049 0.72924 0.79939 0.0
C1704 C 0.9196 0.72772 0.81712 0.0
C1705 C 0.90872 0.71324 0.8308 0.0
C1706 C 0.88793 0.70665 0.82059 0.0
N1707 N 0.85234 0.68571 0.79224 0.0
C1708 C 0.85785 0.67773 0.8122 0.0
C1709 C 0.84861 0.65708 0.8147 0.0
C1710 C 0.83705 0.65213 0.79563 0.0
C1711 C 0.83989 0.66994 0.78248 0.0
N1712 N 0.8348 0.71212 0.75668 0.0
C1713 C 0.82202 0.69417 0.75243 0.0
C1714 C 0.80049 0.69915 0.74321 0.0
C1715 C 0.79998 0.72133 0.74143 0.0
C1716 C 0.82193 0.729 0.74826 0.0
N1717 N 0.88319 0.69872 0.75903 0.0
C1718 C 0.91401 0.67516 0.73054 0.0
C1719 C 0.89958 0.69218 0.72297 0.0
C1720 C 0.88421 0.70349 0.73728 0.0
C1721 C 0.91275 0.67046 0.75281 0.0
C1722 C 0.8976 0.68246 0.76669 0.0
N1723 N 0.83678 0.72833 0.79832 0.0
C1724 C 0.79715 0.72759 0.81376 0.0
C1725 C 0.80019 0.74785 0.82345 0.0
C1726 C 0.82219 0.75834 0.82007 0.0
C1727 C 0.8403 0.74826 0.80757 0.0
C1728 C 0.81538 0.71822 0.8016 0.0
H1729 H 0.85699 0.75659 0.80521 0.0
H1730 H 0.81163 0.70278 0.79445 0.0
H1731 H 0.87296 0.716 0.73064 0.0
H1732 H 0.8974 0.6783 0.78369 0.0
C1733 C 0.90718 0.74388 0.78209 0.0
C1734 C 0.83125 0.75178 0.74587 0.0
C1735 C 0.87259 0.68904 0.82852 0.0
C1736 C 0.82644 0.67482 0.76388 0.0
H1737 H 0.8675 0.7817 0.72992 0.0
H1738 H 0.90914 0.77753 0.74976 0.0
H1739 H 0.93603 0.73639 0.81998 0.0
H1740 H 0.91562 0.70773 0.84624 0.0
H1741 H 0.84985 0.64682 0.82888 0.0
H1742 H 0.82659 0.6378 0.79231 0.0
H1743 H 0.7856 0.6883 0.74083 0.0
H1744 H 0.78421 0.73047 0.73763 0.0
H1745 H 0.89978 0.69647 0.70594 0.0
H1746 H 0.92353 0.65758 0.75956 0.0
H1747 H 0.78044 0.719 0.81518 0.0
H1748 H 0.82545 0.77411 0.82715 0.0
C1749 C 0.53565 0.64453 0.04963 0.0
C1750 C 0.51268 0.65263 0.04818 0.0
C1751 C 0.51212 0.67118 0.06047 0.0
C1752 C 0.53472 0.67343 0.06862 0.0
N1753 N 0.54939 0.65748 0.06217 0.0
Co1754 Co 0.58337 0.65472 0.07003 0.0
N1755 N 0.57915 0.67295 0.09618 0.0
C1756 C 0.56124 0.68706 0.09944 0.0
C1757 C 0.56307 0.69785 0.11885 0.0
C1758 C 0.58348 0.69013 0.1283 0.0
C1759 C 0.59301 0.67497 0.11407 0.0
N1760 N 0.61742 0.65237 0.07805 0.0
C1761 C 0.62838 0.65625 0.09739 0.0
C1762 C 0.65263 0.65266 0.09558 0.0
C1763 C 0.65681 0.64647 0.07439 0.0
C1764 C 0.63494 0.64663 0.06435 0.0
N1765 N 0.58689 0.63627 0.04394 0.0
C1766 C 0.60755 0.63176 0.03398 0.0
C1767 C 0.60455 0.61727 0.01721 0.0
C1768 C 0.58056 0.61252 0.01675 0.0
C1769 C 0.57007 0.62445 0.03325 0.0
N1770 N 0.5913 0.68079 0.05238 0.0
C1771 C 0.61091 0.71271 0.02429 0.0
C1772 C 0.59292 0.69854 0.01722 0.0
C1773 C 0.58344 0.68276 0.0314 0.0
C1774 C 0.61757 0.71136 0.04623 0.0
C1775 C 0.60752 0.69556 0.05992 0.0
N1776 N 0.57675 0.62826 0.08686 0.0
C1777 C 0.58813 0.59128 0.094 0.0
C1778 C 0.56755 0.58771 0.10611 0.0
C1779 C 0.55161 0.60516 0.10869 0.0
C1780 C 0.55669 0.62543 0.09911 0.0
C1781 C 0.59234 0.61136 0.08465 0.0
H1782 H 0.54417 0.63858 0.10105 0.0
H1783 H 0.60798 0.61276 0.07481 0.0
H1784 H 0.57048 0.67152 0.02506 0.0
H1785 H 0.61376 0.69474 0.07645 0.0
C1786 C 0.54139 0.68718 0.08566 0.0
C1787 C 0.54416 0.62517 0.03813 0.0
C1788 C 0.61628 0.66447 0.11712 0.0
C1789 C 0.62933 0.63764 0.04385 0.0
H1790 H 0.49787 0.64579 0.0393 0.0
H1791 H 0.49674 0.68115 0.06394 0.0
H1792 H 0.5507 0.70944 0.12566 0.0
H1793 H 0.59068 0.69533 0.14372 0.0
H1794 H 0.66587 0.65431 0.10821 0.0
H1795 H 0.67365 0.64155 0.06746 0.0
H1796 H 0.6183 0.61 1.00731 0.0
H1797 H 0.57195 0.60137 1.00575 0.0
H1798 H 0.58688 0.69899 1.00054 0.0
H1799 H 0.63082 0.72227 0.05278 0.0
H1800 H 0.60057 0.57826 0.09079 0.0
H1801 H 0.53527 0.60307 0.11774 0.0
C1802 C 0.65106 0.27118 0.25279 0.0
C1803 C 0.63282 0.25961 0.24291 0.0
C1804 C 0.61239 0.26387 0.2544 0.0
C1805 C 0.61889 0.27895 0.26965 0.0
N1806 N 0.64194 0.28445 0.26823 0.0
Co1807 Co 0.65441 0.31222 0.27925 0.0
N1808 N 0.6314 0.31241 0.30338 0.0
C1809 C 0.61039 0.30202 0.30325 0.0
C1810 C 0.59745 0.30564 0.3218 0.0
C1811 C 0.61116 0.31934 0.33416 0.0
C1812 C 0.63176 0.3234 0.3224 0.0
N1813 N 0.66642 0.34011 0.29044 0.0
C1814 C 0.66394 0.34917 0.31047 0.0
C1815 C 0.67523 0.36911 0.31113 0.0
C1816 C 0.68478 0.37252 0.29077 0.0
C1817 C 0.67887 0.35452 0.27874 0.0
N1818 N 0.67719 0.3115 0.25488 0.0
C1819 C 0.68761 0.32907 0.24631 0.0
C1820 C 0.70103 0.32397 0.22837 0.0
C1821 C 0.69884 0.30185 0.22576 0.0
C1822 C 0.68484 0.29436 0.24276 0.0
N1823 N 0.63097 0.32833 0.26045 0.0
C1824 C 0.59962 0.35267 0.23291 0.0
C1825 C 0.6117 0.33413 0.22545 0.0
C1826 C 0.62728 0.32247 0.23921 0.0
C1827 C 0.60375 0.35862 0.25466 0.0
C1828 C 0.61908 0.34623 0.26809 0.0
N1829 N 0.67834 0.29713 0.29747 0.0
C1830 C 0.71946 0.29466 0.30899 0.0
C1831 C 0.7144 0.27778 0.32343 0.0
C1832 C 0.69046 0.27082 0.32451 0.0
C1833 C 0.6728 0.28054 0.31129 0.0
C1834 C 0.70145 0.30409 0.29651 0.0
H1835 H 0.65466 0.27487 0.31239 0.0
H1836 H 0.70642 0.31725 0.28603 0.0
H1837 H 0.63658 0.30877 0.23243 0.0
H1838 H 0.62148 0.35137 0.28469 0.0
C1839 C 0.60467 0.2876 0.28632 0.0
C1840 C 0.67617 0.27165 0.24559 0.0
C1841 C 0.64967 0.33977 0.32841 0.0
C1842 C 0.6875 0.34886 0.2579 0.0
H1843 H 0.63408 0.24938 0.22869 0.0
H1844 H 0.59491 0.25709 0.25169 0.0
H1845 H 0.58024 0.299 0.32596 0.0
H1846 H 0.60617 0.32614 0.34968 0.0
H1847 H 0.67632 0.38006 0.3248 0.0
H1848 H 0.69541 0.38618 0.28564 0.0
H1849 H 0.71157 0.33488 0.21858 0.0
H1850 H 0.70618 0.29256 0.21248 0.0
H1851 H 0.60959 0.32887 0.2088 0.0
H1852 H 0.59495 0.3727 0.2614 0.0
H1853 H 0.73744 0.30065 0.30715 0.0
H1854 H 0.68519 0.25825 0.33573 0.0
C1855 C 0.97669 0.38723 0.54658 0.0
C1856 C 0.99879 0.37796 0.54259 0.0
C1857 C 0.99981 0.35929 0.55466 0.0
C1858 C 0.97824 0.35805 0.56504 0.0
N1859 N 0.96381 0.37471 0.56016 0.0
Co1860 Co 0.93042 0.37765 0.56957 0.0
N1861 N 0.93597 0.35909 0.59524 0.0
C1862 C 0.95388 0.34477 0.5974 0.0
C1863 C 0.95301 0.33366 0.61667 0.0
C1864 C 0.9332 0.34134 0.62716 0.0
C1865 C 0.92301 0.35678 0.61365 0.0
N1866 N 0.89676 0.37967 0.57896 0.0
C1867 C 0.8867 0.37531 0.59858 0.0
C1868 C 0.86236 0.37881 0.59776 0.0
C1869 C 0.85721 0.38542 0.57691 0.0
C1870 C 0.8786 0.38558 0.56606 0.0
N1871 N 0.92573 0.39666 0.54409 0.0
C1872 C 0.90457 0.40196 0.53548 0.0
C1873 C 0.90669 0.41805 0.52019 0.0
C1874 C 0.93059 0.42301 0.51925 0.0
C1875 C 0.94207 0.40942 0.53383 0.0
N1876 N 0.9218 0.35183 0.55183 0.0
C1877 C 0.9036 0.31884 0.52421 0.0
C1878 C 0.92043 0.33393 0.51676 0.0
C1879 C 0.92919 0.3502 0.53069 0.0
C1880 C 0.89678 0.32032 0.5461 0.0
C1881 C 0.90622 0.33663 0.55961 0.0
N1882 N 0.93796 0.40414 0.5863 0.0
C1883 C 0.92691 0.44138 0.59289 0.0
C1884 C 0.94966 0.44636 0.60034 0.0
C1885 C 0.96623 0.42928 0.60192 0.0
C1886 C 0.95992 0.40818 0.59502 0.0
C1887 C 0.92153 0.42054 0.58597 0.0
H1888 H 0.9731 0.39547 0.59577 0.0
H1889 H 0.9043 0.41842 0.57888 0.0
H1890 H 0.94141 0.36194 0.52407 0.0
H1891 H 0.90024 0.33732 0.57622 0.0
C1892 C 0.9726 0.34426 0.58234 0.0
C1893 C 0.96834 0.40781 0.53728 0.0
C1894 C 0.89975 0.36696 0.6177 0.0
C1895 C 0.88331 0.39555 0.54588 0.0
H1896 H 0.01282 0.38422 0.53236 0.0
H1897 H 0.01489 0.34854 0.55644 0.0
H1898 H 0.96551 0.32172 0.62259 0.0
H1899 H 0.92669 0.33579 0.64271 0.0
H1900 H 0.84972 0.37693 0.61085 0.0
H1901 H 0.84007 0.39055 0.57077 0.0
H1902 H 0.89242 0.42639 0.51189 0.0
H1903 H 0.93821 0.43568 0.50943 0.0
H1904 H 0.92618 0.33372 0.49999 0.0
H1905 H 0.88404 0.30899 0.55277 0.0
H1906 H 0.91353 0.45389 0.59111 0.0
H1907 H 0.984 0.43225 0.60797 0.0
C1908 C 0.86481 0.26566 0.7749 0.0
C1909 C 0.87849 0.2471 0.77731 0.0
C1910 C 0.8992 0.25056 0.76606 0.0
C1911 C 0.897 0.2709 0.75731 0.0
N1912 N 0.87621 0.28042 0.76236 0.0
Co1913 Co 0.86557 0.30936 0.75234 0.0
N1914 N 0.88824 0.30907 0.72774 0.0
C1915 C 0.90785 0.29663 0.72637 0.0
C1916 C 0.92053 0.30008 0.70766 0.0
C1917 C 0.9082 0.31576 0.69664 0.0
C1918 C 0.88857 0.32102 0.70929 0.0
N1919 N 0.85503 0.33821 0.74206 0.0
C1920 C 0.85803 0.34787 0.72238 0.0
C1921 C 0.84776 0.36828 0.72235 0.0
C1922 C 0.83822 0.3714 0.74273 0.0
C1923 C 0.84315 0.35278 0.75413 0.0
N1924 N 0.84307 0.30918 0.77702 0.0
C1925 C 0.83246 0.32675 0.78549 0.0
C1926 C 0.81711 0.32146 0.80207 0.0
C1927 C 0.81826 0.29923 0.804 0.0
C1928 C 0.83422 0.29209 0.78841 0.0
N1929 N 0.89014 0.32389 0.7712 0.0
C1930 C 0.92074 0.34827 0.79952 0.0
C1931 C 0.90926 0.32918 0.80642 0.0
C1932 C 0.89401 0.31746 0.79225 0.0
C1933 C 0.91703 0.35425 0.77773 0.0
C1934 C 0.90212 0.34187 0.76395 0.0
N1935 N 0.84049 0.29582 0.73401 0.0
C1936 C 0.79922 0.29546 0.72242 0.0
C1937 C 0.80291 0.27738 0.70909 0.0
C1938 C 0.82623 0.26883 0.70846 0.0
C1939 C 0.84467 0.27824 0.72098 0.0
C1940 C 0.81795 0.30429 0.73458 0.0
H1941 H 0.86231 0.27133 0.72015 0.0
H1942 H 0.81395 0.31806 0.74462 0.0
H1943 H 0.8849 0.30342 0.79855 0.0
H1944 H 0.8999 0.34728 0.74744 0.0
C1945 C 0.91142 0.27954 0.74094 0.0
C1946 C 0.8417 0.26927 0.78551 0.0
C1947 C 0.87183 0.33858 0.70413 0.0
C1948 C 0.83365 0.34676 0.77447 0.0
H1949 H 0.87399 0.23252 0.78611 0.0
H1950 H 0.91353 0.23911 0.76358 0.0
H1951 H 0.93636 0.29167 0.70227 0.0
H1952 H 0.91322 0.32265 0.68117 0.0
H1953 H 0.84732 0.37971 0.70905 0.0
H1954 H 0.82813 0.38528 0.74825 0.0
H1955 H 0.80552 0.33229 0.81095 0.0
H1956 H 0.80843 0.28939 0.81541 0.0
H1957 H 0.91142 0.32364 0.82297 0.0
H1958 H 0.92567 0.36851 0.77126 0.0
H1959 H 0.78173 0.3027 0.72376 0.0
H1960 H 0.83035 0.25516 0.69813 0.0
C1961 C 0.98469 0.6434 0.98312 0.0
C1962 C 1.00775 0.65127 0.98465 0.0
C1963 C 1.00856 0.66976 0.97232 0.0
C1964 C 0.98603 0.67218 0.96404 0.0
N1965 N 0.97116 0.65639 0.97045 0.0
Co1966 Co 0.93724 0.65378 0.96233 0.0
N1967 N 0.94186 0.67189 0.93617 0.0
C1968 C 0.9599 0.68585 0.933 0.0
C1969 C 0.95827 0.69666 0.9136 0.0
C1970 C 0.93785 0.68913 0.90406 0.0
C1971 C 0.92811 0.67407 0.91824 0.0
N1972 N 0.90324 0.65163 0.95408 0.0
C1973 C 0.89246 0.65566 0.93471 0.0
C1974 C 0.86816 0.65225 0.93634 0.0
C1975 C 0.86377 0.64608 0.95748 0.0
C1976 C 0.88556 0.64604 0.96765 0.0
N1977 N 0.93332 0.63547 0.98841 0.0
C1978 C 0.91255 0.63108 0.99822 0.0
C1979 C 0.91534 0.61668 1.01507 0.0
C1980 C 0.93931 0.61185 1.01575 0.0
C1981 C 0.94996 0.62364 0.99928 0.0
N1982 N 0.92932 0.67997 0.97987 0.0
C1983 C 0.90974 0.71213 1.0078 0.0
C1984 C 0.92759 0.69785 1.01499 0.0
C1985 C 0.93705 0.68196 1.00089 0.0
C1986 C 0.90322 0.71076 0.98582 0.0
C1987 C 0.91326 0.69484 0.97221 0.0
N1988 N 0.94391 0.62712 0.94565 0.0
C1989 C 0.93251 0.59007 0.9387 0.0
C1990 C 0.95351 0.58611 0.9273 0.0
C1991 C 0.96964 0.60341 0.92493 0.0
C1992 C 0.96436 0.62391 0.93401 0.0
C1993 C 0.92812 0.61037 0.94763 0.0
H1994 H 0.97704 0.63691 0.93221 0.0
H1995 H 0.91218 0.61202 0.95704 0.0
H1996 H 0.94989 0.67065 1.00733 0.0
H1997 H 0.90713 0.69401 0.95565 0.0
C1998 C 0.97963 0.68589 0.94691 0.0
C1999 C 0.97588 0.62425 0.99466 0.0
C2000 C 0.90475 0.66384 0.9151 0.0
C2001 C 0.8909 0.63705 0.98819 0.0
H2002 H 0.02243 0.64432 0.99361 0.0
H2003 H 0.02405 0.67956 0.96889 0.0
H2004 H 0.97077 0.70816 0.90688 0.0
H2005 H 0.93076 0.69442 0.88862 0.0
H2006 H 0.85502 0.65404 0.92364 0.0
H2007 H 0.84683 0.64131 0.9643 0.0
H2008 H 0.90148 0.60953 0.02492 0.0
H2009 H 0.94787 0.60078 0.02688 0.0
H2010 H 0.93351 0.69831 0.0317 0.0
H2011 H 0.89009 0.72174 0.97918 0.0
H2012 H 0.91985 0.5772 0.94168 0.0
H2013 H 0.98625 0.60106 0.91637 0.0
C2014 C 0.65602 0.76325 0.27501 0.0
C2015 C 0.6426 0.78192 0.27785 0.0
C2016 C 0.62156 0.77871 0.26706 0.0
C2017 C 0.62329 0.7584 0.25811 0.0
N2018 N 0.64412 0.74867 0.2626 0.0
Co2019 Co 0.65418 0.71977 0.25199 0.0
N2020 N 0.63084 0.72049 0.22789 0.0
C2021 C 0.61133 0.73309 0.22711 0.0
C2022 C 0.59815 0.72997 0.20862 0.0
C2023 C 0.61007 0.71436 0.19711 0.0
C2024 C 0.62996 0.7088 0.20927 0.0
N2025 N 0.66408 0.69094 0.24116 0.0
C2026 C 0.66046 0.68151 0.22143 0.0
C2027 C 0.67056 0.66104 0.22093 0.0
C2028 C 0.68064 0.65765 0.24104 0.0
C2029 C 0.67619 0.67618 0.25278 0.0
N2030 N 0.67743 0.71957 0.27613 0.0
C2031 C 0.68808 0.70183 0.28417 0.0
C2032 C 0.70397 0.70684 0.30041 0.0
C2033 C 0.70312 0.72906 0.3026 0.0
C2034 C 0.6868 0.73649 0.28748 0.0
N2035 N 0.63006 0.70524 0.27125 0.0
C2036 C 0.60016 0.68046 0.29975 0.0
C2037 C 0.61422 0.69777 0.30736 0.0
C2038 C 0.62862 0.71002 0.29298 0.0
C2039 C 0.60115 0.67637 0.27728 0.0
C2040 C 0.61613 0.68868 0.26351 0.0
N2041 N 0.67881 0.73325 0.23325 0.0
C2042 C 0.72008 0.7343 0.22189 0.0
C2043 C 0.7159 0.75172 0.20781 0.0
C2044 C 0.69223 0.75943 0.20661 0.0
C2045 C 0.67411 0.75019 0.21959 0.0
C2046 C 0.70154 0.72527 0.23405 0.0
H2047 H 0.65629 0.75665 0.21852 0.0
H2048 H 0.70586 0.71175 0.2443 0.0
H2049 H 0.63909 0.72308 0.29965 0.0
H2050 H 0.61688 0.68429 0.24657 0.0
C2051 C 0.60835 0.75005 0.24197 0.0
C2052 C 0.67941 0.75941 0.28507 0.0
C2053 C 0.64639 0.69115 0.20353 0.0
C2054 C 0.68635 0.68194 0.27295 0.0
H2055 H 0.6475 0.79643 0.28661 0.0
H2056 H 0.6073 0.79031 0.26498 0.0
H2057 H 0.58228 0.73858 0.20368 0.0
H2058 H 0.6046 0.70769 0.18166 0.0
H2059 H 0.67059 0.64977 0.20748 0.0
H2060 H 0.6908 0.64366 0.24616 0.0
H2061 H 0.7157 0.69583 0.3089 0.0
H2062 H 0.71338 0.73871 0.31388 0.0
H2063 H 0.61412 0.7019 0.32444 0.0
H2064 H 0.59099 0.66317 0.27037 0.0
H2065 H 0.73777 0.72765 0.2238 0.0
H2066 H 0.68747 0.77228 0.19553 0.0
C2067 C 0.53849 0.38665 0.481 0.0
C2068 C 0.51504 0.37953 0.48011 0.0
C2069 C 0.51476 0.36154 0.46713 0.0
C2070 C 0.53782 0.3588 0.46047 0.0
N2071 N 0.5526 0.37399 0.46843 0.0
Co2072 Co 0.58686 0.37688 0.46129 0.0
N2073 N 0.58322 0.35951 0.4344 0.0
C2074 C 0.56524 0.34575 0.43019 0.0
C2075 C 0.56749 0.33544 0.41059 0.0
C2076 C 0.58829 0.34304 0.40195 0.0
C2077 C 0.59764 0.35764 0.41685 0.0
N2078 N 0.62112 0.37936 0.45393 0.0
C2079 C 0.63263 0.3757 0.43479 0.0
C2080 C 0.65687 0.37896 0.43727 0.0
C2081 C 0.6605 0.38466 0.45866 0.0
C2082 C 0.63834 0.38457 0.46815 0.0
N2083 N 0.5899 0.39435 0.48805 0.0
C2084 C 0.61036 0.39832 0.49858 0.0
C2085 C 0.607 0.41169 0.5162 0.0
C2086 C 0.58298 0.41628 0.51664 0.0
C2087 C 0.5729 0.40552 0.49917 0.0
N2088 N 0.59427 0.3502 0.47827 0.0
C2089 C 0.61255 0.31748 0.50631 0.0
C2090 C 0.59424 0.33155 0.51298 0.0
C2091 C 0.5854 0.34763 0.49883 0.0
C2092 C 0.62057 0.31964 0.48481 0.0
C2093 C 0.61106 0.33576 0.47107 0.0
N2094 N 0.5806 0.40413 0.44543 0.0
C2095 C 0.59125 0.44183 0.44148 0.0
C2096 C 0.57031 0.44633 0.43015 0.0
C2097 C 0.55499 0.42876 0.4257 0.0
C2098 C 0.5605 0.40777 0.43344 0.0
C2099 C 0.59602 0.42096 0.44881 0.0
H2100 H 0.54821 0.39469 0.43037 0.0
H2101 H 0.61184 0.4189 0.4583 0.0
H2102 H 0.57209 0.35866 0.50496 0.0
H2103 H 0.61815 0.33708 0.45486 0.0
C2104 C 0.54494 0.34562 0.44323 0.0
C2105 C 0.54704 0.40486 0.49438 0.0
C2106 C 0.6212 0.3677 0.41465 0.0
C2107 C 0.63232 0.39277 0.48888 0.0
H2108 H 0.49951 0.38665 0.48756 0.0
H2109 H 0.49929 0.35247 0.46199 0.0
H2110 H 0.55513 0.32425 0.40313 0.0
H2111 H 0.59585 0.33812 0.38659 0.0
H2112 H 0.67046 0.37724 0.42495 0.0
H2113 H 0.67721 0.38909 0.46614 0.0
H2114 H 0.62051 0.4182 0.52688 0.0
H2115 H 0.57392 0.42638 0.52838 0.0
H2116 H 0.58743 0.33081 0.52939 0.0
H2117 H 0.63438 0.30907 0.47864 0.0
H2118 H 0.60358 0.45462 0.44568 0.0
H2119 H 0.53877 0.43119 0.41656 0.0
C2120 C 0.72771 0.89591 0.64457 0.0
C2121 C 0.71696 0.89011 0.62513 0.0
C2122 C 0.72142 0.86864 0.62203 0.0
C2123 C 0.7348 0.86244 0.63953 0.0
N2124 N 0.73933 0.87866 0.65365 0.0
Co2125 Co 0.75849 0.87573 0.68111 0.0
N2126 N 0.7681 0.84528 0.67424 0.0
C2127 C 0.76315 0.83453 0.65579 0.0
C2128 C 0.77808 0.81737 0.65207 0.0
C2129 C 0.79285 0.81675 0.66969 0.0
C2130 C 0.78509 0.83283 0.68378 0.0
N2131 N 0.77628 0.87205 0.70923 0.0
C2132 C 0.78533 0.85368 0.71873 0.0
C2133 C 0.78854 0.85689 0.74087 0.0
C2134 C 0.78238 0.87784 0.74524 0.0
C2135 C 0.77501 0.88625 0.72584 0.0
N2136 N 0.75019 0.90701 0.68678 0.0
C2137 C 0.75446 0.91755 0.70551 0.0
C2138 C 0.74644 0.93854 0.70554 0.0
C2139 C 0.73621 0.94153 0.68561 0.0
C2140 C 0.7385 0.92215 0.67441 0.0
N2141 N 0.73001 0.86581 0.69756 0.0
C2142 C 0.71286 0.86064 0.74014 0.0
C2143 C 0.70716 0.87915 0.72793 0.0
C2144 C 0.71489 0.88088 0.7063 0.0
C2145 C 0.7232 0.84326 0.72894 0.0
C2146 C 0.73092 0.84594 0.70749 0.0
N2147 N 0.78791 0.88547 0.66631 0.0
C2148 C 0.82675 0.90177 0.67008 0.0
C2149 C 0.83452 0.89206 0.65084 0.0
C2150 C 0.81804 0.88018 0.63871 0.0
C2151 C 0.79472 0.87753 0.64646 0.0
C2152 C 0.80356 0.89828 0.67748 0.0
H2153 H 0.78266 0.86846 0.63656 0.0
H2154 H 0.79879 0.90534 0.69277 0.0
H2155 H 0.71068 0.89555 0.69769 0.0
H2156 H 0.73997 0.83246 0.70019 0.0
C2157 C 0.74657 0.84265 0.64116 0.0
C2158 C 0.72665 0.91816 0.65331 0.0
C2159 C 0.78994 0.83277 0.70736 0.0
C2160 C 0.76501 0.90679 0.72297 0.0
H2161 H 0.70738 0.90039 0.61393 0.0
H2162 H 0.71651 0.85894 0.6081 0.0
H2163 H 0.77846 0.80678 0.63807 0.0
H2164 H 0.80645 0.8047 0.67265 0.0
H2165 H 0.79344 0.84524 0.75311 0.0
H2166 H 0.78201 0.88563 0.76098 0.0
H2167 H 0.7473 0.9501 0.71873 0.0
H2168 H 0.72711 0.95604 0.68032 0.0
H2169 H 0.69832 0.89288 0.73528 0.0
H2170 H 0.72653 0.828 0.73706 0.0
H2171 H 0.83886 0.9113 0.67987 0.0
H2172 H 0.82318 0.87285 0.62344 0.0
C2173 C 0.22292 0.63494 0.38322 0.0
C2174 C 0.21014 0.64122 0.40145 0.0
C2175 C 0.21255 0.66309 0.40323 0.0
C2176 C 0.22689 0.66897 0.38627 0.0
N2177 N 0.23404 0.65224 0.37379 0.0
Co2178 Co 0.25581 0.6545 0.34799 0.0
N2179 N 0.2633 0.6858 0.354 0.0
C2180 C 0.25221 0.69841 0.36872 0.0
C2181 C 0.26039 0.71926 0.36934 0.0
C2182 C 0.27761 0.72018 0.35381 0.0
C2183 C 0.27911 0.69966 0.3446 0.0
N2184 N 0.27702 0.65691 0.32202 0.0
C2185 C 0.29051 0.67372 0.31452 0.0
C2186 C 0.30096 0.66855 0.29479 0.0
C2187 C 0.29338 0.64815 0.28948 0.0
C2188 C 0.27888 0.64189 0.30624 0.0
N2189 N 0.24844 0.62292 0.34276 0.0
C2190 C 0.25389 0.612 0.32446 0.0
C2191 C 0.24605 0.59097 0.32455 0.0
C2192 C 0.23457 0.58839 0.34399 0.0
C2193 C 0.23602 0.60804 0.35481 0.0
N2194 N 0.2291 0.66305 0.3285 0.0
C2195 C 0.21497 0.66526 0.28492 0.0
C2196 C 0.2076 0.64798 0.29807 0.0
C2197 C 0.21416 0.6476 0.32014 0.0
C2198 C 0.22496 0.68322 0.29521 0.0
C2199 C 0.23126 0.68202 0.31707 0.0
N2200 N 0.28376 0.64607 0.36562 0.0
C2201 C 0.32129 0.62701 0.36555 0.0
C2202 C 0.33053 0.64087 0.38132 0.0
C2203 C 0.31523 0.65639 0.39041 0.0
C2204 C 0.29174 0.65841 0.38264 0.0
C2205 C 0.29819 0.62991 0.35793 0.0
H2206 H 0.28057 0.67069 0.38971 0.0
H2207 H 0.29289 0.61981 0.34469 0.0
H2208 H 0.20906 0.63373 0.32963 0.0
H2209 H 0.23997 0.69596 0.32358 0.0
C2210 C 0.23549 0.68973 0.38278 0.0
C2211 C 0.22296 0.61245 0.37519 0.0
C2212 C 0.29306 0.69515 0.32494 0.0
C2213 C 0.26748 0.62182 0.30816 0.0
H2214 H 0.19999 0.63109 0.41235 0.0
H2215 H 0.20514 0.67344 0.4157 0.0
H2216 H 0.25449 0.73228 0.37982 0.0
H2217 H 0.28723 0.73463 0.34928 0.0
H2218 H 0.31252 0.67862 0.28506 0.0
H2219 H 0.29789 0.639 0.27507 0.0
H2220 H 0.24832 0.57893 0.31194 0.0
H2221 H 0.22547 0.5739 0.34931 0.0
H2222 H 0.19827 0.63428 0.29116 0.0
H2223 H 0.2291 0.69777 0.28615 0.0
H2224 H 0.33237 0.61471 0.3581 0.0
H2225 H 0.32149 0.66715 0.40306 0.0
C2226 C 0.61713 1.00055 0.52135 0.0
C2227 C 0.63526 0.98984 0.51038 0.0
C2228 C 0.65584 1.00118 0.51426 0.0
C2229 C 0.64945 0.01718 0.52857 0.0
N2230 N 0.62633 0.01641 0.53399 0.0
Co2231 Co 0.61415 0.02812 0.56164 0.0
N2232 N 0.63757 0.05192 0.56116 0.0
C2233 C 0.65843 0.05133 0.55049 0.0
C2234 C 0.67175 0.06968 0.55362 0.0
C2235 C 0.6585 0.08244 0.56733 0.0
C2236 C 0.63778 0.07106 0.57194 0.0
N2237 N 0.60277 0.03986 0.58958 0.0
C2238 C 0.606 0.05982 0.59853 0.0
C2239 C 0.59511 0.06082 0.6187 0.0
C2240 C 0.58503 0.04077 0.62236 0.0
C2241 C 0.59025 0.02855 0.60428 0.0
N2242 N 0.59079 1.00421 0.56136 0.0
C2243 C 0.58012 0.99622 0.5791 0.0
C2244 C 0.56603 0.97869 0.57425 0.0
C2245 C 0.56807 0.97573 0.5521 0.0
C2246 C 0.5827 0.99211 0.54432 0.0
N2247 N 0.63736 1.00921 0.57788 0.0
C2248 C 0.66749 0.98139 0.60316 0.0
C2249 C 0.65336 0.97341 0.5861 0.0
C2250 C 0.63882 0.9874 0.57367 0.0
C2251 C 0.66627 1.00387 0.60698 0.0
C2252 C 0.65111 0.01732 0.59443 0.0
N2253 N 0.59021 0.04635 0.54651 0.0
C2254 C 0.54904 0.058 0.54458 0.0
C2255 C 0.55388 0.07167 0.52715 0.0
C2256 C 0.57751 0.07248 0.5195 0.0
C2257 C 0.5954 0.05951 0.52928 0.0
C2258 C 0.56724 0.04581 0.55405 0.0
H2259 H 0.61337 0.06019 0.52308 0.0
H2260 H 0.56251 0.03594 0.56774 0.0
H2261 H 0.62844 0.98034 0.56078 0.0
H2262 H 0.65026 0.03432 0.59845 0.0
C2263 C 0.66391 0.03392 0.5366 0.0
C2264 C 0.59184 0.9941 0.52159 0.0
C2265 C 0.6206 0.0774 0.58886 0.0
C2266 C 0.58087 1.00796 0.59884 0.0
H2267 H 0.63375 0.97534 0.5006 0.0
H2268 H 0.67333 0.99793 0.50768 0.0
H2269 H 0.68898 0.0734 0.54676 0.0
H2270 H 0.66395 0.09791 0.57388 0.0
H2271 H 0.59466 0.07452 0.62964 0.0
H2272 H 0.57451 0.03597 0.63624 0.0
H2273 H 0.55523 0.96936 0.58535 0.0
H2274 H 0.56034 0.9625 0.54303 0.0
H2275 H 0.65358 0.9563 0.58222 0.0
H2276 H 0.67648 1.01102 0.62003 0.0
H2277 H 0.53121 0.057 0.55117 0.0
H2278 H 0.58209 0.08296 0.50607 0.0
C2279 C 0.29373 0.39561 0.885 0.0
C2280 C 0.31026 0.38908 0.90042 0.0
C2281 C 0.3096 0.36702 0.90102 0.0
C2282 C 0.29292 0.36122 0.88591 0.0
N2283 N 0.28278 0.37814 0.87565 0.0
Co2284 Co 0.25897 0.37576 0.85143 0.0
N2285 N 0.25344 0.34409 0.85693 0.0
C2286 C 0.26644 0.33148 0.87026 0.0
C2287 C 0.2588 0.31044 0.87117 0.0
C2288 C 0.23994 0.30946 0.85727 0.0
C2289 C 0.23715 0.33005 0.84856 0.0
N2290 N 0.23588 0.37324 0.82691 0.0
C2291 C 0.22267 0.35609 0.81979 0.0
C2292 C 0.21088 0.36118 0.8007 0.0
C2293 C 0.21715 0.38197 0.79547 0.0
C2294 C 0.23236 0.38849 0.81163 0.0
N2295 N 0.26426 0.40774 0.847 0.0
C2296 C 0.25666 0.41905 0.82962 0.0
C2297 C 0.26215 0.44067 0.83074 0.0
C2298 C 0.27429 0.44323 0.84986 0.0
C2299 C 0.2759 0.42292 0.85936 0.0
N2300 N 0.28436 0.36888 0.82968 0.0
C2301 C 0.29863 0.36587 0.78585 0.0
C2302 C 0.30445 0.38413 0.79835 0.0
C2303 C 0.29774 0.38505 0.82043 0.0
C2304 C 0.28963 0.34792 0.79681 0.0
C2305 C 0.28301 0.3496 0.8186 0.0
N2306 N 0.23211 0.38236 0.8712 0.0
C2307 C 0.19247 0.39738 0.87232 0.0
C2308 C 0.18545 0.38229 0.88788 0.0
C2309 C 0.20298 0.36878 0.89682 0.0
C2310 C 0.22636 0.36926 0.8884 0.0
C2311 C 0.21569 0.39729 0.86442 0.0
H2312 H 0.23919 0.35797 0.89478 0.0
H2313 H 0.2194 0.40818 0.85138 0.0
H2314 H 0.30186 0.3996 0.82931 0.0
H2315 H 0.27503 0.33545 0.82538 0.0
C2316 C 0.28475 0.34024 0.88258 0.0
C2317 C 0.29016 0.41855 0.8792 0.0
C2318 C 0.22169 0.33444 0.8299 0.0
C2319 C 0.24264 0.40907 0.81367 0.0
H2320 H 0.32186 0.39915 0.91012 0.0
H2321 H 0.31979 0.35647 0.91152 0.0
H2322 H 0.26614 0.29735 0.88073 0.0
H2323 H 0.23006 0.29497 0.85328 0.0
H2324 H 0.19926 0.35078 0.79134 0.0
H2325 H 0.21128 0.39122 0.78156 0.0
H2326 H 0.25753 0.45318 0.8192 0.0
H2327 H 0.28145 0.45831 0.85595 0.0
H2328 H 0.31285 0.39804 0.79092 0.0
H2329 H 0.28664 0.33282 0.78829 0.0
H2330 H 0.17964 0.40845 0.8653 0.0
H2331 H 0.19838 0.3571 0.90922 0.0
C2332 C 0.41317 0.52954 0.52649 0.0
C2333 C 0.3979 0.53894 0.51141 0.0
C2334 C 0.37618 0.52911 0.51382 0.0
C2335 C 0.37909 0.51477 0.5306 0.0
N2336 N 0.40121 0.51508 0.53887 0.0
Co2337 Co 0.41019 0.50151 0.56662 0.0
N2338 N 0.38502 0.4793 0.56382 0.0
C2339 C 0.36546 0.48117 0.55141 0.0
C2340 C 0.35079 0.46346 0.55287 0.0
C2341 C 0.36177 0.44971 0.56725 0.0
C2342 C 0.38259 0.45986 0.57384 0.0
N2343 N 0.41816 0.48814 0.59491 0.0
C2344 C 0.41254 0.46827 0.60294 0.0
C2345 C 0.42188 0.46573 0.6236 0.0
C2346 C 0.43365 0.48467 0.6285 0.0
C2347 C 0.43082 0.49779 0.61064 0.0
N2348 N 0.4359 0.52344 0.56829 0.0
C2349 C 0.44902 0.52742 0.58613 0.0
C2350 C 0.47059 0.53639 0.58091 0.0
C2351 C 0.47077 0.5383 0.55869 0.0
C2352 C 0.44862 0.53176 0.55123 0.0
N2353 N 0.38744 0.52135 0.58214 0.0
C2354 C 0.35648 0.54966 0.60599 0.0
C2355 C 0.37308 0.55761 0.59082 0.0
C2356 C 0.38808 0.54335 0.57905 0.0
C2357 C 0.35592 0.52704 0.60877 0.0
C2358 C 0.37146 0.51335 0.59697 0.0
N2359 N 0.43355 0.4821 0.55204 0.0
C2360 C 0.47291 0.46597 0.55272 0.0
C2361 C 0.47009 0.45766 0.53188 0.0
C2362 C 0.44831 0.46154 0.52125 0.0
C2363 C 0.43019 0.47373 0.53166 0.0
C2364 C 0.45474 0.47805 0.56235 0.0
H2365 H 0.41366 0.47661 0.5232 0.0
H2366 H 0.45838 0.48447 0.57816 0.0
H2367 H 0.40038 0.55024 0.56751 0.0
H2368 H 0.37069 0.4962 0.60016 0.0
C2369 C 0.36294 0.49868 0.53705 0.0
C2370 C 0.43889 0.53438 0.52851 0.0
C2371 C 0.39789 0.45196 0.59155 0.0
C2372 C 0.4446 0.51609 0.60558 0.0
H2373 H 0.40207 0.55139 0.49967 0.0
H2374 H 0.36041 0.5317 0.5041 0.0
H2375 H 0.33427 0.4607 0.54429 0.0
H2376 H 0.35488 0.43431 0.57275 0.0
H2377 H 0.42066 0.45157 0.63388 0.0
H2378 H 0.44429 0.48787 0.64277 0.0
H2379 H 0.48567 0.53856 0.59162 0.0
H2380 H 0.48645 0.54195 0.54938 0.0
H2381 H 0.37437 0.57484 0.58786 0.0
H2382 H 0.34391 0.51987 0.62046 0.0
H2383 H 0.48932 0.46334 0.56155 0.0
H2384 H 0.4453 0.45522 0.5051 0.0
C2385 C 0.79155 0.13338 0.14525 0.0
C2386 C 0.80291 0.13943 0.12619 0.0
C2387 C 0.8001 0.16124 0.12417 0.0
C2388 C 0.78697 0.16735 0.14186 0.0
N2389 N 0.78093 0.1508 0.15503 0.0
Co2390 Co 0.76133 0.15352 0.18225 0.0
N2391 N 0.7538 0.18491 0.17676 0.0
C2392 C 0.76224 0.19687 0.16018 0.0
C2393 C 0.75248 0.21714 0.1589 0.0
C2394 C 0.73716 0.2184 0.176 0.0
C2395 C 0.73884 0.19891 0.18717 0.0
N2396 N 0.74285 0.15653 0.20994 0.0
C2397 C 0.73211 0.17414 0.21923 0.0
C2398 C 0.72629 0.16994 0.24072 0.0
C2399 C 0.73289 0.14906 0.24491 0.0
C2400 C 0.74282 0.1417 0.22599 0.0
N2401 N 0.76786 0.12166 0.18671 0.0
C2402 C 0.76281 0.11059 0.20499 0.0
C2403 C 0.77004 0.08939 0.20439 0.0
C2404 C 0.78063 0.08678 0.18457 0.0
C2405 C 0.7793 0.1066 0.17404 0.0
N2406 N 0.78994 0.16146 0.19971 0.0
C2407 C 0.80507 0.16672 0.24278 0.0
C2408 C 0.80974 0.14742 0.23153 0.0
C2409 C 0.803 0.14551 0.20963 0.0
C2410 C 0.79785 0.18458 0.23044 0.0
C2411 C 0.79087 0.18171 0.20885 0.0
N2412 N 0.73182 0.14592 0.16651 0.0
C2413 C 0.6922 0.13126 0.16964 0.0
C2414 C 0.6844 0.14337 0.15184 0.0
C2415 C 0.70142 0.1553 0.14027 0.0
C2416 C 0.72506 0.15622 0.14778 0.0
C2417 C 0.71578 0.13262 0.17654 0.0
H2418 H 0.7374 0.16617 0.13899 0.0
H2419 H 0.72047 0.1238 0.19088 0.0
H2420 H 0.80641 0.13032 0.20165 0.0
H2421 H 0.78432 0.1958 0.20061 0.0
C2422 C 0.77792 0.18801 0.1452 0.0
C2423 C 0.79173 0.11088 0.1533 0.0
C2424 C 0.7281 0.1954 0.20871 0.0
C2425 C 0.75217 0.12099 0.22265 0.0
H2426 H 0.81211 0.12916 0.11471 0.0
H2427 H 0.80628 0.17136 0.111 0.0
H2428 H 0.75583 0.22943 0.14677 0.0
H2429 H 0.72633 0.23234 0.17992 0.0
H2430 H 0.71873 0.18097 0.25248 0.0
H2431 H 0.73114 0.14044 0.26011 0.0
H2432 H 0.76844 0.07741 0.21711 0.0
H2433 H 0.78932 0.07219 0.17895 0.0
H2434 H 0.81704 0.13347 0.23981 0.0
H2435 H 0.79631 0.2005 0.2377 0.0
H2436 H 0.67987 0.12131 0.17875 0.0
H2437 H 0.69629 0.16473 0.12622 0.0
C2438 C 0.61412 0.02319 1.01302 0.0
C2439 C 0.6278 0.02587 0.03159 0.0
C2440 C 0.64865 0.01483 0.02815 0.0
C2441 C 0.64655 1.00592 1.00782 0.0
N2442 N 0.62566 1.01066 0.99829 0.0
Co2443 Co 0.61519 1.00032 0.96936 0.0
N2444 N 0.63826 0.97606 0.96973 0.0
C2445 C 0.6579 0.97501 0.98216 0.0
C2446 C 0.67079 0.95641 0.97882 0.0
C2447 C 0.65853 0.94513 0.96325 0.0
C2448 C 0.63873 0.95751 0.95794 0.0
N2449 N 0.60489 0.9898 0.9405 0.0
C2450 C 0.6081 0.9701 0.93096 0.0
C2451 C 0.59773 0.96978 0.91055 0.0
C2452 C 0.5879 0.98997 0.90732 0.0
C2453 C 0.59274 1.00157 0.92587 0.0
N2454 N 0.59215 0.0246 0.9695 0.0
C2455 C 0.58138 0.0328 0.95185 0.0
C2456 C 0.56575 0.04917 0.95708 0.0
C2457 C 0.56691 0.05128 0.97935 0.0
C2458 C 0.58314 0.036 0.98656 0.0
N2459 N 0.63936 0.0194 0.95475 0.0
C2460 C 0.66962 0.04759 0.93013 0.0
C2461 C 0.6555 0.0553 0.94738 0.0
C2462 C 0.64095 0.04105 0.95959 0.0
C2463 C 0.66854 0.0252 0.92599 0.0
C2464 C 0.65331 1.01157 0.93819 0.0
N2465 N 0.59059 0.98172 0.983 0.0
C2466 C 0.5494 0.97021 0.98422 0.0
C2467 C 0.55379 0.95611 1.00158 0.0
C2468 C 0.57747 0.95501 1.00921 0.0
C2469 C 0.59546 0.96805 0.9999 0.0
C2470 C 0.5678 0.98252 0.97515 0.0
H2471 H 0.61331 0.967 1.00627 0.0
H2472 H 0.56336 0.99285 0.96171 0.0
H2473 H 0.6305 0.04776 0.97267 0.0
H2474 H 0.65242 0.99469 0.93374 0.0
C2475 C 0.66122 0.98971 0.99922 0.0
C2476 C 0.59085 0.03353 1.00942 0.0
C2477 C 0.62197 0.95204 0.94045 0.0
C2478 C 0.58281 0.02173 0.93184 0.0
H2479 H 0.62321 0.0347 0.04616 0.0
H2480 H 0.66303 1.01261 0.0396 0.0
H2481 H 0.68669 0.95125 0.98727 0.0
H2482 H 0.6637 0.92968 0.95646 0.0
H2483 H 0.59733 0.95638 0.89924 0.0
H2484 H 0.57759 0.99522 0.89345 0.0
H2485 H 0.55402 0.05782 0.94619 0.0
H2486 H 0.55694 0.06265 0.98915 0.0
H2487 H 0.65569 0.07234 0.95149 0.0
H2488 H 0.67883 0.01828 0.91285 0.0
H2489 H 0.53165 0.97201 0.97765 0.0
H2490 H 0.58233 0.94395 0.02207 0.0
C2491 C 0.90666 1.00606 0.51524 0.0
C2492 C 0.89331 1.00323 0.53398 0.0
C2493 C 0.87227 1.01405 0.53085 0.0
C2494 C 0.87396 0.023 0.51052 0.0
N2495 N 0.89475 0.01848 0.5007 0.0
Co2496 Co 0.90465 0.02897 0.47168 0.0
N2497 N 0.88142 0.0531 0.47255 0.0
C2498 C 0.86199 0.05397 0.48527 0.0
C2499 C 0.84886 0.07247 0.4822 0.0
C2500 C 0.86073 0.08387 0.4665 0.0
C2501 C 0.88055 0.07167 0.46086 0.0
N2502 N 0.91426 0.03964 0.44268 0.0
C2503 C 0.91062 0.05931 0.43324 0.0
C2504 C 0.92052 0.05972 0.41265 0.0
C2505 C 0.93049 0.0396 0.40919 0.0
C2506 C 0.92618 0.02796 0.42782 0.0
N2507 N 0.92788 1.00487 0.47139 0.0
C2508 C 0.93844 0.99681 0.45357 0.0
C2509 C 0.95436 0.9806 0.45854 0.0
C2510 C 0.95362 0.97847 0.48083 0.0
C2511 C 0.93733 0.99356 0.48832 0.0
N2512 N 0.88034 1.00975 0.45731 0.0
C2513 C 0.8502 0.98131 0.43269 0.0
C2514 C 0.86462 0.97369 0.44978 0.0
C2515 C 0.87911 0.98804 0.46197 0.0
C2516 C 0.85093 1.00376 0.42875 0.0
C2517 C 0.86607 0.0175 0.44096 0.0
N2518 N 0.92949 0.04762 0.48502 0.0
C2519 C 0.97064 0.05943 0.4852 0.0
C2520 C 0.96674 0.07267 0.50321 0.0
C2521 C 0.9436 0.07329 0.51192 0.0
C2522 C 0.92525 0.06057 0.50267 0.0
C2523 C 0.95197 0.04726 0.47636 0.0
H2524 H 0.90769 0.06115 0.50976 0.0
H2525 H 0.95595 0.03744 0.46242 0.0
H2526 H 0.88981 0.98136 0.47489 0.0
H2527 H 0.86666 0.03442 0.43664 0.0
C2528 C 0.85902 0.03915 0.50223 0.0
C2529 C 0.93 0.99599 0.51131 0.0
C2530 C 0.89688 0.07729 0.44309 0.0
C2531 C 0.93646 1.00788 0.4336 0.0
H2532 H 0.89823 0.99446 0.54849 0.0
H2533 H 0.85806 0.01615 0.54251 0.0
H2534 H 0.83304 0.07746 0.49087 0.0
H2535 H 0.85526 0.09928 0.45981 0.0
H2536 H 0.92056 0.07313 0.40136 0.0
H2537 H 0.94054 0.03445 0.39513 0.0
H2538 H 0.966 0.97208 0.44746 0.0
H2539 H 0.96391 0.9672 0.49046 0.0
H2540 H 0.86473 0.95662 0.45376 0.0
H2541 H 0.84043 1.01065 0.41575 0.0
H2542 H 0.98811 0.05856 0.47783 0.0
H2543 H 0.93974 0.08343 0.52582 0.0
C2544 C 0.14871 0.2291 0.50804 0.0
C2545 C 0.12367 0.22821 0.50988 0.0
C2546 C 0.16017 0.24324 0.49329 0.0
C2547 C 0.14721 0.25757 0.47992 0.0
H2548 H 0.15961 0.21849 0.51788 0.0
H2549 H 0.17941 0.24311 0.49253 0.0
S2550 S 0.0813 0.26196 0.47835 0.0
N2551 N 0.08638 0.2432 0.49686 0.0
N2552 N 0.1077 0.26964 0.46948 0.0
C2553 C 0.12218 0.25693 0.48169 0.0
C2554 C 0.11052 0.24233 0.49649 0.0
C2555 C 0.06641 0.85558 0.70679 0.0
C2556 C 0.08591 0.8644 0.71825 0.0
C2557 C 0.05232 0.86825 0.69243 0.0
C2558 C 0.05715 0.89037 0.68836 0.0
H2559 H 0.06192 0.83868 0.70899 0.0
H2560 H 0.03773 0.86048 0.684 0.0
S2561 S 0.10726 0.92106 0.71282 0.0
N2562 N 0.10949 0.8968 0.72392 0.0
N2563 N 0.08408 0.92001 0.69639 0.0
C2564 C 0.0768 0.89929 0.69951 0.0
C2565 C 0.09082 0.88652 0.71449 0.0
C2566 C 0.37119 0.79915 1.00807 0.0
C2567 C 0.3962 0.80073 1.00969 0.0
C2568 C 0.36008 0.78462 0.99347 0.0
C2569 C 0.37341 0.77061 0.98005 0.0
H2570 H 0.36004 0.80954 0.01792 0.0
H2571 H 0.34084 0.78424 0.99283 0.0
S2572 S 0.4394 0.76796 0.97801 0.0
N2573 N 0.43387 0.78667 0.9965 0.0
N2574 N 0.4132 0.75953 0.96936 0.0
C2575 C 0.39842 0.7719 0.98164 0.0
C2576 C 0.40971 0.78688 0.99629 0.0
C2577 C 0.43322 0.14393 0.21379 0.0
C2578 C 0.43712 0.16637 0.21688 0.0
C2579 C 0.4469 0.13146 0.19892 0.0
C2580 C 0.4657 0.14058 0.18672 0.0
H2581 H 0.41894 0.13603 0.2225 0.0
H2582 H 0.44231 0.11461 0.19657 0.0
S2583 S 0.48461 0.19813 0.18971 0.0
N2584 N 0.46198 0.19682 0.20675 0.0
N2585 N 0.48795 0.17348 0.17973 0.0
C2586 C 0.47022 0.16282 0.19019 0.0
C2587 C 0.45597 0.17561 0.20494 0.0
C2588 C 0.12191 0.77208 0.04757 0.0
C2589 C 0.14695 0.77078 0.04916 0.0
C2590 C 0.1105 0.78677 0.03331 0.0
C2591 C 0.12354 0.80067 0.01956 0.0
H2592 H 0.11093 0.76186 0.05774 0.0
H2593 H 0.09125 0.78708 0.03291 0.0
S2594 S 0.18951 0.80377 0.01708 0.0
N2595 N 0.18433 0.78483 0.03538 0.0
N2596 N 0.16314 0.81219 1.00882 0.0
C2597 C 0.14859 0.79944 0.0209 0.0
C2598 C 0.16018 0.78466 0.03559 0.0
C2599 C 0.46738 0.86653 0.3393 0.0
C2600 C 0.46278 0.88871 0.34343 0.0
C2601 C 0.45317 0.85401 0.32488 0.0
C2602 C 0.43378 0.86303 0.31339 0.0
H2603 H 0.48193 0.85863 0.34766 0.0
H2604 H 0.45752 0.83707 0.32263 0.0
S2605 S 0.41311 0.91994 0.31887 0.0
N2606 N 0.43624 0.91864 0.33534 0.0
N2607 N 0.41059 0.8957 0.30775 0.0
C2608 C 0.42911 0.8852 0.31722 0.0
C2609 C 0.44325 0.89782 0.33225 0.0
C2610 C 0.36087 0.24503 0.53648 0.0
C2611 C 0.37382 0.25903 0.55021 0.0
C2612 C 0.37234 0.23064 0.52192 0.0
C2613 C 0.39739 0.22916 0.52059 0.0
H2614 H 0.34161 0.24532 0.53681 0.0
H2615 H 0.3614 0.22029 0.51184 0.0
S2616 S 0.43978 0.2619 0.55317 0.0
N2617 N 0.41337 0.27013 0.56153 0.0
N2618 N 0.43469 0.24333 0.53445 0.0
C2619 C 0.41054 0.24299 0.53431 0.0
C2620 C 0.39887 0.25781 0.54895 0.0
C2621 C 0.09534 0.15682 0.83348 0.0
C2622 C 0.08529 0.16618 0.81466 0.0
C2623 C 0.08173 0.14411 0.84811 0.0
C2624 C 0.05707 0.1405 0.84517 0.0
H2625 H 0.11404 0.15921 0.83689 0.0
H2626 H 0.09056 0.13733 0.86217 0.0
S2627 S 0.02173 0.16144 0.7988 0.0
N2628 N 0.04888 0.17043 0.79391 0.0
N2629 N 0.02336 0.14757 0.82167 0.0
C2630 C 0.04684 0.14962 0.82636 0.0
C2631 C 0.06082 0.16218 0.81117 0.0
C2632 C 0.18955 0.43228 0.13754 0.0
C2633 C 0.21448 0.43429 0.14008 0.0
C2634 C 0.17601 0.44694 0.12477 0.0
C2635 C 0.18642 0.46494 0.11429 0.0
H2636 H 0.1804 0.41888 0.14517 0.0
H2637 H 0.15707 0.44418 0.12318 0.0
S2638 S 0.25078 0.4785 0.11624 0.0
N2639 N 0.24881 0.45622 0.13097 0.0
N2640 N 0.22347 0.48411 0.10805 0.0
C2641 C 0.21118 0.46762 0.11733 0.0
C2642 C 0.22507 0.45237 0.12993 0.0
C2643 C 0.68802 0.0958 0.8935 0.0
C2644 C 0.71287 0.09339 0.8906 0.0
C2645 C 0.67442 0.08118 0.90624 0.0
C2646 C 0.68468 0.06286 0.91629 0.0
H2647 H 0.67901 0.10948 0.88621 0.0
H2648 H 0.65556 0.08423 0.90813 0.0
S2649 S 0.74872 0.04822 0.91322 0.0
N2650 N 0.74693 0.07075 0.89886 0.0
N2651 N 0.72146 0.04296 0.92173 0.0
C2652 C 0.70933 0.05979 0.91287 0.0
C2653 C 0.72329 0.07499 0.90031 0.0
C2654 C 0.83189 0.93268 0.39634 0.0
C2655 C 0.80714 0.93529 0.39295 0.0
C2656 C 0.84542 0.94735 0.40913 0.0
C2657 C 0.8352 0.96592 0.41882 0.0
H2658 H 0.84089 0.91882 0.38937 0.0
H2659 H 0.8642 0.94416 0.41134 0.0
S2660 S 0.77132 0.98097 0.41467 0.0
N2661 N 0.77317 0.95829 0.40053 0.0
N2662 N 0.79848 0.98611 0.42352 0.0
C2663 C 0.81063 0.96912 0.415 0.0
C2664 C 0.79674 0.95388 0.40235 0.0
C2665 C 0.84553 0.08189 0.12637 0.0
C2666 C 0.83586 0.06288 0.11712 0.0
C2667 C 0.8315 0.09664 0.13857 0.0
C2668 C 0.80682 0.09359 0.1418 0.0
H2669 H 0.86424 0.08541 0.12421 0.0
H2670 H 0.84004 0.11089 0.14522 0.0
S2671 S 0.77232 0.04677 0.12086 0.0
N2672 N 0.79972 0.04189 0.11247 0.0
N2673 N 0.77345 0.06983 0.13445 0.0
C2674 C 0.79695 0.07459 0.13279 0.0
C2675 C 0.81134 0.0593 0.12072 0.0
C2676 C 0.33509 0.598 0.64128 0.0
C2677 C 0.31023 0.59504 0.64329 0.0
C2678 C 0.34967 0.58348 0.62931 0.0
C2679 C 0.34038 0.56484 0.61903 0.0
H2680 H 0.34334 0.612 0.6487 0.0
H2681 H 0.36852 0.58688 0.62822 0.0
S2682 S 0.2765 0.54921 0.61944 0.0
N2683 N 0.27713 0.57179 0.63382 0.0
N2684 N 0.30426 0.54438 0.61207 0.0
C2685 C 0.31562 0.5614 0.6214 0.0
C2686 C 0.30072 0.57641 0.63331 0.0
C2687 C 0.21607 0.57758 0.39718 0.0
C2688 C 0.20674 0.59558 0.38588 0.0
C2689 C 0.20122 0.5631 0.40896 0.0
C2690 C 0.17626 0.56599 0.41036 0.0
H2691 H 0.2351 0.57493 0.39731 0.0
H2692 H 0.2095 0.54979 0.41756 0.0
S2693 S 0.14257 0.60935 0.38196 0.0
N2694 N 0.17056 0.61432 0.37556 0.0
N2695 N 0.14303 0.58777 0.39777 0.0
C2696 C 0.16674 0.58361 0.3986 0.0
C2697 C 0.18178 0.59812 0.38638 0.0
C2698 C 0.31462 0.45383 0.92658 0.0
C2699 C 0.33305 0.46627 0.91718 0.0
C2700 C 0.30039 0.43938 0.91413 0.0
C2701 C 0.30394 0.4362 0.8916 0.0
H2702 H 0.31109 0.45531 0.94379 0.0
H2703 H 0.2867 0.4302 0.92237 0.0
S2704 S 0.35099 0.46333 0.85919 0.0
N2705 N 0.3543 0.4737 0.88372 0.0
N2706 N 0.32859 0.44613 0.86086 0.0
C2707 C 0.3225 0.44833 0.88207 0.0
C2708 C 0.33669 0.46336 0.89465 0.0
C2709 C 0.60979 0.7419 0.99497 0.0
C2710 C 0.62308 0.72832 1.00886 0.0
C2711 C 0.62093 0.75662 0.98056 0.0
C2712 C 0.64595 0.75821 0.97892 0.0
H2713 H 0.59055 0.74134 0.9954 0.0
H2714 H 0.60978 0.76661 0.9703 0.0
S2715 S 0.68908 0.72609 1.01131 0.0
N2716 N 0.66287 0.71746 0.01973 0.0
N2717 N 0.68357 0.74473 0.99277 0.0
C2718 C 0.65942 0.74461 0.99261 0.0
C2719 C 0.6481 0.72987 1.0075 0.0
C2720 C 0.58594 0.38835 0.21543 0.0
C2721 C 0.58321 0.36572 0.21806 0.0
C2722 C 0.57172 0.40048 0.20066 0.0
C2723 C 0.55356 0.39076 0.1881 0.0
H2724 H 0.59976 0.3967 0.22435 0.0
H2725 H 0.57545 0.41756 0.19866 0.0
S2726 S 0.53757 0.33245 0.18995 0.0
N2727 N 0.55995 0.33444 0.20721 0.0
N2728 N 0.53309 0.35709 0.18037 0.0
C2729 C 0.55015 0.36832 0.19117 0.0
C2730 C 0.5649 0.35592 0.20583 0.0
C2731 C 0.86775 0.29961 0.50794 0.0
C2732 C 0.89268 0.30218 0.50917 0.0
C2733 C 0.85708 0.28468 0.49346 0.0
C2734 C 0.87081 0.2712 0.47981 0.0
H2735 H 0.8563 0.30954 0.51798 0.0
H2736 H 0.83787 0.28357 0.49307 0.0
S2737 S 0.93681 0.27112 0.47684 0.0
N2738 N 0.93073 0.28963 0.4954 0.0
N2739 N 0.91089 0.26165 0.46859 0.0
C2740 C 0.89576 0.27345 0.48107 0.0
C2741 C 0.90659 0.28887 0.49556 0.0
C2742 C 0.95048 0.67165 0.70597 0.0
C2743 C 0.93001 0.66229 0.71534 0.0
C2744 C 0.96544 0.6599 0.69156 0.0
C2745 C 0.9605 0.63828 0.68537 0.0
H2746 H 0.95503 0.68824 0.70984 0.0
H2747 H 0.98083 0.66799 0.68482 0.0
S2748 S 0.90856 0.60648 0.70458 0.0
N2749 N 0.90571 0.62994 0.71724 0.0
N2750 N 0.93285 0.60842 0.68962 0.0
C2751 C 0.94 0.62882 0.6946 0.0
C2752 C 0.92507 0.64063 0.70961 0.0
C2753 C 0.64875 0.29962 0.52377 0.0
C2754 C 0.62376 0.30127 0.52178 0.0
C2755 C 0.65965 0.28512 0.53857 0.0
C2756 C 0.64616 0.27114 0.55187 0.0
H2757 H 0.66007 0.30995 0.51403 0.0
H2758 H 0.67888 0.28471 0.53944 0.0
S2759 S 0.58011 0.26864 0.55301 0.0
N2760 N 0.58593 0.28728 0.53456 0.0
N2761 N 0.60617 0.2602 0.56202 0.0
C2762 C 0.62116 0.2725 0.54992 0.0
C2763 C 0.61008 0.28746 0.53507 0.0
C2764 C 0.9545 0.35255 0.82741 0.0
C2765 C 0.93612 0.36193 0.81485 0.0
C2766 C 0.96874 0.36499 0.8419 0.0
C2767 C 0.96525 0.3875 0.84499 0.0
H2768 H 0.95801 0.33537 0.826 0.0
H2769 H 0.9824 0.35677 0.85115 0.0
S2770 S 0.91833 0.41986 0.81756 0.0
N2771 N 0.91497 0.39536 0.80725 0.0
N2772 N 0.9407 0.41819 0.83485 0.0
C2773 C 0.94673 0.397 0.83275 0.0
C2774 C 0.93254 0.38443 0.81769 0.0
C2775 C 0.89972 0.7562 0.05146 0.0
C2776 C 0.8747 0.75795 0.05298 0.0
C2777 C 0.91086 0.7414 0.0371 0.0
C2778 C 0.89758 0.72787 0.02314 0.0
H2779 H 0.91086 0.76614 0.06177 0.0
H2780 H 0.9301 0.74071 0.03677 0.0
S2781 S 0.83158 0.72606 0.02036 0.0
N2782 N 0.83709 0.74469 0.03893 0.0
N2783 N 0.85779 0.71725 1.01207 0.0
C2784 C 0.87257 0.72958 0.02438 0.0
C2785 C 0.86124 0.74442 0.03921 0.0
C2786 C 0.58167 0.64502 0.34902 0.0
C2787 C 0.55727 0.64045 0.34565 0.0
C2788 C 0.59514 0.65789 0.33439 0.0
C2789 C 0.58522 0.66655 0.31516 0.0
H2790 H 0.59041 0.63886 0.36341 0.0
H2791 H 0.61365 0.66095 0.33813 0.0
S2792 S 0.52224 0.65935 0.29821 0.0
N2793 N 0.52391 0.64593 0.32134 0.0
N2794 N 0.54911 0.66919 0.29369 0.0
C2795 C 0.561 0.66165 0.3113 0.0
C2796 C 0.54717 0.64887 0.32645 0.0
C2797 C 0.68705 0.93217 0.63795 0.0
C2798 C 0.71157 0.93549 0.64186 0.0
C2799 C 0.67315 0.94693 0.62566 0.0
C2800 C 0.68277 0.96621 0.61695 0.0
H2801 H 0.67856 0.91769 0.64412 0.0
H2802 H 0.65456 0.94319 0.623 0.0
S2803 S 0.74592 0.98308 0.62263 0.0
N2804 N 0.74473 0.95982 0.63582 0.0
N2805 N 0.71872 0.98772 0.61358 0.0
C2806 C 0.70712 0.97005 0.62126 0.0
C2807 C 0.72138 0.95477 0.63345 0.0
C2808 C 0.23313 0.35583 0.28241 0.0
C2809 C 0.21518 0.36483 0.26912 0.0
C2810 C 0.23006 0.35333 0.30494 0.0
C2811 C 0.20889 0.35966 0.31528 0.0
H2812 H 0.24962 0.35018 0.27526 0.0
H2813 H 0.2439 0.34537 0.31412 0.0
S2814 S 0.15733 0.3863 0.28861 0.0
N2815 N 0.17604 0.38152 0.26851 0.0
N2816 N 0.17054 0.37733 0.31079 0.0
C2817 C 0.19136 0.36987 0.30244 0.0
C2818 C 0.19444 0.37236 0.27945 0.0
C2819 C 0.96165 0.99437 0.54071 0.0
C2820 C 0.94254 0.98449 0.52971 0.0
C2821 C 0.97197 0.98486 0.5594 0.0
C2822 C 0.96336 0.9652 0.56806 0.0
H2823 H 0.96854 1.0097 0.53495 0.0
H2824 H 0.98693 0.99285 0.56704 0.0
S2825 S 0.91357 0.93291 0.54548 0.0
N2826 N 0.91564 0.95381 0.52887 0.0
N2827 N 0.93442 0.93638 0.56405 0.0
C2828 C 0.94419 0.95529 0.55723 0.0
C2829 C 0.93399 0.96476 0.53808 0.0
C2830 C 0.29355 0.67606 0.8043 0.0
C2831 C 0.31474 0.66958 0.81451 0.0
C2832 C 0.29062 0.67406 0.78172 0.0
C2833 C 0.30878 0.66558 0.7683 0.0
H2834 H 0.27958 0.68375 0.81365 0.0
H2835 H 0.27409 0.67967 0.77465 0.0
S2836 S 0.36681 0.64421 0.78745 0.0
N2837 N 0.35331 0.65239 0.80979 0.0
N2838 N 0.34818 0.64937 0.7674 0.0
C2839 C 0.32957 0.658 0.77849 0.0
C2840 C 0.33245 0.65986 0.80152 0.0
C2841 C 0.5592 0.03549 0.03879 0.0
C2842 C 0.57858 0.04509 0.02794 0.0
C2843 C 0.54881 0.04521 0.05734 0.0
C2844 C 0.55755 0.06483 0.06599 0.0
H2845 H 0.55214 0.02023 0.03298 0.0
H2846 H 0.53369 0.0374 0.06488 0.0
S2847 S 0.60792 0.09653 0.0437 0.0
N2848 N 0.60582 0.07552 0.02719 0.0
N2849 N 0.58683 0.09338 0.06209 0.0
C2850 C 0.57694 0.0745 0.05529 0.0
C2851 C 0.58727 0.06479 0.0363 0.0
C2852 C 0.18855 0.66171 0.22798 0.0
C2853 C 0.20722 0.66919 0.21456 0.0
C2854 C 0.19135 0.65954 0.25056 0.0
C2855 C 0.21294 0.66481 0.26072 0.0
H2856 H 0.17125 0.6583 0.22106 0.0
H2857 H 0.17617 0.65469 0.26021 0.0
S2858 S 0.26862 0.68148 0.23294 0.0
N2859 N 0.24893 0.67945 0.21315 0.0
N2860 N 0.2543 0.67497 0.25538 0.0
C2861 C 0.23227 0.67071 0.24738 0.0
C2862 C 0.22943 0.67291 0.22438 0.0
C2863 C 0.55431 0.98035 0.50144 0.0
C2864 C 0.57828 0.98736 0.50072 0.0
C2865 C 0.54265 0.97136 0.48316 0.0
C2866 C 0.55431 0.96839 0.46306 0.0
H2867 H 0.54399 0.98205 0.51609 0.0
H2868 H 0.52433 0.96627 0.48495 0.0
S2869 S 0.61285 0.99183 0.44895 0.0
N2870 N 0.60898 0.99831 0.47466 0.0
N2871 N 0.58963 0.97696 0.44239 0.0
C2872 C 0.57726 0.97715 0.46134 0.0
C2873 C 0.58845 0.98785 0.47948 0.0
C2874 C 0.32636 0.36717 0.72911 0.0
C2875 C 0.30817 0.35879 0.71564 0.0
C2876 C 0.32296 0.37038 0.75156 0.0
C2877 C 0.30126 0.36518 0.76161 0.0
H2878 H 0.34371 0.37067 0.72234 0.0
H2879 H 0.33776 0.37607 0.76125 0.0
S2880 S 0.24691 0.34539 0.73363 0.0
N2881 N 0.26691 0.3472 0.71409 0.0
N2882 N 0.26048 0.35339 0.75601 0.0
C2883 C 0.2825 0.358 0.74819 0.0
C2884 C 0.28592 0.35484 0.72533 0.0
C2885 C 0.96455 0.04876 1.0022 0.0
C2886 C 0.94057 0.04181 1.00136 0.0
C2887 C 0.97628 0.05782 0.98402 0.0
C2888 C 0.96469 0.06084 0.96392 0.0
H2889 H 0.97482 0.047 0.01687 0.0
H2890 H 0.99459 0.06293 0.9859 0.0
S2891 S 0.90618 0.03756 0.94946 0.0
N2892 N 0.90991 0.03102 0.97517 0.0
N2893 N 0.92949 0.05237 0.94304 0.0
C2894 C 0.94175 0.05211 0.96205 0.0
C2895 C 0.93046 0.0414 0.9801 0.0
C2896 C 0.26663 0.24548 0.34565 0.0
C2897 C 0.28314 0.25924 0.33515 0.0
C2898 C 0.24738 0.25373 0.35787 0.0
C2899 C 0.24346 0.27615 0.35993 0.0
H2900 H 0.26899 0.22809 0.34495 0.0
H2901 H 0.23606 0.24246 0.36647 0.0
S2902 S 0.28069 0.3193 0.33546 0.0
N2903 N 0.29351 0.29662 0.32741 0.0
N2904 N 0.25765 0.31197 0.35035 0.0
C2905 C 0.25956 0.29007 0.34931 0.0
C2906 C 0.27922 0.2817 0.33698 0.0
C2907 C 0.07812 0.02831 0.6232 0.0
C2908 C 0.05627 0.01838 0.61848 0.0
C2909 C 0.08119 0.05078 0.62061 0.0
C2910 C 0.06253 0.0643 0.61326 0.0
H2911 H 0.09328 0.01855 0.62789 0.0
H2912 H 0.09867 0.05751 0.62357 0.0
S2913 S 1.0006 0.04653 0.60236 0.0
N2914 N 0.01477 0.02406 0.60895 0.0
N2915 N 0.0206 0.06606 0.60376 0.0
C2916 C 0.04009 0.05472 0.61012 0.0
C2917 C 0.03699 0.03185 0.61273 0.0
C2918 C 0.24477 0.74801 0.83554 0.0
C2919 C 0.23849 0.77009 0.83672 0.0
C2920 C 0.26417 0.73955 0.84747 0.0
C2921 C 0.27822 0.75277 0.86106 0.0
H2922 H 0.23469 0.73718 0.82522 0.0
H2923 H 0.26796 0.72238 0.84637 0.0
S2924 S 0.26807 0.81116 0.87157 0.0
N2925 N 0.24741 0.80471 0.85365 0.0
N2926 N 0.28333 0.78875 0.87609 0.0
C2927 C 0.27196 0.77476 0.86261 0.0
C2928 C 0.25232 0.78341 0.85044 0.0
C2929 C 0.442 1.00216 0.12191 0.0
C2930 C 0.46343 1.0123 0.11611 0.0
C2931 C 0.43904 0.97964 0.11947 0.0
C2932 C 0.45738 0.96628 0.11119 0.0
H2933 H 0.42706 1.01179 0.12742 0.0
H2934 H 0.42185 0.97273 0.12333 0.0
S2935 S 0.51819 0.98476 0.09687 0.0
N2936 N 0.50428 1.00703 0.10445 0.0
N2937 N 0.49855 0.96504 0.09927 0.0
C2938 C 0.47942 0.97613 0.10682 0.0
C2939 C 0.48243 0.99901 0.10936 0.0
C2940 C 0.27915 0.77583 0.17175 0.0
C2941 C 0.28166 0.76961 0.1936 0.0
C2942 C 0.26014 0.76818 0.15886 0.0
C2943 C 0.24317 0.75342 0.16701 0.0
H2944 H 0.29196 0.78678 0.16457 0.0
H2945 H 0.25911 0.77339 0.1421 0.0
S2946 S 0.24009 0.73413 0.2239 0.0
N2947 N 0.26405 0.74962 0.22344 0.0
N2948 N 0.22916 0.73446 0.199 0.0
C2949 C 0.24494 0.74782 0.18908 0.0
C2950 C 0.26401 0.75599 0.20236 0.0
C2951 C 0.44218 0.02743 0.40881 0.0
C2952 C 0.46361 0.01716 0.41449 0.0
C2953 C 0.43926 0.04994 0.41136 0.0
C2954 C 0.45773 0.06323 0.41945 0.0
H2955 H 0.42721 0.01789 0.40325 0.0
H2956 H 0.42207 0.05693 0.40764 0.0
S2957 S 0.51855 0.0446 0.43356 0.0
N2958 N 0.50442 0.0223 0.42639 0.0
N2959 N 0.49901 0.06443 0.43103 0.0
C2960 C 0.47975 0.05331 0.42376 0.0
C2961 C 0.48262 0.03037 0.4214 0.0
C2962 C 0.23801 0.25271 0.67177 0.0
C2963 C 0.23634 0.25885 0.69373 0.0
C2964 C 0.25687 0.25999 0.6585 0.0
C2965 C 0.27441 0.27436 0.66635 0.0
H2966 H 0.22472 0.24207 0.66484 0.0
H2967 H 0.25737 0.25474 0.64173 0.0
S2968 S 0.2798 0.29324 0.72316 0.0
N2969 N 0.25546 0.27823 0.72322 0.0
N2970 N 0.2899 0.29283 0.69801 0.0
C2971 C 0.27347 0.27986 0.68845 0.0
C2972 C 0.25464 0.27201 0.70212 0.0
C2973 C 0.08071 0.98046 0.9133 0.0
C2974 C 0.06223 0.96713 0.92125 0.0
C2975 C 0.07779 1.00299 0.91092 0.0
C2976 C 0.05635 1.01322 0.91666 0.0
H2977 H 0.0979 0.97349 0.90951 0.0
H2978 H 0.09274 1.01256 0.9054 0.0
S2979 S 1.00145 0.98566 0.93564 0.0
N2980 N 0.02098 0.96585 0.9329 0.0
N2981 N 0.01557 1.008 0.92863 0.0
C2982 C 0.03736 0.99997 0.92353 0.0
C2983 C 0.04023 0.97702 0.92569 0.0
C2984 C 0.32824 0.30399 0.20614 0.0
C2985 C 0.30897 0.31495 0.21585 0.0
C2986 C 0.33839 0.28532 0.21566 0.0
C2987 C 0.32977 0.27683 0.23539 0.0
H2988 H 0.33535 0.30977 0.19087 0.0
H2989 H 0.35329 0.27759 0.20766 0.0
S2990 S 0.27967 0.29921 0.26747 0.0
N2991 N 0.28149 0.31551 0.24627 0.0
N2992 N 0.30091 0.28096 0.26434 0.0
C2993 C 0.31058 0.28762 0.24528 0.0
C2994 C 0.30015 0.30653 0.23553 0.0
C2995 C 0.79989 0.22126 0.79666 0.0
C2996 C 0.80862 0.21253 0.81628 0.0
C2997 C 0.81021 0.23987 0.78711 0.0
C2998 C 0.82948 0.25071 0.79691 0.0
H2999 H 0.78478 0.21377 0.78876 0.0
H3000 H 0.80316 0.24575 0.77185 0.0
S3001 S 0.8588 0.23472 0.84839 0.0
N3002 N 0.8378 0.21633 0.84502 0.0
N3003 N 0.85668 0.25132 0.82746 0.0
C3004 C 0.8382 0.24225 0.81657 0.0
C3005 C 0.82795 0.2232 0.82611 0.0
C3006 C 1.008 0.59577 0.99117 0.0
C3007 C 0.99386 0.60906 1.00463 0.0
C3008 C 0.02748 0.58383 0.99945 0.0
C3009 C 0.0338 0.58472 0.02159 0.0
H3010 H 1.0042 0.5949 0.97395 0.0
H3011 H 0.0376 0.57374 0.98842 0.0
S3012 S 1.00408 0.61889 0.06324 0.0
N3013 N 0.98872 0.62356 0.04088 0.0
N3014 N 0.02487 0.60121 0.05651 0.0
C3015 C 0.01992 0.59821 0.03514 0.0
C3016 C 1.00016 0.61035 0.02667 0.0
C3017 C 0.71147 0.78839 0.28676 0.0
C3018 C 0.69203 0.77778 0.29653 0.0
C3019 C 0.72212 0.80685 0.29637 0.0
C3020 C 0.71356 0.81569 0.31603 0.0
H3021 H 0.71839 0.78246 0.27146 0.0
H3022 H 0.73732 0.81416 0.28846 0.0
S3023 S 0.66309 0.79406 0.34814 0.0
N3024 N 0.66494 0.77745 0.32717 0.0
N3025 N 0.68434 0.81221 0.34477 0.0
C3026 C 0.69408 0.80524 0.32584 0.0
C3027 C 0.68352 0.78632 0.31626 0.0
C3028 C 1.00611 0.9089 0.01685 0.0
C3029 C 0.02416 0.91734 1.00334 0.0
C3030 C 0.98688 0.92177 0.02408 0.0
C3031 C 0.98529 0.9439 0.01884 0.0
H3032 H 1.00652 0.89199 0.02147 0.0
H3033 H 0.97331 0.9144 0.03411 0.0
S3034 S 0.03007 0.97496 0.98744 0.0
N3035 N 0.04025 0.94985 0.98691 0.0
N3036 N 1.00507 0.97426 1.00154 0.0
C3037 C 1.00407 0.9529 1.00666 0.0
C3038 C 0.0233 0.93965 0.9988 0.0
C3039 C 0.19392 0.72478 0.70747 0.0
C3040 C 0.21376 0.71445 0.7169 0.0
C3041 C 0.18364 0.74348 0.71681 0.0
C3042 C 0.19261 0.75262 0.73613 0.0
H3043 H 0.18645 0.71847 0.69255 0.0
H3044 H 0.16832 0.75072 0.70901 0.0
S3045 S 0.24435 0.73214 0.76728 0.0
N3046 N 0.24225 0.71527 0.74652 0.0
N3047 N 0.22253 0.74985 0.76433 0.0
C3048 C 0.21242 0.74251 0.74571 0.0
C3049 C 0.22302 0.72358 0.73611 0.0
C3050 C 0.98759 0.43143 0.508 0.0
C3051 C 0.98698 0.42391 0.52952 0.0
C3052 C 1.00682 0.44373 0.49998 0.0
C3053 C 0.02763 0.44794 0.5124 0.0
H3054 H 0.97373 0.42698 0.49673 0.0
H3055 H 1.00524 0.44948 0.4835 0.0
S3056 S 0.03529 0.43096 0.57006 0.0
N3057 N 1.00838 0.42254 0.56367 0.0
N3058 N 0.04574 0.44268 0.54799 0.0
C3059 C 0.02715 0.44043 0.53412 0.0
C3060 C 1.00678 0.42907 0.54266 0.0
C3061 C 0.50243 0.59553 0.99835 0.0
C3062 C 0.4862 0.58463 1.01211 0.0
C3063 C 0.52167 0.60779 1.00663 0.0
C3064 C 0.52592 0.60951 0.0291 0.0
H3065 H 0.49991 0.59508 0.98094 0.0
H3066 H 0.5328 0.61658 0.99534 0.0
S3067 S 0.48958 0.58387 0.07229 0.0
N3068 N 0.47649 0.5762 0.04957 0.0
N3069 N 0.51231 0.59912 0.06495 0.0
C3070 C 0.51007 0.59855 0.04301 0.0
C3071 C 0.4904 0.58619 0.03462 0.0
C3072 C 0.72435 0.84859 0.80034 0.0
C3073 C 0.70351 0.85578 0.81073 0.0
C3074 C 0.72722 0.85047 0.77769 0.0
C3075 C 0.70937 0.8596 0.76434 0.0
H3076 H 0.73816 0.84062 0.80965 0.0
H3077 H 0.74355 0.84449 0.77054 0.0
S3078 S 0.65201 0.88227 0.78384 0.0
N3079 N 0.66541 0.87383 0.80611 0.0
N3080 N 0.67036 0.8766 0.76371 0.0
C3081 C 0.68879 0.86754 0.77469 0.0
C3082 C 0.68598 0.86579 0.79776 0.0
C3083 C 0.44218 0.4546 0.05533 0.0
C3084 C 0.46103 0.46456 0.06667 0.0
C3085 C 0.43208 0.46412 0.03662 0.0
C3086 C 0.44033 0.48407 0.02844 0.0
H3087 H 0.43532 0.4392 0.06091 0.0
H3088 H 0.41745 0.45597 0.02863 0.0
S3089 S 0.48938 0.51674 0.05175 0.0
N3090 N 0.48782 0.49538 0.06783 0.0
N3091 N 0.46846 0.51342 0.03319 0.0
C3092 C 0.45915 0.49416 0.03955 0.0
C3093 C 0.46954 0.48442 0.0585 0.0
C3094 C 0.82802 0.16083 0.30108 0.0
C3095 C 0.81108 0.17232 0.31349 0.0
C3096 C 0.82584 0.15869 0.2784 0.0
C3097 C 0.80675 0.16817 0.26707 0.0
H3098 H 0.8435 0.15393 0.30893 0.0
H3099 H 0.83967 0.15016 0.26964 0.0
S3100 S 0.75682 0.19886 0.29195 0.0
N3101 N 0.77417 0.19264 0.31265 0.0
N3102 N 0.76965 0.18822 0.27036 0.0
C3103 C 0.78923 0.17899 0.27941 0.0
C3104 C 0.79146 0.18113 0.30247 0.0
C3105 C 0.06521 0.54557 0.56183 0.0
C3106 C 0.04659 0.56086 0.562 0.0
C3107 C 0.07344 0.53595 0.54242 0.0
C3108 C 0.06621 0.54323 0.52161 0.0
H3109 H 0.07429 0.54135 0.57669 0.0
H3110 H 0.08691 0.52349 0.54384 0.0
S3111 S 0.01877 0.58435 0.51264 0.0
N3112 N 0.01845 0.58022 0.53906 0.0
N3113 N 0.04072 0.56934 0.50321 0.0
C3114 C 0.04832 0.55935 0.52153 0.0
C3115 C 0.03713 0.56644 0.5414 0.0
C3116 C 0.72694 0.17357 0.72689 0.0
C3117 C 0.70529 0.16802 0.71695 0.0
C3118 C 0.73027 0.17125 0.7494 0.0
C3119 C 0.71211 0.16324 0.76306 0.0
H3120 H 0.74101 0.18082 0.7174 0.0
H3121 H 0.74714 0.17628 0.75624 0.0
S3122 S 0.65301 0.14383 0.74469 0.0
N3123 N 0.66624 0.15194 0.72221 0.0
N3124 N 0.67225 0.14815 0.76447 0.0
C3125 C 0.69087 0.15641 0.75314 0.0
C3126 C 0.68752 0.15869 0.73017 0.0
C3127 C 0.05105 0.48189 0.97334 0.0
C3128 C 0.05917 0.4616 0.96579 0.0
C3129 C 0.06099 0.49186 0.99195 0.0
C3130 C 0.07922 0.48181 1.00401 0.0
H3131 H 0.03676 0.49006 0.96485 0.0
H3132 H 0.05453 0.50765 0.99683 0.0
S3133 S 0.10675 0.42871 0.99134 0.0
N3134 N 0.08673 0.432 0.97199 0.0
N3135 N 0.10491 0.45039 1.00697 0.0
C3136 C 0.08733 0.46149 0.99674 0.0
C3137 C 0.07747 0.45151 0.97769 0.0
C3138 C 0.82679 0.87117 0.25436 0.0
C3139 C 0.80635 0.86354 0.26506 0.0
C3140 C 0.82958 0.8687 0.23174 0.0
C3141 C 0.812 0.85865 0.21877 0.0
H3142 H 0.84116 0.87832 0.2636 0.0
H3143 H 0.84604 0.87413 0.22443 0.0
S3144 S 0.75392 0.8382 0.23869 0.0
N3145 N 0.76717 0.84757 0.26064 0.0
N3146 N 0.77272 0.84238 0.21853 0.0
C3147 C 0.79096 0.85206 0.22918 0.0
C3148 C 0.7881 0.8546 0.25217 0.0
C3149 C 0.4449 0.53531 0.48738 0.0
C3150 C 0.45186 0.54302 0.50815 0.0
C3151 C 0.45238 0.54517 0.46783 0.0
C3152 C 0.47049 0.56094 0.46731 0.0
H3153 H 0.43206 0.52233 0.48608 0.0
H3154 H 0.44297 0.5408 0.45321 0.0
S3155 S 0.49791 0.58561 0.51632 0.0
N3156 N 0.47641 0.57026 0.52599 0.0
N3157 N 0.49829 0.58103 0.48998 0.0
C3158 C 0.47997 0.56684 0.48785 0.0
C3159 C 0.46911 0.55973 0.50788 0.0
C3160 C 0.75285 0.78778 0.84467 0.0
C3161 C 0.73972 0.77531 0.85964 0.0
C3162 C 0.77253 0.77906 0.8333 0.0
C3163 C 0.78011 0.75752 0.8366 0.0
H3164 H 0.7481 0.80458 0.84202 0.0
H3165 H 0.78177 0.78923 0.82175 0.0
S3166 S 0.75333 0.71893 0.87594 0.0
N3167 N 0.73674 0.74089 0.8782 0.0
N3168 N 0.77351 0.72451 0.8573 0.0
C3169 C 0.76729 0.74508 0.85189 0.0
C3170 C 0.74723 0.75394 0.86329 0.0
C3171 C 0.53715 0.53295 0.11073 0.0
C3172 C 0.55527 0.51933 0.11887 0.0
C3173 C 0.54058 0.55536 0.10823 0.0
C3174 C 0.56228 0.56519 0.11371 0.0
H3175 H 0.52029 0.52614 0.10565 0.0
H3176 H 0.52657 0.56482 0.10085 0.0
S3177 S 0.61441 0.53752 0.13831 0.0
N3178 N 0.59507 0.51784 0.13414 0.0
N3179 N 0.60129 0.55995 0.12995 0.0
C3180 C 0.57998 0.55204 0.12325 0.0
C3181 C 0.57652 0.52917 0.12573 0.0
C3182 C 0.75232 0.2816 0.34578 0.0
C3183 C 0.73427 0.26815 0.33708 0.0
C3184 C 0.77151 0.27322 0.35799 0.0
C3185 C 0.77402 0.25086 0.36182 0.0
H3186 H 0.75134 0.29897 0.34363 0.0
H3187 H 0.78391 0.28452 0.36518 0.0
S3188 S 0.73106 0.20852 0.34454 0.0
N3189 N 0.71997 0.23111 0.3344 0.0
N3190 N 0.75588 0.21552 0.35701 0.0
C3191 C 0.75601 0.23724 0.3535 0.0
C3192 C 0.73629 0.24577 0.34129 0.0
C3193 C 0.94217 0.50535 0.61775 0.0
C3194 C 0.96141 0.51601 0.60773 0.0
C3195 C 0.93932 0.48277 0.61631 0.0
C3196 C 0.95554 0.46964 0.60479 0.0
H3197 H 0.92875 0.51455 0.62635 0.0
H3198 H 0.92386 0.47555 0.62389 0.0
S3199 S 0.00973 0.48898 0.57649 0.0
N3200 N 0.99784 0.51113 0.58685 0.0
N3201 N 0.9919 0.46899 0.5836 0.0
C3202 C 0.97521 0.47991 0.5952 0.0
C3203 C 0.97821 0.50294 0.59671 0.0
C3204 C 0.7661 0.28173 0.68525 0.0
C3205 C 0.78242 0.26799 0.69607 0.0
C3206 C 0.74675 0.27349 0.67308 0.0
C3207 C 0.74246 0.25108 0.6714 0.0
H3208 H 0.76863 0.2991 0.68568 0.0
H3209 H 0.73558 0.28476 0.6643 0.0
S3210 S 0.77897 0.20794 0.69691 0.0
N3211 N 0.79216 0.2306 0.70449 0.0
N3212 N 0.75612 0.2153 0.68177 0.0
C3213 C 0.75838 0.23719 0.68231 0.0
C3214 C 0.77817 0.24554 0.69456 0.0
C3215 C 0.98015 0.55331 0.92626 0.0
C3216 C 0.95882 0.56343 0.92001 0.0
C3217 C 0.98353 0.53088 0.92351 0.0
C3218 C 0.96574 0.51749 0.9144 0.0
H3219 H 0.99389 0.56257 0.93436 0.0
H3220 H 1.0001 0.52387 0.92909 0.0
S3221 S 0.90758 0.53647 0.89321 0.0
N3222 N 0.92049 0.55867 0.90237 0.0
N3223 N 0.92658 0.51658 0.89776 0.0
C3224 C 0.94485 0.52763 0.90699 0.0
C3225 C 0.94145 0.5505 0.90971 0.0
C3226 C 0.75457 0.74766 0.18645 0.0
C3227 C 0.73632 0.76121 0.1947 0.0
C3228 C 0.77409 0.75591 0.17459 0.0
C3229 C 0.77671 0.77824 0.17065 0.0
H3230 H 0.75349 0.73029 0.18858 0.0
H3231 H 0.78665 0.74454 0.16771 0.0
S3232 S 0.73346 0.82081 0.18674 0.0
N3233 N 0.72213 0.79836 0.19689 0.0
N3234 N 0.75855 0.81365 0.17483 0.0
C3235 C 0.75857 0.79196 0.17854 0.0
C3236 C 0.73856 0.78357 0.19044 0.0
C3237 C 0.57933 0.50616 0.41564 0.0
C3238 C 0.5574 0.51574 0.42101 0.0
C3239 C 0.58292 0.48364 0.41753 0.0
C3240 C 0.56467 0.46954 0.4246 0.0
H3241 H 0.5941 0.51621 0.4106 0.0
H3242 H 0.6004 0.47726 0.41381 0.0
S3243 S 0.50283 0.48616 0.43766 0.0
N3244 N 0.51651 0.50905 0.4318 0.0
N3245 N 0.52307 0.46697 0.43499 0.0
C3246 C 0.54225 0.47881 0.42876 0.0
C3247 C 0.53871 0.50178 0.42716 0.0
C3248 C 0.8155 0.81186 0.73508 0.0
C3249 C 0.79772 0.81179 0.71893 0.0
C3250 C 0.82378 0.79259 0.74488 0.0
C3251 C 0.81791 0.77172 0.73688 0.0
H3252 H 0.8238 0.82686 0.73998 0.0
H3253 H 0.83624 0.79425 0.75817 0.0
S3254 S 0.7733 0.7621 0.69324 0.0
N3255 N 0.77144 0.78828 0.69811 0.0
N3256 N 0.795 0.7532 0.70885 0.0
C3257 C 0.80113 0.77144 0.71973 0.0
C3258 C 0.78942 0.79102 0.7126 0.0
C3259 C 0.29722 0.72267 0.29437 0.0
C3260 C 0.30592 0.71365 0.31388 0.0
C3261 C 0.30775 0.74125 0.28498 0.0
C3262 C 0.3272 0.75177 0.29484 0.0
H3263 H 0.28198 0.71542 0.28644 0.0
H3264 H 0.30072 0.74737 0.2698 0.0
S3265 S 0.35647 0.735 0.34608 0.0
N3266 N 0.33527 0.71682 0.34255 0.0
N3267 N 0.35447 0.75184 0.32533 0.0
C3268 C 0.33587 0.74303 0.31439 0.0
C3269 C 0.32544 0.72399 0.32375 0.0
C3270 C 0.51298 0.12018 0.51658 0.0
C3271 C 0.49519 0.11186 0.50269 0.0
C3272 C 0.53226 0.10735 0.52371 0.0
C3273 C 0.5342 0.08537 0.51796 0.0
H3274 H 0.51232 0.137 0.52155 0.0
H3275 H 0.54562 0.11464 0.53406 0.0
S3276 S 0.49015 0.05453 0.48548 0.0
N3277 N 0.47968 0.07954 0.48539 0.0
N3278 N 0.51499 0.05517 0.49981 0.0
C3279 C 0.51569 0.07644 0.50539 0.0
C3280 C 0.49638 0.08966 0.49765 0.0
C3281 C 0.18939 0.30584 0.82638 0.0
C3282 C 0.21029 0.3155 0.81833 0.0
C3283 C 0.17958 0.28715 0.81656 0.0
C3284 C 0.19023 0.27735 0.79825 0.0
H3285 H 0.18062 0.31273 0.84043 0.0
H3286 H 0.16331 0.28047 0.82315 0.0
S3287 S 0.24629 0.29517 0.77235 0.0
N3288 N 0.24209 0.31293 0.79199 0.0
N3289 N 0.22363 0.27819 0.77342 0.0
C3290 C 0.21145 0.28653 0.79051 0.0
C3291 C 0.22142 0.3055 0.80051 0.0
C3292 C 0.4932 0.42289 0.52822 0.0
C3293 C 0.4899 0.44463 0.52207 0.0
C3294 C 0.51253 0.41059 0.52037 0.0
C3295 C 0.52921 0.41934 0.50568 0.0
H3296 H 0.48069 0.41531 0.53921 0.0
H3297 H 0.51402 0.39382 0.52531 0.0
S3298 S 0.53149 0.47671 0.48827 0.0
N3299 N 0.50711 0.47532 0.5032 0.0
N3300 N 0.54286 0.45202 0.48782 0.0
C3301 C 0.52693 0.44142 0.50049 0.0
C3302 C 0.50739 0.45405 0.50872 0.0
C3303 C 0.71418 0.25231 0.23191 0.0
C3304 C 0.69024 0.25105 0.23902 0.0
C3305 C 0.7264 0.23433 0.22301 0.0
C3306 C 0.71542 0.21395 0.22034 0.0
H3307 H 0.72406 0.26718 0.23346 0.0
H3308 H 0.74463 0.23655 0.2178 0.0
S3309 S 0.65756 0.19851 0.24442 0.0
N3310 N 0.66044 0.2244 0.25038 0.0
N3311 N 0.681 0.19238 0.2296 0.0
C3312 C 0.69261 0.21168 0.22934 0.0
C3313 C 0.68078 0.22962 0.23979 0.0
C3314 C 0.49631 0.92213 1.00602 0.0
C3315 C 0.49359 0.91857 0.02846 0.0
C3316 C 0.51562 0.93415 0.99763 0.0
C3317 C 0.53359 0.94288 1.01117 0.0
H3318 H 0.48396 0.91488 0.99468 0.0
H3319 H 0.51678 0.93606 0.9802 0.0
S3320 S 0.5361 0.9362 0.07104 0.0
N3321 N 0.51132 0.92377 0.06397 0.0
N3322 N 0.54746 0.94601 0.04841 0.0
C3323 C 0.53128 0.93899 0.03363 0.0
C3324 C 0.51145 0.92699 0.04216 0.0
C3325 C 1.00933 0.12013 0.51309 0.0
C3326 C 0.02594 0.11186 0.52817 0.0
C3327 C 0.99005 0.10756 0.50549 0.0
C3328 C 0.98682 0.08599 0.51222 0.0
H3329 H 0.01088 0.13671 0.50758 0.0
H3330 H 0.97759 0.11479 0.49421 0.0
S3331 S 0.02712 0.05551 0.54881 0.0
N3332 N 0.03881 0.08005 0.54801 0.0
N3333 N 1.00331 0.05624 0.5331 0.0
C3334 C 1.00403 0.07712 0.52627 0.0
C3335 C 0.02344 0.09004 0.53429 0.0
C3336 C 0.12157 0.41148 0.44264 0.0
C3337 C 0.13084 0.42997 0.43228 0.0
C3338 C 0.12849 0.39038 0.43634 0.0
C3339 C 0.14501 0.38698 0.41946 0.0
H3340 H 0.10947 0.41337 0.45619 0.0
H3341 H 0.12183 0.37669 0.44546 0.0
S3342 S 0.17456 0.42993 0.38729 0.0
N3343 N 0.15723 0.44339 0.40424 0.0
N3344 N 0.1703 0.40399 0.39255 0.0
C3345 C 0.15396 0.40535 0.40873 0.0
C3346 C 0.14687 0.42675 0.41508 0.0
C3347 C 0.89945 0.87757 0.63973 0.0
C3348 C 0.91025 0.89804 0.63792 0.0
C3349 C 0.87465 0.8756 0.64275 0.0
C3350 C 0.85989 0.89404 0.64411 0.0
H3351 H 0.91033 0.86309 0.63989 0.0
H3352 H 0.86713 0.85964 0.6451 0.0
S3353 S 0.87894 0.95099 0.63692 0.0
N3354 N 0.9038 0.93687 0.63502 0.0
N3355 N 0.85759 0.93313 0.6411 0.0
C3356 C 0.87034 0.91443 0.64102 0.0
C3357 C 0.89539 0.91643 0.63779 0.0
C3358 C 0.39623 0.63839 0.93495 0.0
C3359 C 0.37989 0.64163 0.9179 0.0
C3360 C 0.40327 0.61735 0.94135 0.0
C3361 C 0.39442 0.59871 0.93088 0.0
H3362 H 0.40236 0.65212 0.94434 0.0
H3363 H 0.41463 0.6156 0.95544 0.0
S3364 S 0.3516 0.59837 0.88515 0.0
N3365 N 0.35553 0.62435 0.89045 0.0
N3366 N 0.36879 0.58507 0.90233 0.0
C3367 C 0.37891 0.60181 0.91324 0.0
C3368 C 0.37165 0.62317 0.90682 0.0
C3369 C 0.64208 0.14815 0.16367 0.0
C3370 C 0.6584 0.14428 0.14674 0.0
C3371 C 0.61747 0.14642 0.16039 0.0
C3372 C 0.60799 0.14083 0.14001 0.0
H3373 H 0.64844 0.15192 0.17983 0.0
H3374 H 0.60575 0.1486 0.17418 0.0
S3375 S 0.64278 0.13005 0.09002 0.0
N3376 N 0.66317 0.13556 0.10853 0.0
N3377 N 0.61681 0.13228 0.10238 0.0
C3378 C 0.62397 0.138 0.12264 0.0
C3379 C 0.64916 0.13974 0.126 0.0
C3380 C 0.14633 0.62359 0.12371 0.0
C3381 C 0.13899 0.64191 0.11179 0.0
C3382 C 0.13959 0.60238 0.11757 0.0
C3383 C 0.12539 0.59858 0.09911 0.0
H3384 H 0.15858 0.62558 0.13713 0.0
H3385 H 0.14687 0.5888 0.12648 0.0
S3386 S 0.10121 0.6408 0.06248 0.0
N3387 N 0.11623 0.65465 0.08089 0.0
N3388 N 0.10377 0.61505 0.06935 0.0
C3389 C 0.11721 0.61679 0.08758 0.0
C3390 C 0.12392 0.63835 0.0939 0.0
C3391 C 0.65065 0.9086 0.39629 0.0
C3392 C 0.6607 0.88828 0.39146 0.0
C3393 C 0.62595 0.9114 0.39795 0.0
C3394 C 0.61007 0.89404 0.3948 0.0
H3395 H 0.66199 0.92268 0.39799 0.0
H3396 H 0.61916 0.92753 0.40107 0.0
S3397 S 0.62716 0.83728 0.38281 0.0
N3398 N 0.65281 0.85024 0.38445 0.0
N3399 N 0.6063 0.85553 0.38764 0.0
C3400 C 0.61985 0.87339 0.39106 0.0
C3401 C 0.64515 0.87052 0.38936 0.0
C3402 C 0.40213 0.41114 0.59064 0.0
C3403 C 0.39325 0.42984 0.60099 0.0
C3404 C 0.39477 0.39016 0.59694 0.0
C3405 C 0.37811 0.38706 0.61376 0.0
H3406 H 0.41406 0.41279 0.57694 0.0
H3407 H 0.40103 0.37636 0.5877 0.0
S3408 S 0.34943 0.4306 0.64591 0.0
N3409 N 0.3671 0.44373 0.62903 0.0
N3410 N 0.35322 0.40458 0.64067 0.0
C3411 C 0.36968 0.40561 0.62458 0.0
C3412 C 0.37723 0.42689 0.61826 0.0
C3413 C 0.89872 0.15369 0.8908 0.0
C3414 C 0.90862 0.13342 0.89616 0.0
C3415 C 0.87385 0.15648 0.88915 0.0
C3416 C 0.85809 0.13912 0.8929 0.0
H3417 H 0.91027 0.16711 0.88674 0.0
H3418 H 0.86699 0.17193 0.88368 0.0
S3419 S 0.87495 0.08389 0.91077 0.0
N3420 N 0.90058 0.09655 0.90771 0.0
N3421 N 0.85419 0.10176 0.90454 0.0
C3422 C 0.8678 0.11927 0.89969 0.0
C3423 C 0.89294 0.11644 0.90135 0.0
C3424 C 0.37205 0.18155 0.38915 0.0
C3425 C 0.3884 0.16452 0.39237 0.0
C3426 C 0.36516 0.18811 0.36807 0.0
C3427 C 0.37414 0.17782 0.34934 0.0
H3428 H 0.36595 0.19091 0.40294 0.0
H3429 H 0.35387 0.20223 0.36638 0.0
S3430 S 0.41689 0.1321 0.34888 0.0
N3431 N 0.4128 0.13721 0.37493 0.0
N3432 N 0.39977 0.14935 0.3356 0.0
C3433 C 0.38954 0.16012 0.35241 0.0
C3434 C 0.39665 0.15354 0.37381 0.0
C3435 C 0.12588 0.15481 0.65724 0.0
C3436 C 0.13264 0.16651 0.63857 0.0
C3437 C 0.13303 0.16131 0.67827 0.0
C3438 C 0.14709 0.17991 0.68154 0.0
H3439 H 0.11371 0.14131 0.65566 0.0
H3440 H 0.12612 0.1526 0.69215 0.0
S3441 S 0.16987 0.21603 0.63826 0.0
N3442 N 0.15478 0.19732 0.62494 0.0
N3443 N 0.16799 0.20954 0.66421 0.0
C3444 C 0.15476 0.19119 0.66298 0.0
C3445 C 0.14763 0.1845 0.6416 0.0
C3446 C 0.12656 0.87583 0.87469 0.0
C3447 C 0.13282 0.86413 0.8935 0.0
C3448 C 0.13399 0.86913 0.8538 0.0
C3449 C 0.14787 0.85034 0.85084 0.0
H3450 H 0.1145 0.88945 0.876 0.0
H3451 H 0.12741 0.87783 0.83978 0.0
S3452 S 0.16948 0.81421 0.89463 0.0
N3453 N 0.15435 0.83315 0.90763 0.0
N3454 N 0.16815 0.8206 0.86862 0.0
C3455 C 0.15511 0.8391 0.86957 0.0
C3456 C 0.14767 0.84597 0.8908 0.0
C3457 C 0.37159 0.8475 0.14108 0.0
C3458 C 0.38834 0.86425 0.13831 0.0
C3459 C 0.36416 0.84086 0.16196 0.0
C3460 C 0.37299 0.8508 0.18094 0.0
H3461 H 0.36546 0.83847 0.12708 0.0
H3462 H 0.35252 0.82696 0.16333 0.0
S3463 S 0.41673 0.89563 0.18257 0.0
N3464 N 0.41304 0.89087 0.1564 0.0
N3465 N 0.399 0.87858 0.19539 0.0
C3466 C 0.38887 0.86818 0.17831 0.0
C3467 C 0.39655 0.87483 0.1571 0.0
C3468 C 0.39403 0.40787 0.12856 0.0
C3469 C 0.40976 0.39049 0.13224 0.0
C3470 C 0.36933 0.40537 0.1306 0.0
C3471 C 0.35919 0.38537 0.13641 0.0
H3472 H 0.40098 0.42384 0.12503 0.0
H3473 H 0.35811 0.4195 0.12862 0.0
S3474 S 0.39242 0.33442 0.14648 0.0
N3475 N 0.41337 0.35228 0.14073 0.0
N3476 N 0.36685 0.34752 0.14466 0.0
C3477 C 0.3746 0.36752 0.13888 0.0
C3478 C 0.39989 0.37009 0.13678 0.0
C3479 C 0.90475 0.91132 0.09048 0.0
C3480 C 0.89622 0.93024 0.10071 0.0
C3481 C 0.89758 0.89045 0.09732 0.0
C3482 C 0.88138 0.88763 0.11456 0.0
H3483 H 0.91603 0.91272 0.0763 0.0
H3484 H 0.9035 0.8765 0.08813 0.0
S3485 S 0.85381 0.93174 0.14674 0.0
N3486 N 0.871 0.94457 0.12923 0.0
N3487 N 0.8574 0.90564 0.14184 0.0
C3488 C 0.8734 0.90637 0.12535 0.0
C3489 C 0.88083 0.92756 0.11851 0.0
C3490 C 0.14593 0.6551 0.64574 0.0
C3491 C 0.16223 0.63828 0.64147 0.0
C3492 C 0.12116 0.65171 0.64411 0.0
C3493 C 0.11186 0.63134 0.63824 0.0
H3494 H 0.15231 0.67062 0.65149 0.0
H3495 H 0.10923 0.66479 0.64845 0.0
S3496 S 0.14722 0.5831 0.6222 0.0
N3497 N 0.16737 0.60133 0.62898 0.0
N3498 N 0.12118 0.595 0.62558 0.0
C3499 C 0.12811 0.61489 0.63261 0.0
C3500 C 0.15317 0.61833 0.63432 0.0
C3501 C 0.61543 0.91153 0.94003 0.0
C3502 C 0.62433 0.9302 0.92966 0.0
C3503 C 0.6221 0.89049 0.93327 0.0
C3504 C 0.63811 0.88724 0.91596 0.0
H3505 H 0.6043 0.91325 0.95427 0.0
H3506 H 0.61599 0.87673 0.94262 0.0
S3507 S 0.6664 0.93058 0.88336 0.0
N3508 N 0.64966 0.94387 0.90093 0.0
N3509 N 0.66224 0.90459 0.8884 0.0
C3510 C 0.64639 0.90575 0.90499 0.0
C3511 C 0.63951 0.92712 0.91178 0.0
C3512 C 0.87289 0.12332 0.40768 0.0
C3513 C 0.87939 0.14206 0.41936 0.0
C3514 C 0.88037 0.10245 0.41424 0.0
C3515 C 0.89452 0.09941 0.43288 0.0
H3516 H 0.8608 0.12471 0.39407 0.0
H3517 H 0.87372 0.08849 0.4055 0.0
S3518 S 0.91652 0.14299 0.46908 0.0
N3519 N 0.90122 0.15603 0.45029 0.0
N3520 N 0.91508 0.11706 0.4626 0.0
C3521 C 0.90182 0.11806 0.4442 0.0
C3522 C 0.89434 0.13928 0.43747 0.0
C3523 C 0.6229 0.13906 0.5956 0.0
C3524 C 0.6389 0.14196 0.61299 0.0
C3525 C 0.61555 0.11816 0.58893 0.0
C3526 C 0.62369 0.09929 0.59948 0.0
H3527 H 0.61724 0.15294 0.58619 0.0
H3528 H 0.60443 0.11669 0.57465 0.0
S3529 S 0.66549 0.09799 0.64599 0.0
N3530 N 0.66229 0.12406 0.64073 0.0
N3531 N 0.64839 0.0851 0.62843 0.0
C3532 C 0.63891 0.10206 0.6174 0.0
C3533 C 0.64651 0.12327 0.62406 0.0
C3534 C 0.11927 0.37651 0.87738 0.0
C3535 C 0.10873 0.38313 0.89703 0.0
C3536 C 0.14406 0.3749 0.87515 0.0
C3537 C 0.1595 0.37978 0.89247 0.0
H3538 H 0.10828 0.37361 0.86324 0.0
H3539 H 0.1513 0.37076 0.85939 0.0
S3540 S 0.14115 0.39647 0.94775 0.0
N3541 N 0.11578 0.39346 0.93455 0.0
N3542 N 0.16244 0.39026 0.93032 0.0
C3543 C 0.14927 0.38513 0.91259 0.0
C3544 C 0.12389 0.38682 0.91488 0.0
C3545 C 0.3662 0.61901 0.3921 0.0
C3546 C 0.35633 0.6393 0.38691 0.0
C3547 C 0.39089 0.61601 0.39355 0.0
C3548 C 0.40694 0.63312 0.38973 0.0
H3549 H 0.3547 0.60513 0.39442 0.0
H3550 H 0.3975 0.59996 0.39729 0.0
S3551 S 0.39024 0.68961 0.376 0.0
N3552 N 0.3645 0.67697 0.37848 0.0
N3553 N 0.41097 0.67133 0.3811 0.0
C3554 C 0.39731 0.65372 0.38533 0.0
C3555 C 0.37203 0.65679 0.38393 0.0
C3556 C 0.87592 0.68366 0.89044 0.0
C3557 C 0.89255 0.66683 0.89352 0.0
C3558 C 0.86851 0.68996 0.86944 0.0
C3559 C 0.8773 0.67962 0.85068 0.0
H3560 H 0.86963 0.69281 0.9043 0.0
H3561 H 0.85656 0.70363 0.86781 0.0
S3562 S 0.92108 0.63472 0.84983 0.0
N3563 N 0.91738 0.63995 0.87591 0.0
N3564 N 0.90341 0.65162 0.8367 0.0
C3565 C 0.89336 0.66239 0.8536 0.0
C3566 C 0.90097 0.65606 0.87491 0.0
C3567 C 0.64522 0.68415 0.14181 0.0
C3568 C 0.62863 0.66732 0.1387 0.0
C3569 C 0.6524 0.69064 0.16284 0.0
C3570 C 0.64347 0.68046 0.18164 0.0
H3571 H 0.65149 0.69331 0.12796 0.0
H3572 H 0.664 0.70454 0.16446 0.0
S3573 S 0.59997 0.63541 0.18239 0.0
N3574 N 0.60389 0.64043 0.1563 0.0
N3575 N 0.61745 0.65244 0.19555 0.0
C3576 C 0.62767 0.66306 0.17867 0.0
C3577 C 0.62025 0.65657 0.15732 0.0
C3578 C 0.63554 0.36925 0.35407 0.0
C3579 C 0.64817 0.3498 0.35073 0.0
C3580 C 0.62877 0.37607 0.37511 0.0
C3581 C 0.63455 0.36386 0.39373 0.0
H3582 H 0.62942 0.37849 0.34022 0.0
H3583 H 0.61763 0.39029 0.37672 0.0
S3584 S 0.66788 0.31204 0.39388 0.0
N3585 N 0.66663 0.31878 0.36795 0.0
N3586 N 0.65421 0.33162 0.40726 0.0
C3587 C 0.64813 0.34495 0.39064 0.0
C3588 C 0.65482 0.33793 0.36925 0.0
C3589 C 0.86483 0.33987 0.66363 0.0
C3590 C 0.87427 0.34965 0.68244 0.0
C3591 C 0.87157 0.34671 0.64261 0.0
C3592 C 0.8882 0.36351 0.63953 0.0
H3593 H 0.85316 0.32602 0.6652 0.0
H3594 H 0.86487 0.33789 0.62871 0.0
S3595 S 0.91813 0.39441 0.68329 0.0
N3596 N 0.90083 0.37724 0.69643 0.0
N3597 N 0.91357 0.3899 0.65718 0.0
C3598 C 0.89713 0.37384 0.65819 0.0
C3599 C 0.89015 0.367 0.67954 0.0
loop_
_geom_bond_atom_site_label_1
_geom_bond_atom_site_label_2
_geom_bond_distance
_geom_bond_site_symmetry_2
_ccdc_geom_bond_type
C0 C1 1.443 . S
C0 N4 1.376 . S
C0 C38 1.389 . S
C1 C0 1.443 . S
C1 C2 1.340 . S
C1 H41 0.951 . S
C2 C1 1.340 . S
C2 C3 1.439 . S
C2 H42 0.950 . S
C3 C2 1.439 . S
C3 N4 1.374 . S
C3 C37 1.395 . S
N4 C0 1.376 . S
N4 C3 1.374 . S
N4 Co5 2.008 . S
Co5 N4 2.008 . S
Co5 N6 1.995 . S
Co5 N11 2.008 . S
Co5 N16 1.995 . S
Co5 N21 2.282 . S
Co5 N27 2.282 . S
N6 Co5 1.995 . S
N6 C7 1.376 . S
N6 C10 1.383 . S
C7 N6 1.376 . S
C7 C8 1.446 . S
C7 C37 1.391 . S
C8 C7 1.446 . S
C8 C9 1.339 . S
C8 H43 0.949 . S
C9 C8 1.339 . S
C9 C10 1.439 . S
C9 H44 0.950 . S
C10 N6 1.383 . S
C10 C9 1.439 . S
C10 C39 1.392 . S
N11 Co5 2.008 . S
N11 C12 1.376 . S
N11 C15 1.374 . S
C12 N11 1.376 . S
C12 C13 1.443 . S
C12 C39 1.389 . S
C13 C12 1.443 . S
C13 C14 1.340 . S
C13 H45 0.951 . S
C14 C13 1.340 . S
C14 C15 1.439 . S
C14 H46 0.950 . S
C15 N11 1.374 . S
C15 C14 1.439 . S
C15 C40 1.395 . S
N16 Co5 1.995 . S
N16 C17 1.376 . S
N16 C20 1.383 . S
C17 N16 1.376 . S
C17 C18 1.446 . S
C17 C40 1.391 . S
C18 C17 1.446 . S
C18 C19 1.339 . S
C18 H47 0.949 . S
C19 C18 1.339 . S
C19 C20 1.439 . S
C19 H48 0.950 . S
C20 N16 1.383 . S
C20 C19 1.439 . S
C20 C38 1.392 . S
N21 Co5 2.282 . S
N21 C24 1.332 . S
N21 C26 1.332 . S
C22 C23 1.386 . S
C22 C25 1.388 . S
C23 C22 1.386 . S
C23 C24 1.382 . S
C23 H49 0.950 . S
C24 N21 1.332 . S
C24 C23 1.382 . S
C24 H35 0.952 . S
C25 C22 1.388 . S
C25 C26 1.382 . S
C25 H50 0.950 . S
C26 N21 1.332 . S
C26 C25 1.382 . S
C26 H36 0.948 . S
N27 Co5 2.282 . S
N27 C31 1.332 . S
N27 C32 1.332 . S
C28 C29 1.388 . S
C28 C32 1.382 . S
C28 H51 0.950 . S
C29 C28 1.388 . S
C29 C30 1.386 . S
C30 C29 1.386 . S
C30 C31 1.382 . S
C30 H52 0.950 . S
C31 N27 1.332 . S
C31 C30 1.382 . S
C31 H33 0.952 . S
C32 N27 1.332 . S
C32 C28 1.382 . S
C32 H34 0.948 . S
H33 C31 0.952 . S
H34 C32 0.948 . S
H35 C24 0.952 . S
H36 C26 0.948 . S
C37 C3 1.395 . S
C37 C7 1.391 . S
C38 C0 1.389 . S
C38 C20 1.392 . S
C39 C10 1.392 . S
C39 C12 1.389 . S
C40 C15 1.395 . S
C40 C17 1.391 . S
H41 C1 0.951 . S
H42 C2 0.950 . S
H43 C8 0.949 . S
H44 C9 0.950 . S
H45 C13 0.951 . S
H46 C14 0.950 . S
H47 C18 0.949 . S
H48 C19 0.950 . S
H49 C23 0.950 . S
H50 C25 0.950 . S
H51 C28 0.950 . S
H52 C30 0.950 . S
C53 C54 1.443 . S
C53 N57 1.376 . S
C53 C91 1.389 . S
C54 C53 1.443 . S
C54 C55 1.340 . S
C54 H94 0.951 . S
C55 C54 1.340 . S
C55 C56 1.439 . S
C55 H95 0.950 . S
C56 C55 1.439 . S
C56 N57 1.374 . S
C56 C90 1.395 . S
N57 C53 1.376 . S
N57 C56 1.374 . S
N57 Co58 2.008 1_455 S
Co58 N57 2.008 1_655 S
Co58 N59 1.995 . S
Co58 N64 2.008 . S
Co58 N69 1.995 . S
Co58 N74 2.282 1_655 S
Co58 N80 2.282 . S
N59 Co58 1.995 . S
N59 C60 1.376 . S
N59 C63 1.383 . S
C60 N59 1.376 . S
C60 C61 1.446 . S
C60 C90 1.391 1_655 S
C61 C60 1.446 . S
C61 C62 1.339 . S
C61 H96 0.949 . S
C62 C61 1.339 . S
C62 C63 1.439 . S
C62 H97 0.950 . S
C63 N59 1.383 . S
C63 C62 1.439 . S
C63 C92 1.392 . S
N64 Co58 2.008 . S
N64 C65 1.376 . S
N64 C68 1.374 . S
C65 N64 1.376 . S
C65 C66 1.443 . S
C65 C92 1.389 . S
C66 C65 1.443 . S
C66 C67 1.340 . S
C66 H98 0.951 . S
C67 C66 1.340 . S
C67 C68 1.439 . S
C67 H99 0.950 . S
C68 N64 1.374 . S
C68 C67 1.439 . S
C68 C93 1.395 . S
N69 Co58 1.995 . S
N69 C70 1.376 . S
N69 C73 1.383 1_655 S
C70 N69 1.376 . S
C70 C71 1.446 . S
C70 C93 1.391 . S
C71 C70 1.446 . S
C71 C72 1.339 1_655 S
C71 H100 0.949 . S
C72 C71 1.339 1_455 S
C72 C73 1.439 . S
C72 H101 0.950 . S
C73 N69 1.383 1_455 S
C73 C72 1.439 . S
C73 C91 1.392 . S
N74 Co58 2.282 1_455 S
N74 C77 1.332 . S
N74 C79 1.332 . S
C75 C76 1.386 . S
C75 C78 1.388 . S
C76 C75 1.386 . S
C76 C77 1.382 . S
C76 H102 0.950 . S
C77 N74 1.332 . S
C77 C76 1.382 . S
C77 H88 0.952 . S
C78 C75 1.388 . S
C78 C79 1.382 . S
C78 H103 0.950 . S
C79 N74 1.332 . S
C79 C78 1.382 . S
C79 H89 0.948 . S
N80 Co58 2.282 . S
N80 C84 1.332 . S
N80 C85 1.332 . S
C81 C82 1.388 . S
C81 C85 1.382 . S
C81 H104 0.950 . S
C82 C81 1.388 . S
C82 C83 1.386 . S
C83 C82 1.386 . S
C83 C84 1.382 . S
C83 H105 0.950 . S
C84 N80 1.332 . S
C84 C83 1.382 . S
C84 H86 0.952 . S
C85 N80 1.332 . S
C85 C81 1.382 . S
C85 H87 0.948 . S
H86 C84 0.952 . S
H87 C85 0.948 . S
H88 C77 0.952 . S
H89 C79 0.948 . S
C90 C56 1.395 . S
C90 C60 1.391 1_455 S
C91 C53 1.389 . S
C91 C73 1.392 . S
C92 C63 1.392 . S
C92 C65 1.389 . S
C93 C68 1.395 . S
C93 C70 1.391 . S
H94 C54 0.951 . S
H95 C55 0.950 . S
H96 C61 0.949 . S
H97 C62 0.950 . S
H98 C66 0.951 . S
H99 C67 0.950 . S
H100 C71 0.949 . S
H101 C72 0.950 . S
H102 C76 0.950 . S
H103 C78 0.950 . S
H104 C81 0.950 . S
H105 C83 0.950 . S
C106 C107 1.443 . S
C106 N110 1.376 . S
C106 C144 1.389 . S
C107 C106 1.443 . S
C107 C108 1.340 . S
C107 H147 0.951 . S
C108 C107 1.340 . S
C108 C109 1.439 . S
C108 H148 0.950 . S
C109 C108 1.439 . S
C109 N110 1.374 . S
C109 C143 1.395 . S
N110 C106 1.376 . S
N110 C109 1.374 . S
N110 Co111 2.008 . S
Co111 N110 2.008 . S
Co111 N112 1.995 . S
Co111 N117 2.008 . S
Co111 N122 1.995 . S
Co111 N127 2.282 . S
Co111 N133 2.282 . S
N112 Co111 1.995 . S
N112 C113 1.376 . S
N112 C116 1.383 . S
C113 N112 1.376 . S
C113 C114 1.446 . S
C113 C143 1.391 . S
C114 C113 1.446 . S
C114 C115 1.339 . S
C114 H149 0.949 . S
C115 C114 1.339 . S
C115 C116 1.439 . S
C115 H150 0.950 . S
C116 N112 1.383 . S
C116 C115 1.439 . S
C116 C145 1.392 . S
N117 Co111 2.008 . S
N117 C118 1.376 . S
N117 C121 1.374 . S
C118 N117 1.376 . S
C118 C119 1.443 . S
C118 C145 1.389 . S
C119 C118 1.443 . S
C119 C120 1.340 . S
C119 H151 0.951 . S
C120 C119 1.340 . S
C120 C121 1.439 . S
C120 H152 0.950 . S
C121 N117 1.374 . S
C121 C120 1.439 . S
C121 C146 1.395 . S
N122 Co111 1.995 . S
N122 C123 1.376 . S
N122 C126 1.383 . S
C123 N122 1.376 . S
C123 C124 1.446 . S
C123 C146 1.391 . S
C124 C123 1.446 . S
C124 C125 1.339 . S
C124 H153 0.949 . S
C125 C124 1.339 . S
C125 C126 1.439 . S
C125 H154 0.950 . S
C126 N122 1.383 . S
C126 C125 1.439 . S
C126 C144 1.392 . S
N127 Co111 2.282 . S
N127 C130 1.332 . S
N127 C132 1.332 . S
C128 C129 1.386 . S
C128 C131 1.388 . S
C129 C128 1.386 . S
C129 C130 1.382 . S
C129 H155 0.950 . S
C130 N127 1.332 . S
C130 C129 1.382 . S
C130 H141 0.952 . S
C131 C128 1.388 . S
C131 C132 1.382 . S
C131 H156 0.950 . S
C132 N127 1.332 . S
C132 C131 1.382 . S
C132 H142 0.948 . S
N133 Co111 2.282 . S
N133 C137 1.332 . S
N133 C138 1.332 . S
C134 C135 1.388 . S
C134 C138 1.382 . S
C134 H157 0.950 . S
C135 C134 1.388 . S
C135 C136 1.386 . S
C136 C135 1.386 . S
C136 C137 1.382 . S
C136 H158 0.950 . S
C137 N133 1.332 . S
C137 C136 1.382 . S
C137 H139 0.952 . S
C138 N133 1.332 . S
C138 C134 1.382 . S
C138 H140 0.948 . S
H139 C137 0.952 . S
H140 C138 0.948 . S
H141 C130 0.952 . S
H142 C132 0.948 . S
C143 C109 1.395 . S
C143 C113 1.391 . S
C144 C106 1.389 . S
C144 C126 1.392 . S
C145 C116 1.392 . S
C145 C118 1.389 . S
C146 C121 1.395 . S
C146 C123 1.391 . S
H147 C107 0.951 . S
H148 C108 0.950 . S
H149 C114 0.949 . S
H150 C115 0.950 . S
H151 C119 0.951 . S
H152 C120 0.950 . S
H153 C124 0.949 . S
H154 C125 0.950 . S
H155 C129 0.950 . S
H156 C131 0.950 . S
H157 C134 0.950 . S
H158 C136 0.950 . S
C159 C160 1.443 . S
C159 N163 1.376 . S
C159 C197 1.389 . S
C160 C159 1.443 . S
C160 C161 1.340 . S
C160 H200 0.951 . S
C161 C160 1.340 . S
C161 C162 1.439 . S
C161 H201 0.950 . S
C162 C161 1.439 . S
C162 N163 1.374 . S
C162 C196 1.395 . S
N163 C159 1.376 . S
N163 C162 1.374 . S
N163 Co164 2.008 . S
Co164 N163 2.008 . S
Co164 N165 1.995 . S
Co164 N170 2.008 . S
Co164 N175 1.995 . S
Co164 N180 2.282 . S
Co164 N186 2.282 . S
N165 Co164 1.995 . S
N165 C166 1.376 . S
N165 C169 1.383 . S
C166 N165 1.376 . S
C166 C167 1.446 . S
C166 C196 1.391 . S
C167 C166 1.446 . S
C167 C168 1.339 . S
C167 H202 0.949 . S
C168 C167 1.339 . S
C168 C169 1.439 . S
C168 H203 0.950 . S
C169 N165 1.383 . S
C169 C168 1.439 . S
C169 C198 1.392 . S
N170 Co164 2.008 . S
N170 C171 1.376 . S
N170 C174 1.374 . S
C171 N170 1.376 . S
C171 C172 1.443 . S
C171 C198 1.389 . S
C172 C171 1.443 . S
C172 C173 1.340 . S
C172 H204 0.951 . S
C173 C172 1.340 . S
C173 C174 1.439 . S
C173 H205 0.950 . S
C174 N170 1.374 . S
C174 C173 1.439 . S
C174 C199 1.395 . S
N175 Co164 1.995 . S
N175 C176 1.376 . S
N175 C179 1.383 . S
C176 N175 1.376 . S
C176 C177 1.446 . S
C176 C199 1.391 . S
C177 C176 1.446 . S
C177 C178 1.339 . S
C177 H206 0.949 . S
C178 C177 1.339 . S
C178 C179 1.439 . S
C178 H207 0.950 . S
C179 N175 1.383 . S
C179 C178 1.439 . S
C179 C197 1.392 . S
N180 Co164 2.282 . S
N180 C183 1.332 . S
N180 C185 1.332 . S
C181 C182 1.386 . S
C181 C184 1.388 . S
C182 C181 1.386 . S
C182 C183 1.382 . S
C182 H208 0.950 . S
C183 N180 1.332 . S
C183 C182 1.382 . S
C183 H194 0.952 . S
C184 C181 1.388 . S
C184 C185 1.382 . S
C184 H209 0.950 . S
C185 N180 1.332 . S
C185 C184 1.382 . S
C185 H195 0.948 . S
N186 Co164 2.282 . S
N186 C190 1.332 . S
N186 C191 1.332 . S
C187 C188 1.388 . S
C187 C191 1.382 . S
C187 H210 0.950 . S
C188 C187 1.388 . S
C188 C189 1.386 . S
C189 C188 1.386 . S
C189 C190 1.382 . S
C189 H211 0.950 . S
C190 N186 1.332 . S
C190 C189 1.382 . S
C190 H192 0.952 . S
C191 N186 1.332 . S
C191 C187 1.382 . S
C191 H193 0.948 . S
H192 C190 0.952 . S
H193 C191 0.948 . S
H194 C183 0.952 . S
H195 C185 0.948 . S
C196 C162 1.395 . S
C196 C166 1.391 . S
C197 C159 1.389 . S
C197 C179 1.392 . S
C198 C169 1.392 . S
C198 C171 1.389 . S
C199 C174 1.395 . S
C199 C176 1.391 . S
H200 C160 0.951 . S
H201 C161 0.950 . S
H202 C167 0.949 . S
H203 C168 0.950 . S
H204 C172 0.951 . S
H205 C173 0.950 . S
H206 C177 0.949 . S
H207 C178 0.950 . S
H208 C182 0.950 . S
H209 C184 0.950 . S
H210 C187 0.950 . S
H211 C189 0.950 . S
C212 C213 1.443 . S
C212 N216 1.376 . S
C212 C250 1.389 . S
C213 C212 1.443 . S
C213 C214 1.340 . S
C213 H253 0.951 . S
C214 C213 1.340 . S
C214 C215 1.439 . S
C214 H254 0.950 . S
C215 C214 1.439 . S
C215 N216 1.374 . S
C215 C249 1.395 . S
N216 C212 1.376 . S
N216 C215 1.374 . S
N216 Co217 2.008 . S
Co217 N216 2.008 . S
Co217 N218 1.995 . S
Co217 N223 2.008 . S
Co217 N228 1.995 . S
Co217 N233 2.282 . S
Co217 N239 2.282 . S
N218 Co217 1.995 . S
N218 C219 1.376 . S
N218 C222 1.383 . S
C219 N218 1.376 . S
C219 C220 1.446 . S
C219 C249 1.391 . S
C220 C219 1.446 . S
C220 C221 1.339 . S
C220 H255 0.949 . S
C221 C220 1.339 . S
C221 C222 1.439 . S
C221 H256 0.950 . S
C222 N218 1.383 . S
C222 C221 1.439 . S
C222 C251 1.392 . S
N223 Co217 2.008 . S
N223 C224 1.376 . S
N223 C227 1.374 . S
C224 N223 1.376 . S
C224 C225 1.443 . S
C224 C251 1.389 . S
C225 C224 1.443 . S
C225 C226 1.340 . S
C225 H257 0.951 . S
C226 C225 1.340 . S
C226 C227 1.439 . S
C226 H258 0.950 . S
C227 N223 1.374 . S
C227 C226 1.439 . S
C227 C252 1.395 . S
N228 Co217 1.995 . S
N228 C229 1.376 . S
N228 C232 1.383 . S
C229 N228 1.376 . S
C229 C230 1.446 . S
C229 C252 1.391 . S
C230 C229 1.446 . S
C230 C231 1.339 . S
C230 H259 0.949 . S
C231 C230 1.339 . S
C231 C232 1.439 . S
C231 H260 0.950 . S
C232 N228 1.383 . S
C232 C231 1.439 . S
C232 C250 1.392 . S
N233 Co217 2.282 . S
N233 C236 1.332 . S
N233 C238 1.332 . S
C234 C235 1.386 . S
C234 C237 1.388 . S
C235 C234 1.386 . S
C235 C236 1.382 . S
C235 H261 0.950 . S
C236 N233 1.332 . S
C236 C235 1.382 . S
C236 H247 0.952 . S
C237 C234 1.388 . S
C237 C238 1.382 . S
C237 H262 0.950 . S
C238 N233 1.332 . S
C238 C237 1.382 . S
C238 H248 0.948 . S
N239 Co217 2.282 . S
N239 C243 1.332 . S
N239 C244 1.332 . S
C240 C241 1.388 . S
C240 C244 1.382 . S
C240 H263 0.950 . S
C241 C240 1.388 . S
C241 C242 1.386 . S
C242 C241 1.386 . S
C242 C243 1.382 . S
C242 H264 0.950 . S
C243 N239 1.332 . S
C243 C242 1.382 . S
C243 H245 0.952 . S
C244 N239 1.332 . S
C244 C240 1.382 . S
C244 H246 0.948 . S
H245 C243 0.952 . S
H246 C244 0.948 . S
H247 C236 0.952 . S
H248 C238 0.948 . S
C249 C215 1.395 . S
C249 C219 1.391 . S
C250 C212 1.389 . S
C250 C232 1.392 . S
C251 C222 1.392 . S
C251 C224 1.389 . S
C252 C227 1.395 . S
C252 C229 1.391 . S
H253 C213 0.951 . S
H254 C214 0.950 . S
H255 C220 0.949 . S
H256 C221 0.950 . S
H257 C225 0.951 . S
H258 C226 0.950 . S
H259 C230 0.949 . S
H260 C231 0.950 . S
H261 C235 0.950 . S
H262 C237 0.950 . S
H263 C240 0.950 . S
H264 C242 0.950 . S
C265 C266 1.443 . S
C265 N269 1.376 . S
C265 C303 1.389 . S
C266 C265 1.443 . S
C266 C267 1.340 . S
C266 H306 0.951 . S
C267 C266 1.340 . S
C267 C268 1.439 . S
C267 H307 0.950 . S
C268 C267 1.439 . S
C268 N269 1.374 . S
C268 C302 1.395 . S
N269 C265 1.376 . S
N269 C268 1.374 . S
N269 Co270 2.008 . S
Co270 N269 2.008 . S
Co270 N271 1.995 . S
Co270 N276 2.008 . S
Co270 N281 1.995 . S
Co270 N286 2.282 . S
Co270 N292 2.282 . S
N271 Co270 1.995 . S
N271 C272 1.376 . S
N271 C275 1.383 . S
C272 N271 1.376 . S
C272 C273 1.446 . S
C272 C302 1.391 . S
C273 C272 1.446 . S
C273 C274 1.339 . S
C273 H308 0.949 . S
C274 C273 1.339 . S
C274 C275 1.439 . S
C274 H309 0.950 . S
C275 N271 1.383 . S
C275 C274 1.439 . S
C275 C304 1.392 . S
N276 Co270 2.008 . S
N276 C277 1.376 . S
N276 C280 1.374 . S
C277 N276 1.376 . S
C277 C278 1.443 . S
C277 C304 1.389 . S
C278 C277 1.443 . S
C278 C279 1.340 . S
C278 H310 0.951 . S
C279 C278 1.340 . S
C279 C280 1.439 . S
C279 H311 0.950 . S
C280 N276 1.374 . S
C280 C279 1.439 . S
C280 C305 1.395 . S
N281 Co270 1.995 . S
N281 C282 1.376 . S
N281 C285 1.383 . S
C282 N281 1.376 . S
C282 C283 1.446 . S
C282 C305 1.391 . S
C283 C282 1.446 . S
C283 C284 1.339 . S
C283 H312 0.949 . S
C284 C283 1.339 . S
C284 C285 1.439 . S
C284 H313 0.950 . S
C285 N281 1.383 . S
C285 C284 1.439 . S
C285 C303 1.392 . S
N286 Co270 2.282 . S
N286 C289 1.332 . S
N286 C291 1.332 . S
C287 C288 1.386 . S
C287 C290 1.388 . S
C288 C287 1.386 . S
C288 C289 1.382 . S
C288 H314 0.950 . S
C289 N286 1.332 . S
C289 C288 1.382 . S
C289 H300 0.952 . S
C290 C287 1.388 . S
C290 C291 1.382 . S
C290 H315 0.950 . S
C291 N286 1.332 . S
C291 C290 1.382 . S
C291 H301 0.948 . S
N292 Co270 2.282 . S
N292 C296 1.332 . S
N292 C297 1.332 . S
C293 C294 1.388 . S
C293 C297 1.382 . S
C293 H316 0.950 . S
C294 C293 1.388 . S
C294 C295 1.386 . S
C295 C294 1.386 . S
C295 C296 1.382 . S
C295 H317 0.950 . S
C296 N292 1.332 . S
C296 C295 1.382 . S
C296 H298 0.952 . S
C297 N292 1.332 . S
C297 C293 1.382 . S
C297 H299 0.948 . S
H298 C296 0.952 . S
H299 C297 0.948 . S
H300 C289 0.952 . S
H301 C291 0.948 . S
C302 C268 1.395 . S
C302 C272 1.391 . S
C303 C265 1.389 . S
C303 C285 1.392 . S
C304 C275 1.392 . S
C304 C277 1.389 . S
C305 C280 1.395 . S
C305 C282 1.391 . S
H306 C266 0.951 . S
H307 C267 0.950 . S
H308 C273 0.949 . S
H309 C274 0.950 . S
H310 C278 0.951 . S
H311 C279 0.950 . S
H312 C283 0.949 . S
H313 C284 0.950 . S
H314 C288 0.950 . S
H315 C290 0.950 . S
H316 C293 0.950 . S
H317 C295 0.950 . S
C318 C319 1.443 . S
C318 N322 1.376 . S
C318 C356 1.389 . S
C319 C318 1.443 . S
C319 C320 1.340 . S
C319 H359 0.951 . S
C320 C319 1.340 . S
C320 C321 1.439 . S
C320 H360 0.950 . S
C321 C320 1.439 . S
C321 N322 1.374 . S
C321 C355 1.395 . S
N322 C318 1.376 . S
N322 C321 1.374 . S
N322 Co323 2.008 . S
Co323 N322 2.008 . S
Co323 N324 1.995 . S
Co323 N329 2.008 . S
Co323 N334 1.995 . S
Co323 N339 2.282 . S
Co323 N345 2.282 . S
N324 Co323 1.995 . S
N324 C325 1.376 . S
N324 C328 1.383 . S
C325 N324 1.376 . S
C325 C326 1.446 . S
C325 C355 1.391 . S
C326 C325 1.446 . S
C326 C327 1.339 . S
C326 H361 0.949 . S
C327 C326 1.339 . S
C327 C328 1.439 . S
C327 H362 0.950 . S
C328 N324 1.383 . S
C328 C327 1.439 . S
C328 C357 1.392 . S
N329 Co323 2.008 . S
N329 C330 1.376 . S
N329 C333 1.374 . S
C330 N329 1.376 . S
C330 C331 1.443 . S
C330 C357 1.389 . S
C331 C330 1.443 . S
C331 C332 1.340 . S
C331 H363 0.951 . S
C332 C331 1.340 . S
C332 C333 1.439 . S
C332 H364 0.950 . S
C333 N329 1.374 . S
C333 C332 1.439 . S
C333 C358 1.395 . S
N334 Co323 1.995 . S
N334 C335 1.376 . S
N334 C338 1.383 . S
C335 N334 1.376 . S
C335 C336 1.446 . S
C335 C358 1.391 . S
C336 C335 1.446 . S
C336 C337 1.339 . S
C336 H365 0.949 . S
C337 C336 1.339 . S
C337 C338 1.439 . S
C337 H366 0.950 . S
C338 N334 1.383 . S
C338 C337 1.439 . S
C338 C356 1.392 . S
N339 Co323 2.282 . S
N339 C342 1.332 . S
N339 C344 1.332 . S
C340 C341 1.386 . S
C340 C343 1.388 . S
C341 C340 1.386 . S
C341 C342 1.382 . S
C341 H367 0.950 . S
C342 N339 1.332 . S
C342 C341 1.382 . S
C342 H353 0.952 . S
C343 C340 1.388 . S
C343 C344 1.382 . S
C343 H368 0.950 . S
C344 N339 1.332 . S
C344 C343 1.382 . S
C344 H354 0.948 . S
N345 Co323 2.282 . S
N345 C349 1.332 . S
N345 C350 1.332 . S
C346 C347 1.388 . S
C346 C350 1.382 . S
C346 H369 0.950 . S
C347 C346 1.388 . S
C347 C348 1.386 . S
C348 C347 1.386 . S
C348 C349 1.382 . S
C348 H370 0.950 . S
C349 N345 1.332 . S
C349 C348 1.382 . S
C349 H351 0.952 . S
C350 N345 1.332 . S
C350 C346 1.382 . S
C350 H352 0.948 . S
H351 C349 0.952 . S
H352 C350 0.948 . S
H353 C342 0.952 . S
H354 C344 0.948 . S
C355 C321 1.395 . S
C355 C325 1.391 . S
C356 C318 1.389 . S
C356 C338 1.392 . S
C357 C328 1.392 . S
C357 C330 1.389 . S
C358 C333 1.395 . S
C358 C335 1.391 . S
H359 C319 0.951 . S
H360 C320 0.950 . S
H361 C326 0.949 . S
H362 C327 0.950 . S
H363 C331 0.951 . S
H364 C332 0.950 . S
H365 C336 0.949 . S
H366 C337 0.950 . S
H367 C341 0.950 . S
H368 C343 0.950 . S
H369 C346 0.950 . S
H370 C348 0.950 . S
C371 C372 1.443 . S
C371 N375 1.376 . S
C371 C409 1.389 . S
C372 C371 1.443 . S
C372 C373 1.340 . S
C372 H412 0.951 . S
C373 C372 1.340 . S
C373 C374 1.439 . S
C373 H413 0.950 . S
C374 C373 1.439 . S
C374 N375 1.374 . S
C374 C408 1.395 . S
N375 C371 1.376 . S
N375 C374 1.374 . S
N375 Co376 2.008 1_455 S
Co376 N375 2.008 1_655 S
Co376 N377 1.995 . S
Co376 N382 2.008 . S
Co376 N387 1.995 . S
Co376 N392 2.282 1_655 S
Co376 N398 2.282 . S
N377 Co376 1.995 . S
N377 C378 1.376 . S
N377 C381 1.383 . S
C378 N377 1.376 . S
C378 C379 1.446 . S
C378 C408 1.391 1_655 S
C379 C378 1.446 . S
C379 C380 1.339 . S
C379 H414 0.949 . S
C380 C379 1.339 . S
C380 C381 1.439 . S
C380 H415 0.950 . S
C381 N377 1.383 . S
C381 C380 1.439 . S
C381 C410 1.392 . S
N382 Co376 2.008 . S
N382 C383 1.376 . S
N382 C386 1.374 . S
C383 N382 1.376 . S
C383 C384 1.443 . S
C383 C410 1.389 . S
C384 C383 1.443 . S
C384 C385 1.340 . S
C384 H416 0.951 . S
C385 C384 1.340 . S
C385 C386 1.439 . S
C385 H417 0.950 . S
C386 N382 1.374 . S
C386 C385 1.439 . S
C386 C411 1.395 . S
N387 Co376 1.995 . S
N387 C388 1.376 . S
N387 C391 1.383 1_655 S
C388 N387 1.376 . S
C388 C389 1.446 . S
C388 C411 1.391 . S
C389 C388 1.446 . S
C389 C390 1.339 1_655 S
C389 H418 0.949 . S
C390 C389 1.339 1_455 S
C390 C391 1.439 . S
C390 H419 0.950 . S
C391 N387 1.383 1_455 S
C391 C390 1.439 . S
C391 C409 1.392 . S
N392 Co376 2.282 1_455 S
N392 C395 1.332 . S
N392 C397 1.332 . S
C393 C394 1.386 . S
C393 C396 1.388 . S
C394 C393 1.386 . S
C394 C395 1.382 . S
C394 H420 0.950 . S
C395 N392 1.332 . S
C395 C394 1.382 . S
C395 H406 0.952 . S
C396 C393 1.388 . S
C396 C397 1.382 . S
C396 H421 0.950 . S
C397 N392 1.332 . S
C397 C396 1.382 . S
C397 H407 0.948 . S
N398 Co376 2.282 . S
N398 C402 1.332 . S
N398 C403 1.332 . S
C399 C400 1.388 . S
C399 C403 1.382 . S
C399 H422 0.950 . S
C400 C399 1.388 . S
C400 C401 1.386 . S
C401 C400 1.386 . S
C401 C402 1.382 . S
C401 H423 0.950 . S
C402 N398 1.332 . S
C402 C401 1.382 . S
C402 H404 0.952 . S
C403 N398 1.332 . S
C403 C399 1.382 . S
C403 H405 0.948 . S
H404 C402 0.952 . S
H405 C403 0.948 . S
H406 C395 0.952 . S
H407 C397 0.948 . S
C408 C374 1.395 . S
C408 C378 1.391 1_455 S
C409 C371 1.389 . S
C409 C391 1.392 . S
C410 C381 1.392 . S
C410 C383 1.389 . S
C411 C386 1.395 . S
C411 C388 1.391 . S
H412 C372 0.951 . S
H413 C373 0.950 . S
H414 C379 0.949 . S
H415 C380 0.950 . S
H416 C384 0.951 . S
H417 C385 0.950 . S
H418 C389 0.949 . S
H419 C390 0.950 . S
H420 C394 0.950 . S
H421 C396 0.950 . S
H422 C399 0.950 . S
H423 C401 0.950 . S
C424 C425 1.443 . S
C424 N428 1.376 . S
C424 C462 1.389 . S
C425 C424 1.443 . S
C425 C426 1.340 . S
C425 H465 0.951 . S
C426 C425 1.340 . S
C426 C427 1.439 . S
C426 H466 0.950 . S
C427 C426 1.439 . S
C427 N428 1.374 . S
C427 C461 1.395 . S
N428 C424 1.376 . S
N428 C427 1.374 . S
N428 Co429 2.008 . S
Co429 N428 2.008 . S
Co429 N430 1.995 . S
Co429 N435 2.008 . S
Co429 N440 1.995 . S
Co429 N445 2.282 . S
Co429 N451 2.282 . S
N430 Co429 1.995 . S
N430 C431 1.376 . S
N430 C434 1.383 . S
C431 N430 1.376 . S
C431 C432 1.446 . S
C431 C461 1.391 . S
C432 C431 1.446 . S
C432 C433 1.339 . S
C432 H467 0.949 . S
C433 C432 1.339 . S
C433 C434 1.439 . S
C433 H468 0.950 . S
C434 N430 1.383 . S
C434 C433 1.439 . S
C434 C463 1.392 . S
N435 Co429 2.008 . S
N435 C436 1.376 . S
N435 C439 1.374 . S
C436 N435 1.376 . S
C436 C437 1.443 . S
C436 C463 1.389 . S
C437 C436 1.443 . S
C437 C438 1.340 . S
C437 H469 0.951 . S
C438 C437 1.340 . S
C438 C439 1.439 . S
C438 H470 0.950 . S
C439 N435 1.374 . S
C439 C438 1.439 . S
C439 C464 1.395 . S
N440 Co429 1.995 . S
N440 C441 1.376 . S
N440 C444 1.383 . S
C441 N440 1.376 . S
C441 C442 1.446 . S
C441 C464 1.391 . S
C442 C441 1.446 . S
C442 C443 1.339 . S
C442 H471 0.949 . S
C443 C442 1.339 . S
C443 C444 1.439 . S
C443 H472 0.950 . S
C444 N440 1.383 . S
C444 C443 1.439 . S
C444 C462 1.392 . S
N445 Co429 2.282 . S
N445 C448 1.332 . S
N445 C450 1.332 . S
C446 C447 1.386 . S
C446 C449 1.388 . S
C447 C446 1.386 . S
C447 C448 1.382 . S
C447 H473 0.950 . S
C448 N445 1.332 . S
C448 C447 1.382 . S
C448 H459 0.952 . S
C449 C446 1.388 . S
C449 C450 1.382 . S
C449 H474 0.950 . S
C450 N445 1.332 . S
C450 C449 1.382 . S
C450 H460 0.948 . S
N451 Co429 2.282 . S
N451 C455 1.332 . S
N451 C456 1.332 . S
C452 C453 1.388 . S
C452 C456 1.382 . S
C452 H475 0.950 . S
C453 C452 1.388 . S
C453 C454 1.386 . S
C454 C453 1.386 . S
C454 C455 1.382 . S
C454 H476 0.950 . S
C455 N451 1.332 . S
C455 C454 1.382 . S
C455 H457 0.952 . S
C456 N451 1.332 . S
C456 C452 1.382 . S
C456 H458 0.948 . S
H457 C455 0.952 . S
H458 C456 0.948 . S
H459 C448 0.952 . S
H460 C450 0.948 . S
C461 C427 1.395 . S
C461 C431 1.391 . S
C462 C424 1.389 . S
C462 C444 1.392 . S
C463 C434 1.392 . S
C463 C436 1.389 . S
C464 C439 1.395 . S
C464 C441 1.391 . S
H465 C425 0.951 . S
H466 C426 0.950 . S
H467 C432 0.949 . S
H468 C433 0.950 . S
H469 C437 0.951 . S
H470 C438 0.950 . S
H471 C442 0.949 . S
H472 C443 0.950 . S
H473 C447 0.950 . S
H474 C449 0.950 . S
H475 C452 0.950 . S
H476 C454 0.950 . S
C477 C478 1.443 1_455 S
C477 N481 1.376 . S
C477 C515 1.389 . S
C478 C477 1.443 1_655 S
C478 C479 1.340 . S
C478 H518 0.951 . S
C479 C478 1.340 . S
C479 C480 1.439 1_655 S
C479 H519 0.950 . S
C480 C479 1.439 1_455 S
C480 N481 1.374 . S
C480 C514 1.395 . S
N481 C477 1.376 . S
N481 C480 1.374 . S
N481 Co482 2.008 . S
Co482 N481 2.008 . S
Co482 N483 1.995 . S
Co482 N488 2.008 . S
Co482 N493 1.995 . S
Co482 N498 2.282 . S
Co482 N504 2.282 . S
N483 Co482 1.995 . S
N483 C484 1.376 . S
N483 C487 1.383 . S
C484 N483 1.376 . S
C484 C485 1.446 . S
C484 C514 1.391 . S
C485 C484 1.446 . S
C485 C486 1.339 . S
C485 H520 0.949 . S
C486 C485 1.339 . S
C486 C487 1.439 . S
C486 H521 0.950 . S
C487 N483 1.383 . S
C487 C486 1.439 . S
C487 C516 1.392 . S
N488 Co482 2.008 . S
N488 C489 1.376 . S
N488 C492 1.374 . S
C489 N488 1.376 . S
C489 C490 1.443 . S
C489 C516 1.389 . S
C490 C489 1.443 . S
C490 C491 1.340 . S
C490 H522 0.951 . S
C491 C490 1.340 . S
C491 C492 1.439 . S
C491 H523 0.950 . S
C492 N488 1.374 . S
C492 C491 1.439 . S
C492 C517 1.395 . S
N493 Co482 1.995 . S
N493 C494 1.376 . S
N493 C497 1.383 . S
C494 N493 1.376 . S
C494 C495 1.446 . S
C494 C517 1.391 . S
C495 C494 1.446 . S
C495 C496 1.339 . S
C495 H524 0.949 . S
C496 C495 1.339 . S
C496 C497 1.439 . S
C496 H525 0.950 . S
C497 N493 1.383 . S
C497 C496 1.439 . S
C497 C515 1.392 . S
N498 Co482 2.282 . S
N498 C501 1.332 . S
N498 C503 1.332 . S
C499 C500 1.386 . S
C499 C502 1.388 . S
C500 C499 1.386 . S
C500 C501 1.382 . S
C500 H526 0.950 . S
C501 N498 1.332 . S
C501 C500 1.382 . S
C501 H512 0.952 . S
C502 C499 1.388 . S
C502 C503 1.382 . S
C502 H527 0.950 . S
C503 N498 1.332 . S
C503 C502 1.382 . S
C503 H513 0.948 . S
N504 Co482 2.282 . S
N504 C508 1.332 . S
N504 C509 1.332 . S
C505 C506 1.388 . S
C505 C509 1.382 . S
C505 H528 0.950 . S
C506 C505 1.388 . S
C506 C507 1.386 . S
C507 C506 1.386 . S
C507 C508 1.382 . S
C507 H529 0.950 . S
C508 N504 1.332 . S
C508 C507 1.382 . S
C508 H510 0.952 . S
C509 N504 1.332 . S
C509 C505 1.382 . S
C509 H511 0.948 . S
H510 C508 0.952 . S
H511 C509 0.948 . S
H512 C501 0.952 . S
H513 C503 0.948 . S
C514 C480 1.395 . S
C514 C484 1.391 . S
C515 C477 1.389 . S
C515 C497 1.392 . S
C516 C487 1.392 . S
C516 C489 1.389 . S
C517 C492 1.395 . S
C517 C494 1.391 . S
H518 C478 0.951 . S
H519 C479 0.950 . S
H520 C485 0.949 . S
H521 C486 0.950 . S
H522 C490 0.951 . S
H523 C491 0.950 . S
H524 C495 0.949 . S
H525 C496 0.950 . S
H526 C500 0.950 . S
H527 C502 0.950 . S
H528 C505 0.950 . S
H529 C507 0.950 . S
C530 C531 1.443 . S
C530 N534 1.376 . S
C530 C568 1.389 . S
C531 C530 1.443 . S
C531 C532 1.340 . S
C531 H571 0.951 . S
C532 C531 1.340 . S
C532 C533 1.439 . S
C532 H572 0.950 . S
C533 C532 1.439 . S
C533 N534 1.374 . S
C533 C567 1.395 . S
N534 C530 1.376 . S
N534 C533 1.374 . S
N534 Co535 2.008 . S
Co535 N534 2.008 . S
Co535 N536 1.995 . S
Co535 N541 2.008 . S
Co535 N546 1.995 . S
Co535 N551 2.282 . S
Co535 N557 2.282 . S
N536 Co535 1.995 . S
N536 C537 1.376 . S
N536 C540 1.383 . S
C537 N536 1.376 . S
C537 C538 1.446 . S
C537 C567 1.391 . S
C538 C537 1.446 . S
C538 C539 1.339 . S
C538 H573 0.949 . S
C539 C538 1.339 . S
C539 C540 1.439 . S
C539 H574 0.950 . S
C540 N536 1.383 . S
C540 C539 1.439 . S
C540 C569 1.392 . S
N541 Co535 2.008 . S
N541 C542 1.376 . S
N541 C545 1.374 . S
C542 N541 1.376 . S
C542 C543 1.443 . S
C542 C569 1.389 . S
C543 C542 1.443 . S
C543 C544 1.340 . S
C543 H575 0.951 . S
C544 C543 1.340 . S
C544 C545 1.439 . S
C544 H576 0.950 . S
C545 N541 1.374 . S
C545 C544 1.439 . S
C545 C570 1.395 . S
N546 Co535 1.995 . S
N546 C547 1.376 . S
N546 C550 1.383 . S
C547 N546 1.376 . S
C547 C548 1.446 . S
C547 C570 1.391 . S
C548 C547 1.446 . S
C548 C549 1.339 . S
C548 H577 0.949 . S
C549 C548 1.339 . S
C549 C550 1.439 . S
C549 H578 0.950 . S
C550 N546 1.383 . S
C550 C549 1.439 . S
C550 C568 1.392 . S
N551 Co535 2.282 . S
N551 C554 1.332 . S
N551 C556 1.332 . S
C552 C553 1.386 . S
C552 C555 1.388 . S
C553 C552 1.386 . S
C553 C554 1.382 . S
C553 H579 0.950 . S
C554 N551 1.332 . S
C554 C553 1.382 . S
C554 H565 0.952 . S
C555 C552 1.388 . S
C555 C556 1.382 . S
C555 H580 0.950 . S
C556 N551 1.332 . S
C556 C555 1.382 . S
C556 H566 0.948 . S
N557 Co535 2.282 . S
N557 C561 1.332 . S
N557 C562 1.332 . S
C558 C559 1.388 . S
C558 C562 1.382 . S
C558 H581 0.950 . S
C559 C558 1.388 . S
C559 C560 1.386 . S
C560 C559 1.386 . S
C560 C561 1.382 . S
C560 H582 0.950 . S
C561 N557 1.332 . S
C561 C560 1.382 . S
C561 H563 0.952 . S
C562 N557 1.332 . S
C562 C558 1.382 . S
C562 H564 0.948 . S
H563 C561 0.952 . S
H564 C562 0.948 . S
H565 C554 0.952 . S
H566 C556 0.948 . S
C567 C533 1.395 . S
C567 C537 1.391 . S
C568 C530 1.389 . S
C568 C550 1.392 . S
C569 C540 1.392 . S
C569 C542 1.389 . S
C570 C545 1.395 . S
C570 C547 1.391 . S
H571 C531 0.951 . S
H572 C532 0.950 . S
H573 C538 0.949 . S
H574 C539 0.950 . S
H575 C543 0.951 . S
H576 C544 0.950 . S
H577 C548 0.949 . S
H578 C549 0.950 . S
H579 C553 0.950 . S
H580 C555 0.950 . S
H581 C558 0.950 . S
H582 C560 0.950 . S
C583 C584 1.443 . S
C583 N587 1.376 . S
C583 C621 1.389 . S
C584 C583 1.443 . S
C584 C585 1.340 . S
C584 H624 0.951 . S
C585 C584 1.340 . S
C585 C586 1.439 . S
C585 H625 0.950 . S
C586 C585 1.439 . S
C586 N587 1.374 . S
C586 C620 1.395 . S
N587 C583 1.376 . S
N587 C586 1.374 . S
N587 Co588 2.008 . S
Co588 N587 2.008 . S
Co588 N589 1.995 . S
Co588 N594 2.008 . S
Co588 N599 1.995 . S
Co588 N604 2.282 . S
Co588 N610 2.282 . S
N589 Co588 1.995 . S
N589 C590 1.376 . S
N589 C593 1.383 . S
C590 N589 1.376 . S
C590 C591 1.446 . S
C590 C620 1.391 . S
C591 C590 1.446 . S
C591 C592 1.339 . S
C591 H626 0.949 . S
C592 C591 1.339 . S
C592 C593 1.439 . S
C592 H627 0.950 . S
C593 N589 1.383 . S
C593 C592 1.439 . S
C593 C622 1.392 . S
N594 Co588 2.008 . S
N594 C595 1.376 . S
N594 C598 1.374 . S
C595 N594 1.376 . S
C595 C596 1.443 . S
C595 C622 1.389 . S
C596 C595 1.443 . S
C596 C597 1.340 . S
C596 H628 0.951 . S
C597 C596 1.340 . S
C597 C598 1.439 . S
C597 H629 0.950 . S
C598 N594 1.374 . S
C598 C597 1.439 . S
C598 C623 1.395 . S
N599 Co588 1.995 . S
N599 C600 1.376 . S
N599 C603 1.383 . S
C600 N599 1.376 . S
C600 C601 1.446 . S
C600 C623 1.391 . S
C601 C600 1.446 . S
C601 C602 1.339 . S
C601 H630 0.949 . S
C602 C601 1.339 . S
C602 C603 1.439 . S
C602 H631 0.950 1_554 S
C603 N599 1.383 . S
C603 C602 1.439 . S
C603 C621 1.392 . S
N604 Co588 2.282 . S
N604 C607 1.332 . S
N604 C609 1.332 . S
C605 C606 1.386 . S
C605 C608 1.388 . S
C606 C605 1.386 . S
C606 C607 1.382 . S
C606 H632 0.950 . S
C607 N604 1.332 . S
C607 C606 1.382 . S
C607 H618 0.952 . S
C608 C605 1.388 . S
C608 C609 1.382 . S
C608 H633 0.950 . S
C609 N604 1.332 . S
C609 C608 1.382 . S
C609 H619 0.948 . S
N610 Co588 2.282 . S
N610 C614 1.332 . S
N610 C615 1.332 . S
C611 C612 1.388 . S
C611 C615 1.382 . S
C611 H634 0.950 . S
C612 C611 1.388 . S
C612 C613 1.386 . S
C613 C612 1.386 . S
C613 C614 1.382 . S
C613 H635 0.950 . S
C614 N610 1.332 . S
C614 C613 1.382 . S
C614 H616 0.952 . S
C615 N610 1.332 . S
C615 C611 1.382 . S
C615 H617 0.948 . S
H616 C614 0.952 . S
H617 C615 0.948 . S
H618 C607 0.952 . S
H619 C609 0.948 . S
C620 C586 1.395 . S
C620 C590 1.391 . S
C621 C583 1.389 . S
C621 C603 1.392 . S
C622 C593 1.392 . S
C622 C595 1.389 . S
C623 C598 1.395 . S
C623 C600 1.391 . S
H624 C584 0.951 . S
H625 C585 0.950 . S
H626 C591 0.949 . S
H627 C592 0.950 . S
H628 C596 0.951 . S
H629 C597 0.950 . S
H630 C601 0.949 . S
H631 C602 0.950 1_556 S
H632 C606 0.950 . S
H633 C608 0.950 . S
H634 C611 0.950 . S
H635 C613 0.950 . S
C636 C637 1.443 . S
C636 N640 1.376 . S
C636 C674 1.389 . S
C637 C636 1.443 . S
C637 C638 1.340 . S
C637 H677 0.951 . S
C638 C637 1.340 . S
C638 C639 1.439 . S
C638 H678 0.950 . S
C639 C638 1.439 . S
C639 N640 1.374 . S
C639 C673 1.395 . S
N640 C636 1.376 . S
N640 C639 1.374 . S
N640 Co641 2.008 . S
Co641 N640 2.008 . S
Co641 N642 1.995 . S
Co641 N647 2.008 . S
Co641 N652 1.995 . S
Co641 N657 2.282 . S
Co641 N663 2.282 . S
N642 Co641 1.995 . S
N642 C643 1.376 . S
N642 C646 1.383 . S
C643 N642 1.376 . S
C643 C644 1.446 . S
C643 C673 1.391 . S
C644 C643 1.446 . S
C644 C645 1.339 . S
C644 H679 0.949 . S
C645 C644 1.339 . S
C645 C646 1.439 . S
C645 H680 0.950 . S
C646 N642 1.383 . S
C646 C645 1.439 . S
C646 C675 1.392 . S
N647 Co641 2.008 . S
N647 C648 1.376 . S
N647 C651 1.374 . S
C648 N647 1.376 . S
C648 C649 1.443 . S
C648 C675 1.389 . S
C649 C648 1.443 . S
C649 C650 1.340 . S
C649 H681 0.951 . S
C650 C649 1.340 . S
C650 C651 1.439 . S
C650 H682 0.950 . S
C651 N647 1.374 . S
C651 C650 1.439 . S
C651 C676 1.395 . S
N652 Co641 1.995 . S
N652 C653 1.376 . S
N652 C656 1.383 . S
C653 N652 1.376 . S
C653 C654 1.446 . S
C653 C676 1.391 . S
C654 C653 1.446 . S
C654 C655 1.339 . S
C654 H683 0.949 . S
C655 C654 1.339 . S
C655 C656 1.439 . S
C655 H684 0.950 . S
C656 N652 1.383 . S
C656 C655 1.439 . S
C656 C674 1.392 . S
N657 Co641 2.282 . S
N657 C660 1.332 . S
N657 C662 1.332 . S
C658 C659 1.386 . S
C658 C661 1.388 . S
C659 C658 1.386 . S
C659 C660 1.382 . S
C659 H685 0.950 . S
C660 N657 1.332 . S
C660 C659 1.382 . S
C660 H671 0.952 . S
C661 C658 1.388 . S
C661 C662 1.382 . S
C661 H686 0.950 . S
C662 N657 1.332 . S
C662 C661 1.382 . S
C662 H672 0.948 . S
N663 Co641 2.282 . S
N663 C667 1.332 . S
N663 C668 1.332 . S
C664 C665 1.388 . S
C664 C668 1.382 . S
C664 H687 0.950 . S
C665 C664 1.388 . S
C665 C666 1.386 . S
C666 C665 1.386 . S
C666 C667 1.382 . S
C666 H688 0.950 . S
C667 N663 1.332 . S
C667 C666 1.382 . S
C667 H669 0.952 . S
C668 N663 1.332 . S
C668 C664 1.382 . S
C668 H670 0.948 . S
H669 C667 0.952 . S
H670 C668 0.948 . S
H671 C660 0.952 . S
H672 C662 0.948 . S
C673 C639 1.395 . S
C673 C643 1.391 . S
C674 C636 1.389 . S
C674 C656 1.392 . S
C675 C646 1.392 . S
C675 C648 1.389 . S
C676 C651 1.395 . S
C676 C653 1.391 . S
H677 C637 0.951 . S
H678 C638 0.950 . S
H679 C644 0.949 . S
H680 C645 0.950 . S
H681 C649 0.951 . S
H682 C650 0.950 . S
H683 C654 0.949 . S
H684 C655 0.950 . S
H685 C659 0.950 . S
H686 C661 0.950 . S
H687 C664 0.950 . S
H688 C666 0.950 . S
C689 C690 1.443 . S
C689 N693 1.376 . S
C689 C727 1.389 . S
C690 C689 1.443 . S
C690 C691 1.340 . S
C690 H730 0.951 . S
C691 C690 1.340 . S
C691 C692 1.439 . S
C691 H731 0.950 . S
C692 C691 1.439 . S
C692 N693 1.374 . S
C692 C726 1.395 . S
N693 C689 1.376 . S
N693 C692 1.374 . S
N693 Co694 2.008 . S
Co694 N693 2.008 . S
Co694 N695 1.995 . S
Co694 N700 2.008 . S
Co694 N705 1.995 . S
Co694 N710 2.282 . S
Co694 N716 2.282 . S
N695 Co694 1.995 . S
N695 C696 1.376 . S
N695 C699 1.383 . S
C696 N695 1.376 . S
C696 C697 1.446 . S
C696 C726 1.391 . S
C697 C696 1.446 . S
C697 C698 1.339 . S
C697 H732 0.949 . S
C698 C697 1.339 . S
C698 C699 1.439 . S
C698 H733 0.950 . S
C699 N695 1.383 . S
C699 C698 1.439 . S
C699 C728 1.392 . S
N700 Co694 2.008 . S
N700 C701 1.376 . S
N700 C704 1.374 . S
C701 N700 1.376 . S
C701 C702 1.443 . S
C701 C728 1.389 . S
C702 C701 1.443 . S
C702 C703 1.340 . S
C702 H734 0.951 . S
C703 C702 1.340 . S
C703 C704 1.439 . S
C703 H735 0.950 . S
C704 N700 1.374 . S
C704 C703 1.439 . S
C704 C729 1.395 . S
N705 Co694 1.995 . S
N705 C706 1.376 . S
N705 C709 1.383 . S
C706 N705 1.376 . S
C706 C707 1.446 . S
C706 C729 1.391 . S
C707 C706 1.446 . S
C707 C708 1.339 . S
C707 H736 0.949 . S
C708 C707 1.339 . S
C708 C709 1.439 . S
C708 H737 0.950 . S
C709 N705 1.383 . S
C709 C708 1.439 . S
C709 C727 1.392 . S
N710 Co694 2.282 . S
N710 C713 1.332 . S
N710 C715 1.332 . S
C711 C712 1.386 . S
C711 C714 1.388 . S
C712 C711 1.386 . S
C712 C713 1.382 . S
C712 H738 0.950 . S
C713 N710 1.332 . S
C713 C712 1.382 . S
C713 H724 0.952 . S
C714 C711 1.388 . S
C714 C715 1.382 . S
C714 H739 0.950 . S
C715 N710 1.332 . S
C715 C714 1.382 . S
C715 H725 0.948 . S
N716 Co694 2.282 . S
N716 C720 1.332 . S
N716 C721 1.332 . S
C717 C718 1.388 . S
C717 C721 1.382 . S
C717 H740 0.950 . S
C718 C717 1.388 . S
C718 C719 1.386 . S
C719 C718 1.386 . S
C719 C720 1.382 . S
C719 H741 0.950 . S
C720 N716 1.332 . S
C720 C719 1.382 . S
C720 H722 0.952 . S
C721 N716 1.332 . S
C721 C717 1.382 . S
C721 H723 0.948 . S
H722 C720 0.952 . S
H723 C721 0.948 . S
H724 C713 0.952 . S
H725 C715 0.948 . S
C726 C692 1.395 . S
C726 C696 1.391 . S
C727 C689 1.389 . S
C727 C709 1.392 . S
C728 C699 1.392 . S
C728 C701 1.389 . S
C729 C704 1.395 . S
C729 C706 1.391 . S
H730 C690 0.951 . S
H731 C691 0.950 . S
H732 C697 0.949 . S
H733 C698 0.950 . S
H734 C702 0.951 . S
H735 C703 0.950 . S
H736 C707 0.949 . S
H737 C708 0.950 . S
H738 C712 0.950 . S
H739 C714 0.950 . S
H740 C717 0.950 . S
H741 C719 0.950 . S
C742 C743 1.443 . S
C742 N746 1.376 . S
C742 C780 1.389 . S
C743 C742 1.443 . S
C743 C744 1.340 . S
C743 H783 0.951 . S
C744 C743 1.340 . S
C744 C745 1.439 . S
C744 H784 0.950 . S
C745 C744 1.439 . S
C745 N746 1.374 . S
C745 C779 1.395 . S
N746 C742 1.376 . S
N746 C745 1.374 . S
N746 Co747 2.008 . S
Co747 N746 2.008 . S
Co747 N748 1.995 . S
Co747 N753 2.008 . S
Co747 N758 1.995 . S
Co747 N763 2.282 . S
Co747 N769 2.282 . S
N748 Co747 1.995 . S
N748 C749 1.376 . S
N748 C752 1.383 . S
C749 N748 1.376 . S
C749 C750 1.446 . S
C749 C779 1.391 . S
C750 C749 1.446 . S
C750 C751 1.339 . S
C750 H785 0.949 . S
C751 C750 1.339 . S
C751 C752 1.439 . S
C751 H786 0.950 . S
C752 N748 1.383 . S
C752 C751 1.439 . S
C752 C781 1.392 . S
N753 Co747 2.008 . S
N753 C754 1.376 . S
N753 C757 1.374 . S
C754 N753 1.376 . S
C754 C755 1.443 . S
C754 C781 1.389 . S
C755 C754 1.443 . S
C755 C756 1.340 . S
C755 H787 0.951 . S
C756 C755 1.340 . S
C756 C757 1.439 . S
C756 H788 0.950 . S
C757 N753 1.374 . S
C757 C756 1.439 . S
C757 C782 1.395 . S
N758 Co747 1.995 . S
N758 C759 1.376 . S
N758 C762 1.383 . S
C759 N758 1.376 . S
C759 C760 1.446 . S
C759 C782 1.391 . S
C760 C759 1.446 . S
C760 C761 1.339 . S
C760 H789 0.949 . S
C761 C760 1.339 . S
C761 C762 1.439 . S
C761 H790 0.950 . S
C762 N758 1.383 . S
C762 C761 1.439 . S
C762 C780 1.392 . S
N763 Co747 2.282 . S
N763 C766 1.332 . S
N763 C768 1.332 . S
C764 C765 1.386 . S
C764 C767 1.388 . S
C765 C764 1.386 . S
C765 C766 1.382 . S
C765 H791 0.950 . S
C766 N763 1.332 . S
C766 C765 1.382 . S
C766 H777 0.952 . S
C767 C764 1.388 . S
C767 C768 1.382 . S
C767 H792 0.950 . S
C768 N763 1.332 . S
C768 C767 1.382 . S
C768 H778 0.948 . S
N769 Co747 2.282 . S
N769 C773 1.332 . S
N769 C774 1.332 . S
C770 C771 1.388 . S
C770 C774 1.382 . S
C770 H793 0.950 . S
C771 C770 1.388 . S
C771 C772 1.386 . S
C772 C771 1.386 . S
C772 C773 1.382 . S
C772 H794 0.950 . S
C773 N769 1.332 . S
C773 C772 1.382 . S
C773 H775 0.952 . S
C774 N769 1.332 . S
C774 C770 1.382 . S
C774 H776 0.948 . S
H775 C773 0.952 . S
H776 C774 0.948 . S
H777 C766 0.952 . S
H778 C768 0.948 . S
C779 C745 1.395 . S
C779 C749 1.391 . S
C780 C742 1.389 . S
C780 C762 1.392 . S
C781 C752 1.392 . S
C781 C754 1.389 . S
C782 C757 1.395 . S
C782 C759 1.391 . S
H783 C743 0.951 . S
H784 C744 0.950 . S
H785 C750 0.949 . S
H786 C751 0.950 . S
H787 C755 0.951 . S
H788 C756 0.950 . S
H789 C760 0.949 . S
H790 C761 0.950 . S
H791 C765 0.950 . S
H792 C767 0.950 . S
H793 C770 0.950 . S
H794 C772 0.950 . S
C795 C796 1.443 1_455 S
C795 N799 1.376 . S
C795 C833 1.389 . S
C796 C795 1.443 1_655 S
C796 C797 1.340 . S
C796 H836 0.951 . S
C797 C796 1.340 . S
C797 C798 1.439 1_655 S
C797 H837 0.950 . S
C798 C797 1.439 1_455 S
C798 N799 1.374 . S
C798 C832 1.395 . S
N799 C795 1.376 . S
N799 C798 1.374 . S
N799 Co800 2.008 . S
Co800 N799 2.008 . S
Co800 N801 1.995 . S
Co800 N806 2.008 . S
Co800 N811 1.995 . S
Co800 N816 2.282 . S
Co800 N822 2.282 . S
N801 Co800 1.995 . S
N801 C802 1.376 . S
N801 C805 1.383 . S
C802 N801 1.376 . S
C802 C803 1.446 . S
C802 C832 1.391 . S
C803 C802 1.446 . S
C803 C804 1.339 . S
C803 H838 0.949 . S
C804 C803 1.339 . S
C804 C805 1.439 . S
C804 H839 0.950 . S
C805 N801 1.383 . S
C805 C804 1.439 . S
C805 C834 1.392 . S
N806 Co800 2.008 . S
N806 C807 1.376 . S
N806 C810 1.374 . S
C807 N806 1.376 . S
C807 C808 1.443 . S
C807 C834 1.389 . S
C808 C807 1.443 . S
C808 C809 1.340 . S
C808 H840 0.951 . S
C809 C808 1.340 . S
C809 C810 1.439 . S
C809 H841 0.950 . S
C810 N806 1.374 . S
C810 C809 1.439 . S
C810 C835 1.395 . S
N811 Co800 1.995 . S
N811 C812 1.376 . S
N811 C815 1.383 . S
C812 N811 1.376 . S
C812 C813 1.446 . S
C812 C835 1.391 . S
C813 C812 1.446 . S
C813 C814 1.339 . S
C813 H842 0.949 . S
C814 C813 1.339 . S
C814 C815 1.439 . S
C814 H843 0.950 1_556 S
C815 N811 1.383 . S
C815 C814 1.439 . S
C815 C833 1.392 . S
N816 Co800 2.282 . S
N816 C819 1.332 . S
N816 C821 1.332 . S
C817 C818 1.386 . S
C817 C820 1.388 . S
C818 C817 1.386 . S
C818 C819 1.382 . S
C818 H844 0.950 . S
C819 N816 1.332 . S
C819 C818 1.382 . S
C819 H830 0.952 . S
C820 C817 1.388 . S
C820 C821 1.382 . S
C820 H845 0.950 . S
C821 N816 1.332 . S
C821 C820 1.382 . S
C821 H831 0.948 . S
N822 Co800 2.282 . S
N822 C826 1.332 . S
N822 C827 1.332 . S
C823 C824 1.388 . S
C823 C827 1.382 . S
C823 H846 0.950 . S
C824 C823 1.388 . S
C824 C825 1.386 . S
C825 C824 1.386 . S
C825 C826 1.382 . S
C825 H847 0.950 . S
C826 N822 1.332 . S
C826 C825 1.382 . S
C826 H828 0.952 . S
C827 N822 1.332 . S
C827 C823 1.382 . S
C827 H829 0.948 . S
H828 C826 0.952 . S
H829 C827 0.948 . S
H830 C819 0.952 . S
H831 C821 0.948 . S
C832 C798 1.395 . S
C832 C802 1.391 . S
C833 C795 1.389 . S
C833 C815 1.392 . S
C834 C805 1.392 . S
C834 C807 1.389 . S
C835 C810 1.395 . S
C835 C812 1.391 . S
H836 C796 0.951 . S
H837 C797 0.950 . S
H838 C803 0.949 . S
H839 C804 0.950 . S
H840 C808 0.951 . S
H841 C809 0.950 . S
H842 C813 0.949 . S
H843 C814 0.950 1_554 S
H844 C818 0.950 . S
H845 C820 0.950 . S
H846 C823 0.950 . S
H847 C825 0.950 . S
C848 C849 1.443 . S
C848 N852 1.376 . S
C848 C886 1.389 . S
C849 C848 1.443 . S
C849 C850 1.340 . S
C849 H889 0.951 . S
C850 C849 1.340 . S
C850 C851 1.439 . S
C850 H890 0.950 . S
C851 C850 1.439 . S
C851 N852 1.374 . S
C851 C885 1.395 . S
N852 C848 1.376 . S
N852 C851 1.374 . S
N852 Co853 2.008 . S
Co853 N852 2.008 . S
Co853 N854 1.995 . S
Co853 N859 2.008 . S
Co853 N864 1.995 . S
Co853 N869 2.282 . S
Co853 N875 2.282 . S
N854 Co853 1.995 . S
N854 C855 1.376 . S
N854 C858 1.383 . S
C855 N854 1.376 . S
C855 C856 1.446 . S
C855 C885 1.391 . S
C856 C855 1.446 . S
C856 C857 1.339 . S
C856 H891 0.949 . S
C857 C856 1.339 . S
C857 C858 1.439 . S
C857 H892 0.950 . S
C858 N854 1.383 . S
C858 C857 1.439 . S
C858 C887 1.392 . S
N859 Co853 2.008 . S
N859 C860 1.376 . S
N859 C863 1.374 . S
C860 N859 1.376 . S
C860 C861 1.443 . S
C860 C887 1.389 . S
C861 C860 1.443 . S
C861 C862 1.340 . S
C861 H893 0.951 . S
C862 C861 1.340 . S
C862 C863 1.439 . S
C862 H894 0.950 . S
C863 N859 1.374 . S
C863 C862 1.439 . S
C863 C888 1.395 . S
N864 Co853 1.995 . S
N864 C865 1.376 . S
N864 C868 1.383 . S
C865 N864 1.376 . S
C865 C866 1.446 . S
C865 C888 1.391 . S
C866 C865 1.446 . S
C866 C867 1.339 . S
C866 H895 0.949 . S
C867 C866 1.339 . S
C867 C868 1.439 . S
C867 H896 0.950 . S
C868 N864 1.383 . S
C868 C867 1.439 . S
C868 C886 1.392 . S
N869 Co853 2.282 . S
N869 C872 1.332 . S
N869 C874 1.332 . S
C870 C871 1.386 . S
C870 C873 1.388 . S
C871 C870 1.386 . S
C871 C872 1.382 . S
C871 H897 0.950 . S
C872 N869 1.332 . S
C872 C871 1.382 . S
C872 H883 0.952 . S
C873 C870 1.388 . S
C873 C874 1.382 . S
C873 H898 0.950 . S
C874 N869 1.332 . S
C874 C873 1.382 . S
C874 H884 0.948 . S
N875 Co853 2.282 . S
N875 C879 1.332 . S
N875 C880 1.332 . S
C876 C877 1.388 . S
C876 C880 1.382 . S
C876 H899 0.950 . S
C877 C876 1.388 . S
C877 C878 1.386 . S
C878 C877 1.386 . S
C878 C879 1.382 . S
C878 H900 0.950 . S
C879 N875 1.332 . S
C879 C878 1.382 . S
C879 H881 0.952 . S
C880 N875 1.332 . S
C880 C876 1.382 . S
C880 H882 0.948 . S
H881 C879 0.952 . S
H882 C880 0.948 . S
H883 C872 0.952 . S
H884 C874 0.948 . S
C885 C851 1.395 . S
C885 C855 1.391 . S
C886 C848 1.389 . S
C886 C868 1.392 . S
C887 C858 1.392 . S
C887 C860 1.389 . S
C888 C863 1.395 . S
C888 C865 1.391 . S
H889 C849 0.951 . S
H890 C850 0.950 . S
H891 C856 0.949 . S
H892 C857 0.950 . S
H893 C861 0.951 . S
H894 C862 0.950 . S
H895 C866 0.949 . S
H896 C867 0.950 . S
H897 C871 0.950 . S
H898 C873 0.950 . S
H899 C876 0.950 . S
H900 C878 0.950 . S
C901 C902 1.443 . S
C901 N905 1.376 . S
C901 C939 1.389 . S
C902 C901 1.443 . S
C902 C903 1.340 . S
C902 H942 0.951 . S
C903 C902 1.340 . S
C903 C904 1.439 . S
C903 H943 0.950 . S
C904 C903 1.439 . S
C904 N905 1.374 . S
C904 C938 1.395 . S
N905 C901 1.376 . S
N905 C904 1.374 . S
N905 Co906 2.008 . S
Co906 N905 2.008 . S
Co906 N907 1.995 . S
Co906 N912 2.008 . S
Co906 N917 1.995 . S
Co906 N922 2.282 . S
Co906 N928 2.282 . S
N907 Co906 1.995 . S
N907 C908 1.376 . S
N907 C911 1.383 . S
C908 N907 1.376 . S
C908 C909 1.446 . S
C908 C938 1.391 . S
C909 C908 1.446 . S
C909 C910 1.339 . S
C909 H944 0.949 . S
C910 C909 1.339 . S
C910 C911 1.439 . S
C910 H945 0.950 . S
C911 N907 1.383 . S
C911 C910 1.439 . S
C911 C940 1.392 . S
N912 Co906 2.008 . S
N912 C913 1.376 . S
N912 C916 1.374 . S
C913 N912 1.376 . S
C913 C914 1.443 . S
C913 C940 1.389 . S
C914 C913 1.443 . S
C914 C915 1.340 . S
C914 H946 0.951 . S
C915 C914 1.340 . S
C915 C916 1.439 . S
C915 H947 0.950 . S
C916 N912 1.374 . S
C916 C915 1.439 . S
C916 C941 1.395 . S
N917 Co906 1.995 . S
N917 C918 1.376 . S
N917 C921 1.383 . S
C918 N917 1.376 . S
C918 C919 1.446 . S
C918 C941 1.391 . S
C919 C918 1.446 . S
C919 C920 1.339 . S
C919 H948 0.949 . S
C920 C919 1.339 . S
C920 C921 1.439 . S
C920 H949 0.950 . S
C921 N917 1.383 . S
C921 C920 1.439 . S
C921 C939 1.392 . S
N922 Co906 2.282 . S
N922 C925 1.332 . S
N922 C927 1.332 . S
C923 C924 1.386 . S
C923 C926 1.388 . S
C924 C923 1.386 . S
C924 C925 1.382 . S
C924 H950 0.950 . S
C925 N922 1.332 . S
C925 C924 1.382 . S
C925 H936 0.952 . S
C926 C923 1.388 . S
C926 C927 1.382 . S
C926 H951 0.950 . S
C927 N922 1.332 . S
C927 C926 1.382 . S
C927 H937 0.948 . S
N928 Co906 2.282 . S
N928 C932 1.332 . S
N928 C933 1.332 . S
C929 C930 1.388 . S
C929 C933 1.382 . S
C929 H952 0.950 . S
C930 C929 1.388 . S
C930 C931 1.386 . S
C931 C930 1.386 . S
C931 C932 1.382 . S
C931 H953 0.950 . S
C932 N928 1.332 . S
C932 C931 1.382 . S
C932 H934 0.952 . S
C933 N928 1.332 . S
C933 C929 1.382 . S
C933 H935 0.948 . S
H934 C932 0.952 . S
H935 C933 0.948 . S
H936 C925 0.952 . S
H937 C927 0.948 . S
C938 C904 1.395 . S
C938 C908 1.391 . S
C939 C901 1.389 . S
C939 C921 1.392 . S
C940 C911 1.392 . S
C940 C913 1.389 . S
C941 C916 1.395 . S
C941 C918 1.391 . S
H942 C902 0.951 . S
H943 C903 0.950 . S
H944 C909 0.949 . S
H945 C910 0.950 . S
H946 C914 0.951 . S
H947 C915 0.950 . S
H948 C919 0.949 . S
H949 C920 0.950 . S
H950 C924 0.950 . S
H951 C926 0.950 . S
H952 C929 0.950 . S
H953 C931 0.950 . S
C954 C955 1.443 1_554 S
C954 N958 1.376 . S
C954 C992 1.389 . S
C955 C954 1.443 1_556 S
C955 C956 1.340 . S
C955 H995 0.951 . S
C956 C955 1.340 . S
C956 C957 1.439 1_556 S
C956 H996 0.950 . S
C957 C956 1.439 1_554 S
C957 N958 1.374 . S
C957 C991 1.395 . S
N958 C954 1.376 . S
N958 C957 1.374 . S
N958 Co959 2.008 . S
Co959 N958 2.008 . S
Co959 N960 1.995 . S
Co959 N965 2.008 . S
Co959 N970 1.995 . S
Co959 N975 2.282 . S
Co959 N981 2.282 . S
N960 Co959 1.995 . S
N960 C961 1.376 . S
N960 C964 1.383 . S
C961 N960 1.376 . S
C961 C962 1.446 . S
C961 C991 1.391 . S
C962 C961 1.446 . S
C962 C963 1.339 . S
C962 H997 0.949 . S
C963 C962 1.339 . S
C963 C964 1.439 . S
C963 H998 0.950 . S
C964 N960 1.383 . S
C964 C963 1.439 . S
C964 C993 1.392 . S
N965 Co959 2.008 . S
N965 C966 1.376 . S
N965 C969 1.374 . S
C966 N965 1.376 . S
C966 C967 1.443 . S
C966 C993 1.389 . S
C967 C966 1.443 . S
C967 C968 1.340 . S
C967 H999 0.951 . S
C968 C967 1.340 . S
C968 C969 1.439 . S
C968 H1000 0.950 . S
C969 N965 1.374 . S
C969 C968 1.439 . S
C969 C994 1.395 . S
N970 Co959 1.995 . S
N970 C971 1.376 . S
N970 C974 1.383 . S
C971 N970 1.376 . S
C971 C972 1.446 . S
C971 C994 1.391 . S
C972 C971 1.446 . S
C972 C973 1.339 . S
C972 H1001 0.949 . S
C973 C972 1.339 . S
C973 C974 1.439 . S
C973 H1002 0.950 . S
C974 N970 1.383 . S
C974 C973 1.439 . S
C974 C992 1.392 . S
N975 Co959 2.282 . S
N975 C978 1.332 . S
N975 C980 1.332 . S
C976 C977 1.386 . S
C976 C979 1.388 . S
C977 C976 1.386 . S
C977 C978 1.382 . S
C977 H1003 0.950 . S
C978 N975 1.332 . S
C978 C977 1.382 . S
C978 H989 0.952 . S
C979 C976 1.388 . S
C979 C980 1.382 . S
C979 H1004 0.950 . S
C980 N975 1.332 . S
C980 C979 1.382 . S
C980 H990 0.948 . S
N981 Co959 2.282 . S
N981 C985 1.332 . S
N981 C986 1.332 . S
C982 C983 1.388 . S
C982 C986 1.382 . S
C982 H1005 0.950 . S
C983 C982 1.388 . S
C983 C984 1.386 . S
C984 C983 1.386 . S
C984 C985 1.383 . S
C984 H1006 0.949 1_554 S
C985 N981 1.332 . S
C985 C984 1.383 . S
C985 H987 0.952 . S
C986 N981 1.332 . S
C986 C982 1.382 . S
C986 H988 0.948 . S
H987 C985 0.952 . S
H988 C986 0.948 . S
H989 C978 0.952 . S
H990 C980 0.948 . S
C991 C957 1.395 . S
C991 C961 1.391 . S
C992 C954 1.389 . S
C992 C974 1.392 . S
C993 C964 1.392 . S
C993 C966 1.389 . S
C994 C969 1.395 . S
C994 C971 1.391 . S
H995 C955 0.951 . S
H996 C956 0.950 . S
H997 C962 0.949 . S
H998 C963 0.950 . S
H999 C967 0.951 . S
H1000 C968 0.950 . S
H1001 C972 0.949 . S
H1002 C973 0.950 . S
H1003 C977 0.950 . S
H1004 C979 0.950 . S
H1005 C982 0.950 . S
H1006 C984 0.949 1_556 S
C1007 C1008 1.443 . S
C1007 N1011 1.376 . S
C1007 C1045 1.389 . S
C1008 C1007 1.443 . S
C1008 C1009 1.340 . S
C1008 H1048 0.951 . S
C1009 C1008 1.340 . S
C1009 C1010 1.439 . S
C1009 H1049 0.950 . S
C1010 C1009 1.439 . S
C1010 N1011 1.374 . S
C1010 C1044 1.395 . S
N1011 C1007 1.376 . S
N1011 C1010 1.374 . S
N1011 Co1012 2.008 . S
Co1012 N1011 2.008 . S
Co1012 N1013 1.995 . S
Co1012 N1018 2.008 . S
Co1012 N1023 1.995 . S
Co1012 N1028 2.282 . S
Co1012 N1034 2.282 . S
N1013 Co1012 1.995 . S
N1013 C1014 1.376 . S
N1013 C1017 1.383 . S
C1014 N1013 1.376 . S
C1014 C1015 1.446 . S
C1014 C1044 1.391 . S
C1015 C1014 1.446 . S
C1015 C1016 1.339 . S
C1015 H1050 0.949 . S
C1016 C1015 1.339 . S
C1016 C1017 1.439 . S
C1016 H1051 0.950 . S
C1017 N1013 1.383 . S
C1017 C1016 1.439 . S
C1017 C1046 1.392 . S
N1018 Co1012 2.008 . S
N1018 C1019 1.376 . S
N1018 C1022 1.374 . S
C1019 N1018 1.376 . S
C1019 C1020 1.443 . S
C1019 C1046 1.389 . S
C1020 C1019 1.443 . S
C1020 C1021 1.340 . S
C1020 H1052 0.951 . S
C1021 C1020 1.340 . S
C1021 C1022 1.439 . S
C1021 H1053 0.950 . S
C1022 N1018 1.374 . S
C1022 C1021 1.439 . S
C1022 C1047 1.395 . S
N1023 Co1012 1.995 . S
N1023 C1024 1.376 . S
N1023 C1027 1.383 . S
C1024 N1023 1.376 . S
C1024 C1025 1.446 . S
C1024 C1047 1.391 . S
C1025 C1024 1.446 . S
C1025 C1026 1.339 . S
C1025 H1054 0.949 . S
C1026 C1025 1.339 . S
C1026 C1027 1.439 . S
C1026 H1055 0.950 . S
C1027 N1023 1.383 . S
C1027 C1026 1.439 . S
C1027 C1045 1.392 . S
N1028 Co1012 2.282 . S
N1028 C1031 1.332 . S
N1028 C1033 1.332 . S
C1029 C1030 1.386 . S
C1029 C1032 1.388 . S
C1030 C1029 1.386 . S
C1030 C1031 1.382 . S
C1030 H1056 0.950 . S
C1031 N1028 1.332 . S
C1031 C1030 1.382 . S
C1031 H1042 0.952 . S
C1032 C1029 1.388 . S
C1032 C1033 1.382 . S
C1032 H1057 0.950 . S
C1033 N1028 1.332 . S
C1033 C1032 1.382 . S
C1033 H1043 0.948 . S
N1034 Co1012 2.282 . S
N1034 C1038 1.332 . S
N1034 C1039 1.332 . S
C1035 C1036 1.388 . S
C1035 C1039 1.382 . S
C1035 H1058 0.950 . S
C1036 C1035 1.388 . S
C1036 C1037 1.386 . S
C1037 C1036 1.386 . S
C1037 C1038 1.382 . S
C1037 H1059 0.950 . S
C1038 N1034 1.332 . S
C1038 C1037 1.382 . S
C1038 H1040 0.952 . S
C1039 N1034 1.332 . S
C1039 C1035 1.382 . S
C1039 H1041 0.948 . S
H1040 C1038 0.952 . S
H1041 C1039 0.948 . S
H1042 C1031 0.952 . S
H1043 C1033 0.948 . S
C1044 C1010 1.395 . S
C1044 C1014 1.391 . S
C1045 C1007 1.389 . S
C1045 C1027 1.392 . S
C1046 C1017 1.392 . S
C1046 C1019 1.389 . S
C1047 C1022 1.395 . S
C1047 C1024 1.391 . S
H1048 C1008 0.951 . S
H1049 C1009 0.950 . S
H1050 C1015 0.949 . S
H1051 C1016 0.950 . S
H1052 C1020 0.951 . S
H1053 C1021 0.950 . S
H1054 C1025 0.949 . S
H1055 C1026 0.950 . S
H1056 C1030 0.950 . S
H1057 C1032 0.950 . S
H1058 C1035 0.950 . S
H1059 C1037 0.950 . S
C1060 C1061 1.443 1_554 S
C1060 N1064 1.376 1_545 S
C1060 C1098 1.389 . S
C1061 C1060 1.443 1_556 S
C1061 C1062 1.340 1_545 S
C1061 H1101 0.951 . S
C1062 C1061 1.340 1_565 S
C1062 C1063 1.439 1_556 S
C1062 H1102 0.950 . S
C1063 C1062 1.439 1_554 S
C1063 N1064 1.374 . S
C1063 C1097 1.395 . S
N1064 C1060 1.376 1_565 S
N1064 C1063 1.374 . S
N1064 Co1065 2.008 . S
Co1065 N1064 2.008 . S
Co1065 N1066 1.995 . S
Co1065 N1071 2.008 . S
Co1065 N1076 1.995 . S
Co1065 N1081 2.282 1_565 S
Co1065 N1087 2.282 . S
N1066 Co1065 1.995 . S
N1066 C1067 1.376 . S
N1066 C1070 1.383 . S
C1067 N1066 1.376 . S
C1067 C1068 1.446 . S
C1067 C1097 1.391 . S
C1068 C1067 1.446 . S
C1068 C1069 1.339 . S
C1068 H1103 0.949 . S
C1069 C1068 1.339 . S
C1069 C1070 1.439 . S
C1069 H1104 0.950 . S
C1070 N1066 1.383 . S
C1070 C1069 1.439 . S
C1070 C1099 1.392 . S
N1071 Co1065 2.008 . S
N1071 C1072 1.376 . S
N1071 C1075 1.374 . S
C1072 N1071 1.376 . S
C1072 C1073 1.443 . S
C1072 C1099 1.389 . S
C1073 C1072 1.443 . S
C1073 C1074 1.340 . S
C1073 H1105 0.951 . S
C1074 C1073 1.340 . S
C1074 C1075 1.439 . S
C1074 H1106 0.950 . S
C1075 N1071 1.374 . S
C1075 C1074 1.439 . S
C1075 C1100 1.395 . S
N1076 Co1065 1.995 . S
N1076 C1077 1.376 1_565 S
N1076 C1080 1.383 1_565 S
C1077 N1076 1.376 1_545 S
C1077 C1078 1.446 . S
C1077 C1100 1.391 1_545 S
C1078 C1077 1.446 . S
C1078 C1079 1.339 . S
C1078 H1107 0.949 . S
C1079 C1078 1.339 . S
C1079 C1080 1.439 . S
C1079 H1108 0.950 . S
C1080 N1076 1.383 1_545 S
C1080 C1079 1.439 . S
C1080 C1098 1.392 . S
N1081 Co1065 2.282 1_545 S
N1081 C1084 1.332 . S
N1081 C1086 1.333 . S
C1082 C1083 1.386 . S
C1082 C1085 1.388 . S
C1083 C1082 1.386 . S
C1083 C1084 1.382 . S
C1083 H1109 0.950 . S
C1084 N1081 1.332 . S
C1084 C1083 1.382 . S
C1084 H1095 0.952 . S
C1085 C1082 1.388 . S
C1085 C1086 1.390 . S
C1085 H1110 0.950 . S
C1086 N1081 1.333 . S
C1086 C1085 1.390 . S
C1086 H1096 0.939 1_545 S
N1087 Co1065 2.282 . S
N1087 C1091 1.332 . S
N1087 C1092 1.332 . S
C1088 C1089 1.388 . S
C1088 C1092 1.382 . S
C1088 H1111 0.950 . S
C1089 C1088 1.388 . S
C1089 C1090 1.386 . S
C1090 C1089 1.386 . S
C1090 C1091 1.383 . S
C1090 H1112 0.949 1_554 S
C1091 N1087 1.332 . S
C1091 C1090 1.383 . S
C1091 H1093 0.952 . S
C1092 N1087 1.332 . S
C1092 C1088 1.382 . S
C1092 H1094 0.948 . S
H1093 C1091 0.952 . S
H1094 C1092 0.948 . S
H1095 C1084 0.952 . S
H1096 C1086 0.939 1_565 S
C1097 C1063 1.395 . S
C1097 C1067 1.391 . S
C1098 C1060 1.389 . S
C1098 C1080 1.392 . S
C1099 C1070 1.392 . S
C1099 C1072 1.389 . S
C1100 C1075 1.395 . S
C1100 C1077 1.391 1_565 S
H1101 C1061 0.951 . S
H1102 C1062 0.950 . S
H1103 C1068 0.949 . S
H1104 C1069 0.950 . S
H1105 C1073 0.951 . S
H1106 C1074 0.950 . S
H1107 C1078 0.949 . S
H1108 C1079 0.950 . S
H1109 C1083 0.950 . S
H1110 C1085 0.950 . S
H1111 C1088 0.950 . S
H1112 C1090 0.949 1_556 S
C1113 C1114 1.443 . S
C1113 N1117 1.376 . S
C1113 C1151 1.389 . S
C1114 C1113 1.443 . S
C1114 C1115 1.340 . S
C1114 H1154 0.951 . S
C1115 C1114 1.340 . S
C1115 C1116 1.439 . S
C1115 H1155 0.950 . S
C1116 C1115 1.439 . S
C1116 N1117 1.374 . S
C1116 C1150 1.395 . S
N1117 C1113 1.376 . S
N1117 C1116 1.374 . S
N1117 Co1118 2.008 . S
Co1118 N1117 2.008 . S
Co1118 N1119 1.995 . S
Co1118 N1124 2.008 . S
Co1118 N1129 1.995 . S
Co1118 N1134 2.282 . S
Co1118 N1140 2.282 . S
N1119 Co1118 1.995 . S
N1119 C1120 1.376 . S
N1119 C1123 1.383 . S
C1120 N1119 1.376 . S
C1120 C1121 1.446 . S
C1120 C1150 1.391 . S
C1121 C1120 1.446 . S
C1121 C1122 1.339 . S
C1121 H1156 0.949 . S
C1122 C1121 1.339 . S
C1122 C1123 1.439 . S
C1122 H1157 0.950 . S
C1123 N1119 1.383 . S
C1123 C1122 1.439 . S
C1123 C1152 1.392 . S
N1124 Co1118 2.008 . S
N1124 C1125 1.376 . S
N1124 C1128 1.374 . S
C1125 N1124 1.376 . S
C1125 C1126 1.443 . S
C1125 C1152 1.389 . S
C1126 C1125 1.443 . S
C1126 C1127 1.340 . S
C1126 H1158 0.951 . S
C1127 C1126 1.340 . S
C1127 C1128 1.439 . S
C1127 H1159 0.950 . S
C1128 N1124 1.374 . S
C1128 C1127 1.439 . S
C1128 C1153 1.395 . S
N1129 Co1118 1.995 . S
N1129 C1130 1.376 . S
N1129 C1133 1.383 . S
C1130 N1129 1.376 . S
C1130 C1131 1.446 . S
C1130 C1153 1.391 . S
C1131 C1130 1.446 . S
C1131 C1132 1.339 . S
C1131 H1160 0.949 . S
C1132 C1131 1.339 . S
C1132 C1133 1.439 . S
C1132 H1161 0.950 . S
C1133 N1129 1.383 . S
C1133 C1132 1.439 . S
C1133 C1151 1.392 . S
N1134 Co1118 2.282 . S
N1134 C1137 1.332 . S
N1134 C1139 1.332 . S
C1135 C1136 1.386 . S
C1135 C1138 1.388 . S
C1136 C1135 1.386 . S
C1136 C1137 1.382 . S
C1136 H1162 0.950 . S
C1137 N1134 1.332 . S
C1137 C1136 1.382 . S
C1137 H1148 0.952 . S
C1138 C1135 1.388 . S
C1138 C1139 1.382 . S
C1138 H1163 0.950 . S
C1139 N1134 1.332 . S
C1139 C1138 1.382 . S
C1139 H1149 0.948 . S
N1140 Co1118 2.282 . S
N1140 C1144 1.332 . S
N1140 C1145 1.332 . S
C1141 C1142 1.388 . S
C1141 C1145 1.382 . S
C1141 H1164 0.950 . S
C1142 C1141 1.388 . S
C1142 C1143 1.386 . S
C1143 C1142 1.386 . S
C1143 C1144 1.382 . S
C1143 H1165 0.950 . S
C1144 N1140 1.332 . S
C1144 C1143 1.382 . S
C1144 H1146 0.952 . S
C1145 N1140 1.332 . S
C1145 C1141 1.382 . S
C1145 H1147 0.948 . S
H1146 C1144 0.952 . S
H1147 C1145 0.948 . S
H1148 C1137 0.952 . S
H1149 C1139 0.948 . S
C1150 C1116 1.395 . S
C1150 C1120 1.391 . S
C1151 C1113 1.389 . S
C1151 C1133 1.392 . S
C1152 C1123 1.392 . S
C1152 C1125 1.389 . S
C1153 C1128 1.395 . S
C1153 C1130 1.391 . S
H1154 C1114 0.951 . S
H1155 C1115 0.950 . S
H1156 C1121 0.949 . S
H1157 C1122 0.950 . S
H1158 C1126 0.951 . S
H1159 C1127 0.950 . S
H1160 C1131 0.949 . S
H1161 C1132 0.950 . S
H1162 C1136 0.950 . S
H1163 C1138 0.950 . S
H1164 C1141 0.950 . S
H1165 C1143 0.950 . S
C1166 C1167 1.443 . S
C1166 N1170 1.376 . S
C1166 C1204 1.389 . S
C1167 C1166 1.443 . S
C1167 C1168 1.340 . S
C1167 H1207 0.951 . S
C1168 C1167 1.340 . S
C1168 C1169 1.439 . S
C1168 H1208 0.950 . S
C1169 C1168 1.439 . S
C1169 N1170 1.374 . S
C1169 C1203 1.395 . S
N1170 C1166 1.376 . S
N1170 C1169 1.374 . S
N1170 Co1171 2.008 . S
Co1171 N1170 2.008 . S
Co1171 N1172 1.995 . S
Co1171 N1177 2.008 . S
Co1171 N1182 1.995 . S
Co1171 N1187 2.282 . S
Co1171 N1193 2.282 . S
N1172 Co1171 1.995 . S
N1172 C1173 1.376 . S
N1172 C1176 1.383 . S
C1173 N1172 1.376 . S
C1173 C1174 1.446 . S
C1173 C1203 1.391 . S
C1174 C1173 1.446 . S
C1174 C1175 1.339 . S
C1174 H1209 0.949 . S
C1175 C1174 1.339 . S
C1175 C1176 1.439 . S
C1175 H1210 0.950 . S
C1176 N1172 1.383 . S
C1176 C1175 1.439 . S
C1176 C1205 1.392 . S
N1177 Co1171 2.008 . S
N1177 C1178 1.376 . S
N1177 C1181 1.374 . S
C1178 N1177 1.376 . S
C1178 C1179 1.443 . S
C1178 C1205 1.389 . S
C1179 C1178 1.443 . S
C1179 C1180 1.340 . S
C1179 H1211 0.951 . S
C1180 C1179 1.340 . S
C1180 C1181 1.439 . S
C1180 H1212 0.950 . S
C1181 N1177 1.374 . S
C1181 C1180 1.439 . S
C1181 C1206 1.395 . S
N1182 Co1171 1.995 . S
N1182 C1183 1.376 . S
N1182 C1186 1.383 . S
C1183 N1182 1.376 . S
C1183 C1184 1.446 . S
C1183 C1206 1.391 . S
C1184 C1183 1.446 . S
C1184 C1185 1.339 . S
C1184 H1213 0.949 . S
C1185 C1184 1.339 . S
C1185 C1186 1.439 . S
C1185 H1214 0.950 . S
C1186 N1182 1.383 . S
C1186 C1185 1.439 . S
C1186 C1204 1.392 . S
N1187 Co1171 2.282 . S
N1187 C1190 1.332 . S
N1187 C1192 1.332 . S
C1188 C1189 1.386 . S
C1188 C1191 1.388 . S
C1189 C1188 1.386 . S
C1189 C1190 1.382 . S
C1189 H1215 0.950 . S
C1190 N1187 1.332 . S
C1190 C1189 1.382 . S
C1190 H1201 0.952 . S
C1191 C1188 1.388 . S
C1191 C1192 1.382 . S
C1191 H1216 0.950 . S
C1192 N1187 1.332 . S
C1192 C1191 1.382 . S
C1192 H1202 0.948 . S
N1193 Co1171 2.282 . S
N1193 C1197 1.332 . S
N1193 C1198 1.332 . S
C1194 C1195 1.388 . S
C1194 C1198 1.382 . S
C1194 H1217 0.950 . S
C1195 C1194 1.388 . S
C1195 C1196 1.386 . S
C1196 C1195 1.386 . S
C1196 C1197 1.382 . S
C1196 H1218 0.950 . S
C1197 N1193 1.332 . S
C1197 C1196 1.382 . S
C1197 H1199 0.952 . S
C1198 N1193 1.332 . S
C1198 C1194 1.382 . S
C1198 H1200 0.948 . S
H1199 C1197 0.952 . S
H1200 C1198 0.948 . S
H1201 C1190 0.952 . S
H1202 C1192 0.948 . S
C1203 C1169 1.395 . S
C1203 C1173 1.391 . S
C1204 C1166 1.389 . S
C1204 C1186 1.392 . S
C1205 C1176 1.392 . S
C1205 C1178 1.389 . S
C1206 C1181 1.395 . S
C1206 C1183 1.391 . S
H1207 C1167 0.951 . S
H1208 C1168 0.950 . S
H1209 C1174 0.949 . S
H1210 C1175 0.950 . S
H1211 C1179 0.951 . S
H1212 C1180 0.950 . S
H1213 C1184 0.949 . S
H1214 C1185 0.950 . S
H1215 C1189 0.950 . S
H1216 C1191 0.950 . S
H1217 C1194 0.950 . S
H1218 C1196 0.950 . S
C1219 C1220 1.443 1_556 S
C1219 N1223 1.376 . S
C1219 C1257 1.389 . S
C1220 C1219 1.443 1_554 S
C1220 C1221 1.340 . S
C1220 H1260 0.951 . S
C1221 C1220 1.340 . S
C1221 C1222 1.439 1_554 S
C1221 H1261 0.950 . S
C1222 C1221 1.439 1_556 S
C1222 N1223 1.374 . S
C1222 C1256 1.395 . S
N1223 C1219 1.376 . S
N1223 C1222 1.374 . S
N1223 Co1224 2.008 . S
Co1224 N1223 2.008 . S
Co1224 N1225 1.995 . S
Co1224 N1230 2.008 . S
Co1224 N1235 1.995 . S
Co1224 N1240 2.282 . S
Co1224 N1246 2.282 . S
N1225 Co1224 1.995 . S
N1225 C1226 1.376 . S
N1225 C1229 1.383 . S
C1226 N1225 1.376 . S
C1226 C1227 1.446 . S
C1226 C1256 1.391 . S
C1227 C1226 1.446 . S
C1227 C1228 1.339 . S
C1227 H1262 0.949 . S
C1228 C1227 1.339 . S
C1228 C1229 1.439 . S
C1228 H1263 0.950 . S
C1229 N1225 1.383 . S
C1229 C1228 1.439 . S
C1229 C1258 1.392 . S
N1230 Co1224 2.008 . S
N1230 C1231 1.376 . S
N1230 C1234 1.374 . S
C1231 N1230 1.376 . S
C1231 C1232 1.443 . S
C1231 C1258 1.389 . S
C1232 C1231 1.443 . S
C1232 C1233 1.340 . S
C1232 H1264 0.951 . S
C1233 C1232 1.340 . S
C1233 C1234 1.439 . S
C1233 H1265 0.950 . S
C1234 N1230 1.374 . S
C1234 C1233 1.439 . S
C1234 C1259 1.395 . S
N1235 Co1224 1.995 . S
N1235 C1236 1.376 . S
N1235 C1239 1.383 . S
C1236 N1235 1.376 . S
C1236 C1237 1.446 . S
C1236 C1259 1.391 . S
C1237 C1236 1.446 . S
C1237 C1238 1.339 . S
C1237 H1266 0.949 . S
C1238 C1237 1.339 . S
C1238 C1239 1.439 . S
C1238 H1267 0.950 . S
C1239 N1235 1.383 . S
C1239 C1238 1.439 . S
C1239 C1257 1.392 . S
N1240 Co1224 2.282 . S
N1240 C1243 1.332 . S
N1240 C1245 1.332 . S
C1241 C1242 1.386 . S
C1241 C1244 1.388 . S
C1242 C1241 1.386 . S
C1242 C1243 1.382 . S
C1242 H1268 0.950 . S
C1243 N1240 1.332 . S
C1243 C1242 1.382 . S
C1243 H1254 0.952 . S
C1244 C1241 1.388 . S
C1244 C1245 1.382 . S
C1244 H1269 0.950 . S
C1245 N1240 1.332 . S
C1245 C1244 1.382 . S
C1245 H1255 0.948 . S
N1246 Co1224 2.282 . S
N1246 C1250 1.332 . S
N1246 C1251 1.332 . S
C1247 C1248 1.388 . S
C1247 C1251 1.382 . S
C1247 H1270 0.950 . S
C1248 C1247 1.388 . S
C1248 C1249 1.386 . S
C1249 C1248 1.386 . S
C1249 C1250 1.383 . S
C1249 H1271 0.948 1_556 S
C1250 N1246 1.332 . S
C1250 C1249 1.383 . S
C1250 H1252 0.952 . S
C1251 N1246 1.332 . S
C1251 C1247 1.382 . S
C1251 H1253 0.948 . S
H1252 C1250 0.952 . S
H1253 C1251 0.948 . S
H1254 C1243 0.952 . S
H1255 C1245 0.948 . S
C1256 C1222 1.395 . S
C1256 C1226 1.391 . S
C1257 C1219 1.389 . S
C1257 C1239 1.392 . S
C1258 C1229 1.392 . S
C1258 C1231 1.389 . S
C1259 C1234 1.395 . S
C1259 C1236 1.391 . S
H1260 C1220 0.951 . S
H1261 C1221 0.950 . S
H1262 C1227 0.949 . S
H1263 C1228 0.950 . S
H1264 C1232 0.951 . S
H1265 C1233 0.950 . S
H1266 C1237 0.949 . S
H1267 C1238 0.950 . S
H1268 C1242 0.950 . S
H1269 C1244 0.950 . S
H1270 C1247 0.950 . S
H1271 C1249 0.948 1_554 S
C1272 C1273 1.443 . S
C1272 N1276 1.376 . S
C1272 C1310 1.389 . S
C1273 C1272 1.443 . S
C1273 C1274 1.340 . S
C1273 H1313 0.951 . S
C1274 C1273 1.340 . S
C1274 C1275 1.439 . S
C1274 H1314 0.950 . S
C1275 C1274 1.439 . S
C1275 N1276 1.374 . S
C1275 C1309 1.395 . S
N1276 C1272 1.376 . S
N1276 C1275 1.374 . S
N1276 Co1277 2.008 . S
Co1277 N1276 2.008 . S
Co1277 N1278 1.995 . S
Co1277 N1283 2.008 . S
Co1277 N1288 1.995 . S
Co1277 N1293 2.282 . S
Co1277 N1299 2.282 . S
N1278 Co1277 1.995 . S
N1278 C1279 1.376 . S
N1278 C1282 1.383 . S
C1279 N1278 1.376 . S
C1279 C1280 1.446 . S
C1279 C1309 1.391 . S
C1280 C1279 1.446 . S
C1280 C1281 1.339 . S
C1280 H1315 0.949 . S
C1281 C1280 1.339 . S
C1281 C1282 1.439 . S
C1281 H1316 0.950 . S
C1282 N1278 1.383 . S
C1282 C1281 1.439 . S
C1282 C1311 1.392 . S
N1283 Co1277 2.008 . S
N1283 C1284 1.376 . S
N1283 C1287 1.374 . S
C1284 N1283 1.376 . S
C1284 C1285 1.443 . S
C1284 C1311 1.389 . S
C1285 C1284 1.443 . S
C1285 C1286 1.340 . S
C1285 H1317 0.951 . S
C1286 C1285 1.340 . S
C1286 C1287 1.439 . S
C1286 H1318 0.950 . S
C1287 N1283 1.374 . S
C1287 C1286 1.439 . S
C1287 C1312 1.395 . S
N1288 Co1277 1.995 . S
N1288 C1289 1.376 . S
N1288 C1292 1.383 . S
C1289 N1288 1.376 . S
C1289 C1290 1.446 . S
C1289 C1312 1.391 . S
C1290 C1289 1.446 . S
C1290 C1291 1.339 . S
C1290 H1319 0.949 . S
C1291 C1290 1.339 . S
C1291 C1292 1.439 . S
C1291 H1320 0.950 . S
C1292 N1288 1.383 . S
C1292 C1291 1.439 . S
C1292 C1310 1.392 . S
N1293 Co1277 2.282 . S
N1293 C1296 1.332 . S
N1293 C1298 1.332 . S
C1294 C1295 1.386 . S
C1294 C1297 1.388 . S
C1295 C1294 1.386 . S
C1295 C1296 1.382 . S
C1295 H1321 0.950 . S
C1296 N1293 1.332 . S
C1296 C1295 1.382 . S
C1296 H1307 0.952 . S
C1297 C1294 1.388 . S
C1297 C1298 1.382 . S
C1297 H1322 0.950 . S
C1298 N1293 1.332 . S
C1298 C1297 1.382 . S
C1298 H1308 0.948 . S
N1299 Co1277 2.282 . S
N1299 C1303 1.332 . S
N1299 C1304 1.332 . S
C1300 C1301 1.388 . S
C1300 C1304 1.382 . S
C1300 H1323 0.950 . S
C1301 C1300 1.388 . S
C1301 C1302 1.386 . S
C1302 C1301 1.386 . S
C1302 C1303 1.382 . S
C1302 H1324 0.950 . S
C1303 N1299 1.332 . S
C1303 C1302 1.382 . S
C1303 H1305 0.952 . S
C1304 N1299 1.332 . S
C1304 C1300 1.382 . S
C1304 H1306 0.948 . S
H1305 C1303 0.952 . S
H1306 C1304 0.948 . S
H1307 C1296 0.952 . S
H1308 C1298 0.948 . S
C1309 C1275 1.395 . S
C1309 C1279 1.391 . S
C1310 C1272 1.389 . S
C1310 C1292 1.392 . S
C1311 C1282 1.392 . S
C1311 C1284 1.389 . S
C1312 C1287 1.395 . S
C1312 C1289 1.391 . S
H1313 C1273 0.951 . S
H1314 C1274 0.950 . S
H1315 C1280 0.949 . S
H1316 C1281 0.950 . S
H1317 C1285 0.951 . S
H1318 C1286 0.950 . S
H1319 C1290 0.949 . S
H1320 C1291 0.950 . S
H1321 C1295 0.950 . S
H1322 C1297 0.950 . S
H1323 C1300 0.950 . S
H1324 C1302 0.950 . S
C1325 C1326 1.443 . S
C1325 N1329 1.376 . S
C1325 C1363 1.389 . S
C1326 C1325 1.443 . S
C1326 C1327 1.340 . S
C1326 H1366 0.951 . S
C1327 C1326 1.340 . S
C1327 C1328 1.439 . S
C1327 H1367 0.950 . S
C1328 C1327 1.439 . S
C1328 N1329 1.374 . S
C1328 C1362 1.395 . S
N1329 C1325 1.376 . S
N1329 C1328 1.374 . S
N1329 Co1330 2.008 . S
Co1330 N1329 2.008 . S
Co1330 N1331 1.995 . S
Co1330 N1336 2.008 . S
Co1330 N1341 1.995 . S
Co1330 N1346 2.282 . S
Co1330 N1352 2.282 . S
N1331 Co1330 1.995 . S
N1331 C1332 1.376 . S
N1331 C1335 1.383 . S
C1332 N1331 1.376 . S
C1332 C1333 1.446 . S
C1332 C1362 1.391 . S
C1333 C1332 1.446 . S
C1333 C1334 1.339 . S
C1333 H1368 0.949 . S
C1334 C1333 1.339 . S
C1334 C1335 1.439 . S
C1334 H1369 0.950 . S
C1335 N1331 1.383 . S
C1335 C1334 1.439 . S
C1335 C1364 1.392 . S
N1336 Co1330 2.008 . S
N1336 C1337 1.376 . S
N1336 C1340 1.374 . S
C1337 N1336 1.376 . S
C1337 C1338 1.443 . S
C1337 C1364 1.389 . S
C1338 C1337 1.443 . S
C1338 C1339 1.340 . S
C1338 H1370 0.951 . S
C1339 C1338 1.340 . S
C1339 C1340 1.439 . S
C1339 H1371 0.950 . S
C1340 N1336 1.374 . S
C1340 C1339 1.439 . S
C1340 C1365 1.395 . S
N1341 Co1330 1.995 . S
N1341 C1342 1.376 . S
N1341 C1345 1.383 . S
C1342 N1341 1.376 . S
C1342 C1343 1.446 . S
C1342 C1365 1.391 . S
C1343 C1342 1.446 . S
C1343 C1344 1.339 . S
C1343 H1372 0.949 . S
C1344 C1343 1.339 . S
C1344 C1345 1.439 . S
C1344 H1373 0.950 . S
C1345 N1341 1.383 . S
C1345 C1344 1.439 . S
C1345 C1363 1.392 . S
N1346 Co1330 2.282 . S
N1346 C1349 1.332 . S
N1346 C1351 1.332 . S
C1347 C1348 1.386 . S
C1347 C1350 1.388 . S
C1348 C1347 1.386 . S
C1348 C1349 1.382 . S
C1348 H1374 0.950 . S
C1349 N1346 1.332 . S
C1349 C1348 1.382 . S
C1349 H1360 0.952 . S
C1350 C1347 1.388 . S
C1350 C1351 1.382 . S
C1350 H1375 0.950 . S
C1351 N1346 1.332 . S
C1351 C1350 1.382 . S
C1351 H1361 0.948 . S
N1352 Co1330 2.282 . S
N1352 C1356 1.332 . S
N1352 C1357 1.332 . S
C1353 C1354 1.388 . S
C1353 C1357 1.382 . S
C1353 H1376 0.950 . S
C1354 C1353 1.388 . S
C1354 C1355 1.386 . S
C1355 C1354 1.386 . S
C1355 C1356 1.382 . S
C1355 H1377 0.950 . S
C1356 N1352 1.332 . S
C1356 C1355 1.382 . S
C1356 H1358 0.952 . S
C1357 N1352 1.332 . S
C1357 C1353 1.382 . S
C1357 H1359 0.948 . S
H1358 C1356 0.952 . S
H1359 C1357 0.948 . S
H1360 C1349 0.952 . S
H1361 C1351 0.948 . S
C1362 C1328 1.395 . S
C1362 C1332 1.391 . S
C1363 C1325 1.389 . S
C1363 C1345 1.392 . S
C1364 C1335 1.392 . S
C1364 C1337 1.389 . S
C1365 C1340 1.395 . S
C1365 C1342 1.391 . S
H1366 C1326 0.951 . S
H1367 C1327 0.950 . S
H1368 C1333 0.949 . S
H1369 C1334 0.950 . S
H1370 C1338 0.951 . S
H1371 C1339 0.950 . S
H1372 C1343 0.949 . S
H1373 C1344 0.950 . S
H1374 C1348 0.950 . S
H1375 C1350 0.950 . S
H1376 C1353 0.950 . S
H1377 C1355 0.950 . S
C1378 C1379 1.443 . S
C1378 N1382 1.376 . S
C1378 C1416 1.389 . S
C1379 C1378 1.443 . S
C1379 C1380 1.340 . S
C1379 H1419 0.951 . S
C1380 C1379 1.340 . S
C1380 C1381 1.439 . S
C1380 H1420 0.950 . S
C1381 C1380 1.439 . S
C1381 N1382 1.374 . S
C1381 C1415 1.395 . S
N1382 C1378 1.376 . S
N1382 C1381 1.374 . S
N1382 Co1383 2.008 . S
Co1383 N1382 2.008 . S
Co1383 N1384 1.995 . S
Co1383 N1389 2.008 . S
Co1383 N1394 1.995 . S
Co1383 N1399 2.282 . S
Co1383 N1405 2.282 . S
N1384 Co1383 1.995 . S
N1384 C1385 1.376 . S
N1384 C1388 1.383 . S
C1385 N1384 1.376 . S
C1385 C1386 1.446 . S
C1385 C1415 1.391 . S
C1386 C1385 1.446 . S
C1386 C1387 1.339 . S
C1386 H1421 0.949 . S
C1387 C1386 1.339 . S
C1387 C1388 1.439 . S
C1387 H1422 0.950 . S
C1388 N1384 1.383 . S
C1388 C1387 1.439 . S
C1388 C1417 1.392 . S
N1389 Co1383 2.008 . S
N1389 C1390 1.376 . S
N1389 C1393 1.374 . S
C1390 N1389 1.376 . S
C1390 C1391 1.443 . S
C1390 C1417 1.389 . S
C1391 C1390 1.443 . S
C1391 C1392 1.340 . S
C1391 H1423 0.951 . S
C1392 C1391 1.340 . S
C1392 C1393 1.439 . S
C1392 H1424 0.950 . S
C1393 N1389 1.374 . S
C1393 C1392 1.439 . S
C1393 C1418 1.395 . S
N1394 Co1383 1.995 . S
N1394 C1395 1.376 . S
N1394 C1398 1.383 . S
C1395 N1394 1.376 . S
C1395 C1396 1.446 . S
C1395 C1418 1.391 . S
C1396 C1395 1.446 . S
C1396 C1397 1.339 . S
C1396 H1425 0.949 . S
C1397 C1396 1.339 . S
C1397 C1398 1.439 . S
C1397 H1426 0.950 . S
C1398 N1394 1.383 . S
C1398 C1397 1.439 . S
C1398 C1416 1.392 . S
N1399 Co1383 2.282 . S
N1399 C1402 1.332 . S
N1399 C1404 1.332 . S
C1400 C1401 1.386 . S
C1400 C1403 1.388 . S
C1401 C1400 1.386 . S
C1401 C1402 1.382 . S
C1401 H1427 0.950 . S
C1402 N1399 1.332 . S
C1402 C1401 1.382 . S
C1402 H1413 0.952 . S
C1403 C1400 1.388 . S
C1403 C1404 1.382 . S
C1403 H1428 0.950 . S
C1404 N1399 1.332 . S
C1404 C1403 1.382 . S
C1404 H1414 0.948 . S
N1405 Co1383 2.282 . S
N1405 C1409 1.332 . S
N1405 C1410 1.332 . S
C1406 C1407 1.388 . S
C1406 C1410 1.382 . S
C1406 H1429 0.950 . S
C1407 C1406 1.388 . S
C1407 C1408 1.386 . S
C1408 C1407 1.386 . S
C1408 C1409 1.382 . S
C1408 H1430 0.950 . S
C1409 N1405 1.332 . S
C1409 C1408 1.382 . S
C1409 H1411 0.952 . S
C1410 N1405 1.332 . S
C1410 C1406 1.382 . S
C1410 H1412 0.948 . S
H1411 C1409 0.952 . S
H1412 C1410 0.948 . S
H1413 C1402 0.952 . S
H1414 C1404 0.948 . S
C1415 C1381 1.395 . S
C1415 C1385 1.391 . S
C1416 C1378 1.389 . S
C1416 C1398 1.392 . S
C1417 C1388 1.392 . S
C1417 C1390 1.389 . S
C1418 C1393 1.395 . S
C1418 C1395 1.391 . S
H1419 C1379 0.951 . S
H1420 C1380 0.950 . S
H1421 C1386 0.949 . S
H1422 C1387 0.950 . S
H1423 C1391 0.951 . S
H1424 C1392 0.950 . S
H1425 C1396 0.949 . S
H1426 C1397 0.950 . S
H1427 C1401 0.950 . S
H1428 C1403 0.950 . S
H1429 C1406 0.950 . S
H1430 C1408 0.950 . S
C1431 C1432 1.443 . S
C1431 N1435 1.376 . S
C1431 C1469 1.389 . S
C1432 C1431 1.443 . S
C1432 C1433 1.340 . S
C1432 H1472 0.951 . S
C1433 C1432 1.340 . S
C1433 C1434 1.439 . S
C1433 H1473 0.950 . S
C1434 C1433 1.439 . S
C1434 N1435 1.374 . S
C1434 C1468 1.395 . S
N1435 C1431 1.376 . S
N1435 C1434 1.374 . S
N1435 Co1436 2.008 1_655 S
Co1436 N1435 2.008 1_455 S
Co1436 N1437 1.995 . S
Co1436 N1442 2.008 . S
Co1436 N1447 1.995 . S
Co1436 N1452 2.282 1_455 S
Co1436 N1458 2.282 . S
N1437 Co1436 1.995 . S
N1437 C1438 1.376 . S
N1437 C1441 1.383 . S
C1438 N1437 1.376 . S
C1438 C1439 1.446 . S
C1438 C1468 1.391 1_455 S
C1439 C1438 1.446 . S
C1439 C1440 1.339 . S
C1439 H1474 0.949 . S
C1440 C1439 1.339 . S
C1440 C1441 1.439 . S
C1440 H1475 0.950 . S
C1441 N1437 1.383 . S
C1441 C1440 1.439 . S
C1441 C1470 1.392 . S
N1442 Co1436 2.008 . S
N1442 C1443 1.376 . S
N1442 C1446 1.374 . S
C1443 N1442 1.376 . S
C1443 C1444 1.443 . S
C1443 C1470 1.389 . S
C1444 C1443 1.443 . S
C1444 C1445 1.340 . S
C1444 H1476 0.951 . S
C1445 C1444 1.340 . S
C1445 C1446 1.439 . S
C1445 H1477 0.950 . S
C1446 N1442 1.374 . S
C1446 C1445 1.439 . S
C1446 C1471 1.395 . S
N1447 Co1436 1.995 . S
N1447 C1448 1.376 . S
N1447 C1451 1.383 1_455 S
C1448 N1447 1.376 . S
C1448 C1449 1.446 . S
C1448 C1471 1.391 . S
C1449 C1448 1.446 . S
C1449 C1450 1.339 1_455 S
C1449 H1478 0.949 . S
C1450 C1449 1.339 1_655 S
C1450 C1451 1.439 . S
C1450 H1479 0.950 . S
C1451 N1447 1.383 1_655 S
C1451 C1450 1.439 . S
C1451 C1469 1.392 . S
N1452 Co1436 2.282 1_655 S
N1452 C1455 1.332 . S
N1452 C1457 1.332 . S
C1453 C1454 1.386 . S
C1453 C1456 1.388 . S
C1454 C1453 1.386 . S
C1454 C1455 1.382 . S
C1454 H1480 0.950 . S
C1455 N1452 1.332 . S
C1455 C1454 1.382 . S
C1455 H1466 0.952 . S
C1456 C1453 1.388 . S
C1456 C1457 1.382 . S
C1456 H1481 0.950 . S
C1457 N1452 1.332 . S
C1457 C1456 1.382 . S
C1457 H1467 0.948 . S
N1458 Co1436 2.282 . S
N1458 C1462 1.332 . S
N1458 C1463 1.332 . S
C1459 C1460 1.388 . S
C1459 C1463 1.382 . S
C1459 H1482 0.950 . S
C1460 C1459 1.388 . S
C1460 C1461 1.386 . S
C1461 C1460 1.386 . S
C1461 C1462 1.382 . S
C1461 H1483 0.950 . S
C1462 N1458 1.332 . S
C1462 C1461 1.382 . S
C1462 H1464 0.952 . S
C1463 N1458 1.332 . S
C1463 C1459 1.382 . S
C1463 H1465 0.948 . S
H1464 C1462 0.952 . S
H1465 C1463 0.948 . S
H1466 C1455 0.952 . S
H1467 C1457 0.948 . S
C1468 C1434 1.395 . S
C1468 C1438 1.391 1_655 S
C1469 C1431 1.389 . S
C1469 C1451 1.392 . S
C1470 C1441 1.392 . S
C1470 C1443 1.389 . S
C1471 C1446 1.395 . S
C1471 C1448 1.391 . S
H1472 C1432 0.951 . S
H1473 C1433 0.950 . S
H1474 C1439 0.949 . S
H1475 C1440 0.950 . S
H1476 C1444 0.951 . S
H1477 C1445 0.950 . S
H1478 C1449 0.949 . S
H1479 C1450 0.950 . S
H1480 C1454 0.950 . S
H1481 C1456 0.950 . S
H1482 C1459 0.950 . S
H1483 C1461 0.950 . S
C1484 C1485 1.443 . S
C1484 N1488 1.376 . S
C1484 C1522 1.389 . S
C1485 C1484 1.443 . S
C1485 C1486 1.340 . S
C1485 H1525 0.951 . S
C1486 C1485 1.340 . S
C1486 C1487 1.439 . S
C1486 H1526 0.950 . S
C1487 C1486 1.439 . S
C1487 N1488 1.374 . S
C1487 C1521 1.395 . S
N1488 C1484 1.376 . S
N1488 C1487 1.374 . S
N1488 Co1489 2.008 . S
Co1489 N1488 2.008 . S
Co1489 N1490 1.995 . S
Co1489 N1495 2.008 . S
Co1489 N1500 1.995 . S
Co1489 N1505 2.282 . S
Co1489 N1511 2.282 . S
N1490 Co1489 1.995 . S
N1490 C1491 1.376 . S
N1490 C1494 1.383 . S
C1491 N1490 1.376 . S
C1491 C1492 1.446 . S
C1491 C1521 1.391 . S
C1492 C1491 1.446 . S
C1492 C1493 1.339 . S
C1492 H1527 0.949 . S
C1493 C1492 1.339 . S
C1493 C1494 1.439 . S
C1493 H1528 0.950 . S
C1494 N1490 1.383 . S
C1494 C1493 1.439 . S
C1494 C1523 1.392 . S
N1495 Co1489 2.008 . S
N1495 C1496 1.376 . S
N1495 C1499 1.374 . S
C1496 N1495 1.376 . S
C1496 C1497 1.443 . S
C1496 C1523 1.389 . S
C1497 C1496 1.443 . S
C1497 C1498 1.340 . S
C1497 H1529 0.951 . S
C1498 C1497 1.340 . S
C1498 C1499 1.439 . S
C1498 H1530 0.950 . S
C1499 N1495 1.374 . S
C1499 C1498 1.439 . S
C1499 C1524 1.395 . S
N1500 Co1489 1.995 . S
N1500 C1501 1.376 . S
N1500 C1504 1.383 . S
C1501 N1500 1.376 . S
C1501 C1502 1.446 . S
C1501 C1524 1.391 . S
C1502 C1501 1.446 . S
C1502 C1503 1.339 . S
C1502 H1531 0.949 . S
C1503 C1502 1.339 . S
C1503 C1504 1.439 . S
C1503 H1532 0.950 . S
C1504 N1500 1.383 . S
C1504 C1503 1.439 . S
C1504 C1522 1.392 . S
N1505 Co1489 2.282 . S
N1505 C1508 1.332 . S
N1505 C1510 1.332 . S
C1506 C1507 1.386 . S
C1506 C1509 1.388 . S
C1507 C1506 1.386 . S
C1507 C1508 1.382 . S
C1507 H1533 0.950 . S
C1508 N1505 1.332 . S
C1508 C1507 1.382 . S
C1508 H1519 0.952 . S
C1509 C1506 1.388 . S
C1509 C1510 1.382 . S
C1509 H1534 0.950 . S
C1510 N1505 1.332 . S
C1510 C1509 1.382 . S
C1510 H1520 0.948 . S
N1511 Co1489 2.282 . S
N1511 C1515 1.332 . S
N1511 C1516 1.332 . S
C1512 C1513 1.388 . S
C1512 C1516 1.382 . S
C1512 H1535 0.950 . S
C1513 C1512 1.388 . S
C1513 C1514 1.386 . S
C1514 C1513 1.386 . S
C1514 C1515 1.382 . S
C1514 H1536 0.950 . S
C1515 N1511 1.332 . S
C1515 C1514 1.382 . S
C1515 H1517 0.952 . S
C1516 N1511 1.332 . S
C1516 C1512 1.382 . S
C1516 H1518 0.948 . S
H1517 C1515 0.952 . S
H1518 C1516 0.948 . S
H1519 C1508 0.952 . S
H1520 C1510 0.948 . S
C1521 C1487 1.395 . S
C1521 C1491 1.391 . S
C1522 C1484 1.389 . S
C1522 C1504 1.392 . S
C1523 C1494 1.392 . S
C1523 C1496 1.389 . S
C1524 C1499 1.395 . S
C1524 C1501 1.391 . S
H1525 C1485 0.951 . S
H1526 C1486 0.950 . S
H1527 C1492 0.949 . S
H1528 C1493 0.950 . S
H1529 C1497 0.951 . S
H1530 C1498 0.950 . S
H1531 C1502 0.949 . S
H1532 C1503 0.950 . S
H1533 C1507 0.950 . S
H1534 C1509 0.950 . S
H1535 C1512 0.950 . S
H1536 C1514 0.950 . S
C1537 C1538 1.443 . S
C1537 N1541 1.376 . S
C1537 C1575 1.389 . S
C1538 C1537 1.443 . S
C1538 C1539 1.340 . S
C1538 H1578 0.951 . S
C1539 C1538 1.340 . S
C1539 C1540 1.439 . S
C1539 H1579 0.950 . S
C1540 C1539 1.439 . S
C1540 N1541 1.374 . S
C1540 C1574 1.395 . S
N1541 C1537 1.376 . S
N1541 C1540 1.374 . S
N1541 Co1542 2.008 1_655 S
Co1542 N1541 2.008 1_455 S
Co1542 N1543 1.995 . S
Co1542 N1548 2.008 . S
Co1542 N1553 1.995 . S
Co1542 N1558 2.282 1_455 S
Co1542 N1564 2.282 . S
N1543 Co1542 1.995 . S
N1543 C1544 1.376 . S
N1543 C1547 1.383 . S
C1544 N1543 1.376 . S
C1544 C1545 1.446 . S
C1544 C1574 1.391 1_455 S
C1545 C1544 1.446 . S
C1545 C1546 1.339 . S
C1545 H1580 0.949 . S
C1546 C1545 1.339 . S
C1546 C1547 1.439 . S
C1546 H1581 0.950 . S
C1547 N1543 1.383 . S
C1547 C1546 1.439 . S
C1547 C1576 1.392 . S
N1548 Co1542 2.008 . S
N1548 C1549 1.376 . S
N1548 C1552 1.374 . S
C1549 N1548 1.376 . S
C1549 C1550 1.443 . S
C1549 C1576 1.389 . S
C1550 C1549 1.443 . S
C1550 C1551 1.340 . S
C1550 H1582 0.951 . S
C1551 C1550 1.340 . S
C1551 C1552 1.439 . S
C1551 H1583 0.950 . S
C1552 N1548 1.374 . S
C1552 C1551 1.439 . S
C1552 C1577 1.395 . S
N1553 Co1542 1.995 . S
N1553 C1554 1.376 . S
N1553 C1557 1.383 1_455 S
C1554 N1553 1.376 . S
C1554 C1555 1.446 . S
C1554 C1577 1.391 . S
C1555 C1554 1.446 . S
C1555 C1556 1.339 1_455 S
C1555 H1584 0.949 . S
C1556 C1555 1.339 1_655 S
C1556 C1557 1.439 . S
C1556 H1585 0.950 . S
C1557 N1553 1.383 1_655 S
C1557 C1556 1.439 . S
C1557 C1575 1.392 . S
N1558 Co1542 2.282 1_655 S
N1558 C1561 1.332 . S
N1558 C1563 1.332 . S
C1559 C1560 1.386 . S
C1559 C1562 1.388 . S
C1560 C1559 1.386 . S
C1560 C1561 1.382 . S
C1560 H1586 0.950 . S
C1561 N1558 1.332 . S
C1561 C1560 1.382 . S
C1561 H1572 0.952 . S
C1562 C1559 1.388 . S
C1562 C1563 1.382 . S
C1562 H1587 0.950 . S
C1563 N1558 1.332 . S
C1563 C1562 1.382 . S
C1563 H1573 0.948 . S
N1564 Co1542 2.282 . S
N1564 C1568 1.332 . S
N1564 C1569 1.332 . S
C1565 C1566 1.388 . S
C1565 C1569 1.382 . S
C1565 H1588 0.950 . S
C1566 C1565 1.388 . S
C1566 C1567 1.386 . S
C1567 C1566 1.386 . S
C1567 C1568 1.382 . S
C1567 H1589 0.950 . S
C1568 N1564 1.332 . S
C1568 C1567 1.382 . S
C1568 H1570 0.952 . S
C1569 N1564 1.332 . S
C1569 C1565 1.382 . S
C1569 H1571 0.948 . S
H1570 C1568 0.952 . S
H1571 C1569 0.948 . S
H1572 C1561 0.952 . S
H1573 C1563 0.948 . S
C1574 C1540 1.395 . S
C1574 C1544 1.391 1_655 S
C1575 C1537 1.389 . S
C1575 C1557 1.392 . S
C1576 C1547 1.392 . S
C1576 C1549 1.389 . S
C1577 C1552 1.395 . S
C1577 C1554 1.391 . S
H1578 C1538 0.951 . S
H1579 C1539 0.950 . S
H1580 C1545 0.949 . S
H1581 C1546 0.950 . S
H1582 C1550 0.951 . S
H1583 C1551 0.950 . S
H1584 C1555 0.949 . S
H1585 C1556 0.950 . S
H1586 C1560 0.950 . S
H1587 C1562 0.950 . S
H1588 C1565 0.950 . S
H1589 C1567 0.950 . S
C1590 C1591 1.443 . S
C1590 N1594 1.376 . S
C1590 C1628 1.389 . S
C1591 C1590 1.443 . S
C1591 C1592 1.340 . S
C1591 H1631 0.951 . S
C1592 C1591 1.340 . S
C1592 C1593 1.439 . S
C1592 H1632 0.950 . S
C1593 C1592 1.439 . S
C1593 N1594 1.374 . S
C1593 C1627 1.395 . S
N1594 C1590 1.376 . S
N1594 C1593 1.374 . S
N1594 Co1595 2.008 . S
Co1595 N1594 2.008 . S
Co1595 N1596 1.995 . S
Co1595 N1601 2.008 . S
Co1595 N1606 1.995 . S
Co1595 N1611 2.282 . S
Co1595 N1617 2.282 . S
N1596 Co1595 1.995 . S
N1596 C1597 1.376 . S
N1596 C1600 1.383 . S
C1597 N1596 1.376 . S
C1597 C1598 1.446 . S
C1597 C1627 1.391 . S
C1598 C1597 1.446 . S
C1598 C1599 1.339 . S
C1598 H1633 0.949 . S
C1599 C1598 1.339 . S
C1599 C1600 1.439 . S
C1599 H1634 0.950 . S
C1600 N1596 1.383 . S
C1600 C1599 1.439 . S
C1600 C1629 1.392 . S
N1601 Co1595 2.008 . S
N1601 C1602 1.376 . S
N1601 C1605 1.374 . S
C1602 N1601 1.376 . S
C1602 C1603 1.443 . S
C1602 C1629 1.389 . S
C1603 C1602 1.443 . S
C1603 C1604 1.340 . S
C1603 H1635 0.951 . S
C1604 C1603 1.340 . S
C1604 C1605 1.439 . S
C1604 H1636 0.950 . S
C1605 N1601 1.374 . S
C1605 C1604 1.439 . S
C1605 C1630 1.395 . S
N1606 Co1595 1.995 . S
N1606 C1607 1.376 . S
N1606 C1610 1.383 . S
C1607 N1606 1.376 . S
C1607 C1608 1.446 . S
C1607 C1630 1.391 . S
C1608 C1607 1.446 . S
C1608 C1609 1.339 . S
C1608 H1637 0.949 . S
C1609 C1608 1.339 . S
C1609 C1610 1.439 . S
C1609 H1638 0.950 . S
C1610 N1606 1.383 . S
C1610 C1609 1.439 . S
C1610 C1628 1.392 . S
N1611 Co1595 2.282 . S
N1611 C1614 1.332 . S
N1611 C1616 1.332 . S
C1612 C1613 1.386 . S
C1612 C1615 1.388 . S
C1613 C1612 1.386 . S
C1613 C1614 1.382 . S
C1613 H1639 0.950 . S
C1614 N1611 1.332 . S
C1614 C1613 1.382 . S
C1614 H1625 0.952 . S
C1615 C1612 1.388 . S
C1615 C1616 1.382 . S
C1615 H1640 0.950 . S
C1616 N1611 1.332 . S
C1616 C1615 1.382 . S
C1616 H1626 0.948 . S
N1617 Co1595 2.282 . S
N1617 C1621 1.332 . S
N1617 C1622 1.332 . S
C1618 C1619 1.388 . S
C1618 C1622 1.382 . S
C1618 H1641 0.950 . S
C1619 C1618 1.388 . S
C1619 C1620 1.386 . S
C1620 C1619 1.386 . S
C1620 C1621 1.382 . S
C1620 H1642 0.950 . S
C1621 N1617 1.332 . S
C1621 C1620 1.382 . S
C1621 H1623 0.952 . S
C1622 N1617 1.332 . S
C1622 C1618 1.382 . S
C1622 H1624 0.948 . S
H1623 C1621 0.952 . S
H1624 C1622 0.948 . S
H1625 C1614 0.952 . S
H1626 C1616 0.948 . S
C1627 C1593 1.395 . S
C1627 C1597 1.391 . S
C1628 C1590 1.389 . S
C1628 C1610 1.392 . S
C1629 C1600 1.392 . S
C1629 C1602 1.389 . S
C1630 C1605 1.395 . S
C1630 C1607 1.391 . S
H1631 C1591 0.951 . S
H1632 C1592 0.950 . S
H1633 C1598 0.949 . S
H1634 C1599 0.950 . S
H1635 C1603 0.951 . S
H1636 C1604 0.950 . S
H1637 C1608 0.949 . S
H1638 C1609 0.950 . S
H1639 C1613 0.950 . S
H1640 C1615 0.950 . S
H1641 C1618 0.950 . S
H1642 C1620 0.950 . S
C1643 C1644 1.443 . S
C1643 N1647 1.376 . S
C1643 C1681 1.389 . S
C1644 C1643 1.443 . S
C1644 C1645 1.340 . S
C1644 H1684 0.951 . S
C1645 C1644 1.340 . S
C1645 C1646 1.439 . S
C1645 H1685 0.950 . S
C1646 C1645 1.439 . S
C1646 N1647 1.374 . S
C1646 C1680 1.395 . S
N1647 C1643 1.376 . S
N1647 C1646 1.374 . S
N1647 Co1648 2.008 . S
Co1648 N1647 2.008 . S
Co1648 N1649 1.995 . S
Co1648 N1654 2.008 . S
Co1648 N1659 1.995 . S
Co1648 N1664 2.282 . S
Co1648 N1670 2.282 . S
N1649 Co1648 1.995 . S
N1649 C1650 1.376 . S
N1649 C1653 1.383 . S
C1650 N1649 1.376 . S
C1650 C1651 1.446 . S
C1650 C1680 1.391 . S
C1651 C1650 1.446 . S
C1651 C1652 1.339 . S
C1651 H1686 0.949 . S
C1652 C1651 1.339 . S
C1652 C1653 1.439 . S
C1652 H1687 0.950 . S
C1653 N1649 1.383 . S
C1653 C1652 1.439 . S
C1653 C1682 1.392 . S
N1654 Co1648 2.008 . S
N1654 C1655 1.376 . S
N1654 C1658 1.374 . S
C1655 N1654 1.376 . S
C1655 C1656 1.443 . S
C1655 C1682 1.389 . S
C1656 C1655 1.443 . S
C1656 C1657 1.340 . S
C1656 H1688 0.951 . S
C1657 C1656 1.340 . S
C1657 C1658 1.439 . S
C1657 H1689 0.950 . S
C1658 N1654 1.374 . S
C1658 C1657 1.439 . S
C1658 C1683 1.395 . S
N1659 Co1648 1.995 . S
N1659 C1660 1.376 . S
N1659 C1663 1.383 . S
C1660 N1659 1.376 . S
C1660 C1661 1.446 . S
C1660 C1683 1.391 . S
C1661 C1660 1.446 . S
C1661 C1662 1.339 . S
C1661 H1690 0.949 . S
C1662 C1661 1.339 . S
C1662 C1663 1.439 . S
C1662 H1691 0.950 . S
C1663 N1659 1.383 . S
C1663 C1662 1.439 . S
C1663 C1681 1.392 . S
N1664 Co1648 2.282 . S
N1664 C1667 1.332 . S
N1664 C1669 1.332 . S
C1665 C1666 1.386 . S
C1665 C1668 1.388 . S
C1666 C1665 1.386 . S
C1666 C1667 1.382 . S
C1666 H1692 0.950 . S
C1667 N1664 1.332 . S
C1667 C1666 1.382 . S
C1667 H1678 0.952 . S
C1668 C1665 1.388 . S
C1668 C1669 1.382 . S
C1668 H1693 0.950 . S
C1669 N1664 1.332 . S
C1669 C1668 1.382 . S
C1669 H1679 0.948 . S
N1670 Co1648 2.282 . S
N1670 C1674 1.332 . S
N1670 C1675 1.332 . S
C1671 C1672 1.388 . S
C1671 C1675 1.382 . S
C1671 H1694 0.950 . S
C1672 C1671 1.388 . S
C1672 C1673 1.386 . S
C1673 C1672 1.386 . S
C1673 C1674 1.382 . S
C1673 H1695 0.950 . S
C1674 N1670 1.332 . S
C1674 C1673 1.382 . S
C1674 H1676 0.952 . S
C1675 N1670 1.332 . S
C1675 C1671 1.382 . S
C1675 H1677 0.948 . S
H1676 C1674 0.952 . S
H1677 C1675 0.948 . S
H1678 C1667 0.952 . S
H1679 C1669 0.948 . S
C1680 C1646 1.395 . S
C1680 C1650 1.391 . S
C1681 C1643 1.389 . S
C1681 C1663 1.392 . S
C1682 C1653 1.392 . S
C1682 C1655 1.389 . S
C1683 C1658 1.395 . S
C1683 C1660 1.391 . S
H1684 C1644 0.951 . S
H1685 C1645 0.950 . S
H1686 C1651 0.949 . S
H1687 C1652 0.950 . S
H1688 C1656 0.951 . S
H1689 C1657 0.950 . S
H1690 C1661 0.949 . S
H1691 C1662 0.950 . S
H1692 C1666 0.950 . S
H1693 C1668 0.950 . S
H1694 C1671 0.950 . S
H1695 C1673 0.950 . S
C1696 C1697 1.443 . S
C1696 N1700 1.376 . S
C1696 C1734 1.389 . S
C1697 C1696 1.443 . S
C1697 C1698 1.340 . S
C1697 H1737 0.951 . S
C1698 C1697 1.340 . S
C1698 C1699 1.439 . S
C1698 H1738 0.950 . S
C1699 C1698 1.439 . S
C1699 N1700 1.374 . S
C1699 C1733 1.395 . S
N1700 C1696 1.376 . S
N1700 C1699 1.374 . S
N1700 Co1701 2.008 . S
Co1701 N1700 2.008 . S
Co1701 N1702 1.995 . S
Co1701 N1707 2.008 . S
Co1701 N1712 1.995 . S
Co1701 N1717 2.282 . S
Co1701 N1723 2.282 . S
N1702 Co1701 1.995 . S
N1702 C1703 1.376 . S
N1702 C1706 1.383 . S
C1703 N1702 1.376 . S
C1703 C1704 1.446 . S
C1703 C1733 1.391 . S
C1704 C1703 1.446 . S
C1704 C1705 1.339 . S
C1704 H1739 0.949 . S
C1705 C1704 1.339 . S
C1705 C1706 1.439 . S
C1705 H1740 0.950 . S
C1706 N1702 1.383 . S
C1706 C1705 1.439 . S
C1706 C1735 1.392 . S
N1707 Co1701 2.008 . S
N1707 C1708 1.376 . S
N1707 C1711 1.374 . S
C1708 N1707 1.376 . S
C1708 C1709 1.443 . S
C1708 C1735 1.389 . S
C1709 C1708 1.443 . S
C1709 C1710 1.340 . S
C1709 H1741 0.951 . S
C1710 C1709 1.340 . S
C1710 C1711 1.439 . S
C1710 H1742 0.950 . S
C1711 N1707 1.374 . S
C1711 C1710 1.439 . S
C1711 C1736 1.395 . S
N1712 Co1701 1.995 . S
N1712 C1713 1.376 . S
N1712 C1716 1.383 . S
C1713 N1712 1.376 . S
C1713 C1714 1.446 . S
C1713 C1736 1.391 . S
C1714 C1713 1.446 . S
C1714 C1715 1.339 . S
C1714 H1743 0.949 . S
C1715 C1714 1.339 . S
C1715 C1716 1.439 . S
C1715 H1744 0.950 . S
C1716 N1712 1.383 . S
C1716 C1715 1.439 . S
C1716 C1734 1.392 . S
N1717 Co1701 2.282 . S
N1717 C1720 1.332 . S
N1717 C1722 1.332 . S
C1718 C1719 1.386 . S
C1718 C1721 1.388 . S
C1719 C1718 1.386 . S
C1719 C1720 1.382 . S
C1719 H1745 0.950 . S
C1720 N1717 1.332 . S
C1720 C1719 1.382 . S
C1720 H1731 0.952 . S
C1721 C1718 1.388 . S
C1721 C1722 1.382 . S
C1721 H1746 0.950 . S
C1722 N1717 1.332 . S
C1722 C1721 1.382 . S
C1722 H1732 0.948 . S
N1723 Co1701 2.282 . S
N1723 C1727 1.332 . S
N1723 C1728 1.332 . S
C1724 C1725 1.388 . S
C1724 C1728 1.382 . S
C1724 H1747 0.950 . S
C1725 C1724 1.388 . S
C1725 C1726 1.386 . S
C1726 C1725 1.386 . S
C1726 C1727 1.382 . S
C1726 H1748 0.950 . S
C1727 N1723 1.332 . S
C1727 C1726 1.382 . S
C1727 H1729 0.952 . S
C1728 N1723 1.332 . S
C1728 C1724 1.382 . S
C1728 H1730 0.948 . S
H1729 C1727 0.952 . S
H1730 C1728 0.948 . S
H1731 C1720 0.952 . S
H1732 C1722 0.948 . S
C1733 C1699 1.395 . S
C1733 C1703 1.391 . S
C1734 C1696 1.389 . S
C1734 C1716 1.392 . S
C1735 C1706 1.392 . S
C1735 C1708 1.389 . S
C1736 C1711 1.395 . S
C1736 C1713 1.391 . S
H1737 C1697 0.951 . S
H1738 C1698 0.950 . S
H1739 C1704 0.949 . S
H1740 C1705 0.950 . S
H1741 C1709 0.951 . S
H1742 C1710 0.950 . S
H1743 C1714 0.949 . S
H1744 C1715 0.950 . S
H1745 C1719 0.950 . S
H1746 C1721 0.950 . S
H1747 C1724 0.950 . S
H1748 C1726 0.950 . S
C1749 C1750 1.443 . S
C1749 N1753 1.376 . S
C1749 C1787 1.389 . S
C1750 C1749 1.443 . S
C1750 C1751 1.340 . S
C1750 H1790 0.951 . S
C1751 C1750 1.340 . S
C1751 C1752 1.439 . S
C1751 H1791 0.950 . S
C1752 C1751 1.439 . S
C1752 N1753 1.374 . S
C1752 C1786 1.395 . S
N1753 C1749 1.376 . S
N1753 C1752 1.374 . S
N1753 Co1754 2.008 . S
Co1754 N1753 2.008 . S
Co1754 N1755 1.995 . S
Co1754 N1760 2.008 . S
Co1754 N1765 1.995 . S
Co1754 N1770 2.282 . S
Co1754 N1776 2.282 . S
N1755 Co1754 1.995 . S
N1755 C1756 1.376 . S
N1755 C1759 1.383 . S
C1756 N1755 1.376 . S
C1756 C1757 1.446 . S
C1756 C1786 1.391 . S
C1757 C1756 1.446 . S
C1757 C1758 1.339 . S
C1757 H1792 0.949 . S
C1758 C1757 1.339 . S
C1758 C1759 1.439 . S
C1758 H1793 0.950 . S
C1759 N1755 1.383 . S
C1759 C1758 1.439 . S
C1759 C1788 1.392 . S
N1760 Co1754 2.008 . S
N1760 C1761 1.376 . S
N1760 C1764 1.374 . S
C1761 N1760 1.376 . S
C1761 C1762 1.443 . S
C1761 C1788 1.389 . S
C1762 C1761 1.443 . S
C1762 C1763 1.340 . S
C1762 H1794 0.951 . S
C1763 C1762 1.340 . S
C1763 C1764 1.439 . S
C1763 H1795 0.950 . S
C1764 N1760 1.374 . S
C1764 C1763 1.439 . S
C1764 C1789 1.395 . S
N1765 Co1754 1.995 . S
N1765 C1766 1.376 . S
N1765 C1769 1.383 . S
C1766 N1765 1.376 . S
C1766 C1767 1.446 . S
C1766 C1789 1.391 . S
C1767 C1766 1.446 . S
C1767 C1768 1.339 . S
C1767 H1796 0.949 . S
C1768 C1767 1.339 . S
C1768 C1769 1.439 . S
C1768 H1797 0.950 1_554 S
C1769 N1765 1.383 . S
C1769 C1768 1.439 . S
C1769 C1787 1.392 . S
N1770 Co1754 2.282 . S
N1770 C1773 1.332 . S
N1770 C1775 1.332 . S
C1771 C1772 1.386 . S
C1771 C1774 1.388 . S
C1772 C1771 1.386 . S
C1772 C1773 1.382 . S
C1772 H1798 0.950 . S
C1773 N1770 1.332 . S
C1773 C1772 1.382 . S
C1773 H1784 0.952 . S
C1774 C1771 1.388 . S
C1774 C1775 1.382 . S
C1774 H1799 0.950 . S
C1775 N1770 1.332 . S
C1775 C1774 1.382 . S
C1775 H1785 0.948 . S
N1776 Co1754 2.282 . S
N1776 C1780 1.332 . S
N1776 C1781 1.332 . S
C1777 C1778 1.388 . S
C1777 C1781 1.382 . S
C1777 H1800 0.950 . S
C1778 C1777 1.388 . S
C1778 C1779 1.386 . S
C1779 C1778 1.386 . S
C1779 C1780 1.382 . S
C1779 H1801 0.950 . S
C1780 N1776 1.332 . S
C1780 C1779 1.382 . S
C1780 H1782 0.952 . S
C1781 N1776 1.332 . S
C1781 C1777 1.382 . S
C1781 H1783 0.948 . S
H1782 C1780 0.952 . S
H1783 C1781 0.948 . S
H1784 C1773 0.952 . S
H1785 C1775 0.948 . S
C1786 C1752 1.395 . S
C1786 C1756 1.391 . S
C1787 C1749 1.389 . S
C1787 C1769 1.392 . S
C1788 C1759 1.392 . S
C1788 C1761 1.389 . S
C1789 C1764 1.395 . S
C1789 C1766 1.391 . S
H1790 C1750 0.951 . S
H1791 C1751 0.950 . S
H1792 C1757 0.949 . S
H1793 C1758 0.950 . S
H1794 C1762 0.951 . S
H1795 C1763 0.950 . S
H1796 C1767 0.949 . S
H1797 C1768 0.950 1_556 S
H1798 C1772 0.950 . S
H1799 C1774 0.950 . S
H1800 C1777 0.950 . S
H1801 C1779 0.950 . S
C1802 C1803 1.443 . S
C1802 N1806 1.376 . S
C1802 C1840 1.389 . S
C1803 C1802 1.443 . S
C1803 C1804 1.340 . S
C1803 H1843 0.951 . S
C1804 C1803 1.340 . S
C1804 C1805 1.439 . S
C1804 H1844 0.950 . S
C1805 C1804 1.439 . S
C1805 N1806 1.374 . S
C1805 C1839 1.395 . S
N1806 C1802 1.376 . S
N1806 C1805 1.374 . S
N1806 Co1807 2.008 . S
Co1807 N1806 2.008 . S
Co1807 N1808 1.995 . S
Co1807 N1813 2.008 . S
Co1807 N1818 1.995 . S
Co1807 N1823 2.282 . S
Co1807 N1829 2.282 . S
N1808 Co1807 1.995 . S
N1808 C1809 1.376 . S
N1808 C1812 1.383 . S
C1809 N1808 1.376 . S
C1809 C1810 1.446 . S
C1809 C1839 1.391 . S
C1810 C1809 1.446 . S
C1810 C1811 1.339 . S
C1810 H1845 0.949 . S
C1811 C1810 1.339 . S
C1811 C1812 1.439 . S
C1811 H1846 0.950 . S
C1812 N1808 1.383 . S
C1812 C1811 1.439 . S
C1812 C1841 1.392 . S
N1813 Co1807 2.008 . S
N1813 C1814 1.376 . S
N1813 C1817 1.374 . S
C1814 N1813 1.376 . S
C1814 C1815 1.443 . S
C1814 C1841 1.389 . S
C1815 C1814 1.443 . S
C1815 C1816 1.340 . S
C1815 H1847 0.951 . S
C1816 C1815 1.340 . S
C1816 C1817 1.439 . S
C1816 H1848 0.950 . S
C1817 N1813 1.374 . S
C1817 C1816 1.439 . S
C1817 C1842 1.395 . S
N1818 Co1807 1.995 . S
N1818 C1819 1.376 . S
N1818 C1822 1.383 . S
C1819 N1818 1.376 . S
C1819 C1820 1.446 . S
C1819 C1842 1.391 . S
C1820 C1819 1.446 . S
C1820 C1821 1.339 . S
C1820 H1849 0.949 . S
C1821 C1820 1.339 . S
C1821 C1822 1.439 . S
C1821 H1850 0.950 . S
C1822 N1818 1.383 . S
C1822 C1821 1.439 . S
C1822 C1840 1.392 . S
N1823 Co1807 2.282 . S
N1823 C1826 1.332 . S
N1823 C1828 1.332 . S
C1824 C1825 1.386 . S
C1824 C1827 1.388 . S
C1825 C1824 1.386 . S
C1825 C1826 1.382 . S
C1825 H1851 0.950 . S
C1826 N1823 1.332 . S
C1826 C1825 1.382 . S
C1826 H1837 0.952 . S
C1827 C1824 1.388 . S
C1827 C1828 1.382 . S
C1827 H1852 0.950 . S
C1828 N1823 1.332 . S
C1828 C1827 1.382 . S
C1828 H1838 0.948 . S
N1829 Co1807 2.282 . S
N1829 C1833 1.332 . S
N1829 C1834 1.332 . S
C1830 C1831 1.388 . S
C1830 C1834 1.382 . S
C1830 H1853 0.950 . S
C1831 C1830 1.388 . S
C1831 C1832 1.386 . S
C1832 C1831 1.386 . S
C1832 C1833 1.382 . S
C1832 H1854 0.950 . S
C1833 N1829 1.332 . S
C1833 C1832 1.382 . S
C1833 H1835 0.952 . S
C1834 N1829 1.332 . S
C1834 C1830 1.382 . S
C1834 H1836 0.948 . S
H1835 C1833 0.952 . S
H1836 C1834 0.948 . S
H1837 C1826 0.952 . S
H1838 C1828 0.948 . S
C1839 C1805 1.395 . S
C1839 C1809 1.391 . S
C1840 C1802 1.389 . S
C1840 C1822 1.392 . S
C1841 C1812 1.392 . S
C1841 C1814 1.389 . S
C1842 C1817 1.395 . S
C1842 C1819 1.391 . S
H1843 C1803 0.951 . S
H1844 C1804 0.950 . S
H1845 C1810 0.949 . S
H1846 C1811 0.950 . S
H1847 C1815 0.951 . S
H1848 C1816 0.950 . S
H1849 C1820 0.949 . S
H1850 C1821 0.950 . S
H1851 C1825 0.950 . S
H1852 C1827 0.950 . S
H1853 C1830 0.950 . S
H1854 C1832 0.950 . S
C1855 C1856 1.443 1_655 S
C1855 N1859 1.376 . S
C1855 C1893 1.389 . S
C1856 C1855 1.443 1_455 S
C1856 C1857 1.340 . S
C1856 H1896 0.951 . S
C1857 C1856 1.340 . S
C1857 C1858 1.439 1_455 S
C1857 H1897 0.950 . S
C1858 C1857 1.439 1_655 S
C1858 N1859 1.374 . S
C1858 C1892 1.395 . S
N1859 C1855 1.376 . S
N1859 C1858 1.374 . S
N1859 Co1860 2.008 . S
Co1860 N1859 2.008 . S
Co1860 N1861 1.995 . S
Co1860 N1866 2.008 . S
Co1860 N1871 1.995 . S
Co1860 N1876 2.282 . S
Co1860 N1882 2.282 . S
N1861 Co1860 1.995 . S
N1861 C1862 1.376 . S
N1861 C1865 1.383 . S
C1862 N1861 1.376 . S
C1862 C1863 1.446 . S
C1862 C1892 1.391 . S
C1863 C1862 1.446 . S
C1863 C1864 1.339 . S
C1863 H1898 0.949 . S
C1864 C1863 1.339 . S
C1864 C1865 1.439 . S
C1864 H1899 0.950 . S
C1865 N1861 1.383 . S
C1865 C1864 1.439 . S
C1865 C1894 1.392 . S
N1866 Co1860 2.008 . S
N1866 C1867 1.376 . S
N1866 C1870 1.374 . S
C1867 N1866 1.376 . S
C1867 C1868 1.443 . S
C1867 C1894 1.389 . S
C1868 C1867 1.443 . S
C1868 C1869 1.340 . S
C1868 H1900 0.951 . S
C1869 C1868 1.340 . S
C1869 C1870 1.439 . S
C1869 H1901 0.950 . S
C1870 N1866 1.374 . S
C1870 C1869 1.439 . S
C1870 C1895 1.395 . S
N1871 Co1860 1.995 . S
N1871 C1872 1.376 . S
N1871 C1875 1.383 . S
C1872 N1871 1.376 . S
C1872 C1873 1.446 . S
C1872 C1895 1.391 . S
C1873 C1872 1.446 . S
C1873 C1874 1.339 . S
C1873 H1902 0.949 . S
C1874 C1873 1.339 . S
C1874 C1875 1.439 . S
C1874 H1903 0.950 . S
C1875 N1871 1.383 . S
C1875 C1874 1.439 . S
C1875 C1893 1.392 . S
N1876 Co1860 2.282 . S
N1876 C1879 1.332 . S
N1876 C1881 1.332 . S
C1877 C1878 1.386 . S
C1877 C1880 1.388 . S
C1878 C1877 1.386 . S
C1878 C1879 1.382 . S
C1878 H1904 0.950 . S
C1879 N1876 1.332 . S
C1879 C1878 1.382 . S
C1879 H1890 0.952 . S
C1880 C1877 1.388 . S
C1880 C1881 1.382 . S
C1880 H1905 0.950 . S
C1881 N1876 1.332 . S
C1881 C1880 1.382 . S
C1881 H1891 0.948 . S
N1882 Co1860 2.282 . S
N1882 C1886 1.332 . S
N1882 C1887 1.332 . S
C1883 C1884 1.388 . S
C1883 C1887 1.382 . S
C1883 H1906 0.950 . S
C1884 C1883 1.388 . S
C1884 C1885 1.386 . S
C1885 C1884 1.386 . S
C1885 C1886 1.382 . S
C1885 H1907 0.950 . S
C1886 N1882 1.332 . S
C1886 C1885 1.382 . S
C1886 H1888 0.952 . S
C1887 N1882 1.332 . S
C1887 C1883 1.382 . S
C1887 H1889 0.948 . S
H1888 C1886 0.952 . S
H1889 C1887 0.948 . S
H1890 C1879 0.952 . S
H1891 C1881 0.948 . S
C1892 C1858 1.395 . S
C1892 C1862 1.391 . S
C1893 C1855 1.389 . S
C1893 C1875 1.392 . S
C1894 C1865 1.392 . S
C1894 C1867 1.389 . S
C1895 C1870 1.395 . S
C1895 C1872 1.391 . S
H1896 C1856 0.951 . S
H1897 C1857 0.950 . S
H1898 C1863 0.949 . S
H1899 C1864 0.950 . S
H1900 C1868 0.951 . S
H1901 C1869 0.950 . S
H1902 C1873 0.949 . S
H1903 C1874 0.950 . S
H1904 C1878 0.950 . S
H1905 C1880 0.950 . S
H1906 C1883 0.950 . S
H1907 C1885 0.950 . S
C1908 C1909 1.443 . S
C1908 N1912 1.376 . S
C1908 C1946 1.389 . S
C1909 C1908 1.443 . S
C1909 C1910 1.340 . S
C1909 H1949 0.951 . S
C1910 C1909 1.340 . S
C1910 C1911 1.439 . S
C1910 H1950 0.950 . S
C1911 C1910 1.439 . S
C1911 N1912 1.374 . S
C1911 C1945 1.395 . S
N1912 C1908 1.376 . S
N1912 C1911 1.374 . S
N1912 Co1913 2.008 . S
Co1913 N1912 2.008 . S
Co1913 N1914 1.995 . S
Co1913 N1919 2.008 . S
Co1913 N1924 1.995 . S
Co1913 N1929 2.282 . S
Co1913 N1935 2.282 . S
N1914 Co1913 1.995 . S
N1914 C1915 1.376 . S
N1914 C1918 1.383 . S
C1915 N1914 1.376 . S
C1915 C1916 1.446 . S
C1915 C1945 1.391 . S
C1916 C1915 1.446 . S
C1916 C1917 1.339 . S
C1916 H1951 0.949 . S
C1917 C1916 1.339 . S
C1917 C1918 1.439 . S
C1917 H1952 0.950 . S
C1918 N1914 1.383 . S
C1918 C1917 1.439 . S
C1918 C1947 1.392 . S
N1919 Co1913 2.008 . S
N1919 C1920 1.376 . S
N1919 C1923 1.374 . S
C1920 N1919 1.376 . S
C1920 C1921 1.443 . S
C1920 C1947 1.389 . S
C1921 C1920 1.443 . S
C1921 C1922 1.340 . S
C1921 H1953 0.951 . S
C1922 C1921 1.340 . S
C1922 C1923 1.439 . S
C1922 H1954 0.950 . S
C1923 N1919 1.374 . S
C1923 C1922 1.439 . S
C1923 C1948 1.395 . S
N1924 Co1913 1.995 . S
N1924 C1925 1.376 . S
N1924 C1928 1.383 . S
C1925 N1924 1.376 . S
C1925 C1926 1.446 . S
C1925 C1948 1.391 . S
C1926 C1925 1.446 . S
C1926 C1927 1.339 . S
C1926 H1955 0.949 . S
C1927 C1926 1.339 . S
C1927 C1928 1.439 . S
C1927 H1956 0.950 . S
C1928 N1924 1.383 . S
C1928 C1927 1.439 . S
C1928 C1946 1.392 . S
N1929 Co1913 2.282 . S
N1929 C1932 1.332 . S
N1929 C1934 1.332 . S
C1930 C1931 1.386 . S
C1930 C1933 1.388 . S
C1931 C1930 1.386 . S
C1931 C1932 1.382 . S
C1931 H1957 0.950 . S
C1932 N1929 1.332 . S
C1932 C1931 1.382 . S
C1932 H1943 0.952 . S
C1933 C1930 1.388 . S
C1933 C1934 1.382 . S
C1933 H1958 0.950 . S
C1934 N1929 1.332 . S
C1934 C1933 1.382 . S
C1934 H1944 0.948 . S
N1935 Co1913 2.282 . S
N1935 C1939 1.332 . S
N1935 C1940 1.332 . S
C1936 C1937 1.388 . S
C1936 C1940 1.382 . S
C1936 H1959 0.950 . S
C1937 C1936 1.388 . S
C1937 C1938 1.386 . S
C1938 C1937 1.386 . S
C1938 C1939 1.382 . S
C1938 H1960 0.950 . S
C1939 N1935 1.332 . S
C1939 C1938 1.382 . S
C1939 H1941 0.952 . S
C1940 N1935 1.332 . S
C1940 C1936 1.382 . S
C1940 H1942 0.948 . S
H1941 C1939 0.952 . S
H1942 C1940 0.948 . S
H1943 C1932 0.952 . S
H1944 C1934 0.948 . S
C1945 C1911 1.395 . S
C1945 C1915 1.391 . S
C1946 C1908 1.389 . S
C1946 C1928 1.392 . S
C1947 C1918 1.392 . S
C1947 C1920 1.389 . S
C1948 C1923 1.395 . S
C1948 C1925 1.391 . S
H1949 C1909 0.951 . S
H1950 C1910 0.950 . S
H1951 C1916 0.949 . S
H1952 C1917 0.950 . S
H1953 C1921 0.951 . S
H1954 C1922 0.950 . S
H1955 C1926 0.949 . S
H1956 C1927 0.950 . S
H1957 C1931 0.950 . S
H1958 C1933 0.950 . S
H1959 C1936 0.950 . S
H1960 C1938 0.950 . S
C1961 C1962 1.443 1_655 S
C1961 N1965 1.376 . S
C1961 C1999 1.389 . S
C1962 C1961 1.443 1_455 S
C1962 C1963 1.340 . S
C1962 H2002 0.951 . S
C1963 C1962 1.340 . S
C1963 C1964 1.439 1_455 S
C1963 H2003 0.950 . S
C1964 C1963 1.439 1_655 S
C1964 N1965 1.374 . S
C1964 C1998 1.395 . S
N1965 C1961 1.376 . S
N1965 C1964 1.374 . S
N1965 Co1966 2.008 . S
Co1966 N1965 2.008 . S
Co1966 N1967 1.995 . S
Co1966 N1972 2.008 . S
Co1966 N1977 1.995 . S
Co1966 N1982 2.282 . S
Co1966 N1988 2.282 . S
N1967 Co1966 1.995 . S
N1967 C1968 1.376 . S
N1967 C1971 1.383 . S
C1968 N1967 1.376 . S
C1968 C1969 1.446 . S
C1968 C1998 1.391 . S
C1969 C1968 1.446 . S
C1969 C1970 1.339 . S
C1969 H2004 0.949 . S
C1970 C1969 1.339 . S
C1970 C1971 1.439 . S
C1970 H2005 0.950 . S
C1971 N1967 1.383 . S
C1971 C1970 1.439 . S
C1971 C2000 1.392 . S
N1972 Co1966 2.008 . S
N1972 C1973 1.376 . S
N1972 C1976 1.374 . S
C1973 N1972 1.376 . S
C1973 C1974 1.443 . S
C1973 C2000 1.389 . S
C1974 C1973 1.443 . S
C1974 C1975 1.340 . S
C1974 H2006 0.951 . S
C1975 C1974 1.340 . S
C1975 C1976 1.439 . S
C1975 H2007 0.950 . S
C1976 N1972 1.374 . S
C1976 C1975 1.439 . S
C1976 C2001 1.395 . S
N1977 Co1966 1.995 . S
N1977 C1978 1.376 . S
N1977 C1981 1.383 . S
C1978 N1977 1.376 . S
C1978 C1979 1.446 . S
C1978 C2001 1.391 . S
C1979 C1978 1.446 . S
C1979 C1980 1.339 . S
C1979 H2008 0.949 . S
C1980 C1979 1.339 . S
C1980 C1981 1.439 . S
C1980 H2009 0.950 1_556 S
C1981 N1977 1.383 . S
C1981 C1980 1.439 . S
C1981 C1999 1.392 . S
N1982 Co1966 2.282 . S
N1982 C1985 1.332 . S
N1982 C1987 1.332 . S
C1983 C1984 1.386 . S
C1983 C1986 1.388 . S
C1984 C1983 1.386 . S
C1984 C1985 1.382 . S
C1984 H2010 0.950 . S
C1985 N1982 1.332 . S
C1985 C1984 1.382 . S
C1985 H1996 0.952 . S
C1986 C1983 1.388 . S
C1986 C1987 1.382 . S
C1986 H2011 0.950 . S
C1987 N1982 1.332 . S
C1987 C1986 1.382 . S
C1987 H1997 0.948 . S
N1988 Co1966 2.282 . S
N1988 C1992 1.332 . S
N1988 C1993 1.332 . S
C1989 C1990 1.388 . S
C1989 C1993 1.382 . S
C1989 H2012 0.950 . S
C1990 C1989 1.388 . S
C1990 C1991 1.386 . S
C1991 C1990 1.386 . S
C1991 C1992 1.382 . S
C1991 H2013 0.950 . S
C1992 N1988 1.332 . S
C1992 C1991 1.382 . S
C1992 H1994 0.952 . S
C1993 N1988 1.332 . S
C1993 C1989 1.382 . S
C1993 H1995 0.948 . S
H1994 C1992 0.952 . S
H1995 C1993 0.948 . S
H1996 C1985 0.952 . S
H1997 C1987 0.948 . S
C1998 C1964 1.395 . S
C1998 C1968 1.391 . S
C1999 C1961 1.389 . S
C1999 C1981 1.392 . S
C2000 C1971 1.392 . S
C2000 C1973 1.389 . S
C2001 C1976 1.395 . S
C2001 C1978 1.391 . S
H2002 C1962 0.951 . S
H2003 C1963 0.950 . S
H2004 C1969 0.949 . S
H2005 C1970 0.950 . S
H2006 C1974 0.951 . S
H2007 C1975 0.950 . S
H2008 C1979 0.949 . S
H2009 C1980 0.950 1_554 S
H2010 C1984 0.950 . S
H2011 C1986 0.950 . S
H2012 C1989 0.950 . S
H2013 C1991 0.950 . S
C2014 C2015 1.443 . S
C2014 N2018 1.376 . S
C2014 C2052 1.389 . S
C2015 C2014 1.443 . S
C2015 C2016 1.340 . S
C2015 H2055 0.951 . S
C2016 C2015 1.340 . S
C2016 C2017 1.439 . S
C2016 H2056 0.950 . S
C2017 C2016 1.439 . S
C2017 N2018 1.374 . S
C2017 C2051 1.395 . S
N2018 C2014 1.376 . S
N2018 C2017 1.374 . S
N2018 Co2019 2.008 . S
Co2019 N2018 2.008 . S
Co2019 N2020 1.995 . S
Co2019 N2025 2.008 . S
Co2019 N2030 1.995 . S
Co2019 N2035 2.282 . S
Co2019 N2041 2.282 . S
N2020 Co2019 1.995 . S
N2020 C2021 1.376 . S
N2020 C2024 1.383 . S
C2021 N2020 1.376 . S
C2021 C2022 1.446 . S
C2021 C2051 1.391 . S
C2022 C2021 1.446 . S
C2022 C2023 1.339 . S
C2022 H2057 0.949 . S
C2023 C2022 1.339 . S
C2023 C2024 1.439 . S
C2023 H2058 0.950 . S
C2024 N2020 1.383 . S
C2024 C2023 1.439 . S
C2024 C2053 1.392 . S
N2025 Co2019 2.008 . S
N2025 C2026 1.376 . S
N2025 C2029 1.374 . S
C2026 N2025 1.376 . S
C2026 C2027 1.443 . S
C2026 C2053 1.389 . S
C2027 C2026 1.443 . S
C2027 C2028 1.340 . S
C2027 H2059 0.951 . S
C2028 C2027 1.340 . S
C2028 C2029 1.439 . S
C2028 H2060 0.950 . S
C2029 N2025 1.374 . S
C2029 C2028 1.439 . S
C2029 C2054 1.395 . S
N2030 Co2019 1.995 . S
N2030 C2031 1.376 . S
N2030 C2034 1.383 . S
C2031 N2030 1.376 . S
C2031 C2032 1.446 . S
C2031 C2054 1.391 . S
C2032 C2031 1.446 . S
C2032 C2033 1.339 . S
C2032 H2061 0.949 . S
C2033 C2032 1.339 . S
C2033 C2034 1.439 . S
C2033 H2062 0.950 . S
C2034 N2030 1.383 . S
C2034 C2033 1.439 . S
C2034 C2052 1.392 . S
N2035 Co2019 2.282 . S
N2035 C2038 1.332 . S
N2035 C2040 1.332 . S
C2036 C2037 1.386 . S
C2036 C2039 1.388 . S
C2037 C2036 1.386 . S
C2037 C2038 1.382 . S
C2037 H2063 0.950 . S
C2038 N2035 1.332 . S
C2038 C2037 1.382 . S
C2038 H2049 0.952 . S
C2039 C2036 1.388 . S
C2039 C2040 1.382 . S
C2039 H2064 0.950 . S
C2040 N2035 1.332 . S
C2040 C2039 1.382 . S
C2040 H2050 0.948 . S
N2041 Co2019 2.282 . S
N2041 C2045 1.332 . S
N2041 C2046 1.332 . S
C2042 C2043 1.388 . S
C2042 C2046 1.382 . S
C2042 H2065 0.950 . S
C2043 C2042 1.388 . S
C2043 C2044 1.386 . S
C2044 C2043 1.386 . S
C2044 C2045 1.382 . S
C2044 H2066 0.950 . S
C2045 N2041 1.332 . S
C2045 C2044 1.382 . S
C2045 H2047 0.952 . S
C2046 N2041 1.332 . S
C2046 C2042 1.382 . S
C2046 H2048 0.948 . S
H2047 C2045 0.952 . S
H2048 C2046 0.948 . S
H2049 C2038 0.952 . S
H2050 C2040 0.948 . S
C2051 C2017 1.395 . S
C2051 C2021 1.391 . S
C2052 C2014 1.389 . S
C2052 C2034 1.392 . S
C2053 C2024 1.392 . S
C2053 C2026 1.389 . S
C2054 C2029 1.395 . S
C2054 C2031 1.391 . S
H2055 C2015 0.951 . S
H2056 C2016 0.950 . S
H2057 C2022 0.949 . S
H2058 C2023 0.950 . S
H2059 C2027 0.951 . S
H2060 C2028 0.950 . S
H2061 C2032 0.949 . S
H2062 C2033 0.950 . S
H2063 C2037 0.950 . S
H2064 C2039 0.950 . S
H2065 C2042 0.950 . S
H2066 C2044 0.950 . S
C2067 C2068 1.443 . S
C2067 N2071 1.376 . S
C2067 C2105 1.389 . S
C2068 C2067 1.443 . S
C2068 C2069 1.340 . S
C2068 H2108 0.951 . S
C2069 C2068 1.340 . S
C2069 C2070 1.439 . S
C2069 H2109 0.950 . S
C2070 C2069 1.439 . S
C2070 N2071 1.374 . S
C2070 C2104 1.395 . S
N2071 C2067 1.376 . S
N2071 C2070 1.374 . S
N2071 Co2072 2.008 . S
Co2072 N2071 2.008 . S
Co2072 N2073 1.995 . S
Co2072 N2078 2.008 . S
Co2072 N2083 1.995 . S
Co2072 N2088 2.282 . S
Co2072 N2094 2.282 . S
N2073 Co2072 1.995 . S
N2073 C2074 1.376 . S
N2073 C2077 1.383 . S
C2074 N2073 1.376 . S
C2074 C2075 1.446 . S
C2074 C2104 1.391 . S
C2075 C2074 1.446 . S
C2075 C2076 1.339 . S
C2075 H2110 0.949 . S
C2076 C2075 1.339 . S
C2076 C2077 1.439 . S
C2076 H2111 0.950 . S
C2077 N2073 1.383 . S
C2077 C2076 1.439 . S
C2077 C2106 1.392 . S
N2078 Co2072 2.008 . S
N2078 C2079 1.376 . S
N2078 C2082 1.374 . S
C2079 N2078 1.376 . S
C2079 C2080 1.443 . S
C2079 C2106 1.389 . S
C2080 C2079 1.443 . S
C2080 C2081 1.340 . S
C2080 H2112 0.951 . S
C2081 C2080 1.340 . S
C2081 C2082 1.439 . S
C2081 H2113 0.950 . S
C2082 N2078 1.374 . S
C2082 C2081 1.439 . S
C2082 C2107 1.395 . S
N2083 Co2072 1.995 . S
N2083 C2084 1.376 . S
N2083 C2087 1.383 . S
C2084 N2083 1.376 . S
C2084 C2085 1.446 . S
C2084 C2107 1.391 . S
C2085 C2084 1.446 . S
C2085 C2086 1.339 . S
C2085 H2114 0.949 . S
C2086 C2085 1.339 . S
C2086 C2087 1.439 . S
C2086 H2115 0.950 . S
C2087 N2083 1.383 . S
C2087 C2086 1.439 . S
C2087 C2105 1.392 . S
N2088 Co2072 2.282 . S
N2088 C2091 1.332 . S
N2088 C2093 1.332 . S
C2089 C2090 1.386 . S
C2089 C2092 1.388 . S
C2090 C2089 1.386 . S
C2090 C2091 1.382 . S
C2090 H2116 0.950 . S
C2091 N2088 1.332 . S
C2091 C2090 1.382 . S
C2091 H2102 0.952 . S
C2092 C2089 1.388 . S
C2092 C2093 1.382 . S
C2092 H2117 0.950 . S
C2093 N2088 1.332 . S
C2093 C2092 1.382 . S
C2093 H2103 0.948 . S
N2094 Co2072 2.282 . S
N2094 C2098 1.332 . S
N2094 C2099 1.332 . S
C2095 C2096 1.388 . S
C2095 C2099 1.382 . S
C2095 H2118 0.950 . S
C2096 C2095 1.388 . S
C2096 C2097 1.386 . S
C2097 C2096 1.386 . S
C2097 C2098 1.382 . S
C2097 H2119 0.950 . S
C2098 N2094 1.332 . S
C2098 C2097 1.382 . S
C2098 H2100 0.952 . S
C2099 N2094 1.332 . S
C2099 C2095 1.382 . S
C2099 H2101 0.948 . S
H2100 C2098 0.952 . S
H2101 C2099 0.948 . S
H2102 C2091 0.952 . S
H2103 C2093 0.948 . S
C2104 C2070 1.395 . S
C2104 C2074 1.391 . S
C2105 C2067 1.389 . S
C2105 C2087 1.392 . S
C2106 C2077 1.392 . S
C2106 C2079 1.389 . S
C2107 C2082 1.395 . S
C2107 C2084 1.391 . S
H2108 C2068 0.951 . S
H2109 C2069 0.950 . S
H2110 C2075 0.949 . S
H2111 C2076 0.950 . S
H2112 C2080 0.951 . S
H2113 C2081 0.950 . S
H2114 C2085 0.949 . S
H2115 C2086 0.950 . S
H2116 C2090 0.950 . S
H2117 C2092 0.950 . S
H2118 C2095 0.950 . S
H2119 C2097 0.950 . S
C2120 C2121 1.443 . S
C2120 N2124 1.376 . S
C2120 C2158 1.389 . S
C2121 C2120 1.443 . S
C2121 C2122 1.340 . S
C2121 H2161 0.951 . S
C2122 C2121 1.340 . S
C2122 C2123 1.439 . S
C2122 H2162 0.950 . S
C2123 C2122 1.439 . S
C2123 N2124 1.374 . S
C2123 C2157 1.395 . S
N2124 C2120 1.376 . S
N2124 C2123 1.374 . S
N2124 Co2125 2.008 . S
Co2125 N2124 2.008 . S
Co2125 N2126 1.995 . S
Co2125 N2131 2.008 . S
Co2125 N2136 1.995 . S
Co2125 N2141 2.282 . S
Co2125 N2147 2.282 . S
N2126 Co2125 1.995 . S
N2126 C2127 1.376 . S
N2126 C2130 1.383 . S
C2127 N2126 1.376 . S
C2127 C2128 1.446 . S
C2127 C2157 1.391 . S
C2128 C2127 1.446 . S
C2128 C2129 1.339 . S
C2128 H2163 0.949 . S
C2129 C2128 1.339 . S
C2129 C2130 1.439 . S
C2129 H2164 0.950 . S
C2130 N2126 1.383 . S
C2130 C2129 1.439 . S
C2130 C2159 1.392 . S
N2131 Co2125 2.008 . S
N2131 C2132 1.376 . S
N2131 C2135 1.374 . S
C2132 N2131 1.376 . S
C2132 C2133 1.443 . S
C2132 C2159 1.389 . S
C2133 C2132 1.443 . S
C2133 C2134 1.340 . S
C2133 H2165 0.951 . S
C2134 C2133 1.340 . S
C2134 C2135 1.439 . S
C2134 H2166 0.950 . S
C2135 N2131 1.374 . S
C2135 C2134 1.439 . S
C2135 C2160 1.395 . S
N2136 Co2125 1.995 . S
N2136 C2137 1.376 . S
N2136 C2140 1.383 . S
C2137 N2136 1.376 . S
C2137 C2138 1.446 . S
C2137 C2160 1.391 . S
C2138 C2137 1.446 . S
C2138 C2139 1.339 . S
C2138 H2167 0.949 . S
C2139 C2138 1.339 . S
C2139 C2140 1.439 . S
C2139 H2168 0.950 . S
C2140 N2136 1.383 . S
C2140 C2139 1.439 . S
C2140 C2158 1.392 . S
N2141 Co2125 2.282 . S
N2141 C2144 1.332 . S
N2141 C2146 1.332 . S
C2142 C2143 1.386 . S
C2142 C2145 1.388 . S
C2143 C2142 1.386 . S
C2143 C2144 1.382 . S
C2143 H2169 0.950 . S
C2144 N2141 1.332 . S
C2144 C2143 1.382 . S
C2144 H2155 0.952 . S
C2145 C2142 1.388 . S
C2145 C2146 1.382 . S
C2145 H2170 0.950 . S
C2146 N2141 1.332 . S
C2146 C2145 1.382 . S
C2146 H2156 0.948 . S
N2147 Co2125 2.282 . S
N2147 C2151 1.332 . S
N2147 C2152 1.332 . S
C2148 C2149 1.388 . S
C2148 C2152 1.382 . S
C2148 H2171 0.950 . S
C2149 C2148 1.388 . S
C2149 C2150 1.386 . S
C2150 C2149 1.386 . S
C2150 C2151 1.382 . S
C2150 H2172 0.950 . S
C2151 N2147 1.332 . S
C2151 C2150 1.382 . S
C2151 H2153 0.952 . S
C2152 N2147 1.332 . S
C2152 C2148 1.382 . S
C2152 H2154 0.948 . S
H2153 C2151 0.952 . S
H2154 C2152 0.948 . S
H2155 C2144 0.952 . S
H2156 C2146 0.948 . S
C2157 C2123 1.395 . S
C2157 C2127 1.391 . S
C2158 C2120 1.389 . S
C2158 C2140 1.392 . S
C2159 C2130 1.392 . S
C2159 C2132 1.389 . S
C2160 C2135 1.395 . S
C2160 C2137 1.391 . S
H2161 C2121 0.951 . S
H2162 C2122 0.950 . S
H2163 C2128 0.949 . S
H2164 C2129 0.950 . S
H2165 C2133 0.951 . S
H2166 C2134 0.950 . S
H2167 C2138 0.949 . S
H2168 C2139 0.950 . S
H2169 C2143 0.950 . S
H2170 C2145 0.950 . S
H2171 C2148 0.950 . S
H2172 C2150 0.950 . S
C2173 C2174 1.443 . S
C2173 N2177 1.376 . S
C2173 C2211 1.389 . S
C2174 C2173 1.443 . S
C2174 C2175 1.340 . S
C2174 H2214 0.951 . S
C2175 C2174 1.340 . S
C2175 C2176 1.439 . S
C2175 H2215 0.950 . S
C2176 C2175 1.439 . S
C2176 N2177 1.374 . S
C2176 C2210 1.395 . S
N2177 C2173 1.376 . S
N2177 C2176 1.374 . S
N2177 Co2178 2.008 . S
Co2178 N2177 2.008 . S
Co2178 N2179 1.995 . S
Co2178 N2184 2.008 . S
Co2178 N2189 1.995 . S
Co2178 N2194 2.282 . S
Co2178 N2200 2.282 . S
N2179 Co2178 1.995 . S
N2179 C2180 1.376 . S
N2179 C2183 1.383 . S
C2180 N2179 1.376 . S
C2180 C2181 1.446 . S
C2180 C2210 1.391 . S
C2181 C2180 1.446 . S
C2181 C2182 1.339 . S
C2181 H2216 0.949 . S
C2182 C2181 1.339 . S
C2182 C2183 1.439 . S
C2182 H2217 0.950 . S
C2183 N2179 1.383 . S
C2183 C2182 1.439 . S
C2183 C2212 1.392 . S
N2184 Co2178 2.008 . S
N2184 C2185 1.376 . S
N2184 C2188 1.374 . S
C2185 N2184 1.376 . S
C2185 C2186 1.443 . S
C2185 C2212 1.389 . S
C2186 C2185 1.443 . S
C2186 C2187 1.340 . S
C2186 H2218 0.951 . S
C2187 C2186 1.340 . S
C2187 C2188 1.439 . S
C2187 H2219 0.950 . S
C2188 N2184 1.374 . S
C2188 C2187 1.439 . S
C2188 C2213 1.395 . S
N2189 Co2178 1.995 . S
N2189 C2190 1.376 . S
N2189 C2193 1.383 . S
C2190 N2189 1.376 . S
C2190 C2191 1.446 . S
C2190 C2213 1.391 . S
C2191 C2190 1.446 . S
C2191 C2192 1.339 . S
C2191 H2220 0.949 . S
C2192 C2191 1.339 . S
C2192 C2193 1.439 . S
C2192 H2221 0.950 . S
C2193 N2189 1.383 . S
C2193 C2192 1.439 . S
C2193 C2211 1.392 . S
N2194 Co2178 2.282 . S
N2194 C2197 1.332 . S
N2194 C2199 1.332 . S
C2195 C2196 1.386 . S
C2195 C2198 1.388 . S
C2196 C2195 1.386 . S
C2196 C2197 1.382 . S
C2196 H2222 0.950 . S
C2197 N2194 1.332 . S
C2197 C2196 1.382 . S
C2197 H2208 0.952 . S
C2198 C2195 1.388 . S
C2198 C2199 1.382 . S
C2198 H2223 0.950 . S
C2199 N2194 1.332 . S
C2199 C2198 1.382 . S
C2199 H2209 0.948 . S
N2200 Co2178 2.282 . S
N2200 C2204 1.332 . S
N2200 C2205 1.332 . S
C2201 C2202 1.388 . S
C2201 C2205 1.382 . S
C2201 H2224 0.950 . S
C2202 C2201 1.388 . S
C2202 C2203 1.386 . S
C2203 C2202 1.386 . S
C2203 C2204 1.382 . S
C2203 H2225 0.950 . S
C2204 N2200 1.332 . S
C2204 C2203 1.382 . S
C2204 H2206 0.952 . S
C2205 N2200 1.332 . S
C2205 C2201 1.382 . S
C2205 H2207 0.948 . S
H2206 C2204 0.952 . S
H2207 C2205 0.948 . S
H2208 C2197 0.952 . S
H2209 C2199 0.948 . S
C2210 C2176 1.395 . S
C2210 C2180 1.391 . S
C2211 C2173 1.389 . S
C2211 C2193 1.392 . S
C2212 C2183 1.392 . S
C2212 C2185 1.389 . S
C2213 C2188 1.395 . S
C2213 C2190 1.391 . S
H2214 C2174 0.951 . S
H2215 C2175 0.950 . S
H2216 C2181 0.949 . S
H2217 C2182 0.950 . S
H2218 C2186 0.951 . S
H2219 C2187 0.950 . S
H2220 C2191 0.949 . S
H2221 C2192 0.950 . S
H2222 C2196 0.950 . S
H2223 C2198 0.950 . S
H2224 C2201 0.950 . S
H2225 C2203 0.950 . S
C2226 C2227 1.443 . S
C2226 N2230 1.376 1_565 S
C2226 C2264 1.389 . S
C2227 C2226 1.443 . S
C2227 C2228 1.340 1_565 S
C2227 H2267 0.951 . S
C2228 C2227 1.340 1_545 S
C2228 C2229 1.439 . S
C2228 H2268 0.950 . S
C2229 C2228 1.439 . S
C2229 N2230 1.374 . S
C2229 C2263 1.395 . S
N2230 C2226 1.376 1_545 S
N2230 C2229 1.374 . S
N2230 Co2231 2.008 . S
Co2231 N2230 2.008 . S
Co2231 N2232 1.995 . S
Co2231 N2237 2.008 . S
Co2231 N2242 1.995 . S
Co2231 N2247 2.282 1_545 S
Co2231 N2253 2.282 . S
N2232 Co2231 1.995 . S
N2232 C2233 1.376 . S
N2232 C2236 1.383 . S
C2233 N2232 1.376 . S
C2233 C2234 1.446 . S
C2233 C2263 1.391 . S
C2234 C2233 1.446 . S
C2234 C2235 1.339 . S
C2234 H2269 0.949 . S
C2235 C2234 1.339 . S
C2235 C2236 1.439 . S
C2235 H2270 0.950 . S
C2236 N2232 1.383 . S
C2236 C2235 1.439 . S
C2236 C2265 1.392 . S
N2237 Co2231 2.008 . S
N2237 C2238 1.376 . S
N2237 C2241 1.374 . S
C2238 N2237 1.376 . S
C2238 C2239 1.443 . S
C2238 C2265 1.389 . S
C2239 C2238 1.443 . S
C2239 C2240 1.340 . S
C2239 H2271 0.951 . S
C2240 C2239 1.340 . S
C2240 C2241 1.439 . S
C2240 H2272 0.950 . S
C2241 N2237 1.374 . S
C2241 C2240 1.439 . S
C2241 C2266 1.395 . S
N2242 Co2231 1.995 . S
N2242 C2243 1.376 1_545 S
N2242 C2246 1.383 1_545 S
C2243 N2242 1.376 1_565 S
C2243 C2244 1.446 . S
C2243 C2266 1.391 1_565 S
C2244 C2243 1.446 . S
C2244 C2245 1.339 . S
C2244 H2273 0.949 . S
C2245 C2244 1.339 . S
C2245 C2246 1.439 . S
C2245 H2274 0.950 . S
C2246 N2242 1.383 1_565 S
C2246 C2245 1.439 . S
C2246 C2264 1.392 . S
N2247 Co2231 2.282 1_565 S
N2247 C2250 1.332 . S
N2247 C2252 1.333 . S
C2248 C2249 1.386 . S
C2248 C2251 1.388 . S
C2249 C2248 1.386 . S
C2249 C2250 1.382 . S
C2249 H2275 0.950 . S
C2250 N2247 1.332 . S
C2250 C2249 1.382 . S
C2250 H2261 0.952 . S
C2251 C2248 1.388 . S
C2251 C2252 1.390 . S
C2251 H2276 0.950 . S
C2252 N2247 1.333 . S
C2252 C2251 1.390 . S
C2252 H2262 0.939 1_565 S
N2253 Co2231 2.282 . S
N2253 C2257 1.332 . S
N2253 C2258 1.332 . S
C2254 C2255 1.388 . S
C2254 C2258 1.382 . S
C2254 H2277 0.950 . S
C2255 C2254 1.388 . S
C2255 C2256 1.386 . S
C2256 C2255 1.386 . S
C2256 C2257 1.382 . S
C2256 H2278 0.950 . S
C2257 N2253 1.332 . S
C2257 C2256 1.382 . S
C2257 H2259 0.952 . S
C2258 N2253 1.332 . S
C2258 C2254 1.382 . S
C2258 H2260 0.948 . S
H2259 C2257 0.952 . S
H2260 C2258 0.948 . S
H2261 C2250 0.952 . S
H2262 C2252 0.939 1_545 S
C2263 C2229 1.395 . S
C2263 C2233 1.391 . S
C2264 C2226 1.389 . S
C2264 C2246 1.392 . S
C2265 C2236 1.392 . S
C2265 C2238 1.389 . S
C2266 C2241 1.395 . S
C2266 C2243 1.391 1_545 S
H2267 C2227 0.951 . S
H2268 C2228 0.950 . S
H2269 C2234 0.949 . S
H2270 C2235 0.950 . S
H2271 C2239 0.951 . S
H2272 C2240 0.950 . S
H2273 C2244 0.949 . S
H2274 C2245 0.950 . S
H2275 C2249 0.950 . S
H2276 C2251 0.950 . S
H2277 C2254 0.950 . S
H2278 C2256 0.950 . S
C2279 C2280 1.443 . S
C2279 N2283 1.376 . S
C2279 C2317 1.389 . S
C2280 C2279 1.443 . S
C2280 C2281 1.340 . S
C2280 H2320 0.951 . S
C2281 C2280 1.340 . S
C2281 C2282 1.439 . S
C2281 H2321 0.950 . S
C2282 C2281 1.439 . S
C2282 N2283 1.374 . S
C2282 C2316 1.395 . S
N2283 C2279 1.376 . S
N2283 C2282 1.374 . S
N2283 Co2284 2.008 . S
Co2284 N2283 2.008 . S
Co2284 N2285 1.995 . S
Co2284 N2290 2.008 . S
Co2284 N2295 1.995 . S
Co2284 N2300 2.282 . S
Co2284 N2306 2.282 . S
N2285 Co2284 1.995 . S
N2285 C2286 1.376 . S
N2285 C2289 1.383 . S
C2286 N2285 1.376 . S
C2286 C2287 1.446 . S
C2286 C2316 1.391 . S
C2287 C2286 1.446 . S
C2287 C2288 1.339 . S
C2287 H2322 0.949 . S
C2288 C2287 1.339 . S
C2288 C2289 1.439 . S
C2288 H2323 0.950 . S
C2289 N2285 1.383 . S
C2289 C2288 1.439 . S
C2289 C2318 1.392 . S
N2290 Co2284 2.008 . S
N2290 C2291 1.376 . S
N2290 C2294 1.374 . S
C2291 N2290 1.376 . S
C2291 C2292 1.443 . S
C2291 C2318 1.389 . S
C2292 C2291 1.443 . S
C2292 C2293 1.340 . S
C2292 H2324 0.951 . S
C2293 C2292 1.340 . S
C2293 C2294 1.439 . S
C2293 H2325 0.950 . S
C2294 N2290 1.374 . S
C2294 C2293 1.439 . S
C2294 C2319 1.395 . S
N2295 Co2284 1.995 . S
N2295 C2296 1.376 . S
N2295 C2299 1.383 . S
C2296 N2295 1.376 . S
C2296 C2297 1.446 . S
C2296 C2319 1.391 . S
C2297 C2296 1.446 . S
C2297 C2298 1.339 . S
C2297 H2326 0.949 . S
C2298 C2297 1.339 . S
C2298 C2299 1.439 . S
C2298 H2327 0.950 . S
C2299 N2295 1.383 . S
C2299 C2298 1.439 . S
C2299 C2317 1.392 . S
N2300 Co2284 2.282 . S
N2300 C2303 1.332 . S
N2300 C2305 1.332 . S
C2301 C2302 1.386 . S
C2301 C2304 1.388 . S
C2302 C2301 1.386 . S
C2302 C2303 1.382 . S
C2302 H2328 0.950 . S
C2303 N2300 1.332 . S
C2303 C2302 1.382 . S
C2303 H2314 0.952 . S
C2304 C2301 1.388 . S
C2304 C2305 1.382 . S
C2304 H2329 0.950 . S
C2305 N2300 1.332 . S
C2305 C2304 1.382 . S
C2305 H2315 0.948 . S
N2306 Co2284 2.282 . S
N2306 C2310 1.332 . S
N2306 C2311 1.332 . S
C2307 C2308 1.388 . S
C2307 C2311 1.382 . S
C2307 H2330 0.950 . S
C2308 C2307 1.388 . S
C2308 C2309 1.386 . S
C2309 C2308 1.386 . S
C2309 C2310 1.382 . S
C2309 H2331 0.950 . S
C2310 N2306 1.332 . S
C2310 C2309 1.382 . S
C2310 H2312 0.952 . S
C2311 N2306 1.332 . S
C2311 C2307 1.382 . S
C2311 H2313 0.948 . S
H2312 C2310 0.952 . S
H2313 C2311 0.948 . S
H2314 C2303 0.952 . S
H2315 C2305 0.948 . S
C2316 C2282 1.395 . S
C2316 C2286 1.391 . S
C2317 C2279 1.389 . S
C2317 C2299 1.392 . S
C2318 C2289 1.392 . S
C2318 C2291 1.389 . S
C2319 C2294 1.395 . S
C2319 C2296 1.391 . S
H2320 C2280 0.951 . S
H2321 C2281 0.950 . S
H2322 C2287 0.949 . S
H2323 C2288 0.950 . S
H2324 C2292 0.951 . S
H2325 C2293 0.950 . S
H2326 C2297 0.949 . S
H2327 C2298 0.950 . S
H2328 C2302 0.950 . S
H2329 C2304 0.950 . S
H2330 C2307 0.950 . S
H2331 C2309 0.950 . S
C2332 C2333 1.443 . S
C2332 N2336 1.376 . S
C2332 C2370 1.389 . S
C2333 C2332 1.443 . S
C2333 C2334 1.340 . S
C2333 H2373 0.951 . S
C2334 C2333 1.340 . S
C2334 C2335 1.439 . S
C2334 H2374 0.950 . S
C2335 C2334 1.439 . S
C2335 N2336 1.374 . S
C2335 C2369 1.395 . S
N2336 C2332 1.376 . S
N2336 C2335 1.374 . S
N2336 Co2337 2.008 . S
Co2337 N2336 2.008 . S
Co2337 N2338 1.995 . S
Co2337 N2343 2.008 . S
Co2337 N2348 1.995 . S
Co2337 N2353 2.282 . S
Co2337 N2359 2.282 . S
N2338 Co2337 1.995 . S
N2338 C2339 1.376 . S
N2338 C2342 1.383 . S
C2339 N2338 1.376 . S
C2339 C2340 1.446 . S
C2339 C2369 1.391 . S
C2340 C2339 1.446 . S
C2340 C2341 1.339 . S
C2340 H2375 0.949 . S
C2341 C2340 1.339 . S
C2341 C2342 1.439 . S
C2341 H2376 0.950 . S
C2342 N2338 1.383 . S
C2342 C2341 1.439 . S
C2342 C2371 1.392 . S
N2343 Co2337 2.008 . S
N2343 C2344 1.376 . S
N2343 C2347 1.374 . S
C2344 N2343 1.376 . S
C2344 C2345 1.443 . S
C2344 C2371 1.389 . S
C2345 C2344 1.443 . S
C2345 C2346 1.340 . S
C2345 H2377 0.951 . S
C2346 C2345 1.340 . S
C2346 C2347 1.439 . S
C2346 H2378 0.950 . S
C2347 N2343 1.374 . S
C2347 C2346 1.439 . S
C2347 C2372 1.395 . S
N2348 Co2337 1.995 . S
N2348 C2349 1.376 . S
N2348 C2352 1.383 . S
C2349 N2348 1.376 . S
C2349 C2350 1.446 . S
C2349 C2372 1.391 . S
C2350 C2349 1.446 . S
C2350 C2351 1.339 . S
C2350 H2379 0.949 . S
C2351 C2350 1.339 . S
C2351 C2352 1.439 . S
C2351 H2380 0.950 . S
C2352 N2348 1.383 . S
C2352 C2351 1.439 . S
C2352 C2370 1.392 . S
N2353 Co2337 2.282 . S
N2353 C2356 1.332 . S
N2353 C2358 1.332 . S
C2354 C2355 1.386 . S
C2354 C2357 1.388 . S
C2355 C2354 1.386 . S
C2355 C2356 1.382 . S
C2355 H2381 0.950 . S
C2356 N2353 1.332 . S
C2356 C2355 1.382 . S
C2356 H2367 0.952 . S
C2357 C2354 1.388 . S
C2357 C2358 1.382 . S
C2357 H2382 0.950 . S
C2358 N2353 1.332 . S
C2358 C2357 1.382 . S
C2358 H2368 0.948 . S
N2359 Co2337 2.282 . S
N2359 C2363 1.332 . S
N2359 C2364 1.332 . S
C2360 C2361 1.388 . S
C2360 C2364 1.382 . S
C2360 H2383 0.950 . S
C2361 C2360 1.388 . S
C2361 C2362 1.386 . S
C2362 C2361 1.386 . S
C2362 C2363 1.382 . S
C2362 H2384 0.950 . S
C2363 N2359 1.332 . S
C2363 C2362 1.382 . S
C2363 H2365 0.952 . S
C2364 N2359 1.332 . S
C2364 C2360 1.382 . S
C2364 H2366 0.948 . S
H2365 C2363 0.952 . S
H2366 C2364 0.948 . S
H2367 C2356 0.952 . S
H2368 C2358 0.948 . S
C2369 C2335 1.395 . S
C2369 C2339 1.391 . S
C2370 C2332 1.389 . S
C2370 C2352 1.392 . S
C2371 C2342 1.392 . S
C2371 C2344 1.389 . S
C2372 C2347 1.395 . S
C2372 C2349 1.391 . S
H2373 C2333 0.951 . S
H2374 C2334 0.950 . S
H2375 C2340 0.949 . S
H2376 C2341 0.950 . S
H2377 C2345 0.951 . S
H2378 C2346 0.950 . S
H2379 C2350 0.949 . S
H2380 C2351 0.950 . S
H2381 C2355 0.950 . S
H2382 C2357 0.950 . S
H2383 C2360 0.950 . S
H2384 C2362 0.950 . S
C2385 C2386 1.443 . S
C2385 N2389 1.376 . S
C2385 C2423 1.389 . S
C2386 C2385 1.443 . S
C2386 C2387 1.340 . S
C2386 H2426 0.951 . S
C2387 C2386 1.340 . S
C2387 C2388 1.439 . S
C2387 H2427 0.950 . S
C2388 C2387 1.439 . S
C2388 N2389 1.374 . S
C2388 C2422 1.395 . S
N2389 C2385 1.376 . S
N2389 C2388 1.374 . S
N2389 Co2390 2.008 . S
Co2390 N2389 2.008 . S
Co2390 N2391 1.995 . S
Co2390 N2396 2.008 . S
Co2390 N2401 1.995 . S
Co2390 N2406 2.282 . S
Co2390 N2412 2.282 . S
N2391 Co2390 1.995 . S
N2391 C2392 1.376 . S
N2391 C2395 1.383 . S
C2392 N2391 1.376 . S
C2392 C2393 1.446 . S
C2392 C2422 1.391 . S
C2393 C2392 1.446 . S
C2393 C2394 1.339 . S
C2393 H2428 0.949 . S
C2394 C2393 1.339 . S
C2394 C2395 1.439 . S
C2394 H2429 0.950 . S
C2395 N2391 1.383 . S
C2395 C2394 1.439 . S
C2395 C2424 1.392 . S
N2396 Co2390 2.008 . S
N2396 C2397 1.376 . S
N2396 C2400 1.374 . S
C2397 N2396 1.376 . S
C2397 C2398 1.443 . S
C2397 C2424 1.389 . S
C2398 C2397 1.443 . S
C2398 C2399 1.340 . S
C2398 H2430 0.951 . S
C2399 C2398 1.340 . S
C2399 C2400 1.439 . S
C2399 H2431 0.950 . S
C2400 N2396 1.374 . S
C2400 C2399 1.439 . S
C2400 C2425 1.395 . S
N2401 Co2390 1.995 . S
N2401 C2402 1.376 . S
N2401 C2405 1.383 . S
C2402 N2401 1.376 . S
C2402 C2403 1.446 . S
C2402 C2425 1.391 . S
C2403 C2402 1.446 . S
C2403 C2404 1.339 . S
C2403 H2432 0.949 . S
C2404 C2403 1.339 . S
C2404 C2405 1.439 . S
C2404 H2433 0.950 . S
C2405 N2401 1.383 . S
C2405 C2404 1.439 . S
C2405 C2423 1.392 . S
N2406 Co2390 2.282 . S
N2406 C2409 1.332 . S
N2406 C2411 1.332 . S
C2407 C2408 1.386 . S
C2407 C2410 1.388 . S
C2408 C2407 1.386 . S
C2408 C2409 1.382 . S
C2408 H2434 0.950 . S
C2409 N2406 1.332 . S
C2409 C2408 1.382 . S
C2409 H2420 0.952 . S
C2410 C2407 1.388 . S
C2410 C2411 1.382 . S
C2410 H2435 0.950 . S
C2411 N2406 1.332 . S
C2411 C2410 1.382 . S
C2411 H2421 0.948 . S
N2412 Co2390 2.282 . S
N2412 C2416 1.332 . S
N2412 C2417 1.332 . S
C2413 C2414 1.388 . S
C2413 C2417 1.382 . S
C2413 H2436 0.950 . S
C2414 C2413 1.388 . S
C2414 C2415 1.386 . S
C2415 C2414 1.386 . S
C2415 C2416 1.382 . S
C2415 H2437 0.950 . S
C2416 N2412 1.332 . S
C2416 C2415 1.382 . S
C2416 H2418 0.952 . S
C2417 N2412 1.332 . S
C2417 C2413 1.382 . S
C2417 H2419 0.948 . S
H2418 C2416 0.952 . S
H2419 C2417 0.948 . S
H2420 C2409 0.952 . S
H2421 C2411 0.948 . S
C2422 C2388 1.395 . S
C2422 C2392 1.391 . S
C2423 C2385 1.389 . S
C2423 C2405 1.392 . S
C2424 C2395 1.392 . S
C2424 C2397 1.389 . S
C2425 C2400 1.395 . S
C2425 C2402 1.391 . S
H2426 C2386 0.951 . S
H2427 C2387 0.950 . S
H2428 C2393 0.949 . S
H2429 C2394 0.950 . S
H2430 C2398 0.951 . S
H2431 C2399 0.950 . S
H2432 C2403 0.949 . S
H2433 C2404 0.950 . S
H2434 C2408 0.950 . S
H2435 C2410 0.950 . S
H2436 C2413 0.950 . S
H2437 C2415 0.950 . S
C2438 C2439 1.443 1_556 S
C2438 N2442 1.376 1_545 S
C2438 C2476 1.389 . S
C2439 C2438 1.443 1_554 S
C2439 C2440 1.340 1_545 S
C2439 H2479 0.951 . S
C2440 C2439 1.340 1_565 S
C2440 C2441 1.439 1_554 S
C2440 H2480 0.950 . S
C2441 C2440 1.439 1_556 S
C2441 N2442 1.374 . S
C2441 C2475 1.395 . S
N2442 C2438 1.376 1_565 S
N2442 C2441 1.374 . S
N2442 Co2443 2.008 . S
Co2443 N2442 2.008 . S
Co2443 N2444 1.995 . S
Co2443 N2449 2.008 . S
Co2443 N2454 1.995 . S
Co2443 N2459 2.282 1_565 S
Co2443 N2465 2.282 . S
N2444 Co2443 1.995 . S
N2444 C2445 1.376 . S
N2444 C2448 1.383 . S
C2445 N2444 1.376 . S
C2445 C2446 1.446 . S
C2445 C2475 1.391 . S
C2446 C2445 1.446 . S
C2446 C2447 1.339 . S
C2446 H2481 0.949 . S
C2447 C2446 1.339 . S
C2447 C2448 1.439 . S
C2447 H2482 0.950 . S
C2448 N2444 1.383 . S
C2448 C2447 1.439 . S
C2448 C2477 1.392 . S
N2449 Co2443 2.008 . S
N2449 C2450 1.376 . S
N2449 C2453 1.374 . S
C2450 N2449 1.376 . S
C2450 C2451 1.443 . S
C2450 C2477 1.389 . S
C2451 C2450 1.443 . S
C2451 C2452 1.340 . S
C2451 H2483 0.951 . S
C2452 C2451 1.340 . S
C2452 C2453 1.439 . S
C2452 H2484 0.950 . S
C2453 N2449 1.374 . S
C2453 C2452 1.439 . S
C2453 C2478 1.395 . S
N2454 Co2443 1.995 . S
N2454 C2455 1.376 1_565 S
N2454 C2458 1.383 1_565 S
C2455 N2454 1.376 1_545 S
C2455 C2456 1.446 . S
C2455 C2478 1.391 1_545 S
C2456 C2455 1.446 . S
C2456 C2457 1.339 . S
C2456 H2485 0.949 . S
C2457 C2456 1.339 . S
C2457 C2458 1.439 . S
C2457 H2486 0.950 . S
C2458 N2454 1.383 1_545 S
C2458 C2457 1.439 . S
C2458 C2476 1.392 . S
N2459 Co2443 2.282 1_545 S
N2459 C2462 1.332 . S
N2459 C2464 1.333 . S
C2460 C2461 1.386 . S
C2460 C2463 1.388 . S
C2461 C2460 1.386 . S
C2461 C2462 1.382 . S
C2461 H2487 0.950 . S
C2462 N2459 1.332 . S
C2462 C2461 1.382 . S
C2462 H2473 0.952 . S
C2463 C2460 1.388 . S
C2463 C2464 1.390 . S
C2463 H2488 0.950 . S
C2464 N2459 1.333 . S
C2464 C2463 1.390 . S
C2464 H2474 0.939 1_545 S
N2465 Co2443 2.282 . S
N2465 C2469 1.332 . S
N2465 C2470 1.332 . S
C2466 C2467 1.388 . S
C2466 C2470 1.382 . S
C2466 H2489 0.950 . S
C2467 C2466 1.388 . S
C2467 C2468 1.386 . S
C2468 C2467 1.386 . S
C2468 C2469 1.383 . S
C2468 H2490 0.948 1_556 S
C2469 N2465 1.332 . S
C2469 C2468 1.383 . S
C2469 H2471 0.952 . S
C2470 N2465 1.332 . S
C2470 C2466 1.382 . S
C2470 H2472 0.948 . S
H2471 C2469 0.952 . S
H2472 C2470 0.948 . S
H2473 C2462 0.952 . S
H2474 C2464 0.939 1_565 S
C2475 C2441 1.395 . S
C2475 C2445 1.391 . S
C2476 C2438 1.389 . S
C2476 C2458 1.392 . S
C2477 C2448 1.392 . S
C2477 C2450 1.389 . S
C2478 C2453 1.395 . S
C2478 C2455 1.391 1_565 S
H2479 C2439 0.951 . S
H2480 C2440 0.950 . S
H2481 C2446 0.949 . S
H2482 C2447 0.950 . S
H2483 C2451 0.951 . S
H2484 C2452 0.950 . S
H2485 C2456 0.949 . S
H2486 C2457 0.950 . S
H2487 C2461 0.950 . S
H2488 C2463 0.950 . S
H2489 C2466 0.950 . S
H2490 C2468 0.948 1_554 S
C2491 C2492 1.443 . S
C2491 N2495 1.376 1_565 S
C2491 C2529 1.389 . S
C2492 C2491 1.443 . S
C2492 C2493 1.340 1_565 S
C2492 H2532 0.951 . S
C2493 C2492 1.340 1_545 S
C2493 C2494 1.439 . S
C2493 H2533 0.950 . S
C2494 C2493 1.439 . S
C2494 N2495 1.374 . S
C2494 C2528 1.395 . S
N2495 C2491 1.376 1_545 S
N2495 C2494 1.374 . S
N2495 Co2496 2.008 . S
Co2496 N2495 2.008 . S
Co2496 N2497 1.995 . S
Co2496 N2502 2.008 . S
Co2496 N2507 1.995 . S
Co2496 N2512 2.282 1_545 S
Co2496 N2518 2.282 . S
N2497 Co2496 1.995 . S
N2497 C2498 1.376 . S
N2497 C2501 1.383 . S
C2498 N2497 1.376 . S
C2498 C2499 1.446 . S
C2498 C2528 1.391 . S
C2499 C2498 1.446 . S
C2499 C2500 1.339 . S
C2499 H2534 0.949 . S
C2500 C2499 1.339 . S
C2500 C2501 1.439 . S
C2500 H2535 0.950 . S
C2501 N2497 1.383 . S
C2501 C2500 1.439 . S
C2501 C2530 1.392 . S
N2502 Co2496 2.008 . S
N2502 C2503 1.376 . S
N2502 C2506 1.374 . S
C2503 N2502 1.376 . S
C2503 C2504 1.443 . S
C2503 C2530 1.389 . S
C2504 C2503 1.443 . S
C2504 C2505 1.340 . S
C2504 H2536 0.951 . S
C2505 C2504 1.340 . S
C2505 C2506 1.439 . S
C2505 H2537 0.950 . S
C2506 N2502 1.374 . S
C2506 C2505 1.439 . S
C2506 C2531 1.395 . S
N2507 Co2496 1.995 . S
N2507 C2508 1.376 1_545 S
N2507 C2511 1.383 1_545 S
C2508 N2507 1.376 1_565 S
C2508 C2509 1.446 . S
C2508 C2531 1.391 1_565 S
C2509 C2508 1.446 . S
C2509 C2510 1.339 . S
C2509 H2538 0.949 . S
C2510 C2509 1.339 . S
C2510 C2511 1.439 . S
C2510 H2539 0.950 . S
C2511 N2507 1.383 1_565 S
C2511 C2510 1.439 . S
C2511 C2529 1.392 . S
N2512 Co2496 2.282 1_565 S
N2512 C2515 1.332 . S
N2512 C2517 1.333 . S
C2513 C2514 1.386 . S
C2513 C2516 1.388 . S
C2514 C2513 1.386 . S
C2514 C2515 1.382 . S
C2514 H2540 0.950 . S
C2515 N2512 1.332 . S
C2515 C2514 1.382 . S
C2515 H2526 0.952 . S
C2516 C2513 1.388 . S
C2516 C2517 1.390 . S
C2516 H2541 0.950 . S
C2517 N2512 1.333 . S
C2517 C2516 1.390 . S
C2517 H2527 0.939 1_565 S
N2518 Co2496 2.282 . S
N2518 C2522 1.332 . S
N2518 C2523 1.332 . S
C2519 C2520 1.388 . S
C2519 C2523 1.382 . S
C2519 H2542 0.950 . S
C2520 C2519 1.388 . S
C2520 C2521 1.386 . S
C2521 C2520 1.386 . S
C2521 C2522 1.382 . S
C2521 H2543 0.950 . S
C2522 N2518 1.332 . S
C2522 C2521 1.382 . S
C2522 H2524 0.952 . S
C2523 N2518 1.332 . S
C2523 C2519 1.382 . S
C2523 H2525 0.948 . S
H2524 C2522 0.952 . S
H2525 C2523 0.948 . S
H2526 C2515 0.952 . S
H2527 C2517 0.939 1_545 S
C2528 C2494 1.395 . S
C2528 C2498 1.391 . S
C2529 C2491 1.389 . S
C2529 C2511 1.392 . S
C2530 C2501 1.392 . S
C2530 C2503 1.389 . S
C2531 C2506 1.395 . S
C2531 C2508 1.391 1_545 S
H2532 C2492 0.951 . S
H2533 C2493 0.950 . S
H2534 C2499 0.949 . S
H2535 C2500 0.950 . S
H2536 C2504 0.951 . S
H2537 C2505 0.950 . S
H2538 C2509 0.949 . S
H2539 C2510 0.950 . S
H2540 C2514 0.950 . S
H2541 C2516 0.950 . S
H2542 C2519 0.950 . S
H2543 C2521 0.950 . S
C2544 C2545 1.369 . S
C2544 C2546 1.419 . S
C2544 H2548 0.930 . S
C2545 C2544 1.369 . S
C2545 C2554 1.429 . S
C2546 C2544 1.419 . S
C2546 C2547 1.363 . S
C2546 H2549 0.929 . S
C2547 C2546 1.363 . S
C2547 C2553 1.428 . S
H2548 C2544 0.930 . S
H2549 C2546 0.929 . S
S2550 N2551 1.613 . S
S2550 N2552 1.610 . S
N2551 S2550 1.613 . S
N2551 C2554 1.350 . S
N2552 S2550 1.610 . S
N2552 C2553 1.351 . S
C2553 C2547 1.428 . S
C2553 N2552 1.351 . S
C2553 C2554 1.434 . S
C2554 C2545 1.429 . S
C2554 N2551 1.350 . S
C2554 C2553 1.434 . S
C2555 C2556 1.369 . S
C2555 C2557 1.419 . S
C2555 H2559 0.930 . S
C2556 C2555 1.369 . S
C2556 C2565 1.429 . S
C2557 C2555 1.419 . S
C2557 C2558 1.363 . S
C2557 H2560 0.929 . S
C2558 C2557 1.363 . S
C2558 C2564 1.428 . S
H2559 C2555 0.930 . S
H2560 C2557 0.929 . S
S2561 N2562 1.613 . S
S2561 N2563 1.610 . S
N2562 S2561 1.613 . S
N2562 C2565 1.350 . S
N2563 S2561 1.610 . S
N2563 C2564 1.351 . S
C2564 C2558 1.428 . S
C2564 N2563 1.351 . S
C2564 C2565 1.434 . S
C2565 C2556 1.429 . S
C2565 N2562 1.350 . S
C2565 C2564 1.434 . S
C2566 C2567 1.369 . S
C2566 C2568 1.419 1_554 S
C2566 H2570 0.930 . S
C2567 C2566 1.369 . S
C2567 C2576 1.429 1_554 S
C2568 C2566 1.419 1_556 S
C2568 C2569 1.363 . S
C2568 H2571 0.929 . S
C2569 C2568 1.363 . S
C2569 C2575 1.428 . S
H2570 C2566 0.930 . S
H2571 C2568 0.929 . S
S2572 N2573 1.642 . S
S2572 N2574 1.610 . S
N2573 S2572 1.642 . S
N2573 C2576 1.353 . S
N2574 S2572 1.610 . S
N2574 C2575 1.351 . S
C2575 C2569 1.428 . S
C2575 N2574 1.351 . S
C2575 C2576 1.434 . S
C2576 C2567 1.429 1_556 S
C2576 N2573 1.353 . S
C2576 C2575 1.434 . S
C2577 C2578 1.369 . S
C2577 C2579 1.419 . S
C2577 H2581 0.930 . S
C2578 C2577 1.369 . S
C2578 C2587 1.429 . S
C2579 C2577 1.419 . S
C2579 C2580 1.363 . S
C2579 H2582 0.929 . S
C2580 C2579 1.363 . S
C2580 C2586 1.428 . S
H2581 C2577 0.930 . S
H2582 C2579 0.929 . S
S2583 N2584 1.613 . S
S2583 N2585 1.610 . S
N2584 S2583 1.613 . S
N2584 C2587 1.350 . S
N2585 S2583 1.610 . S
N2585 C2586 1.351 . S
C2586 C2580 1.428 . S
C2586 N2585 1.351 . S
C2586 C2587 1.434 . S
C2587 C2578 1.429 . S
C2587 N2584 1.350 . S
C2587 C2586 1.434 . S
C2588 C2589 1.369 . S
C2588 C2590 1.419 1_554 S
C2588 H2592 0.930 . S
C2589 C2588 1.369 . S
C2589 C2598 1.429 . S
C2590 C2588 1.419 1_556 S
C2590 C2591 1.363 . S
C2590 H2593 0.929 . S
C2591 C2590 1.363 . S
C2591 C2597 1.428 1_556 S
H2592 C2588 0.930 . S
H2593 C2590 0.929 . S
S2594 N2595 1.613 . S
S2594 N2596 1.610 . S
N2595 S2594 1.613 . S
N2595 C2598 1.350 . S
N2596 S2594 1.610 . S
N2596 C2597 1.351 . S
C2597 C2591 1.428 1_554 S
C2597 N2596 1.351 . S
C2597 C2598 1.434 . S
C2598 C2589 1.429 . S
C2598 N2595 1.350 . S
C2598 C2597 1.434 . S
C2599 C2600 1.369 . S
C2599 C2601 1.419 . S
C2599 H2603 0.930 . S
C2600 C2599 1.369 . S
C2600 C2609 1.429 . S
C2601 C2599 1.419 . S
C2601 C2602 1.363 . S
C2601 H2604 0.929 . S
C2602 C2601 1.363 . S
C2602 C2608 1.428 . S
H2603 C2599 0.930 . S
H2604 C2601 0.929 . S
S2605 N2606 1.613 . S
S2605 N2607 1.610 . S
N2606 S2605 1.613 . S
N2606 C2609 1.350 . S
N2607 S2605 1.610 . S
N2607 C2608 1.351 . S
C2608 C2602 1.428 . S
C2608 N2607 1.351 . S
C2608 C2609 1.434 . S
C2609 C2600 1.429 . S
C2609 N2606 1.350 . S
C2609 C2608 1.434 . S
C2610 C2611 1.369 . S
C2610 C2612 1.419 . S
C2610 H2614 0.930 . S
C2611 C2610 1.369 . S
C2611 C2620 1.429 . S
C2612 C2610 1.419 . S
C2612 C2613 1.363 . S
C2612 H2615 0.929 . S
C2613 C2612 1.363 . S
C2613 C2619 1.428 . S
H2614 C2610 0.930 . S
H2615 C2612 0.929 . S
S2616 N2617 1.613 . S
S2616 N2618 1.610 . S
N2617 S2616 1.613 . S
N2617 C2620 1.350 . S
N2618 S2616 1.610 . S
N2618 C2619 1.351 . S
C2619 C2613 1.428 . S
C2619 N2618 1.351 . S
C2619 C2620 1.434 . S
C2620 C2611 1.429 . S
C2620 N2617 1.350 . S
C2620 C2619 1.434 . S
C2621 C2622 1.369 . S
C2621 C2623 1.419 . S
C2621 H2625 0.930 . S
C2622 C2621 1.369 . S
C2622 C2631 1.429 . S
C2623 C2621 1.419 . S
C2623 C2624 1.363 . S
C2623 H2626 0.929 . S
C2624 C2623 1.363 . S
C2624 C2630 1.428 . S
H2625 C2621 0.930 . S
H2626 C2623 0.929 . S
S2627 N2628 1.613 . S
S2627 N2629 1.610 . S
N2628 S2627 1.613 . S
N2628 C2631 1.350 . S
N2629 S2627 1.610 . S
N2629 C2630 1.351 . S
C2630 C2624 1.428 . S
C2630 N2629 1.351 . S
C2630 C2631 1.434 . S
C2631 C2622 1.429 . S
C2631 N2628 1.350 . S
C2631 C2630 1.434 . S
C2632 C2633 1.369 . S
C2632 C2634 1.419 . S
C2632 H2636 0.930 . S
C2633 C2632 1.369 . S
C2633 C2642 1.429 . S
C2634 C2632 1.419 . S
C2634 C2635 1.363 . S
C2634 H2637 0.929 . S
C2635 C2634 1.363 . S
C2635 C2641 1.428 . S
H2636 C2632 0.930 . S
H2637 C2634 0.929 . S
S2638 N2639 1.613 . S
S2638 N2640 1.610 . S
N2639 S2638 1.613 . S
N2639 C2642 1.350 . S
N2640 S2638 1.610 . S
N2640 C2641 1.351 . S
C2641 C2635 1.428 . S
C2641 N2640 1.351 . S
C2641 C2642 1.434 . S
C2642 C2633 1.429 . S
C2642 N2639 1.350 . S
C2642 C2641 1.434 . S
C2643 C2644 1.369 . S
C2643 C2645 1.419 . S
C2643 H2647 0.930 . S
C2644 C2643 1.369 . S
C2644 C2653 1.429 . S
C2645 C2643 1.419 . S
C2645 C2646 1.363 . S
C2645 H2648 0.929 . S
C2646 C2645 1.363 . S
C2646 C2652 1.428 . S
H2647 C2643 0.930 . S
H2648 C2645 0.929 . S
S2649 N2650 1.613 . S
S2649 N2651 1.610 . S
N2650 S2649 1.613 . S
N2650 C2653 1.350 . S
N2651 S2649 1.610 . S
N2651 C2652 1.351 . S
C2652 C2646 1.428 . S
C2652 N2651 1.351 . S
C2652 C2653 1.434 . S
C2653 C2644 1.429 . S
C2653 N2650 1.350 . S
C2653 C2652 1.434 . S
C2654 C2655 1.369 . S
C2654 C2656 1.419 . S
C2654 H2658 0.930 . S
C2655 C2654 1.369 . S
C2655 C2664 1.429 . S
C2656 C2654 1.419 . S
C2656 C2657 1.363 . S
C2656 H2659 0.929 . S
C2657 C2656 1.363 . S
C2657 C2663 1.428 . S
H2658 C2654 0.930 . S
H2659 C2656 0.929 . S
S2660 N2661 1.613 . S
S2660 N2662 1.610 . S
N2661 S2660 1.613 . S
N2661 C2664 1.350 . S
N2662 S2660 1.610 . S
N2662 C2663 1.351 . S
C2663 C2657 1.428 . S
C2663 N2662 1.351 . S
C2663 C2664 1.434 . S
C2664 C2655 1.429 . S
C2664 N2661 1.350 . S
C2664 C2663 1.434 . S
C2665 C2666 1.369 . S
C2665 C2667 1.419 . S
C2665 H2669 0.930 . S
C2666 C2665 1.369 . S
C2666 C2675 1.429 . S
C2667 C2665 1.419 . S
C2667 C2668 1.363 . S
C2667 H2670 0.929 . S
C2668 C2667 1.363 . S
C2668 C2674 1.428 . S
H2669 C2665 0.930 . S
H2670 C2667 0.929 . S
S2671 N2672 1.613 . S
S2671 N2673 1.610 . S
N2672 S2671 1.613 . S
N2672 C2675 1.350 . S
N2673 S2671 1.610 . S
N2673 C2674 1.351 . S
C2674 C2668 1.428 . S
C2674 N2673 1.351 . S
C2674 C2675 1.434 . S
C2675 C2666 1.429 . S
C2675 N2672 1.350 . S
C2675 C2674 1.434 . S
C2676 C2677 1.369 . S
C2676 C2678 1.419 . S
C2676 H2680 0.930 . S
C2677 C2676 1.369 . S
C2677 C2686 1.429 . S
C2678 C2676 1.419 . S
C2678 C2679 1.363 . S
C2678 H2681 0.929 . S
C2679 C2678 1.363 . S
C2679 C2685 1.428 . S
H2680 C2676 0.930 . S
H2681 C2678 0.929 . S
S2682 N2683 1.613 . S
S2682 N2684 1.610 . S
N2683 S2682 1.613 . S
N2683 C2686 1.350 . S
N2684 S2682 1.610 . S
N2684 C2685 1.351 . S
C2685 C2679 1.428 . S
C2685 N2684 1.351 . S
C2685 C2686 1.434 . S
C2686 C2677 1.429 . S
C2686 N2683 1.350 . S
C2686 C2685 1.434 . S
C2687 C2688 1.369 . S
C2687 C2689 1.419 . S
C2687 H2691 0.930 . S
C2688 C2687 1.369 . S
C2688 C2697 1.429 . S
C2689 C2687 1.419 . S
C2689 C2690 1.363 . S
C2689 H2692 0.929 . S
C2690 C2689 1.363 . S
C2690 C2696 1.428 . S
H2691 C2687 0.930 . S
H2692 C2689 0.929 . S
S2693 N2694 1.613 . S
S2693 N2695 1.610 . S
N2694 S2693 1.613 . S
N2694 C2697 1.350 . S
N2695 S2693 1.610 . S
N2695 C2696 1.351 . S
C2696 C2690 1.428 . S
C2696 N2695 1.351 . S
C2696 C2697 1.434 . S
C2697 C2688 1.429 . S
C2697 N2694 1.350 . S
C2697 C2696 1.434 . S
C2698 C2699 1.369 . S
C2698 C2700 1.419 . S
C2698 H2702 0.930 . S
C2699 C2698 1.369 . S
C2699 C2708 1.429 . S
C2700 C2698 1.419 . S
C2700 C2701 1.363 . S
C2700 H2703 0.929 . S
C2701 C2700 1.363 . S
C2701 C2707 1.428 . S
H2702 C2698 0.930 . S
H2703 C2700 0.929 . S
S2704 N2705 1.613 . S
S2704 N2706 1.610 . S
N2705 S2704 1.613 . S
N2705 C2708 1.350 . S
N2706 S2704 1.610 . S
N2706 C2707 1.351 . S
C2707 C2701 1.428 . S
C2707 N2706 1.351 . S
C2707 C2708 1.434 . S
C2708 C2699 1.429 . S
C2708 N2705 1.350 . S
C2708 C2707 1.434 . S
C2709 C2710 1.369 1_556 S
C2709 C2711 1.419 . S
C2709 H2713 0.930 . S
C2710 C2709 1.369 1_554 S
C2710 C2719 1.429 . S
C2711 C2709 1.419 . S
C2711 C2712 1.363 . S
C2711 H2714 0.929 . S
C2712 C2711 1.363 . S
C2712 C2718 1.428 . S
H2713 C2709 0.930 . S
H2714 C2711 0.929 . S
S2715 N2716 1.613 . S
S2715 N2717 1.610 . S
N2716 S2715 1.613 . S
N2716 C2719 1.350 . S
N2717 S2715 1.610 . S
N2717 C2718 1.351 1_554 S
C2718 C2712 1.428 . S
C2718 N2717 1.351 1_556 S
C2718 C2719 1.434 1_556 S
C2719 C2710 1.429 . S
C2719 N2716 1.350 . S
C2719 C2718 1.434 1_554 S
C2720 C2721 1.369 . S
C2720 C2722 1.419 . S
C2720 H2724 0.930 . S
C2721 C2720 1.369 . S
C2721 C2730 1.429 . S
C2722 C2720 1.419 . S
C2722 C2723 1.363 . S
C2722 H2725 0.929 . S
C2723 C2722 1.363 . S
C2723 C2729 1.428 . S
H2724 C2720 0.930 . S
H2725 C2722 0.929 . S
S2726 N2727 1.613 . S
S2726 N2728 1.610 . S
N2727 S2726 1.613 . S
N2727 C2730 1.350 . S
N2728 S2726 1.610 . S
N2728 C2729 1.351 . S
C2729 C2723 1.428 . S
C2729 N2728 1.351 . S
C2729 C2730 1.434 . S
C2730 C2721 1.429 . S
C2730 N2727 1.350 . S
C2730 C2729 1.434 . S
C2731 C2732 1.369 . S
C2731 C2733 1.419 . S
C2731 H2735 0.930 . S
C2732 C2731 1.369 . S
C2732 C2741 1.429 . S
C2733 C2731 1.419 . S
C2733 C2734 1.363 . S
C2733 H2736 0.929 . S
C2734 C2733 1.363 . S
C2734 C2740 1.428 . S
H2735 C2731 0.930 . S
H2736 C2733 0.929 . S
S2737 N2738 1.613 . S
S2737 N2739 1.610 . S
N2738 S2737 1.613 . S
N2738 C2741 1.350 . S
N2739 S2737 1.610 . S
N2739 C2740 1.351 . S
C2740 C2734 1.428 . S
C2740 N2739 1.351 . S
C2740 C2741 1.434 . S
C2741 C2732 1.429 . S
C2741 N2738 1.350 . S
C2741 C2740 1.434 . S
C2742 C2743 1.369 . S
C2742 C2744 1.419 . S
C2742 H2746 0.930 . S
C2743 C2742 1.369 . S
C2743 C2752 1.429 . S
C2744 C2742 1.419 . S
C2744 C2745 1.363 . S
C2744 H2747 0.929 . S
C2745 C2744 1.363 . S
C2745 C2751 1.428 . S
H2746 C2742 0.930 . S
H2747 C2744 0.929 . S
S2748 N2749 1.613 . S
S2748 N2750 1.610 . S
N2749 S2748 1.613 . S
N2749 C2752 1.350 . S
N2750 S2748 1.610 . S
N2750 C2751 1.351 . S
C2751 C2745 1.428 . S
C2751 N2750 1.351 . S
C2751 C2752 1.434 . S
C2752 C2743 1.429 . S
C2752 N2749 1.350 . S
C2752 C2751 1.434 . S
C2753 C2754 1.369 . S
C2753 C2755 1.419 . S
C2753 H2757 0.930 . S
C2754 C2753 1.369 . S
C2754 C2763 1.429 . S
C2755 C2753 1.419 . S
C2755 C2756 1.363 . S
C2755 H2758 0.929 . S
C2756 C2755 1.363 . S
C2756 C2762 1.428 . S
H2757 C2753 0.930 . S
H2758 C2755 0.929 . S
S2759 N2760 1.613 . S
S2759 N2761 1.610 . S
N2760 S2759 1.613 . S
N2760 C2763 1.350 . S
N2761 S2759 1.610 . S
N2761 C2762 1.351 . S
C2762 C2756 1.428 . S
C2762 N2761 1.351 . S
C2762 C2763 1.434 . S
C2763 C2754 1.429 . S
C2763 N2760 1.350 . S
C2763 C2762 1.434 . S
C2764 C2765 1.369 . S
C2764 C2766 1.419 . S
C2764 H2768 0.930 . S
C2765 C2764 1.369 . S
C2765 C2774 1.429 . S
C2766 C2764 1.419 . S
C2766 C2767 1.363 . S
C2766 H2769 0.929 . S
C2767 C2766 1.363 . S
C2767 C2773 1.428 . S
H2768 C2764 0.930 . S
H2769 C2766 0.929 . S
S2770 N2771 1.613 . S
S2770 N2772 1.610 . S
N2771 S2770 1.613 . S
N2771 C2774 1.350 . S
N2772 S2770 1.610 . S
N2772 C2773 1.351 . S
C2773 C2767 1.428 . S
C2773 N2772 1.351 . S
C2773 C2774 1.434 . S
C2774 C2765 1.429 . S
C2774 N2771 1.350 . S
C2774 C2773 1.434 . S
C2775 C2776 1.369 . S
C2775 C2777 1.419 1_554 S
C2775 H2779 0.930 . S
C2776 C2775 1.369 . S
C2776 C2785 1.429 . S
C2777 C2775 1.419 1_556 S
C2777 C2778 1.363 . S
C2777 H2780 0.929 . S
C2778 C2777 1.363 . S
C2778 C2784 1.428 1_556 S
H2779 C2775 0.930 . S
H2780 C2777 0.929 . S
S2781 N2782 1.613 . S
S2781 N2783 1.610 . S
N2782 S2781 1.613 . S
N2782 C2785 1.350 . S
N2783 S2781 1.610 . S
N2783 C2784 1.351 . S
C2784 C2778 1.428 1_554 S
C2784 N2783 1.351 . S
C2784 C2785 1.434 . S
C2785 C2776 1.429 . S
C2785 N2782 1.350 . S
C2785 C2784 1.434 . S
C2786 C2787 1.369 . S
C2786 C2788 1.419 . S
C2786 H2790 0.930 . S
C2787 C2786 1.369 . S
C2787 C2796 1.429 . S
C2788 C2786 1.419 . S
C2788 C2789 1.363 . S
C2788 H2791 0.929 . S
C2789 C2788 1.363 . S
C2789 C2795 1.428 . S
H2790 C2786 0.930 . S
H2791 C2788 0.929 . S
S2792 N2793 1.613 . S
S2792 N2794 1.610 . S
N2793 S2792 1.613 . S
N2793 C2796 1.350 . S
N2794 S2792 1.610 . S
N2794 C2795 1.351 . S
C2795 C2789 1.428 . S
C2795 N2794 1.351 . S
C2795 C2796 1.434 . S
C2796 C2787 1.429 . S
C2796 N2793 1.350 . S
C2796 C2795 1.434 . S
C2797 C2798 1.369 . S
C2797 C2799 1.419 . S
C2797 H2801 0.930 . S
C2798 C2797 1.369 . S
C2798 C2807 1.429 . S
C2799 C2797 1.419 . S
C2799 C2800 1.363 . S
C2799 H2802 0.929 . S
C2800 C2799 1.363 . S
C2800 C2806 1.428 . S
H2801 C2797 0.930 . S
H2802 C2799 0.929 . S
S2803 N2804 1.613 . S
S2803 N2805 1.610 . S
N2804 S2803 1.613 . S
N2804 C2807 1.350 . S
N2805 S2803 1.610 . S
N2805 C2806 1.351 . S
C2806 C2800 1.428 . S
C2806 N2805 1.351 . S
C2806 C2807 1.434 . S
C2807 C2798 1.429 . S
C2807 N2804 1.350 . S
C2807 C2806 1.434 . S
C2808 C2809 1.369 . S
C2808 C2810 1.419 . S
C2808 H2812 0.930 . S
C2809 C2808 1.369 . S
C2809 C2818 1.429 . S
C2810 C2808 1.419 . S
C2810 C2811 1.363 . S
C2810 H2813 0.929 . S
C2811 C2810 1.363 . S
C2811 C2817 1.428 . S
H2812 C2808 0.930 . S
H2813 C2810 0.929 . S
S2814 N2815 1.613 . S
S2814 N2816 1.610 . S
N2815 S2814 1.613 . S
N2815 C2818 1.350 . S
N2816 S2814 1.610 . S
N2816 C2817 1.351 . S
C2817 C2811 1.428 . S
C2817 N2816 1.351 . S
C2817 C2818 1.434 . S
C2818 C2809 1.429 . S
C2818 N2815 1.350 . S
C2818 C2817 1.434 . S
C2819 C2820 1.369 . S
C2819 C2821 1.419 . S
C2819 H2823 0.932 1_565 S
C2820 C2819 1.369 . S
C2820 C2829 1.429 . S
C2821 C2819 1.419 . S
C2821 C2822 1.363 . S
C2821 H2824 0.929 . S
C2822 C2821 1.363 . S
C2822 C2828 1.428 . S
H2823 C2819 0.932 1_545 S
H2824 C2821 0.929 . S
S2825 N2826 1.613 . S
S2825 N2827 1.610 . S
N2826 S2825 1.613 . S
N2826 C2829 1.350 . S
N2827 S2825 1.610 . S
N2827 C2828 1.351 . S
C2828 C2822 1.428 . S
C2828 N2827 1.351 . S
C2828 C2829 1.434 . S
C2829 C2820 1.429 . S
C2829 N2826 1.350 . S
C2829 C2828 1.434 . S
C2830 C2831 1.369 . S
C2830 C2832 1.419 . S
C2830 H2834 0.930 . S
C2831 C2830 1.369 . S
C2831 C2840 1.429 . S
C2832 C2830 1.419 . S
C2832 C2833 1.363 . S
C2832 H2835 0.929 . S
C2833 C2832 1.363 . S
C2833 C2839 1.428 . S
H2834 C2830 0.930 . S
H2835 C2832 0.929 . S
S2836 N2837 1.613 . S
S2836 N2838 1.610 . S
N2837 S2836 1.613 . S
N2837 C2840 1.350 . S
N2838 S2836 1.610 . S
N2838 C2839 1.351 . S
C2839 C2833 1.428 . S
C2839 N2838 1.351 . S
C2839 C2840 1.434 . S
C2840 C2831 1.429 . S
C2840 N2837 1.350 . S
C2840 C2839 1.434 . S
C2841 C2842 1.369 . S
C2841 C2843 1.419 . S
C2841 H2845 0.962 . S
C2842 C2841 1.369 . S
C2842 C2851 1.429 . S
C2843 C2841 1.419 . S
C2843 C2844 1.363 . S
C2843 H2846 0.929 . S
C2844 C2843 1.363 . S
C2844 C2850 1.428 . S
H2845 C2841 0.962 . S
H2846 C2843 0.929 . S
S2847 N2848 1.613 . S
S2847 N2849 1.610 . S
N2848 S2847 1.613 . S
N2848 C2851 1.350 . S
N2849 S2847 1.610 . S
N2849 C2850 1.351 . S
C2850 C2844 1.428 . S
C2850 N2849 1.351 . S
C2850 C2851 1.434 . S
C2851 C2842 1.429 . S
C2851 N2848 1.350 . S
C2851 C2850 1.434 . S
C2852 C2853 1.369 . S
C2852 C2854 1.419 . S
C2852 H2856 0.930 . S
C2853 C2852 1.369 . S
C2853 C2862 1.429 . S
C2854 C2852 1.419 . S
C2854 C2855 1.363 . S
C2854 H2857 0.929 . S
C2855 C2854 1.363 . S
C2855 C2861 1.428 . S
H2856 C2852 0.930 . S
H2857 C2854 0.929 . S
S2858 N2859 1.613 . S
S2858 N2860 1.610 . S
N2859 S2858 1.613 . S
N2859 C2862 1.350 . S
N2860 S2858 1.610 . S
N2860 C2861 1.351 . S
C2861 C2855 1.428 . S
C2861 N2860 1.351 . S
C2861 C2862 1.434 . S
C2862 C2853 1.429 . S
C2862 N2859 1.350 . S
C2862 C2861 1.434 . S
C2863 C2864 1.369 . S
C2863 C2865 1.419 . S
C2863 H2867 0.930 . S
C2864 C2863 1.369 . S
C2864 C2873 1.429 . S
C2865 C2863 1.419 . S
C2865 C2866 1.363 . S
C2865 H2868 0.929 . S
C2866 C2865 1.363 . S
C2866 C2872 1.428 . S
H2867 C2863 0.930 . S
H2868 C2865 0.929 . S
S2869 N2870 1.613 . S
S2869 N2871 1.610 . S
N2870 S2869 1.613 . S
N2870 C2873 1.350 . S
N2871 S2869 1.610 . S
N2871 C2872 1.351 . S
C2872 C2866 1.428 . S
C2872 N2871 1.351 . S
C2872 C2873 1.434 . S
C2873 C2864 1.429 . S
C2873 N2870 1.350 . S
C2873 C2872 1.434 . S
C2874 C2875 1.369 . S
C2874 C2876 1.419 . S
C2874 H2878 0.930 . S
C2875 C2874 1.369 . S
C2875 C2884 1.429 . S
C2876 C2874 1.419 . S
C2876 C2877 1.363 . S
C2876 H2879 0.929 . S
C2877 C2876 1.363 . S
C2877 C2883 1.428 . S
H2878 C2874 0.930 . S
H2879 C2876 0.929 . S
S2880 N2881 1.613 . S
S2880 N2882 1.610 . S
N2881 S2880 1.613 . S
N2881 C2884 1.350 . S
N2882 S2880 1.610 . S
N2882 C2883 1.351 . S
C2883 C2877 1.428 . S
C2883 N2882 1.351 . S
C2883 C2884 1.434 . S
C2884 C2875 1.429 . S
C2884 N2881 1.350 . S
C2884 C2883 1.434 . S
C2885 C2886 1.369 . S
C2885 C2887 1.419 . S
C2885 H2889 0.930 1_556 S
C2886 C2885 1.369 . S
C2886 C2895 1.429 . S
C2887 C2885 1.419 . S
C2887 C2888 1.363 . S
C2887 H2890 0.929 . S
C2888 C2887 1.363 . S
C2888 C2894 1.428 . S
H2889 C2885 0.930 1_554 S
H2890 C2887 0.929 . S
S2891 N2892 1.613 . S
S2891 N2893 1.610 1_565 S
N2892 S2891 1.613 . S
N2892 C2895 1.350 1_565 S
N2893 S2891 1.610 1_545 S
N2893 C2894 1.351 . S
C2894 C2888 1.428 . S
C2894 N2893 1.351 . S
C2894 C2895 1.434 . S
C2895 C2886 1.429 . S
C2895 N2892 1.350 1_545 S
C2895 C2894 1.434 . S
C2896 C2897 1.369 . S
C2896 C2898 1.419 . S
C2896 H2900 0.930 . S
C2897 C2896 1.369 . S
C2897 C2906 1.429 . S
C2898 C2896 1.419 . S
C2898 C2899 1.363 . S
C2898 H2901 0.929 . S
C2899 C2898 1.363 . S
C2899 C2905 1.428 . S
H2900 C2896 0.930 . S
H2901 C2898 0.929 . S
S2902 N2903 1.613 . S
S2902 N2904 1.610 . S
N2903 S2902 1.613 . S
N2903 C2906 1.350 . S
N2904 S2902 1.610 . S
N2904 C2905 1.351 . S
C2905 C2899 1.428 . S
C2905 N2904 1.351 . S
C2905 C2906 1.434 . S
C2906 C2897 1.429 . S
C2906 N2903 1.350 . S
C2906 C2905 1.434 . S
C2907 C2908 1.369 . S
C2907 C2909 1.419 . S
C2907 H2911 0.930 . S
C2908 C2907 1.369 . S
C2908 C2917 1.429 . S
C2909 C2907 1.419 . S
C2909 C2910 1.363 . S
C2909 H2912 0.929 . S
C2910 C2909 1.363 . S
C2910 C2916 1.428 . S
H2911 C2907 0.930 . S
H2912 C2909 0.929 . S
S2913 N2914 1.613 1_645 S
S2913 N2915 1.610 . S
N2914 S2913 1.613 1_465 S
N2914 C2917 1.350 1_565 S
N2915 S2913 1.610 . S
N2915 C2916 1.351 1_655 S
C2916 C2910 1.428 . S
C2916 N2915 1.351 1_455 S
C2916 C2917 1.434 . S
C2917 C2908 1.429 . S
C2917 N2914 1.350 1_545 S
C2917 C2916 1.434 . S
C2918 C2919 1.369 . S
C2918 C2920 1.419 . S
C2918 H2922 0.930 . S
C2919 C2918 1.369 . S
C2919 C2928 1.429 . S
C2920 C2918 1.419 . S
C2920 C2921 1.363 . S
C2920 H2923 0.929 . S
C2921 C2920 1.363 . S
C2921 C2927 1.428 . S
H2922 C2918 0.930 . S
H2923 C2920 0.929 . S
S2924 N2925 1.613 . S
S2924 N2926 1.610 . S
N2925 S2924 1.613 . S
N2925 C2928 1.350 . S
N2926 S2924 1.610 . S
N2926 C2927 1.351 . S
C2927 C2921 1.428 . S
C2927 N2926 1.351 . S
C2927 C2928 1.434 . S
C2928 C2919 1.429 . S
C2928 N2925 1.350 . S
C2928 C2927 1.434 . S
C2929 C2930 1.369 . S
C2929 C2931 1.419 . S
C2929 H2933 0.930 . S
C2930 C2929 1.369 . S
C2930 C2939 1.429 . S
C2931 C2929 1.419 . S
C2931 C2932 1.363 . S
C2931 H2934 0.929 . S
C2932 C2931 1.363 . S
C2932 C2938 1.428 . S
H2933 C2929 0.930 . S
H2934 C2931 0.929 . S
S2935 N2936 1.613 . S
S2935 N2937 1.610 . S
N2936 S2935 1.613 . S
N2936 C2939 1.350 . S
N2937 S2935 1.610 . S
N2937 C2938 1.351 . S
C2938 C2932 1.428 . S
C2938 N2937 1.351 . S
C2938 C2939 1.434 . S
C2939 C2930 1.429 . S
C2939 N2936 1.350 . S
C2939 C2938 1.434 . S
C2940 C2941 1.369 . S
C2940 C2942 1.419 . S
C2940 H2944 0.930 . S
C2941 C2940 1.369 . S
C2941 C2950 1.429 . S
C2942 C2940 1.419 . S
C2942 C2943 1.363 . S
C2942 H2945 0.929 . S
C2943 C2942 1.363 . S
C2943 C2949 1.428 . S
H2944 C2940 0.930 . S
H2945 C2942 0.929 . S
S2946 N2947 1.613 . S
S2946 N2948 1.610 . S
N2947 S2946 1.613 . S
N2947 C2950 1.350 . S
N2948 S2946 1.610 . S
N2948 C2949 1.351 . S
C2949 C2943 1.428 . S
C2949 N2948 1.351 . S
C2949 C2950 1.434 . S
C2950 C2941 1.429 . S
C2950 N2947 1.350 . S
C2950 C2949 1.434 . S
C2951 C2952 1.369 . S
C2951 C2953 1.419 . S
C2951 H2955 0.930 . S
C2952 C2951 1.369 . S
C2952 C2961 1.429 . S
C2953 C2951 1.419 . S
C2953 C2954 1.363 . S
C2953 H2956 0.929 . S
C2954 C2953 1.363 . S
C2954 C2960 1.428 . S
H2955 C2951 0.930 . S
H2956 C2953 0.929 . S
S2957 N2958 1.613 1_545 S
S2957 N2959 1.610 . S
N2958 S2957 1.613 1_565 S
N2958 C2961 1.350 1_565 S
N2959 S2957 1.610 . S
N2959 C2960 1.351 . S
C2960 C2954 1.428 . S
C2960 N2959 1.351 . S
C2960 C2961 1.434 . S
C2961 C2952 1.429 . S
C2961 N2958 1.350 1_545 S
C2961 C2960 1.434 . S
C2962 C2963 1.369 . S
C2962 C2964 1.419 . S
C2962 H2966 0.930 . S
C2963 C2962 1.369 . S
C2963 C2972 1.429 . S
C2964 C2962 1.419 . S
C2964 C2965 1.363 . S
C2964 H2967 0.929 . S
C2965 C2964 1.363 . S
C2965 C2971 1.428 . S
H2966 C2962 0.930 . S
H2967 C2964 0.929 . S
S2968 N2969 1.613 . S
S2968 N2970 1.610 . S
N2969 S2968 1.613 . S
N2969 C2972 1.350 . S
N2970 S2968 1.610 . S
N2970 C2971 1.351 . S
C2971 C2965 1.428 . S
C2971 N2970 1.351 . S
C2971 C2972 1.434 . S
C2972 C2963 1.429 . S
C2972 N2969 1.350 . S
C2972 C2971 1.434 . S
C2973 C2974 1.369 . S
C2973 C2975 1.419 . S
C2973 H2977 0.930 . S
C2974 C2973 1.369 . S
C2974 C2983 1.429 . S
C2975 C2973 1.419 . S
C2975 C2976 1.363 . S
C2975 H2978 0.929 . S
C2976 C2975 1.363 . S
C2976 C2982 1.428 . S
H2977 C2973 0.930 . S
H2978 C2975 0.929 . S
S2979 N2980 1.613 . S
S2979 N2981 1.610 1_655 S
N2980 S2979 1.613 . S
N2980 C2983 1.350 1_655 S
N2981 S2979 1.610 1_455 S
N2981 C2982 1.351 . S
C2982 C2976 1.428 . S
C2982 N2981 1.351 . S
C2982 C2983 1.434 . S
C2983 C2974 1.429 . S
C2983 N2980 1.350 1_455 S
C2983 C2982 1.434 . S
C2984 C2985 1.369 . S
C2984 C2986 1.419 . S
C2984 H2988 0.930 . S
C2985 C2984 1.369 . S
C2985 C2994 1.429 . S
C2986 C2984 1.419 . S
C2986 C2987 1.363 . S
C2986 H2989 0.929 . S
C2987 C2986 1.363 . S
C2987 C2993 1.428 . S
H2988 C2984 0.930 . S
H2989 C2986 0.929 . S
S2990 N2991 1.613 . S
S2990 N2992 1.610 . S
N2991 S2990 1.613 . S
N2991 C2994 1.350 . S
N2992 S2990 1.610 . S
N2992 C2993 1.351 . S
C2993 C2987 1.428 . S
C2993 N2992 1.351 . S
C2993 C2994 1.434 . S
C2994 C2985 1.429 . S
C2994 N2991 1.350 . S
C2994 C2993 1.434 . S
C2995 C2996 1.369 . S
C2995 C2997 1.419 . S
C2995 H2999 0.930 . S
C2996 C2995 1.369 . S
C2996 C3005 1.429 . S
C2997 C2995 1.419 . S
C2997 C2998 1.363 . S
C2997 H3000 0.929 . S
C2998 C2997 1.363 . S
C2998 C3004 1.428 . S
H2999 C2995 0.930 . S
H3000 C2997 0.929 . S
S3001 N3002 1.613 . S
S3001 N3003 1.610 . S
N3002 S3001 1.613 . S
N3002 C3005 1.350 . S
N3003 S3001 1.610 . S
N3003 C3004 1.351 . S
C3004 C2998 1.428 . S
C3004 N3003 1.351 . S
C3004 C3005 1.434 . S
C3005 C2996 1.429 . S
C3005 N3002 1.350 . S
C3005 C3004 1.434 . S
C3006 C3007 1.369 . S
C3006 C3008 1.419 1_655 S
C3006 H3010 0.930 . S
C3007 C3006 1.369 . S
C3007 C3016 1.429 1_655 S
C3008 C3006 1.419 1_455 S
C3008 C3009 1.363 . S
C3008 H3011 0.929 1_556 S
C3009 C3008 1.363 . S
C3009 C3015 1.428 . S
H3010 C3006 0.930 . S
H3011 C3008 0.929 1_554 S
S3012 N3013 1.613 . S
S3012 N3014 1.610 . S
N3013 S3012 1.613 . S
N3013 C3016 1.350 . S
N3014 S3012 1.610 . S
N3014 C3015 1.351 . S
C3015 C3009 1.428 . S
C3015 N3014 1.351 . S
C3015 C3016 1.434 . S
C3016 C3007 1.429 1_455 S
C3016 N3013 1.350 . S
C3016 C3015 1.434 . S
C3017 C3018 1.369 . S
C3017 C3019 1.419 . S
C3017 H3021 0.930 . S
C3018 C3017 1.369 . S
C3018 C3027 1.429 . S
C3019 C3017 1.419 . S
C3019 C3020 1.363 . S
C3019 H3022 0.929 . S
C3020 C3019 1.363 . S
C3020 C3026 1.428 . S
H3021 C3017 0.930 . S
H3022 C3019 0.929 . S
S3023 N3024 1.613 . S
S3023 N3025 1.610 . S
N3024 S3023 1.613 . S
N3024 C3027 1.350 . S
N3025 S3023 1.610 . S
N3025 C3026 1.351 . S
C3026 C3020 1.428 . S
C3026 N3025 1.351 . S
C3026 C3027 1.434 . S
C3027 C3018 1.429 . S
C3027 N3024 1.350 . S
C3027 C3026 1.434 . S
C3028 C3029 1.373 1_655 S
C3028 C3030 1.417 1_556 S
C3028 H3032 0.927 1_556 S
C3029 C3028 1.373 1_455 S
C3029 C3038 1.429 . S
C3030 C3028 1.417 1_554 S
C3030 C3031 1.363 1_554 S
C3030 H3033 0.929 . S
C3031 C3030 1.363 1_556 S
C3031 C3037 1.428 . S
H3032 C3028 0.927 1_554 S
H3033 C3030 0.929 . S
S3034 N3035 1.613 . S
S3034 N3036 1.610 1_455 S
N3035 S3034 1.613 . S
N3035 C3038 1.350 . S
N3036 S3034 1.610 1_655 S
N3036 C3037 1.351 . S
C3037 C3031 1.428 . S
C3037 N3036 1.351 . S
C3037 C3038 1.434 1_655 S
C3038 C3029 1.429 . S
C3038 N3035 1.350 . S
C3038 C3037 1.434 1_455 S
C3039 C3040 1.369 . S
C3039 C3041 1.419 . S
C3039 H3043 0.930 . S
C3040 C3039 1.369 . S
C3040 C3049 1.429 . S
C3041 C3039 1.419 . S
C3041 C3042 1.363 . S
C3041 H3044 0.929 . S
C3042 C3041 1.363 . S
C3042 C3048 1.428 . S
H3043 C3039 0.930 . S
H3044 C3041 0.929 . S
S3045 N3046 1.613 . S
S3045 N3047 1.610 . S
N3046 S3045 1.613 . S
N3046 C3049 1.350 . S
N3047 S3045 1.610 . S
N3047 C3048 1.351 . S
C3048 C3042 1.428 . S
C3048 N3047 1.351 . S
C3048 C3049 1.434 . S
C3049 C3040 1.429 . S
C3049 N3046 1.350 . S
C3049 C3048 1.434 . S
C3050 C3051 1.369 . S
C3050 C3052 1.419 1_655 S
C3050 H3054 0.930 . S
C3051 C3050 1.369 . S
C3051 C3060 1.429 1_655 S
C3052 C3050 1.419 1_455 S
C3052 C3053 1.363 . S
C3052 H3055 0.929 . S
C3053 C3052 1.363 . S
C3053 C3059 1.428 . S
H3054 C3050 0.930 . S
H3055 C3052 0.929 . S
S3056 N3057 1.613 . S
S3056 N3058 1.610 . S
N3057 S3056 1.613 . S
N3057 C3060 1.350 . S
N3058 S3056 1.610 . S
N3058 C3059 1.351 . S
C3059 C3053 1.428 . S
C3059 N3058 1.351 . S
C3059 C3060 1.434 . S
C3060 C3051 1.429 1_455 S
C3060 N3057 1.350 . S
C3060 C3059 1.434 . S
C3061 C3062 1.369 1_556 S
C3061 C3063 1.419 1_556 S
C3061 H3065 0.930 . S
C3062 C3061 1.369 1_554 S
C3062 C3071 1.429 . S
C3063 C3061 1.419 1_554 S
C3063 C3064 1.363 . S
C3063 H3066 0.929 1_554 S
C3064 C3063 1.363 . S
C3064 C3070 1.428 . S
H3065 C3061 0.930 . S
H3066 C3063 0.929 1_556 S
S3067 N3068 1.613 . S
S3067 N3069 1.610 . S
N3068 S3067 1.613 . S
N3068 C3071 1.350 . S
N3069 S3067 1.610 . S
N3069 C3070 1.351 . S
C3070 C3064 1.428 . S
C3070 N3069 1.351 . S
C3070 C3071 1.434 . S
C3071 C3062 1.429 . S
C3071 N3068 1.350 . S
C3071 C3070 1.434 . S
C3072 C3073 1.369 . S
C3072 C3074 1.419 . S
C3072 H3076 0.930 . S
C3073 C3072 1.369 . S
C3073 C3082 1.429 . S
C3074 C3072 1.419 . S
C3074 C3075 1.363 . S
C3074 H3077 0.929 . S
C3075 C3074 1.363 . S
C3075 C3081 1.428 . S
H3076 C3072 0.930 . S
H3077 C3074 0.929 . S
S3078 N3079 1.613 . S
S3078 N3080 1.610 . S
N3079 S3078 1.613 . S
N3079 C3082 1.350 . S
N3080 S3078 1.610 . S
N3080 C3081 1.351 . S
C3081 C3075 1.428 . S
C3081 N3080 1.351 . S
C3081 C3082 1.434 . S
C3082 C3073 1.429 . S
C3082 N3079 1.350 . S
C3082 C3081 1.434 . S
C3083 C3084 1.369 . S
C3083 C3085 1.419 . S
C3083 H3087 0.930 . S
C3084 C3083 1.369 . S
C3084 C3093 1.429 . S
C3085 C3083 1.419 . S
C3085 C3086 1.363 . S
C3085 H3088 0.929 . S
C3086 C3085 1.363 . S
C3086 C3092 1.428 . S
H3087 C3083 0.930 . S
H3088 C3085 0.929 . S
S3089 N3090 1.613 . S
S3089 N3091 1.610 . S
N3090 S3089 1.613 . S
N3090 C3093 1.350 . S
N3091 S3089 1.610 . S
N3091 C3092 1.351 . S
C3092 C3086 1.428 . S
C3092 N3091 1.351 . S
C3092 C3093 1.434 . S
C3093 C3084 1.429 . S
C3093 N3090 1.350 . S
C3093 C3092 1.434 . S
C3094 C3095 1.369 . S
C3094 C3096 1.419 . S
C3094 H3098 0.930 . S
C3095 C3094 1.369 . S
C3095 C3104 1.429 . S
C3096 C3094 1.419 . S
C3096 C3097 1.363 . S
C3096 H3099 0.929 . S
C3097 C3096 1.363 . S
C3097 C3103 1.428 . S
H3098 C3094 0.930 . S
H3099 C3096 0.929 . S
S3100 N3101 1.613 . S
S3100 N3102 1.610 . S
N3101 S3100 1.613 . S
N3101 C3104 1.350 . S
N3102 S3100 1.610 . S
N3102 C3103 1.351 . S
C3103 C3097 1.428 . S
C3103 N3102 1.351 . S
C3103 C3104 1.434 . S
C3104 C3095 1.429 . S
C3104 N3101 1.350 . S
C3104 C3103 1.434 . S
C3105 C3106 1.369 . S
C3105 C3107 1.419 . S
C3105 H3109 0.930 . S
C3106 C3105 1.369 . S
C3106 C3115 1.429 . S
C3107 C3105 1.419 . S
C3107 C3108 1.363 . S
C3107 H3110 0.929 . S
C3108 C3107 1.363 . S
C3108 C3114 1.428 . S
H3109 C3105 0.930 . S
H3110 C3107 0.929 . S
S3111 N3112 1.613 . S
S3111 N3113 1.610 . S
N3112 S3111 1.613 . S
N3112 C3115 1.350 . S
N3113 S3111 1.610 . S
N3113 C3114 1.351 . S
C3114 C3108 1.428 . S
C3114 N3113 1.351 . S
C3114 C3115 1.434 . S
C3115 C3106 1.429 . S
C3115 N3112 1.350 . S
C3115 C3114 1.434 . S
C3116 C3117 1.369 . S
C3116 C3118 1.419 . S
C3116 H3120 0.930 . S
C3117 C3116 1.369 . S
C3117 C3126 1.429 . S
C3118 C3116 1.419 . S
C3118 C3119 1.363 . S
C3118 H3121 0.929 . S
C3119 C3118 1.363 . S
C3119 C3125 1.428 . S
H3120 C3116 0.930 . S
H3121 C3118 0.929 . S
S3122 N3123 1.613 . S
S3122 N3124 1.610 . S
N3123 S3122 1.613 . S
N3123 C3126 1.350 . S
N3124 S3122 1.610 . S
N3124 C3125 1.351 . S
C3125 C3119 1.428 . S
C3125 N3124 1.351 . S
C3125 C3126 1.434 . S
C3126 C3117 1.429 . S
C3126 N3123 1.350 . S
C3126 C3125 1.434 . S
C3127 C3128 1.369 . S
C3127 C3129 1.419 . S
C3127 H3131 0.930 . S
C3128 C3127 1.369 . S
C3128 C3137 1.429 . S
C3129 C3127 1.419 . S
C3129 C3130 1.363 . S
C3129 H3132 0.929 . S
C3130 C3129 1.363 . S
C3130 C3136 1.428 . S
H3131 C3127 0.930 . S
H3132 C3129 0.929 . S
S3133 N3134 1.613 . S
S3133 N3135 1.610 1_556 S
N3134 S3133 1.613 . S
N3134 C3137 1.350 . S
N3135 S3133 1.610 1_554 S
N3135 C3136 1.351 1_554 S
C3136 C3130 1.428 . S
C3136 N3135 1.351 1_556 S
C3136 C3137 1.434 . S
C3137 C3128 1.429 . S
C3137 N3134 1.350 . S
C3137 C3136 1.434 . S
C3138 C3139 1.369 . S
C3138 C3140 1.419 . S
C3138 H3142 0.930 . S
C3139 C3138 1.369 . S
C3139 C3148 1.429 . S
C3140 C3138 1.419 . S
C3140 C3141 1.363 . S
C3140 H3143 0.929 . S
C3141 C3140 1.363 . S
C3141 C3147 1.428 . S
H3142 C3138 0.930 . S
H3143 C3140 0.929 . S
S3144 N3145 1.613 . S
S3144 N3146 1.610 . S
N3145 S3144 1.613 . S
N3145 C3148 1.350 . S
N3146 S3144 1.610 . S
N3146 C3147 1.351 . S
C3147 C3141 1.428 . S
C3147 N3146 1.351 . S
C3147 C3148 1.434 . S
C3148 C3139 1.429 . S
C3148 N3145 1.350 . S
C3148 C3147 1.434 . S
C3149 C3150 1.369 . S
C3149 C3151 1.419 . S
C3149 H3153 0.930 . S
C3150 C3149 1.369 . S
C3150 C3159 1.429 . S
C3151 C3149 1.419 . S
C3151 C3152 1.363 . S
C3151 H3154 0.929 . S
C3152 C3151 1.363 . S
C3152 C3158 1.428 . S
H3153 C3149 0.930 . S
H3154 C3151 0.929 . S
S3155 N3156 1.613 . S
S3155 N3157 1.610 . S
N3156 S3155 1.613 . S
N3156 C3159 1.350 . S
N3157 S3155 1.610 . S
N3157 C3158 1.351 . S
C3158 C3152 1.428 . S
C3158 N3157 1.351 . S
C3158 C3159 1.434 . S
C3159 C3150 1.429 . S
C3159 N3156 1.350 . S
C3159 C3158 1.434 . S
C3160 C3161 1.369 . S
C3160 C3162 1.419 . S
C3160 H3164 0.930 . S
C3161 C3160 1.369 . S
C3161 C3170 1.429 . S
C3162 C3160 1.419 . S
C3162 C3163 1.363 . S
C3162 H3165 0.929 . S
C3163 C3162 1.363 . S
C3163 C3169 1.428 . S
H3164 C3160 0.930 . S
H3165 C3162 0.929 . S
S3166 N3167 1.613 . S
S3166 N3168 1.610 . S
N3167 S3166 1.613 . S
N3167 C3170 1.350 . S
N3168 S3166 1.610 . S
N3168 C3169 1.351 . S
C3169 C3163 1.428 . S
C3169 N3168 1.351 . S
C3169 C3170 1.434 . S
C3170 C3161 1.429 . S
C3170 N3167 1.350 . S
C3170 C3169 1.434 . S
C3171 C3172 1.369 . S
C3171 C3173 1.419 . S
C3171 H3175 0.930 . S
C3172 C3171 1.369 . S
C3172 C3181 1.429 . S
C3173 C3171 1.419 . S
C3173 C3174 1.363 . S
C3173 H3176 0.929 . S
C3174 C3173 1.363 . S
C3174 C3180 1.428 . S
H3175 C3171 0.930 . S
H3176 C3173 0.929 . S
S3177 N3178 1.613 . S
S3177 N3179 1.610 . S
N3178 S3177 1.613 . S
N3178 C3181 1.350 . S
N3179 S3177 1.610 . S
N3179 C3180 1.351 . S
C3180 C3174 1.428 . S
C3180 N3179 1.351 . S
C3180 C3181 1.434 . S
C3181 C3172 1.429 . S
C3181 N3178 1.350 . S
C3181 C3180 1.434 . S
C3182 C3183 1.369 . S
C3182 C3184 1.419 . S
C3182 H3186 0.930 . S
C3183 C3182 1.369 . S
C3183 C3192 1.429 . S
C3184 C3182 1.419 . S
C3184 C3185 1.363 . S
C3184 H3187 0.929 . S
C3185 C3184 1.363 . S
C3185 C3191 1.428 . S
H3186 C3182 0.930 . S
H3187 C3184 0.929 . S
S3188 N3189 1.613 . S
S3188 N3190 1.610 . S
N3189 S3188 1.613 . S
N3189 C3192 1.350 . S
N3190 S3188 1.610 . S
N3190 C3191 1.351 . S
C3191 C3185 1.428 . S
C3191 N3190 1.351 . S
C3191 C3192 1.434 . S
C3192 C3183 1.429 . S
C3192 N3189 1.350 . S
C3192 C3191 1.434 . S
C3193 C3194 1.369 . S
C3193 C3195 1.419 . S
C3193 H3197 0.930 . S
C3194 C3193 1.369 . S
C3194 C3203 1.429 . S
C3195 C3193 1.419 . S
C3195 C3196 1.363 . S
C3195 H3198 0.929 . S
C3196 C3195 1.363 . S
C3196 C3202 1.428 . S
H3197 C3193 0.930 . S
H3198 C3195 0.929 . S
S3199 N3200 1.613 1_455 S
S3199 N3201 1.610 1_455 S
N3200 S3199 1.613 1_655 S
N3200 C3203 1.350 . S
N3201 S3199 1.610 1_655 S
N3201 C3202 1.351 . S
C3202 C3196 1.428 . S
C3202 N3201 1.351 . S
C3202 C3203 1.434 . S
C3203 C3194 1.429 . S
C3203 N3200 1.350 . S
C3203 C3202 1.434 . S
C3204 C3205 1.369 . S
C3204 C3206 1.419 . S
C3204 H3208 0.930 . S
C3205 C3204 1.369 . S
C3205 C3214 1.429 . S
C3206 C3204 1.419 . S
C3206 C3207 1.363 . S
C3206 H3209 0.929 . S
C3207 C3206 1.363 . S
C3207 C3213 1.428 . S
H3208 C3204 0.930 . S
H3209 C3206 0.929 . S
S3210 N3211 1.613 . S
S3210 N3212 1.610 . S
N3211 S3210 1.613 . S
N3211 C3214 1.350 . S
N3212 S3210 1.610 . S
N3212 C3213 1.351 . S
C3213 C3207 1.428 . S
C3213 N3212 1.351 . S
C3213 C3214 1.434 . S
C3214 C3205 1.429 . S
C3214 N3211 1.350 . S
C3214 C3213 1.434 . S
C3215 C3216 1.369 . S
C3215 C3217 1.419 . S
C3215 H3219 0.930 . S
C3216 C3215 1.369 . S
C3216 C3225 1.429 . S
C3217 C3215 1.419 . S
C3217 C3218 1.363 . S
C3217 H3220 0.929 . S
C3218 C3217 1.363 . S
C3218 C3224 1.428 . S
H3219 C3215 0.930 . S
H3220 C3217 0.929 . S
S3221 N3222 1.613 . S
S3221 N3223 1.610 . S
N3222 S3221 1.613 . S
N3222 C3225 1.350 . S
N3223 S3221 1.610 . S
N3223 C3224 1.351 . S
C3224 C3218 1.428 . S
C3224 N3223 1.351 . S
C3224 C3225 1.434 . S
C3225 C3216 1.429 . S
C3225 N3222 1.350 . S
C3225 C3224 1.434 . S
C3226 C3227 1.369 . S
C3226 C3228 1.419 . S
C3226 H3230 0.930 . S
C3227 C3226 1.369 . S
C3227 C3236 1.429 . S
C3228 C3226 1.419 . S
C3228 C3229 1.363 . S
C3228 H3231 0.929 . S
C3229 C3228 1.363 . S
C3229 C3235 1.428 . S
H3230 C3226 0.930 . S
H3231 C3228 0.929 . S
S3232 N3233 1.613 . S
S3232 N3234 1.610 . S
N3233 S3232 1.613 . S
N3233 C3236 1.350 . S
N3234 S3232 1.610 . S
N3234 C3235 1.351 . S
C3235 C3229 1.428 . S
C3235 N3234 1.351 . S
C3235 C3236 1.434 . S
C3236 C3227 1.429 . S
C3236 N3233 1.350 . S
C3236 C3235 1.434 . S
C3237 C3238 1.369 . S
C3237 C3239 1.419 . S
C3237 H3241 0.930 . S
C3238 C3237 1.369 . S
C3238 C3247 1.429 . S
C3239 C3237 1.419 . S
C3239 C3240 1.363 . S
C3239 H3242 0.929 . S
C3240 C3239 1.363 . S
C3240 C3246 1.428 . S
H3241 C3237 0.930 . S
H3242 C3239 0.929 . S
S3243 N3244 1.613 . S
S3243 N3245 1.610 . S
N3244 S3243 1.613 . S
N3244 C3247 1.350 . S
N3245 S3243 1.610 . S
N3245 C3246 1.351 . S
C3246 C3240 1.428 . S
C3246 N3245 1.351 . S
C3246 C3247 1.434 . S
C3247 C3238 1.429 . S
C3247 N3244 1.350 . S
C3247 C3246 1.434 . S
C3248 C3249 1.369 . S
C3248 C3250 1.419 . S
C3248 H3252 0.930 . S
C3249 C3248 1.369 . S
C3249 C3258 1.429 . S
C3250 C3248 1.419 . S
C3250 C3251 1.363 . S
C3250 H3253 0.929 . S
C3251 C3250 1.363 . S
C3251 C3257 1.428 . S
H3252 C3248 0.930 . S
H3253 C3250 0.929 . S
S3254 N3255 1.613 . S
S3254 N3256 1.610 . S
N3255 S3254 1.613 . S
N3255 C3258 1.350 . S
N3256 S3254 1.610 . S
N3256 C3257 1.351 . S
C3257 C3251 1.428 . S
C3257 N3256 1.351 . S
C3257 C3258 1.434 . S
C3258 C3249 1.429 . S
C3258 N3255 1.350 . S
C3258 C3257 1.434 . S
C3259 C3260 1.369 . S
C3259 C3261 1.419 . S
C3259 H3263 0.930 . S
C3260 C3259 1.369 . S
C3260 C3269 1.429 . S
C3261 C3259 1.419 . S
C3261 C3262 1.363 . S
C3261 H3264 0.929 . S
C3262 C3261 1.363 . S
C3262 C3268 1.428 . S
H3263 C3259 0.930 . S
H3264 C3261 0.929 . S
S3265 N3266 1.613 . S
S3265 N3267 1.610 . S
N3266 S3265 1.613 . S
N3266 C3269 1.350 . S
N3267 S3265 1.610 . S
N3267 C3268 1.351 . S
C3268 C3262 1.428 . S
C3268 N3267 1.351 . S
C3268 C3269 1.434 . S
C3269 C3260 1.429 . S
C3269 N3266 1.350 . S
C3269 C3268 1.434 . S
C3270 C3271 1.369 . S
C3270 C3272 1.419 . S
C3270 H3274 0.930 . S
C3271 C3270 1.369 . S
C3271 C3280 1.429 . S
C3272 C3270 1.419 . S
C3272 C3273 1.363 . S
C3272 H3275 0.929 . S
C3273 C3272 1.363 . S
C3273 C3279 1.428 . S
H3274 C3270 0.930 . S
H3275 C3272 0.929 . S
S3276 N3277 1.613 . S
S3276 N3278 1.610 . S
N3277 S3276 1.613 . S
N3277 C3280 1.350 . S
N3278 S3276 1.610 . S
N3278 C3279 1.351 . S
C3279 C3273 1.428 . S
C3279 N3278 1.351 . S
C3279 C3280 1.434 . S
C3280 C3271 1.429 . S
C3280 N3277 1.350 . S
C3280 C3279 1.434 . S
C3281 C3282 1.369 . S
C3281 C3283 1.419 . S
C3281 H3285 0.930 . S
C3282 C3281 1.369 . S
C3282 C3291 1.429 . S
C3283 C3281 1.419 . S
C3283 C3284 1.363 . S
C3283 H3286 0.929 . S
C3284 C3283 1.363 . S
C3284 C3290 1.428 . S
H3285 C3281 0.930 . S
H3286 C3283 0.929 . S
S3287 N3288 1.613 . S
S3287 N3289 1.610 . S
N3288 S3287 1.613 . S
N3288 C3291 1.350 . S
N3289 S3287 1.610 . S
N3289 C3290 1.351 . S
C3290 C3284 1.428 . S
C3290 N3289 1.351 . S
C3290 C3291 1.434 . S
C3291 C3282 1.429 . S
C3291 N3288 1.350 . S
C3291 C3290 1.434 . S
C3292 C3293 1.369 . S
C3292 C3294 1.419 . S
C3292 H3296 0.930 . S
C3293 C3292 1.369 . S
C3293 C3302 1.429 . S
C3294 C3292 1.419 . S
C3294 C3295 1.363 . S
C3294 H3297 0.929 . S
C3295 C3294 1.363 . S
C3295 C3301 1.428 . S
H3296 C3292 0.930 . S
H3297 C3294 0.929 . S
S3298 N3299 1.613 . S
S3298 N3300 1.610 . S
N3299 S3298 1.613 . S
N3299 C3302 1.350 . S
N3300 S3298 1.610 . S
N3300 C3301 1.351 . S
C3301 C3295 1.428 . S
C3301 N3300 1.351 . S
C3301 C3302 1.434 . S
C3302 C3293 1.429 . S
C3302 N3299 1.350 . S
C3302 C3301 1.434 . S
C3303 C3304 1.369 . S
C3303 C3305 1.419 . S
C3303 H3307 0.930 . S
C3304 C3303 1.369 . S
C3304 C3313 1.429 . S
C3305 C3303 1.419 . S
C3305 C3306 1.363 . S
C3305 H3308 0.929 . S
C3306 C3305 1.363 . S
C3306 C3312 1.428 . S
H3307 C3303 0.930 . S
H3308 C3305 0.929 . S
S3309 N3310 1.613 . S
S3309 N3311 1.610 . S
N3310 S3309 1.613 . S
N3310 C3313 1.350 . S
N3311 S3309 1.610 . S
N3311 C3312 1.351 . S
C3312 C3306 1.428 . S
C3312 N3311 1.351 . S
C3312 C3313 1.434 . S
C3313 C3304 1.429 . S
C3313 N3310 1.350 . S
C3313 C3312 1.434 . S
C3314 C3315 1.369 1_556 S
C3314 C3316 1.419 . S
C3314 H3318 0.930 . S
C3315 C3314 1.369 1_554 S
C3315 C3324 1.429 . S
C3316 C3314 1.419 . S
C3316 C3317 1.363 1_556 S
C3316 H3319 0.929 . S
C3317 C3316 1.363 1_554 S
C3317 C3323 1.428 . S
H3318 C3314 0.930 . S
H3319 C3316 0.929 . S
S3320 N3321 1.613 . S
S3320 N3322 1.610 . S
N3321 S3320 1.613 . S
N3321 C3324 1.350 . S
N3322 S3320 1.610 . S
N3322 C3323 1.351 . S
C3323 C3317 1.428 . S
C3323 N3322 1.351 . S
C3323 C3324 1.434 . S
C3324 C3315 1.429 . S
C3324 N3321 1.350 . S
C3324 C3323 1.434 . S
C3325 C3326 1.369 1_655 S
C3325 C3327 1.419 . S
C3325 H3329 0.930 . S
C3326 C3325 1.369 1_455 S
C3326 C3335 1.429 . S
C3327 C3325 1.419 . S
C3327 C3328 1.363 . S
C3327 H3330 0.929 . S
C3328 C3327 1.363 . S
C3328 C3334 1.428 . S
H3329 C3325 0.930 . S
H3330 C3327 0.929 . S
S3331 N3332 1.613 . S
S3331 N3333 1.610 . S
N3332 S3331 1.613 . S
N3332 C3335 1.350 . S
N3333 S3331 1.610 . S
N3333 C3334 1.351 1_455 S
C3334 C3328 1.428 . S
C3334 N3333 1.351 1_655 S
C3334 C3335 1.434 1_655 S
C3335 C3326 1.429 . S
C3335 N3332 1.350 . S
C3335 C3334 1.434 1_455 S
C3336 C3337 1.369 . S
C3336 C3338 1.419 . S
C3336 H3340 0.930 . S
C3337 C3336 1.369 . S
C3337 C3346 1.429 . S
C3338 C3336 1.419 . S
C3338 C3339 1.363 . S
C3338 H3341 0.929 . S
C3339 C3338 1.363 . S
C3339 C3345 1.428 . S
H3340 C3336 0.930 . S
H3341 C3338 0.929 . S
S3342 N3343 1.613 . S
S3342 N3344 1.610 . S
N3343 S3342 1.613 . S
N3343 C3346 1.350 . S
N3344 S3342 1.610 . S
N3344 C3345 1.351 . S
C3345 C3339 1.428 . S
C3345 N3344 1.351 . S
C3345 C3346 1.434 . S
C3346 C3337 1.429 . S
C3346 N3343 1.350 . S
C3346 C3345 1.434 . S
C3347 C3348 1.369 . S
C3347 C3349 1.419 . S
C3347 H3351 0.930 . S
C3348 C3347 1.369 . S
C3348 C3357 1.429 . S
C3349 C3347 1.419 . S
C3349 C3350 1.363 . S
C3349 H3352 0.929 . S
C3350 C3349 1.363 . S
C3350 C3356 1.428 . S
H3351 C3347 0.930 . S
H3352 C3349 0.929 . S
S3353 N3354 1.613 . S
S3353 N3355 1.610 . S
N3354 S3353 1.613 . S
N3354 C3357 1.350 . S
N3355 S3353 1.610 . S
N3355 C3356 1.351 . S
C3356 C3350 1.428 . S
C3356 N3355 1.351 . S
C3356 C3357 1.434 . S
C3357 C3348 1.429 . S
C3357 N3354 1.350 . S
C3357 C3356 1.434 . S
C3358 C3359 1.369 . S
C3358 C3360 1.419 . S
C3358 H3362 0.930 . S
C3359 C3358 1.369 . S
C3359 C3368 1.429 . S
C3360 C3358 1.419 . S
C3360 C3361 1.363 . S
C3360 H3363 0.929 . S
C3361 C3360 1.363 . S
C3361 C3367 1.428 . S
H3362 C3358 0.930 . S
H3363 C3360 0.929 . S
S3364 N3365 1.613 . S
S3364 N3366 1.610 . S
N3365 S3364 1.613 . S
N3365 C3368 1.350 . S
N3366 S3364 1.610 . S
N3366 C3367 1.351 . S
C3367 C3361 1.428 . S
C3367 N3366 1.351 . S
C3367 C3368 1.434 . S
C3368 C3359 1.429 . S
C3368 N3365 1.350 . S
C3368 C3367 1.434 . S
C3369 C3370 1.369 . S
C3369 C3371 1.419 . S
C3369 H3373 0.930 . S
C3370 C3369 1.369 . S
C3370 C3379 1.429 . S
C3371 C3369 1.419 . S
C3371 C3372 1.363 . S
C3371 H3374 0.929 . S
C3372 C3371 1.363 . S
C3372 C3378 1.428 . S
H3373 C3369 0.930 . S
H3374 C3371 0.929 . S
S3375 N3376 1.613 . S
S3375 N3377 1.610 . S
N3376 S3375 1.613 . S
N3376 C3379 1.350 . S
N3377 S3375 1.610 . S
N3377 C3378 1.351 . S
C3378 C3372 1.428 . S
C3378 N3377 1.351 . S
C3378 C3379 1.434 . S
C3379 C3370 1.429 . S
C3379 N3376 1.350 . S
C3379 C3378 1.434 . S
C3380 C3381 1.369 . S
C3380 C3382 1.419 . S
C3380 H3384 0.930 . S
C3381 C3380 1.369 . S
C3381 C3390 1.429 . S
C3382 C3380 1.419 . S
C3382 C3383 1.363 . S
C3382 H3385 0.929 . S
C3383 C3382 1.363 . S
C3383 C3389 1.428 . S
H3384 C3380 0.930 . S
H3385 C3382 0.929 . S
S3386 N3387 1.613 . S
S3386 N3388 1.610 . S
N3387 S3386 1.613 . S
N3387 C3390 1.350 . S
N3388 S3386 1.610 . S
N3388 C3389 1.351 . S
C3389 C3383 1.428 . S
C3389 N3388 1.351 . S
C3389 C3390 1.434 . S
C3390 C3381 1.429 . S
C3390 N3387 1.350 . S
C3390 C3389 1.434 . S
C3391 C3392 1.369 . S
C3391 C3393 1.419 . S
C3391 H3395 0.930 . S
C3392 C3391 1.369 . S
C3392 C3401 1.429 . S
C3393 C3391 1.419 . S
C3393 C3394 1.363 . S
C3393 H3396 0.929 . S
C3394 C3393 1.363 . S
C3394 C3400 1.428 . S
H3395 C3391 0.930 . S
H3396 C3393 0.929 . S
S3397 N3398 1.613 . S
S3397 N3399 1.610 . S
N3398 S3397 1.613 . S
N3398 C3401 1.350 . S
N3399 S3397 1.610 . S
N3399 C3400 1.351 . S
C3400 C3394 1.428 . S
C3400 N3399 1.351 . S
C3400 C3401 1.434 . S
C3401 C3392 1.429 . S
C3401 N3398 1.350 . S
C3401 C3400 1.434 . S
C3402 C3403 1.369 . S
C3402 C3404 1.419 . S
C3402 H3406 0.930 . S
C3403 C3402 1.369 . S
C3403 C3412 1.429 . S
C3404 C3402 1.419 . S
C3404 C3405 1.363 . S
C3404 H3407 0.929 . S
C3405 C3404 1.363 . S
C3405 C3411 1.428 . S
H3406 C3402 0.930 . S
H3407 C3404 0.929 . S
S3408 N3409 1.613 . S
S3408 N3410 1.610 . S
N3409 S3408 1.613 . S
N3409 C3412 1.350 . S
N3410 S3408 1.610 . S
N3410 C3411 1.351 . S
C3411 C3405 1.428 . S
C3411 N3410 1.351 . S
C3411 C3412 1.434 . S
C3412 C3403 1.429 . S
C3412 N3409 1.350 . S
C3412 C3411 1.434 . S
C3413 C3414 1.369 . S
C3413 C3415 1.419 . S
C3413 H3417 0.930 . S
C3414 C3413 1.369 . S
C3414 C3423 1.429 . S
C3415 C3413 1.419 . S
C3415 C3416 1.363 . S
C3415 H3418 0.929 . S
C3416 C3415 1.363 . S
C3416 C3422 1.428 . S
H3417 C3413 0.930 . S
H3418 C3415 0.929 . S
S3419 N3420 1.613 . S
S3419 N3421 1.610 . S
N3420 S3419 1.613 . S
N3420 C3423 1.350 . S
N3421 S3419 1.610 . S
N3421 C3422 1.351 . S
C3422 C3416 1.428 . S
C3422 N3421 1.351 . S
C3422 C3423 1.434 . S
C3423 C3414 1.429 . S
C3423 N3420 1.350 . S
C3423 C3422 1.434 . S
C3424 C3425 1.369 . S
C3424 C3426 1.419 . S
C3424 H3428 0.930 . S
C3425 C3424 1.369 . S
C3425 C3434 1.429 . S
C3426 C3424 1.419 . S
C3426 C3427 1.363 . S
C3426 H3429 0.929 . S
C3427 C3426 1.363 . S
C3427 C3433 1.428 . S
H3428 C3424 0.930 . S
H3429 C3426 0.929 . S
S3430 N3431 1.613 . S
S3430 N3432 1.610 . S
N3431 S3430 1.613 . S
N3431 C3434 1.350 . S
N3432 S3430 1.610 . S
N3432 C3433 1.351 . S
C3433 C3427 1.428 . S
C3433 N3432 1.351 . S
C3433 C3434 1.434 . S
C3434 C3425 1.429 . S
C3434 N3431 1.350 . S
C3434 C3433 1.434 . S
C3435 C3436 1.369 . S
C3435 C3437 1.419 . S
C3435 H3439 0.930 . S
C3436 C3435 1.369 . S
C3436 C3445 1.429 . S
C3437 C3435 1.419 . S
C3437 C3438 1.363 . S
C3437 H3440 0.929 . S
C3438 C3437 1.363 . S
C3438 C3444 1.428 . S
H3439 C3435 0.930 . S
H3440 C3437 0.929 . S
S3441 N3442 1.613 . S
S3441 N3443 1.610 . S
N3442 S3441 1.613 . S
N3442 C3445 1.350 . S
N3443 S3441 1.610 . S
N3443 C3444 1.351 . S
C3444 C3438 1.428 . S
C3444 N3443 1.351 . S
C3444 C3445 1.434 . S
C3445 C3436 1.429 . S
C3445 N3442 1.350 . S
C3445 C3444 1.434 . S
C3446 C3447 1.369 . S
C3446 C3448 1.419 . S
C3446 H3450 0.930 . S
C3447 C3446 1.369 . S
C3447 C3456 1.429 . S
C3448 C3446 1.419 . S
C3448 C3449 1.363 . S
C3448 H3451 0.929 . S
C3449 C3448 1.363 . S
C3449 C3455 1.428 . S
H3450 C3446 0.930 . S
H3451 C3448 0.929 . S
S3452 N3453 1.613 . S
S3452 N3454 1.610 . S
N3453 S3452 1.613 . S
N3453 C3456 1.350 . S
N3454 S3452 1.610 . S
N3454 C3455 1.351 . S
C3455 C3449 1.428 . S
C3455 N3454 1.351 . S
C3455 C3456 1.434 . S
C3456 C3447 1.429 . S
C3456 N3453 1.350 . S
C3456 C3455 1.434 . S
C3457 C3458 1.369 . S
C3457 C3459 1.419 . S
C3457 H3461 0.930 . S
C3458 C3457 1.369 . S
C3458 C3467 1.429 . S
C3459 C3457 1.419 . S
C3459 C3460 1.363 . S
C3459 H3462 0.929 . S
C3460 C3459 1.363 . S
C3460 C3466 1.428 . S
H3461 C3457 0.930 . S
H3462 C3459 0.929 . S
S3463 N3464 1.613 . S
S3463 N3465 1.610 . S
N3464 S3463 1.613 . S
N3464 C3467 1.350 . S
N3465 S3463 1.610 . S
N3465 C3466 1.351 . S
C3466 C3460 1.428 . S
C3466 N3465 1.351 . S
C3466 C3467 1.434 . S
C3467 C3458 1.429 . S
C3467 N3464 1.350 . S
C3467 C3466 1.434 . S
C3468 C3469 1.369 . S
C3468 C3470 1.419 . S
C3468 H3472 0.930 . S
C3469 C3468 1.369 . S
C3469 C3478 1.429 . S
C3470 C3468 1.419 . S
C3470 C3471 1.363 . S
C3470 H3473 0.929 . S
C3471 C3470 1.363 . S
C3471 C3477 1.428 . S
H3472 C3468 0.930 . S
H3473 C3470 0.929 . S
S3474 N3475 1.613 . S
S3474 N3476 1.610 . S
N3475 S3474 1.613 . S
N3475 C3478 1.350 . S
N3476 S3474 1.610 . S
N3476 C3477 1.351 . S
C3477 C3471 1.428 . S
C3477 N3476 1.351 . S
C3477 C3478 1.434 . S
C3478 C3469 1.429 . S
C3478 N3475 1.350 . S
C3478 C3477 1.434 . S
C3479 C3480 1.369 . S
C3479 C3481 1.419 . S
C3479 H3483 0.930 . S
C3480 C3479 1.369 . S
C3480 C3489 1.429 . S
C3481 C3479 1.419 . S
C3481 C3482 1.363 . S
C3481 H3484 0.929 . S
C3482 C3481 1.363 . S
C3482 C3488 1.428 . S
H3483 C3479 0.930 . S
H3484 C3481 0.929 . S
S3485 N3486 1.613 . S
S3485 N3487 1.610 . S
N3486 S3485 1.613 . S
N3486 C3489 1.350 . S
N3487 S3485 1.610 . S
N3487 C3488 1.351 . S
C3488 C3482 1.428 . S
C3488 N3487 1.351 . S
C3488 C3489 1.434 . S
C3489 C3480 1.429 . S
C3489 N3486 1.350 . S
C3489 C3488 1.434 . S
C3490 C3491 1.369 . S
C3490 C3492 1.419 . S
C3490 H3494 0.930 . S
C3491 C3490 1.369 . S
C3491 C3500 1.429 . S
C3492 C3490 1.419 . S
C3492 C3493 1.363 . S
C3492 H3495 0.929 . S
C3493 C3492 1.363 . S
C3493 C3499 1.428 . S
H3494 C3490 0.930 . S
H3495 C3492 0.929 . S
S3496 N3497 1.613 . S
S3496 N3498 1.610 . S
N3497 S3496 1.613 . S
N3497 C3500 1.350 . S
N3498 S3496 1.610 . S
N3498 C3499 1.351 . S
C3499 C3493 1.428 . S
C3499 N3498 1.351 . S
C3499 C3500 1.434 . S
C3500 C3491 1.429 . S
C3500 N3497 1.350 . S
C3500 C3499 1.434 . S
C3501 C3502 1.369 . S
C3501 C3503 1.419 . S
C3501 H3505 0.930 . S
C3502 C3501 1.369 . S
C3502 C3511 1.429 . S
C3503 C3501 1.419 . S
C3503 C3504 1.363 . S
C3503 H3506 0.929 . S
C3504 C3503 1.363 . S
C3504 C3510 1.428 . S
H3505 C3501 0.930 . S
H3506 C3503 0.929 . S
S3507 N3508 1.613 . S
S3507 N3509 1.610 . S
N3508 S3507 1.613 . S
N3508 C3511 1.350 . S
N3509 S3507 1.610 . S
N3509 C3510 1.351 . S
C3510 C3504 1.428 . S
C3510 N3509 1.351 . S
C3510 C3511 1.434 . S
C3511 C3502 1.429 . S
C3511 N3508 1.350 . S
C3511 C3510 1.434 . S
C3512 C3513 1.369 . S
C3512 C3514 1.419 . S
C3512 H3516 0.930 . S
C3513 C3512 1.369 . S
C3513 C3522 1.429 . S
C3514 C3512 1.419 . S
C3514 C3515 1.363 . S
C3514 H3517 0.929 . S
C3515 C3514 1.363 . S
C3515 C3521 1.428 . S
H3516 C3512 0.930 . S
H3517 C3514 0.929 . S
S3518 N3519 1.613 . S
S3518 N3520 1.610 . S
N3519 S3518 1.613 . S
N3519 C3522 1.350 . S
N3520 S3518 1.610 . S
N3520 C3521 1.351 . S
C3521 C3515 1.428 . S
C3521 N3520 1.351 . S
C3521 C3522 1.434 . S
C3522 C3513 1.429 . S
C3522 N3519 1.350 . S
C3522 C3521 1.434 . S
C3523 C3524 1.369 . S
C3523 C3525 1.419 . S
C3523 H3527 0.930 . S
C3524 C3523 1.369 . S
C3524 C3533 1.429 . S
C3525 C3523 1.419 . S
C3525 C3526 1.363 . S
C3525 H3528 0.929 . S
C3526 C3525 1.363 . S
C3526 C3532 1.428 . S
H3527 C3523 0.930 . S
H3528 C3525 0.929 . S
S3529 N3530 1.613 . S
S3529 N3531 1.610 . S
N3530 S3529 1.613 . S
N3530 C3533 1.350 . S
N3531 S3529 1.610 . S
N3531 C3532 1.351 . S
C3532 C3526 1.428 . S
C3532 N3531 1.351 . S
C3532 C3533 1.434 . S
C3533 C3524 1.429 . S
C3533 N3530 1.350 . S
C3533 C3532 1.434 . S
C3534 C3535 1.369 . S
C3534 C3536 1.419 . S
C3534 H3538 0.930 . S
C3535 C3534 1.369 . S
C3535 C3544 1.429 . S
C3536 C3534 1.419 . S
C3536 C3537 1.363 . S
C3536 H3539 0.929 . S
C3537 C3536 1.363 . S
C3537 C3543 1.428 . S
H3538 C3534 0.930 . S
H3539 C3536 0.929 . S
S3540 N3541 1.613 . S
S3540 N3542 1.610 . S
N3541 S3540 1.613 . S
N3541 C3544 1.350 . S
N3542 S3540 1.610 . S
N3542 C3543 1.351 . S
C3543 C3537 1.428 . S
C3543 N3542 1.351 . S
C3543 C3544 1.434 . S
C3544 C3535 1.429 . S
C3544 N3541 1.350 . S
C3544 C3543 1.434 . S
C3545 C3546 1.369 . S
C3545 C3547 1.419 . S
C3545 H3549 0.930 . S
C3546 C3545 1.369 . S
C3546 C3555 1.429 . S
C3547 C3545 1.419 . S
C3547 C3548 1.363 . S
C3547 H3550 0.929 . S
C3548 C3547 1.363 . S
C3548 C3554 1.428 . S
H3549 C3545 0.930 . S
H3550 C3547 0.929 . S
S3551 N3552 1.613 . S
S3551 N3553 1.610 . S
N3552 S3551 1.613 . S
N3552 C3555 1.350 . S
N3553 S3551 1.610 . S
N3553 C3554 1.351 . S
C3554 C3548 1.428 . S
C3554 N3553 1.351 . S
C3554 C3555 1.434 . S
C3555 C3546 1.429 . S
C3555 N3552 1.350 . S
C3555 C3554 1.434 . S
C3556 C3557 1.369 . S
C3556 C3558 1.419 . S
C3556 H3560 0.930 . S
C3557 C3556 1.369 . S
C3557 C3566 1.429 . S
C3558 C3556 1.419 . S
C3558 C3559 1.363 . S
C3558 H3561 0.929 . S
C3559 C3558 1.363 . S
C3559 C3565 1.428 . S
H3560 C3556 0.930 . S
H3561 C3558 0.929 . S
S3562 N3563 1.613 . S
S3562 N3564 1.610 . S
N3563 S3562 1.613 . S
N3563 C3566 1.350 . S
N3564 S3562 1.610 . S
N3564 C3565 1.351 . S
C3565 C3559 1.428 . S
C3565 N3564 1.351 . S
C3565 C3566 1.434 . S
C3566 C3557 1.429 . S
C3566 N3563 1.350 . S
C3566 C3565 1.434 . S
C3567 C3568 1.369 . S
C3567 C3569 1.419 . S
C3567 H3571 0.930 . S
C3568 C3567 1.369 . S
C3568 C3577 1.429 . S
C3569 C3567 1.419 . S
C3569 C3570 1.363 . S
C3569 H3572 0.929 . S
C3570 C3569 1.363 . S
C3570 C3576 1.428 . S
H3571 C3567 0.930 . S
H3572 C3569 0.929 . S
S3573 N3574 1.613 . S
S3573 N3575 1.610 . S
N3574 S3573 1.613 . S
N3574 C3577 1.350 . S
N3575 S3573 1.610 . S
N3575 C3576 1.351 . S
C3576 C3570 1.428 . S
C3576 N3575 1.351 . S
C3576 C3577 1.434 . S
C3577 C3568 1.429 . S
C3577 N3574 1.350 . S
C3577 C3576 1.434 . S
C3578 C3579 1.369 . S
C3578 C3580 1.419 . S
C3578 H3582 0.930 . S
C3579 C3578 1.369 . S
C3579 C3588 1.429 . S
C3580 C3578 1.419 . S
C3580 C3581 1.363 . S
C3580 H3583 0.929 . S
C3581 C3580 1.363 . S
C3581 C3587 1.428 . S
H3582 C3578 0.930 . S
H3583 C3580 0.929 . S
S3584 N3585 1.613 . S
S3584 N3586 1.610 . S
N3585 S3584 1.613 . S
N3585 C3588 1.350 . S
N3586 S3584 1.610 . S
N3586 C3587 1.351 . S
C3587 C3581 1.428 . S
C3587 N3586 1.351 . S
C3587 C3588 1.434 . S
C3588 C3579 1.429 . S
C3588 N3585 1.350 . S
C3588 C3587 1.434 . S
C3589 C3590 1.369 . S
C3589 C3591 1.419 . S
C3589 H3593 0.930 . S
C3590 C3589 1.369 . S
C3590 C3599 1.429 . S
C3591 C3589 1.419 . S
C3591 C3592 1.363 . S
C3591 H3594 0.929 . S
C3592 C3591 1.363 . S
C3592 C3598 1.428 . S
H3593 C3589 0.930 . S
H3594 C3591 0.929 . S
S3595 N3596 1.613 . S
S3595 N3597 1.610 . S
N3596 S3595 1.613 . S
N3596 C3599 1.350 . S
N3597 S3595 1.610 . S
N3597 C3598 1.351 . S
C3598 C3592 1.428 . S
C3598 N3597 1.351 . S
C3598 C3599 1.434 . S
C3599 C3590 1.429 . S
C3599 N3596 1.350 . S
C3599 C3598 1.434 . S
C2545 C499 2.248 . S
C2547 C22 2.248 . S
C2556 C552 2.522 . S
C2558 C91 2.539 . S
C2567 C605 2.249 . S
C2569 C128 2.249 . S
C2578 C446 2.519 . S
C2580 C197 2.540 . S
C2589 C234 2.248 . S
C2591 C817 2.248 . S
C2600 C303 2.539 . S
C2602 C658 2.520 . S
C2611 C340 2.250 . S
C2613 C711 2.250 . S
C2622 C764 2.519 . S
C2624 C409 2.540 . S
C2633 C886 2.540 . S
C2635 C976 2.521 . S
C2644 C939 2.540 . S
C2646 C2460 2.521 . S
C2655 C1045 2.540 . S
C2657 C2513 2.521 . S
C2666 C1082 2.521 . S
C2668 C2423 2.540 . S
C2677 C1151 2.540 . S
C2679 C2354 2.520 . S
C2688 C2211 2.539 . S
C2690 C1188 2.519 . S
C2699 C1241 2.519 . S
C2701 C2317 2.539 . S
C2710 C1771 2.250 . S
C2712 C1294 2.250 . S
C2721 C1824 2.519 . S
C2723 C1363 2.540 . S
C2732 C1877 2.250 . S
C2734 C1400 2.249 . S
C2743 C1718 2.521 . S
C2745 C1469 2.539 . S
C2754 C2089 2.248 . S
C2756 C1506 2.248 . S
C2765 C1930 2.521 . S
C2767 C1575 2.539 . S
C2776 C1612 2.248 . S
C2778 C1983 2.248 . S
C2787 C1681 2.540 . S
C2789 C2036 2.521 . S
C2798 C2158 2.540 . S
C2800 C2248 2.521 . S
C2809 C870 1.642 . S
C2811 C29 1.715 . S
C2820 C2529 1.363 . S
C2822 C92 1.381 . S
C2831 C135 1.705 . S
C2833 C1135 1.653 . S
C2842 C2476 1.361 1_554 S
C2844 C198 1.382 . S
C2853 C241 1.713 . S
C2855 C2195 1.645 . S
C2864 C2264 1.359 . S
C2866 C304 1.384 . S
C2875 C347 1.710 . S
C2877 C2301 1.648 . S
C2886 C1098 1.359 1_556 S
C2888 C410 1.384 . S
C2897 C453 1.430 . S
C2899 C38 1.407 . S
C2908 C75 1.642 1_545 S
C2910 C506 1.715 . S
C2919 C559 1.424 . S
C2921 C144 1.413 . S
C2930 C181 1.652 1_565 S
C2932 C612 1.708 . S
C2941 C665 1.428 . S
C2943 C250 1.410 . S
C2952 C287 1.642 1_545 S
C2954 C718 1.715 . S
C2963 C771 1.428 . S
C2965 C356 1.410 . S
C2974 C824 1.715 . S
C2976 C393 1.644 1_565 S
C2985 C887 1.383 . S
C2987 C462 1.363 . S
C2996 C940 1.380 . S
C2998 C1946 1.365 . S
C3007 C1999 1.407 . S
C3009 C983 1.428 1_556 S
C3018 C2052 1.362 . S
C3020 C1046 1.382 . S
C3029 C833 1.409 . S
C3031 C1089 1.428 1_556 S
C3040 C1152 1.383 . S
C3042 C568 1.362 . S
C3051 C1893 1.406 . S
C3053 C1195 1.429 . S
C3062 C1248 1.428 1_554 S
C3064 C1787 1.409 . S
C3073 C1301 1.704 . S
C3075 C2142 1.654 . S
C3084 C1364 1.384 . S
C3086 C1257 1.362 1_554 S
C3095 C1407 1.713 . S
C3097 C2407 1.645 . S
C3106 C1470 1.381 . S
C3108 C1204 1.365 . S
C3117 C1513 1.705 . S
C3119 C923 1.654 . S
C3128 C1576 1.380 . S
C3130 C992 1.365 1_556 S
C3139 C1029 1.652 . S
C3141 C1619 1.707 . S
C3150 C2370 1.366 . S
C3152 C1682 1.381 . S
C3161 C1310 1.413 . S
C3163 C1725 1.424 . S
C3172 C1347 1.648 . S
C3174 C1778 1.712 . S
C3183 C1831 1.429 . S
C3185 C1416 1.407 . S
C3194 C1453 1.649 . S
C3196 C1884 1.710 . S
C3205 C1937 1.430 . S
C3207 C1522 1.407 . S
C3216 C1990 1.707 . S
C3218 C1559 1.652 . S
C3227 C2043 1.427 . S
C3229 C1628 1.409 . S
C3238 C1665 1.641 . S
C3240 C2096 1.716 . S
C3249 C2159 1.381 . S
C3251 C1734 1.365 . S
C3260 C2212 1.380 . S
C3262 C674 1.366 . S
C3271 C727 1.413 . S
C3273 C2255 1.425 . S
C3282 C2318 1.384 . S
C3284 C780 1.360 . S
C3293 C2361 1.428 . S
C3295 C2105 1.410 . S
C3304 C1840 1.359 . S
C3306 C2424 1.384 . S
C3315 C621 1.406 . S
C3317 C2467 1.429 1_554 S
C3326 C515 1.413 . S
C3328 C2520 1.425 . S
C3337 C1205 1.705 . S
C3339 C39 1.730 . S
C3348 C82 2.092 . S
C3350 C2149 2.099 . S
C3359 C145 1.731 . S
C3361 C1258 1.702 . S
C3370 C2414 2.101 . S
C3372 C188 2.095 . S
C3381 C251 1.735 . S
C3383 C993 1.699 . S
C3392 C1036 2.092 . S
C3394 C294 2.101 . S
C3403 C2371 1.706 . S
C3405 C357 1.729 . S
C3414 C400 2.092 . S
C3416 C930 2.099 . S
C3425 C728 1.733 . S
C3427 C463 1.700 . S
C3436 C516 1.731 . S
C3438 C781 1.702 . S
C3447 C834 1.736 . S
C3449 C569 1.698 . S
C3458 C622 1.728 . S
C3460 C675 1.705 . S
C3469 C1354 2.100 . S
C3471 C877 2.097 . S
C3480 C1099 1.707 . S
C3482 C1629 1.729 . S
C3491 C1142 2.100 . S
C3493 C1460 2.093 . S
C3502 C2477 1.707 . S
C3504 C1311 1.729 . S
C3513 C1417 1.732 . S
C3515 C2530 1.702 . S
C3524 C1523 1.728 . S
C3526 C2265 1.705 . S
C3535 C1566 2.092 . S
C3537 C2308 2.101 . S
C3546 C2202 2.091 . S
C3548 C1672 2.100 . S
C3557 C2000 1.730 . S
C3559 C1735 1.704 . S
C3568 C1788 1.728 . S
C3570 C2053 1.705 . S
C3579 C1841 1.695 . S
C3581 C2106 1.737 . S
C3590 C1947 1.707 . S
C3592 C1894 1.728 . S
