# Generated by pormake.
# Topology unc, (4)-cn, num edge types: 1
# Building blocks:
#     Node 0, Type 0, BuildingBlock: ICAMEG_clean_sbu_1, # of connection points: 4
#     Node 1, Type 0, BuildingBlock: ICAMEG_clean_sbu_1, # of connection points: 4
#     Node 2, Type 0, BuildingBlock: ICAMEG_clean_sbu_1, # of connection points: 4
#     Node 3, Type 0, BuildingBlock: ICAMEG_clean_sbu_1, # of connection points: 4
#     Edge 4, Type (0, 0), BuildingBlock: XUDNAN_clean_linker_2, # of connection points: 2
#     Edge 5, Type (0, 0), BuildingBlock: XUDNAN_clean_linker_2, # of connection points: 2
#     Edge 6, Type (0, 0), BuildingBlock: XUDNAN_clean_linker_2, # of connection points: 2
#     Edge 7, Type (0, 0), BuildingBlock: XUDNAN_clean_linker_2, # of connection points: 2
#     Edge 8, Type (0, 0), BuildingBlock: XUDNAN_clean_linker_2, # of connection points: 2
#     Edge 9, Type (0, 0), BuildingBlock: XUDNAN_clean_linker_2, # of connection points: 2
#     Edge 10, Type (0, 0), BuildingBlock: XUDNAN_clean_linker_2, # of connection points: 2
#     Edge 11, Type (0, 0), BuildingBlock: XUDNAN_clean_linker_2, # of connection points: 2
# Relax obj value: 0.023
# Max RMSD: 0.081
# Mean RMSD: 0.081
data_MOF--net-unc--node1-ICAMEG_clean_sbu_1--edge1-XUDNAN_clean_linker_2
_symmetry_space_group_name_H-M    P1
_symmetry_Int_Tables_number       1
_symmetry_cell_setting            triclinic
loop_
_symmetry_equiv_pos_as_xyz
'x, y, z'
_cell_length_a     32.622126
_cell_length_b     32.618898
_cell_length_c     22.093731
_cell_angle_alpha  89.9754
_cell_angle_beta   89.831493
_cell_angle_gamma 90.274542
loop_
_atom_site_label
_atom_site_type_symbol
_atom_site_fract_x
_atom_site_fract_y
_atom_site_fract_z
_atom_type_partial_charge
Co0 Co 0.05923 0.66331 0.99214 0.0
Co1 Co 0.95956 0.6583 0.04294 0.0
O2 O 0.00822 0.68974 0.01837 0.0
C3 C 0.0853 0.72314 0.08531 0.0
O4 O 0.05497 0.70961 0.11911 0.0
C5 C 0.92713 0.72565 0.96314 0.0
O6 O 0.96095 0.7257 0.93091 0.0
O7 O 0.96036 0.62819 0.96453 0.0
O8 O 0.02776 0.61906 0.94893 0.0
H9 H 0.87623 0.52963 0.06976 0.0
H10 H 0.04812 0.75185 0.96653 0.0
O11 O 0.09194 0.70728 0.03359 0.0
H12 H 0.06647 0.68675 0.76696 0.0
H13 H 0.20422 0.66167 0.91334 0.0
H14 H 0.08807 0.57743 0.98562 0.0
H15 H 0.06839 0.64536 0.86022 0.0
H16 H 0.13954 0.69416 0.94517 0.0
O17 O 0.92248 0.70067 1.00697 0.0
H18 H 0.93699 0.57025 0.03997 0.0
H19 H 0.87802 0.67977 0.09584 0.0
H20 H 0.15202 0.54364 0.95349 0.0
H21 H 0.04671 0.79454 0.87442 0.0
H22 H 0.21068 0.58586 0.91707 0.0
H23 H 0.05573 0.76196 0.77369 0.0
O24 O 0.06059 0.62964 0.06747 0.0
H25 H 0.96749 0.78465 0.17251 0.0
H26 H 0.95161 0.63429 0.17315 0.0
H27 H 0.95287 0.67162 0.27004 0.0
H28 H 0.96074 0.74742 0.27015 0.0
H29 H 0.96667 0.74599 0.07666 0.0
H30 H 0.81645 0.6404 0.12552 0.0
H31 H 0.81539 0.56474 0.11287 0.0
O32 O 0.99412 0.61499 0.08153 0.0
C33 C 0.99023 0.6115 0.93651 0.0
C34 C 0.87636 0.56257 0.07563 0.0
C35 C 0.84279 0.62475 0.10686 0.0
N36 N 0.91117 0.62729 0.06651 0.0
C37 C 0.91071 0.58572 0.05898 0.0
C38 C 0.8777 0.64689 0.08978 0.0
C39 C 0.84222 0.58229 0.09977 0.0
C40 C 0.05249 0.7375 0.92293 0.0
N41 N 0.05823 0.69613 0.91884 0.0
C42 C 0.05147 0.76181 0.87089 0.0
C43 C 0.05646 0.7435 0.81439 0.0
C44 C 0.06242 0.7013 0.81057 0.0
C45 C 0.06324 0.67797 0.86356 0.0
C46 C 0.17886 0.64294 0.92903 0.0
C47 C 0.11337 0.59598 0.96946 0.0
C48 C 0.1422 0.66117 0.94728 0.0
N49 N 0.10997 0.63767 0.96684 0.0
C50 C 0.14955 0.57669 0.9515 0.0
C51 C 0.18245 0.6004 0.93111 0.0
C52 C 0.03191 0.60978 0.09383 0.0
C53 C 0.96392 0.75165 0.17306 0.0
C54 C 0.95535 0.66719 0.17276 0.0
C55 C 0.95585 0.68821 0.2278 0.0
C56 C 0.96022 0.73073 0.22782 0.0
N57 N 0.95905 0.6879 0.11919 0.0
C58 C 0.96323 0.7296 0.11889 0.0
Co59 Co 0.34874 0.97136 0.26502 0.0
Co60 Co 0.37345 0.07332 0.24748 0.0
O61 O 0.33288 0.02886 0.25613 0.0
C62 C 0.29718 0.92857 0.17462 0.0
O63 O 0.33135 0.91521 0.15013 0.0
C64 C 0.31179 0.10356 0.33803 0.0
O65 O 0.30573 0.06594 0.35695 0.0
O66 O 0.40244 0.05519 0.32263 0.0
O67 O 0.39831 0.98696 0.31262 0.0
H68 H 0.51569 0.13294 0.243 0.0
H69 H 0.26364 0.99365 0.29922 0.0
O70 O 0.2987 0.95426 0.21814 0.0
H71 H 0.32566 0.93922 0.48576 0.0
H72 H 0.3242 0.82104 0.30623 0.0
H73 H 0.42684 0.92629 0.25163 0.0
H74 H 0.3656 0.94262 0.39111 0.0
H75 H 0.30426 0.89354 0.29638 0.0
O76 O 0.33818 0.11121 0.29688 0.0
H77 H 0.46408 0.07781 0.2528 0.0
H78 H 0.36829 0.16358 0.22565 0.0
H79 H 0.4481 0.85414 0.26108 0.0
H80 H 0.22227 0.98984 0.3926 0.0
H81 H 0.3966 0.80093 0.28853 0.0
H82 H 0.25335 0.96271 0.48689 0.0
O83 O 0.38145 0.975 0.18904 0.0
H84 H 0.24939 0.10751 0.12322 0.0
H85 H 0.40012 0.09811 0.12318 0.0
H86 H 0.36453 0.11891 0.02996 0.0
H87 H 0.28857 0.1239 0.02965 0.0
H88 H 0.28626 0.08626 0.2152 0.0
H89 H 0.41885 0.21969 0.2162 0.0
H90 H 0.49315 0.20448 0.22457 0.0
O91 O 0.40976 0.03766 0.19603 0.0
C92 C 0.41331 0.01901 0.33735 0.0
C93 C 0.48341 0.13993 0.23909 0.0
C94 C 0.42905 0.18863 0.22414 0.0
N95 N 0.41325 0.1174 0.23939 0.0
C96 C 0.45405 0.10883 0.24444 0.0
C97 C 0.40056 0.15674 0.22972 0.0
C98 C 0.47074 0.18007 0.22881 0.0
C99 C 0.27723 0.98122 0.33978 0.0
N100 N 0.31705 0.9684 0.33955 0.0
C101 C 0.25372 0.97941 0.39266 0.0
C102 C 0.2712 0.96428 0.44558 0.0
C103 C 0.31179 0.95118 0.44501 0.0
C104 C 0.33437 0.95346 0.3913 0.0
C105 C 0.34694 0.84394 0.29429 0.0
C106 C 0.40424 0.90333 0.26364 0.0
C107 C 0.33584 0.88506 0.28867 0.0
N108 N 0.36438 0.91418 0.27346 0.0
C109 C 0.41647 0.86252 0.26892 0.0
C110 C 0.38756 0.83268 0.28433 0.0
C111 C 0.40729 1.00212 0.17191 0.0
C112 C 0.2825 0.10549 0.12279 0.0
C113 C 0.3671 0.09981 0.12328 0.0
C114 C 0.3471 0.11181 0.07042 0.0
C115 C 0.30449 0.11464 0.07029 0.0
N116 N 0.34535 0.09091 0.17464 0.0
C117 C 0.30356 0.09356 0.17481 0.0
Co118 Co 0.96432 0.36568 0.49135 0.0
Co119 Co 0.06484 0.36746 0.54174 0.0
O120 O 0.01492 0.33738 0.51674 0.0
C121 C 0.9341 0.29322 0.56715 0.0
O122 O 0.97135 0.28269 0.58269 0.0
C123 C 0.09649 0.29531 0.46737 0.0
O124 O 0.05946 0.2817 0.45569 0.0
O125 O 0.06415 0.40027 0.46572 0.0
O126 O 0.99716 0.40881 0.44835 0.0
H127 H 0.1491 0.49464 0.576 0.0
H128 H 0.97423 0.27696 0.46234 0.0
O129 O 0.92804 0.32401 0.53277 0.0
H130 H 0.9549 0.34548 0.26578 0.0
H131 H 0.81992 0.37484 0.41213 0.0
H132 H 0.93915 0.4528 0.48752 0.0
H133 H 0.95431 0.38535 0.36033 0.0
H134 H 0.88289 0.33906 0.44307 0.0
O135 O 0.10201 0.32719 0.4998 0.0
H136 H 0.08775 0.45545 0.54537 0.0
H137 H 0.14709 0.34371 0.58924 0.0
H138 H 0.87695 0.48984 0.45632 0.0
H139 H 0.97431 0.23581 0.36904 0.0
H140 H 0.81675 0.45079 0.41833 0.0
H141 H 0.96475 0.27005 0.26969 0.0
O142 O 0.96414 0.39866 0.56727 0.0
H143 H 0.05833 0.23777 0.66571 0.0
H144 H 0.07475 0.38796 0.67234 0.0
H145 H 0.07554 0.34859 0.76737 0.0
H146 H 0.06751 0.27285 0.76452 0.0
H147 H 0.05697 0.27837 0.572 0.0
H148 H 0.20926 0.38168 0.61961 0.0
H149 H 0.21044 0.45772 0.6134 0.0
O150 O 0.03094 0.40946 0.58467 0.0
C151 C 0.03469 0.41691 0.43722 0.0
C152 C 0.14892 0.46153 0.57907 0.0
C153 C 0.1827 0.39812 0.60347 0.0
N154 N 0.1137 0.39737 0.56596 0.0
C155 C 0.11423 0.43917 0.56195 0.0
C156 C 0.14745 0.37678 0.58604 0.0
C157 C 0.18334 0.44079 0.6 0.0
C158 C 0.96952 0.29212 0.4196 0.0
N159 N 0.96407 0.33357 0.41718 0.0
C160 C 0.96984 0.26863 0.36674 0.0
C161 C 0.96456 0.28786 0.31101 0.0
C162 C 0.95908 0.33016 0.30878 0.0
C163 C 0.95896 0.35263 0.36257 0.0
C164 C 0.84597 0.3922 0.42852 0.0
C165 C 0.91317 0.43561 0.4707 0.0
C166 C 0.88168 0.3721 0.44629 0.0
N167 N 0.9148 0.39385 0.46671 0.0
C168 C 0.87799 0.45674 0.45325 0.0
C169 C 0.84422 0.43481 0.43199 0.0
C170 C 0.99322 0.41637 0.59564 0.0
C171 C 0.06207 0.27074 0.66755 0.0
C172 C 0.07094 0.35507 0.67053 0.0
C173 C 0.07158 0.33291 0.7246 0.0
C174 C 0.06713 0.29044 0.72297 0.0
N175 N 0.06611 0.33556 0.61619 0.0
C176 C 0.06161 0.29393 0.61439 0.0
Co177 Co 0.65468 0.06093 0.76798 0.0
Co178 Co 0.66897 0.95604 0.75203 0.0
O179 O 0.69051 0.01209 0.76303 0.0
C180 C 0.72803 0.08749 0.69158 0.0
O181 O 0.74281 0.05021 0.6906 0.0
C182 C 0.74013 0.94474 0.84043 0.0
O183 O 0.7519 0.98322 0.83854 0.0
O184 O 0.63087 0.96328 0.82146 0.0
O185 O 0.61367 0.02976 0.81844 0.0
H186 H 0.55598 0.85151 0.7344 0.0
H187 H 0.74225 0.06527 0.80724 0.0
O188 O 0.69425 0.09513 0.7185 0.0
H189 H 0.66156 0.10935 0.98419 0.0
H190 H 0.62421 0.21136 0.7927 0.0
H191 H 0.56514 0.07399 0.75775 0.0
H192 H 0.62725 0.0905 0.88905 0.0
H193 H 0.66878 0.15061 0.78771 0.0
O194 O 0.70973 0.93187 0.80968 0.0
H195 H 0.58508 0.92091 0.74674 0.0
H196 H 0.70572 0.87294 0.73596 0.0
H197 H 0.51942 0.13389 0.76306 0.0
H198 H 0.77787 0.08459 0.90093 0.0
H199 H 0.54894 0.20319 0.78064 0.0
H200 H 0.73752 0.10671 0.99054 0.0
O201 O 0.62534 0.04519 0.69159 0.0
H202 H 0.80517 0.96191 0.64296 0.0
H203 H 0.65935 0.92379 0.62683 0.0
H204 H 0.70487 0.91398 0.53915 0.0
H205 H 0.77851 0.93284 0.54689 0.0
H206 H 0.75844 0.97205 0.72878 0.0
H207 H 0.6779 0.80299 0.72404 0.0
H208 H 0.60251 0.79195 0.72294 0.0
O209 O 0.62683 0.97666 0.69509 0.0
C210 C 0.60929 0.99345 0.83919 0.0
C211 C 0.58888 0.85594 0.7346 0.0
C212 C 0.6573 0.82871 0.72887 0.0
N213 N 0.64704 0.90105 0.74156 0.0
C214 C 0.60554 0.89518 0.7414 0.0
C215 C 0.67288 0.86839 0.73577 0.0
C216 C 0.61501 0.82254 0.72824 0.0
C217 C 0.72437 0.07528 0.84546 0.0
N218 N 0.68259 0.07684 0.84218 0.0
C219 C 0.74477 0.08601 0.8987 0.0
C220 C 0.72212 0.09834 0.94899 0.0
C221 C 0.67953 0.09978 0.94547 0.0
C222 C 0.66022 0.08883 0.89148 0.0
C223 C 0.61098 0.18132 0.78511 0.0
C224 C 0.57819 0.10401 0.76579 0.0
C225 C 0.63608 0.1468 0.78204 0.0
N226 N 0.61955 0.10871 0.77282 0.0
C227 C 0.55216 0.13783 0.76858 0.0
C228 C 0.56875 0.17671 0.77837 0.0
C229 C 0.61412 0.01006 0.67221 0.0
C230 C 0.77318 0.95336 0.63909 0.0
C231 C 0.69118 0.93249 0.63063 0.0
C232 C 0.71691 0.92664 0.58078 0.0
C233 C 0.75821 0.93715 0.58516 0.0
N234 N 0.70604 0.94827 0.68362 0.0
C235 C 0.74652 0.95874 0.688 0.0
H236 H 0.97834 0.56463 0.16309 0.0
H237 H 0.10835 0.58769 0.13607 0.0
H238 H 0.12392 0.54083 0.22111 0.0
H239 H 0.98118 0.56366 0.32432 0.0
H240 H 0.94276 0.52402 0.3313 0.0
H241 H 0.94241 0.55792 0.26694 0.0
H242 H 0.94493 0.49539 0.19471 0.0
H243 H 0.94523 0.46128 0.25884 0.0
H244 H 0.98536 0.45831 0.20279 0.0
H245 H 0.12458 0.49125 0.31141 0.0
H246 H 0.11032 0.44395 0.39667 0.0
H247 H 0.97972 0.45696 0.36461 0.0
C248 C 0.0102 0.55998 0.17468 0.0
C249 C 0.04211 0.58013 0.1427 0.0
C250 C 0.0833 0.57271 0.15972 0.0
C251 C 0.09245 0.54616 0.20806 0.0
C252 C 0.06009 0.52738 0.23912 0.0
C253 C 0.0198 0.53406 0.22291 0.0
C254 C 0.99039 0.51109 0.26391 0.0
C255 C 0.96255 0.54096 0.29868 0.0
C256 C 0.96499 0.47965 0.2279 0.0
C257 C 0.02035 0.4902 0.30578 0.0
C258 C 0.06044 0.49977 0.2909 0.0
C259 C 0.09327 0.48361 0.32335 0.0
C260 C 0.08485 0.45677 0.3718 0.0
C261 C 0.04389 0.44643 0.38753 0.0
C262 C 0.01143 0.46386 0.354 0.0
H263 H 0.45392 0.07655 0.41034 0.0
H264 H 0.44445 0.94581 0.37301 0.0
H265 H 0.49412 0.93174 0.45231 0.0
H266 H 0.56408 0.07614 0.44248 0.0
H267 H 0.56084 0.11289 0.5032 0.0
H268 H 0.52426 0.11428 0.44224 0.0
H269 H 0.4648 0.1088 0.51971 0.0
H270 H 0.5012 0.10725 0.58087 0.0
H271 H 0.46381 0.06677 0.57274 0.0
H272 H 0.54146 0.92951 0.53565 0.0
H273 H 0.58829 0.93917 0.61983 0.0
H274 H 0.57268 0.07141 0.60769 0.0
C275 C 0.46246 0.04504 0.41881 0.0
C276 C 0.44475 0.01238 0.38511 0.0
C277 C 0.45698 0.97157 0.39781 0.0
C278 C 0.4854 0.96307 0.44299 0.0
C279 C 0.50187 0.99558 0.47547 0.0
C280 C 0.49129 0.03578 0.46426 0.0
C281 C 0.51428 0.06441 0.50711 0.0
C282 C 0.54255 0.09367 0.47163 0.0
C283 C 0.48422 0.08822 0.5475 0.0
C284 C 0.53897 0.0337 0.54397 0.0
C285 C 0.5309 0.9943 0.5244 0.0
C286 C 0.54849 0.96021 0.55113 0.0
C287 C 0.57534 0.96623 0.59921 0.0
C288 C 0.58507 1.00619 0.62049 0.0
C289 C 0.56639 0.04051 0.59231 0.0
H290 H 0.04565 0.57089 0.86458 0.0
H291 H 0.91489 0.58522 0.89502 0.0
H292 H 0.90092 0.53744 0.81059 0.0
H293 H 0.04136 0.56745 0.70266 0.0
H294 H 0.0815 0.5299 0.69612 0.0
H295 H 0.08091 0.56476 0.75933 0.0
H296 H 0.08205 0.50327 0.83361 0.0
H297 H 0.08265 0.46823 0.77064 0.0
H298 H 0.04329 0.46389 0.82772 0.0
H299 H 0.90161 0.48758 0.7214 0.0
H300 H 0.91701 0.43994 0.63728 0.0
H301 H 0.04724 0.46011 0.66594 0.0
C302 C 0.01399 0.56415 0.85373 0.0
C303 C 0.98138 0.5821 0.88663 0.0
C304 C 0.94047 0.57204 0.87062 0.0
C305 C 0.93221 0.54491 0.82264 0.0
C306 C 0.96514 0.52807 0.79096 0.0
C307 C 1.00521 0.53734 0.80601 0.0
C308 C 0.03522 0.5154 0.76503 0.0
C309 C 0.06127 0.54622 0.72863 0.0
C310 C 0.0624 0.48595 0.80143 0.0
C311 C 1.00582 0.4922 0.72453 0.0
C312 C 0.96552 0.49981 0.74003 0.0
C313 C 0.9331 0.48144 0.70894 0.0
C314 C 0.94216 0.45441 0.66114 0.0
C315 C 0.98334 0.44598 0.6448 0.0
C316 C 0.01538 0.46555 0.67703 0.0
H317 H 0.45645 0.05504 0.10684 0.0
H318 H 0.42389 0.92628 0.1235 0.0
H319 H 0.4719 0.90981 0.04036 0.0
H320 H 0.46196 0.05557 0.94374 0.0
H321 H 0.50406 0.09153 0.9414 0.0
H322 H 0.46809 0.09277 1.0034 0.0
H323 H 0.52788 0.08501 0.07945 0.0
H324 H 0.56402 0.08358 0.01771 0.0
H325 H 0.56248 0.04236 0.07203 0.0
H326 H 0.52559 0.90739 0.95686 0.0
H327 H 0.57717 0.91961 0.87666 0.0
H328 H 0.5697 0.05055 0.90989 0.0
C329 C 0.45909 0.02336 0.093 0.0
C330 C 0.43611 0.99201 0.12186 0.0
C331 C 0.44094 0.95093 0.10215 0.0
C332 C 0.46822 0.94124 0.05496 0.0
C333 C 0.4901 0.97299 0.02731 0.0
C334 C 0.48549 0.01327 0.04528 0.0
C335 C 0.51167 0.04189 1.00719 0.0
C336 C 0.48484 0.07223 0.97183 0.0
C337 C 0.54339 0.06454 0.04645 0.0
C338 C 0.53206 0.0114 0.96526 0.0
C339 C 0.51955 0.97177 0.97788 0.0
C340 C 0.53536 0.93834 0.94636 0.0
C341 C 0.56474 0.94561 0.9009 0.0
C342 C 0.57772 0.98608 0.88675 0.0
C343 C 0.56066 0.01927 0.91928 0.0
H344 H 0.2827 0.86855 0.0899 0.0
H345 H 0.22345 0.93802 0.23286 0.0
H346 H 0.16194 0.89432 0.22354 0.0
H347 H 0.18934 0.85052 0.99895 0.0
H348 H 0.20521 0.79962 0.97784 0.0
H349 H 0.24311 0.83876 0.99222 0.0
H350 H 0.27717 0.7917 0.07189 0.0
H351 H 0.23909 0.75268 0.05841 0.0
H352 H 0.24688 0.77204 0.13392 0.0
H353 H 0.10961 0.83837 0.20619 0.0
H354 H 0.06787 0.77858 0.17483 0.0
H355 H 0.16037 0.74697 0.04138 0.0
C356 C 0.25648 0.87523 0.11833 0.0
C357 C 0.25802 0.90688 0.16202 0.0
C358 C 0.22307 0.9142 0.19875 0.0
C359 C 0.18796 0.8894 0.19398 0.0
C360 C 0.188 0.85765 0.15183 0.0
C361 C 0.22108 0.85093 0.11392 0.0
C362 C 0.21384 0.81394 0.0738 0.0
C363 C 0.2128 0.82647 1.00673 0.0
C364 C 0.24616 0.78063 0.08522 0.0
C365 C 0.17188 0.80046 0.09586 0.0
C366 C 0.15752 0.82598 0.141 0.0
C367 C 0.1203 0.8185 0.17031 0.0
C368 C 0.09693 0.78432 0.15248 0.0
C369 C 0.11076 0.75822 0.10553 0.0
C370 C 0.14876 0.76657 0.07702 0.0
H371 H 0.23145 0.09966 0.37575 0.0
H372 H 0.33309 0.18396 0.34837 0.0
H373 H 0.28903 0.24175 0.37915 0.0
H374 H 0.15518 0.16624 0.31403 0.0
H375 H 0.11541 0.15092 0.36626 0.0
H376 H 0.15547 0.11551 0.34644 0.0
H377 H 0.17344 0.10639 0.45975 0.0
H378 H 0.13321 0.14152 0.47997 0.0
H379 H 0.18494 0.15093 0.50504 0.0
H380 H 0.23463 0.29013 0.41358 0.0
H381 H 0.17225 0.32696 0.44503 0.0
H382 H 0.10364 0.21264 0.44281 0.0
C383 C 0.24451 0.13023 0.37726 0.0
C384 C 0.28583 0.13737 0.36056 0.0
C385 C 0.3016 0.17787 0.36142 0.0
C386 C 0.27682 0.21085 0.37881 0.0
C387 C 0.2361 0.20294 0.39426 0.0
C388 C 0.21988 0.16372 0.39327 0.0
C389 C 0.17452 0.16409 0.40897 0.0
C390 C 0.14863 0.14826 0.35575 0.0
C391 C 0.16604 0.13926 0.46688 0.0
C392 C 0.1679 0.2096 0.41927 0.0
C393 C 0.20399 0.2313 0.41107 0.0
C394 C 0.20613 0.27353 0.41975 0.0
C395 C 0.17052 0.29417 0.43762 0.0
C396 C 0.13302 0.27275 0.44579 0.0
C397 C 0.13172 0.22991 0.436 0.0
H398 H 0.81152 0.09109 0.67207 0.0
H399 H 0.70028 0.16302 0.65885 0.0
H400 H 0.74104 0.22289 0.62563 0.0
H401 H 0.87374 0.17164 0.73289 0.0
H402 H 0.91954 0.15712 0.69259 0.0
H403 H 0.88168 0.11887 0.71186 0.0
H404 H 0.87616 0.09777 0.59915 0.0
H405 H 0.91426 0.13573 0.57959 0.0
H406 H 0.86495 0.1362 0.54299 0.0
H407 H 0.79332 0.27495 0.59441 0.0
H408 H 0.85408 0.31662 0.5686 0.0
H409 H 0.93263 0.21268 0.60654 0.0
C410 C 0.79571 0.11927 0.66128 0.0
C411 C 0.75261 0.12225 0.66747 0.0
C412 C 0.73319 0.15994 0.65419 0.0
C413 C 0.75609 0.19414 0.63531 0.0
C414 C 0.7985 0.19038 0.63048 0.0
C415 C 0.81822 0.154 0.64318 0.0
C416 C 0.86436 0.15882 0.63646 0.0
C417 C 0.8861 0.15116 0.69706 0.0
C418 C 0.8809 0.13045 0.58657 0.0
C419 C 0.86742 0.20355 0.61791 0.0
C420 C 0.82897 0.221 0.61442 0.0
C421 C 0.8236 0.26166 0.59714 0.0
C422 C 0.85836 0.2851 0.58257 0.0
C423 C 0.8982 0.26805 0.58584 0.0
C424 C 0.90267 0.22674 0.60425 0.0
H425 H 0.82335 0.93185 0.83764 0.0
H426 H 0.70941 0.88611 0.91386 0.0
H427 H 0.74588 0.82675 0.95681 0.0
H428 H 0.85937 0.83582 0.79053 0.0
H429 H 0.91268 0.84523 0.80703 0.0
H430 H 0.87943 0.88742 0.78921 0.0
H431 H 0.8985 0.92301 0.89009 0.0
H432 H 0.93232 0.88119 0.90785 0.0
H433 H 0.89245 0.89544 0.96032 0.0
H434 H 0.79266 0.77068 0.98554 0.0
H435 H 0.84766 0.72033 0.99978 0.0
H436 H 0.932 0.79916 0.90066 0.0
C437 C 0.80657 0.90999 0.8652 0.0
C438 C 0.76382 0.91386 0.87392 0.0
C439 C 0.7423 0.88388 0.90781 0.0
C440 C 0.76272 0.85008 0.93216 0.0
C441 C 0.80463 0.8464 0.92152 0.0
C442 C 0.82648 0.87547 0.88902 0.0
C443 C 0.87069 0.86214 0.88032 0.0
C444 C 0.88114 0.85737 0.81276 0.0
C445 C 0.90024 0.89224 0.91152 0.0
C446 C 0.86999 0.8209 0.91229 0.0
C447 C 0.83161 0.81281 0.93618 0.0
C448 C 0.82294 0.77674 0.96739 0.0
C449 C 0.85444 0.74827 0.97514 0.0
C450 C 0.89417 0.7557 0.95129 0.0
C451 C 0.90189 0.79247 0.91904 0.0
loop_
_geom_bond_atom_site_label_1
_geom_bond_atom_site_label_2
_geom_bond_distance
_geom_bond_site_symmetry_2
_ccdc_geom_bond_type
Co0 O2 2.143 . S
Co0 O8 2.074 . S
Co0 O11 2.093 1_556 S
Co0 O24 2.097 1_556 S
Co0 N41 2.151 . S
Co0 N49 2.214 1_556 S
Co1 O2 2.159 1_654 S
Co1 O7 2.058 1_554 S
Co1 O17 2.057 1_554 S
Co1 O32 2.037 . S
Co1 N36 2.145 . S
Co1 N57 2.257 . S
O2 Co0 2.143 . S
O2 Co1 2.159 1_456 S
C3 O4 1.278 . S
C3 O11 1.224 . S
O4 C3 1.278 . S
C5 O6 1.245 . S
C5 O17 1.232 . S
O6 C5 1.245 . S
O7 Co1 2.058 1_556 S
O7 C33 1.270 1_655 S
O8 Co0 2.074 . S
O8 C33 1.256 . S
H9 C34 0.930 . S
H10 C40 0.930 . S
O11 Co0 2.093 1_554 S
O11 C3 1.224 . S
H12 C44 0.929 . S
H13 C46 0.930 . S
H14 C47 0.930 . S
H15 C45 0.929 . S
H16 C48 0.928 . S
O17 Co1 2.057 1_556 S
O17 C5 1.232 . S
H18 C37 0.929 . S
H19 C38 0.929 1_556 S
H20 C50 0.931 . S
H21 C42 0.929 . S
H22 C51 0.930 . S
H23 C43 0.931 . S
O24 Co0 2.097 1_554 S
O24 C52 1.214 . S
H25 C53 0.929 . S
H26 C54 0.929 . S
H27 C55 0.930 . S
H28 C56 0.929 . S
H29 C58 0.930 . S
H30 C35 0.930 . S
H31 C39 0.930 . S
O32 Co1 2.037 . S
O32 C52 1.234 1_655 S
C33 O7 1.270 1_455 S
C33 O8 1.256 . S
C34 H9 0.930 . S
C34 C37 1.388 . S
C34 C39 1.418 . S
C35 H30 0.930 . S
C35 C38 1.404 . S
C35 C39 1.353 . S
N36 Co1 2.145 . S
N36 C37 1.397 . S
N36 C38 1.334 . S
C37 H18 0.929 . S
C37 C34 1.388 . S
C37 N36 1.397 . S
C38 H19 0.929 1_554 S
C38 C35 1.404 . S
C38 N36 1.334 . S
C39 H31 0.930 . S
C39 C34 1.418 . S
C39 C35 1.353 . S
C40 H10 0.930 . S
C40 N41 1.330 . S
C40 C42 1.446 . S
N41 Co0 2.151 . S
N41 C40 1.330 . S
N41 C45 1.418 . S
C42 H21 0.929 . S
C42 C40 1.446 . S
C42 C43 1.332 . S
C43 H23 0.931 . S
C43 C42 1.332 . S
C43 C44 1.267 . S
C44 H12 0.929 . S
C44 C43 1.267 . S
C44 C45 1.251 . S
C45 H15 0.929 . S
C45 N41 1.418 . S
C45 C44 1.251 . S
C46 H13 0.930 . S
C46 C48 1.406 . S
C46 C51 1.263 . S
C47 H14 0.930 . S
C47 N49 1.326 . S
C47 C50 1.357 . S
C48 H16 0.928 . S
C48 C46 1.406 . S
C48 N49 1.260 1_556 S
N49 Co0 2.214 1_554 S
N49 C47 1.326 . S
N49 C48 1.260 1_554 S
C50 H20 0.931 . S
C50 C47 1.357 . S
C50 C51 1.310 1_554 S
C51 H22 0.930 . S
C51 C46 1.263 . S
C51 C50 1.310 1_556 S
C52 O24 1.214 . S
C52 O32 1.234 1_455 S
C53 H25 0.929 . S
C53 C56 1.391 . S
C53 C58 1.391 . S
C54 H26 0.929 . S
C54 C55 1.390 . S
C54 N57 1.391 . S
C55 H27 0.930 . S
C55 C54 1.390 . S
C55 C56 1.392 . S
C56 H28 0.929 . S
C56 C53 1.391 . S
C56 C55 1.392 . S
N57 Co1 2.257 . S
N57 C54 1.391 . S
N57 C58 1.388 . S
C58 H29 0.930 . S
C58 C53 1.391 . S
C58 N57 1.388 . S
Co59 O61 2.143 1_565 S
Co59 O67 2.074 . S
Co59 O70 2.093 . S
Co59 O83 2.097 . S
Co59 N100 2.151 . S
Co59 N108 2.214 . S
Co60 O61 2.160 . S
Co60 O66 2.058 . S
Co60 O76 2.057 . S
Co60 O91 2.037 . S
Co60 N95 2.145 . S
Co60 N116 2.257 . S
O61 Co59 2.143 1_545 S
O61 Co60 2.160 . S
C62 O63 1.278 . S
C62 O70 1.224 . S
O63 C62 1.278 . S
C64 O65 1.245 . S
C64 O76 1.232 . S
O65 C64 1.245 . S
O66 Co60 2.058 . S
O66 C92 1.269 . S
O67 Co59 2.074 . S
O67 C92 1.257 1_565 S
H68 C93 0.930 . S
H69 C99 0.930 . S
O70 Co59 2.093 . S
O70 C62 1.224 . S
H71 C103 0.929 . S
H72 C105 0.930 . S
H73 C106 0.930 . S
H74 C104 0.929 . S
H75 C107 0.928 . S
O76 Co60 2.057 . S
O76 C64 1.232 . S
H77 C96 0.929 . S
H78 C97 0.929 . S
H79 C109 0.931 . S
H80 C101 0.929 . S
H81 C110 0.930 . S
H82 C102 0.931 . S
O83 Co59 2.097 . S
O83 C111 1.205 1_565 S
H84 C112 0.929 . S
H85 C113 0.929 . S
H86 C114 0.930 . S
H87 C115 0.929 . S
H88 C117 0.930 . S
H89 C94 0.930 . S
H90 C98 0.930 . S
O91 Co60 2.037 . S
O91 C111 1.243 . S
C92 O66 1.269 . S
C92 O67 1.257 1_545 S
C93 H68 0.930 . S
C93 C96 1.388 . S
C93 C98 1.418 . S
C94 H89 0.930 . S
C94 C97 1.404 . S
C94 C98 1.353 . S
N95 Co60 2.145 . S
N95 C96 1.397 . S
N95 C97 1.334 . S
C96 H77 0.929 . S
C96 C93 1.388 . S
C96 N95 1.397 . S
C97 H78 0.929 . S
C97 C94 1.404 . S
C97 N95 1.334 . S
C98 H90 0.930 . S
C98 C93 1.418 . S
C98 C94 1.353 . S
C99 H69 0.930 . S
C99 N100 1.330 . S
C99 C101 1.446 . S
N100 Co59 2.151 . S
N100 C99 1.330 . S
N100 C104 1.418 . S
C101 H80 0.929 . S
C101 C99 1.446 . S
C101 C102 1.332 . S
C102 H82 0.931 . S
C102 C101 1.332 . S
C102 C103 1.267 . S
C103 H71 0.929 . S
C103 C102 1.267 . S
C103 C104 1.251 . S
C104 H74 0.929 . S
C104 N100 1.418 . S
C104 C103 1.251 . S
C105 H72 0.930 . S
C105 C107 1.406 . S
C105 C110 1.261 . S
C106 H73 0.930 . S
C106 N108 1.325 . S
C106 C109 1.357 . S
C107 H75 0.928 . S
C107 C105 1.406 . S
C107 N108 1.261 . S
N108 Co59 2.214 . S
N108 C106 1.325 . S
N108 C107 1.261 . S
C109 H79 0.931 . S
C109 C106 1.357 . S
C109 C110 1.312 . S
C110 H81 0.930 . S
C110 C105 1.261 . S
C110 C109 1.312 . S
C111 O83 1.205 1_545 S
C111 O91 1.243 . S
C112 H84 0.929 . S
C112 C115 1.391 . S
C112 C117 1.391 . S
C113 H85 0.929 . S
C113 C114 1.390 . S
C113 N116 1.391 . S
C114 H86 0.930 . S
C114 C113 1.390 . S
C114 C115 1.392 . S
C115 H87 0.929 . S
C115 C112 1.391 . S
C115 C114 1.392 . S
N116 Co60 2.257 . S
N116 C113 1.391 . S
N116 C117 1.388 . S
C117 H88 0.930 . S
C117 C112 1.391 . S
C117 N116 1.388 . S
Co118 O120 2.143 1_655 S
Co118 O126 2.074 . S
Co118 O129 2.093 . S
Co118 O142 2.097 . S
Co118 N159 2.151 . S
Co118 N167 2.214 . S
Co119 O120 2.160 . S
Co119 O125 2.058 . S
Co119 O135 2.057 . S
Co119 O150 2.037 . S
Co119 N154 2.145 . S
Co119 N175 2.257 . S
O120 Co118 2.143 1_455 S
O120 Co119 2.160 . S
C121 O122 1.278 . S
C121 O129 1.224 . S
O122 C121 1.278 . S
C123 O124 1.245 . S
C123 O135 1.232 . S
O124 C123 1.245 . S
O125 Co119 2.058 . S
O125 C151 1.269 . S
O126 Co118 2.074 . S
O126 C151 1.257 1_655 S
H127 C152 0.930 . S
H128 C158 0.930 . S
O129 Co118 2.093 . S
O129 C121 1.224 . S
H130 C162 0.929 . S
H131 C164 0.930 . S
H132 C165 0.930 . S
H133 C163 0.929 . S
H134 C166 0.928 . S
O135 Co119 2.057 . S
O135 C123 1.232 . S
H136 C155 0.929 . S
H137 C156 0.929 . S
H138 C168 0.931 . S
H139 C160 0.929 . S
H140 C169 0.930 . S
H141 C161 0.931 . S
O142 Co118 2.097 . S
O142 C170 1.200 1_655 S
H143 C171 0.929 . S
H144 C172 0.929 . S
H145 C173 0.930 . S
H146 C174 0.929 . S
H147 C176 0.930 . S
H148 C153 0.930 . S
H149 C157 0.930 . S
O150 Co119 2.037 . S
O150 C170 1.248 . S
C151 O125 1.269 . S
C151 O126 1.257 1_455 S
C152 H127 0.930 . S
C152 C155 1.388 . S
C152 C157 1.418 . S
C153 H148 0.930 . S
C153 C156 1.404 . S
C153 C157 1.353 . S
N154 Co119 2.145 . S
N154 C155 1.397 . S
N154 C156 1.334 . S
C155 H136 0.929 . S
C155 C152 1.388 . S
C155 N154 1.397 . S
C156 H137 0.929 . S
C156 C153 1.404 . S
C156 N154 1.334 . S
C157 H149 0.930 . S
C157 C152 1.418 . S
C157 C153 1.353 . S
C158 H128 0.930 . S
C158 N159 1.330 . S
C158 C160 1.446 . S
N159 Co118 2.151 . S
N159 C158 1.330 . S
N159 C163 1.418 . S
C160 H139 0.929 . S
C160 C158 1.446 . S
C160 C161 1.332 . S
C161 H141 0.931 . S
C161 C160 1.332 . S
C161 C162 1.267 . S
C162 H130 0.929 . S
C162 C161 1.267 . S
C162 C163 1.251 . S
C163 H133 0.929 . S
C163 N159 1.418 . S
C163 C162 1.251 . S
C164 H131 0.930 . S
C164 C166 1.406 . S
C164 C169 1.261 . S
C165 H132 0.930 . S
C165 N167 1.325 . S
C165 C168 1.357 . S
C166 H134 0.928 . S
C166 C164 1.406 . S
C166 N167 1.261 . S
N167 Co118 2.214 . S
N167 C165 1.325 . S
N167 C166 1.261 . S
C168 H138 0.931 . S
C168 C165 1.357 . S
C168 C169 1.312 . S
C169 H140 0.930 . S
C169 C164 1.261 . S
C169 C168 1.312 . S
C170 O142 1.200 1_455 S
C170 O150 1.248 . S
C171 H143 0.929 . S
C171 C174 1.391 . S
C171 C176 1.391 . S
C172 H144 0.929 . S
C172 C173 1.390 . S
C172 N175 1.391 . S
C173 H145 0.930 . S
C173 C172 1.390 . S
C173 C174 1.392 . S
C174 H146 0.929 . S
C174 C171 1.391 . S
C174 C173 1.392 . S
N175 Co119 2.257 . S
N175 C172 1.391 . S
N175 C176 1.388 . S
C176 H147 0.930 . S
C176 C171 1.391 . S
C176 N175 1.388 . S
Co177 O179 2.143 . S
Co177 O185 2.074 . S
Co177 O188 2.093 . S
Co177 O201 2.097 . S
Co177 N218 2.151 . S
Co177 N226 2.214 . S
Co178 O179 2.160 1_565 S
Co178 O184 2.058 . S
Co178 O194 2.057 . S
Co178 O209 2.037 . S
Co178 N213 2.145 . S
Co178 N234 2.257 . S
O179 Co177 2.143 . S
O179 Co178 2.160 1_545 S
C180 O181 1.278 . S
C180 O188 1.224 . S
O181 C180 1.278 . S
C182 O183 1.245 . S
C182 O194 1.232 . S
O183 C182 1.245 . S
O184 Co178 2.058 . S
O184 C210 1.271 . S
O185 Co177 2.074 . S
O185 C210 1.256 1_545 S
H186 C211 0.930 . S
H187 C217 0.930 . S
O188 Co177 2.093 . S
O188 C180 1.224 . S
H189 C221 0.929 . S
H190 C223 0.930 . S
H191 C224 0.930 . S
H192 C222 0.929 . S
H193 C225 0.928 . S
O194 Co178 2.057 . S
O194 C182 1.232 . S
H195 C214 0.929 . S
H196 C215 0.929 . S
H197 C227 0.931 . S
H198 C219 0.929 . S
H199 C228 0.930 . S
H200 C220 0.931 . S
O201 Co177 2.097 . S
O201 C229 1.214 . S
H202 C230 0.929 . S
H203 C231 0.929 . S
H204 C232 0.930 . S
H205 C233 0.929 . S
H206 C235 0.930 . S
H207 C212 0.930 . S
H208 C216 0.930 . S
O209 Co178 2.037 . S
O209 C229 1.234 1_565 S
C210 O184 1.271 . S
C210 O185 1.256 1_565 S
C211 H186 0.930 . S
C211 C214 1.388 . S
C211 C216 1.418 . S
C212 H207 0.930 . S
C212 C215 1.404 . S
C212 C216 1.353 . S
N213 Co178 2.145 . S
N213 C214 1.397 . S
N213 C215 1.334 . S
C214 H195 0.929 . S
C214 C211 1.388 . S
C214 N213 1.397 . S
C215 H196 0.929 . S
C215 C212 1.404 . S
C215 N213 1.334 . S
C216 H208 0.930 . S
C216 C211 1.418 . S
C216 C212 1.353 . S
C217 H187 0.930 . S
C217 N218 1.330 . S
C217 C219 1.446 . S
N218 Co177 2.151 . S
N218 C217 1.330 . S
N218 C222 1.418 . S
C219 H198 0.929 . S
C219 C217 1.446 . S
C219 C220 1.332 . S
C220 H200 0.931 . S
C220 C219 1.332 . S
C220 C221 1.267 . S
C221 H189 0.929 . S
C221 C220 1.267 . S
C221 C222 1.251 . S
C222 H192 0.929 . S
C222 N218 1.418 . S
C222 C221 1.251 . S
C223 H190 0.930 . S
C223 C225 1.406 . S
C223 C228 1.261 . S
C224 H191 0.930 . S
C224 N226 1.325 . S
C224 C227 1.357 . S
C225 H193 0.928 . S
C225 C223 1.406 . S
C225 N226 1.261 . S
N226 Co177 2.214 . S
N226 C224 1.325 . S
N226 C225 1.261 . S
C227 H197 0.931 . S
C227 C224 1.357 . S
C227 C228 1.312 . S
C228 H199 0.930 . S
C228 C223 1.261 . S
C228 C227 1.312 . S
C229 O201 1.214 . S
C229 O209 1.234 1_545 S
C230 H202 0.929 . S
C230 C233 1.391 . S
C230 C235 1.391 . S
C231 H203 0.929 . S
C231 C232 1.390 . S
C231 N234 1.391 . S
C232 H204 0.930 . S
C232 C231 1.390 . S
C232 C233 1.392 . S
C233 H205 0.929 . S
C233 C230 1.391 . S
C233 C232 1.392 . S
N234 Co178 2.257 . S
N234 C231 1.391 . S
N234 C235 1.388 . S
C235 H206 0.930 . S
C235 C230 1.391 . S
C235 N234 1.388 . S
H236 C248 0.930 . S
H237 C250 0.930 . S
H238 C251 0.930 . S
H239 C255 0.959 . S
H240 C255 0.959 . S
H241 C255 0.961 . S
H242 C256 0.960 . S
H243 C256 0.961 . S
H244 C256 0.959 . S
H245 C259 0.929 . S
H246 C260 0.929 1_655 S
H247 C262 0.930 . S
C248 H236 0.930 . S
C248 C249 1.399 . S
C248 C253 1.399 . S
C249 C248 1.399 . S
C249 C250 1.376 1_455 S
C250 H237 0.930 . S
C250 C249 1.376 1_655 S
C250 C251 1.388 . S
C251 H238 0.930 . S
C251 C250 1.388 . S
C251 C252 1.390 1_655 S
C252 C251 1.390 1_455 S
C252 C253 1.394 . S
C252 C258 1.465 . S
C253 C248 1.399 . S
C253 C252 1.394 . S
C253 C254 1.516 . S
C254 C253 1.516 . S
C254 C255 1.502 . S
C254 C256 1.561 1_455 S
C254 C257 1.526 . S
C255 H239 0.959 . S
C255 H240 0.959 . S
C255 H241 0.961 . S
C255 C254 1.502 . S
C256 H242 0.960 . S
C256 H243 0.961 . S
C256 H244 0.959 . S
C256 C254 1.561 1_655 S
C257 C254 1.526 . S
C257 C258 1.396 . S
C257 C262 1.390 . S
C258 C252 1.465 . S
C258 C257 1.396 . S
C258 C259 1.399 1_455 S
C259 H245 0.929 . S
C259 C258 1.399 1_655 S
C259 C260 1.384 1_655 S
C260 H246 0.929 1_455 S
C260 C259 1.384 1_455 S
C260 C261 1.392 . S
C261 C260 1.392 . S
C261 C262 1.387 . S
C262 H247 0.930 . S
C262 C257 1.390 . S
C262 C261 1.387 . S
H263 C275 0.930 . S
H264 C277 0.930 . S
H265 C278 0.930 . S
H266 C282 0.959 . S
H267 C282 0.959 . S
H268 C282 0.961 . S
H269 C283 0.960 . S
H270 C283 0.961 . S
H271 C283 0.959 . S
H272 C286 0.929 . S
H273 C287 0.931 . S
H274 C289 0.930 . S
C275 H263 0.930 . S
C275 C276 1.399 . S
C275 C280 1.399 . S
C276 C275 1.399 . S
C276 C277 1.376 1_545 S
C277 H264 0.930 . S
C277 C276 1.376 1_565 S
C277 C278 1.388 . S
C278 H265 0.930 . S
C278 C277 1.388 . S
C278 C279 1.390 . S
C279 C278 1.390 . S
C279 C280 1.394 1_565 S
C279 C285 1.465 . S
C280 C275 1.399 . S
C280 C279 1.394 1_545 S
C280 C281 1.516 . S
C281 C280 1.516 . S
C281 C282 1.502 . S
C281 C283 1.561 . S
C281 C284 1.526 . S
C282 H266 0.959 . S
C282 H267 0.959 . S
C282 H268 0.961 . S
C282 C281 1.502 . S
C283 H269 0.960 . S
C283 H270 0.961 . S
C283 H271 0.959 . S
C283 C281 1.561 . S
C284 C281 1.526 . S
C284 C285 1.396 1_545 S
C284 C289 1.390 . S
C285 C279 1.465 . S
C285 C284 1.396 1_565 S
C285 C286 1.399 . S
C286 H272 0.929 . S
C286 C285 1.399 . S
C286 C287 1.385 . S
C287 H273 0.931 . S
C287 C286 1.385 . S
C287 C288 1.389 1_565 S
C288 C287 1.389 1_545 S
C288 C289 1.387 . S
C289 H274 0.930 . S
C289 C284 1.390 . S
C289 C288 1.387 . S
H290 C302 0.930 . S
H291 C304 0.930 . S
H292 C305 0.930 . S
H293 C309 0.959 . S
H294 C309 0.959 . S
H295 C309 0.961 . S
H296 C310 0.960 . S
H297 C310 0.961 . S
H298 C310 0.959 . S
H299 C313 0.929 . S
H300 C314 0.931 . S
H301 C316 0.930 . S
C302 H290 0.930 . S
C302 C303 1.399 1_455 S
C302 C307 1.399 . S
C303 C302 1.399 1_655 S
C303 C304 1.376 . S
C304 H291 0.930 . S
C304 C303 1.376 . S
C304 C305 1.388 . S
C305 H292 0.930 . S
C305 C304 1.388 . S
C305 C306 1.390 . S
C306 C305 1.390 . S
C306 C307 1.394 1_655 S
C306 C312 1.465 . S
C307 C302 1.399 . S
C307 C306 1.394 1_455 S
C307 C308 1.516 . S
C308 C307 1.516 . S
C308 C309 1.502 . S
C308 C310 1.561 1_455 S
C308 C311 1.526 . S
C309 H293 0.959 . S
C309 H294 0.959 . S
C309 H295 0.961 . S
C309 C308 1.502 . S
C310 H296 0.960 . S
C310 H297 0.961 . S
C310 H298 0.959 . S
C310 C308 1.561 1_655 S
C311 C308 1.526 . S
C311 C312 1.396 1_455 S
C311 C316 1.390 . S
C312 C306 1.465 . S
C312 C311 1.396 1_655 S
C312 C313 1.399 . S
C313 H299 0.929 . S
C313 C312 1.399 . S
C313 C314 1.385 . S
C314 H300 0.931 . S
C314 C313 1.385 . S
C314 C315 1.389 . S
C315 C314 1.389 . S
C315 C316 1.387 1_655 S
C316 H301 0.930 . S
C316 C311 1.390 . S
C316 C315 1.387 1_455 S
H317 C329 0.930 . S
H318 C331 0.930 . S
H319 C332 0.930 1_556 S
H320 C336 0.959 . S
H321 C336 0.959 . S
H322 C336 0.961 . S
H323 C337 0.960 . S
H324 C337 0.961 . S
H325 C337 0.959 1_556 S
H326 C340 0.929 . S
H327 C341 0.931 . S
H328 C343 0.930 . S
C329 H317 0.930 . S
C329 C330 1.390 1_565 S
C329 C334 1.399 . S
C330 C329 1.390 1_545 S
C330 C331 1.387 . S
C331 H318 0.930 . S
C331 C330 1.387 . S
C331 C332 1.388 . S
C332 H319 0.930 1_554 S
C332 C331 1.388 . S
C332 C333 1.390 . S
C333 C332 1.390 . S
C333 C334 1.394 1_545 S
C333 C339 1.465 1_554 S
C334 C329 1.399 . S
C334 C333 1.394 1_565 S
C334 C335 1.516 . S
C335 C334 1.516 . S
C335 C336 1.502 . S
C335 C337 1.561 . S
C335 C338 1.526 1_554 S
C336 H320 0.959 . S
C336 H321 0.959 . S
C336 H322 0.961 . S
C336 C335 1.502 . S
C337 H323 0.960 . S
C337 H324 0.961 . S
C337 H325 0.959 1_554 S
C337 C335 1.561 . S
C338 C335 1.526 1_556 S
C338 C339 1.396 1_565 S
C338 C343 1.390 . S
C339 C333 1.465 1_556 S
C339 C338 1.396 1_545 S
C339 C340 1.399 . S
C340 H326 0.929 . S
C340 C339 1.399 . S
C340 C341 1.385 . S
C341 H327 0.931 . S
C341 C340 1.385 . S
C341 C342 1.389 . S
C342 C341 1.389 . S
C342 C343 1.387 1_545 S
C343 H328 0.930 . S
C343 C338 1.390 . S
C343 C342 1.387 1_565 S
H344 C356 0.930 . S
H345 C358 0.930 . S
H346 C359 0.930 . S
H347 C363 0.959 . S
H348 C363 0.959 1_556 S
H349 C363 0.961 . S
H350 C364 0.960 . S
H351 C364 0.961 1_556 S
H352 C364 0.959 . S
H353 C367 0.929 . S
H354 C368 0.931 . S
H355 C370 0.930 . S
C356 H344 0.930 . S
C356 C357 1.399 . S
C356 C361 1.399 . S
C357 C356 1.399 . S
C357 C358 1.376 . S
C358 H345 0.930 . S
C358 C357 1.376 . S
C358 C359 1.388 . S
C359 H346 0.930 . S
C359 C358 1.388 . S
C359 C360 1.390 . S
C360 C359 1.390 . S
C360 C361 1.394 . S
C360 C366 1.465 . S
C361 C356 1.399 . S
C361 C360 1.394 . S
C361 C362 1.516 . S
C362 C361 1.516 . S
C362 C363 1.502 . S
C362 C364 1.561 . S
C362 C365 1.526 . S
C363 H347 0.959 . S
C363 H348 0.959 1_554 S
C363 H349 0.961 . S
C363 C362 1.502 . S
C364 H350 0.960 . S
C364 H351 0.961 1_554 S
C364 H352 0.959 . S
C364 C362 1.561 . S
C365 C362 1.526 . S
C365 C366 1.396 . S
C365 C370 1.390 . S
C366 C360 1.465 . S
C366 C365 1.396 . S
C366 C367 1.399 . S
C367 H353 0.929 . S
C367 C366 1.399 . S
C367 C368 1.385 . S
C368 H354 0.931 . S
C368 C367 1.385 . S
C368 C369 1.389 . S
C369 C368 1.389 . S
C369 C370 1.387 . S
C370 H355 0.930 . S
C370 C365 1.390 . S
C370 C369 1.387 . S
H371 C383 0.930 . S
H372 C385 0.930 . S
H373 C386 0.930 . S
H374 C390 0.959 . S
H375 C390 0.959 . S
H376 C390 0.961 . S
H377 C391 0.960 . S
H378 C391 0.961 . S
H379 C391 0.959 . S
H380 C394 0.929 . S
H381 C395 0.931 . S
H382 C397 0.930 . S
C383 H371 0.930 . S
C383 C384 1.399 . S
C383 C388 1.399 . S
C384 C383 1.399 . S
C384 C385 1.376 . S
C385 H372 0.930 . S
C385 C384 1.376 . S
C385 C386 1.388 . S
C386 H373 0.930 . S
C386 C385 1.388 . S
C386 C387 1.390 . S
C387 C386 1.390 . S
C387 C388 1.394 . S
C387 C393 1.465 . S
C388 C383 1.399 . S
C388 C387 1.394 . S
C388 C389 1.516 . S
C389 C388 1.516 . S
C389 C390 1.502 . S
C389 C391 1.561 . S
C389 C392 1.526 . S
C390 H374 0.959 . S
C390 H375 0.959 . S
C390 H376 0.961 . S
C390 C389 1.502 . S
C391 H377 0.960 . S
C391 H378 0.961 . S
C391 H379 0.959 . S
C391 C389 1.561 . S
C392 C389 1.526 . S
C392 C393 1.396 . S
C392 C397 1.390 . S
C393 C387 1.465 . S
C393 C392 1.396 . S
C393 C394 1.399 . S
C394 H380 0.929 . S
C394 C393 1.399 . S
C394 C395 1.385 . S
C395 H381 0.931 . S
C395 C394 1.385 . S
C395 C396 1.389 . S
C396 C395 1.389 . S
C396 C397 1.387 . S
C397 H382 0.930 . S
C397 C392 1.390 . S
C397 C396 1.387 . S
H398 C410 0.930 . S
H399 C412 0.930 . S
H400 C413 0.930 . S
H401 C417 0.959 . S
H402 C417 0.959 . S
H403 C417 0.961 . S
H404 C418 0.960 . S
H405 C418 0.961 . S
H406 C418 0.959 . S
H407 C421 0.929 . S
H408 C422 0.931 . S
H409 C424 0.930 . S
C410 H398 0.930 . S
C410 C411 1.399 . S
C410 C415 1.399 . S
C411 C410 1.399 . S
C411 C412 1.376 . S
C412 H399 0.930 . S
C412 C411 1.376 . S
C412 C413 1.388 . S
C413 H400 0.930 . S
C413 C412 1.388 . S
C413 C414 1.390 . S
C414 C413 1.390 . S
C414 C415 1.394 . S
C414 C420 1.465 . S
C415 C410 1.399 . S
C415 C414 1.394 . S
C415 C416 1.516 . S
C416 C415 1.516 . S
C416 C417 1.502 . S
C416 C418 1.561 . S
C416 C419 1.526 . S
C417 H401 0.959 . S
C417 H402 0.959 . S
C417 H403 0.961 . S
C417 C416 1.502 . S
C418 H404 0.960 . S
C418 H405 0.961 . S
C418 H406 0.959 . S
C418 C416 1.561 . S
C419 C416 1.526 . S
C419 C420 1.396 . S
C419 C424 1.390 . S
C420 C414 1.465 . S
C420 C419 1.396 . S
C420 C421 1.399 . S
C421 H407 0.929 . S
C421 C420 1.399 . S
C421 C422 1.385 . S
C422 H408 0.931 . S
C422 C421 1.385 . S
C422 C423 1.389 . S
C423 C422 1.389 . S
C423 C424 1.387 . S
C424 H409 0.930 . S
C424 C419 1.390 . S
C424 C423 1.387 . S
H425 C437 0.930 . S
H426 C439 0.930 . S
H427 C440 0.930 . S
H428 C444 0.959 . S
H429 C444 0.959 . S
H430 C444 0.961 . S
H431 C445 0.960 1_554 S
H432 C445 0.961 1_554 S
H433 C445 0.959 . S
H434 C448 0.929 . S
H435 C449 0.931 . S
H436 C451 0.930 . S
C437 H425 0.930 . S
C437 C438 1.399 . S
C437 C442 1.399 . S
C438 C437 1.399 . S
C438 C439 1.376 . S
C439 H426 0.930 . S
C439 C438 1.376 . S
C439 C440 1.388 . S
C440 H427 0.930 . S
C440 C439 1.388 . S
C440 C441 1.390 . S
C441 C440 1.390 . S
C441 C442 1.394 . S
C441 C447 1.465 . S
C442 C437 1.399 . S
C442 C441 1.394 . S
C442 C443 1.516 . S
C443 C442 1.516 . S
C443 C444 1.502 . S
C443 C445 1.561 . S
C443 C446 1.526 . S
C444 H428 0.959 . S
C444 H429 0.959 . S
C444 H430 0.961 . S
C444 C443 1.502 . S
C445 H431 0.960 1_556 S
C445 H432 0.961 1_556 S
C445 H433 0.959 . S
C445 C443 1.561 . S
C446 C443 1.526 . S
C446 C447 1.396 . S
C446 C451 1.390 . S
C447 C441 1.465 . S
C447 C446 1.396 . S
C447 C448 1.399 . S
C448 H434 0.929 . S
C448 C447 1.399 . S
C448 C449 1.385 . S
C449 H435 0.931 . S
C449 C448 1.385 . S
C449 C450 1.389 . S
C450 C449 1.389 . S
C450 C451 1.387 . S
C451 H436 0.930 . S
C451 C446 1.390 . S
C451 C450 1.387 . S
C249 C52 1.657 . S
C261 C151 1.652 . S
C276 C92 1.653 . S
C288 C229 1.649 . S
C303 C33 1.654 1_655 S
C315 C170 1.660 1_655 S
C330 C111 1.640 . S
C342 C210 1.657 1_545 S
C357 C62 1.480 . S
C369 C3 1.480 . S
C384 C64 1.485 . S
C396 C123 1.491 . S
C411 C180 1.477 . S
C423 C121 1.477 . S
C438 C182 1.484 . S
C450 C5 1.491 . S
