# Generated by pormake.
# Topology cha, (4)-cn, num edge types: 1
# Building blocks:
#     Node 0, Type 0, BuildingBlock: QUQFOY_clean_sbu_3, # of connection points: 4
#     Node 1, Type 0, BuildingBlock: QUQFOY_clean_sbu_3, # of connection points: 4
#     Node 2, Type 0, BuildingBlock: QUQFOY_clean_sbu_3, # of connection points: 4
#     Node 3, Type 0, BuildingBlock: QUQFOY_clean_sbu_3, # of connection points: 4
#     Node 4, Type 0, BuildingBlock: QUQFOY_clean_sbu_3, # of connection points: 4
#     Node 5, Type 0, BuildingBlock: QUQFOY_clean_sbu_3, # of connection points: 4
#     Node 6, Type 0, BuildingBlock: QUQFOY_clean_sbu_3, # of connection points: 4
#     Node 7, Type 0, BuildingBlock: QUQFOY_clean_sbu_3, # of connection points: 4
#     Node 8, Type 0, BuildingBlock: QUQFOY_clean_sbu_3, # of connection points: 4
#     Node 9, Type 0, BuildingBlock: QUQFOY_clean_sbu_3, # of connection points: 4
#     Node 10, Type 0, BuildingBlock: QUQFOY_clean_sbu_3, # of connection points: 4
#     Node 11, Type 0, BuildingBlock: QUQFOY_clean_sbu_3, # of connection points: 4
#     Node 12, Type 0, BuildingBlock: QUQFOY_clean_sbu_3, # of connection points: 4
#     Node 13, Type 0, BuildingBlock: QUQFOY_clean_sbu_3, # of connection points: 4
#     Node 14, Type 0, BuildingBlock: QUQFOY_clean_sbu_3, # of connection points: 4
#     Node 15, Type 0, BuildingBlock: QUQFOY_clean_sbu_3, # of connection points: 4
#     Node 16, Type 0, BuildingBlock: QUQFOY_clean_sbu_3, # of connection points: 4
#     Node 17, Type 0, BuildingBlock: QUQFOY_clean_sbu_3, # of connection points: 4
#     Node 18, Type 0, BuildingBlock: QUQFOY_clean_sbu_3, # of connection points: 4
#     Node 19, Type 0, BuildingBlock: QUQFOY_clean_sbu_3, # of connection points: 4
#     Node 20, Type 0, BuildingBlock: QUQFOY_clean_sbu_3, # of connection points: 4
#     Node 21, Type 0, BuildingBlock: QUQFOY_clean_sbu_3, # of connection points: 4
#     Node 22, Type 0, BuildingBlock: QUQFOY_clean_sbu_3, # of connection points: 4
#     Node 23, Type 0, BuildingBlock: QUQFOY_clean_sbu_3, # of connection points: 4
#     Node 24, Type 0, BuildingBlock: QUQFOY_clean_sbu_3, # of connection points: 4
#     Node 25, Type 0, BuildingBlock: QUQFOY_clean_sbu_3, # of connection points: 4
#     Node 26, Type 0, BuildingBlock: QUQFOY_clean_sbu_3, # of connection points: 4
#     Node 27, Type 0, BuildingBlock: QUQFOY_clean_sbu_3, # of connection points: 4
#     Node 28, Type 0, BuildingBlock: QUQFOY_clean_sbu_3, # of connection points: 4
#     Node 29, Type 0, BuildingBlock: QUQFOY_clean_sbu_3, # of connection points: 4
#     Node 30, Type 0, BuildingBlock: QUQFOY_clean_sbu_3, # of connection points: 4
#     Node 31, Type 0, BuildingBlock: QUQFOY_clean_sbu_3, # of connection points: 4
#     Node 32, Type 0, BuildingBlock: QUQFOY_clean_sbu_3, # of connection points: 4
#     Node 33, Type 0, BuildingBlock: QUQFOY_clean_sbu_3, # of connection points: 4
#     Node 34, Type 0, BuildingBlock: QUQFOY_clean_sbu_3, # of connection points: 4
#     Node 35, Type 0, BuildingBlock: QUQFOY_clean_sbu_3, # of connection points: 4
#     Edge 36, Type (0, 0), None
#     Edge 37, Type (0, 0), None
#     Edge 38, Type (0, 0), None
#     Edge 39, Type (0, 0), None
#     Edge 40, Type (0, 0), None
#     Edge 41, Type (0, 0), None
#     Edge 42, Type (0, 0), None
#     Edge 43, Type (0, 0), None
#     Edge 44, Type (0, 0), None
#     Edge 45, Type (0, 0), None
#     Edge 46, Type (0, 0), None
#     Edge 47, Type (0, 0), None
#     Edge 48, Type (0, 0), None
#     Edge 49, Type (0, 0), None
#     Edge 50, Type (0, 0), None
#     Edge 51, Type (0, 0), None
#     Edge 52, Type (0, 0), None
#     Edge 53, Type (0, 0), None
#     Edge 54, Type (0, 0), None
#     Edge 55, Type (0, 0), None
#     Edge 56, Type (0, 0), None
#     Edge 57, Type (0, 0), None
#     Edge 58, Type (0, 0), None
#     Edge 59, Type (0, 0), None
#     Edge 60, Type (0, 0), None
#     Edge 61, Type (0, 0), None
#     Edge 62, Type (0, 0), None
#     Edge 63, Type (0, 0), None
#     Edge 64, Type (0, 0), None
#     Edge 65, Type (0, 0), None
#     Edge 66, Type (0, 0), None
#     Edge 67, Type (0, 0), None
#     Edge 68, Type (0, 0), None
#     Edge 69, Type (0, 0), None
#     Edge 70, Type (0, 0), None
#     Edge 71, Type (0, 0), None
#     Edge 72, Type (0, 0), None
#     Edge 73, Type (0, 0), None
#     Edge 74, Type (0, 0), None
#     Edge 75, Type (0, 0), None
#     Edge 76, Type (0, 0), None
#     Edge 77, Type (0, 0), None
#     Edge 78, Type (0, 0), None
#     Edge 79, Type (0, 0), None
#     Edge 80, Type (0, 0), None
#     Edge 81, Type (0, 0), None
#     Edge 82, Type (0, 0), None
#     Edge 83, Type (0, 0), None
#     Edge 84, Type (0, 0), None
#     Edge 85, Type (0, 0), None
#     Edge 86, Type (0, 0), None
#     Edge 87, Type (0, 0), None
#     Edge 88, Type (0, 0), None
#     Edge 89, Type (0, 0), None
#     Edge 90, Type (0, 0), None
#     Edge 91, Type (0, 0), None
#     Edge 92, Type (0, 0), None
#     Edge 93, Type (0, 0), None
#     Edge 94, Type (0, 0), None
#     Edge 95, Type (0, 0), None
#     Edge 96, Type (0, 0), None
#     Edge 97, Type (0, 0), None
#     Edge 98, Type (0, 0), None
#     Edge 99, Type (0, 0), None
#     Edge 100, Type (0, 0), None
#     Edge 101, Type (0, 0), None
#     Edge 102, Type (0, 0), None
#     Edge 103, Type (0, 0), None
#     Edge 104, Type (0, 0), None
#     Edge 105, Type (0, 0), None
#     Edge 106, Type (0, 0), None
#     Edge 107, Type (0, 0), None
# Relax obj value: 0.072
# Max RMSD: 0.098
# Mean RMSD: 0.098
data_MOF--net-cha--node1-QUQFOY_clean_sbu_3--edge1-none
_symmetry_space_group_name_H-M    P1
_symmetry_Int_Tables_number       1
_symmetry_cell_setting            triclinic
loop_
_symmetry_equiv_pos_as_xyz
'x, y, z'
_cell_length_a     25.496587
_cell_length_b     25.499828
_cell_length_c     42.594722
_cell_angle_alpha  90.009358
_cell_angle_beta   89.976233
_cell_angle_gamma 120.00524
loop_
_atom_site_label
_atom_site_type_symbol
_atom_site_fract_x
_atom_site_fract_y
_atom_site_fract_z
_atom_type_partial_charge
C0 C 0.12624 0.2743 0.02641 0.0
O1 O 0.08699 0.24016 0.00642 0.0
Cd2 Cd 0.98191 0.21095 0.00699 0.0
O3 O 0.1132 0.30129 0.04758 0.0
Cd4 Cd 0.02213 0.3108 0.05757 0.0
C5 C 0.01035 0.34275 -0.01843 0.0
O6 O 0.95592 0.20293 0.06065 0.0
O7 O 0.9092 0.25338 0.05718 0.0
O8 O 0.05905 0.3304 0.11148 0.0
C9 C 0.90656 0.20307 0.06207 0.0
O10 O 0.96811 0.28786 -0.01916 0.0
C11 C 0.03995 0.36662 0.11764 0.0
O12 O 0.04288 0.36343 0.00618 0.0
O13 O 0.01799 0.3819 0.09494 0.0
C14 C 0.77865 0.86858 0.02308 0.0
O15 O 0.8075 0.85717 0.00238 0.0
Cd16 Cd 0.82473 0.77274 0.00358 0.0
O17 O 0.74984 0.83106 0.04505 0.0
Cd18 Cd 0.7279 0.7271 0.05766 0.0
C19 C 0.69125 0.68356 -0.0149 0.0
O20 O 0.83552 0.76761 0.05867 0.0
O21 O 0.78552 0.67035 0.06006 0.0
O22 O 0.71291 0.75588 0.10992 0.0
C23 C 0.83585 0.719 0.06321 0.0
O24 O 0.7355 0.67592 -0.00874 0.0
C25 C 0.6765 0.70226 0.11893 0.0
O26 O 0.6688 0.69751 0.00809 0.0
O27 O 0.65913 0.66053 0.09844 0.0
C28 C 0.16381 0.94668 0.03113 0.0
O29 O 0.16798 0.98886 0.01357 0.0
Cd30 Cd 0.25257 0.08869 0.00984 0.0
O31 O 0.20797 0.95418 0.04838 0.0
Cd32 Cd 0.31395 0.03866 0.05733 0.0
C33 C 0.34637 0.04379 -0.02056 0.0
O34 O 0.28187 0.11102 0.0627 0.0
O35 O 0.37828 0.15261 0.05779 0.0
O36 O 0.29416 -0.00135 0.11056 0.0
C37 C 0.33279 0.15866 0.06342 0.0
O38 O 0.32623 0.08029 -0.02293 0.0
C39 C 0.34861 0.01382 0.11663 0.0
O40 O 0.34244 0.01687 0.00534 0.0
O41 O 0.38625 0.03498 0.09405 0.0
C42 C 0.26628 0.11414 0.90853 0.0
O43 O 0.23804 0.07478 0.92972 0.0
Cd44 Cd 0.219 0.97247 0.93081 0.0
O45 O 0.29421 0.10429 0.8865 0.0
Cd46 Cd 0.31456 0.01988 0.8764 0.0
C47 C 0.35166 0.01709 0.94996 0.0
O48 O 0.20693 0.9506 0.87645 0.0
O49 O 0.25904 0.90555 0.87731 0.0
O50 O 0.32953 0.05698 0.8225 0.0
C51 C 0.20777 0.90178 0.87414 0.0
O52 O 0.30742 0.9647 0.9448 0.0
C53 C 0.36674 0.03963 0.81527 0.0
O54 O 0.37217 0.05274 0.92655 0.0
O55 O 0.3844 0.01843 0.83729 0.0
C56 C 0.92728 0.18501 0.91201 0.0
O57 O 0.96531 0.1948 0.93374 0.0
Cd58 Cd 0.07074 0.27269 0.93323 0.0
O59 O 0.94052 0.22184 0.88917 0.0
Cd60 Cd 0.02865 0.32317 0.87832 0.0
C61 C 0.03712 0.36956 0.95112 0.0
O62 O 0.09378 0.27919 0.87891 0.0
O63 O 0.14188 0.37668 0.87799 0.0
O64 O 0.99101 0.30062 0.82464 0.0
C65 C 0.14334 0.32787 0.87528 0.0
O66 O 0.08762 0.37298 0.94607 0.0
C67 C 0.00936 0.35527 0.81717 0.0
O68 O 0.00069 0.35417 0.92804 0.0
O69 O 0.0317 0.39455 0.83897 0.0
C70 C 0.88554 0.79364 0.91195 0.0
O71 O 0.88066 0.82883 0.93132 0.0
Cd72 Cd 0.80129 0.8533 0.93119 0.0
O73 O 0.84473 0.76463 0.89141 0.0
Cd74 Cd 0.74337 0.75211 0.87985 0.0
C75 C 0.69844 0.71674 0.95583 0.0
O76 O 0.78098 0.85926 0.87763 0.0
O77 O 0.68366 0.8053 0.87891 0.0
O78 O 0.76568 0.73555 0.82632 0.0
C79 C 0.73046 0.85683 0.87523 0.0
O80 O 0.71539 0.77258 0.95877 0.0
C81 C 0.71138 0.69729 0.81927 0.0
O82 O 0.70846 0.69689 0.93035 0.0
O83 O 0.67244 0.68005 0.84125 0.0
C84 C 0.94086 0.78946 0.91234 0.0
O85 O 0.98016 0.81765 0.93356 0.0
Cd86 Cd 0.08199 0.83485 0.93408 0.0
O87 O 0.95041 0.76086 0.89058 0.0
Cd88 Cd 0.03293 0.73837 0.88001 0.0
C89 C 0.03638 0.70124 0.95328 0.0
O90 O 0.10217 0.846 0.87944 0.0
O91 O 0.14688 0.79339 0.87849 0.0
O92 O -0.00834 0.72291 0.82732 0.0
C93 C 0.15044 0.84458 0.87546 0.0
O94 O 0.08865 0.74567 0.94802 0.0
C95 C 0.00812 0.68543 0.81926 0.0
O96 O 0.00083 0.68039 0.92987 0.0
O97 O 0.03115 0.66794 0.84043 0.0
C98 C 0.26271 0.16981 0.90869 0.0
O99 O 0.22738 0.17413 0.92821 0.0
Cd100 Cd 0.20201 0.25273 0.92945 0.0
O101 O 0.29232 0.2115 0.88863 0.0
Cd102 Cd 0.30508 0.31382 0.87913 0.0
C103 C 0.33716 0.35502 0.95589 0.0
O104 O 0.19778 0.27577 0.87624 0.0
O105 O 0.25111 0.37293 0.87907 0.0
O106 O 0.32428 0.29585 0.8252 0.0
C107 C 0.19979 0.32618 0.8748 0.0
O108 O 0.28113 0.33767 0.9583 0.0
C109 C 0.36258 0.3507 0.81923 0.0
O110 O 0.35811 0.34619 0.93046 0.0
O111 O 0.37858 0.38792 0.84198 0.0
C112 C 0.86961 0.1276 0.9119 0.0
O113 O 0.8593 0.08928 0.93356 0.0
Cd114 Cd 0.78073 0.98404 0.9333 0.0
O115 O 0.8331 0.1149 0.88894 0.0
Cd116 Cd 0.73185 0.02729 0.87725 0.0
C117 C 0.68362 0.01814 0.94895 0.0
O118 O 0.77656 0.96274 0.87893 0.0
O119 O 0.67914 0.91407 0.87678 0.0
O120 O 0.75578 0.06572 0.82374 0.0
C121 C 0.72827 0.913 0.87498 0.0
O122 O 0.67951 0.96767 0.94295 0.0
C123 C 0.70121 0.04654 0.81578 0.0
O124 O 0.69854 0.05518 0.9262 0.0
O125 O 0.66124 0.02329 0.8372 0.0
C126 C 0.78306 0.92811 0.02304 0.0
O127 O 0.81874 0.96803 0.00374 0.0
Cd128 Cd 0.84555 0.07259 0.00516 0.0
O129 O 0.75449 0.94043 0.04358 0.0
Cd130 Cd 0.7433 0.0296 0.05502 0.0
C131 C 0.71252 0.04374 -0.02084 0.0
O132 O 0.85072 0.0968 0.05903 0.0
O133 O 0.79893 0.14238 0.05678 0.0
O134 O 0.72391 0.98763 0.10769 0.0
C135 C 0.84957 0.14555 0.06142 0.0
O136 O 0.76813 0.08415 -0.02208 0.0
C137 C 0.68616 0.00423 0.1149 0.0
O138 O 0.69122 0.01149 0.00381 0.0
O139 O 0.67041 0.02789 0.09324 0.0
C140 C 0.10617 0.88931 0.03167 0.0
O141 O 0.06341 0.88458 0.01441 0.0
Cd142 Cd 0.96336 0.80036 0.01166 0.0
O143 O 0.09906 0.846 0.04953 0.0
Cd144 Cd 0.01448 0.74051 0.06014 0.0
C145 C 0.00935 0.70647 -0.01739 0.0
O146 O 0.94177 0.77219 0.06462 0.0
O147 O 0.90045 0.67577 0.06001 0.0
O148 O 0.05369 0.76059 0.11366 0.0
C149 C 0.89412 0.72126 0.06512 0.0
O150 O 0.97227 0.72588 -0.02004 0.0
C151 C 0.03838 0.70611 0.11983 0.0
O152 O 0.03647 0.71124 0.00854 0.0
O153 O 0.01776 0.66854 0.09722 0.0
C154 C 0.18563 0.27829 0.02625 0.0
O155 O 0.19662 0.24993 0.00507 0.0
Cd156 Cd 0.27885 0.22932 0.00499 0.0
O157 O 0.22326 0.30583 0.04836 0.0
Cd158 Cd 0.32738 0.32538 0.05874 0.0
C159 C 0.36905 0.36094 -0.01453 0.0
O160 O 0.28626 0.2176 0.05973 0.0
O161 O 0.38354 0.26721 0.059 0.0
O162 O 0.30413 0.34117 0.11217 0.0
C163 C 0.33505 0.21699 0.06281 0.0
O164 O 0.37627 0.31634 -0.00867 0.0
C165 C 0.35869 0.3773 0.11984 0.0
O166 O 0.35441 0.38276 0.0085 0.0
O167 O 0.39823 0.39438 0.09815 0.0
C168 C 0.78369 0.59355 0.36142 0.0
O169 O 0.74427 0.5591 0.34158 0.0
Cd170 Cd 0.64027 0.53363 0.34045 0.0
O171 O 0.77127 0.62205 0.38201 0.0
Cd172 Cd 0.68125 0.63386 0.392 0.0
C173 C 0.67369 0.66989 0.31585 0.0
O174 O 0.61218 0.52643 0.39373 0.0
O175 O 0.56815 0.57963 0.39167 0.0
O176 O 0.71705 0.65139 0.4462 0.0
C177 C 0.5637 0.52825 0.39545 0.0
O178 O 0.63492 0.61405 0.31272 0.0
C179 C 0.69982 0.6891 0.45233 0.0
O180 O 0.70296 0.68945 0.34151 0.0
O181 O 0.67911 0.70566 0.42961 0.0
C182 C 0.43426 0.20111 0.35419 0.0
O183 O 0.46298 0.19179 0.33253 0.0
Cd184 Cd 0.48888 0.11261 0.33278 0.0
O185 O 0.40954 0.16346 0.37661 0.0
Cd186 Cd 0.39458 0.06175 0.38775 0.0
C187 C 0.35774 0.01615 0.31527 0.0
O188 O 0.50379 0.10574 0.38726 0.0
O189 O 0.45434 0.00827 0.38905 0.0
O190 O 0.37879 0.08703 0.44059 0.0
C191 C 0.50467 0.05717 0.39133 0.0
O192 O 0.40433 0.01228 0.321 0.0
C193 C 0.34266 0.03285 0.44885 0.0
O194 O 0.33542 0.03047 0.33819 0.0
O195 O 0.32628 0.99218 0.42782 0.0
C196 C 0.84207 0.27058 0.35845 0.0
O197 O 0.85332 0.3104 0.33752 0.0
Cd198 Cd 0.93705 0.41261 0.33726 0.0
O199 O 0.87992 0.27975 0.38031 0.0
Cd200 Cd 0.98481 0.36313 0.39064 0.0
C201 C 0.02533 0.36862 0.31702 0.0
O202 O 0.9466 0.43243 0.39191 0.0
O203 O 0.04382 0.47732 0.39157 0.0
O204 O 0.9614 0.32317 0.4438 0.0
C205 C -0.00372 0.48093 0.39511 0.0
O206 O 0.03318 0.42072 0.32274 0.0
C207 C 0.01571 0.33987 0.45122 0.0
O208 O 0.01005 0.33221 0.3401 0.0
O209 O 0.05522 0.36222 0.42952 0.0
C210 C 0.90932 0.44104 0.23718 0.0
O211 O 0.87065 0.39792 0.25405 0.0
Cd212 Cd 0.85496 0.29792 0.25692 0.0
O213 O 0.94644 0.43442 0.21982 0.0
Cd214 Cd 0.96783 0.35007 0.20957 0.0
C215 C -0.00617 0.3428 0.28737 0.0
O216 O 0.86367 0.27719 0.2041 0.0
O217 O 0.919 0.2362 0.20913 0.0
O218 O 0.98784 0.38994 0.15623 0.0
C219 C 0.86725 0.22971 0.20358 0.0
O220 O 0.93712 0.30631 0.28951 0.0
C221 C 0.02778 0.37557 0.15029 0.0
O222 O 0.0173 0.37042 0.26167 0.0
O223 O 0.04463 0.35499 0.17297 0.0
C224 C 0.60325 0.51958 0.24685 0.0
O225 O 0.6428 0.53034 0.26786 0.0
Cd226 Cd 0.7446 0.61473 0.2676 0.0
O227 O 0.6127 0.55783 0.22517 0.0
Cd228 Cd 0.69497 0.66226 0.21376 0.0
C229 C 0.70022 0.70345 0.28674 0.0
O230 O 0.76228 0.622 0.21264 0.0
O231 O 0.80939 0.71931 0.21203 0.0
O232 O 0.65173 0.63414 0.16145 0.0
C233 C 0.81128 0.67083 0.2086 0.0
O234 O 0.75224 0.7112 0.28084 0.0
C235 C 0.66922 0.68783 0.15251 0.0
O236 O 0.6642 0.68983 0.2636 0.0
O237 O 0.69356 0.72947 0.17305 0.0
C238 C 0.54593 0.11422 0.24142 0.0
O239 O 0.54081 0.1485 0.26132 0.0
Cd240 Cd 0.46495 0.17768 0.26053 0.0
O241 O 0.50612 0.08736 0.22015 0.0
Cd242 Cd 0.40603 0.07829 0.2095 0.0
C243 C 0.36026 0.04496 0.28513 0.0
O244 O 0.44762 0.18613 0.20685 0.0
O245 O 0.35034 0.13549 0.20973 0.0
O246 O 0.4245 0.05958 0.15565 0.0
C247 C 0.3981 0.18594 0.20525 0.0
O248 O 0.37428 0.10022 0.28651 0.0
C249 C 0.36935 0.02294 0.14932 0.0
O250 O 0.3722 0.02463 0.26042 0.0
O251 O 0.33174 0.00721 0.17189 0.0
C252 C 0.60112 0.10991 0.24176 0.0
O253 O 0.64019 0.13786 0.2631 0.0
Cd254 Cd 0.74278 0.15786 0.26329 0.0
O255 O 0.61135 0.08254 0.2196 0.0
Cd256 Cd 0.69562 0.06268 0.20913 0.0
C257 C 0.7003 0.02541 0.28219 0.0
O258 O 0.76199 0.17046 0.2085 0.0
O259 O 0.80998 0.12116 0.20849 0.0
O260 O 0.65667 0.04723 0.15572 0.0
C261 C 0.81138 0.17125 0.20488 0.0
O262 O 0.75223 0.07021 0.27674 0.0
C263 C 0.67525 0.01124 0.14801 0.0
O264 O 0.66456 0.00404 0.25888 0.0
O265 O 0.69763 0.99405 0.16966 0.0
C266 C 0.90936 0.49858 0.23769 0.0
O267 O 0.87069 0.50224 0.25496 0.0
Cd268 Cd 0.8552 0.58648 0.2594 0.0
O269 O 0.94656 0.54314 0.22079 0.0
Cd270 Cd 0.96849 0.6495 0.21193 0.0
C271 C -0.00548 0.67904 0.29011 0.0
O272 O 0.86427 0.61792 0.20694 0.0
O273 O 0.91912 0.7142 0.21229 0.0
O274 O 0.98905 0.63044 0.15856 0.0
C275 C 0.86742 0.66879 0.20683 0.0
O276 O 0.93777 0.65845 0.29242 0.0
C277 C 0.02777 0.68511 0.15251 0.0
O278 O 0.01805 0.67643 0.2641 0.0
O279 O 0.04399 0.72255 0.17517 0.0
C280 C 0.54817 0.46001 0.24619 0.0
O281 O 0.54327 0.41956 0.26528 0.0
Cd282 Cd 0.46581 0.31499 0.26294 0.0
O283 O 0.50803 0.44826 0.22528 0.0
Cd284 Cd 0.40796 0.35913 0.21299 0.0
C285 C 0.36154 0.34345 0.28875 0.0
O286 O 0.44839 0.29214 0.20887 0.0
O287 O 0.35098 0.24639 0.2108 0.0
O288 O 0.43094 0.40125 0.16025 0.0
C289 C 0.39855 0.2434 0.20617 0.0
O290 O 0.376 0.3025 0.28968 0.0
C291 C 0.37659 0.38458 0.15298 0.0
O292 O 0.37325 0.37636 0.2643 0.0
O293 O 0.33711 0.36106 0.17464 0.0
C294 C 0.4345 0.25874 0.35488 0.0
O295 O 0.46345 0.29806 0.33378 0.0
Cd296 Cd 0.48962 0.40314 0.33552 0.0
O297 O 0.40994 0.27045 0.37787 0.0
Cd298 Cd 0.39575 0.35704 0.39108 0.0
C299 C 0.35821 0.36854 0.31915 0.0
O300 O 0.50487 0.42248 0.39019 0.0
O301 O 0.4552 0.47021 0.39288 0.0
O302 O 0.38157 0.31623 0.4441 0.0
C303 C 0.50563 0.47175 0.39476 0.0
O304 O 0.40457 0.41894 0.32531 0.0
C305 C 0.34493 0.33356 0.45254 0.0
O306 O 0.33587 0.33101 0.3417 0.0
O307 O 0.32755 0.35705 0.43157 0.0
C308 C 0.78268 0.21509 0.35827 0.0
O309 O 0.7432 0.21082 0.33867 0.0
Cd310 Cd 0.63926 0.13212 0.33741 0.0
O311 O 0.77031 0.17353 0.37845 0.0
Cd312 Cd 0.68066 0.07143 0.38824 0.0
C313 C 0.67331 0.03043 0.31162 0.0
O314 O 0.61126 0.10937 0.39059 0.0
O315 O 0.56753 0.01219 0.38792 0.0
O316 O 0.71769 0.09006 0.4422 0.0
C317 C 0.56286 0.05893 0.392 0.0
O318 O 0.63412 0.04707 0.309 0.0
C319 C 0.70062 0.03519 0.44844 0.0
O320 O 0.70269 0.03945 0.3372 0.0
O321 O 0.67929 -0.00235 0.42584 0.0
C322 C 0.84302 0.59726 0.36131 0.0
O323 O 0.85416 0.56951 0.33984 0.0
Cd324 Cd 0.93727 0.55015 0.33843 0.0
O325 O 0.88081 0.62473 0.38338 0.0
Cd326 Cd 0.98563 0.64494 0.39303 0.0
C327 C 0.02605 0.68322 0.31957 0.0
O328 O 0.94664 0.5372 0.39271 0.0
O329 O 0.04397 0.5894 0.39232 0.0
O330 O 0.96389 0.65956 0.44695 0.0
C331 C -0.00362 0.53825 0.3955 0.0
O332 O 0.03367 0.63855 0.32438 0.0
C333 C 0.01856 0.69663 0.45402 0.0
O334 O 0.01077 0.70323 0.34314 0.0
O335 O 0.05722 0.71448 0.43189 0.0
C336 C 0.45166 0.92923 0.69074 0.0
O337 O 0.41108 0.89329 0.67181 0.0
Cd338 Cd 0.30746 0.86935 0.67232 0.0
O339 O 0.44045 0.95933 0.71089 0.0
Cd340 Cd 0.3518 0.97277 0.722 0.0
C341 C 0.34073 0.00416 0.64556 0.0
O342 O 0.2815 0.86628 0.72576 0.0
O343 O 0.23848 0.9203 0.72275 0.0
O344 O 0.3914 0.99087 0.77535 0.0
C345 C 0.23341 0.86885 0.72736 0.0
O346 O 0.30143 0.94826 0.64358 0.0
C347 C 0.37514 0.02902 0.78225 0.0
O348 O 0.3714 0.0254 0.67071 0.0
O349 O 0.35321 0.0458 0.76018 0.0
C350 C 0.11338 0.54608 0.69102 0.0
O351 O 0.14735 0.54017 0.67123 0.0
Cd352 Cd 0.17525 0.46334 0.67342 0.0
O353 O 0.08622 0.5067 0.71244 0.0
Cd354 Cd 0.07526 0.40633 0.72393 0.0
C355 C 0.04323 0.35997 0.6484 0.0
O356 O 0.18275 0.44774 0.72754 0.0
O357 O 0.1321 0.35035 0.72539 0.0
O358 O 0.05649 0.4282 0.77694 0.0
C359 C 0.18234 0.39825 0.73011 0.0
O360 O 0.09792 0.37194 0.64791 0.0
C361 C 0.01949 0.3736 0.7841 0.0
O362 O 0.02273 0.37286 0.67273 0.0
O363 O 0.00354 0.33446 0.76228 0.0
C364 C 0.51676 0.60687 0.69406 0.0
O365 O 0.52681 0.64514 0.67242 0.0
Cd366 Cd 0.6087 0.74816 0.67024 0.0
O367 O 0.55509 0.61839 0.716 0.0
Cd368 Cd 0.6593 0.70439 0.72498 0.0
C369 C 0.69785 0.7052 0.6513 0.0
O370 O 0.61893 0.77215 0.72441 0.0
O371 O 0.7162 0.81859 0.72362 0.0
O372 O 0.63786 0.6682 0.77897 0.0
C373 C 0.66817 0.82143 0.7267 0.0
O374 O 0.70546 0.75749 0.65612 0.0
C375 C 0.6926 0.68662 0.78624 0.0
O376 O 0.68411 0.67061 0.67509 0.0
O377 O 0.7315 0.70819 0.76422 0.0
C378 C 0.57901 0.77493 0.57151 0.0
O379 O 0.54295 0.73421 0.59037 0.0
Cd380 Cd 0.52584 0.63372 0.59449 0.0
O381 O 0.61314 0.76568 0.55317 0.0
Cd382 Cd 0.63193 0.67925 0.54494 0.0
C383 C 0.66476 0.67702 0.62228 0.0
O384 O 0.52626 0.60746 0.5416 0.0
O385 O 0.58077 0.56546 0.54617 0.0
O386 O 0.65052 0.71592 0.49097 0.0
C387 C 0.52908 0.55956 0.54121 0.0
O388 O 0.6086 0.63924 0.62545 0.0
C389 C 0.68883 0.69941 0.48497 0.0
O390 O 0.68559 0.70388 0.59611 0.0
O391 O 0.70546 0.67887 0.50774 0.0
C392 C 0.26803 0.84832 0.57774 0.0
O393 O 0.3081 0.8609 0.5987 0.0
Cd394 Cd 0.4097 0.94546 0.59727 0.0
O395 O 0.27654 0.88519 0.55544 0.0
Cd396 Cd 0.35859 0.98984 0.54329 0.0
C397 C 0.36609 0.03519 0.61573 0.0
O398 O 0.42612 0.94991 0.54236 0.0
O399 O 0.47262 0.04721 0.54135 0.0
O400 O 0.31663 0.96291 0.49066 0.0
C401 C 0.47479 -0.0011 0.5379 0.0
O402 O 0.41796 0.0426 0.60976 0.0
C403 C 0.33415 0.0169 0.48223 0.0
O404 O 0.32914 0.01941 0.59289 0.0
O405 O 0.35743 0.05776 0.50321 0.0
C406 C 0.20256 0.43432 0.58032 0.0
O407 O 0.19265 0.46284 0.60186 0.0
Cd408 Cd 0.11491 0.49065 0.60107 0.0
O409 O 0.16609 0.41087 0.55731 0.0
Cd410 Cd 0.06536 0.39874 0.54566 0.0
C411 C 0.01688 0.35984 0.61781 0.0
O412 O 0.10958 0.50816 0.5468 0.0
O413 O 0.0121 0.45854 0.54541 0.0
O414 O 0.08827 0.38385 0.49199 0.0
C415 C 0.06087 0.50896 0.54312 0.0
O416 O 0.01387 0.40706 0.61255 0.0
C417 C 0.03361 0.34798 0.48436 0.0
O418 O 0.03246 0.33859 0.59491 0.0
O419 O -0.00591 0.33118 0.50603 0.0
C420 C 0.25971 0.43349 0.58062 0.0
O421 O 0.29842 0.46267 0.60194 0.0
Cd422 Cd 0.40342 0.48837 0.60134 0.0
O423 O 0.27179 0.40787 0.5583 0.0
Cd424 Cd 0.35835 0.39199 0.54727 0.0
C425 C 0.36855 0.35826 0.62033 0.0
O426 O 0.42358 0.50062 0.54668 0.0
O427 O 0.47174 0.45123 0.5459 0.0
O428 O 0.31771 0.37649 0.49434 0.0
C429 C 0.47297 0.50132 0.54274 0.0
O430 O 0.41913 0.4041 0.61386 0.0
C431 C 0.33644 0.34097 0.48596 0.0
O432 O 0.33127 0.33495 0.59772 0.0
O433 O 0.36019 0.32408 0.50705 0.0
C434 C 0.57885 0.83235 0.5706 0.0
O435 O 0.54203 0.83802 0.58841 0.0
Cd436 Cd 0.52447 0.9212 0.59008 0.0
O437 O 0.61359 0.8746 0.55182 0.0
Cd438 Cd 0.63312 0.97961 0.54115 0.0
C439 C 0.66289 0.01603 0.61855 0.0
O440 O 0.5284 0.94665 0.53678 0.0
O441 O 0.58267 0.04314 0.54146 0.0
O442 O 0.65165 0.95978 0.48746 0.0
C443 C 0.53112 -0.0027 0.53617 0.0
O444 O 0.60686 -0.0011 0.62095 0.0
C445 C 0.69027 0.01439 0.48118 0.0
O446 O 0.68447 0.00911 0.59283 0.0
O447 O 0.70742 0.05201 0.50378 0.0
C448 C 0.21345 0.78826 0.57805 0.0
O449 O 0.20971 0.74941 0.59793 0.0
Cd450 Cd 0.13277 0.64445 0.59831 0.0
O451 O 0.17247 0.77452 0.55738 0.0
Cd452 Cd 0.07233 0.6836 0.54712 0.0
C453 C 0.02907 0.675 0.62316 0.0
O454 O 0.11227 0.61562 0.54501 0.0
O455 O 0.01487 0.57078 0.54694 0.0
O456 O 0.0926 0.72185 0.49359 0.0
C457 C 0.06214 0.56692 0.5431 0.0
O458 O 0.04484 0.63515 0.62558 0.0
C459 C 0.03792 0.70486 0.48692 0.0
O460 O 0.03914 0.70505 0.59777 0.0
O461 O -0.00053 0.6825 0.5091 0.0
C462 C 0.10993 0.60172 0.6906 0.0
O463 O 0.1376 0.64036 0.66903 0.0
Cd464 Cd 0.15862 0.74344 0.66858 0.0
O465 O 0.08371 0.61276 0.71304 0.0
Cd466 Cd 0.06548 0.69754 0.72454 0.0
C467 C 0.02491 0.70228 0.65265 0.0
O468 O 0.17409 0.76325 0.72315 0.0
O469 O 0.12473 0.81124 0.72511 0.0
O470 O 0.0512 0.65784 0.77768 0.0
C471 C 0.17509 0.81268 0.72723 0.0
O472 O 0.07038 0.75384 0.65795 0.0
C473 C 0.01549 0.67642 0.78596 0.0
O474 O 0.00357 0.66659 0.67596 0.0
O475 O -0.00152 0.69994 0.76483 0.0
C476 C 0.45784 0.55082 0.6947 0.0
O477 O 0.41775 0.54493 0.67508 0.0
Cd478 Cd 0.31349 0.46723 0.67566 0.0
O479 O 0.44621 0.51075 0.71568 0.0
Cd480 Cd 0.35628 0.40909 0.72629 0.0
C481 C 0.3433 0.36321 0.65037 0.0
O482 O 0.28862 0.44871 0.72935 0.0
O483 O 0.24335 0.35156 0.72607 0.0
O484 O 0.39252 0.42708 0.7804 0.0
C485 C 0.23979 0.39874 0.73086 0.0
O486 O 0.30301 0.3785 0.64868 0.0
C487 C 0.37433 0.37195 0.78658 0.0
O488 O 0.37538 0.37476 0.67515 0.0
O489 O 0.35343 0.3347 0.76385 0.0
C490 C 0.51106 0.93313 0.69021 0.0
O491 O 0.52178 0.90466 0.66897 0.0
Cd492 Cd 0.60598 0.88674 0.66784 0.0
O493 O 0.54952 0.96177 0.71183 0.0
Cd494 Cd 0.65462 0.98374 0.72179 0.0
C495 C 0.69423 0.02007 0.64806 0.0
O496 O 0.61699 0.87611 0.72228 0.0
O497 O 0.71432 0.92968 0.72263 0.0
O498 O 0.63 -0.00102 0.77486 0.0
C499 C 0.66711 0.87818 0.72575 0.0
O500 O 0.70166 0.9753 0.653 0.0
C501 C 0.68404 0.03691 0.78256 0.0
O502 O 0.67942 0.04069 0.67155 0.0
O503 O 0.72402 0.05474 0.76107 0.0
loop_
_geom_bond_atom_site_label_1
_geom_bond_atom_site_label_2
_geom_bond_distance
_geom_bond_site_symmetry_2
_ccdc_geom_bond_type
C0 O1 1.306 . S
C0 O3 1.160 . S
O1 C0 1.306 . S
O1 Cd2 2.228 . S
Cd2 O1 2.228 . S
Cd2 O6 2.273 1_455 S
Cd2 O10 2.277 . S
O3 C0 1.160 . S
O3 Cd4 2.203 . S
Cd4 O3 2.203 . S
Cd4 O6 2.411 1_455 S
Cd4 O7 2.333 1_455 S
Cd4 O8 2.352 . S
Cd4 O12 2.277 . S
Cd4 O13 2.356 . S
C5 O10 1.209 . S
C5 O12 1.226 . S
O6 Cd2 2.273 1_655 S
O6 Cd4 2.411 1_655 S
O6 C9 1.320 . S
O7 Cd4 2.333 1_655 S
O7 C9 1.214 . S
O8 Cd4 2.352 . S
O8 C11 1.258 . S
C9 O6 1.320 . S
C9 O7 1.214 . S
O10 Cd2 2.277 . S
O10 C5 1.209 . S
C11 O8 1.258 . S
C11 O13 1.282 . S
O12 Cd4 2.277 . S
O12 C5 1.226 . S
O13 Cd4 2.356 . S
O13 C11 1.282 . S
C14 O15 1.306 . S
C14 O17 1.160 . S
O15 C14 1.306 . S
O15 Cd16 2.228 . S
Cd16 O15 2.228 . S
Cd16 O20 2.273 . S
Cd16 O24 2.277 . S
O17 C14 1.160 . S
O17 Cd18 2.203 . S
Cd18 O17 2.203 . S
Cd18 O20 2.411 . S
Cd18 O21 2.333 . S
Cd18 O22 2.352 . S
Cd18 O26 2.277 . S
Cd18 O27 2.356 . S
C19 O24 1.209 . S
C19 O26 1.226 . S
O20 Cd16 2.273 . S
O20 Cd18 2.411 . S
O20 C23 1.320 . S
O21 Cd18 2.333 . S
O21 C23 1.214 . S
O22 Cd18 2.352 . S
O22 C25 1.258 . S
C23 O20 1.320 . S
C23 O21 1.214 . S
O24 Cd16 2.277 . S
O24 C19 1.209 . S
C25 O22 1.258 . S
C25 O27 1.282 . S
O26 Cd18 2.277 . S
O26 C19 1.226 . S
O27 Cd18 2.356 . S
O27 C25 1.282 . S
C28 O29 1.306 . S
C28 O31 1.160 . S
O29 C28 1.306 . S
O29 Cd30 2.228 1_565 S
Cd30 O29 2.228 1_545 S
Cd30 O34 2.273 . S
Cd30 O38 2.277 . S
O31 C28 1.160 . S
O31 Cd32 2.203 1_565 S
Cd32 O31 2.203 1_545 S
Cd32 O34 2.411 . S
Cd32 O35 2.333 . S
Cd32 O36 2.352 . S
Cd32 O40 2.277 . S
Cd32 O41 2.356 . S
C33 O38 1.209 . S
C33 O40 1.226 . S
O34 Cd30 2.273 . S
O34 Cd32 2.411 . S
O34 C37 1.320 . S
O35 Cd32 2.333 . S
O35 C37 1.214 . S
O36 Cd32 2.352 . S
O36 C39 1.258 . S
C37 O34 1.320 . S
C37 O35 1.214 . S
O38 Cd30 2.277 . S
O38 C33 1.209 . S
C39 O36 1.258 . S
C39 O41 1.282 . S
O40 Cd32 2.277 . S
O40 C33 1.226 . S
O41 Cd32 2.356 . S
O41 C39 1.282 . S
C42 O43 1.306 . S
C42 O45 1.160 . S
O43 C42 1.306 . S
O43 Cd44 2.228 . S
Cd44 O43 2.228 . S
Cd44 O48 2.273 1_545 S
Cd44 O52 2.277 . S
O45 C42 1.160 . S
O45 Cd46 2.203 . S
Cd46 O45 2.203 . S
Cd46 O48 2.411 1_545 S
Cd46 O49 2.333 1_545 S
Cd46 O50 2.352 . S
Cd46 O54 2.277 . S
Cd46 O55 2.356 . S
C47 O52 1.209 . S
C47 O54 1.226 . S
O48 Cd44 2.273 1_565 S
O48 Cd46 2.411 1_565 S
O48 C51 1.320 . S
O49 Cd46 2.333 1_565 S
O49 C51 1.214 . S
O50 Cd46 2.352 . S
O50 C53 1.258 . S
C51 O48 1.320 . S
C51 O49 1.214 . S
O52 Cd44 2.277 . S
O52 C47 1.209 . S
C53 O50 1.258 . S
C53 O55 1.282 . S
O54 Cd46 2.277 . S
O54 C47 1.226 . S
O55 Cd46 2.356 . S
O55 C53 1.282 . S
C56 O57 1.306 . S
C56 O59 1.160 . S
O57 C56 1.306 . S
O57 Cd58 2.228 1_655 S
Cd58 O57 2.228 1_455 S
Cd58 O62 2.273 . S
Cd58 O66 2.277 . S
O59 C56 1.160 . S
O59 Cd60 2.203 1_655 S
Cd60 O59 2.203 1_455 S
Cd60 O62 2.411 . S
Cd60 O63 2.333 . S
Cd60 O64 2.352 . S
Cd60 O68 2.277 . S
Cd60 O69 2.356 . S
C61 O66 1.209 . S
C61 O68 1.226 . S
O62 Cd58 2.273 . S
O62 Cd60 2.411 . S
O62 C65 1.320 . S
O63 Cd60 2.333 . S
O63 C65 1.214 . S
O64 Cd60 2.352 . S
O64 C67 1.258 . S
C65 O62 1.320 . S
C65 O63 1.214 . S
O66 Cd58 2.277 . S
O66 C61 1.209 . S
C67 O64 1.258 . S
C67 O69 1.282 . S
O68 Cd60 2.277 . S
O68 C61 1.226 . S
O69 Cd60 2.356 . S
O69 C67 1.282 . S
C70 O71 1.306 . S
C70 O73 1.160 . S
O71 C70 1.306 . S
O71 Cd72 2.228 . S
Cd72 O71 2.228 . S
Cd72 O76 2.273 . S
Cd72 O80 2.277 . S
O73 C70 1.160 . S
O73 Cd74 2.203 . S
Cd74 O73 2.203 . S
Cd74 O76 2.411 . S
Cd74 O77 2.333 . S
Cd74 O78 2.352 . S
Cd74 O82 2.277 . S
Cd74 O83 2.356 . S
C75 O80 1.209 . S
C75 O82 1.226 . S
O76 Cd72 2.273 . S
O76 Cd74 2.411 . S
O76 C79 1.320 . S
O77 Cd74 2.333 . S
O77 C79 1.214 . S
O78 Cd74 2.352 . S
O78 C81 1.258 . S
C79 O76 1.320 . S
C79 O77 1.214 . S
O80 Cd72 2.277 . S
O80 C75 1.209 . S
C81 O78 1.258 . S
C81 O83 1.282 . S
O82 Cd74 2.277 . S
O82 C75 1.226 . S
O83 Cd74 2.356 . S
O83 C81 1.282 . S
C84 O85 1.306 . S
C84 O87 1.160 . S
O85 C84 1.306 . S
O85 Cd86 2.228 1_655 S
Cd86 O85 2.228 1_455 S
Cd86 O90 2.273 . S
Cd86 O94 2.277 . S
O87 C84 1.160 . S
O87 Cd88 2.203 1_655 S
Cd88 O87 2.203 1_455 S
Cd88 O90 2.411 . S
Cd88 O91 2.333 . S
Cd88 O92 2.352 . S
Cd88 O96 2.277 . S
Cd88 O97 2.356 . S
C89 O94 1.209 . S
C89 O96 1.226 . S
O90 Cd86 2.273 . S
O90 Cd88 2.411 . S
O90 C93 1.320 . S
O91 Cd88 2.333 . S
O91 C93 1.214 . S
O92 Cd88 2.352 . S
O92 C95 1.258 . S
C93 O90 1.320 . S
C93 O91 1.214 . S
O94 Cd86 2.277 . S
O94 C89 1.209 . S
C95 O92 1.258 . S
C95 O97 1.282 . S
O96 Cd88 2.277 . S
O96 C89 1.226 . S
O97 Cd88 2.356 . S
O97 C95 1.282 . S
C98 O99 1.306 . S
C98 O101 1.160 . S
O99 C98 1.306 . S
O99 Cd100 2.228 . S
Cd100 O99 2.228 . S
Cd100 O104 2.273 . S
Cd100 O108 2.277 . S
O101 C98 1.160 . S
O101 Cd102 2.203 . S
Cd102 O101 2.203 . S
Cd102 O104 2.411 . S
Cd102 O105 2.333 . S
Cd102 O106 2.352 . S
Cd102 O110 2.277 . S
Cd102 O111 2.356 . S
C103 O108 1.209 . S
C103 O110 1.226 . S
O104 Cd100 2.273 . S
O104 Cd102 2.411 . S
O104 C107 1.320 . S
O105 Cd102 2.333 . S
O105 C107 1.214 . S
O106 Cd102 2.352 . S
O106 C109 1.258 . S
C107 O104 1.320 . S
C107 O105 1.214 . S
O108 Cd100 2.277 . S
O108 C103 1.209 . S
C109 O106 1.258 . S
C109 O111 1.282 . S
O110 Cd102 2.277 . S
O110 C103 1.226 . S
O111 Cd102 2.356 . S
O111 C109 1.282 . S
C112 O113 1.306 . S
C112 O115 1.160 . S
O113 C112 1.306 . S
O113 Cd114 2.228 . S
Cd114 O113 2.228 . S
Cd114 O118 2.273 1_545 S
Cd114 O122 2.277 . S
O115 C112 1.160 . S
O115 Cd116 2.203 . S
Cd116 O115 2.203 . S
Cd116 O118 2.411 1_545 S
Cd116 O119 2.333 1_545 S
Cd116 O120 2.352 . S
Cd116 O124 2.277 . S
Cd116 O125 2.356 . S
C117 O122 1.209 . S
C117 O124 1.226 . S
O118 Cd114 2.273 1_565 S
O118 Cd116 2.411 1_565 S
O118 C121 1.320 . S
O119 Cd116 2.333 1_565 S
O119 C121 1.214 . S
O120 Cd116 2.352 . S
O120 C123 1.258 . S
C121 O118 1.320 . S
C121 O119 1.214 . S
O122 Cd114 2.277 . S
O122 C117 1.209 . S
C123 O120 1.258 . S
C123 O125 1.282 . S
O124 Cd116 2.277 . S
O124 C117 1.226 . S
O125 Cd116 2.356 . S
O125 C123 1.282 . S
C126 O127 1.306 . S
C126 O129 1.160 . S
O127 C126 1.306 . S
O127 Cd128 2.228 1_565 S
Cd128 O127 2.228 1_545 S
Cd128 O132 2.273 . S
Cd128 O136 2.277 . S
O129 C126 1.160 . S
O129 Cd130 2.203 1_565 S
Cd130 O129 2.203 1_545 S
Cd130 O132 2.411 . S
Cd130 O133 2.333 . S
Cd130 O134 2.352 . S
Cd130 O138 2.277 . S
Cd130 O139 2.356 . S
C131 O136 1.209 . S
C131 O138 1.226 . S
O132 Cd128 2.273 . S
O132 Cd130 2.411 . S
O132 C135 1.320 . S
O133 Cd130 2.333 . S
O133 C135 1.214 . S
O134 Cd130 2.352 . S
O134 C137 1.258 . S
C135 O132 1.320 . S
C135 O133 1.214 . S
O136 Cd128 2.277 . S
O136 C131 1.209 . S
C137 O134 1.258 . S
C137 O139 1.282 . S
O138 Cd130 2.277 . S
O138 C131 1.226 . S
O139 Cd130 2.356 . S
O139 C137 1.282 . S
C140 O141 1.306 . S
C140 O143 1.160 . S
O141 C140 1.306 . S
O141 Cd142 2.228 . S
Cd142 O141 2.228 . S
Cd142 O146 2.273 1_455 S
Cd142 O150 2.277 . S
O143 C140 1.160 . S
O143 Cd144 2.203 . S
Cd144 O143 2.203 . S
Cd144 O146 2.411 1_455 S
Cd144 O147 2.333 1_455 S
Cd144 O148 2.352 . S
Cd144 O152 2.277 . S
Cd144 O153 2.356 . S
C145 O150 1.209 . S
C145 O152 1.226 . S
O146 Cd142 2.273 1_655 S
O146 Cd144 2.411 1_655 S
O146 C149 1.320 . S
O147 Cd144 2.333 1_655 S
O147 C149 1.214 . S
O148 Cd144 2.352 . S
O148 C151 1.258 . S
C149 O146 1.320 . S
C149 O147 1.214 . S
O150 Cd142 2.277 . S
O150 C145 1.209 . S
C151 O148 1.258 . S
C151 O153 1.282 . S
O152 Cd144 2.277 . S
O152 C145 1.226 . S
O153 Cd144 2.356 . S
O153 C151 1.282 . S
C154 O155 1.306 . S
C154 O157 1.160 . S
O155 C154 1.306 . S
O155 Cd156 2.228 . S
Cd156 O155 2.228 . S
Cd156 O160 2.273 . S
Cd156 O164 2.277 . S
O157 C154 1.160 . S
O157 Cd158 2.203 . S
Cd158 O157 2.203 . S
Cd158 O160 2.411 . S
Cd158 O161 2.333 . S
Cd158 O162 2.352 . S
Cd158 O166 2.277 . S
Cd158 O167 2.356 . S
C159 O164 1.209 . S
C159 O166 1.226 . S
O160 Cd156 2.273 . S
O160 Cd158 2.411 . S
O160 C163 1.320 . S
O161 Cd158 2.333 . S
O161 C163 1.214 . S
O162 Cd158 2.352 . S
O162 C165 1.258 . S
C163 O160 1.320 . S
C163 O161 1.214 . S
O164 Cd156 2.277 . S
O164 C159 1.209 . S
C165 O162 1.258 . S
C165 O167 1.282 . S
O166 Cd158 2.277 . S
O166 C159 1.226 . S
O167 Cd158 2.356 . S
O167 C165 1.282 . S
C168 O169 1.306 . S
C168 O171 1.160 . S
O169 C168 1.306 . S
O169 Cd170 2.228 . S
Cd170 O169 2.228 . S
Cd170 O174 2.273 . S
Cd170 O178 2.277 . S
O171 C168 1.160 . S
O171 Cd172 2.203 . S
Cd172 O171 2.203 . S
Cd172 O174 2.411 . S
Cd172 O175 2.333 . S
Cd172 O176 2.352 . S
Cd172 O180 2.277 . S
Cd172 O181 2.356 . S
C173 O178 1.209 . S
C173 O180 1.226 . S
O174 Cd170 2.273 . S
O174 Cd172 2.411 . S
O174 C177 1.320 . S
O175 Cd172 2.333 . S
O175 C177 1.214 . S
O176 Cd172 2.352 . S
O176 C179 1.258 . S
C177 O174 1.320 . S
C177 O175 1.214 . S
O178 Cd170 2.277 . S
O178 C173 1.209 . S
C179 O176 1.258 . S
C179 O181 1.282 . S
O180 Cd172 2.277 . S
O180 C173 1.226 . S
O181 Cd172 2.356 . S
O181 C179 1.282 . S
C182 O183 1.306 . S
C182 O185 1.160 . S
O183 C182 1.306 . S
O183 Cd184 2.228 . S
Cd184 O183 2.228 . S
Cd184 O188 2.273 . S
Cd184 O192 2.277 . S
O185 C182 1.160 . S
O185 Cd186 2.203 . S
Cd186 O185 2.203 . S
Cd186 O188 2.411 . S
Cd186 O189 2.333 . S
Cd186 O190 2.352 . S
Cd186 O194 2.277 . S
Cd186 O195 2.356 1_545 S
C187 O192 1.209 . S
C187 O194 1.226 . S
O188 Cd184 2.273 . S
O188 Cd186 2.411 . S
O188 C191 1.320 . S
O189 Cd186 2.333 . S
O189 C191 1.214 . S
O190 Cd186 2.352 . S
O190 C193 1.258 . S
C191 O188 1.320 . S
C191 O189 1.214 . S
O192 Cd184 2.277 . S
O192 C187 1.209 . S
C193 O190 1.258 . S
C193 O195 1.282 1_545 S
O194 Cd186 2.277 . S
O194 C187 1.226 . S
O195 Cd186 2.356 1_565 S
O195 C193 1.282 1_565 S
C196 O197 1.306 . S
C196 O199 1.160 . S
O197 C196 1.306 . S
O197 Cd198 2.228 . S
Cd198 O197 2.228 . S
Cd198 O202 2.273 . S
Cd198 O206 2.277 . S
O199 C196 1.160 . S
O199 Cd200 2.203 . S
Cd200 O199 2.203 . S
Cd200 O202 2.411 . S
Cd200 O203 2.333 1_655 S
Cd200 O204 2.352 . S
Cd200 O208 2.277 1_655 S
Cd200 O209 2.356 1_655 S
C201 O206 1.209 . S
C201 O208 1.226 1_655 S
O202 Cd198 2.273 . S
O202 Cd200 2.411 . S
O202 C205 1.320 . S
O203 Cd200 2.333 1_455 S
O203 C205 1.214 1_455 S
O204 Cd200 2.352 . S
O204 C207 1.258 1_655 S
C205 O202 1.320 . S
C205 O203 1.214 1_655 S
O206 Cd198 2.277 . S
O206 C201 1.209 . S
C207 O204 1.258 1_455 S
C207 O209 1.282 . S
O208 Cd200 2.277 1_455 S
O208 C201 1.226 1_455 S
O209 Cd200 2.356 1_455 S
O209 C207 1.282 . S
C210 O211 1.306 . S
C210 O213 1.160 1_655 S
O211 C210 1.306 . S
O211 Cd212 2.228 . S
Cd212 O211 2.228 . S
Cd212 O216 2.273 . S
Cd212 O220 2.277 . S
O213 C210 1.160 1_455 S
O213 Cd214 2.203 1_455 S
Cd214 O213 2.203 1_655 S
Cd214 O216 2.411 . S
Cd214 O217 2.333 . S
Cd214 O218 2.352 . S
Cd214 O222 2.277 1_655 S
Cd214 O223 2.356 1_655 S
C215 O220 1.209 . S
C215 O222 1.226 1_655 S
O216 Cd212 2.273 . S
O216 Cd214 2.411 . S
O216 C219 1.320 . S
O217 Cd214 2.333 . S
O217 C219 1.214 . S
O218 Cd214 2.352 . S
O218 C221 1.258 1_655 S
C219 O216 1.320 . S
C219 O217 1.214 . S
O220 Cd212 2.277 . S
O220 C215 1.209 . S
C221 O218 1.258 1_455 S
C221 O223 1.282 . S
O222 Cd214 2.277 1_455 S
O222 C215 1.226 1_455 S
O223 Cd214 2.356 1_455 S
O223 C221 1.282 . S
C224 O225 1.306 . S
C224 O227 1.160 . S
O225 C224 1.306 . S
O225 Cd226 2.228 . S
Cd226 O225 2.228 . S
Cd226 O230 2.273 . S
Cd226 O234 2.277 . S
O227 C224 1.160 . S
O227 Cd228 2.203 . S
Cd228 O227 2.203 . S
Cd228 O230 2.411 . S
Cd228 O231 2.333 . S
Cd228 O232 2.352 . S
Cd228 O236 2.277 . S
Cd228 O237 2.356 . S
C229 O234 1.209 . S
C229 O236 1.226 . S
O230 Cd226 2.273 . S
O230 Cd228 2.411 . S
O230 C233 1.320 . S
O231 Cd228 2.333 . S
O231 C233 1.214 . S
O232 Cd228 2.352 . S
O232 C235 1.258 . S
C233 O230 1.320 . S
C233 O231 1.214 . S
O234 Cd226 2.277 . S
O234 C229 1.209 . S
C235 O232 1.258 . S
C235 O237 1.282 . S
O236 Cd228 2.277 . S
O236 C229 1.226 . S
O237 Cd228 2.356 . S
O237 C235 1.282 . S
C238 O239 1.306 . S
C238 O241 1.160 . S
O239 C238 1.306 . S
O239 Cd240 2.228 . S
Cd240 O239 2.228 . S
Cd240 O244 2.273 . S
Cd240 O248 2.277 . S
O241 C238 1.160 . S
O241 Cd242 2.203 . S
Cd242 O241 2.203 . S
Cd242 O244 2.411 . S
Cd242 O245 2.333 . S
Cd242 O246 2.352 . S
Cd242 O250 2.277 . S
Cd242 O251 2.356 . S
C243 O248 1.209 . S
C243 O250 1.226 . S
O244 Cd240 2.273 . S
O244 Cd242 2.411 . S
O244 C247 1.320 . S
O245 Cd242 2.333 . S
O245 C247 1.214 . S
O246 Cd242 2.352 . S
O246 C249 1.258 . S
C247 O244 1.320 . S
C247 O245 1.214 . S
O248 Cd240 2.277 . S
O248 C243 1.209 . S
C249 O246 1.258 . S
C249 O251 1.282 . S
O250 Cd242 2.277 . S
O250 C243 1.226 . S
O251 Cd242 2.356 . S
O251 C249 1.282 . S
C252 O253 1.306 . S
C252 O255 1.160 . S
O253 C252 1.306 . S
O253 Cd254 2.228 . S
Cd254 O253 2.228 . S
Cd254 O258 2.273 . S
Cd254 O262 2.277 . S
O255 C252 1.160 . S
O255 Cd256 2.203 . S
Cd256 O255 2.203 . S
Cd256 O258 2.411 . S
Cd256 O259 2.333 . S
Cd256 O260 2.352 . S
Cd256 O264 2.277 . S
Cd256 O265 2.356 . S
C257 O262 1.209 . S
C257 O264 1.226 . S
O258 Cd254 2.273 . S
O258 Cd256 2.411 . S
O258 C261 1.320 . S
O259 Cd256 2.333 . S
O259 C261 1.214 . S
O260 Cd256 2.352 . S
O260 C263 1.258 . S
C261 O258 1.320 . S
C261 O259 1.214 . S
O262 Cd254 2.277 . S
O262 C257 1.209 . S
C263 O260 1.258 . S
C263 O265 1.282 . S
O264 Cd256 2.277 . S
O264 C257 1.226 . S
O265 Cd256 2.356 . S
O265 C263 1.282 . S
C266 O267 1.306 . S
C266 O269 1.160 1_655 S
O267 C266 1.306 . S
O267 Cd268 2.228 . S
Cd268 O267 2.228 . S
Cd268 O272 2.273 . S
Cd268 O276 2.277 . S
O269 C266 1.160 1_455 S
O269 Cd270 2.203 1_455 S
Cd270 O269 2.203 1_655 S
Cd270 O272 2.411 . S
Cd270 O273 2.333 . S
Cd270 O274 2.352 . S
Cd270 O278 2.277 1_655 S
Cd270 O279 2.356 1_655 S
C271 O276 1.209 . S
C271 O278 1.226 1_655 S
O272 Cd268 2.273 . S
O272 Cd270 2.411 . S
O272 C275 1.320 . S
O273 Cd270 2.333 . S
O273 C275 1.214 . S
O274 Cd270 2.352 . S
O274 C277 1.258 1_655 S
C275 O272 1.320 . S
C275 O273 1.214 . S
O276 Cd268 2.277 . S
O276 C271 1.209 . S
C277 O274 1.258 1_455 S
C277 O279 1.282 . S
O278 Cd270 2.277 1_455 S
O278 C271 1.226 1_455 S
O279 Cd270 2.356 1_455 S
O279 C277 1.282 . S
C280 O281 1.306 . S
C280 O283 1.160 . S
O281 C280 1.306 . S
O281 Cd282 2.228 . S
Cd282 O281 2.228 . S
Cd282 O286 2.273 . S
Cd282 O290 2.277 . S
O283 C280 1.160 . S
O283 Cd284 2.203 . S
Cd284 O283 2.203 . S
Cd284 O286 2.411 . S
Cd284 O287 2.333 . S
Cd284 O288 2.352 . S
Cd284 O292 2.277 . S
Cd284 O293 2.356 . S
C285 O290 1.209 . S
C285 O292 1.226 . S
O286 Cd282 2.273 . S
O286 Cd284 2.411 . S
O286 C289 1.320 . S
O287 Cd284 2.333 . S
O287 C289 1.214 . S
O288 Cd284 2.352 . S
O288 C291 1.258 . S
C289 O286 1.320 . S
C289 O287 1.214 . S
O290 Cd282 2.277 . S
O290 C285 1.209 . S
C291 O288 1.258 . S
C291 O293 1.282 . S
O292 Cd284 2.277 . S
O292 C285 1.226 . S
O293 Cd284 2.356 . S
O293 C291 1.282 . S
C294 O295 1.306 . S
C294 O297 1.160 . S
O295 C294 1.306 . S
O295 Cd296 2.228 . S
Cd296 O295 2.228 . S
Cd296 O300 2.273 . S
Cd296 O304 2.277 . S
O297 C294 1.160 . S
O297 Cd298 2.203 . S
Cd298 O297 2.203 . S
Cd298 O300 2.411 . S
Cd298 O301 2.333 . S
Cd298 O302 2.352 . S
Cd298 O306 2.277 . S
Cd298 O307 2.356 . S
C299 O304 1.209 . S
C299 O306 1.226 . S
O300 Cd296 2.273 . S
O300 Cd298 2.411 . S
O300 C303 1.320 . S
O301 Cd298 2.333 . S
O301 C303 1.214 . S
O302 Cd298 2.352 . S
O302 C305 1.258 . S
C303 O300 1.320 . S
C303 O301 1.214 . S
O304 Cd296 2.277 . S
O304 C299 1.209 . S
C305 O302 1.258 . S
C305 O307 1.282 . S
O306 Cd298 2.277 . S
O306 C299 1.226 . S
O307 Cd298 2.356 . S
O307 C305 1.282 . S
C308 O309 1.306 . S
C308 O311 1.160 . S
O309 C308 1.306 . S
O309 Cd310 2.228 . S
Cd310 O309 2.228 . S
Cd310 O314 2.273 . S
Cd310 O318 2.277 . S
O311 C308 1.160 . S
O311 Cd312 2.203 . S
Cd312 O311 2.203 . S
Cd312 O314 2.411 . S
Cd312 O315 2.333 . S
Cd312 O316 2.352 . S
Cd312 O320 2.277 . S
Cd312 O321 2.356 1_545 S
C313 O318 1.209 . S
C313 O320 1.226 . S
O314 Cd310 2.273 . S
O314 Cd312 2.411 . S
O314 C317 1.320 . S
O315 Cd312 2.333 . S
O315 C317 1.214 . S
O316 Cd312 2.352 . S
O316 C319 1.258 . S
C317 O314 1.320 . S
C317 O315 1.214 . S
O318 Cd310 2.277 . S
O318 C313 1.209 . S
C319 O316 1.258 . S
C319 O321 1.282 1_545 S
O320 Cd312 2.277 . S
O320 C313 1.226 . S
O321 Cd312 2.356 1_565 S
O321 C319 1.282 1_565 S
C322 O323 1.306 . S
C322 O325 1.160 . S
O323 C322 1.306 . S
O323 Cd324 2.228 . S
Cd324 O323 2.228 . S
Cd324 O328 2.273 . S
Cd324 O332 2.277 . S
O325 C322 1.160 . S
O325 Cd326 2.203 . S
Cd326 O325 2.203 . S
Cd326 O328 2.411 . S
Cd326 O329 2.333 1_655 S
Cd326 O330 2.352 . S
Cd326 O334 2.277 1_655 S
Cd326 O335 2.356 1_655 S
C327 O332 1.209 . S
C327 O334 1.226 1_655 S
O328 Cd324 2.273 . S
O328 Cd326 2.411 . S
O328 C331 1.320 . S
O329 Cd326 2.333 1_455 S
O329 C331 1.214 1_455 S
O330 Cd326 2.352 . S
O330 C333 1.258 1_655 S
C331 O328 1.320 . S
C331 O329 1.214 1_655 S
O332 Cd324 2.277 . S
O332 C327 1.209 . S
C333 O330 1.258 1_455 S
C333 O335 1.282 . S
O334 Cd326 2.277 1_455 S
O334 C327 1.226 1_455 S
O335 Cd326 2.356 1_455 S
O335 C333 1.282 . S
C336 O337 1.306 . S
C336 O339 1.160 1_565 S
O337 C336 1.306 . S
O337 Cd338 2.228 . S
Cd338 O337 2.228 . S
Cd338 O342 2.273 . S
Cd338 O346 2.277 . S
O339 C336 1.160 1_545 S
O339 Cd340 2.203 1_545 S
Cd340 O339 2.203 1_565 S
Cd340 O342 2.411 . S
Cd340 O343 2.333 . S
Cd340 O344 2.352 . S
Cd340 O348 2.277 1_565 S
Cd340 O349 2.356 1_565 S
C341 O346 1.209 . S
C341 O348 1.226 1_565 S
O342 Cd338 2.273 . S
O342 Cd340 2.411 . S
O342 C345 1.320 . S
O343 Cd340 2.333 . S
O343 C345 1.214 . S
O344 Cd340 2.352 . S
O344 C347 1.258 1_565 S
C345 O342 1.320 . S
C345 O343 1.214 . S
O346 Cd338 2.277 . S
O346 C341 1.209 . S
C347 O344 1.258 1_545 S
C347 O349 1.282 . S
O348 Cd340 2.277 1_545 S
O348 C341 1.226 1_545 S
O349 Cd340 2.356 1_545 S
O349 C347 1.282 . S
C350 O351 1.306 . S
C350 O353 1.160 . S
O351 C350 1.306 . S
O351 Cd352 2.228 . S
Cd352 O351 2.228 . S
Cd352 O356 2.273 . S
Cd352 O360 2.277 . S
O353 C350 1.160 . S
O353 Cd354 2.203 . S
Cd354 O353 2.203 . S
Cd354 O356 2.411 . S
Cd354 O357 2.333 . S
Cd354 O358 2.352 . S
Cd354 O362 2.277 . S
Cd354 O363 2.356 . S
C355 O360 1.209 . S
C355 O362 1.226 . S
O356 Cd352 2.273 . S
O356 Cd354 2.411 . S
O356 C359 1.320 . S
O357 Cd354 2.333 . S
O357 C359 1.214 . S
O358 Cd354 2.352 . S
O358 C361 1.258 . S
C359 O356 1.320 . S
C359 O357 1.214 . S
O360 Cd352 2.277 . S
O360 C355 1.209 . S
C361 O358 1.258 . S
C361 O363 1.282 . S
O362 Cd354 2.277 . S
O362 C355 1.226 . S
O363 Cd354 2.356 . S
O363 C361 1.282 . S
C364 O365 1.306 . S
C364 O367 1.160 . S
O365 C364 1.306 . S
O365 Cd366 2.228 . S
Cd366 O365 2.228 . S
Cd366 O370 2.273 . S
Cd366 O374 2.277 . S
O367 C364 1.160 . S
O367 Cd368 2.203 . S
Cd368 O367 2.203 . S
Cd368 O370 2.411 . S
Cd368 O371 2.333 . S
Cd368 O372 2.352 . S
Cd368 O376 2.277 . S
Cd368 O377 2.356 . S
C369 O374 1.209 . S
C369 O376 1.226 . S
O370 Cd366 2.273 . S
O370 Cd368 2.411 . S
O370 C373 1.320 . S
O371 Cd368 2.333 . S
O371 C373 1.214 . S
O372 Cd368 2.352 . S
O372 C375 1.258 . S
C373 O370 1.320 . S
C373 O371 1.214 . S
O374 Cd366 2.277 . S
O374 C369 1.209 . S
C375 O372 1.258 . S
C375 O377 1.282 . S
O376 Cd368 2.277 . S
O376 C369 1.226 . S
O377 Cd368 2.356 . S
O377 C375 1.282 . S
C378 O379 1.306 . S
C378 O381 1.160 . S
O379 C378 1.306 . S
O379 Cd380 2.228 . S
Cd380 O379 2.228 . S
Cd380 O384 2.273 . S
Cd380 O388 2.277 . S
O381 C378 1.160 . S
O381 Cd382 2.203 . S
Cd382 O381 2.203 . S
Cd382 O384 2.411 . S
Cd382 O385 2.333 . S
Cd382 O386 2.352 . S
Cd382 O390 2.277 . S
Cd382 O391 2.356 . S
C383 O388 1.209 . S
C383 O390 1.226 . S
O384 Cd380 2.273 . S
O384 Cd382 2.411 . S
O384 C387 1.320 . S
O385 Cd382 2.333 . S
O385 C387 1.214 . S
O386 Cd382 2.352 . S
O386 C389 1.258 . S
C387 O384 1.320 . S
C387 O385 1.214 . S
O388 Cd380 2.277 . S
O388 C383 1.209 . S
C389 O386 1.258 . S
C389 O391 1.282 . S
O390 Cd382 2.277 . S
O390 C383 1.226 . S
O391 Cd382 2.356 . S
O391 C389 1.282 . S
C392 O393 1.306 . S
C392 O395 1.160 . S
O393 C392 1.306 . S
O393 Cd394 2.228 . S
Cd394 O393 2.228 . S
Cd394 O398 2.273 . S
Cd394 O402 2.277 . S
O395 C392 1.160 . S
O395 Cd396 2.203 . S
Cd396 O395 2.203 . S
Cd396 O398 2.411 . S
Cd396 O399 2.333 1_565 S
Cd396 O400 2.352 . S
Cd396 O404 2.277 1_565 S
Cd396 O405 2.356 1_565 S
C397 O402 1.209 . S
C397 O404 1.226 1_565 S
O398 Cd394 2.273 . S
O398 Cd396 2.411 . S
O398 C401 1.320 . S
O399 Cd396 2.333 1_545 S
O399 C401 1.214 1_545 S
O400 Cd396 2.352 . S
O400 C403 1.258 1_565 S
C401 O398 1.320 . S
C401 O399 1.214 1_565 S
O402 Cd394 2.277 . S
O402 C397 1.209 . S
C403 O400 1.258 1_545 S
C403 O405 1.282 . S
O404 Cd396 2.277 1_545 S
O404 C397 1.226 1_545 S
O405 Cd396 2.356 1_545 S
O405 C403 1.282 . S
C406 O407 1.306 . S
C406 O409 1.160 . S
O407 C406 1.306 . S
O407 Cd408 2.228 . S
Cd408 O407 2.228 . S
Cd408 O412 2.273 . S
Cd408 O416 2.277 . S
O409 C406 1.160 . S
O409 Cd410 2.203 . S
Cd410 O409 2.203 . S
Cd410 O412 2.411 . S
Cd410 O413 2.333 . S
Cd410 O414 2.352 . S
Cd410 O418 2.277 . S
Cd410 O419 2.356 1_455 S
C411 O416 1.209 . S
C411 O418 1.226 . S
O412 Cd408 2.273 . S
O412 Cd410 2.411 . S
O412 C415 1.320 . S
O413 Cd410 2.333 . S
O413 C415 1.214 . S
O414 Cd410 2.352 . S
O414 C417 1.258 . S
C415 O412 1.320 . S
C415 O413 1.214 . S
O416 Cd408 2.277 . S
O416 C411 1.209 . S
C417 O414 1.258 . S
C417 O419 1.282 1_455 S
O418 Cd410 2.277 . S
O418 C411 1.226 . S
O419 Cd410 2.356 1_655 S
O419 C417 1.282 1_655 S
C420 O421 1.306 . S
C420 O423 1.160 . S
O421 C420 1.306 . S
O421 Cd422 2.228 . S
Cd422 O421 2.228 . S
Cd422 O426 2.273 . S
Cd422 O430 2.277 . S
O423 C420 1.160 . S
O423 Cd424 2.203 . S
Cd424 O423 2.203 . S
Cd424 O426 2.411 . S
Cd424 O427 2.333 . S
Cd424 O428 2.352 . S
Cd424 O432 2.277 . S
Cd424 O433 2.356 . S
C425 O430 1.209 . S
C425 O432 1.226 . S
O426 Cd422 2.273 . S
O426 Cd424 2.411 . S
O426 C429 1.320 . S
O427 Cd424 2.333 . S
O427 C429 1.214 . S
O428 Cd424 2.352 . S
O428 C431 1.258 . S
C429 O426 1.320 . S
C429 O427 1.214 . S
O430 Cd422 2.277 . S
O430 C425 1.209 . S
C431 O428 1.258 . S
C431 O433 1.282 . S
O432 Cd424 2.277 . S
O432 C425 1.226 . S
O433 Cd424 2.356 . S
O433 C431 1.282 . S
C434 O435 1.306 . S
C434 O437 1.160 . S
O435 C434 1.306 . S
O435 Cd436 2.228 . S
Cd436 O435 2.228 . S
Cd436 O440 2.273 . S
Cd436 O444 2.277 . S
O437 C434 1.160 . S
O437 Cd438 2.203 . S
Cd438 O437 2.203 . S
Cd438 O440 2.411 . S
Cd438 O441 2.333 1_565 S
Cd438 O442 2.352 . S
Cd438 O446 2.277 1_565 S
Cd438 O447 2.356 1_565 S
C439 O444 1.209 . S
C439 O446 1.226 1_565 S
O440 Cd436 2.273 . S
O440 Cd438 2.411 . S
O440 C443 1.320 . S
O441 Cd438 2.333 1_545 S
O441 C443 1.214 1_545 S
O442 Cd438 2.352 . S
O442 C445 1.258 1_565 S
C443 O440 1.320 . S
C443 O441 1.214 1_565 S
O444 Cd436 2.277 . S
O444 C439 1.209 . S
C445 O442 1.258 1_545 S
C445 O447 1.282 . S
O446 Cd438 2.277 1_545 S
O446 C439 1.226 1_545 S
O447 Cd438 2.356 1_545 S
O447 C445 1.282 . S
C448 O449 1.306 . S
C448 O451 1.160 . S
O449 C448 1.306 . S
O449 Cd450 2.228 . S
Cd450 O449 2.228 . S
Cd450 O454 2.273 . S
Cd450 O458 2.277 . S
O451 C448 1.160 . S
O451 Cd452 2.203 . S
Cd452 O451 2.203 . S
Cd452 O454 2.411 . S
Cd452 O455 2.333 . S
Cd452 O456 2.352 . S
Cd452 O460 2.277 . S
Cd452 O461 2.356 1_455 S
C453 O458 1.209 . S
C453 O460 1.226 . S
O454 Cd450 2.273 . S
O454 Cd452 2.411 . S
O454 C457 1.320 . S
O455 Cd452 2.333 . S
O455 C457 1.214 . S
O456 Cd452 2.352 . S
O456 C459 1.258 . S
C457 O454 1.320 . S
C457 O455 1.214 . S
O458 Cd450 2.277 . S
O458 C453 1.209 . S
C459 O456 1.258 . S
C459 O461 1.282 1_455 S
O460 Cd452 2.277 . S
O460 C453 1.226 . S
O461 Cd452 2.356 1_655 S
O461 C459 1.282 1_655 S
C462 O463 1.306 . S
C462 O465 1.160 . S
O463 C462 1.306 . S
O463 Cd464 2.228 . S
Cd464 O463 2.228 . S
Cd464 O468 2.273 . S
Cd464 O472 2.277 . S
O465 C462 1.160 . S
O465 Cd466 2.203 . S
Cd466 O465 2.203 . S
Cd466 O468 2.411 . S
Cd466 O469 2.333 . S
Cd466 O470 2.352 . S
Cd466 O474 2.277 . S
Cd466 O475 2.356 . S
C467 O472 1.209 . S
C467 O474 1.226 . S
O468 Cd464 2.273 . S
O468 Cd466 2.411 . S
O468 C471 1.320 . S
O469 Cd466 2.333 . S
O469 C471 1.214 . S
O470 Cd466 2.352 . S
O470 C473 1.258 . S
C471 O468 1.320 . S
C471 O469 1.214 . S
O472 Cd464 2.277 . S
O472 C467 1.209 . S
C473 O470 1.258 . S
C473 O475 1.282 . S
O474 Cd466 2.277 . S
O474 C467 1.226 . S
O475 Cd466 2.356 . S
O475 C473 1.282 . S
C476 O477 1.306 . S
C476 O479 1.160 . S
O477 C476 1.306 . S
O477 Cd478 2.228 . S
Cd478 O477 2.228 . S
Cd478 O482 2.273 . S
Cd478 O486 2.277 . S
O479 C476 1.160 . S
O479 Cd480 2.203 . S
Cd480 O479 2.203 . S
Cd480 O482 2.411 . S
Cd480 O483 2.333 . S
Cd480 O484 2.352 . S
Cd480 O488 2.277 . S
Cd480 O489 2.356 . S
C481 O486 1.209 . S
C481 O488 1.226 . S
O482 Cd478 2.273 . S
O482 Cd480 2.411 . S
O482 C485 1.320 . S
O483 Cd480 2.333 . S
O483 C485 1.214 . S
O484 Cd480 2.352 . S
O484 C487 1.258 . S
C485 O482 1.320 . S
C485 O483 1.214 . S
O486 Cd478 2.277 . S
O486 C481 1.209 . S
C487 O484 1.258 . S
C487 O489 1.282 . S
O488 Cd480 2.277 . S
O488 C481 1.226 . S
O489 Cd480 2.356 . S
O489 C487 1.282 . S
C490 O491 1.306 . S
C490 O493 1.160 1_565 S
O491 C490 1.306 . S
O491 Cd492 2.228 . S
Cd492 O491 2.228 . S
Cd492 O496 2.273 . S
Cd492 O500 2.277 . S
O493 C490 1.160 1_545 S
O493 Cd494 2.203 1_545 S
Cd494 O493 2.203 1_565 S
Cd494 O496 2.411 . S
Cd494 O497 2.333 . S
Cd494 O498 2.352 . S
Cd494 O502 2.277 1_565 S
Cd494 O503 2.356 1_565 S
C495 O500 1.209 . S
C495 O502 1.226 1_565 S
O496 Cd492 2.273 . S
O496 Cd494 2.411 . S
O496 C499 1.320 . S
O497 Cd494 2.333 . S
O497 C499 1.214 . S
O498 Cd494 2.352 . S
O498 C501 1.258 1_565 S
C499 O496 1.320 . S
C499 O497 1.214 . S
O500 Cd492 2.277 . S
O500 C495 1.209 . S
C501 O498 1.258 1_545 S
C501 O503 1.282 . S
O502 Cd494 2.277 1_545 S
O502 C495 1.226 1_545 S
O503 Cd494 2.356 1_545 S
O503 C501 1.282 . S
C0 C154 1.492 . S
C126 C14 1.492 . S
C140 C28 1.492 . S
C42 C98 1.492 . S
C56 C112 1.492 . S
C70 C84 1.492 . S
C168 C322 1.492 . S
C294 C182 1.492 . S
C196 C308 1.492 . S
C210 C266 1.492 . S
C224 C280 1.492 . S
C238 C252 1.492 . S
C336 C490 1.492 . S
C350 C462 1.492 . S
C476 C364 1.492 . S
C378 C434 1.492 . S
C448 C392 1.492 . S
C420 C406 1.492 . S
C11 C221 1.729 . S
C25 C235 1.728 . S
C39 C249 1.728 . S
C53 C347 1.729 . S
C361 C67 1.728 . S
C375 C81 1.728 . S
C95 C473 1.728 . S
C487 C109 1.728 . S
C123 C501 1.728 . S
C137 C263 1.728 . S
C151 C277 1.728 . S
C165 C291 1.728 . S
C389 C179 1.729 . S
C193 C403 1.728 . S
C207 C417 1.728 . S
C431 C305 1.728 . S
C445 C319 1.728 . S
C333 C459 1.728 . S
C5 C61 1.358 1_554 S
C75 C19 1.358 1_556 S
C47 C33 1.358 1_556 S
C89 C145 1.358 1_556 S
C159 C103 1.358 1_554 S
C117 C131 1.358 1_556 S
C229 C173 1.358 . S
C187 C243 1.358 . S
C201 C215 1.358 . S
C313 C257 1.359 . S
C327 C271 1.358 . S
C299 C285 1.358 . S
C341 C397 1.358 . S
C355 C411 1.358 . S
C369 C383 1.358 . S
C481 C425 1.359 . S
C495 C439 1.358 . S
C467 C453 1.359 . S
C135 C9 1.621 . S
C149 C23 1.621 . S
C37 C163 1.621 . S
C51 C93 1.621 . S
C107 C65 1.621 . S
C79 C121 1.621 . S
C303 C177 1.621 . S
C317 C191 1.621 . S
C205 C331 1.621 . S
C261 C219 1.621 . S
C275 C233 1.621 . S
C289 C247 1.621 . S
C345 C471 1.621 . S
C485 C359 1.621 . S
C373 C499 1.621 . S
C387 C429 1.621 . S
C401 C443 1.621 . S
C457 C415 1.621 . S
