# Generated by pormake.
# Topology ukv, (4)-cn, num edge types: 1
# Building blocks:
#     Node 0, Type 0, BuildingBlock: GALJAG_clean_sbu_0, # of connection points: 4
#     Node 1, Type 0, BuildingBlock: GALJAG_clean_sbu_0, # of connection points: 4
#     Node 2, Type 0, BuildingBlock: GALJAG_clean_sbu_0, # of connection points: 4
#     Node 3, Type 0, BuildingBlock: GALJAG_clean_sbu_0, # of connection points: 4
#     Node 4, Type 0, BuildingBlock: GALJAG_clean_sbu_0, # of connection points: 4
#     Node 5, Type 0, BuildingBlock: GALJAG_clean_sbu_0, # of connection points: 4
#     Node 6, Type 0, BuildingBlock: GALJAG_clean_sbu_0, # of connection points: 4
#     Node 7, Type 0, BuildingBlock: GALJAG_clean_sbu_0, # of connection points: 4
#     Node 8, Type 0, BuildingBlock: GALJAG_clean_sbu_0, # of connection points: 4
#     Node 9, Type 0, BuildingBlock: GALJAG_clean_sbu_0, # of connection points: 4
#     Node 10, Type 0, BuildingBlock: GALJAG_clean_sbu_0, # of connection points: 4
#     Node 11, Type 0, BuildingBlock: GALJAG_clean_sbu_0, # of connection points: 4
#     Node 12, Type 0, BuildingBlock: GALJAG_clean_sbu_0, # of connection points: 4
#     Node 13, Type 0, BuildingBlock: GALJAG_clean_sbu_0, # of connection points: 4
#     Node 14, Type 0, BuildingBlock: GALJAG_clean_sbu_0, # of connection points: 4
#     Node 15, Type 0, BuildingBlock: GALJAG_clean_sbu_0, # of connection points: 4
#     Node 16, Type 0, BuildingBlock: GALJAG_clean_sbu_0, # of connection points: 4
#     Node 17, Type 0, BuildingBlock: GALJAG_clean_sbu_0, # of connection points: 4
#     Node 18, Type 0, BuildingBlock: GALJAG_clean_sbu_0, # of connection points: 4
#     Node 19, Type 0, BuildingBlock: GALJAG_clean_sbu_0, # of connection points: 4
#     Node 20, Type 0, BuildingBlock: GALJAG_clean_sbu_0, # of connection points: 4
#     Node 21, Type 0, BuildingBlock: GALJAG_clean_sbu_0, # of connection points: 4
#     Node 22, Type 0, BuildingBlock: GALJAG_clean_sbu_0, # of connection points: 4
#     Node 23, Type 0, BuildingBlock: GALJAG_clean_sbu_0, # of connection points: 4
#     Node 24, Type 0, BuildingBlock: GALJAG_clean_sbu_0, # of connection points: 4
#     Node 25, Type 0, BuildingBlock: GALJAG_clean_sbu_0, # of connection points: 4
#     Node 26, Type 0, BuildingBlock: GALJAG_clean_sbu_0, # of connection points: 4
#     Node 27, Type 0, BuildingBlock: GALJAG_clean_sbu_0, # of connection points: 4
#     Node 28, Type 0, BuildingBlock: GALJAG_clean_sbu_0, # of connection points: 4
#     Node 29, Type 0, BuildingBlock: GALJAG_clean_sbu_0, # of connection points: 4
#     Node 30, Type 0, BuildingBlock: GALJAG_clean_sbu_0, # of connection points: 4
#     Node 31, Type 0, BuildingBlock: GALJAG_clean_sbu_0, # of connection points: 4
#     Node 32, Type 0, BuildingBlock: GALJAG_clean_sbu_0, # of connection points: 4
#     Node 33, Type 0, BuildingBlock: GALJAG_clean_sbu_0, # of connection points: 4
#     Node 34, Type 0, BuildingBlock: GALJAG_clean_sbu_0, # of connection points: 4
#     Node 35, Type 0, BuildingBlock: GALJAG_clean_sbu_0, # of connection points: 4
#     Edge 36, Type (0, 0), BuildingBlock: XUDNAN_clean_linker_2, # of connection points: 2
#     Edge 37, Type (0, 0), BuildingBlock: XUDNAN_clean_linker_2, # of connection points: 2
#     Edge 38, Type (0, 0), BuildingBlock: XUDNAN_clean_linker_2, # of connection points: 2
#     Edge 39, Type (0, 0), BuildingBlock: XUDNAN_clean_linker_2, # of connection points: 2
#     Edge 40, Type (0, 0), BuildingBlock: XUDNAN_clean_linker_2, # of connection points: 2
#     Edge 41, Type (0, 0), BuildingBlock: XUDNAN_clean_linker_2, # of connection points: 2
#     Edge 42, Type (0, 0), BuildingBlock: XUDNAN_clean_linker_2, # of connection points: 2
#     Edge 43, Type (0, 0), BuildingBlock: XUDNAN_clean_linker_2, # of connection points: 2
#     Edge 44, Type (0, 0), BuildingBlock: XUDNAN_clean_linker_2, # of connection points: 2
#     Edge 45, Type (0, 0), BuildingBlock: XUDNAN_clean_linker_2, # of connection points: 2
#     Edge 46, Type (0, 0), BuildingBlock: XUDNAN_clean_linker_2, # of connection points: 2
#     Edge 47, Type (0, 0), BuildingBlock: XUDNAN_clean_linker_2, # of connection points: 2
#     Edge 48, Type (0, 0), BuildingBlock: XUDNAN_clean_linker_2, # of connection points: 2
#     Edge 49, Type (0, 0), BuildingBlock: XUDNAN_clean_linker_2, # of connection points: 2
#     Edge 50, Type (0, 0), BuildingBlock: XUDNAN_clean_linker_2, # of connection points: 2
#     Edge 51, Type (0, 0), BuildingBlock: XUDNAN_clean_linker_2, # of connection points: 2
#     Edge 52, Type (0, 0), BuildingBlock: XUDNAN_clean_linker_2, # of connection points: 2
#     Edge 53, Type (0, 0), BuildingBlock: XUDNAN_clean_linker_2, # of connection points: 2
#     Edge 54, Type (0, 0), BuildingBlock: XUDNAN_clean_linker_2, # of connection points: 2
#     Edge 55, Type (0, 0), BuildingBlock: XUDNAN_clean_linker_2, # of connection points: 2
#     Edge 56, Type (0, 0), BuildingBlock: XUDNAN_clean_linker_2, # of connection points: 2
#     Edge 57, Type (0, 0), BuildingBlock: XUDNAN_clean_linker_2, # of connection points: 2
#     Edge 58, Type (0, 0), BuildingBlock: XUDNAN_clean_linker_2, # of connection points: 2
#     Edge 59, Type (0, 0), BuildingBlock: XUDNAN_clean_linker_2, # of connection points: 2
#     Edge 60, Type (0, 0), BuildingBlock: XUDNAN_clean_linker_2, # of connection points: 2
#     Edge 61, Type (0, 0), BuildingBlock: XUDNAN_clean_linker_2, # of connection points: 2
#     Edge 62, Type (0, 0), BuildingBlock: XUDNAN_clean_linker_2, # of connection points: 2
#     Edge 63, Type (0, 0), BuildingBlock: XUDNAN_clean_linker_2, # of connection points: 2
#     Edge 64, Type (0, 0), BuildingBlock: XUDNAN_clean_linker_2, # of connection points: 2
#     Edge 65, Type (0, 0), BuildingBlock: XUDNAN_clean_linker_2, # of connection points: 2
#     Edge 66, Type (0, 0), BuildingBlock: XUDNAN_clean_linker_2, # of connection points: 2
#     Edge 67, Type (0, 0), BuildingBlock: XUDNAN_clean_linker_2, # of connection points: 2
#     Edge 68, Type (0, 0), BuildingBlock: XUDNAN_clean_linker_2, # of connection points: 2
#     Edge 69, Type (0, 0), BuildingBlock: XUDNAN_clean_linker_2, # of connection points: 2
#     Edge 70, Type (0, 0), BuildingBlock: XUDNAN_clean_linker_2, # of connection points: 2
#     Edge 71, Type (0, 0), BuildingBlock: XUDNAN_clean_linker_2, # of connection points: 2
#     Edge 72, Type (0, 0), BuildingBlock: XUDNAN_clean_linker_2, # of connection points: 2
#     Edge 73, Type (0, 0), BuildingBlock: XUDNAN_clean_linker_2, # of connection points: 2
#     Edge 74, Type (0, 0), BuildingBlock: XUDNAN_clean_linker_2, # of connection points: 2
#     Edge 75, Type (0, 0), BuildingBlock: XUDNAN_clean_linker_2, # of connection points: 2
#     Edge 76, Type (0, 0), BuildingBlock: XUDNAN_clean_linker_2, # of connection points: 2
#     Edge 77, Type (0, 0), BuildingBlock: XUDNAN_clean_linker_2, # of connection points: 2
#     Edge 78, Type (0, 0), BuildingBlock: XUDNAN_clean_linker_2, # of connection points: 2
#     Edge 79, Type (0, 0), BuildingBlock: XUDNAN_clean_linker_2, # of connection points: 2
#     Edge 80, Type (0, 0), BuildingBlock: XUDNAN_clean_linker_2, # of connection points: 2
#     Edge 81, Type (0, 0), BuildingBlock: XUDNAN_clean_linker_2, # of connection points: 2
#     Edge 82, Type (0, 0), BuildingBlock: XUDNAN_clean_linker_2, # of connection points: 2
#     Edge 83, Type (0, 0), BuildingBlock: XUDNAN_clean_linker_2, # of connection points: 2
#     Edge 84, Type (0, 0), BuildingBlock: XUDNAN_clean_linker_2, # of connection points: 2
#     Edge 85, Type (0, 0), BuildingBlock: XUDNAN_clean_linker_2, # of connection points: 2
#     Edge 86, Type (0, 0), BuildingBlock: XUDNAN_clean_linker_2, # of connection points: 2
#     Edge 87, Type (0, 0), BuildingBlock: XUDNAN_clean_linker_2, # of connection points: 2
#     Edge 88, Type (0, 0), BuildingBlock: XUDNAN_clean_linker_2, # of connection points: 2
#     Edge 89, Type (0, 0), BuildingBlock: XUDNAN_clean_linker_2, # of connection points: 2
#     Edge 90, Type (0, 0), BuildingBlock: XUDNAN_clean_linker_2, # of connection points: 2
#     Edge 91, Type (0, 0), BuildingBlock: XUDNAN_clean_linker_2, # of connection points: 2
#     Edge 92, Type (0, 0), BuildingBlock: XUDNAN_clean_linker_2, # of connection points: 2
#     Edge 93, Type (0, 0), BuildingBlock: XUDNAN_clean_linker_2, # of connection points: 2
#     Edge 94, Type (0, 0), BuildingBlock: XUDNAN_clean_linker_2, # of connection points: 2
#     Edge 95, Type (0, 0), BuildingBlock: XUDNAN_clean_linker_2, # of connection points: 2
#     Edge 96, Type (0, 0), BuildingBlock: XUDNAN_clean_linker_2, # of connection points: 2
#     Edge 97, Type (0, 0), BuildingBlock: XUDNAN_clean_linker_2, # of connection points: 2
#     Edge 98, Type (0, 0), BuildingBlock: XUDNAN_clean_linker_2, # of connection points: 2
#     Edge 99, Type (0, 0), BuildingBlock: XUDNAN_clean_linker_2, # of connection points: 2
#     Edge 100, Type (0, 0), BuildingBlock: XUDNAN_clean_linker_2, # of connection points: 2
#     Edge 101, Type (0, 0), BuildingBlock: XUDNAN_clean_linker_2, # of connection points: 2
#     Edge 102, Type (0, 0), BuildingBlock: XUDNAN_clean_linker_2, # of connection points: 2
#     Edge 103, Type (0, 0), BuildingBlock: XUDNAN_clean_linker_2, # of connection points: 2
#     Edge 104, Type (0, 0), BuildingBlock: XUDNAN_clean_linker_2, # of connection points: 2
#     Edge 105, Type (0, 0), BuildingBlock: XUDNAN_clean_linker_2, # of connection points: 2
#     Edge 106, Type (0, 0), BuildingBlock: XUDNAN_clean_linker_2, # of connection points: 2
#     Edge 107, Type (0, 0), BuildingBlock: XUDNAN_clean_linker_2, # of connection points: 2
# Relax obj value: 0.157
# Max RMSD: 0.129
# Mean RMSD: 0.129
data_MOF--net-ukv--node1-GALJAG_clean_sbu_0--edge1-XUDNAN_clean_linker_2
_symmetry_space_group_name_H-M    P1
_symmetry_Int_Tables_number       1
_symmetry_cell_setting            triclinic
loop_
_symmetry_equiv_pos_as_xyz
'x, y, z'
_cell_length_a     89.20673
_cell_length_b     89.160389
_cell_length_c     23.863583
_cell_angle_alpha  89.961226
_cell_angle_beta   90.025233
_cell_angle_gamma 119.98387
loop_
_atom_site_label
_atom_site_type_symbol
_atom_site_fract_x
_atom_site_fract_y
_atom_site_fract_z
_atom_type_partial_charge
In0 In 0.26381 0.0815 0.08725 0.0
O1 O 0.2701 0.10618 0.13481 0.0
O2 O 0.24418 0.08478 0.13721 0.0
C3 C 0.29365 0.08532 0.04723 0.0
C4 C 0.25518 0.05559 0.16018 0.0
C5 C 0.25162 0.08661 0.99039 0.0
O6 O 0.29336 0.09612 0.08102 0.0
O7 O 0.27903 0.07246 0.03596 0.0
O8 O 0.24426 0.07193 0.01424 0.0
O9 O 0.26458 0.09825 0.01597 0.0
C10 C 0.25476 0.10003 0.15261 0.0
O11 O 0.24786 0.05307 0.11277 0.0
O12 O 0.26702 0.07094 0.16956 0.0
In13 In 0.92039 0.1583 0.04037 0.0
O14 O 0.89402 0.14494 0.08397 0.0
O15 O 0.91079 0.13467 0.09654 0.0
C16 C 0.9207 0.1858 0.99204 0.0
C17 C 0.949 0.17466 0.10404 0.0
C18 C 0.91486 0.13968 0.94648 0.0
O19 O 0.9102 0.17732 0.03098 0.0
O20 O 0.93141 0.18096 0.98041 0.0
O21 O 0.92648 0.14161 0.98087 0.0
O22 O 0.90603 0.14647 0.96081 0.0
C23 C 0.89638 0.1335 0.10688 0.0
O24 O 0.94896 0.16828 0.05673 0.0
O25 O 0.93462 0.1728 0.11929 0.0
In26 In 0.82635 0.75667 0.0355 0.0
O27 O 0.82887 0.78272 0.05771 0.0
O28 O 0.81 0.76037 0.10115 0.0
C29 C 0.84353 0.76319 0.93857 0.0
C30 C 0.85006 0.75732 0.10647 0.0
C31 C 0.79829 0.72902 0.99234 0.0
O32 O 0.83718 0.77239 0.95477 0.0
O33 O 0.84136 0.75123 0.97165 0.0
O34 O 0.80753 0.7276 0.02984 0.0
O35 O 0.8025 0.74442 0.97996 0.0
C36 C 0.81752 0.77661 0.09572 0.0
O37 O 0.83452 0.74506 0.10672 0.0
O38 O 0.85342 0.76898 0.07073 0.0
In39 In 0.06638 0.24857 0.45878 0.0
O40 O 0.03908 0.22795 0.42974 0.0
O41 O 0.05463 0.24959 0.37695 0.0
C42 C 0.07542 0.23971 0.5546 0.0
C43 C 0.08852 0.24423 0.39481 0.0
C44 C 0.06699 0.27659 0.50251 0.0
O45 O 0.06018 0.23071 0.53526 0.0
O46 O 0.08557 0.25258 0.52516 0.0
O47 O 0.07789 0.27771 0.46648 0.0
O48 O 0.05515 0.26134 0.51353 0.0
C49 C 0.04076 0.23539 0.38296 0.0
O50 O 0.08943 0.2588 0.4001 0.0
O51 O 0.07659 0.23199 0.42243 0.0
In52 In 0.76159 0.8404 0.43792 0.0
O53 O 0.78733 0.84184 0.41589 0.0
O54 O 0.76403 0.82085 0.38394 0.0
C55 C 0.76676 0.85871 0.53194 0.0
C56 C 0.76183 0.86241 0.36003 0.0
C57 C 0.73408 0.81238 0.48091 0.0
O58 O 0.77679 0.85309 0.51835 0.0
O59 O 0.75488 0.8556 0.49722 0.0
O60 O 0.7334 0.81883 0.43436 0.0
O61 O 0.74873 0.81961 0.50433 0.0
C62 C 0.78031 0.82845 0.38552 0.0
O63 O 0.74857 0.84788 0.36953 0.0
O64 O 0.77482 0.86572 0.38966 0.0
In65 In 0.18338 0.91649 0.41322 0.0
O66 O 0.19607 0.94566 0.43125 0.0
O67 O 0.20303 0.93719 0.35716 0.0
C68 C 0.16101 0.89882 0.49548 0.0
C69 C 0.16107 0.91002 0.32925 0.0
C70 C 0.20321 0.90246 0.43631 0.0
O71 O 0.17095 0.91509 0.49895 0.0
O72 O 0.16209 0.89208 0.45036 0.0
O73 O 0.19341 0.89814 0.39399 0.0
O74 O 0.20394 0.91477 0.46462 0.0
C75 C 0.20463 0.94975 0.38596 0.0
O76 O 0.17301 0.90631 0.3267 0.0
O77 O 0.16022 0.91682 0.3747 0.0
In78 In 0.73645 0.92662 0.93597 0.0
O79 O 0.73166 0.90824 0.86351 0.0
O80 O 0.75656 0.92041 0.90182 0.0
C81 C 0.7035 0.91655 0.96385 0.0
C82 C 0.74865 0.9568 0.88083 0.0
C83 C 0.74667 0.92037 0.03512 0.0
O84 O 0.70791 0.9065 0.94165 0.0
O85 O 0.71556 0.93201 0.96916 0.0
O86 O 0.75508 0.93495 0.01127 0.0
O87 O 0.73351 0.90936 0.00885 0.0
C88 C 0.74674 0.91028 0.86434 0.0
O89 O 0.75109 0.95625 0.93285 0.0
O90 O 0.73982 0.94226 0.85755 0.0
In91 In 0.07474 0.83392 0.92855 0.0
O92 O 0.08698 0.8282 0.85383 0.0
O93 O 0.09224 0.85406 0.86504 0.0
C94 C 0.0754 0.81057 0.99888 0.0
C95 C 0.04421 0.82421 0.87777 0.0
C96 C 0.09004 0.86002 0.00201 0.0
O97 O 0.08341 0.81468 0.95277 0.0
O98 O 0.06632 0.81754 0.0081 0.0
O99 O 0.07378 0.8518 0.99554 0.0
O100 O 0.09827 0.8554 0.97013 0.0
C101 C 0.09445 0.84357 0.83573 0.0
O102 O 0.05455 0.83967 0.89159 0.0
O103 O 0.04873 0.81352 0.89306 0.0
In104 In 0.16383 0.24409 0.96353 0.0
O105 O 0.16312 0.21856 0.94783 0.0
O106 O 0.18195 0.24084 0.90392 0.0
C107 C 0.14856 0.23772 0.06421 0.0
C108 C 0.13994 0.23982 0.88653 0.0
C109 C 0.18955 0.27527 0.99663 0.0
O110 O 0.15636 0.22991 0.0482 0.0
O111 O 0.14802 0.24793 0.02885 0.0
O112 O 0.17696 0.27341 0.96722 0.0
O113 O 0.18985 0.26147 0.006 0.0
C114 C 0.17503 0.22472 0.91161 0.0
O115 O 0.15531 0.25232 0.88489 0.0
O116 O 0.13661 0.22966 0.92736 0.0
In117 In 0.92495 0.75214 0.53477 0.0
O118 O 0.90771 0.74455 0.61185 0.0
O119 O 0.91332 0.76778 0.56931 0.0
C120 C 0.91906 0.72053 0.5066 0.0
C121 C 0.95511 0.77134 0.58844 0.0
C122 C 0.91596 0.75797 0.43335 0.0
O123 O 0.90795 0.72306 0.53082 0.0
O124 O 0.93367 0.73389 0.49949 0.0
O125 O 0.9317 0.76487 0.44766 0.0
O126 O 0.90523 0.74889 0.47054 0.0
C127 C 0.90573 0.75762 0.60958 0.0
O128 O 0.95035 0.77729 0.54841 0.0
O129 O 0.94516 0.75549 0.59887 0.0
In130 In 0.23455 0.16119 0.57721 0.0
O131 O 0.22235 0.13495 0.62104 0.0
O132 O 0.248 0.15388 0.64407 0.0
C133 C 0.26546 0.18698 0.54152 0.0
C134 C 0.21556 0.17252 0.63245 0.0
C135 C 0.22593 0.14558 0.47658 0.0
O136 O 0.26371 0.17962 0.58829 0.0
O137 O 0.25167 0.18171 0.51404 0.0
O138 O 0.22326 0.15781 0.48929 0.0
O139 O 0.23198 0.14063 0.51563 0.0
C140 C 0.23529 0.13885 0.65185 0.0
O141 O 0.20881 0.1581 0.60791 0.0
O142 O 0.2317 0.18155 0.62673 0.0
In143 In 0.82921 0.07485 0.53737 0.0
O144 O 0.85051 0.0964 0.58736 0.0
O145 O 0.85037 0.07245 0.58383 0.0
C146 C 0.81965 0.09802 0.508 0.0
C147 C 0.80687 0.05154 0.61145 0.0
C148 C 0.83543 0.06831 0.43194 0.0
O149 O 0.83516 0.10223 0.51792 0.0
O150 O 0.80884 0.08215 0.51461 0.0
O151 O 0.82037 0.06341 0.44973 0.0
O152 O 0.84705 0.07498 0.46882 0.0
C153 C 0.85744 0.08772 0.60279 0.0
O154 O 0.81197 0.04695 0.56876 0.0
O155 O 0.81253 0.06757 0.61506 0.0
In156 In 0.92097 0.42055 0.41345 0.0
O157 O 0.91926 0.44261 0.45563 0.0
O158 O 0.89586 0.41898 0.44042 0.0
C159 C 0.95503 0.43476 0.39329 0.0
C160 C 0.91537 0.39574 0.48865 0.0
C161 C 0.91093 0.41978 0.30716 0.0
O162 O 0.94916 0.44149 0.42712 0.0
O163 O 0.94382 0.42065 0.37168 0.0
O164 O 0.90453 0.40614 0.33659 0.0
O165 O 0.92185 0.43342 0.33183 0.0
C166 C 0.90297 0.43411 0.46029 0.0
O167 O 0.91116 0.39225 0.43767 0.0
O168 O 0.92272 0.4116 0.50073 0.0
In169 In 0.58584 0.48743 0.39219 0.0
O170 O 0.61399 0.4997 0.42325 0.0
O171 O 0.5987 0.51029 0.45153 0.0
C172 C 0.591 0.47574 0.29409 0.0
C173 C 0.56807 0.45974 0.45923 0.0
C174 C 0.56745 0.50244 0.35936 0.0
O175 O 0.59686 0.49161 0.30372 0.0
O176 O 0.5837 0.46591 0.3353 0.0
O177 O 0.56521 0.49525 0.40668 0.0
O178 O 0.57883 0.50202 0.32935 0.0
C179 C 0.61295 0.51063 0.4542 0.0
O180 O 0.56076 0.46352 0.42078 0.0
O181 O 0.58418 0.46975 0.46308 0.0
In182 In 0.49723 0.08731 0.4064 0.0
O183 O 0.49919 0.11344 0.42405 0.0
O184 O 0.48228 0.09189 0.47464 0.0
C185 C 0.51475 0.09248 0.31059 0.0
C186 C 0.52002 0.08697 0.47969 0.0
C187 C 0.46782 0.06153 0.36208 0.0
O188 O 0.51093 0.10349 0.32885 0.0
O189 O 0.51006 0.07934 0.34128 0.0
O190 O 0.4761 0.05884 0.40007 0.0
O191 O 0.47382 0.07725 0.34932 0.0
C192 C 0.48887 0.10787 0.46509 0.0
O193 O 0.50447 0.07479 0.47743 0.0
O194 O 0.52394 0.09898 0.4448 0.0
In195 In 0.74785 0.59733 0.7112 0.0
O196 O 0.72382 0.57022 0.70177 0.0
O197 O 0.72041 0.5921 0.70009 0.0
C198 C 0.77012 0.5943 0.77933 0.0
C199 C 0.75962 0.59614 0.60842 0.0
C200 C 0.7517 0.626 0.76145 0.0
O201 O 0.7539 0.58452 0.78432 0.0
O202 O 0.7748 0.60514 0.73986 0.0
O203 O 0.75433 0.62556 0.70947 0.0
O204 O 0.74692 0.61198 0.78745 0.0
C205 C 0.71355 0.57595 0.69534 0.0
O206 O 0.75622 0.60782 0.62209 0.0
O207 O 0.75724 0.58538 0.64646 0.0
In208 In 0.42213 0.16854 0.76655 0.0
O209 O 0.44969 0.17661 0.7378 0.0
O210 O 0.43167 0.14984 0.74509 0.0
C211 C 0.42631 0.19187 0.84494 0.0
C212 C 0.41465 0.17915 0.67008 0.0
C213 C 0.39723 0.14144 0.82267 0.0
O214 O 0.43787 0.18793 0.83511 0.0
O215 O 0.41304 0.1844 0.81429 0.0
O216 O 0.39566 0.14419 0.77162 0.0
O217 O 0.41153 0.152 0.84486 0.0
C218 C 0.44662 0.16134 0.73053 0.0
O219 O 0.40664 0.16355 0.68577 0.0
O220 O 0.42607 0.1894 0.70367 0.0
In221 In 0.85295 0.2568 0.74324 0.0
O222 O 0.84216 0.244 0.65871 0.0
O223 O 0.82843 0.25384 0.70526 0.0
C224 C 0.87686 0.24908 0.77879 0.0
C225 C 0.87115 0.29025 0.71365 0.0
C226 C 0.83 0.23709 0.8206 0.0
O227 O 0.87027 0.24492 0.73028 0.0
O228 O 0.87199 0.25774 0.80758 0.0
O229 O 0.83735 0.2535 0.82269 0.0
O230 O 0.83424 0.23102 0.77962 0.0
C231 C 0.82923 0.24625 0.66167 0.0
O232 O 0.86267 0.28561 0.75909 0.0
O233 O 0.87081 0.27816 0.68529 0.0
In234 In 0.3995 0.2575 0.26544 0.0
O235 O 0.39281 0.24316 0.18111 0.0
O236 O 0.41909 0.25664 0.20937 0.0
C237 C 0.37162 0.25173 0.32435 0.0
C238 C 0.41306 0.29044 0.23289 0.0
C239 C 0.40592 0.23821 0.33638 0.0
O240 O 0.37018 0.24505 0.2762 0.0
O241 O 0.38697 0.26188 0.34026 0.0
O242 O 0.41409 0.25462 0.33978 0.0
O243 O 0.39514 0.23197 0.29674 0.0
C244 C 0.4085 0.2475 0.17176 0.0
O245 O 0.4215 0.28547 0.26282 0.0
O246 O 0.39765 0.279 0.22194 0.0
In247 In 0.74976 0.16989 0.25876 0.0
O248 O 0.72404 0.16502 0.22172 0.0
O249 O 0.72581 0.14342 0.25084 0.0
C250 C 0.75614 0.19396 0.3375 0.0
C251 C 0.76277 0.17934 0.1553 0.0
C252 C 0.76817 0.1574 0.31001 0.0
O253 O 0.74291 0.17906 0.33986 0.0
O254 O 0.76492 0.19696 0.29344 0.0
O255 O 0.7749 0.1704 0.27814 0.0
O256 O 0.75193 0.15021 0.31479 0.0
C257 C 0.71681 0.14877 0.22658 0.0
O258 O 0.75944 0.16507 0.17682 0.0
O259 O 0.7595 0.18888 0.18602 0.0
In260 In 0.84386 0.5898 0.21195 0.0
O261 O 0.8485 0.6034 0.1274 0.0
O262 O 0.82535 0.57919 0.1387 0.0
C263 C 0.86711 0.61766 0.26947 0.0
C264 C 0.85757 0.56964 0.18905 0.0
C265 C 0.81707 0.58377 0.27867 0.0
O266 O 0.85875 0.61879 0.22853 0.0
O267 O 0.86411 0.60256 0.28053 0.0
O268 O 0.82597 0.57654 0.28777 0.0
O269 O 0.82133 0.59312 0.23553 0.0
C270 C 0.83442 0.59176 0.10658 0.0
O271 O 0.84174 0.56317 0.20149 0.0
O272 O 0.86626 0.58593 0.1901 0.0
In273 In 0.59083 0.07289 0.90776 0.0
O274 O 0.56964 0.06554 0.9731 0.0
O275 O 0.58507 0.09212 0.9508 0.0
C276 C 0.58424 0.04172 0.87178 0.0
C277 C 0.62046 0.08488 0.96643 0.0
C278 C 0.58193 0.08146 0.81077 0.0
O279 O 0.57736 0.04356 0.91563 0.0
O280 O 0.59473 0.05557 0.84701 0.0
O281 O 0.59764 0.08833 0.82582 0.0
O282 O 0.57108 0.07082 0.84519 0.0
C283 C 0.57294 0.08093 0.98051 0.0
O284 O 0.61867 0.09402 0.92939 0.0
O285 O 0.60779 0.06976 0.9712 0.0
In286 In 0.8982 0.48486 0.87428 0.0
O287 O 0.91094 0.47544 0.93604 0.0
O288 O 0.88411 0.45885 0.92038 0.0
C289 C 0.92724 0.49658 0.81245 0.0
C290 C 0.89319 0.50517 0.9469 0.0
C291 C 0.87847 0.47634 0.78186 0.0
O292 O 0.91722 0.48068 0.82194 0.0
O293 O 0.92299 0.50659 0.83606 0.0
O294 O 0.88886 0.49181 0.79545 0.0
O295 O 0.87684 0.46521 0.81776 0.0
C296 C 0.89738 0.46138 0.94716 0.0
O297 O 0.88078 0.49258 0.92217 0.0
O298 O 0.90796 0.50777 0.93349 0.0
In299 In 0.49787 0.40721 0.89159 0.0
O300 O 0.48475 0.38038 0.93184 0.0
O301 O 0.47599 0.39774 0.95514 0.0
C302 C 0.51349 0.40401 0.80004 0.0
C303 C 0.52472 0.4229 0.96283 0.0
C304 C 0.48063 0.41932 0.83157 0.0
O305 O 0.49936 0.39159 0.81795 0.0
O306 O 0.51991 0.41753 0.82973 0.0
O307 O 0.49018 0.42784 0.87246 0.0
O308 O 0.47944 0.40481 0.8232 0.0
C309 C 0.47475 0.38314 0.96199 0.0
O310 O 0.51679 0.43047 0.94523 0.0
O311 O 0.5191 0.40779 0.94415 0.0
In312 In 0.60542 0.7465 0.77675 0.0
O313 O 0.61048 0.76192 0.85781 0.0
O314 O 0.5846 0.74759 0.82543 0.0
C315 C 0.63272 0.75089 0.71786 0.0
C316 C 0.59478 0.71534 0.82098 0.0
C317 C 0.59947 0.76509 0.70215 0.0
O318 O 0.63455 0.75903 0.76345 0.0
O319 O 0.61725 0.74014 0.70439 0.0
O320 O 0.59067 0.74862 0.70155 0.0
O321 O 0.61074 0.77168 0.74042 0.0
C322 C 0.59459 0.75748 0.86319 0.0
O323 O 0.58546 0.71786 0.78623 0.0
O324 O 0.60948 0.72831 0.83118 0.0
In325 In 0.24994 0.81885 0.73237 0.0
O326 O 0.23059 0.81365 0.80215 0.0
O327 O 0.23379 0.79269 0.77513 0.0
C328 C 0.23508 0.83387 0.67467 0.0
C329 C 0.27773 0.83458 0.80012 0.0
C330 C 0.25718 0.80874 0.63501 0.0
O331 O 0.22867 0.81769 0.6777 0.0
O332 O 0.24834 0.8426 0.7047 0.0
O333 O 0.26574 0.82412 0.65254 0.0
O334 O 0.24675 0.79815 0.67044 0.0
C335 C 0.22642 0.79797 0.80831 0.0
O336 O 0.2714 0.81906 0.78453 0.0
O337 O 0.27064 0.84248 0.77916 0.0
In338 In 0.15403 0.41143 0.759 0.0
O339 O 0.16858 0.40031 0.80585 0.0
O340 O 0.17581 0.42661 0.82102 0.0
C341 C 0.12775 0.38183 0.71852 0.0
C342 C 0.1374 0.42446 0.81775 0.0
C343 C 0.17286 0.42228 0.66455 0.0
O344 O 0.13444 0.38252 0.76587 0.0
O345 O 0.1341 0.39601 0.69242 0.0
O346 O 0.16298 0.42804 0.67874 0.0
O347 O 0.17355 0.41192 0.69894 0.0
C348 C 0.17854 0.41429 0.83097 0.0
O349 O 0.14988 0.4339 0.7855 0.0
O350 O 0.1333 0.40874 0.81888 0.0
In351 In 0.39898 0.92378 0.11937 0.0
O352 O 0.37249 0.89948 0.1187 0.0
O353 O 0.37708 0.9187 0.05817 0.0
C354 C 0.41035 0.91686 0.21441 0.0
C355 C 0.41728 0.91725 0.04271 0.0
C356 C 0.40378 0.95477 0.15314 0.0
O357 O 0.39454 0.90907 0.20076 0.0
O358 O 0.42048 0.92811 0.17978 0.0
O359 O 0.40979 0.95294 0.10737 0.0
O360 O 0.39471 0.94096 0.18004 0.0
C361 C 0.36689 0.90374 0.07677 0.0
O362 O 0.41688 0.93122 0.04258 0.0
O363 O 0.40886 0.907 0.0818 0.0
In364 In 0.09202 0.5086 0.11956 0.0
O365 O 0.11134 0.5013 0.08284 0.0
O366 O 0.0848 0.48198 0.08632 0.0
C367 C 0.11399 0.53417 0.18842 0.0
C368 C 0.0864 0.5256 0.03619 0.0
C369 C 0.06501 0.49167 0.19002 0.0
O370 O 0.11003 0.51859 0.19571 0.0
O371 O 0.10825 0.5369 0.14366 0.0
O372 O 0.06289 0.49239 0.13788 0.0
O373 O 0.08056 0.49901 0.20576 0.0
C374 C 0.09989 0.48594 0.07161 0.0
O375 O 0.07768 0.52129 0.08094 0.0
O376 O 0.0976 0.52094 0.03298 0.0
In377 In 0.50953 0.58517 0.10614 0.0
O378 O 0.52152 0.6142 0.09207 0.0
O379 O 0.5367 0.60255 0.07251 0.0
C380 C 0.48307 0.57774 0.17574 0.0
C381 C 0.49318 0.57453 0.00762 0.0
C382 C 0.52275 0.56933 0.16794 0.0
O383 O 0.49788 0.59083 0.18323 0.0
O384 O 0.48155 0.56924 0.13189 0.0
O385 O 0.51936 0.56592 0.11641 0.0
O386 O 0.52026 0.58112 0.18668 0.0
C387 C 0.53543 0.61603 0.07193 0.0
O388 O 0.49764 0.5653 0.03553 0.0
O389 O 0.49708 0.58891 0.02939 0.0
In390 In 0.06968 0.58503 0.59326 0.0
O391 O 0.09104 0.61297 0.57844 0.0
O392 O 0.06491 0.60658 0.56451 0.0
C393 C 0.08078 0.58395 0.69781 0.0
C394 C 0.0831 0.57742 0.50407 0.0
C395 C 0.03547 0.56182 0.60514 0.0
O396 O 0.07342 0.59246 0.686 0.0
O397 O 0.08345 0.57686 0.65638 0.0
O398 O 0.04591 0.55773 0.58421 0.0
O399 O 0.04212 0.57761 0.61709 0.0
C400 C 0.08073 0.61798 0.5627 0.0
O401 O 0.07393 0.58448 0.4995 0.0
O402 O 0.08479 0.57334 0.55335 0.0
In403 In 0.41006 0.49265 0.59771 0.0
O404 O 0.40958 0.49404 0.50302 0.0
O405 O 0.43127 0.51431 0.54531 0.0
C406 C 0.4226 0.47174 0.62808 0.0
C407 C 0.37613 0.48001 0.57595 0.0
C408 C 0.42134 0.51537 0.68276 0.0
O409 O 0.42575 0.47903 0.58084 0.0
O410 O 0.41261 0.47433 0.65849 0.0
O411 O 0.41147 0.49934 0.69001 0.0
O412 O 0.42476 0.52008 0.6323 0.0
C413 C 0.42349 0.50834 0.49938 0.0
O414 O 0.38593 0.49522 0.59326 0.0
O415 O 0.38311 0.47073 0.57409 0.0
In416 In 0.49383 0.90854 0.61994 0.0
O417 O 0.48725 0.92117 0.54766 0.0
O418 O 0.46826 0.89591 0.57455 0.0
C419 C 0.52252 0.93443 0.66644 0.0
C420 C 0.50414 0.88875 0.56586 0.0
C421 C 0.4748 0.90362 0.71242 0.0
O422 O 0.51484 0.93698 0.6261 0.0
O423 O 0.5162 0.9188 0.68093 0.0
O424 O 0.47973 0.89307 0.69822 0.0
O425 O 0.47916 0.91618 0.67934 0.0
C426 C 0.47219 0.90833 0.54132 0.0
O427 O 0.49255 0.88263 0.60324 0.0
O428 O 0.5108 0.9048 0.5575 0.0
In429 In 0.25178 0.41573 0.24669 0.0
O430 O 0.27536 0.44133 0.27384 0.0
O431 O 0.27263 0.41802 0.30693 0.0
C432 C 0.2525 0.42761 0.14236 0.0
C433 C 0.22932 0.41653 0.32058 0.0
C434 C 0.24103 0.38301 0.21295 0.0
O435 O 0.26199 0.42149 0.15668 0.0
O436 O 0.24374 0.42886 0.18159 0.0
O437 O 0.23079 0.38882 0.21857 0.0
O438 O 0.25648 0.39341 0.22687 0.0
C439 C 0.28111 0.43431 0.30671 0.0
O440 O 0.23433 0.42584 0.27729 0.0
O441 O 0.2351 0.40624 0.32565 0.0
In442 In 0.57879 0.83229 0.27311 0.0
O443 O 0.55115 0.82488 0.29769 0.0
O444 O 0.57108 0.8511 0.30799 0.0
C445 C 0.57217 0.80911 0.19132 0.0
C446 C 0.58587 0.82226 0.37111 0.0
C447 C 0.60459 0.8581 0.21494 0.0
O448 O 0.56286 0.81598 0.19803 0.0
O449 O 0.58391 0.81327 0.22732 0.0
O450 O 0.60698 0.84861 0.24871 0.0
O451 O 0.58924 0.85524 0.21245 0.0
C452 C 0.55534 0.83989 0.31474 0.0
O453 O 0.59401 0.83777 0.35436 0.0
O454 O 0.57433 0.81182 0.33809 0.0
In455 In 0.15075 0.74951 0.26305 0.0
O456 O 0.14071 0.72129 0.2879 0.0
O457 O 0.13042 0.73527 0.32984 0.0
C458 C 0.16586 0.75254 0.16314 0.0
C459 C 0.17896 0.76672 0.32862 0.0
C460 C 0.12794 0.75897 0.22897 0.0
O461 O 0.15583 0.73783 0.18435 0.0
O462 O 0.16846 0.76526 0.19306 0.0
O463 O 0.13699 0.76523 0.27272 0.0
O464 O 0.13009 0.74773 0.20392 0.0
C465 C 0.13062 0.72128 0.32514 0.0
O466 O 0.17113 0.77398 0.30819 0.0
O467 O 0.17239 0.7509 0.31691 0.0
H468 H 0.21064 0.95917 0.27699 0.0
H469 H 0.2195 0.98034 0.44513 0.0
H470 H 0.23469 0.01009 0.4054 0.0
H471 H 0.25051 0.99156 0.21345 0.0
H472 H 0.24023 0.99156 0.1484 0.0
H473 H 0.23133 0.97222 0.19054 0.0
H474 H 0.20173 0.97109 0.19278 0.0
H475 H 0.21052 0.99043 0.15073 0.0
H476 H 0.20067 0.98965 0.2174 0.0
H477 H 0.24917 0.03739 0.34614 0.0
H478 H 0.25937 0.06007 0.27305 0.0
H479 H 0.23858 0.02049 0.14423 0.0
C480 C 0.21601 0.97007 0.30555 0.0
C481 C 0.21422 0.96757 0.36412 0.0
C482 C 0.22092 0.98208 0.40014 0.0
C483 C 0.22956 0.99896 0.37793 0.0
C484 C 0.23104 0.00095 0.31977 0.0
C485 C 0.22424 0.98687 0.28415 0.0
C486 C 0.22646 0.99235 0.22329 0.0
C487 C 0.23781 0.98658 0.1921 0.0
C488 C 0.2088 0.98547 0.19437 0.0
C489 C 0.23565 0.01179 0.22997 0.0
C490 C 0.23841 0.01652 0.28588 0.0
C491 C 0.247 0.03382 0.30231 0.0
C492 C 0.25279 0.04658 0.26054 0.0
C493 C 0.24968 0.04196 0.20316 0.0
C494 C 0.24101 0.02435 0.18782 0.0
H495 H 0.95137 0.17893 0.2181 0.0
H496 H 0.98216 0.1915 0.06644 0.0
H497 H 0.00878 0.20841 0.12216 0.0
H498 H 0.97649 0.21927 0.28917 0.0
H499 H 0.97449 0.20976 0.3574 0.0
H500 H 0.95773 0.19872 0.30589 0.0
H501 H 0.96089 0.17148 0.31531 0.0
H502 H 0.97761 0.18241 0.36705 0.0
H503 H 0.98182 0.17341 0.30543 0.0
H504 H 0.03153 0.22536 0.19212 0.0
H505 H 0.05004 0.239 0.2744 0.0
H506 H 0.00522 0.21356 0.38343 0.0
C507 C 0.96374 0.18526 0.19682 0.0
C508 C 0.9648 0.18408 0.13803 0.0
C509 C 0.98115 0.19227 0.11146 0.0
C510 C 0.9963 0.20193 0.1427 0.0
C511 C 0.99484 0.20295 0.20051 0.0
C512 C 0.97905 0.19462 0.22759 0.0
C513 C 0.98127 0.19741 0.2905 0.0
C514 C 0.97194 0.20685 0.31198 0.0
C515 C 0.97503 0.18015 0.32139 0.0
C516 C 0.00076 0.20885 0.29435 0.0
C517 C 0.00823 0.212 0.24171 0.0
C518 C 0.02589 0.22284 0.23361 0.0
C519 C 0.03626 0.2306 0.28058 0.0
C520 C 0.02903 0.22726 0.33509 0.0
C521 C 0.01105 0.21616 0.34218 0.0
H522 H 0.76887 0.79681 0.33805 0.0
H523 H 0.8135 0.8485 0.3479 0.0
H524 H 0.82793 0.84098 0.27339 0.0
H525 H 0.79357 0.77446 0.31286 0.0
H526 H 0.77727 0.75888 0.26652 0.0
H527 H 0.77117 0.76823 0.32272 0.0
H528 H 0.75615 0.77823 0.25087 0.0
H529 H 0.7625 0.76924 0.19433 0.0
H530 H 0.76845 0.79175 0.19286 0.0
H531 H 0.83599 0.82861 0.19092 0.0
H532 H 0.83913 0.81098 0.11681 0.0
H533 H 0.78979 0.76698 0.16492 0.0
C534 C 0.78183 0.80643 0.32527 0.0
C535 C 0.79012 0.82322 0.34858 0.0
C536 C 0.80703 0.83551 0.33083 0.0
C537 C 0.81524 0.83139 0.28829 0.0
C538 C 0.80645 0.81487 0.26483 0.0
C539 C 0.79029 0.80246 0.28363 0.0
C540 C 0.78359 0.78566 0.25161 0.0
C541 C 0.78127 0.77094 0.29076 0.0
C542 C 0.76667 0.78095 0.22059 0.0
C543 C 0.79835 0.79064 0.21102 0.0
C544 C 0.81135 0.80759 0.21892 0.0
C545 C 0.826 0.81527 0.18485 0.0
C546 C 0.82759 0.80521 0.14259 0.0
C547 C 0.8147 0.78765 0.13533 0.0
C548 C 0.79986 0.78037 0.16972 0.0
H549 H 0.75556 0.96074 0.76908 0.0
H550 H 0.75921 0.98943 0.92008 0.0
H551 H 0.77256 0.01669 0.86525 0.0
H552 H 0.79657 0.99164 0.71537 0.0
H553 H 0.78981 0.98819 0.64307 0.0
H554 H 0.7791 0.9709 0.69307 0.0
H555 H 0.74958 0.96793 0.6663 0.0
H556 H 0.76021 0.98526 0.61623 0.0
H557 H 0.74684 0.98662 0.67032 0.0
H558 H 0.78584 0.04066 0.79429 0.0
H559 H 0.80066 0.06015 0.71472 0.0
H560 H 0.79002 0.01592 0.61106 0.0
C561 C 0.75894 0.97275 0.79042 0.0
C562 C 0.75619 0.97305 0.84858 0.0
C563 C 0.76116 0.98899 0.87545 0.0
C564 C 0.76866 0.00448 0.84463 0.0
C565 C 0.77126 0.00374 0.78727 0.0
C566 C 0.76672 0.98831 0.76055 0.0
C567 C 0.77211 0.99118 0.6995 0.0
C568 C 0.78517 0.98512 0.68705 0.0
C569 C 0.75624 0.98222 0.66081 0.0
C570 C 0.78051 0.01068 0.69604 0.0
C571 C 0.77962 0.01763 0.74691 0.0
C572 C 0.7866 0.03536 0.75428 0.0
C573 C 0.79495 0.04632 0.70875 0.0
C574 C 0.79648 0.03953 0.65675 0.0
C575 C 0.78901 0.02146 0.65028 0.0
H576 H 0.0198 0.79169 0.84431 0.0
H577 H 0.03657 0.8461 0.82061 0.0
H578 H 0.01582 0.83852 0.74252 0.0
H579 H 0.01531 0.7802 0.70278 0.0
H580 H 0.99615 0.75931 0.71134 0.0
H581 H 0.01127 0.76874 0.76832 0.0
H582 H 0.98684 0.76618 0.83344 0.0
H583 H 0.97156 0.75638 0.77701 0.0
H584 H 0.9738 0.77537 0.81154 0.0
H585 H 0.99528 0.8252 0.6614 0.0
H586 H 0.97336 0.80672 0.59135 0.0
H587 H 0.96957 0.76103 0.6699 0.0
C588 C 0.01883 0.80198 0.82351 0.0
C589 C 0.02975 0.81948 0.83851 0.0
C590 C 0.02822 0.83259 0.81004 0.0
C591 C 0.01657 0.82843 0.7654 0.0
C592 C 0.00644 0.81109 0.75029 0.0
C593 C 0.00719 0.79804 0.77922 0.0
C594 C 0.99505 0.78046 0.75419 0.0
C595 C 0.00505 0.77167 0.7329 0.0
C596 C 0.98098 0.76892 0.79657 0.0
C597 C 0.98756 0.78568 0.70612 0.0
C598 C 0.99437 0.8034 0.70432 0.0
C599 C 0.98972 0.81129 0.66272 0.0
C600 C 0.97739 0.80071 0.62286 0.0
C601 C 0.9698 0.78247 0.62526 0.0
C602 C 0.97516 0.77494 0.66704 0.0
H603 H 0.22582 0.20465 0.67549 0.0
H604 H 0.18363 0.15145 0.67744 0.0
H605 H 0.1691 0.15886 0.75162 0.0
H606 H 0.22741 0.21254 0.82099 0.0
H607 H 0.23162 0.23445 0.81436 0.0
H608 H 0.2385 0.22521 0.76007 0.0
H609 H 0.22139 0.23192 0.68608 0.0
H610 H 0.2147 0.24147 0.73997 0.0
H611 H 0.1987 0.22424 0.69718 0.0
H612 H 0.16035 0.1716 0.83043 0.0
H613 H 0.15577 0.18968 0.89899 0.0
H614 H 0.20294 0.23489 0.84226 0.0
C615 C 0.21341 0.19463 0.69101 0.0
C616 C 0.20582 0.17748 0.67087 0.0
C617 C 0.18959 0.1647 0.6921 0.0
C618 C 0.18131 0.16876 0.73448 0.0
C619 C 0.18935 0.1857 0.75449 0.0
C620 C 0.20485 0.19852 0.73268 0.0
C621 C 0.21061 0.21576 0.76089 0.0
C622 C 0.22807 0.22237 0.79085 0.0
C623 C 0.21139 0.22914 0.7185 0.0
C624 C 0.19603 0.2106 0.80248 0.0
C625 C 0.184 0.19316 0.79854 0.0
C626 C 0.1696 0.1853 0.83356 0.0
C627 C 0.16718 0.19564 0.87263 0.0
C628 C 0.179 0.21366 0.87583 0.0
C629 C 0.19369 0.22115 0.84068 0.0
H630 H 0.8799 0.30031 0.60571 0.0
H631 H 0.88105 0.32032 0.77224 0.0
H632 H 0.89433 0.35005 0.73313 0.0
H633 H 0.91989 0.33639 0.55301 0.0
H634 H 0.91113 0.3352 0.48401 0.0
H635 H 0.90317 0.31591 0.52604 0.0
H636 H 0.87189 0.31041 0.51586 0.0
H637 H 0.87973 0.32967 0.47387 0.0
H638 H 0.86721 0.32713 0.53606 0.0
H639 H 0.90704 0.3774 0.6748 0.0
H640 H 0.91608 0.39995 0.60189 0.0
H641 H 0.90474 0.36137 0.47315 0.0
C642 C 0.8832 0.31097 0.63417 0.0
C643 C 0.8797 0.30813 0.6921 0.0
C644 C 0.88377 0.32232 0.72778 0.0
C645 C 0.89133 0.3392 0.70594 0.0
C646 C 0.89451 0.34152 0.6484 0.0
C647 C 0.89042 0.32776 0.613 0.0
C648 C 0.89396 0.33344 0.55236 0.0
C649 C 0.90787 0.33003 0.5274 0.0
C650 C 0.8772 0.32464 0.51751 0.0
C651 C 0.90062 0.35261 0.55892 0.0
C652 C 0.90107 0.35706 0.61468 0.0
C653 C 0.90674 0.37405 0.63107 0.0
C654 C 0.91187 0.38676 0.58936 0.0
C655 C 0.91107 0.38237 0.53193 0.0
C656 C 0.90547 0.36508 0.51671 0.0
H657 H 0.64283 0.51038 0.48157 0.0
H658 H 0.61343 0.53594 0.51904 0.0
H659 H 0.63464 0.55334 0.59184 0.0
H660 H 0.65548 0.50847 0.62484 0.0
H661 H 0.67685 0.51277 0.60606 0.0
H662 H 0.65921 0.50193 0.55721 0.0
H663 H 0.67648 0.52526 0.48197 0.0
H664 H 0.69425 0.53598 0.53025 0.0
H665 H 0.68489 0.54779 0.49868 0.0
H666 H 0.65931 0.56871 0.65758 0.0
H667 H 0.68715 0.58251 0.70837 0.0
H668 H 0.70035 0.54656 0.63154 0.0
C669 C 0.64093 0.5197 0.50493 0.0
C670 C 0.62651 0.52185 0.49458 0.0
C671 C 0.6244 0.53411 0.5262 0.0
C672 C 0.63632 0.54398 0.56788 0.0
C673 C 0.65023 0.54138 0.57772 0.0
C674 C 0.65269 0.52964 0.54703 0.0
C675 C 0.66907 0.5298 0.56511 0.0
C676 C 0.66489 0.51219 0.58977 0.0
C677 C 0.68193 0.53503 0.51609 0.0
C678 C 0.67556 0.54368 0.61 0.0
C679 C 0.66439 0.55007 0.61682 0.0
C680 C 0.66807 0.56369 0.65318 0.0
C681 C 0.68386 0.5714 0.68197 0.0
C682 C 0.6957 0.5654 0.67449 0.0
C683 C 0.69129 0.55106 0.6392 0.0
H684 H 0.44218 0.12929 0.71008 0.0
H685 H 0.47635 0.18382 0.67487 0.0
H686 H 0.49189 0.17617 0.60496 0.0
H687 H 0.47501 0.11558 0.69058 0.0
H688 H 0.45932 0.09538 0.65904 0.0
H689 H 0.45259 0.10542 0.71115 0.0
H690 H 0.42996 0.10471 0.64143 0.0
H691 H 0.43685 0.09503 0.58873 0.0
H692 H 0.437 0.11493 0.57388 0.0
H693 H 0.50115 0.16229 0.5304 0.0
H694 H 0.50544 0.14335 0.46436 0.0
H695 H 0.46525 0.09808 0.54972 0.0
C696 C 0.45326 0.13965 0.6889 0.0
C697 C 0.45812 0.15714 0.69802 0.0
C698 C 0.47252 0.17033 0.66889 0.0
C699 C 0.48136 0.1661 0.62891 0.0
C700 C 0.47573 0.14866 0.61914 0.0
C701 C 0.46222 0.13566 0.64911 0.0
C702 C 0.45807 0.11793 0.6288 0.0
C703 C 0.46146 0.108 0.67515 0.0
C704 C 0.43936 0.10755 0.60692 0.0
C705 C 0.47102 0.12295 0.58166 0.0
C706 C 0.48114 0.14072 0.57672 0.0
C707 C 0.49348 0.14835 0.53442 0.0
C708 C 0.49573 0.13751 0.49687 0.0
C709 C 0.48569 0.11928 0.50202 0.0
C710 C 0.47317 0.11198 0.54488 0.0
H711 H 0.44482 0.3069 0.18482 0.0
H712 H 0.39888 0.31076 0.21234 0.0
H713 H 0.41061 0.33636 0.14982 0.0
H714 H 0.47652 0.35375 0.16813 0.0
H715 H 0.48775 0.34975 0.11255 0.0
H716 H 0.47712 0.33384 0.1669 0.0
H717 H 0.45967 0.31074 0.09132 0.0
H718 H 0.46999 0.32661 0.03682 0.0
H719 H 0.44672 0.31465 0.04184 0.0
H720 H 0.42665 0.3604 0.08007 0.0
H721 H 0.44519 0.38037 0.00546 0.0
H722 H 0.47905 0.35862 0.01638 0.0
C723 C 0.43759 0.31359 0.17928 0.0
C724 C 0.42122 0.3073 0.2044 0.0
C725 C 0.41163 0.31572 0.19419 0.0
C726 C 0.41817 0.3302 0.15874 0.0
C727 C 0.43415 0.3358 0.1331 0.0
C728 C 0.44371 0.32772 0.14277 0.0
C729 C 0.45951 0.33498 0.10531 0.0
C730 C 0.47622 0.34359 0.14032 0.0
C731 C 0.45893 0.3209 0.06654 0.0
C732 C 0.45725 0.34826 0.0726 0.0
C733 C 0.44272 0.34875 0.08994 0.0
C734 C 0.43805 0.36012 0.06614 0.0
C735 C 0.4486 0.37135 0.02376 0.0
C736 C 0.46337 0.37083 0.00489 0.0
C737 C 0.46767 0.35908 0.02951 0.0
H738 H 0.69975 0.15639 0.14577 0.0
H739 H 0.69741 0.11392 0.24185 0.0
H740 H 0.67277 0.09308 0.18437 0.0
H741 H 0.65273 0.13695 0.12381 0.0
H742 H 0.6554 0.14539 0.0536 0.0
H743 H 0.67188 0.15699 0.10552 0.0
H744 H 0.69467 0.15642 0.03964 0.0
H745 H 0.67821 0.14451 0.988 0.0
H746 H 0.69137 0.13594 0.0143 0.0
H747 H 0.64988 0.07684 0.11357 0.0
H748 H 0.62811 0.06602 0.03815 0.0
H749 H 0.64533 0.11884 0.986 0.0
C750 C 0.69375 0.14273 0.15559 0.0
C751 C 0.70038 0.13674 0.19852 0.0
C752 C 0.69245 0.11877 0.20937 0.0
C753 C 0.67851 0.10683 0.17681 0.0
C754 C 0.67268 0.1131 0.13355 0.0
C755 C 0.67986 0.13062 0.1232 0.0
C756 C 0.67145 0.13382 0.07286 0.0
C757 C 0.66232 0.14388 0.08999 0.0
C758 C 0.68472 0.14323 0.02593 0.0
C759 C 0.65852 0.11537 0.05633 0.0
C760 C 0.6595 0.10366 0.09198 0.0
C761 C 0.64892 0.08587 0.08552 0.0
C762 C 0.63666 0.07985 0.04238 0.0
C763 C 0.63509 0.09159 0.00613 0.0
C764 C 0.64637 0.10957 0.0127 0.0
H765 H 0.84139 0.53872 0.13277 0.0
H766 H 0.89128 0.57836 0.19529 0.0
H767 H 0.90549 0.56459 0.14556 0.0
H768 H 0.851 0.50217 0.13201 0.0
H769 H 0.83926 0.49355 0.06756 0.0
H770 H 0.83266 0.50472 0.11572 0.0
H771 H 0.83508 0.52556 0.03605 0.0
H772 H 0.84196 0.51468 0.98791 0.0
H773 H 0.85526 0.53767 0.9989 0.0
H774 H 0.9147 0.54905 0.08073 0.0
H775 H 0.91834 0.53168 0.00743 0.0
H776 H 0.86264 0.50224 0.98411 0.0
C777 C 0.85521 0.54406 0.1376 0.0
C778 C 0.86526 0.55943 0.1684 0.0
C779 C 0.88338 0.56648 0.17226 0.0
C780 C 0.89156 0.55876 0.14418 0.0
C781 C 0.88142 0.54402 0.11228 0.0
C782 C 0.86362 0.53661 0.10915 0.0
C783 C 0.85601 0.52172 0.0677 0.0
C784 C 0.84403 0.50452 0.09754 0.0
C785 C 0.84652 0.52512 0.01982 0.0
C786 C 0.87235 0.5223 0.04693 0.0
C787 C 0.88681 0.53515 0.07371 0.0
C788 C 0.90346 0.53878 0.05999 0.0
C789 C 0.9054 0.52891 0.01806 0.0
C790 C 0.89078 0.51562 0.99013 0.0
C791 C 0.87404 0.51228 0.00492 0.0
H792 H 0.56194 0.6939 0.85847 0.0
H793 H 0.61382 0.70134 0.85879 0.0
H794 H 0.60441 0.67675 0.92443 0.0
H795 H 0.55487 0.68554 0.00343 0.0
H796 H 0.53224 0.66961 0.99728 0.0
H797 H 0.54238 0.68644 0.94543 0.0
H798 H 0.53272 0.66346 0.86657 0.0
H799 H 0.52224 0.64656 0.91806 0.0
H800 H 0.53814 0.64655 0.87154 0.0
H801 H 0.58939 0.65163 0.9909 0.0
H802 H 0.56974 0.62774 0.0539 0.0
H803 H 0.52853 0.63863 0.01692 0.0
C804 C 0.57115 0.68999 0.87121 0.0
C805 C 0.5885 0.69919 0.85294 0.0
C806 C 0.60041 0.69422 0.87194 0.0
C807 C 0.5952 0.68035 0.90928 0.0
C808 C 0.57812 0.67183 0.92789 0.0
C809 C 0.56626 0.67644 0.90955 0.0
C810 C 0.549 0.6659 0.93868 0.0
C811 C 0.54436 0.67757 0.97325 0.0
C812 C 0.53468 0.65497 0.89618 0.0
C813 C 0.553 0.65465 0.9762 0.0
C814 C 0.56981 0.65814 0.96896 0.0
C815 C 0.57624 0.64887 0.99732 0.0
C816 C 0.56506 0.63542 0.03314 0.0
C817 C 0.54781 0.63164 0.04098 0.0
C818 C 0.54182 0.64158 0.01281 0.0
H819 H 0.35121 0.90973 0.98704 0.0
H820 H 0.34744 0.86918 0.09709 0.0
H821 H 0.32428 0.84718 0.03775 0.0
H822 H 0.3042 0.88871 0.95712 0.0
H823 H 0.30775 0.89619 0.88556 0.0
H824 H 0.32327 0.90883 0.93888 0.0
H825 H 0.34746 0.90829 0.88044 0.0
H826 H 0.33198 0.89538 0.82747 0.0
H827 H 0.34518 0.88777 0.86016 0.0
H828 H 0.30423 0.82948 0.96119 0.0
H829 H 0.28473 0.81717 0.87979 0.0
H830 H 0.29983 0.869 0.82216 0.0
C831 C 0.34523 0.89625 -0.00073 0.0
C832 C 0.35112 0.89115 0.04662 0.0
C833 C 0.34307 0.87339 0.06115 0.0
C834 C 0.32998 0.86078 0.02754 0.0
C835 C 0.32489 0.86617 0.98008 0.0
C836 C 0.33193 0.88348 0.9666 0.0
C837 C 0.3241 0.8857 0.91301 0.0
C838 C 0.31424 0.89543 0.92434 0.0
C839 C 0.33801 0.89482 0.8676 0.0
C840 C 0.31185 0.86693 0.89799 0.0
C841 C 0.31267 0.85589 0.93697 0.0
C842 C 0.30326 0.83797 0.9308 0.0
C843 C 0.29236 0.83111 0.8842 0.0
C844 C 0.29079 0.84215 0.84494 0.0
C845 C 0.30074 0.86028 0.85181 0.0
H846 H 0.14928 0.45808 0.85177 0.0
H847 H 0.1061 0.40565 0.86766 0.0
H848 H 0.09222 0.41571 0.93552 0.0
H849 H 0.15106 0.46907 0.99665 0.0
H850 H 0.15642 0.49114 0.98421 0.0
H851 H 0.16273 0.48018 0.93428 0.0
H852 H 0.14678 0.48658 0.85526 0.0
H853 H 0.14059 0.49774 0.90482 0.0
H854 H 0.12428 0.48012 0.86405 0.0
H855 H 0.08311 0.43104 0.00188 0.0
H856 H 0.07892 0.45112 0.06211 0.0
H857 H 0.1284 0.49362 0.00716 0.0
C858 C 0.13679 0.44881 0.86897 0.0
C859 C 0.12869 0.43111 0.85428 0.0
C860 C 0.1125 0.41927 0.87831 0.0
C861 C 0.10452 0.42485 0.91694 0.0
C862 C 0.11297 0.44229 0.93145 0.0
C863 C 0.12871 0.45414 0.90825 0.0
C864 C 0.13515 0.47207 0.93244 0.0
C865 C 0.15236 0.47849 0.96376 0.0
C866 C 0.13679 0.48488 0.8864 0.0
C867 C 0.12054 0.46839 0.97267 0.0
C868 C 0.10789 0.45113 0.97122 0.0
C869 C 0.09293 0.44459 0.00357 0.0
C870 C 0.09069 0.45608 0.03771 0.0
C871 C 0.10338 0.47386 0.03958 0.0
C872 C 0.1186 0.48004 0.00713 0.0
H873 H 0.11007 0.63709 0.50169 0.0
H874 H 0.06404 0.63654 0.5628 0.0
H875 H 0.07224 0.66351 0.51021 0.0
H876 H 0.13897 0.68415 0.49855 0.0
H877 H 0.14913 0.68346 0.43407 0.0
H878 H 0.1406 0.66532 0.48152 0.0
H879 H 0.12183 0.64505 0.40125 0.0
H880 H 0.13012 0.66315 0.35374 0.0
H881 H 0.10711 0.64984 0.36413 0.0
H882 H 0.08517 0.6901 0.44958 0.0
H883 H 0.10135 0.71397 0.38233 0.0
H884 H 0.13755 0.69566 0.35432 0.0
C885 C 0.10199 0.64294 0.50509 0.0
C886 C 0.08662 0.63504 0.53704 0.0
C887 C 0.07598 0.64261 0.53901 0.0
C888 C 0.08052 0.65787 0.50928 0.0
C889 C 0.09558 0.66516 0.47712 0.0
C890 C 0.10612 0.65792 0.47461 0.0
C891 C 0.12086 0.66756 0.43362 0.0
C892 C 0.13843 0.6756 0.46375 0.0
C893 C 0.11991 0.65569 0.38533 0.0
C894 C 0.11695 0.68135 0.41338 0.0
C895 C 0.10244 0.67986 0.43953 0.0
C896 C 0.0965 0.69136 0.42867 0.0
C897 C 0.10574 0.70483 0.39042 0.0
C898 C 0.12053 0.70648 0.36284 0.0
C899 C 0.12611 0.6945 0.37421 0.0
H900 H 0.35344 0.44853 0.53005 0.0
H901 H 0.3619 0.50038 0.55556 0.0
H902 H 0.33801 0.49413 0.49031 0.0
H903 H 0.34569 0.44616 0.38792 0.0
H904 H 0.32886 0.42375 0.38635 0.0
H905 H 0.34509 0.4313 0.44038 0.0
H906 H 0.3214 0.42018 0.51716 0.0
H907 H 0.30503 0.41218 0.46336 0.0
H908 H 0.30537 0.42686 0.51592 0.0
H909 H 0.3161 0.48367 0.41242 0.0
H910 H 0.29443 0.46806 0.33824 0.0
H911 H 0.29953 0.42272 0.36609 0.0
C912 C 0.3499 0.45837 0.5233 0.0
C913 C 0.35948 0.47492 0.54799 0.0
C914 C 0.35463 0.48756 0.53748 0.0
C915 C 0.34116 0.48417 0.50017 0.0
C916 C 0.33251 0.46801 0.47443 0.0
C917 C 0.33639 0.45516 0.48656 0.0
C918 C 0.32554 0.4391 0.45171 0.0
C919 C 0.33698 0.43484 0.41439 0.0
C920 C 0.31362 0.42367 0.48928 0.0
C921 C 0.3153 0.4451 0.41708 0.0
C922 C 0.31956 0.46183 0.43059 0.0
C923 C 0.31244 0.47046 0.40212 0.0
C924 C 0.30029 0.46156 0.35972 0.0
C925 C 0.29532 0.44421 0.34663 0.0
C926 C 0.30304 0.43596 0.37548 0.0
H927 H 0.53178 0.89993 0.49568 0.0
H928 H 0.48707 0.85333 0.55809 0.0
H929 H 0.49412 0.83562 0.49517 0.0
H930 H 0.529 0.88653 0.35248 0.0
H931 H 0.55211 0.8965 0.34382 0.0
H932 H 0.54332 0.90544 0.39284 0.0
H933 H 0.56154 0.9028 0.47289 0.0
H934 H 0.57055 0.89409 0.42397 0.0
H935 H 0.55991 0.88214 0.48648 0.0
H936 H 0.50608 0.82315 0.42396 0.0
H937 H 0.52364 0.81675 0.35834 0.0
H938 H 0.56071 0.87166 0.34533 0.0
C939 C 0.52347 0.88599 0.49622 0.0
C940 C 0.50886 0.87797 0.53158 0.0
C941 C 0.49837 0.8597 0.53139 0.0
C942 C 0.50221 0.84957 0.49556 0.0
C943 C 0.51661 0.85793 0.46057 0.0
C944 C 0.52718 0.87572 0.46122 0.0
C945 C 0.54226 0.88155 0.42131 0.0
C946 C 0.54162 0.89319 0.37487 0.0
C947 C 0.55958 0.89068 0.45307 0.0
C948 C 0.53859 0.86426 0.39821 0.0
C949 C 0.52363 0.85079 0.42075 0.0
C950 C 0.5178 0.8336 0.40605 0.0
C951 C 0.52779 0.8301 0.36853 0.0
C952 C 0.54349 0.84371 0.34675 0.0
C953 C 0.54873 0.86099 0.36113 0.0
H954 H 0.25962 0.14646 0.73278 0.0
H955 H 0.21051 0.10505 0.6713 0.0
H956 H 0.20957 0.0863 0.74943 0.0
H957 H 0.27699 0.1195 0.78159 0.0
H958 H 0.28702 0.13287 0.8422 0.0
H959 H 0.28423 0.14233 0.77917 0.0
H960 H 0.26762 0.15429 0.83559 0.0
H961 H 0.27027 0.14479 0.89867 0.0
H962 H 0.24892 0.13958 0.8761 0.0
H963 H 0.21371 0.07252 0.83783 0.0
H964 H 0.22252 0.06532 0.92812 0.0
H965 H 0.26837 0.11633 0.93036 0.0
C966 C 0.24879 0.13336 0.73522 0.0
C967 C 0.23519 0.12716 0.69589 0.0
C968 C 0.2211 0.11003 0.70098 0.0
C969 C 0.22046 0.09929 0.74516 0.0
C970 C 0.23399 0.10592 0.78382 0.0
C971 C 0.24789 0.12257 0.77909 0.0
C972 C 0.2604 0.12699 0.82725 0.0
C973 C 0.27821 0.13063 0.80628 0.0
C974 C 0.26188 0.14231 0.86141 0.0
C975 C 0.25133 0.1103 0.86016 0.0
C976 C 0.23618 0.0982 0.83452 0.0
C977 C 0.22559 0.08189 0.85814 0.0
C978 C 0.23066 0.07791 0.90935 0.0
C979 C 0.24607 0.09027 0.93624 0.0
C980 C 0.25648 0.10659 0.91096 0.0
H981 H 0.87348 0.11979 0.64833 0.0
H982 H 0.87208 0.07052 0.65447 0.0
H983 H 0.8915 0.08061 0.73711 0.0
H984 H 0.91881 0.14763 0.70304 0.0
H985 H 0.91225 0.16067 0.74221 0.0
H986 H 0.9018 0.15104 0.6767 0.0
H987 H 0.87198 0.13646 0.72654 0.0
H988 H 0.88229 0.14587 0.79198 0.0
H989 H 0.8685 0.12274 0.78639 0.0
H990 H 0.90734 0.09466 0.82817 0.0
H991 H 0.91681 0.1107 0.91843 0.0
H992 H 0.90624 0.14967 0.85186 0.0
C993 C 0.87772 0.11132 0.66581 0.0
C994 C 0.8714 0.09444 0.64495 0.0
C995 C 0.87695 0.0836 0.66961 0.0
C996 C 0.888 0.08924 0.71646 0.0
C997 C 0.89343 0.10577 0.73756 0.0
C998 C 0.88854 0.11668 0.71251 0.0
C999 C 0.89398 0.13281 0.74681 0.0
C1000 C 0.90752 0.14899 0.71531 0.0
C1001 C 0.87825 0.13454 0.76394 0.0
C1002 C 0.90191 0.12892 0.79656 0.0
C1003 C 0.90197 0.11354 0.79018 0.0
C1004 C 0.90762 0.10687 0.83311 0.0
C1005 C 0.91297 0.116 0.88411 0.0
C1006 C 0.91214 0.13129 0.8916 0.0
C1007 C 0.90697 0.13797 0.84688 0.0
H1008 H 0.89056 0.73893 0.70388 0.0
H1009 H 0.89881 0.78427 0.61081 0.0
H1010 H 0.88317 0.79063 0.68409 0.0
H1011 H 0.84762 0.72628 0.75462 0.0
H1012 H 0.8513 0.71942 0.82176 0.0
H1013 H 0.86247 0.7182 0.76065 0.0
H1014 H 0.8919 0.73682 0.81094 0.0
H1015 H 0.88082 0.73816 0.87207 0.0
H1016 H 0.89718 0.75768 0.83886 0.0
H1017 H 0.86706 0.79225 0.76966 0.0
H1018 H 0.85198 0.78889 0.86016 0.0
H1019 H 0.85514 0.74279 0.89543 0.0
C1020 C 0.88895 0.75011 0.69864 0.0
C1021 C 0.89582 0.76108 0.65177 0.0
C1022 C 0.89358 0.77568 0.64652 0.0
C1023 C 0.88473 0.77939 0.68784 0.0
C1024 C 0.87824 0.76837 0.73393 0.0
C1025 C 0.88024 0.75402 0.7394 0.0
C1026 C 0.8725 0.74446 0.79342 0.0
C1027 C 0.85759 0.726 0.7819 0.0
C1028 C 0.88643 0.74428 0.83103 0.0
C1029 C 0.86594 0.75573 0.81776 0.0
C1030 C 0.86925 0.76942 0.78294 0.0
C1031 C 0.86437 0.78156 0.79725 0.0
C1032 C 0.85586 0.77958 0.84859 0.0
C1033 C 0.85247 0.76563 0.88468 0.0
C1034 C 0.8576 0.75363 0.8688 0.0
H1035 H 0.14474 0.25915 0.79268 0.0
H1036 H 0.10606 0.21387 0.88202 0.0
H1037 H 0.0848 0.20859 0.80702 0.0
H1038 H 0.116 0.27352 0.74152 0.0
H1039 H 0.127 0.28061 0.67518 0.0
H1040 H 0.13881 0.28084 0.7367 0.0
H1041 H 0.1489 0.26177 0.68546 0.0
H1042 H 0.13707 0.26142 0.62389 0.0
H1043 H 0.13298 0.24137 0.65563 0.0
H1044 H 0.06787 0.20822 0.72 0.0
H1045 H 0.05704 0.21312 0.62981 0.0
H1046 H 0.10734 0.25841 0.6 0.0
C1047 C 0.13177 0.24818 0.79669 0.0
C1048 C 0.12701 0.23695 0.84309 0.0
C1049 C 0.10995 0.22267 0.84672 0.0
C1050 C 0.09779 0.21956 0.80437 0.0
C1051 C 0.10296 0.23085 0.75883 0.0
C1052 C 0.11955 0.24489 0.75494 0.0
C1053 C 0.12204 0.25498 0.70165 0.0
C1054 C 0.1262 0.27358 0.71456 0.0
C1055 C 0.13607 0.25487 0.66447 0.0
C1056 C 0.10429 0.24444 0.676 0.0
C1057 C 0.09338 0.23057 0.70935 0.0
C1058 C 0.07631 0.21906 0.69357 0.0
C1059 C 0.07027 0.22191 0.6424 0.0
C1060 C 0.08135 0.23611 0.60799 0.0
C1061 C 0.09853 0.24741 0.62528 0.0
H1062 H 0.7415 0.86301 0.57818 0.0
H1063 H 0.79351 0.87259 0.60837 0.0
H1064 H 0.79386 0.88603 0.69989 0.0
H1065 H 0.74658 0.9017 0.63663 0.0
H1066 H 0.72516 0.89144 0.66653 0.0
H1067 H 0.72925 0.88255 0.60458 0.0
H1068 H 0.71733 0.85289 0.65456 0.0
H1069 H 0.71326 0.86171 0.71683 0.0
H1070 H 0.72655 0.85176 0.72054 0.0
H1071 H 0.78853 0.89953 0.78646 0.0
H1072 H 0.77799 0.91139 0.86064 0.0
H1073 H 0.7291 0.89149 0.77285 0.0
C1074 C 0.75303 0.86799 0.60384 0.0
C1075 C 0.76757 0.86697 0.58615 0.0
C1076 C 0.78228 0.87336 0.62126 0.0
C1077 C 0.78256 0.88096 0.67319 0.0
C1078 C 0.76793 0.88176 0.68931 0.0
C1079 C 0.75341 0.87532 0.65566 0.0
C1080 C 0.73929 0.87759 0.68207 0.0
C1081 C 0.73482 0.889 0.64527 0.0
C1082 C 0.72316 0.85994 0.69422 0.0
C1083 C 0.74823 0.88672 0.73552 0.0
C1084 C 0.76471 0.88898 0.73922 0.0
C1085 C 0.7756 0.89769 0.78417 0.0
C1086 C 0.76951 0.90437 0.82602 0.0
C1087 C 0.75271 0.90227 0.8225 0.0
C1088 C 0.74194 0.89316 0.77694 0.0
H1089 H 0.15375 0.90913 0.59618 0.0
H1090 H 0.14321 0.86375 0.49878 0.0
H1091 H 0.12584 0.8449 0.57623 0.0
H1092 H 0.15731 0.89277 0.73022 0.0
H1093 H 0.1465 0.90209 0.76831 0.0
H1094 H 0.15829 0.91233 0.70523 0.0
H1095 H 0.13085 0.91081 0.66249 0.0
H1096 H 0.11902 0.90069 0.72561 0.0
H1097 H 0.11106 0.89024 0.65886 0.0
H1098 H 0.11042 0.83085 0.66422 0.0
H1099 H 0.09567 0.82234 0.75592 0.0
H1100 H 0.11508 0.87647 0.7959 0.0
C1101 C 0.14771 0.89524 0.5912 0.0
C1102 C 0.14984 0.88792 0.54151 0.0
C1103 C 0.14172 0.86966 0.53641 0.0
C1104 C 0.13187 0.85882 0.58024 0.0
C1105 C 0.13014 0.86639 0.62883 0.0
C1106 C 0.13763 0.88414 0.63451 0.0
C1107 C 0.13335 0.8888 0.69101 0.0
C1108 C 0.14984 0.89963 0.72574 0.0
C1109 C 0.12295 0.89819 0.68405 0.0
C1110 C 0.12233 0.87089 0.71592 0.0
C1111 C 0.1208 0.85818 0.67948 0.0
C1112 C 0.11144 0.84066 0.69315 0.0
C1113 C 0.10317 0.83595 0.74532 0.0
C1114 C 0.10422 0.84874 0.78277 0.0
C1115 C 0.11403 0.86642 0.76794 0.0
H1116 H 0.72791 0.89113 0.09624 0.0
H1117 H 0.77688 0.93943 0.0944 0.0
H1118 H 0.78565 0.93047 0.18113 0.0
H1119 H 0.72219 0.88782 0.24805 0.0
H1120 H 0.71274 0.86461 0.24754 0.0
H1121 H 0.71008 0.87548 0.18791 0.0
H1122 H 0.72304 0.86146 0.12338 0.0
H1123 H 0.72583 0.85063 0.18271 0.0
H1124 H 0.74411 0.86438 0.13907 0.0
H1125 H 0.78965 0.91509 0.26414 0.0
H1126 H 0.78837 0.89506 0.33807 0.0
H1127 H 0.73649 0.85712 0.28481 0.0
C1128 C 0.74043 0.89994 0.11432 0.0
C1129 C 0.75176 0.91597 0.08873 0.0
C1130 C 0.76801 0.92711 0.1136 0.0
C1131 C 0.77307 0.92213 0.16273 0.0
C1132 C 0.76165 0.90606 0.18639 0.0
C1133 C 0.74561 0.89521 0.16316 0.0
C1134 C 0.7359 0.8784 0.1953 0.0
C1135 C 0.71925 0.87647 0.22124 0.0
C1136 C 0.732 0.86281 0.15788 0.0
C1137 C 0.74913 0.88127 0.23979 0.0
C1138 C 0.76386 0.89733 0.23417 0.0
C1139 C 0.77811 0.90258 0.26924 0.0
C1140 C 0.77728 0.8911 0.31097 0.0
C1141 C 0.76231 0.87458 0.31718 0.0
C1142 C 0.74805 0.86971 0.28131 0.0
H1143 H 0.12412 0.87585 0.02762 0.0
H1144 H 0.07551 0.87095 0.08233 0.0
H1145 H 0.08978 0.88714 0.16891 0.0
H1146 H 0.1349 0.86624 0.15275 0.0
H1147 H 0.1579 0.8808 0.14735 0.0
H1148 H 0.14511 0.8725 0.08493 0.0
H1149 H 0.15606 0.90373 0.04897 0.0
H1150 H 0.16916 0.9122 0.11108 0.0
H1151 H 0.15384 0.91897 0.09274 0.0
H1152 H 0.10851 0.90027 0.25488 0.0
H1153 H 0.1297 0.90864 0.33239 0.0
H1154 H 0.16511 0.90315 0.22133 0.0
C1155 C 0.11658 0.87868 0.05684 0.0
C1156 C 0.09877 0.8723 0.04821 0.0
C1157 C 0.08925 0.87592 0.08801 0.0
C1158 C 0.09724 0.8851 0.13721 0.0
C1159 C 0.11472 0.89057 0.14553 0.0
C1160 C 0.12428 0.88758 0.1061 0.0
C1161 C 0.14215 0.89271 0.12746 0.0
C1162 C 0.14517 0.87713 0.12818 0.0
C1163 C 0.15613 0.9078 0.09302 0.0
C1164 C 0.14098 0.89841 0.18599 0.0
C1165 C 0.12524 0.89749 0.19541 0.0
C1166 C 0.12096 0.90127 0.24767 0.0
C1167 C 0.13302 0.90596 0.2914 0.0
C1168 C 0.14895 0.90645 0.28263 0.0
C1169 C 0.15301 0.90286 0.22911 0.0
H1170 H 0.14184 0.26069 0.11551 0.0
H1171 H 0.13906 0.21116 0.13988 0.0
H1172 H 0.12545 0.20843 0.23294 0.0
H1173 H 0.15155 0.2751 0.26162 0.0
H1174 H 0.13886 0.2857 0.25863 0.0
H1175 H 0.1494 0.28407 0.1964 0.0
H1176 H 0.11997 0.26918 0.14418 0.0
H1177 H 0.10935 0.27076 0.20605 0.0
H1178 H 0.10201 0.24997 0.17368 0.0
H1179 H 0.10933 0.21002 0.31825 0.0
H1180 H 0.09315 0.21617 0.39017 0.0
H1181 H 0.10823 0.26543 0.31035 0.0
C1182 C 0.13848 0.24931 0.14057 0.0
C1183 C 0.1413 0.23604 0.12067 0.0
C1184 C 0.13694 0.22143 0.15469 0.0
C1185 C 0.12926 0.21982 0.20744 0.0
C1186 C 0.12644 0.2331 0.22552 0.0
C1187 C 0.13113 0.24765 0.19325 0.0
C1188 C 0.12627 0.25987 0.22085 0.0
C1189 C 0.14249 0.27721 0.23523 0.0
C1190 C 0.11365 0.26259 0.184 0.0
C1191 C 0.11754 0.24967 0.27306 0.0
C1192 C 0.11781 0.2343 0.27526 0.0
C1193 C 0.10932 0.22215 0.31749 0.0
C1194 C 0.10014 0.22573 0.358 0.0
C1195 C 0.09963 0.24134 0.35594 0.0
C1196 C 0.10871 0.25355 0.31353 0.0
H1197 H 0.84518 0.73733 0.19924 0.0
H1198 H 0.88471 0.78029 0.10349 0.0
H1199 H 0.90667 0.78394 0.1735 0.0
H1200 H 0.85967 0.75585 0.33081 0.0
H1201 H 0.85477 0.736 0.36586 0.0
H1202 H 0.84259 0.7354 0.30498 0.0
H1203 H 0.85045 0.71423 0.25629 0.0
H1204 H 0.86259 0.71469 0.31731 0.0
H1205 H 0.87287 0.72012 0.24955 0.0
H1206 H 0.92397 0.78415 0.2575 0.0
H1207 H 0.93489 0.78108 0.35 0.0
H1208 H 0.88373 0.73859 0.39052 0.0
C1209 C 0.85851 0.74727 0.1925 0.0
C1210 C 0.86329 0.75848 0.14598 0.0
C1211 C 0.88081 0.77154 0.13893 0.0
C1212 C 0.89338 0.77369 0.17832 0.0
C1213 C 0.8882 0.76264 0.22439 0.0
C1214 C 0.87119 0.74965 0.23155 0.0
C1215 C 0.86875 0.7403 0.28656 0.0
C1216 C 0.85568 0.742 0.32426 0.0
C1217 C 0.86335 0.7212 0.27682 0.0
C1218 C 0.88691 0.75036 0.30981 0.0
C1219 C 0.89804 0.76303 0.27313 0.0
C1220 C 0.9154 0.7742 0.28646 0.0
C1221 C 0.92148 0.7724 0.33894 0.0
C1222 C 0.91012 0.7597 0.37729 0.0
C1223 C 0.8927 0.7485 0.36212 0.0
H1224 H 0.23614 0.08742 0.24755 0.0
H1225 H 0.26234 0.13368 0.14556 0.0
H1226 H 0.25334 0.14914 0.21201 0.0
H1227 H 0.20029 0.09278 0.29904 0.0
H1228 H 0.20131 0.08541 0.36854 0.0
H1229 H 0.20746 0.0773 0.30886 0.0
H1230 H 0.23745 0.0872 0.35376 0.0
H1231 H 0.23131 0.09511 0.41371 0.0
H1232 H 0.25068 0.10944 0.37535 0.0
H1233 H 0.2421 0.15954 0.29106 0.0
H1234 H 0.23469 0.16604 0.38431 0.0
H1235 H 0.21877 0.11382 0.439 0.0
C1236 C 0.23968 0.10072 0.23888 0.0
C1237 C 0.24961 0.10939 0.19137 0.0
C1238 C 0.2546 0.1269 0.18182 0.0
C1239 C 0.24941 0.13567 0.21895 0.0
C1240 C 0.23956 0.12674 0.26568 0.0
C1241 C 0.23508 0.10976 0.27632 0.0
C1242 C 0.22656 0.1038 0.33304 0.0
C1243 C 0.20779 0.08894 0.32698 0.0
C1244 C 0.23714 0.0986 0.3712 0.0
C1245 C 0.22721 0.12019 0.35325 0.0
C1246 C 0.23422 0.13309 0.31305 0.0
C1247 C 0.23651 0.14951 0.3227 0.0
C1248 C 0.23213 0.15304 0.37556 0.0
C1249 C 0.22603 0.14034 0.41831 0.0
C1250 C 0.2232 0.12363 0.4066 0.0
H1251 H 0.86665 0.0777 0.3838 0.0
H1252 H 0.81424 0.06546 0.34505 0.0
H1253 H 0.82366 0.07794 0.25067 0.0
H1254 H 0.88705 0.11709 0.32683 0.0
H1255 H 0.90534 0.11641 0.29775 0.0
H1256 H 0.89408 0.10309 0.357 0.0
H1257 H 0.88852 0.07556 0.30318 0.0
H1258 H 0.90017 0.08884 0.24392 0.0
H1259 H 0.8784 0.07109 0.23515 0.0
H1260 H 0.83996 0.09787 0.17122 0.0
H1261 H 0.86127 0.11971 0.10587 0.0
H1262 H 0.90274 0.11749 0.19312 0.0
C1263 C 0.85701 0.07691 0.35449 0.0
C1264 C 0.83972 0.07056 0.37161 0.0
C1265 C 0.82751 0.07006 0.33259 0.0
C1266 C 0.83277 0.07722 0.27892 0.0
C1267 C 0.85017 0.0844 0.26454 0.0
C1268 C 0.86201 0.08381 0.30057 0.0
C1269 C 0.8802 0.09381 0.27715 0.0
C1270 C 0.89237 0.10846 0.31706 0.0
C1271 C 0.88724 0.08159 0.26406 0.0
C1272 C 0.87688 0.10094 0.22397 0.0
C1273 C 0.85947 0.09533 0.21726 0.0
C1274 C 0.85355 0.10189 0.17496 0.0
C1275 C 0.86572 0.11438 0.1384 0.0
C1276 C 0.88354 0.12002 0.14415 0.0
C1277 C 0.88911 0.11304 0.18703 0.0
H1278 H 0.93092 0.44344 0.22992 0.0
H1279 H 0.88076 0.39744 0.25208 0.0
H1280 H 0.87258 0.40099 0.15548 0.0
H1281 H 0.91722 0.468 0.16063 0.0
H1282 H 0.93544 0.47829 0.11368 0.0
H1283 H 0.93788 0.47063 0.1808 0.0
H1284 H 0.94893 0.45193 0.13258 0.0
H1285 H 0.94659 0.45961 0.06506 0.0
H1286 H 0.93596 0.43668 0.07899 0.0
H1287 H 0.86878 0.41244 0.06165 0.0
H1288 H 0.87013 0.42976 0.97852 0.0
H1289 H 0.92342 0.46727 0.01862 0.0
C1290 C 0.91832 0.43392 0.21408 0.0
C1291 C 0.9064 0.42022 0.24813 0.0
C1292 C 0.89006 0.40798 0.22621 0.0
C1293 C 0.88535 0.40991 0.17154 0.0
C1294 C 0.89731 0.42391 0.13941 0.0
C1295 C 0.91357 0.43552 0.15978 0.0
C1296 C 0.92377 0.45006 0.11894 0.0
C1297 C 0.92886 0.46778 0.14508 0.0
C1298 C 0.93976 0.44953 0.09763 0.0
C1299 C 0.91046 0.44532 0.0732 0.0
C1300 C 0.89531 0.43013 0.08527 0.0
C1301 C 0.8807 0.42413 0.05122 0.0
C1302 C 0.88157 0.43405 0.00422 0.0
C1303 C 0.89692 0.44975 0.99199 0.0
C1304 C 0.91159 0.45517 0.02635 0.0
H1305 H 0.58136 0.48739 0.20452 0.0
H1306 H 0.59238 0.44746 0.25779 0.0
H1307 H 0.58061 0.43196 0.16832 0.0
H1308 H 0.54143 0.45966 0.15709 0.0
H1309 H 0.54124 0.47235 0.09854 0.0
H1310 H 0.55487 0.48291 0.15788 0.0
H1311 H 0.58177 0.49757 0.09353 0.0
H1312 H 0.56819 0.48726 0.03351 0.0
H1313 H 0.58653 0.48449 0.04737 0.0
H1314 H 0.5637 0.41866 0.08212 0.0
H1315 H 0.54192 0.40767 0.00693 0.0
H1316 H 0.53946 0.45506 0.01282 0.0
C1317 C 0.58214 0.47587 0.19584 0.0
C1318 C 0.58829 0.46884 0.23683 0.0
C1319 C 0.58815 0.45321 0.22599 0.0
C1320 C 0.58148 0.44436 0.17539 0.0
C1321 C 0.57476 0.45121 0.13672 0.0
C1322 C 0.57504 0.46664 0.14631 0.0
C1323 C 0.56436 0.46967 0.10303 0.0
C1324 C 0.5496 0.47122 0.13082 0.0
C1325 C 0.57591 0.4857 0.06722 0.0
C1326 C 0.55746 0.4532 0.06895 0.0
C1327 C 0.564 0.44298 0.08826 0.0
C1328 C 0.55871 0.42666 0.06604 0.0
C1329 C 0.54626 0.42051 0.02346 0.0
C1330 C 0.539 0.43053 0.004 0.0
C1331 C 0.5449 0.4472 0.02651 0.0
H1332 H 0.55117 0.06041 0.06302 0.0
H1333 H 0.57491 0.11231 0.99379 0.0
H1334 H 0.56142 0.12081 0.06848 0.0
H1335 H 0.5107 0.05755 0.10856 0.0
H1336 H 0.50964 0.04589 0.17155 0.0
H1337 H 0.51996 0.04363 0.10983 0.0
H1338 H 0.54795 0.05279 0.16707 0.0
H1339 H 0.53776 0.05518 0.22881 0.0
H1340 H 0.55791 0.07308 0.20442 0.0
H1341 H 0.54618 0.12387 0.15355 0.0
H1342 H 0.53095 0.12126 0.2431 0.0
H1343 H 0.51836 0.06767 0.25679 0.0
C1344 C 0.5533 0.07348 0.06305 0.0
C1345 C 0.56396 0.08568 0.02258 0.0
C1346 C 0.56671 0.10275 0.02445 0.0
C1347 C 0.55909 0.10769 0.06659 0.0
C1348 C 0.54884 0.09541 0.10648 0.0
C1349 C 0.54595 0.07865 0.105 0.0
C1350 C 0.53524 0.06818 0.1544 0.0
C1351 C 0.51785 0.05291 0.1349 0.0
C1352 C 0.54532 0.06195 0.19082 0.0
C1353 C 0.53276 0.08171 0.18433 0.0
C1354 C 0.54051 0.09729 0.15588 0.0
C1355 C 0.54002 0.11171 0.17612 0.0
C1356 C 0.53138 0.11013 0.2269 0.0
C1357 C 0.5236 0.09431 0.25682 0.0
C1358 C 0.52429 0.07997 0.23497 0.0
H1359 H 0.76383 0.57411 0.87323 0.0
H1360 H 0.80515 0.61465 0.77483 0.0
H1361 H 0.82649 0.6169 0.84476 0.0
H1362 H 0.7798 0.59242 0.00444 0.0
H1363 H 0.77358 0.5723 0.04 0.0
H1364 H 0.76165 0.57253 0.97953 0.0
H1365 H 0.76715 0.54972 0.93099 0.0
H1366 H 0.77904 0.54935 0.99155 0.0
H1367 H 0.78902 0.55391 0.9233 0.0
H1368 H 0.84294 0.61706 0.92965 0.0
H1369 H 0.85349 0.61396 0.02241 0.0
H1370 H 0.80179 0.57276 0.06428 0.0
C1371 C 0.7774 0.5832 0.86592 0.0
C1372 C 0.78284 0.59418 0.81861 0.0
C1373 C 0.80069 0.60607 0.81075 0.0
C1374 C 0.81293 0.60745 0.85019 0.0
C1375 C 0.80714 0.59672 0.89699 0.0
C1376 C 0.78983 0.58469 0.90481 0.0
C1377 C 0.78697 0.57535 0.96018 0.0
C1378 C 0.77478 0.57834 0.99827 0.0
C1379 C 0.78014 0.55593 0.95093 0.0
C1380 C 0.80528 0.58434 0.9828 0.0
C1381 C 0.81673 0.59658 0.94562 0.0
C1382 C 0.83416 0.60732 0.95878 0.0
C1383 C 0.84003 0.60552 0.01152 0.0
C1384 C 0.82849 0.59304 0.05011 0.0
C1385 C 0.81096 0.58222 0.03519 0.0
H1386 H 0.39981 0.19414 0.89312 0.0
H1387 H 0.45529 0.21472 0.9028 0.0
H1388 H 0.45677 0.23252 0.98443 0.0
H1389 H 0.39944 0.2333 0.93586 0.0
H1390 H 0.37993 0.2215 0.97656 0.0
H1391 H 0.38347 0.21155 0.91615 0.0
H1392 H 0.37925 0.18579 0.9776 0.0
H1393 H 0.37582 0.19565 0.03836 0.0
H1394 H 0.39249 0.18985 0.03906 0.0
H1395 H 0.45209 0.24705 0.06616 0.0
H1396 H 0.44164 0.25678 0.14581 0.0
H1397 H 0.38885 0.22598 0.08549 0.0
C1398 C 0.41232 0.20263 0.91183 0.0
C1399 C 0.4275 0.20327 0.89144 0.0
C1400 C 0.44356 0.21417 0.91773 0.0
C1401 C 0.44451 0.22432 0.96393 0.0
C1402 C 0.42927 0.22326 0.98336 0.0
C1403 C 0.41346 0.21266 0.95835 0.0
C1404 C 0.39888 0.21307 0.98965 0.0
C1405 C 0.3899 0.22029 0.95232 0.0
C1406 C 0.38585 0.19502 0.01253 0.0
C1407 C 0.40896 0.22551 0.0365 0.0
C1408 C 0.42648 0.23132 0.03165 0.0
C1409 C 0.43843 0.24264 0.07032 0.0
C1410 C 0.43233 0.24807 0.11546 0.0
C1411 C 0.41442 0.24212 0.12187 0.0
C1412 C 0.40261 0.23079 0.08154 0.0
H1413 H 0.81857 0.24608 0.915 0.0
H1414 H 0.814 0.20199 0.82282 0.0
H1415 H 0.79484 0.18234 0.89602 0.0
H1416 H 0.82041 0.23088 0.04978 0.0
H1417 H 0.80774 0.23888 0.08368 0.0
H1418 H 0.82015 0.24957 0.02209 0.0
H1419 H 0.79246 0.2456 0.97311 0.0
H1420 H 0.77995 0.23492 0.03468 0.0
H1421 H 0.77377 0.22424 0.96762 0.0
H1422 H 0.77828 0.16767 0.98153 0.0
H1423 H 0.7643 0.1587 0.07425 0.0
H1424 H 0.77866 0.21193 0.11048 0.0
C1425 C 0.81334 0.23227 0.90998 0.0
C1426 C 0.81774 0.22555 0.8633 0.0
C1427 C 0.81077 0.20743 0.85825 0.0
C1428 C 0.79985 0.19614 0.89953 0.0
C1429 C 0.79592 0.20315 0.94535 0.0
C1430 C 0.80231 0.22076 0.95077 0.0
C1431 C 0.79651 0.2249 0.00537 0.0
C1432 C 0.81214 0.23675 0.0424 0.0
C1433 C 0.78499 0.23289 0.99452 0.0
C1434 C 0.7862 0.2069 0.03013 0.0
C1435 C 0.786 0.19456 0.99467 0.0
C1436 C 0.77813 0.17715 0.00945 0.0
C1437 C 0.77029 0.17219 0.06216 0.0
C1438 C 0.77034 0.18462 0.0991 0.0
C1439 C 0.77825 0.20215 0.08261 0.0
H1440 H 0.42363 0.24729 0.4365 0.0
H1441 H 0.39114 0.20324 0.33051 0.0
H1442 H 0.3904 0.18342 0.40371 0.0
H1443 H 0.44851 0.22865 0.49943 0.0
H1444 H 0.44937 0.23795 0.56724 0.0
H1445 H 0.44844 0.24879 0.5047 0.0
H1446 H 0.42128 0.24874 0.54341 0.0
H1447 H 0.42198 0.23771 0.60571 0.0
H1448 H 0.40264 0.22851 0.56353 0.0
H1449 H 0.39104 0.16827 0.49039 0.0
H1450 H 0.39506 0.15875 0.58364 0.0
H1451 H 0.42753 0.21243 0.63328 0.0
C1452 C 0.41667 0.2335 0.42836 0.0
C1453 C 0.40747 0.2268 0.37787 0.0
C1454 C 0.39829 0.20866 0.36892 0.0
C1455 C 0.39777 0.19728 0.41023 0.0
C1456 C 0.40657 0.20424 0.46014 0.0
C1457 C 0.41603 0.22191 0.46924 0.0
C1458 C 0.42384 0.22591 0.52745 0.0
C1459 C 0.44372 0.23591 0.52451 0.0
C1460 C 0.41702 0.2358 0.56205 0.0
C1461 C 0.41707 0.20773 0.54972 0.0
C1462 C 0.40711 0.19544 0.51021 0.0
C1463 C 0.39896 0.17776 0.52158 0.0
C1464 C 0.40123 0.17248 0.57468 0.0
C1465 C 0.41162 0.18485 0.61545 0.0
C1466 C 0.41958 0.20269 0.60274 0.0
H1467 H 0.83285 0.24266 0.54977 0.0
H1468 H 0.79523 0.23617 0.67639 0.0
H1469 H 0.77212 0.22474 0.60453 0.0
H1470 H 0.81394 0.25649 0.43763 0.0
H1471 H 0.81901 0.24547 0.38409 0.0
H1472 H 0.8326 0.25385 0.44518 0.0
H1473 H 0.8283 0.22338 0.46616 0.0
H1474 H 0.81487 0.21499 0.40496 0.0
H1475 H 0.80665 0.20518 0.47237 0.0
H1476 H 0.75268 0.21027 0.52078 0.0
H1477 H 0.73907 0.19593 0.43085 0.0
H1478 H 0.79001 0.21538 0.35815 0.0
C1479 C 0.81976 0.23894 0.56213 0.0
C1480 C 0.81571 0.24014 0.61835 0.0
C1481 C 0.79852 0.23533 0.63325 0.0
C1482 C 0.78535 0.22887 0.5928 0.0
C1483 C 0.78972 0.22776 0.53753 0.0
C1484 C 0.80657 0.23293 0.52208 0.0
C1485 C 0.80786 0.23019 0.46023 0.0
C1486 C 0.81901 0.24753 0.43001 0.0
C1487 C 0.81482 0.21769 0.45039 0.0
C1488 C 0.78904 0.2221 0.44366 0.0
C1489 C 0.7787 0.22072 0.48872 0.0
C1490 C 0.76066 0.21174 0.48474 0.0
C1491 C 0.75304 0.20368 0.43365 0.0
C1492 C 0.7635 0.20498 0.38733 0.0
C1493 C 0.78168 0.21472 0.39223 0.0
H1494 H 0.77693 0.57928 0.57996 0.0
H1495 H 0.75615 0.61014 0.51075 0.0
H1496 H 0.76586 0.60725 0.41624 0.0
H1497 H 0.81507 0.59822 0.49742 0.0
H1498 H 0.81578 0.57847 0.48979 0.0
H1499 H 0.80579 0.58167 0.55061 0.0
H1500 H 0.77752 0.55298 0.5291 0.0
H1501 H 0.78739 0.5498 0.46777 0.0
H1502 H 0.76736 0.55001 0.46155 0.0
H1503 H 0.77838 0.6017 0.33076 0.0
H1504 H 0.79591 0.59701 0.26095 0.0
H1505 H 0.80983 0.57077 0.38623 0.0
C1506 C 0.77428 0.58528 0.54475 0.0
C1507 C 0.76568 0.59482 0.55226 0.0
C1508 C 0.76272 0.60278 0.50563 0.0
C1509 C 0.76806 0.60109 0.45189 0.0
C1510 C 0.77645 0.59153 0.44585 0.0
C1511 C 0.77976 0.58395 0.49107 0.0
C1512 C 0.79027 0.5756 0.47394 0.0
C1513 C 0.80776 0.584 0.50476 0.0
C1514 C 0.78002 0.55593 0.48367 0.0
C1515 C 0.79257 0.57987 0.41201 0.0
C1516 C 0.78421 0.58879 0.39663 0.0
C1517 C 0.78492 0.59469 0.34222 0.0
C1518 C 0.7949 0.59192 0.30287 0.0
C1519 C 0.80421 0.5835 0.31819 0.0
C1520 C 0.80267 0.57703 0.37317 0.0
H1521 H 0.54965 0.06403 0.76582 0.0
H1522 H 0.60161 0.10621 0.73255 0.0
H1523 H 0.59168 0.11139 0.64127 0.0
H1524 H 0.53982 0.04794 0.62351 0.0
H1525 H 0.51748 0.04242 0.62844 0.0
H1526 H 0.52886 0.04191 0.69015 0.0
H1527 H 0.52119 0.063 0.74029 0.0
H1528 H 0.50975 0.06354 0.67888 0.0
H1529 H 0.52689 0.08343 0.70779 0.0
H1530 H 0.57555 0.11261 0.55586 0.0
H1531 H 0.55474 0.1098 0.48262 0.0
H1532 H 0.5136 0.06619 0.57163 0.0
C1533 C 0.55898 0.07437 0.73938 0.0
C1534 C 0.57638 0.08481 0.75623 0.0
C1535 C 0.5882 0.0981 0.72033 0.0
C1536 C 0.58268 0.1011 0.66849 0.0
C1537 C 0.56538 0.09055 0.65324 0.0
C1538 C 0.55374 0.07741 0.68759 0.0
C1539 C 0.53582 0.06801 0.66204 0.0
C1540 C 0.53017 0.04894 0.65033 0.0
C1541 C 0.52264 0.0696 0.69947 0.0
C1542 C 0.53907 0.07812 0.60822 0.0
C1543 C 0.55621 0.09103 0.60379 0.0
C1544 C 0.56215 0.10246 0.55868 0.0
C1545 C 0.55023 0.10077 0.51736 0.0
C1546 C 0.53259 0.08772 0.52142 0.0
C1547 C 0.52704 0.07615 0.56714 0.0
H1548 H 0.91504 0.46639 0.5046 0.0
H1549 H 0.86897 0.41586 0.49054 0.0
H1550 H 0.85415 0.42452 0.55938 0.0
H1551 H 0.91492 0.47002 0.64302 0.0
H1552 H 0.92221 0.49285 0.64637 0.0
H1553 H 0.92746 0.48423 0.58659 0.0
H1554 H 0.9133 0.49704 0.52162 0.0
H1555 H 0.90786 0.50556 0.58192 0.0
H1556 H 0.89118 0.49159 0.53347 0.0
H1557 H 0.8477 0.43516 0.64649 0.0
H1558 H 0.84981 0.4478 0.74035 0.0
H1559 H 0.89834 0.49272 0.69299 0.0
C1560 C 0.90161 0.45742 0.51442 0.0
C1561 C 0.89314 0.44049 0.49236 0.0
C1562 C 0.87567 0.42895 0.50677 0.0
C1563 C 0.86711 0.43378 0.54569 0.0
C1564 C 0.87606 0.45034 0.56877 0.0
C1565 C 0.89283 0.46214 0.55278 0.0
C1566 C 0.90036 0.47822 0.58891 0.0
C1567 C 0.9172 0.48149 0.61793 0.0
C1568 C 0.90334 0.49404 0.55441 0.0
C1569 C 0.88575 0.47303 0.63047 0.0
C1570 C 0.87171 0.457 0.6177 0.0
C1571 C 0.8582 0.44805 0.65575 0.0
C1572 C 0.85945 0.45529 0.70893 0.0
C1573 C 0.87393 0.47143 0.72292 0.0
C1574 C 0.88672 0.48075 0.6822 0.0
H1575 H 0.57868 0.45681 0.56293 0.0
H1576 H 0.53554 0.43154 0.44777 0.0
H1577 H 0.51859 0.40978 0.52062 0.0
H1578 H 0.57122 0.41746 0.64406 0.0
H1579 H 0.57695 0.42938 0.70898 0.0
H1580 H 0.58698 0.44025 0.64433 0.0
H1581 H 0.57705 0.46265 0.6624 0.0
H1582 H 0.56715 0.45195 0.72693 0.0
H1583 H 0.55442 0.4551 0.67449 0.0
H1584 H 0.50519 0.39332 0.6094 0.0
H1585 H 0.49529 0.38623 0.70762 0.0
H1586 H 0.5467 0.4236 0.76538 0.0
C1587 C 0.56588 0.44634 0.55245 0.0
C1588 C 0.55846 0.44563 0.49966 0.0
C1589 C 0.54146 0.43216 0.48796 0.0
C1590 C 0.53183 0.41969 0.52891 0.0
C1591 C 0.53939 0.42099 0.58123 0.0
C1592 C 0.55602 0.43408 0.59311 0.0
C1593 C 0.56023 0.43447 0.65467 0.0
C1594 C 0.5747 0.43013 0.66351 0.0
C1595 C 0.56497 0.45207 0.68114 0.0
C1596 C 0.5431 0.4201 0.67621 0.0
C1597 C 0.53142 0.41204 0.63305 0.0
C1598 C 0.51431 0.39931 0.64339 0.0
C1599 C 0.50882 0.39529 0.69927 0.0
C1600 C 0.52032 0.4043 0.74373 0.0
C1601 C 0.53777 0.41636 0.73197 0.0
H1602 H 0.57289 0.78915 0.4101 0.0
H1603 H 0.60665 0.84306 0.4548 0.0
H1604 H 0.61225 0.83404 0.54658 0.0
H1605 H 0.55448 0.77392 0.54829 0.0
H1606 H 0.55418 0.75364 0.54163 0.0
H1607 H 0.55216 0.76426 0.48018 0.0
H1608 H 0.57841 0.76392 0.43509 0.0
H1609 H 0.58046 0.75324 0.49623 0.0
H1610 H 0.59866 0.77328 0.47254 0.0
H1611 H 0.61467 0.81946 0.63164 0.0
H1612 H 0.61513 0.80013 0.70428 0.0
H1613 H 0.58015 0.75535 0.6048 0.0
C1614 C 0.58139 0.79904 0.43937 0.0
C1615 C 0.58931 0.81681 0.4256 0.0
C1616 C 0.60047 0.82939 0.46463 0.0
C1617 C 0.60367 0.8244 0.51687 0.0
C1618 C 0.59564 0.80679 0.52921 0.0
C1619 C 0.58482 0.79428 0.49159 0.0
C1620 C 0.57841 0.77622 0.5146 0.0
C1621 C 0.55863 0.76644 0.52159 0.0
C1622 C 0.58435 0.76607 0.47741 0.0
C1623 C 0.58748 0.78056 0.57089 0.0
C1624 C 0.59721 0.79828 0.57846 0.0
C1625 C 0.60707 0.80556 0.62634 0.0
C1626 C 0.60724 0.79445 0.66734 0.0
C1627 C 0.59766 0.77624 0.66016 0.0
C1628 C 0.58747 0.76921 0.61157 0.0
H1629 H 0.23882 0.77705 0.58557 0.0
H1630 H 0.26739 0.83204 0.54929 0.0
H1631 H 0.25256 0.82667 0.45842 0.0
H1632 H 0.23534 0.76183 0.43183 0.0
H1633 H 0.21389 0.74402 0.44532 0.0
H1634 H 0.23003 0.75167 0.49986 0.0
H1635 H 0.20908 0.75574 0.56469 0.0
H1636 H 0.19312 0.74874 0.51016 0.0
H1637 H 0.20086 0.76961 0.54249 0.0
H1638 H 0.22914 0.81655 0.3865 0.0
H1639 H 0.20273 0.80135 0.32814 0.0
H1640 H 0.19039 0.75275 0.40742 0.0
C1641 C 0.2427 0.78781 0.55702 0.0
C1642 C 0.25427 0.80493 0.57448 0.0
C1643 C 0.25874 0.81878 0.53661 0.0
C1644 C 0.25025 0.81587 0.48494 0.0
C1645 C 0.23777 0.79899 0.47106 0.0
C1646 C 0.23447 0.78508 0.50503 0.0
C1647 C 0.21918 0.76849 0.48356 0.0
C1648 C 0.22496 0.75575 0.46395 0.0
C1649 C 0.20472 0.76018 0.52786 0.0
C1650 C 0.21373 0.77543 0.43452 0.0
C1651 C 0.22463 0.79304 0.42779 0.0
C1652 C 0.22088 0.80266 0.38993 0.0
C1653 C 0.20578 0.79399 0.35748 0.0
C1654 C 0.19473 0.7759 0.36294 0.0
C1655 C 0.19887 0.76654 0.40158 0.0
H1656 H 0.19306 0.40954 0.62838 0.0
H1657 H 0.17154 0.44148 0.57591 0.0
H1658 H 0.18353 0.44347 0.48056 0.0
H1659 H 0.2325 0.4309 0.54645 0.0
H1660 H 0.23208 0.41087 0.53165 0.0
H1661 H 0.2228 0.41322 0.59572 0.0
H1662 H 0.19372 0.38579 0.57073 0.0
H1663 H 0.2028 0.38351 0.50614 0.0
H1664 H 0.18333 0.38491 0.505 0.0
H1665 H 0.19737 0.44096 0.39001 0.0
H1666 H 0.21246 0.43504 0.31358 0.0
H1667 H 0.22342 0.40368 0.42697 0.0
C1668 C 0.19105 0.41719 0.59719 0.0
C1669 C 0.18146 0.42546 0.60951 0.0
C1670 C 0.17899 0.43518 0.56734 0.0
C1671 C 0.18568 0.43629 0.51314 0.0
C1672 C 0.19471 0.42757 0.50215 0.0
C1673 C 0.19746 0.41829 0.54324 0.0
C1674 C 0.20707 0.40961 0.52093 0.0
C1675 C 0.22465 0.41657 0.55043 0.0
C1676 C 0.19607 0.38978 0.526 0.0
C1677 C 0.20929 0.41534 0.46052 0.0
C1678 C 0.20217 0.42576 0.45037 0.0
C1679 C 0.20296 0.4328 0.39757 0.0
C1680 C 0.21149 0.42933 0.35443 0.0
C1681 C 0.21897 0.4188 0.36438 0.0
C1682 C 0.21764 0.41159 0.41796 0.0
H1683 H 0.4786 0.93097 0.45425 0.0
H1684 H 0.43836 0.8836 0.53026 0.0
H1685 H 0.41799 0.88117 0.45625 0.0
H1686 H 0.45047 0.9475 0.4087 0.0
H1687 H 0.462 0.95612 0.34392 0.0
H1688 H 0.47326 0.95473 0.40463 0.0
H1689 H 0.48354 0.9368 0.34753 0.0
H1690 H 0.47227 0.9381 0.28675 0.0
H1691 H 0.46775 0.91727 0.31285 0.0
H1692 H 0.40216 0.88339 0.37374 0.0
H1693 H 0.39194 0.88993 0.28588 0.0
H1694 H 0.44254 0.93539 0.26157 0.0
C1695 C 0.46545 0.9202 0.45554 0.0
C1696 C 0.46002 0.9075 0.498 0.0
C1697 C 0.44278 0.89349 0.49809 0.0
C1698 C 0.4311 0.892 0.45632 0.0
C1699 C 0.43688 0.90461 0.41476 0.0
C1700 C 0.45363 0.91845 0.41391 0.0
C1701 C 0.45663 0.92987 0.36328 0.0
C1702 C 0.46084 0.94814 0.38122 0.0
C1703 C 0.47089 0.93054 0.32537 0.0
C1704 C 0.43903 0.92014 0.33557 0.0
C1705 C 0.4278 0.90571 0.36629 0.0
C1706 C 0.41081 0.89467 0.34929 0.0
C1707 C 0.40513 0.89848 0.29941 0.0
C1708 C 0.41648 0.91311 0.26701 0.0
C1709 C 0.43362 0.92406 0.28543 0.0
H1710 H 0.09085 0.55175 0.48585 0.0
H1711 H 0.09593 0.59875 0.41417 0.0
H1712 H 0.11151 0.5959 0.33304 0.0
H1713 H 0.13217 0.5561 0.43066 0.0
H1714 H 0.1221 0.53329 0.41555 0.0
H1715 H 0.11445 0.54069 0.47329 0.0
H1716 H 0.08333 0.52482 0.43214 0.0
H1717 H 0.0909 0.51709 0.37557 0.0
H1718 H 0.07998 0.52906 0.36068 0.0
H1719 H 0.12335 0.5865 0.25588 0.0
H1720 H 0.12574 0.56875 0.18122 0.0
H1721 H 0.11221 0.52713 0.30016 0.0
C1722 C 0.0956 0.56159 0.4535 0.0
C1723 C 0.09238 0.57553 0.45612 0.0
C1724 C 0.09829 0.58796 0.41261 0.0
C1725 C 0.10735 0.58657 0.36684 0.0
C1726 C 0.11026 0.57261 0.36508 0.0
C1727 C 0.10432 0.56017 0.40682 0.0
C1728 C 0.10669 0.54506 0.39059 0.0
C1729 C 0.11962 0.54371 0.42987 0.0
C1730 C 0.08919 0.52802 0.38965 0.0
C1731 C 0.11417 0.55059 0.33223 0.0
C1732 C 0.11668 0.56681 0.31919 0.0
C1733 C 0.12174 0.57393 0.26583 0.0
C1734 C 0.12317 0.56379 0.2237 0.0
C1735 C 0.11929 0.54664 0.23506 0.0
C1736 C 0.11572 0.54037 0.29067 0.0
H1737 H 0.45432 0.5379 0.47732 0.0
H1738 H 0.40532 0.50077 0.40188 0.0
H1739 H 0.41378 0.51772 0.31433 0.0
H1740 H 0.45868 0.57671 0.4091 0.0
H1741 H 0.48169 0.58627 0.39891 0.0
H1742 H 0.47133 0.5721 0.4577 0.0
H1743 H 0.48359 0.55245 0.42651 0.0
H1744 H 0.49424 0.56677 0.36852 0.0
H1745 H 0.47969 0.54407 0.35601 0.0
H1746 H 0.42803 0.53724 0.2337 0.0
H1747 H 0.44857 0.55629 0.16162 0.0
H1748 H 0.48829 0.58113 0.28854 0.0
C1749 C 0.44536 0.53341 0.44241 0.0
C1750 C 0.42916 0.51806 0.44631 0.0
C1751 C 0.41783 0.51248 0.39968 0.0
C1752 C 0.42243 0.52211 0.34999 0.0
C1753 C 0.43841 0.53728 0.34763 0.0
C1754 C 0.44981 0.54282 0.39227 0.0
C1755 C 0.46676 0.5588 0.37705 0.0
C1756 C 0.46979 0.57439 0.41283 0.0
C1757 C 0.48196 0.5553 0.38231 0.0
C1758 C 0.46324 0.56111 0.31647 0.0
C1759 C 0.44669 0.54872 0.3007 0.0
C1760 C 0.44091 0.5472 0.24565 0.0
C1761 C 0.45262 0.55811 0.20508 0.0
C1762 C 0.46985 0.57033 0.21988 0.0
C1763 C 0.47501 0.5723 0.27656 0.0
H1764 H 0.09721 0.56668 0.73268 0.0
H1765 H 0.06937 0.59174 0.79368 0.0
H1766 H 0.06882 0.58047 0.8887 0.0
H1767 H 0.07457 0.52871 0.8077 0.0
H1768 H 0.09281 0.52591 0.82299 0.0
H1769 H 0.093 0.53764 0.76138 0.0
H1770 H 0.12175 0.56431 0.7933 0.0
H1771 H 0.12184 0.55254 0.85461 0.0
H1772 H 0.12316 0.57328 0.86207 0.0
H1773 H 0.06789 0.56327 0.97352 0.0
H1774 H 0.06975 0.5442 0.04516 0.0
H1775 H 0.099 0.53121 0.92932 0.0
C1776 C 0.09142 0.5702 0.76637 0.0
C1777 C 0.08338 0.58012 0.75597 0.0
C1778 C 0.07574 0.58428 0.8009 0.0
C1779 C 0.0753 0.57787 0.85493 0.0
C1780 C 0.08276 0.56755 0.86332 0.0
C1781 C 0.09099 0.56403 0.82055 0.0
C1782 C 0.09734 0.55201 0.83995 0.0
C1783 C 0.08892 0.53507 0.80598 0.0
C1784 C 0.1172 0.56108 0.83734 0.0
C1785 C 0.09096 0.54891 0.89985 0.0
C1786 C 0.08256 0.55797 0.91255 0.0
C1787 C 0.07469 0.55635 0.96439 0.0
C1788 C 0.07569 0.5454 0.0046 0.0
C1789 C 0.08457 0.53632 0.99273 0.0
C1790 C 0.09227 0.53812 0.93966 0.0
H1791 H 0.4729 0.5413 0.97022 0.0
H1792 H 0.49102 0.59498 0.92734 0.0
H1793 H 0.47331 0.58565 0.84119 0.0
H1794 H 0.47142 0.52568 0.83012 0.0
H1795 H 0.45186 0.50535 0.84209 0.0
H1796 H 0.46635 0.51638 0.89943 0.0
H1797 H 0.44106 0.51586 0.95465 0.0
H1798 H 0.42657 0.50503 0.89705 0.0
H1799 H 0.42907 0.52508 0.92352 0.0
H1800 H 0.45463 0.57058 0.75811 0.0
H1801 H 0.43586 0.55055 0.68402 0.0
H1802 H 0.42823 0.50679 0.78487 0.0
C1803 C 0.47324 0.55106 0.94235 0.0
C1804 C 0.48337 0.56883 0.95494 0.0
C1805 C 0.48332 0.58127 0.91816 0.0
C1806 C 0.4733 0.57612 0.86929 0.0
C1807 C 0.46323 0.55848 0.85838 0.0
C1808 C 0.46307 0.54612 0.89388 0.0
C1809 C 0.45089 0.528 0.87285 0.0
C1810 C 0.46072 0.51829 0.86037 0.0
C1811 C 0.43601 0.5179 0.91451 0.0
C1812 C 0.44444 0.53213 0.81963 0.0
C1813 C 0.45176 0.54978 0.81192 0.0
C1814 C 0.44861 0.55672 0.76399 0.0
C1815 C 0.43793 0.5453 0.7223 0.0
C1816 C 0.43041 0.5272 0.72943 0.0
C1817 C 0.43346 0.52057 0.77913 0.0
H1818 H 0.46539 0.92632 0.75272 0.0
H1819 H 0.46328 0.8777 0.79096 0.0
H1820 H 0.44862 0.87611 0.8807 0.0
H1821 H 0.47444 0.94336 0.89182 0.0
H1822 H 0.46137 0.9535 0.88609 0.0
H1823 H 0.47128 0.95057 0.82451 0.0
H1824 H 0.4413 0.93389 0.77623 0.0
H1825 H 0.43129 0.93687 0.83749 0.0
H1826 H 0.4239 0.91539 0.81078 0.0
H1827 H 0.43439 0.88005 0.96616 0.0
H1828 H 0.42112 0.8888 0.0406 0.0
H1829 H 0.43303 0.93514 0.94656 0.0
C1830 C 0.46176 0.91527 0.77978 0.0
C1831 C 0.4654 0.90208 0.76493 0.0
C1832 C 0.46055 0.8879 0.80158 0.0
C1833 C 0.45226 0.88692 0.85258 0.0
C1834 C 0.449 0.90025 0.86614 0.0
C1835 C 0.45357 0.91413 0.83073 0.0
C1836 C 0.44875 0.92682 0.85516 0.0
C1837 C 0.46492 0.94461 0.86498 0.0
C1838 C 0.43552 0.92832 0.81769 0.0
C1839 C 0.44071 0.91791 0.90999 0.0
C1840 C 0.44098 0.9026 0.9155 0.0
C1841 C 0.43413 0.89201 0.96233 0.0
C1842 C 0.42665 0.89711 0.00439 0.0
C1843 C 0.42611 0.91268 -0.00062 0.0
C1844 C 0.43336 0.92324 0.95169 0.0
H1845 H 0.19245 0.43616 0.91966 0.0
H1846 H 0.19636 0.39686 0.82456 0.0
H1847 H 0.22042 0.40051 0.88555 0.0
H1848 H 0.23886 0.46368 0.9557 0.0
H1849 H 0.23404 0.46768 0.02561 0.0
H1850 H 0.21919 0.46412 0.96913 0.0
H1851 H 0.19432 0.43897 0.0246 0.0
H1852 H 0.20901 0.44266 0.08136 0.0
H1853 H 0.19717 0.42149 0.04994 0.0
H1854 H 0.24256 0.40703 0.96032 0.0
H1855 H 0.25721 0.41182 0.05178 0.0
H1856 H 0.23744 0.44544 0.10155 0.0
C1857 C 0.19862 0.42858 0.91118 0.0
C1858 C 0.19277 0.41637 0.86731 0.0
C1859 C 0.20074 0.40629 0.8581 0.0
C1860 C 0.21452 0.40843 0.89206 0.0
C1861 C 0.22 0.42059 0.93521 0.0
C1862 C 0.2121 0.43028 0.94541 0.0
C1863 C 0.21875 0.44066 0.99889 0.0
C1864 C 0.22828 0.46019 0.98657 0.0
C1865 C 0.20394 0.43563 0.04118 0.0
C1866 C 0.2312 0.43484 0.01824 0.0
C1867 C 0.23219 0.42373 0.97999 0.0
C1868 C 0.24205 0.41586 0.99029 0.0
C1869 C 0.25044 0.41876 0.0422 0.0
C1870 C 0.2485 0.42908 0.08342 0.0
C1871 C 0.23931 0.43771 0.07038 0.0
H1872 H 0.61111 0.77393 0.96055 0.0
H1873 H 0.5628 0.75453 0.86945 0.0
H1874 H 0.55116 0.76456 0.94519 0.0
H1875 H 0.59167 0.76191 0.09849 0.0
H1876 H 0.60874 0.7809 0.13202 0.0
H1877 H 0.61334 0.77217 0.07057 0.0
H1878 H 0.62582 0.80194 0.0207 0.0
H1879 H 0.62142 0.81069 0.08239 0.0
H1880 H 0.61276 0.8121 0.01562 0.0
H1881 H 0.54528 0.77809 0.02862 0.0
H1882 H 0.5455 0.79336 0.11572 0.0
H1883 H 0.59688 0.8023 0.1541 0.0
C1884 C 0.5981 0.7718 0.95665 0.0
C1885 C 0.58788 0.7635 0.90919 0.0
C1886 C 0.57085 0.76085 0.9056 0.0
C1887 C 0.56411 0.76649 0.94836 0.0
C1888 C 0.57448 0.77461 0.9947 0.0
C1889 C 0.59107 0.77717 -0.0007 0.0
C1890 C 0.59949 0.7862 0.05358 0.0
C1891 C 0.60354 0.7746 0.09086 0.0
C1892 C 0.61583 0.80377 0.04236 0.0
C1893 C 0.58513 0.78848 0.0783 0.0
C1894 C 0.57083 0.78178 0.04369 0.0
C1895 C 0.55632 0.7832 0.0565 0.0
C1896 C 0.55653 0.79185 0.10591 0.0
C1897 C 0.57107 0.79875 0.14184 0.0
C1898 C 0.58542 0.79684 0.12797 0.0
H1899 H 0.21428 0.80849 0.89554 0.0
H1900 H 0.21326 0.76317 0.82496 0.0
H1901 H 0.19625 0.74578 0.90646 0.0
H1902 H 0.22105 0.80075 0.03427 0.0
H1903 H 0.20783 0.80867 0.06463 0.0
H1904 H 0.21824 0.81694 0.99817 0.0
H1905 H 0.18858 0.80828 0.95268 0.0
H1906 H 0.17809 0.80011 0.0192 0.0
H1907 H 0.17107 0.78625 0.95847 0.0
H1908 H 0.18034 0.73377 0.99907 0.0
H1909 H 0.16757 0.72858 0.09451 0.0
H1910 H 0.18061 0.78236 0.10349 0.0
C1911 C 0.21021 0.79483 0.89664 0.0
C1912 C 0.21494 0.78712 0.85386 0.0
C1913 C 0.20965 0.76929 0.8573 0.0
C1914 C 0.2 0.75932 0.90335 0.0
C1915 C 0.19582 0.76744 0.94549 0.0
C1916 C 0.20076 0.7848 0.94236 0.0
C1917 C 0.19564 0.79078 0.99439 0.0
C1918 C 0.21165 0.80513 0.02463 0.0
C1919 C 0.18257 0.7967 0.98033 0.0
C1920 C 0.18729 0.77417 0.02776 0.0
C1921 C 0.18728 0.76075 0.99886 0.0
C1922 C 0.18026 0.74419 0.02201 0.0
C1923 C 0.17308 0.74136 0.07612 0.0
C1924 C 0.17326 0.75509 0.10637 0.0
C1925 C 0.18043 0.77163 0.08159 0.0
H1926 H 0.38832 0.14483 0.92848 0.0
H1927 H 0.37288 0.10911 0.78889 0.0
H1928 H 0.34646 0.0884 0.84053 0.0
H1929 H 0.36892 0.11234 0.04479 0.0
H1930 H 0.36185 0.12537 0.08151 0.0
H1931 H 0.38121 0.13562 0.03935 0.0
H1932 H 0.36874 0.15177 0.98327 0.0
H1933 H 0.34938 0.14161 0.02497 0.0
H1934 H 0.34793 0.13952 0.94975 0.0
H1935 H 0.32068 0.07315 0.90222 0.0
H1936 H 0.29581 0.06562 0.96405 0.0
H1937 H 0.32684 0.11242 0.06053 0.0
C1938 C 0.37965 0.13235 0.90986 0.0
C1939 C 0.3827 0.12824 0.85553 0.0
C1940 C 0.37078 0.11225 0.83095 0.0
C1941 C 0.35584 0.10043 0.86006 0.0
C1942 C 0.35296 0.10499 0.91323 0.0
C1943 C 0.36446 0.12065 0.93773 0.0
C1944 C 0.3571 0.12359 0.99115 0.0
C1945 C 0.36792 0.12427 0.04223 0.0
C1946 C 0.3557 0.14009 0.98698 0.0
C1947 C 0.33944 0.1074 0.99191 0.0
C1948 C 0.33754 0.09664 0.94748 0.0
C1949 C 0.32207 0.08137 0.93751 0.0
C1950 C 0.30801 0.0772 0.97292 0.0
C1951 C 0.30941 0.08844 0.01712 0.0
C1952 C 0.32546 0.10351 0.02745 0.0
H1953 H 0.90149 0.20166 0.01242 0.0
H1954 H 0.93567 0.1981 0.89053 0.0
H1955 H 0.92986 0.21581 0.82436 0.0
H1956 H 0.86995 0.1981 0.9192 0.0
H1957 H 0.86571 0.21364 0.95326 0.0
H1958 H 0.87375 0.20205 0.99336 0.0
H1959 H 0.89963 0.23105 0.0275 0.0
H1960 H 0.89159 0.24275 0.98778 0.0
H1961 H 0.91337 0.24704 0.97681 0.0
H1962 H 0.91692 0.23001 0.76633 0.0
H1963 H 0.90035 0.24286 0.7251 0.0
H1964 H 0.87678 0.2396 0.88678 0.0
C1965 C 0.90805 0.20497 0.97232 0.0
C1966 C 0.91905 0.19854 0.9567 0.0
C1967 C 0.92729 0.203 0.90363 0.0
C1968 C 0.92404 0.21301 0.86561 0.0
C1969 C 0.9128 0.2188 0.88165 0.0
C1970 C 0.90521 0.21526 0.93417 0.0
C1971 C 0.89326 0.22265 0.94025 0.0
C1972 C 0.87457 0.20825 0.9522 0.0
C1973 C 0.89987 0.23671 0.98578 0.0
C1974 C 0.89489 0.23036 0.88243 0.0
C1975 C 0.90615 0.22792 0.84909 0.0
C1976 C 0.90843 0.23242 0.7924 0.0
C1977 C 0.89896 0.23964 0.76927 0.0
C1978 C 0.88766 0.24253 0.80313 0.0
C1979 C 0.88577 0.23799 0.86045 0.0
H1980 H 0.76065 0.63436 0.87076 0.0
H1981 H 0.75039 0.65361 0.7171 0.0
H1982 H 0.75696 0.68079 0.76556 0.0
H1983 H 0.74509 0.65517 0.97124 0.0
H1984 H 0.76246 0.66017 0.01976 0.0
H1985 H 0.75433 0.64127 0.97573 0.0
H1986 H 0.78525 0.65201 0.93743 0.0
H1987 H 0.79345 0.67082 0.98154 0.0
H1988 H 0.79718 0.67334 0.90701 0.0
H1989 H 0.76654 0.70647 0.82878 0.0
H1990 H 0.78186 0.73004 0.89717 0.0
H1991 H 0.78763 0.69465 0.008 0.0
C1992 C 0.7594 0.64415 0.84775 0.0
C1993 C 0.75476 0.64187 0.79053 0.0
C1994 C 0.7538 0.65513 0.76112 0.0
C1995 C 0.75739 0.67052 0.7884 0.0
C1996 C 0.76208 0.67246 0.84486 0.0
C1997 C 0.76329 0.6597 0.87402 0.0
C1998 C 0.77066 0.66578 0.93217 0.0
C1999 C 0.75734 0.65495 0.9774 0.0
C2000 C 0.78764 0.66548 0.93995 0.0
C2001 C 0.77382 0.68412 0.93076 0.0
C2002 C 0.76837 0.68756 0.88057 0.0
C2003 C 0.77071 0.70388 0.8684 0.0
C2004 C 0.77937 0.71718 0.90766 0.0
C2005 C 0.78588 0.71416 0.95801 0.0
C2006 C 0.78261 0.69729 0.97023 0.0
H2007 H 0.12443 0.37279 0.60894 0.0
H2008 H 0.10149 0.35409 0.7724 0.0
H2009 H 0.07983 0.32619 0.7299 0.0
H2010 H 0.08473 0.34965 0.52257 0.0
H2011 H 0.09581 0.34488 0.46842 0.0
H2012 H 0.1074 0.36431 0.50967 0.0
H2013 H 0.1299 0.35532 0.53759 0.0
H2014 H 0.11847 0.33599 0.49621 0.0
H2015 H 0.12256 0.33443 0.56937 0.0
H2016 H 0.06205 0.2999 0.67069 0.0
H2017 H 0.05242 0.27576 0.60363 0.0
H2018 H 0.08876 0.31095 0.48046 0.0
C2019 C 0.11454 0.36295 0.63541 0.0
C2020 C 0.1143 0.36556 0.69359 0.0
C2021 C 0.10168 0.35227 0.72758 0.0
C2022 C 0.08929 0.33649 0.70374 0.0
C2023 C 0.08994 0.33422 0.6461 0.0
C2024 C 0.10242 0.34701 0.61254 0.0
C2025 C 0.10194 0.34053 0.55357 0.0
C2026 C 0.09718 0.35043 0.51105 0.0
C2027 C 0.11924 0.34163 0.53833 0.0
C2028 C 0.08751 0.32195 0.55946 0.0
C2029 C 0.08041 0.31872 0.61265 0.0
C2030 C 0.0674 0.3023 0.6288 0.0
C2031 C 0.06196 0.28869 0.59031 0.0
C2032 C 0.06983 0.29153 0.53686 0.0
C2033 C 0.08241 0.30847 0.52085 0.0
H2034 H 0.72702 0.80994 0.59213 0.0
H2035 H 0.70588 0.78513 0.4326 0.0
H2036 H 0.67873 0.76392 0.47996 0.0
H2037 H 0.70543 0.77113 0.68337 0.0
H2038 H 0.70142 0.78271 0.73778 0.0
H2039 H 0.72014 0.79396 0.69325 0.0
H2040 H 0.7105 0.81602 0.66623 0.0
H2041 H 0.69179 0.80488 0.71054 0.0
H2042 H 0.68917 0.80826 0.63755 0.0
H2043 H 0.65347 0.74692 0.54304 0.0
H2044 H 0.63058 0.7371 0.61448 0.0
H2045 H 0.66734 0.7745 0.73227 0.0
C2046 C 0.71683 0.79969 0.56759 0.0
C2047 C 0.71855 0.7988 0.50908 0.0
C2048 C 0.70478 0.78577 0.47763 0.0
C2049 C 0.6894 0.77368 0.50421 0.0
C2050 C 0.68798 0.77504 0.562 0.0
C2051 C 0.70126 0.78784 0.59324 0.0
C2052 C 0.69566 0.78789 0.65319 0.0
C2053 C 0.7063 0.78367 0.69432 0.0
C2054 C 0.69685 0.80529 0.66769 0.0
C2055 C 0.67705 0.77331 0.65058 0.0
C2056 C 0.67303 0.76584 0.59792 0.0
C2057 C 0.65649 0.75257 0.58451 0.0
C2058 C 0.64357 0.74708 0.62549 0.0
C2059 C 0.64719 0.75502 0.67901 0.0
C2060 C 0.66424 0.76808 0.69195 0.0
H2061 H 0.22276 0.90774 0.5306 0.0
H2062 H 0.19897 0.87251 0.39082 0.0
H2063 H 0.20544 0.85149 0.43594 0.0
H2064 H 0.25734 0.89659 0.55742 0.0
H2065 H 0.25601 0.8986 0.63216 0.0
H2066 H 0.2514 0.91168 0.58545 0.0
H2067 H 0.22151 0.90008 0.63296 0.0
H2068 H 0.22582 0.88667 0.67892 0.0
H2069 H 0.20672 0.87706 0.63555 0.0
H2070 H 0.21065 0.83281 0.50161 0.0
H2071 H 0.21806 0.81906 0.57814 0.0
H2072 H 0.23959 0.8667 0.67417 0.0
C2073 C 0.2194 0.89584 0.50867 0.0
C2074 C 0.21041 0.89177 0.45713 0.0
C2075 C 0.20598 0.87595 0.43012 0.0
C2076 C 0.20952 0.86389 0.45555 0.0
C2077 C 0.2177 0.86797 0.50756 0.0
C2078 C 0.22296 0.88371 0.5333 0.0
C2079 C 0.23086 0.88454 0.59027 0.0
C2080 C 0.25005 0.89869 0.59137 0.0
C2081 C 0.22061 0.88724 0.63717 0.0
C2082 C 0.22878 0.86663 0.59316 0.0
C2083 C 0.22109 0.85728 0.54507 0.0
C2084 C 0.2169 0.84008 0.53913 0.0
C2085 C 0.22097 0.83233 0.58308 0.0
C2086 C 0.22931 0.84183 0.63205 0.0
C2087 C 0.23325 0.85919 0.63709 0.0
H2088 H 0.68422 0.88512 0.01154 0.0
H2089 H 0.68567 0.93379 0.98226 0.0
H2090 H 0.65922 0.92364 0.04024 0.0
H2091 H 0.63712 0.85656 0.01834 0.0
H2092 H 0.63872 0.84403 0.07485 0.0
H2093 H 0.65595 0.85414 0.02434 0.0
H2094 H 0.67783 0.86966 0.10495 0.0
H2095 H 0.66066 0.85975 0.1556 0.0
H2096 H 0.67413 0.88298 0.15339 0.0
H2097 H 0.63269 0.90789 0.1038 0.0
H2098 H 0.61009 0.88907 0.17245 0.0
H2099 H 0.62902 0.85281 0.1675 0.0
C2100 C 0.67865 0.89342 0.01588 0.0
C2101 C 0.68662 0.91003 0.99144 0.0
C2102 C 0.67948 0.92088 -0.0 0.0
C2103 C 0.66452 0.91523 0.03283 0.0
C2104 C 0.65718 0.89887 0.05756 0.0
C2105 C 0.66413 0.8882 0.04974 0.0
C2106 C 0.65508 0.87205 0.08533 0.0
C2107 C 0.64619 0.85574 0.04849 0.0
C2108 C 0.66768 0.87107 0.12729 0.0
C2109 C 0.64197 0.87529 0.11473 0.0
C2110 C 0.64308 0.89062 0.09748 0.0
C2111 C 0.63181 0.89593 0.1179 0.0
C2112 C 0.61909 0.88525 0.15683 0.0
C2113 C 0.61816 0.86978 0.17582 0.0
C2114 C 0.62977 0.86482 0.15456 0.0
H2115 H 0.11989 0.75939 0.11958 0.0
H2116 H 0.11145 0.7733 0.28583 0.0
H2117 H 0.09381 0.785 0.24491 0.0
H2118 H 0.12674 0.79764 0.05545 0.0
H2119 H 0.11674 0.78758 0.9899 0.0
H2120 H 0.12647 0.77821 0.033 0.0
H2121 H 0.09753 0.74903 0.03401 0.0
H2122 H 0.08766 0.75835 0.991 0.0
H2123 H 0.07804 0.74851 0.0572 0.0
H2124 H 0.07815 0.79621 0.18487 0.0
H2125 H 0.06878 0.80919 0.11099 0.0
H2126 H 0.08954 0.7898 0.98401 0.0
C2127 C 0.114 0.76455 0.14746 0.0
C2128 C 0.11671 0.7652 0.20587 0.0
C2129 C 0.10934 0.77257 0.24098 0.0
C2130 C 0.09926 0.77915 0.21812 0.0
C2131 C 0.09693 0.77843 0.16012 0.0
C2132 C 0.10429 0.7715 0.12526 0.0
C2133 C 0.1015 0.77396 0.06413 0.0
C2134 C 0.11889 0.78501 0.03387 0.0
C2135 C 0.09052 0.75642 0.03487 0.0
C2136 C 0.09161 0.78357 0.06987 0.0
C2137 C 0.08876 0.78569 0.12553 0.0
C2138 C 0.08024 0.79455 0.14119 0.0
C2139 C 0.0749 0.80181 0.09893 0.0
C2140 C 0.0784 0.80043 0.04186 0.0
C2141 C 0.0866 0.79094 0.02729 0.0
H2142 H 0.212 0.36307 0.15077 0.0
H2143 H 0.25874 0.36532 0.21333 0.0
H2144 H 0.25129 0.33835 0.162 0.0
H2145 H 0.18448 0.31643 0.15478 0.0
H2146 H 0.1734 0.31575 0.09085 0.0
H2147 H 0.18215 0.33467 0.13484 0.0
H2148 H 0.19966 0.35368 0.05033 0.0
H2149 H 0.19116 0.33477 0.00632 0.0
H2150 H 0.21422 0.34865 0.01339 0.0
H2151 H 0.23834 0.3108 0.10447 0.0
H2152 H 0.22089 0.28492 0.04551 0.0
H2153 H 0.18384 0.30209 0.01609 0.0
C2154 C 0.22054 0.35775 0.15434 0.0
C2155 C 0.23585 0.36614 0.18647 0.0
C2156 C 0.24688 0.35899 0.1892 0.0
C2157 C 0.24278 0.34373 0.16009 0.0
C2158 C 0.22771 0.33592 0.12795 0.0
C2159 C 0.21677 0.3427 0.12493 0.0
C2160 C 0.20162 0.3321 0.08636 0.0
C2161 C 0.1844 0.32427 0.11864 0.0
C2162 C 0.20168 0.34295 0.03613 0.0
C2163 C 0.2057 0.31826 0.06829 0.0
C2164 C 0.22074 0.3206 0.09293 0.0
C2165 C 0.22663 0.30894 0.08451 0.0
C2166 C 0.2167 0.29433 0.05085 0.0
C2167 C 0.20121 0.29168 0.02556 0.0
C2168 C 0.19585 0.30398 0.03381 0.0
H2169 H 0.8607 0.64287 0.30308 0.0
H2170 H 0.89783 0.62526 0.31829 0.0
H2171 H 0.91564 0.64981 0.38221 0.0
H2172 H 0.89017 0.6888 0.30929 0.0
H2173 H 0.87593 0.69294 0.35172 0.0
H2174 H 0.86706 0.6748 0.30439 0.0
H2175 H 0.85049 0.65417 0.38693 0.0
H2176 H 0.85942 0.67224 0.4346 0.0
H2177 H 0.8623 0.65394 0.44792 0.0
H2178 H 0.93003 0.67757 0.44055 0.0
H2179 H 0.93815 0.70425 0.49558 0.0
H2180 H 0.88937 0.70064 0.45089 0.0
C2181 C 0.87273 0.64438 0.31928 0.0
C2182 C 0.87819 0.63254 0.3052 0.0
C2183 C 0.89364 0.63444 0.3284 0.0
C2184 C 0.90378 0.64829 0.3646 0.0
C2185 C 0.89796 0.65974 0.37812 0.0
C2186 C 0.88264 0.65774 0.35674 0.0
C2187 C 0.8786 0.67103 0.38041 0.0
C2188 C 0.87791 0.68258 0.33367 0.0
C2189 C 0.86171 0.66232 0.41449 0.0
C2190 C 0.89416 0.68102 0.41786 0.0
C2191 C 0.90535 0.67454 0.41547 0.0
C2192 C 0.9212 0.68255 0.44361 0.0
C2193 C 0.9257 0.69761 0.47473 0.0
C2194 C 0.91414 0.70407 0.47846 0.0
C2195 C 0.89816 0.69557 0.45011 0.0
H2196 H 0.27469 0.1927 0.43166 0.0
H2197 H 0.29439 0.20975 0.59964 0.0
H2198 H 0.32307 0.23068 0.56024 0.0
H2199 H 0.31196 0.19285 0.38229 0.0
H2200 H 0.31074 0.19977 0.31228 0.0
H2201 H 0.29133 0.18786 0.35308 0.0
H2202 H 0.28425 0.21247 0.33929 0.0
H2203 H 0.3037 0.22453 0.29853 0.0
H2204 H 0.29999 0.23429 0.35912 0.0
H2205 H 0.34957 0.24888 0.50304 0.0
H2206 H 0.37319 0.26076 0.43389 0.0
H2207 H 0.33684 0.23029 0.303 0.0
C2208 C 0.28498 0.20111 0.46 0.0
C2209 C 0.28237 0.19991 0.51858 0.0
C2210 C 0.29619 0.21064 0.55463 0.0
C2211 C 0.31244 0.22259 0.5326 0.0
C2212 C 0.31464 0.2234 0.47456 0.0
C2213 C 0.30136 0.21279 0.43877 0.0
C2214 C 0.30757 0.21496 0.37861 0.0
C2215 C 0.30526 0.19785 0.35522 0.0
C2216 C 0.29832 0.22199 0.34172 0.0
C2217 C 0.32651 0.22832 0.38618 0.0
C2218 C 0.3302 0.23326 0.44171 0.0
C2219 C 0.34684 0.24516 0.45945 0.0
C2220 C 0.36016 0.25187 0.41972 0.0
C2221 C 0.35686 0.24646 0.36298 0.0
C2222 C 0.33973 0.23475 0.34594 0.0
H2223 H 0.78718 0.09188 0.48135 0.0
H2224 H 0.8413 0.13201 0.48226 0.0
H2225 H 0.83373 0.15195 0.43489 0.0
H2226 H 0.77727 0.10065 0.34761 0.0
H2227 H 0.7559 0.09659 0.36515 0.0
H2228 H 0.76524 0.08585 0.40345 0.0
H2229 H 0.76075 0.09792 0.49681 0.0
H2230 H 0.75122 0.10857 0.45884 0.0
H2231 H 0.76943 0.12092 0.50447 0.0
H2232 H 0.82081 0.16652 0.38007 0.0
H2233 H 0.80297 0.17562 0.32682 0.0
H2234 H 0.75708 0.12637 0.36355 0.0
C2235 C 0.79738 0.10496 0.47248 0.0
C2236 C 0.81481 0.11043 0.48552 0.0
C2237 C 0.82784 0.12759 0.47282 0.0
C2238 C 0.82368 0.13899 0.44587 0.0
C2239 C 0.80643 0.13307 0.43242 0.0
C2240 C 0.79344 0.11654 0.44586 0.0
C2241 C 0.77601 0.11325 0.425 0.0
C2242 C 0.76815 0.0982 0.3828 0.0
C2243 C 0.76362 0.10998 0.47422 0.0
C2244 C 0.78129 0.13038 0.39669 0.0
C2245 C 0.7989 0.14162 0.4015 0.0
C2246 C 0.80698 0.15792 0.37656 0.0
C2247 C 0.79676 0.16292 0.34614 0.0
C2248 C 0.77868 0.15169 0.34122 0.0
C2249 C 0.77086 0.13525 0.36704 0.0
H2250 H 0.96725 0.43298 0.29089 0.0
H2251 H 0.98357 0.45703 0.45423 0.0
H2252 H 0.01397 0.47307 0.42105 0.0
H2253 H 0.00513 0.4294 0.25694 0.0
H2254 H 0.00513 0.435 0.18435 0.0
H2255 H 0.98507 0.42421 0.22277 0.0
H2256 H 0.97893 0.44889 0.19707 0.0
H2257 H 0.99897 0.45978 0.15874 0.0
H2258 H 0.99476 0.47095 0.214 0.0
H2259 H 0.04241 0.48649 0.36948 0.0
H2260 H 0.06652 0.49836 0.30155 0.0
H2261 H 0.03106 0.46743 0.16954 0.0
C2262 C 0.9773 0.44137 0.31995 0.0
C2263 C 0.97324 0.44358 0.37538 0.0
C2264 C 0.98655 0.45508 0.41178 0.0
C2265 C 0.00379 0.46418 0.39332 0.0
C2266 C 0.00736 0.46183 0.33812 0.0
C2267 C 0.99445 0.45085 0.30179 0.0
C2268 C 0.00144 0.45169 0.24335 0.0
C2269 C 0.99905 0.43403 0.22585 0.0
C2270 C 0.99303 0.45822 0.2008 0.0
C2271 C 0.02034 0.46486 0.25238 0.0
C2272 C 0.02353 0.47034 0.30754 0.0
C2273 C 0.04006 0.48232 0.3262 0.0
C2274 C 0.05366 0.48895 0.28737 0.0
C2275 C 0.05059 0.48383 0.23041 0.0
C2276 C 0.03372 0.47162 0.2128 0.0
H2277 H 0.53815 0.55027 0.1394 0.0
H2278 H 0.51882 0.56619 0.2808 0.0
H2279 H 0.52658 0.54936 0.34459 0.0
H2280 H 0.52494 0.50679 0.18831 0.0
H2281 H 0.54427 0.50728 0.16353 0.0
H2282 H 0.53629 0.51977 0.12819 0.0
H2283 H 0.566 0.54764 0.14193 0.0
H2284 H 0.57404 0.53519 0.17703 0.0
H2285 H 0.57498 0.55364 0.21144 0.0
H2286 H 0.53626 0.53073 0.39318 0.0
H2287 H 0.5498 0.51374 0.42423 0.0
H2288 H 0.5643 0.51128 0.25238 0.0
C2289 C 0.53551 0.55012 0.18375 0.0
C2290 C 0.52789 0.55948 0.20525 0.0
C2291 C 0.52477 0.55917 0.26356 0.0
C2292 C 0.52901 0.54956 0.30009 0.0
C2293 C 0.53654 0.54048 0.27773 0.0
C2294 C 0.53995 0.54081 0.22104 0.0
C2295 C 0.54904 0.53068 0.20842 0.0
C2296 C 0.53797 0.51521 0.16983 0.0
C2297 C 0.56708 0.5425 0.18323 0.0
C2298 C 0.55026 0.52472 0.26685 0.0
C2299 C 0.54273 0.53028 0.30611 0.0
C2300 C 0.54223 0.52632 0.36288 0.0
C2301 C 0.54988 0.51664 0.38011 0.0
C2302 C 0.55813 0.51131 0.34075 0.0
C2303 C 0.55815 0.51528 0.28341 0.0
H2304 H 0.41194 0.96398 0.2617 0.0
H2305 H 0.40922 0.9842 0.09928 0.0
H2306 H 0.42145 0.01357 0.1404 0.0
H2307 H 0.40442 0.99361 0.35168 0.0
H2308 H 0.42037 0.99562 0.40214 0.0
H2309 H 0.40836 0.97586 0.36273 0.0
H2310 H 0.43709 0.97844 0.32812 0.0
H2311 H 0.44916 0.99814 0.36731 0.0
H2312 H 0.45278 0.99795 0.29308 0.0
H2313 H 0.4359 0.04085 0.1977 0.0
H2314 H 0.45472 0.06446 0.26212 0.0
H2315 H 0.45054 0.02666 0.38501 0.0
C2316 C 0.41339 0.97452 0.23533 0.0
C2317 C 0.40924 0.97188 0.17777 0.0
C2318 C 0.41206 0.98602 0.1437 0.0
C2319 C 0.41893 0.00267 0.16678 0.0
C2320 C 0.42317 0.00493 0.22368 0.0
C2321 C 0.4207 0.99125 0.25733 0.0
C2322 C 0.42861 0.99743 0.31485 0.0
C2323 C 0.4146 0.9902 0.36055 0.0
C2324 C 0.44274 0.99272 0.32648 0.0
C2325 C 0.43624 0.01678 0.30805 0.0
C2326 C 0.43255 0.02079 0.2557 0.0
C2327 C 0.43875 0.03785 0.23892 0.0
C2328 C 0.4494 0.05118 0.27593 0.0
C2329 C 0.45405 0.04738 0.32864 0.0
C2330 C 0.44707 0.02994 0.34521 0.0
H2331 H 0.57737 0.03233 0.7628 0.0
H2332 H 0.57819 0.0126 0.92798 0.0
H2333 H 0.56669 0.98318 0.88833 0.0
H2334 H 0.53712 0.9982 0.72792 0.0
H2335 H 0.54161 0.99772 0.65451 0.0
H2336 H 0.5532 0.01758 0.69324 0.0
H2337 H 0.58232 0.02006 0.66383 0.0
H2338 H 0.57079 0.00013 0.62493 0.0
H2339 H 0.58614 0.00239 0.67811 0.0
H2340 H 0.55305 0.95585 0.83255 0.0
H2341 H 0.5347 0.93194 0.76855 0.0
H2342 H 0.54019 0.9691 0.64113 0.0
C2343 C 0.57565 0.02187 0.79009 0.0
C2344 C 0.57901 0.02462 0.84801 0.0
C2345 C 0.57589 0.01064 0.88331 0.0
C2346 C 0.56948 0.99397 0.86108 0.0
C2347 C 0.566 0.99156 0.80376 0.0
C2348 C 0.56876 0.00509 0.76884 0.0
C2349 C 0.56153 0.99868 0.71077 0.0
C2350 C 0.54753 0.00331 0.69578 0.0
C2351 C 0.57606 0.00573 0.66681 0.0
C2352 C 0.55385 0.97936 0.71885 0.0
C2353 C 0.55703 0.9756 0.77227 0.0
C2354 C 0.55061 0.95864 0.79048 0.0
C2355 C 0.54023 0.94514 0.75373 0.0
C2356 C 0.53606 0.94869 0.69988 0.0
C2357 C 0.5433 0.96603 0.68187 0.0
H2358 H 0.01244 0.56809 0.66025 0.0
H2359 H 0.01854 0.52657 0.59026 0.0
H2360 H 0.99036 0.50505 0.63119 0.0
H2361 H 0.99602 0.54867 0.7883 0.0
H2362 H 0.981 0.5565 0.79594 0.0
H2363 H 0.00033 0.56858 0.7549 0.0
H2364 H 0.98197 0.56743 0.66903 0.0
H2365 H 0.96256 0.55555 0.7101 0.0
H2366 H 0.96482 0.54679 0.64466 0.0
H2367 H 0.96278 0.48816 0.68769 0.0
H2368 H 0.93782 0.47736 0.75232 0.0
H2369 H 0.95045 0.53021 0.78608 0.0
C2370 C 0.00766 0.55449 0.65226 0.0
C2371 C 0.0176 0.54898 0.62175 0.0
C2372 C 0.01104 0.53105 0.61311 0.0
C2373 C 0.99508 0.51876 0.63628 0.0
C2374 C 0.98585 0.52464 0.66771 0.0
C2375 C 0.99186 0.54211 0.67522 0.0
C2376 C 0.98016 0.54513 0.71376 0.0
C2377 C 0.98997 0.55532 0.76632 0.0
C2378 C 0.97188 0.55426 0.68251 0.0
C2379 C 0.96685 0.52665 0.72804 0.0
C2380 C 0.97023 0.51499 0.7007 0.0
C2381 C 0.95996 0.49718 0.70894 0.0
C2382 C 0.94588 0.49118 0.74596 0.0
C2383 C 0.94227 0.50296 0.77441 0.0
C2384 C 0.95289 0.52089 0.76499 0.0
H2385 H 0.4318 0.46981 0.73549 0.0
H2386 H 0.43295 0.45278 0.56618 0.0
H2387 H 0.44777 0.43732 0.60067 0.0
H2388 H 0.47449 0.47823 0.77233 0.0
H2389 H 0.46892 0.47138 0.8441 0.0
H2390 H 0.45759 0.48025 0.80663 0.0
H2391 H 0.42837 0.45267 0.82847 0.0
H2392 H 0.43959 0.4437 0.86603 0.0
H2393 H 0.42527 0.43176 0.80915 0.0
H2394 H 0.46125 0.42292 0.65402 0.0
H2395 H 0.47501 0.41241 0.721 0.0
H2396 H 0.46774 0.44109 0.85477 0.0
C2397 C 0.43502 0.46265 0.70587 0.0
C2398 C 0.43103 0.46217 0.64835 0.0
C2399 C 0.43582 0.45313 0.61043 0.0
C2400 C 0.4442 0.44434 0.62966 0.0
C2401 C 0.44801 0.44509 0.68666 0.0
C2402 C 0.4438 0.45421 0.72413 0.0
C2403 C 0.45015 0.4537 0.7827 0.0
C2404 C 0.46359 0.47198 0.80259 0.0
C2405 C 0.43494 0.44493 0.82401 0.0
C2406 C 0.4584 0.44265 0.77252 0.0
C2407 C 0.45682 0.43769 0.7169 0.0
C2408 C 0.46272 0.42685 0.69751 0.0
C2409 C 0.47045 0.42091 0.73589 0.0
C2410 C 0.47249 0.42605 0.79283 0.0
C2411 C 0.46651 0.43717 0.8113 0.0
loop_
_geom_bond_atom_site_label_1
_geom_bond_atom_site_label_2
_geom_bond_distance
_geom_bond_site_symmetry_2
_ccdc_geom_bond_type
In0 O1 2.294 . S
In0 O2 2.326 . S
In0 O6 2.266 . S
In0 O7 2.326 . S
In0 O8 2.262 1_554 S
In0 O9 2.326 . S
In0 O11 2.294 . S
In0 O12 2.326 . S
O1 In0 2.294 . S
O1 C10 1.240 . S
O2 In0 2.326 . S
O2 C10 1.252 . S
C3 O6 1.252 . S
C3 O7 1.260 . S
C4 O11 1.240 . S
C4 O12 1.252 . S
C5 O8 1.253 . S
C5 O9 1.260 1_556 S
O6 In0 2.266 . S
O6 C3 1.252 . S
O7 In0 2.326 . S
O7 C3 1.260 . S
O8 In0 2.262 1_556 S
O8 C5 1.253 . S
O9 In0 2.326 . S
O9 C5 1.260 1_554 S
C10 O1 1.240 . S
C10 O2 1.252 . S
O11 In0 2.294 . S
O11 C4 1.240 . S
O12 In0 2.326 . S
O12 C4 1.252 . S
In13 O14 2.294 . S
In13 O15 2.326 . S
In13 O19 2.266 . S
In13 O20 2.326 . S
In13 O21 2.265 1_554 S
In13 O22 2.326 . S
In13 O24 2.294 . S
In13 O25 2.326 . S
O14 In13 2.294 . S
O14 C23 1.240 . S
O15 In13 2.326 . S
O15 C23 1.252 . S
C16 O19 1.252 . S
C16 O20 1.260 . S
C17 O24 1.240 . S
C17 O25 1.252 . S
C18 O21 1.252 . S
C18 O22 1.260 1_556 S
O19 In13 2.266 . S
O19 C16 1.252 . S
O20 In13 2.326 . S
O20 C16 1.260 . S
O21 In13 2.265 1_556 S
O21 C18 1.252 . S
O22 In13 2.326 . S
O22 C18 1.260 1_554 S
C23 O14 1.240 . S
C23 O15 1.252 . S
O24 In13 2.294 . S
O24 C17 1.240 . S
O25 In13 2.326 . S
O25 C17 1.252 . S
In26 O27 2.294 . S
In26 O28 2.326 . S
In26 O32 2.262 1_554 S
In26 O33 2.326 . S
In26 O34 2.266 . S
In26 O35 2.326 . S
In26 O37 2.294 . S
In26 O38 2.326 . S
O27 In26 2.294 . S
O27 C36 1.240 . S
O28 In26 2.326 . S
O28 C36 1.252 . S
C29 O32 1.253 . S
C29 O33 1.260 1_556 S
C30 O37 1.240 . S
C30 O38 1.252 . S
C31 O34 1.252 . S
C31 O35 1.260 . S
O32 In26 2.262 1_556 S
O32 C29 1.253 . S
O33 In26 2.326 . S
O33 C29 1.260 1_554 S
O34 In26 2.266 . S
O34 C31 1.252 . S
O35 In26 2.326 . S
O35 C31 1.260 . S
C36 O27 1.240 . S
C36 O28 1.252 . S
O37 In26 2.294 . S
O37 C30 1.240 . S
O38 In26 2.326 . S
O38 C30 1.252 . S
In39 O40 2.294 . S
In39 O41 2.326 . S
In39 O45 2.266 . S
In39 O46 2.326 . S
In39 O47 2.266 . S
In39 O48 2.326 . S
In39 O50 2.294 . S
In39 O51 2.326 . S
O40 In39 2.294 . S
O40 C49 1.240 . S
O41 In39 2.326 . S
O41 C49 1.252 . S
C42 O45 1.252 . S
C42 O46 1.260 . S
C43 O50 1.240 . S
C43 O51 1.252 . S
C44 O47 1.252 . S
C44 O48 1.260 . S
O45 In39 2.266 . S
O45 C42 1.252 . S
O46 In39 2.326 . S
O46 C42 1.260 . S
O47 In39 2.266 . S
O47 C44 1.252 . S
O48 In39 2.326 . S
O48 C44 1.260 . S
C49 O40 1.240 . S
C49 O41 1.252 . S
O50 In39 2.294 . S
O50 C43 1.240 . S
O51 In39 2.326 . S
O51 C43 1.252 . S
In52 O53 2.294 . S
In52 O54 2.326 . S
In52 O58 2.266 . S
In52 O59 2.326 . S
In52 O60 2.266 . S
In52 O61 2.326 . S
In52 O63 2.294 . S
In52 O64 2.326 . S
O53 In52 2.294 . S
O53 C62 1.240 . S
O54 In52 2.326 . S
O54 C62 1.252 . S
C55 O58 1.252 . S
C55 O59 1.260 . S
C56 O63 1.240 . S
C56 O64 1.252 . S
C57 O60 1.252 . S
C57 O61 1.260 . S
O58 In52 2.266 . S
O58 C55 1.252 . S
O59 In52 2.326 . S
O59 C55 1.260 . S
O60 In52 2.266 . S
O60 C57 1.252 . S
O61 In52 2.326 . S
O61 C57 1.260 . S
C62 O53 1.240 . S
C62 O54 1.252 . S
O63 In52 2.294 . S
O63 C56 1.240 . S
O64 In52 2.326 . S
O64 C56 1.252 . S
In65 O66 2.294 . S
In65 O67 2.326 . S
In65 O71 2.266 . S
In65 O72 2.326 . S
In65 O73 2.266 . S
In65 O74 2.326 . S
In65 O76 2.294 . S
In65 O77 2.326 . S
O66 In65 2.294 . S
O66 C75 1.240 . S
O67 In65 2.326 . S
O67 C75 1.252 . S
C68 O71 1.252 . S
C68 O72 1.260 . S
C69 O76 1.240 . S
C69 O77 1.252 . S
C70 O73 1.252 . S
C70 O74 1.260 . S
O71 In65 2.266 . S
O71 C68 1.252 . S
O72 In65 2.326 . S
O72 C68 1.260 . S
O73 In65 2.266 . S
O73 C70 1.252 . S
O74 In65 2.326 . S
O74 C70 1.260 . S
C75 O66 1.240 . S
C75 O67 1.252 . S
O76 In65 2.294 . S
O76 C69 1.240 . S
O77 In65 2.326 . S
O77 C69 1.252 . S
In78 O79 2.294 . S
In78 O80 2.326 . S
In78 O84 2.266 . S
In78 O85 2.326 . S
In78 O86 2.262 1_556 S
In78 O87 2.326 . S
In78 O89 2.294 . S
In78 O90 2.326 . S
O79 In78 2.294 . S
O79 C88 1.240 . S
O80 In78 2.326 . S
O80 C88 1.252 . S
C81 O84 1.252 . S
C81 O85 1.260 . S
C82 O89 1.240 . S
C82 O90 1.252 . S
C83 O86 1.253 . S
C83 O87 1.260 1_554 S
O84 In78 2.266 . S
O84 C81 1.252 . S
O85 In78 2.326 . S
O85 C81 1.260 . S
O86 In78 2.262 1_554 S
O86 C83 1.253 . S
O87 In78 2.326 . S
O87 C83 1.260 1_556 S
C88 O79 1.240 . S
C88 O80 1.252 . S
O89 In78 2.294 . S
O89 C82 1.240 . S
O90 In78 2.326 . S
O90 C82 1.252 . S
In91 O92 2.294 . S
In91 O93 2.326 . S
In91 O97 2.266 . S
In91 O98 2.326 . S
In91 O99 2.265 1_556 S
In91 O100 2.326 . S
In91 O102 2.294 . S
In91 O103 2.326 . S
O92 In91 2.294 . S
O92 C101 1.240 . S
O93 In91 2.326 . S
O93 C101 1.252 . S
C94 O97 1.252 . S
C94 O98 1.260 . S
C95 O102 1.240 . S
C95 O103 1.252 . S
C96 O99 1.252 . S
C96 O100 1.260 1_554 S
O97 In91 2.266 . S
O97 C94 1.252 . S
O98 In91 2.326 . S
O98 C94 1.260 . S
O99 In91 2.265 1_554 S
O99 C96 1.252 . S
O100 In91 2.326 . S
O100 C96 1.260 1_556 S
C101 O92 1.240 . S
C101 O93 1.252 . S
O102 In91 2.294 . S
O102 C95 1.240 . S
O103 In91 2.326 . S
O103 C95 1.252 . S
In104 O105 2.294 . S
In104 O106 2.326 . S
In104 O110 2.262 1_556 S
In104 O111 2.326 . S
In104 O112 2.266 . S
In104 O113 2.326 . S
In104 O115 2.294 . S
In104 O116 2.326 . S
O105 In104 2.294 . S
O105 C114 1.240 . S
O106 In104 2.326 . S
O106 C114 1.252 . S
C107 O110 1.253 . S
C107 O111 1.260 1_554 S
C108 O115 1.240 . S
C108 O116 1.252 . S
C109 O112 1.252 . S
C109 O113 1.260 . S
O110 In104 2.262 1_554 S
O110 C107 1.253 . S
O111 In104 2.326 . S
O111 C107 1.260 1_556 S
O112 In104 2.266 . S
O112 C109 1.252 . S
O113 In104 2.326 . S
O113 C109 1.260 . S
C114 O105 1.240 . S
C114 O106 1.252 . S
O115 In104 2.294 . S
O115 C108 1.240 . S
O116 In104 2.326 . S
O116 C108 1.252 . S
In117 O118 2.294 . S
In117 O119 2.326 . S
In117 O123 2.266 . S
In117 O124 2.326 . S
In117 O125 2.266 . S
In117 O126 2.326 . S
In117 O128 2.294 . S
In117 O129 2.326 . S
O118 In117 2.294 . S
O118 C127 1.240 . S
O119 In117 2.326 . S
O119 C127 1.252 . S
C120 O123 1.252 . S
C120 O124 1.260 . S
C121 O128 1.240 . S
C121 O129 1.252 . S
C122 O125 1.252 . S
C122 O126 1.260 . S
O123 In117 2.266 . S
O123 C120 1.252 . S
O124 In117 2.326 . S
O124 C120 1.260 . S
O125 In117 2.266 . S
O125 C122 1.252 . S
O126 In117 2.326 . S
O126 C122 1.260 . S
C127 O118 1.240 . S
C127 O119 1.252 . S
O128 In117 2.294 . S
O128 C121 1.240 . S
O129 In117 2.326 . S
O129 C121 1.252 . S
In130 O131 2.294 . S
In130 O132 2.326 . S
In130 O136 2.266 . S
In130 O137 2.326 . S
In130 O138 2.266 . S
In130 O139 2.326 . S
In130 O141 2.294 . S
In130 O142 2.326 . S
O131 In130 2.294 . S
O131 C140 1.240 . S
O132 In130 2.326 . S
O132 C140 1.252 . S
C133 O136 1.252 . S
C133 O137 1.260 . S
C134 O141 1.240 . S
C134 O142 1.252 . S
C135 O138 1.252 . S
C135 O139 1.260 . S
O136 In130 2.266 . S
O136 C133 1.252 . S
O137 In130 2.326 . S
O137 C133 1.260 . S
O138 In130 2.266 . S
O138 C135 1.252 . S
O139 In130 2.326 . S
O139 C135 1.260 . S
C140 O131 1.240 . S
C140 O132 1.252 . S
O141 In130 2.294 . S
O141 C134 1.240 . S
O142 In130 2.326 . S
O142 C134 1.252 . S
In143 O144 2.294 . S
In143 O145 2.326 . S
In143 O149 2.266 . S
In143 O150 2.326 . S
In143 O151 2.266 . S
In143 O152 2.326 . S
In143 O154 2.294 . S
In143 O155 2.326 . S
O144 In143 2.294 . S
O144 C153 1.240 . S
O145 In143 2.326 . S
O145 C153 1.252 . S
C146 O149 1.252 . S
C146 O150 1.260 . S
C147 O154 1.240 . S
C147 O155 1.252 . S
C148 O151 1.252 . S
C148 O152 1.260 . S
O149 In143 2.266 . S
O149 C146 1.252 . S
O150 In143 2.326 . S
O150 C146 1.260 . S
O151 In143 2.266 . S
O151 C148 1.252 . S
O152 In143 2.326 . S
O152 C148 1.260 . S
C153 O144 1.240 . S
C153 O145 1.252 . S
O154 In143 2.294 . S
O154 C147 1.240 . S
O155 In143 2.326 . S
O155 C147 1.252 . S
In156 O157 2.294 . S
In156 O158 2.326 . S
In156 O162 2.266 . S
In156 O163 2.326 . S
In156 O164 2.266 . S
In156 O165 2.326 . S
In156 O167 2.294 . S
In156 O168 2.326 . S
O157 In156 2.294 . S
O157 C166 1.240 . S
O158 In156 2.326 . S
O158 C166 1.252 . S
C159 O162 1.252 . S
C159 O163 1.260 . S
C160 O167 1.240 . S
C160 O168 1.252 . S
C161 O164 1.252 . S
C161 O165 1.260 . S
O162 In156 2.266 . S
O162 C159 1.252 . S
O163 In156 2.326 . S
O163 C159 1.260 . S
O164 In156 2.266 . S
O164 C161 1.252 . S
O165 In156 2.326 . S
O165 C161 1.260 . S
C166 O157 1.240 . S
C166 O158 1.252 . S
O167 In156 2.294 . S
O167 C160 1.240 . S
O168 In156 2.326 . S
O168 C160 1.252 . S
In169 O170 2.294 . S
In169 O171 2.326 . S
In169 O175 2.266 . S
In169 O176 2.326 . S
In169 O177 2.266 . S
In169 O178 2.326 . S
In169 O180 2.294 . S
In169 O181 2.326 . S
O170 In169 2.294 . S
O170 C179 1.240 . S
O171 In169 2.326 . S
O171 C179 1.252 . S
C172 O175 1.252 . S
C172 O176 1.260 . S
C173 O180 1.240 . S
C173 O181 1.252 . S
C174 O177 1.252 . S
C174 O178 1.260 . S
O175 In169 2.266 . S
O175 C172 1.252 . S
O176 In169 2.326 . S
O176 C172 1.260 . S
O177 In169 2.266 . S
O177 C174 1.252 . S
O178 In169 2.326 . S
O178 C174 1.260 . S
C179 O170 1.240 . S
C179 O171 1.252 . S
O180 In169 2.294 . S
O180 C173 1.240 . S
O181 In169 2.326 . S
O181 C173 1.252 . S
In182 O183 2.294 . S
In182 O184 2.326 . S
In182 O188 2.266 . S
In182 O189 2.326 . S
In182 O190 2.266 . S
In182 O191 2.326 . S
In182 O193 2.294 . S
In182 O194 2.326 . S
O183 In182 2.294 . S
O183 C192 1.240 . S
O184 In182 2.326 . S
O184 C192 1.252 . S
C185 O188 1.252 . S
C185 O189 1.260 . S
C186 O193 1.240 . S
C186 O194 1.252 . S
C187 O190 1.252 . S
C187 O191 1.260 . S
O188 In182 2.266 . S
O188 C185 1.252 . S
O189 In182 2.326 . S
O189 C185 1.260 . S
O190 In182 2.266 . S
O190 C187 1.252 . S
O191 In182 2.326 . S
O191 C187 1.260 . S
C192 O183 1.240 . S
C192 O184 1.252 . S
O193 In182 2.294 . S
O193 C186 1.240 . S
O194 In182 2.326 . S
O194 C186 1.252 . S
In195 O196 2.294 . S
In195 O197 2.326 . S
In195 O201 2.266 . S
In195 O202 2.326 . S
In195 O203 2.266 . S
In195 O204 2.326 . S
In195 O206 2.294 . S
In195 O207 2.326 . S
O196 In195 2.294 . S
O196 C205 1.240 . S
O197 In195 2.326 . S
O197 C205 1.252 . S
C198 O201 1.252 . S
C198 O202 1.260 . S
C199 O206 1.240 . S
C199 O207 1.252 . S
C200 O203 1.252 . S
C200 O204 1.260 . S
O201 In195 2.266 . S
O201 C198 1.252 . S
O202 In195 2.326 . S
O202 C198 1.260 . S
O203 In195 2.266 . S
O203 C200 1.252 . S
O204 In195 2.326 . S
O204 C200 1.260 . S
C205 O196 1.240 . S
C205 O197 1.252 . S
O206 In195 2.294 . S
O206 C199 1.240 . S
O207 In195 2.326 . S
O207 C199 1.252 . S
In208 O209 2.294 . S
In208 O210 2.326 . S
In208 O214 2.266 . S
In208 O215 2.326 . S
In208 O216 2.266 . S
In208 O217 2.326 . S
In208 O219 2.294 . S
In208 O220 2.326 . S
O209 In208 2.294 . S
O209 C218 1.240 . S
O210 In208 2.326 . S
O210 C218 1.252 . S
C211 O214 1.252 . S
C211 O215 1.260 . S
C212 O219 1.240 . S
C212 O220 1.252 . S
C213 O216 1.252 . S
C213 O217 1.260 . S
O214 In208 2.266 . S
O214 C211 1.252 . S
O215 In208 2.326 . S
O215 C211 1.260 . S
O216 In208 2.266 . S
O216 C213 1.252 . S
O217 In208 2.326 . S
O217 C213 1.260 . S
C218 O209 1.240 . S
C218 O210 1.252 . S
O219 In208 2.294 . S
O219 C212 1.240 . S
O220 In208 2.326 . S
O220 C212 1.252 . S
In221 O222 2.294 . S
In221 O223 2.326 . S
In221 O227 2.266 . S
In221 O228 2.326 . S
In221 O229 2.266 . S
In221 O230 2.326 . S
In221 O232 2.294 . S
In221 O233 2.326 . S
O222 In221 2.294 . S
O222 C231 1.240 . S
O223 In221 2.326 . S
O223 C231 1.252 . S
C224 O227 1.252 . S
C224 O228 1.260 . S
C225 O232 1.240 . S
C225 O233 1.252 . S
C226 O229 1.252 . S
C226 O230 1.260 . S
O227 In221 2.266 . S
O227 C224 1.252 . S
O228 In221 2.326 . S
O228 C224 1.260 . S
O229 In221 2.266 . S
O229 C226 1.252 . S
O230 In221 2.326 . S
O230 C226 1.260 . S
C231 O222 1.240 . S
C231 O223 1.252 . S
O232 In221 2.294 . S
O232 C225 1.240 . S
O233 In221 2.326 . S
O233 C225 1.252 . S
In234 O235 2.294 . S
In234 O236 2.326 . S
In234 O240 2.266 . S
In234 O241 2.326 . S
In234 O242 2.266 . S
In234 O243 2.326 . S
In234 O245 2.294 . S
In234 O246 2.326 . S
O235 In234 2.294 . S
O235 C244 1.240 . S
O236 In234 2.326 . S
O236 C244 1.252 . S
C237 O240 1.252 . S
C237 O241 1.260 . S
C238 O245 1.240 . S
C238 O246 1.252 . S
C239 O242 1.252 . S
C239 O243 1.260 . S
O240 In234 2.266 . S
O240 C237 1.252 . S
O241 In234 2.326 . S
O241 C237 1.260 . S
O242 In234 2.266 . S
O242 C239 1.252 . S
O243 In234 2.326 . S
O243 C239 1.260 . S
C244 O235 1.240 . S
C244 O236 1.252 . S
O245 In234 2.294 . S
O245 C238 1.240 . S
O246 In234 2.326 . S
O246 C238 1.252 . S
In247 O248 2.294 . S
In247 O249 2.326 . S
In247 O253 2.266 . S
In247 O254 2.326 . S
In247 O255 2.266 . S
In247 O256 2.326 . S
In247 O258 2.294 . S
In247 O259 2.326 . S
O248 In247 2.294 . S
O248 C257 1.240 . S
O249 In247 2.326 . S
O249 C257 1.252 . S
C250 O253 1.252 . S
C250 O254 1.260 . S
C251 O258 1.240 . S
C251 O259 1.252 . S
C252 O255 1.252 . S
C252 O256 1.260 . S
O253 In247 2.266 . S
O253 C250 1.252 . S
O254 In247 2.326 . S
O254 C250 1.260 . S
O255 In247 2.266 . S
O255 C252 1.252 . S
O256 In247 2.326 . S
O256 C252 1.260 . S
C257 O248 1.240 . S
C257 O249 1.252 . S
O258 In247 2.294 . S
O258 C251 1.240 . S
O259 In247 2.326 . S
O259 C251 1.252 . S
In260 O261 2.294 . S
In260 O262 2.326 . S
In260 O266 2.266 . S
In260 O267 2.326 . S
In260 O268 2.266 . S
In260 O269 2.326 . S
In260 O271 2.294 . S
In260 O272 2.326 . S
O261 In260 2.294 . S
O261 C270 1.240 . S
O262 In260 2.326 . S
O262 C270 1.252 . S
C263 O266 1.252 . S
C263 O267 1.260 . S
C264 O271 1.240 . S
C264 O272 1.252 . S
C265 O268 1.252 . S
C265 O269 1.260 . S
O266 In260 2.266 . S
O266 C263 1.252 . S
O267 In260 2.326 . S
O267 C263 1.260 . S
O268 In260 2.266 . S
O268 C265 1.252 . S
O269 In260 2.326 . S
O269 C265 1.260 . S
C270 O261 1.240 . S
C270 O262 1.252 . S
O271 In260 2.294 . S
O271 C264 1.240 . S
O272 In260 2.326 . S
O272 C264 1.252 . S
In273 O274 2.294 . S
In273 O275 2.326 . S
In273 O279 2.266 . S
In273 O280 2.326 . S
In273 O281 2.266 . S
In273 O282 2.326 . S
In273 O284 2.294 . S
In273 O285 2.326 . S
O274 In273 2.294 . S
O274 C283 1.240 1_556 S
O275 In273 2.326 . S
O275 C283 1.252 1_556 S
C276 O279 1.252 . S
C276 O280 1.260 . S
C277 O284 1.240 . S
C277 O285 1.252 . S
C278 O281 1.252 . S
C278 O282 1.260 . S
O279 In273 2.266 . S
O279 C276 1.252 . S
O280 In273 2.326 . S
O280 C276 1.260 . S
O281 In273 2.266 . S
O281 C278 1.252 . S
O282 In273 2.326 . S
O282 C278 1.260 . S
C283 O274 1.240 1_554 S
C283 O275 1.252 1_554 S
O284 In273 2.294 . S
O284 C277 1.240 . S
O285 In273 2.326 . S
O285 C277 1.252 . S
In286 O287 2.294 . S
In286 O288 2.326 . S
In286 O292 2.266 . S
In286 O293 2.326 . S
In286 O294 2.266 . S
In286 O295 2.326 . S
In286 O297 2.294 . S
In286 O298 2.326 . S
O287 In286 2.294 . S
O287 C296 1.240 1_556 S
O288 In286 2.326 . S
O288 C296 1.252 1_556 S
C289 O292 1.252 . S
C289 O293 1.260 . S
C290 O297 1.240 . S
C290 O298 1.252 . S
C291 O294 1.252 . S
C291 O295 1.260 . S
O292 In286 2.266 . S
O292 C289 1.252 . S
O293 In286 2.326 . S
O293 C289 1.260 . S
O294 In286 2.266 . S
O294 C291 1.252 . S
O295 In286 2.326 . S
O295 C291 1.260 . S
C296 O287 1.240 1_554 S
C296 O288 1.252 1_554 S
O297 In286 2.294 . S
O297 C290 1.240 . S
O298 In286 2.326 . S
O298 C290 1.252 . S
In299 O300 2.294 . S
In299 O301 2.326 . S
In299 O305 2.266 . S
In299 O306 2.326 . S
In299 O307 2.266 . S
In299 O308 2.326 . S
In299 O310 2.294 . S
In299 O311 2.326 . S
O300 In299 2.294 . S
O300 C309 1.240 . S
O301 In299 2.326 . S
O301 C309 1.252 . S
C302 O305 1.252 . S
C302 O306 1.260 . S
C303 O310 1.240 1_554 S
C303 O311 1.252 1_554 S
C304 O307 1.252 . S
C304 O308 1.260 . S
O305 In299 2.266 . S
O305 C302 1.252 . S
O306 In299 2.326 . S
O306 C302 1.260 . S
O307 In299 2.266 . S
O307 C304 1.252 . S
O308 In299 2.326 . S
O308 C304 1.260 . S
C309 O300 1.240 . S
C309 O301 1.252 . S
O310 In299 2.294 . S
O310 C303 1.240 1_556 S
O311 In299 2.326 . S
O311 C303 1.252 1_556 S
In312 O313 2.294 . S
In312 O314 2.326 . S
In312 O318 2.266 . S
In312 O319 2.326 . S
In312 O320 2.266 . S
In312 O321 2.326 . S
In312 O323 2.294 . S
In312 O324 2.326 . S
O313 In312 2.294 . S
O313 C322 1.240 . S
O314 In312 2.326 . S
O314 C322 1.252 . S
C315 O318 1.252 . S
C315 O319 1.260 . S
C316 O323 1.240 . S
C316 O324 1.252 . S
C317 O320 1.252 . S
C317 O321 1.260 . S
O318 In312 2.266 . S
O318 C315 1.252 . S
O319 In312 2.326 . S
O319 C315 1.260 . S
O320 In312 2.266 . S
O320 C317 1.252 . S
O321 In312 2.326 . S
O321 C317 1.260 . S
C322 O313 1.240 . S
C322 O314 1.252 . S
O323 In312 2.294 . S
O323 C316 1.240 . S
O324 In312 2.326 . S
O324 C316 1.252 . S
In325 O326 2.294 . S
In325 O327 2.326 . S
In325 O331 2.266 . S
In325 O332 2.326 . S
In325 O333 2.266 . S
In325 O334 2.326 . S
In325 O336 2.294 . S
In325 O337 2.326 . S
O326 In325 2.294 . S
O326 C335 1.240 . S
O327 In325 2.326 . S
O327 C335 1.252 . S
C328 O331 1.252 . S
C328 O332 1.260 . S
C329 O336 1.240 . S
C329 O337 1.252 . S
C330 O333 1.252 . S
C330 O334 1.260 . S
O331 In325 2.266 . S
O331 C328 1.252 . S
O332 In325 2.326 . S
O332 C328 1.260 . S
O333 In325 2.266 . S
O333 C330 1.252 . S
O334 In325 2.326 . S
O334 C330 1.260 . S
C335 O326 1.240 . S
C335 O327 1.252 . S
O336 In325 2.294 . S
O336 C329 1.240 . S
O337 In325 2.326 . S
O337 C329 1.252 . S
In338 O339 2.294 . S
In338 O340 2.326 . S
In338 O344 2.266 . S
In338 O345 2.326 . S
In338 O346 2.266 . S
In338 O347 2.326 . S
In338 O349 2.294 . S
In338 O350 2.326 . S
O339 In338 2.294 . S
O339 C348 1.240 . S
O340 In338 2.326 . S
O340 C348 1.252 . S
C341 O344 1.252 . S
C341 O345 1.260 . S
C342 O349 1.240 . S
C342 O350 1.252 . S
C343 O346 1.252 . S
C343 O347 1.260 . S
O344 In338 2.266 . S
O344 C341 1.252 . S
O345 In338 2.326 . S
O345 C341 1.260 . S
O346 In338 2.266 . S
O346 C343 1.252 . S
O347 In338 2.326 . S
O347 C343 1.260 . S
C348 O339 1.240 . S
C348 O340 1.252 . S
O349 In338 2.294 . S
O349 C342 1.240 . S
O350 In338 2.326 . S
O350 C342 1.252 . S
In351 O352 2.294 . S
In351 O353 2.326 . S
In351 O357 2.266 . S
In351 O358 2.326 . S
In351 O359 2.266 . S
In351 O360 2.326 . S
In351 O362 2.294 . S
In351 O363 2.326 . S
O352 In351 2.294 . S
O352 C361 1.240 . S
O353 In351 2.326 . S
O353 C361 1.252 . S
C354 O357 1.252 . S
C354 O358 1.260 . S
C355 O362 1.240 1_556 S
C355 O363 1.252 1_556 S
C356 O359 1.252 . S
C356 O360 1.260 . S
O357 In351 2.266 . S
O357 C354 1.252 . S
O358 In351 2.326 . S
O358 C354 1.260 . S
O359 In351 2.266 . S
O359 C356 1.252 . S
O360 In351 2.326 . S
O360 C356 1.260 . S
C361 O352 1.240 . S
C361 O353 1.252 . S
O362 In351 2.294 . S
O362 C355 1.240 1_554 S
O363 In351 2.326 . S
O363 C355 1.252 1_554 S
In364 O365 2.294 . S
In364 O366 2.326 . S
In364 O370 2.266 . S
In364 O371 2.326 . S
In364 O372 2.266 . S
In364 O373 2.326 . S
In364 O375 2.294 . S
In364 O376 2.326 . S
O365 In364 2.294 . S
O365 C374 1.240 . S
O366 In364 2.326 . S
O366 C374 1.252 . S
C367 O370 1.252 . S
C367 O371 1.260 . S
C368 O375 1.240 1_556 S
C368 O376 1.252 1_556 S
C369 O372 1.252 . S
C369 O373 1.260 . S
O370 In364 2.266 . S
O370 C367 1.252 . S
O371 In364 2.326 . S
O371 C367 1.260 . S
O372 In364 2.266 . S
O372 C369 1.252 . S
O373 In364 2.326 . S
O373 C369 1.260 . S
C374 O365 1.240 . S
C374 O366 1.252 . S
O375 In364 2.294 . S
O375 C368 1.240 1_554 S
O376 In364 2.326 . S
O376 C368 1.252 1_554 S
In377 O378 2.294 . S
In377 O379 2.326 . S
In377 O383 2.266 . S
In377 O384 2.326 . S
In377 O385 2.266 . S
In377 O386 2.326 . S
In377 O388 2.294 . S
In377 O389 2.326 . S
O378 In377 2.294 . S
O378 C387 1.240 . S
O379 In377 2.326 . S
O379 C387 1.252 . S
C380 O383 1.252 . S
C380 O384 1.260 . S
C381 O388 1.240 1_556 S
C381 O389 1.252 1_556 S
C382 O385 1.252 . S
C382 O386 1.260 . S
O383 In377 2.266 . S
O383 C380 1.252 . S
O384 In377 2.326 . S
O384 C380 1.260 . S
O385 In377 2.266 . S
O385 C382 1.252 . S
O386 In377 2.326 . S
O386 C382 1.260 . S
C387 O378 1.240 . S
C387 O379 1.252 . S
O388 In377 2.294 . S
O388 C381 1.240 1_554 S
O389 In377 2.326 . S
O389 C381 1.252 1_554 S
In390 O391 2.294 . S
In390 O392 2.326 . S
In390 O396 2.266 . S
In390 O397 2.326 . S
In390 O398 2.266 . S
In390 O399 2.326 . S
In390 O401 2.294 . S
In390 O402 2.326 . S
O391 In390 2.294 . S
O391 C400 1.240 . S
O392 In390 2.326 . S
O392 C400 1.252 . S
C393 O396 1.252 . S
C393 O397 1.260 . S
C394 O401 1.240 . S
C394 O402 1.252 . S
C395 O398 1.252 . S
C395 O399 1.260 . S
O396 In390 2.266 . S
O396 C393 1.252 . S
O397 In390 2.326 . S
O397 C393 1.260 . S
O398 In390 2.266 . S
O398 C395 1.252 . S
O399 In390 2.326 . S
O399 C395 1.260 . S
C400 O391 1.240 . S
C400 O392 1.252 . S
O401 In390 2.294 . S
O401 C394 1.240 . S
O402 In390 2.326 . S
O402 C394 1.252 . S
In403 O404 2.294 . S
In403 O405 2.326 . S
In403 O409 2.266 . S
In403 O410 2.326 . S
In403 O411 2.266 . S
In403 O412 2.326 . S
In403 O414 2.294 . S
In403 O415 2.326 . S
O404 In403 2.294 . S
O404 C413 1.240 . S
O405 In403 2.326 . S
O405 C413 1.252 . S
C406 O409 1.252 . S
C406 O410 1.260 . S
C407 O414 1.240 . S
C407 O415 1.252 . S
C408 O411 1.252 . S
C408 O412 1.260 . S
O409 In403 2.266 . S
O409 C406 1.252 . S
O410 In403 2.326 . S
O410 C406 1.260 . S
O411 In403 2.266 . S
O411 C408 1.252 . S
O412 In403 2.326 . S
O412 C408 1.260 . S
C413 O404 1.240 . S
C413 O405 1.252 . S
O414 In403 2.294 . S
O414 C407 1.240 . S
O415 In403 2.326 . S
O415 C407 1.252 . S
In416 O417 2.294 . S
In416 O418 2.326 . S
In416 O422 2.266 . S
In416 O423 2.326 . S
In416 O424 2.266 . S
In416 O425 2.326 . S
In416 O427 2.294 . S
In416 O428 2.326 . S
O417 In416 2.294 . S
O417 C426 1.240 . S
O418 In416 2.326 . S
O418 C426 1.252 . S
C419 O422 1.252 . S
C419 O423 1.260 . S
C420 O427 1.240 . S
C420 O428 1.252 . S
C421 O424 1.252 . S
C421 O425 1.260 . S
O422 In416 2.266 . S
O422 C419 1.252 . S
O423 In416 2.326 . S
O423 C419 1.260 . S
O424 In416 2.266 . S
O424 C421 1.252 . S
O425 In416 2.326 . S
O425 C421 1.260 . S
C426 O417 1.240 . S
C426 O418 1.252 . S
O427 In416 2.294 . S
O427 C420 1.240 . S
O428 In416 2.326 . S
O428 C420 1.252 . S
In429 O430 2.294 . S
In429 O431 2.326 . S
In429 O435 2.266 . S
In429 O436 2.326 . S
In429 O437 2.266 . S
In429 O438 2.326 . S
In429 O440 2.294 . S
In429 O441 2.326 . S
O430 In429 2.294 . S
O430 C439 1.240 . S
O431 In429 2.326 . S
O431 C439 1.252 . S
C432 O435 1.252 . S
C432 O436 1.260 . S
C433 O440 1.240 . S
C433 O441 1.252 . S
C434 O437 1.252 . S
C434 O438 1.260 . S
O435 In429 2.266 . S
O435 C432 1.252 . S
O436 In429 2.326 . S
O436 C432 1.260 . S
O437 In429 2.266 . S
O437 C434 1.252 . S
O438 In429 2.326 . S
O438 C434 1.260 . S
C439 O430 1.240 . S
C439 O431 1.252 . S
O440 In429 2.294 . S
O440 C433 1.240 . S
O441 In429 2.326 . S
O441 C433 1.252 . S
In442 O443 2.294 . S
In442 O444 2.326 . S
In442 O448 2.266 . S
In442 O449 2.326 . S
In442 O450 2.266 . S
In442 O451 2.326 . S
In442 O453 2.294 . S
In442 O454 2.326 . S
O443 In442 2.294 . S
O443 C452 1.240 . S
O444 In442 2.326 . S
O444 C452 1.252 . S
C445 O448 1.252 . S
C445 O449 1.260 . S
C446 O453 1.240 . S
C446 O454 1.252 . S
C447 O450 1.252 . S
C447 O451 1.260 . S
O448 In442 2.266 . S
O448 C445 1.252 . S
O449 In442 2.326 . S
O449 C445 1.260 . S
O450 In442 2.266 . S
O450 C447 1.252 . S
O451 In442 2.326 . S
O451 C447 1.260 . S
C452 O443 1.240 . S
C452 O444 1.252 . S
O453 In442 2.294 . S
O453 C446 1.240 . S
O454 In442 2.326 . S
O454 C446 1.252 . S
In455 O456 2.294 . S
In455 O457 2.326 . S
In455 O461 2.266 . S
In455 O462 2.326 . S
In455 O463 2.266 . S
In455 O464 2.326 . S
In455 O466 2.294 . S
In455 O467 2.326 . S
O456 In455 2.294 . S
O456 C465 1.240 . S
O457 In455 2.326 . S
O457 C465 1.252 . S
C458 O461 1.252 . S
C458 O462 1.260 . S
C459 O466 1.240 . S
C459 O467 1.252 . S
C460 O463 1.252 . S
C460 O464 1.260 . S
O461 In455 2.266 . S
O461 C458 1.252 . S
O462 In455 2.326 . S
O462 C458 1.260 . S
O463 In455 2.266 . S
O463 C460 1.252 . S
O464 In455 2.326 . S
O464 C460 1.260 . S
C465 O456 1.240 . S
C465 O457 1.252 . S
O466 In455 2.294 . S
O466 C459 1.240 . S
O467 In455 2.326 . S
O467 C459 1.252 . S
H468 C480 0.930 . S
H469 C482 0.930 . S
H470 C483 0.930 1_545 S
H471 C487 0.959 . S
H472 C487 0.959 . S
H473 C487 0.961 . S
H474 C488 0.960 . S
H475 C488 0.961 . S
H476 C488 0.959 . S
H477 C491 0.929 . S
H478 C492 0.931 . S
H479 C494 0.930 . S
C480 H468 0.930 . S
C480 C481 1.399 . S
C480 C485 1.399 . S
C481 C480 1.399 . S
C481 C482 1.376 . S
C482 H469 0.930 . S
C482 C481 1.376 . S
C482 C483 1.388 . S
C483 H470 0.930 1_565 S
C483 C482 1.388 . S
C483 C484 1.390 . S
C484 C483 1.390 . S
C484 C485 1.394 . S
C484 C490 1.465 1_565 S
C485 C480 1.399 . S
C485 C484 1.394 . S
C485 C486 1.516 . S
C486 C485 1.516 . S
C486 C487 1.502 . S
C486 C488 1.561 . S
C486 C489 1.526 1_565 S
C487 H471 0.959 . S
C487 H472 0.959 . S
C487 H473 0.961 . S
C487 C486 1.502 . S
C488 H474 0.960 . S
C488 H475 0.961 . S
C488 H476 0.959 . S
C488 C486 1.561 . S
C489 C486 1.526 1_545 S
C489 C490 1.396 . S
C489 C494 1.390 . S
C490 C484 1.465 1_545 S
C490 C489 1.396 . S
C490 C491 1.399 . S
C491 H477 0.929 . S
C491 C490 1.399 . S
C491 C492 1.385 . S
C492 H478 0.931 . S
C492 C491 1.385 . S
C492 C493 1.389 . S
C493 C492 1.389 . S
C493 C494 1.387 . S
C494 H479 0.930 . S
C494 C489 1.390 . S
C494 C493 1.387 . S
H495 C507 0.930 . S
H496 C509 0.930 . S
H497 C510 0.930 1_455 S
H498 C514 0.959 . S
H499 C514 0.959 . S
H500 C514 0.961 . S
H501 C515 0.960 . S
H502 C515 0.961 . S
H503 C515 0.959 . S
H504 C518 0.929 . S
H505 C519 0.931 . S
H506 C521 0.930 . S
C507 H495 0.930 . S
C507 C508 1.399 . S
C507 C512 1.399 . S
C508 C507 1.399 . S
C508 C509 1.376 . S
C509 H496 0.930 . S
C509 C508 1.376 . S
C509 C510 1.388 . S
C510 H497 0.930 1_655 S
C510 C509 1.388 . S
C510 C511 1.390 . S
C511 C510 1.390 . S
C511 C512 1.394 . S
C511 C517 1.465 1_655 S
C512 C507 1.399 . S
C512 C511 1.394 . S
C512 C513 1.516 . S
C513 C512 1.516 . S
C513 C514 1.502 . S
C513 C515 1.561 . S
C513 C516 1.526 1_655 S
C514 H498 0.959 . S
C514 H499 0.959 . S
C514 H500 0.961 . S
C514 C513 1.502 . S
C515 H501 0.960 . S
C515 H502 0.961 . S
C515 H503 0.959 . S
C515 C513 1.561 . S
C516 C513 1.526 1_455 S
C516 C517 1.396 . S
C516 C521 1.390 . S
C517 C511 1.465 1_455 S
C517 C516 1.396 . S
C517 C518 1.399 . S
C518 H504 0.929 . S
C518 C517 1.399 . S
C518 C519 1.385 . S
C519 H505 0.931 . S
C519 C518 1.385 . S
C519 C520 1.389 . S
C520 C519 1.389 . S
C520 C521 1.387 . S
C521 H506 0.930 . S
C521 C516 1.390 . S
C521 C520 1.387 . S
H522 C534 0.930 . S
H523 C536 0.930 . S
H524 C537 0.930 . S
H525 C541 0.959 . S
H526 C541 0.959 . S
H527 C541 0.961 . S
H528 C542 0.960 . S
H529 C542 0.961 . S
H530 C542 0.959 . S
H531 C545 0.929 . S
H532 C546 0.931 . S
H533 C548 0.930 . S
C534 H522 0.930 . S
C534 C535 1.399 . S
C534 C539 1.399 . S
C535 C534 1.399 . S
C535 C536 1.376 . S
C536 H523 0.930 . S
C536 C535 1.376 . S
C536 C537 1.388 . S
C537 H524 0.930 . S
C537 C536 1.388 . S
C537 C538 1.390 . S
C538 C537 1.390 . S
C538 C539 1.394 . S
C538 C544 1.465 . S
C539 C534 1.399 . S
C539 C538 1.394 . S
C539 C540 1.516 . S
C540 C539 1.516 . S
C540 C541 1.502 . S
C540 C542 1.561 . S
C540 C543 1.526 . S
C541 H525 0.959 . S
C541 H526 0.959 . S
C541 H527 0.961 . S
C541 C540 1.502 . S
C542 H528 0.960 . S
C542 H529 0.961 . S
C542 H530 0.959 . S
C542 C540 1.561 . S
C543 C540 1.526 . S
C543 C544 1.396 . S
C543 C548 1.390 . S
C544 C538 1.465 . S
C544 C543 1.396 . S
C544 C545 1.399 . S
C545 H531 0.929 . S
C545 C544 1.399 . S
C545 C546 1.385 . S
C546 H532 0.931 . S
C546 C545 1.385 . S
C546 C547 1.389 . S
C547 C546 1.389 . S
C547 C548 1.387 . S
C548 H533 0.930 . S
C548 C543 1.390 . S
C548 C547 1.387 . S
H549 C561 0.930 . S
H550 C563 0.930 . S
H551 C564 0.930 1_545 S
H552 C568 0.959 . S
H553 C568 0.959 . S
H554 C568 0.961 . S
H555 C569 0.960 . S
H556 C569 0.961 . S
H557 C569 0.959 . S
H558 C572 0.929 . S
H559 C573 0.931 . S
H560 C575 0.930 . S
C561 H549 0.930 . S
C561 C562 1.399 . S
C561 C566 1.399 . S
C562 C561 1.399 . S
C562 C563 1.376 . S
C563 H550 0.930 . S
C563 C562 1.376 . S
C563 C564 1.388 . S
C564 H551 0.930 1_565 S
C564 C563 1.388 . S
C564 C565 1.390 . S
C565 C564 1.390 . S
C565 C566 1.394 . S
C565 C571 1.465 1_565 S
C566 C561 1.399 . S
C566 C565 1.394 . S
C566 C567 1.516 . S
C567 C566 1.516 . S
C567 C568 1.502 . S
C567 C569 1.561 . S
C567 C570 1.526 1_565 S
C568 H552 0.959 . S
C568 H553 0.959 . S
C568 H554 0.961 . S
C568 C567 1.502 . S
C569 H555 0.960 . S
C569 H556 0.961 . S
C569 H557 0.959 . S
C569 C567 1.561 . S
C570 C567 1.526 1_545 S
C570 C571 1.396 . S
C570 C575 1.390 . S
C571 C565 1.465 1_545 S
C571 C570 1.396 . S
C571 C572 1.399 . S
C572 H558 0.929 . S
C572 C571 1.399 . S
C572 C573 1.385 . S
C573 H559 0.931 . S
C573 C572 1.385 . S
C573 C574 1.389 . S
C574 C573 1.389 . S
C574 C575 1.387 . S
C575 H560 0.930 . S
C575 C570 1.390 . S
C575 C574 1.387 . S
H576 C588 0.930 . S
H577 C590 0.930 . S
H578 C591 0.930 . S
H579 C595 0.986 . S
H580 C595 0.959 . S
H581 C595 0.961 . S
H582 C596 0.960 . S
H583 C596 0.961 . S
H584 C596 0.959 . S
H585 C599 0.933 . S
H586 C600 0.931 . S
H587 C602 0.930 . S
C588 H576 0.930 . S
C588 C589 1.399 . S
C588 C593 1.399 . S
C589 C588 1.399 . S
C589 C590 1.376 . S
C590 H577 0.930 . S
C590 C589 1.376 . S
C590 C591 1.388 . S
C591 H578 0.930 . S
C591 C590 1.388 . S
C591 C592 1.390 . S
C592 C591 1.390 . S
C592 C593 1.394 . S
C592 C598 1.465 1_455 S
C593 C588 1.399 . S
C593 C592 1.394 . S
C593 C594 1.516 1_455 S
C594 C593 1.516 1_655 S
C594 C595 1.502 . S
C594 C596 1.561 . S
C594 C597 1.526 . S
C595 H579 0.986 . S
C595 H580 0.959 . S
C595 H581 0.961 . S
C595 C594 1.502 . S
C596 H582 0.960 . S
C596 H583 0.961 . S
C596 H584 0.959 . S
C596 C594 1.561 . S
C597 C594 1.526 . S
C597 C598 1.396 . S
C597 C602 1.390 . S
C598 C592 1.465 1_655 S
C598 C597 1.396 . S
C598 C599 1.399 . S
C599 H585 0.933 . S
C599 C598 1.399 . S
C599 C600 1.385 . S
C600 H586 0.931 . S
C600 C599 1.385 . S
C600 C601 1.389 . S
C601 C600 1.389 . S
C601 C602 1.387 . S
C602 H587 0.930 . S
C602 C597 1.390 . S
C602 C601 1.387 . S
H603 C615 0.930 . S
H604 C617 0.930 . S
H605 C618 0.930 . S
H606 C622 0.959 . S
H607 C622 0.959 . S
H608 C622 0.961 . S
H609 C623 0.960 . S
H610 C623 0.961 . S
H611 C623 0.959 . S
H612 C626 0.929 . S
H613 C627 0.931 . S
H614 C629 0.930 . S
C615 H603 0.930 . S
C615 C616 1.399 . S
C615 C620 1.399 . S
C616 C615 1.399 . S
C616 C617 1.376 . S
C617 H604 0.930 . S
C617 C616 1.376 . S
C617 C618 1.388 . S
C618 H605 0.930 . S
C618 C617 1.388 . S
C618 C619 1.390 . S
C619 C618 1.390 . S
C619 C620 1.394 . S
C619 C625 1.465 . S
C620 C615 1.399 . S
C620 C619 1.394 . S
C620 C621 1.516 . S
C621 C620 1.516 . S
C621 C622 1.502 . S
C621 C623 1.561 . S
C621 C624 1.526 . S
C622 H606 0.959 . S
C622 H607 0.959 . S
C622 H608 0.961 . S
C622 C621 1.502 . S
C623 H609 0.960 . S
C623 H610 0.961 . S
C623 H611 0.959 . S
C623 C621 1.561 . S
C624 C621 1.526 . S
C624 C625 1.396 . S
C624 C629 1.390 . S
C625 C619 1.465 . S
C625 C624 1.396 . S
C625 C626 1.399 . S
C626 H612 0.929 . S
C626 C625 1.399 . S
C626 C627 1.385 . S
C627 H613 0.931 . S
C627 C626 1.385 . S
C627 C628 1.389 . S
C628 C627 1.389 . S
C628 C629 1.387 . S
C629 H614 0.930 . S
C629 C624 1.390 . S
C629 C628 1.387 . S
H630 C642 0.930 . S
H631 C644 0.930 . S
H632 C645 0.930 . S
H633 C649 0.959 . S
H634 C649 0.959 . S
H635 C649 0.961 . S
H636 C650 0.960 . S
H637 C650 0.961 . S
H638 C650 0.959 . S
H639 C653 0.929 . S
H640 C654 0.931 . S
H641 C656 0.930 . S
C642 H630 0.930 . S
C642 C643 1.399 . S
C642 C647 1.399 . S
C643 C642 1.399 . S
C643 C644 1.376 . S
C644 H631 0.930 . S
C644 C643 1.376 . S
C644 C645 1.388 . S
C645 H632 0.930 . S
C645 C644 1.388 . S
C645 C646 1.390 . S
C646 C645 1.390 . S
C646 C647 1.394 . S
C646 C652 1.465 . S
C647 C642 1.399 . S
C647 C646 1.394 . S
C647 C648 1.516 . S
C648 C647 1.516 . S
C648 C649 1.502 . S
C648 C650 1.561 . S
C648 C651 1.526 . S
C649 H633 0.959 . S
C649 H634 0.959 . S
C649 H635 0.961 . S
C649 C648 1.502 . S
C650 H636 0.960 . S
C650 H637 0.961 . S
C650 H638 0.959 . S
C650 C648 1.561 . S
C651 C648 1.526 . S
C651 C652 1.396 . S
C651 C656 1.390 . S
C652 C646 1.465 . S
C652 C651 1.396 . S
C652 C653 1.399 . S
C653 H639 0.929 . S
C653 C652 1.399 . S
C653 C654 1.385 . S
C654 H640 0.931 . S
C654 C653 1.385 . S
C654 C655 1.389 . S
C655 C654 1.389 . S
C655 C656 1.387 . S
C656 H641 0.930 . S
C656 C651 1.390 . S
C656 C655 1.387 . S
H657 C669 0.930 . S
H658 C671 0.930 . S
H659 C672 0.930 . S
H660 C676 0.959 . S
H661 C676 0.959 . S
H662 C676 0.961 . S
H663 C677 0.960 . S
H664 C677 0.961 . S
H665 C677 0.959 . S
H666 C680 0.929 . S
H667 C681 0.931 . S
H668 C683 0.930 . S
C669 H657 0.930 . S
C669 C670 1.399 . S
C669 C674 1.399 . S
C670 C669 1.399 . S
C670 C671 1.376 . S
C671 H658 0.930 . S
C671 C670 1.376 . S
C671 C672 1.388 . S
C672 H659 0.930 . S
C672 C671 1.388 . S
C672 C673 1.390 . S
C673 C672 1.390 . S
C673 C674 1.394 . S
C673 C679 1.465 . S
C674 C669 1.399 . S
C674 C673 1.394 . S
C674 C675 1.516 . S
C675 C674 1.516 . S
C675 C676 1.502 . S
C675 C677 1.561 . S
C675 C678 1.526 . S
C676 H660 0.959 . S
C676 H661 0.959 . S
C676 H662 0.961 . S
C676 C675 1.502 . S
C677 H663 0.960 . S
C677 H664 0.961 . S
C677 H665 0.959 . S
C677 C675 1.561 . S
C678 C675 1.526 . S
C678 C679 1.396 . S
C678 C683 1.390 . S
C679 C673 1.465 . S
C679 C678 1.396 . S
C679 C680 1.399 . S
C680 H666 0.929 . S
C680 C679 1.399 . S
C680 C681 1.385 . S
C681 H667 0.931 . S
C681 C680 1.385 . S
C681 C682 1.389 . S
C682 C681 1.389 . S
C682 C683 1.387 . S
C683 H668 0.930 . S
C683 C678 1.390 . S
C683 C682 1.387 . S
H684 C696 0.930 . S
H685 C698 0.930 . S
H686 C699 0.930 . S
H687 C703 0.959 . S
H688 C703 0.959 . S
H689 C703 0.961 . S
H690 C704 0.960 . S
H691 C704 0.961 . S
H692 C704 0.959 . S
H693 C707 0.929 . S
H694 C708 0.931 . S
H695 C710 0.930 . S
C696 H684 0.930 . S
C696 C697 1.399 . S
C696 C701 1.399 . S
C697 C696 1.399 . S
C697 C698 1.376 . S
C698 H685 0.930 . S
C698 C697 1.376 . S
C698 C699 1.388 . S
C699 H686 0.930 . S
C699 C698 1.388 . S
C699 C700 1.390 . S
C700 C699 1.390 . S
C700 C701 1.394 . S
C700 C706 1.465 . S
C701 C696 1.399 . S
C701 C700 1.394 . S
C701 C702 1.516 . S
C702 C701 1.516 . S
C702 C703 1.502 . S
C702 C704 1.561 . S
C702 C705 1.526 . S
C703 H687 0.959 . S
C703 H688 0.959 . S
C703 H689 0.961 . S
C703 C702 1.502 . S
C704 H690 0.960 . S
C704 H691 0.961 . S
C704 H692 0.959 . S
C704 C702 1.561 . S
C705 C702 1.526 . S
C705 C706 1.396 . S
C705 C710 1.390 . S
C706 C700 1.465 . S
C706 C705 1.396 . S
C706 C707 1.399 . S
C707 H693 0.929 . S
C707 C706 1.399 . S
C707 C708 1.385 . S
C708 H694 0.931 . S
C708 C707 1.385 . S
C708 C709 1.389 . S
C709 C708 1.389 . S
C709 C710 1.387 . S
C710 H695 0.930 . S
C710 C705 1.390 . S
C710 C709 1.387 . S
H711 C723 0.930 . S
H712 C725 0.930 . S
H713 C726 0.930 . S
H714 C730 0.959 . S
H715 C730 0.959 . S
H716 C730 0.961 . S
H717 C731 0.960 1_554 S
H718 C731 0.961 . S
H719 C731 0.959 . S
H720 C734 0.929 . S
H721 C735 0.931 . S
H722 C737 0.930 . S
C723 H711 0.930 . S
C723 C724 1.399 . S
C723 C728 1.399 . S
C724 C723 1.399 . S
C724 C725 1.376 . S
C725 H712 0.930 . S
C725 C724 1.376 . S
C725 C726 1.388 . S
C726 H713 0.930 . S
C726 C725 1.388 . S
C726 C727 1.390 . S
C727 C726 1.390 . S
C727 C728 1.394 . S
C727 C733 1.465 . S
C728 C723 1.399 . S
C728 C727 1.394 . S
C728 C729 1.516 . S
C729 C728 1.516 . S
C729 C730 1.502 . S
C729 C731 1.561 1_554 S
C729 C732 1.526 . S
C730 H714 0.959 . S
C730 H715 0.959 . S
C730 H716 0.961 . S
C730 C729 1.502 . S
C731 H717 0.960 1_556 S
C731 H718 0.961 . S
C731 H719 0.959 . S
C731 C729 1.561 1_556 S
C732 C729 1.526 . S
C732 C733 1.396 . S
C732 C737 1.390 1_554 S
C733 C727 1.465 . S
C733 C732 1.396 . S
C733 C734 1.399 . S
C734 H720 0.929 . S
C734 C733 1.399 . S
C734 C735 1.385 . S
C735 H721 0.931 . S
C735 C734 1.385 . S
C735 C736 1.389 1_554 S
C736 C735 1.389 1_556 S
C736 C737 1.387 . S
C737 H722 0.930 . S
C737 C732 1.390 1_556 S
C737 C736 1.387 . S
H738 C750 0.930 . S
H739 C752 0.930 . S
H740 C753 0.930 . S
H741 C757 0.959 . S
H742 C757 0.959 . S
H743 C757 0.961 . S
H744 C758 0.960 . S
H745 C758 0.961 1_556 S
H746 C758 0.959 1_556 S
H747 C761 0.929 . S
H748 C762 0.931 . S
H749 C764 0.930 1_556 S
C750 H738 0.930 . S
C750 C751 1.399 . S
C750 C755 1.399 . S
C751 C750 1.399 . S
C751 C752 1.376 . S
C752 H739 0.930 . S
C752 C751 1.376 . S
C752 C753 1.388 . S
C753 H740 0.930 . S
C753 C752 1.388 . S
C753 C754 1.390 . S
C754 C753 1.390 . S
C754 C755 1.394 . S
C754 C760 1.465 . S
C755 C750 1.399 . S
C755 C754 1.394 . S
C755 C756 1.516 . S
C756 C755 1.516 . S
C756 C757 1.502 . S
C756 C758 1.561 . S
C756 C759 1.526 . S
C757 H741 0.959 . S
C757 H742 0.959 . S
C757 H743 0.961 . S
C757 C756 1.502 . S
C758 H744 0.960 . S
C758 H745 0.961 1_554 S
C758 H746 0.959 1_554 S
C758 C756 1.561 . S
C759 C756 1.526 . S
C759 C760 1.396 . S
C759 C764 1.390 . S
C760 C754 1.465 . S
C760 C759 1.396 . S
C760 C761 1.399 . S
C761 H747 0.929 . S
C761 C760 1.399 . S
C761 C762 1.385 . S
C762 H748 0.931 . S
C762 C761 1.385 . S
C762 C763 1.389 1_554 S
C763 C762 1.389 1_556 S
C763 C764 1.387 1_556 S
C764 H749 0.930 1_554 S
C764 C759 1.390 . S
C764 C763 1.387 1_554 S
H765 C777 0.930 . S
H766 C779 0.930 . S
H767 C780 0.930 . S
H768 C784 0.959 . S
H769 C784 0.959 . S
H770 C784 0.961 . S
H771 C785 0.960 . S
H772 C785 0.961 . S
H773 C785 0.959 . S
H774 C788 0.929 . S
H775 C789 0.931 . S
H776 C791 0.930 . S
C777 H765 0.930 . S
C777 C778 1.399 . S
C777 C782 1.399 . S
C778 C777 1.399 . S
C778 C779 1.376 . S
C779 H766 0.930 . S
C779 C778 1.376 . S
C779 C780 1.388 . S
C780 H767 0.930 . S
C780 C779 1.388 . S
C780 C781 1.390 . S
C781 C780 1.390 . S
C781 C782 1.394 . S
C781 C787 1.465 . S
C782 C777 1.399 . S
C782 C781 1.394 . S
C782 C783 1.516 . S
C783 C782 1.516 . S
C783 C784 1.502 . S
C783 C785 1.561 . S
C783 C786 1.526 . S
C784 H768 0.959 . S
C784 H769 0.959 . S
C784 H770 0.961 . S
C784 C783 1.502 . S
C785 H771 0.960 . S
C785 H772 0.961 . S
C785 H773 0.959 . S
C785 C783 1.561 . S
C786 C783 1.526 . S
C786 C787 1.396 . S
C786 C791 1.390 . S
C787 C781 1.465 . S
C787 C786 1.396 . S
C787 C788 1.399 1_554 S
C788 H774 0.929 . S
C788 C787 1.399 1_556 S
C788 C789 1.385 . S
C789 H775 0.931 . S
C789 C788 1.385 . S
C789 C790 1.389 . S
C790 C789 1.389 . S
C790 C791 1.387 1_556 S
C791 H776 0.930 . S
C791 C786 1.390 . S
C791 C790 1.387 1_554 S
H792 C804 0.930 . S
H793 C806 0.930 . S
H794 C807 0.930 . S
H795 C811 0.959 . S
H796 C811 0.959 . S
H797 C811 0.961 . S
H798 C812 0.960 . S
H799 C812 0.961 . S
H800 C812 0.959 . S
H801 C815 0.929 . S
H802 C816 0.931 . S
H803 C818 0.930 . S
C804 H792 0.930 . S
C804 C805 1.399 . S
C804 C809 1.399 . S
C805 C804 1.399 . S
C805 C806 1.376 . S
C806 H793 0.930 . S
C806 C805 1.376 . S
C806 C807 1.388 . S
C807 H794 0.930 . S
C807 C806 1.388 . S
C807 C808 1.390 . S
C808 C807 1.390 . S
C808 C809 1.394 . S
C808 C814 1.465 . S
C809 C804 1.399 . S
C809 C808 1.394 . S
C809 C810 1.516 . S
C810 C809 1.516 . S
C810 C811 1.502 . S
C810 C812 1.561 . S
C810 C813 1.526 . S
C811 H795 0.959 . S
C811 H796 0.959 . S
C811 H797 0.961 . S
C811 C810 1.502 . S
C812 H798 0.960 . S
C812 H799 0.961 . S
C812 H800 0.959 . S
C812 C810 1.561 . S
C813 C810 1.526 . S
C813 C814 1.396 . S
C813 C818 1.390 . S
C814 C808 1.465 . S
C814 C813 1.396 . S
C814 C815 1.399 . S
C815 H801 0.929 . S
C815 C814 1.399 . S
C815 C816 1.385 1_556 S
C816 H802 0.931 . S
C816 C815 1.385 1_554 S
C816 C817 1.389 . S
C817 C816 1.389 . S
C817 C818 1.387 1_554 S
C818 H803 0.930 . S
C818 C813 1.390 . S
C818 C817 1.387 1_556 S
H819 C831 0.930 . S
H820 C833 0.930 . S
H821 C834 0.930 . S
H822 C838 0.959 . S
H823 C838 0.959 . S
H824 C838 0.961 . S
H825 C839 0.960 . S
H826 C839 0.961 . S
H827 C839 0.959 . S
H828 C842 0.929 . S
H829 C843 0.931 . S
H830 C845 0.930 . S
C831 H819 0.930 . S
C831 C832 1.399 1_556 S
C831 C836 1.399 . S
C832 C831 1.399 1_554 S
C832 C833 1.376 . S
C833 H820 0.930 . S
C833 C832 1.376 . S
C833 C834 1.388 1_554 S
C834 H821 0.930 . S
C834 C833 1.388 1_556 S
C834 C835 1.390 . S
C835 C834 1.390 . S
C835 C836 1.394 . S
C835 C841 1.465 . S
C836 C831 1.399 . S
C836 C835 1.394 . S
C836 C837 1.516 . S
C837 C836 1.516 . S
C837 C838 1.502 . S
C837 C839 1.561 . S
C837 C840 1.526 . S
C838 H822 0.959 . S
C838 H823 0.959 . S
C838 H824 0.961 . S
C838 C837 1.502 . S
C839 H825 0.960 . S
C839 H826 0.961 . S
C839 H827 0.959 . S
C839 C837 1.561 . S
C840 C837 1.526 . S
C840 C841 1.396 . S
C840 C845 1.390 . S
C841 C835 1.465 . S
C841 C840 1.396 . S
C841 C842 1.399 . S
C842 H828 0.929 . S
C842 C841 1.399 . S
C842 C843 1.385 . S
C843 H829 0.931 . S
C843 C842 1.385 . S
C843 C844 1.389 . S
C844 C843 1.389 . S
C844 C845 1.387 . S
C845 H830 0.930 . S
C845 C840 1.390 . S
C845 C844 1.387 . S
H846 C858 0.930 . S
H847 C860 0.930 . S
H848 C861 0.930 . S
H849 C865 0.959 . S
H850 C865 0.959 . S
H851 C865 0.961 . S
H852 C866 0.960 . S
H853 C866 0.961 . S
H854 C866 0.959 . S
H855 C869 0.929 . S
H856 C870 0.931 . S
H857 C872 0.930 . S
C858 H846 0.930 . S
C858 C859 1.399 . S
C858 C863 1.399 . S
C859 C858 1.399 . S
C859 C860 1.376 . S
C860 H847 0.930 . S
C860 C859 1.376 . S
C860 C861 1.388 . S
C861 H848 0.930 . S
C861 C860 1.388 . S
C861 C862 1.390 . S
C862 C861 1.390 . S
C862 C863 1.394 . S
C862 C868 1.465 . S
C863 C858 1.399 . S
C863 C862 1.394 . S
C863 C864 1.516 . S
C864 C863 1.516 . S
C864 C865 1.502 . S
C864 C866 1.561 . S
C864 C867 1.526 . S
C865 H849 0.959 . S
C865 H850 0.959 . S
C865 H851 0.961 . S
C865 C864 1.502 . S
C866 H852 0.960 . S
C866 H853 0.961 . S
C866 H854 0.959 . S
C866 C864 1.561 . S
C867 C864 1.526 . S
C867 C868 1.396 . S
C867 C872 1.390 . S
C868 C862 1.465 . S
C868 C867 1.396 . S
C868 C869 1.399 . S
C869 H855 0.929 . S
C869 C868 1.399 . S
C869 C870 1.385 1_556 S
C870 H856 0.931 . S
C870 C869 1.385 1_554 S
C870 C871 1.389 . S
C871 C870 1.389 . S
C871 C872 1.387 1_554 S
C872 H857 0.930 . S
C872 C867 1.390 . S
C872 C871 1.387 1_556 S
H873 C885 0.930 . S
H874 C887 0.930 . S
H875 C888 0.930 . S
H876 C892 0.959 . S
H877 C892 0.959 . S
H878 C892 0.961 . S
H879 C893 0.960 . S
H880 C893 0.961 . S
H881 C893 0.959 . S
H882 C896 0.929 . S
H883 C897 0.931 . S
H884 C899 0.930 . S
C885 H873 0.930 . S
C885 C886 1.399 . S
C885 C890 1.399 . S
C886 C885 1.399 . S
C886 C887 1.376 . S
C887 H874 0.930 . S
C887 C886 1.376 . S
C887 C888 1.388 . S
C888 H875 0.930 . S
C888 C887 1.388 . S
C888 C889 1.390 . S
C889 C888 1.390 . S
C889 C890 1.394 . S
C889 C895 1.465 . S
C890 C885 1.399 . S
C890 C889 1.394 . S
C890 C891 1.516 . S
C891 C890 1.516 . S
C891 C892 1.502 . S
C891 C893 1.561 . S
C891 C894 1.526 . S
C892 H876 0.959 . S
C892 H877 0.959 . S
C892 H878 0.961 . S
C892 C891 1.502 . S
C893 H879 0.960 . S
C893 H880 0.961 . S
C893 H881 0.959 . S
C893 C891 1.561 . S
C894 C891 1.526 . S
C894 C895 1.396 . S
C894 C899 1.390 . S
C895 C889 1.465 . S
C895 C894 1.396 . S
C895 C896 1.399 . S
C896 H882 0.929 . S
C896 C895 1.399 . S
C896 C897 1.385 . S
C897 H883 0.931 . S
C897 C896 1.385 . S
C897 C898 1.389 . S
C898 C897 1.389 . S
C898 C899 1.387 . S
C899 H884 0.930 . S
C899 C894 1.390 . S
C899 C898 1.387 . S
H900 C912 0.930 . S
H901 C914 0.930 . S
H902 C915 0.930 . S
H903 C919 0.959 . S
H904 C919 0.959 . S
H905 C919 0.961 . S
H906 C920 0.960 . S
H907 C920 0.961 . S
H908 C920 0.959 . S
H909 C923 0.929 . S
H910 C924 0.931 . S
H911 C926 0.930 . S
C912 H900 0.930 . S
C912 C913 1.399 . S
C912 C917 1.399 . S
C913 C912 1.399 . S
C913 C914 1.376 . S
C914 H901 0.930 . S
C914 C913 1.376 . S
C914 C915 1.388 . S
C915 H902 0.930 . S
C915 C914 1.388 . S
C915 C916 1.390 . S
C916 C915 1.390 . S
C916 C917 1.394 . S
C916 C922 1.465 . S
C917 C912 1.399 . S
C917 C916 1.394 . S
C917 C918 1.516 . S
C918 C917 1.516 . S
C918 C919 1.502 . S
C918 C920 1.561 . S
C918 C921 1.526 . S
C919 H903 0.959 . S
C919 H904 0.959 . S
C919 H905 0.961 . S
C919 C918 1.502 . S
C920 H906 0.960 . S
C920 H907 0.961 . S
C920 H908 0.959 . S
C920 C918 1.561 . S
C921 C918 1.526 . S
C921 C922 1.396 . S
C921 C926 1.390 . S
C922 C916 1.465 . S
C922 C921 1.396 . S
C922 C923 1.399 . S
C923 H909 0.929 . S
C923 C922 1.399 . S
C923 C924 1.385 . S
C924 H910 0.931 . S
C924 C923 1.385 . S
C924 C925 1.389 . S
C925 C924 1.389 . S
C925 C926 1.387 . S
C926 H911 0.930 . S
C926 C921 1.390 . S
C926 C925 1.387 . S
H927 C939 0.930 . S
H928 C941 0.930 . S
H929 C942 0.930 . S
H930 C946 0.959 . S
H931 C946 0.959 . S
H932 C946 0.961 . S
H933 C947 0.960 . S
H934 C947 0.961 . S
H935 C947 0.959 . S
H936 C950 0.929 . S
H937 C951 0.931 . S
H938 C953 0.930 . S
C939 H927 0.930 . S
C939 C940 1.399 . S
C939 C944 1.399 . S
C940 C939 1.399 . S
C940 C941 1.376 . S
C941 H928 0.930 . S
C941 C940 1.376 . S
C941 C942 1.388 . S
C942 H929 0.930 . S
C942 C941 1.388 . S
C942 C943 1.390 . S
C943 C942 1.390 . S
C943 C944 1.394 . S
C943 C949 1.465 . S
C944 C939 1.399 . S
C944 C943 1.394 . S
C944 C945 1.516 . S
C945 C944 1.516 . S
C945 C946 1.502 . S
C945 C947 1.561 . S
C945 C948 1.526 . S
C946 H930 0.959 . S
C946 H931 0.959 . S
C946 H932 0.961 . S
C946 C945 1.502 . S
C947 H933 0.960 . S
C947 H934 0.961 . S
C947 H935 0.959 . S
C947 C945 1.561 . S
C948 C945 1.526 . S
C948 C949 1.396 . S
C948 C953 1.390 . S
C949 C943 1.465 . S
C949 C948 1.396 . S
C949 C950 1.399 . S
C950 H936 0.929 . S
C950 C949 1.399 . S
C950 C951 1.385 . S
C951 H937 0.931 . S
C951 C950 1.385 . S
C951 C952 1.389 . S
C952 C951 1.389 . S
C952 C953 1.387 . S
C953 H938 0.930 . S
C953 C948 1.390 . S
C953 C952 1.387 . S
H954 C966 0.930 . S
H955 C968 0.930 . S
H956 C969 0.930 . S
H957 C973 0.959 . S
H958 C973 0.959 . S
H959 C973 0.961 . S
H960 C974 0.960 . S
H961 C974 0.961 . S
H962 C974 0.959 . S
H963 C977 0.929 . S
H964 C978 0.931 . S
H965 C980 0.930 . S
C966 H954 0.930 . S
C966 C967 1.399 . S
C966 C971 1.399 . S
C967 C966 1.399 . S
C967 C968 1.376 . S
C968 H955 0.930 . S
C968 C967 1.376 . S
C968 C969 1.388 . S
C969 H956 0.930 . S
C969 C968 1.388 . S
C969 C970 1.390 . S
C970 C969 1.390 . S
C970 C971 1.394 . S
C970 C976 1.465 . S
C971 C966 1.399 . S
C971 C970 1.394 . S
C971 C972 1.516 . S
C972 C971 1.516 . S
C972 C973 1.502 . S
C972 C974 1.561 . S
C972 C975 1.526 . S
C973 H957 0.959 . S
C973 H958 0.959 . S
C973 H959 0.961 . S
C973 C972 1.502 . S
C974 H960 0.960 . S
C974 H961 0.961 . S
C974 H962 0.959 . S
C974 C972 1.561 . S
C975 C972 1.526 . S
C975 C976 1.396 . S
C975 C980 1.390 . S
C976 C970 1.465 . S
C976 C975 1.396 . S
C976 C977 1.399 . S
C977 H963 0.929 . S
C977 C976 1.399 . S
C977 C978 1.385 . S
C978 H964 0.931 . S
C978 C977 1.385 . S
C978 C979 1.389 . S
C979 C978 1.389 . S
C979 C980 1.387 . S
C980 H965 0.930 . S
C980 C975 1.390 . S
C980 C979 1.387 . S
H981 C993 0.930 . S
H982 C995 0.930 . S
H983 C996 0.930 . S
H984 C1000 0.959 . S
H985 C1000 0.959 . S
H986 C1000 0.961 . S
H987 C1001 0.960 . S
H988 C1001 0.961 . S
H989 C1001 0.959 . S
H990 C1004 0.929 . S
H991 C1005 0.931 1_554 S
H992 C1007 0.930 . S
C993 H981 0.930 . S
C993 C994 1.399 . S
C993 C998 1.399 . S
C994 C993 1.399 . S
C994 C995 1.376 . S
C995 H982 0.930 . S
C995 C994 1.376 . S
C995 C996 1.388 . S
C996 H983 0.930 . S
C996 C995 1.388 . S
C996 C997 1.390 . S
C997 C996 1.390 . S
C997 C998 1.394 . S
C997 C1003 1.465 . S
C998 C993 1.399 . S
C998 C997 1.394 . S
C998 C999 1.516 . S
C999 C998 1.516 . S
C999 C1000 1.502 . S
C999 C1001 1.561 . S
C999 C1002 1.526 . S
C1000 H984 0.959 . S
C1000 H985 0.959 . S
C1000 H986 0.961 . S
C1000 C999 1.502 . S
C1001 H987 0.960 . S
C1001 H988 0.961 . S
C1001 H989 0.959 . S
C1001 C999 1.561 . S
C1002 C999 1.526 . S
C1002 C1003 1.396 . S
C1002 C1007 1.390 . S
C1003 C997 1.465 . S
C1003 C1002 1.396 . S
C1003 C1004 1.399 . S
C1004 H990 0.929 . S
C1004 C1003 1.399 . S
C1004 C1005 1.385 . S
C1005 H991 0.931 1_556 S
C1005 C1004 1.385 . S
C1005 C1006 1.389 . S
C1006 C1005 1.389 . S
C1006 C1007 1.387 . S
C1007 H992 0.930 . S
C1007 C1002 1.390 . S
C1007 C1006 1.387 . S
H1008 C1020 0.930 . S
H1009 C1022 0.930 . S
H1010 C1023 0.930 . S
H1011 C1027 0.959 . S
H1012 C1027 0.959 . S
H1013 C1027 0.961 . S
H1014 C1028 0.960 . S
H1015 C1028 0.961 . S
H1016 C1028 0.959 . S
H1017 C1031 0.929 . S
H1018 C1032 0.931 . S
H1019 C1034 0.930 . S
C1020 H1008 0.930 . S
C1020 C1021 1.399 . S
C1020 C1025 1.399 . S
C1021 C1020 1.399 . S
C1021 C1022 1.376 . S
C1022 H1009 0.930 . S
C1022 C1021 1.376 . S
C1022 C1023 1.388 . S
C1023 H1010 0.930 . S
C1023 C1022 1.388 . S
C1023 C1024 1.390 . S
C1024 C1023 1.390 . S
C1024 C1025 1.394 . S
C1024 C1030 1.465 . S
C1025 C1020 1.399 . S
C1025 C1024 1.394 . S
C1025 C1026 1.516 . S
C1026 C1025 1.516 . S
C1026 C1027 1.502 . S
C1026 C1028 1.561 . S
C1026 C1029 1.526 . S
C1027 H1011 0.959 . S
C1027 H1012 0.959 . S
C1027 H1013 0.961 . S
C1027 C1026 1.502 . S
C1028 H1014 0.960 . S
C1028 H1015 0.961 . S
C1028 H1016 0.959 . S
C1028 C1026 1.561 . S
C1029 C1026 1.526 . S
C1029 C1030 1.396 . S
C1029 C1034 1.390 . S
C1030 C1024 1.465 . S
C1030 C1029 1.396 . S
C1030 C1031 1.399 . S
C1031 H1017 0.929 . S
C1031 C1030 1.399 . S
C1031 C1032 1.385 . S
C1032 H1018 0.931 . S
C1032 C1031 1.385 . S
C1032 C1033 1.389 . S
C1033 C1032 1.389 . S
C1033 C1034 1.387 . S
C1034 H1019 0.930 . S
C1034 C1029 1.390 . S
C1034 C1033 1.387 . S
H1035 C1047 0.930 . S
H1036 C1049 0.930 . S
H1037 C1050 0.930 . S
H1038 C1054 0.959 . S
H1039 C1054 0.959 . S
H1040 C1054 0.961 . S
H1041 C1055 0.960 . S
H1042 C1055 0.961 . S
H1043 C1055 0.959 . S
H1044 C1058 0.929 . S
H1045 C1059 0.931 . S
H1046 C1061 0.930 . S
C1047 H1035 0.930 . S
C1047 C1048 1.399 . S
C1047 C1052 1.399 . S
C1048 C1047 1.399 . S
C1048 C1049 1.376 . S
C1049 H1036 0.930 . S
C1049 C1048 1.376 . S
C1049 C1050 1.388 . S
C1050 H1037 0.930 . S
C1050 C1049 1.388 . S
C1050 C1051 1.390 . S
C1051 C1050 1.390 . S
C1051 C1052 1.394 . S
C1051 C1057 1.465 . S
C1052 C1047 1.399 . S
C1052 C1051 1.394 . S
C1052 C1053 1.516 . S
C1053 C1052 1.516 . S
C1053 C1054 1.502 . S
C1053 C1055 1.561 . S
C1053 C1056 1.526 . S
C1054 H1038 0.959 . S
C1054 H1039 0.959 . S
C1054 H1040 0.961 . S
C1054 C1053 1.502 . S
C1055 H1041 0.960 . S
C1055 H1042 0.961 . S
C1055 H1043 0.959 . S
C1055 C1053 1.561 . S
C1056 C1053 1.526 . S
C1056 C1057 1.396 . S
C1056 C1061 1.390 . S
C1057 C1051 1.465 . S
C1057 C1056 1.396 . S
C1057 C1058 1.399 . S
C1058 H1044 0.929 . S
C1058 C1057 1.399 . S
C1058 C1059 1.385 . S
C1059 H1045 0.931 . S
C1059 C1058 1.385 . S
C1059 C1060 1.389 . S
C1060 C1059 1.389 . S
C1060 C1061 1.387 . S
C1061 H1046 0.930 . S
C1061 C1056 1.390 . S
C1061 C1060 1.387 . S
H1062 C1074 0.930 . S
H1063 C1076 0.930 . S
H1064 C1077 0.930 . S
H1065 C1081 0.959 . S
H1066 C1081 0.959 . S
H1067 C1081 0.961 . S
H1068 C1082 0.960 . S
H1069 C1082 0.961 . S
H1070 C1082 0.959 . S
H1071 C1085 0.929 . S
H1072 C1086 0.931 . S
H1073 C1088 0.930 . S
C1074 H1062 0.930 . S
C1074 C1075 1.399 . S
C1074 C1079 1.399 . S
C1075 C1074 1.399 . S
C1075 C1076 1.376 . S
C1076 H1063 0.930 . S
C1076 C1075 1.376 . S
C1076 C1077 1.388 . S
C1077 H1064 0.930 . S
C1077 C1076 1.388 . S
C1077 C1078 1.390 . S
C1078 C1077 1.390 . S
C1078 C1079 1.394 . S
C1078 C1084 1.465 . S
C1079 C1074 1.399 . S
C1079 C1078 1.394 . S
C1079 C1080 1.516 . S
C1080 C1079 1.516 . S
C1080 C1081 1.502 . S
C1080 C1082 1.561 . S
C1080 C1083 1.526 . S
C1081 H1065 0.959 . S
C1081 H1066 0.959 . S
C1081 H1067 0.961 . S
C1081 C1080 1.502 . S
C1082 H1068 0.960 . S
C1082 H1069 0.961 . S
C1082 H1070 0.959 . S
C1082 C1080 1.561 . S
C1083 C1080 1.526 . S
C1083 C1084 1.396 . S
C1083 C1088 1.390 . S
C1084 C1078 1.465 . S
C1084 C1083 1.396 . S
C1084 C1085 1.399 . S
C1085 H1071 0.929 . S
C1085 C1084 1.399 . S
C1085 C1086 1.385 . S
C1086 H1072 0.931 . S
C1086 C1085 1.385 . S
C1086 C1087 1.389 . S
C1087 C1086 1.389 . S
C1087 C1088 1.387 . S
C1088 H1073 0.930 . S
C1088 C1083 1.390 . S
C1088 C1087 1.387 . S
H1089 C1101 0.930 . S
H1090 C1103 0.930 . S
H1091 C1104 0.930 . S
H1092 C1108 0.959 . S
H1093 C1108 0.959 . S
H1094 C1108 0.961 . S
H1095 C1109 0.960 . S
H1096 C1109 0.961 . S
H1097 C1109 0.959 . S
H1098 C1112 0.929 . S
H1099 C1113 0.931 . S
H1100 C1115 0.930 . S
C1101 H1089 0.930 . S
C1101 C1102 1.399 . S
C1101 C1106 1.399 . S
C1102 C1101 1.399 . S
C1102 C1103 1.376 . S
C1103 H1090 0.930 . S
C1103 C1102 1.376 . S
C1103 C1104 1.388 . S
C1104 H1091 0.930 . S
C1104 C1103 1.388 . S
C1104 C1105 1.390 . S
C1105 C1104 1.390 . S
C1105 C1106 1.394 . S
C1105 C1111 1.465 . S
C1106 C1101 1.399 . S
C1106 C1105 1.394 . S
C1106 C1107 1.516 . S
C1107 C1106 1.516 . S
C1107 C1108 1.502 . S
C1107 C1109 1.561 . S
C1107 C1110 1.526 . S
C1108 H1092 0.959 . S
C1108 H1093 0.959 . S
C1108 H1094 0.961 . S
C1108 C1107 1.502 . S
C1109 H1095 0.960 . S
C1109 H1096 0.961 . S
C1109 H1097 0.959 . S
C1109 C1107 1.561 . S
C1110 C1107 1.526 . S
C1110 C1111 1.396 . S
C1110 C1115 1.390 . S
C1111 C1105 1.465 . S
C1111 C1110 1.396 . S
C1111 C1112 1.399 . S
C1112 H1098 0.929 . S
C1112 C1111 1.399 . S
C1112 C1113 1.385 . S
C1113 H1099 0.931 . S
C1113 C1112 1.385 . S
C1113 C1114 1.389 . S
C1114 C1113 1.389 . S
C1114 C1115 1.387 . S
C1115 H1100 0.930 . S
C1115 C1110 1.390 . S
C1115 C1114 1.387 . S
H1116 C1128 0.930 . S
H1117 C1130 0.930 . S
H1118 C1131 0.930 . S
H1119 C1135 0.959 . S
H1120 C1135 0.959 . S
H1121 C1135 0.961 . S
H1122 C1136 0.960 . S
H1123 C1136 0.961 . S
H1124 C1136 0.959 . S
H1125 C1139 0.929 . S
H1126 C1140 0.931 . S
H1127 C1142 0.930 . S
C1128 H1116 0.930 . S
C1128 C1129 1.399 . S
C1128 C1133 1.399 . S
C1129 C1128 1.399 . S
C1129 C1130 1.376 . S
C1130 H1117 0.930 . S
C1130 C1129 1.376 . S
C1130 C1131 1.388 . S
C1131 H1118 0.930 . S
C1131 C1130 1.388 . S
C1131 C1132 1.390 . S
C1132 C1131 1.390 . S
C1132 C1133 1.394 . S
C1132 C1138 1.465 . S
C1133 C1128 1.399 . S
C1133 C1132 1.394 . S
C1133 C1134 1.516 . S
C1134 C1133 1.516 . S
C1134 C1135 1.502 . S
C1134 C1136 1.561 . S
C1134 C1137 1.526 . S
C1135 H1119 0.959 . S
C1135 H1120 0.959 . S
C1135 H1121 0.961 . S
C1135 C1134 1.502 . S
C1136 H1122 0.960 . S
C1136 H1123 0.961 . S
C1136 H1124 0.959 . S
C1136 C1134 1.561 . S
C1137 C1134 1.526 . S
C1137 C1138 1.396 . S
C1137 C1142 1.390 . S
C1138 C1132 1.465 . S
C1138 C1137 1.396 . S
C1138 C1139 1.399 . S
C1139 H1125 0.929 . S
C1139 C1138 1.399 . S
C1139 C1140 1.385 . S
C1140 H1126 0.931 . S
C1140 C1139 1.385 . S
C1140 C1141 1.389 . S
C1141 C1140 1.389 . S
C1141 C1142 1.387 . S
C1142 H1127 0.930 . S
C1142 C1137 1.390 . S
C1142 C1141 1.387 . S
H1143 C1155 0.930 . S
H1144 C1157 0.930 . S
H1145 C1158 0.930 . S
H1146 C1162 0.959 . S
H1147 C1162 0.959 . S
H1148 C1162 0.961 . S
H1149 C1163 0.960 . S
H1150 C1163 0.961 . S
H1151 C1163 0.959 . S
H1152 C1166 0.929 . S
H1153 C1167 0.931 . S
H1154 C1169 0.930 . S
C1155 H1143 0.930 . S
C1155 C1156 1.399 . S
C1155 C1160 1.399 . S
C1156 C1155 1.399 . S
C1156 C1157 1.376 . S
C1157 H1144 0.930 . S
C1157 C1156 1.376 . S
C1157 C1158 1.388 . S
C1158 H1145 0.930 . S
C1158 C1157 1.388 . S
C1158 C1159 1.390 . S
C1159 C1158 1.390 . S
C1159 C1160 1.394 . S
C1159 C1165 1.465 . S
C1160 C1155 1.399 . S
C1160 C1159 1.394 . S
C1160 C1161 1.516 . S
C1161 C1160 1.516 . S
C1161 C1162 1.502 . S
C1161 C1163 1.561 . S
C1161 C1164 1.526 . S
C1162 H1146 0.959 . S
C1162 H1147 0.959 . S
C1162 H1148 0.961 . S
C1162 C1161 1.502 . S
C1163 H1149 0.960 . S
C1163 H1150 0.961 . S
C1163 H1151 0.959 . S
C1163 C1161 1.561 . S
C1164 C1161 1.526 . S
C1164 C1165 1.396 . S
C1164 C1169 1.390 . S
C1165 C1159 1.465 . S
C1165 C1164 1.396 . S
C1165 C1166 1.399 . S
C1166 H1152 0.929 . S
C1166 C1165 1.399 . S
C1166 C1167 1.385 . S
C1167 H1153 0.931 . S
C1167 C1166 1.385 . S
C1167 C1168 1.389 . S
C1168 C1167 1.389 . S
C1168 C1169 1.387 . S
C1169 H1154 0.930 . S
C1169 C1164 1.390 . S
C1169 C1168 1.387 . S
H1170 C1182 0.930 . S
H1171 C1184 0.930 . S
H1172 C1185 0.930 . S
H1173 C1189 0.959 . S
H1174 C1189 0.959 . S
H1175 C1189 0.961 . S
H1176 C1190 0.960 . S
H1177 C1190 0.961 . S
H1178 C1190 0.959 . S
H1179 C1193 0.929 . S
H1180 C1194 0.931 . S
H1181 C1196 0.930 . S
C1182 H1170 0.930 . S
C1182 C1183 1.399 . S
C1182 C1187 1.399 . S
C1183 C1182 1.399 . S
C1183 C1184 1.376 . S
C1184 H1171 0.930 . S
C1184 C1183 1.376 . S
C1184 C1185 1.388 . S
C1185 H1172 0.930 . S
C1185 C1184 1.388 . S
C1185 C1186 1.390 . S
C1186 C1185 1.390 . S
C1186 C1187 1.394 . S
C1186 C1192 1.465 . S
C1187 C1182 1.399 . S
C1187 C1186 1.394 . S
C1187 C1188 1.516 . S
C1188 C1187 1.516 . S
C1188 C1189 1.502 . S
C1188 C1190 1.561 . S
C1188 C1191 1.526 . S
C1189 H1173 0.959 . S
C1189 H1174 0.959 . S
C1189 H1175 0.961 . S
C1189 C1188 1.502 . S
C1190 H1176 0.960 . S
C1190 H1177 0.961 . S
C1190 H1178 0.959 . S
C1190 C1188 1.561 . S
C1191 C1188 1.526 . S
C1191 C1192 1.396 . S
C1191 C1196 1.390 . S
C1192 C1186 1.465 . S
C1192 C1191 1.396 . S
C1192 C1193 1.399 . S
C1193 H1179 0.929 . S
C1193 C1192 1.399 . S
C1193 C1194 1.385 . S
C1194 H1180 0.931 . S
C1194 C1193 1.385 . S
C1194 C1195 1.389 . S
C1195 C1194 1.389 . S
C1195 C1196 1.387 . S
C1196 H1181 0.930 . S
C1196 C1191 1.390 . S
C1196 C1195 1.387 . S
H1197 C1209 0.930 . S
H1198 C1211 0.930 . S
H1199 C1212 0.930 . S
H1200 C1216 0.959 . S
H1201 C1216 0.959 . S
H1202 C1216 0.961 . S
H1203 C1217 0.960 . S
H1204 C1217 0.961 . S
H1205 C1217 0.959 . S
H1206 C1220 0.929 . S
H1207 C1221 0.931 . S
H1208 C1223 0.930 . S
C1209 H1197 0.930 . S
C1209 C1210 1.399 . S
C1209 C1214 1.399 . S
C1210 C1209 1.399 . S
C1210 C1211 1.376 . S
C1211 H1198 0.930 . S
C1211 C1210 1.376 . S
C1211 C1212 1.388 . S
C1212 H1199 0.930 . S
C1212 C1211 1.388 . S
C1212 C1213 1.390 . S
C1213 C1212 1.390 . S
C1213 C1214 1.394 . S
C1213 C1219 1.465 . S
C1214 C1209 1.399 . S
C1214 C1213 1.394 . S
C1214 C1215 1.516 . S
C1215 C1214 1.516 . S
C1215 C1216 1.502 . S
C1215 C1217 1.561 . S
C1215 C1218 1.526 . S
C1216 H1200 0.959 . S
C1216 H1201 0.959 . S
C1216 H1202 0.961 . S
C1216 C1215 1.502 . S
C1217 H1203 0.960 . S
C1217 H1204 0.961 . S
C1217 H1205 0.959 . S
C1217 C1215 1.561 . S
C1218 C1215 1.526 . S
C1218 C1219 1.396 . S
C1218 C1223 1.390 . S
C1219 C1213 1.465 . S
C1219 C1218 1.396 . S
C1219 C1220 1.399 . S
C1220 H1206 0.929 . S
C1220 C1219 1.399 . S
C1220 C1221 1.385 . S
C1221 H1207 0.931 . S
C1221 C1220 1.385 . S
C1221 C1222 1.389 . S
C1222 C1221 1.389 . S
C1222 C1223 1.387 . S
C1223 H1208 0.930 . S
C1223 C1218 1.390 . S
C1223 C1222 1.387 . S
H1224 C1236 0.930 . S
H1225 C1238 0.930 . S
H1226 C1239 0.930 . S
H1227 C1243 0.959 . S
H1228 C1243 0.959 . S
H1229 C1243 0.961 . S
H1230 C1244 0.960 . S
H1231 C1244 0.961 . S
H1232 C1244 0.959 . S
H1233 C1247 0.929 . S
H1234 C1248 0.931 . S
H1235 C1250 0.930 . S
C1236 H1224 0.930 . S
C1236 C1237 1.399 . S
C1236 C1241 1.399 . S
C1237 C1236 1.399 . S
C1237 C1238 1.376 . S
C1238 H1225 0.930 . S
C1238 C1237 1.376 . S
C1238 C1239 1.388 . S
C1239 H1226 0.930 . S
C1239 C1238 1.388 . S
C1239 C1240 1.390 . S
C1240 C1239 1.390 . S
C1240 C1241 1.394 . S
C1240 C1246 1.465 . S
C1241 C1236 1.399 . S
C1241 C1240 1.394 . S
C1241 C1242 1.516 . S
C1242 C1241 1.516 . S
C1242 C1243 1.502 . S
C1242 C1244 1.561 . S
C1242 C1245 1.526 . S
C1243 H1227 0.959 . S
C1243 H1228 0.959 . S
C1243 H1229 0.961 . S
C1243 C1242 1.502 . S
C1244 H1230 0.960 . S
C1244 H1231 0.961 . S
C1244 H1232 0.959 . S
C1244 C1242 1.561 . S
C1245 C1242 1.526 . S
C1245 C1246 1.396 . S
C1245 C1250 1.390 . S
C1246 C1240 1.465 . S
C1246 C1245 1.396 . S
C1246 C1247 1.399 . S
C1247 H1233 0.929 . S
C1247 C1246 1.399 . S
C1247 C1248 1.385 . S
C1248 H1234 0.931 . S
C1248 C1247 1.385 . S
C1248 C1249 1.389 . S
C1249 C1248 1.389 . S
C1249 C1250 1.387 . S
C1250 H1235 0.930 . S
C1250 C1245 1.390 . S
C1250 C1249 1.387 . S
H1251 C1263 0.930 . S
H1252 C1265 0.930 . S
H1253 C1266 0.930 . S
H1254 C1270 0.959 . S
H1255 C1270 0.959 . S
H1256 C1270 0.961 . S
H1257 C1271 0.960 . S
H1258 C1271 0.961 . S
H1259 C1271 0.959 . S
H1260 C1274 0.929 . S
H1261 C1275 0.931 . S
H1262 C1277 0.930 . S
C1263 H1251 0.930 . S
C1263 C1264 1.399 . S
C1263 C1268 1.399 . S
C1264 C1263 1.399 . S
C1264 C1265 1.376 . S
C1265 H1252 0.930 . S
C1265 C1264 1.376 . S
C1265 C1266 1.388 . S
C1266 H1253 0.930 . S
C1266 C1265 1.388 . S
C1266 C1267 1.390 . S
C1267 C1266 1.390 . S
C1267 C1268 1.394 . S
C1267 C1273 1.465 . S
C1268 C1263 1.399 . S
C1268 C1267 1.394 . S
C1268 C1269 1.516 . S
C1269 C1268 1.516 . S
C1269 C1270 1.502 . S
C1269 C1271 1.561 . S
C1269 C1272 1.526 . S
C1270 H1254 0.959 . S
C1270 H1255 0.959 . S
C1270 H1256 0.961 . S
C1270 C1269 1.502 . S
C1271 H1257 0.960 . S
C1271 H1258 0.961 . S
C1271 H1259 0.959 . S
C1271 C1269 1.561 . S
C1272 C1269 1.526 . S
C1272 C1273 1.396 . S
C1272 C1277 1.390 . S
C1273 C1267 1.465 . S
C1273 C1272 1.396 . S
C1273 C1274 1.399 . S
C1274 H1260 0.929 . S
C1274 C1273 1.399 . S
C1274 C1275 1.385 . S
C1275 H1261 0.931 . S
C1275 C1274 1.385 . S
C1275 C1276 1.389 . S
C1276 C1275 1.389 . S
C1276 C1277 1.387 . S
C1277 H1262 0.930 . S
C1277 C1272 1.390 . S
C1277 C1276 1.387 . S
H1278 C1290 0.930 . S
H1279 C1292 0.930 . S
H1280 C1293 0.930 . S
H1281 C1297 0.959 . S
H1282 C1297 0.959 . S
H1283 C1297 0.961 . S
H1284 C1298 0.960 . S
H1285 C1298 0.961 . S
H1286 C1298 0.959 . S
H1287 C1301 0.929 . S
H1288 C1302 0.931 1_556 S
H1289 C1304 0.930 . S
C1290 H1278 0.930 . S
C1290 C1291 1.399 . S
C1290 C1295 1.399 . S
C1291 C1290 1.399 . S
C1291 C1292 1.376 . S
C1292 H1279 0.930 . S
C1292 C1291 1.376 . S
C1292 C1293 1.388 . S
C1293 H1280 0.930 . S
C1293 C1292 1.388 . S
C1293 C1294 1.390 . S
C1294 C1293 1.390 . S
C1294 C1295 1.394 . S
C1294 C1300 1.465 . S
C1295 C1290 1.399 . S
C1295 C1294 1.394 . S
C1295 C1296 1.516 . S
C1296 C1295 1.516 . S
C1296 C1297 1.502 . S
C1296 C1298 1.561 . S
C1296 C1299 1.526 . S
C1297 H1281 0.959 . S
C1297 H1282 0.959 . S
C1297 H1283 0.961 . S
C1297 C1296 1.502 . S
C1298 H1284 0.960 . S
C1298 H1285 0.961 . S
C1298 H1286 0.959 . S
C1298 C1296 1.561 . S
C1299 C1296 1.526 . S
C1299 C1300 1.396 . S
C1299 C1304 1.390 . S
C1300 C1294 1.465 . S
C1300 C1299 1.396 . S
C1300 C1301 1.399 . S
C1301 H1287 0.929 . S
C1301 C1300 1.399 . S
C1301 C1302 1.385 . S
C1302 H1288 0.931 1_554 S
C1302 C1301 1.385 . S
C1302 C1303 1.389 . S
C1303 C1302 1.389 . S
C1303 C1304 1.387 . S
C1304 H1289 0.930 . S
C1304 C1299 1.390 . S
C1304 C1303 1.387 . S
H1305 C1317 0.930 . S
H1306 C1319 0.930 . S
H1307 C1320 0.930 . S
H1308 C1324 0.959 . S
H1309 C1324 0.959 . S
H1310 C1324 0.961 . S
H1311 C1325 0.960 . S
H1312 C1325 0.961 . S
H1313 C1325 0.959 . S
H1314 C1328 0.929 . S
H1315 C1329 0.931 . S
H1316 C1331 0.930 . S
C1317 H1305 0.930 . S
C1317 C1318 1.399 . S
C1317 C1322 1.399 . S
C1318 C1317 1.399 . S
C1318 C1319 1.376 . S
C1319 H1306 0.930 . S
C1319 C1318 1.376 . S
C1319 C1320 1.388 . S
C1320 H1307 0.930 . S
C1320 C1319 1.388 . S
C1320 C1321 1.390 . S
C1321 C1320 1.390 . S
C1321 C1322 1.394 . S
C1321 C1327 1.465 . S
C1322 C1317 1.399 . S
C1322 C1321 1.394 . S
C1322 C1323 1.516 . S
C1323 C1322 1.516 . S
C1323 C1324 1.502 . S
C1323 C1325 1.561 . S
C1323 C1326 1.526 . S
C1324 H1308 0.959 . S
C1324 H1309 0.959 . S
C1324 H1310 0.961 . S
C1324 C1323 1.502 . S
C1325 H1311 0.960 . S
C1325 H1312 0.961 . S
C1325 H1313 0.959 . S
C1325 C1323 1.561 . S
C1326 C1323 1.526 . S
C1326 C1327 1.396 . S
C1326 C1331 1.390 . S
C1327 C1321 1.465 . S
C1327 C1326 1.396 . S
C1327 C1328 1.399 . S
C1328 H1314 0.929 . S
C1328 C1327 1.399 . S
C1328 C1329 1.385 . S
C1329 H1315 0.931 . S
C1329 C1328 1.385 . S
C1329 C1330 1.389 . S
C1330 C1329 1.389 . S
C1330 C1331 1.387 . S
C1331 H1316 0.930 . S
C1331 C1326 1.390 . S
C1331 C1330 1.387 . S
H1332 C1344 0.930 . S
H1333 C1346 0.930 . S
H1334 C1347 0.930 . S
H1335 C1351 0.959 . S
H1336 C1351 0.959 . S
H1337 C1351 0.961 . S
H1338 C1352 0.960 . S
H1339 C1352 0.961 . S
H1340 C1352 0.959 . S
H1341 C1355 0.929 . S
H1342 C1356 0.931 . S
H1343 C1358 0.930 . S
C1344 H1332 0.930 . S
C1344 C1345 1.399 . S
C1344 C1349 1.399 . S
C1345 C1344 1.399 . S
C1345 C1346 1.376 . S
C1346 H1333 0.930 . S
C1346 C1345 1.376 . S
C1346 C1347 1.388 . S
C1347 H1334 0.930 . S
C1347 C1346 1.388 . S
C1347 C1348 1.390 . S
C1348 C1347 1.390 . S
C1348 C1349 1.394 . S
C1348 C1354 1.465 . S
C1349 C1344 1.399 . S
C1349 C1348 1.394 . S
C1349 C1350 1.516 . S
C1350 C1349 1.516 . S
C1350 C1351 1.502 . S
C1350 C1352 1.561 . S
C1350 C1353 1.526 . S
C1351 H1335 0.959 . S
C1351 H1336 0.959 . S
C1351 H1337 0.961 . S
C1351 C1350 1.502 . S
C1352 H1338 0.960 . S
C1352 H1339 0.961 . S
C1352 H1340 0.959 . S
C1352 C1350 1.561 . S
C1353 C1350 1.526 . S
C1353 C1354 1.396 . S
C1353 C1358 1.390 . S
C1354 C1348 1.465 . S
C1354 C1353 1.396 . S
C1354 C1355 1.399 . S
C1355 H1341 0.929 . S
C1355 C1354 1.399 . S
C1355 C1356 1.385 . S
C1356 H1342 0.931 . S
C1356 C1355 1.385 . S
C1356 C1357 1.389 . S
C1357 C1356 1.389 . S
C1357 C1358 1.387 . S
C1358 H1343 0.930 . S
C1358 C1353 1.390 . S
C1358 C1357 1.387 . S
H1359 C1371 0.930 . S
H1360 C1373 0.930 . S
H1361 C1374 0.930 . S
H1362 C1378 0.959 . S
H1363 C1378 0.959 . S
H1364 C1378 0.961 . S
H1365 C1379 0.960 . S
H1366 C1379 0.973 . S
H1367 C1379 0.959 . S
H1368 C1382 0.929 . S
H1369 C1383 0.931 . S
H1370 C1385 0.930 . S
C1371 H1359 0.930 . S
C1371 C1372 1.399 . S
C1371 C1376 1.399 . S
C1372 C1371 1.399 . S
C1372 C1373 1.376 . S
C1373 H1360 0.930 . S
C1373 C1372 1.376 . S
C1373 C1374 1.388 . S
C1374 H1361 0.930 . S
C1374 C1373 1.388 . S
C1374 C1375 1.390 . S
C1375 C1374 1.390 . S
C1375 C1376 1.394 . S
C1375 C1381 1.465 1_556 S
C1376 C1371 1.399 . S
C1376 C1375 1.394 . S
C1376 C1377 1.516 1_556 S
C1377 C1376 1.516 1_554 S
C1377 C1378 1.502 . S
C1377 C1379 1.561 1_554 S
C1377 C1380 1.526 . S
C1378 H1362 0.959 . S
C1378 H1363 0.959 . S
C1378 H1364 0.961 . S
C1378 C1377 1.502 . S
C1379 H1365 0.960 . S
C1379 H1366 0.973 . S
C1379 H1367 0.959 . S
C1379 C1377 1.561 1_556 S
C1380 C1377 1.526 . S
C1380 C1381 1.396 . S
C1380 C1385 1.390 . S
C1381 C1375 1.465 1_554 S
C1381 C1380 1.396 . S
C1381 C1382 1.399 . S
C1382 H1368 0.929 . S
C1382 C1381 1.399 . S
C1382 C1383 1.385 . S
C1383 H1369 0.931 . S
C1383 C1382 1.385 . S
C1383 C1384 1.389 . S
C1384 C1383 1.389 . S
C1384 C1385 1.387 . S
C1385 H1370 0.930 . S
C1385 C1380 1.390 . S
C1385 C1384 1.387 . S
H1386 C1398 0.930 . S
H1387 C1400 0.930 . S
H1388 C1401 0.930 . S
H1389 C1405 0.959 1_556 S
H1390 C1405 0.959 . S
H1391 C1405 0.961 1_556 S
H1392 C1406 0.960 . S
H1393 C1406 0.961 . S
H1394 C1406 0.959 . S
H1395 C1409 0.929 . S
H1396 C1410 0.931 . S
H1397 C1412 0.930 . S
C1398 H1386 0.930 . S
C1398 C1399 1.399 . S
C1398 C1403 1.399 . S
C1399 C1398 1.399 . S
C1399 C1400 1.376 . S
C1400 H1387 0.930 . S
C1400 C1399 1.376 . S
C1400 C1401 1.388 . S
C1401 H1388 0.930 . S
C1401 C1400 1.388 . S
C1401 C1402 1.390 . S
C1402 C1401 1.390 . S
C1402 C1403 1.394 . S
C1402 C1408 1.465 1_556 S
C1403 C1398 1.399 . S
C1403 C1402 1.394 . S
C1403 C1404 1.516 1_556 S
C1404 C1403 1.516 1_554 S
C1404 C1405 1.502 . S
C1404 C1406 1.561 . S
C1404 C1407 1.526 . S
C1405 H1389 0.959 1_554 S
C1405 H1390 0.959 . S
C1405 H1391 0.961 1_554 S
C1405 C1404 1.502 . S
C1406 H1392 0.960 . S
C1406 H1393 0.961 . S
C1406 H1394 0.959 . S
C1406 C1404 1.561 . S
C1407 C1404 1.526 . S
C1407 C1408 1.396 . S
C1407 C1412 1.390 . S
C1408 C1402 1.465 1_554 S
C1408 C1407 1.396 . S
C1408 C1409 1.399 . S
C1409 H1395 0.929 . S
C1409 C1408 1.399 . S
C1409 C1410 1.385 . S
C1410 H1396 0.931 . S
C1410 C1409 1.385 . S
C1410 C1411 1.389 . S
C1411 C1410 1.389 . S
C1411 C1412 1.387 . S
C1412 H1397 0.930 . S
C1412 C1407 1.390 . S
C1412 C1411 1.387 . S
H1413 C1425 0.930 . S
H1414 C1427 0.930 . S
H1415 C1428 0.930 . S
H1416 C1432 0.959 . S
H1417 C1432 0.959 . S
H1418 C1432 0.961 . S
H1419 C1433 0.960 . S
H1420 C1433 0.961 . S
H1421 C1433 0.959 . S
H1422 C1436 0.929 1_556 S
H1423 C1437 0.931 . S
H1424 C1439 0.930 . S
C1425 H1413 0.930 . S
C1425 C1426 1.399 . S
C1425 C1430 1.399 . S
C1426 C1425 1.399 . S
C1426 C1427 1.376 . S
C1427 H1414 0.930 . S
C1427 C1426 1.376 . S
C1427 C1428 1.388 . S
C1428 H1415 0.930 . S
C1428 C1427 1.388 . S
C1428 C1429 1.390 . S
C1429 C1428 1.390 . S
C1429 C1430 1.394 . S
C1429 C1435 1.465 1_556 S
C1430 C1425 1.399 . S
C1430 C1429 1.394 . S
C1430 C1431 1.516 1_556 S
C1431 C1430 1.516 1_554 S
C1431 C1432 1.502 . S
C1431 C1433 1.561 . S
C1431 C1434 1.526 . S
C1432 H1416 0.959 . S
C1432 H1417 0.959 . S
C1432 H1418 0.961 . S
C1432 C1431 1.502 . S
C1433 H1419 0.960 . S
C1433 H1420 0.961 . S
C1433 H1421 0.959 . S
C1433 C1431 1.561 . S
C1434 C1431 1.526 . S
C1434 C1435 1.396 . S
C1434 C1439 1.390 . S
C1435 C1429 1.465 1_554 S
C1435 C1434 1.396 . S
C1435 C1436 1.399 . S
C1436 H1422 0.929 1_554 S
C1436 C1435 1.399 . S
C1436 C1437 1.385 . S
C1437 H1423 0.931 . S
C1437 C1436 1.385 . S
C1437 C1438 1.389 . S
C1438 C1437 1.389 . S
C1438 C1439 1.387 . S
C1439 H1424 0.930 . S
C1439 C1434 1.390 . S
C1439 C1438 1.387 . S
H1440 C1452 0.930 . S
H1441 C1454 0.930 . S
H1442 C1455 0.930 . S
H1443 C1459 0.959 . S
H1444 C1459 0.959 . S
H1445 C1459 0.961 . S
H1446 C1460 0.960 . S
H1447 C1460 0.961 . S
H1448 C1460 0.959 . S
H1449 C1463 0.929 . S
H1450 C1464 0.931 . S
H1451 C1466 0.930 . S
C1452 H1440 0.930 . S
C1452 C1453 1.399 . S
C1452 C1457 1.399 . S
C1453 C1452 1.399 . S
C1453 C1454 1.376 . S
C1454 H1441 0.930 . S
C1454 C1453 1.376 . S
C1454 C1455 1.388 . S
C1455 H1442 0.930 . S
C1455 C1454 1.388 . S
C1455 C1456 1.390 . S
C1456 C1455 1.390 . S
C1456 C1457 1.394 . S
C1456 C1462 1.465 . S
C1457 C1452 1.399 . S
C1457 C1456 1.394 . S
C1457 C1458 1.516 . S
C1458 C1457 1.516 . S
C1458 C1459 1.502 . S
C1458 C1460 1.561 . S
C1458 C1461 1.526 . S
C1459 H1443 0.959 . S
C1459 H1444 0.959 . S
C1459 H1445 0.961 . S
C1459 C1458 1.502 . S
C1460 H1446 0.960 . S
C1460 H1447 0.961 . S
C1460 H1448 0.959 . S
C1460 C1458 1.561 . S
C1461 C1458 1.526 . S
C1461 C1462 1.396 . S
C1461 C1466 1.390 . S
C1462 C1456 1.465 . S
C1462 C1461 1.396 . S
C1462 C1463 1.399 . S
C1463 H1449 0.929 . S
C1463 C1462 1.399 . S
C1463 C1464 1.385 . S
C1464 H1450 0.931 . S
C1464 C1463 1.385 . S
C1464 C1465 1.389 . S
C1465 C1464 1.389 . S
C1465 C1466 1.387 . S
C1466 H1451 0.930 . S
C1466 C1461 1.390 . S
C1466 C1465 1.387 . S
H1467 C1479 0.930 . S
H1468 C1481 0.930 . S
H1469 C1482 0.930 . S
H1470 C1486 0.959 . S
H1471 C1486 0.959 . S
H1472 C1486 0.961 . S
H1473 C1487 0.960 . S
H1474 C1487 0.961 . S
H1475 C1487 0.959 . S
H1476 C1490 0.929 . S
H1477 C1491 0.931 . S
H1478 C1493 0.930 . S
C1479 H1467 0.930 . S
C1479 C1480 1.399 . S
C1479 C1484 1.399 . S
C1480 C1479 1.399 . S
C1480 C1481 1.376 . S
C1481 H1468 0.930 . S
C1481 C1480 1.376 . S
C1481 C1482 1.388 . S
C1482 H1469 0.930 . S
C1482 C1481 1.388 . S
C1482 C1483 1.390 . S
C1483 C1482 1.390 . S
C1483 C1484 1.394 . S
C1483 C1489 1.465 . S
C1484 C1479 1.399 . S
C1484 C1483 1.394 . S
C1484 C1485 1.516 . S
C1485 C1484 1.516 . S
C1485 C1486 1.502 . S
C1485 C1487 1.561 . S
C1485 C1488 1.526 . S
C1486 H1470 0.959 . S
C1486 H1471 0.959 . S
C1486 H1472 0.961 . S
C1486 C1485 1.502 . S
C1487 H1473 0.960 . S
C1487 H1474 0.961 . S
C1487 H1475 0.959 . S
C1487 C1485 1.561 . S
C1488 C1485 1.526 . S
C1488 C1489 1.396 . S
C1488 C1493 1.390 . S
C1489 C1483 1.465 . S
C1489 C1488 1.396 . S
C1489 C1490 1.399 . S
C1490 H1476 0.929 . S
C1490 C1489 1.399 . S
C1490 C1491 1.385 . S
C1491 H1477 0.931 . S
C1491 C1490 1.385 . S
C1491 C1492 1.389 . S
C1492 C1491 1.389 . S
C1492 C1493 1.387 . S
C1493 H1478 0.930 . S
C1493 C1488 1.390 . S
C1493 C1492 1.387 . S
H1494 C1506 0.930 . S
H1495 C1508 0.930 . S
H1496 C1509 0.930 . S
H1497 C1513 0.959 . S
H1498 C1513 0.959 . S
H1499 C1513 0.961 . S
H1500 C1514 0.960 . S
H1501 C1514 0.961 . S
H1502 C1514 0.959 . S
H1503 C1517 0.929 . S
H1504 C1518 0.931 . S
H1505 C1520 0.930 . S
C1506 H1494 0.930 . S
C1506 C1507 1.399 . S
C1506 C1511 1.399 . S
C1507 C1506 1.399 . S
C1507 C1508 1.376 . S
C1508 H1495 0.930 . S
C1508 C1507 1.376 . S
C1508 C1509 1.388 . S
C1509 H1496 0.930 . S
C1509 C1508 1.388 . S
C1509 C1510 1.390 . S
C1510 C1509 1.390 . S
C1510 C1511 1.394 . S
C1510 C1516 1.465 . S
C1511 C1506 1.399 . S
C1511 C1510 1.394 . S
C1511 C1512 1.516 . S
C1512 C1511 1.516 . S
C1512 C1513 1.502 . S
C1512 C1514 1.561 . S
C1512 C1515 1.526 . S
C1513 H1497 0.959 . S
C1513 H1498 0.959 . S
C1513 H1499 0.961 . S
C1513 C1512 1.502 . S
C1514 H1500 0.960 . S
C1514 H1501 0.961 . S
C1514 H1502 0.959 . S
C1514 C1512 1.561 . S
C1515 C1512 1.526 . S
C1515 C1516 1.396 . S
C1515 C1520 1.390 . S
C1516 C1510 1.465 . S
C1516 C1515 1.396 . S
C1516 C1517 1.399 . S
C1517 H1503 0.929 . S
C1517 C1516 1.399 . S
C1517 C1518 1.385 . S
C1518 H1504 0.931 . S
C1518 C1517 1.385 . S
C1518 C1519 1.389 . S
C1519 C1518 1.389 . S
C1519 C1520 1.387 . S
C1520 H1505 0.930 . S
C1520 C1515 1.390 . S
C1520 C1519 1.387 . S
H1521 C1533 0.930 . S
H1522 C1535 0.930 . S
H1523 C1536 0.930 . S
H1524 C1540 0.959 . S
H1525 C1540 0.959 . S
H1526 C1540 0.961 . S
H1527 C1541 0.960 . S
H1528 C1541 0.961 . S
H1529 C1541 0.959 . S
H1530 C1544 0.929 . S
H1531 C1545 0.931 . S
H1532 C1547 0.930 . S
C1533 H1521 0.930 . S
C1533 C1534 1.399 . S
C1533 C1538 1.399 . S
C1534 C1533 1.399 . S
C1534 C1535 1.376 . S
C1535 H1522 0.930 . S
C1535 C1534 1.376 . S
C1535 C1536 1.388 . S
C1536 H1523 0.930 . S
C1536 C1535 1.388 . S
C1536 C1537 1.390 . S
C1537 C1536 1.390 . S
C1537 C1538 1.394 . S
C1537 C1543 1.465 . S
C1538 C1533 1.399 . S
C1538 C1537 1.394 . S
C1538 C1539 1.516 . S
C1539 C1538 1.516 . S
C1539 C1540 1.502 . S
C1539 C1541 1.561 . S
C1539 C1542 1.526 . S
C1540 H1524 0.959 . S
C1540 H1525 0.959 . S
C1540 H1526 0.961 . S
C1540 C1539 1.502 . S
C1541 H1527 0.960 . S
C1541 H1528 0.961 . S
C1541 H1529 0.959 . S
C1541 C1539 1.561 . S
C1542 C1539 1.526 . S
C1542 C1543 1.396 . S
C1542 C1547 1.390 . S
C1543 C1537 1.465 . S
C1543 C1542 1.396 . S
C1543 C1544 1.399 . S
C1544 H1530 0.929 . S
C1544 C1543 1.399 . S
C1544 C1545 1.385 . S
C1545 H1531 0.931 . S
C1545 C1544 1.385 . S
C1545 C1546 1.389 . S
C1546 C1545 1.389 . S
C1546 C1547 1.387 . S
C1547 H1532 0.930 . S
C1547 C1542 1.390 . S
C1547 C1546 1.387 . S
H1548 C1560 0.930 . S
H1549 C1562 0.930 . S
H1550 C1563 0.930 . S
H1551 C1567 0.959 . S
H1552 C1567 0.959 . S
H1553 C1567 0.961 . S
H1554 C1568 0.960 . S
H1555 C1568 0.961 . S
H1556 C1568 0.959 . S
H1557 C1571 0.929 . S
H1558 C1572 0.931 . S
H1559 C1574 0.930 . S
C1560 H1548 0.930 . S
C1560 C1561 1.399 . S
C1560 C1565 1.399 . S
C1561 C1560 1.399 . S
C1561 C1562 1.376 . S
C1562 H1549 0.930 . S
C1562 C1561 1.376 . S
C1562 C1563 1.388 . S
C1563 H1550 0.930 . S
C1563 C1562 1.388 . S
C1563 C1564 1.390 . S
C1564 C1563 1.390 . S
C1564 C1565 1.394 . S
C1564 C1570 1.465 . S
C1565 C1560 1.399 . S
C1565 C1564 1.394 . S
C1565 C1566 1.516 . S
C1566 C1565 1.516 . S
C1566 C1567 1.502 . S
C1566 C1568 1.561 . S
C1566 C1569 1.526 . S
C1567 H1551 0.959 . S
C1567 H1552 0.959 . S
C1567 H1553 0.961 . S
C1567 C1566 1.502 . S
C1568 H1554 0.960 . S
C1568 H1555 0.961 . S
C1568 H1556 0.959 . S
C1568 C1566 1.561 . S
C1569 C1566 1.526 . S
C1569 C1570 1.396 . S
C1569 C1574 1.390 . S
C1570 C1564 1.465 . S
C1570 C1569 1.396 . S
C1570 C1571 1.399 . S
C1571 H1557 0.929 . S
C1571 C1570 1.399 . S
C1571 C1572 1.385 . S
C1572 H1558 0.931 . S
C1572 C1571 1.385 . S
C1572 C1573 1.389 . S
C1573 C1572 1.389 . S
C1573 C1574 1.387 . S
C1574 H1559 0.930 . S
C1574 C1569 1.390 . S
C1574 C1573 1.387 . S
H1575 C1587 0.930 . S
H1576 C1589 0.930 . S
H1577 C1590 0.930 . S
H1578 C1594 0.959 . S
H1579 C1594 0.959 . S
H1580 C1594 0.961 . S
H1581 C1595 0.960 . S
H1582 C1595 0.961 . S
H1583 C1595 0.959 . S
H1584 C1598 0.929 . S
H1585 C1599 0.931 . S
H1586 C1601 0.930 . S
C1587 H1575 0.930 . S
C1587 C1588 1.399 . S
C1587 C1592 1.399 . S
C1588 C1587 1.399 . S
C1588 C1589 1.376 . S
C1589 H1576 0.930 . S
C1589 C1588 1.376 . S
C1589 C1590 1.388 . S
C1590 H1577 0.930 . S
C1590 C1589 1.388 . S
C1590 C1591 1.390 . S
C1591 C1590 1.390 . S
C1591 C1592 1.394 . S
C1591 C1597 1.465 . S
C1592 C1587 1.399 . S
C1592 C1591 1.394 . S
C1592 C1593 1.516 . S
C1593 C1592 1.516 . S
C1593 C1594 1.502 . S
C1593 C1595 1.561 . S
C1593 C1596 1.526 . S
C1594 H1578 0.959 . S
C1594 H1579 0.959 . S
C1594 H1580 0.961 . S
C1594 C1593 1.502 . S
C1595 H1581 0.960 . S
C1595 H1582 0.961 . S
C1595 H1583 0.959 . S
C1595 C1593 1.561 . S
C1596 C1593 1.526 . S
C1596 C1597 1.396 . S
C1596 C1601 1.390 . S
C1597 C1591 1.465 . S
C1597 C1596 1.396 . S
C1597 C1598 1.399 . S
C1598 H1584 0.929 . S
C1598 C1597 1.399 . S
C1598 C1599 1.385 . S
C1599 H1585 0.931 . S
C1599 C1598 1.385 . S
C1599 C1600 1.389 . S
C1600 C1599 1.389 . S
C1600 C1601 1.387 . S
C1601 H1586 0.930 . S
C1601 C1596 1.390 . S
C1601 C1600 1.387 . S
H1602 C1614 0.930 . S
H1603 C1616 0.930 . S
H1604 C1617 0.930 . S
H1605 C1621 0.959 . S
H1606 C1621 0.959 . S
H1607 C1621 0.961 . S
H1608 C1622 0.960 . S
H1609 C1622 0.961 . S
H1610 C1622 0.959 . S
H1611 C1625 0.929 . S
H1612 C1626 0.931 . S
H1613 C1628 0.930 . S
C1614 H1602 0.930 . S
C1614 C1615 1.399 . S
C1614 C1619 1.399 . S
C1615 C1614 1.399 . S
C1615 C1616 1.376 . S
C1616 H1603 0.930 . S
C1616 C1615 1.376 . S
C1616 C1617 1.388 . S
C1617 H1604 0.930 . S
C1617 C1616 1.388 . S
C1617 C1618 1.390 . S
C1618 C1617 1.390 . S
C1618 C1619 1.394 . S
C1618 C1624 1.465 . S
C1619 C1614 1.399 . S
C1619 C1618 1.394 . S
C1619 C1620 1.516 . S
C1620 C1619 1.516 . S
C1620 C1621 1.502 . S
C1620 C1622 1.561 . S
C1620 C1623 1.526 . S
C1621 H1605 0.959 . S
C1621 H1606 0.959 . S
C1621 H1607 0.961 . S
C1621 C1620 1.502 . S
C1622 H1608 0.960 . S
C1622 H1609 0.961 . S
C1622 H1610 0.959 . S
C1622 C1620 1.561 . S
C1623 C1620 1.526 . S
C1623 C1624 1.396 . S
C1623 C1628 1.390 . S
C1624 C1618 1.465 . S
C1624 C1623 1.396 . S
C1624 C1625 1.399 . S
C1625 H1611 0.929 . S
C1625 C1624 1.399 . S
C1625 C1626 1.385 . S
C1626 H1612 0.931 . S
C1626 C1625 1.385 . S
C1626 C1627 1.389 . S
C1627 C1626 1.389 . S
C1627 C1628 1.387 . S
C1628 H1613 0.930 . S
C1628 C1623 1.390 . S
C1628 C1627 1.387 . S
H1629 C1641 0.930 . S
H1630 C1643 0.930 . S
H1631 C1644 0.930 . S
H1632 C1648 0.959 . S
H1633 C1648 0.959 . S
H1634 C1648 0.961 . S
H1635 C1649 0.960 . S
H1636 C1649 0.961 . S
H1637 C1649 0.959 . S
H1638 C1652 0.929 . S
H1639 C1653 0.931 . S
H1640 C1655 0.930 . S
C1641 H1629 0.930 . S
C1641 C1642 1.399 . S
C1641 C1646 1.399 . S
C1642 C1641 1.399 . S
C1642 C1643 1.376 . S
C1643 H1630 0.930 . S
C1643 C1642 1.376 . S
C1643 C1644 1.388 . S
C1644 H1631 0.930 . S
C1644 C1643 1.388 . S
C1644 C1645 1.390 . S
C1645 C1644 1.390 . S
C1645 C1646 1.394 . S
C1645 C1651 1.465 . S
C1646 C1641 1.399 . S
C1646 C1645 1.394 . S
C1646 C1647 1.516 . S
C1647 C1646 1.516 . S
C1647 C1648 1.502 . S
C1647 C1649 1.561 . S
C1647 C1650 1.526 . S
C1648 H1632 0.959 . S
C1648 H1633 0.959 . S
C1648 H1634 0.961 . S
C1648 C1647 1.502 . S
C1649 H1635 0.960 . S
C1649 H1636 0.961 . S
C1649 H1637 0.959 . S
C1649 C1647 1.561 . S
C1650 C1647 1.526 . S
C1650 C1651 1.396 . S
C1650 C1655 1.390 . S
C1651 C1645 1.465 . S
C1651 C1650 1.396 . S
C1651 C1652 1.399 . S
C1652 H1638 0.929 . S
C1652 C1651 1.399 . S
C1652 C1653 1.385 . S
C1653 H1639 0.931 . S
C1653 C1652 1.385 . S
C1653 C1654 1.389 . S
C1654 C1653 1.389 . S
C1654 C1655 1.387 . S
C1655 H1640 0.930 . S
C1655 C1650 1.390 . S
C1655 C1654 1.387 . S
H1656 C1668 0.930 . S
H1657 C1670 0.930 . S
H1658 C1671 0.930 . S
H1659 C1675 0.959 . S
H1660 C1675 0.959 . S
H1661 C1675 0.961 . S
H1662 C1676 0.960 . S
H1663 C1676 0.961 . S
H1664 C1676 0.959 . S
H1665 C1679 0.929 . S
H1666 C1680 0.931 . S
H1667 C1682 0.930 . S
C1668 H1656 0.930 . S
C1668 C1669 1.399 . S
C1668 C1673 1.399 . S
C1669 C1668 1.399 . S
C1669 C1670 1.376 . S
C1670 H1657 0.930 . S
C1670 C1669 1.376 . S
C1670 C1671 1.388 . S
C1671 H1658 0.930 . S
C1671 C1670 1.388 . S
C1671 C1672 1.390 . S
C1672 C1671 1.390 . S
C1672 C1673 1.394 . S
C1672 C1678 1.465 . S
C1673 C1668 1.399 . S
C1673 C1672 1.394 . S
C1673 C1674 1.516 . S
C1674 C1673 1.516 . S
C1674 C1675 1.502 . S
C1674 C1676 1.561 . S
C1674 C1677 1.526 . S
C1675 H1659 0.959 . S
C1675 H1660 0.959 . S
C1675 H1661 0.961 . S
C1675 C1674 1.502 . S
C1676 H1662 0.960 . S
C1676 H1663 0.961 . S
C1676 H1664 0.959 . S
C1676 C1674 1.561 . S
C1677 C1674 1.526 . S
C1677 C1678 1.396 . S
C1677 C1682 1.390 . S
C1678 C1672 1.465 . S
C1678 C1677 1.396 . S
C1678 C1679 1.399 . S
C1679 H1665 0.929 . S
C1679 C1678 1.399 . S
C1679 C1680 1.385 . S
C1680 H1666 0.931 . S
C1680 C1679 1.385 . S
C1680 C1681 1.389 . S
C1681 C1680 1.389 . S
C1681 C1682 1.387 . S
C1682 H1667 0.930 . S
C1682 C1677 1.390 . S
C1682 C1681 1.387 . S
H1683 C1695 0.930 . S
H1684 C1697 0.930 . S
H1685 C1698 0.930 . S
H1686 C1702 0.959 . S
H1687 C1702 0.959 . S
H1688 C1702 0.961 . S
H1689 C1703 0.960 . S
H1690 C1703 0.961 . S
H1691 C1703 0.959 . S
H1692 C1706 0.929 . S
H1693 C1707 0.931 . S
H1694 C1709 0.930 . S
C1695 H1683 0.930 . S
C1695 C1696 1.399 . S
C1695 C1700 1.399 . S
C1696 C1695 1.399 . S
C1696 C1697 1.376 . S
C1697 H1684 0.930 . S
C1697 C1696 1.376 . S
C1697 C1698 1.388 . S
C1698 H1685 0.930 . S
C1698 C1697 1.388 . S
C1698 C1699 1.390 . S
C1699 C1698 1.390 . S
C1699 C1700 1.394 . S
C1699 C1705 1.465 . S
C1700 C1695 1.399 . S
C1700 C1699 1.394 . S
C1700 C1701 1.516 . S
C1701 C1700 1.516 . S
C1701 C1702 1.502 . S
C1701 C1703 1.561 . S
C1701 C1704 1.526 . S
C1702 H1686 0.959 . S
C1702 H1687 0.959 . S
C1702 H1688 0.961 . S
C1702 C1701 1.502 . S
C1703 H1689 0.960 . S
C1703 H1690 0.961 . S
C1703 H1691 0.959 . S
C1703 C1701 1.561 . S
C1704 C1701 1.526 . S
C1704 C1705 1.396 . S
C1704 C1709 1.390 . S
C1705 C1699 1.465 . S
C1705 C1704 1.396 . S
C1705 C1706 1.399 . S
C1706 H1692 0.929 . S
C1706 C1705 1.399 . S
C1706 C1707 1.385 . S
C1707 H1693 0.931 . S
C1707 C1706 1.385 . S
C1707 C1708 1.389 . S
C1708 C1707 1.389 . S
C1708 C1709 1.387 . S
C1709 H1694 0.930 . S
C1709 C1704 1.390 . S
C1709 C1708 1.387 . S
H1710 C1722 0.930 . S
H1711 C1724 0.930 . S
H1712 C1725 0.930 . S
H1713 C1729 0.959 . S
H1714 C1729 0.959 . S
H1715 C1729 0.961 . S
H1716 C1730 0.960 . S
H1717 C1730 0.961 . S
H1718 C1730 0.959 . S
H1719 C1733 0.929 . S
H1720 C1734 0.931 . S
H1721 C1736 0.930 . S
C1722 H1710 0.930 . S
C1722 C1723 1.399 . S
C1722 C1727 1.399 . S
C1723 C1722 1.399 . S
C1723 C1724 1.376 . S
C1724 H1711 0.930 . S
C1724 C1723 1.376 . S
C1724 C1725 1.388 . S
C1725 H1712 0.930 . S
C1725 C1724 1.388 . S
C1725 C1726 1.390 . S
C1726 C1725 1.390 . S
C1726 C1727 1.394 . S
C1726 C1732 1.465 . S
C1727 C1722 1.399 . S
C1727 C1726 1.394 . S
C1727 C1728 1.516 . S
C1728 C1727 1.516 . S
C1728 C1729 1.502 . S
C1728 C1730 1.561 . S
C1728 C1731 1.526 . S
C1729 H1713 0.959 . S
C1729 H1714 0.959 . S
C1729 H1715 0.961 . S
C1729 C1728 1.502 . S
C1730 H1716 0.960 . S
C1730 H1717 0.961 . S
C1730 H1718 0.959 . S
C1730 C1728 1.561 . S
C1731 C1728 1.526 . S
C1731 C1732 1.396 . S
C1731 C1736 1.390 . S
C1732 C1726 1.465 . S
C1732 C1731 1.396 . S
C1732 C1733 1.399 . S
C1733 H1719 0.929 . S
C1733 C1732 1.399 . S
C1733 C1734 1.385 . S
C1734 H1720 0.931 . S
C1734 C1733 1.385 . S
C1734 C1735 1.389 . S
C1735 C1734 1.389 . S
C1735 C1736 1.387 . S
C1736 H1721 0.930 . S
C1736 C1731 1.390 . S
C1736 C1735 1.387 . S
H1737 C1749 0.930 . S
H1738 C1751 0.930 . S
H1739 C1752 0.930 . S
H1740 C1756 0.959 . S
H1741 C1756 0.959 . S
H1742 C1756 0.961 . S
H1743 C1757 0.960 . S
H1744 C1757 0.961 . S
H1745 C1757 0.959 . S
H1746 C1760 0.929 . S
H1747 C1761 0.931 . S
H1748 C1763 0.930 . S
C1749 H1737 0.930 . S
C1749 C1750 1.399 . S
C1749 C1754 1.399 . S
C1750 C1749 1.399 . S
C1750 C1751 1.376 . S
C1751 H1738 0.930 . S
C1751 C1750 1.376 . S
C1751 C1752 1.388 . S
C1752 H1739 0.930 . S
C1752 C1751 1.388 . S
C1752 C1753 1.390 . S
C1753 C1752 1.390 . S
C1753 C1754 1.394 . S
C1753 C1759 1.465 . S
C1754 C1749 1.399 . S
C1754 C1753 1.394 . S
C1754 C1755 1.516 . S
C1755 C1754 1.516 . S
C1755 C1756 1.502 . S
C1755 C1757 1.561 . S
C1755 C1758 1.526 . S
C1756 H1740 0.959 . S
C1756 H1741 0.959 . S
C1756 H1742 0.961 . S
C1756 C1755 1.502 . S
C1757 H1743 0.960 . S
C1757 H1744 0.961 . S
C1757 H1745 0.959 . S
C1757 C1755 1.561 . S
C1758 C1755 1.526 . S
C1758 C1759 1.396 . S
C1758 C1763 1.390 . S
C1759 C1753 1.465 . S
C1759 C1758 1.396 . S
C1759 C1760 1.399 . S
C1760 H1746 0.929 . S
C1760 C1759 1.399 . S
C1760 C1761 1.385 . S
C1761 H1747 0.931 . S
C1761 C1760 1.385 . S
C1761 C1762 1.389 . S
C1762 C1761 1.389 . S
C1762 C1763 1.387 . S
C1763 H1748 0.930 . S
C1763 C1758 1.390 . S
C1763 C1762 1.387 . S
H1764 C1776 0.930 . S
H1765 C1778 0.930 . S
H1766 C1779 0.930 . S
H1767 C1783 0.959 . S
H1768 C1783 0.959 . S
H1769 C1783 0.961 . S
H1770 C1784 0.960 . S
H1771 C1784 0.961 . S
H1772 C1784 0.959 . S
H1773 C1787 0.929 . S
H1774 C1788 0.931 . S
H1775 C1790 0.930 . S
C1776 H1764 0.930 . S
C1776 C1777 1.399 . S
C1776 C1781 1.399 . S
C1777 C1776 1.399 . S
C1777 C1778 1.376 . S
C1778 H1765 0.930 . S
C1778 C1777 1.376 . S
C1778 C1779 1.388 . S
C1779 H1766 0.930 . S
C1779 C1778 1.388 . S
C1779 C1780 1.390 . S
C1780 C1779 1.390 . S
C1780 C1781 1.394 . S
C1780 C1786 1.465 . S
C1781 C1776 1.399 . S
C1781 C1780 1.394 . S
C1781 C1782 1.516 . S
C1782 C1781 1.516 . S
C1782 C1783 1.502 . S
C1782 C1784 1.561 . S
C1782 C1785 1.526 . S
C1783 H1767 0.959 . S
C1783 H1768 0.959 . S
C1783 H1769 0.961 . S
C1783 C1782 1.502 . S
C1784 H1770 0.960 . S
C1784 H1771 0.961 . S
C1784 H1772 0.959 . S
C1784 C1782 1.561 . S
C1785 C1782 1.526 . S
C1785 C1786 1.396 . S
C1785 C1790 1.390 . S
C1786 C1780 1.465 . S
C1786 C1785 1.396 . S
C1786 C1787 1.399 . S
C1787 H1773 0.929 . S
C1787 C1786 1.399 . S
C1787 C1788 1.385 . S
C1788 H1774 0.931 . S
C1788 C1787 1.385 . S
C1788 C1789 1.389 . S
C1789 C1788 1.389 . S
C1789 C1790 1.387 . S
C1790 H1775 0.930 . S
C1790 C1785 1.390 . S
C1790 C1789 1.387 . S
H1791 C1803 0.930 . S
H1792 C1805 0.930 . S
H1793 C1806 0.930 . S
H1794 C1810 0.959 . S
H1795 C1810 0.959 . S
H1796 C1810 0.961 . S
H1797 C1811 0.960 . S
H1798 C1811 0.961 . S
H1799 C1811 0.959 . S
H1800 C1814 0.929 . S
H1801 C1815 0.931 . S
H1802 C1817 0.930 . S
C1803 H1791 0.930 . S
C1803 C1804 1.399 . S
C1803 C1808 1.399 . S
C1804 C1803 1.399 . S
C1804 C1805 1.376 . S
C1805 H1792 0.930 . S
C1805 C1804 1.376 . S
C1805 C1806 1.388 . S
C1806 H1793 0.930 . S
C1806 C1805 1.388 . S
C1806 C1807 1.390 . S
C1807 C1806 1.390 . S
C1807 C1808 1.394 . S
C1807 C1813 1.465 . S
C1808 C1803 1.399 . S
C1808 C1807 1.394 . S
C1808 C1809 1.516 . S
C1809 C1808 1.516 . S
C1809 C1810 1.502 . S
C1809 C1811 1.561 . S
C1809 C1812 1.526 . S
C1810 H1794 0.959 . S
C1810 H1795 0.959 . S
C1810 H1796 0.961 . S
C1810 C1809 1.502 . S
C1811 H1797 0.960 . S
C1811 H1798 0.961 . S
C1811 H1799 0.959 . S
C1811 C1809 1.561 . S
C1812 C1809 1.526 . S
C1812 C1813 1.396 . S
C1812 C1817 1.390 . S
C1813 C1807 1.465 . S
C1813 C1812 1.396 . S
C1813 C1814 1.399 . S
C1814 H1800 0.929 . S
C1814 C1813 1.399 . S
C1814 C1815 1.385 . S
C1815 H1801 0.931 . S
C1815 C1814 1.385 . S
C1815 C1816 1.389 . S
C1816 C1815 1.389 . S
C1816 C1817 1.387 . S
C1817 H1802 0.930 . S
C1817 C1812 1.390 . S
C1817 C1816 1.387 . S
H1818 C1830 0.930 . S
H1819 C1832 0.930 . S
H1820 C1833 0.930 . S
H1821 C1837 0.959 . S
H1822 C1837 0.959 . S
H1823 C1837 0.961 . S
H1824 C1838 0.960 . S
H1825 C1838 0.961 . S
H1826 C1838 0.959 . S
H1827 C1841 0.929 . S
H1828 C1842 0.931 . S
H1829 C1844 0.930 . S
C1830 H1818 0.930 . S
C1830 C1831 1.399 . S
C1830 C1835 1.399 . S
C1831 C1830 1.399 . S
C1831 C1832 1.376 . S
C1832 H1819 0.930 . S
C1832 C1831 1.376 . S
C1832 C1833 1.388 . S
C1833 H1820 0.930 . S
C1833 C1832 1.388 . S
C1833 C1834 1.390 . S
C1834 C1833 1.390 . S
C1834 C1835 1.394 . S
C1834 C1840 1.465 . S
C1835 C1830 1.399 . S
C1835 C1834 1.394 . S
C1835 C1836 1.516 . S
C1836 C1835 1.516 . S
C1836 C1837 1.502 . S
C1836 C1838 1.561 . S
C1836 C1839 1.526 . S
C1837 H1821 0.959 . S
C1837 H1822 0.959 . S
C1837 H1823 0.961 . S
C1837 C1836 1.502 . S
C1838 H1824 0.960 . S
C1838 H1825 0.961 . S
C1838 H1826 0.959 . S
C1838 C1836 1.561 . S
C1839 C1836 1.526 . S
C1839 C1840 1.396 . S
C1839 C1844 1.390 . S
C1840 C1834 1.465 . S
C1840 C1839 1.396 . S
C1840 C1841 1.399 . S
C1841 H1827 0.929 . S
C1841 C1840 1.399 . S
C1841 C1842 1.385 . S
C1842 H1828 0.931 . S
C1842 C1841 1.385 . S
C1842 C1843 1.389 . S
C1843 C1842 1.389 . S
C1843 C1844 1.387 . S
C1844 H1829 0.930 . S
C1844 C1839 1.390 . S
C1844 C1843 1.387 . S
H1845 C1857 0.930 . S
H1846 C1859 0.930 . S
H1847 C1860 0.930 . S
H1848 C1864 0.959 . S
H1849 C1864 0.959 . S
H1850 C1864 0.961 . S
H1851 C1865 0.960 1_556 S
H1852 C1865 0.961 . S
H1853 C1865 0.959 . S
H1854 C1868 0.929 . S
H1855 C1869 0.931 . S
H1856 C1871 0.930 . S
C1857 H1845 0.930 . S
C1857 C1858 1.399 . S
C1857 C1862 1.399 . S
C1858 C1857 1.399 . S
C1858 C1859 1.376 . S
C1859 H1846 0.930 . S
C1859 C1858 1.376 . S
C1859 C1860 1.388 . S
C1860 H1847 0.930 . S
C1860 C1859 1.388 . S
C1860 C1861 1.390 . S
C1861 C1860 1.390 . S
C1861 C1862 1.394 . S
C1861 C1867 1.465 1_556 S
C1862 C1857 1.399 . S
C1862 C1861 1.394 . S
C1862 C1863 1.516 . S
C1863 C1862 1.516 . S
C1863 C1864 1.502 . S
C1863 C1865 1.561 1_556 S
C1863 C1866 1.526 1_556 S
C1864 H1848 0.959 . S
C1864 H1849 0.959 . S
C1864 H1850 0.961 . S
C1864 C1863 1.502 . S
C1865 H1851 0.960 1_554 S
C1865 H1852 0.961 . S
C1865 H1853 0.959 . S
C1865 C1863 1.561 1_554 S
C1866 C1863 1.526 1_554 S
C1866 C1867 1.396 . S
C1866 C1871 1.390 . S
C1867 C1861 1.465 1_554 S
C1867 C1866 1.396 . S
C1867 C1868 1.399 . S
C1868 H1854 0.929 . S
C1868 C1867 1.399 . S
C1868 C1869 1.385 . S
C1869 H1855 0.931 . S
C1869 C1868 1.385 . S
C1869 C1870 1.389 . S
C1870 C1869 1.389 . S
C1870 C1871 1.387 . S
C1871 H1856 0.930 . S
C1871 C1866 1.390 . S
C1871 C1870 1.387 . S
H1872 C1884 0.930 . S
H1873 C1886 0.930 . S
H1874 C1887 0.930 . S
H1875 C1891 0.959 . S
H1876 C1891 0.959 . S
H1877 C1891 0.961 . S
H1878 C1892 0.960 . S
H1879 C1892 0.961 . S
H1880 C1892 0.959 . S
H1881 C1895 0.929 1_556 S
H1882 C1896 0.931 . S
H1883 C1898 0.930 . S
C1884 H1872 0.930 . S
C1884 C1885 1.399 . S
C1884 C1889 1.399 . S
C1885 C1884 1.399 . S
C1885 C1886 1.376 . S
C1886 H1873 0.930 . S
C1886 C1885 1.376 . S
C1886 C1887 1.388 . S
C1887 H1874 0.930 . S
C1887 C1886 1.388 . S
C1887 C1888 1.390 . S
C1888 C1887 1.390 . S
C1888 C1889 1.394 . S
C1888 C1894 1.465 1_556 S
C1889 C1884 1.399 . S
C1889 C1888 1.394 . S
C1889 C1890 1.516 1_556 S
C1890 C1889 1.516 1_554 S
C1890 C1891 1.502 . S
C1890 C1892 1.561 . S
C1890 C1893 1.526 . S
C1891 H1875 0.959 . S
C1891 H1876 0.959 . S
C1891 H1877 0.961 . S
C1891 C1890 1.502 . S
C1892 H1878 0.960 . S
C1892 H1879 0.961 . S
C1892 H1880 0.959 . S
C1892 C1890 1.561 . S
C1893 C1890 1.526 . S
C1893 C1894 1.396 . S
C1893 C1898 1.390 . S
C1894 C1888 1.465 1_554 S
C1894 C1893 1.396 . S
C1894 C1895 1.399 . S
C1895 H1881 0.929 1_554 S
C1895 C1894 1.399 . S
C1895 C1896 1.385 . S
C1896 H1882 0.931 . S
C1896 C1895 1.385 . S
C1896 C1897 1.389 . S
C1897 C1896 1.389 . S
C1897 C1898 1.387 . S
C1898 H1883 0.930 . S
C1898 C1893 1.390 . S
C1898 C1897 1.387 . S
H1899 C1911 0.930 . S
H1900 C1913 0.930 . S
H1901 C1914 0.930 . S
H1902 C1918 0.959 . S
H1903 C1918 0.959 . S
H1904 C1918 0.961 . S
H1905 C1919 0.960 . S
H1906 C1919 0.961 . S
H1907 C1919 0.959 . S
H1908 C1922 0.929 1_556 S
H1909 C1923 0.931 . S
H1910 C1925 0.930 . S
C1911 H1899 0.930 . S
C1911 C1912 1.399 . S
C1911 C1916 1.399 . S
C1912 C1911 1.399 . S
C1912 C1913 1.376 . S
C1913 H1900 0.930 . S
C1913 C1912 1.376 . S
C1913 C1914 1.388 . S
C1914 H1901 0.930 . S
C1914 C1913 1.388 . S
C1914 C1915 1.390 . S
C1915 C1914 1.390 . S
C1915 C1916 1.394 . S
C1915 C1921 1.465 1_556 S
C1916 C1911 1.399 . S
C1916 C1915 1.394 . S
C1916 C1917 1.516 1_556 S
C1917 C1916 1.516 1_554 S
C1917 C1918 1.502 . S
C1917 C1919 1.561 . S
C1917 C1920 1.526 . S
C1918 H1902 0.959 . S
C1918 H1903 0.959 . S
C1918 H1904 0.961 . S
C1918 C1917 1.502 . S
C1919 H1905 0.960 . S
C1919 H1906 0.961 . S
C1919 H1907 0.959 . S
C1919 C1917 1.561 . S
C1920 C1917 1.526 . S
C1920 C1921 1.396 . S
C1920 C1925 1.390 . S
C1921 C1915 1.465 1_554 S
C1921 C1920 1.396 . S
C1921 C1922 1.399 . S
C1922 H1908 0.929 1_554 S
C1922 C1921 1.399 . S
C1922 C1923 1.385 . S
C1923 H1909 0.931 . S
C1923 C1922 1.385 . S
C1923 C1924 1.389 . S
C1924 C1923 1.389 . S
C1924 C1925 1.387 . S
C1925 H1910 0.930 . S
C1925 C1920 1.390 . S
C1925 C1924 1.387 . S
H1926 C1938 0.930 . S
H1927 C1940 0.930 . S
H1928 C1941 0.930 . S
H1929 C1945 0.959 . S
H1930 C1945 0.959 1_554 S
H1931 C1945 0.961 . S
H1932 C1946 0.960 . S
H1933 C1946 0.961 . S
H1934 C1946 0.959 . S
H1935 C1949 0.929 . S
H1936 C1950 0.931 . S
H1937 C1952 0.930 . S
C1938 H1926 0.930 . S
C1938 C1939 1.399 . S
C1938 C1943 1.399 . S
C1939 C1938 1.399 . S
C1939 C1940 1.376 . S
C1940 H1927 0.930 . S
C1940 C1939 1.376 . S
C1940 C1941 1.388 . S
C1941 H1928 0.930 . S
C1941 C1940 1.388 . S
C1941 C1942 1.390 . S
C1942 C1941 1.390 . S
C1942 C1943 1.394 . S
C1942 C1948 1.465 . S
C1943 C1938 1.399 . S
C1943 C1942 1.394 . S
C1943 C1944 1.516 . S
C1944 C1943 1.516 . S
C1944 C1945 1.502 . S
C1944 C1946 1.561 1_556 S
C1944 C1947 1.526 . S
C1945 H1929 0.959 . S
C1945 H1930 0.959 1_556 S
C1945 H1931 0.961 . S
C1945 C1944 1.502 . S
C1946 H1932 0.960 . S
C1946 H1933 0.961 . S
C1946 H1934 0.959 . S
C1946 C1944 1.561 1_554 S
C1947 C1944 1.526 . S
C1947 C1948 1.396 . S
C1947 C1952 1.390 1_556 S
C1948 C1942 1.465 . S
C1948 C1947 1.396 . S
C1948 C1949 1.399 . S
C1949 H1935 0.929 . S
C1949 C1948 1.399 . S
C1949 C1950 1.385 . S
C1950 H1936 0.931 . S
C1950 C1949 1.385 . S
C1950 C1951 1.389 . S
C1951 C1950 1.389 . S
C1951 C1952 1.387 1_556 S
C1952 H1937 0.930 . S
C1952 C1947 1.390 1_554 S
C1952 C1951 1.387 1_554 S
H1953 C1965 0.930 . S
H1954 C1967 0.930 . S
H1955 C1968 0.930 . S
H1956 C1972 0.959 . S
H1957 C1972 0.959 . S
H1958 C1972 0.961 . S
H1959 C1973 0.960 1_554 S
H1960 C1973 0.961 . S
H1961 C1973 0.959 . S
H1962 C1976 0.929 . S
H1963 C1977 0.931 . S
H1964 C1979 0.930 . S
C1965 H1953 0.930 . S
C1965 C1966 1.399 1_554 S
C1965 C1970 1.399 1_554 S
C1966 C1965 1.399 1_556 S
C1966 C1967 1.376 . S
C1967 H1954 0.930 . S
C1967 C1966 1.376 . S
C1967 C1968 1.388 . S
C1968 H1955 0.930 . S
C1968 C1967 1.388 . S
C1968 C1969 1.390 . S
C1969 C1968 1.390 . S
C1969 C1970 1.394 . S
C1969 C1975 1.465 . S
C1970 C1965 1.399 1_556 S
C1970 C1969 1.394 . S
C1970 C1971 1.516 . S
C1971 C1970 1.516 . S
C1971 C1972 1.502 1_556 S
C1971 C1973 1.561 . S
C1971 C1974 1.526 . S
C1972 H1956 0.959 . S
C1972 H1957 0.959 . S
C1972 H1958 0.961 . S
C1972 C1971 1.502 1_554 S
C1973 H1959 0.960 1_556 S
C1973 H1960 0.961 . S
C1973 H1961 0.959 . S
C1973 C1971 1.561 . S
C1974 C1971 1.526 . S
C1974 C1975 1.396 . S
C1974 C1979 1.390 . S
C1975 C1969 1.465 . S
C1975 C1974 1.396 . S
C1975 C1976 1.399 . S
C1976 H1962 0.929 . S
C1976 C1975 1.399 . S
C1976 C1977 1.385 . S
C1977 H1963 0.931 . S
C1977 C1976 1.385 . S
C1977 C1978 1.389 . S
C1978 C1977 1.389 . S
C1978 C1979 1.387 . S
C1979 H1964 0.930 . S
C1979 C1974 1.390 . S
C1979 C1978 1.387 . S
H1980 C1992 0.930 . S
H1981 C1994 0.930 . S
H1982 C1995 0.930 . S
H1983 C1999 0.959 . S
H1984 C1999 0.959 1_554 S
H1985 C1999 0.961 . S
H1986 C2000 0.960 . S
H1987 C2000 0.961 . S
H1988 C2000 0.959 . S
H1989 C2003 0.929 . S
H1990 C2004 0.931 . S
H1991 C2006 0.930 . S
C1992 H1980 0.930 . S
C1992 C1993 1.399 . S
C1992 C1997 1.399 . S
C1993 C1992 1.399 . S
C1993 C1994 1.376 . S
C1994 H1981 0.930 . S
C1994 C1993 1.376 . S
C1994 C1995 1.388 . S
C1995 H1982 0.930 . S
C1995 C1994 1.388 . S
C1995 C1996 1.390 . S
C1996 C1995 1.390 . S
C1996 C1997 1.394 . S
C1996 C2002 1.465 . S
C1997 C1992 1.399 . S
C1997 C1996 1.394 . S
C1997 C1998 1.516 . S
C1998 C1997 1.516 . S
C1998 C1999 1.502 . S
C1998 C2000 1.561 1_556 S
C1998 C2001 1.526 . S
C1999 H1983 0.959 . S
C1999 H1984 0.959 1_556 S
C1999 H1985 0.961 . S
C1999 C1998 1.502 . S
C2000 H1986 0.960 . S
C2000 H1987 0.961 . S
C2000 H1988 0.959 . S
C2000 C1998 1.561 1_554 S
C2001 C1998 1.526 . S
C2001 C2002 1.396 . S
C2001 C2006 1.390 1_556 S
C2002 C1996 1.465 . S
C2002 C2001 1.396 . S
C2002 C2003 1.399 . S
C2003 H1989 0.929 . S
C2003 C2002 1.399 . S
C2003 C2004 1.385 . S
C2004 H1990 0.931 . S
C2004 C2003 1.385 . S
C2004 C2005 1.389 . S
C2005 C2004 1.389 . S
C2005 C2006 1.387 1_556 S
C2006 H1991 0.930 . S
C2006 C2001 1.390 1_554 S
C2006 C2005 1.387 1_554 S
H2007 C2019 0.930 . S
H2008 C2021 0.930 . S
H2009 C2022 0.930 . S
H2010 C2026 0.959 . S
H2011 C2026 0.959 . S
H2012 C2026 0.961 . S
H2013 C2027 0.960 . S
H2014 C2027 0.961 . S
H2015 C2027 0.959 . S
H2016 C2030 0.929 . S
H2017 C2031 0.931 . S
H2018 C2033 0.930 . S
C2019 H2007 0.930 . S
C2019 C2020 1.399 . S
C2019 C2024 1.399 . S
C2020 C2019 1.399 . S
C2020 C2021 1.376 . S
C2021 H2008 0.930 . S
C2021 C2020 1.376 . S
C2021 C2022 1.388 . S
C2022 H2009 0.930 . S
C2022 C2021 1.388 . S
C2022 C2023 1.390 . S
C2023 C2022 1.390 . S
C2023 C2024 1.394 . S
C2023 C2029 1.465 . S
C2024 C2019 1.399 . S
C2024 C2023 1.394 . S
C2024 C2025 1.516 . S
C2025 C2024 1.516 . S
C2025 C2026 1.502 . S
C2025 C2027 1.561 . S
C2025 C2028 1.526 . S
C2026 H2010 0.959 . S
C2026 H2011 0.959 . S
C2026 H2012 0.961 . S
C2026 C2025 1.502 . S
C2027 H2013 0.960 . S
C2027 H2014 0.961 . S
C2027 H2015 0.959 . S
C2027 C2025 1.561 . S
C2028 C2025 1.526 . S
C2028 C2029 1.396 . S
C2028 C2033 1.390 . S
C2029 C2023 1.465 . S
C2029 C2028 1.396 . S
C2029 C2030 1.399 . S
C2030 H2016 0.929 . S
C2030 C2029 1.399 . S
C2030 C2031 1.385 . S
C2031 H2017 0.931 . S
C2031 C2030 1.385 . S
C2031 C2032 1.389 . S
C2032 C2031 1.389 . S
C2032 C2033 1.387 . S
C2033 H2018 0.930 . S
C2033 C2028 1.390 . S
C2033 C2032 1.387 . S
H2034 C2046 0.930 . S
H2035 C2048 0.930 . S
H2036 C2049 0.930 . S
H2037 C2053 0.959 . S
H2038 C2053 0.959 . S
H2039 C2053 0.961 . S
H2040 C2054 0.960 . S
H2041 C2054 0.961 . S
H2042 C2054 0.959 . S
H2043 C2057 0.929 . S
H2044 C2058 0.931 . S
H2045 C2060 0.930 . S
C2046 H2034 0.930 . S
C2046 C2047 1.399 . S
C2046 C2051 1.399 . S
C2047 C2046 1.399 . S
C2047 C2048 1.376 . S
C2048 H2035 0.930 . S
C2048 C2047 1.376 . S
C2048 C2049 1.388 . S
C2049 H2036 0.930 . S
C2049 C2048 1.388 . S
C2049 C2050 1.390 . S
C2050 C2049 1.390 . S
C2050 C2051 1.394 . S
C2050 C2056 1.465 . S
C2051 C2046 1.399 . S
C2051 C2050 1.394 . S
C2051 C2052 1.516 . S
C2052 C2051 1.516 . S
C2052 C2053 1.502 . S
C2052 C2054 1.561 . S
C2052 C2055 1.526 . S
C2053 H2037 0.959 . S
C2053 H2038 0.959 . S
C2053 H2039 0.961 . S
C2053 C2052 1.502 . S
C2054 H2040 0.960 . S
C2054 H2041 0.961 . S
C2054 H2042 0.959 . S
C2054 C2052 1.561 . S
C2055 C2052 1.526 . S
C2055 C2056 1.396 . S
C2055 C2060 1.390 . S
C2056 C2050 1.465 . S
C2056 C2055 1.396 . S
C2056 C2057 1.399 . S
C2057 H2043 0.929 . S
C2057 C2056 1.399 . S
C2057 C2058 1.385 . S
C2058 H2044 0.931 . S
C2058 C2057 1.385 . S
C2058 C2059 1.389 . S
C2059 C2058 1.389 . S
C2059 C2060 1.387 . S
C2060 H2045 0.930 . S
C2060 C2055 1.390 . S
C2060 C2059 1.387 . S
H2061 C2073 0.930 . S
H2062 C2075 0.930 . S
H2063 C2076 0.930 . S
H2064 C2080 0.959 . S
H2065 C2080 0.959 . S
H2066 C2080 0.961 . S
H2067 C2081 0.960 . S
H2068 C2081 0.961 . S
H2069 C2081 0.959 . S
H2070 C2084 0.929 . S
H2071 C2085 0.931 . S
H2072 C2087 0.930 . S
C2073 H2061 0.930 . S
C2073 C2074 1.399 . S
C2073 C2078 1.399 . S
C2074 C2073 1.399 . S
C2074 C2075 1.376 . S
C2075 H2062 0.930 . S
C2075 C2074 1.376 . S
C2075 C2076 1.388 . S
C2076 H2063 0.930 . S
C2076 C2075 1.388 . S
C2076 C2077 1.390 . S
C2077 C2076 1.390 . S
C2077 C2078 1.394 . S
C2077 C2083 1.465 . S
C2078 C2073 1.399 . S
C2078 C2077 1.394 . S
C2078 C2079 1.516 . S
C2079 C2078 1.516 . S
C2079 C2080 1.502 . S
C2079 C2081 1.561 . S
C2079 C2082 1.526 . S
C2080 H2064 0.959 . S
C2080 H2065 0.959 . S
C2080 H2066 0.961 . S
C2080 C2079 1.502 . S
C2081 H2067 0.960 . S
C2081 H2068 0.961 . S
C2081 H2069 0.959 . S
C2081 C2079 1.561 . S
C2082 C2079 1.526 . S
C2082 C2083 1.396 . S
C2082 C2087 1.390 . S
C2083 C2077 1.465 . S
C2083 C2082 1.396 . S
C2083 C2084 1.399 . S
C2084 H2070 0.929 . S
C2084 C2083 1.399 . S
C2084 C2085 1.385 . S
C2085 H2071 0.931 . S
C2085 C2084 1.385 . S
C2085 C2086 1.389 . S
C2086 C2085 1.389 . S
C2086 C2087 1.387 . S
C2087 H2072 0.930 . S
C2087 C2082 1.390 . S
C2087 C2086 1.387 . S
H2088 C2100 0.930 . S
H2089 C2102 0.930 . S
H2090 C2103 0.930 . S
H2091 C2107 0.959 . S
H2092 C2107 0.959 . S
H2093 C2107 0.961 . S
H2094 C2108 0.960 . S
H2095 C2108 0.961 . S
H2096 C2108 0.959 . S
H2097 C2111 0.929 . S
H2098 C2112 0.931 . S
H2099 C2114 0.930 . S
C2100 H2088 0.930 . S
C2100 C2101 1.399 . S
C2100 C2105 1.399 . S
C2101 C2100 1.399 . S
C2101 C2102 1.376 . S
C2102 H2089 0.930 . S
C2102 C2101 1.376 . S
C2102 C2103 1.388 . S
C2103 H2090 0.930 . S
C2103 C2102 1.388 . S
C2103 C2104 1.390 . S
C2104 C2103 1.390 . S
C2104 C2105 1.394 . S
C2104 C2110 1.465 . S
C2105 C2100 1.399 . S
C2105 C2104 1.394 . S
C2105 C2106 1.516 . S
C2106 C2105 1.516 . S
C2106 C2107 1.502 . S
C2106 C2108 1.561 . S
C2106 C2109 1.526 . S
C2107 H2091 0.959 . S
C2107 H2092 0.959 . S
C2107 H2093 0.961 . S
C2107 C2106 1.502 . S
C2108 H2094 0.960 . S
C2108 H2095 0.961 . S
C2108 H2096 0.959 . S
C2108 C2106 1.561 . S
C2109 C2106 1.526 . S
C2109 C2110 1.396 . S
C2109 C2114 1.390 . S
C2110 C2104 1.465 . S
C2110 C2109 1.396 . S
C2110 C2111 1.399 . S
C2111 H2097 0.929 . S
C2111 C2110 1.399 . S
C2111 C2112 1.385 . S
C2112 H2098 0.931 . S
C2112 C2111 1.385 . S
C2112 C2113 1.389 . S
C2113 C2112 1.389 . S
C2113 C2114 1.387 . S
C2114 H2099 0.930 . S
C2114 C2109 1.390 . S
C2114 C2113 1.387 . S
H2115 C2127 0.930 . S
H2116 C2129 0.930 . S
H2117 C2130 0.930 . S
H2118 C2134 0.959 . S
H2119 C2134 0.959 . S
H2120 C2134 0.961 . S
H2121 C2135 0.960 . S
H2122 C2135 0.961 . S
H2123 C2135 0.959 . S
H2124 C2138 0.929 . S
H2125 C2139 0.931 . S
H2126 C2141 0.930 1_556 S
C2127 H2115 0.930 . S
C2127 C2128 1.399 . S
C2127 C2132 1.399 . S
C2128 C2127 1.399 . S
C2128 C2129 1.376 . S
C2129 H2116 0.930 . S
C2129 C2128 1.376 . S
C2129 C2130 1.388 . S
C2130 H2117 0.930 . S
C2130 C2129 1.388 . S
C2130 C2131 1.390 . S
C2131 C2130 1.390 . S
C2131 C2132 1.394 . S
C2131 C2137 1.465 . S
C2132 C2127 1.399 . S
C2132 C2131 1.394 . S
C2132 C2133 1.516 . S
C2133 C2132 1.516 . S
C2133 C2134 1.502 1_554 S
C2133 C2135 1.561 . S
C2133 C2136 1.526 . S
C2134 H2118 0.959 . S
C2134 H2119 0.959 . S
C2134 H2120 0.961 . S
C2134 C2133 1.502 1_556 S
C2135 H2121 0.960 . S
C2135 H2122 0.961 . S
C2135 H2123 0.959 . S
C2135 C2133 1.561 . S
C2136 C2133 1.526 . S
C2136 C2137 1.396 . S
C2136 C2141 1.390 . S
C2137 C2131 1.465 . S
C2137 C2136 1.396 . S
C2137 C2138 1.399 . S
C2138 H2124 0.929 . S
C2138 C2137 1.399 . S
C2138 C2139 1.385 . S
C2139 H2125 0.931 . S
C2139 C2138 1.385 . S
C2139 C2140 1.389 . S
C2140 C2139 1.389 . S
C2140 C2141 1.387 . S
C2141 H2126 0.930 1_554 S
C2141 C2136 1.390 . S
C2141 C2140 1.387 . S
H2142 C2154 0.930 . S
H2143 C2156 0.930 . S
H2144 C2157 0.930 . S
H2145 C2161 0.959 . S
H2146 C2161 0.959 . S
H2147 C2161 0.961 . S
H2148 C2162 0.960 . S
H2149 C2162 0.961 1_556 S
H2150 C2162 0.959 1_556 S
H2151 C2165 0.929 . S
H2152 C2166 0.931 . S
H2153 C2168 0.924 1_556 S
C2154 H2142 0.930 . S
C2154 C2155 1.399 . S
C2154 C2159 1.399 . S
C2155 C2154 1.399 . S
C2155 C2156 1.376 . S
C2156 H2143 0.930 . S
C2156 C2155 1.376 . S
C2156 C2157 1.388 . S
C2157 H2144 0.930 . S
C2157 C2156 1.388 . S
C2157 C2158 1.390 . S
C2158 C2157 1.390 . S
C2158 C2159 1.394 . S
C2158 C2164 1.465 . S
C2159 C2154 1.399 . S
C2159 C2158 1.394 . S
C2159 C2160 1.516 . S
C2160 C2159 1.516 . S
C2160 C2161 1.502 . S
C2160 C2162 1.561 . S
C2160 C2163 1.526 . S
C2161 H2145 0.959 . S
C2161 H2146 0.959 . S
C2161 H2147 0.961 . S
C2161 C2160 1.502 . S
C2162 H2148 0.960 . S
C2162 H2149 0.961 1_554 S
C2162 H2150 0.959 1_554 S
C2162 C2160 1.561 . S
C2163 C2160 1.526 . S
C2163 C2164 1.396 . S
C2163 C2168 1.390 . S
C2164 C2158 1.465 . S
C2164 C2163 1.396 . S
C2164 C2165 1.399 . S
C2165 H2151 0.929 . S
C2165 C2164 1.399 . S
C2165 C2166 1.385 . S
C2166 H2152 0.931 . S
C2166 C2165 1.385 . S
C2166 C2167 1.389 . S
C2167 C2166 1.389 . S
C2167 C2168 1.387 . S
C2168 H2153 0.924 1_554 S
C2168 C2163 1.390 . S
C2168 C2167 1.387 . S
H2169 C2181 0.930 . S
H2170 C2183 0.930 . S
H2171 C2184 0.930 . S
H2172 C2188 0.959 . S
H2173 C2188 0.959 . S
H2174 C2188 0.961 . S
H2175 C2189 0.960 . S
H2176 C2189 0.961 . S
H2177 C2189 0.959 . S
H2178 C2192 0.929 . S
H2179 C2193 0.931 . S
H2180 C2195 0.930 . S
C2181 H2169 0.930 . S
C2181 C2182 1.399 . S
C2181 C2186 1.399 . S
C2182 C2181 1.399 . S
C2182 C2183 1.376 . S
C2183 H2170 0.930 . S
C2183 C2182 1.376 . S
C2183 C2184 1.388 . S
C2184 H2171 0.930 . S
C2184 C2183 1.388 . S
C2184 C2185 1.390 . S
C2185 C2184 1.390 . S
C2185 C2186 1.394 . S
C2185 C2191 1.465 . S
C2186 C2181 1.399 . S
C2186 C2185 1.394 . S
C2186 C2187 1.516 . S
C2187 C2186 1.516 . S
C2187 C2188 1.502 . S
C2187 C2189 1.561 . S
C2187 C2190 1.526 . S
C2188 H2172 0.959 . S
C2188 H2173 0.959 . S
C2188 H2174 0.961 . S
C2188 C2187 1.502 . S
C2189 H2175 0.960 . S
C2189 H2176 0.961 . S
C2189 H2177 0.959 . S
C2189 C2187 1.561 . S
C2190 C2187 1.526 . S
C2190 C2191 1.396 . S
C2190 C2195 1.390 . S
C2191 C2185 1.465 . S
C2191 C2190 1.396 . S
C2191 C2192 1.399 . S
C2192 H2178 0.929 . S
C2192 C2191 1.399 . S
C2192 C2193 1.385 . S
C2193 H2179 0.931 . S
C2193 C2192 1.385 . S
C2193 C2194 1.389 . S
C2194 C2193 1.389 . S
C2194 C2195 1.387 . S
C2195 H2180 0.930 . S
C2195 C2190 1.390 . S
C2195 C2194 1.387 . S
H2196 C2208 0.930 . S
H2197 C2210 0.930 . S
H2198 C2211 0.930 . S
H2199 C2215 0.959 . S
H2200 C2215 0.959 . S
H2201 C2215 0.961 . S
H2202 C2216 0.960 . S
H2203 C2216 0.961 . S
H2204 C2216 0.959 . S
H2205 C2219 0.929 . S
H2206 C2220 0.931 . S
H2207 C2222 0.930 . S
C2208 H2196 0.930 . S
C2208 C2209 1.399 . S
C2208 C2213 1.399 . S
C2209 C2208 1.399 . S
C2209 C2210 1.376 . S
C2210 H2197 0.930 . S
C2210 C2209 1.376 . S
C2210 C2211 1.388 . S
C2211 H2198 0.930 . S
C2211 C2210 1.388 . S
C2211 C2212 1.390 . S
C2212 C2211 1.390 . S
C2212 C2213 1.394 . S
C2212 C2218 1.465 . S
C2213 C2208 1.399 . S
C2213 C2212 1.394 . S
C2213 C2214 1.516 . S
C2214 C2213 1.516 . S
C2214 C2215 1.502 . S
C2214 C2216 1.561 . S
C2214 C2217 1.526 . S
C2215 H2199 0.959 . S
C2215 H2200 0.959 . S
C2215 H2201 0.961 . S
C2215 C2214 1.502 . S
C2216 H2202 0.960 . S
C2216 H2203 0.961 . S
C2216 H2204 0.959 . S
C2216 C2214 1.561 . S
C2217 C2214 1.526 . S
C2217 C2218 1.396 . S
C2217 C2222 1.390 . S
C2218 C2212 1.465 . S
C2218 C2217 1.396 . S
C2218 C2219 1.399 . S
C2219 H2205 0.929 . S
C2219 C2218 1.399 . S
C2219 C2220 1.385 . S
C2220 H2206 0.931 . S
C2220 C2219 1.385 . S
C2220 C2221 1.389 . S
C2221 C2220 1.389 . S
C2221 C2222 1.387 . S
C2222 H2207 0.930 . S
C2222 C2217 1.390 . S
C2222 C2221 1.387 . S
H2223 C2235 0.930 . S
H2224 C2237 0.930 . S
H2225 C2238 0.930 . S
H2226 C2242 0.959 . S
H2227 C2242 0.959 . S
H2228 C2242 0.961 . S
H2229 C2243 0.960 . S
H2230 C2243 0.961 . S
H2231 C2243 0.959 . S
H2232 C2246 0.929 . S
H2233 C2247 0.931 . S
H2234 C2249 0.930 . S
C2235 H2223 0.930 . S
C2235 C2236 1.399 . S
C2235 C2240 1.399 . S
C2236 C2235 1.399 . S
C2236 C2237 1.376 . S
C2237 H2224 0.930 . S
C2237 C2236 1.376 . S
C2237 C2238 1.388 . S
C2238 H2225 0.930 . S
C2238 C2237 1.388 . S
C2238 C2239 1.390 . S
C2239 C2238 1.390 . S
C2239 C2240 1.394 . S
C2239 C2245 1.465 . S
C2240 C2235 1.399 . S
C2240 C2239 1.394 . S
C2240 C2241 1.516 . S
C2241 C2240 1.516 . S
C2241 C2242 1.502 . S
C2241 C2243 1.561 . S
C2241 C2244 1.526 . S
C2242 H2226 0.959 . S
C2242 H2227 0.959 . S
C2242 H2228 0.961 . S
C2242 C2241 1.502 . S
C2243 H2229 0.960 . S
C2243 H2230 0.961 . S
C2243 H2231 0.959 . S
C2243 C2241 1.561 . S
C2244 C2241 1.526 . S
C2244 C2245 1.396 . S
C2244 C2249 1.390 . S
C2245 C2239 1.465 . S
C2245 C2244 1.396 . S
C2245 C2246 1.399 . S
C2246 H2232 0.929 . S
C2246 C2245 1.399 . S
C2246 C2247 1.385 . S
C2247 H2233 0.931 . S
C2247 C2246 1.385 . S
C2247 C2248 1.389 . S
C2248 C2247 1.389 . S
C2248 C2249 1.387 . S
C2249 H2234 0.930 . S
C2249 C2244 1.390 . S
C2249 C2248 1.387 . S
H2250 C2262 0.930 . S
H2251 C2264 0.930 . S
H2252 C2265 0.930 . S
H2253 C2269 0.959 . S
H2254 C2269 0.959 . S
H2255 C2269 0.961 1_655 S
H2256 C2270 0.960 . S
H2257 C2270 0.961 . S
H2258 C2270 0.959 . S
H2259 C2273 0.929 . S
H2260 C2274 0.931 . S
H2261 C2276 0.930 . S
C2262 H2250 0.930 . S
C2262 C2263 1.399 . S
C2262 C2267 1.399 . S
C2263 C2262 1.399 . S
C2263 C2264 1.376 . S
C2264 H2251 0.930 . S
C2264 C2263 1.376 . S
C2264 C2265 1.388 . S
C2265 H2252 0.930 . S
C2265 C2264 1.388 . S
C2265 C2266 1.390 . S
C2266 C2265 1.390 . S
C2266 C2267 1.394 . S
C2266 C2272 1.465 1_655 S
C2267 C2262 1.399 . S
C2267 C2266 1.394 . S
C2267 C2268 1.516 . S
C2268 C2267 1.516 . S
C2268 C2269 1.502 1_655 S
C2268 C2270 1.561 . S
C2268 C2271 1.526 1_655 S
C2269 H2253 0.959 . S
C2269 H2254 0.959 . S
C2269 H2255 0.961 1_455 S
C2269 C2268 1.502 1_455 S
C2270 H2256 0.960 . S
C2270 H2257 0.961 . S
C2270 H2258 0.959 . S
C2270 C2268 1.561 . S
C2271 C2268 1.526 1_455 S
C2271 C2272 1.396 . S
C2271 C2276 1.390 . S
C2272 C2266 1.465 1_455 S
C2272 C2271 1.396 . S
C2272 C2273 1.399 . S
C2273 H2259 0.929 . S
C2273 C2272 1.399 . S
C2273 C2274 1.385 . S
C2274 H2260 0.931 . S
C2274 C2273 1.385 . S
C2274 C2275 1.389 . S
C2275 C2274 1.389 . S
C2275 C2276 1.387 . S
C2276 H2261 0.930 . S
C2276 C2271 1.390 . S
C2276 C2275 1.387 . S
H2277 C2289 0.930 . S
H2278 C2291 0.930 . S
H2279 C2292 0.930 . S
H2280 C2296 0.959 . S
H2281 C2296 0.959 . S
H2282 C2296 0.961 . S
H2283 C2297 0.960 . S
H2284 C2297 0.961 . S
H2285 C2297 0.959 . S
H2286 C2300 0.929 . S
H2287 C2301 0.931 . S
H2288 C2303 0.930 . S
C2289 H2277 0.930 . S
C2289 C2290 1.399 . S
C2289 C2294 1.399 . S
C2290 C2289 1.399 . S
C2290 C2291 1.376 . S
C2291 H2278 0.930 . S
C2291 C2290 1.376 . S
C2291 C2292 1.388 . S
C2292 H2279 0.930 . S
C2292 C2291 1.388 . S
C2292 C2293 1.390 . S
C2293 C2292 1.390 . S
C2293 C2294 1.394 . S
C2293 C2299 1.465 . S
C2294 C2289 1.399 . S
C2294 C2293 1.394 . S
C2294 C2295 1.516 . S
C2295 C2294 1.516 . S
C2295 C2296 1.502 . S
C2295 C2297 1.561 . S
C2295 C2298 1.526 . S
C2296 H2280 0.959 . S
C2296 H2281 0.959 . S
C2296 H2282 0.961 . S
C2296 C2295 1.502 . S
C2297 H2283 0.960 . S
C2297 H2284 0.961 . S
C2297 H2285 0.959 . S
C2297 C2295 1.561 . S
C2298 C2295 1.526 . S
C2298 C2299 1.396 . S
C2298 C2303 1.390 . S
C2299 C2293 1.465 . S
C2299 C2298 1.396 . S
C2299 C2300 1.399 . S
C2300 H2286 0.929 . S
C2300 C2299 1.399 . S
C2300 C2301 1.385 . S
C2301 H2287 0.931 . S
C2301 C2300 1.385 . S
C2301 C2302 1.389 . S
C2302 C2301 1.389 . S
C2302 C2303 1.387 . S
C2303 H2288 0.930 . S
C2303 C2298 1.390 . S
C2303 C2302 1.387 . S
H2304 C2316 0.930 . S
H2305 C2318 0.930 . S
H2306 C2319 0.930 1_545 S
H2307 C2323 0.959 . S
H2308 C2323 0.959 . S
H2309 C2323 0.961 . S
H2310 C2324 0.960 . S
H2311 C2324 0.961 . S
H2312 C2324 0.959 . S
H2313 C2327 0.929 . S
H2314 C2328 0.931 . S
H2315 C2330 0.930 . S
C2316 H2304 0.930 . S
C2316 C2317 1.399 . S
C2316 C2321 1.399 . S
C2317 C2316 1.399 . S
C2317 C2318 1.376 . S
C2318 H2305 0.930 . S
C2318 C2317 1.376 . S
C2318 C2319 1.388 . S
C2319 H2306 0.930 1_565 S
C2319 C2318 1.388 . S
C2319 C2320 1.390 . S
C2320 C2319 1.390 . S
C2320 C2321 1.394 . S
C2320 C2326 1.465 1_565 S
C2321 C2316 1.399 . S
C2321 C2320 1.394 . S
C2321 C2322 1.516 . S
C2322 C2321 1.516 . S
C2322 C2323 1.502 . S
C2322 C2324 1.561 . S
C2322 C2325 1.526 1_565 S
C2323 H2307 0.959 . S
C2323 H2308 0.959 . S
C2323 H2309 0.961 . S
C2323 C2322 1.502 . S
C2324 H2310 0.960 . S
C2324 H2311 0.961 . S
C2324 H2312 0.959 . S
C2324 C2322 1.561 . S
C2325 C2322 1.526 1_545 S
C2325 C2326 1.396 . S
C2325 C2330 1.390 . S
C2326 C2320 1.465 1_545 S
C2326 C2325 1.396 . S
C2326 C2327 1.399 . S
C2327 H2313 0.929 . S
C2327 C2326 1.399 . S
C2327 C2328 1.385 . S
C2328 H2314 0.931 . S
C2328 C2327 1.385 . S
C2328 C2329 1.389 . S
C2329 C2328 1.389 . S
C2329 C2330 1.387 . S
C2330 H2315 0.930 . S
C2330 C2325 1.390 . S
C2330 C2329 1.387 . S
H2331 C2343 0.930 . S
H2332 C2345 0.930 . S
H2333 C2346 0.889 1_565 S
H2334 C2350 0.959 . S
H2335 C2350 0.959 . S
H2336 C2350 0.961 . S
H2337 C2351 0.960 . S
H2338 C2351 0.961 . S
H2339 C2351 0.959 . S
H2340 C2354 0.929 . S
H2341 C2355 0.931 . S
H2342 C2357 0.930 . S
C2343 H2331 0.930 . S
C2343 C2344 1.399 . S
C2343 C2348 1.399 . S
C2344 C2343 1.399 . S
C2344 C2345 1.376 . S
C2345 H2332 0.930 . S
C2345 C2344 1.376 . S
C2345 C2346 1.388 . S
C2346 H2333 0.889 1_545 S
C2346 C2345 1.388 . S
C2346 C2347 1.390 . S
C2347 C2346 1.390 . S
C2347 C2348 1.394 . S
C2347 C2353 1.465 1_545 S
C2348 C2343 1.399 . S
C2348 C2347 1.394 . S
C2348 C2349 1.516 . S
C2349 C2348 1.516 . S
C2349 C2350 1.502 . S
C2349 C2351 1.561 . S
C2349 C2352 1.526 1_545 S
C2350 H2334 0.959 . S
C2350 H2335 0.959 . S
C2350 H2336 0.961 . S
C2350 C2349 1.502 . S
C2351 H2337 0.960 . S
C2351 H2338 0.961 . S
C2351 H2339 0.959 . S
C2351 C2349 1.561 . S
C2352 C2349 1.526 1_565 S
C2352 C2353 1.396 . S
C2352 C2357 1.390 . S
C2353 C2347 1.465 1_565 S
C2353 C2352 1.396 . S
C2353 C2354 1.399 . S
C2354 H2340 0.929 . S
C2354 C2353 1.399 . S
C2354 C2355 1.385 . S
C2355 H2341 0.931 . S
C2355 C2354 1.385 . S
C2355 C2356 1.389 . S
C2356 C2355 1.389 . S
C2356 C2357 1.387 . S
C2357 H2342 0.930 . S
C2357 C2352 1.390 . S
C2357 C2356 1.387 . S
H2358 C2370 0.930 . S
H2359 C2372 0.930 . S
H2360 C2373 0.930 . S
H2361 C2377 0.959 . S
H2362 C2377 0.959 1_655 S
H2363 C2377 0.961 . S
H2364 C2378 0.960 . S
H2365 C2378 0.961 . S
H2366 C2378 0.959 . S
H2367 C2381 0.929 . S
H2368 C2382 0.931 . S
H2369 C2384 0.930 . S
C2370 H2358 0.930 . S
C2370 C2371 1.399 . S
C2370 C2375 1.399 . S
C2371 C2370 1.399 . S
C2371 C2372 1.376 . S
C2372 H2359 0.930 . S
C2372 C2371 1.376 . S
C2372 C2373 1.388 . S
C2373 H2360 0.930 . S
C2373 C2372 1.388 . S
C2373 C2374 1.390 . S
C2374 C2373 1.390 . S
C2374 C2375 1.394 . S
C2374 C2380 1.465 1_455 S
C2375 C2370 1.399 . S
C2375 C2374 1.394 . S
C2375 C2376 1.516 1_455 S
C2376 C2375 1.516 1_655 S
C2376 C2377 1.502 1_655 S
C2376 C2378 1.561 . S
C2376 C2379 1.526 . S
C2377 H2361 0.959 . S
C2377 H2362 0.959 1_455 S
C2377 H2363 0.961 . S
C2377 C2376 1.502 1_455 S
C2378 H2364 0.960 . S
C2378 H2365 0.961 . S
C2378 H2366 0.959 . S
C2378 C2376 1.561 . S
C2379 C2376 1.526 . S
C2379 C2380 1.396 . S
C2379 C2384 1.390 . S
C2380 C2374 1.465 1_655 S
C2380 C2379 1.396 . S
C2380 C2381 1.399 . S
C2381 H2367 0.929 . S
C2381 C2380 1.399 . S
C2381 C2382 1.385 . S
C2382 H2368 0.931 . S
C2382 C2381 1.385 . S
C2382 C2383 1.389 . S
C2383 C2382 1.389 . S
C2383 C2384 1.387 . S
C2384 H2369 0.930 . S
C2384 C2379 1.390 . S
C2384 C2383 1.387 . S
H2385 C2397 0.930 . S
H2386 C2399 0.930 . S
H2387 C2400 0.930 . S
H2388 C2404 0.959 . S
H2389 C2404 0.959 . S
H2390 C2404 0.961 . S
H2391 C2405 0.960 . S
H2392 C2405 0.961 . S
H2393 C2405 0.959 . S
H2394 C2408 0.929 . S
H2395 C2409 0.931 . S
H2396 C2411 0.930 . S
C2397 H2385 0.930 . S
C2397 C2398 1.399 . S
C2397 C2402 1.399 . S
C2398 C2397 1.399 . S
C2398 C2399 1.376 . S
C2399 H2386 0.930 . S
C2399 C2398 1.376 . S
C2399 C2400 1.388 . S
C2400 H2387 0.930 . S
C2400 C2399 1.388 . S
C2400 C2401 1.390 . S
C2401 C2400 1.390 . S
C2401 C2402 1.394 . S
C2401 C2407 1.465 . S
C2402 C2397 1.399 . S
C2402 C2401 1.394 . S
C2402 C2403 1.516 . S
C2403 C2402 1.516 . S
C2403 C2404 1.502 . S
C2403 C2405 1.561 . S
C2403 C2406 1.526 . S
C2404 H2388 0.959 . S
C2404 H2389 0.959 . S
C2404 H2390 0.961 . S
C2404 C2403 1.502 . S
C2405 H2391 0.960 . S
C2405 H2392 0.961 . S
C2405 H2393 0.959 . S
C2405 C2403 1.561 . S
C2406 C2403 1.526 . S
C2406 C2407 1.396 . S
C2406 C2411 1.390 . S
C2407 C2401 1.465 . S
C2407 C2406 1.396 . S
C2407 C2408 1.399 . S
C2408 H2394 0.929 . S
C2408 C2407 1.399 . S
C2408 C2409 1.385 . S
C2409 H2395 0.931 . S
C2409 C2408 1.385 . S
C2409 C2410 1.389 . S
C2410 C2409 1.389 . S
C2410 C2411 1.387 . S
C2411 H2396 0.930 . S
C2411 C2406 1.390 . S
C2411 C2410 1.387 . S
C481 C75 1.167 . S
C493 C4 1.115 . S
C508 C17 1.165 . S
C520 C49 1.112 . S
C535 C62 1.113 . S
C547 C36 1.146 . S
C562 C82 1.161 . S
C574 C147 1.120 . S
C589 C95 1.126 . S
C601 C121 1.147 . S
C616 C134 1.154 . S
C628 C114 1.120 . S
C643 C225 1.159 . S
C655 C160 1.110 . S
C670 C179 1.166 . S
C682 C205 1.127 . S
C697 C218 1.115 . S
C709 C192 1.167 . S
C724 C238 1.156 . S
C736 C309 1.126 . S
C751 C257 1.142 . S
C763 C277 1.141 . S
C778 C264 1.114 . S
C790 C290 1.165 . S
C805 C316 1.141 . S
C817 C387 1.157 . S
C832 C361 1.131 . S
C844 C329 1.125 . S
C859 C342 1.143 . S
C871 C374 1.156 . S
C886 C400 1.146 . S
C898 C465 1.138 . S
C913 C407 1.142 . S
C925 C439 1.130 . S
C940 C420 1.167 . S
C952 C452 1.110 . S
C967 C140 1.378 . S
C979 C5 1.357 . S
C994 C153 1.391 . S
C1006 C18 1.378 . S
C1021 C127 1.400 . S
C1033 C29 1.400 . S
C1048 C108 1.399 . S
C1060 C42 1.395 . S
C1075 C55 1.360 . S
C1087 C88 1.380 . S
C1102 C68 1.384 . S
C1114 C101 1.394 . S
C1129 C83 1.400 . S
C1141 C56 1.398 . S
C1156 C96 1.388 . S
C1168 C69 1.385 . S
C1183 C107 1.400 . S
C1195 C43 1.398 . S
C1210 C30 1.397 . S
C1222 C122 1.400 . S
C1237 C10 1.380 . S
C1249 C135 1.374 . S
C1264 C148 1.356 . S
C1276 C23 1.379 . S
C1291 C161 1.374 . S
C1303 C296 1.385 . S
C1318 C172 1.395 . S
C1330 C303 1.399 . S
C1345 C283 1.399 . S
C1357 C185 1.396 . S
C1372 C198 1.355 . S
C1384 C270 1.380 . S
C1399 C211 1.400 . S
C1411 C244 1.400 . S
C1426 C226 1.386 . S
C1438 C251 1.395 . S
C1453 C239 1.354 . S
C1465 C212 1.380 . S
C1480 C231 1.396 . S
C1492 C250 1.400 . S
C1507 C199 1.383 . S
C1519 C265 1.355 . S
C1534 C278 1.392 . S
C1546 C186 1.400 . S
C1561 C166 1.400 . S
C1573 C291 1.390 . S
C1588 C173 1.380 . S
C1600 C302 1.355 . S
C1615 C446 1.379 . S
C1627 C317 1.355 . S
C1642 C330 1.360 . S
C1654 C459 1.380 . S
C1669 C343 1.357 . S
C1681 C433 1.379 . S
C1696 C426 1.390 . S
C1708 C354 1.375 . S
C1723 C394 1.387 . S
C1735 C367 1.368 . S
C1750 C413 1.379 . S
C1762 C380 1.356 . S
C1777 C393 1.362 . S
C1789 C368 1.378 . S
C1804 C381 1.399 . S
C1816 C408 1.386 . S
C1831 C421 1.386 . S
C1843 C355 1.400 . S
C1858 C348 1.382 . S
C1870 C432 1.355 . S
C1885 C322 1.384 . S
C1897 C445 1.387 . S
C1912 C335 1.386 . S
C1924 C458 1.390 . S
C1939 C213 1.371 . S
C1951 C3 1.374 1_556 S
C1966 C16 1.390 1_556 S
C1978 C224 1.388 . S
C1993 C200 1.371 . S
C2005 C31 1.373 1_556 S
C2020 C341 1.379 . S
C2032 C44 1.382 . S
C2047 C57 1.375 . S
C2059 C315 1.378 . S
C2074 C70 1.365 . S
C2086 C328 1.365 . S
C2101 C81 1.405 1_554 S
C2113 C447 1.411 . S
C2128 C460 1.388 . S
C2140 C94 1.376 1_554 S
C2155 C434 1.411 . S
C2167 C109 1.411 1_554 S
C2182 C263 1.410 . S
C2194 C120 1.412 . S
C2209 C133 1.394 . S
C2221 C237 1.382 . S
C2236 C146 1.373 . S
C2248 C252 1.366 . S
C2263 C159 1.364 . S
C2275 C369 1.364 . S
C2290 C382 1.399 . S
C2302 C174 1.397 . S
C2317 C356 1.386 . S
C2329 C187 1.389 . S
C2344 C276 1.407 . S
C2356 C419 1.398 . S
C2371 C395 1.367 . S
C2383 C289 1.364 . S
C2398 C406 1.396 . S
C2410 C304 1.385 . S
