# Generated by pormake.
# Topology hjm, (4)-cn, num edge types: 1
# Building blocks:
#     Node 0, Type 0, BuildingBlock: QUQFOY_clean_sbu_3, # of connection points: 4
#     Node 1, Type 0, BuildingBlock: QUQFOY_clean_sbu_3, # of connection points: 4
#     Node 2, Type 0, BuildingBlock: QUQFOY_clean_sbu_3, # of connection points: 4
#     Node 3, Type 0, BuildingBlock: QUQFOY_clean_sbu_3, # of connection points: 4
#     Node 4, Type 0, BuildingBlock: QUQFOY_clean_sbu_3, # of connection points: 4
#     Node 5, Type 0, BuildingBlock: QUQFOY_clean_sbu_3, # of connection points: 4
#     Node 6, Type 0, BuildingBlock: QUQFOY_clean_sbu_3, # of connection points: 4
#     Node 7, Type 0, BuildingBlock: QUQFOY_clean_sbu_3, # of connection points: 4
#     Edge 8, Type (0, 0), BuildingBlock: FUNLAD_clean_linker_1, # of connection points: 2
#     Edge 9, Type (0, 0), BuildingBlock: FUNLAD_clean_linker_1, # of connection points: 2
#     Edge 10, Type (0, 0), BuildingBlock: FUNLAD_clean_linker_1, # of connection points: 2
#     Edge 11, Type (0, 0), BuildingBlock: FUNLAD_clean_linker_1, # of connection points: 2
#     Edge 12, Type (0, 0), BuildingBlock: FUNLAD_clean_linker_1, # of connection points: 2
#     Edge 13, Type (0, 0), BuildingBlock: FUNLAD_clean_linker_1, # of connection points: 2
#     Edge 14, Type (0, 0), BuildingBlock: FUNLAD_clean_linker_1, # of connection points: 2
#     Edge 15, Type (0, 0), BuildingBlock: FUNLAD_clean_linker_1, # of connection points: 2
#     Edge 16, Type (0, 0), BuildingBlock: FUNLAD_clean_linker_1, # of connection points: 2
#     Edge 17, Type (0, 0), BuildingBlock: FUNLAD_clean_linker_1, # of connection points: 2
#     Edge 18, Type (0, 0), BuildingBlock: FUNLAD_clean_linker_1, # of connection points: 2
#     Edge 19, Type (0, 0), BuildingBlock: FUNLAD_clean_linker_1, # of connection points: 2
#     Edge 20, Type (0, 0), BuildingBlock: FUNLAD_clean_linker_1, # of connection points: 2
#     Edge 21, Type (0, 0), BuildingBlock: FUNLAD_clean_linker_1, # of connection points: 2
#     Edge 22, Type (0, 0), BuildingBlock: FUNLAD_clean_linker_1, # of connection points: 2
#     Edge 23, Type (0, 0), BuildingBlock: FUNLAD_clean_linker_1, # of connection points: 2
# Relax obj value: 0.092
# Max RMSD: 0.137
# Mean RMSD: 0.137
data_MOF--net-hjm--node1-QUQFOY_clean_sbu_3--edge1-FUNLAD_clean_linker_1
_symmetry_space_group_name_H-M    P1
_symmetry_Int_Tables_number       1
_symmetry_cell_setting            triclinic
loop_
_symmetry_equiv_pos_as_xyz
'x, y, z'
_cell_length_a     28.438074
_cell_length_b     24.446097
_cell_length_c     27.742009
_cell_angle_alpha  89.95383
_cell_angle_beta   59.273949
_cell_angle_gamma 90.02263
loop_
_atom_site_label
_atom_site_type_symbol
_atom_site_fract_x
_atom_site_fract_y
_atom_site_fract_z
_atom_type_partial_charge
C0 C 0.18063 0.29507 0.2125 0.0
O1 O 0.18045 0.34271 0.23082 0.0
Cd2 Cd 0.17972 0.36064 0.31553 0.0
O3 O 0.1796 0.25261 0.23983 0.0
Cd4 Cd 0.17412 0.23203 0.33126 0.0
C5 C 0.29701 0.29337 0.28701 0.0
O6 O 0.10777 0.30312 0.38196 0.0
O7 O 0.14109 0.2662 0.42843 0.0
O8 O 0.11425 0.15585 0.34054 0.0
C9 C 0.10636 0.29833 0.42795 0.0
O10 O 0.27159 0.33855 0.29661 0.0
C11 C 0.13524 0.12173 0.35858 0.0
O12 O 0.27253 0.24799 0.2929 0.0
O13 O 0.17611 0.13788 0.36164 0.0
C14 C 0.78017 0.26586 0.2607 0.0
O15 O 0.78111 0.31223 0.23951 0.0
Cd16 Cd 0.80982 0.32636 0.14357 0.0
O17 O 0.79604 0.22268 0.23072 0.0
Cd18 Cd 0.83233 0.19716 0.13103 0.0
C19 C 0.71367 0.24396 0.14191 0.0
O20 O 0.89357 0.27508 0.09789 0.0
O21 O 0.89721 0.22431 0.0326 0.0
O22 O 0.88601 0.12505 0.1424 0.0
C23 C 0.91654 0.26408 0.04623 0.0
O24 O 0.7302 0.2923 0.14193 0.0
C25 C 0.87407 0.08866 0.11771 0.0
O26 O 0.74262 0.20273 0.13814 0.0
O27 O 0.84083 0.10197 0.10204 0.0
C28 C 0.93055 0.6167 0.69376 0.0
O29 O 0.94309 0.64406 0.72441 0.0
Cd30 Cd 0.9122 0.73367 0.75926 0.0
O31 O 0.89709 0.63547 0.67994 0.0
Cd32 Cd 0.83936 0.72012 0.70052 0.0
C33 C 0.95138 0.8025 0.63553 0.0
O34 O 0.81652 0.72888 0.79657 0.0
O35 O 0.79675 0.79948 0.76412 0.0
O36 O 0.75926 0.66661 0.71799 0.0
C37 C 0.79452 0.77556 0.80572 0.0
O38 O 0.95598 0.79484 0.67832 0.0
C39 C 0.74852 0.69516 0.68657 0.0
O40 O 0.91449 0.77809 0.6304 0.0
O41 O 0.78205 0.73303 0.65853 0.0
C42 C 0.13199 0.60184 0.85293 0.0
O43 O 0.10381 0.63108 0.83913 0.0
Cd44 Cd 0.1287 0.71487 0.78868 0.0
O45 O 0.17949 0.61675 0.84227 0.0
Cd46 Cd 0.24077 0.69829 0.79745 0.0
C47 C 0.14169 0.78961 0.8861 0.0
O48 O 0.22121 0.69446 0.72311 0.0
O49 O 0.28085 0.75559 0.71011 0.0
O50 O 0.31444 0.63339 0.77856 0.0
C51 C 0.25338 0.73141 0.69221 0.0
O52 O 0.11684 0.78032 0.85964 0.0
C53 C 0.34424 0.66852 0.78407 0.0
O54 O 0.18588 0.76464 0.87349 0.0
O55 O 0.32516 0.71663 0.7978 0.0
C56 C 0.71449 0.8591 0.20484 0.0
O57 O 0.7209 0.90863 0.21401 0.0
Cd58 Cd 0.7066 0.93969 0.30168 0.0
O59 O 0.69911 0.82292 0.2431 0.0
Cd60 Cd 0.6729 0.81621 0.34318 0.0
C61 C 0.80022 0.85672 0.30942 0.0
O62 O 0.62042 0.90004 0.36805 0.0
O63 O 0.6335 0.86699 0.43235 0.0
O64 O 0.60637 0.74925 0.34883 0.0
C65 C 0.60951 0.90154 0.41828 0.0
O66 O 0.78548 0.90454 0.30458 0.0
C67 C 0.61031 0.71743 0.38268 0.0
O68 O 0.76852 0.81576 0.32054 0.0
O69 O 0.64512 0.73004 0.39661 0.0
C70 C 0.31296 0.76597 0.29595 0.0
O71 O 0.30409 0.81409 0.28527 0.0
Cd72 Cd 0.30446 0.83715 0.20114 0.0
O73 O 0.32031 0.72646 0.26291 0.0
Cd74 Cd 0.3204 0.71226 0.17409 0.0
C75 C 0.19343 0.76497 0.22107 0.0
O76 O 0.38127 0.78923 0.12658 0.0
O77 O 0.34725 0.75038 0.0814 0.0
O78 O 0.3861 0.6394 0.156 0.0
C79 C 0.381 0.78418 0.08132 0.0
O80 O 0.21507 0.81185 0.21568 0.0
C81 C 0.365 0.60521 0.13818 0.0
O82 O 0.22125 0.72155 0.2127 0.0
O83 O 0.32174 0.61979 0.13901 0.0
C84 C 0.35888 0.22637 0.6442 0.0
O85 O 0.37664 0.23835 0.67659 0.0
Cd86 Cd 0.34142 0.30935 0.74478 0.0
O87 O 0.31835 0.25177 0.64715 0.0
Cd88 Cd 0.25433 0.3265 0.70431 0.0
C89 C 0.3605 0.41581 0.65529 0.0
O90 O 0.24491 0.29946 0.79252 0.0
O91 O 0.21606 0.38071 0.79189 0.0
O92 O 0.17851 0.27157 0.7157 0.0
C93 C 0.22065 0.34204 0.81967 0.0
O94 O 0.37157 0.39304 0.68957 0.0
C95 C 0.15834 0.30676 0.69787 0.0
O96 O 0.32183 0.39827 0.64873 0.0
O97 O 0.18356 0.35211 0.68081 0.0
C98 C 0.60064 0.10164 0.81538 0.0
O99 O 0.57084 0.11283 0.79481 0.0
Cd100 Cd 0.56959 0.19752 0.75305 0.0
O101 O 0.63576 0.13591 0.81259 0.0
Cd102 Cd 0.66922 0.22854 0.77084 0.0
C103 C 0.54559 0.2854 0.85995 0.0
O104 O 0.66209 0.21978 0.68786 0.0
O105 O 0.67252 0.30218 0.70941 0.0
O106 O 0.76557 0.20405 0.72014 0.0
C107 C 0.67057 0.26999 0.67472 0.0
O108 O 0.52916 0.26333 0.82964 0.0
C109 C 0.78011 0.23725 0.74514 0.0
O110 O 0.59409 0.27772 0.85017 0.0
O111 O 0.74261 0.26521 0.78482 0.0
H112 H 0.07233 0.05867 0.37917 0.0
C113 C 0.10897 0.06817 0.38057 0.0
H114 H 0.16034 0.04358 0.41107 0.0
H115 H 0.92791 0.93561 0.60337 0.0
H116 H 0.9035 0.02949 0.6342 0.0
H117 H 0.9641 0.10565 0.57883 0.0
H118 H 0.04917 0.08847 0.49236 0.0
C119 C 0.12411 0.03479 0.40873 0.0
C120 C 0.08849 0.98853 0.4428 0.0
C121 C 0.03973 -0.00071 0.49445 0.0
C122 C 0.00571 0.95528 0.52734 0.0
C123 C 0.95613 0.96734 0.57755 0.0
C124 C 0.94145 0.02109 0.59564 0.0
C125 C 0.9755 0.06396 0.56444 0.0
C126 C 0.02415 0.05346 0.51457 0.0
H127 H 0.01525 0.86591 0.60296 0.0
C128 C 0.98819 0.84287 0.59353 0.0
H129 H 0.96221 0.83159 0.53501 0.0
H130 H 0.17824 0.95409 0.34568 0.0
H131 H 0.20327 0.85993 0.31541 0.0
H132 H 0.14594 0.78339 0.37398 0.0
H133 H 0.06263 0.80054 0.46309 0.0
C134 C 0.98786 0.85447 0.5464 0.0
C135 C 0.02159 0.90048 0.50975 0.0
C136 C 0.07022 0.88973 0.45812 0.0
C137 C 0.10361 0.93384 0.42451 0.0
C138 C 0.15167 0.92203 0.37291 0.0
C139 C 0.16649 0.8682 0.35508 0.0
C140 C 0.13417 0.8251 0.38809 0.0
C141 C 0.08655 0.83548 0.4391 0.0
H142 H 0.14061 0.83902 0.95382 0.0
C143 C 0.11825 0.82951 0.93273 0.0
H144 H 0.04649 0.84295 0.92966 0.0
H145 H 0.88743 0.93871 0.16361 0.0
H146 H 0.85301 0.8455 0.1769 0.0
H147 H 0.9062 0.77369 0.10782 0.0
H148 H 0.99434 0.79438 0.02542 0.0
C149 C 0.07 0.85405 0.94913 0.0
C150 C 0.04433 0.89445 0.99571 0.0
C151 C 0.99347 0.88144 0.0442 0.0
C152 C 0.96245 0.9229 0.08367 0.0
C153 C 0.91184 0.90885 0.13171 0.0
C154 C 0.89186 0.85553 0.14 0.0
C155 C 0.92182 0.8151 0.1011 0.0
C156 C 0.97222 0.82756 0.05389 0.0
H157 H 0.89116 0.00785 0.07778 0.0
C158 C 0.90195 0.03532 0.10146 0.0
H159 H 0.9576 0.05148 0.12869 0.0
H160 H 0.14186 0.93328 0.90893 0.0
H161 H 0.17698 0.02539 0.89794 0.0
H162 H 0.12404 0.09665 0.9678 0.0
H163 H 0.0355 0.07613 0.0488 0.0
C164 C 0.94494 0.02324 0.10722 0.0
C165 C 0.98206 0.97743 0.07429 0.0
C166 C 0.03509 0.98948 0.02858 0.0
C167 C 0.06605 0.9481 0.98875 0.0
C168 C 0.11712 0.96239 0.94135 0.0
C169 C 0.13773 0.01536 0.93429 0.0
C170 C 0.10791 0.05549 0.97357 0.0
C171 C 0.05706 0.04307 0.02 0.0
H172 H 0.42219 0.4797 0.6351 0.0
C173 C 0.39507 0.46222 0.62228 0.0
H174 H 0.37348 0.4623 0.55977 0.0
H175 H 0.4974 0.70263 0.53342 0.0
H176 H 0.41429 0.72681 0.61978 0.0
H177 H 0.34097 0.6588 0.67027 0.0
H178 H 0.34991 0.56655 0.63486 0.0
C179 C 0.39759 0.48107 0.57558 0.0
C180 C 0.4385 0.52388 0.5414 0.0
C181 C 0.43191 0.57818 0.5618 0.0
C182 C 0.47405 0.61741 0.5323 0.0
C183 C 0.46667 0.67117 0.55409 0.0
C184 C 0.41915 0.68565 0.60354 0.0
C185 C 0.37784 0.64741 0.63201 0.0
C186 C 0.38373 0.59439 0.61144 0.0
H187 H 0.54746 0.65949 0.39 0.0
C188 C 0.57328 0.6701 0.40699 0.0
H189 H 0.58998 0.65579 0.47185 0.0
H190 H 0.46324 0.42387 0.48992 0.0
H191 H 0.54667 0.39938 0.40397 0.0
H192 H 0.61986 0.46739 0.35292 0.0
H193 H 0.61008 0.56044 0.38735 0.0
C194 C 0.56679 0.64354 0.45237 0.0
C195 C 0.52238 0.6025 0.48198 0.0
C196 C 0.52845 0.54857 0.46084 0.0
C197 C 0.48632 0.50926 0.49048 0.0
C198 C 0.49387 0.45538 0.46902 0.0
C199 C 0.54157 0.44075 0.41978 0.0
C200 C 0.58277 0.47907 0.391 0.0
C201 C 0.57656 0.53238 0.41111 0.0
H202 H 0.43093 0.54467 0.11207 0.0
C203 C 0.39327 0.55354 0.11245 0.0
H204 H 0.3409 0.52947 0.08297 0.0
H205 H 0.57879 0.43141 0.88653 0.0
H206 H 0.60281 0.52661 0.86164 0.0
H207 H 0.54053 0.6002 0.92003 0.0
H208 H 0.45403 0.57927 0.0035 0.0
C209 C 0.37835 0.52148 0.08325 0.0
C210 C 0.4148 0.47699 0.04681 0.0
C211 C 0.46481 0.49018 -0.00274 0.0
C212 C 0.50023 0.44773 0.96299 0.0
C213 C 0.55022 0.46198 0.9141 0.0
C214 C 0.56451 0.51649 0.89919 0.0
C215 C 0.52945 0.55794 0.93205 0.0
C216 C 0.48005 0.54524 0.9803 0.0
H217 H 0.46796 0.32984 0.9095 0.0
C218 C 0.50758 0.32217 0.90528 0.0
H219 H 0.56099 0.34318 0.93421 0.0
H220 H 0.32204 0.43809 0.13854 0.0
H221 H 0.2972 0.34264 0.16246 0.0
H222 H 0.35741 0.26896 0.1016 0.0
H223 H 0.44345 0.29015 0.01691 0.0
C224 C 0.5209 0.34859 0.93898 0.0
C225 C 0.48466 0.39228 0.97708 0.0
C226 C 0.43413 0.37908 0.02588 0.0
C227 C 0.39933 0.42156 0.06101 0.0
C228 C 0.34983 0.40736 0.11031 0.0
C229 C 0.33507 0.35278 0.1245 0.0
C230 C 0.36897 0.31129 0.09018 0.0
C231 C 0.41808 0.32402 0.04151 0.0
H232 H 0.99358 0.27457 0.96517 0.0
C233 C 0.96522 0.29442 0.00455 0.0
H234 H 0.94572 0.36441 0.05506 0.0
H235 H 0.15746 0.49502 0.96719 0.0
H236 H 0.13853 0.46792 0.05979 0.0
H237 H 0.06738 0.3993 0.11509 0.0
H238 H 0.01541 0.35665 0.07801 0.0
C239 C 0.97439 0.34576 0.015 0.0
C240 C 0.02418 0.37812 0.97657 0.0
C241 C 0.05521 0.40159 -0.00153 0.0
C242 C 0.09628 0.44113 0.96675 0.0
C243 C 0.12559 0.46507 0.98997 0.0
C244 C 0.11524 0.44978 0.0429 0.0
C245 C 0.07519 0.41112 0.07402 0.0
C246 C 0.04545 0.38715 0.05231 0.0
H247 H 0.06497 0.54321 0.8945 0.0
C248 C 0.10788 0.54958 0.88089 0.0
H249 H 0.17857 0.51359 0.87471 0.0
H250 H 0.97308 0.34303 0.9195 0.0
H251 H 0.00377 0.35928 0.82202 0.0
H252 H 0.08408 0.41798 0.76389 0.0
H253 H 0.1323 0.46235 0.8044 0.0
C254 C 0.13581 0.50876 0.88733 0.0
C255 C 0.10663 0.45656 0.91313 0.0
C256 C 0.08158 0.42736 0.88809 0.0
C257 C 0.03834 0.39007 0.92051 0.0
C258 C 0.00919 0.36784 0.89616 0.0
C259 C 0.02584 0.37767 0.84015 0.0
C260 C 0.07071 0.41095 0.80753 0.0
C261 C 0.09793 0.43622 0.83123 0.0
H262 H 0.04574 0.36332 0.46803 0.0
C263 C 0.071 0.33471 0.47488 0.0
H264 H 0.09711 0.31012 0.53067 0.0
H265 H 0.0577 0.56449 0.59637 0.0
H266 H 0.15458 0.55522 0.55989 0.0
H267 H 0.20057 0.46617 0.52596 0.0
H268 H 0.1493 0.38596 0.52772 0.0
C269 C 0.07086 0.33679 0.52332 0.0
C270 C 0.04044 0.3819 0.56331 0.0
C271 C 0.06994 0.42717 0.56611 0.0
C272 C 0.04275 0.47776 0.58856 0.0
C273 C 0.07486 0.52403 0.584 0.0
C274 C 0.13102 0.51952 0.56212 0.0
C275 C 0.15693 0.46946 0.54284 0.0
C276 C 0.12706 0.42382 0.54404 0.0
H277 H 0.98068 0.54751 0.69138 0.0
C278 C 0.95671 0.56292 0.67396 0.0
H279 H 0.93154 0.54941 0.61557 0.0
H280 H 0.97139 0.29925 0.57422 0.0
H281 H 0.87249 0.30532 0.61761 0.0
H282 H 0.82381 0.3907 0.66281 0.0
H283 H 0.87371 0.47148 0.66231 0.0
C284 C 0.95574 0.53468 0.63308 0.0
C285 C 0.98502 0.48142 0.61247 0.0
C286 C 0.95493 0.4341 0.61493 0.0
C287 C 0.98275 0.38446 0.58999 0.0
C288 C 0.95203 0.33814 0.59183 0.0
C289 C 0.89534 0.34088 0.61721 0.0
C290 C 0.86796 0.38907 0.64242 0.0
C291 C 0.89715 0.43522 0.64156 0.0
H292 H 0.60962 0.04591 0.87304 0.0
C293 C 0.59031 0.05086 0.84811 0.0
H294 H 0.53198 0.02003 0.82953 0.0
H295 H 0.54384 0.80376 0.96469 0.0
H296 H 0.63388 0.78795 0.88296 0.0
H297 H 0.67684 0.85688 0.80758 0.0
H298 H 0.63001 0.94204 0.81333 0.0
C299 C 0.55278 0.0144 0.85291 0.0
C300 C 0.52922 0.97345 0.89879 0.0
C301 C 0.55738 0.92428 0.89474 0.0
C302 C 0.53263 0.88452 0.93815 0.0
C303 C 0.56109 0.83537 0.93295 0.0
C304 C 0.61266 0.8258 0.88628 0.0
C305 C 0.63684 0.86462 0.84381 0.0
C306 C 0.60963 0.91332 0.84766 0.0
H307 H 0.40372 0.82192 0.0 0.0
C308 C 0.41363 0.82023 0.033 0.0
H309 H 0.46461 0.85048 0.06193 0.0
H310 H 0.46502 0.06445 0.9202 0.0
H311 H 0.37611 0.08068 0.0026 0.0
H312 H 0.33397 0.0123 0.07859 0.0
H313 H 0.38043 0.92722 0.07245 0.0
C314 C 0.45326 0.85241 0.03004 0.0
C315 C 0.47997 0.89419 0.98526 0.0
C316 C 0.45241 0.94394 0.98992 0.0
C317 C 0.47688 0.98344 0.94639 0.0
C318 C 0.44832 0.03277 0.95191 0.0
C319 C 0.39725 0.04274 -0.00091 0.0
C320 C 0.37353 0.00425 0.04185 0.0
C321 C 0.40061 0.95544 0.03764 0.0
H322 H 0.57139 0.94798 0.49757 0.0
C323 C 0.57402 0.94417 0.45722 0.0
H324 H 0.54835 0.97499 0.40317 0.0
H325 H 0.37125 0.07551 0.65734 0.0
H326 H 0.34211 0.98147 0.68447 0.0
H327 H 0.38922 0.9057 0.61832 0.0
H328 H 0.466 0.92343 0.52498 0.0
C329 C 0.54523 0.97804 0.4438 0.0
C330 C 0.5123 0.02342 0.48151 0.0
C331 C 0.46651 0.01223 0.53534 0.0
C332 C 0.43844 0.05596 0.57289 0.0
C333 C 0.39375 0.04378 0.62699 0.0
C334 C 0.37655 0.99002 0.64307 0.0
C335 C 0.40315 0.94735 0.60588 0.0
C336 C 0.44752 0.95808 0.55256 0.0
H337 H 0.36854 0.17127 0.57647 0.0
C338 C 0.38532 0.1823 0.60265 0.0
H339 H 0.44678 0.16622 0.62233 0.0
H340 H 0.59556 0.05917 0.37938 0.0
H341 H 0.62015 0.15349 0.35023 0.0
H342 H 0.56922 0.22925 0.4143 0.0
H343 H 0.49403 0.21126 0.50886 0.0
C344 C 0.42927 0.15573 0.59672 0.0
C345 C 0.45524 0.11064 0.55586 0.0
C346 C 0.49876 0.12203 0.50089 0.0
C347 C 0.52748 0.0783 0.46362 0.0
C348 C 0.57178 0.09074 0.40931 0.0
C349 C 0.58649 0.14474 0.39204 0.0
C350 C 0.55789 0.18744 0.42824 0.0
C351 C 0.51476 0.17651 0.48224 0.0
H352 H 0.33965 0.71995 0.34606 0.0
C353 C 0.31687 0.75565 0.34606 0.0
H354 H 0.26975 0.82389 0.39109 0.0
H355 H 0.29601 0.65771 0.57061 0.0
H356 H 0.25973 0.58446 0.5399 0.0
H357 H 0.23483 0.60135 0.468 0.0
H358 H 0.24872 0.6904 0.42456 0.0
C359 C 0.29244 0.78823 0.39139 0.0
C360 C 0.29837 0.77946 0.4413 0.0
C361 C 0.28446 0.72851 0.47009 0.0
C362 C 0.29306 0.72037 0.51572 0.0
C363 C 0.28586 0.66719 0.53888 0.0
C364 C 0.26563 0.62467 0.52125 0.0
C365 C 0.25198 0.63407 0.48053 0.0
C366 C 0.26096 0.68532 0.4553 0.0
H367 H 0.22238 0.73479 0.63458 0.0
C368 C 0.25766 0.74424 0.63849 0.0
H369 H 0.34043 0.76891 0.59609 0.0
H370 H 0.33375 0.88075 0.39324 0.0
H371 H 0.36432 0.95494 0.4284 0.0
H372 H 0.36819 0.9439 0.5146 0.0
H373 H 0.34291 0.85793 0.56548 0.0
C374 C 0.30461 0.76009 0.593 0.0
C375 C 0.30812 0.76515 0.53763 0.0
C376 C 0.32227 0.81591 0.50894 0.0
C377 C 0.31832 0.82279 0.46016 0.0
C378 C 0.33447 0.87349 0.43131 0.0
C379 C 0.35236 0.91646 0.4509 0.0
C380 C 0.35468 0.91019 0.49938 0.0
C381 C 0.33992 0.86061 0.52822 0.0
H382 H 0.76132 0.84602 0.86362 0.0
C383 C 0.77649 0.80439 0.85885 0.0
H384 H 0.79845 0.7401 0.8944 0.0
H385 H 0.84568 0.88287 0.05146 0.0
H386 H 0.93833 0.86575 0.9753 0.0
H387 H 0.95537 0.8233 0.8872 0.0
H388 H 0.87988 0.79844 0.87423 0.0
C389 C 0.7813 0.78092 0.89988 0.0
C390 C 0.77062 0.81145 0.95057 0.0
C391 C 0.81532 0.826 0.95713 0.0
C392 C 0.8056 0.85043 0.00782 0.0
C393 C 0.85084 0.86419 0.01369 0.0
C394 C 0.90421 0.85452 0.97039 0.0
C395 C 0.9138 0.8307 0.92072 0.0
C396 C 0.87007 0.81652 0.9139 0.0
H397 H 0.71689 0.80036 0.14346 0.0
C398 C 0.72406 0.84283 0.14956 0.0
H399 H 0.7501 0.92076 0.1114 0.0
H400 H 0.67566 0.78917 0.9512 0.0
H401 H 0.58341 0.81048 0.02584 0.0
H402 H 0.56703 0.85622 0.1122 0.0
H403 H 0.64285 0.87997 0.12512 0.0
C404 C 0.7411 0.87848 0.10702 0.0
C405 C 0.75127 0.85974 0.05177 0.0
C406 C 0.7067 0.84791 0.04415 0.0
C407 C 0.7163 0.8231 0.99363 0.0
C408 C 0.67088 0.80934 0.98811 0.0
C409 C 0.61768 0.82123 0.03065 0.0
C410 C 0.60842 0.8468 0.07943 0.0
C411 C 0.65224 0.86 0.0864 0.0
H412 H 0.76502 0.22231 0.33685 0.0
C413 C 0.76138 0.26165 0.32069 0.0
H414 H 0.73513 0.34396 0.34075 0.0
H415 H 0.58165 0.27826 0.59832 0.0
H416 H 0.51384 0.30181 0.57315 0.0
H417 H 0.54188 0.32519 0.47558 0.0
H418 H 0.6378 0.32439 0.40225 0.0
C419 C 0.74094 0.30473 0.35542 0.0
C420 C 0.7246 0.29911 0.41516 0.0
C421 C 0.66851 0.30062 0.45729 0.0
C422 C 0.65238 0.28751 0.51355 0.0
C423 C 0.59603 0.28802 0.55489 0.0
C424 C 0.55677 0.30157 0.54105 0.0
C425 C 0.57257 0.31478 0.48608 0.0
C426 C 0.62772 0.31407 0.44441 0.0
H427 H 0.69222 0.33214 0.60888 0.0
C428 C 0.67947 0.28993 0.62077 0.0
H429 H 0.66222 0.21408 0.59637 0.0
H430 H 0.83598 0.30413 0.34618 0.0
H431 H 0.90388 0.28327 0.37172 0.0
H432 H 0.87586 0.25664 0.46858 0.0
H433 H 0.77997 0.25136 0.54046 0.0
C434 C 0.67564 0.25617 0.58489 0.0
C435 C 0.6925 0.27398 0.52734 0.0
C436 C 0.74882 0.27552 0.48576 0.0
C437 C 0.76492 0.28902 0.42967 0.0
C438 C 0.82145 0.2922 0.3891 0.0
C439 C 0.86087 0.28072 0.40327 0.0
C440 C 0.8451 0.26587 0.45782 0.0
C441 C 0.78982 0.26316 0.49874 0.0
H442 H 0.18919 0.24809 0.1403 0.0
C443 C 0.18283 0.28873 0.15848 0.0
H444 H 0.1724 0.37279 0.14868 0.0
H445 H 0.29724 0.3646 0.88472 0.0
H446 H 0.36102 0.41565 0.90063 0.0
H447 H 0.34491 0.42754 0.99608 0.0
H448 H 0.26532 0.38752 0.07624 0.0
C449 C 0.1778 0.33188 0.13131 0.0
C450 C 0.18525 0.32665 0.07442 0.0
C451 C 0.23117 0.35175 0.02823 0.0
C452 C 0.23978 0.34601 0.9733 0.0
C453 C 0.28758 0.36904 0.92759 0.0
C454 C 0.32485 0.39818 0.93605 0.0
C455 C 0.31587 0.40474 0.9898 0.0
C456 C 0.26985 0.38166 0.03545 0.0
H457 H 0.19789 0.39072 0.89544 0.0
C458 C 0.20787 0.34994 0.87768 0.0
H459 H 0.21978 0.26718 0.89063 0.0
H460 H 0.08957 0.27895 0.15462 0.0
H461 H 0.02443 0.22987 0.13895 0.0
H462 H 0.0395 0.21982 0.04359 0.0
H463 H 0.11973 0.25905 0.96335 0.0
C464 C 0.21121 0.30845 0.90753 0.0
C465 C 0.20155 0.31648 0.96496 0.0
C466 C 0.15505 0.29238 0.01125 0.0
C467 C 0.1467 0.29764 0.06614 0.0
C468 C 0.09881 0.27487 0.11185 0.0
C469 C 0.06084 0.24692 0.10349 0.0
C470 C 0.06931 0.24127 0.0498 0.0
C471 C 0.11568 0.26379 0.00409 0.0
H472 H 0.37291 0.33346 0.27158 0.0
C473 C 0.35591 0.2949 0.26789 0.0
H474 H 0.37309 0.21307 0.23995 0.0
H475 H 0.6163 0.33976 0.10639 0.0
H476 H 0.57805 0.39545 0.06251 0.0
H477 H 0.48113 0.38712 0.09085 0.0
H478 H 0.42199 0.32138 0.16136 0.0
C479 C 0.38944 0.252 0.24363 0.0
C480 C 0.44905 0.25557 0.22394 0.0
C481 C 0.48367 0.29238 0.1804 0.0
C482 C 0.53977 0.29734 0.16409 0.0
C483 C 0.57328 0.3347 0.12088 0.0
C484 C 0.55198 0.36675 0.09507 0.0
C485 C 0.49738 0.36181 0.11082 0.0
C486 C 0.46368 0.3245 0.15215 0.0
H487 H 0.64725 0.1949 0.14373 0.0
C488 C 0.65802 0.23515 0.15175 0.0
H489 H 0.62975 0.31422 0.18421 0.0
H490 H 0.39471 0.17991 0.30736 0.0
H491 H 0.4322 0.12703 0.35382 0.0
H492 H 0.52859 0.13775 0.3276 0.0
H493 H 0.5882 0.20104 0.25462 0.0
C494 C 0.61928 0.274 0.17575 0.0
C495 C 0.56152 0.26514 0.19064 0.0
C496 C 0.52705 0.22809 0.23394 0.0
C497 C 0.47101 0.22273 0.24994 0.0
C498 C 0.43752 0.18563 0.29342 0.0
C499 C 0.45845 0.15511 0.32064 0.0
C500 C 0.51274 0.16112 0.30584 0.0
C501 C 0.54671 0.19732 0.26335 0.0
H502 H 0.68824 0.71777 0.66237 0.0
C503 C 0.69634 0.6894 0.68746 0.0
H504 H 0.66347 0.6289 0.75054 0.0
H505 H 0.4211 0.71324 0.86581 0.0
H506 H 0.44446 0.73075 0.93711 0.0
H507 H 0.53867 0.7172 0.91706 0.0
H508 H 0.61017 0.68658 0.82577 0.0
C509 C 0.65636 0.65563 0.72358 0.0
C510 C 0.59907 0.6613 0.73563 0.0
C511 C 0.55779 0.68003 0.78923 0.0
C512 C 0.50357 0.68858 0.80057 0.0
C513 C 0.46313 0.70686 0.85462 0.0
C514 C 0.47592 0.71701 0.89601 0.0
C515 C 0.52897 0.70947 0.8847 0.0
C516 C 0.56962 0.69147 0.83205 0.0
H517 H 0.41173 0.61145 0.76584 0.0
C518 C 0.39929 0.65411 0.77312 0.0
H519 H 0.42231 0.73517 0.77756 0.0
H520 H 0.66615 0.61793 0.63151 0.0
H521 H 0.64312 0.6013 0.55974 0.0
H522 H 0.55082 0.62161 0.57723 0.0
H523 H 0.48075 0.65818 0.66653 0.0
C524 C 0.4348 0.69255 0.7695 0.0
C525 C 0.49061 0.67882 0.75829 0.0
C526 C 0.53163 0.65921 0.70493 0.0
C527 C 0.58563 0.64949 0.69401 0.0
C528 C 0.62512 0.6278 0.6413 0.0
C529 C 0.61236 0.61778 0.59985 0.0
C530 C 0.56032 0.62912 0.60974 0.0
C531 C 0.52034 0.64978 0.66145 0.0
H532 H 0.11819 0.71996 0.24057 0.0
C533 C 0.13565 0.76053 0.23611 0.0
H534 H 0.12125 0.84567 0.24033 0.0
H535 H 0.92361 0.75565 0.20098 0.0
H536 H 0.99641 0.72631 0.10933 0.0
H537 H 0.09293 0.73203 0.08399 0.0
H538 H 0.11734 0.76612 0.15032 0.0
C539 C 0.10481 0.80489 0.2431 0.0
C540 C 0.04664 0.80041 0.25798 0.0
C541 C 0.03317 0.78032 0.21849 0.0
C542 C 0.97751 0.77821 0.23261 0.0
C543 C 0.96519 0.75833 0.19236 0.0
C544 C 0.00656 0.74146 0.13956 0.0
C545 C 0.06091 0.74454 0.12535 0.0
C546 C 0.07432 0.76386 0.16406 0.0
H547 H 0.87939 0.88674 0.2948 0.0
C548 C 0.85559 0.8499 0.30059 0.0
H549 H 0.85643 0.76338 0.30065 0.0
H550 H 0.05822 0.84216 0.34294 0.0
H551 H 0.98508 0.87241 0.43404 0.0
H552 H 0.88879 0.86599 0.45935 0.0
H553 H 0.86466 0.83056 0.39317 0.0
C554 C 0.87826 0.8009 0.29766 0.0
C555 C 0.93561 0.79732 0.28556 0.0
C556 C 0.94897 0.81636 0.32538 0.0
C557 C 0.00455 0.81866 0.31129 0.0
C558 C 0.01671 0.8392 0.35145 0.0
C559 C 0.97519 0.8565 0.404 0.0
C560 C 0.92088 0.85309 0.41819 0.0
C561 C 0.90765 0.83307 0.37962 0.0
H562 H 0.08337 0.25961 0.72561 0.0
C563 C 0.10589 0.29521 0.70114 0.0
H564 H 0.10564 0.36267 0.65384 0.0
H565 H 0.90591 0.17344 0.72231 0.0
H566 H 0.97909 0.11006 0.66616 0.0
H567 H 0.0752 0.14096 0.61448 0.0
H568 H 0.09855 0.235 0.62225 0.0
C569 C 0.0841 0.32643 0.67756 0.0
C570 C 0.02768 0.31451 0.68876 0.0
C571 C 0.01428 0.26156 0.67851 0.0
C572 C 0.95858 0.24546 0.70299 0.0
C573 C 0.94702 0.18959 0.69996 0.0
C574 C 0.98881 0.15244 0.66849 0.0
C575 C 0.04293 0.1697 0.63982 0.0
C576 C 0.05578 0.22353 0.64492 0.0
H577 H 0.86755 0.23295 0.682 0.0
C578 C 0.83868 0.24583 0.72462 0.0
H579 H 0.82784 0.28284 0.79781 0.0
H580 H 0.03901 0.42122 0.71105 0.0
H581 H 0.96632 0.48651 0.76178 0.0
H582 H 0.87081 0.46322 0.79201 0.0
H583 H 0.84686 0.37261 0.77668 0.0
C584 C 0.85713 0.26991 0.75532 0.0
C585 C 0.91618 0.28476 0.73118 0.0
C586 C 0.93012 0.33938 0.73658 0.0
C587 C 0.98569 0.35393 0.71632 0.0
C588 C 0.99774 0.40778 0.72546 0.0
C589 C 0.95641 0.44609 0.75376 0.0
C590 C 0.9026 0.43277 0.7713 0.0
C591 C 0.8894 0.3803 0.76257 0.0
loop_
_geom_bond_atom_site_label_1
_geom_bond_atom_site_label_2
_geom_bond_distance
_geom_bond_site_symmetry_2
_ccdc_geom_bond_type
C0 O1 1.306 . S
C0 O3 1.160 . S
O1 C0 1.306 . S
O1 Cd2 2.228 . S
Cd2 O1 2.228 . S
Cd2 O6 2.273 . S
Cd2 O10 2.277 . S
O3 C0 1.160 . S
O3 Cd4 2.203 . S
Cd4 O3 2.203 . S
Cd4 O6 2.411 . S
Cd4 O7 2.333 . S
Cd4 O8 2.352 . S
Cd4 O12 2.277 . S
Cd4 O13 2.356 . S
C5 O10 1.209 . S
C5 O12 1.226 . S
O6 Cd2 2.273 . S
O6 Cd4 2.411 . S
O6 C9 1.320 . S
O7 Cd4 2.333 . S
O7 C9 1.214 . S
O8 Cd4 2.352 . S
O8 C11 1.258 . S
C9 O6 1.320 . S
C9 O7 1.214 . S
O10 Cd2 2.277 . S
O10 C5 1.209 . S
C11 O8 1.258 . S
C11 O13 1.282 . S
O12 Cd4 2.277 . S
O12 C5 1.226 . S
O13 Cd4 2.356 . S
O13 C11 1.282 . S
C14 O15 1.306 . S
C14 O17 1.160 . S
O15 C14 1.306 . S
O15 Cd16 2.228 . S
Cd16 O15 2.228 . S
Cd16 O20 2.273 . S
Cd16 O24 2.277 . S
O17 C14 1.160 . S
O17 Cd18 2.203 . S
Cd18 O17 2.203 . S
Cd18 O20 2.411 . S
Cd18 O21 2.333 . S
Cd18 O22 2.352 . S
Cd18 O26 2.277 . S
Cd18 O27 2.356 . S
C19 O24 1.209 . S
C19 O26 1.226 . S
O20 Cd16 2.273 . S
O20 Cd18 2.411 . S
O20 C23 1.320 . S
O21 Cd18 2.333 . S
O21 C23 1.214 . S
O22 Cd18 2.352 . S
O22 C25 1.258 . S
C23 O20 1.320 . S
C23 O21 1.214 . S
O24 Cd16 2.277 . S
O24 C19 1.209 . S
C25 O22 1.258 . S
C25 O27 1.282 . S
O26 Cd18 2.277 . S
O26 C19 1.226 . S
O27 Cd18 2.356 . S
O27 C25 1.282 . S
C28 O29 1.306 . S
C28 O31 1.160 . S
O29 C28 1.306 . S
O29 Cd30 2.228 . S
Cd30 O29 2.228 . S
Cd30 O34 2.273 . S
Cd30 O38 2.277 . S
O31 C28 1.160 . S
O31 Cd32 2.203 . S
Cd32 O31 2.203 . S
Cd32 O34 2.411 . S
Cd32 O35 2.333 . S
Cd32 O36 2.352 . S
Cd32 O40 2.277 . S
Cd32 O41 2.356 . S
C33 O38 1.209 . S
C33 O40 1.226 . S
O34 Cd30 2.273 . S
O34 Cd32 2.411 . S
O34 C37 1.320 . S
O35 Cd32 2.333 . S
O35 C37 1.214 . S
O36 Cd32 2.352 . S
O36 C39 1.258 . S
C37 O34 1.320 . S
C37 O35 1.214 . S
O38 Cd30 2.277 . S
O38 C33 1.209 . S
C39 O36 1.258 . S
C39 O41 1.282 . S
O40 Cd32 2.277 . S
O40 C33 1.226 . S
O41 Cd32 2.356 . S
O41 C39 1.282 . S
C42 O43 1.306 . S
C42 O45 1.160 . S
O43 C42 1.306 . S
O43 Cd44 2.228 . S
Cd44 O43 2.228 . S
Cd44 O48 2.273 . S
Cd44 O52 2.277 . S
O45 C42 1.160 . S
O45 Cd46 2.203 . S
Cd46 O45 2.203 . S
Cd46 O48 2.411 . S
Cd46 O49 2.333 . S
Cd46 O50 2.352 . S
Cd46 O54 2.277 . S
Cd46 O55 2.356 . S
C47 O52 1.209 . S
C47 O54 1.226 . S
O48 Cd44 2.273 . S
O48 Cd46 2.411 . S
O48 C51 1.320 . S
O49 Cd46 2.333 . S
O49 C51 1.214 . S
O50 Cd46 2.352 . S
O50 C53 1.258 . S
C51 O48 1.320 . S
C51 O49 1.214 . S
O52 Cd44 2.277 . S
O52 C47 1.209 . S
C53 O50 1.258 . S
C53 O55 1.282 . S
O54 Cd46 2.277 . S
O54 C47 1.226 . S
O55 Cd46 2.356 . S
O55 C53 1.282 . S
C56 O57 1.306 . S
C56 O59 1.160 . S
O57 C56 1.306 . S
O57 Cd58 2.228 . S
Cd58 O57 2.228 . S
Cd58 O62 2.273 . S
Cd58 O66 2.277 . S
O59 C56 1.160 . S
O59 Cd60 2.203 . S
Cd60 O59 2.203 . S
Cd60 O62 2.411 . S
Cd60 O63 2.333 . S
Cd60 O64 2.352 . S
Cd60 O68 2.277 . S
Cd60 O69 2.356 . S
C61 O66 1.209 . S
C61 O68 1.226 . S
O62 Cd58 2.273 . S
O62 Cd60 2.411 . S
O62 C65 1.320 . S
O63 Cd60 2.333 . S
O63 C65 1.214 . S
O64 Cd60 2.352 . S
O64 C67 1.258 . S
C65 O62 1.320 . S
C65 O63 1.214 . S
O66 Cd58 2.277 . S
O66 C61 1.209 . S
C67 O64 1.258 . S
C67 O69 1.282 . S
O68 Cd60 2.277 . S
O68 C61 1.226 . S
O69 Cd60 2.356 . S
O69 C67 1.282 . S
C70 O71 1.306 . S
C70 O73 1.160 . S
O71 C70 1.306 . S
O71 Cd72 2.228 . S
Cd72 O71 2.228 . S
Cd72 O76 2.273 . S
Cd72 O80 2.277 . S
O73 C70 1.160 . S
O73 Cd74 2.203 . S
Cd74 O73 2.203 . S
Cd74 O76 2.411 . S
Cd74 O77 2.333 . S
Cd74 O78 2.352 . S
Cd74 O82 2.277 . S
Cd74 O83 2.356 . S
C75 O80 1.209 . S
C75 O82 1.226 . S
O76 Cd72 2.273 . S
O76 Cd74 2.411 . S
O76 C79 1.320 . S
O77 Cd74 2.333 . S
O77 C79 1.214 . S
O78 Cd74 2.352 . S
O78 C81 1.258 . S
C79 O76 1.320 . S
C79 O77 1.214 . S
O80 Cd72 2.277 . S
O80 C75 1.209 . S
C81 O78 1.258 . S
C81 O83 1.282 . S
O82 Cd74 2.277 . S
O82 C75 1.226 . S
O83 Cd74 2.356 . S
O83 C81 1.282 . S
C84 O85 1.306 . S
C84 O87 1.160 . S
O85 C84 1.306 . S
O85 Cd86 2.228 . S
Cd86 O85 2.228 . S
Cd86 O90 2.273 . S
Cd86 O94 2.277 . S
O87 C84 1.160 . S
O87 Cd88 2.203 . S
Cd88 O87 2.203 . S
Cd88 O90 2.411 . S
Cd88 O91 2.333 . S
Cd88 O92 2.352 . S
Cd88 O96 2.277 . S
Cd88 O97 2.356 . S
C89 O94 1.209 . S
C89 O96 1.226 . S
O90 Cd86 2.273 . S
O90 Cd88 2.411 . S
O90 C93 1.320 . S
O91 Cd88 2.333 . S
O91 C93 1.214 . S
O92 Cd88 2.352 . S
O92 C95 1.258 . S
C93 O90 1.320 . S
C93 O91 1.214 . S
O94 Cd86 2.277 . S
O94 C89 1.209 . S
C95 O92 1.258 . S
C95 O97 1.282 . S
O96 Cd88 2.277 . S
O96 C89 1.226 . S
O97 Cd88 2.356 . S
O97 C95 1.282 . S
C98 O99 1.306 . S
C98 O101 1.160 . S
O99 C98 1.306 . S
O99 Cd100 2.228 . S
Cd100 O99 2.228 . S
Cd100 O104 2.273 . S
Cd100 O108 2.277 . S
O101 C98 1.160 . S
O101 Cd102 2.203 . S
Cd102 O101 2.203 . S
Cd102 O104 2.411 . S
Cd102 O105 2.333 . S
Cd102 O106 2.352 . S
Cd102 O110 2.277 . S
Cd102 O111 2.356 . S
C103 O108 1.209 . S
C103 O110 1.226 . S
O104 Cd100 2.273 . S
O104 Cd102 2.411 . S
O104 C107 1.320 . S
O105 Cd102 2.333 . S
O105 C107 1.214 . S
O106 Cd102 2.352 . S
O106 C109 1.258 . S
C107 O104 1.320 . S
C107 O105 1.214 . S
O108 Cd100 2.277 . S
O108 C103 1.209 . S
C109 O106 1.258 . S
C109 O111 1.282 . S
O110 Cd102 2.277 . S
O110 C103 1.226 . S
O111 Cd102 2.356 . S
O111 C109 1.282 . S
H112 C113 0.951 . S
C113 H112 0.951 . S
C113 C119 1.265 . S
H114 C119 0.950 . S
H115 C123 0.949 . S
H116 C124 0.950 . S
H117 C125 0.951 . S
H118 C126 0.951 . S
C119 C113 1.265 . S
C119 H114 0.950 . S
C119 C120 1.478 . S
C120 C119 1.478 . S
C120 C121 1.397 . S
C120 C137 1.394 . S
C121 C120 1.397 . S
C121 C122 1.438 1_445 S
C121 C126 1.429 . S
C122 C121 1.438 1_665 S
C122 C123 1.428 . S
C122 C135 1.394 . S
C123 H115 0.949 . S
C123 C122 1.428 . S
C123 C124 1.345 1_565 S
C124 H116 0.950 . S
C124 C123 1.345 1_545 S
C124 C125 1.424 1_655 S
C125 H117 0.951 . S
C125 C124 1.424 1_455 S
C125 C126 1.347 . S
C126 H118 0.951 . S
C126 C121 1.429 . S
C126 C125 1.347 . S
H127 C128 0.951 . S
C128 H127 0.951 . S
C128 C134 1.265 . S
H129 C134 0.950 . S
H130 C138 0.949 . S
H131 C139 0.950 . S
H132 C140 0.951 . S
H133 C141 0.951 . S
C134 C128 1.265 . S
C134 H129 0.950 . S
C134 C135 1.478 . S
C135 C122 1.394 . S
C135 C134 1.478 . S
C135 C136 1.397 . S
C136 C135 1.397 . S
C136 C137 1.438 1_665 S
C136 C141 1.429 . S
C137 C120 1.394 . S
C137 C136 1.438 1_445 S
C137 C138 1.428 . S
C138 H130 0.949 . S
C138 C137 1.428 . S
C138 C139 1.345 1_545 S
C139 H131 0.950 . S
C139 C138 1.345 1_565 S
C139 C140 1.424 1_455 S
C140 H132 0.951 . S
C140 C139 1.424 1_655 S
C140 C141 1.347 . S
C141 H133 0.951 . S
C141 C136 1.429 . S
C141 C140 1.347 . S
H142 C143 0.951 . S
C143 H142 0.951 . S
C143 C149 1.265 . S
H144 C149 0.950 . S
H145 C153 0.949 . S
H146 C154 0.950 . S
H147 C155 0.951 . S
H148 C156 0.951 . S
C149 C143 1.265 . S
C149 H144 0.950 . S
C149 C150 1.478 . S
C150 C149 1.478 . S
C150 C151 1.397 1_556 S
C150 C167 1.394 . S
C151 C150 1.397 1_554 S
C151 C152 1.438 1_465 S
C151 C156 1.429 . S
C152 C151 1.438 1_645 S
C152 C153 1.428 . S
C152 C165 1.394 . S
C153 H145 0.949 . S
C153 C152 1.428 . S
C153 C154 1.345 1_545 S
C154 H146 0.950 . S
C154 C153 1.345 1_565 S
C154 C155 1.424 . S
C155 H147 0.951 . S
C155 C154 1.424 . S
C155 C156 1.347 1_655 S
C156 H148 0.951 . S
C156 C151 1.429 . S
C156 C155 1.347 1_455 S
H157 C158 0.951 . S
C158 H157 0.951 . S
C158 C164 1.265 . S
H159 C164 0.950 . S
H160 C168 0.949 . S
H161 C169 0.950 . S
H162 C170 0.951 . S
H163 C171 0.951 . S
C164 C158 1.265 . S
C164 H159 0.950 . S
C164 C165 1.478 . S
C165 C152 1.394 . S
C165 C164 1.478 . S
C165 C166 1.397 1_554 S
C166 C165 1.397 1_556 S
C166 C167 1.438 1_645 S
C166 C171 1.429 . S
C167 C150 1.394 . S
C167 C166 1.438 1_465 S
C167 C168 1.428 . S
C168 H160 0.949 . S
C168 C167 1.428 . S
C168 C169 1.345 1_565 S
C169 H161 0.950 . S
C169 C168 1.345 1_545 S
C169 C170 1.424 1_455 S
C170 H162 0.951 . S
C170 C169 1.424 1_655 S
C170 C171 1.347 . S
C171 H163 0.951 . S
C171 C166 1.429 . S
C171 C170 1.347 . S
H172 C173 0.951 . S
C173 H172 0.951 . S
C173 C179 1.265 . S
H174 C179 0.950 . S
H175 C183 0.949 . S
H176 C184 0.950 . S
H177 C185 0.951 . S
H178 C186 0.951 . S
C179 C173 1.265 . S
C179 H174 0.950 . S
C179 C180 1.478 . S
C180 C179 1.478 . S
C180 C181 1.397 . S
C180 C197 1.394 . S
C181 C180 1.397 . S
C181 C182 1.438 . S
C181 C186 1.429 . S
C182 C181 1.438 . S
C182 C183 1.428 . S
C182 C195 1.394 . S
C183 H175 0.949 . S
C183 C182 1.428 . S
C183 C184 1.345 . S
C184 H176 0.950 . S
C184 C183 1.345 . S
C184 C185 1.424 . S
C185 H177 0.951 . S
C185 C184 1.424 . S
C185 C186 1.347 . S
C186 H178 0.951 . S
C186 C181 1.429 . S
C186 C185 1.347 . S
H187 C188 0.951 . S
C188 H187 0.951 . S
C188 C194 1.265 . S
H189 C194 0.950 . S
H190 C198 0.949 . S
H191 C199 0.950 . S
H192 C200 0.951 . S
H193 C201 0.951 . S
C194 C188 1.265 . S
C194 H189 0.950 . S
C194 C195 1.478 . S
C195 C182 1.394 . S
C195 C194 1.478 . S
C195 C196 1.397 . S
C196 C195 1.397 . S
C196 C197 1.438 . S
C196 C201 1.429 . S
C197 C180 1.394 . S
C197 C196 1.438 . S
C197 C198 1.428 . S
C198 H190 0.949 . S
C198 C197 1.428 . S
C198 C199 1.345 . S
C199 H191 0.950 . S
C199 C198 1.345 . S
C199 C200 1.424 . S
C200 H192 0.951 . S
C200 C199 1.424 . S
C200 C201 1.347 . S
C201 H193 0.951 . S
C201 C196 1.429 . S
C201 C200 1.347 . S
H202 C203 0.951 . S
C203 H202 0.951 . S
C203 C209 1.265 . S
H204 C209 0.950 . S
H205 C213 0.949 . S
H206 C214 0.950 . S
H207 C215 0.951 . S
H208 C216 0.951 . S
C209 C203 1.265 . S
C209 H204 0.950 . S
C209 C210 1.478 . S
C210 C209 1.478 . S
C210 C211 1.397 1_554 S
C210 C227 1.394 . S
C211 C210 1.397 1_556 S
C211 C212 1.438 . S
C211 C216 1.429 . S
C212 C211 1.438 . S
C212 C213 1.428 . S
C212 C225 1.394 . S
C213 H205 0.949 . S
C213 C212 1.428 . S
C213 C214 1.345 . S
C214 H206 0.950 . S
C214 C213 1.345 . S
C214 C215 1.424 . S
C215 H207 0.951 . S
C215 C214 1.424 . S
C215 C216 1.347 . S
C216 H208 0.951 . S
C216 C211 1.429 . S
C216 C215 1.347 . S
H217 C218 0.951 . S
C218 H217 0.951 . S
C218 C224 1.265 . S
H219 C224 0.950 . S
H220 C228 0.949 . S
H221 C229 0.950 . S
H222 C230 0.951 . S
H223 C231 0.951 . S
C224 C218 1.265 . S
C224 H219 0.950 . S
C224 C225 1.478 . S
C225 C212 1.394 . S
C225 C224 1.478 . S
C225 C226 1.397 1_556 S
C226 C225 1.397 1_554 S
C226 C227 1.438 . S
C226 C231 1.429 . S
C227 C210 1.394 . S
C227 C226 1.438 . S
C227 C228 1.428 . S
C228 H220 0.949 . S
C228 C227 1.428 . S
C228 C229 1.345 . S
C229 H221 0.950 . S
C229 C228 1.345 . S
C229 C230 1.424 . S
C230 H222 0.951 . S
C230 C229 1.424 . S
C230 C231 1.347 . S
C231 H223 0.951 . S
C231 C226 1.429 . S
C231 C230 1.347 . S
H232 C233 0.951 . S
C233 H232 0.951 . S
C233 C239 1.265 . S
H234 C239 0.950 . S
H235 C243 0.949 . S
H236 C244 0.950 . S
H237 C245 0.951 . S
H238 C246 0.951 . S
C239 C233 1.265 . S
C239 H234 0.950 . S
C239 C240 1.478 . S
C240 C239 1.478 . S
C240 C241 1.397 . S
C240 C257 1.394 1_554 S
C241 C240 1.397 . S
C241 C242 1.438 1_655 S
C241 C246 1.429 . S
C242 C241 1.438 1_455 S
C242 C243 1.428 . S
C242 C255 1.394 1_554 S
C243 H235 0.949 . S
C243 C242 1.428 . S
C243 C244 1.345 . S
C244 H236 0.950 . S
C244 C243 1.345 . S
C244 C245 1.424 1_455 S
C245 H237 0.951 . S
C245 C244 1.424 1_655 S
C245 C246 1.347 . S
C246 H238 0.951 . S
C246 C241 1.429 . S
C246 C245 1.347 . S
H247 C248 0.951 . S
C248 H247 0.951 . S
C248 C254 1.265 . S
H249 C254 0.950 . S
H250 C258 0.949 . S
H251 C259 0.950 . S
H252 C260 0.951 . S
H253 C261 0.951 . S
C254 C248 1.265 . S
C254 H249 0.950 . S
C254 C255 1.478 . S
C255 C242 1.394 1_556 S
C255 C254 1.478 . S
C255 C256 1.397 . S
C256 C255 1.397 . S
C256 C257 1.438 1_455 S
C256 C261 1.429 . S
C257 C240 1.394 1_556 S
C257 C256 1.438 1_655 S
C257 C258 1.428 . S
C258 H250 0.949 . S
C258 C257 1.428 . S
C258 C259 1.345 . S
C259 H251 0.950 . S
C259 C258 1.345 . S
C259 C260 1.424 1_655 S
C260 H252 0.951 . S
C260 C259 1.424 1_455 S
C260 C261 1.347 . S
C261 H253 0.951 . S
C261 C256 1.429 . S
C261 C260 1.347 . S
H262 C263 0.951 . S
C263 H262 0.951 . S
C263 C269 1.265 . S
H264 C269 0.950 . S
H265 C273 0.949 1_655 S
H266 C274 0.950 . S
H267 C275 0.951 . S
H268 C276 0.951 . S
C269 C263 1.265 . S
C269 H264 0.950 . S
C269 C270 1.478 . S
C270 C269 1.478 . S
C270 C271 1.397 . S
C270 C287 1.394 . S
C271 C270 1.397 . S
C271 C272 1.438 . S
C271 C276 1.429 . S
C272 C271 1.438 . S
C272 C273 1.428 . S
C272 C285 1.394 1_455 S
C273 H265 0.949 1_455 S
C273 C272 1.428 . S
C273 C274 1.345 . S
C274 H266 0.950 . S
C274 C273 1.345 . S
C274 C275 1.424 . S
C275 H267 0.951 . S
C275 C274 1.424 . S
C275 C276 1.347 . S
C276 H268 0.951 . S
C276 C271 1.429 . S
C276 C275 1.347 . S
H277 C278 0.951 . S
C278 H277 0.951 . S
C278 C284 1.265 . S
H279 C284 0.950 . S
H280 C288 0.949 . S
H281 C289 0.950 . S
H282 C290 0.951 . S
H283 C291 0.951 . S
C284 C278 1.265 . S
C284 H279 0.950 . S
C284 C285 1.478 . S
C285 C272 1.394 1_655 S
C285 C284 1.478 . S
C285 C286 1.397 . S
C286 C285 1.397 . S
C286 C287 1.438 1_655 S
C286 C291 1.429 . S
C287 C270 1.394 . S
C287 C286 1.438 1_455 S
C287 C288 1.428 . S
C288 H280 0.949 . S
C288 C287 1.428 . S
C288 C289 1.345 1_455 S
C289 H281 0.950 . S
C289 C288 1.345 1_655 S
C289 C290 1.424 . S
C290 H282 0.951 . S
C290 C289 1.424 . S
C290 C291 1.347 . S
C291 H283 0.951 . S
C291 C286 1.429 . S
C291 C290 1.347 . S
H292 C293 0.951 . S
C293 H292 0.951 . S
C293 C299 1.265 . S
H294 C299 0.950 . S
H295 C303 0.949 . S
H296 C304 0.950 . S
H297 C305 0.951 . S
H298 C306 0.951 1_545 S
C299 C293 1.265 . S
C299 H294 0.950 . S
C299 C300 1.478 . S
C300 C299 1.478 . S
C300 C301 1.397 1_545 S
C300 C317 1.394 1_556 S
C301 C300 1.397 1_565 S
C301 C302 1.438 . S
C301 C306 1.429 . S
C302 C301 1.438 . S
C302 C303 1.428 . S
C302 C315 1.394 1_556 S
C303 H295 0.949 . S
C303 C302 1.428 . S
C303 C304 1.345 . S
C304 H296 0.950 . S
C304 C303 1.345 . S
C304 C305 1.424 . S
C305 H297 0.951 . S
C305 C304 1.424 . S
C305 C306 1.347 . S
C306 H298 0.951 1_565 S
C306 C301 1.429 . S
C306 C305 1.347 . S
H307 C308 0.951 . S
C308 H307 0.951 . S
C308 C314 1.265 . S
H309 C314 0.950 . S
H310 C318 0.949 . S
H311 C319 0.950 . S
H312 C320 0.951 . S
H313 C321 0.951 1_565 S
C314 C308 1.265 . S
C314 H309 0.950 . S
C314 C315 1.478 . S
C315 C302 1.394 1_554 S
C315 C314 1.478 . S
C315 C316 1.397 1_565 S
C316 C315 1.397 1_545 S
C316 C317 1.438 . S
C316 C321 1.429 . S
C317 C300 1.394 1_554 S
C317 C316 1.438 . S
C317 C318 1.428 . S
C318 H310 0.949 . S
C318 C317 1.428 . S
C318 C319 1.345 . S
C319 H311 0.950 . S
C319 C318 1.345 . S
C319 C320 1.424 . S
C320 H312 0.951 . S
C320 C319 1.424 . S
C320 C321 1.347 . S
C321 H313 0.951 1_545 S
C321 C316 1.429 . S
C321 C320 1.347 . S
H322 C323 0.951 . S
C323 H322 0.951 . S
C323 C329 1.265 . S
H324 C329 0.950 . S
H325 C333 0.949 1_545 S
H326 C334 0.950 . S
H327 C335 0.951 . S
H328 C336 0.951 . S
C329 C323 1.265 . S
C329 H324 0.950 . S
C329 C330 1.478 . S
C330 C329 1.478 . S
C330 C331 1.397 . S
C330 C347 1.394 1_565 S
C331 C330 1.397 . S
C331 C332 1.438 . S
C331 C336 1.429 . S
C332 C331 1.438 . S
C332 C333 1.428 . S
C332 C345 1.394 1_565 S
C333 H325 0.949 1_565 S
C333 C332 1.428 . S
C333 C334 1.345 . S
C334 H326 0.950 . S
C334 C333 1.345 . S
C334 C335 1.424 . S
C335 H327 0.951 . S
C335 C334 1.424 . S
C335 C336 1.347 . S
C336 H328 0.951 . S
C336 C331 1.429 . S
C336 C335 1.347 . S
H337 C338 0.951 . S
C338 H337 0.951 . S
C338 C344 1.265 . S
H339 C344 0.950 . S
H340 C348 0.949 1_565 S
H341 C349 0.950 . S
H342 C350 0.951 . S
H343 C351 0.951 . S
C344 C338 1.265 . S
C344 H339 0.950 . S
C344 C345 1.478 . S
C345 C332 1.394 1_545 S
C345 C344 1.478 . S
C345 C346 1.397 . S
C346 C345 1.397 . S
C346 C347 1.438 . S
C346 C351 1.429 . S
C347 C330 1.394 1_545 S
C347 C346 1.438 . S
C347 C348 1.428 . S
C348 H340 0.949 1_545 S
C348 C347 1.428 . S
C348 C349 1.345 . S
C349 H341 0.950 . S
C349 C348 1.345 . S
C349 C350 1.424 . S
C350 H342 0.951 . S
C350 C349 1.424 . S
C350 C351 1.347 . S
C351 H343 0.951 . S
C351 C346 1.429 . S
C351 C350 1.347 . S
H352 C353 0.951 . S
C353 H352 0.951 . S
C353 C359 1.265 . S
H354 C359 0.950 . S
H355 C363 0.949 . S
H356 C364 0.950 . S
H357 C365 0.951 . S
H358 C366 0.951 . S
C359 C353 1.265 . S
C359 H354 0.950 . S
C359 C360 1.478 . S
C360 C359 1.478 . S
C360 C361 1.397 . S
C360 C377 1.394 . S
C361 C360 1.397 . S
C361 C362 1.438 . S
C361 C366 1.429 . S
C362 C361 1.438 . S
C362 C363 1.428 . S
C362 C375 1.394 . S
C363 H355 0.949 . S
C363 C362 1.428 . S
C363 C364 1.345 . S
C364 H356 0.950 . S
C364 C363 1.345 . S
C364 C365 1.424 . S
C365 H357 0.951 . S
C365 C364 1.424 . S
C365 C366 1.347 . S
C366 H358 0.951 . S
C366 C361 1.429 . S
C366 C365 1.347 . S
H367 C368 0.951 . S
C368 H367 0.951 . S
C368 C374 1.265 . S
H369 C374 0.950 . S
H370 C378 0.949 . S
H371 C379 0.950 . S
H372 C380 0.951 . S
H373 C381 0.951 . S
C374 C368 1.265 . S
C374 H369 0.950 . S
C374 C375 1.478 . S
C375 C362 1.394 . S
C375 C374 1.478 . S
C375 C376 1.397 . S
C376 C375 1.397 . S
C376 C377 1.438 . S
C376 C381 1.429 . S
C377 C360 1.394 . S
C377 C376 1.438 . S
C377 C378 1.428 . S
C378 H370 0.949 . S
C378 C377 1.428 . S
C378 C379 1.345 . S
C379 H371 0.950 . S
C379 C378 1.345 . S
C379 C380 1.424 . S
C380 H372 0.951 . S
C380 C379 1.424 . S
C380 C381 1.347 . S
C381 H373 0.951 . S
C381 C376 1.429 . S
C381 C380 1.347 . S
H382 C383 0.951 . S
C383 H382 0.951 . S
C383 C389 1.265 . S
H384 C389 0.950 . S
H385 C393 0.949 . S
H386 C394 0.950 . S
H387 C395 0.951 1_556 S
H388 C396 0.951 . S
C389 C383 1.265 . S
C389 H384 0.950 . S
C389 C390 1.478 . S
C390 C389 1.478 . S
C390 C391 1.397 . S
C390 C407 1.394 . S
C391 C390 1.397 . S
C391 C392 1.438 1_556 S
C391 C396 1.429 . S
C392 C391 1.438 1_554 S
C392 C393 1.428 . S
C392 C405 1.394 . S
C393 H385 0.949 . S
C393 C392 1.428 . S
C393 C394 1.345 . S
C394 H386 0.950 . S
C394 C393 1.345 . S
C394 C395 1.424 . S
C395 H387 0.951 1_554 S
C395 C394 1.424 . S
C395 C396 1.347 1_554 S
C396 H388 0.951 . S
C396 C391 1.429 . S
C396 C395 1.347 1_556 S
H397 C398 0.951 . S
C398 H397 0.951 . S
C398 C404 1.265 . S
H399 C404 0.950 . S
H400 C408 0.949 . S
H401 C409 0.950 . S
H402 C410 0.951 . S
H403 C411 0.951 . S
C404 C398 1.265 . S
C404 H399 0.950 . S
C404 C405 1.478 . S
C405 C392 1.394 . S
C405 C404 1.478 . S
C405 C406 1.397 . S
C406 C405 1.397 . S
C406 C407 1.438 1_554 S
C406 C411 1.429 . S
C407 C390 1.394 . S
C407 C406 1.438 1_556 S
C407 C408 1.428 . S
C408 H400 0.949 . S
C408 C407 1.428 . S
C408 C409 1.345 . S
C409 H401 0.950 . S
C409 C408 1.345 . S
C409 C410 1.424 . S
C410 H402 0.951 . S
C410 C409 1.424 . S
C410 C411 1.347 1_556 S
C411 H403 0.951 . S
C411 C406 1.429 . S
C411 C410 1.347 1_554 S
H412 C413 0.951 . S
C413 H412 0.951 . S
C413 C419 1.265 . S
H414 C419 0.950 . S
H415 C423 0.949 . S
H416 C424 0.950 . S
H417 C425 0.951 . S
H418 C426 0.951 . S
C419 C413 1.265 . S
C419 H414 0.950 . S
C419 C420 1.478 . S
C420 C419 1.478 . S
C420 C421 1.397 . S
C420 C437 1.394 . S
C421 C420 1.397 . S
C421 C422 1.438 . S
C421 C426 1.429 . S
C422 C421 1.438 . S
C422 C423 1.428 . S
C422 C435 1.394 . S
C423 H415 0.949 . S
C423 C422 1.428 . S
C423 C424 1.345 . S
C424 H416 0.950 . S
C424 C423 1.345 . S
C424 C425 1.424 . S
C425 H417 0.951 . S
C425 C424 1.424 . S
C425 C426 1.347 . S
C426 H418 0.951 . S
C426 C421 1.429 . S
C426 C425 1.347 . S
H427 C428 0.951 . S
C428 H427 0.951 . S
C428 C434 1.265 . S
H429 C434 0.950 . S
H430 C438 0.949 . S
H431 C439 0.950 . S
H432 C440 0.951 . S
H433 C441 0.951 . S
C434 C428 1.265 . S
C434 H429 0.950 . S
C434 C435 1.478 . S
C435 C422 1.394 . S
C435 C434 1.478 . S
C435 C436 1.397 . S
C436 C435 1.397 . S
C436 C437 1.438 . S
C436 C441 1.429 . S
C437 C420 1.394 . S
C437 C436 1.438 . S
C437 C438 1.428 . S
C438 H430 0.949 . S
C438 C437 1.428 . S
C438 C439 1.345 . S
C439 H431 0.950 . S
C439 C438 1.345 . S
C439 C440 1.424 . S
C440 H432 0.951 . S
C440 C439 1.424 . S
C440 C441 1.347 . S
C441 H433 0.951 . S
C441 C436 1.429 . S
C441 C440 1.347 . S
H442 C443 0.951 . S
C443 H442 0.951 . S
C443 C449 1.265 . S
H444 C449 0.950 . S
H445 C453 0.949 . S
H446 C454 0.950 . S
H447 C455 0.951 . S
H448 C456 0.951 . S
C449 C443 1.265 . S
C449 H444 0.950 . S
C449 C450 1.478 . S
C450 C449 1.478 . S
C450 C451 1.397 . S
C450 C467 1.394 . S
C451 C450 1.397 . S
C451 C452 1.438 1_554 S
C451 C456 1.429 . S
C452 C451 1.438 1_556 S
C452 C453 1.428 . S
C452 C465 1.394 . S
C453 H445 0.949 . S
C453 C452 1.428 . S
C453 C454 1.345 . S
C454 H446 0.950 . S
C454 C453 1.345 . S
C454 C455 1.424 1_556 S
C455 H447 0.951 . S
C455 C454 1.424 1_554 S
C455 C456 1.347 . S
C456 H448 0.951 . S
C456 C451 1.429 . S
C456 C455 1.347 . S
H457 C458 0.951 . S
C458 H457 0.951 . S
C458 C464 1.265 . S
H459 C464 0.950 . S
H460 C468 0.949 . S
H461 C469 0.950 . S
H462 C470 0.951 . S
H463 C471 0.951 . S
C464 C458 1.265 . S
C464 H459 0.950 . S
C464 C465 1.478 . S
C465 C452 1.394 . S
C465 C464 1.478 . S
C465 C466 1.397 . S
C466 C465 1.397 . S
C466 C467 1.438 1_556 S
C466 C471 1.429 . S
C467 C450 1.394 . S
C467 C466 1.438 1_554 S
C467 C468 1.428 . S
C468 H460 0.949 . S
C468 C467 1.428 . S
C468 C469 1.345 . S
C469 H461 0.950 . S
C469 C468 1.345 . S
C469 C470 1.424 1_554 S
C470 H462 0.951 . S
C470 C469 1.424 1_556 S
C470 C471 1.347 . S
C471 H463 0.951 . S
C471 C466 1.429 . S
C471 C470 1.347 . S
H472 C473 0.951 . S
C473 H472 0.951 . S
C473 C479 1.265 . S
H474 C479 0.950 . S
H475 C483 0.949 . S
H476 C484 0.950 . S
H477 C485 0.951 . S
H478 C486 0.951 . S
C479 C473 1.265 . S
C479 H474 0.950 . S
C479 C480 1.478 . S
C480 C479 1.478 . S
C480 C481 1.397 . S
C480 C497 1.394 . S
C481 C480 1.397 . S
C481 C482 1.438 . S
C481 C486 1.429 . S
C482 C481 1.438 . S
C482 C483 1.428 . S
C482 C495 1.394 . S
C483 H475 0.949 . S
C483 C482 1.428 . S
C483 C484 1.345 . S
C484 H476 0.950 . S
C484 C483 1.345 . S
C484 C485 1.424 . S
C485 H477 0.951 . S
C485 C484 1.424 . S
C485 C486 1.347 . S
C486 H478 0.951 . S
C486 C481 1.429 . S
C486 C485 1.347 . S
H487 C488 0.951 . S
C488 H487 0.951 . S
C488 C494 1.265 . S
H489 C494 0.950 . S
H490 C498 0.949 . S
H491 C499 0.950 . S
H492 C500 0.951 . S
H493 C501 0.951 . S
C494 C488 1.265 . S
C494 H489 0.950 . S
C494 C495 1.478 . S
C495 C482 1.394 . S
C495 C494 1.478 . S
C495 C496 1.397 . S
C496 C495 1.397 . S
C496 C497 1.438 . S
C496 C501 1.429 . S
C497 C480 1.394 . S
C497 C496 1.438 . S
C497 C498 1.428 . S
C498 H490 0.949 . S
C498 C497 1.428 . S
C498 C499 1.345 . S
C499 H491 0.950 . S
C499 C498 1.345 . S
C499 C500 1.424 . S
C500 H492 0.951 . S
C500 C499 1.424 . S
C500 C501 1.347 . S
C501 H493 0.951 . S
C501 C496 1.429 . S
C501 C500 1.347 . S
H502 C503 0.951 . S
C503 H502 0.951 . S
C503 C509 1.265 . S
H504 C509 0.950 . S
H505 C513 0.949 . S
H506 C514 0.950 . S
H507 C515 0.951 . S
H508 C516 0.951 . S
C509 C503 1.265 . S
C509 H504 0.950 . S
C509 C510 1.478 . S
C510 C509 1.478 . S
C510 C511 1.397 . S
C510 C527 1.394 . S
C511 C510 1.397 . S
C511 C512 1.438 . S
C511 C516 1.429 . S
C512 C511 1.438 . S
C512 C513 1.428 . S
C512 C525 1.394 . S
C513 H505 0.949 . S
C513 C512 1.428 . S
C513 C514 1.345 . S
C514 H506 0.950 . S
C514 C513 1.345 . S
C514 C515 1.424 . S
C515 H507 0.951 . S
C515 C514 1.424 . S
C515 C516 1.347 . S
C516 H508 0.951 . S
C516 C511 1.429 . S
C516 C515 1.347 . S
H517 C518 0.951 . S
C518 H517 0.951 . S
C518 C524 1.265 . S
H519 C524 0.950 . S
H520 C528 0.949 . S
H521 C529 0.950 . S
H522 C530 0.951 . S
H523 C531 0.951 . S
C524 C518 1.265 . S
C524 H519 0.950 . S
C524 C525 1.478 . S
C525 C512 1.394 . S
C525 C524 1.478 . S
C525 C526 1.397 . S
C526 C525 1.397 . S
C526 C527 1.438 . S
C526 C531 1.429 . S
C527 C510 1.394 . S
C527 C526 1.438 . S
C527 C528 1.428 . S
C528 H520 0.949 . S
C528 C527 1.428 . S
C528 C529 1.345 . S
C529 H521 0.950 . S
C529 C528 1.345 . S
C529 C530 1.424 . S
C530 H522 0.951 . S
C530 C529 1.424 . S
C530 C531 1.347 . S
C531 H523 0.951 . S
C531 C526 1.429 . S
C531 C530 1.347 . S
H532 C533 0.951 . S
C533 H532 0.951 . S
C533 C539 1.265 . S
H534 C539 0.950 . S
H535 C543 0.949 . S
H536 C544 0.950 . S
H537 C545 0.951 . S
H538 C546 0.951 . S
C539 C533 1.265 . S
C539 H534 0.950 . S
C539 C540 1.478 . S
C540 C539 1.478 . S
C540 C541 1.397 . S
C540 C557 1.394 . S
C541 C540 1.397 . S
C541 C542 1.438 1_455 S
C541 C546 1.429 . S
C542 C541 1.438 1_655 S
C542 C543 1.428 . S
C542 C555 1.394 . S
C543 H535 0.949 . S
C543 C542 1.428 . S
C543 C544 1.345 . S
C544 H536 0.950 . S
C544 C543 1.345 . S
C544 C545 1.424 1_655 S
C545 H537 0.951 . S
C545 C544 1.424 1_455 S
C545 C546 1.347 . S
C546 H538 0.951 . S
C546 C541 1.429 . S
C546 C545 1.347 . S
H547 C548 0.951 . S
C548 H547 0.951 . S
C548 C554 1.265 . S
H549 C554 0.950 . S
H550 C558 0.949 . S
H551 C559 0.950 . S
H552 C560 0.951 . S
H553 C561 0.951 . S
C554 C548 1.265 . S
C554 H549 0.950 . S
C554 C555 1.478 . S
C555 C542 1.394 . S
C555 C554 1.478 . S
C555 C556 1.397 . S
C556 C555 1.397 . S
C556 C557 1.438 1_655 S
C556 C561 1.429 . S
C557 C540 1.394 . S
C557 C556 1.438 1_455 S
C557 C558 1.428 . S
C558 H550 0.949 . S
C558 C557 1.428 . S
C558 C559 1.345 . S
C559 H551 0.950 . S
C559 C558 1.345 . S
C559 C560 1.424 1_455 S
C560 H552 0.951 . S
C560 C559 1.424 1_655 S
C560 C561 1.347 . S
C561 H553 0.951 . S
C561 C556 1.429 . S
C561 C560 1.347 . S
H562 C563 0.951 . S
C563 H562 0.951 . S
C563 C569 1.265 . S
H564 C569 0.950 . S
H565 C573 0.949 . S
H566 C574 0.950 . S
H567 C575 0.951 . S
H568 C576 0.951 . S
C569 C563 1.265 . S
C569 H564 0.950 . S
C569 C570 1.478 . S
C570 C569 1.478 . S
C570 C571 1.397 . S
C570 C587 1.394 . S
C571 C570 1.397 . S
C571 C572 1.438 1_455 S
C571 C576 1.429 . S
C572 C571 1.438 1_655 S
C572 C573 1.428 . S
C572 C585 1.394 . S
C573 H565 0.949 . S
C573 C572 1.428 . S
C573 C574 1.345 . S
C574 H566 0.950 . S
C574 C573 1.345 . S
C574 C575 1.424 1_655 S
C575 H567 0.951 . S
C575 C574 1.424 1_455 S
C575 C576 1.347 . S
C576 H568 0.951 . S
C576 C571 1.429 . S
C576 C575 1.347 . S
H577 C578 0.951 . S
C578 H577 0.951 . S
C578 C584 1.265 . S
H579 C584 0.950 . S
H580 C588 0.949 . S
H581 C589 0.950 . S
H582 C590 0.951 . S
H583 C591 0.951 . S
C584 C578 1.265 . S
C584 H579 0.950 . S
C584 C585 1.478 . S
C585 C572 1.394 . S
C585 C584 1.478 . S
C585 C586 1.397 . S
C586 C585 1.397 . S
C586 C587 1.438 1_655 S
C586 C591 1.429 . S
C587 C570 1.394 . S
C587 C586 1.438 1_455 S
C587 C588 1.428 . S
C588 H580 0.949 . S
C588 C587 1.428 . S
C588 C589 1.345 . S
C589 H581 0.950 . S
C589 C588 1.345 . S
C589 C590 1.424 1_455 S
C590 H582 0.951 . S
C590 C589 1.424 1_655 S
C590 C591 1.347 . S
C591 H583 0.951 . S
C591 C586 1.429 . S
C591 C590 1.347 . S
C113 C11 1.848 . S
C128 C33 1.855 . S
C143 C47 1.831 . S
C158 C25 1.815 . S
C173 C89 1.854 . S
C188 C67 1.848 . S
C203 C81 1.848 . S
C218 C103 1.855 . S
C233 C23 1.205 . S
C248 C42 1.199 . S
C263 C9 1.202 . S
C278 C28 1.181 . S
C293 C98 1.262 . S
C308 C79 1.255 . S
C323 C65 1.256 . S
C338 C84 1.263 . S
C353 C70 1.504 . S
C368 C51 1.521 . S
C383 C37 1.522 . S
C398 C56 1.504 . S
C413 C14 1.501 . S
C428 C107 1.499 . S
C443 C0 1.495 . S
C458 C93 1.496 . S
C473 C5 1.532 . S
C488 C19 1.520 . S
C503 C39 1.566 . S
C518 C53 1.575 . S
C533 C75 1.526 . S
C548 C61 1.526 . S
C563 C95 1.568 . S
C578 C109 1.578 . S
