# Generated by pormake.
# Topology umo, (4)-cn, num edge types: 1
# Building blocks:
#     Node 0, Type 0, BuildingBlock: QUQFOY_clean_sbu_1, # of connection points: 4
#     Node 1, Type 0, BuildingBlock: QUQFOY_clean_sbu_1, # of connection points: 4
#     Node 2, Type 0, BuildingBlock: QUQFOY_clean_sbu_1, # of connection points: 4
#     Node 3, Type 0, BuildingBlock: QUQFOY_clean_sbu_1, # of connection points: 4
#     Node 4, Type 0, BuildingBlock: QUQFOY_clean_sbu_1, # of connection points: 4
#     Node 5, Type 0, BuildingBlock: QUQFOY_clean_sbu_1, # of connection points: 4
#     Node 6, Type 0, BuildingBlock: QUQFOY_clean_sbu_1, # of connection points: 4
#     Node 7, Type 0, BuildingBlock: QUQFOY_clean_sbu_1, # of connection points: 4
#     Node 8, Type 0, BuildingBlock: QUQFOY_clean_sbu_1, # of connection points: 4
#     Node 9, Type 0, BuildingBlock: QUQFOY_clean_sbu_1, # of connection points: 4
#     Node 10, Type 0, BuildingBlock: QUQFOY_clean_sbu_1, # of connection points: 4
#     Node 11, Type 0, BuildingBlock: QUQFOY_clean_sbu_1, # of connection points: 4
#     Edge 12, Type (0, 0), BuildingBlock: XIVTED_clean_linker_0, # of connection points: 2
#     Edge 13, Type (0, 0), BuildingBlock: XIVTED_clean_linker_0, # of connection points: 2
#     Edge 14, Type (0, 0), BuildingBlock: XIVTED_clean_linker_0, # of connection points: 2
#     Edge 15, Type (0, 0), BuildingBlock: XIVTED_clean_linker_0, # of connection points: 2
#     Edge 16, Type (0, 0), BuildingBlock: XIVTED_clean_linker_0, # of connection points: 2
#     Edge 17, Type (0, 0), BuildingBlock: XIVTED_clean_linker_0, # of connection points: 2
#     Edge 18, Type (0, 0), BuildingBlock: XIVTED_clean_linker_0, # of connection points: 2
#     Edge 19, Type (0, 0), BuildingBlock: XIVTED_clean_linker_0, # of connection points: 2
#     Edge 20, Type (0, 0), BuildingBlock: XIVTED_clean_linker_0, # of connection points: 2
#     Edge 21, Type (0, 0), BuildingBlock: XIVTED_clean_linker_0, # of connection points: 2
#     Edge 22, Type (0, 0), BuildingBlock: XIVTED_clean_linker_0, # of connection points: 2
#     Edge 23, Type (0, 0), BuildingBlock: XIVTED_clean_linker_0, # of connection points: 2
#     Edge 24, Type (0, 0), BuildingBlock: XIVTED_clean_linker_0, # of connection points: 2
#     Edge 25, Type (0, 0), BuildingBlock: XIVTED_clean_linker_0, # of connection points: 2
#     Edge 26, Type (0, 0), BuildingBlock: XIVTED_clean_linker_0, # of connection points: 2
#     Edge 27, Type (0, 0), BuildingBlock: XIVTED_clean_linker_0, # of connection points: 2
#     Edge 28, Type (0, 0), BuildingBlock: XIVTED_clean_linker_0, # of connection points: 2
#     Edge 29, Type (0, 0), BuildingBlock: XIVTED_clean_linker_0, # of connection points: 2
#     Edge 30, Type (0, 0), BuildingBlock: XIVTED_clean_linker_0, # of connection points: 2
#     Edge 31, Type (0, 0), BuildingBlock: XIVTED_clean_linker_0, # of connection points: 2
#     Edge 32, Type (0, 0), BuildingBlock: XIVTED_clean_linker_0, # of connection points: 2
#     Edge 33, Type (0, 0), BuildingBlock: XIVTED_clean_linker_0, # of connection points: 2
#     Edge 34, Type (0, 0), BuildingBlock: XIVTED_clean_linker_0, # of connection points: 2
#     Edge 35, Type (0, 0), BuildingBlock: XIVTED_clean_linker_0, # of connection points: 2
# Relax obj value: 0.084
# Max RMSD: 0.128
# Mean RMSD: 0.128
data_MOF--net-umo--node1-QUQFOY_clean_sbu_1--edge1-XIVTED_clean_linker_0
_symmetry_space_group_name_H-M    P1
_symmetry_Int_Tables_number       1
_symmetry_cell_setting            triclinic
loop_
_symmetry_equiv_pos_as_xyz
'x, y, z'
_cell_length_a     53.158207
_cell_length_b     53.162374
_cell_length_c     38.591882
_cell_angle_alpha  89.854449
_cell_angle_beta   90.061643
_cell_angle_gamma 120.02345
loop_
_atom_site_label
_atom_site_type_symbol
_atom_site_fract_x
_atom_site_fract_y
_atom_site_fract_z
_atom_type_partial_charge
O0 O 0.16399 0.56251 0.44806 0.0
Cd1 Cd 0.15818 0.57096 0.39793 0.0
Cd2 Cd 0.21419 0.58055 0.39236 0.0
O3 O 0.20979 0.57321 0.44573 0.0
O4 O 0.11843 0.56535 0.40208 0.0
O5 O 0.12847 0.5393 0.36646 0.0
C6 C 0.10964 0.54523 0.37923 0.0
C7 C 0.2309 0.55815 0.3535 0.0
C8 C 0.18695 0.56659 0.46318 0.0
C9 C 0.20621 0.63168 0.38117 0.0
O10 O 0.22377 0.62205 0.37993 0.0
O11 O 0.17942 0.61472 0.38722 0.0
O12 O 0.24796 0.57683 0.376 0.0
O13 O 0.20382 0.55108 0.35403 0.0
O14 O 0.59371 0.1588 0.61316 0.0
Cd15 Cd 0.57326 0.15081 0.56631 0.0
Cd16 Cd 0.6155 0.20712 0.55472 0.0
O17 O 0.62203 0.20612 0.60765 0.0
O18 O 0.54489 0.10885 0.57319 0.0
O19 O 0.57604 0.12505 0.5297 0.0
C20 C 0.55551 0.1034 0.54625 0.0
C21 C 0.6546 0.22726 0.51576 0.0
C22 C 0.61088 0.18336 0.62637 0.0
C23 C 0.5541 0.19404 0.55043 0.0
O24 O 0.58043 0.21202 0.54297 0.0
O25 O 0.54677 0.16869 0.56124 0.0
O26 O 0.65042 0.24315 0.53754 0.0
O27 O 0.63687 0.19954 0.51653 0.0
O28 O 0.41522 0.57072 0.77276 0.0
Cd29 Cd 0.40904 0.56133 0.72128 0.0
Cd30 Cd 0.41112 0.61404 0.72295 0.0
O31 O 0.42402 0.61586 0.77465 0.0
O32 O 0.41545 0.52758 0.72101 0.0
O33 O 0.44162 0.56689 0.68935 0.0
C34 C 0.43669 0.54177 0.69994 0.0
C35 C 0.43097 0.65299 0.6832 0.0
C36 C 0.42103 0.59325 0.78999 0.0
C37 C 0.35332 0.55845 0.70983 0.0
O38 O 0.36733 0.58561 0.71583 0.0
O39 O 0.36627 0.5439 0.70795 0.0
O40 O 0.41657 0.65309 0.71002 0.0
O41 O 0.43579 0.63156 0.68001 0.0
O42 O 0.84803 0.43035 0.9465 0.0
Cd43 Cd 0.85018 0.41923 0.89647 0.0
Cd44 Cd 0.79628 0.41377 0.89362 0.0
O45 O 0.80458 0.42618 0.94531 0.0
O46 O 0.89064 0.42673 0.89365 0.0
O47 O 0.87478 0.45029 0.86137 0.0
C48 C 0.8958 0.44618 0.87056 0.0
C49 C 0.77597 0.43218 0.85413 0.0
C50 C 0.82725 0.43092 0.96192 0.0
C51 C 0.8 0.3595 0.88571 0.0
O52 O 0.78397 0.37092 0.88603 0.0
O53 O 0.82737 0.37505 0.88863 0.0
O54 O 0.76135 0.41644 0.88017 0.0
O55 O 0.80286 0.43891 0.85145 0.0
O56 O 0.41522 0.84434 0.10765 0.0
Cd57 Cd 0.4188 0.84625 0.0548 0.0
Cd58 Cd 0.36401 0.80774 0.06122 0.0
O59 O 0.36751 0.82232 0.11214 0.0
O60 O 0.45542 0.88289 0.04538 0.0
O61 O 0.41239 0.875 0.02783 0.0
C62 C 0.44012 0.89224 0.03009 0.0
C63 C 0.32791 0.79611 0.01957 0.0
C64 C 0.39257 0.83454 0.12629 0.0
C65 C 0.40705 0.78826 0.04365 0.0
O66 O 0.38243 0.78221 0.05573 0.0
O67 O 0.42554 0.81424 0.03573 0.0
O68 O 0.32253 0.78128 0.04788 0.0
O69 O 0.35295 0.81951 0.0167 0.0
O70 O 0.5694 0.41044 0.28211 0.0
Cd71 Cd 0.57875 0.42466 0.23204 0.0
Cd72 Cd 0.58368 0.37591 0.22651 0.0
O73 O 0.57413 0.37159 0.27909 0.0
O74 O 0.57404 0.45934 0.2347 0.0
O75 O 0.54756 0.42265 0.19983 0.0
C76 C 0.55384 0.44774 0.21188 0.0
C77 C 0.56131 0.33763 0.18699 0.0
C78 C 0.56985 0.38928 0.29677 0.0
C79 C 0.63774 0.43342 0.21607 0.0
O80 O 0.62627 0.40595 0.21588 0.0
O81 O 0.62241 0.4452 0.22123 0.0
O82 O 0.57853 0.3379 0.21072 0.0
O83 O 0.55561 0.35858 0.18662 0.0
O84 O 0.41816 0.84556 0.39988 0.0
Cd85 Cd 0.41415 0.84993 0.45164 0.0
Cd86 Cd 0.41299 0.79779 0.44986 0.0
O87 O 0.42431 0.80754 0.39753 0.0
O88 O 0.42316 0.89097 0.45187 0.0
O89 O 0.44827 0.87585 0.48237 0.0
C90 C 0.44463 0.89694 0.47215 0.0
C91 C 0.43216 0.77732 0.48861 0.0
C92 C 0.42207 0.82767 0.38237 0.0
C93 C 0.35736 0.79925 0.46557 0.0
O94 O 0.36995 0.7848 0.45898 0.0
O95 O 0.3716 0.82679 0.46681 0.0
O96 O 0.41646 0.76295 0.46246 0.0
O97 O 0.43866 0.80413 0.4916 0.0
O98 O 0.58741 0.4294 0.56262 0.0
Cd99 Cd 0.56555 0.41511 0.60843 0.0
Cd100 Cd 0.60913 0.40276 0.62133 0.0
O101 O 0.61682 0.41173 0.56874 0.0
O102 O 0.53626 0.42739 0.60074 0.0
O103 O 0.56614 0.44234 0.64546 0.0
C104 C 0.54569 0.44301 0.62818 0.0
C105 C 0.64757 0.42109 0.66129 0.0
C106 C 0.60558 0.42316 0.54989 0.0
C107 C 0.54826 0.35293 0.62264 0.0
O108 O 0.57451 0.36204 0.63127 0.0
O109 O 0.54034 0.37047 0.61176 0.0
O110 O 0.64408 0.40179 0.63871 0.0
O111 O 0.62954 0.43069 0.66081 0.0
O112 O 0.15734 0.59985 0.72377 0.0
Cd113 Cd 0.15083 0.58529 0.77385 0.0
Cd114 Cd 0.20612 0.63225 0.78123 0.0
O115 O 0.20287 0.63536 0.7277 0.0
O116 O 0.11113 0.55105 0.76955 0.0
O117 O 0.12099 0.58718 0.80507 0.0
C118 C 0.10225 0.56235 0.79234 0.0
C119 C 0.22207 0.67134 0.81999 0.0
C120 C 0.18058 0.61908 0.70946 0.0
C121 C 0.19911 0.57356 0.79247 0.0
O122 O 0.21616 0.60083 0.79441 0.0
O123 O 0.17245 0.56328 0.78525 0.0
O124 O 0.23949 0.66986 0.79793 0.0
O125 O 0.19505 0.65122 0.81903 0.0
O126 O 0.56678 0.15653 0.89211 0.0
Cd127 Cd 0.57468 0.15008 0.94223 0.0
Cd128 Cd 0.5814 0.20458 0.94882 0.0
O129 O 0.57287 0.20062 0.896 0.0
O130 O 0.56846 0.11014 0.9385 0.0
O131 O 0.54232 0.12087 0.97325 0.0
C132 C 0.54786 0.10167 0.96078 0.0
C133 C 0.55984 0.2217 0.98795 0.0
C134 C 0.56828 0.17877 0.87786 0.0
C135 C 0.6341 0.19873 0.96008 0.0
O136 O 0.62339 0.2154 0.96032 0.0
O137 O 0.61817 0.17176 0.95428 0.0
O138 O 0.57787 0.2384 0.96465 0.0
O139 O 0.55288 0.19466 0.9881 0.0
O140 O 0.42718 0.58034 0.0659 0.0
Cd141 Cd 0.43238 0.58182 0.11846 0.0
Cd142 Cd 0.37664 0.56516 0.11556 0.0
O143 O 0.37929 0.55542 0.06367 0.0
O144 O 0.4684 0.58033 0.12624 0.0
O145 O 0.42514 0.54611 0.14467 0.0
C146 C 0.45268 0.55572 0.14153 0.0
C147 C 0.33927 0.54013 0.15584 0.0
C148 C 0.40388 0.56784 0.04837 0.0
C149 C 0.42064 0.62738 0.1349 0.0
O150 O 0.3955 0.60887 0.12411 0.0
O151 O 0.44004 0.62042 0.13894 0.0
O152 O 0.33512 0.55109 0.12804 0.0
O153 O 0.36369 0.5405 0.15884 0.0
O154 O 0.85308 0.4201 0.23066 0.0
Cd155 Cd 0.85573 0.43287 0.28102 0.0
Cd156 Cd 0.80265 0.38354 0.28452 0.0
O157 O 0.8104 0.37985 0.23253 0.0
O158 O 0.89589 0.46643 0.28329 0.0
O159 O 0.88135 0.42685 0.31495 0.0
C160 C 0.90185 0.45227 0.30571 0.0
C161 C 0.78327 0.34462 0.32375 0.0
C162 C 0.83247 0.3984 0.21552 0.0
C163 C 0.80478 0.44072 0.29355 0.0
O164 O 0.78936 0.41321 0.29289 0.0
O165 O 0.83218 0.45323 0.29038 0.0
O166 O 0.76831 0.34549 0.29796 0.0
O167 O 0.81002 0.36515 0.32628 0.0
H168 H 0.25276 0.67609 0.34796 0.0
H169 H 0.31628 0.75234 0.50124 0.0
H170 H 0.1883 0.65816 0.42663 0.0
H171 H 0.32817 0.81033 0.41666 0.0
H172 H 0.26882 0.71697 0.47719 0.0
H173 H 0.28151 0.72571 0.37042 0.0
C174 C 0.24415 0.68298 0.36901 0.0
C175 C 0.21827 0.66312 0.38556 0.0
C176 C 0.28129 0.73801 0.46481 0.0
C177 C 0.25137 0.71891 0.41206 0.0
C178 C 0.30819 0.75815 0.47861 0.0
C179 C 0.32581 0.7842 0.46098 0.0
C180 C 0.27292 0.74357 0.43248 0.0
C181 C 0.31487 0.79051 0.43113 0.0
C182 C 0.26048 0.71119 0.38179 0.0
C183 C 0.20815 0.67294 0.4131 0.0
N184 N 0.28956 0.76977 0.41689 0.0
N185 N 0.22533 0.69986 0.42648 0.0
H186 H 0.51502 0.18117 0.60227 0.0
H187 H 0.51232 0.32697 0.56806 0.0
H188 H 0.54939 0.23408 0.51056 0.0
H189 H 0.54336 0.308 0.66228 0.0
H190 H 0.49729 0.27796 0.54715 0.0
H191 H 0.49686 0.21296 0.62191 0.0
C192 C 0.51745 0.19857 0.58541 0.0
C193 C 0.5341 0.20538 0.55499 0.0
C194 C 0.50616 0.28417 0.57304 0.0
C195 C 0.51311 0.24125 0.57709 0.0
C196 C 0.51459 0.31201 0.58512 0.0
C197 C 0.52947 0.32155 0.61674 0.0
C198 C 0.51204 0.26575 0.59316 0.0
C199 C 0.53222 0.30146 0.63761 0.0
C200 C 0.50721 0.21672 0.59677 0.0
C201 C 0.53692 0.22836 0.53434 0.0
N202 N 0.52399 0.27454 0.62521 0.0
N203 N 0.52691 0.24582 0.54604 0.0
H204 H 0.24564 0.57696 0.82709 0.0
H205 H 0.32214 0.51492 0.75497 0.0
H206 H 0.18313 0.52949 0.74692 0.0
H207 H 0.31414 0.57011 0.67904 0.0
H208 H 0.2756 0.50473 0.78041 0.0
H209 H 0.27596 0.55754 0.80559 0.0
C210 C 0.23776 0.56151 0.80596 0.0
C211 C 0.21197 0.55482 0.7887 0.0
C212 C 0.28348 0.51789 0.75717 0.0
C213 C 0.24674 0.53364 0.76347 0.0
C214 C 0.30977 0.52353 0.74245 0.0
C215 C 0.32179 0.54337 0.71492 0.0
C216 C 0.26906 0.53164 0.7435 0.0
C217 C 0.30543 0.55464 0.70018 0.0
C218 C 0.25498 0.55047 0.79374 0.0
C219 C 0.20285 0.53503 0.76103 0.0
N220 N 0.27992 0.54887 0.71497 0.0
N221 N 0.22086 0.52607 0.74826 0.0
H222 H 0.8117 0.33206 0.93672 0.0
H223 H 0.66364 0.1843 0.91485 0.0
H224 H 0.75497 0.31644 0.84958 0.0
H225 H 0.67598 0.24484 0.99629 0.0
H226 H 0.71324 0.21737 0.89459 0.0
H227 H 0.77704 0.28371 0.95952 0.0
C228 C 0.79276 0.3178 0.92141 0.0
C229 C 0.78597 0.32806 0.89131 0.0
C230 C 0.70545 0.22259 0.91789 0.0
C231 C 0.74702 0.27314 0.91679 0.0
C232 C 0.67731 0.20378 0.92962 0.0
C233 C 0.66578 0.21212 0.95709 0.0
C234 C 0.72219 0.24927 0.93451 0.0
C235 C 0.68414 0.23781 0.97492 0.0
C236 C 0.77304 0.29042 0.93457 0.0
C237 C 0.76086 0.30917 0.87285 0.0
N238 N 0.71146 0.25577 0.96299 0.0
N239 N 0.74201 0.2826 0.88614 0.0
H240 H 0.46183 0.79676 0.05488 0.0
H241 H 0.38735 0.64938 0.15643 0.0
H242 H 0.37191 0.72995 0.04441 0.0
H243 H 0.4698 0.67363 0.10881 0.0
H244 H 0.3893 0.69242 0.13116 0.0
H245 H 0.47182 0.76125 0.08369 0.0
C246 C 0.44447 0.77444 0.05746 0.0
C247 C 0.41586 0.76628 0.04782 0.0
C248 C 0.40733 0.68869 0.12703 0.0
C249 C 0.42689 0.7267 0.0818 0.0
C250 C 0.40646 0.66449 0.14188 0.0
C251 C 0.4282 0.65789 0.13414 0.0
C252 C 0.43005 0.70622 0.10435 0.0
C253 C 0.45258 0.6781 0.11517 0.0
C254 C 0.45013 0.75447 0.07434 0.0
C255 C 0.39414 0.73722 0.05197 0.0
N256 N 0.45259 0.70125 0.10001 0.0
N257 N 0.39996 0.71865 0.06942 0.0
H258 H 0.81758 0.48269 0.24571 0.0
H259 H 0.67909 0.42833 0.1799 0.0
H260 H 0.75701 0.43457 0.3274 0.0
H261 H 0.66766 0.47641 0.26222 0.0
H262 H 0.72912 0.44631 0.19963 0.0
H263 H 0.78238 0.49516 0.2218 0.0
C264 C 0.79756 0.47612 0.25969 0.0
C265 C 0.78993 0.45743 0.28841 0.0
C266 C 0.71597 0.45387 0.21238 0.0
C267 C 0.75025 0.47182 0.26155 0.0
C268 C 0.68754 0.44362 0.20119 0.0
C269 C 0.66944 0.451 0.21946 0.0
C270 C 0.72569 0.47053 0.24275 0.0
C271 C 0.68114 0.47046 0.24732 0.0
C272 C 0.77752 0.48306 0.24586 0.0
C273 C 0.76353 0.44895 0.30517 0.0
N274 N 0.70825 0.47863 0.25909 0.0
N275 N 0.74436 0.45592 0.29119 0.0
H276 H 0.1364 0.59517 0.66259 0.0
H277 H 0.23499 0.59692 0.50485 0.0
H278 H 0.2298 0.63732 0.66987 0.0
H279 H 0.14142 0.54552 0.50821 0.0
H280 H 0.23474 0.61282 0.56448 0.0
H281 H 0.13902 0.58059 0.60361 0.0
C282 C 0.15757 0.60193 0.6515 0.0
C283 C 0.1829 0.61743 0.67134 0.0
C284 C 0.21433 0.59776 0.55225 0.0
C285 C 0.18605 0.60001 0.60377 0.0
C286 C 0.21447 0.58832 0.51839 0.0
C287 C 0.18816 0.56991 0.50139 0.0
C288 C 0.1877 0.58878 0.56906 0.0
C289 C 0.16223 0.55984 0.52013 0.0
C290 C 0.15904 0.59326 0.61789 0.0
C291 C 0.20972 0.62553 0.65549 0.0
N292 N 0.16265 0.56963 0.55268 0.0
N293 N 0.21059 0.61646 0.62272 0.0
H294 H 0.59875 0.14017 0.67286 0.0
H295 H 0.59074 0.22773 0.83675 0.0
H296 H 0.6237 0.23079 0.66678 0.0
H297 H 0.55251 0.13453 0.83201 0.0
H298 H 0.60503 0.23085 0.77573 0.0
H299 H 0.58713 0.13992 0.73385 0.0
C300 C 0.60241 0.16023 0.68457 0.0
C301 C 0.61203 0.18548 0.66459 0.0
C302 C 0.59323 0.20974 0.78804 0.0
C303 C 0.59791 0.18516 0.73443 0.0
C304 C 0.58472 0.20789 0.82272 0.0
C305 C 0.57052 0.18082 0.83962 0.0
C306 C 0.58761 0.18436 0.77036 0.0
C307 C 0.56359 0.15588 0.8202 0.0
C308 C 0.59541 0.15999 0.71935 0.0
C309 C 0.61642 0.21085 0.68124 0.0
N310 N 0.57245 0.1583 0.78682 0.0
N311 N 0.60898 0.20998 0.71517 0.0
H312 H 0.44846 0.61072 0.01197 0.0
H313 H 0.39282 0.54343 0.82715 0.0
H314 H 0.36452 0.534 0.99788 0.0
H315 H 0.44478 0.63637 0.8402 0.0
H316 H 0.38756 0.53757 0.88967 0.0
H317 H 0.45248 0.61832 0.94937 0.0
C318 C 0.43092 0.59528 0.99569 0.0
C319 C 0.40617 0.57144 0.01022 0.0
C320 C 0.40011 0.55923 0.8789 0.0
C321 C 0.41088 0.58018 0.93842 0.0
C322 C 0.40344 0.56269 0.84317 0.0
C323 C 0.41956 0.59052 0.82828 0.0
C324 C 0.41344 0.58367 0.90028 0.0
C325 C 0.43231 0.61456 0.85054 0.0
C326 C 0.43319 0.59988 0.95999 0.0
C327 C 0.384 0.55252 0.9878 0.0
N328 N 0.42924 0.61056 0.88557 0.0
N329 N 0.38703 0.55711 0.95291 0.0
H330 H 0.87883 0.42565 0.17195 0.0
H331 H 0.78085 0.40934 0.00653 0.0
H332 H 0.78529 0.37331 0.17217 0.0
H333 H 0.87445 0.4515 0.00435 0.0
H334 H 0.78179 0.39915 0.06834 0.0
H335 H 0.87743 0.43599 0.11065 0.0
C336 C 0.858 0.41582 0.15889 0.0
C337 C 0.83214 0.39857 0.17722 0.0
C338 C 0.80212 0.4109 0.05437 0.0
C339 C 0.83029 0.41105 0.10712 0.0
C340 C 0.80162 0.41713 0.01922 0.0
C341 C 0.82762 0.43124 1.00022 0.0
C342 C 0.82879 0.41897 0.07057 0.0
C343 C 0.85387 0.44046 0.01793 0.0
C344 C 0.85719 0.42196 0.12393 0.0
C345 C 0.80577 0.38652 0.15898 0.0
N346 N 0.85376 0.434 0.05199 0.0
N347 N 0.80549 0.39327 0.12499 0.0
H348 H 0.35512 0.8304 0.17859 0.0
H349 H 0.4428 0.8064 0.3308 0.0
H350 H 0.4378 0.83578 0.16044 0.0
H351 H 0.39316 0.84944 0.34714 0.0
H352 H 0.43487 0.80727 0.26784 0.0
H353 H 0.36222 0.82755 0.2413 0.0
C354 C 0.37471 0.83106 0.18775 0.0
C355 C 0.39606 0.83379 0.16431 0.0
C356 C 0.42584 0.81652 0.28544 0.0
C357 C 0.40388 0.82964 0.23544 0.0
C358 C 0.43038 0.81604 0.32122 0.0
C359 C 0.41903 0.82823 0.34422 0.0
C360 C 0.40915 0.82846 0.27293 0.0
C361 C 0.40279 0.84022 0.3304 0.0
C362 C 0.37875 0.8294 0.2234 0.0
C363 C 0.42097 0.83421 0.17759 0.0
N364 N 0.39817 0.83984 0.29581 0.0
N365 N 0.4241 0.83197 0.21218 0.0
H366 H 0.58998 0.36141 0.33913 0.0
H367 H 0.59418 0.45489 0.50359 0.0
H368 H 0.55435 0.41868 0.34153 0.0
H369 H 0.62022 0.39003 0.50936 0.0
H370 H 0.58432 0.44479 0.44207 0.0
H371 H 0.6027 0.37181 0.40061 0.0
C372 C 0.5842 0.3756 0.35273 0.0
C373 C 0.57117 0.38929 0.33507 0.0
C374 C 0.59248 0.43292 0.45662 0.0
C375 C 0.58648 0.40194 0.40492 0.0
C376 C 0.59847 0.43896 0.49171 0.0
C377 C 0.60787 0.42317 0.51172 0.0
C378 C 0.59574 0.4108 0.44128 0.0
C379 C 0.61308 0.4028 0.49488 0.0
C380 C 0.59184 0.38184 0.38768 0.0
C381 C 0.56452 0.40775 0.35395 0.0
N382 N 0.60658 0.39691 0.46066 0.0
N383 N 0.57248 0.41371 0.38766 0.0
H384 H 0.94115 0.50943 0.31273 0.0
H385 H 0.07795 0.4915 0.34855 0.0
H386 H 0.93032 0.42421 0.32871 0.0
H387 H 0.07152 0.56465 0.38544 0.0
H388 H 0.02611 0.46714 0.33252 0.0
H389 H 0.99171 0.53111 0.33105 0.0
C390 C 0.94944 0.49529 0.32029 0.0
C391 C 0.93161 0.46503 0.3194 0.0
C392 C 0.0362 0.48848 0.34424 0.0
C393 C 0.98954 0.48967 0.33967 0.0
C394 C 0.06569 0.50243 0.35311 0.0
C395 C 0.07895 0.53009 0.36829 0.0
C396 C 0.02032 0.50271 0.34995 0.0
C397 C 0.06213 0.54329 0.3739 0.0
C398 C 0.97824 0.50766 0.33075 0.0
C399 C 0.9434 0.44767 0.32941 0.0
N400 N 0.03379 0.52959 0.36448 0.0
N401 N 0.97186 0.46026 0.33882 0.0
H402 H 0.45702 0.94534 0.43543 0.0
H403 H 0.53157 0.05526 0.58697 0.0
H404 H 0.47801 0.91755 0.53089 0.0
H405 H 0.55324 0.08275 0.4806 0.0
H406 H 0.50867 0.00457 0.56829 0.0
H407 H 0.48876 0.99593 0.45238 0.0
C408 C 0.46837 0.94993 0.45998 0.0
C409 C 0.46475 0.92732 0.48199 0.0
C410 C 0.51875 0.02171 0.54912 0.0
C411 C 0.5008 0.98503 0.50156 0.0
C412 C 0.53165 0.05057 0.55967 0.0
C413 C 0.54408 0.07311 0.53519 0.0
C414 C 0.51762 0.01536 0.51375 0.0
C415 C 0.54384 0.06594 0.50023 0.0
C416 C 0.48663 0.97876 0.46945 0.0
C417 C 0.4802 0.93442 0.51328 0.0
N418 N 0.53031 0.03758 0.49041 0.0
N419 N 0.49725 0.96276 0.52246 0.0
H420 H 0.44635 0.50378 0.73648 0.0
H421 H 0.52135 0.46635 0.58667 0.0
H422 H 0.46962 0.55277 0.64103 0.0
H423 H 0.54173 0.46071 0.69364 0.0
H424 H 0.49792 0.49385 0.60446 0.0
H425 H 0.47659 0.48311 0.7199 0.0
C426 C 0.45781 0.51014 0.71197 0.0
C427 C 0.45537 0.52984 0.68991 0.0
C428 C 0.50777 0.48683 0.62395 0.0
C429 C 0.48971 0.5061 0.6708 0.0
C430 C 0.52096 0.47101 0.61392 0.0
C431 C 0.53329 0.46114 0.63882 0.0
C432 C 0.50624 0.49213 0.65921 0.0
C433 C 0.53245 0.46796 0.6737 0.0
C434 C 0.47522 0.49852 0.70272 0.0
C435 C 0.47093 0.5376 0.65868 0.0
N436 N 0.51868 0.48268 0.68298 0.0
N437 N 0.48717 0.52536 0.64976 0.0
H438 H 0.07043 0.58409 0.82338 0.0
H439 H 0.93565 0.4291 0.86314 0.0
H440 H 0.06435 0.50469 0.78632 0.0
H441 H 0.92303 0.50226 0.846 0.0
H442 H 0.98578 0.45831 0.84332 0.0
H443 H 0.01881 0.55623 0.84035 0.0
C444 C 0.05829 0.56087 0.81894 0.0
C445 C 0.0716 0.54662 0.80348 0.0
C446 C 0.972 0.46794 0.84369 0.0
C447 C 0.01323 0.51495 0.82293 0.0
C448 C 0.94345 0.45133 0.85501 0.0
C449 C 0.92525 0.46332 0.85601 0.0
C450 C 0.98269 0.49698 0.83403 0.0
C451 C 0.93641 0.49222 0.84525 0.0
C452 C 0.02892 0.54511 0.82835 0.0
C453 C 0.05493 0.51656 0.79806 0.0
N454 N 0.96466 0.5083 0.83502 0.0
N455 N 0.02672 0.5017 0.80805 0.0
H456 H 0.56376 0.06103 0.95138 0.0
H457 H 0.41532 0.92582 0.0165 0.0
H458 H 0.49449 0.07201 0.9929 0.0
H459 H 0.49718 0.92722 0.01468 0.0
H460 H 0.44084 0.97735 0.99937 0.0
H461 H 0.53638 0.00968 0.96627 0.0
C462 C 0.54274 0.05262 0.96369 0.0
C463 C 0.5314 0.07082 0.97105 0.0
C464 C 0.45307 0.96624 1.00267 0.0
C465 C 0.49979 0.01186 0.98788 0.0
C466 C 0.43856 0.93687 0.01213 0.0
C467 C 0.45422 0.92233 0.01701 0.0
C468 C 0.48327 0.98079 0.99753 0.0
C469 C 0.4843 0.93764 0.01133 0.0
C470 C 0.52715 0.02329 0.97223 0.0
C471 C 0.50406 0.05871 0.98704 0.0
N472 N 0.49781 0.96598 1.0018 0.0
N473 N 0.48903 0.02983 0.9948 0.0
H474 H 0.42613 0.49736 0.15623 0.0
H475 H 0.57259 0.50516 0.21854 0.0
H476 H 0.50987 0.57578 0.15412 0.0
H477 H 0.50045 0.42538 0.18017 0.0
H478 H 0.54705 0.53076 0.20256 0.0
H479 H 0.45021 0.46986 0.17284 0.0
C480 C 0.4495 0.50879 0.15957 0.0
C481 C 0.46608 0.53886 0.15383 0.0
C482 C 0.5368 0.50767 0.1975 0.0
C483 C 0.4935 0.50775 0.17272 0.0
C484 C 0.55133 0.49301 0.20667 0.0
C485 C 0.53861 0.46312 0.20058 0.0
C486 C 0.5091 0.49232 0.18254 0.0
C487 C 0.51105 0.4485 0.18506 0.0
C488 C 0.46318 0.49309 0.16873 0.0
C489 C 0.49627 0.55262 0.15819 0.0
N490 N 0.49704 0.46324 0.17674 0.0
N491 N 0.50898 0.53698 0.1675 0.0
H492 H 0.20582 0.53176 0.2918 0.0
H493 H 0.3485 0.53195 0.22385 0.0
H494 H 0.28332 0.56003 0.353 0.0
H495 H 0.2839 0.53156 0.15573 0.0
H496 H 0.31903 0.52986 0.2737 0.0
H497 H 0.22878 0.5199 0.24431 0.0
C498 C 0.22745 0.53501 0.2955 0.0
C499 C 0.24275 0.54713 0.32637 0.0
C500 C 0.31109 0.52975 0.24782 0.0
C501 C 0.26908 0.53351 0.27215 0.0
C502 C 0.32778 0.53067 0.21929 0.0
C503 C 0.3188 0.53214 0.18548 0.0
C504 C 0.28507 0.53004 0.24256 0.0
C505 C 0.29179 0.53064 0.1813 0.0
C506 C 0.24058 0.52836 0.26831 0.0
C507 C 0.27079 0.55096 0.32959 0.0
N508 N 0.27602 0.52991 0.20947 0.0
N509 N 0.28307 0.5443 0.30283 0.0
H510 H 0.73358 0.29182 0.31893 0.0
H511 H 0.70414 0.2801 0.51925 0.0
H512 H 0.79971 0.34759 0.3916 0.0
H513 H 0.65793 0.20593 0.45229 0.0
H514 H 0.73947 0.3052 0.47299 0.0
H515 H 0.70562 0.25966 0.36681 0.0
C516 C 0.74245 0.29703 0.34491 0.0
C517 C 0.76894 0.3225 0.35133 0.0
C518 C 0.72187 0.28327 0.46856 0.0
C519 C 0.73674 0.28615 0.40631 0.0
C520 C 0.70163 0.26896 0.49491 0.0
C521 C 0.67797 0.24095 0.48952 0.0
C522 C 0.71807 0.26977 0.43623 0.0
C523 C 0.67586 0.22751 0.45753 0.0
C524 C 0.72649 0.27865 0.37221 0.0
C525 C 0.77942 0.32816 0.38548 0.0
N526 N 0.69536 0.24224 0.43185 0.0
N527 N 0.76303 0.31043 0.41179 0.0
H528 H 0.43383 0.7058 0.68757 0.0
H529 H 0.43125 0.72544 0.48416 0.0
H530 H 0.44533 0.65054 0.61541 0.0
H531 H 0.44942 0.79473 0.55565 0.0
H532 H 0.4369 0.69793 0.53151 0.0
H533 H 0.44008 0.73893 0.63994 0.0
C534 C 0.43807 0.70082 0.66178 0.0
C535 C 0.43897 0.67526 0.65552 0.0
C536 C 0.44006 0.71932 0.53677 0.0
C537 C 0.44559 0.71293 0.6006 0.0
C538 C 0.43683 0.73506 0.50973 0.0
C539 C 0.43977 0.76245 0.5159 0.0
C540 C 0.44574 0.73073 0.57052 0.0
C541 C 0.44701 0.77376 0.54963 0.0
C542 C 0.44165 0.71978 0.63457 0.0
C543 C 0.44453 0.67 0.6215 0.0
N544 N 0.44931 0.7577 0.57573 0.0
N545 N 0.44719 0.6884 0.59527 0.0
H546 H 0.72538 0.43361 0.85889 0.0
H547 H 0.69755 0.41862 0.65791 0.0
H548 H 0.79238 0.44618 0.78632 0.0
H549 H 0.64963 0.44398 0.72561 0.0
H550 H 0.73243 0.42835 0.70454 0.0
H551 H 0.69718 0.43747 0.81107 0.0
C552 C 0.73437 0.43765 0.83296 0.0
C553 C 0.76121 0.43944 0.82655 0.0
C554 C 0.71454 0.43219 0.70907 0.0
C555 C 0.72876 0.44324 0.77163 0.0
C556 C 0.69455 0.42655 0.68251 0.0
C557 C 0.67057 0.43036 0.68796 0.0
C558 C 0.71018 0.44106 0.74166 0.0
C559 C 0.66783 0.44079 0.7203 0.0
C560 C 0.71827 0.43988 0.80569 0.0
C561 C 0.77182 0.44472 0.79244 0.0
N562 N 0.68712 0.44531 0.74615 0.0
N563 N 0.75533 0.4459 0.76616 0.0
H564 H 0.33857 0.81373 0.95168 0.0
H565 H 0.1961 0.6724 0.8811 0.0
H566 H 0.27215 0.74991 0.01851 0.0
H567 H 0.2744 0.72194 0.82128 0.0
H568 H 0.21847 0.70696 0.92895 0.0
H569 H 0.30967 0.78693 0.90127 0.0
C570 C 0.3176 0.79448 0.95583 0.0
C571 C 0.30792 0.78396 0.98947 0.0
C572 C 0.23058 0.71044 0.90516 0.0
C573 C 0.27484 0.75298 0.93172 0.0
C574 C 0.21778 0.69081 0.87777 0.0
C575 C 0.23348 0.69413 0.8472 0.0
C576 C 0.25916 0.73377 0.90183 0.0
C577 C 0.26156 0.71836 0.84445 0.0
C578 C 0.30122 0.77905 0.92698 0.0
C579 C 0.28059 0.75876 0.9931 0.0
N580 N 0.27352 0.73713 0.87142 0.0
N581 N 0.26514 0.744 0.96463 0.0
H582 H 0.55747 0.28444 0.18877 0.0
H583 H 0.55862 0.27244 0.98614 0.0
H584 H 0.5427 0.34081 0.12171 0.0
H585 H 0.53965 0.19982 0.05283 0.0
H586 H 0.55066 0.29686 0.03497 0.0
H587 H 0.54879 0.252 0.13978 0.0
C588 C 0.55193 0.28975 0.16383 0.0
C589 C 0.55104 0.31549 0.15924 0.0
C590 C 0.54772 0.27537 0.03881 0.0
C591 C 0.54164 0.27873 0.10287 0.0
C592 C 0.5523 0.26143 0.01095 0.0
C593 C 0.55002 0.23416 0.01551 0.0
C594 C 0.54145 0.26226 0.07171 0.0
C595 C 0.54167 0.22085 0.04818 0.0
C596 C 0.54692 0.27118 0.13588 0.0
C597 C 0.54364 0.32121 0.1264 0.0
N598 N 0.53823 0.23526 0.07522 0.0
N599 N 0.53977 0.30327 0.0993 0.0
loop_
_geom_bond_atom_site_label_1
_geom_bond_atom_site_label_2
_geom_bond_distance
_geom_bond_site_symmetry_2
_ccdc_geom_bond_type
O0 Cd1 2.223 . S
O0 C8 1.315 . S
Cd1 O0 2.223 . S
Cd1 O4 2.297 . S
Cd1 O5 2.439 . S
Cd1 O11 2.240 . S
Cd2 O3 2.240 . S
Cd2 O10 2.223 . S
Cd2 O12 2.297 . S
Cd2 O13 2.439 . S
O3 Cd2 2.240 . S
O3 C8 1.279 . S
O4 Cd1 2.297 . S
O4 C6 1.247 . S
O5 Cd1 2.439 . S
O5 C6 1.208 . S
C6 O4 1.247 . S
C6 O5 1.208 . S
C7 O12 1.247 . S
C7 O13 1.208 . S
C8 O0 1.315 . S
C8 O3 1.279 . S
C9 O10 1.315 . S
C9 O11 1.279 . S
O10 Cd2 2.223 . S
O10 C9 1.315 . S
O11 Cd1 2.240 . S
O11 C9 1.279 . S
O12 Cd2 2.297 . S
O12 C7 1.247 . S
O13 Cd2 2.439 . S
O13 C7 1.208 . S
O14 Cd15 2.223 . S
O14 C22 1.315 . S
Cd15 O14 2.223 . S
Cd15 O18 2.297 . S
Cd15 O19 2.439 . S
Cd15 O25 2.240 . S
Cd16 O17 2.240 . S
Cd16 O24 2.223 . S
Cd16 O26 2.297 . S
Cd16 O27 2.439 . S
O17 Cd16 2.240 . S
O17 C22 1.279 . S
O18 Cd15 2.297 . S
O18 C20 1.247 . S
O19 Cd15 2.439 . S
O19 C20 1.208 . S
C20 O18 1.247 . S
C20 O19 1.208 . S
C21 O26 1.247 . S
C21 O27 1.208 . S
C22 O14 1.315 . S
C22 O17 1.279 . S
C23 O24 1.315 . S
C23 O25 1.279 . S
O24 Cd16 2.223 . S
O24 C23 1.315 . S
O25 Cd15 2.240 . S
O25 C23 1.279 . S
O26 Cd16 2.297 . S
O26 C21 1.247 . S
O27 Cd16 2.439 . S
O27 C21 1.208 . S
O28 Cd29 2.223 . S
O28 C36 1.315 . S
Cd29 O28 2.223 . S
Cd29 O32 2.297 . S
Cd29 O33 2.439 . S
Cd29 O39 2.240 . S
Cd30 O31 2.240 . S
Cd30 O38 2.223 . S
Cd30 O40 2.297 . S
Cd30 O41 2.439 . S
O31 Cd30 2.240 . S
O31 C36 1.279 . S
O32 Cd29 2.297 . S
O32 C34 1.247 . S
O33 Cd29 2.439 . S
O33 C34 1.208 . S
C34 O32 1.247 . S
C34 O33 1.208 . S
C35 O40 1.247 . S
C35 O41 1.208 . S
C36 O28 1.315 . S
C36 O31 1.279 . S
C37 O38 1.315 . S
C37 O39 1.279 . S
O38 Cd30 2.223 . S
O38 C37 1.315 . S
O39 Cd29 2.240 . S
O39 C37 1.279 . S
O40 Cd30 2.297 . S
O40 C35 1.247 . S
O41 Cd30 2.439 . S
O41 C35 1.208 . S
O42 Cd43 2.223 . S
O42 C50 1.315 . S
Cd43 O42 2.223 . S
Cd43 O46 2.297 . S
Cd43 O47 2.439 . S
Cd43 O53 2.240 . S
Cd44 O45 2.240 . S
Cd44 O52 2.223 . S
Cd44 O54 2.297 . S
Cd44 O55 2.439 . S
O45 Cd44 2.240 . S
O45 C50 1.279 . S
O46 Cd43 2.297 . S
O46 C48 1.247 . S
O47 Cd43 2.439 . S
O47 C48 1.208 . S
C48 O46 1.247 . S
C48 O47 1.208 . S
C49 O54 1.247 . S
C49 O55 1.208 . S
C50 O42 1.315 . S
C50 O45 1.279 . S
C51 O52 1.315 . S
C51 O53 1.279 . S
O52 Cd44 2.223 . S
O52 C51 1.315 . S
O53 Cd43 2.240 . S
O53 C51 1.279 . S
O54 Cd44 2.297 . S
O54 C49 1.247 . S
O55 Cd44 2.439 . S
O55 C49 1.208 . S
O56 Cd57 2.223 . S
O56 C64 1.315 . S
Cd57 O56 2.223 . S
Cd57 O60 2.297 . S
Cd57 O61 2.439 . S
Cd57 O67 2.240 . S
Cd58 O59 2.240 . S
Cd58 O66 2.223 . S
Cd58 O68 2.297 . S
Cd58 O69 2.439 . S
O59 Cd58 2.240 . S
O59 C64 1.279 . S
O60 Cd57 2.297 . S
O60 C62 1.247 . S
O61 Cd57 2.439 . S
O61 C62 1.208 . S
C62 O60 1.247 . S
C62 O61 1.208 . S
C63 O68 1.247 . S
C63 O69 1.208 . S
C64 O56 1.315 . S
C64 O59 1.279 . S
C65 O66 1.315 . S
C65 O67 1.279 . S
O66 Cd58 2.223 . S
O66 C65 1.315 . S
O67 Cd57 2.240 . S
O67 C65 1.279 . S
O68 Cd58 2.297 . S
O68 C63 1.247 . S
O69 Cd58 2.439 . S
O69 C63 1.208 . S
O70 Cd71 2.223 . S
O70 C78 1.315 . S
Cd71 O70 2.223 . S
Cd71 O74 2.297 . S
Cd71 O75 2.439 . S
Cd71 O81 2.240 . S
Cd72 O73 2.240 . S
Cd72 O80 2.223 . S
Cd72 O82 2.297 . S
Cd72 O83 2.439 . S
O73 Cd72 2.240 . S
O73 C78 1.279 . S
O74 Cd71 2.297 . S
O74 C76 1.247 . S
O75 Cd71 2.439 . S
O75 C76 1.208 . S
C76 O74 1.247 . S
C76 O75 1.208 . S
C77 O82 1.247 . S
C77 O83 1.208 . S
C78 O70 1.315 . S
C78 O73 1.279 . S
C79 O80 1.315 . S
C79 O81 1.279 . S
O80 Cd72 2.223 . S
O80 C79 1.315 . S
O81 Cd71 2.240 . S
O81 C79 1.279 . S
O82 Cd72 2.297 . S
O82 C77 1.247 . S
O83 Cd72 2.439 . S
O83 C77 1.208 . S
O84 Cd85 2.223 . S
O84 C92 1.315 . S
Cd85 O84 2.223 . S
Cd85 O88 2.297 . S
Cd85 O89 2.439 . S
Cd85 O95 2.240 . S
Cd86 O87 2.240 . S
Cd86 O94 2.223 . S
Cd86 O96 2.297 . S
Cd86 O97 2.439 . S
O87 Cd86 2.240 . S
O87 C92 1.279 . S
O88 Cd85 2.297 . S
O88 C90 1.247 . S
O89 Cd85 2.439 . S
O89 C90 1.208 . S
C90 O88 1.247 . S
C90 O89 1.208 . S
C91 O96 1.247 . S
C91 O97 1.208 . S
C92 O84 1.315 . S
C92 O87 1.279 . S
C93 O94 1.315 . S
C93 O95 1.279 . S
O94 Cd86 2.223 . S
O94 C93 1.315 . S
O95 Cd85 2.240 . S
O95 C93 1.279 . S
O96 Cd86 2.297 . S
O96 C91 1.247 . S
O97 Cd86 2.439 . S
O97 C91 1.208 . S
O98 Cd99 2.223 . S
O98 C106 1.315 . S
Cd99 O98 2.223 . S
Cd99 O102 2.297 . S
Cd99 O103 2.439 . S
Cd99 O109 2.240 . S
Cd100 O101 2.240 . S
Cd100 O108 2.223 . S
Cd100 O110 2.297 . S
Cd100 O111 2.439 . S
O101 Cd100 2.240 . S
O101 C106 1.279 . S
O102 Cd99 2.297 . S
O102 C104 1.247 . S
O103 Cd99 2.439 . S
O103 C104 1.208 . S
C104 O102 1.247 . S
C104 O103 1.208 . S
C105 O110 1.247 . S
C105 O111 1.208 . S
C106 O98 1.315 . S
C106 O101 1.279 . S
C107 O108 1.315 . S
C107 O109 1.279 . S
O108 Cd100 2.223 . S
O108 C107 1.315 . S
O109 Cd99 2.240 . S
O109 C107 1.279 . S
O110 Cd100 2.297 . S
O110 C105 1.247 . S
O111 Cd100 2.439 . S
O111 C105 1.208 . S
O112 Cd113 2.223 . S
O112 C120 1.315 . S
Cd113 O112 2.223 . S
Cd113 O116 2.297 . S
Cd113 O117 2.439 . S
Cd113 O123 2.240 . S
Cd114 O115 2.240 . S
Cd114 O122 2.223 . S
Cd114 O124 2.297 . S
Cd114 O125 2.439 . S
O115 Cd114 2.240 . S
O115 C120 1.279 . S
O116 Cd113 2.297 . S
O116 C118 1.247 . S
O117 Cd113 2.439 . S
O117 C118 1.208 . S
C118 O116 1.247 . S
C118 O117 1.208 . S
C119 O124 1.247 . S
C119 O125 1.208 . S
C120 O112 1.315 . S
C120 O115 1.279 . S
C121 O122 1.315 . S
C121 O123 1.279 . S
O122 Cd114 2.223 . S
O122 C121 1.315 . S
O123 Cd113 2.240 . S
O123 C121 1.279 . S
O124 Cd114 2.297 . S
O124 C119 1.247 . S
O125 Cd114 2.439 . S
O125 C119 1.208 . S
O126 Cd127 2.223 . S
O126 C134 1.315 . S
Cd127 O126 2.223 . S
Cd127 O130 2.297 . S
Cd127 O131 2.439 . S
Cd127 O137 2.240 . S
Cd128 O129 2.240 . S
Cd128 O136 2.223 . S
Cd128 O138 2.297 . S
Cd128 O139 2.439 . S
O129 Cd128 2.240 . S
O129 C134 1.279 . S
O130 Cd127 2.297 . S
O130 C132 1.247 . S
O131 Cd127 2.439 . S
O131 C132 1.208 . S
C132 O130 1.247 . S
C132 O131 1.208 . S
C133 O138 1.247 . S
C133 O139 1.208 . S
C134 O126 1.315 . S
C134 O129 1.279 . S
C135 O136 1.315 . S
C135 O137 1.279 . S
O136 Cd128 2.223 . S
O136 C135 1.315 . S
O137 Cd127 2.240 . S
O137 C135 1.279 . S
O138 Cd128 2.297 . S
O138 C133 1.247 . S
O139 Cd128 2.439 . S
O139 C133 1.208 . S
O140 Cd141 2.223 . S
O140 C148 1.315 . S
Cd141 O140 2.223 . S
Cd141 O144 2.297 . S
Cd141 O145 2.439 . S
Cd141 O151 2.240 . S
Cd142 O143 2.240 . S
Cd142 O150 2.223 . S
Cd142 O152 2.297 . S
Cd142 O153 2.439 . S
O143 Cd142 2.240 . S
O143 C148 1.279 . S
O144 Cd141 2.297 . S
O144 C146 1.247 . S
O145 Cd141 2.439 . S
O145 C146 1.208 . S
C146 O144 1.247 . S
C146 O145 1.208 . S
C147 O152 1.247 . S
C147 O153 1.208 . S
C148 O140 1.315 . S
C148 O143 1.279 . S
C149 O150 1.315 . S
C149 O151 1.279 . S
O150 Cd142 2.223 . S
O150 C149 1.315 . S
O151 Cd141 2.240 . S
O151 C149 1.279 . S
O152 Cd142 2.297 . S
O152 C147 1.247 . S
O153 Cd142 2.439 . S
O153 C147 1.208 . S
O154 Cd155 2.223 . S
O154 C162 1.315 . S
Cd155 O154 2.223 . S
Cd155 O158 2.297 . S
Cd155 O159 2.439 . S
Cd155 O165 2.240 . S
Cd156 O157 2.240 . S
Cd156 O164 2.223 . S
Cd156 O166 2.297 . S
Cd156 O167 2.439 . S
O157 Cd156 2.240 . S
O157 C162 1.279 . S
O158 Cd155 2.297 . S
O158 C160 1.247 . S
O159 Cd155 2.439 . S
O159 C160 1.208 . S
C160 O158 1.247 . S
C160 O159 1.208 . S
C161 O166 1.247 . S
C161 O167 1.208 . S
C162 O154 1.315 . S
C162 O157 1.279 . S
C163 O164 1.315 . S
C163 O165 1.279 . S
O164 Cd156 2.223 . S
O164 C163 1.315 . S
O165 Cd155 2.240 . S
O165 C163 1.279 . S
O166 Cd156 2.297 . S
O166 C161 1.247 . S
O167 Cd156 2.439 . S
O167 C161 1.208 . S
H168 C174 0.930 . S
H169 C178 0.930 . S
H170 C183 0.929 . S
H171 C181 0.929 . S
H172 C176 0.929 . S
H173 C182 0.929 . S
C174 H168 0.930 . S
C174 C175 1.367 . S
C174 C182 1.378 . S
C175 C174 1.367 . S
C175 C183 1.433 . S
C176 H172 0.929 . S
C176 C178 1.378 . S
C176 C180 1.350 . S
C177 C180 1.463 . S
C177 C182 1.350 . S
C177 N185 1.427 . S
C178 H169 0.930 . S
C178 C176 1.378 . S
C178 C179 1.367 . S
C179 C178 1.367 . S
C179 C181 1.433 . S
C180 C176 1.350 . S
C180 C177 1.463 . S
C180 N184 1.427 . S
C181 H171 0.929 . S
C181 C179 1.433 . S
C181 N184 1.384 . S
C182 H173 0.929 . S
C182 C174 1.378 . S
C182 C177 1.350 . S
C183 H170 0.929 . S
C183 C175 1.433 . S
C183 N185 1.384 . S
N184 C180 1.427 . S
N184 C181 1.384 . S
N185 C177 1.427 . S
N185 C183 1.384 . S
H186 C192 0.930 . S
H187 C196 0.930 . S
H188 C201 0.929 . S
H189 C199 0.929 . S
H190 C194 0.929 . S
H191 C200 0.929 . S
C192 H186 0.930 . S
C192 C193 1.367 . S
C192 C200 1.378 . S
C193 C192 1.367 . S
C193 C201 1.433 . S
C194 H190 0.929 . S
C194 C196 1.378 . S
C194 C198 1.350 . S
C195 C198 1.463 . S
C195 C200 1.350 . S
C195 N203 1.427 . S
C196 H187 0.930 . S
C196 C194 1.378 . S
C196 C197 1.367 . S
C197 C196 1.367 . S
C197 C199 1.433 . S
C198 C194 1.350 . S
C198 C195 1.463 . S
C198 N202 1.427 . S
C199 H189 0.929 . S
C199 C197 1.433 . S
C199 N202 1.384 . S
C200 H191 0.929 . S
C200 C192 1.378 . S
C200 C195 1.350 . S
C201 H188 0.929 . S
C201 C193 1.433 . S
C201 N203 1.384 . S
N202 C198 1.427 . S
N202 C199 1.384 . S
N203 C195 1.427 . S
N203 C201 1.384 . S
H204 C210 0.930 . S
H205 C214 0.930 . S
H206 C219 0.929 . S
H207 C217 0.929 . S
H208 C212 0.929 . S
H209 C218 0.929 . S
C210 H204 0.930 . S
C210 C211 1.367 . S
C210 C218 1.378 . S
C211 C210 1.367 . S
C211 C219 1.433 . S
C212 H208 0.929 . S
C212 C214 1.378 . S
C212 C216 1.350 . S
C213 C216 1.463 . S
C213 C218 1.350 . S
C213 N221 1.427 . S
C214 H205 0.930 . S
C214 C212 1.378 . S
C214 C215 1.367 . S
C215 C214 1.367 . S
C215 C217 1.433 . S
C216 C212 1.350 . S
C216 C213 1.463 . S
C216 N220 1.427 . S
C217 H207 0.929 . S
C217 C215 1.433 . S
C217 N220 1.384 . S
C218 H209 0.929 . S
C218 C210 1.378 . S
C218 C213 1.350 . S
C219 H206 0.929 . S
C219 C211 1.433 . S
C219 N221 1.384 . S
N220 C216 1.427 . S
N220 C217 1.384 . S
N221 C213 1.427 . S
N221 C219 1.384 . S
H222 C228 0.930 . S
H223 C232 0.930 . S
H224 C237 0.929 . S
H225 C235 0.929 . S
H226 C230 0.929 . S
H227 C236 0.929 . S
C228 H222 0.930 . S
C228 C229 1.367 . S
C228 C236 1.378 . S
C229 C228 1.367 . S
C229 C237 1.433 . S
C230 H226 0.929 . S
C230 C232 1.378 . S
C230 C234 1.350 . S
C231 C234 1.463 . S
C231 C236 1.350 . S
C231 N239 1.427 . S
C232 H223 0.930 . S
C232 C230 1.378 . S
C232 C233 1.367 . S
C233 C232 1.367 . S
C233 C235 1.433 . S
C234 C230 1.350 . S
C234 C231 1.463 . S
C234 N238 1.427 . S
C235 H225 0.929 . S
C235 C233 1.433 . S
C235 N238 1.384 . S
C236 H227 0.929 . S
C236 C228 1.378 . S
C236 C231 1.350 . S
C237 H224 0.929 . S
C237 C229 1.433 . S
C237 N239 1.384 . S
N238 C234 1.427 . S
N238 C235 1.384 . S
N239 C231 1.427 . S
N239 C237 1.384 . S
H240 C246 0.930 . S
H241 C250 0.930 . S
H242 C255 0.929 . S
H243 C253 0.929 . S
H244 C248 0.929 . S
H245 C254 0.929 . S
C246 H240 0.930 . S
C246 C247 1.367 . S
C246 C254 1.378 . S
C247 C246 1.367 . S
C247 C255 1.433 . S
C248 H244 0.929 . S
C248 C250 1.378 . S
C248 C252 1.350 . S
C249 C252 1.463 . S
C249 C254 1.350 . S
C249 N257 1.427 . S
C250 H241 0.930 . S
C250 C248 1.378 . S
C250 C251 1.367 . S
C251 C250 1.367 . S
C251 C253 1.433 . S
C252 C248 1.350 . S
C252 C249 1.463 . S
C252 N256 1.427 . S
C253 H243 0.929 . S
C253 C251 1.433 . S
C253 N256 1.384 . S
C254 H245 0.929 . S
C254 C246 1.378 . S
C254 C249 1.350 . S
C255 H242 0.929 . S
C255 C247 1.433 . S
C255 N257 1.384 . S
N256 C252 1.427 . S
N256 C253 1.384 . S
N257 C249 1.427 . S
N257 C255 1.384 . S
H258 C264 0.930 . S
H259 C268 0.930 . S
H260 C273 0.929 . S
H261 C271 0.929 . S
H262 C266 0.929 . S
H263 C272 0.929 . S
C264 H258 0.930 . S
C264 C265 1.367 . S
C264 C272 1.378 . S
C265 C264 1.367 . S
C265 C273 1.433 . S
C266 H262 0.929 . S
C266 C268 1.378 . S
C266 C270 1.350 . S
C267 C270 1.463 . S
C267 C272 1.350 . S
C267 N275 1.427 . S
C268 H259 0.930 . S
C268 C266 1.378 . S
C268 C269 1.367 . S
C269 C268 1.367 . S
C269 C271 1.433 . S
C270 C266 1.350 . S
C270 C267 1.463 . S
C270 N274 1.427 . S
C271 H261 0.929 . S
C271 C269 1.433 . S
C271 N274 1.384 . S
C272 H263 0.929 . S
C272 C264 1.378 . S
C272 C267 1.350 . S
C273 H260 0.929 . S
C273 C265 1.433 . S
C273 N275 1.384 . S
N274 C270 1.427 . S
N274 C271 1.384 . S
N275 C267 1.427 . S
N275 C273 1.384 . S
H276 C282 0.930 . S
H277 C286 0.930 . S
H278 C291 0.929 . S
H279 C289 0.929 . S
H280 C284 0.929 . S
H281 C290 0.929 . S
C282 H276 0.930 . S
C282 C283 1.367 . S
C282 C290 1.378 . S
C283 C282 1.367 . S
C283 C291 1.433 . S
C284 H280 0.929 . S
C284 C286 1.378 . S
C284 C288 1.350 . S
C285 C288 1.463 . S
C285 C290 1.350 . S
C285 N293 1.427 . S
C286 H277 0.930 . S
C286 C284 1.378 . S
C286 C287 1.367 . S
C287 C286 1.367 . S
C287 C289 1.433 . S
C288 C284 1.350 . S
C288 C285 1.463 . S
C288 N292 1.427 . S
C289 H279 0.929 . S
C289 C287 1.433 . S
C289 N292 1.384 . S
C290 H281 0.929 . S
C290 C282 1.378 . S
C290 C285 1.350 . S
C291 H278 0.929 . S
C291 C283 1.433 . S
C291 N293 1.384 . S
N292 C288 1.427 . S
N292 C289 1.384 . S
N293 C285 1.427 . S
N293 C291 1.384 . S
H294 C300 0.930 . S
H295 C304 0.930 . S
H296 C309 0.929 . S
H297 C307 0.929 . S
H298 C302 0.929 . S
H299 C308 0.929 . S
C300 H294 0.930 . S
C300 C301 1.367 . S
C300 C308 1.378 . S
C301 C300 1.367 . S
C301 C309 1.433 . S
C302 H298 0.929 . S
C302 C304 1.378 . S
C302 C306 1.350 . S
C303 C306 1.463 . S
C303 C308 1.350 . S
C303 N311 1.427 . S
C304 H295 0.930 . S
C304 C302 1.378 . S
C304 C305 1.367 . S
C305 C304 1.367 . S
C305 C307 1.433 . S
C306 C302 1.350 . S
C306 C303 1.463 . S
C306 N310 1.427 . S
C307 H297 0.929 . S
C307 C305 1.433 . S
C307 N310 1.384 . S
C308 H299 0.929 . S
C308 C300 1.378 . S
C308 C303 1.350 . S
C309 H296 0.929 . S
C309 C301 1.433 . S
C309 N311 1.384 . S
N310 C306 1.427 . S
N310 C307 1.384 . S
N311 C303 1.427 . S
N311 C309 1.384 . S
H312 C318 0.930 1_554 S
H313 C322 0.930 . S
H314 C327 0.929 . S
H315 C325 0.929 . S
H316 C320 0.929 . S
H317 C326 0.929 . S
C318 H312 0.930 1_556 S
C318 C319 1.367 1_556 S
C318 C326 1.378 . S
C319 C318 1.367 1_554 S
C319 C327 1.433 1_554 S
C320 H316 0.929 . S
C320 C322 1.378 . S
C320 C324 1.350 . S
C321 C324 1.463 . S
C321 C326 1.350 . S
C321 N329 1.427 . S
C322 H313 0.930 . S
C322 C320 1.378 . S
C322 C323 1.367 . S
C323 C322 1.367 . S
C323 C325 1.433 . S
C324 C320 1.350 . S
C324 C321 1.463 . S
C324 N328 1.427 . S
C325 H315 0.929 . S
C325 C323 1.433 . S
C325 N328 1.384 . S
C326 H317 0.929 . S
C326 C318 1.378 . S
C326 C321 1.350 . S
C327 H314 0.929 . S
C327 C319 1.433 1_556 S
C327 N329 1.384 . S
N328 C324 1.427 . S
N328 C325 1.384 . S
N329 C321 1.427 . S
N329 C327 1.384 . S
H330 C336 0.930 . S
H331 C340 0.930 1_556 S
H332 C345 0.929 . S
H333 C343 0.929 . S
H334 C338 0.929 . S
H335 C344 0.929 . S
C336 H330 0.930 . S
C336 C337 1.367 . S
C336 C344 1.378 . S
C337 C336 1.367 . S
C337 C345 1.433 . S
C338 H334 0.929 . S
C338 C340 1.378 . S
C338 C342 1.350 . S
C339 C342 1.463 . S
C339 C344 1.350 . S
C339 N347 1.427 . S
C340 H331 0.930 1_554 S
C340 C338 1.378 . S
C340 C341 1.367 1_554 S
C341 C340 1.367 1_556 S
C341 C343 1.433 1_556 S
C342 C338 1.350 . S
C342 C339 1.463 . S
C342 N346 1.427 . S
C343 H333 0.929 . S
C343 C341 1.433 1_554 S
C343 N346 1.384 . S
C344 H335 0.929 . S
C344 C336 1.378 . S
C344 C339 1.350 . S
C345 H332 0.929 . S
C345 C337 1.433 . S
C345 N347 1.384 . S
N346 C342 1.427 . S
N346 C343 1.384 . S
N347 C339 1.427 . S
N347 C345 1.384 . S
H348 C354 0.930 . S
H349 C358 0.930 . S
H350 C363 0.929 . S
H351 C361 0.929 . S
H352 C356 0.929 . S
H353 C362 0.929 . S
C354 H348 0.930 . S
C354 C355 1.367 . S
C354 C362 1.378 . S
C355 C354 1.367 . S
C355 C363 1.433 . S
C356 H352 0.929 . S
C356 C358 1.378 . S
C356 C360 1.350 . S
C357 C360 1.463 . S
C357 C362 1.350 . S
C357 N365 1.427 . S
C358 H349 0.930 . S
C358 C356 1.378 . S
C358 C359 1.367 . S
C359 C358 1.367 . S
C359 C361 1.433 . S
C360 C356 1.350 . S
C360 C357 1.463 . S
C360 N364 1.427 . S
C361 H351 0.929 . S
C361 C359 1.433 . S
C361 N364 1.384 . S
C362 H353 0.929 . S
C362 C354 1.378 . S
C362 C357 1.350 . S
C363 H350 0.929 . S
C363 C355 1.433 . S
C363 N365 1.384 . S
N364 C360 1.427 . S
N364 C361 1.384 . S
N365 C357 1.427 . S
N365 C363 1.384 . S
H366 C372 0.930 . S
H367 C376 0.930 . S
H368 C381 0.929 . S
H369 C379 0.929 . S
H370 C374 0.929 . S
H371 C380 0.929 . S
C372 H366 0.930 . S
C372 C373 1.367 . S
C372 C380 1.378 . S
C373 C372 1.367 . S
C373 C381 1.433 . S
C374 H370 0.929 . S
C374 C376 1.378 . S
C374 C378 1.350 . S
C375 C378 1.463 . S
C375 C380 1.350 . S
C375 N383 1.427 . S
C376 H367 0.930 . S
C376 C374 1.378 . S
C376 C377 1.367 . S
C377 C376 1.367 . S
C377 C379 1.433 . S
C378 C374 1.350 . S
C378 C375 1.463 . S
C378 N382 1.427 . S
C379 H369 0.929 . S
C379 C377 1.433 . S
C379 N382 1.384 . S
C380 H371 0.929 . S
C380 C372 1.378 . S
C380 C375 1.350 . S
C381 H368 0.929 . S
C381 C373 1.433 . S
C381 N383 1.384 . S
N382 C378 1.427 . S
N382 C379 1.384 . S
N383 C375 1.427 . S
N383 C381 1.384 . S
H384 C390 0.930 . S
H385 C394 0.930 . S
H386 C399 0.929 . S
H387 C397 0.929 . S
H388 C392 0.929 . S
H389 C398 0.929 . S
C390 H384 0.930 . S
C390 C391 1.367 . S
C390 C398 1.378 . S
C391 C390 1.367 . S
C391 C399 1.433 . S
C392 H388 0.929 . S
C392 C394 1.378 . S
C392 C396 1.350 . S
C393 C396 1.463 1_655 S
C393 C398 1.350 . S
C393 N401 1.427 . S
C394 H385 0.930 . S
C394 C392 1.378 . S
C394 C395 1.367 . S
C395 C394 1.367 . S
C395 C397 1.433 . S
C396 C392 1.350 . S
C396 C393 1.463 1_455 S
C396 N400 1.427 . S
C397 H387 0.929 . S
C397 C395 1.433 . S
C397 N400 1.384 . S
C398 H389 0.929 . S
C398 C390 1.378 . S
C398 C393 1.350 . S
C399 H386 0.929 . S
C399 C391 1.433 . S
C399 N401 1.384 . S
N400 C396 1.427 . S
N400 C397 1.384 . S
N401 C393 1.427 . S
N401 C399 1.384 . S
H402 C408 0.930 . S
H403 C412 0.930 . S
H404 C417 0.929 . S
H405 C415 0.929 . S
H406 C410 0.929 . S
H407 C416 0.929 . S
C408 H402 0.930 . S
C408 C409 1.367 . S
C408 C416 1.378 . S
C409 C408 1.367 . S
C409 C417 1.433 . S
C410 H406 0.929 . S
C410 C412 1.378 . S
C410 C414 1.350 . S
C411 C414 1.463 1_565 S
C411 C416 1.350 . S
C411 N419 1.427 . S
C412 H403 0.930 . S
C412 C410 1.378 . S
C412 C413 1.367 . S
C413 C412 1.367 . S
C413 C415 1.433 . S
C414 C410 1.350 . S
C414 C411 1.463 1_545 S
C414 N418 1.427 . S
C415 H405 0.929 . S
C415 C413 1.433 . S
C415 N418 1.384 . S
C416 H407 0.929 . S
C416 C408 1.378 . S
C416 C411 1.350 . S
C417 H404 0.929 . S
C417 C409 1.433 . S
C417 N419 1.384 . S
N418 C414 1.427 . S
N418 C415 1.384 . S
N419 C411 1.427 . S
N419 C417 1.384 . S
H420 C426 0.930 . S
H421 C430 0.930 . S
H422 C435 0.929 . S
H423 C433 0.929 . S
H424 C428 0.929 . S
H425 C434 0.929 . S
C426 H420 0.930 . S
C426 C427 1.367 . S
C426 C434 1.378 . S
C427 C426 1.367 . S
C427 C435 1.433 . S
C428 H424 0.929 . S
C428 C430 1.378 . S
C428 C432 1.350 . S
C429 C432 1.463 . S
C429 C434 1.350 . S
C429 N437 1.427 . S
C430 H421 0.930 . S
C430 C428 1.378 . S
C430 C431 1.367 . S
C431 C430 1.367 . S
C431 C433 1.433 . S
C432 C428 1.350 . S
C432 C429 1.463 . S
C432 N436 1.427 . S
C433 H423 0.929 . S
C433 C431 1.433 . S
C433 N436 1.384 . S
C434 H425 0.929 . S
C434 C426 1.378 . S
C434 C429 1.350 . S
C435 H422 0.929 . S
C435 C427 1.433 . S
C435 N437 1.384 . S
N436 C432 1.427 . S
N436 C433 1.384 . S
N437 C429 1.427 . S
N437 C435 1.384 . S
H438 C444 0.930 . S
H439 C448 0.930 . S
H440 C453 0.929 . S
H441 C451 0.929 . S
H442 C446 0.929 . S
H443 C452 0.929 . S
C444 H438 0.930 . S
C444 C445 1.367 . S
C444 C452 1.378 . S
C445 C444 1.367 . S
C445 C453 1.433 . S
C446 H442 0.929 . S
C446 C448 1.378 . S
C446 C450 1.350 . S
C447 C450 1.463 1_455 S
C447 C452 1.350 . S
C447 N455 1.427 . S
C448 H439 0.930 . S
C448 C446 1.378 . S
C448 C449 1.367 . S
C449 C448 1.367 . S
C449 C451 1.433 . S
C450 C446 1.350 . S
C450 C447 1.463 1_655 S
C450 N454 1.427 . S
C451 H441 0.929 . S
C451 C449 1.433 . S
C451 N454 1.384 . S
C452 H443 0.929 . S
C452 C444 1.378 . S
C452 C447 1.350 . S
C453 H440 0.929 . S
C453 C445 1.433 . S
C453 N455 1.384 . S
N454 C450 1.427 . S
N454 C451 1.384 . S
N455 C447 1.427 . S
N455 C453 1.384 . S
H456 C462 0.930 . S
H457 C466 0.930 . S
H458 C471 0.929 . S
H459 C469 0.929 . S
H460 C464 0.929 1_556 S
H461 C470 0.929 1_554 S
C462 H456 0.930 . S
C462 C463 1.367 . S
C462 C470 1.378 . S
C463 C462 1.367 . S
C463 C471 1.433 . S
C464 H460 0.929 1_554 S
C464 C466 1.378 . S
C464 C468 1.350 . S
C465 C468 1.463 1_546 S
C465 C470 1.350 . S
C465 N473 1.427 . S
C466 H457 0.930 . S
C466 C464 1.378 . S
C466 C467 1.367 . S
C467 C466 1.367 . S
C467 C469 1.433 . S
C468 C464 1.350 . S
C468 C465 1.463 1_564 S
C468 N472 1.427 . S
C469 H459 0.929 . S
C469 C467 1.433 . S
C469 N472 1.384 . S
C470 H461 0.929 1_556 S
C470 C462 1.378 . S
C470 C465 1.350 . S
C471 H458 0.929 . S
C471 C463 1.433 . S
C471 N473 1.384 . S
N472 C468 1.427 . S
N472 C469 1.384 . S
N473 C465 1.427 . S
N473 C471 1.384 . S
H474 C480 0.930 . S
H475 C484 0.930 . S
H476 C489 0.929 . S
H477 C487 0.929 . S
H478 C482 0.929 . S
H479 C488 0.929 . S
C480 H474 0.930 . S
C480 C481 1.367 . S
C480 C488 1.378 . S
C481 C480 1.367 . S
C481 C489 1.433 . S
C482 H478 0.929 . S
C482 C484 1.378 . S
C482 C486 1.350 . S
C483 C486 1.463 . S
C483 C488 1.350 . S
C483 N491 1.427 . S
C484 H475 0.930 . S
C484 C482 1.378 . S
C484 C485 1.367 . S
C485 C484 1.367 . S
C485 C487 1.433 . S
C486 C482 1.350 . S
C486 C483 1.463 . S
C486 N490 1.427 . S
C487 H477 0.929 . S
C487 C485 1.433 . S
C487 N490 1.384 . S
C488 H479 0.929 . S
C488 C480 1.378 . S
C488 C483 1.350 . S
C489 H476 0.929 . S
C489 C481 1.433 . S
C489 N491 1.384 . S
N490 C486 1.427 . S
N490 C487 1.384 . S
N491 C483 1.427 . S
N491 C489 1.384 . S
H492 C498 0.930 . S
H493 C502 0.930 . S
H494 C507 0.929 . S
H495 C505 0.929 . S
H496 C500 0.929 . S
H497 C506 0.929 . S
C498 H492 0.930 . S
C498 C499 1.367 . S
C498 C506 1.378 . S
C499 C498 1.367 . S
C499 C507 1.433 . S
C500 H496 0.929 . S
C500 C502 1.378 . S
C500 C504 1.350 . S
C501 C504 1.463 . S
C501 C506 1.350 . S
C501 N509 1.427 . S
C502 H493 0.930 . S
C502 C500 1.378 . S
C502 C503 1.367 . S
C503 C502 1.367 . S
C503 C505 1.433 . S
C504 C500 1.350 . S
C504 C501 1.463 . S
C504 N508 1.427 . S
C505 H495 0.929 . S
C505 C503 1.433 . S
C505 N508 1.384 . S
C506 H497 0.929 . S
C506 C498 1.378 . S
C506 C501 1.350 . S
C507 H494 0.929 . S
C507 C499 1.433 . S
C507 N509 1.384 . S
N508 C504 1.427 . S
N508 C505 1.384 . S
N509 C501 1.427 . S
N509 C507 1.384 . S
H510 C516 0.930 . S
H511 C520 0.930 . S
H512 C525 0.929 . S
H513 C523 0.929 . S
H514 C518 0.929 . S
H515 C524 0.929 . S
C516 H510 0.930 . S
C516 C517 1.367 . S
C516 C524 1.378 . S
C517 C516 1.367 . S
C517 C525 1.433 . S
C518 H514 0.929 . S
C518 C520 1.378 . S
C518 C522 1.350 . S
C519 C522 1.463 . S
C519 C524 1.350 . S
C519 N527 1.427 . S
C520 H511 0.930 . S
C520 C518 1.378 . S
C520 C521 1.367 . S
C521 C520 1.367 . S
C521 C523 1.433 . S
C522 C518 1.350 . S
C522 C519 1.463 . S
C522 N526 1.427 . S
C523 H513 0.929 . S
C523 C521 1.433 . S
C523 N526 1.384 . S
C524 H515 0.929 . S
C524 C516 1.378 . S
C524 C519 1.350 . S
C525 H512 0.929 . S
C525 C517 1.433 . S
C525 N527 1.384 . S
N526 C522 1.427 . S
N526 C523 1.384 . S
N527 C519 1.427 . S
N527 C525 1.384 . S
H528 C534 0.930 . S
H529 C538 0.930 . S
H530 C543 0.929 . S
H531 C541 0.929 . S
H532 C536 0.929 . S
H533 C542 0.929 . S
C534 H528 0.930 . S
C534 C535 1.367 . S
C534 C542 1.378 . S
C535 C534 1.367 . S
C535 C543 1.433 . S
C536 H532 0.929 . S
C536 C538 1.378 . S
C536 C540 1.350 . S
C537 C540 1.463 . S
C537 C542 1.350 . S
C537 N545 1.427 . S
C538 H529 0.930 . S
C538 C536 1.378 . S
C538 C539 1.367 . S
C539 C538 1.367 . S
C539 C541 1.433 . S
C540 C536 1.350 . S
C540 C537 1.463 . S
C540 N544 1.427 . S
C541 H531 0.929 . S
C541 C539 1.433 . S
C541 N544 1.384 . S
C542 H533 0.929 . S
C542 C534 1.378 . S
C542 C537 1.350 . S
C543 H530 0.929 . S
C543 C535 1.433 . S
C543 N545 1.384 . S
N544 C540 1.427 . S
N544 C541 1.384 . S
N545 C537 1.427 . S
N545 C543 1.384 . S
H546 C552 0.930 . S
H547 C556 0.930 . S
H548 C561 0.929 . S
H549 C559 0.929 . S
H550 C554 0.929 . S
H551 C560 0.929 . S
C552 H546 0.930 . S
C552 C553 1.367 . S
C552 C560 1.378 . S
C553 C552 1.367 . S
C553 C561 1.433 . S
C554 H550 0.929 . S
C554 C556 1.378 . S
C554 C558 1.350 . S
C555 C558 1.463 . S
C555 C560 1.350 . S
C555 N563 1.427 . S
C556 H547 0.930 . S
C556 C554 1.378 . S
C556 C557 1.367 . S
C557 C556 1.367 . S
C557 C559 1.433 . S
C558 C554 1.350 . S
C558 C555 1.463 . S
C558 N562 1.427 . S
C559 H549 0.929 . S
C559 C557 1.433 . S
C559 N562 1.384 . S
C560 H551 0.929 . S
C560 C552 1.378 . S
C560 C555 1.350 . S
C561 H548 0.929 . S
C561 C553 1.433 . S
C561 N563 1.384 . S
N562 C558 1.427 . S
N562 C559 1.384 . S
N563 C555 1.427 . S
N563 C561 1.384 . S
H564 C570 0.930 . S
H565 C574 0.930 . S
H566 C579 0.929 1_554 S
H567 C577 0.929 . S
H568 C572 0.929 . S
H569 C578 0.929 . S
C570 H564 0.930 . S
C570 C571 1.367 . S
C570 C578 1.378 . S
C571 C570 1.367 . S
C571 C579 1.433 . S
C572 H568 0.929 . S
C572 C574 1.378 . S
C572 C576 1.350 . S
C573 C576 1.463 . S
C573 C578 1.350 . S
C573 N581 1.427 . S
C574 H565 0.930 . S
C574 C572 1.378 . S
C574 C575 1.367 . S
C575 C574 1.367 . S
C575 C577 1.433 . S
C576 C572 1.350 . S
C576 C573 1.463 . S
C576 N580 1.427 . S
C577 H567 0.929 . S
C577 C575 1.433 . S
C577 N580 1.384 . S
C578 H569 0.929 . S
C578 C570 1.378 . S
C578 C573 1.350 . S
C579 H566 0.929 1_556 S
C579 C571 1.433 . S
C579 N581 1.384 . S
N580 C576 1.427 . S
N580 C577 1.384 . S
N581 C573 1.427 . S
N581 C579 1.384 . S
H582 C588 0.930 . S
H583 C592 0.930 . S
H584 C597 0.929 . S
H585 C595 0.929 . S
H586 C590 0.929 . S
H587 C596 0.929 . S
C588 H582 0.930 . S
C588 C589 1.367 . S
C588 C596 1.378 . S
C589 C588 1.367 . S
C589 C597 1.433 . S
C590 H586 0.929 . S
C590 C592 1.378 . S
C590 C594 1.350 . S
C591 C594 1.463 . S
C591 C596 1.350 . S
C591 N599 1.427 . S
C592 H583 0.930 . S
C592 C590 1.378 . S
C592 C593 1.367 . S
C593 C592 1.367 . S
C593 C595 1.433 . S
C594 C590 1.350 . S
C594 C591 1.463 . S
C594 N598 1.427 . S
C595 H585 0.929 . S
C595 C593 1.433 . S
C595 N598 1.384 . S
C596 H587 0.929 . S
C596 C588 1.378 . S
C596 C591 1.350 . S
C597 H584 0.929 . S
C597 C589 1.433 . S
C597 N599 1.384 . S
N598 C594 1.427 . S
N598 C595 1.384 . S
N599 C591 1.427 . S
N599 C597 1.384 . S
C175 C9 0.979 . S
C179 C93 0.969 . S
C193 C23 0.973 . S
C197 C107 0.978 . S
C211 C121 0.964 . S
C215 C37 0.986 . S
C229 C51 0.967 . S
C233 C135 0.984 . S
C247 C65 0.986 . S
C251 C149 0.963 . S
C265 C163 0.985 . S
C269 C79 0.965 . S
C283 C120 1.636 . S
C287 C8 1.639 . S
C301 C22 1.640 . S
C305 C134 1.643 . S
C319 C148 1.633 . S
C323 C36 1.633 . S
C337 C162 1.634 . S
C341 C50 1.637 . S
C355 C64 1.644 . S
C359 C92 1.645 . S
C373 C78 1.641 . S
C377 C106 1.638 . S
C391 C160 1.393 . S
C395 C6 1.398 . S
C409 C90 1.395 . S
C413 C20 1.396 . S
C427 C34 1.394 . S
C431 C104 1.397 . S
C445 C118 1.400 . S
C449 C48 1.391 . S
C463 C132 1.391 . S
C467 C62 1.400 . S
C481 C146 1.398 . S
C485 C76 1.393 . S
C499 C7 1.280 . S
C503 C147 1.279 . S
C517 C161 1.269 . S
C521 C21 1.275 . S
C535 C35 1.268 . S
C539 C91 1.266 . S
C553 C49 1.267 . S
C557 C105 1.273 . S
C571 C63 1.280 1_556 S
C575 C119 1.278 . S
C589 C77 1.272 . S
C593 C133 1.267 1_554 S
