# Generated by pormake.
# Topology uoq, (4)-cn, num edge types: 1
# Building blocks:
#     Node 0, Type 0, BuildingBlock: NAHDIM_clean_sbu_0, # of connection points: 4
#     Node 1, Type 0, BuildingBlock: NAHDIM_clean_sbu_0, # of connection points: 4
#     Node 2, Type 0, BuildingBlock: NAHDIM_clean_sbu_0, # of connection points: 4
#     Node 3, Type 0, BuildingBlock: NAHDIM_clean_sbu_0, # of connection points: 4
#     Node 4, Type 0, BuildingBlock: NAHDIM_clean_sbu_0, # of connection points: 4
#     Node 5, Type 0, BuildingBlock: NAHDIM_clean_sbu_0, # of connection points: 4
#     Node 6, Type 0, BuildingBlock: NAHDIM_clean_sbu_0, # of connection points: 4
#     Node 7, Type 0, BuildingBlock: NAHDIM_clean_sbu_0, # of connection points: 4
#     Node 8, Type 0, BuildingBlock: NAHDIM_clean_sbu_0, # of connection points: 4
#     Node 9, Type 0, BuildingBlock: NAHDIM_clean_sbu_0, # of connection points: 4
#     Node 10, Type 0, BuildingBlock: NAHDIM_clean_sbu_0, # of connection points: 4
#     Node 11, Type 0, BuildingBlock: NAHDIM_clean_sbu_0, # of connection points: 4
#     Edge 12, Type (0, 0), BuildingBlock: XUDNAN_clean_linker_2, # of connection points: 2
#     Edge 13, Type (0, 0), BuildingBlock: XUDNAN_clean_linker_2, # of connection points: 2
#     Edge 14, Type (0, 0), BuildingBlock: XUDNAN_clean_linker_2, # of connection points: 2
#     Edge 15, Type (0, 0), BuildingBlock: XUDNAN_clean_linker_2, # of connection points: 2
#     Edge 16, Type (0, 0), BuildingBlock: XUDNAN_clean_linker_2, # of connection points: 2
#     Edge 17, Type (0, 0), BuildingBlock: XUDNAN_clean_linker_2, # of connection points: 2
#     Edge 18, Type (0, 0), BuildingBlock: XUDNAN_clean_linker_2, # of connection points: 2
#     Edge 19, Type (0, 0), BuildingBlock: XUDNAN_clean_linker_2, # of connection points: 2
#     Edge 20, Type (0, 0), BuildingBlock: XUDNAN_clean_linker_2, # of connection points: 2
#     Edge 21, Type (0, 0), BuildingBlock: XUDNAN_clean_linker_2, # of connection points: 2
#     Edge 22, Type (0, 0), BuildingBlock: XUDNAN_clean_linker_2, # of connection points: 2
#     Edge 23, Type (0, 0), BuildingBlock: XUDNAN_clean_linker_2, # of connection points: 2
#     Edge 24, Type (0, 0), BuildingBlock: XUDNAN_clean_linker_2, # of connection points: 2
#     Edge 25, Type (0, 0), BuildingBlock: XUDNAN_clean_linker_2, # of connection points: 2
#     Edge 26, Type (0, 0), BuildingBlock: XUDNAN_clean_linker_2, # of connection points: 2
#     Edge 27, Type (0, 0), BuildingBlock: XUDNAN_clean_linker_2, # of connection points: 2
#     Edge 28, Type (0, 0), BuildingBlock: XUDNAN_clean_linker_2, # of connection points: 2
#     Edge 29, Type (0, 0), BuildingBlock: XUDNAN_clean_linker_2, # of connection points: 2
#     Edge 30, Type (0, 0), BuildingBlock: XUDNAN_clean_linker_2, # of connection points: 2
#     Edge 31, Type (0, 0), BuildingBlock: XUDNAN_clean_linker_2, # of connection points: 2
#     Edge 32, Type (0, 0), BuildingBlock: XUDNAN_clean_linker_2, # of connection points: 2
#     Edge 33, Type (0, 0), BuildingBlock: XUDNAN_clean_linker_2, # of connection points: 2
#     Edge 34, Type (0, 0), BuildingBlock: XUDNAN_clean_linker_2, # of connection points: 2
#     Edge 35, Type (0, 0), BuildingBlock: XUDNAN_clean_linker_2, # of connection points: 2
# Relax obj value: 0.070
# Max RMSD: 0.071
# Mean RMSD: 0.071
data_MOF--net-uoq--node1-NAHDIM_clean_sbu_0--edge1-XUDNAN_clean_linker_2
_symmetry_space_group_name_H-M    P1
_symmetry_Int_Tables_number       1
_symmetry_cell_setting            triclinic
loop_
_symmetry_equiv_pos_as_xyz
'x, y, z'
_cell_length_a     58.476773
_cell_length_b     58.452577
_cell_length_c     23.843805
_cell_angle_alpha  90.010507
_cell_angle_beta   89.998531
_cell_angle_gamma 119.9919
loop_
_atom_site_label
_atom_site_type_symbol
_atom_site_fract_x
_atom_site_fract_y
_atom_site_fract_z
_atom_type_partial_charge
C0 C 0.28118 0.44894 0.11397 0.0
O1 O 0.26336 0.43492 0.15198 0.0
O2 O 0.3489 0.49747 0.22649 0.0
Zn3 Zn 0.31624 0.46287 0.20917 0.0
O4 O 0.28738 0.45985 0.26037 0.0
C5 C 0.33058 0.43391 0.27974 0.0
O6 O 0.32981 0.4509 0.31469 0.0
O7 O 0.30537 0.46193 0.12826 0.0
C8 C 0.27119 0.43872 0.28564 0.0
O9 O 0.27214 0.41701 0.27713 0.0
C10 C 0.34847 0.51882 0.2331 0.0
O11 O 0.32622 0.51882 0.2253 0.0
O12 O 0.32502 0.43451 0.22835 0.0
C13 C 0.82118 0.26415 0.50602 0.0
O14 O 0.81735 0.2457 0.54245 0.0
O15 O 0.85708 0.33661 0.60928 0.0
Zn16 Zn 0.85448 0.30149 0.59337 0.0
O17 O 0.83347 0.2764 0.65535 0.0
C18 C 0.90985 0.32676 0.61846 0.0
O19 O 0.90438 0.34402 0.64069 0.0
O20 O 0.83631 0.28829 0.51879 0.0
C21 C 0.84245 0.28305 0.70482 0.0
O22 O 0.86456 0.30542 0.71246 0.0
C23 C 0.83862 0.33974 0.62893 0.0
O24 O 0.81532 0.31896 0.63815 0.0
O25 O 0.89156 0.30656 0.59372 0.0
C26 C 0.55188 0.81382 0.87625 0.0
O27 O 0.54033 0.80187 0.92321 0.0
O28 O 0.51654 0.84492 0.94536 0.0
Zn29 Zn 0.5552 0.85653 0.93884 0.0
O30 O 0.56482 0.8444 0.00911 0.0
C31 C 0.58851 0.91126 0.97344 0.0
O32 O 0.58972 0.90053 0.02091 0.0
O33 O 0.56057 0.8385 0.87186 0.0
C34 C 0.58642 0.84464 0.01691 0.0
O35 O 0.60453 0.85392 0.97745 0.0
C36 C 0.50946 0.85703 0.97918 0.0
O37 O 0.5276 0.87713 0.00783 0.0
O38 O 0.57577 0.89638 0.9324 0.0
C39 C 0.71454 0.53378 0.14487 0.0
O40 O 0.71359 0.51608 0.18024 0.0
O41 O 0.65453 0.50018 0.23483 0.0
Zn42 Zn 0.6849 0.53775 0.23324 0.0
O43 O 0.71203 0.54047 0.28839 0.0
C44 C 0.67477 0.57033 0.30754 0.0
O45 O 0.68482 0.56068 0.34336 0.0
O46 O 0.70247 0.54615 0.15727 0.0
C47 C 0.73406 0.56177 0.29192 0.0
O48 O 0.73877 0.5816 0.25877 0.0
C49 C 0.63771 0.49228 0.2744 0.0
O50 O 0.63978 0.50911 0.31331 0.0
O51 O 0.67263 0.56347 0.25622 0.0
C52 C 0.1999 0.73177 0.55373 0.0
O53 O 0.20645 0.72287 0.5979 0.0
O54 O 0.14578 0.66703 0.60862 0.0
Zn55 Zn 0.15196 0.70419 0.61101 0.0
O56 O 0.16962 0.7217 0.68287 0.0
C57 C 0.09702 0.68307 0.58603 0.0
O58 O 0.10105 0.66689 0.55482 0.0
O59 O 0.17594 0.72587 0.54785 0.0
C60 C 0.1574 0.71532 0.72935 0.0
O61 O 0.13264 0.69625 0.7307 0.0
C62 C 0.15653 0.65799 0.64136 0.0
O63 O 0.17375 0.67368 0.67872 0.0
O64 O 0.11653 0.70202 0.61076 0.0
C65 C 0.44735 0.16732 0.81649 0.0
O66 O 0.47063 0.1801 0.84064 0.0
O67 O 0.47234 0.14842 0.93391 0.0
Zn68 Zn 0.43391 0.13616 0.91756 0.0
O69 O 0.42003 0.15245 0.97214 0.0
C70 C 0.38876 0.08577 0.94341 0.0
O71 O 0.37727 0.10013 0.94654 0.0
O72 O 0.42892 0.14703 0.84045 0.0
C73 C 0.42067 0.14937 0.02471 0.0
O74 O 0.43128 0.13577 0.04426 0.0
C75 C 0.48674 0.16837 0.9645 0.0
O76 O 0.47706 0.18272 0.98441 0.0
O77 O 0.41286 0.09672 0.92872 0.0
C78 C 0.5701 0.73861 0.52118 0.0
O79 O 0.58009 0.75703 0.48247 0.0
O80 O 0.52717 0.6777 0.4017 0.0
Zn81 Zn 0.56426 0.70258 0.4292 0.0
O82 O 0.58071 0.73292 0.37483 0.0
C83 C 0.59079 0.6769 0.38225 0.0
O84 O 0.58184 0.68137 0.33541 0.0
O85 O 0.56259 0.7148 0.50786 0.0
C86 C 0.56653 0.7418 0.35495 0.0
O87 O 0.54217 0.73196 0.37309 0.0
C88 C 0.51711 0.65285 0.39655 0.0
O89 O 0.53091 0.64174 0.41157 0.0
O90 O 0.58572 0.68427 0.42852 0.0
C91 C 0.83323 0.55184 0.8346 0.0
O92 O 0.84314 0.53633 0.84318 0.0
O93 O 0.85915 0.5276 0.72064 0.0
Zn94 Zn 0.85895 0.56204 0.72394 0.0
O95 O 0.8441 0.56754 0.65253 0.0
C96 C 0.90959 0.58968 0.68227 0.0
O97 O 0.89699 0.5704 0.64605 0.0
O98 O 0.83802 0.56448 0.78871 0.0
C99 C 0.8265 0.54932 0.62246 0.0
O100 O 0.81622 0.52461 0.63833 0.0
C101 C 0.84061 0.504 0.72831 0.0
O102 O 0.81698 0.49948 0.74239 0.0
O103 O 0.89702 0.59102 0.72451 0.0
C104 C 0.30886 0.83947 0.23902 0.0
O105 O 0.33333 0.84666 0.22554 0.0
O106 O 0.33731 0.85031 0.1033 0.0
Zn107 Zn 0.30563 0.85376 0.12376 0.0
O108 O 0.2753 0.82966 0.07465 0.0
C109 C 0.33238 0.90667 0.07909 0.0
O110 O 0.34807 0.89879 0.05817 0.0
O111 O 0.29416 0.84187 0.20309 0.0
C112 C 0.27736 0.83108 0.02162 0.0
O113 O 0.29969 0.84889 0.99881 0.0
C114 C 0.33479 0.82891 0.08383 0.0
O115 O 0.31107 0.80819 0.07891 0.0
O116 O 0.3132 0.89101 0.11016 0.0
C117 C 0.44547 0.27198 0.49633 0.0
O118 O 0.46905 0.28485 0.47355 0.0
O119 O 0.46795 0.322 0.38802 0.0
Zn120 Zn 0.43044 0.29288 0.40186 0.0
O121 O 0.41985 0.26606 0.34025 0.0
C122 C 0.4075 0.322 0.35785 0.0
O123 O 0.42199 0.32314 0.31464 0.0
O124 O 0.42654 0.27358 0.47423 0.0
C125 C 0.3988 0.25605 0.31133 0.0
O126 O 0.3811 0.26318 0.32065 0.0
C127 C 0.48287 0.31908 0.35345 0.0
O128 O 0.47431 0.29605 0.32911 0.0
O129 O 0.40743 0.30942 0.4014 0.0
C130 C 0.19188 0.45691 0.77154 0.0
O131 O 0.20162 0.47231 0.72747 0.0
O132 O 0.14427 0.47716 0.71175 0.0
Zn133 Zn 0.14483 0.44299 0.71125 0.0
O134 O 0.16103 0.44294 0.63703 0.0
C135 C 0.09774 0.39233 0.68483 0.0
O136 O 0.11412 0.38743 0.65667 0.0
O137 O 0.16701 0.44182 0.77508 0.0
C138 C 0.17206 0.42974 0.62356 0.0
O139 O 0.17329 0.41361 0.66022 0.0
C140 C 0.12977 0.47859 0.67373 0.0
O141 O 0.11642 0.45814 0.64067 0.0
O142 O 0.10682 0.41354 0.71319 0.0
C143 C 0.71242 0.18736 0.16786 0.0
O144 O 0.7089 0.19976 0.1257 0.0
O145 O 0.65604 0.15954 0.08242 0.0
Zn146 Zn 0.68437 0.14928 0.08936 0.0
O147 O 0.71337 0.16965 0.03336 0.0
C148 C 0.65182 0.09954 0.03717 0.0
O149 O 0.64401 0.11426 0.01138 0.0
O150 O 0.70218 0.16238 0.16476 0.0
C151 C 0.71505 0.16413 0.98253 0.0
O152 O 0.69585 0.14263 0.95978 0.0
C153 C 0.65088 0.16739 0.0369 0.0
O154 O 0.66414 0.16901 0.9912 0.0
O155 O 0.669 0.10981 0.07594 0.0
H156 H 0.35164 0.40868 0.22008 0.0
H157 H 0.3264 0.41618 0.38685 0.0
H158 H 0.34066 0.38587 0.42386 0.0
H159 H 0.33433 0.33919 0.23073 0.0
H160 H 0.3632 0.34448 0.19265 0.0
H161 H 0.34868 0.36473 0.17819 0.0
H162 H 0.39367 0.4068 0.19777 0.0
H163 H 0.40829 0.3867 0.21241 0.0
H164 H 0.40999 0.41008 0.2639 0.0
H165 H 0.3592 0.35626 0.44354 0.0
H166 H 0.38276 0.33106 0.4454 0.0
H167 H 0.39772 0.34436 0.26664 0.0
C168 C 0.34872 0.40355 0.26417 0.0
C169 C 0.33777 0.41458 0.30059 0.0
C170 C 0.33475 0.40791 0.35826 0.0
C171 C 0.34269 0.39064 0.37963 0.0
C172 C 0.35377 0.38037 0.34283 0.0
C173 C 0.35691 0.38664 0.28638 0.0
C174 C 0.37107 0.37438 0.25669 0.0
C175 C 0.35325 0.35451 0.21192 0.0
C176 C 0.39731 0.39577 0.23121 0.0
C177 C 0.37568 0.36054 0.30539 0.0
C178 C 0.36523 0.36395 0.35454 0.0
C179 C 0.36738 0.35336 0.40529 0.0
C180 C 0.38079 0.33907 0.40591 0.0
C181 C 0.39212 0.3358 0.35623 0.0
C182 C 0.38931 0.34655 0.30535 0.0
H183 H 0.95092 0.36577 0.67685 0.0
H184 H 0.92965 0.29656 0.5744 0.0
H185 H 0.97494 0.30383 0.58566 0.0
H186 H 0.01546 0.40535 0.6237 0.0
H187 H 0.02939 0.42053 0.69028 0.0
H188 H 0.99512 0.40893 0.67582 0.0
H189 H 0.98191 0.37994 0.76542 0.0
H190 H 0.01618 0.39134 0.77999 0.0
H191 H 0.99305 0.35645 0.77437 0.0
H192 H 0.02358 0.32039 0.60492 0.0
H193 H 0.07112 0.34507 0.62863 0.0
H194 H 0.0592 0.40254 0.71991 0.0
C195 C 0.95565 0.35201 0.65685 0.0
C196 C 0.93673 0.33059 0.62464 0.0
C197 C 0.94383 0.3131 0.59927 0.0
C198 C 0.96947 0.31704 0.60558 0.0
C199 C 0.98762 0.33842 0.63769 0.0
C200 C 0.98095 0.35556 0.66292 0.0
C201 C 0.00411 0.37747 0.69392 0.0
C202 C 0.01145 0.40466 0.66944 0.0
C203 C 0.99847 0.37621 0.75717 0.0
C204 C 0.02509 0.3703 0.68152 0.0
C205 C 0.01525 0.34765 0.64929 0.0
C206 C 0.03141 0.33799 0.63058 0.0
C207 C 0.05838 0.35213 0.64432 0.0
C208 C 0.06889 0.37566 0.67642 0.0
C209 C 0.0518 0.38446 0.69595 0.0
H210 H 0.61742 0.94887 0.05282 0.0
H211 H 0.58311 0.93887 0.88677 0.0
H212 H 0.59706 0.98624 0.88446 0.0
H213 H 0.59849 0.99345 0.10431 0.0
H214 H 0.62839 0.01348 0.14341 0.0
H215 H 0.6174 0.97914 0.13096 0.0
H216 H 0.66241 0.99177 0.08533 0.0
H217 H 0.67363 0.02618 0.09805 0.0
H218 H 0.67446 0.01499 0.02802 0.0
H219 H 0.6112 0.03333 0.9029 0.0
H220 H 0.6275 0.07844 0.938 0.0
H221 H 0.65412 0.05891 0.0913 0.0
C222 C 0.61315 0.9567 0.01563 0.0
C223 C 0.59915 0.94012 0.96994 0.0
C224 C 0.59387 0.95115 0.92218 0.0
C225 C 0.60168 0.97804 0.9205 0.0
C226 C 0.61497 0.99369 0.96665 0.0
C227 C 0.62096 0.98356 0.01308 0.0
C228 C 0.63491 0.00464 0.05757 0.0
C229 C 0.61883 0.99723 0.11228 0.0
C230 C 0.66302 0.00969 0.06782 0.0
C231 C 0.63536 0.02807 0.02925 0.0
C232 C 0.6237 0.02122 0.97688 0.0
C233 C 0.62064 0.03903 0.94354 0.0
C234 C 0.62986 0.06459 0.96407 0.0
C235 C 0.64216 0.07224 0.01736 0.0
C236 C 0.64503 0.05371 0.05022 0.0
H237 H 0.64917 0.59136 0.24776 0.0
H238 H 0.67838 0.58896 0.41391 0.0
H239 H 0.66113 0.61682 0.45014 0.0
H240 H 0.66327 0.65944 0.25531 0.0
H241 H 0.63377 0.65272 0.21788 0.0
H242 H 0.6492 0.63323 0.20418 0.0
H243 H 0.60516 0.59053 0.22641 0.0
H244 H 0.58962 0.60988 0.24028 0.0
H245 H 0.58919 0.58752 0.29287 0.0
H246 H 0.63945 0.64346 0.46963 0.0
H247 H 0.61516 0.66789 0.47055 0.0
H248 H 0.60019 0.65353 0.29196 0.0
C249 C 0.65211 0.59686 0.29165 0.0
C250 C 0.66515 0.58795 0.32794 0.0
C251 C 0.66846 0.5955 0.3852 0.0
C252 C 0.65875 0.61135 0.40627 0.0
C253 C 0.64581 0.61961 0.36959 0.0
C254 C 0.64252 0.61273 0.31348 0.0
C255 C 0.62739 0.62389 0.28343 0.0
C256 C 0.64443 0.64349 0.23749 0.0
C257 C 0.60129 0.60162 0.25935 0.0
C258 C 0.62254 0.63787 0.33157 0.0
C259 C 0.63337 0.63517 0.38084 0.0
C260 C 0.63099 0.64585 0.43125 0.0
C261 C 0.61712 0.65966 0.43136 0.0
C262 C 0.60582 0.6627 0.38135 0.0
C263 C 0.60872 0.6517 0.33084 0.0
H264 H 0.94225 0.58733 0.60384 0.0
H265 H 0.94081 0.63572 0.74037 0.0
H266 H 0.98821 0.6676 0.72437 0.0
H267 H 0.00455 0.59522 0.63503 0.0
H268 H 0.01382 0.5957 0.56276 0.0
H269 H 0.97954 0.57817 0.58238 0.0
H270 H 0.96987 0.60535 0.50996 0.0
H271 H 0.00423 0.62312 0.49037 0.0
H272 H 0.98812 0.64093 0.51333 0.0
H273 H 0.03635 0.69301 0.69568 0.0
H274 H 0.08158 0.70818 0.66157 0.0
H275 H 0.05085 0.64243 0.54475 0.0
C276 C 0.95176 0.60476 0.63009 0.0
C277 C 0.93781 0.60912 0.67321 0.0
C278 C 0.95113 0.63201 0.70705 0.0
C279 C 0.97798 0.65027 0.69807 0.0
C280 C 0.99113 0.6453 0.65513 0.0
C281 C 0.97844 0.62302 0.62191 0.0
C282 C 0.99725 0.62127 0.58089 0.0
C283 C 0.99888 0.59611 0.5909 0.0
C284 C 0.98939 0.62277 0.52003 0.0
C285 C 0.0227 0.64585 0.5968 0.0
C286 C 0.01875 0.65966 0.63917 0.0
C287 C 0.03962 0.68245 0.66224 0.0
C288 C 0.06524 0.69095 0.64245 0.0
C289 C 0.06978 0.67652 0.60038 0.0
C290 C 0.04807 0.65402 0.57661 0.0
H291 H 0.37423 0.9466 0.02319 0.0
H292 H 0.29889 0.92583 0.09962 0.0
H293 H 0.30434 0.96877 0.06991 0.0
H294 H 0.40745 0.01515 0.06234 0.0
H295 H 0.4261 0.02618 0.99809 0.0
H296 H 0.41597 0.99367 0.02479 0.0
H297 H 0.39288 0.97324 0.93024 0.0
H298 H 0.40277 0.00568 0.90339 0.0
H299 H 0.36839 0.98053 0.90345 0.0
H300 H 0.31779 0.01375 0.03071 0.0
H301 H 0.33959 0.0587 0.99069 0.0
H302 H 0.40649 0.05023 0.94144 0.0
C303 C 0.35886 0.95106 0.03376 0.0
C304 C 0.33609 0.93282 0.06363 0.0
C305 C 0.31653 0.93951 0.07688 0.0
C306 C 0.31939 0.9638 0.05998 0.0
C307 C 0.34197 0.9812 0.03014 0.0
C308 C 0.36147 0.97523 0.01756 0.0
C309 C 0.3841 0.99762 0.98616 0.0
C310 C 0.40993 0.00882 0.01988 0.0
C311 C 0.3872 0.98873 0.92732 0.0
C312 C 0.37431 0.01715 0.98309 0.0
C313 C 0.34989 0.00723 0.00832 0.0
C314 C 0.33692 0.02174 0.01088 0.0
C315 C 0.34945 0.04723 0.98786 0.0
C316 C 0.37476 0.05802 0.96291 0.0
C317 C 0.38713 0.04257 0.96011 0.0
H318 H 0.1785 0.43162 0.8738 0.0
H319 H 0.24583 0.48351 0.77028 0.0
H320 H 0.27596 0.48534 0.84473 0.0
H321 H 0.20618 0.46379 0.00346 0.0
H322 H 0.192 0.43376 0.04403 0.0
H323 H 0.17566 0.43543 0.98146 0.0
H324 H 0.17632 0.39452 0.94149 0.0
H325 H 0.19271 0.39277 0.00397 0.0
H326 H 0.20728 0.39492 0.93614 0.0
H327 H 0.29889 0.48279 0.93151 0.0
H328 H 0.31288 0.47673 0.02541 0.0
H329 H 0.23071 0.42666 0.07262 0.0
C330 C 0.19957 0.4432 0.86659 0.0
C331 C 0.20978 0.45738 0.81609 0.0
C332 C 0.2375 0.47247 0.80857 0.0
C333 C 0.25482 0.4736 0.85057 0.0
C334 C 0.24413 0.45951 0.89992 0.0
C335 C 0.21716 0.44461 0.90819 0.0
C336 C 0.21083 0.43208 0.96589 0.0
C337 C 0.19525 0.44186 0.00075 0.0
C338 C 0.1959 0.40177 0.96159 0.0
C339 C 0.23844 0.44248 0.98891 0.0
C340 C 0.25736 0.45813 0.95007 0.0
C341 C 0.28425 0.47046 0.9622 0.0
C342 C 0.29201 0.46689 0.01567 0.0
C343 C 0.27293 0.45118 0.05642 0.0
C344 C 0.24582 0.43866 0.04239 0.0
H345 H 0.78857 0.21449 0.46206 0.0
H346 H 0.82151 0.2981 0.42699 0.0
H347 H 0.7969 0.28709 0.33807 0.0
H348 H 0.79047 0.19484 0.31864 0.0
H349 H 0.75978 0.16403 0.32412 0.0
H350 H 0.78005 0.17829 0.38538 0.0
H351 H 0.74049 0.17711 0.437 0.0
H352 H 0.72013 0.16295 0.37582 0.0
H353 H 0.72396 0.19299 0.40573 0.0
H354 H 0.7684 0.26765 0.25481 0.0
H355 H 0.73892 0.24081 0.17864 0.0
H356 H 0.72439 0.16926 0.26485 0.0
C357 C 0.79067 0.23048 0.43559 0.0
C358 C 0.80699 0.25719 0.45166 0.0
C359 C 0.8092 0.2775 0.41572 0.0
C360 C 0.79525 0.27146 0.3651 0.0
C361 C 0.77923 0.24501 0.35075 0.0
C362 C 0.77694 0.2248 0.38458 0.0
C363 C 0.75841 0.19804 0.35868 0.0
C364 C 0.77306 0.18292 0.34594 0.0
C365 C 0.73432 0.18182 0.39657 0.0
C366 C 0.75062 0.20645 0.30513 0.0
C367 C 0.76285 0.23366 0.30177 0.0
C368 C 0.75876 0.24632 0.2568 0.0
C369 C 0.74189 0.23083 0.21374 0.0
C370 C 0.7293 0.20287 0.21559 0.0
C371 C 0.73371 0.19056 0.26216 0.0
H372 H 0.57008 0.83087 0.76903 0.0
H373 H 0.53859 0.7619 0.87707 0.0
H374 H 0.54103 0.73563 0.79887 0.0
H375 H 0.53524 0.79666 0.64547 0.0
H376 H 0.56201 0.8166 0.59832 0.0
H377 H 0.55879 0.83039 0.66337 0.0
H378 H 0.60648 0.8427 0.69077 0.0
H379 H 0.60985 0.82896 0.62574 0.0
H380 H 0.61556 0.81742 0.69148 0.0
H381 H 0.54565 0.71641 0.70864 0.0
H382 H 0.55213 0.70556 0.61207 0.0
H383 H 0.58059 0.78688 0.56225 0.0
C384 C 0.56387 0.8103 0.77636 0.0
C385 C 0.55417 0.79847 0.82929 0.0
C386 C 0.54608 0.77143 0.83696 0.0
C387 C 0.54742 0.75631 0.79281 0.0
C388 C 0.5569 0.7685 0.74114 0.0
C389 C 0.56501 0.79487 0.73264 0.0
C390 C 0.57382 0.80294 0.67255 0.0
C391 C 0.55642 0.81219 0.64321 0.0
C392 C 0.60317 0.82427 0.67001 0.0
C393 C 0.56924 0.77695 0.64861 0.0
C394 C 0.55954 0.75738 0.68894 0.0
C395 C 0.55334 0.7316 0.67671 0.0
C396 C 0.55707 0.72563 0.62168 0.0
C397 C 0.56691 0.74535 0.5795 0.0
C398 C 0.57315 0.77136 0.59349 0.0
H399 H 0.74451 0.51236 0.11086 0.0
H400 H 0.72135 0.56951 0.06243 0.0
H401 H 0.74958 0.58072 0.97809 0.0
H402 H 0.81197 0.55029 0.06778 0.0
H403 H 0.81374 0.52208 0.043 0.0
H404 H 0.79137 0.51827 0.09887 0.0
H405 H 0.75222 0.48206 0.04195 0.0
H406 H 0.77448 0.48567 0.98601 0.0
H407 H 0.74617 0.48927 0.9718 0.0
H408 H 0.78061 0.58575 0.89928 0.0
H409 H 0.81148 0.58387 0.83135 0.0
H410 H 0.81452 0.52365 0.93243 0.0
C411 C 0.74524 0.52716 0.08248 0.0
C412 C 0.73066 0.54003 0.09323 0.0
C413 C 0.73229 0.55936 0.05503 0.0
C414 C 0.7483 0.56588 0.00707 0.0
C415 C 0.76255 0.55292 0.99801 0.0
C416 C 0.76112 0.53393 0.03462 0.0
C417 C 0.77846 0.52298 0.01552 0.0
C418 C 0.80017 0.52876 0.05888 0.0
C419 C 0.76184 0.49323 0.00307 0.0
C420 C 0.78991 0.53877 0.96235 0.0
C421 C 0.78049 0.55592 0.95297 0.0
C422 C 0.78811 0.5724 0.90623 0.0
C423 C 0.80568 0.57119 0.8679 0.0
C424 C 0.81549 0.55364 0.87654 0.0
C425 C 0.80751 0.53736 0.92466 0.0
H426 H 0.19357 0.75337 0.45633 0.0
H427 H 0.25269 0.74896 0.55869 0.0
H428 H 0.28724 0.7777 0.4916 0.0
H429 H 0.22096 0.75128 0.32364 0.0
H430 H 0.21307 0.77414 0.29025 0.0
H431 H 0.19304 0.75384 0.3473 0.0
H432 H 0.201 0.79575 0.40105 0.0
H433 H 0.22117 0.81619 0.34422 0.0
H434 H 0.23434 0.82176 0.41441 0.0
H435 H 0.31531 0.80607 0.41261 0.0
H436 H 0.33473 0.83116 0.32545 0.0
H437 H 0.25749 0.81729 0.27464 0.0
C438 C 0.21379 0.7585 0.46473 0.0
C439 C 0.2204 0.74891 0.51284 0.0
C440 C 0.2471 0.75604 0.52216 0.0
C441 C 0.26691 0.77242 0.48436 0.0
C442 C 0.25975 0.78157 0.43745 0.0
C443 C 0.23385 0.77485 0.42739 0.0
C444 C 0.2314 0.78686 0.37303 0.0
C445 C 0.21357 0.76524 0.33108 0.0
C446 C 0.22139 0.8063 0.38385 0.0
C447 C 0.25993 0.80117 0.35396 0.0
C448 C 0.27598 0.79797 0.39185 0.0
C449 C 0.30298 0.80883 0.3827 0.0
C450 C 0.31383 0.82306 0.33308 0.0
C451 C 0.29768 0.82628 0.29325 0.0
C452 C 0.27043 0.81538 0.30438 0.0
H453 H 0.48304 0.20717 0.74885 0.0
H454 H 0.39915 0.15244 0.76971 0.0
H455 H 0.38961 0.17339 0.69017 0.0
H456 H 0.47828 0.26361 0.71504 0.0
H457 H 0.50421 0.27611 0.66326 0.0
H458 H 0.50467 0.25622 0.72042 0.0
H459 H 0.50673 0.22353 0.64997 0.0
H460 H 0.50655 0.24347 0.59256 0.0
H461 H 0.48201 0.2089 0.59585 0.0
H462 H 0.38901 0.20208 0.61266 0.0
H463 H 0.39756 0.23393 0.53646 0.0
H464 H 0.48193 0.26904 0.56393 0.0
C465 C 0.46268 0.19941 0.73637 0.0
C466 C 0.44184 0.1782 0.76558 0.0
C467 C 0.41545 0.16861 0.74785 0.0
C468 C 0.40982 0.18044 0.70286 0.0
C469 C 0.43079 0.20164 0.67571 0.0
C470 C 0.45671 0.21082 0.69123 0.0
C471 C 0.47559 0.2339 0.65504 0.0
C472 C 0.49163 0.25893 0.69058 0.0
C473 C 0.49379 0.22703 0.62135 0.0
C474 C 0.45621 0.23647 0.61719 0.0
C475 C 0.43047 0.21777 0.63004 0.0
C476 C 0.40909 0.21667 0.60187 0.0
C477 C 0.41415 0.23495 0.55885 0.0
C478 C 0.44041 0.25393 0.54412 0.0
C479 C 0.46165 0.25468 0.57398 0.0
H480 H 0.19288 0.40144 0.57507 0.0
H481 H 0.17849 0.46647 0.54503 0.0
H482 H 0.19991 0.47401 0.45267 0.0
H483 H 0.25622 0.43082 0.51301 0.0
H484 H 0.25182 0.4007 0.4823 0.0
H485 H 0.23409 0.39942 0.54501 0.0
H486 H 0.18983 0.3676 0.49589 0.0
H487 H 0.20744 0.3688 0.43292 0.0
H488 H 0.18171 0.3772 0.43034 0.0
H489 H 0.2258 0.47687 0.36725 0.0
H490 H 0.2533 0.47371 0.29238 0.0
H491 H 0.24926 0.40572 0.37544 0.0
C492 C 0.19405 0.41712 0.54888 0.0
C493 C 0.18403 0.43337 0.56734 0.0
C494 C 0.18597 0.45371 0.5318 0.0
C495 C 0.19808 0.45816 0.4792 0.0
C496 C 0.20792 0.44194 0.46244 0.0
C497 C 0.20589 0.4217 0.49594 0.0
C498 C 0.21869 0.40757 0.46835 0.0
C499 C 0.24156 0.40977 0.50431 0.0
C500 C 0.19819 0.37857 0.45615 0.0
C501 C 0.22868 0.42339 0.41469 0.0
C502 C 0.22224 0.44311 0.41214 0.0
C503 C 0.23066 0.46128 0.3683 0.0
C504 C 0.2463 0.45938 0.32611 0.0
C505 C 0.25312 0.43932 0.32792 0.0
C506 C 0.24389 0.42093 0.37244 0.0
H507 H 0.79434 0.23716 0.70533 0.0
H508 H 0.85772 0.29177 0.81451 0.0
H509 H 0.83295 0.26562 0.89672 0.0
H510 H 0.7418 0.22733 0.79409 0.0
H511 H 0.72123 0.19275 0.77804 0.0
H512 H 0.74465 0.21467 0.72708 0.0
H513 H 0.76581 0.18494 0.72187 0.0
H514 H 0.74241 0.16288 0.7728 0.0
H515 H 0.77732 0.17718 0.78527 0.0
H516 H 0.80047 0.23573 0.96718 0.0
H517 H 0.76229 0.20317 0.02208 0.0
H518 H 0.72005 0.1672 0.86779 0.0
C519 C 0.80314 0.24344 0.74647 0.0
C520 C 0.82798 0.26651 0.7535 0.0
C521 C 0.83873 0.27418 0.80806 0.0
C522 C 0.82484 0.25943 0.85505 0.0
C523 C 0.80031 0.237 0.84676 0.0
C524 C 0.78955 0.22892 0.79392 0.0
C525 C 0.76235 0.20458 0.79698 0.0
C526 C 0.74127 0.21018 0.77261 0.0
C527 C 0.76196 0.181 0.76748 0.0
C528 C 0.75938 0.20054 0.85987 0.0
C529 C 0.78156 0.21944 0.88769 0.0
C530 C 0.78308 0.22065 0.94595 0.0
C531 C 0.76126 0.20212 0.97672 0.0
C532 C 0.73827 0.1826 0.94917 0.0
C533 C 0.73749 0.18168 0.88996 0.0
H534 H 0.5513 0.82157 0.10271 0.0
H535 H 0.63012 0.84179 0.04876 0.0
H536 H 0.63515 0.82055 0.13398 0.0
H537 H 0.56498 0.83059 0.25318 0.0
H538 H 0.53321 0.80291 0.27117 0.0
H539 H 0.53689 0.82167 0.20849 0.0
H540 H 0.51775 0.77881 0.14921 0.0
H541 H 0.51403 0.75994 0.21157 0.0
H542 H 0.53287 0.75849 0.15323 0.0
H543 H 0.63014 0.79434 0.22219 0.0
H544 H 0.61534 0.76489 0.30488 0.0
H545 H 0.5398 0.76218 0.29954 0.0
C546 C 0.5698 0.8219 0.10902 0.0
C547 C 0.59036 0.83341 0.06913 0.0
C548 C 0.61413 0.83315 0.07885 0.0
C549 C 0.61718 0.82119 0.12717 0.0
C550 C 0.59633 0.80972 0.1653 0.0
C551 C 0.57314 0.81007 0.15674 0.0
C552 C 0.55312 0.79514 0.20221 0.0
C553 C 0.54668 0.81369 0.23575 0.0
C554 C 0.52797 0.77171 0.17757 0.0
C555 C 0.56846 0.78587 0.23727 0.0
C556 C 0.59343 0.79465 0.21568 0.0
C557 C 0.61073 0.78757 0.23976 0.0
C558 C 0.60214 0.77084 0.28669 0.0
C559 C 0.57643 0.76128 0.30877 0.0
C560 C 0.55963 0.76928 0.284 0.0
H561 H 0.73168 0.52346 0.36162 0.0
H562 H 0.77935 0.6069 0.32198 0.0
H563 H 0.8095 0.61239 0.39993 0.0
H564 H 0.73583 0.52995 0.5081 0.0
H565 H 0.73785 0.50059 0.52049 0.0
H566 H 0.72112 0.50282 0.45919 0.0
H567 H 0.75135 0.49324 0.39567 0.0
H568 H 0.76812 0.49085 0.45686 0.0
H569 H 0.78669 0.51364 0.40154 0.0
H570 H 0.83249 0.60938 0.48606 0.0
H571 H 0.84773 0.59782 0.57234 0.0
H572 H 0.78531 0.51617 0.55451 0.0
C573 C 0.74862 0.54285 0.36889 0.0
C574 C 0.75318 0.56477 0.33579 0.0
C575 C 0.77553 0.58981 0.34671 0.0
C576 C 0.79275 0.59313 0.39089 0.0
C577 C 0.78744 0.57117 0.42325 0.0
C578 C 0.76605 0.54648 0.4125 0.0
C579 C 0.76431 0.52625 0.45447 0.0
C580 C 0.73823 0.51421 0.48751 0.0
C581 C 0.76783 0.50473 0.42539 0.0
C582 C 0.7877 0.54357 0.49139 0.0
C583 C 0.80086 0.56938 0.47252 0.0
C584 C 0.82252 0.58919 0.50094 0.0
C585 C 0.83095 0.58243 0.55001 0.0
C586 C 0.81773 0.55607 0.5701 0.0
C587 C 0.79593 0.53644 0.54005 0.0
H588 H 0.20755 0.75725 0.73837 0.0
H589 H 0.13791 0.70598 0.83671 0.0
H590 H 0.1608 0.73059 0.92244 0.0
H591 H 0.25539 0.76327 0.83947 0.0
H592 H 0.27813 0.79744 0.82336 0.0
H593 H 0.25612 0.77584 0.77004 0.0
H594 H 0.23814 0.80788 0.75437 0.0
H595 H 0.26005 0.82955 0.80775 0.0
H596 H 0.22504 0.81714 0.81302 0.0
H597 H 0.19158 0.76056 0.9973 0.0
H598 H 0.22794 0.79351 0.05597 0.0
H599 H 0.277 0.82522 0.90761 0.0
C600 C 0.19705 0.75113 0.77788 0.0
C601 C 0.17094 0.72968 0.78091 0.0
C602 C 0.15793 0.72236 0.83344 0.0
C603 C 0.17075 0.73622 0.88231 0.0
C604 C 0.19648 0.75732 0.87773 0.0
C605 C 0.20947 0.76474 0.82685 0.0
C606 C 0.23709 0.78806 0.83314 0.0
C607 C 0.2579 0.7807 0.81547 0.0
C608 C 0.24025 0.81208 0.80012 0.0
C609 C 0.23769 0.79256 0.89567 0.0
C610 C 0.21409 0.77466 0.92064 0.0
C611 C 0.21012 0.77472 0.9782 0.0
C612 C 0.2309 0.79351 0.01113 0.0
C613 C 0.25529 0.81196 0.98634 0.0
C614 C 0.25857 0.81148 0.9278 0.0
H615 H 0.43671 0.16527 0.1322 0.0
H616 H 0.38358 0.16352 0.00316 0.0
H617 H 0.36917 0.18757 0.06604 0.0
H618 H 0.39582 0.15922 0.25419 0.0
H619 H 0.42384 0.18213 0.29539 0.0
H620 H 0.42768 0.16223 0.24263 0.0
H621 H 0.46489 0.20455 0.19574 0.0
H622 H 0.46115 0.22455 0.24823 0.0
H623 H 0.45839 0.23042 0.17499 0.0
H624 H 0.36202 0.21346 0.14171 0.0
H625 H 0.36509 0.24192 0.22158 0.0
H626 H 0.42467 0.22846 0.29821 0.0
C627 C 0.42166 0.1695 0.11766 0.0
C628 C 0.41102 0.16236 0.06322 0.0
C629 C 0.39189 0.16881 0.04493 0.0
C630 C 0.38351 0.18232 0.08038 0.0
C631 C 0.39464 0.1894 0.13367 0.0
C632 C 0.41343 0.18336 0.15209 0.0
C633 C 0.42399 0.19514 0.20922 0.0
C634 C 0.41743 0.17338 0.25294 0.0
C635 C 0.45387 0.21483 0.20686 0.0
C636 C 0.40846 0.20905 0.21975 0.0
C637 C 0.39132 0.20517 0.17618 0.0
C638 C 0.37529 0.21655 0.17621 0.0
C639 C 0.37713 0.23263 0.22171 0.0
C640 C 0.39516 0.23742 0.26587 0.0
C641 C 0.41075 0.2252 0.26495 0.0
H642 H 0.39501 0.52312 0.26879 0.0
H643 H 0.35564 0.56867 0.2447 0.0
H644 H 0.39467 0.60812 0.28326 0.0
H645 H 0.42507 0.55192 0.39936 0.0
H646 H 0.45515 0.55155 0.38498 0.0
H647 H 0.42462 0.52725 0.35324 0.0
H648 H 0.44582 0.54102 0.25462 0.0
H649 H 0.47647 0.56528 0.28607 0.0
H650 H 0.46097 0.57515 0.23349 0.0
H651 H 0.43785 0.64243 0.32586 0.0
H652 H 0.48183 0.66898 0.3692 0.0
H653 H 0.49231 0.60049 0.36705 0.0
C654 C 0.39464 0.54143 0.27107 0.0
C655 C 0.37229 0.54283 0.25348 0.0
C656 C 0.37255 0.56714 0.25779 0.0
C657 C 0.39463 0.58965 0.27965 0.0
C658 C 0.41621 0.58748 0.29713 0.0
C659 C 0.4164 0.564 0.29304 0.0
C660 C 0.44179 0.56672 0.31595 0.0
C661 C 0.43632 0.54826 0.36638 0.0
C662 C 0.45717 0.56175 0.26977 0.0
C663 C 0.45586 0.5954 0.33379 0.0
C664 C 0.44084 0.60707 0.32239 0.0
C665 C 0.44978 0.63349 0.33497 0.0
C666 C 0.47479 0.6484 0.35962 0.0
C667 C 0.49051 0.63681 0.37171 0.0
C668 C 0.48076 0.60992 0.35864 0.0
H669 H 0.8044 0.45067 0.72394 0.0
H670 H 0.88799 0.50746 0.7058 0.0
H671 H 0.89637 0.47149 0.6804 0.0
H672 H 0.81246 0.39734 0.78258 0.0
H673 H 0.78447 0.37187 0.7453 0.0
H674 H 0.78506 0.40194 0.76478 0.0
H675 H 0.77745 0.40952 0.66101 0.0
H676 H 0.777 0.37957 0.64116 0.0
H677 H 0.79982 0.41038 0.60792 0.0
H678 H 0.89571 0.43019 0.65266 0.0
H679 H 0.88625 0.38545 0.62731 0.0
H680 H 0.80314 0.35485 0.66362 0.0
C681 C 0.8245 0.4555 0.7153 0.0
C682 C 0.84553 0.48192 0.71695 0.0
C683 C 0.87153 0.4874 0.70482 0.0
C684 C 0.87652 0.4671 0.69034 0.0
C685 C 0.85534 0.44138 0.68823 0.0
C686 C 0.82987 0.43542 0.70064 0.0
C687 C 0.81064 0.40611 0.69378 0.0
C688 C 0.79738 0.39358 0.74996 0.0
C689 C 0.79001 0.40111 0.64826 0.0
C690 C 0.8293 0.39662 0.6752 0.0
C691 C 0.85498 0.41734 0.67231 0.0
C692 C 0.87571 0.41375 0.65504 0.0
C693 C 0.87009 0.38824 0.64054 0.0
C694 C 0.84395 0.36659 0.64349 0.0
C695 C 0.82333 0.37094 0.66111 0.0
H696 H 0.48839 0.88242 0.03765 0.0
H697 H 0.46663 0.81165 0.94032 0.0
H698 H 0.41947 0.79639 0.95752 0.0
H699 H 0.43809 0.85221 0.14224 0.0
H700 H 0.43255 0.87983 0.14748 0.0
H701 H 0.46455 0.88517 0.1274 0.0
H702 H 0.46293 0.90868 0.03657 0.0
H703 H 0.43097 0.90351 0.05648 0.0
H704 H 0.43528 0.89186 0.9895 0.0
H705 H 0.3747 0.78843 0.98747 0.0
H706 H 0.33562 0.78945 0.02353 0.0
H707 H 0.38692 0.86601 0.0992 0.0
C708 C 0.47374 0.86372 0.01987 0.0
C709 C 0.48119 0.84818 0.98776 0.0
C710 C 0.46138 0.8239 0.96499 0.0
C711 C 0.43455 0.81504 0.97465 0.0
C712 C 0.42791 0.83077 0.00684 0.0
C713 C 0.44693 0.85468 0.02873 0.0
C714 C 0.43459 0.86803 0.06126 0.0
C715 C 0.44295 0.8715 0.12327 0.0
C716 C 0.44134 0.89459 0.03433 0.0
C717 C 0.40564 0.84784 0.05443 0.0
C718 C 0.40218 0.82642 0.02317 0.0
C719 C 0.37716 0.80514 0.01185 0.0
C720 C 0.3551 0.80587 0.03266 0.0
C721 C 0.35821 0.82782 0.06412 0.0
C722 C 0.38387 0.84898 0.07515 0.0
H723 H 0.59581 0.47053 0.34693 0.0
H724 H 0.63187 0.45076 0.21014 0.0
H725 H 0.59712 0.40388 0.21811 0.0
H726 H 0.57598 0.41192 0.42923 0.0
H727 H 0.54527 0.4093 0.45117 0.0
H728 H 0.57324 0.4412 0.43542 0.0
H729 H 0.54528 0.44972 0.36296 0.0
H730 H 0.5172 0.41792 0.37871 0.0
H731 H 0.52876 0.42615 0.30747 0.0
H732 H 0.5584 0.35917 0.24115 0.0
H733 H 0.51727 0.32033 0.27393 0.0
H734 H 0.50634 0.36967 0.39474 0.0
C735 C 0.59646 0.45636 0.31867 0.0
C736 C 0.6166 0.4643 0.27798 0.0
C737 C 0.61662 0.44514 0.24159 0.0
C738 C 0.59702 0.41846 0.24592 0.0
C739 C 0.57754 0.41131 0.28672 0.0
C740 C 0.57703 0.42973 0.32221 0.0
C741 C 0.55356 0.41704 0.36147 0.0
C742 C 0.56256 0.42005 0.42296 0.0
C743 C 0.53511 0.42838 0.35206 0.0
C744 C 0.54087 0.38859 0.34239 0.0
C745 C 0.5551 0.38566 0.29951 0.0
C746 C 0.5471 0.36122 0.27473 0.0
C747 C 0.52372 0.33927 0.29374 0.0
C748 C 0.50855 0.34193 0.33692 0.0
C749 C 0.51749 0.36694 0.36178 0.0
H750 H 0.17589 0.63191 0.70408 0.0
H751 H 0.11949 0.62006 0.57279 0.0
H752 H 0.10574 0.57277 0.56929 0.0
H753 H 0.19567 0.58731 0.64858 0.0
H754 H 0.19869 0.57545 0.71639 0.0
H755 H 0.20388 0.60839 0.70928 0.0
H756 H 0.16817 0.59809 0.78487 0.0
H757 H 0.16278 0.56508 0.79204 0.0
H758 H 0.1355 0.57008 0.7757 0.0
H759 H 0.09824 0.52707 0.57923 0.0
H760 H 0.09829 0.48583 0.60003 0.0
H761 H 0.15954 0.52699 0.72495 0.0
C762 C 0.16065 0.61939 0.67457 0.0
C763 C 0.14878 0.62973 0.63869 0.0
C764 C 0.12892 0.61264 0.60065 0.0
C765 C 0.12091 0.58572 0.59842 0.0
C766 C 0.13294 0.57617 0.63447 0.0
C767 C 0.15242 0.59243 0.67173 0.0
C768 C 0.16238 0.57714 0.70527 0.0
C769 C 0.19191 0.5877 0.69419 0.0
C770 C 0.15687 0.57763 0.7682 0.0
C771 C 0.14552 0.54977 0.6808 0.0
C772 C 0.12862 0.54968 0.64019 0.0
C773 C 0.11135 0.52686 0.61099 0.0
C774 C 0.11155 0.50353 0.62315 0.0
C775 C 0.12892 0.50315 0.66413 0.0
C776 C 0.14595 0.5266 0.69361 0.0
H777 H 0.61647 0.15624 0.95041 0.0
H778 H 0.63476 0.18899 0.11835 0.0
H779 H 0.59645 0.19615 0.11492 0.0
H780 H 0.59151 0.19756 0.89339 0.0
H781 H 0.5654 0.17076 0.85459 0.0
H782 H 0.59579 0.17088 0.868 0.0
H783 H 0.56954 0.12469 0.91424 0.0
H784 H 0.53911 0.12441 0.90094 0.0
H785 H 0.54733 0.11981 0.97133 0.0
H786 H 0.55594 0.19923 0.09316 0.0
H787 H 0.5134 0.1935 0.05958 0.0
H788 H 0.51955 0.15513 0.90916 0.0
C789 C 0.61262 0.16534 0.98601 0.0
C790 C 0.62866 0.17247 0.03434 0.0
C791 C 0.62269 0.18357 0.08088 0.0
C792 C 0.6011 0.1878 0.07916 0.0
C793 C 0.58551 0.18039 0.03095 0.0
C794 C 0.5908 0.16907 0.98552 0.0
C795 C 0.56967 0.16066 0.9409 0.0
C796 C 0.58129 0.17588 0.88598 0.0
C797 C 0.55558 0.13061 0.93132 0.0
C798 C 0.55156 0.16886 0.96845 0.0
C799 C 0.56132 0.18069 0.01985 0.0
C800 C 0.54808 0.18998 0.05302 0.0
C801 C 0.524 0.18672 0.03352 0.0
C802 C 0.51321 0.1738 0.98192 0.0
C803 C 0.52732 0.16498 0.94889 0.0
loop_
_geom_bond_atom_site_label_1
_geom_bond_atom_site_label_2
_geom_bond_distance
_geom_bond_site_symmetry_2
_ccdc_geom_bond_type
C0 O1 1.160 . S
C0 O7 1.185 . S
O1 C0 1.160 . S
O2 Zn3 1.899 . S
O2 C10 1.284 . S
Zn3 O2 1.899 . S
Zn3 O4 2.032 . S
Zn3 O7 2.086 . S
Zn3 O12 1.977 . S
O4 Zn3 2.032 . S
O4 C8 1.278 . S
C5 O6 1.203 . S
C5 O12 1.267 . S
O6 C5 1.203 . S
O7 C0 1.185 . S
O7 Zn3 2.086 . S
C8 O4 1.278 . S
C8 O9 1.211 . S
O9 C8 1.211 . S
C10 O2 1.284 . S
C10 O11 1.273 . S
O11 C10 1.273 . S
O12 Zn3 1.977 . S
O12 C5 1.267 . S
C13 O14 1.160 . S
C13 O20 1.185 . S
O14 C13 1.160 . S
O15 Zn16 1.899 . S
O15 C23 1.284 . S
Zn16 O15 1.899 . S
Zn16 O17 2.032 . S
Zn16 O20 2.086 . S
Zn16 O25 1.977 . S
O17 Zn16 2.032 . S
O17 C21 1.278 . S
C18 O19 1.203 . S
C18 O25 1.267 . S
O19 C18 1.203 . S
O20 C13 1.185 . S
O20 Zn16 2.086 . S
C21 O17 1.278 . S
C21 O22 1.211 . S
O22 C21 1.211 . S
C23 O15 1.284 . S
C23 O24 1.273 . S
O24 C23 1.273 . S
O25 Zn16 1.977 . S
O25 C18 1.267 . S
C26 O27 1.160 . S
C26 O33 1.185 . S
O27 C26 1.160 . S
O28 Zn29 1.899 . S
O28 C36 1.284 . S
Zn29 O28 1.899 . S
Zn29 O30 2.032 . S
Zn29 O33 2.086 . S
Zn29 O38 1.977 . S
O30 Zn29 2.032 . S
O30 C34 1.278 1_556 S
C31 O32 1.202 . S
C31 O38 1.267 . S
O32 C31 1.202 . S
O33 C26 1.185 . S
O33 Zn29 2.086 . S
C34 O30 1.278 1_554 S
C34 O35 1.211 . S
O35 C34 1.211 . S
C36 O28 1.284 . S
C36 O37 1.273 1_556 S
O37 C36 1.273 1_554 S
O38 Zn29 1.977 . S
O38 C31 1.267 . S
C39 O40 1.160 . S
C39 O46 1.185 . S
O40 C39 1.160 . S
O41 Zn42 1.899 . S
O41 C49 1.284 . S
Zn42 O41 1.899 . S
Zn42 O43 2.032 . S
Zn42 O46 2.086 . S
Zn42 O51 1.977 . S
O43 Zn42 2.032 . S
O43 C47 1.278 . S
C44 O45 1.203 . S
C44 O51 1.267 . S
O45 C44 1.203 . S
O46 C39 1.185 . S
O46 Zn42 2.086 . S
C47 O43 1.278 . S
C47 O48 1.211 . S
O48 C47 1.211 . S
C49 O41 1.284 . S
C49 O50 1.273 . S
O50 C49 1.273 . S
O51 Zn42 1.977 . S
O51 C44 1.267 . S
C52 O53 1.160 . S
C52 O59 1.185 . S
O53 C52 1.160 . S
O54 Zn55 1.899 . S
O54 C62 1.284 . S
Zn55 O54 1.899 . S
Zn55 O56 2.032 . S
Zn55 O59 2.086 . S
Zn55 O64 1.977 . S
O56 Zn55 2.032 . S
O56 C60 1.278 . S
C57 O58 1.203 . S
C57 O64 1.267 . S
O58 C57 1.203 . S
O59 C52 1.185 . S
O59 Zn55 2.086 . S
C60 O56 1.278 . S
C60 O61 1.211 . S
O61 C60 1.211 . S
C62 O54 1.284 . S
C62 O63 1.273 . S
O63 C62 1.273 . S
O64 Zn55 1.977 . S
O64 C57 1.267 . S
C65 O66 1.160 . S
C65 O72 1.185 . S
O66 C65 1.160 . S
O67 Zn68 1.899 . S
O67 C75 1.284 . S
Zn68 O67 1.899 . S
Zn68 O69 2.032 . S
Zn68 O72 2.086 . S
Zn68 O77 1.977 . S
O69 Zn68 2.032 . S
O69 C73 1.278 1_556 S
C70 O71 1.202 . S
C70 O77 1.267 . S
O71 C70 1.202 . S
O72 C65 1.185 . S
O72 Zn68 2.086 . S
C73 O69 1.278 1_554 S
C73 O74 1.211 . S
O74 C73 1.211 . S
C75 O67 1.284 . S
C75 O76 1.273 1_556 S
O76 C75 1.273 1_554 S
O77 Zn68 1.977 . S
O77 C70 1.267 . S
C78 O79 1.160 . S
C78 O85 1.185 . S
O79 C78 1.160 . S
O80 Zn81 1.899 . S
O80 C88 1.284 . S
Zn81 O80 1.899 . S
Zn81 O82 2.032 . S
Zn81 O85 2.086 . S
Zn81 O90 1.977 . S
O82 Zn81 2.032 . S
O82 C86 1.278 . S
C83 O84 1.203 . S
C83 O90 1.267 . S
O84 C83 1.203 . S
O85 C78 1.185 . S
O85 Zn81 2.086 . S
C86 O82 1.278 . S
C86 O87 1.211 . S
O87 C86 1.211 . S
C88 O80 1.284 . S
C88 O89 1.273 . S
O89 C88 1.273 . S
O90 Zn81 1.977 . S
O90 C83 1.267 . S
C91 O92 1.160 . S
C91 O98 1.185 . S
O92 C91 1.160 . S
O93 Zn94 1.899 . S
O93 C101 1.284 . S
Zn94 O93 1.899 . S
Zn94 O95 2.032 . S
Zn94 O98 2.086 . S
Zn94 O103 1.977 . S
O95 Zn94 2.032 . S
O95 C99 1.278 . S
C96 O97 1.203 . S
C96 O103 1.267 . S
O97 C96 1.203 . S
O98 C91 1.185 . S
O98 Zn94 2.086 . S
C99 O95 1.278 . S
C99 O100 1.211 . S
O100 C99 1.211 . S
C101 O93 1.284 . S
C101 O102 1.273 . S
O102 C101 1.273 . S
O103 Zn94 1.977 . S
O103 C96 1.267 . S
C104 O105 1.160 . S
C104 O111 1.185 . S
O105 C104 1.160 . S
O106 Zn107 1.899 . S
O106 C114 1.284 . S
Zn107 O106 1.899 . S
Zn107 O108 2.032 . S
Zn107 O111 2.086 . S
Zn107 O116 1.977 . S
O108 Zn107 2.032 . S
O108 C112 1.278 1_554 S
C109 O110 1.202 . S
C109 O116 1.267 . S
O110 C109 1.202 . S
O111 C104 1.185 . S
O111 Zn107 2.086 . S
C112 O108 1.278 1_556 S
C112 O113 1.211 . S
O113 C112 1.211 . S
C114 O106 1.284 . S
C114 O115 1.273 1_554 S
O115 C114 1.273 1_556 S
O116 Zn107 1.977 . S
O116 C109 1.267 . S
C117 O118 1.160 . S
C117 O124 1.185 . S
O118 C117 1.160 . S
O119 Zn120 1.899 . S
O119 C127 1.284 . S
Zn120 O119 1.899 . S
Zn120 O121 2.032 . S
Zn120 O124 2.086 . S
Zn120 O129 1.977 . S
O121 Zn120 2.032 . S
O121 C125 1.278 . S
C122 O123 1.203 . S
C122 O129 1.267 . S
O123 C122 1.203 . S
O124 C117 1.185 . S
O124 Zn120 2.086 . S
C125 O121 1.278 . S
C125 O126 1.211 . S
O126 C125 1.211 . S
C127 O119 1.284 . S
C127 O128 1.273 . S
O128 C127 1.273 . S
O129 Zn120 1.977 . S
O129 C122 1.267 . S
C130 O131 1.160 . S
C130 O137 1.185 . S
O131 C130 1.160 . S
O132 Zn133 1.899 . S
O132 C140 1.284 . S
Zn133 O132 1.899 . S
Zn133 O134 2.032 . S
Zn133 O137 2.086 . S
Zn133 O142 1.977 . S
O134 Zn133 2.032 . S
O134 C138 1.278 . S
C135 O136 1.203 . S
C135 O142 1.267 . S
O136 C135 1.203 . S
O137 C130 1.185 . S
O137 Zn133 2.086 . S
C138 O134 1.278 . S
C138 O139 1.211 . S
O139 C138 1.211 . S
C140 O132 1.284 . S
C140 O141 1.273 . S
O141 C140 1.273 . S
O142 Zn133 1.977 . S
O142 C135 1.267 . S
C143 O144 1.160 . S
C143 O150 1.185 . S
O144 C143 1.160 . S
O145 Zn146 1.899 . S
O145 C153 1.284 . S
Zn146 O145 1.899 . S
Zn146 O147 2.032 . S
Zn146 O150 2.086 . S
Zn146 O155 1.977 . S
O147 Zn146 2.032 . S
O147 C151 1.278 1_554 S
C148 O149 1.202 . S
C148 O155 1.267 . S
O149 C148 1.202 . S
O150 C143 1.185 . S
O150 Zn146 2.086 . S
C151 O147 1.278 1_556 S
C151 O152 1.211 . S
O152 C151 1.211 . S
C153 O145 1.284 . S
C153 O154 1.273 1_554 S
O154 C153 1.273 1_556 S
O155 Zn146 1.977 . S
O155 C148 1.267 . S
H156 C168 0.930 . S
H157 C170 0.930 . S
H158 C171 0.930 . S
H159 C175 0.959 . S
H160 C175 0.959 . S
H161 C175 0.961 . S
H162 C176 0.960 . S
H163 C176 0.961 . S
H164 C176 0.959 . S
H165 C179 0.929 . S
H166 C180 0.931 . S
H167 C182 0.930 . S
C168 H156 0.930 . S
C168 C169 1.399 . S
C168 C173 1.399 . S
C169 C168 1.399 . S
C169 C170 1.376 . S
C170 H157 0.930 . S
C170 C169 1.376 . S
C170 C171 1.388 . S
C171 H158 0.930 . S
C171 C170 1.388 . S
C171 C172 1.390 . S
C172 C171 1.390 . S
C172 C173 1.394 . S
C172 C178 1.465 . S
C173 C168 1.399 . S
C173 C172 1.394 . S
C173 C174 1.516 . S
C174 C173 1.516 . S
C174 C175 1.502 . S
C174 C176 1.561 . S
C174 C177 1.526 . S
C175 H159 0.959 . S
C175 H160 0.959 . S
C175 H161 0.961 . S
C175 C174 1.502 . S
C176 H162 0.960 . S
C176 H163 0.961 . S
C176 H164 0.959 . S
C176 C174 1.561 . S
C177 C174 1.526 . S
C177 C178 1.396 . S
C177 C182 1.390 . S
C178 C172 1.465 . S
C178 C177 1.396 . S
C178 C179 1.399 . S
C179 H165 0.929 . S
C179 C178 1.399 . S
C179 C180 1.385 . S
C180 H166 0.931 . S
C180 C179 1.385 . S
C180 C181 1.389 . S
C181 C180 1.389 . S
C181 C182 1.387 . S
C182 H167 0.930 . S
C182 C177 1.390 . S
C182 C181 1.387 . S
H183 C195 0.930 . S
H184 C197 0.930 . S
H185 C198 0.930 . S
H186 C202 0.959 . S
H187 C202 0.959 1_455 S
H188 C202 0.961 . S
H189 C203 0.960 . S
H190 C203 0.961 1_455 S
H191 C203 0.959 . S
H192 C206 0.929 . S
H193 C207 0.931 . S
H194 C209 0.930 . S
C195 H183 0.930 . S
C195 C196 1.399 . S
C195 C200 1.399 . S
C196 C195 1.399 . S
C196 C197 1.376 . S
C197 H184 0.930 . S
C197 C196 1.376 . S
C197 C198 1.388 . S
C198 H185 0.930 . S
C198 C197 1.388 . S
C198 C199 1.390 . S
C199 C198 1.390 . S
C199 C200 1.394 . S
C199 C205 1.465 1_655 S
C200 C195 1.399 . S
C200 C199 1.394 . S
C200 C201 1.516 . S
C201 C200 1.516 . S
C201 C202 1.502 . S
C201 C203 1.561 . S
C201 C204 1.526 1_655 S
C202 H186 0.959 . S
C202 H187 0.959 1_655 S
C202 H188 0.961 . S
C202 C201 1.502 . S
C203 H189 0.960 . S
C203 H190 0.961 1_655 S
C203 H191 0.959 . S
C203 C201 1.561 . S
C204 C201 1.526 1_455 S
C204 C205 1.396 . S
C204 C209 1.390 . S
C205 C199 1.465 1_455 S
C205 C204 1.396 . S
C205 C206 1.399 . S
C206 H192 0.929 . S
C206 C205 1.399 . S
C206 C207 1.385 . S
C207 H193 0.931 . S
C207 C206 1.385 . S
C207 C208 1.389 . S
C208 C207 1.389 . S
C208 C209 1.387 . S
C209 H194 0.930 . S
C209 C204 1.390 . S
C209 C208 1.387 . S
H210 C222 0.930 . S
H211 C224 0.930 . S
H212 C225 0.930 . S
H213 C229 0.959 . S
H214 C229 0.959 1_545 S
H215 C229 0.961 . S
H216 C230 0.960 . S
H217 C230 0.961 1_545 S
H218 C230 0.959 . S
H219 C233 0.929 . S
H220 C234 0.931 . S
H221 C236 0.930 . S
C222 H210 0.930 . S
C222 C223 1.399 1_554 S
C222 C227 1.399 . S
C223 C222 1.399 1_556 S
C223 C224 1.376 . S
C224 H211 0.930 . S
C224 C223 1.376 . S
C224 C225 1.388 . S
C225 H212 0.930 . S
C225 C224 1.388 . S
C225 C226 1.390 . S
C226 C225 1.390 . S
C226 C227 1.394 1_556 S
C226 C232 1.465 1_565 S
C227 C222 1.399 . S
C227 C226 1.394 1_554 S
C227 C228 1.516 . S
C228 C227 1.516 . S
C228 C229 1.502 . S
C228 C230 1.561 . S
C228 C231 1.526 1_565 S
C229 H213 0.959 . S
C229 H214 0.959 1_565 S
C229 H215 0.961 . S
C229 C228 1.502 . S
C230 H216 0.960 . S
C230 H217 0.961 1_565 S
C230 H218 0.959 . S
C230 C228 1.561 . S
C231 C228 1.526 1_545 S
C231 C232 1.396 1_554 S
C231 C236 1.390 . S
C232 C226 1.465 1_545 S
C232 C231 1.396 1_556 S
C232 C233 1.399 . S
C233 H219 0.929 . S
C233 C232 1.399 . S
C233 C234 1.385 . S
C234 H220 0.931 . S
C234 C233 1.385 . S
C234 C235 1.389 1_556 S
C235 C234 1.389 1_554 S
C235 C236 1.387 . S
C236 H221 0.930 . S
C236 C231 1.390 . S
C236 C235 1.387 . S
H237 C249 0.930 . S
H238 C251 0.930 . S
H239 C252 0.930 . S
H240 C256 0.959 . S
H241 C256 0.959 . S
H242 C256 0.961 . S
H243 C257 0.960 . S
H244 C257 0.961 . S
H245 C257 0.959 . S
H246 C260 0.929 . S
H247 C261 0.931 . S
H248 C263 0.930 . S
C249 H237 0.930 . S
C249 C250 1.399 . S
C249 C254 1.399 . S
C250 C249 1.399 . S
C250 C251 1.376 . S
C251 H238 0.930 . S
C251 C250 1.376 . S
C251 C252 1.388 . S
C252 H239 0.930 . S
C252 C251 1.388 . S
C252 C253 1.390 . S
C253 C252 1.390 . S
C253 C254 1.394 . S
C253 C259 1.465 . S
C254 C249 1.399 . S
C254 C253 1.394 . S
C254 C255 1.516 . S
C255 C254 1.516 . S
C255 C256 1.502 . S
C255 C257 1.561 . S
C255 C258 1.526 . S
C256 H240 0.959 . S
C256 H241 0.959 . S
C256 H242 0.961 . S
C256 C255 1.502 . S
C257 H243 0.960 . S
C257 H244 0.961 . S
C257 H245 0.959 . S
C257 C255 1.561 . S
C258 C255 1.526 . S
C258 C259 1.396 . S
C258 C263 1.390 . S
C259 C253 1.465 . S
C259 C258 1.396 . S
C259 C260 1.399 . S
C260 H246 0.929 . S
C260 C259 1.399 . S
C260 C261 1.385 . S
C261 H247 0.931 . S
C261 C260 1.385 . S
C261 C262 1.389 . S
C262 C261 1.389 . S
C262 C263 1.387 . S
C263 H248 0.930 . S
C263 C258 1.390 . S
C263 C262 1.387 . S
H264 C276 0.930 . S
H265 C278 0.930 . S
H266 C279 0.930 . S
H267 C283 0.957 1_455 S
H268 C283 0.959 1_455 S
H269 C283 0.961 . S
H270 C284 0.960 . S
H271 C284 0.961 1_455 S
H272 C284 0.959 . S
H273 C287 0.929 . S
H274 C288 0.931 . S
H275 C290 0.930 . S
C276 H264 0.930 . S
C276 C277 1.399 . S
C276 C281 1.399 . S
C277 C276 1.399 . S
C277 C278 1.376 . S
C278 H265 0.930 . S
C278 C277 1.376 . S
C278 C279 1.388 . S
C279 H266 0.930 . S
C279 C278 1.388 . S
C279 C280 1.390 . S
C280 C279 1.390 . S
C280 C281 1.394 . S
C280 C286 1.465 1_655 S
C281 C276 1.399 . S
C281 C280 1.394 . S
C281 C282 1.516 . S
C282 C281 1.516 . S
C282 C283 1.502 . S
C282 C284 1.561 . S
C282 C285 1.526 1_655 S
C283 H267 0.957 1_655 S
C283 H268 0.959 1_655 S
C283 H269 0.961 . S
C283 C282 1.502 . S
C284 H270 0.960 . S
C284 H271 0.961 1_655 S
C284 H272 0.959 . S
C284 C282 1.561 . S
C285 C282 1.526 1_455 S
C285 C286 1.396 . S
C285 C290 1.390 . S
C286 C280 1.465 1_455 S
C286 C285 1.396 . S
C286 C287 1.399 . S
C287 H273 0.929 . S
C287 C286 1.399 . S
C287 C288 1.385 . S
C288 H274 0.931 . S
C288 C287 1.385 . S
C288 C289 1.389 . S
C289 C288 1.389 . S
C289 C290 1.387 . S
C290 H275 0.930 . S
C290 C285 1.390 . S
C290 C289 1.387 . S
H291 C303 0.930 . S
H292 C305 0.930 . S
H293 C306 0.930 . S
H294 C310 0.959 . S
H295 C310 0.959 1_545 S
H296 C310 0.961 . S
H297 C311 0.960 . S
H298 C311 0.961 1_545 S
H299 C311 0.959 . S
H300 C314 0.929 . S
H301 C315 0.931 . S
H302 C317 0.930 . S
C303 H291 0.930 . S
C303 C304 1.399 1_556 S
C303 C308 1.399 . S
C304 C303 1.399 1_554 S
C304 C305 1.376 . S
C305 H292 0.930 . S
C305 C304 1.376 . S
C305 C306 1.388 . S
C306 H293 0.930 . S
C306 C305 1.388 . S
C306 C307 1.390 . S
C307 C306 1.390 . S
C307 C308 1.394 1_554 S
C307 C313 1.465 1_565 S
C308 C303 1.399 . S
C308 C307 1.394 1_556 S
C308 C309 1.516 . S
C309 C308 1.516 . S
C309 C310 1.502 . S
C309 C311 1.561 . S
C309 C312 1.526 1_565 S
C310 H294 0.959 . S
C310 H295 0.959 1_565 S
C310 H296 0.961 . S
C310 C309 1.502 . S
C311 H297 0.960 . S
C311 H298 0.961 1_565 S
C311 H299 0.959 . S
C311 C309 1.561 . S
C312 C309 1.526 1_545 S
C312 C313 1.396 1_556 S
C312 C317 1.390 . S
C313 C307 1.465 1_545 S
C313 C312 1.396 1_554 S
C313 C314 1.399 . S
C314 H300 0.929 . S
C314 C313 1.399 . S
C314 C315 1.385 . S
C315 H301 0.931 . S
C315 C314 1.385 . S
C315 C316 1.389 1_554 S
C316 C315 1.389 1_556 S
C316 C317 1.387 . S
C317 H302 0.930 . S
C317 C312 1.390 . S
C317 C316 1.387 . S
H318 C330 0.930 . S
H319 C332 0.930 . S
H320 C333 0.930 . S
H321 C337 0.959 . S
H322 C337 0.959 . S
H323 C337 0.961 . S
H324 C338 0.960 . S
H325 C338 0.961 1_554 S
H326 C338 0.959 . S
H327 C341 0.929 . S
H328 C342 0.931 . S
H329 C344 0.930 . S
C330 H318 0.930 . S
C330 C331 1.399 . S
C330 C335 1.399 . S
C331 C330 1.399 . S
C331 C332 1.376 . S
C332 H319 0.930 . S
C332 C331 1.376 . S
C332 C333 1.388 . S
C333 H320 0.930 . S
C333 C332 1.388 . S
C333 C334 1.390 . S
C334 C333 1.390 . S
C334 C335 1.394 . S
C334 C340 1.465 1_556 S
C335 C330 1.399 . S
C335 C334 1.394 . S
C335 C336 1.516 1_556 S
C336 C335 1.516 1_554 S
C336 C337 1.502 . S
C336 C338 1.561 1_554 S
C336 C339 1.526 . S
C337 H321 0.959 . S
C337 H322 0.959 . S
C337 H323 0.961 . S
C337 C336 1.502 . S
C338 H324 0.960 . S
C338 H325 0.961 1_556 S
C338 H326 0.959 . S
C338 C336 1.561 1_556 S
C339 C336 1.526 . S
C339 C340 1.396 . S
C339 C344 1.390 . S
C340 C334 1.465 1_554 S
C340 C339 1.396 . S
C340 C341 1.399 . S
C341 H327 0.929 . S
C341 C340 1.399 . S
C341 C342 1.385 . S
C342 H328 0.931 . S
C342 C341 1.385 . S
C342 C343 1.389 . S
C343 C342 1.389 . S
C343 C344 1.387 . S
C344 H329 0.930 . S
C344 C339 1.390 . S
C344 C343 1.387 . S
H345 C357 0.930 . S
H346 C359 0.930 . S
H347 C360 0.930 . S
H348 C364 0.959 . S
H349 C364 0.959 . S
H350 C364 0.961 . S
H351 C365 0.960 . S
H352 C365 0.961 . S
H353 C365 0.959 . S
H354 C368 0.929 . S
H355 C369 0.931 . S
H356 C371 0.930 . S
C357 H345 0.930 . S
C357 C358 1.399 . S
C357 C362 1.399 . S
C358 C357 1.399 . S
C358 C359 1.376 . S
C359 H346 0.930 . S
C359 C358 1.376 . S
C359 C360 1.388 . S
C360 H347 0.930 . S
C360 C359 1.388 . S
C360 C361 1.390 . S
C361 C360 1.390 . S
C361 C362 1.394 . S
C361 C367 1.465 . S
C362 C357 1.399 . S
C362 C361 1.394 . S
C362 C363 1.516 . S
C363 C362 1.516 . S
C363 C364 1.502 . S
C363 C365 1.561 . S
C363 C366 1.526 . S
C364 H348 0.959 . S
C364 H349 0.959 . S
C364 H350 0.961 . S
C364 C363 1.502 . S
C365 H351 0.960 . S
C365 H352 0.961 . S
C365 H353 0.959 . S
C365 C363 1.561 . S
C366 C363 1.526 . S
C366 C367 1.396 . S
C366 C371 1.390 . S
C367 C361 1.465 . S
C367 C366 1.396 . S
C367 C368 1.399 . S
C368 H354 0.929 . S
C368 C367 1.399 . S
C368 C369 1.385 . S
C369 H355 0.931 . S
C369 C368 1.385 . S
C369 C370 1.389 . S
C370 C369 1.389 . S
C370 C371 1.387 . S
C371 H356 0.930 . S
C371 C366 1.390 . S
C371 C370 1.387 . S
H372 C384 0.930 . S
H373 C386 0.930 . S
H374 C387 0.930 . S
H375 C391 0.959 . S
H376 C391 0.959 . S
H377 C391 0.961 . S
H378 C392 0.960 . S
H379 C392 0.961 . S
H380 C392 0.959 . S
H381 C395 0.929 . S
H382 C396 0.931 . S
H383 C398 0.930 . S
C384 H372 0.930 . S
C384 C385 1.399 . S
C384 C389 1.399 . S
C385 C384 1.399 . S
C385 C386 1.376 . S
C386 H373 0.930 . S
C386 C385 1.376 . S
C386 C387 1.388 . S
C387 H374 0.930 . S
C387 C386 1.388 . S
C387 C388 1.390 . S
C388 C387 1.390 . S
C388 C389 1.394 . S
C388 C394 1.465 . S
C389 C384 1.399 . S
C389 C388 1.394 . S
C389 C390 1.516 . S
C390 C389 1.516 . S
C390 C391 1.502 . S
C390 C392 1.561 . S
C390 C393 1.526 . S
C391 H375 0.959 . S
C391 H376 0.959 . S
C391 H377 0.961 . S
C391 C390 1.502 . S
C392 H378 0.960 . S
C392 H379 0.961 . S
C392 H380 0.959 . S
C392 C390 1.561 . S
C393 C390 1.526 . S
C393 C394 1.396 . S
C393 C398 1.390 . S
C394 C388 1.465 . S
C394 C393 1.396 . S
C394 C395 1.399 . S
C395 H381 0.929 . S
C395 C394 1.399 . S
C395 C396 1.385 . S
C396 H382 0.931 . S
C396 C395 1.385 . S
C396 C397 1.389 . S
C397 C396 1.389 . S
C397 C398 1.387 . S
C398 H383 0.930 . S
C398 C393 1.390 . S
C398 C397 1.387 . S
H399 C411 0.930 . S
H400 C413 0.930 . S
H401 C414 0.930 . S
H402 C418 0.959 . S
H403 C418 0.959 . S
H404 C418 0.961 . S
H405 C419 0.960 1_554 S
H406 C419 0.961 . S
H407 C419 0.959 . S
H408 C422 0.929 . S
H409 C423 0.931 . S
H410 C425 0.930 . S
C411 H399 0.930 . S
C411 C412 1.399 . S
C411 C416 1.399 . S
C412 C411 1.399 . S
C412 C413 1.376 . S
C413 H400 0.930 . S
C413 C412 1.376 . S
C413 C414 1.388 . S
C414 H401 0.930 . S
C414 C413 1.388 . S
C414 C415 1.390 . S
C415 C414 1.390 . S
C415 C416 1.394 . S
C415 C421 1.465 1_554 S
C416 C411 1.399 . S
C416 C415 1.394 . S
C416 C417 1.516 . S
C417 C416 1.516 . S
C417 C418 1.502 . S
C417 C419 1.561 1_554 S
C417 C420 1.526 1_554 S
C418 H402 0.959 . S
C418 H403 0.959 . S
C418 H404 0.961 . S
C418 C417 1.502 . S
C419 H405 0.960 1_556 S
C419 H406 0.961 . S
C419 H407 0.959 . S
C419 C417 1.561 1_556 S
C420 C417 1.526 1_556 S
C420 C421 1.396 . S
C420 C425 1.390 . S
C421 C415 1.465 1_556 S
C421 C420 1.396 . S
C421 C422 1.399 . S
C422 H408 0.929 . S
C422 C421 1.399 . S
C422 C423 1.385 . S
C423 H409 0.931 . S
C423 C422 1.385 . S
C423 C424 1.389 . S
C424 C423 1.389 . S
C424 C425 1.387 . S
C425 H410 0.930 . S
C425 C420 1.390 . S
C425 C424 1.387 . S
H426 C438 0.930 . S
H427 C440 0.930 . S
H428 C441 0.930 . S
H429 C445 0.959 . S
H430 C445 0.959 . S
H431 C445 0.961 . S
H432 C446 0.960 . S
H433 C446 0.961 . S
H434 C446 0.959 . S
H435 C449 0.929 . S
H436 C450 0.931 . S
H437 C452 0.930 . S
C438 H426 0.930 . S
C438 C439 1.399 . S
C438 C443 1.399 . S
C439 C438 1.399 . S
C439 C440 1.376 . S
C440 H427 0.930 . S
C440 C439 1.376 . S
C440 C441 1.388 . S
C441 H428 0.930 . S
C441 C440 1.388 . S
C441 C442 1.390 . S
C442 C441 1.390 . S
C442 C443 1.394 . S
C442 C448 1.465 . S
C443 C438 1.399 . S
C443 C442 1.394 . S
C443 C444 1.516 . S
C444 C443 1.516 . S
C444 C445 1.502 . S
C444 C446 1.561 . S
C444 C447 1.526 . S
C445 H429 0.959 . S
C445 H430 0.959 . S
C445 H431 0.961 . S
C445 C444 1.502 . S
C446 H432 0.960 . S
C446 H433 0.961 . S
C446 H434 0.959 . S
C446 C444 1.561 . S
C447 C444 1.526 . S
C447 C448 1.396 . S
C447 C452 1.390 . S
C448 C442 1.465 . S
C448 C447 1.396 . S
C448 C449 1.399 . S
C449 H435 0.929 . S
C449 C448 1.399 . S
C449 C450 1.385 . S
C450 H436 0.931 . S
C450 C449 1.385 . S
C450 C451 1.389 . S
C451 C450 1.389 . S
C451 C452 1.387 . S
C452 H437 0.930 . S
C452 C447 1.390 . S
C452 C451 1.387 . S
H453 C465 0.930 . S
H454 C467 0.930 . S
H455 C468 0.930 . S
H456 C472 0.959 . S
H457 C472 0.959 . S
H458 C472 0.961 . S
H459 C473 0.960 . S
H460 C473 0.961 . S
H461 C473 0.959 . S
H462 C476 0.929 . S
H463 C477 0.931 . S
H464 C479 0.930 . S
C465 H453 0.930 . S
C465 C466 1.399 . S
C465 C470 1.399 . S
C466 C465 1.399 . S
C466 C467 1.376 . S
C467 H454 0.930 . S
C467 C466 1.376 . S
C467 C468 1.388 . S
C468 H455 0.930 . S
C468 C467 1.388 . S
C468 C469 1.390 . S
C469 C468 1.390 . S
C469 C470 1.394 . S
C469 C475 1.465 . S
C470 C465 1.399 . S
C470 C469 1.394 . S
C470 C471 1.516 . S
C471 C470 1.516 . S
C471 C472 1.502 . S
C471 C473 1.561 . S
C471 C474 1.526 . S
C472 H456 0.959 . S
C472 H457 0.959 . S
C472 H458 0.961 . S
C472 C471 1.502 . S
C473 H459 0.960 . S
C473 H460 0.961 . S
C473 H461 0.959 . S
C473 C471 1.561 . S
C474 C471 1.526 . S
C474 C475 1.396 . S
C474 C479 1.390 . S
C475 C469 1.465 . S
C475 C474 1.396 . S
C475 C476 1.399 . S
C476 H462 0.929 . S
C476 C475 1.399 . S
C476 C477 1.385 . S
C477 H463 0.931 . S
C477 C476 1.385 . S
C477 C478 1.389 . S
C478 C477 1.389 . S
C478 C479 1.387 . S
C479 H464 0.930 . S
C479 C474 1.390 . S
C479 C478 1.387 . S
H480 C492 0.930 . S
H481 C494 0.930 . S
H482 C495 0.930 . S
H483 C499 0.959 . S
H484 C499 0.959 . S
H485 C499 0.961 . S
H486 C500 0.960 . S
H487 C500 0.961 . S
H488 C500 0.959 . S
H489 C503 0.929 . S
H490 C504 0.931 . S
H491 C506 0.930 . S
C492 H480 0.930 . S
C492 C493 1.399 . S
C492 C497 1.399 . S
C493 C492 1.399 . S
C493 C494 1.376 . S
C494 H481 0.930 . S
C494 C493 1.376 . S
C494 C495 1.388 . S
C495 H482 0.930 . S
C495 C494 1.388 . S
C495 C496 1.390 . S
C496 C495 1.390 . S
C496 C497 1.394 . S
C496 C502 1.465 . S
C497 C492 1.399 . S
C497 C496 1.394 . S
C497 C498 1.516 . S
C498 C497 1.516 . S
C498 C499 1.502 . S
C498 C500 1.561 . S
C498 C501 1.526 . S
C499 H483 0.959 . S
C499 H484 0.959 . S
C499 H485 0.961 . S
C499 C498 1.502 . S
C500 H486 0.960 . S
C500 H487 0.961 . S
C500 H488 0.959 . S
C500 C498 1.561 . S
C501 C498 1.526 . S
C501 C502 1.396 . S
C501 C506 1.390 . S
C502 C496 1.465 . S
C502 C501 1.396 . S
C502 C503 1.399 . S
C503 H489 0.929 . S
C503 C502 1.399 . S
C503 C504 1.385 . S
C504 H490 0.931 . S
C504 C503 1.385 . S
C504 C505 1.389 . S
C505 C504 1.389 . S
C505 C506 1.387 . S
C506 H491 0.930 . S
C506 C501 1.390 . S
C506 C505 1.387 . S
H507 C519 0.930 . S
H508 C521 0.930 . S
H509 C522 0.930 . S
H510 C526 0.959 . S
H511 C526 0.959 . S
H512 C526 0.961 . S
H513 C527 0.960 . S
H514 C527 0.961 . S
H515 C527 0.959 . S
H516 C530 0.929 . S
H517 C531 0.931 . S
H518 C533 0.930 . S
C519 H507 0.930 . S
C519 C520 1.399 . S
C519 C524 1.399 . S
C520 C519 1.399 . S
C520 C521 1.376 . S
C521 H508 0.930 . S
C521 C520 1.376 . S
C521 C522 1.388 . S
C522 H509 0.930 . S
C522 C521 1.388 . S
C522 C523 1.390 . S
C523 C522 1.390 . S
C523 C524 1.394 . S
C523 C529 1.465 . S
C524 C519 1.399 . S
C524 C523 1.394 . S
C524 C525 1.516 . S
C525 C524 1.516 . S
C525 C526 1.502 . S
C525 C527 1.561 . S
C525 C528 1.526 . S
C526 H510 0.959 . S
C526 H511 0.959 . S
C526 H512 0.961 . S
C526 C525 1.502 . S
C527 H513 0.960 . S
C527 H514 0.961 . S
C527 H515 0.959 . S
C527 C525 1.561 . S
C528 C525 1.526 . S
C528 C529 1.396 . S
C528 C533 1.390 . S
C529 C523 1.465 . S
C529 C528 1.396 . S
C529 C530 1.399 . S
C530 H516 0.929 . S
C530 C529 1.399 . S
C530 C531 1.385 . S
C531 H517 0.931 . S
C531 C530 1.385 . S
C531 C532 1.389 . S
C532 C531 1.389 . S
C532 C533 1.387 . S
C533 H518 0.930 . S
C533 C528 1.390 . S
C533 C532 1.387 . S
H534 C546 0.930 . S
H535 C548 0.930 . S
H536 C549 0.930 . S
H537 C553 0.959 . S
H538 C553 0.959 . S
H539 C553 0.961 . S
H540 C554 0.960 . S
H541 C554 0.961 . S
H542 C554 0.959 . S
H543 C557 0.929 . S
H544 C558 0.931 . S
H545 C560 0.930 . S
C546 H534 0.930 . S
C546 C547 1.399 . S
C546 C551 1.399 . S
C547 C546 1.399 . S
C547 C548 1.376 . S
C548 H535 0.930 . S
C548 C547 1.376 . S
C548 C549 1.388 . S
C549 H536 0.930 . S
C549 C548 1.388 . S
C549 C550 1.390 . S
C550 C549 1.390 . S
C550 C551 1.394 . S
C550 C556 1.465 . S
C551 C546 1.399 . S
C551 C550 1.394 . S
C551 C552 1.516 . S
C552 C551 1.516 . S
C552 C553 1.502 . S
C552 C554 1.561 . S
C552 C555 1.526 . S
C553 H537 0.959 . S
C553 H538 0.959 . S
C553 H539 0.961 . S
C553 C552 1.502 . S
C554 H540 0.960 . S
C554 H541 0.961 . S
C554 H542 0.959 . S
C554 C552 1.561 . S
C555 C552 1.526 . S
C555 C556 1.396 . S
C555 C560 1.390 . S
C556 C550 1.465 . S
C556 C555 1.396 . S
C556 C557 1.399 . S
C557 H543 0.929 . S
C557 C556 1.399 . S
C557 C558 1.385 . S
C558 H544 0.931 . S
C558 C557 1.385 . S
C558 C559 1.389 . S
C559 C558 1.389 . S
C559 C560 1.387 . S
C560 H545 0.930 . S
C560 C555 1.390 . S
C560 C559 1.387 . S
H561 C573 0.930 . S
H562 C575 0.930 . S
H563 C576 0.930 . S
H564 C580 0.959 . S
H565 C580 0.959 . S
H566 C580 0.961 . S
H567 C581 0.960 . S
H568 C581 0.961 . S
H569 C581 0.959 . S
H570 C584 0.929 . S
H571 C585 0.931 . S
H572 C587 0.930 . S
C573 H561 0.930 . S
C573 C574 1.399 . S
C573 C578 1.399 . S
C574 C573 1.399 . S
C574 C575 1.376 . S
C575 H562 0.930 . S
C575 C574 1.376 . S
C575 C576 1.388 . S
C576 H563 0.930 . S
C576 C575 1.388 . S
C576 C577 1.390 . S
C577 C576 1.390 . S
C577 C578 1.394 . S
C577 C583 1.465 . S
C578 C573 1.399 . S
C578 C577 1.394 . S
C578 C579 1.516 . S
C579 C578 1.516 . S
C579 C580 1.502 . S
C579 C581 1.561 . S
C579 C582 1.526 . S
C580 H564 0.959 . S
C580 H565 0.959 . S
C580 H566 0.961 . S
C580 C579 1.502 . S
C581 H567 0.960 . S
C581 H568 0.961 . S
C581 H569 0.959 . S
C581 C579 1.561 . S
C582 C579 1.526 . S
C582 C583 1.396 . S
C582 C587 1.390 . S
C583 C577 1.465 . S
C583 C582 1.396 . S
C583 C584 1.399 . S
C584 H570 0.929 . S
C584 C583 1.399 . S
C584 C585 1.385 . S
C585 H571 0.931 . S
C585 C584 1.385 . S
C585 C586 1.389 . S
C586 C585 1.389 . S
C586 C587 1.387 . S
C587 H572 0.930 . S
C587 C582 1.390 . S
C587 C586 1.387 . S
H588 C600 0.930 . S
H589 C602 0.930 . S
H590 C603 0.930 . S
H591 C607 0.959 . S
H592 C607 0.959 . S
H593 C607 0.961 . S
H594 C608 0.960 . S
H595 C608 0.961 . S
H596 C608 0.959 . S
H597 C611 0.929 . S
H598 C612 0.922 1_554 S
H599 C614 0.930 . S
C600 H588 0.930 . S
C600 C601 1.399 . S
C600 C605 1.399 . S
C601 C600 1.399 . S
C601 C602 1.376 . S
C602 H589 0.930 . S
C602 C601 1.376 . S
C602 C603 1.388 . S
C603 H590 0.930 . S
C603 C602 1.388 . S
C603 C604 1.390 . S
C604 C603 1.390 . S
C604 C605 1.394 . S
C604 C610 1.465 . S
C605 C600 1.399 . S
C605 C604 1.394 . S
C605 C606 1.516 . S
C606 C605 1.516 . S
C606 C607 1.502 . S
C606 C608 1.561 . S
C606 C609 1.526 . S
C607 H591 0.959 . S
C607 H592 0.959 . S
C607 H593 0.961 . S
C607 C606 1.502 . S
C608 H594 0.960 . S
C608 H595 0.961 . S
C608 H596 0.959 . S
C608 C606 1.561 . S
C609 C606 1.526 . S
C609 C610 1.396 . S
C609 C614 1.390 . S
C610 C604 1.465 . S
C610 C609 1.396 . S
C610 C611 1.399 . S
C611 H597 0.929 . S
C611 C610 1.399 . S
C611 C612 1.385 . S
C612 H598 0.922 1_556 S
C612 C611 1.385 . S
C612 C613 1.389 . S
C613 C612 1.389 . S
C613 C614 1.387 . S
C614 H599 0.930 . S
C614 C609 1.390 . S
C614 C613 1.387 . S
H615 C627 0.930 . S
H616 C629 0.930 1_556 S
H617 C630 0.930 . S
H618 C634 0.959 . S
H619 C634 0.959 . S
H620 C634 0.961 . S
H621 C635 0.960 . S
H622 C635 0.961 . S
H623 C635 0.959 . S
H624 C638 0.929 . S
H625 C639 0.931 . S
H626 C641 0.930 . S
C627 H615 0.930 . S
C627 C628 1.399 . S
C627 C632 1.399 . S
C628 C627 1.399 . S
C628 C629 1.376 . S
C629 H616 0.930 1_554 S
C629 C628 1.376 . S
C629 C630 1.388 . S
C630 H617 0.930 . S
C630 C629 1.388 . S
C630 C631 1.390 . S
C631 C630 1.390 . S
C631 C632 1.394 . S
C631 C637 1.465 . S
C632 C627 1.399 . S
C632 C631 1.394 . S
C632 C633 1.516 . S
C633 C632 1.516 . S
C633 C634 1.502 . S
C633 C635 1.561 . S
C633 C636 1.526 . S
C634 H618 0.959 . S
C634 H619 0.959 . S
C634 H620 0.961 . S
C634 C633 1.502 . S
C635 H621 0.960 . S
C635 H622 0.961 . S
C635 H623 0.959 . S
C635 C633 1.561 . S
C636 C633 1.526 . S
C636 C637 1.396 . S
C636 C641 1.390 . S
C637 C631 1.465 . S
C637 C636 1.396 . S
C637 C638 1.399 . S
C638 H624 0.929 . S
C638 C637 1.399 . S
C638 C639 1.385 . S
C639 H625 0.931 . S
C639 C638 1.385 . S
C639 C640 1.389 . S
C640 C639 1.389 . S
C640 C641 1.387 . S
C641 H626 0.930 . S
C641 C636 1.390 . S
C641 C640 1.387 . S
H642 C654 0.930 . S
H643 C656 0.930 . S
H644 C657 0.930 . S
H645 C661 0.959 . S
H646 C661 0.959 . S
H647 C661 0.961 . S
H648 C662 0.960 . S
H649 C662 0.961 . S
H650 C662 0.959 . S
H651 C665 0.929 . S
H652 C666 0.931 . S
H653 C668 0.930 . S
C654 H642 0.930 . S
C654 C655 1.399 . S
C654 C659 1.399 . S
C655 C654 1.399 . S
C655 C656 1.376 . S
C656 H643 0.930 . S
C656 C655 1.376 . S
C656 C657 1.388 . S
C657 H644 0.930 . S
C657 C656 1.388 . S
C657 C658 1.390 . S
C658 C657 1.390 . S
C658 C659 1.394 . S
C658 C664 1.465 . S
C659 C654 1.399 . S
C659 C658 1.394 . S
C659 C660 1.516 . S
C660 C659 1.516 . S
C660 C661 1.502 . S
C660 C662 1.561 . S
C660 C663 1.526 . S
C661 H645 0.959 . S
C661 H646 0.959 . S
C661 H647 0.961 . S
C661 C660 1.502 . S
C662 H648 0.960 . S
C662 H649 0.961 . S
C662 H650 0.959 . S
C662 C660 1.561 . S
C663 C660 1.526 . S
C663 C664 1.396 . S
C663 C668 1.390 . S
C664 C658 1.465 . S
C664 C663 1.396 . S
C664 C665 1.399 . S
C665 H651 0.929 . S
C665 C664 1.399 . S
C665 C666 1.385 . S
C666 H652 0.931 . S
C666 C665 1.385 . S
C666 C667 1.389 . S
C667 C666 1.389 . S
C667 C668 1.387 . S
C668 H653 0.930 . S
C668 C663 1.390 . S
C668 C667 1.387 . S
H669 C681 0.930 . S
H670 C683 0.930 . S
H671 C684 0.930 . S
H672 C688 0.959 . S
H673 C688 0.959 . S
H674 C688 0.961 . S
H675 C689 0.960 . S
H676 C689 0.961 . S
H677 C689 0.959 . S
H678 C692 0.929 . S
H679 C693 0.931 . S
H680 C695 0.930 . S
C681 H669 0.930 . S
C681 C682 1.399 . S
C681 C686 1.399 . S
C682 C681 1.399 . S
C682 C683 1.376 . S
C683 H670 0.930 . S
C683 C682 1.376 . S
C683 C684 1.388 . S
C684 H671 0.930 . S
C684 C683 1.388 . S
C684 C685 1.390 . S
C685 C684 1.390 . S
C685 C686 1.394 . S
C685 C691 1.465 . S
C686 C681 1.399 . S
C686 C685 1.394 . S
C686 C687 1.516 . S
C687 C686 1.516 . S
C687 C688 1.502 . S
C687 C689 1.561 . S
C687 C690 1.526 . S
C688 H672 0.959 . S
C688 H673 0.959 . S
C688 H674 0.961 . S
C688 C687 1.502 . S
C689 H675 0.960 . S
C689 H676 0.961 . S
C689 H677 0.959 . S
C689 C687 1.561 . S
C690 C687 1.526 . S
C690 C691 1.396 . S
C690 C695 1.390 . S
C691 C685 1.465 . S
C691 C690 1.396 . S
C691 C692 1.399 . S
C692 H678 0.929 . S
C692 C691 1.399 . S
C692 C693 1.385 . S
C693 H679 0.931 . S
C693 C692 1.385 . S
C693 C694 1.389 . S
C694 C693 1.389 . S
C694 C695 1.387 . S
C695 H680 0.930 . S
C695 C690 1.390 . S
C695 C694 1.387 . S
H696 C708 0.930 . S
H697 C710 0.930 . S
H698 C711 0.930 . S
H699 C715 0.959 . S
H700 C715 0.959 . S
H701 C715 0.961 . S
H702 C716 0.960 . S
H703 C716 0.961 . S
H704 C716 0.959 . S
H705 C719 0.929 . S
H706 C720 0.931 . S
H707 C722 0.930 . S
C708 H696 0.930 . S
C708 C709 1.399 1_554 S
C708 C713 1.399 . S
C709 C708 1.399 1_556 S
C709 C710 1.376 . S
C710 H697 0.930 . S
C710 C709 1.376 . S
C710 C711 1.388 . S
C711 H698 0.930 . S
C711 C710 1.388 . S
C711 C712 1.390 . S
C712 C711 1.390 . S
C712 C713 1.394 1_556 S
C712 C718 1.465 . S
C713 C708 1.399 . S
C713 C712 1.394 1_554 S
C713 C714 1.516 . S
C714 C713 1.516 . S
C714 C715 1.502 . S
C714 C716 1.561 . S
C714 C717 1.526 . S
C715 H699 0.959 . S
C715 H700 0.959 . S
C715 H701 0.961 . S
C715 C714 1.502 . S
C716 H702 0.960 . S
C716 H703 0.961 . S
C716 H704 0.959 . S
C716 C714 1.561 . S
C717 C714 1.526 . S
C717 C718 1.396 1_554 S
C717 C722 1.390 . S
C718 C712 1.465 . S
C718 C717 1.396 1_556 S
C718 C719 1.399 . S
C719 H705 0.929 . S
C719 C718 1.399 . S
C719 C720 1.385 . S
C720 H706 0.931 . S
C720 C719 1.385 . S
C720 C721 1.389 1_556 S
C721 C720 1.389 1_554 S
C721 C722 1.387 . S
C722 H707 0.930 . S
C722 C717 1.390 . S
C722 C721 1.387 . S
H723 C735 0.930 . S
H724 C737 0.930 . S
H725 C738 0.930 . S
H726 C742 0.959 . S
H727 C742 0.959 . S
H728 C742 0.961 . S
H729 C743 0.960 . S
H730 C743 0.961 . S
H731 C743 0.959 . S
H732 C746 0.929 . S
H733 C747 0.931 . S
H734 C749 0.930 . S
C735 H723 0.930 . S
C735 C736 1.399 . S
C735 C740 1.399 . S
C736 C735 1.399 . S
C736 C737 1.376 . S
C737 H724 0.930 . S
C737 C736 1.376 . S
C737 C738 1.388 . S
C738 H725 0.930 . S
C738 C737 1.388 . S
C738 C739 1.390 . S
C739 C738 1.390 . S
C739 C740 1.394 . S
C739 C745 1.465 . S
C740 C735 1.399 . S
C740 C739 1.394 . S
C740 C741 1.516 . S
C741 C740 1.516 . S
C741 C742 1.502 . S
C741 C743 1.561 . S
C741 C744 1.526 . S
C742 H726 0.959 . S
C742 H727 0.959 . S
C742 H728 0.961 . S
C742 C741 1.502 . S
C743 H729 0.960 . S
C743 H730 0.961 . S
C743 H731 0.959 . S
C743 C741 1.561 . S
C744 C741 1.526 . S
C744 C745 1.396 . S
C744 C749 1.390 . S
C745 C739 1.465 . S
C745 C744 1.396 . S
C745 C746 1.399 . S
C746 H732 0.929 . S
C746 C745 1.399 . S
C746 C747 1.385 . S
C747 H733 0.931 . S
C747 C746 1.385 . S
C747 C748 1.389 . S
C748 C747 1.389 . S
C748 C749 1.387 . S
C749 H734 0.930 . S
C749 C744 1.390 . S
C749 C748 1.387 . S
H750 C762 0.930 . S
H751 C764 0.930 . S
H752 C765 0.930 . S
H753 C769 0.959 . S
H754 C769 0.959 . S
H755 C769 0.961 . S
H756 C770 0.960 . S
H757 C770 0.961 . S
H758 C770 0.959 . S
H759 C773 0.929 . S
H760 C774 0.931 . S
H761 C776 0.930 . S
C762 H750 0.930 . S
C762 C763 1.399 . S
C762 C767 1.399 . S
C763 C762 1.399 . S
C763 C764 1.376 . S
C764 H751 0.930 . S
C764 C763 1.376 . S
C764 C765 1.388 . S
C765 H752 0.930 . S
C765 C764 1.388 . S
C765 C766 1.390 . S
C766 C765 1.390 . S
C766 C767 1.394 . S
C766 C772 1.465 . S
C767 C762 1.399 . S
C767 C766 1.394 . S
C767 C768 1.516 . S
C768 C767 1.516 . S
C768 C769 1.502 . S
C768 C770 1.561 . S
C768 C771 1.526 . S
C769 H753 0.959 . S
C769 H754 0.959 . S
C769 H755 0.961 . S
C769 C768 1.502 . S
C770 H756 0.960 . S
C770 H757 0.961 . S
C770 H758 0.959 . S
C770 C768 1.561 . S
C771 C768 1.526 . S
C771 C772 1.396 . S
C771 C776 1.390 . S
C772 C766 1.465 . S
C772 C771 1.396 . S
C772 C773 1.399 . S
C773 H759 0.929 . S
C773 C772 1.399 . S
C773 C774 1.385 . S
C774 H760 0.931 . S
C774 C773 1.385 . S
C774 C775 1.389 . S
C775 C774 1.389 . S
C775 C776 1.387 . S
C776 H761 0.930 . S
C776 C771 1.390 . S
C776 C775 1.387 . S
H777 C789 0.930 1_556 S
H778 C791 0.930 . S
H779 C792 0.930 . S
H780 C796 0.959 . S
H781 C796 0.959 . S
H782 C796 0.961 . S
H783 C797 0.960 . S
H784 C797 0.961 1_556 S
H785 C797 0.959 . S
H786 C800 0.929 . S
H787 C801 0.931 . S
H788 C803 0.930 . S
C789 H777 0.930 1_554 S
C789 C790 1.399 . S
C789 C794 1.399 . S
C790 C789 1.399 . S
C790 C791 1.376 . S
C791 H778 0.930 . S
C791 C790 1.376 . S
C791 C792 1.388 . S
C792 H779 0.930 . S
C792 C791 1.388 . S
C792 C793 1.390 . S
C793 C792 1.390 . S
C793 C794 1.394 . S
C793 C799 1.465 . S
C794 C789 1.399 . S
C794 C793 1.394 . S
C794 C795 1.516 1_554 S
C795 C794 1.516 1_556 S
C795 C796 1.502 . S
C795 C797 1.561 1_556 S
C795 C798 1.526 . S
C796 H780 0.959 . S
C796 H781 0.959 . S
C796 H782 0.961 . S
C796 C795 1.502 . S
C797 H783 0.960 . S
C797 H784 0.961 1_554 S
C797 H785 0.959 . S
C797 C795 1.561 1_554 S
C798 C795 1.526 . S
C798 C799 1.396 1_556 S
C798 C803 1.390 . S
C799 C793 1.465 . S
C799 C798 1.396 1_554 S
C799 C800 1.399 . S
C800 H786 0.929 . S
C800 C799 1.399 . S
C800 C801 1.385 . S
C801 H787 0.931 . S
C801 C800 1.385 . S
C801 C802 1.389 1_554 S
C802 C801 1.389 1_556 S
C802 C803 1.387 . S
C803 H788 0.930 . S
C803 C798 1.390 . S
C803 C802 1.387 . S
C169 C5 1.275 . S
C181 C122 1.327 . S
C196 C18 1.331 . S
C208 C135 1.280 . S
C223 C31 1.342 . S
C235 C148 1.299 . S
C250 C44 1.256 . S
C262 C83 1.293 . S
C277 C96 1.344 . S
C289 C57 1.316 . S
C304 C109 1.343 . S
C316 C70 1.302 . S
C331 C130 1.594 . S
C343 C0 1.579 . S
C358 C13 1.577 . S
C370 C143 1.586 . S
C385 C26 1.620 . S
C397 C78 1.599 . S
C412 C39 1.616 . S
C424 C91 1.631 . S
C439 C52 1.585 . S
C451 C104 1.578 . S
C466 C65 1.627 . S
C478 C117 1.633 . S
C493 C138 0.915 . S
C505 C8 0.938 . S
C520 C21 0.903 . S
C532 C151 0.931 . S
C547 C34 0.896 . S
C559 C86 0.938 . S
C574 C47 0.913 . S
C586 C99 0.920 . S
C601 C60 0.888 . S
C613 C112 0.947 . S
C628 C73 0.962 . S
C640 C125 0.884 . S
C655 C10 1.548 . S
C667 C88 1.550 . S
C682 C101 1.531 . S
C694 C23 1.571 . S
C709 C36 1.569 . S
C721 C114 1.534 . S
C736 C49 1.572 . S
C748 C127 1.527 . S
C763 C62 1.568 . S
C775 C140 1.534 . S
C790 C153 1.566 . S
C802 C75 1.532 . S
