# Generated by pormake.
# Topology wiu, (6)-cn, num edge types: 1
# Building blocks:
#     Node 0, Type 0, BuildingBlock: BETFEN_clean_sbu_0, # of connection points: 6
#     Node 1, Type 0, BuildingBlock: BETFEN_clean_sbu_0, # of connection points: 6
#     Node 2, Type 0, BuildingBlock: BETFEN_clean_sbu_0, # of connection points: 6
#     Node 3, Type 0, BuildingBlock: BETFEN_clean_sbu_0, # of connection points: 6
#     Node 4, Type 0, BuildingBlock: BETFEN_clean_sbu_0, # of connection points: 6
#     Node 5, Type 0, BuildingBlock: BETFEN_clean_sbu_0, # of connection points: 6
#     Node 6, Type 0, BuildingBlock: BETFEN_clean_sbu_0, # of connection points: 6
#     Node 7, Type 0, BuildingBlock: BETFEN_clean_sbu_0, # of connection points: 6
#     Node 8, Type 0, BuildingBlock: BETFEN_clean_sbu_0, # of connection points: 6
#     Node 9, Type 0, BuildingBlock: BETFEN_clean_sbu_0, # of connection points: 6
#     Node 10, Type 0, BuildingBlock: BETFEN_clean_sbu_0, # of connection points: 6
#     Node 11, Type 0, BuildingBlock: BETFEN_clean_sbu_0, # of connection points: 6
#     Node 12, Type 0, BuildingBlock: BETFEN_clean_sbu_0, # of connection points: 6
#     Node 13, Type 0, BuildingBlock: BETFEN_clean_sbu_0, # of connection points: 6
#     Node 14, Type 0, BuildingBlock: BETFEN_clean_sbu_0, # of connection points: 6
#     Node 15, Type 0, BuildingBlock: BETFEN_clean_sbu_0, # of connection points: 6
#     Edge 16, Type (0, 0), BuildingBlock: AJUNOK_clean_linker_0, # of connection points: 2
#     Edge 17, Type (0, 0), BuildingBlock: AJUNOK_clean_linker_0, # of connection points: 2
#     Edge 18, Type (0, 0), BuildingBlock: AJUNOK_clean_linker_0, # of connection points: 2
#     Edge 19, Type (0, 0), BuildingBlock: AJUNOK_clean_linker_0, # of connection points: 2
#     Edge 20, Type (0, 0), BuildingBlock: AJUNOK_clean_linker_0, # of connection points: 2
#     Edge 21, Type (0, 0), BuildingBlock: AJUNOK_clean_linker_0, # of connection points: 2
#     Edge 22, Type (0, 0), BuildingBlock: AJUNOK_clean_linker_0, # of connection points: 2
#     Edge 23, Type (0, 0), BuildingBlock: AJUNOK_clean_linker_0, # of connection points: 2
#     Edge 24, Type (0, 0), BuildingBlock: AJUNOK_clean_linker_0, # of connection points: 2
#     Edge 25, Type (0, 0), BuildingBlock: AJUNOK_clean_linker_0, # of connection points: 2
#     Edge 26, Type (0, 0), BuildingBlock: AJUNOK_clean_linker_0, # of connection points: 2
#     Edge 27, Type (0, 0), BuildingBlock: AJUNOK_clean_linker_0, # of connection points: 2
#     Edge 28, Type (0, 0), BuildingBlock: AJUNOK_clean_linker_0, # of connection points: 2
#     Edge 29, Type (0, 0), BuildingBlock: AJUNOK_clean_linker_0, # of connection points: 2
#     Edge 30, Type (0, 0), BuildingBlock: AJUNOK_clean_linker_0, # of connection points: 2
#     Edge 31, Type (0, 0), BuildingBlock: AJUNOK_clean_linker_0, # of connection points: 2
#     Edge 32, Type (0, 0), BuildingBlock: AJUNOK_clean_linker_0, # of connection points: 2
#     Edge 33, Type (0, 0), BuildingBlock: AJUNOK_clean_linker_0, # of connection points: 2
#     Edge 34, Type (0, 0), BuildingBlock: AJUNOK_clean_linker_0, # of connection points: 2
#     Edge 35, Type (0, 0), BuildingBlock: AJUNOK_clean_linker_0, # of connection points: 2
#     Edge 36, Type (0, 0), BuildingBlock: AJUNOK_clean_linker_0, # of connection points: 2
#     Edge 37, Type (0, 0), BuildingBlock: AJUNOK_clean_linker_0, # of connection points: 2
#     Edge 38, Type (0, 0), BuildingBlock: AJUNOK_clean_linker_0, # of connection points: 2
#     Edge 39, Type (0, 0), BuildingBlock: AJUNOK_clean_linker_0, # of connection points: 2
#     Edge 40, Type (0, 0), BuildingBlock: AJUNOK_clean_linker_0, # of connection points: 2
#     Edge 41, Type (0, 0), BuildingBlock: AJUNOK_clean_linker_0, # of connection points: 2
#     Edge 42, Type (0, 0), BuildingBlock: AJUNOK_clean_linker_0, # of connection points: 2
#     Edge 43, Type (0, 0), BuildingBlock: AJUNOK_clean_linker_0, # of connection points: 2
#     Edge 44, Type (0, 0), BuildingBlock: AJUNOK_clean_linker_0, # of connection points: 2
#     Edge 45, Type (0, 0), BuildingBlock: AJUNOK_clean_linker_0, # of connection points: 2
#     Edge 46, Type (0, 0), BuildingBlock: AJUNOK_clean_linker_0, # of connection points: 2
#     Edge 47, Type (0, 0), BuildingBlock: AJUNOK_clean_linker_0, # of connection points: 2
#     Edge 48, Type (0, 0), BuildingBlock: AJUNOK_clean_linker_0, # of connection points: 2
#     Edge 49, Type (0, 0), BuildingBlock: AJUNOK_clean_linker_0, # of connection points: 2
#     Edge 50, Type (0, 0), BuildingBlock: AJUNOK_clean_linker_0, # of connection points: 2
#     Edge 51, Type (0, 0), BuildingBlock: AJUNOK_clean_linker_0, # of connection points: 2
#     Edge 52, Type (0, 0), BuildingBlock: AJUNOK_clean_linker_0, # of connection points: 2
#     Edge 53, Type (0, 0), BuildingBlock: AJUNOK_clean_linker_0, # of connection points: 2
#     Edge 54, Type (0, 0), BuildingBlock: AJUNOK_clean_linker_0, # of connection points: 2
#     Edge 55, Type (0, 0), BuildingBlock: AJUNOK_clean_linker_0, # of connection points: 2
#     Edge 56, Type (0, 0), BuildingBlock: AJUNOK_clean_linker_0, # of connection points: 2
#     Edge 57, Type (0, 0), BuildingBlock: AJUNOK_clean_linker_0, # of connection points: 2
#     Edge 58, Type (0, 0), BuildingBlock: AJUNOK_clean_linker_0, # of connection points: 2
#     Edge 59, Type (0, 0), BuildingBlock: AJUNOK_clean_linker_0, # of connection points: 2
#     Edge 60, Type (0, 0), BuildingBlock: AJUNOK_clean_linker_0, # of connection points: 2
#     Edge 61, Type (0, 0), BuildingBlock: AJUNOK_clean_linker_0, # of connection points: 2
#     Edge 62, Type (0, 0), BuildingBlock: AJUNOK_clean_linker_0, # of connection points: 2
#     Edge 63, Type (0, 0), BuildingBlock: AJUNOK_clean_linker_0, # of connection points: 2
# Relax obj value: 0.730
# Max RMSD: 0.339
# Mean RMSD: 0.339
data_MOF--net-wiu--node1-BETFEN_clean_sbu_0--edge1-AJUNOK_clean_linker_0
_symmetry_space_group_name_H-M    P1
_symmetry_Int_Tables_number       1
_symmetry_cell_setting            triclinic
loop_
_symmetry_equiv_pos_as_xyz
'x, y, z'
_cell_length_a     29.253187
_cell_length_b     29.441521
_cell_length_c     39.181299
_cell_angle_alpha  89.438572
_cell_angle_beta   89.835828
_cell_angle_gamma 89.690177
loop_
_atom_site_label
_atom_site_type_symbol
_atom_site_fract_x
_atom_site_fract_y
_atom_site_fract_z
_atom_type_partial_charge
Pr0 Pr 0.38038 0.20102 0.37825 0.0
Pr1 Pr 0.4205 0.12804 0.35008 0.0
C2 C 0.34016 0.2714 0.41092 0.0
C3 C 0.33249 0.31922 0.40095 0.0
C4 C 0.29801 0.34468 0.41681 0.0
C5 C 0.28628 0.38781 0.40413 0.0
C6 C 0.30859 0.40592 0.37517 0.0
C7 C 0.34463 0.38125 0.36044 0.0
C8 C 0.35634 0.3382 0.37314 0.0
C9 C 0.46539 0.22998 0.35024 0.0
C10 C 0.42481 0.12054 0.4305 0.0
C11 C 0.45644 0.06237 0.31175 0.0
C12 C 0.42954 1.03396 0.28883 0.0
C13 C 0.44931 0.99681 0.27247 0.0
C14 C 0.42421 0.97299 0.24831 0.0
C15 C 0.37922 0.98651 0.23981 0.0
C16 C 0.35843 1.02159 0.25822 0.0
C17 C 0.38326 1.04471 0.28292 0.0
C18 C 0.33079 0.10488 0.37078 0.0
C19 C 0.34822 0.1816 0.29809 0.0
O20 O 0.38237 0.25884 0.41625 0.0
O21 O 0.3177 0.24194 0.39308 0.0
O22 O 0.46 0.19346 0.3677 0.0
O23 O 0.42584 0.24736 0.3429 0.0
O24 O 0.45181 0.11416 0.40417 0.0
O25 O 0.38964 0.14878 0.42621 0.0
O26 O 0.45908 0.1053 0.30298 0.0
O27 O 0.44727 0.05639 0.34403 0.0
O28 O 0.3427 0.14108 0.35653 0.0
O29 O 0.36611 0.0792 0.37567 0.0
O30 O 0.33485 0.20068 0.32699 0.0
O31 O 0.38662 0.15787 0.29898 0.0
H32 H 0.27921 0.33065 0.43829 0.0
H33 H 0.25896 0.40657 0.41643 0.0
H34 H 0.3624 0.39437 0.33817 0.0
H35 H 0.38294 0.31914 0.36044 0.0
H36 H 0.48464 0.98756 0.27719 0.0
H37 H 0.44155 0.94665 0.23406 0.0
H38 H 0.32423 1.03311 0.25186 0.0
H39 H 0.36692 0.07243 0.29627 0.0
Pr40 Pr 0.63521 0.6232 0.62459 0.0
Pr41 Pr 0.71158 0.66082 0.596 0.0
C42 C 0.56282 0.58496 0.65665 0.0
C43 C 0.51646 0.57494 0.64437 0.0
C44 C 0.50188 0.59192 0.61255 0.0
C45 C 0.4594 0.57972 0.59934 0.0
C46 C 0.43131 0.54944 0.6174 0.0
C47 C 0.44555 0.53296 0.64951 0.0
C48 C 0.48781 0.54577 0.66297 0.0
C49 C 0.60859 0.70751 0.59536 0.0
C50 C 0.71703 0.66683 0.67667 0.0
C51 C 0.77703 0.69831 0.55734 0.0
C52 C 0.80819 0.67406 0.53447 0.0
C53 C 0.83827 0.69787 0.51332 0.0
C54 C 0.86315 0.67475 0.48847 0.0
C55 C 0.8578 0.62745 0.48413 0.0
C56 C 0.83039 0.60327 0.50733 0.0
C57 C 0.80597 0.62643 0.5325 0.0
C58 C 0.73214 0.57311 0.62133 0.0
C59 C 0.65869 0.58628 0.54541 0.0
O60 O 0.57314 0.6278 0.65937 0.0
O61 O 0.59545 0.56149 0.64247 0.0
O62 O 0.64502 0.70141 0.61288 0.0
O63 O 0.59109 0.6686 0.58797 0.0
O64 O 0.72799 0.69023 0.64928 0.0
O65 O 0.68454 0.63547 0.67394 0.0
O66 O 0.73398 0.69861 0.5482 0.0
O67 O 0.78275 0.68885 0.5896 0.0
O68 O 0.69691 0.58472 0.60537 0.0
O69 O 0.75917 0.60744 0.62437 0.0
O70 O 0.63204 0.57979 0.57253 0.0
O71 O 0.69 0.61833 0.54701 0.0
H72 H 0.52391 0.61354 0.59742 0.0
H73 H 0.44934 0.59239 0.5744 0.0
H74 H 0.42431 0.50946 0.66384 0.0
H75 H 0.49863 0.53199 0.68741 0.0
H76 H 0.84063 0.73452 0.51475 0.0
H77 H 0.88312 0.69476 0.47057 0.0
H78 H 0.82512 0.56713 0.50431 0.0
H79 H 0.78336 0.60745 0.54923 0.0
Pr80 Pr 0.21439 0.87492 0.87963 0.0
Pr81 Pr 0.173 0.95186 0.85368 0.0
C82 C 0.25634 0.80492 0.9123 0.0
C83 C 0.26442 0.75717 0.90338 0.0
C84 C 0.23893 0.73716 0.87732 0.0
C85 C 0.25014 0.69389 0.86563 0.0
C86 C 0.28786 0.67025 0.87918 0.0
C87 C 0.31276 0.68991 0.90589 0.0
C88 C 0.30098 0.73303 0.918 0.0
C89 C 0.1277 0.84989 0.85284 0.0
C90 C 0.17205 0.95311 0.93409 0.0
C91 C 0.1301 1.01918 0.82067 0.0
C92 C 0.15045 0.05869 0.80298 0.0
C93 C 0.15629 0.09998 0.82026 0.0
C94 C 0.17708 0.13698 0.80404 0.0
C95 C 0.1918 0.13371 0.77001 0.0
C96 C 0.18794 0.09143 0.75351 0.0
C97 C 0.16753 0.05455 0.76975 0.0
C98 C 0.26128 0.97304 0.87699 0.0
C99 C 0.24856 0.90189 0.80017 0.0
O100 O 0.21409 0.81696 0.91837 0.0
O101 O 0.27774 0.83421 0.89307 0.0
O102 O 0.13502 0.88508 0.87069 0.0
O103 O 0.16633 0.83048 0.84566 0.0
O104 O 0.14416 0.96137 0.90873 0.0
O105 O 0.20657 0.92457 0.92853 0.0
O106 O 0.13611 0.97914 0.80689 0.0
O107 O 0.13539 1.01865 0.85368 0.0
O108 O 0.25006 0.93841 0.86082 0.0
O109 O 0.22632 0.99964 0.88081 0.0
O110 O 0.25559 0.87362 0.82628 0.0
O111 O 0.21622 0.93333 0.80328 0.0
H112 H 0.21149 0.75572 0.86502 0.0
H113 H 0.23052 0.67997 0.84494 0.0
H114 H 0.34194 0.67232 0.91685 0.0
H115 H 0.32139 0.74816 0.93788 0.0
H116 H 0.14412 0.10399 0.8462 0.0
H117 H 0.17914 0.16896 0.81738 0.0
H118 H 0.19761 0.08725 0.72704 0.0
H119 H 0.16427 1.0231 0.75587 0.0
Pr120 Pr 0.96055 0.45656 1.12468 0.0
Pr121 Pr 0.88829 0.41182 1.09625 0.0
C122 C 1.03044 0.5006 1.15491 0.0
C123 C 0.07785 0.50879 1.14344 0.0
C124 C 0.09311 0.4916 1.11207 0.0
C125 C 0.13705 0.50133 1.09994 0.0
C126 C 0.16666 0.52904 1.11869 0.0
C127 C 0.15152 0.54528 1.15058 0.0
C128 C 0.10751 0.5354 1.16276 0.0
C129 C 0.99146 0.37084 1.10039 0.0
C130 C 0.87921 0.41252 1.17724 0.0
C131 C 0.83235 0.36608 1.05556 0.0
C132 C 0.80993 0.38397 1.02444 0.0
C133 C 0.77064 0.41182 1.0264 0.0
C134 C 0.75465 0.4352 0.99747 0.0
C135 C 0.77816 0.43187 0.96635 0.0
C136 C 0.81608 0.40228 0.96427 0.0
C137 C 0.83163 0.37863 0.99283 0.0
C138 C 0.85928 0.49934 1.11594 0.0
C139 C 0.93878 0.48691 1.04384 0.0
O140 O 1.01979 0.45863 1.16214 0.0
O141 O 0.99891 0.52105 1.13699 0.0
O142 O 0.95492 0.37732 1.11749 0.0
O143 O 1.00889 0.40964 1.09185 0.0
O144 O 0.87196 0.38528 1.15148 0.0
O145 O 0.90863 0.44649 1.17265 0.0
O146 O 0.8769 0.36165 1.05388 0.0
O147 O 0.81852 0.38345 1.08437 0.0
O148 O 0.89684 0.48978 1.10209 0.0
O149 O 0.83501 0.46297 1.11947 0.0
O150 O 0.95972 0.49924 1.07218 0.0
O151 O 0.91335 0.44998 1.04511 0.0
H152 H 0.07079 0.47114 1.09663 0.0
H153 H 0.14766 0.48713 1.07582 0.0
H154 H 0.17335 0.56648 1.16589 0.0
H155 H 0.09642 0.5491 1.187 0.0
H156 H 0.75286 0.41649 1.0504 0.0
H157 H 0.72419 0.45609 0.99946 0.0
H158 H 0.83357 0.39656 0.94032 0.0
H159 H 0.86155 0.35706 0.99028 0.0
Pr160 Pr 0.67028 0.94646 1.09539 0.0
Pr161 Pr 0.72149 0.87902 1.06295 0.0
C162 C 0.60172 0.98022 1.13286 0.0
C163 C 0.55211 0.9714 1.13316 0.0
C164 C 0.52248 0.99148 1.10909 0.0
C165 C 0.47546 0.98308 1.11057 0.0
C166 C 0.45721 0.95441 1.13603 0.0
C167 C 0.4876 0.93271 1.15889 0.0
C168 C 0.53419 0.94127 1.15756 0.0
C169 C 0.75638 0.98274 1.07966 0.0
C170 C 0.7503 0.89719 1.14495 0.0
C171 C 0.77075 0.81307 1.03291 0.0
C172 C 0.78035 0.76603 1.04493 0.0
C173 C 0.74493 0.73438 1.04978 0.0
C174 C 0.75401 0.69152 1.06411 0.0
C175 C 0.79866 0.67926 1.07394 0.0
C176 C 0.83373 0.71135 1.06979 0.0
C177 C 0.8248 0.75396 1.05512 0.0
C178 C 0.63574 0.84388 1.08511 0.0
C179 C 0.67817 0.96479 1.01376 0.0
O180 O 0.61863 1.00209 1.10652 0.0
O181 O 0.62749 0.94636 1.14312 0.0
O182 O 0.74852 0.94244 1.08876 0.0
O183 O 0.71922 1.00715 1.08124 0.0
O184 O 0.76249 0.87711 1.11612 0.0
O185 O 0.71306 0.92297 1.14471 0.0
O186 O 0.72885 0.82287 1.02392 0.0
O187 O 0.78927 0.84514 1.05082 0.0
O188 O 0.642 0.88141 1.06946 0.0
O189 O 0.67505 0.82626 1.09293 0.0
O190 O 0.65303 0.97414 1.0407 0.0
O191 O 0.70947 0.93181 1.0158 0.0
H192 H 0.53536 1.01445 1.08962 0.0
H193 H 0.45326 1.00054 1.09275 0.0
H194 H 0.47539 0.91151 1.17967 0.0
H195 H 0.55609 0.92514 1.17642 0.0
H196 H 0.71001 0.74288 1.04306 0.0
H197 H 0.72592 0.66816 1.06785 0.0
H198 H 0.86831 0.70345 1.07763 0.0
H199 H 0.8526 0.7779 1.05232 0.0
Pr200 Pr 0.3844 0.41323 0.83914 0.0
Pr201 Pr 0.45794 0.45583 0.81147 0.0
C202 C 0.3232 0.36992 0.87814 0.0
C203 C 0.29373 0.39229 0.90326 0.0
C204 C 0.26782 0.36696 0.92648 0.0
C205 C 0.24679 0.38864 0.95395 0.0
C206 C 0.25222 0.43576 0.95879 0.0
C207 C 0.27455 0.46153 0.93363 0.0
C208 C 0.29493 0.4399 0.9059 0.0
C209 C 0.3572 0.50215 0.8219 0.0
C210 C 0.437 0.48669 0.89185 0.0
C211 C 0.52936 0.49778 0.78059 0.0
C212 C 0.57648 0.50668 0.79211 0.0
C213 C 0.59024 0.49384 0.82517 0.0
C214 C 0.63415 0.50411 0.83687 0.0
C215 C 0.66521 0.52774 0.81583 0.0
C216 C 0.65159 0.53946 0.78237 0.0
C217 C 0.60759 0.5292 0.7707 0.0
C218 C 0.48635 0.36891 0.83613 0.0
C219 C 0.37568 0.41616 0.75814 0.0
O220 O 0.3669 0.36985 0.88541 0.0
O221 O 0.31489 0.38157 0.84657 0.0
O222 O 0.39531 0.49097 0.83414 0.0
O223 O 0.3328 0.4665 0.81636 0.0
O224 O 0.4626 0.49555 0.86467 0.0
O225 O 0.40631 0.454 0.88943 0.0
O226 O 0.51896 0.45541 0.77535 0.0
O227 O 0.49723 0.51936 0.79696 0.0
O228 O 0.45065 0.3767 0.81832 0.0
O229 O 0.50327 0.40719 0.84586 0.0
O230 O 0.36633 0.38931 0.78408 0.0
O231 O 0.40632 0.44888 0.76279 0.0
H232 H 0.26635 0.3303 0.92467 0.0
H233 H 0.23062 0.36775 0.97341 0.0
H234 H 0.27964 0.49763 0.93701 0.0
H235 H 0.31437 0.46006 0.8878 0.0
H236 H 0.56678 0.47631 0.84212 0.0
H237 H 0.64367 0.49358 0.86242 0.0
H238 H 0.6746 0.55756 0.76542 0.0
H239 H 0.59769 0.53939 0.7451 0.0
Pr240 Pr 0.93105 0.12838 0.5958 0.0
Pr241 Pr 0.87896 0.19524 0.56174 0.0
C242 C 1.00328 0.09353 0.62886 0.0
C243 C 1.04206 0.11868 0.64256 0.0
C244 C 0.08413 0.09714 0.64771 0.0
C245 C 0.12119 0.12182 0.65985 0.0
C246 C 0.11699 0.16877 0.66646 0.0
C247 C 0.07515 0.19052 0.65952 0.0
C248 C 1.03794 0.16561 0.64798 0.0
C249 C 0.84639 0.09015 0.57847 0.0
C250 C 0.85295 0.17464 0.64562 0.0
C251 C 0.82591 0.26528 0.54 0.0
C252 C 0.81068 0.30838 0.55524 0.0
C253 C 0.81892 0.34925 0.53761 0.0
C254 C 0.80823 0.39084 0.55258 0.0
C255 C 0.78873 0.39227 0.58533 0.0
C256 C 0.78023 0.3514 0.60296 0.0
C257 C 0.79131 0.30974 0.58811 0.0
C258 C 0.97199 0.22208 0.56921 0.0
C259 C 0.91795 0.11306 0.51324 0.0
O260 O 1.00056 0.09461 0.59564 0.0
O261 O 0.96392 0.10046 0.64391 0.0
O262 O 0.85349 0.13033 0.58752 0.0
O263 O 0.88422 0.06662 0.57994 0.0
O264 O 0.84683 0.20233 0.61883 0.0
O265 O 0.88487 0.14279 0.644 0.0
O266 O 0.86942 0.26228 0.53374 0.0
O267 O 0.80932 0.22767 0.5525 0.0
O268 O 0.94646 0.20584 0.59252 0.0
O269 O 0.95054 0.2207 0.54043 0.0
O270 O 0.94808 0.10994 0.53819 0.0
O271 O 0.8825 0.14074 0.51714 0.0
H272 H 0.08803 0.06109 0.64311 0.0
H273 H 0.15222 0.10329 0.66593 0.0
H274 H 0.0707 0.22646 0.66425 0.0
H275 H 1.00583 0.18303 0.64335 0.0
H276 H 0.83418 0.34898 0.51238 0.0
H277 H 0.81464 0.42194 0.53837 0.0
H278 H 0.7654 0.35174 0.62833 0.0
H279 H 0.7852 0.27875 0.6025 0.0
Pr280 Pr 0.21466 0.66833 0.34135 0.0
Pr281 Pr 0.14183 0.62241 0.3113 0.0
C282 C 0.26414 0.7286 0.3763 0.0
C283 C 0.27425 0.77683 0.37161 0.0
C284 C 0.30344 0.79812 0.39444 0.0
C285 C 0.30707 0.84524 0.39405 0.0
C286 C 0.28106 0.87183 0.37098 0.0
C287 C 0.2551 0.84996 0.34603 0.0
C288 C 0.2519 0.80256 0.34624 0.0
C289 C 0.24334 0.58009 0.324 0.0
C290 C 0.16263 0.59168 0.39256 0.0
C291 C 0.07269 0.57763 0.28158 0.0
C292 C 1.02809 0.56325 0.29577 0.0
C293 C 0.98794 0.56967 0.27681 0.0
C294 C 0.9454 0.55817 0.29086 0.0
C295 C 0.94226 0.53951 0.32399 0.0
C296 C 0.98245 0.53405 0.34317 0.0
C297 C 1.02487 0.54587 0.32927 0.0
C298 C 0.11065 0.70702 0.3363 0.0
C299 C 0.22632 0.66409 0.25983 0.0
O300 O 0.28201 0.70143 0.35375 0.0
O301 O 0.22157 0.71911 0.38376 0.0
O302 O 0.20501 0.59126 0.33577 0.0
O303 O 0.26945 0.61551 0.32142 0.0
O304 O 0.13802 0.58275 0.36508 0.0
O305 O 0.19291 0.62498 0.39082 0.0
O306 O 0.07838 0.62132 0.27794 0.0
O307 O 0.10886 0.55721 0.29388 0.0
O308 O 0.14728 0.7011 0.31899 0.0
O309 O 0.09353 0.668 0.34465 0.0
O310 O 0.23675 0.68891 0.28628 0.0
O311 O 0.19289 0.63371 0.26284 0.0
H312 H 0.32114 0.77862 0.41398 0.0
H313 H 0.32667 0.86086 0.41416 0.0
H314 H 0.23472 0.86966 0.32818 0.0
H315 H 0.22991 0.78614 0.32799 0.0
H316 H 0.98948 0.58381 0.2512 0.0
H317 H 0.91506 0.56331 0.27558 0.0
H318 H 0.98104 0.52085 0.36906 0.0
H319 H 0.05513 0.5416 0.34486 0.0
Pr320 Pr 0.87286 0.70007 0.87733 0.0
Pr321 Pr 0.92656 0.63698 0.84283 0.0
C322 C 0.82365 0.76384 0.91045 0.0
C323 C 0.81636 0.81243 0.90205 0.0
C324 C 0.85076 0.83782 0.88562 0.0
C325 C 0.84134 0.88126 0.87245 0.0
C326 C 0.79731 0.90011 0.87532 0.0
C327 C 0.76368 0.87562 0.89344 0.0
C328 C 0.77304 0.8321 0.90646 0.0
C329 C 0.95725 0.73903 0.85544 0.0
C330 C 0.91621 0.61189 0.92393 0.0
C331 C 0.99832 0.60856 0.8058 0.0
C332 C 1.04478 0.62703 0.80232 0.0
C333 C 0.08213 0.59782 0.79806 0.0
C334 C 0.12513 0.61549 0.79014 0.0
C335 C 0.13144 0.66284 0.78625 0.0
C336 C 0.09505 0.69194 0.79482 0.0
C337 C 1.05193 0.67417 0.80215 0.0
C338 C 0.84321 0.59447 0.85762 0.0
C339 C 0.84286 0.68407 0.79562 0.0
O340 O 0.86473 0.75156 0.9198 0.0
O341 O 0.80566 0.73556 0.889 0.0
O342 O 0.95216 0.7012 0.87062 0.0
O343 O 0.9174 0.75503 0.84726 0.0
O344 O 0.94073 0.60347 0.89646 0.0
O345 O 0.88576 0.6457 0.92316 0.0
O346 O 0.98801 0.59061 0.83539 0.0
O347 O 0.96549 0.63379 0.79315 0.0
O348 O 0.84784 0.63603 0.85053 0.0
O349 O 0.88185 0.57303 0.85385 0.0
O350 O 0.82939 0.7004 0.82545 0.0
O351 O 0.88256 0.66218 0.7943 0.0
H352 H 0.88454 0.82356 0.8819 0.0
H353 H 0.86804 0.89934 0.85885 0.0
H354 H 0.72981 0.88977 0.89697 0.0
H355 H 0.74599 0.81322 0.91901 0.0
H356 H 0.07748 0.56133 0.79872 0.0
H357 H 0.15195 0.59164 0.78357 0.0
H358 H 0.09873 0.72844 0.79247 0.0
H359 H 1.0236 0.69739 0.80583 0.0
Pr360 Pr 0.1389 0.11652 1.12851 0.0
Pr361 Pr 0.21011 0.16302 1.09791 0.0
C362 C 0.07057 0.07044 1.15989 0.0
C363 C 1.02312 0.06131 1.14911 0.0
C364 C 1.0026 0.08828 1.12359 0.0
C365 C 0.95891 0.07834 1.11147 0.0
C366 C 0.93534 1.04041 1.12406 0.0
C367 C 0.95565 1.01333 1.1497 0.0
C368 C 0.99918 1.02384 1.16226 0.0
C369 C 0.10625 0.20186 1.10335 0.0
C370 C 0.22241 0.15885 1.17945 0.0
C371 C 0.25765 0.22563 1.06291 0.0
C372 C 0.26401 0.27431 1.06804 0.0
C373 C 0.29602 0.29772 1.04832 0.0
C374 C 0.29692 0.34497 1.04883 0.0
C375 C 0.2651 0.36961 1.06865 0.0
C376 C 0.23603 0.34567 1.09095 0.0
C377 C 0.23584 0.29817 1.09085 0.0
C378 C 0.24174 0.07546 1.11547 0.0
C379 C 0.1602 0.08606 1.04743 0.0
O380 O 0.0804 0.11259 1.16669 0.0
O381 O 0.10232 0.05082 1.14181 0.0
O382 O 0.14305 0.19581 1.12024 0.0
O383 O 0.08944 0.16275 1.09572 0.0
O384 O 0.23163 0.18431 1.1527 0.0
O385 O 0.19048 0.12697 1.17665 0.0
O386 O 0.27631 0.19907 1.08585 0.0
O387 O 0.21621 0.21351 1.05451 0.0
O388 O 0.20254 0.08519 1.10446 0.0
O389 O 0.26643 0.11183 1.11746 0.0
O390 O 0.13561 0.07684 1.07514 0.0
O391 O 0.18978 0.11993 1.04868 0.0
H392 H 1.02084 0.11643 1.11242 0.0
H393 H 0.94413 0.09943 1.0915 0.0
H394 H 0.93792 0.98394 1.15983 0.0
H395 H 1.01447 1.00225 1.18171 0.0
H396 H 0.31842 0.27966 1.03097 0.0
H397 H 0.31956 0.36188 1.03094 0.0
H398 H 0.21118 0.36361 1.10641 0.0
H399 H 0.21185 0.28008 1.10702 0.0
Pr400 Pr 0.7159 0.37829 0.37514 0.0
Pr401 Pr 0.6741 0.45211 0.34691 0.0
C402 C 0.7562 0.30671 0.40656 0.0
C403 C 0.76749 0.26107 0.39342 0.0
C404 C 0.76136 0.22217 0.41391 0.0
C405 C 0.77162 0.17895 0.40107 0.0
C406 C 0.78844 0.17412 0.36764 0.0
C407 C 0.79338 0.21297 0.34695 0.0
C408 C 0.78281 0.25594 0.35962 0.0
C409 C 0.63119 0.34908 0.34813 0.0
C410 C 0.67228 0.45854 0.42788 0.0
C411 C 0.63083 0.51358 0.30769 0.0
C412 C 0.65139 0.544 0.28213 0.0
C413 C 0.69873 0.5524 0.28288 0.0
C414 C 0.72016 0.57444 0.25549 0.0
C415 C 0.69462 0.58778 0.22699 0.0
C416 C 0.64677 0.58242 0.22751 0.0
C417 C 0.6253 0.56056 0.25489 0.0
C418 C 0.76311 0.47653 0.36707 0.0
C419 C 0.74942 0.39944 0.295 0.0
O420 O 0.71282 0.31602 0.40998 0.0
O421 O 0.77904 0.34051 0.3933 0.0
O422 O 0.6364 0.38532 0.36546 0.0
O423 O 0.67085 0.33253 0.34021 0.0
O424 O 0.64562 0.46699 0.4017 0.0
O425 O 0.70644 0.42911 0.42344 0.0
O426 O 0.63203 0.47035 0.30019 0.0
O427 O 0.64247 0.52153 0.33918 0.0
O428 O 0.752 0.44007 0.35314 0.0
O429 O 0.72747 0.50215 0.37129 0.0
O430 O 0.75812 0.37422 0.32244 0.0
O431 O 0.71627 0.43008 0.29701 0.0
H432 H 0.74895 0.22526 0.43987 0.0
H433 H 0.76759 0.14947 0.41752 0.0
H434 H 0.80584 0.21008 0.32098 0.0
H435 H 0.78692 0.28522 0.34295 0.0
H436 H 0.7195 0.53969 0.30376 0.0
H437 H 0.75681 0.5787 0.25559 0.0
H438 H 0.6264 0.59178 1.20545 0.0
H439 H 0.58889 0.55421 0.25383 0.0
Pr440 Pr 0.46127 0.95748 0.62871 0.0
Pr441 Pr 0.38642 0.9173 0.60106 0.0
C442 C 0.53318 0.99608 0.66048 0.0
C443 C 0.58142 1.00338 0.65038 0.0
C444 C 0.60227 0.9764 0.62524 0.0
C445 C 0.64607 0.98682 0.61288 0.0
C446 C 0.6696 1.0247 0.6252 0.0
C447 C 0.64946 0.05047 0.65141 0.0
C448 C 0.60575 1.03998 0.6638 0.0
C449 C 0.48966 0.87342 0.60049 0.0
C450 C 0.37878 0.91548 0.68184 0.0
C451 C 0.324 0.87756 0.56186 0.0
C452 C 0.2966 0.90055 0.53557 0.0
C453 C 0.29763 0.94828 0.53281 0.0
C454 C 0.2799 0.97028 0.50395 0.0
C455 C 0.26059 0.94476 0.47773 0.0
C456 C 0.25572 0.89738 0.48231 0.0
C457 C 0.2739 0.87542 0.51093 0.0
C458 C 0.36247 1.00624 0.6203 0.0
C459 C 0.44004 0.99152 0.54858 0.0
O460 O 0.5205 0.95422 0.66609 0.0
O461 O 0.50296 1.0192 0.64306 0.0
O462 O 0.45356 0.87884 0.61851 0.0
O463 O 0.50714 0.91255 0.59317 0.0
O464 O 0.37096 0.88882 0.65589 0.0
O465 O 0.40857 0.94912 0.67708 0.0
O466 O 0.36784 0.87505 0.5552 0.0
O467 O 0.31524 0.89017 0.59302 0.0
O468 O 0.39944 0.99417 0.60682 0.0
O469 O 0.33703 0.97114 0.62607 0.0
O470 O 0.46535 0.99976 0.57584 0.0
O471 O 0.40925 0.95889 0.5509 0.0
H472 H 0.58419 0.94806 0.61441 0.0
H473 H 0.66073 0.96641 0.59272 0.0
H474 H 0.66717 0.07946 0.66178 0.0
H475 H 0.59042 0.06124 0.68318 0.0
H476 H 0.31483 0.96826 0.55192 0.0
H477 H 0.28441 1.00659 0.50089 0.0
H478 H 0.24182 0.8766 0.4622 0.0
H479 H 0.27283 0.83869 0.51268 0.0
Pr480 Pr 0.17139 0.44723 0.58596 0.0
Pr481 Pr 0.21966 0.37696 0.55901 0.0
C482 C 0.12176 0.50747 0.6206 0.0
C483 C 0.13956 0.54583 0.64046 0.0
C484 C 0.15428 0.58607 0.62399 0.0
C485 C 0.17628 0.62003 0.64233 0.0
C486 C 0.18425 0.61419 0.67731 0.0
C487 C 0.16899 0.57419 0.69371 0.0
C488 C 0.14693 0.54051 0.67554 0.0
C489 C 0.25992 0.47799 0.56843 0.0
C490 C 0.24749 0.39867 0.6399 0.0
C491 C 0.26705 0.31104 0.52651 0.0
C492 C 0.27529 0.26348 0.53643 0.0
C493 C 0.25278 0.24585 0.56518 0.0
C494 C 0.2633 0.20269 0.57762 0.0
C495 C 0.29723 0.17632 0.56198 0.0
C496 C 0.31939 0.19357 0.53265 0.0
C497 C 0.30835 0.23694 0.51986 0.0
C498 C 0.13379 0.34338 0.58281 0.0
C499 C 0.17633 0.45631 0.50566 0.0
O500 O 0.13008 0.4666 0.63272 0.0
O501 O 0.12793 0.51053 0.58771 0.0
O502 O 0.24987 0.44054 0.58168 0.0
O503 O 0.22323 0.50205 0.56397 0.0
O504 O 0.26023 0.37605 0.61232 0.0
O505 O 0.21036 0.42457 0.63749 0.0
O506 O 0.22492 0.32183 0.51897 0.0
O507 O 0.2859 0.34059 0.5465 0.0
O508 O 0.13922 0.37984 0.56551 0.0
O509 O 0.17344 0.32788 0.59191 0.0
O510 O 0.14634 0.46064 0.53026 0.0
O511 O 0.21221 0.42961 0.51149 0.0
H512 H 0.14918 0.59127 0.59687 0.0
H513 H 0.18633 0.65111 0.62939 0.0
H514 H 0.1726 0.56949 0.72102 0.0
H515 H 0.136 0.5101 0.68898 0.0
H516 H 0.22828 0.26619 0.57892 0.0
H517 H 0.24629 0.19092 0.60043 0.0
H518 H 0.3458 0.17388 0.52007 0.0
H519 H 0.32649 0.25021 0.49781 0.0
Pr520 Pr 0.88636 0.90804 0.3459 0.0
Pr521 Pr 0.95753 0.95743 0.31554 0.0
C522 C 0.84282 0.84304 0.38126 0.0
C523 C 0.84039 0.79389 0.37708 0.0
C524 C 0.86869 0.77179 0.35332 0.0
C525 C 0.87239 0.72438 0.35372 0.0
C526 C 0.84751 0.69882 0.37774 0.0
C527 C 0.8162 0.72137 0.39933 0.0
C528 C 0.81285 0.76849 0.39906 0.0
C529 C 0.85392 0.99531 0.32869 0.0
C530 C 0.93571 0.98462 0.39721 0.0
C531 C 1.02387 1.00556 0.28375 0.0
C532 C 0.07076 1.01658 0.29446 0.0
C533 C 0.09244 0.99038 0.31991 0.0
C534 C 0.13496 1.00305 0.3327 0.0
C535 C 0.15624 1.04271 0.32074 0.0
C536 C 0.13505 0.06848 0.29472 0.0
C537 C 0.09258 0.05548 0.28168 0.0
C538 C 0.99094 0.87197 0.33904 0.0
C539 C 0.87427 0.91467 0.26451 0.0
O540 O 0.82275 0.86748 0.35764 0.0
O541 O 0.88304 0.85835 0.3899 0.0
O542 O 0.89294 0.98565 0.34004 0.0
O543 O 0.82872 0.95912 0.32755 0.0
O544 O 0.96051 0.99499 0.36981 0.0
O545 O 0.90608 0.95089 0.39524 0.0
O546 O 1.0157 0.96298 0.27726 0.0
O547 O 0.99152 1.02423 0.30181 0.0
O548 O 0.954 0.87826 0.3224 0.0
O549 O 1.00806 0.9109 0.34689 0.0
O550 O 0.86445 0.88874 0.29089 0.0
O551 O 0.90619 0.94647 0.26763 0.0
H552 H 0.8898 0.79132 0.33586 0.0
H553 H 0.89674 0.70802 0.3369 0.0
H554 H 0.79707 0.70298 0.41868 0.0
H555 H 0.7908 0.78513 0.41742 0.0
H556 H 0.07595 0.96077 0.33061 0.0
H557 H 0.15048 0.98272 0.35279 0.0
H558 H 0.15116 0.09892 0.28476 0.0
H559 H 0.07633 0.07632 0.26222 0.0
Pr560 Pr 0.43045 0.62978 1.08904 0.0
Pr561 Pr 0.3792 0.69837 1.05853 0.0
C562 C 0.49594 0.58275 1.12184 0.0
C563 C 0.54479 0.57579 1.11558 0.0
C564 C 0.56855 0.54379 1.13514 0.0
C565 C 0.61609 0.54298 1.13445 0.0
C566 C 0.64077 0.57491 1.11459 0.0
C567 C 0.61649 0.60339 1.09197 0.0
C568 C 0.56863 0.60363 1.09234 0.0
C569 C 0.34379 0.59476 1.07292 0.0
C570 C 0.35198 0.67853 1.14015 0.0
C571 C 0.3298 0.7653 1.02795 0.0
C572 C 0.32099 0.81293 1.03799 0.0
C573 C 0.35156 0.83522 1.05964 0.0
C574 C 0.34166 0.87854 1.07208 0.0
C575 C 0.30026 0.90016 1.06379 0.0
C576 C 0.26961 0.87808 1.04189 0.0
C577 C 0.28001 0.8349 1.02896 0.0
C578 C 0.46515 0.73255 1.08165 0.0
C579 C 0.42272 0.61703 1.00769 0.0
O580 O 0.46841 0.56419 1.09997 0.0
O581 O 0.48386 0.62404 1.13028 0.0
O582 O 0.35145 0.63389 1.08405 0.0
O583 O 0.38164 0.5719 1.07121 0.0
O584 O 0.33847 0.69817 1.11136 0.0
O585 O 0.39006 0.65379 1.13964 0.0
O586 O 0.37155 0.75488 1.01887 0.0
O587 O 0.31196 0.73464 1.04804 0.0
O588 O 0.45947 0.69629 1.06482 0.0
O589 O 0.4255 0.74895 1.08975 0.0
O590 O 0.45227 0.61278 1.03275 0.0
O591 O 0.38719 0.64473 1.0122 0.0
H592 H 0.55053 0.52163 1.15279 0.0
H593 H 0.63309 0.52077 1.15264 0.0
H594 H 0.63436 0.6283 1.07645 0.0
H595 H 0.55032 0.62765 1.07627 0.0
H596 H 0.38252 0.81849 1.06775 0.0
H597 H 0.36568 0.89449 1.08911 0.0
H598 H 0.23747 0.89412 1.035 0.0
H599 H 0.25558 0.8182 1.01265 0.0
Pr600 Pr 0.70895 0.16494 0.84181 0.0
Pr601 Pr 0.63988 0.11781 0.81127 0.0
C602 C 0.75812 0.231 0.86998 0.0
C603 C 0.75861 0.27966 0.86259 0.0
C604 C 0.79555 0.30546 0.87315 0.0
C605 C 0.79371 0.35248 0.87023 0.0
C606 C 0.75428 0.37469 0.85724 0.0
C607 C 0.7194 0.34813 0.84323 0.0
C608 C 0.72175 0.30077 0.8457 0.0
C609 C 0.74246 0.07787 0.82511 0.0
C610 C 0.66179 0.09201 0.89505 0.0
C611 C 0.56797 0.06739 0.791 0.0
C612 C 0.52534 0.05202 0.80737 0.0
C613 C 0.48355 0.06182 0.79139 0.0
C614 C 0.44234 0.05124 0.80755 0.0
C615 C 0.44222 1.03031 0.83989 0.0
C616 C 0.48403 1.02026 0.8559 0.0
C617 C 0.52534 1.03124 0.83984 0.0
C618 C 0.61314 0.21061 0.81871 0.0
C619 C 0.71807 0.15779 0.75983 0.0
O620 O 0.77401 0.20546 0.84569 0.0
O621 O 0.72057 0.21545 0.88382 0.0
O622 O 0.70324 0.08715 0.83602 0.0
O623 O 0.76716 0.11425 0.82394 0.0
O624 O 0.63375 0.08625 0.86865 0.0
O625 O 0.69502 0.12204 0.89212 0.0
O626 O 0.57084 0.11091 0.78603 0.0
O627 O 0.60635 0.04963 0.80149 0.0
O628 O 0.63149 0.18582 0.84172 0.0
O629 O 0.61424 0.18907 0.79011 0.0
O630 O 0.71786 0.18854 0.78405 0.0
O631 O 0.69376 0.1207 0.76545 0.0
H632 H 0.82473 0.28946 0.88542 0.0
H633 H 0.82148 0.37113 0.88151 0.0
H634 H 0.68876 0.36397 0.83304 0.0
H635 H 0.69368 0.28076 0.83615 0.0
H636 H 0.4828 0.07822 0.76651 0.0
H637 H 0.4105 0.05879 0.79457 0.0
H638 H 0.4847 1.00421 0.8809 0.0
H639 H 0.55711 1.02394 0.85297 0.0
C640 C 0.50513 0.30737 0.34641 0.0
C641 C 0.50842 0.25933 0.34972 0.0
C642 C 0.54415 0.33614 0.34659 0.0
C643 C 0.58899 0.31856 0.34914 0.0
H644 H 0.4718 0.32324 0.34404 0.0
H645 H 0.5391 0.37249 0.34412 0.0
S646 S 0.61753 0.19548 0.35877 0.0
N647 N 0.56115 0.19618 0.35646 0.0
N648 N 0.63376 0.24901 0.35558 0.0
C649 C 0.59277 0.27054 0.35232 0.0
C650 C 0.55297 0.24143 0.35294 0.0
C651 C 0.59592 0.79405 0.5947 0.0
C652 C 0.57805 0.74973 0.5969 0.0
C653 C 0.56716 0.83318 0.59534 0.0
C654 C 0.51893 0.83042 0.5992 0.0
H655 H 0.63246 0.79861 0.59193 0.0
H656 H 0.5832 0.86613 0.59317 0.0
S657 S 0.45428 0.72283 0.6074 0.0
N658 N 0.50799 0.70607 0.60348 0.0
N659 N 0.45522 0.7789 0.60584 0.0
C660 C 0.50073 0.78642 0.602 0.0
C661 C 0.5298 0.74653 0.60055 0.0
C662 C 1.04142 0.83978 0.84336 0.0
C663 C 0.08391 0.82222 0.85448 0.0
C664 C 1.00111 0.81281 0.8434 0.0
C665 C 1.00092 0.76709 0.85517 0.0
H666 H 1.03941 0.87443 0.83393 0.0
H667 H 0.96969 0.82811 0.83418 0.0
S668 S 0.10243 0.70557 0.88937 0.0
N669 N 0.12235 0.75614 0.87872 0.0
N670 N 1.04747 0.7068 0.87992 0.0
C671 C 1.04298 0.74971 0.86722 0.0
C672 C 0.08402 0.77675 0.86652 0.0
C673 C 0.09599 0.28875 1.09971 0.0
C674 C 0.07686 0.24499 1.10299 0.0
C675 C 0.06834 0.32869 1.09829 0.0
C676 C 1.01996 0.32732 1.10095 0.0
H677 H 0.13264 0.29225 1.09757 0.0
H678 H 0.08529 0.36114 1.0955 0.0
S679 S 0.95204 0.22193 1.11065 0.0
N680 N 1.00543 0.20361 1.10882 0.0
N681 N 0.95461 0.27782 1.1074 0.0
C682 C 1.00047 0.28396 1.10465 0.0
C683 C 1.02846 0.24328 1.10531 0.0
C684 C 0.59236 0.76856 1.09027 0.0
C685 C 0.59175 0.81626 1.08461 0.0
C686 C 0.55206 0.7417 1.08874 0.0
C687 C 0.50865 0.76105 1.08215 0.0
H688 H 0.6245 0.75152 1.0956 0.0
H689 H 0.55491 0.70556 1.09344 0.0
S690 S 0.48756 0.88388 1.06475 0.0
N691 N 0.54324 0.88101 1.07132 0.0
N692 N 0.46846 0.83154 1.06938 0.0
C693 C 0.50765 0.80868 1.07669 0.0
C694 C 0.54869 0.83586 1.07763 0.0
C695 C 0.54388 0.25926 0.80188 0.0
C696 C 0.58027 0.25021 0.8249 0.0
C697 C 0.51264 0.29591 0.80645 0.0
C698 C 0.51643 0.32647 0.83381 0.0
H699 H 0.53934 0.23768 0.78002 0.0
H700 H 0.48597 0.30109 0.78757 0.0
S701 S 0.60522 0.31884 0.90157 0.0
N702 N 0.61683 0.27506 0.8769 0.0
N703 N 0.56033 0.34457 0.88445 0.0
C704 C 0.55262 0.31783 0.85708 0.0
C705 C 0.58368 0.27974 0.85287 0.0
C706 C 1.04709 0.32953 0.57837 0.0
C707 C 0.09223 0.31231 0.58058 0.0
C708 C 1.00851 0.30038 0.57573 0.0
C709 C 1.01301 0.25249 0.57478 0.0
H710 H 1.04145 0.36591 0.57875 0.0
H711 H 0.97479 0.31557 0.57398 0.0
S712 S 0.12322 0.18957 0.57556 0.0
N713 N 0.13828 0.24319 0.57977 0.0
N714 N 0.06685 0.18984 0.57319 0.0
C715 C 0.0578 0.23496 0.57601 0.0
C716 C 0.09692 0.26434 0.5794 0.0
C717 C 1.03501 0.74803 0.34794 0.0
C718 C 0.08121 0.74996 0.33676 0.0
C719 C 1.00572 0.78674 0.34783 0.0
C720 C 1.02112 0.82983 0.33704 0.0
H721 H 1.021 0.71604 0.35677 0.0
H722 H 0.97102 0.78299 0.35704 0.0
S723 S 0.13792 0.8542 0.30406 0.0
N724 N 0.13974 0.79939 0.31341 0.0
N725 N 0.08584 0.87154 0.31399 0.0
C726 C 0.06709 0.83229 0.32575 0.0
C727 C 0.09668 0.79276 0.32537 0.0
C728 C 0.36511 1.00818 1.18081 0.0
C729 C 0.36153 0.97389 1.2059 0.0
C730 C 0.38903 0.99945 1.15059 0.0
C731 C 0.40776 0.95599 1.14497 0.0
H732 H 0.3592 1.04336 1.18748 0.0
H733 H 0.40053 1.0285 1.13584 0.0
S734 S 0.37643 0.85087 1.19147 0.0
N735 N 0.35679 0.8925 1.21556 0.0
N736 N 0.39822 0.87542 1.15701 0.0
C737 C 0.38878 0.91968 1.16371 0.0
C738 C 0.36627 0.92881 1.19517 0.0
C739 C 0.83027 0.5999 0.42977 0.0
C740 C 0.86871 0.60809 0.45028 0.0
C741 C 0.82607 0.62254 0.39834 0.0
C742 C 0.86101 0.65172 0.38699 0.0
H743 H 0.79953 0.5856 0.44093 0.0
H744 H 0.79243 0.62482 0.38692 0.0
S745 S 0.97919 0.65379 0.42036 0.0
N746 N 0.94977 0.62487 0.44927 0.0
N747 N 0.9428 0.66622 0.38942 0.0
C748 C 0.90459 0.64539 0.40141 0.0
C749 C 0.90847 0.62297 0.43362 0.0
C750 C 0.16052 0.20513 0.74862 0.0
C751 C 0.19839 0.17543 0.74888 0.0
C752 C 0.13634 0.2119 0.71823 0.0
C753 C 0.15175 0.19123 0.68799 0.0
H754 H 0.14323 0.21369 0.7722 0.0
H755 H 0.10208 0.22577 0.72013 0.0
S756 S 0.26773 0.14402 0.67399 0.0
N757 N 0.264 0.15097 0.71571 0.0
N758 N 0.21887 0.1629 0.65805 0.0
C759 C 0.19774 0.17719 0.68689 0.0
C760 C 0.22214 0.17094 0.71794 0.0
C761 C 0.71547 0.4398 0.92469 0.0
C762 C 0.75983 0.45233 0.93441 0.0
C763 C 0.70746 0.4259 0.89116 0.0
C764 C 0.74463 0.42193 0.86839 0.0
H765 H 0.68973 0.43222 0.94382 0.0
H766 H 0.67581 0.40818 0.88627 0.0
S767 S 0.85675 0.47652 0.87683 0.0
N768 N 0.8327 0.48177 0.91477 0.0
N769 N 0.81779 0.45346 0.85212 0.0
C770 C 0.78236 0.44991 0.87444 0.0
C771 C 0.79054 0.46479 0.90833 0.0
C772 C 0.20853 0.44343 1.01221 0.0
C773 C 0.24904 0.45265 0.99396 0.0
C774 C 0.21121 0.42453 1.04461 0.0
C775 C 0.25437 0.41701 1.05823 0.0
H776 H 0.17638 0.44102 0.9987 0.0
H777 H 0.18135 0.40769 1.05503 0.0
S778 S 0.37234 0.48079 1.03721 0.0
N779 N 0.31779 0.45913 1.03973 0.0
N780 N 0.32999 0.45437 1.05822 0.0
C781 C 0.29253 0.44531 1.04261 0.0
C782 C 0.29282 0.45972 1.00865 0.0
C783 C 0.21951 0.95016 0.42313 0.0
C784 C 0.25751 0.96321 0.44256 0.0
C785 C 0.22631 0.92822 0.39193 0.0
C786 C 0.27109 0.91947 0.38029 0.0
H787 H 0.18619 0.94769 0.43513 0.0
H788 H 0.19762 0.9102 0.38117 0.0
S789 S 0.37632 0.97408 0.41128 0.0
N790 N 0.33687 0.98697 0.4399 0.0
N791 N 0.34987 0.94472 0.38159 0.0
C792 C 0.30641 0.94568 0.39389 0.0
C793 C 0.29934 0.96845 0.42531 0.0
C794 C 0.16837 0.68883 0.70108 0.0
C795 C 0.19926 0.65237 0.69868 0.0
C796 C 0.153 0.70263 0.73322 0.0
C797 C 0.16806 0.67932 0.76282 0.0
H798 H 0.14903 0.69981 0.67891 0.0
H799 H 0.12288 0.72415 0.73388 0.0
S800 S 0.27128 0.60646 0.76794 0.0
N801 N 0.26173 0.61284 0.72667 0.0
N802 N 0.23163 0.63686 0.78751 0.0
C803 C 0.20944 0.65505 0.76023 0.0
C804 C 0.22576 0.64214 0.72749 0.0
C805 C 0.70332 0.63498 1.17518 0.0
C806 C 0.71682 0.5961 1.19367 0.0
C807 C 0.68988 0.63103 1.14104 0.0
C808 C 0.68722 0.58762 1.12632 0.0
H809 H 0.69484 0.66595 1.18856 0.0
H810 H 0.67168 0.65954 1.12972 0.0
S811 S 0.74347 0.48323 1.15828 0.0
N812 N 0.7469 0.51934 1.19013 0.0
N813 N 0.71977 0.51172 1.12633 0.0
C814 C 0.71486 0.55331 1.14066 0.0
C815 C 0.7294 0.5574 1.17513 0.0
C816 C 0.32333 0.48423 0.35116 0.0
C817 C 0.29247 0.44906 0.35912 0.0
C818 C 0.30791 0.52599 0.33756 0.0
C819 C 0.26117 0.53371 0.33113 0.0
H820 H 0.35937 0.48004 0.35669 0.0
H821 H 0.33244 0.55294 0.33354 0.0
S822 S 0.1676 0.45022 0.34308 0.0
N823 N 0.21387 0.42322 0.35648 0.0
N824 N 0.18502 0.50094 0.33059 0.0
C825 C 0.23055 0.49771 0.33706 0.0
C826 C 0.24612 0.45565 0.35122 0.0
C827 C 0.35265 0.56146 0.59296 0.0
C828 C 0.38904 0.53205 0.60156 0.0
C829 C 0.31137 0.54441 0.57997 0.0
C830 C 0.30564 0.49752 0.5748 0.0
H831 H 0.35552 0.59756 0.59753 0.0
H832 H 0.28325 0.56778 0.57548 0.0
S833 S 0.39336 0.40763 0.58881 0.0
N834 N 0.41836 0.45485 0.60107 0.0
N835 N 0.3418 0.42289 0.57593 0.0
C836 C 0.34305 0.46842 0.58128 0.0
C837 C 0.38448 0.48563 0.59492 0.0
C838 C 0.34946 0.62291 0.85298 0.0
C839 C 0.30367 0.62721 0.86349 0.0
C840 C 0.36555 0.5831 0.83771 0.0
C841 C 0.33653 0.54594 0.83222 0.0
H842 H 0.37314 0.65061 0.85662 0.0
H843 H 0.40141 0.58097 0.83086 0.0
S844 S 0.21344 0.54004 0.85522 0.0
N845 N 0.22933 0.59109 0.86745 0.0
N846 N 0.25942 0.51615 0.83848 0.0
C847 C 0.29038 0.54997 0.84218 0.0
C848 C 0.27401 0.59061 0.85787 0.0
C849 C 0.25079 0.54223 1.1272 0.0
C850 C 0.21286 0.5416 1.10511 0.0
C851 C 0.29374 0.55732 1.11595 0.0
C852 C 0.30059 0.57213 1.08214 0.0
H853 H 0.24715 0.53169 1.15362 0.0
H854 H 0.32149 0.55887 1.13417 0.0
S855 S 0.21413 0.57626 1.01354 0.0
N856 N 0.18602 0.55669 1.04718 0.0
N857 N 0.26721 0.58422 1.02634 0.0
C858 C 0.26383 0.57049 1.05945 0.0
C859 C 0.2199 0.55527 1.07081 0.0
C860 C 0.85293 0.58277 1.12585 0.0
C861 C 0.83785 0.5439 1.10885 0.0
C862 C 0.83863 0.62641 1.11538 0.0
C863 C 0.80931 0.63268 1.08717 0.0
H864 H 0.8769 0.57949 1.14676 0.0
H865 H 0.8515 0.65551 1.12896 0.0
S866 S 0.76227 0.54139 1.03322 0.0
N867 N 0.79282 0.51412 1.06235 0.0
N868 N 0.76666 0.59581 1.04219 0.0
C869 C 0.79363 0.59377 1.07034 0.0
C870 C 0.80786 0.54949 1.08121 0.0
C871 C 0.75024 0.53579 0.80777 0.0
C872 C 0.71132 0.54107 0.82868 0.0
C873 C 0.79337 0.55116 0.81812 0.0
C874 C 0.79932 0.57234 0.84978 0.0
H875 H 0.74728 0.52017 0.78297 0.0
H876 H 0.82204 0.54769 0.80075 0.0
S877 S 0.70954 0.59425 0.91433 0.0
N878 N 0.6823 0.56893 0.88298 0.0
N879 N 0.76352 0.59751 0.90212 0.0
C880 C 0.76123 0.57721 0.87119 0.0
C881 C 0.71727 0.56144 0.86082 0.0
C882 C 0.80758 0.47187 0.60225 0.0
C883 C 0.77552 0.43651 0.60016 0.0
C884 C 0.79424 0.51572 0.61212 0.0
C885 C 0.74827 0.52562 0.61972 0.0
H886 H 0.8429 0.4659 0.59511 0.0
H887 H 0.81949 0.54251 0.61168 0.0
S888 S 0.65175 0.44444 0.61971 0.0
N889 N 0.69648 0.41381 0.60804 0.0
N890 N 0.67135 0.49607 0.62638 0.0
C891 C 0.71645 0.49001 0.61927 0.0
C892 C 0.73006 0.44546 0.60952 0.0
C893 C 0.81575 0.53873 0.34793 0.0
C894 C 0.80959 0.49473 0.3614 0.0
C895 C 0.8589 0.55338 0.33648 0.0
C896 C 0.8974 0.52453 0.33809 0.0
H897 H 0.7867 0.56131 0.34475 0.0
H898 H 0.86197 0.58725 0.32571 0.0
S899 S 0.89873 0.40548 0.37008 0.0
N900 N 0.84526 0.42232 0.37523 0.0
N901 N 0.92606 0.4495 0.35362 0.0
C902 C 0.89165 0.48063 0.35188 0.0
C903 C 0.84783 0.46581 0.36345 0.0
C904 C 0.81448 0.9826 0.863 0.0
C905 C 0.78602 0.94457 0.85871 0.0
C906 C 0.80229 1.02555 0.84965 0.0
C907 C 0.76128 1.03183 0.83149 0.0
H908 H 0.84538 0.97957 0.87804 0.0
H909 H 0.82374 0.05438 0.85529 0.0
S910 S 0.67859 0.94228 0.80859 0.0
N911 N 0.71786 0.91532 0.83135 0.0
N912 N 0.69477 0.99589 0.80697 0.0
C913 C 0.73408 0.99365 0.82532 0.0
C914 C 0.74643 0.9501 0.83876 0.0
C915 C 0.80867 1.0432 1.10185 0.0
C916 C 0.80264 1.00152 1.08515 0.0
C917 C 0.85201 0.05628 1.11369 0.0
C918 C 0.89049 1.02797 1.10939 0.0
H919 H 0.77948 0.06473 1.10733 0.0
H920 H 0.85516 0.08789 1.12738 0.0
S921 S 0.89414 0.91936 1.06252 0.0
N922 N 0.8398 0.93482 1.06154 0.0
N923 N 0.92085 0.95936 1.08387 0.0
C924 C 0.88534 0.98767 1.09106 0.0
C925 C 0.84151 0.97451 1.07889 0.0
C926 C 0.78944 0.04879 0.34354 0.0
C927 C 0.8352 1.04175 0.33352 0.0
C928 C 0.77415 0.0918 0.35434 0.0
C929 C 0.80395 0.12919 0.35499 0.0
H930 H 0.76586 1.02058 0.34453 0.0
H931 H 0.73901 0.09573 0.36264 0.0
S932 S 0.92641 0.12887 0.33044 0.0
N933 N 0.90954 0.07622 0.32415 0.0
N934 N 0.88086 0.15648 0.3443 0.0
C935 C 0.84925 0.1228 0.3441 0.0
C936 C 0.86481 0.07926 0.33335 0.0
C937 C 0.79412 1.0251 0.59478 0.0
C938 C 0.80011 0.07051 0.58403 0.0
C939 C 0.75139 1.00974 0.60701 0.0
C940 C 0.71354 1.03944 0.60932 0.0
H941 H 0.823 1.00195 0.59537 0.0
H942 H 0.74852 0.97505 0.61619 0.0
S943 S 0.70967 0.15945 0.57991 0.0
N944 N 0.76292 0.1432 0.57295 0.0
N945 N 0.68367 0.11467 0.59635 0.0
C946 C 0.71856 0.08397 0.59682 0.0
C947 C 0.76152 0.09934 0.58403 0.0
C948 C 0.35876 0.12562 0.58477 0.0
C949 C 0.31213 0.13298 0.57824 0.0
C950 C 0.37403 0.08574 0.60082 0.0
C951 C 0.34338 0.05131 0.61081 0.0
H952 H 0.38375 0.15095 0.57742 0.0
H953 H 0.4105 0.08116 0.60436 0.0
S954 S 0.21733 0.05469 0.60045 0.0
N955 N 0.23502 0.10325 0.58375 0.0
N956 N 0.26377 1.02803 0.61401 0.0
C957 C 0.2964 0.05877 0.6054 0.0
C958 C 0.2808 0.09958 0.58899 0.0
C959 C 0.23773 1.02823 0.33763 0.0
C960 C 0.19976 0.05775 0.33622 0.0
C961 C 0.27976 1.0427 0.35079 0.0
C962 C 0.28488 0.08676 0.3637 0.0
H963 H 0.23543 0.99436 0.32723 0.0
H964 H 0.309 1.02021 0.34902 0.0
S965 S 0.19514 0.17589 0.36801 0.0
N966 N 0.16943 0.13226 0.35029 0.0
N967 N 0.24817 0.15911 0.37542 0.0
C968 C 0.24676 0.11596 0.36347 0.0
C969 C 0.20425 0.10153 0.34969 0.0
C970 C 0.23357 0.99169 1.11077 0.0
C971 C 0.26143 1.0303 1.10733 0.0
C972 C 0.24668 0.94971 1.09705 0.0
C973 C 0.28817 0.94465 1.07925 0.0
H974 H 0.20053 0.99437 1.12319 0.0
H975 H 0.22384 0.92108 1.09999 0.0
S976 S 0.37187 1.03576 1.06075 0.0
N977 N 0.33172 0.06103 1.08351 0.0
N978 N 0.35651 0.98201 1.05803 0.0
C979 C 0.31679 0.9827 1.07609 0.0
C980 C 0.3034 1.02555 1.09004 0.0
C981 C 0.36269 0.0487 0.85948 0.0
C982 C 0.3983 1.01676 0.85567 0.0
C983 C 0.3187 1.03507 0.86955 0.0
C984 C 0.30896 0.98897 0.87557 0.0
H985 H 0.36849 0.08418 0.85338 0.0
H986 H 0.29164 0.06031 0.87038 0.0
S987 S 0.39105 0.89271 0.87135 0.0
N988 N 0.42156 0.93769 0.86066 0.0
N989 N 0.33911 0.91204 0.87945 0.0
C990 C 0.34495 0.95724 0.87371 0.0
C991 C 0.3896 0.97111 0.86374 0.0
C992 C 0.26797 0.18082 0.27115 0.0
C993 C 0.3162 0.17768 0.26751 0.0
C994 C 0.2375 0.17314 0.2434 0.0
C995 C 0.25367 0.1627 1.21034 0.0
H996 H 0.25344 0.18847 0.29589 0.0
H997 H 0.20106 0.17628 0.24778 0.0
S998 S 0.37614 0.14886 1.18671 0.0
N999 N 0.37771 0.16139 0.22767 0.0
N1000 N 0.32154 0.14893 1.17615 0.0
C1001 C 0.30165 0.15943 1.20647 0.0
C1002 C 0.33245 0.16627 0.2347 0.0
C1003 C 0.70673 0.50756 0.47477 0.0
C1004 C 0.66787 0.48778 0.45973 0.0
C1005 C 0.70309 0.53937 0.50176 0.0
C1006 C 0.66049 0.55249 0.51605 0.0
H1007 H 0.74039 0.4996 0.46483 0.0
H1008 H 0.73429 0.55358 0.51177 0.0
S1009 S 0.548 0.50967 0.48725 0.0
N1010 N 0.58497 0.48407 0.46178 0.0
N1011 N 0.57853 0.54129 0.51322 0.0
C1012 C 0.62146 0.53196 0.50195 0.0
C1013 C 0.62504 0.50059 0.47371 0.0
C1014 C 0.29699 0.94649 0.75672 0.0
C1015 C 0.28214 0.90411 0.77011 0.0
C1016 C 0.32963 0.94996 0.7297 0.0
C1017 C 0.34855 0.91125 0.71374 0.0
H1018 H 0.28363 0.97759 0.76753 0.0
H1019 H 0.33899 0.98347 0.72053 0.0
S1020 S 0.32151 0.79196 0.73845 0.0
N1021 N 0.29049 0.82246 0.76519 0.0
N1022 N 0.34906 0.82872 0.71388 0.0
C1023 C 0.33378 0.86869 0.72677 0.0
C1024 C 0.30162 0.8652 0.75496 0.0
C1025 C 0.92791 0.53343 0.95115 0.0
C1026 C 0.92185 0.58089 0.95503 0.0
C1027 C 0.93326 0.50338 0.97954 0.0
C1028 C 0.9352 0.51933 1.01339 0.0
H1029 H 0.92776 0.51914 0.92581 0.0
H1030 H 0.93641 0.46731 0.97484 0.0
S1031 S 0.92278 0.64037 1.038 0.0
N1032 N 0.91802 0.64187 0.99601 0.0
N1033 N 0.93057 0.58652 1.04872 0.0
C1034 C 0.92999 0.56678 1.01756 0.0
C1035 C 0.92277 0.59711 0.98873 0.0
C1036 C 0.79626 0.91486 0.2364 0.0
C1037 C 0.84428 0.91106 0.23316 0.0
C1038 C 0.76647 0.90983 1.20818 0.0
C1039 C 0.78281 0.89902 1.17526 0.0
H1040 H 0.78145 0.92238 0.26109 0.0
H1041 H 0.73011 0.91429 1.21232 0.0
S1042 S 0.90569 0.88288 1.15318 0.0
N1043 N 0.90662 0.89513 1.19423 0.0
N1044 N 0.85134 0.88379 1.14178 0.0
C1045 C 0.83087 0.89418 1.17186 0.0
C1046 C 0.86128 0.90065 1.2005 0.0
C1047 C 0.38825 0.56682 0.9613 0.0
C1048 C 0.42714 0.58613 0.97673 0.0
C1049 C 0.39199 0.53426 0.9348 0.0
C1050 C 0.43473 0.51978 0.92156 0.0
H1051 H 0.35447 0.576 0.97039 0.0
H1052 H 0.36084 0.52086 0.92411 0.0
S1053 S 0.54733 0.5606 0.9517 0.0
N1054 N 0.5102 0.58777 0.97609 0.0
N1055 N 0.5168 0.529 0.92573 0.0
C1056 C 0.47377 0.53962 0.93614 0.0
C1057 C 0.47008 0.57183 0.96377 0.0
C1058 C 0.76775 0.20526 0.71859 0.0
C1059 C 0.74989 0.16259 0.72906 0.0
C1060 C 0.80002 0.20963 0.69138 0.0
C1061 C 0.81749 0.17136 0.67409 0.0
H1062 H 0.75674 0.23573 0.73158 0.0
H1063 H 0.81222 0.24315 0.68446 0.0
S1064 S 0.78158 0.052 0.69035 0.0
N1065 N 0.75163 0.08155 0.71824 0.0
N1066 N 0.81263 0.08937 0.66899 0.0
C1067 C 0.7996 0.1287 0.68415 0.0
C1068 C 0.76595 0.12442 0.71101 0.0
C1069 C 0.13045 0.50583 0.46403 0.0
C1070 C 0.17309 0.48768 0.47475 0.0
C1071 C 0.12691 0.53883 0.43743 0.0
C1072 C 0.16597 0.55683 0.42116 0.0
H1073 H 0.09934 0.49451 0.47642 0.0
H1074 H 0.09333 0.55107 0.43009 0.0
S1075 S 0.2857 0.52036 0.43829 0.0
N1076 N 0.25512 0.48954 0.46528 0.0
N1077 N 0.24873 0.55222 0.41695 0.0
C1078 C 0.2087 0.53871 0.43138 0.0
C1079 C 0.2122 0.50416 0.45763 0.0
C1080 C 0.79452 0.68096 0.70379 0.0
C1081 C 0.74734 0.67146 0.70803 0.0
C1082 C 0.82484 0.68507 0.73181 0.0
C1083 C 0.80956 0.68159 0.76588 0.0
H1084 H 0.80861 0.68439 0.67831 0.0
H1085 H 0.86065 0.69138 0.72666 0.0
S1086 S 0.68966 0.65697 0.79191 0.0
N1087 N 0.68745 0.65782 0.74975 0.0
N1088 N 0.74335 0.66742 0.80207 0.0
C1089 C 0.76239 0.67249 0.77062 0.0
C1090 C 0.73173 0.66693 0.74197 0.0
C1091 C 0.12709 0.99824 0.97861 0.0
C1092 C 0.1696 0.9835 0.96517 0.0
C1093 C 0.12402 1.0307 1.00522 0.0
C1094 C 0.1632 0.05185 1.01865 0.0
H1095 H 0.09573 0.98456 0.96841 0.0
H1096 H 0.09054 1.04009 1.01478 0.0
S1097 S 0.28281 1.02635 0.99223 0.0
N1098 N 0.25179 0.99274 0.96816 0.0
N1099 N 0.24619 0.05461 1.01629 0.0
C1100 C 0.20585 1.0375 1.0053 0.0
C1101 C 0.209 1.00333 0.97916 0.0
C1102 C 0.82684 0.36729 0.21788 0.0
C1103 C 0.84904 0.40853 1.20901 0.0
C1104 C 0.7956 0.36392 0.2458 0.0
C1105 C 0.78347 0.40202 0.26555 0.0
H1106 H 0.8336 0.33714 1.20305 0.0
H1107 H 0.78001 0.3314 0.2514 0.0
S1108 S 0.83186 0.51753 0.25404 0.0
N1109 N 0.85697 0.48782 0.22378 0.0
N1110 N 0.79765 0.48208 0.27452 0.0
C1111 C 0.80549 0.44323 0.25703 0.0
C1112 C 0.83821 0.44634 0.22937 0.0
C1113 C 0.39514 1.04255 0.50762 0.0
C1114 C 0.43781 1.02515 0.51884 0.0
C1115 C 0.39137 0.07466 0.48042 0.0
C1116 C 0.43003 0.09047 0.46222 0.0
H1117 H 0.36413 1.03162 0.52033 0.0
H1118 H 0.35758 0.08611 0.47292 0.0
S1119 S 0.55006 0.05684 0.48156 0.0
N1120 N 0.51977 1.02815 0.51008 0.0
N1121 N 0.51288 0.08614 0.45838 0.0
C1122 C 0.47294 0.07349 0.47333 0.0
C1123 C 0.47679 1.04174 0.50169 0.0
C1124 C 0.35311 0.38364 0.69983 0.0
C1125 C 0.34492 0.41421 0.72681 0.0
C1126 C 0.32157 0.37827 0.67243 0.0
C1127 C 0.27947 0.40239 0.67077 0.0
H1128 H 0.3841 0.36338 0.69995 0.0
H1129 H 0.33042 0.35481 0.65232 0.0
S1130 S 0.24071 0.48586 0.73574 0.0
N1131 N 0.29095 0.46852 0.75 0.0
N1132 N 0.23213 0.4582 0.69988 0.0
C1133 C 0.27093 0.43278 0.69792 0.0
C1134 C 0.30327 0.43859 0.72544 0.0
C1135 C 0.96543 0.06405 0.47238 0.0
C1136 C 0.92252 0.08233 0.48235 0.0
C1137 C 0.97 1.03327 0.44475 0.0
C1138 C 0.93168 1.01777 0.42651 0.0
H1139 H 0.99596 0.07375 0.48599 0.0
H1140 H 1.00374 1.02079 0.43812 0.0
S1141 S 0.81172 0.05513 0.44132 0.0
N1142 N 0.84113 0.08293 0.47025 0.0
N1143 N 0.84942 1.02444 0.42004 0.0
C1144 C 0.88874 1.03583 0.43614 0.0
C1145 C 0.88424 0.06808 0.46348 0.0
C1146 C 0.30484 0.67267 0.23255 0.0
C1147 C 0.25702 0.6673 0.22853 0.0
C1148 C 0.33522 0.67602 1.20431 0.0
C1149 C 0.31932 0.67597 1.17037 0.0
H1150 H 0.31922 0.67356 0.25798 0.0
H1151 H 0.37148 0.67926 1.20915 0.0
S1152 S 0.19749 0.66324 1.14514 0.0
N1153 N 0.19576 0.66145 1.1873 0.0
N1154 N 0.25181 0.66973 1.13464 0.0
C1155 C 0.27151 0.67103 1.16596 0.0
C1156 C 0.24077 0.66617 1.19476 0.0
C1157 C 0.68096 1.04304 0.98596 0.0
C1158 C 0.67399 0.9958 0.98269 0.0
C1159 C 0.67617 0.07369 0.95796 0.0
C1160 C 0.66224 0.05919 0.92535 0.0
H1161 H 0.691 0.0565 1.01044 0.0
H1162 H 0.6834 0.10928 0.96199 0.0
S1163 S 0.63801 0.93923 0.90299 0.0
N1164 N 0.65223 0.93623 0.94376 0.0
N1165 N 0.64137 0.99341 0.89189 0.0
C1166 C 0.65428 1.01206 0.92189 0.0
C1167 C 0.66057 0.98063 0.95021 0.0
loop_
_geom_bond_atom_site_label_1
_geom_bond_atom_site_label_2
_geom_bond_distance
_geom_bond_site_symmetry_2
_ccdc_geom_bond_type
Pr0 C2 2.880 . S
Pr0 O20 2.562 . S
Pr0 O21 2.490 . S
Pr0 O22 2.695 . S
Pr0 O23 2.512 . S
Pr0 O25 2.437 . S
Pr0 O28 2.436 . S
Pr0 O30 2.438 . S
Pr1 C11 2.880 . S
Pr1 O22 2.436 . S
Pr1 O24 2.438 . S
Pr1 O26 2.562 . S
Pr1 O27 2.490 . S
Pr1 O28 2.695 . S
Pr1 O29 2.512 . S
Pr1 O31 2.437 . S
C2 Pr0 2.880 . S
C2 C3 1.491 . S
C2 O20 1.254 . S
C2 O21 1.225 . S
C3 C2 1.491 . S
C3 C4 1.392 . S
C3 C8 1.356 . S
C4 C3 1.392 . S
C4 C5 1.368 . S
C4 H32 0.929 . S
C5 C4 1.368 . S
C5 C6 1.386 . S
C5 H33 0.929 . S
C6 C5 1.386 . S
C6 C7 1.373 . S
C7 C6 1.373 . S
C7 C8 1.409 . S
C7 H34 0.931 . S
C8 C3 1.356 . S
C8 C7 1.409 . S
C8 H35 0.930 . S
C9 O22 1.270 . S
C9 O23 1.248 . S
C10 O24 1.267 . S
C10 O25 1.278 . S
C11 Pr1 2.880 . S
C11 C12 1.491 . S
C11 O26 1.254 . S
C11 O27 1.225 . S
C12 C11 1.491 . S
C12 C13 1.392 1_545 S
C12 C17 1.356 . S
C13 C12 1.392 1_565 S
C13 C14 1.368 . S
C13 H36 0.929 . S
C14 C13 1.368 . S
C14 C15 1.386 . S
C14 H37 0.929 . S
C15 C14 1.386 . S
C15 C16 1.373 1_565 S
C16 C15 1.373 1_545 S
C16 C17 1.409 . S
C16 H38 0.931 1_554 S
C17 C12 1.356 . S
C17 C16 1.409 . S
C17 H39 0.930 . S
C18 O28 1.270 . S
C18 O29 1.248 . S
C19 O30 1.267 . S
C19 O31 1.278 . S
O20 Pr0 2.562 . S
O20 C2 1.254 . S
O21 Pr0 2.490 . S
O21 C2 1.225 . S
O22 Pr0 2.695 . S
O22 Pr1 2.436 . S
O22 C9 1.270 . S
O23 Pr0 2.512 . S
O23 C9 1.248 . S
O24 Pr1 2.438 . S
O24 C10 1.267 . S
O25 Pr0 2.437 . S
O25 C10 1.278 . S
O26 Pr1 2.562 . S
O26 C11 1.254 . S
O27 Pr1 2.490 . S
O27 C11 1.225 . S
O28 Pr0 2.436 . S
O28 Pr1 2.695 . S
O28 C18 1.270 . S
O29 Pr1 2.512 . S
O29 C18 1.248 . S
O30 Pr0 2.438 . S
O30 C19 1.267 . S
O31 Pr1 2.437 . S
O31 C19 1.278 . S
H32 C4 0.929 . S
H33 C5 0.929 . S
H34 C7 0.931 . S
H35 C8 0.930 . S
H36 C13 0.929 . S
H37 C14 0.929 . S
H38 C16 0.931 1_556 S
H39 C17 0.930 . S
Pr40 C42 2.880 . S
Pr40 O60 2.562 . S
Pr40 O61 2.490 . S
Pr40 O62 2.695 . S
Pr40 O63 2.512 . S
Pr40 O65 2.437 . S
Pr40 O68 2.436 . S
Pr40 O70 2.438 . S
Pr41 C51 2.880 . S
Pr41 O62 2.436 . S
Pr41 O64 2.438 . S
Pr41 O66 2.562 . S
Pr41 O67 2.490 . S
Pr41 O68 2.695 . S
Pr41 O69 2.512 . S
Pr41 O71 2.437 . S
C42 Pr40 2.880 . S
C42 C43 1.491 . S
C42 O60 1.254 . S
C42 O61 1.225 . S
C43 C42 1.491 . S
C43 C44 1.392 . S
C43 C48 1.356 . S
C44 C43 1.392 . S
C44 C45 1.368 . S
C44 H72 0.929 . S
C45 C44 1.368 . S
C45 C46 1.386 . S
C45 H73 0.929 . S
C46 C45 1.386 . S
C46 C47 1.373 . S
C47 C46 1.373 . S
C47 C48 1.409 . S
C47 H74 0.931 . S
C48 C43 1.356 . S
C48 C47 1.409 . S
C48 H75 0.930 . S
C49 O62 1.270 . S
C49 O63 1.248 . S
C50 O64 1.267 . S
C50 O65 1.278 . S
C51 Pr41 2.880 . S
C51 C52 1.491 . S
C51 O66 1.254 . S
C51 O67 1.225 . S
C52 C51 1.491 . S
C52 C53 1.392 . S
C52 C57 1.356 . S
C53 C52 1.392 . S
C53 C54 1.368 . S
C53 H76 0.929 . S
C54 C53 1.368 . S
C54 C55 1.386 . S
C54 H77 0.929 . S
C55 C54 1.386 . S
C55 C56 1.373 . S
C56 C55 1.373 . S
C56 C57 1.409 . S
C56 H78 0.931 . S
C57 C52 1.356 . S
C57 C56 1.409 . S
C57 H79 0.930 . S
C58 O68 1.270 . S
C58 O69 1.248 . S
C59 O70 1.267 . S
C59 O71 1.278 . S
O60 Pr40 2.562 . S
O60 C42 1.254 . S
O61 Pr40 2.490 . S
O61 C42 1.225 . S
O62 Pr40 2.695 . S
O62 Pr41 2.436 . S
O62 C49 1.270 . S
O63 Pr40 2.512 . S
O63 C49 1.248 . S
O64 Pr41 2.438 . S
O64 C50 1.267 . S
O65 Pr40 2.437 . S
O65 C50 1.278 . S
O66 Pr41 2.562 . S
O66 C51 1.254 . S
O67 Pr41 2.490 . S
O67 C51 1.225 . S
O68 Pr40 2.436 . S
O68 Pr41 2.695 . S
O68 C58 1.270 . S
O69 Pr41 2.512 . S
O69 C58 1.248 . S
O70 Pr40 2.438 . S
O70 C59 1.267 . S
O71 Pr41 2.437 . S
O71 C59 1.278 . S
H72 C44 0.929 . S
H73 C45 0.929 . S
H74 C47 0.931 . S
H75 C48 0.930 . S
H76 C53 0.929 . S
H77 C54 0.929 . S
H78 C56 0.931 . S
H79 C57 0.930 . S
Pr80 C82 2.880 . S
Pr80 O100 2.562 . S
Pr80 O101 2.490 . S
Pr80 O102 2.695 . S
Pr80 O103 2.512 . S
Pr80 O105 2.437 . S
Pr80 O108 2.436 . S
Pr80 O110 2.438 . S
Pr81 C91 2.880 . S
Pr81 O102 2.436 . S
Pr81 O104 2.438 . S
Pr81 O106 2.562 . S
Pr81 O107 2.490 . S
Pr81 O108 2.695 . S
Pr81 O109 2.512 . S
Pr81 O111 2.437 . S
C82 Pr80 2.880 . S
C82 C83 1.491 . S
C82 O100 1.254 . S
C82 O101 1.225 . S
C83 C82 1.491 . S
C83 C84 1.392 . S
C83 C88 1.356 . S
C84 C83 1.392 . S
C84 C85 1.368 . S
C84 H112 0.929 . S
C85 C84 1.368 . S
C85 C86 1.386 . S
C85 H113 0.929 . S
C86 C85 1.386 . S
C86 C87 1.373 . S
C87 C86 1.373 . S
C87 C88 1.409 . S
C87 H114 0.931 . S
C88 C83 1.356 . S
C88 C87 1.409 . S
C88 H115 0.930 . S
C89 O102 1.270 . S
C89 O103 1.248 . S
C90 O104 1.267 . S
C90 O105 1.278 . S
C91 Pr81 2.880 . S
C91 C92 1.491 . S
C91 O106 1.254 . S
C91 O107 1.225 . S
C92 C91 1.491 . S
C92 C93 1.392 1_565 S
C92 C97 1.356 . S
C93 C92 1.392 1_545 S
C93 C94 1.368 . S
C93 H116 0.929 . S
C94 C93 1.368 . S
C94 C95 1.386 . S
C94 H117 0.929 . S
C95 C94 1.386 . S
C95 C96 1.373 1_545 S
C96 C95 1.373 1_565 S
C96 C97 1.409 . S
C96 H118 0.931 . S
C97 C92 1.356 . S
C97 C96 1.409 . S
C97 H119 0.930 . S
C98 O108 1.270 . S
C98 O109 1.248 . S
C99 O110 1.267 . S
C99 O111 1.278 . S
O100 Pr80 2.562 . S
O100 C82 1.254 . S
O101 Pr80 2.490 . S
O101 C82 1.225 . S
O102 Pr80 2.695 . S
O102 Pr81 2.436 . S
O102 C89 1.270 . S
O103 Pr80 2.512 . S
O103 C89 1.248 . S
O104 Pr81 2.438 . S
O104 C90 1.267 . S
O105 Pr80 2.437 . S
O105 C90 1.278 . S
O106 Pr81 2.562 . S
O106 C91 1.254 . S
O107 Pr81 2.490 . S
O107 C91 1.225 . S
O108 Pr80 2.436 . S
O108 Pr81 2.695 . S
O108 C98 1.270 . S
O109 Pr81 2.512 . S
O109 C98 1.248 . S
O110 Pr80 2.438 . S
O110 C99 1.267 . S
O111 Pr81 2.437 . S
O111 C99 1.278 . S
H112 C84 0.929 . S
H113 C85 0.929 . S
H114 C87 0.931 . S
H115 C88 0.930 . S
H116 C93 0.929 . S
H117 C94 0.929 . S
H118 C96 0.931 . S
H119 C97 0.930 . S
Pr120 C122 2.880 1_655 S
Pr120 O140 2.562 . S
Pr120 O141 2.490 1_655 S
Pr120 O142 2.695 . S
Pr120 O143 2.512 . S
Pr120 O145 2.437 . S
Pr120 O148 2.436 . S
Pr120 O150 2.438 . S
Pr121 C131 2.880 . S
Pr121 O142 2.436 . S
Pr121 O144 2.438 . S
Pr121 O146 2.562 . S
Pr121 O147 2.490 . S
Pr121 O148 2.695 . S
Pr121 O149 2.512 . S
Pr121 O151 2.437 . S
C122 Pr120 2.880 1_455 S
C122 C123 1.491 . S
C122 O140 1.254 1_455 S
C122 O141 1.225 . S
C123 C122 1.491 . S
C123 C124 1.392 . S
C123 C128 1.356 . S
C124 C123 1.392 . S
C124 C125 1.368 . S
C124 H152 0.929 . S
C125 C124 1.368 . S
C125 C126 1.386 . S
C125 H153 0.929 . S
C126 C125 1.386 . S
C126 C127 1.373 . S
C127 C126 1.373 . S
C127 C128 1.409 . S
C127 H154 0.931 . S
C128 C123 1.356 . S
C128 C127 1.409 . S
C128 H155 0.930 1_455 S
C129 O142 1.270 . S
C129 O143 1.248 . S
C130 O144 1.267 . S
C130 O145 1.278 . S
C131 Pr121 2.880 . S
C131 C132 1.491 . S
C131 O146 1.254 . S
C131 O147 1.225 . S
C132 C131 1.491 . S
C132 C133 1.392 . S
C132 C137 1.356 . S
C133 C132 1.392 . S
C133 C134 1.368 . S
C133 H156 0.929 . S
C134 C133 1.368 . S
C134 C135 1.386 . S
C134 H157 0.929 . S
C135 C134 1.386 . S
C135 C136 1.373 . S
C136 C135 1.373 . S
C136 C137 1.409 . S
C136 H158 0.931 . S
C137 C132 1.356 . S
C137 C136 1.409 . S
C137 H159 0.930 . S
C138 O148 1.270 . S
C138 O149 1.248 . S
C139 O150 1.267 . S
C139 O151 1.278 . S
O140 Pr120 2.562 . S
O140 C122 1.254 1_655 S
O141 Pr120 2.490 1_455 S
O141 C122 1.225 . S
O142 Pr120 2.695 . S
O142 Pr121 2.436 . S
O142 C129 1.270 . S
O143 Pr120 2.512 . S
O143 C129 1.248 . S
O144 Pr121 2.438 . S
O144 C130 1.267 . S
O145 Pr120 2.437 . S
O145 C130 1.278 . S
O146 Pr121 2.562 . S
O146 C131 1.254 . S
O147 Pr121 2.490 . S
O147 C131 1.225 . S
O148 Pr120 2.436 . S
O148 Pr121 2.695 . S
O148 C138 1.270 . S
O149 Pr121 2.512 . S
O149 C138 1.248 . S
O150 Pr120 2.438 . S
O150 C139 1.267 . S
O151 Pr121 2.437 . S
O151 C139 1.278 . S
H152 C124 0.929 . S
H153 C125 0.929 . S
H154 C127 0.931 . S
H155 C128 0.930 1_655 S
H156 C133 0.929 . S
H157 C134 0.929 . S
H158 C136 0.931 . S
H159 C137 0.930 . S
Pr160 C162 2.880 . S
Pr160 O180 2.562 . S
Pr160 O181 2.490 . S
Pr160 O182 2.695 . S
Pr160 O183 2.512 . S
Pr160 O185 2.437 . S
Pr160 O188 2.436 . S
Pr160 O190 2.438 . S
Pr161 C171 2.880 . S
Pr161 O182 2.436 . S
Pr161 O184 2.438 . S
Pr161 O186 2.562 . S
Pr161 O187 2.490 . S
Pr161 O188 2.695 . S
Pr161 O189 2.512 . S
Pr161 O191 2.437 . S
C162 Pr160 2.880 . S
C162 C163 1.491 . S
C162 O180 1.254 . S
C162 O181 1.225 . S
C163 C162 1.491 . S
C163 C164 1.392 1_565 S
C163 C168 1.356 . S
C164 C163 1.392 1_545 S
C164 C165 1.368 . S
C164 H192 0.929 . S
C165 C164 1.368 . S
C165 C166 1.386 . S
C165 H193 0.929 . S
C166 C165 1.386 . S
C166 C167 1.373 1_545 S
C167 C166 1.373 1_565 S
C167 C168 1.409 . S
C167 H194 0.931 1_556 S
C168 C163 1.356 . S
C168 C167 1.409 . S
C168 H195 0.930 . S
C169 O182 1.270 . S
C169 O183 1.248 . S
C170 O184 1.267 . S
C170 O185 1.278 . S
C171 Pr161 2.880 . S
C171 C172 1.491 . S
C171 O186 1.254 . S
C171 O187 1.225 . S
C172 C171 1.491 . S
C172 C173 1.392 . S
C172 C177 1.356 . S
C173 C172 1.392 . S
C173 C174 1.368 . S
C173 H196 0.929 . S
C174 C173 1.368 . S
C174 C175 1.386 . S
C174 H197 0.929 . S
C175 C174 1.386 . S
C175 C176 1.373 . S
C176 C175 1.373 . S
C176 C177 1.409 . S
C176 H198 0.931 . S
C177 C172 1.356 . S
C177 C176 1.409 . S
C177 H199 0.930 . S
C178 O188 1.270 . S
C178 O189 1.248 . S
C179 O190 1.267 . S
C179 O191 1.278 . S
O180 Pr160 2.562 . S
O180 C162 1.254 . S
O181 Pr160 2.490 . S
O181 C162 1.225 . S
O182 Pr160 2.695 . S
O182 Pr161 2.436 . S
O182 C169 1.270 . S
O183 Pr160 2.512 . S
O183 C169 1.248 . S
O184 Pr161 2.438 . S
O184 C170 1.267 . S
O185 Pr160 2.437 . S
O185 C170 1.278 . S
O186 Pr161 2.562 . S
O186 C171 1.254 . S
O187 Pr161 2.490 . S
O187 C171 1.225 . S
O188 Pr160 2.436 . S
O188 Pr161 2.695 . S
O188 C178 1.270 . S
O189 Pr161 2.512 . S
O189 C178 1.248 . S
O190 Pr160 2.438 . S
O190 C179 1.267 . S
O191 Pr161 2.437 . S
O191 C179 1.278 . S
H192 C164 0.929 . S
H193 C165 0.929 . S
H194 C167 0.931 1_554 S
H195 C168 0.930 . S
H196 C173 0.929 . S
H197 C174 0.929 . S
H198 C176 0.931 . S
H199 C177 0.930 . S
Pr200 C202 2.880 . S
Pr200 O220 2.562 . S
Pr200 O221 2.490 . S
Pr200 O222 2.695 . S
Pr200 O223 2.512 . S
Pr200 O225 2.437 . S
Pr200 O228 2.436 . S
Pr200 O230 2.438 . S
Pr201 C211 2.880 . S
Pr201 O222 2.436 . S
Pr201 O224 2.438 . S
Pr201 O226 2.562 . S
Pr201 O227 2.490 . S
Pr201 O228 2.695 . S
Pr201 O229 2.512 . S
Pr201 O231 2.437 . S
C202 Pr200 2.880 . S
C202 C203 1.491 . S
C202 O220 1.254 . S
C202 O221 1.225 . S
C203 C202 1.491 . S
C203 C204 1.392 . S
C203 C208 1.356 . S
C204 C203 1.392 . S
C204 C205 1.368 . S
C204 H232 0.929 . S
C205 C204 1.368 . S
C205 C206 1.386 . S
C205 H233 0.929 . S
C206 C205 1.386 . S
C206 C207 1.373 . S
C207 C206 1.373 . S
C207 C208 1.409 . S
C207 H234 0.931 . S
C208 C203 1.356 . S
C208 C207 1.409 . S
C208 H235 0.930 . S
C209 O222 1.270 . S
C209 O223 1.248 . S
C210 O224 1.267 . S
C210 O225 1.278 . S
C211 Pr201 2.880 . S
C211 C212 1.491 . S
C211 O226 1.254 . S
C211 O227 1.225 . S
C212 C211 1.491 . S
C212 C213 1.392 . S
C212 C217 1.356 . S
C213 C212 1.392 . S
C213 C214 1.368 . S
C213 H236 0.929 . S
C214 C213 1.368 . S
C214 C215 1.386 . S
C214 H237 0.929 . S
C215 C214 1.386 . S
C215 C216 1.373 . S
C216 C215 1.373 . S
C216 C217 1.409 . S
C216 H238 0.931 . S
C217 C212 1.356 . S
C217 C216 1.409 . S
C217 H239 0.930 . S
C218 O228 1.270 . S
C218 O229 1.248 . S
C219 O230 1.267 . S
C219 O231 1.278 . S
O220 Pr200 2.562 . S
O220 C202 1.254 . S
O221 Pr200 2.490 . S
O221 C202 1.225 . S
O222 Pr200 2.695 . S
O222 Pr201 2.436 . S
O222 C209 1.270 . S
O223 Pr200 2.512 . S
O223 C209 1.248 . S
O224 Pr201 2.438 . S
O224 C210 1.267 . S
O225 Pr200 2.437 . S
O225 C210 1.278 . S
O226 Pr201 2.562 . S
O226 C211 1.254 . S
O227 Pr201 2.490 . S
O227 C211 1.225 . S
O228 Pr200 2.436 . S
O228 Pr201 2.695 . S
O228 C218 1.270 . S
O229 Pr201 2.512 . S
O229 C218 1.248 . S
O230 Pr200 2.438 . S
O230 C219 1.267 . S
O231 Pr201 2.437 . S
O231 C219 1.278 . S
H232 C204 0.929 . S
H233 C205 0.929 . S
H234 C207 0.931 . S
H235 C208 0.930 . S
H236 C213 0.929 . S
H237 C214 0.929 . S
H238 C216 0.931 . S
H239 C217 0.930 . S
Pr240 C242 2.880 . S
Pr240 O260 2.562 . S
Pr240 O261 2.490 . S
Pr240 O262 2.695 . S
Pr240 O263 2.512 . S
Pr240 O265 2.437 . S
Pr240 O268 2.436 . S
Pr240 O270 2.438 . S
Pr241 C251 2.880 . S
Pr241 O262 2.436 . S
Pr241 O264 2.438 . S
Pr241 O266 2.562 . S
Pr241 O267 2.490 . S
Pr241 O268 2.695 . S
Pr241 O269 2.512 . S
Pr241 O271 2.437 . S
C242 Pr240 2.880 . S
C242 C243 1.491 . S
C242 O260 1.254 . S
C242 O261 1.225 . S
C243 C242 1.491 . S
C243 C244 1.392 1_545 S
C243 C248 1.356 . S
C244 C243 1.392 1_565 S
C244 C245 1.368 . S
C244 H272 0.929 . S
C245 C244 1.368 . S
C245 C246 1.386 . S
C245 H273 0.929 . S
C246 C245 1.386 . S
C246 C247 1.373 1_565 S
C247 C246 1.373 1_545 S
C247 C248 1.409 . S
C247 H274 0.931 . S
C248 C243 1.356 . S
C248 C247 1.409 . S
C248 H275 0.930 . S
C249 O262 1.270 . S
C249 O263 1.248 . S
C250 O264 1.267 . S
C250 O265 1.278 . S
C251 Pr241 2.880 . S
C251 C252 1.491 . S
C251 O266 1.254 . S
C251 O267 1.225 . S
C252 C251 1.491 . S
C252 C253 1.392 . S
C252 C257 1.356 . S
C253 C252 1.392 . S
C253 C254 1.368 . S
C253 H276 0.929 . S
C254 C253 1.368 . S
C254 C255 1.386 . S
C254 H277 0.929 . S
C255 C254 1.386 . S
C255 C256 1.373 . S
C256 C255 1.373 . S
C256 C257 1.409 . S
C256 H278 0.931 . S
C257 C252 1.356 . S
C257 C256 1.409 . S
C257 H279 0.930 . S
C258 O268 1.270 . S
C258 O269 1.248 . S
C259 O270 1.267 . S
C259 O271 1.278 . S
O260 Pr240 2.562 . S
O260 C242 1.254 . S
O261 Pr240 2.490 . S
O261 C242 1.225 . S
O262 Pr240 2.695 . S
O262 Pr241 2.436 . S
O262 C249 1.270 . S
O263 Pr240 2.512 . S
O263 C249 1.248 . S
O264 Pr241 2.438 . S
O264 C250 1.267 . S
O265 Pr240 2.437 . S
O265 C250 1.278 . S
O266 Pr241 2.562 . S
O266 C251 1.254 . S
O267 Pr241 2.490 . S
O267 C251 1.225 . S
O268 Pr240 2.436 . S
O268 Pr241 2.695 . S
O268 C258 1.270 . S
O269 Pr241 2.512 . S
O269 C258 1.248 . S
O270 Pr240 2.438 . S
O270 C259 1.267 . S
O271 Pr241 2.437 . S
O271 C259 1.278 . S
H272 C244 0.929 . S
H273 C245 0.929 . S
H274 C247 0.931 . S
H275 C248 0.930 . S
H276 C253 0.929 . S
H277 C254 0.929 . S
H278 C256 0.931 . S
H279 C257 0.930 . S
Pr280 C282 2.880 . S
Pr280 O300 2.562 . S
Pr280 O301 2.490 . S
Pr280 O302 2.695 . S
Pr280 O303 2.512 . S
Pr280 O305 2.437 . S
Pr280 O308 2.436 . S
Pr280 O310 2.438 . S
Pr281 C291 2.880 1_455 S
Pr281 O302 2.436 . S
Pr281 O304 2.438 . S
Pr281 O306 2.562 . S
Pr281 O307 2.490 1_455 S
Pr281 O308 2.695 . S
Pr281 O309 2.512 . S
Pr281 O311 2.437 . S
C282 Pr280 2.880 . S
C282 C283 1.491 . S
C282 O300 1.254 . S
C282 O301 1.225 . S
C283 C282 1.491 . S
C283 C284 1.392 . S
C283 C288 1.356 . S
C284 C283 1.392 . S
C284 C285 1.368 . S
C284 H312 0.929 . S
C285 C284 1.368 . S
C285 C286 1.386 . S
C285 H313 0.929 . S
C286 C285 1.386 . S
C286 C287 1.373 . S
C287 C286 1.373 . S
C287 C288 1.409 . S
C287 H314 0.931 . S
C288 C283 1.356 . S
C288 C287 1.409 . S
C288 H315 0.930 . S
C289 O302 1.270 . S
C289 O303 1.248 . S
C290 O304 1.267 . S
C290 O305 1.278 . S
C291 Pr281 2.880 1_655 S
C291 C292 1.491 . S
C291 O306 1.254 1_655 S
C291 O307 1.225 . S
C292 C291 1.491 . S
C292 C293 1.392 . S
C292 C297 1.356 . S
C293 C292 1.392 . S
C293 C294 1.368 . S
C293 H316 0.929 . S
C294 C293 1.368 . S
C294 C295 1.386 . S
C294 H317 0.929 . S
C295 C294 1.386 . S
C295 C296 1.373 . S
C296 C295 1.373 . S
C296 C297 1.409 . S
C296 H318 0.931 . S
C297 C292 1.356 . S
C297 C296 1.409 . S
C297 H319 0.930 1_655 S
C298 O308 1.270 . S
C298 O309 1.248 . S
C299 O310 1.267 . S
C299 O311 1.278 . S
O300 Pr280 2.562 . S
O300 C282 1.254 . S
O301 Pr280 2.490 . S
O301 C282 1.225 . S
O302 Pr280 2.695 . S
O302 Pr281 2.436 . S
O302 C289 1.270 . S
O303 Pr280 2.512 . S
O303 C289 1.248 . S
O304 Pr281 2.438 . S
O304 C290 1.267 . S
O305 Pr280 2.437 . S
O305 C290 1.278 . S
O306 Pr281 2.562 . S
O306 C291 1.254 1_455 S
O307 Pr281 2.490 1_655 S
O307 C291 1.225 . S
O308 Pr280 2.436 . S
O308 Pr281 2.695 . S
O308 C298 1.270 . S
O309 Pr281 2.512 . S
O309 C298 1.248 . S
O310 Pr280 2.438 . S
O310 C299 1.267 . S
O311 Pr281 2.437 . S
O311 C299 1.278 . S
H312 C284 0.929 . S
H313 C285 0.929 . S
H314 C287 0.931 . S
H315 C288 0.930 . S
H316 C293 0.929 . S
H317 C294 0.929 . S
H318 C296 0.931 . S
H319 C297 0.930 1_455 S
Pr320 C322 2.880 . S
Pr320 O340 2.562 . S
Pr320 O341 2.490 . S
Pr320 O342 2.695 . S
Pr320 O343 2.512 . S
Pr320 O345 2.437 . S
Pr320 O348 2.436 . S
Pr320 O350 2.438 . S
Pr321 C331 2.880 . S
Pr321 O342 2.436 . S
Pr321 O344 2.438 . S
Pr321 O346 2.562 . S
Pr321 O347 2.490 . S
Pr321 O348 2.695 . S
Pr321 O349 2.512 . S
Pr321 O351 2.437 . S
C322 Pr320 2.880 . S
C322 C323 1.491 . S
C322 O340 1.254 . S
C322 O341 1.225 . S
C323 C322 1.491 . S
C323 C324 1.392 . S
C323 C328 1.356 . S
C324 C323 1.392 . S
C324 C325 1.368 . S
C324 H352 0.929 . S
C325 C324 1.368 . S
C325 C326 1.386 . S
C325 H353 0.929 . S
C326 C325 1.386 . S
C326 C327 1.373 . S
C327 C326 1.373 . S
C327 C328 1.409 . S
C327 H354 0.931 . S
C328 C323 1.356 . S
C328 C327 1.409 . S
C328 H355 0.930 . S
C329 O342 1.270 . S
C329 O343 1.248 . S
C330 O344 1.267 . S
C330 O345 1.278 . S
C331 Pr321 2.880 . S
C331 C332 1.491 . S
C331 O346 1.254 . S
C331 O347 1.225 . S
C332 C331 1.491 . S
C332 C333 1.392 . S
C332 C337 1.356 . S
C333 C332 1.392 . S
C333 C334 1.368 . S
C333 H356 0.929 . S
C334 C333 1.368 . S
C334 C335 1.386 . S
C334 H357 0.929 . S
C335 C334 1.386 . S
C335 C336 1.373 . S
C336 C335 1.373 . S
C336 C337 1.409 . S
C336 H358 0.931 . S
C337 C332 1.356 . S
C337 C336 1.409 . S
C337 H359 0.930 . S
C338 O348 1.270 . S
C338 O349 1.248 . S
C339 O350 1.267 . S
C339 O351 1.278 . S
O340 Pr320 2.562 . S
O340 C322 1.254 . S
O341 Pr320 2.490 . S
O341 C322 1.225 . S
O342 Pr320 2.695 . S
O342 Pr321 2.436 . S
O342 C329 1.270 . S
O343 Pr320 2.512 . S
O343 C329 1.248 . S
O344 Pr321 2.438 . S
O344 C330 1.267 . S
O345 Pr320 2.437 . S
O345 C330 1.278 . S
O346 Pr321 2.562 . S
O346 C331 1.254 . S
O347 Pr321 2.490 . S
O347 C331 1.225 . S
O348 Pr320 2.436 . S
O348 Pr321 2.695 . S
O348 C338 1.270 . S
O349 Pr321 2.512 . S
O349 C338 1.248 . S
O350 Pr320 2.438 . S
O350 C339 1.267 . S
O351 Pr321 2.437 . S
O351 C339 1.278 . S
H352 C324 0.929 . S
H353 C325 0.929 . S
H354 C327 0.931 . S
H355 C328 0.930 . S
H356 C333 0.929 . S
H357 C334 0.929 . S
H358 C336 0.931 . S
H359 C337 0.930 . S
Pr360 C362 2.880 1_445 S
Pr360 O380 2.562 1_545 S
Pr360 O381 2.490 1_455 S
Pr360 O382 2.695 . S
Pr360 O383 2.512 . S
Pr360 O385 2.437 . S
Pr360 O388 2.436 . S
Pr360 O390 2.438 . S
Pr361 C371 2.880 . S
Pr361 O382 2.436 . S
Pr361 O384 2.438 . S
Pr361 O386 2.562 . S
Pr361 O387 2.490 . S
Pr361 O388 2.695 . S
Pr361 O389 2.512 . S
Pr361 O391 2.437 . S
C362 Pr360 2.880 1_665 S
C362 C363 1.491 . S
C362 O380 1.254 1_655 S
C362 O381 1.225 1_565 S
C363 C362 1.491 . S
C363 C364 1.392 . S
C363 C368 1.356 . S
C364 C363 1.392 . S
C364 C365 1.368 . S
C364 H392 0.929 1_565 S
C365 C364 1.368 . S
C365 C366 1.386 . S
C365 H393 0.929 . S
C366 C365 1.386 . S
C366 C367 1.373 . S
C367 C366 1.373 . S
C367 C368 1.409 . S
C367 H394 0.931 . S
C368 C363 1.356 . S
C368 C367 1.409 . S
C368 H395 0.930 1_655 S
C369 O382 1.270 . S
C369 O383 1.248 . S
C370 O384 1.267 . S
C370 O385 1.278 . S
C371 Pr361 2.880 . S
C371 C372 1.491 . S
C371 O386 1.254 . S
C371 O387 1.225 . S
C372 C371 1.491 . S
C372 C373 1.392 . S
C372 C377 1.356 . S
C373 C372 1.392 . S
C373 C374 1.368 . S
C373 H396 0.929 . S
C374 C373 1.368 . S
C374 C375 1.386 . S
C374 H397 0.929 . S
C375 C374 1.386 . S
C375 C376 1.373 . S
C376 C375 1.373 . S
C376 C377 1.409 . S
C376 H398 0.931 . S
C377 C372 1.356 . S
C377 C376 1.409 . S
C377 H399 0.930 . S
C378 O388 1.270 1_565 S
C378 O389 1.248 1_565 S
C379 O390 1.267 . S
C379 O391 1.278 . S
O380 Pr360 2.562 1_565 S
O380 C362 1.254 1_455 S
O381 Pr360 2.490 1_655 S
O381 C362 1.225 1_545 S
O382 Pr360 2.695 . S
O382 Pr361 2.436 . S
O382 C369 1.270 . S
O383 Pr360 2.512 . S
O383 C369 1.248 . S
O384 Pr361 2.438 . S
O384 C370 1.267 . S
O385 Pr360 2.437 . S
O385 C370 1.278 . S
O386 Pr361 2.562 . S
O386 C371 1.254 . S
O387 Pr361 2.490 . S
O387 C371 1.225 . S
O388 Pr360 2.436 . S
O388 Pr361 2.695 . S
O388 C378 1.270 1_545 S
O389 Pr361 2.512 . S
O389 C378 1.248 1_545 S
O390 Pr360 2.438 . S
O390 C379 1.267 . S
O391 Pr361 2.437 . S
O391 C379 1.278 . S
H392 C364 0.929 1_545 S
H393 C365 0.929 . S
H394 C367 0.931 . S
H395 C368 0.930 1_455 S
H396 C373 0.929 . S
H397 C374 0.929 . S
H398 C376 0.931 . S
H399 C377 0.930 . S
Pr400 C402 2.880 . S
Pr400 O420 2.562 . S
Pr400 O421 2.490 . S
Pr400 O422 2.695 . S
Pr400 O423 2.512 . S
Pr400 O425 2.437 . S
Pr400 O428 2.436 . S
Pr400 O430 2.438 . S
Pr401 C411 2.880 . S
Pr401 O422 2.436 . S
Pr401 O424 2.438 . S
Pr401 O426 2.562 . S
Pr401 O427 2.490 . S
Pr401 O428 2.695 . S
Pr401 O429 2.512 . S
Pr401 O431 2.437 . S
C402 Pr400 2.880 . S
C402 C403 1.491 . S
C402 O420 1.254 . S
C402 O421 1.225 . S
C403 C402 1.491 . S
C403 C404 1.392 . S
C403 C408 1.356 . S
C404 C403 1.392 . S
C404 C405 1.368 . S
C404 H432 0.929 . S
C405 C404 1.368 . S
C405 C406 1.386 . S
C405 H433 0.929 . S
C406 C405 1.386 . S
C406 C407 1.373 . S
C407 C406 1.373 . S
C407 C408 1.409 . S
C407 H434 0.931 . S
C408 C403 1.356 . S
C408 C407 1.409 . S
C408 H435 0.930 . S
C409 O422 1.270 . S
C409 O423 1.248 . S
C410 O424 1.267 . S
C410 O425 1.278 . S
C411 Pr401 2.880 . S
C411 C412 1.491 . S
C411 O426 1.254 . S
C411 O427 1.225 . S
C412 C411 1.491 . S
C412 C413 1.392 . S
C412 C417 1.356 . S
C413 C412 1.392 . S
C413 C414 1.368 . S
C413 H436 0.929 . S
C414 C413 1.368 . S
C414 C415 1.386 . S
C414 H437 0.929 . S
C415 C414 1.386 . S
C415 C416 1.373 . S
C416 C415 1.373 . S
C416 C417 1.409 . S
C416 H438 0.931 1_554 S
C417 C412 1.356 . S
C417 C416 1.409 . S
C417 H439 0.930 . S
C418 O428 1.270 . S
C418 O429 1.248 . S
C419 O430 1.267 . S
C419 O431 1.278 . S
O420 Pr400 2.562 . S
O420 C402 1.254 . S
O421 Pr400 2.490 . S
O421 C402 1.225 . S
O422 Pr400 2.695 . S
O422 Pr401 2.436 . S
O422 C409 1.270 . S
O423 Pr400 2.512 . S
O423 C409 1.248 . S
O424 Pr401 2.438 . S
O424 C410 1.267 . S
O425 Pr400 2.437 . S
O425 C410 1.278 . S
O426 Pr401 2.562 . S
O426 C411 1.254 . S
O427 Pr401 2.490 . S
O427 C411 1.225 . S
O428 Pr400 2.436 . S
O428 Pr401 2.695 . S
O428 C418 1.270 . S
O429 Pr401 2.512 . S
O429 C418 1.248 . S
O430 Pr400 2.438 . S
O430 C419 1.267 . S
O431 Pr401 2.437 . S
O431 C419 1.278 . S
H432 C404 0.929 . S
H433 C405 0.929 . S
H434 C407 0.931 . S
H435 C408 0.930 . S
H436 C413 0.929 . S
H437 C414 0.929 . S
H438 C416 0.931 1_556 S
H439 C417 0.930 . S
Pr440 C442 2.880 1_565 S
Pr440 O460 2.562 1_565 S
Pr440 O461 2.490 . S
Pr440 O462 2.695 . S
Pr440 O463 2.512 . S
Pr440 O465 2.437 . S
Pr440 O468 2.436 . S
Pr440 O470 2.438 . S
Pr441 C451 2.880 . S
Pr441 O462 2.436 . S
Pr441 O464 2.438 . S
Pr441 O466 2.562 . S
Pr441 O467 2.490 . S
Pr441 O468 2.695 . S
Pr441 O469 2.512 . S
Pr441 O471 2.437 . S
C442 Pr440 2.880 1_545 S
C442 C443 1.491 . S
C442 O460 1.254 . S
C442 O461 1.225 1_545 S
C443 C442 1.491 . S
C443 C444 1.392 . S
C443 C448 1.356 . S
C444 C443 1.392 . S
C444 C445 1.368 . S
C444 H472 0.929 1_545 S
C445 C444 1.368 . S
C445 C446 1.386 . S
C445 H473 0.929 . S
C446 C445 1.386 . S
C446 C447 1.373 . S
C447 C446 1.373 . S
C447 C448 1.409 . S
C447 H474 0.931 . S
C448 C443 1.356 . S
C448 C447 1.409 . S
C448 H475 0.930 . S
C449 O462 1.270 . S
C449 O463 1.248 . S
C450 O464 1.267 . S
C450 O465 1.278 . S
C451 Pr441 2.880 . S
C451 C452 1.491 . S
C451 O466 1.254 . S
C451 O467 1.225 . S
C452 C451 1.491 . S
C452 C453 1.392 . S
C452 C457 1.356 . S
C453 C452 1.392 . S
C453 C454 1.368 . S
C453 H476 0.929 . S
C454 C453 1.368 . S
C454 C455 1.386 . S
C454 H477 0.929 . S
C455 C454 1.386 . S
C455 C456 1.373 . S
C456 C455 1.373 . S
C456 C457 1.409 . S
C456 H478 0.931 . S
C457 C452 1.356 . S
C457 C456 1.409 . S
C457 H479 0.930 . S
C458 O468 1.270 1_545 S
C458 O469 1.248 1_545 S
C459 O470 1.267 . S
C459 O471 1.278 . S
O460 Pr440 2.562 1_545 S
O460 C442 1.254 . S
O461 Pr440 2.490 . S
O461 C442 1.225 1_565 S
O462 Pr440 2.695 . S
O462 Pr441 2.436 . S
O462 C449 1.270 . S
O463 Pr440 2.512 . S
O463 C449 1.248 . S
O464 Pr441 2.438 . S
O464 C450 1.267 . S
O465 Pr440 2.437 . S
O465 C450 1.278 . S
O466 Pr441 2.562 . S
O466 C451 1.254 . S
O467 Pr441 2.490 . S
O467 C451 1.225 . S
O468 Pr440 2.436 . S
O468 Pr441 2.695 . S
O468 C458 1.270 1_565 S
O469 Pr441 2.512 . S
O469 C458 1.248 1_565 S
O470 Pr440 2.438 . S
O470 C459 1.267 . S
O471 Pr441 2.437 . S
O471 C459 1.278 . S
H472 C444 0.929 1_565 S
H473 C445 0.929 . S
H474 C447 0.931 . S
H475 C448 0.930 . S
H476 C453 0.929 . S
H477 C454 0.929 . S
H478 C456 0.931 . S
H479 C457 0.930 . S
Pr480 C482 2.880 . S
Pr480 O500 2.562 . S
Pr480 O501 2.490 . S
Pr480 O502 2.695 . S
Pr480 O503 2.512 . S
Pr480 O505 2.437 . S
Pr480 O508 2.436 . S
Pr480 O510 2.438 . S
Pr481 C491 2.880 . S
Pr481 O502 2.436 . S
Pr481 O504 2.438 . S
Pr481 O506 2.562 . S
Pr481 O507 2.490 . S
Pr481 O508 2.695 . S
Pr481 O509 2.512 . S
Pr481 O511 2.437 . S
C482 Pr480 2.880 . S
C482 C483 1.491 . S
C482 O500 1.254 . S
C482 O501 1.225 . S
C483 C482 1.491 . S
C483 C484 1.392 . S
C483 C488 1.356 . S
C484 C483 1.392 . S
C484 C485 1.368 . S
C484 H512 0.929 . S
C485 C484 1.368 . S
C485 C486 1.386 . S
C485 H513 0.929 . S
C486 C485 1.386 . S
C486 C487 1.373 . S
C487 C486 1.373 . S
C487 C488 1.409 . S
C487 H514 0.931 . S
C488 C483 1.356 . S
C488 C487 1.409 . S
C488 H515 0.930 . S
C489 O502 1.270 . S
C489 O503 1.248 . S
C490 O504 1.267 . S
C490 O505 1.278 . S
C491 Pr481 2.880 . S
C491 C492 1.491 . S
C491 O506 1.254 . S
C491 O507 1.225 . S
C492 C491 1.491 . S
C492 C493 1.392 . S
C492 C497 1.356 . S
C493 C492 1.392 . S
C493 C494 1.368 . S
C493 H516 0.929 . S
C494 C493 1.368 . S
C494 C495 1.386 . S
C494 H517 0.929 . S
C495 C494 1.386 . S
C495 C496 1.373 . S
C496 C495 1.373 . S
C496 C497 1.409 . S
C496 H518 0.931 . S
C497 C492 1.356 . S
C497 C496 1.409 . S
C497 H519 0.930 . S
C498 O508 1.270 . S
C498 O509 1.248 . S
C499 O510 1.267 . S
C499 O511 1.278 . S
O500 Pr480 2.562 . S
O500 C482 1.254 . S
O501 Pr480 2.490 . S
O501 C482 1.225 . S
O502 Pr480 2.695 . S
O502 Pr481 2.436 . S
O502 C489 1.270 . S
O503 Pr480 2.512 . S
O503 C489 1.248 . S
O504 Pr481 2.438 . S
O504 C490 1.267 . S
O505 Pr480 2.437 . S
O505 C490 1.278 . S
O506 Pr481 2.562 . S
O506 C491 1.254 . S
O507 Pr481 2.490 . S
O507 C491 1.225 . S
O508 Pr480 2.436 . S
O508 Pr481 2.695 . S
O508 C498 1.270 . S
O509 Pr481 2.512 . S
O509 C498 1.248 . S
O510 Pr480 2.438 . S
O510 C499 1.267 . S
O511 Pr481 2.437 . S
O511 C499 1.278 . S
H512 C484 0.929 . S
H513 C485 0.929 . S
H514 C487 0.931 . S
H515 C488 0.930 . S
H516 C493 0.929 . S
H517 C494 0.929 . S
H518 C496 0.931 . S
H519 C497 0.930 . S
Pr520 C522 2.880 . S
Pr520 O540 2.562 . S
Pr520 O541 2.490 . S
Pr520 O542 2.695 . S
Pr520 O543 2.512 . S
Pr520 O545 2.437 . S
Pr520 O548 2.436 . S
Pr520 O550 2.438 . S
Pr521 C531 2.880 1_665 S
Pr521 O542 2.436 . S
Pr521 O544 2.438 . S
Pr521 O546 2.562 1_565 S
Pr521 O547 2.490 1_655 S
Pr521 O548 2.695 . S
Pr521 O549 2.512 . S
Pr521 O551 2.437 . S
C522 Pr520 2.880 . S
C522 C523 1.491 . S
C522 O540 1.254 . S
C522 O541 1.225 . S
C523 C522 1.491 . S
C523 C524 1.392 . S
C523 C528 1.356 . S
C524 C523 1.392 . S
C524 C525 1.368 . S
C524 H552 0.929 . S
C525 C524 1.368 . S
C525 C526 1.386 . S
C525 H553 0.929 . S
C526 C525 1.386 . S
C526 C527 1.373 . S
C527 C526 1.373 . S
C527 C528 1.409 . S
C527 H554 0.931 . S
C528 C523 1.356 . S
C528 C527 1.409 . S
C528 H555 0.930 . S
C529 O542 1.270 1_545 S
C529 O543 1.248 1_545 S
C530 O544 1.267 . S
C530 O545 1.278 . S
C531 Pr521 2.880 1_445 S
C531 C532 1.491 . S
C531 O546 1.254 1_455 S
C531 O547 1.225 1_545 S
C532 C531 1.491 . S
C532 C533 1.392 . S
C532 C537 1.356 . S
C533 C532 1.392 . S
C533 C534 1.368 . S
C533 H556 0.929 1_545 S
C534 C533 1.368 . S
C534 C535 1.386 . S
C534 H557 0.929 . S
C535 C534 1.386 . S
C535 C536 1.373 . S
C536 C535 1.373 . S
C536 C537 1.409 . S
C536 H558 0.931 . S
C537 C532 1.356 . S
C537 C536 1.409 . S
C537 H559 0.930 1_455 S
C538 O548 1.270 . S
C538 O549 1.248 . S
C539 O550 1.267 . S
C539 O551 1.278 . S
O540 Pr520 2.562 . S
O540 C522 1.254 . S
O541 Pr520 2.490 . S
O541 C522 1.225 . S
O542 Pr520 2.695 . S
O542 Pr521 2.436 . S
O542 C529 1.270 1_565 S
O543 Pr520 2.512 . S
O543 C529 1.248 1_565 S
O544 Pr521 2.438 . S
O544 C530 1.267 . S
O545 Pr520 2.437 . S
O545 C530 1.278 . S
O546 Pr521 2.562 1_545 S
O546 C531 1.254 1_655 S
O547 Pr521 2.490 1_455 S
O547 C531 1.225 1_565 S
O548 Pr520 2.436 . S
O548 Pr521 2.695 . S
O548 C538 1.270 . S
O549 Pr521 2.512 . S
O549 C538 1.248 . S
O550 Pr520 2.438 . S
O550 C539 1.267 . S
O551 Pr521 2.437 . S
O551 C539 1.278 . S
H552 C524 0.929 . S
H553 C525 0.929 . S
H554 C527 0.931 . S
H555 C528 0.930 . S
H556 C533 0.929 1_565 S
H557 C534 0.929 . S
H558 C536 0.931 . S
H559 C537 0.930 1_655 S
Pr560 C562 2.880 . S
Pr560 O580 2.562 . S
Pr560 O581 2.490 . S
Pr560 O582 2.695 . S
Pr560 O583 2.512 . S
Pr560 O585 2.437 . S
Pr560 O588 2.436 . S
Pr560 O590 2.438 . S
Pr561 C571 2.880 . S
Pr561 O582 2.436 . S
Pr561 O584 2.438 . S
Pr561 O586 2.562 . S
Pr561 O587 2.490 . S
Pr561 O588 2.695 . S
Pr561 O589 2.512 . S
Pr561 O591 2.437 . S
C562 Pr560 2.880 . S
C562 C563 1.491 . S
C562 O580 1.254 . S
C562 O581 1.225 . S
C563 C562 1.491 . S
C563 C564 1.392 . S
C563 C568 1.356 . S
C564 C563 1.392 . S
C564 C565 1.368 . S
C564 H592 0.929 . S
C565 C564 1.368 . S
C565 C566 1.386 . S
C565 H593 0.929 . S
C566 C565 1.386 . S
C566 C567 1.373 . S
C567 C566 1.373 . S
C567 C568 1.409 . S
C567 H594 0.931 1_556 S
C568 C563 1.356 . S
C568 C567 1.409 . S
C568 H595 0.930 . S
C569 O582 1.270 . S
C569 O583 1.248 . S
C570 O584 1.267 . S
C570 O585 1.278 . S
C571 Pr561 2.880 . S
C571 C572 1.491 . S
C571 O586 1.254 . S
C571 O587 1.225 . S
C572 C571 1.491 . S
C572 C573 1.392 . S
C572 C577 1.356 . S
C573 C572 1.392 . S
C573 C574 1.368 . S
C573 H596 0.929 . S
C574 C573 1.368 . S
C574 C575 1.386 . S
C574 H597 0.929 . S
C575 C574 1.386 . S
C575 C576 1.373 . S
C576 C575 1.373 . S
C576 C577 1.409 . S
C576 H598 0.931 . S
C577 C572 1.356 . S
C577 C576 1.409 . S
C577 H599 0.930 . S
C578 O588 1.270 . S
C578 O589 1.248 . S
C579 O590 1.267 . S
C579 O591 1.278 . S
O580 Pr560 2.562 . S
O580 C562 1.254 . S
O581 Pr560 2.490 . S
O581 C562 1.225 . S
O582 Pr560 2.695 . S
O582 Pr561 2.436 . S
O582 C569 1.270 . S
O583 Pr560 2.512 . S
O583 C569 1.248 . S
O584 Pr561 2.438 . S
O584 C570 1.267 . S
O585 Pr560 2.437 . S
O585 C570 1.278 . S
O586 Pr561 2.562 . S
O586 C571 1.254 . S
O587 Pr561 2.490 . S
O587 C571 1.225 . S
O588 Pr560 2.436 . S
O588 Pr561 2.695 . S
O588 C578 1.270 . S
O589 Pr561 2.512 . S
O589 C578 1.248 . S
O590 Pr560 2.438 . S
O590 C579 1.267 . S
O591 Pr561 2.437 . S
O591 C579 1.278 . S
H592 C564 0.929 . S
H593 C565 0.929 . S
H594 C567 0.931 1_554 S
H595 C568 0.930 . S
H596 C573 0.929 . S
H597 C574 0.929 . S
H598 C576 0.931 . S
H599 C577 0.930 . S
Pr600 C602 2.880 . S
Pr600 O620 2.562 . S
Pr600 O621 2.490 . S
Pr600 O622 2.695 . S
Pr600 O623 2.512 . S
Pr600 O625 2.437 . S
Pr600 O628 2.436 . S
Pr600 O630 2.438 . S
Pr601 C611 2.880 1_545 S
Pr601 O622 2.436 . S
Pr601 O624 2.438 . S
Pr601 O626 2.562 1_545 S
Pr601 O627 2.490 . S
Pr601 O628 2.695 . S
Pr601 O629 2.512 . S
Pr601 O631 2.437 . S
C602 Pr600 2.880 . S
C602 C603 1.491 . S
C602 O620 1.254 . S
C602 O621 1.225 . S
C603 C602 1.491 . S
C603 C604 1.392 . S
C603 C608 1.356 . S
C604 C603 1.392 . S
C604 C605 1.368 . S
C604 H632 0.929 . S
C605 C604 1.368 . S
C605 C606 1.386 . S
C605 H633 0.929 . S
C606 C605 1.386 . S
C606 C607 1.373 . S
C607 C606 1.373 . S
C607 C608 1.409 . S
C607 H634 0.931 . S
C608 C603 1.356 . S
C608 C607 1.409 . S
C608 H635 0.930 . S
C609 O622 1.270 1_565 S
C609 O623 1.248 1_565 S
C610 O624 1.267 . S
C610 O625 1.278 . S
C611 Pr601 2.880 1_565 S
C611 C612 1.491 . S
C611 O626 1.254 . S
C611 O627 1.225 1_565 S
C612 C611 1.491 . S
C612 C613 1.392 . S
C612 C617 1.356 . S
C613 C612 1.392 . S
C613 C614 1.368 . S
C613 H636 0.929 1_565 S
C614 C613 1.368 . S
C614 C615 1.386 . S
C614 H637 0.929 . S
C615 C614 1.386 . S
C615 C616 1.373 . S
C616 C615 1.373 . S
C616 C617 1.409 . S
C616 H638 0.931 . S
C617 C612 1.356 . S
C617 C616 1.409 . S
C617 H639 0.930 . S
C618 O628 1.270 . S
C618 O629 1.248 . S
C619 O630 1.267 . S
C619 O631 1.278 . S
O620 Pr600 2.562 . S
O620 C602 1.254 . S
O621 Pr600 2.490 . S
O621 C602 1.225 . S
O622 Pr600 2.695 . S
O622 Pr601 2.436 . S
O622 C609 1.270 1_545 S
O623 Pr600 2.512 . S
O623 C609 1.248 1_545 S
O624 Pr601 2.438 . S
O624 C610 1.267 . S
O625 Pr600 2.437 . S
O625 C610 1.278 . S
O626 Pr601 2.562 1_565 S
O626 C611 1.254 . S
O627 Pr601 2.490 . S
O627 C611 1.225 1_545 S
O628 Pr600 2.436 . S
O628 Pr601 2.695 . S
O628 C618 1.270 . S
O629 Pr601 2.512 . S
O629 C618 1.248 . S
O630 Pr600 2.438 . S
O630 C619 1.267 . S
O631 Pr601 2.437 . S
O631 C619 1.278 . S
H632 C604 0.929 . S
H633 C605 0.929 . S
H634 C607 0.931 . S
H635 C608 0.930 . S
H636 C613 0.929 1_545 S
H637 C614 0.929 . S
H638 C616 0.931 . S
H639 C617 0.930 . S
C640 C641 1.369 . S
C640 C642 1.419 . S
C640 H644 0.930 . S
C641 C640 1.369 . S
C641 C650 1.429 . S
C642 C640 1.419 . S
C642 C643 1.363 . S
C642 H645 0.929 . S
C643 C642 1.363 . S
C643 C649 1.428 . S
H644 C640 0.930 . S
H645 C642 0.929 . S
S646 N647 1.613 . S
S646 N648 1.610 . S
N647 S646 1.613 . S
N647 C650 1.350 . S
N648 S646 1.610 . S
N648 C649 1.351 . S
C649 C643 1.428 . S
C649 N648 1.351 . S
C649 C650 1.434 . S
C650 C641 1.429 . S
C650 N647 1.350 . S
C650 C649 1.434 . S
C651 C652 1.369 . S
C651 C653 1.419 . S
C651 H655 0.930 . S
C652 C651 1.369 . S
C652 C661 1.429 . S
C653 C651 1.419 . S
C653 C654 1.363 . S
C653 H656 0.929 . S
C654 C653 1.363 . S
C654 C660 1.428 . S
H655 C651 0.930 . S
H656 C653 0.929 . S
S657 N658 1.613 . S
S657 N659 1.610 . S
N658 S657 1.613 . S
N658 C661 1.350 . S
N659 S657 1.610 . S
N659 C660 1.351 . S
C660 C654 1.428 . S
C660 N659 1.351 . S
C660 C661 1.434 . S
C661 C652 1.429 . S
C661 N658 1.350 . S
C661 C660 1.434 . S
C662 C663 1.369 . S
C662 C664 1.419 1_455 S
C662 H666 0.930 . S
C663 C662 1.369 . S
C663 C672 1.429 . S
C664 C662 1.419 1_655 S
C664 C665 1.363 . S
C664 H667 0.929 . S
C665 C664 1.363 . S
C665 C671 1.428 . S
H666 C662 0.930 . S
H667 C664 0.929 . S
S668 N669 1.613 . S
S668 N670 1.610 1_455 S
N669 S668 1.613 . S
N669 C672 1.350 . S
N670 S668 1.610 1_655 S
N670 C671 1.351 . S
C671 C665 1.428 . S
C671 N670 1.351 . S
C671 C672 1.434 1_655 S
C672 C663 1.429 . S
C672 N669 1.350 . S
C672 C671 1.434 1_455 S
C673 C674 1.369 . S
C673 C675 1.419 . S
C673 H677 0.930 . S
C674 C673 1.369 . S
C674 C683 1.429 1_455 S
C675 C673 1.419 . S
C675 C676 1.363 1_455 S
C675 H678 0.929 . S
C676 C675 1.363 1_655 S
C676 C682 1.428 . S
H677 C673 0.930 . S
H678 C675 0.929 . S
S679 N680 1.613 . S
S679 N681 1.610 . S
N680 S679 1.613 . S
N680 C683 1.350 . S
N681 S679 1.610 . S
N681 C682 1.351 . S
C682 C676 1.428 . S
C682 N681 1.351 . S
C682 C683 1.434 . S
C683 C674 1.429 1_655 S
C683 N680 1.350 . S
C683 C682 1.434 . S
C684 C685 1.369 . S
C684 C686 1.419 . S
C684 H688 0.930 . S
C685 C684 1.369 . S
C685 C694 1.429 . S
C686 C684 1.419 . S
C686 C687 1.363 . S
C686 H689 0.929 . S
C687 C686 1.363 . S
C687 C693 1.428 . S
H688 C684 0.930 . S
H689 C686 0.929 . S
S690 N691 1.613 . S
S690 N692 1.610 . S
N691 S690 1.613 . S
N691 C694 1.350 . S
N692 S690 1.610 . S
N692 C693 1.351 . S
C693 C687 1.428 . S
C693 N692 1.351 . S
C693 C694 1.434 . S
C694 C685 1.429 . S
C694 N691 1.350 . S
C694 C693 1.434 . S
C695 C696 1.369 . S
C695 C697 1.419 . S
C695 H699 0.930 . S
C696 C695 1.369 . S
C696 C705 1.429 . S
C697 C695 1.419 . S
C697 C698 1.363 . S
C697 H700 0.929 . S
C698 C697 1.363 . S
C698 C704 1.428 . S
H699 C695 0.930 . S
H700 C697 0.929 . S
S701 N702 1.613 . S
S701 N703 1.610 . S
N702 S701 1.613 . S
N702 C705 1.350 . S
N703 S701 1.610 . S
N703 C704 1.351 . S
C704 C698 1.428 . S
C704 N703 1.351 . S
C704 C705 1.434 . S
C705 C696 1.429 . S
C705 N702 1.350 . S
C705 C704 1.434 . S
C706 C707 1.369 . S
C706 C708 1.419 1_455 S
C706 H710 0.930 . S
C707 C706 1.369 . S
C707 C716 1.429 . S
C708 C706 1.419 1_655 S
C708 C709 1.363 . S
C708 H711 0.929 . S
C709 C708 1.363 . S
C709 C715 1.428 . S
H710 C706 0.930 . S
H711 C708 0.929 . S
S712 N713 1.613 . S
S712 N714 1.610 1_455 S
N713 S712 1.613 . S
N713 C716 1.350 . S
N714 S712 1.610 1_655 S
N714 C715 1.351 . S
C715 C709 1.428 . S
C715 N714 1.351 . S
C715 C716 1.434 1_655 S
C716 C707 1.429 . S
C716 N713 1.350 . S
C716 C715 1.434 1_455 S
C717 C718 1.369 1_655 S
C717 C719 1.419 . S
C717 H721 0.930 . S
C718 C717 1.369 1_455 S
C718 C727 1.429 . S
C719 C717 1.419 . S
C719 C720 1.363 . S
C719 H722 0.929 . S
C720 C719 1.363 . S
C720 C726 1.428 1_655 S
H721 C717 0.930 . S
H722 C719 0.929 . S
S723 N724 1.613 . S
S723 N725 1.610 . S
N724 S723 1.613 . S
N724 C727 1.350 . S
N725 S723 1.610 . S
N725 C726 1.351 . S
C726 C720 1.428 1_455 S
C726 N725 1.351 . S
C726 C727 1.434 . S
C727 C718 1.429 . S
C727 N724 1.350 . S
C727 C726 1.434 . S
C728 C729 1.369 1_544 S
C728 C730 1.419 . S
C728 H732 0.930 . S
C729 C728 1.369 1_566 S
C729 C738 1.429 . S
C730 C728 1.419 . S
C730 C731 1.363 . S
C730 H733 0.929 . S
C731 C730 1.363 . S
C731 C737 1.428 1_544 S
H732 C728 0.930 . S
H733 C730 0.929 . S
S734 N735 1.613 . S
S734 N736 1.610 . S
N735 S734 1.613 . S
N735 C738 1.350 . S
N736 S734 1.610 . S
N736 C737 1.351 . S
C737 C731 1.428 1_566 S
C737 N736 1.351 . S
C737 C738 1.434 . S
C738 C729 1.429 . S
C738 N735 1.350 . S
C738 C737 1.434 . S
C739 C740 1.369 . S
C739 C741 1.419 . S
C739 H743 0.930 . S
C740 C739 1.369 . S
C740 C749 1.429 . S
C741 C739 1.419 . S
C741 C742 1.363 . S
C741 H744 0.929 . S
C742 C741 1.363 . S
C742 C748 1.428 . S
H743 C739 0.930 . S
H744 C741 0.929 . S
S745 N746 1.613 . S
S745 N747 1.610 . S
N746 S745 1.613 . S
N746 C749 1.350 . S
N747 S745 1.610 . S
N747 C748 1.351 . S
C748 C742 1.428 . S
C748 N747 1.351 . S
C748 C749 1.434 . S
C749 C740 1.429 . S
C749 N746 1.350 . S
C749 C748 1.434 . S
C750 C751 1.369 . S
C750 C752 1.419 1_455 S
C750 H754 0.930 . S
C751 C750 1.369 . S
C751 C760 1.429 1_545 S
C752 C750 1.419 1_655 S
C752 C753 1.363 1_545 S
C752 H755 0.929 . S
C753 C752 1.363 1_565 S
C753 C759 1.428 . S
H754 C750 0.930 . S
H755 C752 0.929 . S
S756 N757 1.613 . S
S756 N758 1.610 1_455 S
N757 S756 1.613 . S
N757 C760 1.350 . S
N758 S756 1.610 1_655 S
N758 C759 1.351 . S
C759 C753 1.428 . S
C759 N758 1.351 . S
C759 C760 1.434 1_655 S
C760 C751 1.429 1_565 S
C760 N757 1.350 . S
C760 C759 1.434 1_455 S
C761 C762 1.369 . S
C761 C763 1.419 . S
C761 H765 0.930 . S
C762 C761 1.369 . S
C762 C771 1.429 . S
C763 C761 1.419 . S
C763 C764 1.363 . S
C763 H766 0.929 . S
C764 C763 1.363 . S
C764 C770 1.428 . S
H765 C761 0.930 . S
H766 C763 0.929 . S
S767 N768 1.613 . S
S767 N769 1.610 . S
N768 S767 1.613 . S
N768 C771 1.350 . S
N769 S767 1.610 . S
N769 C770 1.351 . S
C770 C764 1.428 . S
C770 N769 1.351 . S
C770 C771 1.434 . S
C771 C762 1.429 . S
C771 N768 1.350 . S
C771 C770 1.434 . S
C772 C773 1.369 . S
C772 C774 1.419 . S
C772 H776 0.930 . S
C773 C772 1.369 . S
C773 C782 1.429 . S
C774 C772 1.419 . S
C774 C775 1.363 . S
C774 H777 0.929 . S
C775 C774 1.363 . S
C775 C781 1.428 . S
H776 C772 0.930 . S
H777 C774 0.929 . S
S778 N779 1.613 . S
S778 N780 1.610 . S
N779 S778 1.613 . S
N779 C782 1.350 . S
N780 S778 1.610 . S
N780 C781 1.351 . S
C781 C775 1.428 . S
C781 N780 1.351 . S
C781 C782 1.434 . S
C782 C773 1.429 . S
C782 N779 1.350 . S
C782 C781 1.434 . S
C783 C784 1.369 . S
C783 C785 1.419 . S
C783 H787 0.930 . S
C784 C783 1.369 . S
C784 C793 1.429 . S
C785 C783 1.419 . S
C785 C786 1.363 . S
C785 H788 0.929 . S
C786 C785 1.363 . S
C786 C792 1.428 . S
H787 C783 0.930 . S
H788 C785 0.929 . S
S789 N790 1.613 . S
S789 N791 1.610 . S
N790 S789 1.613 . S
N790 C793 1.350 . S
N791 S789 1.610 . S
N791 C792 1.351 . S
C792 C786 1.428 . S
C792 N791 1.351 . S
C792 C793 1.434 . S
C793 C784 1.429 . S
C793 N790 1.350 . S
C793 C792 1.434 . S
C794 C795 1.369 . S
C794 C796 1.419 1_455 S
C794 H798 0.930 . S
C795 C794 1.369 . S
C795 C804 1.429 . S
C796 C794 1.419 1_655 S
C796 C797 1.363 . S
C796 H799 0.929 . S
C797 C796 1.363 . S
C797 C803 1.428 . S
H798 C794 0.930 . S
H799 C796 0.929 . S
S800 N801 1.613 . S
S800 N802 1.610 . S
N801 S800 1.613 . S
N801 C804 1.350 . S
N802 S800 1.610 . S
N802 C803 1.351 1_455 S
C803 C797 1.428 . S
C803 N802 1.351 1_655 S
C803 C804 1.434 1_655 S
C804 C795 1.429 . S
C804 N801 1.350 . S
C804 C803 1.434 1_455 S
C805 C806 1.369 1_554 S
C805 C807 1.419 . S
C805 H809 0.930 . S
C806 C805 1.369 1_556 S
C806 C815 1.429 . S
C807 C805 1.419 . S
C807 C808 1.363 . S
C807 H810 0.929 . S
C808 C807 1.363 . S
C808 C814 1.428 1_554 S
H809 C805 0.930 . S
H810 C807 0.929 . S
S811 N812 1.613 . S
S811 N813 1.610 . S
N812 S811 1.613 . S
N812 C815 1.350 . S
N813 S811 1.610 . S
N813 C814 1.351 . S
C814 C808 1.428 1_556 S
C814 N813 1.351 . S
C814 C815 1.434 . S
C815 C806 1.429 . S
C815 N812 1.350 . S
C815 C814 1.434 . S
C816 C817 1.369 . S
C816 C818 1.419 . S
C816 H820 0.930 . S
C817 C816 1.369 . S
C817 C826 1.429 . S
C818 C816 1.419 . S
C818 C819 1.363 . S
C818 H821 0.929 . S
C819 C818 1.363 . S
C819 C825 1.428 . S
H820 C816 0.930 . S
H821 C818 0.929 . S
S822 N823 1.613 . S
S822 N824 1.610 . S
N823 S822 1.613 . S
N823 C826 1.350 . S
N824 S822 1.610 . S
N824 C825 1.351 . S
C825 C819 1.428 . S
C825 N824 1.351 . S
C825 C826 1.434 . S
C826 C817 1.429 . S
C826 N823 1.350 . S
C826 C825 1.434 . S
C827 C828 1.369 . S
C827 C829 1.419 . S
C827 H831 0.930 . S
C828 C827 1.369 . S
C828 C837 1.429 . S
C829 C827 1.419 . S
C829 C830 1.363 . S
C829 H832 0.929 . S
C830 C829 1.363 . S
C830 C836 1.428 . S
H831 C827 0.930 . S
H832 C829 0.929 . S
S833 N834 1.613 . S
S833 N835 1.610 . S
N834 S833 1.613 . S
N834 C837 1.350 . S
N835 S833 1.610 . S
N835 C836 1.351 . S
C836 C830 1.428 . S
C836 N835 1.351 . S
C836 C837 1.434 . S
C837 C828 1.429 . S
C837 N834 1.350 . S
C837 C836 1.434 . S
C838 C839 1.369 . S
C838 C840 1.419 . S
C838 H842 0.930 . S
C839 C838 1.369 . S
C839 C848 1.429 . S
C840 C838 1.419 . S
C840 C841 1.363 . S
C840 H843 0.929 . S
C841 C840 1.363 . S
C841 C847 1.428 . S
H842 C838 0.930 . S
H843 C840 0.929 . S
S844 N845 1.613 . S
S844 N846 1.610 . S
N845 S844 1.613 . S
N845 C848 1.350 . S
N846 S844 1.610 . S
N846 C847 1.351 . S
C847 C841 1.428 . S
C847 N846 1.351 . S
C847 C848 1.434 . S
C848 C839 1.429 . S
C848 N845 1.350 . S
C848 C847 1.434 . S
C849 C850 1.369 . S
C849 C851 1.419 . S
C849 H853 0.930 . S
C850 C849 1.369 . S
C850 C859 1.429 . S
C851 C849 1.419 . S
C851 C852 1.363 . S
C851 H854 0.929 . S
C852 C851 1.363 . S
C852 C858 1.428 . S
H853 C849 0.930 . S
H854 C851 0.929 . S
S855 N856 1.613 . S
S855 N857 1.610 . S
N856 S855 1.613 . S
N856 C859 1.350 . S
N857 S855 1.610 . S
N857 C858 1.351 . S
C858 C852 1.428 . S
C858 N857 1.351 . S
C858 C859 1.434 . S
C859 C850 1.429 . S
C859 N856 1.350 . S
C859 C858 1.434 . S
C860 C861 1.369 . S
C860 C862 1.419 . S
C860 H864 0.930 . S
C861 C860 1.369 . S
C861 C870 1.429 . S
C862 C860 1.419 . S
C862 C863 1.363 . S
C862 H865 0.929 . S
C863 C862 1.363 . S
C863 C869 1.428 . S
H864 C860 0.930 . S
H865 C862 0.929 . S
S866 N867 1.613 . S
S866 N868 1.610 . S
N867 S866 1.613 . S
N867 C870 1.350 . S
N868 S866 1.610 . S
N868 C869 1.351 . S
C869 C863 1.428 . S
C869 N868 1.351 . S
C869 C870 1.434 . S
C870 C861 1.429 . S
C870 N867 1.350 . S
C870 C869 1.434 . S
C871 C872 1.369 . S
C871 C873 1.419 . S
C871 H875 0.930 . S
C872 C871 1.369 . S
C872 C881 1.429 . S
C873 C871 1.419 . S
C873 C874 1.363 . S
C873 H876 0.929 . S
C874 C873 1.363 . S
C874 C880 1.428 . S
H875 C871 0.930 . S
H876 C873 0.929 . S
S877 N878 1.613 . S
S877 N879 1.610 . S
N878 S877 1.613 . S
N878 C881 1.350 . S
N879 S877 1.610 . S
N879 C880 1.351 . S
C880 C874 1.428 . S
C880 N879 1.351 . S
C880 C881 1.434 . S
C881 C872 1.429 . S
C881 N878 1.350 . S
C881 C880 1.434 . S
C882 C883 1.369 . S
C882 C884 1.419 . S
C882 H886 0.930 . S
C883 C882 1.369 . S
C883 C892 1.429 . S
C884 C882 1.419 . S
C884 C885 1.363 . S
C884 H887 0.929 . S
C885 C884 1.363 . S
C885 C891 1.428 . S
H886 C882 0.930 . S
H887 C884 0.929 . S
S888 N889 1.613 . S
S888 N890 1.610 . S
N889 S888 1.613 . S
N889 C892 1.350 . S
N890 S888 1.610 . S
N890 C891 1.351 . S
C891 C885 1.428 . S
C891 N890 1.351 . S
C891 C892 1.434 . S
C892 C883 1.429 . S
C892 N889 1.350 . S
C892 C891 1.434 . S
C893 C894 1.369 . S
C893 C895 1.419 . S
C893 H897 0.930 . S
C894 C893 1.369 . S
C894 C903 1.429 . S
C895 C893 1.419 . S
C895 C896 1.363 . S
C895 H898 0.929 . S
C896 C895 1.363 . S
C896 C902 1.428 . S
H897 C893 0.930 . S
H898 C895 0.929 . S
S899 N900 1.613 . S
S899 N901 1.610 . S
N900 S899 1.613 . S
N900 C903 1.350 . S
N901 S899 1.610 . S
N901 C902 1.351 . S
C902 C896 1.428 . S
C902 N901 1.351 . S
C902 C903 1.434 . S
C903 C894 1.429 . S
C903 N900 1.350 . S
C903 C902 1.434 . S
C904 C905 1.369 . S
C904 C906 1.419 . S
C904 H908 0.930 . S
C905 C904 1.369 . S
C905 C914 1.429 . S
C906 C904 1.419 . S
C906 C907 1.363 . S
C906 H909 0.929 . S
C907 C906 1.363 . S
C907 C913 1.428 . S
H908 C904 0.930 . S
H909 C906 0.929 . S
S910 N911 1.613 . S
S910 N912 1.610 . S
N911 S910 1.613 . S
N911 C914 1.350 . S
N912 S910 1.610 . S
N912 C913 1.351 . S
C913 C907 1.428 . S
C913 N912 1.351 . S
C913 C914 1.434 . S
C914 C905 1.429 . S
C914 N911 1.350 . S
C914 C913 1.434 . S
C915 C916 1.369 . S
C915 C917 1.419 . S
C915 H919 0.930 . S
C916 C915 1.369 . S
C916 C925 1.429 . S
C917 C915 1.419 . S
C917 C918 1.363 . S
C917 H920 0.929 . S
C918 C917 1.363 . S
C918 C924 1.428 . S
H919 C915 0.930 . S
H920 C917 0.929 . S
S921 N922 1.613 . S
S921 N923 1.610 . S
N922 S921 1.613 . S
N922 C925 1.350 . S
N923 S921 1.610 . S
N923 C924 1.351 . S
C924 C918 1.428 . S
C924 N923 1.351 . S
C924 C925 1.434 . S
C925 C916 1.429 . S
C925 N922 1.350 . S
C925 C924 1.434 . S
C926 C927 1.369 . S
C926 C928 1.419 . S
C926 H930 0.930 . S
C927 C926 1.369 . S
C927 C936 1.429 . S
C928 C926 1.419 . S
C928 C929 1.363 . S
C928 H931 0.929 . S
C929 C928 1.363 . S
C929 C935 1.428 . S
H930 C926 0.930 . S
H931 C928 0.929 . S
S932 N933 1.613 . S
S932 N934 1.610 . S
N933 S932 1.613 . S
N933 C936 1.350 . S
N934 S932 1.610 . S
N934 C935 1.351 . S
C935 C929 1.428 . S
C935 N934 1.351 . S
C935 C936 1.434 . S
C936 C927 1.429 . S
C936 N933 1.350 . S
C936 C935 1.434 . S
C937 C938 1.369 . S
C937 C939 1.419 . S
C937 H941 0.930 . S
C938 C937 1.369 . S
C938 C947 1.429 . S
C939 C937 1.419 . S
C939 C940 1.363 . S
C939 H942 0.929 . S
C940 C939 1.363 . S
C940 C946 1.428 . S
H941 C937 0.930 . S
H942 C939 0.929 . S
S943 N944 1.613 . S
S943 N945 1.610 . S
N944 S943 1.613 . S
N944 C947 1.350 . S
N945 S943 1.610 . S
N945 C946 1.351 . S
C946 C940 1.428 . S
C946 N945 1.351 . S
C946 C947 1.434 . S
C947 C938 1.429 . S
C947 N944 1.350 . S
C947 C946 1.434 . S
C948 C949 1.369 . S
C948 C950 1.419 . S
C948 H952 0.930 . S
C949 C948 1.369 . S
C949 C958 1.429 . S
C950 C948 1.419 . S
C950 C951 1.363 . S
C950 H953 0.929 . S
C951 C950 1.363 . S
C951 C957 1.428 . S
H952 C948 0.930 . S
H953 C950 0.929 . S
S954 N955 1.613 . S
S954 N956 1.610 . S
N955 S954 1.613 . S
N955 C958 1.350 . S
N956 S954 1.610 . S
N956 C957 1.351 . S
C957 C951 1.428 . S
C957 N956 1.351 . S
C957 C958 1.434 . S
C958 C949 1.429 . S
C958 N955 1.350 . S
C958 C957 1.434 . S
C959 C960 1.369 . S
C959 C961 1.419 . S
C959 H963 0.930 . S
C960 C959 1.369 . S
C960 C969 1.429 . S
C961 C959 1.419 . S
C961 C962 1.363 . S
C961 H964 0.929 . S
C962 C961 1.363 . S
C962 C968 1.428 . S
H963 C959 0.930 . S
H964 C961 0.929 . S
S965 N966 1.613 . S
S965 N967 1.610 . S
N966 S965 1.613 . S
N966 C969 1.350 . S
N967 S965 1.610 . S
N967 C968 1.351 . S
C968 C962 1.428 . S
C968 N967 1.351 . S
C968 C969 1.434 . S
C969 C960 1.429 . S
C969 N966 1.350 . S
C969 C968 1.434 . S
C970 C971 1.369 . S
C970 C972 1.419 . S
C970 H974 0.930 . S
C971 C970 1.369 . S
C971 C980 1.429 . S
C972 C970 1.419 . S
C972 C973 1.363 . S
C972 H975 0.929 . S
C973 C972 1.363 . S
C973 C979 1.428 . S
H974 C970 0.930 . S
H975 C972 0.929 . S
S976 N977 1.613 . S
S976 N978 1.610 . S
N977 S976 1.613 . S
N977 C980 1.350 . S
N978 S976 1.610 . S
N978 C979 1.351 . S
C979 C973 1.428 . S
C979 N978 1.351 . S
C979 C980 1.434 . S
C980 C971 1.429 . S
C980 N977 1.350 . S
C980 C979 1.434 . S
C981 C982 1.369 . S
C981 C983 1.419 . S
C981 H985 0.930 . S
C982 C981 1.369 . S
C982 C991 1.429 . S
C983 C981 1.419 . S
C983 C984 1.363 . S
C983 H986 0.929 . S
C984 C983 1.363 . S
C984 C990 1.428 . S
H985 C981 0.930 . S
H986 C983 0.929 . S
S987 N988 1.613 . S
S987 N989 1.610 . S
N988 S987 1.613 . S
N988 C991 1.350 . S
N989 S987 1.610 . S
N989 C990 1.351 . S
C990 C984 1.428 . S
C990 N989 1.351 . S
C990 C991 1.434 . S
C991 C982 1.429 . S
C991 N988 1.350 . S
C991 C990 1.434 . S
C992 C993 1.369 . S
C992 C994 1.419 . S
C992 H996 0.930 1_556 S
C993 C992 1.369 . S
C993 C1002 1.429 . S
C994 C992 1.419 . S
C994 C995 1.363 . S
C994 H997 0.929 . S
C995 C994 1.363 . S
C995 C1001 1.428 . S
H996 C992 0.930 1_554 S
H997 C994 0.929 . S
S998 N999 1.613 . S
S998 N1000 1.610 . S
N999 S998 1.613 . S
N999 C1002 1.350 . S
N1000 S998 1.610 . S
N1000 C1001 1.351 . S
C1001 C995 1.428 . S
C1001 N1000 1.351 . S
C1001 C1002 1.434 . S
C1002 C993 1.429 . S
C1002 N999 1.350 . S
C1002 C1001 1.434 . S
C1003 C1004 1.369 . S
C1003 C1005 1.419 . S
C1003 H1007 0.930 . S
C1004 C1003 1.369 . S
C1004 C1013 1.429 . S
C1005 C1003 1.419 . S
C1005 C1006 1.363 . S
C1005 H1008 0.929 . S
C1006 C1005 1.363 . S
C1006 C1012 1.428 . S
H1007 C1003 0.930 . S
H1008 C1005 0.929 . S
S1009 N1010 1.613 . S
S1009 N1011 1.610 . S
N1010 S1009 1.613 . S
N1010 C1013 1.350 . S
N1011 S1009 1.610 . S
N1011 C1012 1.351 . S
C1012 C1006 1.428 . S
C1012 N1011 1.351 . S
C1012 C1013 1.434 . S
C1013 C1004 1.429 . S
C1013 N1010 1.350 . S
C1013 C1012 1.434 . S
C1014 C1015 1.369 . S
C1014 C1016 1.419 . S
C1014 H1018 0.930 . S
C1015 C1014 1.369 . S
C1015 C1024 1.429 . S
C1016 C1014 1.419 . S
C1016 C1017 1.363 . S
C1016 H1019 0.929 . S
C1017 C1016 1.363 . S
C1017 C1023 1.428 . S
H1018 C1014 0.930 . S
H1019 C1016 0.929 . S
S1020 N1021 1.613 . S
S1020 N1022 1.610 . S
N1021 S1020 1.613 . S
N1021 C1024 1.350 . S
N1022 S1020 1.610 . S
N1022 C1023 1.351 . S
C1023 C1017 1.428 . S
C1023 N1022 1.351 . S
C1023 C1024 1.434 . S
C1024 C1015 1.429 . S
C1024 N1021 1.350 . S
C1024 C1023 1.434 . S
C1025 C1026 1.369 . S
C1025 C1027 1.419 . S
C1025 H1029 0.930 . S
C1026 C1025 1.369 . S
C1026 C1035 1.429 . S
C1027 C1025 1.419 . S
C1027 C1028 1.363 . S
C1027 H1030 0.929 . S
C1028 C1027 1.363 . S
C1028 C1034 1.428 . S
H1029 C1025 0.930 . S
H1030 C1027 0.929 . S
S1031 N1032 1.613 . S
S1031 N1033 1.610 . S
N1032 S1031 1.613 . S
N1032 C1035 1.350 . S
N1033 S1031 1.610 . S
N1033 C1034 1.351 . S
C1034 C1028 1.428 . S
C1034 N1033 1.351 . S
C1034 C1035 1.434 . S
C1035 C1026 1.429 . S
C1035 N1032 1.350 . S
C1035 C1034 1.434 . S
C1036 C1037 1.369 . S
C1036 C1038 1.419 . S
C1036 H1040 0.930 . S
C1037 C1036 1.369 . S
C1037 C1046 1.429 . S
C1038 C1036 1.419 . S
C1038 C1039 1.363 . S
C1038 H1041 0.929 . S
C1039 C1038 1.363 . S
C1039 C1045 1.428 . S
H1040 C1036 0.930 . S
H1041 C1038 0.929 . S
S1042 N1043 1.613 . S
S1042 N1044 1.631 . S
N1043 S1042 1.613 . S
N1043 C1046 1.350 . S
N1044 S1042 1.631 . S
N1044 C1045 1.374 . S
C1045 C1039 1.428 . S
C1045 N1044 1.374 . S
C1045 C1046 1.434 . S
C1046 C1037 1.429 . S
C1046 N1043 1.350 . S
C1046 C1045 1.434 . S
C1047 C1048 1.369 . S
C1047 C1049 1.419 . S
C1047 H1051 0.930 . S
C1048 C1047 1.369 . S
C1048 C1057 1.429 . S
C1049 C1047 1.419 . S
C1049 C1050 1.363 . S
C1049 H1052 0.929 . S
C1050 C1049 1.363 . S
C1050 C1056 1.428 . S
H1051 C1047 0.930 . S
H1052 C1049 0.929 . S
S1053 N1054 1.613 . S
S1053 N1055 1.610 . S
N1054 S1053 1.613 . S
N1054 C1057 1.350 . S
N1055 S1053 1.610 . S
N1055 C1056 1.351 . S
C1056 C1050 1.428 . S
C1056 N1055 1.351 . S
C1056 C1057 1.434 . S
C1057 C1048 1.429 . S
C1057 N1054 1.350 . S
C1057 C1056 1.434 . S
C1058 C1059 1.369 . S
C1058 C1060 1.419 . S
C1058 H1062 0.930 . S
C1059 C1058 1.369 . S
C1059 C1068 1.429 . S
C1060 C1058 1.419 . S
C1060 C1061 1.363 . S
C1060 H1063 0.929 . S
C1061 C1060 1.363 . S
C1061 C1067 1.428 . S
H1062 C1058 0.930 . S
H1063 C1060 0.929 . S
S1064 N1065 1.613 . S
S1064 N1066 1.610 . S
N1065 S1064 1.613 . S
N1065 C1068 1.350 . S
N1066 S1064 1.610 . S
N1066 C1067 1.351 . S
C1067 C1061 1.428 . S
C1067 N1066 1.351 . S
C1067 C1068 1.434 . S
C1068 C1059 1.429 . S
C1068 N1065 1.350 . S
C1068 C1067 1.434 . S
C1069 C1070 1.369 . S
C1069 C1071 1.419 . S
C1069 H1073 0.930 . S
C1070 C1069 1.369 . S
C1070 C1079 1.429 . S
C1071 C1069 1.419 . S
C1071 C1072 1.363 . S
C1071 H1074 0.929 . S
C1072 C1071 1.363 . S
C1072 C1078 1.428 . S
H1073 C1069 0.930 . S
H1074 C1071 0.929 . S
S1075 N1076 1.613 . S
S1075 N1077 1.610 . S
N1076 S1075 1.613 . S
N1076 C1079 1.350 . S
N1077 S1075 1.610 . S
N1077 C1078 1.351 . S
C1078 C1072 1.428 . S
C1078 N1077 1.351 . S
C1078 C1079 1.434 . S
C1079 C1070 1.429 . S
C1079 N1076 1.350 . S
C1079 C1078 1.434 . S
C1080 C1081 1.369 . S
C1080 C1082 1.419 . S
C1080 H1084 0.930 . S
C1081 C1080 1.369 . S
C1081 C1090 1.429 . S
C1082 C1080 1.419 . S
C1082 C1083 1.363 . S
C1082 H1085 0.929 . S
C1083 C1082 1.363 . S
C1083 C1089 1.428 . S
H1084 C1080 0.930 . S
H1085 C1082 0.929 . S
S1086 N1087 1.613 . S
S1086 N1088 1.610 . S
N1087 S1086 1.613 . S
N1087 C1090 1.350 . S
N1088 S1086 1.610 . S
N1088 C1089 1.351 . S
C1089 C1083 1.428 . S
C1089 N1088 1.351 . S
C1089 C1090 1.434 . S
C1090 C1081 1.429 . S
C1090 N1087 1.350 . S
C1090 C1089 1.434 . S
C1091 C1092 1.369 . S
C1091 C1093 1.419 . S
C1091 H1095 0.930 . S
C1092 C1091 1.369 . S
C1092 C1101 1.429 . S
C1093 C1091 1.419 . S
C1093 C1094 1.363 . S
C1093 H1096 0.929 . S
C1094 C1093 1.363 . S
C1094 C1100 1.428 . S
H1095 C1091 0.930 . S
H1096 C1093 0.929 . S
S1097 N1098 1.613 . S
S1097 N1099 1.610 . S
N1098 S1097 1.613 . S
N1098 C1101 1.350 . S
N1099 S1097 1.610 . S
N1099 C1100 1.351 . S
C1100 C1094 1.428 . S
C1100 N1099 1.351 . S
C1100 C1101 1.434 . S
C1101 C1092 1.429 . S
C1101 N1098 1.350 . S
C1101 C1100 1.434 . S
C1102 C1103 1.369 . S
C1102 C1104 1.419 . S
C1102 H1106 0.930 . S
C1103 C1102 1.369 . S
C1103 C1112 1.429 . S
C1104 C1102 1.419 . S
C1104 C1105 1.363 . S
C1104 H1107 0.929 . S
C1105 C1104 1.363 . S
C1105 C1111 1.427 1_556 S
H1106 C1102 0.930 . S
H1107 C1104 0.929 . S
S1108 N1109 1.613 1_554 S
S1108 N1110 1.610 . S
N1109 S1108 1.613 1_556 S
N1109 C1112 1.350 . S
N1110 S1108 1.610 . S
N1110 C1111 1.355 . S
C1111 C1105 1.427 1_554 S
C1111 N1110 1.355 . S
C1111 C1112 1.431 1_554 S
C1112 C1103 1.429 . S
C1112 N1109 1.350 . S
C1112 C1111 1.431 1_556 S
C1113 C1114 1.369 . S
C1113 C1115 1.419 . S
C1113 H1117 0.930 . S
C1114 C1113 1.369 . S
C1114 C1123 1.429 . S
C1115 C1113 1.419 . S
C1115 C1116 1.363 . S
C1115 H1118 0.929 . S
C1116 C1115 1.363 . S
C1116 C1122 1.428 . S
H1117 C1113 0.930 . S
H1118 C1115 0.929 . S
S1119 N1120 1.613 . S
S1119 N1121 1.610 . S
N1120 S1119 1.613 . S
N1120 C1123 1.350 . S
N1121 S1119 1.610 . S
N1121 C1122 1.351 . S
C1122 C1116 1.428 . S
C1122 N1121 1.351 . S
C1122 C1123 1.434 . S
C1123 C1114 1.429 . S
C1123 N1120 1.350 . S
C1123 C1122 1.434 . S
C1124 C1125 1.369 . S
C1124 C1126 1.419 . S
C1124 H1128 0.930 . S
C1125 C1124 1.369 . S
C1125 C1134 1.429 . S
C1126 C1124 1.419 . S
C1126 C1127 1.363 . S
C1126 H1129 0.929 . S
C1127 C1126 1.363 . S
C1127 C1133 1.428 . S
H1128 C1124 0.930 . S
H1129 C1126 0.929 . S
S1130 N1131 1.613 . S
S1130 N1132 1.610 . S
N1131 S1130 1.613 . S
N1131 C1134 1.350 . S
N1132 S1130 1.610 . S
N1132 C1133 1.351 . S
C1133 C1127 1.428 . S
C1133 N1132 1.351 . S
C1133 C1134 1.434 . S
C1134 C1125 1.429 . S
C1134 N1131 1.350 . S
C1134 C1133 1.434 . S
C1135 C1136 1.369 . S
C1135 C1137 1.419 . S
C1135 H1139 0.930 . S
C1136 C1135 1.369 . S
C1136 C1145 1.429 . S
C1137 C1135 1.419 . S
C1137 C1138 1.363 . S
C1137 H1140 0.929 . S
C1138 C1137 1.363 . S
C1138 C1144 1.428 . S
H1139 C1135 0.930 . S
H1140 C1137 0.929 . S
S1141 N1142 1.613 . S
S1141 N1143 1.610 . S
N1142 S1141 1.613 . S
N1142 C1145 1.350 . S
N1143 S1141 1.610 . S
N1143 C1144 1.351 . S
C1144 C1138 1.428 . S
C1144 N1143 1.351 . S
C1144 C1145 1.434 . S
C1145 C1136 1.429 . S
C1145 N1142 1.350 . S
C1145 C1144 1.434 . S
C1146 C1147 1.369 . S
C1146 C1148 1.419 . S
C1146 H1150 0.930 . S
C1147 C1146 1.369 . S
C1147 C1156 1.429 . S
C1148 C1146 1.419 . S
C1148 C1149 1.363 . S
C1148 H1151 0.929 . S
C1149 C1148 1.363 . S
C1149 C1155 1.435 . S
H1150 C1146 0.930 . S
H1151 C1148 0.929 . S
S1152 N1153 1.613 1_556 S
S1152 N1154 1.610 . S
N1153 S1152 1.613 1_554 S
N1153 C1156 1.350 . S
N1154 S1152 1.610 . S
N1154 C1155 1.323 1_556 S
C1155 C1149 1.435 . S
C1155 N1154 1.323 1_554 S
C1155 C1156 1.456 . S
C1156 C1147 1.429 . S
C1156 N1153 1.350 . S
C1156 C1155 1.456 . S
C1157 C1158 1.369 . S
C1157 C1159 1.419 . S
C1157 H1161 0.930 . S
C1158 C1157 1.369 . S
C1158 C1167 1.429 . S
C1159 C1157 1.419 . S
C1159 C1160 1.363 . S
C1159 H1162 0.929 . S
C1160 C1159 1.363 . S
C1160 C1166 1.428 . S
H1161 C1157 0.930 . S
H1162 C1159 0.929 . S
S1163 N1164 1.613 . S
S1163 N1165 1.610 . S
N1164 S1163 1.613 . S
N1164 C1167 1.350 . S
N1165 S1163 1.610 . S
N1165 C1166 1.351 . S
C1166 C1160 1.428 . S
C1166 N1165 1.351 . S
C1166 C1167 1.434 . S
C1167 C1158 1.429 . S
C1167 N1164 1.350 . S
C1167 C1166 1.434 . S
C641 C9 3.001 . S
C643 C409 2.999 . S
C652 C49 3.000 . S
C654 C449 2.999 . S
C663 C89 2.999 . S
C665 C329 3.000 . S
C674 C369 2.999 . S
C676 C129 3.000 . S
C685 C178 3.000 . S
C687 C578 3.000 . S
C696 C618 3.000 . S
C698 C218 2.999 . S
C707 C498 2.999 . S
C709 C258 3.000 . S
C718 C298 3.001 . S
C720 C538 2.998 . S
C729 C15 1.452 1_556 S
C731 C166 1.440 1_554 S
C740 C55 1.451 . S
C742 C526 1.441 . S
C751 C95 1.448 . S
C753 C246 1.444 . S
C762 C135 1.454 . S
C764 C606 1.439 . S
C773 C206 1.437 . S
C775 C375 1.453 . S
C784 C455 1.454 . S
C786 C286 1.439 . S
C795 C486 1.439 . S
C797 C335 1.451 . S
C806 C415 1.455 1_556 S
C808 C566 1.439 1_554 S
C817 C6 1.606 . S
C819 C289 1.878 . S
C828 C46 1.597 . S
C830 C489 1.885 . S
C839 C86 1.602 . S
C841 C209 1.879 . S
C850 C126 1.590 . S
C852 C569 1.886 . S
C861 C138 1.877 . S
C863 C175 1.603 . S
C872 C215 1.591 . S
C874 C338 1.884 . S
C883 C255 1.605 . S
C885 C58 1.880 . S
C894 C418 1.882 . S
C896 C295 1.602 . S
C905 C326 1.599 . S
C907 C609 1.884 . S
C916 C169 1.887 . S
C918 C366 1.594 . S
C927 C529 1.880 . S
C929 C406 1.603 . S
C938 C249 1.884 . S
C940 C446 1.599 . S
C949 C495 1.595 . S
C951 C458 1.881 . S
C960 C535 1.598 . S
C962 C18 1.885 . S
C971 C378 1.877 . S
C973 C575 1.604 . S
C982 C615 1.606 . S
C984 C98 1.880 . S
C993 C19 4.051 1_556 S
C995 C370 4.080 . S
C1004 C410 4.080 . S
C1006 C59 4.050 . S
C1015 C99 4.051 . S
C1017 C450 4.081 . S
C1026 C330 4.083 . S
C1028 C139 4.047 . S
C1037 C539 4.083 . S
C1039 C170 4.047 1_554 S
C1048 C579 4.080 . S
C1050 C210 4.050 . S
C1059 C619 4.084 . S
C1061 C250 4.047 . S
C1070 C499 4.081 . S
C1072 C290 4.050 . S
C1081 C50 4.082 . S
C1083 C339 4.048 . S
C1092 C90 4.084 . S
C1094 C379 4.046 1_565 S
C1103 C130 4.084 . S
C1105 C419 4.046 1_556 S
C1114 C459 4.049 1_545 S
C1116 C10 4.081 . S
C1125 C219 4.080 . S
C1127 C490 4.050 . S
C1136 C259 4.084 . S
C1138 C530 4.047 1_545 S
C1147 C299 4.084 . S
C1149 C570 4.046 1_554 S
C1158 C179 4.082 . S
C1160 C610 4.048 1_565 S
