# Generated by pormake.
# Topology wji, (4)-cn, num edge types: 1
# Building blocks:
#     Node 0, Type 0, BuildingBlock: KUFVIS_clean_sbu_0, # of connection points: 4
#     Node 1, Type 0, BuildingBlock: KUFVIS_clean_sbu_0, # of connection points: 4
#     Node 2, Type 0, BuildingBlock: KUFVIS_clean_sbu_0, # of connection points: 4
#     Node 3, Type 0, BuildingBlock: KUFVIS_clean_sbu_0, # of connection points: 4
#     Node 4, Type 0, BuildingBlock: KUFVIS_clean_sbu_0, # of connection points: 4
#     Node 5, Type 0, BuildingBlock: KUFVIS_clean_sbu_0, # of connection points: 4
#     Node 6, Type 0, BuildingBlock: KUFVIS_clean_sbu_0, # of connection points: 4
#     Node 7, Type 0, BuildingBlock: KUFVIS_clean_sbu_0, # of connection points: 4
#     Node 8, Type 0, BuildingBlock: KUFVIS_clean_sbu_0, # of connection points: 4
#     Node 9, Type 0, BuildingBlock: KUFVIS_clean_sbu_0, # of connection points: 4
#     Node 10, Type 0, BuildingBlock: KUFVIS_clean_sbu_0, # of connection points: 4
#     Node 11, Type 0, BuildingBlock: KUFVIS_clean_sbu_0, # of connection points: 4
#     Edge 12, Type (0, 0), BuildingBlock: AJUNOK_clean_linker_0, # of connection points: 2
#     Edge 13, Type (0, 0), BuildingBlock: AJUNOK_clean_linker_0, # of connection points: 2
#     Edge 14, Type (0, 0), BuildingBlock: AJUNOK_clean_linker_0, # of connection points: 2
#     Edge 15, Type (0, 0), BuildingBlock: AJUNOK_clean_linker_0, # of connection points: 2
#     Edge 16, Type (0, 0), BuildingBlock: AJUNOK_clean_linker_0, # of connection points: 2
#     Edge 17, Type (0, 0), BuildingBlock: AJUNOK_clean_linker_0, # of connection points: 2
#     Edge 18, Type (0, 0), BuildingBlock: AJUNOK_clean_linker_0, # of connection points: 2
#     Edge 19, Type (0, 0), BuildingBlock: AJUNOK_clean_linker_0, # of connection points: 2
#     Edge 20, Type (0, 0), BuildingBlock: AJUNOK_clean_linker_0, # of connection points: 2
#     Edge 21, Type (0, 0), BuildingBlock: AJUNOK_clean_linker_0, # of connection points: 2
#     Edge 22, Type (0, 0), BuildingBlock: AJUNOK_clean_linker_0, # of connection points: 2
#     Edge 23, Type (0, 0), BuildingBlock: AJUNOK_clean_linker_0, # of connection points: 2
#     Edge 24, Type (0, 0), BuildingBlock: AJUNOK_clean_linker_0, # of connection points: 2
#     Edge 25, Type (0, 0), BuildingBlock: AJUNOK_clean_linker_0, # of connection points: 2
#     Edge 26, Type (0, 0), BuildingBlock: AJUNOK_clean_linker_0, # of connection points: 2
#     Edge 27, Type (0, 0), BuildingBlock: AJUNOK_clean_linker_0, # of connection points: 2
#     Edge 28, Type (0, 0), BuildingBlock: AJUNOK_clean_linker_0, # of connection points: 2
#     Edge 29, Type (0, 0), BuildingBlock: AJUNOK_clean_linker_0, # of connection points: 2
#     Edge 30, Type (0, 0), BuildingBlock: AJUNOK_clean_linker_0, # of connection points: 2
#     Edge 31, Type (0, 0), BuildingBlock: AJUNOK_clean_linker_0, # of connection points: 2
#     Edge 32, Type (0, 0), BuildingBlock: AJUNOK_clean_linker_0, # of connection points: 2
#     Edge 33, Type (0, 0), BuildingBlock: AJUNOK_clean_linker_0, # of connection points: 2
#     Edge 34, Type (0, 0), BuildingBlock: AJUNOK_clean_linker_0, # of connection points: 2
#     Edge 35, Type (0, 0), BuildingBlock: AJUNOK_clean_linker_0, # of connection points: 2
# Relax obj value: 0.178
# Max RMSD: 0.117
# Mean RMSD: 0.117
data_MOF--net-wji--node1-KUFVIS_clean_sbu_0--edge1-AJUNOK_clean_linker_0
_symmetry_space_group_name_H-M    P1
_symmetry_Int_Tables_number       1
_symmetry_cell_setting            triclinic
loop_
_symmetry_equiv_pos_as_xyz
'x, y, z'
_cell_length_a     40.609638
_cell_length_b     40.578175
_cell_length_c     17.576817
_cell_angle_alpha  89.907958
_cell_angle_beta   90.458148
_cell_angle_gamma 119.8991
loop_
_atom_site_label
_atom_site_type_symbol
_atom_site_fract_x
_atom_site_fract_y
_atom_site_fract_z
_atom_type_partial_charge
Mn0 Mn 0.44846 0.34683 0.45824 0.0
Mn1 Mn 0.45362 0.43342 0.45707 0.0
C2 C 0.41109 0.35911 0.53949 0.0
C3 C 0.46428 0.30181 0.50814 0.0
C4 C 0.41409 0.37451 0.33302 0.0
O5 O 0.50168 0.38187 0.41565 0.0
O6 O 0.50214 0.43806 0.41992 0.0
C7 C 0.51751 0.48836 0.55251 0.0
N8 N 0.4793 0.46681 0.54096 0.0
C9 C 0.46802 0.5059 0.62826 0.0
C10 C 0.50717 0.52813 0.64093 0.0
C11 C 0.53204 0.51938 0.60271 0.0
C12 C 0.45533 0.47635 0.57496 0.0
H13 H 0.53701 0.48348 0.52038 0.0
C14 C 0.51838 0.41815 0.40917 0.0
O15 O 0.45041 0.29874 0.44004 0.0
O16 O 0.47104 0.33213 0.54533 0.0
N17 N 0.40856 0.43109 0.49591 0.0
C18 C 0.37177 0.40868 0.473 0.0
C19 C 0.34304 0.41282 0.50786 0.0
C20 C 0.35246 0.44019 0.56529 0.0
C21 C 0.39045 0.46268 0.5883 0.0
C22 C 0.41773 0.45664 0.55269 0.0
H23 H 0.36437 0.38757 0.42897 0.0
O24 O 0.40003 0.32476 0.51614 0.0
O25 O 0.44259 0.38596 0.51073 0.0
O26 O 0.42087 0.34886 0.35836 0.0
O27 O 0.42644 0.40615 0.36613 0.0
C28 C 0.40236 0.49095 0.64498 0.0
C29 C 0.44124 0.51302 0.66391 0.0
H30 H 0.51851 0.55247 0.67871 0.0
H31 H 0.56242 0.537 0.61075 0.0
H32 H 0.31374 0.39515 0.49014 0.0
H33 H 0.33033 0.44372 0.59123 0.0
H34 H 0.38197 0.49644 0.67327 0.0
H35 H 0.45033 0.53559 0.70556 0.0
Mn36 Mn 0.1275 0.43507 0.59738 0.0
Mn37 Mn 0.0498 0.44488 0.57495 0.0
C38 C 0.07463 0.40058 0.67269 0.0
C39 C 0.18508 0.44745 0.65807 0.0
C40 C 0.06766 0.39871 0.46757 0.0
O41 O 0.15076 0.48795 0.552 0.0
O42 O 0.09588 0.48757 0.52639 0.0
C43 C 0.06873 0.51782 0.64821 0.0
N44 N 0.04644 0.47933 0.64475 0.0
C45 C 0.99678 0.48229 0.71335 0.0
C46 C 1.01922 0.52195 0.71653 0.0
C47 C 0.05552 0.53977 0.68428 0.0
C48 C 1.01113 0.46205 0.67476 0.0
H49 H 0.09563 0.53188 0.62077 0.0
C50 C 0.13237 0.50362 0.52661 0.0
O51 O 0.17606 0.43323 0.58992 0.0
O52 O 0.16156 0.45606 0.68936 0.0
N53 N 1.00421 0.40668 0.62108 0.0
C54 C 0.98598 0.3683 0.61162 0.0
C55 C 0.95013 0.34583 0.6442 0.0
C56 C 0.93341 0.36312 0.68597 0.0
C57 C 0.95319 0.40263 0.69631 0.0
C58 C 0.98911 0.42341 0.66362 0.0
H59 H 0.99902 0.35507 0.58029 0.0
O60 O 0.09669 0.38727 0.65421 0.0
O61 O 0.08214 0.43286 0.64158 0.0
O62 O 0.10104 0.40922 0.49363 0.0
O63 O 0.04609 0.40899 0.49772 0.0
C64 C 0.93861 0.42227 0.73722 0.0
C65 C 0.96019 0.46219 0.74472 0.0
H66 H 1.00901 0.53898 0.74411 0.0
H67 H 0.07307 0.57042 0.68625 0.0
H68 H 0.93537 0.31536 0.63625 0.0
H69 H 0.90548 0.34588 0.71008 0.0
H70 H 0.9106 0.40697 0.762 0.0
H71 H 0.94845 0.47729 0.77432 0.0
Mn72 Mn 0.71643 0.10923 0.76673 0.0
Mn73 Mn 0.62898 0.03089 0.74935 0.0
C74 C 0.69938 0.05701 0.84373 0.0
C75 C 0.76157 0.16776 0.82278 0.0
C76 C 0.69147 0.04917 0.63796 0.0
O77 O 0.68567 0.13151 0.72099 0.0
O78 O 0.6303 0.07647 0.70269 0.0
C79 C 0.57549 0.04829 0.82848 0.0
N80 N 0.59283 0.02701 0.82326 0.0
C81 C 0.54542 0.97851 0.90311 0.0
C82 C 0.5268 0.99963 0.90772 0.0
C83 C 0.54208 0.03484 0.87072 0.0
C84 C 0.57765 0.99258 0.85733 0.0
H85 H 0.58599 0.07453 0.79803 0.0
C86 C 0.65093 0.1129 0.69979 0.0
O87 O 0.76577 0.15781 0.75501 0.0
O88 O 0.73033 0.14436 0.85698 0.0
N89 N 0.62429 0.98594 0.79496 0.0
C90 C 0.64472 0.96826 0.78165 0.0
C91 C 0.63516 0.93424 0.81973 0.0
C92 C 0.60433 0.91849 0.86995 0.0
C93 C 0.58356 0.93709 0.88228 0.0
C94 C 0.59502 0.97138 0.84413 0.0
H95 H 0.66842 0.98033 0.74303 0.0
O96 O 0.73459 0.07925 0.82492 0.0
O97 O 0.67434 0.06414 0.81242 0.0
O98 O 0.71525 0.08202 0.66456 0.0
O99 O 0.65965 0.02812 0.66841 0.0
C100 C 0.55216 0.92317 0.93131 0.0
C101 C 0.53267 0.94355 0.94054 0.0
H102 H 0.50086 0.98921 0.93993 0.0
H103 H 0.52787 0.05136 0.87394 0.0
H104 H 0.65139 0.92011 0.81016 0.0
H105 H 0.597 0.89223 0.89895 0.0
H106 H 0.54248 0.89663 0.96142 0.0
H107 H 0.508 0.93226 0.97672 0.0
Mn108 Mn 0.62104 0.69287 0.94826 0.0
Mn109 Mn 0.60248 0.60407 0.92124 0.0
C110 C 0.65942 0.6759 0.018 0.0
C111 C 0.61057 0.73966 0.0061 0.0
C112 C 0.63807 0.66324 0.80792 0.0
O113 O 0.56487 0.66219 0.91041 0.0
O114 O 0.5539 0.60264 0.93167 0.0
C115 C 0.55249 0.54206 0.02215 0.0
N116 N 0.58789 0.56365 -0.00765 0.0
C117 C 0.60015 0.51142 0.00565 0.0
C118 C 0.56495 0.48995 0.04099 0.0
C119 C 0.5407 0.50506 0.04781 0.0
C120 C 0.60966 0.54757 0.9785 0.0
H121 H 0.53248 0.55219 0.02325 0.0
C122 C 0.54246 0.62648 0.92163 0.0
O123 O 0.62224 0.74296 0.93663 0.0
O124 O 0.60381 0.70884 0.0411 0.0
N125 N 0.64921 0.60323 0.91346 0.0
C126 C 0.6848 0.63049 0.89265 0.0
C127 C 0.71357 0.62105 0.8863 0.0
C128 C 0.70591 0.58421 0.90472 0.0
C129 C 0.67016 0.55783 0.93318 0.0
C130 C 0.64272 0.56901 0.93832 0.0
H131 H 0.69136 0.65921 0.88126 0.0
O132 O 0.67046 0.71049 -0.00345 0.0
O133 O 0.62528 0.64964 -0.006 0.0
O134 O 0.64749 0.69297 0.84638 0.0
O135 O 0.60977 0.63306 0.82858 0.0
C136 C 0.66135 0.52174 0.96067 0.0
C137 C 0.62605 0.49825 -0.00438 0.0
H138 H 0.5559 0.46153 0.06151 0.0
H139 H 0.51274 0.48806 0.07198 0.0
H140 H 0.74164 0.64219 0.86783 0.0
H141 H 0.72824 0.57709 0.90029 0.0
H142 H 0.68177 0.51207 0.95649 0.0
H143 H 0.61952 0.47051 0.0164 0.0
Mn144 Mn 0.94969 0.61714 0.09839 0.0
Mn145 Mn 1.02758 0.60751 0.07186 0.0
C146 C 1.00648 0.66026 0.15697 0.0
C147 C 0.89476 0.60738 0.16419 0.0
C148 C 0.9985 0.64118 0.9551 0.0
O149 O 0.92539 0.56109 0.07325 0.0
O150 O 0.97888 0.55897 0.05041 0.0
C151 C 1.02496 0.54509 0.15992 0.0
N152 N 0.04043 0.58344 0.15169 0.0
C153 C 0.09702 0.59389 0.21909 0.0
C154 C 0.08017 0.55484 0.23238 0.0
C155 C 0.04459 0.53024 0.19996 0.0
C156 C 0.07671 0.60692 0.17531 0.0
H157 H 0.99924 0.52552 0.13099 0.0
C158 C 0.9426 0.54311 0.05669 0.0
O159 O 0.89942 0.61535 0.09224 0.0
O160 O 0.92164 0.60429 0.19785 0.0
N161 N 0.07582 0.65136 0.09274 0.0
C162 C 0.09237 0.68586 0.05758 0.0
C163 C 0.12996 0.71323 0.07583 0.0
C164 C 0.15056 0.70462 0.12883 0.0
C165 C 0.13332 0.6687 0.16314 0.0
C166 C 0.09532 0.64282 0.14424 0.0
H167 H 0.07689 0.69261 0.0166 0.0
O168 O 0.98198 0.66972 0.13315 0.0
O169 O 0.99955 0.62595 0.13825 0.0
O170 O 0.96762 0.63374 0.98745 0.0
O171 O 1.02149 0.63211 0.98307 0.0
C172 C 0.15273 0.65728 0.21377 0.0
C173 C 0.13479 0.61966 0.24069 0.0
H174 H 0.09514 0.54325 0.26376 0.0
H175 H 1.0323 0.49977 0.20553 0.0
H176 H 0.14311 0.74078 0.04858 0.0
H177 H 0.17975 0.7256 0.142 0.0
H178 H 0.18203 0.67667 0.22949 0.0
H179 H 0.15086 0.61038 0.27519 0.0
Mn180 Mn 0.35587 0.93843 0.28402 0.0
Mn181 Mn 0.44154 1.02014 0.27725 0.0
C182 C 0.36492 0.99217 0.35254 0.0
C183 C 0.31084 0.87914 0.33839 0.0
C184 C 0.38649 0.98975 0.14472 0.0
O185 O 0.39251 0.91926 0.25605 0.0
O186 O 0.4481 0.97481 0.26794 0.0
C187 C 0.49946 0.02683 0.38344 0.0
N188 N 0.47349 0.03767 0.36565 0.0
C189 C 0.51313 0.09862 0.42608 0.0
C190 C 0.5396 0.08739 0.44472 0.0
C191 C 0.5328 0.05145 0.4233 0.0
C192 C 0.4812 0.0735 0.38264 0.0
H193 H 0.49671 1.00089 0.36182 0.0
C194 C 0.42885 0.93846 0.26066 0.0
O195 O 0.30937 0.88714 0.2675 0.0
O196 O 0.33951 0.90487 0.37697 0.0
N197 N 0.43692 0.06451 0.28864 0.0
C198 C 0.41633 0.07591 0.24561 0.0
C199 C 0.42044 0.11195 0.25777 0.0
C200 C 0.4464 0.13634 0.3127 0.0
C201 C 0.46772 0.12425 0.35538 0.0
C202 C 0.46113 0.08726 0.34317 0.0
H203 H 0.39682 0.0576 0.20261 0.0
O204 O 0.33176 0.96665 0.32702 0.0
O205 O 0.39311 0.98728 0.33262 0.0
O206 O 0.35878 0.96137 0.1764 0.0
O207 O 0.41763 1.01036 0.17823 0.0
C208 C 0.49637 0.14803 0.40712 0.0
C209 C 0.51978 0.13557 0.44088 0.0
H210 H 0.56666 0.10716 0.47031 0.0
H211 H 0.55393 0.04322 0.4348 0.0
H212 H 0.40406 0.12112 0.22406 0.0
H213 H 0.45023 0.16452 0.32066 0.0
H214 H 0.5021 0.17671 0.41779 0.0
H215 H 0.54376 0.15514 0.47568 0.0
Mn216 Mn 0.72768 0.62284 0.39235 0.0
Mn217 Mn 0.64218 0.6186 0.39953 0.0
C218 C 0.71413 0.66307 0.3182 0.0
C219 C 0.77052 0.60737 0.33248 0.0
C220 C 0.69838 0.64652 0.52972 0.0
O221 O 0.69117 0.5677 0.42735 0.0
O222 O 0.6349 0.56698 0.41563 0.0
C223 C 0.59494 0.56875 0.27522 0.0
N224 N 0.61533 0.60428 0.30524 0.0
C225 C 0.58939 0.62919 0.21337 0.0
C226 C 0.56963 0.59329 0.17944 0.0
C227 C 0.57195 0.56276 0.2112 0.0
C228 C 0.61183 0.63345 0.27726 0.0
H229 H 0.59502 0.54489 0.30172 0.0
C230 C 0.65459 0.55043 0.4255 0.0
O231 O 0.77513 0.61872 0.40276 0.0
O232 O 0.74011 0.60298 0.29915 0.0
N233 N 0.64831 0.66791 0.38122 0.0
C234 C 0.66696 0.70017 0.42403 0.0
C235 C 0.66603 0.73295 0.40192 0.0
C236 C 0.64546 0.7321 0.3367 0.0
C237 C 0.62655 0.69861 0.29364 0.0
C238 C 0.62938 0.66715 0.31729 0.0
H239 H 0.68236 0.70096 0.4748 0.0
O240 O 0.74901 0.67365 0.33726 0.0
O241 O 0.6895 0.63209 0.34996 0.0
O242 O 0.72599 0.64547 0.49759 0.0
O243 O 0.66607 0.63432 0.49878 0.0
C244 C 0.60432 0.69493 0.22908 0.0
C245 C 0.58591 0.66032 0.18889 0.0
H246 H 0.55138 0.5887 0.13111 0.0
H247 H 0.55513 0.53442 0.18847 0.0
H248 H 0.68074 0.75867 0.4356 0.0
H249 H 0.64426 0.75724 0.32035 0.0
H250 H 0.60022 0.71811 0.21117 0.0
H251 H 0.56841 0.6577 0.14034 0.0
Mn252 Mn 0.12054 0.70276 0.53097 0.0
Mn253 Mn 0.0422 0.61565 0.52377 0.0
C254 C 0.06729 0.6927 0.46041 0.0
C255 C 0.17945 0.74914 0.47918 0.0
C256 C 0.06612 0.66548 0.6632 0.0
O257 O 0.14102 0.66676 0.55821 0.0
O258 O 0.08817 0.61046 0.53121 0.0
C259 C 0.03952 0.56529 0.40518 0.0
N260 N 1.02768 0.58967 0.42845 0.0
C261 C 0.96942 0.55452 0.35614 0.0
C262 C 0.98201 0.53012 0.33062 0.0
C263 C 1.01641 0.53466 0.35783 0.0
C264 C 0.99256 0.58319 0.40822 0.0
H265 H 0.06438 0.56634 0.42926 0.0
C266 C 0.12398 0.6309 0.54458 0.0
O267 O 0.17106 0.74993 0.55009 0.0
O268 O 0.15438 0.72077 0.43943 0.0
N269 N 0.99756 0.62022 0.5132 0.0
C270 C 0.98423 0.63743 0.56061 0.0
C271 C 0.94792 0.63263 0.54834 0.0
C272 C 0.92542 0.60986 0.48789 0.0
C273 C 0.9399 0.59296 0.43916 0.0
C274 C 0.97706 0.60011 0.45219 0.0
H275 H 1.00101 0.6548 0.60745 0.0
O276 O 0.09135 0.72619 0.48679 0.0
O277 O 0.0743 0.66598 0.47939 0.0
O278 O 0.09349 0.69583 0.63537 0.0
O279 O 0.05032 0.63454 0.62681 0.0
C280 C 0.91796 0.56739 0.38127 0.0
C281 C 0.93246 0.5477 0.34067 0.0
H282 H 0.96404 0.50563 0.29597 0.0
H283 H 1.02431 0.51344 0.3455 0.0
H284 H 0.93713 0.64606 0.58601 0.0
H285 H 0.89697 0.60531 0.47974 0.0
H286 H 0.88892 0.56062 0.37111 0.0
H287 H 0.91393 0.52564 0.30124 0.0
Mn288 Mn 0.44368 0.11124 0.71605 0.0
Mn289 Mn 0.44956 0.03286 0.72362 0.0
C290 C 0.39629 0.05683 0.65311 0.0
C291 C 0.45966 0.17015 0.65779 0.0
C292 C 0.43442 0.06628 0.85666 0.0
O293 O 0.50032 0.12816 0.73994 0.0
O294 O 0.50023 0.07506 0.6991 0.0
C295 C 0.47571 1.01254 0.58584 0.0
N296 N 0.44707 1.00399 0.63573 0.0
C297 C 0.4196 0.93694 0.60873 0.0
C298 C 0.4481 0.94535 0.5557 0.0
C299 C 0.47664 0.98313 0.54543 0.0
C300 C 0.42037 0.96723 0.64854 0.0
H301 H 0.49904 0.04125 0.58093 0.0
C302 C 0.5174 0.11061 0.71608 0.0
O303 O 0.45165 0.16406 0.72962 0.0
O304 O 0.45974 0.14268 0.62056 0.0
N305 N 0.40005 0.9908 0.74654 0.0
C306 C 0.37203 0.98752 0.79366 0.0
C307 C 0.34182 0.95133 0.81172 0.0
C308 C 0.34009 0.91894 0.77933 0.0
C309 C 0.367 0.92338 0.7249 0.0
C310 C 0.39562 0.96032 0.70741 0.0
H311 H 0.37157 1.01198 0.81519 0.0
O312 O 0.39016 0.08382 0.67553 0.0
O313 O 0.4296 0.06218 0.67112 0.0
O314 O 0.42373 0.08728 0.82341 0.0
O315 O 0.45612 0.05765 0.82237 0.0
C316 C 0.36634 0.89267 0.68678 0.0
C317 C 0.39243 0.8994 0.62825 0.0
H318 H 0.44955 0.9228 0.52577 0.0
H319 H 0.50042 0.98899 0.50978 0.0
H320 H 0.31993 0.94847 0.85037 0.0
H321 H 0.3171 0.89098 0.79407 0.0
H322 H 0.346 0.86377 0.70249 0.0
H323 H 0.39177 0.87548 0.59952 0.0
Mn324 Mn 0.34734 0.4271 0.9004 0.0
Mn325 Mn 0.43394 0.43495 0.92923 0.0
C326 C 0.36556 0.39122 0.82932 0.0
C327 C 0.3049 0.44119 0.83405 0.0
C328 C 0.36921 0.39391 0.03797 0.0
O329 O 0.37812 0.48058 0.9419 0.0
O330 O 0.43353 0.48152 0.96725 0.0
C331 C 0.49407 0.50321 0.85397 0.0
N332 N 0.47259 0.46456 0.85692 0.0
C333 C 0.518 0.45805 0.78013 0.0
C334 C 0.53977 0.4976 0.77512 0.0
C335 C 0.52811 0.52032 0.81315 0.0
C336 C 0.48551 0.4427 0.82534 0.0
H337 H 0.48668 0.521 0.88617 0.0
C338 C 0.41292 0.49751 0.96288 0.0
O339 O 0.29829 0.42825 0.90316 0.0
O340 O 0.33647 0.44713 0.8045 0.0
N341 N 0.43652 0.39238 0.88969 0.0
C342 C 0.41262 0.35464 0.9019 0.0
C343 C 0.41939 0.3278 0.86578 0.0
C344 C 0.45058 0.34007 0.81717 0.0
C345 C 0.47435 0.37904 0.80417 0.0
C346 C 0.46569 0.40437 0.84079 0.0
H347 H 0.38776 0.34519 0.93643 0.0
O348 O 0.33 0.3782 0.84568 0.0
O349 O 0.39001 0.42314 0.86181 0.0
O350 O 0.34606 0.40282 0.00701 0.0
O351 O 0.40148 0.40398 0.01075 0.0
C352 C 0.50577 0.39375 0.75513 0.0
C353 C 0.52804 0.43333 0.74425 0.0
H354 H 0.56574 0.51074 0.74301 0.0
H355 H 0.54549 0.55098 0.81146 0.0
H356 H 0.40038 0.29773 0.87471 0.0
H357 H 0.45547 0.31926 0.789 0.0
H358 H 0.51334 0.37498 0.7262 0.0
H359 H 0.55276 0.44445 0.70803 0.0
Mn360 Mn 0.94405 0.3428 0.04017 0.0
Mn361 Mn 1.02213 0.43078 0.05226 0.0
C362 C 0.99551 0.35969 0.96162 0.0
C363 C 0.88608 0.2973 0.98268 0.0
C364 C 1.00403 0.36991 0.16987 0.0
O365 O 0.92214 0.37436 0.08334 0.0
O366 O 0.9766 0.43132 0.09297 0.0
C367 C 1.00799 0.4844 0.96361 0.0
N368 N 1.0274 0.46527 0.97269 0.0
C369 C 0.07547 0.50724 0.88517 0.0
C370 C 0.05617 0.52753 0.87611 0.0
C371 C 1.02204 0.51581 0.9148 0.0
C372 C 0.06094 0.47722 0.93718 0.0
H373 H 0.98312 0.47715 -0.00365 0.0
C374 C 0.94029 0.41006 0.09765 0.0
O375 O 0.8951 0.29299 0.05156 0.0
O376 O 0.9094 0.32888 0.94947 0.0
N377 N 0.06624 0.43237 0.01046 0.0
C378 C 0.08212 0.41061 0.02817 0.0
C379 C 0.11446 0.41619 0.98901 0.0
C380 C 0.13033 0.44432 0.93271 0.0
C381 C 0.11362 0.46651 0.91574 0.0
C382 C 0.08082 0.45892 0.95532 0.0
H383 H 0.0696 0.38852 0.07049 0.0
O384 O 0.97399 0.32455 0.98223 0.0
O385 O 0.98848 0.38453 -0.00701 0.0
O386 O 0.97191 0.34459 0.14264 0.0
O387 O 1.0237 0.40193 0.13879 0.0
C388 C 0.12776 0.49539 0.86033 0.0
C389 C 0.10912 0.5163 0.84628 0.0
H390 H 0.06772 0.55262 0.84072 0.0
H391 H 1.00712 0.53155 0.90857 0.0
H392 H 0.12703 0.39873 0.00189 0.0
H393 H 0.15498 0.44817 0.90226 0.0
H394 H 0.15314 0.50206 0.82884 0.0
H395 H 0.12061 0.53901 0.80491 0.0
Mn396 Mn 0.62456 0.92702 0.2134 0.0
Mn397 Mn 0.62045 1.00857 0.22346 0.0
C398 C 0.65995 0.97714 0.13214 0.0
C399 C 0.60952 0.86722 0.16056 0.0
C400 C 0.6632 0.98904 0.33819 0.0
O401 O 0.5721 0.90808 0.25879 0.0
O402 O 0.57563 0.96534 0.27361 0.0
C403 C 0.54978 0.99377 0.14471 0.0
N404 N 0.58844 1.01318 0.1486 0.0
C405 C 0.5913 0.0613 0.06388 0.0
C406 C 0.55156 0.04207 0.06056 0.0
C407 C 0.53071 1.0079 0.10044 0.0
C408 C 0.60864 0.04661 0.11144 0.0
H409 H 0.53346 0.96874 0.17794 0.0
C410 C 0.55798 0.92881 0.27837 0.0
O411 O 0.62385 0.87751 0.22843 0.0
O412 O 0.60174 0.89063 0.12525 0.0
N413 N 0.66139 0.05119 0.17394 0.0
C414 C 0.69952 0.06661 0.1847 0.0
C415 C 0.72466 0.09931 0.14408 0.0
C416 C 0.71031 0.11589 0.09319 0.0
C417 C 0.67096 0.09918 0.08225 0.0
C418 C 0.64737 0.0662 0.12334 0.0
H419 H 0.71057 0.05348 0.22268 0.0
O420 O 0.67226 0.95452 0.15358 0.0
O421 O 0.62893 0.9721 0.16402 0.0
O422 O 0.65182 0.95518 0.31453 0.0
O423 O 0.65425 1.01111 0.30495 0.0
C424 C 0.6542 0.1136 0.03154 0.0
C425 C 0.61432 0.09501 0.02343 0.0
H426 H 0.53673 0.05328 0.02756 0.0
H427 H 0.49996 0.99287 0.09829 0.0
H428 H 0.75502 0.11171 0.15197 0.0
H429 H 0.72976 0.14122 0.06236 0.0
H430 H 0.67167 0.13912 -0.00096 0.0
H431 H 0.60158 0.10665 0.98559 0.0
C432 C 0.3631 0.39794 0.17745 0.0
C433 C 0.36357 0.37676 0.11507 0.0
C434 C 0.37667 0.39447 0.24915 0.0
C435 C 0.39149 0.36976 0.26179 0.0
H436 H 0.35617 0.42027 0.16916 0.0
H437 H 0.37798 0.4135 0.2937 0.0
S438 S 0.39058 0.30166 0.12075 0.0
N439 N 0.37332 0.3251 0.07388 0.0
N440 N 0.39938 0.31914 0.20807 0.0
C441 C 0.3878 0.34521 0.20222 0.0
C442 C 0.37371 0.34859 0.12917 0.0
C443 C 0.07643 0.39325 0.32836 0.0
C444 C 0.05361 0.37879 0.39295 0.0
C445 C 0.06007 0.38657 0.25509 0.0
C446 C 1.02021 0.36513 0.24314 0.0
H447 H 0.10657 0.41304 0.3347 0.0
H448 H 0.07876 0.40104 0.20793 0.0
S449 S 0.94891 0.31398 0.39244 0.0
N450 N 0.98976 0.33634 0.43908 0.0
N451 N 0.95929 0.32443 0.30177 0.0
C452 C 0.99765 0.34676 0.30631 0.0
C453 C 1.0143 0.35349 0.38101 0.0
C454 C 0.6705 0.97941 0.47697 0.0
C455 C 0.68291 1.00322 0.41312 0.0
C456 C 0.67748 0.99477 0.55097 0.0
C457 C 0.69717 0.03454 0.5642 0.0
H458 H 0.65207 0.94905 0.46985 0.0
H459 H 0.66448 0.9753 0.59792 0.0
S460 S 0.74326 0.10862 0.41679 0.0
N461 N 0.72203 0.06826 0.36865 0.0
N462 N 0.73449 0.09677 0.50733 0.0
C463 C 0.71379 0.05829 0.50145 0.0
C464 C 0.70674 0.0427 0.42606 0.0
C465 C 0.70303 0.6905 0.63354 0.0
C466 C 0.69888 0.65522 0.61109 0.0
C467 C 0.68483 0.69377 0.69906 0.0
C468 C 0.66006 0.66139 0.74145 0.0
H469 H 0.71817 0.71511 0.59733 0.0
H470 H 0.68821 0.72122 0.71355 0.0
S471 S 0.64212 0.56296 0.7069 0.0
N472 N 0.67255 0.58881 0.64071 0.0
N473 N 0.63391 0.59278 0.75559 0.0
C474 C 0.65693 0.62622 0.72 0.0
C475 C 0.67775 0.62382 0.65754 0.0
C476 C 1.01184 0.63078 0.75251 0.0
C477 C 0.04675 0.66422 0.73625 0.0
C478 C 0.99236 0.6262 0.82022 0.0
C479 C 1.00688 0.65446 0.876 0.0
H480 H 0.99954 0.60682 0.71369 0.0
H481 H 0.96774 0.59874 0.83202 0.0
S482 S 0.09295 0.74972 0.85946 0.0
N483 N 0.09197 0.72812 0.77911 0.0
N484 N 0.05528 0.71909 0.90794 0.0
C485 C 0.03983 0.68922 0.8589 0.0
C486 C 0.05981 0.69416 0.78897 0.0
C487 C 0.42727 1.01753 0.95243 0.0
C488 C 0.41803 0.04549 0.92985 0.0
C489 C 0.41173 0.99516 0.01707 0.0
C490 C 0.38647 0.99966 0.06381 0.0
H491 H 0.44728 1.01287 0.92045 0.0
H492 H 0.422 0.97612 0.03397 0.0
S493 S 0.35022 0.06623 0.02961 0.0
N494 N 0.37921 0.07409 0.95769 0.0
N495 N 0.35106 0.03271 0.08178 0.0
C496 C 0.3755 0.02617 0.04105 0.0
C497 C 0.39106 0.04893 0.97386 0.0
C498 C 0.6137 0.48773 0.48625 0.0
C499 C 0.63216 0.50849 0.42098 0.0
C500 C 0.57887 0.4535 0.48029 0.0
C501 C 0.5604 0.44028 0.40935 0.0
H502 H 0.62396 0.49997 0.54215 0.0
H503 H 0.56386 0.44027 0.53227 0.0
S504 S 0.60139 0.47959 0.22127 0.0
N505 N 0.63387 0.50862 0.28289 0.0
N506 N 0.56636 0.44679 0.2724 0.0
C507 C 0.58068 0.45826 0.34366 0.0
C508 C 0.61714 0.49183 0.34952 0.0
C509 C 0.14241 0.55974 0.45319 0.0
C510 C 0.1525 0.5453 0.51617 0.0
C511 C 0.14021 0.59298 0.45978 0.0
C512 C 0.14606 0.61157 0.53036 0.0
H513 H 0.1315 0.54283 0.40184 0.0
H514 H 0.12897 0.60129 0.41205 0.0
S515 S 0.18462 0.59183 0.7047 0.0
N516 N 0.17906 0.55819 0.64437 0.0
N517 N 0.17133 0.61882 0.65841 0.0
C518 C 0.16251 0.60137 0.58942 0.0
C519 C 0.16676 0.56855 0.58152 0.0
C520 C 0.57005 0.12227 0.63304 0.0
C521 C 0.55867 0.13089 0.70174 0.0
C522 C 0.60462 0.1228 0.62681 0.0
C523 C 0.62953 0.13317 0.68916 0.0
H524 H 0.54942 0.1098 0.58787 0.0
H525 H 0.60951 0.1103 0.5768 0.0
S526 S 0.61783 0.16887 0.87524 0.0
N527 N 0.57803 0.15734 0.82851 0.0
N528 N 0.64441 0.16055 0.81636 0.0
C529 C 0.62158 0.14859 0.7537 0.0
C530 C 0.58559 0.14683 0.76051 0.0
C531 C 0.47745 0.5895 0.87065 0.0
C532 C 0.50122 0.61019 0.93185 0.0
C533 C 0.44389 0.55483 0.88316 0.0
C534 C 0.43416 0.53928 0.95681 0.0
H535 H 0.48741 0.59714 0.8128 0.0
H536 H 0.42875 0.53755 0.83422 0.0
S537 S 0.47952 0.58854 0.1364 0.0
N538 N 0.50622 0.61808 0.06906 0.0
N539 N 0.44529 0.55118 0.09192 0.0
C540 C 0.45425 0.56232 0.0185 0.0
C541 C 0.48721 0.59846 0.00592 0.0
C542 C 0.92511 0.45591 0.15794 0.0
C543 C 0.9193 0.43106 0.09751 0.0
C544 C 0.92549 0.49024 0.14502 0.0
C545 C 0.92267 0.50178 0.071 0.0
H546 H 0.93383 0.45095 0.21315 0.0
H547 H 0.93397 0.51054 0.19091 0.0
S548 S 0.89507 0.44167 0.89882 0.0
N549 N 0.89959 0.41537 0.96541 0.0
N550 N 0.90474 0.48208 0.94018 0.0
C551 C 0.91121 0.47493 0.01254 0.0
C552 C 0.90832 0.43882 0.02647 0.0
C553 C 0.47024 0.92547 0.34384 0.0
C554 C 0.45062 0.91863 0.27407 0.0
C555 C 0.5032 0.92272 0.35043 0.0
C556 C 0.51647 0.91112 0.28833 0.0
H557 H 0.46257 0.93729 0.39104 0.0
H558 H 0.5206 0.93383 0.40126 0.0
S559 S 0.46815 0.87812 0.10125 0.0
N560 N 0.44201 0.89232 0.14705 0.0
N561 N 0.50229 0.88392 0.16099 0.0
C562 C 0.49286 0.89715 0.22324 0.0
C563 C 0.46025 0.9018 0.21539 0.0
C564 C 0.40971 0.40566 0.72251 0.0
C565 C 0.37562 0.37975 0.75721 0.0
C566 C 0.42166 0.39674 0.65612 0.0
C567 C 0.39699 0.36518 0.6123 0.0
H568 H 0.42751 0.43353 0.74616 0.0
H569 H 0.45056 0.41523 0.63884 0.0
S570 S 0.30166 0.28898 0.67165 0.0
N571 N 0.31662 0.31952 0.7433 0.0
N572 N 0.33581 0.30679 0.60768 0.0
C573 C 0.36151 0.33927 0.64348 0.0
C574 C 0.35108 0.34622 0.71699 0.0
C575 C 1.02 0.39947 0.84625 0.0
C576 C 1.01578 0.36829 0.88833 0.0
C577 C 0.04073 0.41041 0.77938 0.0
C578 C 0.05222 0.3871 0.74361 0.0
H579 H 1.00776 0.4162 0.86555 0.0
H580 H 0.0484 0.43787 0.75661 0.0
S581 S 0.04286 0.29814 0.82417 0.0
N582 N 1.02407 0.31297 0.88928 0.0
N583 N 0.05635 0.32936 0.75424 0.0
C584 C 0.04573 0.35385 0.78207 0.0
C585 C 1.02813 0.34486 0.8553 0.0
C586 C 0.64681 1.00523 0.01945 0.0
C587 C 0.67222 0.99748 0.05886 0.0
C588 C 0.65736 0.02665 0.95343 0.0
C589 C 0.69056 0.03486 0.91499 0.0
H590 H 0.6185 0.99525 0.04023 0.0
H591 H 0.63923 0.03709 0.93294 0.0
S592 S 0.76573 1.01621 0.9879 0.0
N593 N 0.73308 0.99953 0.05492 0.0
N594 N 0.74943 0.03277 0.92026 0.0
C595 C 0.71571 0.02511 0.95067 0.0
C596 C 0.70682 1.00699 0.02363 0.0
C597 C 0.69504 0.70521 0.14083 0.0
C598 C 0.67637 0.67291 0.09216 0.0
C599 C 0.70904 0.70317 0.21337 0.0
C600 C 0.70509 0.6688 0.2395 0.0
H601 H 0.69775 0.73216 0.12426 0.0
H602 H 0.72152 0.72799 0.24995 0.0
S603 S 0.66283 0.57762 0.13449 0.0
N604 N 0.6574 0.60687 0.07751 0.0
N605 N 0.68455 0.60302 0.21016 0.0
C606 C 0.68842 0.63721 0.19068 0.0
C607 C 0.67367 0.6392 0.1183 0.0
C608 C 0.07483 0.69119 0.32294 0.0
C609 C 0.05247 0.69077 0.3836 0.0
C610 C 0.06114 0.68549 0.24861 0.0
C611 C 1.02386 0.67613 0.23226 0.0
H612 H 0.1032 0.69589 0.33282 0.0
H613 H 0.08033 0.68968 0.20429 0.0
S614 S 0.95932 0.68567 0.3682 0.0
N615 N 0.99606 0.69246 0.42093 0.0
N616 N 0.96812 0.67702 0.28112 0.0
C617 C 1.00268 0.68001 0.29165 0.0
C618 C 1.0175 0.68805 0.36753 0.0
C619 C 0.38462 0.04797 0.44014 0.0
C620 C 0.36604 1.00868 0.42839 0.0
C621 C 0.39283 0.06332 0.51373 0.0
C622 C 0.38065 0.0397 0.57821 0.0
H623 H 0.3928 0.06699 0.39267 0.0
H624 H 0.40965 0.09389 0.52008 0.0
S625 S 0.31596 0.9358 0.57714 0.0
N626 N 0.32653 0.94685 0.48675 0.0
N627 N 0.3392 0.97611 0.62497 0.0
C628 C 0.35687 1.0007 0.56718 0.0
C629 C 0.3498 0.98503 0.49216 0.0
C630 C 0.45548 0.23553 0.50572 0.0
C631 C 0.46802 0.27025 0.54457 0.0
C632 C 0.45436 0.20389 0.54173 0.0
C633 C 0.4652 0.20531 0.61861 0.0
H634 H 0.44539 0.23231 0.44749 0.0
H635 H 0.44349 0.17763 0.50981 0.0
S636 S 0.50567 0.29059 0.74282 0.0
N637 N 0.49568 0.30495 0.66235 0.0
N638 N 0.49261 0.24541 0.72983 0.0
C639 C 0.4794 0.2402 0.65705 0.0
C640 C 0.48109 0.27261 0.62016 0.0
C641 C 0.26693 0.43096 0.7143 0.0
C642 C 0.27649 0.44596 0.7885 0.0
C643 C 0.23832 0.4327 0.67161 0.0
C644 C 0.21837 0.45 0.70094 0.0
H645 H 0.28071 0.41646 0.69008 0.0
H646 H 0.23113 0.41941 0.61595 0.0
S647 S 0.23749 0.49927 0.88786 0.0
N648 N 0.26649 0.48176 0.88681 0.0
N649 N 0.21395 0.48654 0.80616 0.0
C650 C 0.2293 0.46698 0.77367 0.0
C651 C 0.25793 0.46452 0.81757 0.0
C652 C 0.82002 0.2399 0.97857 0.0
C653 C 0.85329 0.2661 0.94056 0.0
C654 C 0.7899 0.20912 0.93956 0.0
C655 C 0.79218 0.20266 0.86137 0.0
H656 H 0.81726 0.24313 0.03895 0.0
H657 H 0.76501 0.18974 0.97145 0.0
S658 S 0.87393 0.26198 0.73658 0.0
N659 N 0.88683 0.28318 0.82033 0.0
N660 N 0.83099 0.22524 0.74801 0.0
C661 C 0.8253 0.2288 0.8229 0.0
C662 C 0.8556 0.26045 0.86218 0.0
C663 C 0.62414 0.81374 0.15518 0.0
C664 C 0.60636 0.83269 0.12239 0.0
C665 C 0.62504 0.78362 0.11738 0.0
C666 C 0.60789 0.77075 0.04552 0.0
H667 H 0.6386 0.82296 0.20961 0.0
H668 H 0.64063 0.77128 0.14343 0.0
S669 S 0.55572 0.80862 0.93597 0.0
N670 N 0.56984 0.83494 0.01398 0.0
N671 N 0.57166 0.77843 0.94372 0.0
C672 C 0.5896 0.78893 0.01233 0.0
C673 C 0.58863 0.81967 0.05069 0.0
C674 C 0.83359 0.60924 0.32673 0.0
C675 C 0.80017 0.60343 0.28977 0.0
C676 C 0.86342 0.60936 0.28608 0.0
C677 C 0.86141 0.60402 0.20662 0.0
H678 H 0.83719 0.61459 0.38743 0.0
H679 H 0.88881 0.61497 0.31699 0.0
S680 S 0.77936 0.5854 0.08267 0.0
N681 N 0.7663 0.59031 0.16865 0.0
N682 N 0.82231 0.59098 0.09297 0.0
C683 C 0.82781 0.59724 0.16916 0.0
C684 C 0.79727 0.59677 0.21051 0.0
C685 C 0.21558 0.78745 0.36484 0.0
C686 C 0.21455 0.78036 0.44358 0.0
C687 C 0.24716 0.81867 0.33115 0.0
C688 C 0.27943 0.84396 0.37439 0.0
H689 H 0.19127 0.76947 0.32916 0.0
H690 H 0.24582 0.82343 0.27083 0.0
S691 S 0.29262 0.83465 0.58083 0.0
N692 N 0.24956 0.7993 0.56251 0.0
N693 N 0.30927 0.85707 0.49954 0.0
C694 C 0.27939 0.83592 0.4525 0.0
C695 C 0.24694 0.80447 0.48689 0.0
loop_
_geom_bond_atom_site_label_1
_geom_bond_atom_site_label_2
_geom_bond_distance
_geom_bond_site_symmetry_2
_ccdc_geom_bond_type
Mn0 O5 2.095 . S
Mn0 O15 2.162 . S
Mn0 O16 2.297 . S
Mn0 O24 2.385 . S
Mn0 O25 2.209 . S
Mn0 O26 2.094 . S
Mn1 O6 2.121 . S
Mn1 N8 2.257 . S
Mn1 N17 2.282 . S
Mn1 O25 2.215 . S
Mn1 O27 2.117 . S
C2 O24 1.234 . S
C2 O25 1.283 . S
C3 O15 1.281 . S
C3 O16 1.236 . S
C4 O26 1.240 . S
C4 O27 1.264 . S
O5 Mn0 2.095 . S
O5 C14 1.250 . S
O6 Mn1 2.121 . S
O6 C14 1.258 . S
C7 N8 1.326 . S
C7 C11 1.460 . S
C7 H13 0.929 . S
N8 Mn1 2.257 . S
N8 C7 1.326 . S
N8 C12 1.362 . S
C9 C10 1.258 . S
C9 C12 1.431 . S
C9 C29 1.449 . S
C10 C9 1.258 . S
C10 C11 1.477 . S
C10 H30 0.931 . S
C11 C7 1.460 . S
C11 C10 1.477 . S
C11 H31 0.930 . S
C12 N8 1.362 . S
C12 C9 1.431 . S
C12 C22 1.476 . S
H13 C7 0.929 . S
C14 O5 1.250 . S
C14 O6 1.258 . S
O15 Mn0 2.162 . S
O15 C3 1.281 . S
O16 Mn0 2.297 . S
O16 C3 1.236 . S
N17 Mn1 2.282 . S
N17 C18 1.328 . S
N17 C22 1.318 . S
C18 N17 1.328 . S
C18 C19 1.457 . S
C18 H23 0.929 . S
C19 C18 1.457 . S
C19 C20 1.291 . S
C19 H32 0.931 . S
C20 C19 1.291 . S
C20 C21 1.373 . S
C20 H33 0.929 . S
C21 C20 1.373 . S
C21 C22 1.396 . S
C21 C28 1.403 . S
C22 C12 1.476 . S
C22 N17 1.318 . S
C22 C21 1.396 . S
H23 C18 0.929 . S
O24 Mn0 2.385 . S
O24 C2 1.234 . S
O25 Mn0 2.209 . S
O25 Mn1 2.215 . S
O25 C2 1.283 . S
O26 Mn0 2.094 . S
O26 C4 1.240 . S
O27 Mn1 2.117 . S
O27 C4 1.264 . S
C28 C21 1.403 . S
C28 C29 1.399 . S
C28 H34 0.929 . S
C29 C9 1.449 . S
C29 C28 1.399 . S
C29 H35 0.930 . S
H30 C10 0.931 . S
H31 C11 0.930 . S
H32 C19 0.931 . S
H33 C20 0.929 . S
H34 C28 0.929 . S
H35 C29 0.930 . S
Mn36 O41 2.095 . S
Mn36 O51 2.162 . S
Mn36 O52 2.297 . S
Mn36 O60 2.385 . S
Mn36 O61 2.209 . S
Mn36 O62 2.094 . S
Mn37 O42 2.121 . S
Mn37 N44 2.257 . S
Mn37 N53 2.282 1_455 S
Mn37 O61 2.215 . S
Mn37 O63 2.117 . S
C38 O60 1.234 . S
C38 O61 1.283 . S
C39 O51 1.281 . S
C39 O52 1.236 . S
C40 O62 1.240 . S
C40 O63 1.264 . S
O41 Mn36 2.095 . S
O41 C50 1.250 . S
O42 Mn37 2.121 . S
O42 C50 1.258 . S
C43 N44 1.326 . S
C43 C47 1.441 1_455 S
C43 H49 0.929 . S
N44 Mn37 2.257 . S
N44 C43 1.326 . S
N44 C48 1.362 1_455 S
C45 C46 1.258 . S
C45 C48 1.431 . S
C45 C65 1.449 . S
C46 C45 1.258 . S
C46 C47 1.494 . S
C46 H66 0.931 . S
C47 C43 1.441 1_655 S
C47 C46 1.494 . S
C47 H67 0.933 1_655 S
C48 N44 1.362 1_655 S
C48 C45 1.431 . S
C48 C58 1.476 . S
H49 C43 0.929 . S
C50 O41 1.250 . S
C50 O42 1.258 . S
O51 Mn36 2.162 . S
O51 C39 1.281 . S
O52 Mn36 2.297 . S
O52 C39 1.236 . S
N53 Mn37 2.282 1_655 S
N53 C54 1.328 . S
N53 C58 1.318 . S
C54 N53 1.328 . S
C54 C55 1.457 . S
C54 H59 0.929 . S
C55 C54 1.457 . S
C55 C56 1.291 . S
C55 H68 0.931 . S
C56 C55 1.291 . S
C56 C57 1.373 . S
C56 H69 0.929 . S
C57 C56 1.373 . S
C57 C58 1.396 . S
C57 C64 1.403 . S
C58 C48 1.476 . S
C58 N53 1.318 . S
C58 C57 1.396 . S
H59 C54 0.929 . S
O60 Mn36 2.385 . S
O60 C38 1.234 . S
O61 Mn36 2.209 . S
O61 Mn37 2.215 . S
O61 C38 1.283 . S
O62 Mn36 2.094 . S
O62 C40 1.240 . S
O63 Mn37 2.117 . S
O63 C40 1.264 . S
C64 C57 1.403 . S
C64 C65 1.399 . S
C64 H70 0.929 . S
C65 C45 1.449 . S
C65 C64 1.399 . S
C65 H71 0.930 . S
H66 C46 0.931 . S
H67 C47 0.933 1_455 S
H68 C55 0.931 . S
H69 C56 0.929 . S
H70 C64 0.929 . S
H71 C65 0.930 . S
Mn72 O77 2.095 . S
Mn72 O87 2.162 . S
Mn72 O88 2.297 . S
Mn72 O96 2.385 . S
Mn72 O97 2.209 . S
Mn72 O98 2.094 . S
Mn73 O78 2.121 . S
Mn73 N80 2.257 . S
Mn73 N89 2.282 1_545 S
Mn73 O97 2.215 . S
Mn73 O99 2.117 . S
C74 O96 1.234 . S
C74 O97 1.283 . S
C75 O87 1.281 . S
C75 O88 1.236 . S
C76 O98 1.240 . S
C76 O99 1.264 . S
O77 Mn72 2.095 . S
O77 C86 1.250 . S
O78 Mn73 2.121 . S
O78 C86 1.258 . S
C79 N80 1.326 . S
C79 C83 1.455 1_545 S
C79 H85 0.929 . S
N80 Mn73 2.257 . S
N80 C79 1.326 . S
N80 C84 1.362 1_545 S
C81 C82 1.258 . S
C81 C84 1.431 . S
C81 C101 1.449 . S
C82 C81 1.258 . S
C82 C83 1.504 . S
C82 H102 0.931 1_556 S
C83 C79 1.455 1_565 S
C83 C82 1.504 . S
C83 H103 0.909 1_565 S
C84 N80 1.362 1_565 S
C84 C81 1.431 . S
C84 C94 1.476 . S
H85 C79 0.929 . S
C86 O77 1.250 . S
C86 O78 1.258 . S
O87 Mn72 2.162 . S
O87 C75 1.281 . S
O88 Mn72 2.297 . S
O88 C75 1.236 . S
N89 Mn73 2.282 1_565 S
N89 C90 1.328 . S
N89 C94 1.318 . S
C90 N89 1.328 . S
C90 C91 1.457 . S
C90 H95 0.929 . S
C91 C90 1.457 . S
C91 C92 1.291 . S
C91 H104 0.931 . S
C92 C91 1.291 . S
C92 C93 1.373 . S
C92 H105 0.929 . S
C93 C92 1.373 . S
C93 C94 1.396 . S
C93 C100 1.403 . S
C94 C84 1.476 . S
C94 N89 1.318 . S
C94 C93 1.396 . S
H95 C90 0.929 . S
O96 Mn72 2.385 . S
O96 C74 1.234 . S
O97 Mn72 2.209 . S
O97 Mn73 2.215 . S
O97 C74 1.283 . S
O98 Mn72 2.094 . S
O98 C76 1.240 . S
O99 Mn73 2.117 . S
O99 C76 1.264 . S
C100 C93 1.403 . S
C100 C101 1.399 . S
C100 H106 0.929 . S
C101 C81 1.449 . S
C101 C100 1.399 . S
C101 H107 0.930 1_556 S
H102 C82 0.931 1_554 S
H103 C83 0.909 1_545 S
H104 C91 0.931 . S
H105 C92 0.929 . S
H106 C100 0.929 . S
H107 C101 0.930 1_554 S
Mn108 O113 2.095 . S
Mn108 O123 2.162 . S
Mn108 O124 2.297 1_556 S
Mn108 O132 2.385 1_556 S
Mn108 O133 2.209 1_556 S
Mn108 O134 2.094 . S
Mn109 O114 2.121 . S
Mn109 N116 2.257 1_556 S
Mn109 N125 2.282 . S
Mn109 O133 2.215 1_556 S
Mn109 O135 2.117 . S
C110 O132 1.234 . S
C110 O133 1.283 . S
C111 O123 1.281 . S
C111 O124 1.236 1_556 S
C112 O134 1.240 . S
C112 O135 1.264 . S
O113 Mn108 2.095 . S
O113 C122 1.250 . S
O114 Mn109 2.121 . S
O114 C122 1.258 . S
C115 N116 1.326 . S
C115 C119 1.460 . S
C115 H121 0.929 . S
N116 Mn109 2.257 1_554 S
N116 C115 1.326 . S
N116 C120 1.362 . S
C117 C118 1.258 . S
C117 C120 1.431 . S
C117 C137 1.449 . S
C118 C117 1.258 . S
C118 C119 1.477 . S
C118 H138 0.931 . S
C119 C115 1.460 . S
C119 C118 1.477 . S
C119 H139 0.930 . S
C120 N116 1.362 . S
C120 C117 1.431 . S
C120 C130 1.476 . S
H121 C115 0.929 . S
C122 O113 1.250 . S
C122 O114 1.258 . S
O123 Mn108 2.162 . S
O123 C111 1.281 . S
O124 Mn108 2.297 1_554 S
O124 C111 1.236 1_554 S
N125 Mn109 2.282 . S
N125 C126 1.328 . S
N125 C130 1.318 1_556 S
C126 N125 1.328 . S
C126 C127 1.457 . S
C126 H131 0.929 . S
C127 C126 1.457 . S
C127 C128 1.291 1_556 S
C127 H140 0.931 . S
C128 C127 1.291 1_554 S
C128 C129 1.373 . S
C128 H141 0.929 . S
C129 C128 1.373 . S
C129 C130 1.396 . S
C129 C136 1.403 . S
C130 C120 1.476 . S
C130 N125 1.318 1_554 S
C130 C129 1.396 . S
H131 C126 0.929 . S
O132 Mn108 2.385 1_554 S
O132 C110 1.234 . S
O133 Mn108 2.209 1_554 S
O133 Mn109 2.215 1_554 S
O133 C110 1.283 . S
O134 Mn108 2.094 . S
O134 C112 1.240 . S
O135 Mn109 2.117 . S
O135 C112 1.264 . S
C136 C129 1.403 . S
C136 C137 1.399 . S
C136 H142 0.929 . S
C137 C117 1.449 . S
C137 C136 1.399 . S
C137 H143 0.930 . S
H138 C118 0.931 . S
H139 C119 0.930 . S
H140 C127 0.931 . S
H141 C128 0.929 . S
H142 C136 0.929 . S
H143 C137 0.930 . S
Mn144 O149 2.095 . S
Mn144 O159 2.162 . S
Mn144 O160 2.297 . S
Mn144 O168 2.385 . S
Mn144 O169 2.209 . S
Mn144 O170 2.094 1_554 S
Mn145 O150 2.121 . S
Mn145 N152 2.257 . S
Mn145 N161 2.282 1_655 S
Mn145 O169 2.215 . S
Mn145 O171 2.117 . S
C146 O168 1.234 . S
C146 O169 1.283 . S
C147 O159 1.281 . S
C147 O160 1.236 . S
C148 O170 1.240 . S
C148 O171 1.264 1_556 S
O149 Mn144 2.095 . S
O149 C158 1.250 . S
O150 Mn145 2.121 . S
O150 C158 1.258 . S
C151 N152 1.326 . S
C151 C155 1.441 1_655 S
C151 H157 0.929 . S
N152 Mn145 2.257 . S
N152 C151 1.326 . S
N152 C156 1.362 1_655 S
C153 C154 1.258 . S
C153 C156 1.431 . S
C153 C173 1.449 . S
C154 C153 1.258 . S
C154 C155 1.494 . S
C154 H174 0.931 . S
C155 C151 1.441 1_455 S
C155 C154 1.494 . S
C155 H175 0.933 1_455 S
C156 N152 1.362 1_455 S
C156 C153 1.431 . S
C156 C166 1.476 . S
H157 C151 0.929 . S
C158 O149 1.250 . S
C158 O150 1.258 . S
O159 Mn144 2.162 . S
O159 C147 1.281 . S
O160 Mn144 2.297 . S
O160 C147 1.236 . S
N161 Mn145 2.282 1_455 S
N161 C162 1.328 . S
N161 C166 1.318 . S
C162 N161 1.328 . S
C162 C163 1.457 . S
C162 H167 0.929 . S
C163 C162 1.457 . S
C163 C164 1.291 . S
C163 H176 0.931 . S
C164 C163 1.291 . S
C164 C165 1.373 . S
C164 H177 0.929 . S
C165 C164 1.373 . S
C165 C166 1.396 . S
C165 C172 1.403 . S
C166 C156 1.476 . S
C166 N161 1.318 . S
C166 C165 1.396 . S
H167 C162 0.929 . S
O168 Mn144 2.385 . S
O168 C146 1.234 . S
O169 Mn144 2.209 . S
O169 Mn145 2.215 . S
O169 C146 1.283 . S
O170 Mn144 2.094 1_556 S
O170 C148 1.240 . S
O171 Mn145 2.117 . S
O171 C148 1.264 1_554 S
C172 C165 1.403 . S
C172 C173 1.399 . S
C172 H178 0.929 . S
C173 C153 1.449 . S
C173 C172 1.399 . S
C173 H179 0.930 . S
H174 C154 0.931 . S
H175 C155 0.933 1_655 S
H176 C163 0.931 . S
H177 C164 0.929 . S
H178 C172 0.929 . S
H179 C173 0.930 . S
Mn180 O185 2.095 . S
Mn180 O195 2.162 . S
Mn180 O196 2.297 . S
Mn180 O204 2.385 . S
Mn180 O205 2.209 . S
Mn180 O206 2.094 . S
Mn181 O186 2.121 . S
Mn181 N188 2.257 . S
Mn181 N197 2.282 1_565 S
Mn181 O205 2.215 . S
Mn181 O207 2.117 . S
C182 O204 1.234 . S
C182 O205 1.283 . S
C183 O195 1.281 . S
C183 O196 1.236 . S
C184 O206 1.240 . S
C184 O207 1.264 . S
O185 Mn180 2.095 . S
O185 C194 1.250 . S
O186 Mn181 2.121 . S
O186 C194 1.258 . S
C187 N188 1.326 . S
C187 C191 1.455 1_565 S
C187 H193 0.929 . S
N188 Mn181 2.257 . S
N188 C187 1.326 . S
N188 C192 1.362 1_565 S
C189 C190 1.258 . S
C189 C192 1.431 . S
C189 C209 1.449 . S
C190 C189 1.258 . S
C190 C191 1.504 . S
C190 H210 0.931 . S
C191 C187 1.455 1_545 S
C191 C190 1.504 . S
C191 H211 0.909 1_545 S
C192 N188 1.362 1_545 S
C192 C189 1.431 . S
C192 C202 1.476 . S
H193 C187 0.929 . S
C194 O185 1.250 . S
C194 O186 1.258 . S
O195 Mn180 2.162 . S
O195 C183 1.281 . S
O196 Mn180 2.297 . S
O196 C183 1.236 . S
N197 Mn181 2.282 1_545 S
N197 C198 1.328 . S
N197 C202 1.318 . S
C198 N197 1.328 . S
C198 C199 1.457 . S
C198 H203 0.929 . S
C199 C198 1.457 . S
C199 C200 1.291 . S
C199 H212 0.931 . S
C200 C199 1.291 . S
C200 C201 1.373 . S
C200 H213 0.929 . S
C201 C200 1.373 . S
C201 C202 1.396 . S
C201 C208 1.403 . S
C202 C192 1.476 . S
C202 N197 1.318 . S
C202 C201 1.396 . S
H203 C198 0.929 . S
O204 Mn180 2.385 . S
O204 C182 1.234 . S
O205 Mn180 2.209 . S
O205 Mn181 2.215 . S
O205 C182 1.283 . S
O206 Mn180 2.094 . S
O206 C184 1.240 . S
O207 Mn181 2.117 . S
O207 C184 1.264 . S
C208 C201 1.403 . S
C208 C209 1.399 . S
C208 H214 0.929 . S
C209 C189 1.449 . S
C209 C208 1.399 . S
C209 H215 0.930 . S
H210 C190 0.931 . S
H211 C191 0.909 1_565 S
H212 C199 0.931 . S
H213 C200 0.929 . S
H214 C208 0.929 . S
H215 C209 0.930 . S
Mn216 O221 2.095 . S
Mn216 O231 2.162 . S
Mn216 O232 2.297 . S
Mn216 O240 2.385 . S
Mn216 O241 2.209 . S
Mn216 O242 2.094 . S
Mn217 O222 2.121 . S
Mn217 N224 2.257 . S
Mn217 N233 2.282 . S
Mn217 O241 2.215 . S
Mn217 O243 2.117 . S
C218 O240 1.234 . S
C218 O241 1.283 . S
C219 O231 1.281 . S
C219 O232 1.236 . S
C220 O242 1.240 . S
C220 O243 1.264 . S
O221 Mn216 2.095 . S
O221 C230 1.250 . S
O222 Mn217 2.121 . S
O222 C230 1.258 . S
C223 N224 1.326 . S
C223 C227 1.460 . S
C223 H229 0.929 . S
N224 Mn217 2.257 . S
N224 C223 1.326 . S
N224 C228 1.362 . S
C225 C226 1.258 . S
C225 C228 1.431 . S
C225 C245 1.449 . S
C226 C225 1.258 . S
C226 C227 1.477 . S
C226 H246 0.931 . S
C227 C223 1.460 . S
C227 C226 1.477 . S
C227 H247 0.930 . S
C228 N224 1.362 . S
C228 C225 1.431 . S
C228 C238 1.476 . S
H229 C223 0.929 . S
C230 O221 1.250 . S
C230 O222 1.258 . S
O231 Mn216 2.162 . S
O231 C219 1.281 . S
O232 Mn216 2.297 . S
O232 C219 1.236 . S
N233 Mn217 2.282 . S
N233 C234 1.328 . S
N233 C238 1.318 . S
C234 N233 1.328 . S
C234 C235 1.457 . S
C234 H239 0.929 . S
C235 C234 1.457 . S
C235 C236 1.291 . S
C235 H248 0.931 . S
C236 C235 1.291 . S
C236 C237 1.373 . S
C236 H249 0.929 . S
C237 C236 1.373 . S
C237 C238 1.396 . S
C237 C244 1.403 . S
C238 C228 1.476 . S
C238 N233 1.318 . S
C238 C237 1.396 . S
H239 C234 0.929 . S
O240 Mn216 2.385 . S
O240 C218 1.234 . S
O241 Mn216 2.209 . S
O241 Mn217 2.215 . S
O241 C218 1.283 . S
O242 Mn216 2.094 . S
O242 C220 1.240 . S
O243 Mn217 2.117 . S
O243 C220 1.264 . S
C244 C237 1.403 . S
C244 C245 1.399 . S
C244 H250 0.929 . S
C245 C225 1.449 . S
C245 C244 1.399 . S
C245 H251 0.930 . S
H246 C226 0.931 . S
H247 C227 0.930 . S
H248 C235 0.931 . S
H249 C236 0.929 . S
H250 C244 0.929 . S
H251 C245 0.930 . S
Mn252 O257 2.095 . S
Mn252 O267 2.162 . S
Mn252 O268 2.297 . S
Mn252 O276 2.385 . S
Mn252 O277 2.209 . S
Mn252 O278 2.094 . S
Mn253 O258 2.121 . S
Mn253 N260 2.257 . S
Mn253 N269 2.282 1_455 S
Mn253 O277 2.215 . S
Mn253 O279 2.117 . S
C254 O276 1.234 . S
C254 O277 1.283 . S
C255 O267 1.281 . S
C255 O268 1.236 . S
C256 O278 1.240 . S
C256 O279 1.264 . S
O257 Mn252 2.095 . S
O257 C266 1.250 . S
O258 Mn253 2.121 . S
O258 C266 1.258 . S
C259 N260 1.326 . S
C259 C263 1.455 1_455 S
C259 H265 0.929 . S
N260 Mn253 2.257 . S
N260 C259 1.326 . S
N260 C264 1.362 1_455 S
C261 C262 1.258 . S
C261 C264 1.431 . S
C261 C281 1.449 . S
C262 C261 1.258 . S
C262 C263 1.504 . S
C262 H282 0.931 . S
C263 C259 1.455 1_655 S
C263 C262 1.504 . S
C263 H283 0.909 1_655 S
C264 N260 1.362 1_655 S
C264 C261 1.431 . S
C264 C274 1.476 . S
H265 C259 0.929 . S
C266 O257 1.250 . S
C266 O258 1.258 . S
O267 Mn252 2.162 . S
O267 C255 1.281 . S
O268 Mn252 2.297 . S
O268 C255 1.236 . S
N269 Mn253 2.282 1_655 S
N269 C270 1.328 . S
N269 C274 1.318 . S
C270 N269 1.328 . S
C270 C271 1.457 . S
C270 H275 0.929 . S
C271 C270 1.457 . S
C271 C272 1.291 . S
C271 H284 0.931 . S
C272 C271 1.291 . S
C272 C273 1.373 . S
C272 H285 0.929 . S
C273 C272 1.373 . S
C273 C274 1.396 . S
C273 C280 1.403 . S
C274 C264 1.476 . S
C274 N269 1.318 . S
C274 C273 1.396 . S
H275 C270 0.929 . S
O276 Mn252 2.385 . S
O276 C254 1.234 . S
O277 Mn252 2.209 . S
O277 Mn253 2.215 . S
O277 C254 1.283 . S
O278 Mn252 2.094 . S
O278 C256 1.240 . S
O279 Mn253 2.117 . S
O279 C256 1.264 . S
C280 C273 1.403 . S
C280 C281 1.399 . S
C280 H286 0.929 . S
C281 C261 1.449 . S
C281 C280 1.399 . S
C281 H287 0.930 . S
H282 C262 0.931 . S
H283 C263 0.909 1_455 S
H284 C271 0.931 . S
H285 C272 0.929 . S
H286 C280 0.929 . S
H287 C281 0.930 . S
Mn288 O293 2.095 . S
Mn288 O303 2.162 . S
Mn288 O304 2.297 . S
Mn288 O312 2.385 . S
Mn288 O313 2.209 . S
Mn288 O314 2.094 . S
Mn289 O294 2.121 . S
Mn289 N296 2.257 . S
Mn289 N305 2.282 1_545 S
Mn289 O313 2.215 . S
Mn289 O315 2.117 . S
C290 O312 1.234 . S
C290 O313 1.283 . S
C291 O303 1.281 . S
C291 O304 1.236 . S
C292 O314 1.240 . S
C292 O315 1.264 . S
O293 Mn288 2.095 . S
O293 C302 1.250 . S
O294 Mn289 2.121 . S
O294 C302 1.258 . S
C295 N296 1.326 . S
C295 C299 1.441 1_545 S
C295 H301 0.929 . S
N296 Mn289 2.257 . S
N296 C295 1.326 . S
N296 C300 1.362 1_545 S
C297 C298 1.258 . S
C297 C300 1.431 . S
C297 C317 1.449 . S
C298 C297 1.258 . S
C298 C299 1.494 . S
C298 H318 0.931 . S
C299 C295 1.441 1_565 S
C299 C298 1.494 . S
C299 H319 0.933 1_565 S
C300 N296 1.362 1_565 S
C300 C297 1.431 . S
C300 C310 1.476 . S
H301 C295 0.929 . S
C302 O293 1.250 . S
C302 O294 1.258 . S
O303 Mn288 2.162 . S
O303 C291 1.281 . S
O304 Mn288 2.297 . S
O304 C291 1.236 . S
N305 Mn289 2.282 1_565 S
N305 C306 1.328 . S
N305 C310 1.318 . S
C306 N305 1.328 . S
C306 C307 1.457 . S
C306 H311 0.929 . S
C307 C306 1.457 . S
C307 C308 1.291 . S
C307 H320 0.931 . S
C308 C307 1.291 . S
C308 C309 1.373 . S
C308 H321 0.929 . S
C309 C308 1.373 . S
C309 C310 1.396 . S
C309 C316 1.403 . S
C310 C300 1.476 . S
C310 N305 1.318 . S
C310 C309 1.396 . S
H311 C306 0.929 . S
O312 Mn288 2.385 . S
O312 C290 1.234 . S
O313 Mn288 2.209 . S
O313 Mn289 2.215 . S
O313 C290 1.283 . S
O314 Mn288 2.094 . S
O314 C292 1.240 . S
O315 Mn289 2.117 . S
O315 C292 1.264 . S
C316 C309 1.403 . S
C316 C317 1.399 . S
C316 H322 0.929 . S
C317 C297 1.449 . S
C317 C316 1.399 . S
C317 H323 0.930 . S
H318 C298 0.931 . S
H319 C299 0.933 1_545 S
H320 C307 0.931 . S
H321 C308 0.929 . S
H322 C316 0.929 . S
H323 C317 0.930 . S
Mn324 O329 2.095 . S
Mn324 O339 2.162 . S
Mn324 O340 2.297 . S
Mn324 O348 2.385 . S
Mn324 O349 2.209 . S
Mn324 O350 2.094 1_556 S
Mn325 O330 2.121 . S
Mn325 N332 2.257 . S
Mn325 N341 2.282 . S
Mn325 O349 2.215 . S
Mn325 O351 2.117 . S
C326 O348 1.234 . S
C326 O349 1.283 . S
C327 O339 1.281 . S
C327 O340 1.236 . S
C328 O350 1.240 . S
C328 O351 1.264 1_554 S
O329 Mn324 2.095 . S
O329 C338 1.250 . S
O330 Mn325 2.121 . S
O330 C338 1.258 . S
C331 N332 1.326 . S
C331 C335 1.460 . S
C331 H337 0.929 . S
N332 Mn325 2.257 . S
N332 C331 1.326 . S
N332 C336 1.362 . S
C333 C334 1.258 . S
C333 C336 1.431 . S
C333 C353 1.449 . S
C334 C333 1.258 . S
C334 C335 1.477 . S
C334 H354 0.931 . S
C335 C331 1.460 . S
C335 C334 1.477 . S
C335 H355 0.930 . S
C336 N332 1.362 . S
C336 C333 1.431 . S
C336 C346 1.476 . S
H337 C331 0.929 . S
C338 O329 1.250 . S
C338 O330 1.258 . S
O339 Mn324 2.162 . S
O339 C327 1.281 . S
O340 Mn324 2.297 . S
O340 C327 1.236 . S
N341 Mn325 2.282 . S
N341 C342 1.328 . S
N341 C346 1.318 . S
C342 N341 1.328 . S
C342 C343 1.457 . S
C342 H347 0.929 . S
C343 C342 1.457 . S
C343 C344 1.291 . S
C343 H356 0.931 . S
C344 C343 1.291 . S
C344 C345 1.373 . S
C344 H357 0.929 . S
C345 C344 1.373 . S
C345 C346 1.396 . S
C345 C352 1.403 . S
C346 C336 1.476 . S
C346 N341 1.318 . S
C346 C345 1.396 . S
H347 C342 0.929 . S
O348 Mn324 2.385 . S
O348 C326 1.234 . S
O349 Mn324 2.209 . S
O349 Mn325 2.215 . S
O349 C326 1.283 . S
O350 Mn324 2.094 1_554 S
O350 C328 1.240 . S
O351 Mn325 2.117 . S
O351 C328 1.264 1_556 S
C352 C345 1.403 . S
C352 C353 1.399 . S
C352 H358 0.929 . S
C353 C333 1.449 . S
C353 C352 1.399 . S
C353 H359 0.930 . S
H354 C334 0.931 . S
H355 C335 0.930 . S
H356 C343 0.931 . S
H357 C344 0.929 . S
H358 C352 0.929 . S
H359 C353 0.930 . S
Mn360 O365 2.095 . S
Mn360 O375 2.162 . S
Mn360 O376 2.297 1_554 S
Mn360 O384 2.385 1_554 S
Mn360 O385 2.209 1_554 S
Mn360 O386 2.094 . S
Mn361 O366 2.121 . S
Mn361 N368 2.257 1_554 S
Mn361 N377 2.282 1_655 S
Mn361 O385 2.215 1_554 S
Mn361 O387 2.117 . S
C362 O384 1.234 . S
C362 O385 1.283 . S
C363 O375 1.281 . S
C363 O376 1.236 1_554 S
C364 O386 1.240 . S
C364 O387 1.264 . S
O365 Mn360 2.095 . S
O365 C374 1.250 . S
O366 Mn361 2.121 . S
O366 C374 1.258 . S
C367 N368 1.326 . S
C367 C371 1.455 1_655 S
C367 H373 0.929 . S
N368 Mn361 2.257 1_556 S
N368 C367 1.326 . S
N368 C372 1.362 1_655 S
C369 C370 1.258 . S
C369 C372 1.431 . S
C369 C389 1.449 . S
C370 C369 1.258 . S
C370 C371 1.504 . S
C370 H390 0.931 . S
C371 C367 1.455 1_455 S
C371 C370 1.504 . S
C371 H391 0.909 1_455 S
C372 N368 1.362 1_455 S
C372 C369 1.431 . S
C372 C382 1.476 . S
H373 C367 0.929 . S
C374 O365 1.250 . S
C374 O366 1.258 . S
O375 Mn360 2.162 . S
O375 C363 1.281 . S
O376 Mn360 2.297 1_556 S
O376 C363 1.236 1_556 S
N377 Mn361 2.282 1_455 S
N377 C378 1.328 . S
N377 C382 1.318 1_554 S
C378 N377 1.328 . S
C378 C379 1.457 . S
C378 H383 0.929 . S
C379 C378 1.457 . S
C379 C380 1.291 1_554 S
C379 H392 0.931 . S
C380 C379 1.291 1_556 S
C380 C381 1.373 . S
C380 H393 0.929 . S
C381 C380 1.373 . S
C381 C382 1.396 . S
C381 C388 1.403 . S
C382 C372 1.476 . S
C382 N377 1.318 1_556 S
C382 C381 1.396 . S
H383 C378 0.929 . S
O384 Mn360 2.385 1_556 S
O384 C362 1.234 . S
O385 Mn360 2.209 1_556 S
O385 Mn361 2.215 1_556 S
O385 C362 1.283 . S
O386 Mn360 2.094 . S
O386 C364 1.240 . S
O387 Mn361 2.117 . S
O387 C364 1.264 . S
C388 C381 1.403 . S
C388 C389 1.399 . S
C388 H394 0.929 . S
C389 C369 1.449 . S
C389 C388 1.399 . S
C389 H395 0.930 . S
H390 C370 0.931 . S
H391 C371 0.909 1_655 S
H392 C379 0.931 . S
H393 C380 0.929 . S
H394 C388 0.929 . S
H395 C389 0.930 . S
Mn396 O401 2.095 . S
Mn396 O411 2.162 . S
Mn396 O412 2.297 . S
Mn396 O420 2.385 . S
Mn396 O421 2.209 . S
Mn396 O422 2.094 . S
Mn397 O402 2.121 . S
Mn397 N404 2.257 . S
Mn397 N413 2.282 1_565 S
Mn397 O421 2.215 . S
Mn397 O423 2.117 . S
C398 O420 1.234 . S
C398 O421 1.283 . S
C399 O411 1.281 . S
C399 O412 1.236 . S
C400 O422 1.240 . S
C400 O423 1.264 . S
O401 Mn396 2.095 . S
O401 C410 1.250 . S
O402 Mn397 2.121 . S
O402 C410 1.258 . S
C403 N404 1.326 . S
C403 C407 1.441 1_565 S
C403 H409 0.929 . S
N404 Mn397 2.257 . S
N404 C403 1.326 . S
N404 C408 1.362 1_565 S
C405 C406 1.258 . S
C405 C408 1.431 . S
C405 C425 1.449 . S
C406 C405 1.258 . S
C406 C407 1.494 . S
C406 H426 0.931 1_554 S
C407 C403 1.441 1_545 S
C407 C406 1.494 . S
C407 H427 0.933 1_545 S
C408 N404 1.362 1_545 S
C408 C405 1.431 . S
C408 C418 1.476 . S
H409 C403 0.929 . S
C410 O401 1.250 . S
C410 O402 1.258 . S
O411 Mn396 2.162 . S
O411 C399 1.281 . S
O412 Mn396 2.297 . S
O412 C399 1.236 . S
N413 Mn397 2.282 1_545 S
N413 C414 1.328 . S
N413 C418 1.318 . S
C414 N413 1.328 . S
C414 C415 1.457 . S
C414 H419 0.929 . S
C415 C414 1.457 . S
C415 C416 1.291 . S
C415 H428 0.931 . S
C416 C415 1.291 . S
C416 C417 1.373 . S
C416 H429 0.929 . S
C417 C416 1.373 . S
C417 C418 1.396 . S
C417 C424 1.403 . S
C418 C408 1.476 . S
C418 N413 1.318 . S
C418 C417 1.396 . S
H419 C414 0.929 . S
O420 Mn396 2.385 . S
O420 C398 1.234 . S
O421 Mn396 2.209 . S
O421 Mn397 2.215 . S
O421 C398 1.283 . S
O422 Mn396 2.094 . S
O422 C400 1.240 . S
O423 Mn397 2.117 . S
O423 C400 1.264 . S
C424 C417 1.403 . S
C424 C425 1.399 . S
C424 H430 0.929 . S
C425 C405 1.449 . S
C425 C424 1.399 . S
C425 H431 0.930 1_554 S
H426 C406 0.931 1_556 S
H427 C407 0.933 1_565 S
H428 C415 0.931 . S
H429 C416 0.929 . S
H430 C424 0.929 . S
H431 C425 0.930 1_556 S
C432 C433 1.369 . S
C432 C434 1.419 . S
C432 H436 0.930 . S
C433 C432 1.369 . S
C433 C442 1.429 . S
C434 C432 1.419 . S
C434 C435 1.363 . S
C434 H437 0.929 . S
C435 C434 1.363 . S
C435 C441 1.428 . S
H436 C432 0.930 . S
H437 C434 0.929 . S
S438 N439 1.613 . S
S438 N440 1.610 . S
N439 S438 1.613 . S
N439 C442 1.350 . S
N440 S438 1.610 . S
N440 C441 1.351 . S
C441 C435 1.428 . S
C441 N440 1.351 . S
C441 C442 1.434 . S
C442 C433 1.429 . S
C442 N439 1.350 . S
C442 C441 1.434 . S
C443 C444 1.369 . S
C443 C445 1.419 . S
C443 H447 0.930 . S
C444 C443 1.369 . S
C444 C453 1.429 1_455 S
C445 C443 1.419 . S
C445 C446 1.363 1_455 S
C445 H448 0.929 . S
C446 C445 1.363 1_655 S
C446 C452 1.428 . S
H447 C443 0.930 . S
H448 C445 0.929 . S
S449 N450 1.613 . S
S449 N451 1.610 . S
N450 S449 1.613 . S
N450 C453 1.350 . S
N451 S449 1.610 . S
N451 C452 1.351 . S
C452 C446 1.428 . S
C452 N451 1.351 . S
C452 C453 1.434 . S
C453 C444 1.429 1_655 S
C453 N450 1.350 . S
C453 C452 1.434 . S
C454 C455 1.369 . S
C454 C456 1.419 1_565 S
C454 H458 0.930 . S
C455 C454 1.369 . S
C455 C464 1.429 . S
C456 C454 1.419 1_545 S
C456 C457 1.363 . S
C456 H459 0.929 . S
C457 C456 1.363 . S
C457 C463 1.428 . S
H458 C454 0.930 . S
H459 C456 0.929 . S
S460 N461 1.613 1_545 S
S460 N462 1.610 . S
N461 S460 1.613 1_565 S
N461 C464 1.350 . S
N462 S460 1.610 . S
N462 C463 1.351 . S
C463 C457 1.428 . S
C463 N462 1.351 . S
C463 C464 1.434 1_545 S
C464 C455 1.429 . S
C464 N461 1.350 . S
C464 C463 1.434 1_565 S
C465 C466 1.369 . S
C465 C467 1.419 . S
C465 H469 0.930 . S
C466 C465 1.369 . S
C466 C475 1.429 . S
C467 C465 1.419 . S
C467 C468 1.363 . S
C467 H470 0.929 . S
C468 C467 1.363 . S
C468 C474 1.428 . S
H469 C465 0.930 . S
H470 C467 0.929 . S
S471 N472 1.613 . S
S471 N473 1.610 . S
N472 S471 1.613 . S
N472 C475 1.350 . S
N473 S471 1.610 . S
N473 C474 1.351 . S
C474 C468 1.428 . S
C474 N473 1.351 . S
C474 C475 1.434 . S
C475 C466 1.429 . S
C475 N472 1.350 . S
C475 C474 1.434 . S
C476 C477 1.375 . S
C476 C478 1.406 1_455 S
C476 H480 0.942 1_455 S
C477 C476 1.375 . S
C477 C486 1.429 . S
C478 C476 1.406 1_655 S
C478 C479 1.363 . S
C478 H481 0.929 . S
C479 C478 1.363 . S
C479 C485 1.422 1_655 S
H480 C476 0.942 1_655 S
H481 C478 0.929 . S
S482 N483 1.613 . S
S482 N484 1.610 . S
N483 S482 1.613 . S
N483 C486 1.350 . S
N484 S482 1.610 . S
N484 C485 1.345 . S
C485 C479 1.422 1_455 S
C485 N484 1.345 . S
C485 C486 1.450 . S
C486 C477 1.429 . S
C486 N483 1.350 . S
C486 C485 1.450 . S
C487 C488 1.369 . S
C487 C489 1.419 1_546 S
C487 H491 0.930 . S
C488 C487 1.369 . S
C488 C497 1.429 . S
C489 C487 1.419 1_564 S
C489 C490 1.363 . S
C489 H492 0.929 . S
C490 C489 1.363 . S
C490 C496 1.428 . S
H491 C487 0.930 . S
H492 C489 0.929 . S
S493 N494 1.613 1_554 S
S493 N495 1.610 . S
N494 S493 1.613 1_556 S
N494 C497 1.350 . S
N495 S493 1.610 . S
N495 C496 1.351 1_545 S
C496 C490 1.428 . S
C496 N495 1.351 1_565 S
C496 C497 1.434 1_564 S
C497 C488 1.429 . S
C497 N494 1.350 . S
C497 C496 1.434 1_546 S
C498 C499 1.369 . S
C498 C500 1.419 . S
C498 H502 0.930 . S
C499 C498 1.369 . S
C499 C508 1.429 . S
C500 C498 1.419 . S
C500 C501 1.363 . S
C500 H503 0.929 . S
C501 C500 1.363 . S
C501 C507 1.428 . S
H502 C498 0.930 . S
H503 C500 0.929 . S
S504 N505 1.613 . S
S504 N506 1.610 . S
N505 S504 1.613 . S
N505 C508 1.350 . S
N506 S504 1.610 . S
N506 C507 1.351 . S
C507 C501 1.428 . S
C507 N506 1.351 . S
C507 C508 1.434 . S
C508 C499 1.429 . S
C508 N505 1.350 . S
C508 C507 1.434 . S
C509 C510 1.369 . S
C509 C511 1.419 . S
C509 H513 0.930 . S
C510 C509 1.369 . S
C510 C519 1.429 . S
C511 C509 1.419 . S
C511 C512 1.363 . S
C511 H514 0.929 . S
C512 C511 1.363 . S
C512 C518 1.428 . S
H513 C509 0.930 . S
H514 C511 0.929 . S
S515 N516 1.613 . S
S515 N517 1.610 . S
N516 S515 1.613 . S
N516 C519 1.350 . S
N517 S515 1.610 . S
N517 C518 1.351 . S
C518 C512 1.428 . S
C518 N517 1.351 . S
C518 C519 1.434 . S
C519 C510 1.429 . S
C519 N516 1.350 . S
C519 C518 1.434 . S
C520 C521 1.369 . S
C520 C522 1.419 . S
C520 H524 0.930 . S
C521 C520 1.369 . S
C521 C530 1.429 . S
C522 C520 1.419 . S
C522 C523 1.363 . S
C522 H525 0.929 . S
C523 C522 1.363 . S
C523 C529 1.428 . S
H524 C520 0.930 . S
H525 C522 0.929 . S
S526 N527 1.613 . S
S526 N528 1.610 . S
N527 S526 1.613 . S
N527 C530 1.350 . S
N528 S526 1.610 . S
N528 C529 1.351 . S
C529 C523 1.428 . S
C529 N528 1.351 . S
C529 C530 1.434 . S
C530 C521 1.429 . S
C530 N527 1.350 . S
C530 C529 1.434 . S
C531 C532 1.369 . S
C531 C533 1.419 . S
C531 H535 0.930 . S
C532 C531 1.369 . S
C532 C541 1.429 . S
C533 C531 1.419 . S
C533 C534 1.363 . S
C533 H536 0.929 . S
C534 C533 1.363 . S
C534 C540 1.428 . S
H535 C531 0.930 . S
H536 C533 0.929 . S
S537 N538 1.613 . S
S537 N539 1.610 . S
N538 S537 1.613 . S
N538 C541 1.350 . S
N539 S537 1.610 . S
N539 C540 1.351 . S
C540 C534 1.428 . S
C540 N539 1.351 . S
C540 C541 1.434 . S
C541 C532 1.429 . S
C541 N538 1.350 . S
C541 C540 1.434 . S
C542 C543 1.369 . S
C542 C544 1.419 . S
C542 H546 0.930 . S
C543 C542 1.369 . S
C543 C552 1.429 . S
C544 C542 1.419 . S
C544 C545 1.363 . S
C544 H547 0.929 . S
C545 C544 1.363 . S
C545 C551 1.428 . S
H546 C542 0.930 . S
H547 C544 0.929 . S
S548 N549 1.613 . S
S548 N550 1.610 . S
N549 S548 1.613 . S
N549 C552 1.350 1_556 S
N550 S548 1.610 . S
N550 C551 1.351 1_556 S
C551 C545 1.428 . S
C551 N550 1.351 1_554 S
C551 C552 1.434 . S
C552 C543 1.429 . S
C552 N549 1.350 1_554 S
C552 C551 1.434 . S
C553 C554 1.369 . S
C553 C555 1.419 . S
C553 H557 0.930 . S
C554 C553 1.369 . S
C554 C563 1.429 . S
C555 C553 1.419 . S
C555 C556 1.363 . S
C555 H558 0.929 . S
C556 C555 1.363 . S
C556 C562 1.428 . S
H557 C553 0.930 . S
H558 C555 0.929 . S
S559 N560 1.613 . S
S559 N561 1.610 . S
N560 S559 1.613 . S
N560 C563 1.350 . S
N561 S559 1.610 . S
N561 C562 1.351 . S
C562 C556 1.428 . S
C562 N561 1.351 . S
C562 C563 1.434 . S
C563 C554 1.429 . S
C563 N560 1.350 . S
C563 C562 1.434 . S
C564 C565 1.369 . S
C564 C566 1.419 . S
C564 H568 0.930 . S
C565 C564 1.369 . S
C565 C574 1.429 . S
C566 C564 1.419 . S
C566 C567 1.363 . S
C566 H569 0.929 . S
C567 C566 1.363 . S
C567 C573 1.428 . S
H568 C564 0.930 . S
H569 C566 0.929 . S
S570 N571 1.613 . S
S570 N572 1.610 . S
N571 S570 1.613 . S
N571 C574 1.350 . S
N572 S570 1.610 . S
N572 C573 1.351 . S
C573 C567 1.428 . S
C573 N572 1.351 . S
C573 C574 1.434 . S
C574 C565 1.429 . S
C574 N571 1.350 . S
C574 C573 1.434 . S
C575 C576 1.369 . S
C575 C577 1.419 1_655 S
C575 H579 0.930 . S
C576 C575 1.369 . S
C576 C585 1.429 . S
C577 C575 1.419 1_455 S
C577 C578 1.363 . S
C577 H580 0.929 . S
C578 C577 1.363 . S
C578 C584 1.428 . S
H579 C575 0.930 . S
H580 C577 0.929 . S
S581 N582 1.613 . S
S581 N583 1.610 1_655 S
N582 S581 1.613 . S
N582 C585 1.350 . S
N583 S581 1.610 1_455 S
N583 C584 1.351 . S
C584 C578 1.428 . S
C584 N583 1.351 . S
C584 C585 1.434 1_455 S
C585 C576 1.429 . S
C585 N582 1.350 . S
C585 C584 1.434 1_655 S
C586 C587 1.369 1_556 S
C586 C588 1.419 . S
C586 H590 0.930 . S
C587 C586 1.369 1_554 S
C587 C596 1.429 1_565 S
C588 C586 1.419 . S
C588 C589 1.363 1_565 S
C588 H591 0.929 . S
C589 C588 1.363 1_545 S
C589 C595 1.428 1_556 S
H590 C586 0.930 . S
H591 C588 0.929 . S
S592 N593 1.613 . S
S592 N594 1.610 . S
N593 S592 1.613 . S
N593 C596 1.350 . S
N594 S592 1.610 . S
N594 C595 1.351 . S
C595 C589 1.428 1_554 S
C595 N594 1.351 . S
C595 C596 1.434 . S
C596 C587 1.429 1_545 S
C596 N593 1.350 . S
C596 C595 1.434 . S
C597 C598 1.369 . S
C597 C599 1.419 . S
C597 H601 0.930 . S
C598 C597 1.369 . S
C598 C607 1.429 . S
C599 C597 1.419 . S
C599 C600 1.363 . S
C599 H602 0.929 . S
C600 C599 1.363 . S
C600 C606 1.428 . S
H601 C597 0.930 . S
H602 C599 0.929 . S
S603 N604 1.613 . S
S603 N605 1.610 . S
N604 S603 1.613 . S
N604 C607 1.350 . S
N605 S603 1.610 . S
N605 C606 1.351 . S
C606 C600 1.428 . S
C606 N605 1.351 . S
C606 C607 1.434 . S
C607 C598 1.429 . S
C607 N604 1.350 . S
C607 C606 1.434 . S
C608 C609 1.369 . S
C608 C610 1.419 . S
C608 H612 0.930 . S
C609 C608 1.369 . S
C609 C618 1.429 1_455 S
C610 C608 1.419 . S
C610 C611 1.363 1_455 S
C610 H613 0.929 . S
C611 C610 1.363 1_655 S
C611 C617 1.428 . S
H612 C608 0.930 . S
H613 C610 0.929 . S
S614 N615 1.613 . S
S614 N616 1.610 . S
N615 S614 1.613 . S
N615 C618 1.350 . S
N616 S614 1.610 . S
N616 C617 1.351 . S
C617 C611 1.428 . S
C617 N616 1.351 . S
C617 C618 1.434 . S
C618 C609 1.429 1_655 S
C618 N615 1.350 . S
C618 C617 1.434 . S
C619 C620 1.369 1_545 S
C619 C621 1.419 . S
C619 H623 0.930 . S
C620 C619 1.369 1_565 S
C620 C629 1.429 . S
C621 C619 1.419 . S
C621 C622 1.363 . S
C621 H624 0.929 . S
C622 C621 1.363 . S
C622 C628 1.428 1_545 S
H623 C619 0.930 . S
H624 C621 0.929 . S
S625 N626 1.613 . S
S625 N627 1.610 . S
N626 S625 1.613 . S
N626 C629 1.350 . S
N627 S625 1.610 . S
N627 C628 1.351 . S
C628 C622 1.428 1_565 S
C628 N627 1.351 . S
C628 C629 1.434 . S
C629 C620 1.429 . S
C629 N626 1.350 . S
C629 C628 1.434 . S
C630 C631 1.369 . S
C630 C632 1.419 . S
C630 H634 0.930 . S
C631 C630 1.369 . S
C631 C640 1.429 . S
C632 C630 1.419 . S
C632 C633 1.363 . S
C632 H635 0.929 . S
C633 C632 1.363 . S
C633 C639 1.428 . S
H634 C630 0.930 . S
H635 C632 0.929 . S
S636 N637 1.613 . S
S636 N638 1.610 . S
N637 S636 1.613 . S
N637 C640 1.350 . S
N638 S636 1.610 . S
N638 C639 1.351 . S
C639 C633 1.428 . S
C639 N638 1.351 . S
C639 C640 1.434 . S
C640 C631 1.429 . S
C640 N637 1.350 . S
C640 C639 1.434 . S
C641 C642 1.369 . S
C641 C643 1.419 . S
C641 H645 0.930 . S
C642 C641 1.369 . S
C642 C651 1.429 . S
C643 C641 1.419 . S
C643 C644 1.363 . S
C643 H646 0.929 . S
C644 C643 1.363 . S
C644 C650 1.428 . S
H645 C641 0.930 . S
H646 C643 0.929 . S
S647 N648 1.613 . S
S647 N649 1.610 . S
N648 S647 1.613 . S
N648 C651 1.350 . S
N649 S647 1.610 . S
N649 C650 1.351 . S
C650 C644 1.428 . S
C650 N649 1.351 . S
C650 C651 1.434 . S
C651 C642 1.429 . S
C651 N648 1.350 . S
C651 C650 1.434 . S
C652 C653 1.369 . S
C652 C654 1.419 . S
C652 H656 0.930 . S
C653 C652 1.369 . S
C653 C662 1.429 . S
C654 C652 1.419 . S
C654 C655 1.363 . S
C654 H657 0.929 . S
C655 C654 1.363 . S
C655 C661 1.428 . S
H656 C652 0.930 . S
H657 C654 0.929 . S
S658 N659 1.613 . S
S658 N660 1.610 . S
N659 S658 1.613 . S
N659 C662 1.350 . S
N660 S658 1.610 . S
N660 C661 1.351 . S
C661 C655 1.428 . S
C661 N660 1.351 . S
C661 C662 1.434 . S
C662 C653 1.429 . S
C662 N659 1.350 . S
C662 C661 1.434 . S
C663 C664 1.369 . S
C663 C665 1.419 . S
C663 H667 0.930 . S
C664 C663 1.369 . S
C664 C673 1.429 . S
C665 C663 1.419 . S
C665 C666 1.363 . S
C665 H668 0.929 . S
C666 C665 1.363 . S
C666 C672 1.428 . S
H667 C663 0.930 . S
H668 C665 0.929 . S
S669 N670 1.613 1_556 S
S669 N671 1.610 . S
N670 S669 1.613 1_554 S
N670 C673 1.350 . S
N671 S669 1.610 . S
N671 C672 1.351 1_556 S
C672 C666 1.428 . S
C672 N671 1.351 1_554 S
C672 C673 1.434 . S
C673 C664 1.429 . S
C673 N670 1.350 . S
C673 C672 1.434 . S
C674 C675 1.369 . S
C674 C676 1.419 . S
C674 H678 0.930 . S
C675 C674 1.369 . S
C675 C684 1.429 . S
C676 C674 1.419 . S
C676 C677 1.363 . S
C676 H679 0.929 . S
C677 C676 1.363 . S
C677 C683 1.428 . S
H678 C674 0.930 . S
H679 C676 0.929 . S
S680 N681 1.613 . S
S680 N682 1.610 . S
N681 S680 1.613 . S
N681 C684 1.350 . S
N682 S680 1.610 . S
N682 C683 1.351 . S
C683 C677 1.428 . S
C683 N682 1.351 . S
C683 C684 1.434 . S
C684 C675 1.429 . S
C684 N681 1.350 . S
C684 C683 1.434 . S
C685 C686 1.369 . S
C685 C687 1.419 . S
C685 H689 0.930 . S
C686 C685 1.369 . S
C686 C695 1.429 . S
C687 C685 1.419 . S
C687 C688 1.363 . S
C687 H690 0.929 . S
C688 C687 1.363 . S
C688 C694 1.428 . S
H689 C685 0.930 . S
H690 C687 0.929 . S
S691 N692 1.613 . S
S691 N693 1.610 . S
N692 S691 1.613 . S
N692 C695 1.350 . S
N693 S691 1.610 . S
N693 C694 1.351 . S
C694 C688 1.428 . S
C694 N693 1.351 . S
C694 C695 1.434 . S
C695 C686 1.429 . S
C695 N692 1.350 . S
C695 C694 1.434 . S
C433 C328 1.457 . S
C435 C4 1.460 . S
C444 C40 1.458 . S
C446 C364 1.460 . S
C455 C400 1.453 . S
C457 C76 1.457 . S
C466 C220 1.456 . S
C468 C112 1.454 . S
C477 C256 1.461 . S
C479 C148 1.457 . S
C488 C292 1.461 . S
C490 C184 1.457 . S
C499 C230 1.419 . S
C501 C14 1.421 . S
C510 C50 1.420 . S
C512 C266 1.422 . S
C521 C302 1.429 . S
C523 C86 1.426 . S
C532 C122 1.419 . S
C534 C338 1.420 . S
C543 C374 1.428 . S
C545 C158 1.429 . S
C554 C194 1.421 . S
C556 C410 1.421 . S
C565 C326 1.489 . S
C567 C2 1.489 . S
C576 C362 1.489 . S
C578 C38 1.489 . S
C587 C398 1.488 . S
C589 C74 1.489 . S
C598 C110 1.488 . S
C600 C218 1.489 . S
C609 C254 1.488 . S
C611 C146 1.489 . S
C620 C182 1.489 . S
C622 C290 1.489 . S
C631 C3 1.309 . S
C633 C291 1.310 . S
C642 C327 1.312 . S
C644 C39 1.307 . S
C653 C363 1.307 1_556 S
C655 C75 1.311 . S
C664 C399 1.307 . S
C666 C111 1.311 1_554 S
C675 C219 1.307 . S
C677 C147 1.311 . S
C686 C255 1.310 . S
C688 C183 1.309 . S
