# Generated by pormake.
# Topology nbo, (4)-cn, num edge types: 1
# Building blocks:
#     Node 0, Type 0, BuildingBlock: MUDLON_clean_sbu_0, # of connection points: 4
#     Node 1, Type 0, BuildingBlock: MUDLON_clean_sbu_0, # of connection points: 4
#     Node 2, Type 0, BuildingBlock: MUDLON_clean_sbu_0, # of connection points: 4
#     Node 3, Type 0, BuildingBlock: MUDLON_clean_sbu_0, # of connection points: 4
#     Node 4, Type 0, BuildingBlock: MUDLON_clean_sbu_0, # of connection points: 4
#     Node 5, Type 0, BuildingBlock: MUDLON_clean_sbu_0, # of connection points: 4
#     Edge 6, Type (0, 0), BuildingBlock: XIVTED_clean_linker_0, # of connection points: 2
#     Edge 7, Type (0, 0), BuildingBlock: XIVTED_clean_linker_0, # of connection points: 2
#     Edge 8, Type (0, 0), BuildingBlock: XIVTED_clean_linker_0, # of connection points: 2
#     Edge 9, Type (0, 0), BuildingBlock: XIVTED_clean_linker_0, # of connection points: 2
#     Edge 10, Type (0, 0), BuildingBlock: XIVTED_clean_linker_0, # of connection points: 2
#     Edge 11, Type (0, 0), BuildingBlock: XIVTED_clean_linker_0, # of connection points: 2
#     Edge 12, Type (0, 0), BuildingBlock: XIVTED_clean_linker_0, # of connection points: 2
#     Edge 13, Type (0, 0), BuildingBlock: XIVTED_clean_linker_0, # of connection points: 2
#     Edge 14, Type (0, 0), BuildingBlock: XIVTED_clean_linker_0, # of connection points: 2
#     Edge 15, Type (0, 0), BuildingBlock: XIVTED_clean_linker_0, # of connection points: 2
#     Edge 16, Type (0, 0), BuildingBlock: XIVTED_clean_linker_0, # of connection points: 2
#     Edge 17, Type (0, 0), BuildingBlock: XIVTED_clean_linker_0, # of connection points: 2
# Relax obj value: 0.000
# Max RMSD: 0.009
# Mean RMSD: 0.009
data_MOF--net-nbo--node1-MUDLON_clean_sbu_0--edge1-XIVTED_clean_linker_0
_symmetry_space_group_name_H-M    P1
_symmetry_Int_Tables_number       1
_symmetry_cell_setting            triclinic
loop_
_symmetry_equiv_pos_as_xyz
'x, y, z'
_cell_length_a     31.083177
_cell_length_b     30.893403
_cell_length_c     30.836603
_cell_angle_alpha  91.04051
_cell_angle_beta   91.832056
_cell_angle_gamma 90.92914
loop_
_atom_site_label
_atom_site_type_symbol
_atom_site_fract_x
_atom_site_fract_y
_atom_site_fract_z
_atom_type_partial_charge
Mg0 Mg 0.96018 0.9552 0.53228 0.0
C1 C 0.94042 0.05362 0.50804 0.0
O2 O 0.90435 0.03653 0.4917 0.0
C3 C 0.95265 0.85889 0.50147 0.0
O4 O 0.95675 0.8786 0.46439 0.0
C5 C 0.85769 0.93998 0.52102 0.0
O6 O 0.86733 0.91152 0.49086 0.0
O7 O 0.88769 0.96155 0.54095 0.0
O8 O 0.96776 0.02932 0.52671 0.0
O9 O 0.03347 0.94903 0.52922 0.0
C10 C 0.05579 0.97063 0.5031 0.0
O11 O 0.03605 0.99521 0.47466 0.0
O12 O 0.95311 0.8815 0.53637 0.0
Mg13 Mg 0.51639 0.09297 0.09558 0.0
C14 C 0.55806 0.18339 0.09039 0.0
O15 O 0.58877 0.15785 0.07759 0.0
C16 C 0.53739 0.99506 0.11216 0.0
O17 O 0.56469 0.01323 0.14065 0.0
C18 C 0.54595 0.07249 1.00082 0.0
O19 O 0.57251 0.04741 0.02232 0.0
O20 O 0.52054 0.09623 0.02181 0.0
O21 O 0.52236 0.16656 0.10079 0.0
O22 O 0.50736 0.08959 0.16843 0.0
C23 C 0.52861 0.11056 0.19806 0.0
O24 O 0.56052 0.13633 0.18763 0.0
O25 O 0.51245 0.01896 0.08991 0.0
Mg26 Mg 0.07082 0.54623 0.96427 0.0
C27 C 0.17213 0.52949 0.94825 0.0
O28 O 0.15903 0.50151 0.91792 0.0
C29 C 0.97147 0.51724 0.95112 0.0
O30 O 0.98706 0.47827 0.94608 0.0
C31 C 0.07157 0.50425 0.87243 0.0
O32 O 0.068 0.47069 0.89772 0.0
O33 O 0.07361 0.54195 0.8898 0.0
O34 O 0.1446 0.54941 0.97048 0.0
O35 O 0.06797 0.548 0.03887 0.0
C36 C 0.07887 0.51456 0.05985 0.0
O37 O 0.09132 0.48025 0.0381 0.0
O38 O 0.99717 0.5491 0.95879 0.0
Mg39 Mg 0.57897 0.5894 0.0179 0.0
C40 C 0.56342 0.68205 0.02538 0.0
O41 O 0.55391 0.67149 0.98468 0.0
C42 C 0.56507 0.49889 0.0395 0.0
O43 O 0.54912 0.5021 0.99979 0.0
C44 C 0.48664 0.5905 1.00806 0.0
O45 O 0.49649 0.60142 0.0486 0.0
O46 O 0.51719 0.58325 0.9825 0.0
O47 O 0.57694 0.65263 0.05055 0.0
O48 O 0.63851 0.58782 0.98194 0.0
C49 C 0.65248 0.55325 0.9647 0.0
O50 O 0.62768 0.51845 0.96305 0.0
O51 O 0.58027 0.53268 0.05907 0.0
Mg52 Mg 0.01366 0.46313 0.46418 0.0
C53 C 0.9624 0.53649 0.50129 0.0
O54 O 0.97654 0.51956 0.53771 0.0
C55 C 0.01025 0.36733 0.45695 0.0
O56 O 0.04996 0.3772 0.44694 0.0
C57 C 0.04538 0.50563 0.38302 0.0
O58 O 0.02943 0.53939 0.40299 0.0
O59 O 0.0462 0.46957 0.40243 0.0
O60 O 0.96873 0.51649 0.46569 0.0
O61 O 0.05303 0.47315 0.5241 0.0
C62 C 0.0536 0.44386 0.55263 0.0
O63 O 0.03556 0.40607 0.54299 0.0
O64 O 0.98468 0.39806 0.465 0.0
Mg65 Mg 0.46222 0.01876 0.59096 0.0
C66 C 0.55196 1.00198 0.59046 0.0
O67 O 0.54695 0.04201 0.60431 0.0
C68 C 0.36966 0.01825 0.57432 0.0
O69 O 0.38211 0.0591 0.57417 0.0
C70 C 0.45538 0.04329 0.50189 0.0
O71 O 0.43992 1.00358 0.50392 0.0
O72 O 0.46819 0.0625 0.53692 0.0
O73 O 0.51843 0.97893 0.5814 0.0
O74 O 0.47077 0.04629 0.65638 0.0
C75 C 0.48391 0.01866 0.6837 0.0
O76 O 0.48877 0.97846 0.6703 0.0
O77 O 0.39773 0.98977 0.5828 0.0
H78 H 0.01821 0.09597 0.51926 0.0
H79 H 0.92943 0.33213 0.46903 0.0
H80 H 0.88491 0.11779 0.48408 0.0
H81 H 0.063 0.29775 0.46074 0.0
H82 H 0.91138 0.25587 0.48258 0.0
H83 H 0.03419 0.17244 0.50698 0.0
C84 C 0.99222 0.11688 0.50923 0.0
C85 C 0.95015 0.10036 0.5026 0.0
C86 C 0.94458 0.26515 0.47764 0.0
C87 C 0.96827 0.18812 0.48853 0.0
C88 C 0.9549 0.30862 0.46994 0.0
C89 C 0.99778 0.32139 0.46359 0.0
C90 C 0.97746 0.23445 0.47969 0.0
C91 C 0.02948 0.28949 0.46521 0.0
C92 C 1.00142 0.16051 0.50199 0.0
C93 C 0.91784 0.12907 0.48939 0.0
N94 N 0.01873 0.24769 0.47333 0.0
N95 N 0.92753 0.17157 0.4829 0.0
H96 H 0.8275 0.99641 0.58151 0.0
H97 H 0.57818 0.93286 0.54016 0.0
H98 H 0.78458 0.89819 0.48778 0.0
H99 H 0.62621 0.03637 0.62521 0.0
H100 H 0.65297 0.91448 0.52442 0.0
H101 H 0.7533 1.00695 0.60121 0.0
C102 C 0.80245 0.97701 0.56499 0.0
C103 C 0.81238 0.94648 0.53277 0.0
C104 C 0.64697 0.941 0.54673 0.0
C105 C 0.72676 0.95842 0.55534 0.0
C106 C 0.60438 0.9513 0.5559 0.0
C107 C 0.59601 0.98639 0.58375 0.0
C108 C 0.68112 0.96586 0.56585 0.0
C109 C 0.63108 0.00935 0.60316 0.0
C110 C 0.75994 0.98301 0.57633 0.0
C111 C 0.77838 0.92223 0.51268 0.0
N112 N 0.67191 0.9988 0.59372 0.0
N113 N 0.73702 0.92877 0.52422 0.0
H114 H 0.94355 0.58681 0.4309 0.0
H115 H 0.94607 0.8069 0.57237 0.0
H116 H 0.95198 0.59124 0.57094 0.0
H117 H 0.94693 0.80193 0.43241 0.0
H118 H 0.93978 0.72785 0.5726 0.0
H119 H 0.93481 0.66524 0.43104 0.0
C120 C 0.94282 0.60411 0.46172 0.0
C121 C 0.94897 0.58234 0.50097 0.0
C122 C 0.94113 0.74408 0.54183 0.0
C123 C 0.93956 0.67241 0.50131 0.0
C124 C 0.94478 0.78924 0.54168 0.0
C125 C 0.94741 0.81113 0.50232 0.0
C126 C 0.94003 0.72056 0.50235 0.0
C127 C 0.94534 0.78648 0.46356 0.0
C128 C 0.93809 0.64901 0.46176 0.0
C129 C 0.94767 0.60662 0.53987 0.0
N130 N 0.94197 0.74259 0.46457 0.0
N131 N 0.94357 0.65035 0.53904 0.0
H132 H 0.32462 0.94201 0.58777 0.0
H133 H 0.11209 0.02443 0.46303 0.0
H134 H 0.31205 0.06812 0.53121 0.0
H135 H 0.10809 0.9211 0.55529 0.0
H136 H 0.18947 0.03223 0.47735 0.0
H137 H 0.24874 0.92603 0.5668 0.0
C138 C 0.30603 0.96618 0.57085 0.0
C139 C 0.32456 1.00658 0.56156 0.0
C140 C 0.17173 1.00766 0.4943 0.0
C141 C 0.23848 0.98837 0.53705 0.0
C142 C 0.12751 1.00303 0.48598 0.0
C143 C 0.1034 0.97231 0.50826 0.0
C144 C 0.19226 0.98121 0.52493 0.0
C145 C 0.12535 0.94546 0.53761 0.0
C146 C 0.26283 0.9571 0.55899 0.0
C147 C 0.29905 0.03672 0.5395 0.0
N148 N 0.16856 0.95062 0.54524 0.0
N149 N 0.2575 0.02698 0.52795 0.0
H150 H 0.40873 0.0241 0.42845 0.0
H151 H 0.56791 0.14718 0.27161 0.0
H152 H 0.51463 0.10482 0.47732 0.0
H153 H 0.461 0.06442 0.22879 0.0
H154 H 0.54662 0.13791 0.34694 0.0
H155 H 0.42391 0.04575 0.3551 0.0
C156 C 0.43499 0.04685 0.42369 0.0
C157 C 0.46071 0.06241 0.45889 0.0
C158 C 0.52779 0.12203 0.32094 0.0
C159 C 0.47896 0.08688 0.37458 0.0
C160 C 0.53996 0.12719 0.27798 0.0
C161 C 0.5164 0.10628 0.24381 0.0
C162 C 0.49179 0.09587 0.32963 0.0
C163 C 0.48037 0.08095 0.25396 0.0
C164 C 0.44375 0.05916 0.38172 0.0
C165 C 0.49404 0.09214 0.45094 0.0
N166 N 0.46933 0.07641 0.29582 0.0
N167 N 0.50264 0.10302 0.40942 0.0
H168 H 0.09714 0.44701 0.11341 0.0
H169 H 0.04312 0.57705 0.33177 0.0
H170 H 0.05713 0.58013 0.11629 0.0
H171 H 0.07216 0.4409 0.32795 0.0
H172 H 0.05406 0.58016 0.25386 0.0
H173 H 0.09332 0.44553 0.19238 0.0
C174 C 0.08762 0.47602 0.1306 0.0
C175 C 0.07729 0.51374 0.10799 0.0
C176 C 0.05829 0.54964 0.27004 0.0
C177 C 0.07295 0.51222 0.19882 0.0
C178 C 0.0522 0.54782 0.31468 0.0
C179 C 0.05654 0.50857 0.33661 0.0
C180 C 0.06885 0.51194 0.24687 0.0
C181 C 0.0684 0.47186 0.31251 0.0
C182 C 0.08546 0.4751 0.17579 0.0
C183 C 0.06526 0.55028 0.13222 0.0
N184 N 0.07393 0.4744 0.26897 0.0
N185 N 0.06337 0.54858 0.17623 0.0
H186 H 0.46536 0.09366 0.72888 0.0
H187 H 0.58655 0.01642 0.94673 0.0
H188 H 0.52913 0.97132 0.74236 0.0
H189 H 0.49615 0.12107 0.94549 0.0
H190 H 0.57448 1.00674 0.86859 0.0
H191 H 0.48413 0.11082 0.80545 0.0
C192 C 0.48339 0.07054 0.74783 0.0
C193 C 0.4954 0.03087 0.7293 0.0
C194 C 0.55742 0.03199 0.88535 0.0
C195 C 0.51727 0.0504 0.81637 0.0
C196 C 0.56445 0.03767 0.93 0.0
C197 C 0.54207 0.06937 0.95284 0.0
C198 C 0.52792 0.05829 0.86315 0.0
C199 C 0.51388 0.096 0.92925 0.0
C200 C 0.49403 0.08031 0.79146 0.0
C201 C 0.51881 1.00212 0.75531 0.0
N202 N 0.50745 0.08975 0.8857 0.0
N203 N 0.52897 0.01246 0.79738 0.0
H204 H 0.07018 0.38669 0.61693 0.0
H205 H 0.07507 0.56557 0.80858 0.0
H206 H 0.06561 0.52374 0.59303 0.0
H207 H 0.07465 0.4275 0.82762 0.0
H208 H 0.07796 0.55234 0.72994 0.0
H209 H 0.07978 0.40244 0.6943 0.0
C210 C 0.07177 0.4202 0.62792 0.0
C211 C 0.0668 0.45391 0.5984 0.0
C212 C 0.07744 0.52501 0.75142 0.0
C213 C 0.0771 0.47233 0.68752 0.0
C214 C 0.07573 0.53253 0.7963 0.0
C215 C 0.07432 0.4976 0.82481 0.0
C216 C 0.07787 0.48226 0.73499 0.0
C217 C 0.07539 0.45549 0.80703 0.0
C218 C 0.07709 0.42921 0.67224 0.0
C219 C 0.06936 0.49673 0.61462 0.0
N220 N 0.07698 0.44907 0.76343 0.0
N221 N 0.07385 0.50473 0.65818 0.0
H222 H 0.20983 0.58309 0.01035 0.0
H223 H 0.45169 0.54822 0.93516 0.0
H224 H 0.24048 0.49883 0.90284 0.0
H225 H 0.41714 0.61884 0.05062 0.0
H226 H 0.37475 0.5341 0.91838 0.0
H227 H 0.28605 0.60029 0.02169 0.0
C228 C 0.2326 0.56811 0.9891 0.0
C229 C 0.21864 0.53933 0.95566 0.0
C230 C 0.38415 0.55285 0.94724 0.0
C231 C 0.30646 0.5591 0.96844 0.0
C232 C 0.42798 0.5611 0.95668 0.0
C233 C 0.44083 0.58453 0.99445 0.0
C234 C 0.3532 0.56844 0.97567 0.0
C235 C 0.40881 0.60032 0.02132 0.0
C236 C 0.27624 0.578 0.99559 0.0
C237 C 0.2498 0.52105 0.92914 0.0
N238 N 0.36665 0.59192 0.01147 0.0
N239 N 0.29229 0.53124 0.9361 0.0
H240 H 0.53263 0.46347 0.11289 0.0
H241 H 0.62382 0.22913 0.0554 0.0
H242 H 0.61096 0.43557 1.00338 0.0
H243 H 0.50698 0.24604 0.12537 0.0
H244 H 0.63149 0.30763 0.05076 0.0
H245 H 0.53504 0.38629 0.13227 0.0
C246 C 0.55114 0.44124 0.09368 0.0
C247 C 0.57176 0.45545 0.05668 0.0
C248 C 0.60435 0.29415 0.06741 0.0
C249 C 0.57462 0.3682 0.07826 0.0
C250 C 0.59995 0.24933 0.07014 0.0
C251 C 0.56439 0.23096 0.09033 0.0
C252 C 0.57323 0.32094 0.08535 0.0
C253 C 0.5346 0.25887 0.10904 0.0
C254 C 0.55222 0.39737 0.10444 0.0
C255 C 0.59475 0.42562 0.03222 0.0
N256 N 0.53958 0.30256 0.10596 0.0
N257 N 0.59556 0.3834 0.04341 0.0
H258 H 0.92847 0.59322 0.9625 0.0
H259 H 0.69435 0.48233 0.93372 0.0
H260 H 0.90684 0.45726 0.93332 0.0
H261 H 0.71593 0.61624 0.972 0.0
H262 H 0.77175 0.47448 0.92588 0.0
H263 H 0.85073 0.60375 0.95962 0.0
C264 C 0.90742 0.56555 0.95537 0.0
C265 C 0.92433 0.52419 0.94839 0.0
C266 C 0.75956 0.50569 0.93565 0.0
C267 C 0.83502 0.53614 0.94494 0.0
C268 C 0.71526 0.51029 0.93996 0.0
C269 C 0.6985 0.54996 0.95387 0.0
C270 C 0.78748 0.54099 0.94534 0.0
C271 C 0.72733 0.58499 0.96138 0.0
C272 C 0.86296 0.57163 0.95369 0.0
C273 C 0.89534 0.48967 0.93913 0.0
N274 N 0.77039 0.57959 0.95734 0.0
N275 N 0.85216 0.4964 0.93781 0.0
H276 H 0.52185 0.74607 0.98257 0.0
H277 H 0.58312 0.93351 0.15632 0.0
H278 H 0.59085 0.72107 0.10297 0.0
H279 H 0.49392 0.94866 0.04768 0.0
H280 H 0.58757 0.85625 0.1379 0.0
H281 H 0.51294 0.82081 1.00609 0.0
C282 C 0.53517 0.75628 0.01406 0.0
C283 C 0.55734 0.7272 0.04076 0.0
C284 C 0.56682 0.87646 0.11833 0.0
C285 C 0.54722 0.81336 0.06799 0.0
C286 C 0.56426 0.92059 0.12877 0.0
C287 C 0.53821 0.94772 0.10342 0.0
C288 C 0.54344 0.85941 0.08203 0.0
C289 C 0.51445 0.9291 0.06817 0.0
C290 C 0.5299 0.79907 0.02755 0.0
C291 C 0.57357 0.7424 0.08135 0.0
N292 N 0.51788 0.88626 0.0584 0.0
N293 N 0.56844 0.78457 0.09365 0.0
loop_
_geom_bond_atom_site_label_1
_geom_bond_atom_site_label_2
_geom_bond_distance
_geom_bond_site_symmetry_2
_ccdc_geom_bond_type
Mg0 O7 2.141 1_455 S
Mg0 O8 2.048 . S
Mg0 O9 2.048 . S
Mg0 O12 2.141 1_545 S
C1 O2 1.313 . S
C1 O8 1.195 . S
O2 C1 1.313 . S
C3 O4 1.245 . S
C3 O12 1.289 . S
O4 C3 1.245 . S
C5 O6 1.245 . S
C5 O7 1.289 . S
O6 C5 1.245 . S
O7 Mg0 2.141 1_655 S
O7 C5 1.289 . S
O8 Mg0 2.048 . S
O8 C1 1.195 . S
O9 Mg0 2.048 . S
O9 C10 1.195 . S
C10 O9 1.195 . S
C10 O11 1.313 . S
O11 C10 1.313 . S
O12 Mg0 2.141 1_565 S
O12 C3 1.289 . S
Mg13 O20 2.141 1_554 S
Mg13 O21 2.048 . S
Mg13 O22 2.048 . S
Mg13 O25 2.141 1_545 S
C14 O15 1.313 . S
C14 O21 1.195 . S
O15 C14 1.313 . S
C16 O17 1.245 . S
C16 O25 1.289 . S
O17 C16 1.245 . S
C18 O19 1.245 . S
C18 O20 1.289 . S
O19 C18 1.245 . S
O20 Mg13 2.141 1_556 S
O20 C18 1.289 . S
O21 Mg13 2.048 . S
O21 C14 1.195 . S
O22 Mg13 2.048 . S
O22 C23 1.195 . S
C23 O22 1.195 . S
C23 O24 1.313 . S
O24 C23 1.313 . S
O25 Mg13 2.141 1_565 S
O25 C16 1.289 . S
Mg26 O33 2.141 1_554 S
Mg26 O34 2.048 . S
Mg26 O35 2.048 . S
Mg26 O38 2.141 1_455 S
C27 O28 1.313 . S
C27 O34 1.195 . S
O28 C27 1.313 . S
C29 O30 1.245 . S
C29 O38 1.289 . S
O30 C29 1.245 . S
C31 O32 1.245 . S
C31 O33 1.289 . S
O32 C31 1.245 . S
O33 Mg26 2.141 1_556 S
O33 C31 1.289 . S
O34 Mg26 2.048 . S
O34 C27 1.195 . S
O35 Mg26 2.048 . S
O35 C36 1.195 . S
C36 O35 1.195 . S
C36 O37 1.313 . S
O37 C36 1.313 . S
O38 Mg26 2.141 1_655 S
O38 C29 1.289 . S
Mg39 O46 2.141 . S
Mg39 O47 2.048 . S
Mg39 O48 2.048 . S
Mg39 O51 2.141 . S
C40 O41 1.313 1_554 S
C40 O47 1.195 . S
O41 C40 1.313 1_556 S
C42 O43 1.245 1_554 S
C42 O51 1.289 . S
O43 C42 1.245 1_556 S
C44 O45 1.245 1_554 S
C44 O46 1.289 . S
O45 C44 1.245 1_556 S
O46 Mg39 2.141 . S
O46 C44 1.289 . S
O47 Mg39 2.048 . S
O47 C40 1.195 . S
O48 Mg39 2.048 . S
O48 C49 1.195 . S
C49 O48 1.195 . S
C49 O50 1.313 1_554 S
O50 C49 1.313 1_556 S
O51 Mg39 2.141 . S
O51 C42 1.289 . S
Mg52 O59 2.141 . S
Mg52 O60 2.048 . S
Mg52 O61 2.048 . S
Mg52 O64 2.141 . S
C53 O54 1.313 . S
C53 O60 1.195 1_455 S
O54 C53 1.313 . S
C55 O56 1.245 . S
C55 O64 1.289 1_455 S
O56 C55 1.245 . S
C57 O58 1.245 . S
C57 O59 1.289 1_455 S
O58 C57 1.245 . S
O59 Mg52 2.141 . S
O59 C57 1.289 1_655 S
O60 Mg52 2.048 . S
O60 C53 1.195 1_655 S
O61 Mg52 2.048 . S
O61 C62 1.195 1_655 S
C62 O61 1.195 1_455 S
C62 O63 1.313 . S
O63 C62 1.313 . S
O64 Mg52 2.141 . S
O64 C55 1.289 1_655 S
Mg65 O72 2.141 . S
Mg65 O73 2.048 . S
Mg65 O74 2.048 . S
Mg65 O77 2.141 . S
C66 O67 1.313 1_545 S
C66 O73 1.195 . S
O67 C66 1.313 1_565 S
C68 O69 1.245 1_545 S
C68 O77 1.289 . S
O69 C68 1.245 1_565 S
C70 O71 1.245 1_545 S
C70 O72 1.289 . S
O71 C70 1.245 1_565 S
O72 Mg65 2.141 . S
O72 C70 1.289 . S
O73 Mg65 2.048 . S
O73 C66 1.195 . S
O74 Mg65 2.048 . S
O74 C75 1.195 . S
C75 O74 1.195 . S
C75 O76 1.313 1_545 S
O76 C75 1.313 1_565 S
O77 Mg65 2.141 . S
O77 C68 1.289 . S
H78 C84 0.930 . S
H79 C88 0.936 . S
H80 C93 0.929 . S
H81 C91 0.929 . S
H82 C86 0.929 . S
H83 C92 0.929 . S
C84 H78 0.930 . S
C84 C85 1.367 . S
C84 C92 1.378 . S
C85 C84 1.367 . S
C85 C93 1.433 1_455 S
C86 H82 0.929 . S
C86 C88 1.378 . S
C86 C90 1.350 1_655 S
C87 C90 1.463 . S
C87 C92 1.350 . S
C87 N95 1.427 1_455 S
C88 H79 0.936 . S
C88 C86 1.378 . S
C88 C89 1.361 1_655 S
C89 C88 1.361 1_455 S
C89 C91 1.433 . S
C90 C86 1.350 1_455 S
C90 C87 1.463 . S
C90 N94 1.427 . S
C91 H81 0.929 . S
C91 C89 1.433 . S
C91 N94 1.384 . S
C92 H83 0.929 . S
C92 C84 1.378 . S
C92 C87 1.350 . S
C93 H80 0.929 . S
C93 C85 1.433 1_655 S
C93 N95 1.384 . S
N94 C90 1.427 . S
N94 C91 1.384 . S
N95 C87 1.427 1_655 S
N95 C93 1.384 . S
H96 C102 0.930 . S
H97 C106 0.930 . S
H98 C111 0.929 . S
H99 C109 0.929 . S
H100 C104 0.929 . S
H101 C110 0.929 . S
C102 H96 0.930 . S
C102 C103 1.367 1_565 S
C102 C110 1.378 . S
C103 C102 1.367 1_545 S
C103 C111 1.433 . S
C104 H100 0.929 . S
C104 C106 1.378 . S
C104 C108 1.350 . S
C105 C108 1.463 . S
C105 C110 1.350 1_545 S
C105 N113 1.427 . S
C106 H97 0.930 . S
C106 C104 1.378 . S
C106 C107 1.367 . S
C107 C106 1.367 . S
C107 C109 1.433 1_545 S
C108 C104 1.350 . S
C108 C105 1.463 . S
C108 N112 1.427 1_545 S
C109 H99 0.929 . S
C109 C107 1.433 1_565 S
C109 N112 1.384 . S
C110 H101 0.929 . S
C110 C102 1.378 . S
C110 C105 1.350 1_565 S
C111 H98 0.929 . S
C111 C103 1.433 . S
C111 N113 1.384 . S
N112 C108 1.427 1_565 S
N112 C109 1.384 . S
N113 C105 1.427 . S
N113 C111 1.384 . S
H114 C120 0.930 . S
H115 C124 0.930 . S
H116 C129 0.929 1_655 S
H117 C127 0.929 . S
H118 C122 0.929 . S
H119 C128 0.929 . S
C120 H114 0.930 . S
C120 C121 1.367 . S
C120 C128 1.378 . S
C121 C120 1.367 . S
C121 C129 1.433 . S
C122 H118 0.929 . S
C122 C124 1.378 . S
C122 C126 1.350 1_655 S
C123 C126 1.463 . S
C123 C128 1.350 . S
C123 N131 1.432 . S
C124 H115 0.930 . S
C124 C122 1.378 . S
C124 C125 1.367 1_655 S
C125 C124 1.367 1_455 S
C125 C127 1.433 . S
C126 C122 1.350 1_455 S
C126 C123 1.463 . S
C126 N130 1.427 . S
C127 H117 0.929 . S
C127 C125 1.433 . S
C127 N130 1.384 . S
C128 H119 0.929 . S
C128 C120 1.378 . S
C128 C123 1.350 . S
C129 H116 0.929 1_455 S
C129 C121 1.433 . S
C129 N131 1.384 . S
N130 C126 1.427 . S
N130 C127 1.384 . S
N131 C123 1.432 . S
N131 C129 1.384 . S
H132 C138 0.930 . S
H133 C142 0.930 . S
H134 C147 0.929 . S
H135 C145 0.929 . S
H136 C140 0.929 . S
H137 C146 0.929 . S
C138 H132 0.930 . S
C138 C139 1.367 . S
C138 C146 1.378 . S
C139 C138 1.367 . S
C139 C147 1.433 1_545 S
C140 H136 0.929 . S
C140 C142 1.378 . S
C140 C144 1.350 1_565 S
C141 C144 1.463 . S
C141 C146 1.350 . S
C141 N149 1.427 1_545 S
C142 H133 0.930 . S
C142 C140 1.378 . S
C142 C143 1.367 1_565 S
C143 C142 1.367 1_545 S
C143 C145 1.433 . S
C144 C140 1.350 1_545 S
C144 C141 1.463 . S
C144 N148 1.427 . S
C145 H135 0.929 . S
C145 C143 1.433 . S
C145 N148 1.384 . S
C146 H137 0.929 . S
C146 C138 1.378 . S
C146 C141 1.350 . S
C147 H134 0.929 . S
C147 C139 1.433 1_565 S
C147 N149 1.384 . S
N148 C144 1.427 . S
N148 C145 1.384 . S
N149 C141 1.427 1_565 S
N149 C147 1.384 . S
H150 C156 0.930 . S
H151 C160 0.930 . S
H152 C165 0.929 . S
H153 C163 0.929 . S
H154 C158 0.929 . S
H155 C164 0.929 . S
C156 H150 0.930 . S
C156 C157 1.367 1_565 S
C156 C164 1.378 . S
C157 C156 1.367 1_545 S
C157 C165 1.433 . S
C158 H154 0.929 . S
C158 C160 1.378 . S
C158 C162 1.350 . S
C159 C162 1.463 . S
C159 C164 1.350 1_545 S
C159 N167 1.427 . S
C160 H151 0.930 . S
C160 C158 1.378 . S
C160 C161 1.367 . S
C161 C160 1.367 . S
C161 C163 1.433 1_545 S
C162 C158 1.350 . S
C162 C159 1.463 . S
C162 N166 1.427 1_545 S
C163 H153 0.929 . S
C163 C161 1.433 1_565 S
C163 N166 1.384 . S
C164 H155 0.929 . S
C164 C156 1.378 . S
C164 C159 1.350 1_565 S
C165 H152 0.929 . S
C165 C157 1.433 . S
C165 N167 1.384 . S
N166 C162 1.427 1_565 S
N166 C163 1.384 . S
N167 C159 1.427 . S
N167 C165 1.384 . S
H168 C174 0.930 1_655 S
H169 C178 0.930 . S
H170 C183 0.929 . S
H171 C181 0.929 . S
H172 C176 0.929 . S
H173 C182 0.929 1_655 S
C174 H168 0.930 1_455 S
C174 C175 1.367 . S
C174 C182 1.378 . S
C175 C174 1.367 . S
C175 C183 1.433 . S
C176 H172 0.929 . S
C176 C178 1.378 . S
C176 C180 1.350 . S
C177 C180 1.463 . S
C177 C182 1.350 . S
C177 N185 1.427 . S
C178 H169 0.930 . S
C178 C176 1.378 . S
C178 C179 1.367 . S
C179 C178 1.367 . S
C179 C181 1.433 . S
C180 C176 1.350 . S
C180 C177 1.463 . S
C180 N184 1.427 . S
C181 H171 0.929 . S
C181 C179 1.433 . S
C181 N184 1.384 . S
C182 H173 0.929 1_455 S
C182 C174 1.378 . S
C182 C177 1.350 . S
C183 H170 0.929 . S
C183 C175 1.433 . S
C183 N185 1.384 . S
N184 C180 1.427 . S
N184 C181 1.384 . S
N185 C177 1.427 . S
N185 C183 1.384 . S
H186 C192 0.930 . S
H187 C196 0.930 . S
H188 C201 0.929 . S
H189 C199 0.929 . S
H190 C194 0.929 . S
H191 C200 0.929 . S
C192 H186 0.930 . S
C192 C193 1.367 . S
C192 C200 1.378 . S
C193 C192 1.367 . S
C193 C201 1.433 1_545 S
C194 H190 0.929 . S
C194 C196 1.378 . S
C194 C198 1.350 1_565 S
C195 C198 1.463 . S
C195 C200 1.350 . S
C195 N203 1.427 1_545 S
C196 H187 0.930 . S
C196 C194 1.378 . S
C196 C197 1.367 1_565 S
C197 C196 1.367 1_545 S
C197 C199 1.433 . S
C198 C194 1.350 1_545 S
C198 C195 1.463 . S
C198 N202 1.427 . S
C199 H189 0.929 . S
C199 C197 1.433 . S
C199 N202 1.384 . S
C200 H191 0.929 . S
C200 C192 1.378 . S
C200 C195 1.350 . S
C201 H188 0.929 . S
C201 C193 1.433 1_565 S
C201 N203 1.384 . S
N202 C198 1.427 . S
N202 C199 1.384 . S
N203 C195 1.427 1_565 S
N203 C201 1.384 . S
H204 C210 0.930 . S
H205 C214 0.930 . S
H206 C219 0.929 . S
H207 C217 0.929 . S
H208 C212 0.929 . S
H209 C218 0.929 . S
C210 H204 0.930 . S
C210 C211 1.367 . S
C210 C218 1.378 . S
C211 C210 1.367 . S
C211 C219 1.433 1_455 S
C212 H208 0.929 . S
C212 C214 1.378 . S
C212 C216 1.350 1_655 S
C213 C216 1.463 . S
C213 C218 1.350 . S
C213 N221 1.427 1_455 S
C214 H205 0.930 . S
C214 C212 1.378 . S
C214 C215 1.367 1_655 S
C215 C214 1.367 1_455 S
C215 C217 1.433 . S
C216 C212 1.350 1_455 S
C216 C213 1.463 . S
C216 N220 1.427 . S
C217 H207 0.929 . S
C217 C215 1.433 . S
C217 N220 1.384 . S
C218 H209 0.929 . S
C218 C210 1.378 . S
C218 C213 1.350 . S
C219 H206 0.929 . S
C219 C211 1.433 1_655 S
C219 N221 1.384 . S
N220 C216 1.427 . S
N220 C217 1.384 . S
N221 C213 1.427 1_655 S
N221 C219 1.384 . S
H222 C228 0.930 . S
H223 C232 0.930 . S
H224 C237 0.929 . S
H225 C235 0.929 . S
H226 C230 0.929 . S
H227 C236 0.929 . S
C228 H222 0.930 . S
C228 C229 1.367 1_556 S
C228 C236 1.378 . S
C229 C228 1.367 1_554 S
C229 C237 1.433 . S
C230 H226 0.929 . S
C230 C232 1.378 . S
C230 C234 1.350 . S
C231 C234 1.463 . S
C231 C236 1.350 1_554 S
C231 N239 1.427 . S
C232 H223 0.930 . S
C232 C230 1.378 . S
C232 C233 1.367 . S
C233 C232 1.367 . S
C233 C235 1.433 1_554 S
C234 C230 1.350 . S
C234 C231 1.463 . S
C234 N238 1.427 1_554 S
C235 H225 0.929 . S
C235 C233 1.433 1_556 S
C235 N238 1.384 . S
C236 H227 0.929 . S
C236 C228 1.378 . S
C236 C231 1.350 1_556 S
C237 H224 0.929 . S
C237 C229 1.433 . S
C237 N239 1.384 . S
N238 C234 1.427 1_556 S
N238 C235 1.384 . S
N239 C231 1.427 . S
N239 C237 1.384 . S
H240 C246 0.930 . S
H241 C250 0.930 . S
H242 C255 0.929 . S
H243 C253 0.929 . S
H244 C248 0.929 . S
H245 C254 0.929 . S
C246 H240 0.930 . S
C246 C247 1.367 . S
C246 C254 1.378 . S
C247 C246 1.367 . S
C247 C255 1.433 1_554 S
C248 H244 0.929 . S
C248 C250 1.378 . S
C248 C252 1.350 1_556 S
C249 C252 1.463 . S
C249 C254 1.350 . S
C249 N257 1.427 1_554 S
C250 H241 0.930 . S
C250 C248 1.378 . S
C250 C251 1.367 1_556 S
C251 C250 1.367 1_554 S
C251 C253 1.433 . S
C252 C248 1.350 1_554 S
C252 C249 1.463 . S
C252 N256 1.427 . S
C253 H243 0.929 . S
C253 C251 1.433 . S
C253 N256 1.384 . S
C254 H245 0.929 . S
C254 C246 1.378 . S
C254 C249 1.350 . S
C255 H242 0.929 . S
C255 C247 1.433 1_556 S
C255 N257 1.384 . S
N256 C252 1.427 . S
N256 C253 1.384 . S
N257 C249 1.427 1_556 S
N257 C255 1.384 . S
H258 C264 0.930 . S
H259 C268 0.930 . S
H260 C273 0.929 . S
H261 C271 0.929 . S
H262 C266 0.929 . S
H263 C272 0.929 . S
C264 H258 0.930 . S
C264 C265 1.367 . S
C264 C272 1.378 . S
C265 C264 1.367 . S
C265 C273 1.433 1_554 S
C266 H262 0.929 . S
C266 C268 1.378 . S
C266 C270 1.350 1_556 S
C267 C270 1.463 . S
C267 C272 1.350 . S
C267 N275 1.427 1_554 S
C268 H259 0.930 . S
C268 C266 1.378 . S
C268 C269 1.367 1_556 S
C269 C268 1.367 1_554 S
C269 C271 1.433 . S
C270 C266 1.350 1_554 S
C270 C267 1.463 . S
C270 N274 1.427 . S
C271 H261 0.929 . S
C271 C269 1.433 . S
C271 N274 1.384 . S
C272 H263 0.929 . S
C272 C264 1.378 . S
C272 C267 1.350 . S
C273 H260 0.929 . S
C273 C265 1.433 1_556 S
C273 N275 1.384 . S
N274 C270 1.427 . S
N274 C271 1.384 . S
N275 C267 1.427 1_556 S
N275 C273 1.384 . S
H276 C282 0.930 . S
H277 C286 0.930 . S
H278 C291 0.929 . S
H279 C289 0.929 . S
H280 C284 0.929 . S
H281 C290 0.929 . S
C282 H276 0.930 . S
C282 C283 1.367 1_556 S
C282 C290 1.378 . S
C283 C282 1.367 1_554 S
C283 C291 1.433 . S
C284 H280 0.929 . S
C284 C286 1.378 . S
C284 C288 1.350 . S
C285 C288 1.463 . S
C285 C290 1.350 1_554 S
C285 N293 1.427 . S
C286 H277 0.930 . S
C286 C284 1.378 . S
C286 C287 1.367 . S
C287 C286 1.367 . S
C287 C289 1.433 1_554 S
C288 C284 1.350 . S
C288 C285 1.463 . S
C288 N292 1.427 1_554 S
C289 H279 0.929 . S
C289 C287 1.433 1_556 S
C289 N292 1.384 . S
C290 H281 0.929 . S
C290 C282 1.378 . S
C290 C285 1.350 1_556 S
C291 H278 0.929 . S
C291 C283 1.433 . S
C291 N293 1.384 . S
N292 C288 1.427 1_556 S
N292 C289 1.384 . S
N293 C285 1.427 . S
N293 C291 1.384 . S
C85 C1 1.494 . S
C89 C55 1.494 . S
C103 C5 1.490 . S
C107 C66 1.495 . S
C121 C53 1.496 . S
C125 C3 1.491 . S
C139 C68 1.491 . S
C143 C10 1.491 . S
C157 C70 1.485 . S
C161 C23 1.494 . S
C175 C36 1.490 . S
C179 C57 1.492 . S
C193 C75 1.495 . S
C197 C18 1.491 . S
C211 C62 1.494 . S
C215 C31 1.490 . S
C229 C27 1.494 . S
C233 C44 1.492 . S
C247 C42 1.492 . S
C251 C14 1.496 . S
C265 C29 1.491 . S
C269 C49 1.491 . S
C283 C40 1.491 . S
C287 C16 1.491 . S
