# Generated by pormake.
# Topology umq, (4)-cn, num edge types: 1
# Building blocks:
#     Node 0, Type 0, BuildingBlock: GALJAG_clean_sbu_0, # of connection points: 4
#     Node 1, Type 0, BuildingBlock: GALJAG_clean_sbu_0, # of connection points: 4
#     Node 2, Type 0, BuildingBlock: GALJAG_clean_sbu_0, # of connection points: 4
#     Node 3, Type 0, BuildingBlock: GALJAG_clean_sbu_0, # of connection points: 4
#     Node 4, Type 0, BuildingBlock: GALJAG_clean_sbu_0, # of connection points: 4
#     Node 5, Type 0, BuildingBlock: GALJAG_clean_sbu_0, # of connection points: 4
#     Node 6, Type 0, BuildingBlock: GALJAG_clean_sbu_0, # of connection points: 4
#     Node 7, Type 0, BuildingBlock: GALJAG_clean_sbu_0, # of connection points: 4
#     Node 8, Type 0, BuildingBlock: GALJAG_clean_sbu_0, # of connection points: 4
#     Node 9, Type 0, BuildingBlock: GALJAG_clean_sbu_0, # of connection points: 4
#     Node 10, Type 0, BuildingBlock: GALJAG_clean_sbu_0, # of connection points: 4
#     Node 11, Type 0, BuildingBlock: GALJAG_clean_sbu_0, # of connection points: 4
#     Node 12, Type 0, BuildingBlock: GALJAG_clean_sbu_0, # of connection points: 4
#     Node 13, Type 0, BuildingBlock: GALJAG_clean_sbu_0, # of connection points: 4
#     Node 14, Type 0, BuildingBlock: GALJAG_clean_sbu_0, # of connection points: 4
#     Node 15, Type 0, BuildingBlock: GALJAG_clean_sbu_0, # of connection points: 4
#     Node 16, Type 0, BuildingBlock: GALJAG_clean_sbu_0, # of connection points: 4
#     Node 17, Type 0, BuildingBlock: GALJAG_clean_sbu_0, # of connection points: 4
#     Node 18, Type 0, BuildingBlock: GALJAG_clean_sbu_0, # of connection points: 4
#     Node 19, Type 0, BuildingBlock: GALJAG_clean_sbu_0, # of connection points: 4
#     Node 20, Type 0, BuildingBlock: GALJAG_clean_sbu_0, # of connection points: 4
#     Node 21, Type 0, BuildingBlock: GALJAG_clean_sbu_0, # of connection points: 4
#     Node 22, Type 0, BuildingBlock: GALJAG_clean_sbu_0, # of connection points: 4
#     Node 23, Type 0, BuildingBlock: GALJAG_clean_sbu_0, # of connection points: 4
#     Node 24, Type 0, BuildingBlock: GALJAG_clean_sbu_0, # of connection points: 4
#     Node 25, Type 0, BuildingBlock: GALJAG_clean_sbu_0, # of connection points: 4
#     Node 26, Type 0, BuildingBlock: GALJAG_clean_sbu_0, # of connection points: 4
#     Node 27, Type 0, BuildingBlock: GALJAG_clean_sbu_0, # of connection points: 4
#     Node 28, Type 0, BuildingBlock: GALJAG_clean_sbu_0, # of connection points: 4
#     Node 29, Type 0, BuildingBlock: GALJAG_clean_sbu_0, # of connection points: 4
#     Node 30, Type 0, BuildingBlock: GALJAG_clean_sbu_0, # of connection points: 4
#     Node 31, Type 0, BuildingBlock: GALJAG_clean_sbu_0, # of connection points: 4
#     Edge 32, Type (0, 0), BuildingBlock: ZUJKAS_clean_linker_0, # of connection points: 2
#     Edge 33, Type (0, 0), BuildingBlock: ZUJKAS_clean_linker_0, # of connection points: 2
#     Edge 34, Type (0, 0), BuildingBlock: ZUJKAS_clean_linker_0, # of connection points: 2
#     Edge 35, Type (0, 0), BuildingBlock: ZUJKAS_clean_linker_0, # of connection points: 2
#     Edge 36, Type (0, 0), BuildingBlock: ZUJKAS_clean_linker_0, # of connection points: 2
#     Edge 37, Type (0, 0), BuildingBlock: ZUJKAS_clean_linker_0, # of connection points: 2
#     Edge 38, Type (0, 0), BuildingBlock: ZUJKAS_clean_linker_0, # of connection points: 2
#     Edge 39, Type (0, 0), BuildingBlock: ZUJKAS_clean_linker_0, # of connection points: 2
#     Edge 40, Type (0, 0), BuildingBlock: ZUJKAS_clean_linker_0, # of connection points: 2
#     Edge 41, Type (0, 0), BuildingBlock: ZUJKAS_clean_linker_0, # of connection points: 2
#     Edge 42, Type (0, 0), BuildingBlock: ZUJKAS_clean_linker_0, # of connection points: 2
#     Edge 43, Type (0, 0), BuildingBlock: ZUJKAS_clean_linker_0, # of connection points: 2
#     Edge 44, Type (0, 0), BuildingBlock: ZUJKAS_clean_linker_0, # of connection points: 2
#     Edge 45, Type (0, 0), BuildingBlock: ZUJKAS_clean_linker_0, # of connection points: 2
#     Edge 46, Type (0, 0), BuildingBlock: ZUJKAS_clean_linker_0, # of connection points: 2
#     Edge 47, Type (0, 0), BuildingBlock: ZUJKAS_clean_linker_0, # of connection points: 2
#     Edge 48, Type (0, 0), BuildingBlock: ZUJKAS_clean_linker_0, # of connection points: 2
#     Edge 49, Type (0, 0), BuildingBlock: ZUJKAS_clean_linker_0, # of connection points: 2
#     Edge 50, Type (0, 0), BuildingBlock: ZUJKAS_clean_linker_0, # of connection points: 2
#     Edge 51, Type (0, 0), BuildingBlock: ZUJKAS_clean_linker_0, # of connection points: 2
#     Edge 52, Type (0, 0), BuildingBlock: ZUJKAS_clean_linker_0, # of connection points: 2
#     Edge 53, Type (0, 0), BuildingBlock: ZUJKAS_clean_linker_0, # of connection points: 2
#     Edge 54, Type (0, 0), BuildingBlock: ZUJKAS_clean_linker_0, # of connection points: 2
#     Edge 55, Type (0, 0), BuildingBlock: ZUJKAS_clean_linker_0, # of connection points: 2
#     Edge 56, Type (0, 0), BuildingBlock: ZUJKAS_clean_linker_0, # of connection points: 2
#     Edge 57, Type (0, 0), BuildingBlock: ZUJKAS_clean_linker_0, # of connection points: 2
#     Edge 58, Type (0, 0), BuildingBlock: ZUJKAS_clean_linker_0, # of connection points: 2
#     Edge 59, Type (0, 0), BuildingBlock: ZUJKAS_clean_linker_0, # of connection points: 2
#     Edge 60, Type (0, 0), BuildingBlock: ZUJKAS_clean_linker_0, # of connection points: 2
#     Edge 61, Type (0, 0), BuildingBlock: ZUJKAS_clean_linker_0, # of connection points: 2
#     Edge 62, Type (0, 0), BuildingBlock: ZUJKAS_clean_linker_0, # of connection points: 2
#     Edge 63, Type (0, 0), BuildingBlock: ZUJKAS_clean_linker_0, # of connection points: 2
#     Edge 64, Type (0, 0), BuildingBlock: ZUJKAS_clean_linker_0, # of connection points: 2
#     Edge 65, Type (0, 0), BuildingBlock: ZUJKAS_clean_linker_0, # of connection points: 2
#     Edge 66, Type (0, 0), BuildingBlock: ZUJKAS_clean_linker_0, # of connection points: 2
#     Edge 67, Type (0, 0), BuildingBlock: ZUJKAS_clean_linker_0, # of connection points: 2
#     Edge 68, Type (0, 0), BuildingBlock: ZUJKAS_clean_linker_0, # of connection points: 2
#     Edge 69, Type (0, 0), BuildingBlock: ZUJKAS_clean_linker_0, # of connection points: 2
#     Edge 70, Type (0, 0), BuildingBlock: ZUJKAS_clean_linker_0, # of connection points: 2
#     Edge 71, Type (0, 0), BuildingBlock: ZUJKAS_clean_linker_0, # of connection points: 2
#     Edge 72, Type (0, 0), BuildingBlock: ZUJKAS_clean_linker_0, # of connection points: 2
#     Edge 73, Type (0, 0), BuildingBlock: ZUJKAS_clean_linker_0, # of connection points: 2
#     Edge 74, Type (0, 0), BuildingBlock: ZUJKAS_clean_linker_0, # of connection points: 2
#     Edge 75, Type (0, 0), BuildingBlock: ZUJKAS_clean_linker_0, # of connection points: 2
#     Edge 76, Type (0, 0), BuildingBlock: ZUJKAS_clean_linker_0, # of connection points: 2
#     Edge 77, Type (0, 0), BuildingBlock: ZUJKAS_clean_linker_0, # of connection points: 2
#     Edge 78, Type (0, 0), BuildingBlock: ZUJKAS_clean_linker_0, # of connection points: 2
#     Edge 79, Type (0, 0), BuildingBlock: ZUJKAS_clean_linker_0, # of connection points: 2
#     Edge 80, Type (0, 0), BuildingBlock: ZUJKAS_clean_linker_0, # of connection points: 2
#     Edge 81, Type (0, 0), BuildingBlock: ZUJKAS_clean_linker_0, # of connection points: 2
#     Edge 82, Type (0, 0), BuildingBlock: ZUJKAS_clean_linker_0, # of connection points: 2
#     Edge 83, Type (0, 0), BuildingBlock: ZUJKAS_clean_linker_0, # of connection points: 2
#     Edge 84, Type (0, 0), BuildingBlock: ZUJKAS_clean_linker_0, # of connection points: 2
#     Edge 85, Type (0, 0), BuildingBlock: ZUJKAS_clean_linker_0, # of connection points: 2
#     Edge 86, Type (0, 0), BuildingBlock: ZUJKAS_clean_linker_0, # of connection points: 2
#     Edge 87, Type (0, 0), BuildingBlock: ZUJKAS_clean_linker_0, # of connection points: 2
#     Edge 88, Type (0, 0), BuildingBlock: ZUJKAS_clean_linker_0, # of connection points: 2
#     Edge 89, Type (0, 0), BuildingBlock: ZUJKAS_clean_linker_0, # of connection points: 2
#     Edge 90, Type (0, 0), BuildingBlock: ZUJKAS_clean_linker_0, # of connection points: 2
#     Edge 91, Type (0, 0), BuildingBlock: ZUJKAS_clean_linker_0, # of connection points: 2
#     Edge 92, Type (0, 0), BuildingBlock: ZUJKAS_clean_linker_0, # of connection points: 2
#     Edge 93, Type (0, 0), BuildingBlock: ZUJKAS_clean_linker_0, # of connection points: 2
#     Edge 94, Type (0, 0), BuildingBlock: ZUJKAS_clean_linker_0, # of connection points: 2
#     Edge 95, Type (0, 0), BuildingBlock: ZUJKAS_clean_linker_0, # of connection points: 2
# Relax obj value: 0.107
# Max RMSD: 0.085
# Mean RMSD: 0.085
data_MOF--net-umq--node1-GALJAG_clean_sbu_0--edge1-ZUJKAS_clean_linker_0
_symmetry_space_group_name_H-M    P1
_symmetry_Int_Tables_number       1
_symmetry_cell_setting            triclinic
loop_
_symmetry_equiv_pos_as_xyz
'x, y, z'
_cell_length_a     81.789786
_cell_length_b     81.799449
_cell_length_c     62.277957
_cell_angle_alpha  89.99971
_cell_angle_beta   90.004744
_cell_angle_gamma 90.007284
loop_
_atom_site_label
_atom_site_type_symbol
_atom_site_fract_x
_atom_site_fract_y
_atom_site_fract_z
_atom_type_partial_charge
In0 In 0.23276 0.09715 0.15377 0.0
O1 O 0.2097 0.11241 0.15952 0.0
O2 O 0.22447 0.10645 0.18644 0.0
C3 C 0.22734 0.08857 0.11243 0.0
C4 C 0.23472 0.06853 0.17509 0.0
C5 C 0.25756 0.11887 0.15044 0.0
O6 O 0.21643 0.09485 0.12412 0.0
O7 O 0.24084 0.08629 0.12172 0.0
O8 O 0.25962 0.10446 0.15711 0.0
O9 O 0.24304 0.12228 0.14536 0.0
C10 C 0.21185 0.11356 0.17953 0.0
O11 O 0.24633 0.07866 0.17434 0.0
O12 O 0.22217 0.07262 0.16457 0.0
In13 In 0.90289 0.23105 0.15432 0.0
O14 O 0.89384 0.20556 0.1636 0.0
O15 O 0.88692 0.22557 0.18335 0.0
C16 C 0.91051 0.22545 0.1127 0.0
C17 C 0.93127 0.23241 0.17636 0.0
C18 C 0.882 0.25642 0.15059 0.0
O19 O 0.90021 0.21697 0.12284 0.0
O20 O 0.91718 0.23657 0.12364 0.0
O21 O 0.89545 0.25755 0.16043 0.0
O22 O 0.87917 0.24255 0.14254 0.0
C23 C 0.88621 0.21038 0.18003 0.0
O24 O 0.92307 0.24501 0.17182 0.0
O25 O 0.92536 0.21922 0.16933 0.0
In26 In 0.76682 0.90353 0.15629 0.0
O27 O 0.75349 0.92112 0.17849 0.0
O28 O 0.77666 0.92851 0.16655 0.0
C29 C 0.74219 0.88181 0.1516 0.0
C30 C 0.78789 0.88734 0.182 0.0
C31 C 0.77209 0.91171 0.11483 0.0
O32 O 0.73983 0.89649 0.15692 0.0
O33 O 0.75697 0.87808 0.14855 0.0
O34 O 0.78278 0.90468 0.12615 0.0
O35 O 0.75894 0.91486 0.12454 0.0
C36 C 0.76452 0.93188 0.17825 0.0
O37 O 0.79134 0.89099 0.16283 0.0
O38 O 0.7739 0.89186 0.18808 0.0
In39 In 0.09586 0.76688 0.15584 0.0
O40 O 0.10449 0.79263 0.16485 0.0
O41 O 0.11077 0.77296 0.18553 0.0
C42 C 0.08838 0.77245 0.1142 0.0
C43 C 0.06796 0.76437 0.17869 0.0
C44 C 0.11687 0.74174 0.15063 0.0
O45 O 0.09869 0.78093 0.12435 0.0
O46 O 0.08165 0.76137 0.12515 0.0
O47 O 0.1022 0.73968 0.15632 0.0
O48 O 0.12086 0.75643 0.1474 0.0
C49 C 0.11161 0.78808 0.18182 0.0
O50 O 0.07863 0.75326 0.17829 0.0
O51 O 0.07119 0.77666 0.1672 0.0
In52 In 0.2317 0.90512 0.34356 0.0
O53 O 0.20809 0.8906 0.33834 0.0
O54 O 0.2227 0.89613 0.3111 0.0
C55 C 0.22675 0.91351 0.38507 0.0
C56 C 0.23431 0.93362 0.32202 0.0
C57 C 0.25598 0.88278 0.34613 0.0
O58 O 0.21548 0.90809 0.37323 0.0
O59 O 0.24041 0.91495 0.37588 0.0
O60 O 0.25852 0.89754 0.34132 0.0
O61 O 0.24123 0.87932 0.34983 0.0
C62 C 0.20996 0.88941 0.31827 0.0
O63 O 0.24533 0.92284 0.32188 0.0
O64 O 0.22207 0.93023 0.33352 0.0
In65 In 0.09538 0.23258 0.34385 0.0
O66 O 0.07577 0.24601 0.32485 0.0
O67 O 0.07183 0.22084 0.33158 0.0
C68 C 0.11704 0.25741 0.34708 0.0
C69 C 0.11201 0.21188 0.31813 0.0
C70 C 0.08692 0.22773 0.38535 0.0
O71 O 0.10283 0.2593 0.33965 0.0
O72 O 0.12032 0.24301 0.3529 0.0
O73 O 0.09428 0.21705 0.3744 0.0
O74 O 0.08355 0.24064 0.37525 0.0
C75 C 0.06665 0.23369 0.32264 0.0
O76 O 0.10944 0.20887 0.33772 0.0
O77 O 0.10622 0.22528 0.3116 0.0
In78 In 0.76648 0.09637 0.34573 0.0
O79 O 0.79231 0.10451 0.33632 0.0
O80 O 0.77239 0.11305 0.31757 0.0
C81 C 0.77161 0.08826 0.38724 0.0
C82 C 0.76436 0.06864 0.32242 0.0
C83 C 0.74129 0.11723 0.35092 0.0
O84 O 0.7805 0.09835 0.37732 0.0
O85 O 0.76032 0.08205 0.37613 0.0
O86 O 0.73959 0.10332 0.34242 0.0
O87 O 0.75565 0.12052 0.35696 0.0
C88 C 0.78763 0.11293 0.3205 0.0
O89 O 0.75277 0.07875 0.3238 0.0
O90 O 0.77689 0.07233 0.33318 0.0
In91 In 0.90285 0.76569 0.34489 0.0
O92 O 0.89249 0.79096 0.33681 0.0
O93 O 0.88909 0.7718 0.31423 0.0
C94 C 0.91096 0.77103 0.38637 0.0
C95 C 0.93099 0.76373 0.32245 0.0
C96 C 0.88167 0.74065 0.34998 0.0
O97 O 0.90133 0.78023 0.37616 0.0
O98 O 0.9167 0.75934 0.37556 0.0
O99 O 0.89611 0.73863 0.34337 0.0
O100 O 0.87796 0.75527 0.35415 0.0
C101 C 0.88674 0.78661 0.31889 0.0
O102 O 0.92075 0.75222 0.32324 0.0
O103 O 0.92721 0.77616 0.33336 0.0
In104 In 0.76537 0.90159 0.84464 0.0
O105 O 0.78639 0.88319 0.84122 0.0
O106 O 0.78061 0.89807 0.81439 0.0
C107 C 0.77041 0.91014 0.88605 0.0
C108 C 0.76063 0.92932 0.82224 0.0
C109 C 0.74041 0.87988 0.84555 0.0
O110 O 0.78198 0.90611 0.87374 0.0
O111 O 0.7565 0.91015 0.87735 0.0
O112 O 0.7382 0.89499 0.84301 0.0
O113 O 0.75516 0.87572 0.84747 0.0
C114 C 0.78946 0.88688 0.82197 0.0
O115 O 0.75332 0.91612 0.81795 0.0
O116 O 0.77026 0.92862 0.8381 0.0
In117 In 0.09571 0.76646 0.84381 0.0
O118 O 0.07552 0.75268 0.82626 0.0
O119 O 0.07294 0.7784 0.82965 0.0
C120 C 0.11656 0.74106 0.84796 0.0
C121 C 0.11228 0.7865 0.81714 0.0
C122 C 0.08792 0.77237 0.88529 0.0
O123 O 0.10277 0.7397 0.83906 0.0
O124 O 0.11977 0.75519 0.85489 0.0
O125 O 0.098 0.781 0.87499 0.0
O126 O 0.08155 0.76095 0.87456 0.0
C127 C 0.06713 0.76526 0.82227 0.0
O128 O 0.10653 0.79133 0.83485 0.0
O129 O 0.10974 0.77162 0.81304 0.0
In130 In 0.23492 0.09648 0.84192 0.0
O131 O 0.20906 0.10585 0.83467 0.0
O132 O 0.22766 0.10996 0.81152 0.0
C133 C 0.22912 0.0898 0.88369 0.0
C134 C 0.23789 0.06837 0.81945 0.0
C135 C 0.26008 0.11756 0.84673 0.0
O136 O 0.2192 0.09773 0.87217 0.0
O137 O 0.24183 0.08504 0.87405 0.0
O138 O 0.26216 0.10252 0.84322 0.0
O139 O 0.24532 0.12193 0.84806 0.0
C140 C 0.21286 0.11175 0.81662 0.0
O141 O 0.24681 0.08067 0.81624 0.0
O142 O 0.22759 0.07005 0.83435 0.0
In143 In 0.90134 0.23157 0.8422 0.0
O144 O 0.89786 0.20467 0.8327 0.0
O145 O 0.88271 0.22251 0.81799 0.0
C146 C 0.90879 0.22614 0.88379 0.0
C147 C 0.9277 0.2357 0.81667 0.0
C148 C 0.88121 0.25735 0.84783 0.0
O149 O 0.8987 0.2174 0.8736 0.0
O150 O 0.91528 0.23741 0.8729 0.0
O151 O 0.89575 0.25895 0.84135 0.0
O152 O 0.87694 0.24281 0.85158 0.0
C153 C 0.88662 0.20766 0.81938 0.0
O154 O 0.91397 0.24196 0.81257 0.0
O155 O 0.92826 0.22762 0.8339 0.0
In156 In 0.76626 0.09528 0.65802 0.0
O157 O 0.79307 0.10017 0.66685 0.0
O158 O 0.77454 0.11038 0.68657 0.0
C159 C 0.77095 0.08809 0.6162 0.0
C160 C 0.7613 0.0677 0.68086 0.0
C161 C 0.74235 0.11765 0.65295 0.0
O162 O 0.78031 0.09754 0.6265 0.0
O163 O 0.75941 0.08209 0.62709 0.0
O164 O 0.73949 0.10315 0.65878 0.0
O165 O 0.75722 0.1208 0.64955 0.0
C166 C 0.78962 0.10861 0.6832 0.0
O167 O 0.75291 0.08046 0.68355 0.0
O168 O 0.77201 0.06872 0.66636 0.0
In169 In 0.90179 0.76515 0.65669 0.0
O170 O 0.92222 0.75165 0.67416 0.0
O171 O 0.9246 0.77735 0.67027 0.0
C172 C 0.88049 0.74005 0.65318 0.0
C173 C 0.88546 0.7859 0.68268 0.0
C174 C 0.90997 0.77028 0.61518 0.0
O175 O 0.8939 0.73879 0.66305 0.0
O176 O 0.87787 0.75392 0.64505 0.0
O177 O 0.90029 0.77949 0.62528 0.0
O178 O 0.91574 0.75866 0.62611 0.0
C179 C 0.93056 0.76433 0.67778 0.0
O180 O 0.89036 0.79001 0.66424 0.0
O181 O 0.88866 0.77135 0.68786 0.0
In182 In 0.23286 0.90234 0.65434 0.0
O183 O 0.20824 0.88953 0.65967 0.0
O184 O 0.22461 0.89134 0.68601 0.0
C185 C 0.2276 0.91148 0.61327 0.0
C186 C 0.23645 0.93012 0.67729 0.0
C187 C 0.25674 0.8799 0.64909 0.0
O188 O 0.21636 0.90597 0.62514 0.0
O189 O 0.24137 0.91267 0.62226 0.0
O190 O 0.25964 0.89448 0.6545 0.0
O191 O 0.24183 0.87671 0.64611 0.0
C192 C 0.21098 0.88639 0.67919 0.0
O193 O 0.24596 0.91808 0.67904 0.0
O194 O 0.22527 0.92837 0.66352 0.0
In195 In 0.09596 0.23297 0.65639 0.0
O196 O 0.10696 0.2077 0.66313 0.0
O197 O 0.1072 0.22527 0.68821 0.0
C198 C 0.08859 0.22854 0.61454 0.0
C199 C 0.06708 0.23559 0.67703 0.0
C200 C 0.11802 0.25741 0.65275 0.0
O201 O 0.09626 0.21801 0.62539 0.0
O202 O 0.08445 0.24114 0.62488 0.0
O203 O 0.10339 0.25983 0.65829 0.0
O204 O 0.1215 0.24268 0.64894 0.0
C205 C 0.11086 0.21102 0.68225 0.0
O206 O 0.0785 0.2458 0.67925 0.0
O207 O 0.07011 0.22408 0.66414 0.0
In208 In 0.73047 0.5957 0.65473 0.0
O209 O 0.70488 0.60447 0.664 0.0
O210 O 0.72501 0.61308 0.68236 0.0
C211 C 0.72446 0.58769 0.61333 0.0
C212 C 0.73205 0.56757 0.67737 0.0
C213 C 0.756 0.61641 0.65108 0.0
O214 O 0.71595 0.59789 0.62358 0.0
O215 O 0.73586 0.58129 0.62406 0.0
O216 O 0.75651 0.60375 0.66265 0.0
O217 O 0.74267 0.61853 0.64125 0.0
C218 C 0.70975 0.61316 0.67948 0.0
O219 O 0.74465 0.57499 0.67094 0.0
O220 O 0.71873 0.57412 0.67194 0.0
In221 In 0.40256 0.73123 0.65402 0.0
O222 O 0.38891 0.70718 0.65974 0.0
O223 O 0.39211 0.72328 0.68618 0.0
C224 C 0.41159 0.72678 0.61268 0.0
C225 C 0.43087 0.73354 0.67601 0.0
C226 C 0.38021 0.75535 0.65002 0.0
O227 O 0.40502 0.71561 0.62368 0.0
O228 O 0.4139 0.73998 0.62268 0.0
O229 O 0.39457 0.75791 0.65658 0.0
O230 O 0.37714 0.74065 0.64544 0.0
C231 C 0.38645 0.7099 0.67944 0.0
O232 O 0.42048 0.74492 0.67538 0.0
O233 O 0.42717 0.72106 0.66511 0.0
In234 In 0.26728 0.40246 0.65698 0.0
O235 O 0.25312 0.4219 0.67555 0.0
O236 O 0.27843 0.42595 0.67005 0.0
C237 C 0.24246 0.38097 0.65254 0.0
C238 C 0.28782 0.38685 0.68395 0.0
C239 C 0.27333 0.40969 0.61538 0.0
O240 O 0.24043 0.39519 0.65995 0.0
O241 O 0.25698 0.37765 0.64729 0.0
O242 O 0.28215 0.40007 0.62613 0.0
O243 O 0.26159 0.41588 0.62568 0.0
C244 C 0.26535 0.43103 0.67846 0.0
O245 O 0.29258 0.39318 0.66656 0.0
O246 O 0.27272 0.38827 0.68759 0.0
In247 In 0.59601 0.26597 0.65495 0.0
O248 O 0.57738 0.25136 0.67402 0.0
O249 O 0.57134 0.27592 0.66621 0.0
C250 C 0.61866 0.24204 0.65171 0.0
C251 C 0.61165 0.28731 0.68091 0.0
C252 C 0.58711 0.27076 0.61361 0.0
O253 O 0.60454 0.2396 0.65916 0.0
O254 O 0.62136 0.25654 0.64585 0.0
O255 O 0.59332 0.28194 0.62493 0.0
O256 O 0.58518 0.25734 0.62324 0.0
C257 C 0.56714 0.26283 0.67542 0.0
O258 O 0.61005 0.28974 0.661 0.0
O259 O 0.60531 0.27424 0.68764 0.0
In260 In 0.73274 0.40277 0.84409 0.0
O261 O 0.70993 0.3871 0.83886 0.0
O262 O 0.72459 0.39271 0.81169 0.0
C263 C 0.72699 0.41163 0.88527 0.0
C264 C 0.73412 0.4313 0.82243 0.0
C265 C 0.75797 0.3816 0.84762 0.0
O266 O 0.71611 0.40547 0.87343 0.0
O267 O 0.74064 0.41357 0.87626 0.0
O268 O 0.75977 0.3961 0.84119 0.0
O269 O 0.74347 0.37779 0.85233 0.0
C270 C 0.71205 0.38561 0.81888 0.0
O271 O 0.74611 0.42167 0.8238 0.0
O272 O 0.72148 0.42672 0.83238 0.0
In273 In 0.59433 0.73206 0.8451 0.0
O274 O 0.60277 0.70639 0.83542 0.0
O275 O 0.60995 0.72643 0.81589 0.0
C276 C 0.58751 0.72618 0.88686 0.0
C277 C 0.56635 0.73452 0.82231 0.0
C278 C 0.61537 0.75713 0.85017 0.0
O279 O 0.5966 0.71699 0.87582 0.0
O280 O 0.58163 0.73817 0.87674 0.0
O281 O 0.60061 0.75925 0.84494 0.0
O282 O 0.61941 0.74241 0.85312 0.0
C283 C 0.61044 0.71122 0.81901 0.0
O284 O 0.57713 0.74553 0.82238 0.0
O285 O 0.56947 0.72242 0.83416 0.0
In286 In 0.26561 0.59572 0.8443 0.0
O287 O 0.25207 0.57529 0.82706 0.0
O288 O 0.27765 0.57241 0.83187 0.0
C289 C 0.24063 0.61728 0.84641 0.0
C290 C 0.28626 0.61225 0.81837 0.0
C291 C 0.27051 0.5872 0.88576 0.0
O292 O 0.23924 0.60344 0.83771 0.0
O293 O 0.25458 0.62024 0.85406 0.0
O294 O 0.28134 0.59421 0.87467 0.0
O295 O 0.25741 0.58425 0.87584 0.0
C296 C 0.26462 0.5666 0.82413 0.0
O297 O 0.2886 0.61103 0.83835 0.0
O298 O 0.27356 0.60519 0.8116 0.0
In299 In 0.40398 0.26766 0.8436 0.0
O300 O 0.38141 0.2837 0.83891 0.0
O301 O 0.40304 0.29021 0.82212 0.0
C302 C 0.41146 0.27419 0.88501 0.0
C303 C 0.43057 0.26252 0.81885 0.0
C304 C 0.38468 0.2408 0.84312 0.0
O305 O 0.40048 0.28183 0.87494 0.0
O306 O 0.41879 0.26348 0.87412 0.0
O307 O 0.39537 0.24319 0.85736 0.0
O308 O 0.38393 0.25178 0.82896 0.0
C309 C 0.38819 0.29327 0.82576 0.0
O310 O 0.41783 0.25389 0.8174 0.0
O311 O 0.42997 0.27354 0.833 0.0
In312 In 0.26581 0.40246 0.34491 0.0
O313 O 0.29187 0.39572 0.33483 0.0
O314 O 0.27217 0.38607 0.31663 0.0
C315 C 0.27194 0.40934 0.38655 0.0
C316 C 0.26236 0.43025 0.32193 0.0
C317 C 0.24077 0.38147 0.35056 0.0
O318 O 0.28082 0.3999 0.37557 0.0
O319 O 0.2601 0.41553 0.37644 0.0
O320 O 0.23867 0.39605 0.34448 0.0
O321 O 0.25546 0.37757 0.35399 0.0
C322 C 0.28742 0.387 0.31917 0.0
O323 O 0.25211 0.41876 0.32129 0.0
O324 O 0.2742 0.4279 0.33452 0.0
In325 In 0.5957 0.266 0.34374 0.0
O326 O 0.57551 0.25225 0.3262 0.0
O327 O 0.57271 0.27791 0.33016 0.0
C328 C 0.61748 0.24134 0.34743 0.0
C329 C 0.61274 0.28644 0.31814 0.0
C330 C 0.58662 0.27108 0.38493 0.0
O331 O 0.60404 0.23973 0.33774 0.0
O332 O 0.61989 0.25533 0.35528 0.0
O333 O 0.5942 0.28168 0.3741 0.0
O334 O 0.58335 0.25812 0.37485 0.0
C335 C 0.56695 0.26479 0.32264 0.0
O336 O 0.60981 0.28968 0.33758 0.0
O337 O 0.60708 0.27297 0.3117 0.0
In338 In 0.73338 0.59479 0.34326 0.0
O339 O 0.70887 0.60662 0.33509 0.0
O340 O 0.72766 0.60739 0.31155 0.0
C341 C 0.72706 0.58704 0.38465 0.0
C342 C 0.73488 0.56629 0.32151 0.0
C343 C 0.75827 0.61622 0.34794 0.0
O344 O 0.71761 0.59573 0.37346 0.0
O345 O 0.73957 0.58199 0.37487 0.0
O346 O 0.76038 0.60181 0.34127 0.0
O347 O 0.74366 0.61977 0.35235 0.0
C348 C 0.71318 0.61108 0.31654 0.0
O349 O 0.74714 0.57544 0.3241 0.0
O350 O 0.72196 0.57128 0.33042 0.0
In351 In 0.40129 0.73312 0.34212 0.0
O352 O 0.38503 0.71037 0.33916 0.0
O353 O 0.39588 0.71982 0.31083 0.0
C354 C 0.40987 0.72898 0.38367 0.0
C355 C 0.42955 0.73688 0.32043 0.0
C356 C 0.379 0.75758 0.34328 0.0
O357 O 0.40532 0.71725 0.37194 0.0
O358 O 0.41035 0.74265 0.37433 0.0
O359 O 0.39396 0.76007 0.33969 0.0
O360 O 0.37529 0.74281 0.34621 0.0
C361 C 0.38678 0.70913 0.31909 0.0
O362 O 0.41683 0.74498 0.31621 0.0
O363 O 0.42814 0.72697 0.33588 0.0
In364 In 0.26475 0.59542 0.1563 0.0
O365 O 0.25094 0.57757 0.17762 0.0
O366 O 0.27469 0.57066 0.1672 0.0
C367 C 0.24021 0.61727 0.15173 0.0
C368 C 0.28618 0.61077 0.18238 0.0
C369 C 0.26994 0.58742 0.11473 0.0
O370 O 0.23782 0.60271 0.15758 0.0
O371 O 0.25496 0.62081 0.14813 0.0
O372 O 0.27976 0.59615 0.12533 0.0
O373 O 0.2577 0.58249 0.12519 0.0
C374 C 0.26219 0.56704 0.1781 0.0
O375 O 0.28991 0.60627 0.16362 0.0
O376 O 0.27169 0.60756 0.18788 0.0
In377 In 0.40282 0.26802 0.15512 0.0
O378 O 0.3946 0.29375 0.16448 0.0
O379 O 0.38708 0.27394 0.18421 0.0
C380 C 0.41054 0.27361 0.11355 0.0
C381 C 0.43102 0.26594 0.17739 0.0
C382 C 0.38156 0.24299 0.151 0.0
O383 O 0.3999 0.2818 0.12349 0.0
O384 O 0.41747 0.26275 0.12465 0.0
O385 O 0.39535 0.24134 0.15984 0.0
O386 O 0.37858 0.25719 0.14415 0.0
C387 C 0.38683 0.28914 0.18091 0.0
O388 O 0.42213 0.25366 0.17368 0.0
O389 O 0.42587 0.27916 0.16947 0.0
In390 In 0.73308 0.40215 0.15426 0.0
O391 O 0.71061 0.38606 0.15993 0.0
O392 O 0.72528 0.39234 0.18686 0.0
C393 C 0.72728 0.411 0.11312 0.0
C394 C 0.7344 0.43115 0.17477 0.0
C395 C 0.75795 0.38049 0.1517 0.0
O396 O 0.71629 0.40525 0.12516 0.0
O397 O 0.74106 0.41254 0.12194 0.0
O398 O 0.75933 0.39408 0.16111 0.0
O399 O 0.74409 0.3779 0.14351 0.0
C400 C 0.71288 0.38486 0.17992 0.0
O401 O 0.747 0.42281 0.17067 0.0
O402 O 0.72119 0.42507 0.16799 0.0
In403 In 0.5967 0.73349 0.15694 0.0
O404 O 0.60659 0.70784 0.16394 0.0
O405 O 0.61082 0.72651 0.18698 0.0
C406 C 0.58863 0.72738 0.11569 0.0
C407 C 0.56918 0.73653 0.18063 0.0
C408 C 0.61802 0.75824 0.15049 0.0
O409 O 0.5971 0.71767 0.12683 0.0
O410 O 0.58395 0.74005 0.12549 0.0
O411 O 0.60326 0.76064 0.15543 0.0
O412 O 0.62195 0.74341 0.14861 0.0
C413 C 0.61281 0.71176 0.18177 0.0
O414 O 0.58124 0.746 0.18252 0.0
O415 O 0.57081 0.72566 0.16642 0.0
H416 H 0.35106 0.24411 0.13346 0.0
H417 H 0.33065 0.22227 0.13247 0.0
H418 H 0.36435 0.18976 0.1643 0.0
H419 H 0.38493 0.21155 0.16521 0.0
H420 H 0.3473 0.17584 0.1282 0.0
H421 H 0.30547 0.20617 0.18608 0.0
H422 H 0.31148 0.21864 0.16368 0.0
H423 H 0.32657 0.2122 0.18287 0.0
C424 C 0.35415 0.2323 0.14019 0.0
C425 C 0.36955 0.22956 0.14954 0.0
C426 C 0.34246 0.21987 0.1397 0.0
C427 C 0.34593 0.20451 0.14861 0.0
C428 C 0.36143 0.20158 0.15744 0.0
H429 H 0.28934 0.11486 0.16281 0.0
H430 H 0.31125 0.13525 0.16185 0.0
C431 C 0.37315 0.21403 0.15797 0.0
C432 C 0.33329 0.19158 0.14888 0.0
H433 H 0.29542 0.18252 0.16854 0.0
C434 C 0.33598 0.17723 0.13708 0.0
C435 C 0.31857 0.19348 0.16052 0.0
C436 C 0.31534 0.20838 0.17417 0.0
C437 C 0.32411 0.16483 0.13617 0.0
C438 C 0.30934 0.16679 0.1477 0.0
C439 C 0.30673 0.1811 0.15965 0.0
C440 C 0.29632 0.1542 0.14759 0.0
C441 C 0.32731 0.14997 0.12245 0.0
C442 C 0.28059 0.1582 0.14026 0.0
C443 C 0.26804 0.14664 0.14097 0.0
C444 C 0.27098 0.13089 0.14909 0.0
C445 C 0.28675 0.12688 0.15634 0.0
C446 C 0.2993 0.13847 0.15568 0.0
H447 H 0.33709 0.15226 0.11044 0.0
H448 H 0.33132 0.13973 0.13287 0.0
H449 H 0.31605 0.1461 0.11387 0.0
H450 H 0.27803 0.17031 0.13406 0.0
H451 H 0.256 0.15009 0.1353 0.0
H452 H 0.8523 0.25646 0.13076 0.0
H453 H 0.83216 0.27857 0.12999 0.0
H454 H 0.86463 0.30904 0.16708 0.0
H455 H 0.88493 0.28703 0.16774 0.0
H456 H 0.81753 0.29306 0.16603 0.0
H457 H 0.85105 0.33892 0.11706 0.0
H458 H 0.85684 0.31762 0.11795 0.0
H459 H 0.86215 0.33103 0.1397 0.0
C460 C 0.85522 0.26792 0.13858 0.0
C461 C 0.8702 0.27004 0.14928 0.0
C462 C 0.8437 0.28052 0.13814 0.0
C463 C 0.84699 0.29548 0.14826 0.0
C464 C 0.86199 0.29769 0.15882 0.0
H465 H 0.78853 0.38297 0.16909 0.0
H466 H 0.8103 0.36238 0.16844 0.0
C467 C 0.87353 0.28509 0.15928 0.0
C468 C 0.83434 0.30842 0.1487 0.0
H469 H 0.82619 0.34759 0.13302 0.0
C470 C 0.81939 0.30497 0.15875 0.0
C471 C 0.83688 0.32396 0.1393 0.0
C472 C 0.85254 0.32813 0.12772 0.0
C473 C 0.8069 0.31669 0.15981 0.0
C474 C 0.80936 0.33216 0.15021 0.0
C475 C 0.82437 0.33569 0.14033 0.0
C476 C 0.79637 0.34477 0.15008 0.0
C477 C 0.7913 0.3125 0.17153 0.0
C478 C 0.78147 0.34177 0.13963 0.0
C479 C 0.76904 0.35346 0.14001 0.0
C480 C 0.77133 0.3684 0.15072 0.0
C481 C 0.7864 0.37153 0.16077 0.0
C482 C 0.79884 0.35981 0.1604 0.0
H483 H 0.79301 0.30201 0.18265 0.0
H484 H 0.78675 0.32313 0.18087 0.0
H485 H 0.78178 0.30906 0.15967 0.0
H486 H 0.77945 0.33036 0.13122 0.0
H487 H 0.7576 0.35075 0.132 0.0
H488 H 0.61266 0.79101 0.15505 0.0
H489 H 0.63286 0.81306 0.15256 0.0
H490 H 0.67047 0.77775 0.13823 0.0
H491 H 0.65036 0.7557 0.14045 0.0
H492 H 0.66092 0.81614 0.17794 0.0
H493 H 0.67707 0.81243 0.09155 0.0
H494 H 0.65889 0.80306 0.10249 0.0
H495 H 0.67843 0.79327 0.10551 0.0
C496 C 0.6252 0.78798 0.15113 0.0
C497 C 0.62994 0.77165 0.1479 0.0
C498 C 0.63671 0.80057 0.14973 0.0
C499 C 0.6531 0.79704 0.14492 0.0
C500 C 0.65782 0.78076 0.1415 0.0
H501 H 0.74459 0.84933 0.14215 0.0
H502 H 0.7224 0.8293 0.1402 0.0
C503 C 0.64633 0.76818 0.14291 0.0
C504 C 0.66547 0.81025 0.14478 0.0
H505 H 0.69455 0.82856 0.11367 0.0
C506 C 0.66817 0.81899 0.16384 0.0
C507 C 0.67494 0.81385 0.12638 0.0
C508 C 0.67212 0.80527 0.10525 0.0
C509 C 0.68042 0.83095 0.16518 0.0
C510 C 0.69001 0.83444 0.14684 0.0
C511 C 0.68718 0.82583 0.1277 0.0
C512 C 0.70327 0.84675 0.14735 0.0
C513 C 0.68336 0.83936 0.18641 0.0
C514 C 0.69982 0.86322 0.15165 0.0
C515 C 0.71247 0.87467 0.15285 0.0
C516 C 0.72877 0.86984 0.1496 0.0
C517 C 0.73215 0.8534 0.14479 0.0
C518 C 0.7195 0.84196 0.14364 0.0
H519 H 0.67776 0.83255 0.19998 0.0
H520 H 0.69665 0.84075 0.18957 0.0
H521 H 0.67782 0.85174 0.18596 0.0
H522 H 0.68734 0.86722 0.15415 0.0
H523 H 0.70948 0.88728 0.15644 0.0
H524 H 0.20764 0.61238 0.15881 0.0
H525 H 0.18561 0.63256 0.15628 0.0
H526 H 0.22058 0.66949 0.13796 0.0
H527 H 0.24263 0.64935 0.14019 0.0
H528 H 0.18288 0.6615 0.17966 0.0
H529 H 0.18496 0.67418 0.09219 0.0
H530 H 0.19465 0.65652 0.10407 0.0
H531 H 0.20436 0.67621 0.1054 0.0
C532 C 0.21061 0.62477 0.15407 0.0
C533 C 0.22684 0.62929 0.14964 0.0
C534 C 0.19802 0.63627 0.15264 0.0
C535 C 0.20144 0.65244 0.14663 0.0
C536 C 0.21763 0.65698 0.14217 0.0
H537 H 0.14912 0.74359 0.13988 0.0
H538 H 0.16898 0.72125 0.13853 0.0
C539 C 0.23023 0.6455 0.14359 0.0
C540 C 0.1882 0.66478 0.14608 0.0
H541 H 0.16913 0.69244 0.11356 0.0
C542 C 0.17975 0.66816 0.16517 0.0
C543 C 0.1842 0.67345 0.12715 0.0
C544 C 0.1924 0.66983 0.10598 0.0
C545 C 0.1677 0.68036 0.16602 0.0
C546 C 0.16384 0.68917 0.14715 0.0
C547 C 0.17214 0.68565 0.12799 0.0
C548 C 0.15156 0.70247 0.14716 0.0
C549 C 0.1596 0.68406 0.18724 0.0
C550 C 0.13513 0.69923 0.15207 0.0
C551 C 0.12376 0.71197 0.15291 0.0
C552 C 0.12864 0.72814 0.14871 0.0
C553 C 0.14501 0.73127 0.14325 0.0
C554 C 0.15637 0.71853 0.14244 0.0
H555 H 0.16656 0.6789 0.20098 0.0
H556 H 0.15831 0.69745 0.18962 0.0
H557 H 0.14718 0.67859 0.1874 0.0
H558 H 0.13112 0.68686 0.15537 0.0
H559 H 0.1112 0.70919 0.15704 0.0
H560 H 0.28855 0.88745 0.33872 0.0
H561 H 0.31022 0.86679 0.33893 0.0
H562 H 0.27485 0.82966 0.35503 0.0
H563 H 0.25314 0.85027 0.35511 0.0
H564 H 0.30361 0.82827 0.3797 0.0
H565 H 0.3173 0.83195 0.29242 0.0
H566 H 0.31814 0.85112 0.30644 0.0
H567 H 0.29898 0.84052 0.30403 0.0
C568 C 0.2854 0.87489 0.34232 0.0
C569 C 0.26915 0.87045 0.3468 0.0
C570 C 0.29777 0.8631 0.34231 0.0
C571 C 0.29407 0.84667 0.34665 0.0
C572 C 0.27792 0.84227 0.35153 0.0
H573 H 0.34642 0.75493 0.35181 0.0
H574 H 0.32618 0.77692 0.35323 0.0
C575 C 0.26555 0.85404 0.35155 0.0
C576 C 0.30705 0.83406 0.34627 0.0
H577 H 0.33468 0.81524 0.31344 0.0
C578 C 0.3104 0.82539 0.36522 0.0
C579 C 0.31588 0.83038 0.32735 0.0
C580 C 0.31235 0.83886 0.30634 0.0
C581 C 0.32246 0.8132 0.36579 0.0
C582 C 0.3312 0.80944 0.34683 0.0
C583 C 0.32796 0.8182 0.32794 0.0
C584 C 0.3435 0.79618 0.34614 0.0
C585 C 0.32592 0.8046 0.38674 0.0
C586 C 0.35986 0.7997 0.34121 0.0
C587 C 0.37145 0.78716 0.34031 0.0
C588 C 0.3668 0.77087 0.34415 0.0
C589 C 0.35037 0.76737 0.34887 0.0
C590 C 0.33881 0.77992 0.34981 0.0
H591 H 0.3213 0.81168 0.40071 0.0
H592 H 0.31971 0.79254 0.38673 0.0
H593 H 0.33923 0.8025 0.38885 0.0
H594 H 0.36367 0.81218 0.33819 0.0
H595 H 0.38402 0.7902 0.33658 0.0
H596 H 0.20848 0.3865 0.34155 0.0
H597 H 0.18628 0.36641 0.34308 0.0
H598 H 0.22024 0.32976 0.36518 0.0
H599 H 0.24245 0.34976 0.36385 0.0
H600 H 0.18532 0.33666 0.31993 0.0
H601 H 0.18194 0.32608 0.40786 0.0
H602 H 0.19195 0.3437 0.39633 0.0
H603 H 0.20211 0.32422 0.39672 0.0
C604 C 0.21117 0.3742 0.34696 0.0
C605 C 0.22719 0.36969 0.35262 0.0
C606 C 0.1985 0.36276 0.3478 0.0
C607 C 0.2016 0.34668 0.35449 0.0
C608 C 0.21754 0.34219 0.36037 0.0
H609 H 0.1486 0.25575 0.36105 0.0
H610 H 0.16859 0.27798 0.3628 0.0
C611 C 0.23022 0.35361 0.35948 0.0
C612 C 0.1884 0.33431 0.35411 0.0
H613 H 0.16739 0.30741 0.38562 0.0
C614 C 0.18127 0.33035 0.3343 0.0
C615 C 0.18323 0.3261 0.3729 0.0
C616 C 0.19008 0.33031 0.3947 0.0
C617 C 0.1694 0.31803 0.33265 0.0
C618 C 0.16432 0.30971 0.35141 0.0
C619 C 0.17132 0.31381 0.37128 0.0
C620 C 0.15203 0.29643 0.35068 0.0
C621 C 0.16279 0.31367 0.31075 0.0
C622 C 0.13604 0.29952 0.34357 0.0
C623 C 0.12462 0.28684 0.34247 0.0
C624 C 0.12898 0.27089 0.34863 0.0
C625 C 0.1449 0.26791 0.35614 0.0
C626 C 0.15632 0.28058 0.35718 0.0
H627 H 0.17078 0.3183 0.29766 0.0
H628 H 0.16151 0.30023 0.30898 0.0
H629 H 0.15053 0.31926 0.30873 0.0
H630 H 0.1324 0.31174 0.33889 0.0
H631 H 0.1124 0.28951 0.33676 0.0
H632 H 0.74206 0.14739 0.36951 0.0
H633 H 0.72006 0.16763 0.37077 0.0
H634 H 0.68815 0.13431 0.33719 0.0
H635 H 0.71002 0.11389 0.33619 0.0
H636 H 0.70485 0.18151 0.33561 0.0
H637 H 0.65958 0.14952 0.38708 0.0
H638 H 0.6807 0.14321 0.38532 0.0
H639 H 0.66651 0.1378 0.36445 0.0
C640 C 0.73029 0.1443 0.36262 0.0
C641 C 0.72773 0.12906 0.35278 0.0
C642 C 0.71776 0.15587 0.36334 0.0
C643 C 0.70243 0.15239 0.35431 0.0
C644 C 0.69978 0.13711 0.34466 0.0
H645 H 0.61524 0.2104 0.33117 0.0
H646 H 0.63586 0.1887 0.333 0.0
C647 C 0.71231 0.1255 0.34399 0.0
C648 C 0.68959 0.16514 0.35383 0.0
H649 H 0.65056 0.17378 0.36969 0.0
C650 C 0.69301 0.17987 0.34317 0.0
C651 C 0.67414 0.1629 0.3636 0.0
C652 C 0.67001 0.14757 0.37593 0.0
C653 C 0.68132 0.19235 0.34177 0.0
C654 C 0.6659 0.19014 0.3516 0.0
C655 C 0.66242 0.1754 0.36219 0.0
C656 C 0.65326 0.20307 0.35113 0.0
C657 C 0.68546 0.20769 0.32943 0.0
C658 C 0.65614 0.2182 0.36104 0.0
C659 C 0.64443 0.23059 0.35999 0.0
C660 C 0.6296 0.22803 0.34911 0.0
C661 C 0.62659 0.21274 0.3396 0.0
C662 C 0.63832 0.20034 0.34065 0.0
H663 H 0.69603 0.20581 0.3185 0.0
H664 H 0.67484 0.2119 0.3198 0.0
H665 H 0.68872 0.21753 0.34091 0.0
H666 H 0.66748 0.22043 0.36953 0.0
H667 H 0.64704 0.24221 0.3676 0.0
H668 H 0.75634 0.64798 0.36101 0.0
H669 H 0.77849 0.66805 0.36281 0.0
H670 H 0.81278 0.63147 0.34141 0.0
H671 H 0.79065 0.61136 0.33931 0.0
H672 H 0.80797 0.66734 0.38646 0.0
H673 H 0.81921 0.66907 0.29846 0.0
H674 H 0.80104 0.66011 0.30995 0.0
H675 H 0.82002 0.64908 0.31034 0.0
C676 C 0.7686 0.6442 0.35671 0.0
C677 C 0.77176 0.62813 0.34987 0.0
C678 C 0.78123 0.65567 0.35778 0.0
C679 C 0.79721 0.65129 0.35194 0.0
C680 C 0.80047 0.63516 0.3456 0.0
H681 H 0.88669 0.7084 0.34082 0.0
H682 H 0.86674 0.68611 0.34279 0.0
C683 C 0.78784 0.62368 0.3445 0.0
C684 C 0.81039 0.66368 0.35237 0.0
H685 H 0.83717 0.68438 0.32031 0.0
C686 C 0.81438 0.67108 0.37202 0.0
C687 C 0.81871 0.66849 0.33349 0.0
C688 C 0.81448 0.6614 0.31181 0.0
C689 C 0.82656 0.68313 0.37331 0.0
C690 C 0.83474 0.68806 0.35439 0.0
C691 C 0.83089 0.68053 0.33479 0.0
C692 C 0.84701 0.70137 0.35439 0.0
C693 C 0.83069 0.69035 0.39494 0.0
C694 C 0.84249 0.71731 0.36018 0.0
C695 C 0.85385 0.73005 0.35907 0.0
C696 C 0.86989 0.72706 0.35203 0.0
C697 C 0.87442 0.71105 0.34636 0.0
C698 C 0.86305 0.69833 0.34746 0.0
H699 H 0.82667 0.68228 0.40829 0.0
H700 H 0.84405 0.69251 0.39647 0.0
H701 H 0.82434 0.70226 0.39673 0.0
H702 H 0.83008 0.71998 0.36514 0.0
H703 H 0.84998 0.74227 0.36344 0.0
H704 H 0.7077 0.88593 0.84144 0.0
H705 H 0.68526 0.86614 0.84387 0.0
H706 H 0.72006 0.82733 0.85429 0.0
H707 H 0.74252 0.847 0.85204 0.0
H708 H 0.68026 0.83773 0.8182 0.0
H709 H 0.68749 0.82237 0.90449 0.0
H710 H 0.69651 0.84036 0.89256 0.0
H711 H 0.70594 0.8207 0.88902 0.0
C712 C 0.71055 0.87318 0.8443 0.0
C713 C 0.72684 0.868 0.84664 0.0
C714 C 0.69774 0.86191 0.84568 0.0
C715 C 0.70102 0.84535 0.8496 0.0
C716 C 0.71727 0.84013 0.85169 0.0
H717 H 0.64801 0.75503 0.85846 0.0
H718 H 0.66801 0.77726 0.85869 0.0
C719 C 0.73008 0.85136 0.85027 0.0
C720 C 0.68749 0.83339 0.85093 0.0
H721 H 0.66987 0.80522 0.88407 0.0
C722 C 0.67785 0.83072 0.83264 0.0
C723 C 0.68445 0.82429 0.86981 0.0
C724 C 0.69403 0.82714 0.89017 0.0
C725 C 0.66556 0.81874 0.83248 0.0
C726 C 0.66267 0.80946 0.85128 0.0
C727 C 0.67213 0.81235 0.86969 0.0
C728 C 0.65032 0.79624 0.85191 0.0
C729 C 0.6562 0.81573 0.81197 0.0
C730 C 0.6337 0.79961 0.84845 0.0
C731 C 0.62225 0.78692 0.84822 0.0
C732 C 0.62723 0.77068 0.85164 0.0
C733 C 0.64381 0.76742 0.85573 0.0
C734 C 0.65524 0.78009 0.85588 0.0
H735 H 0.66248 0.82108 0.7978 0.0
H736 H 0.65448 0.80243 0.80917 0.0
H737 H 0.64394 0.82145 0.81324 0.0
H738 H 0.6296 0.81204 0.84581 0.0
H739 H 0.60953 0.7898 0.84516 0.0
H740 H 0.11279 0.70998 0.83274 0.0
H741 H 0.13273 0.68765 0.83402 0.0
H742 H 0.16669 0.71898 0.86741 0.0
H743 H 0.1468 0.74129 0.86638 0.0
H744 H 0.16428 0.68809 0.81627 0.0
H745 H 0.16641 0.67733 0.90419 0.0
H746 H 0.15011 0.68862 0.89142 0.0
H747 H 0.16947 0.69828 0.89657 0.0
C748 C 0.12445 0.71205 0.84054 0.0
C749 C 0.12824 0.72736 0.84951 0.0
C750 C 0.13581 0.6993 0.84124 0.0
C751 C 0.15108 0.70161 0.85106 0.0
C752 C 0.15485 0.71685 0.86014 0.0
H753 H 0.24105 0.64779 0.86405 0.0
H754 H 0.21874 0.66772 0.86496 0.0
C755 C 0.14351 0.72961 0.85943 0.0
C756 C 0.16342 0.68838 0.85081 0.0
H757 H 0.18725 0.66467 0.88328 0.0
C758 C 0.16921 0.68284 0.8309 0.0
C759 C 0.16981 0.68162 0.86995 0.0
C760 C 0.16354 0.68664 0.89176 0.0
C761 C 0.1816 0.67103 0.82959 0.0
C762 C 0.18815 0.66441 0.84873 0.0
C763 C 0.18221 0.6698 0.86865 0.0
C764 C 0.20145 0.65215 0.84842 0.0
C765 C 0.18795 0.66611 0.80777 0.0
C766 C 0.19901 0.63674 0.83908 0.0
C767 C 0.21174 0.62534 0.83849 0.0
C768 C 0.22707 0.62917 0.84736 0.0
C769 C 0.22938 0.64452 0.85703 0.0
C770 C 0.21666 0.6559 0.85759 0.0
H771 H 0.18438 0.675 0.79513 0.0
H772 H 0.20149 0.66503 0.80793 0.0
H773 H 0.1828 0.65401 0.80338 0.0
H774 H 0.18726 0.63351 0.83226 0.0
H775 H 0.20958 0.61357 0.83105 0.0
H776 H 0.35964 0.23443 0.8155 0.0
H777 H 0.33978 0.21213 0.8175 0.0
H778 H 0.36441 0.19296 0.87333 0.0
H779 H 0.38417 0.21543 0.87167 0.0
H780 H 0.34393 0.17856 0.81601 0.0
H781 H 0.31723 0.19804 0.89397 0.0
H782 H 0.33058 0.21102 0.87843 0.0
H783 H 0.33893 0.19473 0.89439 0.0
C784 C 0.36086 0.22544 0.82817 0.0
C785 C 0.37338 0.22673 0.84353 0.0
C786 C 0.34952 0.2127 0.82928 0.0
C787 C 0.35048 0.20106 0.84576 0.0
C788 C 0.36326 0.20202 0.86075 0.0
H789 H 0.29279 0.11088 0.84546 0.0
H790 H 0.3154 0.1305 0.84619 0.0
C791 C 0.37459 0.2148 0.8597 0.0
C792 C 0.33794 0.18804 0.84728 0.0
H793 H 0.30732 0.17334 0.87917 0.0
C794 C 0.33595 0.17736 0.82984 0.0
C795 C 0.32744 0.18666 0.86525 0.0
C796 C 0.3285 0.1983 0.88402 0.0
C797 C 0.32369 0.16536 0.82983 0.0
C798 C 0.31335 0.16383 0.84793 0.0
C799 C 0.31538 0.17446 0.86541 0.0
C800 C 0.29982 0.15181 0.84859 0.0
C801 C 0.32159 0.15479 0.81016 0.0
C802 C 0.28361 0.15725 0.85045 0.0
C803 C 0.2707 0.14608 0.85024 0.0
C804 C 0.27378 0.12925 0.8482 0.0
C805 C 0.29004 0.12378 0.8469 0.0
C806 C 0.30296 0.13497 0.84719 0.0
H807 H 0.32782 0.16008 0.79591 0.0
H808 H 0.32698 0.14257 0.81327 0.0
H809 H 0.30844 0.1531 0.80629 0.0
H810 H 0.28094 0.17019 0.85164 0.0
H811 H 0.2583 0.15065 0.85132 0.0
H812 H 0.88712 0.28959 0.83922 0.0
H813 H 0.86772 0.31237 0.84159 0.0
H814 H 0.83028 0.27922 0.86353 0.0
H815 H 0.84958 0.25648 0.86143 0.0
H816 H 0.83822 0.31505 0.81922 0.0
H817 H 0.82759 0.31655 0.90711 0.0
H818 H 0.84475 0.30602 0.89518 0.0
H819 H 0.82486 0.29666 0.89547 0.0
C820 C 0.8748 0.28721 0.84477 0.0
C821 C 0.86986 0.27127 0.85018 0.0
C822 C 0.86375 0.30021 0.8461 0.0
C823 C 0.84765 0.29751 0.85303 0.0
C824 C 0.84274 0.28163 0.85859 0.0
H825 H 0.7567 0.34963 0.85993 0.0
H826 H 0.7793 0.33006 0.86145 0.0
C827 C 0.85376 0.26863 0.85725 0.0
C828 C 0.83564 0.31105 0.85321 0.0
H829 H 0.8086 0.33132 0.88537 0.0
C830 C 0.83188 0.31877 0.83371 0.0
C831 C 0.82738 0.31581 0.87215 0.0
C832 C 0.83144 0.30844 0.89371 0.0
C833 C 0.81962 0.33073 0.83248 0.0
C834 C 0.81112 0.33526 0.85134 0.0
C835 C 0.81512 0.32778 0.87093 0.0
C836 C 0.79766 0.34735 0.85094 0.0
C837 C 0.81545 0.33798 0.81087 0.0
C838 C 0.80056 0.36361 0.84484 0.0
C839 C 0.78767 0.3748 0.8439 0.0
C840 C 0.77169 0.36993 0.84918 0.0
C841 C 0.76888 0.35373 0.85571 0.0
C842 C 0.78177 0.34254 0.85662 0.0
H843 H 0.82045 0.33056 0.79744 0.0
H844 H 0.802 0.33902 0.80883 0.0
H845 H 0.82075 0.35043 0.80973 0.0
H846 H 0.8128 0.36762 0.84079 0.0
H847 H 0.79021 0.38724 0.83895 0.0
H848 H 0.65009 0.24476 0.63747 0.0
H849 H 0.67085 0.22322 0.6358 0.0
H850 H 0.63619 0.18853 0.66124 0.0
H851 H 0.61533 0.20995 0.66282 0.0
H852 H 0.68251 0.20442 0.67085 0.0
H853 H 0.65472 0.16535 0.60766 0.0
H854 H 0.64862 0.18632 0.61198 0.0
H855 H 0.64132 0.17048 0.62952 0.0
C856 C 0.64686 0.23251 0.64257 0.0
C857 C 0.63109 0.22901 0.65023 0.0
C858 C 0.65873 0.22025 0.64161 0.0
C859 C 0.65497 0.20426 0.64812 0.0
C860 C 0.63923 0.20072 0.65575 0.0
H861 H 0.70987 0.11435 0.66217 0.0
H862 H 0.68876 0.13556 0.66064 0.0
C863 C 0.62736 0.21299 0.65676 0.0
C864 C 0.66774 0.19147 0.64785 0.0
H865 H 0.67763 0.15444 0.62615 0.0
C866 C 0.68152 0.19353 0.66099 0.0
C867 C 0.66632 0.17727 0.63503 0.0
C868 C 0.65203 0.17472 0.62009 0.0
C869 C 0.69381 0.1816 0.66199 0.0
C870 C 0.69242 0.16741 0.64914 0.0
C871 C 0.67865 0.16535 0.63596 0.0
C872 C 0.7051 0.1545 0.6493 0.0
C873 C 0.70795 0.18412 0.6772 0.0
C874 C 0.72118 0.15805 0.64301 0.0
C875 C 0.73326 0.146 0.64395 0.0
C876 C 0.72941 0.13015 0.65101 0.0
C877 C 0.7132 0.12648 0.65672 0.0
C878 C 0.70113 0.13857 0.65584 0.0
H879 H 0.70506 0.19332 0.68977 0.0
H880 H 0.71141 0.17248 0.68518 0.0
H881 H 0.71869 0.1886 0.66804 0.0
H882 H 0.72441 0.17018 0.63746 0.0
H883 H 0.74562 0.14915 0.63929 0.0
H884 H 0.78547 0.61492 0.67167 0.0
H885 H 0.80737 0.63537 0.6711 0.0
H886 H 0.77928 0.66485 0.62711 0.0
H887 H 0.75729 0.64457 0.62773 0.0
H888 H 0.82556 0.64837 0.6356 0.0
H889 H 0.7892 0.6959 0.67778 0.0
H890 H 0.78332 0.67463 0.67739 0.0
H891 H 0.77953 0.68738 0.65442 0.0
C892 C 0.78399 0.62574 0.66182 0.0
C893 C 0.76963 0.62822 0.64986 0.0
C894 C 0.79651 0.63738 0.6615 0.0
C895 C 0.79481 0.65171 0.64933 0.0
C896 C 0.78068 0.654 0.63691 0.0
H897 H 0.85161 0.73977 0.63135 0.0
H898 H 0.83148 0.71769 0.62971 0.0
C899 C 0.76817 0.64237 0.63721 0.0
C900 C 0.80771 0.66439 0.64981 0.0
H901 H 0.81485 0.70408 0.66383 0.0
C902 C 0.82328 0.66054 0.64184 0.0
C903 C 0.80464 0.68022 0.65799 0.0
C904 C 0.78832 0.6848 0.66757 0.0
C905 C 0.83582 0.67228 0.64137 0.0
C906 C 0.83272 0.68814 0.64946 0.0
C907 C 0.81716 0.69192 0.65756 0.0
C908 C 0.84539 0.70109 0.64967 0.0
C909 C 0.85212 0.66771 0.63174 0.0
C910 C 0.85986 0.69908 0.66149 0.0
C911 C 0.87142 0.71166 0.66239 0.0
C912 C 0.8686 0.72651 0.65164 0.0
C913 C 0.85412 0.72846 0.63978 0.0
C914 C 0.84261 0.71587 0.63884 0.0
H915 H 0.85117 0.65674 0.6213 0.0
H916 H 0.85722 0.67796 0.62215 0.0
H917 H 0.86086 0.66488 0.64486 0.0
H918 H 0.86208 0.68791 0.67036 0.0
H919 H 0.88243 0.70985 0.67176 0.0
H920 H 0.2533 0.84808 0.63685 0.0
H921 H 0.27455 0.82706 0.63527 0.0
H922 H 0.31052 0.86235 0.65567 0.0
H923 H 0.28937 0.88353 0.65697 0.0
H924 H 0.321 0.84241 0.62162 0.0
H925 H 0.29495 0.80562 0.68831 0.0
H926 H 0.28087 0.80972 0.66685 0.0
H927 H 0.28855 0.82633 0.68285 0.0
C928 C 0.26575 0.85137 0.64093 0.0
C929 C 0.26968 0.86741 0.64717 0.0
C930 C 0.27784 0.83934 0.64013 0.0
C931 C 0.29403 0.8431 0.64574 0.0
C932 C 0.29807 0.8592 0.65141 0.0
H933 H 0.38409 0.78782 0.6588 0.0
H934 H 0.36333 0.80933 0.65675 0.0
C935 C 0.28599 0.87126 0.65216 0.0
C936 C 0.30673 0.83021 0.64584 0.0
H937 H 0.31714 0.79395 0.66927 0.0
C938 C 0.32021 0.83183 0.63207 0.0
C939 C 0.30563 0.81645 0.65954 0.0
C940 C 0.29181 0.81444 0.67538 0.0
C941 C 0.33252 0.81989 0.63136 0.0
C942 C 0.33139 0.80613 0.64501 0.0
C943 C 0.31791 0.80451 0.65877 0.0
C944 C 0.34412 0.79328 0.64547 0.0
C945 C 0.34648 0.82194 0.61575 0.0
C946 C 0.34011 0.77712 0.64013 0.0
C947 C 0.3519 0.7648 0.64138 0.0
C948 C 0.36788 0.76845 0.64815 0.0
C949 C 0.37188 0.78466 0.65345 0.0
C950 C 0.36008 0.79698 0.65217 0.0
H951 H 0.34351 0.83088 0.60291 0.0
H952 H 0.35739 0.82648 0.62451 0.0
H953 H 0.34972 0.81008 0.60818 0.0
H954 H 0.32782 0.77402 0.63505 0.0
H955 H 0.34845 0.75241 0.63723 0.0
H956 H 0.14999 0.25505 0.64064 0.0
H957 H 0.17037 0.27697 0.63943 0.0
H958 H 0.13392 0.31164 0.66015 0.0
H959 H 0.11349 0.28978 0.66155 0.0
H960 H 0.16962 0.30703 0.61562 0.0
H961 H 0.17166 0.31705 0.70389 0.0
H962 H 0.16291 0.29891 0.69202 0.0
H963 H 0.15164 0.31775 0.69202 0.0
C964 C 0.14632 0.26734 0.64492 0.0
C965 C 0.13018 0.2707 0.65131 0.0
C966 C 0.15795 0.27984 0.64419 0.0
C967 C 0.15367 0.29585 0.64997 0.0
C968 C 0.13751 0.2993 0.65597 0.0
H969 H 0.21035 0.38529 0.66308 0.0
H970 H 0.18831 0.36507 0.66112 0.0
C971 C 0.12585 0.28682 0.65667 0.0
C972 C 0.16617 0.30892 0.64979 0.0
H973 H 0.18698 0.33524 0.68237 0.0
C974 C 0.17345 0.31321 0.63019 0.0
C975 C 0.17107 0.31694 0.66885 0.0
C976 C 0.16404 0.31239 0.69045 0.0
C977 C 0.18543 0.32547 0.62909 0.0
C978 C 0.19045 0.33338 0.64819 0.0
C979 C 0.18307 0.32917 0.66776 0.0
C980 C 0.20362 0.3458 0.64835 0.0
C981 C 0.19243 0.33 0.60748 0.0
C982 C 0.21952 0.34163 0.64193 0.0
C983 C 0.23211 0.35315 0.64301 0.0
C984 C 0.22902 0.36901 0.65068 0.0
C985 C 0.21308 0.37318 0.65706 0.0
C986 C 0.20049 0.36165 0.65596 0.0
H987 H 0.18423 0.32622 0.59415 0.0
H988 H 0.19457 0.34338 0.60633 0.0
H989 H 0.20432 0.3237 0.60529 0.0
H990 H 0.22227 0.32937 0.63646 0.0
H991 H 0.24429 0.34955 0.6381 0.0
H992 H 0.20041 0.09537 0.08807 0.0
H993 H 0.19763 0.09256 0.04907 0.0
H994 H 0.24613 0.07207 0.04556 0.0
H995 H 0.24898 0.07475 0.08449 0.0
H996 H 0.21856 0.10819 0.01967 0.0
H997 H 0.21899 0.041 0.00769 0.0
H998 H 0.2146 0.05035 0.03334 0.0
H999 H 0.23536 0.04846 0.02422 0.0
C1000 C 0.21037 0.09 0.07902 0.0
C1001 C 0.22493 0.08529 0.08931 0.0
C1002 C 0.20876 0.08842 0.05677 0.0
C1003 C 0.2216 0.08194 0.04447 0.0
C1004 C 0.23596 0.0768 0.05479 0.0
H1005 H 0.25005 0.07551 0.91217 0.0
H1006 H 0.24669 0.07303 0.95107 0.0
C1007 C 0.2376 0.07844 0.07702 0.0
C1008 C 0.22064 0.08198 0.02072 0.0
H1009 H 0.22338 0.05744 0.97651 0.0
C1010 C 0.21939 0.09709 0.0102 0.0
C1011 C 0.22184 0.06748 0.00848 0.0
C1012 C 0.22263 0.05088 0.01897 0.0
C1013 C 0.21991 0.09817 0.98773 0.0
C1014 C 0.22134 0.08368 0.97545 0.0
C1015 C 0.22227 0.06852 0.98597 0.0
C1016 C 0.22268 0.08413 0.95172 0.0
C1017 C 0.21962 0.11487 0.97741 0.0
C1018 C 0.21012 0.09082 0.93912 0.0
C1019 C 0.21205 0.09236 0.9169 0.0
C1020 C 0.22651 0.08706 0.90689 0.0
C1021 C 0.23879 0.07975 0.91944 0.0
C1022 C 0.23688 0.0783 0.94165 0.0
H1023 H 0.22247 0.12472 0.98911 0.0
H1024 H 0.22852 0.11558 0.96398 0.0
H1025 H 0.20723 0.11723 0.97083 0.0
H1026 H 0.19892 0.09508 0.94652 0.0
H1027 H 0.20233 0.09792 0.90762 0.0
H1028 H 0.89439 0.20446 0.91128 0.0
H1029 H 0.89781 0.20291 0.95031 0.0
H1030 H 0.93382 0.24137 0.94762 0.0
H1031 H 0.93031 0.24317 0.90867 0.0
H1032 H 0.92566 0.19749 0.97686 0.0
H1033 H 0.89882 0.25926 0.98875 0.0
H1034 H 0.89721 0.24832 0.96368 0.0
H1035 H 0.91591 0.25855 0.97068 0.0
C1036 C 0.90314 0.21249 0.91899 0.0
C1037 C 0.91196 0.22405 0.90698 0.0
C1038 C 0.90509 0.21157 0.94126 0.0
C1039 C 0.91586 0.22221 0.95185 0.0
C1040 C 0.92522 0.23326 0.93978 0.0
H1041 H 0.93124 0.24304 0.0873 0.0
H1042 H 0.9344 0.24113 0.04829 0.0
C1043 C 0.92324 0.23423 0.91753 0.0
C1044 C 0.91676 0.22224 0.97559 0.0
H1045 H 0.90898 0.24591 0.01954 0.0
C1046 C 0.92205 0.20806 0.98623 0.0
C1047 C 0.91199 0.23606 0.98773 0.0
C1048 C 0.90552 0.25138 0.9772 0.0
C1049 C 0.92282 0.2074 0.00875 0.0
C1050 C 0.91794 0.22119 0.02086 0.0
C1051 C 0.9128 0.23539 0.01019 0.0
C1052 C 0.9174 0.22106 0.04463 0.0
C1053 C 0.92901 0.19203 0.01938 0.0
C1054 C 0.90688 0.21032 0.0555 0.0
C1055 C 0.90506 0.21138 0.07776 0.0
C1056 C 0.91364 0.22328 0.08952 0.0
C1057 C 0.92448 0.23374 0.07867 0.0
C1058 C 0.9263 0.23267 0.05641 0.0
H1059 H 0.93645 0.18452 0.00817 0.0
H1060 H 0.93652 0.19495 0.03374 0.0
H1061 H 0.91843 0.18454 0.02465 0.0
H1062 H 0.89964 0.2015 0.04667 0.0
H1063 H 0.89656 0.2032 0.08568 0.0
H1064 H 0.79828 0.9067 0.91002 0.0
H1065 H 0.80079 0.90915 0.94917 0.0
H1066 H 0.75017 0.92359 0.95323 0.0
H1067 H 0.7475 0.92093 0.91432 0.0
H1068 H 0.79445 0.93529 0.97886 0.0
H1069 H 0.75305 0.88234 0.99093 0.0
H1070 H 0.76211 0.88708 0.96525 0.0
H1071 H 0.74446 0.89816 0.97445 0.0
C1072 C 0.78775 0.91056 0.91926 0.0
C1073 C 0.77264 0.91344 0.90917 0.0
C1074 C 0.78921 0.91197 0.94158 0.0
C1075 C 0.77558 0.91625 0.95407 0.0
C1076 C 0.76074 0.91996 0.94389 0.0
H1077 H 0.74975 0.92443 0.08707 0.0
H1078 H 0.7521 0.92678 0.04805 0.0
C1079 C 0.75925 0.91849 0.92166 0.0
C1080 C 0.77651 0.91604 0.9778 0.0
H1081 H 0.75966 0.89793 0.02192 0.0
C1082 C 0.78696 0.92706 0.98832 0.0
C1083 C 0.76681 0.90516 0.99004 0.0
C1084 C 0.75609 0.8924 0.97962 0.0
C1085 C 0.78749 0.92787 0.01086 0.0
C1086 C 0.77741 0.91733 0.02301 0.0
C1087 C 0.76725 0.9061 0.01248 0.0
C1088 C 0.77693 0.91776 0.04673 0.0
C1089 C 0.79846 0.94024 0.02158 0.0
C1090 C 0.79021 0.91206 0.05887 0.0
C1091 C 0.78888 0.91062 0.08119 0.0
C1092 C 0.77424 0.91484 0.09164 0.0
C1093 C 0.76118 0.92108 0.07948 0.0
C1094 C 0.7625 0.92245 0.0572 0.0
H1095 H 0.80352 0.94921 0.00995 0.0
H1096 H 0.79167 0.94693 0.03427 0.0
H1097 H 0.80882 0.9338 0.0294 0.0
H1098 H 0.80136 0.90817 0.05101 0.0
H1099 H 0.79912 0.90574 0.09016 0.0
H1100 H 0.06702 0.75499 0.91067 0.0
H1101 H 0.06365 0.75711 0.94961 0.0
H1102 H 0.09853 0.79664 0.95121 0.0
H1103 H 0.10179 0.79475 0.91224 0.0
H1104 H 0.08861 0.75229 0.97863 0.0
H1105 H 0.06181 0.81403 0.98929 0.0
H1106 H 0.06191 0.80358 0.96374 0.0
H1107 H 0.08 0.81381 0.97315 0.0
C1108 C 0.07376 0.76431 0.91927 0.0
C1109 C 0.08468 0.7747 0.90843 0.0
C1110 C 0.07182 0.76551 0.94151 0.0
C1111 C 0.08069 0.77715 0.95327 0.0
C1112 C 0.0913 0.78781 0.9424 0.0
H1113 H 0.10319 0.79383 0.08671 0.0
H1114 H 0.09995 0.79532 0.04765 0.0
C1115 C 0.09323 0.78664 0.92015 0.0
C1116 C 0.08 0.77713 0.97704 0.0
H1117 H 0.07228 0.80108 0.02081 0.0
C1118 C 0.08486 0.76289 0.98786 0.0
C1119 C 0.07521 0.79102 0.98901 0.0
C1120 C 0.06929 0.80644 0.97823 0.0
C1121 C 0.08548 0.76229 0.01035 0.0
C1122 C 0.08082 0.77621 0.02234 0.0
C1123 C 0.07581 0.79042 0.01155 0.0
C1124 C 0.08158 0.77632 0.04609 0.0
C1125 C 0.09164 0.74691 0.02105 0.0
C1126 C 0.07199 0.76547 0.05816 0.0
C1127 C 0.07385 0.76455 0.08042 0.0
C1128 C 0.08527 0.77455 0.091 0.0
C1129 C 0.09434 0.78593 0.07898 0.0
C1130 C 0.09249 0.78681 0.0567 0.0
H1131 H 0.09828 0.73887 0.00962 0.0
H1132 H 0.09993 0.74989 0.03462 0.0
H1133 H 0.0811 0.73994 0.02753 0.0
H1134 H 0.06329 0.75748 0.05029 0.0
H1135 H 0.06661 0.75575 0.08928 0.0
H1136 H 0.19887 0.90993 0.4088 0.0
H1137 H 0.19585 0.9133 0.44769 0.0
H1138 H 0.24648 0.92761 0.4524 0.0
H1139 H 0.24954 0.92446 0.41359 0.0
H1140 H 0.21313 0.89576 0.47792 0.0
H1141 H 0.22385 0.96206 0.48919 0.0
H1142 H 0.21906 0.95324 0.46336 0.0
H1143 H 0.23957 0.95226 0.47373 0.0
C1144 C 0.20928 0.91405 0.41809 0.0
C1145 C 0.22445 0.91693 0.40817 0.0
C1146 C 0.20753 0.91597 0.44029 0.0
C1147 C 0.22087 0.92092 0.45289 0.0
C1148 C 0.23593 0.92414 0.44293 0.0
H1149 H 0.25042 0.92178 0.58437 0.0
H1150 H 0.247 0.9252 0.54561 0.0
C1151 C 0.23769 0.92222 0.42076 0.0
C1152 C 0.21955 0.92126 0.47663 0.0
H1153 H 0.22611 0.94527 0.52065 0.0
C1154 C 0.21571 0.90664 0.48728 0.0
C1155 C 0.22298 0.93546 0.48876 0.0
C1156 C 0.22644 0.95169 0.47818 0.0
C1157 C 0.21591 0.90564 0.50977 0.0
C1158 C 0.21976 0.91975 0.52191 0.0
C1159 C 0.22318 0.93449 0.51128 0.0
C1160 C 0.22125 0.91912 0.5456 0.0
C1161 C 0.21271 0.88932 0.52029 0.0
C1162 C 0.2078 0.91501 0.5585 0.0
C1163 C 0.20973 0.91298 0.58066 0.0
C1164 C 0.22513 0.91515 0.59026 0.0
C1165 C 0.23841 0.91997 0.57742 0.0
C1166 C 0.23648 0.92196 0.55529 0.0
H1167 H 0.21342 0.87907 0.50864 0.0
H1168 H 0.22162 0.88703 0.53342 0.0
H1169 H 0.20026 0.88935 0.52737 0.0
H1170 H 0.19588 0.91306 0.55137 0.0
H1171 H 0.19925 0.90937 0.59017 0.0
H1172 H 0.09796 0.20347 0.58824 0.0
H1173 H 0.09502 0.20194 0.54911 0.0
H1174 H 0.06935 0.24799 0.54926 0.0
H1175 H 0.07238 0.2497 0.58827 0.0
H1176 H 0.06672 0.20319 0.52149 0.0
H1177 H 0.10892 0.25561 0.50923 0.0
H1178 H 0.10734 0.24492 0.5345 0.0
H1179 H 0.09209 0.25966 0.52698 0.0
C1180 C 0.09157 0.21319 0.57994 0.0
C1181 C 0.08554 0.22678 0.59127 0.0
C1182 C 0.08988 0.21229 0.55762 0.0
C1183 C 0.0822 0.22498 0.54632 0.0
C1184 C 0.07556 0.23821 0.55769 0.0
H1185 H 0.07168 0.24938 0.41189 0.0
H1186 H 0.06888 0.24766 0.45092 0.0
C1187 C 0.07726 0.23913 0.57997 0.0
C1188 C 0.08176 0.22477 0.52256 0.0
H1189 H 0.09549 0.24536 0.47846 0.0
C1190 C 0.07301 0.21237 0.51203 0.0
C1191 C 0.09006 0.23675 0.51033 0.0
C1192 C 0.10026 0.24992 0.52077 0.0
C1193 C 0.07208 0.21183 0.4895 0.0
C1194 C 0.08032 0.22387 0.4773 0.0
C1195 C 0.0891 0.23622 0.48788 0.0
C1196 C 0.08031 0.22389 0.45352 0.0
C1197 C 0.06206 0.1986 0.47895 0.0
C1198 C 0.08751 0.211 0.44203 0.0
C1199 C 0.08911 0.21194 0.4197 0.0
C1200 C 0.08365 0.22585 0.40855 0.0
C1201 C 0.07601 0.23851 0.42004 0.0
C1202 C 0.0744 0.23755 0.44232 0.0
H1203 H 0.05324 0.193 0.49035 0.0
H1204 H 0.05522 0.20348 0.46495 0.0
H1205 H 0.07035 0.18882 0.47312 0.0
H1206 H 0.09244 0.20049 0.45039 0.0
H1207 H 0.09511 0.20203 0.41128 0.0
H1208 H 0.79329 0.10154 0.58881 0.0
H1209 H 0.79456 0.09838 0.54973 0.0
H1210 H 0.75415 0.06456 0.55205 0.0
H1211 H 0.75263 0.06783 0.59106 0.0
H1212 H 0.79849 0.07058 0.52291 0.0
H1213 H 0.73817 0.10062 0.51128 0.0
H1214 H 0.74913 0.10146 0.5364 0.0
H1215 H 0.73797 0.08336 0.5291 0.0
C1216 C 0.78476 0.09334 0.58101 0.0
C1217 C 0.77275 0.08506 0.59294 0.0
C1218 C 0.78552 0.09153 0.55871 0.0
C1219 C 0.77428 0.08145 0.54801 0.0
C1220 C 0.76274 0.07263 0.55999 0.0
H1221 H 0.75305 0.06812 0.41225 0.0
H1222 H 0.75469 0.06455 0.45122 0.0
C1223 C 0.76193 0.07447 0.58227 0.0
C1224 C 0.77421 0.08072 0.52426 0.0
H1225 H 0.75103 0.09004 0.48037 0.0
C1226 C 0.78812 0.0748 0.51357 0.0
C1227 C 0.76066 0.08627 0.51217 0.0
C1228 C 0.74568 0.09342 0.52275 0.0
C1229 C 0.78878 0.07418 0.49104 0.0
C1230 C 0.77527 0.07986 0.47898 0.0
C1231 C 0.76132 0.08561 0.48969 0.0
C1232 C 0.77549 0.08061 0.45523 0.0
C1233 C 0.80384 0.06733 0.48035 0.0
C1234 C 0.78671 0.09074 0.44457 0.0
C1235 C 0.7858 0.09281 0.42233 0.0
C1236 C 0.77357 0.08486 0.41039 0.0
C1237 C 0.76261 0.07439 0.42103 0.0
C1238 C 0.76353 0.07234 0.44327 0.0
H1239 H 0.81097 0.05947 0.49148 0.0
H1240 H 0.80055 0.06007 0.46591 0.0
H1241 H 0.81182 0.07756 0.47519 0.0
H1242 H 0.79582 0.09751 0.45355 0.0
H1243 H 0.79437 0.101 0.41459 0.0
H1244 H 0.89706 0.7929 0.58777 0.0
H1245 H 0.90059 0.79432 0.54876 0.0
H1246 H 0.93416 0.75372 0.55134 0.0
H1247 H 0.93051 0.75205 0.59029 0.0
H1248 H 0.92861 0.79806 0.52211 0.0
H1249 H 0.89804 0.73802 0.51035 0.0
H1250 H 0.89719 0.74901 0.53544 0.0
H1251 H 0.91522 0.7377 0.5283 0.0
C1252 C 0.9053 0.78437 0.58005 0.0
C1253 C 0.91338 0.77225 0.59203 0.0
C1254 C 0.90733 0.78522 0.55779 0.0
C1255 C 0.91742 0.77396 0.54717 0.0
C1256 C 0.92608 0.76233 0.55921 0.0
H1257 H 0.93071 0.75228 0.41164 0.0
H1258 H 0.93421 0.75404 0.45059 0.0
C1259 C 0.92403 0.76144 0.58146 0.0
C1260 C 0.91824 0.77389 0.52342 0.0
H1261 H 0.90875 0.75081 0.4795 0.0
C1262 C 0.92431 0.78774 0.51275 0.0
C1263 C 0.91257 0.7604 0.5113 0.0
C1264 C 0.90525 0.74548 0.52186 0.0
C1265 C 0.92497 0.7884 0.49022 0.0
C1266 C 0.91918 0.77495 0.47814 0.0
C1267 C 0.91326 0.76106 0.48883 0.0
C1268 C 0.91852 0.77514 0.45436 0.0
C1269 C 0.93201 0.80339 0.47956 0.0
C1270 C 0.90864 0.7865 0.44357 0.0
C1271 C 0.90661 0.78553 0.42131 0.0
C1272 C 0.91436 0.77309 0.40952 0.0
C1273 C 0.92459 0.76199 0.42029 0.0
C1274 C 0.92661 0.76298 0.44253 0.0
H1275 H 0.93995 0.81042 0.49071 0.0
H1276 H 0.93924 0.80004 0.46512 0.0
H1277 H 0.92186 0.8115 0.47441 0.0
H1278 H 0.90201 0.79576 0.45243 0.0
H1279 H 0.8986 0.7942 0.41345 0.0
H1280 H 0.70069 0.60005 0.58728 0.0
H1281 H 0.69827 0.59688 0.54835 0.0
H1282 H 0.74059 0.56542 0.54814 0.0
H1283 H 0.74293 0.56832 0.58712 0.0
H1284 H 0.72182 0.60661 0.51982 0.0
H1285 H 0.70903 0.5405 0.50951 0.0
H1286 H 0.70668 0.55084 0.53495 0.0
H1287 H 0.72662 0.54466 0.52588 0.0
C1288 C 0.70931 0.59223 0.57899 0.0
C1289 C 0.72201 0.58445 0.59022 0.0
C1290 C 0.70791 0.59043 0.55676 0.0
C1291 C 0.71913 0.58077 0.54538 0.0
C1292 C 0.73158 0.57264 0.55664 0.0
H1293 H 0.74647 0.56995 0.4124 0.0
H1294 H 0.74331 0.5676 0.4514 0.0
C1295 C 0.73296 0.5744 0.5789 0.0
C1296 C 0.71876 0.5805 0.52159 0.0
H1297 H 0.71686 0.55523 0.47799 0.0
C1298 C 0.72055 0.5954 0.51067 0.0
C1299 C 0.71721 0.56583 0.50972 0.0
C1300 C 0.71462 0.54956 0.52059 0.0
C1301 C 0.72122 0.59601 0.4882 0.0
C1302 C 0.71981 0.58135 0.47632 0.0
C1303 C 0.71791 0.56644 0.48719 0.0
C1304 C 0.72074 0.58134 0.4526 0.0
C1305 C 0.72393 0.6123 0.47737 0.0
C1306 C 0.70883 0.58945 0.44036 0.0
C1307 C 0.71062 0.59084 0.41813 0.0
C1308 C 0.72431 0.58408 0.40777 0.0
C1309 C 0.73583 0.57533 0.41995 0.0
C1310 C 0.73403 0.57395 0.4422 0.0
H1311 H 0.72832 0.62175 0.48881 0.0
H1312 H 0.73295 0.61116 0.46412 0.0
H1313 H 0.71222 0.61662 0.47038 0.0
H1314 H 0.69836 0.59502 0.44809 0.0
H1315 H 0.70149 0.59757 0.40914 0.0
H1316 H 0.40547 0.70189 0.40878 0.0
H1317 H 0.40842 0.70005 0.4479 0.0
H1318 H 0.42518 0.75002 0.44982 0.0
H1319 H 0.42197 0.75206 0.41088 0.0
H1320 H 0.43491 0.70522 0.47637 0.0
H1321 H 0.38512 0.75027 0.48918 0.0
H1322 H 0.38887 0.74082 0.46348 0.0
H1323 H 0.40132 0.75764 0.47233 0.0
C1324 C 0.40992 0.71243 0.41754 0.0
C1325 C 0.4133 0.72718 0.40683 0.0
C1326 C 0.41162 0.71135 0.43985 0.0
C1327 C 0.41671 0.725 0.45176 0.0
C1328 C 0.42089 0.73946 0.44096 0.0
H1329 H 0.42469 0.74966 0.58598 0.0
H1330 H 0.42755 0.7481 0.54696 0.0
C1331 C 0.41911 0.74058 0.41871 0.0
C1332 C 0.41692 0.72443 0.47553 0.0
H1333 H 0.40024 0.74236 0.5199 0.0
C1334 C 0.4273 0.71328 0.48593 0.0
C1335 C 0.40688 0.73489 0.48792 0.0
C1336 C 0.3948 0.74648 0.4777 0.0
C1337 C 0.4282 0.71263 0.50846 0.0
C1338 C 0.41836 0.72329 0.52078 0.0
C1339 C 0.40788 0.7343 0.51037 0.0
C1340 C 0.41853 0.7233 0.54455 0.0
C1341 C 0.43989 0.70081 0.51893 0.0
C1342 C 0.4127 0.70979 0.55613 0.0
C1343 C 0.41102 0.71065 0.57846 0.0
C1344 C 0.41508 0.72508 0.58951 0.0
C1345 C 0.42145 0.73838 0.57792 0.0
C1346 C 0.42309 0.73751 0.55564 0.0
H1347 H 0.44909 0.69606 0.50737 0.0
H1348 H 0.44638 0.70672 0.53255 0.0
H1349 H 0.43291 0.69027 0.52539 0.0
H1350 H 0.40885 0.69881 0.54782 0.0
H1351 H 0.40603 0.70023 0.58696 0.0
H1352 H 0.29686 0.39768 0.41132 0.0
H1353 H 0.2999 0.40016 0.45028 0.0
H1354 H 0.256 0.42928 0.45315 0.0
H1355 H 0.25299 0.42707 0.41413 0.0
H1356 H 0.28186 0.44089 0.47975 0.0
H1357 H 0.26993 0.37455 0.49124 0.0
H1358 H 0.28641 0.37925 0.47322 0.0
H1359 H 0.26586 0.38491 0.46622 0.0
C1360 C 0.28793 0.40474 0.42023 0.0
C1361 C 0.2746 0.41205 0.40973 0.0
C1362 C 0.28966 0.40609 0.44247 0.0
C1363 C 0.27802 0.41466 0.45459 0.0
C1364 C 0.26507 0.42255 0.44406 0.0
H1365 H 0.25477 0.42839 0.58848 0.0
H1366 H 0.25741 0.43091 0.54949 0.0
C1367 C 0.26336 0.42125 0.4218 0.0
C1368 C 0.27889 0.41476 0.47833 0.0
H1369 H 0.27664 0.38979 0.52212 0.0
C1370 C 0.28076 0.42974 0.48905 0.0
C1371 C 0.27739 0.40017 0.49037 0.0
C1372 C 0.27464 0.38381 0.47974 0.0
C1373 C 0.28131 0.43049 0.51158 0.0
C1374 C 0.27969 0.41591 0.5236 0.0
C1375 C 0.27797 0.40094 0.51284 0.0
C1376 C 0.2791 0.41583 0.54737 0.0
C1377 C 0.28379 0.44684 0.5223 0.0
C1378 C 0.29035 0.40644 0.55909 0.0
C1379 C 0.28879 0.40488 0.58133 0.0
C1380 C 0.27588 0.41261 0.59222 0.0
C1381 C 0.26488 0.42235 0.58053 0.0
C1382 C 0.26644 0.42389 0.55827 0.0
H1383 H 0.28937 0.45587 0.51117 0.0
H1384 H 0.27176 0.45171 0.52749 0.0
H1385 H 0.29169 0.44567 0.53672 0.0
H1386 H 0.30015 0.40004 0.55094 0.0
H1387 H 0.29745 0.39728 0.58991 0.0
H1388 H 0.59329 0.2973 0.58817 0.0
H1389 H 0.58989 0.29923 0.54917 0.0
H1390 H 0.56932 0.25068 0.54804 0.0
H1391 H 0.57291 0.24857 0.5869 0.0
H1392 H 0.59507 0.25477 0.52003 0.0
H1393 H 0.54999 0.30496 0.51019 0.0
H1394 H 0.56718 0.30995 0.5269 0.0
H1395 H 0.55301 0.29446 0.53539 0.0
C1396 C 0.58779 0.28716 0.57964 0.0
C1397 C 0.58342 0.27276 0.59055 0.0
C1398 C 0.58576 0.28831 0.55738 0.0
C1399 C 0.57919 0.27516 0.54575 0.0
C1400 C 0.57435 0.26099 0.55674 0.0
H1401 H 0.57053 0.24979 0.41112 0.0
H1402 H 0.56741 0.25154 0.45011 0.0
C1403 C 0.57641 0.25981 0.57894 0.0
C1404 C 0.57885 0.27545 0.52197 0.0
H1405 H 0.56346 0.29577 0.4785 0.0
C1406 C 0.58806 0.26366 0.51096 0.0
C1407 C 0.56981 0.28716 0.5102 0.0
C1408 C 0.55931 0.29978 0.52123 0.0
C1409 C 0.58863 0.26334 0.48848 0.0
C1410 C 0.57952 0.27496 0.47669 0.0
C1411 C 0.57037 0.28684 0.48764 0.0
C1412 C 0.57958 0.27492 0.45294 0.0
C1413 C 0.59926 0.25076 0.47754 0.0
C1414 C 0.58685 0.28782 0.44158 0.0
C1415 C 0.5886 0.28689 0.41927 0.0
C1416 C 0.58305 0.27306 0.40803 0.0
C1417 C 0.57503 0.26055 0.41936 0.0
C1418 C 0.57328 0.2615 0.44163 0.0
H1419 H 0.60832 0.24531 0.48876 0.0
H1420 H 0.59144 0.24075 0.47129 0.0
H1421 H 0.60593 0.25624 0.46377 0.0
H1422 H 0.59174 0.29831 0.45006 0.0
H1423 H 0.59478 0.29674 0.41094 0.0
H1424 H 0.69909 0.40706 0.90865 0.0
H1425 H 0.69556 0.41072 0.94742 0.0
H1426 H 0.7454 0.42751 0.95255 0.0
H1427 H 0.74895 0.42409 0.91385 0.0
H1428 H 0.71336 0.39427 0.97803 0.0
H1429 H 0.72095 0.46105 0.9887 0.0
H1430 H 0.71679 0.45186 0.96289 0.0
H1431 H 0.73724 0.45194 0.97355 0.0
C1432 C 0.7092 0.4118 0.918 0.0
C1433 C 0.7243 0.41528 0.90824 0.0
C1434 C 0.70716 0.41388 0.94012 0.0
C1435 C 0.72014 0.4196 0.95282 0.0
C1436 C 0.7351 0.42345 0.943 0.0
H1437 H 0.74957 0.42212 0.08405 0.0
H1438 H 0.74587 0.42534 0.04531 0.0
C1439 C 0.73715 0.42137 0.9209 0.0
C1440 C 0.71864 0.42003 0.97652 0.0
H1441 H 0.72399 0.44455 0.02035 0.0
C1442 C 0.71541 0.40531 0.9873 0.0
C1443 C 0.72137 0.43445 0.98854 0.0
C1444 C 0.72412 0.45075 0.97783 0.0
C1445 C 0.71559 0.40445 0.00979 0.0
C1446 C 0.71879 0.41877 0.02182 0.0
C1447 C 0.72155 0.43359 0.01107 0.0
C1448 C 0.72037 0.4183 0.0455 0.0
C1449 C 0.7131 0.38806 0.02046 0.0
C1450 C 0.70712 0.41371 0.0585 0.0
C1451 C 0.70922 0.4118 0.08064 0.0
C1452 C 0.72457 0.41455 0.09013 0.0
C1453 C 0.73761 0.41985 0.07719 0.0
C1454 C 0.73551 0.42173 0.05507 0.0
H1455 H 0.71417 0.37778 0.00888 0.0
H1456 H 0.72214 0.38619 0.03353 0.0
H1457 H 0.70069 0.38761 0.02764 0.0
H1458 H 0.69526 0.41128 0.05145 0.0
H1459 H 0.69892 0.4078 0.09024 0.0
H1460 H 0.57163 0.74706 0.08821 0.0
H1461 H 0.56875 0.7439 0.04933 0.0
H1462 H 0.5956 0.69858 0.05211 0.0
H1463 H 0.59867 0.70173 0.09099 0.0
H1464 H 0.60783 0.72093 0.02242 0.0
H1465 H 0.54089 0.71318 0.01224 0.0
H1466 H 0.54657 0.73055 0.02823 0.0
H1467 H 0.55105 0.71028 0.03772 0.0
C1468 C 0.57669 0.73629 0.08059 0.0
C1469 C 0.58541 0.72466 0.09263 0.0
C1470 C 0.57495 0.73445 0.05839 0.0
C1471 C 0.58179 0.7209 0.04789 0.0
C1472 C 0.59014 0.70906 0.05995 0.0
H1473 H 0.59821 0.70084 0.9117 0.0
H1474 H 0.59589 0.6981 0.95073 0.0
C1475 C 0.59188 0.71089 0.08215 0.0
C1476 C 0.58156 0.71988 0.02414 0.0
H1477 H 0.55626 0.71895 0.98054 0.0
C1478 C 0.59657 0.7203 0.01324 0.0
C1479 C 0.56684 0.71917 0.01227 0.0
C1480 C 0.55042 0.71812 0.02319 0.0
C1481 C 0.59726 0.72053 0.99075 0.0
C1482 C 0.58254 0.71997 0.97884 0.0
C1483 C 0.56752 0.71934 0.98973 0.0
C1484 C 0.58254 0.7207 0.95507 0.0
C1485 C 0.61373 0.72198 0.97997 0.0
C1486 C 0.57518 0.73394 0.94451 0.0
C1487 C 0.57635 0.73546 0.92221 0.0
C1488 C 0.58489 0.72374 0.91011 0.0
C1489 C 0.59167 0.71013 0.92063 0.0
C1490 C 0.59042 0.70859 0.94292 0.0
H1491 H 0.62333 0.72624 0.99129 0.0
H1492 H 0.61746 0.70983 0.97376 0.0
H1493 H 0.61319 0.73061 0.96622 0.0
H1494 H 0.56898 0.74338 0.95359 0.0
H1495 H 0.57096 0.74605 0.91453 0.0
H1496 H 0.29453 0.59792 0.0884 0.0
H1497 H 0.29618 0.59494 0.04928 0.0
H1498 H 0.25163 0.56675 0.04964 0.0
H1499 H 0.24981 0.56975 0.08866 0.0
H1500 H 0.29596 0.56611 0.02139 0.0
H1501 H 0.24212 0.60673 0.01023 0.0
H1502 H 0.25324 0.60558 0.03522 0.0
H1503 H 0.23901 0.58975 0.02808 0.0
C1504 C 0.28518 0.59094 0.08016 0.0
C1505 C 0.27195 0.5842 0.09154 0.0
C1506 C 0.28617 0.58923 0.05785 0.0
C1507 C 0.27391 0.58083 0.04661 0.0
C1508 C 0.26109 0.57347 0.05803 0.0
H1509 H 0.24901 0.57164 0.91218 0.0
H1510 H 0.25092 0.56838 0.95112 0.0
C1511 C 0.2601 0.57516 0.08031 0.0
C1512 C 0.27399 0.58055 0.02286 0.0
H1513 H 0.25288 0.59422 0.97918 0.0
C1514 C 0.28657 0.57224 0.0121 0.0
C1515 C 0.26174 0.58863 0.01087 0.0
C1516 C 0.24832 0.59831 0.02162 0.0
C1517 C 0.28704 0.57155 0.98955 0.0
C1518 C 0.27476 0.57963 0.97758 0.0
C1519 C 0.26222 0.58795 0.9884 0.0
C1520 C 0.27465 0.5799 0.95379 0.0
C1521 C 0.30047 0.56196 0.97876 0.0
C1522 C 0.28745 0.58731 0.94234 0.0
C1523 C 0.28641 0.58915 0.92005 0.0
C1524 C 0.27248 0.58375 0.9089 0.0
C1525 C 0.2599 0.57594 0.92033 0.0
C1526 C 0.26097 0.57406 0.94257 0.0
H1527 H 0.30616 0.55301 0.98992 0.0
H1528 H 0.29576 0.5553 0.96451 0.0
H1529 H 0.31015 0.5705 0.9733 0.0
H1530 H 0.29797 0.59221 0.95072 0.0
H1531 H 0.29626 0.59528 0.91167 0.0
H1532 H 0.39613 0.29539 0.91225 0.0
H1533 H 0.39954 0.29739 0.9512 0.0
H1534 H 0.4373 0.26063 0.94889 0.0
H1535 H 0.43384 0.25843 0.90997 0.0
H1536 H 0.41239 0.25384 0.97792 0.0
H1537 H 0.43549 0.31703 0.98923 0.0
H1538 H 0.41744 0.31568 0.97289 0.0
H1539 H 0.4362 0.30665 0.96364 0.0
C1540 C 0.40534 0.28793 0.92 0.0
C1541 C 0.41469 0.27672 0.9081 0.0
C1542 C 0.40735 0.28917 0.94223 0.0
C1543 C 0.41881 0.27929 0.95288 0.0
C1544 C 0.42846 0.26842 0.94093 0.0
H1545 H 0.43319 0.25779 0.08898 0.0
H1546 H 0.43687 0.25979 0.05005 0.0
C1547 C 0.42647 0.26718 0.91872 0.0
C1548 C 0.41958 0.27914 0.97662 0.0
H1549 H 0.42597 0.30322 0.02061 0.0
C1550 C 0.41555 0.26458 0.98727 0.0
C1551 C 0.4236 0.2932 0.98872 0.0
C1552 C 0.42857 0.309 0.97807 0.0
C1553 C 0.41495 0.2638 0.00974 0.0
C1554 C 0.41882 0.2779 0.02188 0.0
C1555 C 0.42305 0.29243 0.01124 0.0
C1556 C 0.41787 0.27789 0.04561 0.0
C1557 C 0.40959 0.24805 0.02026 0.0
C1558 C 0.40646 0.28791 0.05607 0.0
C1559 C 0.40442 0.28689 0.0783 0.0
C1560 C 0.4138 0.27584 0.09042 0.0
C1561 C 0.42571 0.26632 0.08002 0.0
C1562 C 0.42777 0.26739 0.0578 0.0
H1563 H 0.4034 0.23975 0.00872 0.0
H1564 H 0.42047 0.2416 0.02668 0.0
H1565 H 0.40114 0.2505 0.03383 0.0
H1566 H 0.39875 0.29614 0.04693 0.0
H1567 H 0.39519 0.29442 0.08589 0.0
H1568 H 0.2597 0.05865 0.20091 0.0
H1569 H 0.26002 0.03537 0.22556 0.0
H1570 H 0.2115 0.02193 0.20499 0.0
H1571 H 0.21109 0.04519 0.18018 0.0
H1572 H 0.23693 0.03015 0.25949 0.0
H1573 H 0.23838 0.97889 0.20088 0.0
H1574 H 0.24388 -0.00043 0.1937 0.0
H1575 H 0.22275 0.99398 0.19646 0.0
C1576 C 0.24917 0.05063 0.20144 0.0
C1577 C 0.23538 0.05371 0.1886 0.0
C1578 C 0.24936 0.03738 0.21556 0.0
C1579 C 0.23583 0.02691 0.21697 0.0
C1580 C 0.22214 0.02976 0.20391 0.0
H1581 H 0.21186 0.95825 0.31875 0.0
H1582 H 0.21243 0.98147 0.2939 0.0
C1583 C 0.22192 0.04306 0.1898 0.0
C1584 C 0.23581 0.01345 0.23281 0.0
H1585 H 0.23485 0.9719 0.2375 0.0
C1586 C 0.23649 0.01741 0.25472 0.0
C1587 C 0.23536 0.99687 0.22646 0.0
C1588 C 0.23518 0.99198 0.2031 0.0
C1589 C 0.23659 0.00518 0.27052 0.0
C1590 C 0.23585 0.98861 0.26418 0.0
C1591 C 0.23532 0.98465 0.24226 0.0
C1592 C 0.23584 0.97515 0.28002 0.0
C1593 C 0.23773 0.01004 0.29384 0.0
C1594 C 0.2488 0.96393 0.28038 0.0
C1595 C 0.24852 0.9507 0.29453 0.0
C1596 C 0.23519 0.94839 0.30845 0.0
C1597 C 0.22232 0.95977 0.30829 0.0
C1598 C 0.22265 0.97305 0.29415 0.0
H1599 H 0.24176 0.02293 0.29578 0.0
H1600 H 0.22553 0.00874 0.30143 0.0
H1601 H 0.24639 0.00197 0.30258 0.0
H1602 H 0.25907 0.96535 0.26955 0.0
H1603 H 0.25859 0.9421 0.29424 0.0
H1604 H 0.947 0.25937 0.19195 0.0
H1605 H 0.9705 0.26001 0.21635 0.0
H1606 H 0.9718 0.20729 0.21663 0.0
H1607 H 0.94862 0.20656 0.1919 0.0
H1608 H 0.97231 0.24749 0.25686 0.0
H1609 H 0.01916 0.21838 0.20515 0.0
H1610 H -2e-05 0.22584 0.19469 0.0
H1611 H 0.00098 0.20628 0.20784 0.0
C1612 C 0.95245 0.24793 0.197 0.0
C1613 C 0.94605 0.23292 0.18995 0.0
C1614 C 0.96583 0.24831 0.21096 0.0
C1615 C 0.97303 0.2337 0.21806 0.0
C1616 C 0.96669 0.21871 0.21095 0.0
H1617 H 0.04739 0.2079 0.31104 0.0
H1618 H 0.024 0.20827 0.28644 0.0
C1619 C 0.95339 0.21832 0.1969 0.0
C1620 C 0.98664 0.23411 0.23376 0.0
H1621 H 0.02575 0.22104 0.24229 0.0
C1622 C 0.98404 0.24182 0.25362 0.0
C1623 C 0.00193 0.22669 0.22949 0.0
C1624 C 0.00577 0.21897 0.20806 0.0
C1625 C 0.99622 0.24202 0.26949 0.0
C1626 C 0.01137 0.2344 0.26531 0.0
C1627 C 0.01403 0.22676 0.24545 0.0
C1628 C 0.02478 0.2344 0.28121 0.0
C1629 C 0.99271 0.2501 0.29077 0.0
C1630 C 0.03285 0.24899 0.28642 0.0
C1631 C 0.04622 0.24882 0.30037 0.0
C1632 C 0.05172 0.23404 0.30934 0.0
C1633 C 0.04338 0.21948 0.30444 0.0
C1634 C 0.03007 0.21965 0.29037 0.0
H1635 H 0.97946 0.25253 0.29302 0.0
H1636 H 0.99711 0.24236 0.30424 0.0
H1637 H -0.00069 0.26194 0.29157 0.0
H1638 H 0.02905 0.26045 0.27927 0.0
H1639 H 0.05244 0.26021 0.3038 0.0
H1640 H 0.78806 0.04565 0.31629 0.0
H1641 H 0.78756 0.02262 0.29119 0.0
H1642 H 0.73872 0.03584 0.27171 0.0
H1643 H 0.73916 0.05898 0.29664 0.0
H1644 H 0.76541 0.99602 0.28877 0.0
H1645 H 0.76467 0.03401 0.21479 0.0
H1646 H 0.77002 0.04219 0.24079 0.0
H1647 H 0.74896 0.03874 0.23398 0.0
C1648 C 0.77719 0.04361 0.30672 0.0
C1649 C 0.76367 0.05414 0.30834 0.0
C1650 C 0.77693 0.03047 0.2924 0.0
C1651 C 0.76321 0.02772 0.27939 0.0
C1652 C 0.74954 0.03796 0.28134 0.0
H1653 H 0.74049 0.94038 0.2064 0.0
H1654 H 0.74003 0.96393 0.23061 0.0
C1655 C 0.74977 0.0511 0.29568 0.0
C1656 C 0.76322 0.01408 0.2638 0.0
H1657 H 0.76136 0.00542 0.21021 0.0
C1658 C 0.76453 0.99805 0.27159 0.0
C1659 C 0.76227 0.01684 0.24141 0.0
C1660 C 0.76155 0.03387 0.23215 0.0
C1661 C 0.76468 0.98464 0.25757 0.0
C1662 C 0.76332 0.98737 0.23522 0.0
C1663 C 0.76225 0.00341 0.22739 0.0
C1664 C 0.76318 0.97368 0.21974 0.0
C1665 C 0.76654 0.96765 0.26672 0.0
C1666 C 0.77612 0.97169 0.20519 0.0
C1667 C 0.77641 0.95827 0.19131 0.0
C1668 C 0.7637 0.94672 0.19169 0.0
C1669 C 0.75049 0.94905 0.2058 0.0
C1670 C 0.75024 0.96244 0.21971 0.0
H1671 H 0.77102 0.9679 0.28356 0.0
H1672 H 0.75449 0.96143 0.26653 0.0
H1673 H 0.77514 0.96029 0.25688 0.0
H1674 H 0.78617 0.98032 0.20494 0.0
H1675 H 0.78672 0.95679 0.18056 0.0
H1676 H 0.05966 0.74002 0.20651 0.0
H1677 H 0.03611 0.73913 0.23073 0.0
H1678 H 0.01977 0.78574 0.20649 0.0
H1679 H 0.04326 0.78669 0.18212 0.0
H1680 H 0.02847 0.76278 0.26289 0.0
H1681 H 0.97881 0.75601 0.20262 0.0
H1682 H -2e-05 0.7518 0.19649 0.0
H1683 H 0.99281 0.77253 0.19771 0.0
C1684 C 0.05097 0.75 0.20618 0.0
C1685 C 0.05326 0.76341 0.19239 0.0
C1686 C 0.03756 0.74949 0.22005 0.0
C1687 C 0.02616 0.7623 0.22023 0.0
C1688 C 0.02832 0.77562 0.20634 0.0
H1689 H 0.9547 0.787 0.31787 0.0
H1690 H 0.97829 0.78629 0.29364 0.0
C1691 C 0.04176 0.77617 0.1925 0.0
C1692 C 0.01236 0.76199 0.23556 0.0
H1693 H 0.97072 0.761 0.23861 0.0
C1694 C 0.01583 0.76235 0.25762 0.0
C1695 C 0.99594 0.76127 0.22857 0.0
C1696 C 0.99159 0.76024 0.20507 0.0
C1697 C 0.00325 0.76226 0.27294 0.0
C1698 C 0.98682 0.76195 0.26594 0.0
C1699 C 0.98335 0.76134 0.24388 0.0
C1700 C 0.97299 0.76215 0.28124 0.0
C1701 C 0.00763 0.76229 0.29648 0.0
C1702 C 0.96218 0.74886 0.28213 0.0
C1703 C 0.94872 0.74923 0.29591 0.0
C1704 C 0.94578 0.76297 0.30891 0.0
C1705 C 0.95671 0.77622 0.30811 0.0
C1706 C 0.9702 0.77581 0.29435 0.0
H1707 H 0.02058 0.75874 0.29917 0.0
H1708 H 0.00585 0.77477 0.30305 0.0
H1709 H -0.00039 0.75381 0.30559 0.0
H1710 H 0.96412 0.73823 0.27206 0.0
H1711 H 0.94048 0.73887 0.29613 0.0
H1712 H 0.74508 0.93178 0.78374 0.0
H1713 H 0.74412 0.95547 0.75988 0.0
H1714 H 0.77082 0.98389 0.80654 0.0
H1715 H 0.7723 0.96003 0.83023 0.0
H1716 H 0.73151 0.98561 0.76376 0.0
H1717 H 0.79876 0.9896 0.75377 0.0
H1718 H 0.78896 0.9724 0.76652 0.0
H1719 H 0.79236 0.99103 0.78125 0.0
C1720 C 0.7507 0.9431 0.78896 0.0
C1721 C 0.7589 0.94404 0.80874 0.0
C1722 C 0.75013 0.95662 0.77531 0.0
C1723 C 0.75769 0.97134 0.78124 0.0
C1724 C 0.76529 0.97252 0.8014 0.0
H1725 H 0.7434 0.06483 0.71756 0.0
H1726 H 0.74184 0.04123 0.74154 0.0
C1727 C 0.76603 0.95893 0.81497 0.0
C1728 C 0.75778 0.98533 0.76611 0.0
H1729 H 0.78312 0.01131 0.73911 0.0
C1730 C 0.74279 0.99122 0.75831 0.0
C1731 C 0.77253 0.99242 0.75872 0.0
C1732 C 0.78907 0.98594 0.76531 0.0
C1733 C 0.74212 0.00413 0.7435 0.0
C1734 C 0.75685 0.01163 0.73676 0.0
C1735 C 0.77184 0.00563 0.74441 0.0
C1736 C 0.75709 0.02569 0.72175 0.0
C1737 C 0.72568 0.00933 0.73487 0.0
C1738 C 0.76645 0.02494 0.70287 0.0
C1739 C 0.76759 0.03851 0.68934 0.0
C1740 C 0.75933 0.05305 0.69442 0.0
C1741 C 0.74976 0.05372 0.71314 0.0
C1742 C 0.74878 0.04021 0.72679 0.0
H1743 H 0.71649 -0.00061 0.73634 0.0
H1744 H 0.72118 0.01994 0.74426 0.0
H1745 H 0.72652 0.013 0.71774 0.0
H1746 H 0.77301 0.01388 0.69871 0.0
H1747 H 0.77506 0.03766 0.67502 0.0
H1748 H 0.9461 0.73777 0.69474 0.0
H1749 H 0.96949 0.73773 0.71935 0.0
H1750 H 0.9719 0.79032 0.71576 0.0
H1751 H 0.94855 0.79049 0.69117 0.0
H1752 H 0.0022 0.75224 0.71324 0.0
H1753 H 0.96718 0.77905 0.78124 0.0
H1754 H 0.95735 0.76957 0.75844 0.0
H1755 H 0.9658 0.78975 0.75608 0.0
C1756 C 0.9517 0.74931 0.69907 0.0
C1757 C 0.94547 0.76414 0.69113 0.0
C1758 C 0.96503 0.74926 0.71311 0.0
C1759 C 0.97221 0.76403 0.71955 0.0
C1760 C 0.96633 0.77882 0.71117 0.0
H1761 H 0.04899 0.79109 0.80814 0.0
H1762 H 0.02585 0.7904 0.78324 0.0
C1763 C 0.95306 0.77888 0.69706 0.0
C1764 C 0.98572 0.764 0.73529 0.0
H1765 H 0.99561 0.77553 0.78632 0.0
C1766 C 0.00079 0.75726 0.72926 0.0
C1767 C 0.98376 0.77061 0.7561 0.0
C1768 C 0.96763 0.77756 0.76351 0.0
C1769 C 0.01414 0.75725 0.74342 0.0
C1770 C 0.01217 0.7638 0.7643 0.0
C1771 C 0.99706 0.7705 0.77032 0.0
C1772 C 0.02574 0.76405 0.78004 0.0
C1773 C 0.03032 0.75062 0.73569 0.0
C1774 C 0.03305 0.74944 0.7869 0.0
C1775 C 0.0463 0.7498 0.80105 0.0
C1776 C 0.05233 0.76478 0.80874 0.0
C1777 C 0.04461 0.77936 0.80245 0.0
C1778 C 0.03141 0.77899 0.78823 0.0
H1779 H 0.03093 0.75014 0.71788 0.0
H1780 H 0.04064 0.75819 0.74166 0.0
H1781 H 0.03195 0.738 0.74186 0.0
H1782 H 0.02859 0.73776 0.78118 0.0
H1783 H 0.05194 0.73837 0.80574 0.0
H1784 H 0.25435 0.93311 0.71387 0.0
H1785 H 0.25485 0.95617 0.73876 0.0
H1786 H 0.22238 0.98303 0.69706 0.0
H1787 H 0.22126 0.95965 0.67253 0.0
H1788 H 0.26479 0.98645 0.73532 0.0
H1789 H 0.1984 0.9869 0.75271 0.0
H1790 H 0.20807 0.97059 0.73794 0.0
H1791 H 0.20258 0.98936 0.72463 0.0
C1792 C 0.24732 0.94394 0.71 0.0
C1793 C 0.23766 0.94457 0.69137 0.0
C1794 C 0.24762 0.95711 0.72424 0.0
C1795 C 0.23837 0.97121 0.72004 0.0
C1796 C 0.2292 0.97209 0.70099 0.0
H1797 H 0.25363 0.06502 0.78127 0.0
H1798 H 0.25409 0.04112 0.75784 0.0
C1799 C 0.22869 0.9588 0.68689 0.0
C1800 C 0.23848 0.98497 0.73557 0.0
H1801 H 0.21366 0.00986 0.7651 0.0
C1802 C 0.25361 0.99151 0.74193 0.0
C1803 C 0.22392 0.99135 0.74456 0.0
C1804 C 0.20735 0.98407 0.7398 0.0
C1805 C 0.25456 0.00441 0.75672 0.0
C1806 C 0.23996 0.01137 0.76479 0.0
C1807 C 0.22485 0.00464 0.75874 0.0
C1808 C 0.24001 0.02576 0.77931 0.0
C1809 C 0.27124 0.01018 0.76383 0.0
C1810 C 0.2315 0.02529 0.7989 0.0
C1811 C 0.23091 0.0391 0.81212 0.0
C1812 C 0.23893 0.05355 0.80603 0.0
C1813 C 0.24752 0.05397 0.78651 0.0
C1814 C 0.24789 0.04027 0.77316 0.0
H1815 H 0.28054 0.00037 0.76208 0.0
H1816 H 0.27511 0.02058 0.75359 0.0
H1817 H 0.27112 0.01428 0.78082 0.0
H1818 H 0.22525 0.01426 0.80393 0.0
H1819 H 0.22417 0.03847 0.82707 0.0
H1820 H 0.92763 0.24725 0.77564 0.0
H1821 H 0.95043 0.24752 0.75022 0.0
H1822 H 0.98225 0.22777 0.79901 0.0
H1823 H 0.95936 0.22694 0.82428 0.0
H1824 H 0.9792 0.26282 0.7502 0.0
H1825 H 0.98963 0.19595 0.75079 0.0
H1826 H 0.97184 0.2052 0.76284 0.0
H1827 H 0.99097 0.20468 0.77714 0.0
C1828 C 0.9395 0.24299 0.78094 0.0
C1829 C 0.94171 0.23695 0.80186 0.0
C1830 C 0.9525 0.24314 0.76641 0.0
C1831 C 0.96795 0.23733 0.77257 0.0
C1832 C 0.97032 0.23186 0.79371 0.0
H1833 H 0.06029 0.256 0.71036 0.0
H1834 H 0.03552 0.25676 0.73221 0.0
C1835 C 0.95727 0.23152 0.80818 0.0
C1836 C 0.9816 0.2371 0.7569 0.0
H1837 H 0.01043 0.21224 0.73451 0.0
C1838 C 0.98596 0.25174 0.74664 0.0
C1839 C 0.99018 0.22256 0.75191 0.0
C1840 C 0.98531 0.20618 0.76107 0.0
C1841 C 0.99898 0.25234 0.73199 0.0
C1842 C 0.00817 0.238 0.72797 0.0
C1843 C 0.00351 0.22327 0.73777 0.0
C1844 C 0.0229 0.23802 0.71409 0.0
C1845 C 0.00259 0.2683 0.72077 0.0
C1846 C 0.02423 0.22693 0.69695 0.0
C1847 C 0.03853 0.22626 0.68468 0.0
C1848 C 0.05169 0.23671 0.6893 0.0
C1849 C 0.05027 0.24791 0.7063 0.0
C1850 C 0.03607 0.24844 0.7187 0.0
H1851 H 0.99155 0.2762 0.72 0.0
H1852 H 0.0121 0.27502 0.72989 0.0
H1853 H 0.00712 0.26624 0.70418 0.0
H1854 H 0.01425 0.21871 0.69319 0.0
H1855 H 0.0393 0.21749 0.67168 0.0
H1856 H 0.70658 0.55191 0.6966 0.0
H1857 H 0.70784 0.52891 0.72159 0.0
H1858 H 0.76025 0.52702 0.71423 0.0
H1859 H 0.75912 0.55033 0.68958 0.0
H1860 H 0.71906 0.49775 0.7162 0.0
H1861 H 0.75522 0.52965 0.77898 0.0
H1862 H 0.74585 0.54034 0.75681 0.0
H1863 H 0.76474 0.52945 0.75301 0.0
C1864 C 0.71837 0.54658 0.70026 0.0
C1865 C 0.73277 0.55297 0.69126 0.0
C1866 C 0.71907 0.53344 0.71455 0.0
C1867 C 0.73416 0.52647 0.72009 0.0
C1868 C 0.74852 0.5325 0.7106 0.0
H1869 H 0.76019 0.44391 0.80071 0.0
H1870 H 0.7603 0.46728 0.77611 0.0
C1871 C 0.74784 0.54572 0.69639 0.0
C1872 C 0.73476 0.51281 0.73569 0.0
H1873 H 0.75038 0.50133 0.78429 0.0
C1874 C 0.72587 0.49855 0.73111 0.0
C1875 C 0.74364 0.51391 0.75515 0.0
C1876 C 0.75278 0.52921 0.76143 0.0
C1877 C 0.72574 0.48529 0.74538 0.0
C1878 C 0.73461 0.48641 0.7648 0.0
C1879 C 0.7436 0.50058 0.76935 0.0
C1880 C 0.73469 0.47291 0.78056 0.0
C1881 C 0.7163 0.47009 0.73948 0.0
C1882 C 0.72033 0.46865 0.79154 0.0
C1883 C 0.72024 0.45537 0.80566 0.0
C1884 C 0.73452 0.44616 0.80898 0.0
C1885 C 0.749 0.45076 0.79842 0.0
C1886 C 0.74909 0.46409 0.78439 0.0
H1887 H 0.71297 0.46988 0.72219 0.0
H1888 H 0.72351 0.45894 0.74325 0.0
H1889 H 0.70485 0.46963 0.74903 0.0
H1890 H 0.70915 0.47548 0.78898 0.0
H1891 H 0.70892 0.45212 0.81361 0.0
H1892 H 0.54173 0.71212 0.81905 0.0
H1893 H 0.51874 0.71242 0.79383 0.0
H1894 H 0.53514 0.75876 0.76881 0.0
H1895 H 0.5582 0.75852 0.79386 0.0
H1896 H 0.49356 0.73628 0.7881 0.0
H1897 H 0.5322 0.7286 0.71539 0.0
H1898 H 0.53966 0.72458 0.74216 0.0
H1899 H 0.53795 0.74524 0.73266 0.0
C1900 C 0.54038 0.72242 0.80826 0.0
C1901 C 0.55179 0.73526 0.80833 0.0
C1902 C 0.52726 0.72256 0.79388 0.0
C1903 C 0.52543 0.73548 0.77927 0.0
C1904 C 0.53653 0.74855 0.77972 0.0
H1905 H 0.44041 0.75868 0.70186 0.0
H1906 H 0.46361 0.75924 0.72664 0.0
C1907 C 0.54962 0.74843 0.79412 0.0
C1908 C 0.51196 0.73523 0.76344 0.0
H1909 H 0.50399 0.73367 0.70966 0.0
C1910 C 0.49581 0.7357 0.77095 0.0
C1911 C 0.51499 0.73425 0.74112 0.0
C1912 C 0.53212 0.73299 0.73227 0.0
C1913 C 0.48255 0.73549 0.75665 0.0
C1914 C 0.48559 0.73497 0.7343 0.0
C1915 C 0.50174 0.73423 0.72681 0.0
C1916 C 0.47211 0.73498 0.71848 0.0
C1917 C 0.46539 0.73558 0.76557 0.0
C1918 C 0.46958 0.72136 0.70519 0.0
C1919 C 0.45638 0.72103 0.69094 0.0
C1920 C 0.44558 0.73436 0.6897 0.0
C1921 C 0.44848 0.74819 0.70253 0.0
C1922 C 0.46166 0.74851 0.71678 0.0
H1923 H 0.46514 0.73216 0.78284 0.0
H1924 H 0.46019 0.74805 0.76401 0.0
H1925 H 0.45742 0.72702 0.75652 0.0
H1926 H 0.4776 0.71085 0.70621 0.0
H1927 H 0.45445 0.71022 0.68122 0.0
H1928 H 0.23843 0.44518 0.69652 0.0
H1929 H 0.23773 0.4687 0.72084 0.0
H1930 H 0.29014 0.47329 0.71588 0.0
H1931 H 0.29088 0.4501 0.69118 0.0
H1932 H 0.25229 0.47136 0.75992 0.0
H1933 H 0.27561 0.51983 0.7058 0.0
H1934 H 0.26881 0.50021 0.696 0.0
H1935 H 0.28895 0.50246 0.70726 0.0
C1936 C 0.24977 0.45137 0.70038 0.0
C1937 C 0.2647 0.44588 0.69188 0.0
C1938 C 0.24935 0.46476 0.7143 0.0
C1939 C 0.26385 0.47288 0.71994 0.0
C1940 C 0.27876 0.46747 0.71134 0.0
H1941 H 0.2906 0.54836 0.81068 0.0
H1942 H 0.29008 0.52487 0.78627 0.0
C1943 C 0.27917 0.45416 0.69731 0.0
C1944 C 0.26351 0.48645 0.73568 0.0
H1945 H 0.27477 0.52623 0.74317 0.0
C1946 C 0.25707 0.4834 0.75621 0.0
C1947 C 0.26977 0.50214 0.73079 0.0
C1948 C 0.27603 0.50643 0.7087 0.0
C1949 C 0.25706 0.49554 0.77213 0.0
C1950 C 0.26357 0.5111 0.76731 0.0
C1951 C 0.26991 0.5142 0.74679 0.0
C1952 C 0.26374 0.52446 0.78326 0.0
C1953 C 0.25037 0.4916 0.7941 0.0
C1954 C 0.24908 0.53187 0.78968 0.0
C1955 C 0.24933 0.5453 0.80352 0.0
C1956 C 0.26427 0.55151 0.81116 0.0
C1957 C 0.27891 0.54379 0.80511 0.0
C1958 C 0.27865 0.53043 0.79115 0.0
H1959 H 0.24864 0.47825 0.79644 0.0
H1960 H 0.25867 0.49628 0.80681 0.0
H1961 H 0.23835 0.49769 0.79614 0.0
H1962 H 0.23747 0.52753 0.78352 0.0
H1963 H 0.23786 0.55104 0.80786 0.0
H1964 H 0.43398 0.24075 0.7859 0.0
H1965 H 0.45693 0.2385 0.76077 0.0
H1966 H 0.48171 0.27775 0.79363 0.0
H1967 H 0.45894 0.27997 0.81889 0.0
H1968 H 0.46878 0.26305 0.73334 0.0
H1969 H 0.5167 0.2419 0.7899 0.0
H1970 H 0.49517 0.24107 0.79623 0.0
H1971 H 0.50621 0.25999 0.79866 0.0
C1972 C 0.4444 0.24878 0.78789 0.0
C1973 C 0.44472 0.2605 0.8044 0.0
C1974 C 0.45746 0.2475 0.77351 0.0
C1975 C 0.47107 0.25783 0.77552 0.0
C1976 C 0.47145 0.26947 0.79206 0.0
H1977 H 0.54426 0.2864 0.68333 0.0
H1978 H 0.52014 0.2842 0.70641 0.0
C1979 C 0.45841 0.27076 0.80642 0.0
C1980 C 0.4846 0.25695 0.7598 0.0
H1981 H 0.5258 0.2513 0.75568 0.0
C1982 C 0.48123 0.26034 0.73816 0.0
C1983 C 0.50078 0.25323 0.76612 0.0
C1984 C 0.50495 0.24869 0.78896 0.0
C1985 C 0.49374 0.2606 0.72273 0.0
C1986 C 0.51003 0.25761 0.72924 0.0
C1987 C 0.51331 0.25373 0.75077 0.0
C1988 C 0.52394 0.25867 0.71412 0.0
C1989 C 0.4894 0.26399 0.69961 0.0
C1990 C 0.53415 0.2451 0.71098 0.0
C1991 C 0.54798 0.24636 0.69794 0.0
C1992 C 0.55188 0.26125 0.6879 0.0
C1993 C 0.5415 0.27475 0.69077 0.0
C1994 C 0.52767 0.27349 0.70385 0.0
H1995 H 0.47628 0.26148 0.69634 0.0
H1996 H 0.49173 0.27707 0.69603 0.0
H1997 H 0.49696 0.25649 0.68854 0.0
H1998 H 0.53151 0.23358 0.71884 0.0
H1999 H 0.55577 0.23575 0.69604 0.0
H2000 H 0.28528 0.54321 0.1831 0.0
H2001 H 0.28408 0.51952 0.20711 0.0
H2002 H 0.23562 0.53362 0.22714 0.0
H2003 H 0.23677 0.55739 0.20335 0.0
H2004 H 0.25701 0.5271 0.26121 0.0
H2005 H 0.2575 0.47707 0.20095 0.0
H2006 H 0.27368 0.49174 0.19787 0.0
H2007 H 0.25282 0.49799 0.19403 0.0
C2008 C 0.2743 0.54115 0.19244 0.0
C2009 C 0.26111 0.55212 0.19134 0.0
C2010 C 0.27361 0.52759 0.20607 0.0
C2011 C 0.25969 0.52475 0.21871 0.0
C2012 C 0.24644 0.53558 0.21745 0.0
H2013 H 0.23865 0.43711 0.2925 0.0
H2014 H 0.23738 0.46054 0.2681 0.0
C2015 C 0.24711 0.54912 0.20383 0.0
C2016 C 0.25925 0.51095 0.23405 0.0
H2017 H 0.26115 0.46936 0.23745 0.0
C2018 C 0.25784 0.51447 0.25604 0.0
C2019 C 0.26017 0.49451 0.22719 0.0
C2020 C 0.26098 0.49003 0.20372 0.0
C2021 C 0.25763 0.50194 0.27142 0.0
C2022 C 0.25907 0.48553 0.26461 0.0
C2023 C 0.26017 0.48199 0.2426 0.0
C2024 C 0.25951 0.4718 0.28006 0.0
C2025 C 0.25569 0.50637 0.29481 0.0
C2026 C 0.27238 0.47042 0.29485 0.0
C2027 C 0.27313 0.45707 0.30882 0.0
C2028 C 0.26106 0.44486 0.30814 0.0
C2029 C 0.2481 0.44636 0.29344 0.0
C2030 C 0.24737 0.4597 0.27947 0.0
H2031 H 0.25066 0.51889 0.29685 0.0
H2032 H 0.24753 0.49756 0.30312 0.0
H2033 H 0.26783 0.50595 0.30274 0.0
H2034 H 0.28202 0.4795 0.2953 0.0
H2035 H 0.28331 0.45618 0.31988 0.0
H2036 H 0.54877 0.29062 0.30861 0.0
H2037 H 0.52533 0.28989 0.28415 0.0
H2038 H 0.52812 0.23728 0.28197 0.0
H2039 H 0.55159 0.23788 0.3064 0.0
H2040 H 0.52649 0.27457 0.24131 0.0
H2041 H 0.47891 0.2482 0.29502 0.0
H2042 H 0.49701 0.25822 0.30522 0.0
H2043 H 0.49836 0.23792 0.29444 0.0
C2044 C 0.54427 0.27889 0.30313 0.0
C2045 C 0.55199 0.2643 0.30941 0.0
C2046 C 0.53092 0.2785 0.28915 0.0
C2047 C 0.52499 0.26353 0.28142 0.0
C2048 C 0.53244 0.24893 0.28799 0.0
H2049 H 0.44515 0.23879 0.19494 0.0
H2050 H 0.46876 0.23777 0.21912 0.0
C2051 C 0.54585 0.24931 0.30188 0.0
C2052 C 0.51155 0.26326 0.26558 0.0
H2053 H 0.47175 0.252 0.25863 0.0
C2054 C 0.51449 0.26967 0.24506 0.0
C2055 C 0.49603 0.2567 0.27055 0.0
C2056 C 0.49225 0.24995 0.29253 0.0
C2057 C 0.50229 0.26963 0.22923 0.0
C2058 C 0.48664 0.26336 0.2343 0.0
C2059 C 0.48376 0.25679 0.25479 0.0
C2060 C 0.47292 0.2639 0.21879 0.0
C2061 C 0.50639 0.27601 0.20714 0.0
C2062 C 0.46744 0.27892 0.21063 0.0
C2063 C 0.45407 0.27952 0.19671 0.0
C2064 C 0.4458 0.26512 0.19094 0.0
C2065 C 0.45132 0.25008 0.19906 0.0
C2066 C 0.46477 0.24948 0.2129 0.0
H2067 H 0.51976 0.27562 0.20404 0.0
H2068 H 0.50006 0.26887 0.19446 0.0
H2069 H 0.5024 0.28894 0.20589 0.0
H2070 H 0.4733 0.29024 0.21536 0.0
H2071 H 0.45 0.29131 0.19086 0.0
H2072 H 0.76147 0.55267 0.30199 0.0
H2073 H 0.76176 0.52972 0.27671 0.0
H2074 H 0.70968 0.524 0.2844 0.0
H2075 H 0.70926 0.54691 0.30972 0.0
H2076 H 0.74926 0.49597 0.28321 0.0
H2077 H 0.71792 0.53044 0.21811 0.0
H2078 H 0.72796 0.54046 0.24035 0.0
H2079 H 0.70837 0.531 0.24412 0.0
C2080 C 0.7501 0.54644 0.29843 0.0
C2081 C 0.73533 0.55161 0.30775 0.0
C2082 C 0.7503 0.53336 0.284 0.0
C2083 C 0.73571 0.52537 0.27852 0.0
C2084 C 0.72102 0.5302 0.28824 0.0
H2085 H 0.70858 0.44863 0.19023 0.0
H2086 H 0.70942 0.47173 0.21515 0.0
C2087 C 0.72082 0.54321 0.30277 0.0
C2088 C 0.73583 0.51211 0.26242 0.0
H2089 H 0.7228 0.50234 0.21197 0.0
C2090 C 0.74355 0.49733 0.26758 0.0
C2091 C 0.72832 0.51402 0.24214 0.0
C2092 C 0.72026 0.52986 0.23567 0.0
C2093 C 0.74366 0.48419 0.2531 0.0
C2094 C 0.73619 0.48609 0.23273 0.0
C2095 C 0.72854 0.50094 0.22757 0.0
C2096 C 0.73584 0.47268 0.21676 0.0
C2097 C 0.75133 0.46825 0.26001 0.0
C2098 C 0.75042 0.46586 0.20893 0.0
C2099 C 0.74997 0.4526 0.1948 0.0
C2100 C 0.73493 0.44609 0.18804 0.0
C2101 C 0.72035 0.45338 0.19518 0.0
C2102 C 0.72081 0.46656 0.20942 0.0
H2103 H 0.7525 0.46745 0.27775 0.0
H2104 H 0.74404 0.45766 0.25429 0.0
H2105 H 0.76377 0.46732 0.25302 0.0
H2106 H 0.76215 0.47068 0.21395 0.0
H2107 H 0.7614 0.4473 0.18943 0.0
H2108 H 0.45979 0.72442 0.32941 0.0
H2109 H 0.48432 0.72582 0.3069 0.0
H2110 H 0.45736 0.7529 0.25912 0.0
H2111 H 0.43307 0.75209 0.28186 0.0
H2112 H 0.4894 0.71348 0.2684 0.0
H2113 H 0.49749 0.7805 0.26352 0.0
H2114 H 0.4836 0.77108 0.28232 0.0
H2115 H 0.4775 0.7744 0.25486 0.0
C2116 C 0.45919 0.73086 0.31423 0.0
C2117 C 0.44458 0.73825 0.30744 0.0
C2118 C 0.47318 0.73163 0.30137 0.0
C2119 C 0.47278 0.73971 0.28147 0.0
C2120 C 0.45814 0.74702 0.27467 0.0
H2121 H 0.53987 0.72089 0.17606 0.0
H2122 H 0.51643 0.72189 0.20048 0.0
C2123 C 0.44423 0.74646 0.28763 0.0
C2124 C 0.48736 0.73973 0.2673 0.0
H2125 H 0.51217 0.76457 0.23765 0.0
C2126 C 0.49447 0.72467 0.26183 0.0
C2127 C 0.49413 0.75433 0.25895 0.0
C2128 C 0.48789 0.77099 0.2654 0.0
C2129 C 0.50794 0.72378 0.24793 0.0
C2130 C 0.51413 0.73831 0.23866 0.0
C2131 C 0.50725 0.7534 0.24448 0.0
C2132 C 0.528 0.7382 0.22329 0.0
C2133 C 0.51556 0.70728 0.2437 0.0
C2134 C 0.54199 0.74761 0.22747 0.0
C2135 C 0.55522 0.74734 0.21331 0.0
C2136 C 0.55475 0.73757 0.19477 0.0
C2137 C 0.54062 0.72841 0.19034 0.0
C2138 C 0.52728 0.72886 0.20437 0.0
H2139 H 0.51275 0.69846 0.25676 0.0
H2140 H 0.51053 0.70221 0.22855 0.0
H2141 H 0.52904 0.70823 0.24207 0.0
H2142 H 0.54278 0.75498 0.24189 0.0
H2143 H 0.56596 0.75452 0.21714 0.0
H2144 H 0.18689 0.13398 0.16805 0.0
H2145 H 0.16939 0.15012 0.19195 0.0
H2146 H 0.19386 0.12947 0.24699 0.0
H2147 H 0.21169 0.11373 0.22324 0.0
H2148 H 0.14791 0.1412 0.22308 0.0
H2149 H 0.19813 0.1777 0.25888 0.0
H2150 H 0.20103 0.16509 0.23544 0.0
H2151 H 0.20107 0.15609 0.26182 0.0
C2152 C 0.18854 0.13292 0.18525 0.0
C2153 C 0.20075 0.12274 0.1938 0.0
C2154 C 0.17853 0.14212 0.19887 0.0
C2155 C 0.18055 0.14126 0.22124 0.0
C2156 C 0.1924 0.13068 0.22979 0.0
H2157 H 0.12938 0.18469 0.32949 0.0
H2158 H 0.14547 0.16688 0.30585 0.0
C2159 C 0.2025 0.12162 0.21619 0.0
C2160 C 0.17025 0.15137 0.23564 0.0
H2161 H 0.17202 0.18009 0.2754 0.0
C2162 C 0.15318 0.14976 0.23444 0.0
C2163 C 0.17716 0.16258 0.25042 0.0
C2164 C 0.19534 0.16562 0.25161 0.0
C2165 C 0.14284 0.15889 0.24786 0.0
C2166 C 0.14978 0.16987 0.26278 0.0
C2167 C 0.16681 0.17151 0.26402 0.0
C2168 C 0.13955 0.18018 0.27686 0.0
C2169 C 0.12458 0.15667 0.24621 0.0
C2170 C 0.13102 0.19352 0.2683 0.0
C2171 C 0.12197 0.20377 0.28173 0.0
C2172 C 0.12126 0.20077 0.30394 0.0
C2173 C 0.12968 0.18727 0.31244 0.0
C2174 C 0.13886 0.17711 0.29899 0.0
H2175 H 0.12124 0.14592 0.23623 0.0
H2176 H 0.11915 0.15519 0.26244 0.0
H2177 H 0.1191 0.16774 0.23884 0.0
H2178 H 0.13156 0.19614 0.25126 0.0
H2179 H 0.11559 0.21408 0.27473 0.0
H2180 H 0.86653 0.21855 0.2136 0.0
H2181 H 0.85176 0.20013 0.2376 0.0
H2182 H 0.8712 0.15855 0.20348 0.0
H2183 H 0.88571 0.17698 0.17899 0.0
H2184 H 0.83895 0.15535 0.21079 0.0
H2185 H 0.86979 0.1731 0.28633 0.0
H2186 H 0.8612 0.19041 0.27273 0.0
H2187 H 0.87745 0.17898 0.26027 0.0
C2188 C 0.86771 0.20548 0.21126 0.0
C2189 C 0.87732 0.19919 0.19448 0.0
C2190 C 0.85937 0.19497 0.2251 0.0
C2191 C 0.86067 0.17797 0.22264 0.0
C2192 C 0.87014 0.17164 0.20577 0.0
H2193 H 0.82105 0.11175 0.32034 0.0
H2194 H 0.83968 0.12615 0.29596 0.0
C2195 C 0.87841 0.18217 0.1918 0.0
C2196 C 0.85156 0.16686 0.23714 0.0
H2197 H 0.84448 0.15848 0.29002 0.0
C2198 C 0.84029 0.1559 0.22811 0.0
C2199 C 0.85354 0.16735 0.25971 0.0
C2200 C 0.86628 0.17797 0.27032 0.0
C2201 C 0.83045 0.14591 0.24107 0.0
C2202 C 0.83164 0.14723 0.26368 0.0
C2203 C 0.8434 0.15767 0.27269 0.0
C2204 C 0.82043 0.13831 0.27824 0.0
C2205 C 0.81891 0.13403 0.23039 0.0
C2206 C 0.80347 0.14059 0.27659 0.0
C2207 C 0.79284 0.13232 0.29035 0.0
C2208 C 0.79899 0.1218 0.30625 0.0
C2209 C 0.81598 0.11976 0.3082 0.0
C2210 C 0.82662 0.12796 0.29429 0.0
H2211 H 0.82317 0.13073 0.21402 0.0
H2212 H 0.81758 0.12265 0.23996 0.0
H2213 H 0.80669 0.13979 0.2288 0.0
H2214 H 0.79844 0.14887 0.26475 0.0
H2215 H 0.77981 0.13425 0.2886 0.0
H2216 H 0.87459 0.77984 0.2792 0.0
H2217 H 0.85922 0.79804 0.25552 0.0
H2218 H 0.86294 0.8367 0.30238 0.0
H2219 H 0.87859 0.81859 0.32607 0.0
H2220 H 0.82976 0.81266 0.26407 0.0
H2221 H 0.87725 0.85935 0.24692 0.0
H2222 H 0.88201 0.83971 0.25858 0.0
H2223 H 0.87374 0.85578 0.275 0.0
C2224 C 0.87224 0.79226 0.28441 0.0
C2225 C 0.8778 0.79781 0.30447 0.0
C2226 C 0.86347 0.80263 0.27086 0.0
C2227 C 0.86012 0.81877 0.27707 0.0
C2228 C 0.86568 0.82439 0.29709 0.0
H2229 H 0.78324 0.87943 0.22402 0.0
H2230 H 0.80116 0.86324 0.24713 0.0
C2231 C 0.87452 0.81401 0.31066 0.0
C2232 C 0.85009 0.82937 0.263 0.0
H2233 H 0.85025 0.86532 0.23509 0.0
C2234 C 0.83425 0.82415 0.25769 0.0
C2235 C 0.85606 0.84426 0.25451 0.0
C2236 C 0.87325 0.85008 0.25884 0.0
C2237 C 0.82413 0.83351 0.24432 0.0
C2238 C 0.8299 0.84864 0.23637 0.0
C2239 C 0.84582 0.85377 0.2414 0.0
C2240 C 0.81955 0.85923 0.22271 0.0
C2241 C 0.80744 0.82697 0.23854 0.0
C2242 C 0.82423 0.8628 0.20154 0.0
C2243 C 0.81406 0.87216 0.18832 0.0
C2244 C 0.79908 0.87812 0.19612 0.0
C2245 C 0.79465 0.87489 0.21751 0.0
C2246 C 0.80483 0.86559 0.23071 0.0
H2247 H 0.80657 0.81357 0.24124 0.0
H2248 H 0.79809 0.833 0.24875 0.0
H2249 H 0.80445 0.82958 0.22148 0.0
H2250 H 0.8356 0.85806 0.19513 0.0
H2251 H 0.8178 0.87451 0.17193 0.0
H2252 H 0.18343 0.8712 0.33023 0.0
H2253 H 0.16558 0.85496 0.30686 0.0
H2254 H 0.19257 0.87142 0.25144 0.0
H2255 H 0.2106 0.88742 0.27465 0.0
H2256 H 0.14563 0.86392 0.27165 0.0
H2257 H 0.1953 0.82145 0.24747 0.0
H2258 H 0.19727 0.83531 0.26986 0.0
H2259 H 0.19977 0.84265 0.24285 0.0
C2260 C 0.18551 0.87139 0.31306 0.0
C2261 C 0.1985 0.88043 0.30427 0.0
C2262 C 0.17529 0.86215 0.29974 0.0
C2263 C 0.17794 0.8618 0.27748 0.0
C2264 C 0.19054 0.87127 0.26862 0.0
H2265 H 0.1149 0.82125 0.17783 0.0
H2266 H 0.13032 0.8397 0.2014 0.0
C2267 C 0.20078 0.88044 0.2819 0.0
C2268 C 0.16782 0.85119 0.26356 0.0
H2269 H 0.17002 0.81871 0.22928 0.0
C2270 C 0.15092 0.85402 0.26238 0.0
C2271 C 0.17478 0.83818 0.25171 0.0
C2272 C 0.19275 0.83407 0.25313 0.0
C2273 C 0.1408 0.84428 0.24941 0.0
C2274 C 0.14784 0.83152 0.2372 0.0
C2275 C 0.16471 0.8286 0.23855 0.0
C2276 C 0.13791 0.82066 0.22338 0.0
C2277 C 0.12264 0.84747 0.24918 0.0
C2278 C 0.13727 0.80387 0.22781 0.0
C2279 C 0.12857 0.79334 0.21439 0.0
C2280 C 0.12043 0.79941 0.19618 0.0
C2281 C 0.12103 0.81626 0.19178 0.0
C2282 C 0.12973 0.8268 0.20528 0.0
H2283 H 0.11877 0.85527 0.26287 0.0
H2284 H 0.11933 0.85385 0.23407 0.0
H2285 H 0.1157 0.83581 0.24978 0.0
H2286 H 0.14357 0.7989 0.24166 0.0
H2287 H 0.12835 0.78042 0.21819 0.0
H2288 H 0.8753 0.81708 0.67426 0.0
H2289 H 0.86076 0.83565 0.69857 0.0
H2290 H 0.86154 0.79883 0.7481 0.0
H2291 H 0.87606 0.78022 0.72398 0.0
H2292 H 0.82979 0.82883 0.71916 0.0
H2293 H 0.87957 0.84072 0.77784 0.0
H2294 H 0.8834 0.83289 0.75118 0.0
H2295 H 0.87586 0.81955 0.77183 0.0
C2296 C 0.87244 0.81298 0.69037 0.0
C2297 C 0.87681 0.79721 0.69725 0.0
C2298 C 0.86415 0.82359 0.70421 0.0
C2299 C 0.8603 0.81866 0.72518 0.0
C2300 C 0.86467 0.80294 0.73209 0.0
H2301 H 0.8062 0.859 0.83212 0.0
H2302 H 0.82406 0.84303 0.80846 0.0
C2303 C 0.87286 0.7923 0.71825 0.0
C2304 C 0.851 0.82964 0.73955 0.0
H2305 H 0.85307 0.85019 0.78719 0.0
C2306 C 0.83489 0.83362 0.73395 0.0
C2307 C 0.85771 0.83573 0.75888 0.0
C2308 C 0.87513 0.83215 0.76529 0.0
C2309 C 0.82512 0.84326 0.74745 0.0
C2310 C 0.83182 0.84941 0.7668 0.0
C2311 C 0.84799 0.84549 0.77233 0.0
C2312 C 0.8221 0.85971 0.78161 0.0
C2313 C 0.80756 0.84633 0.74117 0.0
C2314 C 0.81553 0.87462 0.77457 0.0
C2315 C 0.80526 0.88367 0.78795 0.0
C2316 C 0.80158 0.87809 0.80874 0.0
C2317 C 0.80881 0.86357 0.81616 0.0
C2318 C 0.819 0.85445 0.80267 0.0
H2319 H 0.80317 0.8373 0.72915 0.0
H2320 H 0.79939 0.84584 0.75539 0.0
H2321 H 0.80653 0.85868 0.7339 0.0
H2322 H 0.81811 0.87911 0.75856 0.0
H2323 H 0.79999 0.89491 0.78188 0.0
H2324 H 0.21445 0.87931 0.72161 0.0
H2325 H 0.19635 0.86286 0.74412 0.0
H2326 H 0.1637 0.85594 0.69051 0.0
H2327 H 0.18171 0.87262 0.66783 0.0
H2328 H 0.14778 0.86341 0.73004 0.0
H2329 H 0.19254 0.81284 0.73864 0.0
H2330 H 0.20046 0.83256 0.74588 0.0
H2331 H 0.19458 0.82862 0.71855 0.0
C2332 C 0.20339 0.87434 0.7146 0.0
C2333 C 0.19955 0.87713 0.69291 0.0
C2334 C 0.19311 0.8649 0.72747 0.0
C2335 C 0.17886 0.85797 0.71886 0.0
C2336 C 0.17471 0.86112 0.69739 0.0
H2337 H 0.12478 0.77863 0.77796 0.0
H2338 H 0.13992 0.79634 0.75338 0.0
C2339 C 0.185 0.87061 0.68447 0.0
C2340 C 0.16848 0.84725 0.73228 0.0
H2341 H 0.16914 0.81183 0.76119 0.0
C2342 C 0.15238 0.85209 0.73679 0.0
C2343 C 0.17449 0.83239 0.7408 0.0
C2344 C 0.19141 0.82618 0.73559 0.0
C2345 C 0.14223 0.84261 0.75006 0.0
C2346 C 0.14847 0.82807 0.75922 0.0
C2347 C 0.16445 0.82307 0.75431 0.0
C2348 C 0.13864 0.8177 0.77382 0.0
C2349 C 0.12488 0.84813 0.75393 0.0
C2350 C 0.13298 0.82382 0.79352 0.0
C2351 C 0.12429 0.81373 0.80761 0.0
C2352 C 0.12124 0.79732 0.80226 0.0
C2353 C 0.12694 0.79123 0.78252 0.0
C2354 C 0.13558 0.80132 0.76846 0.0
H2355 H 0.12074 0.85695 0.7415 0.0
H2356 H 0.11637 0.83755 0.75411 0.0
H2357 H 0.12416 0.85429 0.76977 0.0
H2358 H 0.13551 0.83633 0.79816 0.0
H2359 H 0.12011 0.81872 0.82275 0.0
H2360 H 0.11862 0.21526 0.72438 0.0
H2361 H 0.13446 0.19698 0.7474 0.0
H2362 H 0.13885 0.16252 0.6953 0.0
H2363 H 0.12273 0.18069 0.67218 0.0
H2364 H 0.132 0.14789 0.73561 0.0
H2365 H 0.18402 0.19135 0.74028 0.0
H2366 H 0.16474 0.19992 0.74824 0.0
H2367 H 0.16776 0.19349 0.72091 0.0
C2368 C 0.12288 0.20375 0.71784 0.0
C2369 C 0.11957 0.19946 0.69642 0.0
C2370 C 0.13197 0.19335 0.73099 0.0
C2371 C 0.13806 0.17855 0.72293 0.0
C2372 C 0.13432 0.17395 0.70178 0.0
H2373 H 0.21845 0.1237 0.77656 0.0
H2374 H 0.19956 0.13883 0.75361 0.0
C2375 C 0.12515 0.18433 0.6886 0.0
C2376 C 0.14877 0.16816 0.73638 0.0
H2377 H 0.18523 0.16816 0.76301 0.0
C2378 C 0.14366 0.15227 0.74158 0.0
C2379 C 0.16406 0.17388 0.7439 0.0
C2380 C 0.17058 0.19053 0.73791 0.0
C2381 C 0.15336 0.14199 0.75441 0.0
C2382 C 0.16844 0.14789 0.76242 0.0
C2383 C 0.1736 0.16372 0.75699 0.0
C2384 C 0.17935 0.13778 0.77599 0.0
C2385 C 0.14756 0.12482 0.75893 0.0
C2386 C 0.17425 0.13216 0.79622 0.0
C2387 C 0.18504 0.12344 0.80938 0.0
C2388 C 0.20113 0.12036 0.80258 0.0
C2389 C 0.20614 0.12591 0.78226 0.0
C2390 C 0.19536 0.13455 0.76912 0.0
H2391 H 0.13798 0.12089 0.74739 0.0
H2392 H 0.15788 0.11602 0.75821 0.0
H2393 H 0.14226 0.12433 0.77532 0.0
H2394 H 0.16205 0.13481 0.80201 0.0
H2395 H 0.18088 0.11936 0.825 0.0
H2396 H 0.89312 0.17477 0.81847 0.0
H2397 H 0.88069 0.15418 0.79481 0.0
H2398 H 0.85042 0.1915 0.76629 0.0
H2399 H 0.86278 0.21202 0.78959 0.0
H2400 H 0.84768 0.14532 0.79101 0.0
H2401 H 0.87137 0.16937 0.71407 0.0
H2402 H 0.87982 0.17523 0.73974 0.0
H2403 H 0.86157 0.18493 0.72978 0.0
C2404 C 0.88383 0.17854 0.80712 0.0
C2405 C 0.87896 0.195 0.8058 0.0
C2406 C 0.87678 0.1668 0.79362 0.0
C2407 C 0.8649 0.1714 0.77852 0.0
C2408 C 0.85986 0.18777 0.77747 0.0
H2409 H 0.78435 0.12694 0.7189 0.0
H2410 H 0.80467 0.13956 0.74224 0.0
C2411 C 0.86685 0.19946 0.79091 0.0
C2412 C 0.85713 0.15915 0.76432 0.0
H2413 H 0.84753 0.15209 0.71182 0.0
C2414 C 0.84788 0.14659 0.77367 0.0
C2415 C 0.85767 0.16062 0.7417 0.0
C2416 C 0.86829 0.17317 0.73071 0.0
C2417 C 0.83823 0.13617 0.76103 0.0
C2418 C 0.83765 0.1386 0.73854 0.0
C2419 C 0.8478 0.1504 0.72909 0.0
C2420 C 0.82553 0.13012 0.72482 0.0
C2421 C 0.82847 0.1229 0.77192 0.0
C2422 C 0.83051 0.12096 0.7069 0.0
C2423 C 0.81887 0.11382 0.69335 0.0
C2424 C 0.80209 0.11587 0.69745 0.0
C2425 C 0.79719 0.12507 0.71537 0.0
C2426 C 0.80879 0.13217 0.72886 0.0
H2427 H 0.83428 0.11908 0.78725 0.0
H2428 H 0.81609 0.12761 0.77573 0.0
H2429 H 0.82715 0.112 0.76142 0.0
H2430 H 0.84339 0.11939 0.70338 0.0
H2431 H 0.82298 0.1068 0.67962 0.0
H2432 H 0.67637 0.61178 0.6805 0.0
H2433 H 0.65796 0.627 0.70423 0.0
H2434 H 0.69942 0.65103 0.73319 0.0
H2435 H 0.71787 0.63554 0.70999 0.0
H2436 H 0.67797 0.64035 0.76302 0.0
H2437 H 0.64513 0.67457 0.69922 0.0
H2438 H 0.64432 0.65276 0.69619 0.0
H2439 H 0.66361 0.6632 0.69402 0.0
C2440 C 0.68153 0.62036 0.69188 0.0
C2441 C 0.69854 0.62253 0.69336 0.0
C2442 C 0.671 0.6291 0.70534 0.0
C2443 C 0.67731 0.64034 0.72025 0.0
C2444 C 0.6943 0.64245 0.72177 0.0
H2445 H 0.6301 0.71962 0.78558 0.0
H2446 H 0.64561 0.70145 0.76209 0.0
C2447 C 0.70482 0.63362 0.70848 0.0
C2448 C 0.66633 0.64976 0.73457 0.0
H2449 H 0.63536 0.67773 0.73473 0.0
C2450 C 0.66862 0.64851 0.75685 0.0
C2451 C 0.65425 0.66049 0.72646 0.0
C2452 C 0.65174 0.66299 0.70267 0.0
C2453 C 0.6593 0.65783 0.77127 0.0
C2454 C 0.64707 0.6684 0.76317 0.0
C2455 C 0.64465 0.66951 0.74089 0.0
C2456 C 0.63735 0.67917 0.7774 0.0
C2457 C 0.66305 0.65672 0.79495 0.0
C2458 C 0.62741 0.67267 0.79369 0.0
C2459 C 0.61863 0.68306 0.8073 0.0
C2460 C 0.6195 0.7001 0.80464 0.0
C2461 C 0.6292 0.70654 0.78805 0.0
C2462 C 0.63805 0.69617 0.77459 0.0
H2463 H 0.67528 0.65127 0.79796 0.0
H2464 H 0.66262 0.66897 0.8026 0.0
H2465 H 0.65379 0.64885 0.80285 0.0
H2466 H 0.62642 0.65957 0.79584 0.0
H2467 H 0.61114 0.67777 0.81985 0.0
H2468 H 0.31098 0.63306 0.82953 0.0
H2469 H 0.32856 0.64889 0.80537 0.0
H2470 H 0.30456 0.62716 0.75067 0.0
H2471 H 0.28663 0.61178 0.77468 0.0
H2472 H 0.3503 0.63964 0.77507 0.0
H2473 H 0.30029 0.67496 0.73684 0.0
H2474 H 0.29714 0.66276 0.7606 0.0
H2475 H 0.29755 0.65328 0.73451 0.0
C2476 C 0.30945 0.63171 0.81235 0.0
C2477 C 0.29734 0.62134 0.80397 0.0
C2478 C 0.31949 0.64073 0.79857 0.0
C2479 C 0.31764 0.63947 0.77621 0.0
C2480 C 0.30589 0.6287 0.76785 0.0
H2481 H 0.36926 0.68262 0.66779 0.0
H2482 H 0.35318 0.66466 0.69127 0.0
C2483 C 0.29572 0.61984 0.78159 0.0
C2484 C 0.32804 0.64934 0.76164 0.0
H2485 H 0.32659 0.67725 0.72087 0.0
C2486 C 0.34511 0.6479 0.76328 0.0
C2487 C 0.32125 0.66017 0.74629 0.0
C2488 C 0.30307 0.66303 0.74456 0.0
C2489 C 0.35556 0.65687 0.74982 0.0
C2490 C 0.34874 0.66751 0.73438 0.0
C2491 C 0.33172 0.66893 0.73264 0.0
C2492 C 0.35907 0.6778 0.72039 0.0
C2493 C 0.37381 0.65485 0.75202 0.0
C2494 C 0.3676 0.69111 0.72907 0.0
C2495 C 0.37664 0.70144 0.71574 0.0
C2496 C 0.37735 0.69857 0.6935 0.0
C2497 C 0.36896 0.68509 0.68488 0.0
C2498 C 0.35979 0.67484 0.69822 0.0
H2499 H 0.37707 0.64407 0.76198 0.0
H2500 H 0.37959 0.65355 0.73597 0.0
H2501 H 0.37901 0.66592 0.75974 0.0
H2502 H 0.36701 0.69368 0.74613 0.0
H2503 H 0.38298 0.71173 0.72284 0.0
H2504 H 0.39979 0.31355 0.79452 0.0
H2505 H 0.38396 0.33223 0.77193 0.0
H2506 H 0.34024 0.32005 0.80719 0.0
H2507 H 0.35599 0.30143 0.82994 0.0
H2508 H 0.35758 0.32163 0.74634 0.0
H2509 H 0.33837 0.3703 0.80308 0.0
H2510 H 0.35519 0.35661 0.80859 0.0
H2511 H 0.33447 0.34986 0.81228 0.0
C2512 C 0.38686 0.31509 0.79773 0.0
C2513 C 0.3791 0.30602 0.81397 0.0
C2514 C 0.37785 0.32574 0.7848 0.0
C2515 C 0.36098 0.32761 0.78802 0.0
C2516 C 0.35331 0.31899 0.80469 0.0
H2517 H 0.2799 0.37123 0.72117 0.0
H2518 H 0.29838 0.35733 0.74607 0.0
C2519 C 0.3623 0.3083 0.81761 0.0
C2520 C 0.35115 0.33736 0.77274 0.0
H2521 H 0.32485 0.36963 0.7692 0.0
C2522 C 0.35055 0.33224 0.75125 0.0
C2523 C 0.34194 0.3511 0.77929 0.0
C2524 C 0.34259 0.35742 0.80203 0.0
C2525 C 0.34059 0.34021 0.73621 0.0
C2526 C 0.33126 0.35388 0.74278 0.0
C2527 C 0.33203 0.35914 0.76422 0.0
C2528 C 0.32025 0.36258 0.72777 0.0
C2529 C 0.33971 0.33358 0.71362 0.0
C2530 C 0.32646 0.37028 0.70936 0.0
C2531 C 0.31592 0.37814 0.69502 0.0
C2532 C 0.29901 0.37855 0.69901 0.0
C2533 C 0.29287 0.37106 0.71764 0.0
C2534 C 0.3034 0.36316 0.73191 0.0
H2535 H 0.34435 0.32083 0.71264 0.0
H2536 H 0.32697 0.33383 0.70749 0.0
H2537 H 0.34735 0.34127 0.70291 0.0
H2538 H 0.33947 0.37025 0.7061 0.0
H2539 H 0.32101 0.38393 0.68088 0.0
H2540 H 0.61331 0.28635 0.72456 0.0
H2541 H 0.62894 0.30434 0.74826 0.0
H2542 H 0.64638 0.33127 0.69327 0.0
H2543 H 0.63038 0.31358 0.66951 0.0
H2544 H 0.66143 0.30846 0.74963 0.0
H2545 H 0.63193 0.36798 0.732 0.0
H2546 H 0.62316 0.34874 0.72371 0.0
H2547 H 0.63943 0.35789 0.70839 0.0
C2548 C 0.62034 0.29622 0.71754 0.0
C2549 C 0.6206 0.29861 0.6952 0.0
C2550 C 0.62927 0.30648 0.73109 0.0
C2551 C 0.63865 0.3193 0.72258 0.0
C2552 C 0.63891 0.32172 0.70025 0.0
H2553 H 0.71253 0.38348 0.7752 0.0
H2554 H 0.69424 0.36749 0.75216 0.0
C2555 C 0.62985 0.31154 0.68668 0.0
C2556 C 0.64884 0.32951 0.73701 0.0
H2557 H 0.65687 0.36892 0.75189 0.0
C2558 C 0.66033 0.32167 0.75024 0.0
C2559 C 0.64739 0.34675 0.7378 0.0
C2560 C 0.6347 0.35584 0.72488 0.0
C2561 C 0.6706 0.3306 0.76394 0.0
C2562 C 0.6693 0.34781 0.76446 0.0
C2563 C 0.65782 0.3557 0.75134 0.0
C2564 C 0.67994 0.3578 0.77843 0.0
C2565 C 0.68299 0.32165 0.7775 0.0
C2566 C 0.67777 0.35772 0.80077 0.0
C2567 C 0.68812 0.36689 0.81396 0.0
C2568 C 0.70085 0.3762 0.80499 0.0
C2569 C 0.70287 0.37636 0.78257 0.0
C2570 C 0.69243 0.36729 0.76939 0.0
H2571 H 0.68415 0.3086 0.77283 0.0
H2572 H 0.69517 0.32757 0.77614 0.0
H2573 H 0.67922 0.32222 0.7946 0.0
H2574 H 0.66809 0.35053 0.80797 0.0
H2575 H 0.68626 0.36656 0.83118 0.0
H2576 H 0.38716 0.32254 0.17968 0.0
H2577 H 0.37283 0.34139 0.2038 0.0
H2578 H 0.35231 0.30039 0.23806 0.0
H2579 H 0.36688 0.28155 0.21443 0.0
H2580 H 0.34054 0.34512 0.21039 0.0
H2581 H 0.37017 0.32754 0.28679 0.0
H2582 H 0.37808 0.32136 0.26099 0.0
H2583 H 0.36154 0.31022 0.27326 0.0
C2584 C 0.37967 0.31757 0.19246 0.0
C2585 C 0.37819 0.30059 0.19527 0.0
C2586 C 0.37151 0.32834 0.20622 0.0
C2587 C 0.36177 0.32229 0.22299 0.0
C2588 C 0.36013 0.30533 0.22562 0.0
H2589 H 0.28023 0.36588 0.28678 0.0
H2590 H 0.29933 0.35162 0.2632 0.0
C2591 C 0.36836 0.29458 0.21199 0.0
C2592 C 0.35266 0.33364 0.23715 0.0
H2593 H 0.34486 0.34232 0.28976 0.0
C2594 C 0.34163 0.34466 0.22773 0.0
C2595 C 0.35432 0.33326 0.25976 0.0
C2596 C 0.3668 0.32258 0.27078 0.0
C2597 C 0.33166 0.35477 0.24037 0.0
C2598 C 0.3325 0.35353 0.263 0.0
C2599 C 0.34407 0.34308 0.2724 0.0
C2600 C 0.32101 0.36243 0.27719 0.0
C2601 C 0.32034 0.36665 0.22932 0.0
C2602 C 0.32689 0.37286 0.29335 0.0
C2603 C 0.31598 0.38088 0.30708 0.0
C2604 C 0.29904 0.37855 0.30485 0.0
C2605 C 0.29322 0.36802 0.28877 0.0
C2606 C 0.30411 0.35995 0.27516 0.0
H2607 H 0.32487 0.36989 0.21304 0.0
H2608 H 0.30812 0.36092 0.22743 0.0
H2609 H 0.3189 0.37806 0.2388 0.0
H2610 H 0.3399 0.37482 0.2953 0.0
H2611 H 0.32081 0.38891 0.31937 0.0
H2612 H 0.62981 0.31384 0.32944 0.0
H2613 H 0.64618 0.33147 0.30587 0.0
H2614 H 0.63332 0.30147 0.25153 0.0
H2615 H 0.61708 0.28371 0.27493 0.0
H2616 H 0.6733 0.31781 0.27575 0.0
H2617 H 0.62266 0.35183 0.23601 0.0
H2618 H 0.62052 0.34288 0.2624 0.0
H2619 H 0.6205 0.33004 0.23908 0.0
C2620 C 0.63042 0.31106 0.31245 0.0
C2621 C 0.62219 0.29741 0.304 0.0
C2622 C 0.63976 0.32111 0.29906 0.0
C2623 C 0.64081 0.31778 0.27702 0.0
C2624 C 0.6325 0.30427 0.2685 0.0
H2625 H 0.68826 0.36406 0.16837 0.0
H2626 H 0.67092 0.34769 0.1922 0.0
C2627 C 0.6233 0.29414 0.28189 0.0
C2628 C 0.65112 0.32803 0.26297 0.0
H2629 H 0.64939 0.35663 0.22318 0.0
C2630 C 0.66813 0.32637 0.26431 0.0
C2631 C 0.64423 0.33899 0.24798 0.0
C2632 C 0.62598 0.3412 0.24622 0.0
C2633 C 0.67853 0.33527 0.25074 0.0
C2634 C 0.67169 0.34646 0.23589 0.0
C2635 C 0.65462 0.34809 0.2346 0.0
C2636 C 0.68203 0.35656 0.22153 0.0
C2637 C 0.69671 0.33224 0.25203 0.0
C2638 C 0.69381 0.36719 0.23011 0.0
C2639 C 0.70382 0.37639 0.21656 0.0
C2640 C 0.70203 0.37535 0.19416 0.0
C2641 C 0.68993 0.36506 0.18557 0.0
C2642 C 0.68002 0.35573 0.19916 0.0
H2643 H 0.69947 0.32015 0.25934 0.0
H2644 H 0.70246 0.33275 0.23589 0.0
H2645 H 0.70241 0.34177 0.26226 0.0
H2646 H 0.69527 0.36838 0.24733 0.0
H2647 H 0.71292 0.38436 0.22363 0.0
H2648 H 0.68234 0.62231 0.32464 0.0
H2649 H 0.66463 0.63789 0.30045 0.0
H2650 H 0.70147 0.6354 0.25099 0.0
H2651 H 0.71936 0.62012 0.27522 0.0
H2652 H 0.68982 0.66614 0.25645 0.0
H2653 H 0.63826 0.62251 0.24894 0.0
H2654 H 0.64319 0.62745 0.27627 0.0
H2655 H 0.65784 0.61674 0.25996 0.0
C2656 C 0.68661 0.625 0.30856 0.0
C2657 C 0.70222 0.62001 0.3018 0.0
C2658 C 0.67643 0.63378 0.2947 0.0
C2659 C 0.68163 0.63757 0.2738 0.0
C2660 C 0.69719 0.63252 0.26701 0.0
H2661 H 0.62133 0.68019 0.17249 0.0
H2662 H 0.63811 0.66175 0.19439 0.0
C2663 C 0.70739 0.62381 0.28087 0.0
C2664 C 0.67126 0.64759 0.25941 0.0
H2665 H 0.6336 0.64957 0.23588 0.0
C2666 C 0.67756 0.66247 0.25184 0.0
C2667 C 0.65537 0.64267 0.25319 0.0
C2668 C 0.6483 0.62639 0.25982 0.0
C2669 C 0.66827 0.67275 0.23861 0.0
C2670 C 0.6521 0.66819 0.23319 0.0
C2671 C 0.64593 0.65312 0.24029 0.0
C2672 C 0.6414 0.67902 0.22035 0.0
C2673 C 0.67591 0.68834 0.23039 0.0
C2674 C 0.63742 0.69467 0.22794 0.0
C2675 C 0.62795 0.70521 0.21547 0.0
C2676 C 0.62214 0.70023 0.19527 0.0
C2677 C 0.62569 0.68436 0.18797 0.0
C2678 C 0.63525 0.67383 0.20045 0.0
H2679 H 0.68948 0.68777 0.23088 0.0
H2680 H 0.67202 0.69093 0.21365 0.0
H2681 H 0.67198 0.69869 0.24068 0.0
H2682 H 0.64174 0.69877 0.24347 0.0
H2683 H 0.62528 0.71731 0.22161 0.0
H2684 H 0.28154 0.61899 0.22435 0.0
H2685 H 0.30026 0.63401 0.24786 0.0
H2686 H 0.33548 0.63696 0.1965 0.0
H2687 H 0.31685 0.62186 0.17285 0.0
H2688 H 0.3355 0.62595 0.25818 0.0
H2689 H 0.32547 0.6855 0.21688 0.0
H2690 H 0.3112 0.66871 0.21474 0.0
H2691 H 0.33013 0.66813 0.20022 0.0
C2692 C 0.29329 0.62278 0.21808 0.0
C2693 C 0.29771 0.61934 0.19673 0.0
C2694 C 0.30397 0.63131 0.23154 0.0
C2695 C 0.31915 0.63665 0.22382 0.0
C2696 C 0.32373 0.63301 0.20265 0.0
H2697 H 0.39189 0.70207 0.27696 0.0
H2698 H 0.3765 0.68309 0.25438 0.0
C2699 C 0.31311 0.62438 0.1892 0.0
C2700 C 0.32998 0.64645 0.23778 0.0
H2701 H 0.34456 0.68509 0.24512 0.0
C2702 C 0.33754 0.63888 0.25537 0.0
C2703 C 0.33256 0.66327 0.23396 0.0
C2704 C 0.32436 0.672 0.21553 0.0
C2705 C 0.34785 0.64771 0.2692 0.0
C2706 C 0.35028 0.66462 0.26556 0.0
C2707 C 0.34271 0.67213 0.24787 0.0
C2708 C 0.36048 0.6749 0.27988 0.0
C2709 C 0.35628 0.63878 0.28728 0.0
C2710 C 0.35669 0.67651 0.30178 0.0
C2711 C 0.36559 0.68725 0.31478 0.0
C2712 C 0.37824 0.69674 0.30599 0.0
C2713 C 0.38217 0.69493 0.28416 0.0
C2714 C 0.37339 0.6841 0.27124 0.0
H2715 H 0.35708 0.62544 0.28405 0.0
H2716 H 0.36881 0.64358 0.28995 0.0
H2717 H 0.34916 0.64047 0.30228 0.0
H2718 H 0.34653 0.66984 0.30868 0.0
H2719 H 0.36222 0.6885 0.33152 0.0
loop_
_geom_bond_atom_site_label_1
_geom_bond_atom_site_label_2
_geom_bond_distance
_geom_bond_site_symmetry_2
_ccdc_geom_bond_type
In0 O1 2.294 . S
In0 O2 2.326 . S
In0 O6 2.266 . S
In0 O7 2.326 . S
In0 O8 2.266 . S
In0 O9 2.326 . S
In0 O11 2.294 . S
In0 O12 2.326 . S
O1 In0 2.294 . S
O1 C10 1.240 . S
O2 In0 2.326 . S
O2 C10 1.252 . S
C3 O6 1.252 . S
C3 O7 1.260 . S
C4 O11 1.240 . S
C4 O12 1.252 . S
C5 O8 1.252 . S
C5 O9 1.260 . S
O6 In0 2.266 . S
O6 C3 1.252 . S
O7 In0 2.326 . S
O7 C3 1.260 . S
O8 In0 2.266 . S
O8 C5 1.252 . S
O9 In0 2.326 . S
O9 C5 1.260 . S
C10 O1 1.240 . S
C10 O2 1.252 . S
O11 In0 2.294 . S
O11 C4 1.240 . S
O12 In0 2.326 . S
O12 C4 1.252 . S
In13 O14 2.294 . S
In13 O15 2.326 . S
In13 O19 2.266 . S
In13 O20 2.326 . S
In13 O21 2.266 . S
In13 O22 2.326 . S
In13 O24 2.294 . S
In13 O25 2.326 . S
O14 In13 2.294 . S
O14 C23 1.240 . S
O15 In13 2.326 . S
O15 C23 1.252 . S
C16 O19 1.252 . S
C16 O20 1.260 . S
C17 O24 1.240 . S
C17 O25 1.252 . S
C18 O21 1.252 . S
C18 O22 1.260 . S
O19 In13 2.266 . S
O19 C16 1.252 . S
O20 In13 2.326 . S
O20 C16 1.260 . S
O21 In13 2.266 . S
O21 C18 1.252 . S
O22 In13 2.326 . S
O22 C18 1.260 . S
C23 O14 1.240 . S
C23 O15 1.252 . S
O24 In13 2.294 . S
O24 C17 1.240 . S
O25 In13 2.326 . S
O25 C17 1.252 . S
In26 O27 2.294 . S
In26 O28 2.326 . S
In26 O32 2.266 . S
In26 O33 2.326 . S
In26 O34 2.266 . S
In26 O35 2.326 . S
In26 O37 2.294 . S
In26 O38 2.326 . S
O27 In26 2.294 . S
O27 C36 1.240 . S
O28 In26 2.326 . S
O28 C36 1.252 . S
C29 O32 1.252 . S
C29 O33 1.260 . S
C30 O37 1.240 . S
C30 O38 1.252 . S
C31 O34 1.252 . S
C31 O35 1.260 . S
O32 In26 2.266 . S
O32 C29 1.252 . S
O33 In26 2.326 . S
O33 C29 1.260 . S
O34 In26 2.266 . S
O34 C31 1.252 . S
O35 In26 2.326 . S
O35 C31 1.260 . S
C36 O27 1.240 . S
C36 O28 1.252 . S
O37 In26 2.294 . S
O37 C30 1.240 . S
O38 In26 2.326 . S
O38 C30 1.252 . S
In39 O40 2.294 . S
In39 O41 2.326 . S
In39 O45 2.266 . S
In39 O46 2.326 . S
In39 O47 2.266 . S
In39 O48 2.326 . S
In39 O50 2.294 . S
In39 O51 2.326 . S
O40 In39 2.294 . S
O40 C49 1.240 . S
O41 In39 2.326 . S
O41 C49 1.252 . S
C42 O45 1.252 . S
C42 O46 1.260 . S
C43 O50 1.240 . S
C43 O51 1.252 . S
C44 O47 1.252 . S
C44 O48 1.260 . S
O45 In39 2.266 . S
O45 C42 1.252 . S
O46 In39 2.326 . S
O46 C42 1.260 . S
O47 In39 2.266 . S
O47 C44 1.252 . S
O48 In39 2.326 . S
O48 C44 1.260 . S
C49 O40 1.240 . S
C49 O41 1.252 . S
O50 In39 2.294 . S
O50 C43 1.240 . S
O51 In39 2.326 . S
O51 C43 1.252 . S
In52 O53 2.294 . S
In52 O54 2.326 . S
In52 O58 2.266 . S
In52 O59 2.326 . S
In52 O60 2.266 . S
In52 O61 2.326 . S
In52 O63 2.294 . S
In52 O64 2.326 . S
O53 In52 2.294 . S
O53 C62 1.240 . S
O54 In52 2.326 . S
O54 C62 1.252 . S
C55 O58 1.252 . S
C55 O59 1.260 . S
C56 O63 1.240 . S
C56 O64 1.252 . S
C57 O60 1.252 . S
C57 O61 1.260 . S
O58 In52 2.266 . S
O58 C55 1.252 . S
O59 In52 2.326 . S
O59 C55 1.260 . S
O60 In52 2.266 . S
O60 C57 1.252 . S
O61 In52 2.326 . S
O61 C57 1.260 . S
C62 O53 1.240 . S
C62 O54 1.252 . S
O63 In52 2.294 . S
O63 C56 1.240 . S
O64 In52 2.326 . S
O64 C56 1.252 . S
In65 O66 2.294 . S
In65 O67 2.326 . S
In65 O71 2.266 . S
In65 O72 2.326 . S
In65 O73 2.266 . S
In65 O74 2.326 . S
In65 O76 2.294 . S
In65 O77 2.326 . S
O66 In65 2.294 . S
O66 C75 1.240 . S
O67 In65 2.326 . S
O67 C75 1.252 . S
C68 O71 1.252 . S
C68 O72 1.260 . S
C69 O76 1.240 . S
C69 O77 1.252 . S
C70 O73 1.252 . S
C70 O74 1.260 . S
O71 In65 2.266 . S
O71 C68 1.252 . S
O72 In65 2.326 . S
O72 C68 1.260 . S
O73 In65 2.266 . S
O73 C70 1.252 . S
O74 In65 2.326 . S
O74 C70 1.260 . S
C75 O66 1.240 . S
C75 O67 1.252 . S
O76 In65 2.294 . S
O76 C69 1.240 . S
O77 In65 2.326 . S
O77 C69 1.252 . S
In78 O79 2.294 . S
In78 O80 2.326 . S
In78 O84 2.266 . S
In78 O85 2.326 . S
In78 O86 2.266 . S
In78 O87 2.326 . S
In78 O89 2.294 . S
In78 O90 2.326 . S
O79 In78 2.294 . S
O79 C88 1.240 . S
O80 In78 2.326 . S
O80 C88 1.252 . S
C81 O84 1.252 . S
C81 O85 1.260 . S
C82 O89 1.240 . S
C82 O90 1.252 . S
C83 O86 1.252 . S
C83 O87 1.260 . S
O84 In78 2.266 . S
O84 C81 1.252 . S
O85 In78 2.326 . S
O85 C81 1.260 . S
O86 In78 2.266 . S
O86 C83 1.252 . S
O87 In78 2.326 . S
O87 C83 1.260 . S
C88 O79 1.240 . S
C88 O80 1.252 . S
O89 In78 2.294 . S
O89 C82 1.240 . S
O90 In78 2.326 . S
O90 C82 1.252 . S
In91 O92 2.294 . S
In91 O93 2.326 . S
In91 O97 2.266 . S
In91 O98 2.326 . S
In91 O99 2.266 . S
In91 O100 2.326 . S
In91 O102 2.294 . S
In91 O103 2.326 . S
O92 In91 2.294 . S
O92 C101 1.240 . S
O93 In91 2.326 . S
O93 C101 1.252 . S
C94 O97 1.252 . S
C94 O98 1.260 . S
C95 O102 1.240 . S
C95 O103 1.252 . S
C96 O99 1.252 . S
C96 O100 1.260 . S
O97 In91 2.266 . S
O97 C94 1.252 . S
O98 In91 2.326 . S
O98 C94 1.260 . S
O99 In91 2.266 . S
O99 C96 1.252 . S
O100 In91 2.326 . S
O100 C96 1.260 . S
C101 O92 1.240 . S
C101 O93 1.252 . S
O102 In91 2.294 . S
O102 C95 1.240 . S
O103 In91 2.326 . S
O103 C95 1.252 . S
In104 O105 2.294 . S
In104 O106 2.326 . S
In104 O110 2.266 . S
In104 O111 2.326 . S
In104 O112 2.266 . S
In104 O113 2.326 . S
In104 O115 2.294 . S
In104 O116 2.326 . S
O105 In104 2.294 . S
O105 C114 1.240 . S
O106 In104 2.326 . S
O106 C114 1.252 . S
C107 O110 1.252 . S
C107 O111 1.260 . S
C108 O115 1.240 . S
C108 O116 1.252 . S
C109 O112 1.252 . S
C109 O113 1.260 . S
O110 In104 2.266 . S
O110 C107 1.252 . S
O111 In104 2.326 . S
O111 C107 1.260 . S
O112 In104 2.266 . S
O112 C109 1.252 . S
O113 In104 2.326 . S
O113 C109 1.260 . S
C114 O105 1.240 . S
C114 O106 1.252 . S
O115 In104 2.294 . S
O115 C108 1.240 . S
O116 In104 2.326 . S
O116 C108 1.252 . S
In117 O118 2.294 . S
In117 O119 2.326 . S
In117 O123 2.266 . S
In117 O124 2.326 . S
In117 O125 2.266 . S
In117 O126 2.326 . S
In117 O128 2.294 . S
In117 O129 2.326 . S
O118 In117 2.294 . S
O118 C127 1.240 . S
O119 In117 2.326 . S
O119 C127 1.252 . S
C120 O123 1.252 . S
C120 O124 1.260 . S
C121 O128 1.240 . S
C121 O129 1.252 . S
C122 O125 1.252 . S
C122 O126 1.260 . S
O123 In117 2.266 . S
O123 C120 1.252 . S
O124 In117 2.326 . S
O124 C120 1.260 . S
O125 In117 2.266 . S
O125 C122 1.252 . S
O126 In117 2.326 . S
O126 C122 1.260 . S
C127 O118 1.240 . S
C127 O119 1.252 . S
O128 In117 2.294 . S
O128 C121 1.240 . S
O129 In117 2.326 . S
O129 C121 1.252 . S
In130 O131 2.294 . S
In130 O132 2.326 . S
In130 O136 2.266 . S
In130 O137 2.326 . S
In130 O138 2.266 . S
In130 O139 2.326 . S
In130 O141 2.294 . S
In130 O142 2.326 . S
O131 In130 2.294 . S
O131 C140 1.240 . S
O132 In130 2.326 . S
O132 C140 1.252 . S
C133 O136 1.252 . S
C133 O137 1.260 . S
C134 O141 1.240 . S
C134 O142 1.252 . S
C135 O138 1.252 . S
C135 O139 1.260 . S
O136 In130 2.266 . S
O136 C133 1.252 . S
O137 In130 2.326 . S
O137 C133 1.260 . S
O138 In130 2.266 . S
O138 C135 1.252 . S
O139 In130 2.326 . S
O139 C135 1.260 . S
C140 O131 1.240 . S
C140 O132 1.252 . S
O141 In130 2.294 . S
O141 C134 1.240 . S
O142 In130 2.326 . S
O142 C134 1.252 . S
In143 O144 2.294 . S
In143 O145 2.326 . S
In143 O149 2.266 . S
In143 O150 2.326 . S
In143 O151 2.266 . S
In143 O152 2.326 . S
In143 O154 2.294 . S
In143 O155 2.326 . S
O144 In143 2.294 . S
O144 C153 1.240 . S
O145 In143 2.326 . S
O145 C153 1.252 . S
C146 O149 1.252 . S
C146 O150 1.260 . S
C147 O154 1.240 . S
C147 O155 1.252 . S
C148 O151 1.252 . S
C148 O152 1.260 . S
O149 In143 2.266 . S
O149 C146 1.252 . S
O150 In143 2.326 . S
O150 C146 1.260 . S
O151 In143 2.266 . S
O151 C148 1.252 . S
O152 In143 2.326 . S
O152 C148 1.260 . S
C153 O144 1.240 . S
C153 O145 1.252 . S
O154 In143 2.294 . S
O154 C147 1.240 . S
O155 In143 2.326 . S
O155 C147 1.252 . S
In156 O157 2.294 . S
In156 O158 2.326 . S
In156 O162 2.266 . S
In156 O163 2.326 . S
In156 O164 2.266 . S
In156 O165 2.326 . S
In156 O167 2.294 . S
In156 O168 2.326 . S
O157 In156 2.294 . S
O157 C166 1.240 . S
O158 In156 2.326 . S
O158 C166 1.252 . S
C159 O162 1.252 . S
C159 O163 1.260 . S
C160 O167 1.240 . S
C160 O168 1.252 . S
C161 O164 1.252 . S
C161 O165 1.260 . S
O162 In156 2.266 . S
O162 C159 1.252 . S
O163 In156 2.326 . S
O163 C159 1.260 . S
O164 In156 2.266 . S
O164 C161 1.252 . S
O165 In156 2.326 . S
O165 C161 1.260 . S
C166 O157 1.240 . S
C166 O158 1.252 . S
O167 In156 2.294 . S
O167 C160 1.240 . S
O168 In156 2.326 . S
O168 C160 1.252 . S
In169 O170 2.294 . S
In169 O171 2.326 . S
In169 O175 2.266 . S
In169 O176 2.326 . S
In169 O177 2.266 . S
In169 O178 2.326 . S
In169 O180 2.294 . S
In169 O181 2.326 . S
O170 In169 2.294 . S
O170 C179 1.240 . S
O171 In169 2.326 . S
O171 C179 1.252 . S
C172 O175 1.252 . S
C172 O176 1.260 . S
C173 O180 1.240 . S
C173 O181 1.252 . S
C174 O177 1.252 . S
C174 O178 1.260 . S
O175 In169 2.266 . S
O175 C172 1.252 . S
O176 In169 2.326 . S
O176 C172 1.260 . S
O177 In169 2.266 . S
O177 C174 1.252 . S
O178 In169 2.326 . S
O178 C174 1.260 . S
C179 O170 1.240 . S
C179 O171 1.252 . S
O180 In169 2.294 . S
O180 C173 1.240 . S
O181 In169 2.326 . S
O181 C173 1.252 . S
In182 O183 2.294 . S
In182 O184 2.326 . S
In182 O188 2.266 . S
In182 O189 2.326 . S
In182 O190 2.266 . S
In182 O191 2.326 . S
In182 O193 2.294 . S
In182 O194 2.326 . S
O183 In182 2.294 . S
O183 C192 1.240 . S
O184 In182 2.326 . S
O184 C192 1.252 . S
C185 O188 1.252 . S
C185 O189 1.260 . S
C186 O193 1.240 . S
C186 O194 1.252 . S
C187 O190 1.252 . S
C187 O191 1.260 . S
O188 In182 2.266 . S
O188 C185 1.252 . S
O189 In182 2.326 . S
O189 C185 1.260 . S
O190 In182 2.266 . S
O190 C187 1.252 . S
O191 In182 2.326 . S
O191 C187 1.260 . S
C192 O183 1.240 . S
C192 O184 1.252 . S
O193 In182 2.294 . S
O193 C186 1.240 . S
O194 In182 2.326 . S
O194 C186 1.252 . S
In195 O196 2.294 . S
In195 O197 2.326 . S
In195 O201 2.266 . S
In195 O202 2.326 . S
In195 O203 2.266 . S
In195 O204 2.326 . S
In195 O206 2.294 . S
In195 O207 2.326 . S
O196 In195 2.294 . S
O196 C205 1.240 . S
O197 In195 2.326 . S
O197 C205 1.252 . S
C198 O201 1.252 . S
C198 O202 1.260 . S
C199 O206 1.240 . S
C199 O207 1.252 . S
C200 O203 1.252 . S
C200 O204 1.260 . S
O201 In195 2.266 . S
O201 C198 1.252 . S
O202 In195 2.326 . S
O202 C198 1.260 . S
O203 In195 2.266 . S
O203 C200 1.252 . S
O204 In195 2.326 . S
O204 C200 1.260 . S
C205 O196 1.240 . S
C205 O197 1.252 . S
O206 In195 2.294 . S
O206 C199 1.240 . S
O207 In195 2.326 . S
O207 C199 1.252 . S
In208 O209 2.294 . S
In208 O210 2.326 . S
In208 O214 2.266 . S
In208 O215 2.326 . S
In208 O216 2.266 . S
In208 O217 2.326 . S
In208 O219 2.294 . S
In208 O220 2.326 . S
O209 In208 2.294 . S
O209 C218 1.240 . S
O210 In208 2.326 . S
O210 C218 1.252 . S
C211 O214 1.252 . S
C211 O215 1.260 . S
C212 O219 1.240 . S
C212 O220 1.252 . S
C213 O216 1.252 . S
C213 O217 1.260 . S
O214 In208 2.266 . S
O214 C211 1.252 . S
O215 In208 2.326 . S
O215 C211 1.260 . S
O216 In208 2.266 . S
O216 C213 1.252 . S
O217 In208 2.326 . S
O217 C213 1.260 . S
C218 O209 1.240 . S
C218 O210 1.252 . S
O219 In208 2.294 . S
O219 C212 1.240 . S
O220 In208 2.326 . S
O220 C212 1.252 . S
In221 O222 2.294 . S
In221 O223 2.326 . S
In221 O227 2.266 . S
In221 O228 2.326 . S
In221 O229 2.266 . S
In221 O230 2.326 . S
In221 O232 2.294 . S
In221 O233 2.326 . S
O222 In221 2.294 . S
O222 C231 1.240 . S
O223 In221 2.326 . S
O223 C231 1.252 . S
C224 O227 1.252 . S
C224 O228 1.260 . S
C225 O232 1.240 . S
C225 O233 1.252 . S
C226 O229 1.252 . S
C226 O230 1.260 . S
O227 In221 2.266 . S
O227 C224 1.252 . S
O228 In221 2.326 . S
O228 C224 1.260 . S
O229 In221 2.266 . S
O229 C226 1.252 . S
O230 In221 2.326 . S
O230 C226 1.260 . S
C231 O222 1.240 . S
C231 O223 1.252 . S
O232 In221 2.294 . S
O232 C225 1.240 . S
O233 In221 2.326 . S
O233 C225 1.252 . S
In234 O235 2.294 . S
In234 O236 2.326 . S
In234 O240 2.266 . S
In234 O241 2.326 . S
In234 O242 2.266 . S
In234 O243 2.326 . S
In234 O245 2.294 . S
In234 O246 2.326 . S
O235 In234 2.294 . S
O235 C244 1.240 . S
O236 In234 2.326 . S
O236 C244 1.252 . S
C237 O240 1.252 . S
C237 O241 1.260 . S
C238 O245 1.240 . S
C238 O246 1.252 . S
C239 O242 1.252 . S
C239 O243 1.260 . S
O240 In234 2.266 . S
O240 C237 1.252 . S
O241 In234 2.326 . S
O241 C237 1.260 . S
O242 In234 2.266 . S
O242 C239 1.252 . S
O243 In234 2.326 . S
O243 C239 1.260 . S
C244 O235 1.240 . S
C244 O236 1.252 . S
O245 In234 2.294 . S
O245 C238 1.240 . S
O246 In234 2.326 . S
O246 C238 1.252 . S
In247 O248 2.294 . S
In247 O249 2.326 . S
In247 O253 2.266 . S
In247 O254 2.326 . S
In247 O255 2.266 . S
In247 O256 2.326 . S
In247 O258 2.294 . S
In247 O259 2.326 . S
O248 In247 2.294 . S
O248 C257 1.240 . S
O249 In247 2.326 . S
O249 C257 1.252 . S
C250 O253 1.252 . S
C250 O254 1.260 . S
C251 O258 1.240 . S
C251 O259 1.252 . S
C252 O255 1.252 . S
C252 O256 1.260 . S
O253 In247 2.266 . S
O253 C250 1.252 . S
O254 In247 2.326 . S
O254 C250 1.260 . S
O255 In247 2.266 . S
O255 C252 1.252 . S
O256 In247 2.326 . S
O256 C252 1.260 . S
C257 O248 1.240 . S
C257 O249 1.252 . S
O258 In247 2.294 . S
O258 C251 1.240 . S
O259 In247 2.326 . S
O259 C251 1.252 . S
In260 O261 2.294 . S
In260 O262 2.326 . S
In260 O266 2.266 . S
In260 O267 2.326 . S
In260 O268 2.266 . S
In260 O269 2.326 . S
In260 O271 2.294 . S
In260 O272 2.326 . S
O261 In260 2.294 . S
O261 C270 1.240 . S
O262 In260 2.326 . S
O262 C270 1.252 . S
C263 O266 1.252 . S
C263 O267 1.260 . S
C264 O271 1.240 . S
C264 O272 1.252 . S
C265 O268 1.252 . S
C265 O269 1.260 . S
O266 In260 2.266 . S
O266 C263 1.252 . S
O267 In260 2.326 . S
O267 C263 1.260 . S
O268 In260 2.266 . S
O268 C265 1.252 . S
O269 In260 2.326 . S
O269 C265 1.260 . S
C270 O261 1.240 . S
C270 O262 1.252 . S
O271 In260 2.294 . S
O271 C264 1.240 . S
O272 In260 2.326 . S
O272 C264 1.252 . S
In273 O274 2.294 . S
In273 O275 2.326 . S
In273 O279 2.266 . S
In273 O280 2.326 . S
In273 O281 2.266 . S
In273 O282 2.326 . S
In273 O284 2.294 . S
In273 O285 2.326 . S
O274 In273 2.294 . S
O274 C283 1.240 . S
O275 In273 2.326 . S
O275 C283 1.252 . S
C276 O279 1.252 . S
C276 O280 1.260 . S
C277 O284 1.240 . S
C277 O285 1.252 . S
C278 O281 1.252 . S
C278 O282 1.260 . S
O279 In273 2.266 . S
O279 C276 1.252 . S
O280 In273 2.326 . S
O280 C276 1.260 . S
O281 In273 2.266 . S
O281 C278 1.252 . S
O282 In273 2.326 . S
O282 C278 1.260 . S
C283 O274 1.240 . S
C283 O275 1.252 . S
O284 In273 2.294 . S
O284 C277 1.240 . S
O285 In273 2.326 . S
O285 C277 1.252 . S
In286 O287 2.294 . S
In286 O288 2.326 . S
In286 O292 2.266 . S
In286 O293 2.326 . S
In286 O294 2.266 . S
In286 O295 2.326 . S
In286 O297 2.294 . S
In286 O298 2.326 . S
O287 In286 2.294 . S
O287 C296 1.240 . S
O288 In286 2.326 . S
O288 C296 1.252 . S
C289 O292 1.252 . S
C289 O293 1.260 . S
C290 O297 1.240 . S
C290 O298 1.252 . S
C291 O294 1.252 . S
C291 O295 1.260 . S
O292 In286 2.266 . S
O292 C289 1.252 . S
O293 In286 2.326 . S
O293 C289 1.260 . S
O294 In286 2.266 . S
O294 C291 1.252 . S
O295 In286 2.326 . S
O295 C291 1.260 . S
C296 O287 1.240 . S
C296 O288 1.252 . S
O297 In286 2.294 . S
O297 C290 1.240 . S
O298 In286 2.326 . S
O298 C290 1.252 . S
In299 O300 2.294 . S
In299 O301 2.326 . S
In299 O305 2.266 . S
In299 O306 2.326 . S
In299 O307 2.266 . S
In299 O308 2.326 . S
In299 O310 2.294 . S
In299 O311 2.326 . S
O300 In299 2.294 . S
O300 C309 1.240 . S
O301 In299 2.326 . S
O301 C309 1.252 . S
C302 O305 1.252 . S
C302 O306 1.260 . S
C303 O310 1.240 . S
C303 O311 1.252 . S
C304 O307 1.252 . S
C304 O308 1.260 . S
O305 In299 2.266 . S
O305 C302 1.252 . S
O306 In299 2.326 . S
O306 C302 1.260 . S
O307 In299 2.266 . S
O307 C304 1.252 . S
O308 In299 2.326 . S
O308 C304 1.260 . S
C309 O300 1.240 . S
C309 O301 1.252 . S
O310 In299 2.294 . S
O310 C303 1.240 . S
O311 In299 2.326 . S
O311 C303 1.252 . S
In312 O313 2.294 . S
In312 O314 2.326 . S
In312 O318 2.266 . S
In312 O319 2.326 . S
In312 O320 2.266 . S
In312 O321 2.326 . S
In312 O323 2.294 . S
In312 O324 2.326 . S
O313 In312 2.294 . S
O313 C322 1.240 . S
O314 In312 2.326 . S
O314 C322 1.252 . S
C315 O318 1.252 . S
C315 O319 1.260 . S
C316 O323 1.240 . S
C316 O324 1.252 . S
C317 O320 1.252 . S
C317 O321 1.260 . S
O318 In312 2.266 . S
O318 C315 1.252 . S
O319 In312 2.326 . S
O319 C315 1.260 . S
O320 In312 2.266 . S
O320 C317 1.252 . S
O321 In312 2.326 . S
O321 C317 1.260 . S
C322 O313 1.240 . S
C322 O314 1.252 . S
O323 In312 2.294 . S
O323 C316 1.240 . S
O324 In312 2.326 . S
O324 C316 1.252 . S
In325 O326 2.294 . S
In325 O327 2.326 . S
In325 O331 2.266 . S
In325 O332 2.326 . S
In325 O333 2.266 . S
In325 O334 2.326 . S
In325 O336 2.294 . S
In325 O337 2.326 . S
O326 In325 2.294 . S
O326 C335 1.240 . S
O327 In325 2.326 . S
O327 C335 1.252 . S
C328 O331 1.252 . S
C328 O332 1.260 . S
C329 O336 1.240 . S
C329 O337 1.252 . S
C330 O333 1.252 . S
C330 O334 1.260 . S
O331 In325 2.266 . S
O331 C328 1.252 . S
O332 In325 2.326 . S
O332 C328 1.260 . S
O333 In325 2.266 . S
O333 C330 1.252 . S
O334 In325 2.326 . S
O334 C330 1.260 . S
C335 O326 1.240 . S
C335 O327 1.252 . S
O336 In325 2.294 . S
O336 C329 1.240 . S
O337 In325 2.326 . S
O337 C329 1.252 . S
In338 O339 2.294 . S
In338 O340 2.326 . S
In338 O344 2.266 . S
In338 O345 2.326 . S
In338 O346 2.266 . S
In338 O347 2.326 . S
In338 O349 2.294 . S
In338 O350 2.326 . S
O339 In338 2.294 . S
O339 C348 1.240 . S
O340 In338 2.326 . S
O340 C348 1.252 . S
C341 O344 1.252 . S
C341 O345 1.260 . S
C342 O349 1.240 . S
C342 O350 1.252 . S
C343 O346 1.252 . S
C343 O347 1.260 . S
O344 In338 2.266 . S
O344 C341 1.252 . S
O345 In338 2.326 . S
O345 C341 1.260 . S
O346 In338 2.266 . S
O346 C343 1.252 . S
O347 In338 2.326 . S
O347 C343 1.260 . S
C348 O339 1.240 . S
C348 O340 1.252 . S
O349 In338 2.294 . S
O349 C342 1.240 . S
O350 In338 2.326 . S
O350 C342 1.252 . S
In351 O352 2.294 . S
In351 O353 2.326 . S
In351 O357 2.266 . S
In351 O358 2.326 . S
In351 O359 2.266 . S
In351 O360 2.326 . S
In351 O362 2.294 . S
In351 O363 2.326 . S
O352 In351 2.294 . S
O352 C361 1.240 . S
O353 In351 2.326 . S
O353 C361 1.252 . S
C354 O357 1.252 . S
C354 O358 1.260 . S
C355 O362 1.240 . S
C355 O363 1.252 . S
C356 O359 1.252 . S
C356 O360 1.260 . S
O357 In351 2.266 . S
O357 C354 1.252 . S
O358 In351 2.326 . S
O358 C354 1.260 . S
O359 In351 2.266 . S
O359 C356 1.252 . S
O360 In351 2.326 . S
O360 C356 1.260 . S
C361 O352 1.240 . S
C361 O353 1.252 . S
O362 In351 2.294 . S
O362 C355 1.240 . S
O363 In351 2.326 . S
O363 C355 1.252 . S
In364 O365 2.294 . S
In364 O366 2.326 . S
In364 O370 2.266 . S
In364 O371 2.326 . S
In364 O372 2.266 . S
In364 O373 2.326 . S
In364 O375 2.294 . S
In364 O376 2.326 . S
O365 In364 2.294 . S
O365 C374 1.240 . S
O366 In364 2.326 . S
O366 C374 1.252 . S
C367 O370 1.252 . S
C367 O371 1.260 . S
C368 O375 1.240 . S
C368 O376 1.252 . S
C369 O372 1.252 . S
C369 O373 1.260 . S
O370 In364 2.266 . S
O370 C367 1.252 . S
O371 In364 2.326 . S
O371 C367 1.260 . S
O372 In364 2.266 . S
O372 C369 1.252 . S
O373 In364 2.326 . S
O373 C369 1.260 . S
C374 O365 1.240 . S
C374 O366 1.252 . S
O375 In364 2.294 . S
O375 C368 1.240 . S
O376 In364 2.326 . S
O376 C368 1.252 . S
In377 O378 2.294 . S
In377 O379 2.326 . S
In377 O383 2.266 . S
In377 O384 2.326 . S
In377 O385 2.266 . S
In377 O386 2.326 . S
In377 O388 2.294 . S
In377 O389 2.326 . S
O378 In377 2.294 . S
O378 C387 1.240 . S
O379 In377 2.326 . S
O379 C387 1.252 . S
C380 O383 1.252 . S
C380 O384 1.260 . S
C381 O388 1.240 . S
C381 O389 1.252 . S
C382 O385 1.252 . S
C382 O386 1.260 . S
O383 In377 2.266 . S
O383 C380 1.252 . S
O384 In377 2.326 . S
O384 C380 1.260 . S
O385 In377 2.266 . S
O385 C382 1.252 . S
O386 In377 2.326 . S
O386 C382 1.260 . S
C387 O378 1.240 . S
C387 O379 1.252 . S
O388 In377 2.294 . S
O388 C381 1.240 . S
O389 In377 2.326 . S
O389 C381 1.252 . S
In390 O391 2.294 . S
In390 O392 2.326 . S
In390 O396 2.266 . S
In390 O397 2.326 . S
In390 O398 2.266 . S
In390 O399 2.326 . S
In390 O401 2.294 . S
In390 O402 2.326 . S
O391 In390 2.294 . S
O391 C400 1.240 . S
O392 In390 2.326 . S
O392 C400 1.252 . S
C393 O396 1.252 . S
C393 O397 1.260 . S
C394 O401 1.240 . S
C394 O402 1.252 . S
C395 O398 1.252 . S
C395 O399 1.260 . S
O396 In390 2.266 . S
O396 C393 1.252 . S
O397 In390 2.326 . S
O397 C393 1.260 . S
O398 In390 2.266 . S
O398 C395 1.252 . S
O399 In390 2.326 . S
O399 C395 1.260 . S
C400 O391 1.240 . S
C400 O392 1.252 . S
O401 In390 2.294 . S
O401 C394 1.240 . S
O402 In390 2.326 . S
O402 C394 1.252 . S
In403 O404 2.294 . S
In403 O405 2.326 . S
In403 O409 2.266 . S
In403 O410 2.326 . S
In403 O411 2.266 . S
In403 O412 2.326 . S
In403 O414 2.294 . S
In403 O415 2.326 . S
O404 In403 2.294 . S
O404 C413 1.240 . S
O405 In403 2.326 . S
O405 C413 1.252 . S
C406 O409 1.252 . S
C406 O410 1.260 . S
C407 O414 1.240 . S
C407 O415 1.252 . S
C408 O411 1.252 . S
C408 O412 1.260 . S
O409 In403 2.266 . S
O409 C406 1.252 . S
O410 In403 2.326 . S
O410 C406 1.260 . S
O411 In403 2.266 . S
O411 C408 1.252 . S
O412 In403 2.326 . S
O412 C408 1.260 . S
C413 O404 1.240 . S
C413 O405 1.252 . S
O414 In403 2.294 . S
O414 C407 1.240 . S
O415 In403 2.326 . S
O415 C407 1.252 . S
H416 C424 0.929 . S
H417 C426 0.930 . S
H418 C428 0.930 . S
H419 C431 0.929 . S
H420 C434 0.930 . S
H421 C436 0.960 . S
H422 C436 0.960 . S
H423 C436 0.960 . S
C424 H416 0.929 . S
C424 C425 1.377 . S
C424 C426 1.384 . S
C425 C424 1.377 . S
C425 C431 1.390 . S
C426 H417 0.930 . S
C426 C424 1.384 . S
C426 C427 1.372 . S
C427 C426 1.372 . S
C427 C428 1.400 . S
C427 C432 1.490 . S
C428 H418 0.930 . S
C428 C427 1.400 . S
C428 C431 1.386 . S
H429 C445 0.930 . S
H430 C446 0.931 . S
C431 H419 0.929 . S
C431 C425 1.390 . S
C431 C428 1.386 . S
C432 C427 1.490 . S
C432 C434 1.395 . S
C432 C435 1.403 . S
H433 C439 0.930 . S
C434 H420 0.930 . S
C434 C432 1.395 . S
C434 C437 1.403 . S
C435 C432 1.403 . S
C435 C436 1.524 . S
C435 C439 1.400 . S
C436 H421 0.960 . S
C436 H422 0.960 . S
C436 H423 0.960 . S
C436 C435 1.524 . S
C437 C434 1.403 . S
C437 C438 1.392 . S
C437 C441 1.495 . S
C438 C437 1.392 . S
C438 C439 1.385 . S
C438 C440 1.478 . S
C439 H433 0.930 . S
C439 C435 1.400 . S
C439 C438 1.385 . S
C440 C438 1.478 . S
C440 C442 1.381 . S
C440 C446 1.383 . S
C441 C437 1.495 . S
C441 H447 0.959 . S
C441 H448 0.961 . S
C441 H449 0.960 . S
C442 C440 1.381 . S
C442 C443 1.394 . S
C442 H450 0.930 . S
C443 C442 1.394 . S
C443 C444 1.383 . S
C443 H451 0.929 . S
C444 C443 1.383 . S
C444 C445 1.377 . S
C445 H429 0.930 . S
C445 C444 1.377 . S
C445 C446 1.379 . S
C446 H430 0.931 . S
C446 C440 1.383 . S
C446 C445 1.379 . S
H447 C441 0.959 . S
H448 C441 0.961 . S
H449 C441 0.960 . S
H450 C442 0.930 . S
H451 C443 0.929 . S
H452 C460 0.929 . S
H453 C462 0.930 . S
H454 C464 0.930 . S
H455 C467 0.929 . S
H456 C470 0.930 . S
H457 C472 0.960 . S
H458 C472 0.960 . S
H459 C472 0.960 . S
C460 H452 0.929 . S
C460 C461 1.377 . S
C460 C462 1.384 . S
C461 C460 1.377 . S
C461 C467 1.390 . S
C462 H453 0.930 . S
C462 C460 1.384 . S
C462 C463 1.372 . S
C463 C462 1.372 . S
C463 C464 1.400 . S
C463 C468 1.490 . S
C464 H454 0.930 . S
C464 C463 1.400 . S
C464 C467 1.386 . S
H465 C481 0.930 . S
H466 C482 0.931 . S
C467 H455 0.929 . S
C467 C461 1.390 . S
C467 C464 1.386 . S
C468 C463 1.490 . S
C468 C470 1.395 . S
C468 C471 1.403 . S
H469 C475 0.930 . S
C470 H456 0.930 . S
C470 C468 1.395 . S
C470 C473 1.403 . S
C471 C468 1.403 . S
C471 C472 1.524 . S
C471 C475 1.400 . S
C472 H457 0.960 . S
C472 H458 0.960 . S
C472 H459 0.960 . S
C472 C471 1.524 . S
C473 C470 1.403 . S
C473 C474 1.392 . S
C473 C477 1.495 . S
C474 C473 1.392 . S
C474 C475 1.385 . S
C474 C476 1.478 . S
C475 H469 0.930 . S
C475 C471 1.400 . S
C475 C474 1.385 . S
C476 C474 1.478 . S
C476 C478 1.381 . S
C476 C482 1.383 . S
C477 C473 1.495 . S
C477 H483 0.959 . S
C477 H484 0.961 . S
C477 H485 0.960 . S
C478 C476 1.381 . S
C478 C479 1.394 . S
C478 H486 0.930 . S
C479 C478 1.394 . S
C479 C480 1.383 . S
C479 H487 0.929 . S
C480 C479 1.383 . S
C480 C481 1.377 . S
C481 H465 0.930 . S
C481 C480 1.377 . S
C481 C482 1.379 . S
C482 H466 0.931 . S
C482 C476 1.383 . S
C482 C481 1.379 . S
H483 C477 0.959 . S
H484 C477 0.961 . S
H485 C477 0.960 . S
H486 C478 0.930 . S
H487 C479 0.929 . S
H488 C496 0.929 . S
H489 C498 0.930 . S
H490 C500 0.930 . S
H491 C503 0.929 . S
H492 C506 0.930 . S
H493 C508 0.960 . S
H494 C508 0.960 . S
H495 C508 0.960 . S
C496 H488 0.929 . S
C496 C497 1.377 . S
C496 C498 1.384 . S
C497 C496 1.377 . S
C497 C503 1.390 . S
C498 H489 0.930 . S
C498 C496 1.384 . S
C498 C499 1.372 . S
C499 C498 1.372 . S
C499 C500 1.400 . S
C499 C504 1.490 . S
C500 H490 0.930 . S
C500 C499 1.400 . S
C500 C503 1.386 . S
H501 C517 0.930 . S
H502 C518 0.931 . S
C503 H491 0.929 . S
C503 C497 1.390 . S
C503 C500 1.386 . S
C504 C499 1.490 . S
C504 C506 1.395 . S
C504 C507 1.403 . S
H505 C511 0.930 . S
C506 H492 0.930 . S
C506 C504 1.395 . S
C506 C509 1.403 . S
C507 C504 1.403 . S
C507 C508 1.524 . S
C507 C511 1.400 . S
C508 H493 0.960 . S
C508 H494 0.960 . S
C508 H495 0.960 . S
C508 C507 1.524 . S
C509 C506 1.403 . S
C509 C510 1.392 . S
C509 C513 1.495 . S
C510 C509 1.392 . S
C510 C511 1.385 . S
C510 C512 1.478 . S
C511 H505 0.930 . S
C511 C507 1.400 . S
C511 C510 1.385 . S
C512 C510 1.478 . S
C512 C514 1.381 . S
C512 C518 1.383 . S
C513 C509 1.495 . S
C513 H519 0.959 . S
C513 H520 0.961 . S
C513 H521 0.960 . S
C514 C512 1.381 . S
C514 C515 1.394 . S
C514 H522 0.930 . S
C515 C514 1.394 . S
C515 C516 1.383 . S
C515 H523 0.929 . S
C516 C515 1.383 . S
C516 C517 1.377 . S
C517 H501 0.930 . S
C517 C516 1.377 . S
C517 C518 1.379 . S
C518 H502 0.931 . S
C518 C512 1.383 . S
C518 C517 1.379 . S
H519 C513 0.959 . S
H520 C513 0.961 . S
H521 C513 0.960 . S
H522 C514 0.930 . S
H523 C515 0.929 . S
H524 C532 0.929 . S
H525 C534 0.930 . S
H526 C536 0.930 . S
H527 C539 0.929 . S
H528 C542 0.930 . S
H529 C544 0.960 . S
H530 C544 0.960 . S
H531 C544 0.960 . S
C532 H524 0.929 . S
C532 C533 1.377 . S
C532 C534 1.384 . S
C533 C532 1.377 . S
C533 C539 1.390 . S
C534 H525 0.930 . S
C534 C532 1.384 . S
C534 C535 1.372 . S
C535 C534 1.372 . S
C535 C536 1.400 . S
C535 C540 1.490 . S
C536 H526 0.930 . S
C536 C535 1.400 . S
C536 C539 1.386 . S
H537 C553 0.930 . S
H538 C554 0.931 . S
C539 H527 0.929 . S
C539 C533 1.390 . S
C539 C536 1.386 . S
C540 C535 1.490 . S
C540 C542 1.395 . S
C540 C543 1.403 . S
H541 C547 0.930 . S
C542 H528 0.930 . S
C542 C540 1.395 . S
C542 C545 1.403 . S
C543 C540 1.403 . S
C543 C544 1.524 . S
C543 C547 1.400 . S
C544 H529 0.960 . S
C544 H530 0.960 . S
C544 H531 0.960 . S
C544 C543 1.524 . S
C545 C542 1.403 . S
C545 C546 1.392 . S
C545 C549 1.495 . S
C546 C545 1.392 . S
C546 C547 1.385 . S
C546 C548 1.478 . S
C547 H541 0.930 . S
C547 C543 1.400 . S
C547 C546 1.385 . S
C548 C546 1.478 . S
C548 C550 1.381 . S
C548 C554 1.383 . S
C549 C545 1.495 . S
C549 H555 0.959 . S
C549 H556 0.961 . S
C549 H557 0.960 . S
C550 C548 1.381 . S
C550 C551 1.394 . S
C550 H558 0.930 . S
C551 C550 1.394 . S
C551 C552 1.383 . S
C551 H559 0.929 . S
C552 C551 1.383 . S
C552 C553 1.377 . S
C553 H537 0.930 . S
C553 C552 1.377 . S
C553 C554 1.379 . S
C554 H538 0.931 . S
C554 C548 1.383 . S
C554 C553 1.379 . S
H555 C549 0.959 . S
H556 C549 0.961 . S
H557 C549 0.960 . S
H558 C550 0.930 . S
H559 C551 0.929 . S
H560 C568 0.929 . S
H561 C570 0.930 . S
H562 C572 0.930 . S
H563 C575 0.929 . S
H564 C578 0.930 . S
H565 C580 0.960 . S
H566 C580 0.960 . S
H567 C580 0.960 . S
C568 H560 0.929 . S
C568 C569 1.377 . S
C568 C570 1.384 . S
C569 C568 1.377 . S
C569 C575 1.390 . S
C570 H561 0.930 . S
C570 C568 1.384 . S
C570 C571 1.372 . S
C571 C570 1.372 . S
C571 C572 1.400 . S
C571 C576 1.490 . S
C572 H562 0.930 . S
C572 C571 1.400 . S
C572 C575 1.386 . S
H573 C589 0.930 . S
H574 C590 0.931 . S
C575 H563 0.929 . S
C575 C569 1.390 . S
C575 C572 1.386 . S
C576 C571 1.490 . S
C576 C578 1.395 . S
C576 C579 1.403 . S
H577 C583 0.930 . S
C578 H564 0.930 . S
C578 C576 1.395 . S
C578 C581 1.403 . S
C579 C576 1.403 . S
C579 C580 1.524 . S
C579 C583 1.400 . S
C580 H565 0.960 . S
C580 H566 0.960 . S
C580 H567 0.960 . S
C580 C579 1.524 . S
C581 C578 1.403 . S
C581 C582 1.392 . S
C581 C585 1.495 . S
C582 C581 1.392 . S
C582 C583 1.385 . S
C582 C584 1.478 . S
C583 H577 0.930 . S
C583 C579 1.400 . S
C583 C582 1.385 . S
C584 C582 1.478 . S
C584 C586 1.381 . S
C584 C590 1.383 . S
C585 C581 1.495 . S
C585 H591 0.959 . S
C585 H592 0.961 . S
C585 H593 0.960 . S
C586 C584 1.381 . S
C586 C587 1.394 . S
C586 H594 0.930 . S
C587 C586 1.394 . S
C587 C588 1.383 . S
C587 H595 0.929 . S
C588 C587 1.383 . S
C588 C589 1.377 . S
C589 H573 0.930 . S
C589 C588 1.377 . S
C589 C590 1.379 . S
C590 H574 0.931 . S
C590 C584 1.383 . S
C590 C589 1.379 . S
H591 C585 0.959 . S
H592 C585 0.961 . S
H593 C585 0.960 . S
H594 C586 0.930 . S
H595 C587 0.929 . S
H596 C604 0.929 . S
H597 C606 0.930 . S
H598 C608 0.930 . S
H599 C611 0.929 . S
H600 C614 0.930 . S
H601 C616 0.960 . S
H602 C616 0.960 . S
H603 C616 0.960 . S
C604 H596 0.929 . S
C604 C605 1.377 . S
C604 C606 1.384 . S
C605 C604 1.377 . S
C605 C611 1.390 . S
C606 H597 0.930 . S
C606 C604 1.384 . S
C606 C607 1.372 . S
C607 C606 1.372 . S
C607 C608 1.400 . S
C607 C612 1.490 . S
C608 H598 0.930 . S
C608 C607 1.400 . S
C608 C611 1.386 . S
H609 C625 0.930 . S
H610 C626 0.931 . S
C611 H599 0.929 . S
C611 C605 1.390 . S
C611 C608 1.386 . S
C612 C607 1.490 . S
C612 C614 1.395 . S
C612 C615 1.403 . S
H613 C619 0.930 . S
C614 H600 0.930 . S
C614 C612 1.395 . S
C614 C617 1.403 . S
C615 C612 1.403 . S
C615 C616 1.524 . S
C615 C619 1.400 . S
C616 H601 0.960 . S
C616 H602 0.960 . S
C616 H603 0.960 . S
C616 C615 1.524 . S
C617 C614 1.403 . S
C617 C618 1.392 . S
C617 C621 1.495 . S
C618 C617 1.392 . S
C618 C619 1.385 . S
C618 C620 1.478 . S
C619 H613 0.930 . S
C619 C615 1.400 . S
C619 C618 1.385 . S
C620 C618 1.478 . S
C620 C622 1.381 . S
C620 C626 1.383 . S
C621 C617 1.495 . S
C621 H627 0.959 . S
C621 H628 0.961 . S
C621 H629 0.960 . S
C622 C620 1.381 . S
C622 C623 1.394 . S
C622 H630 0.930 . S
C623 C622 1.394 . S
C623 C624 1.383 . S
C623 H631 0.929 . S
C624 C623 1.383 . S
C624 C625 1.377 . S
C625 H609 0.930 . S
C625 C624 1.377 . S
C625 C626 1.379 . S
C626 H610 0.931 . S
C626 C620 1.383 . S
C626 C625 1.379 . S
H627 C621 0.959 . S
H628 C621 0.961 . S
H629 C621 0.960 . S
H630 C622 0.930 . S
H631 C623 0.929 . S
H632 C640 0.929 . S
H633 C642 0.930 . S
H634 C644 0.930 . S
H635 C647 0.929 . S
H636 C650 0.930 . S
H637 C652 0.960 . S
H638 C652 0.960 . S
H639 C652 0.960 . S
C640 H632 0.929 . S
C640 C641 1.377 . S
C640 C642 1.384 . S
C641 C640 1.377 . S
C641 C647 1.390 . S
C642 H633 0.930 . S
C642 C640 1.384 . S
C642 C643 1.372 . S
C643 C642 1.372 . S
C643 C644 1.400 . S
C643 C648 1.490 . S
C644 H634 0.930 . S
C644 C643 1.400 . S
C644 C647 1.386 . S
H645 C661 0.930 . S
H646 C662 0.931 . S
C647 H635 0.929 . S
C647 C641 1.390 . S
C647 C644 1.386 . S
C648 C643 1.490 . S
C648 C650 1.395 . S
C648 C651 1.403 . S
H649 C655 0.930 . S
C650 H636 0.930 . S
C650 C648 1.395 . S
C650 C653 1.403 . S
C651 C648 1.403 . S
C651 C652 1.524 . S
C651 C655 1.400 . S
C652 H637 0.960 . S
C652 H638 0.960 . S
C652 H639 0.960 . S
C652 C651 1.524 . S
C653 C650 1.403 . S
C653 C654 1.392 . S
C653 C657 1.495 . S
C654 C653 1.392 . S
C654 C655 1.385 . S
C654 C656 1.478 . S
C655 H649 0.930 . S
C655 C651 1.400 . S
C655 C654 1.385 . S
C656 C654 1.478 . S
C656 C658 1.381 . S
C656 C662 1.383 . S
C657 C653 1.495 . S
C657 H663 0.959 . S
C657 H664 0.961 . S
C657 H665 0.960 . S
C658 C656 1.381 . S
C658 C659 1.394 . S
C658 H666 0.930 . S
C659 C658 1.394 . S
C659 C660 1.383 . S
C659 H667 0.929 . S
C660 C659 1.383 . S
C660 C661 1.377 . S
C661 H645 0.930 . S
C661 C660 1.377 . S
C661 C662 1.379 . S
C662 H646 0.931 . S
C662 C656 1.383 . S
C662 C661 1.379 . S
H663 C657 0.959 . S
H664 C657 0.961 . S
H665 C657 0.960 . S
H666 C658 0.930 . S
H667 C659 0.929 . S
H668 C676 0.929 . S
H669 C678 0.930 . S
H670 C680 0.930 . S
H671 C683 0.929 . S
H672 C686 0.930 . S
H673 C688 0.960 . S
H674 C688 0.960 . S
H675 C688 0.960 . S
C676 H668 0.929 . S
C676 C677 1.377 . S
C676 C678 1.384 . S
C677 C676 1.377 . S
C677 C683 1.390 . S
C678 H669 0.930 . S
C678 C676 1.384 . S
C678 C679 1.372 . S
C679 C678 1.372 . S
C679 C680 1.400 . S
C679 C684 1.490 . S
C680 H670 0.930 . S
C680 C679 1.400 . S
C680 C683 1.386 . S
H681 C697 0.930 . S
H682 C698 0.931 . S
C683 H671 0.929 . S
C683 C677 1.390 . S
C683 C680 1.386 . S
C684 C679 1.490 . S
C684 C686 1.395 . S
C684 C687 1.403 . S
H685 C691 0.930 . S
C686 H672 0.930 . S
C686 C684 1.395 . S
C686 C689 1.403 . S
C687 C684 1.403 . S
C687 C688 1.524 . S
C687 C691 1.400 . S
C688 H673 0.960 . S
C688 H674 0.960 . S
C688 H675 0.960 . S
C688 C687 1.524 . S
C689 C686 1.403 . S
C689 C690 1.392 . S
C689 C693 1.495 . S
C690 C689 1.392 . S
C690 C691 1.385 . S
C690 C692 1.478 . S
C691 H685 0.930 . S
C691 C687 1.400 . S
C691 C690 1.385 . S
C692 C690 1.478 . S
C692 C694 1.381 . S
C692 C698 1.383 . S
C693 C689 1.495 . S
C693 H699 0.959 . S
C693 H700 0.961 . S
C693 H701 0.960 . S
C694 C692 1.381 . S
C694 C695 1.394 . S
C694 H702 0.930 . S
C695 C694 1.394 . S
C695 C696 1.383 . S
C695 H703 0.929 . S
C696 C695 1.383 . S
C696 C697 1.377 . S
C697 H681 0.930 . S
C697 C696 1.377 . S
C697 C698 1.379 . S
C698 H682 0.931 . S
C698 C692 1.383 . S
C698 C697 1.379 . S
H699 C693 0.959 . S
H700 C693 0.961 . S
H701 C693 0.960 . S
H702 C694 0.930 . S
H703 C695 0.929 . S
H704 C712 0.929 . S
H705 C714 0.930 . S
H706 C716 0.930 . S
H707 C719 0.929 . S
H708 C722 0.930 . S
H709 C724 0.960 . S
H710 C724 0.960 . S
H711 C724 0.960 . S
C712 H704 0.929 . S
C712 C713 1.377 . S
C712 C714 1.384 . S
C713 C712 1.377 . S
C713 C719 1.390 . S
C714 H705 0.930 . S
C714 C712 1.384 . S
C714 C715 1.372 . S
C715 C714 1.372 . S
C715 C716 1.400 . S
C715 C720 1.490 . S
C716 H706 0.930 . S
C716 C715 1.400 . S
C716 C719 1.386 . S
H717 C733 0.930 . S
H718 C734 0.931 . S
C719 H707 0.929 . S
C719 C713 1.390 . S
C719 C716 1.386 . S
C720 C715 1.490 . S
C720 C722 1.395 . S
C720 C723 1.403 . S
H721 C727 0.930 . S
C722 H708 0.930 . S
C722 C720 1.395 . S
C722 C725 1.403 . S
C723 C720 1.403 . S
C723 C724 1.524 . S
C723 C727 1.400 . S
C724 H709 0.960 . S
C724 H710 0.960 . S
C724 H711 0.960 . S
C724 C723 1.524 . S
C725 C722 1.403 . S
C725 C726 1.392 . S
C725 C729 1.495 . S
C726 C725 1.392 . S
C726 C727 1.385 . S
C726 C728 1.478 . S
C727 H721 0.930 . S
C727 C723 1.400 . S
C727 C726 1.385 . S
C728 C726 1.478 . S
C728 C730 1.381 . S
C728 C734 1.383 . S
C729 C725 1.495 . S
C729 H735 0.959 . S
C729 H736 0.961 . S
C729 H737 0.960 . S
C730 C728 1.381 . S
C730 C731 1.394 . S
C730 H738 0.930 . S
C731 C730 1.394 . S
C731 C732 1.383 . S
C731 H739 0.929 . S
C732 C731 1.383 . S
C732 C733 1.377 . S
C733 H717 0.930 . S
C733 C732 1.377 . S
C733 C734 1.379 . S
C734 H718 0.931 . S
C734 C728 1.383 . S
C734 C733 1.379 . S
H735 C729 0.959 . S
H736 C729 0.961 . S
H737 C729 0.960 . S
H738 C730 0.930 . S
H739 C731 0.929 . S
H740 C748 0.929 . S
H741 C750 0.930 . S
H742 C752 0.930 . S
H743 C755 0.929 . S
H744 C758 0.930 . S
H745 C760 0.960 . S
H746 C760 0.960 . S
H747 C760 0.960 . S
C748 H740 0.929 . S
C748 C749 1.377 . S
C748 C750 1.384 . S
C749 C748 1.377 . S
C749 C755 1.390 . S
C750 H741 0.930 . S
C750 C748 1.384 . S
C750 C751 1.372 . S
C751 C750 1.372 . S
C751 C752 1.400 . S
C751 C756 1.490 . S
C752 H742 0.930 . S
C752 C751 1.400 . S
C752 C755 1.386 . S
H753 C769 0.930 . S
H754 C770 0.931 . S
C755 H743 0.929 . S
C755 C749 1.390 . S
C755 C752 1.386 . S
C756 C751 1.490 . S
C756 C758 1.395 . S
C756 C759 1.403 . S
H757 C763 0.930 . S
C758 H744 0.930 . S
C758 C756 1.395 . S
C758 C761 1.403 . S
C759 C756 1.403 . S
C759 C760 1.524 . S
C759 C763 1.400 . S
C760 H745 0.960 . S
C760 H746 0.960 . S
C760 H747 0.960 . S
C760 C759 1.524 . S
C761 C758 1.403 . S
C761 C762 1.392 . S
C761 C765 1.495 . S
C762 C761 1.392 . S
C762 C763 1.385 . S
C762 C764 1.478 . S
C763 H757 0.930 . S
C763 C759 1.400 . S
C763 C762 1.385 . S
C764 C762 1.478 . S
C764 C766 1.381 . S
C764 C770 1.383 . S
C765 C761 1.495 . S
C765 H771 0.959 . S
C765 H772 0.961 . S
C765 H773 0.960 . S
C766 C764 1.381 . S
C766 C767 1.394 . S
C766 H774 0.930 . S
C767 C766 1.394 . S
C767 C768 1.383 . S
C767 H775 0.929 . S
C768 C767 1.383 . S
C768 C769 1.377 . S
C769 H753 0.930 . S
C769 C768 1.377 . S
C769 C770 1.379 . S
C770 H754 0.931 . S
C770 C764 1.383 . S
C770 C769 1.379 . S
H771 C765 0.959 . S
H772 C765 0.961 . S
H773 C765 0.960 . S
H774 C766 0.930 . S
H775 C767 0.929 . S
H776 C784 0.929 . S
H777 C786 0.930 . S
H778 C788 0.930 . S
H779 C791 0.929 . S
H780 C794 0.930 . S
H781 C796 0.960 . S
H782 C796 0.960 . S
H783 C796 0.960 . S
C784 H776 0.929 . S
C784 C785 1.377 . S
C784 C786 1.384 . S
C785 C784 1.377 . S
C785 C791 1.390 . S
C786 H777 0.930 . S
C786 C784 1.384 . S
C786 C787 1.372 . S
C787 C786 1.372 . S
C787 C788 1.400 . S
C787 C792 1.490 . S
C788 H778 0.930 . S
C788 C787 1.400 . S
C788 C791 1.386 . S
H789 C805 0.930 . S
H790 C806 0.931 . S
C791 H779 0.929 . S
C791 C785 1.390 . S
C791 C788 1.386 . S
C792 C787 1.490 . S
C792 C794 1.395 . S
C792 C795 1.403 . S
H793 C799 0.930 . S
C794 H780 0.930 . S
C794 C792 1.395 . S
C794 C797 1.403 . S
C795 C792 1.403 . S
C795 C796 1.524 . S
C795 C799 1.400 . S
C796 H781 0.960 . S
C796 H782 0.960 . S
C796 H783 0.960 . S
C796 C795 1.524 . S
C797 C794 1.403 . S
C797 C798 1.392 . S
C797 C801 1.495 . S
C798 C797 1.392 . S
C798 C799 1.385 . S
C798 C800 1.478 . S
C799 H793 0.930 . S
C799 C795 1.400 . S
C799 C798 1.385 . S
C800 C798 1.478 . S
C800 C802 1.381 . S
C800 C806 1.383 . S
C801 C797 1.495 . S
C801 H807 0.959 . S
C801 H808 0.961 . S
C801 H809 0.960 . S
C802 C800 1.381 . S
C802 C803 1.394 . S
C802 H810 0.930 . S
C803 C802 1.394 . S
C803 C804 1.383 . S
C803 H811 0.929 . S
C804 C803 1.383 . S
C804 C805 1.377 . S
C805 H789 0.930 . S
C805 C804 1.377 . S
C805 C806 1.379 . S
C806 H790 0.931 . S
C806 C800 1.383 . S
C806 C805 1.379 . S
H807 C801 0.959 . S
H808 C801 0.961 . S
H809 C801 0.960 . S
H810 C802 0.930 . S
H811 C803 0.929 . S
H812 C820 0.929 . S
H813 C822 0.930 . S
H814 C824 0.930 . S
H815 C827 0.929 . S
H816 C830 0.930 . S
H817 C832 0.960 . S
H818 C832 0.960 . S
H819 C832 0.960 . S
C820 H812 0.929 . S
C820 C821 1.377 . S
C820 C822 1.384 . S
C821 C820 1.377 . S
C821 C827 1.390 . S
C822 H813 0.930 . S
C822 C820 1.384 . S
C822 C823 1.372 . S
C823 C822 1.372 . S
C823 C824 1.400 . S
C823 C828 1.490 . S
C824 H814 0.930 . S
C824 C823 1.400 . S
C824 C827 1.386 . S
H825 C841 0.930 . S
H826 C842 0.931 . S
C827 H815 0.929 . S
C827 C821 1.390 . S
C827 C824 1.386 . S
C828 C823 1.490 . S
C828 C830 1.395 . S
C828 C831 1.403 . S
H829 C835 0.930 . S
C830 H816 0.930 . S
C830 C828 1.395 . S
C830 C833 1.403 . S
C831 C828 1.403 . S
C831 C832 1.524 . S
C831 C835 1.400 . S
C832 H817 0.960 . S
C832 H818 0.960 . S
C832 H819 0.960 . S
C832 C831 1.524 . S
C833 C830 1.403 . S
C833 C834 1.392 . S
C833 C837 1.495 . S
C834 C833 1.392 . S
C834 C835 1.385 . S
C834 C836 1.478 . S
C835 H829 0.930 . S
C835 C831 1.400 . S
C835 C834 1.385 . S
C836 C834 1.478 . S
C836 C838 1.381 . S
C836 C842 1.383 . S
C837 C833 1.495 . S
C837 H843 0.959 . S
C837 H844 0.961 . S
C837 H845 0.960 . S
C838 C836 1.381 . S
C838 C839 1.394 . S
C838 H846 0.930 . S
C839 C838 1.394 . S
C839 C840 1.383 . S
C839 H847 0.929 . S
C840 C839 1.383 . S
C840 C841 1.377 . S
C841 H825 0.930 . S
C841 C840 1.377 . S
C841 C842 1.379 . S
C842 H826 0.931 . S
C842 C836 1.383 . S
C842 C841 1.379 . S
H843 C837 0.959 . S
H844 C837 0.961 . S
H845 C837 0.960 . S
H846 C838 0.930 . S
H847 C839 0.929 . S
H848 C856 0.929 . S
H849 C858 0.930 . S
H850 C860 0.930 . S
H851 C863 0.929 . S
H852 C866 0.930 . S
H853 C868 0.960 . S
H854 C868 0.960 . S
H855 C868 0.960 . S
C856 H848 0.929 . S
C856 C857 1.377 . S
C856 C858 1.384 . S
C857 C856 1.377 . S
C857 C863 1.390 . S
C858 H849 0.930 . S
C858 C856 1.384 . S
C858 C859 1.372 . S
C859 C858 1.372 . S
C859 C860 1.400 . S
C859 C864 1.490 . S
C860 H850 0.930 . S
C860 C859 1.400 . S
C860 C863 1.386 . S
H861 C877 0.930 . S
H862 C878 0.931 . S
C863 H851 0.929 . S
C863 C857 1.390 . S
C863 C860 1.386 . S
C864 C859 1.490 . S
C864 C866 1.395 . S
C864 C867 1.403 . S
H865 C871 0.930 . S
C866 H852 0.930 . S
C866 C864 1.395 . S
C866 C869 1.403 . S
C867 C864 1.403 . S
C867 C868 1.524 . S
C867 C871 1.400 . S
C868 H853 0.960 . S
C868 H854 0.960 . S
C868 H855 0.960 . S
C868 C867 1.524 . S
C869 C866 1.403 . S
C869 C870 1.392 . S
C869 C873 1.495 . S
C870 C869 1.392 . S
C870 C871 1.385 . S
C870 C872 1.478 . S
C871 H865 0.930 . S
C871 C867 1.400 . S
C871 C870 1.385 . S
C872 C870 1.478 . S
C872 C874 1.381 . S
C872 C878 1.383 . S
C873 C869 1.495 . S
C873 H879 0.959 . S
C873 H880 0.961 . S
C873 H881 0.960 . S
C874 C872 1.381 . S
C874 C875 1.394 . S
C874 H882 0.930 . S
C875 C874 1.394 . S
C875 C876 1.383 . S
C875 H883 0.929 . S
C876 C875 1.383 . S
C876 C877 1.377 . S
C877 H861 0.930 . S
C877 C876 1.377 . S
C877 C878 1.379 . S
C878 H862 0.931 . S
C878 C872 1.383 . S
C878 C877 1.379 . S
H879 C873 0.959 . S
H880 C873 0.961 . S
H881 C873 0.960 . S
H882 C874 0.930 . S
H883 C875 0.929 . S
H884 C892 0.929 . S
H885 C894 0.930 . S
H886 C896 0.930 . S
H887 C899 0.929 . S
H888 C902 0.930 . S
H889 C904 0.960 . S
H890 C904 0.960 . S
H891 C904 0.960 . S
C892 H884 0.929 . S
C892 C893 1.377 . S
C892 C894 1.384 . S
C893 C892 1.377 . S
C893 C899 1.390 . S
C894 H885 0.930 . S
C894 C892 1.384 . S
C894 C895 1.372 . S
C895 C894 1.372 . S
C895 C896 1.400 . S
C895 C900 1.490 . S
C896 H886 0.930 . S
C896 C895 1.400 . S
C896 C899 1.386 . S
H897 C913 0.930 . S
H898 C914 0.931 . S
C899 H887 0.929 . S
C899 C893 1.390 . S
C899 C896 1.386 . S
C900 C895 1.490 . S
C900 C902 1.395 . S
C900 C903 1.403 . S
H901 C907 0.930 . S
C902 H888 0.930 . S
C902 C900 1.395 . S
C902 C905 1.403 . S
C903 C900 1.403 . S
C903 C904 1.524 . S
C903 C907 1.400 . S
C904 H889 0.960 . S
C904 H890 0.960 . S
C904 H891 0.960 . S
C904 C903 1.524 . S
C905 C902 1.403 . S
C905 C906 1.392 . S
C905 C909 1.495 . S
C906 C905 1.392 . S
C906 C907 1.385 . S
C906 C908 1.478 . S
C907 H901 0.930 . S
C907 C903 1.400 . S
C907 C906 1.385 . S
C908 C906 1.478 . S
C908 C910 1.381 . S
C908 C914 1.383 . S
C909 C905 1.495 . S
C909 H915 0.959 . S
C909 H916 0.961 . S
C909 H917 0.960 . S
C910 C908 1.381 . S
C910 C911 1.394 . S
C910 H918 0.930 . S
C911 C910 1.394 . S
C911 C912 1.383 . S
C911 H919 0.929 . S
C912 C911 1.383 . S
C912 C913 1.377 . S
C913 H897 0.930 . S
C913 C912 1.377 . S
C913 C914 1.379 . S
C914 H898 0.931 . S
C914 C908 1.383 . S
C914 C913 1.379 . S
H915 C909 0.959 . S
H916 C909 0.961 . S
H917 C909 0.960 . S
H918 C910 0.930 . S
H919 C911 0.929 . S
H920 C928 0.929 . S
H921 C930 0.930 . S
H922 C932 0.930 . S
H923 C935 0.929 . S
H924 C938 0.930 . S
H925 C940 0.960 . S
H926 C940 0.960 . S
H927 C940 0.960 . S
C928 H920 0.929 . S
C928 C929 1.377 . S
C928 C930 1.384 . S
C929 C928 1.377 . S
C929 C935 1.390 . S
C930 H921 0.930 . S
C930 C928 1.384 . S
C930 C931 1.372 . S
C931 C930 1.372 . S
C931 C932 1.400 . S
C931 C936 1.490 . S
C932 H922 0.930 . S
C932 C931 1.400 . S
C932 C935 1.386 . S
H933 C949 0.930 . S
H934 C950 0.931 . S
C935 H923 0.929 . S
C935 C929 1.390 . S
C935 C932 1.386 . S
C936 C931 1.490 . S
C936 C938 1.395 . S
C936 C939 1.403 . S
H937 C943 0.930 . S
C938 H924 0.930 . S
C938 C936 1.395 . S
C938 C941 1.403 . S
C939 C936 1.403 . S
C939 C940 1.524 . S
C939 C943 1.400 . S
C940 H925 0.960 . S
C940 H926 0.960 . S
C940 H927 0.960 . S
C940 C939 1.524 . S
C941 C938 1.403 . S
C941 C942 1.392 . S
C941 C945 1.495 . S
C942 C941 1.392 . S
C942 C943 1.385 . S
C942 C944 1.478 . S
C943 H937 0.930 . S
C943 C939 1.400 . S
C943 C942 1.385 . S
C944 C942 1.478 . S
C944 C946 1.381 . S
C944 C950 1.383 . S
C945 C941 1.495 . S
C945 H951 0.959 . S
C945 H952 0.961 . S
C945 H953 0.960 . S
C946 C944 1.381 . S
C946 C947 1.394 . S
C946 H954 0.930 . S
C947 C946 1.394 . S
C947 C948 1.383 . S
C947 H955 0.929 . S
C948 C947 1.383 . S
C948 C949 1.377 . S
C949 H933 0.930 . S
C949 C948 1.377 . S
C949 C950 1.379 . S
C950 H934 0.931 . S
C950 C944 1.383 . S
C950 C949 1.379 . S
H951 C945 0.959 . S
H952 C945 0.961 . S
H953 C945 0.960 . S
H954 C946 0.930 . S
H955 C947 0.929 . S
H956 C964 0.929 . S
H957 C966 0.930 . S
H958 C968 0.930 . S
H959 C971 0.929 . S
H960 C974 0.930 . S
H961 C976 0.960 . S
H962 C976 0.960 . S
H963 C976 0.960 . S
C964 H956 0.929 . S
C964 C965 1.377 . S
C964 C966 1.384 . S
C965 C964 1.377 . S
C965 C971 1.390 . S
C966 H957 0.930 . S
C966 C964 1.384 . S
C966 C967 1.372 . S
C967 C966 1.372 . S
C967 C968 1.400 . S
C967 C972 1.490 . S
C968 H958 0.930 . S
C968 C967 1.400 . S
C968 C971 1.386 . S
H969 C985 0.930 . S
H970 C986 0.931 . S
C971 H959 0.929 . S
C971 C965 1.390 . S
C971 C968 1.386 . S
C972 C967 1.490 . S
C972 C974 1.395 . S
C972 C975 1.403 . S
H973 C979 0.930 . S
C974 H960 0.930 . S
C974 C972 1.395 . S
C974 C977 1.403 . S
C975 C972 1.403 . S
C975 C976 1.524 . S
C975 C979 1.400 . S
C976 H961 0.960 . S
C976 H962 0.960 . S
C976 H963 0.960 . S
C976 C975 1.524 . S
C977 C974 1.403 . S
C977 C978 1.392 . S
C977 C981 1.495 . S
C978 C977 1.392 . S
C978 C979 1.385 . S
C978 C980 1.478 . S
C979 H973 0.930 . S
C979 C975 1.400 . S
C979 C978 1.385 . S
C980 C978 1.478 . S
C980 C982 1.381 . S
C980 C986 1.383 . S
C981 C977 1.495 . S
C981 H987 0.959 . S
C981 H988 0.961 . S
C981 H989 0.960 . S
C982 C980 1.381 . S
C982 C983 1.394 . S
C982 H990 0.930 . S
C983 C982 1.394 . S
C983 C984 1.383 . S
C983 H991 0.929 . S
C984 C983 1.383 . S
C984 C985 1.377 . S
C985 H969 0.930 . S
C985 C984 1.377 . S
C985 C986 1.379 . S
C986 H970 0.931 . S
C986 C980 1.383 . S
C986 C985 1.379 . S
H987 C981 0.959 . S
H988 C981 0.961 . S
H989 C981 0.960 . S
H990 C982 0.930 . S
H991 C983 0.929 . S
H992 C1000 0.929 . S
H993 C1002 0.930 . S
H994 C1004 0.930 . S
H995 C1007 0.929 . S
H996 C1010 0.930 . S
H997 C1012 0.960 . S
H998 C1012 0.960 . S
H999 C1012 0.960 . S
C1000 H992 0.929 . S
C1000 C1001 1.377 . S
C1000 C1002 1.384 . S
C1001 C1000 1.377 . S
C1001 C1007 1.390 . S
C1002 H993 0.930 . S
C1002 C1000 1.384 . S
C1002 C1003 1.372 . S
C1003 C1002 1.372 . S
C1003 C1004 1.400 . S
C1003 C1008 1.490 . S
C1004 H994 0.930 . S
C1004 C1003 1.400 . S
C1004 C1007 1.386 . S
H1005 C1021 0.930 . S
H1006 C1022 0.931 . S
C1007 H995 0.929 . S
C1007 C1001 1.390 . S
C1007 C1004 1.386 . S
C1008 C1003 1.490 . S
C1008 C1010 1.395 . S
C1008 C1011 1.403 . S
H1009 C1015 0.930 . S
C1010 H996 0.930 . S
C1010 C1008 1.395 . S
C1010 C1013 1.403 1_554 S
C1011 C1008 1.403 . S
C1011 C1012 1.524 . S
C1011 C1015 1.400 1_554 S
C1012 H997 0.960 . S
C1012 H998 0.960 . S
C1012 H999 0.960 . S
C1012 C1011 1.524 . S
C1013 C1010 1.403 1_556 S
C1013 C1014 1.392 . S
C1013 C1017 1.495 . S
C1014 C1013 1.392 . S
C1014 C1015 1.385 . S
C1014 C1016 1.478 . S
C1015 H1009 0.930 . S
C1015 C1011 1.400 1_556 S
C1015 C1014 1.385 . S
C1016 C1014 1.478 . S
C1016 C1018 1.381 . S
C1016 C1022 1.383 . S
C1017 C1013 1.495 . S
C1017 H1023 0.959 . S
C1017 H1024 0.961 . S
C1017 H1025 0.960 . S
C1018 C1016 1.381 . S
C1018 C1019 1.394 . S
C1018 H1026 0.930 . S
C1019 C1018 1.394 . S
C1019 C1020 1.383 . S
C1019 H1027 0.929 . S
C1020 C1019 1.383 . S
C1020 C1021 1.377 . S
C1021 H1005 0.930 . S
C1021 C1020 1.377 . S
C1021 C1022 1.379 . S
C1022 H1006 0.931 . S
C1022 C1016 1.383 . S
C1022 C1021 1.379 . S
H1023 C1017 0.959 . S
H1024 C1017 0.961 . S
H1025 C1017 0.960 . S
H1026 C1018 0.930 . S
H1027 C1019 0.929 . S
H1028 C1036 0.929 . S
H1029 C1038 0.930 . S
H1030 C1040 0.930 . S
H1031 C1043 0.929 . S
H1032 C1046 0.930 . S
H1033 C1048 0.960 . S
H1034 C1048 0.960 . S
H1035 C1048 0.960 . S
C1036 H1028 0.929 . S
C1036 C1037 1.377 . S
C1036 C1038 1.384 . S
C1037 C1036 1.377 . S
C1037 C1043 1.390 . S
C1038 H1029 0.930 . S
C1038 C1036 1.384 . S
C1038 C1039 1.372 . S
C1039 C1038 1.372 . S
C1039 C1040 1.400 . S
C1039 C1044 1.490 . S
C1040 H1030 0.930 . S
C1040 C1039 1.400 . S
C1040 C1043 1.386 . S
H1041 C1057 0.930 . S
H1042 C1058 0.931 . S
C1043 H1031 0.929 . S
C1043 C1037 1.390 . S
C1043 C1040 1.386 . S
C1044 C1039 1.490 . S
C1044 C1046 1.395 . S
C1044 C1047 1.403 . S
H1045 C1051 0.930 . S
C1046 H1032 0.930 . S
C1046 C1044 1.395 . S
C1046 C1049 1.403 1_556 S
C1047 C1044 1.403 . S
C1047 C1048 1.524 . S
C1047 C1051 1.400 1_556 S
C1048 H1033 0.960 . S
C1048 H1034 0.960 . S
C1048 H1035 0.960 . S
C1048 C1047 1.524 . S
C1049 C1046 1.403 1_554 S
C1049 C1050 1.392 . S
C1049 C1053 1.495 . S
C1050 C1049 1.392 . S
C1050 C1051 1.385 . S
C1050 C1052 1.478 . S
C1051 H1045 0.930 . S
C1051 C1047 1.400 1_554 S
C1051 C1050 1.385 . S
C1052 C1050 1.478 . S
C1052 C1054 1.381 . S
C1052 C1058 1.383 . S
C1053 C1049 1.495 . S
C1053 H1059 0.959 . S
C1053 H1060 0.961 . S
C1053 H1061 0.960 . S
C1054 C1052 1.381 . S
C1054 C1055 1.394 . S
C1054 H1062 0.930 . S
C1055 C1054 1.394 . S
C1055 C1056 1.383 . S
C1055 H1063 0.929 . S
C1056 C1055 1.383 . S
C1056 C1057 1.377 . S
C1057 H1041 0.930 . S
C1057 C1056 1.377 . S
C1057 C1058 1.379 . S
C1058 H1042 0.931 . S
C1058 C1052 1.383 . S
C1058 C1057 1.379 . S
H1059 C1053 0.959 . S
H1060 C1053 0.961 . S
H1061 C1053 0.960 . S
H1062 C1054 0.930 . S
H1063 C1055 0.929 . S
H1064 C1072 0.929 . S
H1065 C1074 0.930 . S
H1066 C1076 0.930 . S
H1067 C1079 0.929 . S
H1068 C1082 0.930 . S
H1069 C1084 0.960 . S
H1070 C1084 0.960 . S
H1071 C1084 0.960 . S
C1072 H1064 0.929 . S
C1072 C1073 1.377 . S
C1072 C1074 1.384 . S
C1073 C1072 1.377 . S
C1073 C1079 1.390 . S
C1074 H1065 0.930 . S
C1074 C1072 1.384 . S
C1074 C1075 1.372 . S
C1075 C1074 1.372 . S
C1075 C1076 1.400 . S
C1075 C1080 1.490 . S
C1076 H1066 0.930 . S
C1076 C1075 1.400 . S
C1076 C1079 1.386 . S
H1077 C1093 0.930 . S
H1078 C1094 0.931 . S
C1079 H1067 0.929 . S
C1079 C1073 1.390 . S
C1079 C1076 1.386 . S
C1080 C1075 1.490 . S
C1080 C1082 1.395 . S
C1080 C1083 1.403 . S
H1081 C1087 0.930 . S
C1082 H1068 0.930 . S
C1082 C1080 1.395 . S
C1082 C1085 1.403 1_556 S
C1083 C1080 1.403 . S
C1083 C1084 1.524 . S
C1083 C1087 1.400 1_556 S
C1084 H1069 0.960 . S
C1084 H1070 0.960 . S
C1084 H1071 0.960 . S
C1084 C1083 1.524 . S
C1085 C1082 1.403 1_554 S
C1085 C1086 1.392 . S
C1085 C1089 1.495 . S
C1086 C1085 1.392 . S
C1086 C1087 1.385 . S
C1086 C1088 1.478 . S
C1087 H1081 0.930 . S
C1087 C1083 1.400 1_554 S
C1087 C1086 1.385 . S
C1088 C1086 1.478 . S
C1088 C1090 1.381 . S
C1088 C1094 1.383 . S
C1089 C1085 1.495 . S
C1089 H1095 0.959 . S
C1089 H1096 0.961 . S
C1089 H1097 0.960 . S
C1090 C1088 1.381 . S
C1090 C1091 1.394 . S
C1090 H1098 0.930 . S
C1091 C1090 1.394 . S
C1091 C1092 1.383 . S
C1091 H1099 0.929 . S
C1092 C1091 1.383 . S
C1092 C1093 1.377 . S
C1093 H1077 0.930 . S
C1093 C1092 1.377 . S
C1093 C1094 1.379 . S
C1094 H1078 0.931 . S
C1094 C1088 1.383 . S
C1094 C1093 1.379 . S
H1095 C1089 0.959 . S
H1096 C1089 0.961 . S
H1097 C1089 0.960 . S
H1098 C1090 0.930 . S
H1099 C1091 0.929 . S
H1100 C1108 0.929 . S
H1101 C1110 0.930 . S
H1102 C1112 0.930 . S
H1103 C1115 0.929 . S
H1104 C1118 0.930 . S
H1105 C1120 0.960 . S
H1106 C1120 0.960 . S
H1107 C1120 0.960 . S
C1108 H1100 0.929 . S
C1108 C1109 1.377 . S
C1108 C1110 1.384 . S
C1109 C1108 1.377 . S
C1109 C1115 1.390 . S
C1110 H1101 0.930 . S
C1110 C1108 1.384 . S
C1110 C1111 1.372 . S
C1111 C1110 1.372 . S
C1111 C1112 1.400 . S
C1111 C1116 1.490 . S
C1112 H1102 0.930 . S
C1112 C1111 1.400 . S
C1112 C1115 1.386 . S
H1113 C1129 0.930 . S
H1114 C1130 0.931 . S
C1115 H1103 0.929 . S
C1115 C1109 1.390 . S
C1115 C1112 1.386 . S
C1116 C1111 1.490 . S
C1116 C1118 1.395 . S
C1116 C1119 1.403 . S
H1117 C1123 0.930 . S
C1118 H1104 0.930 . S
C1118 C1116 1.395 . S
C1118 C1121 1.403 1_556 S
C1119 C1116 1.403 . S
C1119 C1120 1.524 . S
C1119 C1123 1.400 1_556 S
C1120 H1105 0.960 . S
C1120 H1106 0.960 . S
C1120 H1107 0.960 . S
C1120 C1119 1.524 . S
C1121 C1118 1.403 1_554 S
C1121 C1122 1.392 . S
C1121 C1125 1.495 . S
C1122 C1121 1.392 . S
C1122 C1123 1.385 . S
C1122 C1124 1.478 . S
C1123 H1117 0.930 . S
C1123 C1119 1.400 1_554 S
C1123 C1122 1.385 . S
C1124 C1122 1.478 . S
C1124 C1126 1.381 . S
C1124 C1130 1.383 . S
C1125 C1121 1.495 . S
C1125 H1131 0.959 . S
C1125 H1132 0.961 . S
C1125 H1133 0.960 . S
C1126 C1124 1.381 . S
C1126 C1127 1.394 . S
C1126 H1134 0.930 . S
C1127 C1126 1.394 . S
C1127 C1128 1.383 . S
C1127 H1135 0.929 . S
C1128 C1127 1.383 . S
C1128 C1129 1.377 . S
C1129 H1113 0.930 . S
C1129 C1128 1.377 . S
C1129 C1130 1.379 . S
C1130 H1114 0.931 . S
C1130 C1124 1.383 . S
C1130 C1129 1.379 . S
H1131 C1125 0.959 . S
H1132 C1125 0.961 . S
H1133 C1125 0.960 . S
H1134 C1126 0.930 . S
H1135 C1127 0.929 . S
H1136 C1144 0.929 . S
H1137 C1146 0.930 . S
H1138 C1148 0.930 . S
H1139 C1151 0.929 . S
H1140 C1154 0.930 . S
H1141 C1156 0.960 . S
H1142 C1156 0.960 . S
H1143 C1156 0.960 . S
C1144 H1136 0.929 . S
C1144 C1145 1.377 . S
C1144 C1146 1.384 . S
C1145 C1144 1.377 . S
C1145 C1151 1.390 . S
C1146 H1137 0.930 . S
C1146 C1144 1.384 . S
C1146 C1147 1.372 . S
C1147 C1146 1.372 . S
C1147 C1148 1.400 . S
C1147 C1152 1.490 . S
C1148 H1138 0.930 . S
C1148 C1147 1.400 . S
C1148 C1151 1.386 . S
H1149 C1165 0.930 . S
H1150 C1166 0.931 . S
C1151 H1139 0.929 . S
C1151 C1145 1.390 . S
C1151 C1148 1.386 . S
C1152 C1147 1.490 . S
C1152 C1154 1.395 . S
C1152 C1155 1.403 . S
H1153 C1159 0.930 . S
C1154 H1140 0.930 . S
C1154 C1152 1.395 . S
C1154 C1157 1.403 . S
C1155 C1152 1.403 . S
C1155 C1156 1.524 . S
C1155 C1159 1.400 . S
C1156 H1141 0.960 . S
C1156 H1142 0.960 . S
C1156 H1143 0.960 . S
C1156 C1155 1.524 . S
C1157 C1154 1.403 . S
C1157 C1158 1.392 . S
C1157 C1161 1.495 . S
C1158 C1157 1.392 . S
C1158 C1159 1.385 . S
C1158 C1160 1.478 . S
C1159 H1153 0.930 . S
C1159 C1155 1.400 . S
C1159 C1158 1.385 . S
C1160 C1158 1.478 . S
C1160 C1162 1.381 . S
C1160 C1166 1.383 . S
C1161 C1157 1.495 . S
C1161 H1167 0.959 . S
C1161 H1168 0.961 . S
C1161 H1169 0.960 . S
C1162 C1160 1.381 . S
C1162 C1163 1.394 . S
C1162 H1170 0.930 . S
C1163 C1162 1.394 . S
C1163 C1164 1.383 . S
C1163 H1171 0.929 . S
C1164 C1163 1.383 . S
C1164 C1165 1.377 . S
C1165 H1149 0.930 . S
C1165 C1164 1.377 . S
C1165 C1166 1.379 . S
C1166 H1150 0.931 . S
C1166 C1160 1.383 . S
C1166 C1165 1.379 . S
H1167 C1161 0.959 . S
H1168 C1161 0.961 . S
H1169 C1161 0.960 . S
H1170 C1162 0.930 . S
H1171 C1163 0.929 . S
H1172 C1180 0.929 . S
H1173 C1182 0.930 . S
H1174 C1184 0.930 . S
H1175 C1187 0.929 . S
H1176 C1190 0.930 . S
H1177 C1192 0.960 . S
H1178 C1192 0.960 . S
H1179 C1192 0.960 . S
C1180 H1172 0.929 . S
C1180 C1181 1.377 . S
C1180 C1182 1.384 . S
C1181 C1180 1.377 . S
C1181 C1187 1.390 . S
C1182 H1173 0.930 . S
C1182 C1180 1.384 . S
C1182 C1183 1.372 . S
C1183 C1182 1.372 . S
C1183 C1184 1.400 . S
C1183 C1188 1.490 . S
C1184 H1174 0.930 . S
C1184 C1183 1.400 . S
C1184 C1187 1.386 . S
H1185 C1201 0.930 . S
H1186 C1202 0.931 . S
C1187 H1175 0.929 . S
C1187 C1181 1.390 . S
C1187 C1184 1.386 . S
C1188 C1183 1.490 . S
C1188 C1190 1.395 . S
C1188 C1191 1.403 . S
H1189 C1195 0.930 . S
C1190 H1176 0.930 . S
C1190 C1188 1.395 . S
C1190 C1193 1.403 . S
C1191 C1188 1.403 . S
C1191 C1192 1.524 . S
C1191 C1195 1.400 . S
C1192 H1177 0.960 . S
C1192 H1178 0.960 . S
C1192 H1179 0.960 . S
C1192 C1191 1.524 . S
C1193 C1190 1.403 . S
C1193 C1194 1.392 . S
C1193 C1197 1.495 . S
C1194 C1193 1.392 . S
C1194 C1195 1.385 . S
C1194 C1196 1.478 . S
C1195 H1189 0.930 . S
C1195 C1191 1.400 . S
C1195 C1194 1.385 . S
C1196 C1194 1.478 . S
C1196 C1198 1.381 . S
C1196 C1202 1.383 . S
C1197 C1193 1.495 . S
C1197 H1203 0.959 . S
C1197 H1204 0.961 . S
C1197 H1205 0.960 . S
C1198 C1196 1.381 . S
C1198 C1199 1.394 . S
C1198 H1206 0.930 . S
C1199 C1198 1.394 . S
C1199 C1200 1.383 . S
C1199 H1207 0.929 . S
C1200 C1199 1.383 . S
C1200 C1201 1.377 . S
C1201 H1185 0.930 . S
C1201 C1200 1.377 . S
C1201 C1202 1.379 . S
C1202 H1186 0.931 . S
C1202 C1196 1.383 . S
C1202 C1201 1.379 . S
H1203 C1197 0.959 . S
H1204 C1197 0.961 . S
H1205 C1197 0.960 . S
H1206 C1198 0.930 . S
H1207 C1199 0.929 . S
H1208 C1216 0.929 . S
H1209 C1218 0.930 . S
H1210 C1220 0.930 . S
H1211 C1223 0.929 . S
H1212 C1226 0.930 . S
H1213 C1228 0.960 . S
H1214 C1228 0.960 . S
H1215 C1228 0.960 . S
C1216 H1208 0.929 . S
C1216 C1217 1.377 . S
C1216 C1218 1.384 . S
C1217 C1216 1.377 . S
C1217 C1223 1.390 . S
C1218 H1209 0.930 . S
C1218 C1216 1.384 . S
C1218 C1219 1.372 . S
C1219 C1218 1.372 . S
C1219 C1220 1.400 . S
C1219 C1224 1.490 . S
C1220 H1210 0.930 . S
C1220 C1219 1.400 . S
C1220 C1223 1.386 . S
H1221 C1237 0.930 . S
H1222 C1238 0.931 . S
C1223 H1211 0.929 . S
C1223 C1217 1.390 . S
C1223 C1220 1.386 . S
C1224 C1219 1.490 . S
C1224 C1226 1.395 . S
C1224 C1227 1.403 . S
H1225 C1231 0.930 . S
C1226 H1212 0.930 . S
C1226 C1224 1.395 . S
C1226 C1229 1.403 . S
C1227 C1224 1.403 . S
C1227 C1228 1.524 . S
C1227 C1231 1.400 . S
C1228 H1213 0.960 . S
C1228 H1214 0.960 . S
C1228 H1215 0.960 . S
C1228 C1227 1.524 . S
C1229 C1226 1.403 . S
C1229 C1230 1.392 . S
C1229 C1233 1.495 . S
C1230 C1229 1.392 . S
C1230 C1231 1.385 . S
C1230 C1232 1.478 . S
C1231 H1225 0.930 . S
C1231 C1227 1.400 . S
C1231 C1230 1.385 . S
C1232 C1230 1.478 . S
C1232 C1234 1.381 . S
C1232 C1238 1.383 . S
C1233 C1229 1.495 . S
C1233 H1239 0.959 . S
C1233 H1240 0.961 . S
C1233 H1241 0.960 . S
C1234 C1232 1.381 . S
C1234 C1235 1.394 . S
C1234 H1242 0.930 . S
C1235 C1234 1.394 . S
C1235 C1236 1.383 . S
C1235 H1243 0.929 . S
C1236 C1235 1.383 . S
C1236 C1237 1.377 . S
C1237 H1221 0.930 . S
C1237 C1236 1.377 . S
C1237 C1238 1.379 . S
C1238 H1222 0.931 . S
C1238 C1232 1.383 . S
C1238 C1237 1.379 . S
H1239 C1233 0.959 . S
H1240 C1233 0.961 . S
H1241 C1233 0.960 . S
H1242 C1234 0.930 . S
H1243 C1235 0.929 . S
H1244 C1252 0.929 . S
H1245 C1254 0.930 . S
H1246 C1256 0.930 . S
H1247 C1259 0.929 . S
H1248 C1262 0.930 . S
H1249 C1264 0.960 . S
H1250 C1264 0.960 . S
H1251 C1264 0.960 . S
C1252 H1244 0.929 . S
C1252 C1253 1.377 . S
C1252 C1254 1.384 . S
C1253 C1252 1.377 . S
C1253 C1259 1.390 . S
C1254 H1245 0.930 . S
C1254 C1252 1.384 . S
C1254 C1255 1.372 . S
C1255 C1254 1.372 . S
C1255 C1256 1.400 . S
C1255 C1260 1.490 . S
C1256 H1246 0.930 . S
C1256 C1255 1.400 . S
C1256 C1259 1.386 . S
H1257 C1273 0.930 . S
H1258 C1274 0.931 . S
C1259 H1247 0.929 . S
C1259 C1253 1.390 . S
C1259 C1256 1.386 . S
C1260 C1255 1.490 . S
C1260 C1262 1.395 . S
C1260 C1263 1.403 . S
H1261 C1267 0.930 . S
C1262 H1248 0.930 . S
C1262 C1260 1.395 . S
C1262 C1265 1.403 . S
C1263 C1260 1.403 . S
C1263 C1264 1.524 . S
C1263 C1267 1.400 . S
C1264 H1249 0.960 . S
C1264 H1250 0.960 . S
C1264 H1251 0.960 . S
C1264 C1263 1.524 . S
C1265 C1262 1.403 . S
C1265 C1266 1.392 . S
C1265 C1269 1.495 . S
C1266 C1265 1.392 . S
C1266 C1267 1.385 . S
C1266 C1268 1.478 . S
C1267 H1261 0.930 . S
C1267 C1263 1.400 . S
C1267 C1266 1.385 . S
C1268 C1266 1.478 . S
C1268 C1270 1.381 . S
C1268 C1274 1.383 . S
C1269 C1265 1.495 . S
C1269 H1275 0.959 . S
C1269 H1276 0.961 . S
C1269 H1277 0.960 . S
C1270 C1268 1.381 . S
C1270 C1271 1.394 . S
C1270 H1278 0.930 . S
C1271 C1270 1.394 . S
C1271 C1272 1.383 . S
C1271 H1279 0.929 . S
C1272 C1271 1.383 . S
C1272 C1273 1.377 . S
C1273 H1257 0.930 . S
C1273 C1272 1.377 . S
C1273 C1274 1.379 . S
C1274 H1258 0.931 . S
C1274 C1268 1.383 . S
C1274 C1273 1.379 . S
H1275 C1269 0.959 . S
H1276 C1269 0.961 . S
H1277 C1269 0.960 . S
H1278 C1270 0.930 . S
H1279 C1271 0.929 . S
H1280 C1288 0.929 . S
H1281 C1290 0.930 . S
H1282 C1292 0.930 . S
H1283 C1295 0.929 . S
H1284 C1298 0.930 . S
H1285 C1300 0.960 . S
H1286 C1300 0.960 . S
H1287 C1300 0.960 . S
C1288 H1280 0.929 . S
C1288 C1289 1.377 . S
C1288 C1290 1.384 . S
C1289 C1288 1.377 . S
C1289 C1295 1.390 . S
C1290 H1281 0.930 . S
C1290 C1288 1.384 . S
C1290 C1291 1.372 . S
C1291 C1290 1.372 . S
C1291 C1292 1.400 . S
C1291 C1296 1.490 . S
C1292 H1282 0.930 . S
C1292 C1291 1.400 . S
C1292 C1295 1.386 . S
H1293 C1309 0.930 . S
H1294 C1310 0.931 . S
C1295 H1283 0.929 . S
C1295 C1289 1.390 . S
C1295 C1292 1.386 . S
C1296 C1291 1.490 . S
C1296 C1298 1.395 . S
C1296 C1299 1.403 . S
H1297 C1303 0.930 . S
C1298 H1284 0.930 . S
C1298 C1296 1.395 . S
C1298 C1301 1.403 . S
C1299 C1296 1.403 . S
C1299 C1300 1.524 . S
C1299 C1303 1.400 . S
C1300 H1285 0.960 . S
C1300 H1286 0.960 . S
C1300 H1287 0.960 . S
C1300 C1299 1.524 . S
C1301 C1298 1.403 . S
C1301 C1302 1.392 . S
C1301 C1305 1.495 . S
C1302 C1301 1.392 . S
C1302 C1303 1.385 . S
C1302 C1304 1.478 . S
C1303 H1297 0.930 . S
C1303 C1299 1.400 . S
C1303 C1302 1.385 . S
C1304 C1302 1.478 . S
C1304 C1306 1.381 . S
C1304 C1310 1.383 . S
C1305 C1301 1.495 . S
C1305 H1311 0.959 . S
C1305 H1312 0.961 . S
C1305 H1313 0.960 . S
C1306 C1304 1.381 . S
C1306 C1307 1.394 . S
C1306 H1314 0.930 . S
C1307 C1306 1.394 . S
C1307 C1308 1.383 . S
C1307 H1315 0.929 . S
C1308 C1307 1.383 . S
C1308 C1309 1.377 . S
C1309 H1293 0.930 . S
C1309 C1308 1.377 . S
C1309 C1310 1.379 . S
C1310 H1294 0.931 . S
C1310 C1304 1.383 . S
C1310 C1309 1.379 . S
H1311 C1305 0.959 . S
H1312 C1305 0.961 . S
H1313 C1305 0.960 . S
H1314 C1306 0.930 . S
H1315 C1307 0.929 . S
H1316 C1324 0.929 . S
H1317 C1326 0.930 . S
H1318 C1328 0.930 . S
H1319 C1331 0.929 . S
H1320 C1334 0.930 . S
H1321 C1336 0.960 . S
H1322 C1336 0.960 . S
H1323 C1336 0.960 . S
C1324 H1316 0.929 . S
C1324 C1325 1.377 . S
C1324 C1326 1.384 . S
C1325 C1324 1.377 . S
C1325 C1331 1.390 . S
C1326 H1317 0.930 . S
C1326 C1324 1.384 . S
C1326 C1327 1.372 . S
C1327 C1326 1.372 . S
C1327 C1328 1.400 . S
C1327 C1332 1.490 . S
C1328 H1318 0.930 . S
C1328 C1327 1.400 . S
C1328 C1331 1.386 . S
H1329 C1345 0.930 . S
H1330 C1346 0.931 . S
C1331 H1319 0.929 . S
C1331 C1325 1.390 . S
C1331 C1328 1.386 . S
C1332 C1327 1.490 . S
C1332 C1334 1.395 . S
C1332 C1335 1.403 . S
H1333 C1339 0.930 . S
C1334 H1320 0.930 . S
C1334 C1332 1.395 . S
C1334 C1337 1.403 . S
C1335 C1332 1.403 . S
C1335 C1336 1.524 . S
C1335 C1339 1.400 . S
C1336 H1321 0.960 . S
C1336 H1322 0.960 . S
C1336 H1323 0.960 . S
C1336 C1335 1.524 . S
C1337 C1334 1.403 . S
C1337 C1338 1.392 . S
C1337 C1341 1.495 . S
C1338 C1337 1.392 . S
C1338 C1339 1.385 . S
C1338 C1340 1.478 . S
C1339 H1333 0.930 . S
C1339 C1335 1.400 . S
C1339 C1338 1.385 . S
C1340 C1338 1.478 . S
C1340 C1342 1.381 . S
C1340 C1346 1.383 . S
C1341 C1337 1.495 . S
C1341 H1347 0.959 . S
C1341 H1348 0.961 . S
C1341 H1349 0.960 . S
C1342 C1340 1.381 . S
C1342 C1343 1.394 . S
C1342 H1350 0.930 . S
C1343 C1342 1.394 . S
C1343 C1344 1.383 . S
C1343 H1351 0.929 . S
C1344 C1343 1.383 . S
C1344 C1345 1.377 . S
C1345 H1329 0.930 . S
C1345 C1344 1.377 . S
C1345 C1346 1.379 . S
C1346 H1330 0.931 . S
C1346 C1340 1.383 . S
C1346 C1345 1.379 . S
H1347 C1341 0.959 . S
H1348 C1341 0.961 . S
H1349 C1341 0.960 . S
H1350 C1342 0.930 . S
H1351 C1343 0.929 . S
H1352 C1360 0.929 . S
H1353 C1362 0.930 . S
H1354 C1364 0.930 . S
H1355 C1367 0.929 . S
H1356 C1370 0.930 . S
H1357 C1372 0.960 . S
H1358 C1372 0.960 . S
H1359 C1372 0.960 . S
C1360 H1352 0.929 . S
C1360 C1361 1.377 . S
C1360 C1362 1.384 . S
C1361 C1360 1.377 . S
C1361 C1367 1.390 . S
C1362 H1353 0.930 . S
C1362 C1360 1.384 . S
C1362 C1363 1.372 . S
C1363 C1362 1.372 . S
C1363 C1364 1.400 . S
C1363 C1368 1.490 . S
C1364 H1354 0.930 . S
C1364 C1363 1.400 . S
C1364 C1367 1.386 . S
H1365 C1381 0.930 . S
H1366 C1382 0.931 . S
C1367 H1355 0.929 . S
C1367 C1361 1.390 . S
C1367 C1364 1.386 . S
C1368 C1363 1.490 . S
C1368 C1370 1.395 . S
C1368 C1371 1.403 . S
H1369 C1375 0.930 . S
C1370 H1356 0.930 . S
C1370 C1368 1.395 . S
C1370 C1373 1.403 . S
C1371 C1368 1.403 . S
C1371 C1372 1.524 . S
C1371 C1375 1.400 . S
C1372 H1357 0.960 . S
C1372 H1358 0.960 . S
C1372 H1359 0.960 . S
C1372 C1371 1.524 . S
C1373 C1370 1.403 . S
C1373 C1374 1.392 . S
C1373 C1377 1.495 . S
C1374 C1373 1.392 . S
C1374 C1375 1.385 . S
C1374 C1376 1.478 . S
C1375 H1369 0.930 . S
C1375 C1371 1.400 . S
C1375 C1374 1.385 . S
C1376 C1374 1.478 . S
C1376 C1378 1.381 . S
C1376 C1382 1.383 . S
C1377 C1373 1.495 . S
C1377 H1383 0.959 . S
C1377 H1384 0.961 . S
C1377 H1385 0.960 . S
C1378 C1376 1.381 . S
C1378 C1379 1.394 . S
C1378 H1386 0.930 . S
C1379 C1378 1.394 . S
C1379 C1380 1.383 . S
C1379 H1387 0.929 . S
C1380 C1379 1.383 . S
C1380 C1381 1.377 . S
C1381 H1365 0.930 . S
C1381 C1380 1.377 . S
C1381 C1382 1.379 . S
C1382 H1366 0.931 . S
C1382 C1376 1.383 . S
C1382 C1381 1.379 . S
H1383 C1377 0.959 . S
H1384 C1377 0.961 . S
H1385 C1377 0.960 . S
H1386 C1378 0.930 . S
H1387 C1379 0.929 . S
H1388 C1396 0.929 . S
H1389 C1398 0.930 . S
H1390 C1400 0.930 . S
H1391 C1403 0.929 . S
H1392 C1406 0.930 . S
H1393 C1408 0.960 . S
H1394 C1408 0.960 . S
H1395 C1408 0.960 . S
C1396 H1388 0.929 . S
C1396 C1397 1.377 . S
C1396 C1398 1.384 . S
C1397 C1396 1.377 . S
C1397 C1403 1.390 . S
C1398 H1389 0.930 . S
C1398 C1396 1.384 . S
C1398 C1399 1.372 . S
C1399 C1398 1.372 . S
C1399 C1400 1.400 . S
C1399 C1404 1.490 . S
C1400 H1390 0.930 . S
C1400 C1399 1.400 . S
C1400 C1403 1.386 . S
H1401 C1417 0.930 . S
H1402 C1418 0.931 . S
C1403 H1391 0.929 . S
C1403 C1397 1.390 . S
C1403 C1400 1.386 . S
C1404 C1399 1.490 . S
C1404 C1406 1.395 . S
C1404 C1407 1.403 . S
H1405 C1411 0.930 . S
C1406 H1392 0.930 . S
C1406 C1404 1.395 . S
C1406 C1409 1.403 . S
C1407 C1404 1.403 . S
C1407 C1408 1.524 . S
C1407 C1411 1.400 . S
C1408 H1393 0.960 . S
C1408 H1394 0.960 . S
C1408 H1395 0.960 . S
C1408 C1407 1.524 . S
C1409 C1406 1.403 . S
C1409 C1410 1.392 . S
C1409 C1413 1.495 . S
C1410 C1409 1.392 . S
C1410 C1411 1.385 . S
C1410 C1412 1.478 . S
C1411 H1405 0.930 . S
C1411 C1407 1.400 . S
C1411 C1410 1.385 . S
C1412 C1410 1.478 . S
C1412 C1414 1.381 . S
C1412 C1418 1.383 . S
C1413 C1409 1.495 . S
C1413 H1419 0.959 . S
C1413 H1420 0.961 . S
C1413 H1421 0.960 . S
C1414 C1412 1.381 . S
C1414 C1415 1.394 . S
C1414 H1422 0.930 . S
C1415 C1414 1.394 . S
C1415 C1416 1.383 . S
C1415 H1423 0.929 . S
C1416 C1415 1.383 . S
C1416 C1417 1.377 . S
C1417 H1401 0.930 . S
C1417 C1416 1.377 . S
C1417 C1418 1.379 . S
C1418 H1402 0.931 . S
C1418 C1412 1.383 . S
C1418 C1417 1.379 . S
H1419 C1413 0.959 . S
H1420 C1413 0.961 . S
H1421 C1413 0.960 . S
H1422 C1414 0.930 . S
H1423 C1415 0.929 . S
H1424 C1432 0.929 . S
H1425 C1434 0.930 . S
H1426 C1436 0.930 . S
H1427 C1439 0.929 . S
H1428 C1442 0.930 . S
H1429 C1444 0.960 . S
H1430 C1444 0.960 . S
H1431 C1444 0.960 . S
C1432 H1424 0.929 . S
C1432 C1433 1.377 . S
C1432 C1434 1.384 . S
C1433 C1432 1.377 . S
C1433 C1439 1.390 . S
C1434 H1425 0.930 . S
C1434 C1432 1.384 . S
C1434 C1435 1.372 . S
C1435 C1434 1.372 . S
C1435 C1436 1.400 . S
C1435 C1440 1.490 . S
C1436 H1426 0.930 . S
C1436 C1435 1.400 . S
C1436 C1439 1.386 . S
H1437 C1453 0.930 . S
H1438 C1454 0.931 . S
C1439 H1427 0.929 . S
C1439 C1433 1.390 . S
C1439 C1436 1.386 . S
C1440 C1435 1.490 . S
C1440 C1442 1.395 . S
C1440 C1443 1.403 . S
H1441 C1447 0.930 . S
C1442 H1428 0.930 . S
C1442 C1440 1.395 . S
C1442 C1445 1.403 1_556 S
C1443 C1440 1.403 . S
C1443 C1444 1.524 . S
C1443 C1447 1.400 1_556 S
C1444 H1429 0.960 . S
C1444 H1430 0.960 . S
C1444 H1431 0.960 . S
C1444 C1443 1.524 . S
C1445 C1442 1.403 1_554 S
C1445 C1446 1.392 . S
C1445 C1449 1.495 . S
C1446 C1445 1.392 . S
C1446 C1447 1.385 . S
C1446 C1448 1.478 . S
C1447 H1441 0.930 . S
C1447 C1443 1.400 1_554 S
C1447 C1446 1.385 . S
C1448 C1446 1.478 . S
C1448 C1450 1.381 . S
C1448 C1454 1.383 . S
C1449 C1445 1.495 . S
C1449 H1455 0.959 . S
C1449 H1456 0.961 . S
C1449 H1457 0.960 . S
C1450 C1448 1.381 . S
C1450 C1451 1.394 . S
C1450 H1458 0.930 . S
C1451 C1450 1.394 . S
C1451 C1452 1.383 . S
C1451 H1459 0.929 . S
C1452 C1451 1.383 . S
C1452 C1453 1.377 . S
C1453 H1437 0.930 . S
C1453 C1452 1.377 . S
C1453 C1454 1.379 . S
C1454 H1438 0.931 . S
C1454 C1448 1.383 . S
C1454 C1453 1.379 . S
H1455 C1449 0.959 . S
H1456 C1449 0.961 . S
H1457 C1449 0.960 . S
H1458 C1450 0.930 . S
H1459 C1451 0.929 . S
H1460 C1468 0.929 . S
H1461 C1470 0.930 . S
H1462 C1472 0.930 . S
H1463 C1475 0.929 . S
H1464 C1478 0.930 . S
H1465 C1480 0.960 . S
H1466 C1480 0.960 . S
H1467 C1480 0.960 . S
C1468 H1460 0.929 . S
C1468 C1469 1.377 . S
C1468 C1470 1.384 . S
C1469 C1468 1.377 . S
C1469 C1475 1.390 . S
C1470 H1461 0.930 . S
C1470 C1468 1.384 . S
C1470 C1471 1.372 . S
C1471 C1470 1.372 . S
C1471 C1472 1.400 . S
C1471 C1476 1.490 . S
C1472 H1462 0.930 . S
C1472 C1471 1.400 . S
C1472 C1475 1.386 . S
H1473 C1489 0.930 . S
H1474 C1490 0.931 . S
C1475 H1463 0.929 . S
C1475 C1469 1.390 . S
C1475 C1472 1.386 . S
C1476 C1471 1.490 . S
C1476 C1478 1.395 . S
C1476 C1479 1.403 . S
H1477 C1483 0.930 . S
C1478 H1464 0.930 . S
C1478 C1476 1.395 . S
C1478 C1481 1.403 1_554 S
C1479 C1476 1.403 . S
C1479 C1480 1.524 . S
C1479 C1483 1.400 1_554 S
C1480 H1465 0.960 . S
C1480 H1466 0.960 . S
C1480 H1467 0.960 . S
C1480 C1479 1.524 . S
C1481 C1478 1.403 1_556 S
C1481 C1482 1.392 . S
C1481 C1485 1.495 . S
C1482 C1481 1.392 . S
C1482 C1483 1.385 . S
C1482 C1484 1.478 . S
C1483 H1477 0.930 . S
C1483 C1479 1.400 1_556 S
C1483 C1482 1.385 . S
C1484 C1482 1.478 . S
C1484 C1486 1.381 . S
C1484 C1490 1.383 . S
C1485 C1481 1.495 . S
C1485 H1491 0.959 . S
C1485 H1492 0.961 . S
C1485 H1493 0.960 . S
C1486 C1484 1.381 . S
C1486 C1487 1.394 . S
C1486 H1494 0.930 . S
C1487 C1486 1.394 . S
C1487 C1488 1.383 . S
C1487 H1495 0.929 . S
C1488 C1487 1.383 . S
C1488 C1489 1.377 . S
C1489 H1473 0.930 . S
C1489 C1488 1.377 . S
C1489 C1490 1.379 . S
C1490 H1474 0.931 . S
C1490 C1484 1.383 . S
C1490 C1489 1.379 . S
H1491 C1485 0.959 . S
H1492 C1485 0.961 . S
H1493 C1485 0.960 . S
H1494 C1486 0.930 . S
H1495 C1487 0.929 . S
H1496 C1504 0.929 . S
H1497 C1506 0.930 . S
H1498 C1508 0.930 . S
H1499 C1511 0.929 . S
H1500 C1514 0.930 . S
H1501 C1516 0.960 . S
H1502 C1516 0.960 . S
H1503 C1516 0.960 . S
C1504 H1496 0.929 . S
C1504 C1505 1.377 . S
C1504 C1506 1.384 . S
C1505 C1504 1.377 . S
C1505 C1511 1.390 . S
C1506 H1497 0.930 . S
C1506 C1504 1.384 . S
C1506 C1507 1.372 . S
C1507 C1506 1.372 . S
C1507 C1508 1.400 . S
C1507 C1512 1.490 . S
C1508 H1498 0.930 . S
C1508 C1507 1.400 . S
C1508 C1511 1.386 . S
H1509 C1525 0.930 . S
H1510 C1526 0.931 . S
C1511 H1499 0.929 . S
C1511 C1505 1.390 . S
C1511 C1508 1.386 . S
C1512 C1507 1.490 . S
C1512 C1514 1.395 . S
C1512 C1515 1.403 . S
H1513 C1519 0.930 . S
C1514 H1500 0.930 . S
C1514 C1512 1.395 . S
C1514 C1517 1.403 1_554 S
C1515 C1512 1.403 . S
C1515 C1516 1.524 . S
C1515 C1519 1.400 1_554 S
C1516 H1501 0.960 . S
C1516 H1502 0.960 . S
C1516 H1503 0.960 . S
C1516 C1515 1.524 . S
C1517 C1514 1.403 1_556 S
C1517 C1518 1.392 . S
C1517 C1521 1.495 . S
C1518 C1517 1.392 . S
C1518 C1519 1.385 . S
C1518 C1520 1.478 . S
C1519 H1513 0.930 . S
C1519 C1515 1.400 1_556 S
C1519 C1518 1.385 . S
C1520 C1518 1.478 . S
C1520 C1522 1.381 . S
C1520 C1526 1.383 . S
C1521 C1517 1.495 . S
C1521 H1527 0.959 . S
C1521 H1528 0.961 . S
C1521 H1529 0.960 . S
C1522 C1520 1.381 . S
C1522 C1523 1.394 . S
C1522 H1530 0.930 . S
C1523 C1522 1.394 . S
C1523 C1524 1.383 . S
C1523 H1531 0.929 . S
C1524 C1523 1.383 . S
C1524 C1525 1.377 . S
C1525 H1509 0.930 . S
C1525 C1524 1.377 . S
C1525 C1526 1.379 . S
C1526 H1510 0.931 . S
C1526 C1520 1.383 . S
C1526 C1525 1.379 . S
H1527 C1521 0.959 . S
H1528 C1521 0.961 . S
H1529 C1521 0.960 . S
H1530 C1522 0.930 . S
H1531 C1523 0.929 . S
H1532 C1540 0.929 . S
H1533 C1542 0.930 . S
H1534 C1544 0.930 . S
H1535 C1547 0.929 . S
H1536 C1550 0.930 . S
H1537 C1552 0.960 . S
H1538 C1552 0.960 . S
H1539 C1552 0.960 . S
C1540 H1532 0.929 . S
C1540 C1541 1.377 . S
C1540 C1542 1.384 . S
C1541 C1540 1.377 . S
C1541 C1547 1.390 . S
C1542 H1533 0.930 . S
C1542 C1540 1.384 . S
C1542 C1543 1.372 . S
C1543 C1542 1.372 . S
C1543 C1544 1.400 . S
C1543 C1548 1.490 . S
C1544 H1534 0.930 . S
C1544 C1543 1.400 . S
C1544 C1547 1.386 . S
H1545 C1561 0.930 . S
H1546 C1562 0.931 . S
C1547 H1535 0.929 . S
C1547 C1541 1.390 . S
C1547 C1544 1.386 . S
C1548 C1543 1.490 . S
C1548 C1550 1.395 . S
C1548 C1551 1.403 . S
H1549 C1555 0.930 . S
C1550 H1536 0.930 . S
C1550 C1548 1.395 . S
C1550 C1553 1.403 1_556 S
C1551 C1548 1.403 . S
C1551 C1552 1.524 . S
C1551 C1555 1.400 1_556 S
C1552 H1537 0.960 . S
C1552 H1538 0.960 . S
C1552 H1539 0.960 . S
C1552 C1551 1.524 . S
C1553 C1550 1.403 1_554 S
C1553 C1554 1.392 . S
C1553 C1557 1.495 . S
C1554 C1553 1.392 . S
C1554 C1555 1.385 . S
C1554 C1556 1.478 . S
C1555 H1549 0.930 . S
C1555 C1551 1.400 1_554 S
C1555 C1554 1.385 . S
C1556 C1554 1.478 . S
C1556 C1558 1.381 . S
C1556 C1562 1.383 . S
C1557 C1553 1.495 . S
C1557 H1563 0.959 . S
C1557 H1564 0.961 . S
C1557 H1565 0.960 . S
C1558 C1556 1.381 . S
C1558 C1559 1.394 . S
C1558 H1566 0.930 . S
C1559 C1558 1.394 . S
C1559 C1560 1.383 . S
C1559 H1567 0.929 . S
C1560 C1559 1.383 . S
C1560 C1561 1.377 . S
C1561 H1545 0.930 . S
C1561 C1560 1.377 . S
C1561 C1562 1.379 . S
C1562 H1546 0.931 . S
C1562 C1556 1.383 . S
C1562 C1561 1.379 . S
H1563 C1557 0.959 . S
H1564 C1557 0.961 . S
H1565 C1557 0.960 . S
H1566 C1558 0.930 . S
H1567 C1559 0.929 . S
H1568 C1576 0.929 . S
H1569 C1578 0.930 . S
H1570 C1580 0.930 . S
H1571 C1583 0.929 . S
H1572 C1586 0.930 . S
H1573 C1588 0.960 . S
H1574 C1588 0.966 . S
H1575 C1588 0.960 . S
C1576 H1568 0.929 . S
C1576 C1577 1.377 . S
C1576 C1578 1.384 . S
C1577 C1576 1.377 . S
C1577 C1583 1.390 . S
C1578 H1569 0.930 . S
C1578 C1576 1.384 . S
C1578 C1579 1.372 . S
C1579 C1578 1.372 . S
C1579 C1580 1.400 . S
C1579 C1584 1.490 . S
C1580 H1570 0.930 . S
C1580 C1579 1.400 . S
C1580 C1583 1.386 . S
H1581 C1597 0.930 . S
H1582 C1598 0.931 . S
C1583 H1571 0.929 . S
C1583 C1577 1.390 . S
C1583 C1580 1.386 . S
C1584 C1579 1.490 . S
C1584 C1586 1.395 . S
C1584 C1587 1.403 1_545 S
H1585 C1591 0.930 . S
C1586 H1572 0.930 . S
C1586 C1584 1.395 . S
C1586 C1589 1.403 . S
C1587 C1584 1.403 1_565 S
C1587 C1588 1.524 . S
C1587 C1591 1.400 . S
C1588 H1573 0.960 . S
C1588 H1574 0.966 . S
C1588 H1575 0.960 . S
C1588 C1587 1.524 . S
C1589 C1586 1.403 . S
C1589 C1590 1.392 1_545 S
C1589 C1593 1.495 . S
C1590 C1589 1.392 1_565 S
C1590 C1591 1.385 . S
C1590 C1592 1.478 . S
C1591 H1585 0.930 . S
C1591 C1587 1.400 . S
C1591 C1590 1.385 . S
C1592 C1590 1.478 . S
C1592 C1594 1.381 . S
C1592 C1598 1.383 . S
C1593 C1589 1.495 . S
C1593 H1599 0.959 . S
C1593 H1600 0.961 . S
C1593 H1601 0.960 . S
C1594 C1592 1.381 . S
C1594 C1595 1.394 . S
C1594 H1602 0.930 . S
C1595 C1594 1.394 . S
C1595 C1596 1.383 . S
C1595 H1603 0.929 . S
C1596 C1595 1.383 . S
C1596 C1597 1.377 . S
C1597 H1581 0.930 . S
C1597 C1596 1.377 . S
C1597 C1598 1.379 . S
C1598 H1582 0.931 . S
C1598 C1592 1.383 . S
C1598 C1597 1.379 . S
H1599 C1593 0.959 . S
H1600 C1593 0.961 . S
H1601 C1593 0.960 . S
H1602 C1594 0.930 . S
H1603 C1595 0.929 . S
H1604 C1612 0.929 . S
H1605 C1614 0.930 . S
H1606 C1616 0.930 . S
H1607 C1619 0.929 . S
H1608 C1622 0.930 . S
H1609 C1624 0.960 . S
H1610 C1624 0.960 . S
H1611 C1624 0.960 1_655 S
C1612 H1604 0.929 . S
C1612 C1613 1.377 . S
C1612 C1614 1.384 . S
C1613 C1612 1.377 . S
C1613 C1619 1.390 . S
C1614 H1605 0.930 . S
C1614 C1612 1.384 . S
C1614 C1615 1.372 . S
C1615 C1614 1.372 . S
C1615 C1616 1.400 . S
C1615 C1620 1.490 . S
C1616 H1606 0.930 . S
C1616 C1615 1.400 . S
C1616 C1619 1.386 . S
H1617 C1633 0.930 . S
H1618 C1634 0.931 . S
C1619 H1607 0.929 . S
C1619 C1613 1.390 . S
C1619 C1616 1.386 . S
C1620 C1615 1.490 . S
C1620 C1622 1.395 . S
C1620 C1623 1.403 1_655 S
H1621 C1627 0.930 . S
C1622 H1608 0.930 . S
C1622 C1620 1.395 . S
C1622 C1625 1.403 . S
C1623 C1620 1.403 1_455 S
C1623 C1624 1.524 . S
C1623 C1627 1.400 . S
C1624 H1609 0.960 . S
C1624 H1610 0.960 . S
C1624 H1611 0.960 1_455 S
C1624 C1623 1.524 . S
C1625 C1622 1.403 . S
C1625 C1626 1.392 1_655 S
C1625 C1629 1.495 . S
C1626 C1625 1.392 1_455 S
C1626 C1627 1.385 . S
C1626 C1628 1.478 . S
C1627 H1621 0.930 . S
C1627 C1623 1.400 . S
C1627 C1626 1.385 . S
C1628 C1626 1.478 . S
C1628 C1630 1.381 . S
C1628 C1634 1.383 . S
C1629 C1625 1.495 . S
C1629 H1635 0.959 . S
C1629 H1636 0.961 . S
C1629 H1637 0.960 1_655 S
C1630 C1628 1.381 . S
C1630 C1631 1.394 . S
C1630 H1638 0.930 . S
C1631 C1630 1.394 . S
C1631 C1632 1.383 . S
C1631 H1639 0.929 . S
C1632 C1631 1.383 . S
C1632 C1633 1.377 . S
C1633 H1617 0.930 . S
C1633 C1632 1.377 . S
C1633 C1634 1.379 . S
C1634 H1618 0.931 . S
C1634 C1628 1.383 . S
C1634 C1633 1.379 . S
H1635 C1629 0.959 . S
H1636 C1629 0.961 . S
H1637 C1629 0.960 1_455 S
H1638 C1630 0.930 . S
H1639 C1631 0.929 . S
H1640 C1648 0.929 . S
H1641 C1650 0.930 . S
H1642 C1652 0.930 . S
H1643 C1655 0.929 . S
H1644 C1658 0.930 . S
H1645 C1660 0.960 . S
H1646 C1660 0.960 . S
H1647 C1660 0.960 . S
C1648 H1640 0.929 . S
C1648 C1649 1.377 . S
C1648 C1650 1.384 . S
C1649 C1648 1.377 . S
C1649 C1655 1.390 . S
C1650 H1641 0.930 . S
C1650 C1648 1.384 . S
C1650 C1651 1.372 . S
C1651 C1650 1.372 . S
C1651 C1652 1.400 . S
C1651 C1656 1.490 . S
C1652 H1642 0.930 . S
C1652 C1651 1.400 . S
C1652 C1655 1.386 . S
H1653 C1669 0.930 . S
H1654 C1670 0.931 . S
C1655 H1643 0.929 . S
C1655 C1649 1.390 . S
C1655 C1652 1.386 . S
C1656 C1651 1.490 . S
C1656 C1658 1.395 1_545 S
C1656 C1659 1.403 . S
H1657 C1663 0.929 1_545 S
C1658 H1644 0.930 . S
C1658 C1656 1.395 1_565 S
C1658 C1661 1.403 . S
C1659 C1656 1.403 . S
C1659 C1660 1.524 . S
C1659 C1663 1.399 1_545 S
C1660 H1645 0.960 . S
C1660 H1646 0.960 . S
C1660 H1647 0.960 . S
C1660 C1659 1.524 . S
C1661 C1658 1.403 . S
C1661 C1662 1.392 . S
C1661 C1665 1.495 . S
C1662 C1661 1.392 . S
C1662 C1663 1.386 . S
C1662 C1664 1.478 . S
C1663 H1657 0.929 1_565 S
C1663 C1659 1.399 1_565 S
C1663 C1662 1.386 . S
C1664 C1662 1.478 . S
C1664 C1666 1.381 . S
C1664 C1670 1.383 . S
C1665 C1661 1.495 . S
C1665 H1671 0.959 . S
C1665 H1672 0.961 . S
C1665 H1673 0.960 . S
C1666 C1664 1.381 . S
C1666 C1667 1.394 . S
C1666 H1674 0.930 . S
C1667 C1666 1.394 . S
C1667 C1668 1.383 . S
C1667 H1675 0.929 . S
C1668 C1667 1.383 . S
C1668 C1669 1.377 . S
C1669 H1653 0.930 . S
C1669 C1668 1.377 . S
C1669 C1670 1.379 . S
C1670 H1654 0.931 . S
C1670 C1664 1.383 . S
C1670 C1669 1.379 . S
H1671 C1665 0.959 . S
H1672 C1665 0.961 . S
H1673 C1665 0.960 . S
H1674 C1666 0.930 . S
H1675 C1667 0.929 . S
H1676 C1684 0.929 . S
H1677 C1686 0.930 . S
H1678 C1688 0.930 . S
H1679 C1691 0.929 . S
H1680 C1694 0.930 . S
H1681 C1696 0.960 . S
H1682 C1696 0.960 . S
H1683 C1696 0.960 . S
C1684 H1676 0.929 . S
C1684 C1685 1.377 . S
C1684 C1686 1.384 . S
C1685 C1684 1.377 . S
C1685 C1691 1.390 . S
C1686 H1677 0.930 . S
C1686 C1684 1.384 . S
C1686 C1687 1.372 . S
C1687 C1686 1.372 . S
C1687 C1688 1.400 . S
C1687 C1692 1.490 . S
C1688 H1678 0.930 . S
C1688 C1687 1.400 . S
C1688 C1691 1.386 . S
H1689 C1705 0.930 . S
H1690 C1706 0.931 . S
C1691 H1679 0.929 . S
C1691 C1685 1.390 . S
C1691 C1688 1.386 . S
C1692 C1687 1.490 . S
C1692 C1694 1.395 . S
C1692 C1695 1.403 1_455 S
H1693 C1699 0.930 . S
C1694 H1680 0.930 . S
C1694 C1692 1.395 . S
C1694 C1697 1.403 . S
C1695 C1692 1.403 1_655 S
C1695 C1696 1.524 . S
C1695 C1699 1.400 . S
C1696 H1681 0.960 . S
C1696 H1682 0.960 . S
C1696 H1683 0.960 . S
C1696 C1695 1.524 . S
C1697 C1694 1.403 . S
C1697 C1698 1.392 1_455 S
C1697 C1701 1.495 . S
C1698 C1697 1.392 1_655 S
C1698 C1699 1.385 . S
C1698 C1700 1.478 . S
C1699 H1693 0.930 . S
C1699 C1695 1.400 . S
C1699 C1698 1.385 . S
C1700 C1698 1.478 . S
C1700 C1702 1.381 . S
C1700 C1706 1.383 . S
C1701 C1697 1.495 . S
C1701 H1707 0.959 . S
C1701 H1708 0.961 . S
C1701 H1709 0.960 . S
C1702 C1700 1.381 . S
C1702 C1703 1.394 . S
C1702 H1710 0.930 . S
C1703 C1702 1.394 . S
C1703 C1704 1.383 . S
C1703 H1711 0.929 . S
C1704 C1703 1.383 . S
C1704 C1705 1.377 . S
C1705 H1689 0.930 . S
C1705 C1704 1.377 . S
C1705 C1706 1.379 . S
C1706 H1690 0.931 . S
C1706 C1700 1.383 . S
C1706 C1705 1.379 . S
H1707 C1701 0.959 . S
H1708 C1701 0.961 . S
H1709 C1701 0.960 . S
H1710 C1702 0.930 . S
H1711 C1703 0.929 . S
H1712 C1720 0.929 . S
H1713 C1722 0.930 . S
H1714 C1724 0.930 . S
H1715 C1727 0.929 . S
H1716 C1730 0.930 . S
H1717 C1732 0.960 1_545 S
H1718 C1732 0.960 . S
H1719 C1732 0.960 . S
C1720 H1712 0.929 . S
C1720 C1721 1.377 . S
C1720 C1722 1.384 . S
C1721 C1720 1.377 . S
C1721 C1727 1.390 . S
C1722 H1713 0.930 . S
C1722 C1720 1.384 . S
C1722 C1723 1.372 . S
C1723 C1722 1.372 . S
C1723 C1724 1.400 . S
C1723 C1728 1.490 . S
C1724 H1714 0.930 . S
C1724 C1723 1.400 . S
C1724 C1727 1.386 . S
H1725 C1741 0.930 . S
H1726 C1742 0.931 . S
C1727 H1715 0.929 . S
C1727 C1721 1.390 . S
C1727 C1724 1.386 . S
C1728 C1723 1.490 . S
C1728 C1730 1.395 . S
C1728 C1731 1.403 . S
H1729 C1735 0.930 . S
C1730 H1716 0.930 . S
C1730 C1728 1.395 . S
C1730 C1733 1.379 1_565 S
C1731 C1728 1.403 . S
C1731 C1732 1.524 . S
C1731 C1735 1.400 1_565 S
C1732 H1717 0.960 1_565 S
C1732 H1718 0.960 . S
C1732 H1719 0.960 . S
C1732 C1731 1.524 . S
C1733 C1730 1.379 1_545 S
C1733 C1734 1.414 . S
C1733 C1737 1.498 . S
C1734 C1733 1.414 . S
C1734 C1735 1.385 . S
C1734 C1736 1.478 . S
C1735 H1729 0.930 . S
C1735 C1731 1.400 1_545 S
C1735 C1734 1.385 . S
C1736 C1734 1.478 . S
C1736 C1738 1.381 . S
C1736 C1742 1.383 . S
C1737 C1733 1.498 . S
C1737 H1743 0.959 1_545 S
C1737 H1744 0.961 . S
C1737 H1745 0.965 . S
C1738 C1736 1.381 . S
C1738 C1739 1.394 . S
C1738 H1746 0.930 . S
C1739 C1738 1.394 . S
C1739 C1740 1.383 . S
C1739 H1747 0.929 . S
C1740 C1739 1.383 . S
C1740 C1741 1.377 . S
C1741 H1725 0.930 . S
C1741 C1740 1.377 . S
C1741 C1742 1.379 . S
C1742 H1726 0.931 . S
C1742 C1736 1.383 . S
C1742 C1741 1.379 . S
H1743 C1737 0.959 1_565 S
H1744 C1737 0.961 . S
H1745 C1737 0.965 . S
H1746 C1738 0.930 . S
H1747 C1739 0.929 . S
H1748 C1756 0.929 . S
H1749 C1758 0.930 . S
H1750 C1760 0.930 . S
H1751 C1763 0.929 . S
H1752 C1766 0.930 . S
H1753 C1768 0.960 . S
H1754 C1768 0.960 . S
H1755 C1768 0.960 . S
C1756 H1748 0.929 . S
C1756 C1757 1.377 . S
C1756 C1758 1.384 . S
C1757 C1756 1.377 . S
C1757 C1763 1.390 . S
C1758 H1749 0.930 . S
C1758 C1756 1.384 . S
C1758 C1759 1.372 . S
C1759 C1758 1.372 . S
C1759 C1760 1.400 . S
C1759 C1764 1.490 . S
C1760 H1750 0.930 . S
C1760 C1759 1.400 . S
C1760 C1763 1.386 . S
H1761 C1777 0.930 . S
H1762 C1778 0.931 . S
C1763 H1751 0.929 . S
C1763 C1757 1.390 . S
C1763 C1760 1.386 . S
C1764 C1759 1.490 . S
C1764 C1766 1.395 1_655 S
C1764 C1767 1.403 . S
H1765 C1771 0.936 . S
C1766 H1752 0.930 . S
C1766 C1764 1.395 1_455 S
C1766 C1769 1.403 . S
C1767 C1764 1.403 . S
C1767 C1768 1.524 . S
C1767 C1771 1.433 . S
C1768 H1753 0.960 . S
C1768 H1754 0.960 . S
C1768 H1755 0.960 . S
C1768 C1767 1.524 . S
C1769 C1766 1.403 . S
C1769 C1770 1.392 . S
C1769 C1773 1.495 . S
C1770 C1769 1.392 . S
C1770 C1771 1.348 1_455 S
C1770 C1772 1.478 . S
C1771 H1765 0.936 . S
C1771 C1767 1.433 . S
C1771 C1770 1.348 1_655 S
C1772 C1770 1.478 . S
C1772 C1774 1.381 . S
C1772 C1778 1.383 . S
C1773 C1769 1.495 . S
C1773 H1779 0.959 . S
C1773 H1780 0.961 . S
C1773 H1781 0.960 . S
C1774 C1772 1.381 . S
C1774 C1775 1.394 . S
C1774 H1782 0.930 . S
C1775 C1774 1.394 . S
C1775 C1776 1.383 . S
C1775 H1783 0.929 . S
C1776 C1775 1.383 . S
C1776 C1777 1.377 . S
C1777 H1761 0.930 . S
C1777 C1776 1.377 . S
C1777 C1778 1.379 . S
C1778 H1762 0.931 . S
C1778 C1772 1.383 . S
C1778 C1777 1.379 . S
H1779 C1773 0.959 . S
H1780 C1773 0.961 . S
H1781 C1773 0.960 . S
H1782 C1774 0.930 . S
H1783 C1775 0.929 . S
H1784 C1792 0.929 . S
H1785 C1794 0.930 . S
H1786 C1796 0.930 . S
H1787 C1799 0.929 . S
H1788 C1802 0.930 . S
H1789 C1804 0.960 . S
H1790 C1804 0.960 . S
H1791 C1804 0.960 . S
C1792 H1784 0.929 . S
C1792 C1793 1.377 . S
C1792 C1794 1.384 . S
C1793 C1792 1.377 . S
C1793 C1799 1.390 . S
C1794 H1785 0.930 . S
C1794 C1792 1.384 . S
C1794 C1795 1.372 . S
C1795 C1794 1.372 . S
C1795 C1796 1.400 . S
C1795 C1800 1.490 . S
C1796 H1786 0.930 . S
C1796 C1795 1.400 . S
C1796 C1799 1.386 . S
H1797 C1813 0.930 . S
H1798 C1814 0.931 . S
C1799 H1787 0.929 . S
C1799 C1793 1.390 . S
C1799 C1796 1.386 . S
C1800 C1795 1.490 . S
C1800 C1802 1.395 . S
C1800 C1803 1.403 . S
H1801 C1807 0.930 . S
C1802 H1788 0.930 . S
C1802 C1800 1.395 . S
C1802 C1805 1.403 1_565 S
C1803 C1800 1.403 . S
C1803 C1804 1.524 . S
C1803 C1807 1.400 1_565 S
C1804 H1789 0.960 . S
C1804 H1790 0.960 . S
C1804 H1791 0.960 . S
C1804 C1803 1.524 . S
C1805 C1802 1.403 1_545 S
C1805 C1806 1.392 . S
C1805 C1809 1.495 . S
C1806 C1805 1.392 . S
C1806 C1807 1.385 . S
C1806 C1808 1.478 . S
C1807 H1801 0.930 . S
C1807 C1803 1.400 1_545 S
C1807 C1806 1.385 . S
C1808 C1806 1.478 . S
C1808 C1810 1.381 . S
C1808 C1814 1.383 . S
C1809 C1805 1.495 . S
C1809 H1815 0.959 . S
C1809 H1816 0.961 . S
C1809 H1817 0.960 . S
C1810 C1808 1.381 . S
C1810 C1811 1.394 . S
C1810 H1818 0.930 . S
C1811 C1810 1.394 . S
C1811 C1812 1.383 . S
C1811 H1819 0.929 . S
C1812 C1811 1.383 . S
C1812 C1813 1.377 . S
C1813 H1797 0.930 . S
C1813 C1812 1.377 . S
C1813 C1814 1.379 . S
C1814 H1798 0.931 . S
C1814 C1808 1.383 . S
C1814 C1813 1.379 . S
H1815 C1809 0.959 . S
H1816 C1809 0.961 . S
H1817 C1809 0.960 . S
H1818 C1810 0.930 . S
H1819 C1811 0.929 . S
H1820 C1828 0.929 . S
H1821 C1830 0.930 . S
H1822 C1832 0.930 . S
H1823 C1835 0.929 . S
H1824 C1838 0.930 . S
H1825 C1840 0.960 . S
H1826 C1840 0.960 1_655 S
H1827 C1840 0.960 . S
C1828 H1820 0.929 . S
C1828 C1829 1.377 . S
C1828 C1830 1.384 . S
C1829 C1828 1.377 . S
C1829 C1835 1.390 . S
C1830 H1821 0.930 . S
C1830 C1828 1.384 . S
C1830 C1831 1.372 . S
C1831 C1830 1.372 . S
C1831 C1832 1.400 . S
C1831 C1836 1.490 . S
C1832 H1822 0.930 . S
C1832 C1831 1.400 . S
C1832 C1835 1.386 . S
H1833 C1849 0.930 . S
H1834 C1850 0.931 . S
C1835 H1823 0.929 . S
C1835 C1829 1.390 . S
C1835 C1832 1.386 . S
C1836 C1831 1.490 . S
C1836 C1838 1.395 . S
C1836 C1839 1.403 1_655 S
H1837 C1843 0.930 . S
C1838 H1824 0.930 . S
C1838 C1836 1.395 . S
C1838 C1841 1.403 . S
C1839 C1836 1.403 1_455 S
C1839 C1840 1.524 . S
C1839 C1843 1.400 . S
C1840 H1825 0.960 . S
C1840 H1826 0.960 1_455 S
C1840 H1827 0.960 . S
C1840 C1839 1.524 . S
C1841 C1838 1.403 . S
C1841 C1842 1.392 1_655 S
C1841 C1845 1.495 . S
C1842 C1841 1.392 1_455 S
C1842 C1843 1.385 . S
C1842 C1844 1.478 . S
C1843 H1837 0.930 . S
C1843 C1839 1.400 . S
C1843 C1842 1.385 . S
C1844 C1842 1.478 . S
C1844 C1846 1.381 . S
C1844 C1850 1.383 . S
C1845 C1841 1.495 . S
C1845 H1851 0.959 . S
C1845 H1852 0.961 1_655 S
C1845 H1853 0.960 . S
C1846 C1844 1.381 . S
C1846 C1847 1.394 . S
C1846 H1854 0.930 . S
C1847 C1846 1.394 . S
C1847 C1848 1.383 . S
C1847 H1855 0.929 . S
C1848 C1847 1.383 . S
C1848 C1849 1.377 . S
C1849 H1833 0.930 . S
C1849 C1848 1.377 . S
C1849 C1850 1.379 . S
C1850 H1834 0.931 . S
C1850 C1844 1.383 . S
C1850 C1849 1.379 . S
H1851 C1845 0.959 . S
H1852 C1845 0.961 1_455 S
H1853 C1845 0.960 . S
H1854 C1846 0.930 . S
H1855 C1847 0.929 . S
H1856 C1864 0.929 . S
H1857 C1866 0.930 . S
H1858 C1868 0.930 . S
H1859 C1871 0.929 . S
H1860 C1874 0.930 . S
H1861 C1876 0.960 . S
H1862 C1876 0.960 . S
H1863 C1876 0.960 . S
C1864 H1856 0.929 . S
C1864 C1865 1.377 . S
C1864 C1866 1.384 . S
C1865 C1864 1.377 . S
C1865 C1871 1.390 . S
C1866 H1857 0.930 . S
C1866 C1864 1.384 . S
C1866 C1867 1.372 . S
C1867 C1866 1.372 . S
C1867 C1868 1.400 . S
C1867 C1872 1.490 . S
C1868 H1858 0.930 . S
C1868 C1867 1.400 . S
C1868 C1871 1.386 . S
H1869 C1885 0.930 . S
H1870 C1886 0.931 . S
C1871 H1859 0.929 . S
C1871 C1865 1.390 . S
C1871 C1868 1.386 . S
C1872 C1867 1.490 . S
C1872 C1874 1.395 . S
C1872 C1875 1.403 . S
H1873 C1879 0.930 . S
C1874 H1860 0.930 . S
C1874 C1872 1.395 . S
C1874 C1877 1.403 . S
C1875 C1872 1.403 . S
C1875 C1876 1.524 . S
C1875 C1879 1.400 . S
C1876 H1861 0.960 . S
C1876 H1862 0.960 . S
C1876 H1863 0.960 . S
C1876 C1875 1.524 . S
C1877 C1874 1.403 . S
C1877 C1878 1.392 . S
C1877 C1881 1.495 . S
C1878 C1877 1.392 . S
C1878 C1879 1.385 . S
C1878 C1880 1.478 . S
C1879 H1873 0.930 . S
C1879 C1875 1.400 . S
C1879 C1878 1.385 . S
C1880 C1878 1.478 . S
C1880 C1882 1.381 . S
C1880 C1886 1.383 . S
C1881 C1877 1.495 . S
C1881 H1887 0.959 . S
C1881 H1888 0.961 . S
C1881 H1889 0.960 . S
C1882 C1880 1.381 . S
C1882 C1883 1.394 . S
C1882 H1890 0.930 . S
C1883 C1882 1.394 . S
C1883 C1884 1.383 . S
C1883 H1891 0.929 . S
C1884 C1883 1.383 . S
C1884 C1885 1.377 . S
C1885 H1869 0.930 . S
C1885 C1884 1.377 . S
C1885 C1886 1.379 . S
C1886 H1870 0.931 . S
C1886 C1880 1.383 . S
C1886 C1885 1.379 . S
H1887 C1881 0.959 . S
H1888 C1881 0.961 . S
H1889 C1881 0.960 . S
H1890 C1882 0.930 . S
H1891 C1883 0.929 . S
H1892 C1900 0.929 . S
H1893 C1902 0.930 . S
H1894 C1904 0.930 . S
H1895 C1907 0.929 . S
H1896 C1910 0.930 . S
H1897 C1912 0.960 . S
H1898 C1912 0.960 . S
H1899 C1912 0.960 . S
C1900 H1892 0.929 . S
C1900 C1901 1.377 . S
C1900 C1902 1.384 . S
C1901 C1900 1.377 . S
C1901 C1907 1.390 . S
C1902 H1893 0.930 . S
C1902 C1900 1.384 . S
C1902 C1903 1.372 . S
C1903 C1902 1.372 . S
C1903 C1904 1.400 . S
C1903 C1908 1.490 . S
C1904 H1894 0.930 . S
C1904 C1903 1.400 . S
C1904 C1907 1.386 . S
H1905 C1921 0.930 . S
H1906 C1922 0.931 . S
C1907 H1895 0.929 . S
C1907 C1901 1.390 . S
C1907 C1904 1.386 . S
C1908 C1903 1.490 . S
C1908 C1910 1.395 . S
C1908 C1911 1.403 . S
H1909 C1915 0.930 . S
C1910 H1896 0.930 . S
C1910 C1908 1.395 . S
C1910 C1913 1.403 . S
C1911 C1908 1.403 . S
C1911 C1912 1.524 . S
C1911 C1915 1.400 . S
C1912 H1897 0.960 . S
C1912 H1898 0.960 . S
C1912 H1899 0.960 . S
C1912 C1911 1.524 . S
C1913 C1910 1.403 . S
C1913 C1914 1.392 . S
C1913 C1917 1.495 . S
C1914 C1913 1.392 . S
C1914 C1915 1.385 . S
C1914 C1916 1.478 . S
C1915 H1909 0.930 . S
C1915 C1911 1.400 . S
C1915 C1914 1.385 . S
C1916 C1914 1.478 . S
C1916 C1918 1.381 . S
C1916 C1922 1.383 . S
C1917 C1913 1.495 . S
C1917 H1923 0.959 . S
C1917 H1924 0.961 . S
C1917 H1925 0.960 . S
C1918 C1916 1.381 . S
C1918 C1919 1.394 . S
C1918 H1926 0.930 . S
C1919 C1918 1.394 . S
C1919 C1920 1.383 . S
C1919 H1927 0.929 . S
C1920 C1919 1.383 . S
C1920 C1921 1.377 . S
C1921 H1905 0.930 . S
C1921 C1920 1.377 . S
C1921 C1922 1.379 . S
C1922 H1906 0.931 . S
C1922 C1916 1.383 . S
C1922 C1921 1.379 . S
H1923 C1917 0.959 . S
H1924 C1917 0.961 . S
H1925 C1917 0.960 . S
H1926 C1918 0.930 . S
H1927 C1919 0.929 . S
H1928 C1936 0.929 . S
H1929 C1938 0.930 . S
H1930 C1940 0.930 . S
H1931 C1943 0.929 . S
H1932 C1946 0.930 . S
H1933 C1948 0.960 . S
H1934 C1948 0.960 . S
H1935 C1948 0.960 . S
C1936 H1928 0.929 . S
C1936 C1937 1.377 . S
C1936 C1938 1.384 . S
C1937 C1936 1.377 . S
C1937 C1943 1.390 . S
C1938 H1929 0.930 . S
C1938 C1936 1.384 . S
C1938 C1939 1.372 . S
C1939 C1938 1.372 . S
C1939 C1940 1.400 . S
C1939 C1944 1.490 . S
C1940 H1930 0.930 . S
C1940 C1939 1.400 . S
C1940 C1943 1.386 . S
H1941 C1957 0.930 . S
H1942 C1958 0.931 . S
C1943 H1931 0.929 . S
C1943 C1937 1.390 . S
C1943 C1940 1.386 . S
C1944 C1939 1.490 . S
C1944 C1946 1.395 . S
C1944 C1947 1.403 . S
H1945 C1951 0.930 . S
C1946 H1932 0.930 . S
C1946 C1944 1.395 . S
C1946 C1949 1.403 . S
C1947 C1944 1.403 . S
C1947 C1948 1.524 . S
C1947 C1951 1.400 . S
C1948 H1933 0.960 . S
C1948 H1934 0.960 . S
C1948 H1935 0.960 . S
C1948 C1947 1.524 . S
C1949 C1946 1.403 . S
C1949 C1950 1.392 . S
C1949 C1953 1.495 . S
C1950 C1949 1.392 . S
C1950 C1951 1.385 . S
C1950 C1952 1.478 . S
C1951 H1945 0.930 . S
C1951 C1947 1.400 . S
C1951 C1950 1.385 . S
C1952 C1950 1.478 . S
C1952 C1954 1.381 . S
C1952 C1958 1.383 . S
C1953 C1949 1.495 . S
C1953 H1959 0.959 . S
C1953 H1960 0.961 . S
C1953 H1961 0.960 . S
C1954 C1952 1.381 . S
C1954 C1955 1.394 . S
C1954 H1962 0.930 . S
C1955 C1954 1.394 . S
C1955 C1956 1.383 . S
C1955 H1963 0.929 . S
C1956 C1955 1.383 . S
C1956 C1957 1.377 . S
C1957 H1941 0.930 . S
C1957 C1956 1.377 . S
C1957 C1958 1.379 . S
C1958 H1942 0.931 . S
C1958 C1952 1.383 . S
C1958 C1957 1.379 . S
H1959 C1953 0.959 . S
H1960 C1953 0.961 . S
H1961 C1953 0.960 . S
H1962 C1954 0.930 . S
H1963 C1955 0.929 . S
H1964 C1972 0.929 . S
H1965 C1974 0.930 . S
H1966 C1976 0.930 . S
H1967 C1979 0.929 . S
H1968 C1982 0.930 . S
H1969 C1984 0.960 . S
H1970 C1984 0.960 . S
H1971 C1984 0.960 . S
C1972 H1964 0.929 . S
C1972 C1973 1.377 . S
C1972 C1974 1.384 . S
C1973 C1972 1.377 . S
C1973 C1979 1.390 . S
C1974 H1965 0.930 . S
C1974 C1972 1.384 . S
C1974 C1975 1.372 . S
C1975 C1974 1.372 . S
C1975 C1976 1.400 . S
C1975 C1980 1.490 . S
C1976 H1966 0.930 . S
C1976 C1975 1.400 . S
C1976 C1979 1.386 . S
H1977 C1993 0.930 . S
H1978 C1994 0.931 . S
C1979 H1967 0.929 . S
C1979 C1973 1.390 . S
C1979 C1976 1.386 . S
C1980 C1975 1.490 . S
C1980 C1982 1.395 . S
C1980 C1983 1.403 . S
H1981 C1987 0.930 . S
C1982 H1968 0.930 . S
C1982 C1980 1.395 . S
C1982 C1985 1.403 . S
C1983 C1980 1.403 . S
C1983 C1984 1.524 . S
C1983 C1987 1.400 . S
C1984 H1969 0.960 . S
C1984 H1970 0.960 . S
C1984 H1971 0.960 . S
C1984 C1983 1.524 . S
C1985 C1982 1.403 . S
C1985 C1986 1.392 . S
C1985 C1989 1.495 . S
C1986 C1985 1.392 . S
C1986 C1987 1.385 . S
C1986 C1988 1.478 . S
C1987 H1981 0.930 . S
C1987 C1983 1.400 . S
C1987 C1986 1.385 . S
C1988 C1986 1.478 . S
C1988 C1990 1.381 . S
C1988 C1994 1.383 . S
C1989 C1985 1.495 . S
C1989 H1995 0.959 . S
C1989 H1996 0.961 . S
C1989 H1997 0.960 . S
C1990 C1988 1.381 . S
C1990 C1991 1.394 . S
C1990 H1998 0.930 . S
C1991 C1990 1.394 . S
C1991 C1992 1.383 . S
C1991 H1999 0.929 . S
C1992 C1991 1.383 . S
C1992 C1993 1.377 . S
C1993 H1977 0.930 . S
C1993 C1992 1.377 . S
C1993 C1994 1.379 . S
C1994 H1978 0.931 . S
C1994 C1988 1.383 . S
C1994 C1993 1.379 . S
H1995 C1989 0.959 . S
H1996 C1989 0.961 . S
H1997 C1989 0.960 . S
H1998 C1990 0.930 . S
H1999 C1991 0.929 . S
H2000 C2008 0.929 . S
H2001 C2010 0.930 . S
H2002 C2012 0.930 . S
H2003 C2015 0.929 . S
H2004 C2018 0.930 . S
H2005 C2020 0.960 . S
H2006 C2020 0.960 . S
H2007 C2020 0.960 . S
C2008 H2000 0.929 . S
C2008 C2009 1.377 . S
C2008 C2010 1.384 . S
C2009 C2008 1.377 . S
C2009 C2015 1.390 . S
C2010 H2001 0.930 . S
C2010 C2008 1.384 . S
C2010 C2011 1.372 . S
C2011 C2010 1.372 . S
C2011 C2012 1.400 . S
C2011 C2016 1.490 . S
C2012 H2002 0.930 . S
C2012 C2011 1.400 . S
C2012 C2015 1.386 . S
H2013 C2029 0.930 . S
H2014 C2030 0.931 . S
C2015 H2003 0.929 . S
C2015 C2009 1.390 . S
C2015 C2012 1.386 . S
C2016 C2011 1.490 . S
C2016 C2018 1.395 . S
C2016 C2019 1.403 . S
H2017 C2023 0.930 . S
C2018 H2004 0.930 . S
C2018 C2016 1.395 . S
C2018 C2021 1.403 . S
C2019 C2016 1.403 . S
C2019 C2020 1.524 . S
C2019 C2023 1.400 . S
C2020 H2005 0.960 . S
C2020 H2006 0.960 . S
C2020 H2007 0.960 . S
C2020 C2019 1.524 . S
C2021 C2018 1.403 . S
C2021 C2022 1.392 . S
C2021 C2025 1.495 . S
C2022 C2021 1.392 . S
C2022 C2023 1.385 . S
C2022 C2024 1.478 . S
C2023 H2017 0.930 . S
C2023 C2019 1.400 . S
C2023 C2022 1.385 . S
C2024 C2022 1.478 . S
C2024 C2026 1.381 . S
C2024 C2030 1.383 . S
C2025 C2021 1.495 . S
C2025 H2031 0.959 . S
C2025 H2032 0.961 . S
C2025 H2033 0.960 . S
C2026 C2024 1.381 . S
C2026 C2027 1.394 . S
C2026 H2034 0.930 . S
C2027 C2026 1.394 . S
C2027 C2028 1.383 . S
C2027 H2035 0.929 . S
C2028 C2027 1.383 . S
C2028 C2029 1.377 . S
C2029 H2013 0.930 . S
C2029 C2028 1.377 . S
C2029 C2030 1.379 . S
C2030 H2014 0.931 . S
C2030 C2024 1.383 . S
C2030 C2029 1.379 . S
H2031 C2025 0.959 . S
H2032 C2025 0.961 . S
H2033 C2025 0.960 . S
H2034 C2026 0.930 . S
H2035 C2027 0.929 . S
H2036 C2044 0.929 . S
H2037 C2046 0.930 . S
H2038 C2048 0.930 . S
H2039 C2051 0.929 . S
H2040 C2054 0.930 . S
H2041 C2056 0.960 . S
H2042 C2056 0.960 . S
H2043 C2056 0.960 . S
C2044 H2036 0.929 . S
C2044 C2045 1.377 . S
C2044 C2046 1.384 . S
C2045 C2044 1.377 . S
C2045 C2051 1.390 . S
C2046 H2037 0.930 . S
C2046 C2044 1.384 . S
C2046 C2047 1.372 . S
C2047 C2046 1.372 . S
C2047 C2048 1.400 . S
C2047 C2052 1.490 . S
C2048 H2038 0.930 . S
C2048 C2047 1.400 . S
C2048 C2051 1.386 . S
H2049 C2065 0.930 . S
H2050 C2066 0.931 . S
C2051 H2039 0.929 . S
C2051 C2045 1.390 . S
C2051 C2048 1.386 . S
C2052 C2047 1.490 . S
C2052 C2054 1.395 . S
C2052 C2055 1.403 . S
H2053 C2059 0.930 . S
C2054 H2040 0.930 . S
C2054 C2052 1.395 . S
C2054 C2057 1.403 . S
C2055 C2052 1.403 . S
C2055 C2056 1.524 . S
C2055 C2059 1.400 . S
C2056 H2041 0.960 . S
C2056 H2042 0.960 . S
C2056 H2043 0.960 . S
C2056 C2055 1.524 . S
C2057 C2054 1.403 . S
C2057 C2058 1.392 . S
C2057 C2061 1.495 . S
C2058 C2057 1.392 . S
C2058 C2059 1.385 . S
C2058 C2060 1.478 . S
C2059 H2053 0.930 . S
C2059 C2055 1.400 . S
C2059 C2058 1.385 . S
C2060 C2058 1.478 . S
C2060 C2062 1.381 . S
C2060 C2066 1.383 . S
C2061 C2057 1.495 . S
C2061 H2067 0.959 . S
C2061 H2068 0.961 . S
C2061 H2069 0.960 . S
C2062 C2060 1.381 . S
C2062 C2063 1.394 . S
C2062 H2070 0.930 . S
C2063 C2062 1.394 . S
C2063 C2064 1.383 . S
C2063 H2071 0.929 . S
C2064 C2063 1.383 . S
C2064 C2065 1.377 . S
C2065 H2049 0.930 . S
C2065 C2064 1.377 . S
C2065 C2066 1.379 . S
C2066 H2050 0.931 . S
C2066 C2060 1.383 . S
C2066 C2065 1.379 . S
H2067 C2061 0.959 . S
H2068 C2061 0.961 . S
H2069 C2061 0.960 . S
H2070 C2062 0.930 . S
H2071 C2063 0.929 . S
H2072 C2080 0.929 . S
H2073 C2082 0.930 . S
H2074 C2084 0.930 . S
H2075 C2087 0.929 . S
H2076 C2090 0.930 . S
H2077 C2092 0.960 . S
H2078 C2092 0.960 . S
H2079 C2092 0.960 . S
C2080 H2072 0.929 . S
C2080 C2081 1.377 . S
C2080 C2082 1.384 . S
C2081 C2080 1.377 . S
C2081 C2087 1.390 . S
C2082 H2073 0.930 . S
C2082 C2080 1.384 . S
C2082 C2083 1.372 . S
C2083 C2082 1.372 . S
C2083 C2084 1.400 . S
C2083 C2088 1.490 . S
C2084 H2074 0.930 . S
C2084 C2083 1.400 . S
C2084 C2087 1.386 . S
H2085 C2101 0.930 . S
H2086 C2102 0.931 . S
C2087 H2075 0.929 . S
C2087 C2081 1.390 . S
C2087 C2084 1.386 . S
C2088 C2083 1.490 . S
C2088 C2090 1.395 . S
C2088 C2091 1.403 . S
H2089 C2095 0.930 . S
C2090 H2076 0.930 . S
C2090 C2088 1.395 . S
C2090 C2093 1.403 . S
C2091 C2088 1.403 . S
C2091 C2092 1.524 . S
C2091 C2095 1.400 . S
C2092 H2077 0.960 . S
C2092 H2078 0.960 . S
C2092 H2079 0.960 . S
C2092 C2091 1.524 . S
C2093 C2090 1.403 . S
C2093 C2094 1.392 . S
C2093 C2097 1.495 . S
C2094 C2093 1.392 . S
C2094 C2095 1.385 . S
C2094 C2096 1.478 . S
C2095 H2089 0.930 . S
C2095 C2091 1.400 . S
C2095 C2094 1.385 . S
C2096 C2094 1.478 . S
C2096 C2098 1.381 . S
C2096 C2102 1.383 . S
C2097 C2093 1.495 . S
C2097 H2103 0.959 . S
C2097 H2104 0.961 . S
C2097 H2105 0.960 . S
C2098 C2096 1.381 . S
C2098 C2099 1.394 . S
C2098 H2106 0.930 . S
C2099 C2098 1.394 . S
C2099 C2100 1.383 . S
C2099 H2107 0.929 . S
C2100 C2099 1.383 . S
C2100 C2101 1.377 . S
C2101 H2085 0.930 . S
C2101 C2100 1.377 . S
C2101 C2102 1.379 . S
C2102 H2086 0.931 . S
C2102 C2096 1.383 . S
C2102 C2101 1.379 . S
H2103 C2097 0.959 . S
H2104 C2097 0.961 . S
H2105 C2097 0.960 . S
H2106 C2098 0.930 . S
H2107 C2099 0.929 . S
H2108 C2116 0.929 . S
H2109 C2118 0.930 . S
H2110 C2120 0.930 . S
H2111 C2123 0.929 . S
H2112 C2126 0.930 . S
H2113 C2128 0.960 . S
H2114 C2128 0.960 . S
H2115 C2128 0.960 . S
C2116 H2108 0.929 . S
C2116 C2117 1.377 . S
C2116 C2118 1.384 . S
C2117 C2116 1.377 . S
C2117 C2123 1.390 . S
C2118 H2109 0.930 . S
C2118 C2116 1.384 . S
C2118 C2119 1.372 . S
C2119 C2118 1.372 . S
C2119 C2120 1.400 . S
C2119 C2124 1.490 . S
C2120 H2110 0.930 . S
C2120 C2119 1.400 . S
C2120 C2123 1.386 . S
H2121 C2137 0.930 . S
H2122 C2138 0.931 . S
C2123 H2111 0.929 . S
C2123 C2117 1.390 . S
C2123 C2120 1.386 . S
C2124 C2119 1.490 . S
C2124 C2126 1.395 . S
C2124 C2127 1.403 . S
H2125 C2131 0.930 . S
C2126 H2112 0.930 . S
C2126 C2124 1.395 . S
C2126 C2129 1.403 . S
C2127 C2124 1.403 . S
C2127 C2128 1.524 . S
C2127 C2131 1.400 . S
C2128 H2113 0.960 . S
C2128 H2114 0.960 . S
C2128 H2115 0.960 . S
C2128 C2127 1.524 . S
C2129 C2126 1.403 . S
C2129 C2130 1.392 . S
C2129 C2133 1.495 . S
C2130 C2129 1.392 . S
C2130 C2131 1.385 . S
C2130 C2132 1.478 . S
C2131 H2125 0.930 . S
C2131 C2127 1.400 . S
C2131 C2130 1.385 . S
C2132 C2130 1.478 . S
C2132 C2134 1.381 . S
C2132 C2138 1.383 . S
C2133 C2129 1.495 . S
C2133 H2139 0.959 . S
C2133 H2140 0.961 . S
C2133 H2141 0.960 . S
C2134 C2132 1.381 . S
C2134 C2135 1.394 . S
C2134 H2142 0.930 . S
C2135 C2134 1.394 . S
C2135 C2136 1.383 . S
C2135 H2143 0.929 . S
C2136 C2135 1.383 . S
C2136 C2137 1.377 . S
C2137 H2121 0.930 . S
C2137 C2136 1.377 . S
C2137 C2138 1.379 . S
C2138 H2122 0.931 . S
C2138 C2132 1.383 . S
C2138 C2137 1.379 . S
H2139 C2133 0.959 . S
H2140 C2133 0.961 . S
H2141 C2133 0.960 . S
H2142 C2134 0.930 . S
H2143 C2135 0.929 . S
H2144 C2152 0.929 . S
H2145 C2154 0.930 . S
H2146 C2156 0.930 . S
H2147 C2159 0.929 . S
H2148 C2162 0.930 . S
H2149 C2164 0.960 . S
H2150 C2164 0.960 . S
H2151 C2164 0.960 . S
C2152 H2144 0.929 . S
C2152 C2153 1.377 . S
C2152 C2154 1.384 . S
C2153 C2152 1.377 . S
C2153 C2159 1.390 . S
C2154 H2145 0.930 . S
C2154 C2152 1.384 . S
C2154 C2155 1.372 . S
C2155 C2154 1.372 . S
C2155 C2156 1.400 . S
C2155 C2160 1.490 . S
C2156 H2146 0.930 . S
C2156 C2155 1.400 . S
C2156 C2159 1.386 . S
H2157 C2173 0.930 . S
H2158 C2174 0.931 . S
C2159 H2147 0.929 . S
C2159 C2153 1.390 . S
C2159 C2156 1.386 . S
C2160 C2155 1.490 . S
C2160 C2162 1.395 . S
C2160 C2163 1.403 . S
H2161 C2167 0.930 . S
C2162 H2148 0.930 . S
C2162 C2160 1.395 . S
C2162 C2165 1.403 . S
C2163 C2160 1.403 . S
C2163 C2164 1.524 . S
C2163 C2167 1.400 . S
C2164 H2149 0.960 . S
C2164 H2150 0.960 . S
C2164 H2151 0.960 . S
C2164 C2163 1.524 . S
C2165 C2162 1.403 . S
C2165 C2166 1.392 . S
C2165 C2169 1.495 . S
C2166 C2165 1.392 . S
C2166 C2167 1.385 . S
C2166 C2168 1.478 . S
C2167 H2161 0.930 . S
C2167 C2163 1.400 . S
C2167 C2166 1.385 . S
C2168 C2166 1.478 . S
C2168 C2170 1.381 . S
C2168 C2174 1.383 . S
C2169 C2165 1.495 . S
C2169 H2175 0.959 . S
C2169 H2176 0.961 . S
C2169 H2177 0.960 . S
C2170 C2168 1.381 . S
C2170 C2171 1.394 . S
C2170 H2178 0.930 . S
C2171 C2170 1.394 . S
C2171 C2172 1.383 . S
C2171 H2179 0.929 . S
C2172 C2171 1.383 . S
C2172 C2173 1.377 . S
C2173 H2157 0.930 . S
C2173 C2172 1.377 . S
C2173 C2174 1.379 . S
C2174 H2158 0.931 . S
C2174 C2168 1.383 . S
C2174 C2173 1.379 . S
H2175 C2169 0.959 . S
H2176 C2169 0.961 . S
H2177 C2169 0.960 . S
H2178 C2170 0.930 . S
H2179 C2171 0.929 . S
H2180 C2188 0.929 . S
H2181 C2190 0.930 . S
H2182 C2192 0.930 . S
H2183 C2195 0.929 . S
H2184 C2198 0.930 . S
H2185 C2200 0.960 . S
H2186 C2200 0.960 . S
H2187 C2200 0.960 . S
C2188 H2180 0.929 . S
C2188 C2189 1.377 . S
C2188 C2190 1.384 . S
C2189 C2188 1.377 . S
C2189 C2195 1.390 . S
C2190 H2181 0.930 . S
C2190 C2188 1.384 . S
C2190 C2191 1.372 . S
C2191 C2190 1.372 . S
C2191 C2192 1.400 . S
C2191 C2196 1.490 . S
C2192 H2182 0.930 . S
C2192 C2191 1.400 . S
C2192 C2195 1.386 . S
H2193 C2209 0.930 . S
H2194 C2210 0.931 . S
C2195 H2183 0.929 . S
C2195 C2189 1.390 . S
C2195 C2192 1.386 . S
C2196 C2191 1.490 . S
C2196 C2198 1.395 . S
C2196 C2199 1.403 . S
H2197 C2203 0.930 . S
C2198 H2184 0.930 . S
C2198 C2196 1.395 . S
C2198 C2201 1.403 . S
C2199 C2196 1.403 . S
C2199 C2200 1.524 . S
C2199 C2203 1.400 . S
C2200 H2185 0.960 . S
C2200 H2186 0.960 . S
C2200 H2187 0.960 . S
C2200 C2199 1.524 . S
C2201 C2198 1.403 . S
C2201 C2202 1.392 . S
C2201 C2205 1.495 . S
C2202 C2201 1.392 . S
C2202 C2203 1.385 . S
C2202 C2204 1.478 . S
C2203 H2197 0.930 . S
C2203 C2199 1.400 . S
C2203 C2202 1.385 . S
C2204 C2202 1.478 . S
C2204 C2206 1.381 . S
C2204 C2210 1.383 . S
C2205 C2201 1.495 . S
C2205 H2211 0.959 . S
C2205 H2212 0.961 . S
C2205 H2213 0.960 . S
C2206 C2204 1.381 . S
C2206 C2207 1.394 . S
C2206 H2214 0.930 . S
C2207 C2206 1.394 . S
C2207 C2208 1.383 . S
C2207 H2215 0.929 . S
C2208 C2207 1.383 . S
C2208 C2209 1.377 . S
C2209 H2193 0.930 . S
C2209 C2208 1.377 . S
C2209 C2210 1.379 . S
C2210 H2194 0.931 . S
C2210 C2204 1.383 . S
C2210 C2209 1.379 . S
H2211 C2205 0.959 . S
H2212 C2205 0.961 . S
H2213 C2205 0.960 . S
H2214 C2206 0.930 . S
H2215 C2207 0.929 . S
H2216 C2224 0.929 . S
H2217 C2226 0.930 . S
H2218 C2228 0.930 . S
H2219 C2231 0.929 . S
H2220 C2234 0.930 . S
H2221 C2236 0.960 . S
H2222 C2236 0.960 . S
H2223 C2236 0.960 . S
C2224 H2216 0.929 . S
C2224 C2225 1.377 . S
C2224 C2226 1.384 . S
C2225 C2224 1.377 . S
C2225 C2231 1.390 . S
C2226 H2217 0.930 . S
C2226 C2224 1.384 . S
C2226 C2227 1.372 . S
C2227 C2226 1.372 . S
C2227 C2228 1.400 . S
C2227 C2232 1.490 . S
C2228 H2218 0.930 . S
C2228 C2227 1.400 . S
C2228 C2231 1.386 . S
H2229 C2245 0.930 . S
H2230 C2246 0.931 . S
C2231 H2219 0.929 . S
C2231 C2225 1.390 . S
C2231 C2228 1.386 . S
C2232 C2227 1.490 . S
C2232 C2234 1.395 . S
C2232 C2235 1.403 . S
H2233 C2239 0.930 . S
C2234 H2220 0.930 . S
C2234 C2232 1.395 . S
C2234 C2237 1.403 . S
C2235 C2232 1.403 . S
C2235 C2236 1.524 . S
C2235 C2239 1.400 . S
C2236 H2221 0.960 . S
C2236 H2222 0.960 . S
C2236 H2223 0.960 . S
C2236 C2235 1.524 . S
C2237 C2234 1.403 . S
C2237 C2238 1.392 . S
C2237 C2241 1.495 . S
C2238 C2237 1.392 . S
C2238 C2239 1.385 . S
C2238 C2240 1.478 . S
C2239 H2233 0.930 . S
C2239 C2235 1.400 . S
C2239 C2238 1.385 . S
C2240 C2238 1.478 . S
C2240 C2242 1.381 . S
C2240 C2246 1.383 . S
C2241 C2237 1.495 . S
C2241 H2247 0.959 . S
C2241 H2248 0.961 . S
C2241 H2249 0.960 . S
C2242 C2240 1.381 . S
C2242 C2243 1.394 . S
C2242 H2250 0.930 . S
C2243 C2242 1.394 . S
C2243 C2244 1.383 . S
C2243 H2251 0.929 . S
C2244 C2243 1.383 . S
C2244 C2245 1.377 . S
C2245 H2229 0.930 . S
C2245 C2244 1.377 . S
C2245 C2246 1.379 . S
C2246 H2230 0.931 . S
C2246 C2240 1.383 . S
C2246 C2245 1.379 . S
H2247 C2241 0.959 . S
H2248 C2241 0.961 . S
H2249 C2241 0.960 . S
H2250 C2242 0.930 . S
H2251 C2243 0.929 . S
H2252 C2260 0.929 . S
H2253 C2262 0.930 . S
H2254 C2264 0.930 . S
H2255 C2267 0.929 . S
H2256 C2270 0.930 . S
H2257 C2272 0.960 . S
H2258 C2272 0.960 . S
H2259 C2272 0.960 . S
C2260 H2252 0.929 . S
C2260 C2261 1.377 . S
C2260 C2262 1.384 . S
C2261 C2260 1.377 . S
C2261 C2267 1.390 . S
C2262 H2253 0.930 . S
C2262 C2260 1.384 . S
C2262 C2263 1.372 . S
C2263 C2262 1.372 . S
C2263 C2264 1.400 . S
C2263 C2268 1.490 . S
C2264 H2254 0.930 . S
C2264 C2263 1.400 . S
C2264 C2267 1.386 . S
H2265 C2281 0.930 . S
H2266 C2282 0.931 . S
C2267 H2255 0.929 . S
C2267 C2261 1.390 . S
C2267 C2264 1.386 . S
C2268 C2263 1.490 . S
C2268 C2270 1.395 . S
C2268 C2271 1.403 . S
H2269 C2275 0.930 . S
C2270 H2256 0.930 . S
C2270 C2268 1.395 . S
C2270 C2273 1.403 . S
C2271 C2268 1.403 . S
C2271 C2272 1.524 . S
C2271 C2275 1.400 . S
C2272 H2257 0.960 . S
C2272 H2258 0.960 . S
C2272 H2259 0.960 . S
C2272 C2271 1.524 . S
C2273 C2270 1.403 . S
C2273 C2274 1.392 . S
C2273 C2277 1.495 . S
C2274 C2273 1.392 . S
C2274 C2275 1.385 . S
C2274 C2276 1.478 . S
C2275 H2269 0.930 . S
C2275 C2271 1.400 . S
C2275 C2274 1.385 . S
C2276 C2274 1.478 . S
C2276 C2278 1.381 . S
C2276 C2282 1.383 . S
C2277 C2273 1.495 . S
C2277 H2283 0.959 . S
C2277 H2284 0.961 . S
C2277 H2285 0.960 . S
C2278 C2276 1.381 . S
C2278 C2279 1.394 . S
C2278 H2286 0.930 . S
C2279 C2278 1.394 . S
C2279 C2280 1.383 . S
C2279 H2287 0.929 . S
C2280 C2279 1.383 . S
C2280 C2281 1.377 . S
C2281 H2265 0.930 . S
C2281 C2280 1.377 . S
C2281 C2282 1.379 . S
C2282 H2266 0.931 . S
C2282 C2276 1.383 . S
C2282 C2281 1.379 . S
H2283 C2277 0.959 . S
H2284 C2277 0.961 . S
H2285 C2277 0.960 . S
H2286 C2278 0.930 . S
H2287 C2279 0.929 . S
H2288 C2296 0.929 . S
H2289 C2298 0.930 . S
H2290 C2300 0.930 . S
H2291 C2303 0.929 . S
H2292 C2306 0.930 . S
H2293 C2308 0.960 . S
H2294 C2308 0.960 . S
H2295 C2308 0.960 . S
C2296 H2288 0.929 . S
C2296 C2297 1.377 . S
C2296 C2298 1.384 . S
C2297 C2296 1.377 . S
C2297 C2303 1.390 . S
C2298 H2289 0.930 . S
C2298 C2296 1.384 . S
C2298 C2299 1.372 . S
C2299 C2298 1.372 . S
C2299 C2300 1.400 . S
C2299 C2304 1.490 . S
C2300 H2290 0.930 . S
C2300 C2299 1.400 . S
C2300 C2303 1.386 . S
H2301 C2317 0.930 . S
H2302 C2318 0.931 . S
C2303 H2291 0.929 . S
C2303 C2297 1.390 . S
C2303 C2300 1.386 . S
C2304 C2299 1.490 . S
C2304 C2306 1.395 . S
C2304 C2307 1.403 . S
H2305 C2311 0.930 . S
C2306 H2292 0.930 . S
C2306 C2304 1.395 . S
C2306 C2309 1.403 . S
C2307 C2304 1.403 . S
C2307 C2308 1.524 . S
C2307 C2311 1.400 . S
C2308 H2293 0.960 . S
C2308 H2294 0.960 . S
C2308 H2295 0.960 . S
C2308 C2307 1.524 . S
C2309 C2306 1.403 . S
C2309 C2310 1.392 . S
C2309 C2313 1.495 . S
C2310 C2309 1.392 . S
C2310 C2311 1.385 . S
C2310 C2312 1.478 . S
C2311 H2305 0.930 . S
C2311 C2307 1.400 . S
C2311 C2310 1.385 . S
C2312 C2310 1.478 . S
C2312 C2314 1.381 . S
C2312 C2318 1.383 . S
C2313 C2309 1.495 . S
C2313 H2319 0.959 . S
C2313 H2320 0.961 . S
C2313 H2321 0.960 . S
C2314 C2312 1.381 . S
C2314 C2315 1.394 . S
C2314 H2322 0.930 . S
C2315 C2314 1.394 . S
C2315 C2316 1.383 . S
C2315 H2323 0.929 . S
C2316 C2315 1.383 . S
C2316 C2317 1.377 . S
C2317 H2301 0.930 . S
C2317 C2316 1.377 . S
C2317 C2318 1.379 . S
C2318 H2302 0.931 . S
C2318 C2312 1.383 . S
C2318 C2317 1.379 . S
H2319 C2313 0.959 . S
H2320 C2313 0.961 . S
H2321 C2313 0.960 . S
H2322 C2314 0.930 . S
H2323 C2315 0.929 . S
H2324 C2332 0.929 . S
H2325 C2334 0.930 . S
H2326 C2336 0.930 . S
H2327 C2339 0.929 . S
H2328 C2342 0.930 . S
H2329 C2344 0.960 . S
H2330 C2344 0.960 . S
H2331 C2344 0.960 . S
C2332 H2324 0.929 . S
C2332 C2333 1.377 . S
C2332 C2334 1.384 . S
C2333 C2332 1.377 . S
C2333 C2339 1.390 . S
C2334 H2325 0.930 . S
C2334 C2332 1.384 . S
C2334 C2335 1.372 . S
C2335 C2334 1.372 . S
C2335 C2336 1.400 . S
C2335 C2340 1.490 . S
C2336 H2326 0.930 . S
C2336 C2335 1.400 . S
C2336 C2339 1.386 . S
H2337 C2353 0.930 . S
H2338 C2354 0.931 . S
C2339 H2327 0.929 . S
C2339 C2333 1.390 . S
C2339 C2336 1.386 . S
C2340 C2335 1.490 . S
C2340 C2342 1.395 . S
C2340 C2343 1.403 . S
H2341 C2347 0.930 . S
C2342 H2328 0.930 . S
C2342 C2340 1.395 . S
C2342 C2345 1.403 . S
C2343 C2340 1.403 . S
C2343 C2344 1.524 . S
C2343 C2347 1.400 . S
C2344 H2329 0.960 . S
C2344 H2330 0.960 . S
C2344 H2331 0.960 . S
C2344 C2343 1.524 . S
C2345 C2342 1.403 . S
C2345 C2346 1.392 . S
C2345 C2349 1.495 . S
C2346 C2345 1.392 . S
C2346 C2347 1.385 . S
C2346 C2348 1.478 . S
C2347 H2341 0.930 . S
C2347 C2343 1.400 . S
C2347 C2346 1.385 . S
C2348 C2346 1.478 . S
C2348 C2350 1.381 . S
C2348 C2354 1.383 . S
C2349 C2345 1.495 . S
C2349 H2355 0.959 . S
C2349 H2356 0.961 . S
C2349 H2357 0.960 . S
C2350 C2348 1.381 . S
C2350 C2351 1.394 . S
C2350 H2358 0.930 . S
C2351 C2350 1.394 . S
C2351 C2352 1.383 . S
C2351 H2359 0.929 . S
C2352 C2351 1.383 . S
C2352 C2353 1.377 . S
C2353 H2337 0.930 . S
C2353 C2352 1.377 . S
C2353 C2354 1.379 . S
C2354 H2338 0.931 . S
C2354 C2348 1.383 . S
C2354 C2353 1.379 . S
H2355 C2349 0.959 . S
H2356 C2349 0.961 . S
H2357 C2349 0.960 . S
H2358 C2350 0.930 . S
H2359 C2351 0.929 . S
H2360 C2368 0.929 . S
H2361 C2370 0.930 . S
H2362 C2372 0.930 . S
H2363 C2375 0.929 . S
H2364 C2378 0.930 . S
H2365 C2380 0.960 . S
H2366 C2380 0.960 . S
H2367 C2380 0.960 . S
C2368 H2360 0.929 . S
C2368 C2369 1.377 . S
C2368 C2370 1.384 . S
C2369 C2368 1.377 . S
C2369 C2375 1.390 . S
C2370 H2361 0.930 . S
C2370 C2368 1.384 . S
C2370 C2371 1.372 . S
C2371 C2370 1.372 . S
C2371 C2372 1.400 . S
C2371 C2376 1.490 . S
C2372 H2362 0.930 . S
C2372 C2371 1.400 . S
C2372 C2375 1.386 . S
H2373 C2389 0.930 . S
H2374 C2390 0.931 . S
C2375 H2363 0.929 . S
C2375 C2369 1.390 . S
C2375 C2372 1.386 . S
C2376 C2371 1.490 . S
C2376 C2378 1.395 . S
C2376 C2379 1.403 . S
H2377 C2383 0.930 . S
C2378 H2364 0.930 . S
C2378 C2376 1.395 . S
C2378 C2381 1.403 . S
C2379 C2376 1.403 . S
C2379 C2380 1.524 . S
C2379 C2383 1.400 . S
C2380 H2365 0.960 . S
C2380 H2366 0.960 . S
C2380 H2367 0.960 . S
C2380 C2379 1.524 . S
C2381 C2378 1.403 . S
C2381 C2382 1.392 . S
C2381 C2385 1.495 . S
C2382 C2381 1.392 . S
C2382 C2383 1.385 . S
C2382 C2384 1.478 . S
C2383 H2377 0.930 . S
C2383 C2379 1.400 . S
C2383 C2382 1.385 . S
C2384 C2382 1.478 . S
C2384 C2386 1.381 . S
C2384 C2390 1.383 . S
C2385 C2381 1.495 . S
C2385 H2391 0.959 . S
C2385 H2392 0.961 . S
C2385 H2393 0.960 . S
C2386 C2384 1.381 . S
C2386 C2387 1.394 . S
C2386 H2394 0.930 . S
C2387 C2386 1.394 . S
C2387 C2388 1.383 . S
C2387 H2395 0.929 . S
C2388 C2387 1.383 . S
C2388 C2389 1.377 . S
C2389 H2373 0.930 . S
C2389 C2388 1.377 . S
C2389 C2390 1.379 . S
C2390 H2374 0.931 . S
C2390 C2384 1.383 . S
C2390 C2389 1.379 . S
H2391 C2385 0.959 . S
H2392 C2385 0.961 . S
H2393 C2385 0.960 . S
H2394 C2386 0.930 . S
H2395 C2387 0.929 . S
H2396 C2404 0.929 . S
H2397 C2406 0.930 . S
H2398 C2408 0.930 . S
H2399 C2411 0.929 . S
H2400 C2414 0.930 . S
H2401 C2416 0.960 . S
H2402 C2416 0.960 . S
H2403 C2416 0.960 . S
C2404 H2396 0.929 . S
C2404 C2405 1.377 . S
C2404 C2406 1.384 . S
C2405 C2404 1.377 . S
C2405 C2411 1.390 . S
C2406 H2397 0.930 . S
C2406 C2404 1.384 . S
C2406 C2407 1.372 . S
C2407 C2406 1.372 . S
C2407 C2408 1.400 . S
C2407 C2412 1.490 . S
C2408 H2398 0.930 . S
C2408 C2407 1.400 . S
C2408 C2411 1.386 . S
H2409 C2425 0.930 . S
H2410 C2426 0.931 . S
C2411 H2399 0.929 . S
C2411 C2405 1.390 . S
C2411 C2408 1.386 . S
C2412 C2407 1.490 . S
C2412 C2414 1.395 . S
C2412 C2415 1.403 . S
H2413 C2419 0.930 . S
C2414 H2400 0.930 . S
C2414 C2412 1.395 . S
C2414 C2417 1.403 . S
C2415 C2412 1.403 . S
C2415 C2416 1.524 . S
C2415 C2419 1.400 . S
C2416 H2401 0.960 . S
C2416 H2402 0.960 . S
C2416 H2403 0.960 . S
C2416 C2415 1.524 . S
C2417 C2414 1.403 . S
C2417 C2418 1.392 . S
C2417 C2421 1.495 . S
C2418 C2417 1.392 . S
C2418 C2419 1.385 . S
C2418 C2420 1.478 . S
C2419 H2413 0.930 . S
C2419 C2415 1.400 . S
C2419 C2418 1.385 . S
C2420 C2418 1.478 . S
C2420 C2422 1.381 . S
C2420 C2426 1.383 . S
C2421 C2417 1.495 . S
C2421 H2427 0.959 . S
C2421 H2428 0.961 . S
C2421 H2429 0.960 . S
C2422 C2420 1.381 . S
C2422 C2423 1.394 . S
C2422 H2430 0.930 . S
C2423 C2422 1.394 . S
C2423 C2424 1.383 . S
C2423 H2431 0.929 . S
C2424 C2423 1.383 . S
C2424 C2425 1.377 . S
C2425 H2409 0.930 . S
C2425 C2424 1.377 . S
C2425 C2426 1.379 . S
C2426 H2410 0.931 . S
C2426 C2420 1.383 . S
C2426 C2425 1.379 . S
H2427 C2421 0.959 . S
H2428 C2421 0.961 . S
H2429 C2421 0.960 . S
H2430 C2422 0.930 . S
H2431 C2423 0.929 . S
H2432 C2440 0.929 . S
H2433 C2442 0.930 . S
H2434 C2444 0.930 . S
H2435 C2447 0.929 . S
H2436 C2450 0.930 . S
H2437 C2452 0.960 . S
H2438 C2452 0.960 . S
H2439 C2452 0.960 . S
C2440 H2432 0.929 . S
C2440 C2441 1.377 . S
C2440 C2442 1.384 . S
C2441 C2440 1.377 . S
C2441 C2447 1.390 . S
C2442 H2433 0.930 . S
C2442 C2440 1.384 . S
C2442 C2443 1.372 . S
C2443 C2442 1.372 . S
C2443 C2444 1.400 . S
C2443 C2448 1.490 . S
C2444 H2434 0.930 . S
C2444 C2443 1.400 . S
C2444 C2447 1.386 . S
H2445 C2461 0.930 . S
H2446 C2462 0.931 . S
C2447 H2435 0.929 . S
C2447 C2441 1.390 . S
C2447 C2444 1.386 . S
C2448 C2443 1.490 . S
C2448 C2450 1.395 . S
C2448 C2451 1.403 . S
H2449 C2455 0.930 . S
C2450 H2436 0.930 . S
C2450 C2448 1.395 . S
C2450 C2453 1.403 . S
C2451 C2448 1.403 . S
C2451 C2452 1.524 . S
C2451 C2455 1.400 . S
C2452 H2437 0.960 . S
C2452 H2438 0.960 . S
C2452 H2439 0.960 . S
C2452 C2451 1.524 . S
C2453 C2450 1.403 . S
C2453 C2454 1.392 . S
C2453 C2457 1.495 . S
C2454 C2453 1.392 . S
C2454 C2455 1.385 . S
C2454 C2456 1.478 . S
C2455 H2449 0.930 . S
C2455 C2451 1.400 . S
C2455 C2454 1.385 . S
C2456 C2454 1.478 . S
C2456 C2458 1.381 . S
C2456 C2462 1.383 . S
C2457 C2453 1.495 . S
C2457 H2463 0.959 . S
C2457 H2464 0.961 . S
C2457 H2465 0.960 . S
C2458 C2456 1.381 . S
C2458 C2459 1.394 . S
C2458 H2466 0.930 . S
C2459 C2458 1.394 . S
C2459 C2460 1.383 . S
C2459 H2467 0.929 . S
C2460 C2459 1.383 . S
C2460 C2461 1.377 . S
C2461 H2445 0.930 . S
C2461 C2460 1.377 . S
C2461 C2462 1.379 . S
C2462 H2446 0.931 . S
C2462 C2456 1.383 . S
C2462 C2461 1.379 . S
H2463 C2457 0.959 . S
H2464 C2457 0.961 . S
H2465 C2457 0.960 . S
H2466 C2458 0.930 . S
H2467 C2459 0.929 . S
H2468 C2476 0.929 . S
H2469 C2478 0.930 . S
H2470 C2480 0.930 . S
H2471 C2483 0.929 . S
H2472 C2486 0.930 . S
H2473 C2488 0.960 . S
H2474 C2488 0.960 . S
H2475 C2488 0.960 . S
C2476 H2468 0.929 . S
C2476 C2477 1.377 . S
C2476 C2478 1.384 . S
C2477 C2476 1.377 . S
C2477 C2483 1.390 . S
C2478 H2469 0.930 . S
C2478 C2476 1.384 . S
C2478 C2479 1.372 . S
C2479 C2478 1.372 . S
C2479 C2480 1.400 . S
C2479 C2484 1.490 . S
C2480 H2470 0.930 . S
C2480 C2479 1.400 . S
C2480 C2483 1.386 . S
H2481 C2497 0.930 . S
H2482 C2498 0.931 . S
C2483 H2471 0.929 . S
C2483 C2477 1.390 . S
C2483 C2480 1.386 . S
C2484 C2479 1.490 . S
C2484 C2486 1.395 . S
C2484 C2487 1.403 . S
H2485 C2491 0.930 . S
C2486 H2472 0.930 . S
C2486 C2484 1.395 . S
C2486 C2489 1.403 . S
C2487 C2484 1.403 . S
C2487 C2488 1.524 . S
C2487 C2491 1.400 . S
C2488 H2473 0.960 . S
C2488 H2474 0.960 . S
C2488 H2475 0.960 . S
C2488 C2487 1.524 . S
C2489 C2486 1.403 . S
C2489 C2490 1.392 . S
C2489 C2493 1.495 . S
C2490 C2489 1.392 . S
C2490 C2491 1.385 . S
C2490 C2492 1.478 . S
C2491 H2485 0.930 . S
C2491 C2487 1.400 . S
C2491 C2490 1.385 . S
C2492 C2490 1.478 . S
C2492 C2494 1.381 . S
C2492 C2498 1.383 . S
C2493 C2489 1.495 . S
C2493 H2499 0.959 . S
C2493 H2500 0.961 . S
C2493 H2501 0.960 . S
C2494 C2492 1.381 . S
C2494 C2495 1.394 . S
C2494 H2502 0.930 . S
C2495 C2494 1.394 . S
C2495 C2496 1.383 . S
C2495 H2503 0.929 . S
C2496 C2495 1.383 . S
C2496 C2497 1.377 . S
C2497 H2481 0.930 . S
C2497 C2496 1.377 . S
C2497 C2498 1.379 . S
C2498 H2482 0.931 . S
C2498 C2492 1.383 . S
C2498 C2497 1.379 . S
H2499 C2493 0.959 . S
H2500 C2493 0.961 . S
H2501 C2493 0.960 . S
H2502 C2494 0.930 . S
H2503 C2495 0.929 . S
H2504 C2512 0.929 . S
H2505 C2514 0.930 . S
H2506 C2516 0.930 . S
H2507 C2519 0.929 . S
H2508 C2522 0.930 . S
H2509 C2524 0.960 . S
H2510 C2524 0.960 . S
H2511 C2524 0.960 . S
C2512 H2504 0.929 . S
C2512 C2513 1.377 . S
C2512 C2514 1.384 . S
C2513 C2512 1.377 . S
C2513 C2519 1.390 . S
C2514 H2505 0.930 . S
C2514 C2512 1.384 . S
C2514 C2515 1.372 . S
C2515 C2514 1.372 . S
C2515 C2516 1.400 . S
C2515 C2520 1.490 . S
C2516 H2506 0.930 . S
C2516 C2515 1.400 . S
C2516 C2519 1.386 . S
H2517 C2533 0.930 . S
H2518 C2534 0.931 . S
C2519 H2507 0.929 . S
C2519 C2513 1.390 . S
C2519 C2516 1.386 . S
C2520 C2515 1.490 . S
C2520 C2522 1.395 . S
C2520 C2523 1.403 . S
H2521 C2527 0.930 . S
C2522 H2508 0.930 . S
C2522 C2520 1.395 . S
C2522 C2525 1.403 . S
C2523 C2520 1.403 . S
C2523 C2524 1.524 . S
C2523 C2527 1.400 . S
C2524 H2509 0.960 . S
C2524 H2510 0.960 . S
C2524 H2511 0.960 . S
C2524 C2523 1.524 . S
C2525 C2522 1.403 . S
C2525 C2526 1.392 . S
C2525 C2529 1.495 . S
C2526 C2525 1.392 . S
C2526 C2527 1.385 . S
C2526 C2528 1.478 . S
C2527 H2521 0.930 . S
C2527 C2523 1.400 . S
C2527 C2526 1.385 . S
C2528 C2526 1.478 . S
C2528 C2530 1.381 . S
C2528 C2534 1.383 . S
C2529 C2525 1.495 . S
C2529 H2535 0.959 . S
C2529 H2536 0.961 . S
C2529 H2537 0.960 . S
C2530 C2528 1.381 . S
C2530 C2531 1.394 . S
C2530 H2538 0.930 . S
C2531 C2530 1.394 . S
C2531 C2532 1.383 . S
C2531 H2539 0.929 . S
C2532 C2531 1.383 . S
C2532 C2533 1.377 . S
C2533 H2517 0.930 . S
C2533 C2532 1.377 . S
C2533 C2534 1.379 . S
C2534 H2518 0.931 . S
C2534 C2528 1.383 . S
C2534 C2533 1.379 . S
H2535 C2529 0.959 . S
H2536 C2529 0.961 . S
H2537 C2529 0.960 . S
H2538 C2530 0.930 . S
H2539 C2531 0.929 . S
H2540 C2548 0.929 . S
H2541 C2550 0.930 . S
H2542 C2552 0.930 . S
H2543 C2555 0.929 . S
H2544 C2558 0.930 . S
H2545 C2560 0.960 . S
H2546 C2560 0.960 . S
H2547 C2560 0.960 . S
C2548 H2540 0.929 . S
C2548 C2549 1.377 . S
C2548 C2550 1.384 . S
C2549 C2548 1.377 . S
C2549 C2555 1.390 . S
C2550 H2541 0.930 . S
C2550 C2548 1.384 . S
C2550 C2551 1.372 . S
C2551 C2550 1.372 . S
C2551 C2552 1.400 . S
C2551 C2556 1.490 . S
C2552 H2542 0.930 . S
C2552 C2551 1.400 . S
C2552 C2555 1.386 . S
H2553 C2569 0.930 . S
H2554 C2570 0.931 . S
C2555 H2543 0.929 . S
C2555 C2549 1.390 . S
C2555 C2552 1.386 . S
C2556 C2551 1.490 . S
C2556 C2558 1.395 . S
C2556 C2559 1.403 . S
H2557 C2563 0.930 . S
C2558 H2544 0.930 . S
C2558 C2556 1.395 . S
C2558 C2561 1.403 . S
C2559 C2556 1.403 . S
C2559 C2560 1.524 . S
C2559 C2563 1.400 . S
C2560 H2545 0.960 . S
C2560 H2546 0.960 . S
C2560 H2547 0.960 . S
C2560 C2559 1.524 . S
C2561 C2558 1.403 . S
C2561 C2562 1.392 . S
C2561 C2565 1.495 . S
C2562 C2561 1.392 . S
C2562 C2563 1.385 . S
C2562 C2564 1.478 . S
C2563 H2557 0.930 . S
C2563 C2559 1.400 . S
C2563 C2562 1.385 . S
C2564 C2562 1.478 . S
C2564 C2566 1.381 . S
C2564 C2570 1.383 . S
C2565 C2561 1.495 . S
C2565 H2571 0.959 . S
C2565 H2572 0.961 . S
C2565 H2573 0.960 . S
C2566 C2564 1.381 . S
C2566 C2567 1.394 . S
C2566 H2574 0.930 . S
C2567 C2566 1.394 . S
C2567 C2568 1.383 . S
C2567 H2575 0.929 . S
C2568 C2567 1.383 . S
C2568 C2569 1.377 . S
C2569 H2553 0.930 . S
C2569 C2568 1.377 . S
C2569 C2570 1.379 . S
C2570 H2554 0.931 . S
C2570 C2564 1.383 . S
C2570 C2569 1.379 . S
H2571 C2565 0.959 . S
H2572 C2565 0.961 . S
H2573 C2565 0.960 . S
H2574 C2566 0.930 . S
H2575 C2567 0.929 . S
H2576 C2584 0.929 . S
H2577 C2586 0.930 . S
H2578 C2588 0.930 . S
H2579 C2591 0.929 . S
H2580 C2594 0.930 . S
H2581 C2596 0.960 . S
H2582 C2596 0.960 . S
H2583 C2596 0.960 . S
C2584 H2576 0.929 . S
C2584 C2585 1.377 . S
C2584 C2586 1.384 . S
C2585 C2584 1.377 . S
C2585 C2591 1.390 . S
C2586 H2577 0.930 . S
C2586 C2584 1.384 . S
C2586 C2587 1.372 . S
C2587 C2586 1.372 . S
C2587 C2588 1.400 . S
C2587 C2592 1.490 . S
C2588 H2578 0.930 . S
C2588 C2587 1.400 . S
C2588 C2591 1.386 . S
H2589 C2605 0.930 . S
H2590 C2606 0.931 . S
C2591 H2579 0.929 . S
C2591 C2585 1.390 . S
C2591 C2588 1.386 . S
C2592 C2587 1.490 . S
C2592 C2594 1.395 . S
C2592 C2595 1.403 . S
H2593 C2599 0.930 . S
C2594 H2580 0.930 . S
C2594 C2592 1.395 . S
C2594 C2597 1.403 . S
C2595 C2592 1.403 . S
C2595 C2596 1.524 . S
C2595 C2599 1.400 . S
C2596 H2581 0.960 . S
C2596 H2582 0.960 . S
C2596 H2583 0.960 . S
C2596 C2595 1.524 . S
C2597 C2594 1.403 . S
C2597 C2598 1.392 . S
C2597 C2601 1.495 . S
C2598 C2597 1.392 . S
C2598 C2599 1.385 . S
C2598 C2600 1.478 . S
C2599 H2593 0.930 . S
C2599 C2595 1.400 . S
C2599 C2598 1.385 . S
C2600 C2598 1.478 . S
C2600 C2602 1.381 . S
C2600 C2606 1.383 . S
C2601 C2597 1.495 . S
C2601 H2607 0.959 . S
C2601 H2608 0.961 . S
C2601 H2609 0.960 . S
C2602 C2600 1.381 . S
C2602 C2603 1.394 . S
C2602 H2610 0.930 . S
C2603 C2602 1.394 . S
C2603 C2604 1.383 . S
C2603 H2611 0.929 . S
C2604 C2603 1.383 . S
C2604 C2605 1.377 . S
C2605 H2589 0.930 . S
C2605 C2604 1.377 . S
C2605 C2606 1.379 . S
C2606 H2590 0.931 . S
C2606 C2600 1.383 . S
C2606 C2605 1.379 . S
H2607 C2601 0.959 . S
H2608 C2601 0.961 . S
H2609 C2601 0.960 . S
H2610 C2602 0.930 . S
H2611 C2603 0.929 . S
H2612 C2620 0.929 . S
H2613 C2622 0.930 . S
H2614 C2624 0.930 . S
H2615 C2627 0.929 . S
H2616 C2630 0.930 . S
H2617 C2632 0.960 . S
H2618 C2632 0.960 . S
H2619 C2632 0.960 . S
C2620 H2612 0.929 . S
C2620 C2621 1.377 . S
C2620 C2622 1.384 . S
C2621 C2620 1.377 . S
C2621 C2627 1.390 . S
C2622 H2613 0.930 . S
C2622 C2620 1.384 . S
C2622 C2623 1.372 . S
C2623 C2622 1.372 . S
C2623 C2624 1.400 . S
C2623 C2628 1.490 . S
C2624 H2614 0.930 . S
C2624 C2623 1.400 . S
C2624 C2627 1.386 . S
H2625 C2641 0.930 . S
H2626 C2642 0.931 . S
C2627 H2615 0.929 . S
C2627 C2621 1.390 . S
C2627 C2624 1.386 . S
C2628 C2623 1.490 . S
C2628 C2630 1.395 . S
C2628 C2631 1.403 . S
H2629 C2635 0.930 . S
C2630 H2616 0.930 . S
C2630 C2628 1.395 . S
C2630 C2633 1.403 . S
C2631 C2628 1.403 . S
C2631 C2632 1.524 . S
C2631 C2635 1.400 . S
C2632 H2617 0.960 . S
C2632 H2618 0.960 . S
C2632 H2619 0.960 . S
C2632 C2631 1.524 . S
C2633 C2630 1.403 . S
C2633 C2634 1.392 . S
C2633 C2637 1.495 . S
C2634 C2633 1.392 . S
C2634 C2635 1.385 . S
C2634 C2636 1.478 . S
C2635 H2629 0.930 . S
C2635 C2631 1.400 . S
C2635 C2634 1.385 . S
C2636 C2634 1.478 . S
C2636 C2638 1.381 . S
C2636 C2642 1.383 . S
C2637 C2633 1.495 . S
C2637 H2643 0.959 . S
C2637 H2644 0.961 . S
C2637 H2645 0.960 . S
C2638 C2636 1.381 . S
C2638 C2639 1.394 . S
C2638 H2646 0.930 . S
C2639 C2638 1.394 . S
C2639 C2640 1.383 . S
C2639 H2647 0.929 . S
C2640 C2639 1.383 . S
C2640 C2641 1.377 . S
C2641 H2625 0.930 . S
C2641 C2640 1.377 . S
C2641 C2642 1.379 . S
C2642 H2626 0.931 . S
C2642 C2636 1.383 . S
C2642 C2641 1.379 . S
H2643 C2637 0.959 . S
H2644 C2637 0.961 . S
H2645 C2637 0.960 . S
H2646 C2638 0.930 . S
H2647 C2639 0.929 . S
H2648 C2656 0.929 . S
H2649 C2658 0.930 . S
H2650 C2660 0.930 . S
H2651 C2663 0.929 . S
H2652 C2666 0.930 . S
H2653 C2668 0.960 . S
H2654 C2668 0.960 . S
H2655 C2668 0.960 . S
C2656 H2648 0.929 . S
C2656 C2657 1.377 . S
C2656 C2658 1.384 . S
C2657 C2656 1.377 . S
C2657 C2663 1.390 . S
C2658 H2649 0.930 . S
C2658 C2656 1.384 . S
C2658 C2659 1.372 . S
C2659 C2658 1.372 . S
C2659 C2660 1.400 . S
C2659 C2664 1.490 . S
C2660 H2650 0.930 . S
C2660 C2659 1.400 . S
C2660 C2663 1.386 . S
H2661 C2677 0.930 . S
H2662 C2678 0.931 . S
C2663 H2651 0.929 . S
C2663 C2657 1.390 . S
C2663 C2660 1.386 . S
C2664 C2659 1.490 . S
C2664 C2666 1.395 . S
C2664 C2667 1.403 . S
H2665 C2671 0.930 . S
C2666 H2652 0.930 . S
C2666 C2664 1.395 . S
C2666 C2669 1.403 . S
C2667 C2664 1.403 . S
C2667 C2668 1.524 . S
C2667 C2671 1.400 . S
C2668 H2653 0.960 . S
C2668 H2654 0.960 . S
C2668 H2655 0.960 . S
C2668 C2667 1.524 . S
C2669 C2666 1.403 . S
C2669 C2670 1.392 . S
C2669 C2673 1.495 . S
C2670 C2669 1.392 . S
C2670 C2671 1.385 . S
C2670 C2672 1.478 . S
C2671 H2665 0.930 . S
C2671 C2667 1.400 . S
C2671 C2670 1.385 . S
C2672 C2670 1.478 . S
C2672 C2674 1.381 . S
C2672 C2678 1.383 . S
C2673 C2669 1.495 . S
C2673 H2679 0.959 . S
C2673 H2680 0.961 . S
C2673 H2681 0.960 . S
C2674 C2672 1.381 . S
C2674 C2675 1.394 . S
C2674 H2682 0.930 . S
C2675 C2674 1.394 . S
C2675 C2676 1.383 . S
C2675 H2683 0.929 . S
C2676 C2675 1.383 . S
C2676 C2677 1.377 . S
C2677 H2661 0.930 . S
C2677 C2676 1.377 . S
C2677 C2678 1.379 . S
C2678 H2662 0.931 . S
C2678 C2672 1.383 . S
C2678 C2677 1.379 . S
H2679 C2673 0.959 . S
H2680 C2673 0.961 . S
H2681 C2673 0.960 . S
H2682 C2674 0.930 . S
H2683 C2675 0.929 . S
H2684 C2692 0.929 . S
H2685 C2694 0.930 . S
H2686 C2696 0.930 . S
H2687 C2699 0.929 . S
H2688 C2702 0.930 . S
H2689 C2704 0.960 . S
H2690 C2704 0.960 . S
H2691 C2704 0.960 . S
C2692 H2684 0.929 . S
C2692 C2693 1.377 . S
C2692 C2694 1.384 . S
C2693 C2692 1.377 . S
C2693 C2699 1.390 . S
C2694 H2685 0.930 . S
C2694 C2692 1.384 . S
C2694 C2695 1.372 . S
C2695 C2694 1.372 . S
C2695 C2696 1.400 . S
C2695 C2700 1.490 . S
C2696 H2686 0.930 . S
C2696 C2695 1.400 . S
C2696 C2699 1.386 . S
H2697 C2713 0.930 . S
H2698 C2714 0.931 . S
C2699 H2687 0.929 . S
C2699 C2693 1.390 . S
C2699 C2696 1.386 . S
C2700 C2695 1.490 . S
C2700 C2702 1.395 . S
C2700 C2703 1.403 . S
H2701 C2707 0.930 . S
C2702 H2688 0.930 . S
C2702 C2700 1.395 . S
C2702 C2705 1.403 . S
C2703 C2700 1.403 . S
C2703 C2704 1.524 . S
C2703 C2707 1.400 . S
C2704 H2689 0.960 . S
C2704 H2690 0.960 . S
C2704 H2691 0.960 . S
C2704 C2703 1.524 . S
C2705 C2702 1.403 . S
C2705 C2706 1.392 . S
C2705 C2709 1.495 . S
C2706 C2705 1.392 . S
C2706 C2707 1.385 . S
C2706 C2708 1.478 . S
C2707 H2701 0.930 . S
C2707 C2703 1.400 . S
C2707 C2706 1.385 . S
C2708 C2706 1.478 . S
C2708 C2710 1.381 . S
C2708 C2714 1.383 . S
C2709 C2705 1.495 . S
C2709 H2715 0.959 . S
C2709 H2716 0.961 . S
C2709 H2717 0.960 . S
C2710 C2708 1.381 . S
C2710 C2711 1.394 . S
C2710 H2718 0.930 . S
C2711 C2710 1.394 . S
C2711 C2712 1.383 . S
C2711 H2719 0.929 . S
C2712 C2711 1.383 . S
C2712 C2713 1.377 . S
C2713 H2697 0.930 . S
C2713 C2712 1.377 . S
C2713 C2714 1.379 . S
C2714 H2698 0.931 . S
C2714 C2708 1.383 . S
C2714 C2713 1.379 . S
H2715 C2709 0.959 . S
H2716 C2709 0.961 . S
H2717 C2709 0.960 . S
H2718 C2710 0.930 . S
H2719 C2711 0.929 . S
C425 C382 1.725 . S
C444 C5 1.726 . S
C461 C18 1.726 . S
C480 C395 1.716 . S
C497 C408 1.726 . S
C516 C29 1.724 . S
C533 C367 1.726 . S
C552 C44 1.718 . S
C569 C57 1.725 . S
C588 C356 1.725 . S
C605 C317 1.726 . S
C624 C68 1.717 . S
C641 C83 1.726 . S
C660 C328 1.718 . S
C677 C343 1.724 . S
C696 C96 1.726 . S
C713 C109 1.725 . S
C732 C278 1.724 . S
C749 C120 1.725 . S
C768 C289 1.715 . S
C785 C304 1.724 . S
C804 C135 1.721 . S
C821 C148 1.726 . S
C840 C265 1.720 . S
C857 C250 1.726 . S
C876 C161 1.716 . S
C893 C213 1.723 . S
C912 C172 1.724 . S
C929 C187 1.725 . S
C948 C226 1.726 . S
C965 C200 1.724 . S
C984 C237 1.725 . S
C1001 C3 1.317 . S
C1020 C133 1.304 . S
C1037 C146 1.314 . S
C1056 C16 1.319 . S
C1073 C107 1.315 . S
C1092 C31 1.323 . S
C1109 C122 1.317 . S
C1128 C42 1.319 . S
C1145 C55 1.318 . S
C1164 C185 1.304 . S
C1181 C198 1.315 . S
C1200 C70 1.323 . S
C1217 C159 1.315 . S
C1236 C81 1.323 . S
C1253 C174 1.314 . S
C1272 C94 1.321 . S
C1289 C211 1.316 . S
C1308 C341 1.305 . S
C1325 C354 1.315 . S
C1344 C224 1.323 . S
C1361 C315 1.316 . S
C1380 C239 1.322 . S
C1397 C252 1.316 . S
C1416 C330 1.306 . S
C1433 C263 1.318 . S
C1452 C393 1.305 . S
C1469 C406 1.316 . S
C1488 C276 1.307 . S
C1505 C369 1.315 . S
C1524 C291 1.322 . S
C1541 C302 1.315 . S
C1560 C380 1.309 . S
C1577 C4 1.682 . S
C1596 C56 1.691 . S
C1613 C17 1.684 . S
C1632 C75 1.688 . S
C1649 C82 1.681 . S
C1668 C36 1.669 . S
C1685 C43 1.682 . S
C1704 C95 1.691 . S
C1721 C108 1.681 . S
C1740 C160 1.680 . S
C1757 C179 1.681 . S
C1776 C127 1.667 . S
C1793 C186 1.681 . S
C1812 C134 1.675 . S
C1829 C147 1.683 . S
C1848 C199 1.686 . S
C1865 C212 1.680 . S
C1884 C264 1.677 . S
C1901 C277 1.682 . S
C1920 C225 1.666 . S
C1937 C244 1.685 . S
C1956 C296 1.684 . S
C1973 C303 1.682 . S
C1992 C257 1.691 . S
C2009 C374 1.683 . S
C2028 C316 1.688 . S
C2045 C335 1.685 . S
C2064 C381 1.691 . S
C2081 C342 1.680 . S
C2100 C394 1.673 . S
C2117 C355 1.683 . S
C2136 C407 1.676 . S
C2153 C10 1.366 . S
C2172 C69 1.371 . S
C2189 C23 1.367 . S
C2208 C88 1.363 . S
C2225 C101 1.368 . S
C2244 C30 1.357 . S
C2261 C62 1.366 . S
C2280 C49 1.372 . S
C2297 C173 1.369 . S
C2316 C114 1.361 . S
C2333 C192 1.367 . S
C2352 C121 1.372 . S
C2369 C205 1.367 . S
C2388 C140 1.372 . S
C2405 C153 1.369 . S
C2424 C166 1.367 . S
C2441 C218 1.368 . S
C2460 C283 1.360 . S
C2477 C290 1.366 . S
C2496 C231 1.369 . S
C2513 C309 1.369 . S
C2532 C238 1.359 . S
C2549 C251 1.369 . S
C2568 C270 1.357 . S
C2585 C387 1.369 . S
C2604 C322 1.369 . S
C2621 C329 1.369 . S
C2640 C400 1.362 . S
C2657 C348 1.367 . S
C2676 C413 1.356 . S
C2693 C368 1.366 . S
C2712 C361 1.369 . S
