# Generated by pormake.
# Topology ukv, (4)-cn, num edge types: 1
# Building blocks:
#     Node 0, Type 0, BuildingBlock: GALJAG_clean_sbu_0, # of connection points: 4
#     Node 1, Type 0, BuildingBlock: GALJAG_clean_sbu_0, # of connection points: 4
#     Node 2, Type 0, BuildingBlock: GALJAG_clean_sbu_0, # of connection points: 4
#     Node 3, Type 0, BuildingBlock: GALJAG_clean_sbu_0, # of connection points: 4
#     Node 4, Type 0, BuildingBlock: GALJAG_clean_sbu_0, # of connection points: 4
#     Node 5, Type 0, BuildingBlock: GALJAG_clean_sbu_0, # of connection points: 4
#     Node 6, Type 0, BuildingBlock: GALJAG_clean_sbu_0, # of connection points: 4
#     Node 7, Type 0, BuildingBlock: GALJAG_clean_sbu_0, # of connection points: 4
#     Node 8, Type 0, BuildingBlock: GALJAG_clean_sbu_0, # of connection points: 4
#     Node 9, Type 0, BuildingBlock: GALJAG_clean_sbu_0, # of connection points: 4
#     Node 10, Type 0, BuildingBlock: GALJAG_clean_sbu_0, # of connection points: 4
#     Node 11, Type 0, BuildingBlock: GALJAG_clean_sbu_0, # of connection points: 4
#     Node 12, Type 0, BuildingBlock: GALJAG_clean_sbu_0, # of connection points: 4
#     Node 13, Type 0, BuildingBlock: GALJAG_clean_sbu_0, # of connection points: 4
#     Node 14, Type 0, BuildingBlock: GALJAG_clean_sbu_0, # of connection points: 4
#     Node 15, Type 0, BuildingBlock: GALJAG_clean_sbu_0, # of connection points: 4
#     Node 16, Type 0, BuildingBlock: GALJAG_clean_sbu_0, # of connection points: 4
#     Node 17, Type 0, BuildingBlock: GALJAG_clean_sbu_0, # of connection points: 4
#     Node 18, Type 0, BuildingBlock: GALJAG_clean_sbu_0, # of connection points: 4
#     Node 19, Type 0, BuildingBlock: GALJAG_clean_sbu_0, # of connection points: 4
#     Node 20, Type 0, BuildingBlock: GALJAG_clean_sbu_0, # of connection points: 4
#     Node 21, Type 0, BuildingBlock: GALJAG_clean_sbu_0, # of connection points: 4
#     Node 22, Type 0, BuildingBlock: GALJAG_clean_sbu_0, # of connection points: 4
#     Node 23, Type 0, BuildingBlock: GALJAG_clean_sbu_0, # of connection points: 4
#     Node 24, Type 0, BuildingBlock: GALJAG_clean_sbu_0, # of connection points: 4
#     Node 25, Type 0, BuildingBlock: GALJAG_clean_sbu_0, # of connection points: 4
#     Node 26, Type 0, BuildingBlock: GALJAG_clean_sbu_0, # of connection points: 4
#     Node 27, Type 0, BuildingBlock: GALJAG_clean_sbu_0, # of connection points: 4
#     Node 28, Type 0, BuildingBlock: GALJAG_clean_sbu_0, # of connection points: 4
#     Node 29, Type 0, BuildingBlock: GALJAG_clean_sbu_0, # of connection points: 4
#     Node 30, Type 0, BuildingBlock: GALJAG_clean_sbu_0, # of connection points: 4
#     Node 31, Type 0, BuildingBlock: GALJAG_clean_sbu_0, # of connection points: 4
#     Node 32, Type 0, BuildingBlock: GALJAG_clean_sbu_0, # of connection points: 4
#     Node 33, Type 0, BuildingBlock: GALJAG_clean_sbu_0, # of connection points: 4
#     Node 34, Type 0, BuildingBlock: GALJAG_clean_sbu_0, # of connection points: 4
#     Node 35, Type 0, BuildingBlock: GALJAG_clean_sbu_0, # of connection points: 4
#     Edge 36, Type (0, 0), BuildingBlock: XIVTED_clean_linker_0, # of connection points: 2
#     Edge 37, Type (0, 0), BuildingBlock: XIVTED_clean_linker_0, # of connection points: 2
#     Edge 38, Type (0, 0), BuildingBlock: XIVTED_clean_linker_0, # of connection points: 2
#     Edge 39, Type (0, 0), BuildingBlock: XIVTED_clean_linker_0, # of connection points: 2
#     Edge 40, Type (0, 0), BuildingBlock: XIVTED_clean_linker_0, # of connection points: 2
#     Edge 41, Type (0, 0), BuildingBlock: XIVTED_clean_linker_0, # of connection points: 2
#     Edge 42, Type (0, 0), BuildingBlock: XIVTED_clean_linker_0, # of connection points: 2
#     Edge 43, Type (0, 0), BuildingBlock: XIVTED_clean_linker_0, # of connection points: 2
#     Edge 44, Type (0, 0), BuildingBlock: XIVTED_clean_linker_0, # of connection points: 2
#     Edge 45, Type (0, 0), BuildingBlock: XIVTED_clean_linker_0, # of connection points: 2
#     Edge 46, Type (0, 0), BuildingBlock: XIVTED_clean_linker_0, # of connection points: 2
#     Edge 47, Type (0, 0), BuildingBlock: XIVTED_clean_linker_0, # of connection points: 2
#     Edge 48, Type (0, 0), BuildingBlock: XIVTED_clean_linker_0, # of connection points: 2
#     Edge 49, Type (0, 0), BuildingBlock: XIVTED_clean_linker_0, # of connection points: 2
#     Edge 50, Type (0, 0), BuildingBlock: XIVTED_clean_linker_0, # of connection points: 2
#     Edge 51, Type (0, 0), BuildingBlock: XIVTED_clean_linker_0, # of connection points: 2
#     Edge 52, Type (0, 0), BuildingBlock: XIVTED_clean_linker_0, # of connection points: 2
#     Edge 53, Type (0, 0), BuildingBlock: XIVTED_clean_linker_0, # of connection points: 2
#     Edge 54, Type (0, 0), BuildingBlock: XIVTED_clean_linker_0, # of connection points: 2
#     Edge 55, Type (0, 0), BuildingBlock: XIVTED_clean_linker_0, # of connection points: 2
#     Edge 56, Type (0, 0), BuildingBlock: XIVTED_clean_linker_0, # of connection points: 2
#     Edge 57, Type (0, 0), BuildingBlock: XIVTED_clean_linker_0, # of connection points: 2
#     Edge 58, Type (0, 0), BuildingBlock: XIVTED_clean_linker_0, # of connection points: 2
#     Edge 59, Type (0, 0), BuildingBlock: XIVTED_clean_linker_0, # of connection points: 2
#     Edge 60, Type (0, 0), BuildingBlock: XIVTED_clean_linker_0, # of connection points: 2
#     Edge 61, Type (0, 0), BuildingBlock: XIVTED_clean_linker_0, # of connection points: 2
#     Edge 62, Type (0, 0), BuildingBlock: XIVTED_clean_linker_0, # of connection points: 2
#     Edge 63, Type (0, 0), BuildingBlock: XIVTED_clean_linker_0, # of connection points: 2
#     Edge 64, Type (0, 0), BuildingBlock: XIVTED_clean_linker_0, # of connection points: 2
#     Edge 65, Type (0, 0), BuildingBlock: XIVTED_clean_linker_0, # of connection points: 2
#     Edge 66, Type (0, 0), BuildingBlock: XIVTED_clean_linker_0, # of connection points: 2
#     Edge 67, Type (0, 0), BuildingBlock: XIVTED_clean_linker_0, # of connection points: 2
#     Edge 68, Type (0, 0), BuildingBlock: XIVTED_clean_linker_0, # of connection points: 2
#     Edge 69, Type (0, 0), BuildingBlock: XIVTED_clean_linker_0, # of connection points: 2
#     Edge 70, Type (0, 0), BuildingBlock: XIVTED_clean_linker_0, # of connection points: 2
#     Edge 71, Type (0, 0), BuildingBlock: XIVTED_clean_linker_0, # of connection points: 2
#     Edge 72, Type (0, 0), BuildingBlock: XIVTED_clean_linker_0, # of connection points: 2
#     Edge 73, Type (0, 0), BuildingBlock: XIVTED_clean_linker_0, # of connection points: 2
#     Edge 74, Type (0, 0), BuildingBlock: XIVTED_clean_linker_0, # of connection points: 2
#     Edge 75, Type (0, 0), BuildingBlock: XIVTED_clean_linker_0, # of connection points: 2
#     Edge 76, Type (0, 0), BuildingBlock: XIVTED_clean_linker_0, # of connection points: 2
#     Edge 77, Type (0, 0), BuildingBlock: XIVTED_clean_linker_0, # of connection points: 2
#     Edge 78, Type (0, 0), BuildingBlock: XIVTED_clean_linker_0, # of connection points: 2
#     Edge 79, Type (0, 0), BuildingBlock: XIVTED_clean_linker_0, # of connection points: 2
#     Edge 80, Type (0, 0), BuildingBlock: XIVTED_clean_linker_0, # of connection points: 2
#     Edge 81, Type (0, 0), BuildingBlock: XIVTED_clean_linker_0, # of connection points: 2
#     Edge 82, Type (0, 0), BuildingBlock: XIVTED_clean_linker_0, # of connection points: 2
#     Edge 83, Type (0, 0), BuildingBlock: XIVTED_clean_linker_0, # of connection points: 2
#     Edge 84, Type (0, 0), BuildingBlock: XIVTED_clean_linker_0, # of connection points: 2
#     Edge 85, Type (0, 0), BuildingBlock: XIVTED_clean_linker_0, # of connection points: 2
#     Edge 86, Type (0, 0), BuildingBlock: XIVTED_clean_linker_0, # of connection points: 2
#     Edge 87, Type (0, 0), BuildingBlock: XIVTED_clean_linker_0, # of connection points: 2
#     Edge 88, Type (0, 0), BuildingBlock: XIVTED_clean_linker_0, # of connection points: 2
#     Edge 89, Type (0, 0), BuildingBlock: XIVTED_clean_linker_0, # of connection points: 2
#     Edge 90, Type (0, 0), BuildingBlock: XIVTED_clean_linker_0, # of connection points: 2
#     Edge 91, Type (0, 0), BuildingBlock: XIVTED_clean_linker_0, # of connection points: 2
#     Edge 92, Type (0, 0), BuildingBlock: XIVTED_clean_linker_0, # of connection points: 2
#     Edge 93, Type (0, 0), BuildingBlock: XIVTED_clean_linker_0, # of connection points: 2
#     Edge 94, Type (0, 0), BuildingBlock: XIVTED_clean_linker_0, # of connection points: 2
#     Edge 95, Type (0, 0), BuildingBlock: XIVTED_clean_linker_0, # of connection points: 2
#     Edge 96, Type (0, 0), BuildingBlock: XIVTED_clean_linker_0, # of connection points: 2
#     Edge 97, Type (0, 0), BuildingBlock: XIVTED_clean_linker_0, # of connection points: 2
#     Edge 98, Type (0, 0), BuildingBlock: XIVTED_clean_linker_0, # of connection points: 2
#     Edge 99, Type (0, 0), BuildingBlock: XIVTED_clean_linker_0, # of connection points: 2
#     Edge 100, Type (0, 0), BuildingBlock: XIVTED_clean_linker_0, # of connection points: 2
#     Edge 101, Type (0, 0), BuildingBlock: XIVTED_clean_linker_0, # of connection points: 2
#     Edge 102, Type (0, 0), BuildingBlock: XIVTED_clean_linker_0, # of connection points: 2
#     Edge 103, Type (0, 0), BuildingBlock: XIVTED_clean_linker_0, # of connection points: 2
#     Edge 104, Type (0, 0), BuildingBlock: XIVTED_clean_linker_0, # of connection points: 2
#     Edge 105, Type (0, 0), BuildingBlock: XIVTED_clean_linker_0, # of connection points: 2
#     Edge 106, Type (0, 0), BuildingBlock: XIVTED_clean_linker_0, # of connection points: 2
#     Edge 107, Type (0, 0), BuildingBlock: XIVTED_clean_linker_0, # of connection points: 2
# Relax obj value: 0.157
# Max RMSD: 0.129
# Mean RMSD: 0.129
data_MOF--net-ukv--node1-GALJAG_clean_sbu_0--edge1-XIVTED_clean_linker_0
_symmetry_space_group_name_H-M    P1
_symmetry_Int_Tables_number       1
_symmetry_cell_setting            triclinic
loop_
_symmetry_equiv_pos_as_xyz
'x, y, z'
_cell_length_a     89.468732
_cell_length_b     89.448142
_cell_length_c     23.999297
_cell_angle_alpha  90.004774
_cell_angle_beta   89.988178
_cell_angle_gamma 120.00684
loop_
_atom_site_label
_atom_site_type_symbol
_atom_site_fract_x
_atom_site_fract_y
_atom_site_fract_z
_atom_type_partial_charge
In0 In 0.23139 0.06447 0.01546 0.0
O1 O 0.24548 0.08937 0.06528 0.0
O2 O 0.2181 0.07606 0.06664 0.0
C3 C 0.26245 0.07658 0.96738 0.0
C4 C 0.22199 0.03863 0.0895 0.0
C5 C 0.21385 0.05754 0.91874 0.0
O6 O 0.25447 0.0849 0.96739 0.0
O7 O 0.25494 0.0623 0.99283 0.0
O8 O 0.22159 0.04968 0.93361 0.0
O9 O 0.21383 0.06782 0.95462 0.0
C10 C 0.23198 0.0888 0.08344 0.0
O11 O 0.21106 0.04024 0.06078 0.0
O12 O 0.23749 0.04959 0.07929 0.0
In13 In 0.93086 0.1828 0.03657 0.0
O14 O 0.91658 0.17532 0.11955 0.0
O15 O 0.92412 0.15833 0.08323 0.0
C16 C 0.92026 0.20398 -0.0028 0.0
C17 C 0.96309 0.20095 0.07732 0.0
C18 C 0.91716 0.16039 0.95291 0.0
O19 O 0.91534 0.19647 0.0438 0.0
O20 O 0.93104 0.20131 0.97148 0.0
O21 O 0.93321 0.17125 0.95401 0.0
O22 O 0.90858 0.16106 0.99357 0.0
C23 C 0.91685 0.16135 0.12303 0.0
O24 O 0.95805 0.18704 0.05086 0.0
O25 O 0.95243 0.20623 0.07869 0.0
In26 In 0.8256 0.74992 0.05201 0.0
O27 O 0.8258 0.7753 0.06932 0.0
O28 O 0.80312 0.75147 0.08716 0.0
C29 C 0.84835 0.75538 0.97091 0.0
C30 C 0.84326 0.75145 0.14405 0.0
C31 C 0.80043 0.7208 0.00674 0.0
O32 O 0.8402 0.76358 0.97209 0.0
O33 O 0.84528 0.74514 0.01095 0.0
O34 O 0.80684 0.72107 0.05398 0.0
O35 O 0.80639 0.73534 0.98327 0.0
C36 C 0.8107 0.76769 0.08923 0.0
O37 O 0.82932 0.73805 0.13084 0.0
O38 O 0.84815 0.764 0.111 0.0
In39 In 0.08161 0.25759 0.42837 0.0
O40 O 0.0547 0.23436 0.41115 0.0
O41 O 0.06095 0.25907 0.37981 0.0
C42 C 0.09678 0.25028 0.51147 0.0
C43 C 0.09723 0.25267 0.34098 0.0
C44 C 0.0864 0.28705 0.47319 0.0
O45 O 0.08046 0.24255 0.50717 0.0
O46 O 0.10496 0.26123 0.47388 0.0
O47 O 0.09349 0.28667 0.42795 0.0
O48 O 0.07662 0.27249 0.4952 0.0
C49 C 0.05016 0.24317 0.38185 0.0
O50 O 0.09878 0.26724 0.35154 0.0
O51 O 0.08801 0.2408 0.37476 0.0
In52 In 0.74222 0.82384 0.42163 0.0
O53 O 0.76751 0.82408 0.40199 0.0
O54 O 0.74377 0.80395 0.36939 0.0
C55 C 0.74674 0.84511 0.50633 0.0
C56 C 0.74254 0.84308 0.3357 0.0
C57 C 0.71559 0.79645 0.46966 0.0
O58 O 0.75667 0.83893 0.49991 0.0
O59 O 0.73526 0.84087 0.46954 0.0
O60 O 0.71395 0.80321 0.42544 0.0
O61 O 0.7308 0.80321 0.48853 0.0
C62 C 0.75995 0.81079 0.37144 0.0
O63 O 0.72918 0.82912 0.34922 0.0
O64 O 0.75563 0.8473 0.36577 0.0
In65 In 0.17171 0.92497 0.46205 0.0
O66 O 0.17804 0.95251 0.44217 0.0
O67 O 0.18929 0.94099 0.39213 0.0
C68 C 0.15749 0.91684 0.56363 0.0
C69 C 0.14395 0.9065 0.39694 0.0
C70 C 0.19822 0.92052 0.48975 0.0
O71 O 0.16379 0.93204 0.54477 0.0
O72 O 0.15791 0.90609 0.53069 0.0
O73 O 0.1875 0.91159 0.45218 0.0
O74 O 0.19595 0.93215 0.51116 0.0
C75 C 0.18742 0.95387 0.40081 0.0
O76 O 0.155 0.9019 0.4058 0.0
O77 O 0.1469 0.92022 0.42109 0.0
In78 In 0.74011 0.92911 0.92148 0.0
O79 O 0.72719 0.91042 0.8495 0.0
O80 O 0.75354 0.91866 0.86772 0.0
C81 C 0.71416 0.93077 0.97094 0.0
C82 C 0.75811 0.95939 0.86894 0.0
C83 C 0.74481 0.91257 0.00631 0.0
O84 O 0.71201 0.92203 0.92713 0.0
O85 O 0.72953 0.93915 0.98843 0.0
O86 O 0.75504 0.92857 -0.00159 0.0
O87 O 0.73282 0.90532 0.97108 0.0
C88 C 0.74059 0.90972 0.83723 0.0
O89 O 0.76538 0.95399 0.90204 0.0
O90 O 0.74194 0.95004 0.86556 0.0
In91 In 0.07204 0.83571 0.97702 0.0
O92 O 0.09825 0.84884 0.93479 0.0
O93 O 0.08128 0.85864 0.91876 0.0
C94 C 0.07885 0.81221 0.02211 0.0
C95 C 0.04569 0.81899 0.9048 0.0
C96 C 0.07313 0.8528 0.07069 0.0
O97 O 0.08758 0.82186 0.98222 0.0
O98 O 0.06673 0.8144 0.03899 0.0
O99 O 0.06066 0.83794 0.06015 0.0
O100 O 0.0844 0.85921 0.03304 0.0
C101 C 0.09568 0.85972 0.90926 0.0
O102 O 0.04708 0.83129 0.93442 0.0
O103 O 0.05695 0.8148 0.91388 0.0
In104 In 0.17942 0.24445 0.93121 0.0
O105 O 0.17757 0.21833 0.91614 0.0
O106 O 0.20154 0.24105 0.90071 0.0
C107 C 0.15561 0.23851 0.00888 0.0
C108 C 0.16321 0.24433 0.83697 0.0
C109 C 0.20334 0.27357 0.98082 0.0
O110 O 0.16425 0.2308 0.01006 0.0
O111 O 0.1587 0.24848 0.96802 0.0
O112 O 0.19859 0.27331 0.93103 0.0
O113 O 0.1967 0.259 0.00436 0.0
C114 C 0.19286 0.22482 0.89857 0.0
O115 O 0.17785 0.25682 0.85002 0.0
O116 O 0.15695 0.23196 0.8711 0.0
In117 In 0.92966 0.74607 0.5525 0.0
O118 O 0.91321 0.73485 0.63061 0.0
O119 O 0.92002 0.76034 0.60567 0.0
C120 C 0.92908 0.71833 0.50766 0.0
C121 C 0.96141 0.76528 0.59536 0.0
C122 C 0.91221 0.75032 0.46954 0.0
O123 O 0.92143 0.71758 0.55286 0.0
O124 O 0.93739 0.73319 0.48607 0.0
O125 O 0.92842 0.75995 0.47397 0.0
O126 O 0.90518 0.73896 0.50683 0.0
C127 C 0.91229 0.74827 0.64027 0.0
O128 O 0.95458 0.77191 0.56564 0.0
O129 O 0.95266 0.74911 0.60027 0.0
In130 In 0.24535 0.1573 0.54408 0.0
O131 O 0.24981 0.13769 0.59127 0.0
O132 O 0.22395 0.13139 0.57394 0.0
C133 C 0.27655 0.18438 0.52198 0.0
C134 C 0.23404 0.17194 0.61758 0.0
C135 C 0.23926 0.14678 0.43801 0.0
O136 O 0.27465 0.17195 0.55233 0.0
O137 O 0.26269 0.18333 0.50485 0.0
O138 O 0.23002 0.15184 0.46242 0.0
O139 O 0.25083 0.14663 0.46757 0.0
C140 C 0.23387 0.12688 0.59599 0.0
O141 O 0.22633 0.16588 0.57175 0.0
O142 O 0.24747 0.17094 0.62503 0.0
In143 In 0.83495 0.07872 0.52676 0.0
O144 O 0.8383 0.09236 0.60941 0.0
O145 O 0.85773 0.08657 0.58419 0.0
C146 C 0.81861 0.09425 0.4821 0.0
C147 C 0.81494 0.04692 0.56905 0.0
C148 C 0.85781 0.08688 0.44396 0.0
O149 O 0.8294 0.10083 0.52123 0.0
O150 O 0.81569 0.07956 0.46627 0.0
O151 O 0.84315 0.07335 0.44168 0.0
O152 O 0.86081 0.09544 0.48822 0.0
C153 C 0.8525 0.09313 0.62032 0.0
O154 O 0.82993 0.05185 0.5509 0.0
O155 O 0.80975 0.05752 0.56193 0.0
In156 In 0.90411 0.4069 0.3434 0.0
O157 O 0.90786 0.432 0.38045 0.0
O158 O 0.88283 0.40974 0.38496 0.0
C159 C 0.9381 0.42529 0.31969 0.0
C160 C 0.89732 0.38225 0.42007 0.0
C161 C 0.88982 0.39807 0.24077 0.0
O162 O 0.92816 0.43141 0.31483 0.0
O163 O 0.93099 0.41 0.33779 0.0
O164 O 0.90207 0.3959 0.25588 0.0
O165 O 0.88426 0.40389 0.2782 0.0
C166 C 0.8924 0.42551 0.39658 0.0
O167 O 0.89189 0.37864 0.37058 0.0
O168 O 0.90647 0.39815 0.43013 0.0
In169 In 0.59467 0.49692 0.37283 0.0
O170 O 0.6199 0.49879 0.40351 0.0
O171 O 0.61535 0.51937 0.42171 0.0
C172 C 0.58564 0.47443 0.28797 0.0
C173 C 0.5726 0.4776 0.45329 0.0
C174 C 0.58823 0.52006 0.3228 0.0
O175 O 0.6001 0.48822 0.28875 0.0
O176 O 0.57651 0.47187 0.33068 0.0
O177 O 0.58309 0.51451 0.37148 0.0
O178 O 0.59704 0.51431 0.29989 0.0
C179 C 0.62499 0.51301 0.42801 0.0
O180 O 0.5714 0.48937 0.42814 0.0
O181 O 0.58505 0.47568 0.43815 0.0
In182 In 0.49964 0.08383 0.39194 0.0
O183 O 0.49225 0.10403 0.41682 0.0
O184 O 0.48231 0.08076 0.4641 0.0
C185 C 0.51496 0.0912 0.29211 0.0
C186 C 0.52676 0.0915 0.45806 0.0
C187 C 0.4727 0.0541 0.35718 0.0
O188 O 0.5095 0.10061 0.31288 0.0
O189 O 0.51323 0.07893 0.32249 0.0
O190 O 0.48255 0.05464 0.39602 0.0
O191 O 0.47608 0.06859 0.33768 0.0
C192 C 0.48332 0.09525 0.45808 0.0
O193 O 0.51577 0.07611 0.44554 0.0
O194 O 0.52413 0.10287 0.4367 0.0
In195 In 0.7509 0.58384 0.75226 0.0
O196 O 0.72566 0.55834 0.73717 0.0
O197 O 0.72767 0.58184 0.70906 0.0
C198 C 0.76828 0.57884 0.83416 0.0
C199 C 0.76792 0.58245 0.66221 0.0
C200 C 0.75235 0.61183 0.79818 0.0
O201 O 0.75199 0.56975 0.83075 0.0
O202 O 0.77541 0.58993 0.79617 0.0
O203 O 0.75946 0.61238 0.75205 0.0
O204 O 0.74421 0.59706 0.82045 0.0
C205 C 0.71873 0.56564 0.71139 0.0
O206 O 0.76759 0.59597 0.6754 0.0
O207 O 0.75968 0.56977 0.69437 0.0
In208 In 0.41123 0.15171 0.76614 0.0
O209 O 0.43681 0.15213 0.75478 0.0
O210 O 0.41358 0.12883 0.7372 0.0
C211 C 0.41505 0.17014 0.85842 0.0
C212 C 0.41901 0.17289 0.67826 0.0
C213 C 0.3781 0.12854 0.78728 0.0
O214 O 0.42286 0.16169 0.85303 0.0
O215 O 0.40601 0.16948 0.81731 0.0
O216 O 0.38259 0.13936 0.74797 0.0
O217 O 0.39042 0.12887 0.81415 0.0
C218 C 0.42984 0.13688 0.7365 0.0
O219 O 0.40747 0.15716 0.67621 0.0
O220 O 0.42638 0.17795 0.72476 0.0
In221 In 0.83251 0.26521 0.78596 0.0
O222 O 0.8139 0.23919 0.74691 0.0
O223 O 0.81042 0.2606 0.72866 0.0
C224 C 0.85386 0.25429 0.82382 0.0
C225 C 0.8512 0.29245 0.7184 0.0
C226 C 0.81721 0.26584 0.8821 0.0
O227 O 0.84441 0.24768 0.78156 0.0
O228 O 0.85263 0.26636 0.84614 0.0
O229 O 0.83256 0.27709 0.87065 0.0
O230 O 0.80949 0.25487 0.84431 0.0
C231 C 0.80535 0.24479 0.72112 0.0
O232 O 0.84266 0.29327 0.75897 0.0
O233 O 0.85063 0.27817 0.71314 0.0
In234 In 0.41815 0.25763 0.27762 0.0
O235 O 0.40401 0.23739 0.21061 0.0
O236 O 0.43145 0.24962 0.21373 0.0
C237 C 0.38921 0.25044 0.33319 0.0
C238 C 0.43161 0.28865 0.22753 0.0
C239 C 0.43128 0.2461 0.35568 0.0
O240 O 0.389 0.24532 0.28398 0.0
O241 O 0.40405 0.25962 0.35388 0.0
O242 O 0.43456 0.26161 0.35581 0.0
O243 O 0.42189 0.23698 0.31616 0.0
C244 C 0.41765 0.23869 0.19029 0.0
O245 O 0.44101 0.28378 0.2514 0.0
O246 O 0.41565 0.27848 0.23267 0.0
In247 In 0.74805 0.17523 0.28663 0.0
O248 O 0.71922 0.15833 0.2662 0.0
O249 O 0.73766 0.16204 0.20382 0.0
C250 C 0.74208 0.18414 0.38863 0.0
C251 C 0.76553 0.20382 0.22408 0.0
C252 C 0.76586 0.15913 0.31145 0.0
O253 O 0.73933 0.1692 0.37762 0.0
O254 O 0.74668 0.19415 0.34737 0.0
O255 O 0.77238 0.17528 0.3154 0.0
O256 O 0.75058 0.15121 0.29336 0.0
C257 C 0.72197 0.15532 0.21689 0.0
O258 O 0.77255 0.19569 0.24354 0.0
O259 O 0.74987 0.19768 0.23706 0.0
In260 In 0.85629 0.58148 0.25216 0.0
O261 O 0.8527 0.59268 0.17112 0.0
O262 O 0.83234 0.56828 0.19829 0.0
C263 C 0.88275 0.61018 0.29555 0.0
C264 C 0.86783 0.56064 0.21533 0.0
C265 C 0.8347 0.57757 0.33555 0.0
O266 O 0.87607 0.61013 0.24906 0.0
O267 O 0.8766 0.59559 0.31872 0.0
O268 O 0.84178 0.56837 0.3325 0.0
O269 O 0.83832 0.58822 0.29635 0.0
C270 C 0.83779 0.58003 0.16203 0.0
O271 O 0.85369 0.55489 0.24096 0.0
O272 O 0.87649 0.57684 0.21138 0.0
In273 In 0.59662 0.08607 0.8824 0.0
O274 O 0.57057 0.07697 0.92308 0.0
O275 O 0.59067 0.10258 0.94066 0.0
C276 C 0.58419 0.05328 0.84673 0.0
C277 C 0.62566 0.09686 0.94338 0.0
C278 C 0.59569 0.10093 0.78574 0.0
O279 O 0.57994 0.05673 0.89304 0.0
O280 O 0.59507 0.06625 0.81971 0.0
O281 O 0.6056 0.09488 0.79326 0.0
O282 O 0.58703 0.10037 0.82789 0.0
C283 C 0.57525 0.09089 0.94919 0.0
O284 O 0.62495 0.10535 0.90259 0.0
O285 O 0.61205 0.08273 0.95181 0.0
In286 In 0.89881 0.48133 0.83837 0.0
O287 O 0.90575 0.46242 0.87791 0.0
O288 O 0.87994 0.45734 0.88633 0.0
C289 C 0.93188 0.49941 0.80416 0.0
C290 C 0.89259 0.49869 0.91833 0.0
C291 C 0.88264 0.47344 0.73848 0.0
O292 O 0.92402 0.4832 0.80982 0.0
O293 O 0.92311 0.50646 0.81632 0.0
O294 O 0.89205 0.48879 0.75451 0.0
O295 O 0.8808 0.46222 0.77369 0.0
C296 C 0.89081 0.45271 0.89735 0.0
O297 O 0.88214 0.49113 0.8789 0.0
O298 O 0.90624 0.4979 0.91629 0.0
In299 In 0.48525 0.40893 0.88399 0.0
O300 O 0.48507 0.38388 0.90452 0.0
O301 O 0.4625 0.38526 0.92143 0.0
C302 C 0.49991 0.41836 0.78316 0.0
C303 C 0.50894 0.4246 0.96464 0.0
C304 C 0.46197 0.41894 0.86645 0.0
O305 O 0.4933 0.40288 0.79952 0.0
O306 O 0.49931 0.42863 0.8177 0.0
O307 O 0.47482 0.42708 0.89836 0.0
O308 O 0.46052 0.40534 0.84515 0.0
C309 C 0.47014 0.37671 0.92556 0.0
O310 O 0.49322 0.41993 0.97132 0.0
O311 O 0.51284 0.42198 0.91666 0.0
In312 In 0.58262 0.73902 0.74272 0.0
O313 O 0.59614 0.75744 0.81457 0.0
O314 O 0.56925 0.74805 0.80299 0.0
C315 C 0.61021 0.74061 0.69306 0.0
C316 C 0.56574 0.70743 0.78842 0.0
C317 C 0.57638 0.75502 0.65916 0.0
O318 O 0.61127 0.74808 0.7389 0.0
O319 O 0.59513 0.73193 0.67336 0.0
O320 O 0.56796 0.73871 0.66347 0.0
O321 O 0.58708 0.76276 0.69765 0.0
C322 C 0.5827 0.75745 0.83093 0.0
O323 O 0.5577 0.71383 0.76402 0.0
O324 O 0.58193 0.71661 0.78731 0.0
In325 In 0.25427 0.83837 0.7456 0.0
O326 O 0.23839 0.83521 0.82379 0.0
O327 O 0.24536 0.81615 0.80623 0.0
C328 C 0.25137 0.86342 0.69423 0.0
C329 C 0.28695 0.85294 0.7829 0.0
C330 C 0.23674 0.81467 0.66711 0.0
O331 O 0.24553 0.85825 0.74278 0.0
O332 O 0.25909 0.85628 0.67248 0.0
O333 O 0.25309 0.82248 0.66894 0.0
O334 O 0.22964 0.81864 0.70515 0.0
C335 C 0.23766 0.82126 0.83823 0.0
O336 O 0.27929 0.83793 0.76234 0.0
O337 O 0.27846 0.86068 0.78184 0.0
In338 In 0.15929 0.43337 0.69096 0.0
O339 O 0.17172 0.41993 0.73528 0.0
O340 O 0.18214 0.44678 0.75044 0.0
C341 C 0.1362 0.40172 0.65375 0.0
C342 C 0.14353 0.44662 0.75335 0.0
C343 C 0.1756 0.44676 0.59357 0.0
O344 O 0.14462 0.404 0.69824 0.0
O345 O 0.13908 0.41538 0.62921 0.0
O346 O 0.16046 0.44369 0.6029 0.0
O347 O 0.18282 0.44412 0.63437 0.0
C348 C 0.18278 0.43327 0.76072 0.0
O349 O 0.1571 0.45602 0.72606 0.0
O350 O 0.13758 0.43067 0.74718 0.0
In351 In 0.40621 0.91018 0.14093 0.0
O352 O 0.37882 0.89028 0.11382 0.0
O353 O 0.39318 0.91278 0.06402 0.0
C354 C 0.4104 0.90256 0.24548 0.0
C355 C 0.42605 0.90076 0.08378 0.0
C356 C 0.4113 0.94147 0.16769 0.0
O357 O 0.39609 0.89385 0.22069 0.0
O358 O 0.42231 0.9143 0.21692 0.0
O359 O 0.4206 0.93941 0.13227 0.0
O360 O 0.39896 0.9277 0.18732 0.0
C361 C 0.37946 0.89852 0.07019 0.0
O362 O 0.43069 0.9164 0.09286 0.0
O363 O 0.41166 0.89001 0.10438 0.0
In364 In 0.09304 0.50483 0.14534 0.0
O365 O 0.11147 0.49655 0.10998 0.0
O366 O 0.08699 0.48674 0.07128 0.0
C367 C 0.10844 0.5143 0.24607 0.0
C368 C 0.10017 0.53247 0.08213 0.0
C369 C 0.05987 0.48717 0.17863 0.0
O370 O 0.09953 0.49871 0.23173 0.0
O371 O 0.11011 0.52495 0.20897 0.0
O372 O 0.06756 0.50313 0.16795 0.0
O373 O 0.06885 0.48001 0.17162 0.0
C374 C 0.10148 0.4876 0.07123 0.0
O375 O 0.11158 0.52895 0.09705 0.0
O376 O 0.08514 0.52208 0.09936 0.0
In377 In 0.50079 0.57746 0.10397 0.0
O378 O 0.50626 0.60528 0.09288 0.0
O379 O 0.51996 0.59636 0.04318 0.0
C380 C 0.48277 0.56462 0.1975 0.0
C381 C 0.47548 0.56167 0.02876 0.0
C382 C 0.52635 0.57211 0.13691 0.0
O383 O 0.4902 0.58067 0.187 0.0
O384 O 0.48447 0.55546 0.16081 0.0
O385 O 0.51615 0.56351 0.09777 0.0
O386 O 0.52389 0.58364 0.15805 0.0
C387 C 0.51707 0.60844 0.05423 0.0
O388 O 0.48929 0.56109 0.02589 0.0
O389 O 0.47441 0.56991 0.06967 0.0
In390 In 0.08773 0.58439 0.64037 0.0
O391 O 0.104 0.61189 0.60713 0.0
O392 O 0.08091 0.59493 0.56396 0.0
C393 C 0.10194 0.59077 0.74329 0.0
C394 C 0.09895 0.56654 0.58044 0.0
C395 C 0.054 0.56603 0.66706 0.0
O396 O 0.09163 0.59574 0.72853 0.0
O397 O 0.10558 0.58335 0.70564 0.0
O398 O 0.06291 0.55904 0.65607 0.0
O399 O 0.06204 0.5823 0.66367 0.0
C400 C 0.09424 0.60963 0.56621 0.0
O401 O 0.08364 0.55981 0.59817 0.0
O402 O 0.10854 0.58222 0.59302 0.0
In403 In 0.39104 0.49241 0.62413 0.0
O404 O 0.40763 0.49343 0.5506 0.0
O405 O 0.40367 0.51474 0.56323 0.0
C406 C 0.40341 0.47427 0.67636 0.0
C407 C 0.35999 0.47611 0.57376 0.0
C408 C 0.39647 0.51341 0.71131 0.0
O409 O 0.41301 0.48882 0.65441 0.0
O410 O 0.3874 0.46851 0.67068 0.0
O411 O 0.38494 0.49766 0.71247 0.0
O412 O 0.4039 0.51856 0.66499 0.0
C413 C 0.41064 0.50811 0.53442 0.0
O414 O 0.36614 0.49107 0.59391 0.0
O415 O 0.36902 0.46913 0.58192 0.0
In416 In 0.49185 0.90263 0.65146 0.0
O417 O 0.47464 0.91251 0.61829 0.0
O418 O 0.4681 0.88671 0.59811 0.0
C419 C 0.51471 0.93476 0.68761 0.0
C420 C 0.50772 0.89194 0.5794 0.0
C421 C 0.47774 0.88709 0.74912 0.0
O422 O 0.50501 0.93217 0.64624 0.0
O423 O 0.51308 0.92127 0.70973 0.0
O424 O 0.4933 0.89229 0.73715 0.0
O425 O 0.46916 0.88897 0.71095 0.0
C426 C 0.46463 0.8987 0.59263 0.0
O427 O 0.50008 0.8834 0.62233 0.0
O428 O 0.50784 0.90598 0.5741 0.0
In429 In 0.24445 0.41418 0.20384 0.0
O430 O 0.2719 0.43434 0.22931 0.0
O431 O 0.25779 0.41191 0.28001 0.0
C432 C 0.23747 0.42092 0.10163 0.0
C433 C 0.22562 0.42376 0.26559 0.0
C434 C 0.24221 0.38419 0.17533 0.0
O435 O 0.25213 0.43039 0.12368 0.0
O436 O 0.22666 0.40869 0.1316 0.0
O437 O 0.23168 0.38491 0.20906 0.0
O438 O 0.25405 0.39861 0.15759 0.0
C439 C 0.27147 0.42616 0.27299 0.0
O440 O 0.2208 0.40802 0.25709 0.0
O441 O 0.23955 0.43437 0.24208 0.0
In442 In 0.58716 0.847 0.24625 0.0
O443 O 0.56342 0.85026 0.25822 0.0
O444 O 0.58278 0.85898 0.32152 0.0
C445 C 0.58369 0.82794 0.15619 0.0
C446 C 0.58561 0.82428 0.32176 0.0
C447 C 0.61315 0.87685 0.20723 0.0
O448 O 0.57185 0.83105 0.17043 0.0
O449 O 0.59677 0.83432 0.1875 0.0
O450 O 0.61515 0.86858 0.24648 0.0
O451 O 0.59787 0.87039 0.1894 0.0
C452 C 0.56837 0.85684 0.30618 0.0
O453 O 0.59909 0.83877 0.31424 0.0
O454 O 0.57309 0.82112 0.29009 0.0
In455 In 0.14603 0.73511 0.24754 0.0
O456 O 0.14574 0.70953 0.25727 0.0
O457 O 0.12361 0.71058 0.28326 0.0
C458 C 0.16874 0.75183 0.16555 0.0
C459 C 0.1645 0.74998 0.33996 0.0
C460 C 0.1223 0.74192 0.20535 0.0
O461 O 0.15994 0.73549 0.1668 0.0
O462 O 0.16629 0.75935 0.20596 0.0
O463 O 0.12883 0.74703 0.25314 0.0
O464 O 0.12712 0.73264 0.18016 0.0
C465 C 0.13109 0.70185 0.28021 0.0
O466 O 0.15003 0.74881 0.33095 0.0
O467 O 0.16957 0.74371 0.3024 0.0
H468 H 0.17548 0.97622 0.38238 0.0
H469 H 0.24223 0.02775 0.13913 0.0
H470 H 0.21409 0.96396 0.32819 0.0
H471 H 0.19108 0.02121 0.14389 0.0
H472 H 0.23478 0.00828 0.21906 0.0
H473 H 0.18416 0.9974 0.30653 0.0
C474 C 0.18599 0.97823 0.35517 0.0
C475 C 0.19409 0.96837 0.36129 0.0
C476 C 0.22519 0.01107 0.20242 0.0
C477 C 0.20397 0.99235 0.27497 0.0
C478 C 0.2294 0.02212 0.15687 0.0
C479 C 0.21719 0.02594 0.13479 0.0
C480 C 0.20878 0.0041 0.22669 0.0
C481 C 0.20079 0.01842 0.15941 0.0
C482 C 0.19079 0.99014 0.31169 0.0
C483 C 0.2075 0.9713 0.32465 0.0
N484 N 0.19708 0.00792 0.20445 0.0
N485 N 0.21204 0.98305 0.28301 0.0
H486 H 0.97879 0.23277 0.12474 0.0
H487 H 0.03202 0.20992 0.34302 0.0
H488 H 0.9809 0.18568 0.11701 0.0
H489 H 0.03509 0.25953 0.33238 0.0
H490 H 0.01163 0.19979 0.26469 0.0
H491 H -0.00087 0.2425 0.20215 0.0
C492 C 0.98385 0.22464 0.13866 0.0
C493 C 0.97822 0.20843 0.11445 0.0
C494 C 0.01666 0.21283 0.27991 0.0
C495 C 0.0011 0.21923 0.20422 0.0
C496 C 0.02808 0.21852 0.32507 0.0
C497 C 0.0352 0.23556 0.34406 0.0
C498 C 0.01236 0.22428 0.25407 0.0
C499 C 0.0299 0.24629 0.31889 0.0
C500 C 0.99533 0.23012 0.18322 0.0
C501 C 0.98506 0.19834 0.1343 0.0
N502 N 0.01888 0.2405 0.27506 0.0
N503 N 0.99602 0.20382 0.17856 0.0
H504 H 0.7942 0.82772 0.34045 0.0
H505 H 0.77701 0.7554 0.11282 0.0
H506 H 0.74591 0.78042 0.31629 0.0
H507 H 0.82764 0.79933 0.14065 0.0
H508 H 0.76526 0.76647 0.18224 0.0
H509 H 0.80706 0.81882 0.26607 0.0
C510 C 0.78642 0.81536 0.32021 0.0
C511 C 0.76898 0.80478 0.33438 0.0
C512 C 0.77893 0.77384 0.17304 0.0
C513 C 0.78336 0.79478 0.24902 0.0
C514 C 0.7856 0.76758 0.13297 0.0
C515 C 0.8033 0.77644 0.12128 0.0
C516 C 0.79006 0.78902 0.20223 0.0
C517 C 0.81388 0.79218 0.14846 0.0
C518 C 0.79369 0.81038 0.27747 0.0
C519 C 0.75939 0.789 0.30655 0.0
N520 N 0.80712 0.79791 0.18836 0.0
N521 N 0.76667 0.78455 0.26514 0.0
H522 H 0.79238 0.97544 0.8404 0.0
H523 H 0.78157 0.03217 0.60311 0.0
H524 H 0.74506 0.97562 0.80739 0.0
H525 H 0.82739 0.02808 0.62051 0.0
H526 H 0.76808 0.01134 0.6783 0.0
H527 H 0.80615 0.99582 0.76322 0.0
C528 C 0.78501 0.98003 0.81761 0.0
C529 C 0.76758 0.97388 0.83015 0.0
C530 C 0.78102 0.01483 0.6654 0.0
C531 C 0.78303 0.99677 0.74156 0.0
C532 C 0.78867 0.02662 0.62215 0.0
C533 C 0.8056 0.03183 0.60568 0.0
C534 C 0.79044 0.00832 0.69282 0.0
C535 C 0.81426 0.02431 0.63184 0.0
C536 C 0.79279 0.99147 0.77321 0.0
C537 C 0.75853 0.98003 0.79899 0.0
N538 N 0.80664 0.01304 0.67465 0.0
N539 N 0.76633 0.99107 0.75604 0.0
H540 H 0.0387 0.79039 0.84561 0.0
H541 H 0.97514 0.79881 0.62984 0.0
H542 H 0.02486 0.83009 0.85828 0.0
H543 H 0.98193 0.75445 0.64213 0.0
H544 H 0.99653 0.81284 0.70436 0.0
H545 H 0.02033 0.77891 0.76386 0.0
C546 C 0.03165 0.79661 0.83139 0.0
C547 C 0.0332 0.81114 0.85892 0.0
C548 C 0.99347 0.80013 0.69015 0.0
C549 C 0.0123 0.7982 0.76462 0.0
C550 C 0.98146 0.79223 0.64723 0.0
C551 C 0.97678 0.77545 0.63012 0.0
C552 C 0.00085 0.79118 0.71549 0.0
C553 C 0.98514 0.76737 0.65437 0.0
C554 C 0.02122 0.7901 0.78451 0.0
C555 C 0.02387 0.81875 0.83849 0.0
N556 N 0.99669 0.77527 0.69604 0.0
N557 N 0.01382 0.8122 0.79232 0.0
H558 H 0.20174 0.16796 0.62779 0.0
H559 H 0.22622 0.23374 0.8779 0.0
H560 H 0.25183 0.19178 0.70626 0.0
H561 H 0.17373 0.19357 0.84783 0.0
H562 H 0.23622 0.21974 0.81199 0.0
H563 H 0.19137 0.17898 0.70331 0.0
C564 C 0.21055 0.17558 0.66072 0.0
C565 C 0.22766 0.17905 0.66081 0.0
C566 C 0.22253 0.21385 0.82048 0.0
C567 C 0.21596 0.19158 0.74685 0.0
C568 C 0.21684 0.22178 0.85818 0.0
C569 C 0.19915 0.21476 0.86822 0.0
C570 C 0.2104 0.19904 0.79173 0.0
C571 C 0.1875 0.19932 0.84143 0.0
C572 C 0.2046 0.18171 0.70396 0.0
C573 C 0.23854 0.18884 0.70465 0.0
N574 N 0.19331 0.1921 0.80358 0.0
N575 N 0.23254 0.19488 0.74571 0.0
H576 H 0.85896 0.32613 0.72707 0.0
H577 H 0.88293 0.34732 0.40769 0.0
H578 H 0.86319 0.29046 0.61604 0.0
H579 H 0.90023 0.38734 0.53235 0.0
H580 H 0.87321 0.32568 0.48217 0.0
H581 H 0.87184 0.34848 0.65487 0.0
C582 C 0.86271 0.32306 0.68768 0.0
C583 C 0.86002 0.30647 0.6774 0.0
C584 C 0.87927 0.33922 0.49312 0.0
C585 C 0.87443 0.33174 0.59474 0.0
C586 C 0.88477 0.35153 0.45071 0.0
C587 C 0.89239 0.3691 0.464 0.0
C588 C 0.88112 0.34453 0.54902 0.0
C589 C 0.89447 0.37391 0.52038 0.0
C590 C 0.87007 0.33579 0.64663 0.0
C591 C 0.86508 0.30312 0.62568 0.0
N592 N 0.88869 0.36167 0.56088 0.0
N593 N 0.87187 0.3156 0.58601 0.0
H594 H 0.644 0.49886 0.46744 0.0
H595 H 0.69851 0.57807 0.67399 0.0
H596 H 0.63869 0.54412 0.47951 0.0
H597 H 0.70313 0.53232 0.6727 0.0
H598 H 0.67556 0.56489 0.60517 0.0
H599 H 0.66565 0.51048 0.54209 0.0
C600 C 0.64756 0.51133 0.48527 0.0
C601 C 0.6396 0.52058 0.46726 0.0
C602 C 0.68142 0.5576 0.62017 0.0
C603 C 0.66398 0.53374 0.55294 0.0
C604 C 0.69446 0.56509 0.65978 0.0
C605 C 0.70272 0.55627 0.67883 0.0
C606 C 0.6767 0.54121 0.59884 0.0
C607 C 0.69699 0.5395 0.65915 0.0
C608 C 0.65977 0.51787 0.52817 0.0
C609 C 0.64452 0.53657 0.49208 0.0
N610 N 0.68442 0.53255 0.61959 0.0
N611 N 0.65635 0.5426 0.53366 0.0
H612 H 0.41914 0.10341 0.71003 0.0
H613 H 0.49041 0.12851 0.47486 0.0
H614 H 0.46206 0.15518 0.69118 0.0
H615 H 0.45897 0.07646 0.53566 0.0
H616 H 0.4788 0.13871 0.54911 0.0
H617 H 0.43275 0.0932 0.64348 0.0
C618 C 0.43161 0.11256 0.69268 0.0
C619 C 0.43952 0.13013 0.7061 0.0
C620 C 0.47448 0.12507 0.5461 0.0
C621 C 0.45488 0.11869 0.62876 0.0
C622 C 0.48096 0.11924 0.50348 0.0
C623 C 0.47558 0.10163 0.49912 0.0
C624 C 0.46241 0.11314 0.58393 0.0
C625 C 0.46345 0.09016 0.53757 0.0
C626 C 0.43932 0.10676 0.6545 0.0
C627 C 0.45561 0.14149 0.68219 0.0
N628 N 0.45721 0.0961 0.5782 0.0
N629 N 0.46266 0.13561 0.64394 0.0
H630 H 0.46454 0.30782 0.18693 0.0
H631 H 0.43776 0.35788 0.96822 0.0
H632 H 0.41375 0.30203 0.17669 0.0
H633 H 0.48777 0.36167 0.96864 0.0
H634 H 0.42869 0.3369 0.04373 0.0
H635 H 0.47379 0.3283 0.10913 0.0
C636 C 0.45544 0.31111 0.16899 0.0
C637 C 0.43836 0.30324 0.1882 0.0
C638 C 0.4416 0.34217 0.02703 0.0
C639 C 0.4487 0.32627 0.09873 0.0
C640 C 0.44673 0.35404 0.98357 0.0
C641 C 0.46353 0.36151 0.96225 0.0
C642 C 0.45341 0.33784 0.04973 0.0
C643 C 0.47466 0.35613 0.98377 0.0
C644 C 0.46066 0.32262 0.12422 0.0
C645 C 0.42704 0.30779 0.16314 0.0
N646 N 0.46946 0.34473 0.02682 0.0
N647 N 0.43238 0.31893 0.11956 0.0
H648 H 0.72511 0.15459 0.10442 0.0
H649 H 0.62646 0.08551 0.04811 0.0
H650 H 0.68744 0.13375 0.23668 0.0
H651 H 0.65834 0.12392 0.92672 0.0
H652 H 0.65021 0.0988 0.11525 0.0
H653 H 0.70207 0.13916 0.03637 0.0
C654 C 0.71199 0.14666 0.11916 0.0
C655 C 0.70812 0.14546 0.17622 0.0
C656 C 0.65201 0.10422 0.07379 0.0
C657 C 0.68181 0.12771 0.09866 0.0
C658 C 0.63854 0.0966 0.03536 0.0
C659 C 0.64047 0.10368 0.98187 0.0
C660 C 0.66758 0.11882 0.05824 0.0
C661 C 0.65633 0.11811 0.96761 0.0
C662 C 0.69887 0.13794 0.08029 0.0
C663 C 0.69092 0.13506 0.19302 0.0
N664 N 0.66932 0.12521 0.0056 0.0
N665 N 0.67836 0.1265 0.15433 0.0
H666 H 0.89959 0.56862 0.17647 0.0
H667 H 0.86149 0.49512 0.94846 0.0
H668 H 0.84639 0.52779 0.17896 0.0
H669 H 0.91529 0.52103 0.99476 0.0
H670 H 0.85565 0.50843 0.02862 0.0
H671 H 0.90587 0.55236 0.10746 0.0
C672 C 0.88932 0.55606 0.16327 0.0
C673 C 0.87246 0.54951 0.18328 0.0
C674 C 0.86871 0.51112 0.02129 0.0
C675 C 0.87941 0.53116 0.10336 0.0
C676 C 0.87206 0.50367 0.97535 0.0
C677 C 0.8889 0.50708 0.96495 0.0
C678 C 0.88234 0.52225 0.05635 0.0
C679 C 0.90213 0.51811 0.00132 0.0
C680 C 0.89289 0.54683 0.12382 0.0
C681 C 0.85959 0.53324 0.16472 0.0
N682 N 0.8986 0.52543 0.04519 0.0
N683 N 0.86326 0.52473 0.12497 0.0
H684 H 0.57931 0.68757 0.81846 0.0
H685 H 0.50569 0.63163 0.04038 0.0
H686 H 0.53347 0.69161 0.83571 0.0
H687 H 0.5453 0.62053 0.98838 0.0
H688 H 0.51666 0.65535 0.9722 0.0
H689 H 0.56754 0.66393 0.88519 0.0
C690 C 0.56662 0.68328 0.83585 0.0
C691 C 0.5573 0.69147 0.82157 0.0
C692 C 0.52295 0.64773 0.97605 0.0
C693 C 0.54387 0.66464 0.89906 0.0
C694 C 0.51684 0.63437 0.01527 0.0
C695 C 0.52464 0.62418 0.0199 0.0
C696 C 0.53702 0.65091 0.94195 0.0
C697 C 0.53889 0.62807 0.98604 0.0
C698 C 0.55993 0.66983 0.87414 0.0
C699 C 0.54096 0.68548 0.84539 0.0
N700 N 0.5446 0.6411 0.94855 0.0
N701 N 0.53479 0.67248 0.88358 0.0
H702 H 0.3531 0.86523 0.05705 0.0
H703 H 0.30976 0.88664 0.80462 0.0
H704 H 0.37552 0.91604 0.98413 0.0
H705 H 0.30034 0.83513 0.83529 0.0
H706 H 0.33325 0.89781 0.87254 0.0
H707 H 0.33219 0.85389 0.9803 0.0
C708 C 0.35351 0.874 0.02517 0.0
C709 C 0.36595 0.8916 0.02698 0.0
C710 C 0.32623 0.88409 0.86382 0.0
C711 C 0.34229 0.87876 0.93931 0.0
C712 C 0.31289 0.87774 0.82494 0.0
C713 C 0.30317 0.85997 0.81445 0.0
C714 C 0.32959 0.87254 0.89331 0.0
C715 C 0.30765 0.84894 0.84201 0.0
C716 C 0.34173 0.86751 0.98116 0.0
C717 C 0.36609 0.90239 0.98434 0.0
N718 N 0.32039 0.85538 0.88099 0.0
N719 N 0.35437 0.89582 0.94241 0.0
H720 H 0.15953 0.47862 0.80073 0.0
H721 H 0.08111 0.46271 0.99615 0.0
H722 H 0.11164 0.43003 0.80156 0.0
H723 H 0.13432 0.49649 0.042 0.0
H724 H 0.09078 0.45293 0.91542 0.0
H725 H 0.14894 0.48836 0.87895 0.0
C726 C 0.14668 0.47013 0.81678 0.0
C727 C 0.13642 0.45351 0.79485 0.0
C728 C 0.1003 0.46241 0.94342 0.0
C729 C 0.12433 0.4645 0.88403 0.0
C730 C 0.09481 0.46795 0.98941 0.0
C731 C 0.10696 0.48035 0.02578 0.0
C732 C 0.11803 0.46962 0.93323 0.0
C733 C 0.12455 0.48681 0.01515 0.0
C734 C 0.14073 0.47562 0.86167 0.0
C735 C 0.11994 0.44294 0.81747 0.0
N736 N 0.12958 0.48149 0.96947 0.0
N737 N 0.11436 0.44862 0.86088 0.0
H738 H 0.07283 0.61155 0.4889 0.0
H739 H 0.14947 0.68678 0.31505 0.0
H740 H 0.12607 0.63669 0.54136 0.0
H741 H 0.09829 0.6802 0.31708 0.0
H742 H 0.13998 0.66315 0.38232 0.0
H743 H 0.08112 0.63226 0.41177 0.0
C744 C 0.08624 0.62146 0.48424 0.0
C745 C 0.09878 0.62255 0.52169 0.0
C746 C 0.1308 0.66675 0.36737 0.0
C747 C 0.10834 0.6458 0.43314 0.0
C748 C 0.13613 0.68008 0.32858 0.0
C749 C 0.12464 0.68547 0.31077 0.0
C750 C 0.11381 0.65862 0.38769 0.0
C751 C 0.10754 0.67645 0.33003 0.0
C752 C 0.09094 0.6332 0.44028 0.0
C753 C 0.11598 0.63554 0.51372 0.0
N754 N 0.10263 0.66347 0.36768 0.0
N755 N 0.12029 0.6466 0.47004 0.0
H756 H 0.34525 0.49232 0.51931 0.0
H757 H 0.27703 0.40839 0.35428 0.0
H758 H 0.34122 0.44254 0.54093 0.0
H759 H 0.29624 0.45989 0.29031 0.0
H760 H 0.29752 0.42033 0.43141 0.0
H761 H 0.32356 0.48011 0.44508 0.0
C762 C 0.33955 0.47875 0.50916 0.0
C763 C 0.345 0.46839 0.53612 0.0
C764 C 0.29733 0.42901 0.40032 0.0
C765 C 0.32044 0.45448 0.45136 0.0
C766 C 0.28569 0.42222 0.35627 0.0
C767 C 0.28505 0.43319 0.31583 0.0
C768 C 0.30819 0.44693 0.40448 0.0
C769 C 0.29647 0.451 0.32043 0.0
C770 C 0.32735 0.47187 0.46646 0.0
C771 C 0.33737 0.45095 0.52104 0.0
N772 N 0.30752 0.45736 0.36436 0.0
N773 N 0.32547 0.44453 0.47959 0.0
H774 H 0.51595 0.90283 0.47198 0.0
H775 H 0.56873 0.85569 0.41827 0.0
H776 H 0.51664 0.86702 0.59098 0.0
H777 H 0.54425 0.86642 0.28142 0.0
H778 H 0.55239 0.86283 0.48369 0.0
H779 H 0.52893 0.89269 0.40242 0.0
C780 C 0.51886 0.89284 0.48343 0.0
C781 C 0.51538 0.88581 0.53733 0.0
C782 C 0.5505 0.86352 0.43938 0.0
C783 C 0.53022 0.87432 0.45842 0.0
C784 C 0.55988 0.85957 0.40204 0.0
C785 C 0.55786 0.86059 0.3445 0.0
C786 C 0.5393 0.86893 0.4191 0.0
C787 C 0.54612 0.8655 0.32558 0.0
C788 C 0.52611 0.887 0.44365 0.0
C789 C 0.5192 0.8728 0.54993 0.0
N790 N 0.5374 0.86975 0.36297 0.0
N791 N 0.52664 0.86761 0.51089 0.0
H792 H 0.20111 0.10666 0.63462 0.0
H793 H 0.22758 0.05107 0.82695 0.0
H794 H 0.25141 0.11109 0.6338 0.0
H795 H 0.19209 0.06792 0.8774 0.0
H796 H 0.22906 0.06307 0.73411 0.0
H797 H 0.19128 0.08306 0.70207 0.0
C798 C 0.20998 0.10242 0.64774 0.0
C799 C 0.22719 0.111 0.62945 0.0
C800 C 0.22053 0.06362 0.76506 0.0
C801 C 0.21593 0.08394 0.70562 0.0
C802 C 0.21952 0.05663 0.81782 0.0
C803 C 0.20989 0.05877 0.85999 0.0
C804 C 0.21162 0.07251 0.7545 0.0
C805 C 0.19981 0.0662 0.84608 0.0
C806 C 0.20434 0.08898 0.68613 0.0
C807 C 0.23811 0.10496 0.64757 0.0
N808 N 0.20113 0.07306 0.79461 0.0
N809 N 0.23234 0.09186 0.68513 0.0
H810 H 0.88635 0.10364 0.64085 0.0
H811 H 0.88335 0.13615 0.94709 0.0
H812 H 0.84128 0.10158 0.71401 0.0
H813 H 0.93095 0.15713 0.85403 0.0
H814 H 0.8679 0.11814 0.86786 0.0
H815 H 0.90295 0.11855 0.7244 0.0
C816 C 0.87995 0.10623 0.67468 0.0
C817 C 0.86247 0.10148 0.67074 0.0
C818 C 0.88174 0.12662 0.86478 0.0
C819 C 0.88122 0.11823 0.76577 0.0
C820 C 0.8906 0.13689 0.91001 0.0
C821 C 0.90844 0.14832 0.90673 0.0
C822 C 0.89075 0.12771 0.81585 0.0
C823 C 0.91717 0.14856 0.85793 0.0
C824 C 0.88942 0.11476 0.72203 0.0
C825 C 0.85476 0.10513 0.71538 0.0
N826 N 0.90819 0.13843 0.81397 0.0
N827 N 0.86419 0.11327 0.76119 0.0
H828 H 0.90474 0.77378 0.66054 0.0
H829 H 0.86554 0.73772 0.96133 0.0
H830 H 0.89917 0.72674 0.72995 0.0
H831 H 0.85624 0.77456 0.87444 0.0
H832 H 0.88155 0.73654 0.88124 0.0
H833 H 0.89008 0.77679 0.74229 0.0
C834 C 0.90042 0.76408 0.69301 0.0
C835 C 0.90314 0.74997 0.68863 0.0
C836 C 0.87606 0.74493 0.87963 0.0
C837 C 0.88657 0.75344 0.78208 0.0
C838 C 0.86699 0.7457 0.92548 0.0
C839 C 0.85948 0.7562 0.92436 0.0
C840 C 0.87776 0.75481 0.83226 0.0
C841 C 0.86183 0.76628 0.87687 0.0
C842 C 0.89205 0.76581 0.73949 0.0
C843 C 0.89728 0.73778 0.73168 0.0
N844 N 0.87076 0.76531 0.83244 0.0
N845 N 0.88933 0.73984 0.77678 0.0
H846 H 0.17489 0.2677 0.75191 0.0
H847 H 0.08331 0.22798 0.60048 0.0
H848 H 0.12992 0.22115 0.80876 0.0
H849 H 0.13136 0.2668 0.52789 0.0
H850 H 0.09958 0.22555 0.67908 0.0
H851 H 0.15855 0.26809 0.671 0.0
C852 C 0.16159 0.25753 0.74719 0.0
C853 C 0.15373 0.24439 0.78693 0.0
C854 C 0.10651 0.23451 0.64566 0.0
C855 C 0.13491 0.24478 0.69483 0.0
C856 C 0.09725 0.23589 0.60095 0.0
C857 C 0.106 0.24764 0.55784 0.0
C858 C 0.12458 0.24507 0.64716 0.0
C859 C 0.12407 0.2576 0.56034 0.0
C860 C 0.15226 0.25773 0.701 0.0
C861 C 0.13646 0.23151 0.7789 0.0
N862 N 0.13273 0.25616 0.60435 0.0
N863 N 0.12756 0.23207 0.73384 0.0
H864 H 0.76924 0.85615 0.59534 0.0
H865 H 0.71601 0.89255 0.75793 0.0
H866 H 0.72513 0.85738 0.52785 0.0
H867 H 0.76694 0.90409 0.80897 0.0
H868 H 0.71807 0.87697 0.67748 0.0
H869 H 0.76794 0.87178 0.6779 0.0
C870 C 0.7594 0.8598 0.59774 0.0
C871 C 0.74729 0.85548 0.55481 0.0
C872 C 0.72881 0.88291 0.70627 0.0
C873 C 0.74557 0.873 0.64871 0.0
C874 C 0.72759 0.89174 0.75227 0.0
C875 C 0.74134 0.89965 0.78989 0.0
C876 C 0.74384 0.88191 0.69804 0.0
C877 C 0.75607 0.89821 0.78068 0.0
C878 C 0.75864 0.86866 0.64475 0.0
C879 C 0.73474 0.86043 0.55994 0.0
N880 N 0.75695 0.88949 0.7356 0.0
N881 N 0.73416 0.86883 0.60609 0.0
H882 H 0.14309 0.93082 0.63282 0.0
H883 H 0.12542 0.86169 0.87242 0.0
H884 H 0.15733 0.89138 0.62395 0.0
H885 H 0.09366 0.88506 0.85163 0.0
H886 H 0.14331 0.87889 0.7945 0.0
H887 H 0.13046 0.91991 0.72569 0.0
C888 C 0.14372 0.92003 0.65073 0.0
C889 C 0.15099 0.91179 0.62074 0.0
C890 C 0.13254 0.88039 0.80744 0.0
C891 C 0.13706 0.89961 0.72607 0.0
C892 C 0.12236 0.87063 0.85196 0.0
C893 C 0.10791 0.87178 0.86781 0.0
C894 C 0.12826 0.89142 0.77875 0.0
C895 C 0.1046 0.88366 0.84013 0.0
C896 C 0.13653 0.91382 0.70338 0.0
C897 C 0.15158 0.89791 0.64547 0.0
N898 N 0.11463 0.89294 0.79645 0.0
N899 N 0.14469 0.89225 0.69663 0.0
H900 H 0.7688 0.92407 0.0911 0.0
H901 H 0.71725 0.83522 0.25894 0.0
H902 H 0.72291 0.87899 0.03096 0.0
H903 H 0.76881 0.87475 0.30385 0.0
H904 H 0.7184 0.85246 0.17861 0.0
H905 H 0.76864 0.90736 0.17271 0.0
C906 C 0.75878 0.91068 0.09494 0.0
C907 C 0.74585 0.9029 0.05437 0.0
C908 C 0.72949 0.85738 0.20596 0.0
C909 C 0.74547 0.88389 0.14715 0.0
C910 C 0.7288 0.84756 0.2519 0.0
C911 C 0.74296 0.85357 0.28787 0.0
C912 C 0.74441 0.87338 0.1961 0.0
C913 C 0.75762 0.86965 0.27689 0.0
C914 C 0.75868 0.90117 0.14139 0.0
C915 C 0.73313 0.88553 0.06125 0.0
N916 N 0.75798 0.87904 0.23191 0.0
N917 N 0.73322 0.87666 0.1068 0.0
H918 H 0.089 0.88685 0.09738 0.0
H919 H 0.12936 0.87311 0.36071 0.0
H920 H 0.06657 0.83605 0.16986 0.0
H921 H 0.12544 0.91909 0.34547 0.0
H922 H 0.10676 0.85913 0.2898 0.0
H923 H 0.1024 0.89939 0.18722 0.0
C924 C 0.08646 0.87841 0.13282 0.0
C925 C 0.07669 0.86046 0.1266 0.0
C926 C 0.11065 0.87217 0.30282 0.0
C927 C 0.09249 0.87455 0.22814 0.0
C928 C 0.12361 0.88017 0.34282 0.0
C929 C 0.12932 0.89729 0.35844 0.0
C930 C 0.10377 0.88155 0.2774 0.0
C931 C 0.12141 0.90588 0.33435 0.0
C932 C 0.09413 0.88553 0.1839 0.0
C933 C 0.07391 0.84998 0.17336 0.0
N934 N 0.10926 0.89803 0.29413 0.0
N935 N 0.08221 0.85717 0.22197 0.0
H936 H 0.13768 0.25552 0.01469 0.0
H937 H 0.10127 0.22486 0.32124 0.0
H938 H 0.14814 0.22036 0.10725 0.0
H939 H 0.11097 0.27317 0.24961 0.0
H940 H 0.11386 0.2195 0.23818 0.0
H941 H 0.12243 0.25794 0.09502 0.0
C942 C 0.13659 0.24813 0.05176 0.0
C943 C 0.14432 0.23783 0.05459 0.0
C944 C 0.11322 0.23125 0.24083 0.0
C945 C 0.12695 0.24067 0.14671 0.0
C946 C 0.10606 0.23433 0.28801 0.0
C947 C 0.10516 0.24951 0.29212 0.0
C948 C 0.11922 0.24332 0.19731 0.0
C949 C 0.11152 0.26135 0.24811 0.0
C950 C 0.12797 0.24962 0.09767 0.0
C951 C 0.14241 0.22849 0.10355 0.0
N952 N 0.11821 0.25796 0.20231 0.0
N953 N 0.13395 0.23018 0.14804 0.0
H954 H 0.87535 0.77732 0.17352 0.0
H955 H 0.87783 0.72988 0.45217 0.0
H956 H 0.83419 0.72749 0.2266 0.0
H957 H 0.92323 0.77346 0.38263 0.0
H958 H 0.86088 0.73089 0.37466 0.0
H959 H 0.89232 0.77804 0.25455 0.0
C960 C 0.86987 0.76656 0.20238 0.0
C961 C 0.85338 0.75229 0.19344 0.0
C962 C 0.87454 0.74026 0.37624 0.0
C963 C 0.87264 0.75307 0.28589 0.0
C964 C 0.88424 0.73973 0.42059 0.0
C965 C 0.90199 0.75157 0.42361 0.0
C966 C 0.88259 0.75276 0.33456 0.0
C967 C 0.90958 0.76407 0.38165 0.0
C968 C 0.87957 0.76698 0.24844 0.0
C969 C 0.84688 0.73871 0.23192 0.0
N970 N 0.89982 0.76433 0.33863 0.0
N971 N 0.85653 0.73944 0.27653 0.0
H972 H 0.2603 0.11766 0.12205 0.0
H973 H 0.21009 0.13267 0.37223 0.0
H974 H 0.20494 0.08783 0.14043 0.0
H975 H 0.2645 0.14968 0.36998 0.0
H976 H 0.20772 0.12159 0.27657 0.0
H977 H 0.26164 0.13534 0.20127 0.0
C978 C 0.24839 0.11497 0.14237 0.0
C979 C 0.23252 0.10109 0.12538 0.0
C980 C 0.22018 0.12796 0.29698 0.0
C981 C 0.23397 0.12115 0.21645 0.0
C982 C 0.22153 0.13429 0.35125 0.0
C983 C 0.23745 0.14181 0.37896 0.0
C984 C 0.23493 0.12951 0.27054 0.0
C985 C 0.25193 0.14368 0.35029 0.0
C986 C 0.24916 0.12505 0.18766 0.0
C987 C 0.21746 0.09832 0.15274 0.0
N988 N 0.2503 0.13751 0.29782 0.0
N989 N 0.21856 0.10813 0.19757 0.0
H990 H 0.85219 0.07571 0.33511 0.0
H991 H 0.91223 0.16895 0.22901 0.0
H992 H 0.88957 0.11533 0.44344 0.0
H993 H 0.90461 0.12671 0.12314 0.0
H994 H 0.90023 0.1488 0.30732 0.0
H995 H 0.86859 0.09308 0.25422 0.0
C996 C 0.86406 0.08779 0.34185 0.0
C997 C 0.8694 0.09427 0.39584 0.0
C998 C 0.9013 0.144 0.26693 0.0
C999 C 0.88767 0.11415 0.30459 0.0
C1000 C 0.90796 0.15542 0.22237 0.0
C1001 C 0.90936 0.1494 0.16998 0.0
C1002 C 0.89562 0.12642 0.25848 0.0
C1003 C 0.90376 0.13178 0.16326 0.0
C1004 C 0.87332 0.09769 0.29586 0.0
C1005 C 0.88484 0.10999 0.40245 0.0
N1006 N 0.89688 0.12078 0.20704 0.0
N1007 N 0.89323 0.11961 0.35732 0.0
H1008 H 0.906 0.39475 0.14903 0.0
H1009 H 0.86096 0.4328 0.95481 0.0
H1010 H 0.8629 0.4007 0.19856 0.0
H1011 H 0.91165 0.43969 0.92615 0.0
H1012 H 0.85653 0.41242 0.02955 0.0
H1013 H 0.9027 0.40211 0.05339 0.0
C1014 C 0.89552 0.3971 0.13946 0.0
C1015 C 0.88493 0.3975 0.18186 0.0
C1016 C 0.86849 0.41815 0.00621 0.0
C1017 C 0.88123 0.40606 0.07304 0.0
C1018 C 0.87103 0.42977 0.96354 0.0
C1019 C 0.88684 0.4382 0.93513 0.0
C1020 C 0.88185 0.41495 0.02041 0.0
C1021 C 0.89938 0.43368 0.94772 0.0
C1022 C 0.89372 0.4014 0.08496 0.0
C1023 C 0.87152 0.40054 0.16718 0.0
N1024 N 0.89671 0.42253 0.99003 0.0
N1025 N 0.87022 0.405 0.11409 0.0
H1026 H 0.59666 0.48247 0.17957 0.0
H1027 H 0.50193 0.42207 0.07532 0.0
H1028 H 0.55695 0.44288 0.28204 0.0
H1029 H 0.54425 0.44161 0.95851 0.0
H1030 H 0.52256 0.43155 0.15192 0.0
H1031 H 0.57886 0.46862 0.09686 0.0
C1032 C 0.58448 0.47059 0.18445 0.0
C1033 C 0.5781 0.46393 0.23763 0.0
C1034 C 0.52736 0.4337 0.10953 0.0
C1035 C 0.55768 0.44846 0.1442 0.0
C1036 C 0.5156 0.42847 0.06586 0.0
C1037 C 0.52144 0.43117 0.0107 0.0
C1038 C 0.54511 0.44196 0.09801 0.0
C1039 C 0.53928 0.43936 0.00066 0.0
C1040 C 0.57429 0.46278 0.1374 0.0
C1041 C 0.56221 0.44857 0.24182 0.0
N1042 N 0.55057 0.44466 0.04406 0.0
N1043 N 0.55239 0.44155 0.19584 0.0
H1044 H 0.54239 0.06689 0.97768 0.0
H1045 H 0.53492 0.12089 0.23138 0.0
H1046 H 0.58245 0.11902 0.01385 0.0
H1047 H 0.50988 0.06536 0.22356 0.0
H1048 H 0.54786 0.12245 0.139 0.0
H1049 H 0.52537 0.06849 0.05439 0.0
C1050 C 0.54751 0.07876 0.00131 0.0
C1051 C 0.56396 0.09274 0.99005 0.0
C1052 C 0.53935 0.10997 0.1575 0.0
C1053 C 0.54458 0.09464 0.078 0.0
C1054 C 0.53197 0.10909 0.20982 0.0
C1055 C 0.52157 0.09299 0.23499 0.0
C1056 C 0.53586 0.09462 0.13031 0.0
C1057 C 0.51807 0.07803 0.20577 0.0
C1058 C 0.53781 0.07966 0.04515 0.0
C1059 C 0.56989 0.10788 0.02169 0.0
N1060 N 0.52521 0.07921 0.15508 0.0
N1061 N 0.56026 0.10839 0.06479 0.0
H1062 H 0.80301 0.5976 0.8474 0.0
H1063 H 0.8044 0.55563 0.13971 0.0
H1064 H 0.75688 0.55751 0.92589 0.0
H1065 H 0.84749 0.60203 0.07323 0.0
H1066 H 0.78723 0.55422 0.05842 0.0
H1067 H 0.81995 0.59723 0.92602 0.0
C1068 C 0.79643 0.58862 0.88115 0.0
C1069 C 0.77849 0.5776 0.88028 0.0
C1070 C 0.80043 0.56469 0.06165 0.0
C1071 C 0.79787 0.57719 0.97077 0.0
C1072 C 0.81025 0.56551 0.10792 0.0
C1073 C 0.82738 0.579 0.11312 0.0
C1074 C 0.80786 0.5774 0.02019 0.0
C1075 C 0.83432 0.59144 0.07088 0.0
C1076 C 0.80613 0.58847 0.92615 0.0
C1077 C 0.77069 0.56623 0.92505 0.0
N1078 N 0.82454 0.59032 0.02613 0.0
N1079 N 0.78045 0.56634 0.96872 0.0
H1080 H 0.39299 0.18128 0.88595 0.0
H1081 H 0.44433 0.23494 0.15197 0.0
H1082 H 0.43803 0.18042 0.94596 0.0
H1083 H 0.39062 0.21814 0.12254 0.0
H1084 H 0.44382 0.21732 0.07293 0.0
H1085 H 0.39352 0.19726 0.96852 0.0
C1086 C 0.40304 0.18449 0.91661 0.0
C1087 C 0.41554 0.1796 0.90915 0.0
C1088 C 0.43216 0.21745 0.08406 0.0
C1089 C 0.41623 0.19796 0.00383 0.0
C1090 C 0.43244 0.22754 0.12884 0.0
C1091 C 0.4175 0.22803 0.14344 0.0
C1092 C 0.41689 0.20804 0.05341 0.0
C1093 C 0.40242 0.21815 0.11252 0.0
C1094 C 0.40326 0.19354 0.96388 0.0
C1095 C 0.42817 0.18398 0.95034 0.0
N1096 N 0.40254 0.20865 0.06865 0.0
N1097 N 0.42829 0.19308 0.99598 0.0
H1098 H 0.7833 0.25046 0.91046 0.0
H1099 H 0.79992 0.222 0.19809 0.0
H1100 H 0.83444 0.27488 0.98114 0.0
H1101 H 0.75103 0.21815 0.15904 0.0
H1102 H 0.81324 0.24267 0.12166 0.0
H1103 H 0.77118 0.24003 0.00307 0.0
C1104 C 0.79193 0.254 0.94585 0.0
C1105 C 0.80985 0.26343 0.93837 0.0
C1106 C 0.79967 0.23757 0.13059 0.0
C1107 C 0.79618 0.25111 0.04383 0.0
C1108 C 0.79206 0.22573 0.17399 0.0
C1109 C 0.77432 0.21821 0.18431 0.0
C1110 C 0.78936 0.24159 0.09671 0.0
C1111 C 0.76474 0.22355 0.15215 0.0
C1112 C 0.78504 0.24804 -0.00135 0.0
C1113 C 0.82053 0.26765 0.98537 0.0
N1114 N 0.77231 0.23466 0.10905 0.0
N1115 N 0.81354 0.26109 0.03607 0.0
H1116 H 0.44163 0.25828 0.46208 0.0
H1117 H 0.4108 0.16384 0.56968 0.0
H1118 H 0.43038 0.21544 0.35358 0.0
H1119 H 0.43807 0.20813 0.67708 0.0
H1120 H 0.41828 0.18314 0.48985 0.0
H1121 H 0.44188 0.24115 0.54172 0.0
C1122 C 0.43967 0.24547 0.4549 0.0
C1123 C 0.4357 0.23812 0.40154 0.0
C1124 C 0.42278 0.18867 0.53078 0.0
C1125 C 0.43562 0.21849 0.49174 0.0
C1126 C 0.41838 0.17765 0.57635 0.0
C1127 C 0.42372 0.18445 0.62987 0.0
C1128 C 0.43234 0.20663 0.53892 0.0
C1129 C 0.43366 0.20243 0.6363 0.0
C1130 C 0.43972 0.23568 0.50026 0.0
C1131 C 0.43321 0.22147 0.39428 0.0
N1132 N 0.43751 0.21296 0.59132 0.0
N1133 N 0.43294 0.21212 0.43899 0.0
H1134 H 0.79095 0.21016 0.70124 0.0
H1135 H 0.74664 0.21525 0.42294 0.0
H1136 H 0.78751 0.25482 0.65307 0.0
H1137 H 0.74242 0.16802 0.48493 0.0
H1138 H 0.75755 0.22864 0.51365 0.0
H1139 H 0.76986 0.19334 0.62916 0.0
C1140 C 0.7856 0.21637 0.6759 0.0
C1141 C 0.79117 0.23396 0.68251 0.0
C1142 C 0.7539 0.21523 0.5079 0.0
C1143 C 0.76712 0.21486 0.59979 0.0
C1144 C 0.74759 0.20756 0.45614 0.0
C1145 C 0.74389 0.1906 0.44621 0.0
C1146 C 0.75679 0.20595 0.54964 0.0
C1147 C 0.74527 0.18119 0.49071 0.0
C1148 C 0.77351 0.20675 0.63487 0.0
C1149 C 0.78371 0.24133 0.64895 0.0
N1150 N 0.75197 0.18911 0.54019 0.0
N1151 N 0.77225 0.2318 0.6085 0.0
H1152 H 0.78338 0.60638 0.57978 0.0
H1153 H 0.8237 0.55553 0.42534 0.0
H1154 H 0.77387 0.55634 0.63374 0.0
H1155 H 0.82113 0.59836 0.35286 0.0
H1156 H 0.80686 0.55621 0.5051 0.0
H1157 H 0.79905 0.60452 0.49914 0.0
C1158 C 0.7846 0.59501 0.57459 0.0
C1159 C 0.77734 0.5815 0.61331 0.0
C1160 C 0.80993 0.56538 0.47149 0.0
C1161 C 0.79525 0.57927 0.52147 0.0
C1162 C 0.81952 0.56498 0.4261 0.0
C1163 C 0.82381 0.5769 0.3826 0.0
C1164 C 0.80481 0.57789 0.47336 0.0
C1165 C 0.81811 0.58892 0.38553 0.0
C1166 C 0.79349 0.59391 0.52853 0.0
C1167 C 0.77926 0.56703 0.60468 0.0
N1168 N 0.80899 0.58916 0.43027 0.0
N1169 N 0.78811 0.56631 0.55972 0.0
H1170 H 0.60012 0.08911 0.68609 0.0
H1171 H 0.54507 0.12148 0.51595 0.0
H1172 H 0.58128 0.12061 0.75921 0.0
H1173 H 0.54048 0.07159 0.49069 0.0
H1174 H 0.56645 0.12756 0.58922 0.0
H1175 H 0.58666 0.08946 0.59749 0.0
C1176 C 0.59364 0.09656 0.68298 0.0
C1177 C 0.59166 0.10475 0.72995 0.0
C1178 C 0.56092 0.1154 0.56697 0.0
C1179 C 0.57635 0.10517 0.62933 0.0
C1180 C 0.54877 0.11193 0.52522 0.0
C1181 C 0.5409 0.09593 0.49781 0.0
C1182 C 0.56543 0.10293 0.58048 0.0
C1183 C 0.54614 0.084 0.51136 0.0
C1184 C 0.58585 0.09661 0.63268 0.0
C1185 C 0.58298 0.11406 0.72393 0.0
N1186 N 0.55808 0.08772 0.55197 0.0
N1187 N 0.57551 0.11393 0.67453 0.0
H1188 H 0.90975 0.45987 0.42266 0.0
H1189 H 0.85784 0.44243 0.69778 0.0
H1190 H 0.86187 0.41264 0.45264 0.0
H1191 H 0.89625 0.49369 0.64632 0.0
H1192 H 0.85565 0.43256 0.60179 0.0
H1193 H 0.90231 0.47389 0.49626 0.0
C1194 C 0.89751 0.45255 0.44404 0.0
C1195 C 0.88657 0.43499 0.43245 0.0
C1196 C 0.86424 0.44608 0.61103 0.0
C1197 C 0.87807 0.45083 0.51711 0.0
C1198 C 0.86545 0.45171 0.66586 0.0
C1199 C 0.87747 0.4688 0.67997 0.0
C1200 C 0.87545 0.45754 0.57049 0.0
C1201 C 0.88693 0.48035 0.63714 0.0
C1202 C 0.89323 0.46057 0.48596 0.0
C1203 C 0.87079 0.42615 0.46087 0.0
N1204 N 0.88607 0.4744 0.58445 0.0
N1205 N 0.86717 0.43407 0.50274 0.0
H1206 H 0.57099 0.45003 0.50842 0.0
H1207 H 0.50251 0.44563 0.72702 0.0
H1208 H 0.54615 0.48068 0.49656 0.0
H1209 H 0.5155 0.40534 0.71528 0.0
H1210 H 0.51836 0.45827 0.64144 0.0
H1211 H 0.55097 0.43318 0.58335 0.0
C1212 C 0.56128 0.45316 0.52145 0.0
C1213 C 0.5603 0.46687 0.49678 0.0
C1214 C 0.51765 0.44657 0.65703 0.0
C1215 C 0.53748 0.44772 0.58199 0.0
C1216 C 0.50863 0.43937 0.70598 0.0
C1217 C 0.50786 0.42453 0.72823 0.0
C1218 C 0.52626 0.43906 0.6305 0.0
C1219 C 0.51585 0.41682 0.69922 0.0
C1220 C 0.54983 0.44349 0.56393 0.0
C1221 C 0.54743 0.47031 0.51478 0.0
N1222 N 0.52498 0.42434 0.65201 0.0
N1223 N 0.53662 0.46089 0.55661 0.0
H1224 H 0.55928 0.79135 0.34165 0.0
H1225 H 0.59374 0.78966 0.6451 0.0
H1226 H 0.60818 0.83093 0.40681 0.0
H1227 H 0.5576 0.74235 0.56208 0.0
H1228 H 0.59571 0.80569 0.56124 0.0
H1229 H 0.55575 0.77357 0.42403 0.0
C1230 C 0.56932 0.79622 0.37303 0.0
C1231 C 0.58403 0.81265 0.36765 0.0
C1232 C 0.58731 0.79181 0.56125 0.0
C1233 C 0.57991 0.79262 0.46173 0.0
C1234 C 0.58606 0.78263 0.60929 0.0
C1235 C 0.57557 0.76461 0.61042 0.0
C1236 C 0.5779 0.78299 0.51382 0.0
C1237 C 0.56586 0.75624 0.56281 0.0
C1238 C 0.56728 0.78609 0.41987 0.0
C1239 C 0.59665 0.81836 0.40931 0.0
N1240 N 0.56728 0.76553 0.5161 0.0
N1241 N 0.59422 0.80842 0.45484 0.0
H1242 H 0.24811 0.80557 0.57348 0.0
H1243 H 0.1549 0.7609 0.43229 0.0
H1244 H 0.20188 0.79726 0.65735 0.0
H1245 H 0.1976 0.75778 0.36146 0.0
H1246 H 0.17246 0.77501 0.51438 0.0
H1247 H 0.23031 0.78839 0.4946 0.0
C1248 C 0.23423 0.79997 0.57554 0.0
C1249 C 0.22646 0.80291 0.62174 0.0
C1250 C 0.17798 0.77116 0.48103 0.0
C1251 C 0.20615 0.78355 0.53199 0.0
C1252 C 0.16797 0.76317 0.43412 0.0
C1253 C 0.17484 0.75823 0.39012 0.0
C1254 C 0.19504 0.77439 0.4837 0.0
C1255 C 0.19184 0.76142 0.39461 0.0
C1256 C 0.2241 0.79022 0.53059 0.0
C1257 C 0.20843 0.79541 0.62239 0.0
N1258 N 0.20142 0.76941 0.44049 0.0
N1259 N 0.19892 0.78621 0.57802 0.0
H1260 H 0.20945 0.46348 0.56297 0.0
H1261 H 0.19255 0.4053 0.3057 0.0
H1262 H 0.15785 0.43405 0.49697 0.0
H1263 H 0.23865 0.45535 0.31375 0.0
H1264 H 0.17944 0.41465 0.37765 0.0
H1265 H 0.22089 0.46058 0.47335 0.0
C1266 C 0.20059 0.45683 0.52902 0.0
C1267 C 0.18273 0.44903 0.53703 0.0
C1268 C 0.19232 0.42365 0.36282 0.0
C1269 C 0.1956 0.44507 0.43582 0.0
C1270 C 0.19981 0.41829 0.32215 0.0
C1271 C 0.21671 0.42954 0.30418 0.0
C1272 C 0.20201 0.44015 0.38646 0.0
C1273 C 0.22558 0.44627 0.3266 0.0
C1274 C 0.20709 0.45513 0.47808 0.0
C1275 C 0.17173 0.44037 0.49211 0.0
N1276 N 0.21825 0.45097 0.3674 0.0
N1277 N 0.17832 0.43823 0.4437 0.0
H1278 H 0.45665 0.92361 0.5674 0.0
H1279 H 0.39767 0.8725 0.30605 0.0
H1280 H 0.4423 0.87093 0.52943 0.0
H1281 H 0.42963 0.92782 0.31814 0.0
H1282 H 0.40634 0.86992 0.40164 0.0
H1283 H 0.43848 0.92312 0.49073 0.0
C1284 C 0.44942 0.91183 0.54358 0.0
C1285 C 0.45123 0.8974 0.55397 0.0
C1286 C 0.41117 0.88259 0.38345 0.0
C1287 C 0.43055 0.8968 0.46615 0.0
C1288 C 0.40622 0.88405 0.32928 0.0
C1289 C 0.41321 0.90036 0.30442 0.0
C1290 C 0.42282 0.89759 0.41266 0.0
C1291 C 0.42422 0.91499 0.33577 0.0
C1292 C 0.4391 0.91157 0.49978 0.0
C1293 C 0.44143 0.88241 0.52217 0.0
N1294 N 0.42874 0.91326 0.38817 0.0
N1295 N 0.43167 0.88256 0.47902 0.0
H1296 H 0.12946 0.57975 0.52418 0.0
H1297 H 0.09547 0.49483 0.34014 0.0
H1298 H 0.08176 0.53225 0.5536 0.0
H1299 H 0.13205 0.54622 0.28393 0.0
H1300 H 0.09739 0.50616 0.43439 0.0
H1301 H 0.13695 0.56518 0.45245 0.0
C1302 C 0.12071 0.56617 0.51623 0.0
C1303 C 0.1048 0.55726 0.54389 0.0
C1304 C 0.10533 0.51485 0.40168 0.0
C1305 C 0.11331 0.54057 0.46235 0.0
C1306 C 0.10435 0.50839 0.34804 0.0
C1307 C 0.11336 0.51971 0.30421 0.0
C1308 C 0.11549 0.53268 0.4112 0.0
C1309 C 0.12467 0.53714 0.31656 0.0
C1310 C 0.125 0.55788 0.47537 0.0
C1311 C 0.09402 0.53966 0.53244 0.0
N1312 N 0.12522 0.54316 0.36884 0.0
N1313 N 0.09837 0.53192 0.49195 0.0
H1314 H 0.4208 0.54063 0.49669 0.0
H1315 H 0.46955 0.53151 0.23178 0.0
H1316 H 0.42538 0.49573 0.46213 0.0
H1317 H 0.47315 0.57978 0.27895 0.0
H1318 H 0.4524 0.51806 0.31458 0.0
H1319 H 0.43898 0.55504 0.41569 0.0
C1320 C 0.42564 0.53381 0.47201 0.0
C1321 C 0.42158 0.51696 0.48592 0.0
C1322 C 0.45696 0.5316 0.30708 0.0
C1323 C 0.4423 0.53332 0.39351 0.0
C1324 C 0.46673 0.5393 0.2597 0.0
C1325 C 0.47274 0.55678 0.24851 0.0
C1326 C 0.45302 0.5414 0.34354 0.0
C1327 C 0.46875 0.56626 0.28618 0.0
C1328 C 0.43604 0.54206 0.42595 0.0
C1329 C 0.4282 0.50873 0.45278 0.0
N1330 N 0.45904 0.55841 0.33209 0.0
N1331 N 0.43819 0.51698 0.40799 0.0
H1332 H 0.08608 0.59361 0.83667 0.0
H1333 H 0.13 0.55277 0.02502 0.0
H1334 H 0.12789 0.58615 0.78262 0.0
H1335 H 0.07876 0.54465 0.05189 0.0
H1336 H 0.13438 0.57349 0.95135 0.0
H1337 H 0.08884 0.58462 0.93075 0.0
C1338 C 0.0962 0.59062 0.84504 0.0
C1339 C 0.10659 0.59031 0.80182 0.0
C1340 C 0.1223 0.56738 0.97406 0.0
C1341 C 0.10969 0.57995 0.90863 0.0
C1342 C 0.11979 0.55557 0.01606 0.0
C1343 C 0.10388 0.54678 0.04376 0.0
C1344 C 0.10884 0.57045 0.95999 0.0
C1345 C 0.09113 0.55097 0.03085 0.0
C1346 C 0.09767 0.58537 0.89855 0.0
C1347 C 0.11947 0.58631 0.81475 0.0
N1348 N 0.09381 0.56239 0.9894 0.0
N1349 N 0.1205 0.58103 0.8669 0.0
H1350 H 0.44095 0.54925 0.04138 0.0
H1351 H 0.42397 0.54589 0.7177 0.0
H1352 H 0.47976 0.55844 0.91826 0.0
H1353 H 0.38718 0.50391 0.82043 0.0
H1354 H 0.44227 0.55866 0.79927 0.0
H1355 H 0.41908 0.5392 0.96687 0.0
C1356 C 0.44481 0.54909 -0.0013 0.0
C1357 C 0.46207 0.5545 0.98561 0.0
C1358 C 0.42999 0.54685 0.804 0.0
C1359 C 0.43753 0.54385 0.9012 0.0
C1360 C 0.41945 0.53962 0.75773 0.0
C1361 C 0.40418 0.52363 0.76217 0.0
C1362 C 0.42506 0.53822 0.85515 0.0
C1363 C 0.39894 0.51618 0.81521 0.0
C1364 C 0.4324 0.54344 0.95656 0.0
C1365 C 0.46653 0.55417 0.92994 0.0
N1366 N 0.40952 0.52345 0.85987 0.0
N1367 N 0.45434 0.54911 0.88955 0.0
H1368 H 0.44432 0.8671 0.78181 0.0
H1369 H 0.45958 0.91991 0.04919 0.0
H1370 H 0.49597 0.89832 0.84567 0.0
H1371 H 0.41419 0.86957 0.03337 0.0
H1372 H 0.47362 0.91207 0.97635 0.0
H1373 H 0.43288 0.86673 0.87476 0.0
C1374 C 0.45324 0.87345 0.81587 0.0
C1375 C 0.47106 0.88282 0.8063 0.0
C1376 C 0.46072 0.90262 0.98976 0.0
C1377 C 0.45815 0.88298 0.9117 0.0
C1378 C 0.4527 0.90712 0.03101 0.0
C1379 C 0.43567 0.89544 0.0467 0.0
C1380 C 0.45145 0.88652 0.96323 0.0
C1381 C 0.42732 0.87899 0.02215 0.0
C1382 C 0.44673 0.87325 0.8688 0.0
C1383 C 0.48212 0.89091 0.85156 0.0
N1384 N 0.43516 0.87514 0.98067 0.0
N1385 N 0.47547 0.89122 0.90216 0.0
H1386 H 0.20718 0.45991 0.82365 0.0
H1387 H 0.21474 0.39605 0.03324 0.0
H1388 H 0.18518 0.40536 0.79275 0.0
H1389 H 0.24979 0.45098 0.04116 0.0
H1390 H 0.20463 0.39965 0.94295 0.0
H1391 H 0.22395 0.45766 0.90075 0.0
C1392 C 0.20606 0.44752 0.83263 0.0
C1393 C 0.19461 0.43273 0.80237 0.0
C1394 C 0.21467 0.41095 0.96389 0.0
C1395 C 0.21358 0.43008 0.8903 0.0
C1396 C 0.22038 0.4089 0.01558 0.0
C1397 C 0.23296 0.42327 0.04469 0.0
C1398 C 0.2213 0.42757 0.94149 0.0
C1399 C 0.24002 0.4396 0.01982 0.0
C1400 C 0.21565 0.44626 0.87648 0.0
C1401 C 0.19371 0.41704 0.81541 0.0
N1402 N 0.23387 0.44137 0.96982 0.0
N1403 N 0.20289 0.41609 0.85882 0.0
H1404 H 0.60978 0.77818 0.8982 0.0
H1405 H 0.55652 0.81008 0.08378 0.0
H1406 H 0.55579 0.76059 0.87116 0.0
H1407 H 0.60897 0.82259 0.11649 0.0
H1408 H 0.55595 0.79288 0.00302 0.0
H1409 H 0.60977 0.79564 0.97616 0.0
C1410 C 0.59791 0.77799 0.90878 0.0
C1411 C 0.58276 0.76791 0.87839 0.0
C1412 C 0.56756 0.79942 0.028 0.0
C1413 C 0.58261 0.78788 0.96752 0.0
C1414 C 0.56788 0.80923 0.07391 0.0
C1415 C 0.58278 0.8177 0.10686 0.0
C1416 C 0.58227 0.79822 0.01516 0.0
C1417 C 0.59717 0.81622 0.09238 0.0
C1418 C 0.59789 0.78795 0.9533 0.0
C1419 C 0.56774 0.76816 0.89373 0.0
N1420 N 0.59654 0.80668 0.0477 0.0
N1421 N 0.56803 0.77801 0.93732 0.0
H1422 H 0.22372 0.83123 0.92167 0.0
H1423 H 0.17784 0.73962 0.07411 0.0
H1424 H 0.23006 0.78873 0.86726 0.0
H1425 H 0.18532 0.78656 0.15063 0.0
H1426 H 0.19539 0.75667 0.99466 0.0
H1427 H 0.2077 0.81425 0.00292 0.0
C1428 C 0.22175 0.81833 0.92691 0.0
C1429 C 0.22821 0.81136 0.88787 0.0
C1430 C 0.19326 0.76321 0.02911 0.0
C1431 C 0.20986 0.79185 0.98026 0.0
C1432 C 0.18326 0.75349 0.07433 0.0
C1433 C 0.18013 0.7617 0.11887 0.0
C1434 C 0.19993 0.78116 0.02838 0.0
C1435 C 0.18742 0.7797 0.11714 0.0
C1436 C 0.21266 0.80866 0.9733 0.0
C1437 C 0.22531 0.79459 0.89657 0.0
N1438 N 0.19687 0.7888 0.07248 0.0
N1439 N 0.21626 0.78535 0.94174 0.0
H1440 H 0.35023 0.13017 0.74911 0.0
H1441 H 0.28473 0.06408 0.97477 0.0
H1442 H 0.36488 0.10354 0.86781 0.0
H1443 H 0.2777 0.10311 0.89311 0.0
H1444 H 0.31218 0.07471 0.9252 0.0
H1445 H 0.32128 0.11609 0.7895 0.0
C1446 C 0.34727 0.12114 0.78308 0.0
C1447 C 0.35998 0.11809 0.80542 0.0
C1448 C 0.3046 0.0809 0.91814 0.0
C1449 C 0.32696 0.10207 0.85203 0.0
C1450 C 0.28897 0.07486 0.94637 0.0
C1451 C 0.27904 0.08283 0.93826 0.0
C1452 C 0.31017 0.09483 0.88106 0.0
C1453 C 0.28505 0.0967 0.9009 0.0
C1454 C 0.33079 0.11321 0.80636 0.0
C1455 C 0.35545 0.1063 0.84954 0.0
N1456 N 0.30022 0.10225 0.87359 0.0
N1457 N 0.33931 0.09877 0.87164 0.0
H1458 H 0.903 0.21783 0.05016 0.0
H1459 H 0.86445 0.23358 0.77403 0.0
H1460 H 0.91985 0.21178 0.88752 0.0
H1461 H 0.86859 0.2609 0.92665 0.0
H1462 H 0.88243 0.22291 0.81565 0.0
H1463 H 0.88802 0.23144 0.00667 0.0
C1464 C 0.90366 0.21952 0.00536 0.0
C1465 C 0.91267 0.21373 0.97232 0.0
C1466 C 0.87948 0.23135 0.83975 0.0
C1467 C 0.89533 0.22889 0.92238 0.0
C1468 C 0.86918 0.23735 0.81618 0.0
C1469 C 0.86505 0.2481 0.84703 0.0
C1470 C 0.88534 0.23587 0.89482 0.0
C1471 C 0.87152 0.25266 0.90142 0.0
C1472 C 0.89514 0.22728 0.98061 0.0
C1473 C 0.91312 0.21618 0.91445 0.0
N1474 N 0.8812 0.24638 0.92382 0.0
N1475 N 0.90436 0.22339 0.89116 0.0
H1476 H 0.76571 0.64424 0.75475 0.0
H1477 H 0.78354 0.68825 0.05062 0.0
H1478 H 0.74477 0.61508 0.90611 0.0
H1479 H 0.79043 0.7164 0.89776 0.0
H1480 H 0.76759 0.66118 -0.00098 0.0
H1481 H 0.77328 0.67074 0.80584 0.0
C1482 C 0.7625 0.64341 0.7986 0.0
C1483 C 0.75478 0.62751 0.82645 0.0
C1484 C 0.77234 0.67327 0.97691 0.0
C1485 C 0.76358 0.65773 0.88527 0.0
C1486 C 0.78145 0.68872 0.00634 0.0
C1487 C 0.78846 0.70455 0.97824 0.0
C1488 C 0.7705 0.67371 0.91888 0.0
C1489 C 0.78532 0.70445 0.92094 0.0
C1490 C 0.76678 0.65852 0.82772 0.0
C1491 C 0.75081 0.62712 0.88317 0.0
N1492 N 0.77681 0.68925 0.89294 0.0
N1493 N 0.75551 0.64205 0.91097 0.0
H1494 H 0.12319 0.39422 0.5484 0.0
H1495 H 0.0811 0.29217 0.58186 0.0
H1496 H 0.1245 0.37016 0.70282 0.0
H1497 H 0.10062 0.319 0.42594 0.0
H1498 H 0.09033 0.31994 0.62784 0.0
H1499 H 0.10805 0.36575 0.50447 0.0
C1500 C 0.12005 0.38291 0.57329 0.0
C1501 C 0.1252 0.38451 0.62919 0.0
C1502 C 0.09242 0.31968 0.58347 0.0
C1503 C 0.1079 0.35202 0.57926 0.0
C1504 C 0.0871 0.30388 0.55721 0.0
C1505 C 0.09024 0.30337 0.50016 0.0
C1506 C 0.10065 0.33496 0.55219 0.0
C1507 C 0.09811 0.31888 0.47011 0.0
C1508 C 0.1115 0.36671 0.54811 0.0
C1509 C 0.12084 0.36947 0.65948 0.0
N1510 N 0.10307 0.33408 0.49652 0.0
N1511 N 0.11247 0.3538 0.63404 0.0
H1512 H 0.71474 0.7857 0.57666 0.0
H1513 H 0.61173 0.73194 0.58504 0.0
H1514 H 0.68229 0.77729 0.43347 0.0
H1515 H 0.64364 0.75612 0.7292 0.0
H1516 H 0.63778 0.74118 0.5292 0.0
H1517 H 0.68896 0.76752 0.63223 0.0
C1518 C 0.70222 0.77974 0.55664 0.0
C1519 C 0.70058 0.78317 0.50062 0.0
C1520 C 0.63905 0.74422 0.57325 0.0
C1521 C 0.67116 0.76244 0.5638 0.0
C1522 C 0.62421 0.7389 0.60518 0.0
C1523 C 0.62558 0.7435 0.66162 0.0
C1524 C 0.65532 0.75406 0.59809 0.0
C1525 C 0.64205 0.75249 0.68564 0.0
C1526 C 0.68753 0.76944 0.58843 0.0
C1527 C 0.68407 0.77512 0.47673 0.0
N1528 N 0.65632 0.75763 0.6536 0.0
N1529 N 0.66996 0.76523 0.50861 0.0
H1530 H 0.20814 0.89848 0.44656 0.0
H1531 H 0.2409 0.88514 0.73555 0.0
H1532 H 0.21636 0.93201 0.58657 0.0
H1533 H 0.25369 0.86901 0.58203 0.0
H1534 H 0.23184 0.9025 0.68176 0.0
H1535 H 0.22501 0.88759 0.4942 0.0
C1536 C 0.21375 0.90376 0.48686 0.0
C1537 C 0.21076 0.91605 0.51289 0.0
C1538 C 0.23689 0.89537 0.6599 0.0
C1539 C 0.22969 0.90346 0.56791 0.0
C1540 C 0.24199 0.88544 0.69056 0.0
C1541 C 0.24794 0.87559 0.66311 0.0
C1542 C 0.23738 0.89512 0.60141 0.0
C1543 C 0.24916 0.87644 0.60476 0.0
C1544 C 0.22337 0.89756 0.514 0.0
C1545 C 0.21832 0.92249 0.5651 0.0
N1546 N 0.24364 0.88581 0.57572 0.0
N1547 N 0.22719 0.91589 0.59136 0.0
H1548 H 0.68066 0.91738 0.93772 0.0
H1549 H 0.64663 0.89534 0.2424 0.0
H1550 H 0.71433 0.94021 0.07913 0.0
H1551 H 0.61328 0.89037 0.10523 0.0
H1552 H 0.67167 0.91418 0.18505 0.0
H1553 H 0.6558 0.90968 -0.00202 0.0
C1554 C 0.68282 0.92107 0.98124 0.0
C1555 C 0.69951 0.92922 0.0037 0.0
C1556 C 0.65886 0.90929 0.16788 0.0
C1557 C 0.67121 0.92019 0.07301 0.0
C1558 C 0.64458 0.89853 0.20061 0.0
C1559 C 0.62791 0.89111 0.1782 0.0
C1560 C 0.65642 0.91231 0.11205 0.0
C1561 C 0.62594 0.89572 0.12395 0.0
C1562 C 0.66865 0.91671 0.01563 0.0
C1563 C 0.70164 0.93381 0.06026 0.0
N1564 N 0.64006 0.90573 0.09224 0.0
N1565 N 0.68761 0.92889 0.0933 0.0
H1566 H 0.11532 0.74123 0.09451 0.0
H1567 H 0.06811 0.79657 0.12336 0.0
H1568 H 0.10627 0.7579 0.25341 0.0
H1569 H 0.09833 0.79918 0.97968 0.0
H1570 H 0.07579 0.77662 0.16764 0.0
H1571 H 0.10238 0.75639 0.04797 0.0
C1572 C 0.11029 0.74778 0.11965 0.0
C1573 C 0.11195 0.74843 0.17786 0.0
C1574 C 0.08062 0.78149 0.12629 0.0
C1575 C 0.09722 0.76574 0.12496 0.0
C1576 C 0.07624 0.79282 0.10098 0.0
C1577 C 0.08272 0.79959 0.04801 0.0
C1578 C 0.0913 0.7767 0.09794 0.0
C1579 C 0.0932 0.79435 0.02079 0.0
C1580 C 0.10305 0.75652 0.09305 0.0
C1581 C 0.10531 0.75718 0.20841 0.0
N1582 N 0.09716 0.78317 0.04606 0.0
N1583 N 0.09827 0.76557 0.18156 0.0
H1584 H 0.2212 0.35157 0.21573 0.0
H1585 H 0.22337 0.30604 0.93855 0.0
H1586 H 0.25777 0.37943 0.08486 0.0
H1587 H 0.2061 0.27803 0.09347 0.0
H1588 H 0.23611 0.33319 0.99076 0.0
H1589 H 0.21515 0.32436 0.17188 0.0
C1590 C 0.2281 0.35194 0.17818 0.0
C1591 C 0.23991 0.36773 0.15366 0.0
C1592 C 0.2298 0.32109 0.01337 0.0
C1593 C 0.2329 0.33678 0.10299 0.0
C1594 C 0.22254 0.30562 0.98361 0.0
C1595 C 0.21363 0.28982 0.01177 0.0
C1596 C 0.22776 0.32071 0.07149 0.0
C1597 C 0.21288 0.28997 0.07018 0.0
C1598 C 0.22469 0.33644 0.15329 0.0
C1599 C 0.24853 0.36752 0.10507 0.0
N1600 N 0.21958 0.30519 0.09811 0.0
N1601 N 0.24466 0.35228 0.0808 0.0
H1602 H 0.89985 0.64289 0.25276 0.0
H1603 H 0.91533 0.68568 0.54979 0.0
H1604 H 0.89267 0.61423 0.4046 0.0
H1605 H 0.93771 0.71555 0.40059 0.0
H1606 H 0.90831 0.65943 0.49797 0.0
H1607 H 0.91535 0.66979 0.30558 0.0
C1608 C 0.90182 0.64228 0.29704 0.0
C1609 C 0.89484 0.62634 0.32447 0.0
C1610 C 0.915 0.67175 0.47676 0.0
C1611 C 0.91224 0.65699 0.38528 0.0
C1612 C 0.91898 0.68673 0.5063 0.0
C1613 C 0.92696 0.70276 0.47926 0.0
C1614 C 0.91877 0.67281 0.41956 0.0
C1615 C 0.93148 0.70342 0.42295 0.0
C1616 C 0.91066 0.65762 0.32719 0.0
C1617 C 0.89779 0.62626 0.38187 0.0
N1618 N 0.92707 0.68861 0.3947 0.0
N1619 N 0.90601 0.64135 0.41057 0.0
H1620 H 0.28318 0.2069 0.43667 0.0
H1621 H 0.3855 0.24836 0.44631 0.0
H1622 H 0.30857 0.19249 0.56078 0.0
H1623 H 0.35674 0.23915 0.29364 0.0
H1624 H 0.35826 0.23519 0.4987 0.0
H1625 H 0.31125 0.22633 0.39458 0.0
C1626 C 0.29469 0.20807 0.45571 0.0
C1627 C 0.29357 0.19796 0.50196 0.0
C1628 C 0.358 0.23629 0.45381 0.0
C1629 C 0.32562 0.22018 0.45416 0.0
C1630 C 0.37348 0.24386 0.42398 0.0
C1631 C 0.37328 0.24471 0.36562 0.0
C1632 C 0.34233 0.2299 0.42503 0.0
C1633 C 0.35739 0.23861 0.33859 0.0
C1634 C 0.31066 0.21908 0.43148 0.0
C1635 C 0.30889 0.19996 0.52486 0.0
N1636 N 0.34252 0.23144 0.36854 0.0
N1637 N 0.32434 0.21082 0.50054 0.0
H1638 H 0.79314 0.08206 0.40302 0.0
H1639 H 0.79653 0.17268 0.36717 0.0
H1640 H 0.82624 0.12744 0.49985 0.0
H1641 H 0.75533 0.12482 0.30136 0.0
H1642 H 0.80973 0.15687 0.40704 0.0
H1643 H 0.7809 0.09803 0.35744 0.0
C1644 C 0.79779 0.09536 0.41475 0.0
C1645 C 0.81067 0.10343 0.45538 0.0
C1646 C 0.79784 0.14984 0.38367 0.0
C1647 C 0.7969 0.12179 0.40311 0.0
C1648 C 0.79036 0.15887 0.36063 0.0
C1649 C 0.7748 0.15002 0.33109 0.0
C1650 C 0.78975 0.13186 0.3768 0.0
C1651 C 0.76732 0.13212 0.32401 0.0
C1652 C 0.79082 0.10446 0.38873 0.0
C1653 C 0.81628 0.1207 0.46891 0.0
N1654 N 0.77485 0.12361 0.34681 0.0
N1655 N 0.80939 0.12932 0.44272 0.0
H1656 H 0.95633 0.45849 0.2819 0.0
H1657 H 0.04125 0.45345 0.21211 0.0
H1658 H 0.96133 0.41389 0.31718 0.0
H1659 H 0.03779 0.4996 0.19285 0.0
H1660 H 0.01177 0.43846 0.24875 0.0
H1661 H 0.98607 0.47364 0.24806 0.0
C1662 C 0.96374 0.45192 0.28281 0.0
C1663 C 0.95637 0.43491 0.30234 0.0
C1664 C 0.01746 0.45187 0.23652 0.0
C1665 C 0.99037 0.45211 0.26327 0.0
C1666 C 0.03426 0.46041 0.21545 0.0
C1667 C 0.04195 0.47778 0.19939 0.0
C1668 C 0.00827 0.46076 0.24136 0.0
C1669 C 0.03234 0.48619 0.20474 0.0
C1670 C 0.98071 0.46057 0.26341 0.0
C1671 C 0.96653 0.42701 0.30252 0.0
N1672 N 0.01601 0.4776 0.22521 0.0
N1673 N 0.983 0.43565 0.28305 0.0
H1674 H 0.5439 0.58323 0.23495 0.0
H1675 H 0.58892 0.52566 0.21074 0.0
H1676 H 0.53749 0.55121 0.09222 0.0
H1677 H 0.57527 0.53929 0.3675 0.0
H1678 H 0.5767 0.54116 0.16175 0.0
H1679 H 0.56214 0.57334 0.27849 0.0
C1680 C 0.54655 0.57432 0.2124 0.0
C1681 C 0.53906 0.56789 0.16012 0.0
C1682 C 0.57658 0.5409 0.20687 0.0
C1683 C 0.55993 0.55663 0.20959 0.0
C1684 C 0.58361 0.53216 0.23483 0.0
C1685 C 0.58296 0.53112 0.29319 0.0
C1686 C 0.56913 0.54885 0.23761 0.0
C1687 C 0.57589 0.53969 0.32243 0.0
C1688 C 0.55689 0.56864 0.23739 0.0
C1689 C 0.54291 0.55636 0.13278 0.0
N1690 N 0.5692 0.54818 0.29431 0.0
N1691 N 0.55306 0.55103 0.15795 0.0
H1692 H 0.43167 0.97318 0.12049 0.0
H1693 H 0.45654 0.02188 0.40371 0.0
H1694 H 0.40251 0.94845 0.26893 0.0
H1695 H 0.45973 0.04919 0.25198 0.0
H1696 H 0.43787 0.99451 0.35571 0.0
H1697 H 0.44338 0.00126 0.16704 0.0
C1698 C 0.42751 0.97371 0.16248 0.0
C1699 C 0.41616 0.95854 0.19101 0.0
C1700 C 0.44244 0.00653 0.3333 0.0
C1701 C 0.42978 0.99037 0.2447 0.0
C1702 C 0.4531 0.0221 0.36056 0.0
C1703 C 0.45966 0.03774 0.33165 0.0
C1704 C 0.43878 0.00666 0.27646 0.0
C1705 C 0.45487 0.03737 0.27575 0.0
C1706 C 0.43416 0.98969 0.18894 0.0
C1707 C 0.4112 0.95989 0.24544 0.0
N1708 N 0.44497 0.02204 0.24958 0.0
N1709 N 0.41832 0.97551 0.27101 0.0
H1710 H 0.58395 0.04412 0.73838 0.0
H1711 H 0.52935 0.94275 0.79073 0.0
H1712 H 0.5654 0.02252 0.9016 0.0
H1713 H 0.52655 0.96607 0.63663 0.0
H1714 H 0.54766 0.97159 0.82999 0.0
H1715 H 0.56807 0.01506 0.69851 0.0
C1716 C 0.5767 0.03323 0.76591 0.0
C1717 C 0.57593 0.03568 0.82336 0.0
C1718 C 0.54308 0.97036 0.78754 0.0
C1719 C 0.55788 0.00253 0.77807 0.0
C1720 C 0.53272 0.95395 0.76502 0.0
C1721 C 0.52641 0.95208 0.71042 0.0
C1722 C 0.54742 0.98497 0.75484 0.0
C1723 C 0.53109 0.96699 0.67898 0.0
C1724 C 0.56758 0.01671 0.74307 0.0
C1725 C 0.56627 0.02116 0.85708 0.0
N1726 N 0.5414 0.98285 0.70159 0.0
N1727 N 0.55764 0.00515 0.83392 0.0
H1728 H 0.03415 0.53103 0.67825 0.0
H1729 H 0.95135 0.53429 0.78909 0.0
H1730 H 0.03243 0.57814 0.69638 0.0
H1731 H 0.95322 0.48721 0.77281 0.0
H1732 H 0.98093 0.55054 0.75412 0.0
H1733 H 0.00433 0.51468 0.71105 0.0
C1734 C 0.02747 0.53792 0.68894 0.0
C1735 C 0.03577 0.55596 0.68463 0.0
C1736 C 0.97489 0.53666 0.75818 0.0
C1737 C 0.00166 0.53736 0.72244 0.0
C1738 C 0.95801 0.52737 0.7782 0.0
C1739 C 0.94984 0.50938 0.78389 0.0
C1740 C 0.98368 0.52788 0.74368 0.0
C1741 C 0.95905 0.50108 0.76913 0.0
C1742 C 0.01045 0.52859 0.70775 0.0
C1743 C 0.02651 0.56424 0.69907 0.0
N1744 N 0.97548 0.5104 0.74968 0.0
N1745 N 0.00996 0.55487 0.71743 0.0
H1746 H 0.38739 0.44005 0.70548 0.0
H1747 H 0.46724 0.45122 0.88606 0.0
H1748 H 0.43546 0.48809 0.72117 0.0
H1749 H 0.43189 0.40292 0.80666 0.0
H1750 H 0.45149 0.46426 0.84472 0.0
H1751 H 0.39993 0.42563 0.7596 0.0
C1752 C 0.40054 0.44754 0.72044 0.0
C1753 C 0.41049 0.46522 0.70856 0.0
C1754 C 0.44709 0.45075 0.83689 0.0
C1755 C 0.42464 0.44902 0.77103 0.0
C1756 C 0.45598 0.44327 0.86075 0.0
C1757 C 0.45093 0.42602 0.84931 0.0
C1758 C 0.43295 0.44085 0.80192 0.0
C1759 C 0.43626 0.41632 0.81614 0.0
C1760 C 0.40765 0.43933 0.75119 0.0
C1761 C 0.42742 0.47439 0.72895 0.0
N1762 N 0.42779 0.4239 0.7933 0.0
N1763 N 0.43394 0.46619 0.7594 0.0
loop_
_geom_bond_atom_site_label_1
_geom_bond_atom_site_label_2
_geom_bond_distance
_geom_bond_site_symmetry_2
_ccdc_geom_bond_type
In0 O1 2.294 . S
In0 O2 2.326 . S
In0 O6 2.266 . S
In0 O7 2.326 . S
In0 O8 2.264 1_554 S
In0 O9 2.326 . S
In0 O11 2.294 . S
In0 O12 2.326 . S
O1 In0 2.294 . S
O1 C10 1.240 . S
O2 In0 2.326 . S
O2 C10 1.252 . S
C3 O6 1.252 . S
C3 O7 1.260 . S
C4 O11 1.240 . S
C4 O12 1.252 . S
C5 O8 1.253 . S
C5 O9 1.260 1_556 S
O6 In0 2.266 . S
O6 C3 1.252 . S
O7 In0 2.326 . S
O7 C3 1.260 . S
O8 In0 2.264 1_556 S
O8 C5 1.253 . S
O9 In0 2.326 . S
O9 C5 1.260 1_554 S
C10 O1 1.240 . S
C10 O2 1.252 . S
O11 In0 2.294 . S
O11 C4 1.240 . S
O12 In0 2.326 . S
O12 C4 1.252 . S
In13 O14 2.294 . S
In13 O15 2.326 . S
In13 O19 2.266 . S
In13 O20 2.326 . S
In13 O21 2.266 1_554 S
In13 O22 2.326 . S
In13 O24 2.294 . S
In13 O25 2.326 . S
O14 In13 2.294 . S
O14 C23 1.240 . S
O15 In13 2.326 . S
O15 C23 1.252 . S
C16 O19 1.252 . S
C16 O20 1.260 . S
C17 O24 1.240 . S
C17 O25 1.252 . S
C18 O21 1.252 . S
C18 O22 1.260 1_556 S
O19 In13 2.266 . S
O19 C16 1.252 . S
O20 In13 2.326 . S
O20 C16 1.260 . S
O21 In13 2.266 1_556 S
O21 C18 1.252 . S
O22 In13 2.326 . S
O22 C18 1.260 1_554 S
C23 O14 1.240 . S
C23 O15 1.252 . S
O24 In13 2.294 . S
O24 C17 1.240 . S
O25 In13 2.326 . S
O25 C17 1.252 . S
In26 O27 2.294 . S
In26 O28 2.326 . S
In26 O32 2.264 1_554 S
In26 O33 2.326 . S
In26 O34 2.266 . S
In26 O35 2.326 . S
In26 O37 2.294 . S
In26 O38 2.326 . S
O27 In26 2.294 . S
O27 C36 1.240 . S
O28 In26 2.326 . S
O28 C36 1.252 . S
C29 O32 1.253 . S
C29 O33 1.260 1_556 S
C30 O37 1.240 . S
C30 O38 1.252 . S
C31 O34 1.252 . S
C31 O35 1.260 . S
O32 In26 2.264 1_556 S
O32 C29 1.253 . S
O33 In26 2.326 . S
O33 C29 1.260 1_554 S
O34 In26 2.266 . S
O34 C31 1.252 . S
O35 In26 2.326 . S
O35 C31 1.260 . S
C36 O27 1.240 . S
C36 O28 1.252 . S
O37 In26 2.294 . S
O37 C30 1.240 . S
O38 In26 2.326 . S
O38 C30 1.252 . S
In39 O40 2.294 . S
In39 O41 2.326 . S
In39 O45 2.266 . S
In39 O46 2.326 . S
In39 O47 2.266 . S
In39 O48 2.326 . S
In39 O50 2.294 . S
In39 O51 2.326 . S
O40 In39 2.294 . S
O40 C49 1.240 . S
O41 In39 2.326 . S
O41 C49 1.252 . S
C42 O45 1.252 . S
C42 O46 1.260 . S
C43 O50 1.240 . S
C43 O51 1.252 . S
C44 O47 1.252 . S
C44 O48 1.260 . S
O45 In39 2.266 . S
O45 C42 1.252 . S
O46 In39 2.326 . S
O46 C42 1.260 . S
O47 In39 2.266 . S
O47 C44 1.252 . S
O48 In39 2.326 . S
O48 C44 1.260 . S
C49 O40 1.240 . S
C49 O41 1.252 . S
O50 In39 2.294 . S
O50 C43 1.240 . S
O51 In39 2.326 . S
O51 C43 1.252 . S
In52 O53 2.294 . S
In52 O54 2.326 . S
In52 O58 2.266 . S
In52 O59 2.326 . S
In52 O60 2.266 . S
In52 O61 2.326 . S
In52 O63 2.294 . S
In52 O64 2.326 . S
O53 In52 2.294 . S
O53 C62 1.240 . S
O54 In52 2.326 . S
O54 C62 1.252 . S
C55 O58 1.252 . S
C55 O59 1.260 . S
C56 O63 1.240 . S
C56 O64 1.252 . S
C57 O60 1.252 . S
C57 O61 1.260 . S
O58 In52 2.266 . S
O58 C55 1.252 . S
O59 In52 2.326 . S
O59 C55 1.260 . S
O60 In52 2.266 . S
O60 C57 1.252 . S
O61 In52 2.326 . S
O61 C57 1.260 . S
C62 O53 1.240 . S
C62 O54 1.252 . S
O63 In52 2.294 . S
O63 C56 1.240 . S
O64 In52 2.326 . S
O64 C56 1.252 . S
In65 O66 2.294 . S
In65 O67 2.326 . S
In65 O71 2.266 . S
In65 O72 2.326 . S
In65 O73 2.266 . S
In65 O74 2.326 . S
In65 O76 2.294 . S
In65 O77 2.326 . S
O66 In65 2.294 . S
O66 C75 1.240 . S
O67 In65 2.326 . S
O67 C75 1.252 . S
C68 O71 1.252 . S
C68 O72 1.260 . S
C69 O76 1.240 . S
C69 O77 1.252 . S
C70 O73 1.252 . S
C70 O74 1.260 . S
O71 In65 2.266 . S
O71 C68 1.252 . S
O72 In65 2.326 . S
O72 C68 1.260 . S
O73 In65 2.266 . S
O73 C70 1.252 . S
O74 In65 2.326 . S
O74 C70 1.260 . S
C75 O66 1.240 . S
C75 O67 1.252 . S
O76 In65 2.294 . S
O76 C69 1.240 . S
O77 In65 2.326 . S
O77 C69 1.252 . S
In78 O79 2.294 . S
In78 O80 2.326 . S
In78 O84 2.266 . S
In78 O85 2.326 . S
In78 O86 2.264 1_556 S
In78 O87 2.326 . S
In78 O89 2.294 . S
In78 O90 2.326 . S
O79 In78 2.294 . S
O79 C88 1.240 . S
O80 In78 2.326 . S
O80 C88 1.252 . S
C81 O84 1.252 . S
C81 O85 1.260 . S
C82 O89 1.240 . S
C82 O90 1.252 . S
C83 O86 1.253 . S
C83 O87 1.260 1_554 S
O84 In78 2.266 . S
O84 C81 1.252 . S
O85 In78 2.326 . S
O85 C81 1.260 . S
O86 In78 2.264 1_554 S
O86 C83 1.253 . S
O87 In78 2.326 . S
O87 C83 1.260 1_556 S
C88 O79 1.240 . S
C88 O80 1.252 . S
O89 In78 2.294 . S
O89 C82 1.240 . S
O90 In78 2.326 . S
O90 C82 1.252 . S
In91 O92 2.294 . S
In91 O93 2.326 . S
In91 O97 2.266 . S
In91 O98 2.326 . S
In91 O99 2.266 1_556 S
In91 O100 2.326 . S
In91 O102 2.294 . S
In91 O103 2.326 . S
O92 In91 2.294 . S
O92 C101 1.240 . S
O93 In91 2.326 . S
O93 C101 1.252 . S
C94 O97 1.252 . S
C94 O98 1.260 . S
C95 O102 1.240 . S
C95 O103 1.252 . S
C96 O99 1.252 . S
C96 O100 1.260 1_554 S
O97 In91 2.266 . S
O97 C94 1.252 . S
O98 In91 2.326 . S
O98 C94 1.260 . S
O99 In91 2.266 1_554 S
O99 C96 1.252 . S
O100 In91 2.326 . S
O100 C96 1.260 1_556 S
C101 O92 1.240 . S
C101 O93 1.252 . S
O102 In91 2.294 . S
O102 C95 1.240 . S
O103 In91 2.326 . S
O103 C95 1.252 . S
In104 O105 2.294 . S
In104 O106 2.326 . S
In104 O110 2.264 1_556 S
In104 O111 2.326 . S
In104 O112 2.266 . S
In104 O113 2.326 . S
In104 O115 2.294 . S
In104 O116 2.326 . S
O105 In104 2.294 . S
O105 C114 1.240 . S
O106 In104 2.326 . S
O106 C114 1.252 . S
C107 O110 1.253 . S
C107 O111 1.260 1_554 S
C108 O115 1.240 . S
C108 O116 1.252 . S
C109 O112 1.252 . S
C109 O113 1.260 . S
O110 In104 2.264 1_554 S
O110 C107 1.253 . S
O111 In104 2.326 . S
O111 C107 1.260 1_556 S
O112 In104 2.266 . S
O112 C109 1.252 . S
O113 In104 2.326 . S
O113 C109 1.260 . S
C114 O105 1.240 . S
C114 O106 1.252 . S
O115 In104 2.294 . S
O115 C108 1.240 . S
O116 In104 2.326 . S
O116 C108 1.252 . S
In117 O118 2.294 . S
In117 O119 2.326 . S
In117 O123 2.266 . S
In117 O124 2.326 . S
In117 O125 2.266 . S
In117 O126 2.326 . S
In117 O128 2.294 . S
In117 O129 2.326 . S
O118 In117 2.294 . S
O118 C127 1.240 . S
O119 In117 2.326 . S
O119 C127 1.252 . S
C120 O123 1.252 . S
C120 O124 1.260 . S
C121 O128 1.240 . S
C121 O129 1.252 . S
C122 O125 1.252 . S
C122 O126 1.260 . S
O123 In117 2.266 . S
O123 C120 1.252 . S
O124 In117 2.326 . S
O124 C120 1.260 . S
O125 In117 2.266 . S
O125 C122 1.252 . S
O126 In117 2.326 . S
O126 C122 1.260 . S
C127 O118 1.240 . S
C127 O119 1.252 . S
O128 In117 2.294 . S
O128 C121 1.240 . S
O129 In117 2.326 . S
O129 C121 1.252 . S
In130 O131 2.294 . S
In130 O132 2.326 . S
In130 O136 2.266 . S
In130 O137 2.326 . S
In130 O138 2.266 . S
In130 O139 2.326 . S
In130 O141 2.294 . S
In130 O142 2.326 . S
O131 In130 2.294 . S
O131 C140 1.240 . S
O132 In130 2.326 . S
O132 C140 1.252 . S
C133 O136 1.252 . S
C133 O137 1.260 . S
C134 O141 1.240 . S
C134 O142 1.252 . S
C135 O138 1.252 . S
C135 O139 1.260 . S
O136 In130 2.266 . S
O136 C133 1.252 . S
O137 In130 2.326 . S
O137 C133 1.260 . S
O138 In130 2.266 . S
O138 C135 1.252 . S
O139 In130 2.326 . S
O139 C135 1.260 . S
C140 O131 1.240 . S
C140 O132 1.252 . S
O141 In130 2.294 . S
O141 C134 1.240 . S
O142 In130 2.326 . S
O142 C134 1.252 . S
In143 O144 2.294 . S
In143 O145 2.326 . S
In143 O149 2.266 . S
In143 O150 2.326 . S
In143 O151 2.266 . S
In143 O152 2.326 . S
In143 O154 2.294 . S
In143 O155 2.326 . S
O144 In143 2.294 . S
O144 C153 1.240 . S
O145 In143 2.326 . S
O145 C153 1.252 . S
C146 O149 1.252 . S
C146 O150 1.260 . S
C147 O154 1.240 . S
C147 O155 1.252 . S
C148 O151 1.252 . S
C148 O152 1.260 . S
O149 In143 2.266 . S
O149 C146 1.252 . S
O150 In143 2.326 . S
O150 C146 1.260 . S
O151 In143 2.266 . S
O151 C148 1.252 . S
O152 In143 2.326 . S
O152 C148 1.260 . S
C153 O144 1.240 . S
C153 O145 1.252 . S
O154 In143 2.294 . S
O154 C147 1.240 . S
O155 In143 2.326 . S
O155 C147 1.252 . S
In156 O157 2.294 . S
In156 O158 2.326 . S
In156 O162 2.266 . S
In156 O163 2.326 . S
In156 O164 2.266 . S
In156 O165 2.326 . S
In156 O167 2.294 . S
In156 O168 2.326 . S
O157 In156 2.294 . S
O157 C166 1.240 . S
O158 In156 2.326 . S
O158 C166 1.252 . S
C159 O162 1.252 . S
C159 O163 1.260 . S
C160 O167 1.240 . S
C160 O168 1.252 . S
C161 O164 1.252 . S
C161 O165 1.260 . S
O162 In156 2.266 . S
O162 C159 1.252 . S
O163 In156 2.326 . S
O163 C159 1.260 . S
O164 In156 2.266 . S
O164 C161 1.252 . S
O165 In156 2.326 . S
O165 C161 1.260 . S
C166 O157 1.240 . S
C166 O158 1.252 . S
O167 In156 2.294 . S
O167 C160 1.240 . S
O168 In156 2.326 . S
O168 C160 1.252 . S
In169 O170 2.294 . S
In169 O171 2.326 . S
In169 O175 2.266 . S
In169 O176 2.326 . S
In169 O177 2.266 . S
In169 O178 2.326 . S
In169 O180 2.294 . S
In169 O181 2.326 . S
O170 In169 2.294 . S
O170 C179 1.240 . S
O171 In169 2.326 . S
O171 C179 1.252 . S
C172 O175 1.252 . S
C172 O176 1.260 . S
C173 O180 1.240 . S
C173 O181 1.252 . S
C174 O177 1.252 . S
C174 O178 1.260 . S
O175 In169 2.266 . S
O175 C172 1.252 . S
O176 In169 2.326 . S
O176 C172 1.260 . S
O177 In169 2.266 . S
O177 C174 1.252 . S
O178 In169 2.326 . S
O178 C174 1.260 . S
C179 O170 1.240 . S
C179 O171 1.252 . S
O180 In169 2.294 . S
O180 C173 1.240 . S
O181 In169 2.326 . S
O181 C173 1.252 . S
In182 O183 2.294 . S
In182 O184 2.326 . S
In182 O188 2.266 . S
In182 O189 2.326 . S
In182 O190 2.266 . S
In182 O191 2.326 . S
In182 O193 2.294 . S
In182 O194 2.326 . S
O183 In182 2.294 . S
O183 C192 1.240 . S
O184 In182 2.326 . S
O184 C192 1.252 . S
C185 O188 1.252 . S
C185 O189 1.260 . S
C186 O193 1.240 . S
C186 O194 1.252 . S
C187 O190 1.252 . S
C187 O191 1.260 . S
O188 In182 2.266 . S
O188 C185 1.252 . S
O189 In182 2.326 . S
O189 C185 1.260 . S
O190 In182 2.266 . S
O190 C187 1.252 . S
O191 In182 2.326 . S
O191 C187 1.260 . S
C192 O183 1.240 . S
C192 O184 1.252 . S
O193 In182 2.294 . S
O193 C186 1.240 . S
O194 In182 2.326 . S
O194 C186 1.252 . S
In195 O196 2.294 . S
In195 O197 2.326 . S
In195 O201 2.266 . S
In195 O202 2.326 . S
In195 O203 2.266 . S
In195 O204 2.326 . S
In195 O206 2.294 . S
In195 O207 2.326 . S
O196 In195 2.294 . S
O196 C205 1.240 . S
O197 In195 2.326 . S
O197 C205 1.252 . S
C198 O201 1.252 . S
C198 O202 1.260 . S
C199 O206 1.240 . S
C199 O207 1.252 . S
C200 O203 1.252 . S
C200 O204 1.260 . S
O201 In195 2.266 . S
O201 C198 1.252 . S
O202 In195 2.326 . S
O202 C198 1.260 . S
O203 In195 2.266 . S
O203 C200 1.252 . S
O204 In195 2.326 . S
O204 C200 1.260 . S
C205 O196 1.240 . S
C205 O197 1.252 . S
O206 In195 2.294 . S
O206 C199 1.240 . S
O207 In195 2.326 . S
O207 C199 1.252 . S
In208 O209 2.294 . S
In208 O210 2.326 . S
In208 O214 2.266 . S
In208 O215 2.326 . S
In208 O216 2.266 . S
In208 O217 2.326 . S
In208 O219 2.294 . S
In208 O220 2.326 . S
O209 In208 2.294 . S
O209 C218 1.240 . S
O210 In208 2.326 . S
O210 C218 1.252 . S
C211 O214 1.252 . S
C211 O215 1.260 . S
C212 O219 1.240 . S
C212 O220 1.252 . S
C213 O216 1.252 . S
C213 O217 1.260 . S
O214 In208 2.266 . S
O214 C211 1.252 . S
O215 In208 2.326 . S
O215 C211 1.260 . S
O216 In208 2.266 . S
O216 C213 1.252 . S
O217 In208 2.326 . S
O217 C213 1.260 . S
C218 O209 1.240 . S
C218 O210 1.252 . S
O219 In208 2.294 . S
O219 C212 1.240 . S
O220 In208 2.326 . S
O220 C212 1.252 . S
In221 O222 2.294 . S
In221 O223 2.326 . S
In221 O227 2.266 . S
In221 O228 2.326 . S
In221 O229 2.266 . S
In221 O230 2.326 . S
In221 O232 2.294 . S
In221 O233 2.326 . S
O222 In221 2.294 . S
O222 C231 1.240 . S
O223 In221 2.326 . S
O223 C231 1.252 . S
C224 O227 1.252 . S
C224 O228 1.260 . S
C225 O232 1.240 . S
C225 O233 1.252 . S
C226 O229 1.252 . S
C226 O230 1.260 . S
O227 In221 2.266 . S
O227 C224 1.252 . S
O228 In221 2.326 . S
O228 C224 1.260 . S
O229 In221 2.266 . S
O229 C226 1.252 . S
O230 In221 2.326 . S
O230 C226 1.260 . S
C231 O222 1.240 . S
C231 O223 1.252 . S
O232 In221 2.294 . S
O232 C225 1.240 . S
O233 In221 2.326 . S
O233 C225 1.252 . S
In234 O235 2.294 . S
In234 O236 2.326 . S
In234 O240 2.266 . S
In234 O241 2.326 . S
In234 O242 2.266 . S
In234 O243 2.326 . S
In234 O245 2.294 . S
In234 O246 2.326 . S
O235 In234 2.294 . S
O235 C244 1.240 . S
O236 In234 2.326 . S
O236 C244 1.252 . S
C237 O240 1.252 . S
C237 O241 1.260 . S
C238 O245 1.240 . S
C238 O246 1.252 . S
C239 O242 1.252 . S
C239 O243 1.260 . S
O240 In234 2.266 . S
O240 C237 1.252 . S
O241 In234 2.326 . S
O241 C237 1.260 . S
O242 In234 2.266 . S
O242 C239 1.252 . S
O243 In234 2.326 . S
O243 C239 1.260 . S
C244 O235 1.240 . S
C244 O236 1.252 . S
O245 In234 2.294 . S
O245 C238 1.240 . S
O246 In234 2.326 . S
O246 C238 1.252 . S
In247 O248 2.294 . S
In247 O249 2.326 . S
In247 O253 2.266 . S
In247 O254 2.326 . S
In247 O255 2.266 . S
In247 O256 2.326 . S
In247 O258 2.294 . S
In247 O259 2.326 . S
O248 In247 2.294 . S
O248 C257 1.240 . S
O249 In247 2.326 . S
O249 C257 1.252 . S
C250 O253 1.252 . S
C250 O254 1.260 . S
C251 O258 1.240 . S
C251 O259 1.252 . S
C252 O255 1.252 . S
C252 O256 1.260 . S
O253 In247 2.266 . S
O253 C250 1.252 . S
O254 In247 2.326 . S
O254 C250 1.260 . S
O255 In247 2.266 . S
O255 C252 1.252 . S
O256 In247 2.326 . S
O256 C252 1.260 . S
C257 O248 1.240 . S
C257 O249 1.252 . S
O258 In247 2.294 . S
O258 C251 1.240 . S
O259 In247 2.326 . S
O259 C251 1.252 . S
In260 O261 2.294 . S
In260 O262 2.326 . S
In260 O266 2.266 . S
In260 O267 2.326 . S
In260 O268 2.266 . S
In260 O269 2.326 . S
In260 O271 2.294 . S
In260 O272 2.326 . S
O261 In260 2.294 . S
O261 C270 1.240 . S
O262 In260 2.326 . S
O262 C270 1.252 . S
C263 O266 1.252 . S
C263 O267 1.260 . S
C264 O271 1.240 . S
C264 O272 1.252 . S
C265 O268 1.252 . S
C265 O269 1.260 . S
O266 In260 2.266 . S
O266 C263 1.252 . S
O267 In260 2.326 . S
O267 C263 1.260 . S
O268 In260 2.266 . S
O268 C265 1.252 . S
O269 In260 2.326 . S
O269 C265 1.260 . S
C270 O261 1.240 . S
C270 O262 1.252 . S
O271 In260 2.294 . S
O271 C264 1.240 . S
O272 In260 2.326 . S
O272 C264 1.252 . S
In273 O274 2.294 . S
In273 O275 2.326 . S
In273 O279 2.266 . S
In273 O280 2.326 . S
In273 O281 2.266 . S
In273 O282 2.326 . S
In273 O284 2.294 . S
In273 O285 2.326 . S
O274 In273 2.294 . S
O274 C283 1.240 1_556 S
O275 In273 2.326 . S
O275 C283 1.252 1_556 S
C276 O279 1.252 . S
C276 O280 1.260 . S
C277 O284 1.240 . S
C277 O285 1.252 . S
C278 O281 1.252 . S
C278 O282 1.260 . S
O279 In273 2.266 . S
O279 C276 1.252 . S
O280 In273 2.326 . S
O280 C276 1.260 . S
O281 In273 2.266 . S
O281 C278 1.252 . S
O282 In273 2.326 . S
O282 C278 1.260 . S
C283 O274 1.240 1_554 S
C283 O275 1.252 1_554 S
O284 In273 2.294 . S
O284 C277 1.240 . S
O285 In273 2.326 . S
O285 C277 1.252 . S
In286 O287 2.294 . S
In286 O288 2.326 . S
In286 O292 2.266 . S
In286 O293 2.326 . S
In286 O294 2.266 . S
In286 O295 2.326 . S
In286 O297 2.294 . S
In286 O298 2.326 . S
O287 In286 2.294 . S
O287 C296 1.240 1_556 S
O288 In286 2.326 . S
O288 C296 1.252 1_556 S
C289 O292 1.252 . S
C289 O293 1.260 . S
C290 O297 1.240 . S
C290 O298 1.252 . S
C291 O294 1.252 . S
C291 O295 1.260 . S
O292 In286 2.266 . S
O292 C289 1.252 . S
O293 In286 2.326 . S
O293 C289 1.260 . S
O294 In286 2.266 . S
O294 C291 1.252 . S
O295 In286 2.326 . S
O295 C291 1.260 . S
C296 O287 1.240 1_554 S
C296 O288 1.252 1_554 S
O297 In286 2.294 . S
O297 C290 1.240 . S
O298 In286 2.326 . S
O298 C290 1.252 . S
In299 O300 2.294 . S
In299 O301 2.326 . S
In299 O305 2.266 . S
In299 O306 2.326 . S
In299 O307 2.266 . S
In299 O308 2.326 . S
In299 O310 2.294 . S
In299 O311 2.326 . S
O300 In299 2.294 . S
O300 C309 1.240 . S
O301 In299 2.326 . S
O301 C309 1.252 . S
C302 O305 1.252 . S
C302 O306 1.260 . S
C303 O310 1.240 1_554 S
C303 O311 1.252 1_554 S
C304 O307 1.252 . S
C304 O308 1.260 . S
O305 In299 2.266 . S
O305 C302 1.252 . S
O306 In299 2.326 . S
O306 C302 1.260 . S
O307 In299 2.266 . S
O307 C304 1.252 . S
O308 In299 2.326 . S
O308 C304 1.260 . S
C309 O300 1.240 . S
C309 O301 1.252 . S
O310 In299 2.294 . S
O310 C303 1.240 1_556 S
O311 In299 2.326 . S
O311 C303 1.252 1_556 S
In312 O313 2.294 . S
In312 O314 2.326 . S
In312 O318 2.266 . S
In312 O319 2.326 . S
In312 O320 2.266 . S
In312 O321 2.326 . S
In312 O323 2.294 . S
In312 O324 2.326 . S
O313 In312 2.294 . S
O313 C322 1.240 . S
O314 In312 2.326 . S
O314 C322 1.252 . S
C315 O318 1.252 . S
C315 O319 1.260 . S
C316 O323 1.240 . S
C316 O324 1.252 . S
C317 O320 1.252 . S
C317 O321 1.260 . S
O318 In312 2.266 . S
O318 C315 1.252 . S
O319 In312 2.326 . S
O319 C315 1.260 . S
O320 In312 2.266 . S
O320 C317 1.252 . S
O321 In312 2.326 . S
O321 C317 1.260 . S
C322 O313 1.240 . S
C322 O314 1.252 . S
O323 In312 2.294 . S
O323 C316 1.240 . S
O324 In312 2.326 . S
O324 C316 1.252 . S
In325 O326 2.294 . S
In325 O327 2.326 . S
In325 O331 2.266 . S
In325 O332 2.326 . S
In325 O333 2.266 . S
In325 O334 2.326 . S
In325 O336 2.294 . S
In325 O337 2.326 . S
O326 In325 2.294 . S
O326 C335 1.240 . S
O327 In325 2.326 . S
O327 C335 1.252 . S
C328 O331 1.252 . S
C328 O332 1.260 . S
C329 O336 1.240 . S
C329 O337 1.252 . S
C330 O333 1.252 . S
C330 O334 1.260 . S
O331 In325 2.266 . S
O331 C328 1.252 . S
O332 In325 2.326 . S
O332 C328 1.260 . S
O333 In325 2.266 . S
O333 C330 1.252 . S
O334 In325 2.326 . S
O334 C330 1.260 . S
C335 O326 1.240 . S
C335 O327 1.252 . S
O336 In325 2.294 . S
O336 C329 1.240 . S
O337 In325 2.326 . S
O337 C329 1.252 . S
In338 O339 2.294 . S
In338 O340 2.326 . S
In338 O344 2.266 . S
In338 O345 2.326 . S
In338 O346 2.266 . S
In338 O347 2.326 . S
In338 O349 2.294 . S
In338 O350 2.326 . S
O339 In338 2.294 . S
O339 C348 1.240 . S
O340 In338 2.326 . S
O340 C348 1.252 . S
C341 O344 1.252 . S
C341 O345 1.260 . S
C342 O349 1.240 . S
C342 O350 1.252 . S
C343 O346 1.252 . S
C343 O347 1.260 . S
O344 In338 2.266 . S
O344 C341 1.252 . S
O345 In338 2.326 . S
O345 C341 1.260 . S
O346 In338 2.266 . S
O346 C343 1.252 . S
O347 In338 2.326 . S
O347 C343 1.260 . S
C348 O339 1.240 . S
C348 O340 1.252 . S
O349 In338 2.294 . S
O349 C342 1.240 . S
O350 In338 2.326 . S
O350 C342 1.252 . S
In351 O352 2.294 . S
In351 O353 2.326 . S
In351 O357 2.266 . S
In351 O358 2.326 . S
In351 O359 2.266 . S
In351 O360 2.326 . S
In351 O362 2.294 . S
In351 O363 2.326 . S
O352 In351 2.294 . S
O352 C361 1.240 . S
O353 In351 2.326 . S
O353 C361 1.252 . S
C354 O357 1.252 . S
C354 O358 1.260 . S
C355 O362 1.240 1_556 S
C355 O363 1.252 1_556 S
C356 O359 1.252 . S
C356 O360 1.260 . S
O357 In351 2.266 . S
O357 C354 1.252 . S
O358 In351 2.326 . S
O358 C354 1.260 . S
O359 In351 2.266 . S
O359 C356 1.252 . S
O360 In351 2.326 . S
O360 C356 1.260 . S
C361 O352 1.240 . S
C361 O353 1.252 . S
O362 In351 2.294 . S
O362 C355 1.240 1_554 S
O363 In351 2.326 . S
O363 C355 1.252 1_554 S
In364 O365 2.294 . S
In364 O366 2.326 . S
In364 O370 2.266 . S
In364 O371 2.326 . S
In364 O372 2.266 . S
In364 O373 2.326 . S
In364 O375 2.294 . S
In364 O376 2.326 . S
O365 In364 2.294 . S
O365 C374 1.240 . S
O366 In364 2.326 . S
O366 C374 1.252 . S
C367 O370 1.252 . S
C367 O371 1.260 . S
C368 O375 1.240 1_556 S
C368 O376 1.252 1_556 S
C369 O372 1.252 . S
C369 O373 1.260 . S
O370 In364 2.266 . S
O370 C367 1.252 . S
O371 In364 2.326 . S
O371 C367 1.260 . S
O372 In364 2.266 . S
O372 C369 1.252 . S
O373 In364 2.326 . S
O373 C369 1.260 . S
C374 O365 1.240 . S
C374 O366 1.252 . S
O375 In364 2.294 . S
O375 C368 1.240 1_554 S
O376 In364 2.326 . S
O376 C368 1.252 1_554 S
In377 O378 2.294 . S
In377 O379 2.326 . S
In377 O383 2.266 . S
In377 O384 2.326 . S
In377 O385 2.266 . S
In377 O386 2.326 . S
In377 O388 2.294 . S
In377 O389 2.326 . S
O378 In377 2.294 . S
O378 C387 1.240 . S
O379 In377 2.326 . S
O379 C387 1.252 . S
C380 O383 1.252 . S
C380 O384 1.260 . S
C381 O388 1.240 1_556 S
C381 O389 1.252 1_556 S
C382 O385 1.252 . S
C382 O386 1.260 . S
O383 In377 2.266 . S
O383 C380 1.252 . S
O384 In377 2.326 . S
O384 C380 1.260 . S
O385 In377 2.266 . S
O385 C382 1.252 . S
O386 In377 2.326 . S
O386 C382 1.260 . S
C387 O378 1.240 . S
C387 O379 1.252 . S
O388 In377 2.294 . S
O388 C381 1.240 1_554 S
O389 In377 2.326 . S
O389 C381 1.252 1_554 S
In390 O391 2.294 . S
In390 O392 2.326 . S
In390 O396 2.266 . S
In390 O397 2.326 . S
In390 O398 2.266 . S
In390 O399 2.326 . S
In390 O401 2.294 . S
In390 O402 2.326 . S
O391 In390 2.294 . S
O391 C400 1.240 . S
O392 In390 2.326 . S
O392 C400 1.252 . S
C393 O396 1.252 . S
C393 O397 1.260 . S
C394 O401 1.240 . S
C394 O402 1.252 . S
C395 O398 1.252 . S
C395 O399 1.260 . S
O396 In390 2.266 . S
O396 C393 1.252 . S
O397 In390 2.326 . S
O397 C393 1.260 . S
O398 In390 2.266 . S
O398 C395 1.252 . S
O399 In390 2.326 . S
O399 C395 1.260 . S
C400 O391 1.240 . S
C400 O392 1.252 . S
O401 In390 2.294 . S
O401 C394 1.240 . S
O402 In390 2.326 . S
O402 C394 1.252 . S
In403 O404 2.294 . S
In403 O405 2.326 . S
In403 O409 2.266 . S
In403 O410 2.326 . S
In403 O411 2.266 . S
In403 O412 2.326 . S
In403 O414 2.294 . S
In403 O415 2.326 . S
O404 In403 2.294 . S
O404 C413 1.240 . S
O405 In403 2.326 . S
O405 C413 1.252 . S
C406 O409 1.252 . S
C406 O410 1.260 . S
C407 O414 1.240 . S
C407 O415 1.252 . S
C408 O411 1.252 . S
C408 O412 1.260 . S
O409 In403 2.266 . S
O409 C406 1.252 . S
O410 In403 2.326 . S
O410 C406 1.260 . S
O411 In403 2.266 . S
O411 C408 1.252 . S
O412 In403 2.326 . S
O412 C408 1.260 . S
C413 O404 1.240 . S
C413 O405 1.252 . S
O414 In403 2.294 . S
O414 C407 1.240 . S
O415 In403 2.326 . S
O415 C407 1.252 . S
In416 O417 2.294 . S
In416 O418 2.326 . S
In416 O422 2.266 . S
In416 O423 2.326 . S
In416 O424 2.266 . S
In416 O425 2.326 . S
In416 O427 2.294 . S
In416 O428 2.326 . S
O417 In416 2.294 . S
O417 C426 1.240 . S
O418 In416 2.326 . S
O418 C426 1.252 . S
C419 O422 1.252 . S
C419 O423 1.260 . S
C420 O427 1.240 . S
C420 O428 1.252 . S
C421 O424 1.252 . S
C421 O425 1.260 . S
O422 In416 2.266 . S
O422 C419 1.252 . S
O423 In416 2.326 . S
O423 C419 1.260 . S
O424 In416 2.266 . S
O424 C421 1.252 . S
O425 In416 2.326 . S
O425 C421 1.260 . S
C426 O417 1.240 . S
C426 O418 1.252 . S
O427 In416 2.294 . S
O427 C420 1.240 . S
O428 In416 2.326 . S
O428 C420 1.252 . S
In429 O430 2.294 . S
In429 O431 2.326 . S
In429 O435 2.266 . S
In429 O436 2.326 . S
In429 O437 2.266 . S
In429 O438 2.326 . S
In429 O440 2.294 . S
In429 O441 2.326 . S
O430 In429 2.294 . S
O430 C439 1.240 . S
O431 In429 2.326 . S
O431 C439 1.252 . S
C432 O435 1.252 . S
C432 O436 1.260 . S
C433 O440 1.240 . S
C433 O441 1.252 . S
C434 O437 1.252 . S
C434 O438 1.260 . S
O435 In429 2.266 . S
O435 C432 1.252 . S
O436 In429 2.326 . S
O436 C432 1.260 . S
O437 In429 2.266 . S
O437 C434 1.252 . S
O438 In429 2.326 . S
O438 C434 1.260 . S
C439 O430 1.240 . S
C439 O431 1.252 . S
O440 In429 2.294 . S
O440 C433 1.240 . S
O441 In429 2.326 . S
O441 C433 1.252 . S
In442 O443 2.294 . S
In442 O444 2.326 . S
In442 O448 2.266 . S
In442 O449 2.326 . S
In442 O450 2.266 . S
In442 O451 2.326 . S
In442 O453 2.294 . S
In442 O454 2.326 . S
O443 In442 2.294 . S
O443 C452 1.240 . S
O444 In442 2.326 . S
O444 C452 1.252 . S
C445 O448 1.252 . S
C445 O449 1.260 . S
C446 O453 1.240 . S
C446 O454 1.252 . S
C447 O450 1.252 . S
C447 O451 1.260 . S
O448 In442 2.266 . S
O448 C445 1.252 . S
O449 In442 2.326 . S
O449 C445 1.260 . S
O450 In442 2.266 . S
O450 C447 1.252 . S
O451 In442 2.326 . S
O451 C447 1.260 . S
C452 O443 1.240 . S
C452 O444 1.252 . S
O453 In442 2.294 . S
O453 C446 1.240 . S
O454 In442 2.326 . S
O454 C446 1.252 . S
In455 O456 2.294 . S
In455 O457 2.326 . S
In455 O461 2.266 . S
In455 O462 2.326 . S
In455 O463 2.266 . S
In455 O464 2.326 . S
In455 O466 2.294 . S
In455 O467 2.326 . S
O456 In455 2.294 . S
O456 C465 1.240 . S
O457 In455 2.326 . S
O457 C465 1.252 . S
C458 O461 1.252 . S
C458 O462 1.260 . S
C459 O466 1.240 . S
C459 O467 1.252 . S
C460 O463 1.252 . S
C460 O464 1.260 . S
O461 In455 2.266 . S
O461 C458 1.252 . S
O462 In455 2.326 . S
O462 C458 1.260 . S
O463 In455 2.266 . S
O463 C460 1.252 . S
O464 In455 2.326 . S
O464 C460 1.260 . S
C465 O456 1.240 . S
C465 O457 1.252 . S
O466 In455 2.294 . S
O466 C459 1.240 . S
O467 In455 2.326 . S
O467 C459 1.252 . S
H468 C474 0.930 . S
H469 C478 0.930 . S
H470 C483 0.929 . S
H471 C481 0.929 . S
H472 C476 0.929 . S
H473 C482 0.929 . S
C474 H468 0.930 . S
C474 C475 1.367 . S
C474 C482 1.378 . S
C475 C474 1.367 . S
C475 C483 1.433 . S
C476 H472 0.929 . S
C476 C478 1.378 . S
C476 C480 1.350 . S
C477 C480 1.463 1_565 S
C477 C482 1.350 . S
C477 N485 1.427 . S
C478 H469 0.930 . S
C478 C476 1.378 . S
C478 C479 1.367 . S
C479 C478 1.367 . S
C479 C481 1.433 . S
C480 C476 1.350 . S
C480 C477 1.463 1_545 S
C480 N484 1.427 . S
C481 H471 0.929 . S
C481 C479 1.433 . S
C481 N484 1.384 . S
C482 H473 0.929 . S
C482 C474 1.378 . S
C482 C477 1.350 . S
C483 H470 0.929 . S
C483 C475 1.433 . S
C483 N485 1.384 . S
N484 C480 1.427 . S
N484 C481 1.384 . S
N485 C477 1.427 . S
N485 C483 1.384 . S
H486 C492 0.930 . S
H487 C496 0.930 . S
H488 C501 0.929 . S
H489 C499 0.929 . S
H490 C494 0.929 . S
H491 C500 0.929 . S
C492 H486 0.930 . S
C492 C493 1.367 . S
C492 C500 1.378 . S
C493 C492 1.367 . S
C493 C501 1.433 . S
C494 H490 0.929 . S
C494 C496 1.378 . S
C494 C498 1.350 . S
C495 C498 1.463 1_655 S
C495 C500 1.350 . S
C495 N503 1.427 . S
C496 H487 0.930 . S
C496 C494 1.378 . S
C496 C497 1.367 . S
C497 C496 1.367 . S
C497 C499 1.433 . S
C498 C494 1.350 . S
C498 C495 1.463 1_455 S
C498 N502 1.427 . S
C499 H489 0.929 . S
C499 C497 1.433 . S
C499 N502 1.384 . S
C500 H491 0.929 . S
C500 C492 1.378 . S
C500 C495 1.350 . S
C501 H488 0.929 . S
C501 C493 1.433 . S
C501 N503 1.384 . S
N502 C498 1.427 . S
N502 C499 1.384 . S
N503 C495 1.427 . S
N503 C501 1.384 . S
H504 C510 0.930 . S
H505 C514 0.930 . S
H506 C519 0.929 . S
H507 C517 0.929 . S
H508 C512 0.929 . S
H509 C518 0.929 . S
C510 H504 0.930 . S
C510 C511 1.367 . S
C510 C518 1.378 . S
C511 C510 1.367 . S
C511 C519 1.433 . S
C512 H508 0.929 . S
C512 C514 1.378 . S
C512 C516 1.350 . S
C513 C516 1.463 . S
C513 C518 1.350 . S
C513 N521 1.427 . S
C514 H505 0.930 . S
C514 C512 1.378 . S
C514 C515 1.367 . S
C515 C514 1.367 . S
C515 C517 1.433 . S
C516 C512 1.350 . S
C516 C513 1.463 . S
C516 N520 1.427 . S
C517 H507 0.929 . S
C517 C515 1.433 . S
C517 N520 1.384 . S
C518 H509 0.929 . S
C518 C510 1.378 . S
C518 C513 1.350 . S
C519 H506 0.929 . S
C519 C511 1.433 . S
C519 N521 1.384 . S
N520 C516 1.427 . S
N520 C517 1.384 . S
N521 C513 1.427 . S
N521 C519 1.384 . S
H522 C528 0.930 . S
H523 C532 0.930 . S
H524 C537 0.929 . S
H525 C535 0.929 . S
H526 C530 0.929 1_565 S
H527 C536 0.929 1_545 S
C528 H522 0.930 . S
C528 C529 1.367 . S
C528 C536 1.378 . S
C529 C528 1.367 . S
C529 C537 1.433 . S
C530 H526 0.929 1_545 S
C530 C532 1.378 . S
C530 C534 1.350 . S
C531 C534 1.463 1_565 S
C531 C536 1.350 . S
C531 N539 1.427 . S
C532 H523 0.930 . S
C532 C530 1.378 . S
C532 C533 1.367 . S
C533 C532 1.367 . S
C533 C535 1.433 . S
C534 C530 1.350 . S
C534 C531 1.463 1_545 S
C534 N538 1.427 . S
C535 H525 0.929 . S
C535 C533 1.433 . S
C535 N538 1.384 . S
C536 H527 0.929 1_565 S
C536 C528 1.378 . S
C536 C531 1.350 . S
C537 H524 0.929 . S
C537 C529 1.433 . S
C537 N539 1.384 . S
N538 C534 1.427 . S
N538 C535 1.384 . S
N539 C531 1.427 . S
N539 C537 1.384 . S
H540 C546 0.930 . S
H541 C550 0.930 . S
H542 C555 0.929 . S
H543 C553 0.929 . S
H544 C548 0.929 . S
H545 C554 0.929 . S
C546 H540 0.930 . S
C546 C547 1.367 . S
C546 C554 1.378 . S
C547 C546 1.367 . S
C547 C555 1.433 . S
C548 H544 0.929 . S
C548 C550 1.378 . S
C548 C552 1.350 . S
C549 C552 1.463 1_455 S
C549 C554 1.350 . S
C549 N557 1.427 . S
C550 H541 0.930 . S
C550 C548 1.378 . S
C550 C551 1.367 . S
C551 C550 1.367 . S
C551 C553 1.433 . S
C552 C548 1.350 . S
C552 C549 1.463 1_655 S
C552 N556 1.427 . S
C553 H543 0.929 . S
C553 C551 1.433 . S
C553 N556 1.384 . S
C554 H545 0.929 . S
C554 C546 1.378 . S
C554 C549 1.350 . S
C555 H542 0.929 . S
C555 C547 1.433 . S
C555 N557 1.384 . S
N556 C552 1.427 . S
N556 C553 1.384 . S
N557 C549 1.427 . S
N557 C555 1.384 . S
H558 C564 0.930 . S
H559 C568 0.930 . S
H560 C573 0.929 . S
H561 C571 0.929 . S
H562 C566 0.929 . S
H563 C572 0.929 . S
C564 H558 0.930 . S
C564 C565 1.367 . S
C564 C572 1.378 . S
C565 C564 1.367 . S
C565 C573 1.433 . S
C566 H562 0.929 . S
C566 C568 1.378 . S
C566 C570 1.350 . S
C567 C570 1.463 . S
C567 C572 1.350 . S
C567 N575 1.427 . S
C568 H559 0.930 . S
C568 C566 1.378 . S
C568 C569 1.367 . S
C569 C568 1.367 . S
C569 C571 1.433 . S
C570 C566 1.350 . S
C570 C567 1.463 . S
C570 N574 1.427 . S
C571 H561 0.929 . S
C571 C569 1.433 . S
C571 N574 1.384 . S
C572 H563 0.929 . S
C572 C564 1.378 . S
C572 C567 1.350 . S
C573 H560 0.929 . S
C573 C565 1.433 . S
C573 N575 1.384 . S
N574 C570 1.427 . S
N574 C571 1.384 . S
N575 C567 1.427 . S
N575 C573 1.384 . S
H576 C582 0.930 . S
H577 C586 0.930 . S
H578 C591 0.929 . S
H579 C589 0.929 . S
H580 C584 0.929 . S
H581 C590 0.929 . S
C582 H576 0.930 . S
C582 C583 1.367 . S
C582 C590 1.378 . S
C583 C582 1.367 . S
C583 C591 1.433 . S
C584 H580 0.929 . S
C584 C586 1.378 . S
C584 C588 1.350 . S
C585 C588 1.463 . S
C585 C590 1.350 . S
C585 N593 1.427 . S
C586 H577 0.930 . S
C586 C584 1.378 . S
C586 C587 1.367 . S
C587 C586 1.367 . S
C587 C589 1.433 . S
C588 C584 1.350 . S
C588 C585 1.463 . S
C588 N592 1.427 . S
C589 H579 0.929 . S
C589 C587 1.433 . S
C589 N592 1.384 . S
C590 H581 0.929 . S
C590 C582 1.378 . S
C590 C585 1.350 . S
C591 H578 0.929 . S
C591 C583 1.433 . S
C591 N593 1.384 . S
N592 C588 1.427 . S
N592 C589 1.384 . S
N593 C585 1.427 . S
N593 C591 1.384 . S
H594 C600 0.930 . S
H595 C604 0.930 . S
H596 C609 0.929 . S
H597 C607 0.929 . S
H598 C602 0.929 . S
H599 C608 0.929 . S
C600 H594 0.930 . S
C600 C601 1.367 . S
C600 C608 1.378 . S
C601 C600 1.367 . S
C601 C609 1.433 . S
C602 H598 0.929 . S
C602 C604 1.378 . S
C602 C606 1.350 . S
C603 C606 1.463 . S
C603 C608 1.350 . S
C603 N611 1.427 . S
C604 H595 0.930 . S
C604 C602 1.378 . S
C604 C605 1.367 . S
C605 C604 1.367 . S
C605 C607 1.433 . S
C606 C602 1.350 . S
C606 C603 1.463 . S
C606 N610 1.427 . S
C607 H597 0.929 . S
C607 C605 1.433 . S
C607 N610 1.384 . S
C608 H599 0.929 . S
C608 C600 1.378 . S
C608 C603 1.350 . S
C609 H596 0.929 . S
C609 C601 1.433 . S
C609 N611 1.384 . S
N610 C606 1.427 . S
N610 C607 1.384 . S
N611 C603 1.427 . S
N611 C609 1.384 . S
H612 C618 0.930 . S
H613 C622 0.930 . S
H614 C627 0.929 . S
H615 C625 0.929 . S
H616 C620 0.929 . S
H617 C626 0.929 . S
C618 H612 0.930 . S
C618 C619 1.367 . S
C618 C626 1.378 . S
C619 C618 1.367 . S
C619 C627 1.433 . S
C620 H616 0.929 . S
C620 C622 1.378 . S
C620 C624 1.350 . S
C621 C624 1.463 . S
C621 C626 1.350 . S
C621 N629 1.427 . S
C622 H613 0.930 . S
C622 C620 1.378 . S
C622 C623 1.367 . S
C623 C622 1.367 . S
C623 C625 1.433 . S
C624 C620 1.350 . S
C624 C621 1.463 . S
C624 N628 1.427 . S
C625 H615 0.929 . S
C625 C623 1.433 . S
C625 N628 1.384 . S
C626 H617 0.929 . S
C626 C618 1.378 . S
C626 C621 1.350 . S
C627 H614 0.929 . S
C627 C619 1.433 . S
C627 N629 1.384 . S
N628 C624 1.427 . S
N628 C625 1.384 . S
N629 C621 1.427 . S
N629 C627 1.384 . S
H630 C636 0.930 . S
H631 C640 0.930 . S
H632 C645 0.929 . S
H633 C643 0.929 . S
H634 C638 0.929 . S
H635 C644 0.929 . S
C636 H630 0.930 . S
C636 C637 1.367 . S
C636 C644 1.378 . S
C637 C636 1.367 . S
C637 C645 1.433 . S
C638 H634 0.929 . S
C638 C640 1.378 1_554 S
C638 C642 1.350 . S
C639 C642 1.463 . S
C639 C644 1.350 . S
C639 N647 1.427 . S
C640 H631 0.930 . S
C640 C638 1.378 1_556 S
C640 C641 1.367 . S
C641 C640 1.367 . S
C641 C643 1.433 1_556 S
C642 C638 1.350 . S
C642 C639 1.463 . S
C642 N646 1.427 . S
C643 H633 0.929 . S
C643 C641 1.433 1_554 S
C643 N646 1.384 . S
C644 H635 0.929 . S
C644 C636 1.378 . S
C644 C639 1.350 . S
C645 H632 0.929 . S
C645 C637 1.433 . S
C645 N647 1.384 . S
N646 C642 1.427 . S
N646 C643 1.384 . S
N647 C639 1.427 . S
N647 C645 1.384 . S
H648 C654 0.930 . S
H649 C658 0.930 . S
H650 C663 0.929 . S
H651 C661 0.929 . S
H652 C656 0.929 . S
H653 C662 0.929 . S
C654 H648 0.930 . S
C654 C655 1.367 . S
C654 C662 1.378 . S
C655 C654 1.367 . S
C655 C663 1.433 . S
C656 H652 0.929 . S
C656 C658 1.378 . S
C656 C660 1.350 . S
C657 C660 1.463 . S
C657 C662 1.350 . S
C657 N665 1.427 . S
C658 H649 0.930 . S
C658 C656 1.378 . S
C658 C659 1.367 1_554 S
C659 C658 1.367 1_556 S
C659 C661 1.433 . S
C660 C656 1.350 . S
C660 C657 1.463 . S
C660 N664 1.427 . S
C661 H651 0.929 . S
C661 C659 1.433 . S
C661 N664 1.384 1_556 S
C662 H653 0.929 . S
C662 C654 1.378 . S
C662 C657 1.350 . S
C663 H650 0.929 . S
C663 C655 1.433 . S
C663 N665 1.384 . S
N664 C660 1.427 . S
N664 C661 1.384 1_554 S
N665 C657 1.427 . S
N665 C663 1.384 . S
H666 C672 0.930 . S
H667 C676 0.930 1_556 S
H668 C681 0.929 . S
H669 C679 0.929 1_556 S
H670 C674 0.929 . S
H671 C680 0.929 . S
C672 H666 0.930 . S
C672 C673 1.367 . S
C672 C680 1.378 . S
C673 C672 1.367 . S
C673 C681 1.433 . S
C674 H670 0.929 . S
C674 C676 1.378 . S
C674 C678 1.350 . S
C675 C678 1.463 . S
C675 C680 1.350 . S
C675 N683 1.427 . S
C676 H667 0.930 1_554 S
C676 C674 1.378 . S
C676 C677 1.367 1_554 S
C677 C676 1.367 1_556 S
C677 C679 1.433 1_556 S
C678 C674 1.350 . S
C678 C675 1.463 . S
C678 N682 1.427 . S
C679 H669 0.929 1_554 S
C679 C677 1.433 1_554 S
C679 N682 1.384 . S
C680 H671 0.929 . S
C680 C672 1.378 . S
C680 C675 1.350 . S
C681 H668 0.929 . S
C681 C673 1.433 . S
C681 N683 1.384 . S
N682 C678 1.427 . S
N682 C679 1.384 . S
N683 C675 1.427 . S
N683 C681 1.384 . S
H684 C690 0.930 . S
H685 C694 0.930 . S
H686 C699 0.929 . S
H687 C697 0.929 . S
H688 C692 0.929 . S
H689 C698 0.929 . S
C690 H684 0.930 . S
C690 C691 1.367 . S
C690 C698 1.378 . S
C691 C690 1.367 . S
C691 C699 1.433 . S
C692 H688 0.929 . S
C692 C694 1.378 1_556 S
C692 C696 1.350 . S
C693 C696 1.463 . S
C693 C698 1.350 . S
C693 N701 1.427 . S
C694 H685 0.930 . S
C694 C692 1.378 1_554 S
C694 C695 1.367 . S
C695 C694 1.367 . S
C695 C697 1.433 1_554 S
C696 C692 1.350 . S
C696 C693 1.463 . S
C696 N700 1.427 . S
C697 H687 0.929 . S
C697 C695 1.433 1_556 S
C697 N700 1.384 . S
C698 H689 0.929 . S
C698 C690 1.378 . S
C698 C693 1.350 . S
C699 H686 0.929 . S
C699 C691 1.433 . S
C699 N701 1.384 . S
N700 C696 1.427 . S
N700 C697 1.384 . S
N701 C693 1.427 . S
N701 C699 1.384 . S
H702 C708 0.930 . S
H703 C712 0.930 . S
H704 C717 0.929 . S
H705 C715 0.929 . S
H706 C710 0.929 . S
H707 C716 0.929 . S
C708 H702 0.930 . S
C708 C709 1.367 1_556 S
C708 C716 1.378 . S
C709 C708 1.367 1_554 S
C709 C717 1.433 . S
C710 H706 0.929 . S
C710 C712 1.378 . S
C710 C714 1.350 . S
C711 C714 1.463 . S
C711 C716 1.350 . S
C711 N719 1.427 . S
C712 H703 0.930 . S
C712 C710 1.378 . S
C712 C713 1.367 . S
C713 C712 1.367 . S
C713 C715 1.433 . S
C714 C710 1.350 . S
C714 C711 1.463 . S
C714 N718 1.427 . S
C715 H705 0.929 . S
C715 C713 1.433 . S
C715 N718 1.384 . S
C716 H707 0.929 . S
C716 C708 1.378 . S
C716 C711 1.350 . S
C717 H704 0.929 . S
C717 C709 1.433 . S
C717 N719 1.384 1_554 S
N718 C714 1.427 . S
N718 C715 1.384 . S
N719 C711 1.427 . S
N719 C717 1.384 1_556 S
H720 C726 0.930 . S
H721 C730 0.930 . S
H722 C735 0.929 . S
H723 C733 0.929 . S
H724 C728 0.929 . S
H725 C734 0.929 . S
C726 H720 0.930 . S
C726 C727 1.367 . S
C726 C734 1.378 . S
C727 C726 1.367 . S
C727 C735 1.433 . S
C728 H724 0.929 . S
C728 C730 1.378 . S
C728 C732 1.350 . S
C729 C732 1.463 . S
C729 C734 1.350 . S
C729 N737 1.427 . S
C730 H721 0.930 . S
C730 C728 1.378 . S
C730 C731 1.367 1_556 S
C731 C730 1.367 1_554 S
C731 C733 1.433 . S
C732 C728 1.350 . S
C732 C729 1.463 . S
C732 N736 1.427 . S
C733 H723 0.929 . S
C733 C731 1.433 . S
C733 N736 1.384 1_554 S
C734 H725 0.929 . S
C734 C726 1.378 . S
C734 C729 1.350 . S
C735 H722 0.929 . S
C735 C727 1.433 . S
C735 N737 1.384 . S
N736 C732 1.427 . S
N736 C733 1.384 1_556 S
N737 C729 1.427 . S
N737 C735 1.384 . S
H738 C744 0.930 . S
H739 C748 0.930 . S
H740 C753 0.929 . S
H741 C751 0.929 . S
H742 C746 0.929 . S
H743 C752 0.929 . S
C744 H738 0.930 . S
C744 C745 1.367 . S
C744 C752 1.378 . S
C745 C744 1.367 . S
C745 C753 1.433 . S
C746 H742 0.929 . S
C746 C748 1.378 . S
C746 C750 1.350 . S
C747 C750 1.463 . S
C747 C752 1.350 . S
C747 N755 1.427 . S
C748 H739 0.930 . S
C748 C746 1.378 . S
C748 C749 1.367 . S
C749 C748 1.367 . S
C749 C751 1.433 . S
C750 C746 1.350 . S
C750 C747 1.463 . S
C750 N754 1.427 . S
C751 H741 0.929 . S
C751 C749 1.433 . S
C751 N754 1.384 . S
C752 H743 0.929 . S
C752 C744 1.378 . S
C752 C747 1.350 . S
C753 H740 0.929 . S
C753 C745 1.433 . S
C753 N755 1.384 . S
N754 C750 1.427 . S
N754 C751 1.384 . S
N755 C747 1.427 . S
N755 C753 1.384 . S
H756 C762 0.930 . S
H757 C766 0.930 . S
H758 C771 0.929 . S
H759 C769 0.929 . S
H760 C764 0.929 . S
H761 C770 0.929 . S
C762 H756 0.930 . S
C762 C763 1.367 . S
C762 C770 1.378 . S
C763 C762 1.367 . S
C763 C771 1.433 . S
C764 H760 0.929 . S
C764 C766 1.378 . S
C764 C768 1.350 . S
C765 C768 1.463 . S
C765 C770 1.350 . S
C765 N773 1.427 . S
C766 H757 0.930 . S
C766 C764 1.378 . S
C766 C767 1.367 . S
C767 C766 1.367 . S
C767 C769 1.433 . S
C768 C764 1.350 . S
C768 C765 1.463 . S
C768 N772 1.427 . S
C769 H759 0.929 . S
C769 C767 1.433 . S
C769 N772 1.384 . S
C770 H761 0.929 . S
C770 C762 1.378 . S
C770 C765 1.350 . S
C771 H758 0.929 . S
C771 C763 1.433 . S
C771 N773 1.384 . S
N772 C768 1.427 . S
N772 C769 1.384 . S
N773 C765 1.427 . S
N773 C771 1.384 . S
H774 C780 0.930 . S
H775 C784 0.930 . S
H776 C789 0.929 . S
H777 C787 0.929 . S
H778 C782 0.929 . S
H779 C788 0.929 . S
C780 H774 0.930 . S
C780 C781 1.367 . S
C780 C788 1.378 . S
C781 C780 1.367 . S
C781 C789 1.433 . S
C782 H778 0.929 . S
C782 C784 1.378 . S
C782 C786 1.350 . S
C783 C786 1.463 . S
C783 C788 1.350 . S
C783 N791 1.427 . S
C784 H775 0.930 . S
C784 C782 1.378 . S
C784 C785 1.367 . S
C785 C784 1.367 . S
C785 C787 1.433 . S
C786 C782 1.350 . S
C786 C783 1.463 . S
C786 N790 1.427 . S
C787 H777 0.929 . S
C787 C785 1.433 . S
C787 N790 1.384 . S
C788 H779 0.929 . S
C788 C780 1.378 . S
C788 C783 1.350 . S
C789 H776 0.929 . S
C789 C781 1.433 . S
C789 N791 1.384 . S
N790 C786 1.427 . S
N790 C787 1.384 . S
N791 C783 1.427 . S
N791 C789 1.384 . S
H792 C798 0.930 . S
H793 C802 0.930 . S
H794 C807 0.929 . S
H795 C805 0.929 . S
H796 C800 0.929 . S
H797 C806 0.929 . S
C798 H792 0.930 . S
C798 C799 1.367 . S
C798 C806 1.378 . S
C799 C798 1.367 . S
C799 C807 1.433 . S
C800 H796 0.929 . S
C800 C802 1.378 . S
C800 C804 1.350 . S
C801 C804 1.463 . S
C801 C806 1.350 . S
C801 N809 1.427 . S
C802 H793 0.930 . S
C802 C800 1.378 . S
C802 C803 1.367 . S
C803 C802 1.367 . S
C803 C805 1.433 . S
C804 C800 1.350 . S
C804 C801 1.463 . S
C804 N808 1.427 . S
C805 H795 0.929 . S
C805 C803 1.433 . S
C805 N808 1.384 . S
C806 H797 0.929 . S
C806 C798 1.378 . S
C806 C801 1.350 . S
C807 H794 0.929 . S
C807 C799 1.433 . S
C807 N809 1.384 . S
N808 C804 1.427 . S
N808 C805 1.384 . S
N809 C801 1.427 . S
N809 C807 1.384 . S
H810 C816 0.930 . S
H811 C820 0.930 . S
H812 C825 0.929 . S
H813 C823 0.929 . S
H814 C818 0.929 . S
H815 C824 0.929 . S
C816 H810 0.930 . S
C816 C817 1.367 . S
C816 C824 1.378 . S
C817 C816 1.367 . S
C817 C825 1.433 . S
C818 H814 0.929 . S
C818 C820 1.378 . S
C818 C822 1.350 . S
C819 C822 1.463 . S
C819 C824 1.350 . S
C819 N827 1.427 . S
C820 H811 0.930 . S
C820 C818 1.378 . S
C820 C821 1.367 . S
C821 C820 1.367 . S
C821 C823 1.433 . S
C822 C818 1.350 . S
C822 C819 1.463 . S
C822 N826 1.427 . S
C823 H813 0.929 . S
C823 C821 1.433 . S
C823 N826 1.384 . S
C824 H815 0.929 . S
C824 C816 1.378 . S
C824 C819 1.350 . S
C825 H812 0.929 . S
C825 C817 1.433 . S
C825 N827 1.384 . S
N826 C822 1.427 . S
N826 C823 1.384 . S
N827 C819 1.427 . S
N827 C825 1.384 . S
H828 C834 0.930 . S
H829 C838 0.930 . S
H830 C843 0.929 . S
H831 C841 0.929 . S
H832 C836 0.929 . S
H833 C842 0.929 . S
C834 H828 0.930 . S
C834 C835 1.367 . S
C834 C842 1.378 . S
C835 C834 1.367 . S
C835 C843 1.433 . S
C836 H832 0.929 . S
C836 C838 1.378 . S
C836 C840 1.350 . S
C837 C840 1.463 . S
C837 C842 1.350 . S
C837 N845 1.427 . S
C838 H829 0.930 . S
C838 C836 1.378 . S
C838 C839 1.367 . S
C839 C838 1.367 . S
C839 C841 1.433 . S
C840 C836 1.350 . S
C840 C837 1.463 . S
C840 N844 1.427 . S
C841 H831 0.929 . S
C841 C839 1.433 . S
C841 N844 1.384 . S
C842 H833 0.929 . S
C842 C834 1.378 . S
C842 C837 1.350 . S
C843 H830 0.929 . S
C843 C835 1.433 . S
C843 N845 1.384 . S
N844 C840 1.427 . S
N844 C841 1.384 . S
N845 C837 1.427 . S
N845 C843 1.384 . S
H846 C852 0.930 . S
H847 C856 0.930 . S
H848 C861 0.929 . S
H849 C859 0.929 . S
H850 C854 0.929 . S
H851 C860 0.929 . S
C852 H846 0.930 . S
C852 C853 1.367 . S
C852 C860 1.378 . S
C853 C852 1.367 . S
C853 C861 1.433 . S
C854 H850 0.929 . S
C854 C856 1.378 . S
C854 C858 1.350 . S
C855 C858 1.463 . S
C855 C860 1.350 . S
C855 N863 1.427 . S
C856 H847 0.930 . S
C856 C854 1.378 . S
C856 C857 1.367 . S
C857 C856 1.367 . S
C857 C859 1.433 . S
C858 C854 1.350 . S
C858 C855 1.463 . S
C858 N862 1.427 . S
C859 H849 0.929 . S
C859 C857 1.433 . S
C859 N862 1.384 . S
C860 H851 0.929 . S
C860 C852 1.378 . S
C860 C855 1.350 . S
C861 H848 0.929 . S
C861 C853 1.433 . S
C861 N863 1.384 . S
N862 C858 1.427 . S
N862 C859 1.384 . S
N863 C855 1.427 . S
N863 C861 1.384 . S
H864 C870 0.930 . S
H865 C874 0.930 . S
H866 C879 0.929 . S
H867 C877 0.929 . S
H868 C872 0.929 . S
H869 C878 0.929 . S
C870 H864 0.930 . S
C870 C871 1.367 . S
C870 C878 1.378 . S
C871 C870 1.367 . S
C871 C879 1.433 . S
C872 H868 0.929 . S
C872 C874 1.378 . S
C872 C876 1.350 . S
C873 C876 1.463 . S
C873 C878 1.350 . S
C873 N881 1.427 . S
C874 H865 0.930 . S
C874 C872 1.378 . S
C874 C875 1.367 . S
C875 C874 1.367 . S
C875 C877 1.433 . S
C876 C872 1.350 . S
C876 C873 1.463 . S
C876 N880 1.427 . S
C877 H867 0.929 . S
C877 C875 1.433 . S
C877 N880 1.384 . S
C878 H869 0.929 . S
C878 C870 1.378 . S
C878 C873 1.350 . S
C879 H866 0.929 . S
C879 C871 1.433 . S
C879 N881 1.384 . S
N880 C876 1.427 . S
N880 C877 1.384 . S
N881 C873 1.427 . S
N881 C879 1.384 . S
H882 C888 0.930 . S
H883 C892 0.930 . S
H884 C897 0.929 . S
H885 C895 0.929 . S
H886 C890 0.929 . S
H887 C896 0.929 . S
C888 H882 0.930 . S
C888 C889 1.367 . S
C888 C896 1.378 . S
C889 C888 1.367 . S
C889 C897 1.433 . S
C890 H886 0.929 . S
C890 C892 1.378 . S
C890 C894 1.350 . S
C891 C894 1.463 . S
C891 C896 1.350 . S
C891 N899 1.427 . S
C892 H883 0.930 . S
C892 C890 1.378 . S
C892 C893 1.367 . S
C893 C892 1.367 . S
C893 C895 1.433 . S
C894 C890 1.350 . S
C894 C891 1.463 . S
C894 N898 1.427 . S
C895 H885 0.929 . S
C895 C893 1.433 . S
C895 N898 1.384 . S
C896 H887 0.929 . S
C896 C888 1.378 . S
C896 C891 1.350 . S
C897 H884 0.929 . S
C897 C889 1.433 . S
C897 N899 1.384 . S
N898 C894 1.427 . S
N898 C895 1.384 . S
N899 C891 1.427 . S
N899 C897 1.384 . S
H900 C906 0.930 . S
H901 C910 0.930 . S
H902 C915 0.929 . S
H903 C913 0.929 . S
H904 C908 0.929 . S
H905 C914 0.929 . S
C906 H900 0.930 . S
C906 C907 1.367 . S
C906 C914 1.378 . S
C907 C906 1.367 . S
C907 C915 1.433 . S
C908 H904 0.929 . S
C908 C910 1.378 . S
C908 C912 1.350 . S
C909 C912 1.463 . S
C909 C914 1.350 . S
C909 N917 1.427 . S
C910 H901 0.930 . S
C910 C908 1.378 . S
C910 C911 1.367 . S
C911 C910 1.367 . S
C911 C913 1.433 . S
C912 C908 1.350 . S
C912 C909 1.463 . S
C912 N916 1.427 . S
C913 H903 0.929 . S
C913 C911 1.433 . S
C913 N916 1.384 . S
C914 H905 0.929 . S
C914 C906 1.378 . S
C914 C909 1.350 . S
C915 H902 0.929 . S
C915 C907 1.433 . S
C915 N917 1.384 . S
N916 C912 1.427 . S
N916 C913 1.384 . S
N917 C909 1.427 . S
N917 C915 1.384 . S
H918 C924 0.930 . S
H919 C928 0.930 . S
H920 C933 0.929 . S
H921 C931 0.929 . S
H922 C926 0.929 . S
H923 C932 0.929 . S
C924 H918 0.930 . S
C924 C925 1.367 . S
C924 C932 1.378 . S
C925 C924 1.367 . S
C925 C933 1.433 . S
C926 H922 0.929 . S
C926 C928 1.378 . S
C926 C930 1.350 . S
C927 C930 1.463 . S
C927 C932 1.350 . S
C927 N935 1.427 . S
C928 H919 0.930 . S
C928 C926 1.378 . S
C928 C929 1.367 . S
C929 C928 1.367 . S
C929 C931 1.433 . S
C930 C926 1.350 . S
C930 C927 1.463 . S
C930 N934 1.427 . S
C931 H921 0.929 . S
C931 C929 1.433 . S
C931 N934 1.384 . S
C932 H923 0.929 . S
C932 C924 1.378 . S
C932 C927 1.350 . S
C933 H920 0.929 . S
C933 C925 1.433 . S
C933 N935 1.384 . S
N934 C930 1.427 . S
N934 C931 1.384 . S
N935 C927 1.427 . S
N935 C933 1.384 . S
H936 C942 0.930 . S
H937 C946 0.930 . S
H938 C951 0.929 . S
H939 C949 0.929 . S
H940 C944 0.929 . S
H941 C950 0.929 . S
C942 H936 0.930 . S
C942 C943 1.367 . S
C942 C950 1.378 . S
C943 C942 1.367 . S
C943 C951 1.433 . S
C944 H940 0.929 . S
C944 C946 1.378 . S
C944 C948 1.350 . S
C945 C948 1.463 . S
C945 C950 1.350 . S
C945 N953 1.427 . S
C946 H937 0.930 . S
C946 C944 1.378 . S
C946 C947 1.367 . S
C947 C946 1.367 . S
C947 C949 1.433 . S
C948 C944 1.350 . S
C948 C945 1.463 . S
C948 N952 1.427 . S
C949 H939 0.929 . S
C949 C947 1.433 . S
C949 N952 1.384 . S
C950 H941 0.929 . S
C950 C942 1.378 . S
C950 C945 1.350 . S
C951 H938 0.929 . S
C951 C943 1.433 . S
C951 N953 1.384 . S
N952 C948 1.427 . S
N952 C949 1.384 . S
N953 C945 1.427 . S
N953 C951 1.384 . S
H954 C960 0.930 . S
H955 C964 0.930 . S
H956 C969 0.929 . S
H957 C967 0.929 . S
H958 C962 0.929 . S
H959 C968 0.929 . S
C960 H954 0.930 . S
C960 C961 1.367 . S
C960 C968 1.378 . S
C961 C960 1.367 . S
C961 C969 1.433 . S
C962 H958 0.929 . S
C962 C964 1.378 . S
C962 C966 1.350 . S
C963 C966 1.463 . S
C963 C968 1.350 . S
C963 N971 1.427 . S
C964 H955 0.930 . S
C964 C962 1.378 . S
C964 C965 1.367 . S
C965 C964 1.367 . S
C965 C967 1.433 . S
C966 C962 1.350 . S
C966 C963 1.463 . S
C966 N970 1.427 . S
C967 H957 0.929 . S
C967 C965 1.433 . S
C967 N970 1.384 . S
C968 H959 0.929 . S
C968 C960 1.378 . S
C968 C963 1.350 . S
C969 H956 0.929 . S
C969 C961 1.433 . S
C969 N971 1.384 . S
N970 C966 1.427 . S
N970 C967 1.384 . S
N971 C963 1.427 . S
N971 C969 1.384 . S
H972 C978 0.930 . S
H973 C982 0.930 . S
H974 C987 0.929 . S
H975 C985 0.929 . S
H976 C980 0.929 . S
H977 C986 0.929 . S
C978 H972 0.930 . S
C978 C979 1.367 . S
C978 C986 1.378 . S
C979 C978 1.367 . S
C979 C987 1.433 . S
C980 H976 0.929 . S
C980 C982 1.378 . S
C980 C984 1.350 . S
C981 C984 1.463 . S
C981 C986 1.350 . S
C981 N989 1.427 . S
C982 H973 0.930 . S
C982 C980 1.378 . S
C982 C983 1.367 . S
C983 C982 1.367 . S
C983 C985 1.433 . S
C984 C980 1.350 . S
C984 C981 1.463 . S
C984 N988 1.427 . S
C985 H975 0.929 . S
C985 C983 1.433 . S
C985 N988 1.384 . S
C986 H977 0.929 . S
C986 C978 1.378 . S
C986 C981 1.350 . S
C987 H974 0.929 . S
C987 C979 1.433 . S
C987 N989 1.384 . S
N988 C984 1.427 . S
N988 C985 1.384 . S
N989 C981 1.427 . S
N989 C987 1.384 . S
H990 C996 0.930 . S
H991 C1000 0.930 . S
H992 C1005 0.929 . S
H993 C1003 0.929 . S
H994 C998 0.929 . S
H995 C1004 0.929 . S
C996 H990 0.930 . S
C996 C997 1.367 . S
C996 C1004 1.378 . S
C997 C996 1.367 . S
C997 C1005 1.433 . S
C998 H994 0.929 . S
C998 C1000 1.378 . S
C998 C1002 1.350 . S
C999 C1002 1.463 . S
C999 C1004 1.350 . S
C999 N1007 1.427 . S
C1000 H991 0.930 . S
C1000 C998 1.378 . S
C1000 C1001 1.367 . S
C1001 C1000 1.367 . S
C1001 C1003 1.433 . S
C1002 C998 1.350 . S
C1002 C999 1.463 . S
C1002 N1006 1.427 . S
C1003 H993 0.929 . S
C1003 C1001 1.433 . S
C1003 N1006 1.384 . S
C1004 H995 0.929 . S
C1004 C996 1.378 . S
C1004 C999 1.350 . S
C1005 H992 0.929 . S
C1005 C997 1.433 . S
C1005 N1007 1.384 . S
N1006 C1002 1.427 . S
N1006 C1003 1.384 . S
N1007 C999 1.427 . S
N1007 C1005 1.384 . S
H1008 C1014 0.930 . S
H1009 C1018 0.930 . S
H1010 C1023 0.929 . S
H1011 C1021 0.929 . S
H1012 C1016 0.929 . S
H1013 C1022 0.929 . S
C1014 H1008 0.930 . S
C1014 C1015 1.367 . S
C1014 C1022 1.378 . S
C1015 C1014 1.367 . S
C1015 C1023 1.433 . S
C1016 H1012 0.929 . S
C1016 C1018 1.378 . S
C1016 C1020 1.350 . S
C1017 C1020 1.463 . S
C1017 C1022 1.350 . S
C1017 N1025 1.427 . S
C1018 H1009 0.930 . S
C1018 C1016 1.378 . S
C1018 C1019 1.367 . S
C1019 C1018 1.367 . S
C1019 C1021 1.433 . S
C1020 C1016 1.350 . S
C1020 C1017 1.463 . S
C1020 N1024 1.427 . S
C1021 H1011 0.929 . S
C1021 C1019 1.433 . S
C1021 N1024 1.384 . S
C1022 H1013 0.929 . S
C1022 C1014 1.378 . S
C1022 C1017 1.350 . S
C1023 H1010 0.929 . S
C1023 C1015 1.433 . S
C1023 N1025 1.384 . S
N1024 C1020 1.427 . S
N1024 C1021 1.384 . S
N1025 C1017 1.427 . S
N1025 C1023 1.384 . S
H1026 C1032 0.930 . S
H1027 C1036 0.930 . S
H1028 C1041 0.929 . S
H1029 C1039 0.929 . S
H1030 C1034 0.929 . S
H1031 C1040 0.929 . S
C1032 H1026 0.930 . S
C1032 C1033 1.367 . S
C1032 C1040 1.378 . S
C1033 C1032 1.367 . S
C1033 C1041 1.433 . S
C1034 H1030 0.929 . S
C1034 C1036 1.378 . S
C1034 C1038 1.350 . S
C1035 C1038 1.463 . S
C1035 C1040 1.350 . S
C1035 N1043 1.427 . S
C1036 H1027 0.930 . S
C1036 C1034 1.378 . S
C1036 C1037 1.367 . S
C1037 C1036 1.367 . S
C1037 C1039 1.433 . S
C1038 C1034 1.350 . S
C1038 C1035 1.463 . S
C1038 N1042 1.427 . S
C1039 H1029 0.929 . S
C1039 C1037 1.433 . S
C1039 N1042 1.384 . S
C1040 H1031 0.929 . S
C1040 C1032 1.378 . S
C1040 C1035 1.350 . S
C1041 H1028 0.929 . S
C1041 C1033 1.433 . S
C1041 N1043 1.384 . S
N1042 C1038 1.427 . S
N1042 C1039 1.384 . S
N1043 C1035 1.427 . S
N1043 C1041 1.384 . S
H1044 C1050 0.930 . S
H1045 C1054 0.930 . S
H1046 C1059 0.929 . S
H1047 C1057 0.929 . S
H1048 C1052 0.929 . S
H1049 C1058 0.929 . S
C1050 H1044 0.930 . S
C1050 C1051 1.367 . S
C1050 C1058 1.378 . S
C1051 C1050 1.367 . S
C1051 C1059 1.433 . S
C1052 H1048 0.929 . S
C1052 C1054 1.378 . S
C1052 C1056 1.350 . S
C1053 C1056 1.463 . S
C1053 C1058 1.350 . S
C1053 N1061 1.427 . S
C1054 H1045 0.930 . S
C1054 C1052 1.378 . S
C1054 C1055 1.367 . S
C1055 C1054 1.367 . S
C1055 C1057 1.433 . S
C1056 C1052 1.350 . S
C1056 C1053 1.463 . S
C1056 N1060 1.427 . S
C1057 H1047 0.929 . S
C1057 C1055 1.433 . S
C1057 N1060 1.384 . S
C1058 H1049 0.929 . S
C1058 C1050 1.378 . S
C1058 C1053 1.350 . S
C1059 H1046 0.929 . S
C1059 C1051 1.433 . S
C1059 N1061 1.384 . S
N1060 C1056 1.427 . S
N1060 C1057 1.384 . S
N1061 C1053 1.427 . S
N1061 C1059 1.384 . S
H1062 C1068 0.930 . S
H1063 C1072 0.930 . S
H1064 C1077 0.929 . S
H1065 C1075 0.929 . S
H1066 C1070 0.929 . S
H1067 C1076 0.929 . S
C1068 H1062 0.930 . S
C1068 C1069 1.367 . S
C1068 C1076 1.378 . S
C1069 C1068 1.367 . S
C1069 C1077 1.433 . S
C1070 H1066 0.929 . S
C1070 C1072 1.378 . S
C1070 C1074 1.350 . S
C1071 C1074 1.463 1_556 S
C1071 C1076 1.350 . S
C1071 N1079 1.427 . S
C1072 H1063 0.930 . S
C1072 C1070 1.378 . S
C1072 C1073 1.367 . S
C1073 C1072 1.367 . S
C1073 C1075 1.433 . S
C1074 C1070 1.350 . S
C1074 C1071 1.463 1_554 S
C1074 N1078 1.427 . S
C1075 H1065 0.929 . S
C1075 C1073 1.433 . S
C1075 N1078 1.384 . S
C1076 H1067 0.929 . S
C1076 C1068 1.378 . S
C1076 C1071 1.350 . S
C1077 H1064 0.929 . S
C1077 C1069 1.433 . S
C1077 N1079 1.384 . S
N1078 C1074 1.427 . S
N1078 C1075 1.384 . S
N1079 C1071 1.427 . S
N1079 C1077 1.384 . S
H1080 C1086 0.930 . S
H1081 C1090 0.930 . S
H1082 C1095 0.929 . S
H1083 C1093 0.929 . S
H1084 C1088 0.929 . S
H1085 C1094 0.929 . S
C1086 H1080 0.930 . S
C1086 C1087 1.367 . S
C1086 C1094 1.378 . S
C1087 C1086 1.367 . S
C1087 C1095 1.433 . S
C1088 H1084 0.929 . S
C1088 C1090 1.378 . S
C1088 C1092 1.350 . S
C1089 C1092 1.463 1_556 S
C1089 C1094 1.350 . S
C1089 N1097 1.427 . S
C1090 H1081 0.930 . S
C1090 C1088 1.378 . S
C1090 C1091 1.367 . S
C1091 C1090 1.367 . S
C1091 C1093 1.433 . S
C1092 C1088 1.350 . S
C1092 C1089 1.463 1_554 S
C1092 N1096 1.427 . S
C1093 H1083 0.929 . S
C1093 C1091 1.433 . S
C1093 N1096 1.384 . S
C1094 H1085 0.929 . S
C1094 C1086 1.378 . S
C1094 C1089 1.350 . S
C1095 H1082 0.929 . S
C1095 C1087 1.433 . S
C1095 N1097 1.384 . S
N1096 C1092 1.427 . S
N1096 C1093 1.384 . S
N1097 C1089 1.427 . S
N1097 C1095 1.384 . S
H1098 C1104 0.930 . S
H1099 C1108 0.930 . S
H1100 C1113 0.929 . S
H1101 C1111 0.929 . S
H1102 C1106 0.929 . S
H1103 C1112 0.929 . S
C1104 H1098 0.930 . S
C1104 C1105 1.367 . S
C1104 C1112 1.378 . S
C1105 C1104 1.367 . S
C1105 C1113 1.433 . S
C1106 H1102 0.929 . S
C1106 C1108 1.378 . S
C1106 C1110 1.350 . S
C1107 C1110 1.463 1_556 S
C1107 C1112 1.350 . S
C1107 N1115 1.427 . S
C1108 H1099 0.930 . S
C1108 C1106 1.378 . S
C1108 C1109 1.367 . S
C1109 C1108 1.367 . S
C1109 C1111 1.433 . S
C1110 C1106 1.350 . S
C1110 C1107 1.463 1_554 S
C1110 N1114 1.427 . S
C1111 H1101 0.929 . S
C1111 C1109 1.433 . S
C1111 N1114 1.384 . S
C1112 H1103 0.929 . S
C1112 C1104 1.378 . S
C1112 C1107 1.350 . S
C1113 H1100 0.929 . S
C1113 C1105 1.433 . S
C1113 N1115 1.384 . S
N1114 C1110 1.427 . S
N1114 C1111 1.384 . S
N1115 C1107 1.427 . S
N1115 C1113 1.384 . S
H1116 C1122 0.930 . S
H1117 C1126 0.930 . S
H1118 C1131 0.929 . S
H1119 C1129 0.929 . S
H1120 C1124 0.929 . S
H1121 C1130 0.929 . S
C1122 H1116 0.930 . S
C1122 C1123 1.367 . S
C1122 C1130 1.378 . S
C1123 C1122 1.367 . S
C1123 C1131 1.433 . S
C1124 H1120 0.929 . S
C1124 C1126 1.378 . S
C1124 C1128 1.350 . S
C1125 C1128 1.463 . S
C1125 C1130 1.350 . S
C1125 N1133 1.427 . S
C1126 H1117 0.930 . S
C1126 C1124 1.378 . S
C1126 C1127 1.367 . S
C1127 C1126 1.367 . S
C1127 C1129 1.433 . S
C1128 C1124 1.350 . S
C1128 C1125 1.463 . S
C1128 N1132 1.427 . S
C1129 H1119 0.929 . S
C1129 C1127 1.433 . S
C1129 N1132 1.384 . S
C1130 H1121 0.929 . S
C1130 C1122 1.378 . S
C1130 C1125 1.350 . S
C1131 H1118 0.929 . S
C1131 C1123 1.433 . S
C1131 N1133 1.384 . S
N1132 C1128 1.427 . S
N1132 C1129 1.384 . S
N1133 C1125 1.427 . S
N1133 C1131 1.384 . S
H1134 C1140 0.930 . S
H1135 C1144 0.930 . S
H1136 C1149 0.929 . S
H1137 C1147 0.929 . S
H1138 C1142 0.929 . S
H1139 C1148 0.929 . S
C1140 H1134 0.930 . S
C1140 C1141 1.367 . S
C1140 C1148 1.378 . S
C1141 C1140 1.367 . S
C1141 C1149 1.433 . S
C1142 H1138 0.929 . S
C1142 C1144 1.378 . S
C1142 C1146 1.350 . S
C1143 C1146 1.463 . S
C1143 C1148 1.350 . S
C1143 N1151 1.427 . S
C1144 H1135 0.930 . S
C1144 C1142 1.378 . S
C1144 C1145 1.367 . S
C1145 C1144 1.367 . S
C1145 C1147 1.433 . S
C1146 C1142 1.350 . S
C1146 C1143 1.463 . S
C1146 N1150 1.427 . S
C1147 H1137 0.929 . S
C1147 C1145 1.433 . S
C1147 N1150 1.384 . S
C1148 H1139 0.929 . S
C1148 C1140 1.378 . S
C1148 C1143 1.350 . S
C1149 H1136 0.929 . S
C1149 C1141 1.433 . S
C1149 N1151 1.384 . S
N1150 C1146 1.427 . S
N1150 C1147 1.384 . S
N1151 C1143 1.427 . S
N1151 C1149 1.384 . S
H1152 C1158 0.930 . S
H1153 C1162 0.930 . S
H1154 C1167 0.929 . S
H1155 C1165 0.929 . S
H1156 C1160 0.929 . S
H1157 C1166 0.929 . S
C1158 H1152 0.930 . S
C1158 C1159 1.367 . S
C1158 C1166 1.378 . S
C1159 C1158 1.367 . S
C1159 C1167 1.433 . S
C1160 H1156 0.929 . S
C1160 C1162 1.378 . S
C1160 C1164 1.350 . S
C1161 C1164 1.463 . S
C1161 C1166 1.350 . S
C1161 N1169 1.427 . S
C1162 H1153 0.930 . S
C1162 C1160 1.378 . S
C1162 C1163 1.367 . S
C1163 C1162 1.367 . S
C1163 C1165 1.433 . S
C1164 C1160 1.350 . S
C1164 C1161 1.463 . S
C1164 N1168 1.427 . S
C1165 H1155 0.929 . S
C1165 C1163 1.433 . S
C1165 N1168 1.384 . S
C1166 H1157 0.929 . S
C1166 C1158 1.378 . S
C1166 C1161 1.350 . S
C1167 H1154 0.929 . S
C1167 C1159 1.433 . S
C1167 N1169 1.384 . S
N1168 C1164 1.427 . S
N1168 C1165 1.384 . S
N1169 C1161 1.427 . S
N1169 C1167 1.384 . S
H1170 C1176 0.930 . S
H1171 C1180 0.930 . S
H1172 C1185 0.929 . S
H1173 C1183 0.929 . S
H1174 C1178 0.929 . S
H1175 C1184 0.929 . S
C1176 H1170 0.930 . S
C1176 C1177 1.367 . S
C1176 C1184 1.378 . S
C1177 C1176 1.367 . S
C1177 C1185 1.433 . S
C1178 H1174 0.929 . S
C1178 C1180 1.378 . S
C1178 C1182 1.350 . S
C1179 C1182 1.463 . S
C1179 C1184 1.350 . S
C1179 N1187 1.427 . S
C1180 H1171 0.930 . S
C1180 C1178 1.378 . S
C1180 C1181 1.367 . S
C1181 C1180 1.367 . S
C1181 C1183 1.433 . S
C1182 C1178 1.350 . S
C1182 C1179 1.463 . S
C1182 N1186 1.427 . S
C1183 H1173 0.929 . S
C1183 C1181 1.433 . S
C1183 N1186 1.384 . S
C1184 H1175 0.929 . S
C1184 C1176 1.378 . S
C1184 C1179 1.350 . S
C1185 H1172 0.929 . S
C1185 C1177 1.433 . S
C1185 N1187 1.384 . S
N1186 C1182 1.427 . S
N1186 C1183 1.384 . S
N1187 C1179 1.427 . S
N1187 C1185 1.384 . S
H1188 C1194 0.930 . S
H1189 C1198 0.930 . S
H1190 C1203 0.929 . S
H1191 C1201 0.929 . S
H1192 C1196 0.929 . S
H1193 C1202 0.929 . S
C1194 H1188 0.930 . S
C1194 C1195 1.367 . S
C1194 C1202 1.378 . S
C1195 C1194 1.367 . S
C1195 C1203 1.433 . S
C1196 H1192 0.929 . S
C1196 C1198 1.378 . S
C1196 C1200 1.350 . S
C1197 C1200 1.463 . S
C1197 C1202 1.350 . S
C1197 N1205 1.427 . S
C1198 H1189 0.930 . S
C1198 C1196 1.378 . S
C1198 C1199 1.367 . S
C1199 C1198 1.367 . S
C1199 C1201 1.433 . S
C1200 C1196 1.350 . S
C1200 C1197 1.463 . S
C1200 N1204 1.427 . S
C1201 H1191 0.929 . S
C1201 C1199 1.433 . S
C1201 N1204 1.384 . S
C1202 H1193 0.929 . S
C1202 C1194 1.378 . S
C1202 C1197 1.350 . S
C1203 H1190 0.929 . S
C1203 C1195 1.433 . S
C1203 N1205 1.384 . S
N1204 C1200 1.427 . S
N1204 C1201 1.384 . S
N1205 C1197 1.427 . S
N1205 C1203 1.384 . S
H1206 C1212 0.930 . S
H1207 C1216 0.930 . S
H1208 C1221 0.929 . S
H1209 C1219 0.929 . S
H1210 C1214 0.929 . S
H1211 C1220 0.929 . S
C1212 H1206 0.930 . S
C1212 C1213 1.367 . S
C1212 C1220 1.378 . S
C1213 C1212 1.367 . S
C1213 C1221 1.433 . S
C1214 H1210 0.929 . S
C1214 C1216 1.378 . S
C1214 C1218 1.350 . S
C1215 C1218 1.463 . S
C1215 C1220 1.350 . S
C1215 N1223 1.427 . S
C1216 H1207 0.930 . S
C1216 C1214 1.378 . S
C1216 C1217 1.367 . S
C1217 C1216 1.367 . S
C1217 C1219 1.433 . S
C1218 C1214 1.350 . S
C1218 C1215 1.463 . S
C1218 N1222 1.427 . S
C1219 H1209 0.929 . S
C1219 C1217 1.433 . S
C1219 N1222 1.384 . S
C1220 H1211 0.929 . S
C1220 C1212 1.378 . S
C1220 C1215 1.350 . S
C1221 H1208 0.929 . S
C1221 C1213 1.433 . S
C1221 N1223 1.384 . S
N1222 C1218 1.427 . S
N1222 C1219 1.384 . S
N1223 C1215 1.427 . S
N1223 C1221 1.384 . S
H1224 C1230 0.930 . S
H1225 C1234 0.930 . S
H1226 C1239 0.929 . S
H1227 C1237 0.929 . S
H1228 C1232 0.929 . S
H1229 C1238 0.929 . S
C1230 H1224 0.930 . S
C1230 C1231 1.367 . S
C1230 C1238 1.378 . S
C1231 C1230 1.367 . S
C1231 C1239 1.433 . S
C1232 H1228 0.929 . S
C1232 C1234 1.378 . S
C1232 C1236 1.350 . S
C1233 C1236 1.463 . S
C1233 C1238 1.350 . S
C1233 N1241 1.427 . S
C1234 H1225 0.930 . S
C1234 C1232 1.378 . S
C1234 C1235 1.367 . S
C1235 C1234 1.367 . S
C1235 C1237 1.433 . S
C1236 C1232 1.350 . S
C1236 C1233 1.463 . S
C1236 N1240 1.427 . S
C1237 H1227 0.929 . S
C1237 C1235 1.433 . S
C1237 N1240 1.384 . S
C1238 H1229 0.929 . S
C1238 C1230 1.378 . S
C1238 C1233 1.350 . S
C1239 H1226 0.929 . S
C1239 C1231 1.433 . S
C1239 N1241 1.384 . S
N1240 C1236 1.427 . S
N1240 C1237 1.384 . S
N1241 C1233 1.427 . S
N1241 C1239 1.384 . S
H1242 C1248 0.930 . S
H1243 C1252 0.930 . S
H1244 C1257 0.929 . S
H1245 C1255 0.929 . S
H1246 C1250 0.929 . S
H1247 C1256 0.929 . S
C1248 H1242 0.930 . S
C1248 C1249 1.367 . S
C1248 C1256 1.378 . S
C1249 C1248 1.367 . S
C1249 C1257 1.433 . S
C1250 H1246 0.929 . S
C1250 C1252 1.378 . S
C1250 C1254 1.350 . S
C1251 C1254 1.463 . S
C1251 C1256 1.350 . S
C1251 N1259 1.427 . S
C1252 H1243 0.930 . S
C1252 C1250 1.378 . S
C1252 C1253 1.367 . S
C1253 C1252 1.367 . S
C1253 C1255 1.433 . S
C1254 C1250 1.350 . S
C1254 C1251 1.463 . S
C1254 N1258 1.427 . S
C1255 H1245 0.929 . S
C1255 C1253 1.433 . S
C1255 N1258 1.384 . S
C1256 H1247 0.929 . S
C1256 C1248 1.378 . S
C1256 C1251 1.350 . S
C1257 H1244 0.929 . S
C1257 C1249 1.433 . S
C1257 N1259 1.384 . S
N1258 C1254 1.427 . S
N1258 C1255 1.384 . S
N1259 C1251 1.427 . S
N1259 C1257 1.384 . S
H1260 C1266 0.930 . S
H1261 C1270 0.930 . S
H1262 C1275 0.929 . S
H1263 C1273 0.929 . S
H1264 C1268 0.929 . S
H1265 C1274 0.929 . S
C1266 H1260 0.930 . S
C1266 C1267 1.367 . S
C1266 C1274 1.378 . S
C1267 C1266 1.367 . S
C1267 C1275 1.433 . S
C1268 H1264 0.929 . S
C1268 C1270 1.378 . S
C1268 C1272 1.350 . S
C1269 C1272 1.463 . S
C1269 C1274 1.350 . S
C1269 N1277 1.427 . S
C1270 H1261 0.930 . S
C1270 C1268 1.378 . S
C1270 C1271 1.367 . S
C1271 C1270 1.367 . S
C1271 C1273 1.433 . S
C1272 C1268 1.350 . S
C1272 C1269 1.463 . S
C1272 N1276 1.427 . S
C1273 H1263 0.929 . S
C1273 C1271 1.433 . S
C1273 N1276 1.384 . S
C1274 H1265 0.929 . S
C1274 C1266 1.378 . S
C1274 C1269 1.350 . S
C1275 H1262 0.929 . S
C1275 C1267 1.433 . S
C1275 N1277 1.384 . S
N1276 C1272 1.427 . S
N1276 C1273 1.384 . S
N1277 C1269 1.427 . S
N1277 C1275 1.384 . S
H1278 C1284 0.930 . S
H1279 C1288 0.930 . S
H1280 C1293 0.929 . S
H1281 C1291 0.929 . S
H1282 C1286 0.929 . S
H1283 C1292 0.929 . S
C1284 H1278 0.930 . S
C1284 C1285 1.367 . S
C1284 C1292 1.378 . S
C1285 C1284 1.367 . S
C1285 C1293 1.433 . S
C1286 H1282 0.929 . S
C1286 C1288 1.378 . S
C1286 C1290 1.350 . S
C1287 C1290 1.463 . S
C1287 C1292 1.350 . S
C1287 N1295 1.427 . S
C1288 H1279 0.930 . S
C1288 C1286 1.378 . S
C1288 C1289 1.367 . S
C1289 C1288 1.367 . S
C1289 C1291 1.433 . S
C1290 C1286 1.350 . S
C1290 C1287 1.463 . S
C1290 N1294 1.427 . S
C1291 H1281 0.929 . S
C1291 C1289 1.433 . S
C1291 N1294 1.384 . S
C1292 H1283 0.929 . S
C1292 C1284 1.378 . S
C1292 C1287 1.350 . S
C1293 H1280 0.929 . S
C1293 C1285 1.433 . S
C1293 N1295 1.384 . S
N1294 C1290 1.427 . S
N1294 C1291 1.384 . S
N1295 C1287 1.427 . S
N1295 C1293 1.384 . S
H1296 C1302 0.930 . S
H1297 C1306 0.930 . S
H1298 C1311 0.929 . S
H1299 C1309 0.929 . S
H1300 C1304 0.929 . S
H1301 C1310 0.929 . S
C1302 H1296 0.930 . S
C1302 C1303 1.367 . S
C1302 C1310 1.378 . S
C1303 C1302 1.367 . S
C1303 C1311 1.433 . S
C1304 H1300 0.929 . S
C1304 C1306 1.378 . S
C1304 C1308 1.350 . S
C1305 C1308 1.463 . S
C1305 C1310 1.350 . S
C1305 N1313 1.427 . S
C1306 H1297 0.930 . S
C1306 C1304 1.378 . S
C1306 C1307 1.367 . S
C1307 C1306 1.367 . S
C1307 C1309 1.433 . S
C1308 C1304 1.350 . S
C1308 C1305 1.463 . S
C1308 N1312 1.427 . S
C1309 H1299 0.929 . S
C1309 C1307 1.433 . S
C1309 N1312 1.384 . S
C1310 H1301 0.929 . S
C1310 C1302 1.378 . S
C1310 C1305 1.350 . S
C1311 H1298 0.929 . S
C1311 C1303 1.433 . S
C1311 N1313 1.384 . S
N1312 C1308 1.427 . S
N1312 C1309 1.384 . S
N1313 C1305 1.427 . S
N1313 C1311 1.384 . S
H1314 C1320 0.930 . S
H1315 C1324 0.930 . S
H1316 C1329 0.929 . S
H1317 C1327 0.929 . S
H1318 C1322 0.929 . S
H1319 C1328 0.929 . S
C1320 H1314 0.930 . S
C1320 C1321 1.367 . S
C1320 C1328 1.378 . S
C1321 C1320 1.367 . S
C1321 C1329 1.433 . S
C1322 H1318 0.929 . S
C1322 C1324 1.378 . S
C1322 C1326 1.350 . S
C1323 C1326 1.463 . S
C1323 C1328 1.350 . S
C1323 N1331 1.427 . S
C1324 H1315 0.930 . S
C1324 C1322 1.378 . S
C1324 C1325 1.367 . S
C1325 C1324 1.367 . S
C1325 C1327 1.433 . S
C1326 C1322 1.350 . S
C1326 C1323 1.463 . S
C1326 N1330 1.427 . S
C1327 H1317 0.929 . S
C1327 C1325 1.433 . S
C1327 N1330 1.384 . S
C1328 H1319 0.929 . S
C1328 C1320 1.378 . S
C1328 C1323 1.350 . S
C1329 H1316 0.929 . S
C1329 C1321 1.433 . S
C1329 N1331 1.384 . S
N1330 C1326 1.427 . S
N1330 C1327 1.384 . S
N1331 C1323 1.427 . S
N1331 C1329 1.384 . S
H1332 C1338 0.930 . S
H1333 C1342 0.930 . S
H1334 C1347 0.929 . S
H1335 C1345 0.929 . S
H1336 C1340 0.929 . S
H1337 C1346 0.929 . S
C1338 H1332 0.930 . S
C1338 C1339 1.367 . S
C1338 C1346 1.378 . S
C1339 C1338 1.367 . S
C1339 C1347 1.433 . S
C1340 H1336 0.929 . S
C1340 C1342 1.378 . S
C1340 C1344 1.350 . S
C1341 C1344 1.463 . S
C1341 C1346 1.350 . S
C1341 N1349 1.427 . S
C1342 H1333 0.930 . S
C1342 C1340 1.378 . S
C1342 C1343 1.367 . S
C1343 C1342 1.367 . S
C1343 C1345 1.433 . S
C1344 C1340 1.350 . S
C1344 C1341 1.463 . S
C1344 N1348 1.427 . S
C1345 H1335 0.929 . S
C1345 C1343 1.433 . S
C1345 N1348 1.384 . S
C1346 H1337 0.929 . S
C1346 C1338 1.378 . S
C1346 C1341 1.350 . S
C1347 H1334 0.929 . S
C1347 C1339 1.433 . S
C1347 N1349 1.384 . S
N1348 C1344 1.427 . S
N1348 C1345 1.384 . S
N1349 C1341 1.427 . S
N1349 C1347 1.384 . S
H1350 C1356 0.930 . S
H1351 C1360 0.930 . S
H1352 C1365 0.929 . S
H1353 C1363 0.929 . S
H1354 C1358 0.929 . S
H1355 C1364 0.929 . S
C1356 H1350 0.930 . S
C1356 C1357 1.367 . S
C1356 C1364 1.378 . S
C1357 C1356 1.367 . S
C1357 C1365 1.433 . S
C1358 H1354 0.929 . S
C1358 C1360 1.378 . S
C1358 C1362 1.350 . S
C1359 C1362 1.463 . S
C1359 C1364 1.350 . S
C1359 N1367 1.427 . S
C1360 H1351 0.930 . S
C1360 C1358 1.378 . S
C1360 C1361 1.367 . S
C1361 C1360 1.367 . S
C1361 C1363 1.433 . S
C1362 C1358 1.350 . S
C1362 C1359 1.463 . S
C1362 N1366 1.427 . S
C1363 H1353 0.929 . S
C1363 C1361 1.433 . S
C1363 N1366 1.384 . S
C1364 H1355 0.929 . S
C1364 C1356 1.378 . S
C1364 C1359 1.350 . S
C1365 H1352 0.929 . S
C1365 C1357 1.433 . S
C1365 N1367 1.384 . S
N1366 C1362 1.427 . S
N1366 C1363 1.384 . S
N1367 C1359 1.427 . S
N1367 C1365 1.384 . S
H1368 C1374 0.930 . S
H1369 C1378 0.930 . S
H1370 C1383 0.929 . S
H1371 C1381 0.929 . S
H1372 C1376 0.929 . S
H1373 C1382 0.929 . S
C1374 H1368 0.930 . S
C1374 C1375 1.367 . S
C1374 C1382 1.378 . S
C1375 C1374 1.367 . S
C1375 C1383 1.433 . S
C1376 H1372 0.929 . S
C1376 C1378 1.378 . S
C1376 C1380 1.350 . S
C1377 C1380 1.463 . S
C1377 C1382 1.350 . S
C1377 N1385 1.427 . S
C1378 H1369 0.930 . S
C1378 C1376 1.378 . S
C1378 C1379 1.367 . S
C1379 C1378 1.367 . S
C1379 C1381 1.433 . S
C1380 C1376 1.350 . S
C1380 C1377 1.463 . S
C1380 N1384 1.427 . S
C1381 H1371 0.929 . S
C1381 C1379 1.433 . S
C1381 N1384 1.384 . S
C1382 H1373 0.929 . S
C1382 C1374 1.378 . S
C1382 C1377 1.350 . S
C1383 H1370 0.929 . S
C1383 C1375 1.433 . S
C1383 N1385 1.384 . S
N1384 C1380 1.427 . S
N1384 C1381 1.384 . S
N1385 C1377 1.427 . S
N1385 C1383 1.384 . S
H1386 C1392 0.930 . S
H1387 C1396 0.930 . S
H1388 C1401 0.929 . S
H1389 C1399 0.929 . S
H1390 C1394 0.929 . S
H1391 C1400 0.929 . S
C1392 H1386 0.930 . S
C1392 C1393 1.367 . S
C1392 C1400 1.378 . S
C1393 C1392 1.367 . S
C1393 C1401 1.433 . S
C1394 H1390 0.929 . S
C1394 C1396 1.378 . S
C1394 C1398 1.350 . S
C1395 C1398 1.463 1_556 S
C1395 C1400 1.350 . S
C1395 N1403 1.427 . S
C1396 H1387 0.930 . S
C1396 C1394 1.378 . S
C1396 C1397 1.367 . S
C1397 C1396 1.367 . S
C1397 C1399 1.433 . S
C1398 C1394 1.350 . S
C1398 C1395 1.463 1_554 S
C1398 N1402 1.427 . S
C1399 H1389 0.929 . S
C1399 C1397 1.433 . S
C1399 N1402 1.384 . S
C1400 H1391 0.929 . S
C1400 C1392 1.378 . S
C1400 C1395 1.350 . S
C1401 H1388 0.929 . S
C1401 C1393 1.433 . S
C1401 N1403 1.384 . S
N1402 C1398 1.427 . S
N1402 C1399 1.384 . S
N1403 C1395 1.427 . S
N1403 C1401 1.384 . S
H1404 C1410 0.930 . S
H1405 C1414 0.930 . S
H1406 C1419 0.929 . S
H1407 C1417 0.929 . S
H1408 C1412 0.929 1_556 S
H1409 C1418 0.929 1_554 S
C1410 H1404 0.930 . S
C1410 C1411 1.367 . S
C1410 C1418 1.378 . S
C1411 C1410 1.367 . S
C1411 C1419 1.433 . S
C1412 H1408 0.929 1_554 S
C1412 C1414 1.378 . S
C1412 C1416 1.350 . S
C1413 C1416 1.463 1_556 S
C1413 C1418 1.350 . S
C1413 N1421 1.427 . S
C1414 H1405 0.930 . S
C1414 C1412 1.378 . S
C1414 C1415 1.367 . S
C1415 C1414 1.367 . S
C1415 C1417 1.433 . S
C1416 C1412 1.350 . S
C1416 C1413 1.463 1_554 S
C1416 N1420 1.427 . S
C1417 H1407 0.929 . S
C1417 C1415 1.433 . S
C1417 N1420 1.384 . S
C1418 H1409 0.929 1_556 S
C1418 C1410 1.378 . S
C1418 C1413 1.350 . S
C1419 H1406 0.929 . S
C1419 C1411 1.433 . S
C1419 N1421 1.384 . S
N1420 C1416 1.427 . S
N1420 C1417 1.384 . S
N1421 C1413 1.427 . S
N1421 C1419 1.384 . S
H1422 C1428 0.930 . S
H1423 C1432 0.930 . S
H1424 C1437 0.929 . S
H1425 C1435 0.929 . S
H1426 C1430 0.929 1_556 S
H1427 C1436 0.929 . S
C1428 H1422 0.930 . S
C1428 C1429 1.367 . S
C1428 C1436 1.378 . S
C1429 C1428 1.367 . S
C1429 C1437 1.433 . S
C1430 H1426 0.929 1_554 S
C1430 C1432 1.378 . S
C1430 C1434 1.350 . S
C1431 C1434 1.463 1_556 S
C1431 C1436 1.350 . S
C1431 N1439 1.427 . S
C1432 H1423 0.930 . S
C1432 C1430 1.378 . S
C1432 C1433 1.367 . S
C1433 C1432 1.367 . S
C1433 C1435 1.433 . S
C1434 C1430 1.350 . S
C1434 C1431 1.463 1_554 S
C1434 N1438 1.427 . S
C1435 H1425 0.929 . S
C1435 C1433 1.433 . S
C1435 N1438 1.384 . S
C1436 H1427 0.929 . S
C1436 C1428 1.378 . S
C1436 C1431 1.350 . S
C1437 H1424 0.929 . S
C1437 C1429 1.433 . S
C1437 N1439 1.384 . S
N1438 C1434 1.427 . S
N1438 C1435 1.384 . S
N1439 C1431 1.427 . S
N1439 C1437 1.384 . S
H1440 C1446 0.930 . S
H1441 C1450 0.930 . S
H1442 C1455 0.929 . S
H1443 C1453 0.929 . S
H1444 C1448 0.929 . S
H1445 C1454 0.929 . S
C1446 H1440 0.930 . S
C1446 C1447 1.367 . S
C1446 C1454 1.378 . S
C1447 C1446 1.367 . S
C1447 C1455 1.433 . S
C1448 H1444 0.929 . S
C1448 C1450 1.378 . S
C1448 C1452 1.350 . S
C1449 C1452 1.463 . S
C1449 C1454 1.350 . S
C1449 N1457 1.427 . S
C1450 H1441 0.930 . S
C1450 C1448 1.378 . S
C1450 C1451 1.367 . S
C1451 C1450 1.367 . S
C1451 C1453 1.433 . S
C1452 C1448 1.350 . S
C1452 C1449 1.463 . S
C1452 N1456 1.427 . S
C1453 H1443 0.929 . S
C1453 C1451 1.433 . S
C1453 N1456 1.384 . S
C1454 H1445 0.929 . S
C1454 C1446 1.378 . S
C1454 C1449 1.350 . S
C1455 H1442 0.929 . S
C1455 C1447 1.433 . S
C1455 N1457 1.384 . S
N1456 C1452 1.427 . S
N1456 C1453 1.384 . S
N1457 C1449 1.427 . S
N1457 C1455 1.384 . S
H1458 C1464 0.930 . S
H1459 C1468 0.930 . S
H1460 C1473 0.929 . S
H1461 C1471 0.929 . S
H1462 C1466 0.929 . S
H1463 C1472 0.929 . S
C1464 H1458 0.930 . S
C1464 C1465 1.367 1_554 S
C1464 C1472 1.378 1_554 S
C1465 C1464 1.367 1_556 S
C1465 C1473 1.433 . S
C1466 H1462 0.929 . S
C1466 C1468 1.378 . S
C1466 C1470 1.350 . S
C1467 C1470 1.463 . S
C1467 C1472 1.350 . S
C1467 N1475 1.427 . S
C1468 H1459 0.930 . S
C1468 C1466 1.378 . S
C1468 C1469 1.367 . S
C1469 C1468 1.367 . S
C1469 C1471 1.433 . S
C1470 C1466 1.350 . S
C1470 C1467 1.463 . S
C1470 N1474 1.427 . S
C1471 H1461 0.929 . S
C1471 C1469 1.433 . S
C1471 N1474 1.384 . S
C1472 H1463 0.929 . S
C1472 C1464 1.378 1_556 S
C1472 C1467 1.350 . S
C1473 H1460 0.929 . S
C1473 C1465 1.433 . S
C1473 N1475 1.384 . S
N1474 C1470 1.427 . S
N1474 C1471 1.384 . S
N1475 C1467 1.427 . S
N1475 C1473 1.384 . S
H1476 C1482 0.930 . S
H1477 C1486 0.930 . S
H1478 C1491 0.929 . S
H1479 C1489 0.929 . S
H1480 C1484 0.929 . S
H1481 C1490 0.929 . S
C1482 H1476 0.930 . S
C1482 C1483 1.367 . S
C1482 C1490 1.378 . S
C1483 C1482 1.367 . S
C1483 C1491 1.433 . S
C1484 H1480 0.929 . S
C1484 C1486 1.378 1_556 S
C1484 C1488 1.350 . S
C1485 C1488 1.463 . S
C1485 C1490 1.350 . S
C1485 N1493 1.427 . S
C1486 H1477 0.930 . S
C1486 C1484 1.378 1_554 S
C1486 C1487 1.367 1_554 S
C1487 C1486 1.367 1_556 S
C1487 C1489 1.433 . S
C1488 C1484 1.350 . S
C1488 C1485 1.463 . S
C1488 N1492 1.427 . S
C1489 H1479 0.929 . S
C1489 C1487 1.433 . S
C1489 N1492 1.384 . S
C1490 H1481 0.929 . S
C1490 C1482 1.378 . S
C1490 C1485 1.350 . S
C1491 H1478 0.929 . S
C1491 C1483 1.433 . S
C1491 N1493 1.384 . S
N1492 C1488 1.427 . S
N1492 C1489 1.384 . S
N1493 C1485 1.427 . S
N1493 C1491 1.384 . S
H1494 C1500 0.930 . S
H1495 C1504 0.930 . S
H1496 C1509 0.929 . S
H1497 C1507 0.929 . S
H1498 C1502 0.929 . S
H1499 C1508 0.929 . S
C1500 H1494 0.930 . S
C1500 C1501 1.367 . S
C1500 C1508 1.378 . S
C1501 C1500 1.367 . S
C1501 C1509 1.433 . S
C1502 H1498 0.929 . S
C1502 C1504 1.378 . S
C1502 C1506 1.350 . S
C1503 C1506 1.463 . S
C1503 C1508 1.350 . S
C1503 N1511 1.427 . S
C1504 H1495 0.930 . S
C1504 C1502 1.378 . S
C1504 C1505 1.367 . S
C1505 C1504 1.367 . S
C1505 C1507 1.433 . S
C1506 C1502 1.350 . S
C1506 C1503 1.463 . S
C1506 N1510 1.427 . S
C1507 H1497 0.929 . S
C1507 C1505 1.433 . S
C1507 N1510 1.384 . S
C1508 H1499 0.929 . S
C1508 C1500 1.378 . S
C1508 C1503 1.350 . S
C1509 H1496 0.929 . S
C1509 C1501 1.433 . S
C1509 N1511 1.384 . S
N1510 C1506 1.427 . S
N1510 C1507 1.384 . S
N1511 C1503 1.427 . S
N1511 C1509 1.384 . S
H1512 C1518 0.930 . S
H1513 C1522 0.930 . S
H1514 C1527 0.929 . S
H1515 C1525 0.929 . S
H1516 C1520 0.929 . S
H1517 C1526 0.929 . S
C1518 H1512 0.930 . S
C1518 C1519 1.367 . S
C1518 C1526 1.378 . S
C1519 C1518 1.367 . S
C1519 C1527 1.433 . S
C1520 H1516 0.929 . S
C1520 C1522 1.378 . S
C1520 C1524 1.350 . S
C1521 C1524 1.463 . S
C1521 C1526 1.350 . S
C1521 N1529 1.427 . S
C1522 H1513 0.930 . S
C1522 C1520 1.378 . S
C1522 C1523 1.367 . S
C1523 C1522 1.367 . S
C1523 C1525 1.433 . S
C1524 C1520 1.350 . S
C1524 C1521 1.463 . S
C1524 N1528 1.427 . S
C1525 H1515 0.929 . S
C1525 C1523 1.433 . S
C1525 N1528 1.384 . S
C1526 H1517 0.929 . S
C1526 C1518 1.378 . S
C1526 C1521 1.350 . S
C1527 H1514 0.929 . S
C1527 C1519 1.433 . S
C1527 N1529 1.384 . S
N1528 C1524 1.427 . S
N1528 C1525 1.384 . S
N1529 C1521 1.427 . S
N1529 C1527 1.384 . S
H1530 C1536 0.930 . S
H1531 C1540 0.930 . S
H1532 C1545 0.929 . S
H1533 C1543 0.929 . S
H1534 C1538 0.929 . S
H1535 C1544 0.929 . S
C1536 H1530 0.930 . S
C1536 C1537 1.367 . S
C1536 C1544 1.378 . S
C1537 C1536 1.367 . S
C1537 C1545 1.433 . S
C1538 H1534 0.929 . S
C1538 C1540 1.378 . S
C1538 C1542 1.350 . S
C1539 C1542 1.463 . S
C1539 C1544 1.350 . S
C1539 N1547 1.427 . S
C1540 H1531 0.930 . S
C1540 C1538 1.378 . S
C1540 C1541 1.367 . S
C1541 C1540 1.367 . S
C1541 C1543 1.433 . S
C1542 C1538 1.350 . S
C1542 C1539 1.463 . S
C1542 N1546 1.427 . S
C1543 H1533 0.929 . S
C1543 C1541 1.433 . S
C1543 N1546 1.384 . S
C1544 H1535 0.929 . S
C1544 C1536 1.378 . S
C1544 C1539 1.350 . S
C1545 H1532 0.929 . S
C1545 C1537 1.433 . S
C1545 N1547 1.384 . S
N1546 C1542 1.427 . S
N1546 C1543 1.384 . S
N1547 C1539 1.427 . S
N1547 C1545 1.384 . S
H1548 C1554 0.930 . S
H1549 C1558 0.930 . S
H1550 C1563 0.929 . S
H1551 C1561 0.929 . S
H1552 C1556 0.929 . S
H1553 C1562 0.929 1_556 S
C1554 H1548 0.930 . S
C1554 C1555 1.367 1_556 S
C1554 C1562 1.378 1_556 S
C1555 C1554 1.367 1_554 S
C1555 C1563 1.433 . S
C1556 H1552 0.929 . S
C1556 C1558 1.378 . S
C1556 C1560 1.350 . S
C1557 C1560 1.463 . S
C1557 C1562 1.350 . S
C1557 N1565 1.427 . S
C1558 H1549 0.930 . S
C1558 C1556 1.378 . S
C1558 C1559 1.367 . S
C1559 C1558 1.367 . S
C1559 C1561 1.433 . S
C1560 C1556 1.350 . S
C1560 C1557 1.463 . S
C1560 N1564 1.427 . S
C1561 H1551 0.929 . S
C1561 C1559 1.433 . S
C1561 N1564 1.384 . S
C1562 H1553 0.929 1_554 S
C1562 C1554 1.378 1_554 S
C1562 C1557 1.350 . S
C1563 H1550 0.929 . S
C1563 C1555 1.433 . S
C1563 N1565 1.384 . S
N1564 C1560 1.427 . S
N1564 C1561 1.384 . S
N1565 C1557 1.427 . S
N1565 C1563 1.384 . S
H1566 C1572 0.930 . S
H1567 C1576 0.930 . S
H1568 C1581 0.929 . S
H1569 C1579 0.929 . S
H1570 C1574 0.929 . S
H1571 C1580 0.929 . S
C1572 H1566 0.930 . S
C1572 C1573 1.367 . S
C1572 C1580 1.378 . S
C1573 C1572 1.367 . S
C1573 C1581 1.433 . S
C1574 H1570 0.929 . S
C1574 C1576 1.378 . S
C1574 C1578 1.350 . S
C1575 C1578 1.463 . S
C1575 C1580 1.350 . S
C1575 N1583 1.427 . S
C1576 H1567 0.930 . S
C1576 C1574 1.378 . S
C1576 C1577 1.367 . S
C1577 C1576 1.367 . S
C1577 C1579 1.433 1_554 S
C1578 C1574 1.350 . S
C1578 C1575 1.463 . S
C1578 N1582 1.427 . S
C1579 H1569 0.929 . S
C1579 C1577 1.433 1_556 S
C1579 N1582 1.384 1_556 S
C1580 H1571 0.929 . S
C1580 C1572 1.378 . S
C1580 C1575 1.350 . S
C1581 H1568 0.929 . S
C1581 C1573 1.433 . S
C1581 N1583 1.384 . S
N1582 C1578 1.427 . S
N1582 C1579 1.384 1_554 S
N1583 C1575 1.427 . S
N1583 C1581 1.384 . S
H1584 C1590 0.930 . S
H1585 C1594 0.930 . S
H1586 C1599 0.929 . S
H1587 C1597 0.929 . S
H1588 C1592 0.929 1_556 S
H1589 C1598 0.929 . S
C1590 H1584 0.930 . S
C1590 C1591 1.367 . S
C1590 C1598 1.378 . S
C1591 C1590 1.367 . S
C1591 C1599 1.433 . S
C1592 H1588 0.929 1_554 S
C1592 C1594 1.378 1_554 S
C1592 C1596 1.350 . S
C1593 C1596 1.463 . S
C1593 C1598 1.350 . S
C1593 N1601 1.427 . S
C1594 H1585 0.930 . S
C1594 C1592 1.378 1_556 S
C1594 C1595 1.367 1_556 S
C1595 C1594 1.367 1_554 S
C1595 C1597 1.433 . S
C1596 C1592 1.350 . S
C1596 C1593 1.463 . S
C1596 N1600 1.427 . S
C1597 H1587 0.929 . S
C1597 C1595 1.433 . S
C1597 N1600 1.384 . S
C1598 H1589 0.929 . S
C1598 C1590 1.378 . S
C1598 C1593 1.350 . S
C1599 H1586 0.929 . S
C1599 C1591 1.433 . S
C1599 N1601 1.384 . S
N1600 C1596 1.427 . S
N1600 C1597 1.384 . S
N1601 C1593 1.427 . S
N1601 C1599 1.384 . S
H1602 C1608 0.930 . S
H1603 C1612 0.930 . S
H1604 C1617 0.929 . S
H1605 C1615 0.929 . S
H1606 C1610 0.929 . S
H1607 C1616 0.929 . S
C1608 H1602 0.930 . S
C1608 C1609 1.367 . S
C1608 C1616 1.378 . S
C1609 C1608 1.367 . S
C1609 C1617 1.433 . S
C1610 H1606 0.929 . S
C1610 C1612 1.378 . S
C1610 C1614 1.350 . S
C1611 C1614 1.463 . S
C1611 C1616 1.350 . S
C1611 N1619 1.427 . S
C1612 H1603 0.930 . S
C1612 C1610 1.378 . S
C1612 C1613 1.367 . S
C1613 C1612 1.367 . S
C1613 C1615 1.433 . S
C1614 C1610 1.350 . S
C1614 C1611 1.463 . S
C1614 N1618 1.427 . S
C1615 H1605 0.929 . S
C1615 C1613 1.433 . S
C1615 N1618 1.384 . S
C1616 H1607 0.929 . S
C1616 C1608 1.378 . S
C1616 C1611 1.350 . S
C1617 H1604 0.929 . S
C1617 C1609 1.433 . S
C1617 N1619 1.384 . S
N1618 C1614 1.427 . S
N1618 C1615 1.384 . S
N1619 C1611 1.427 . S
N1619 C1617 1.384 . S
H1620 C1626 0.930 . S
H1621 C1630 0.930 . S
H1622 C1635 0.929 . S
H1623 C1633 0.929 . S
H1624 C1628 0.929 . S
H1625 C1634 0.929 . S
C1626 H1620 0.930 . S
C1626 C1627 1.367 . S
C1626 C1634 1.378 . S
C1627 C1626 1.367 . S
C1627 C1635 1.433 . S
C1628 H1624 0.929 . S
C1628 C1630 1.378 . S
C1628 C1632 1.350 . S
C1629 C1632 1.463 . S
C1629 C1634 1.350 . S
C1629 N1637 1.427 . S
C1630 H1621 0.930 . S
C1630 C1628 1.378 . S
C1630 C1631 1.367 . S
C1631 C1630 1.367 . S
C1631 C1633 1.433 . S
C1632 C1628 1.350 . S
C1632 C1629 1.463 . S
C1632 N1636 1.427 . S
C1633 H1623 0.929 . S
C1633 C1631 1.433 . S
C1633 N1636 1.384 . S
C1634 H1625 0.929 . S
C1634 C1626 1.378 . S
C1634 C1629 1.350 . S
C1635 H1622 0.929 . S
C1635 C1627 1.433 . S
C1635 N1637 1.384 . S
N1636 C1632 1.427 . S
N1636 C1633 1.384 . S
N1637 C1629 1.427 . S
N1637 C1635 1.384 . S
H1638 C1644 0.930 . S
H1639 C1648 0.930 . S
H1640 C1653 0.929 . S
H1641 C1651 0.929 . S
H1642 C1646 0.929 . S
H1643 C1652 0.929 . S
C1644 H1638 0.930 . S
C1644 C1645 1.367 . S
C1644 C1652 1.378 . S
C1645 C1644 1.367 . S
C1645 C1653 1.433 . S
C1646 H1642 0.929 . S
C1646 C1648 1.378 . S
C1646 C1650 1.350 . S
C1647 C1650 1.463 . S
C1647 C1652 1.350 . S
C1647 N1655 1.427 . S
C1648 H1639 0.930 . S
C1648 C1646 1.378 . S
C1648 C1649 1.367 . S
C1649 C1648 1.367 . S
C1649 C1651 1.433 . S
C1650 C1646 1.350 . S
C1650 C1647 1.463 . S
C1650 N1654 1.427 . S
C1651 H1641 0.929 . S
C1651 C1649 1.433 . S
C1651 N1654 1.384 . S
C1652 H1643 0.929 . S
C1652 C1644 1.378 . S
C1652 C1647 1.350 . S
C1653 H1640 0.929 . S
C1653 C1645 1.433 . S
C1653 N1655 1.384 . S
N1654 C1650 1.427 . S
N1654 C1651 1.384 . S
N1655 C1647 1.427 . S
N1655 C1653 1.384 . S
H1656 C1662 0.930 . S
H1657 C1666 0.930 . S
H1658 C1671 0.929 . S
H1659 C1669 0.929 . S
H1660 C1664 0.929 . S
H1661 C1670 0.929 . S
C1662 H1656 0.930 . S
C1662 C1663 1.367 . S
C1662 C1670 1.378 . S
C1663 C1662 1.367 . S
C1663 C1671 1.433 . S
C1664 H1660 0.929 . S
C1664 C1666 1.378 . S
C1664 C1668 1.350 . S
C1665 C1668 1.463 1_655 S
C1665 C1670 1.350 . S
C1665 N1673 1.427 . S
C1666 H1657 0.930 . S
C1666 C1664 1.378 . S
C1666 C1667 1.367 . S
C1667 C1666 1.367 . S
C1667 C1669 1.433 . S
C1668 C1664 1.350 . S
C1668 C1665 1.463 1_455 S
C1668 N1672 1.427 . S
C1669 H1659 0.929 . S
C1669 C1667 1.433 . S
C1669 N1672 1.384 . S
C1670 H1661 0.929 . S
C1670 C1662 1.378 . S
C1670 C1665 1.350 . S
C1671 H1658 0.929 . S
C1671 C1663 1.433 . S
C1671 N1673 1.384 . S
N1672 C1668 1.427 . S
N1672 C1669 1.384 . S
N1673 C1665 1.427 . S
N1673 C1671 1.384 . S
H1674 C1680 0.930 . S
H1675 C1684 0.930 . S
H1676 C1689 0.929 . S
H1677 C1687 0.929 . S
H1678 C1682 0.929 . S
H1679 C1688 0.929 . S
C1680 H1674 0.930 . S
C1680 C1681 1.367 . S
C1680 C1688 1.378 . S
C1681 C1680 1.367 . S
C1681 C1689 1.433 . S
C1682 H1678 0.929 . S
C1682 C1684 1.378 . S
C1682 C1686 1.350 . S
C1683 C1686 1.463 . S
C1683 C1688 1.350 . S
C1683 N1691 1.427 . S
C1684 H1675 0.930 . S
C1684 C1682 1.378 . S
C1684 C1685 1.367 . S
C1685 C1684 1.367 . S
C1685 C1687 1.433 . S
C1686 C1682 1.350 . S
C1686 C1683 1.463 . S
C1686 N1690 1.427 . S
C1687 H1677 0.929 . S
C1687 C1685 1.433 . S
C1687 N1690 1.384 . S
C1688 H1679 0.929 . S
C1688 C1680 1.378 . S
C1688 C1683 1.350 . S
C1689 H1676 0.929 . S
C1689 C1681 1.433 . S
C1689 N1691 1.384 . S
N1690 C1686 1.427 . S
N1690 C1687 1.384 . S
N1691 C1683 1.427 . S
N1691 C1689 1.384 . S
H1692 C1698 0.930 . S
H1693 C1702 0.930 . S
H1694 C1707 0.929 . S
H1695 C1705 0.929 . S
H1696 C1700 0.929 . S
H1697 C1706 0.929 . S
C1698 H1692 0.930 . S
C1698 C1699 1.367 . S
C1698 C1706 1.378 . S
C1699 C1698 1.367 . S
C1699 C1707 1.433 . S
C1700 H1696 0.929 . S
C1700 C1702 1.378 . S
C1700 C1704 1.350 . S
C1701 C1704 1.463 1_565 S
C1701 C1706 1.350 . S
C1701 N1709 1.427 . S
C1702 H1693 0.930 . S
C1702 C1700 1.378 . S
C1702 C1703 1.367 . S
C1703 C1702 1.367 . S
C1703 C1705 1.433 . S
C1704 C1700 1.350 . S
C1704 C1701 1.463 1_545 S
C1704 N1708 1.427 . S
C1705 H1695 0.929 . S
C1705 C1703 1.433 . S
C1705 N1708 1.384 . S
C1706 H1697 0.929 . S
C1706 C1698 1.378 . S
C1706 C1701 1.350 . S
C1707 H1694 0.929 . S
C1707 C1699 1.433 . S
C1707 N1709 1.384 . S
N1708 C1704 1.427 . S
N1708 C1705 1.384 . S
N1709 C1701 1.427 . S
N1709 C1707 1.384 . S
H1710 C1716 0.930 . S
H1711 C1720 0.930 . S
H1712 C1725 0.929 . S
H1713 C1723 0.929 . S
H1714 C1718 0.929 . S
H1715 C1724 0.929 . S
C1716 H1710 0.930 . S
C1716 C1717 1.367 . S
C1716 C1724 1.378 . S
C1717 C1716 1.367 . S
C1717 C1725 1.433 . S
C1718 H1714 0.929 . S
C1718 C1720 1.378 . S
C1718 C1722 1.350 . S
C1719 C1722 1.463 1_545 S
C1719 C1724 1.350 . S
C1719 N1727 1.427 . S
C1720 H1711 0.930 . S
C1720 C1718 1.378 . S
C1720 C1721 1.367 . S
C1721 C1720 1.367 . S
C1721 C1723 1.433 . S
C1722 C1718 1.350 . S
C1722 C1719 1.463 1_565 S
C1722 N1726 1.427 . S
C1723 H1713 0.929 . S
C1723 C1721 1.433 . S
C1723 N1726 1.384 . S
C1724 H1715 0.929 . S
C1724 C1716 1.378 . S
C1724 C1719 1.350 . S
C1725 H1712 0.929 . S
C1725 C1717 1.433 . S
C1725 N1727 1.384 . S
N1726 C1722 1.427 . S
N1726 C1723 1.384 . S
N1727 C1719 1.427 . S
N1727 C1725 1.384 . S
H1728 C1734 0.930 . S
H1729 C1738 0.930 . S
H1730 C1743 0.929 . S
H1731 C1741 0.929 . S
H1732 C1736 0.929 . S
H1733 C1742 0.929 . S
C1734 H1728 0.930 . S
C1734 C1735 1.367 . S
C1734 C1742 1.378 . S
C1735 C1734 1.367 . S
C1735 C1743 1.433 . S
C1736 H1732 0.929 . S
C1736 C1738 1.378 . S
C1736 C1740 1.350 . S
C1737 C1740 1.463 1_455 S
C1737 C1742 1.350 . S
C1737 N1745 1.427 . S
C1738 H1729 0.930 . S
C1738 C1736 1.378 . S
C1738 C1739 1.367 . S
C1739 C1738 1.367 . S
C1739 C1741 1.433 . S
C1740 C1736 1.350 . S
C1740 C1737 1.463 1_655 S
C1740 N1744 1.427 . S
C1741 H1731 0.929 . S
C1741 C1739 1.433 . S
C1741 N1744 1.384 . S
C1742 H1733 0.929 . S
C1742 C1734 1.378 . S
C1742 C1737 1.350 . S
C1743 H1730 0.929 . S
C1743 C1735 1.433 . S
C1743 N1745 1.384 . S
N1744 C1740 1.427 . S
N1744 C1741 1.384 . S
N1745 C1737 1.427 . S
N1745 C1743 1.384 . S
H1746 C1752 0.930 . S
H1747 C1756 0.930 . S
H1748 C1761 0.929 . S
H1749 C1759 0.929 . S
H1750 C1754 0.929 . S
H1751 C1760 0.929 . S
C1752 H1746 0.930 . S
C1752 C1753 1.367 . S
C1752 C1760 1.378 . S
C1753 C1752 1.367 . S
C1753 C1761 1.433 . S
C1754 H1750 0.929 . S
C1754 C1756 1.378 . S
C1754 C1758 1.350 . S
C1755 C1758 1.463 . S
C1755 C1760 1.350 . S
C1755 N1763 1.427 . S
C1756 H1747 0.930 . S
C1756 C1754 1.378 . S
C1756 C1757 1.367 . S
C1757 C1756 1.367 . S
C1757 C1759 1.433 . S
C1758 C1754 1.350 . S
C1758 C1755 1.463 . S
C1758 N1762 1.427 . S
C1759 H1749 0.929 . S
C1759 C1757 1.433 . S
C1759 N1762 1.384 . S
C1760 H1751 0.929 . S
C1760 C1752 1.378 . S
C1760 C1755 1.350 . S
C1761 H1748 0.929 . S
C1761 C1753 1.433 . S
C1761 N1763 1.384 . S
N1762 C1758 1.427 . S
N1762 C1759 1.384 . S
N1763 C1755 1.427 . S
N1763 C1761 1.384 . S
C475 C75 1.137 . S
C479 C4 1.138 . S
C493 C17 1.145 . S
C497 C49 1.143 . S
C511 C62 1.140 . S
C515 C36 1.142 . S
C529 C82 1.146 . S
C533 C147 1.148 . S
C547 C95 1.140 . S
C551 C121 1.138 . S
C565 C134 1.138 . S
C569 C114 1.140 . S
C583 C225 1.148 . S
C587 C160 1.148 . S
C601 C179 1.145 . S
C605 C205 1.147 . S
C619 C218 1.147 . S
C623 C192 1.145 . S
C637 C238 1.146 . S
C641 C309 1.148 . S
C655 C257 1.138 . S
C659 C277 1.137 . S
C673 C264 1.145 . S
C677 C290 1.142 . S
C691 C316 1.146 . S
C695 C387 1.144 . S
C709 C361 1.138 . S
C713 C329 1.139 . S
C727 C342 1.139 . S
C731 C374 1.141 . S
C745 C400 1.139 . S
C749 C465 1.137 . S
C763 C407 1.137 . S
C767 C439 1.138 . S
C781 C420 1.137 . S
C785 C452 1.138 . S
C799 C140 1.396 . S
C803 C5 1.383 . S
C817 C153 1.397 . S
C821 C18 1.380 . S
C835 C127 1.397 . S
C839 C29 1.379 . S
C853 C108 1.395 . S
C857 C42 1.385 . S
C871 C55 1.386 . S
C875 C88 1.395 . S
C889 C68 1.385 . S
C893 C101 1.395 . S
C907 C83 1.387 . S
C911 C56 1.394 . S
C925 C96 1.385 . S
C929 C69 1.393 . S
C943 C107 1.379 . S
C947 C43 1.397 . S
C961 C30 1.397 . S
C965 C122 1.379 . S
C979 C10 1.393 . S
C983 C135 1.388 . S
C997 C148 1.387 . S
C1001 C23 1.393 . S
C1015 C161 1.380 . S
C1019 C296 1.397 . S
C1033 C172 1.385 . S
C1037 C303 1.395 . S
C1051 C283 1.394 . S
C1055 C185 1.387 . S
C1069 C198 1.381 . S
C1073 C270 1.395 . S
C1087 C211 1.379 . S
C1091 C244 1.397 . S
C1105 C226 1.384 . S
C1109 C251 1.394 . S
C1123 C239 1.384 . S
C1127 C212 1.396 . S
C1141 C231 1.394 . S
C1145 C250 1.383 . S
C1159 C199 1.393 . S
C1163 C265 1.388 . S
C1177 C278 1.383 . S
C1181 C186 1.396 . S
C1195 C166 1.394 . S
C1199 C291 1.382 . S
C1213 C173 1.397 . S
C1217 C302 1.379 . S
C1231 C446 1.396 . S
C1235 C317 1.379 . S
C1249 C330 1.384 . S
C1253 C459 1.396 . S
C1267 C343 1.385 . S
C1271 C433 1.393 . S
C1285 C426 1.393 . S
C1289 C354 1.388 . S
C1303 C394 1.397 . S
C1307 C367 1.382 . S
C1321 C413 1.396 . S
C1325 C380 1.379 . S
C1339 C393 1.385 . S
C1343 C368 1.395 . S
C1357 C381 1.396 . S
C1361 C408 1.379 . S
C1375 C421 1.385 . S
C1379 C355 1.393 . S
C1393 C348 1.397 . S
C1397 C432 1.379 . S
C1411 C322 1.395 . S
C1415 C445 1.386 . S
C1429 C335 1.394 . S
C1433 C458 1.387 . S
C1447 C213 1.389 . S
C1451 C3 1.399 1_556 S
C1465 C16 1.391 1_556 S
C1469 C224 1.398 . S
C1483 C200 1.398 . S
C1487 C31 1.391 1_556 S
C1501 C341 1.391 . S
C1505 C44 1.397 . S
C1519 C57 1.391 . S
C1523 C315 1.397 . S
C1537 C70 1.391 . S
C1541 C328 1.398 . S
C1555 C81 1.394 1_554 S
C1559 C447 1.395 . S
C1573 C460 1.394 . S
C1577 C94 1.393 1_554 S
C1591 C434 1.393 . S
C1595 C109 1.396 1_554 S
C1609 C263 1.398 . S
C1613 C120 1.391 . S
C1627 C133 1.391 . S
C1631 C237 1.397 . S
C1645 C146 1.398 . S
C1649 C252 1.390 . S
C1663 C159 1.390 . S
C1667 C369 1.398 . S
C1681 C382 1.396 . S
C1685 C174 1.391 . S
C1699 C356 1.390 . S
C1703 C187 1.398 . S
C1717 C276 1.396 . S
C1721 C419 1.391 . S
C1735 C395 1.389 . S
C1739 C289 1.398 . S
C1753 C406 1.399 . S
C1757 C304 1.389 . S
