# Generated by pormake.
# Topology umc, (4)-cn, num edge types: 1
# Building blocks:
#     Node 0, Type 0, BuildingBlock: ICAMEG_clean_sbu_1, # of connection points: 4
#     Node 1, Type 0, BuildingBlock: ICAMEG_clean_sbu_1, # of connection points: 4
#     Node 2, Type 0, BuildingBlock: ICAMEG_clean_sbu_1, # of connection points: 4
#     Node 3, Type 0, BuildingBlock: ICAMEG_clean_sbu_1, # of connection points: 4
#     Node 4, Type 0, BuildingBlock: ICAMEG_clean_sbu_1, # of connection points: 4
#     Node 5, Type 0, BuildingBlock: ICAMEG_clean_sbu_1, # of connection points: 4
#     Node 6, Type 0, BuildingBlock: ICAMEG_clean_sbu_1, # of connection points: 4
#     Node 7, Type 0, BuildingBlock: ICAMEG_clean_sbu_1, # of connection points: 4
#     Node 8, Type 0, BuildingBlock: ICAMEG_clean_sbu_1, # of connection points: 4
#     Node 9, Type 0, BuildingBlock: ICAMEG_clean_sbu_1, # of connection points: 4
#     Node 10, Type 0, BuildingBlock: ICAMEG_clean_sbu_1, # of connection points: 4
#     Node 11, Type 0, BuildingBlock: ICAMEG_clean_sbu_1, # of connection points: 4
#     Node 12, Type 0, BuildingBlock: ICAMEG_clean_sbu_1, # of connection points: 4
#     Node 13, Type 0, BuildingBlock: ICAMEG_clean_sbu_1, # of connection points: 4
#     Node 14, Type 0, BuildingBlock: ICAMEG_clean_sbu_1, # of connection points: 4
#     Node 15, Type 0, BuildingBlock: ICAMEG_clean_sbu_1, # of connection points: 4
#     Edge 16, Type (0, 0), BuildingBlock: UVAHIK_clean_linker_0, # of connection points: 2
#     Edge 17, Type (0, 0), BuildingBlock: UVAHIK_clean_linker_0, # of connection points: 2
#     Edge 18, Type (0, 0), BuildingBlock: UVAHIK_clean_linker_0, # of connection points: 2
#     Edge 19, Type (0, 0), BuildingBlock: UVAHIK_clean_linker_0, # of connection points: 2
#     Edge 20, Type (0, 0), BuildingBlock: UVAHIK_clean_linker_0, # of connection points: 2
#     Edge 21, Type (0, 0), BuildingBlock: UVAHIK_clean_linker_0, # of connection points: 2
#     Edge 22, Type (0, 0), BuildingBlock: UVAHIK_clean_linker_0, # of connection points: 2
#     Edge 23, Type (0, 0), BuildingBlock: UVAHIK_clean_linker_0, # of connection points: 2
#     Edge 24, Type (0, 0), BuildingBlock: UVAHIK_clean_linker_0, # of connection points: 2
#     Edge 25, Type (0, 0), BuildingBlock: UVAHIK_clean_linker_0, # of connection points: 2
#     Edge 26, Type (0, 0), BuildingBlock: UVAHIK_clean_linker_0, # of connection points: 2
#     Edge 27, Type (0, 0), BuildingBlock: UVAHIK_clean_linker_0, # of connection points: 2
#     Edge 28, Type (0, 0), BuildingBlock: UVAHIK_clean_linker_0, # of connection points: 2
#     Edge 29, Type (0, 0), BuildingBlock: UVAHIK_clean_linker_0, # of connection points: 2
#     Edge 30, Type (0, 0), BuildingBlock: UVAHIK_clean_linker_0, # of connection points: 2
#     Edge 31, Type (0, 0), BuildingBlock: UVAHIK_clean_linker_0, # of connection points: 2
#     Edge 32, Type (0, 0), BuildingBlock: UVAHIK_clean_linker_0, # of connection points: 2
#     Edge 33, Type (0, 0), BuildingBlock: UVAHIK_clean_linker_0, # of connection points: 2
#     Edge 34, Type (0, 0), BuildingBlock: UVAHIK_clean_linker_0, # of connection points: 2
#     Edge 35, Type (0, 0), BuildingBlock: UVAHIK_clean_linker_0, # of connection points: 2
#     Edge 36, Type (0, 0), BuildingBlock: UVAHIK_clean_linker_0, # of connection points: 2
#     Edge 37, Type (0, 0), BuildingBlock: UVAHIK_clean_linker_0, # of connection points: 2
#     Edge 38, Type (0, 0), BuildingBlock: UVAHIK_clean_linker_0, # of connection points: 2
#     Edge 39, Type (0, 0), BuildingBlock: UVAHIK_clean_linker_0, # of connection points: 2
#     Edge 40, Type (0, 0), BuildingBlock: UVAHIK_clean_linker_0, # of connection points: 2
#     Edge 41, Type (0, 0), BuildingBlock: UVAHIK_clean_linker_0, # of connection points: 2
#     Edge 42, Type (0, 0), BuildingBlock: UVAHIK_clean_linker_0, # of connection points: 2
#     Edge 43, Type (0, 0), BuildingBlock: UVAHIK_clean_linker_0, # of connection points: 2
#     Edge 44, Type (0, 0), BuildingBlock: UVAHIK_clean_linker_0, # of connection points: 2
#     Edge 45, Type (0, 0), BuildingBlock: UVAHIK_clean_linker_0, # of connection points: 2
#     Edge 46, Type (0, 0), BuildingBlock: UVAHIK_clean_linker_0, # of connection points: 2
#     Edge 47, Type (0, 0), BuildingBlock: UVAHIK_clean_linker_0, # of connection points: 2
# Relax obj value: 0.052
# Max RMSD: 0.131
# Mean RMSD: 0.131
data_MOF--net-umc--node1-ICAMEG_clean_sbu_1--edge1-UVAHIK_clean_linker_0
_symmetry_space_group_name_H-M    P1
_symmetry_Int_Tables_number       1
_symmetry_cell_setting            triclinic
loop_
_symmetry_equiv_pos_as_xyz
'x, y, z'
_cell_length_a     64.349974
_cell_length_b     43.075789
_cell_length_c     77.991276
_cell_angle_alpha  89.982107
_cell_angle_beta   89.991183
_cell_angle_gamma 89.988501
loop_
_atom_site_label
_atom_site_type_symbol
_atom_site_fract_x
_atom_site_fract_y
_atom_site_fract_z
_atom_type_partial_charge
Co0 Co 0.34346 0.02925 0.37134 0.0
Co1 Co 0.35984 0.09962 0.35473 0.0
O2 O 0.34395 0.0746 0.37095 0.0
C3 C 0.35957 0.0473 0.40508 0.0
O4 O 0.37191 0.0663 0.39675 0.0
C5 C 0.31662 0.12027 0.34996 0.0
O6 O 0.31091 0.09101 0.35013 0.0
O7 O 0.35002 0.07398 0.33512 0.0
O8 O 0.34028 0.02779 0.34595 0.0
H9 H 0.40828 0.11695 0.30513 0.0
H10 H 0.31489 0.06486 0.39379 0.0
O11 O 0.34684 0.03021 0.39686 0.0
H12 H 0.26955 0.00225 0.35636 0.0
H13 H 0.3227 0.92548 0.39557 0.0
H14 H 0.36206 0.97927 0.35016 0.0
H15 H 0.30769 0.99858 0.35392 0.0
H16 H 0.32355 0.98271 0.39434 0.0
O17 O 0.33563 0.12764 0.35167 0.0
H18 H 0.38851 0.08567 0.32602 0.0
H19 H 0.36424 0.16771 0.34862 0.0
H20 H 0.3615 0.92202 0.35082 0.0
H21 H 0.27683 0.06909 0.39674 0.0
H22 H 0.34171 0.89476 0.37365 0.0
H23 H 0.25388 0.0377 0.3779 0.0
O24 O 0.37422 0.02666 0.36873 0.0
H25 H 0.35077 0.15906 0.40965 0.0
H26 H 0.40093 0.12481 0.36578 0.0
H27 H 0.41333 0.15494 0.39064 0.0
H28 H 0.38815 0.17228 0.4128 0.0
H29 H 0.33912 0.12858 0.38466 0.0
H30 H 0.38359 0.19987 0.32789 0.0
H31 H 0.40588 0.17449 0.30598 0.0
O32 O 0.38441 0.07233 0.35755 0.0
C33 C 0.34314 0.04635 0.33342 0.0
C34 C 0.39868 0.12829 0.31465 0.0
C35 C 0.38479 0.17483 0.3274 0.0
N36 N 0.37537 0.12485 0.3386 0.0
C37 C 0.3875 0.1107 0.32654 0.0
C38 C 0.37383 0.15649 0.33908 0.0
C39 C 0.3973 0.16057 0.31512 0.0
C40 C 0.30501 0.0509 0.38566 0.0
N41 N 0.3135 0.03136 0.37377 0.0
C42 C 0.28347 0.05349 0.38734 0.0
C43 C 0.2706 0.0359 0.37675 0.0
C44 C 0.27938 0.01602 0.36465 0.0
C45 C 0.30099 0.01408 0.36332 0.0
C46 C 0.33135 0.9371 0.38554 0.0
C47 C 0.35331 0.96756 0.36006 0.0
C48 C 0.33191 0.96948 0.3848 0.0
N49 N 0.3427 0.98428 0.37211 0.0
C50 C 0.3531 0.93515 0.3604 0.0
C51 C 0.34201 0.91987 0.37323 0.0
C52 C 0.38814 0.04504 0.36302 0.0
C53 C 0.3619 0.15162 0.40009 0.0
C54 C 0.38994 0.13204 0.37544 0.0
C55 C 0.39702 0.14923 0.38945 0.0
C56 C 0.38288 0.15899 0.40186 0.0
N57 N 0.36937 0.12476 0.37383 0.0
C58 C 0.35539 0.13443 0.38589 0.0
Co59 Co 0.64683 0.9741 0.37078 0.0
Co60 Co 0.63139 0.90199 0.35625 0.0
O61 O 0.64596 0.92889 0.37232 0.0
C62 C 0.62862 0.96076 0.40437 0.0
O63 O 0.616 0.94205 0.39614 0.0
C64 C 0.6743 0.87862 0.35609 0.0
O65 O 0.68061 0.90749 0.35461 0.0
O66 O 0.64433 0.9236 0.33643 0.0
O67 O 0.65136 0.97211 0.34549 0.0
H68 H 0.58909 0.87813 0.30375 0.0
H69 H 0.67398 0.94136 0.39566 0.0
O70 O 0.64214 0.9764 0.39613 0.0
H71 H 0.72162 0.99834 0.35741 0.0
H72 H 0.66702 0.08057 0.39144 0.0
H73 H 0.62963 0.02132 0.34701 0.0
H74 H 0.68367 0.00195 0.35344 0.0
H75 H 0.66584 0.02334 0.39251 0.0
O76 O 0.65503 0.87237 0.35689 0.0
H77 H 0.60707 0.91206 0.32446 0.0
H78 H 0.62562 0.83345 0.35356 0.0
H79 H 0.63055 0.0785 0.34536 0.0
H80 H 0.71182 0.93729 0.40018 0.0
H81 H 0.64936 0.10851 0.36769 0.0
H82 H 0.73592 0.96585 0.38094 0.0
O83 O 0.61629 0.97659 0.36697 0.0
H84 H 0.63169 0.85166 0.41437 0.0
H85 H 0.5882 0.88243 0.36518 0.0
H86 H 0.57183 0.85772 0.3903 0.0
H87 H 0.59363 0.84217 0.41514 0.0
H88 H 0.64738 0.87668 0.38904 0.0
H89 H 0.60798 0.79865 0.3331 0.0
H90 H 0.58948 0.82099 0.30801 0.0
O91 O 0.60739 0.93082 0.35533 0.0
C92 C 0.65057 0.95134 0.33384 0.0
C93 C 0.59704 0.86813 0.31466 0.0
C94 C 0.60767 0.82352 0.33112 0.0
N95 N 0.61723 0.87476 0.34027 0.0
C96 C 0.60719 0.88723 0.32645 0.0
C97 C 0.61766 0.84333 0.34264 0.0
C98 C 0.59728 0.83606 0.31705 0.0
C99 C 0.68436 0.9541 0.38734 0.0
N100 N 0.67662 0.97201 0.37437 0.0
C101 C 0.70577 0.9516 0.38992 0.0
C102 C 0.71929 0.96759 0.3791 0.0
C103 C 0.71128 0.98581 0.36589 0.0
C104 C 0.68978 0.98772 0.36368 0.0
C105 C 0.65882 0.06775 0.38161 0.0
C106 C 0.63797 0.03422 0.3567 0.0
C107 C 0.65807 0.03536 0.38217 0.0
N108 N 0.64785 0.01904 0.36974 0.0
C109 C 0.63838 0.06659 0.35573 0.0
C110 C 0.64891 0.08341 0.36828 0.0
C111 C 0.60307 0.95827 0.3602 0.0
C112 C 0.62203 0.85828 0.40361 0.0
C113 C 0.59777 0.87581 0.37595 0.0
C114 C 0.58843 0.86175 0.39012 0.0
C115 C 0.60067 0.853 0.40405 0.0
N116 N 0.61872 0.88097 0.37563 0.0
C117 C 0.63084 0.87233 0.3892 0.0
Co118 Co 0.3459 0.96911 0.12277 0.0
Co119 Co 0.36129 0.89608 0.13606 0.0
O120 O 0.3464 0.92395 0.12068 0.0
C121 C 0.36356 0.95707 0.08882 0.0
O122 O 0.37602 0.93758 0.09666 0.0
C123 C 0.31809 0.87376 0.13733 0.0
O124 O 0.31207 0.90272 0.13905 0.0
O125 O 0.34955 0.91743 0.15651 0.0
O126 O 0.34175 0.96604 0.14806 0.0
H127 H 0.40562 0.86933 0.18699 0.0
H128 H 0.31819 0.93789 0.09773 0.0
O129 O 0.35025 0.97252 0.09741 0.0
H130 H 0.27147 0.99383 0.1372 0.0
H131 H 0.32611 0.07676 0.10371 0.0
H132 H 0.36369 0.01501 0.14702 0.0
H133 H 0.30949 0.9967 0.14085 0.0
H134 H 0.32691 0.01958 0.10188 0.0
O135 O 0.33726 0.86717 0.13592 0.0
H136 H 0.38719 0.90443 0.16715 0.0
H137 H 0.36625 0.8273 0.13797 0.0
H138 H 0.36316 0.07211 0.14943 0.0
H139 H 0.28027 0.93458 0.09354 0.0
H140 H 0.34426 0.10337 0.12767 0.0
H141 H 0.25663 0.96262 0.11339 0.0
O142 O 0.37653 0.97105 0.12636 0.0
H143 H 0.3576 0.84794 0.07748 0.0
H144 H 0.40369 0.87504 0.12568 0.0
H145 H 0.41854 0.85065 0.09984 0.0
H146 H 0.39542 0.83693 0.07549 0.0
H147 H 0.34346 0.87263 0.10352 0.0
H148 H 0.3843 0.79135 0.15758 0.0
H149 H 0.40423 0.81234 0.18226 0.0
O150 O 0.38567 0.92418 0.13649 0.0
C151 C 0.34322 0.94498 0.15952 0.0
C152 C 0.39704 0.8599 0.17625 0.0
C153 C 0.38505 0.81613 0.15976 0.0
N154 N 0.3758 0.86794 0.15135 0.0
C155 C 0.38663 0.87967 0.16495 0.0
C156 C 0.37482 0.8366 0.14872 0.0
C157 C 0.39624 0.82793 0.1736 0.0
C158 C 0.30801 0.95039 0.10632 0.0
N159 N 0.31605 0.96761 0.11946 0.0
C160 C 0.28655 0.94833 0.10393 0.0
C161 C 0.27329 0.96403 0.11509 0.0
C162 C 0.28161 0.98153 0.12845 0.0
C163 C 0.30315 0.98302 0.13048 0.0
C164 C 0.33436 0.06339 0.1133 0.0
C165 C 0.35532 0.02846 0.13757 0.0
C166 C 0.3349 0.03102 0.1123 0.0
N167 N 0.34518 0.014 0.12442 0.0
C168 C 0.35513 0.06078 0.13897 0.0
C169 C 0.34454 0.07831 0.12674 0.0
C170 C 0.38991 0.95202 0.13229 0.0
C171 C 0.36783 0.85378 0.08801 0.0
C172 C 0.39356 0.86928 0.11512 0.0
C173 C 0.40204 0.85536 0.10054 0.0
C174 C 0.38905 0.84765 0.08689 0.0
N175 N 0.37275 0.87531 0.11611 0.0
C176 C 0.35991 0.86766 0.10281 0.0
Co177 Co 0.64851 0.02556 0.12254 0.0
Co178 Co 0.63271 0.09745 0.13728 0.0
O179 O 0.6476 0.07082 0.12123 0.0
C180 C 0.63037 0.03895 0.0889 0.0
O181 O 0.61793 0.0581 0.097 0.0
C182 C 0.67566 0.12086 0.1387 0.0
O183 O 0.68205 0.09205 0.14026 0.0
O184 O 0.64501 0.07522 0.15724 0.0
O185 O 0.65304 0.02734 0.14777 0.0
H186 H 0.58903 0.12032 0.18916 0.0
H187 H 0.67558 0.05877 0.09781 0.0
O188 O 0.64384 0.02336 0.09721 0.0
H189 H 0.72336 0.00135 0.13574 0.0
H190 H 0.66887 0.91933 0.10157 0.0
H191 H 0.63153 0.97808 0.14625 0.0
H192 H 0.68542 0.99759 0.13975 0.0
H193 H 0.66759 0.97656 0.10065 0.0
O194 O 0.65641 0.12692 0.1373 0.0
H195 H 0.60745 0.08677 0.16852 0.0
H196 H 0.62712 0.16597 0.14042 0.0
H197 H 0.63256 0.92089 0.14776 0.0
H198 H 0.71341 0.063 0.09326 0.0
H199 H 0.65133 0.89114 0.1253 0.0
H200 H 0.73758 0.03421 0.11234 0.0
O201 O 0.61794 0.02283 0.12635 0.0
H202 H 0.63484 0.14915 0.07955 0.0
H203 H 0.5899 0.11796 0.12775 0.0
H204 H 0.57434 0.14352 0.10255 0.0
H205 H 0.59688 0.1593 0.0782 0.0
H206 H 0.6497 0.12326 0.10495 0.0
H207 H 0.60906 0.20039 0.16083 0.0
H208 H 0.58977 0.17757 0.18538 0.0
O209 O 0.60864 0.06881 0.13753 0.0
C210 C 0.65164 0.04762 0.15964 0.0
C211 C 0.59732 0.13054 0.17849 0.0
C212 C 0.60859 0.17548 0.1626 0.0
N213 N 0.6182 0.12439 0.15321 0.0
C214 C 0.60773 0.11166 0.16673 0.0
C215 C 0.61882 0.15588 0.1511 0.0
C216 C 0.59776 0.16266 0.17637 0.0
C217 C 0.68599 0.04596 0.10607 0.0
N218 N 0.6783 0.02783 0.11896 0.0
C219 C 0.7074 0.04854 0.10347 0.0
C220 C 0.72095 0.03241 0.1142 0.0
C221 C 0.71298 0.01398 0.12734 0.0
C222 C 0.69149 0.012 0.12956 0.0
C223 C 0.66067 0.93204 0.11145 0.0
C224 C 0.63984 0.96529 0.1365 0.0
C225 C 0.65986 0.96443 0.11097 0.0
N226 N 0.64964 0.98062 0.12346 0.0
C227 C 0.64032 0.93291 0.13739 0.0
C228 C 0.65084 0.91623 0.12477 0.0
C229 C 0.60452 0.04122 0.1328 0.0
C230 C 0.62486 0.14242 0.09008 0.0
C231 C 0.59978 0.12462 0.11719 0.0
C232 C 0.5909 0.13919 0.10297 0.0
C233 C 0.60356 0.14807 0.08932 0.0
N234 N 0.62068 0.11907 0.11783 0.0
C235 C 0.6332 0.12785 0.10453 0.0
Co236 Co 0.64747 0.96647 0.62244 0.0
Co237 Co 0.63095 0.8957 0.63844 0.0
O238 O 0.64699 0.92111 0.6225 0.0
C239 C 0.63186 0.94945 0.58838 0.0
O240 O 0.61947 0.93001 0.59634 0.0
C241 C 0.67417 0.87506 0.6433 0.0
O242 O 0.67985 0.90433 0.64327 0.0
O243 O 0.6405 0.92094 0.65833 0.0
O244 O 0.65032 0.96732 0.64783 0.0
H245 H 0.5819 0.8772 0.68751 0.0
H246 H 0.67635 0.93147 0.59998 0.0
O247 O 0.64444 0.96624 0.59692 0.0
H248 H 0.72117 0.99318 0.63828 0.0
H249 H 0.6685 0.0709 0.59925 0.0
H250 H 0.62851 0.01587 0.64382 0.0
H251 H 0.683 0.99677 0.64041 0.0
H252 H 0.6677 0.01365 0.60002 0.0
O253 O 0.65517 0.86767 0.64152 0.0
H254 H 0.60188 0.90897 0.66698 0.0
H255 H 0.62661 0.82747 0.64411 0.0
H256 H 0.62902 0.07313 0.64362 0.0
H257 H 0.71445 0.92734 0.59735 0.0
H258 H 0.64913 0.10102 0.62121 0.0
H259 H 0.73713 0.95828 0.61662 0.0
O260 O 0.61667 0.96892 0.62478 0.0
H261 H 0.64074 0.83739 0.58324 0.0
H262 H 0.59003 0.87059 0.62692 0.0
H263 H 0.57797 0.8409 0.60179 0.0
H264 H 0.60343 0.82407 0.57973 0.0
H265 H 0.65206 0.86743 0.60849 0.0
H266 H 0.60705 0.79483 0.66448 0.0
H267 H 0.58443 0.81969 0.68633 0.0
O268 O 0.60637 0.92299 0.63557 0.0
C269 C 0.64733 0.94854 0.66023 0.0
C270 C 0.59165 0.86609 0.67801 0.0
C271 C 0.60579 0.81986 0.6651 0.0
N272 N 0.61526 0.87009 0.65428 0.0
C273 C 0.60295 0.88395 0.66632 0.0
C274 C 0.61687 0.83846 0.65363 0.0
C275 C 0.5931 0.83383 0.67736 0.0
C276 C 0.68612 0.94523 0.6083 0.0
N277 N 0.67747 0.96447 0.62026 0.0
C278 C 0.70768 0.9427 0.6068 0.0
C279 C 0.7204 0.96003 0.61764 0.0
C280 C 0.71145 0.97961 0.6298 0.0
C281 C 0.68983 0.9815 0.63096 0.0
C282 C 0.65972 0.05901 0.6091 0.0
C283 C 0.6374 0.02785 0.6341 0.0
C284 C 0.65917 0.02661 0.60958 0.0
N285 N 0.6482 0.01146 0.62204 0.0
C286 C 0.63758 0.06027 0.63402 0.0
C287 C 0.64885 0.0759 0.62143 0.0
C288 C 0.60269 0.95038 0.63022 0.0
C289 C 0.62949 0.84461 0.59276 0.0
C290 C 0.60115 0.8636 0.6173 0.0
C291 C 0.59425 0.84664 0.60314 0.0
C292 C 0.60855 0.83717 0.59078 0.0
N293 N 0.62168 0.87093 0.61912 0.0
C294 C 0.63581 0.86155 0.6071 0.0
Co295 Co 0.34402 0.02477 0.62278 0.0
Co296 Co 0.36008 0.09531 0.63912 0.0
O297 O 0.34518 0.07004 0.62243 0.0
C298 C 0.362 0.04053 0.58937 0.0
O299 O 0.37473 0.05862 0.59791 0.0
C300 C 0.3173 0.11919 0.64028 0.0
O301 O 0.31082 0.09033 0.64116 0.0
O302 O 0.34727 0.0721 0.65847 0.0
O303 O 0.33967 0.02469 0.64811 0.0
H304 H 0.40314 0.11397 0.69185 0.0
H305 H 0.31692 0.06003 0.59894 0.0
O306 O 0.34849 0.02446 0.59737 0.0
H307 H 0.26916 0.0005 0.63588 0.0
H308 H 0.32298 0.92042 0.59953 0.0
H309 H 0.36098 0.97538 0.64528 0.0
H310 H 0.30711 0.99597 0.63956 0.0
H311 H 0.32455 0.97766 0.5999 0.0
O312 O 0.3366 0.12522 0.63946 0.0
H313 H 0.38474 0.08213 0.67039 0.0
H314 H 0.36624 0.16345 0.64363 0.0
H315 H 0.35967 0.91814 0.6455 0.0
H316 H 0.27908 0.06507 0.59474 0.0
H317 H 0.34056 0.89029 0.6225 0.0
H318 H 0.25492 0.03523 0.61333 0.0
O319 O 0.37459 0.02151 0.62633 0.0
H320 H 0.35939 0.15084 0.58246 0.0
H321 H 0.40327 0.11514 0.63038 0.0
H322 H 0.41949 0.14192 0.60585 0.0
H323 H 0.39749 0.15997 0.58165 0.0
H324 H 0.34385 0.12371 0.60719 0.0
H325 H 0.3843 0.19618 0.66486 0.0
H326 H 0.40299 0.17143 0.68915 0.0
O327 O 0.38391 0.06614 0.63905 0.0
C328 C 0.34079 0.0443 0.66034 0.0
C329 C 0.39511 0.12502 0.68129 0.0
C330 C 0.38451 0.17117 0.66616 0.0
N331 N 0.37457 0.12091 0.6557 0.0
C332 C 0.38471 0.10711 0.66908 0.0
C333 C 0.37427 0.15252 0.6542 0.0
C334 C 0.395 0.15726 0.67978 0.0
C335 C 0.30651 0.04675 0.60697 0.0
N336 N 0.31421 0.02761 0.61942 0.0
C337 C 0.2851 0.04979 0.60458 0.0
C338 C 0.27155 0.03308 0.61503 0.0
C339 C 0.27953 0.0136 0.6277 0.0
C340 C 0.30103 0.01118 0.62974 0.0
C341 C 0.33132 0.93229 0.60964 0.0
C342 C 0.35252 0.96342 0.6353 0.0
C343 C 0.33229 0.96468 0.6099 0.0
N344 N 0.34269 0.97981 0.62268 0.0
C345 C 0.35189 0.93101 0.63546 0.0
C346 C 0.34118 0.9154 0.62254 0.0
C347 C 0.388 0.03907 0.63345 0.0
C348 C 0.36914 0.14314 0.59294 0.0
C349 C 0.39361 0.12283 0.61989 0.0
C350 C 0.40287 0.13806 0.60605 0.0
C351 C 0.39052 0.14821 0.59248 0.0
N352 N 0.37264 0.11788 0.62023 0.0
C353 C 0.36041 0.12787 0.60701 0.0
Co354 Co 0.64655 0.02852 0.8709 0.0
Co355 Co 0.6318 0.10176 0.85744 0.0
O356 O 0.6467 0.07374 0.87275 0.0
C357 C 0.6296 0.04164 0.90497 0.0
O358 O 0.61744 0.06167 0.89722 0.0
C359 C 0.67525 0.12283 0.85512 0.0
O360 O 0.68093 0.0937 0.85352 0.0
O361 O 0.64267 0.0796 0.83693 0.0
O362 O 0.65036 0.03107 0.84558 0.0
H363 H 0.58648 0.12881 0.80716 0.0
H364 H 0.67502 0.05934 0.8955 0.0
O365 O 0.64251 0.02562 0.8963 0.0
H366 H 0.72043 0.0014 0.85587 0.0
H367 H 0.66524 0.92064 0.8903 0.0
H368 H 0.6278 0.98275 0.84708 0.0
H369 H 0.68233 -0.0004 0.8526 0.0
H370 H 0.66521 0.97786 0.89185 0.0
O371 O 0.6562 0.12989 0.85692 0.0
H372 H 0.60496 0.09357 0.8269 0.0
H373 H 0.62774 0.17065 0.85516 0.0
H374 H 0.62756 0.92561 0.84495 0.0
H375 H 0.71305 0.0616 0.89931 0.0
H376 H 0.64639 0.89416 0.86667 0.0
H377 H 0.73602 0.03255 0.87937 0.0
O378 O 0.61585 0.02738 0.86764 0.0
H379 H 0.63783 0.15103 0.91561 0.0
H380 H 0.59003 0.12454 0.86845 0.0
H381 H 0.57628 0.15 0.89439 0.0
H382 H 0.60026 0.16342 0.91821 0.0
H383 H 0.65086 0.12528 0.88949 0.0
H384 H 0.60967 0.20673 0.83564 0.0
H385 H 0.58878 0.18584 0.81148 0.0
O386 O 0.60703 0.07449 0.85766 0.0
C387 C 0.64875 0.05188 0.83401 0.0
C388 C 0.59548 0.13819 0.81768 0.0
C389 C 0.60852 0.18193 0.83364 0.0
N390 N 0.61728 0.13003 0.84224 0.0
C391 C 0.60592 0.11835 0.82892 0.0
C392 C 0.61876 0.16139 0.84463 0.0
C393 C 0.59679 0.17019 0.82009 0.0
C394 C 0.68491 0.04641 0.88687 0.0
N395 N 0.67647 0.02922 0.87391 0.0
C396 C 0.70643 0.04787 0.88905 0.0
C397 C 0.71932 0.0316 0.87784 0.0
C398 C 0.71058 0.01414 0.86465 0.0
C399 C 0.689 0.01325 0.86284 0.0
C400 C 0.65702 0.93409 0.88074 0.0
C401 C 0.63614 0.96922 0.85651 0.0
C402 C 0.65692 0.96648 0.88157 0.0
N403 N 0.64667 0.9836 0.86948 0.0
C404 C 0.6359 0.93688 0.85527 0.0
C405 C 0.64645 0.91925 0.86747 0.0
C406 C 0.60257 0.04678 0.86194 0.0
C407 C 0.62723 0.14533 0.90531 0.0
C408 C 0.60053 0.13015 0.87879 0.0
C409 C 0.59267 0.14468 0.89342 0.0
C410 C 0.60614 0.15223 0.90678 0.0
N411 N 0.62121 0.12335 0.87746 0.0
C412 C 0.63453 0.13084 0.89047 0.0
Co413 Co 0.34405 0.97433 0.87117 0.0
Co414 Co 0.36031 0.90191 0.85768 0.0
O415 O 0.3455 0.92923 0.87337 0.0
C416 C 0.36311 0.96311 0.90466 0.0
O417 O 0.3758 0.94448 0.89644 0.0
C418 C 0.31768 0.87745 0.85767 0.0
O419 O 0.31103 0.90606 0.85573 0.0
O420 O 0.34715 0.92232 0.83756 0.0
O421 O 0.3391 0.97088 0.84597 0.0
H422 H 0.40281 0.87653 0.80548 0.0
H423 H 0.31779 0.94208 0.8969 0.0
O424 O 0.34918 0.97799 0.89644 0.0
H425 H 0.26872 0.99581 0.85844 0.0
H426 H 0.32288 0.08119 0.89053 0.0
H427 H 0.3601 0.02082 0.84644 0.0
H428 H 0.30654 0.00023 0.8539 0.0
H429 H 0.32484 0.02407 0.89243 0.0
O430 O 0.33701 0.87179 0.85876 0.0
H431 H 0.3845 0.91102 0.82572 0.0
H432 H 0.3668 0.83341 0.85598 0.0
H433 H 0.35839 0.07786 0.84394 0.0
H434 H 0.2801 0.93723 0.90199 0.0
H435 H 0.33967 0.10843 0.8661 0.0
H436 H 0.25528 0.96416 0.88265 0.0
O437 O 0.37448 0.97757 0.86687 0.0
H438 H 0.36056 0.85452 0.91655 0.0
H439 H 0.40369 0.88362 0.86683 0.0
H440 H 0.42033 0.86052 0.8923 0.0
H441 H 0.3987 0.84582 0.91741 0.0
H442 H 0.34461 0.87791 0.89086 0.0
H443 H 0.38477 0.79805 0.836 0.0
H444 H 0.40301 0.8196 0.81057 0.0
O445 O 0.38397 0.93122 0.85629 0.0
C446 C 0.34032 0.94963 0.83459 0.0
C447 C 0.39498 0.86687 0.81655 0.0
C448 C 0.38483 0.82281 0.83366 0.0
N449 N 0.37475 0.87426 0.84208 0.0
C450 C 0.38464 0.88629 0.82807 0.0
C451 C 0.37464 0.84294 0.84491 0.0
C452 C 0.39506 0.83492 0.8194 0.0
C453 C 0.30709 0.9541 0.88852 0.0
N454 N 0.31436 0.97156 0.87518 0.0
C455 C 0.28577 0.95117 0.89143 0.0
C456 C 0.27185 0.96625 0.88056 0.0
C457 C 0.27938 0.98399 0.86696 0.0
C458 C 0.30081 0.98637 0.86444 0.0
C459 C 0.33104 0.06812 0.88077 0.0
C460 C 0.3518 0.03396 0.85606 0.0
C461 C 0.33223 0.0358 0.8818 0.0
N462 N 0.34241 0.01915 0.86947 0.0
C463 C 0.35095 0.06625 0.85461 0.0
C464 C 0.34046 0.08339 0.86706 0.0
C465 C 0.3879 0.95917 0.86044 0.0
C466 C 0.37014 0.86077 0.90568 0.0
C467 C 0.3942 0.87737 0.87771 0.0
C468 C 0.40369 0.86421 0.89209 0.0
C469 C 0.39155 0.85594 0.90616 0.0
N470 N 0.3732 0.88211 0.87735 0.0
C471 C 0.36119 0.87392 0.89107 0.0
Co472 Co 0.84461 0.52731 0.36988 0.0
Co473 Co 0.86027 0.60038 0.3569 0.0
O474 O 0.84533 0.57243 0.37221 0.0
C475 C 0.8624 0.53845 0.40387 0.0
O476 O 0.87482 0.5582 0.39619 0.0
C477 C 0.81719 0.62323 0.356 0.0
O478 O 0.811 0.59439 0.35415 0.0
O479 O 0.84832 0.57954 0.33638 0.0
O480 O 0.84041 0.53087 0.34463 0.0
H481 H 0.90445 0.6275 0.30593 0.0
H482 H 0.81712 0.55835 0.39515 0.0
O483 O 0.84902 0.52334 0.3952 0.0
H484 H 0.77002 0.50368 0.35547 0.0
H485 H 0.82436 0.41953 0.38836 0.0
H486 H 0.86218 0.48166 0.34537 0.0
H487 H 0.80802 0.50046 0.35172 0.0
H488 H 0.82541 0.47667 0.39051 0.0
O489 O 0.83641 0.62957 0.35731 0.0
H490 H 0.88595 0.59227 0.32566 0.0
H491 H 0.86559 0.66913 0.35535 0.0
H492 H 0.8614 0.42462 0.34265 0.0
H493 H 0.77922 0.56201 0.39945 0.0
H494 H 0.84238 0.39316 0.36425 0.0
H495 H 0.75539 0.53461 0.37949 0.0
O496 O 0.87521 0.52513 0.36624 0.0
H497 H 0.85718 0.6477 0.41572 0.0
H498 H 0.90286 0.62062 0.36723 0.0
H499 H 0.91798 0.64444 0.39312 0.0
H500 H 0.89507 0.65815 0.41761 0.0
H501 H 0.84276 0.62357 0.38963 0.0
H502 H 0.88372 0.70521 0.33586 0.0
H503 H 0.9034 0.68441 0.31098 0.0
O504 O 0.8845 0.572 0.35622 0.0
C505 C 0.84191 0.55207 0.33326 0.0
C506 C 0.89599 0.63683 0.31676 0.0
C507 C 0.88433 0.68045 0.33354 0.0
N508 N 0.87484 0.62862 0.34171 0.0
C509 C 0.88553 0.617 0.328 0.0
C510 C 0.87405 0.65992 0.34451 0.0
C511 C 0.89537 0.66877 0.31959 0.0
C512 C 0.80686 0.54613 0.38651 0.0
N513 N 0.81477 0.52907 0.37326 0.0
C514 C 0.78541 0.54839 0.38897 0.0
C515 C 0.77205 0.53304 0.37775 0.0
C516 C 0.78024 0.5157 0.36426 0.0
C517 C 0.80177 0.51401 0.36219 0.0
C518 C 0.83266 0.43299 0.37885 0.0
C519 C 0.85375 0.46813 0.35475 0.0
C520 C 0.83333 0.46533 0.38001 0.0
N521 N 0.84368 0.48246 0.36799 0.0
C522 C 0.85342 0.43584 0.35318 0.0
C523 C 0.84277 0.41821 0.36531 0.0
C524 C 0.88864 0.54409 0.36033 0.0
C525 C 0.86732 0.64187 0.40513 0.0
C526 C 0.89282 0.62638 0.37785 0.0
C527 C 0.90145 0.63997 0.39246 0.0
C528 C 0.88858 0.64768 0.40619 0.0
N529 N 0.87196 0.62067 0.37692 0.0
C530 C 0.85923 0.62831 0.3903 0.0
Co531 Co 0.14708 0.47056 0.37293 0.0
Co532 Co 0.13154 0.39884 0.35781 0.0
O533 O 0.14633 0.42529 0.37399 0.0
C534 C 0.12906 0.45632 0.40653 0.0
O535 O 0.1166 0.43734 0.39832 0.0
C536 C 0.17456 0.3758 0.35623 0.0
O537 O 0.18085 0.40467 0.35477 0.0
O538 O 0.14374 0.42151 0.33797 0.0
O539 O 0.15158 0.46931 0.34767 0.0
H540 H 0.08792 0.37657 0.30582 0.0
H541 H 0.17431 0.43708 0.39743 0.0
O542 O 0.14244 0.4722 0.39828 0.0
H543 H 0.22182 0.49559 0.35978 0.0
H544 H 0.16707 0.57652 0.39452 0.0
H545 H 0.12991 0.51838 0.34951 0.0
H546 H 0.18386 0.49913 0.35584 0.0
H547 H 0.16599 0.51926 0.3951 0.0
O548 O 0.15534 0.36956 0.35762 0.0
H549 H 0.10621 0.40988 0.32665 0.0
H550 H 0.12621 0.33032 0.35428 0.0
H551 H 0.13074 0.5756 0.34835 0.0
H552 H 0.21216 0.43305 0.40191 0.0
H553 H 0.14942 0.60505 0.37097 0.0
H554 H 0.23619 0.46239 0.38297 0.0
O555 O 0.1165 0.47314 0.36916 0.0
H556 H 0.13387 0.34621 0.41527 0.0
H557 H 0.08882 0.37771 0.36721 0.0
H558 H 0.07336 0.35159 0.39229 0.0
H559 H 0.09596 0.33564 0.41656 0.0
H560 H 0.14863 0.37266 0.39 0.0
H561 H 0.10828 0.29614 0.33368 0.0
H562 H 0.0889 0.31926 0.30927 0.0
O563 O 0.10736 0.4273 0.35772 0.0
C564 C 0.15025 0.44921 0.3357 0.0
C565 C 0.09626 0.36622 0.31643 0.0
C566 C 0.10771 0.32108 0.33205 0.0
N567 N 0.11712 0.37207 0.34174 0.0
C568 C 0.10659 0.38497 0.32829 0.0
C569 C 0.11787 0.34055 0.34366 0.0
C570 C 0.09683 0.33407 0.31837 0.0
C571 C 0.18466 0.45013 0.38924 0.0
N572 N 0.17688 0.46845 0.37646 0.0
C573 C 0.20608 0.44766 0.39179 0.0
C574 C 0.21956 0.4641 0.38114 0.0
C575 C 0.2115 0.48272 0.36812 0.0
C576 C 0.19 0.48458 0.36594 0.0
C577 C 0.15892 0.56395 0.38457 0.0
C578 C 0.13818 0.53104 0.35934 0.0
C579 C 0.15822 0.53154 0.38485 0.0
N580 N 0.14804 0.51553 0.37227 0.0
C581 C 0.13855 0.56343 0.35864 0.0
C582 C 0.14902 0.57994 0.37135 0.0
C583 C 0.10315 0.45477 0.3626 0.0
C584 C 0.12387 0.35301 0.40477 0.0
C585 C 0.09872 0.371 0.37775 0.0
C586 C 0.0899 0.3561 0.39189 0.0
C587 C 0.10259 0.34713 0.4055 0.0
N588 N 0.11959 0.37677 0.37714 0.0
C589 C 0.13214 0.3679 0.3904 0.0
Co590 Co 0.84408 0.46796 0.12142 0.0
Co591 Co 0.86061 0.39761 0.13798 0.0
O592 O 0.84458 0.4226 0.12184 0.0
C593 C 0.85972 0.4499 0.08752 0.0
O594 O 0.8722 0.43086 0.09569 0.0
C595 C 0.81744 0.37691 0.14303 0.0
O596 O 0.8117 0.40615 0.14289 0.0
O597 O 0.85092 0.42327 0.15764 0.0
O598 O 0.8412 0.46948 0.14683 0.0
H599 H 0.90946 0.38041 0.18731 0.0
H600 H 0.81522 0.43233 0.09925 0.0
O601 O 0.84713 0.46698 0.09589 0.0
H602 H 0.77036 0.49506 0.13703 0.0
H603 H 0.82303 0.57172 0.09735 0.0
H604 H 0.86296 0.51794 0.14242 0.0
H605 H 0.80853 0.49871 0.13913 0.0
H606 H 0.82388 0.5145 0.09859 0.0
O607 O 0.83643 0.36957 0.14119 0.0
H608 H 0.8895 0.41164 0.16651 0.0
H609 H 0.86509 0.32953 0.1441 0.0
H610 H 0.8624 0.57519 0.14175 0.0
H611 H 0.77713 0.42812 0.09664 0.0
H612 H 0.84232 0.60245 0.11909 0.0
H613 H 0.75443 0.45957 0.11566 0.0
O614 O 0.87488 0.47051 0.12377 0.0
H615 H 0.85114 0.33807 0.08315 0.0
H616 H 0.90162 0.37238 0.12673 0.0
H617 H 0.91384 0.3422 0.10182 0.0
H618 H 0.88849 0.32482 0.07981 0.0
H619 H 0.83967 0.36861 0.10817 0.0
H620 H 0.88462 0.29743 0.16475 0.0
H621 H 0.90707 0.32287 0.18651 0.0
O622 O 0.88514 0.42492 0.13499 0.0
C623 C 0.84411 0.45093 0.15935 0.0
C624 C 0.89978 0.36905 0.17786 0.0
C625 C 0.88582 0.32247 0.16521 0.0
N626 N 0.87628 0.37242 0.15403 0.0
C627 C 0.8885 0.3866 0.16602 0.0
C628 C 0.87475 0.34078 0.15358 0.0
C629 C 0.89842 0.33677 0.17741 0.0
C630 C 0.80545 0.44631 0.10745 0.0
N631 N 0.81409 0.46587 0.11925 0.0
C632 C 0.78389 0.44374 0.10597 0.0
C633 C 0.77116 0.46136 0.11666 0.0
C634 C 0.78009 0.48126 0.12866 0.0
C635 C 0.80171 0.48319 0.12981 0.0
C636 C 0.8318 0.56011 0.1073 0.0
C637 C 0.85408 0.52965 0.13259 0.0
C638 C 0.83237 0.52773 0.10805 0.0
N639 N 0.84332 0.51293 0.12065 0.0
C640 C 0.85387 0.56207 0.13224 0.0
C641 C 0.84262 0.57734 0.11951 0.0
C642 C 0.88883 0.45216 0.12943 0.0
C643 C 0.86234 0.34553 0.09264 0.0
C644 C 0.89056 0.36515 0.11713 0.0
C645 C 0.89753 0.34792 0.1031 0.0
C646 C 0.8833 0.33814 0.09077 0.0
N647 N 0.87 0.37245 0.11884 0.0
C648 C 0.85593 0.36276 0.10686 0.0
Co649 Co 0.14763 0.5234 0.12449 0.0
Co650 Co 0.13178 0.59543 0.1389 0.0
O651 O 0.14664 0.56862 0.12296 0.0
C652 C 0.12961 0.53661 0.09084 0.0
O653 O 0.11694 0.55527 0.09905 0.0
C654 C 0.17464 0.61902 0.13947 0.0
O655 O 0.181 0.59018 0.14097 0.0
O656 O 0.14449 0.57384 0.15883 0.0
O657 O 0.15193 0.52543 0.14982 0.0
H658 H 0.08866 0.61902 0.191 0.0
H659 H 0.17489 0.55631 0.09976 0.0
O660 O 0.14316 0.52107 0.0991 0.0
H661 H 0.22239 0.49969 0.13829 0.0
H662 H 0.16836 0.41708 0.10394 0.0
H663 H 0.13039 0.47607 0.14816 0.0
H664 H 0.18441 0.49582 0.14205 0.0
H665 H 0.16699 0.4743 0.10286 0.0
O666 O 0.15536 0.62517 0.1385 0.0
H667 H 0.10704 0.5852 0.17046 0.0
H668 H 0.1258 0.66393 0.14155 0.0
H669 H 0.13149 0.41889 0.14982 0.0
H670 H 0.21275 0.56065 0.09546 0.0
H671 H 0.15059 0.38902 0.1276 0.0
H672 H 0.23678 0.53228 0.11485 0.0
O673 O 0.11706 0.5207 0.12812 0.0
H674 H 0.13279 0.64585 0.08081 0.0
H675 H 0.08866 0.61473 0.12955 0.0
H676 H 0.07259 0.63937 0.10428 0.0
H677 H 0.09471 0.6551 0.07967 0.0
H678 H 0.14818 0.6209 0.10628 0.0
H679 H 0.10777 0.69862 0.16185 0.0
H680 H 0.08896 0.67617 0.18675 0.0
O681 O 0.10784 0.56648 0.13958 0.0
C682 C 0.15085 0.54618 0.16147 0.0
C683 C 0.09675 0.62907 0.18017 0.0
C684 C 0.10749 0.67376 0.16382 0.0
N685 N 0.11733 0.62257 0.15476 0.0
C686 C 0.10712 0.61004 0.16847 0.0
C687 C 0.11771 0.654 0.15239 0.0
C688 C 0.09694 0.66114 0.17779 0.0
C689 C 0.18524 0.54366 0.10814 0.0
N690 N 0.17745 0.5257 0.12108 0.0
C691 C 0.20667 0.54631 0.10569 0.0
C692 C 0.22014 0.53042 0.11659 0.0
C693 C 0.21207 0.51215 0.12975 0.0
C694 C 0.19056 0.51009 0.13184 0.0
C695 C 0.16003 0.42984 0.11373 0.0
C696 C 0.13885 0.46322 0.13852 0.0
C697 C 0.15918 0.46222 0.11316 0.0
N698 N 0.14879 0.47848 0.12553 0.0
C699 C 0.13936 0.43086 0.13949 0.0
C700 C 0.15006 0.41411 0.127 0.0
C701 C 0.10368 0.53897 0.13473 0.0
C702 C 0.12299 0.63916 0.09147 0.0
C703 C 0.09838 0.62144 0.11889 0.0
C704 C 0.0892 0.63546 0.10463 0.0
C705 C 0.10162 0.6443 0.09082 0.0
N706 N 0.11934 0.61641 0.11941 0.0
C707 C 0.13163 0.62514 0.10596 0.0
Co708 Co 0.14837 0.4702 0.62426 0.0
Co709 Co 0.13244 0.3991 0.64004 0.0
O710 O 0.14739 0.42491 0.62362 0.0
C711 C 0.13044 0.45522 0.59071 0.0
O712 O 0.11793 0.43644 0.59902 0.0
C713 C 0.17543 0.37599 0.6416 0.0
O714 O 0.18171 0.40495 0.64242 0.0
O715 O 0.14462 0.4223 0.65968 0.0
O716 O 0.1527 0.46971 0.64955 0.0
H717 H 0.08847 0.37886 0.69209 0.0
H718 H 0.17555 0.43575 0.60014 0.0
O719 O 0.14386 0.47117 0.59888 0.0
H720 H 0.22316 0.49466 0.63748 0.0
H721 H 0.16904 0.57526 0.60174 0.0
H722 H 0.13122 0.51892 0.64711 0.0
H723 H 0.1852 0.49883 0.64122 0.0
H724 H 0.16769 0.51801 0.60172 0.0
O725 O 0.15618 0.36967 0.64062 0.0
H726 H 0.10699 0.41135 0.671 0.0
H727 H 0.12685 0.33076 0.64424 0.0
H728 H 0.13231 0.57616 0.64771 0.0
H729 H 0.2134 0.43108 0.59587 0.0
H730 H 0.15133 0.6047 0.62491 0.0
H731 H 0.23749 0.46061 0.61465 0.0
O732 O 0.11779 0.47317 0.6279 0.0
H733 H 0.13488 0.34447 0.58317 0.0
H734 H 0.08968 0.37809 0.6307 0.0
H735 H 0.07426 0.35123 0.60586 0.0
H736 H 0.09693 0.33421 0.58186 0.0
H737 H 0.1496 0.37168 0.60819 0.0
H738 H 0.10869 0.29739 0.66513 0.0
H739 H 0.08925 0.32144 0.68923 0.0
O740 O 0.10835 0.42778 0.63975 0.0
C741 C 0.15119 0.45002 0.66171 0.0
C742 C 0.09682 0.36811 0.68162 0.0
C743 C 0.1082 0.32238 0.6665 0.0
N744 N 0.11785 0.37297 0.65634 0.0
C745 C 0.10729 0.38639 0.66961 0.0
C746 C 0.11849 0.34139 0.65473 0.0
C747 C 0.09729 0.33589 0.68001 0.0
C748 C 0.18593 0.4489 0.60826 0.0
N749 N 0.17817 0.46767 0.62085 0.0
C750 C 0.20735 0.44606 0.60583 0.0
C751 C 0.22085 0.4626 0.61638 0.0
C752 C 0.21283 0.4817 0.6292 0.0
C753 C 0.19132 0.48392 0.63128 0.0
C754 C 0.16074 0.56309 0.61177 0.0
C755 C 0.13964 0.53118 0.6372 0.0
C756 C 0.15989 0.53069 0.6118 0.0
N757 N 0.14954 0.51517 0.62448 0.0
C758 C 0.14015 0.56359 0.63758 0.0
C759 C 0.15081 0.57959 0.62477 0.0
C760 C 0.10431 0.45515 0.63458 0.0
C761 C 0.12484 0.35173 0.59355 0.0
C762 C 0.09962 0.3709 0.62028 0.0
C763 C 0.09082 0.35559 0.60627 0.0
C764 C 0.10355 0.34602 0.59282 0.0
N765 N 0.12051 0.37649 0.6209 0.0
C766 C 0.1331 0.36705 0.60779 0.0
Co767 Co 0.84593 0.52512 0.62153 0.0
Co768 Co 0.86046 0.59902 0.63391 0.0
O769 O 0.84602 0.57018 0.6188 0.0
C770 C 0.86391 0.53597 0.58757 0.0
O771 O 0.87609 0.5561 0.59522 0.0
C772 C 0.8171 0.62077 0.63486 0.0
O773 O 0.81126 0.5919 0.63731 0.0
O774 O 0.84864 0.57838 0.65456 0.0
O775 O 0.84137 0.52927 0.64671 0.0
H776 H 0.90385 0.62897 0.68483 0.0
H777 H 0.81827 0.55464 0.59582 0.0
O778 O 0.85066 0.52064 0.59628 0.0
H779 H 0.77155 0.49934 0.63557 0.0
H780 H 0.82749 0.41621 0.60383 0.0
H781 H 0.86379 0.48074 0.64661 0.0
H782 H 0.80955 0.49753 0.63964 0.0
H783 H 0.82775 0.4733 0.60118 0.0
O784 O 0.83621 0.62746 0.63312 0.0
H785 H 0.88602 0.59261 0.66533 0.0
H786 H 0.86477 0.66796 0.63488 0.0
H787 H 0.86378 0.42376 0.64984 0.0
H788 H 0.78038 0.55685 0.5912 0.0
H789 H 0.84553 0.3911 0.62835 0.0
H790 H 0.75674 0.52912 0.61119 0.0
O791 O 0.87652 0.52396 0.62542 0.0
H792 H 0.85716 0.64441 0.57462 0.0
H793 H 0.90282 0.62038 0.62361 0.0
H794 H 0.91781 0.64388 0.59756 0.0
H795 H 0.8949 0.65604 0.57282 0.0
H796 H 0.84289 0.62064 0.60088 0.0
H797 H 0.88222 0.70515 0.65412 0.0
H798 H 0.90201 0.68569 0.67927 0.0
O799 O 0.88508 0.57144 0.63497 0.0
C800 C 0.84247 0.55085 0.65788 0.0
C801 C 0.89534 0.63773 0.67388 0.0
C802 C 0.88317 0.68049 0.65666 0.0
N803 N 0.87452 0.62814 0.64891 0.0
C804 C 0.88527 0.61725 0.66277 0.0
C805 C 0.87328 0.65933 0.64583 0.0
C806 C 0.89428 0.66955 0.67077 0.0
C807 C 0.80809 0.54229 0.60449 0.0
N808 N 0.81611 0.52583 0.61792 0.0
C809 C 0.78665 0.54372 0.60184 0.0
C810 C 0.7734 0.52819 0.61308 0.0
C811 C 0.78169 0.51149 0.62677 0.0
C812 C 0.80322 0.5106 0.62902 0.0
C813 C 0.83546 0.43019 0.6133 0.0
C814 C 0.8557 0.46668 0.63727 0.0
C815 C 0.83569 0.46251 0.61185 0.0
N816 N 0.84562 0.4803 0.62382 0.0
C817 C 0.8558 0.43443 0.63914 0.0
C818 C 0.84558 0.41612 0.62706 0.0
C819 C 0.88964 0.54352 0.6312 0.0
C820 C 0.8673 0.63925 0.58532 0.0
C821 C 0.89279 0.62546 0.61288 0.0
C822 C 0.90134 0.63888 0.59818 0.0
C823 C 0.88848 0.64573 0.58431 0.0
N824 N 0.87202 0.61909 0.61376 0.0
C825 C 0.85929 0.62589 0.60025 0.0
Co826 Co 0.14699 0.52805 0.87267 0.0
Co827 Co 0.13205 0.60101 0.85882 0.0
O828 O 0.14711 0.57332 0.8742 0.0
C829 C 0.13013 0.54207 0.90666 0.0
O830 O 0.11799 0.56192 0.89876 0.0
C831 C 0.17556 0.62158 0.85601 0.0
O832 O 0.18116 0.59233 0.85499 0.0
O833 O 0.14252 0.57818 0.8384 0.0
O834 O 0.15079 0.53002 0.84733 0.0
H835 H 0.08593 0.62681 0.80884 0.0
H836 H 0.17547 0.55948 0.89702 0.0
O837 O 0.14299 0.52574 0.89811 0.0
H838 H 0.22087 0.50072 0.85776 0.0
H839 H 0.16573 0.42063 0.89281 0.0
H840 H 0.12826 0.48173 0.84916 0.0
H841 H 0.18276 0.49873 0.85456 0.0
H842 H 0.16567 0.47788 0.89397 0.0
O843 O 0.15654 0.6289 0.85771 0.0
H844 H 0.1046 0.59206 0.82872 0.0
H845 H 0.12825 0.66985 0.85587 0.0
H846 H 0.12805 0.42454 0.84743 0.0
H847 H 0.21349 0.56194 0.90076 0.0
H848 H 0.14689 0.39361 0.86937 0.0
H849 H 0.23647 0.53248 0.88101 0.0
O850 O 0.11627 0.52679 0.86944 0.0
H851 H 0.13929 0.65166 0.91652 0.0
H852 H 0.09065 0.625 0.86999 0.0
H853 H 0.07745 0.65135 0.89586 0.0
H854 H 0.10187 0.66485 0.91937 0.0
H855 H 0.15175 0.62502 0.89049 0.0
H856 H 0.10999 0.70545 0.8362 0.0
H857 H 0.08857 0.68395 0.81252 0.0
O858 O 0.10718 0.57393 0.85964 0.0
C859 C 0.14888 0.55056 0.83563 0.0
C860 C 0.09516 0.63646 0.81914 0.0
C861 C 0.10869 0.6806 0.83448 0.0
N862 N 0.11736 0.62891 0.84351 0.0
C863 C 0.10571 0.6169 0.83047 0.0
C864 C 0.11903 0.66033 0.84555 0.0
C865 C 0.09666 0.66852 0.82121 0.0
C866 C 0.18536 0.54636 0.88848 0.0
N867 N 0.1769 0.52884 0.87565 0.0
C868 C 0.20688 0.54795 0.89062 0.0
C869 C 0.21976 0.53144 0.87951 0.0
C870 C 0.21102 0.51363 0.86646 0.0
C871 C 0.18943 0.51264 0.86469 0.0
C872 C 0.15751 0.43386 0.88316 0.0
C873 C 0.13661 0.46842 0.85869 0.0
C874 C 0.15738 0.46626 0.88377 0.0
N875 N 0.14712 0.4831 0.87156 0.0
C876 C 0.13638 0.43605 0.85767 0.0
C877 C 0.14694 0.41871 0.86999 0.0
C878 C 0.10285 0.54619 0.86397 0.0
C879 C 0.12849 0.6459 0.90637 0.0
C880 C 0.10132 0.63059 0.8802 0.0
C881 C 0.09378 0.64565 0.89479 0.0
C882 C 0.10749 0.65325 0.90797 0.0
N883 N 0.12191 0.62333 0.87876 0.0
C884 C 0.13547 0.6309 0.89158 0.0
Co885 Co 0.8438 0.473 0.86969 0.0
Co886 Co 0.8603 0.40289 0.85304 0.0
O887 O 0.84509 0.42771 0.86975 0.0
C888 C 0.86129 0.45676 0.9032 0.0
O889 O 0.87418 0.43878 0.89475 0.0
C890 C 0.81766 0.37857 0.85132 0.0
O891 O 0.81099 0.40736 0.85068 0.0
O892 O 0.84766 0.42641 0.83372 0.0
O893 O 0.83984 0.47357 0.84433 0.0
H894 H 0.90416 0.38571 0.80059 0.0
H895 H 0.81646 0.4371 0.89303 0.0
O896 O 0.84788 0.47287 0.89512 0.0
H897 H 0.76906 0.49702 0.85597 0.0
H898 H 0.82205 0.57675 0.89333 0.0
H899 H 0.86097 0.52295 0.84767 0.0
H900 H 0.80704 0.50188 0.8527 0.0
H901 H 0.8238 0.51953 0.89263 0.0
O902 O 0.83698 0.37278 0.85227 0.0
H903 H 0.88532 0.41693 0.82208 0.0
H904 H 0.86684 0.3349 0.84817 0.0
H905 H 0.85948 0.58018 0.84779 0.0
H906 H 0.77858 0.43172 0.89683 0.0
H907 H 0.83991 0.60744 0.87074 0.0
H908 H 0.7546 0.46176 0.87818 0.0
O909 O 0.87441 0.47654 0.86644 0.0
H910 H 0.85899 0.34626 0.90936 0.0
H911 H 0.90342 0.38305 0.86204 0.0
H912 H 0.91937 0.35589 0.88656 0.0
H913 H 0.89709 0.33728 0.91046 0.0
H914 H 0.84372 0.37379 0.88465 0.0
H915 H 0.88534 0.30277 0.8269 0.0
H916 H 0.90424 0.3282 0.80293 0.0
O917 O 0.88399 0.43223 0.85351 0.0
C918 C 0.84118 0.45424 0.83198 0.0
C919 C 0.89604 0.37437 0.81101 0.0
C920 C 0.88545 0.32781 0.82576 0.0
N921 N 0.87513 0.37776 0.83643 0.0
C922 C 0.88539 0.39192 0.82324 0.0
C923 C 0.87496 0.34612 0.83774 0.0
C924 C 0.89606 0.3421 0.81232 0.0
C925 C 0.80613 0.45047 0.88498 0.0
N926 N 0.81395 0.4699 0.87273 0.0
C927 C 0.78469 0.44723 0.88714 0.0
C928 C 0.77124 0.46406 0.87666 0.0
C929 C 0.77935 0.48383 0.86419 0.0
C930 C 0.80087 0.48644 0.86238 0.0
C931 C 0.83059 0.56513 0.88324 0.0
C932 C 0.85231 0.53465 0.85763 0.0
C933 C 0.83167 0.53276 0.8828 0.0
N934 N 0.84233 0.51795 0.87004 0.0
C935 C 0.85157 0.56706 0.85766 0.0
C936 C 0.84061 0.58234 0.87056 0.0
C937 C 0.88794 0.4592 0.8593 0.0
C938 C 0.86886 0.35421 0.89901 0.0
C939 C 0.89364 0.37514 0.87241 0.0
C940 C 0.90275 0.35968 0.88624 0.0
C941 C 0.89024 0.34922 0.89963 0.0
N942 N 0.87267 0.38002 0.8719 0.0
C943 C 0.86029 0.3697 0.88496 0.0
C944 C 0.37402 0.06518 0.43314 0.0
C945 C 0.36035 0.04591 0.42398 0.0
C946 C 0.37474 0.06398 0.45101 0.0
C947 C 0.36152 0.01401 0.48787 0.0
H948 H 0.36486 0.09097 0.51352 0.0
C949 C 0.34951 0.02013 0.56116 0.0
C950 C 0.36278 0.03981 0.57046 0.0
C951 C 0.34982 0.02019 0.54325 0.0
C952 C 0.36418 0.06926 0.50653 0.0
H953 H 0.33666 0.0103 0.42639 0.0
H954 H 0.33778 0.00848 0.45761 0.0
H955 H 0.36414 0.09247 0.48229 0.0
H956 H 0.38693 0.07477 0.56829 0.0
H957 H 0.38756 0.07466 0.53706 0.0
H958 H 0.36145 0.99083 0.51215 0.0
C959 C 0.34814 0.0242 0.45095 0.0
C960 C 0.36377 0.07012 0.48865 0.0
C961 C 0.34742 0.0254 0.43307 0.0
C962 C 0.37649 0.05933 0.5615 0.0
C963 C 0.37677 0.05943 0.54361 0.0
C964 C 0.36192 0.01315 0.50577 0.0
C965 C 0.3618 0.04351 0.46012 0.0
C966 C 0.36241 0.04251 0.47912 0.0
C967 C 0.36336 0.03999 0.53429 0.0
C968 C 0.36323 0.04078 0.51529 0.0
H969 H 0.38421 0.08123 0.42652 0.0
H970 H 0.38561 0.07888 0.4577 0.0
H971 H 0.36078 0.99232 0.48088 0.0
H972 H 0.33873 0.00485 0.56768 0.0
H973 H 0.33914 0.0052 0.53643 0.0
C974 C 0.64405 0.97325 0.56091 0.0
C975 C 0.63119 0.95197 0.56952 0.0
C976 C 0.64336 0.97572 0.54307 0.0
C977 C 0.61014 0.95888 0.50575 0.0
H978 H 0.66176 0.96456 0.48028 0.0
C979 C 0.61435 0.94291 0.43249 0.0
C980 C 0.62788 0.96232 0.42326 0.0
C981 C 0.61426 0.94332 0.45038 0.0
C982 C 0.6472 0.96343 0.48722 0.0
H983 H 0.6076 0.91648 0.56617 0.0
H984 H 0.60654 0.92065 0.53502 0.0
H985 H 0.66266 0.96186 0.51148 0.0
H986 H 0.65167 0.99779 0.42554 0.0
H987 H 0.65133 0.99872 0.4568 0.0
H988 H 0.59469 0.96028 0.48147 0.0
C989 C 0.61694 0.9357 0.54209 0.0
C990 C 0.64772 0.96185 0.50508 0.0
C991 C 0.61764 0.9332 0.55993 0.0
C992 C 0.64111 0.98248 0.43228 0.0
C993 C 0.641 0.9829 0.45018 0.0
C994 C 0.60962 0.9605 0.48788 0.0
C995 C 0.6298 0.95698 0.53348 0.0
C996 C 0.6292 0.95939 0.51453 0.0
C997 C 0.62769 0.96316 0.45942 0.0
C998 C 0.62815 0.96261 0.47842 0.0
H999 H 0.65462 0.98811 0.56793 0.0
H1000 H 0.65329 0.99256 0.53681 0.0
H1001 H 0.5956 0.95749 0.51271 0.0
H1002 H 0.60405 0.92698 0.42592 0.0
H1003 H 0.60402 0.92755 0.45712 0.0
C1004 C 0.35087 0.9802 0.06127 0.0
C1005 C 0.36443 0.96006 0.06998 0.0
C1006 C 0.35128 0.98208 0.04339 0.0
C1007 C 0.36697 0.93719 0.00538 0.0
H1008 H 0.36201 0.01602 0.98168 0.0
C1009 C 0.37866 0.94711 0.93262 0.0
C1010 C 0.36425 0.96526 0.92353 0.0
C1011 C 0.37915 0.94783 0.9505 0.0
C1012 C 0.36322 0.99382 0.98813 0.0
H1013 H 0.38928 0.92646 0.06678 0.0
H1014 H 0.39013 0.93003 0.03566 0.0
H1015 H 0.36203 0.01481 0.01301 0.0
H1016 H 0.33928 0.99883 0.92602 0.0
H1017 H 0.34007 -0.0001 0.95731 0.0
H1018 H 0.36811 0.91616 0.98058 0.0
C1019 C 0.37899 0.94405 0.04262 0.0
C1020 C 0.36322 0.99313 0.00605 0.0
C1021 C 0.37859 0.94216 0.06047 0.0
C1022 C 0.35059 0.9846 0.93267 0.0
C1023 C 0.3511 0.98534 0.95058 0.0
C1024 C 0.36699 0.93789 0.9875 0.0
C1025 C 0.36523 0.96382 0.03387 0.0
C1026 C 0.36516 0.96479 0.01486 0.0
C1027 C 0.36524 0.9667 0.95968 0.0
C1028 C 0.36517 0.9662 0.97868 0.0
H1029 H 0.33976 0.99426 0.06824 0.0
H1030 H 0.34034 0.9973 0.037 0.0
H1031 H 0.36808 0.91493 0.01178 0.0
H1032 H 0.38944 0.932 0.92597 0.0
H1033 H 0.39043 0.93356 0.95714 0.0
C1034 C 0.61528 0.0572 0.93347 0.0
C1035 C 0.62872 0.03841 0.92379 0.0
C1036 C 0.61478 0.05477 0.95131 0.0
C1037 C 0.64648 0.02973 0.9879 0.0
H1038 H 0.59424 0.0338 0.01262 0.0
C1039 C 0.64208 0.01518 0.06127 0.0
C1040 C 0.62924 0.03625 0.07006 0.0
C1041 C 0.64142 0.01329 0.04341 0.0
C1042 C 0.60896 0.03287 0.00589 0.0
H1043 H 0.65202 0.00204 0.92519 0.0
H1044 H 0.65103 0.99769 0.95636 0.0
H1045 H 0.59416 0.03424 0.98133 0.0
H1046 H 0.60556 0.07173 0.06702 0.0
H1047 H 0.60459 0.06861 0.03586 0.0
H1048 H 0.66131 0.02873 0.01243 0.0
C1049 C 0.64104 0.01452 0.95015 0.0
C1050 C 0.60891 0.03311 0.98799 0.0
C1051 C 0.64153 0.01692 0.9323 0.0
C1052 C 0.61559 0.05515 0.06064 0.0
C1053 C 0.61494 0.05325 0.04278 0.0
C1054 C 0.64653 0.0295 0.0058 0.0
C1055 C 0.62772 0.03351 0.95984 0.0
C1056 C 0.62768 0.0318 0.97882 0.0
C1057 C 0.62793 0.03244 0.03397 0.0
C1058 C 0.62778 0.03131 0.01498 0.0
H1059 H 0.60528 0.07409 0.92732 0.0
H1060 H 0.60457 0.07003 0.95844 0.0
H1061 H 0.66122 0.02913 0.98119 0.0
H1062 H 0.65272 0.00021 0.06817 0.0
H1063 H 0.65144 0.99676 0.03699 0.0
C1064 C 0.87865 0.55046 0.55904 0.0
C1065 C 0.86495 0.53219 0.56878 0.0
C1066 C 0.87913 0.54783 0.54122 0.0
C1067 C 0.84687 0.52388 0.50477 0.0
H1068 H 0.89893 0.52752 0.47979 0.0
C1069 C 0.85056 0.51315 0.43108 0.0
C1070 C 0.86354 0.5345 0.42265 0.0
C1071 C 0.85131 0.51009 0.4489 0.0
C1072 C 0.88427 0.52668 0.48659 0.0
H1073 H 0.84123 0.49646 0.56751 0.0
H1074 H 0.84217 0.49175 0.53635 0.0
H1075 H 0.89929 0.52691 0.51107 0.0
H1076 H 0.88756 0.56926 0.42628 0.0
H1077 H 0.88871 0.5641 0.45734 0.0
H1078 H 0.83183 0.52411 0.48031 0.0
C1079 C 0.85238 0.50833 0.54251 0.0
C1080 C 0.88447 0.52632 0.50449 0.0
C1081 C 0.85192 0.51093 0.56035 0.0
C1082 C 0.87742 0.55249 0.43237 0.0
C1083 C 0.87817 0.54941 0.45017 0.0
C1084 C 0.84667 0.52424 0.48687 0.0
C1085 C 0.8659 0.52689 0.53275 0.0
C1086 C 0.86577 0.52528 0.51377 0.0
C1087 C 0.86506 0.52829 0.45863 0.0
C1088 C 0.86535 0.526 0.4776 0.0
H1089 H 0.88883 0.56717 0.56514 0.0
H1090 H 0.8895 0.56277 0.53404 0.0
H1091 H 0.83219 0.52349 0.51156 0.0
H1092 H 0.83974 0.49888 0.42394 0.0
H1093 H 0.84117 0.49338 0.45505 0.0
C1094 C 0.11566 0.43818 0.56259 0.0
C1095 C 0.12936 0.45726 0.57184 0.0
C1096 C 0.11498 0.43961 0.54472 0.0
C1097 C 0.14641 0.46273 0.50745 0.0
H1098 H 0.09385 0.4591 0.48321 0.0
C1099 C 0.14109 0.47907 0.43431 0.0
C1100 C 0.12811 0.45839 0.42541 0.0
C1101 C 0.14067 0.48031 0.45219 0.0
C1102 C 0.10865 0.45987 0.4898 0.0
H1103 H 0.15294 0.49307 0.56961 0.0
H1104 H 0.1516 0.49573 0.53843 0.0
H1105 H 0.09416 0.45876 0.5145 0.0
H1106 H 0.10441 0.42291 0.42826 0.0
H1107 H 0.10382 0.42492 0.45948 0.0
H1108 H 0.16092 0.46362 0.48279 0.0
C1109 C 0.14157 0.4794 0.54499 0.0
C1110 C 0.10883 0.45967 0.50771 0.0
C1111 C 0.14226 0.47797 0.56286 0.0
C1112 C 0.11454 0.43921 0.43474 0.0
C1113 C 0.11412 0.44046 0.45262 0.0
C1114 C 0.14623 0.46293 0.48957 0.0
C1115 C 0.128 0.46013 0.53572 0.0
C1116 C 0.12772 0.461 0.51672 0.0
C1117 C 0.12727 0.46088 0.46154 0.0
C1118 C 0.12736 0.4614 0.48055 0.0
H1119 H 0.10559 0.42186 0.56913 0.0
H1120 H 0.10455 0.42419 0.53792 0.0
H1121 H 0.16123 0.46328 0.51403 0.0
H1122 H 0.15167 0.49424 0.42749 0.0
H1123 H 0.15079 0.49657 0.4587 0.0
C1124 C 0.87535 0.43783 0.93122 0.0
C1125 C 0.86184 0.45748 0.92212 0.0
C1126 C 0.87548 0.43792 0.94912 0.0
C1127 C 0.84296 0.45833 0.98629 0.0
H1128 H 0.89492 0.45325 0.01133 0.0
C1129 C 0.84719 0.47213 0.05974 0.0
C1130 C 0.86019 0.45139 0.06861 0.0
C1131 C 0.84761 0.47348 0.04186 0.0
C1132 C 0.88027 0.45437 0.00451 0.0
H1133 H 0.83803 0.49289 0.92466 0.0
H1134 H 0.83844 0.49325 0.9559 0.0
H1135 H 0.89538 0.4548 0.98007 0.0
H1136 H 0.88374 0.41571 0.06568 0.0
H1137 H 0.88434 0.41795 0.03446 0.0
H1138 H 0.82785 0.45783 0.01073 0.0
C1139 C 0.84872 0.47748 0.94919 0.0
C1140 C 0.88054 0.45526 0.98661 0.0
C1141 C 0.84858 0.47739 0.93129 0.0
C1142 C 0.8736 0.43205 0.05923 0.0
C1143 C 0.87403 0.43343 0.04135 0.0
C1144 C 0.8427 0.45746 0.00418 0.0
C1145 C 0.8621 0.45764 0.9583 0.0
C1146 C 0.86188 0.45718 0.97731 0.0
C1147 C 0.86102 0.45414 0.03248 0.0
C1148 C 0.86135 0.4554 0.01348 0.0
H1149 H 0.88567 0.42208 0.92453 0.0
H1150 H 0.88577 0.42208 0.95577 0.0
H1151 H 0.8283 0.45931 0.97949 0.0
H1152 H 0.83671 0.4874 0.06659 0.0
H1153 H 0.83758 0.48992 0.03538 0.0
C1154 C 0.11488 0.5538 0.06278 0.0
C1155 C 0.12878 0.5349 0.07195 0.0
C1156 C 0.1146 0.55325 0.04491 0.0
C1157 C 0.12982 0.50649 0.0074 0.0
H1158 H 0.12683 0.58548 0.98364 0.0
C1159 C 0.14254 0.51892 0.93429 0.0
C1160 C 0.12937 0.53956 0.92552 0.0
C1161 C 0.14217 0.51732 0.95217 0.0
C1162 C 0.12741 0.56321 0.99008 0.0
H1163 H 0.1531 0.50025 0.06958 0.0
H1164 H 0.15269 0.49947 0.03829 0.0
H1165 H 0.12661 0.58439 0.01485 0.0
H1166 H 0.10528 0.5744 0.92863 0.0
H1167 H 0.10447 0.57131 0.95977 0.0
H1168 H 0.13064 0.48535 0.98256 0.0
C1169 C 0.14189 0.51449 0.04496 0.0
C1170 C 0.1273 0.56259 0.00795 0.0
C1171 C 0.14219 0.51507 0.06287 0.0
C1172 C 0.11567 0.5583 0.93499 0.0
C1173 C 0.11529 0.55668 0.95284 0.0
C1174 C 0.12991 0.50711 0.98948 0.0
C1175 C 0.12822 0.53379 0.0358 0.0
C1176 C 0.12843 0.53424 0.01681 0.0
C1177 C 0.12863 0.53635 0.96164 0.0
C1178 C 0.12865 0.53549 0.98064 0.0
H1179 H 0.10431 0.56931 0.06939 0.0
H1180 H 0.10369 0.56806 0.0382 0.0
H1181 H 0.13049 0.48427 0.01388 0.0
H1182 H 0.15331 0.50421 0.92735 0.0
H1183 H 0.15278 0.50165 0.9586 0.0
C1184 C 0.56586 0.94694 0.35376 0.0
C1185 C 0.58118 0.96826 0.35892 0.0
C1186 C 0.54495 0.95516 0.3539 0.0
C1187 C 0.50898 0.01197 0.37326 0.0
H1188 H 0.47063 0.97931 0.33936 0.0
C1189 C 0.42594 0.05713 0.36335 0.0
C1190 C 0.40999 0.03486 0.36319 0.0
C1191 C 0.44666 0.04804 0.36331 0.0
C1192 C 0.48119 0.98826 0.34898 0.0
H1193 H 0.58659 0.01554 0.36741 0.0
H1194 H 0.55003 0.03031 0.36704 0.0
H1195 H 0.50758 0.96722 0.33713 0.0
H1196 H 0.40321 0.98553 0.36277 0.0
H1197 H 0.43983 0.96956 0.36224 0.0
H1198 H 0.48252 0.03394 0.38467 0.0
C1199 C 0.55419 0.00683 0.36346 0.0
C1200 C 0.50232 0.98138 0.34775 0.0
C1201 C 0.57516 0.99846 0.36354 0.0
C1202 C 0.4152 0.00318 0.36296 0.0
C1203 C 0.43605 0.99406 0.36259 0.0
C1204 C 0.48791 0.01922 0.37432 0.0
C1205 C 0.53883 0.98508 0.35892 0.0
C1206 C 0.51646 0.99313 0.35989 0.0
C1207 C 0.45188 0.0165 0.36282 0.0
C1208 C 0.4739 0.0074 0.3622 0.0
H1209 H 0.56988 0.92352 0.34998 0.0
H1210 H 0.53357 0.93768 0.35053 0.0
H1211 H 0.51933 0.02084 0.38304 0.0
H1212 H 0.42248 0.08168 0.36357 0.0
H1213 H 0.45865 0.0657 0.36334 0.0
C1214 C 0.41738 0.99333 0.13201 0.0
C1215 C 0.41179 0.96198 0.13373 0.0
C1216 C 0.43823 0.00221 0.13298 0.0
C1217 C 0.49033 0.97319 0.14646 0.0
H1218 H 0.50995 0.0384 0.11625 0.0
C1219 C 0.57708 -0.00014 0.13123 0.0
C1220 C 0.58269 0.03096 0.13416 0.0
C1221 C 0.55622 0.9909 0.13196 0.0
C1222 C 0.50459 0.02018 0.12475 0.0
H1223 H 0.42374 0.91543 0.13805 0.0
H1224 H 0.45982 0.93059 0.13886 0.0
H1225 H 0.47324 0.02442 0.11613 0.0
H1226 H 0.57077 0.07677 0.14063 0.0
H1227 H 0.53455 0.06116 0.14132 0.0
H1228 H 0.52203 0.96843 0.15454 0.0
C1229 C 0.44821 0.94855 0.13726 0.0
C1230 C 0.48358 0.01235 0.12483 0.0
C1231 C 0.42743 0.93979 0.1366 0.0
C1232 C 0.56707 0.05271 0.13809 0.0
C1233 C 0.5463 0.04387 0.13849 0.0
C1234 C 0.51142 0.98066 0.14613 0.0
C1235 C 0.45391 0.97984 0.13544 0.0
C1236 C 0.47617 0.98878 0.13571 0.0
C1237 C 0.54072 0.01301 0.13534 0.0
C1238 C 0.51864 0.00427 0.13532 0.0
H1239 H 0.40568 0.01104 0.12997 0.0
H1240 H 0.44203 0.02661 0.13184 0.0
H1241 H 0.48514 0.95535 0.15525 0.0
H1242 H 0.58874 0.98252 0.1283 0.0
H1243 H 0.55213 0.96692 0.12951 0.0
C1244 C 0.5649 0.9383 0.62908 0.0
C1245 C 0.58084 0.96054 0.62991 0.0
C1246 C 0.54417 0.94739 0.62906 0.0
C1247 C 0.50957 0.00637 0.64438 0.0
H1248 H 0.47159 0.9763 0.60951 0.0
C1249 C 0.42534 0.04935 0.63996 0.0
C1250 C 0.40985 0.02867 0.63437 0.0
C1251 C 0.44617 0.04077 0.63967 0.0
C1252 C 0.4819 0.98446 0.61951 0.0
H1253 H 0.5876 0.0098 0.63139 0.0
H1254 H 0.55098 0.02573 0.63183 0.0
H1255 H 0.50836 0.96285 0.60788 0.0
H1256 H 0.40408 0.98211 0.62488 0.0
H1257 H 0.44053 0.96666 0.62499 0.0
H1258 H 0.48319 0.02701 0.65643 0.0
C1259 C 0.55476 0.00127 0.63101 0.0
C1260 C 0.50294 0.97701 0.61846 0.0
C1261 C 0.57562 0.99218 0.63069 0.0
C1262 C 0.41564 0.99871 0.6291 0.0
C1263 C 0.43655 0.98995 0.62904 0.0
C1264 C 0.48847 0.01342 0.6456 0.0
C1265 C 0.53894 0.97888 0.63016 0.0
C1266 C 0.51691 0.98797 0.63086 0.0
C1267 C 0.45207 0.01107 0.63409 0.0
C1268 C 0.47439 0.00264 0.63314 0.0
H1269 H 0.56839 0.91379 0.62838 0.0
H1270 H 0.53218 0.92974 0.62853 0.0
H1271 H 0.52008 0.01463 0.65422 0.0
H1272 H 0.4215 0.07257 0.64422 0.0
H1273 H 0.45767 0.05781 0.64342 0.0
C1274 C 0.57469 0.00604 0.86197 0.0
C1275 C 0.58056 0.0374 0.86077 0.0
C1276 C 0.55374 0.9977 0.86095 0.0
C1277 C 0.50225 0.02634 0.86981 0.0
H1278 H 0.48268 0.96788 0.83566 0.0
C1279 C 0.41506 0.00092 0.86155 0.0
C1280 C 0.40958 0.96984 0.85854 0.0
C1281 C 0.43584 0.01018 0.86062 0.0
C1282 C 0.4879 0.98393 0.84543 0.0
H1283 H 0.56902 0.08446 0.85735 0.0
H1284 H 0.53263 0.06983 0.85615 0.0
H1285 H 0.51962 0.98036 0.83724 0.0
H1286 H 0.42162 0.92434 0.85165 0.0
H1287 H 0.45757 0.94007 0.85085 0.0
H1288 H 0.47086 0.02925 0.87851 0.0
C1289 C 0.54424 0.05185 0.8578 0.0
C1290 C 0.50902 0.99105 0.84627 0.0
C1291 C 0.5651 0.06014 0.85848 0.0
C1292 C 0.42522 0.94844 0.85419 0.0
C1293 C 0.44593 0.95756 0.85352 0.0
C1294 C 0.4812 0.01882 0.86919 0.0
C1295 C 0.53842 0.02064 0.85904 0.0
C1296 C 0.51629 0.01232 0.85845 0.0
C1297 C 0.45154 0.98846 0.85685 0.0
C1298 C 0.47377 0.99751 0.857 0.0
H1299 H 0.58624 0.98799 0.86361 0.0
H1300 H 0.54946 0.97344 0.86194 0.0
H1301 H 0.50764 0.04274 0.87935 0.0
H1302 H 0.40335 0.01805 0.86474 0.0
H1303 H 0.43958 0.03433 0.86292 0.0
C1304 C 0.91607 0.50272 0.36102 0.0
C1305 C 0.9105 0.53401 0.35892 0.0
C1306 C 0.93692 0.4938 0.36031 0.0
C1307 C 0.98927 0.52225 0.34711 0.0
H1308 H 0.00827 0.45857 0.37856 0.0
C1309 C 0.07571 0.49616 0.36381 0.0
C1310 C 0.08133 0.46498 0.36117 0.0
C1311 C 0.05486 0.50515 0.36283 0.0
C1312 C 0.00309 0.47637 0.36972 0.0
H1313 H 0.92249 0.58035 0.35404 0.0
H1314 H 0.95858 0.56515 0.35366 0.0
H1315 H 0.97156 0.47249 0.37794 0.0
H1316 H 0.06945 0.41901 0.35504 0.0
H1317 H 0.03326 0.43467 0.35392 0.0
H1318 H 0.02113 0.52667 0.33942 0.0
C1319 C 0.94695 0.54726 0.3554 0.0
C1320 C 0.98208 0.48415 0.36922 0.0
C1321 C 0.92616 0.55605 0.35582 0.0
C1322 C 0.06574 0.44314 0.35735 0.0
C1323 C 0.04498 0.45201 0.3567 0.0
C1324 C 0.01035 0.51484 0.34786 0.0
C1325 C 0.95263 0.51607 0.3577 0.0
C1326 C 0.97489 0.50715 0.35788 0.0
C1327 C 0.0394 0.48298 0.3595 0.0
C1328 C 0.01734 0.49179 0.35913 0.0
H1329 H 0.90435 0.48511 0.36324 0.0
H1330 H 0.94071 0.46946 0.36179 0.0
H1331 H 0.98425 0.53965 0.33798 0.0
H1332 H 0.08736 0.51356 0.36665 0.0
H1333 H 0.05076 0.52922 0.36501 0.0
C1334 C 0.07587 0.49879 0.13086 0.0
C1335 C 0.08178 0.5289 0.13574 0.0
C1336 C 0.0549 0.4904 0.13062 0.0
C1337 C 0.00271 0.51548 0.14581 0.0
H1338 H 0.98364 0.46386 0.10824 0.0
C1339 C 0.91586 0.49402 0.12979 0.0
C1340 C 0.91067 0.46236 0.12919 0.0
C1341 C 0.9367 0.50315 0.13031 0.0
C1342 C 0.98883 0.47832 0.11877 0.0
H1343 H 0.07028 0.57345 0.14481 0.0
H1344 H 0.034 0.55926 0.14372 0.0
H1345 H 0.02042 0.47688 0.11046 0.0
H1346 H 0.92318 0.41559 0.12816 0.0
H1347 H 0.95936 0.43157 0.12866 0.0
H1348 H 0.97087 0.51734 0.15381 0.0
C1349 C 0.04545 0.54186 0.14039 0.0
C1350 C 0.00987 0.48552 0.12016 0.0
C1351 C 0.06635 0.5501 0.14085 0.0
C1352 C 0.92664 0.44012 0.12871 0.0
C1353 C 0.94736 0.44923 0.12889 0.0
C1354 C 0.98161 0.50863 0.14425 0.0
C1355 C 0.03944 0.51205 0.13509 0.0
C1356 C 0.01709 0.50403 0.13376 0.0
C1357 C 0.95256 0.48074 0.12984 0.0
C1358 C 0.97457 0.48983 0.1308 0.0
H1359 H 0.08737 0.4818 0.12702 0.0
H1360 H 0.05082 0.467 0.12682 0.0
H1361 H 0.00777 0.52937 0.1566 0.0
H1362 H 0.90386 0.51164 0.13024 0.0
H1363 H 0.94046 0.52763 0.13101 0.0
C1364 C 0.92698 0.55679 0.6357 0.0
C1365 C 0.91159 0.53411 0.63296 0.0
C1366 C 0.94784 0.5485 0.63662 0.0
C1367 C 0.98309 0.4873 0.64775 0.0
H1368 H 0.02133 0.52615 0.61581 0.0
C1369 C 0.06678 0.44429 0.63984 0.0
C1370 C 0.08253 0.4657 0.63582 0.0
C1371 C 0.04607 0.45347 0.64028 0.0
C1372 C 0.01097 0.51552 0.62505 0.0
H1373 H 0.90604 0.48475 0.62968 0.0
H1374 H 0.94278 0.47021 0.63178 0.0
H1375 H 0.9846 0.54003 0.61516 0.0
H1376 H 0.08892 0.51394 0.6298 0.0
H1377 H 0.05269 0.53034 0.63125 0.0
H1378 H 0.00935 0.46354 0.6581 0.0
C1379 C 0.93846 0.49443 0.63293 0.0
C1380 C 0.98995 0.52328 0.62454 0.0
C1381 C 0.91753 0.50278 0.63167 0.0
C1382 C 0.07713 0.4968 0.63275 0.0
C1383 C 0.05635 0.50614 0.63348 0.0
C1384 C 0.00417 0.47994 0.64848 0.0
C1385 C 0.95373 0.51734 0.63518 0.0
C1386 C 0.97587 0.50902 0.63579 0.0
C1387 C 0.04056 0.48447 0.63707 0.0
C1388 C 0.01835 0.49372 0.63701 0.0
H1389 H 0.92302 0.58109 0.63694 0.0
H1390 H 0.9594 0.56646 0.63854 0.0
H1391 H 0.97245 0.47639 0.65668 0.0
H1392 H 0.07032 0.42016 0.64236 0.0
H1393 H 0.03437 0.43599 0.64278 0.0
C1394 C 0.07514 0.50527 0.86327 0.0
C1395 C 0.08084 0.53677 0.86319 0.0
C1396 C 0.0542 0.49683 0.86242 0.0
C1397 C 0.00264 0.52331 0.87314 0.0
H1398 H 0.98292 0.47102 0.83612 0.0
C1399 C 0.91532 0.50009 0.86325 0.0
C1400 C 0.90973 0.46982 0.8584 0.0
C1401 C 0.93617 0.50918 0.86309 0.0
C1402 C 0.98818 0.48527 0.8467 0.0
H1403 H 0.06901 0.584 0.86219 0.0
H1404 H 0.03264 0.56916 0.86124 0.0
H1405 H 0.01985 0.48314 0.83825 0.0
H1406 H 0.92167 0.42566 0.84914 0.0
H1407 H 0.95769 0.44094 0.84967 0.0
H1408 H 0.97127 0.52477 0.88202 0.0
C1409 C 0.04437 0.55114 0.86185 0.0
C1410 C 0.0093 0.4922 0.84785 0.0
C1411 C 0.06522 0.55956 0.86235 0.0
C1412 C 0.92534 0.44911 0.85309 0.0
C1413 C 0.9461 0.45801 0.85319 0.0
C1414 C 0.98158 0.51594 0.87219 0.0
C1415 C 0.03872 0.51978 0.86183 0.0
C1416 C 0.01662 0.51131 0.86104 0.0
C1417 C 0.95182 0.48807 0.85826 0.0
C1418 C 0.97409 0.49684 0.85894 0.0
H1419 H 0.08683 0.48719 0.86382 0.0
H1420 H 0.05005 0.47246 0.86242 0.0
H1421 H 0.00808 0.53808 0.88345 0.0
H1422 H 0.90365 0.5167 0.86725 0.0
H1423 H 0.94 0.53273 0.86676 0.0
C1424 C 0.18229 0.31932 0.3581 0.0
C1425 C 0.18948 0.34987 0.35584 0.0
C1426 C 0.19594 0.29437 0.35714 0.0
C1427 C 0.24613 0.2713 0.33926 0.0
H1428 H 0.24166 0.20342 0.37178 0.0
C1429 C 0.30783 0.17596 0.34586 0.0
C1430 C 0.30114 0.1453 0.3486 0.0
C1431 C 0.29363 0.20028 0.3457 0.0
C1432 C 0.24286 0.22198 0.36246 0.0
H1433 H 0.2167 0.37828 0.35108 0.0
H1434 H 0.24075 0.33436 0.34951 0.0
H1435 H 0.21869 0.24817 0.37447 0.0
H1436 H 0.27428 0.1159 0.35289 0.0
H1437 H 0.24927 0.15873 0.35255 0.0
H1438 H 0.27041 0.24516 0.32732 0.0
C1439 C 0.22443 0.32989 0.35183 0.0
C1440 C 0.2298 0.24764 0.36404 0.0
C1441 C 0.21072 0.35499 0.35283 0.0
C1442 C 0.27986 0.13931 0.35074 0.0
C1443 C 0.2656 0.16379 0.35066 0.0
C1444 C 0.2592 0.24564 0.33769 0.0
C1445 C 0.21711 0.29935 0.35391 0.0
C1446 C 0.23134 0.27255 0.35247 0.0
C1447 C 0.27242 0.19451 0.34831 0.0
C1448 C 0.25773 0.2208 0.34931 0.0
H1449 H 0.16601 0.31452 0.36046 0.0
H1450 H 0.18982 0.27109 0.35858 0.0
H1451 H 0.24739 0.28994 0.32999 0.0
H1452 H 0.32414 0.18133 0.34409 0.0
H1453 H 0.29936 0.22374 0.34406 0.0
C1454 C 0.68212 0.82209 0.35736 0.0
C1455 C 0.68934 0.85287 0.35678 0.0
C1456 C 0.69606 0.79742 0.35783 0.0
C1457 C 0.74968 0.7767 0.34711 0.0
H1458 H 0.73878 0.70551 0.37629 0.0
C1459 C 0.80932 0.67973 0.35722 0.0
C1460 C 0.80211 0.64895 0.35648 0.0
C1461 C 0.79539 0.70439 0.3575 0.0
C1462 C 0.74187 0.7251 0.36795 0.0
H1463 H 0.71683 0.88199 0.35646 0.0
H1464 H 0.74132 0.83864 0.35743 0.0
H1465 H 0.7152 0.74989 0.37689 0.0
H1466 H 0.77462 0.61985 0.35567 0.0
H1467 H 0.7501 0.66332 0.35612 0.0
H1468 H 0.77638 0.75195 0.33822 0.0
C1469 C 0.72482 0.83372 0.3573 0.0
C1470 C 0.72843 0.7505 0.36831 0.0
C1471 C 0.71082 0.85851 0.35681 0.0
C1472 C 0.78062 0.64332 0.35619 0.0
C1473 C 0.76662 0.66814 0.35654 0.0
C1474 C 0.76313 0.75136 0.34679 0.0
C1475 C 0.71753 0.80295 0.35778 0.0
C1476 C 0.73218 0.77651 0.35786 0.0
C1477 C 0.77393 0.69888 0.35709 0.0
C1478 C 0.75935 0.72534 0.3572 0.0
H1479 H 0.66565 0.8169 0.35731 0.0
H1480 H 0.68998 0.77397 0.35792 0.0
H1481 H 0.75276 0.79618 0.3387 0.0
H1482 H 0.82579 0.68491 0.35753 0.0
H1483 H 0.80144 0.72783 0.35819 0.0
C1484 C 0.21113 0.63927 0.13882 0.0
C1485 C 0.18963 0.64484 0.13889 0.0
C1486 C 0.22508 0.6641 0.13831 0.0
C1487 C 0.22852 0.74719 0.12706 0.0
H1488 H 0.27694 0.74594 0.15662 0.0
C1489 C 0.28141 0.85411 0.13774 0.0
C1490 C 0.30287 0.84822 0.13723 0.0
C1491 C 0.26728 0.82946 0.13779 0.0
C1492 C 0.26356 0.74648 0.14821 0.0
H1493 H 0.16589 0.68074 0.13845 0.0
H1494 H 0.19016 0.72375 0.13781 0.0
H1495 H 0.2532 0.70185 0.15663 0.0
H1496 H 0.32634 0.81194 0.13618 0.0
H1497 H 0.30176 0.76931 0.13619 0.0
H1498 H 0.23888 0.79195 0.11872 0.0
C1499 C 0.19627 0.70032 0.13788 0.0
C1500 C 0.25003 0.72122 0.14816 0.0
C1501 C 0.18237 0.67561 0.13837 0.0
C1502 C 0.30991 0.81733 0.13666 0.0
C1503 C 0.29585 0.79283 0.13677 0.0
C1504 C 0.24204 0.7725 0.12714 0.0
C1505 C 0.21776 0.69485 0.13785 0.0
C1506 C 0.23238 0.72132 0.13759 0.0
C1507 C 0.27442 0.79861 0.13741 0.0
C1508 C 0.2597 0.77232 0.13768 0.0
H1509 H 0.21717 0.6158 0.13912 0.0
H1510 H 0.2416 0.65922 0.13811 0.0
H1511 H 0.21517 0.74773 0.11861 0.0
H1512 H 0.27554 0.87767 0.13815 0.0
H1513 H 0.2508 0.83449 0.13838 0.0
C1514 C 0.71178 0.14193 0.14181 0.0
C1515 C 0.6905 0.1469 0.13897 0.0
C1516 C 0.72544 0.16712 0.14264 0.0
C1517 C 0.7304 0.24934 0.13023 0.0
H1518 H 0.77171 0.25213 0.16639 0.0
C1519 C 0.78067 0.35781 0.14265 0.0
C1520 C 0.80199 0.35186 0.14455 0.0
C1521 C 0.76642 0.33333 0.14294 0.0
C1522 C 0.7603 0.25157 0.15618 0.0
H1523 H 0.66686 0.18209 0.13453 0.0
H1524 H 0.69056 0.22568 0.13614 0.0
H1525 H 0.74869 0.2073 0.16412 0.0
H1526 H 0.82508 0.31585 0.14882 0.0
H1527 H 0.80033 0.27343 0.14922 0.0
H1528 H 0.74207 0.29352 0.12224 0.0
C1529 C 0.69677 0.20244 0.13756 0.0
C1530 C 0.74722 0.22588 0.15484 0.0
C1531 C 0.68318 0.1774 0.13675 0.0
C1532 C 0.80875 0.32121 0.14724 0.0
C1533 C 0.79456 0.29688 0.14761 0.0
C1534 C 0.74347 0.27503 0.13158 0.0
C1535 C 0.71801 0.19761 0.14059 0.0
C1536 C 0.73218 0.2245 0.14182 0.0
C1537 C 0.7733 0.30262 0.14527 0.0
C1538 C 0.7586 0.27632 0.14452 0.0
H1539 H 0.71787 0.11869 0.14351 0.0
H1540 H 0.7418 0.16276 0.14481 0.0
H1541 H 0.7191 0.24872 0.11994 0.0
H1542 H 0.77505 0.38121 0.14055 0.0
H1543 H 0.75006 0.33837 0.14125 0.0
C1544 C 0.6831 0.81943 0.64743 0.0
C1545 C 0.68969 0.85006 0.64441 0.0
C1546 C 0.69729 0.79508 0.6472 0.0
C1547 C 0.74707 0.77312 0.62869 0.0
H1548 H 0.74462 0.7058 0.6617 0.0
C1549 C 0.80853 0.67681 0.63173 0.0
C1550 C 0.80183 0.64627 0.6349 0.0
C1551 C 0.79465 0.70148 0.6327 0.0
C1552 C 0.74528 0.72423 0.65227 0.0
H1553 H 0.71635 0.87937 0.63921 0.0
H1554 H 0.74133 0.83648 0.63883 0.0
H1555 H 0.72158 0.75043 0.66495 0.0
H1556 H 0.7752 0.61755 0.64113 0.0
H1557 H 0.75074 0.66095 0.64267 0.0
H1558 H 0.77064 0.74688 0.61592 0.0
C1559 C 0.7251 0.83148 0.64126 0.0
C1560 C 0.7322 0.74982 0.65418 0.0
C1561 C 0.71087 0.85599 0.6416 0.0
C1562 C 0.78082 0.64084 0.63869 0.0
C1563 C 0.76687 0.66566 0.63967 0.0
C1564 C 0.76012 0.74752 0.62676 0.0
C1565 C 0.71836 0.80078 0.64388 0.0
C1566 C 0.73297 0.77447 0.6424 0.0
C1567 C 0.77373 0.69624 0.63681 0.0
C1568 C 0.75935 0.72283 0.63853 0.0
H1569 H 0.66688 0.81413 0.64971 0.0
H1570 H 0.69163 0.77164 0.64908 0.0
H1571 H 0.74771 0.79154 0.61925 0.0
H1572 H 0.82462 0.68183 0.62874 0.0
H1573 H 0.80045 0.72479 0.63064 0.0
C1574 C 0.21196 0.35574 0.64136 0.0
C1575 C 0.19046 0.35019 0.64166 0.0
C1576 C 0.22591 0.33087 0.64124 0.0
C1577 C 0.22966 0.24787 0.652 0.0
H1578 H 0.27643 0.24823 0.62067 0.0
C1579 C 0.28089 0.13986 0.64065 0.0
C1580 C 0.30241 0.14518 0.64016 0.0
C1581 C 0.26705 0.16487 0.64062 0.0
C1582 C 0.26353 0.24794 0.62959 0.0
H1583 H 0.16672 0.31428 0.64202 0.0
H1584 H 0.19098 0.27125 0.64171 0.0
H1585 H 0.25303 0.29278 0.62155 0.0
H1586 H 0.32631 0.18081 0.6392 0.0
H1587 H 0.30224 0.22411 0.63934 0.0
H1588 H 0.24015 0.20307 0.66008 0.0
C1589 C 0.19709 0.29469 0.64178 0.0
C1590 C 0.2502 0.27345 0.63012 0.0
C1591 C 0.18319 0.31941 0.64185 0.0
C1592 C 0.30981 0.17587 0.63956 0.0
C1593 C 0.29603 0.20074 0.63952 0.0
C1594 C 0.24299 0.22238 0.65149 0.0
C1595 C 0.21856 0.30013 0.64149 0.0
C1596 C 0.23312 0.27361 0.64131 0.0
C1597 C 0.27453 0.19553 0.64006 0.0
C1598 C 0.26005 0.22218 0.64028 0.0
H1599 H 0.21799 0.37921 0.64117 0.0
H1600 H 0.24244 0.33567 0.64113 0.0
H1601 H 0.21674 0.24757 0.66091 0.0
H1602 H 0.27474 0.11646 0.64104 0.0
H1603 H 0.25052 0.16021 0.64087 0.0
C1604 C 0.71202 0.14186 0.85326 0.0
C1605 C 0.69066 0.14809 0.85452 0.0
C1606 C 0.72629 0.16631 0.85251 0.0
C1607 C 0.72988 0.24924 0.84168 0.0
H1608 H 0.77928 0.24817 0.87012 0.0
C1609 C 0.78142 0.3573 0.85157 0.0
C1610 C 0.80298 0.35235 0.85119 0.0
C1611 C 0.76779 0.33206 0.8517 0.0
C1612 C 0.76565 0.24863 0.86197 0.0
H1613 H 0.6675 0.18476 0.85615 0.0
H1614 H 0.69229 0.22698 0.85494 0.0
H1615 H 0.75577 0.20372 0.87043 0.0
H1616 H 0.82716 0.31712 0.85049 0.0
H1617 H 0.80344 0.27341 0.8505 0.0
H1618 H 0.73969 0.29414 0.83323 0.0
C1619 C 0.69803 0.20336 0.8543 0.0
C1620 C 0.75226 0.22319 0.86213 0.0
C1621 C 0.68385 0.17909 0.85511 0.0
C1622 C 0.81063 0.32178 0.85086 0.0
C1623 C 0.79705 0.29666 0.85097 0.0
C1624 C 0.74328 0.27465 0.8415 0.0
C1625 C 0.71936 0.19726 0.85292 0.0
C1626 C 0.73418 0.22337 0.85208 0.0
C1627 C 0.77552 0.30151 0.85146 0.0
C1628 C 0.76125 0.27464 0.85169 0.0
H1629 H 0.71771 0.11821 0.85281 0.0
H1630 H 0.7427 0.16103 0.85138 0.0
H1631 H 0.71616 0.24977 0.83363 0.0
H1632 H 0.77509 0.3806 0.85191 0.0
H1633 H 0.75123 0.33643 0.85225 0.0
C1634 C 0.21245 0.64031 0.85635 0.0
C1635 C 0.19108 0.64664 0.8553 0.0
C1636 C 0.22683 0.66465 0.85616 0.0
C1637 C 0.2325 0.74656 0.84358 0.0
H1638 H 0.27608 0.74851 0.87788 0.0
C1639 C 0.28157 0.85596 0.85618 0.0
C1640 C 0.30302 0.85122 0.85808 0.0
C1641 C 0.26801 0.83064 0.85593 0.0
C1642 C 0.26411 0.74812 0.86813 0.0
H1643 H 0.16802 0.68329 0.85299 0.0
H1644 H 0.19297 0.72537 0.85275 0.0
H1645 H 0.25287 0.70378 0.87635 0.0
H1646 H 0.32708 0.81631 0.8615 0.0
H1647 H 0.30351 0.77243 0.86087 0.0
H1648 H 0.24366 0.79088 0.83536 0.0
C1649 C 0.19867 0.70174 0.85357 0.0
C1650 C 0.2509 0.72251 0.86722 0.0
C1651 C 0.18438 0.67759 0.85385 0.0
C1652 C 0.31062 0.8208 0.86 0.0
C1653 C 0.29711 0.79561 0.85975 0.0
C1654 C 0.24571 0.77213 0.84446 0.0
C1655 C 0.22001 0.69556 0.85478 0.0
C1656 C 0.23489 0.72162 0.85502 0.0
C1657 C 0.2757 0.80023 0.85761 0.0
C1658 C 0.26157 0.77324 0.8568 0.0
H1659 H 0.21804 0.61668 0.8575 0.0
H1660 H 0.24324 0.65932 0.85702 0.0
H1661 H 0.22042 0.74626 0.83391 0.0
H1662 H 0.27526 0.87913 0.85475 0.0
H1663 H 0.25151 0.83486 0.85447 0.0
C1664 C 0.33901 0.05529 0.30183 0.0
C1665 C 0.33862 0.03492 0.31593 0.0
C1666 C 0.3358 0.04413 0.28523 0.0
C1667 C 0.34245 0.97422 0.25975 0.0
H1668 H 0.30834 0.01708 0.22629 0.0
C1669 C 0.33701 0.93058 0.19026 0.0
C1670 C 0.33808 0.95343 0.17741 0.0
C1671 C 0.33374 0.93893 0.20735 0.0
C1672 C 0.31805 0.00497 0.23544 0.0
H1673 H 0.33401 0.98691 0.32361 0.0
H1674 H 0.32867 0.96753 0.29459 0.0
H1675 H 0.30897 0.03519 0.25596 0.0
H1676 H 0.33589 0.00294 0.17244 0.0
H1677 H 0.33085 0.01747 0.20219 0.0
H1678 H 0.35227 0.94481 0.23927 0.0
C1679 C 0.33149 0.99209 0.29645 0.0
C1680 C 0.31834 0.0153 0.25242 0.0
C1681 C 0.3345 0.00326 0.31306 0.0
C1682 C 0.33516 0.9847 0.18198 0.0
C1683 C 0.3321 0.99305 0.19908 0.0
C1684 C 0.34233 0.96408 0.24276 0.0
C1685 C 0.33232 0.01236 0.28237 0.0
C1686 C 0.33073 0.00021 0.26468 0.0
C1687 C 0.33166 0.97032 0.21201 0.0
C1688 C 0.33033 0.97956 0.23034 0.0
H1689 H 0.34206 0.07982 0.30357 0.0
H1690 H 0.33669 0.06022 0.27458 0.0
H1691 H 0.35234 0.9624 0.2689 0.0
H1692 H 0.33898 0.90624 0.18716 0.0
H1693 H 0.33308 0.92077 0.21694 0.0
C1694 C 0.66287 0.00703 0.18065 0.0
C1695 C 0.65727 0.038 0.17726 0.0
C1696 C 0.66634 0.99711 0.19743 0.0
C1697 C 0.67698 0.02313 0.2415 0.0
H1698 H 0.64554 0.9499 0.25429 0.0
C1699 C 0.65839 0.99172 0.31167 0.0
C1700 C 0.65645 0.96025 0.31619 0.0
C1701 C 0.66203 0.00028 0.29467 0.0
C1702 C 0.65481 0.96998 0.25092 0.0
H1703 H 0.65194 0.08317 0.18882 0.0
H1704 H 0.65805 0.06569 0.21815 0.0
H1705 H 0.6459 0.9668 0.22458 0.0
H1706 H 0.65808 0.91304 0.30656 0.0
H1707 H 0.66502 0.92797 0.27702 0.0
H1708 H 0.68581 0.0264 0.26789 0.0
C1709 C 0.65976 0.04919 0.20777 0.0
C1710 C 0.65494 0.97971 0.23388 0.0
C1711 C 0.65614 0.05913 0.19097 0.0
C1712 C 0.65921 0.93751 0.30348 0.0
C1713 C 0.66309 0.94607 0.28652 0.0
C1714 C 0.67702 0.01321 0.25857 0.0
C1715 C 0.66444 0.01794 0.21117 0.0
C1716 C 0.66579 0.00659 0.22904 0.0
C1717 C 0.66405 0.97758 0.28183 0.0
C1718 C 0.66567 0.98675 0.26352 0.0
H1719 H 0.66405 0.99012 0.17042 0.0
H1720 H 0.67018 0.97296 0.19969 0.0
H1721 H 0.68563 0.04378 0.23805 0.0
H1722 H 0.65637 0.00986 0.32114 0.0
H1723 H 0.66243 0.02476 0.29152 0.0
C1724 C 0.65601 0.0115 0.81174 0.0
C1725 C 0.65344 0.04293 0.81611 0.0
C1726 C 0.6587 0.00268 0.79468 0.0
C1727 C 0.64809 0.03082 0.7509 0.0
H1728 H 0.68088 0.95902 0.73787 0.0
C1729 C 0.65597 0.99134 0.68073 0.0
C1730 C 0.65165 0.95977 0.67779 0.0
C1731 C 0.65887 0.0024 0.69736 0.0
C1732 C 0.67165 0.97909 0.74136 0.0
H1733 H 0.65275 0.08989 0.80603 0.0
H1734 H 0.65801 0.07455 0.7763 0.0
H1735 H 0.68187 0.97758 0.76745 0.0
H1736 H 0.6477 0.91488 0.69006 0.0
H1737 H 0.65291 0.93431 0.71913 0.0
H1738 H 0.63792 0.03228 0.7248 0.0
C1739 C 0.65736 0.05663 0.78603 0.0
C1740 C 0.67215 0.98968 0.75829 0.0
C1741 C 0.65445 0.06545 0.8031 0.0
C1742 C 0.65093 0.93935 0.69186 0.0
C1743 C 0.65404 0.9504 0.70849 0.0
C1744 C 0.64777 0.02043 0.73397 0.0
C1745 C 0.65911 0.02509 0.78158 0.0
C1746 C 0.66011 0.0154 0.76332 0.0
C1747 C 0.65773 0.9821 0.7114 0.0
C1748 C 0.65931 0.99422 0.7291 0.0
H1749 H 0.6553 0.9935 0.82143 0.0
H1750 H 0.65969 0.97816 0.79174 0.0
H1751 H 0.63832 0.05031 0.75435 0.0
H1752 H 0.65673 0.00774 0.67021 0.0
H1753 H 0.66189 0.0269 0.69926 0.0
C1754 C 0.33139 0.98864 0.81195 0.0
C1755 C 0.33432 0.95751 0.81681 0.0
C1756 C 0.32774 0.99637 0.79483 0.0
C1757 C 0.33683 0.96544 0.75145 0.0
H1758 H 0.30409 0.03681 0.73766 0.0
C1759 C 0.33034 0.00235 0.68087 0.0
C1760 C 0.33497 0.03378 0.67776 0.0
C1761 C 0.32658 0.99188 0.69751 0.0
C1762 C 0.31327 0.01682 0.74136 0.0
H1763 H 0.33445 0.90994 0.80763 0.0
H1764 H 0.32753 0.92339 0.77787 0.0
H1765 H 0.3036 0.01984 0.76756 0.0
H1766 H 0.33828 0.07908 0.68968 0.0
H1767 H 0.33167 0.06067 0.71873 0.0
H1768 H 0.34662 0.96259 0.7253 0.0
C1769 C 0.32867 0.94191 0.78721 0.0
C1770 C 0.31305 0.00714 0.75846 0.0
C1771 C 0.33253 0.93419 0.8043 0.0
C1772 C 0.33487 0.0547 0.6916 0.0
C1773 C 0.33094 0.04422 0.70824 0.0
C1774 C 0.33689 0.97493 0.73435 0.0
C1775 C 0.32672 0.97315 0.7822 0.0
C1776 C 0.32514 0.98166 0.76377 0.0
C1777 C 0.32717 0.01261 0.71139 0.0
C1778 C 0.32539 0.00101 0.72919 0.0
H1779 H 0.33265 0.00722 0.82125 0.0
H1780 H 0.32658 0.02069 0.79144 0.0
H1781 H 0.34664 0.9461 0.75509 0.0
H1782 H 0.33016 0.98559 0.67052 0.0
H1783 H 0.3235 0.96743 0.69957 0.0
C1784 C 0.83979 0.44205 0.19093 0.0
C1785 C 0.8396 0.46242 0.17684 0.0
C1786 C 0.8364 0.45323 0.2075 0.0
C1787 C 0.84275 0.52307 0.2331 0.0
H1788 H 0.80763 0.48065 0.26602 0.0
C1789 C 0.8361 0.56673 0.3025 0.0
C1790 C 0.83683 0.54382 0.31533 0.0
C1791 C 0.83305 0.55848 0.28537 0.0
C1792 C 0.81762 0.49264 0.25702 0.0
H1793 H 0.83524 0.51047 0.16912 0.0
H1794 H 0.8296 0.52988 0.19809 0.0
H1795 H 0.80892 0.46246 0.23638 0.0
H1796 H 0.83421 0.49433 0.32023 0.0
H1797 H 0.82957 0.47997 0.29042 0.0
H1798 H 0.8522 0.55243 0.25371 0.0
C1799 C 0.83239 0.50531 0.19625 0.0
C1800 C 0.81829 0.48225 0.24006 0.0
C1801 C 0.83557 0.49411 0.17967 0.0
C1802 C 0.83374 0.51262 0.3107 0.0
C1803 C 0.83091 0.50437 0.29357 0.0
C1804 C 0.84226 0.53325 0.25007 0.0
C1805 C 0.83295 0.48502 0.21033 0.0
C1806 C 0.83104 0.49718 0.228 0.0
C1807 C 0.83086 0.52713 0.28065 0.0
C1808 C 0.82989 0.51793 0.2623 0.0
H1809 H 0.84277 0.4175 0.18921 0.0
H1810 H 0.83709 0.43715 0.21817 0.0
H1811 H 0.8529 0.53477 0.22409 0.0
H1812 H 0.83821 0.59102 0.30564 0.0
H1813 H 0.83269 0.57668 0.27579 0.0
C1814 C 0.16111 0.49025 0.3148 0.0
C1815 C 0.15586 0.45911 0.31812 0.0
C1816 C 0.16464 0.50034 0.29806 0.0
C1817 C 0.17623 0.47464 0.25408 0.0
H1818 H 0.14433 0.54726 0.24098 0.0
C1819 C 0.15862 0.50587 0.1837 0.0
C1820 C 0.1565 0.53731 0.17918 0.0
C1821 C 0.162 0.49732 0.20074 0.0
C1822 C 0.15372 0.52736 0.24444 0.0
H1823 H 0.15119 0.41387 0.30645 0.0
H1824 H 0.1574 0.43163 0.27719 0.0
H1825 H 0.14435 0.53031 0.27068 0.0
H1826 H 0.15755 0.58452 0.18887 0.0
H1827 H 0.16403 0.56963 0.21849 0.0
H1828 H 0.18552 0.47159 0.22779 0.0
C1829 C 0.15879 0.44814 0.28761 0.0
C1830 C 0.15366 0.51759 0.26148 0.0
C1831 C 0.15511 0.43803 0.30436 0.0
C1832 C 0.15882 0.56006 0.19195 0.0
C1833 C 0.16244 0.55152 0.20895 0.0
C1834 C 0.17645 0.48459 0.23702 0.0
C1835 C 0.16316 0.47951 0.28428 0.0
C1836 C 0.16468 0.49093 0.26643 0.0
C1837 C 0.16357 0.52002 0.21362 0.0
C1838 C 0.16495 0.51083 0.23195 0.0
H1839 H 0.16198 0.50713 0.32507 0.0
H1840 H 0.16822 0.52459 0.29586 0.0
H1841 H 0.18502 0.45417 0.25762 0.0
H1842 H 0.15692 0.48772 0.1742 0.0
H1843 H 0.16254 0.47284 0.20387 0.0
C1844 C 0.15549 0.56414 0.80487 0.0
C1845 C 0.15387 0.54155 0.81781 0.0
C1846 C 0.15905 0.55542 0.78788 0.0
C1847 C 0.17486 0.48866 0.76039 0.0
H1848 H 0.14247 0.53215 0.72602 0.0
C1849 C 0.15573 0.43975 0.69316 0.0
C1850 C 0.15644 0.46051 0.67925 0.0
C1851 C 0.15887 0.45039 0.70988 0.0
C1852 C 0.15185 0.52007 0.73544 0.0
H1853 H 0.15523 0.49208 0.82307 0.0
H1854 H 0.16075 0.47688 0.79345 0.0
H1855 H 0.14146 0.54964 0.75564 0.0
H1856 H 0.16194 0.50856 0.672 0.0
H1857 H 0.16722 0.52697 0.70117 0.0
H1858 H 0.1845 0.4583 0.74011 0.0
C1859 C 0.15974 0.50139 0.79643 0.0
C1860 C 0.15134 0.53014 0.75242 0.0
C1861 C 0.15641 0.51012 0.81344 0.0
C1862 C 0.16113 0.49191 0.68239 0.0
C1863 C 0.1641 0.50254 0.6991 0.0
C1864 C 0.1752 0.4784 0.7434 0.0
C1865 C 0.16084 0.5239 0.7834 0.0
C1866 C 0.16267 0.5144 0.76515 0.0
C1867 C 0.16263 0.482 0.71302 0.0
C1868 C 0.16355 0.49387 0.7308 0.0
H1869 H 0.15385 0.58859 0.80782 0.0
H1870 H 0.16022 0.57341 0.77823 0.0
H1871 H 0.18406 0.47631 0.76981 0.0
H1872 H 0.15223 0.41541 0.69121 0.0
H1873 H 0.15752 0.4341 0.72041 0.0
C1874 C 0.83542 0.56647 0.68831 0.0
C1875 C 0.83689 0.54312 0.67578 0.0
C1876 C 0.83155 0.55879 0.70542 0.0
C1877 C 0.81489 0.49383 0.73393 0.0
H1878 H 0.84861 0.53703 0.76751 0.0
C1879 C 0.83563 0.44458 0.8006 0.0
C1880 C 0.83566 0.46519 0.81458 0.0
C1881 C 0.83202 0.45547 0.784 0.0
C1882 C 0.83884 0.52507 0.75833 0.0
H1883 H 0.83482 0.49343 0.67137 0.0
H1884 H 0.82875 0.48007 0.70115 0.0
H1885 H 0.84912 0.55394 0.73777 0.0
H1886 H 0.83107 0.51331 0.82209 0.0
H1887 H 0.82499 0.53219 0.79308 0.0
H1888 H 0.80539 0.46409 0.75453 0.0
C1889 C 0.83013 0.50437 0.69777 0.0
C1890 C 0.83907 0.53481 0.74127 0.0
C1891 C 0.8338 0.51204 0.68066 0.0
C1892 C 0.8313 0.49676 0.81163 0.0
C1893 C 0.82786 0.50766 0.79502 0.0
C1894 C 0.81482 0.4839 0.75098 0.0
C1895 C 0.82926 0.52759 0.71041 0.0
C1896 C 0.82735 0.51903 0.7288 0.0
C1897 C 0.82851 0.48721 0.78103 0.0
C1898 C 0.82702 0.49919 0.76329 0.0
H1899 H 0.83751 0.59068 0.68497 0.0
H1900 H 0.8306 0.57731 0.71478 0.0
H1901 H 0.80538 0.4815 0.72472 0.0
H1902 H 0.83885 0.42011 0.8024 0.0
H1903 H 0.83278 0.43924 0.77341 0.0
loop_
_geom_bond_atom_site_label_1
_geom_bond_atom_site_label_2
_geom_bond_distance
_geom_bond_site_symmetry_2
_ccdc_geom_bond_type
Co0 O2 2.143 . S
Co0 O8 2.074 . S
Co0 O11 2.093 . S
Co0 O24 2.097 . S
Co0 N41 2.151 1_545 S
Co0 N49 2.214 1_545 S
Co1 O2 2.160 . S
Co1 O7 2.058 . S
Co1 O17 2.057 . S
Co1 O32 2.037 . S
Co1 N36 2.145 . S
Co1 N57 2.257 . S
O2 Co0 2.143 . S
O2 Co1 2.160 . S
C3 O4 1.278 . S
C3 O11 1.224 . S
O4 C3 1.278 . S
C5 O6 1.245 . S
C5 O17 1.232 . S
O6 C5 1.245 . S
O7 Co1 2.058 . S
O7 C33 1.269 . S
O8 Co0 2.074 . S
O8 C33 1.257 . S
H9 C34 0.930 . S
H10 C40 0.930 . S
O11 Co0 2.093 . S
O11 C3 1.224 . S
H12 C44 0.929 . S
H13 C46 0.930 . S
H14 C47 0.930 . S
H15 C45 0.929 . S
H16 C48 0.928 . S
O17 Co1 2.057 . S
O17 C5 1.232 . S
H18 C37 0.929 . S
H19 C38 0.929 . S
H20 C50 0.931 . S
H21 C42 0.929 1_545 S
H22 C51 0.930 . S
H23 C43 0.931 . S
O24 Co0 2.097 . S
O24 C52 1.214 . S
H25 C53 0.929 . S
H26 C54 0.929 . S
H27 C55 0.930 . S
H28 C56 0.929 . S
H29 C58 0.930 . S
H30 C35 0.930 . S
H31 C39 0.930 . S
O32 Co1 2.037 . S
O32 C52 1.234 . S
C33 O7 1.269 . S
C33 O8 1.257 . S
C34 H9 0.930 . S
C34 C37 1.388 . S
C34 C39 1.418 . S
C35 H30 0.930 . S
C35 C38 1.404 . S
C35 C39 1.353 . S
N36 Co1 2.145 . S
N36 C37 1.397 . S
N36 C38 1.334 . S
C37 H18 0.929 . S
C37 C34 1.388 . S
C37 N36 1.397 . S
C38 H19 0.929 . S
C38 C35 1.404 . S
C38 N36 1.334 . S
C39 H31 0.930 . S
C39 C34 1.418 . S
C39 C35 1.353 . S
C40 H10 0.930 . S
C40 N41 1.330 1_545 S
C40 C42 1.446 1_545 S
N41 Co0 2.151 1_565 S
N41 C40 1.330 1_565 S
N41 C45 1.418 . S
C42 H21 0.929 1_565 S
C42 C40 1.446 1_565 S
C42 C43 1.332 . S
C43 H23 0.931 . S
C43 C42 1.332 . S
C43 C44 1.267 . S
C44 H12 0.929 . S
C44 C43 1.267 . S
C44 C45 1.251 . S
C45 H15 0.929 . S
C45 N41 1.418 . S
C45 C44 1.251 . S
C46 H13 0.930 . S
C46 C48 1.406 . S
C46 C51 1.261 . S
C47 H14 0.930 . S
C47 N49 1.325 . S
C47 C50 1.357 . S
C48 H16 0.928 . S
C48 C46 1.406 . S
C48 N49 1.261 . S
N49 Co0 2.214 1_565 S
N49 C47 1.325 . S
N49 C48 1.261 . S
C50 H20 0.931 . S
C50 C47 1.357 . S
C50 C51 1.312 . S
C51 H22 0.930 . S
C51 C46 1.261 . S
C51 C50 1.312 . S
C52 O24 1.214 . S
C52 O32 1.234 . S
C53 H25 0.929 . S
C53 C56 1.391 . S
C53 C58 1.391 . S
C54 H26 0.929 . S
C54 C55 1.390 . S
C54 N57 1.391 . S
C55 H27 0.930 . S
C55 C54 1.390 . S
C55 C56 1.392 . S
C56 H28 0.929 . S
C56 C53 1.391 . S
C56 C55 1.392 . S
N57 Co1 2.257 . S
N57 C54 1.391 . S
N57 C58 1.388 . S
C58 H29 0.930 . S
C58 C53 1.391 . S
C58 N57 1.388 . S
Co59 O61 2.143 . S
Co59 O67 2.074 . S
Co59 O70 2.093 . S
Co59 O83 2.097 . S
Co59 N100 2.151 1_565 S
Co59 N108 2.214 1_565 S
Co60 O61 2.160 . S
Co60 O66 2.058 . S
Co60 O76 2.057 . S
Co60 O91 2.037 . S
Co60 N95 2.145 . S
Co60 N116 2.257 . S
O61 Co59 2.143 . S
O61 Co60 2.160 . S
C62 O63 1.278 . S
C62 O70 1.224 . S
O63 C62 1.278 . S
C64 O65 1.245 . S
C64 O76 1.232 . S
O65 C64 1.245 . S
O66 Co60 2.058 . S
O66 C92 1.269 . S
O67 Co59 2.074 . S
O67 C92 1.257 . S
H68 C93 0.930 . S
H69 C99 0.930 . S
O70 Co59 2.093 . S
O70 C62 1.224 . S
H71 C103 0.929 . S
H72 C105 0.930 . S
H73 C106 0.930 . S
H74 C104 0.929 . S
H75 C107 0.928 . S
O76 Co60 2.057 . S
O76 C64 1.232 . S
H77 C96 0.929 . S
H78 C97 0.929 . S
H79 C109 0.931 . S
H80 C101 0.929 1_565 S
H81 C110 0.930 . S
H82 C102 0.931 . S
O83 Co59 2.097 . S
O83 C111 1.214 . S
H84 C112 0.929 . S
H85 C113 0.929 . S
H86 C114 0.930 . S
H87 C115 0.929 . S
H88 C117 0.930 . S
H89 C94 0.930 . S
H90 C98 0.930 . S
O91 Co60 2.037 . S
O91 C111 1.234 . S
C92 O66 1.269 . S
C92 O67 1.257 . S
C93 H68 0.930 . S
C93 C96 1.388 . S
C93 C98 1.418 . S
C94 H89 0.930 . S
C94 C97 1.404 . S
C94 C98 1.353 . S
N95 Co60 2.145 . S
N95 C96 1.397 . S
N95 C97 1.334 . S
C96 H77 0.929 . S
C96 C93 1.388 . S
C96 N95 1.397 . S
C97 H78 0.929 . S
C97 C94 1.404 . S
C97 N95 1.334 . S
C98 H90 0.930 . S
C98 C93 1.418 . S
C98 C94 1.353 . S
C99 H69 0.930 . S
C99 N100 1.330 1_565 S
C99 C101 1.446 1_565 S
N100 Co59 2.151 1_545 S
N100 C99 1.330 1_545 S
N100 C104 1.418 . S
C101 H80 0.929 1_545 S
C101 C99 1.446 1_545 S
C101 C102 1.332 . S
C102 H82 0.931 . S
C102 C101 1.332 . S
C102 C103 1.267 . S
C103 H71 0.929 . S
C103 C102 1.267 . S
C103 C104 1.251 . S
C104 H74 0.929 . S
C104 N100 1.418 . S
C104 C103 1.251 . S
C105 H72 0.930 . S
C105 C107 1.406 . S
C105 C110 1.261 . S
C106 H73 0.930 . S
C106 N108 1.325 . S
C106 C109 1.357 . S
C107 H75 0.928 . S
C107 C105 1.406 . S
C107 N108 1.261 . S
N108 Co59 2.214 1_545 S
N108 C106 1.325 . S
N108 C107 1.261 . S
C109 H79 0.931 . S
C109 C106 1.357 . S
C109 C110 1.312 . S
C110 H81 0.930 . S
C110 C105 1.261 . S
C110 C109 1.312 . S
C111 O83 1.214 . S
C111 O91 1.234 . S
C112 H84 0.929 . S
C112 C115 1.391 . S
C112 C117 1.391 . S
C113 H85 0.929 . S
C113 C114 1.390 . S
C113 N116 1.391 . S
C114 H86 0.930 . S
C114 C113 1.390 . S
C114 C115 1.392 . S
C115 H87 0.929 . S
C115 C112 1.391 . S
C115 C114 1.392 . S
N116 Co60 2.257 . S
N116 C113 1.391 . S
N116 C117 1.388 . S
C117 H88 0.930 . S
C117 C112 1.391 . S
C117 N116 1.388 . S
Co118 O120 2.143 . S
Co118 O126 2.074 . S
Co118 O129 2.093 . S
Co118 O142 2.097 . S
Co118 N159 2.151 1_565 S
Co118 N167 2.214 1_565 S
Co119 O120 2.160 . S
Co119 O125 2.058 . S
Co119 O135 2.057 . S
Co119 O150 2.037 . S
Co119 N154 2.145 . S
Co119 N175 2.257 . S
O120 Co118 2.143 . S
O120 Co119 2.160 . S
C121 O122 1.278 . S
C121 O129 1.224 . S
O122 C121 1.278 . S
C123 O124 1.245 . S
C123 O135 1.232 . S
O124 C123 1.245 . S
O125 Co119 2.058 . S
O125 C151 1.269 . S
O126 Co118 2.074 . S
O126 C151 1.257 . S
H127 C152 0.930 . S
H128 C158 0.930 . S
O129 Co118 2.093 . S
O129 C121 1.224 . S
H130 C162 0.929 . S
H131 C164 0.930 . S
H132 C165 0.930 . S
H133 C163 0.929 . S
H134 C166 0.928 . S
O135 Co119 2.057 . S
O135 C123 1.232 . S
H136 C155 0.929 . S
H137 C156 0.929 . S
H138 C168 0.931 . S
H139 C160 0.929 1_565 S
H140 C169 0.930 . S
H141 C161 0.931 . S
O142 Co118 2.097 . S
O142 C170 1.214 . S
H143 C171 0.929 . S
H144 C172 0.929 . S
H145 C173 0.930 . S
H146 C174 0.929 . S
H147 C176 0.930 . S
H148 C153 0.930 . S
H149 C157 0.930 . S
O150 Co119 2.037 . S
O150 C170 1.234 . S
C151 O125 1.269 . S
C151 O126 1.257 . S
C152 H127 0.930 . S
C152 C155 1.388 . S
C152 C157 1.418 . S
C153 H148 0.930 . S
C153 C156 1.404 . S
C153 C157 1.353 . S
N154 Co119 2.145 . S
N154 C155 1.397 . S
N154 C156 1.334 . S
C155 H136 0.929 . S
C155 C152 1.388 . S
C155 N154 1.397 . S
C156 H137 0.929 . S
C156 C153 1.404 . S
C156 N154 1.334 . S
C157 H149 0.930 . S
C157 C152 1.418 . S
C157 C153 1.353 . S
C158 H128 0.930 . S
C158 N159 1.330 1_565 S
C158 C160 1.446 1_565 S
N159 Co118 2.151 1_545 S
N159 C158 1.330 1_545 S
N159 C163 1.418 . S
C160 H139 0.929 1_545 S
C160 C158 1.446 1_545 S
C160 C161 1.332 . S
C161 H141 0.931 . S
C161 C160 1.332 . S
C161 C162 1.267 . S
C162 H130 0.929 . S
C162 C161 1.267 . S
C162 C163 1.251 . S
C163 H133 0.929 . S
C163 N159 1.418 . S
C163 C162 1.251 . S
C164 H131 0.930 . S
C164 C166 1.406 . S
C164 C169 1.261 . S
C165 H132 0.930 . S
C165 N167 1.325 . S
C165 C168 1.357 . S
C166 H134 0.928 . S
C166 C164 1.406 . S
C166 N167 1.261 . S
N167 Co118 2.214 1_545 S
N167 C165 1.325 . S
N167 C166 1.261 . S
C168 H138 0.931 . S
C168 C165 1.357 . S
C168 C169 1.312 . S
C169 H140 0.930 . S
C169 C164 1.261 . S
C169 C168 1.312 . S
C170 O142 1.214 . S
C170 O150 1.234 . S
C171 H143 0.929 . S
C171 C174 1.391 . S
C171 C176 1.391 . S
C172 H144 0.929 . S
C172 C173 1.390 . S
C172 N175 1.391 . S
C173 H145 0.930 . S
C173 C172 1.390 . S
C173 C174 1.392 . S
C174 H146 0.929 . S
C174 C171 1.391 . S
C174 C173 1.392 . S
N175 Co119 2.257 . S
N175 C172 1.391 . S
N175 C176 1.388 . S
C176 H147 0.930 . S
C176 C171 1.391 . S
C176 N175 1.388 . S
Co177 O179 2.143 . S
Co177 O185 2.074 . S
Co177 O188 2.093 . S
Co177 O201 2.097 . S
Co177 N218 2.151 1_545 S
Co177 N226 2.214 1_545 S
Co178 O179 2.160 . S
Co178 O184 2.058 . S
Co178 O194 2.057 . S
Co178 O209 2.037 . S
Co178 N213 2.145 . S
Co178 N234 2.257 . S
O179 Co177 2.143 . S
O179 Co178 2.160 . S
C180 O181 1.278 . S
C180 O188 1.224 . S
O181 C180 1.278 . S
C182 O183 1.245 . S
C182 O194 1.232 . S
O183 C182 1.245 . S
O184 Co178 2.058 . S
O184 C210 1.269 . S
O185 Co177 2.074 . S
O185 C210 1.257 . S
H186 C211 0.930 . S
H187 C217 0.930 . S
O188 Co177 2.093 . S
O188 C180 1.224 . S
H189 C221 0.929 . S
H190 C223 0.930 . S
H191 C224 0.930 . S
H192 C222 0.929 . S
H193 C225 0.928 . S
O194 Co178 2.057 . S
O194 C182 1.232 . S
H195 C214 0.929 . S
H196 C215 0.929 . S
H197 C227 0.931 . S
H198 C219 0.929 1_545 S
H199 C228 0.930 . S
H200 C220 0.931 . S
O201 Co177 2.097 . S
O201 C229 1.214 . S
H202 C230 0.929 . S
H203 C231 0.929 . S
H204 C232 0.930 . S
H205 C233 0.929 . S
H206 C235 0.930 . S
H207 C212 0.930 . S
H208 C216 0.930 . S
O209 Co178 2.037 . S
O209 C229 1.234 . S
C210 O184 1.269 . S
C210 O185 1.257 . S
C211 H186 0.930 . S
C211 C214 1.388 . S
C211 C216 1.418 . S
C212 H207 0.930 . S
C212 C215 1.404 . S
C212 C216 1.353 . S
N213 Co178 2.145 . S
N213 C214 1.397 . S
N213 C215 1.334 . S
C214 H195 0.929 . S
C214 C211 1.388 . S
C214 N213 1.397 . S
C215 H196 0.929 . S
C215 C212 1.404 . S
C215 N213 1.334 . S
C216 H208 0.930 . S
C216 C211 1.418 . S
C216 C212 1.353 . S
C217 H187 0.930 . S
C217 N218 1.330 1_545 S
C217 C219 1.446 1_545 S
N218 Co177 2.151 1_565 S
N218 C217 1.330 1_565 S
N218 C222 1.418 . S
C219 H198 0.929 1_565 S
C219 C217 1.446 1_565 S
C219 C220 1.332 . S
C220 H200 0.931 . S
C220 C219 1.332 . S
C220 C221 1.267 . S
C221 H189 0.929 . S
C221 C220 1.267 . S
C221 C222 1.251 . S
C222 H192 0.929 . S
C222 N218 1.418 . S
C222 C221 1.251 . S
C223 H190 0.930 . S
C223 C225 1.406 . S
C223 C228 1.261 . S
C224 H191 0.930 . S
C224 N226 1.325 . S
C224 C227 1.357 . S
C225 H193 0.928 . S
C225 C223 1.406 . S
C225 N226 1.261 . S
N226 Co177 2.214 1_565 S
N226 C224 1.325 . S
N226 C225 1.261 . S
C227 H197 0.931 . S
C227 C224 1.357 . S
C227 C228 1.312 . S
C228 H199 0.930 . S
C228 C223 1.261 . S
C228 C227 1.312 . S
C229 O201 1.214 . S
C229 O209 1.234 . S
C230 H202 0.929 . S
C230 C233 1.391 . S
C230 C235 1.391 . S
C231 H203 0.929 . S
C231 C232 1.390 . S
C231 N234 1.391 . S
C232 H204 0.930 . S
C232 C231 1.390 . S
C232 C233 1.392 . S
C233 H205 0.929 . S
C233 C230 1.391 . S
C233 C232 1.392 . S
N234 Co178 2.257 . S
N234 C231 1.391 . S
N234 C235 1.388 . S
C235 H206 0.930 . S
C235 C230 1.391 . S
C235 N234 1.388 . S
Co236 O238 2.143 . S
Co236 O244 2.074 . S
Co236 O247 2.093 . S
Co236 O260 2.097 . S
Co236 N277 2.151 1_565 S
Co236 N285 2.214 1_565 S
Co237 O238 2.160 . S
Co237 O243 2.058 . S
Co237 O253 2.057 . S
Co237 O268 2.037 . S
Co237 N272 2.145 . S
Co237 N293 2.257 . S
O238 Co236 2.143 . S
O238 Co237 2.160 . S
C239 O240 1.278 . S
C239 O247 1.224 . S
O240 C239 1.278 . S
C241 O242 1.245 . S
C241 O253 1.232 . S
O242 C241 1.245 . S
O243 Co237 2.058 . S
O243 C269 1.269 . S
O244 Co236 2.074 . S
O244 C269 1.257 . S
H245 C270 0.930 . S
H246 C276 0.930 . S
O247 Co236 2.093 . S
O247 C239 1.224 . S
H248 C280 0.929 . S
H249 C282 0.930 . S
H250 C283 0.930 . S
H251 C281 0.929 . S
H252 C284 0.928 . S
O253 Co237 2.057 . S
O253 C241 1.232 . S
H254 C273 0.929 . S
H255 C274 0.929 . S
H256 C286 0.931 . S
H257 C278 0.929 1_565 S
H258 C287 0.930 . S
H259 C279 0.931 . S
O260 Co236 2.097 . S
O260 C288 1.214 . S
H261 C289 0.929 . S
H262 C290 0.929 . S
H263 C291 0.930 . S
H264 C292 0.929 . S
H265 C294 0.930 . S
H266 C271 0.930 . S
H267 C275 0.930 . S
O268 Co237 2.037 . S
O268 C288 1.234 . S
C269 O243 1.269 . S
C269 O244 1.257 . S
C270 H245 0.930 . S
C270 C273 1.388 . S
C270 C275 1.418 . S
C271 H266 0.930 . S
C271 C274 1.404 . S
C271 C275 1.353 . S
N272 Co237 2.145 . S
N272 C273 1.397 . S
N272 C274 1.334 . S
C273 H254 0.929 . S
C273 C270 1.388 . S
C273 N272 1.397 . S
C274 H255 0.929 . S
C274 C271 1.404 . S
C274 N272 1.334 . S
C275 H267 0.930 . S
C275 C270 1.418 . S
C275 C271 1.353 . S
C276 H246 0.930 . S
C276 N277 1.330 1_565 S
C276 C278 1.446 1_565 S
N277 Co236 2.151 1_545 S
N277 C276 1.330 1_545 S
N277 C281 1.418 . S
C278 H257 0.929 1_545 S
C278 C276 1.446 1_545 S
C278 C279 1.332 . S
C279 H259 0.931 . S
C279 C278 1.332 . S
C279 C280 1.267 . S
C280 H248 0.929 . S
C280 C279 1.267 . S
C280 C281 1.251 . S
C281 H251 0.929 . S
C281 N277 1.418 . S
C281 C280 1.251 . S
C282 H249 0.930 . S
C282 C284 1.406 . S
C282 C287 1.261 . S
C283 H250 0.930 . S
C283 N285 1.325 . S
C283 C286 1.357 . S
C284 H252 0.928 . S
C284 C282 1.406 . S
C284 N285 1.261 . S
N285 Co236 2.214 1_545 S
N285 C283 1.325 . S
N285 C284 1.261 . S
C286 H256 0.931 . S
C286 C283 1.357 . S
C286 C287 1.312 . S
C287 H258 0.930 . S
C287 C282 1.261 . S
C287 C286 1.312 . S
C288 O260 1.214 . S
C288 O268 1.234 . S
C289 H261 0.929 . S
C289 C292 1.391 . S
C289 C294 1.391 . S
C290 H262 0.929 . S
C290 C291 1.390 . S
C290 N293 1.391 . S
C291 H263 0.930 . S
C291 C290 1.390 . S
C291 C292 1.392 . S
C292 H264 0.929 . S
C292 C289 1.391 . S
C292 C291 1.392 . S
N293 Co237 2.257 . S
N293 C290 1.391 . S
N293 C294 1.388 . S
C294 H265 0.930 . S
C294 C289 1.391 . S
C294 N293 1.388 . S
Co295 O297 2.143 . S
Co295 O303 2.074 . S
Co295 O306 2.093 . S
Co295 O319 2.097 . S
Co295 N336 2.151 1_545 S
Co295 N344 2.214 1_545 S
Co296 O297 2.160 . S
Co296 O302 2.058 . S
Co296 O312 2.057 . S
Co296 O327 2.037 . S
Co296 N331 2.145 . S
Co296 N352 2.257 . S
O297 Co295 2.143 . S
O297 Co296 2.160 . S
C298 O299 1.278 . S
C298 O306 1.224 . S
O299 C298 1.278 . S
C300 O301 1.245 . S
C300 O312 1.232 . S
O301 C300 1.245 . S
O302 Co296 2.058 . S
O302 C328 1.269 . S
O303 Co295 2.074 . S
O303 C328 1.257 . S
H304 C329 0.930 . S
H305 C335 0.930 . S
O306 Co295 2.093 . S
O306 C298 1.224 . S
H307 C339 0.929 . S
H308 C341 0.930 . S
H309 C342 0.930 . S
H310 C340 0.929 . S
H311 C343 0.928 . S
O312 Co296 2.057 . S
O312 C300 1.232 . S
H313 C332 0.929 . S
H314 C333 0.929 . S
H315 C345 0.931 . S
H316 C337 0.929 1_545 S
H317 C346 0.930 . S
H318 C338 0.931 . S
O319 Co295 2.097 . S
O319 C347 1.214 . S
H320 C348 0.929 . S
H321 C349 0.929 . S
H322 C350 0.930 . S
H323 C351 0.929 . S
H324 C353 0.930 . S
H325 C330 0.930 . S
H326 C334 0.930 . S
O327 Co296 2.037 . S
O327 C347 1.234 . S
C328 O302 1.269 . S
C328 O303 1.257 . S
C329 H304 0.930 . S
C329 C332 1.388 . S
C329 C334 1.418 . S
C330 H325 0.930 . S
C330 C333 1.404 . S
C330 C334 1.353 . S
N331 Co296 2.145 . S
N331 C332 1.397 . S
N331 C333 1.334 . S
C332 H313 0.929 . S
C332 C329 1.388 . S
C332 N331 1.397 . S
C333 H314 0.929 . S
C333 C330 1.404 . S
C333 N331 1.334 . S
C334 H326 0.930 . S
C334 C329 1.418 . S
C334 C330 1.353 . S
C335 H305 0.930 . S
C335 N336 1.330 1_545 S
C335 C337 1.446 1_545 S
N336 Co295 2.151 1_565 S
N336 C335 1.330 1_565 S
N336 C340 1.418 . S
C337 H316 0.929 1_565 S
C337 C335 1.446 1_565 S
C337 C338 1.332 . S
C338 H318 0.931 . S
C338 C337 1.332 . S
C338 C339 1.267 . S
C339 H307 0.929 . S
C339 C338 1.267 . S
C339 C340 1.251 . S
C340 H310 0.929 . S
C340 N336 1.418 . S
C340 C339 1.251 . S
C341 H308 0.930 . S
C341 C343 1.406 . S
C341 C346 1.261 . S
C342 H309 0.930 . S
C342 N344 1.325 . S
C342 C345 1.357 . S
C343 H311 0.928 . S
C343 C341 1.406 . S
C343 N344 1.261 . S
N344 Co295 2.214 1_565 S
N344 C342 1.325 . S
N344 C343 1.261 . S
C345 H315 0.931 . S
C345 C342 1.357 . S
C345 C346 1.312 . S
C346 H317 0.930 . S
C346 C341 1.261 . S
C346 C345 1.312 . S
C347 O319 1.214 . S
C347 O327 1.234 . S
C348 H320 0.929 . S
C348 C351 1.391 . S
C348 C353 1.391 . S
C349 H321 0.929 . S
C349 C350 1.390 . S
C349 N352 1.391 . S
C350 H322 0.930 . S
C350 C349 1.390 . S
C350 C351 1.392 . S
C351 H323 0.929 . S
C351 C348 1.391 . S
C351 C350 1.392 . S
N352 Co296 2.257 . S
N352 C349 1.391 . S
N352 C353 1.388 . S
C353 H324 0.930 . S
C353 C348 1.391 . S
C353 N352 1.388 . S
Co354 O356 2.143 . S
Co354 O362 2.074 . S
Co354 O365 2.093 . S
Co354 O378 2.097 . S
Co354 N395 2.151 1_545 S
Co354 N403 2.214 1_545 S
Co355 O356 2.160 . S
Co355 O361 2.058 . S
Co355 O371 2.057 . S
Co355 O386 2.037 . S
Co355 N390 2.145 . S
Co355 N411 2.257 . S
O356 Co354 2.143 . S
O356 Co355 2.160 . S
C357 O358 1.278 . S
C357 O365 1.224 . S
O358 C357 1.278 . S
C359 O360 1.245 . S
C359 O371 1.232 . S
O360 C359 1.245 . S
O361 Co355 2.058 . S
O361 C387 1.269 . S
O362 Co354 2.074 . S
O362 C387 1.257 . S
H363 C388 0.930 . S
H364 C394 0.930 . S
O365 Co354 2.093 . S
O365 C357 1.224 . S
H366 C398 0.929 . S
H367 C400 0.930 . S
H368 C401 0.930 . S
H369 C399 0.929 . S
H370 C402 0.928 . S
O371 Co355 2.057 . S
O371 C359 1.232 . S
H372 C391 0.929 . S
H373 C392 0.929 . S
H374 C404 0.931 . S
H375 C396 0.929 1_545 S
H376 C405 0.930 . S
H377 C397 0.931 . S
O378 Co354 2.097 . S
O378 C406 1.214 . S
H379 C407 0.929 . S
H380 C408 0.929 . S
H381 C409 0.930 . S
H382 C410 0.929 . S
H383 C412 0.930 . S
H384 C389 0.930 . S
H385 C393 0.930 . S
O386 Co355 2.037 . S
O386 C406 1.234 . S
C387 O361 1.269 . S
C387 O362 1.257 . S
C388 H363 0.930 . S
C388 C391 1.388 . S
C388 C393 1.418 . S
C389 H384 0.930 . S
C389 C392 1.404 . S
C389 C393 1.353 . S
N390 Co355 2.145 . S
N390 C391 1.397 . S
N390 C392 1.334 . S
C391 H372 0.929 . S
C391 C388 1.388 . S
C391 N390 1.397 . S
C392 H373 0.929 . S
C392 C389 1.404 . S
C392 N390 1.334 . S
C393 H385 0.930 . S
C393 C388 1.418 . S
C393 C389 1.353 . S
C394 H364 0.930 . S
C394 N395 1.330 1_545 S
C394 C396 1.446 1_545 S
N395 Co354 2.151 1_565 S
N395 C394 1.330 1_565 S
N395 C399 1.418 . S
C396 H375 0.929 1_565 S
C396 C394 1.446 1_565 S
C396 C397 1.332 . S
C397 H377 0.931 . S
C397 C396 1.332 . S
C397 C398 1.267 . S
C398 H366 0.929 . S
C398 C397 1.267 . S
C398 C399 1.251 . S
C399 H369 0.929 . S
C399 N395 1.418 . S
C399 C398 1.251 . S
C400 H367 0.930 . S
C400 C402 1.406 . S
C400 C405 1.261 . S
C401 H368 0.930 . S
C401 N403 1.325 . S
C401 C404 1.357 . S
C402 H370 0.928 . S
C402 C400 1.406 . S
C402 N403 1.261 . S
N403 Co354 2.214 1_565 S
N403 C401 1.325 . S
N403 C402 1.261 . S
C404 H374 0.931 . S
C404 C401 1.357 . S
C404 C405 1.312 . S
C405 H376 0.930 . S
C405 C400 1.261 . S
C405 C404 1.312 . S
C406 O378 1.214 . S
C406 O386 1.234 . S
C407 H379 0.929 . S
C407 C410 1.391 . S
C407 C412 1.391 . S
C408 H380 0.929 . S
C408 C409 1.390 . S
C408 N411 1.391 . S
C409 H381 0.930 . S
C409 C408 1.390 . S
C409 C410 1.392 . S
C410 H382 0.929 . S
C410 C407 1.391 . S
C410 C409 1.392 . S
N411 Co355 2.257 . S
N411 C408 1.391 . S
N411 C412 1.388 . S
C412 H383 0.930 . S
C412 C407 1.391 . S
C412 N411 1.388 . S
Co413 O415 2.143 . S
Co413 O421 2.074 . S
Co413 O424 2.093 . S
Co413 O437 2.097 . S
Co413 N454 2.151 1_565 S
Co413 N462 2.214 1_565 S
Co414 O415 2.160 . S
Co414 O420 2.058 . S
Co414 O430 2.057 . S
Co414 O445 2.037 . S
Co414 N449 2.145 . S
Co414 N470 2.257 . S
O415 Co413 2.143 . S
O415 Co414 2.160 . S
C416 O417 1.278 . S
C416 O424 1.224 . S
O417 C416 1.278 . S
C418 O419 1.245 . S
C418 O430 1.232 . S
O419 C418 1.245 . S
O420 Co414 2.058 . S
O420 C446 1.269 . S
O421 Co413 2.074 . S
O421 C446 1.257 . S
H422 C447 0.930 . S
H423 C453 0.930 . S
O424 Co413 2.093 . S
O424 C416 1.224 . S
H425 C457 0.929 . S
H426 C459 0.930 . S
H427 C460 0.930 . S
H428 C458 0.929 . S
H429 C461 0.928 . S
O430 Co414 2.057 . S
O430 C418 1.232 . S
H431 C450 0.929 . S
H432 C451 0.929 . S
H433 C463 0.931 . S
H434 C455 0.929 1_565 S
H435 C464 0.930 . S
H436 C456 0.931 . S
O437 Co413 2.097 . S
O437 C465 1.214 . S
H438 C466 0.929 . S
H439 C467 0.929 . S
H440 C468 0.930 . S
H441 C469 0.929 . S
H442 C471 0.930 . S
H443 C448 0.930 . S
H444 C452 0.930 . S
O445 Co414 2.037 . S
O445 C465 1.234 . S
C446 O420 1.269 . S
C446 O421 1.257 . S
C447 H422 0.930 . S
C447 C450 1.388 . S
C447 C452 1.418 . S
C448 H443 0.930 . S
C448 C451 1.404 . S
C448 C452 1.353 . S
N449 Co414 2.145 . S
N449 C450 1.397 . S
N449 C451 1.334 . S
C450 H431 0.929 . S
C450 C447 1.388 . S
C450 N449 1.397 . S
C451 H432 0.929 . S
C451 C448 1.404 . S
C451 N449 1.334 . S
C452 H444 0.930 . S
C452 C447 1.418 . S
C452 C448 1.353 . S
C453 H423 0.930 . S
C453 N454 1.330 1_565 S
C453 C455 1.446 1_565 S
N454 Co413 2.151 1_545 S
N454 C453 1.330 1_545 S
N454 C458 1.418 . S
C455 H434 0.929 1_545 S
C455 C453 1.446 1_545 S
C455 C456 1.332 . S
C456 H436 0.931 . S
C456 C455 1.332 . S
C456 C457 1.267 . S
C457 H425 0.929 . S
C457 C456 1.267 . S
C457 C458 1.251 . S
C458 H428 0.929 . S
C458 N454 1.418 . S
C458 C457 1.251 . S
C459 H426 0.930 . S
C459 C461 1.406 . S
C459 C464 1.261 . S
C460 H427 0.930 . S
C460 N462 1.325 . S
C460 C463 1.357 . S
C461 H429 0.928 . S
C461 C459 1.406 . S
C461 N462 1.261 . S
N462 Co413 2.214 1_545 S
N462 C460 1.325 . S
N462 C461 1.261 . S
C463 H433 0.931 . S
C463 C460 1.357 . S
C463 C464 1.312 . S
C464 H435 0.930 . S
C464 C459 1.261 . S
C464 C463 1.312 . S
C465 O437 1.214 . S
C465 O445 1.234 . S
C466 H438 0.929 . S
C466 C469 1.391 . S
C466 C471 1.391 . S
C467 H439 0.929 . S
C467 C468 1.390 . S
C467 N470 1.391 . S
C468 H440 0.930 . S
C468 C467 1.390 . S
C468 C469 1.392 . S
C469 H441 0.929 . S
C469 C466 1.391 . S
C469 C468 1.392 . S
N470 Co414 2.257 . S
N470 C467 1.391 . S
N470 C471 1.388 . S
C471 H442 0.930 . S
C471 C466 1.391 . S
C471 N470 1.388 . S
Co472 O474 2.143 . S
Co472 O480 2.074 . S
Co472 O483 2.093 . S
Co472 O496 2.097 . S
Co472 N513 2.151 . S
Co472 N521 2.214 . S
Co473 O474 2.160 . S
Co473 O479 2.058 . S
Co473 O489 2.057 . S
Co473 O504 2.037 . S
Co473 N508 2.145 . S
Co473 N529 2.257 . S
O474 Co472 2.143 . S
O474 Co473 2.160 . S
C475 O476 1.278 . S
C475 O483 1.224 . S
O476 C475 1.278 . S
C477 O478 1.245 . S
C477 O489 1.232 . S
O478 C477 1.245 . S
O479 Co473 2.058 . S
O479 C505 1.269 . S
O480 Co472 2.074 . S
O480 C505 1.257 . S
H481 C506 0.930 . S
H482 C512 0.930 . S
O483 Co472 2.093 . S
O483 C475 1.224 . S
H484 C516 0.929 . S
H485 C518 0.930 . S
H486 C519 0.930 . S
H487 C517 0.929 . S
H488 C520 0.928 . S
O489 Co473 2.057 . S
O489 C477 1.232 . S
H490 C509 0.929 . S
H491 C510 0.929 . S
H492 C522 0.931 . S
H493 C514 0.929 . S
H494 C523 0.930 . S
H495 C515 0.931 . S
O496 Co472 2.097 . S
O496 C524 1.214 . S
H497 C525 0.929 . S
H498 C526 0.929 . S
H499 C527 0.930 . S
H500 C528 0.929 . S
H501 C530 0.930 . S
H502 C507 0.930 . S
H503 C511 0.930 . S
O504 Co473 2.037 . S
O504 C524 1.234 . S
C505 O479 1.269 . S
C505 O480 1.257 . S
C506 H481 0.930 . S
C506 C509 1.388 . S
C506 C511 1.418 . S
C507 H502 0.930 . S
C507 C510 1.404 . S
C507 C511 1.353 . S
N508 Co473 2.145 . S
N508 C509 1.397 . S
N508 C510 1.334 . S
C509 H490 0.929 . S
C509 C506 1.388 . S
C509 N508 1.397 . S
C510 H491 0.929 . S
C510 C507 1.404 . S
C510 N508 1.334 . S
C511 H503 0.930 . S
C511 C506 1.418 . S
C511 C507 1.353 . S
C512 H482 0.930 . S
C512 N513 1.330 . S
C512 C514 1.446 . S
N513 Co472 2.151 . S
N513 C512 1.330 . S
N513 C517 1.418 . S
C514 H493 0.929 . S
C514 C512 1.446 . S
C514 C515 1.332 . S
C515 H495 0.931 . S
C515 C514 1.332 . S
C515 C516 1.267 . S
C516 H484 0.929 . S
C516 C515 1.267 . S
C516 C517 1.251 . S
C517 H487 0.929 . S
C517 N513 1.418 . S
C517 C516 1.251 . S
C518 H485 0.930 . S
C518 C520 1.406 . S
C518 C523 1.261 . S
C519 H486 0.930 . S
C519 N521 1.325 . S
C519 C522 1.357 . S
C520 H488 0.928 . S
C520 C518 1.406 . S
C520 N521 1.261 . S
N521 Co472 2.214 . S
N521 C519 1.325 . S
N521 C520 1.261 . S
C522 H492 0.931 . S
C522 C519 1.357 . S
C522 C523 1.312 . S
C523 H494 0.930 . S
C523 C518 1.261 . S
C523 C522 1.312 . S
C524 O496 1.214 . S
C524 O504 1.234 . S
C525 H497 0.929 . S
C525 C528 1.391 . S
C525 C530 1.391 . S
C526 H498 0.929 . S
C526 C527 1.390 . S
C526 N529 1.391 . S
C527 H499 0.930 . S
C527 C526 1.390 . S
C527 C528 1.392 . S
C528 H500 0.929 . S
C528 C525 1.391 . S
C528 C527 1.392 . S
N529 Co473 2.257 . S
N529 C526 1.391 . S
N529 C530 1.388 . S
C530 H501 0.930 . S
C530 C525 1.391 . S
C530 N529 1.388 . S
Co531 O533 2.143 . S
Co531 O539 2.074 . S
Co531 O542 2.093 . S
Co531 O555 2.097 . S
Co531 N572 2.151 . S
Co531 N580 2.214 . S
Co532 O533 2.160 . S
Co532 O538 2.058 . S
Co532 O548 2.057 . S
Co532 O563 2.037 . S
Co532 N567 2.145 . S
Co532 N588 2.257 . S
O533 Co531 2.143 . S
O533 Co532 2.160 . S
C534 O535 1.278 . S
C534 O542 1.224 . S
O535 C534 1.278 . S
C536 O537 1.245 . S
C536 O548 1.232 . S
O537 C536 1.245 . S
O538 Co532 2.058 . S
O538 C564 1.269 . S
O539 Co531 2.074 . S
O539 C564 1.257 . S
H540 C565 0.930 . S
H541 C571 0.930 . S
O542 Co531 2.093 . S
O542 C534 1.224 . S
H543 C575 0.929 . S
H544 C577 0.930 . S
H545 C578 0.930 . S
H546 C576 0.929 . S
H547 C579 0.928 . S
O548 Co532 2.057 . S
O548 C536 1.232 . S
H549 C568 0.929 . S
H550 C569 0.929 . S
H551 C581 0.931 . S
H552 C573 0.929 . S
H553 C582 0.930 . S
H554 C574 0.931 . S
O555 Co531 2.097 . S
O555 C583 1.214 . S
H556 C584 0.929 . S
H557 C585 0.929 . S
H558 C586 0.930 . S
H559 C587 0.929 . S
H560 C589 0.930 . S
H561 C566 0.930 . S
H562 C570 0.930 . S
O563 Co532 2.037 . S
O563 C583 1.234 . S
C564 O538 1.269 . S
C564 O539 1.257 . S
C565 H540 0.930 . S
C565 C568 1.388 . S
C565 C570 1.418 . S
C566 H561 0.930 . S
C566 C569 1.404 . S
C566 C570 1.353 . S
N567 Co532 2.145 . S
N567 C568 1.397 . S
N567 C569 1.334 . S
C568 H549 0.929 . S
C568 C565 1.388 . S
C568 N567 1.397 . S
C569 H550 0.929 . S
C569 C566 1.404 . S
C569 N567 1.334 . S
C570 H562 0.930 . S
C570 C565 1.418 . S
C570 C566 1.353 . S
C571 H541 0.930 . S
C571 N572 1.330 . S
C571 C573 1.446 . S
N572 Co531 2.151 . S
N572 C571 1.330 . S
N572 C576 1.418 . S
C573 H552 0.929 . S
C573 C571 1.446 . S
C573 C574 1.332 . S
C574 H554 0.931 . S
C574 C573 1.332 . S
C574 C575 1.267 . S
C575 H543 0.929 . S
C575 C574 1.267 . S
C575 C576 1.251 . S
C576 H546 0.929 . S
C576 N572 1.418 . S
C576 C575 1.251 . S
C577 H544 0.930 . S
C577 C579 1.406 . S
C577 C582 1.261 . S
C578 H545 0.930 . S
C578 N580 1.325 . S
C578 C581 1.357 . S
C579 H547 0.928 . S
C579 C577 1.406 . S
C579 N580 1.261 . S
N580 Co531 2.214 . S
N580 C578 1.325 . S
N580 C579 1.261 . S
C581 H551 0.931 . S
C581 C578 1.357 . S
C581 C582 1.312 . S
C582 H553 0.930 . S
C582 C577 1.261 . S
C582 C581 1.312 . S
C583 O555 1.214 . S
C583 O563 1.234 . S
C584 H556 0.929 . S
C584 C587 1.391 . S
C584 C589 1.391 . S
C585 H557 0.929 . S
C585 C586 1.390 . S
C585 N588 1.391 . S
C586 H558 0.930 . S
C586 C585 1.390 . S
C586 C587 1.392 . S
C587 H559 0.929 . S
C587 C584 1.391 . S
C587 C586 1.392 . S
N588 Co532 2.257 . S
N588 C585 1.391 . S
N588 C589 1.388 . S
C589 H560 0.930 . S
C589 C584 1.391 . S
C589 N588 1.388 . S
Co590 O592 2.143 . S
Co590 O598 2.074 . S
Co590 O601 2.093 . S
Co590 O614 2.097 . S
Co590 N631 2.151 . S
Co590 N639 2.214 . S
Co591 O592 2.160 . S
Co591 O597 2.058 . S
Co591 O607 2.057 . S
Co591 O622 2.037 . S
Co591 N626 2.145 . S
Co591 N647 2.257 . S
O592 Co590 2.143 . S
O592 Co591 2.160 . S
C593 O594 1.278 . S
C593 O601 1.224 . S
O594 C593 1.278 . S
C595 O596 1.245 . S
C595 O607 1.232 . S
O596 C595 1.245 . S
O597 Co591 2.058 . S
O597 C623 1.269 . S
O598 Co590 2.074 . S
O598 C623 1.257 . S
H599 C624 0.930 . S
H600 C630 0.930 . S
O601 Co590 2.093 . S
O601 C593 1.224 . S
H602 C634 0.929 . S
H603 C636 0.930 . S
H604 C637 0.930 . S
H605 C635 0.929 . S
H606 C638 0.928 . S
O607 Co591 2.057 . S
O607 C595 1.232 . S
H608 C627 0.929 . S
H609 C628 0.929 . S
H610 C640 0.931 . S
H611 C632 0.929 . S
H612 C641 0.930 . S
H613 C633 0.931 . S
O614 Co590 2.097 . S
O614 C642 1.214 . S
H615 C643 0.929 . S
H616 C644 0.929 . S
H617 C645 0.930 . S
H618 C646 0.929 . S
H619 C648 0.930 . S
H620 C625 0.930 . S
H621 C629 0.930 . S
O622 Co591 2.037 . S
O622 C642 1.234 . S
C623 O597 1.269 . S
C623 O598 1.257 . S
C624 H599 0.930 . S
C624 C627 1.388 . S
C624 C629 1.418 . S
C625 H620 0.930 . S
C625 C628 1.404 . S
C625 C629 1.353 . S
N626 Co591 2.145 . S
N626 C627 1.397 . S
N626 C628 1.334 . S
C627 H608 0.929 . S
C627 C624 1.388 . S
C627 N626 1.397 . S
C628 H609 0.929 . S
C628 C625 1.404 . S
C628 N626 1.334 . S
C629 H621 0.930 . S
C629 C624 1.418 . S
C629 C625 1.353 . S
C630 H600 0.930 . S
C630 N631 1.330 . S
C630 C632 1.446 . S
N631 Co590 2.151 . S
N631 C630 1.330 . S
N631 C635 1.418 . S
C632 H611 0.929 . S
C632 C630 1.446 . S
C632 C633 1.332 . S
C633 H613 0.931 . S
C633 C632 1.332 . S
C633 C634 1.267 . S
C634 H602 0.929 . S
C634 C633 1.267 . S
C634 C635 1.251 . S
C635 H605 0.929 . S
C635 N631 1.418 . S
C635 C634 1.251 . S
C636 H603 0.930 . S
C636 C638 1.406 . S
C636 C641 1.261 . S
C637 H604 0.930 . S
C637 N639 1.325 . S
C637 C640 1.357 . S
C638 H606 0.928 . S
C638 C636 1.406 . S
C638 N639 1.261 . S
N639 Co590 2.214 . S
N639 C637 1.325 . S
N639 C638 1.261 . S
C640 H610 0.931 . S
C640 C637 1.357 . S
C640 C641 1.312 . S
C641 H612 0.930 . S
C641 C636 1.261 . S
C641 C640 1.312 . S
C642 O614 1.214 . S
C642 O622 1.234 . S
C643 H615 0.929 . S
C643 C646 1.391 . S
C643 C648 1.391 . S
C644 H616 0.929 . S
C644 C645 1.390 . S
C644 N647 1.391 . S
C645 H617 0.930 . S
C645 C644 1.390 . S
C645 C646 1.392 . S
C646 H618 0.929 . S
C646 C643 1.391 . S
C646 C645 1.392 . S
N647 Co591 2.257 . S
N647 C644 1.391 . S
N647 C648 1.388 . S
C648 H619 0.930 . S
C648 C643 1.391 . S
C648 N647 1.388 . S
Co649 O651 2.143 . S
Co649 O657 2.074 . S
Co649 O660 2.093 . S
Co649 O673 2.097 . S
Co649 N690 2.151 . S
Co649 N698 2.214 . S
Co650 O651 2.160 . S
Co650 O656 2.058 . S
Co650 O666 2.057 . S
Co650 O681 2.037 . S
Co650 N685 2.145 . S
Co650 N706 2.257 . S
O651 Co649 2.143 . S
O651 Co650 2.160 . S
C652 O653 1.278 . S
C652 O660 1.224 . S
O653 C652 1.278 . S
C654 O655 1.245 . S
C654 O666 1.232 . S
O655 C654 1.245 . S
O656 Co650 2.058 . S
O656 C682 1.269 . S
O657 Co649 2.074 . S
O657 C682 1.257 . S
H658 C683 0.930 . S
H659 C689 0.930 . S
O660 Co649 2.093 . S
O660 C652 1.224 . S
H661 C693 0.929 . S
H662 C695 0.930 . S
H663 C696 0.930 . S
H664 C694 0.929 . S
H665 C697 0.928 . S
O666 Co650 2.057 . S
O666 C654 1.232 . S
H667 C686 0.929 . S
H668 C687 0.929 . S
H669 C699 0.931 . S
H670 C691 0.929 . S
H671 C700 0.930 . S
H672 C692 0.931 . S
O673 Co649 2.097 . S
O673 C701 1.214 . S
H674 C702 0.929 . S
H675 C703 0.929 . S
H676 C704 0.930 . S
H677 C705 0.929 . S
H678 C707 0.930 . S
H679 C684 0.930 . S
H680 C688 0.930 . S
O681 Co650 2.037 . S
O681 C701 1.234 . S
C682 O656 1.269 . S
C682 O657 1.257 . S
C683 H658 0.930 . S
C683 C686 1.388 . S
C683 C688 1.418 . S
C684 H679 0.930 . S
C684 C687 1.404 . S
C684 C688 1.353 . S
N685 Co650 2.145 . S
N685 C686 1.397 . S
N685 C687 1.334 . S
C686 H667 0.929 . S
C686 C683 1.388 . S
C686 N685 1.397 . S
C687 H668 0.929 . S
C687 C684 1.404 . S
C687 N685 1.334 . S
C688 H680 0.930 . S
C688 C683 1.418 . S
C688 C684 1.353 . S
C689 H659 0.930 . S
C689 N690 1.330 . S
C689 C691 1.446 . S
N690 Co649 2.151 . S
N690 C689 1.330 . S
N690 C694 1.418 . S
C691 H670 0.929 . S
C691 C689 1.446 . S
C691 C692 1.332 . S
C692 H672 0.931 . S
C692 C691 1.332 . S
C692 C693 1.267 . S
C693 H661 0.929 . S
C693 C692 1.267 . S
C693 C694 1.251 . S
C694 H664 0.929 . S
C694 N690 1.418 . S
C694 C693 1.251 . S
C695 H662 0.930 . S
C695 C697 1.406 . S
C695 C700 1.261 . S
C696 H663 0.930 . S
C696 N698 1.325 . S
C696 C699 1.357 . S
C697 H665 0.928 . S
C697 C695 1.406 . S
C697 N698 1.261 . S
N698 Co649 2.214 . S
N698 C696 1.325 . S
N698 C697 1.261 . S
C699 H669 0.931 . S
C699 C696 1.357 . S
C699 C700 1.312 . S
C700 H671 0.930 . S
C700 C695 1.261 . S
C700 C699 1.312 . S
C701 O673 1.214 . S
C701 O681 1.234 . S
C702 H674 0.929 . S
C702 C705 1.391 . S
C702 C707 1.391 . S
C703 H675 0.929 . S
C703 C704 1.390 . S
C703 N706 1.391 . S
C704 H676 0.930 . S
C704 C703 1.390 . S
C704 C705 1.392 . S
C705 H677 0.929 . S
C705 C702 1.391 . S
C705 C704 1.392 . S
N706 Co650 2.257 . S
N706 C703 1.391 . S
N706 C707 1.388 . S
C707 H678 0.930 . S
C707 C702 1.391 . S
C707 N706 1.388 . S
Co708 O710 2.143 . S
Co708 O716 2.074 . S
Co708 O719 2.093 . S
Co708 O732 2.097 . S
Co708 N749 2.151 . S
Co708 N757 2.214 . S
Co709 O710 2.160 . S
Co709 O715 2.058 . S
Co709 O725 2.057 . S
Co709 O740 2.037 . S
Co709 N744 2.145 . S
Co709 N765 2.257 . S
O710 Co708 2.143 . S
O710 Co709 2.160 . S
C711 O712 1.278 . S
C711 O719 1.224 . S
O712 C711 1.278 . S
C713 O714 1.245 . S
C713 O725 1.232 . S
O714 C713 1.245 . S
O715 Co709 2.058 . S
O715 C741 1.269 . S
O716 Co708 2.074 . S
O716 C741 1.257 . S
H717 C742 0.930 . S
H718 C748 0.930 . S
O719 Co708 2.093 . S
O719 C711 1.224 . S
H720 C752 0.929 . S
H721 C754 0.930 . S
H722 C755 0.930 . S
H723 C753 0.929 . S
H724 C756 0.928 . S
O725 Co709 2.057 . S
O725 C713 1.232 . S
H726 C745 0.929 . S
H727 C746 0.929 . S
H728 C758 0.931 . S
H729 C750 0.929 . S
H730 C759 0.930 . S
H731 C751 0.931 . S
O732 Co708 2.097 . S
O732 C760 1.214 . S
H733 C761 0.929 . S
H734 C762 0.929 . S
H735 C763 0.930 . S
H736 C764 0.929 . S
H737 C766 0.930 . S
H738 C743 0.930 . S
H739 C747 0.930 . S
O740 Co709 2.037 . S
O740 C760 1.234 . S
C741 O715 1.269 . S
C741 O716 1.257 . S
C742 H717 0.930 . S
C742 C745 1.388 . S
C742 C747 1.418 . S
C743 H738 0.930 . S
C743 C746 1.404 . S
C743 C747 1.353 . S
N744 Co709 2.145 . S
N744 C745 1.397 . S
N744 C746 1.334 . S
C745 H726 0.929 . S
C745 C742 1.388 . S
C745 N744 1.397 . S
C746 H727 0.929 . S
C746 C743 1.404 . S
C746 N744 1.334 . S
C747 H739 0.930 . S
C747 C742 1.418 . S
C747 C743 1.353 . S
C748 H718 0.930 . S
C748 N749 1.330 . S
C748 C750 1.446 . S
N749 Co708 2.151 . S
N749 C748 1.330 . S
N749 C753 1.418 . S
C750 H729 0.929 . S
C750 C748 1.446 . S
C750 C751 1.332 . S
C751 H731 0.931 . S
C751 C750 1.332 . S
C751 C752 1.267 . S
C752 H720 0.929 . S
C752 C751 1.267 . S
C752 C753 1.251 . S
C753 H723 0.929 . S
C753 N749 1.418 . S
C753 C752 1.251 . S
C754 H721 0.930 . S
C754 C756 1.406 . S
C754 C759 1.261 . S
C755 H722 0.930 . S
C755 N757 1.325 . S
C755 C758 1.357 . S
C756 H724 0.928 . S
C756 C754 1.406 . S
C756 N757 1.261 . S
N757 Co708 2.214 . S
N757 C755 1.325 . S
N757 C756 1.261 . S
C758 H728 0.931 . S
C758 C755 1.357 . S
C758 C759 1.312 . S
C759 H730 0.930 . S
C759 C754 1.261 . S
C759 C758 1.312 . S
C760 O732 1.214 . S
C760 O740 1.234 . S
C761 H733 0.929 . S
C761 C764 1.391 . S
C761 C766 1.391 . S
C762 H734 0.929 . S
C762 C763 1.390 . S
C762 N765 1.391 . S
C763 H735 0.930 . S
C763 C762 1.390 . S
C763 C764 1.392 . S
C764 H736 0.929 . S
C764 C761 1.391 . S
C764 C763 1.392 . S
N765 Co709 2.257 . S
N765 C762 1.391 . S
N765 C766 1.388 . S
C766 H737 0.930 . S
C766 C761 1.391 . S
C766 N765 1.388 . S
Co767 O769 2.143 . S
Co767 O775 2.074 . S
Co767 O778 2.093 . S
Co767 O791 2.097 . S
Co767 N808 2.151 . S
Co767 N816 2.214 . S
Co768 O769 2.160 . S
Co768 O774 2.058 . S
Co768 O784 2.057 . S
Co768 O799 2.037 . S
Co768 N803 2.145 . S
Co768 N824 2.257 . S
O769 Co767 2.143 . S
O769 Co768 2.160 . S
C770 O771 1.278 . S
C770 O778 1.224 . S
O771 C770 1.278 . S
C772 O773 1.245 . S
C772 O784 1.232 . S
O773 C772 1.245 . S
O774 Co768 2.058 . S
O774 C800 1.269 . S
O775 Co767 2.074 . S
O775 C800 1.257 . S
H776 C801 0.930 . S
H777 C807 0.930 . S
O778 Co767 2.093 . S
O778 C770 1.224 . S
H779 C811 0.929 . S
H780 C813 0.930 . S
H781 C814 0.930 . S
H782 C812 0.929 . S
H783 C815 0.928 . S
O784 Co768 2.057 . S
O784 C772 1.232 . S
H785 C804 0.929 . S
H786 C805 0.929 . S
H787 C817 0.931 . S
H788 C809 0.929 . S
H789 C818 0.930 . S
H790 C810 0.931 . S
O791 Co767 2.097 . S
O791 C819 1.214 . S
H792 C820 0.929 . S
H793 C821 0.929 . S
H794 C822 0.930 . S
H795 C823 0.929 . S
H796 C825 0.930 . S
H797 C802 0.930 . S
H798 C806 0.930 . S
O799 Co768 2.037 . S
O799 C819 1.234 . S
C800 O774 1.269 . S
C800 O775 1.257 . S
C801 H776 0.930 . S
C801 C804 1.388 . S
C801 C806 1.418 . S
C802 H797 0.930 . S
C802 C805 1.404 . S
C802 C806 1.353 . S
N803 Co768 2.145 . S
N803 C804 1.397 . S
N803 C805 1.334 . S
C804 H785 0.929 . S
C804 C801 1.388 . S
C804 N803 1.397 . S
C805 H786 0.929 . S
C805 C802 1.404 . S
C805 N803 1.334 . S
C806 H798 0.930 . S
C806 C801 1.418 . S
C806 C802 1.353 . S
C807 H777 0.930 . S
C807 N808 1.330 . S
C807 C809 1.446 . S
N808 Co767 2.151 . S
N808 C807 1.330 . S
N808 C812 1.418 . S
C809 H788 0.929 . S
C809 C807 1.446 . S
C809 C810 1.332 . S
C810 H790 0.931 . S
C810 C809 1.332 . S
C810 C811 1.267 . S
C811 H779 0.929 . S
C811 C810 1.267 . S
C811 C812 1.251 . S
C812 H782 0.929 . S
C812 N808 1.418 . S
C812 C811 1.251 . S
C813 H780 0.930 . S
C813 C815 1.406 . S
C813 C818 1.261 . S
C814 H781 0.930 . S
C814 N816 1.325 . S
C814 C817 1.357 . S
C815 H783 0.928 . S
C815 C813 1.406 . S
C815 N816 1.261 . S
N816 Co767 2.214 . S
N816 C814 1.325 . S
N816 C815 1.261 . S
C817 H787 0.931 . S
C817 C814 1.357 . S
C817 C818 1.312 . S
C818 H789 0.930 . S
C818 C813 1.261 . S
C818 C817 1.312 . S
C819 O791 1.214 . S
C819 O799 1.234 . S
C820 H792 0.929 . S
C820 C823 1.391 . S
C820 C825 1.391 . S
C821 H793 0.929 . S
C821 C822 1.390 . S
C821 N824 1.391 . S
C822 H794 0.930 . S
C822 C821 1.390 . S
C822 C823 1.392 . S
C823 H795 0.929 . S
C823 C820 1.391 . S
C823 C822 1.392 . S
N824 Co768 2.257 . S
N824 C821 1.391 . S
N824 C825 1.388 . S
C825 H796 0.930 . S
C825 C820 1.391 . S
C825 N824 1.388 . S
Co826 O828 2.143 . S
Co826 O834 2.074 . S
Co826 O837 2.093 . S
Co826 O850 2.097 . S
Co826 N867 2.151 . S
Co826 N875 2.214 . S
Co827 O828 2.160 . S
Co827 O833 2.058 . S
Co827 O843 2.057 . S
Co827 O858 2.037 . S
Co827 N862 2.145 . S
Co827 N883 2.257 . S
O828 Co826 2.143 . S
O828 Co827 2.160 . S
C829 O830 1.278 . S
C829 O837 1.224 . S
O830 C829 1.278 . S
C831 O832 1.245 . S
C831 O843 1.232 . S
O832 C831 1.245 . S
O833 Co827 2.058 . S
O833 C859 1.269 . S
O834 Co826 2.074 . S
O834 C859 1.257 . S
H835 C860 0.930 . S
H836 C866 0.930 . S
O837 Co826 2.093 . S
O837 C829 1.224 . S
H838 C870 0.929 . S
H839 C872 0.930 . S
H840 C873 0.930 . S
H841 C871 0.929 . S
H842 C874 0.928 . S
O843 Co827 2.057 . S
O843 C831 1.232 . S
H844 C863 0.929 . S
H845 C864 0.929 . S
H846 C876 0.931 . S
H847 C868 0.929 . S
H848 C877 0.930 . S
H849 C869 0.931 . S
O850 Co826 2.097 . S
O850 C878 1.214 . S
H851 C879 0.929 . S
H852 C880 0.929 . S
H853 C881 0.930 . S
H854 C882 0.929 . S
H855 C884 0.930 . S
H856 C861 0.930 . S
H857 C865 0.930 . S
O858 Co827 2.037 . S
O858 C878 1.234 . S
C859 O833 1.269 . S
C859 O834 1.257 . S
C860 H835 0.930 . S
C860 C863 1.388 . S
C860 C865 1.418 . S
C861 H856 0.930 . S
C861 C864 1.404 . S
C861 C865 1.353 . S
N862 Co827 2.145 . S
N862 C863 1.397 . S
N862 C864 1.334 . S
C863 H844 0.929 . S
C863 C860 1.388 . S
C863 N862 1.397 . S
C864 H845 0.929 . S
C864 C861 1.404 . S
C864 N862 1.334 . S
C865 H857 0.930 . S
C865 C860 1.418 . S
C865 C861 1.353 . S
C866 H836 0.930 . S
C866 N867 1.330 . S
C866 C868 1.446 . S
N867 Co826 2.151 . S
N867 C866 1.330 . S
N867 C871 1.418 . S
C868 H847 0.929 . S
C868 C866 1.446 . S
C868 C869 1.332 . S
C869 H849 0.931 . S
C869 C868 1.332 . S
C869 C870 1.267 . S
C870 H838 0.929 . S
C870 C869 1.267 . S
C870 C871 1.251 . S
C871 H841 0.929 . S
C871 N867 1.418 . S
C871 C870 1.251 . S
C872 H839 0.930 . S
C872 C874 1.406 . S
C872 C877 1.261 . S
C873 H840 0.930 . S
C873 N875 1.325 . S
C873 C876 1.357 . S
C874 H842 0.928 . S
C874 C872 1.406 . S
C874 N875 1.261 . S
N875 Co826 2.214 . S
N875 C873 1.325 . S
N875 C874 1.261 . S
C876 H846 0.931 . S
C876 C873 1.357 . S
C876 C877 1.312 . S
C877 H848 0.930 . S
C877 C872 1.261 . S
C877 C876 1.312 . S
C878 O850 1.214 . S
C878 O858 1.234 . S
C879 H851 0.929 . S
C879 C882 1.391 . S
C879 C884 1.391 . S
C880 H852 0.929 . S
C880 C881 1.390 . S
C880 N883 1.391 . S
C881 H853 0.930 . S
C881 C880 1.390 . S
C881 C882 1.392 . S
C882 H854 0.929 . S
C882 C879 1.391 . S
C882 C881 1.392 . S
N883 Co827 2.257 . S
N883 C880 1.391 . S
N883 C884 1.388 . S
C884 H855 0.930 . S
C884 C879 1.391 . S
C884 N883 1.388 . S
Co885 O887 2.143 . S
Co885 O893 2.074 . S
Co885 O896 2.093 . S
Co885 O909 2.097 . S
Co885 N926 2.151 . S
Co885 N934 2.214 . S
Co886 O887 2.160 . S
Co886 O892 2.058 . S
Co886 O902 2.057 . S
Co886 O917 2.037 . S
Co886 N921 2.145 . S
Co886 N942 2.257 . S
O887 Co885 2.143 . S
O887 Co886 2.160 . S
C888 O889 1.278 . S
C888 O896 1.224 . S
O889 C888 1.278 . S
C890 O891 1.245 . S
C890 O902 1.232 . S
O891 C890 1.245 . S
O892 Co886 2.058 . S
O892 C918 1.269 . S
O893 Co885 2.074 . S
O893 C918 1.257 . S
H894 C919 0.930 . S
H895 C925 0.930 . S
O896 Co885 2.093 . S
O896 C888 1.224 . S
H897 C929 0.929 . S
H898 C931 0.930 . S
H899 C932 0.930 . S
H900 C930 0.929 . S
H901 C933 0.928 . S
O902 Co886 2.057 . S
O902 C890 1.232 . S
H903 C922 0.929 . S
H904 C923 0.929 . S
H905 C935 0.931 . S
H906 C927 0.929 . S
H907 C936 0.930 . S
H908 C928 0.931 . S
O909 Co885 2.097 . S
O909 C937 1.214 . S
H910 C938 0.929 . S
H911 C939 0.929 . S
H912 C940 0.930 . S
H913 C941 0.929 . S
H914 C943 0.930 . S
H915 C920 0.930 . S
H916 C924 0.930 . S
O917 Co886 2.037 . S
O917 C937 1.234 . S
C918 O892 1.269 . S
C918 O893 1.257 . S
C919 H894 0.930 . S
C919 C922 1.388 . S
C919 C924 1.418 . S
C920 H915 0.930 . S
C920 C923 1.404 . S
C920 C924 1.353 . S
N921 Co886 2.145 . S
N921 C922 1.397 . S
N921 C923 1.334 . S
C922 H903 0.929 . S
C922 C919 1.388 . S
C922 N921 1.397 . S
C923 H904 0.929 . S
C923 C920 1.404 . S
C923 N921 1.334 . S
C924 H916 0.930 . S
C924 C919 1.418 . S
C924 C920 1.353 . S
C925 H895 0.930 . S
C925 N926 1.330 . S
C925 C927 1.446 . S
N926 Co885 2.151 . S
N926 C925 1.330 . S
N926 C930 1.418 . S
C927 H906 0.929 . S
C927 C925 1.446 . S
C927 C928 1.332 . S
C928 H908 0.931 . S
C928 C927 1.332 . S
C928 C929 1.267 . S
C929 H897 0.929 . S
C929 C928 1.267 . S
C929 C930 1.251 . S
C930 H900 0.929 . S
C930 N926 1.418 . S
C930 C929 1.251 . S
C931 H898 0.930 . S
C931 C933 1.406 . S
C931 C936 1.261 . S
C932 H899 0.930 . S
C932 N934 1.325 . S
C932 C935 1.357 . S
C933 H901 0.928 . S
C933 C931 1.406 . S
C933 N934 1.261 . S
N934 Co885 2.214 . S
N934 C932 1.325 . S
N934 C933 1.261 . S
C935 H905 0.931 . S
C935 C932 1.357 . S
C935 C936 1.312 . S
C936 H907 0.930 . S
C936 C931 1.261 . S
C936 C935 1.312 . S
C937 O909 1.214 . S
C937 O917 1.234 . S
C938 H910 0.929 . S
C938 C941 1.391 . S
C938 C943 1.391 . S
C939 H911 0.929 . S
C939 C940 1.390 . S
C939 N942 1.391 . S
C940 H912 0.930 . S
C940 C939 1.390 . S
C940 C941 1.392 . S
C941 H913 0.929 . S
C941 C938 1.391 . S
C941 C940 1.392 . S
N942 Co886 2.257 . S
N942 C939 1.391 . S
N942 C943 1.388 . S
C943 H914 0.930 . S
C943 C938 1.391 . S
C943 N942 1.388 . S
C944 C945 1.349 . S
C944 C946 1.327 . S
C944 H969 0.950 . S
C945 C944 1.349 . S
C945 C961 1.349 . S
C946 C944 1.327 . S
C946 C965 1.429 . S
C946 H970 0.950 . S
C947 C964 1.574 . S
C947 C966 1.368 . S
C947 H971 0.949 1_545 S
H948 C952 0.949 . S
C949 C950 1.349 . S
C949 C951 1.327 . S
C949 H972 0.950 1_545 S
C950 C949 1.349 . S
C950 C962 1.349 . S
C951 C949 1.327 . S
C951 C967 1.429 . S
C951 H973 0.950 1_545 S
C952 H948 0.949 . S
C952 C960 1.574 . S
C952 C968 1.368 . S
H953 C961 0.950 1_565 S
H954 C959 0.950 1_565 S
H955 C960 0.949 . S
H956 C962 0.950 . S
H957 C963 0.950 . S
H958 C964 0.949 1_565 S
C959 H954 0.950 1_545 S
C959 C961 1.327 . S
C959 C965 1.429 . S
C960 C952 1.574 . S
C960 H955 0.949 . S
C960 C966 1.368 . S
C961 C945 1.349 . S
C961 H953 0.950 1_545 S
C961 C959 1.327 . S
C962 C950 1.349 . S
C962 H956 0.950 . S
C962 C963 1.327 . S
C963 H957 0.950 . S
C963 C962 1.327 . S
C963 C967 1.429 . S
C964 C947 1.574 . S
C964 H958 0.949 1_545 S
C964 C968 1.368 . S
C965 C946 1.429 . S
C965 C959 1.429 . S
C965 C966 1.523 . S
C966 C947 1.368 . S
C966 C960 1.368 . S
C966 C965 1.523 . S
C967 C951 1.429 . S
C967 C963 1.429 . S
C967 C968 1.523 . S
C968 C952 1.368 . S
C968 C964 1.368 . S
C968 C967 1.523 . S
H969 C944 0.950 . S
H970 C946 0.950 . S
H971 C947 0.949 1_565 S
H972 C949 0.950 1_565 S
H973 C951 0.950 1_565 S
C974 C975 1.349 . S
C974 C976 1.327 . S
C974 H999 0.950 1_565 S
C975 C974 1.349 . S
C975 C991 1.349 . S
C976 C974 1.327 . S
C976 C995 1.429 . S
C976 H1000 0.950 1_565 S
C977 C994 1.574 . S
C977 C996 1.368 . S
C977 H1001 0.949 . S
H978 C982 0.949 1_545 S
C979 C980 1.349 . S
C979 C981 1.327 . S
C979 H1002 0.950 . S
C980 C979 1.349 . S
C980 C992 1.349 . S
C981 C979 1.327 . S
C981 C997 1.429 . S
C981 H1003 0.950 . S
C982 H978 0.949 1_565 S
C982 C990 1.574 . S
C982 C998 1.368 . S
H983 C991 0.950 . S
H984 C989 0.950 . S
H985 C990 0.949 1_545 S
H986 C992 0.950 1_545 S
H987 C993 0.950 1_545 S
H988 C994 0.949 . S
C989 H984 0.950 . S
C989 C991 1.327 . S
C989 C995 1.429 . S
C990 C982 1.574 . S
C990 H985 0.949 1_565 S
C990 C996 1.368 . S
C991 C975 1.349 . S
C991 H983 0.950 . S
C991 C989 1.327 . S
C992 C980 1.349 . S
C992 H986 0.950 1_565 S
C992 C993 1.327 . S
C993 H987 0.950 1_565 S
C993 C992 1.327 . S
C993 C997 1.429 . S
C994 C977 1.574 . S
C994 H988 0.949 . S
C994 C998 1.368 . S
C995 C976 1.429 . S
C995 C989 1.429 . S
C995 C996 1.523 . S
C996 C977 1.368 . S
C996 C990 1.368 . S
C996 C995 1.523 . S
C997 C981 1.429 . S
C997 C993 1.429 . S
C997 C998 1.523 . S
C998 C982 1.368 . S
C998 C994 1.368 . S
C998 C997 1.523 . S
H999 C974 0.950 1_545 S
H1000 C976 0.950 1_545 S
H1001 C977 0.949 . S
H1002 C979 0.950 . S
H1003 C981 0.950 . S
C1004 C1005 1.349 . S
C1004 C1006 1.327 . S
C1004 H1029 0.950 1_565 S
C1005 C1004 1.349 . S
C1005 C1021 1.349 . S
C1006 C1004 1.327 . S
C1006 C1025 1.429 . S
C1006 H1030 0.950 1_565 S
C1007 C1024 1.574 1_554 S
C1007 C1026 1.368 . S
C1007 H1031 0.949 . S
H1008 C1012 0.949 1_545 S
C1009 C1010 1.349 . S
C1009 C1011 1.327 . S
C1009 H1032 0.950 . S
C1010 C1009 1.349 . S
C1010 C1022 1.349 . S
C1011 C1009 1.327 . S
C1011 C1027 1.429 . S
C1011 H1033 0.950 . S
C1012 H1008 0.949 1_565 S
C1012 C1020 1.574 1_556 S
C1012 C1028 1.368 . S
H1013 C1021 0.950 . S
H1014 C1019 0.950 . S
H1015 C1020 0.949 1_545 S
H1016 C1022 0.950 1_545 S
H1017 C1023 0.950 1_545 S
H1018 C1024 0.949 . S
C1019 H1014 0.950 . S
C1019 C1021 1.327 . S
C1019 C1025 1.429 . S
C1020 C1012 1.574 1_554 S
C1020 H1015 0.949 1_565 S
C1020 C1026 1.368 . S
C1021 C1005 1.349 . S
C1021 H1013 0.950 . S
C1021 C1019 1.327 . S
C1022 C1010 1.349 . S
C1022 H1016 0.950 1_565 S
C1022 C1023 1.327 . S
C1023 H1017 0.950 1_565 S
C1023 C1022 1.327 . S
C1023 C1027 1.429 . S
C1024 C1007 1.574 1_556 S
C1024 H1018 0.949 . S
C1024 C1028 1.368 . S
C1025 C1006 1.429 . S
C1025 C1019 1.429 . S
C1025 C1026 1.523 . S
C1026 C1007 1.368 . S
C1026 C1020 1.368 . S
C1026 C1025 1.523 . S
C1027 C1011 1.429 . S
C1027 C1023 1.429 . S
C1027 C1028 1.523 . S
C1028 C1012 1.368 . S
C1028 C1024 1.368 . S
C1028 C1027 1.523 . S
H1029 C1004 0.950 1_545 S
H1030 C1006 0.950 1_545 S
H1031 C1007 0.949 . S
H1032 C1009 0.950 . S
H1033 C1011 0.950 . S
C1034 C1035 1.349 . S
C1034 C1036 1.327 . S
C1034 H1059 0.950 . S
C1035 C1034 1.349 . S
C1035 C1051 1.349 . S
C1036 C1034 1.327 . S
C1036 C1055 1.429 . S
C1036 H1060 0.950 . S
C1037 C1054 1.574 1_556 S
C1037 C1056 1.368 . S
C1037 H1061 0.949 1_545 S
H1038 C1042 0.949 . S
C1039 C1040 1.349 . S
C1039 C1041 1.327 . S
C1039 H1062 0.950 1_545 S
C1040 C1039 1.349 . S
C1040 C1052 1.349 . S
C1041 C1039 1.327 . S
C1041 C1057 1.429 . S
C1041 H1063 0.950 1_545 S
C1042 H1038 0.949 . S
C1042 C1050 1.574 1_554 S
C1042 C1058 1.368 . S
H1043 C1051 0.950 1_565 S
H1044 C1049 0.950 1_565 S
H1045 C1050 0.949 . S
H1046 C1052 0.950 . S
H1047 C1053 0.950 . S
H1048 C1054 0.949 1_565 S
C1049 H1044 0.950 1_545 S
C1049 C1051 1.327 . S
C1049 C1055 1.429 . S
C1050 C1042 1.574 1_556 S
C1050 H1045 0.949 . S
C1050 C1056 1.368 . S
C1051 C1035 1.349 . S
C1051 H1043 0.950 1_545 S
C1051 C1049 1.327 . S
C1052 C1040 1.349 . S
C1052 H1046 0.950 . S
C1052 C1053 1.327 . S
C1053 H1047 0.950 . S
C1053 C1052 1.327 . S
C1053 C1057 1.429 . S
C1054 C1037 1.574 1_554 S
C1054 H1048 0.949 1_545 S
C1054 C1058 1.368 . S
C1055 C1036 1.429 . S
C1055 C1049 1.429 . S
C1055 C1056 1.523 . S
C1056 C1037 1.368 . S
C1056 C1050 1.368 . S
C1056 C1055 1.523 . S
C1057 C1041 1.429 . S
C1057 C1053 1.429 . S
C1057 C1058 1.523 . S
C1058 C1042 1.368 . S
C1058 C1054 1.368 . S
C1058 C1057 1.523 . S
H1059 C1034 0.950 . S
H1060 C1036 0.950 . S
H1061 C1037 0.949 1_565 S
H1062 C1039 0.950 1_565 S
H1063 C1041 0.950 1_565 S
C1064 C1065 1.349 . S
C1064 C1066 1.327 . S
C1064 H1089 0.950 . S
C1065 C1064 1.349 . S
C1065 C1081 1.349 . S
C1066 C1064 1.327 . S
C1066 C1085 1.429 . S
C1066 H1090 0.950 . S
C1067 C1084 1.574 . S
C1067 C1086 1.368 . S
C1067 H1091 0.949 . S
H1068 C1072 0.949 . S
C1069 C1070 1.349 . S
C1069 C1071 1.327 . S
C1069 H1092 0.950 . S
C1070 C1069 1.349 . S
C1070 C1082 1.349 . S
C1071 C1069 1.327 . S
C1071 C1087 1.429 . S
C1071 H1093 0.950 . S
C1072 H1068 0.949 . S
C1072 C1080 1.574 . S
C1072 C1088 1.368 . S
H1073 C1081 0.950 . S
H1074 C1079 0.950 . S
H1075 C1080 0.949 . S
H1076 C1082 0.950 . S
H1077 C1083 0.950 . S
H1078 C1084 0.949 . S
C1079 H1074 0.950 . S
C1079 C1081 1.327 . S
C1079 C1085 1.429 . S
C1080 C1072 1.574 . S
C1080 H1075 0.949 . S
C1080 C1086 1.368 . S
C1081 C1065 1.349 . S
C1081 H1073 0.950 . S
C1081 C1079 1.327 . S
C1082 C1070 1.349 . S
C1082 H1076 0.950 . S
C1082 C1083 1.327 . S
C1083 H1077 0.950 . S
C1083 C1082 1.327 . S
C1083 C1087 1.429 . S
C1084 C1067 1.574 . S
C1084 H1078 0.949 . S
C1084 C1088 1.368 . S
C1085 C1066 1.429 . S
C1085 C1079 1.429 . S
C1085 C1086 1.523 . S
C1086 C1067 1.368 . S
C1086 C1080 1.368 . S
C1086 C1085 1.523 . S
C1087 C1071 1.429 . S
C1087 C1083 1.429 . S
C1087 C1088 1.523 . S
C1088 C1072 1.368 . S
C1088 C1084 1.368 . S
C1088 C1087 1.523 . S
H1089 C1064 0.950 . S
H1090 C1066 0.950 . S
H1091 C1067 0.949 . S
H1092 C1069 0.950 . S
H1093 C1071 0.950 . S
C1094 C1095 1.349 . S
C1094 C1096 1.327 . S
C1094 H1119 0.950 . S
C1095 C1094 1.349 . S
C1095 C1111 1.349 . S
C1096 C1094 1.327 . S
C1096 C1115 1.429 . S
C1096 H1120 0.950 . S
C1097 C1114 1.574 . S
C1097 C1116 1.368 . S
C1097 H1121 0.949 . S
H1098 C1102 0.949 . S
C1099 C1100 1.349 . S
C1099 C1101 1.327 . S
C1099 H1122 0.950 . S
C1100 C1099 1.349 . S
C1100 C1112 1.349 . S
C1101 C1099 1.327 . S
C1101 C1117 1.429 . S
C1101 H1123 0.950 . S
C1102 H1098 0.949 . S
C1102 C1110 1.574 . S
C1102 C1118 1.368 . S
H1103 C1111 0.950 . S
H1104 C1109 0.950 . S
H1105 C1110 0.949 . S
H1106 C1112 0.950 . S
H1107 C1113 0.950 . S
H1108 C1114 0.949 . S
C1109 H1104 0.950 . S
C1109 C1111 1.327 . S
C1109 C1115 1.429 . S
C1110 C1102 1.574 . S
C1110 H1105 0.949 . S
C1110 C1116 1.368 . S
C1111 C1095 1.349 . S
C1111 H1103 0.950 . S
C1111 C1109 1.327 . S
C1112 C1100 1.349 . S
C1112 H1106 0.950 . S
C1112 C1113 1.327 . S
C1113 H1107 0.950 . S
C1113 C1112 1.327 . S
C1113 C1117 1.429 . S
C1114 C1097 1.574 . S
C1114 H1108 0.949 . S
C1114 C1118 1.368 . S
C1115 C1096 1.429 . S
C1115 C1109 1.429 . S
C1115 C1116 1.523 . S
C1116 C1097 1.368 . S
C1116 C1110 1.368 . S
C1116 C1115 1.523 . S
C1117 C1101 1.429 . S
C1117 C1113 1.429 . S
C1117 C1118 1.523 . S
C1118 C1102 1.368 . S
C1118 C1114 1.368 . S
C1118 C1117 1.523 . S
H1119 C1094 0.950 . S
H1120 C1096 0.950 . S
H1121 C1097 0.949 . S
H1122 C1099 0.950 . S
H1123 C1101 0.950 . S
C1124 C1125 1.349 . S
C1124 C1126 1.327 . S
C1124 H1149 0.950 . S
C1125 C1124 1.349 . S
C1125 C1141 1.349 . S
C1126 C1124 1.327 . S
C1126 C1145 1.429 . S
C1126 H1150 0.950 . S
C1127 C1144 1.574 1_556 S
C1127 C1146 1.368 . S
C1127 H1151 0.949 . S
H1128 C1132 0.949 . S
C1129 C1130 1.349 . S
C1129 C1131 1.327 . S
C1129 H1152 0.950 . S
C1130 C1129 1.349 . S
C1130 C1142 1.349 . S
C1131 C1129 1.327 . S
C1131 C1147 1.429 . S
C1131 H1153 0.950 . S
C1132 H1128 0.949 . S
C1132 C1140 1.574 1_554 S
C1132 C1148 1.368 . S
H1133 C1141 0.950 . S
H1134 C1139 0.950 . S
H1135 C1140 0.949 . S
H1136 C1142 0.950 . S
H1137 C1143 0.950 . S
H1138 C1144 0.949 . S
C1139 H1134 0.950 . S
C1139 C1141 1.327 . S
C1139 C1145 1.429 . S
C1140 C1132 1.574 1_556 S
C1140 H1135 0.949 . S
C1140 C1146 1.368 . S
C1141 C1125 1.349 . S
C1141 H1133 0.950 . S
C1141 C1139 1.327 . S
C1142 C1130 1.349 . S
C1142 H1136 0.950 . S
C1142 C1143 1.327 . S
C1143 H1137 0.950 . S
C1143 C1142 1.327 . S
C1143 C1147 1.429 . S
C1144 C1127 1.574 1_554 S
C1144 H1138 0.949 . S
C1144 C1148 1.368 . S
C1145 C1126 1.429 . S
C1145 C1139 1.429 . S
C1145 C1146 1.523 . S
C1146 C1127 1.368 . S
C1146 C1140 1.368 . S
C1146 C1145 1.523 . S
C1147 C1131 1.429 . S
C1147 C1143 1.429 . S
C1147 C1148 1.523 . S
C1148 C1132 1.368 . S
C1148 C1144 1.368 . S
C1148 C1147 1.523 . S
H1149 C1124 0.950 . S
H1150 C1126 0.950 . S
H1151 C1127 0.949 . S
H1152 C1129 0.950 . S
H1153 C1131 0.950 . S
C1154 C1155 1.349 . S
C1154 C1156 1.327 . S
C1154 H1179 0.950 . S
C1155 C1154 1.349 . S
C1155 C1171 1.349 . S
C1156 C1154 1.327 . S
C1156 C1175 1.429 . S
C1156 H1180 0.950 . S
C1157 C1174 1.574 1_554 S
C1157 C1176 1.368 . S
C1157 H1181 0.949 . S
H1158 C1162 0.949 . S
C1159 C1160 1.349 . S
C1159 C1161 1.327 . S
C1159 H1182 0.950 . S
C1160 C1159 1.349 . S
C1160 C1172 1.349 . S
C1161 C1159 1.327 . S
C1161 C1177 1.429 . S
C1161 H1183 0.950 . S
C1162 H1158 0.949 . S
C1162 C1170 1.574 1_556 S
C1162 C1178 1.368 . S
H1163 C1171 0.950 . S
H1164 C1169 0.950 . S
H1165 C1170 0.949 . S
H1166 C1172 0.950 . S
H1167 C1173 0.950 . S
H1168 C1174 0.949 . S
C1169 H1164 0.950 . S
C1169 C1171 1.327 . S
C1169 C1175 1.429 . S
C1170 C1162 1.574 1_554 S
C1170 H1165 0.949 . S
C1170 C1176 1.368 . S
C1171 C1155 1.349 . S
C1171 H1163 0.950 . S
C1171 C1169 1.327 . S
C1172 C1160 1.349 . S
C1172 H1166 0.950 . S
C1172 C1173 1.327 . S
C1173 H1167 0.950 . S
C1173 C1172 1.327 . S
C1173 C1177 1.429 . S
C1174 C1157 1.574 1_556 S
C1174 H1168 0.949 . S
C1174 C1178 1.368 . S
C1175 C1156 1.429 . S
C1175 C1169 1.429 . S
C1175 C1176 1.523 . S
C1176 C1157 1.368 . S
C1176 C1170 1.368 . S
C1176 C1175 1.523 . S
C1177 C1161 1.429 . S
C1177 C1173 1.429 . S
C1177 C1178 1.523 . S
C1178 C1162 1.368 . S
C1178 C1174 1.368 . S
C1178 C1177 1.523 . S
H1179 C1154 0.950 . S
H1180 C1156 0.950 . S
H1181 C1157 0.949 . S
H1182 C1159 0.950 . S
H1183 C1161 0.950 . S
C1184 C1185 1.349 . S
C1184 C1186 1.327 . S
C1184 H1209 0.950 . S
C1185 C1184 1.349 . S
C1185 C1201 1.349 . S
C1186 C1184 1.327 . S
C1186 C1205 1.429 . S
C1186 H1210 0.950 . S
C1187 C1204 1.574 . S
C1187 C1206 1.368 1_545 S
C1187 H1211 0.949 . S
H1188 C1192 0.949 . S
C1189 C1190 1.349 . S
C1189 C1191 1.327 . S
C1189 H1212 0.950 . S
C1190 C1189 1.349 . S
C1190 C1202 1.349 . S
C1191 C1189 1.327 . S
C1191 C1207 1.429 . S
C1191 H1213 0.950 . S
C1192 H1188 0.949 . S
C1192 C1200 1.574 . S
C1192 C1208 1.368 1_565 S
H1193 C1201 0.950 . S
H1194 C1199 0.950 1_545 S
H1195 C1200 0.949 . S
H1196 C1202 0.950 . S
H1197 C1203 0.950 1_565 S
H1198 C1204 0.949 . S
C1199 H1194 0.950 1_565 S
C1199 C1201 1.327 . S
C1199 C1205 1.429 . S
C1200 C1192 1.574 . S
C1200 H1195 0.949 . S
C1200 C1206 1.368 . S
C1201 C1185 1.349 . S
C1201 H1193 0.950 . S
C1201 C1199 1.327 . S
C1202 C1190 1.349 . S
C1202 H1196 0.950 . S
C1202 C1203 1.327 . S
C1203 H1197 0.950 1_545 S
C1203 C1202 1.327 . S
C1203 C1207 1.429 . S
C1204 C1187 1.574 . S
C1204 H1198 0.949 . S
C1204 C1208 1.368 . S
C1205 C1186 1.429 . S
C1205 C1199 1.429 . S
C1205 C1206 1.523 . S
C1206 C1187 1.368 1_565 S
C1206 C1200 1.368 . S
C1206 C1205 1.523 . S
C1207 C1191 1.429 . S
C1207 C1203 1.429 . S
C1207 C1208 1.523 . S
C1208 C1192 1.368 1_545 S
C1208 C1204 1.368 . S
C1208 C1207 1.523 . S
H1209 C1184 0.950 . S
H1210 C1186 0.950 . S
H1211 C1187 0.949 . S
H1212 C1189 0.950 . S
H1213 C1191 0.950 . S
C1214 C1215 1.349 . S
C1214 C1216 1.327 . S
C1214 H1239 0.950 . S
C1215 C1214 1.349 . S
C1215 C1231 1.349 . S
C1216 C1214 1.327 . S
C1216 C1235 1.429 . S
C1216 H1240 0.950 1_565 S
C1217 C1234 1.574 . S
C1217 C1236 1.368 . S
C1217 H1241 0.949 . S
H1218 C1222 0.949 . S
C1219 C1220 1.349 . S
C1219 C1221 1.327 . S
C1219 H1242 0.950 . S
C1220 C1219 1.349 . S
C1220 C1232 1.349 . S
C1221 C1219 1.327 . S
C1221 C1237 1.429 . S
C1221 H1243 0.950 1_545 S
C1222 H1218 0.949 . S
C1222 C1230 1.574 . S
C1222 C1238 1.368 . S
H1223 C1231 0.950 . S
H1224 C1229 0.950 . S
H1225 C1230 0.949 . S
H1226 C1232 0.950 . S
H1227 C1233 0.950 . S
H1228 C1234 0.949 . S
C1229 H1224 0.950 . S
C1229 C1231 1.327 . S
C1229 C1235 1.429 . S
C1230 C1222 1.574 . S
C1230 H1225 0.949 . S
C1230 C1236 1.368 1_545 S
C1231 C1215 1.349 . S
C1231 H1223 0.950 . S
C1231 C1229 1.327 . S
C1232 C1220 1.349 . S
C1232 H1226 0.950 . S
C1232 C1233 1.327 . S
C1233 H1227 0.950 . S
C1233 C1232 1.327 . S
C1233 C1237 1.429 . S
C1234 C1217 1.574 . S
C1234 H1228 0.949 . S
C1234 C1238 1.368 1_565 S
C1235 C1216 1.429 . S
C1235 C1229 1.429 . S
C1235 C1236 1.523 . S
C1236 C1217 1.368 . S
C1236 C1230 1.368 1_565 S
C1236 C1235 1.523 . S
C1237 C1221 1.429 . S
C1237 C1233 1.429 . S
C1237 C1238 1.523 . S
C1238 C1222 1.368 . S
C1238 C1234 1.368 1_545 S
C1238 C1237 1.523 . S
H1239 C1214 0.950 . S
H1240 C1216 0.950 1_545 S
H1241 C1217 0.949 . S
H1242 C1219 0.950 . S
H1243 C1221 0.950 1_565 S
C1244 C1245 1.349 . S
C1244 C1246 1.327 . S
C1244 H1269 0.950 . S
C1245 C1244 1.349 . S
C1245 C1261 1.349 . S
C1246 C1244 1.327 . S
C1246 C1265 1.429 . S
C1246 H1270 0.950 . S
C1247 C1264 1.574 . S
C1247 C1266 1.368 1_545 S
C1247 H1271 0.949 . S
H1248 C1252 0.949 . S
C1249 C1250 1.349 . S
C1249 C1251 1.327 . S
C1249 H1272 0.950 . S
C1250 C1249 1.349 . S
C1250 C1262 1.349 . S
C1251 C1249 1.327 . S
C1251 C1267 1.429 . S
C1251 H1273 0.950 . S
C1252 H1248 0.949 . S
C1252 C1260 1.574 . S
C1252 C1268 1.368 1_565 S
H1253 C1261 0.950 . S
H1254 C1259 0.950 1_545 S
H1255 C1260 0.949 . S
H1256 C1262 0.950 . S
H1257 C1263 0.950 1_565 S
H1258 C1264 0.949 . S
C1259 H1254 0.950 1_565 S
C1259 C1261 1.327 . S
C1259 C1265 1.429 . S
C1260 C1252 1.574 . S
C1260 H1255 0.949 . S
C1260 C1266 1.368 . S
C1261 C1245 1.349 . S
C1261 H1253 0.950 . S
C1261 C1259 1.327 . S
C1262 C1250 1.349 . S
C1262 H1256 0.950 . S
C1262 C1263 1.327 . S
C1263 H1257 0.950 1_545 S
C1263 C1262 1.327 . S
C1263 C1267 1.429 . S
C1264 C1247 1.574 . S
C1264 H1258 0.949 . S
C1264 C1268 1.368 . S
C1265 C1246 1.429 . S
C1265 C1259 1.429 . S
C1265 C1266 1.523 . S
C1266 C1247 1.368 1_565 S
C1266 C1260 1.368 . S
C1266 C1265 1.523 . S
C1267 C1251 1.429 . S
C1267 C1263 1.429 . S
C1267 C1268 1.523 . S
C1268 C1252 1.368 1_545 S
C1268 C1264 1.368 . S
C1268 C1267 1.523 . S
H1269 C1244 0.950 . S
H1270 C1246 0.950 . S
H1271 C1247 0.949 . S
H1272 C1249 0.950 . S
H1273 C1251 0.950 . S
C1274 C1275 1.349 . S
C1274 C1276 1.327 . S
C1274 H1299 0.950 . S
C1275 C1274 1.349 . S
C1275 C1291 1.349 . S
C1276 C1274 1.327 . S
C1276 C1295 1.429 . S
C1276 H1300 0.950 1_545 S
C1277 C1294 1.574 . S
C1277 C1296 1.368 . S
C1277 H1301 0.949 . S
H1278 C1282 0.949 . S
C1279 C1280 1.349 . S
C1279 C1281 1.327 . S
C1279 H1302 0.950 . S
C1280 C1279 1.349 . S
C1280 C1292 1.349 . S
C1281 C1279 1.327 . S
C1281 C1297 1.429 . S
C1281 H1303 0.950 1_565 S
C1282 H1278 0.949 . S
C1282 C1290 1.574 . S
C1282 C1298 1.368 . S
H1283 C1291 0.950 . S
H1284 C1289 0.950 . S
H1285 C1290 0.949 . S
H1286 C1292 0.950 . S
H1287 C1293 0.950 . S
H1288 C1294 0.949 . S
C1289 H1284 0.950 . S
C1289 C1291 1.327 . S
C1289 C1295 1.429 . S
C1290 C1282 1.574 . S
C1290 H1285 0.949 . S
C1290 C1296 1.368 1_565 S
C1291 C1275 1.349 . S
C1291 H1283 0.950 . S
C1291 C1289 1.327 . S
C1292 C1280 1.349 . S
C1292 H1286 0.950 . S
C1292 C1293 1.327 . S
C1293 H1287 0.950 . S
C1293 C1292 1.327 . S
C1293 C1297 1.429 . S
C1294 C1277 1.574 . S
C1294 H1288 0.949 . S
C1294 C1298 1.368 1_545 S
C1295 C1276 1.429 . S
C1295 C1289 1.429 . S
C1295 C1296 1.523 . S
C1296 C1277 1.368 . S
C1296 C1290 1.368 1_545 S
C1296 C1295 1.523 . S
C1297 C1281 1.429 . S
C1297 C1293 1.429 . S
C1297 C1298 1.523 . S
C1298 C1282 1.368 . S
C1298 C1294 1.368 1_565 S
C1298 C1297 1.523 . S
H1299 C1274 0.950 . S
H1300 C1276 0.950 1_565 S
H1301 C1277 0.949 . S
H1302 C1279 0.950 . S
H1303 C1281 0.950 1_545 S
C1304 C1305 1.349 . S
C1304 C1306 1.327 . S
C1304 H1329 0.950 . S
C1305 C1304 1.349 . S
C1305 C1321 1.349 . S
C1306 C1304 1.327 . S
C1306 C1325 1.429 . S
C1306 H1330 0.950 . S
C1307 C1324 1.574 1_655 S
C1307 C1326 1.368 . S
C1307 H1331 0.949 . S
H1308 C1312 0.949 . S
C1309 C1310 1.349 . S
C1309 C1311 1.327 . S
C1309 H1332 0.950 . S
C1310 C1309 1.349 . S
C1310 C1322 1.349 . S
C1311 C1309 1.327 . S
C1311 C1327 1.429 . S
C1311 H1333 0.950 . S
C1312 H1308 0.949 . S
C1312 C1320 1.574 1_455 S
C1312 C1328 1.368 . S
H1313 C1321 0.950 . S
H1314 C1319 0.950 . S
H1315 C1320 0.949 . S
H1316 C1322 0.950 . S
H1317 C1323 0.950 . S
H1318 C1324 0.949 . S
C1319 H1314 0.950 . S
C1319 C1321 1.327 . S
C1319 C1325 1.429 . S
C1320 C1312 1.574 1_655 S
C1320 H1315 0.949 . S
C1320 C1326 1.368 . S
C1321 C1305 1.349 . S
C1321 H1313 0.950 . S
C1321 C1319 1.327 . S
C1322 C1310 1.349 . S
C1322 H1316 0.950 . S
C1322 C1323 1.327 . S
C1323 H1317 0.950 . S
C1323 C1322 1.327 . S
C1323 C1327 1.429 . S
C1324 C1307 1.574 1_455 S
C1324 H1318 0.949 . S
C1324 C1328 1.368 . S
C1325 C1306 1.429 . S
C1325 C1319 1.429 . S
C1325 C1326 1.523 . S
C1326 C1307 1.368 . S
C1326 C1320 1.368 . S
C1326 C1325 1.523 . S
C1327 C1311 1.429 . S
C1327 C1323 1.429 . S
C1327 C1328 1.523 . S
C1328 C1312 1.368 . S
C1328 C1324 1.368 . S
C1328 C1327 1.523 . S
H1329 C1304 0.950 . S
H1330 C1306 0.950 . S
H1331 C1307 0.949 . S
H1332 C1309 0.950 . S
H1333 C1311 0.950 . S
C1334 C1335 1.349 . S
C1334 C1336 1.327 . S
C1334 H1359 0.950 . S
C1335 C1334 1.349 . S
C1335 C1351 1.349 . S
C1336 C1334 1.327 . S
C1336 C1355 1.429 . S
C1336 H1360 0.950 . S
C1337 C1354 1.574 1_455 S
C1337 C1356 1.368 . S
C1337 H1361 0.949 . S
H1338 C1342 0.949 . S
C1339 C1340 1.349 . S
C1339 C1341 1.327 . S
C1339 H1362 0.950 . S
C1340 C1339 1.349 . S
C1340 C1352 1.349 . S
C1341 C1339 1.327 . S
C1341 C1357 1.429 . S
C1341 H1363 0.950 . S
C1342 H1338 0.949 . S
C1342 C1350 1.574 1_655 S
C1342 C1358 1.368 . S
H1343 C1351 0.950 . S
H1344 C1349 0.950 . S
H1345 C1350 0.949 . S
H1346 C1352 0.950 . S
H1347 C1353 0.950 . S
H1348 C1354 0.949 . S
C1349 H1344 0.950 . S
C1349 C1351 1.327 . S
C1349 C1355 1.429 . S
C1350 C1342 1.574 1_455 S
C1350 H1345 0.949 . S
C1350 C1356 1.368 . S
C1351 C1335 1.349 . S
C1351 H1343 0.950 . S
C1351 C1349 1.327 . S
C1352 C1340 1.349 . S
C1352 H1346 0.950 . S
C1352 C1353 1.327 . S
C1353 H1347 0.950 . S
C1353 C1352 1.327 . S
C1353 C1357 1.429 . S
C1354 C1337 1.574 1_655 S
C1354 H1348 0.949 . S
C1354 C1358 1.368 . S
C1355 C1336 1.429 . S
C1355 C1349 1.429 . S
C1355 C1356 1.523 . S
C1356 C1337 1.368 . S
C1356 C1350 1.368 . S
C1356 C1355 1.523 . S
C1357 C1341 1.429 . S
C1357 C1353 1.429 . S
C1357 C1358 1.523 . S
C1358 C1342 1.368 . S
C1358 C1354 1.368 . S
C1358 C1357 1.523 . S
H1359 C1334 0.950 . S
H1360 C1336 0.950 . S
H1361 C1337 0.949 . S
H1362 C1339 0.950 . S
H1363 C1341 0.950 . S
C1364 C1365 1.349 . S
C1364 C1366 1.327 . S
C1364 H1389 0.950 . S
C1365 C1364 1.349 . S
C1365 C1381 1.349 . S
C1366 C1364 1.327 . S
C1366 C1385 1.429 . S
C1366 H1390 0.950 . S
C1367 C1384 1.574 1_655 S
C1367 C1386 1.368 . S
C1367 H1391 0.949 . S
H1368 C1372 0.949 . S
C1369 C1370 1.349 . S
C1369 C1371 1.327 . S
C1369 H1392 0.950 . S
C1370 C1369 1.349 . S
C1370 C1382 1.349 . S
C1371 C1369 1.327 . S
C1371 C1387 1.429 . S
C1371 H1393 0.950 . S
C1372 H1368 0.949 . S
C1372 C1380 1.574 1_455 S
C1372 C1388 1.368 . S
H1373 C1381 0.950 . S
H1374 C1379 0.950 . S
H1375 C1380 0.949 . S
H1376 C1382 0.950 . S
H1377 C1383 0.950 . S
H1378 C1384 0.949 . S
C1379 H1374 0.950 . S
C1379 C1381 1.327 . S
C1379 C1385 1.429 . S
C1380 C1372 1.574 1_655 S
C1380 H1375 0.949 . S
C1380 C1386 1.368 . S
C1381 C1365 1.349 . S
C1381 H1373 0.950 . S
C1381 C1379 1.327 . S
C1382 C1370 1.349 . S
C1382 H1376 0.950 . S
C1382 C1383 1.327 . S
C1383 H1377 0.950 . S
C1383 C1382 1.327 . S
C1383 C1387 1.429 . S
C1384 C1367 1.574 1_455 S
C1384 H1378 0.949 . S
C1384 C1388 1.368 . S
C1385 C1366 1.429 . S
C1385 C1379 1.429 . S
C1385 C1386 1.523 . S
C1386 C1367 1.368 . S
C1386 C1380 1.368 . S
C1386 C1385 1.523 . S
C1387 C1371 1.429 . S
C1387 C1383 1.429 . S
C1387 C1388 1.523 . S
C1388 C1372 1.368 . S
C1388 C1384 1.368 . S
C1388 C1387 1.523 . S
H1389 C1364 0.950 . S
H1390 C1366 0.950 . S
H1391 C1367 0.949 . S
H1392 C1369 0.950 . S
H1393 C1371 0.950 . S
C1394 C1395 1.349 . S
C1394 C1396 1.327 . S
C1394 H1419 0.950 . S
C1395 C1394 1.349 . S
C1395 C1411 1.349 . S
C1396 C1394 1.327 . S
C1396 C1415 1.429 . S
C1396 H1420 0.950 . S
C1397 C1414 1.574 1_455 S
C1397 C1416 1.368 . S
C1397 H1421 0.949 . S
H1398 C1402 0.949 . S
C1399 C1400 1.349 . S
C1399 C1401 1.327 . S
C1399 H1422 0.950 . S
C1400 C1399 1.349 . S
C1400 C1412 1.349 . S
C1401 C1399 1.327 . S
C1401 C1417 1.429 . S
C1401 H1423 0.950 . S
C1402 H1398 0.949 . S
C1402 C1410 1.574 1_655 S
C1402 C1418 1.368 . S
H1403 C1411 0.950 . S
H1404 C1409 0.950 . S
H1405 C1410 0.949 . S
H1406 C1412 0.950 . S
H1407 C1413 0.950 . S
H1408 C1414 0.949 . S
C1409 H1404 0.950 . S
C1409 C1411 1.327 . S
C1409 C1415 1.429 . S
C1410 C1402 1.574 1_455 S
C1410 H1405 0.949 . S
C1410 C1416 1.368 . S
C1411 C1395 1.349 . S
C1411 H1403 0.950 . S
C1411 C1409 1.327 . S
C1412 C1400 1.349 . S
C1412 H1406 0.950 . S
C1412 C1413 1.327 . S
C1413 H1407 0.950 . S
C1413 C1412 1.327 . S
C1413 C1417 1.429 . S
C1414 C1397 1.574 1_655 S
C1414 H1408 0.949 . S
C1414 C1418 1.368 . S
C1415 C1396 1.429 . S
C1415 C1409 1.429 . S
C1415 C1416 1.523 . S
C1416 C1397 1.368 . S
C1416 C1410 1.368 . S
C1416 C1415 1.523 . S
C1417 C1401 1.429 . S
C1417 C1413 1.429 . S
C1417 C1418 1.523 . S
C1418 C1402 1.368 . S
C1418 C1414 1.368 . S
C1418 C1417 1.523 . S
H1419 C1394 0.950 . S
H1420 C1396 0.950 . S
H1421 C1397 0.949 . S
H1422 C1399 0.950 . S
H1423 C1401 0.950 . S
C1424 C1425 1.349 . S
C1424 C1426 1.327 . S
C1424 H1449 0.950 . S
C1425 C1424 1.349 . S
C1425 C1441 1.349 . S
C1426 C1424 1.327 . S
C1426 C1445 1.429 . S
C1426 H1450 0.950 . S
C1427 C1444 1.574 . S
C1427 C1446 1.368 . S
C1427 H1451 0.949 . S
H1428 C1432 0.949 . S
C1429 C1430 1.349 . S
C1429 C1431 1.327 . S
C1429 H1452 0.950 . S
C1430 C1429 1.349 . S
C1430 C1442 1.349 . S
C1431 C1429 1.327 . S
C1431 C1447 1.429 . S
C1431 H1453 0.950 . S
C1432 H1428 0.949 . S
C1432 C1440 1.574 . S
C1432 C1448 1.368 . S
H1433 C1441 0.950 . S
H1434 C1439 0.950 . S
H1435 C1440 0.949 . S
H1436 C1442 0.950 . S
H1437 C1443 0.950 . S
H1438 C1444 0.949 . S
C1439 H1434 0.950 . S
C1439 C1441 1.327 . S
C1439 C1445 1.429 . S
C1440 C1432 1.574 . S
C1440 H1435 0.949 . S
C1440 C1446 1.368 . S
C1441 C1425 1.349 . S
C1441 H1433 0.950 . S
C1441 C1439 1.327 . S
C1442 C1430 1.349 . S
C1442 H1436 0.950 . S
C1442 C1443 1.327 . S
C1443 H1437 0.950 . S
C1443 C1442 1.327 . S
C1443 C1447 1.429 . S
C1444 C1427 1.574 . S
C1444 H1438 0.949 . S
C1444 C1448 1.368 . S
C1445 C1426 1.429 . S
C1445 C1439 1.429 . S
C1445 C1446 1.523 . S
C1446 C1427 1.368 . S
C1446 C1440 1.368 . S
C1446 C1445 1.523 . S
C1447 C1431 1.429 . S
C1447 C1443 1.429 . S
C1447 C1448 1.523 . S
C1448 C1432 1.368 . S
C1448 C1444 1.368 . S
C1448 C1447 1.523 . S
H1449 C1424 0.950 . S
H1450 C1426 0.950 . S
H1451 C1427 0.949 . S
H1452 C1429 0.950 . S
H1453 C1431 0.950 . S
C1454 C1455 1.349 . S
C1454 C1456 1.327 . S
C1454 H1479 0.950 . S
C1455 C1454 1.349 . S
C1455 C1471 1.349 . S
C1456 C1454 1.327 . S
C1456 C1475 1.429 . S
C1456 H1480 0.950 . S
C1457 C1474 1.574 . S
C1457 C1476 1.368 . S
C1457 H1481 0.949 . S
H1458 C1462 0.949 . S
C1459 C1460 1.349 . S
C1459 C1461 1.327 . S
C1459 H1482 0.950 . S
C1460 C1459 1.349 . S
C1460 C1472 1.349 . S
C1461 C1459 1.327 . S
C1461 C1477 1.429 . S
C1461 H1483 0.950 . S
C1462 H1458 0.949 . S
C1462 C1470 1.574 . S
C1462 C1478 1.368 . S
H1463 C1471 0.950 . S
H1464 C1469 0.950 . S
H1465 C1470 0.949 . S
H1466 C1472 0.950 . S
H1467 C1473 0.950 . S
H1468 C1474 0.949 . S
C1469 H1464 0.950 . S
C1469 C1471 1.327 . S
C1469 C1475 1.429 . S
C1470 C1462 1.574 . S
C1470 H1465 0.949 . S
C1470 C1476 1.368 . S
C1471 C1455 1.349 . S
C1471 H1463 0.950 . S
C1471 C1469 1.327 . S
C1472 C1460 1.349 . S
C1472 H1466 0.950 . S
C1472 C1473 1.327 . S
C1473 H1467 0.950 . S
C1473 C1472 1.327 . S
C1473 C1477 1.429 . S
C1474 C1457 1.574 . S
C1474 H1468 0.949 . S
C1474 C1478 1.368 . S
C1475 C1456 1.429 . S
C1475 C1469 1.429 . S
C1475 C1476 1.523 . S
C1476 C1457 1.368 . S
C1476 C1470 1.368 . S
C1476 C1475 1.523 . S
C1477 C1461 1.429 . S
C1477 C1473 1.429 . S
C1477 C1478 1.523 . S
C1478 C1462 1.368 . S
C1478 C1474 1.368 . S
C1478 C1477 1.523 . S
H1479 C1454 0.950 . S
H1480 C1456 0.950 . S
H1481 C1457 0.949 . S
H1482 C1459 0.950 . S
H1483 C1461 0.950 . S
C1484 C1485 1.349 . S
C1484 C1486 1.327 . S
C1484 H1509 0.950 . S
C1485 C1484 1.349 . S
C1485 C1501 1.349 . S
C1486 C1484 1.327 . S
C1486 C1505 1.429 . S
C1486 H1510 0.950 . S
C1487 C1504 1.574 . S
C1487 C1506 1.368 . S
C1487 H1511 0.949 . S
H1488 C1492 0.949 . S
C1489 C1490 1.349 . S
C1489 C1491 1.327 . S
C1489 H1512 0.950 . S
C1490 C1489 1.349 . S
C1490 C1502 1.349 . S
C1491 C1489 1.327 . S
C1491 C1507 1.429 . S
C1491 H1513 0.950 . S
C1492 H1488 0.949 . S
C1492 C1500 1.574 . S
C1492 C1508 1.368 . S
H1493 C1501 0.950 . S
H1494 C1499 0.950 . S
H1495 C1500 0.949 . S
H1496 C1502 0.950 . S
H1497 C1503 0.950 . S
H1498 C1504 0.949 . S
C1499 H1494 0.950 . S
C1499 C1501 1.327 . S
C1499 C1505 1.429 . S
C1500 C1492 1.574 . S
C1500 H1495 0.949 . S
C1500 C1506 1.368 . S
C1501 C1485 1.349 . S
C1501 H1493 0.950 . S
C1501 C1499 1.327 . S
C1502 C1490 1.349 . S
C1502 H1496 0.950 . S
C1502 C1503 1.327 . S
C1503 H1497 0.950 . S
C1503 C1502 1.327 . S
C1503 C1507 1.429 . S
C1504 C1487 1.574 . S
C1504 H1498 0.949 . S
C1504 C1508 1.368 . S
C1505 C1486 1.429 . S
C1505 C1499 1.429 . S
C1505 C1506 1.523 . S
C1506 C1487 1.368 . S
C1506 C1500 1.368 . S
C1506 C1505 1.523 . S
C1507 C1491 1.429 . S
C1507 C1503 1.429 . S
C1507 C1508 1.523 . S
C1508 C1492 1.368 . S
C1508 C1504 1.368 . S
C1508 C1507 1.523 . S
H1509 C1484 0.950 . S
H1510 C1486 0.950 . S
H1511 C1487 0.949 . S
H1512 C1489 0.950 . S
H1513 C1491 0.950 . S
C1514 C1515 1.349 . S
C1514 C1516 1.327 . S
C1514 H1539 0.950 . S
C1515 C1514 1.349 . S
C1515 C1531 1.349 . S
C1516 C1514 1.327 . S
C1516 C1535 1.429 . S
C1516 H1540 0.950 . S
C1517 C1534 1.574 . S
C1517 C1536 1.368 . S
C1517 H1541 0.949 . S
H1518 C1522 0.949 . S
C1519 C1520 1.349 . S
C1519 C1521 1.327 . S
C1519 H1542 0.950 . S
C1520 C1519 1.349 . S
C1520 C1532 1.349 . S
C1521 C1519 1.327 . S
C1521 C1537 1.429 . S
C1521 H1543 0.950 . S
C1522 H1518 0.949 . S
C1522 C1530 1.574 . S
C1522 C1538 1.368 . S
H1523 C1531 0.950 . S
H1524 C1529 0.950 . S
H1525 C1530 0.949 . S
H1526 C1532 0.950 . S
H1527 C1533 0.950 . S
H1528 C1534 0.949 . S
C1529 H1524 0.950 . S
C1529 C1531 1.327 . S
C1529 C1535 1.429 . S
C1530 C1522 1.574 . S
C1530 H1525 0.949 . S
C1530 C1536 1.368 . S
C1531 C1515 1.349 . S
C1531 H1523 0.950 . S
C1531 C1529 1.327 . S
C1532 C1520 1.349 . S
C1532 H1526 0.950 . S
C1532 C1533 1.327 . S
C1533 H1527 0.950 . S
C1533 C1532 1.327 . S
C1533 C1537 1.429 . S
C1534 C1517 1.574 . S
C1534 H1528 0.949 . S
C1534 C1538 1.368 . S
C1535 C1516 1.429 . S
C1535 C1529 1.429 . S
C1535 C1536 1.523 . S
C1536 C1517 1.368 . S
C1536 C1530 1.368 . S
C1536 C1535 1.523 . S
C1537 C1521 1.429 . S
C1537 C1533 1.429 . S
C1537 C1538 1.523 . S
C1538 C1522 1.368 . S
C1538 C1534 1.368 . S
C1538 C1537 1.523 . S
H1539 C1514 0.950 . S
H1540 C1516 0.950 . S
H1541 C1517 0.949 . S
H1542 C1519 0.950 . S
H1543 C1521 0.950 . S
C1544 C1545 1.349 . S
C1544 C1546 1.327 . S
C1544 H1569 0.950 . S
C1545 C1544 1.349 . S
C1545 C1561 1.349 . S
C1546 C1544 1.327 . S
C1546 C1565 1.429 . S
C1546 H1570 0.950 . S
C1547 C1564 1.574 . S
C1547 C1566 1.368 . S
C1547 H1571 0.949 . S
H1548 C1552 0.949 . S
C1549 C1550 1.349 . S
C1549 C1551 1.327 . S
C1549 H1572 0.950 . S
C1550 C1549 1.349 . S
C1550 C1562 1.349 . S
C1551 C1549 1.327 . S
C1551 C1567 1.429 . S
C1551 H1573 0.950 . S
C1552 H1548 0.949 . S
C1552 C1560 1.574 . S
C1552 C1568 1.368 . S
H1553 C1561 0.950 . S
H1554 C1559 0.950 . S
H1555 C1560 0.949 . S
H1556 C1562 0.950 . S
H1557 C1563 0.950 . S
H1558 C1564 0.949 . S
C1559 H1554 0.950 . S
C1559 C1561 1.327 . S
C1559 C1565 1.429 . S
C1560 C1552 1.574 . S
C1560 H1555 0.949 . S
C1560 C1566 1.368 . S
C1561 C1545 1.349 . S
C1561 H1553 0.950 . S
C1561 C1559 1.327 . S
C1562 C1550 1.349 . S
C1562 H1556 0.950 . S
C1562 C1563 1.327 . S
C1563 H1557 0.950 . S
C1563 C1562 1.327 . S
C1563 C1567 1.429 . S
C1564 C1547 1.574 . S
C1564 H1558 0.949 . S
C1564 C1568 1.368 . S
C1565 C1546 1.429 . S
C1565 C1559 1.429 . S
C1565 C1566 1.523 . S
C1566 C1547 1.368 . S
C1566 C1560 1.368 . S
C1566 C1565 1.523 . S
C1567 C1551 1.429 . S
C1567 C1563 1.429 . S
C1567 C1568 1.523 . S
C1568 C1552 1.368 . S
C1568 C1564 1.368 . S
C1568 C1567 1.523 . S
H1569 C1544 0.950 . S
H1570 C1546 0.950 . S
H1571 C1547 0.949 . S
H1572 C1549 0.950 . S
H1573 C1551 0.950 . S
C1574 C1575 1.349 . S
C1574 C1576 1.327 . S
C1574 H1599 0.950 . S
C1575 C1574 1.349 . S
C1575 C1591 1.349 . S
C1576 C1574 1.327 . S
C1576 C1595 1.429 . S
C1576 H1600 0.950 . S
C1577 C1594 1.574 . S
C1577 C1596 1.368 . S
C1577 H1601 0.949 . S
H1578 C1582 0.949 . S
C1579 C1580 1.349 . S
C1579 C1581 1.327 . S
C1579 H1602 0.950 . S
C1580 C1579 1.349 . S
C1580 C1592 1.349 . S
C1581 C1579 1.327 . S
C1581 C1597 1.429 . S
C1581 H1603 0.950 . S
C1582 H1578 0.949 . S
C1582 C1590 1.574 . S
C1582 C1598 1.368 . S
H1583 C1591 0.950 . S
H1584 C1589 0.950 . S
H1585 C1590 0.949 . S
H1586 C1592 0.950 . S
H1587 C1593 0.950 . S
H1588 C1594 0.949 . S
C1589 H1584 0.950 . S
C1589 C1591 1.327 . S
C1589 C1595 1.429 . S
C1590 C1582 1.574 . S
C1590 H1585 0.949 . S
C1590 C1596 1.368 . S
C1591 C1575 1.349 . S
C1591 H1583 0.950 . S
C1591 C1589 1.327 . S
C1592 C1580 1.349 . S
C1592 H1586 0.950 . S
C1592 C1593 1.327 . S
C1593 H1587 0.950 . S
C1593 C1592 1.327 . S
C1593 C1597 1.429 . S
C1594 C1577 1.574 . S
C1594 H1588 0.949 . S
C1594 C1598 1.368 . S
C1595 C1576 1.429 . S
C1595 C1589 1.429 . S
C1595 C1596 1.523 . S
C1596 C1577 1.368 . S
C1596 C1590 1.368 . S
C1596 C1595 1.523 . S
C1597 C1581 1.429 . S
C1597 C1593 1.429 . S
C1597 C1598 1.523 . S
C1598 C1582 1.368 . S
C1598 C1594 1.368 . S
C1598 C1597 1.523 . S
H1599 C1574 0.950 . S
H1600 C1576 0.950 . S
H1601 C1577 0.949 . S
H1602 C1579 0.950 . S
H1603 C1581 0.950 . S
C1604 C1605 1.349 . S
C1604 C1606 1.327 . S
C1604 H1629 0.950 . S
C1605 C1604 1.349 . S
C1605 C1621 1.349 . S
C1606 C1604 1.327 . S
C1606 C1625 1.429 . S
C1606 H1630 0.950 . S
C1607 C1624 1.574 . S
C1607 C1626 1.368 . S
C1607 H1631 0.949 . S
H1608 C1612 0.949 . S
C1609 C1610 1.349 . S
C1609 C1611 1.327 . S
C1609 H1632 0.950 . S
C1610 C1609 1.349 . S
C1610 C1622 1.349 . S
C1611 C1609 1.327 . S
C1611 C1627 1.429 . S
C1611 H1633 0.950 . S
C1612 H1608 0.949 . S
C1612 C1620 1.574 . S
C1612 C1628 1.368 . S
H1613 C1621 0.950 . S
H1614 C1619 0.950 . S
H1615 C1620 0.949 . S
H1616 C1622 0.950 . S
H1617 C1623 0.950 . S
H1618 C1624 0.949 . S
C1619 H1614 0.950 . S
C1619 C1621 1.327 . S
C1619 C1625 1.429 . S
C1620 C1612 1.574 . S
C1620 H1615 0.949 . S
C1620 C1626 1.368 . S
C1621 C1605 1.349 . S
C1621 H1613 0.950 . S
C1621 C1619 1.327 . S
C1622 C1610 1.349 . S
C1622 H1616 0.950 . S
C1622 C1623 1.327 . S
C1623 H1617 0.950 . S
C1623 C1622 1.327 . S
C1623 C1627 1.429 . S
C1624 C1607 1.574 . S
C1624 H1618 0.949 . S
C1624 C1628 1.368 . S
C1625 C1606 1.429 . S
C1625 C1619 1.429 . S
C1625 C1626 1.523 . S
C1626 C1607 1.368 . S
C1626 C1620 1.368 . S
C1626 C1625 1.523 . S
C1627 C1611 1.429 . S
C1627 C1623 1.429 . S
C1627 C1628 1.523 . S
C1628 C1612 1.368 . S
C1628 C1624 1.368 . S
C1628 C1627 1.523 . S
H1629 C1604 0.950 . S
H1630 C1606 0.950 . S
H1631 C1607 0.949 . S
H1632 C1609 0.950 . S
H1633 C1611 0.950 . S
C1634 C1635 1.349 . S
C1634 C1636 1.327 . S
C1634 H1659 0.950 . S
C1635 C1634 1.349 . S
C1635 C1651 1.349 . S
C1636 C1634 1.327 . S
C1636 C1655 1.429 . S
C1636 H1660 0.950 . S
C1637 C1654 1.574 . S
C1637 C1656 1.368 . S
C1637 H1661 0.949 . S
H1638 C1642 0.949 . S
C1639 C1640 1.349 . S
C1639 C1641 1.327 . S
C1639 H1662 0.950 . S
C1640 C1639 1.349 . S
C1640 C1652 1.349 . S
C1641 C1639 1.327 . S
C1641 C1657 1.429 . S
C1641 H1663 0.950 . S
C1642 H1638 0.949 . S
C1642 C1650 1.574 . S
C1642 C1658 1.368 . S
H1643 C1651 0.950 . S
H1644 C1649 0.950 . S
H1645 C1650 0.949 . S
H1646 C1652 0.950 . S
H1647 C1653 0.950 . S
H1648 C1654 0.949 . S
C1649 H1644 0.950 . S
C1649 C1651 1.327 . S
C1649 C1655 1.429 . S
C1650 C1642 1.574 . S
C1650 H1645 0.949 . S
C1650 C1656 1.368 . S
C1651 C1635 1.349 . S
C1651 H1643 0.950 . S
C1651 C1649 1.327 . S
C1652 C1640 1.349 . S
C1652 H1646 0.950 . S
C1652 C1653 1.327 . S
C1653 H1647 0.950 . S
C1653 C1652 1.327 . S
C1653 C1657 1.429 . S
C1654 C1637 1.574 . S
C1654 H1648 0.949 . S
C1654 C1658 1.368 . S
C1655 C1636 1.429 . S
C1655 C1649 1.429 . S
C1655 C1656 1.523 . S
C1656 C1637 1.368 . S
C1656 C1650 1.368 . S
C1656 C1655 1.523 . S
C1657 C1641 1.429 . S
C1657 C1653 1.429 . S
C1657 C1658 1.523 . S
C1658 C1642 1.368 . S
C1658 C1654 1.368 . S
C1658 C1657 1.523 . S
H1659 C1634 0.950 . S
H1660 C1636 0.950 . S
H1661 C1637 0.949 . S
H1662 C1639 0.950 . S
H1663 C1641 0.950 . S
C1664 C1665 1.349 . S
C1664 C1666 1.327 . S
C1664 H1689 0.950 . S
C1665 C1664 1.349 . S
C1665 C1681 1.349 1_545 S
C1666 C1664 1.327 . S
C1666 C1685 1.429 . S
C1666 H1690 0.950 . S
C1667 C1684 1.574 . S
C1667 C1686 1.368 1_565 S
C1667 H1691 0.949 . S
H1668 C1672 0.949 . S
C1669 C1670 1.349 . S
C1669 C1671 1.327 . S
C1669 H1692 0.950 . S
C1670 C1669 1.349 . S
C1670 C1682 1.349 1_565 S
C1671 C1669 1.327 . S
C1671 C1687 1.429 . S
C1671 H1693 0.950 . S
C1672 H1668 0.949 . S
C1672 C1680 1.574 . S
C1672 C1688 1.368 1_545 S
H1673 C1681 0.950 . S
H1674 C1679 0.950 . S
H1675 C1680 0.949 . S
H1676 C1682 0.950 . S
H1677 C1683 0.950 . S
H1678 C1684 0.949 . S
C1679 H1674 0.950 . S
C1679 C1681 1.327 . S
C1679 C1685 1.429 1_565 S
C1680 C1672 1.574 . S
C1680 H1675 0.949 . S
C1680 C1686 1.368 . S
C1681 C1665 1.349 1_565 S
C1681 H1673 0.950 . S
C1681 C1679 1.327 . S
C1682 C1670 1.349 1_545 S
C1682 H1676 0.950 . S
C1682 C1683 1.327 . S
C1683 H1677 0.950 . S
C1683 C1682 1.327 . S
C1683 C1687 1.429 1_545 S
C1684 C1667 1.574 . S
C1684 H1678 0.949 . S
C1684 C1688 1.368 . S
C1685 C1666 1.429 . S
C1685 C1679 1.429 1_545 S
C1685 C1686 1.523 . S
C1686 C1667 1.368 1_545 S
C1686 C1680 1.368 . S
C1686 C1685 1.523 . S
C1687 C1671 1.429 . S
C1687 C1683 1.429 1_565 S
C1687 C1688 1.523 . S
C1688 C1672 1.368 1_565 S
C1688 C1684 1.368 . S
C1688 C1687 1.523 . S
H1689 C1664 0.950 . S
H1690 C1666 0.950 . S
H1691 C1667 0.949 . S
H1692 C1669 0.950 . S
H1693 C1671 0.950 . S
C1694 C1695 1.349 1_565 S
C1694 C1696 1.327 . S
C1694 H1719 0.950 . S
C1695 C1694 1.349 1_545 S
C1695 C1711 1.349 . S
C1696 C1694 1.327 . S
C1696 C1715 1.429 1_565 S
C1696 H1720 0.950 . S
C1697 C1714 1.574 . S
C1697 C1716 1.368 . S
C1697 H1721 0.949 . S
H1698 C1702 0.949 . S
C1699 C1700 1.349 1_545 S
C1699 C1701 1.327 . S
C1699 H1722 0.950 . S
C1700 C1699 1.349 1_565 S
C1700 C1712 1.349 . S
C1701 C1699 1.327 . S
C1701 C1717 1.429 1_545 S
C1701 H1723 0.950 . S
C1702 H1698 0.949 . S
C1702 C1710 1.574 . S
C1702 C1718 1.368 . S
H1703 C1711 0.950 . S
H1704 C1709 0.950 . S
H1705 C1710 0.949 . S
H1706 C1712 0.950 . S
H1707 C1713 0.950 . S
H1708 C1714 0.949 . S
C1709 H1704 0.950 . S
C1709 C1711 1.327 . S
C1709 C1715 1.429 . S
C1710 C1702 1.574 . S
C1710 H1705 0.949 . S
C1710 C1716 1.368 1_565 S
C1711 C1695 1.349 . S
C1711 H1703 0.950 . S
C1711 C1709 1.327 . S
C1712 C1700 1.349 . S
C1712 H1706 0.950 . S
C1712 C1713 1.327 . S
C1713 H1707 0.950 . S
C1713 C1712 1.327 . S
C1713 C1717 1.429 . S
C1714 C1697 1.574 . S
C1714 H1708 0.949 . S
C1714 C1718 1.368 1_545 S
C1715 C1696 1.429 1_545 S
C1715 C1709 1.429 . S
C1715 C1716 1.523 . S
C1716 C1697 1.368 . S
C1716 C1710 1.368 1_545 S
C1716 C1715 1.523 . S
C1717 C1701 1.429 1_565 S
C1717 C1713 1.429 . S
C1717 C1718 1.523 . S
C1718 C1702 1.368 . S
C1718 C1714 1.368 1_565 S
C1718 C1717 1.523 . S
H1719 C1694 0.950 . S
H1720 C1696 0.950 . S
H1721 C1697 0.949 . S
H1722 C1699 0.950 . S
H1723 C1701 0.950 . S
C1724 C1725 1.349 1_565 S
C1724 C1726 1.327 . S
C1724 H1749 0.950 . S
C1725 C1724 1.349 1_545 S
C1725 C1741 1.349 . S
C1726 C1724 1.327 . S
C1726 C1745 1.429 1_565 S
C1726 H1750 0.950 . S
C1727 C1744 1.574 . S
C1727 C1746 1.368 . S
C1727 H1751 0.949 . S
H1728 C1732 0.949 . S
C1729 C1730 1.349 1_545 S
C1729 C1731 1.327 . S
C1729 H1752 0.950 . S
C1730 C1729 1.349 1_565 S
C1730 C1742 1.349 . S
C1731 C1729 1.327 . S
C1731 C1747 1.429 1_545 S
C1731 H1753 0.950 . S
C1732 H1728 0.949 . S
C1732 C1740 1.574 . S
C1732 C1748 1.368 . S
H1733 C1741 0.950 . S
H1734 C1739 0.950 . S
H1735 C1740 0.949 . S
H1736 C1742 0.950 . S
H1737 C1743 0.950 . S
H1738 C1744 0.949 . S
C1739 H1734 0.950 . S
C1739 C1741 1.327 . S
C1739 C1745 1.429 . S
C1740 C1732 1.574 . S
C1740 H1735 0.949 . S
C1740 C1746 1.368 1_565 S
C1741 C1725 1.349 . S
C1741 H1733 0.950 . S
C1741 C1739 1.327 . S
C1742 C1730 1.349 . S
C1742 H1736 0.950 . S
C1742 C1743 1.327 . S
C1743 H1737 0.950 . S
C1743 C1742 1.327 . S
C1743 C1747 1.429 . S
C1744 C1727 1.574 . S
C1744 H1738 0.949 . S
C1744 C1748 1.368 1_545 S
C1745 C1726 1.429 1_545 S
C1745 C1739 1.429 . S
C1745 C1746 1.523 . S
C1746 C1727 1.368 . S
C1746 C1740 1.368 1_545 S
C1746 C1745 1.523 . S
C1747 C1731 1.429 1_565 S
C1747 C1743 1.429 . S
C1747 C1748 1.523 . S
C1748 C1732 1.368 . S
C1748 C1744 1.368 1_565 S
C1748 C1747 1.523 . S
H1749 C1724 0.950 . S
H1750 C1726 0.950 . S
H1751 C1727 0.949 . S
H1752 C1729 0.950 . S
H1753 C1731 0.950 . S
C1754 C1755 1.349 1_545 S
C1754 C1756 1.327 . S
C1754 H1779 0.950 . S
C1755 C1754 1.349 1_565 S
C1755 C1771 1.349 . S
C1756 C1754 1.327 . S
C1756 C1775 1.429 1_545 S
C1756 H1780 0.950 . S
C1757 C1774 1.574 . S
C1757 C1776 1.368 . S
C1757 H1781 0.949 . S
H1758 C1762 0.949 . S
C1759 C1760 1.349 1_565 S
C1759 C1761 1.327 . S
C1759 H1782 0.950 . S
C1760 C1759 1.349 1_545 S
C1760 C1772 1.349 . S
C1761 C1759 1.327 . S
C1761 C1777 1.429 1_565 S
C1761 H1783 0.950 . S
C1762 H1758 0.949 . S
C1762 C1770 1.574 . S
C1762 C1778 1.368 . S
H1763 C1771 0.950 . S
H1764 C1769 0.950 . S
H1765 C1770 0.949 . S
H1766 C1772 0.950 . S
H1767 C1773 0.950 . S
H1768 C1774 0.949 . S
C1769 H1764 0.950 . S
C1769 C1771 1.327 . S
C1769 C1775 1.429 . S
C1770 C1762 1.574 . S
C1770 H1765 0.949 . S
C1770 C1776 1.368 1_545 S
C1771 C1755 1.349 . S
C1771 H1763 0.950 . S
C1771 C1769 1.327 . S
C1772 C1760 1.349 . S
C1772 H1766 0.950 . S
C1772 C1773 1.327 . S
C1773 H1767 0.950 . S
C1773 C1772 1.327 . S
C1773 C1777 1.429 . S
C1774 C1757 1.574 . S
C1774 H1768 0.949 . S
C1774 C1778 1.368 1_565 S
C1775 C1756 1.429 1_565 S
C1775 C1769 1.429 . S
C1775 C1776 1.523 . S
C1776 C1757 1.368 . S
C1776 C1770 1.368 1_565 S
C1776 C1775 1.523 . S
C1777 C1761 1.429 1_545 S
C1777 C1773 1.429 . S
C1777 C1778 1.523 . S
C1778 C1762 1.368 . S
C1778 C1774 1.368 1_545 S
C1778 C1777 1.523 . S
H1779 C1754 0.950 . S
H1780 C1756 0.950 . S
H1781 C1757 0.949 . S
H1782 C1759 0.950 . S
H1783 C1761 0.950 . S
C1784 C1785 1.349 . S
C1784 C1786 1.327 . S
C1784 H1809 0.950 . S
C1785 C1784 1.349 . S
C1785 C1801 1.349 . S
C1786 C1784 1.327 . S
C1786 C1805 1.429 . S
C1786 H1810 0.950 . S
C1787 C1804 1.574 . S
C1787 C1806 1.368 . S
C1787 H1811 0.949 . S
H1788 C1792 0.949 . S
C1789 C1790 1.349 . S
C1789 C1791 1.327 . S
C1789 H1812 0.950 . S
C1790 C1789 1.349 . S
C1790 C1802 1.349 . S
C1791 C1789 1.327 . S
C1791 C1807 1.429 . S
C1791 H1813 0.950 . S
C1792 H1788 0.949 . S
C1792 C1800 1.574 . S
C1792 C1808 1.368 . S
H1793 C1801 0.950 . S
H1794 C1799 0.950 . S
H1795 C1800 0.949 . S
H1796 C1802 0.950 . S
H1797 C1803 0.950 . S
H1798 C1804 0.949 . S
C1799 H1794 0.950 . S
C1799 C1801 1.327 . S
C1799 C1805 1.429 . S
C1800 C1792 1.574 . S
C1800 H1795 0.949 . S
C1800 C1806 1.368 . S
C1801 C1785 1.349 . S
C1801 H1793 0.950 . S
C1801 C1799 1.327 . S
C1802 C1790 1.349 . S
C1802 H1796 0.950 . S
C1802 C1803 1.327 . S
C1803 H1797 0.950 . S
C1803 C1802 1.327 . S
C1803 C1807 1.429 . S
C1804 C1787 1.574 . S
C1804 H1798 0.949 . S
C1804 C1808 1.368 . S
C1805 C1786 1.429 . S
C1805 C1799 1.429 . S
C1805 C1806 1.523 . S
C1806 C1787 1.368 . S
C1806 C1800 1.368 . S
C1806 C1805 1.523 . S
C1807 C1791 1.429 . S
C1807 C1803 1.429 . S
C1807 C1808 1.523 . S
C1808 C1792 1.368 . S
C1808 C1804 1.368 . S
C1808 C1807 1.523 . S
H1809 C1784 0.950 . S
H1810 C1786 0.950 . S
H1811 C1787 0.949 . S
H1812 C1789 0.950 . S
H1813 C1791 0.950 . S
C1814 C1815 1.349 . S
C1814 C1816 1.327 . S
C1814 H1839 0.950 . S
C1815 C1814 1.349 . S
C1815 C1831 1.349 . S
C1816 C1814 1.327 . S
C1816 C1835 1.429 . S
C1816 H1840 0.950 . S
C1817 C1834 1.574 . S
C1817 C1836 1.368 . S
C1817 H1841 0.949 . S
H1818 C1822 0.949 . S
C1819 C1820 1.349 . S
C1819 C1821 1.327 . S
C1819 H1842 0.950 . S
C1820 C1819 1.349 . S
C1820 C1832 1.349 . S
C1821 C1819 1.327 . S
C1821 C1837 1.429 . S
C1821 H1843 0.950 . S
C1822 H1818 0.949 . S
C1822 C1830 1.574 . S
C1822 C1838 1.368 . S
H1823 C1831 0.950 . S
H1824 C1829 0.950 . S
H1825 C1830 0.949 . S
H1826 C1832 0.950 . S
H1827 C1833 0.950 . S
H1828 C1834 0.949 . S
C1829 H1824 0.950 . S
C1829 C1831 1.327 . S
C1829 C1835 1.429 . S
C1830 C1822 1.574 . S
C1830 H1825 0.949 . S
C1830 C1836 1.368 . S
C1831 C1815 1.349 . S
C1831 H1823 0.950 . S
C1831 C1829 1.327 . S
C1832 C1820 1.349 . S
C1832 H1826 0.950 . S
C1832 C1833 1.327 . S
C1833 H1827 0.950 . S
C1833 C1832 1.327 . S
C1833 C1837 1.429 . S
C1834 C1817 1.574 . S
C1834 H1828 0.949 . S
C1834 C1838 1.368 . S
C1835 C1816 1.429 . S
C1835 C1829 1.429 . S
C1835 C1836 1.523 . S
C1836 C1817 1.368 . S
C1836 C1830 1.368 . S
C1836 C1835 1.523 . S
C1837 C1821 1.429 . S
C1837 C1833 1.429 . S
C1837 C1838 1.523 . S
C1838 C1822 1.368 . S
C1838 C1834 1.368 . S
C1838 C1837 1.523 . S
H1839 C1814 0.950 . S
H1840 C1816 0.950 . S
H1841 C1817 0.949 . S
H1842 C1819 0.950 . S
H1843 C1821 0.950 . S
C1844 C1845 1.349 . S
C1844 C1846 1.327 . S
C1844 H1869 0.950 . S
C1845 C1844 1.349 . S
C1845 C1861 1.349 . S
C1846 C1844 1.327 . S
C1846 C1865 1.429 . S
C1846 H1870 0.950 . S
C1847 C1864 1.574 . S
C1847 C1866 1.368 . S
C1847 H1871 0.949 . S
H1848 C1852 0.949 . S
C1849 C1850 1.349 . S
C1849 C1851 1.327 . S
C1849 H1872 0.950 . S
C1850 C1849 1.349 . S
C1850 C1862 1.349 . S
C1851 C1849 1.327 . S
C1851 C1867 1.429 . S
C1851 H1873 0.950 . S
C1852 H1848 0.949 . S
C1852 C1860 1.574 . S
C1852 C1868 1.368 . S
H1853 C1861 0.950 . S
H1854 C1859 0.950 . S
H1855 C1860 0.949 . S
H1856 C1862 0.950 . S
H1857 C1863 0.950 . S
H1858 C1864 0.949 . S
C1859 H1854 0.950 . S
C1859 C1861 1.327 . S
C1859 C1865 1.429 . S
C1860 C1852 1.574 . S
C1860 H1855 0.949 . S
C1860 C1866 1.368 . S
C1861 C1845 1.349 . S
C1861 H1853 0.950 . S
C1861 C1859 1.327 . S
C1862 C1850 1.349 . S
C1862 H1856 0.950 . S
C1862 C1863 1.327 . S
C1863 H1857 0.950 . S
C1863 C1862 1.327 . S
C1863 C1867 1.429 . S
C1864 C1847 1.574 . S
C1864 H1858 0.949 . S
C1864 C1868 1.368 . S
C1865 C1846 1.429 . S
C1865 C1859 1.429 . S
C1865 C1866 1.523 . S
C1866 C1847 1.368 . S
C1866 C1860 1.368 . S
C1866 C1865 1.523 . S
C1867 C1851 1.429 . S
C1867 C1863 1.429 . S
C1867 C1868 1.523 . S
C1868 C1852 1.368 . S
C1868 C1864 1.368 . S
C1868 C1867 1.523 . S
H1869 C1844 0.950 . S
H1870 C1846 0.950 . S
H1871 C1847 0.949 . S
H1872 C1849 0.950 . S
H1873 C1851 0.950 . S
C1874 C1875 1.349 . S
C1874 C1876 1.327 . S
C1874 H1899 0.950 . S
C1875 C1874 1.349 . S
C1875 C1891 1.349 . S
C1876 C1874 1.327 . S
C1876 C1895 1.429 . S
C1876 H1900 0.950 . S
C1877 C1894 1.574 . S
C1877 C1896 1.368 . S
C1877 H1901 0.949 . S
H1878 C1882 0.949 . S
C1879 C1880 1.349 . S
C1879 C1881 1.327 . S
C1879 H1902 0.950 . S
C1880 C1879 1.349 . S
C1880 C1892 1.349 . S
C1881 C1879 1.327 . S
C1881 C1897 1.429 . S
C1881 H1903 0.950 . S
C1882 H1878 0.949 . S
C1882 C1890 1.574 . S
C1882 C1898 1.368 . S
H1883 C1891 0.950 . S
H1884 C1889 0.950 . S
H1885 C1890 0.949 . S
H1886 C1892 0.950 . S
H1887 C1893 0.950 . S
H1888 C1894 0.949 . S
C1889 H1884 0.950 . S
C1889 C1891 1.327 . S
C1889 C1895 1.429 . S
C1890 C1882 1.574 . S
C1890 H1885 0.949 . S
C1890 C1896 1.368 . S
C1891 C1875 1.349 . S
C1891 H1883 0.950 . S
C1891 C1889 1.327 . S
C1892 C1880 1.349 . S
C1892 H1886 0.950 . S
C1892 C1893 1.327 . S
C1893 H1887 0.950 . S
C1893 C1892 1.327 . S
C1893 C1897 1.429 . S
C1894 C1877 1.574 . S
C1894 H1888 0.949 . S
C1894 C1898 1.368 . S
C1895 C1876 1.429 . S
C1895 C1889 1.429 . S
C1895 C1896 1.523 . S
C1896 C1877 1.368 . S
C1896 C1890 1.368 . S
C1896 C1895 1.523 . S
C1897 C1881 1.429 . S
C1897 C1893 1.429 . S
C1897 C1898 1.523 . S
C1898 C1882 1.368 . S
C1898 C1894 1.368 . S
C1898 C1897 1.523 . S
H1899 C1874 0.950 . S
H1900 C1876 0.950 . S
H1901 C1877 0.949 . S
H1902 C1879 0.950 . S
H1903 C1881 0.950 . S
C945 C3 1.313 . S
C950 C298 1.313 . S
C975 C239 1.313 . S
C980 C62 1.313 . S
C1005 C121 1.313 . S
C1010 C416 1.313 . S
C1035 C357 1.313 . S
C1040 C180 1.313 . S
C1065 C770 1.313 . S
C1070 C475 1.313 . S
C1095 C711 1.313 . S
C1100 C534 1.313 . S
C1125 C888 1.313 . S
C1130 C593 1.313 . S
C1155 C652 1.313 . S
C1160 C829 1.313 . S
C1185 C111 1.493 . S
C1190 C52 1.493 . S
C1215 C170 1.492 . S
C1220 C229 1.492 . S
C1245 C288 1.493 . S
C1250 C347 1.493 . S
C1275 C406 1.492 . S
C1280 C465 1.492 . S
C1305 C524 1.493 . S
C1310 C583 1.493 . S
C1335 C701 1.492 . S
C1340 C642 1.492 . S
C1365 C819 1.493 . S
C1370 C760 1.493 . S
C1395 C878 1.492 . S
C1400 C937 1.492 . S
C1425 C536 1.490 . S
C1430 C5 1.490 . S
C1455 C64 1.490 . S
C1460 C477 1.490 . S
C1485 C654 1.489 . S
C1490 C123 1.489 . S
C1515 C182 1.489 . S
C1520 C595 1.489 . S
C1545 C241 1.490 . S
C1550 C772 1.490 . S
C1575 C713 1.490 . S
C1580 C300 1.490 . S
C1605 C359 1.489 . S
C1610 C890 1.489 . S
C1635 C831 1.489 . S
C1640 C418 1.489 . S
C1665 C33 1.187 . S
C1670 C151 1.187 . S
C1695 C210 1.187 . S
C1700 C92 1.187 . S
C1725 C387 1.187 . S
C1730 C269 1.187 . S
C1755 C446 1.187 . S
C1760 C328 1.187 . S
C1785 C623 1.187 . S
C1790 C505 1.187 . S
C1815 C564 1.187 . S
C1820 C682 1.187 . S
C1845 C859 1.187 . S
C1850 C741 1.187 . S
C1875 C800 1.187 . S
C1880 C918 1.187 . S
