# Generated by pormake.
# Topology gme, (4)-cn, num edge types: 1
# Building blocks:
#     Node 0, Type 0, BuildingBlock: AZAVOO_clean_sbu_0, # of connection points: 4
#     Node 1, Type 0, BuildingBlock: AZAVOO_clean_sbu_0, # of connection points: 4
#     Node 2, Type 0, BuildingBlock: AZAVOO_clean_sbu_0, # of connection points: 4
#     Node 3, Type 0, BuildingBlock: AZAVOO_clean_sbu_0, # of connection points: 4
#     Node 4, Type 0, BuildingBlock: AZAVOO_clean_sbu_0, # of connection points: 4
#     Node 5, Type 0, BuildingBlock: AZAVOO_clean_sbu_0, # of connection points: 4
#     Node 6, Type 0, BuildingBlock: AZAVOO_clean_sbu_0, # of connection points: 4
#     Node 7, Type 0, BuildingBlock: AZAVOO_clean_sbu_0, # of connection points: 4
#     Node 8, Type 0, BuildingBlock: AZAVOO_clean_sbu_0, # of connection points: 4
#     Node 9, Type 0, BuildingBlock: AZAVOO_clean_sbu_0, # of connection points: 4
#     Node 10, Type 0, BuildingBlock: AZAVOO_clean_sbu_0, # of connection points: 4
#     Node 11, Type 0, BuildingBlock: AZAVOO_clean_sbu_0, # of connection points: 4
#     Node 12, Type 0, BuildingBlock: AZAVOO_clean_sbu_0, # of connection points: 4
#     Node 13, Type 0, BuildingBlock: AZAVOO_clean_sbu_0, # of connection points: 4
#     Node 14, Type 0, BuildingBlock: AZAVOO_clean_sbu_0, # of connection points: 4
#     Node 15, Type 0, BuildingBlock: AZAVOO_clean_sbu_0, # of connection points: 4
#     Node 16, Type 0, BuildingBlock: AZAVOO_clean_sbu_0, # of connection points: 4
#     Node 17, Type 0, BuildingBlock: AZAVOO_clean_sbu_0, # of connection points: 4
#     Node 18, Type 0, BuildingBlock: AZAVOO_clean_sbu_0, # of connection points: 4
#     Node 19, Type 0, BuildingBlock: AZAVOO_clean_sbu_0, # of connection points: 4
#     Node 20, Type 0, BuildingBlock: AZAVOO_clean_sbu_0, # of connection points: 4
#     Node 21, Type 0, BuildingBlock: AZAVOO_clean_sbu_0, # of connection points: 4
#     Node 22, Type 0, BuildingBlock: AZAVOO_clean_sbu_0, # of connection points: 4
#     Node 23, Type 0, BuildingBlock: AZAVOO_clean_sbu_0, # of connection points: 4
#     Edge 24, Type (0, 0), BuildingBlock: KIFKEQ_clean_linker_1, # of connection points: 2
#     Edge 25, Type (0, 0), BuildingBlock: KIFKEQ_clean_linker_1, # of connection points: 2
#     Edge 26, Type (0, 0), BuildingBlock: KIFKEQ_clean_linker_1, # of connection points: 2
#     Edge 27, Type (0, 0), BuildingBlock: KIFKEQ_clean_linker_1, # of connection points: 2
#     Edge 28, Type (0, 0), BuildingBlock: KIFKEQ_clean_linker_1, # of connection points: 2
#     Edge 29, Type (0, 0), BuildingBlock: KIFKEQ_clean_linker_1, # of connection points: 2
#     Edge 30, Type (0, 0), BuildingBlock: KIFKEQ_clean_linker_1, # of connection points: 2
#     Edge 31, Type (0, 0), BuildingBlock: KIFKEQ_clean_linker_1, # of connection points: 2
#     Edge 32, Type (0, 0), BuildingBlock: KIFKEQ_clean_linker_1, # of connection points: 2
#     Edge 33, Type (0, 0), BuildingBlock: KIFKEQ_clean_linker_1, # of connection points: 2
#     Edge 34, Type (0, 0), BuildingBlock: KIFKEQ_clean_linker_1, # of connection points: 2
#     Edge 35, Type (0, 0), BuildingBlock: KIFKEQ_clean_linker_1, # of connection points: 2
#     Edge 36, Type (0, 0), BuildingBlock: KIFKEQ_clean_linker_1, # of connection points: 2
#     Edge 37, Type (0, 0), BuildingBlock: KIFKEQ_clean_linker_1, # of connection points: 2
#     Edge 38, Type (0, 0), BuildingBlock: KIFKEQ_clean_linker_1, # of connection points: 2
#     Edge 39, Type (0, 0), BuildingBlock: KIFKEQ_clean_linker_1, # of connection points: 2
#     Edge 40, Type (0, 0), BuildingBlock: KIFKEQ_clean_linker_1, # of connection points: 2
#     Edge 41, Type (0, 0), BuildingBlock: KIFKEQ_clean_linker_1, # of connection points: 2
#     Edge 42, Type (0, 0), BuildingBlock: KIFKEQ_clean_linker_1, # of connection points: 2
#     Edge 43, Type (0, 0), BuildingBlock: KIFKEQ_clean_linker_1, # of connection points: 2
#     Edge 44, Type (0, 0), BuildingBlock: KIFKEQ_clean_linker_1, # of connection points: 2
#     Edge 45, Type (0, 0), BuildingBlock: KIFKEQ_clean_linker_1, # of connection points: 2
#     Edge 46, Type (0, 0), BuildingBlock: KIFKEQ_clean_linker_1, # of connection points: 2
#     Edge 47, Type (0, 0), BuildingBlock: KIFKEQ_clean_linker_1, # of connection points: 2
#     Edge 48, Type (0, 0), BuildingBlock: KIFKEQ_clean_linker_1, # of connection points: 2
#     Edge 49, Type (0, 0), BuildingBlock: KIFKEQ_clean_linker_1, # of connection points: 2
#     Edge 50, Type (0, 0), BuildingBlock: KIFKEQ_clean_linker_1, # of connection points: 2
#     Edge 51, Type (0, 0), BuildingBlock: KIFKEQ_clean_linker_1, # of connection points: 2
#     Edge 52, Type (0, 0), BuildingBlock: KIFKEQ_clean_linker_1, # of connection points: 2
#     Edge 53, Type (0, 0), BuildingBlock: KIFKEQ_clean_linker_1, # of connection points: 2
#     Edge 54, Type (0, 0), BuildingBlock: KIFKEQ_clean_linker_1, # of connection points: 2
#     Edge 55, Type (0, 0), BuildingBlock: KIFKEQ_clean_linker_1, # of connection points: 2
#     Edge 56, Type (0, 0), BuildingBlock: KIFKEQ_clean_linker_1, # of connection points: 2
#     Edge 57, Type (0, 0), BuildingBlock: KIFKEQ_clean_linker_1, # of connection points: 2
#     Edge 58, Type (0, 0), BuildingBlock: KIFKEQ_clean_linker_1, # of connection points: 2
#     Edge 59, Type (0, 0), BuildingBlock: KIFKEQ_clean_linker_1, # of connection points: 2
#     Edge 60, Type (0, 0), BuildingBlock: KIFKEQ_clean_linker_1, # of connection points: 2
#     Edge 61, Type (0, 0), BuildingBlock: KIFKEQ_clean_linker_1, # of connection points: 2
#     Edge 62, Type (0, 0), BuildingBlock: KIFKEQ_clean_linker_1, # of connection points: 2
#     Edge 63, Type (0, 0), BuildingBlock: KIFKEQ_clean_linker_1, # of connection points: 2
#     Edge 64, Type (0, 0), BuildingBlock: KIFKEQ_clean_linker_1, # of connection points: 2
#     Edge 65, Type (0, 0), BuildingBlock: KIFKEQ_clean_linker_1, # of connection points: 2
#     Edge 66, Type (0, 0), BuildingBlock: KIFKEQ_clean_linker_1, # of connection points: 2
#     Edge 67, Type (0, 0), BuildingBlock: KIFKEQ_clean_linker_1, # of connection points: 2
#     Edge 68, Type (0, 0), BuildingBlock: KIFKEQ_clean_linker_1, # of connection points: 2
#     Edge 69, Type (0, 0), BuildingBlock: KIFKEQ_clean_linker_1, # of connection points: 2
#     Edge 70, Type (0, 0), BuildingBlock: KIFKEQ_clean_linker_1, # of connection points: 2
#     Edge 71, Type (0, 0), BuildingBlock: KIFKEQ_clean_linker_1, # of connection points: 2
# Relax obj value: 0.171
# Max RMSD: 0.159
# Mean RMSD: 0.159
data_MOF--net-gme--node1-AZAVOO_clean_sbu_0--edge1-KIFKEQ_clean_linker_1
_symmetry_space_group_name_H-M    P1
_symmetry_Int_Tables_number       1
_symmetry_cell_setting            triclinic
loop_
_symmetry_equiv_pos_as_xyz
'x, y, z'
_cell_length_a     65.882382
_cell_length_b     65.860318
_cell_length_c     48.932363
_cell_angle_alpha  90.057173
_cell_angle_beta   90.014703
_cell_angle_gamma 119.96536
loop_
_atom_site_label
_atom_site_type_symbol
_atom_site_fract_x
_atom_site_fract_y
_atom_site_fract_z
_atom_type_partial_charge
Mg0 Mg 0.42976 0.1134 0.09428 0.0
O1 O 0.46654 0.118 0.10026 0.0
O2 O 0.48475 0.14608 0.13164 0.0
Mg3 Mg 0.46106 0.16034 0.1441 0.0
C4 C 0.48432 0.13077 0.11527 0.0
C5 C 0.40438 0.08218 0.04539 0.0
O6 O 0.39085 0.09091 0.05149 0.0
O7 O 0.44483 0.14637 0.06787 0.0
O8 O 0.46265 0.17352 0.10034 0.0
O9 O 0.41613 0.08822 0.1289 0.0
O10 O 0.43067 0.12638 0.13348 0.0
C11 C 0.4569 0.16775 0.07539 0.0
C12 C 0.42233 0.10609 0.14478 0.0
O13 O 0.42356 0.08959 0.05819 0.0
Mg14 Mg 0.32313 0.43818 0.58385 0.0
O15 O 0.35311 0.47662 0.5865 0.0
O16 O 0.33975 0.4962 0.61095 0.0
Mg17 Mg 0.30209 0.47137 0.62333 0.0
C18 C 0.356 0.49549 0.59757 0.0
C19 C 0.34968 0.41604 0.55903 0.0
O20 O 0.34379 0.40668 0.58347 0.0
O21 O 0.30361 0.4473 0.55184 0.0
O22 O 0.29126 0.4667 0.57828 0.0
O23 O 0.33548 0.43064 0.62263 0.0
O24 O 0.30937 0.44228 0.62087 0.0
C25 C 0.29268 0.45857 0.55512 0.0
C26 C 0.32246 0.43707 0.63539 0.0
O27 O 0.34318 0.43039 0.5515 0.0
Mg28 Mg 0.88358 0.31961 0.09308 0.0
O29 O 0.87305 0.34804 0.09402 0.0
O30 O 0.8404 0.33442 0.11896 0.0
Mg31 Mg 0.82972 0.29745 0.13309 0.0
C32 C 0.85674 0.35052 0.10474 0.0
C33 C 0.93154 0.34786 0.06613 0.0
O34 O 0.93688 0.34501 0.09116 0.0
O35 O 0.85502 0.29803 0.06188 0.0
O36 O 0.82324 0.28507 0.0884 0.0
O37 O 0.90347 0.33439 0.13155 0.0
O38 O 0.86644 0.30609 0.13018 0.0
C39 C 0.83289 0.28632 0.06535 0.0
C40 C 0.88432 0.32057 0.14442 0.0
O41 O 0.91011 0.33932 0.05971 0.0
Mg42 Mg 0.57052 0.89537 0.59192 0.0
O43 O 0.53164 0.88376 0.59875 0.0
O44 O 0.51727 0.85395 0.62838 0.0
Mg45 Mg 0.54552 0.84466 0.6375 0.0
C46 C 0.51491 0.8685 0.61339 0.0
C47 C 0.59232 0.9295 0.54544 0.0
O48 O 0.60721 0.92211 0.55002 0.0
O49 O 0.56038 0.86498 0.56229 0.0
O50 O 0.5454 0.83531 0.59223 0.0
O51 O 0.57972 0.91784 0.62895 0.0
O52 O 0.57198 0.88106 0.62922 0.0
C53 C 0.5506 0.84319 0.56787 0.0
C54 C 0.57637 0.89963 0.64267 0.0
O55 O 0.57311 0.92009 0.55846 0.0
Mg56 Mg 0.67179 0.56131 0.08494 0.0
O57 O 0.64259 0.52383 0.09421 0.0
O58 O 0.65496 0.50846 0.12633 0.0
Mg59 Mg 0.69258 0.53599 0.13689 0.0
C60 C 0.63922 0.50698 0.10993 0.0
C61 C 0.63047 0.5586 0.05362 0.0
O62 O 0.62228 0.55312 0.07863 0.0
O63 O 0.69148 0.54744 0.05951 0.0
O64 O 0.70329 0.53284 0.09328 0.0
O65 O 0.65911 0.57441 0.11927 0.0
O66 O 0.68617 0.56411 0.12355 0.0
C67 C 0.70219 0.53695 0.06796 0.0
C68 C 0.67296 0.57092 0.13482 0.0
O69 O 0.65095 0.56225 0.04859 0.0
Mg70 Mg 0.10305 0.66666 0.59504 0.0
O71 O 0.11083 0.6364 0.59998 0.0
O72 O 0.14259 0.64949 0.62647 0.0
Mg73 Mg 0.15489 0.6872 0.63856 0.0
C74 C 0.12622 0.63336 0.61227 0.0
C75 C 0.05898 0.62785 0.5666 0.0
O76 O 0.05587 0.61979 0.59171 0.0
O77 O 0.13338 0.68529 0.56496 0.0
O78 O 0.16377 0.69774 0.59367 0.0
O79 O 0.08102 0.65528 0.63257 0.0
O80 O 0.119 0.6806 0.63268 0.0
C81 C 0.15535 0.69604 0.56973 0.0
C82 C 0.09997 0.66825 0.64631 0.0
O83 O 0.0775 0.6469 0.56084 0.0
Mg84 Mg 0.88816 0.5733 0.40028 0.0
O85 O 0.87802 0.53456 0.39638 0.0
O86 O 0.84651 0.51684 0.36938 0.0
Mg87 Mg 0.83661 0.5438 0.35594 0.0
C88 C 0.86218 0.51634 0.38424 0.0
C89 C 0.92886 0.57282 0.42994 0.0
O90 O 0.93016 0.56548 0.40538 0.0
O91 O 0.85769 0.56367 0.4297 0.0
O92 O 0.82762 0.54679 0.40041 0.0
O93 O 0.91063 0.58191 0.36329 0.0
O94 O 0.87322 0.57166 0.36195 0.0
C95 C 0.83583 0.5535 0.42442 0.0
C96 C 0.89216 0.57665 0.34893 0.0
O97 O 0.91267 0.57743 0.43508 0.0
Mg98 Mg 0.31953 0.89027 0.90544 0.0
O99 O 0.34952 0.88172 0.90388 0.0
O100 O 0.33583 0.84852 0.8798 0.0
Mg101 Mg 0.29865 0.83629 0.86584 0.0
C102 C 0.35207 0.86532 0.89343 0.0
C103 C 0.32714 0.92638 0.94908 0.0
O104 O 0.30465 0.91685 0.94382 0.0
O105 O 0.29979 0.86156 0.9373 0.0
O106 O 0.2872 0.82991 0.91059 0.0
O107 O 0.33233 0.91063 0.86699 0.0
O108 O 0.30649 0.87277 0.86836 0.0
C109 C 0.28862 0.8394 0.93378 0.0
C110 C 0.3196 0.89117 0.85402 0.0
O111 O 0.33866 0.91801 0.93765 0.0
Mg112 Mg 0.4303 0.31825 0.39856 0.0
O113 O 0.46803 0.34909 0.39361 0.0
O114 O 0.48642 0.33733 0.36474 0.0
Mg115 Mg 0.46124 0.30003 0.35122 0.0
C116 C 0.48624 0.35282 0.38026 0.0
C117 C 0.42807 0.35707 0.43118 0.0
O118 O 0.43688 0.36782 0.40792 0.0
O119 O 0.44297 0.29882 0.42618 0.0
O120 O 0.46048 0.28781 0.39516 0.0
O121 O 0.41883 0.33099 0.36302 0.0
O122 O 0.43189 0.30603 0.35972 0.0
C123 C 0.45417 0.28834 0.41971 0.0
C124 C 0.42488 0.31886 0.34773 0.0
O125 O 0.42429 0.33632 0.43446 0.0
Mg126 Mg 0.10428 0.43021 0.89408 0.0
O127 O 0.11273 0.46847 0.88894 0.0
O128 O 0.14313 0.48587 0.86029 0.0
Mg129 Mg 0.15526 0.4601 0.84925 0.0
C130 C 0.12751 0.48631 0.87528 0.0
C131 C 0.05908 0.40644 0.92542 0.0
O132 O 0.05545 0.39304 0.90395 0.0
O133 O 0.13491 0.4419 0.92363 0.0
O134 O 0.16481 0.45934 0.89425 0.0
O135 O 0.08158 0.41965 0.85714 0.0
O136 O 0.11936 0.43138 0.85608 0.0
C137 C 0.15678 0.453 0.91839 0.0
C138 C 0.10012 0.42494 0.84295 0.0
O139 O 0.07904 0.42466 0.92843 0.0
Mg140 Mg 0.66523 0.11411 0.40104 0.0
O141 O 0.63379 0.11939 0.39294 0.0
O142 O 0.64427 0.1467 0.36051 0.0
Mg143 Mg 0.68269 0.16052 0.35022 0.0
C144 C 0.62912 0.13185 0.37698 0.0
C145 C 0.65894 0.08515 0.45149 0.0
O146 O 0.68166 0.09596 0.44723 0.0
O147 O 0.68256 0.14722 0.42733 0.0
O148 O 0.69243 0.17396 0.39426 0.0
O149 O 0.65418 0.0889 0.36629 0.0
O150 O 0.67897 0.12695 0.36264 0.0
C151 C 0.69174 0.16848 0.41944 0.0
C152 C 0.66704 0.10684 0.35102 0.0
O153 O 0.64647 0.09053 0.43678 0.0
Mg154 Mg 0.57756 0.67746 0.89485 0.0
O155 O 0.53877 0.65078 0.88711 0.0
O156 O 0.52419 0.66675 0.85856 0.0
Mg157 Mg 0.55299 0.70414 0.84983 0.0
C158 C 0.5219 0.64963 0.87305 0.0
C159 C 0.57338 0.63351 0.92142 0.0
O160 O 0.56748 0.62674 0.89598 0.0
O161 O 0.567 0.69723 0.92477 0.0
O162 O 0.55307 0.71317 0.8951 0.0
O163 O 0.58776 0.66512 0.85768 0.0
O164 O 0.57935 0.69362 0.85738 0.0
C165 C 0.55788 0.70989 0.9194 0.0
C166 C 0.58433 0.67986 0.84387 0.0
O167 O 0.57821 0.65405 0.92834 0.0
Mg168 Mg 0.56014 0.88439 0.89906 0.0
O169 O 0.5227 0.87851 0.89535 0.0
O170 O 0.50363 0.84926 0.86556 0.0
Mg171 Mg 0.52762 0.83584 0.85144 0.0
C172 C 0.50432 0.86481 0.88172 0.0
C173 C 0.58729 0.9173 0.94603 0.0
O174 O 0.60112 0.9092 0.93875 0.0
O175 O 0.5472 0.85217 0.92649 0.0
O176 O 0.52872 0.82405 0.8952 0.0
O177 O 0.57169 0.90858 0.86342 0.0
O178 O 0.55785 0.87045 0.86014 0.0
C179 C 0.53547 0.83057 0.91975 0.0
C180 C 0.56534 0.89033 0.84814 0.0
O181 O 0.56739 0.90899 0.93465 0.0
Mg182 Mg 0.66827 0.56504 0.3917 0.0
O183 O 0.63835 0.52712 0.38538 0.0
O184 O 0.65073 0.5097 0.35593 0.0
Mg185 Mg 0.68869 0.5353 0.34535 0.0
C186 C 0.63489 0.50937 0.37123 0.0
C187 C 0.62794 0.56697 0.42022 0.0
O188 O 0.6202 0.56156 0.39502 0.0
O189 O 0.68695 0.55234 0.42054 0.0
O190 O 0.69872 0.53503 0.39009 0.0
O191 O 0.6569 0.57676 0.35481 0.0
O192 O 0.6826 0.56457 0.35379 0.0
C193 C 0.69741 0.541 0.4146 0.0
C194 C 0.6702 0.57146 0.34066 0.0
O195 O 0.64771 0.56916 0.42627 0.0
Mg196 Mg 0.10633 0.67245 0.90311 0.0
O197 O 0.11591 0.64381 0.89581 0.0
O198 O 0.14546 0.65718 0.86597 0.0
Mg199 Mg 0.15541 0.69465 0.85503 0.0
C200 C 0.13055 0.64106 0.88149 0.0
C201 C 0.0665 0.63062 0.93263 0.0
O202 O 0.06476 0.62263 0.90762 0.0
O203 O 0.13824 0.69259 0.93095 0.0
O204 O 0.16662 0.70522 0.89951 0.0
O205 O 0.08256 0.65938 0.86698 0.0
O206 O 0.11981 0.68703 0.86496 0.0
C207 C 0.15986 0.70378 0.92426 0.0
C208 C 0.10056 0.67333 0.8524 0.0
O209 O 0.08295 0.65116 0.93827 0.0
Mg210 Mg 0.41541 0.095 0.4009 0.0
O211 O 0.45419 0.10651 0.39404 0.0
O212 O 0.46937 0.1377 0.36646 0.0
Mg213 Mg 0.44081 0.14642 0.35623 0.0
C214 C 0.47137 0.12255 0.38068 0.0
C215 C 0.4146 0.0526 0.4291 0.0
O216 O 0.41896 0.04931 0.40378 0.0
O217 O 0.42557 0.12527 0.43086 0.0
O218 O 0.43997 0.15527 0.40136 0.0
O219 O 0.40618 0.07302 0.36318 0.0
O220 O 0.41426 0.10986 0.36389 0.0
C221 C 0.43477 0.14707 0.42558 0.0
C222 C 0.4097 0.0915 0.34995 0.0
O223 O 0.41319 0.07066 0.43486 0.0
Mg224 Mg 0.32689 0.44865 0.89214 0.0
O225 O 0.35764 0.48627 0.88768 0.0
O226 O 0.34626 0.50552 0.8597 0.0
Mg227 Mg 0.3085 0.48082 0.84692 0.0
C228 C 0.36167 0.50477 0.8748 0.0
C229 C 0.34928 0.42485 0.92215 0.0
O230 O 0.3414 0.41293 0.89931 0.0
O231 O 0.30798 0.46086 0.92137 0.0
O232 O 0.29734 0.4795 0.89146 0.0
O233 O 0.33925 0.43865 0.85487 0.0
O234 O 0.31349 0.45083 0.85437 0.0
C235 C 0.29791 0.47264 0.91573 0.0
C236 C 0.32623 0.44449 0.84104 0.0
O237 O 0.34587 0.44193 0.92659 0.0
Mg238 Mg 0.87791 0.32542 0.40137 0.0
O239 O 0.87229 0.35719 0.39666 0.0
O240 O 0.84148 0.34565 0.36885 0.0
Mg241 Mg 0.82629 0.30728 0.35821 0.0
C242 C 0.85805 0.36131 0.38328 0.0
C243 C 0.91325 0.33198 0.4448 0.0
O244 O 0.9036 0.3097 0.43821 0.0
O245 O 0.84785 0.30841 0.43197 0.0
O246 O 0.81762 0.29797 0.40349 0.0
O247 O 0.89963 0.3358 0.36383 0.0
O248 O 0.86132 0.31187 0.3639 0.0
C249 C 0.82593 0.29916 0.4274 0.0
C250 C 0.88043 0.32358 0.35019 0.0
O251 O 0.90509 0.34405 0.43434 0.0
Mg252 Mg 0.10245 0.42429 0.58671 0.0
O253 O 0.11013 0.4619 0.59509 0.0
O254 O 0.1383 0.47755 0.62677 0.0
Mg255 Mg 0.15075 0.45164 0.63573 0.0
C256 C 0.12355 0.47876 0.61093 0.0
C257 C 0.0702 0.40247 0.5376 0.0
O258 O 0.07867 0.38834 0.54116 0.0
O259 O 0.13465 0.43832 0.55896 0.0
O260 O 0.16245 0.45472 0.59107 0.0
O261 O 0.07841 0.41192 0.62257 0.0
O262 O 0.11606 0.42298 0.62463 0.0
C263 C 0.15617 0.4499 0.56609 0.0
C264 C 0.09659 0.41643 0.63713 0.0
O265 O 0.07815 0.42085 0.55213 0.0
Mg266 Mg 0.66907 0.10449 0.09393 0.0
O267 O 0.63862 0.11231 0.09746 0.0
O268 O 0.65178 0.14416 0.12393 0.0
Mg269 Mg 0.68912 0.15649 0.13708 0.0
C270 C 0.63573 0.12794 0.10949 0.0
C271 C 0.66203 0.07095 0.04717 0.0
O272 O 0.68472 0.08116 0.05151 0.0
O273 O 0.68825 0.13471 0.06353 0.0
O274 O 0.6999 0.16486 0.0924 0.0
O275 O 0.65681 0.08256 0.13148 0.0
O276 O 0.68221 0.12054 0.13164 0.0
C277 C 0.6988 0.15669 0.06844 0.0
C278 C 0.66949 0.10159 0.14524 0.0
O279 O 0.65014 0.07799 0.06042 0.0
Mg280 Mg 0.56795 0.67574 0.58787 0.0
O281 O 0.5302 0.64685 0.59612 0.0
O282 O 0.51483 0.65848 0.62902 0.0
Mg283 Mg 0.54224 0.69611 0.63986 0.0
C284 C 0.51329 0.64313 0.61192 0.0
C285 C 0.56493 0.6343 0.55646 0.0
O286 O 0.5593 0.6261 0.58145 0.0
O287 O 0.5544 0.69565 0.56242 0.0
O288 O 0.53922 0.70688 0.59618 0.0
O289 O 0.58057 0.66279 0.62256 0.0
O290 O 0.57052 0.69005 0.6265 0.0
C291 C 0.54359 0.70605 0.57088 0.0
C292 C 0.57729 0.67688 0.63794 0.0
O293 O 0.56897 0.65493 0.55148 0.0
Mg294 Mg 0.89169 0.56375 0.09182 0.0
O295 O 0.88001 0.52485 0.09745 0.0
O296 O 0.84953 0.50897 0.12601 0.0
Mg297 Mg 0.84035 0.53718 0.13661 0.0
C298 C 0.86447 0.50739 0.1109 0.0
C299 C 0.93313 0.56282 0.06437 0.0
O300 O 0.93478 0.55706 0.08963 0.0
O301 O 0.86149 0.55406 0.06201 0.0
O302 O 0.83143 0.5383 0.09144 0.0
O303 O 0.91354 0.57261 0.12962 0.0
O304 O 0.8767 0.56446 0.12908 0.0
C305 C 0.83962 0.54415 0.06727 0.0
C306 C 0.89514 0.5692 0.14293 0.0
O307 O 0.91628 0.56609 0.05798 0.0
Mg308 Mg 0.32132 0.87759 0.59763 0.0
O309 O 0.35212 0.87098 0.6034 0.0
O310 O 0.34104 0.8416 0.63317 0.0
Mg311 Mg 0.3034 0.82925 0.64593 0.0
C312 C 0.35628 0.85705 0.6173 0.0
C313 C 0.33665 0.919 0.56112 0.0
O314 O 0.32237 0.92017 0.57898 0.0
O315 O 0.3024 0.84527 0.57018 0.0
O316 O 0.29201 0.8173 0.60181 0.0
O317 O 0.33384 0.90178 0.63338 0.0
O318 O 0.30829 0.86385 0.63605 0.0
C319 C 0.29247 0.82371 0.57707 0.0
C320 C 0.32102 0.88355 0.64827 0.0
O321 O 0.34005 0.90167 0.56211 0.0
Mg322 Mg 0.42658 0.32783 0.09101 0.0
O323 O 0.46542 0.3554 0.09733 0.0
O324 O 0.48071 0.34067 0.12671 0.0
Mg325 Mg 0.45302 0.30294 0.13605 0.0
C326 C 0.48251 0.3573 0.11166 0.0
C327 C 0.40908 0.35694 0.06247 0.0
O328 O 0.3977 0.35101 0.08578 0.0
O329 O 0.4368 0.30774 0.06105 0.0
O330 O 0.4527 0.29378 0.09077 0.0
O331 O 0.41769 0.34062 0.129 0.0
O332 O 0.4258 0.3119 0.12811 0.0
C333 C 0.44706 0.29613 0.06649 0.0
C334 C 0.42113 0.32558 0.14212 0.0
O335 O 0.42348 0.34992 0.05734 0.0
H336 H 0.41606 0.06284 0.31482 0.0
H337 H 0.40512 0.12222 0.31733 0.0
H338 H 0.41955 0.06606 0.26513 0.0
H339 H 0.40742 0.12481 0.26783 0.0
H340 H 0.4375 0.14066 0.18341 0.0
H341 H 0.43486 0.13638 0.23259 0.0
H342 H 0.39905 0.06099 0.22364 0.0
H343 H 0.40307 0.06543 0.17418 0.0
C344 C 0.41411 0.07638 0.30468 0.0
C345 C 0.4105 0.09239 0.31987 0.0
C346 C 0.41599 0.07818 0.27621 0.0
C347 C 0.41396 0.09583 0.2624 0.0
C348 C 0.4097 0.11139 0.27773 0.0
C349 C 0.4082 0.10982 0.30613 0.0
C350 C 0.42937 0.12318 0.19183 0.0
C351 C 0.42072 0.10341 0.17481 0.0
C352 C 0.42755 0.12068 0.22016 0.0
C353 C 0.41656 0.09832 0.2322 0.0
C354 C 0.4079 0.0785 0.21514 0.0
C355 C 0.41007 0.08104 0.18676 0.0
H356 H 0.30628 0.45982 0.6681 0.0
H357 H 0.34088 0.41882 0.67073 0.0
H358 H 0.30875 0.46348 0.7175 0.0
H359 H 0.34209 0.42118 0.72027 0.0
H360 H 0.29323 0.44364 0.80705 0.0
H361 H 0.29256 0.44221 0.75742 0.0
H362 H 0.36002 0.44591 0.75757 0.0
H363 H 0.35991 0.44599 0.80736 0.0
C364 C 0.3143 0.45148 0.67919 0.0
C365 C 0.32352 0.43917 0.66545 0.0
C366 C 0.31556 0.4534 0.70763 0.0
C367 C 0.32562 0.44262 0.72301 0.0
C368 C 0.33468 0.43016 0.70917 0.0
C369 C 0.33382 0.42863 0.68072 0.0
C370 C 0.30793 0.44421 0.79642 0.0
C371 C 0.32658 0.44482 0.81098 0.0
C372 C 0.30764 0.44355 0.76793 0.0
C373 C 0.32624 0.44393 0.75336 0.0
C374 C 0.34516 0.44508 0.76806 0.0
C375 C 0.34521 0.44529 0.79659 0.0
H376 H 0.85183 0.28767 0.17835 0.0
H377 H 0.91343 0.35652 0.17787 0.0
H378 H 0.8507 0.28881 0.22801 0.0
H379 H 0.91168 0.35831 0.22745 0.0
H380 H 0.91835 0.34303 0.31646 0.0
H381 H 0.91875 0.34263 0.26682 0.0
H382 H 0.84297 0.30545 0.26596 0.0
H383 H 0.84267 0.30457 0.31552 0.0
C384 C 0.86492 0.30321 0.1889 0.0
C385 C 0.88279 0.32195 0.17433 0.0
C386 C 0.86421 0.30395 0.21738 0.0
C387 C 0.88115 0.32364 0.23187 0.0
C388 C 0.89865 0.34265 0.21709 0.0
C389 C 0.89958 0.34172 0.18864 0.0
C390 C 0.90177 0.33479 0.30566 0.0
C391 C 0.88047 0.32394 0.32 0.0
C392 C 0.90199 0.33472 0.27714 0.0
C393 C 0.88089 0.32409 0.26225 0.0
C394 C 0.85958 0.31349 0.27667 0.0
C395 C 0.85939 0.31322 0.3052 0.0
H396 H 0.58073 0.86947 0.6766 0.0
H397 H 0.57003 0.92903 0.67648 0.0
H398 H 0.57849 0.86806 0.72617 0.0
H399 H 0.56661 0.927 0.72617 0.0
H400 H 0.58399 0.93014 0.81722 0.0
H401 H 0.58742 0.93317 0.76762 0.0
H402 H 0.55124 0.85757 0.76154 0.0
H403 H 0.54918 0.85468 0.81085 0.0
C404 C 0.57771 0.88215 0.68723 0.0
C405 C 0.57549 0.89931 0.67274 0.0
C406 C 0.57624 0.88126 0.71566 0.0
C407 C 0.57211 0.89726 0.73025 0.0
C408 C 0.57009 0.91458 0.71568 0.0
C409 C 0.57193 0.91569 0.6872 0.0
C410 C 0.57674 0.91419 0.80524 0.0
C411 C 0.56622 0.89216 0.81803 0.0
C412 C 0.57858 0.91591 0.77678 0.0
C413 C 0.5697 0.89562 0.76049 0.0
C414 C 0.55874 0.87361 0.77337 0.0
C415 C 0.55725 0.87192 0.80177 0.0
H416 H 0.69358 0.55797 0.30575 0.0
H417 H 0.64741 0.58687 0.30711 0.0
H418 H 0.69314 0.55792 0.25649 0.0
H419 H 0.64842 0.58861 0.25729 0.0
H420 H 0.63678 0.56585 0.16697 0.0
H421 H 0.63568 0.56635 0.21686 0.0
H422 H 0.70793 0.58256 0.21941 0.0
H423 H 0.70833 0.5805 0.16991 0.0
C424 C 0.6833 0.56434 0.29557 0.0
C425 C 0.67024 0.57207 0.31046 0.0
C426 C 0.68338 0.56471 0.26713 0.0
C427 C 0.67092 0.57347 0.25271 0.0
C428 C 0.65796 0.58143 0.26762 0.0
C429 C 0.65751 0.58059 0.29621 0.0
C430 C 0.65237 0.56955 0.17834 0.0
C431 C 0.67255 0.57289 0.16473 0.0
C432 C 0.65183 0.56999 0.20691 0.0
C433 C 0.67163 0.57423 0.22232 0.0
C434 C 0.69209 0.57851 0.20839 0.0
C435 C 0.69242 0.57753 0.17998 0.0
H436 H 0.06195 0.64862 0.68005 0.0
H437 H 0.13759 0.68822 0.68102 0.0
H438 H 0.06152 0.64996 0.72975 0.0
H439 H 0.1373 0.68828 0.73048 0.0
H440 H 0.13021 0.70681 0.81711 0.0
H441 H 0.12944 0.70545 0.76748 0.0
H442 H 0.06901 0.63563 0.77015 0.0
H443 H 0.06916 0.63766 0.81992 0.0
C444 C 0.0785 0.65732 0.69087 0.0
C445 C 0.09981 0.66824 0.67652 0.0
C446 C 0.07827 0.65796 0.71942 0.0
C447 C 0.09937 0.66927 0.73428 0.0
C448 C 0.12067 0.67983 0.71982 0.0
C449 C 0.12087 0.67954 0.69132 0.0
C450 C 0.11674 0.69121 0.80704 0.0
C451 C 0.09977 0.67234 0.82231 0.0
C452 C 0.11638 0.69032 0.77856 0.0
C453 C 0.09928 0.67034 0.76466 0.0
C454 C 0.08224 0.65145 0.78006 0.0
C455 C 0.08237 0.65253 0.8086 0.0
H456 H 0.92447 0.56448 0.17859 0.0
H457 H 0.86515 0.57541 0.1751 0.0
H458 H 0.92351 0.56527 0.22841 0.0
H459 H 0.86492 0.57761 0.22461 0.0
H460 H 0.85502 0.55896 0.31341 0.0
H461 H 0.85575 0.55573 0.26422 0.0
H462 H 0.93139 0.58957 0.26643 0.0
H463 H 0.93039 0.59124 0.31606 0.0
C464 C 0.91136 0.56725 0.18852 0.0
C465 C 0.89482 0.56977 0.17304 0.0
C466 C 0.91088 0.56788 0.21708 0.0
C467 C 0.89411 0.57149 0.23072 0.0
C468 C 0.87775 0.57424 0.21501 0.0
C469 C 0.87796 0.57315 0.18655 0.0
C470 C 0.87178 0.56546 0.30354 0.0
C471 C 0.89261 0.57514 0.31879 0.0
C472 C 0.87226 0.56388 0.27513 0.0
C473 C 0.89365 0.57248 0.26112 0.0
C474 C 0.91453 0.58235 0.27643 0.0
C475 C 0.91399 0.58349 0.30492 0.0
H476 H 0.30408 0.85227 0.82156 0.0
H477 H 0.33776 0.92776 0.81834 0.0
H478 H 0.30601 0.85071 0.77227 0.0
H479 H 0.33845 0.92621 0.76868 0.0
H480 H 0.28853 0.85272 0.68357 0.0
H481 H 0.28859 0.85499 0.73308 0.0
H482 H 0.35558 0.91916 0.7305 0.0
H483 H 0.35475 0.91743 0.68068 0.0
C484 C 0.31179 0.86855 0.81037 0.0
C485 C 0.32081 0.89012 0.82395 0.0
C486 C 0.31271 0.86766 0.78194 0.0
C487 C 0.32223 0.88832 0.76632 0.0
C488 C 0.33133 0.90995 0.77997 0.0
C489 C 0.33079 0.91084 0.80847 0.0
C490 C 0.30327 0.86729 0.69361 0.0
C491 C 0.32163 0.88489 0.67833 0.0
C492 C 0.30342 0.86853 0.72205 0.0
C493 C 0.32217 0.88719 0.73595 0.0
C494 C 0.34066 0.90473 0.72055 0.0
C495 C 0.34029 0.90369 0.69201 0.0
H496 H 0.44152 0.29991 0.31027 0.0
H497 H 0.40746 0.34126 0.317 0.0
H498 H 0.44148 0.30285 0.261 0.0
H499 H 0.40598 0.34294 0.26737 0.0
H500 H 0.42678 0.36004 0.17772 0.0
H501 H 0.42839 0.35919 0.22751 0.0
H502 H 0.41617 0.2883 0.22377 0.0
H503 H 0.41583 0.28974 0.17421 0.0
C504 C 0.43399 0.30963 0.30128 0.0
C505 C 0.42471 0.32053 0.31764 0.0
C506 C 0.43368 0.31107 0.27288 0.0
C507 C 0.42358 0.32301 0.26007 0.0
C508 C 0.41423 0.33391 0.27647 0.0
C509 C 0.41493 0.3328 0.30495 0.0
C510 C 0.42447 0.34433 0.18765 0.0
C511 C 0.42134 0.32502 0.17218 0.0
C512 C 0.42526 0.34376 0.21618 0.0
C513 C 0.42254 0.32372 0.22976 0.0
C514 C 0.41893 0.30426 0.2141 0.0
C515 C 0.41856 0.305 0.18566 0.0
H516 H 0.06516 0.42034 0.66995 0.0
H517 H 0.12654 0.41272 0.67203 0.0
H518 H 0.06586 0.42304 0.71972 0.0
H519 H 0.12661 0.41411 0.72163 0.0
H520 H 0.13686 0.44204 0.80706 0.0
H521 H 0.13528 0.44028 0.75764 0.0
H522 H 0.05955 0.4024 0.76088 0.0
H523 H 0.06126 0.40553 0.8105 0.0
C524 C 0.07858 0.41889 0.68112 0.0
C525 C 0.09587 0.41646 0.66721 0.0
C526 C 0.07895 0.42033 0.70964 0.0
C527 C 0.0964 0.41897 0.72481 0.0
C528 C 0.11327 0.41586 0.71072 0.0
C529 C 0.11313 0.41486 0.68226 0.0
C530 C 0.11988 0.43358 0.79731 0.0
C531 C 0.09922 0.42409 0.81277 0.0
C532 C 0.11894 0.4323 0.76885 0.0
C533 C 0.09727 0.42101 0.75512 0.0
C534 C 0.07656 0.41153 0.77065 0.0
C535 C 0.07754 0.4132 0.79914 0.0
H536 H 0.70143 0.13569 0.31647 0.0
H537 H 0.63311 0.07348 0.31827 0.0
H538 H 0.70214 0.13326 0.26704 0.0
H539 H 0.633 0.07173 0.2684 0.0
H540 H 0.64922 0.06386 0.17952 0.0
H541 H 0.64879 0.06409 0.22933 0.0
H542 H 0.68604 0.1399 0.22861 0.0
H543 H 0.68793 0.13954 0.17942 0.0
C544 C 0.68643 0.12161 0.30617 0.0
C545 C 0.66717 0.10484 0.32109 0.0
C546 C 0.68671 0.12029 0.27778 0.0
C547 C 0.66747 0.10248 0.26355 0.0
C548 C 0.64825 0.08553 0.27861 0.0
C549 C 0.64821 0.08658 0.30716 0.0
C550 C 0.65735 0.08055 0.19008 0.0
C551 C 0.66853 0.1017 0.17541 0.0
C552 C 0.65696 0.08069 0.21866 0.0
C553 C 0.66746 0.10201 0.23315 0.0
C554 C 0.67825 0.12311 0.21832 0.0
C555 C 0.67905 0.12293 0.18989 0.0
H556 H 0.58873 0.7135 0.67171 0.0
H557 H 0.57182 0.64119 0.67133 0.0
H558 H 0.59244 0.71469 0.72107 0.0
H559 H 0.57386 0.64168 0.72121 0.0
H560 H 0.59721 0.65515 0.8101 0.0
H561 H 0.59723 0.65475 0.76032 0.0
H562 H 0.57005 0.7025 0.75983 0.0
H563 H 0.57194 0.70432 0.80905 0.0
C564 C 0.58557 0.69775 0.68234 0.0
C565 C 0.57989 0.67723 0.66782 0.0
C566 C 0.58749 0.69834 0.71071 0.0
C567 C 0.58309 0.67818 0.72539 0.0
C568 C 0.57766 0.65765 0.7107 0.0
C569 C 0.57633 0.65727 0.68213 0.0
C570 C 0.59138 0.66566 0.79928 0.0
C571 C 0.58436 0.67961 0.81364 0.0
C572 C 0.59119 0.66528 0.77069 0.0
C573 C 0.58363 0.67857 0.75583 0.0
C574 C 0.57649 0.69239 0.77036 0.0
C575 C 0.5772 0.69316 0.79882 0.0
H576 H 0.43165 0.16636 0.03007 0.0
H577 H 0.49296 0.21242 0.07737 0.0
H578 H 0.43253 0.20037 0.0088 0.0
H579 H 0.49357 0.24605 0.05721 0.0
H580 H 0.48773 0.30423 0.04308 0.0
H581 H 0.49466 0.27328 0.02643 0.0
H582 H 0.42014 0.22433 0.03005 0.0
H583 H 0.41347 0.25566 0.04473 0.0
C584 C 0.44582 0.18371 0.03516 0.0
C585 C 0.46182 0.18683 0.05598 0.0
C586 C 0.44624 0.20324 0.02314 0.0
C587 C 0.46262 0.22609 0.03185 0.0
C588 C 0.48056 0.22892 0.04983 0.0
C589 C 0.48012 0.20952 0.06175 0.0
C590 C 0.47282 0.28715 0.03856 0.0
C591 C 0.45012 0.28213 0.04532 0.0
C592 C 0.47675 0.2693 0.02939 0.0
C593 C 0.4581 0.24599 0.02813 0.0
C594 C 0.43506 0.24191 0.0309 0.0
C595 C 0.43113 0.25992 0.03937 0.0
H596 H 0.19839 0.48927 0.56555 0.0
H597 H 0.1566 0.42458 0.52171 0.0
H598 H 0.23334 0.49392 0.54418 0.0
H599 H 0.19193 0.42939 0.4992 0.0
H600 H 0.25463 0.42119 0.53395 0.0
H601 H 0.22009 0.42228 0.51926 0.0
H602 H 0.26116 0.4978 0.51282 0.0
H603 H 0.29528 0.4965 0.52983 0.0
C604 C 0.19664 0.4765 0.55036 0.0
C605 C 0.17496 0.45627 0.54585 0.0
C606 C 0.21678 0.47923 0.53774 0.0
C607 C 0.21575 0.46166 0.52038 0.0
C608 C 0.1935 0.44297 0.513 0.0
C609 C 0.17321 0.44028 0.52569 0.0
C610 C 0.25651 0.43789 0.52801 0.0
C611 C 0.27735 0.45877 0.53351 0.0
C612 C 0.23661 0.4386 0.51952 0.0
C613 C 0.23748 0.46028 0.51611 0.0
C614 C 0.25959 0.48085 0.51646 0.0
C615 C 0.27928 0.48016 0.52583 0.0
H616 H 0.80159 0.29156 0.03436 0.0
H617 H 0.82897 0.2454 0.04967 0.0
H618 H 0.76646 0.25919 0.01404 0.0
H619 H 0.79344 0.21267 0.03168 0.0
H620 H 0.72631 0.15304 0.02891 0.0
H621 H 0.76011 0.18649 0.00782 0.0
H622 H 0.73699 0.23248 0.04112 0.0
H623 H 0.70339 0.19929 0.06084 0.0
C624 C 0.80043 0.27463 0.03229 0.0
C625 C 0.81768 0.27074 0.04373 0.0
C626 C 0.78019 0.25596 0.021 0.0
C627 C 0.77641 0.23294 0.02243 0.0
C628 C 0.79534 0.22993 0.03028 0.0
C629 C 0.81585 0.24875 0.04076 0.0
C630 C 0.72797 0.17022 0.0304 0.0
C631 C 0.71275 0.17381 0.04714 0.0
C632 C 0.74749 0.18947 0.0186 0.0
C633 C 0.75205 0.21248 0.02369 0.0
C634 C 0.73455 0.2153 0.03675 0.0
C635 C 0.71517 0.19617 0.04837 0.0
H636 H 0.50676 0.71325 0.57374 0.0
H637 H 0.56846 0.73106 0.526 0.0
H638 H 0.50522 0.74626 0.55509 0.0
H639 H 0.56667 0.76424 0.50621 0.0
H640 H 0.58443 0.83706 0.54548 0.0
H641 H 0.57839 0.79973 0.52901 0.0
H642 H 0.50363 0.77311 0.52613 0.0
H643 H 0.50995 0.81026 0.54464 0.0
C644 C 0.51946 0.72377 0.55828 0.0
C645 C 0.53814 0.7201 0.55198 0.0
C646 C 0.5185 0.74273 0.54723 0.0
C647 C 0.53632 0.75858 0.52966 0.0
C648 C 0.55306 0.75282 0.52029 0.0
C649 C 0.554 0.7337 0.53143 0.0
C650 C 0.56684 0.82357 0.54001 0.0
C651 C 0.54763 0.82624 0.54662 0.0
C652 C 0.56327 0.80204 0.53046 0.0
C653 C 0.54037 0.78292 0.52726 0.0
C654 C 0.52145 0.78713 0.52938 0.0
C655 C 0.52501 0.80848 0.53966 0.0
H656 H 0.70922 0.49999 0.07016 0.0
H657 H 0.72794 0.56265 0.02395 0.0
H658 H 0.74271 0.49894 0.05221 0.0
H659 H 0.76165 0.56142 0.00491 0.0
H660 H 0.80708 0.50404 0.04271 0.0
H661 H 0.77025 0.49807 0.02365 0.0
H662 H 0.79659 0.57272 0.02894 0.0
H663 H 0.83364 0.57846 0.046 0.0
C664 C 0.72003 0.513 0.05512 0.0
C665 C 0.71644 0.53176 0.04906 0.0
C666 C 0.73929 0.51235 0.04451 0.0
C667 C 0.75552 0.53057 0.02765 0.0
C668 C 0.74991 0.54747 0.01844 0.0
C669 C 0.73048 0.54808 0.02913 0.0
C670 C 0.80534 0.51919 0.03816 0.0
C671 C 0.82293 0.54166 0.04592 0.0
C672 C 0.78416 0.51582 0.02757 0.0
C673 C 0.77994 0.53476 0.02588 0.0
C674 C 0.79893 0.5576 0.03 0.0
C675 C 0.8203 0.56099 0.0399 0.0
H676 H 0.28486 0.77943 0.57663 0.0
H677 H 0.2679 0.82588 0.5329 0.0
H678 H 0.25182 0.74601 0.55628 0.0
H679 H 0.23474 0.79209 0.5113 0.0
H680 H 0.16161 0.73645 0.54864 0.0
H681 H 0.19903 0.76775 0.53273 0.0
H682 H 0.22471 0.71892 0.52667 0.0
H683 H 0.18753 0.68805 0.54484 0.0
C684 C 0.27452 0.78247 0.56168 0.0
C685 C 0.27841 0.80514 0.55707 0.0
C686 C 0.25553 0.7632 0.54963 0.0
C687 C 0.23989 0.76614 0.53271 0.0
C688 C 0.24594 0.7891 0.5249 0.0
C689 C 0.26507 0.8085 0.53708 0.0
C690 C 0.1749 0.73222 0.54259 0.0
C691 C 0.17201 0.71011 0.54834 0.0
C692 C 0.19651 0.75022 0.53336 0.0
C693 C 0.21543 0.7462 0.52956 0.0
C694 C 0.21089 0.7229 0.53053 0.0
C695 C 0.1895 0.70509 0.54058 0.0
H696 H 0.82842 0.58787 0.44229 0.0
H697 H 0.80451 0.5143 0.45145 0.0
H698 H 0.79076 0.58151 0.45773 0.0
H699 H 0.76702 0.50782 0.46886 0.0
H700 H 0.70568 0.50479 0.41734 0.0
H701 H 0.73928 0.50592 0.43834 0.0
H702 H 0.7552 0.57015 0.48018 0.0
H703 H 0.72145 0.56917 0.45804 0.0
C704 C 0.81553 0.57057 0.44939 0.0
C705 C 0.81909 0.55152 0.44541 0.0
C706 C 0.79379 0.56681 0.45835 0.0
C707 C 0.77534 0.5439 0.46353 0.0
C708 C 0.7805 0.52555 0.46405 0.0
C709 C 0.80207 0.52925 0.45442 0.0
C710 C 0.71585 0.51869 0.43183 0.0
C711 C 0.71146 0.53728 0.43537 0.0
C712 C 0.73517 0.5193 0.44421 0.0
C713 C 0.75064 0.53863 0.46036 0.0
C714 C 0.7441 0.55537 0.4672 0.0
C715 C 0.72462 0.55473 0.45472 0.0
H716 H 0.20403 0.71137 0.92629 0.0
H717 H 0.15679 0.72871 0.96744 0.0
H718 H 0.23706 0.74434 0.94747 0.0
H719 H 0.19016 0.76196 0.98964 0.0
H720 H 0.24808 0.83469 0.95245 0.0
H721 H 0.21569 0.79766 0.96779 0.0
H722 H 0.26309 0.7708 0.97916 0.0
H723 H 0.29515 0.80759 0.96177 0.0
C724 C 0.20072 0.72177 0.94087 0.0
C725 C 0.17798 0.71793 0.94464 0.0
C726 C 0.21973 0.74071 0.95336 0.0
C727 C 0.21647 0.75642 0.96981 0.0
C728 C 0.19338 0.7506 0.97656 0.0
C729 C 0.17422 0.73144 0.96403 0.0
C730 C 0.25174 0.82129 0.95965 0.0
C731 C 0.27388 0.82371 0.95557 0.0
C732 C 0.23311 0.7999 0.96852 0.0
C733 C 0.23652 0.78074 0.97358 0.0
C734 C 0.25965 0.78486 0.97437 0.0
C735 C 0.27814 0.80603 0.96478 0.0
H736 H 0.40198 0.15635 0.44446 0.0
H737 H 0.47472 0.17649 0.45283 0.0
H738 H 0.4104 0.19444 0.461 0.0
H739 H 0.4833 0.21448 0.47113 0.0
H740 H 0.42615 0.26474 0.46338 0.0
H741 H 0.42374 0.23002 0.48461 0.0
H742 H 0.48628 0.24312 0.44102 0.0
H743 H 0.48888 0.2777 0.42088 0.0
C744 C 0.41954 0.16849 0.45161 0.0
C745 C 0.43776 0.16377 0.44716 0.0
C746 C 0.42448 0.19046 0.4612 0.0
C747 C 0.44779 0.20803 0.46644 0.0
C748 C 0.46529 0.20168 0.46638 0.0
C749 C 0.46039 0.17983 0.45623 0.0
C750 C 0.43994 0.26071 0.45943 0.0
C751 C 0.45727 0.27339 0.43981 0.0
C752 C 0.43847 0.2407 0.47142 0.0
C753 C 0.45427 0.23313 0.46382 0.0
C754 C 0.47361 0.24805 0.44743 0.0
C755 C 0.47504 0.26791 0.43553 0.0
H756 H 0.27347 0.44361 0.95836 0.0
H757 H 0.2888 0.5083 0.91898 0.0
H758 H 0.23857 0.44116 0.97903 0.0
H759 H 0.25396 0.5056 0.93823 0.0
H760 H 0.18645 0.49325 0.94516 0.0
H761 H 0.22383 0.50166 0.96513 0.0
H762 H 0.20383 0.42866 0.95538 0.0
H763 H 0.16617 0.42039 0.9376 0.0
C764 C 0.2699 0.45779 0.95502 0.0
C765 C 0.28328 0.4757 0.9363 0.0
C766 C 0.24974 0.45628 0.96661 0.0
C767 C 0.24265 0.47253 0.95935 0.0
C768 C 0.25836 0.49246 0.94425 0.0
C769 C 0.27844 0.49399 0.93287 0.0
C770 C 0.1897 0.4789 0.94887 0.0
C771 C 0.17375 0.45626 0.93971 0.0
C772 C 0.2112 0.48369 0.95998 0.0
C773 C 0.21748 0.46612 0.9607 0.0
C774 C 0.19998 0.44283 0.9551 0.0
C775 C 0.17826 0.43797 0.94474 0.0
H776 H 0.69791 0.21218 0.41659 0.0
H777 H 0.71543 0.16876 0.46577 0.0
H778 H 0.72951 0.24683 0.43691 0.0
H779 H 0.7471 0.20382 0.48734 0.0
H780 H 0.82077 0.26041 0.45226 0.0
H781 H 0.78338 0.2287 0.46762 0.0
H782 H 0.75485 0.27531 0.46644 0.0
H783 H 0.79202 0.30645 0.44869 0.0
C784 C 0.70803 0.21008 0.43267 0.0
C785 C 0.70478 0.18788 0.43891 0.0
C786 C 0.72618 0.23007 0.44471 0.0
C787 C 0.74161 0.22835 0.46328 0.0
C788 C 0.73608 0.20588 0.47249 0.0
C789 C 0.71779 0.18575 0.46031 0.0
C790 C 0.80681 0.26413 0.45659 0.0
C791 C 0.80896 0.28557 0.44879 0.0
C792 C 0.78521 0.24588 0.4655 0.0
C793 C 0.76557 0.24903 0.46701 0.0
C794 C 0.76925 0.27193 0.46426 0.0
C795 C 0.79063 0.28992 0.45445 0.0
H796 H 0.51769 0.6983 0.94669 0.0
H797 H 0.58994 0.75218 0.93854 0.0
H798 H 0.50836 0.72676 0.96639 0.0
H799 H 0.58078 0.78094 0.95654 0.0
H800 H 0.56392 0.83439 0.96275 0.0
H801 H 0.56713 0.80191 0.98204 0.0
H802 H 0.50437 0.75296 0.93834 0.0
H803 H 0.50094 0.7851 0.92019 0.0
C804 C 0.53175 0.71604 0.95036 0.0
C805 C 0.55446 0.72324 0.94106 0.0
C806 C 0.52643 0.73245 0.96133 0.0
C807 C 0.54357 0.75642 0.96206 0.0
C808 C 0.56698 0.76277 0.95632 0.0
C809 C 0.57234 0.74628 0.94587 0.0
C810 C 0.55024 0.81662 0.95841 0.0
C811 C 0.53263 0.81222 0.93924 0.0
C812 C 0.55217 0.79797 0.96926 0.0
C813 C 0.53659 0.77476 0.96094 0.0
C814 C 0.51692 0.77045 0.94521 0.0
C815 C 0.515 0.78899 0.93448 0.0
H816 H 0.37434 0.95644 0.95267 0.0
H817 H 0.30767 0.94672 0.97994 0.0
H818 H 0.39423 0.99516 0.97362 0.0
H819 H 0.3276 0.98507 0.00175 0.0
H820 H 0.36549 0.06313 0.01294 0.0
H821 H 0.34772 0.02554 0.98933 0.0
H822 H 0.4045 0.01534 0.01627 0.0
H823 H 0.42266 0.05327 0.039 0.0
C824 C 0.36396 0.96241 0.96355 0.0
C825 C 0.33942 0.94857 0.96456 0.0
C826 C 0.37537 0.98462 0.97558 0.0
C827 C 0.3625 0.99337 0.98909 0.0
C828 C 0.33801 0.97913 0.9909 0.0
C829 C 0.32659 0.95703 0.97866 0.0
C830 C 0.37434 0.05301 0.01346 0.0
C831 C 0.39539 0.0611 0.02796 0.0
C832 C 0.36404 0.03135 0.00018 0.0
C833 C 0.37446 0.01722 0.00131 0.0
C834 C 0.39605 0.0258 0.01484 0.0
C835 C 0.40646 0.04756 0.02792 0.0
H836 H 0.40311 0.33687 0.47753 0.0
H837 H 0.43426 0.40133 0.43122 0.0
H838 H 0.38591 0.3528 0.5087 0.0
H839 H 0.41759 0.4176 0.46304 0.0
H840 H 0.35826 0.4249 0.50426 0.0
H841 H 0.37955 0.41223 0.47439 0.0
H842 H 0.3946 0.38117 0.54364 0.0
H843 H 0.37275 0.39307 0.57313 0.0
C844 C 0.40663 0.35461 0.47427 0.0
C845 C 0.41994 0.36779 0.45182 0.0
C846 C 0.39684 0.3638 0.49224 0.0
C847 C 0.4003 0.38647 0.48832 0.0
C848 C 0.41427 0.39995 0.46636 0.0
C849 C 0.42397 0.39068 0.44827 0.0
C850 C 0.36622 0.41544 0.51305 0.0
C851 C 0.36361 0.40974 0.54095 0.0
C852 C 0.37855 0.40832 0.496 0.0
C853 C 0.38866 0.39554 0.5066 0.0
C854 C 0.38664 0.39055 0.53469 0.0
C855 C 0.37417 0.39746 0.55163 0.0
H856 H 0.01441 0.36981 0.92293 0.0
H857 H 0.06107 0.42879 0.97344 0.0
H858 H 0.98354 0.35824 0.95671 0.0
H859 H 0.02988 0.41731 0.00718 0.0
H860 H 0.97866 0.36825 0.074 0.0
H861 H 0.00935 0.38465 0.03956 0.0
H862 H 0.95748 0.3707 0.97725 0.0
H863 H 0.92662 0.35388 0.01169 0.0
C864 C 0.01804 0.38042 0.94116 0.0
C865 C 0.04023 0.40013 0.94561 0.0
C866 C 0.00026 0.37389 0.96041 0.0
C867 C 0.00428 0.3869 0.98455 0.0
C868 C 0.02636 0.40684 0.98885 0.0
C869 C 0.04417 0.41344 0.96951 0.0
C870 C 0.97379 0.36884 0.05299 0.0
C871 C 0.95019 0.35956 0.04551 0.0
C872 C 0.99141 0.3784 0.0333 0.0
C873 C 0.9858 0.37886 0.00571 0.0
C874 C 0.96228 0.37029 -0.00166 0.0
C875 C 0.94463 0.36075 0.01806 0.0
H876 H 0.61225 0.0529 0.45552 0.0
H877 H 0.68037 0.06913 0.48585 0.0
H878 H 0.59478 0.01462 0.47744 0.0
H879 H 0.66281 0.03113 0.50832 0.0
H880 H 0.63136 0.95284 0.51391 0.0
H881 H 0.64635 0.99106 0.49265 0.0
H882 H 0.58556 0.99381 0.52065 0.0
H883 H 0.57023 0.95522 0.54138 0.0
C884 C 0.62342 0.04851 0.46735 0.0
C885 C 0.64774 0.06393 0.46871 0.0
C886 C 0.6134 0.02656 0.4799 0.0
C887 C 0.62749 0.01968 0.49416 0.0
C888 C 0.65158 0.03568 0.49684 0.0
C889 C 0.66161 0.05755 0.48421 0.0
C890 C 0.62105 0.96145 0.51525 0.0
C891 C 0.5997 0.95108 0.52946 0.0
C892 C 0.62975 0.98347 0.50332 0.0
C893 C 0.61736 0.99567 0.50545 0.0
C894 C 0.59551 0.98485 0.51864 0.0
C895 C 0.58673 0.96274 0.5305 0.0
H896 H 0.64081 0.56791 -0.00063 0.0
H897 H 0.59097 0.5615 0.06107 0.0
H898 H 0.62267 0.5822 0.96694 0.0
H899 H 0.57296 0.57586 0.0286 0.0
H900 H 0.57978 0.63924 0.97661 0.0
H901 H 0.58954 0.61655 0.00788 0.0
H902 H 0.58467 0.57106 0.94152 0.0
H903 H 0.57481 0.59366 0.91015 0.0
C904 C 0.62576 0.56918 0.00587 0.0
C905 C 0.6175 0.56385 0.03285 0.0
C906 C 0.61531 0.57724 0.98727 0.0
C907 C 0.59656 0.58029 -0.0046 0.0
C908 C 0.58756 0.57388 0.02195 0.0
C909 C 0.59784 0.56558 0.04046 0.0
C910 C 0.58048 0.62421 0.96876 0.0
C911 C 0.57673 0.61835 0.9409 0.0
C912 C 0.58592 0.61115 0.98669 0.0
C913 C 0.58792 0.59212 0.97703 0.0
C914 C 0.58338 0.58575 0.94939 0.0
C915 C 0.57767 0.59865 0.93151 0.0
H916 H 0.014 0.5928 0.5751 0.0
H917 H 0.0613 0.63692 0.51191 0.0
H918 H 0.98186 0.57645 0.54214 0.0
H919 H 0.02913 0.62052 0.47905 0.0
H920 H 0.96954 0.57213 0.4225 0.0
H921 H 0.00093 0.58245 0.45561 0.0
H922 H 0.96065 0.594 0.51696 0.0
H923 H 0.9292 0.58368 0.48392 0.0
C924 C 0.01761 0.5988 0.55412 0.0
C925 C 0.04014 0.61626 0.54612 0.0
C926 C -0.00082 0.58951 0.53533 0.0
C927 C 0.00302 0.59731 0.50814 0.0
C928 C 0.02574 0.61408 0.49987 0.0
C929 C 0.04411 0.62354 0.51871 0.0
C930 C 0.96727 0.57665 0.44312 0.0
C931 C 0.94697 0.57726 0.45056 0.0
C932 C 0.98527 0.58263 0.462 0.0
C933 C 0.98321 0.58908 0.48876 0.0
C934 C 0.96259 0.58889 0.4965 0.0
C935 C 0.94467 0.58313 0.47754 0.0
H936 H 0.56778 0.94489 0.95474 0.0
H937 H 0.62748 0.93764 0.97623 0.0
H938 H 0.58539 0.98251 0.97816 0.0
H939 H 0.64473 0.97489 0.00051 0.0
H940 H 0.68211 0.05322 0.01309 0.0
H941 H 0.66299 0.01561 0.98954 0.0
H942 H 0.59605 0.00163 0.02149 0.0
H943 H 0.61509 0.03961 0.04422 0.0
C944 C 0.58446 0.95112 0.96492 0.0
C945 C 0.59633 0.93837 0.96348 0.0
C946 C 0.59455 0.9727 0.9784 0.0
C947 C 0.61663 0.98189 0.99092 0.0
C948 C 0.62798 0.96861 0.99048 0.0
C949 C 0.61798 0.94713 0.97681 0.0
C950 C 0.66328 0.04223 0.01483 0.0
C951 C 0.65013 0.04936 0.03056 0.0
C952 C 0.65234 0.02055 0.00157 0.0
C953 C 0.62802 0.00542 0.00396 0.0
C954 C 0.61478 0.01289 0.01905 0.0
C955 C 0.62571 0.03467 0.03212 0.0
H956 H 0.59053 0.57314 0.41099 0.0
H957 H 0.63612 0.57397 0.47509 0.0
H958 H 0.57149 0.58635 0.44357 0.0
H959 H 0.61702 0.58714 0.50757 0.0
H960 H 0.56587 0.5937 0.56341 0.0
H961 H 0.57779 0.57404 0.53019 0.0
H962 H 0.58608 0.62482 0.46901 0.0
H963 H 0.57418 0.64458 0.50218 0.0
C964 C 0.59629 0.57585 0.43208 0.0
C965 C 0.61494 0.57268 0.44046 0.0
C966 C 0.58545 0.5835 0.45065 0.0
C967 C 0.59285 0.58782 0.478 0.0
C968 C 0.61084 0.58374 0.48663 0.0
C969 C 0.62186 0.57634 0.46801 0.0
C970 C 0.56992 0.60051 0.54278 0.0
C971 C 0.56931 0.62084 0.53546 0.0
C972 C 0.57683 0.58929 0.52383 0.0
C973 C 0.58299 0.59802 0.49715 0.0
C974 C 0.58127 0.61765 0.48943 0.0
C975 C 0.57458 0.62902 0.50845 0.0
H976 H 0.97606 0.56772 0.07475 0.0
H977 H 0.93315 0.57029 0.00948 0.0
H978 H 0.00895 0.58093 0.04316 0.0
H979 H 0.96605 0.58343 0.97799 0.0
H980 H 0.02497 0.59043 0.92388 0.0
H981 H 0.99252 0.57039 0.95589 0.0
H982 H 0.03362 0.61991 0.01895 0.0
H983 H 0.06612 0.64006 0.98699 0.0
C984 C 0.97353 0.57077 0.05359 0.0
C985 C 0.95207 0.56814 0.04462 0.0
C986 C 0.99239 0.57842 0.03559 0.0
C987 C 0.99004 0.58328 0.00823 0.0
C988 C 0.96828 0.57963 -0.00104 0.0
C989 C 0.9495 0.57224 0.01701 0.0
C990 C 0.02723 0.59687 0.94467 0.0
C991 C 0.04803 0.61696 0.95287 0.0
C992 C 0.00861 0.58544 0.96292 0.0
C993 C 0.01055 0.59369 0.98979 0.0
C994 C 0.03174 0.61308 -0.00162 0.0
C995 C 0.05028 0.62468 0.98005 0.0
H996 H 0.37129 0.92501 0.52542 0.0
H997 H 0.33115 0.95677 0.55276 0.0
H998 H 0.39356 0.95812 0.49473 0.0
H999 H 0.35289 0.98938 0.52182 0.0
H1000 H 0.40812 0.0551 0.48377 0.0
H1001 H 0.39157 0.02291 0.51635 0.0
H1002 H 0.38832 0.97542 0.45324 0.0
H1003 H 0.40551 0.00778 0.42081 0.0
C1004 C 0.36712 0.93896 0.52475 0.0
C1005 C 0.3495 0.93831 0.54154 0.0
C1006 C 0.37985 0.95789 0.50716 0.0
C1007 C 0.37516 0.97649 0.50606 0.0
C1008 C 0.35733 0.97561 0.52264 0.0
C1009 C 0.34469 0.95679 0.5402 0.0
C1010 C 0.4042 0.03787 0.47695 0.0
C1011 C 0.40784 0.03391 0.44965 0.0
C1012 C 0.39457 0.01939 0.49556 0.0
C1013 C 0.38822 0.99653 0.48724 0.0
C1014 C 0.39309 0.99283 0.46032 0.0
C1015 C 0.40288 0.01137 0.44171 0.0
H1016 H 0.38106 0.37598 0.0692 0.0
H1017 H 0.42563 0.36848 0.01007 0.0
H1018 H 0.3698 0.39529 0.03509 0.0
H1019 H 0.41458 0.38826 0.97591 0.0
H1020 H 0.36052 0.3905 0.91689 0.0
H1021 H 0.37829 0.37726 0.95078 0.0
H1022 H 0.38373 0.4305 0.00684 0.0
H1023 H 0.3655 0.44359 0.97293 0.0
C1024 C 0.38868 0.3787 0.04899 0.0
C1025 C 0.40405 0.37047 0.04223 0.0
C1026 C 0.38237 0.38997 0.0295 0.0
C1027 C 0.39124 0.39323 0.0028 0.0
C1028 C 0.40725 0.38573 -0.00374 0.0
C1029 C 0.41364 0.37449 0.01583 0.0
C1030 C 0.36562 0.39951 0.93636 0.0
C1031 C 0.3614 0.41795 0.94233 0.0
C1032 C 0.37602 0.39205 0.9557 0.0
C1033 C 0.38241 0.40283 0.98147 0.0
C1034 C 0.37877 0.4217 0.98722 0.0
C1035 C 0.36839 0.42923 0.96781 0.0
H1036 H 0.04187 0.42178 0.53585 0.0
H1037 H 0.05003 0.36559 0.50218 0.0
H1038 H 0.00357 0.40543 0.51419 0.0
H1039 H 0.01209 0.34966 0.4798 0.0
H1040 H 0.93331 0.31085 0.47293 0.0
H1041 H 0.97189 0.3294 0.49407 0.0
H1042 H 0.98256 0.39753 0.47175 0.0
H1043 H 0.9436 0.37897 0.4513 0.0
C1044 C 0.03571 0.40621 0.52335 0.0
C1045 C 0.04888 0.39484 0.52093 0.0
C1046 C 0.01374 0.39684 0.51091 0.0
C1047 C 0.00458 0.37601 0.49564 0.0
C1048 C 0.01835 0.36538 0.49205 0.0
C1049 C 0.04021 0.37464 0.50463 0.0
C1050 C 0.94378 0.3298 0.47279 0.0
C1051 C 0.93544 0.34343 0.46036 0.0
C1052 C 0.96601 0.34043 0.48465 0.0
C1053 C 0.9805 0.36494 0.48417 0.0
C1054 C 0.97183 0.37863 0.47256 0.0
C1055 C 0.94949 0.36798 0.46085 0.0
H1056 H 0.49548 0.10782 0.07622 0.0
H1057 H 0.52073 0.14768 0.15108 0.0
H1058 H 0.53173 0.10617 0.07283 0.0
H1059 H 0.55628 0.1455 0.14805 0.0
H1060 H 0.62759 0.16373 0.1198 0.0
H1061 H 0.5905 0.16304 0.11957 0.0
H1062 H 0.55512 0.09045 0.09432 0.0
H1063 H 0.59277 0.09131 0.09385 0.0
C1064 C 0.50862 0.11602 0.09205 0.0
C1065 C 0.50535 0.12816 0.11371 0.0
C1066 C 0.52932 0.11499 0.09015 0.0
C1067 C 0.54704 0.12603 0.10993 0.0
C1068 C 0.54328 0.13736 0.13207 0.0
C1069 C 0.52279 0.13851 0.13386 0.0
C1070 C 0.61196 0.14759 0.1141 0.0
C1071 C 0.6131 0.12747 0.1072 0.0
C1072 C 0.59064 0.14717 0.1141 0.0
C1073 C 0.56977 0.12656 0.10747 0.0
C1074 C 0.57091 0.10661 0.09951 0.0
C1075 C 0.59243 0.10708 0.09931 0.0
H1076 H 0.47506 0.62667 0.64531 0.0
H1077 H 0.50076 0.60873 0.57324 0.0
H1078 H 0.43763 0.59077 0.64039 0.0
H1079 H 0.46295 0.57304 0.56788 0.0
H1080 H 0.36605 0.54012 0.60836 0.0
H1081 H 0.40429 0.57523 0.6108 0.0
H1082 H 0.43704 0.53497 0.58769 0.0
H1083 H 0.39848 0.49973 0.58448 0.0
C1084 C 0.47272 0.61511 0.62836 0.0
C1085 C 0.4909 0.62069 0.6096 0.0
C1086 C 0.45118 0.59457 0.62542 0.0
C1087 C 0.44716 0.57915 0.60352 0.0
C1088 C 0.46549 0.58445 0.58507 0.0
C1089 C 0.48714 0.60497 0.5881 0.0
C1090 C 0.38136 0.53873 0.6036 0.0
C1091 C 0.37921 0.51707 0.59642 0.0
C1092 C 0.40334 0.55887 0.60521 0.0
C1093 C 0.42378 0.55787 0.59991 0.0
C1094 C 0.42163 0.53637 0.59179 0.0
C1095 C 0.39955 0.51617 0.58998 0.0
H1096 H 0.89407 0.39311 0.09073 0.0
H1097 H 0.8209 0.35932 0.11296 0.0
H1098 H 0.89602 0.43105 0.09119 0.0
H1099 H 0.82256 0.39703 0.11238 0.0
H1100 H 0.88684 0.49411 0.07381 0.0
H1101 H 0.88433 0.45603 0.06969 0.0
H1102 H 0.83815 0.43117 0.13964 0.0
H1103 H 0.83995 0.46881 0.14308 0.0
C1104 C 0.8783 0.39373 0.09524 0.0
C1105 C 0.85739 0.37323 0.10206 0.0
C1106 C 0.87938 0.4155 0.09542 0.0
C1107 C 0.85951 0.41719 0.10214 0.0
C1108 C 0.83837 0.3965 0.10781 0.0
C1109 C 0.83736 0.37482 0.10794 0.0
C1110 C 0.87613 0.48049 0.08829 0.0
C1111 C 0.86352 0.4845 0.10872 0.0
C1112 C 0.87477 0.45867 0.086 0.0
C1113 C 0.86093 0.44042 0.10423 0.0
C1114 C 0.84856 0.44459 0.12483 0.0
C1115 C 0.84973 0.46629 0.12695 0.0
H1116 H 0.36787 0.82413 0.63146 0.0
H1117 H 0.39722 0.89398 0.59825 0.0
H1118 H 0.40605 0.82709 0.62912 0.0
H1119 H 0.43583 0.89738 0.59698 0.0
H1120 H 0.4979 0.88701 0.57563 0.0
H1121 H 0.45949 0.88416 0.57525 0.0
H1122 H 0.44243 0.84604 0.65153 0.0
H1123 H 0.4802 0.84805 0.65126 0.0
C1124 C 0.38254 0.84022 0.62384 0.0
C1125 C 0.37953 0.85887 0.61518 0.0
C1126 C 0.40451 0.84198 0.62264 0.0
C1127 C 0.42415 0.86259 0.61316 0.0
C1128 C 0.42108 0.88116 0.60413 0.0
C1129 C 0.39896 0.87926 0.60499 0.0
C1130 C 0.4859 0.87803 0.59228 0.0
C1131 C 0.49202 0.86759 0.61334 0.0
C1132 C 0.46392 0.87649 0.59215 0.0
C1133 C 0.44773 0.8647 0.61325 0.0
C1134 C 0.45416 0.85473 0.63457 0.0
C1135 C 0.47592 0.85601 0.63451 0.0
H1136 H 0.59756 0.50076 0.09047 0.0
H1137 H 0.62903 0.46369 0.12782 0.0
H1138 H 0.55954 0.46497 0.09092 0.0
H1139 H 0.59136 0.42768 0.12709 0.0
H1140 H 0.51755 0.37316 0.14941 0.0
H1141 H 0.5549 0.40943 0.14874 0.0
H1142 H 0.53666 0.42759 0.07121 0.0
H1143 H 0.4987 0.39166 0.07263 0.0
C1144 C 0.59639 0.48489 0.0985 0.0
C1145 C 0.61627 0.48509 0.10927 0.0
C1146 C 0.5746 0.4643 0.09861 0.0
C1147 C 0.57225 0.44335 0.10915 0.0
C1148 C 0.59231 0.44354 0.1194 0.0
C1149 C 0.61399 0.46418 0.11967 0.0
C1150 C 0.5215 0.3849 0.13222 0.0
C1151 C 0.50518 0.3795 0.11103 0.0
C1152 C 0.54303 0.40568 0.13172 0.0
C1153 C 0.549 0.42145 0.1098 0.0
C1154 C 0.5326 0.41606 0.08862 0.0
C1155 C 0.51087 0.39539 0.08933 0.0
H1156 H 0.10255 0.49316 0.57314 0.0
H1157 H 0.14162 0.51374 0.64884 0.0
H1158 H 0.10264 0.53031 0.57231 0.0
H1159 H 0.14103 0.55027 0.64848 0.0
H1160 H 0.16064 0.62364 0.62528 0.0
H1161 H 0.15906 0.58609 0.62391 0.0
H1162 H 0.08776 0.55319 0.59431 0.0
H1163 H 0.08962 0.59122 0.59483 0.0
C1164 C 0.11094 0.50549 0.58973 0.0
C1165 C 0.1223 0.50059 0.61091 0.0
C1166 C 0.1109 0.52673 0.58931 0.0
C1167 C 0.12208 0.54341 0.61016 0.0
C1168 C 0.13278 0.53812 0.63172 0.0
C1169 C 0.133 0.51707 0.632 0.0
C1170 C 0.14459 0.60844 0.61844 0.0
C1171 C 0.12518 0.61042 0.61037 0.0
C1172 C 0.14364 0.58683 0.6178 0.0
C1173 C 0.12316 0.56651 0.60939 0.0
C1174 C 0.10385 0.56851 0.60075 0.0
C1175 C 0.10488 0.59028 0.60115 0.0
H1176 H 0.89799 0.50931 0.40089 0.0
H1177 H 0.82591 0.47258 0.37378 0.0
H1178 H 0.89819 0.47227 0.4016 0.0
H1179 H 0.82583 0.43574 0.37543 0.0
H1180 H 0.84021 0.37961 0.34725 0.0
H1181 H 0.84224 0.41731 0.34901 0.0
H1182 H 0.88293 0.43422 0.42341 0.0
H1183 H 0.88153 0.39638 0.42111 0.0
C1184 C 0.88212 0.49331 0.39542 0.0
C1185 C 0.86204 0.49391 0.3869 0.0
C1186 C 0.88221 0.47209 0.39594 0.0
C1187 C 0.86214 0.45108 0.38816 0.0
C1188 C 0.84181 0.45166 0.3808 0.0
C1189 C 0.84181 0.4728 0.37999 0.0
C1190 C 0.84962 0.39131 0.36402 0.0
C1191 C 0.86051 0.38488 0.3842 0.0
C1192 C 0.85067 0.41293 0.36512 0.0
C1193 C 0.86237 0.42865 0.38663 0.0
C1194 C 0.87383 0.42254 0.40652 0.0
C1195 C 0.87297 0.40086 0.40525 0.0
H1196 H 0.49495 0.88982 0.91986 0.0
H1197 H 0.46513 0.8439 0.8501 0.0
H1198 H 0.45839 0.89056 0.92556 0.0
H1199 H 0.42922 0.84511 0.85541 0.0
H1200 H 0.35979 0.82874 0.88767 0.0
H1201 H 0.39703 0.82964 0.88711 0.0
H1202 H 0.43314 0.904 0.90388 0.0
H1203 H 0.39546 0.90298 0.90518 0.0
C1204 C 0.48072 0.88005 0.90565 0.0
C1205 C 0.48289 0.86658 0.88472 0.0
C1206 C 0.45982 0.88054 0.90888 0.0
C1207 C 0.44078 0.86761 0.89121 0.0
C1208 C 0.44331 0.85477 0.86984 0.0
C1209 C 0.46401 0.85419 0.8667 0.0
C1210 C 0.37562 0.84529 0.89144 0.0
C1211 C 0.3747 0.86586 0.89609 0.0
C1212 C 0.39701 0.84582 0.89098 0.0
C1213 C 0.41809 0.86698 0.89486 0.0
C1214 C 0.41718 0.88741 0.90083 0.0
C1215 C 0.39563 0.88685 0.90152 0.0
H1216 H 0.49069 0.39478 0.39654 0.0
H1217 H 0.53056 0.3632 0.36771 0.0
H1218 H 0.52603 0.43343 0.39483 0.0
H1219 H 0.56577 0.40138 0.36694 0.0
H1220 H 0.61743 0.47255 0.33589 0.0
H1221 H 0.58111 0.43551 0.33945 0.0
H1222 H 0.56442 0.45885 0.41435 0.0
H1223 H 0.60066 0.49652 0.41023 0.0
C1224 C 0.50704 0.39606 0.39023 0.0
C1225 C 0.50779 0.37599 0.38192 0.0
C1226 C 0.5273 0.41817 0.38931 0.0
C1227 C 0.54867 0.42057 0.3803 0.0
C1228 C 0.54949 0.4003 0.3732 0.0
C1229 C 0.52931 0.37835 0.37382 0.0
C1230 C 0.60602 0.46987 0.3531 0.0
C1231 C 0.61206 0.48741 0.37292 0.0
C1232 C 0.58522 0.44853 0.35525 0.0
C1233 C 0.57002 0.444 0.37747 0.0
C1234 C 0.57569 0.46178 0.39693 0.0
C1235 C 0.59649 0.48333 0.39462 0.0
H1236 H 0.10704 0.50005 0.9145 0.0
H1237 H 0.14631 0.52247 0.83915 0.0
H1238 H 0.10788 0.5375 0.91753 0.0
H1239 H 0.14632 0.55924 0.84149 0.0
H1240 H 0.09492 0.59871 0.8992 0.0
H1241 H 0.09338 0.56093 0.89808 0.0
H1242 H 0.16391 0.59465 0.86594 0.0
H1243 H 0.165 0.63205 0.86597 0.0
C1244 C 0.11563 0.51287 0.89845 0.0
C1245 C 0.12679 0.50838 0.87672 0.0
C1246 C 0.11604 0.5343 0.90011 0.0
C1247 C 0.12739 0.55156 0.8799 0.0
C1248 C 0.13797 0.5467 0.85783 0.0
C1249 C 0.13782 0.52549 0.85638 0.0
C1250 C 0.1101 0.59802 0.89197 0.0
C1251 C 0.13 0.61834 0.88242 0.0
C1252 C 0.10927 0.57637 0.89145 0.0
C1253 C 0.12843 0.57464 0.88166 0.0
C1254 C 0.14858 0.59516 0.87294 0.0
C1255 C 0.14928 0.61668 0.87311 0.0
H1256 H 0.60966 0.14759 0.33936 0.0
H1257 H 0.59506 0.11034 0.41603 0.0
H1258 H 0.57137 0.14447 0.34066 0.0
H1259 H 0.5569 0.10794 0.41784 0.0
H1260 H 0.48108 0.08878 0.39829 0.0
H1261 H 0.51877 0.09014 0.39736 0.0
H1262 H 0.55135 0.16041 0.3646 0.0
H1263 H 0.51369 0.15873 0.36461 0.0
C1264 C 0.59832 0.13885 0.35661 0.0
C1265 C 0.60549 0.12932 0.37766 0.0
C1266 C 0.57638 0.13718 0.35745 0.0
C1267 C 0.56109 0.12617 0.37951 0.0
C1268 C 0.56812 0.11634 0.40041 0.0
C1269 C 0.59004 0.11781 0.39944 0.0
C1270 C 0.49632 0.10453 0.39094 0.0
C1271 C 0.49434 0.12358 0.38134 0.0
C1272 C 0.51796 0.10535 0.39053 0.0
C1273 C 0.53811 0.12532 0.38071 0.0
C1274 C 0.53613 0.14453 0.3717 0.0
C1275 C 0.51452 0.14362 0.37186 0.0
H1276 H 0.48555 0.63636 0.83748 0.0
H1277 H 0.50602 0.61373 0.91008 0.0
H1278 H 0.44731 0.60118 0.83882 0.0
H1279 H 0.46726 0.57884 0.91211 0.0
H1280 H 0.40288 0.50767 0.89083 0.0
H1281 H 0.44188 0.54231 0.89064 0.0
H1282 H 0.41212 0.58442 0.86384 0.0
H1283 H 0.37345 0.54974 0.86295 0.0
C1284 C 0.48182 0.62394 0.85388 0.0
C1285 C 0.49881 0.62791 0.87374 0.0
C1286 C 0.45979 0.60381 0.85477 0.0
C1287 C 0.45404 0.58724 0.87576 0.0
C1288 C 0.47114 0.59108 0.89549 0.0
C1289 C 0.49333 0.61114 0.89441 0.0
C1290 C 0.4047 0.52437 0.88503 0.0
C1291 C 0.38512 0.52594 0.87668 0.0
C1292 C 0.42705 0.54426 0.88502 0.0
C1293 C 0.43023 0.56617 0.87696 0.0
C1294 C 0.41047 0.56777 0.86948 0.0
C1295 C 0.38823 0.54789 0.86915 0.0
loop_
_geom_bond_atom_site_label_1
_geom_bond_atom_site_label_2
_geom_bond_distance
_geom_bond_site_symmetry_2
_ccdc_geom_bond_type
Mg0 O1 2.028 . S
Mg0 O7 1.986 . S
Mg0 O9 2.114 . S
Mg0 O10 2.251 . S
Mg0 O13 2.010 . S
O1 Mg0 2.028 . S
O1 C4 1.250 . S
O2 Mg3 2.028 . S
O2 C4 1.248 . S
Mg3 O2 2.028 . S
Mg3 O8 2.032 . S
Mg3 O10 2.079 . S
C4 O1 1.250 . S
C4 O2 1.248 . S
C5 O6 1.264 . S
C5 O13 1.249 . S
O6 C5 1.264 . S
O7 Mg0 1.986 . S
O7 C11 1.246 . S
O8 Mg3 2.032 . S
O8 C11 1.259 . S
O9 Mg0 2.114 . S
O9 C12 1.252 . S
O10 Mg0 2.251 . S
O10 Mg3 2.079 . S
O10 C12 1.273 . S
C11 O7 1.246 . S
C11 O8 1.259 . S
C12 O9 1.252 . S
C12 O10 1.273 . S
O13 Mg0 2.010 . S
O13 C5 1.249 . S
Mg14 O15 2.028 . S
Mg14 O21 1.986 . S
Mg14 O23 2.114 . S
Mg14 O24 2.251 . S
Mg14 O27 2.010 . S
O15 Mg14 2.028 . S
O15 C18 1.250 . S
O16 Mg17 2.028 . S
O16 C18 1.248 . S
Mg17 O16 2.028 . S
Mg17 O22 2.032 . S
Mg17 O24 2.079 . S
C18 O15 1.250 . S
C18 O16 1.248 . S
C19 O20 1.264 . S
C19 O27 1.249 . S
O20 C19 1.264 . S
O21 Mg14 1.986 . S
O21 C25 1.246 . S
O22 Mg17 2.032 . S
O22 C25 1.259 . S
O23 Mg14 2.114 . S
O23 C26 1.252 . S
O24 Mg14 2.251 . S
O24 Mg17 2.079 . S
O24 C26 1.273 . S
C25 O21 1.246 . S
C25 O22 1.259 . S
C26 O23 1.252 . S
C26 O24 1.273 . S
O27 Mg14 2.010 . S
O27 C19 1.249 . S
Mg28 O29 2.028 . S
Mg28 O35 1.986 . S
Mg28 O37 2.114 . S
Mg28 O38 2.251 . S
Mg28 O41 2.010 . S
O29 Mg28 2.028 . S
O29 C32 1.250 . S
O30 Mg31 2.028 . S
O30 C32 1.248 . S
Mg31 O30 2.028 . S
Mg31 O36 2.032 . S
Mg31 O38 2.079 . S
C32 O29 1.250 . S
C32 O30 1.248 . S
C33 O34 1.264 . S
C33 O41 1.249 . S
O34 C33 1.264 . S
O35 Mg28 1.986 . S
O35 C39 1.246 . S
O36 Mg31 2.032 . S
O36 C39 1.259 . S
O37 Mg28 2.114 . S
O37 C40 1.252 . S
O38 Mg28 2.251 . S
O38 Mg31 2.079 . S
O38 C40 1.273 . S
C39 O35 1.246 . S
C39 O36 1.259 . S
C40 O37 1.252 . S
C40 O38 1.273 . S
O41 Mg28 2.010 . S
O41 C33 1.249 . S
Mg42 O43 2.028 . S
Mg42 O49 1.986 . S
Mg42 O51 2.114 . S
Mg42 O52 2.251 . S
Mg42 O55 2.010 . S
O43 Mg42 2.028 . S
O43 C46 1.250 . S
O44 Mg45 2.028 . S
O44 C46 1.248 . S
Mg45 O44 2.028 . S
Mg45 O50 2.032 . S
Mg45 O52 2.079 . S
C46 O43 1.250 . S
C46 O44 1.248 . S
C47 O48 1.264 . S
C47 O55 1.249 . S
O48 C47 1.264 . S
O49 Mg42 1.986 . S
O49 C53 1.246 . S
O50 Mg45 2.032 . S
O50 C53 1.259 . S
O51 Mg42 2.114 . S
O51 C54 1.252 . S
O52 Mg42 2.251 . S
O52 Mg45 2.079 . S
O52 C54 1.273 . S
C53 O49 1.246 . S
C53 O50 1.259 . S
C54 O51 1.252 . S
C54 O52 1.273 . S
O55 Mg42 2.010 . S
O55 C47 1.249 . S
Mg56 O57 2.028 . S
Mg56 O63 1.986 . S
Mg56 O65 2.114 . S
Mg56 O66 2.251 . S
Mg56 O69 2.010 . S
O57 Mg56 2.028 . S
O57 C60 1.250 . S
O58 Mg59 2.028 . S
O58 C60 1.248 . S
Mg59 O58 2.028 . S
Mg59 O64 2.032 . S
Mg59 O66 2.079 . S
C60 O57 1.250 . S
C60 O58 1.248 . S
C61 O62 1.264 . S
C61 O69 1.249 . S
O62 C61 1.264 . S
O63 Mg56 1.986 . S
O63 C67 1.246 . S
O64 Mg59 2.032 . S
O64 C67 1.259 . S
O65 Mg56 2.114 . S
O65 C68 1.252 . S
O66 Mg56 2.251 . S
O66 Mg59 2.079 . S
O66 C68 1.273 . S
C67 O63 1.246 . S
C67 O64 1.259 . S
C68 O65 1.252 . S
C68 O66 1.273 . S
O69 Mg56 2.010 . S
O69 C61 1.249 . S
Mg70 O71 2.028 . S
Mg70 O77 1.986 . S
Mg70 O79 2.114 . S
Mg70 O80 2.251 . S
Mg70 O83 2.010 . S
O71 Mg70 2.028 . S
O71 C74 1.250 . S
O72 Mg73 2.028 . S
O72 C74 1.248 . S
Mg73 O72 2.028 . S
Mg73 O78 2.032 . S
Mg73 O80 2.079 . S
C74 O71 1.250 . S
C74 O72 1.248 . S
C75 O76 1.264 . S
C75 O83 1.249 . S
O76 C75 1.264 . S
O77 Mg70 1.986 . S
O77 C81 1.246 . S
O78 Mg73 2.032 . S
O78 C81 1.259 . S
O79 Mg70 2.114 . S
O79 C82 1.252 . S
O80 Mg70 2.251 . S
O80 Mg73 2.079 . S
O80 C82 1.273 . S
C81 O77 1.246 . S
C81 O78 1.259 . S
C82 O79 1.252 . S
C82 O80 1.273 . S
O83 Mg70 2.010 . S
O83 C75 1.249 . S
Mg84 O85 2.028 . S
Mg84 O91 1.986 . S
Mg84 O93 2.114 . S
Mg84 O94 2.251 . S
Mg84 O97 2.010 . S
O85 Mg84 2.028 . S
O85 C88 1.250 . S
O86 Mg87 2.028 . S
O86 C88 1.248 . S
Mg87 O86 2.028 . S
Mg87 O92 2.032 . S
Mg87 O94 2.079 . S
C88 O85 1.250 . S
C88 O86 1.248 . S
C89 O90 1.264 . S
C89 O97 1.249 . S
O90 C89 1.264 . S
O91 Mg84 1.986 . S
O91 C95 1.246 . S
O92 Mg87 2.032 . S
O92 C95 1.259 . S
O93 Mg84 2.114 . S
O93 C96 1.252 . S
O94 Mg84 2.251 . S
O94 Mg87 2.079 . S
O94 C96 1.273 . S
C95 O91 1.246 . S
C95 O92 1.259 . S
C96 O93 1.252 . S
C96 O94 1.273 . S
O97 Mg84 2.010 . S
O97 C89 1.249 . S
Mg98 O99 2.028 . S
Mg98 O105 1.986 . S
Mg98 O107 2.114 . S
Mg98 O108 2.251 . S
Mg98 O111 2.010 . S
O99 Mg98 2.028 . S
O99 C102 1.250 . S
O100 Mg101 2.028 . S
O100 C102 1.248 . S
Mg101 O100 2.028 . S
Mg101 O106 2.032 . S
Mg101 O108 2.079 . S
C102 O99 1.250 . S
C102 O100 1.248 . S
C103 O104 1.264 . S
C103 O111 1.249 . S
O104 C103 1.264 . S
O105 Mg98 1.986 . S
O105 C109 1.246 . S
O106 Mg101 2.032 . S
O106 C109 1.259 . S
O107 Mg98 2.114 . S
O107 C110 1.252 . S
O108 Mg98 2.251 . S
O108 Mg101 2.079 . S
O108 C110 1.273 . S
C109 O105 1.246 . S
C109 O106 1.259 . S
C110 O107 1.252 . S
C110 O108 1.273 . S
O111 Mg98 2.010 . S
O111 C103 1.249 . S
Mg112 O113 2.028 . S
Mg112 O119 1.986 . S
Mg112 O121 2.114 . S
Mg112 O122 2.251 . S
Mg112 O125 2.010 . S
O113 Mg112 2.028 . S
O113 C116 1.250 . S
O114 Mg115 2.028 . S
O114 C116 1.248 . S
Mg115 O114 2.028 . S
Mg115 O120 2.032 . S
Mg115 O122 2.079 . S
C116 O113 1.250 . S
C116 O114 1.248 . S
C117 O118 1.264 . S
C117 O125 1.249 . S
O118 C117 1.264 . S
O119 Mg112 1.986 . S
O119 C123 1.246 . S
O120 Mg115 2.032 . S
O120 C123 1.259 . S
O121 Mg112 2.114 . S
O121 C124 1.252 . S
O122 Mg112 2.251 . S
O122 Mg115 2.079 . S
O122 C124 1.273 . S
C123 O119 1.246 . S
C123 O120 1.259 . S
C124 O121 1.252 . S
C124 O122 1.273 . S
O125 Mg112 2.010 . S
O125 C117 1.249 . S
Mg126 O127 2.028 . S
Mg126 O133 1.986 . S
Mg126 O135 2.114 . S
Mg126 O136 2.251 . S
Mg126 O139 2.010 . S
O127 Mg126 2.028 . S
O127 C130 1.250 . S
O128 Mg129 2.028 . S
O128 C130 1.248 . S
Mg129 O128 2.028 . S
Mg129 O134 2.032 . S
Mg129 O136 2.079 . S
C130 O127 1.250 . S
C130 O128 1.248 . S
C131 O132 1.264 . S
C131 O139 1.249 . S
O132 C131 1.264 . S
O133 Mg126 1.986 . S
O133 C137 1.246 . S
O134 Mg129 2.032 . S
O134 C137 1.259 . S
O135 Mg126 2.114 . S
O135 C138 1.252 . S
O136 Mg126 2.251 . S
O136 Mg129 2.079 . S
O136 C138 1.273 . S
C137 O133 1.246 . S
C137 O134 1.259 . S
C138 O135 1.252 . S
C138 O136 1.273 . S
O139 Mg126 2.010 . S
O139 C131 1.249 . S
Mg140 O141 2.028 . S
Mg140 O147 1.986 . S
Mg140 O149 2.114 . S
Mg140 O150 2.251 . S
Mg140 O153 2.010 . S
O141 Mg140 2.028 . S
O141 C144 1.250 . S
O142 Mg143 2.028 . S
O142 C144 1.248 . S
Mg143 O142 2.028 . S
Mg143 O148 2.032 . S
Mg143 O150 2.079 . S
C144 O141 1.250 . S
C144 O142 1.248 . S
C145 O146 1.264 . S
C145 O153 1.249 . S
O146 C145 1.264 . S
O147 Mg140 1.986 . S
O147 C151 1.246 . S
O148 Mg143 2.032 . S
O148 C151 1.259 . S
O149 Mg140 2.114 . S
O149 C152 1.252 . S
O150 Mg140 2.251 . S
O150 Mg143 2.079 . S
O150 C152 1.273 . S
C151 O147 1.246 . S
C151 O148 1.259 . S
C152 O149 1.252 . S
C152 O150 1.273 . S
O153 Mg140 2.010 . S
O153 C145 1.249 . S
Mg154 O155 2.028 . S
Mg154 O161 1.986 . S
Mg154 O163 2.114 . S
Mg154 O164 2.251 . S
Mg154 O167 2.010 . S
O155 Mg154 2.028 . S
O155 C158 1.250 . S
O156 Mg157 2.028 . S
O156 C158 1.248 . S
Mg157 O156 2.028 . S
Mg157 O162 2.032 . S
Mg157 O164 2.079 . S
C158 O155 1.250 . S
C158 O156 1.248 . S
C159 O160 1.264 . S
C159 O167 1.249 . S
O160 C159 1.264 . S
O161 Mg154 1.986 . S
O161 C165 1.246 . S
O162 Mg157 2.032 . S
O162 C165 1.259 . S
O163 Mg154 2.114 . S
O163 C166 1.252 . S
O164 Mg154 2.251 . S
O164 Mg157 2.079 . S
O164 C166 1.273 . S
C165 O161 1.246 . S
C165 O162 1.259 . S
C166 O163 1.252 . S
C166 O164 1.273 . S
O167 Mg154 2.010 . S
O167 C159 1.249 . S
Mg168 O169 2.028 . S
Mg168 O175 1.986 . S
Mg168 O177 2.114 . S
Mg168 O178 2.251 . S
Mg168 O181 2.010 . S
O169 Mg168 2.028 . S
O169 C172 1.250 . S
O170 Mg171 2.028 . S
O170 C172 1.248 . S
Mg171 O170 2.028 . S
Mg171 O176 2.032 . S
Mg171 O178 2.079 . S
C172 O169 1.250 . S
C172 O170 1.248 . S
C173 O174 1.264 . S
C173 O181 1.249 . S
O174 C173 1.264 . S
O175 Mg168 1.986 . S
O175 C179 1.246 . S
O176 Mg171 2.032 . S
O176 C179 1.259 . S
O177 Mg168 2.114 . S
O177 C180 1.252 . S
O178 Mg168 2.251 . S
O178 Mg171 2.079 . S
O178 C180 1.273 . S
C179 O175 1.246 . S
C179 O176 1.259 . S
C180 O177 1.252 . S
C180 O178 1.273 . S
O181 Mg168 2.010 . S
O181 C173 1.249 . S
Mg182 O183 2.028 . S
Mg182 O189 1.986 . S
Mg182 O191 2.114 . S
Mg182 O192 2.251 . S
Mg182 O195 2.010 . S
O183 Mg182 2.028 . S
O183 C186 1.250 . S
O184 Mg185 2.028 . S
O184 C186 1.248 . S
Mg185 O184 2.028 . S
Mg185 O190 2.032 . S
Mg185 O192 2.079 . S
C186 O183 1.250 . S
C186 O184 1.248 . S
C187 O188 1.264 . S
C187 O195 1.249 . S
O188 C187 1.264 . S
O189 Mg182 1.986 . S
O189 C193 1.246 . S
O190 Mg185 2.032 . S
O190 C193 1.259 . S
O191 Mg182 2.114 . S
O191 C194 1.252 . S
O192 Mg182 2.251 . S
O192 Mg185 2.079 . S
O192 C194 1.273 . S
C193 O189 1.246 . S
C193 O190 1.259 . S
C194 O191 1.252 . S
C194 O192 1.273 . S
O195 Mg182 2.010 . S
O195 C187 1.249 . S
Mg196 O197 2.028 . S
Mg196 O203 1.986 . S
Mg196 O205 2.114 . S
Mg196 O206 2.251 . S
Mg196 O209 2.010 . S
O197 Mg196 2.028 . S
O197 C200 1.250 . S
O198 Mg199 2.028 . S
O198 C200 1.248 . S
Mg199 O198 2.028 . S
Mg199 O204 2.032 . S
Mg199 O206 2.079 . S
C200 O197 1.250 . S
C200 O198 1.248 . S
C201 O202 1.264 . S
C201 O209 1.249 . S
O202 C201 1.264 . S
O203 Mg196 1.986 . S
O203 C207 1.246 . S
O204 Mg199 2.032 . S
O204 C207 1.259 . S
O205 Mg196 2.114 . S
O205 C208 1.252 . S
O206 Mg196 2.251 . S
O206 Mg199 2.079 . S
O206 C208 1.273 . S
C207 O203 1.246 . S
C207 O204 1.259 . S
C208 O205 1.252 . S
C208 O206 1.273 . S
O209 Mg196 2.010 . S
O209 C201 1.249 . S
Mg210 O211 2.028 . S
Mg210 O217 1.986 . S
Mg210 O219 2.114 . S
Mg210 O220 2.251 . S
Mg210 O223 2.010 . S
O211 Mg210 2.028 . S
O211 C214 1.250 . S
O212 Mg213 2.028 . S
O212 C214 1.248 . S
Mg213 O212 2.028 . S
Mg213 O218 2.032 . S
Mg213 O220 2.079 . S
C214 O211 1.250 . S
C214 O212 1.248 . S
C215 O216 1.264 . S
C215 O223 1.249 . S
O216 C215 1.264 . S
O217 Mg210 1.986 . S
O217 C221 1.246 . S
O218 Mg213 2.032 . S
O218 C221 1.259 . S
O219 Mg210 2.114 . S
O219 C222 1.252 . S
O220 Mg210 2.251 . S
O220 Mg213 2.079 . S
O220 C222 1.273 . S
C221 O217 1.246 . S
C221 O218 1.259 . S
C222 O219 1.252 . S
C222 O220 1.273 . S
O223 Mg210 2.010 . S
O223 C215 1.249 . S
Mg224 O225 2.028 . S
Mg224 O231 1.986 . S
Mg224 O233 2.114 . S
Mg224 O234 2.251 . S
Mg224 O237 2.010 . S
O225 Mg224 2.028 . S
O225 C228 1.250 . S
O226 Mg227 2.028 . S
O226 C228 1.248 . S
Mg227 O226 2.028 . S
Mg227 O232 2.032 . S
Mg227 O234 2.079 . S
C228 O225 1.250 . S
C228 O226 1.248 . S
C229 O230 1.264 . S
C229 O237 1.249 . S
O230 C229 1.264 . S
O231 Mg224 1.986 . S
O231 C235 1.246 . S
O232 Mg227 2.032 . S
O232 C235 1.259 . S
O233 Mg224 2.114 . S
O233 C236 1.252 . S
O234 Mg224 2.251 . S
O234 Mg227 2.079 . S
O234 C236 1.273 . S
C235 O231 1.246 . S
C235 O232 1.259 . S
C236 O233 1.252 . S
C236 O234 1.273 . S
O237 Mg224 2.010 . S
O237 C229 1.249 . S
Mg238 O239 2.028 . S
Mg238 O245 1.986 . S
Mg238 O247 2.114 . S
Mg238 O248 2.251 . S
Mg238 O251 2.010 . S
O239 Mg238 2.028 . S
O239 C242 1.250 . S
O240 Mg241 2.028 . S
O240 C242 1.248 . S
Mg241 O240 2.028 . S
Mg241 O246 2.032 . S
Mg241 O248 2.079 . S
C242 O239 1.250 . S
C242 O240 1.248 . S
C243 O244 1.264 . S
C243 O251 1.249 . S
O244 C243 1.264 . S
O245 Mg238 1.986 . S
O245 C249 1.246 . S
O246 Mg241 2.032 . S
O246 C249 1.259 . S
O247 Mg238 2.114 . S
O247 C250 1.252 . S
O248 Mg238 2.251 . S
O248 Mg241 2.079 . S
O248 C250 1.273 . S
C249 O245 1.246 . S
C249 O246 1.259 . S
C250 O247 1.252 . S
C250 O248 1.273 . S
O251 Mg238 2.010 . S
O251 C243 1.249 . S
Mg252 O253 2.028 . S
Mg252 O259 1.986 . S
Mg252 O261 2.114 . S
Mg252 O262 2.251 . S
Mg252 O265 2.010 . S
O253 Mg252 2.028 . S
O253 C256 1.250 . S
O254 Mg255 2.028 . S
O254 C256 1.248 . S
Mg255 O254 2.028 . S
Mg255 O260 2.032 . S
Mg255 O262 2.079 . S
C256 O253 1.250 . S
C256 O254 1.248 . S
C257 O258 1.264 . S
C257 O265 1.249 . S
O258 C257 1.264 . S
O259 Mg252 1.986 . S
O259 C263 1.246 . S
O260 Mg255 2.032 . S
O260 C263 1.259 . S
O261 Mg252 2.114 . S
O261 C264 1.252 . S
O262 Mg252 2.251 . S
O262 Mg255 2.079 . S
O262 C264 1.273 . S
C263 O259 1.246 . S
C263 O260 1.259 . S
C264 O261 1.252 . S
C264 O262 1.273 . S
O265 Mg252 2.010 . S
O265 C257 1.249 . S
Mg266 O267 2.028 . S
Mg266 O273 1.986 . S
Mg266 O275 2.114 . S
Mg266 O276 2.251 . S
Mg266 O279 2.010 . S
O267 Mg266 2.028 . S
O267 C270 1.250 . S
O268 Mg269 2.028 . S
O268 C270 1.248 . S
Mg269 O268 2.028 . S
Mg269 O274 2.032 . S
Mg269 O276 2.079 . S
C270 O267 1.250 . S
C270 O268 1.248 . S
C271 O272 1.264 . S
C271 O279 1.249 . S
O272 C271 1.264 . S
O273 Mg266 1.986 . S
O273 C277 1.246 . S
O274 Mg269 2.032 . S
O274 C277 1.259 . S
O275 Mg266 2.114 . S
O275 C278 1.252 . S
O276 Mg266 2.251 . S
O276 Mg269 2.079 . S
O276 C278 1.273 . S
C277 O273 1.246 . S
C277 O274 1.259 . S
C278 O275 1.252 . S
C278 O276 1.273 . S
O279 Mg266 2.010 . S
O279 C271 1.249 . S
Mg280 O281 2.028 . S
Mg280 O287 1.986 . S
Mg280 O289 2.114 . S
Mg280 O290 2.251 . S
Mg280 O293 2.010 . S
O281 Mg280 2.028 . S
O281 C284 1.250 . S
O282 Mg283 2.028 . S
O282 C284 1.248 . S
Mg283 O282 2.028 . S
Mg283 O288 2.032 . S
Mg283 O290 2.079 . S
C284 O281 1.250 . S
C284 O282 1.248 . S
C285 O286 1.264 . S
C285 O293 1.249 . S
O286 C285 1.264 . S
O287 Mg280 1.986 . S
O287 C291 1.246 . S
O288 Mg283 2.032 . S
O288 C291 1.259 . S
O289 Mg280 2.114 . S
O289 C292 1.252 . S
O290 Mg280 2.251 . S
O290 Mg283 2.079 . S
O290 C292 1.273 . S
C291 O287 1.246 . S
C291 O288 1.259 . S
C292 O289 1.252 . S
C292 O290 1.273 . S
O293 Mg280 2.010 . S
O293 C285 1.249 . S
Mg294 O295 2.028 . S
Mg294 O301 1.986 . S
Mg294 O303 2.114 . S
Mg294 O304 2.251 . S
Mg294 O307 2.010 . S
O295 Mg294 2.028 . S
O295 C298 1.250 . S
O296 Mg297 2.028 . S
O296 C298 1.248 . S
Mg297 O296 2.028 . S
Mg297 O302 2.032 . S
Mg297 O304 2.079 . S
C298 O295 1.250 . S
C298 O296 1.248 . S
C299 O300 1.264 . S
C299 O307 1.249 . S
O300 C299 1.264 . S
O301 Mg294 1.986 . S
O301 C305 1.246 . S
O302 Mg297 2.032 . S
O302 C305 1.259 . S
O303 Mg294 2.114 . S
O303 C306 1.252 . S
O304 Mg294 2.251 . S
O304 Mg297 2.079 . S
O304 C306 1.273 . S
C305 O301 1.246 . S
C305 O302 1.259 . S
C306 O303 1.252 . S
C306 O304 1.273 . S
O307 Mg294 2.010 . S
O307 C299 1.249 . S
Mg308 O309 2.028 . S
Mg308 O315 1.986 . S
Mg308 O317 2.114 . S
Mg308 O318 2.251 . S
Mg308 O321 2.010 . S
O309 Mg308 2.028 . S
O309 C312 1.250 . S
O310 Mg311 2.028 . S
O310 C312 1.248 . S
Mg311 O310 2.028 . S
Mg311 O316 2.032 . S
Mg311 O318 2.079 . S
C312 O309 1.250 . S
C312 O310 1.248 . S
C313 O314 1.264 . S
C313 O321 1.249 . S
O314 C313 1.264 . S
O315 Mg308 1.986 . S
O315 C319 1.246 . S
O316 Mg311 2.032 . S
O316 C319 1.259 . S
O317 Mg308 2.114 . S
O317 C320 1.252 . S
O318 Mg308 2.251 . S
O318 Mg311 2.079 . S
O318 C320 1.273 . S
C319 O315 1.246 . S
C319 O316 1.259 . S
C320 O317 1.252 . S
C320 O318 1.273 . S
O321 Mg308 2.010 . S
O321 C313 1.249 . S
Mg322 O323 2.028 . S
Mg322 O329 1.986 . S
Mg322 O331 2.114 . S
Mg322 O332 2.251 . S
Mg322 O335 2.010 . S
O323 Mg322 2.028 . S
O323 C326 1.250 . S
O324 Mg325 2.028 . S
O324 C326 1.248 . S
Mg325 O324 2.028 . S
Mg325 O330 2.032 . S
Mg325 O332 2.079 . S
C326 O323 1.250 . S
C326 O324 1.248 . S
C327 O328 1.264 . S
C327 O335 1.249 . S
O328 C327 1.264 . S
O329 Mg322 1.986 . S
O329 C333 1.246 . S
O330 Mg325 2.032 . S
O330 C333 1.259 . S
O331 Mg322 2.114 . S
O331 C334 1.252 . S
O332 Mg322 2.251 . S
O332 Mg325 2.079 . S
O332 C334 1.273 . S
C333 O329 1.246 . S
C333 O330 1.259 . S
C334 O331 1.252 . S
C334 O332 1.273 . S
O335 Mg322 2.010 . S
O335 C327 1.249 . S
H336 C344 0.950 . S
H337 C349 0.950 . S
H338 C346 0.950 . S
H339 C348 0.950 . S
H340 C350 0.950 . S
H341 C352 0.950 . S
H342 C354 0.950 . S
H343 C355 0.950 . S
C344 H336 0.950 . S
C344 C345 1.386 . S
C344 C346 1.391 . S
C345 C344 1.386 . S
C345 C349 1.393 . S
C346 H338 0.950 . S
C346 C344 1.391 . S
C346 C347 1.400 . S
C347 C346 1.400 . S
C347 C348 1.398 . S
C347 C353 1.491 . S
C348 H339 0.950 . S
C348 C347 1.398 . S
C348 C349 1.391 . S
C349 H337 0.950 . S
C349 C345 1.393 . S
C349 C348 1.391 . S
C350 H340 0.950 . S
C350 C351 1.386 . S
C350 C352 1.391 . S
C351 C350 1.386 . S
C351 C355 1.393 . S
C352 H341 0.950 . S
C352 C350 1.391 . S
C352 C353 1.400 . S
C353 C347 1.491 . S
C353 C352 1.400 . S
C353 C354 1.398 . S
C354 H342 0.950 . S
C354 C353 1.398 . S
C354 C355 1.391 . S
C355 H343 0.950 . S
C355 C351 1.393 . S
C355 C354 1.391 . S
H356 C364 0.950 . S
H357 C369 0.950 . S
H358 C366 0.950 . S
H359 C368 0.950 . S
H360 C370 0.950 . S
H361 C372 0.950 . S
H362 C374 0.950 . S
H363 C375 0.950 . S
C364 H356 0.950 . S
C364 C365 1.386 . S
C364 C366 1.391 . S
C365 C364 1.386 . S
C365 C369 1.393 . S
C366 H358 0.950 . S
C366 C364 1.391 . S
C366 C367 1.400 . S
C367 C366 1.400 . S
C367 C368 1.398 . S
C367 C373 1.491 . S
C368 H359 0.950 . S
C368 C367 1.398 . S
C368 C369 1.391 . S
C369 H357 0.950 . S
C369 C365 1.393 . S
C369 C368 1.391 . S
C370 H360 0.950 . S
C370 C371 1.386 . S
C370 C372 1.391 . S
C371 C370 1.386 . S
C371 C375 1.393 . S
C372 H361 0.950 . S
C372 C370 1.391 . S
C372 C373 1.400 . S
C373 C367 1.491 . S
C373 C372 1.400 . S
C373 C374 1.398 . S
C374 H362 0.950 . S
C374 C373 1.398 . S
C374 C375 1.391 . S
C375 H363 0.950 . S
C375 C371 1.393 . S
C375 C374 1.391 . S
H376 C384 0.950 . S
H377 C389 0.950 . S
H378 C386 0.950 . S
H379 C388 0.950 . S
H380 C390 0.950 . S
H381 C392 0.950 . S
H382 C394 0.950 . S
H383 C395 0.950 . S
C384 H376 0.950 . S
C384 C385 1.386 . S
C384 C386 1.391 . S
C385 C384 1.386 . S
C385 C389 1.393 . S
C386 H378 0.950 . S
C386 C384 1.391 . S
C386 C387 1.400 . S
C387 C386 1.400 . S
C387 C388 1.398 . S
C387 C393 1.491 . S
C388 H379 0.950 . S
C388 C387 1.398 . S
C388 C389 1.391 . S
C389 H377 0.950 . S
C389 C385 1.393 . S
C389 C388 1.391 . S
C390 H380 0.950 . S
C390 C391 1.386 . S
C390 C392 1.391 . S
C391 C390 1.386 . S
C391 C395 1.393 . S
C392 H381 0.950 . S
C392 C390 1.391 . S
C392 C393 1.400 . S
C393 C387 1.491 . S
C393 C392 1.400 . S
C393 C394 1.398 . S
C394 H382 0.950 . S
C394 C393 1.398 . S
C394 C395 1.391 . S
C395 H383 0.950 . S
C395 C391 1.393 . S
C395 C394 1.391 . S
H396 C404 0.950 . S
H397 C409 0.950 . S
H398 C406 0.950 . S
H399 C408 0.950 . S
H400 C410 0.950 . S
H401 C412 0.950 . S
H402 C414 0.950 . S
H403 C415 0.950 . S
C404 H396 0.950 . S
C404 C405 1.386 . S
C404 C406 1.391 . S
C405 C404 1.386 . S
C405 C409 1.393 . S
C406 H398 0.950 . S
C406 C404 1.391 . S
C406 C407 1.400 . S
C407 C406 1.400 . S
C407 C408 1.398 . S
C407 C413 1.491 . S
C408 H399 0.950 . S
C408 C407 1.398 . S
C408 C409 1.391 . S
C409 H397 0.950 . S
C409 C405 1.393 . S
C409 C408 1.391 . S
C410 H400 0.950 . S
C410 C411 1.386 . S
C410 C412 1.391 . S
C411 C410 1.386 . S
C411 C415 1.393 . S
C412 H401 0.950 . S
C412 C410 1.391 . S
C412 C413 1.400 . S
C413 C407 1.491 . S
C413 C412 1.400 . S
C413 C414 1.398 . S
C414 H402 0.950 . S
C414 C413 1.398 . S
C414 C415 1.391 . S
C415 H403 0.950 . S
C415 C411 1.393 . S
C415 C414 1.391 . S
H416 C424 0.950 . S
H417 C429 0.950 . S
H418 C426 0.950 . S
H419 C428 0.950 . S
H420 C430 0.950 . S
H421 C432 0.950 . S
H422 C434 0.950 . S
H423 C435 0.950 . S
C424 H416 0.950 . S
C424 C425 1.386 . S
C424 C426 1.391 . S
C425 C424 1.386 . S
C425 C429 1.393 . S
C426 H418 0.950 . S
C426 C424 1.391 . S
C426 C427 1.400 . S
C427 C426 1.400 . S
C427 C428 1.398 . S
C427 C433 1.491 . S
C428 H419 0.950 . S
C428 C427 1.398 . S
C428 C429 1.391 . S
C429 H417 0.950 . S
C429 C425 1.393 . S
C429 C428 1.391 . S
C430 H420 0.950 . S
C430 C431 1.386 . S
C430 C432 1.391 . S
C431 C430 1.386 . S
C431 C435 1.393 . S
C432 H421 0.950 . S
C432 C430 1.391 . S
C432 C433 1.400 . S
C433 C427 1.491 . S
C433 C432 1.400 . S
C433 C434 1.398 . S
C434 H422 0.950 . S
C434 C433 1.398 . S
C434 C435 1.391 . S
C435 H423 0.950 . S
C435 C431 1.393 . S
C435 C434 1.391 . S
H436 C444 0.950 . S
H437 C449 0.950 . S
H438 C446 0.950 . S
H439 C448 0.950 . S
H440 C450 0.950 . S
H441 C452 0.950 . S
H442 C454 0.950 . S
H443 C455 0.950 . S
C444 H436 0.950 . S
C444 C445 1.386 . S
C444 C446 1.391 . S
C445 C444 1.386 . S
C445 C449 1.393 . S
C446 H438 0.950 . S
C446 C444 1.391 . S
C446 C447 1.400 . S
C447 C446 1.400 . S
C447 C448 1.398 . S
C447 C453 1.491 . S
C448 H439 0.950 . S
C448 C447 1.398 . S
C448 C449 1.391 . S
C449 H437 0.950 . S
C449 C445 1.393 . S
C449 C448 1.391 . S
C450 H440 0.950 . S
C450 C451 1.386 . S
C450 C452 1.391 . S
C451 C450 1.386 . S
C451 C455 1.393 . S
C452 H441 0.950 . S
C452 C450 1.391 . S
C452 C453 1.400 . S
C453 C447 1.491 . S
C453 C452 1.400 . S
C453 C454 1.398 . S
C454 H442 0.950 . S
C454 C453 1.398 . S
C454 C455 1.391 . S
C455 H443 0.950 . S
C455 C451 1.393 . S
C455 C454 1.391 . S
H456 C464 0.950 . S
H457 C469 0.950 . S
H458 C466 0.950 . S
H459 C468 0.950 . S
H460 C470 0.950 . S
H461 C472 0.950 . S
H462 C474 0.950 . S
H463 C475 0.950 . S
C464 H456 0.950 . S
C464 C465 1.386 . S
C464 C466 1.391 . S
C465 C464 1.386 . S
C465 C469 1.393 . S
C466 H458 0.950 . S
C466 C464 1.391 . S
C466 C467 1.400 . S
C467 C466 1.400 . S
C467 C468 1.398 . S
C467 C473 1.491 . S
C468 H459 0.950 . S
C468 C467 1.398 . S
C468 C469 1.391 . S
C469 H457 0.950 . S
C469 C465 1.393 . S
C469 C468 1.391 . S
C470 H460 0.950 . S
C470 C471 1.386 . S
C470 C472 1.391 . S
C471 C470 1.386 . S
C471 C475 1.393 . S
C472 H461 0.950 . S
C472 C470 1.391 . S
C472 C473 1.400 . S
C473 C467 1.491 . S
C473 C472 1.400 . S
C473 C474 1.398 . S
C474 H462 0.950 . S
C474 C473 1.398 . S
C474 C475 1.391 . S
C475 H463 0.950 . S
C475 C471 1.393 . S
C475 C474 1.391 . S
H476 C484 0.950 . S
H477 C489 0.950 . S
H478 C486 0.950 . S
H479 C488 0.950 . S
H480 C490 0.950 . S
H481 C492 0.950 . S
H482 C494 0.950 . S
H483 C495 0.950 . S
C484 H476 0.950 . S
C484 C485 1.386 . S
C484 C486 1.391 . S
C485 C484 1.386 . S
C485 C489 1.393 . S
C486 H478 0.950 . S
C486 C484 1.391 . S
C486 C487 1.400 . S
C487 C486 1.400 . S
C487 C488 1.398 . S
C487 C493 1.491 . S
C488 H479 0.950 . S
C488 C487 1.398 . S
C488 C489 1.391 . S
C489 H477 0.950 . S
C489 C485 1.393 . S
C489 C488 1.391 . S
C490 H480 0.950 . S
C490 C491 1.386 . S
C490 C492 1.391 . S
C491 C490 1.386 . S
C491 C495 1.393 . S
C492 H481 0.950 . S
C492 C490 1.391 . S
C492 C493 1.400 . S
C493 C487 1.491 . S
C493 C492 1.400 . S
C493 C494 1.398 . S
C494 H482 0.950 . S
C494 C493 1.398 . S
C494 C495 1.391 . S
C495 H483 0.950 . S
C495 C491 1.393 . S
C495 C494 1.391 . S
H496 C504 0.950 . S
H497 C509 0.950 . S
H498 C506 0.950 . S
H499 C508 0.950 . S
H500 C510 0.950 . S
H501 C512 0.950 . S
H502 C514 0.950 . S
H503 C515 0.950 . S
C504 H496 0.950 . S
C504 C505 1.386 . S
C504 C506 1.391 . S
C505 C504 1.386 . S
C505 C509 1.393 . S
C506 H498 0.950 . S
C506 C504 1.391 . S
C506 C507 1.400 . S
C507 C506 1.400 . S
C507 C508 1.398 . S
C507 C513 1.491 . S
C508 H499 0.950 . S
C508 C507 1.398 . S
C508 C509 1.391 . S
C509 H497 0.950 . S
C509 C505 1.393 . S
C509 C508 1.391 . S
C510 H500 0.950 . S
C510 C511 1.386 . S
C510 C512 1.391 . S
C511 C510 1.386 . S
C511 C515 1.393 . S
C512 H501 0.950 . S
C512 C510 1.391 . S
C512 C513 1.400 . S
C513 C507 1.491 . S
C513 C512 1.400 . S
C513 C514 1.398 . S
C514 H502 0.950 . S
C514 C513 1.398 . S
C514 C515 1.391 . S
C515 H503 0.950 . S
C515 C511 1.393 . S
C515 C514 1.391 . S
H516 C524 0.950 . S
H517 C529 0.950 . S
H518 C526 0.950 . S
H519 C528 0.950 . S
H520 C530 0.950 . S
H521 C532 0.950 . S
H522 C534 0.950 . S
H523 C535 0.950 . S
C524 H516 0.950 . S
C524 C525 1.386 . S
C524 C526 1.391 . S
C525 C524 1.386 . S
C525 C529 1.393 . S
C526 H518 0.950 . S
C526 C524 1.391 . S
C526 C527 1.400 . S
C527 C526 1.400 . S
C527 C528 1.398 . S
C527 C533 1.491 . S
C528 H519 0.950 . S
C528 C527 1.398 . S
C528 C529 1.391 . S
C529 H517 0.950 . S
C529 C525 1.393 . S
C529 C528 1.391 . S
C530 H520 0.950 . S
C530 C531 1.386 . S
C530 C532 1.391 . S
C531 C530 1.386 . S
C531 C535 1.393 . S
C532 H521 0.950 . S
C532 C530 1.391 . S
C532 C533 1.400 . S
C533 C527 1.491 . S
C533 C532 1.400 . S
C533 C534 1.398 . S
C534 H522 0.950 . S
C534 C533 1.398 . S
C534 C535 1.391 . S
C535 H523 0.950 . S
C535 C531 1.393 . S
C535 C534 1.391 . S
H536 C544 0.950 . S
H537 C549 0.950 . S
H538 C546 0.950 . S
H539 C548 0.950 . S
H540 C550 0.950 . S
H541 C552 0.950 . S
H542 C554 0.950 . S
H543 C555 0.950 . S
C544 H536 0.950 . S
C544 C545 1.386 . S
C544 C546 1.391 . S
C545 C544 1.386 . S
C545 C549 1.393 . S
C546 H538 0.950 . S
C546 C544 1.391 . S
C546 C547 1.400 . S
C547 C546 1.400 . S
C547 C548 1.398 . S
C547 C553 1.491 . S
C548 H539 0.950 . S
C548 C547 1.398 . S
C548 C549 1.391 . S
C549 H537 0.950 . S
C549 C545 1.393 . S
C549 C548 1.391 . S
C550 H540 0.950 . S
C550 C551 1.386 . S
C550 C552 1.391 . S
C551 C550 1.386 . S
C551 C555 1.393 . S
C552 H541 0.950 . S
C552 C550 1.391 . S
C552 C553 1.400 . S
C553 C547 1.491 . S
C553 C552 1.400 . S
C553 C554 1.398 . S
C554 H542 0.950 . S
C554 C553 1.398 . S
C554 C555 1.391 . S
C555 H543 0.950 . S
C555 C551 1.393 . S
C555 C554 1.391 . S
H556 C564 0.950 . S
H557 C569 0.950 . S
H558 C566 0.950 . S
H559 C568 0.950 . S
H560 C570 0.950 . S
H561 C572 0.950 . S
H562 C574 0.950 . S
H563 C575 0.950 . S
C564 H556 0.950 . S
C564 C565 1.386 . S
C564 C566 1.391 . S
C565 C564 1.386 . S
C565 C569 1.393 . S
C566 H558 0.950 . S
C566 C564 1.391 . S
C566 C567 1.400 . S
C567 C566 1.400 . S
C567 C568 1.398 . S
C567 C573 1.491 . S
C568 H559 0.950 . S
C568 C567 1.398 . S
C568 C569 1.391 . S
C569 H557 0.950 . S
C569 C565 1.393 . S
C569 C568 1.391 . S
C570 H560 0.950 . S
C570 C571 1.386 . S
C570 C572 1.391 . S
C571 C570 1.386 . S
C571 C575 1.393 . S
C572 H561 0.950 . S
C572 C570 1.391 . S
C572 C573 1.400 . S
C573 C567 1.491 . S
C573 C572 1.400 . S
C573 C574 1.398 . S
C574 H562 0.950 . S
C574 C573 1.398 . S
C574 C575 1.391 . S
C575 H563 0.950 . S
C575 C571 1.393 . S
C575 C574 1.391 . S
H576 C584 0.950 . S
H577 C589 0.950 . S
H578 C586 0.950 . S
H579 C588 0.950 . S
H580 C590 0.950 . S
H581 C592 0.950 . S
H582 C594 0.950 . S
H583 C595 0.950 . S
C584 H576 0.950 . S
C584 C585 1.386 . S
C584 C586 1.391 . S
C585 C584 1.386 . S
C585 C589 1.393 . S
C586 H578 0.950 . S
C586 C584 1.391 . S
C586 C587 1.400 . S
C587 C586 1.400 . S
C587 C588 1.398 . S
C587 C593 1.491 . S
C588 H579 0.950 . S
C588 C587 1.398 . S
C588 C589 1.391 . S
C589 H577 0.950 . S
C589 C585 1.393 . S
C589 C588 1.391 . S
C590 H580 0.950 . S
C590 C591 1.386 . S
C590 C592 1.391 . S
C591 C590 1.386 . S
C591 C595 1.393 . S
C592 H581 0.950 . S
C592 C590 1.391 . S
C592 C593 1.400 . S
C593 C587 1.491 . S
C593 C592 1.400 . S
C593 C594 1.398 . S
C594 H582 0.950 . S
C594 C593 1.398 . S
C594 C595 1.391 . S
C595 H583 0.950 . S
C595 C591 1.393 . S
C595 C594 1.391 . S
H596 C604 0.950 . S
H597 C609 0.950 . S
H598 C606 0.950 . S
H599 C608 0.950 . S
H600 C610 0.950 . S
H601 C612 0.950 . S
H602 C614 0.950 . S
H603 C615 0.950 . S
C604 H596 0.950 . S
C604 C605 1.386 . S
C604 C606 1.391 . S
C605 C604 1.386 . S
C605 C609 1.393 . S
C606 H598 0.950 . S
C606 C604 1.391 . S
C606 C607 1.400 . S
C607 C606 1.400 . S
C607 C608 1.398 . S
C607 C613 1.491 . S
C608 H599 0.950 . S
C608 C607 1.398 . S
C608 C609 1.391 . S
C609 H597 0.950 . S
C609 C605 1.393 . S
C609 C608 1.391 . S
C610 H600 0.950 . S
C610 C611 1.386 . S
C610 C612 1.391 . S
C611 C610 1.386 . S
C611 C615 1.393 . S
C612 H601 0.950 . S
C612 C610 1.391 . S
C612 C613 1.400 . S
C613 C607 1.491 . S
C613 C612 1.400 . S
C613 C614 1.398 . S
C614 H602 0.950 . S
C614 C613 1.398 . S
C614 C615 1.391 . S
C615 H603 0.950 . S
C615 C611 1.393 . S
C615 C614 1.391 . S
H616 C624 0.950 . S
H617 C629 0.950 . S
H618 C626 0.950 . S
H619 C628 0.950 . S
H620 C630 0.950 . S
H621 C632 0.950 . S
H622 C634 0.950 . S
H623 C635 0.950 . S
C624 H616 0.950 . S
C624 C625 1.386 . S
C624 C626 1.391 . S
C625 C624 1.386 . S
C625 C629 1.393 . S
C626 H618 0.950 . S
C626 C624 1.391 . S
C626 C627 1.400 . S
C627 C626 1.400 . S
C627 C628 1.398 . S
C627 C633 1.491 . S
C628 H619 0.950 . S
C628 C627 1.398 . S
C628 C629 1.391 . S
C629 H617 0.950 . S
C629 C625 1.393 . S
C629 C628 1.391 . S
C630 H620 0.950 . S
C630 C631 1.386 . S
C630 C632 1.391 . S
C631 C630 1.386 . S
C631 C635 1.393 . S
C632 H621 0.950 . S
C632 C630 1.391 . S
C632 C633 1.400 . S
C633 C627 1.491 . S
C633 C632 1.400 . S
C633 C634 1.398 . S
C634 H622 0.950 . S
C634 C633 1.398 . S
C634 C635 1.391 . S
C635 H623 0.950 . S
C635 C631 1.393 . S
C635 C634 1.391 . S
H636 C644 0.950 . S
H637 C649 0.950 . S
H638 C646 0.950 . S
H639 C648 0.950 . S
H640 C650 0.950 . S
H641 C652 0.950 . S
H642 C654 0.950 . S
H643 C655 0.950 . S
C644 H636 0.950 . S
C644 C645 1.386 . S
C644 C646 1.391 . S
C645 C644 1.386 . S
C645 C649 1.393 . S
C646 H638 0.950 . S
C646 C644 1.391 . S
C646 C647 1.400 . S
C647 C646 1.400 . S
C647 C648 1.398 . S
C647 C653 1.491 . S
C648 H639 0.950 . S
C648 C647 1.398 . S
C648 C649 1.391 . S
C649 H637 0.950 . S
C649 C645 1.393 . S
C649 C648 1.391 . S
C650 H640 0.950 . S
C650 C651 1.386 . S
C650 C652 1.391 . S
C651 C650 1.386 . S
C651 C655 1.393 . S
C652 H641 0.950 . S
C652 C650 1.391 . S
C652 C653 1.400 . S
C653 C647 1.491 . S
C653 C652 1.400 . S
C653 C654 1.398 . S
C654 H642 0.950 . S
C654 C653 1.398 . S
C654 C655 1.391 . S
C655 H643 0.950 . S
C655 C651 1.393 . S
C655 C654 1.391 . S
H656 C664 0.950 . S
H657 C669 0.950 . S
H658 C666 0.950 . S
H659 C668 0.950 . S
H660 C670 0.950 . S
H661 C672 0.950 . S
H662 C674 0.950 . S
H663 C675 0.950 . S
C664 H656 0.950 . S
C664 C665 1.386 . S
C664 C666 1.391 . S
C665 C664 1.386 . S
C665 C669 1.393 . S
C666 H658 0.950 . S
C666 C664 1.391 . S
C666 C667 1.400 . S
C667 C666 1.400 . S
C667 C668 1.398 . S
C667 C673 1.491 . S
C668 H659 0.950 . S
C668 C667 1.398 . S
C668 C669 1.391 . S
C669 H657 0.950 . S
C669 C665 1.393 . S
C669 C668 1.391 . S
C670 H660 0.950 . S
C670 C671 1.386 . S
C670 C672 1.391 . S
C671 C670 1.386 . S
C671 C675 1.393 . S
C672 H661 0.950 . S
C672 C670 1.391 . S
C672 C673 1.400 . S
C673 C667 1.491 . S
C673 C672 1.400 . S
C673 C674 1.398 . S
C674 H662 0.950 . S
C674 C673 1.398 . S
C674 C675 1.391 . S
C675 H663 0.950 . S
C675 C671 1.393 . S
C675 C674 1.391 . S
H676 C684 0.950 . S
H677 C689 0.950 . S
H678 C686 0.950 . S
H679 C688 0.950 . S
H680 C690 0.950 . S
H681 C692 0.950 . S
H682 C694 0.950 . S
H683 C695 0.950 . S
C684 H676 0.950 . S
C684 C685 1.386 . S
C684 C686 1.391 . S
C685 C684 1.386 . S
C685 C689 1.393 . S
C686 H678 0.950 . S
C686 C684 1.391 . S
C686 C687 1.400 . S
C687 C686 1.400 . S
C687 C688 1.398 . S
C687 C693 1.491 . S
C688 H679 0.950 . S
C688 C687 1.398 . S
C688 C689 1.391 . S
C689 H677 0.950 . S
C689 C685 1.393 . S
C689 C688 1.391 . S
C690 H680 0.950 . S
C690 C691 1.386 . S
C690 C692 1.391 . S
C691 C690 1.386 . S
C691 C695 1.393 . S
C692 H681 0.950 . S
C692 C690 1.391 . S
C692 C693 1.400 . S
C693 C687 1.491 . S
C693 C692 1.400 . S
C693 C694 1.398 . S
C694 H682 0.950 . S
C694 C693 1.398 . S
C694 C695 1.391 . S
C695 H683 0.950 . S
C695 C691 1.393 . S
C695 C694 1.391 . S
H696 C704 0.950 . S
H697 C709 0.950 . S
H698 C706 0.950 . S
H699 C708 0.950 . S
H700 C710 0.950 . S
H701 C712 0.950 . S
H702 C714 0.950 . S
H703 C715 0.950 . S
C704 H696 0.950 . S
C704 C705 1.386 . S
C704 C706 1.391 . S
C705 C704 1.386 . S
C705 C709 1.393 . S
C706 H698 0.950 . S
C706 C704 1.391 . S
C706 C707 1.400 . S
C707 C706 1.400 . S
C707 C708 1.398 . S
C707 C713 1.491 . S
C708 H699 0.950 . S
C708 C707 1.398 . S
C708 C709 1.391 . S
C709 H697 0.950 . S
C709 C705 1.393 . S
C709 C708 1.391 . S
C710 H700 0.950 . S
C710 C711 1.386 . S
C710 C712 1.391 . S
C711 C710 1.386 . S
C711 C715 1.393 . S
C712 H701 0.950 . S
C712 C710 1.391 . S
C712 C713 1.400 . S
C713 C707 1.491 . S
C713 C712 1.400 . S
C713 C714 1.398 . S
C714 H702 0.950 . S
C714 C713 1.398 . S
C714 C715 1.391 . S
C715 H703 0.950 . S
C715 C711 1.393 . S
C715 C714 1.391 . S
H716 C724 0.950 . S
H717 C729 0.950 . S
H718 C726 0.950 . S
H719 C728 0.950 . S
H720 C730 0.950 . S
H721 C732 0.950 . S
H722 C734 0.950 . S
H723 C735 0.950 . S
C724 H716 0.950 . S
C724 C725 1.386 . S
C724 C726 1.391 . S
C725 C724 1.386 . S
C725 C729 1.393 . S
C726 H718 0.950 . S
C726 C724 1.391 . S
C726 C727 1.400 . S
C727 C726 1.400 . S
C727 C728 1.398 . S
C727 C733 1.491 . S
C728 H719 0.950 . S
C728 C727 1.398 . S
C728 C729 1.391 . S
C729 H717 0.950 . S
C729 C725 1.393 . S
C729 C728 1.391 . S
C730 H720 0.950 . S
C730 C731 1.386 . S
C730 C732 1.391 . S
C731 C730 1.386 . S
C731 C735 1.393 . S
C732 H721 0.950 . S
C732 C730 1.391 . S
C732 C733 1.400 . S
C733 C727 1.491 . S
C733 C732 1.400 . S
C733 C734 1.398 . S
C734 H722 0.950 . S
C734 C733 1.398 . S
C734 C735 1.391 . S
C735 H723 0.950 . S
C735 C731 1.393 . S
C735 C734 1.391 . S
H736 C744 0.950 . S
H737 C749 0.950 . S
H738 C746 0.950 . S
H739 C748 0.950 . S
H740 C750 0.950 . S
H741 C752 0.950 . S
H742 C754 0.950 . S
H743 C755 0.950 . S
C744 H736 0.950 . S
C744 C745 1.386 . S
C744 C746 1.391 . S
C745 C744 1.386 . S
C745 C749 1.393 . S
C746 H738 0.950 . S
C746 C744 1.391 . S
C746 C747 1.400 . S
C747 C746 1.400 . S
C747 C748 1.398 . S
C747 C753 1.491 . S
C748 H739 0.950 . S
C748 C747 1.398 . S
C748 C749 1.391 . S
C749 H737 0.950 . S
C749 C745 1.393 . S
C749 C748 1.391 . S
C750 H740 0.950 . S
C750 C751 1.386 . S
C750 C752 1.391 . S
C751 C750 1.386 . S
C751 C755 1.393 . S
C752 H741 0.950 . S
C752 C750 1.391 . S
C752 C753 1.400 . S
C753 C747 1.491 . S
C753 C752 1.400 . S
C753 C754 1.398 . S
C754 H742 0.950 . S
C754 C753 1.398 . S
C754 C755 1.391 . S
C755 H743 0.950 . S
C755 C751 1.393 . S
C755 C754 1.391 . S
H756 C764 0.950 . S
H757 C769 0.950 . S
H758 C766 0.950 . S
H759 C768 0.950 . S
H760 C770 0.950 . S
H761 C772 0.950 . S
H762 C774 0.950 . S
H763 C775 0.950 . S
C764 H756 0.950 . S
C764 C765 1.386 . S
C764 C766 1.391 . S
C765 C764 1.386 . S
C765 C769 1.393 . S
C766 H758 0.950 . S
C766 C764 1.391 . S
C766 C767 1.400 . S
C767 C766 1.400 . S
C767 C768 1.398 . S
C767 C773 1.491 . S
C768 H759 0.950 . S
C768 C767 1.398 . S
C768 C769 1.391 . S
C769 H757 0.950 . S
C769 C765 1.393 . S
C769 C768 1.391 . S
C770 H760 0.950 . S
C770 C771 1.386 . S
C770 C772 1.391 . S
C771 C770 1.386 . S
C771 C775 1.393 . S
C772 H761 0.950 . S
C772 C770 1.391 . S
C772 C773 1.400 . S
C773 C767 1.491 . S
C773 C772 1.400 . S
C773 C774 1.398 . S
C774 H762 0.950 . S
C774 C773 1.398 . S
C774 C775 1.391 . S
C775 H763 0.950 . S
C775 C771 1.393 . S
C775 C774 1.391 . S
H776 C784 0.950 . S
H777 C789 0.950 . S
H778 C786 0.950 . S
H779 C788 0.950 . S
H780 C790 0.950 . S
H781 C792 0.950 . S
H782 C794 0.950 . S
H783 C795 0.950 . S
C784 H776 0.950 . S
C784 C785 1.386 . S
C784 C786 1.391 . S
C785 C784 1.386 . S
C785 C789 1.393 . S
C786 H778 0.950 . S
C786 C784 1.391 . S
C786 C787 1.400 . S
C787 C786 1.400 . S
C787 C788 1.398 . S
C787 C793 1.491 . S
C788 H779 0.950 . S
C788 C787 1.398 . S
C788 C789 1.391 . S
C789 H777 0.950 . S
C789 C785 1.393 . S
C789 C788 1.391 . S
C790 H780 0.950 . S
C790 C791 1.386 . S
C790 C792 1.391 . S
C791 C790 1.386 . S
C791 C795 1.393 . S
C792 H781 0.950 . S
C792 C790 1.391 . S
C792 C793 1.400 . S
C793 C787 1.491 . S
C793 C792 1.400 . S
C793 C794 1.398 . S
C794 H782 0.950 . S
C794 C793 1.398 . S
C794 C795 1.391 . S
C795 H783 0.950 . S
C795 C791 1.393 . S
C795 C794 1.391 . S
H796 C804 0.950 . S
H797 C809 0.950 . S
H798 C806 0.950 . S
H799 C808 0.950 . S
H800 C810 0.950 . S
H801 C812 0.950 . S
H802 C814 0.950 . S
H803 C815 0.950 . S
C804 H796 0.950 . S
C804 C805 1.386 . S
C804 C806 1.391 . S
C805 C804 1.386 . S
C805 C809 1.393 . S
C806 H798 0.950 . S
C806 C804 1.391 . S
C806 C807 1.400 . S
C807 C806 1.400 . S
C807 C808 1.398 . S
C807 C813 1.491 . S
C808 H799 0.950 . S
C808 C807 1.398 . S
C808 C809 1.391 . S
C809 H797 0.950 . S
C809 C805 1.393 . S
C809 C808 1.391 . S
C810 H800 0.950 . S
C810 C811 1.386 . S
C810 C812 1.391 . S
C811 C810 1.386 . S
C811 C815 1.393 . S
C812 H801 0.950 . S
C812 C810 1.391 . S
C812 C813 1.400 . S
C813 C807 1.491 . S
C813 C812 1.400 . S
C813 C814 1.398 . S
C814 H802 0.950 . S
C814 C813 1.398 . S
C814 C815 1.391 . S
C815 H803 0.950 . S
C815 C811 1.393 . S
C815 C814 1.391 . S
H816 C824 0.950 . S
H817 C829 0.950 . S
H818 C826 0.950 . S
H819 C828 0.950 . S
H820 C830 0.950 . S
H821 C832 0.950 . S
H822 C834 0.950 . S
H823 C835 0.950 . S
C824 H816 0.950 . S
C824 C825 1.386 . S
C824 C826 1.391 . S
C825 C824 1.386 . S
C825 C829 1.393 . S
C826 H818 0.950 . S
C826 C824 1.391 . S
C826 C827 1.400 . S
C827 C826 1.400 . S
C827 C828 1.398 . S
C827 C833 1.491 1_566 S
C828 H819 0.950 . S
C828 C827 1.398 . S
C828 C829 1.391 . S
C829 H817 0.950 . S
C829 C825 1.393 . S
C829 C828 1.391 . S
C830 H820 0.950 . S
C830 C831 1.386 . S
C830 C832 1.391 . S
C831 C830 1.386 . S
C831 C835 1.393 . S
C832 H821 0.950 . S
C832 C830 1.391 . S
C832 C833 1.400 . S
C833 C827 1.491 1_544 S
C833 C832 1.400 . S
C833 C834 1.398 . S
C834 H822 0.950 . S
C834 C833 1.398 . S
C834 C835 1.391 . S
C835 H823 0.950 . S
C835 C831 1.393 . S
C835 C834 1.391 . S
H836 C844 0.950 . S
H837 C849 0.950 . S
H838 C846 0.950 . S
H839 C848 0.950 . S
H840 C850 0.950 . S
H841 C852 0.950 . S
H842 C854 0.950 . S
H843 C855 0.950 . S
C844 H836 0.950 . S
C844 C845 1.386 . S
C844 C846 1.391 . S
C845 C844 1.386 . S
C845 C849 1.393 . S
C846 H838 0.950 . S
C846 C844 1.391 . S
C846 C847 1.400 . S
C847 C846 1.400 . S
C847 C848 1.398 . S
C847 C853 1.491 . S
C848 H839 0.950 . S
C848 C847 1.398 . S
C848 C849 1.391 . S
C849 H837 0.950 . S
C849 C845 1.393 . S
C849 C848 1.391 . S
C850 H840 0.950 . S
C850 C851 1.386 . S
C850 C852 1.391 . S
C851 C850 1.386 . S
C851 C855 1.393 . S
C852 H841 0.950 . S
C852 C850 1.391 . S
C852 C853 1.400 . S
C853 C847 1.491 . S
C853 C852 1.400 . S
C853 C854 1.398 . S
C854 H842 0.950 . S
C854 C853 1.398 . S
C854 C855 1.391 . S
C855 H843 0.950 . S
C855 C851 1.393 . S
C855 C854 1.391 . S
H856 C864 0.950 . S
H857 C869 0.950 . S
H858 C866 0.950 1_655 S
H859 C868 0.944 1_554 S
H860 C870 0.950 . S
H861 C872 0.950 1_455 S
H862 C874 0.944 1_556 S
H863 C875 0.950 . S
C864 H856 0.950 . S
C864 C865 1.386 . S
C864 C866 1.391 . S
C865 C864 1.386 . S
C865 C869 1.393 . S
C866 H858 0.950 1_455 S
C866 C864 1.391 . S
C866 C867 1.400 . S
C867 C866 1.400 . S
C867 C868 1.400 . S
C867 C873 1.491 1_456 S
C868 H859 0.944 1_556 S
C868 C867 1.400 . S
C868 C869 1.394 . S
C869 H857 0.950 . S
C869 C865 1.393 . S
C869 C868 1.394 . S
C870 H860 0.950 . S
C870 C871 1.386 . S
C870 C872 1.391 . S
C871 C870 1.386 . S
C871 C875 1.393 . S
C872 H861 0.950 1_655 S
C872 C870 1.391 . S
C872 C873 1.400 . S
C873 C867 1.491 1_654 S
C873 C872 1.400 . S
C873 C874 1.400 . S
C874 H862 0.944 1_554 S
C874 C873 1.400 . S
C874 C875 1.394 . S
C875 H863 0.950 . S
C875 C871 1.393 . S
C875 C874 1.394 . S
H876 C884 0.950 . S
H877 C889 0.950 . S
H878 C886 0.950 . S
H879 C888 0.950 . S
H880 C890 0.950 . S
H881 C892 0.950 . S
H882 C894 0.950 . S
H883 C895 0.950 . S
C884 H876 0.950 . S
C884 C885 1.386 . S
C884 C886 1.391 . S
C885 C884 1.386 . S
C885 C889 1.393 . S
C886 H878 0.950 . S
C886 C884 1.391 . S
C886 C887 1.400 . S
C887 C886 1.400 . S
C887 C888 1.398 . S
C887 C893 1.491 1_545 S
C888 H879 0.950 . S
C888 C887 1.398 . S
C888 C889 1.391 . S
C889 H877 0.950 . S
C889 C885 1.393 . S
C889 C888 1.391 . S
C890 H880 0.950 . S
C890 C891 1.386 . S
C890 C892 1.391 . S
C891 C890 1.386 . S
C891 C895 1.393 . S
C892 H881 0.950 . S
C892 C890 1.391 . S
C892 C893 1.400 . S
C893 C887 1.491 1_565 S
C893 C892 1.400 . S
C893 C894 1.398 . S
C894 H882 0.950 . S
C894 C893 1.398 . S
C894 C895 1.391 . S
C895 H883 0.950 . S
C895 C891 1.393 . S
C895 C894 1.391 . S
H896 C904 0.950 . S
H897 C909 0.950 . S
H898 C906 0.950 . S
H899 C908 0.950 . S
H900 C910 0.950 . S
H901 C912 0.950 . S
H902 C914 0.950 . S
H903 C915 0.950 . S
C904 H896 0.950 . S
C904 C905 1.386 . S
C904 C906 1.391 1_554 S
C905 C904 1.386 . S
C905 C909 1.393 . S
C906 H898 0.950 . S
C906 C904 1.391 1_556 S
C906 C907 1.400 1_556 S
C907 C906 1.400 1_554 S
C907 C908 1.398 . S
C907 C913 1.491 1_554 S
C908 H899 0.950 . S
C908 C907 1.398 . S
C908 C909 1.391 . S
C909 H897 0.950 . S
C909 C905 1.393 . S
C909 C908 1.391 . S
C910 H900 0.950 . S
C910 C911 1.386 . S
C910 C912 1.391 1_556 S
C911 C910 1.386 . S
C911 C915 1.393 . S
C912 H901 0.950 . S
C912 C910 1.391 1_554 S
C912 C913 1.400 1_554 S
C913 C907 1.491 1_556 S
C913 C912 1.400 1_556 S
C913 C914 1.398 . S
C914 H902 0.950 . S
C914 C913 1.398 . S
C914 C915 1.391 . S
C915 H903 0.950 . S
C915 C911 1.393 . S
C915 C914 1.391 . S
H916 C924 0.950 . S
H917 C929 0.950 . S
H918 C926 0.950 1_655 S
H919 C928 0.950 . S
H920 C930 0.950 . S
H921 C932 0.950 1_455 S
H922 C934 0.950 . S
H923 C935 0.950 . S
C924 H916 0.950 . S
C924 C925 1.386 . S
C924 C926 1.391 . S
C925 C924 1.386 . S
C925 C929 1.393 . S
C926 H918 0.950 1_455 S
C926 C924 1.391 . S
C926 C927 1.400 . S
C927 C926 1.400 . S
C927 C928 1.398 . S
C927 C933 1.491 1_455 S
C928 H919 0.950 . S
C928 C927 1.398 . S
C928 C929 1.391 . S
C929 H917 0.950 . S
C929 C925 1.393 . S
C929 C928 1.391 . S
C930 H920 0.950 . S
C930 C931 1.386 . S
C930 C932 1.391 . S
C931 C930 1.386 . S
C931 C935 1.393 . S
C932 H921 0.950 1_655 S
C932 C930 1.391 . S
C932 C933 1.400 . S
C933 C927 1.491 1_655 S
C933 C932 1.400 . S
C933 C934 1.398 . S
C934 H922 0.950 . S
C934 C933 1.398 . S
C934 C935 1.391 . S
C935 H923 0.950 . S
C935 C931 1.393 . S
C935 C934 1.391 . S
H936 C944 0.950 . S
H937 C949 0.950 . S
H938 C946 0.950 . S
H939 C948 0.950 . S
H940 C950 0.950 . S
H941 C952 0.950 . S
H942 C954 0.950 . S
H943 C955 0.950 . S
C944 H936 0.950 . S
C944 C945 1.386 . S
C944 C946 1.391 . S
C945 C944 1.386 . S
C945 C949 1.393 . S
C946 H938 0.950 . S
C946 C944 1.391 . S
C946 C947 1.400 . S
C947 C946 1.400 . S
C947 C948 1.398 . S
C947 C953 1.491 1_566 S
C948 H939 0.950 . S
C948 C947 1.398 . S
C948 C949 1.391 . S
C949 H937 0.950 . S
C949 C945 1.393 . S
C949 C948 1.391 . S
C950 H940 0.950 . S
C950 C951 1.386 . S
C950 C952 1.391 . S
C951 C950 1.386 . S
C951 C955 1.393 . S
C952 H941 0.950 . S
C952 C950 1.391 . S
C952 C953 1.400 . S
C953 C947 1.491 1_544 S
C953 C952 1.400 . S
C953 C954 1.398 . S
C954 H942 0.950 . S
C954 C953 1.398 . S
C954 C955 1.391 . S
C955 H943 0.950 . S
C955 C951 1.393 . S
C955 C954 1.391 . S
H956 C964 0.950 . S
H957 C969 0.950 . S
H958 C966 0.950 . S
H959 C968 0.950 . S
H960 C970 0.950 . S
H961 C972 0.950 . S
H962 C974 0.950 . S
H963 C975 0.950 . S
C964 H956 0.950 . S
C964 C965 1.386 . S
C964 C966 1.391 . S
C965 C964 1.386 . S
C965 C969 1.393 . S
C966 H958 0.950 . S
C966 C964 1.391 . S
C966 C967 1.400 . S
C967 C966 1.400 . S
C967 C968 1.398 . S
C967 C973 1.491 . S
C968 H959 0.950 . S
C968 C967 1.398 . S
C968 C969 1.391 . S
C969 H957 0.950 . S
C969 C965 1.393 . S
C969 C968 1.391 . S
C970 H960 0.950 . S
C970 C971 1.386 . S
C970 C972 1.391 . S
C971 C970 1.386 . S
C971 C975 1.393 . S
C972 H961 0.950 . S
C972 C970 1.391 . S
C972 C973 1.400 . S
C973 C967 1.491 . S
C973 C972 1.400 . S
C973 C974 1.398 . S
C974 H962 0.950 . S
C974 C973 1.398 . S
C974 C975 1.391 . S
C975 H963 0.950 . S
C975 C971 1.393 . S
C975 C974 1.391 . S
H976 C984 0.950 . S
H977 C989 0.950 . S
H978 C986 0.949 . S
H979 C988 0.950 1_556 S
H980 C990 0.950 . S
H981 C992 0.948 . S
H982 C994 0.950 1_554 S
H983 C995 0.950 . S
C984 H976 0.950 . S
C984 C985 1.386 . S
C984 C986 1.391 . S
C985 C984 1.386 . S
C985 C989 1.393 . S
C986 H978 0.949 . S
C986 C984 1.391 . S
C986 C987 1.400 . S
C987 C986 1.400 . S
C987 C988 1.398 . S
C987 C993 1.491 1_654 S
C988 H979 0.950 1_554 S
C988 C987 1.398 . S
C988 C989 1.391 . S
C989 H977 0.950 . S
C989 C985 1.393 . S
C989 C988 1.391 . S
C990 H980 0.950 . S
C990 C991 1.386 . S
C990 C992 1.391 . S
C991 C990 1.386 . S
C991 C995 1.393 . S
C992 H981 0.948 . S
C992 C990 1.391 . S
C992 C993 1.400 . S
C993 C987 1.491 1_456 S
C993 C992 1.400 . S
C993 C994 1.398 . S
C994 H982 0.950 1_556 S
C994 C993 1.398 . S
C994 C995 1.391 . S
C995 H983 0.950 . S
C995 C991 1.393 . S
C995 C994 1.391 . S
H996 C1004 0.950 . S
H997 C1009 0.950 . S
H998 C1006 0.950 . S
H999 C1008 0.950 . S
H1000 C1010 0.950 . S
H1001 C1012 0.950 . S
H1002 C1014 0.950 . S
H1003 C1015 0.950 . S
C1004 H996 0.950 . S
C1004 C1005 1.386 . S
C1004 C1006 1.391 . S
C1005 C1004 1.386 . S
C1005 C1009 1.393 . S
C1006 H998 0.950 . S
C1006 C1004 1.391 . S
C1006 C1007 1.400 . S
C1007 C1006 1.400 . S
C1007 C1008 1.398 . S
C1007 C1013 1.491 1_565 S
C1008 H999 0.950 . S
C1008 C1007 1.398 . S
C1008 C1009 1.391 . S
C1009 H997 0.950 . S
C1009 C1005 1.393 . S
C1009 C1008 1.391 . S
C1010 H1000 0.950 . S
C1010 C1011 1.386 . S
C1010 C1012 1.391 . S
C1011 C1010 1.386 . S
C1011 C1015 1.393 . S
C1012 H1001 0.950 . S
C1012 C1010 1.391 . S
C1012 C1013 1.400 . S
C1013 C1007 1.491 1_545 S
C1013 C1012 1.400 . S
C1013 C1014 1.398 . S
C1014 H1002 0.950 . S
C1014 C1013 1.398 . S
C1014 C1015 1.391 . S
C1015 H1003 0.950 . S
C1015 C1011 1.393 . S
C1015 C1014 1.391 . S
H1016 C1024 0.950 . S
H1017 C1029 0.950 . S
H1018 C1026 0.950 . S
H1019 C1028 0.950 1_556 S
H1020 C1030 0.950 . S
H1021 C1032 0.950 . S
H1022 C1034 0.950 1_554 S
H1023 C1035 0.950 . S
C1024 H1016 0.950 . S
C1024 C1025 1.386 . S
C1024 C1026 1.391 . S
C1025 C1024 1.386 . S
C1025 C1029 1.393 . S
C1026 H1018 0.950 . S
C1026 C1024 1.391 . S
C1026 C1027 1.400 . S
C1027 C1026 1.400 . S
C1027 C1028 1.398 . S
C1027 C1033 1.491 1_554 S
C1028 H1019 0.950 1_554 S
C1028 C1027 1.398 . S
C1028 C1029 1.391 . S
C1029 H1017 0.950 . S
C1029 C1025 1.393 . S
C1029 C1028 1.391 . S
C1030 H1020 0.950 . S
C1030 C1031 1.386 . S
C1030 C1032 1.391 . S
C1031 C1030 1.386 . S
C1031 C1035 1.393 . S
C1032 H1021 0.950 . S
C1032 C1030 1.391 . S
C1032 C1033 1.400 . S
C1033 C1027 1.491 1_556 S
C1033 C1032 1.400 . S
C1033 C1034 1.398 . S
C1034 H1022 0.950 1_556 S
C1034 C1033 1.398 . S
C1034 C1035 1.391 . S
C1035 H1023 0.950 . S
C1035 C1031 1.393 . S
C1035 C1034 1.391 . S
H1036 C1044 0.950 . S
H1037 C1049 0.950 . S
H1038 C1046 0.950 . S
H1039 C1048 0.950 . S
H1040 C1050 0.950 . S
H1041 C1052 0.950 . S
H1042 C1054 0.950 . S
H1043 C1055 0.950 . S
C1044 H1036 0.950 . S
C1044 C1045 1.386 . S
C1044 C1046 1.391 . S
C1045 C1044 1.386 . S
C1045 C1049 1.393 . S
C1046 H1038 0.950 . S
C1046 C1044 1.391 . S
C1046 C1047 1.400 . S
C1047 C1046 1.400 . S
C1047 C1048 1.398 . S
C1047 C1053 1.491 1_455 S
C1048 H1039 0.950 . S
C1048 C1047 1.398 . S
C1048 C1049 1.391 . S
C1049 H1037 0.950 . S
C1049 C1045 1.393 . S
C1049 C1048 1.391 . S
C1050 H1040 0.950 . S
C1050 C1051 1.386 . S
C1050 C1052 1.391 . S
C1051 C1050 1.386 . S
C1051 C1055 1.393 . S
C1052 H1041 0.950 . S
C1052 C1050 1.391 . S
C1052 C1053 1.400 . S
C1053 C1047 1.491 1_655 S
C1053 C1052 1.400 . S
C1053 C1054 1.398 . S
C1054 H1042 0.950 . S
C1054 C1053 1.398 . S
C1054 C1055 1.391 . S
C1055 H1043 0.950 . S
C1055 C1051 1.393 . S
C1055 C1054 1.391 . S
H1056 C1064 0.950 . S
H1057 C1069 0.950 . S
H1058 C1066 0.950 . S
H1059 C1068 0.950 . S
H1060 C1070 0.950 . S
H1061 C1072 0.950 . S
H1062 C1074 0.950 . S
H1063 C1075 0.950 . S
C1064 H1056 0.950 . S
C1064 C1065 1.386 . S
C1064 C1066 1.391 . S
C1065 C1064 1.386 . S
C1065 C1069 1.393 . S
C1066 H1058 0.950 . S
C1066 C1064 1.391 . S
C1066 C1067 1.400 . S
C1067 C1066 1.400 . S
C1067 C1068 1.398 . S
C1067 C1073 1.491 . S
C1068 H1059 0.950 . S
C1068 C1067 1.398 . S
C1068 C1069 1.391 . S
C1069 H1057 0.950 . S
C1069 C1065 1.393 . S
C1069 C1068 1.391 . S
C1070 H1060 0.950 . S
C1070 C1071 1.386 . S
C1070 C1072 1.391 . S
C1071 C1070 1.386 . S
C1071 C1075 1.393 . S
C1072 H1061 0.950 . S
C1072 C1070 1.391 . S
C1072 C1073 1.400 . S
C1073 C1067 1.491 . S
C1073 C1072 1.400 . S
C1073 C1074 1.398 . S
C1074 H1062 0.950 . S
C1074 C1073 1.398 . S
C1074 C1075 1.391 . S
C1075 H1063 0.950 . S
C1075 C1071 1.393 . S
C1075 C1074 1.391 . S
H1076 C1084 0.950 . S
H1077 C1089 0.950 . S
H1078 C1086 0.950 . S
H1079 C1088 0.950 . S
H1080 C1090 0.950 . S
H1081 C1092 0.950 . S
H1082 C1094 0.950 . S
H1083 C1095 0.950 . S
C1084 H1076 0.950 . S
C1084 C1085 1.386 . S
C1084 C1086 1.391 . S
C1085 C1084 1.386 . S
C1085 C1089 1.393 . S
C1086 H1078 0.950 . S
C1086 C1084 1.391 . S
C1086 C1087 1.400 . S
C1087 C1086 1.400 . S
C1087 C1088 1.398 . S
C1087 C1093 1.491 . S
C1088 H1079 0.950 . S
C1088 C1087 1.398 . S
C1088 C1089 1.391 . S
C1089 H1077 0.950 . S
C1089 C1085 1.393 . S
C1089 C1088 1.391 . S
C1090 H1080 0.950 . S
C1090 C1091 1.386 . S
C1090 C1092 1.391 . S
C1091 C1090 1.386 . S
C1091 C1095 1.393 . S
C1092 H1081 0.950 . S
C1092 C1090 1.391 . S
C1092 C1093 1.400 . S
C1093 C1087 1.491 . S
C1093 C1092 1.400 . S
C1093 C1094 1.398 . S
C1094 H1082 0.950 . S
C1094 C1093 1.398 . S
C1094 C1095 1.391 . S
C1095 H1083 0.950 . S
C1095 C1091 1.393 . S
C1095 C1094 1.391 . S
H1096 C1104 0.950 . S
H1097 C1109 0.950 . S
H1098 C1106 0.950 . S
H1099 C1108 0.950 . S
H1100 C1110 0.950 . S
H1101 C1112 0.950 . S
H1102 C1114 0.950 . S
H1103 C1115 0.950 . S
C1104 H1096 0.950 . S
C1104 C1105 1.386 . S
C1104 C1106 1.391 . S
C1105 C1104 1.386 . S
C1105 C1109 1.393 . S
C1106 H1098 0.950 . S
C1106 C1104 1.391 . S
C1106 C1107 1.400 . S
C1107 C1106 1.400 . S
C1107 C1108 1.398 . S
C1107 C1113 1.491 . S
C1108 H1099 0.950 . S
C1108 C1107 1.398 . S
C1108 C1109 1.391 . S
C1109 H1097 0.950 . S
C1109 C1105 1.393 . S
C1109 C1108 1.391 . S
C1110 H1100 0.950 . S
C1110 C1111 1.386 . S
C1110 C1112 1.391 . S
C1111 C1110 1.386 . S
C1111 C1115 1.393 . S
C1112 H1101 0.950 . S
C1112 C1110 1.391 . S
C1112 C1113 1.400 . S
C1113 C1107 1.491 . S
C1113 C1112 1.400 . S
C1113 C1114 1.398 . S
C1114 H1102 0.950 . S
C1114 C1113 1.398 . S
C1114 C1115 1.391 . S
C1115 H1103 0.950 . S
C1115 C1111 1.393 . S
C1115 C1114 1.391 . S
H1116 C1124 0.950 . S
H1117 C1129 0.950 . S
H1118 C1126 0.950 . S
H1119 C1128 0.950 . S
H1120 C1130 0.950 . S
H1121 C1132 0.950 . S
H1122 C1134 0.950 . S
H1123 C1135 0.950 . S
C1124 H1116 0.950 . S
C1124 C1125 1.386 . S
C1124 C1126 1.391 . S
C1125 C1124 1.386 . S
C1125 C1129 1.393 . S
C1126 H1118 0.950 . S
C1126 C1124 1.391 . S
C1126 C1127 1.400 . S
C1127 C1126 1.400 . S
C1127 C1128 1.398 . S
C1127 C1133 1.491 . S
C1128 H1119 0.950 . S
C1128 C1127 1.398 . S
C1128 C1129 1.391 . S
C1129 H1117 0.950 . S
C1129 C1125 1.393 . S
C1129 C1128 1.391 . S
C1130 H1120 0.950 . S
C1130 C1131 1.386 . S
C1130 C1132 1.391 . S
C1131 C1130 1.386 . S
C1131 C1135 1.393 . S
C1132 H1121 0.950 . S
C1132 C1130 1.391 . S
C1132 C1133 1.400 . S
C1133 C1127 1.491 . S
C1133 C1132 1.400 . S
C1133 C1134 1.398 . S
C1134 H1122 0.950 . S
C1134 C1133 1.398 . S
C1134 C1135 1.391 . S
C1135 H1123 0.950 . S
C1135 C1131 1.393 . S
C1135 C1134 1.391 . S
H1136 C1144 0.950 . S
H1137 C1149 0.950 . S
H1138 C1146 0.950 . S
H1139 C1148 0.950 . S
H1140 C1150 0.950 . S
H1141 C1152 0.950 . S
H1142 C1154 0.950 . S
H1143 C1155 0.950 . S
C1144 H1136 0.950 . S
C1144 C1145 1.386 . S
C1144 C1146 1.391 . S
C1145 C1144 1.386 . S
C1145 C1149 1.393 . S
C1146 H1138 0.950 . S
C1146 C1144 1.391 . S
C1146 C1147 1.400 . S
C1147 C1146 1.400 . S
C1147 C1148 1.398 . S
C1147 C1153 1.491 . S
C1148 H1139 0.950 . S
C1148 C1147 1.398 . S
C1148 C1149 1.391 . S
C1149 H1137 0.950 . S
C1149 C1145 1.393 . S
C1149 C1148 1.391 . S
C1150 H1140 0.950 . S
C1150 C1151 1.386 . S
C1150 C1152 1.391 . S
C1151 C1150 1.386 . S
C1151 C1155 1.393 . S
C1152 H1141 0.950 . S
C1152 C1150 1.391 . S
C1152 C1153 1.400 . S
C1153 C1147 1.491 . S
C1153 C1152 1.400 . S
C1153 C1154 1.398 . S
C1154 H1142 0.950 . S
C1154 C1153 1.398 . S
C1154 C1155 1.391 . S
C1155 H1143 0.950 . S
C1155 C1151 1.393 . S
C1155 C1154 1.391 . S
H1156 C1164 0.950 . S
H1157 C1169 0.950 . S
H1158 C1166 0.950 . S
H1159 C1168 0.950 . S
H1160 C1170 0.950 . S
H1161 C1172 0.950 . S
H1162 C1174 0.950 . S
H1163 C1175 0.950 . S
C1164 H1156 0.950 . S
C1164 C1165 1.386 . S
C1164 C1166 1.391 . S
C1165 C1164 1.386 . S
C1165 C1169 1.393 . S
C1166 H1158 0.950 . S
C1166 C1164 1.391 . S
C1166 C1167 1.400 . S
C1167 C1166 1.400 . S
C1167 C1168 1.398 . S
C1167 C1173 1.491 . S
C1168 H1159 0.950 . S
C1168 C1167 1.398 . S
C1168 C1169 1.391 . S
C1169 H1157 0.950 . S
C1169 C1165 1.393 . S
C1169 C1168 1.391 . S
C1170 H1160 0.950 . S
C1170 C1171 1.386 . S
C1170 C1172 1.391 . S
C1171 C1170 1.386 . S
C1171 C1175 1.393 . S
C1172 H1161 0.950 . S
C1172 C1170 1.391 . S
C1172 C1173 1.400 . S
C1173 C1167 1.491 . S
C1173 C1172 1.400 . S
C1173 C1174 1.398 . S
C1174 H1162 0.950 . S
C1174 C1173 1.398 . S
C1174 C1175 1.391 . S
C1175 H1163 0.950 . S
C1175 C1171 1.393 . S
C1175 C1174 1.391 . S
H1176 C1184 0.950 . S
H1177 C1189 0.950 . S
H1178 C1186 0.950 . S
H1179 C1188 0.950 . S
H1180 C1190 0.950 . S
H1181 C1192 0.950 . S
H1182 C1194 0.950 . S
H1183 C1195 0.950 . S
C1184 H1176 0.950 . S
C1184 C1185 1.386 . S
C1184 C1186 1.391 . S
C1185 C1184 1.386 . S
C1185 C1189 1.393 . S
C1186 H1178 0.950 . S
C1186 C1184 1.391 . S
C1186 C1187 1.400 . S
C1187 C1186 1.400 . S
C1187 C1188 1.398 . S
C1187 C1193 1.491 . S
C1188 H1179 0.950 . S
C1188 C1187 1.398 . S
C1188 C1189 1.391 . S
C1189 H1177 0.950 . S
C1189 C1185 1.393 . S
C1189 C1188 1.391 . S
C1190 H1180 0.950 . S
C1190 C1191 1.386 . S
C1190 C1192 1.391 . S
C1191 C1190 1.386 . S
C1191 C1195 1.393 . S
C1192 H1181 0.950 . S
C1192 C1190 1.391 . S
C1192 C1193 1.400 . S
C1193 C1187 1.491 . S
C1193 C1192 1.400 . S
C1193 C1194 1.398 . S
C1194 H1182 0.950 . S
C1194 C1193 1.398 . S
C1194 C1195 1.391 . S
C1195 H1183 0.950 . S
C1195 C1191 1.393 . S
C1195 C1194 1.391 . S
H1196 C1204 0.950 . S
H1197 C1209 0.950 . S
H1198 C1206 0.950 . S
H1199 C1208 0.950 . S
H1200 C1210 0.950 . S
H1201 C1212 0.950 . S
H1202 C1214 0.950 . S
H1203 C1215 0.950 . S
C1204 H1196 0.950 . S
C1204 C1205 1.386 . S
C1204 C1206 1.391 . S
C1205 C1204 1.386 . S
C1205 C1209 1.393 . S
C1206 H1198 0.950 . S
C1206 C1204 1.391 . S
C1206 C1207 1.400 . S
C1207 C1206 1.400 . S
C1207 C1208 1.398 . S
C1207 C1213 1.491 . S
C1208 H1199 0.950 . S
C1208 C1207 1.398 . S
C1208 C1209 1.391 . S
C1209 H1197 0.950 . S
C1209 C1205 1.393 . S
C1209 C1208 1.391 . S
C1210 H1200 0.950 . S
C1210 C1211 1.386 . S
C1210 C1212 1.391 . S
C1211 C1210 1.386 . S
C1211 C1215 1.393 . S
C1212 H1201 0.950 . S
C1212 C1210 1.391 . S
C1212 C1213 1.400 . S
C1213 C1207 1.491 . S
C1213 C1212 1.400 . S
C1213 C1214 1.398 . S
C1214 H1202 0.950 . S
C1214 C1213 1.398 . S
C1214 C1215 1.391 . S
C1215 H1203 0.950 . S
C1215 C1211 1.393 . S
C1215 C1214 1.391 . S
H1216 C1224 0.950 . S
H1217 C1229 0.950 . S
H1218 C1226 0.950 . S
H1219 C1228 0.950 . S
H1220 C1230 0.950 . S
H1221 C1232 0.950 . S
H1222 C1234 0.950 . S
H1223 C1235 0.950 . S
C1224 H1216 0.950 . S
C1224 C1225 1.386 . S
C1224 C1226 1.391 . S
C1225 C1224 1.386 . S
C1225 C1229 1.393 . S
C1226 H1218 0.950 . S
C1226 C1224 1.391 . S
C1226 C1227 1.400 . S
C1227 C1226 1.400 . S
C1227 C1228 1.398 . S
C1227 C1233 1.491 . S
C1228 H1219 0.950 . S
C1228 C1227 1.398 . S
C1228 C1229 1.391 . S
C1229 H1217 0.950 . S
C1229 C1225 1.393 . S
C1229 C1228 1.391 . S
C1230 H1220 0.950 . S
C1230 C1231 1.386 . S
C1230 C1232 1.391 . S
C1231 C1230 1.386 . S
C1231 C1235 1.393 . S
C1232 H1221 0.950 . S
C1232 C1230 1.391 . S
C1232 C1233 1.400 . S
C1233 C1227 1.491 . S
C1233 C1232 1.400 . S
C1233 C1234 1.398 . S
C1234 H1222 0.950 . S
C1234 C1233 1.398 . S
C1234 C1235 1.391 . S
C1235 H1223 0.950 . S
C1235 C1231 1.393 . S
C1235 C1234 1.391 . S
H1236 C1244 0.950 . S
H1237 C1249 0.950 . S
H1238 C1246 0.950 . S
H1239 C1248 0.950 . S
H1240 C1250 0.950 . S
H1241 C1252 0.950 . S
H1242 C1254 0.950 . S
H1243 C1255 0.950 . S
C1244 H1236 0.950 . S
C1244 C1245 1.386 . S
C1244 C1246 1.391 . S
C1245 C1244 1.386 . S
C1245 C1249 1.393 . S
C1246 H1238 0.950 . S
C1246 C1244 1.391 . S
C1246 C1247 1.400 . S
C1247 C1246 1.400 . S
C1247 C1248 1.398 . S
C1247 C1253 1.491 . S
C1248 H1239 0.950 . S
C1248 C1247 1.398 . S
C1248 C1249 1.391 . S
C1249 H1237 0.950 . S
C1249 C1245 1.393 . S
C1249 C1248 1.391 . S
C1250 H1240 0.950 . S
C1250 C1251 1.386 . S
C1250 C1252 1.391 . S
C1251 C1250 1.386 . S
C1251 C1255 1.393 . S
C1252 H1241 0.950 . S
C1252 C1250 1.391 . S
C1252 C1253 1.400 . S
C1253 C1247 1.491 . S
C1253 C1252 1.400 . S
C1253 C1254 1.398 . S
C1254 H1242 0.950 . S
C1254 C1253 1.398 . S
C1254 C1255 1.391 . S
C1255 H1243 0.950 . S
C1255 C1251 1.393 . S
C1255 C1254 1.391 . S
H1256 C1264 0.950 . S
H1257 C1269 0.950 . S
H1258 C1266 0.950 . S
H1259 C1268 0.950 . S
H1260 C1270 0.950 . S
H1261 C1272 0.950 . S
H1262 C1274 0.950 . S
H1263 C1275 0.950 . S
C1264 H1256 0.950 . S
C1264 C1265 1.386 . S
C1264 C1266 1.391 . S
C1265 C1264 1.386 . S
C1265 C1269 1.393 . S
C1266 H1258 0.950 . S
C1266 C1264 1.391 . S
C1266 C1267 1.400 . S
C1267 C1266 1.400 . S
C1267 C1268 1.398 . S
C1267 C1273 1.491 . S
C1268 H1259 0.950 . S
C1268 C1267 1.398 . S
C1268 C1269 1.391 . S
C1269 H1257 0.950 . S
C1269 C1265 1.393 . S
C1269 C1268 1.391 . S
C1270 H1260 0.950 . S
C1270 C1271 1.386 . S
C1270 C1272 1.391 . S
C1271 C1270 1.386 . S
C1271 C1275 1.393 . S
C1272 H1261 0.950 . S
C1272 C1270 1.391 . S
C1272 C1273 1.400 . S
C1273 C1267 1.491 . S
C1273 C1272 1.400 . S
C1273 C1274 1.398 . S
C1274 H1262 0.950 . S
C1274 C1273 1.398 . S
C1274 C1275 1.391 . S
C1275 H1263 0.950 . S
C1275 C1271 1.393 . S
C1275 C1274 1.391 . S
H1276 C1284 0.950 . S
H1277 C1289 0.950 . S
H1278 C1286 0.950 . S
H1279 C1288 0.950 . S
H1280 C1290 0.950 . S
H1281 C1292 0.950 . S
H1282 C1294 0.950 . S
H1283 C1295 0.950 . S
C1284 H1276 0.950 . S
C1284 C1285 1.386 . S
C1284 C1286 1.391 . S
C1285 C1284 1.386 . S
C1285 C1289 1.393 . S
C1286 H1278 0.950 . S
C1286 C1284 1.391 . S
C1286 C1287 1.400 . S
C1287 C1286 1.400 . S
C1287 C1288 1.398 . S
C1287 C1293 1.491 . S
C1288 H1279 0.950 . S
C1288 C1287 1.398 . S
C1288 C1289 1.391 . S
C1289 H1277 0.950 . S
C1289 C1285 1.393 . S
C1289 C1288 1.391 . S
C1290 H1280 0.950 . S
C1290 C1291 1.386 . S
C1290 C1292 1.391 . S
C1291 C1290 1.386 . S
C1291 C1295 1.393 . S
C1292 H1281 0.950 . S
C1292 C1290 1.391 . S
C1292 C1293 1.400 . S
C1293 C1287 1.491 . S
C1293 C1292 1.400 . S
C1293 C1294 1.398 . S
C1294 H1282 0.950 . S
C1294 C1293 1.398 . S
C1294 C1295 1.391 . S
C1295 H1283 0.950 . S
C1295 C1291 1.393 . S
C1295 C1294 1.391 . S
C345 C222 1.405 . S
C351 C12 1.407 . S
C365 C26 1.402 . S
C371 C236 1.409 . S
C385 C40 1.403 . S
C391 C250 1.409 . S
C405 C54 1.410 . S
C411 C180 1.401 . S
C425 C194 1.403 . S
C431 C68 1.408 . S
C445 C82 1.408 . S
C451 C208 1.403 . S
C465 C306 1.410 . S
C471 C96 1.402 . S
C485 C110 1.403 . S
C491 C320 1.409 . S
C505 C124 1.404 . S
C511 C334 1.408 . S
C525 C264 1.409 . S
C531 C138 1.403 . S
C545 C152 1.410 . S
C551 C278 1.401 . S
C565 C292 1.408 . S
C571 C166 1.404 . S
C585 C11 1.105 . S
C591 C333 1.140 . S
C605 C263 1.106 . S
C611 C25 1.139 . S
C625 C39 1.137 . S
C631 C277 1.108 . S
C645 C291 1.114 . S
C651 C53 1.130 . S
C665 C67 1.117 . S
C671 C305 1.128 . S
C685 C319 1.125 . S
C691 C81 1.120 . S
C705 C95 1.111 . S
C711 C193 1.134 . S
C725 C207 1.107 . S
C731 C109 1.138 . S
C745 C221 1.125 . S
C751 C123 1.120 . S
C765 C235 1.139 . S
C771 C137 1.106 . S
C785 C151 1.136 . S
C791 C249 1.109 . S
C805 C165 1.139 . S
C811 C179 1.105 . S
C825 C103 1.029 . S
C831 C5 1.047 . S
C845 C117 1.070 . S
C851 C19 1.017 . S
C865 C131 1.031 . S
C871 C33 1.072 . S
C885 C145 1.036 . S
C891 C47 1.039 . S
C905 C61 1.067 . S
C911 C159 1.017 . S
C925 C75 1.021 . S
C931 C89 1.074 . S
C945 C173 1.046 . S
C951 C271 1.062 . S
C965 C187 1.061 . S
C971 C285 1.019 . S
C985 C299 1.061 . S
C991 C201 1.019 . S
C1005 C313 1.041 . S
C1011 C215 1.066 . S
C1025 C327 1.066 . S
C1031 C229 1.040 . S
C1045 C257 1.058 . S
C1051 C243 1.051 . S
C1065 C4 1.368 . S
C1071 C270 1.345 . S
C1085 C284 1.346 . S
C1091 C18 1.367 . S
C1105 C32 1.367 . S
C1111 C298 1.346 . S
C1125 C312 1.369 . S
C1131 C46 1.344 . S
C1145 C60 1.352 . S
C1151 C326 1.361 . S
C1165 C256 1.346 . S
C1171 C74 1.367 . S
C1185 C88 1.353 . S
C1191 C242 1.360 . S
C1205 C172 1.351 . S
C1211 C102 1.362 . S
C1225 C116 1.368 . S
C1231 C186 1.345 . S
C1245 C130 1.348 . S
C1251 C200 1.365 . S
C1265 C144 1.359 . S
C1271 C214 1.354 . S
C1285 C158 1.354 . S
C1291 C228 1.359 . S
