# Generated by pormake.
# Topology umn, (4)-cn, num edge types: 1
# Building blocks:
#     Node 0, Type 0, BuildingBlock: QUQFOY_clean_sbu_1, # of connection points: 4
#     Node 1, Type 0, BuildingBlock: QUQFOY_clean_sbu_1, # of connection points: 4
#     Node 2, Type 0, BuildingBlock: QUQFOY_clean_sbu_1, # of connection points: 4
#     Node 3, Type 0, BuildingBlock: QUQFOY_clean_sbu_1, # of connection points: 4
#     Node 4, Type 0, BuildingBlock: QUQFOY_clean_sbu_1, # of connection points: 4
#     Node 5, Type 0, BuildingBlock: QUQFOY_clean_sbu_1, # of connection points: 4
#     Node 6, Type 0, BuildingBlock: QUQFOY_clean_sbu_1, # of connection points: 4
#     Node 7, Type 0, BuildingBlock: QUQFOY_clean_sbu_1, # of connection points: 4
#     Node 8, Type 0, BuildingBlock: QUQFOY_clean_sbu_1, # of connection points: 4
#     Node 9, Type 0, BuildingBlock: QUQFOY_clean_sbu_1, # of connection points: 4
#     Node 10, Type 0, BuildingBlock: QUQFOY_clean_sbu_1, # of connection points: 4
#     Node 11, Type 0, BuildingBlock: QUQFOY_clean_sbu_1, # of connection points: 4
#     Node 12, Type 0, BuildingBlock: QUQFOY_clean_sbu_1, # of connection points: 4
#     Node 13, Type 0, BuildingBlock: QUQFOY_clean_sbu_1, # of connection points: 4
#     Node 14, Type 0, BuildingBlock: QUQFOY_clean_sbu_1, # of connection points: 4
#     Node 15, Type 0, BuildingBlock: QUQFOY_clean_sbu_1, # of connection points: 4
#     Node 16, Type 0, BuildingBlock: QUQFOY_clean_sbu_1, # of connection points: 4
#     Node 17, Type 0, BuildingBlock: QUQFOY_clean_sbu_1, # of connection points: 4
#     Node 18, Type 0, BuildingBlock: QUQFOY_clean_sbu_1, # of connection points: 4
#     Node 19, Type 0, BuildingBlock: QUQFOY_clean_sbu_1, # of connection points: 4
#     Node 20, Type 0, BuildingBlock: QUQFOY_clean_sbu_1, # of connection points: 4
#     Node 21, Type 0, BuildingBlock: QUQFOY_clean_sbu_1, # of connection points: 4
#     Node 22, Type 0, BuildingBlock: QUQFOY_clean_sbu_1, # of connection points: 4
#     Node 23, Type 0, BuildingBlock: QUQFOY_clean_sbu_1, # of connection points: 4
#     Node 24, Type 0, BuildingBlock: QUQFOY_clean_sbu_1, # of connection points: 4
#     Node 25, Type 0, BuildingBlock: QUQFOY_clean_sbu_1, # of connection points: 4
#     Node 26, Type 0, BuildingBlock: QUQFOY_clean_sbu_1, # of connection points: 4
#     Node 27, Type 0, BuildingBlock: QUQFOY_clean_sbu_1, # of connection points: 4
#     Node 28, Type 0, BuildingBlock: QUQFOY_clean_sbu_1, # of connection points: 4
#     Node 29, Type 0, BuildingBlock: QUQFOY_clean_sbu_1, # of connection points: 4
#     Node 30, Type 0, BuildingBlock: QUQFOY_clean_sbu_1, # of connection points: 4
#     Node 31, Type 0, BuildingBlock: QUQFOY_clean_sbu_1, # of connection points: 4
#     Node 32, Type 0, BuildingBlock: QUQFOY_clean_sbu_1, # of connection points: 4
#     Node 33, Type 0, BuildingBlock: QUQFOY_clean_sbu_1, # of connection points: 4
#     Node 34, Type 0, BuildingBlock: QUQFOY_clean_sbu_1, # of connection points: 4
#     Node 35, Type 0, BuildingBlock: QUQFOY_clean_sbu_1, # of connection points: 4
#     Edge 36, Type (0, 0), BuildingBlock: AJUNOK_clean_linker_0, # of connection points: 2
#     Edge 37, Type (0, 0), BuildingBlock: AJUNOK_clean_linker_0, # of connection points: 2
#     Edge 38, Type (0, 0), BuildingBlock: AJUNOK_clean_linker_0, # of connection points: 2
#     Edge 39, Type (0, 0), BuildingBlock: AJUNOK_clean_linker_0, # of connection points: 2
#     Edge 40, Type (0, 0), BuildingBlock: AJUNOK_clean_linker_0, # of connection points: 2
#     Edge 41, Type (0, 0), BuildingBlock: AJUNOK_clean_linker_0, # of connection points: 2
#     Edge 42, Type (0, 0), BuildingBlock: AJUNOK_clean_linker_0, # of connection points: 2
#     Edge 43, Type (0, 0), BuildingBlock: AJUNOK_clean_linker_0, # of connection points: 2
#     Edge 44, Type (0, 0), BuildingBlock: AJUNOK_clean_linker_0, # of connection points: 2
#     Edge 45, Type (0, 0), BuildingBlock: AJUNOK_clean_linker_0, # of connection points: 2
#     Edge 46, Type (0, 0), BuildingBlock: AJUNOK_clean_linker_0, # of connection points: 2
#     Edge 47, Type (0, 0), BuildingBlock: AJUNOK_clean_linker_0, # of connection points: 2
#     Edge 48, Type (0, 0), BuildingBlock: AJUNOK_clean_linker_0, # of connection points: 2
#     Edge 49, Type (0, 0), BuildingBlock: AJUNOK_clean_linker_0, # of connection points: 2
#     Edge 50, Type (0, 0), BuildingBlock: AJUNOK_clean_linker_0, # of connection points: 2
#     Edge 51, Type (0, 0), BuildingBlock: AJUNOK_clean_linker_0, # of connection points: 2
#     Edge 52, Type (0, 0), BuildingBlock: AJUNOK_clean_linker_0, # of connection points: 2
#     Edge 53, Type (0, 0), BuildingBlock: AJUNOK_clean_linker_0, # of connection points: 2
#     Edge 54, Type (0, 0), BuildingBlock: AJUNOK_clean_linker_0, # of connection points: 2
#     Edge 55, Type (0, 0), BuildingBlock: AJUNOK_clean_linker_0, # of connection points: 2
#     Edge 56, Type (0, 0), BuildingBlock: AJUNOK_clean_linker_0, # of connection points: 2
#     Edge 57, Type (0, 0), BuildingBlock: AJUNOK_clean_linker_0, # of connection points: 2
#     Edge 58, Type (0, 0), BuildingBlock: AJUNOK_clean_linker_0, # of connection points: 2
#     Edge 59, Type (0, 0), BuildingBlock: AJUNOK_clean_linker_0, # of connection points: 2
#     Edge 60, Type (0, 0), BuildingBlock: AJUNOK_clean_linker_0, # of connection points: 2
#     Edge 61, Type (0, 0), BuildingBlock: AJUNOK_clean_linker_0, # of connection points: 2
#     Edge 62, Type (0, 0), BuildingBlock: AJUNOK_clean_linker_0, # of connection points: 2
#     Edge 63, Type (0, 0), BuildingBlock: AJUNOK_clean_linker_0, # of connection points: 2
#     Edge 64, Type (0, 0), BuildingBlock: AJUNOK_clean_linker_0, # of connection points: 2
#     Edge 65, Type (0, 0), BuildingBlock: AJUNOK_clean_linker_0, # of connection points: 2
#     Edge 66, Type (0, 0), BuildingBlock: AJUNOK_clean_linker_0, # of connection points: 2
#     Edge 67, Type (0, 0), BuildingBlock: AJUNOK_clean_linker_0, # of connection points: 2
#     Edge 68, Type (0, 0), BuildingBlock: AJUNOK_clean_linker_0, # of connection points: 2
#     Edge 69, Type (0, 0), BuildingBlock: AJUNOK_clean_linker_0, # of connection points: 2
#     Edge 70, Type (0, 0), BuildingBlock: AJUNOK_clean_linker_0, # of connection points: 2
#     Edge 71, Type (0, 0), BuildingBlock: AJUNOK_clean_linker_0, # of connection points: 2
#     Edge 72, Type (0, 0), BuildingBlock: AJUNOK_clean_linker_0, # of connection points: 2
#     Edge 73, Type (0, 0), BuildingBlock: AJUNOK_clean_linker_0, # of connection points: 2
#     Edge 74, Type (0, 0), BuildingBlock: AJUNOK_clean_linker_0, # of connection points: 2
#     Edge 75, Type (0, 0), BuildingBlock: AJUNOK_clean_linker_0, # of connection points: 2
#     Edge 76, Type (0, 0), BuildingBlock: AJUNOK_clean_linker_0, # of connection points: 2
#     Edge 77, Type (0, 0), BuildingBlock: AJUNOK_clean_linker_0, # of connection points: 2
#     Edge 78, Type (0, 0), BuildingBlock: AJUNOK_clean_linker_0, # of connection points: 2
#     Edge 79, Type (0, 0), BuildingBlock: AJUNOK_clean_linker_0, # of connection points: 2
#     Edge 80, Type (0, 0), BuildingBlock: AJUNOK_clean_linker_0, # of connection points: 2
#     Edge 81, Type (0, 0), BuildingBlock: AJUNOK_clean_linker_0, # of connection points: 2
#     Edge 82, Type (0, 0), BuildingBlock: AJUNOK_clean_linker_0, # of connection points: 2
#     Edge 83, Type (0, 0), BuildingBlock: AJUNOK_clean_linker_0, # of connection points: 2
#     Edge 84, Type (0, 0), BuildingBlock: AJUNOK_clean_linker_0, # of connection points: 2
#     Edge 85, Type (0, 0), BuildingBlock: AJUNOK_clean_linker_0, # of connection points: 2
#     Edge 86, Type (0, 0), BuildingBlock: AJUNOK_clean_linker_0, # of connection points: 2
#     Edge 87, Type (0, 0), BuildingBlock: AJUNOK_clean_linker_0, # of connection points: 2
#     Edge 88, Type (0, 0), BuildingBlock: AJUNOK_clean_linker_0, # of connection points: 2
#     Edge 89, Type (0, 0), BuildingBlock: AJUNOK_clean_linker_0, # of connection points: 2
#     Edge 90, Type (0, 0), BuildingBlock: AJUNOK_clean_linker_0, # of connection points: 2
#     Edge 91, Type (0, 0), BuildingBlock: AJUNOK_clean_linker_0, # of connection points: 2
#     Edge 92, Type (0, 0), BuildingBlock: AJUNOK_clean_linker_0, # of connection points: 2
#     Edge 93, Type (0, 0), BuildingBlock: AJUNOK_clean_linker_0, # of connection points: 2
#     Edge 94, Type (0, 0), BuildingBlock: AJUNOK_clean_linker_0, # of connection points: 2
#     Edge 95, Type (0, 0), BuildingBlock: AJUNOK_clean_linker_0, # of connection points: 2
#     Edge 96, Type (0, 0), BuildingBlock: AJUNOK_clean_linker_0, # of connection points: 2
#     Edge 97, Type (0, 0), BuildingBlock: AJUNOK_clean_linker_0, # of connection points: 2
#     Edge 98, Type (0, 0), BuildingBlock: AJUNOK_clean_linker_0, # of connection points: 2
#     Edge 99, Type (0, 0), BuildingBlock: AJUNOK_clean_linker_0, # of connection points: 2
#     Edge 100, Type (0, 0), BuildingBlock: AJUNOK_clean_linker_0, # of connection points: 2
#     Edge 101, Type (0, 0), BuildingBlock: AJUNOK_clean_linker_0, # of connection points: 2
#     Edge 102, Type (0, 0), BuildingBlock: AJUNOK_clean_linker_0, # of connection points: 2
#     Edge 103, Type (0, 0), BuildingBlock: AJUNOK_clean_linker_0, # of connection points: 2
#     Edge 104, Type (0, 0), BuildingBlock: AJUNOK_clean_linker_0, # of connection points: 2
#     Edge 105, Type (0, 0), BuildingBlock: AJUNOK_clean_linker_0, # of connection points: 2
#     Edge 106, Type (0, 0), BuildingBlock: AJUNOK_clean_linker_0, # of connection points: 2
#     Edge 107, Type (0, 0), BuildingBlock: AJUNOK_clean_linker_0, # of connection points: 2
# Relax obj value: 0.081
# Max RMSD: 0.122
# Mean RMSD: 0.122
data_MOF--net-umn--node1-QUQFOY_clean_sbu_1--edge1-AJUNOK_clean_linker_0
_symmetry_space_group_name_H-M    P1
_symmetry_Int_Tables_number       1
_symmetry_cell_setting            triclinic
loop_
_symmetry_equiv_pos_as_xyz
'x, y, z'
_cell_length_a     68.853103
_cell_length_b     68.81262
_cell_length_c     28.06887
_cell_angle_alpha  90.027621
_cell_angle_beta   89.994371
_cell_angle_gamma 120.02306
loop_
_atom_site_label
_atom_site_type_symbol
_atom_site_fract_x
_atom_site_fract_y
_atom_site_fract_z
_atom_type_partial_charge
O0 O 0.31857 0.08461 0.30892 0.0
Cd1 Cd 0.30645 0.08337 0.24222 0.0
Cd2 Cd 0.32469 0.0542 0.23212 0.0
O3 O 0.33458 0.06377 0.30283 0.0
O4 O 0.29856 0.10749 0.24679 0.0
O5 O 0.32321 0.10853 0.19531 0.0
C6 C 0.31296 0.11811 0.21377 0.0
C7 C 0.3466 0.04719 0.1769 0.0
C8 C 0.32903 0.07575 0.32771 0.0
C9 C 0.27373 0.03567 0.22755 0.0
O10 O 0.29064 0.03285 0.22621 0.0
O11 O 0.27607 0.05507 0.23176 0.0
O12 O 0.338 0.0349 0.21413 0.0
O13 O 0.34357 0.06413 0.17161 0.0
O14 O 0.91538 0.24246 0.30664 0.0
Cd15 Cd 0.91395 0.23011 0.23993 0.0
Cd16 Cd 0.94721 0.27611 0.22664 0.0
O17 O 0.94106 0.27823 0.29898 0.0
O18 O 0.8885 0.19889 0.2483 0.0
O19 O 0.88808 0.22211 0.19499 0.0
C20 C 0.87796 0.20264 0.21512 0.0
C21 C 0.95463 0.30514 0.17156 0.0
C22 C 0.9277 0.26169 0.32494 0.0
C23 C 0.96001 0.23956 0.21974 0.0
O24 O 0.96535 0.26009 0.21626 0.0
O25 O 0.93993 0.22441 0.22765 0.0
O26 O 0.96811 0.30806 0.20617 0.0
O27 O 0.93642 0.28591 0.1688 0.0
O28 O 0.76665 0.67915 0.31717 0.0
Cd29 Cd 0.77764 0.69082 0.25018 0.0
Cd30 Cd 0.7316 0.67506 0.23909 0.0
O31 O 0.73006 0.66468 0.30967 0.0
O32 O 0.80876 0.69594 0.25168 0.0
O33 O 0.783 0.67256 0.20144 0.0
C34 C 0.80315 0.68137 0.21809 0.0
C35 C 0.70296 0.65408 0.18269 0.0
C36 C 0.74718 0.66951 0.33534 0.0
C37 C 0.76557 0.72558 0.23711 0.0
O38 O 0.74549 0.70933 0.23474 0.0
O39 O 0.78195 0.72215 0.24075 0.0
O40 O 0.6993 0.66276 0.21983 0.0
O41 O 0.72275 0.65659 0.178 0.0
O42 O 0.08397 0.32789 0.22763 0.0
Cd43 Cd 0.08339 0.31418 0.29235 0.0
Cd44 Cd 0.04932 0.32498 0.30655 0.0
O45 O 0.05624 0.33504 0.23543 0.0
O46 O 0.10921 0.30898 0.28434 0.0
O47 O 0.10771 0.3299 0.34187 0.0
C48 C 0.11855 0.32159 0.32067 0.0
C49 C 0.04157 0.34539 0.3642 0.0
C50 C 0.07091 0.33395 0.2097 0.0
C51 C 0.03704 0.27602 0.30284 0.0
O52 O 0.03115 0.29051 0.31148 0.0
O53 O 0.05745 0.2819 0.29608 0.0
O54 O 0.02839 0.33574 0.32861 0.0
O55 O 0.05962 0.34411 0.36662 0.0
O56 O 0.67409 0.76051 0.22165 0.0
Cd57 Cd 0.68582 0.77266 0.28807 0.0
Cd58 Cd 0.67208 0.72742 0.30247 0.0
O59 O 0.66233 0.72446 0.23097 0.0
O60 O 0.69042 0.80356 0.28409 0.0
O61 O 0.66782 0.77858 0.33646 0.0
C62 C 0.67636 0.79846 0.31852 0.0
C63 C 0.65089 0.70052 0.3615 0.0
C64 C 0.66599 0.74093 0.20426 0.0
C65 C 0.72196 0.76269 0.30603 0.0
O66 O 0.70639 0.74233 0.30988 0.0
O67 O 0.71754 0.77821 0.29845 0.0
O68 O 0.65979 0.69576 0.32631 0.0
O69 O 0.65308 0.72029 0.36232 0.0
O70 O 0.24489 0.91272 0.2245 0.0
Cd71 Cd 0.2328 0.91166 0.29128 0.0
Cd72 Cd 0.2766 0.94593 0.30392 0.0
O73 O 0.27979 0.94041 0.2318 0.0
O74 O 0.20252 0.88439 0.28611 0.0
O75 O 0.22738 0.88773 0.33962 0.0
C76 C 0.20778 0.87575 0.32083 0.0
C77 C 0.30412 0.95269 0.3623 0.0
C78 C 0.26373 0.92621 0.2059 0.0
C79 C 0.23901 0.95688 0.3057 0.0
O80 O 0.25972 0.9634 0.31149 0.0
O81 O 0.2248 0.93631 0.29943 0.0
O82 O 0.30799 0.96658 0.32794 0.0
O83 O 0.28488 0.93441 0.36273 0.0
O84 O 0.67754 0.91269 0.72426 0.0
Cd85 Cd 0.68652 0.91179 0.79297 0.0
Cd86 Cd 0.67157 0.94234 0.80134 0.0
O87 O 0.66322 0.93499 0.72911 0.0
O88 O 0.69109 0.88544 0.79175 0.0
O89 O 0.66648 0.88743 0.83876 0.0
C90 C 0.67555 0.87614 0.82333 0.0
C91 C 0.64943 0.94743 0.85913 0.0
C92 C 0.66885 0.92305 0.70429 0.0
C93 C 0.72157 0.95799 0.81152 0.0
O94 O 0.70568 0.96237 0.81058 0.0
O95 O 0.71771 0.93802 0.80766 0.0
O96 O 0.65824 0.96104 0.82379 0.0
O97 O 0.6521 0.93014 0.86046 0.0
O98 O 0.08633 0.76999 0.72464 0.0
Cd99 Cd 0.08424 0.78056 0.7912 0.0
Cd100 Cd 0.05473 0.73407 0.80102 0.0
O101 O 0.06517 0.73321 0.7315 0.0
O102 O 0.10985 0.81192 0.7914 0.0
O103 O 0.10718 0.78602 0.84157 0.0
C104 C 0.11852 0.80629 0.82555 0.0
C105 C 0.04671 0.70532 0.85739 0.0
C106 C 0.07745 0.75055 0.70638 0.0
C107 C 0.03692 0.76708 0.80113 0.0
O108 O 0.03365 0.74718 0.8032 0.0
O109 O 0.05655 0.78389 0.79871 0.0
O110 O 0.03499 0.70154 0.81921 0.0
O111 O 0.06359 0.7253 0.86318 0.0
O112 O 0.23496 0.32408 0.73062 0.0
Cd113 Cd 0.22491 0.31272 0.79816 0.0
Cd114 Cd 0.27096 0.32855 0.80624 0.0
O115 O 0.27158 0.33805 0.73499 0.0
O116 O 0.1935 0.30677 0.79752 0.0
O117 O 0.21918 0.33062 0.84722 0.0
C118 C 0.1989 0.32128 0.83116 0.0
C119 C 0.29854 0.35024 0.86402 0.0
C120 C 0.25406 0.33326 0.71077 0.0
C121 C 0.23734 0.27811 0.81135 0.0
O122 O 0.25747 0.29436 0.81256 0.0
O123 O 0.22097 0.28156 0.80774 0.0
O124 O 0.3032 0.34197 0.82747 0.0
O125 O 0.27849 0.34724 0.86673 0.0
O126 O 0.91159 0.67398 0.82165 0.0
Cd127 Cd 0.91036 0.6853 0.75529 0.0
Cd128 Cd 0.94241 0.67278 0.7384 0.0
O129 O 0.93722 0.6641 0.8106 0.0
O130 O 0.88333 0.68866 0.75903 0.0
O131 O 0.88672 0.66644 0.70715 0.0
C132 C 0.87478 0.67437 0.72481 0.0
C133 C 0.94804 0.65089 0.6809 0.0
C134 C 0.92416 0.667 0.83816 0.0
C135 C 0.95584 0.72225 0.73397 0.0
O136 O 0.961 0.70702 0.72851 0.0
O137 O 0.93595 0.71731 0.74408 0.0
O138 O 0.96217 0.66095 0.71482 0.0
O139 O 0.93018 0.65257 0.68014 0.0
O140 O 0.32258 0.23781 0.81234 0.0
Cd141 Cd 0.31212 0.2274 0.7445 0.0
Cd142 Cd 0.32692 0.27345 0.73664 0.0
O143 O 0.33607 0.27436 0.80813 0.0
O144 O 0.30572 0.19585 0.74901 0.0
O145 O 0.33001 0.22016 0.69804 0.0
C146 C 0.3203 0.20025 0.7161 0.0
C147 C 0.34859 0.30197 0.68045 0.0
C148 C 0.33117 0.25684 0.83244 0.0
C149 C 0.27679 0.23882 0.73174 0.0
O150 O 0.29266 0.25914 0.73067 0.0
O151 O 0.2808 0.22277 0.73377 0.0
O152 O 0.33956 0.30577 0.71681 0.0
O153 O 0.34606 0.28212 0.67654 0.0
O154 O 0.76829 0.08741 0.81101 0.0
Cd155 Cd 0.77908 0.08534 0.74469 0.0
Cd156 Cd 0.73296 0.05603 0.73395 0.0
O157 O 0.73162 0.06549 0.80418 0.0
O158 O 0.81085 0.11006 0.74749 0.0
O159 O 0.78668 0.10913 0.69479 0.0
C160 C 0.80664 0.11951 0.71269 0.0
C161 C 0.70579 0.0501 0.67506 0.0
C162 C 0.74887 0.07793 0.82942 0.0
C163 C 0.76541 0.0378 0.73557 0.0
O164 O 0.74555 0.03449 0.73176 0.0
O165 O 0.78213 0.05747 0.73836 0.0
O166 O 0.70076 0.03753 0.71226 0.0
O167 O 0.72608 0.06673 0.67196 0.0
O168 O 0.98134 0.42011 0.64234 0.0
Cd169 Cd 0.96827 0.41781 0.57613 0.0
Cd170 Cd 0.98625 0.38869 0.56615 0.0
O171 O 0.99725 0.39922 0.63578 0.0
O172 O 0.96083 0.44228 0.57879 0.0
O173 O 0.98443 0.44176 0.5265 0.0
C174 C 0.97467 0.45196 0.54434 0.0
C175 C 0.00737 0.38066 0.5107 0.0
C176 C 0.99201 0.4114 0.66076 0.0
C177 C 0.93525 0.37003 0.56682 0.0
O178 O 0.95212 0.3672 0.56401 0.0
O179 O 0.93765 0.3895 0.56931 0.0
O180 O 0.99927 0.36904 0.54893 0.0
O181 O 0.00417 0.39743 0.5043 0.0
O182 O 0.57879 0.57444 0.65271 0.0
Cd183 Cd 0.57778 0.56228 0.58601 0.0
Cd184 Cd 0.61099 0.60667 0.57201 0.0
O185 O 0.60525 0.60982 0.64399 0.0
O186 O 0.55085 0.5318 0.59059 0.0
O187 O 0.55391 0.55686 0.53776 0.0
C188 C 0.54214 0.53711 0.55605 0.0
C189 C 0.6179 0.63474 0.51489 0.0
C190 C 0.59166 0.59367 0.67049 0.0
C191 C 0.62324 0.56985 0.56934 0.0
O192 O 0.62906 0.59043 0.56403 0.0
O193 O 0.60293 0.55514 0.57654 0.0
O194 O 0.63158 0.63832 0.54948 0.0
O195 O 0.59981 0.61538 0.51318 0.0
O196 O 0.43393 0.01274 0.65012 0.0
Cd197 Cd 0.44507 0.0244 0.58324 0.0
Cd198 Cd 0.39858 0.00736 0.57188 0.0
O199 O 0.39721 0.99713 0.64255 0.0
O200 O 0.47678 0.0314 0.58781 0.0
O201 O 0.45275 0.00714 0.5362 0.0
C202 C 0.47263 0.01701 0.55451 0.0
C203 C 0.37066 0.98586 0.51454 0.0
C204 C 0.41446 0.00261 0.66827 0.0
C205 C 0.4316 0.05812 0.56939 0.0
O206 O 0.41167 0.04154 0.56761 0.0
O207 O 0.44832 0.05522 0.57276 0.0
O208 O 0.36628 0.99407 0.55153 0.0
O209 O 0.39076 0.9891 0.51059 0.0
O210 O 0.752 0.65445 0.56161 0.0
Cd211 Cd 0.75036 0.64183 0.62802 0.0
Cd212 Cd 0.71967 0.65825 0.63721 0.0
O213 O 0.72963 0.66876 0.56701 0.0
O214 O 0.77529 0.63511 0.62479 0.0
O215 O 0.7745 0.65864 0.67698 0.0
C216 C 0.78492 0.64911 0.65903 0.0
C217 C 0.71126 0.67914 0.69233 0.0
C218 C 0.74253 0.66428 0.54261 0.0
C219 C 0.70306 0.60762 0.64102 0.0
O220 O 0.69937 0.62399 0.64253 0.0
O221 O 0.72276 0.61081 0.63683 0.0
O222 O 0.69932 0.6704 0.65469 0.0
O223 O 0.72862 0.67685 0.69807 0.0
O224 O 0.34273 0.09844 0.55353 0.0
Cd225 Cd 0.35426 0.10926 0.62064 0.0
Cd226 Cd 0.33844 0.06317 0.63159 0.0
O227 O 0.32859 0.06185 0.56053 0.0
O228 O 0.35957 0.14046 0.61948 0.0
O229 O 0.33598 0.11459 0.66926 0.0
C230 C 0.34498 0.13482 0.653 0.0
C231 C 0.31687 0.03509 0.68847 0.0
C232 C 0.33328 0.07901 0.5351 0.0
C233 C 0.38885 0.09711 0.63654 0.0
O234 O 0.37264 0.07697 0.63822 0.0
O235 O 0.38542 0.11343 0.63134 0.0
O236 O 0.32553 0.03092 0.65196 0.0
O237 O 0.31964 0.05504 0.69205 0.0
O238 O 0.90782 0.24701 0.55049 0.0
Cd239 Cd 0.89575 0.2453 0.61755 0.0
Cd240 Cd 0.94009 0.27868 0.6321 0.0
O241 O 0.94315 0.27349 0.55961 0.0
O242 O 0.86553 0.21801 0.61326 0.0
O243 O 0.89123 0.22133 0.66466 0.0
C244 C 0.87139 0.20934 0.64694 0.0
C245 C 0.96804 0.28503 0.68904 0.0
C246 C 0.92702 0.26002 0.53285 0.0
C247 C 0.90286 0.29033 0.63866 0.0
O248 O 0.92354 0.29634 0.64274 0.0
O249 O 0.88833 0.27012 0.62972 0.0
O250 O 0.97166 0.2991 0.65523 0.0
O251 O 0.94876 0.26683 0.6899 0.0
O252 O 0.33693 0.2449 0.05996 0.0
Cd253 Cd 0.347 0.2446 0.12797 0.0
Cd254 Cd 0.33184 0.27553 0.13676 0.0
O255 O 0.32313 0.26768 0.06486 0.0
O256 O 0.35248 0.21881 0.12519 0.0
O257 O 0.32794 0.21982 0.17403 0.0
C258 C 0.33729 0.20902 0.15726 0.0
C259 C 0.3098 0.28163 0.19325 0.0
C260 C 0.32817 0.25524 0.04022 0.0
C261 C 0.38196 0.29124 0.14512 0.0
O262 O 0.366 0.29554 0.1452 0.0
O263 O 0.37818 0.27131 0.14093 0.0
O264 O 0.31889 0.29482 0.15741 0.0
O265 O 0.31235 0.2643 0.19623 0.0
O266 O 0.75543 0.09838 0.05574 0.0
Cd267 Cd 0.75357 0.10871 0.12265 0.0
Cd268 Cd 0.72465 0.06201 0.13233 0.0
O269 O 0.7343 0.06155 0.06171 0.0
O270 O 0.77848 0.14044 0.12182 0.0
O271 O 0.77727 0.11518 0.17194 0.0
C272 C 0.78785 0.13542 0.15556 0.0
C273 C 0.7183 0.03388 0.18916 0.0
C274 C 0.74643 0.07905 0.03687 0.0
C275 C 0.70605 0.09429 0.13563 0.0
O276 O 0.70308 0.0745 0.13729 0.0
O277 O 0.72551 0.11127 0.13176 0.0
O278 O 0.70593 0.02951 0.15182 0.0
O279 O 0.73499 0.05407 0.1936 0.0
O280 O 0.90651 0.65713 0.0644 0.0
Cd281 Cd 0.89469 0.64618 0.13139 0.0
Cd282 Cd 0.94091 0.66014 0.14317 0.0
O283 O 0.94272 0.66916 0.07142 0.0
O284 O 0.86345 0.64052 0.12513 0.0
O285 O 0.88754 0.66442 0.17704 0.0
C286 C 0.86782 0.65512 0.15806 0.0
C287 C 0.96923 0.68149 0.19966 0.0
C288 C 0.92582 0.66515 0.04581 0.0
C289 C 0.9052 0.61032 0.15004 0.0
O290 O 0.92562 0.62591 0.15201 0.0
O291 O 0.88956 0.61469 0.14376 0.0
O292 O 0.9729 0.67188 0.16418 0.0
O293 O 0.94976 0.67992 0.20211 0.0
O294 O 0.57898 0.00625 0.14651 0.0
Cd295 Cd 0.57865 0.0163 0.07849 0.0
Cd296 Cd 0.60953 0.00151 0.06962 0.0
O297 O 0.60166 0.99238 0.14121 0.0
O298 O 0.55264 0.02141 0.08104 0.0
O299 O 0.55417 0.99724 0.03185 0.0
C300 C 0.54314 0.00634 0.04858 0.0
C301 C 0.61592 0.97988 1.01257 0.0
C302 C 0.58937 0.9975 0.16609 0.0
C303 C 0.62515 0.05167 0.06392 0.0
O304 O 0.62954 0.03577 0.06327 0.0
O305 O 0.60512 0.04771 0.06662 0.0
O306 O 0.62896 0.98878 0.04872 0.0
O307 O 0.59863 0.98247 1.00944 0.0
O308 O 0.99638 0.57903 0.14373 0.0
Cd309 Cd 0.98265 0.56514 0.07948 0.0
Cd310 Cd 0.99096 0.60884 0.0637 0.0
O311 O 0.00023 0.61268 0.13543 0.0
O312 O 0.97888 0.53469 0.08837 0.0
O313 O 0.99878 0.55708 0.02988 0.0
C314 C 0.99135 0.53817 0.05171 0.0
C315 C 0.01127 0.63681 1.00577 0.0
C316 C 0.00064 0.59773 0.16146 0.0
C317 C 0.94293 0.57091 0.06775 0.0
O318 O 0.95658 0.59127 0.05692 0.0
O319 O 0.94988 0.55736 0.07653 0.0
O320 O 0.00089 0.64015 0.04015 0.0
O321 O 0.01078 0.61781 1.00477 0.0
O322 O 0.43028 0.42121 0.14823 0.0
Cd323 Cd 0.44028 0.41927 0.08103 0.0
Cd324 Cd 0.39394 0.39036 0.0722 0.0
O325 O 0.39348 0.39996 0.14281 0.0
O326 O 0.47199 0.44428 0.08149 0.0
O327 O 0.44663 0.44285 0.03143 0.0
C328 C 0.46689 0.45353 0.04765 0.0
C329 C 0.36572 0.38387 1.01541 0.0
C330 C 0.41105 0.41204 0.16749 0.0
C331 C 0.42609 0.37169 0.07109 0.0
O332 O 0.4063 0.36866 0.06881 0.0
O333 O 0.44304 0.39125 0.0732 0.0
O334 O 0.36141 0.37161 0.05292 0.0
O335 O 0.38592 0.40047 1.01065 0.0
O336 O 0.65507 0.751 0.97967 0.0
Cd337 Cd 0.64152 0.75041 0.91477 0.0
Cd338 Cd 0.65394 0.71784 0.89913 0.0
O339 O 0.66425 0.72475 0.97014 0.0
O340 O 0.6363 0.77628 0.92138 0.0
O341 O 0.65772 0.77451 0.86528 0.0
C342 C 0.64934 0.78551 0.88557 0.0
C343 C 0.67468 0.71109 0.84056 0.0
C344 C 0.66219 0.73863 0.9967 0.0
C345 C 0.60446 0.70377 0.90312 0.0
O346 O 0.61954 0.69867 0.89471 0.0
O347 O 0.60954 0.72397 0.91002 0.0
O348 O 0.66555 0.69774 0.87611 0.0
O349 O 0.67271 0.72878 0.83869 0.0
O350 O 0.24743 0.90926 0.98017 0.0
Cd351 Cd 0.2455 0.897 0.91316 0.0
Cd352 Cd 0.27879 0.94158 0.89955 0.0
O353 O 0.27359 0.94478 0.97187 0.0
O354 O 0.21916 0.86625 0.92086 0.0
O355 O 0.22009 0.89019 0.86773 0.0
C356 C 0.20921 0.87068 0.88752 0.0
C357 C 0.28475 0.96886 0.84113 0.0
C358 C 0.26032 0.9284 0.99829 0.0
C359 C 0.29105 0.9048 0.89595 0.0
O360 O 0.2969 0.92542 0.89136 0.0
O361 O 0.27067 0.89001 0.90213 0.0
O362 O 0.29881 0.97307 0.8753 0.0
O363 O 0.26672 0.94942 0.84095 0.0
O364 O 0.09318 0.34358 0.98492 0.0
Cd365 Cd 0.1057 0.35406 0.91816 0.0
Cd366 Cd 0.05992 0.33933 0.90243 0.0
O367 O 0.05696 0.33066 0.97468 0.0
O368 O 0.1369 0.35979 0.9257 0.0
O369 O 0.11307 0.33564 0.87369 0.0
C370 C 0.13273 0.34514 0.89299 0.0
C371 C 0.03309 0.31756 0.84369 0.0
C372 C 0.07354 0.3353 1.00197 0.0
C373 C 0.09498 0.3893 0.89519 0.0
O374 O 0.07469 0.37348 0.89267 0.0
O375 O 0.11073 0.38532 0.90361 0.0
O376 O 0.02828 0.32676 0.87821 0.0
O377 O 0.05282 0.31967 0.84357 0.0
O378 O 0.41949 0.98786 0.89409 0.0
Cd379 Cd 0.41789 0.97512 0.96029 0.0
Cd380 Cd 0.38815 0.99246 0.97048 0.0
O381 O 0.39801 0.00314 0.90031 0.0
O382 O 0.4423 0.96765 0.95574 0.0
O383 O 0.44261 0.99159 1.0083 0.0
C384 C 0.45252 0.98172 0.98957 0.0
C385 C 0.38137 0.01353 0.02818 0.0
C386 C 0.41044 0.99818 0.8755 0.0
C387 C 0.37028 0.94162 0.9729 0.0
O388 O 0.36706 0.95828 0.97473 0.0
O389 O 0.38985 0.94438 0.96909 0.0
O390 O 0.36904 0.00568 0.99072 0.0
O391 O 0.39832 0.01042 0.03202 0.0
O392 O 0.00953 0.43513 0.88517 0.0
Cd393 Cd 0.02313 0.44644 0.95078 0.0
Cd394 Cd 0.00687 0.40033 0.9625 0.0
O395 O 0.99497 0.39851 0.89319 0.0
O396 O 0.02872 0.47775 0.94997 0.0
O397 O 0.00652 0.45244 1.00234 0.0
C398 C 0.01514 0.47252 0.9854 0.0
C399 C 0.98691 0.37295 0.02177 0.0
C400 C 0.99927 0.41552 0.86762 0.0
C401 C 0.0575 0.43356 0.95964 0.0
O402 O 0.04109 0.41361 0.96337 0.0
O403 O 0.05438 0.45016 0.95634 0.0
O404 O 0.99416 0.36819 0.98374 0.0
O405 O 0.99006 0.39303 0.02549 0.0
O406 O 0.57348 0.58164 0.89645 0.0
Cd407 Cd 0.56092 0.57992 0.96307 0.0
Cd408 Cd 0.60673 0.61341 0.97662 0.0
O409 O 0.60924 0.60722 0.90452 0.0
O410 O 0.52984 0.55423 0.95446 0.0
O411 O 0.55313 0.55405 1.00789 0.0
C412 C 0.53369 0.54377 0.98766 0.0
C413 C 0.63489 0.62048 0.03353 0.0
C414 C 0.59276 0.59392 0.87836 0.0
C415 C 0.56993 0.62587 0.98316 0.0
O416 O 0.59052 0.63143 0.98621 0.0
O417 O 0.55489 0.6057 0.97557 0.0
O418 O 0.63847 0.63407 0.99875 0.0
O419 O 0.61562 0.60226 0.03508 0.0
O420 O 0.00441 0.58198 0.38717 0.0
Cd421 Cd 0.01313 0.5791 0.4551 0.0
Cd422 Cd 0.00121 0.61179 0.46848 0.0
O423 O 0.99348 0.60692 0.39575 0.0
O424 O 0.01614 0.55185 0.45042 0.0
O425 O 0.99257 0.55436 0.49973 0.0
C426 C 0.00082 0.54263 0.48246 0.0
C427 C 0.97956 0.6174 0.52638 0.0
C428 C 0.99765 0.59446 0.36906 0.0
C429 C 0.05025 0.62402 0.47846 0.0
O430 O 0.03533 0.62977 0.47991 0.0
O431 O 0.04502 0.60384 0.47078 0.0
O432 O 0.9896 0.63166 0.49263 0.0
O433 O 0.98079 0.59927 0.52611 0.0
O434 O 0.41998 0.43208 0.39387 0.0
Cd435 Cd 0.41834 0.44292 0.46043 0.0
Cd436 Cd 0.38869 0.3965 0.47043 0.0
O437 O 0.39807 0.39536 0.4 0.0
O438 O 0.44287 0.47477 0.45663 0.0
O439 O 0.44263 0.45097 0.50939 0.0
C440 C 0.45271 0.47085 0.49109 0.0
C441 C 0.38248 0.36919 0.52921 0.0
C442 C 0.41049 0.41272 0.37506 0.0
C443 C 0.37088 0.42935 0.47075 0.0
O444 O 0.36745 0.40941 0.47338 0.0
O445 O 0.39057 0.44604 0.46807 0.0
O446 O 0.36995 0.36428 0.49195 0.0
O447 O 0.39928 0.38939 0.53228 0.0
O448 O 0.57344 0.99243 0.3943 0.0
Cd449 Cd 0.56353 0.98221 0.46244 0.0
Cd450 Cd 0.60924 0.99627 0.46903 0.0
O451 O 0.60992 0.00546 0.39765 0.0
O452 O 0.53245 0.9772 0.46077 0.0
O453 O 0.55834 0.00111 0.50997 0.0
C454 C 0.53814 0.99211 0.49359 0.0
C455 C 0.63816 0.01757 0.52468 0.0
C456 C 0.59235 0.00082 0.37379 0.0
C457 C 0.57404 0.94629 0.47494 0.0
O458 O 0.59444 0.96196 0.47531 0.0
O459 O 0.55819 0.9506 0.47314 0.0
O460 O 0.64156 0.00836 0.48807 0.0
O461 O 0.61852 0.01547 0.52908 0.0
O462 O 0.24261 0.34256 0.48392 0.0
Cd463 Cd 0.2429 0.35331 0.41623 0.0
Cd464 Cd 0.27246 0.3369 0.40578 0.0
O465 O 0.26458 0.32787 0.47758 0.0
O466 O 0.21732 0.35907 0.41764 0.0
O467 O 0.21885 0.33485 0.36847 0.0
C468 C 0.20799 0.34427 0.38458 0.0
C469 C 0.27733 0.31485 0.34725 0.0
C470 C 0.25256 0.33321 0.5029 0.0
C471 C 0.28973 0.38738 0.39914 0.0
O472 O 0.29335 0.37097 0.39807 0.0
O473 O 0.27008 0.38425 0.4042 0.0
O474 O 0.29069 0.32307 0.38315 0.0
O475 O 0.26037 0.31804 0.34571 0.0
O476 O 0.66039 0.90532 0.47773 0.0
Cd477 Cd 0.64765 0.89372 0.41167 0.0
Cd478 Cd 0.6631 0.94013 0.40034 0.0
O479 O 0.67303 0.94171 0.47153 0.0
O480 O 0.64068 0.86202 0.41717 0.0
O481 O 0.66386 0.88532 0.36325 0.0
C482 C 0.65427 0.86565 0.38252 0.0
C483 C 0.68453 0.96736 0.34175 0.0
C484 C 0.66924 0.92467 0.49645 0.0
C485 C 0.6128 0.90605 0.39774 0.0
O486 O 0.62886 0.9262 0.39428 0.0
O487 O 0.61648 0.88992 0.40343 0.0
O488 O 0.67615 0.97216 0.37789 0.0
O489 O 0.68171 0.94735 0.3398 0.0
O490 O 0.10166 0.75546 0.48257 0.0
Cd491 Cd 0.11316 0.7525 0.41772 0.0
Cd492 Cd 0.06622 0.72354 0.40501 0.0
O493 O 0.06497 0.73409 0.47417 0.0
O494 O 0.14514 0.77677 0.42144 0.0
O495 O 0.12179 0.77607 0.36686 0.0
C496 C 0.14154 0.78626 0.38577 0.0
C497 C 0.03772 0.71588 0.34811 0.0
C498 C 0.08203 0.7466 0.49979 0.0
C499 C 0.09812 0.7045 0.40943 0.0
O500 O 0.07853 0.70176 0.4044 0.0
O501 O 0.11516 0.72392 0.41328 0.0
O502 O 0.0337 0.70419 0.38639 0.0
O503 O 0.05785 0.73248 0.34238 0.0
C504 C 0.23939 0.99281 0.31291 0.0
C505 C 0.23415 0.97366 0.28592 0.0
C506 C 0.24791 0.01374 0.29066 0.0
C507 C 0.25253 0.01601 0.24144 0.0
H508 H 0.23977 0.99215 0.35145 0.0
H509 H 0.2546 0.02852 0.31313 0.0
S510 S 0.23667 0.97014 0.15459 0.0
N511 N 0.22901 0.95744 0.20677 0.0
N512 N 0.24698 0.99713 0.16566 0.0
C513 C 0.24398 0.9966 0.2136 0.0
C514 C 0.2343 0.97521 0.23591 0.0
C515 C 2e-05 0.24154 0.30546 0.0
C516 C 0.01988 0.25526 0.28041 0.0
C517 C 0.97937 0.23113 0.28162 0.0
C518 C 0.9782 0.23542 0.23293 0.0
H519 H 0.0001 0.24142 0.34406 0.0
H520 H 0.96425 0.22332 0.30306 0.0
S521 S 0.02589 0.26489 0.15009 0.0
N522 N 0.03759 0.26752 0.20283 0.0
N523 N 0.99856 0.24966 0.15898 0.0
C524 C 0.99807 0.24566 0.2065 0.0
C525 C 0.01911 0.25529 0.2303 0.0
C526 C 0.76074 0.7583 0.22511 0.0
C527 C 0.76805 0.74674 0.25438 0.0
C528 C 0.74935 0.7685 0.24478 0.0
C529 C 0.74417 0.76632 0.29371 0.0
H530 H 0.76097 0.75675 0.18672 0.0
H531 H 0.7413 0.77458 0.2206 0.0
S532 S 0.76474 0.74274 0.38594 0.0
N533 N 0.77433 0.73859 0.33527 0.0
N534 N 0.7512 0.75609 0.3717 0.0
C535 C 0.75457 0.7581 0.32383 0.0
C536 C 0.76706 0.74869 0.30408 0.0
C537 C 0.74939 0.97868 0.75055 0.0
C538 C 0.74379 0.97656 0.79928 0.0
C539 C 0.76045 0.99986 0.72893 0.0
C540 C 0.76716 0.01925 0.75618 0.0
H541 H 0.74185 0.96402 0.72765 0.0
H542 H 0.76105 0.00085 0.69038 0.0
S543 S 0.76233 0.02253 0.88695 0.0
N544 N 0.74956 0.99536 0.87526 0.0
N545 N 0.77219 0.0353 0.83543 0.0
C546 C 0.76564 0.01734 0.8061 0.0
C547 C 0.75345 0.99582 0.82769 0.0
C548 C 0.99922 0.76181 0.81348 0.0
C549 C 0.01797 0.76905 0.78384 0.0
C550 C 0.97755 0.7502 0.7943 0.0
C551 C 0.97433 0.74467 0.74552 0.0
H552 H 0.0012 0.76232 0.85184 0.0
H553 H 0.96355 0.74223 0.81883 0.0
S554 S 0.01806 0.76497 0.65238 0.0
N555 N 0.03203 0.7749 0.7027 0.0
N556 N 0.99123 0.75137 0.66718 0.0
C557 C 0.99281 0.755 0.71498 0.0
C558 C 0.01479 0.7677 0.73422 0.0
C559 C 0.24308 0.24242 0.72438 0.0
C560 C 0.25562 0.2354 0.75115 0.0
C561 C 0.23206 0.25234 0.74699 0.0
C562 C 0.23446 0.25649 0.79639 0.0
H563 H 0.24431 0.24306 0.68586 0.0
H564 H 0.22509 0.26025 0.72482 0.0
S565 S 0.26097 0.23631 0.88251 0.0
N566 N 0.26525 0.22826 0.83 0.0
N567 N 0.24626 0.24883 0.87193 0.0
C568 C 0.24386 0.24636 0.82388 0.0
C569 C 0.25409 0.23527 0.80115 0.0
C570 C 0.90339 0.33169 0.55766 0.0
C571 C 0.91487 0.35097 0.5859 0.0
C572 C 0.89443 0.31036 0.5782 0.0
C573 C 0.89785 0.30807 0.62687 0.0
H574 H 0.90411 0.3331 0.51917 0.0
H575 H 0.88842 0.29604 0.55452 0.0
S576 S 0.92155 0.35325 0.71698 0.0
N577 N 0.92408 0.36631 0.666 0.0
N578 N 0.90898 0.32623 0.7039 0.0
C579 C 0.9059 0.32694 0.65626 0.0
C580 C 0.91401 0.34853 0.63572 0.0
C581 C 0.65966 0.57181 0.5581 0.0
C582 C 0.64078 0.56559 0.58678 0.0
C583 C 0.68104 0.58137 0.57862 0.0
C584 C 0.68392 0.58592 0.62782 0.0
H585 H 0.6583 0.57222 0.5197 0.0
H586 H 0.69544 0.5888 0.55505 0.0
S587 S 0.63927 0.56747 0.7185 0.0
N588 N 0.62577 0.55937 0.66722 0.0
N589 N 0.66619 0.5792 0.70522 0.0
C590 C 0.665 0.57636 0.65718 0.0
C591 C 0.64321 0.56567 0.63656 0.0
C592 C 0.41567 0.10148 0.57523 0.0
C593 C 0.41074 0.09996 0.62423 0.0
C594 C 0.42659 0.0907 0.55615 0.0
C595 C 0.43371 0.07919 0.58607 0.0
H596 H 0.40779 0.10763 0.55072 0.0
H597 H 0.42672 0.08881 0.51784 0.0
S598 S 0.43055 0.07626 0.71773 0.0
N599 N 0.41753 0.09003 0.70274 0.0
N600 N 0.43978 0.07136 0.66738 0.0
C601 C 0.43279 0.08151 0.63566 0.0
C602 C 0.42079 0.09156 0.65483 0.0
C603 C 0.42064 0.33363 0.06264 0.0
C604 C 0.42775 0.35289 0.0906 0.0
C605 C 0.4094 0.31232 0.08363 0.0
C606 C 0.40407 0.30992 0.13252 0.0
H607 H 0.42109 0.33488 0.02413 0.0
H608 H 0.40159 0.29782 0.0603 0.0
S609 S 0.42356 0.35537 0.22173 0.0
N610 N 0.43331 0.36844 0.17044 0.0
N611 N 0.4104 0.32827 0.20919 0.0
C612 C 0.41405 0.329 0.16148 0.0
C613 C 0.4264 0.35064 0.14047 0.0
C614 C 0.66216 0.08535 0.05192 0.0
C615 C 0.64329 0.07324 0.08091 0.0
C616 C 0.68359 0.09714 0.07221 0.0
C617 C 0.68655 0.09604 0.12158 0.0
H618 H 0.66069 0.08326 1.01358 0.0
H619 H 0.69796 0.10381 0.04854 0.0
S620 S 0.64199 0.07084 0.21271 0.0
N621 N 0.62842 0.06513 0.16147 0.0
N622 N 0.66892 0.0857 0.19919 0.0
C623 C 0.66768 0.08694 0.15106 0.0
C624 C 0.64585 0.07586 0.13061 0.0
C625 C 0.89717 0.58238 0.08869 0.0
C626 C 0.90144 0.58807 0.13728 0.0
C627 C 0.90789 0.57239 0.06509 0.0
C628 C 0.92201 0.56681 0.09025 0.0
H629 H 0.88906 0.58934 0.06713 0.0
H630 H 0.9077 0.57203 0.02649 0.0
S631 S 0.93182 0.57115 0.22059 0.0
N632 N 0.91611 0.58269 0.21139 0.0
N633 N 0.93464 0.56204 0.16803 0.0
C634 C 0.92208 0.56779 0.14037 0.0
C635 C 0.91208 0.57892 0.16391 0.0
C636 C 0.56106 0.64533 0.92219 0.0
C637 C 0.56544 0.6439 0.97071 0.0
C638 C 0.57079 0.6662 0.89929 0.0
C639 C 0.58397 0.68598 0.9251 0.0
H640 H 0.55368 0.63038 0.90014 0.0
H641 H 0.57064 0.66663 0.86071 0.0
S642 S 0.59374 0.69106 0.05541 0.0
N643 N 0.57929 0.66375 0.04538 0.0
N644 N 0.59587 0.70311 1.0033 0.0
C645 C 0.5841 0.68476 0.97514 0.0
C646 C 0.57518 0.66355 0.99797 0.0
C647 C 0.34868 0.91595 0.90916 0.0
C648 C 0.35096 0.92026 0.9585 0.0
C649 C 0.3276 0.90669 0.88732 0.0
C650 C 0.30837 0.90051 0.91477 0.0
H651 H 0.3634 0.92331 0.88649 0.0
H652 H 0.32677 0.90725 0.84883 0.0
S653 S 0.30516 0.90215 0.04631 0.0
N654 N 0.33222 0.91359 0.03471 0.0
N655 N 0.29234 0.8943 0.99427 0.0
C656 C 0.31014 0.90047 0.96472 0.0
C657 C 0.33164 0.91088 0.98667 0.0
C658 C 0.10107 0.41804 0.95327 0.0
C659 C 0.09838 0.41166 0.90497 0.0
C660 C 0.09063 0.42942 0.97174 0.0
C661 C 0.07835 0.43559 0.94176 0.0
H662 H 0.10779 0.41089 0.97824 0.0
H663 H 0.08959 0.43061 1.01006 0.0
S664 S 0.07264 0.4289 0.8108 0.0
N665 N 0.0868 0.41636 0.82638 0.0
N666 N 0.06876 0.43944 0.86041 0.0
C667 C 0.07964 0.43336 0.89226 0.0
C668 C 0.08934 0.42091 0.87382 0.0
C669 C 0.09187 0.66621 0.40021 0.0
C670 C 0.09899 0.68526 0.42889 0.0
C671 C 0.07952 0.64471 0.41999 0.0
C672 C 0.0731 0.64198 0.46827 0.0
H673 H 0.09314 0.66788 0.36178 0.0
H674 H 0.07175 0.63052 0.39584 0.0
S675 S 0.09247 0.68653 0.55956 0.0
N676 N 0.10358 0.70001 0.50928 0.0
N677 N 0.07866 0.65958 0.54564 0.0
C678 C 0.0832 0.66069 0.49828 0.0
C679 C 0.09664 0.68248 0.47857 0.0
C680 C 0.31187 0.41442 0.46043 0.0
C681 C 0.30895 0.40917 0.4115 0.0
C682 C 0.33333 0.42496 0.48072 0.0
C683 C 0.35224 0.43147 0.45203 0.0
H684 H 0.29753 0.40703 0.48419 0.0
H685 H 0.33486 0.42534 0.51918 0.0
S686 S 0.35352 0.42726 0.3207 0.0
N687 N 0.32658 0.41498 0.33413 0.0
N688 N 0.36709 0.43657 0.37164 0.0
C689 C 0.34963 0.43023 0.40225 0.0
C690 C 0.3278 0.41859 0.38192 0.0
C691 C 0.58716 0.90127 0.46205 0.0
C692 C 0.59121 0.90327 0.41261 0.0
C693 C 0.57725 0.91244 0.48402 0.0
C694 C 0.57017 0.92476 0.45661 0.0
H695 H 0.59515 0.89452 0.48462 0.0
H696 H 0.57801 0.91402 0.52248 0.0
S697 S 0.57061 0.92882 0.32507 0.0
N698 N 0.58323 0.91428 0.33646 0.0
N699 N 0.56271 0.93358 0.37729 0.0
C700 C 0.56986 0.92273 0.40671 0.0
C701 C 0.58093 0.91234 0.38458 0.0
C702 C 0.33123 0.06 0.45698 0.0
C703 C 0.33066 0.07738 0.48243 0.0
C704 C 0.33189 0.06007 0.4068 0.0
C705 C 0.33189 0.07745 0.3803 0.0
H706 H 0.33165 0.0465 0.47591 0.0
H707 H 0.33186 0.04615 0.38871 0.0
S708 S 0.33053 0.12686 0.42979 0.0
N709 N 0.32996 0.11232 0.47699 0.0
N710 N 0.33154 0.11262 0.38351 0.0
C711 C 0.3314 0.09492 0.40544 0.0
C712 C 0.33065 0.09481 0.45619 0.0
C713 C 0.91117 0.24425 0.45307 0.0
C714 C 0.92902 0.26091 0.47994 0.0
C715 C 0.91059 0.24545 0.40352 0.0
C716 C 0.92789 0.26328 0.37787 0.0
H717 H 0.89723 0.23008 0.47043 0.0
H718 H 0.89639 0.23197 0.38515 0.0
S719 S 0.97868 0.31139 0.43061 0.0
N720 N 0.96454 0.2961 0.47703 0.0
N721 N 0.96367 0.29809 0.38319 0.0
C722 C 0.94595 0.28017 0.404 0.0
C723 C 0.94652 0.27899 0.45503 0.0
C724 C 0.72712 0.66697 0.46307 0.0
C725 C 0.74464 0.66756 0.49014 0.0
C726 C 0.72746 0.66658 0.4129 0.0
C727 C 0.74538 0.66686 0.38801 0.0
H728 H 0.71277 0.66623 0.48069 0.0
H729 H 0.7138 0.66648 0.39356 0.0
S730 S 0.79558 0.66883 0.44228 0.0
N731 N 0.78062 0.66891 0.48809 0.0
N732 N 0.7811 0.66782 0.39461 0.0
C733 C 0.76302 0.66757 0.41481 0.0
C734 C 0.76271 0.66806 0.46557 0.0
C735 C 0.08995 0.33878 0.1318 0.0
C736 C 0.07119 0.3363 0.157 0.0
C737 C 0.08996 0.33752 0.08219 0.0
C738 C 0.07126 0.33386 0.05486 0.0
H739 H 0.1048 0.34136 0.15062 0.0
H740 H 0.10501 0.33958 0.0652 0.0
S741 S 0.01771 0.32642 0.10311 0.0
N742 N 0.03315 0.3299 0.15086 0.0
N743 N 0.03336 0.32804 0.05697 0.0
C744 C 0.05232 0.33151 0.07937 0.0
C745 C 0.05229 0.33273 0.13044 0.0
C746 C 0.66652 0.75724 0.12478 0.0
C747 C 0.66373 0.73868 0.15147 0.0
C748 C 0.66716 0.75733 0.0751 0.0
C749 C 0.66495 0.73882 0.04924 0.0
H750 H 0.66841 0.77212 0.14235 0.0
H751 H 0.66913 0.77206 0.05676 0.0
S752 S 0.65686 0.68563 0.10123 0.0
N753 N 0.6587 0.70107 0.14798 0.0
N754 N 0.65945 0.70106 0.05399 0.0
C755 C 0.66212 0.72002 0.07512 0.0
C756 C 0.66149 0.71994 0.12624 0.0
C757 C 0.24684 0.91028 0.12694 0.0
C758 C 0.26495 0.92714 0.15286 0.0
C759 C 0.24514 0.91167 0.0777 0.0
C760 C 0.26159 0.92985 0.05128 0.0
H761 H 0.23346 0.89584 0.14488 0.0
H762 H 0.23075 0.89802 0.06017 0.0
S763 S 0.31282 0.97854 0.10128 0.0
N764 N 0.29986 0.96289 0.1482 0.0
N765 N 0.297 0.96515 0.05481 0.0
C766 C 0.27998 0.9469 0.0764 0.0
C767 C 0.28164 0.94556 0.12719 0.0
C768 C 0.66653 0.93989 0.6259 0.0
C769 C 0.66822 0.92308 0.65114 0.0
C770 C 0.6683 0.94134 0.57581 0.0
C771 C 0.67181 0.92601 0.54912 0.0
H772 H 0.66402 0.95216 0.64493 0.0
H773 H 0.66617 0.95407 0.55784 0.0
S774 S 0.67815 0.87929 0.59763 0.0
N775 N 0.67392 0.89093 0.64489 0.0
N776 N 0.67769 0.89403 0.5518 0.0
C777 C 0.67394 0.90944 0.574 0.0
C778 C 0.67198 0.90784 0.6246 0.0
C779 C 0.06247 0.73095 0.57781 0.0
C780 C 0.07991 0.7486 0.55194 0.0
C781 C 0.06225 0.73108 0.62795 0.0
C782 C 0.0794 0.74893 0.65401 0.0
H783 H 0.04921 0.71665 0.55927 0.0
H784 H 0.04833 0.71733 0.64634 0.0
S785 S 0.12876 0.79927 0.60314 0.0
N786 N 0.11459 0.78449 0.55629 0.0
N787 N 0.11432 0.78466 0.64989 0.0
C788 C 0.09686 0.76667 0.62843 0.0
C789 C 0.09706 0.76654 0.57765 0.0
C790 C 0.2701 0.33207 0.58106 0.0
C791 C 0.25217 0.33163 0.55584 0.0
C792 C 0.27136 0.33382 0.63116 0.0
C793 C 0.25472 0.33513 0.65789 0.0
H794 H 0.28348 0.33152 0.56196 0.0
H795 H 0.28518 0.33359 0.64907 0.0
S796 S 0.20434 0.33472 0.60907 0.0
N797 N 0.21733 0.33248 0.56184 0.0
N798 N 0.21994 0.3362 0.65501 0.0
C799 C 0.23681 0.33483 0.63295 0.0
C800 C 0.23546 0.33292 0.58232 0.0
C801 C 0.90901 0.66603 0.96799 0.0
C802 C 0.92726 0.66712 0.99296 0.0
C803 C 0.90789 0.66498 0.91836 0.0
C804 C 0.925 0.66506 0.89083 0.0
H805 H 0.89518 0.66579 0.98695 0.0
H806 H 0.89342 0.66432 0.90144 0.0
S807 S 0.97667 0.66773 0.93819 0.0
N808 N 0.96295 0.66802 0.98624 0.0
N809 N 0.96105 0.66648 0.8923 0.0
C810 C 0.94347 0.66614 0.91505 0.0
C811 C 0.9446 0.66719 0.96613 0.0
C812 C 0.3284 0.273 0.96139 0.0
C813 C 0.32705 0.2548 0.98722 0.0
C814 C 0.33087 0.27424 0.91142 0.0
C815 C 0.33207 0.25733 0.88546 0.0
H816 H 0.32808 0.28664 0.97993 0.0
H817 H 0.33138 0.28832 0.89299 0.0
S818 S 0.32902 0.20596 0.93615 0.0
N819 N 0.32658 0.21925 0.98262 0.0
N820 N 0.33177 0.22185 0.8898 0.0
C821 C 0.33072 0.23908 0.91104 0.0
C822 C 0.32802 0.23772 0.9615 0.0
C823 C 0.73015 0.06111 0.90773 0.0
C824 C 0.74737 0.07907 0.88208 0.0
C825 C 0.73046 0.0605 0.95789 0.0
C826 C 0.74796 0.07788 0.98421 0.0
H827 H 0.71659 0.04715 0.88896 0.0
H828 H 0.71663 0.04659 0.97612 0.0
S829 S 0.79717 0.1286 0.93409 0.0
N830 N 0.78238 0.11466 0.88708 0.0
N831 N 0.78314 0.11337 0.98055 0.0
C832 C 0.76531 0.09584 0.95885 0.0
C833 C 0.76495 0.0965 0.9081 0.0
C834 C 0.99623 0.39625 0.7393 0.0
C835 C 0.99533 0.41328 0.71322 0.0
C836 C 0.99626 0.39632 0.78946 0.0
C837 C 0.99549 0.41347 0.81534 0.0
H838 H 0.99646 0.38252 0.7209 0.0
H839 H 0.99747 0.38316 0.80801 0.0
S840 S 0.99287 0.46187 0.76414 0.0
N841 N 0.99371 0.44778 0.71739 0.0
N842 N 0.99349 0.44772 0.81098 0.0
C843 C 0.99448 0.43049 0.78962 0.0
C844 C 0.99451 0.43046 0.73883 0.0
C845 C 0.57641 0.57725 0.7995 0.0
C846 C 0.59445 0.59419 0.82543 0.0
C847 C 0.57536 0.57799 0.74995 0.0
C848 C 0.59238 0.59563 0.72338 0.0
H849 H 0.56264 0.56323 0.81764 0.0
H850 H 0.56102 0.56433 0.73235 0.0
S851 S 0.64365 0.64425 0.7734 0.0
N852 N 0.62993 0.62937 0.82061 0.0
N853 N 0.62822 0.63049 0.72678 0.0
C854 C 0.6107 0.61275 0.74854 0.0
C855 C 0.61173 0.61203 0.79957 0.0
C856 C 0.39471 0.0005 0.7961 0.0
C857 C 0.41241 0.00141 0.82305 0.0
C858 C 0.39488 0.99983 0.74594 0.0
C859 C 0.41279 0.00014 0.72096 0.0
H860 H 0.38035 0.99968 0.81384 0.0
H861 H 0.38108 0.99948 0.72665 0.0
S862 S 0.46341 0.0029 0.77494 0.0
N863 N 0.44854 0.00309 0.82082 0.0
N864 N 0.44871 0.00149 0.72736 0.0
C865 C 0.43061 0.00118 0.74766 0.0
C866 C 0.43048 0.00194 0.79839 0.0
C867 C 0.60743 0.99752 0.24434 0.0
C868 C 0.5893 0.99662 0.2191 0.0
C869 C 0.60906 1.00006 0.29427 0.0
C870 C 0.59261 0.0018 0.32081 0.0
H871 H 0.62072 0.99673 0.22536 0.0
H872 H 0.62302 0.00015 0.31225 0.0
S873 S 0.54177 0.00044 0.27182 0.0
N874 N 0.55443 0.99742 0.22488 0.0
N875 N 0.55776 0.00274 0.31767 0.0
C876 C 0.57449 0.00104 0.29583 0.0
C877 C 0.57274 0.99826 0.24539 0.0
C878 C 0.00437 0.58301 0.28929 0.0
C879 C 0.99779 0.5961 0.31604 0.0
C880 C 0.00665 0.58491 0.23987 0.0
C881 C 0.00231 0.59985 0.21422 0.0
H882 H 0.00793 0.57105 0.30654 0.0
H883 H 0.0114 0.57406 0.22149 0.0
S884 S 0.98478 0.63833 0.26638 0.0
N885 N 0.9874 0.62509 0.31286 0.0
N886 N 0.99118 0.62826 0.21923 0.0
C887 C 0.996 0.61338 0.24019 0.0
C888 C 0.99376 0.61152 0.2911 0.0
C889 C 0.39273 0.3954 0.24626 0.0
C890 C 0.4101 0.41309 0.22031 0.0
C891 C 0.39347 0.39461 0.29636 0.0
C892 C 0.41157 0.41151 0.32232 0.0
H893 H 0.3787 0.38181 0.22776 0.0
H894 H 0.37949 0.38097 0.31487 0.0
S895 S 0.46132 0.46143 0.27137 0.0
N896 N 0.44586 0.44796 0.2247 0.0
N897 N 0.4474 0.44628 0.31801 0.0
C898 C 0.42905 0.42919 0.29666 0.0
C899 C 0.42826 0.43005 0.24599 0.0
C900 C 0.341 0.17476 0.15199 0.0
C901 C 0.33062 0.18589 0.17277 0.0
C902 C 0.33495 0.15279 0.16492 0.0
C903 C 0.31824 0.14098 0.1992 0.0
H904 H 0.35399 0.18305 0.12537 0.0
H905 H 0.3436 0.14511 0.14804 0.0
S906 S 0.28564 0.16237 0.26416 0.0
N907 N 0.30262 0.18332 0.2292 0.0
N908 N 0.29119 0.14205 0.25361 0.0
C909 C 0.30759 0.15184 0.22017 0.0
C910 C 0.31379 0.17427 0.20697 0.0
C911 C 0.82171 0.17374 0.15171 0.0
C912 C 0.81045 0.15232 0.17298 0.0
C913 C 0.84348 0.18983 0.16551 0.0
C914 C 0.85491 0.18523 0.20121 0.0
H915 H 0.81378 0.17813 0.12372 0.0
H916 H 0.85138 0.20599 0.14785 0.0
S917 S 0.83277 0.13186 0.269 0.0
N918 N 0.81229 0.12749 0.23216 0.0
N919 N 0.85315 0.15769 0.25825 0.0
C920 C 0.84378 0.16394 0.22319 0.0
C921 C 0.82158 0.14753 0.20907 0.0
C922 C 0.84088 0.68448 0.22124 0.0
C923 C 0.81929 0.6746 0.20094 0.0
C924 C 0.85636 0.67799 0.20737 0.0
C925 C 0.85092 0.66134 0.1726 0.0
H926 H 0.84595 0.69732 0.24837 0.0
H927 H 0.87273 0.68616 0.22412 0.0
S928 S 0.79661 0.63022 0.10808 0.0
N929 N 0.79329 0.64732 0.14402 0.0
N930 N 0.8223 0.6351 0.11786 0.0
C931 C 0.82939 0.65133 0.15181 0.0
C932 C 0.81361 0.65797 0.16597 0.0
C933 C 0.15205 0.34226 0.37347 0.0
C934 C 0.14119 0.32672 0.33657 0.0
C935 C 0.17365 0.34787 0.38835 0.0
C936 C 0.1853 0.33814 0.36706 0.0
H937 H 0.1439 0.35031 0.39096 0.0
H938 H 0.18122 0.35994 0.41698 0.0
S939 S 0.16426 0.29627 0.2691 0.0
N940 N 0.1437 0.3015 0.2791 0.0
N941 N 0.18426 0.31206 0.30721 0.0
C942 C 0.17463 0.3225 0.3302 0.0
C943 C 0.1526 0.31679 0.31494 0.0
C944 C 0.67438 0.85244 0.32907 0.0
C945 C 0.65914 0.84798 0.36647 0.0
C946 C 0.6798 0.83633 0.31409 0.0
C947 C 0.67023 0.81505 0.33584 0.0
H948 H 0.68232 0.86856 0.31124 0.0
H949 H 0.69166 0.84068 0.28511 0.0
S950 S 0.62923 0.79481 0.43533 0.0
N951 N 0.6344 0.82057 0.42497 0.0
N952 N 0.64465 0.79035 0.39669 0.0
C953 C 0.65489 0.8103 0.3732 0.0
C954 C 0.64934 0.82672 0.38851 0.0
C955 C 0.15449 0.81917 0.33122 0.0
C956 C 0.15919 0.80861 0.36869 0.0
C957 C 0.17036 0.84078 0.31609 0.0
C958 C 0.19162 0.85279 0.33777 0.0
H959 H 0.13832 0.81082 0.31366 0.0
H960 H 0.16576 0.84814 0.28725 0.0
S961 S 0.21265 0.83251 0.43664 0.0
N962 N 0.18697 0.81168 0.42662 0.0
N963 N 0.21672 0.85229 0.39808 0.0
C964 C 0.1967 0.84236 0.37489 0.0
C965 C 0.18053 0.82028 0.39033 0.0
C966 C 0.67796 0.84112 0.81978 0.0
C967 C 0.6683 0.85305 0.84005 0.0
C968 C 0.67148 0.81922 0.83417 0.0
C969 C 0.65511 0.80833 0.86956 0.0
H970 H 0.6907 0.84871 0.79243 0.0
H971 H 0.67957 0.8109 0.81765 0.0
S972 S 0.62425 0.83196 0.93345 0.0
N973 N 0.64123 0.85217 0.89696 0.0
N974 N 0.62903 0.81104 0.92417 0.0
C975 C 0.64515 0.81998 0.88997 0.0
C976 C 0.65174 0.84231 0.8752 0.0
C977 C 0.15318 0.84406 0.82331 0.0
C978 C 0.14121 0.8225 0.84371 0.0
C979 C 0.17509 0.85947 0.83765 0.0
C980 C 0.18598 0.854 0.87305 0.0
H981 H 0.14569 0.84911 0.79556 0.0
H982 H 0.18354 0.87579 0.82065 0.0
S983 S 0.16194 0.79986 0.93854 0.0
N984 N 0.14183 0.79657 0.90172 0.0
N985 N 0.18297 0.82547 0.92882 0.0
C986 C 0.17415 0.83255 0.89417 0.0
C987 C 0.1518 0.81684 0.87951 0.0
C988 C 0.14491 0.32308 0.84295 0.0
C989 C 0.14991 0.33929 0.87852 0.0
C990 C 0.16078 0.31723 0.82852 0.0
C991 C 0.18234 0.32733 0.84902 0.0
H992 H 0.12862 0.31484 0.82586 0.0
H993 H 0.15606 0.30475 0.80069 0.0
S994 S 0.20383 0.37051 0.94437 0.0
N995 N 0.17799 0.36521 0.93458 0.0
N996 N 0.20776 0.35417 0.90732 0.0
C997 C 0.18755 0.34344 0.88496 0.0
C998 C 0.17136 0.34943 0.89971 0.0
C999 C 0.83967 0.67659 0.72802 0.0
C1000 C 0.85187 0.66733 0.70729 0.0
C1001 C 0.81798 0.67039 0.71264 0.0
C1002 C 0.80754 0.65464 0.67588 0.0
H1003 H 0.84691 0.68884 0.75641 0.0
H1004 H 0.80943 0.67816 0.72959 0.0
S1005 S 0.83209 0.62514 0.61 0.0
N1006 N 0.85177 0.6414 0.64825 0.0
N1007 N 0.81103 0.62969 0.61926 0.0
C1008 C 0.81947 0.64509 0.65498 0.0
C1009 C 0.84161 0.65145 0.67066 0.0
C1010 C 0.34239 0.18842 0.66522 0.0
C1011 C 0.32606 0.18313 0.70061 0.0
C1012 C 0.34848 0.17275 0.65056 0.0
C1013 C 0.3385 0.1511 0.67067 0.0
H1014 H 0.35062 0.20483 0.64861 0.0
H1015 H 0.3611 0.1777 0.623 0.0
S1016 S 0.29488 0.12878 0.765 0.0
N1017 N 0.30001 0.15461 0.75575 0.0
N1018 N 0.3115 0.12522 0.72809 0.0
C1019 C 0.32218 0.14557 0.70623 0.0
C1020 C 0.31595 0.16154 0.72119 0.0
C1021 C 0.83402 0.17425 0.64373 0.0
C1022 C 0.8556 0.18631 0.66401 0.0
C1023 C 0.8185 0.15256 0.65909 0.0
C1024 C 0.82387 0.14199 0.69538 0.0
H1025 H 0.82892 0.18163 0.61584 0.0
H1026 H 0.80206 0.14416 0.64263 0.0
S1027 S 0.87837 0.16599 0.75937 0.0
N1028 N 0.88171 0.18583 0.72169 0.0
N1029 N 0.8526 0.14508 0.75064 0.0
C1030 C 0.84552 0.15371 0.7156 0.0
C1031 C 0.86134 0.17585 0.69994 0.0
C1032 C 0.99644 0.48554 0.49233 0.0
C1033 C 0.98002 0.47457 0.52761 0.0
C1034 C 0.00288 0.50743 0.47796 0.0
C1035 C 0.99318 0.51932 0.49825 0.0
H1036 H 0.00467 0.4773 0.476 0.0
H1037 H 0.01574 0.51511 0.45089 0.0
S1038 S 0.94881 0.49796 0.59097 0.0
N1039 N 0.9537 0.4771 0.58177 0.0
N1040 N 0.96585 0.51824 0.55469 0.0
C1041 C 0.97647 0.50846 0.53305 0.0
C1042 C 0.96987 0.48611 0.54772 0.0
C1043 C 0.50748 0.49942 0.55986 0.0
C1044 C 0.51929 0.52085 0.53882 0.0
C1045 C 0.4859 0.48352 0.54465 0.0
C1046 C 0.47518 0.48837 0.50777 0.0
H1047 H 0.51495 0.49474 0.58832 0.0
H1048 H 0.47766 0.46724 0.56182 0.0
S1049 S 0.49863 0.5422 0.44128 0.0
N1050 N 0.51851 0.54619 0.47949 0.0
N1051 N 0.47795 0.51639 0.45082 0.0
C1052 C 0.4867 0.50983 0.48662 0.0
C1053 C 0.50874 0.52603 0.50212 0.0
C1054 C 0.50029 0.98866 0.49032 0.0
C1055 C 0.52194 0.99885 0.5104 0.0
C1056 C 0.48461 0.99483 0.50438 0.0
C1057 C 0.48989 0.01144 0.53914 0.0
H1058 H 0.4953 0.97577 0.46335 0.0
H1059 H 0.46817 0.98636 0.48795 0.0
S1060 S 0.54436 0.04348 0.60269 0.0
N1061 N 0.5479 0.02652 0.56675 0.0
N1062 N 0.51848 0.03815 0.5933 0.0
C1063 C 0.51153 0.02186 0.55949 0.0
C1064 C 0.52752 0.01555 0.54513 0.0
C1065 C 0.48675 0.00352 0.03978 0.0
C1066 C 0.47531 0.98705 1.0048 0.0
C1067 C 0.50866 0.00964 0.05334 0.0
C1068 C 0.52007 0.99956 0.03251 0.0
H1069 H 0.47884 0.01193 0.05671 0.0
H1070 H 0.51667 0.02245 0.08046 0.0
S1071 S 0.49753 0.95527 0.93948 0.0
N1072 N 0.47701 0.96055 0.94973 0.0
N1073 N 0.51816 0.9721 0.97532 0.0
C1074 C 0.50881 0.98297 0.99764 0.0
C1075 C 0.48645 0.9767 0.9838 0.0
C1076 C 0.01188 0.52578 0.99738 0.0
C1077 C 0.99715 0.52112 0.03589 0.0
C1078 C 0.01778 0.51006 0.98193 0.0
C1079 C 0.00917 0.489 1.00425 0.0
H1080 H 0.01896 0.54169 0.97888 0.0
H1081 H 0.02909 0.51449 0.95189 0.0
S1082 S 0.97009 0.46852 0.10715 0.0
N1083 N 0.97417 0.49387 0.09645 0.0
N1084 N 0.98527 0.4644 0.06725 0.0
C1085 C 0.99451 0.48413 0.043 0.0
C1086 C 0.9885 0.50016 0.05883 0.0
C1087 C 0.50513 0.48752 0.0512 0.0
C1088 C 0.48371 0.47613 0.03002 0.0
C1089 C 0.52113 0.50931 0.03728 0.0
C1090 C 0.51641 0.52065 1.00156 0.0
H1091 H 0.50961 0.47967 0.07922 0.0
H1092 H 0.5373 0.51731 0.05491 0.0
S1093 S 0.46299 0.49815 0.93392 0.0
N1094 N 0.45876 0.47774 0.97085 0.0
N1095 N 0.48876 0.51865 0.94455 0.0
C1096 C 0.49512 0.50938 0.97964 0.0
C1097 C 0.47881 0.48716 0.99387 0.0
C1098 C 0.36405 0.03627 0.05547 0.0
C1099 C 0.37513 0.02432 0.06668 0.0
C1100 C 0.35596 0.04469 0.09137 0.0
C1101 C 0.35801 0.04089 0.13993 0.0
H1102 H 0.36131 0.03887 1.01858 0.0
H1103 H 0.34714 0.05335 0.0809 0.0
S1104 S 0.38594 0.01092 0.1884 0.0
N1105 N 0.38838 0.00983 0.13005 0.0
N1106 N 0.37247 0.02484 0.19726 0.0
C1107 C 0.36937 0.02929 0.15162 0.0
C1108 C 0.37812 0.02124 0.11511 0.0
C1109 C 0.95565 0.31676 0.08636 0.0
C1110 C 0.9608 0.32278 0.13458 0.0
C1111 C 0.96374 0.33311 0.05014 0.0
C1112 C 0.97667 0.35617 0.06082 0.0
H1113 H 0.94613 0.29923 0.07631 0.0
H1114 H 0.96006 0.32763 1.01341 0.0
S1115 S 0.99384 0.38081 0.18164 0.0
N1116 N 0.97927 0.35347 0.1911 0.0
N1117 N 0.99361 0.38414 0.1234 0.0
C1118 C 0.98116 0.36244 0.10903 0.0
C1119 C 0.97347 0.34577 0.14577 0.0
C1120 C 0.67497 0.63844 0.06075 0.0
C1121 C 0.65193 0.62654 0.0718 0.0
C1122 C 0.69141 0.64622 0.09677 0.0
C1123 C 0.68543 0.64309 0.14529 0.0
H1124 H 0.68034 0.64199 0.02394 0.0
H1125 H 0.70892 0.65564 0.08654 0.0
S1126 S 0.62745 0.61291 0.19323 0.0
N1127 N 0.62405 0.61145 0.13482 0.0
N1128 N 0.65482 0.62689 0.20237 0.0
C1129 C 0.66246 0.63101 0.15677 0.0
C1130 C 0.64575 0.62252 0.1201 0.0
C1131 C 0.02373 0.36783 0.38996 0.0
C1132 C 0.03534 0.35649 0.40195 0.0
C1133 C 0.01579 0.37665 0.42529 0.0
C1134 C 0.0185 0.37385 0.47407 0.0
H1135 H 0.0205 0.36965 0.35293 0.0
H1136 H 0.00658 0.38485 0.41429 0.0
S1137 S 0.04788 0.34567 0.52439 0.0
N1138 N 0.04975 0.34361 0.46613 0.0
N1139 N 0.03407 0.35931 0.5324 0.0
C1140 C 0.03035 0.36283 0.4865 0.0
C1141 C 0.03898 0.3544 0.45051 0.0
C1142 C 0.61957 0.6451 0.42865 0.0
C1143 C 0.6238 0.65179 0.4767 0.0
C1144 C 0.62785 0.66099 0.39154 0.0
C1145 C 0.64001 0.6842 0.40108 0.0
H1146 H 0.61075 0.62742 0.41955 0.0
H1147 H 0.62504 0.65504 0.35506 0.0
S1148 S 0.65424 0.71046 0.52093 0.0
N1149 N 0.64032 0.68322 0.53181 0.0
N1150 N 0.65495 0.71303 0.46233 0.0
C1151 C 0.64338 0.69111 0.44902 0.0
C1152 C 0.63554 0.67493 0.48673 0.0
C1153 C 0.36005 0.97875 0.42806 0.0
C1154 C 0.3536 0.97476 0.47627 0.0
C1155 C 0.34396 0.97108 0.39133 0.0
C1156 C 0.32082 0.95847 0.40126 0.0
H1157 H 0.37762 0.9888 0.41869 0.0
H1158 H 0.34968 0.97535 0.35486 0.0
S1159 S 0.29524 0.94213 0.52144 0.0
N1160 N 0.32249 0.95675 0.53184 0.0
N1161 N 0.29239 0.94153 0.46293 0.0
C1162 C 0.31422 0.95346 0.4492 0.0
C1163 C 0.33056 0.96183 0.48664 0.0
C1164 C 0.62671 0.96436 0.88899 0.0
C1165 C 0.63829 0.95273 0.89853 0.0
C1166 C 0.61832 0.9719 0.92606 0.0
C1167 C 0.62183 0.96876 0.9742 0.0
H1168 H 0.62446 0.96803 0.85254 0.0
H1169 H 0.61001 0.98123 0.91693 0.0
S1170 S 0.65045 0.93875 1.01848 0.0
N1171 N 0.65185 0.93755 0.95989 0.0
N1172 N 0.63697 0.95251 0.02931 0.0
C1173 C 0.63293 0.95674 0.98421 0.0
C1174 C 0.64091 0.94851 0.94648 0.0
C1175 C 0.03313 0.67699 0.97902 0.0
C1176 C 0.02235 0.65397 0.96772 0.0
C1177 C 0.04204 0.69354 0.94325 0.0
C1178 C 0.03986 0.68769 0.89468 0.0
H1179 H 0.03446 0.68226 1.01582 0.0
H1180 H 0.0498 0.71101 0.95366 0.0
S1181 S 0.01331 0.62981 0.84613 0.0
N1182 N 0.01068 0.62625 0.90446 0.0
N1183 N 0.0265 0.65721 0.83731 0.0
C1184 C 0.02937 0.66474 0.88296 0.0
C1185 C 0.02088 0.64793 0.91942 0.0
C1186 C 0.33847 0.3725 0.89265 0.0
C1187 C 0.31533 0.36127 0.90295 0.0
C1188 C 0.35468 0.38091 0.92916 0.0
C1189 C 0.34842 0.37782 0.97753 0.0
H1190 H 0.34411 0.37449 0.85602 0.0
H1191 H 0.37224 0.38895 0.9194 0.0
S1192 S 0.29013 0.35027 0.0238 0.0
N1193 N 0.28709 0.3485 0.96531 0.0
N1194 N 0.31744 0.36346 0.03369 0.0
C1195 C 0.32537 0.36707 0.98831 0.0
C1196 C 0.30888 0.35905 0.95114 0.0
C1197 C 0.94947 0.64256 0.59436 0.0
C1198 C 0.95324 0.6394 0.64229 0.0
C1199 C 0.95742 0.63477 0.55693 0.0
C1200 C 0.96873 0.62284 0.56602 0.0
H1201 H 0.94137 0.65214 0.58567 0.0
H1202 H 0.95508 0.63849 0.52059 0.0
S1203 S 0.9814 0.60876 0.68531 0.0
N1204 N 0.96837 0.6229 0.69676 0.0
N1205 N 0.98232 0.60738 0.62666 0.0
C1206 C 0.97156 0.61859 0.61378 0.0
C1207 C 0.96409 0.62711 0.65184 0.0
C1208 C 0.3574 0.31309 0.59444 0.0
C1209 C 0.3599 0.31935 0.64279 0.0
C1210 C 0.36528 0.32932 0.55794 0.0
C1211 C 0.37659 0.35247 0.5683 0.0
H1212 H 0.34837 0.29551 0.58462 0.0
H1213 H 0.36217 0.32366 0.52126 0.0
S1214 S 0.38892 0.37768 0.68923 0.0
N1215 N 0.37524 0.35035 0.69905 0.0
N1216 N 0.39078 0.38073 0.63074 0.0
C1217 C 0.38014 0.35893 0.61653 0.0
C1218 C 0.37158 0.34242 0.65365 0.0
C1219 C 0.64964 0.02619 0.61055 0.0
C1220 C 0.65573 0.02854 0.56211 0.0
C1221 C 0.66595 0.03372 0.64683 0.0
C1222 C 0.68904 0.04452 0.63617 0.0
H1223 H 0.6321 0.01754 0.62059 0.0
H1224 H 0.66041 0.03074 0.68358 0.0
S1225 S 0.71386 0.05626 0.51494 0.0
N1226 N 0.68652 0.04317 0.50546 0.0
N1227 N 0.7171 0.05807 0.57339 0.0
C1228 C 0.69537 0.04791 0.58787 0.0
C1229 C 0.67875 0.03971 0.55095 0.0
C1230 C 0.70742 0.68735 0.77791 0.0
C1231 C 0.7041 0.68981 0.72929 0.0
C1232 C 0.69825 0.69471 0.81368 0.0
C1233 C 0.68602 0.70546 0.80229 0.0
H1234 H 0.71632 0.67877 0.78847 0.0
H1235 H 0.70052 0.69169 0.85059 0.0
S1236 S 0.67353 0.71706 0.68046 0.0
N1237 N 0.68808 0.70422 0.67173 0.0
N1238 N 0.67171 0.71884 0.73882 0.0
C1239 C 0.68336 0.70885 0.75387 0.0
C1240 C 0.69216 0.70081 0.71744 0.0
C1241 C 0.30961 0.02461 0.77494 0.0
C1242 C 0.30589 0.01804 0.72677 0.0
C1243 C 0.3022 0.0086 0.81181 0.0
C1244 C 0.29013 0.98541 0.80203 0.0
H1245 H 0.31929 0.04223 0.7842 0.0
H1246 H 0.30629 0.01443 0.84826 0.0
S1247 S 0.27462 0.95948 0.68199 0.0
N1248 N 0.28868 0.98675 0.67139 0.0
N1249 N 0.27393 0.95677 0.74054 0.0
C1250 C 0.28535 0.97866 0.75411 0.0
C1251 C 0.29346 0.99493 0.71655 0.0
C1252 C 0.97801 0.28616 0.77539 0.0
C1253 C 0.98491 0.29065 0.72749 0.0
C1254 C 0.99373 0.29433 0.81285 0.0
C1255 C 0.01697 0.30662 0.80381 0.0
H1256 H 0.96031 0.27726 0.7841 0.0
H1257 H 0.98764 0.29135 0.8492 0.0
S1258 S 0.04373 0.32154 0.68456 0.0
N1259 N 0.01656 0.30756 0.67308 0.0
N1260 N 0.04604 0.32196 0.74319 0.0
C1261 C 0.02408 0.31023 0.75603 0.0
C1262 C 0.00808 0.30252 0.71797 0.0
C1263 C 0.30135 0.28348 0.27969 0.0
C1264 C 0.29859 0.28743 0.23161 0.0
C1265 C 0.29381 0.2918 0.3169 0.0
C1266 C 0.28257 0.30378 0.30757 0.0
H1267 H 0.3104 0.27486 0.28871 0.0
H1268 H 0.2972 0.28918 0.35332 0.0
S1269 S 0.26964 0.3172 0.1878 0.0
N1270 N 0.28308 0.30342 0.17675 0.0
N1271 N 0.26814 0.31819 0.24641 0.0
C1272 C 0.27872 0.30685 0.25964 0.0
C1273 C 0.28694 0.29893 0.22178 0.0
C1274 C 0.71541 0.02321 0.27559 0.0
C1275 C 0.71224 0.01672 0.22734 0.0
C1276 C 0.70694 0.00715 0.3124 0.0
C1277 C 0.69556 0.98396 0.30253 0.0
H1278 H 0.72357 0.04082 0.28502 0.0
H1279 H 0.709 0.01297 0.34892 0.0
S1280 S 0.68422 0.95818 0.18218 0.0
N1281 N 0.69759 0.98546 0.17178 0.0
N1282 N 0.68251 0.95541 0.24073 0.0
C1283 C 0.69323 0.97727 0.25448 0.0
C1284 C 0.70132 0.99361 0.217 0.0
C1285 C 0.02596 0.7119 0.26224 0.0
C1286 C 0.02012 0.70936 0.31083 0.0
C1287 C 0.00942 0.70331 0.22642 0.0
C1288 C 0.98641 0.69252 0.23772 0.0
H1289 H 0.04342 0.71969 0.2518 0.0
H1290 H 0.01469 0.70488 0.18958 0.0
S1291 S 0.96228 0.68261 0.35942 0.0
N1292 N 0.98966 0.69568 0.36823 0.0
N1293 N 0.95873 0.68043 0.30107 0.0
C1294 C 0.98039 0.69071 0.28608 0.0
C1295 C 0.99719 0.69888 0.32256 0.0
loop_
_geom_bond_atom_site_label_1
_geom_bond_atom_site_label_2
_geom_bond_distance
_geom_bond_site_symmetry_2
_ccdc_geom_bond_type
O0 Cd1 2.223 . S
O0 C8 1.315 . S
Cd1 O0 2.223 . S
Cd1 O4 2.297 . S
Cd1 O5 2.439 . S
Cd1 O11 2.240 . S
Cd2 O3 2.240 . S
Cd2 O10 2.223 . S
Cd2 O12 2.297 . S
Cd2 O13 2.439 . S
O3 Cd2 2.240 . S
O3 C8 1.279 . S
O4 Cd1 2.297 . S
O4 C6 1.247 . S
O5 Cd1 2.439 . S
O5 C6 1.208 . S
C6 O4 1.247 . S
C6 O5 1.208 . S
C7 O12 1.247 . S
C7 O13 1.208 . S
C8 O0 1.315 . S
C8 O3 1.279 . S
C9 O10 1.315 . S
C9 O11 1.279 . S
O10 Cd2 2.223 . S
O10 C9 1.315 . S
O11 Cd1 2.240 . S
O11 C9 1.279 . S
O12 Cd2 2.297 . S
O12 C7 1.247 . S
O13 Cd2 2.439 . S
O13 C7 1.208 . S
O14 Cd15 2.223 . S
O14 C22 1.315 . S
Cd15 O14 2.223 . S
Cd15 O18 2.297 . S
Cd15 O19 2.439 . S
Cd15 O25 2.240 . S
Cd16 O17 2.240 . S
Cd16 O24 2.223 . S
Cd16 O26 2.297 . S
Cd16 O27 2.439 . S
O17 Cd16 2.240 . S
O17 C22 1.279 . S
O18 Cd15 2.297 . S
O18 C20 1.247 . S
O19 Cd15 2.439 . S
O19 C20 1.208 . S
C20 O18 1.247 . S
C20 O19 1.208 . S
C21 O26 1.247 . S
C21 O27 1.208 . S
C22 O14 1.315 . S
C22 O17 1.279 . S
C23 O24 1.315 . S
C23 O25 1.279 . S
O24 Cd16 2.223 . S
O24 C23 1.315 . S
O25 Cd15 2.240 . S
O25 C23 1.279 . S
O26 Cd16 2.297 . S
O26 C21 1.247 . S
O27 Cd16 2.439 . S
O27 C21 1.208 . S
O28 Cd29 2.223 . S
O28 C36 1.315 . S
Cd29 O28 2.223 . S
Cd29 O32 2.297 . S
Cd29 O33 2.439 . S
Cd29 O39 2.240 . S
Cd30 O31 2.240 . S
Cd30 O38 2.223 . S
Cd30 O40 2.297 . S
Cd30 O41 2.439 . S
O31 Cd30 2.240 . S
O31 C36 1.279 . S
O32 Cd29 2.297 . S
O32 C34 1.247 . S
O33 Cd29 2.439 . S
O33 C34 1.208 . S
C34 O32 1.247 . S
C34 O33 1.208 . S
C35 O40 1.247 . S
C35 O41 1.208 . S
C36 O28 1.315 . S
C36 O31 1.279 . S
C37 O38 1.315 . S
C37 O39 1.279 . S
O38 Cd30 2.223 . S
O38 C37 1.315 . S
O39 Cd29 2.240 . S
O39 C37 1.279 . S
O40 Cd30 2.297 . S
O40 C35 1.247 . S
O41 Cd30 2.439 . S
O41 C35 1.208 . S
O42 Cd43 2.223 . S
O42 C50 1.315 . S
Cd43 O42 2.223 . S
Cd43 O46 2.297 . S
Cd43 O47 2.439 . S
Cd43 O53 2.240 . S
Cd44 O45 2.240 . S
Cd44 O52 2.223 . S
Cd44 O54 2.297 . S
Cd44 O55 2.439 . S
O45 Cd44 2.240 . S
O45 C50 1.279 . S
O46 Cd43 2.297 . S
O46 C48 1.247 . S
O47 Cd43 2.439 . S
O47 C48 1.208 . S
C48 O46 1.247 . S
C48 O47 1.208 . S
C49 O54 1.247 . S
C49 O55 1.208 . S
C50 O42 1.315 . S
C50 O45 1.279 . S
C51 O52 1.315 . S
C51 O53 1.279 . S
O52 Cd44 2.223 . S
O52 C51 1.315 . S
O53 Cd43 2.240 . S
O53 C51 1.279 . S
O54 Cd44 2.297 . S
O54 C49 1.247 . S
O55 Cd44 2.439 . S
O55 C49 1.208 . S
O56 Cd57 2.223 . S
O56 C64 1.315 . S
Cd57 O56 2.223 . S
Cd57 O60 2.297 . S
Cd57 O61 2.439 . S
Cd57 O67 2.240 . S
Cd58 O59 2.240 . S
Cd58 O66 2.223 . S
Cd58 O68 2.297 . S
Cd58 O69 2.439 . S
O59 Cd58 2.240 . S
O59 C64 1.279 . S
O60 Cd57 2.297 . S
O60 C62 1.247 . S
O61 Cd57 2.439 . S
O61 C62 1.208 . S
C62 O60 1.247 . S
C62 O61 1.208 . S
C63 O68 1.247 . S
C63 O69 1.208 . S
C64 O56 1.315 . S
C64 O59 1.279 . S
C65 O66 1.315 . S
C65 O67 1.279 . S
O66 Cd58 2.223 . S
O66 C65 1.315 . S
O67 Cd57 2.240 . S
O67 C65 1.279 . S
O68 Cd58 2.297 . S
O68 C63 1.247 . S
O69 Cd58 2.439 . S
O69 C63 1.208 . S
O70 Cd71 2.223 . S
O70 C78 1.315 . S
Cd71 O70 2.223 . S
Cd71 O74 2.297 . S
Cd71 O75 2.439 . S
Cd71 O81 2.240 . S
Cd72 O73 2.240 . S
Cd72 O80 2.223 . S
Cd72 O82 2.297 . S
Cd72 O83 2.439 . S
O73 Cd72 2.240 . S
O73 C78 1.279 . S
O74 Cd71 2.297 . S
O74 C76 1.247 . S
O75 Cd71 2.439 . S
O75 C76 1.208 . S
C76 O74 1.247 . S
C76 O75 1.208 . S
C77 O82 1.247 . S
C77 O83 1.208 . S
C78 O70 1.315 . S
C78 O73 1.279 . S
C79 O80 1.315 . S
C79 O81 1.279 . S
O80 Cd72 2.223 . S
O80 C79 1.315 . S
O81 Cd71 2.240 . S
O81 C79 1.279 . S
O82 Cd72 2.297 . S
O82 C77 1.247 . S
O83 Cd72 2.439 . S
O83 C77 1.208 . S
O84 Cd85 2.223 . S
O84 C92 1.315 . S
Cd85 O84 2.223 . S
Cd85 O88 2.297 . S
Cd85 O89 2.439 . S
Cd85 O95 2.240 . S
Cd86 O87 2.240 . S
Cd86 O94 2.223 . S
Cd86 O96 2.297 . S
Cd86 O97 2.439 . S
O87 Cd86 2.240 . S
O87 C92 1.279 . S
O88 Cd85 2.297 . S
O88 C90 1.247 . S
O89 Cd85 2.439 . S
O89 C90 1.208 . S
C90 O88 1.247 . S
C90 O89 1.208 . S
C91 O96 1.247 . S
C91 O97 1.208 . S
C92 O84 1.315 . S
C92 O87 1.279 . S
C93 O94 1.315 . S
C93 O95 1.279 . S
O94 Cd86 2.223 . S
O94 C93 1.315 . S
O95 Cd85 2.240 . S
O95 C93 1.279 . S
O96 Cd86 2.297 . S
O96 C91 1.247 . S
O97 Cd86 2.439 . S
O97 C91 1.208 . S
O98 Cd99 2.223 . S
O98 C106 1.315 . S
Cd99 O98 2.223 . S
Cd99 O102 2.297 . S
Cd99 O103 2.439 . S
Cd99 O109 2.240 . S
Cd100 O101 2.240 . S
Cd100 O108 2.223 . S
Cd100 O110 2.297 . S
Cd100 O111 2.439 . S
O101 Cd100 2.240 . S
O101 C106 1.279 . S
O102 Cd99 2.297 . S
O102 C104 1.247 . S
O103 Cd99 2.439 . S
O103 C104 1.208 . S
C104 O102 1.247 . S
C104 O103 1.208 . S
C105 O110 1.247 . S
C105 O111 1.208 . S
C106 O98 1.315 . S
C106 O101 1.279 . S
C107 O108 1.315 . S
C107 O109 1.279 . S
O108 Cd100 2.223 . S
O108 C107 1.315 . S
O109 Cd99 2.240 . S
O109 C107 1.279 . S
O110 Cd100 2.297 . S
O110 C105 1.247 . S
O111 Cd100 2.439 . S
O111 C105 1.208 . S
O112 Cd113 2.223 . S
O112 C120 1.315 . S
Cd113 O112 2.223 . S
Cd113 O116 2.297 . S
Cd113 O117 2.439 . S
Cd113 O123 2.240 . S
Cd114 O115 2.240 . S
Cd114 O122 2.223 . S
Cd114 O124 2.297 . S
Cd114 O125 2.439 . S
O115 Cd114 2.240 . S
O115 C120 1.279 . S
O116 Cd113 2.297 . S
O116 C118 1.247 . S
O117 Cd113 2.439 . S
O117 C118 1.208 . S
C118 O116 1.247 . S
C118 O117 1.208 . S
C119 O124 1.247 . S
C119 O125 1.208 . S
C120 O112 1.315 . S
C120 O115 1.279 . S
C121 O122 1.315 . S
C121 O123 1.279 . S
O122 Cd114 2.223 . S
O122 C121 1.315 . S
O123 Cd113 2.240 . S
O123 C121 1.279 . S
O124 Cd114 2.297 . S
O124 C119 1.247 . S
O125 Cd114 2.439 . S
O125 C119 1.208 . S
O126 Cd127 2.223 . S
O126 C134 1.315 . S
Cd127 O126 2.223 . S
Cd127 O130 2.297 . S
Cd127 O131 2.439 . S
Cd127 O137 2.240 . S
Cd128 O129 2.240 . S
Cd128 O136 2.223 . S
Cd128 O138 2.297 . S
Cd128 O139 2.439 . S
O129 Cd128 2.240 . S
O129 C134 1.279 . S
O130 Cd127 2.297 . S
O130 C132 1.247 . S
O131 Cd127 2.439 . S
O131 C132 1.208 . S
C132 O130 1.247 . S
C132 O131 1.208 . S
C133 O138 1.247 . S
C133 O139 1.208 . S
C134 O126 1.315 . S
C134 O129 1.279 . S
C135 O136 1.315 . S
C135 O137 1.279 . S
O136 Cd128 2.223 . S
O136 C135 1.315 . S
O137 Cd127 2.240 . S
O137 C135 1.279 . S
O138 Cd128 2.297 . S
O138 C133 1.247 . S
O139 Cd128 2.439 . S
O139 C133 1.208 . S
O140 Cd141 2.223 . S
O140 C148 1.315 . S
Cd141 O140 2.223 . S
Cd141 O144 2.297 . S
Cd141 O145 2.439 . S
Cd141 O151 2.240 . S
Cd142 O143 2.240 . S
Cd142 O150 2.223 . S
Cd142 O152 2.297 . S
Cd142 O153 2.439 . S
O143 Cd142 2.240 . S
O143 C148 1.279 . S
O144 Cd141 2.297 . S
O144 C146 1.247 . S
O145 Cd141 2.439 . S
O145 C146 1.208 . S
C146 O144 1.247 . S
C146 O145 1.208 . S
C147 O152 1.247 . S
C147 O153 1.208 . S
C148 O140 1.315 . S
C148 O143 1.279 . S
C149 O150 1.315 . S
C149 O151 1.279 . S
O150 Cd142 2.223 . S
O150 C149 1.315 . S
O151 Cd141 2.240 . S
O151 C149 1.279 . S
O152 Cd142 2.297 . S
O152 C147 1.247 . S
O153 Cd142 2.439 . S
O153 C147 1.208 . S
O154 Cd155 2.223 . S
O154 C162 1.315 . S
Cd155 O154 2.223 . S
Cd155 O158 2.297 . S
Cd155 O159 2.439 . S
Cd155 O165 2.240 . S
Cd156 O157 2.240 . S
Cd156 O164 2.223 . S
Cd156 O166 2.297 . S
Cd156 O167 2.439 . S
O157 Cd156 2.240 . S
O157 C162 1.279 . S
O158 Cd155 2.297 . S
O158 C160 1.247 . S
O159 Cd155 2.439 . S
O159 C160 1.208 . S
C160 O158 1.247 . S
C160 O159 1.208 . S
C161 O166 1.247 . S
C161 O167 1.208 . S
C162 O154 1.315 . S
C162 O157 1.279 . S
C163 O164 1.315 . S
C163 O165 1.279 . S
O164 Cd156 2.223 . S
O164 C163 1.315 . S
O165 Cd155 2.240 . S
O165 C163 1.279 . S
O166 Cd156 2.297 . S
O166 C161 1.247 . S
O167 Cd156 2.439 . S
O167 C161 1.208 . S
O168 Cd169 2.223 . S
O168 C176 1.315 1_655 S
Cd169 O168 2.223 . S
Cd169 O172 2.297 . S
Cd169 O173 2.439 1_655 S
Cd169 O179 2.240 . S
Cd170 O171 2.240 . S
Cd170 O178 2.223 . S
Cd170 O180 2.297 . S
Cd170 O181 2.439 . S
O171 Cd170 2.240 . S
O171 C176 1.279 . S
O172 Cd169 2.297 . S
O172 C174 1.247 1_655 S
O173 Cd169 2.439 1_455 S
O173 C174 1.208 . S
C174 O172 1.247 1_455 S
C174 O173 1.208 . S
C175 O180 1.247 . S
C175 O181 1.208 . S
C176 O168 1.315 1_455 S
C176 O171 1.279 . S
C177 O178 1.315 1_655 S
C177 O179 1.279 . S
O178 Cd170 2.223 . S
O178 C177 1.315 1_455 S
O179 Cd169 2.240 . S
O179 C177 1.279 . S
O180 Cd170 2.297 . S
O180 C175 1.247 . S
O181 Cd170 2.439 . S
O181 C175 1.208 . S
O182 Cd183 2.223 . S
O182 C190 1.315 . S
Cd183 O182 2.223 . S
Cd183 O186 2.297 . S
Cd183 O187 2.439 . S
Cd183 O193 2.240 . S
Cd184 O185 2.240 . S
Cd184 O192 2.223 . S
Cd184 O194 2.297 . S
Cd184 O195 2.439 . S
O185 Cd184 2.240 . S
O185 C190 1.279 . S
O186 Cd183 2.297 . S
O186 C188 1.247 . S
O187 Cd183 2.439 . S
O187 C188 1.208 . S
C188 O186 1.247 . S
C188 O187 1.208 . S
C189 O194 1.247 . S
C189 O195 1.208 . S
C190 O182 1.315 . S
C190 O185 1.279 . S
C191 O192 1.315 . S
C191 O193 1.279 . S
O192 Cd184 2.223 . S
O192 C191 1.315 . S
O193 Cd183 2.240 . S
O193 C191 1.279 . S
O194 Cd184 2.297 . S
O194 C189 1.247 . S
O195 Cd184 2.439 . S
O195 C189 1.208 . S
O196 Cd197 2.223 . S
O196 C204 1.315 1_545 S
Cd197 O196 2.223 . S
Cd197 O200 2.297 . S
Cd197 O201 2.439 1_545 S
Cd197 O207 2.240 . S
Cd198 O199 2.240 . S
Cd198 O206 2.223 . S
Cd198 O208 2.297 . S
Cd198 O209 2.439 . S
O199 Cd198 2.240 . S
O199 C204 1.279 . S
O200 Cd197 2.297 . S
O200 C202 1.247 1_545 S
O201 Cd197 2.439 1_565 S
O201 C202 1.208 . S
C202 O200 1.247 1_565 S
C202 O201 1.208 . S
C203 O208 1.247 . S
C203 O209 1.208 . S
C204 O196 1.315 1_565 S
C204 O199 1.279 . S
C205 O206 1.315 1_545 S
C205 O207 1.279 . S
O206 Cd198 2.223 . S
O206 C205 1.315 1_565 S
O207 Cd197 2.240 . S
O207 C205 1.279 . S
O208 Cd198 2.297 . S
O208 C203 1.247 . S
O209 Cd198 2.439 . S
O209 C203 1.208 . S
O210 Cd211 2.223 . S
O210 C218 1.315 . S
Cd211 O210 2.223 . S
Cd211 O214 2.297 . S
Cd211 O215 2.439 . S
Cd211 O221 2.240 . S
Cd212 O213 2.240 . S
Cd212 O220 2.223 . S
Cd212 O222 2.297 . S
Cd212 O223 2.439 . S
O213 Cd212 2.240 . S
O213 C218 1.279 . S
O214 Cd211 2.297 . S
O214 C216 1.247 . S
O215 Cd211 2.439 . S
O215 C216 1.208 . S
C216 O214 1.247 . S
C216 O215 1.208 . S
C217 O222 1.247 . S
C217 O223 1.208 . S
C218 O210 1.315 . S
C218 O213 1.279 . S
C219 O220 1.315 . S
C219 O221 1.279 . S
O220 Cd212 2.223 . S
O220 C219 1.315 . S
O221 Cd211 2.240 . S
O221 C219 1.279 . S
O222 Cd212 2.297 . S
O222 C217 1.247 . S
O223 Cd212 2.439 . S
O223 C217 1.208 . S
O224 Cd225 2.223 . S
O224 C232 1.315 . S
Cd225 O224 2.223 . S
Cd225 O228 2.297 . S
Cd225 O229 2.439 . S
Cd225 O235 2.240 . S
Cd226 O227 2.240 . S
Cd226 O234 2.223 . S
Cd226 O236 2.297 . S
Cd226 O237 2.439 . S
O227 Cd226 2.240 . S
O227 C232 1.279 . S
O228 Cd225 2.297 . S
O228 C230 1.247 . S
O229 Cd225 2.439 . S
O229 C230 1.208 . S
C230 O228 1.247 . S
C230 O229 1.208 . S
C231 O236 1.247 . S
C231 O237 1.208 . S
C232 O224 1.315 . S
C232 O227 1.279 . S
C233 O234 1.315 . S
C233 O235 1.279 . S
O234 Cd226 2.223 . S
O234 C233 1.315 . S
O235 Cd225 2.240 . S
O235 C233 1.279 . S
O236 Cd226 2.297 . S
O236 C231 1.247 . S
O237 Cd226 2.439 . S
O237 C231 1.208 . S
O238 Cd239 2.223 . S
O238 C246 1.315 . S
Cd239 O238 2.223 . S
Cd239 O242 2.297 . S
Cd239 O243 2.439 . S
Cd239 O249 2.240 . S
Cd240 O241 2.240 . S
Cd240 O248 2.223 . S
Cd240 O250 2.297 . S
Cd240 O251 2.439 . S
O241 Cd240 2.240 . S
O241 C246 1.279 . S
O242 Cd239 2.297 . S
O242 C244 1.247 . S
O243 Cd239 2.439 . S
O243 C244 1.208 . S
C244 O242 1.247 . S
C244 O243 1.208 . S
C245 O250 1.247 . S
C245 O251 1.208 . S
C246 O238 1.315 . S
C246 O241 1.279 . S
C247 O248 1.315 . S
C247 O249 1.279 . S
O248 Cd240 2.223 . S
O248 C247 1.315 . S
O249 Cd239 2.240 . S
O249 C247 1.279 . S
O250 Cd240 2.297 . S
O250 C245 1.247 . S
O251 Cd240 2.439 . S
O251 C245 1.208 . S
O252 Cd253 2.223 . S
O252 C260 1.315 . S
Cd253 O252 2.223 . S
Cd253 O256 2.297 . S
Cd253 O257 2.439 . S
Cd253 O263 2.240 . S
Cd254 O255 2.240 . S
Cd254 O262 2.223 . S
Cd254 O264 2.297 . S
Cd254 O265 2.439 . S
O255 Cd254 2.240 . S
O255 C260 1.279 . S
O256 Cd253 2.297 . S
O256 C258 1.247 . S
O257 Cd253 2.439 . S
O257 C258 1.208 . S
C258 O256 1.247 . S
C258 O257 1.208 . S
C259 O264 1.247 . S
C259 O265 1.208 . S
C260 O252 1.315 . S
C260 O255 1.279 . S
C261 O262 1.315 . S
C261 O263 1.279 . S
O262 Cd254 2.223 . S
O262 C261 1.315 . S
O263 Cd253 2.240 . S
O263 C261 1.279 . S
O264 Cd254 2.297 . S
O264 C259 1.247 . S
O265 Cd254 2.439 . S
O265 C259 1.208 . S
O266 Cd267 2.223 . S
O266 C274 1.315 . S
Cd267 O266 2.223 . S
Cd267 O270 2.297 . S
Cd267 O271 2.439 . S
Cd267 O277 2.240 . S
Cd268 O269 2.240 . S
Cd268 O276 2.223 . S
Cd268 O278 2.297 . S
Cd268 O279 2.439 . S
O269 Cd268 2.240 . S
O269 C274 1.279 . S
O270 Cd267 2.297 . S
O270 C272 1.247 . S
O271 Cd267 2.439 . S
O271 C272 1.208 . S
C272 O270 1.247 . S
C272 O271 1.208 . S
C273 O278 1.247 . S
C273 O279 1.208 . S
C274 O266 1.315 . S
C274 O269 1.279 . S
C275 O276 1.315 . S
C275 O277 1.279 . S
O276 Cd268 2.223 . S
O276 C275 1.315 . S
O277 Cd267 2.240 . S
O277 C275 1.279 . S
O278 Cd268 2.297 . S
O278 C273 1.247 . S
O279 Cd268 2.439 . S
O279 C273 1.208 . S
O280 Cd281 2.223 . S
O280 C288 1.315 . S
Cd281 O280 2.223 . S
Cd281 O284 2.297 . S
Cd281 O285 2.439 . S
Cd281 O291 2.240 . S
Cd282 O283 2.240 . S
Cd282 O290 2.223 . S
Cd282 O292 2.297 . S
Cd282 O293 2.439 . S
O283 Cd282 2.240 . S
O283 C288 1.279 . S
O284 Cd281 2.297 . S
O284 C286 1.247 . S
O285 Cd281 2.439 . S
O285 C286 1.208 . S
C286 O284 1.247 . S
C286 O285 1.208 . S
C287 O292 1.247 . S
C287 O293 1.208 . S
C288 O280 1.315 . S
C288 O283 1.279 . S
C289 O290 1.315 . S
C289 O291 1.279 . S
O290 Cd282 2.223 . S
O290 C289 1.315 . S
O291 Cd281 2.240 . S
O291 C289 1.279 . S
O292 Cd282 2.297 . S
O292 C287 1.247 . S
O293 Cd282 2.439 . S
O293 C287 1.208 . S
O294 Cd295 2.223 . S
O294 C302 1.315 1_545 S
Cd295 O294 2.223 . S
Cd295 O298 2.297 . S
Cd295 O299 2.439 1_545 S
Cd295 O305 2.240 . S
Cd296 O297 2.240 . S
Cd296 O304 2.223 . S
Cd296 O306 2.297 . S
Cd296 O307 2.439 1_554 S
O297 Cd296 2.240 . S
O297 C302 1.279 . S
O298 Cd295 2.297 . S
O298 C300 1.247 1_545 S
O299 Cd295 2.439 1_565 S
O299 C300 1.208 . S
C300 O298 1.247 1_565 S
C300 O299 1.208 . S
C301 O306 1.247 1_556 S
C301 O307 1.208 . S
C302 O294 1.315 1_565 S
C302 O297 1.279 . S
C303 O304 1.315 1_545 S
C303 O305 1.279 . S
O304 Cd296 2.223 . S
O304 C303 1.315 1_565 S
O305 Cd295 2.240 . S
O305 C303 1.279 . S
O306 Cd296 2.297 . S
O306 C301 1.247 1_554 S
O307 Cd296 2.439 1_556 S
O307 C301 1.208 . S
O308 Cd309 2.223 . S
O308 C316 1.315 1_655 S
Cd309 O308 2.223 . S
Cd309 O312 2.297 . S
Cd309 O313 2.439 1_655 S
Cd309 O319 2.240 . S
Cd310 O311 2.240 . S
Cd310 O318 2.223 . S
Cd310 O320 2.297 . S
Cd310 O321 2.439 1_554 S
O311 Cd310 2.240 . S
O311 C316 1.279 . S
O312 Cd309 2.297 . S
O312 C314 1.247 1_655 S
O313 Cd309 2.439 1_455 S
O313 C314 1.208 . S
C314 O312 1.247 1_455 S
C314 O313 1.208 . S
C315 O320 1.247 1_556 S
C315 O321 1.208 . S
C316 O308 1.315 1_455 S
C316 O311 1.279 . S
C317 O318 1.315 1_655 S
C317 O319 1.279 . S
O318 Cd310 2.223 . S
O318 C317 1.315 1_455 S
O319 Cd309 2.240 . S
O319 C317 1.279 . S
O320 Cd310 2.297 . S
O320 C315 1.247 1_554 S
O321 Cd310 2.439 1_556 S
O321 C315 1.208 . S
O322 Cd323 2.223 . S
O322 C330 1.315 . S
Cd323 O322 2.223 . S
Cd323 O326 2.297 . S
Cd323 O327 2.439 . S
Cd323 O333 2.240 . S
Cd324 O325 2.240 . S
Cd324 O332 2.223 . S
Cd324 O334 2.297 . S
Cd324 O335 2.439 1_554 S
O325 Cd324 2.240 . S
O325 C330 1.279 . S
O326 Cd323 2.297 . S
O326 C328 1.247 . S
O327 Cd323 2.439 . S
O327 C328 1.208 . S
C328 O326 1.247 . S
C328 O327 1.208 . S
C329 O334 1.247 1_556 S
C329 O335 1.208 . S
C330 O322 1.315 . S
C330 O325 1.279 . S
C331 O332 1.315 . S
C331 O333 1.279 . S
O332 Cd324 2.223 . S
O332 C331 1.315 . S
O333 Cd323 2.240 . S
O333 C331 1.279 . S
O334 Cd324 2.297 . S
O334 C329 1.247 1_554 S
O335 Cd324 2.439 1_556 S
O335 C329 1.208 . S
O336 Cd337 2.223 . S
O336 C344 1.315 . S
Cd337 O336 2.223 . S
Cd337 O340 2.297 . S
Cd337 O341 2.439 . S
Cd337 O347 2.240 . S
Cd338 O339 2.240 . S
Cd338 O346 2.223 . S
Cd338 O348 2.297 . S
Cd338 O349 2.439 . S
O339 Cd338 2.240 . S
O339 C344 1.279 . S
O340 Cd337 2.297 . S
O340 C342 1.247 . S
O341 Cd337 2.439 . S
O341 C342 1.208 . S
C342 O340 1.247 . S
C342 O341 1.208 . S
C343 O348 1.247 . S
C343 O349 1.208 . S
C344 O336 1.315 . S
C344 O339 1.279 . S
C345 O346 1.315 . S
C345 O347 1.279 . S
O346 Cd338 2.223 . S
O346 C345 1.315 . S
O347 Cd337 2.240 . S
O347 C345 1.279 . S
O348 Cd338 2.297 . S
O348 C343 1.247 . S
O349 Cd338 2.439 . S
O349 C343 1.208 . S
O350 Cd351 2.223 . S
O350 C358 1.315 . S
Cd351 O350 2.223 . S
Cd351 O354 2.297 . S
Cd351 O355 2.439 . S
Cd351 O361 2.240 . S
Cd352 O353 2.240 . S
Cd352 O360 2.223 . S
Cd352 O362 2.297 . S
Cd352 O363 2.439 . S
O353 Cd352 2.240 . S
O353 C358 1.279 . S
O354 Cd351 2.297 . S
O354 C356 1.247 . S
O355 Cd351 2.439 . S
O355 C356 1.208 . S
C356 O354 1.247 . S
C356 O355 1.208 . S
C357 O362 1.247 . S
C357 O363 1.208 . S
C358 O350 1.315 . S
C358 O353 1.279 . S
C359 O360 1.315 . S
C359 O361 1.279 . S
O360 Cd352 2.223 . S
O360 C359 1.315 . S
O361 Cd351 2.240 . S
O361 C359 1.279 . S
O362 Cd352 2.297 . S
O362 C357 1.247 . S
O363 Cd352 2.439 . S
O363 C357 1.208 . S
O364 Cd365 2.223 . S
O364 C372 1.315 . S
Cd365 O364 2.223 . S
Cd365 O368 2.297 . S
Cd365 O369 2.439 . S
Cd365 O375 2.240 . S
Cd366 O367 2.240 . S
Cd366 O374 2.223 . S
Cd366 O376 2.297 . S
Cd366 O377 2.439 . S
O367 Cd366 2.240 . S
O367 C372 1.279 . S
O368 Cd365 2.297 . S
O368 C370 1.247 . S
O369 Cd365 2.439 . S
O369 C370 1.208 . S
C370 O368 1.247 . S
C370 O369 1.208 . S
C371 O376 1.247 . S
C371 O377 1.208 . S
C372 O364 1.315 . S
C372 O367 1.279 . S
C373 O374 1.315 . S
C373 O375 1.279 . S
O374 Cd366 2.223 . S
O374 C373 1.315 . S
O375 Cd365 2.240 . S
O375 C373 1.279 . S
O376 Cd366 2.297 . S
O376 C371 1.247 . S
O377 Cd366 2.439 . S
O377 C371 1.208 . S
O378 Cd379 2.223 . S
O378 C386 1.315 1_565 S
Cd379 O378 2.223 . S
Cd379 O382 2.297 . S
Cd379 O383 2.439 1_565 S
Cd379 O389 2.240 . S
Cd380 O381 2.240 . S
Cd380 O388 2.223 . S
Cd380 O390 2.297 . S
Cd380 O391 2.439 1_556 S
O381 Cd380 2.240 . S
O381 C386 1.279 . S
O382 Cd379 2.297 . S
O382 C384 1.247 1_565 S
O383 Cd379 2.439 1_545 S
O383 C384 1.208 . S
C384 O382 1.247 1_545 S
C384 O383 1.208 . S
C385 O390 1.247 1_554 S
C385 O391 1.208 . S
C386 O378 1.315 1_545 S
C386 O381 1.279 . S
C387 O388 1.315 1_565 S
C387 O389 1.279 . S
O388 Cd380 2.223 . S
O388 C387 1.315 1_545 S
O389 Cd379 2.240 . S
O389 C387 1.279 . S
O390 Cd380 2.297 . S
O390 C385 1.247 1_556 S
O391 Cd380 2.439 1_554 S
O391 C385 1.208 . S
O392 Cd393 2.223 . S
O392 C400 1.315 1_455 S
Cd393 O392 2.223 . S
Cd393 O396 2.297 . S
Cd393 O397 2.439 1_455 S
Cd393 O403 2.240 . S
Cd394 O395 2.240 . S
Cd394 O402 2.223 . S
Cd394 O404 2.297 . S
Cd394 O405 2.439 1_556 S
O395 Cd394 2.240 . S
O395 C400 1.279 . S
O396 Cd393 2.297 . S
O396 C398 1.247 1_455 S
O397 Cd393 2.439 1_655 S
O397 C398 1.208 . S
C398 O396 1.247 1_655 S
C398 O397 1.208 . S
C399 O404 1.247 1_554 S
C399 O405 1.208 . S
C400 O392 1.315 1_655 S
C400 O395 1.279 . S
C401 O402 1.315 1_455 S
C401 O403 1.279 . S
O402 Cd394 2.223 . S
O402 C401 1.315 1_655 S
O403 Cd393 2.240 . S
O403 C401 1.279 . S
O404 Cd394 2.297 . S
O404 C399 1.247 1_556 S
O405 Cd394 2.439 1_554 S
O405 C399 1.208 . S
O406 Cd407 2.223 . S
O406 C414 1.315 . S
Cd407 O406 2.223 . S
Cd407 O410 2.297 . S
Cd407 O411 2.439 . S
Cd407 O417 2.240 . S
Cd408 O409 2.240 . S
Cd408 O416 2.223 . S
Cd408 O418 2.297 . S
Cd408 O419 2.439 1_556 S
O409 Cd408 2.240 . S
O409 C414 1.279 . S
O410 Cd407 2.297 . S
O410 C412 1.247 . S
O411 Cd407 2.439 . S
O411 C412 1.208 . S
C412 O410 1.247 . S
C412 O411 1.208 . S
C413 O418 1.247 1_554 S
C413 O419 1.208 . S
C414 O406 1.315 . S
C414 O409 1.279 . S
C415 O416 1.315 . S
C415 O417 1.279 . S
O416 Cd408 2.223 . S
O416 C415 1.315 . S
O417 Cd407 2.240 . S
O417 C415 1.279 . S
O418 Cd408 2.297 . S
O418 C413 1.247 1_556 S
O419 Cd408 2.439 1_554 S
O419 C413 1.208 . S
O420 Cd421 2.223 . S
O420 C428 1.315 1_455 S
Cd421 O420 2.223 . S
Cd421 O424 2.297 . S
Cd421 O425 2.439 1_455 S
Cd421 O431 2.240 . S
Cd422 O423 2.240 . S
Cd422 O430 2.223 . S
Cd422 O432 2.297 . S
Cd422 O433 2.439 . S
O423 Cd422 2.240 . S
O423 C428 1.279 . S
O424 Cd421 2.297 . S
O424 C426 1.247 1_455 S
O425 Cd421 2.439 1_655 S
O425 C426 1.208 . S
C426 O424 1.247 1_655 S
C426 O425 1.208 . S
C427 O432 1.247 . S
C427 O433 1.208 . S
C428 O420 1.315 1_655 S
C428 O423 1.279 . S
C429 O430 1.315 1_455 S
C429 O431 1.279 . S
O430 Cd422 2.223 . S
O430 C429 1.315 1_655 S
O431 Cd421 2.240 . S
O431 C429 1.279 . S
O432 Cd422 2.297 . S
O432 C427 1.247 . S
O433 Cd422 2.439 . S
O433 C427 1.208 . S
O434 Cd435 2.223 . S
O434 C442 1.315 . S
Cd435 O434 2.223 . S
Cd435 O438 2.297 . S
Cd435 O439 2.439 . S
Cd435 O445 2.240 . S
Cd436 O437 2.240 . S
Cd436 O444 2.223 . S
Cd436 O446 2.297 . S
Cd436 O447 2.439 . S
O437 Cd436 2.240 . S
O437 C442 1.279 . S
O438 Cd435 2.297 . S
O438 C440 1.247 . S
O439 Cd435 2.439 . S
O439 C440 1.208 . S
C440 O438 1.247 . S
C440 O439 1.208 . S
C441 O446 1.247 . S
C441 O447 1.208 . S
C442 O434 1.315 . S
C442 O437 1.279 . S
C443 O444 1.315 . S
C443 O445 1.279 . S
O444 Cd436 2.223 . S
O444 C443 1.315 . S
O445 Cd435 2.240 . S
O445 C443 1.279 . S
O446 Cd436 2.297 . S
O446 C441 1.247 . S
O447 Cd436 2.439 . S
O447 C441 1.208 . S
O448 Cd449 2.223 . S
O448 C456 1.315 1_565 S
Cd449 O448 2.223 . S
Cd449 O452 2.297 . S
Cd449 O453 2.439 1_565 S
Cd449 O459 2.240 . S
Cd450 O451 2.240 . S
Cd450 O458 2.223 . S
Cd450 O460 2.297 . S
Cd450 O461 2.439 . S
O451 Cd450 2.240 . S
O451 C456 1.279 . S
O452 Cd449 2.297 . S
O452 C454 1.247 1_565 S
O453 Cd449 2.439 1_545 S
O453 C454 1.208 . S
C454 O452 1.247 1_545 S
C454 O453 1.208 . S
C455 O460 1.247 . S
C455 O461 1.208 . S
C456 O448 1.315 1_545 S
C456 O451 1.279 . S
C457 O458 1.315 1_565 S
C457 O459 1.279 . S
O458 Cd450 2.223 . S
O458 C457 1.315 1_545 S
O459 Cd449 2.240 . S
O459 C457 1.279 . S
O460 Cd450 2.297 . S
O460 C455 1.247 . S
O461 Cd450 2.439 . S
O461 C455 1.208 . S
O462 Cd463 2.223 . S
O462 C470 1.315 . S
Cd463 O462 2.223 . S
Cd463 O466 2.297 . S
Cd463 O467 2.439 . S
Cd463 O473 2.240 . S
Cd464 O465 2.240 . S
Cd464 O472 2.223 . S
Cd464 O474 2.297 . S
Cd464 O475 2.439 . S
O465 Cd464 2.240 . S
O465 C470 1.279 . S
O466 Cd463 2.297 . S
O466 C468 1.247 . S
O467 Cd463 2.439 . S
O467 C468 1.208 . S
C468 O466 1.247 . S
C468 O467 1.208 . S
C469 O474 1.247 . S
C469 O475 1.208 . S
C470 O462 1.315 . S
C470 O465 1.279 . S
C471 O472 1.315 . S
C471 O473 1.279 . S
O472 Cd464 2.223 . S
O472 C471 1.315 . S
O473 Cd463 2.240 . S
O473 C471 1.279 . S
O474 Cd464 2.297 . S
O474 C469 1.247 . S
O475 Cd464 2.439 . S
O475 C469 1.208 . S
O476 Cd477 2.223 . S
O476 C484 1.315 . S
Cd477 O476 2.223 . S
Cd477 O480 2.297 . S
Cd477 O481 2.439 . S
Cd477 O487 2.240 . S
Cd478 O479 2.240 . S
Cd478 O486 2.223 . S
Cd478 O488 2.297 . S
Cd478 O489 2.439 . S
O479 Cd478 2.240 . S
O479 C484 1.279 . S
O480 Cd477 2.297 . S
O480 C482 1.247 . S
O481 Cd477 2.439 . S
O481 C482 1.208 . S
C482 O480 1.247 . S
C482 O481 1.208 . S
C483 O488 1.247 . S
C483 O489 1.208 . S
C484 O476 1.315 . S
C484 O479 1.279 . S
C485 O486 1.315 . S
C485 O487 1.279 . S
O486 Cd478 2.223 . S
O486 C485 1.315 . S
O487 Cd477 2.240 . S
O487 C485 1.279 . S
O488 Cd478 2.297 . S
O488 C483 1.247 . S
O489 Cd478 2.439 . S
O489 C483 1.208 . S
O490 Cd491 2.223 . S
O490 C498 1.315 . S
Cd491 O490 2.223 . S
Cd491 O494 2.297 . S
Cd491 O495 2.439 . S
Cd491 O501 2.240 . S
Cd492 O493 2.240 . S
Cd492 O500 2.223 . S
Cd492 O502 2.297 . S
Cd492 O503 2.439 . S
O493 Cd492 2.240 . S
O493 C498 1.279 . S
O494 Cd491 2.297 . S
O494 C496 1.247 . S
O495 Cd491 2.439 . S
O495 C496 1.208 . S
C496 O494 1.247 . S
C496 O495 1.208 . S
C497 O502 1.247 . S
C497 O503 1.208 . S
C498 O490 1.315 . S
C498 O493 1.279 . S
C499 O500 1.315 . S
C499 O501 1.279 . S
O500 Cd492 2.223 . S
O500 C499 1.315 . S
O501 Cd491 2.240 . S
O501 C499 1.279 . S
O502 Cd492 2.297 . S
O502 C497 1.247 . S
O503 Cd492 2.439 . S
O503 C497 1.208 . S
C504 C505 1.369 . S
C504 C506 1.419 1_565 S
C504 H508 0.930 . S
C505 C504 1.369 . S
C505 C514 1.429 . S
C506 C504 1.419 1_545 S
C506 C507 1.363 . S
C506 H509 0.929 . S
C507 C506 1.363 . S
C507 C513 1.428 . S
H508 C504 0.930 . S
H509 C506 0.929 . S
S510 N511 1.605 1_545 S
S510 N512 1.620 . S
N511 S510 1.605 1_565 S
N511 C514 1.350 . S
N512 S510 1.620 . S
N512 C513 1.351 . S
C513 C507 1.428 . S
C513 N512 1.351 . S
C513 C514 1.434 1_545 S
C514 C505 1.429 . S
C514 N511 1.350 . S
C514 C513 1.434 1_565 S
C515 C516 1.369 . S
C515 C517 1.419 1_455 S
C515 H519 0.930 . S
C516 C515 1.369 . S
C516 C525 1.429 . S
C517 C515 1.419 1_655 S
C517 C518 1.363 . S
C517 H520 0.929 . S
C518 C517 1.363 . S
C518 C524 1.428 . S
H519 C515 0.930 . S
H520 C517 0.929 . S
S521 N522 1.612 1_655 S
S521 N523 1.613 . S
N522 S521 1.612 1_455 S
N522 C525 1.350 . S
N523 S521 1.613 . S
N523 C524 1.351 . S
C524 C518 1.428 . S
C524 N523 1.351 . S
C524 C525 1.434 1_655 S
C525 C516 1.429 . S
C525 N522 1.350 . S
C525 C524 1.434 1_455 S
C526 C527 1.369 . S
C526 C528 1.419 . S
C526 H530 0.930 . S
C527 C526 1.369 . S
C527 C536 1.429 . S
C528 C526 1.419 . S
C528 C529 1.363 . S
C528 H531 0.929 . S
C529 C528 1.363 . S
C529 C535 1.428 . S
H530 C526 0.930 . S
H531 C528 0.929 . S
S532 N533 1.613 . S
S532 N534 1.610 . S
N533 S532 1.613 . S
N533 C536 1.350 . S
N534 S532 1.610 . S
N534 C535 1.351 . S
C535 C529 1.428 . S
C535 N534 1.351 . S
C535 C536 1.434 . S
C536 C527 1.429 . S
C536 N533 1.350 . S
C536 C535 1.434 . S
C537 C538 1.369 . S
C537 C539 1.419 1_565 S
C537 H541 0.930 . S
C538 C537 1.369 . S
C538 C547 1.429 . S
C539 C537 1.419 1_545 S
C539 C540 1.363 . S
C539 H542 0.929 . S
C540 C539 1.363 . S
C540 C546 1.428 . S
H541 C537 0.930 . S
H542 C539 0.929 . S
S543 N544 1.617 . S
S543 N545 1.604 1_565 S
N544 S543 1.617 . S
N544 C547 1.350 . S
N545 S543 1.604 1_545 S
N545 C546 1.351 . S
C546 C540 1.428 . S
C546 N545 1.351 . S
C546 C547 1.434 1_545 S
C547 C538 1.429 . S
C547 N544 1.350 . S
C547 C546 1.434 1_565 S
C548 C549 1.369 . S
C548 C550 1.419 1_455 S
C548 H552 0.930 . S
C549 C548 1.369 . S
C549 C558 1.429 . S
C550 C548 1.419 1_655 S
C550 C551 1.363 . S
C550 H553 0.929 . S
C551 C550 1.363 . S
C551 C557 1.428 . S
H552 C548 0.930 . S
H553 C550 0.929 . S
S554 N555 1.605 1_655 S
S554 N556 1.614 . S
N555 S554 1.605 1_455 S
N555 C558 1.350 . S
N556 S554 1.614 . S
N556 C557 1.351 . S
C557 C551 1.428 . S
C557 N556 1.351 . S
C557 C558 1.434 1_655 S
C558 C549 1.429 . S
C558 N555 1.350 . S
C558 C557 1.434 1_455 S
C559 C560 1.369 . S
C559 C561 1.419 . S
C559 H563 0.930 . S
C560 C559 1.369 . S
C560 C569 1.429 . S
C561 C559 1.419 . S
C561 C562 1.363 . S
C561 H564 0.929 . S
C562 C561 1.363 . S
C562 C568 1.428 . S
H563 C559 0.930 . S
H564 C561 0.929 . S
S565 N566 1.613 . S
S565 N567 1.610 . S
N566 S565 1.613 . S
N566 C569 1.350 . S
N567 S565 1.610 . S
N567 C568 1.351 . S
C568 C562 1.428 . S
C568 N567 1.351 . S
C568 C569 1.434 . S
C569 C560 1.429 . S
C569 N566 1.350 . S
C569 C568 1.434 . S
C570 C571 1.369 . S
C570 C572 1.419 . S
C570 H574 0.930 . S
C571 C570 1.369 . S
C571 C580 1.429 . S
C572 C570 1.419 . S
C572 C573 1.363 . S
C572 H575 0.929 . S
C573 C572 1.363 . S
C573 C579 1.428 . S
H574 C570 0.930 . S
H575 C572 0.929 . S
S576 N577 1.613 . S
S576 N578 1.610 . S
N577 S576 1.613 . S
N577 C580 1.350 . S
N578 S576 1.610 . S
N578 C579 1.351 . S
C579 C573 1.428 . S
C579 N578 1.351 . S
C579 C580 1.434 . S
C580 C571 1.429 . S
C580 N577 1.350 . S
C580 C579 1.434 . S
C581 C582 1.369 . S
C581 C583 1.419 . S
C581 H585 0.930 . S
C582 C581 1.369 . S
C582 C591 1.429 . S
C583 C581 1.419 . S
C583 C584 1.363 . S
C583 H586 0.929 . S
C584 C583 1.363 . S
C584 C590 1.428 . S
H585 C581 0.930 . S
H586 C583 0.929 . S
S587 N588 1.613 . S
S587 N589 1.610 . S
N588 S587 1.613 . S
N588 C591 1.350 . S
N589 S587 1.610 . S
N589 C590 1.351 . S
C590 C584 1.428 . S
C590 N589 1.351 . S
C590 C591 1.434 . S
C591 C582 1.429 . S
C591 N588 1.350 . S
C591 C590 1.434 . S
C592 C593 1.369 . S
C592 C594 1.419 . S
C592 H596 0.930 . S
C593 C592 1.369 . S
C593 C602 1.429 . S
C594 C592 1.419 . S
C594 C595 1.363 . S
C594 H597 0.929 . S
C595 C594 1.363 . S
C595 C601 1.428 . S
H596 C592 0.930 . S
H597 C594 0.929 . S
S598 N599 1.613 1_565 S
S598 N600 1.610 . S
N599 S598 1.613 1_545 S
N599 C602 1.350 . S
N600 S598 1.610 . S
N600 C601 1.351 1_565 S
C601 C595 1.428 . S
C601 N600 1.351 1_545 S
C601 C602 1.434 . S
C602 C593 1.429 . S
C602 N599 1.350 . S
C602 C601 1.434 . S
C603 C604 1.369 . S
C603 C605 1.419 . S
C603 H607 0.930 . S
C604 C603 1.369 . S
C604 C613 1.429 . S
C605 C603 1.419 . S
C605 C606 1.363 . S
C605 H608 0.929 . S
C606 C605 1.363 . S
C606 C612 1.428 . S
H607 C603 0.930 . S
H608 C605 0.929 . S
S609 N610 1.613 . S
S609 N611 1.610 . S
N610 S609 1.613 . S
N610 C613 1.350 . S
N611 S609 1.610 . S
N611 C612 1.351 . S
C612 C606 1.428 . S
C612 N611 1.351 . S
C612 C613 1.434 . S
C613 C604 1.429 . S
C613 N610 1.350 . S
C613 C612 1.434 . S
C614 C615 1.369 . S
C614 C616 1.419 . S
C614 H618 0.930 1_545 S
C615 C614 1.369 . S
C615 C624 1.429 . S
C616 C614 1.419 . S
C616 C617 1.363 . S
C616 H619 0.929 . S
C617 C616 1.363 . S
C617 C623 1.428 . S
H618 C614 0.930 1_565 S
H619 C616 0.929 . S
S620 N621 1.613 . S
S620 N622 1.610 . S
N621 S620 1.613 . S
N621 C624 1.350 . S
N622 S620 1.610 . S
N622 C623 1.351 . S
C623 C617 1.428 . S
C623 N622 1.351 . S
C623 C624 1.434 . S
C624 C615 1.429 . S
C624 N621 1.350 . S
C624 C623 1.434 . S
C625 C626 1.369 . S
C625 C627 1.419 . S
C625 H629 0.930 . S
C626 C625 1.369 . S
C626 C635 1.429 . S
C627 C625 1.419 . S
C627 C628 1.363 . S
C627 H630 0.929 . S
C628 C627 1.363 . S
C628 C634 1.428 . S
H629 C625 0.930 . S
H630 C627 0.929 . S
S631 N632 1.613 . S
S631 N633 1.610 . S
N632 S631 1.613 . S
N632 C635 1.350 . S
N633 S631 1.610 . S
N633 C634 1.351 . S
C634 C628 1.428 . S
C634 N633 1.351 . S
C634 C635 1.434 . S
C635 C626 1.429 . S
C635 N632 1.350 . S
C635 C634 1.434 . S
C636 C637 1.369 . S
C636 C638 1.419 . S
C636 H640 0.930 . S
C637 C636 1.369 . S
C637 C646 1.429 . S
C638 C636 1.419 . S
C638 C639 1.363 . S
C638 H641 0.929 . S
C639 C638 1.363 . S
C639 C645 1.428 . S
H640 C636 0.930 . S
H641 C638 0.929 . S
S642 N643 1.613 . S
S642 N644 1.610 . S
N643 S642 1.613 . S
N643 C646 1.350 . S
N644 S642 1.610 . S
N644 C645 1.351 . S
C645 C639 1.428 . S
C645 N644 1.351 . S
C645 C646 1.434 . S
C646 C637 1.429 . S
C646 N643 1.350 . S
C646 C645 1.434 . S
C647 C648 1.369 . S
C647 C649 1.419 . S
C647 H651 0.930 . S
C648 C647 1.369 . S
C648 C657 1.429 . S
C649 C647 1.419 . S
C649 C650 1.363 . S
C649 H652 0.929 . S
C650 C649 1.363 . S
C650 C656 1.428 . S
H651 C647 0.930 . S
H652 C649 0.929 . S
S653 N654 1.613 . S
S653 N655 1.610 . S
N654 S653 1.613 . S
N654 C657 1.350 1_554 S
N655 S653 1.610 . S
N655 C656 1.351 1_554 S
C656 C650 1.428 . S
C656 N655 1.351 1_556 S
C656 C657 1.434 . S
C657 C648 1.429 . S
C657 N654 1.350 1_556 S
C657 C656 1.434 . S
C658 C659 1.369 . S
C658 C660 1.419 . S
C658 H662 0.930 . S
C659 C658 1.369 . S
C659 C668 1.429 . S
C660 C658 1.419 . S
C660 C661 1.363 . S
C660 H663 0.929 . S
C661 C660 1.363 . S
C661 C667 1.428 . S
H662 C658 0.930 . S
H663 C660 0.929 . S
S664 N665 1.613 1_655 S
S664 N666 1.610 . S
N665 S664 1.613 1_455 S
N665 C668 1.350 . S
N666 S664 1.610 . S
N666 C667 1.351 1_655 S
C667 C661 1.428 . S
C667 N666 1.351 1_455 S
C667 C668 1.434 . S
C668 C659 1.429 . S
C668 N665 1.350 . S
C668 C667 1.434 . S
C669 C670 1.369 . S
C669 C671 1.419 . S
C669 H673 0.930 . S
C670 C669 1.369 . S
C670 C679 1.429 . S
C671 C669 1.419 . S
C671 C672 1.363 . S
C671 H674 0.929 . S
C672 C671 1.363 . S
C672 C678 1.428 . S
H673 C669 0.930 . S
H674 C671 0.929 . S
S675 N676 1.613 1_655 S
S675 N677 1.610 . S
N676 S675 1.613 1_455 S
N676 C679 1.350 . S
N677 S675 1.610 . S
N677 C678 1.351 1_655 S
C678 C672 1.428 . S
C678 N677 1.351 1_455 S
C678 C679 1.434 . S
C679 C670 1.429 . S
C679 N676 1.350 . S
C679 C678 1.434 . S
C680 C681 1.369 . S
C680 C682 1.419 . S
C680 H684 0.930 . S
C681 C680 1.369 . S
C681 C690 1.429 . S
C682 C680 1.419 . S
C682 C683 1.363 . S
C682 H685 0.929 . S
C683 C682 1.363 . S
C683 C689 1.428 . S
H684 C680 0.930 . S
H685 C682 0.929 . S
S686 N687 1.613 . S
S686 N688 1.610 . S
N687 S686 1.613 . S
N687 C690 1.350 . S
N688 S686 1.610 . S
N688 C689 1.351 . S
C689 C683 1.428 . S
C689 N688 1.351 . S
C689 C690 1.434 . S
C690 C681 1.429 . S
C690 N687 1.350 . S
C690 C689 1.434 . S
C691 C692 1.369 . S
C691 C693 1.419 . S
C691 H695 0.930 . S
C692 C691 1.369 . S
C692 C701 1.429 . S
C693 C691 1.419 . S
C693 C694 1.363 . S
C693 H696 0.929 . S
C694 C693 1.363 . S
C694 C700 1.428 . S
H695 C691 0.930 . S
H696 C693 0.929 . S
S697 N698 1.613 . S
S697 N699 1.610 . S
N698 S697 1.613 . S
N698 C701 1.350 . S
N699 S697 1.610 . S
N699 C700 1.351 . S
C700 C694 1.428 . S
C700 N699 1.351 . S
C700 C701 1.434 . S
C701 C692 1.429 . S
C701 N698 1.350 . S
C701 C700 1.434 . S
C702 C703 1.369 . S
C702 C704 1.419 . S
C702 H706 0.930 . S
C703 C702 1.369 . S
C703 C712 1.429 . S
C704 C702 1.419 . S
C704 C705 1.363 . S
C704 H707 0.929 . S
C705 C704 1.363 . S
C705 C711 1.428 . S
H706 C702 0.930 . S
H707 C704 0.929 . S
S708 N709 1.613 . S
S708 N710 1.610 . S
N709 S708 1.613 . S
N709 C712 1.350 . S
N710 S708 1.610 . S
N710 C711 1.351 . S
C711 C705 1.428 . S
C711 N710 1.351 . S
C711 C712 1.434 . S
C712 C703 1.429 . S
C712 N709 1.350 . S
C712 C711 1.434 . S
C713 C714 1.369 . S
C713 C715 1.419 . S
C713 H717 0.930 . S
C714 C713 1.369 . S
C714 C723 1.429 . S
C715 C713 1.419 . S
C715 C716 1.363 . S
C715 H718 0.929 . S
C716 C715 1.363 . S
C716 C722 1.428 . S
H717 C713 0.930 . S
H718 C715 0.929 . S
S719 N720 1.613 . S
S719 N721 1.610 . S
N720 S719 1.613 . S
N720 C723 1.350 . S
N721 S719 1.610 . S
N721 C722 1.351 . S
C722 C716 1.428 . S
C722 N721 1.351 . S
C722 C723 1.434 . S
C723 C714 1.429 . S
C723 N720 1.350 . S
C723 C722 1.434 . S
C724 C725 1.369 . S
C724 C726 1.419 . S
C724 H728 0.930 . S
C725 C724 1.369 . S
C725 C734 1.429 . S
C726 C724 1.419 . S
C726 C727 1.363 . S
C726 H729 0.929 . S
C727 C726 1.363 . S
C727 C733 1.428 . S
H728 C724 0.930 . S
H729 C726 0.929 . S
S730 N731 1.613 . S
S730 N732 1.610 . S
N731 S730 1.613 . S
N731 C734 1.350 . S
N732 S730 1.610 . S
N732 C733 1.351 . S
C733 C727 1.428 . S
C733 N732 1.351 . S
C733 C734 1.434 . S
C734 C725 1.429 . S
C734 N731 1.350 . S
C734 C733 1.434 . S
C735 C736 1.369 . S
C735 C737 1.419 . S
C735 H739 0.930 . S
C736 C735 1.369 . S
C736 C745 1.429 . S
C737 C735 1.419 . S
C737 C738 1.363 . S
C737 H740 0.929 . S
C738 C737 1.363 . S
C738 C744 1.428 . S
H739 C735 0.930 . S
H740 C737 0.929 . S
S741 N742 1.613 . S
S741 N743 1.610 . S
N742 S741 1.613 . S
N742 C745 1.350 . S
N743 S741 1.610 . S
N743 C744 1.351 . S
C744 C738 1.428 . S
C744 N743 1.351 . S
C744 C745 1.434 . S
C745 C736 1.429 . S
C745 N742 1.350 . S
C745 C744 1.434 . S
C746 C747 1.369 . S
C746 C748 1.419 . S
C746 H750 0.930 . S
C747 C746 1.369 . S
C747 C756 1.429 . S
C748 C746 1.419 . S
C748 C749 1.363 . S
C748 H751 0.929 . S
C749 C748 1.363 . S
C749 C755 1.428 . S
H750 C746 0.930 . S
H751 C748 0.929 . S
S752 N753 1.613 . S
S752 N754 1.610 . S
N753 S752 1.613 . S
N753 C756 1.350 . S
N754 S752 1.610 . S
N754 C755 1.351 . S
C755 C749 1.428 . S
C755 N754 1.351 . S
C755 C756 1.434 . S
C756 C747 1.429 . S
C756 N753 1.350 . S
C756 C755 1.434 . S
C757 C758 1.369 . S
C757 C759 1.419 . S
C757 H761 0.930 . S
C758 C757 1.369 . S
C758 C767 1.429 . S
C759 C757 1.419 . S
C759 C760 1.363 . S
C759 H762 0.929 . S
C760 C759 1.363 . S
C760 C766 1.428 . S
H761 C757 0.930 . S
H762 C759 0.929 . S
S763 N764 1.613 . S
S763 N765 1.610 . S
N764 S763 1.613 . S
N764 C767 1.350 . S
N765 S763 1.610 . S
N765 C766 1.351 . S
C766 C760 1.428 . S
C766 N765 1.351 . S
C766 C767 1.434 . S
C767 C758 1.429 . S
C767 N764 1.350 . S
C767 C766 1.434 . S
C768 C769 1.369 . S
C768 C770 1.419 . S
C768 H772 0.930 . S
C769 C768 1.369 . S
C769 C778 1.429 . S
C770 C768 1.419 . S
C770 C771 1.363 . S
C770 H773 0.929 . S
C771 C770 1.363 . S
C771 C777 1.428 . S
H772 C768 0.930 . S
H773 C770 0.929 . S
S774 N775 1.613 . S
S774 N776 1.610 . S
N775 S774 1.613 . S
N775 C778 1.350 . S
N776 S774 1.610 . S
N776 C777 1.351 . S
C777 C771 1.428 . S
C777 N776 1.351 . S
C777 C778 1.434 . S
C778 C769 1.429 . S
C778 N775 1.350 . S
C778 C777 1.434 . S
C779 C780 1.369 . S
C779 C781 1.419 . S
C779 H783 0.930 . S
C780 C779 1.369 . S
C780 C789 1.429 . S
C781 C779 1.419 . S
C781 C782 1.363 . S
C781 H784 0.929 . S
C782 C781 1.363 . S
C782 C788 1.428 . S
H783 C779 0.930 . S
H784 C781 0.929 . S
S785 N786 1.613 . S
S785 N787 1.610 . S
N786 S785 1.613 . S
N786 C789 1.350 . S
N787 S785 1.610 . S
N787 C788 1.351 . S
C788 C782 1.428 . S
C788 N787 1.351 . S
C788 C789 1.434 . S
C789 C780 1.429 . S
C789 N786 1.350 . S
C789 C788 1.434 . S
C790 C791 1.369 . S
C790 C792 1.419 . S
C790 H794 0.930 . S
C791 C790 1.369 . S
C791 C800 1.429 . S
C792 C790 1.419 . S
C792 C793 1.363 . S
C792 H795 0.929 . S
C793 C792 1.363 . S
C793 C799 1.428 . S
H794 C790 0.930 . S
H795 C792 0.929 . S
S796 N797 1.613 . S
S796 N798 1.610 . S
N797 S796 1.613 . S
N797 C800 1.350 . S
N798 S796 1.610 . S
N798 C799 1.351 . S
C799 C793 1.428 . S
C799 N798 1.351 . S
C799 C800 1.434 . S
C800 C791 1.429 . S
C800 N797 1.350 . S
C800 C799 1.434 . S
C801 C802 1.369 . S
C801 C803 1.419 . S
C801 H805 0.930 . S
C802 C801 1.369 . S
C802 C811 1.429 . S
C803 C801 1.419 . S
C803 C804 1.363 . S
C803 H806 0.929 . S
C804 C803 1.363 . S
C804 C810 1.428 . S
H805 C801 0.930 . S
H806 C803 0.929 . S
S807 N808 1.613 . S
S807 N809 1.610 . S
N808 S807 1.613 . S
N808 C811 1.350 . S
N809 S807 1.610 . S
N809 C810 1.351 . S
C810 C804 1.428 . S
C810 N809 1.351 . S
C810 C811 1.434 . S
C811 C802 1.429 . S
C811 N808 1.350 . S
C811 C810 1.434 . S
C812 C813 1.369 . S
C812 C814 1.419 . S
C812 H816 0.930 . S
C813 C812 1.369 . S
C813 C822 1.429 . S
C814 C812 1.419 . S
C814 C815 1.363 . S
C814 H817 0.929 . S
C815 C814 1.363 . S
C815 C821 1.428 . S
H816 C812 0.930 . S
H817 C814 0.929 . S
S818 N819 1.613 . S
S818 N820 1.610 . S
N819 S818 1.613 . S
N819 C822 1.350 . S
N820 S818 1.610 . S
N820 C821 1.351 . S
C821 C815 1.428 . S
C821 N820 1.351 . S
C821 C822 1.434 . S
C822 C813 1.429 . S
C822 N819 1.350 . S
C822 C821 1.434 . S
C823 C824 1.369 . S
C823 C825 1.419 . S
C823 H827 0.930 . S
C824 C823 1.369 . S
C824 C833 1.429 . S
C825 C823 1.419 . S
C825 C826 1.363 . S
C825 H828 0.929 . S
C826 C825 1.363 . S
C826 C832 1.428 . S
H827 C823 0.930 . S
H828 C825 0.929 . S
S829 N830 1.613 . S
S829 N831 1.610 . S
N830 S829 1.613 . S
N830 C833 1.350 . S
N831 S829 1.610 . S
N831 C832 1.351 . S
C832 C826 1.428 . S
C832 N831 1.351 . S
C832 C833 1.434 . S
C833 C824 1.429 . S
C833 N830 1.350 . S
C833 C832 1.434 . S
C834 C835 1.369 . S
C834 C836 1.419 . S
C834 H838 0.930 . S
C835 C834 1.369 . S
C835 C844 1.429 1_455 S
C836 C834 1.419 . S
C836 C837 1.363 1_455 S
C836 H839 0.929 . S
C837 C836 1.363 1_655 S
C837 C843 1.428 . S
H838 C834 0.930 . S
H839 C836 0.929 . S
S840 N841 1.613 . S
S840 N842 1.610 . S
N841 S840 1.613 . S
N841 C844 1.350 . S
N842 S840 1.610 . S
N842 C843 1.351 . S
C843 C837 1.428 . S
C843 N842 1.351 . S
C843 C844 1.434 . S
C844 C835 1.429 1_655 S
C844 N841 1.350 . S
C844 C843 1.434 . S
C845 C846 1.369 . S
C845 C847 1.419 . S
C845 H849 0.930 . S
C846 C845 1.369 . S
C846 C855 1.429 . S
C847 C845 1.419 . S
C847 C848 1.363 . S
C847 H850 0.929 . S
C848 C847 1.363 . S
C848 C854 1.428 . S
H849 C845 0.930 . S
H850 C847 0.929 . S
S851 N852 1.613 . S
S851 N853 1.610 . S
N852 S851 1.613 . S
N852 C855 1.350 . S
N853 S851 1.610 . S
N853 C854 1.351 . S
C854 C848 1.428 . S
C854 N853 1.351 . S
C854 C855 1.434 . S
C855 C846 1.429 . S
C855 N852 1.350 . S
C855 C854 1.434 . S
C856 C857 1.369 1_565 S
C856 C858 1.419 . S
C856 H860 0.930 . S
C857 C856 1.369 1_545 S
C857 C866 1.429 . S
C858 C856 1.419 . S
C858 C859 1.363 . S
C858 H861 0.929 . S
C859 C858 1.363 . S
C859 C865 1.428 1_565 S
H860 C856 0.930 . S
H861 C858 0.929 . S
S862 N863 1.613 . S
S862 N864 1.610 . S
N863 S862 1.613 . S
N863 C866 1.350 . S
N864 S862 1.610 . S
N864 C865 1.351 . S
C865 C859 1.428 1_545 S
C865 N864 1.351 . S
C865 C866 1.434 . S
C866 C857 1.429 . S
C866 N863 1.350 . S
C866 C865 1.434 . S
C867 C868 1.369 . S
C867 C869 1.419 1_565 S
C867 H871 0.930 . S
C868 C867 1.369 . S
C868 C877 1.429 . S
C869 C867 1.419 1_545 S
C869 C870 1.363 . S
C869 H872 0.929 . S
C870 C869 1.363 . S
C870 C876 1.428 . S
H871 C867 0.930 . S
H872 C869 0.929 . S
S873 N874 1.613 . S
S873 N875 1.610 1_565 S
N874 S873 1.613 . S
N874 C877 1.350 . S
N875 S873 1.610 1_545 S
N875 C876 1.351 . S
C876 C870 1.428 . S
C876 N875 1.351 . S
C876 C877 1.434 1_545 S
C877 C868 1.429 . S
C877 N874 1.350 . S
C877 C876 1.434 1_565 S
C878 C879 1.391 . S
C878 C880 1.409 1_655 S
C878 H882 0.924 . S
C879 C878 1.391 . S
C879 C888 1.429 . S
C880 C878 1.409 1_455 S
C880 C881 1.363 . S
C880 H883 0.929 . S
C881 C880 1.363 . S
C881 C887 1.427 1_455 S
H882 C878 0.924 . S
H883 C880 0.929 . S
S884 N885 1.613 . S
S884 N886 1.610 . S
N885 S884 1.613 . S
N885 C888 1.350 . S
N886 S884 1.610 . S
N886 C887 1.352 . S
C887 C881 1.427 1_655 S
C887 N886 1.352 . S
C887 C888 1.434 . S
C888 C879 1.429 . S
C888 N885 1.350 . S
C888 C887 1.434 . S
C889 C890 1.369 . S
C889 C891 1.419 . S
C889 H893 0.930 . S
C890 C889 1.369 . S
C890 C899 1.429 . S
C891 C889 1.419 . S
C891 C892 1.363 . S
C891 H894 0.929 . S
C892 C891 1.363 . S
C892 C898 1.428 . S
H893 C889 0.930 . S
H894 C891 0.929 . S
S895 N896 1.613 . S
S895 N897 1.610 . S
N896 S895 1.613 . S
N896 C899 1.350 . S
N897 S895 1.610 . S
N897 C898 1.351 . S
C898 C892 1.428 . S
C898 N897 1.351 . S
C898 C899 1.434 . S
C899 C890 1.429 . S
C899 N896 1.350 . S
C899 C898 1.434 . S
C900 C901 1.369 . S
C900 C902 1.419 . S
C900 H904 0.930 . S
C901 C900 1.369 . S
C901 C910 1.429 . S
C902 C900 1.419 . S
C902 C903 1.363 . S
C902 H905 0.929 . S
C903 C902 1.363 . S
C903 C909 1.428 . S
H904 C900 0.930 . S
H905 C902 0.929 . S
S906 N907 1.613 . S
S906 N908 1.610 . S
N907 S906 1.613 . S
N907 C910 1.350 . S
N908 S906 1.610 . S
N908 C909 1.351 . S
C909 C903 1.428 . S
C909 N908 1.351 . S
C909 C910 1.434 . S
C910 C901 1.429 . S
C910 N907 1.350 . S
C910 C909 1.434 . S
C911 C912 1.369 . S
C911 C913 1.419 . S
C911 H915 0.930 . S
C912 C911 1.369 . S
C912 C921 1.429 . S
C913 C911 1.419 . S
C913 C914 1.363 . S
C913 H916 0.929 . S
C914 C913 1.363 . S
C914 C920 1.428 . S
H915 C911 0.930 . S
H916 C913 0.929 . S
S917 N918 1.613 . S
S917 N919 1.610 . S
N918 S917 1.613 . S
N918 C921 1.350 . S
N919 S917 1.610 . S
N919 C920 1.351 . S
C920 C914 1.428 . S
C920 N919 1.351 . S
C920 C921 1.434 . S
C921 C912 1.429 . S
C921 N918 1.350 . S
C921 C920 1.434 . S
C922 C923 1.369 . S
C922 C924 1.419 . S
C922 H926 0.930 . S
C923 C922 1.369 . S
C923 C932 1.429 . S
C924 C922 1.419 . S
C924 C925 1.363 . S
C924 H927 0.929 . S
C925 C924 1.363 . S
C925 C931 1.428 . S
H926 C922 0.930 . S
H927 C924 0.929 . S
S928 N929 1.613 . S
S928 N930 1.610 . S
N929 S928 1.613 . S
N929 C932 1.350 . S
N930 S928 1.610 . S
N930 C931 1.351 . S
C931 C925 1.428 . S
C931 N930 1.351 . S
C931 C932 1.434 . S
C932 C923 1.429 . S
C932 N929 1.350 . S
C932 C931 1.434 . S
C933 C934 1.369 . S
C933 C935 1.419 . S
C933 H937 0.930 . S
C934 C933 1.369 . S
C934 C943 1.429 . S
C935 C933 1.419 . S
C935 C936 1.363 . S
C935 H938 0.929 . S
C936 C935 1.363 . S
C936 C942 1.428 . S
H937 C933 0.930 . S
H938 C935 0.929 . S
S939 N940 1.613 . S
S939 N941 1.610 . S
N940 S939 1.613 . S
N940 C943 1.350 . S
N941 S939 1.610 . S
N941 C942 1.351 . S
C942 C936 1.428 . S
C942 N941 1.351 . S
C942 C943 1.434 . S
C943 C934 1.429 . S
C943 N940 1.350 . S
C943 C942 1.434 . S
C944 C945 1.369 . S
C944 C946 1.419 . S
C944 H948 0.930 . S
C945 C944 1.369 . S
C945 C954 1.429 . S
C946 C944 1.419 . S
C946 C947 1.363 . S
C946 H949 0.929 . S
C947 C946 1.363 . S
C947 C953 1.428 . S
H948 C944 0.930 . S
H949 C946 0.929 . S
S950 N951 1.613 . S
S950 N952 1.610 . S
N951 S950 1.613 . S
N951 C954 1.350 . S
N952 S950 1.610 . S
N952 C953 1.351 . S
C953 C947 1.428 . S
C953 N952 1.351 . S
C953 C954 1.434 . S
C954 C945 1.429 . S
C954 N951 1.350 . S
C954 C953 1.434 . S
C955 C956 1.369 . S
C955 C957 1.419 . S
C955 H959 0.930 . S
C956 C955 1.369 . S
C956 C965 1.429 . S
C957 C955 1.419 . S
C957 C958 1.363 . S
C957 H960 0.929 . S
C958 C957 1.363 . S
C958 C964 1.428 . S
H959 C955 0.930 . S
H960 C957 0.929 . S
S961 N962 1.613 . S
S961 N963 1.610 . S
N962 S961 1.613 . S
N962 C965 1.350 . S
N963 S961 1.610 . S
N963 C964 1.351 . S
C964 C958 1.428 . S
C964 N963 1.351 . S
C964 C965 1.434 . S
C965 C956 1.429 . S
C965 N962 1.350 . S
C965 C964 1.434 . S
C966 C967 1.369 . S
C966 C968 1.419 . S
C966 H970 0.930 . S
C967 C966 1.369 . S
C967 C976 1.429 . S
C968 C966 1.419 . S
C968 C969 1.363 . S
C968 H971 0.929 . S
C969 C968 1.363 . S
C969 C975 1.428 . S
H970 C966 0.930 . S
H971 C968 0.929 . S
S972 N973 1.613 . S
S972 N974 1.610 . S
N973 S972 1.613 . S
N973 C976 1.350 . S
N974 S972 1.610 . S
N974 C975 1.351 . S
C975 C969 1.428 . S
C975 N974 1.351 . S
C975 C976 1.434 . S
C976 C967 1.429 . S
C976 N973 1.350 . S
C976 C975 1.434 . S
C977 C978 1.369 . S
C977 C979 1.419 . S
C977 H981 0.930 . S
C978 C977 1.369 . S
C978 C987 1.429 . S
C979 C977 1.419 . S
C979 C980 1.363 . S
C979 H982 0.929 . S
C980 C979 1.363 . S
C980 C986 1.428 . S
H981 C977 0.930 . S
H982 C979 0.929 . S
S983 N984 1.613 . S
S983 N985 1.610 . S
N984 S983 1.613 . S
N984 C987 1.350 . S
N985 S983 1.610 . S
N985 C986 1.351 . S
C986 C980 1.428 . S
C986 N985 1.351 . S
C986 C987 1.434 . S
C987 C978 1.429 . S
C987 N984 1.350 . S
C987 C986 1.434 . S
C988 C989 1.369 . S
C988 C990 1.419 . S
C988 H992 0.930 . S
C989 C988 1.369 . S
C989 C998 1.429 . S
C990 C988 1.419 . S
C990 C991 1.363 . S
C990 H993 0.929 . S
C991 C990 1.363 . S
C991 C997 1.428 . S
H992 C988 0.930 . S
H993 C990 0.929 . S
S994 N995 1.613 . S
S994 N996 1.610 . S
N995 S994 1.613 . S
N995 C998 1.350 . S
N996 S994 1.610 . S
N996 C997 1.351 . S
C997 C991 1.428 . S
C997 N996 1.351 . S
C997 C998 1.434 . S
C998 C989 1.429 . S
C998 N995 1.350 . S
C998 C997 1.434 . S
C999 C1000 1.369 . S
C999 C1001 1.419 . S
C999 H1003 0.930 . S
C1000 C999 1.369 . S
C1000 C1009 1.429 . S
C1001 C999 1.419 . S
C1001 C1002 1.363 . S
C1001 H1004 0.929 . S
C1002 C1001 1.363 . S
C1002 C1008 1.428 . S
H1003 C999 0.930 . S
H1004 C1001 0.929 . S
S1005 N1006 1.613 . S
S1005 N1007 1.610 . S
N1006 S1005 1.613 . S
N1006 C1009 1.350 . S
N1007 S1005 1.610 . S
N1007 C1008 1.351 . S
C1008 C1002 1.428 . S
C1008 N1007 1.351 . S
C1008 C1009 1.434 . S
C1009 C1000 1.429 . S
C1009 N1006 1.350 . S
C1009 C1008 1.434 . S
C1010 C1011 1.369 . S
C1010 C1012 1.419 . S
C1010 H1014 0.930 . S
C1011 C1010 1.369 . S
C1011 C1020 1.429 . S
C1012 C1010 1.419 . S
C1012 C1013 1.363 . S
C1012 H1015 0.929 . S
C1013 C1012 1.363 . S
C1013 C1019 1.428 . S
H1014 C1010 0.930 . S
H1015 C1012 0.929 . S
S1016 N1017 1.613 . S
S1016 N1018 1.610 . S
N1017 S1016 1.613 . S
N1017 C1020 1.350 . S
N1018 S1016 1.610 . S
N1018 C1019 1.351 . S
C1019 C1013 1.428 . S
C1019 N1018 1.351 . S
C1019 C1020 1.434 . S
C1020 C1011 1.429 . S
C1020 N1017 1.350 . S
C1020 C1019 1.434 . S
C1021 C1022 1.369 . S
C1021 C1023 1.419 . S
C1021 H1025 0.930 . S
C1022 C1021 1.369 . S
C1022 C1031 1.429 . S
C1023 C1021 1.419 . S
C1023 C1024 1.363 . S
C1023 H1026 0.929 . S
C1024 C1023 1.363 . S
C1024 C1030 1.428 . S
H1025 C1021 0.930 . S
H1026 C1023 0.929 . S
S1027 N1028 1.613 . S
S1027 N1029 1.610 . S
N1028 S1027 1.613 . S
N1028 C1031 1.350 . S
N1029 S1027 1.610 . S
N1029 C1030 1.351 . S
C1030 C1024 1.428 . S
C1030 N1029 1.351 . S
C1030 C1031 1.434 . S
C1031 C1022 1.429 . S
C1031 N1028 1.350 . S
C1031 C1030 1.434 . S
C1032 C1033 1.369 . S
C1032 C1034 1.419 . S
C1032 H1036 0.930 . S
C1033 C1032 1.369 . S
C1033 C1042 1.429 1_455 S
C1034 C1032 1.419 . S
C1034 C1035 1.363 1_455 S
C1034 H1037 0.929 . S
C1035 C1034 1.363 1_655 S
C1035 C1041 1.428 . S
H1036 C1032 0.930 . S
H1037 C1034 0.929 . S
S1038 N1039 1.613 . S
S1038 N1040 1.610 . S
N1039 S1038 1.613 . S
N1039 C1042 1.350 . S
N1040 S1038 1.610 . S
N1040 C1041 1.351 . S
C1041 C1035 1.428 . S
C1041 N1040 1.351 . S
C1041 C1042 1.434 . S
C1042 C1033 1.429 1_655 S
C1042 N1039 1.350 . S
C1042 C1041 1.434 . S
C1043 C1044 1.369 . S
C1043 C1045 1.419 . S
C1043 H1047 0.930 . S
C1044 C1043 1.369 . S
C1044 C1053 1.429 . S
C1045 C1043 1.419 . S
C1045 C1046 1.363 . S
C1045 H1048 0.929 . S
C1046 C1045 1.363 . S
C1046 C1052 1.428 . S
H1047 C1043 0.930 . S
H1048 C1045 0.929 . S
S1049 N1050 1.613 . S
S1049 N1051 1.610 . S
N1050 S1049 1.613 . S
N1050 C1053 1.350 . S
N1051 S1049 1.610 . S
N1051 C1052 1.351 . S
C1052 C1046 1.428 . S
C1052 N1051 1.351 . S
C1052 C1053 1.434 . S
C1053 C1044 1.429 . S
C1053 N1050 1.350 . S
C1053 C1052 1.434 . S
C1054 C1055 1.369 1_565 S
C1054 C1056 1.419 . S
C1054 H1058 0.930 . S
C1055 C1054 1.369 1_545 S
C1055 C1064 1.429 . S
C1056 C1054 1.419 . S
C1056 C1057 1.363 . S
C1056 H1059 0.929 . S
C1057 C1056 1.363 . S
C1057 C1063 1.428 1_565 S
H1058 C1054 0.930 . S
H1059 C1056 0.929 . S
S1060 N1061 1.613 . S
S1060 N1062 1.610 . S
N1061 S1060 1.613 . S
N1061 C1064 1.350 . S
N1062 S1060 1.610 . S
N1062 C1063 1.351 . S
C1063 C1057 1.428 1_545 S
C1063 N1062 1.351 . S
C1063 C1064 1.434 . S
C1064 C1055 1.429 . S
C1064 N1061 1.350 . S
C1064 C1063 1.434 . S
C1065 C1066 1.369 1_554 S
C1065 C1067 1.419 . S
C1065 H1069 0.930 . S
C1066 C1065 1.369 1_556 S
C1066 C1075 1.429 1_545 S
C1067 C1065 1.419 . S
C1067 C1068 1.363 1_545 S
C1067 H1070 0.929 . S
C1068 C1067 1.363 1_565 S
C1068 C1074 1.428 1_554 S
H1069 C1065 0.930 . S
H1070 C1067 0.929 . S
S1071 N1072 1.613 . S
S1071 N1073 1.610 . S
N1072 S1071 1.613 . S
N1072 C1075 1.350 . S
N1073 S1071 1.610 . S
N1073 C1074 1.351 . S
C1074 C1068 1.428 1_556 S
C1074 N1073 1.351 . S
C1074 C1075 1.434 . S
C1075 C1066 1.429 1_565 S
C1075 N1072 1.350 . S
C1075 C1074 1.434 . S
C1076 C1077 1.369 1_556 S
C1076 C1078 1.419 . S
C1076 H1080 0.930 . S
C1077 C1076 1.369 1_554 S
C1077 C1086 1.441 1_455 S
C1078 C1076 1.419 . S
C1078 C1079 1.363 1_455 S
C1078 H1081 0.929 . S
C1079 C1078 1.363 1_655 S
C1079 C1085 1.428 1_556 S
H1080 C1076 0.930 . S
H1081 C1078 0.929 . S
S1082 N1083 1.613 . S
S1082 N1084 1.610 . S
N1083 S1082 1.613 . S
N1083 C1086 1.350 . S
N1084 S1082 1.610 . S
N1084 C1085 1.351 . S
C1085 C1079 1.428 1_554 S
C1085 N1084 1.351 . S
C1085 C1086 1.420 . S
C1086 C1077 1.441 1_655 S
C1086 N1083 1.350 . S
C1086 C1085 1.420 . S
C1087 C1088 1.369 . S
C1087 C1089 1.419 . S
C1087 H1091 0.930 . S
C1088 C1087 1.369 . S
C1088 C1097 1.429 1_554 S
C1089 C1087 1.419 . S
C1089 C1090 1.363 1_554 S
C1089 H1092 0.929 . S
C1090 C1089 1.363 1_556 S
C1090 C1096 1.428 . S
H1091 C1087 0.930 . S
H1092 C1089 0.929 . S
S1093 N1094 1.613 . S
S1093 N1095 1.610 . S
N1094 S1093 1.613 . S
N1094 C1097 1.350 . S
N1095 S1093 1.610 . S
N1095 C1096 1.351 . S
C1096 C1090 1.428 . S
C1096 N1095 1.351 . S
C1096 C1097 1.434 . S
C1097 C1088 1.429 1_556 S
C1097 N1094 1.350 . S
C1097 C1096 1.434 . S
C1098 C1099 1.369 . S
C1098 C1100 1.419 . S
C1098 H1102 0.930 . S
C1099 C1098 1.369 . S
C1099 C1108 1.429 . S
C1100 C1098 1.419 . S
C1100 C1101 1.363 . S
C1100 H1103 0.929 . S
C1101 C1100 1.363 . S
C1101 C1107 1.428 . S
H1102 C1098 0.930 . S
H1103 C1100 0.929 . S
S1104 N1105 1.613 . S
S1104 N1106 1.610 . S
N1105 S1104 1.613 . S
N1105 C1108 1.350 . S
N1106 S1104 1.610 . S
N1106 C1107 1.351 . S
C1107 C1101 1.428 . S
C1107 N1106 1.351 . S
C1107 C1108 1.434 . S
C1108 C1099 1.429 . S
C1108 N1105 1.350 . S
C1108 C1107 1.434 . S
C1109 C1110 1.369 . S
C1109 C1111 1.419 . S
C1109 H1113 0.930 . S
C1110 C1109 1.369 . S
C1110 C1119 1.429 . S
C1111 C1109 1.419 . S
C1111 C1112 1.363 . S
C1111 H1114 0.929 . S
C1112 C1111 1.363 . S
C1112 C1118 1.428 . S
H1113 C1109 0.930 . S
H1114 C1111 0.929 . S
S1115 N1116 1.613 . S
S1115 N1117 1.610 . S
N1116 S1115 1.613 . S
N1116 C1119 1.350 . S
N1117 S1115 1.610 . S
N1117 C1118 1.351 . S
C1118 C1112 1.428 . S
C1118 N1117 1.351 . S
C1118 C1119 1.434 . S
C1119 C1110 1.429 . S
C1119 N1116 1.350 . S
C1119 C1118 1.434 . S
C1120 C1121 1.369 . S
C1120 C1122 1.419 . S
C1120 H1124 0.930 . S
C1121 C1120 1.369 . S
C1121 C1130 1.429 . S
C1122 C1120 1.419 . S
C1122 C1123 1.363 . S
C1122 H1125 0.929 . S
C1123 C1122 1.363 . S
C1123 C1129 1.428 . S
H1124 C1120 0.930 . S
H1125 C1122 0.929 . S
S1126 N1127 1.613 . S
S1126 N1128 1.610 . S
N1127 S1126 1.613 . S
N1127 C1130 1.350 . S
N1128 S1126 1.610 . S
N1128 C1129 1.351 . S
C1129 C1123 1.428 . S
C1129 N1128 1.351 . S
C1129 C1130 1.434 . S
C1130 C1121 1.429 . S
C1130 N1127 1.350 . S
C1130 C1129 1.434 . S
C1131 C1132 1.369 . S
C1131 C1133 1.419 . S
C1131 H1135 0.930 . S
C1132 C1131 1.369 . S
C1132 C1141 1.429 . S
C1133 C1131 1.419 . S
C1133 C1134 1.363 . S
C1133 H1136 0.929 . S
C1134 C1133 1.363 . S
C1134 C1140 1.428 . S
H1135 C1131 0.930 . S
H1136 C1133 0.929 . S
S1137 N1138 1.613 . S
S1137 N1139 1.610 . S
N1138 S1137 1.613 . S
N1138 C1141 1.350 . S
N1139 S1137 1.610 . S
N1139 C1140 1.351 . S
C1140 C1134 1.428 . S
C1140 N1139 1.351 . S
C1140 C1141 1.434 . S
C1141 C1132 1.429 . S
C1141 N1138 1.350 . S
C1141 C1140 1.434 . S
C1142 C1143 1.369 . S
C1142 C1144 1.419 . S
C1142 H1146 0.930 . S
C1143 C1142 1.369 . S
C1143 C1152 1.429 . S
C1144 C1142 1.419 . S
C1144 C1145 1.363 . S
C1144 H1147 0.929 . S
C1145 C1144 1.363 . S
C1145 C1151 1.428 . S
H1146 C1142 0.930 . S
H1147 C1144 0.929 . S
S1148 N1149 1.613 . S
S1148 N1150 1.610 . S
N1149 S1148 1.613 . S
N1149 C1152 1.350 . S
N1150 S1148 1.610 . S
N1150 C1151 1.351 . S
C1151 C1145 1.428 . S
C1151 N1150 1.351 . S
C1151 C1152 1.434 . S
C1152 C1143 1.429 . S
C1152 N1149 1.350 . S
C1152 C1151 1.434 . S
C1153 C1154 1.369 . S
C1153 C1155 1.419 . S
C1153 H1157 0.930 . S
C1154 C1153 1.369 . S
C1154 C1163 1.429 . S
C1155 C1153 1.419 . S
C1155 C1156 1.363 . S
C1155 H1158 0.929 . S
C1156 C1155 1.363 . S
C1156 C1162 1.428 . S
H1157 C1153 0.930 . S
H1158 C1155 0.929 . S
S1159 N1160 1.613 . S
S1159 N1161 1.610 . S
N1160 S1159 1.613 . S
N1160 C1163 1.350 . S
N1161 S1159 1.610 . S
N1161 C1162 1.351 . S
C1162 C1156 1.428 . S
C1162 N1161 1.351 . S
C1162 C1163 1.434 . S
C1163 C1154 1.429 . S
C1163 N1160 1.350 . S
C1163 C1162 1.434 . S
C1164 C1165 1.369 . S
C1164 C1166 1.419 . S
C1164 H1168 0.930 . S
C1165 C1164 1.369 . S
C1165 C1174 1.429 . S
C1166 C1164 1.419 . S
C1166 C1167 1.363 . S
C1166 H1169 0.929 . S
C1167 C1166 1.363 . S
C1167 C1173 1.428 . S
H1168 C1164 0.930 . S
H1169 C1166 0.929 . S
S1170 N1171 1.613 . S
S1170 N1172 1.610 . S
N1171 S1170 1.613 . S
N1171 C1174 1.350 . S
N1172 S1170 1.610 . S
N1172 C1173 1.351 . S
C1173 C1167 1.428 . S
C1173 N1172 1.351 . S
C1173 C1174 1.434 . S
C1174 C1165 1.429 . S
C1174 N1171 1.350 . S
C1174 C1173 1.434 . S
C1175 C1176 1.369 . S
C1175 C1177 1.419 . S
C1175 H1179 0.930 . S
C1176 C1175 1.369 . S
C1176 C1185 1.429 . S
C1177 C1175 1.419 . S
C1177 C1178 1.363 . S
C1177 H1180 0.929 . S
C1178 C1177 1.363 . S
C1178 C1184 1.428 . S
H1179 C1175 0.930 . S
H1180 C1177 0.929 . S
S1181 N1182 1.613 . S
S1181 N1183 1.610 . S
N1182 S1181 1.613 . S
N1182 C1185 1.350 . S
N1183 S1181 1.610 . S
N1183 C1184 1.351 . S
C1184 C1178 1.428 . S
C1184 N1183 1.351 . S
C1184 C1185 1.434 . S
C1185 C1176 1.429 . S
C1185 N1182 1.350 . S
C1185 C1184 1.434 . S
C1186 C1187 1.369 . S
C1186 C1188 1.419 . S
C1186 H1190 0.930 . S
C1187 C1186 1.369 . S
C1187 C1196 1.429 . S
C1188 C1186 1.419 . S
C1188 C1189 1.363 . S
C1188 H1191 0.929 . S
C1189 C1188 1.363 . S
C1189 C1195 1.428 . S
H1190 C1186 0.930 . S
H1191 C1188 0.929 . S
S1192 N1193 1.613 . S
S1192 N1194 1.610 1_556 S
N1193 S1192 1.613 . S
N1193 C1196 1.350 . S
N1194 S1192 1.610 1_554 S
N1194 C1195 1.351 1_554 S
C1195 C1189 1.428 . S
C1195 N1194 1.351 1_556 S
C1195 C1196 1.434 . S
C1196 C1187 1.429 . S
C1196 N1193 1.350 . S
C1196 C1195 1.434 . S
C1197 C1198 1.369 . S
C1197 C1199 1.419 . S
C1197 H1201 0.930 . S
C1198 C1197 1.369 . S
C1198 C1207 1.429 . S
C1199 C1197 1.419 . S
C1199 C1200 1.363 . S
C1199 H1202 0.929 . S
C1200 C1199 1.363 . S
C1200 C1206 1.428 . S
H1201 C1197 0.930 . S
H1202 C1199 0.929 . S
S1203 N1204 1.613 . S
S1203 N1205 1.610 . S
N1204 S1203 1.613 . S
N1204 C1207 1.350 . S
N1205 S1203 1.610 . S
N1205 C1206 1.351 . S
C1206 C1200 1.428 . S
C1206 N1205 1.351 . S
C1206 C1207 1.434 . S
C1207 C1198 1.429 . S
C1207 N1204 1.350 . S
C1207 C1206 1.434 . S
C1208 C1209 1.369 . S
C1208 C1210 1.419 . S
C1208 H1212 0.930 . S
C1209 C1208 1.369 . S
C1209 C1218 1.429 . S
C1210 C1208 1.419 . S
C1210 C1211 1.363 . S
C1210 H1213 0.929 . S
C1211 C1210 1.363 . S
C1211 C1217 1.428 . S
H1212 C1208 0.930 . S
H1213 C1210 0.929 . S
S1214 N1215 1.613 . S
S1214 N1216 1.610 . S
N1215 S1214 1.613 . S
N1215 C1218 1.350 . S
N1216 S1214 1.610 . S
N1216 C1217 1.351 . S
C1217 C1211 1.428 . S
C1217 N1216 1.351 . S
C1217 C1218 1.434 . S
C1218 C1209 1.429 . S
C1218 N1215 1.350 . S
C1218 C1217 1.434 . S
C1219 C1220 1.369 . S
C1219 C1221 1.419 . S
C1219 H1223 0.930 . S
C1220 C1219 1.369 . S
C1220 C1229 1.429 . S
C1221 C1219 1.419 . S
C1221 C1222 1.363 . S
C1221 H1224 0.929 . S
C1222 C1221 1.363 . S
C1222 C1228 1.428 . S
H1223 C1219 0.930 . S
H1224 C1221 0.929 . S
S1225 N1226 1.613 . S
S1225 N1227 1.610 . S
N1226 S1225 1.613 . S
N1226 C1229 1.350 . S
N1227 S1225 1.610 . S
N1227 C1228 1.351 . S
C1228 C1222 1.428 . S
C1228 N1227 1.351 . S
C1228 C1229 1.434 . S
C1229 C1220 1.429 . S
C1229 N1226 1.350 . S
C1229 C1228 1.434 . S
C1230 C1231 1.369 . S
C1230 C1232 1.419 . S
C1230 H1234 0.930 . S
C1231 C1230 1.369 . S
C1231 C1240 1.429 . S
C1232 C1230 1.419 . S
C1232 C1233 1.363 . S
C1232 H1235 0.929 . S
C1233 C1232 1.363 . S
C1233 C1239 1.428 . S
H1234 C1230 0.930 . S
H1235 C1232 0.929 . S
S1236 N1237 1.613 . S
S1236 N1238 1.610 . S
N1237 S1236 1.613 . S
N1237 C1240 1.350 . S
N1238 S1236 1.610 . S
N1238 C1239 1.351 . S
C1239 C1233 1.428 . S
C1239 N1238 1.351 . S
C1239 C1240 1.434 . S
C1240 C1231 1.429 . S
C1240 N1237 1.350 . S
C1240 C1239 1.434 . S
C1241 C1242 1.369 . S
C1241 C1243 1.420 1_545 S
C1241 H1245 0.930 . S
C1242 C1241 1.369 . S
C1242 C1251 1.425 1_545 S
C1243 C1241 1.420 1_565 S
C1243 C1244 1.362 . S
C1243 H1246 0.943 1_565 S
C1244 C1243 1.362 . S
C1244 C1250 1.428 . S
H1245 C1241 0.930 . S
H1246 C1243 0.943 1_545 S
S1247 N1248 1.613 . S
S1247 N1249 1.610 . S
N1248 S1247 1.613 . S
N1248 C1251 1.345 . S
N1249 S1247 1.610 . S
N1249 C1250 1.351 . S
C1250 C1244 1.428 . S
C1250 N1249 1.351 . S
C1250 C1251 1.443 . S
C1251 C1242 1.425 1_565 S
C1251 N1248 1.345 . S
C1251 C1250 1.443 . S
C1252 C1253 1.369 . S
C1252 C1254 1.419 1_655 S
C1252 H1256 0.930 . S
C1253 C1252 1.369 . S
C1253 C1262 1.429 . S
C1254 C1252 1.419 1_455 S
C1254 C1255 1.363 . S
C1254 H1257 0.929 . S
C1255 C1254 1.363 . S
C1255 C1261 1.428 . S
H1256 C1252 0.930 . S
H1257 C1254 0.929 . S
S1258 N1259 1.613 1_455 S
S1258 N1260 1.610 . S
N1259 S1258 1.613 1_655 S
N1259 C1262 1.350 . S
N1260 S1258 1.610 . S
N1260 C1261 1.351 . S
C1261 C1255 1.428 . S
C1261 N1260 1.351 . S
C1261 C1262 1.434 1_455 S
C1262 C1253 1.429 . S
C1262 N1259 1.350 . S
C1262 C1261 1.434 1_655 S
C1263 C1264 1.369 . S
C1263 C1265 1.419 . S
C1263 H1267 0.930 . S
C1264 C1263 1.369 . S
C1264 C1273 1.429 . S
C1265 C1263 1.419 . S
C1265 C1266 1.363 . S
C1265 H1268 0.929 . S
C1266 C1265 1.363 . S
C1266 C1272 1.428 . S
H1267 C1263 0.930 . S
H1268 C1265 0.929 . S
S1269 N1270 1.613 . S
S1269 N1271 1.610 . S
N1270 S1269 1.613 . S
N1270 C1273 1.350 . S
N1271 S1269 1.610 . S
N1271 C1272 1.351 . S
C1272 C1266 1.428 . S
C1272 N1271 1.351 . S
C1272 C1273 1.434 . S
C1273 C1264 1.429 . S
C1273 N1270 1.350 . S
C1273 C1272 1.434 . S
C1274 C1275 1.369 . S
C1274 C1276 1.419 . S
C1274 H1278 0.930 . S
C1275 C1274 1.369 . S
C1275 C1284 1.429 1_545 S
C1276 C1274 1.419 . S
C1276 C1277 1.363 1_545 S
C1276 H1279 0.929 . S
C1277 C1276 1.363 1_565 S
C1277 C1283 1.428 . S
H1278 C1274 0.930 . S
H1279 C1276 0.929 . S
S1280 N1281 1.613 . S
S1280 N1282 1.610 . S
N1281 S1280 1.613 . S
N1281 C1284 1.350 . S
N1282 S1280 1.610 . S
N1282 C1283 1.351 . S
C1283 C1277 1.428 . S
C1283 N1282 1.351 . S
C1283 C1284 1.434 . S
C1284 C1275 1.429 1_565 S
C1284 N1281 1.350 . S
C1284 C1283 1.434 . S
C1285 C1286 1.369 . S
C1285 C1287 1.419 . S
C1285 H1289 0.930 . S
C1286 C1285 1.369 . S
C1286 C1295 1.429 1_455 S
C1287 C1285 1.419 . S
C1287 C1288 1.363 1_455 S
C1287 H1290 0.929 . S
C1288 C1287 1.363 1_655 S
C1288 C1294 1.428 . S
H1289 C1285 0.930 . S
H1290 C1287 0.929 . S
S1291 N1292 1.613 . S
S1291 N1293 1.610 . S
N1292 S1291 1.613 . S
N1292 C1295 1.350 . S
N1293 S1291 1.610 . S
N1293 C1294 1.351 . S
C1294 C1288 1.428 . S
C1294 N1293 1.351 . S
C1294 C1295 1.434 . S
C1295 C1286 1.429 1_655 S
C1295 N1292 1.350 . S
C1295 C1294 1.434 . S
C505 C79 1.259 . S
C507 C9 1.257 . S
C516 C51 1.265 . S
C518 C23 1.262 . S
C527 C37 1.257 . S
C529 C65 1.256 . S
C538 C93 1.260 . S
C540 C163 1.263 . S
C549 C107 1.265 . S
C551 C135 1.263 . S
C560 C149 1.260 . S
C562 C121 1.257 . S
C571 C177 1.263 . S
C573 C247 1.260 . S
C582 C191 1.258 . S
C584 C219 1.257 . S
C593 C233 1.256 . S
C595 C205 1.258 . S
C604 C331 1.258 . S
C606 C261 1.257 . S
C615 C303 1.265 . S
C617 C275 1.264 . S
C626 C289 1.259 . S
C628 C317 1.262 . S
C637 C415 1.256 . S
C639 C345 1.259 . S
C648 C387 1.261 . S
C650 C359 1.263 . S
C659 C373 1.255 . S
C661 C401 1.257 . S
C670 C499 1.260 . S
C672 C429 1.257 . S
C681 C471 1.256 . S
C683 C443 1.256 . S
C692 C485 1.258 . S
C694 C457 1.261 . S
C703 C232 1.623 . S
C705 C8 1.622 . S
C714 C246 1.622 . S
C716 C22 1.624 . S
C725 C218 1.628 . S
C727 C36 1.619 . S
C736 C50 1.623 . S
C738 C372 1.623 1_554 S
C747 C64 1.618 . S
C749 C344 1.627 1_554 S
C758 C78 1.622 . S
C760 C358 1.624 1_554 S
C769 C92 1.618 . S
C771 C484 1.627 . S
C780 C498 1.623 . S
C782 C106 1.621 . S
C791 C470 1.619 . S
C793 C120 1.624 . S
C802 C288 1.628 1_556 S
C804 C134 1.619 . S
C813 C260 1.628 1_556 S
C815 C148 1.619 . S
C824 C162 1.619 . S
C826 C274 1.626 1_556 S
C835 C176 1.619 . S
C837 C400 1.625 . S
C846 C414 1.622 . S
C848 C190 1.624 . S
C857 C386 1.628 . S
C859 C204 1.619 . S
C868 C302 1.620 . S
C870 C456 1.623 . S
C879 C428 1.626 . S
C881 C316 1.621 . S
C890 C330 1.622 . S
C892 C442 1.621 . S
C901 C258 1.493 . S
C903 C6 1.490 . S
C912 C272 1.491 . S
C914 C20 1.492 . S
C923 C34 1.495 . S
C925 C286 1.489 . S
C934 C48 1.491 . S
C936 C468 1.491 . S
C945 C482 1.488 . S
C947 C62 1.494 . S
C956 C496 1.488 . S
C958 C76 1.495 . S
C967 C90 1.493 . S
C969 C342 1.490 . S
C978 C104 1.495 . S
C980 C356 1.489 . S
C989 C370 1.490 . S
C991 C118 1.493 . S
C1000 C132 1.492 . S
C1002 C216 1.491 . S
C1011 C146 1.488 . S
C1013 C230 1.495 . S
C1022 C244 1.494 . S
C1024 C160 1.491 . S
C1033 C174 1.488 . S
C1035 C426 1.494 . S
C1044 C188 1.494 . S
C1046 C440 1.490 . S
C1055 C454 1.495 . S
C1057 C202 1.489 . S
C1066 C384 1.489 . S
C1068 C300 1.494 . S
C1077 C314 1.493 . S
C1079 C398 1.490 . S
C1088 C328 1.491 . S
C1090 C412 1.492 . S
C1099 C385 1.289 . S
C1101 C7 1.291 . S
C1110 C21 1.288 . S
C1112 C399 1.294 . S
C1121 C413 1.289 . S
C1123 C35 1.291 . S
C1132 C49 1.296 . S
C1134 C175 1.290 . S
C1143 C189 1.288 . S
C1145 C63 1.294 . S
C1154 C203 1.294 . S
C1156 C77 1.295 . S
C1165 C91 1.294 . S
C1167 C301 1.294 . S
C1176 C315 1.295 . S
C1178 C105 1.289 . S
C1187 C119 1.296 . S
C1189 C329 1.289 . S
C1198 C133 1.288 . S
C1200 C427 1.294 . S
C1209 C147 1.289 . S
C1211 C441 1.295 . S
C1220 C455 1.292 . S
C1222 C161 1.295 . S
C1231 C217 1.292 . S
C1233 C343 1.295 . S
C1242 C231 1.294 . S
C1244 C357 1.295 . S
C1253 C245 1.289 . S
C1255 C371 1.292 . S
C1264 C259 1.289 . S
C1266 C469 1.292 . S
C1275 C273 1.288 . S
C1277 C483 1.295 . S
C1286 C497 1.289 . S
C1288 C287 1.295 . S
