# Generated by pormake.
# Topology uog, (4)-cn, num edge types: 1
# Building blocks:
#     Node 0, Type 0, BuildingBlock: QUQFOY_clean_sbu_1, # of connection points: 4
#     Node 1, Type 0, BuildingBlock: QUQFOY_clean_sbu_1, # of connection points: 4
#     Node 2, Type 0, BuildingBlock: QUQFOY_clean_sbu_1, # of connection points: 4
#     Node 3, Type 0, BuildingBlock: QUQFOY_clean_sbu_1, # of connection points: 4
#     Node 4, Type 0, BuildingBlock: QUQFOY_clean_sbu_1, # of connection points: 4
#     Node 5, Type 0, BuildingBlock: QUQFOY_clean_sbu_1, # of connection points: 4
#     Edge 6, Type (0, 0), BuildingBlock: TEMPAE_clean_linker_10, # of connection points: 2
#     Edge 7, Type (0, 0), BuildingBlock: TEMPAE_clean_linker_10, # of connection points: 2
#     Edge 8, Type (0, 0), BuildingBlock: TEMPAE_clean_linker_10, # of connection points: 2
#     Edge 9, Type (0, 0), BuildingBlock: TEMPAE_clean_linker_10, # of connection points: 2
#     Edge 10, Type (0, 0), BuildingBlock: TEMPAE_clean_linker_10, # of connection points: 2
#     Edge 11, Type (0, 0), BuildingBlock: TEMPAE_clean_linker_10, # of connection points: 2
#     Edge 12, Type (0, 0), BuildingBlock: TEMPAE_clean_linker_10, # of connection points: 2
#     Edge 13, Type (0, 0), BuildingBlock: TEMPAE_clean_linker_10, # of connection points: 2
#     Edge 14, Type (0, 0), BuildingBlock: TEMPAE_clean_linker_10, # of connection points: 2
#     Edge 15, Type (0, 0), BuildingBlock: TEMPAE_clean_linker_10, # of connection points: 2
#     Edge 16, Type (0, 0), BuildingBlock: TEMPAE_clean_linker_10, # of connection points: 2
#     Edge 17, Type (0, 0), BuildingBlock: TEMPAE_clean_linker_10, # of connection points: 2
# Relax obj value: 0.093
# Max RMSD: 0.154
# Mean RMSD: 0.154
data_MOF--net-uog--node1-QUQFOY_clean_sbu_1--edge1-TEMPAE_clean_linker_10
_symmetry_space_group_name_H-M    P1
_symmetry_Int_Tables_number       1
_symmetry_cell_setting            triclinic
loop_
_symmetry_equiv_pos_as_xyz
'x, y, z'
_cell_length_a     29.578068
_cell_length_b     29.579959
_cell_length_c     44.468784
_cell_angle_alpha  89.978136
_cell_angle_beta   89.96864
_cell_angle_gamma 120.0257
loop_
_atom_site_label
_atom_site_type_symbol
_atom_site_fract_x
_atom_site_fract_y
_atom_site_fract_z
_atom_type_partial_charge
O0 O 0.61439 0.39299 0.18245 0.0
Cd1 Cd 0.65802 0.35733 0.17826 0.0
Cd2 Cd 0.56278 0.27666 0.15677 0.0
O3 O 0.53598 0.32641 0.17171 0.0
O4 O 0.71106 0.38292 0.21185 0.0
O5 O 0.64276 0.30334 0.20915 0.0
C6 C 0.68199 0.33783 0.22426 0.0
C7 C 0.53137 0.18858 0.16937 0.0
C8 C 0.56536 0.37383 0.17987 0.0
C9 C 0.65443 0.33117 0.1134 0.0
O10 O 0.60615 0.29957 0.11792 0.0
O11 O 0.68469 0.35703 0.13501 0.0
O12 O 0.50635 0.20116 0.15044 0.0
O13 O 0.57133 0.22597 0.18249 0.0
O14 O 0.2266 0.60877 0.51653 0.0
Cd15 Cd 0.3059 0.6531 0.51253 0.0
Cd16 Cd 0.29258 0.559 0.49034 0.0
O17 O 0.21573 0.53095 0.5052 0.0
O18 O 0.33247 0.70576 0.54629 0.0
O19 O 0.34477 0.63811 0.54347 0.0
C20 C 0.34882 0.67697 0.55868 0.0
C21 C 0.35002 0.52844 0.50262 0.0
C22 C 0.19716 0.55973 0.51361 0.0
C23 C 0.32892 0.6512 0.44757 0.0
O24 O 0.3127 0.60293 0.45173 0.0
O25 O 0.33295 0.68087 0.46944 0.0
O26 O 0.31253 0.50334 0.48365 0.0
O27 O 0.35209 0.568 0.51596 0.0
O28 O 0.62307 0.22441 0.84924 0.0
Cd29 Cd 0.65696 0.30354 0.84488 0.0
Cd30 Cd 0.73871 0.29158 0.82299 0.0
O31 O 0.69075 0.21468 0.83799 0.0
O32 O 0.62984 0.32959 0.87838 0.0
O33 O 0.71038 0.34339 0.87585 0.0
C34 C 0.67499 0.34674 0.8909 0.0
C35 C 0.82643 0.35001 0.83542 0.0
C36 C 0.64334 0.19556 0.84645 0.0
C37 C 0.68188 0.3261 0.77985 0.0
O38 O 0.71456 0.31075 0.78419 0.0
O39 O 0.65583 0.32979 0.80162 0.0
O40 O 0.81464 0.3125 0.81655 0.0
O41 O 0.78851 0.35162 0.84855 0.0
O42 O 0.40043 0.62072 0.18331 0.0
Cd43 Cd 0.35555 0.65501 0.17921 0.0
Cd44 Cd 0.4494 0.73645 0.15732 0.0
O45 O 0.47808 0.68827 0.17225 0.0
O46 O 0.30257 0.62807 0.21283 0.0
O47 O 0.36962 0.70846 0.21026 0.0
C48 C 0.33085 0.67316 0.22536 0.0
C49 C 0.47901 0.8243 0.16957 0.0
C50 C 0.44955 0.6408 0.18056 0.0
C51 C 0.35787 0.68 0.11425 0.0
O52 O 0.406 0.71238 0.11856 0.0
O53 O 0.32803 0.65411 0.13604 0.0
O54 O 0.5046 0.81228 0.15072 0.0
O55 O 0.43946 0.78653 0.18282 0.0
O56 O 0.78468 0.39453 0.51573 0.0
Cd57 Cd 0.70541 0.35035 0.51154 0.0
Cd58 Cd 0.71911 0.44518 0.4902 0.0
O59 O 0.79577 0.47272 0.50518 0.0
O60 O 0.67852 0.29716 0.54507 0.0
O61 O 0.66633 0.36489 0.54255 0.0
C62 C 0.66215 0.32581 0.55761 0.0
C63 C 0.66172 0.47572 0.50269 0.0
C64 C 0.81419 0.44364 0.51325 0.0
C65 C 0.68303 0.35403 0.44669 0.0
O66 O 0.69932 0.40219 0.45127 0.0
O67 O 0.67869 0.3237 0.46827 0.0
O68 O 0.69947 0.50115 0.48388 0.0
O69 O 0.65937 0.43583 0.51579 0.0
O70 O 0.39579 0.78252 0.84972 0.0
Cd71 Cd 0.3597 0.70314 0.84587 0.0
Cd72 Cd 0.27931 0.71788 0.8244 0.0
O73 O 0.32925 0.79449 0.83918 0.0
O74 O 0.38508 0.67583 0.87964 0.0
O75 O 0.30568 0.66497 0.87687 0.0
C76 C 0.34007 0.66019 0.89206 0.0
C77 C 0.19106 0.66156 0.83682 0.0
C78 C 0.37675 0.81249 0.84715 0.0
C79 C 0.33336 0.68018 0.78112 0.0
O80 O 0.30204 0.69718 0.7856 0.0
O81 O 0.35911 0.67564 0.80275 0.0
O82 O 0.20402 0.69924 0.81787 0.0
O83 O 0.2282 0.65875 0.85009 0.0
C84 C 0.54777 0.12223 0.19426 0.0
C85 C 0.5188 0.13366 0.17371 0.0
C86 C 0.54194 0.07215 0.19588 0.0
C87 C 0.50622 0.03231 0.17651 0.0
C88 C 0.47535 0.04299 0.15656 0.0
C89 C 0.48199 0.09352 0.15539 0.0
C90 C 0.57537 0.06241 0.21763 0.0
C91 C 0.43649 1.00146 0.1357 0.0
C92 C 0.52781 0.91945 0.15573 0.0
C93 C 0.49063 0.87894 0.17375 0.0
C94 C 0.534 0.9698 0.15685 0.0
C95 C 0.50228 0.97994 0.17645 0.0
C96 C 0.466 0.93967 0.19545 0.0
C97 C 0.46065 0.88978 0.19389 0.0
C98 C 0.57346 0.01179 0.13639 0.0
C99 C 0.43165 0.94882 0.21679 0.0
H100 H 0.57628 0.15291 0.20858 0.0
H101 H 0.45956 0.10198 0.1394 0.0
H102 H 0.55057 0.02802 0.23194 0.0
H103 H 0.60227 0.05349 0.20494 0.0
H104 H 0.59895 0.09655 0.23241 0.0
H105 H 0.41366 0.01519 0.12261 0.0
H106 H 0.4573 0.98937 0.11973 0.0
H107 H 0.40896 0.96633 0.14873 0.0
H108 H 0.55102 0.91147 0.14005 0.0
H109 H 0.43181 0.8588 0.20795 0.0
H110 H 0.60063 0.04659 0.14974 0.0
H111 H 0.55314 0.0243 0.12033 0.0
H112 H 0.59663 0.99834 0.1234 0.0
H113 H 0.45584 0.98281 0.23148 0.0
H114 H 0.40742 0.9143 0.23121 0.0
H115 H 0.40532 0.95814 0.20381 0.0
C116 C 0.4332 0.54559 0.52728 0.0
C117 C 0.39268 0.51631 0.50685 0.0
C118 C 0.47757 0.53996 0.52887 0.0
C119 C 0.48168 0.5041 0.50962 0.0
C120 C 0.44007 0.473 0.48974 0.0
C121 C 0.39607 0.47947 0.4886 0.0
C122 C 0.52081 0.57363 0.55051 0.0
C123 C 0.44273 0.434 0.46901 0.0
C124 C 0.61595 0.52504 0.48885 0.0
C125 C 0.61907 0.48787 0.50695 0.0
C126 C 0.57196 0.53151 0.48996 0.0
C127 C 0.53006 0.50008 0.50965 0.0
C128 C 0.53391 0.46389 0.52877 0.0
C129 C 0.57828 0.45825 0.5272 0.0
C130 C 0.56959 0.57088 0.46938 0.0
C131 C 0.49038 0.42986 0.5502 0.0
H132 H 0.43101 0.57416 0.54153 0.0
H133 H 0.36511 0.4568 0.4727 0.0
H134 H 0.53033 0.54899 0.56499 0.0
H135 H 0.55668 0.60031 0.53776 0.0
H136 H 0.51036 0.59748 0.56514 0.0
H137 H 0.40622 0.41117 0.45588 0.0
H138 H 0.47574 0.45468 0.45306 0.0
H139 H 0.45018 0.4065 0.48214 0.0
H140 H 0.64712 0.54797 0.47309 0.0
H141 H 0.58027 0.42943 0.54134 0.0
H142 H 0.56193 0.59814 0.48261 0.0
H143 H 0.53682 0.55048 0.45329 0.0
H144 H 0.60629 0.59395 0.45642 0.0
H145 H 0.48064 0.45425 0.56475 0.0
H146 H 0.50063 0.40579 0.56476 0.0
H147 H 0.45469 0.40339 0.53729 0.0
C148 C 0.89161 0.43373 0.85997 0.0
C149 C 0.88102 0.39305 0.8398 0.0
C150 C 0.94152 0.47824 0.86178 0.0
C151 C 0.98205 0.48233 0.84299 0.0
C152 C 0.97214 0.44061 0.82335 0.0
C153 C 0.92177 0.39648 0.82199 0.0
C154 C 0.95042 0.5216 0.88314 0.0
C155 C 0.0144 0.44326 0.80312 0.0
C156 C 0.0962 0.61629 0.82247 0.0
C157 C 0.13602 0.61936 0.84098 0.0
C158 C 0.04558 0.57247 0.82341 0.0
C159 C 0.03447 0.53072 0.84333 0.0
C160 C 0.07397 0.53459 0.8629 0.0
C161 C 0.12415 0.57877 0.8615 0.0
C162 C 1.00443 0.57007 0.80234 0.0
C163 C 0.06376 0.49121 0.88462 0.0
H164 H 0.86045 0.43151 0.87388 0.0
H165 H 0.91397 0.36539 0.80629 0.0
H166 H 0.98414 0.53122 0.89803 0.0
H167 H 0.96005 0.5574 0.8702 0.0
H168 H 0.91567 0.51124 0.89737 0.0
H169 H 1.00108 0.40675 0.79005 0.0
H170 H 0.02727 0.47628 0.78713 0.0
H171 H 0.04895 0.45067 0.81665 0.0
H172 H 0.10499 0.64731 0.8065 0.0
H173 H 0.15458 0.58074 0.87596 0.0
H174 H 0.9691 0.56237 0.81519 0.0
H175 H 0.99254 0.53733 0.78629 0.0
H176 H 0.01844 0.60678 0.78933 0.0
H177 H 0.02915 0.48154 0.89874 0.0
H178 H 0.09763 0.50159 0.8996 0.0
H179 H 0.05498 0.45546 0.87191 0.0
C180 C 0.12283 0.56288 0.53787 0.0
C181 C 0.14037 0.53791 0.51811 0.0
C182 C 0.06984 0.54819 0.5395 0.0
C183 C 0.03352 0.50826 0.52042 0.0
C184 C 0.05073 0.48183 0.50101 0.0
C185 C 0.10396 0.49662 0.50032 0.0
C186 C 0.05299 0.57636 0.56109 0.0
C187 C 0.01327 0.43936 0.48012 0.0
C188 C 0.88814 0.43964 0.53735 0.0
C189 C 0.87091 0.46527 0.51788 0.0
C190 C 0.9411 0.45426 0.53907 0.0
C191 C 0.97772 0.49481 0.52038 0.0
C192 C 0.96081 0.52189 0.50128 0.0
C193 C 0.9076 0.50714 0.5005 0.0
C194 C 0.95761 0.42535 0.56033 0.0
C195 C 0.99861 0.56505 0.4808 0.0
H196 H 0.15086 0.59472 0.55177 0.0
H197 H 0.11744 0.47766 0.48477 0.0
H198 H 0.03838 0.59869 0.54834 0.0
H199 H 0.02041 0.54783 0.57541 0.0
H200 H 0.0854 0.60387 0.57589 0.0
H201 H 0.03256 0.42191 0.46686 0.0
H202 H 0.98067 0.40794 0.49312 0.0
H203 H 0.99597 0.45557 0.4643 0.0
H204 H 0.85989 0.40734 0.55093 0.0
H205 H 0.89436 0.52663 0.48518 0.0
H206 H 0.98995 0.4534 0.57491 0.0
H207 H 0.97243 0.40346 0.54731 0.0
H208 H 0.92496 0.39734 0.57485 0.0
H209 H 0.03099 0.59604 0.49411 0.0
H210 H 0.97952 0.58293 0.46776 0.0
H211 H 0.01616 0.54937 0.46481 0.0
C212 C 0.4066 0.90603 0.83478 0.0
C213 C 0.41242 0.86919 0.85158 0.0
C214 C 0.44517 0.95922 0.83544 0.0
C215 C 0.48998 0.97595 0.85381 0.0
C216 C 0.49469 0.93917 0.87188 0.0
C217 C 0.45617 0.88625 0.87032 0.0
C218 C 0.43895 0.99721 0.81563 0.0
C219 C 0.54105 0.95548 0.89235 0.0
C220 C 0.61337 0.1026 0.83281 0.0
C221 C 0.60903 0.13875 0.85114 0.0
C222 C 0.57512 0.0493 0.83364 0.0
C223 C 0.53231 0.03178 0.85375 0.0
C224 C 0.5294 0.06784 0.8734 0.0
C225 C 0.56742 0.12091 0.8716 0.0
C226 C 0.57933 0.01213 0.81212 0.0
C227 C 0.48533 0.05064 0.89576 0.0
H228 H 0.37318 0.89297 0.82003 0.0
H229 H 0.46073 0.85792 0.88347 0.0
H230 H 0.44075 0.02934 0.82939 0.0
H231 H 0.4716 0.01509 0.79924 0.0
H232 H 0.40149 0.97821 0.80306 0.0
H233 H 0.53711 0.92267 0.90644 0.0
H234 H 0.5772 0.97059 0.87874 0.0
H235 H 0.54592 0.98758 0.90736 0.0
H236 H 0.6451 0.11635 0.81672 0.0
H237 H 0.56406 0.14879 0.88589 0.0
H238 H 0.54522 0.99504 0.79673 0.0
H239 H 0.57862 0.97937 0.82466 0.0
H240 H 0.61559 0.03162 0.79841 0.0
H241 H 0.44783 0.0362 0.88363 0.0
H242 H 0.4909 0.08283 0.91096 0.0
H243 H 0.4819 0.01787 0.90962 0.0
C244 C 0.51274 0.611 0.16701 0.0
C245 C 0.47177 0.60622 0.18508 0.0
C246 C 0.52764 0.57265 0.16765 0.0
C247 C 0.50168 0.52925 0.1873 0.0
C248 C 0.46217 0.52584 0.2067 0.0
C249 C 0.44732 0.56401 0.20511 0.0
C250 C 0.56964 0.57743 0.1464 0.0
C251 C 0.43453 0.4811 0.22857 0.0
C252 C 0.50201 0.40403 0.16743 0.0
C253 C 0.54418 0.40931 0.1845 0.0
C254 C 0.48746 0.44262 0.16829 0.0
C255 C 0.51506 0.48686 0.18713 0.0
C256 C 0.556 0.49096 0.20548 0.0
C257 C 0.57038 0.45246 0.20371 0.0
C258 C 0.44387 0.43707 0.14818 0.0
C259 C 0.58549 0.53666 0.22647 0.0
H260 H 0.53127 0.6432 0.15125 0.0
H261 H 0.41572 0.56029 0.21922 0.0
H262 H 0.60129 0.5763 0.15913 0.0
H263 H 0.55303 0.54379 0.13068 0.0
H264 H 0.58688 0.61409 0.13305 0.0
H265 H 0.40747 0.48625 0.24364 0.0
H266 H 0.41178 0.44399 0.21603 0.0
H267 H 0.46341 0.47719 0.24259 0.0
H268 H 0.48206 0.37108 0.15232 0.0
H269 H 0.6029 0.45659 0.21706 0.0
H270 H 0.4592 0.47019 0.13209 0.0
H271 H 0.41317 0.43854 0.16176 0.0
H272 H 0.4257 0.39998 0.13524 0.0
H273 H 0.60704 0.57322 0.21325 0.0
H274 H 0.61387 0.53222 0.24071 0.0
H275 H 0.55784 0.54114 0.24133 0.0
C276 C 0.64529 0.3646 0.94005 0.0
C277 C 0.68383 0.36199 0.92306 0.0
C278 C 0.64859 0.368 0.97158 0.0
C279 C 0.6909 0.36781 0.98644 0.0
C280 C 0.73175 0.36899 0.96927 0.0
C281 C 0.72795 0.36657 0.93779 0.0
C282 C 0.60489 0.36812 0.98907 0.0
C283 C 0.77729 0.36829 0.98412 0.0
C284 C 0.70344 0.39165 0.07107 0.0
C285 C 0.67293 0.34061 0.08198 0.0
C286 C 0.71107 0.40138 0.03995 0.0
C287 C 0.68851 0.35893 0.01954 0.0
C288 C 0.6607 0.30717 0.03073 0.0
C289 C 0.65267 0.29873 0.06177 0.0
C290 C 0.74033 0.45708 0.02891 0.0
C291 C 0.63724 0.26064 0.00986 0.0
H292 H 0.61131 0.3615 0.92885 0.0
H293 H 0.75812 0.36477 0.92488 0.0
H294 H 0.58077 0.32954 0.99999 0.0
H295 H 0.62086 0.39798 1.00712 0.0
H296 H 0.57915 0.37593 0.97441 0.0
H297 H 0.80933 0.37716 0.96794 0.0
H298 H 0.79306 0.39683 1.00283 0.0
H299 H 0.76383 0.32901 0.99383 0.0
H300 H 0.71837 0.42411 0.08668 0.0
H301 H 0.62901 0.25926 0.07024 0.0
H302 H 0.71244 0.46697 0.01828 0.0
H303 H 0.76939 0.46206 0.01153 0.0
H304 H 0.76075 0.48517 0.04746 0.0
H305 H 0.60544 0.26041 0.99652 0.0
H306 H 0.6209 0.22306 0.02225 0.0
H307 H 0.66713 0.26318 0.99379 0.0
C308 C 0.36428 0.72629 0.27219 0.0
C309 C 0.32474 0.68198 0.25758 0.0
C310 C 0.3661 0.73006 0.30368 0.0
C311 C 0.32693 0.68898 0.32098 0.0
C312 C 0.28436 0.64648 0.30627 0.0
C313 C 0.28399 0.64324 0.27472 0.0
C314 C 0.41235 0.77586 0.31836 0.0
C315 C 0.24106 0.6025 0.32391 0.0
C316 C 0.35951 0.65071 0.39572 0.0
C317 C 0.33771 0.67029 0.41627 0.0
C318 C 0.35865 0.65906 0.36476 0.0
C319 C 0.3341 0.68652 0.35399 0.0
C320 C 0.3141 0.70849 0.37475 0.0
C321 C 0.31663 0.70053 0.40578 0.0
C322 C 0.38182 0.63622 0.34351 0.0
C323 C 0.28706 0.7374 0.36418 0.0
H324 H 0.39592 0.75663 0.25916 0.0
H325 H 0.2531 0.60912 0.26363 0.0
H326 H 0.39967 0.79124 0.33732 0.0
H327 H 0.43875 0.76282 0.32769 0.0
H328 H 0.43492 0.80807 0.30216 0.0
H329 H 0.20733 0.57657 0.30941 0.0
H330 H 0.25604 0.57865 0.33457 0.0
H331 H 0.22724 0.61819 0.34216 0.0
H332 H 0.37575 0.62726 0.40386 0.0
H333 H 0.29897 0.71494 0.42166 0.0
H334 H 0.40874 0.66639 0.3274 0.0
H335 H 0.35023 0.60432 0.33022 0.0
H336 H 0.40359 0.62016 0.35557 0.0
H337 H 0.31058 0.76654 0.3467 0.0
H338 H 0.27966 0.75767 0.38293 0.0
H339 H 0.24907 0.7093 0.35383 0.0
C340 C 0.62 0.3126 0.738 0.0
C341 C 0.67139 0.33427 0.74847 0.0
C342 C 0.60945 0.30961 0.70696 0.0
C343 C 0.65143 0.32973 0.68617 0.0
C344 C 0.70349 0.35483 0.69691 0.0
C345 C 0.71276 0.35615 0.72788 0.0
C346 C 0.55347 0.28202 0.69642 0.0
C347 C 0.7495 0.37813 0.67563 0.0
C348 C 0.64515 0.27922 0.60706 0.0
C349 C 0.64694 0.31971 0.58979 0.0
C350 C 0.64215 0.27975 0.6386 0.0
C351 C 0.64182 0.32222 0.65317 0.0
C352 C 0.6396 0.36106 0.63574 0.0
C353 C 0.64173 0.3591 0.60426 0.0
C354 C 0.64318 0.2368 0.65638 0.0
C355 C 0.63955 0.40717 0.65027 0.0
H356 H 0.58794 0.29488 0.7539 0.0
H357 H 0.75251 0.37286 0.73601 0.0
H358 H 0.54758 0.30516 0.67883 0.0
H359 H 0.54389 0.24401 0.68622 0.0
H360 H 0.52574 0.27457 0.71517 0.0
H361 H 0.78733 0.40023 0.68766 0.0
H362 H 0.75005 0.34657 0.66243 0.0
H363 H 0.746 0.40477 0.65944 0.0
H364 H 0.64873 0.24844 0.59608 0.0
H365 H 0.6428 0.39052 0.59114 0.0
H366 H 0.61365 0.22292 0.67464 0.0
H367 H 0.68206 0.25214 0.66703 0.0
H368 H 0.63563 0.20304 0.64198 0.0
H369 H 0.61144 0.39439 0.66922 0.0
H370 H 0.62964 0.42938 0.63398 0.0
H371 H 0.67892 0.43392 0.65957 0.0
C372 C 0.28594 0.64041 0.93853 0.0
C373 C 0.33047 0.64505 0.92424 0.0
C374 C 0.28147 0.63829 0.96999 0.0
C375 C 0.32208 0.63995 0.98759 0.0
C376 C 0.36476 0.63971 0.97321 0.0
C377 C 0.36868 0.64269 0.94168 0.0
C378 C 0.23546 0.63886 0.98432 0.0
C379 C 0.40826 0.64015 0.99117 0.0
C380 C 0.3592 0.71096 0.06227 0.0
C381 C 0.33921 0.66962 0.08288 0.0
C382 C 0.35137 0.70169 0.0313 0.0
C383 C 0.32397 0.64964 0.02058 0.0
C384 C 0.30153 0.60771 0.04138 0.0
C385 C 0.30902 0.61826 0.07242 0.0
C386 C 0.37474 0.74768 0.00999 0.0
C387 C 0.2726 0.55172 0.03087 0.0
H388 H 0.25597 0.64192 0.92527 0.0
H389 H 0.40296 0.64582 0.93084 0.0
H390 H 0.21967 0.6108 1.00329 0.0
H391 H 0.24842 0.67833 0.99356 0.0
H392 H 0.20358 0.62924 0.96792 0.0
H393 H 0.43436 0.63222 0.9769 0.0
H394 H 0.43205 0.67895 1.00187 0.0
H395 H 0.39209 0.61061 0.00942 0.0
H396 H 0.3826 0.75068 0.07039 0.0
H397 H 0.29427 0.58621 0.08834 0.0
H398 H 0.34488 0.74451 0.99371 0.0
H399 H 0.40676 0.7478 0.99692 0.0
H400 H 0.39077 0.78556 0.022 0.0
H401 H 0.2439 0.54619 0.01315 0.0
H402 H 0.25183 0.52413 0.04959 0.0
H403 H 0.30079 0.54164 0.02084 0.0
C404 C 0.6953 0.30565 0.40434 0.0
C405 C 0.6744 0.33582 0.41522 0.0
C406 C 0.69797 0.2985 0.37322 0.0
C407 C 0.67832 0.32125 0.35277 0.0
C408 C 0.65397 0.34867 0.36391 0.0
C409 C 0.65295 0.35618 0.39496 0.0
C410 C 0.72476 0.26958 0.36224 0.0
C411 C 0.63118 0.37234 0.34299 0.0
C412 C 0.72878 0.3663 0.27368 0.0
C413 C 0.68791 0.32818 0.25636 0.0
C414 C 0.72832 0.36226 0.30519 0.0
C415 C 0.68555 0.31955 0.3197 0.0
C416 C 0.64625 0.27906 0.30219 0.0
C417 C 0.64815 0.28364 0.27074 0.0
C418 C 0.77175 0.40562 0.32304 0.0
C419 C 0.59979 0.23307 0.31665 0.0
H420 H 0.71268 0.29063 0.42 0.0
H421 H 0.63685 0.37957 0.4034 0.0
H422 H 0.70119 0.24096 0.34458 0.0
H423 H 0.76285 0.29778 0.352 0.0
H424 H 0.73191 0.24871 0.38076 0.0
H425 H 0.6096 0.38836 0.35531 0.0
H426 H 0.66296 0.40442 0.32986 0.0
H427 H 0.60417 0.34267 0.32673 0.0
H428 H 0.75984 0.40059 0.26277 0.0
H429 H 0.61643 0.25375 0.25758 0.0
H430 H 0.78533 0.3893 0.34107 0.0
H431 H 0.757 0.42941 0.33401 0.0
H432 H 0.80559 0.43173 0.30863 0.0
H433 H 0.61228 0.21705 0.33538 0.0
H434 H 0.57711 0.20132 0.30025 0.0
H435 H 0.57358 0.24611 0.32626 0.0
C436 C 0.39361 0.69095 0.73881 0.0
C437 C 0.34264 0.67093 0.74971 0.0
C438 C 0.40333 0.69311 0.70769 0.0
C439 C 0.36092 0.67384 0.68727 0.0
C440 C 0.30918 0.65033 0.69845 0.0
C441 C 0.30076 0.64981 0.72949 0.0
C442 C 0.45902 0.71901 0.69666 0.0
C443 C 0.26268 0.62795 0.67757 0.0
C444 C 0.3673 0.72401 0.60802 0.0
C445 C 0.36402 0.68278 0.59083 0.0
C446 C 0.37071 0.72369 0.63954 0.0
C447 C 0.36986 0.68067 0.65418 0.0
C448 C 0.37038 0.64089 0.63682 0.0
C449 C 0.36794 0.64268 0.60535 0.0
C450 C 0.37153 0.76762 0.65724 0.0
C451 C 0.369 0.59413 0.65144 0.0
H452 H 0.42607 0.70808 0.75443 0.0
H453 H 0.26134 0.63439 0.73796 0.0
H454 H 0.46356 0.69492 0.67913 0.0
H455 H 0.46951 0.75713 0.68625 0.0
H456 H 0.48695 0.72596 0.71519 0.0
H457 H 0.22504 0.60694 0.68994 0.0
H458 H 0.26292 0.65989 0.66435 0.0
H459 H 0.26482 0.60054 0.66139 0.0
H460 H 0.36471 0.75532 0.59699 0.0
H461 H 0.36564 0.61065 0.59229 0.0
H462 H 0.40141 0.78097 0.67526 0.0
H463 H 0.33305 0.75347 0.66822 0.0
H464 H 0.37976 0.80148 0.64273 0.0
H465 H 0.39747 0.60634 0.67016 0.0
H466 H 0.3775 0.5709 0.63513 0.0
H467 H 0.3296 0.56852 0.66109 0.0
loop_
_geom_bond_atom_site_label_1
_geom_bond_atom_site_label_2
_geom_bond_distance
_geom_bond_site_symmetry_2
_ccdc_geom_bond_type
O0 Cd1 2.223 . S
O0 C8 1.315 . S
Cd1 O0 2.223 . S
Cd1 O4 2.297 . S
Cd1 O5 2.439 . S
Cd1 O11 2.240 . S
Cd2 O3 2.240 . S
Cd2 O10 2.223 . S
Cd2 O12 2.297 . S
Cd2 O13 2.439 . S
O3 Cd2 2.240 . S
O3 C8 1.279 . S
O4 Cd1 2.297 . S
O4 C6 1.247 . S
O5 Cd1 2.439 . S
O5 C6 1.208 . S
C6 O4 1.247 . S
C6 O5 1.208 . S
C7 O12 1.247 . S
C7 O13 1.208 . S
C8 O0 1.315 . S
C8 O3 1.279 . S
C9 O10 1.315 . S
C9 O11 1.279 . S
O10 Cd2 2.223 . S
O10 C9 1.315 . S
O11 Cd1 2.240 . S
O11 C9 1.279 . S
O12 Cd2 2.297 . S
O12 C7 1.247 . S
O13 Cd2 2.439 . S
O13 C7 1.208 . S
O14 Cd15 2.223 . S
O14 C22 1.315 . S
Cd15 O14 2.223 . S
Cd15 O18 2.297 . S
Cd15 O19 2.439 . S
Cd15 O25 2.240 . S
Cd16 O17 2.240 . S
Cd16 O24 2.223 . S
Cd16 O26 2.297 . S
Cd16 O27 2.439 . S
O17 Cd16 2.240 . S
O17 C22 1.279 . S
O18 Cd15 2.297 . S
O18 C20 1.247 . S
O19 Cd15 2.439 . S
O19 C20 1.208 . S
C20 O18 1.247 . S
C20 O19 1.208 . S
C21 O26 1.247 . S
C21 O27 1.208 . S
C22 O14 1.315 . S
C22 O17 1.279 . S
C23 O24 1.315 . S
C23 O25 1.279 . S
O24 Cd16 2.223 . S
O24 C23 1.315 . S
O25 Cd15 2.240 . S
O25 C23 1.279 . S
O26 Cd16 2.297 . S
O26 C21 1.247 . S
O27 Cd16 2.439 . S
O27 C21 1.208 . S
O28 Cd29 2.223 . S
O28 C36 1.315 . S
Cd29 O28 2.223 . S
Cd29 O32 2.297 . S
Cd29 O33 2.439 . S
Cd29 O39 2.240 . S
Cd30 O31 2.240 . S
Cd30 O38 2.223 . S
Cd30 O40 2.297 . S
Cd30 O41 2.439 . S
O31 Cd30 2.240 . S
O31 C36 1.279 . S
O32 Cd29 2.297 . S
O32 C34 1.247 . S
O33 Cd29 2.439 . S
O33 C34 1.208 . S
C34 O32 1.247 . S
C34 O33 1.208 . S
C35 O40 1.247 . S
C35 O41 1.208 . S
C36 O28 1.315 . S
C36 O31 1.279 . S
C37 O38 1.315 . S
C37 O39 1.279 . S
O38 Cd30 2.223 . S
O38 C37 1.315 . S
O39 Cd29 2.240 . S
O39 C37 1.279 . S
O40 Cd30 2.297 . S
O40 C35 1.247 . S
O41 Cd30 2.439 . S
O41 C35 1.208 . S
O42 Cd43 2.223 . S
O42 C50 1.315 . S
Cd43 O42 2.223 . S
Cd43 O46 2.297 . S
Cd43 O47 2.439 . S
Cd43 O53 2.240 . S
Cd44 O45 2.240 . S
Cd44 O52 2.223 . S
Cd44 O54 2.297 . S
Cd44 O55 2.439 . S
O45 Cd44 2.240 . S
O45 C50 1.279 . S
O46 Cd43 2.297 . S
O46 C48 1.247 . S
O47 Cd43 2.439 . S
O47 C48 1.208 . S
C48 O46 1.247 . S
C48 O47 1.208 . S
C49 O54 1.247 . S
C49 O55 1.208 . S
C50 O42 1.315 . S
C50 O45 1.279 . S
C51 O52 1.315 . S
C51 O53 1.279 . S
O52 Cd44 2.223 . S
O52 C51 1.315 . S
O53 Cd43 2.240 . S
O53 C51 1.279 . S
O54 Cd44 2.297 . S
O54 C49 1.247 . S
O55 Cd44 2.439 . S
O55 C49 1.208 . S
O56 Cd57 2.223 . S
O56 C64 1.315 . S
Cd57 O56 2.223 . S
Cd57 O60 2.297 . S
Cd57 O61 2.439 . S
Cd57 O67 2.240 . S
Cd58 O59 2.240 . S
Cd58 O66 2.223 . S
Cd58 O68 2.297 . S
Cd58 O69 2.439 . S
O59 Cd58 2.240 . S
O59 C64 1.279 . S
O60 Cd57 2.297 . S
O60 C62 1.247 . S
O61 Cd57 2.439 . S
O61 C62 1.208 . S
C62 O60 1.247 . S
C62 O61 1.208 . S
C63 O68 1.247 . S
C63 O69 1.208 . S
C64 O56 1.315 . S
C64 O59 1.279 . S
C65 O66 1.315 . S
C65 O67 1.279 . S
O66 Cd58 2.223 . S
O66 C65 1.315 . S
O67 Cd57 2.240 . S
O67 C65 1.279 . S
O68 Cd58 2.297 . S
O68 C63 1.247 . S
O69 Cd58 2.439 . S
O69 C63 1.208 . S
O70 Cd71 2.223 . S
O70 C78 1.315 . S
Cd71 O70 2.223 . S
Cd71 O74 2.297 . S
Cd71 O75 2.439 . S
Cd71 O81 2.240 . S
Cd72 O73 2.240 . S
Cd72 O80 2.223 . S
Cd72 O82 2.297 . S
Cd72 O83 2.439 . S
O73 Cd72 2.240 . S
O73 C78 1.279 . S
O74 Cd71 2.297 . S
O74 C76 1.247 . S
O75 Cd71 2.439 . S
O75 C76 1.208 . S
C76 O74 1.247 . S
C76 O75 1.208 . S
C77 O82 1.247 . S
C77 O83 1.208 . S
C78 O70 1.315 . S
C78 O73 1.279 . S
C79 O80 1.315 . S
C79 O81 1.279 . S
O80 Cd72 2.223 . S
O80 C79 1.315 . S
O81 Cd71 2.240 . S
O81 C79 1.279 . S
O82 Cd72 2.297 . S
O82 C77 1.247 . S
O83 Cd72 2.439 . S
O83 C77 1.208 . S
C84 C85 1.391 . S
C84 C86 1.394 . S
C84 H100 0.931 . S
C85 C84 1.391 . S
C85 C89 1.376 . S
C86 C84 1.394 . S
C86 C87 1.369 . S
C86 C90 1.531 . S
C87 C86 1.369 . S
C87 C88 1.410 . S
C87 C95 1.503 1_545 S
C88 C87 1.410 . S
C88 C89 1.392 . S
C88 C91 1.511 . S
C89 C85 1.376 . S
C89 C88 1.392 . S
C89 H101 0.929 . S
C90 C86 1.531 . S
C90 H102 0.960 . S
C90 H103 0.962 . S
C90 H104 0.960 . S
C91 C88 1.511 . S
C91 H105 0.961 . S
C91 H106 0.961 1_545 S
C91 H107 0.961 1_545 S
C92 C93 1.370 . S
C92 C94 1.363 . S
C92 H108 0.931 . S
C93 C92 1.370 . S
C93 C97 1.408 . S
C94 C92 1.363 . S
C94 C95 1.370 . S
C94 C98 1.524 . S
C95 C87 1.503 1_565 S
C95 C94 1.370 . S
C95 C96 1.403 . S
C96 C95 1.403 . S
C96 C97 1.404 . S
C96 C99 1.539 . S
C97 C93 1.408 . S
C97 C96 1.404 . S
C97 H109 0.930 . S
C98 C94 1.524 . S
C98 H110 0.956 1_565 S
C98 H111 0.961 1_565 S
C98 H112 0.961 . S
C99 C96 1.539 . S
C99 H113 0.958 . S
C99 H114 0.961 . S
C99 H115 0.960 . S
H100 C84 0.931 . S
H101 C89 0.929 . S
H102 C90 0.960 . S
H103 C90 0.962 . S
H104 C90 0.960 . S
H105 C91 0.961 . S
H106 C91 0.961 1_565 S
H107 C91 0.961 1_565 S
H108 C92 0.931 . S
H109 C97 0.930 . S
H110 C98 0.956 1_545 S
H111 C98 0.961 1_545 S
H112 C98 0.961 . S
H113 C99 0.958 . S
H114 C99 0.961 . S
H115 C99 0.960 . S
C116 C117 1.391 . S
C116 C118 1.394 . S
C116 H132 0.931 . S
C117 C116 1.391 . S
C117 C121 1.376 . S
C118 C116 1.394 . S
C118 C119 1.369 . S
C118 C122 1.531 . S
C119 C118 1.369 . S
C119 C120 1.410 . S
C119 C127 1.503 . S
C120 C119 1.410 . S
C120 C121 1.392 . S
C120 C123 1.511 . S
C121 C117 1.376 . S
C121 C120 1.392 . S
C121 H133 0.929 . S
C122 C118 1.531 . S
C122 H134 0.960 . S
C122 H135 0.962 . S
C122 H136 0.960 . S
C123 C120 1.511 . S
C123 H137 0.961 . S
C123 H138 0.961 . S
C123 H139 0.961 . S
C124 C125 1.370 . S
C124 C126 1.363 . S
C124 H140 0.931 . S
C125 C124 1.370 . S
C125 C129 1.408 . S
C126 C124 1.363 . S
C126 C127 1.370 . S
C126 C130 1.524 . S
C127 C119 1.503 . S
C127 C126 1.370 . S
C127 C128 1.403 . S
C128 C127 1.403 . S
C128 C129 1.404 . S
C128 C131 1.539 . S
C129 C125 1.408 . S
C129 C128 1.404 . S
C129 H141 0.930 . S
C130 C126 1.524 . S
C130 H142 0.956 . S
C130 H143 0.961 . S
C130 H144 0.961 . S
C131 C128 1.539 . S
C131 H145 0.958 . S
C131 H146 0.961 . S
C131 H147 0.960 . S
H132 C116 0.931 . S
H133 C121 0.929 . S
H134 C122 0.960 . S
H135 C122 0.962 . S
H136 C122 0.960 . S
H137 C123 0.961 . S
H138 C123 0.961 . S
H139 C123 0.961 . S
H140 C124 0.931 . S
H141 C129 0.930 . S
H142 C130 0.956 . S
H143 C130 0.961 . S
H144 C130 0.961 . S
H145 C131 0.958 . S
H146 C131 0.961 . S
H147 C131 0.960 . S
C148 C149 1.391 . S
C148 C150 1.394 . S
C148 H164 0.931 . S
C149 C148 1.391 . S
C149 C153 1.376 . S
C150 C148 1.394 . S
C150 C151 1.369 . S
C150 C154 1.531 . S
C151 C150 1.369 . S
C151 C152 1.410 . S
C151 C159 1.503 1_655 S
C152 C151 1.410 . S
C152 C153 1.392 . S
C152 C155 1.511 . S
C153 C149 1.376 . S
C153 C152 1.392 . S
C153 H165 0.929 . S
C154 C150 1.531 . S
C154 H166 0.960 . S
C154 H167 0.962 . S
C154 H168 0.960 . S
C155 C152 1.511 . S
C155 H169 0.961 . S
C155 H170 0.961 1_655 S
C155 H171 0.961 . S
C156 C157 1.370 . S
C156 C158 1.363 . S
C156 H172 0.931 . S
C157 C156 1.370 . S
C157 C161 1.408 . S
C158 C156 1.363 . S
C158 C159 1.370 . S
C158 C162 1.524 . S
C159 C151 1.503 1_455 S
C159 C158 1.370 . S
C159 C160 1.403 . S
C160 C159 1.403 . S
C160 C161 1.404 . S
C160 C163 1.539 . S
C161 C157 1.408 . S
C161 C160 1.404 . S
C161 H173 0.930 . S
C162 C158 1.524 . S
C162 H174 0.956 . S
C162 H175 0.961 . S
C162 H176 0.961 . S
C163 C160 1.539 . S
C163 H177 0.958 . S
C163 H178 0.961 . S
C163 H179 0.960 1_455 S
H164 C148 0.931 . S
H165 C153 0.929 . S
H166 C154 0.960 . S
H167 C154 0.962 . S
H168 C154 0.960 . S
H169 C155 0.961 . S
H170 C155 0.961 1_455 S
H171 C155 0.961 . S
H172 C156 0.931 . S
H173 C161 0.930 . S
H174 C162 0.956 . S
H175 C162 0.961 . S
H176 C162 0.961 . S
H177 C163 0.958 . S
H178 C163 0.961 . S
H179 C163 0.960 1_655 S
C180 C181 1.391 . S
C180 C182 1.394 . S
C180 H196 0.931 . S
C181 C180 1.391 . S
C181 C185 1.376 . S
C182 C180 1.394 . S
C182 C183 1.369 . S
C182 C186 1.531 . S
C183 C182 1.369 . S
C183 C184 1.410 . S
C183 C191 1.503 1_455 S
C184 C183 1.410 . S
C184 C185 1.392 . S
C184 C187 1.511 . S
C185 C181 1.376 . S
C185 C184 1.392 . S
C185 H197 0.929 . S
C186 C182 1.531 . S
C186 H198 0.960 . S
C186 H199 0.962 . S
C186 H200 0.960 . S
C187 C184 1.511 . S
C187 H201 0.961 . S
C187 H202 0.961 1_455 S
C187 H203 0.961 . S
C188 C189 1.370 . S
C188 C190 1.363 . S
C188 H204 0.931 . S
C189 C188 1.370 . S
C189 C193 1.408 . S
C190 C188 1.363 . S
C190 C191 1.370 . S
C190 C194 1.524 . S
C191 C183 1.503 1_655 S
C191 C190 1.370 . S
C191 C192 1.403 . S
C192 C191 1.403 . S
C192 C193 1.404 . S
C192 C195 1.539 . S
C193 C189 1.408 . S
C193 C192 1.404 . S
C193 H205 0.930 . S
C194 C190 1.524 . S
C194 H206 0.956 . S
C194 H207 0.961 . S
C194 H208 0.961 . S
C195 C192 1.539 . S
C195 H209 0.958 . S
C195 H210 0.961 . S
C195 H211 0.960 1_655 S
H196 C180 0.931 . S
H197 C185 0.929 . S
H198 C186 0.960 . S
H199 C186 0.962 . S
H200 C186 0.960 . S
H201 C187 0.961 . S
H202 C187 0.961 1_655 S
H203 C187 0.961 . S
H204 C188 0.931 . S
H205 C193 0.930 . S
H206 C194 0.956 . S
H207 C194 0.961 . S
H208 C194 0.961 . S
H209 C195 0.958 . S
H210 C195 0.961 . S
H211 C195 0.960 1_455 S
C212 C213 1.391 . S
C212 C214 1.394 . S
C212 H228 0.931 . S
C213 C212 1.391 . S
C213 C217 1.376 . S
C214 C212 1.394 . S
C214 C215 1.369 . S
C214 C218 1.531 . S
C215 C214 1.369 . S
C215 C216 1.410 . S
C215 C223 1.503 1_565 S
C216 C215 1.410 . S
C216 C217 1.392 . S
C216 C219 1.511 . S
C217 C213 1.376 . S
C217 C216 1.392 . S
C217 H229 0.929 . S
C218 C214 1.531 . S
C218 H230 0.960 1_565 S
C218 H231 0.974 . S
C218 H232 0.960 . S
C219 C216 1.511 . S
C219 H233 0.961 . S
C219 H234 0.961 . S
C219 H235 0.961 . S
C220 C221 1.370 . S
C220 C222 1.363 . S
C220 H236 0.931 . S
C221 C220 1.370 . S
C221 C225 1.408 . S
C222 C220 1.363 . S
C222 C223 1.370 . S
C222 C226 1.524 . S
C223 C215 1.503 1_545 S
C223 C222 1.370 . S
C223 C224 1.403 . S
C224 C223 1.403 . S
C224 C225 1.404 . S
C224 C227 1.539 . S
C225 C221 1.408 . S
C225 C224 1.404 . S
C225 H237 0.930 . S
C226 C222 1.524 . S
C226 H238 0.956 . S
C226 H239 0.961 1_545 S
C226 H240 0.961 . S
C227 C224 1.539 . S
C227 H241 0.958 . S
C227 H242 0.961 . S
C227 H243 0.960 1_545 S
H228 C212 0.931 . S
H229 C217 0.929 . S
H230 C218 0.960 1_545 S
H231 C218 0.974 . S
H232 C218 0.960 . S
H233 C219 0.961 . S
H234 C219 0.961 . S
H235 C219 0.961 . S
H236 C220 0.931 . S
H237 C225 0.930 . S
H238 C226 0.956 . S
H239 C226 0.961 1_565 S
H240 C226 0.961 . S
H241 C227 0.958 . S
H242 C227 0.961 . S
H243 C227 0.960 1_565 S
C244 C245 1.391 . S
C244 C246 1.394 . S
C244 H260 0.931 . S
C245 C244 1.391 . S
C245 C249 1.376 . S
C246 C244 1.394 . S
C246 C247 1.369 . S
C246 C250 1.531 . S
C247 C246 1.369 . S
C247 C248 1.410 . S
C247 C255 1.503 . S
C248 C247 1.410 . S
C248 C249 1.392 . S
C248 C251 1.511 . S
C249 C245 1.376 . S
C249 C248 1.392 . S
C249 H261 0.929 . S
C250 C246 1.531 . S
C250 H262 0.960 . S
C250 H263 0.962 . S
C250 H264 0.960 . S
C251 C248 1.511 . S
C251 H265 0.961 . S
C251 H266 0.961 . S
C251 H267 0.961 . S
C252 C253 1.370 . S
C252 C254 1.363 . S
C252 H268 0.931 . S
C253 C252 1.370 . S
C253 C257 1.408 . S
C254 C252 1.363 . S
C254 C255 1.370 . S
C254 C258 1.524 . S
C255 C247 1.503 . S
C255 C254 1.370 . S
C255 C256 1.403 . S
C256 C255 1.403 . S
C256 C257 1.404 . S
C256 C259 1.539 . S
C257 C253 1.408 . S
C257 C256 1.404 . S
C257 H269 0.930 . S
C258 C254 1.524 . S
C258 H270 0.956 . S
C258 H271 0.961 . S
C258 H272 0.961 . S
C259 C256 1.539 . S
C259 H273 0.958 . S
C259 H274 0.961 . S
C259 H275 0.960 . S
H260 C244 0.931 . S
H261 C249 0.929 . S
H262 C250 0.960 . S
H263 C250 0.962 . S
H264 C250 0.960 . S
H265 C251 0.961 . S
H266 C251 0.961 . S
H267 C251 0.961 . S
H268 C252 0.931 . S
H269 C257 0.930 . S
H270 C258 0.956 . S
H271 C258 0.961 . S
H272 C258 0.961 . S
H273 C259 0.958 . S
H274 C259 0.961 . S
H275 C259 0.960 . S
C276 C277 1.391 . S
C276 C278 1.394 . S
C276 H292 0.931 . S
C277 C276 1.391 . S
C277 C281 1.376 . S
C278 C276 1.394 . S
C278 C279 1.369 . S
C278 C282 1.531 . S
C279 C278 1.369 . S
C279 C280 1.410 . S
C279 C287 1.503 1_556 S
C280 C279 1.410 . S
C280 C281 1.392 . S
C280 C283 1.511 . S
C281 C277 1.376 . S
C281 C280 1.392 . S
C281 H293 0.929 . S
C282 C278 1.531 . S
C282 H294 0.960 1_556 S
C282 H295 0.962 1_556 S
C282 H296 0.960 . S
C283 C280 1.511 . S
C283 H297 0.961 . S
C283 H298 0.961 1_556 S
C283 H299 0.961 . S
C284 C285 1.370 . S
C284 C286 1.363 . S
C284 H300 0.931 . S
C285 C284 1.370 . S
C285 C289 1.408 . S
C286 C284 1.363 . S
C286 C287 1.370 . S
C286 C290 1.524 . S
C287 C279 1.503 1_554 S
C287 C286 1.370 . S
C287 C288 1.403 . S
C288 C287 1.403 . S
C288 C289 1.404 . S
C288 C291 1.539 . S
C289 C285 1.408 . S
C289 C288 1.404 . S
C289 H301 0.930 . S
C290 C286 1.524 . S
C290 H302 0.956 . S
C290 H303 0.961 . S
C290 H304 0.961 . S
C291 C288 1.539 . S
C291 H305 0.958 . S
C291 H306 0.961 . S
C291 H307 0.960 . S
H292 C276 0.931 . S
H293 C281 0.929 . S
H294 C282 0.960 1_554 S
H295 C282 0.962 1_554 S
H296 C282 0.960 . S
H297 C283 0.961 . S
H298 C283 0.961 1_554 S
H299 C283 0.961 . S
H300 C284 0.931 . S
H301 C289 0.930 . S
H302 C290 0.956 . S
H303 C290 0.961 . S
H304 C290 0.961 . S
H305 C291 0.958 . S
H306 C291 0.961 . S
H307 C291 0.960 . S
C308 C309 1.391 . S
C308 C310 1.394 . S
C308 H324 0.931 . S
C309 C308 1.391 . S
C309 C313 1.376 . S
C310 C308 1.394 . S
C310 C311 1.369 . S
C310 C314 1.531 . S
C311 C310 1.369 . S
C311 C312 1.410 . S
C311 C319 1.503 . S
C312 C311 1.410 . S
C312 C313 1.392 . S
C312 C315 1.511 . S
C313 C309 1.376 . S
C313 C312 1.392 . S
C313 H325 0.929 . S
C314 C310 1.531 . S
C314 H326 0.960 . S
C314 H327 0.962 . S
C314 H328 0.960 . S
C315 C312 1.511 . S
C315 H329 0.961 . S
C315 H330 0.961 . S
C315 H331 0.961 . S
C316 C317 1.370 . S
C316 C318 1.363 . S
C316 H332 0.931 . S
C317 C316 1.370 . S
C317 C321 1.408 . S
C318 C316 1.363 . S
C318 C319 1.370 . S
C318 C322 1.524 . S
C319 C311 1.503 . S
C319 C318 1.370 . S
C319 C320 1.403 . S
C320 C319 1.403 . S
C320 C321 1.404 . S
C320 C323 1.539 . S
C321 C317 1.408 . S
C321 C320 1.404 . S
C321 H333 0.930 . S
C322 C318 1.524 . S
C322 H334 0.956 . S
C322 H335 0.961 . S
C322 H336 0.961 . S
C323 C320 1.539 . S
C323 H337 0.958 . S
C323 H338 0.961 . S
C323 H339 0.960 . S
H324 C308 0.931 . S
H325 C313 0.929 . S
H326 C314 0.960 . S
H327 C314 0.962 . S
H328 C314 0.960 . S
H329 C315 0.961 . S
H330 C315 0.961 . S
H331 C315 0.961 . S
H332 C316 0.931 . S
H333 C321 0.930 . S
H334 C322 0.956 . S
H335 C322 0.961 . S
H336 C322 0.961 . S
H337 C323 0.958 . S
H338 C323 0.961 . S
H339 C323 0.960 . S
C340 C341 1.391 . S
C340 C342 1.394 . S
C340 H356 0.931 . S
C341 C340 1.391 . S
C341 C345 1.376 . S
C342 C340 1.394 . S
C342 C343 1.369 . S
C342 C346 1.531 . S
C343 C342 1.369 . S
C343 C344 1.410 . S
C343 C351 1.503 . S
C344 C343 1.410 . S
C344 C345 1.392 . S
C344 C347 1.511 . S
C345 C341 1.376 . S
C345 C344 1.392 . S
C345 H357 0.929 . S
C346 C342 1.531 . S
C346 H358 0.960 . S
C346 H359 0.962 . S
C346 H360 0.960 . S
C347 C344 1.511 . S
C347 H361 0.961 . S
C347 H362 0.961 . S
C347 H363 0.961 . S
C348 C349 1.370 . S
C348 C350 1.363 . S
C348 H364 0.931 . S
C349 C348 1.370 . S
C349 C353 1.408 . S
C350 C348 1.363 . S
C350 C351 1.370 . S
C350 C354 1.524 . S
C351 C343 1.503 . S
C351 C350 1.370 . S
C351 C352 1.403 . S
C352 C351 1.403 . S
C352 C353 1.404 . S
C352 C355 1.539 . S
C353 C349 1.408 . S
C353 C352 1.404 . S
C353 H365 0.930 . S
C354 C350 1.524 . S
C354 H366 0.956 . S
C354 H367 0.961 . S
C354 H368 0.961 . S
C355 C352 1.539 . S
C355 H369 0.958 . S
C355 H370 0.961 . S
C355 H371 0.960 . S
H356 C340 0.931 . S
H357 C345 0.929 . S
H358 C346 0.960 . S
H359 C346 0.962 . S
H360 C346 0.960 . S
H361 C347 0.961 . S
H362 C347 0.961 . S
H363 C347 0.961 . S
H364 C348 0.931 . S
H365 C353 0.930 . S
H366 C354 0.956 . S
H367 C354 0.961 . S
H368 C354 0.961 . S
H369 C355 0.958 . S
H370 C355 0.961 . S
H371 C355 0.960 . S
C372 C373 1.391 . S
C372 C374 1.394 . S
C372 H388 0.931 . S
C373 C372 1.391 . S
C373 C377 1.376 . S
C374 C372 1.394 . S
C374 C375 1.369 . S
C374 C378 1.531 . S
C375 C374 1.369 . S
C375 C376 1.410 . S
C375 C383 1.503 1_556 S
C376 C375 1.410 . S
C376 C377 1.392 . S
C376 C379 1.511 . S
C377 C373 1.376 . S
C377 C376 1.392 . S
C377 H389 0.929 . S
C378 C374 1.531 . S
C378 H390 0.960 1_556 S
C378 H391 0.962 . S
C378 H392 0.960 . S
C379 C376 1.511 . S
C379 H393 0.961 . S
C379 H394 0.961 1_556 S
C379 H395 0.961 . S
C380 C381 1.370 . S
C380 C382 1.363 . S
C380 H396 0.931 . S
C381 C380 1.370 . S
C381 C385 1.408 . S
C382 C380 1.363 . S
C382 C383 1.370 . S
C382 C386 1.524 . S
C383 C375 1.503 1_554 S
C383 C382 1.370 . S
C383 C384 1.403 . S
C384 C383 1.403 . S
C384 C385 1.404 . S
C384 C387 1.539 . S
C385 C381 1.408 . S
C385 C384 1.404 . S
C385 H397 0.930 . S
C386 C382 1.524 . S
C386 H398 0.956 . S
C386 H399 0.961 . S
C386 H400 0.961 . S
C387 C384 1.539 . S
C387 H401 0.958 . S
C387 H402 0.961 . S
C387 H403 0.960 . S
H388 C372 0.931 . S
H389 C377 0.929 . S
H390 C378 0.960 1_554 S
H391 C378 0.962 . S
H392 C378 0.960 . S
H393 C379 0.961 . S
H394 C379 0.961 1_554 S
H395 C379 0.961 . S
H396 C380 0.931 . S
H397 C385 0.930 . S
H398 C386 0.956 . S
H399 C386 0.961 . S
H400 C386 0.961 . S
H401 C387 0.958 . S
H402 C387 0.961 . S
H403 C387 0.960 . S
C404 C405 1.391 . S
C404 C406 1.394 . S
C404 H420 0.931 . S
C405 C404 1.391 . S
C405 C409 1.376 . S
C406 C404 1.394 . S
C406 C407 1.369 . S
C406 C410 1.531 . S
C407 C406 1.369 . S
C407 C408 1.410 . S
C407 C415 1.503 . S
C408 C407 1.410 . S
C408 C409 1.392 . S
C408 C411 1.511 . S
C409 C405 1.376 . S
C409 C408 1.392 . S
C409 H421 0.929 . S
C410 C406 1.531 . S
C410 H422 0.960 . S
C410 H423 0.962 . S
C410 H424 0.960 . S
C411 C408 1.511 . S
C411 H425 0.961 . S
C411 H426 0.961 . S
C411 H427 0.961 . S
C412 C413 1.370 . S
C412 C414 1.363 . S
C412 H428 0.931 . S
C413 C412 1.370 . S
C413 C417 1.408 . S
C414 C412 1.363 . S
C414 C415 1.370 . S
C414 C418 1.524 . S
C415 C407 1.503 . S
C415 C414 1.370 . S
C415 C416 1.403 . S
C416 C415 1.403 . S
C416 C417 1.404 . S
C416 C419 1.539 . S
C417 C413 1.408 . S
C417 C416 1.404 . S
C417 H429 0.930 . S
C418 C414 1.524 . S
C418 H430 0.956 . S
C418 H431 0.961 . S
C418 H432 0.961 . S
C419 C416 1.539 . S
C419 H433 0.958 . S
C419 H434 0.961 . S
C419 H435 0.960 . S
H420 C404 0.931 . S
H421 C409 0.929 . S
H422 C410 0.960 . S
H423 C410 0.962 . S
H424 C410 0.960 . S
H425 C411 0.961 . S
H426 C411 0.961 . S
H427 C411 0.961 . S
H428 C412 0.931 . S
H429 C417 0.930 . S
H430 C418 0.956 . S
H431 C418 0.961 . S
H432 C418 0.961 . S
H433 C419 0.958 . S
H434 C419 0.961 . S
H435 C419 0.960 . S
C436 C437 1.391 . S
C436 C438 1.394 . S
C436 H452 0.931 . S
C437 C436 1.391 . S
C437 C441 1.376 . S
C438 C436 1.394 . S
C438 C439 1.369 . S
C438 C442 1.531 . S
C439 C438 1.369 . S
C439 C440 1.410 . S
C439 C447 1.503 . S
C440 C439 1.410 . S
C440 C441 1.392 . S
C440 C443 1.511 . S
C441 C437 1.376 . S
C441 C440 1.392 . S
C441 H453 0.929 . S
C442 C438 1.531 . S
C442 H454 0.960 . S
C442 H455 0.962 . S
C442 H456 0.960 . S
C443 C440 1.511 . S
C443 H457 0.961 . S
C443 H458 0.961 . S
C443 H459 0.961 . S
C444 C445 1.370 . S
C444 C446 1.363 . S
C444 H460 0.931 . S
C445 C444 1.370 . S
C445 C449 1.408 . S
C446 C444 1.363 . S
C446 C447 1.370 . S
C446 C450 1.524 . S
C447 C439 1.503 . S
C447 C446 1.370 . S
C447 C448 1.403 . S
C448 C447 1.403 . S
C448 C449 1.404 . S
C448 C451 1.539 . S
C449 C445 1.408 . S
C449 C448 1.404 . S
C449 H461 0.930 . S
C450 C446 1.524 . S
C450 H462 0.956 . S
C450 H463 0.961 . S
C450 H464 0.961 . S
C451 C448 1.539 . S
C451 H465 0.958 . S
C451 H466 0.961 . S
C451 H467 0.960 . S
H452 C436 0.931 . S
H453 C441 0.929 . S
H454 C442 0.960 . S
H455 C442 0.962 . S
H456 C442 0.960 . S
H457 C443 0.961 . S
H458 C443 0.961 . S
H459 C443 0.961 . S
H460 C444 0.931 . S
H461 C449 0.930 . S
H462 C450 0.956 . S
H463 C450 0.961 . S
H464 C450 0.961 . S
H465 C451 0.958 . S
H466 C451 0.961 . S
H467 C451 0.960 . S
C85 C7 1.187 . S
C93 C49 1.198 . S
C117 C21 1.193 . S
C125 C63 1.197 . S
C149 C35 1.203 . S
C157 C77 1.192 . S
C181 C22 1.758 . S
C189 C64 1.773 . S
C213 C78 1.744 . S
C221 C36 1.764 . S
C245 C50 1.780 . S
C253 C8 1.760 . S
C277 C34 1.364 . S
C285 C9 1.284 . S
C309 C48 1.363 . S
C317 C23 1.287 . S
C341 C37 1.249 . S
C349 C62 1.368 . S
C373 C76 1.363 . S
C381 C51 1.284 . S
C405 C65 1.318 . S
C413 C6 1.367 . S
C437 C79 1.264 . S
C445 C20 1.368 . S
