# Generated by pormake.
# Topology uog, (4)-cn, num edge types: 1
# Building blocks:
#     Node 0, Type 0, BuildingBlock: GALJAG_clean_sbu_0, # of connection points: 4
#     Node 1, Type 0, BuildingBlock: GALJAG_clean_sbu_0, # of connection points: 4
#     Node 2, Type 0, BuildingBlock: GALJAG_clean_sbu_0, # of connection points: 4
#     Node 3, Type 0, BuildingBlock: GALJAG_clean_sbu_0, # of connection points: 4
#     Node 4, Type 0, BuildingBlock: GALJAG_clean_sbu_0, # of connection points: 4
#     Node 5, Type 0, BuildingBlock: GALJAG_clean_sbu_0, # of connection points: 4
#     Edge 6, Type (0, 0), BuildingBlock: XIVTED_clean_linker_0, # of connection points: 2
#     Edge 7, Type (0, 0), BuildingBlock: XIVTED_clean_linker_0, # of connection points: 2
#     Edge 8, Type (0, 0), BuildingBlock: XIVTED_clean_linker_0, # of connection points: 2
#     Edge 9, Type (0, 0), BuildingBlock: XIVTED_clean_linker_0, # of connection points: 2
#     Edge 10, Type (0, 0), BuildingBlock: XIVTED_clean_linker_0, # of connection points: 2
#     Edge 11, Type (0, 0), BuildingBlock: XIVTED_clean_linker_0, # of connection points: 2
#     Edge 12, Type (0, 0), BuildingBlock: XIVTED_clean_linker_0, # of connection points: 2
#     Edge 13, Type (0, 0), BuildingBlock: XIVTED_clean_linker_0, # of connection points: 2
#     Edge 14, Type (0, 0), BuildingBlock: XIVTED_clean_linker_0, # of connection points: 2
#     Edge 15, Type (0, 0), BuildingBlock: XIVTED_clean_linker_0, # of connection points: 2
#     Edge 16, Type (0, 0), BuildingBlock: XIVTED_clean_linker_0, # of connection points: 2
#     Edge 17, Type (0, 0), BuildingBlock: XIVTED_clean_linker_0, # of connection points: 2
# Relax obj value: 0.035
# Max RMSD: 0.144
# Mean RMSD: 0.144
data_MOF--net-uog--node1-GALJAG_clean_sbu_0--edge1-XIVTED_clean_linker_0
_symmetry_space_group_name_H-M    P1
_symmetry_Int_Tables_number       1
_symmetry_cell_setting            triclinic
loop_
_symmetry_equiv_pos_as_xyz
'x, y, z'
_cell_length_a     29.040714
_cell_length_b     29.048835
_cell_length_c     43.283137
_cell_angle_alpha  89.751918
_cell_angle_beta   90.160071
_cell_angle_gamma 119.8731
loop_
_atom_site_label
_atom_site_type_symbol
_atom_site_fract_x
_atom_site_fract_y
_atom_site_fract_z
_atom_type_partial_charge
In0 In 0.60089 0.29344 0.15922 0.0
O1 O 0.53231 0.31095 0.16103 0.0
O2 O 0.6106 0.37316 0.17172 0.0
C3 C 0.56334 0.18913 0.1512 0.0
C4 C 0.64092 0.29638 0.21519 0.0
C5 C 0.63803 0.32948 0.10266 0.0
O6 O 0.53309 0.20729 0.15831 0.0
O7 O 0.61141 0.22376 0.14705 0.0
O8 O 0.66904 0.33466 0.12473 0.0
O9 O 0.58922 0.30537 0.10927 0.0
C10 C 0.56227 0.35933 0.16805 0.0
O11 O 0.67069 0.32235 0.19275 0.0
O12 O 0.59188 0.27051 0.20922 0.0
In13 In 0.29675 0.5767 0.49141 0.0
O14 O 0.34013 0.65041 0.52143 0.0
O15 O 0.31431 0.57369 0.54146 0.0
C16 C 0.28929 0.59657 0.43207 0.0
C17 C 0.19535 0.54373 0.5054 0.0
C18 C 0.36721 0.54447 0.48254 0.0
O19 O 0.31338 0.63408 0.45129 0.0
O20 O 0.26948 0.55022 0.44311 0.0
O21 O 0.31915 0.51179 0.48937 0.0
O22 O 0.3787 0.59243 0.48016 0.0
C23 C 0.33733 0.6234 0.54523 0.0
O24 O 0.21222 0.51107 0.50297 0.0
O25 O 0.22976 0.59187 0.50114 0.0
In26 In 0.70052 0.31179 0.82337 0.0
O27 O 0.67566 0.35302 0.85887 0.0
O28 O 0.72879 0.3255 0.87246 0.0
C29 C 0.65921 0.30926 0.76796 0.0
C30 C 0.63413 0.2089 0.83511 0.0
C31 C 0.80257 0.37815 0.80937 0.0
O32 O 0.65716 0.33765 0.78952 0.0
O33 O 0.68252 0.28362 0.77456 0.0
O34 O 0.78574 0.32966 0.81577 0.0
O35 O 0.76771 0.39206 0.80957 0.0
C36 C 0.70327 0.34839 0.88012 0.0
O37 O 0.68258 0.22604 0.82853 0.0
O38 O 0.62057 0.24394 0.83666 0.0
In39 In 0.40519 0.69595 0.15529 0.0
O40 O 0.47419 0.67895 0.15995 0.0
O41 O 0.39831 0.61672 0.14548 0.0
C42 C 0.44604 0.80116 0.16215 0.0
C43 C 0.35532 0.66363 0.20941 0.0
C44 C 0.36877 0.68702 0.09762 0.0
O45 O 0.47538 0.78152 0.15597 0.0
O46 O 0.39749 0.76767 0.16563 0.0
O47 O 0.33944 0.65727 0.11909 0.0
O48 O 0.41567 0.72033 0.10531 0.0
C49 C 0.44572 0.63063 0.15232 0.0
O50 O 0.33147 0.66654 0.18565 0.0
O51 O 0.4034 0.67682 0.20576 0.0
In52 In 0.70955 0.39948 0.4912 0.0
O53 O 0.79499 0.46598 0.49881 0.0
O54 O 0.77547 0.38558 0.50696 0.0
C55 C 0.64362 0.43567 0.47671 0.0
C56 C 0.66641 0.36341 0.54655 0.0
C57 C 0.71414 0.36301 0.43557 0.0
O58 O 0.69174 0.46715 0.4839 0.0
O59 O 0.63028 0.38714 0.47598 0.0
O60 O 0.68597 0.3319 0.45703 0.0
O61 O 0.73927 0.4117 0.44245 0.0
C62 C 0.81092 0.43399 0.50646 0.0
O63 O 0.66384 0.33196 0.52548 0.0
O64 O 0.69122 0.41211 0.53952 0.0
In65 In 0.29048 0.72078 0.81589 0.0
O66 O 0.31173 0.80778 0.81808 0.0
O67 O 0.37287 0.78788 0.82486 0.0
C68 C 0.18738 0.65322 0.80518 0.0
C69 C 0.29104 0.69585 0.87513 0.0
C70 C 0.32862 0.71375 0.76131 0.0
O71 O 0.20529 0.70289 0.80698 0.0
O72 O 0.22157 0.6388 0.8084 0.0
O73 O 0.3332 0.69059 0.78508 0.0
O74 O 0.30454 0.73941 0.76537 0.0
C75 C 0.36046 0.82382 0.82342 0.0
O76 O 0.31045 0.67969 0.85444 0.0
O77 O 0.27132 0.72346 0.8656 0.0
H78 H 0.62141 0.14235 0.13553 0.0
H79 H 0.39031 0.84942 0.17896 0.0
H80 H 0.46548 0.10558 0.16627 0.0
H81 H 0.54445 0.88384 0.14615 0.0
H82 H 0.41828 0.94348 0.17552 0.0
H83 H 0.59439 0.04828 0.13912 0.0
C84 C 0.58129 0.11439 0.1428 0.0
C85 C 0.54556 0.1318 0.15059 0.0
C86 C 0.44615 0.93065 0.16915 0.0
C87 C 0.5146 0.02406 0.1551 0.0
C88 C 0.43028 0.8769 0.17122 0.0
C89 C 0.46513 0.85876 0.16278 0.0
C90 C 0.4973 0.96679 0.15846 0.0
C91 C 0.51641 0.89618 0.15296 0.0
C92 C 0.56599 0.0607 0.14496 0.0
C93 C 0.4942 0.09386 0.15994 0.0
N94 N 0.53091 0.94847 0.15094 0.0
N95 N 0.48033 0.0418 0.16204 0.0
H96 H 0.47339 0.60963 0.47397 0.0
H97 H 0.5382 0.37313 0.46469 0.0
H98 H 0.35411 0.44412 0.4817 0.0
H99 H 0.65819 0.5366 0.47947 0.0
H100 H 0.47062 0.39955 0.46318 0.0
H101 H 0.54148 0.58427 0.46882 0.0
C102 C 0.46147 0.56787 0.47446 0.0
C103 C 0.40801 0.52885 0.47841 0.0
C104 C 0.51173 0.42971 0.46658 0.0
C105 C 0.48585 0.49966 0.47242 0.0
C106 C 0.55044 0.41475 0.46731 0.0
C107 C 0.60391 0.45276 0.47239 0.0
C108 C 0.52653 0.48315 0.47084 0.0
C109 C 0.61741 0.50604 0.47558 0.0
C110 C 0.50043 0.55349 0.47156 0.0
C111 C 0.39489 0.47543 0.47883 0.0
N112 N 0.57888 0.51967 0.47487 0.0
N113 N 0.4336 0.46238 0.47589 0.0
H114 H 0.88728 0.36097 0.80882 0.0
H115 H 0.1029 0.67066 0.79988 0.0
H116 H 0.84654 0.48418 0.79814 0.0
H117 H 0.14258 0.54589 0.80175 0.0
H118 H 0.00861 0.60303 0.79701 0.0
H119 H 0.98126 0.42813 0.804 0.0
C120 C 0.89811 0.40207 0.80521 0.0
C121 C 0.85915 0.41707 0.80404 0.0
C122 C 0.03803 0.59052 0.79783 0.0
C123 C 0.96642 0.49417 0.79875 0.0
C124 C 0.09179 0.62911 0.79945 0.0
C125 C 0.13054 0.61386 0.80123 0.0
C126 C 0.02307 0.53639 0.79815 0.0
C127 C 0.11401 0.55947 0.80057 0.0
C128 C 0.95172 0.44043 0.80248 0.0
C129 C 0.87533 0.47089 0.7993 0.0
N130 N 0.06158 0.52276 0.79928 0.0
N131 N 0.92772 0.50753 0.79705 0.0
H132 H 0.15324 0.6084 0.51162 0.0
H133 H 0.85297 0.3709 0.52034 0.0
H134 H 0.10969 0.443 0.5118 0.0
H135 H 0.89708 0.5347 0.50502 0.0
H136 H 0.94677 0.39735 0.52463 0.0
H137 H 0.0599 0.58257 0.51657 0.0
C138 C 0.12401 0.56654 0.51292 0.0
C139 C 0.1392 0.52771 0.51104 0.0
C140 C 0.93597 0.42757 0.52054 0.0
C141 C 0.03202 0.4979 0.51663 0.0
C142 C 0.88241 0.41257 0.51817 0.0
C143 C 0.86725 0.45069 0.5121 0.0
C144 C 0.97472 0.48113 0.51689 0.0
C145 C 0.90705 0.50403 0.50959 0.0
C146 C 0.07067 0.55187 0.5157 0.0
C147 C 0.09963 0.47418 0.51303 0.0
N148 N 0.95903 0.51765 0.51183 0.0
N149 N 0.04772 0.4608 0.51554 0.0
H150 H 0.46717 0.86576 0.82999 0.0
H151 H 0.52803 0.16492 0.84556 0.0
H152 H 0.34583 0.91015 0.82617 0.0
H153 H 0.64962 0.12331 0.83045 0.0
H154 H 0.46101 0.07095 0.84491 0.0
H155 H 0.53435 0.95899 0.83599 0.0
C156 C 0.45462 0.89517 0.83048 0.0
C157 C 0.40081 0.88024 0.82746 0.0
C158 C 0.50234 0.08229 0.84189 0.0
C159 C 0.47767 0.98712 0.83445 0.0
C160 C 0.54072 0.13594 0.8424 0.0
C161 C 0.59451 0.15194 0.83792 0.0
C162 C 0.51779 0.04422 0.83698 0.0
C163 C 0.60859 0.11268 0.83394 0.0
C164 C 0.49307 0.94841 0.83387 0.0
C165 C 0.38689 0.92 0.82829 0.0
N166 N 0.57039 0.06056 0.83346 0.0
N167 N 0.42514 0.97171 0.83172 0.0
H168 H 0.39081 0.52682 0.13538 0.0
H169 H 0.61921 0.46351 0.18477 0.0
H170 H 0.54196 0.64496 0.17245 0.0
H171 H 0.46436 0.3449 0.15248 0.0
H172 H 0.59186 0.53039 0.18092 0.0
H173 H 0.41802 0.46028 0.14081 0.0
C174 C 0.42995 0.53887 0.14452 0.0
C175 C 0.46422 0.59158 0.15348 0.0
C176 C 0.56373 0.48971 0.17484 0.0
C177 C 0.49551 0.51518 0.16003 0.0
C178 C 0.57923 0.45142 0.17714 0.0
C179 C 0.54396 0.39852 0.16891 0.0
C180 C 0.51264 0.47512 0.16408 0.0
C181 C 0.49274 0.38517 0.15914 0.0
C182 C 0.44537 0.50071 0.14773 0.0
C183 C 0.5144 0.60481 0.16518 0.0
N184 N 0.47872 0.42329 0.15684 0.0
N185 N 0.52852 0.5668 0.16818 0.0
H186 H 0.63472 0.3751 0.90722 0.0
H187 H 0.73576 0.36103 0.07721 0.0
H188 H 0.77074 0.35686 0.92623 0.0
H189 H 0.58152 0.34123 0.05637 0.0
H190 H 0.76031 0.38233 0.02266 0.0
H191 H 0.62655 0.38628 0.96265 0.0
C192 C 0.66338 0.37441 0.92301 0.0
C193 C 0.70281 0.36408 0.91233 0.0
C194 C 0.72134 0.37394 0.03018 0.0
C195 C 0.6937 0.37654 0.97543 0.0
C196 C 0.70741 0.36187 0.06123 0.0
C197 C 0.65628 0.34843 0.07105 0.0
C198 C 0.68391 0.37283 0.00906 0.0
C199 C 0.62106 0.35043 0.04957 0.0
C200 C 0.65864 0.38059 0.95459 0.0
C201 C 0.73917 0.36384 0.93366 0.0
N202 N 0.63537 0.36192 0.01952 0.0
N203 N 0.73339 0.36934 0.96427 0.0
H204 H 0.34364 0.58009 0.24267 0.0
H205 H 0.31842 0.69012 0.40124 0.0
H206 H 0.31357 0.71106 0.24481 0.0
H207 H 0.2551 0.52218 0.38701 0.0
H208 H 0.3217 0.70263 0.34487 0.0
H209 H 0.31578 0.56041 0.2967 0.0
C210 C 0.33002 0.60391 0.25452 0.0
C211 C 0.3301 0.64669 0.23961 0.0
C212 C 0.30631 0.66304 0.35427 0.0
C213 C 0.30034 0.62601 0.30127 0.0
C214 C 0.30475 0.65595 0.3863 0.0
C215 C 0.28707 0.60519 0.39869 0.0
C216 C 0.29113 0.61919 0.33483 0.0
C217 C 0.26942 0.56209 0.37841 0.0
C218 C 0.31423 0.59282 0.28522 0.0
C219 C 0.31314 0.67725 0.25575 0.0
N220 N 0.27273 0.5702 0.34747 0.0
N221 N 0.29979 0.66696 0.28611 0.0
H222 H 0.63318 0.37895 0.74109 0.0
H223 H 0.63135 0.26578 0.57323 0.0
H224 H 0.64045 0.23664 0.72341 0.0
H225 H 0.65331 0.42155 0.59099 0.0
H226 H 0.60992 0.24343 0.62792 0.0
H227 H 0.61567 0.38362 0.68604 0.0
C228 C 0.63008 0.3482 0.72572 0.0
C229 C 0.63942 0.30808 0.73652 0.0
C230 C 0.61864 0.28222 0.61971 0.0
C231 C 0.61971 0.3131 0.67392 0.0
C232 C 0.63078 0.29489 0.58854 0.0
C233 C 0.64525 0.3459 0.57787 0.0
C234 C 0.62103 0.32091 0.64011 0.0
C235 C 0.64345 0.38208 0.59851 0.0
C236 C 0.62024 0.3509 0.69435 0.0
C237 C 0.6346 0.26891 0.7158 0.0
N238 N 0.63228 0.36913 0.62875 0.0
N239 N 0.62575 0.27277 0.6854 0.0
H240 H 0.3093 0.62157 0.90361 0.0
H241 H 0.3925 0.7701 0.06014 0.0
H242 H 0.28102 0.75136 0.92207 0.0
H243 H 0.30434 0.599 0.06328 0.0
H244 H 0.3664 0.76722 0.00607 0.0
H245 H 0.32081 0.61407 0.95957 0.0
C246 C 0.30517 0.6481 0.91942 0.0
C247 C 0.2945 0.68728 0.90836 0.0
C248 C 0.35253 0.73035 0.01869 0.0
C249 C 0.30831 0.67949 0.97144 0.0
C250 C 0.36745 0.73195 0.04935 0.0
C251 C 0.35019 0.68471 0.0659 0.0
C252 C 0.3216 0.68115 0.00431 0.0
C253 C 0.31788 0.63617 0.0511 0.0
C254 C 0.31139 0.64359 0.95115 0.0
C255 C 0.28927 0.72063 0.92966 0.0
N256 N 0.30514 0.63549 0.02075 0.0
N257 N 0.29713 0.71657 0.96017 0.0
H258 H 0.78245 0.41955 0.38929 0.0
H259 H 0.58919 0.22651 0.26156 0.0
H260 H 0.64669 0.26649 0.40973 0.0
H261 H 0.73713 0.36806 0.24018 0.0
H262 H 0.6162 0.23431 0.31548 0.0
H263 H 0.77393 0.39572 0.33479 0.0
C264 C 0.75126 0.38056 0.38231 0.0
C265 C 0.71456 0.34523 0.40386 0.0
C266 C 0.6432 0.26333 0.29901 0.0
C267 C 0.70423 0.31795 0.34155 0.0
C268 C 0.6277 0.25901 0.26824 0.0
C269 C 0.66066 0.2973 0.24661 0.0
C270 C 0.69164 0.3068 0.30833 0.0
C271 C 0.71041 0.33803 0.25629 0.0
C272 C 0.74649 0.36694 0.3512 0.0
C273 C 0.67544 0.29504 0.39375 0.0
N274 N 0.72407 0.34228 0.28664 0.0
N275 N 0.67072 0.28321 0.36316 0.0
H276 H 0.36178 0.64518 0.74214 0.0
H277 H 0.3631 0.72305 0.56468 0.0
H278 H 0.33795 0.77285 0.71042 0.0
H279 H 0.35165 0.57641 0.59588 0.0
H280 H 0.37752 0.75425 0.61825 0.0
H281 H 0.38121 0.63193 0.68889 0.0
C282 C 0.36142 0.67087 0.72404 0.0
C283 C 0.34732 0.70946 0.73047 0.0
C284 C 0.37266 0.71557 0.61326 0.0
C285 C 0.36944 0.69473 0.66984 0.0
C286 C 0.36464 0.69791 0.58273 0.0
C287 C 0.35523 0.64679 0.57605 0.0
C288 C 0.37138 0.68184 0.63706 0.0
C289 C 0.35783 0.61578 0.60019 0.0
C290 C 0.37241 0.6633 0.6937 0.0
C291 C 0.34776 0.74199 0.70629 0.0
N292 N 0.36507 0.63356 0.6297 0.0
N293 N 0.35808 0.73355 0.67698 0.0
loop_
_geom_bond_atom_site_label_1
_geom_bond_atom_site_label_2
_geom_bond_distance
_geom_bond_site_symmetry_2
_ccdc_geom_bond_type
In0 O1 2.294 . S
In0 O2 2.326 . S
In0 O6 2.266 . S
In0 O7 2.326 . S
In0 O8 2.266 . S
In0 O9 2.326 . S
In0 O11 2.294 . S
In0 O12 2.326 . S
O1 In0 2.294 . S
O1 C10 1.240 . S
O2 In0 2.326 . S
O2 C10 1.252 . S
C3 O6 1.252 . S
C3 O7 1.260 . S
C4 O11 1.240 . S
C4 O12 1.252 . S
C5 O8 1.252 . S
C5 O9 1.260 . S
O6 In0 2.266 . S
O6 C3 1.252 . S
O7 In0 2.326 . S
O7 C3 1.260 . S
O8 In0 2.266 . S
O8 C5 1.252 . S
O9 In0 2.326 . S
O9 C5 1.260 . S
C10 O1 1.240 . S
C10 O2 1.252 . S
O11 In0 2.294 . S
O11 C4 1.240 . S
O12 In0 2.326 . S
O12 C4 1.252 . S
In13 O14 2.294 . S
In13 O15 2.326 . S
In13 O19 2.266 . S
In13 O20 2.326 . S
In13 O21 2.266 . S
In13 O22 2.326 . S
In13 O24 2.294 . S
In13 O25 2.326 . S
O14 In13 2.294 . S
O14 C23 1.240 . S
O15 In13 2.326 . S
O15 C23 1.252 . S
C16 O19 1.252 . S
C16 O20 1.260 . S
C17 O24 1.240 . S
C17 O25 1.252 . S
C18 O21 1.252 . S
C18 O22 1.260 . S
O19 In13 2.266 . S
O19 C16 1.252 . S
O20 In13 2.326 . S
O20 C16 1.260 . S
O21 In13 2.266 . S
O21 C18 1.252 . S
O22 In13 2.326 . S
O22 C18 1.260 . S
C23 O14 1.240 . S
C23 O15 1.252 . S
O24 In13 2.294 . S
O24 C17 1.240 . S
O25 In13 2.326 . S
O25 C17 1.252 . S
In26 O27 2.294 . S
In26 O28 2.326 . S
In26 O32 2.266 . S
In26 O33 2.326 . S
In26 O34 2.266 . S
In26 O35 2.326 . S
In26 O37 2.294 . S
In26 O38 2.326 . S
O27 In26 2.294 . S
O27 C36 1.240 . S
O28 In26 2.326 . S
O28 C36 1.252 . S
C29 O32 1.252 . S
C29 O33 1.260 . S
C30 O37 1.240 . S
C30 O38 1.252 . S
C31 O34 1.252 . S
C31 O35 1.260 . S
O32 In26 2.266 . S
O32 C29 1.252 . S
O33 In26 2.326 . S
O33 C29 1.260 . S
O34 In26 2.266 . S
O34 C31 1.252 . S
O35 In26 2.326 . S
O35 C31 1.260 . S
C36 O27 1.240 . S
C36 O28 1.252 . S
O37 In26 2.294 . S
O37 C30 1.240 . S
O38 In26 2.326 . S
O38 C30 1.252 . S
In39 O40 2.294 . S
In39 O41 2.326 . S
In39 O45 2.266 . S
In39 O46 2.326 . S
In39 O47 2.266 . S
In39 O48 2.326 . S
In39 O50 2.294 . S
In39 O51 2.326 . S
O40 In39 2.294 . S
O40 C49 1.240 . S
O41 In39 2.326 . S
O41 C49 1.252 . S
C42 O45 1.252 . S
C42 O46 1.260 . S
C43 O50 1.240 . S
C43 O51 1.252 . S
C44 O47 1.252 . S
C44 O48 1.260 . S
O45 In39 2.266 . S
O45 C42 1.252 . S
O46 In39 2.326 . S
O46 C42 1.260 . S
O47 In39 2.266 . S
O47 C44 1.252 . S
O48 In39 2.326 . S
O48 C44 1.260 . S
C49 O40 1.240 . S
C49 O41 1.252 . S
O50 In39 2.294 . S
O50 C43 1.240 . S
O51 In39 2.326 . S
O51 C43 1.252 . S
In52 O53 2.294 . S
In52 O54 2.326 . S
In52 O58 2.266 . S
In52 O59 2.326 . S
In52 O60 2.266 . S
In52 O61 2.326 . S
In52 O63 2.294 . S
In52 O64 2.326 . S
O53 In52 2.294 . S
O53 C62 1.240 . S
O54 In52 2.326 . S
O54 C62 1.252 . S
C55 O58 1.252 . S
C55 O59 1.260 . S
C56 O63 1.240 . S
C56 O64 1.252 . S
C57 O60 1.252 . S
C57 O61 1.260 . S
O58 In52 2.266 . S
O58 C55 1.252 . S
O59 In52 2.326 . S
O59 C55 1.260 . S
O60 In52 2.266 . S
O60 C57 1.252 . S
O61 In52 2.326 . S
O61 C57 1.260 . S
C62 O53 1.240 . S
C62 O54 1.252 . S
O63 In52 2.294 . S
O63 C56 1.240 . S
O64 In52 2.326 . S
O64 C56 1.252 . S
In65 O66 2.294 . S
In65 O67 2.326 . S
In65 O71 2.266 . S
In65 O72 2.326 . S
In65 O73 2.266 . S
In65 O74 2.326 . S
In65 O76 2.294 . S
In65 O77 2.326 . S
O66 In65 2.294 . S
O66 C75 1.240 . S
O67 In65 2.326 . S
O67 C75 1.252 . S
C68 O71 1.252 . S
C68 O72 1.260 . S
C69 O76 1.240 . S
C69 O77 1.252 . S
C70 O73 1.252 . S
C70 O74 1.260 . S
O71 In65 2.266 . S
O71 C68 1.252 . S
O72 In65 2.326 . S
O72 C68 1.260 . S
O73 In65 2.266 . S
O73 C70 1.252 . S
O74 In65 2.326 . S
O74 C70 1.260 . S
C75 O66 1.240 . S
C75 O67 1.252 . S
O76 In65 2.294 . S
O76 C69 1.240 . S
O77 In65 2.326 . S
O77 C69 1.252 . S
H78 C84 0.930 . S
H79 C88 0.930 . S
H80 C93 0.929 . S
H81 C91 0.929 . S
H82 C86 0.929 . S
H83 C92 0.929 . S
C84 H78 0.930 . S
C84 C85 1.367 . S
C84 C92 1.378 . S
C85 C84 1.367 . S
C85 C93 1.433 . S
C86 H82 0.929 . S
C86 C88 1.378 . S
C86 C90 1.350 . S
C87 C90 1.463 1_545 S
C87 C92 1.350 . S
C87 N95 1.427 . S
C88 H79 0.930 . S
C88 C86 1.378 . S
C88 C89 1.367 . S
C89 C88 1.367 . S
C89 C91 1.433 . S
C90 C86 1.350 . S
C90 C87 1.463 1_565 S
C90 N94 1.427 . S
C91 H81 0.929 . S
C91 C89 1.433 . S
C91 N94 1.384 . S
C92 H83 0.929 . S
C92 C84 1.378 . S
C92 C87 1.350 . S
C93 H80 0.929 . S
C93 C85 1.433 . S
C93 N95 1.384 . S
N94 C90 1.427 . S
N94 C91 1.384 . S
N95 C87 1.427 . S
N95 C93 1.384 . S
H96 C102 0.930 . S
H97 C106 0.930 . S
H98 C111 0.929 . S
H99 C109 0.929 . S
H100 C104 0.929 . S
H101 C110 0.929 . S
C102 H96 0.930 . S
C102 C103 1.367 . S
C102 C110 1.378 . S
C103 C102 1.367 . S
C103 C111 1.433 . S
C104 H100 0.929 . S
C104 C106 1.378 . S
C104 C108 1.350 . S
C105 C108 1.463 . S
C105 C110 1.350 . S
C105 N113 1.427 . S
C106 H97 0.930 . S
C106 C104 1.378 . S
C106 C107 1.367 . S
C107 C106 1.367 . S
C107 C109 1.433 . S
C108 C104 1.350 . S
C108 C105 1.463 . S
C108 N112 1.427 . S
C109 H99 0.929 . S
C109 C107 1.433 . S
C109 N112 1.384 . S
C110 H101 0.929 . S
C110 C102 1.378 . S
C110 C105 1.350 . S
C111 H98 0.929 . S
C111 C103 1.433 . S
C111 N113 1.384 . S
N112 C108 1.427 . S
N112 C109 1.384 . S
N113 C105 1.427 . S
N113 C111 1.384 . S
H114 C120 0.930 . S
H115 C124 0.930 . S
H116 C129 0.929 . S
H117 C127 0.929 . S
H118 C122 0.929 . S
H119 C128 0.929 . S
C120 H114 0.930 . S
C120 C121 1.367 . S
C120 C128 1.378 . S
C121 C120 1.367 . S
C121 C129 1.433 . S
C122 H118 0.929 . S
C122 C124 1.378 . S
C122 C126 1.350 . S
C123 C126 1.463 1_655 S
C123 C128 1.350 . S
C123 N131 1.427 . S
C124 H115 0.930 . S
C124 C122 1.378 . S
C124 C125 1.367 . S
C125 C124 1.367 . S
C125 C127 1.433 . S
C126 C122 1.350 . S
C126 C123 1.463 1_455 S
C126 N130 1.427 . S
C127 H117 0.929 . S
C127 C125 1.433 . S
C127 N130 1.384 . S
C128 H119 0.929 . S
C128 C120 1.378 . S
C128 C123 1.350 . S
C129 H116 0.929 . S
C129 C121 1.433 . S
C129 N131 1.384 . S
N130 C126 1.427 . S
N130 C127 1.384 . S
N131 C123 1.427 . S
N131 C129 1.384 . S
H132 C138 0.930 . S
H133 C142 0.930 . S
H134 C147 0.929 . S
H135 C145 0.929 . S
H136 C140 0.929 . S
H137 C146 0.929 . S
C138 H132 0.930 . S
C138 C139 1.367 . S
C138 C146 1.378 . S
C139 C138 1.367 . S
C139 C147 1.433 . S
C140 H136 0.929 . S
C140 C142 1.378 . S
C140 C144 1.350 . S
C141 C144 1.463 1_455 S
C141 C146 1.350 . S
C141 N149 1.427 . S
C142 H133 0.930 . S
C142 C140 1.378 . S
C142 C143 1.367 . S
C143 C142 1.367 . S
C143 C145 1.433 . S
C144 C140 1.350 . S
C144 C141 1.463 1_655 S
C144 N148 1.427 . S
C145 H135 0.929 . S
C145 C143 1.433 . S
C145 N148 1.384 . S
C146 H137 0.929 . S
C146 C138 1.378 . S
C146 C141 1.350 . S
C147 H134 0.929 . S
C147 C139 1.433 . S
C147 N149 1.384 . S
N148 C144 1.427 . S
N148 C145 1.384 . S
N149 C141 1.427 . S
N149 C147 1.384 . S
H150 C156 0.930 . S
H151 C160 0.930 . S
H152 C165 0.929 . S
H153 C163 0.929 . S
H154 C158 0.929 . S
H155 C164 0.929 . S
C156 H150 0.930 . S
C156 C157 1.367 . S
C156 C164 1.378 . S
C157 C156 1.367 . S
C157 C165 1.433 . S
C158 H154 0.929 . S
C158 C160 1.378 . S
C158 C162 1.350 . S
C159 C162 1.463 1_565 S
C159 C164 1.350 . S
C159 N167 1.427 . S
C160 H151 0.930 . S
C160 C158 1.378 . S
C160 C161 1.367 . S
C161 C160 1.367 . S
C161 C163 1.433 . S
C162 C158 1.350 . S
C162 C159 1.463 1_545 S
C162 N166 1.427 . S
C163 H153 0.929 . S
C163 C161 1.433 . S
C163 N166 1.384 . S
C164 H155 0.929 . S
C164 C156 1.378 . S
C164 C159 1.350 . S
C165 H152 0.929 . S
C165 C157 1.433 . S
C165 N167 1.384 . S
N166 C162 1.427 . S
N166 C163 1.384 . S
N167 C159 1.427 . S
N167 C165 1.384 . S
H168 C174 0.930 . S
H169 C178 0.930 . S
H170 C183 0.929 . S
H171 C181 0.929 . S
H172 C176 0.929 . S
H173 C182 0.929 . S
C174 H168 0.930 . S
C174 C175 1.367 . S
C174 C182 1.378 . S
C175 C174 1.367 . S
C175 C183 1.433 . S
C176 H172 0.929 . S
C176 C178 1.378 . S
C176 C180 1.350 . S
C177 C180 1.463 . S
C177 C182 1.350 . S
C177 N185 1.427 . S
C178 H169 0.930 . S
C178 C176 1.378 . S
C178 C179 1.367 . S
C179 C178 1.367 . S
C179 C181 1.433 . S
C180 C176 1.350 . S
C180 C177 1.463 . S
C180 N184 1.427 . S
C181 H171 0.929 . S
C181 C179 1.433 . S
C181 N184 1.384 . S
C182 H173 0.929 . S
C182 C174 1.378 . S
C182 C177 1.350 . S
C183 H170 0.929 . S
C183 C175 1.433 . S
C183 N185 1.384 . S
N184 C180 1.427 . S
N184 C181 1.384 . S
N185 C177 1.427 . S
N185 C183 1.384 . S
H186 C192 0.930 . S
H187 C196 0.930 . S
H188 C201 0.929 . S
H189 C199 0.929 . S
H190 C194 0.929 . S
H191 C200 0.929 . S
C192 H186 0.930 . S
C192 C193 1.367 . S
C192 C200 1.378 . S
C193 C192 1.367 . S
C193 C201 1.433 . S
C194 H190 0.929 . S
C194 C196 1.378 . S
C194 C198 1.350 . S
C195 C198 1.463 1_556 S
C195 C200 1.350 . S
C195 N203 1.427 . S
C196 H187 0.930 . S
C196 C194 1.378 . S
C196 C197 1.367 . S
C197 C196 1.367 . S
C197 C199 1.433 . S
C198 C194 1.350 . S
C198 C195 1.463 1_554 S
C198 N202 1.427 . S
C199 H189 0.929 . S
C199 C197 1.433 . S
C199 N202 1.384 . S
C200 H191 0.929 . S
C200 C192 1.378 . S
C200 C195 1.350 . S
C201 H188 0.929 . S
C201 C193 1.433 . S
C201 N203 1.384 . S
N202 C198 1.427 . S
N202 C199 1.384 . S
N203 C195 1.427 . S
N203 C201 1.384 . S
H204 C210 0.930 . S
H205 C214 0.930 . S
H206 C219 0.929 . S
H207 C217 0.929 . S
H208 C212 0.929 . S
H209 C218 0.929 . S
C210 H204 0.930 . S
C210 C211 1.367 . S
C210 C218 1.378 . S
C211 C210 1.367 . S
C211 C219 1.433 . S
C212 H208 0.929 . S
C212 C214 1.378 . S
C212 C216 1.350 . S
C213 C216 1.463 . S
C213 C218 1.350 . S
C213 N221 1.427 . S
C214 H205 0.930 . S
C214 C212 1.378 . S
C214 C215 1.367 . S
C215 C214 1.367 . S
C215 C217 1.433 . S
C216 C212 1.350 . S
C216 C213 1.463 . S
C216 N220 1.427 . S
C217 H207 0.929 . S
C217 C215 1.433 . S
C217 N220 1.384 . S
C218 H209 0.929 . S
C218 C210 1.378 . S
C218 C213 1.350 . S
C219 H206 0.929 . S
C219 C211 1.433 . S
C219 N221 1.384 . S
N220 C216 1.427 . S
N220 C217 1.384 . S
N221 C213 1.427 . S
N221 C219 1.384 . S
H222 C228 0.930 . S
H223 C232 0.930 . S
H224 C237 0.929 . S
H225 C235 0.929 . S
H226 C230 0.929 . S
H227 C236 0.929 . S
C228 H222 0.930 . S
C228 C229 1.367 . S
C228 C236 1.378 . S
C229 C228 1.367 . S
C229 C237 1.433 . S
C230 H226 0.929 . S
C230 C232 1.378 . S
C230 C234 1.350 . S
C231 C234 1.463 . S
C231 C236 1.350 . S
C231 N239 1.427 . S
C232 H223 0.930 . S
C232 C230 1.378 . S
C232 C233 1.367 . S
C233 C232 1.367 . S
C233 C235 1.433 . S
C234 C230 1.350 . S
C234 C231 1.463 . S
C234 N238 1.427 . S
C235 H225 0.929 . S
C235 C233 1.433 . S
C235 N238 1.384 . S
C236 H227 0.929 . S
C236 C228 1.378 . S
C236 C231 1.350 . S
C237 H224 0.929 . S
C237 C229 1.433 . S
C237 N239 1.384 . S
N238 C234 1.427 . S
N238 C235 1.384 . S
N239 C231 1.427 . S
N239 C237 1.384 . S
H240 C246 0.930 . S
H241 C250 0.930 . S
H242 C255 0.929 . S
H243 C253 0.929 . S
H244 C248 0.929 . S
H245 C254 0.929 . S
C246 H240 0.930 . S
C246 C247 1.367 . S
C246 C254 1.378 . S
C247 C246 1.367 . S
C247 C255 1.433 . S
C248 H244 0.929 . S
C248 C250 1.378 . S
C248 C252 1.350 . S
C249 C252 1.463 1_556 S
C249 C254 1.350 . S
C249 N257 1.427 . S
C250 H241 0.930 . S
C250 C248 1.378 . S
C250 C251 1.367 . S
C251 C250 1.367 . S
C251 C253 1.433 . S
C252 C248 1.350 . S
C252 C249 1.463 1_554 S
C252 N256 1.427 . S
C253 H243 0.929 . S
C253 C251 1.433 . S
C253 N256 1.384 . S
C254 H245 0.929 . S
C254 C246 1.378 . S
C254 C249 1.350 . S
C255 H242 0.929 . S
C255 C247 1.433 . S
C255 N257 1.384 . S
N256 C252 1.427 . S
N256 C253 1.384 . S
N257 C249 1.427 . S
N257 C255 1.384 . S
H258 C264 0.930 . S
H259 C268 0.930 . S
H260 C273 0.929 . S
H261 C271 0.929 . S
H262 C266 0.929 . S
H263 C272 0.929 . S
C264 H258 0.930 . S
C264 C265 1.367 . S
C264 C272 1.378 . S
C265 C264 1.367 . S
C265 C273 1.433 . S
C266 H262 0.929 . S
C266 C268 1.378 . S
C266 C270 1.350 . S
C267 C270 1.463 . S
C267 C272 1.350 . S
C267 N275 1.427 . S
C268 H259 0.930 . S
C268 C266 1.378 . S
C268 C269 1.367 . S
C269 C268 1.367 . S
C269 C271 1.433 . S
C270 C266 1.350 . S
C270 C267 1.463 . S
C270 N274 1.427 . S
C271 H261 0.929 . S
C271 C269 1.433 . S
C271 N274 1.384 . S
C272 H263 0.929 . S
C272 C264 1.378 . S
C272 C267 1.350 . S
C273 H260 0.929 . S
C273 C265 1.433 . S
C273 N275 1.384 . S
N274 C270 1.427 . S
N274 C271 1.384 . S
N275 C267 1.427 . S
N275 C273 1.384 . S
H276 C282 0.930 . S
H277 C286 0.930 . S
H278 C291 0.929 . S
H279 C289 0.929 . S
H280 C284 0.929 . S
H281 C290 0.929 . S
C282 H276 0.930 . S
C282 C283 1.367 . S
C282 C290 1.378 . S
C283 C282 1.367 . S
C283 C291 1.433 . S
C284 H280 0.929 . S
C284 C286 1.378 . S
C284 C288 1.350 . S
C285 C288 1.463 . S
C285 C290 1.350 . S
C285 N293 1.427 . S
C286 H277 0.930 . S
C286 C284 1.378 . S
C286 C287 1.367 . S
C287 C286 1.367 . S
C287 C289 1.433 . S
C288 C284 1.350 . S
C288 C285 1.463 . S
C288 N292 1.427 . S
C289 H279 0.929 . S
C289 C287 1.433 . S
C289 N292 1.384 . S
C290 H281 0.929 . S
C290 C282 1.378 . S
C290 C285 1.350 . S
C291 H278 0.929 . S
C291 C283 1.433 . S
C291 N293 1.384 . S
N292 C288 1.427 . S
N292 C289 1.384 . S
N293 C285 1.427 . S
N293 C291 1.384 . S
C85 C3 1.416 . S
C89 C42 1.415 . S
C103 C18 1.414 . S
C107 C55 1.414 . S
C121 C31 1.416 . S
C125 C68 1.416 . S
C139 C17 1.395 . S
C143 C62 1.396 . S
C157 C75 1.397 . S
C161 C30 1.396 . S
C175 C49 1.398 . S
C179 C10 1.397 . S
C193 C36 1.348 . S
C197 C5 1.346 . S
C211 C43 1.344 . S
C215 C16 1.345 . S
C229 C29 1.343 . S
C233 C56 1.347 . S
C247 C69 1.346 . S
C251 C44 1.342 . S
C265 C57 1.339 . S
C269 C4 1.342 . S
C283 C70 1.346 . S
C287 C23 1.346 . S
