# Generated by pormake.
# Topology vbv, (6)-cn, num edge types: 1
# Building blocks:
#     Node 0, Type 0, BuildingBlock: OJICUG_clean_sbu_0, # of connection points: 6
#     Node 1, Type 0, BuildingBlock: OJICUG_clean_sbu_0, # of connection points: 6
#     Node 2, Type 0, BuildingBlock: OJICUG_clean_sbu_0, # of connection points: 6
#     Node 3, Type 0, BuildingBlock: OJICUG_clean_sbu_0, # of connection points: 6
#     Node 4, Type 0, BuildingBlock: OJICUG_clean_sbu_0, # of connection points: 6
#     Node 5, Type 0, BuildingBlock: OJICUG_clean_sbu_0, # of connection points: 6
#     Node 6, Type 0, BuildingBlock: OJICUG_clean_sbu_0, # of connection points: 6
#     Node 7, Type 0, BuildingBlock: OJICUG_clean_sbu_0, # of connection points: 6
#     Node 8, Type 0, BuildingBlock: OJICUG_clean_sbu_0, # of connection points: 6
#     Node 9, Type 0, BuildingBlock: OJICUG_clean_sbu_0, # of connection points: 6
#     Node 10, Type 0, BuildingBlock: OJICUG_clean_sbu_0, # of connection points: 6
#     Node 11, Type 0, BuildingBlock: OJICUG_clean_sbu_0, # of connection points: 6
#     Node 12, Type 0, BuildingBlock: OJICUG_clean_sbu_0, # of connection points: 6
#     Node 13, Type 0, BuildingBlock: OJICUG_clean_sbu_0, # of connection points: 6
#     Node 14, Type 0, BuildingBlock: OJICUG_clean_sbu_0, # of connection points: 6
#     Node 15, Type 0, BuildingBlock: OJICUG_clean_sbu_0, # of connection points: 6
#     Edge 16, Type (0, 0), BuildingBlock: MIFKUJ_clean_linker_0, # of connection points: 2
#     Edge 17, Type (0, 0), BuildingBlock: MIFKUJ_clean_linker_0, # of connection points: 2
#     Edge 18, Type (0, 0), BuildingBlock: MIFKUJ_clean_linker_0, # of connection points: 2
#     Edge 19, Type (0, 0), BuildingBlock: MIFKUJ_clean_linker_0, # of connection points: 2
#     Edge 20, Type (0, 0), BuildingBlock: MIFKUJ_clean_linker_0, # of connection points: 2
#     Edge 21, Type (0, 0), BuildingBlock: MIFKUJ_clean_linker_0, # of connection points: 2
#     Edge 22, Type (0, 0), BuildingBlock: MIFKUJ_clean_linker_0, # of connection points: 2
#     Edge 23, Type (0, 0), BuildingBlock: MIFKUJ_clean_linker_0, # of connection points: 2
#     Edge 24, Type (0, 0), BuildingBlock: MIFKUJ_clean_linker_0, # of connection points: 2
#     Edge 25, Type (0, 0), BuildingBlock: MIFKUJ_clean_linker_0, # of connection points: 2
#     Edge 26, Type (0, 0), BuildingBlock: MIFKUJ_clean_linker_0, # of connection points: 2
#     Edge 27, Type (0, 0), BuildingBlock: MIFKUJ_clean_linker_0, # of connection points: 2
#     Edge 28, Type (0, 0), BuildingBlock: MIFKUJ_clean_linker_0, # of connection points: 2
#     Edge 29, Type (0, 0), BuildingBlock: MIFKUJ_clean_linker_0, # of connection points: 2
#     Edge 30, Type (0, 0), BuildingBlock: MIFKUJ_clean_linker_0, # of connection points: 2
#     Edge 31, Type (0, 0), BuildingBlock: MIFKUJ_clean_linker_0, # of connection points: 2
#     Edge 32, Type (0, 0), BuildingBlock: MIFKUJ_clean_linker_0, # of connection points: 2
#     Edge 33, Type (0, 0), BuildingBlock: MIFKUJ_clean_linker_0, # of connection points: 2
#     Edge 34, Type (0, 0), BuildingBlock: MIFKUJ_clean_linker_0, # of connection points: 2
#     Edge 35, Type (0, 0), BuildingBlock: MIFKUJ_clean_linker_0, # of connection points: 2
#     Edge 36, Type (0, 0), BuildingBlock: MIFKUJ_clean_linker_0, # of connection points: 2
#     Edge 37, Type (0, 0), BuildingBlock: MIFKUJ_clean_linker_0, # of connection points: 2
#     Edge 38, Type (0, 0), BuildingBlock: MIFKUJ_clean_linker_0, # of connection points: 2
#     Edge 39, Type (0, 0), BuildingBlock: MIFKUJ_clean_linker_0, # of connection points: 2
#     Edge 40, Type (0, 0), BuildingBlock: MIFKUJ_clean_linker_0, # of connection points: 2
#     Edge 41, Type (0, 0), BuildingBlock: MIFKUJ_clean_linker_0, # of connection points: 2
#     Edge 42, Type (0, 0), BuildingBlock: MIFKUJ_clean_linker_0, # of connection points: 2
#     Edge 43, Type (0, 0), BuildingBlock: MIFKUJ_clean_linker_0, # of connection points: 2
#     Edge 44, Type (0, 0), BuildingBlock: MIFKUJ_clean_linker_0, # of connection points: 2
#     Edge 45, Type (0, 0), BuildingBlock: MIFKUJ_clean_linker_0, # of connection points: 2
#     Edge 46, Type (0, 0), BuildingBlock: MIFKUJ_clean_linker_0, # of connection points: 2
#     Edge 47, Type (0, 0), BuildingBlock: MIFKUJ_clean_linker_0, # of connection points: 2
#     Edge 48, Type (0, 0), BuildingBlock: MIFKUJ_clean_linker_0, # of connection points: 2
#     Edge 49, Type (0, 0), BuildingBlock: MIFKUJ_clean_linker_0, # of connection points: 2
#     Edge 50, Type (0, 0), BuildingBlock: MIFKUJ_clean_linker_0, # of connection points: 2
#     Edge 51, Type (0, 0), BuildingBlock: MIFKUJ_clean_linker_0, # of connection points: 2
#     Edge 52, Type (0, 0), BuildingBlock: MIFKUJ_clean_linker_0, # of connection points: 2
#     Edge 53, Type (0, 0), BuildingBlock: MIFKUJ_clean_linker_0, # of connection points: 2
#     Edge 54, Type (0, 0), BuildingBlock: MIFKUJ_clean_linker_0, # of connection points: 2
#     Edge 55, Type (0, 0), BuildingBlock: MIFKUJ_clean_linker_0, # of connection points: 2
#     Edge 56, Type (0, 0), BuildingBlock: MIFKUJ_clean_linker_0, # of connection points: 2
#     Edge 57, Type (0, 0), BuildingBlock: MIFKUJ_clean_linker_0, # of connection points: 2
#     Edge 58, Type (0, 0), BuildingBlock: MIFKUJ_clean_linker_0, # of connection points: 2
#     Edge 59, Type (0, 0), BuildingBlock: MIFKUJ_clean_linker_0, # of connection points: 2
#     Edge 60, Type (0, 0), BuildingBlock: MIFKUJ_clean_linker_0, # of connection points: 2
#     Edge 61, Type (0, 0), BuildingBlock: MIFKUJ_clean_linker_0, # of connection points: 2
#     Edge 62, Type (0, 0), BuildingBlock: MIFKUJ_clean_linker_0, # of connection points: 2
#     Edge 63, Type (0, 0), BuildingBlock: MIFKUJ_clean_linker_0, # of connection points: 2
# Relax obj value: 0.217
# Max RMSD: 0.236
# Mean RMSD: 0.236
data_MOF--net-vbv--node1-OJICUG_clean_sbu_0--edge1-MIFKUJ_clean_linker_0
_symmetry_space_group_name_H-M    P1
_symmetry_Int_Tables_number       1
_symmetry_cell_setting            triclinic
loop_
_symmetry_equiv_pos_as_xyz
'x, y, z'
_cell_length_a     70.741009
_cell_length_b     36.302068
_cell_length_c     59.952017
_cell_angle_alpha  89.991098
_cell_angle_beta   90.027282
_cell_angle_gamma 89.97193
loop_
_atom_site_label
_atom_site_type_symbol
_atom_site_fract_x
_atom_site_fract_y
_atom_site_fract_z
_atom_type_partial_charge
Sc0 Sc 0.12196 0.38355 0.10105 0.0
Sc1 Sc 0.15209 0.30803 0.09839 0.0
Sc2 Sc 0.12552 0.3326 0.05192 0.0
O3 O 0.13319 0.34133 0.08371 0.0
C4 C 0.0866 0.3501 0.07702 0.0
C5 C 0.12425 0.31973 0.13774 0.0
C6 C 0.12824 0.2512 0.0684 0.0
C7 C 0.16471 0.38847 0.11415 0.0
C8 C 0.12624 0.41831 0.0522 0.0
C9 C 0.16999 0.31582 0.05114 0.0
O10 O 0.09405 0.36236 0.09489 0.0
O11 O 0.1332 0.29751 0.12531 0.0
O12 O 0.1192 0.27603 0.05801 0.0
O13 O 0.14994 0.40494 0.10717 0.0
O14 O 0.13136 0.38843 0.04308 0.0
O15 O 0.1719 0.31628 0.07218 0.0
O16 O 0.12021 0.41985 0.0722 0.0
O17 O 0.16572 0.35346 0.11575 0.0
O18 O 0.154 0.31821 0.04144 0.0
O19 O 0.12176 0.35347 0.1326 0.0
O20 O 0.09611 0.34437 0.05925 0.0
O21 O 0.14145 0.25856 0.08217 0.0
Sc22 Sc 0.37703 0.66508 0.05594 0.0
Sc23 Sc 0.3454 0.67647 0.09938 0.0
Sc24 Sc 0.38011 0.60957 0.10319 0.0
O25 O 0.36757 0.65019 0.0861 0.0
C26 C 0.38089 0.57967 0.0527 0.0
C27 C 0.33185 0.66899 0.05099 0.0
C28 C 0.33781 0.59361 0.11412 0.0
C29 C 0.36631 0.74167 0.07333 0.0
C30 C 0.41497 0.65206 0.08349 0.0
C31 C 0.37149 0.67058 0.14058 0.0
O32 O 0.37544 0.60978 0.04404 0.0
O33 O 0.32856 0.66185 0.07136 0.0
O34 O 0.35346 0.58109 0.10687 0.0
O35 O 0.37947 0.72136 0.06601 0.0
O36 O 0.40701 0.63696 0.10018 0.0
O37 O 0.36188 0.6914 0.12782 0.0
O38 O 0.40641 0.6583 0.06518 0.0
O39 O 0.35194 0.72877 0.08341 0.0
O40 O 0.37664 0.63817 0.13491 0.0
O41 O 0.34849 0.67484 0.04352 0.0
O42 O 0.38501 0.57662 0.07336 0.0
O43 O 0.33478 0.62799 0.11632 0.0
Sc44 Sc 0.62353 0.61764 0.39175 0.0
Sc45 Sc 0.65651 0.68827 0.39577 0.0
Sc46 Sc 0.62734 0.66943 0.44057 0.0
O47 O 0.63577 0.65821 0.40943 0.0
C48 C 0.58842 0.65444 0.41519 0.0
C49 C 0.62804 0.6833 0.35644 0.0
C50 C 0.63523 0.74863 0.42551 0.0
C51 C 0.66592 0.60771 0.378 0.0
C52 C 0.62645 0.58319 0.44103 0.0
C53 C 0.67251 0.67902 0.44307 0.0
O54 O 0.59582 0.64074 0.3977 0.0
O55 O 0.63805 0.70358 0.36907 0.0
O56 O 0.62295 0.72641 0.43292 0.0
O57 O 0.65077 0.59298 0.38514 0.0
O58 O 0.63103 0.61332 0.45035 0.0
O59 O 0.67525 0.67423 0.42231 0.0
O60 O 0.62144 0.58126 0.4206 0.0
O61 O 0.66799 0.64251 0.37692 0.0
O62 O 0.656 0.68099 0.45158 0.0
O63 O 0.62427 0.64969 0.36093 0.0
O64 O 0.59789 0.66082 0.43283 0.0
O65 O 0.64918 0.73816 0.41374 0.0
Sc66 Sc 0.87809 0.38622 0.39389 0.0
Sc67 Sc 0.84633 0.31202 0.39827 0.0
Sc68 Sc 0.87138 0.34122 0.44534 0.0
O69 O 0.86529 0.34653 0.41253 0.0
C70 C 0.91158 0.34784 0.42125 0.0
C71 C 0.87594 0.31866 0.35943 0.0
C72 C 0.86505 0.25688 0.43281 0.0
C73 C 0.83542 0.39157 0.37833 0.0
C74 C 0.87566 0.42757 0.44085 0.0
C75 C 0.82672 0.33428 0.44433 0.0
O76 O 0.90555 0.3656 0.40424 0.0
O77 O 0.86465 0.2995 0.37103 0.0
O78 O 0.8708 0.28291 0.44503 0.0
O79 O 0.85096 0.40754 0.38311 0.0
O80 O 0.87288 0.39826 0.45161 0.0
O81 O 0.82652 0.32172 0.42453 0.0
O82 O 0.87781 0.42808 0.41982 0.0
O83 O 0.83293 0.35707 0.38084 0.0
O84 O 0.84186 0.34313 0.45455 0.0
O85 O 0.88057 0.35144 0.36458 0.0
O86 O 0.90103 0.33852 0.43756 0.0
O87 O 0.8566 0.26237 0.41441 0.0
Sc88 Sc 0.87915 0.61042 0.89625 0.0
Sc89 Sc 0.849 0.68704 0.89976 0.0
Sc90 Sc 0.87623 0.66161 0.94626 0.0
O91 O 0.86814 0.653 0.91415 0.0
C92 C 0.87703 0.57428 0.94494 0.0
C93 C 0.8358 0.60681 0.8832 0.0
C94 C 0.83176 0.67411 0.94822 0.0
C95 C 0.87645 0.67405 0.85918 0.0
C96 C 0.915 0.64663 0.92024 0.0
C97 C 0.87146 0.74464 0.92982 0.0
O98 O 0.87873 0.57198 0.92389 0.0
O99 O 0.83395 0.64155 0.88501 0.0
O100 O 0.84735 0.66651 0.95784 0.0
O101 O 0.88106 0.6419 0.86564 0.0
O102 O 0.9055 0.65819 0.93689 0.0
O103 O 0.86075 0.73715 0.91342 0.0
O104 O 0.90761 0.62903 0.90397 0.0
O105 O 0.86599 0.69524 0.87062 0.0
O106 O 0.87827 0.72006 0.94251 0.0
O107 O 0.85125 0.5902 0.88757 0.0
O108 O 0.87553 0.60469 0.95509 0.0
O109 O 0.83047 0.68184 0.92761 0.0
Sc110 Sc 0.62128 0.39241 0.89478 0.0
Sc111 Sc 0.65226 0.31763 0.89571 0.0
Sc112 Sc 0.6261 0.3393 0.94314 0.0
O113 O 0.63327 0.34984 0.9113 0.0
C114 C 0.62621 0.42552 0.94408 0.0
C115 C 0.66363 0.39902 0.87983 0.0
C116 C 0.67088 0.32462 0.94286 0.0
C117 C 0.62337 0.3301 0.85722 0.0
C118 C 0.58651 0.35636 0.91937 0.0
C119 C 0.62979 0.25858 0.92525 0.0
O120 O 0.6205 0.42803 0.92398 0.0
O121 O 0.66526 0.36407 0.87889 0.0
O122 O 0.65502 0.32723 0.95283 0.0
O123 O 0.62031 0.36329 0.86308 0.0
O124 O 0.59642 0.34899 0.93658 0.0
O125 O 0.64253 0.26712 0.9112 0.0
O126 O 0.59352 0.37056 0.90177 0.0
O127 O 0.63304 0.30783 0.86888 0.0
O128 O 0.62074 0.28235 0.93647 0.0
O129 O 0.6488 0.41483 0.88719 0.0
O130 O 0.63084 0.39509 0.9529 0.0
O131 O 0.67243 0.32475 0.92176 0.0
Sc132 Sc 0.3762 0.32721 0.55573 0.0
Sc133 Sc 0.34467 0.30993 0.5988 0.0
Sc134 Sc 0.37696 0.38183 0.60384 0.0
O135 O 0.36594 0.33986 0.58608 0.0
C136 C 0.41355 0.34537 0.58343 0.0
C137 C 0.36858 0.24829 0.57267 0.0
C138 C 0.37064 0.3189 0.64055 0.0
C139 C 0.3315 0.31574 0.54985 0.0
C140 C 0.37613 0.41346 0.55371 0.0
C141 C 0.33376 0.39166 0.61433 0.0
O142 O 0.40511 0.33738 0.56533 0.0
O143 O 0.35412 0.25871 0.58362 0.0
O144 O 0.3752 0.35172 0.63517 0.0
O145 O 0.34841 0.31391 0.54257 0.0
O146 O 0.37971 0.41674 0.57449 0.0
O147 O 0.33131 0.3569 0.6146 0.0
O148 O 0.37274 0.38265 0.54451 0.0
O149 O 0.32756 0.32069 0.57029 0.0
O150 O 0.34943 0.40623 0.60879 0.0
O151 O 0.38053 0.27082 0.56476 0.0
O152 O 0.40509 0.35945 0.60011 0.0
O153 O 0.3611 0.29783 0.62789 0.0
Sc154 Sc 0.12142 0.61124 0.60219 0.0
Sc155 Sc 0.15078 0.68768 0.60117 0.0
Sc156 Sc 0.1255 0.66342 0.55364 0.0
O157 O 0.13262 0.65409 0.58554 0.0
C158 C 0.12657 0.57773 0.553 0.0
C159 C 0.16371 0.60722 0.61683 0.0
C160 C 0.16997 0.68199 0.55469 0.0
C161 C 0.12261 0.67385 0.63967 0.0
C162 C 0.08623 0.6448 0.57766 0.0
C163 C 0.12775 0.74451 0.5703 0.0
O164 O 0.12045 0.57569 0.57295 0.0
O165 O 0.16425 0.64223 0.61875 0.0
O166 O 0.15425 0.67918 0.54433 0.0
O167 O 0.12068 0.64026 0.63395 0.0
O168 O 0.09587 0.65086 0.56002 0.0
O169 O 0.14061 0.7373 0.58456 0.0
O170 O 0.09356 0.63237 0.59556 0.0
O171 O 0.13107 0.69722 0.62751 0.0
O172 O 0.11871 0.71951 0.56011 0.0
O173 O 0.14934 0.59035 0.60906 0.0
O174 O 0.13171 0.60793 0.54427 0.0
O175 O 0.17128 0.6802 0.57576 0.0
Sc176 Sc 0.62268 0.89214 0.10137 0.0
Sc177 Sc 0.65296 0.81531 0.09869 0.0
Sc178 Sc 0.62562 0.83911 0.0521 0.0
O179 O 0.63379 0.84894 0.08399 0.0
C180 C 0.58692 0.85498 0.07812 0.0
C181 C 0.6258 0.83037 0.13943 0.0
C182 C 0.62951 0.75694 0.07035 0.0
C183 C 0.66626 0.89658 0.11344 0.0
C184 C 0.6247 0.92632 0.05204 0.0
C185 C 0.66985 0.82448 0.04975 0.0
O186 O 0.59429 0.87299 0.0942 0.0
O187 O 0.63648 0.80919 0.12831 0.0
O188 O 0.62319 0.78115 0.05709 0.0
O189 O 0.65058 0.91275 0.1096 0.0
O190 O 0.62671 0.89553 0.04244 0.0
O191 O 0.6712 0.81776 0.07047 0.0
O192 O 0.62266 0.92939 0.07303 0.0
O193 O 0.66838 0.86184 0.11174 0.0
O194 O 0.65432 0.83269 0.04022 0.0
O195 O 0.62087 0.86207 0.13253 0.0
O196 O 0.5964 0.8434 0.06148 0.0
O197 O 0.64041 0.7647 0.08655 0.0
Sc198 Sc 0.8729 0.16231 0.05657 0.0
Sc199 Sc 0.84835 0.18505 0.10518 0.0
Sc200 Sc 0.88013 0.11134 0.10523 0.0
O201 O 0.8671 0.15299 0.08892 0.0
C202 C 0.87422 0.0761 0.05679 0.0
C203 C 0.82812 0.17503 0.05884 0.0
C204 C 0.83817 0.10341 0.12153 0.0
C205 C 0.86916 0.24387 0.07385 0.0
C206 C 0.91347 0.1488 0.07889 0.0
C207 C 0.87828 0.17402 0.14275 0.0
O208 O 0.86875 0.10585 0.04782 0.0
O209 O 0.82742 0.17722 0.07997 0.0
O210 O 0.85303 0.08813 0.11382 0.0
O211 O 0.87735 0.21986 0.06191 0.0
O212 O 0.90731 0.13429 0.09684 0.0
O213 O 0.86803 0.1958 0.13145 0.0
O214 O 0.90291 0.1552 0.06207 0.0
O215 O 0.85745 0.23564 0.08918 0.0
O216 O 0.88168 0.1411 0.13661 0.0
O217 O 0.84356 0.17168 0.04809 0.0
O218 O 0.88074 0.07474 0.07655 0.0
O219 O 0.83619 0.13829 0.12259 0.0
Sc220 Sc 0.11908 0.11238 0.39238 0.0
Sc221 Sc 0.14923 0.18839 0.39613 0.0
Sc222 Sc 0.12293 0.16116 0.44258 0.0
O223 O 0.13039 0.15406 0.41039 0.0
C224 C 0.08368 0.14354 0.41812 0.0
C225 C 0.1208 0.17823 0.35669 0.0
C226 C 0.12562 0.24378 0.42736 0.0
C227 C 0.16176 0.10911 0.3777 0.0
C228 C 0.12474 0.07488 0.44033 0.0
C229 C 0.16738 0.17689 0.44337 0.0
O230 O 0.09102 0.13125 0.40022 0.0
O231 O 0.13065 0.19951 0.36881 0.0
O232 O 0.11721 0.21844 0.43804 0.0
O233 O 0.14683 0.09231 0.3838 0.0
O234 O 0.12841 0.10477 0.45033 0.0
O235 O 0.16911 0.17964 0.42238 0.0
O236 O 0.11914 0.07371 0.42015 0.0
O237 O 0.16331 0.14407 0.37847 0.0
O238 O 0.15152 0.17329 0.45315 0.0
O239 O 0.1174 0.14489 0.36198 0.0
O240 O 0.09336 0.15094 0.43549 0.0
O241 O 0.13819 0.23712 0.4127 0.0
Sc242 Sc 0.37373 0.87996 0.39346 0.0
Sc243 Sc 0.34012 0.81106 0.40486 0.0
Sc244 Sc 0.37192 0.83789 0.44649 0.0
O245 O 0.3619 0.84308 0.4149 0.0
C246 C 0.40866 0.83765 0.41621 0.0
C247 C 0.36575 0.81103 0.36143 0.0
C248 C 0.36012 0.75425 0.4368 0.0
C249 C 0.32965 0.88949 0.38354 0.0
C250 C 0.3775 0.92409 0.43882 0.0
C251 C 0.32798 0.83847 0.45376 0.0
O252 O 0.40201 0.8596 0.40147 0.0
O253 O 0.35348 0.79639 0.37408 0.0
O254 O 0.36733 0.77962 0.44854 0.0
O255 O 0.34638 0.90254 0.38382 0.0
O256 O 0.37814 0.8953 0.4507 0.0
O257 O 0.32497 0.8234 0.43491 0.0
O258 O 0.37475 0.92345 0.41794 0.0
O259 O 0.32585 0.85697 0.38994 0.0
O260 O 0.34437 0.84752 0.4607 0.0
O261 O 0.3738 0.84145 0.36596 0.0
O262 O 0.39937 0.82671 0.43314 0.0
O263 O 0.35124 0.76075 0.41885 0.0
Sc264 Sc 0.38049 0.11092 0.89621 0.0
Sc265 Sc 0.35037 0.18688 0.90377 0.0
Sc266 Sc 0.37996 0.15843 0.94763 0.0
O267 O 0.37025 0.152 0.91593 0.0
C268 C 0.38005 0.07139 0.94408 0.0
C269 C 0.33653 0.10774 0.88588 0.0
C270 C 0.33578 0.17172 0.95312 0.0
C271 C 0.37585 0.1769 0.86103 0.0
C272 C 0.41741 0.14485 0.91889 0.0
C273 C 0.37531 0.24223 0.93285 0.0
O274 O 0.38114 0.07059 0.92292 0.0
O275 O 0.33443 0.14213 0.88929 0.0
O276 O 0.35184 0.16387 0.96145 0.0
O277 O 0.38114 0.14464 0.86646 0.0
O278 O 0.40882 0.15466 0.93658 0.0
O279 O 0.36345 0.23597 0.91736 0.0
O280 O 0.40919 0.12908 0.90253 0.0
O281 O 0.3656 0.19678 0.87353 0.0
O282 O 0.38244 0.21677 0.94462 0.0
O283 O 0.35233 0.09134 0.88846 0.0
O284 O 0.37895 0.10106 0.95509 0.0
O285 O 0.3333 0.18019 0.93279 0.0
Sc286 Sc 0.12383 0.88333 0.89302 0.0
Sc287 Sc 0.1556 0.81054 0.8995 0.0
Sc288 Sc 0.12573 0.83458 0.94329 0.0
O289 O 0.13509 0.84284 0.91199 0.0
C290 C 0.12531 0.92058 0.94145 0.0
C291 C 0.16711 0.89117 0.88217 0.0
C292 C 0.17029 0.82211 0.94819 0.0
C293 C 0.1293 0.81786 0.8579 0.0
C294 C 0.0879 0.84814 0.91536 0.0
C295 C 0.13126 0.75276 0.92822 0.0
O296 O 0.12063 0.92133 0.92093 0.0
O297 O 0.16937 0.85632 0.88281 0.0
O298 O 0.15371 0.8238 0.95636 0.0
O299 O 0.12518 0.85121 0.86242 0.0
O300 O 0.09658 0.84309 0.93373 0.0
O301 O 0.14493 0.76074 0.91525 0.0
O302 O 0.09599 0.86066 0.89797 0.0
O303 O 0.13881 0.79757 0.87098 0.0
O304 O 0.1213 0.77717 0.93777 0.0
O305 O 0.15152 0.90663 0.88731 0.0
O306 O 0.12968 0.89112 0.95155 0.0
O307 O 0.17353 0.82112 0.92737 0.0
Sc308 Sc 0.8711 0.84194 0.55529 0.0
Sc309 Sc 0.84463 0.81562 0.60195 0.0
Sc310 Sc 0.87839 0.88639 0.60674 0.0
O311 O 0.8647 0.84804 0.58794 0.0
C312 C 0.9111 0.84428 0.58008 0.0
C313 C 0.86188 0.75862 0.56767 0.0
C314 C 0.87389 0.81956 0.64136 0.0
C315 C 0.82634 0.83875 0.55516 0.0
C316 C 0.87798 0.92769 0.55967 0.0
C317 C 0.83583 0.89627 0.62179 0.0
O318 O 0.90048 0.8361 0.56361 0.0
O319 O 0.85358 0.7649 0.58604 0.0
O320 O 0.87939 0.85179 0.6362 0.0
O321 O 0.84188 0.84654 0.54549 0.0
O322 O 0.87974 0.92804 0.58074 0.0
O323 O 0.8324 0.86208 0.6192 0.0
O324 O 0.87445 0.89874 0.54885 0.0
O325 O 0.82538 0.82685 0.57511 0.0
O326 O 0.85176 0.91068 0.61696 0.0
O327 O 0.86863 0.78386 0.55558 0.0
O328 O 0.9054 0.86263 0.59701 0.0
O329 O 0.86234 0.80128 0.62958 0.0
Sc330 Sc 0.62443 0.1171 0.60558 0.0
Sc331 Sc 0.65436 0.19351 0.59829 0.0
Sc332 Sc 0.62749 0.16079 0.55314 0.0
O333 O 0.63546 0.15709 0.58562 0.0
C334 C 0.62684 0.07393 0.55923 0.0
C335 C 0.66795 0.11568 0.61853 0.0
C336 C 0.67157 0.17499 0.55026 0.0
C337 C 0.62687 0.18515 0.63952 0.0
C338 C 0.58869 0.15056 0.57984 0.0
C339 C 0.63198 0.2461 0.56521 0.0
O340 O 0.62557 0.0746 0.58034 0.0
O341 O 0.67012 0.14981 0.61428 0.0
O342 O 0.65634 0.16338 0.54134 0.0
O343 O 0.6218 0.15276 0.63419 0.0
O344 O 0.59817 0.16026 0.56275 0.0
O345 O 0.64158 0.24157 0.58295 0.0
O346 O 0.59602 0.13401 0.59654 0.0
O347 O 0.63791 0.20433 0.62758 0.0
O348 O 0.62625 0.21938 0.55345 0.0
O349 O 0.65225 0.09904 0.61578 0.0
O350 O 0.62768 0.10279 0.54747 0.0
O351 O 0.67252 0.18671 0.5702 0.0
H352 H 0.09916 0.22454 0.04313 0.0
H353 H 0.09717 0.16428 0.02547 0.0
H354 H 0.14771 0.12993 0.05994 0.0
H355 H 0.14991 0.19042 0.07775 0.0
H356 H 0.15072 0.12216 0.01515 0.0
H357 H 0.10693 0.08902 0.07123 0.0
H358 H 0.07909 0.09202 0.09584 0.0
H359 H 0.04235 0.08837 0.03888 0.0
H360 H 0.06998 0.08606 0.01384 0.0
H361 H 0.14728 0.93612 0.97732 0.0
H362 H 0.14647 0.9911 0.00077 0.0
H363 H 0.10258 0.03728 0.95938 0.0
H364 H 0.10355 0.98231 0.9354 0.0
H365 H 0.09616 0.03699 0.00876 0.0
H366 H 0.14141 0.07341 0.95297 0.0
H367 H 0.16983 0.06557 0.92967 0.0
H368 H 0.20441 0.05967 0.98845 0.0
H369 H 0.17612 0.06683 0.01213 0.0
C370 C 0.10967 0.20398 0.04737 0.0
C371 C 0.12483 0.2125 0.06169 0.0
C372 C 0.10842 0.16942 0.03733 0.0
C373 C 0.12231 0.1427 0.04135 0.0
C374 C 0.13685 0.15026 0.05663 0.0
C375 C 0.13803 0.1848 0.06686 0.0
C376 C 0.1229 0.10896 0.02748 0.0
C377 C 0.1389 0.10319 0.01407 0.0
C378 C 0.10727 0.08481 0.02566 0.0
C379 C 0.09058 0.08772 0.04061 0.0
C380 C 0.09293 0.08935 0.0639 0.0
C381 C 0.07718 0.09071 0.07795 0.0
C382 C 0.05896 0.09026 0.06894 0.0
C383 C 0.05647 0.08859 0.04584 0.0
C384 C 0.07218 0.08729 0.03171 0.0
C385 C 0.13752 0.95805 0.97311 0.0
C386 C 0.12546 0.95499 0.95455 0.0
C387 C 0.13709 0.98939 0.98651 0.0
C388 C 0.12444 0.01803 0.98178 0.0
C389 C 0.1124 0.01527 0.96324 0.0
C390 C 0.11306 0.9841 0.94952 0.0
C391 C 0.12384 0.05065 0.99647 0.0
C392 C 0.1079 0.05612 0.00996 0.0
C393 C 0.13956 0.07439 0.99854 0.0
C394 C 0.15661 0.07022 0.98434 0.0
C395 C 0.15504 0.07005 0.96094 0.0
C396 C 0.17114 0.06581 0.94766 0.0
C397 C 0.18891 0.06201 0.95758 0.0
C398 C 0.19063 0.06255 0.9808 0.0
C399 C 0.17457 0.06671 0.99416 0.0
H400 H 0.20135 0.05874 0.94726 0.0
H401 H 0.04679 0.09138 0.07984 0.0
H402 H 0.36528 0.00475 0.93159 0.0
H403 H 0.36271 0.94901 0.95473 0.0
H404 H 0.39211 0.00409 0.00818 0.0
H405 H 0.39432 0.05991 0.9855 0.0
H406 H 0.40438 0.92718 0.9967 0.0
H407 H 0.3491 0.00199 0.01484 0.0
H408 H 0.3203 0.03665 0.0049 0.0
H409 H 0.29661 0.93961 0.97496 0.0
H410 H 0.32544 0.90457 0.98438 0.0
H411 H 0.3889 0.79988 0.08371 0.0
H412 H 0.39109 0.85826 0.06304 0.0
H413 H 0.34533 0.82295 0.02034 0.0
H414 H 0.34244 0.7662 0.04195 0.0
H415 H 0.34151 0.89121 0.02615 0.0
H416 H 0.39392 0.81523 0.00578 0.0
H417 H 0.4227 0.77765 0.01057 0.0
H418 H 0.45164 0.87048 0.03886 0.0
H419 H 0.42296 0.90855 0.03445 0.0
C420 C 0.37136 0.00474 0.94818 0.0
C421 C 0.37992 0.03661 0.95681 0.0
C422 C 0.36982 0.97305 0.96136 0.0
C423 C 0.37717 0.97269 0.98313 0.0
C424 C 0.38636 0.00396 0.99142 0.0
C425 C 0.38755 0.03579 0.97848 0.0
C426 C 0.37474 0.94021 0.99767 0.0
C427 C 0.3907 0.91939 0.00338 0.0
C428 C 0.35679 0.9297 0.00575 0.0
C429 C 0.33947 0.95076 0.00016 0.0
C430 C 0.33782 0.98814 0.00596 0.0
C431 C 0.32148 0.00784 0.00045 0.0
C432 C 0.30665 0.99036 0.98926 0.0
C433 C 0.30812 0.95313 0.9836 0.0
C434 C 0.32444 0.93334 0.98904 0.0
C435 C 0.37907 0.80538 0.07027 0.0
C436 C 0.36545 0.77914 0.06441 0.0
C437 C 0.38042 0.83836 0.0583 0.0
C438 C 0.3686 0.84476 0.03979 0.0
C439 C 0.35454 0.81886 0.03456 0.0
C440 C 0.35286 0.7865 0.04692 0.0
C441 C 0.3712 0.87759 0.02529 0.0
C442 C 0.35526 0.89869 0.01956 0.0
C443 C 0.38914 0.88771 0.01668 0.0
C444 C 0.40625 0.86466 0.01994 0.0
C445 C 0.40637 0.82755 0.01319 0.0
C446 C 0.42268 0.8062 0.01577 0.0
C447 C 0.43901 0.82173 0.0249 0.0
C448 C 0.43901 0.85856 0.03168 0.0
C449 C 0.42273 0.88003 0.02915 0.0
H450 H 0.45165 0.8052 0.0268 0.0
H451 H 0.29402 0.00566 0.98501 0.0
H452 H 0.6103 0.05761 0.51979 0.0
H453 H 0.61261 0.00021 0.49861 0.0
H454 H 0.64761 0.95319 0.55019 0.0
H455 H 0.64487 0.01053 0.57195 0.0
H456 H 0.66053 0.95246 0.49959 0.0
H457 H 0.61121 0.91698 0.5511 0.0
H458 H 0.58114 0.92608 0.57115 0.0
H459 H 0.5514 0.9324 0.50881 0.0
H460 H 0.58136 0.92392 0.48837 0.0
H461 H 0.66354 0.775 0.45057 0.0
H462 H 0.66295 0.82925 0.47443 0.0
H463 H 0.60822 0.85887 0.44778 0.0
H464 H 0.60816 0.80226 0.4254 0.0
H465 H 0.60638 0.86759 0.48851 0.0
H466 H 0.65369 0.90753 0.43618 0.0
H467 H 0.68294 0.90209 0.41404 0.0
H468 H 0.71553 0.89222 0.47414 0.0
H469 H 0.68646 0.89746 0.49668 0.0
C470 C 0.61834 0.03491 0.52672 0.0
C471 C 0.62735 0.03832 0.5475 0.0
C472 C 0.61964 0.00224 0.51463 0.0
C473 C 0.63027 0.9727 0.5229 0.0
C474 C 0.63931 0.97584 0.54365 0.0
C475 C 0.63764 0.00836 0.55607 0.0
C476 C 0.6321 0.93902 0.50932 0.0
C477 C 0.64886 0.9334 0.49737 0.0
C478 C 0.61659 0.91524 0.50596 0.0
C479 C 0.59856 0.92019 0.51821 0.0
C480 C 0.59829 0.92069 0.54166 0.0
C481 C 0.58126 0.92564 0.5531 0.0
C482 C 0.56438 0.92991 0.54126 0.0
C483 C 0.56449 0.92914 0.51796 0.0
C484 C 0.58149 0.92422 0.50644 0.0
C485 C 0.65161 0.79367 0.44946 0.0
C486 C 0.63604 0.78511 0.43592 0.0
C487 C 0.65129 0.82481 0.46306 0.0
C488 C 0.63572 0.84889 0.46267 0.0
C489 C 0.62042 0.84086 0.44843 0.0
C490 C 0.62043 0.80884 0.43546 0.0
C491 C 0.63482 0.88089 0.47818 0.0
C492 C 0.61819 0.88635 0.49058 0.0
C493 C 0.65035 0.90503 0.48156 0.0
C494 C 0.66789 0.90262 0.46809 0.0
C495 C 0.66709 0.9041 0.44467 0.0
C496 C 0.68364 0.9011 0.43207 0.0
C497 C 0.70108 0.89677 0.4427 0.0
C498 C 0.70202 0.89562 0.46597 0.0
C499 C 0.68552 0.8987 0.47866 0.0
H500 H 0.71388 0.89436 0.43291 0.0
H501 H 0.55121 0.93374 0.55014 0.0
H502 H 0.89009 0.93313 0.51705 0.0
H503 H 0.88921 0.98697 0.49291 0.0
H504 H 0.86926 0.05321 0.54783 0.0
H505 H 0.86999 0.99882 0.57232 0.0
H506 H 0.84706 0.05888 0.51015 0.0
H507 H 0.9131 0.06492 0.52804 0.0
H508 H 0.9457 0.04171 0.53177 0.0
H509 H 0.94774 0.01998 0.46142 0.0
H510 H 0.91503 0.04256 0.4573 0.0
H511 H 0.87007 0.23903 0.47613 0.0
H512 H 0.87186 0.17838 0.4928 0.0
H513 H 0.8664 0.12825 0.42797 0.0
H514 H 0.86401 0.18991 0.41074 0.0
H515 H 0.90009 0.10923 0.46545 0.0
H516 H 0.83449 0.10997 0.44747 0.0
H517 H 0.80175 0.1325 0.44458 0.0
H518 H 0.79834 0.14053 0.51588 0.0
H519 H 0.83139 0.11981 0.51921 0.0
C520 C 0.88573 0.95926 0.52413 0.0
C521 C 0.87995 0.9618 0.54653 0.0
C522 C 0.88535 0.99002 0.51031 0.0
C523 C 0.8792 0.02399 0.51859 0.0
C524 C 0.87406 0.02708 0.54118 0.0
C525 C 0.87459 0.99619 0.55516 0.0
C526 C 0.87683 0.0554 0.50316 0.0
C527 C 0.85867 0.07027 0.50056 0.0
C528 C 0.89188 0.06886 0.48994 0.0
C529 C 0.91151 0.05501 0.49241 0.0
C530 C 0.92042 0.05482 0.5134 0.0
C531 C 0.93894 0.04186 0.51558 0.0
C532 C 0.94877 0.02926 0.49686 0.0
C533 C 0.9401 0.02968 0.47591 0.0
C534 C 0.92157 0.04257 0.47365 0.0
C535 C 0.86928 0.2153 0.46521 0.0
C536 C 0.86688 0.21932 0.44203 0.0
C537 C 0.87017 0.18064 0.47487 0.0
C538 C 0.86891 0.14914 0.46164 0.0
C539 C 0.86707 0.15256 0.4384 0.0
C540 C 0.86576 0.1876 0.42863 0.0
C541 C 0.87038 0.11315 0.47277 0.0
C542 C 0.8884 0.09748 0.47477 0.0
C543 C 0.8552 0.09907 0.48552 0.0
C544 C 0.83564 0.11382 0.48355 0.0
C545 C 0.82698 0.11744 0.46253 0.0
C546 C 0.80829 0.12972 0.46082 0.0
C547 C 0.79796 0.13791 0.48004 0.0
C548 C 0.80634 0.13409 0.501 0.0
C549 C 0.82511 0.12231 0.5028 0.0
H550 H 0.78349 0.14732 0.47869 0.0
H551 H 0.96311 0.01927 0.49858 0.0
H552 H 0.85054 0.06155 0.02205 0.0
H553 H 0.85017 0.00695 0.99816 0.0
H554 H 0.89569 0.95966 0.03652 0.0
H555 H 0.89596 0.01405 0.06082 0.0
H556 H 0.90135 0.95958 0.98916 0.0
H557 H 0.85547 0.92483 0.04359 0.0
H558 H 0.82689 0.93009 0.06686 0.0
H559 H 0.79232 0.93469 0.00805 0.0
H560 H 0.82075 0.9302 0.98438 0.0
H561 H 0.89948 0.77238 0.95607 0.0
H562 H 0.90034 0.83273 0.97378 0.0
H563 H 0.85045 0.86507 0.93725 0.0
H564 H 0.84933 0.80427 0.9196 0.0
H565 H 0.84633 0.87589 0.98139 0.0
H566 H 0.89343 0.90437 0.92698 0.0
H567 H 0.92262 0.89544 0.90519 0.0
H568 H 0.95556 0.90068 0.96528 0.0
H569 H 0.92663 0.90852 0.98744 0.0
C570 C 0.86041 0.03943 0.02549 0.0
C571 C 0.87333 0.04209 0.04328 0.0
C572 C 0.86013 0.00826 0.01187 0.0
C573 C 0.87291 0.9794 0.0156 0.0
C574 C 0.88574 0.98177 0.03341 0.0
C575 C 0.88581 0.0127 0.04732 0.0
C576 C 0.8732 0.94722 0.00047 0.0
C577 C 0.88942 0.94099 0.98757 0.0
C578 C 0.85739 0.92379 0.99804 0.0
C579 C 0.84029 0.92767 0.0122 0.0
C580 C 0.84181 0.92753 0.0356 0.0
C581 C 0.82563 0.93023 0.04887 0.0
C582 C 0.80781 0.93271 0.03894 0.0
C583 C 0.80614 0.93275 0.01571 0.0
C584 C 0.82229 0.93017 0.00236 0.0
C585 C 0.88893 0.79259 0.95139 0.0
C586 C 0.87429 0.78348 0.93649 0.0
C587 C 0.88948 0.82719 0.96148 0.0
C588 C 0.87548 0.85347 0.95681 0.0
C589 C 0.86141 0.84518 0.94105 0.0
C590 C 0.86088 0.81054 0.93084 0.0
C591 C 0.87458 0.88791 0.97007 0.0
C592 C 0.85821 0.89467 0.98268 0.0
C593 C 0.89033 0.91167 0.97233 0.0
C594 C 0.9078 0.90674 0.95892 0.0
C595 C 0.90689 0.90319 0.93557 0.0
C596 C 0.92342 0.8983 0.92313 0.0
C597 C 0.94097 0.89727 0.93382 0.0
C598 C 0.94201 0.90121 0.95697 0.0
C599 C 0.92554 0.90589 0.96949 0.0
H600 H 0.95375 0.89353 0.92416 0.0
H601 H 0.79529 0.93447 0.04925 0.0
H602 H 0.65691 0.206 0.92837 0.0
H603 H 0.65408 0.14636 0.94667 0.0
H604 H 0.59401 0.16335 0.95429 0.0
H605 H 0.59709 0.2243 0.93727 0.0
H606 H 0.60575 0.14259 0.99082 0.0
H607 H 0.61607 0.09329 0.91798 0.0
H608 H 0.63187 0.08688 0.88152 0.0
H609 H 0.68333 0.05485 0.91423 0.0
H610 H 0.66789 0.0614 0.9509 0.0
H611 H 0.61552 0.92949 0.00808 0.0
H612 H 0.61422 0.9834 0.98404 0.0
H613 H 0.63189 0.05205 0.03902 0.0
H614 H 0.63242 0.99803 0.06355 0.0
H615 H 0.63884 0.02751 0.96939 0.0
H616 H 0.61496 0.13795 0.0336 0.0
H617 H 0.5955 0.14224 0.06765 0.0
H618 H 0.5639 0.04701 0.04733 0.0
H619 H 0.583 0.04244 0.01304 0.0
C620 C 0.64302 0.19655 0.93341 0.0
C621 C 0.6272 0.21964 0.93139 0.0
C622 C 0.6414 0.16234 0.94387 0.0
C623 C 0.62382 0.15001 0.95185 0.0
C624 C 0.60778 0.17223 0.9485 0.0
C625 C 0.60949 0.20691 0.93861 0.0
C626 C 0.62251 0.11581 0.96548 0.0
C627 C 0.61285 0.11736 0.98595 0.0
C628 C 0.63158 0.08257 0.95922 0.0
C629 C 0.64083 0.07798 0.93718 0.0
C630 C 0.63077 0.08499 0.91739 0.0
C631 C 0.63967 0.08132 0.89669 0.0
C632 C 0.6586 0.0705 0.89556 0.0
C633 C 0.66866 0.0632 0.91513 0.0
C634 C 0.65983 0.06679 0.93587 0.0
C635 C 0.6191 0.95607 0.01512 0.0
C636 C 0.62406 0.95952 0.03775 0.0
C637 C 0.61839 0.9869 0.0013 0.0
C638 C 0.62281 0.02191 0.00968 0.0
C639 C 0.62802 0.02545 0.03224 0.0
C640 C 0.62841 0.99458 0.04624 0.0
C641 C 0.6221 0.05444 0.99463 0.0
C642 C 0.63152 0.05264 0.97403 0.0
C643 C 0.6122 0.08696 0.00037 0.0
C644 C 0.60055 0.08965 0.02087 0.0
C645 C 0.60382 0.11801 0.03637 0.0
C646 C 0.59286 0.12047 0.05572 0.0
C647 C 0.57852 0.09484 0.05969 0.0
C648 C 0.57506 0.06676 0.04428 0.0
C649 C 0.58597 0.06419 0.0249 0.0
H650 H 0.57006 0.09679 0.07468 0.0
H651 H 0.66547 0.06773 0.87952 0.0
H652 H 0.40548 0.94975 0.46558 0.0
H653 H 0.40457 0.00478 0.48915 0.0
H654 H 0.34887 0.03045 0.46388 0.0
H655 H 0.35061 0.97712 0.43898 0.0
H656 H 0.36445 0.09012 0.47041 0.0
H657 H 0.35833 0.98461 0.51672 0.0
H658 H 0.36645 0.92405 0.53272 0.0
H659 H 0.41852 0.96809 0.55811 0.0
H660 H 0.41083 0.02883 0.54199 0.0
H661 H 0.33938 0.20194 0.56361 0.0
H662 H 0.341 0.14447 0.54232 0.0
H663 H 0.40185 0.15059 0.54233 0.0
H664 H 0.40037 0.20868 0.56313 0.0
H665 H 0.38244 0.07506 0.54992 0.0
H666 H 0.38449 0.18376 0.50107 0.0
H667 H 0.3715 0.2423 0.48687 0.0
H668 H 0.31989 0.18767 0.46882 0.0
H669 H 0.33243 0.12894 0.48338 0.0
C670 C 0.39329 0.96778 0.46477 0.0
C671 C 0.37817 0.9596 0.45049 0.0
C672 C 0.39261 0.99889 0.47845 0.0
C673 C 0.37638 0.02129 0.47893 0.0
C674 C 0.36155 0.01369 0.46397 0.0
C675 C 0.36253 0.98329 0.4497 0.0
C676 C 0.37465 0.05201 0.4953 0.0
C677 C 0.36818 0.08647 0.48782 0.0
C678 C 0.3794 0.04762 0.51818 0.0
C679 C 0.38408 0.01117 0.52795 0.0
C680 C 0.37157 0.98132 0.52559 0.0
C681 C 0.37609 0.94697 0.53469 0.0
C682 C 0.39301 0.94221 0.54638 0.0
C683 C 0.40543 0.97181 0.54903 0.0
C684 C 0.40099 0.00621 0.53992 0.0
C685 C 0.35313 0.19046 0.55971 0.0
C686 C 0.36977 0.20973 0.56502 0.0
C687 C 0.354 0.15781 0.54741 0.0
C688 C 0.37153 0.14366 0.54065 0.0
C689 C 0.38821 0.16124 0.54743 0.0
C690 C 0.38734 0.19431 0.55931 0.0
C691 C 0.37244 0.11256 0.52482 0.0
C692 C 0.37871 0.07824 0.53246 0.0
C693 C 0.36679 0.11665 0.50233 0.0
C694 C 0.35933 0.15203 0.49355 0.0
C695 C 0.3703 0.1843 0.49431 0.0
C696 C 0.36303 0.2175 0.48614 0.0
C697 C 0.34488 0.2187 0.47695 0.0
C698 C 0.33395 0.1867 0.47594 0.0
C699 C 0.34113 0.15347 0.48416 0.0
H700 H 0.33928 0.24442 0.47062 0.0
H701 H 0.39649 0.91559 0.55342 0.0
H702 H 0.1016 0.7691 0.54046 0.0
H703 H 0.1016 0.82755 0.52078 0.0
H704 H 0.1481 0.86526 0.56116 0.0
H705 H 0.14829 0.80648 0.58121 0.0
H706 H 0.12486 0.92085 0.55102 0.0
H707 H 0.15353 0.82153 0.50989 0.0
H708 H 0.15561 0.76146 0.4912 0.0
H709 H 0.11001 0.7917 0.44765 0.0
H710 H 0.1077 0.85223 0.46605 0.0
H711 H 0.14905 0.06121 0.4745 0.0
H712 H 0.15078 0.00621 0.49785 0.0
H713 H 0.10607 0.95628 0.45928 0.0
H714 H 0.10488 0.01077 0.43521 0.0
H715 H 0.13105 0.90685 0.46901 0.0
H716 H 0.09854 -0.00031 0.51165 0.0
H717 H 0.09464 0.06056 0.52935 0.0
H718 H 0.14395 0.04135 0.5695 0.0
H719 H 0.14827 0.98052 0.55184 0.0
C720 C 0.11161 0.78999 0.54561 0.0
C721 C 0.12513 0.78278 0.56228 0.0
C722 C 0.11163 0.82335 0.53417 0.0
C723 C 0.12535 0.85005 0.53882 0.0
C724 C 0.13774 0.84452 0.55683 0.0
C725 C 0.13773 0.811 0.56841 0.0
C726 C 0.12737 0.88238 0.52388 0.0
C727 C 0.12648 0.91781 0.53312 0.0
C728 C 0.1291 0.87833 0.50041 0.0
C729 C 0.13051 0.84169 0.48938 0.0
C730 C 0.14399 0.81559 0.49631 0.0
C731 C 0.14518 0.78133 0.48578 0.0
C732 C 0.13294 0.77272 0.46826 0.0
C733 C 0.11951 0.79841 0.46121 0.0
C734 C 0.1183 0.83277 0.47165 0.0
C735 C 0.13966 0.03838 0.47092 0.0
C736 C 0.12667 0.04038 0.45319 0.0
C737 C 0.1406 0.00705 0.48436 0.0
C738 C 0.12821 0.97746 0.48073 0.0
C739 C 0.1157 0.97886 0.46251 0.0
C740 C 0.11502 0.00996 0.44876 0.0
C741 C 0.12804 0.9453 0.49608 0.0
C742 C 0.12946 0.90989 0.48691 0.0
C743 C 0.12648 0.9493 0.51953 0.0
C744 C 0.12383 0.98574 0.53026 0.0
C745 C 0.10862 0.00856 0.52415 0.0
C746 C 0.10632 0.04303 0.53419 0.0
C747 C 0.11907 0.05486 0.55049 0.0
C748 C 0.1341 0.03218 0.55685 0.0
C749 C 0.13648 0.9977 0.54684 0.0
H750 H 0.11727 0.08156 0.55824 0.0
H751 H 0.13387 0.74614 0.46016 0.0
H752 H 0.64424 0.43368 0.98405 0.0
H753 H 0.64443 0.48747 0.00835 0.0
H754 H 0.61008 0.54674 0.96089 0.0
H755 H 0.61019 0.49315 0.93612 0.0
H756 H 0.63687 0.58996 0.97678 0.0
H757 H 0.59108 0.50806 0.00876 0.0
H758 H 0.57926 0.44937 0.02406 0.0
H759 H 0.62066 0.45415 0.07638 0.0
H760 H 0.6329 0.51266 0.06121 0.0
H761 H 0.60207 0.73085 0.04278 0.0
H762 H 0.60094 0.67034 0.02535 0.0
H763 H 0.64736 0.63409 0.06647 0.0
H764 H 0.64882 0.69511 0.084 0.0
H765 H 0.61574 0.57864 0.05548 0.0
H766 H 0.66077 0.66284 0.0227 0.0
H767 H 0.6699 0.72388 0.00821 0.0
H768 H 0.6279 0.71515 0.9568 0.0
H769 H 0.61803 0.65464 0.97151 0.0
C770 C 0.63673 0.45815 0.97871 0.0
C771 C 0.62705 0.45898 0.95819 0.0
C772 C 0.6368 0.48886 0.9927 0.0
C773 C 0.62695 0.52089 0.98667 0.0
C774 C 0.6177 0.52222 0.96593 0.0
C775 C 0.61777 0.49157 0.9518 0.0
C776 C 0.62629 0.55298 0.00199 0.0
C777 C 0.63209 0.58744 0.99391 0.0
C778 C 0.6204 0.54965 0.02451 0.0
C779 C 0.61303 0.51454 0.03371 0.0
C780 C 0.59776 0.49645 0.02343 0.0
C781 C 0.59097 0.46324 0.03209 0.0
C782 C 0.59924 0.44799 0.05114 0.0
C783 C 0.61429 0.46597 0.0616 0.0
C784 C 0.62115 0.49917 0.05299 0.0
C785 C 0.61181 0.70986 0.04854 0.0
C786 C 0.62579 0.71803 0.06449 0.0
C787 C 0.61107 0.67525 0.03859 0.0
C788 C 0.62426 0.64814 0.04441 0.0
C789 C 0.63708 0.65484 0.06181 0.0
C790 C 0.63788 0.68968 0.0718 0.0
C791 C 0.62619 0.61522 0.03014 0.0
C792 C 0.62065 0.58082 0.0384 0.0
C793 C 0.63219 0.61856 0.00772 0.0
C794 C 0.63853 0.65438 0.99837 0.0
C795 C 0.65337 0.67409 0.00844 0.0
C796 C 0.65869 0.70857 0.00018 0.0
C797 C 0.64952 0.72335 0.98158 0.0
C798 C 0.63499 0.70367 0.97121 0.0
C799 C 0.6295 0.66931 0.97953 0.0
H800 H 0.65368 0.75004 0.97521 0.0
H801 H 0.59396 0.42228 0.05783 0.0
H802 H 0.8432 0.29937 0.0766 0.0
H803 H 0.8445 0.35841 0.05696 0.0
H804 H 0.90178 0.33516 0.03661 0.0
H805 H 0.90026 0.27553 0.05536 0.0
H806 H 0.86291 0.41992 0.05498 0.0
H807 H 0.90862 0.35732 0.98372 0.0
H808 H 0.91478 0.2963 0.96707 0.0
H809 H 0.8605 0.25827 0.98936 0.0
H810 H 0.85392 0.31917 0.00584 0.0
H811 H 0.89183 0.56523 0.98627 0.0
H812 H 0.89049 0.51061 0.00988 0.0
H813 H 0.85948 0.45301 0.95856 0.0
H814 H 0.86184 0.50723 0.93431 0.0
H815 H 0.88187 0.40776 0.97561 0.0
H816 H 0.83795 0.49097 0.00753 0.0
H817 H 0.82608 0.54961 0.02287 0.0
H818 H 0.86641 0.54317 0.07628 0.0
H819 H 0.87871 0.48474 0.06108 0.0
C820 C 0.85624 0.30732 0.06844 0.0
C821 C 0.87156 0.28273 0.06725 0.0
C822 C 0.85695 0.34102 0.05716 0.0
C823 C 0.87303 0.35069 0.04474 0.0
C824 C 0.88901 0.32776 0.0455 0.0
C825 C 0.88818 0.29381 0.05634 0.0
C826 C 0.87254 0.3828 0.0294 0.0
C827 C 0.86711 0.41735 0.03765 0.0
C828 C 0.8772 0.37915 0.00653 0.0
C829 C 0.88087 0.34271 0.99617 0.0
C830 C 0.89797 0.33599 0.98494 0.0
C831 C 0.90153 0.30142 0.97557 0.0
C832 C 0.88806 0.2734 0.97721 0.0
C833 C 0.87095 0.27995 0.98815 0.0
C834 C 0.8673 0.31448 0.99751 0.0
C835 C 0.8848 0.54082 0.98 0.0
C836 C 0.87684 0.54043 0.95854 0.0
C837 C 0.88389 0.50969 0.99359 0.0
C838 C 0.87442 0.4779 0.98632 0.0
C839 C 0.86679 0.47722 0.96463 0.0
C840 C 0.86814 0.50814 0.95077 0.0
C841 C 0.87273 0.44535 0.00127 0.0
C842 C 0.87769 0.41055 0.99293 0.0
C843 C 0.86674 0.44853 0.02378 0.0
C844 C 0.85935 0.48362 0.03305 0.0
C845 C 0.84437 0.50218 0.02246 0.0
C846 C 0.83756 0.53537 0.03114 0.0
C847 C 0.84551 0.55015 0.0505 0.0
C848 C 0.86027 0.53171 0.06126 0.0
C849 C 0.86716 0.49853 0.05264 0.0
H850 H 0.84022 0.57585 0.0572 0.0
H851 H 0.89087 0.24664 0.96998 0.0
H852 H 0.14009 0.57086 0.51043 0.0
H853 H 0.13943 0.51651 0.48659 0.0
H854 H 0.11322 0.45411 0.53941 0.0
H855 H 0.11404 0.50832 0.5636 0.0
H856 H 0.14055 0.41496 0.5194 0.0
H857 H 0.08729 0.4872 0.49569 0.0
H858 H 0.07094 0.54302 0.48234 0.0
H859 H 0.10512 0.54317 0.42317 0.0
H860 H 0.12186 0.48761 0.43632 0.0
H861 H 0.10185 0.26762 0.46022 0.0
H862 H 0.10178 0.32777 0.47809 0.0
H863 H 0.14183 0.36792 0.42974 0.0
H864 H 0.14241 0.30721 0.41178 0.0
H865 H 0.10876 0.41913 0.44556 0.0
H866 H 0.16243 0.34733 0.47002 0.0
H867 H 0.17805 0.29072 0.48329 0.0
H868 H 0.14222 0.28948 0.54109 0.0
H869 H 0.1262 0.34591 0.52795 0.0
C870 C 0.13422 0.5456 0.51708 0.0
C871 C 0.12701 0.54409 0.53895 0.0
C872 C 0.13379 0.51457 0.50334 0.0
C873 C 0.126 0.48143 0.51108 0.0
C874 C 0.11922 0.47949 0.53306 0.0
C875 C 0.11969 0.51052 0.54687 0.0
C876 C 0.12495 0.44877 0.49626 0.0
C877 C 0.13345 0.41588 0.50336 0.0
C878 C 0.11605 0.45013 0.47508 0.0
C879 C 0.10597 0.48348 0.46711 0.0
C880 C 0.09143 0.49931 0.47992 0.0
C881 C 0.08207 0.53087 0.47237 0.0
C882 C 0.08703 0.5467 0.45195 0.0
C883 C 0.10132 0.53092 0.439 0.0
C884 C 0.11074 0.49938 0.44649 0.0
C885 C 0.11042 0.28928 0.45301 0.0
C886 C 0.12242 0.28228 0.43476 0.0
C887 C 0.11031 0.32369 0.46328 0.0
C888 C 0.12198 0.35193 0.45537 0.0
C889 C 0.13278 0.34626 0.43606 0.0
C890 C 0.13308 0.31156 0.42586 0.0
C891 C 0.12428 0.38568 0.46883 0.0
C892 C 0.11598 0.41856 0.46152 0.0
C893 C 0.13334 0.3844 0.48984 0.0
C894 C 0.14298 0.3506 0.49788 0.0
C895 C 0.15775 0.33478 0.48544 0.0
C896 C 0.16671 0.30276 0.49297 0.0
C897 C 0.16109 0.28642 0.51299 0.0
C898 C 0.14654 0.30214 0.52556 0.0
C899 C 0.13753 0.33416 0.5181 0.0
H900 H 0.16805 0.26165 0.51881 0.0
H901 H 0.07976 0.57113 0.44613 0.0
H902 H 0.37698 0.41728 0.50818 0.0
H903 H 0.37359 0.47204 0.48481 0.0
H904 H 0.36964 0.53989 0.54366 0.0
H905 H 0.37307 0.48527 0.56726 0.0
H906 H 0.34091 0.55246 0.51215 0.0
H907 H 0.40901 0.54066 0.51451 0.0
H908 H 0.43929 0.50804 0.50942 0.0
H909 H 0.42723 0.49408 0.43973 0.0
H910 H 0.39674 0.52618 0.44448 0.0
H911 H 0.36743 0.73312 0.47942 0.0
H912 H 0.36766 0.67097 0.49472 0.0
H913 H 0.35546 0.62643 0.42969 0.0
H914 H 0.3547 0.68914 0.41407 0.0
H915 H 0.38953 0.59684 0.45896 0.0
H916 H 0.32361 0.6167 0.45538 0.0
H917 H 0.29217 0.64466 0.46009 0.0
H918 H 0.29823 0.63951 0.53125 0.0
H919 H 0.33014 0.61322 0.52703 0.0
C920 C 0.3755 0.44387 0.5162 0.0
C921 C 0.37528 0.44691 0.53962 0.0
C922 C 0.37362 0.47511 0.50279 0.0
C923 C 0.3714 0.50992 0.51253 0.0
C924 C 0.37133 0.51317 0.53586 0.0
C925 C 0.3734 0.48198 0.5493 0.0
C926 C 0.36855 0.54292 0.49845 0.0
C927 C 0.35159 0.56254 0.50069 0.0
C928 C 0.38218 0.55473 0.48276 0.0
C929 C 0.40049 0.53541 0.47991 0.0
C930 C 0.41273 0.53031 0.49815 0.0
C931 C 0.42995 0.51199 0.49531 0.0
C932 C 0.43515 0.49889 0.47428 0.0
C933 C 0.42316 0.50417 0.45602 0.0
C934 C 0.40592 0.52245 0.45877 0.0
C935 C 0.36483 0.71023 0.46825 0.0
C936 C 0.36107 0.71611 0.44548 0.0
C937 C 0.36481 0.67476 0.47711 0.0
C938 C 0.36125 0.64439 0.46339 0.0
C939 C 0.35797 0.64978 0.44054 0.0
C940 C 0.35759 0.6855 0.43167 0.0
C941 C 0.36209 0.60715 0.47319 0.0
C942 C 0.37872 0.58668 0.47023 0.0
C943 C 0.34808 0.59452 0.48819 0.0
C944 C 0.32952 0.61341 0.49084 0.0
C945 C 0.31853 0.62243 0.47204 0.0
C946 C 0.30052 0.63778 0.47463 0.0
C947 C 0.29319 0.64378 0.49595 0.0
C948 C 0.30392 0.63475 0.51473 0.0
C949 C 0.32203 0.61988 0.51224 0.0
H950 H 0.27923 0.65556 0.49793 0.0
H951 H 0.44849 0.48472 0.47211 0.0
H952 H 0.35987 0.30658 0.91655 0.0
H953 H 0.36345 0.36847 0.93254 0.0
H954 H 0.40354 0.32635 0.98027 0.0
H955 H 0.40055 0.26504 0.96433 0.0
H956 H 0.36233 0.36603 0.99256 0.0
H957 H 0.42553 0.37242 0.95795 0.0
H958 H 0.44667 0.3702 0.92524 0.0
H959 H 0.41476 0.45666 0.89401 0.0
H960 H 0.39331 0.45905 0.92646 0.0
H961 H 0.39008 0.5088 0.06441 0.0
H962 H 0.39113 0.45474 0.04016 0.0
H963 H 0.3759 0.5221 0.98367 0.0
H964 H 0.37502 0.57637 0.00762 0.0
H965 H 0.40324 0.47212 0.97271 0.0
H966 H 0.34281 0.47235 0.00836 0.0
H967 H 0.32075 0.4757 0.04013 0.0
H968 H 0.34504 0.37743 0.06787 0.0
H969 H 0.36747 0.37382 0.03643 0.0
C970 C 0.36983 0.31067 0.93005 0.0
C971 C 0.37972 0.28068 0.93932 0.0
C972 C 0.37185 0.346 0.93913 0.0
C973 C 0.38376 0.35168 0.9575 0.0
C974 C 0.39437 0.32236 0.96599 0.0
C975 C 0.39255 0.2873 0.95685 0.0
C976 C 0.38337 0.38672 0.96986 0.0
C977 C 0.37134 0.38921 0.98836 0.0
C978 C 0.3948 0.41697 0.96391 0.0
C979 C 0.40766 0.41552 0.94445 0.0
C980 C 0.42289 0.39063 0.94399 0.0
C981 C 0.43497 0.38943 0.92554 0.0
C982 C 0.432 0.41315 0.90751 0.0
C983 C 0.41701 0.43823 0.90795 0.0
C984 C 0.4049 0.43954 0.92637 0.0
C985 C 0.38706 0.51222 0.04682 0.0
C986 C 0.38231 0.54693 0.03804 0.0
C987 C 0.38764 0.48128 0.03299 0.0
C988 C 0.38339 0.48442 0.01017 0.0
C989 C 0.37922 0.51912 0.00123 0.0
C990 C 0.37862 0.55006 0.01502 0.0
C991 C 0.38251 0.45121 0.99589 0.0
C992 C 0.39416 0.44908 0.97694 0.0
C993 C 0.37059 0.42124 0.00134 0.0
C994 C 0.35695 0.42301 0.02013 0.0
C995 C 0.34354 0.45159 0.02131 0.0
C996 C 0.33096 0.45353 0.03925 0.0
C997 C 0.33153 0.42685 0.05604 0.0
C998 C 0.34464 0.3981 0.05487 0.0
C999 C 0.35728 0.39608 0.03698 0.0
H1000 H 0.32178 0.42842 0.06992 0.0
H1001 H 0.44134 0.41217 0.89323 0.0
H1002 H 0.14827 0.43185 0.01586 0.0
H1003 H 0.14813 0.48648 0.99203 0.0
H1004 H 0.10499 0.53558 0.03323 0.0
H1005 H 0.10522 0.48109 0.05747 0.0
H1006 H 0.09784 0.53795 0.98547 0.0
H1007 H 0.14572 0.56781 0.03924 0.0
H1008 H 0.17469 0.55869 0.06144 0.0
H1009 H 0.20752 0.55148 0.00139 0.0
H1010 H 0.17867 0.55992 0.97878 0.0
H1011 H 0.10271 0.72542 0.95399 0.0
H1012 H 0.10083 0.66471 0.97086 0.0
H1013 H 0.15037 0.63062 0.93435 0.0
H1014 H 0.15285 0.69212 0.9179 0.0
H1015 H 0.15435 0.61775 0.97781 0.0
H1016 H 0.10648 0.59302 0.92371 0.0
H1017 H 0.07753 0.60533 0.90203 0.0
H1018 H 0.04465 0.60425 0.96218 0.0
H1019 H 0.07344 0.59244 0.9843 0.0
C1020 C 0.13879 0.45431 0.01992 0.0
C1021 C 0.12675 0.45221 0.03855 0.0
C1022 C 0.13875 0.48547 0.0063 0.0
C1023 C 0.12652 0.51489 0.01088 0.0
C1024 C 0.11447 0.51299 0.02943 0.0
C1025 C 0.11473 0.48203 0.04332 0.0
C1026 C 0.12644 0.54768 0.99626 0.0
C1027 C 0.11011 0.55567 0.98386 0.0
C1028 C 0.14266 0.56999 0.9938 0.0
C1029 C 0.15999 0.56401 0.00731 0.0
C1030 C 0.15907 0.56377 0.03075 0.0
C1031 C 0.17548 0.55884 0.04341 0.0
C1032 C 0.19292 0.55445 0.03283 0.0
C1033 C 0.19399 0.5548 0.00956 0.0
C1034 C 0.17761 0.55962 0.99681 0.0
C1035 C 0.11307 0.70493 0.94918 0.0
C1036 C 0.12808 0.71388 0.93475 0.0
C1037 C 0.11188 0.67003 0.95877 0.0
C1038 C 0.12546 0.64309 0.95389 0.0
C1039 C 0.1398 0.65113 0.93844 0.0
C1040 C 0.14112 0.68623 0.92894 0.0
C1041 C 0.12578 0.60819 0.96674 0.0
C1042 C 0.14215 0.5998 0.97898 0.0
C1043 C 0.1096 0.58554 0.96897 0.0
C1044 C 0.09218 0.59209 0.95569 0.0
C1045 C 0.0931 0.59563 0.93235 0.0
C1046 C 0.07671 0.60249 0.91997 0.0
C1047 C 0.05927 0.60565 0.93073 0.0
C1048 C 0.05817 0.60181 0.95388 0.0
C1049 C 0.07452 0.59497 0.96634 0.0
H1050 H 0.04662 0.61105 0.92112 0.0
H1051 H 0.20561 0.55096 0.04269 0.0
H1052 H 0.86609 0.69109 0.58844 0.0
H1053 H 0.86757 0.6305 0.56971 0.0
H1054 H 0.85822 0.6834 0.50618 0.0
H1055 H 0.85686 0.74293 0.52444 0.0
H1056 H 0.83702 0.62027 0.51118 0.0
H1057 H 0.90175 0.66366 0.52209 0.0
H1058 H 0.92922 0.68271 0.54467 0.0
H1059 H 0.9285 0.57873 0.5788 0.0
H1060 H 0.90084 0.55926 0.55662 0.0
H1061 H 0.86848 0.49858 0.42699 0.0
H1062 H 0.86599 0.55336 0.45093 0.0
H1063 H 0.88114 0.48786 0.50829 0.0
H1064 H 0.88397 0.43376 0.48472 0.0
H1065 H 0.8981 0.55304 0.50999 0.0
H1066 H 0.83493 0.50784 0.49987 0.0
H1067 H 0.80766 0.48606 0.4779 0.0
H1068 H 0.8053 0.58969 0.44352 0.0
H1069 H 0.83244 0.61232 0.46553 0.0
C1070 C 0.86421 0.68946 0.57054 0.0
C1071 C 0.86166 0.72154 0.55782 0.0
C1072 C 0.86508 0.65507 0.55989 0.0
C1073 C 0.86307 0.65271 0.53657 0.0
C1074 C 0.85977 0.68466 0.52415 0.0
C1075 C 0.85918 0.71867 0.53462 0.0
C1076 C 0.86533 0.61767 0.52443 0.0
C1077 C 0.85037 0.60554 0.51091 0.0
C1078 C 0.88264 0.59822 0.5244 0.0
C1079 C 0.8991 0.61018 0.5379 0.0
C1080 C 0.90733 0.64502 0.53457 0.0
C1081 C 0.92296 0.65586 0.54726 0.0
C1082 C 0.93058 0.63195 0.56317 0.0
C1083 C 0.92256 0.59722 0.56648 0.0
C1084 C 0.90692 0.58628 0.55387 0.0
C1085 C 0.87156 0.49613 0.44463 0.0
C1086 C 0.87619 0.46187 0.45402 0.0
C1087 C 0.87 0.52726 0.4583 0.0
C1088 C 0.87308 0.52439 0.48143 0.0
C1089 C 0.87861 0.49061 0.49054 0.0
C1090 C 0.88012 0.45969 0.47701 0.0
C1091 C 0.86991 0.55608 0.49644 0.0
C1092 C 0.88468 0.56749 0.51046 0.0
C1093 C 0.85236 0.57466 0.49713 0.0
C1094 C 0.83578 0.56164 0.48422 0.0
C1095 C 0.82859 0.52597 0.4876 0.0
C1096 C 0.81313 0.51352 0.47519 0.0
C1097 C 0.80475 0.53649 0.45932 0.0
C1098 C 0.81176 0.57203 0.4559 0.0
C1099 C 0.82713 0.58474 0.46841 0.0
H1100 H 0.7928 0.5268 0.44968 0.0
H1101 H 0.94276 0.64023 0.57287 0.0
H1102 H 0.63898 0.57604 0.48396 0.0
H1103 H 0.63915 0.52094 0.5071 0.0
H1104 H 0.61523 0.45817 0.45293 0.0
H1105 H 0.61482 0.51347 0.42953 0.0
H1106 H 0.59737 0.44424 0.49196 0.0
H1107 H 0.66123 0.44837 0.46594 0.0
H1108 H 0.69253 0.47575 0.45871 0.0
H1109 H 0.70069 0.49248 0.52896 0.0
H1110 H 0.66932 0.46558 0.53659 0.0
H1111 H 0.61556 0.26388 0.52564 0.0
H1112 H 0.61409 0.32339 0.50778 0.0
H1113 H 0.63971 0.37388 0.56548 0.0
H1114 H 0.64212 0.3132 0.58342 0.0
H1115 H 0.6559 0.39719 0.5277 0.0
H1116 H 0.59115 0.3852 0.5524 0.0
H1117 H 0.56173 0.34931 0.55664 0.0
H1118 H 0.55633 0.34199 0.48545 0.0
H1119 H 0.58577 0.37746 0.48077 0.0
C1120 C 0.63376 0.55057 0.47685 0.0
C1121 C 0.62686 0.54926 0.45482 0.0
C1122 C 0.63396 0.51902 0.49013 0.0
C1123 C 0.62735 0.48542 0.48169 0.0
C1124 C 0.62041 0.4839 0.45975 0.0
C1125 C 0.62024 0.51549 0.44638 0.0
C1126 C 0.62736 0.45207 0.49594 0.0
C1127 C 0.61018 0.43382 0.49967 0.0
C1128 C 0.64402 0.43892 0.50635 0.0
C1129 C 0.66282 0.4554 0.50182 0.0
C1130 C 0.66962 0.45823 0.47983 0.0
C1131 C 0.68739 0.47357 0.47567 0.0
C1132 C 0.69856 0.48597 0.49336 0.0
C1133 C 0.692 0.48294 0.51527 0.0
C1134 C 0.67423 0.46762 0.51953 0.0
C1135 C 0.62068 0.28752 0.53485 0.0
C1136 C 0.62889 0.28361 0.55613 0.0
C1137 C 0.61969 0.32175 0.52456 0.0
C1138 C 0.62638 0.3533 0.53545 0.0
C1139 C 0.6343 0.34987 0.55686 0.0
C1140 C 0.63556 0.31526 0.56714 0.0
C1141 C 0.62592 0.38924 0.52367 0.0
C1142 C 0.64302 0.40803 0.52037 0.0
C1143 C 0.60922 0.4026 0.5134 0.0
C1144 C 0.59073 0.38382 0.51625 0.0
C1145 C 0.58365 0.37604 0.53766 0.0
C1146 C 0.567 0.3557 0.54014 0.0
C1147 C 0.55728 0.34317 0.52132 0.0
C1148 C 0.56393 0.35163 0.5 0.0
C1149 C 0.58055 0.37195 0.49742 0.0
H1150 H 0.54465 0.32673 0.52322 0.0
H1151 H 0.71232 0.49782 0.4901 0.0
H1152 H 0.10882 0.13852 0.32049 0.0
H1153 H 0.10259 0.16191 0.28291 0.0
H1154 H 0.11174 0.27303 0.3059 0.0
H1155 H 0.11798 0.25002 0.34348 0.0
H1156 H 0.08229 0.26674 0.27347 0.0
H1157 H 0.14755 0.23069 0.28527 0.0
H1158 H 0.17272 0.18726 0.29618 0.0
H1159 H 0.15428 0.11126 0.24579 0.0
H1160 H 0.12878 0.15407 0.23482 0.0
H1161 H 0.11637 0.35885 0.17581 0.0
H1162 H 0.10918 0.33363 0.21275 0.0
H1163 H 0.10921 0.22372 0.18532 0.0
H1164 H 0.1168 0.24856 0.14865 0.0
H1165 H 0.13148 0.22663 0.21972 0.0
H1166 H 0.06835 0.26544 0.20465 0.0
H1167 H 0.04296 0.30837 0.19375 0.0
H1168 H 0.05652 0.37822 0.24929 0.0
H1169 H 0.0822 0.33597 0.26034 0.0
C1170 C 0.10913 0.16799 0.31767 0.0
C1171 C 0.11423 0.19236 0.33487 0.0
C1172 C 0.10555 0.18128 0.2962 0.0
C1173 C 0.10691 0.21913 0.29165 0.0
C1174 C 0.11064 0.24373 0.30911 0.0
C1175 C 0.11436 0.23047 0.33052 0.0
C1176 C 0.10681 0.23265 0.26838 0.0
C1177 C 0.09304 0.25819 0.26166 0.0
C1178 C 0.1207 0.22093 0.25299 0.0
C1179 C 0.13613 0.19536 0.25941 0.0
C1180 C 0.14877 0.20459 0.27664 0.0
C1181 C 0.16311 0.18011 0.28282 0.0
C1182 C 0.16506 0.14647 0.27173 0.0
C1183 C 0.15272 0.1373 0.25439 0.0
C1184 C 0.13833 0.16165 0.24819 0.0
C1185 C 0.11452 0.32939 0.17762 0.0
C1186 C 0.11741 0.30565 0.15942 0.0
C1187 C 0.11033 0.315 0.19871 0.0
C1188 C 0.10865 0.27674 0.20181 0.0
C1189 C 0.11056 0.25328 0.18337 0.0
C1190 C 0.11493 0.26754 0.16242 0.0
C1191 C 0.10684 0.26079 0.2245 0.0
C1192 C 0.12045 0.23491 0.23125 0.0
C1193 C 0.09275 0.27217 0.23979 0.0
C1194 C 0.07733 0.29768 0.2332 0.0
C1195 C 0.06603 0.29011 0.21443 0.0
C1196 C 0.05157 0.3143 0.20825 0.0
C1197 C 0.04816 0.34605 0.22079 0.0
C1198 C 0.05919 0.35363 0.23958 0.0
C1199 C 0.07369 0.32955 0.24582 0.0
H1200 H 0.03695 0.36473 0.21598 0.0
H1201 H 0.17617 0.12755 0.27654 0.0
H1202 H 0.39019 0.63412 0.17419 0.0
H1203 H 0.39373 0.654 0.21302 0.0
H1204 H 0.36599 0.75657 0.19739 0.0
H1205 H 0.36235 0.73724 0.15875 0.0
H1206 H 0.40961 0.71844 0.23499 0.0
H1207 H 0.33197 0.76739 0.23668 0.0
H1208 H 0.30181 0.7537 0.21772 0.0
H1209 H 0.32037 0.64299 0.20518 0.0
H1210 H 0.3505 0.65585 0.22436 0.0
H1211 H 0.38793 0.8361 0.32706 0.0
H1212 H 0.39331 0.80641 0.29103 0.0
H1213 H 0.35984 0.71334 0.312 0.0
H1214 H 0.35416 0.74285 0.34786 0.0
H1215 H 0.34816 0.73829 0.27311 0.0
H1216 H 0.40735 0.70544 0.30544 0.0
H1217 H 0.43755 0.71578 0.32497 0.0
H1218 H 0.45618 0.7864 0.27191 0.0
H1219 H 0.42595 0.77696 0.2522 0.0
C1220 C 0.38507 0.66112 0.17893 0.0
C1221 C 0.3757 0.68381 0.16341 0.0
C1222 C 0.38722 0.67247 0.20108 0.0
C1223 C 0.37994 0.70652 0.208 0.0
C1224 C 0.37155 0.73004 0.19233 0.0
C1225 C 0.36944 0.71883 0.17025 0.0
C1226 C 0.37931 0.71627 0.23189 0.0
C1227 C 0.39623 0.72273 0.24344 0.0
C1228 C 0.36182 0.72097 0.2429 0.0
C1229 C 0.34355 0.71272 0.23178 0.0
C1230 C 0.32957 0.74008 0.22998 0.0
C1231 C 0.31248 0.73247 0.21918 0.0
C1232 C 0.3092 0.69753 0.2102 0.0
C1233 C 0.32295 0.67007 0.21208 0.0
C1234 C 0.34004 0.67753 0.22289 0.0
C1235 C 0.38188 0.80914 0.32411 0.0
C1236 C 0.37043 0.79207 0.34028 0.0
C1237 C 0.38507 0.79211 0.30355 0.0
C1238 C 0.37702 0.75762 0.29889 0.0
C1239 C 0.36614 0.74001 0.31526 0.0
C1240 C 0.36289 0.757 0.33574 0.0
C1241 C 0.37848 0.74137 0.27632 0.0
C1242 C 0.36162 0.73377 0.26489 0.0
C1243 C 0.39605 0.73508 0.26567 0.0
C1244 C 0.4143 0.74072 0.27742 0.0
C1245 C 0.41781 0.72342 0.29801 0.0
C1246 C 0.43496 0.72908 0.3091 0.0
C1247 C 0.44876 0.7518 0.29971 0.0
C1248 C 0.44546 0.76884 0.27917 0.0
C1249 C 0.42833 0.7633 0.26802 0.0
H1250 H 0.46202 0.75614 0.30833 0.0
H1251 H 0.29598 0.69172 0.20182 0.0
H1252 H 0.62415 0.75974 0.15461 0.0
H1253 H 0.61708 0.73892 0.19236 0.0
H1254 H 0.60638 0.85106 0.2125 0.0
H1255 H 0.6134 0.87228 0.17455 0.0
H1256 H 0.6327 0.81473 0.23892 0.0
H1257 H 0.57052 0.79299 0.2113 0.0
H1258 H 0.54681 0.76958 0.18471 0.0
H1259 H 0.56524 0.65873 0.19707 0.0
H1260 H 0.58929 0.6815 0.22347 0.0
H1261 H 0.61876 0.75477 0.34849 0.0
H1262 H 0.61087 0.78301 0.31269 0.0
H1263 H 0.61476 0.67675 0.28072 0.0
H1264 H 0.62185 0.6481 0.31678 0.0
H1265 H 0.58783 0.71647 0.26143 0.0
H1266 H 0.65279 0.7369 0.28246 0.0
H1267 H 0.67861 0.75777 0.30704 0.0
H1268 H 0.65691 0.86821 0.30495 0.0
H1269 H 0.6308 0.84786 0.28056 0.0
C1270 C 0.62006 0.77999 0.16698 0.0
C1271 C 0.6195 0.81772 0.16166 0.0
C1272 C 0.61588 0.76799 0.1885 0.0
C1273 C 0.6111 0.79343 0.20516 0.0
C1274 C 0.60995 0.83101 0.1998 0.0
C1275 C 0.61393 0.84305 0.17814 0.0
C1276 C 0.60931 0.78089 0.22855 0.0
C1277 C 0.62256 0.79394 0.24403 0.0
C1278 C 0.59647 0.75292 0.2349 0.0
C1279 C 0.58181 0.73901 0.21929 0.0
C1280 C 0.56961 0.76364 0.20825 0.0
C1281 C 0.55609 0.75048 0.19322 0.0
C1282 C 0.55454 0.7127 0.18917 0.0
C1283 C 0.56646 0.688 0.20022 0.0
C1284 C 0.58002 0.70101 0.21525 0.0
C1285 C 0.6177 0.73738 0.33386 0.0
C1286 C 0.62125 0.69936 0.33529 0.0
C1287 C 0.61319 0.75353 0.31343 0.0
C1288 C 0.61271 0.73215 0.29392 0.0
C1289 C 0.61514 0.69382 0.29553 0.0
C1290 C 0.61926 0.6775 0.31611 0.0
C1291 C 0.61138 0.75005 0.27171 0.0
C1292 C 0.59767 0.73786 0.25646 0.0
C1293 C 0.624 0.77847 0.26535 0.0
C1294 C 0.63973 0.79079 0.27991 0.0
C1295 C 0.65346 0.76558 0.28737 0.0
C1296 C 0.66815 0.77732 0.30125 0.0
C1297 C 0.66937 0.81427 0.30761 0.0
C1298 C 0.65593 0.83959 0.30005 0.0
C1299 C 0.64118 0.82797 0.28619 0.0
H1300 H 0.68076 0.82331 0.31836 0.0
H1301 H 0.54408 0.70257 0.17751 0.0
H1302 H 0.8906 0.13227 0.17793 0.0
H1303 H 0.89787 0.15377 0.21567 0.0
H1304 H 0.88931 0.26616 0.19469 0.0
H1305 H 0.88196 0.24504 0.15699 0.0
H1306 H 0.91975 0.25633 0.22631 0.0
H1307 H 0.85344 0.2246 0.21509 0.0
H1308 H 0.82777 0.18229 0.20421 0.0
H1309 H 0.84622 0.10435 0.25353 0.0
H1310 H 0.87219 0.14603 0.26446 0.0
H1311 H 0.88687 0.35414 0.3213 0.0
H1312 H 0.89461 0.32592 0.2854 0.0
H1313 H 0.8898 0.21791 0.31503 0.0
H1314 H 0.88132 0.24597 0.35062 0.0
H1315 H 0.86975 0.21969 0.27991 0.0
H1316 H 0.93305 0.25465 0.29571 0.0
H1317 H 0.95924 0.29558 0.3067 0.0
H1318 H 0.94814 0.36493 0.25017 0.0
H1319 H 0.92168 0.32473 0.239 0.0
C1320 C 0.89065 0.16161 0.18122 0.0
C1321 C 0.88539 0.18693 0.16458 0.0
C1322 C 0.89483 0.17381 0.20277 0.0
C1323 C 0.89396 0.21149 0.20793 0.0
C1324 C 0.89007 0.23698 0.19099 0.0
C1325 C 0.8857 0.22481 0.16952 0.0
C1326 C 0.89461 0.22405 0.23136 0.0
C1327 C 0.90886 0.24848 0.23812 0.0
C1328 C 0.88061 0.21302 0.24677 0.0
C1329 C 0.86487 0.1882 0.24039 0.0
C1330 C 0.8521 0.19831 0.22348 0.0
C1331 C 0.83749 0.17447 0.21733 0.0
C1332 C 0.8354 0.1406 0.22812 0.0
C1333 C 0.84788 0.13056 0.24515 0.0
C1334 C 0.86254 0.15428 0.25133 0.0
C1335 C 0.8878 0.32441 0.32021 0.0
C1336 C 0.88328 0.30223 0.33864 0.0
C1337 C 0.89235 0.30827 0.29972 0.0
C1338 C 0.89288 0.26972 0.29749 0.0
C1339 C 0.88938 0.24768 0.31628 0.0
C1340 C 0.88451 0.26375 0.3366 0.0
C1341 C 0.89493 0.25237 0.27519 0.0
C1342 C 0.881 0.22713 0.26847 0.0
C1343 C 0.90936 0.26248 0.25999 0.0
C1344 C 0.92527 0.28679 0.26662 0.0
C1345 C 0.93608 0.27879 0.28571 0.0
C1346 C 0.951 0.30184 0.29196 0.0
C1347 C 0.95533 0.33288 0.27916 0.0
C1348 C 0.94476 0.34089 0.26007 0.0
C1349 C 0.92982 0.31795 0.25376 0.0
H1350 H 0.96688 0.35068 0.28402 0.0
H1351 H 0.82408 0.12218 0.22333 0.0
H1352 H 0.88079 0.74712 0.64965 0.0
H1353 H 0.88844 0.71872 0.68551 0.0
H1354 H 0.88859 0.826 0.7166 0.0
H1355 H 0.88195 0.85462 0.68045 0.0
H1356 H 0.91407 0.78515 0.73582 0.0
H1357 H 0.84853 0.76809 0.71616 0.0
H1358 H 0.82203 0.74805 0.69231 0.0
H1359 H 0.84198 0.63641 0.69529 0.0
H1360 H 0.86874 0.6559 0.71895 0.0
H1361 H 0.87812 0.74483 0.84394 0.0
H1362 H 0.88486 0.76545 0.806 0.0
H1363 H 0.89508 0.65313 0.78591 0.0
H1364 H 0.8885 0.63217 0.82397 0.0
H1365 H 0.868 0.69029 0.76018 0.0
H1366 H 0.93104 0.70938 0.78619 0.0
H1367 H 0.95561 0.73232 0.81182 0.0
H1368 H 0.93823 0.84368 0.79904 0.0
H1369 H 0.91334 0.82139 0.77358 0.0
C1370 C 0.88271 0.76462 0.66411 0.0
C1371 C 0.88051 0.80298 0.66241 0.0
C1372 C 0.88704 0.7484 0.68459 0.0
C1373 C 0.88856 0.77012 0.7039 0.0
C1374 C 0.88739 0.80864 0.70197 0.0
C1375 C 0.88354 0.82497 0.68135 0.0
C1376 C 0.88987 0.75271 0.72628 0.0
C1377 C 0.90395 0.76454 0.74118 0.0
C1378 C 0.87686 0.7253 0.7332 0.0
C1379 C 0.86074 0.71351 0.71909 0.0
C1380 C 0.84732 0.73931 0.7116 0.0
C1381 C 0.83226 0.72805 0.69814 0.0
C1382 C 0.83036 0.691 0.69223 0.0
C1383 C 0.84349 0.66511 0.69984 0.0
C1384 C 0.85861 0.67624 0.71328 0.0
C1385 C 0.88206 0.72452 0.83155 0.0
C1386 C 0.88263 0.68682 0.83692 0.0
C1387 C 0.88604 0.7364 0.80992 0.0
C1388 C 0.89054 0.71081 0.79322 0.0
C1389 C 0.89171 0.67328 0.79864 0.0
C1390 C 0.88797 0.66139 0.82038 0.0
C1391 C 0.89202 0.72305 0.76975 0.0
C1392 C 0.87836 0.71038 0.75467 0.0
C1393 C 0.90516 0.7501 0.76289 0.0
C1394 C 0.92022 0.76366 0.77807 0.0
C1395 C 0.93235 0.73875 0.78896 0.0
C1396 C 0.94636 0.75164 0.80345 0.0
C1397 C 0.94846 0.78943 0.80709 0.0
C1398 C 0.93658 0.81441 0.79621 0.0
C1399 C 0.92254 0.80166 0.78172 0.0
H1400 H 0.95931 0.79936 0.81831 0.0
H1401 H 0.81869 0.68233 0.6818 0.0
H1402 H 0.61184 0.26104 0.84663 0.0
H1403 H 0.60518 0.23671 0.80948 0.0
H1404 H 0.61375 0.34481 0.78127 0.0
H1405 H 0.61959 0.36965 0.81868 0.0
H1406 H 0.58736 0.3084 0.75809 0.0
H1407 H 0.65017 0.28262 0.78454 0.0
H1408 H 0.67395 0.25922 0.8111 0.0
H1409 H 0.65097 0.1502 0.8051 0.0
H1410 H 0.62688 0.17309 0.77872 0.0
H1411 H 0.62767 0.25713 0.65293 0.0
H1412 H 0.61991 0.28151 0.68981 0.0
H1413 H 0.60389 0.17276 0.71169 0.0
H1414 H 0.61147 0.14806 0.67482 0.0
H1415 H 0.63135 0.20705 0.73818 0.0
H1416 H 0.57069 0.23425 0.70703 0.0
H1417 H 0.54856 0.25989 0.6793 0.0
H1418 H 0.56947 0.36878 0.6924 0.0
H1419 H 0.59196 0.34373 0.71997 0.0
C1420 C 0.61194 0.27973 0.83254 0.0
C1421 C 0.61653 0.31706 0.8354 0.0
C1422 C 0.60816 0.26582 0.81134 0.0
C1423 C 0.6095 0.28874 0.79255 0.0
C1424 C 0.61275 0.32659 0.79554 0.0
C1425 C 0.61614 0.34073 0.81687 0.0
C1426 C 0.6095 0.27254 0.76986 0.0
C1427 C 0.59704 0.2864 0.75366 0.0
C1428 C 0.62201 0.24355 0.76417 0.0
C1429 C 0.63661 0.22964 0.77985 0.0
C1430 C 0.65012 0.2537 0.789 0.0
C1431 C 0.66366 0.24053 0.80401 0.0
C1432 C 0.66394 0.20326 0.80983 0.0
C1433 C 0.65071 0.17907 0.8006 0.0
C1434 C 0.63712 0.19212 0.78561 0.0
C1435 C 0.62226 0.23844 0.66549 0.0
C1436 C 0.62036 0.20058 0.66101 0.0
C1437 C 0.6177 0.25249 0.68649 0.0
C1438 C 0.61128 0.22892 0.70338 0.0
C1439 C 0.60877 0.19136 0.69879 0.0
C1440 C 0.61311 0.17734 0.67772 0.0
C1441 C 0.60919 0.24278 0.72642 0.0
C1442 C 0.62144 0.22865 0.74267 0.0
C1443 C 0.59671 0.27183 0.73194 0.0
C1444 C 0.58314 0.28704 0.71545 0.0
C1445 C 0.57069 0.26363 0.70387 0.0
C1446 C 0.55806 0.27807 0.6882 0.0
C1447 C 0.55764 0.31593 0.68406 0.0
C1448 C 0.56983 0.33945 0.69561 0.0
C1449 C 0.58251 0.32514 0.71128 0.0
H1450 H 0.54784 0.32706 0.67192 0.0
H1451 H 0.67442 0.19311 0.82146 0.0
H1452 H 0.37777 0.24777 0.65193 0.0
H1453 H 0.3843 0.22322 0.68904 0.0
H1454 H 0.38171 0.33306 0.71644 0.0
H1455 H 0.37604 0.35798 0.67903 0.0
H1456 H 0.4077 0.29525 0.73767 0.0
H1457 H 0.34306 0.2738 0.71769 0.0
H1458 H 0.31677 0.25179 0.69419 0.0
H1459 H 0.33739 0.14087 0.69958 0.0
H1460 H 0.36397 0.16232 0.72288 0.0
H1461 H 0.37512 0.24851 0.84711 0.0
H1462 H 0.38005 0.27165 0.8093 0.0
H1463 H 0.39265 0.16158 0.78669 0.0
H1464 H 0.38784 0.13808 0.82454 0.0
H1465 H 0.36372 0.19731 0.76292 0.0
H1466 H 0.42702 0.22183 0.78762 0.0
H1467 H 0.45113 0.24713 0.81306 0.0
H1468 H 0.43035 0.35653 0.80115 0.0
H1469 H 0.40591 0.33183 0.77588 0.0
C1470 C 0.37877 0.26672 0.66584 0.0
C1471 C 0.37613 0.30472 0.66269 0.0
C1472 C 0.38247 0.25266 0.68704 0.0
C1473 C 0.38301 0.27619 0.70562 0.0
C1474 C 0.38127 0.31436 0.70236 0.0
C1475 C 0.37797 0.32856 0.68102 0.0
C1476 C 0.38417 0.26071 0.72849 0.0
C1477 C 0.398 0.27404 0.74325 0.0
C1478 C 0.37163 0.23274 0.73574 0.0
C1479 C 0.35561 0.21972 0.72182 0.0
C1480 C 0.34206 0.24476 0.71373 0.0
C1481 C 0.3271 0.23238 0.70047 0.0
C1482 C 0.32544 0.19497 0.69534 0.0
C1483 C 0.33872 0.16985 0.70353 0.0
C1484 C 0.35372 0.18209 0.71678 0.0
C1485 C 0.37919 0.22925 0.83417 0.0
C1486 C 0.38093 0.19139 0.83878 0.0
C1487 C 0.38212 0.24258 0.81262 0.0
C1488 C 0.38677 0.21831 0.79528 0.0
C1489 C 0.38913 0.18071 0.79992 0.0
C1490 C 0.38641 0.16738 0.82155 0.0
C1491 C 0.38727 0.2317 0.77201 0.0
C1492 C 0.3736 0.21815 0.75722 0.0
C1493 C 0.39968 0.25994 0.76499 0.0
C1494 C 0.41453 0.27492 0.77997 0.0
C1495 C 0.42749 0.25125 0.79054 0.0
C1496 C 0.44124 0.2655 0.80492 0.0
C1497 C 0.44225 0.30341 0.80876 0.0
C1498 C 0.42955 0.32716 0.79817 0.0
C1499 C 0.41576 0.31306 0.7838 0.0
H1500 H 0.45289 0.31438 0.81991 0.0
H1501 H 0.31385 0.18544 0.68507 0.0
H1502 H 0.12465 0.7453 0.84808 0.0
H1503 H 0.11716 0.71802 0.812 0.0
H1504 H 0.11299 0.82645 0.78291 0.0
H1505 H 0.11994 0.85412 0.81931 0.0
H1506 H 0.08684 0.78095 0.76528 0.0
H1507 H 0.15379 0.77681 0.77902 0.0
H1508 H 0.18268 0.76215 0.8003 0.0
H1509 H 0.1689 0.64702 0.79803 0.0
H1510 H 0.13978 0.66107 0.77697 0.0
H1511 H 0.1162 0.74407 0.65393 0.0
H1512 H 0.11046 0.76454 0.69209 0.0
H1513 H 0.10943 0.65156 0.71432 0.0
H1514 H 0.11513 0.6307 0.67606 0.0
H1515 H 0.13553 0.69482 0.73642 0.0
H1516 H 0.07011 0.70041 0.71759 0.0
H1517 H 0.04232 0.71726 0.69496 0.0
H1518 H 0.05432 0.83199 0.70501 0.0
H1519 H 0.08237 0.81586 0.72742 0.0
C1520 C 0.122 0.76341 0.83406 0.0
C1521 C 0.12321 0.80187 0.83642 0.0
C1522 C 0.1177 0.74775 0.81345 0.0
C1523 C 0.11492 0.77018 0.79468 0.0
C1524 C 0.11516 0.80865 0.79719 0.0
C1525 C 0.11921 0.82441 0.81794 0.0
C1526 C 0.11318 0.75342 0.77225 0.0
C1527 C 0.09753 0.76232 0.75887 0.0
C1528 C 0.12697 0.72856 0.76408 0.0
C1529 C 0.14451 0.72003 0.77664 0.0
C1530 C 0.15686 0.74839 0.7832 0.0
C1531 C 0.17328 0.7402 0.7952 0.0
C1532 C 0.17759 0.70369 0.80057 0.0
C1533 C 0.16552 0.67529 0.79389 0.0
C1534 C 0.14906 0.68335 0.78192 0.0
C1535 C 0.11442 0.72351 0.66686 0.0
C1536 C 0.11633 0.68577 0.66204 0.0
C1537 C 0.111 0.73527 0.68863 0.0
C1538 C 0.10948 0.70955 0.70598 0.0
C1539 C 0.1105 0.67179 0.70109 0.0
C1540 C 0.11373 0.65995 0.67924 0.0
C1541 C 0.10923 0.72237 0.72938 0.0
C1542 C 0.12464 0.71294 0.74293 0.0
C1543 C 0.09536 0.74704 0.73749 0.0
C1544 C 0.07845 0.7569 0.72407 0.0
C1545 C 0.06693 0.72924 0.71483 0.0
C1546 C 0.0511 0.73867 0.70206 0.0
C1547 C 0.04658 0.77567 0.69851 0.0
C1548 C 0.05785 0.80333 0.70776 0.0
C1549 C 0.0737 0.79406 0.72053 0.0
H1550 H 0.03432 0.78291 0.68862 0.0
H1551 H 0.19031 0.6974 0.80986 0.0
H1552 H 0.173 0.45839 0.09997 0.0
H1553 H 0.20338 0.49034 0.10254 0.0
H1554 H 0.22645 0.39956 0.14012 0.0
H1555 H 0.19619 0.36725 0.13751 0.0
H1556 H 0.23713 0.46783 0.15718 0.0
H1557 H 0.23648 0.40421 0.0868 0.0
H1558 H 0.2246 0.38673 0.04961 0.0
H1559 H 0.22705 0.49951 0.0285 0.0
H1560 H 0.23875 0.51788 0.06566 0.0
H1561 H 0.33369 0.52183 0.10042 0.0
H1562 H 0.3054 0.48323 0.10369 0.0
H1563 H 0.27735 0.56948 0.14046 0.0
H1564 H 0.30546 0.60799 0.13743 0.0
H1565 H 0.27063 0.49806 0.08682 0.0
H1566 H 0.24568 0.53144 0.1765 0.0
H1567 H 0.2595 0.54649 0.21316 0.0
H1568 H 0.31037 0.48883 0.19558 0.0
H1569 H 0.29676 0.47302 0.15894 0.0
C1570 C 0.18441 0.44546 0.10914 0.0
C1571 C 0.18213 0.41019 0.11853 0.0
C1572 C 0.20183 0.46366 0.11043 0.0
C1573 C 0.21724 0.44713 0.12129 0.0
C1574 C 0.21476 0.41276 0.13159 0.0
C1575 C 0.19744 0.39434 0.13008 0.0
C1576 C 0.23612 0.4651 0.12132 0.0
C1577 C 0.24445 0.4745 0.14181 0.0
C1578 C 0.24582 0.47325 0.10127 0.0
C1579 C 0.23827 0.46247 0.07912 0.0
C1580 C 0.23423 0.42537 0.07434 0.0
C1581 C 0.22754 0.4153 0.05326 0.0
C1582 C 0.22486 0.44203 0.0368 0.0
C1583 C 0.22897 0.4789 0.04134 0.0
C1584 C 0.23566 0.48916 0.06239 0.0
C1585 C 0.32165 0.53229 0.1096 0.0
C1586 C 0.32187 0.56805 0.11866 0.0
C1587 C 0.30544 0.51029 0.11132 0.0
C1588 C 0.28926 0.5234 0.12238 0.0
C1589 C 0.28971 0.55857 0.13207 0.0
C1590 C 0.30581 0.58062 0.13025 0.0
C1591 C 0.27151 0.50145 0.12267 0.0
C1592 C 0.26334 0.49139 0.10222 0.0
C1593 C 0.26203 0.49251 0.14275 0.0
C1594 C 0.27024 0.50132 0.1649 0.0
C1595 C 0.25978 0.52182 0.1805 0.0
C1596 C 0.26758 0.53052 0.20127 0.0
C1597 C 0.28582 0.51872 0.20667 0.0
C1598 C 0.29627 0.49807 0.19134 0.0
C1599 C 0.28852 0.48928 0.17056 0.0
H1600 H 0.29185 0.52552 0.22275 0.0
H1601 H 0.21972 0.43413 0.02048 0.0
H1602 H 0.70105 0.62977 0.36428 0.0
H1603 H 0.72939 0.59237 0.36034 0.0
H1604 H 0.69722 0.49465 0.37556 0.0
H1605 H 0.66872 0.53214 0.38013 0.0
H1606 H 0.72839 0.4957 0.39941 0.0
H1607 H 0.71457 0.51304 0.32206 0.0
H1608 H 0.70705 0.54797 0.28791 0.0
H1609 H 0.75938 0.60708 0.29361 0.0
H1610 H 0.76711 0.57285 0.32798 0.0
H1611 H 0.79921 0.36759 0.37188 0.0
H1612 H 0.77073 0.40463 0.36805 0.0
H1613 H 0.80431 0.50363 0.36737 0.0
H1614 H 0.83318 0.46669 0.37157 0.0
H1615 H 0.77276 0.50148 0.33541 0.0
H1616 H 0.78617 0.48359 0.4131 0.0
H1617 H 0.7936 0.44755 0.44681 0.0
H1618 H 0.74142 0.38829 0.44008 0.0
H1619 H 0.73388 0.42332 0.40592 0.0
C1620 C 0.69984 0.60025 0.36647 0.0
C1621 C 0.68249 0.58406 0.37253 0.0
C1622 C 0.71614 0.57882 0.36412 0.0
C1623 C 0.71549 0.54056 0.36746 0.0
C1624 C 0.6981 0.52411 0.37289 0.0
C1625 C 0.68177 0.54559 0.37537 0.0
C1626 C 0.73317 0.51822 0.36663 0.0
C1627 C 0.73789 0.49651 0.38522 0.0
C1628 C 0.74592 0.51999 0.3484 0.0
C1629 C 0.74133 0.5406 0.32771 0.0
C1630 C 0.72441 0.53369 0.31613 0.0
C1631 C 0.72012 0.55333 0.29672 0.0
C1632 C 0.73271 0.57979 0.28863 0.0
C1633 C 0.74964 0.5866 0.29991 0.0
C1634 C 0.75399 0.56706 0.31934 0.0
C1635 C 0.80072 0.39719 0.37056 0.0
C1636 C 0.81861 0.41409 0.37219 0.0
C1637 C 0.78434 0.41833 0.36843 0.0
C1638 C 0.7854 0.45684 0.36769 0.0
C1639 C 0.80322 0.47389 0.36797 0.0
C1640 C 0.8197 0.45272 0.37036 0.0
C1641 C 0.76778 0.47903 0.36807 0.0
C1642 C 0.76314 0.50067 0.34949 0.0
C1643 C 0.75504 0.47708 0.38625 0.0
C1644 C 0.75955 0.45586 0.40678 0.0
C1645 C 0.77637 0.4626 0.41863 0.0
C1646 C 0.78058 0.44242 0.43787 0.0
C1647 C 0.76796 0.41575 0.44562 0.0
C1648 C 0.75116 0.40902 0.43407 0.0
C1649 C 0.74692 0.42901 0.41475 0.0
H1650 H 0.7712 0.40038 0.46061 0.0
H1651 H 0.72936 0.59497 0.27359 0.0
H1652 H 0.83278 0.53279 0.87303 0.0
H1653 H 0.80354 0.49713 0.86813 0.0
H1654 H 0.77059 0.59583 0.87745 0.0
H1655 H 0.79939 0.63157 0.88201 0.0
H1656 H 0.75986 0.53618 0.90526 0.0
H1657 H 0.77282 0.56261 0.82789 0.0
H1658 H 0.79221 0.56286 0.79373 0.0
H1659 H 0.79501 0.44472 0.79517 0.0
H1660 H 0.77586 0.44381 0.82956 0.0
H1661 H 0.66794 0.47407 0.8833 0.0
H1662 H 0.69719 0.50931 0.87946 0.0
H1663 H 0.72701 0.41051 0.86057 0.0
H1664 H 0.69785 0.37518 0.86391 0.0
H1665 H 0.74007 0.46838 0.83728 0.0
H1666 H 0.72819 0.44007 0.91383 0.0
H1667 H 0.70939 0.43726 0.94841 0.0
H1668 H 0.70591 0.55534 0.94973 0.0
H1669 H 0.72445 0.55883 0.91493 0.0
C1670 C 0.81932 0.54697 0.87372 0.0
C1671 C 0.81852 0.58511 0.8779 0.0
C1672 C 0.80264 0.52656 0.87091 0.0
C1673 C 0.78491 0.54388 0.87249 0.0
C1674 C 0.78411 0.58193 0.87622 0.0
C1675 C 0.80068 0.60234 0.87871 0.0
C1676 C 0.76708 0.52241 0.87138 0.0
C1677 C 0.75542 0.52171 0.89031 0.0
C1678 C 0.76158 0.50267 0.8521 0.0
C1679 C 0.7731 0.50317 0.83145 0.0
C1680 C 0.77774 0.53671 0.82106 0.0
C1681 C 0.78864 0.53697 0.80162 0.0
C1682 C 0.79489 0.50384 0.79232 0.0
C1683 C 0.79019 0.47037 0.80242 0.0
C1684 C 0.77931 0.46996 0.82187 0.0
C1685 C 0.68061 0.45989 0.87792 0.0
C1686 C 0.6805 0.42163 0.87417 0.0
C1687 C 0.69737 0.48008 0.87585 0.0
C1688 C 0.7144 0.46242 0.87017 0.0
C1689 C 0.7141 0.42472 0.86508 0.0
C1690 C 0.69735 0.40453 0.86708 0.0
C1691 C 0.73269 0.48261 0.87107 0.0
C1692 C 0.74448 0.48289 0.85222 0.0
C1693 C 0.73848 0.50162 0.89054 0.0
C1694 C 0.72754 0.49969 0.91164 0.0
C1695 C 0.72331 0.46543 0.92141 0.0
C1696 C 0.71271 0.46371 0.94106 0.0
C1697 C 0.70641 0.4961 0.95123 0.0
C1698 C 0.71077 0.53027 0.94181 0.0
C1699 C 0.72133 0.53214 0.92213 0.0
H1700 H 0.69819 0.49472 0.96643 0.0
H1701 H 0.80332 0.50409 0.77726 0.0
H1702 H 0.19875 0.63418 0.62747 0.0
H1703 H 0.22828 0.59988 0.63099 0.0
H1704 H 0.1982 0.49799 0.62086 0.0
H1705 H 0.16849 0.53205 0.61728 0.0
H1706 H 0.22568 0.49333 0.65429 0.0
H1707 H 0.22024 0.538 0.57859 0.0
H1708 H 0.21649 0.58561 0.54959 0.0
H1709 H 0.2673 0.63874 0.57189 0.0
H1710 H 0.27114 0.59188 0.60139 0.0
H1711 H 0.29696 0.37073 0.62013 0.0
H1712 H 0.26932 0.40983 0.62447 0.0
H1713 H 0.30488 0.50634 0.62386 0.0
H1714 H 0.33277 0.4672 0.61874 0.0
H1715 H 0.27577 0.51789 0.59834 0.0
H1716 H 0.28266 0.47416 0.67266 0.0
H1717 H 0.28699 0.4285 0.70268 0.0
H1718 H 0.23466 0.3765 0.68467 0.0
H1719 H 0.23014 0.42155 0.65432 0.0
C1720 C 0.19829 0.60443 0.62632 0.0
C1721 C 0.18116 0.58594 0.62198 0.0
C1722 C 0.21525 0.58488 0.62822 0.0
C1723 C 0.21549 0.54644 0.62587 0.0
C1724 C 0.19835 0.52769 0.62264 0.0
C1725 C 0.18136 0.54723 0.62059 0.0
C1726 C 0.23368 0.52588 0.62584 0.0
C1727 C 0.23658 0.49843 0.64195 0.0
C1728 C 0.24816 0.53346 0.61018 0.0
C1729 C 0.24585 0.56164 0.5924 0.0
C1730 C 0.23051 0.56004 0.57748 0.0
C1731 C 0.22838 0.58688 0.56093 0.0
C1732 C 0.24163 0.61522 0.55894 0.0
C1733 C 0.25703 0.6168 0.5735 0.0
C1734 C 0.25918 0.59012 0.59015 0.0
C1735 C 0.29904 0.40023 0.62119 0.0
C1736 C 0.31721 0.41571 0.61917 0.0
C1737 C 0.28313 0.42265 0.62378 0.0
C1738 C 0.28494 0.46113 0.62485 0.0
C1739 C 0.30308 0.47673 0.62314 0.0
C1740 C 0.31904 0.45428 0.62032 0.0
C1741 C 0.26778 0.48487 0.62669 0.0
C1742 C 0.26502 0.51295 0.61087 0.0
C1743 C 0.25352 0.4782 0.6428 0.0
C1744 C 0.25614 0.45109 0.66109 0.0
C1745 C 0.27214 0.45284 0.67499 0.0
C1746 C 0.27462 0.42709 0.69209 0.0
C1747 C 0.26113 0.39958 0.69555 0.0
C1748 C 0.24511 0.39782 0.68196 0.0
C1749 C 0.24256 0.42348 0.66482 0.0
H1750 H 0.26308 0.37966 0.70879 0.0
H1751 H 0.24 0.63588 0.54606 0.0
H1752 H 0.83156 0.03199 0.10915 0.0
H1753 H 0.80168 0.99852 0.11161 0.0
H1754 H 0.77684 0.08898 0.14784 0.0
H1755 H 0.80667 0.12283 0.14541 0.0
H1756 H 0.76467 0.02058 0.16362 0.0
H1757 H 0.76924 0.08612 0.09596 0.0
H1758 H 0.78352 0.10815 0.06096 0.0
H1759 H 0.78278 0.99822 0.0347 0.0
H1760 H 0.7691 0.97515 0.06991 0.0
H1761 H 0.66856 0.96733 0.13002 0.0
H1762 H 0.69737 0.00436 0.13528 0.0
H1763 H 0.73122 0.91386 0.1114 0.0
H1764 H 0.70286 0.8766 0.10663 0.0
H1765 H 0.73695 0.9881 0.09012 0.0
H1766 H 0.73338 0.92486 0.16186 0.0
H1767 H 0.71744 0.90818 0.197 0.0
H1768 H 0.71317 0.02254 0.21462 0.0
H1769 H 0.72885 0.03991 0.17938 0.0
C1770 C 0.81992 0.04447 0.11812 0.0
C1771 C 0.82149 0.08027 0.12691 0.0
C1772 C 0.8028 0.02537 0.1194 0.0
C1773 C 0.78697 0.04153 0.1296 0.0
C1774 C 0.78886 0.07608 0.13981 0.0
C1775 C 0.80592 0.0954 0.13835 0.0
C1776 C 0.76815 0.02362 0.12796 0.0
C1777 C 0.75852 0.01384 0.14755 0.0
C1778 C 0.76 0.01526 0.10698 0.0
C1779 C 0.76839 0.02879 0.08576 0.0
C1780 C 0.77239 0.06648 0.08288 0.0
C1781 C 0.78039 0.07917 0.063 0.0
C1782 C 0.78421 0.05452 0.04569 0.0
C1783 C 0.77999 0.01716 0.04823 0.0
C1784 C 0.77213 0.00425 0.06816 0.0
C1785 C 0.68217 0.95526 0.12611 0.0
C1786 C 0.6834 0.91893 0.11805 0.0
C1787 C 0.69858 0.97641 0.12912 0.0
C1788 C 0.71637 0.96176 0.12369 0.0
C1789 C 0.71761 0.92561 0.11568 0.0
C1790 C 0.70136 0.9043 0.11311 0.0
C1791 C 0.73382 0.98408 0.12574 0.0
C1792 C 0.74314 0.99493 0.10616 0.0
C1793 C 0.74141 0.99416 0.14669 0.0
C1794 C 0.73206 0.98369 0.16787 0.0
C1795 C 0.72886 0.94646 0.17311 0.0
C1796 C 0.71992 0.93688 0.19308 0.0
C1797 C 0.71423 0.96429 0.208 0.0
C1798 C 0.71754 0.00134 0.20302 0.0
C1799 C 0.72646 0.01106 0.18307 0.0
H1800 H 0.70732 0.95682 0.22345 0.0
H1801 H 0.79034 0.0644 0.03027 0.0
H1802 H 0.16522 0.03387 0.3751 0.0
H1803 H 0.19436 0.9983 0.37139 0.0
H1804 H 0.22624 0.09877 0.36404 0.0
H1805 H 0.19719 0.13461 0.36729 0.0
H1806 H 0.24061 0.04505 0.33767 0.0
H1807 H 0.22296 0.05855 0.41417 0.0
H1808 H 0.20133 0.05561 0.44636 0.0
H1809 H 0.19663 0.9384 0.43848 0.0
H1810 H 0.21799 0.94073 0.40597 0.0
H1811 H 0.32928 0.96438 0.37509 0.0
H1812 H 0.30137 0.00368 0.36968 0.0
H1813 H 0.26536 0.90807 0.37309 0.0
H1814 H 0.29284 0.86886 0.37836 0.0
H1815 H 0.25411 0.96255 0.40173 0.0
H1816 H 0.27229 0.95075 0.3244 0.0
H1817 H 0.29408 0.95577 0.29245 0.0
H1818 H 0.29883 0.07234 0.30322 0.0
H1819 H 0.27726 0.06792 0.33544 0.0
C1820 C 0.17835 0.04847 0.37227 0.0
C1821 C 0.17881 0.08721 0.37178 0.0
C1822 C 0.19503 0.02806 0.37025 0.0
C1823 C 0.21254 0.04591 0.36791 0.0
C1824 C 0.21292 0.0844 0.36595 0.0
C1825 C 0.19624 0.10486 0.36787 0.0
C1826 C 0.23049 0.02468 0.36924 0.0
C1827 C 0.24367 0.0273 0.35178 0.0
C1828 C 0.2345 0.0015 0.38765 0.0
C1829 C 0.22194 -0.00014 0.40749 0.0
C1830 C 0.21722 0.03217 0.41921 0.0
C1831 C 0.20501 0.03062 0.43752 0.0
C1832 C 0.19756 0.99685 0.44442 0.0
C1833 C 0.20238 0.96455 0.43309 0.0
C1834 C 0.21455 0.96596 0.41472 0.0
C1835 C 0.31545 0.95167 0.3743 0.0
C1836 C 0.31338 0.91341 0.37731 0.0
C1837 C 0.29951 0.97417 0.37123 0.0
C1838 C 0.28127 0.95879 0.3711 0.0
C1839 C 0.27927 0.92057 0.3733 0.0
C1840 C 0.29508 0.89817 0.37626 0.0
C1841 C 0.26407 0.98225 0.36994 0.0
C1842 C 0.25107 0.98026 0.38759 0.0
C1843 C 0.26038 0.00625 0.35185 0.0
C1844 C 0.27333 0.00893 0.33249 0.0
C1845 C 0.27812 0.9774 0.32009 0.0
C1846 C 0.2904 0.98014 0.3019 0.0
C1847 C 0.29788 0.01433 0.29585 0.0
C1848 C 0.29305 0.04586 0.30794 0.0
C1849 C 0.28079 0.04326 0.32616 0.0
H1850 H 0.30738 0.0164 0.28176 0.0
H1851 H 0.18808 0.99571 0.45857 0.0
H1852 H 0.20114 0.86903 0.86494 0.0
H1853 H 0.2299 0.90544 0.86077 0.0
H1854 H 0.20038 0.00187 0.88429 0.0
H1855 H 0.17137 0.96578 0.88811 0.0
H1856 H 0.22385 0.01944 0.85078 0.0
H1857 H 0.22948 0.94899 0.91954 0.0
H1858 H 0.23071 0.89289 0.94275 0.0
H1859 H 0.27603 0.85051 0.90261 0.0
H1860 H 0.27505 0.90632 0.87915 0.0
H1861 H 0.29962 0.12949 0.8886 0.0
H1862 H 0.2714 0.09251 0.8829 0.0
H1863 H 0.30599 -0.00065 0.86462 0.0
H1864 H 0.33451 0.03604 0.87109 0.0
H1865 H 0.28066 0.97794 0.89231 0.0
H1866 H 0.27774 0.04902 0.82571 0.0
H1867 H 0.27804 0.10515 0.80255 0.0
H1868 H 0.22872 0.14522 0.8365 0.0
H1869 H 0.22826 0.08955 0.86009 0.0
C1870 C 0.20065 0.89809 0.86901 0.0
C1871 C 0.18389 0.91436 0.87702 0.0
C1872 C 0.21718 0.91884 0.86673 0.0
C1873 C 0.21746 0.95625 0.87267 0.0
C1874 C 0.20057 0.97301 0.8797 0.0
C1875 C 0.18395 0.95231 0.88185 0.0
C1876 C 0.23544 0.9776 0.87225 0.0
C1877 C 0.23623 0.01057 0.86002 0.0
C1878 C 0.25184 0.96549 0.88368 0.0
C1879 C 0.25205 0.93161 0.89747 0.0
C1880 C 0.23958 0.92753 0.91555 0.0
C1881 C 0.24026 0.89583 0.92878 0.0
C1882 C 0.25339 0.8681 0.92408 0.0
C1883 C 0.26585 0.87199 0.90618 0.0
C1884 C 0.26526 0.90366 0.89296 0.0
C1885 C 0.30131 0.10128 0.88305 0.0
C1886 C 0.31942 0.08582 0.88025 0.0
C1887 C 0.28507 0.08015 0.87966 0.0
C1888 C 0.28645 0.04319 0.87296 0.0
C1889 C 0.3045 0.02783 0.86972 0.0
C1890 C 0.32082 0.04887 0.87338 0.0
C1891 C 0.26911 0.02003 0.87096 0.0
C1892 C 0.2684 0.98674 0.88282 0.0
C1893 C 0.25288 0.03171 0.85899 0.0
C1894 C 0.25305 0.0652 0.84479 0.0
C1895 C 0.26703 0.06991 0.82835 0.0
C1896 C 0.26722 0.10164 0.81513 0.0
C1897 C 0.25343 0.12877 0.81808 0.0
C1898 C 0.2394 0.12419 0.83424 0.0
C1899 C 0.23915 0.09253 0.84752 0.0
H1900 H 0.2536 0.15331 0.80783 0.0
H1901 H 0.25401 0.84364 0.93433 0.0
H1902 H 0.83375 0.97209 0.62119 0.0
H1903 H 0.80535 0.00997 0.62582 0.0
H1904 H 0.77284 0.91273 0.64105 0.0
H1905 H 0.80096 0.87478 0.63648 0.0
H1906 H 0.75656 0.95285 0.60829 0.0
H1907 H 0.78242 0.97573 0.68113 0.0
H1908 H 0.8069 0.99464 0.70807 0.0
H1909 H 0.80817 0.10283 0.67915 0.0
H1910 H 0.78386 0.08441 0.65182 0.0
H1911 H 0.67005 0.04253 0.63034 0.0
H1912 H 0.69861 0.00575 0.63609 0.0
H1913 H 0.73301 0.10232 0.62574 0.0
H1914 H 0.70465 0.13942 0.62061 0.0
H1915 H 0.74816 0.06168 0.65731 0.0
H1916 H 0.72424 0.03927 0.58347 0.0
H1917 H 0.70024 0.02168 0.55558 0.0
H1918 H 0.69623 0.91399 0.5848 0.0
H1919 H 0.72004 0.93109 0.61305 0.0
C1920 C 0.82066 0.95884 0.62601 0.0
C1921 C 0.81969 0.92029 0.62831 0.0
C1922 C 0.80441 0.98055 0.62863 0.0
C1923 C 0.78693 0.96416 0.6337 0.0
C1924 C 0.78613 0.92596 0.637 0.0
C1925 C 0.8023 0.90431 0.63444 0.0
C1926 C 0.7692 0.98621 0.634 0.0
C1927 C 0.75461 0.9763 0.61928 0.0
C1928 C 0.76685 0.01743 0.64785 0.0
C1929 C 0.78145 0.02857 0.66429 0.0
C1930 C 0.78803 0.00346 0.68039 0.0
C1931 C 0.80185 0.01411 0.69576 0.0
C1932 C 0.80912 0.04988 0.69529 0.0
C1933 C 0.80254 0.07511 0.67948 0.0
C1934 C 0.78873 0.06459 0.66406 0.0
C1935 C 0.68367 0.05609 0.62961 0.0
C1936 C 0.68497 0.09396 0.62483 0.0
C1937 C 0.70001 0.03495 0.63278 0.0
C1938 C 0.71801 0.05109 0.6309 0.0
C1939 C 0.71932 0.08917 0.6272 0.0
C1940 C 0.70301 0.11036 0.62423 0.0
C1941 C 0.73548 0.02822 0.63166 0.0
C1942 C 0.75005 0.03806 0.64646 0.0
C1943 C 0.73793 0.9971 0.61769 0.0
C1944 C 0.72376 0.98662 0.60055 0.0
C1945 C 0.71814 0.01192 0.58405 0.0
C1946 C 0.70458 0.00203 0.56816 0.0
C1947 C 0.69664 0.9668 0.56848 0.0
C1948 C 0.70234 0.94132 0.58462 0.0
C1949 C 0.71588 0.95108 0.60056 0.0
H1950 H 0.68616 0.95918 0.55616 0.0
H1951 H 0.81982 0.05807 0.7072 0.0
H1952 H 0.33376 0.2049 0.99368 0.0
H1953 H 0.30474 0.22584 0.01194 0.0
H1954 H 0.27148 0.16716 0.96308 0.0
H1955 H 0.30045 0.14759 0.94433 0.0
H1956 H 0.26165 0.23598 0.96385 0.0
H1957 H 0.272 0.14381 0.02001 0.0
H1958 H 0.29021 0.10991 0.04847 0.0
H1959 H 0.29683 0.20927 0.08652 0.0
H1960 H 0.27888 0.24389 0.05813 0.0
H1961 H 0.17194 0.27765 0.01205 0.0
H1962 H 0.20037 0.25088 0.99556 0.0
H1963 H 0.23476 0.30715 0.04436 0.0
H1964 H 0.2063 0.33238 0.06155 0.0
H1965 H 0.24359 0.23792 0.0437 0.0
H1966 H 0.23425 0.3304 0.98711 0.0
H1967 H 0.21627 0.36466 0.95859 0.0
H1968 H 0.20804 0.26494 0.92133 0.0
H1969 H 0.22577 0.22999 0.94977 0.0
C1970 C 0.32024 0.19543 0.9874 0.0
C1971 C 0.3192 0.17485 0.96765 0.0
C1972 C 0.30367 0.20741 0.99779 0.0
C1973 C 0.28593 0.19819 0.98879 0.0
C1974 C 0.28501 0.17485 0.97017 0.0
C1975 C 0.30152 0.1635 0.95958 0.0
C1976 C 0.26855 0.21651 0.99687 0.0
C1977 C 0.25751 0.23584 0.98127 0.0
C1978 C 0.26352 0.21736 0.01967 0.0
C1979 C 0.27421 0.1965 0.03684 0.0
C1980 C 0.27745 0.15849 0.03436 0.0
C1981 C 0.2877 0.13913 0.0505 0.0
C1982 C 0.2947 0.15744 0.06927 0.0
C1983 C 0.29141 0.19513 0.07197 0.0
C1984 C 0.28117 0.21462 0.05587 0.0
C1985 C 0.1856 0.28512 0.01883 0.0
C1986 C 0.18697 0.30711 0.03802 0.0
C1987 C 0.20186 0.26977 0.00943 0.0
C1988 C 0.21971 0.27702 0.01874 0.0
C1989 C 0.22112 0.30095 0.03702 0.0
C1990 C 0.20489 0.31562 0.04669 0.0
C1991 C 0.23674 0.25742 0.01067 0.0
C1992 C 0.2477 0.23792 0.02627 0.0
C1993 C 0.24174 0.25645 0.98787 0.0
C1994 C 0.2312 0.27753 0.97067 0.0
C1995 C 0.2285 0.31574 0.97291 0.0
C1996 C 0.21837 0.33529 0.95674 0.0
C1997 C 0.21098 0.31698 0.93819 0.0
C1998 C 0.21376 0.27909 0.93572 0.0
C1999 C 0.22387 0.2594 0.95184 0.0
H2000 H 0.20314 0.33216 0.9257 0.0
H2001 H 0.30265 0.14241 0.08173 0.0
H2002 H 0.33095 0.71165 0.01345 0.0
H2003 H 0.30274 0.73876 0.99652 0.0
H2004 H 0.26742 0.67454 0.04043 0.0
H2005 H 0.29546 0.64697 0.05722 0.0
H2006 H 0.25173 0.68086 0.0001 0.0
H2007 H 0.27985 0.75995 0.05425 0.0
H2008 H 0.30432 0.79757 0.07259 0.0
H2009 H 0.30831 0.86613 0.01445 0.0
H2010 H 0.2842 0.82835 0.99549 0.0
H2011 H 0.16991 0.78978 0.98924 0.0
H2012 H 0.19742 0.7658 0.00936 0.0
H2013 H 0.23443 0.81546 0.96088 0.0
H2014 H 0.20709 0.83914 0.94046 0.0
H2015 H 0.24837 0.8172 0.00562 0.0
H2016 H 0.22153 0.73298 0.95105 0.0
H2017 H 0.19566 0.6966 0.93444 0.0
H2018 H 0.1881 0.63898 0.99634 0.0
H2019 H 0.2138 0.67532 0.01339 0.0
C2020 C 0.31718 0.70242 0.01901 0.0
C2021 C 0.31539 0.67759 0.03687 0.0
C2022 C 0.3011 0.71824 0.0095 0.0
C2023 C 0.28309 0.70934 0.0177 0.0
C2024 C 0.28123 0.68204 0.03407 0.0
C2025 C 0.29726 0.66631 0.04362 0.0
C2026 C 0.26628 0.73016 0.01041 0.0
C2027 C 0.25093 0.71062 0.00154 0.0
C2028 C 0.2653 0.76903 0.01229 0.0
C2029 C 0.28034 0.79102 0.02334 0.0
C2030 C 0.28613 0.78272 0.04523 0.0
C2031 C 0.2999 0.80415 0.05577 0.0
C2032 C 0.30782 0.83428 0.04472 0.0
C2033 C 0.30214 0.84281 0.023 0.0
C2034 C 0.28845 0.82135 0.01233 0.0
C2035 C 0.18393 0.79661 0.98328 0.0
C2036 C 0.18643 0.81594 0.96318 0.0
C2037 C 0.19958 0.78277 0.99471 0.0
C2038 C 0.21783 0.78856 0.98629 0.0
C2039 C 0.2204 0.81079 0.96747 0.0
C2040 C 0.2048 0.82416 0.95585 0.0
C2041 C 0.23405 0.76788 0.99521 0.0
C2042 C 0.24925 0.78743 0.00433 0.0
C2043 C 0.23485 0.72904 0.99379 0.0
C2044 C 0.21944 0.70711 0.98355 0.0
C2045 C 0.21425 0.71276 0.96116 0.0
C2046 C 0.19965 0.69209 0.95165 0.0
C2047 C 0.19028 0.66546 0.96432 0.0
C2048 C 0.19542 0.65952 0.98654 0.0
C2049 C 0.21 0.68015 0.99613 0.0
H2050 H 0.17911 0.64934 0.95686 0.0
H2051 H 0.31837 0.85102 0.05298 0.0
H2052 H 0.70951 0.68279 0.43029 0.0
H2053 H 0.73495 0.71386 0.4499 0.0
H2054 H 0.69848 0.73075 0.50668 0.0
H2055 H 0.6726 0.70062 0.48685 0.0
H2056 H 0.71456 0.7933 0.49495 0.0
H2057 H 0.73634 0.67073 0.50833 0.0
H2058 H 0.74563 0.60699 0.49928 0.0
H2059 H 0.78987 0.64734 0.45678 0.0
H2060 H 0.78066 0.71124 0.46527 0.0
H2061 H 0.79006 0.83925 0.57055 0.0
H2062 H 0.76215 0.81956 0.54981 0.0
H2063 H 0.795 0.81582 0.48927 0.0
H2064 H 0.82303 0.83543 0.50984 0.0
H2065 H 0.7804 0.74831 0.50282 0.0
H2066 H 0.75929 0.87244 0.49333 0.0
H2067 H 0.75001 0.93497 0.50492 0.0
H2068 H 0.70411 0.89052 0.54321 0.0
H2069 H 0.71343 0.82762 0.53243 0.0
C2070 C 0.70694 0.69235 0.44714 0.0
C2071 C 0.68892 0.6895 0.4569 0.0
C2072 C 0.72156 0.71009 0.45836 0.0
C2073 C 0.71859 0.72468 0.47972 0.0
C2074 C 0.701 0.71987 0.49011 0.0
C2075 C 0.68628 0.70234 0.47882 0.0
C2076 C 0.73343 0.74721 0.49044 0.0
C2077 C 0.72891 0.78331 0.49706 0.0
C2078 C 0.75221 0.73438 0.49257 0.0
C2079 C 0.75767 0.69584 0.48728 0.0
C2080 C 0.74793 0.66601 0.49688 0.0
C2081 C 0.75321 0.62982 0.49188 0.0
C2082 C 0.76831 0.62307 0.47742 0.0
C2083 C 0.77817 0.65252 0.46796 0.0
C2084 C 0.77293 0.68875 0.47287 0.0
C2085 C 0.79121 0.83539 0.55268 0.0
C2086 C 0.80881 0.83807 0.54189 0.0
C2087 C 0.77522 0.82435 0.54085 0.0
C2088 C 0.77664 0.81591 0.51812 0.0
C2089 C 0.79372 0.82215 0.50686 0.0
C2090 C 0.8097 0.83346 0.51864 0.0
C2091 C 0.76158 0.7944 0.50725 0.0
C2092 C 0.76606 0.75835 0.50068 0.0
C2093 C 0.74275 0.80714 0.50558 0.0
C2094 C 0.73724 0.84511 0.51227 0.0
C2095 C 0.74741 0.87587 0.50453 0.0
C2096 C 0.74212 0.91145 0.51093 0.0
C2097 C 0.72655 0.91673 0.5249 0.0
C2098 C 0.71624 0.88642 0.5325 0.0
C2099 C 0.72152 0.85078 0.52624 0.0
H2100 H 0.72243 0.9443 0.52974 0.0
H2101 H 0.77237 0.59504 0.47359 0.0
H2102 H 0.82102 0.33698 0.48954 0.0
H2103 H 0.79222 0.31761 0.50877 0.0
H2104 H 0.76294 0.31104 0.44577 0.0
H2105 H 0.79135 0.33132 0.4265 0.0
H2106 H 0.73887 0.32678 0.48245 0.0
H2107 H 0.78951 0.2398 0.46101 0.0
H2108 H 0.82329 0.22266 0.46253 0.0
H2109 H 0.82058 0.21739 0.53401 0.0
H2110 H 0.78689 0.23498 0.53291 0.0
H2111 H 0.67314 0.188 0.50533 0.0
H2112 H 0.69952 0.21739 0.48578 0.0
H2113 H 0.73391 0.20756 0.54499 0.0
H2114 H 0.70799 0.1772 0.56422 0.0
H2115 H 0.75532 0.20203 0.5105 0.0
H2116 H 0.70606 0.28391 0.53441 0.0
H2117 H 0.67376 0.30929 0.53669 0.0
H2118 H 0.67427 0.33084 0.46629 0.0
H2119 H 0.70643 0.3049 0.46348 0.0
C2120 C 0.80825 0.33287 0.47988 0.0
C2121 C 0.80861 0.33421 0.45647 0.0
C2122 C 0.79181 0.32183 0.49088 0.0
C2123 C 0.77575 0.3118 0.47853 0.0
C2124 C 0.77532 0.31814 0.45552 0.0
C2125 C 0.79165 0.32936 0.44454 0.0
C2126 C 0.76121 0.28781 0.48841 0.0
C2127 C 0.74234 0.29943 0.48851 0.0
C2128 C 0.76595 0.25235 0.49647 0.0
C2129 C 0.78575 0.23894 0.49689 0.0
C2130 C 0.79614 0.23496 0.47704 0.0
C2131 C 0.81528 0.22538 0.47783 0.0
C2132 C 0.82409 0.2193 0.49837 0.0
C2133 C 0.81375 0.22237 0.51813 0.0
C2134 C 0.79463 0.23203 0.51743 0.0
C2135 C 0.68658 0.19075 0.51383 0.0
C2136 C 0.68844 0.18101 0.5364 0.0
C2137 C 0.70154 0.20799 0.50277 0.0
C2138 C 0.7184 0.21581 0.51424 0.0
C2139 C 0.72093 0.20228 0.53592 0.0
C2140 C 0.7061 0.18492 0.5469 0.0
C2141 C 0.73274 0.24087 0.50471 0.0
C2142 C 0.75167 0.22932 0.50449 0.0
C2143 C 0.72803 0.27672 0.49705 0.0
C2144 C 0.70858 0.29196 0.49868 0.0
C2145 C 0.69922 0.29368 0.51937 0.0
C2146 C 0.68094 0.30822 0.52076 0.0
C2147 C 0.67196 0.32153 0.50163 0.0
C2148 C 0.68123 0.32039 0.48108 0.0
C2149 C 0.69947 0.30574 0.47957 0.0
H2150 H 0.65784 0.33282 0.50271 0.0
H2151 H 0.83886 0.21185 0.49904 0.0
H2152 H 0.79567 0.66829 0.93343 0.0
H2153 H 0.76753 0.69179 0.952 0.0
H2154 H 0.80014 0.71345 0.01135 0.0
H2155 H 0.82864 0.69019 0.99275 0.0
H2156 H 0.75994 0.68831 0.01762 0.0
H2157 H 0.79807 0.78059 0.98157 0.0
H2158 H 0.81689 0.80552 0.95042 0.0
H2159 H 0.76805 0.80213 0.9079 0.0
H2160 H 0.74901 0.77659 0.93875 0.0
H2161 H 0.70616 0.82939 0.06378 0.0
H2162 H 0.7338 0.80335 0.04538 0.0
H2163 H 0.70014 0.77844 0.98733 0.0
H2164 H 0.67213 0.80419 0.0058 0.0
H2165 H 0.74083 0.80508 0.98051 0.0
H2166 H 0.70282 0.71276 0.01776 0.0
H2167 H 0.68443 0.6897 0.04985 0.0
H2168 H 0.73403 0.69446 0.09104 0.0
H2169 H 0.75256 0.71847 0.05932 0.0
C2170 C 0.7968 0.67716 0.95064 0.0
C2171 C 0.81441 0.67824 0.96152 0.0
C2172 C 0.78071 0.69046 0.96121 0.0
C2173 C 0.78197 0.70491 0.98279 0.0
C2174 C 0.79904 0.70244 0.99461 0.0
C2175 C 0.81526 0.68914 0.98399 0.0
C2176 C 0.76621 0.72709 0.99149 0.0
C2177 C 0.75586 0.71399 0.0097 0.0
C2178 C 0.76088 0.76036 0.98087 0.0
C2179 C 0.77217 0.77632 0.96239 0.0
C2180 C 0.79138 0.78487 0.96552 0.0
C2181 C 0.80209 0.79916 0.94794 0.0
C2182 C 0.79368 0.8053 0.92718 0.0
C2183 C 0.77454 0.7973 0.92399 0.0
C2184 C 0.76378 0.78295 0.94152 0.0
C2185 C 0.7047 0.81922 0.04688 0.0
C2186 C 0.68695 0.81824 0.03632 0.0
C2187 C 0.7205 0.80442 0.03642 0.0
C2188 C 0.71881 0.78857 0.01525 0.0
C2189 C 0.70158 0.79062 0.00374 0.0
C2190 C 0.68565 0.80541 0.01426 0.0
C2191 C 0.73449 0.76618 0.00654 0.0
C2192 C 0.74487 0.77932 0.98837 0.0
C2193 C 0.73993 0.73311 0.0173 0.0
C2194 C 0.72898 0.7178 0.03626 0.0
C2195 C 0.70972 0.70922 0.03373 0.0
C2196 C 0.69929 0.69593 0.05182 0.0
C2197 C 0.70805 0.69067 0.07247 0.0
C2198 C 0.72726 0.6986 0.07504 0.0
C2199 C 0.73773 0.71206 0.05702 0.0
H2200 H 0.69996 0.68038 0.08646 0.0
H2201 H 0.80199 0.81634 0.91357 0.0
H2202 H 0.70604 0.30843 0.92695 0.0
H2203 H 0.73248 0.28283 0.94775 0.0
H2204 H 0.70159 0.29598 0.00919 0.0
H2205 H 0.67463 0.32118 0.98846 0.0
H2206 H 0.74383 0.31448 0.00874 0.0
H2207 H 0.69842 0.21888 0.99282 0.0
H2208 H 0.67674 0.18398 0.96869 0.0
H2209 H 0.723 0.15409 0.92598 0.0
H2210 H 0.74498 0.18936 0.94982 0.0
H2211 H 0.79323 0.19026 0.07596 0.0
H2212 H 0.76599 0.21396 0.05573 0.0
H2213 H 0.79521 0.19827 0.99337 0.0
H2214 H 0.82288 0.1749 0.01346 0.0
H2215 H 0.75366 0.18094 0.99447 0.0
H2216 H 0.79911 0.27622 0.00988 0.0
H2217 H 0.82116 0.31056 0.03395 0.0
H2218 H 0.77528 0.34115 0.07704 0.0
H2219 H 0.75297 0.30643 0.05335 0.0
C2220 C 0.70488 0.3066 0.94493 0.0
C2221 C 0.68805 0.31632 0.95601 0.0
C2222 C 0.72004 0.29193 0.95675 0.0
C2223 C 0.71876 0.28717 0.97985 0.0
C2224 C 0.70267 0.29943 0.99128 0.0
C2225 C 0.68732 0.31374 0.97941 0.0
C2226 C 0.73361 0.26638 0.99155 0.0
C2227 C 0.74585 0.28522 0.00591 0.0
C2228 C 0.73639 0.22843 0.98731 0.0
C2229 C 0.72329 0.20711 0.97295 0.0
C2230 C 0.70394 0.20519 0.97816 0.0
C2231 C 0.6916 0.18525 0.96455 0.0
C2232 C 0.69845 0.1669 0.94573 0.0
C2233 C 0.7177 0.16837 0.94054 0.0
C2234 C 0.73011 0.18831 0.95411 0.0
C2235 C 0.79384 0.1911 0.05791 0.0
C2236 C 0.81042 0.18141 0.04634 0.0
C2237 C 0.77822 0.20463 0.04642 0.0
C2238 C 0.77884 0.20832 0.02321 0.0
C2239 C 0.79463 0.19569 0.01136 0.0
C2240 C 0.8104 0.18244 0.02287 0.0
C2241 C 0.76383 0.22899 0.01173 0.0
C2242 C 0.75161 0.21017 0.99736 0.0
C2243 C 0.76112 0.267 0.01589 0.0
C2244 C 0.77441 0.28838 0.02999 0.0
C2245 C 0.79374 0.28999 0.0246 0.0
C2246 C 0.80629 0.30957 0.03816 0.0
C2247 C 0.79964 0.32793 0.05707 0.0
C2248 C 0.78041 0.32686 0.06241 0.0
C2249 C 0.76781 0.30725 0.04891 0.0
H2250 H 0.80936 0.34306 0.06757 0.0
H2251 H 0.68888 0.15144 0.9352 0.0
H2252 H 0.33268 0.26883 0.51457 0.0
H2253 H 0.30556 0.24104 0.49575 0.0
H2254 H 0.26785 0.31096 0.53328 0.0
H2255 H 0.29488 0.33797 0.55269 0.0
H2256 H 0.25774 0.24033 0.5363 0.0
H2257 H 0.27573 0.32301 0.47559 0.0
H2258 H 0.29886 0.34848 0.44893 0.0
H2259 H 0.3082 0.2405 0.42183 0.0
H2260 H 0.28521 0.21439 0.44843 0.0
H2261 H 0.17067 0.21546 0.48184 0.0
H2262 H 0.2 0.23449 0.49986 0.0
H2263 H 0.23195 0.1682 0.45337 0.0
H2264 H 0.20259 0.15108 0.43444 0.0
H2265 H 0.24694 0.23096 0.45478 0.0
H2266 H 0.22803 0.14759 0.5118 0.0
H2267 H 0.20643 0.11849 0.53883 0.0
H2268 H 0.20074 0.22125 0.57365 0.0
H2269 H 0.22214 0.25109 0.54668 0.0
C2270 C 0.31864 0.27905 0.51828 0.0
C2271 C 0.31582 0.30559 0.535 0.0
C2272 C 0.30317 0.26305 0.50759 0.0
C2273 C 0.28472 0.27398 0.51312 0.0
C2274 C 0.28198 0.30201 0.5289 0.0
C2275 C 0.2974 0.31759 0.53983 0.0
C2276 C 0.2682 0.2546 0.50367 0.0
C2277 C 0.25521 0.23862 0.51848 0.0
C2278 C 0.26546 0.25085 0.48045 0.0
C2279 C 0.27883 0.26676 0.46404 0.0
C2280 C 0.28274 0.30472 0.46396 0.0
C2281 C 0.29582 0.31926 0.44886 0.0
C2282 C 0.30501 0.29612 0.43371 0.0
C2283 C 0.30106 0.2584 0.43356 0.0
C2284 C 0.28797 0.24374 0.44859 0.0
C2285 C 0.18394 0.20431 0.47586 0.0
C2286 C 0.18449 0.18193 0.45682 0.0
C2287 C 0.20071 0.21506 0.48619 0.0
C2288 C 0.21823 0.20252 0.47811 0.0
C2289 C 0.21864 0.17837 0.45983 0.0
C2290 C 0.2019 0.16845 0.44912 0.0
C2291 C 0.23608 0.21733 0.48743 0.0
C2292 C 0.24943 0.23232 0.47262 0.0
C2293 C 0.23932 0.21958 0.51068 0.0
C2294 C 0.22662 0.20162 0.52713 0.0
C2295 C 0.2221 0.16403 0.52516 0.0
C2296 C 0.2099 0.1474 0.54048 0.0
C2297 C 0.2022 0.16802 0.55793 0.0
C2298 C 0.20673 0.2053 0.56013 0.0
C2299 C 0.21892 0.22208 0.54486 0.0
H2300 H 0.19274 0.1551 0.56976 0.0
H2301 H 0.31516 0.30741 0.42208 0.0
H2302 H 0.32766 0.83487 0.49938 0.0
H2303 H 0.30001 0.81913 0.52208 0.0
H2304 H 0.26411 0.83125 0.46432 0.0
H2305 H 0.29141 0.84789 0.44185 0.0
H2306 H 0.24535 0.84627 0.50356 0.0
H2307 H 0.28832 0.74966 0.47329 0.0
H2308 H 0.32088 0.72521 0.47155 0.0
H2309 H 0.32165 0.71367 0.54283 0.0
H2310 H 0.28916 0.73825 0.54497 0.0
H2311 H 0.17225 0.71618 0.51403 0.0
H2312 H 0.19948 0.75039 0.49967 0.0
H2313 H 0.23314 0.71193 0.55509 0.0
H2314 H 0.20638 0.67686 0.56892 0.0
H2315 H 0.25423 0.71401 0.52177 0.0
H2316 H 0.21122 0.8001 0.55376 0.0
H2317 H 0.18332 0.83889 0.56124 0.0
H2318 H 0.18427 0.87843 0.49376 0.0
H2319 H 0.21201 0.83947 0.48575 0.0
C2320 C 0.31375 0.83581 0.49182 0.0
C2321 C 0.31165 0.84145 0.46878 0.0
C2322 C 0.29801 0.82665 0.50475 0.0
C2323 C 0.2802 0.82285 0.49461 0.0
C2324 C 0.27779 0.83357 0.47236 0.0
C2325 C 0.29342 0.84281 0.45951 0.0
C2326 C 0.26501 0.80135 0.50529 0.0
C2327 C 0.24713 0.81731 0.50753 0.0
C2328 C 0.26766 0.76387 0.51091 0.0
C2329 C 0.28641 0.74592 0.5093 0.0
C2330 C 0.29543 0.74171 0.48855 0.0
C2331 C 0.3139 0.72808 0.48751 0.0
C2332 C 0.32337 0.71824 0.5071 0.0
C2333 C 0.31433 0.72156 0.52771 0.0
C2334 C 0.29587 0.73518 0.52884 0.0
C2335 C 0.18561 0.71424 0.52275 0.0
C2336 C 0.18708 0.69431 0.54276 0.0
C2337 C 0.20108 0.73429 0.51476 0.0
C2338 C 0.21817 0.73476 0.52674 0.0
C2339 C 0.22005 0.71247 0.54571 0.0
C2340 C 0.20471 0.69232 0.55358 0.0
C2341 C 0.23409 0.7587 0.51983 0.0
C2342 C 0.2522 0.743 0.51807 0.0
C2343 C 0.23165 0.79672 0.51511 0.0
C2344 C 0.21365 0.81664 0.51912 0.0
C2345 C 0.20527 0.81651 0.54039 0.0
C2346 C 0.18957 0.83876 0.54477 0.0
C2347 C 0.1822 0.86145 0.52805 0.0
C2348 C 0.19014 0.86113 0.50675 0.0
C2349 C 0.2058 0.83888 0.50226 0.0
H2350 H 0.17026 0.87917 0.5315 0.0
H2351 H 0.33764 0.70772 0.50636 0.0
H2352 H 0.06124 0.35373 0.11176 0.0
H2353 H 0.03098 0.32114 0.11458 0.0
H2354 H 0.03711 0.28302 0.04691 0.0
H2355 H 0.06706 0.31559 0.0437 0.0
H2356 H 0.99573 0.32002 0.08487 0.0
H2357 H 0.03388 0.19387 0.05148 0.0
H2358 H 0.06606 0.16751 0.05163 0.0
H2359 H 0.07619 0.21358 0.11649 0.0
H2360 H 0.04423 0.24091 0.11648 0.0
H2361 H 0.9295 0.19181 0.04663 0.0
H2362 H 0.95885 0.22648 0.04911 0.0
H2363 H 0.97112 0.17608 0.11258 0.0
H2364 H 0.94146 0.14129 0.1105 0.0
H2365 H 0.00336 0.18393 0.08298 0.0
H2366 H 0.9537 0.25491 0.11575 0.0
H2367 H 0.92225 0.28396 0.11798 0.0
H2368 H 0.93477 0.34919 0.0601 0.0
H2369 H 0.96621 0.32006 0.05729 0.0
C2370 C 0.05594 0.33921 0.09727 0.0
C2371 C 0.06672 0.3371 0.07755 0.0
C2372 C 0.03865 0.32061 0.09895 0.0
C2373 C 0.03202 0.29946 0.08103 0.0
C2374 C 0.04212 0.2991 0.06094 0.0
C2375 C 0.05924 0.31786 0.05916 0.0
C2376 C 0.01548 0.27499 0.08364 0.0
C2377 C 0.99733 0.2903 0.08456 0.0
C2378 C 0.01769 0.2363 0.08372 0.0
C2379 C 0.0367 0.21922 0.08401 0.0
C2380 C 0.04296 0.19816 0.06581 0.0
C2381 C 0.06118 0.18321 0.06583 0.0
C2382 C 0.07308 0.1885 0.08417 0.0
C2383 C 0.06693 0.20933 0.10235 0.0
C2384 C 0.04881 0.22475 0.10229 0.0
C2385 C 0.93853 0.18737 0.06097 0.0
C2386 C 0.93298 0.16385 0.07847 0.0
C2387 C 0.95529 0.20744 0.06238 0.0
C2388 C 0.96695 0.20423 0.08117 0.0
C2389 C 0.9622 0.17901 0.09799 0.0
C2390 C 0.94527 0.15913 0.09674 0.0
C2391 C 0.98346 0.2289 0.08363 0.0
C2392 C 0.00166 0.21362 0.08354 0.0
C2393 C 0.98123 0.26767 0.08473 0.0
C2394 C 0.96228 0.2851 0.08623 0.0
C2395 C 0.94969 0.27519 0.10336 0.0
C2396 C 0.93188 0.29174 0.10477 0.0
C2397 C 0.92654 0.31847 0.08923 0.0
C2398 C 0.93896 0.32855 0.07217 0.0
C2399 C 0.95678 0.31204 0.07067 0.0
H2400 H 0.9128 0.3314 0.09043 0.0
H2401 H 0.08708 0.17648 0.08429 0.0
H2402 H 0.4312 0.67903 0.12136 0.0
H2403 H 0.46062 0.71448 0.12408 0.0
H2404 H 0.47137 0.69552 0.05424 0.0
H2405 H 0.44174 0.66095 0.05122 0.0
H2406 H 0.5041 0.68748 0.08549 0.0
H2407 H 0.45294 0.76916 0.06432 0.0
H2408 H 0.42202 0.79949 0.06862 0.0
H2409 H 0.43954 0.84429 0.1316 0.0
H2410 H 0.47052 0.81362 0.12782 0.0
H2411 H 0.56599 0.82013 0.04625 0.0
H2412 H 0.53665 0.78644 0.05159 0.0
H2413 H 0.53335 0.82526 0.11941 0.0
H2414 H 0.56312 0.85897 0.11442 0.0
H2415 H 0.49742 0.82282 0.0948 0.0
H2416 H 0.54882 0.74611 0.11585 0.0
H2417 H 0.58002 0.7163 0.11277 0.0
H2418 H 0.56252 0.66234 0.05249 0.0
H2419 H 0.53125 0.69227 0.05503 0.0
C2420 C 0.44006 0.6817 0.10671 0.0
C2421 C 0.43422 0.66721 0.08606 0.0
C2422 C 0.45676 0.70214 0.10827 0.0
C2423 C 0.46802 0.70773 0.08933 0.0
C2424 C 0.46281 0.69145 0.06902 0.0
C2425 C 0.44592 0.67174 0.06733 0.0
C2426 C 0.48463 0.73237 0.09023 0.0
C2427 C 0.50266 0.71706 0.08743 0.0
C2428 C 0.4827 0.77082 0.09345 0.0
C2429 C 0.46395 0.78864 0.09593 0.0
C2430 C 0.45012 0.78503 0.07923 0.0
C2431 C 0.43259 0.8024 0.08154 0.0
C2432 C 0.42878 0.82375 0.1004 0.0
C2433 C 0.44249 0.8277 0.11701 0.0
C2434 C 0.46003 0.81031 0.1148 0.0
C2435 C 0.55895 0.8222 0.06224 0.0
C2436 C 0.56711 0.84195 0.08001 0.0
C2437 C 0.54217 0.80277 0.06524 0.0
C2438 C 0.53309 0.80284 0.086 0.0
C2439 C 0.54028 0.82475 0.10331 0.0
C2440 C 0.55725 0.84409 0.10038 0.0
C2441 C 0.51684 0.77797 0.08967 0.0
C2442 C 0.49889 0.79318 0.09324 0.0
C2443 C 0.51885 0.73935 0.08743 0.0
C2444 C 0.53772 0.72167 0.08555 0.0
C2445 C 0.55168 0.7282 0.1018 0.0
C2446 C 0.56936 0.7112 0.10019 0.0
C2447 C 0.57323 0.68738 0.08248 0.0
C2448 C 0.55947 0.68072 0.06624 0.0
C2449 C 0.54175 0.69768 0.06776 0.0
H2450 H 0.58686 0.67396 0.0814 0.0
H2451 H 0.41525 0.83736 0.1021 0.0
H2452 H 0.41494 0.76486 0.41595 0.0
H2453 H 0.44497 0.73256 0.41208 0.0
H2454 H 0.47379 0.8366 0.40444 0.0
H2455 H 0.44323 0.86908 0.40703 0.0
H2456 H 0.49039 0.78625 0.37918 0.0
H2457 H 0.47149 0.7915 0.45584 0.0
H2458 H 0.44974 0.78378 0.48765 0.0
H2459 H 0.44721 0.66736 0.47535 0.0
H2460 H 0.46878 0.67446 0.44329 0.0
H2461 H 0.56907 0.69001 0.44816 0.0
H2462 H 0.5385 0.71997 0.44561 0.0
H2463 H 0.53157 0.67888 0.37858 0.0
H2464 H 0.56275 0.64967 0.38066 0.0
H2465 H 0.50442 0.69933 0.44092 0.0
H2466 H 0.50604 0.74166 0.34792 0.0
H2467 H 0.52956 0.75405 0.31847 0.0
H2468 H 0.57033 0.78522 0.36808 0.0
H2469 H 0.54697 0.77358 0.39779 0.0
C2470 C 0.42768 0.78081 0.41323 0.0
C2471 C 0.42693 0.81941 0.41216 0.0
C2472 C 0.44484 0.76236 0.41108 0.0
C2473 C 0.46175 0.78214 0.40865 0.0
C2474 C 0.46094 0.82075 0.40649 0.0
C2475 C 0.44357 0.8393 0.40805 0.0
C2476 C 0.48016 0.76241 0.40979 0.0
C2477 C 0.49348 0.76726 0.39267 0.0
C2478 C 0.48438 0.73802 0.42758 0.0
C2479 C 0.47163 0.73357 0.44707 0.0
C2480 C 0.46622 0.76429 0.45986 0.0
C2481 C 0.45394 0.76002 0.47793 0.0
C2482 C 0.44707 0.72511 0.48348 0.0
C2483 C 0.45253 0.69438 0.47102 0.0
C2484 C 0.46481 0.69851 0.45291 0.0
C2485 C 0.56106 0.68689 0.43288 0.0
C2486 C 0.56853 0.66753 0.41454 0.0
C2487 C 0.54349 0.70413 0.43147 0.0
C2488 C 0.53282 0.70228 0.41178 0.0
C2489 C 0.53973 0.68139 0.39379 0.0
C2490 C 0.55749 0.66439 0.39509 0.0
C2491 C 0.51469 0.72292 0.41027 0.0
C2492 C 0.50137 0.7182 0.42735 0.0
C2493 C 0.51081 0.74824 0.39284 0.0
C2494 C 0.52481 0.75633 0.37507 0.0
C2495 C 0.51999 0.75134 0.35253 0.0
C2496 C 0.5333 0.75821 0.33579 0.0
C2497 C 0.55145 0.77027 0.3414 0.0
C2498 C 0.55629 0.77574 0.36376 0.0
C2499 C 0.54302 0.76901 0.38055 0.0
H2500 H 0.56176 0.77544 0.32843 0.0
H2501 H 0.43754 0.72187 0.49747 0.0
H2502 H 0.06148 0.1577 0.38181 0.0
H2503 H 0.03102 0.18947 0.38158 0.0
H2504 H 0.02995 0.18782 0.45346 0.0
H2505 H 0.06058 0.15641 0.45393 0.0
H2506 H 0.9932 0.17569 0.43094 0.0
H2507 H 0.04654 0.25953 0.43333 0.0
H2508 H 0.07725 0.28269 0.41985 0.0
H2509 H 0.05293 0.30466 0.35557 0.0
H2510 H 0.02212 0.28106 0.36859 0.0
H2511 H 0.93156 0.31992 0.45638 0.0
H2512 H 0.96056 0.28373 0.45475 0.0
H2513 H 0.96454 0.30389 0.38402 0.0
H2514 H 0.93552 0.34059 0.38548 0.0
H2515 H 0.99925 0.30459 0.40405 0.0
H2516 H 0.94507 0.22635 0.40229 0.0
H2517 H 0.91434 0.2024 0.41517 0.0
H2518 H 0.93963 0.1679 0.47683 0.0
H2519 H 0.97045 0.19245 0.46456 0.0
C2520 C 0.05455 0.1631 0.39758 0.0
C2521 C 0.06355 0.15482 0.41791 0.0
C2522 C 0.03717 0.18139 0.39739 0.0
C2523 C 0.0284 0.19128 0.4175 0.0
C2524 C 0.03655 0.1804 0.43778 0.0
C2525 C 0.05407 0.16256 0.438 0.0
C2526 C 0.01199 0.21656 0.41743 0.0
C2527 C 0.99449 0.20395 0.42526 0.0
C2528 C 0.01371 0.25316 0.40956 0.0
C2529 C 0.03208 0.26819 0.40186 0.0
C2530 C 0.04777 0.26907 0.41628 0.0
C2531 C 0.06519 0.2823 0.40873 0.0
C2532 C 0.06705 0.29504 0.38685 0.0
C2533 C 0.05147 0.29473 0.37251 0.0
C2534 C 0.03402 0.28146 0.37996 0.0
C2535 C 0.93876 0.31729 0.44052 0.0
C2536 C 0.93107 0.33283 0.42101 0.0
C2537 C 0.9553 0.29641 0.43961 0.0
C2538 C 0.96441 0.29035 0.41917 0.0
C2539 C 0.95761 0.308 0.39993 0.0
C2540 C 0.94105 0.32909 0.40083 0.0
C2541 C 0.98036 0.26393 0.41777 0.0
C2542 C 0.99783 0.2763 0.40964 0.0
C2543 C 0.97854 0.22702 0.42526 0.0
C2544 C 0.96007 0.21163 0.43258 0.0
C2545 C 0.94407 0.21394 0.41868 0.0
C2546 C 0.92663 0.20025 0.42586 0.0
C2547 C 0.92503 0.18376 0.44683 0.0
C2548 C 0.94089 0.18078 0.46062 0.0
C2549 C 0.95835 0.1946 0.45356 0.0
H2550 H 0.91151 0.17325 0.45237 0.0
H2551 H 0.08056 0.30522 0.38103 0.0
H2552 H 0.93737 0.65182 0.88292 0.0
H2553 H 0.96743 0.68491 0.87981 0.0
H2554 H 0.96749 0.70322 0.95089 0.0
H2555 H 0.93755 0.67056 0.95414 0.0
H2556 H 0.97138 0.76656 0.92883 0.0
H2557 H -0.00028 0.64671 0.92681 0.0
H2558 H 0.00505 0.58328 0.91352 0.0
H2559 H 0.01981 0.62439 0.84867 0.0
H2560 H 0.01431 0.68809 0.86149 0.0
H2561 H 0.06364 0.83238 0.94944 0.0
H2562 H 0.03402 0.79834 0.94715 0.0
H2563 H 0.03831 0.79617 0.87541 0.0
H2564 H 0.06818 0.83017 0.87752 0.0
H2565 H 0.03168 0.72673 0.89418 0.0
H2566 H 0.00415 0.84793 0.89804 0.0
H2567 H 0.00127 0.91051 0.91372 0.0
H2568 H 0.98684 0.86493 0.97758 0.0
H2569 H 0.98961 0.80209 0.96226 0.0
C2570 C 0.94406 0.66197 0.89797 0.0
C2571 C 0.93496 0.65881 0.91875 0.0
C2572 C 0.96122 0.68099 0.89615 0.0
C2573 C 0.96961 0.69685 0.9151 0.0
C2574 C 0.96117 0.69157 0.93602 0.0
C2575 C 0.94407 0.67273 0.93784 0.0
C2576 C 0.98622 0.7216 0.91309 0.0
C2577 C 0.9846 0.75766 0.9214 0.0
C2578 C 0.00332 0.71043 0.90288 0.0
C2579 C 0.00634 0.67214 0.89502 0.0
C2580 C 0.00387 0.64221 0.90963 0.0
C2581 C 0.00697 0.60621 0.90221 0.0
C2582 C 0.01269 0.5998 0.88024 0.0
C2583 C 0.01534 0.62939 0.86567 0.0
C2584 C 0.01224 0.66545 0.87301 0.0
C2585 C 0.05814 0.82535 0.93312 0.0
C2586 C 0.0683 0.83405 0.91366 0.0
C2587 C 0.04118 0.80586 0.93185 0.0
C2588 C 0.03398 0.79473 0.91111 0.0
C2589 C 0.04367 0.80449 0.89157 0.0
C2590 C 0.06063 0.82425 0.89281 0.0
C2591 C 0.01684 0.77131 0.91015 0.0
C2592 C 0.01834 0.73562 0.9013 0.0
C2593 C 0.99966 0.78262 0.92002 0.0
C2594 C 0.99718 0.82035 0.92903 0.0
C2595 C 0.00037 0.85129 0.91543 0.0
C2596 C 0.99875 0.88679 0.92425 0.0
C2597 C 0.99395 0.89168 0.94666 0.0
C2598 C 0.99059 0.86109 0.96023 0.0
C2599 C 0.99207 0.82553 0.95146 0.0
H2600 H 0.99275 0.91919 0.95347 0.0
H2601 H 0.01513 0.57191 0.87454 0.0
H2602 H 0.5622 0.35246 0.88361 0.0
H2603 H 0.53277 0.31722 0.88155 0.0
H2604 H 0.53687 0.29276 0.95176 0.0
H2605 H 0.56615 0.32777 0.95405 0.0
H2606 H 0.53387 0.23092 0.92697 0.0
H2607 H 0.50215 0.34704 0.93264 0.0
H2608 H 0.49361 0.41092 0.92297 0.0
H2609 H 0.47552 0.37567 0.85803 0.0
H2610 H 0.4842 0.3116 0.86719 0.0
H2611 H 0.44341 0.15615 0.95171 0.0
H2612 H 0.47303 0.19035 0.94858 0.0
H2613 H 0.46512 0.19916 0.87745 0.0
H2614 H 0.43548 0.1645 0.88042 0.0
H2615 H 0.47056 0.26718 0.89901 0.0
H2616 H 0.50036 0.14941 0.89535 0.0
H2617 H 0.50751 0.0857 0.90681 0.0
H2618 H 0.52832 0.12471 0.96981 0.0
H2619 H 0.52101 0.18866 0.95888 0.0
C2620 C 0.55659 0.34046 0.89876 0.0
C2621 C 0.56672 0.34267 0.91895 0.0
C2622 C 0.53975 0.32025 0.89753 0.0
C2623 C 0.53273 0.30205 0.91646 0.0
C2624 C 0.54213 0.3063 0.9369 0.0
C2625 C 0.55887 0.3265 0.93817 0.0
C2626 C 0.51676 0.27569 0.91467 0.0
C2627 C 0.51996 0.23898 0.92108 0.0
C2628 C 0.49881 0.28591 0.90629 0.0
C2629 C 0.49412 0.32458 0.90048 0.0
C2630 C 0.49662 0.35297 0.91618 0.0
C2631 C 0.49169 0.38921 0.91082 0.0
C2632 C 0.48414 0.39738 0.88986 0.0
C2633 C 0.48145 0.36932 0.87422 0.0
C2634 C 0.48638 0.33304 0.87949 0.0
C2635 C 0.44824 0.16446 0.93532 0.0
C2636 C 0.43714 0.15758 0.91631 0.0
C2637 C 0.46516 0.18403 0.93356 0.0
C2638 C 0.47122 0.19738 0.9128 0.0
C2639 C 0.46066 0.18906 0.89362 0.0
C2640 C 0.44384 0.16895 0.89532 0.0
C2641 C 0.48763 0.22267 0.91162 0.0
C2642 C 0.48454 0.25912 0.90465 0.0
C2643 C 0.50565 0.21233 0.91966 0.0
C2644 C 0.50997 0.17385 0.92636 0.0
C2645 C 0.50629 0.1444 0.91174 0.0
C2646 C 0.5104 0.10824 0.91812 0.0
C2647 C 0.51832 0.10115 0.93905 0.0
C2648 C 0.52217 0.13024 0.95362 0.0
C2649 C 0.51805 0.16646 0.94733 0.0
H2650 H 0.52151 0.07313 0.94395 0.0
H2651 H 0.48027 0.42544 0.88577 0.0
H2652 H 0.56691 0.15803 0.61743 0.0
H2653 H 0.53736 0.19248 0.62087 0.0
H2654 H 0.53649 0.20959 0.54967 0.0
H2655 H 0.56613 0.17578 0.54611 0.0
H2656 H 0.53176 0.27304 0.57082 0.0
H2657 H 0.50495 0.15126 0.57639 0.0
H2658 H 0.50141 0.08867 0.59182 0.0
H2659 H 0.48826 0.13406 0.65611 0.0
H2660 H 0.49196 0.19696 0.64111 0.0
H2661 H 0.43857 0.33113 0.54998 0.0
H2662 H 0.46912 0.30058 0.55308 0.0
H2663 H 0.4642 0.30053 0.62479 0.0
H2664 H 0.43336 0.33108 0.62182 0.0
H2665 H 0.4727 0.23169 0.60772 0.0
H2666 H 0.49913 0.35308 0.60238 0.0
H2667 H 0.5018 0.41583 0.58686 0.0
H2668 H 0.51448 0.37088 0.52234 0.0
H2669 H 0.51187 0.30783 0.53752 0.0
C2670 C 0.56019 0.16827 0.60242 0.0
C2671 C 0.56895 0.16418 0.58148 0.0
C2672 C 0.5433 0.18811 0.60444 0.0
C2673 C 0.53473 0.20379 0.58554 0.0
C2674 C 0.54292 0.19804 0.56451 0.0
C2675 C 0.55983 0.17846 0.56249 0.0
C2676 C 0.51787 0.22802 0.58766 0.0
C2677 C 0.51882 0.26378 0.57873 0.0
C2678 C 0.50116 0.21658 0.59865 0.0
C2679 C 0.49894 0.1788 0.60769 0.0
C2680 C 0.50146 0.14789 0.59386 0.0
C2681 C 0.4994 0.11236 0.60252 0.0
C2682 C 0.49467 0.10739 0.62494 0.0
C2683 C 0.49196 0.13795 0.63875 0.0
C2684 C 0.49402 0.17354 0.63017 0.0
C2685 C 0.44412 0.32534 0.56646 0.0
C2686 C 0.43351 0.33352 0.58565 0.0
C2687 C 0.46163 0.30793 0.56821 0.0
C2688 C 0.46896 0.29834 0.58917 0.0
C2689 C 0.45879 0.30772 0.60845 0.0
C2690 C 0.44125 0.32547 0.60673 0.0
C2691 C 0.48657 0.27624 0.59055 0.0
C2692 C 0.48578 0.24098 0.60011 0.0
C2693 C 0.50344 0.28806 0.58019 0.0
C2694 C 0.50535 0.32582 0.57107 0.0
C2695 C 0.50249 0.35662 0.58488 0.0
C2696 C 0.50401 0.39221 0.57616 0.0
C2697 C 0.50835 0.39733 0.55364 0.0
C2698 C 0.51119 0.36686 0.5398 0.0
C2699 C 0.50978 0.3312 0.54847 0.0
H2700 H 0.50949 0.4249 0.5469 0.0
H2701 H 0.49308 0.07986 0.63161 0.0
H2702 H 0.06289 0.65903 0.54216 0.0
H2703 H 0.03219 0.68984 0.54303 0.0
H2704 H 0.03418 0.69228 0.61494 0.0
H2705 H 0.06449 0.66017 0.61423 0.0
H2706 H 0.9991 0.68249 0.60233 0.0
H2707 H 0.04742 0.77203 0.58221 0.0
H2708 H 0.07362 0.79801 0.56023 0.0
H2709 H 0.04059 0.78826 0.50037 0.0
H2710 H 0.014 0.76295 0.52218 0.0
H2711 H 0.93434 0.83181 0.61601 0.0
H2712 H 0.96373 0.79597 0.61634 0.0
H2713 H 0.96014 0.78285 0.54496 0.0
H2714 H 0.93104 0.81876 0.54442 0.0
H2715 H 0.99562 0.79782 0.55806 0.0
H2716 H 0.94576 0.71582 0.57917 0.0
H2717 H 0.91867 0.69523 0.60179 0.0
H2718 H 0.954 0.69131 0.66001 0.0
H2719 H 0.98128 0.71238 0.63776 0.0
C2720 C 0.05663 0.66548 0.55818 0.0
C2721 C 0.06625 0.65736 0.57811 0.0
C2722 C 0.03913 0.68342 0.55866 0.0
C2723 C 0.03109 0.69444 0.57904 0.0
C2724 C 0.04011 0.68434 0.59899 0.0
C2725 C 0.05747 0.66586 0.59855 0.0
C2726 C 0.01392 0.71821 0.57953 0.0
C2727 C 0.99843 0.70791 0.59284 0.0
C2728 C 0.01279 0.75114 0.56692 0.0
C2729 C 0.02888 0.76528 0.55374 0.0
C2730 C 0.04583 0.77519 0.56434 0.0
C2731 C 0.06072 0.78989 0.55191 0.0
C2732 C 0.05886 0.79444 0.52885 0.0
C2733 C 0.04204 0.7846 0.51821 0.0
C2734 C 0.02702 0.77028 0.53061 0.0
C2735 C 0.94003 0.82194 0.60034 0.0
C2736 C 0.93031 0.82807 0.5802 0.0
C2737 C 0.9567 0.80112 0.60059 0.0
C2738 C 0.96392 0.78622 0.58071 0.0
C2739 C 0.95475 0.79389 0.5605 0.0
C2740 C 0.93811 0.81446 0.56024 0.0
C2741 C 0.98086 0.76213 0.58077 0.0
C2742 C 0.99629 0.7724 0.56756 0.0
C2743 C 0.98183 0.72928 0.59347 0.0
C2744 C 0.96553 0.71604 0.60683 0.0
C2745 C 0.94773 0.71085 0.59683 0.0
C2746 C 0.93234 0.69905 0.60958 0.0
C2747 C 0.93459 0.6921 0.63235 0.0
C2748 C 0.95227 0.69676 0.64238 0.0
C2749 C 0.96771 0.70859 0.62969 0.0
H2750 H 0.92266 0.68302 0.64221 0.0
H2751 H 0.07036 0.80576 0.5192 0.0
loop_
_geom_bond_atom_site_label_1
_geom_bond_atom_site_label_2
_geom_bond_distance
_geom_bond_site_symmetry_2
_ccdc_geom_bond_type
Sc0 O3 2.025 . S
Sc0 O10 2.105 . S
Sc0 O13 2.105 . S
Sc0 O16 2.105 . S
Sc0 O19 2.105 . S
Sc1 O3 2.025 . S
Sc1 O11 2.105 . S
Sc1 O15 2.105 . S
Sc1 O17 2.105 . S
Sc1 O21 2.105 . S
Sc2 O3 2.025 . S
Sc2 O12 2.105 . S
Sc2 O14 2.105 . S
Sc2 O18 2.105 . S
Sc2 O20 2.105 . S
O3 Sc0 2.025 . S
O3 Sc1 2.025 . S
O3 Sc2 2.025 . S
C4 O10 1.268 . S
C4 O20 1.268 . S
C5 O11 1.268 . S
C5 O19 1.268 . S
C6 O12 1.268 . S
C6 O21 1.268 . S
C7 O13 1.268 . S
C7 O17 1.268 . S
C8 O14 1.268 . S
C8 O16 1.268 . S
C9 O15 1.268 . S
C9 O18 1.268 . S
O10 Sc0 2.105 . S
O10 C4 1.268 . S
O11 Sc1 2.105 . S
O11 C5 1.268 . S
O12 Sc2 2.105 . S
O12 C6 1.268 . S
O13 Sc0 2.105 . S
O13 C7 1.268 . S
O14 Sc2 2.105 . S
O14 C8 1.268 . S
O15 Sc1 2.105 . S
O15 C9 1.268 . S
O16 Sc0 2.105 . S
O16 C8 1.268 . S
O17 Sc1 2.105 . S
O17 C7 1.268 . S
O18 Sc2 2.105 . S
O18 C9 1.268 . S
O19 Sc0 2.105 . S
O19 C5 1.268 . S
O20 Sc2 2.105 . S
O20 C4 1.268 . S
O21 Sc1 2.105 . S
O21 C6 1.268 . S
Sc22 O25 2.025 . S
Sc22 O32 2.105 . S
Sc22 O35 2.105 . S
Sc22 O38 2.105 . S
Sc22 O41 2.105 . S
Sc23 O25 2.025 . S
Sc23 O33 2.105 . S
Sc23 O37 2.105 . S
Sc23 O39 2.105 . S
Sc23 O43 2.105 . S
Sc24 O25 2.025 . S
Sc24 O34 2.105 . S
Sc24 O36 2.105 . S
Sc24 O40 2.105 . S
Sc24 O42 2.105 . S
O25 Sc22 2.025 . S
O25 Sc23 2.025 . S
O25 Sc24 2.025 . S
C26 O32 1.268 . S
C26 O42 1.268 . S
C27 O33 1.268 . S
C27 O41 1.268 . S
C28 O34 1.268 . S
C28 O43 1.268 . S
C29 O35 1.268 . S
C29 O39 1.268 . S
C30 O36 1.268 . S
C30 O38 1.268 . S
C31 O37 1.268 . S
C31 O40 1.268 . S
O32 Sc22 2.105 . S
O32 C26 1.268 . S
O33 Sc23 2.105 . S
O33 C27 1.268 . S
O34 Sc24 2.105 . S
O34 C28 1.268 . S
O35 Sc22 2.105 . S
O35 C29 1.268 . S
O36 Sc24 2.105 . S
O36 C30 1.268 . S
O37 Sc23 2.105 . S
O37 C31 1.268 . S
O38 Sc22 2.105 . S
O38 C30 1.268 . S
O39 Sc23 2.105 . S
O39 C29 1.268 . S
O40 Sc24 2.105 . S
O40 C31 1.268 . S
O41 Sc22 2.105 . S
O41 C27 1.268 . S
O42 Sc24 2.105 . S
O42 C26 1.268 . S
O43 Sc23 2.105 . S
O43 C28 1.268 . S
Sc44 O47 2.025 . S
Sc44 O54 2.105 . S
Sc44 O57 2.105 . S
Sc44 O60 2.105 . S
Sc44 O63 2.105 . S
Sc45 O47 2.025 . S
Sc45 O55 2.105 . S
Sc45 O59 2.105 . S
Sc45 O61 2.105 . S
Sc45 O65 2.105 . S
Sc46 O47 2.025 . S
Sc46 O56 2.105 . S
Sc46 O58 2.105 . S
Sc46 O62 2.105 . S
Sc46 O64 2.105 . S
O47 Sc44 2.025 . S
O47 Sc45 2.025 . S
O47 Sc46 2.025 . S
C48 O54 1.268 . S
C48 O64 1.268 . S
C49 O55 1.268 . S
C49 O63 1.268 . S
C50 O56 1.268 . S
C50 O65 1.268 . S
C51 O57 1.268 . S
C51 O61 1.268 . S
C52 O58 1.268 . S
C52 O60 1.268 . S
C53 O59 1.268 . S
C53 O62 1.268 . S
O54 Sc44 2.105 . S
O54 C48 1.268 . S
O55 Sc45 2.105 . S
O55 C49 1.268 . S
O56 Sc46 2.105 . S
O56 C50 1.268 . S
O57 Sc44 2.105 . S
O57 C51 1.268 . S
O58 Sc46 2.105 . S
O58 C52 1.268 . S
O59 Sc45 2.105 . S
O59 C53 1.268 . S
O60 Sc44 2.105 . S
O60 C52 1.268 . S
O61 Sc45 2.105 . S
O61 C51 1.268 . S
O62 Sc46 2.105 . S
O62 C53 1.268 . S
O63 Sc44 2.105 . S
O63 C49 1.268 . S
O64 Sc46 2.105 . S
O64 C48 1.268 . S
O65 Sc45 2.105 . S
O65 C50 1.268 . S
Sc66 O69 2.025 . S
Sc66 O76 2.105 . S
Sc66 O79 2.105 . S
Sc66 O82 2.105 . S
Sc66 O85 2.105 . S
Sc67 O69 2.025 . S
Sc67 O77 2.105 . S
Sc67 O81 2.105 . S
Sc67 O83 2.105 . S
Sc67 O87 2.105 . S
Sc68 O69 2.025 . S
Sc68 O78 2.105 . S
Sc68 O80 2.105 . S
Sc68 O84 2.105 . S
Sc68 O86 2.105 . S
O69 Sc66 2.025 . S
O69 Sc67 2.025 . S
O69 Sc68 2.025 . S
C70 O76 1.268 . S
C70 O86 1.268 . S
C71 O77 1.268 . S
C71 O85 1.268 . S
C72 O78 1.268 . S
C72 O87 1.268 . S
C73 O79 1.268 . S
C73 O83 1.268 . S
C74 O80 1.268 . S
C74 O82 1.268 . S
C75 O81 1.268 . S
C75 O84 1.268 . S
O76 Sc66 2.105 . S
O76 C70 1.268 . S
O77 Sc67 2.105 . S
O77 C71 1.268 . S
O78 Sc68 2.105 . S
O78 C72 1.268 . S
O79 Sc66 2.105 . S
O79 C73 1.268 . S
O80 Sc68 2.105 . S
O80 C74 1.268 . S
O81 Sc67 2.105 . S
O81 C75 1.268 . S
O82 Sc66 2.105 . S
O82 C74 1.268 . S
O83 Sc67 2.105 . S
O83 C73 1.268 . S
O84 Sc68 2.105 . S
O84 C75 1.268 . S
O85 Sc66 2.105 . S
O85 C71 1.268 . S
O86 Sc68 2.105 . S
O86 C70 1.268 . S
O87 Sc67 2.105 . S
O87 C72 1.268 . S
Sc88 O91 2.025 . S
Sc88 O98 2.105 . S
Sc88 O101 2.105 . S
Sc88 O104 2.105 . S
Sc88 O107 2.105 . S
Sc89 O91 2.025 . S
Sc89 O99 2.105 . S
Sc89 O103 2.105 . S
Sc89 O105 2.105 . S
Sc89 O109 2.105 . S
Sc90 O91 2.025 . S
Sc90 O100 2.105 . S
Sc90 O102 2.105 . S
Sc90 O106 2.105 . S
Sc90 O108 2.105 . S
O91 Sc88 2.025 . S
O91 Sc89 2.025 . S
O91 Sc90 2.025 . S
C92 O98 1.268 . S
C92 O108 1.268 . S
C93 O99 1.268 . S
C93 O107 1.268 . S
C94 O100 1.268 . S
C94 O109 1.268 . S
C95 O101 1.268 . S
C95 O105 1.268 . S
C96 O102 1.268 . S
C96 O104 1.268 . S
C97 O103 1.268 . S
C97 O106 1.268 . S
O98 Sc88 2.105 . S
O98 C92 1.268 . S
O99 Sc89 2.105 . S
O99 C93 1.268 . S
O100 Sc90 2.105 . S
O100 C94 1.268 . S
O101 Sc88 2.105 . S
O101 C95 1.268 . S
O102 Sc90 2.105 . S
O102 C96 1.268 . S
O103 Sc89 2.105 . S
O103 C97 1.268 . S
O104 Sc88 2.105 . S
O104 C96 1.268 . S
O105 Sc89 2.105 . S
O105 C95 1.268 . S
O106 Sc90 2.105 . S
O106 C97 1.268 . S
O107 Sc88 2.105 . S
O107 C93 1.268 . S
O108 Sc90 2.105 . S
O108 C92 1.268 . S
O109 Sc89 2.105 . S
O109 C94 1.268 . S
Sc110 O113 2.025 . S
Sc110 O120 2.105 . S
Sc110 O123 2.105 . S
Sc110 O126 2.105 . S
Sc110 O129 2.105 . S
Sc111 O113 2.025 . S
Sc111 O121 2.105 . S
Sc111 O125 2.105 . S
Sc111 O127 2.105 . S
Sc111 O131 2.105 . S
Sc112 O113 2.025 . S
Sc112 O122 2.105 . S
Sc112 O124 2.105 . S
Sc112 O128 2.105 . S
Sc112 O130 2.105 . S
O113 Sc110 2.025 . S
O113 Sc111 2.025 . S
O113 Sc112 2.025 . S
C114 O120 1.268 . S
C114 O130 1.268 . S
C115 O121 1.268 . S
C115 O129 1.268 . S
C116 O122 1.268 . S
C116 O131 1.268 . S
C117 O123 1.268 . S
C117 O127 1.268 . S
C118 O124 1.268 . S
C118 O126 1.268 . S
C119 O125 1.268 . S
C119 O128 1.268 . S
O120 Sc110 2.105 . S
O120 C114 1.268 . S
O121 Sc111 2.105 . S
O121 C115 1.268 . S
O122 Sc112 2.105 . S
O122 C116 1.268 . S
O123 Sc110 2.105 . S
O123 C117 1.268 . S
O124 Sc112 2.105 . S
O124 C118 1.268 . S
O125 Sc111 2.105 . S
O125 C119 1.268 . S
O126 Sc110 2.105 . S
O126 C118 1.268 . S
O127 Sc111 2.105 . S
O127 C117 1.268 . S
O128 Sc112 2.105 . S
O128 C119 1.268 . S
O129 Sc110 2.105 . S
O129 C115 1.268 . S
O130 Sc112 2.105 . S
O130 C114 1.268 . S
O131 Sc111 2.105 . S
O131 C116 1.268 . S
Sc132 O135 2.025 . S
Sc132 O142 2.105 . S
Sc132 O145 2.105 . S
Sc132 O148 2.105 . S
Sc132 O151 2.105 . S
Sc133 O135 2.025 . S
Sc133 O143 2.105 . S
Sc133 O147 2.105 . S
Sc133 O149 2.105 . S
Sc133 O153 2.105 . S
Sc134 O135 2.025 . S
Sc134 O144 2.105 . S
Sc134 O146 2.105 . S
Sc134 O150 2.105 . S
Sc134 O152 2.105 . S
O135 Sc132 2.025 . S
O135 Sc133 2.025 . S
O135 Sc134 2.025 . S
C136 O142 1.268 . S
C136 O152 1.268 . S
C137 O143 1.268 . S
C137 O151 1.268 . S
C138 O144 1.268 . S
C138 O153 1.268 . S
C139 O145 1.268 . S
C139 O149 1.268 . S
C140 O146 1.268 . S
C140 O148 1.268 . S
C141 O147 1.268 . S
C141 O150 1.268 . S
O142 Sc132 2.105 . S
O142 C136 1.268 . S
O143 Sc133 2.105 . S
O143 C137 1.268 . S
O144 Sc134 2.105 . S
O144 C138 1.268 . S
O145 Sc132 2.105 . S
O145 C139 1.268 . S
O146 Sc134 2.105 . S
O146 C140 1.268 . S
O147 Sc133 2.105 . S
O147 C141 1.268 . S
O148 Sc132 2.105 . S
O148 C140 1.268 . S
O149 Sc133 2.105 . S
O149 C139 1.268 . S
O150 Sc134 2.105 . S
O150 C141 1.268 . S
O151 Sc132 2.105 . S
O151 C137 1.268 . S
O152 Sc134 2.105 . S
O152 C136 1.268 . S
O153 Sc133 2.105 . S
O153 C138 1.268 . S
Sc154 O157 2.025 . S
Sc154 O164 2.105 . S
Sc154 O167 2.105 . S
Sc154 O170 2.105 . S
Sc154 O173 2.105 . S
Sc155 O157 2.025 . S
Sc155 O165 2.105 . S
Sc155 O169 2.105 . S
Sc155 O171 2.105 . S
Sc155 O175 2.105 . S
Sc156 O157 2.025 . S
Sc156 O166 2.105 . S
Sc156 O168 2.105 . S
Sc156 O172 2.105 . S
Sc156 O174 2.105 . S
O157 Sc154 2.025 . S
O157 Sc155 2.025 . S
O157 Sc156 2.025 . S
C158 O164 1.268 . S
C158 O174 1.268 . S
C159 O165 1.268 . S
C159 O173 1.268 . S
C160 O166 1.268 . S
C160 O175 1.268 . S
C161 O167 1.268 . S
C161 O171 1.268 . S
C162 O168 1.268 . S
C162 O170 1.268 . S
C163 O169 1.268 . S
C163 O172 1.268 . S
O164 Sc154 2.105 . S
O164 C158 1.268 . S
O165 Sc155 2.105 . S
O165 C159 1.268 . S
O166 Sc156 2.105 . S
O166 C160 1.268 . S
O167 Sc154 2.105 . S
O167 C161 1.268 . S
O168 Sc156 2.105 . S
O168 C162 1.268 . S
O169 Sc155 2.105 . S
O169 C163 1.268 . S
O170 Sc154 2.105 . S
O170 C162 1.268 . S
O171 Sc155 2.105 . S
O171 C161 1.268 . S
O172 Sc156 2.105 . S
O172 C163 1.268 . S
O173 Sc154 2.105 . S
O173 C159 1.268 . S
O174 Sc156 2.105 . S
O174 C158 1.268 . S
O175 Sc155 2.105 . S
O175 C160 1.268 . S
Sc176 O179 2.025 . S
Sc176 O186 2.105 . S
Sc176 O189 2.105 . S
Sc176 O192 2.105 . S
Sc176 O195 2.105 . S
Sc177 O179 2.025 . S
Sc177 O187 2.105 . S
Sc177 O191 2.105 . S
Sc177 O193 2.105 . S
Sc177 O197 2.105 . S
Sc178 O179 2.025 . S
Sc178 O188 2.105 . S
Sc178 O190 2.105 . S
Sc178 O194 2.105 . S
Sc178 O196 2.105 . S
O179 Sc176 2.025 . S
O179 Sc177 2.025 . S
O179 Sc178 2.025 . S
C180 O186 1.268 . S
C180 O196 1.268 . S
C181 O187 1.268 . S
C181 O195 1.268 . S
C182 O188 1.268 . S
C182 O197 1.268 . S
C183 O189 1.268 . S
C183 O193 1.268 . S
C184 O190 1.268 . S
C184 O192 1.268 . S
C185 O191 1.268 . S
C185 O194 1.268 . S
O186 Sc176 2.105 . S
O186 C180 1.268 . S
O187 Sc177 2.105 . S
O187 C181 1.268 . S
O188 Sc178 2.105 . S
O188 C182 1.268 . S
O189 Sc176 2.105 . S
O189 C183 1.268 . S
O190 Sc178 2.105 . S
O190 C184 1.268 . S
O191 Sc177 2.105 . S
O191 C185 1.268 . S
O192 Sc176 2.105 . S
O192 C184 1.268 . S
O193 Sc177 2.105 . S
O193 C183 1.268 . S
O194 Sc178 2.105 . S
O194 C185 1.268 . S
O195 Sc176 2.105 . S
O195 C181 1.268 . S
O196 Sc178 2.105 . S
O196 C180 1.268 . S
O197 Sc177 2.105 . S
O197 C182 1.268 . S
Sc198 O201 2.025 . S
Sc198 O208 2.105 . S
Sc198 O211 2.105 . S
Sc198 O214 2.105 . S
Sc198 O217 2.105 . S
Sc199 O201 2.025 . S
Sc199 O209 2.105 . S
Sc199 O213 2.105 . S
Sc199 O215 2.105 . S
Sc199 O219 2.105 . S
Sc200 O201 2.025 . S
Sc200 O210 2.105 . S
Sc200 O212 2.105 . S
Sc200 O216 2.105 . S
Sc200 O218 2.105 . S
O201 Sc198 2.025 . S
O201 Sc199 2.025 . S
O201 Sc200 2.025 . S
C202 O208 1.268 . S
C202 O218 1.268 . S
C203 O209 1.268 . S
C203 O217 1.268 . S
C204 O210 1.268 . S
C204 O219 1.268 . S
C205 O211 1.268 . S
C205 O215 1.268 . S
C206 O212 1.268 . S
C206 O214 1.268 . S
C207 O213 1.268 . S
C207 O216 1.268 . S
O208 Sc198 2.105 . S
O208 C202 1.268 . S
O209 Sc199 2.105 . S
O209 C203 1.268 . S
O210 Sc200 2.105 . S
O210 C204 1.268 . S
O211 Sc198 2.105 . S
O211 C205 1.268 . S
O212 Sc200 2.105 . S
O212 C206 1.268 . S
O213 Sc199 2.105 . S
O213 C207 1.268 . S
O214 Sc198 2.105 . S
O214 C206 1.268 . S
O215 Sc199 2.105 . S
O215 C205 1.268 . S
O216 Sc200 2.105 . S
O216 C207 1.268 . S
O217 Sc198 2.105 . S
O217 C203 1.268 . S
O218 Sc200 2.105 . S
O218 C202 1.268 . S
O219 Sc199 2.105 . S
O219 C204 1.268 . S
Sc220 O223 2.025 . S
Sc220 O230 2.105 . S
Sc220 O233 2.105 . S
Sc220 O236 2.105 . S
Sc220 O239 2.105 . S
Sc221 O223 2.025 . S
Sc221 O231 2.105 . S
Sc221 O235 2.105 . S
Sc221 O237 2.105 . S
Sc221 O241 2.105 . S
Sc222 O223 2.025 . S
Sc222 O232 2.105 . S
Sc222 O234 2.105 . S
Sc222 O238 2.105 . S
Sc222 O240 2.105 . S
O223 Sc220 2.025 . S
O223 Sc221 2.025 . S
O223 Sc222 2.025 . S
C224 O230 1.268 . S
C224 O240 1.268 . S
C225 O231 1.268 . S
C225 O239 1.268 . S
C226 O232 1.268 . S
C226 O241 1.268 . S
C227 O233 1.268 . S
C227 O237 1.268 . S
C228 O234 1.268 . S
C228 O236 1.268 . S
C229 O235 1.268 . S
C229 O238 1.268 . S
O230 Sc220 2.105 . S
O230 C224 1.268 . S
O231 Sc221 2.105 . S
O231 C225 1.268 . S
O232 Sc222 2.105 . S
O232 C226 1.268 . S
O233 Sc220 2.105 . S
O233 C227 1.268 . S
O234 Sc222 2.105 . S
O234 C228 1.268 . S
O235 Sc221 2.105 . S
O235 C229 1.268 . S
O236 Sc220 2.105 . S
O236 C228 1.268 . S
O237 Sc221 2.105 . S
O237 C227 1.268 . S
O238 Sc222 2.105 . S
O238 C229 1.268 . S
O239 Sc220 2.105 . S
O239 C225 1.268 . S
O240 Sc222 2.105 . S
O240 C224 1.268 . S
O241 Sc221 2.105 . S
O241 C226 1.268 . S
Sc242 O245 2.025 . S
Sc242 O252 2.105 . S
Sc242 O255 2.105 . S
Sc242 O258 2.105 . S
Sc242 O261 2.105 . S
Sc243 O245 2.025 . S
Sc243 O253 2.105 . S
Sc243 O257 2.105 . S
Sc243 O259 2.105 . S
Sc243 O263 2.105 . S
Sc244 O245 2.025 . S
Sc244 O254 2.105 . S
Sc244 O256 2.105 . S
Sc244 O260 2.105 . S
Sc244 O262 2.105 . S
O245 Sc242 2.025 . S
O245 Sc243 2.025 . S
O245 Sc244 2.025 . S
C246 O252 1.268 . S
C246 O262 1.268 . S
C247 O253 1.268 . S
C247 O261 1.268 . S
C248 O254 1.268 . S
C248 O263 1.268 . S
C249 O255 1.268 . S
C249 O259 1.268 . S
C250 O256 1.268 . S
C250 O258 1.268 . S
C251 O257 1.268 . S
C251 O260 1.268 . S
O252 Sc242 2.105 . S
O252 C246 1.268 . S
O253 Sc243 2.105 . S
O253 C247 1.268 . S
O254 Sc244 2.105 . S
O254 C248 1.268 . S
O255 Sc242 2.105 . S
O255 C249 1.268 . S
O256 Sc244 2.105 . S
O256 C250 1.268 . S
O257 Sc243 2.105 . S
O257 C251 1.268 . S
O258 Sc242 2.105 . S
O258 C250 1.268 . S
O259 Sc243 2.105 . S
O259 C249 1.268 . S
O260 Sc244 2.105 . S
O260 C251 1.268 . S
O261 Sc242 2.105 . S
O261 C247 1.268 . S
O262 Sc244 2.105 . S
O262 C246 1.268 . S
O263 Sc243 2.105 . S
O263 C248 1.268 . S
Sc264 O267 2.025 . S
Sc264 O274 2.105 . S
Sc264 O277 2.105 . S
Sc264 O280 2.105 . S
Sc264 O283 2.105 . S
Sc265 O267 2.025 . S
Sc265 O275 2.105 . S
Sc265 O279 2.105 . S
Sc265 O281 2.105 . S
Sc265 O285 2.105 . S
Sc266 O267 2.025 . S
Sc266 O276 2.105 . S
Sc266 O278 2.105 . S
Sc266 O282 2.105 . S
Sc266 O284 2.105 . S
O267 Sc264 2.025 . S
O267 Sc265 2.025 . S
O267 Sc266 2.025 . S
C268 O274 1.268 . S
C268 O284 1.268 . S
C269 O275 1.268 . S
C269 O283 1.268 . S
C270 O276 1.268 . S
C270 O285 1.268 . S
C271 O277 1.268 . S
C271 O281 1.268 . S
C272 O278 1.268 . S
C272 O280 1.268 . S
C273 O279 1.268 . S
C273 O282 1.268 . S
O274 Sc264 2.105 . S
O274 C268 1.268 . S
O275 Sc265 2.105 . S
O275 C269 1.268 . S
O276 Sc266 2.105 . S
O276 C270 1.268 . S
O277 Sc264 2.105 . S
O277 C271 1.268 . S
O278 Sc266 2.105 . S
O278 C272 1.268 . S
O279 Sc265 2.105 . S
O279 C273 1.268 . S
O280 Sc264 2.105 . S
O280 C272 1.268 . S
O281 Sc265 2.105 . S
O281 C271 1.268 . S
O282 Sc266 2.105 . S
O282 C273 1.268 . S
O283 Sc264 2.105 . S
O283 C269 1.268 . S
O284 Sc266 2.105 . S
O284 C268 1.268 . S
O285 Sc265 2.105 . S
O285 C270 1.268 . S
Sc286 O289 2.025 . S
Sc286 O296 2.105 . S
Sc286 O299 2.105 . S
Sc286 O302 2.105 . S
Sc286 O305 2.105 . S
Sc287 O289 2.025 . S
Sc287 O297 2.105 . S
Sc287 O301 2.105 . S
Sc287 O303 2.105 . S
Sc287 O307 2.105 . S
Sc288 O289 2.025 . S
Sc288 O298 2.105 . S
Sc288 O300 2.105 . S
Sc288 O304 2.105 . S
Sc288 O306 2.105 . S
O289 Sc286 2.025 . S
O289 Sc287 2.025 . S
O289 Sc288 2.025 . S
C290 O296 1.268 . S
C290 O306 1.268 . S
C291 O297 1.268 . S
C291 O305 1.268 . S
C292 O298 1.268 . S
C292 O307 1.268 . S
C293 O299 1.268 . S
C293 O303 1.268 . S
C294 O300 1.268 . S
C294 O302 1.268 . S
C295 O301 1.268 . S
C295 O304 1.268 . S
O296 Sc286 2.105 . S
O296 C290 1.268 . S
O297 Sc287 2.105 . S
O297 C291 1.268 . S
O298 Sc288 2.105 . S
O298 C292 1.268 . S
O299 Sc286 2.105 . S
O299 C293 1.268 . S
O300 Sc288 2.105 . S
O300 C294 1.268 . S
O301 Sc287 2.105 . S
O301 C295 1.268 . S
O302 Sc286 2.105 . S
O302 C294 1.268 . S
O303 Sc287 2.105 . S
O303 C293 1.268 . S
O304 Sc288 2.105 . S
O304 C295 1.268 . S
O305 Sc286 2.105 . S
O305 C291 1.268 . S
O306 Sc288 2.105 . S
O306 C290 1.268 . S
O307 Sc287 2.105 . S
O307 C292 1.268 . S
Sc308 O311 2.025 . S
Sc308 O318 2.105 . S
Sc308 O321 2.105 . S
Sc308 O324 2.105 . S
Sc308 O327 2.105 . S
Sc309 O311 2.025 . S
Sc309 O319 2.105 . S
Sc309 O323 2.105 . S
Sc309 O325 2.105 . S
Sc309 O329 2.105 . S
Sc310 O311 2.025 . S
Sc310 O320 2.105 . S
Sc310 O322 2.105 . S
Sc310 O326 2.105 . S
Sc310 O328 2.105 . S
O311 Sc308 2.025 . S
O311 Sc309 2.025 . S
O311 Sc310 2.025 . S
C312 O318 1.268 . S
C312 O328 1.268 . S
C313 O319 1.268 . S
C313 O327 1.268 . S
C314 O320 1.268 . S
C314 O329 1.268 . S
C315 O321 1.268 . S
C315 O325 1.268 . S
C316 O322 1.268 . S
C316 O324 1.268 . S
C317 O323 1.268 . S
C317 O326 1.268 . S
O318 Sc308 2.105 . S
O318 C312 1.268 . S
O319 Sc309 2.105 . S
O319 C313 1.268 . S
O320 Sc310 2.105 . S
O320 C314 1.268 . S
O321 Sc308 2.105 . S
O321 C315 1.268 . S
O322 Sc310 2.105 . S
O322 C316 1.268 . S
O323 Sc309 2.105 . S
O323 C317 1.268 . S
O324 Sc308 2.105 . S
O324 C316 1.268 . S
O325 Sc309 2.105 . S
O325 C315 1.268 . S
O326 Sc310 2.105 . S
O326 C317 1.268 . S
O327 Sc308 2.105 . S
O327 C313 1.268 . S
O328 Sc310 2.105 . S
O328 C312 1.268 . S
O329 Sc309 2.105 . S
O329 C314 1.268 . S
Sc330 O333 2.025 . S
Sc330 O340 2.105 . S
Sc330 O343 2.105 . S
Sc330 O346 2.105 . S
Sc330 O349 2.105 . S
Sc331 O333 2.025 . S
Sc331 O341 2.105 . S
Sc331 O345 2.105 . S
Sc331 O347 2.105 . S
Sc331 O351 2.105 . S
Sc332 O333 2.025 . S
Sc332 O342 2.105 . S
Sc332 O344 2.105 . S
Sc332 O348 2.105 . S
Sc332 O350 2.105 . S
O333 Sc330 2.025 . S
O333 Sc331 2.025 . S
O333 Sc332 2.025 . S
C334 O340 1.268 . S
C334 O350 1.268 . S
C335 O341 1.268 . S
C335 O349 1.268 . S
C336 O342 1.268 . S
C336 O351 1.268 . S
C337 O343 1.268 . S
C337 O347 1.268 . S
C338 O344 1.268 . S
C338 O346 1.268 . S
C339 O345 1.268 . S
C339 O348 1.268 . S
O340 Sc330 2.105 . S
O340 C334 1.268 . S
O341 Sc331 2.105 . S
O341 C335 1.268 . S
O342 Sc332 2.105 . S
O342 C336 1.268 . S
O343 Sc330 2.105 . S
O343 C337 1.268 . S
O344 Sc332 2.105 . S
O344 C338 1.268 . S
O345 Sc331 2.105 . S
O345 C339 1.268 . S
O346 Sc330 2.105 . S
O346 C338 1.268 . S
O347 Sc331 2.105 . S
O347 C337 1.268 . S
O348 Sc332 2.105 . S
O348 C339 1.268 . S
O349 Sc330 2.105 . S
O349 C335 1.268 . S
O350 Sc332 2.105 . S
O350 C334 1.268 . S
O351 Sc331 2.105 . S
O351 C336 1.268 . S
H352 C370 0.951 . S
H353 C372 0.951 . S
H354 C374 0.950 . S
H355 C375 0.950 . S
H356 C377 0.950 1_556 S
H357 C380 0.950 . S
H358 C381 0.950 . S
H359 C383 0.950 . S
H360 C384 0.950 . S
H361 C385 0.951 . S
H362 C387 0.951 . S
H363 C389 0.950 1_554 S
H364 C390 0.950 . S
H365 C392 0.950 1_565 S
H366 C395 0.950 . S
H367 C396 0.950 . S
H368 C398 0.950 . S
H369 C399 0.950 . S
C370 H352 0.951 . S
C370 C371 1.366 . S
C370 C372 1.388 . S
C371 C370 1.366 . S
C371 C375 1.385 . S
C372 H353 0.951 . S
C372 C370 1.388 . S
C372 C373 1.366 . S
C373 C372 1.366 . S
C373 C374 1.414 . S
C373 C376 1.499 . S
C374 H354 0.950 . S
C374 C373 1.414 . S
C374 C375 1.374 . S
C375 H355 0.950 . S
C375 C371 1.385 . S
C375 C374 1.374 . S
C376 C373 1.499 . S
C376 C377 1.373 . S
C376 C378 1.389 . S
C377 H356 0.950 1_554 S
C377 C376 1.373 . S
C377 C393 1.377 1_554 S
C378 C376 1.389 . S
C378 C379 1.524 . S
C378 C392 1.377 . S
C379 C378 1.524 . S
C379 C380 1.397 . S
C379 C384 1.363 . S
C380 H357 0.950 . S
C380 C379 1.397 . S
C380 C381 1.334 . S
C381 H358 0.950 . S
C381 C380 1.334 . S
C381 C382 1.287 . S
C382 C381 1.287 . S
C382 C383 1.524 . S
C382 H401 0.913 . S
C383 H359 0.950 . S
C383 C382 1.524 . S
C383 C384 1.415 . S
C384 H360 0.950 . S
C384 C379 1.363 . S
C384 C383 1.415 . S
C385 H361 0.951 . S
C385 C386 1.366 . S
C385 C387 1.388 . S
C386 C385 1.366 . S
C386 C390 1.385 . S
C387 H362 0.951 . S
C387 C385 1.388 . S
C387 C388 1.366 . S
C388 C387 1.366 . S
C388 C389 1.414 . S
C388 C391 1.499 1_566 S
C389 H363 0.950 1_556 S
C389 C388 1.414 . S
C389 C390 1.374 . S
C390 H364 0.950 . S
C390 C386 1.385 . S
C390 C389 1.374 . S
C391 C388 1.499 1_544 S
C391 C392 1.373 . S
C391 C393 1.389 1_554 S
C392 H365 0.950 1_545 S
C392 C378 1.377 . S
C392 C391 1.373 . S
C393 C377 1.377 1_556 S
C393 C391 1.389 1_556 S
C393 C394 1.524 . S
C394 C393 1.524 . S
C394 C395 1.397 . S
C394 C399 1.363 . S
C395 H366 0.950 . S
C395 C394 1.397 . S
C395 C396 1.334 . S
C396 H367 0.950 . S
C396 C395 1.334 . S
C396 C397 1.287 . S
C397 C396 1.287 . S
C397 C398 1.524 . S
C397 H400 0.999 . S
C398 H368 0.950 . S
C398 C397 1.524 . S
C398 C399 1.415 . S
C399 H369 0.950 . S
C399 C394 1.363 . S
C399 C398 1.415 . S
H400 C397 0.999 . S
H401 C382 0.913 . S
H402 C420 0.951 . S
H403 C422 0.951 . S
H404 C424 0.935 1_554 S
H405 C425 0.950 . S
H406 C427 0.950 1_556 S
H407 C430 0.950 . S
H408 C431 0.950 . S
H409 C433 0.950 . S
H410 C434 0.950 . S
H411 C435 0.951 . S
H412 C437 0.951 . S
H413 C439 0.950 . S
H414 C440 0.950 . S
H415 C442 0.950 . S
H416 C445 0.950 1_556 S
H417 C446 0.950 . S
H418 C448 0.950 . S
H419 C449 0.950 . S
C420 H402 0.951 . S
C420 C421 1.366 . S
C420 C422 1.388 . S
C421 C420 1.366 . S
C421 C425 1.385 . S
C422 H403 0.951 . S
C422 C420 1.388 . S
C422 C423 1.366 . S
C423 C422 1.366 . S
C423 C424 1.414 . S
C423 C426 1.499 1_546 S
C424 H404 0.935 1_556 S
C424 C423 1.414 . S
C424 C425 1.374 . S
C425 H405 0.950 . S
C425 C421 1.385 . S
C425 C424 1.374 . S
C426 C423 1.499 1_564 S
C426 C427 1.373 . S
C426 C428 1.389 . S
C427 H406 0.950 1_554 S
C427 C426 1.373 . S
C427 C443 1.377 . S
C428 C426 1.389 . S
C428 C429 1.530 . S
C428 C442 1.377 . S
C429 C428 1.530 . S
C429 C430 1.388 1_565 S
C429 C434 1.366 . S
C430 H407 0.950 . S
C430 C429 1.388 1_545 S
C430 C431 1.334 . S
C431 H408 0.950 . S
C431 C430 1.334 . S
C431 C432 1.287 . S
C432 C431 1.287 . S
C432 C433 1.524 . S
C432 H451 0.913 . S
C433 H409 0.950 . S
C433 C432 1.524 . S
C433 C434 1.415 1_545 S
C434 H410 0.950 . S
C434 C429 1.366 . S
C434 C433 1.415 1_565 S
C435 H411 0.951 . S
C435 C436 1.366 . S
C435 C437 1.388 . S
C436 C435 1.366 . S
C436 C440 1.385 . S
C437 H412 0.951 . S
C437 C435 1.388 . S
C437 C438 1.366 . S
C438 C437 1.366 . S
C438 C439 1.414 . S
C438 C441 1.499 . S
C439 H413 0.950 . S
C439 C438 1.414 . S
C439 C440 1.374 . S
C440 H414 0.950 . S
C440 C436 1.385 . S
C440 C439 1.374 . S
C441 C438 1.499 . S
C441 C442 1.373 . S
C441 C443 1.389 . S
C442 H415 0.950 . S
C442 C428 1.377 . S
C442 C441 1.373 . S
C443 C427 1.377 . S
C443 C441 1.389 . S
C443 C444 1.524 . S
C444 C443 1.524 . S
C444 C445 1.397 . S
C444 C449 1.363 . S
C445 H416 0.950 1_554 S
C445 C444 1.397 . S
C445 C446 1.334 1_554 S
C446 H417 0.950 . S
C446 C445 1.334 1_556 S
C446 C447 1.284 1_556 S
C447 C446 1.284 1_554 S
C447 C448 1.533 . S
C447 H450 0.996 1_554 S
C448 H418 0.950 . S
C448 C447 1.533 . S
C448 C449 1.415 . S
C449 H419 0.950 . S
C449 C444 1.363 . S
C449 C448 1.415 . S
H450 C447 0.996 1_556 S
H451 C432 0.913 . S
H452 C470 0.951 . S
H453 C472 0.951 . S
H454 C474 0.950 . S
H455 C475 0.950 . S
H456 C477 0.950 . S
H457 C480 0.950 . S
H458 C481 0.950 . S
H459 C483 0.950 . S
H460 C484 0.950 . S
H461 C485 0.951 . S
H462 C487 0.951 . S
H463 C489 0.950 . S
H464 C490 0.950 . S
H465 C492 0.950 . S
H466 C495 0.950 . S
H467 C496 0.950 . S
H468 C498 0.950 . S
H469 C499 0.950 . S
C470 H452 0.951 . S
C470 C471 1.366 . S
C470 C472 1.388 . S
C471 C470 1.366 . S
C471 C475 1.385 . S
C472 H453 0.951 . S
C472 C470 1.388 . S
C472 C473 1.366 . S
C473 C472 1.366 . S
C473 C474 1.414 . S
C473 C476 1.499 1_545 S
C474 H454 0.950 . S
C474 C473 1.414 . S
C474 C475 1.374 . S
C475 H455 0.950 . S
C475 C471 1.385 . S
C475 C474 1.374 . S
C476 C473 1.499 1_565 S
C476 C477 1.373 . S
C476 C478 1.389 . S
C477 H456 0.950 . S
C477 C476 1.373 . S
C477 C493 1.377 . S
C478 C476 1.389 . S
C478 C479 1.524 . S
C478 C492 1.377 . S
C479 C478 1.524 . S
C479 C480 1.397 . S
C479 C484 1.363 . S
C480 H457 0.950 . S
C480 C479 1.397 . S
C480 C481 1.334 . S
C481 H458 0.950 . S
C481 C480 1.334 . S
C481 C482 1.287 . S
C482 C481 1.287 . S
C482 C483 1.524 . S
C482 H501 0.913 . S
C483 H459 0.950 . S
C483 C482 1.524 . S
C483 C484 1.415 . S
C484 H460 0.950 . S
C484 C479 1.363 . S
C484 C483 1.415 . S
C485 H461 0.951 . S
C485 C486 1.366 . S
C485 C487 1.388 . S
C486 C485 1.366 . S
C486 C490 1.385 . S
C487 H462 0.951 . S
C487 C485 1.388 . S
C487 C488 1.366 . S
C488 C487 1.366 . S
C488 C489 1.414 . S
C488 C491 1.499 . S
C489 H463 0.950 . S
C489 C488 1.414 . S
C489 C490 1.374 . S
C490 H464 0.950 . S
C490 C486 1.385 . S
C490 C489 1.374 . S
C491 C488 1.499 . S
C491 C492 1.373 . S
C491 C493 1.389 . S
C492 H465 0.950 . S
C492 C478 1.377 . S
C492 C491 1.373 . S
C493 C477 1.377 . S
C493 C491 1.389 . S
C493 C494 1.524 . S
C494 C493 1.524 . S
C494 C495 1.397 . S
C494 C499 1.363 . S
C495 H466 0.950 . S
C495 C494 1.397 . S
C495 C496 1.334 . S
C496 H467 0.950 . S
C496 C495 1.334 . S
C496 C497 1.287 . S
C497 C496 1.287 . S
C497 C498 1.524 . S
C497 H500 0.999 . S
C498 H468 0.950 . S
C498 C497 1.524 . S
C498 C499 1.415 . S
C499 H469 0.950 . S
C499 C494 1.363 . S
C499 C498 1.415 . S
H500 C497 0.999 . S
H501 C482 0.913 . S
H502 C520 0.951 . S
H503 C522 0.951 . S
H504 C524 0.950 . S
H505 C525 0.950 . S
H506 C527 0.950 . S
H507 C530 0.950 . S
H508 C531 0.950 . S
H509 C533 0.955 . S
H510 C534 0.950 . S
H511 C535 0.951 . S
H512 C537 0.951 . S
H513 C539 0.950 . S
H514 C540 0.950 . S
H515 C542 0.950 . S
H516 C545 0.950 . S
H517 C546 0.950 . S
H518 C548 0.950 . S
H519 C549 0.950 . S
C520 H502 0.951 . S
C520 C521 1.366 . S
C520 C522 1.388 . S
C521 C520 1.366 . S
C521 C525 1.385 . S
C522 H503 0.951 . S
C522 C520 1.388 . S
C522 C523 1.366 . S
C523 C522 1.366 . S
C523 C524 1.414 . S
C523 C526 1.499 1_565 S
C524 H504 0.950 . S
C524 C523 1.414 . S
C524 C525 1.374 . S
C525 H505 0.950 . S
C525 C521 1.385 . S
C525 C524 1.374 . S
C526 C523 1.499 1_545 S
C526 C527 1.373 . S
C526 C528 1.389 . S
C527 H506 0.950 . S
C527 C526 1.373 . S
C527 C543 1.377 . S
C528 C526 1.389 . S
C528 C529 1.524 . S
C528 C542 1.377 . S
C529 C528 1.524 . S
C529 C530 1.397 . S
C529 C534 1.363 . S
C530 H507 0.950 . S
C530 C529 1.397 . S
C530 C531 1.334 . S
C531 H508 0.950 . S
C531 C530 1.334 . S
C531 C532 1.287 . S
C532 C531 1.287 . S
C532 C533 1.524 . S
C532 H551 0.913 1_545 S
C533 H509 0.955 . S
C533 C532 1.524 . S
C533 C534 1.415 . S
C534 H510 0.950 . S
C534 C529 1.363 . S
C534 C533 1.415 . S
C535 H511 0.951 . S
C535 C536 1.366 . S
C535 C537 1.388 . S
C536 C535 1.366 . S
C536 C540 1.385 . S
C537 H512 0.951 . S
C537 C535 1.388 . S
C537 C538 1.366 . S
C538 C537 1.366 . S
C538 C539 1.414 . S
C538 C541 1.499 . S
C539 H513 0.950 . S
C539 C538 1.414 . S
C539 C540 1.374 . S
C540 H514 0.950 . S
C540 C536 1.385 . S
C540 C539 1.374 . S
C541 C538 1.499 . S
C541 C542 1.373 . S
C541 C543 1.389 . S
C542 H515 0.950 . S
C542 C528 1.377 . S
C542 C541 1.373 . S
C543 C527 1.377 . S
C543 C541 1.389 . S
C543 C544 1.524 . S
C544 C543 1.524 . S
C544 C545 1.397 . S
C544 C549 1.363 . S
C545 H516 0.950 . S
C545 C544 1.397 . S
C545 C546 1.334 . S
C546 H517 0.950 . S
C546 C545 1.334 . S
C546 C547 1.287 . S
C547 C546 1.287 . S
C547 C548 1.524 . S
C547 H550 0.999 . S
C548 H518 0.950 . S
C548 C547 1.524 . S
C548 C549 1.415 . S
C549 H519 0.950 . S
C549 C544 1.363 . S
C549 C548 1.415 . S
H550 C547 0.999 . S
H551 C532 0.913 1_565 S
H552 C570 0.951 . S
H553 C572 0.951 . S
H554 C574 0.950 . S
H555 C575 0.950 . S
H556 C577 0.950 1_545 S
H557 C580 0.950 . S
H558 C581 0.950 . S
H559 C583 0.950 . S
H560 C584 0.950 . S
H561 C585 0.951 . S
H562 C587 0.951 . S
H563 C589 0.950 . S
H564 C590 0.950 . S
H565 C592 0.950 . S
H566 C595 0.950 . S
H567 C596 0.950 . S
H568 C598 0.950 . S
H569 C599 0.950 . S
C570 H552 0.951 . S
C570 C571 1.366 . S
C570 C572 1.388 . S
C571 C570 1.366 . S
C571 C575 1.385 . S
C572 H553 0.951 . S
C572 C570 1.388 . S
C572 C573 1.366 . S
C573 C572 1.366 . S
C573 C574 1.414 . S
C573 C576 1.482 1_544 S
C574 H554 0.950 . S
C574 C573 1.414 . S
C574 C575 1.374 . S
C575 H555 0.950 . S
C575 C571 1.385 . S
C575 C574 1.374 . S
C576 C573 1.482 1_566 S
C576 C577 1.402 . S
C576 C578 1.381 1_556 S
C577 H556 0.950 1_565 S
C577 C576 1.402 . S
C577 C593 1.377 . S
C578 C576 1.381 1_554 S
C578 C579 1.524 . S
C578 C592 1.377 1_554 S
C579 C578 1.524 . S
C579 C580 1.397 . S
C579 C584 1.363 . S
C580 H557 0.950 . S
C580 C579 1.397 . S
C580 C581 1.334 . S
C581 H558 0.950 . S
C581 C580 1.334 . S
C581 C582 1.287 . S
C582 C581 1.287 . S
C582 C583 1.524 . S
C582 H601 0.913 . S
C583 H559 0.950 . S
C583 C582 1.524 . S
C583 C584 1.415 . S
C584 H560 0.950 . S
C584 C579 1.363 . S
C584 C583 1.415 . S
C585 H561 0.951 . S
C585 C586 1.366 . S
C585 C587 1.388 . S
C586 C585 1.366 . S
C586 C590 1.385 . S
C587 H562 0.951 . S
C587 C585 1.388 . S
C587 C588 1.366 . S
C588 C587 1.366 . S
C588 C589 1.414 . S
C588 C591 1.499 . S
C589 H563 0.950 . S
C589 C588 1.414 . S
C589 C590 1.374 . S
C590 H564 0.950 . S
C590 C586 1.385 . S
C590 C589 1.374 . S
C591 C588 1.499 . S
C591 C592 1.373 . S
C591 C593 1.389 . S
C592 H565 0.950 . S
C592 C578 1.377 1_556 S
C592 C591 1.373 . S
C593 C577 1.377 . S
C593 C591 1.389 . S
C593 C594 1.524 . S
C594 C593 1.524 . S
C594 C595 1.397 . S
C594 C599 1.363 . S
C595 H566 0.950 . S
C595 C594 1.397 . S
C595 C596 1.334 . S
C596 H567 0.950 . S
C596 C595 1.334 . S
C596 C597 1.287 . S
C597 C596 1.287 . S
C597 C598 1.524 . S
C597 H600 0.999 . S
C598 H568 0.950 . S
C598 C597 1.524 . S
C598 C599 1.415 . S
C599 H569 0.950 . S
C599 C594 1.363 . S
C599 C598 1.415 . S
H600 C597 0.999 . S
H601 C582 0.913 . S
H602 C620 0.951 . S
H603 C622 0.951 . S
H604 C624 0.950 . S
H605 C625 0.950 . S
H606 C627 0.950 . S
H607 C630 0.950 . S
H608 C631 0.950 . S
H609 C633 0.950 . S
H610 C634 0.950 . S
H611 C635 0.951 . S
H612 C637 0.951 . S
H613 C639 0.950 . S
H614 C640 0.950 . S
H615 C642 0.950 1_565 S
H616 C645 0.950 . S
H617 C646 0.950 . S
H618 C648 0.950 . S
H619 C649 0.950 . S
C620 H602 0.951 . S
C620 C621 1.366 . S
C620 C622 1.388 . S
C621 C620 1.366 . S
C621 C625 1.385 . S
C622 H603 0.951 . S
C622 C620 1.388 . S
C622 C623 1.366 . S
C623 C622 1.366 . S
C623 C624 1.414 . S
C623 C626 1.499 . S
C624 H604 0.950 . S
C624 C623 1.414 . S
C624 C625 1.374 . S
C625 H605 0.950 . S
C625 C621 1.385 . S
C625 C624 1.374 . S
C626 C623 1.499 . S
C626 C627 1.373 . S
C626 C628 1.389 . S
C627 H606 0.950 . S
C627 C626 1.373 . S
C627 C643 1.377 1_556 S
C628 C626 1.389 . S
C628 C629 1.524 . S
C628 C642 1.377 . S
C629 C628 1.524 . S
C629 C630 1.397 . S
C629 C634 1.363 . S
C630 H607 0.950 . S
C630 C629 1.397 . S
C630 C631 1.334 . S
C631 H608 0.950 . S
C631 C630 1.334 . S
C631 C632 1.287 . S
C632 C631 1.287 . S
C632 C633 1.524 . S
C632 H651 0.913 . S
C633 H609 0.950 . S
C633 C632 1.524 . S
C633 C634 1.415 . S
C634 H610 0.950 . S
C634 C629 1.363 . S
C634 C633 1.415 . S
C635 H611 0.951 . S
C635 C636 1.366 . S
C635 C637 1.388 . S
C636 C635 1.366 . S
C636 C640 1.385 . S
C637 H612 0.951 . S
C637 C635 1.388 . S
C637 C638 1.366 . S
C638 C637 1.366 . S
C638 C639 1.414 . S
C638 C641 1.485 1_564 S
C639 H613 0.950 . S
C639 C638 1.414 . S
C639 C640 1.374 . S
C640 H614 0.950 . S
C640 C636 1.385 . S
C640 C639 1.374 . S
C641 C638 1.485 1_546 S
C641 C642 1.394 . S
C641 C643 1.385 1_556 S
C642 H615 0.950 1_545 S
C642 C628 1.377 . S
C642 C641 1.394 . S
C643 C627 1.377 1_554 S
C643 C641 1.385 1_554 S
C643 C644 1.524 . S
C644 C643 1.524 . S
C644 C645 1.397 . S
C644 C649 1.363 . S
C645 H616 0.950 . S
C645 C644 1.397 . S
C645 C646 1.334 . S
C646 H617 0.950 . S
C646 C645 1.334 . S
C646 C647 1.287 . S
C647 C646 1.287 . S
C647 C648 1.524 . S
C647 H650 0.999 . S
C648 H618 0.950 . S
C648 C647 1.524 . S
C648 C649 1.415 . S
C649 H619 0.950 . S
C649 C644 1.363 . S
C649 C648 1.415 . S
H650 C647 0.999 . S
H651 C632 0.913 . S
H652 C670 0.951 . S
H653 C672 0.951 . S
H654 C674 0.950 . S
H655 C675 0.950 . S
H656 C677 0.950 . S
H657 C680 0.950 . S
H658 C681 0.950 . S
H659 C683 0.950 . S
H660 C684 0.950 1_545 S
H661 C685 0.951 . S
H662 C687 0.951 . S
H663 C689 0.950 . S
H664 C690 0.950 . S
H665 C692 0.950 . S
H666 C695 0.950 . S
H667 C696 0.950 . S
H668 C698 0.950 . S
H669 C699 0.950 . S
C670 H652 0.951 . S
C670 C671 1.366 . S
C670 C672 1.388 . S
C671 C670 1.366 . S
C671 C675 1.385 . S
C672 H653 0.951 . S
C672 C670 1.388 . S
C672 C673 1.366 . S
C673 C672 1.366 . S
C673 C674 1.414 . S
C673 C676 1.499 1_565 S
C674 H654 0.950 . S
C674 C673 1.414 . S
C674 C675 1.374 . S
C675 H655 0.950 . S
C675 C671 1.385 . S
C675 C674 1.374 . S
C676 C673 1.499 1_545 S
C676 C677 1.373 . S
C676 C678 1.389 . S
C677 H656 0.950 . S
C677 C676 1.373 . S
C677 C693 1.377 . S
C678 C676 1.389 . S
C678 C679 1.524 1_545 S
C678 C692 1.377 . S
C679 C678 1.524 1_565 S
C679 C680 1.397 . S
C679 C684 1.363 . S
C680 H657 0.950 . S
C680 C679 1.397 . S
C680 C681 1.334 . S
C681 H658 0.950 . S
C681 C680 1.334 . S
C681 C682 1.287 . S
C682 C681 1.287 . S
C682 C683 1.524 . S
C682 H701 0.913 . S
C683 H659 0.950 . S
C683 C682 1.524 . S
C683 C684 1.415 . S
C684 H660 0.950 1_565 S
C684 C679 1.363 . S
C684 C683 1.415 . S
C685 H661 0.951 . S
C685 C686 1.366 . S
C685 C687 1.388 . S
C686 C685 1.366 . S
C686 C690 1.385 . S
C687 H662 0.951 . S
C687 C685 1.388 . S
C687 C688 1.366 . S
C688 C687 1.366 . S
C688 C689 1.414 . S
C688 C691 1.499 . S
C689 H663 0.950 . S
C689 C688 1.414 . S
C689 C690 1.374 . S
C690 H664 0.950 . S
C690 C686 1.385 . S
C690 C689 1.374 . S
C691 C688 1.499 . S
C691 C692 1.373 . S
C691 C693 1.389 . S
C692 H665 0.950 . S
C692 C678 1.377 . S
C692 C691 1.373 . S
C693 C677 1.377 . S
C693 C691 1.389 . S
C693 C694 1.524 . S
C694 C693 1.524 . S
C694 C695 1.397 . S
C694 C699 1.363 . S
C695 H666 0.950 . S
C695 C694 1.397 . S
C695 C696 1.334 . S
C696 H667 0.950 . S
C696 C695 1.334 . S
C696 C697 1.287 . S
C697 C696 1.287 . S
C697 C698 1.524 . S
C697 H700 0.999 . S
C698 H668 0.950 . S
C698 C697 1.524 . S
C698 C699 1.415 . S
C699 H669 0.950 . S
C699 C694 1.363 . S
C699 C698 1.415 . S
H700 C697 0.999 . S
H701 C682 0.913 . S
H702 C720 0.951 . S
H703 C722 0.951 . S
H704 C724 0.950 . S
H705 C725 0.950 . S
H706 C727 0.950 . S
H707 C730 0.950 . S
H708 C731 0.950 . S
H709 C733 0.950 . S
H710 C734 0.950 . S
H711 C735 0.951 . S
H712 C737 0.951 . S
H713 C739 0.950 . S
H714 C740 0.950 . S
H715 C742 0.950 . S
H716 C745 0.950 . S
H717 C746 0.950 . S
H718 C748 0.950 . S
H719 C749 0.950 . S
C720 H702 0.951 . S
C720 C721 1.366 . S
C720 C722 1.388 . S
C721 C720 1.366 . S
C721 C725 1.385 . S
C722 H703 0.951 . S
C722 C720 1.388 . S
C722 C723 1.366 . S
C723 C722 1.366 . S
C723 C724 1.414 . S
C723 C726 1.499 . S
C724 H704 0.950 . S
C724 C723 1.414 . S
C724 C725 1.374 . S
C725 H705 0.950 . S
C725 C721 1.385 . S
C725 C724 1.374 . S
C726 C723 1.499 . S
C726 C727 1.373 . S
C726 C728 1.389 . S
C727 H706 0.950 . S
C727 C726 1.373 . S
C727 C743 1.377 . S
C728 C726 1.389 . S
C728 C729 1.524 . S
C728 C742 1.377 . S
C729 C728 1.524 . S
C729 C730 1.397 . S
C729 C734 1.363 . S
C730 H707 0.950 . S
C730 C729 1.397 . S
C730 C731 1.334 . S
C731 H708 0.950 . S
C731 C730 1.334 . S
C731 C732 1.287 . S
C732 C731 1.287 . S
C732 C733 1.524 . S
C732 H751 0.913 . S
C733 H709 0.950 . S
C733 C732 1.524 . S
C733 C734 1.415 . S
C734 H710 0.950 . S
C734 C729 1.363 . S
C734 C733 1.415 . S
C735 H711 0.951 . S
C735 C736 1.366 . S
C735 C737 1.388 . S
C736 C735 1.366 . S
C736 C740 1.385 . S
C737 H712 0.951 . S
C737 C735 1.388 . S
C737 C738 1.366 . S
C738 C737 1.366 . S
C738 C739 1.414 . S
C738 C741 1.499 1_545 S
C739 H713 0.950 . S
C739 C738 1.414 . S
C739 C740 1.374 . S
C740 H714 0.950 . S
C740 C736 1.385 . S
C740 C739 1.374 . S
C741 C738 1.499 1_565 S
C741 C742 1.373 . S
C741 C743 1.389 . S
C742 H715 0.950 . S
C742 C728 1.377 . S
C742 C741 1.373 . S
C743 C727 1.377 . S
C743 C741 1.389 . S
C743 C744 1.524 1_565 S
C744 C743 1.524 1_545 S
C744 C745 1.397 . S
C744 C749 1.363 . S
C745 H716 0.950 . S
C745 C744 1.397 . S
C745 C746 1.334 . S
C746 H717 0.950 . S
C746 C745 1.334 . S
C746 C747 1.287 . S
C747 C746 1.287 . S
C747 C748 1.524 . S
C747 H750 0.999 . S
C748 H718 0.950 . S
C748 C747 1.524 . S
C748 C749 1.415 . S
C749 H719 0.950 . S
C749 C744 1.363 . S
C749 C748 1.415 . S
H750 C747 0.999 . S
H751 C732 0.913 . S
H752 C770 0.951 . S
H753 C772 0.951 1_554 S
H754 C774 0.950 . S
H755 C775 0.950 . S
H756 C777 0.950 . S
H757 C780 0.950 . S
H758 C781 0.950 . S
H759 C783 0.950 . S
H760 C784 0.950 . S
H761 C785 0.951 . S
H762 C787 0.951 . S
H763 C789 0.950 . S
H764 C790 0.950 . S
H765 C792 0.950 . S
H766 C795 0.950 1_554 S
H767 C796 0.950 . S
H768 C798 0.950 . S
H769 C799 0.950 . S
C770 H752 0.951 . S
C770 C771 1.366 . S
C770 C772 1.388 . S
C771 C770 1.366 . S
C771 C775 1.385 . S
C772 H753 0.951 1_556 S
C772 C770 1.388 . S
C772 C773 1.366 . S
C773 C772 1.366 . S
C773 C774 1.414 . S
C773 C776 1.499 1_556 S
C774 H754 0.950 . S
C774 C773 1.414 . S
C774 C775 1.374 . S
C775 H755 0.950 . S
C775 C771 1.385 . S
C775 C774 1.374 . S
C776 C773 1.499 1_554 S
C776 C777 1.373 1_554 S
C776 C778 1.389 . S
C777 H756 0.950 . S
C777 C776 1.373 1_556 S
C777 C793 1.377 1_556 S
C778 C776 1.389 . S
C778 C779 1.524 . S
C778 C792 1.377 . S
C779 C778 1.524 . S
C779 C780 1.397 . S
C779 C784 1.363 . S
C780 H757 0.950 . S
C780 C779 1.397 . S
C780 C781 1.334 . S
C781 H758 0.950 . S
C781 C780 1.334 . S
C781 C782 1.287 . S
C782 C781 1.287 . S
C782 C783 1.524 . S
C782 H801 0.913 . S
C783 H759 0.950 . S
C783 C782 1.524 . S
C783 C784 1.415 . S
C784 H760 0.950 . S
C784 C779 1.363 . S
C784 C783 1.415 . S
C785 H761 0.951 . S
C785 C786 1.366 . S
C785 C787 1.388 . S
C786 C785 1.366 . S
C786 C790 1.385 . S
C787 H762 0.951 . S
C787 C785 1.388 . S
C787 C788 1.366 . S
C788 C787 1.366 . S
C788 C789 1.414 . S
C788 C791 1.499 . S
C789 H763 0.950 . S
C789 C788 1.414 . S
C789 C790 1.374 . S
C790 H764 0.950 . S
C790 C786 1.385 . S
C790 C789 1.374 . S
C791 C788 1.499 . S
C791 C792 1.373 . S
C791 C793 1.389 . S
C792 H765 0.950 . S
C792 C778 1.377 . S
C792 C791 1.373 . S
C793 C777 1.377 1_554 S
C793 C791 1.389 . S
C793 C794 1.524 1_554 S
C794 C793 1.524 1_556 S
C794 C795 1.397 . S
C794 C799 1.363 . S
C795 H766 0.950 1_556 S
C795 C794 1.397 . S
C795 C796 1.334 . S
C796 H767 0.950 . S
C796 C795 1.334 . S
C796 C797 1.287 . S
C797 C796 1.287 . S
C797 C798 1.524 . S
C797 H800 0.999 . S
C798 H768 0.950 . S
C798 C797 1.524 . S
C798 C799 1.415 . S
C799 H769 0.950 . S
C799 C794 1.363 . S
C799 C798 1.415 . S
H800 C797 0.999 . S
H801 C782 0.913 . S
H802 C820 0.951 . S
H803 C822 0.951 . S
H804 C824 0.950 . S
H805 C825 0.950 . S
H806 C827 0.950 . S
H807 C830 0.950 . S
H808 C831 0.950 . S
H809 C833 0.950 . S
H810 C834 0.950 . S
H811 C835 0.951 . S
H812 C837 0.951 . S
H813 C839 0.950 . S
H814 C840 0.950 . S
H815 C842 0.950 . S
H816 C845 0.950 . S
H817 C846 0.950 . S
H818 C848 0.950 . S
H819 C849 0.950 . S
C820 H802 0.951 . S
C820 C821 1.366 . S
C820 C822 1.388 . S
C821 C820 1.366 . S
C821 C825 1.385 . S
C822 H803 0.951 . S
C822 C820 1.388 . S
C822 C823 1.366 . S
C823 C822 1.366 . S
C823 C824 1.414 . S
C823 C826 1.499 . S
C824 H804 0.950 . S
C824 C823 1.414 . S
C824 C825 1.374 . S
C825 H805 0.950 . S
C825 C821 1.385 . S
C825 C824 1.374 . S
C826 C823 1.499 . S
C826 C827 1.373 . S
C826 C828 1.389 . S
C827 H806 0.950 . S
C827 C826 1.373 . S
C827 C843 1.377 . S
C828 C826 1.389 . S
C828 C829 1.524 1_554 S
C828 C842 1.377 1_554 S
C829 C828 1.524 1_556 S
C829 C830 1.397 . S
C829 C834 1.363 . S
C830 H807 0.950 . S
C830 C829 1.397 . S
C830 C831 1.334 . S
C831 H808 0.950 . S
C831 C830 1.334 . S
C831 C832 1.287 . S
C832 C831 1.287 . S
C832 C833 1.524 . S
C832 H851 0.913 . S
C833 H809 0.950 . S
C833 C832 1.524 . S
C833 C834 1.415 . S
C834 H810 0.950 . S
C834 C829 1.363 . S
C834 C833 1.415 . S
C835 H811 0.951 . S
C835 C836 1.366 . S
C835 C837 1.388 . S
C836 C835 1.366 . S
C836 C840 1.385 . S
C837 H812 0.951 . S
C837 C835 1.388 . S
C837 C838 1.366 . S
C838 C837 1.366 . S
C838 C839 1.414 . S
C838 C841 1.499 1_556 S
C839 H813 0.950 . S
C839 C838 1.414 . S
C839 C840 1.374 . S
C840 H814 0.950 . S
C840 C836 1.385 . S
C840 C839 1.374 . S
C841 C838 1.499 1_554 S
C841 C842 1.373 1_554 S
C841 C843 1.389 . S
C842 H815 0.950 . S
C842 C828 1.377 1_556 S
C842 C841 1.373 1_556 S
C843 C827 1.377 . S
C843 C841 1.389 . S
C843 C844 1.524 . S
C844 C843 1.524 . S
C844 C845 1.397 . S
C844 C849 1.363 . S
C845 H816 0.950 . S
C845 C844 1.397 . S
C845 C846 1.334 . S
C846 H817 0.950 . S
C846 C845 1.334 . S
C846 C847 1.287 . S
C847 C846 1.287 . S
C847 C848 1.524 . S
C847 H850 0.999 . S
C848 H818 0.950 . S
C848 C847 1.524 . S
C848 C849 1.415 . S
C849 H819 0.950 . S
C849 C844 1.363 . S
C849 C848 1.415 . S
H850 C847 0.999 . S
H851 C832 0.913 . S
H852 C870 0.951 . S
H853 C872 0.951 . S
H854 C874 0.950 . S
H855 C875 0.950 . S
H856 C877 0.950 . S
H857 C880 0.950 . S
H858 C881 0.950 . S
H859 C883 0.950 . S
H860 C884 0.950 . S
H861 C885 0.951 . S
H862 C887 0.951 . S
H863 C889 0.950 . S
H864 C890 0.950 . S
H865 C892 0.950 . S
H866 C895 0.950 . S
H867 C896 0.950 . S
H868 C898 0.950 . S
H869 C899 0.950 . S
C870 H852 0.951 . S
C870 C871 1.366 . S
C870 C872 1.388 . S
C871 C870 1.366 . S
C871 C875 1.385 . S
C872 H853 0.951 . S
C872 C870 1.388 . S
C872 C873 1.366 . S
C873 C872 1.366 . S
C873 C874 1.414 . S
C873 C876 1.499 . S
C874 H854 0.950 . S
C874 C873 1.414 . S
C874 C875 1.374 . S
C875 H855 0.950 . S
C875 C871 1.385 . S
C875 C874 1.374 . S
C876 C873 1.499 . S
C876 C877 1.373 . S
C876 C878 1.389 . S
C877 H856 0.950 . S
C877 C876 1.373 . S
C877 C893 1.377 . S
C878 C876 1.389 . S
C878 C879 1.524 . S
C878 C892 1.377 . S
C879 C878 1.524 . S
C879 C880 1.397 . S
C879 C884 1.363 . S
C880 H857 0.950 . S
C880 C879 1.397 . S
C880 C881 1.334 . S
C881 H858 0.950 . S
C881 C880 1.334 . S
C881 C882 1.287 . S
C882 C881 1.287 . S
C882 C883 1.524 . S
C882 H901 0.913 . S
C883 H859 0.950 . S
C883 C882 1.524 . S
C883 C884 1.415 . S
C884 H860 0.950 . S
C884 C879 1.363 . S
C884 C883 1.415 . S
C885 H861 0.951 . S
C885 C886 1.366 . S
C885 C887 1.388 . S
C886 C885 1.366 . S
C886 C890 1.385 . S
C887 H862 0.951 . S
C887 C885 1.388 . S
C887 C888 1.366 . S
C888 C887 1.366 . S
C888 C889 1.414 . S
C888 C891 1.499 . S
C889 H863 0.950 . S
C889 C888 1.414 . S
C889 C890 1.374 . S
C890 H864 0.950 . S
C890 C886 1.385 . S
C890 C889 1.374 . S
C891 C888 1.499 . S
C891 C892 1.373 . S
C891 C893 1.389 . S
C892 H865 0.950 . S
C892 C878 1.377 . S
C892 C891 1.373 . S
C893 C877 1.377 . S
C893 C891 1.389 . S
C893 C894 1.524 . S
C894 C893 1.524 . S
C894 C895 1.397 . S
C894 C899 1.363 . S
C895 H866 0.950 . S
C895 C894 1.397 . S
C895 C896 1.334 . S
C896 H867 0.950 . S
C896 C895 1.334 . S
C896 C897 1.287 . S
C897 C896 1.287 . S
C897 C898 1.524 . S
C897 H900 0.999 . S
C898 H868 0.950 . S
C898 C897 1.524 . S
C898 C899 1.415 . S
C899 H869 0.950 . S
C899 C894 1.363 . S
C899 C898 1.415 . S
H900 C897 0.999 . S
H901 C882 0.913 . S
H902 C920 0.951 . S
H903 C922 0.951 . S
H904 C924 0.950 . S
H905 C925 0.950 . S
H906 C927 0.950 . S
H907 C930 0.950 . S
H908 C931 0.950 . S
H909 C933 0.950 . S
H910 C934 0.950 . S
H911 C935 0.951 . S
H912 C937 0.951 . S
H913 C939 0.950 . S
H914 C940 0.950 . S
H915 C942 0.950 . S
H916 C945 0.950 . S
H917 C946 0.950 . S
H918 C948 0.950 . S
H919 C949 0.950 . S
C920 H902 0.951 . S
C920 C921 1.366 . S
C920 C922 1.388 . S
C921 C920 1.366 . S
C921 C925 1.385 . S
C922 H903 0.951 . S
C922 C920 1.388 . S
C922 C923 1.366 . S
C923 C922 1.366 . S
C923 C924 1.414 . S
C923 C926 1.499 . S
C924 H904 0.950 . S
C924 C923 1.414 . S
C924 C925 1.374 . S
C925 H905 0.950 . S
C925 C921 1.385 . S
C925 C924 1.374 . S
C926 C923 1.499 . S
C926 C927 1.373 . S
C926 C928 1.389 . S
C927 H906 0.950 . S
C927 C926 1.373 . S
C927 C943 1.377 . S
C928 C926 1.389 . S
C928 C929 1.524 . S
C928 C942 1.377 . S
C929 C928 1.524 . S
C929 C930 1.397 . S
C929 C934 1.363 . S
C930 H907 0.950 . S
C930 C929 1.397 . S
C930 C931 1.334 . S
C931 H908 0.950 . S
C931 C930 1.334 . S
C931 C932 1.287 . S
C932 C931 1.287 . S
C932 C933 1.524 . S
C932 H951 0.913 . S
C933 H909 0.950 . S
C933 C932 1.524 . S
C933 C934 1.415 . S
C934 H910 0.950 . S
C934 C929 1.363 . S
C934 C933 1.415 . S
C935 H911 0.951 . S
C935 C936 1.366 . S
C935 C937 1.388 . S
C936 C935 1.366 . S
C936 C940 1.385 . S
C937 H912 0.951 . S
C937 C935 1.388 . S
C937 C938 1.366 . S
C938 C937 1.366 . S
C938 C939 1.414 . S
C938 C941 1.499 . S
C939 H913 0.950 . S
C939 C938 1.414 . S
C939 C940 1.374 . S
C940 H914 0.950 . S
C940 C936 1.385 . S
C940 C939 1.374 . S
C941 C938 1.499 . S
C941 C942 1.373 . S
C941 C943 1.389 . S
C942 H915 0.950 . S
C942 C928 1.377 . S
C942 C941 1.373 . S
C943 C927 1.377 . S
C943 C941 1.389 . S
C943 C944 1.524 . S
C944 C943 1.524 . S
C944 C945 1.397 . S
C944 C949 1.363 . S
C945 H916 0.950 . S
C945 C944 1.397 . S
C945 C946 1.334 . S
C946 H917 0.950 . S
C946 C945 1.334 . S
C946 C947 1.287 . S
C947 C946 1.287 . S
C947 C948 1.524 . S
C947 H950 0.999 . S
C948 H918 0.950 . S
C948 C947 1.524 . S
C948 C949 1.415 . S
C949 H919 0.950 . S
C949 C944 1.363 . S
C949 C948 1.415 . S
H950 C947 0.999 . S
H951 C932 0.913 . S
H952 C970 0.951 . S
H953 C972 0.951 . S
H954 C974 0.950 . S
H955 C975 0.950 . S
H956 C977 0.949 . S
H957 C980 0.950 . S
H958 C981 0.950 . S
H959 C983 0.950 . S
H960 C984 0.950 . S
H961 C985 0.951 . S
H962 C987 0.951 . S
H963 C989 0.950 1_556 S
H964 C990 0.950 . S
H965 C992 0.950 . S
H966 C995 0.950 . S
H967 C996 0.950 . S
H968 C998 0.950 . S
H969 C999 0.950 . S
C970 H952 0.951 . S
C970 C971 1.366 . S
C970 C972 1.388 . S
C971 C970 1.366 . S
C971 C975 1.385 . S
C972 H953 0.951 . S
C972 C970 1.388 . S
C972 C973 1.366 . S
C973 C972 1.366 . S
C973 C974 1.414 . S
C973 C976 1.499 . S
C974 H954 0.950 . S
C974 C973 1.414 . S
C974 C975 1.374 . S
C975 H955 0.950 . S
C975 C971 1.385 . S
C975 C974 1.374 . S
C976 C973 1.499 . S
C976 C977 1.373 . S
C976 C978 1.389 . S
C977 H956 0.949 . S
C977 C976 1.373 . S
C977 C993 1.377 1_556 S
C978 C976 1.389 . S
C978 C979 1.524 . S
C978 C992 1.377 . S
C979 C978 1.524 . S
C979 C980 1.397 . S
C979 C984 1.363 . S
C980 H957 0.950 . S
C980 C979 1.397 . S
C980 C981 1.334 . S
C981 H958 0.950 . S
C981 C980 1.334 . S
C981 C982 1.287 . S
C982 C981 1.287 . S
C982 C983 1.524 . S
C982 H1001 0.913 . S
C983 H959 0.950 . S
C983 C982 1.524 . S
C983 C984 1.415 . S
C984 H960 0.950 . S
C984 C979 1.363 . S
C984 C983 1.415 . S
C985 H961 0.951 . S
C985 C986 1.366 . S
C985 C987 1.388 . S
C986 C985 1.366 . S
C986 C990 1.385 . S
C987 H962 0.951 . S
C987 C985 1.388 . S
C987 C988 1.366 . S
C988 C987 1.366 . S
C988 C989 1.414 . S
C988 C991 1.499 1_554 S
C989 H963 0.950 1_554 S
C989 C988 1.414 . S
C989 C990 1.374 . S
C990 H964 0.950 . S
C990 C986 1.385 . S
C990 C989 1.374 . S
C991 C988 1.499 1_556 S
C991 C992 1.373 . S
C991 C993 1.389 1_556 S
C992 H965 0.950 . S
C992 C978 1.377 . S
C992 C991 1.373 . S
C993 C977 1.377 1_554 S
C993 C991 1.389 1_554 S
C993 C994 1.524 . S
C994 C993 1.524 . S
C994 C995 1.397 . S
C994 C999 1.363 . S
C995 H966 0.950 . S
C995 C994 1.397 . S
C995 C996 1.334 . S
C996 H967 0.950 . S
C996 C995 1.334 . S
C996 C997 1.287 . S
C997 C996 1.287 . S
C997 C998 1.524 . S
C997 H1000 0.999 . S
C998 H968 0.950 . S
C998 C997 1.524 . S
C998 C999 1.415 . S
C999 H969 0.950 . S
C999 C994 1.363 . S
C999 C998 1.415 . S
H1000 C997 0.999 . S
H1001 C982 0.913 . S
H1002 C1020 0.951 . S
H1003 C1022 0.941 1_556 S
H1004 C1024 0.950 . S
H1005 C1025 0.950 . S
H1006 C1027 0.950 . S
H1007 C1030 0.950 . S
H1008 C1031 0.950 . S
H1009 C1033 0.950 . S
H1010 C1034 0.950 1_556 S
H1011 C1035 0.951 . S
H1012 C1037 0.951 . S
H1013 C1039 0.950 . S
H1014 C1040 0.950 . S
H1015 C1042 0.950 . S
H1016 C1045 0.950 . S
H1017 C1046 0.950 . S
H1018 C1048 0.950 . S
H1019 C1049 0.950 . S
C1020 H1002 0.951 . S
C1020 C1021 1.366 . S
C1020 C1022 1.388 . S
C1021 C1020 1.366 . S
C1021 C1025 1.385 . S
C1022 H1003 0.941 1_554 S
C1022 C1020 1.388 . S
C1022 C1023 1.366 . S
C1023 C1022 1.366 . S
C1023 C1024 1.414 . S
C1023 C1026 1.489 1_554 S
C1024 H1004 0.950 . S
C1024 C1023 1.414 . S
C1024 C1025 1.374 . S
C1025 H1005 0.950 . S
C1025 C1021 1.385 . S
C1025 C1024 1.374 . S
C1026 C1023 1.489 1_556 S
C1026 C1027 1.383 . S
C1026 C1028 1.391 . S
C1027 H1006 0.950 . S
C1027 C1026 1.383 . S
C1027 C1043 1.377 . S
C1028 C1026 1.391 . S
C1028 C1029 1.524 1_556 S
C1028 C1042 1.377 . S
C1029 C1028 1.524 1_554 S
C1029 C1030 1.397 . S
C1029 C1034 1.363 . S
C1030 H1007 0.950 . S
C1030 C1029 1.397 . S
C1030 C1031 1.334 . S
C1031 H1008 0.950 . S
C1031 C1030 1.334 . S
C1031 C1032 1.287 . S
C1032 C1031 1.287 . S
C1032 C1033 1.524 . S
C1032 H1051 0.913 . S
C1033 H1009 0.950 . S
C1033 C1032 1.524 . S
C1033 C1034 1.415 . S
C1034 H1010 0.950 1_554 S
C1034 C1029 1.363 . S
C1034 C1033 1.415 . S
C1035 H1011 0.951 . S
C1035 C1036 1.366 . S
C1035 C1037 1.388 . S
C1036 C1035 1.366 . S
C1036 C1040 1.385 . S
C1037 H1012 0.951 . S
C1037 C1035 1.388 . S
C1037 C1038 1.366 . S
C1038 C1037 1.366 . S
C1038 C1039 1.414 . S
C1038 C1041 1.499 . S
C1039 H1013 0.950 . S
C1039 C1038 1.414 . S
C1039 C1040 1.374 . S
C1040 H1014 0.950 . S
C1040 C1036 1.385 . S
C1040 C1039 1.374 . S
C1041 C1038 1.499 . S
C1041 C1042 1.373 . S
C1041 C1043 1.389 . S
C1042 H1015 0.950 . S
C1042 C1028 1.377 . S
C1042 C1041 1.373 . S
C1043 C1027 1.377 . S
C1043 C1041 1.389 . S
C1043 C1044 1.524 . S
C1044 C1043 1.524 . S
C1044 C1045 1.397 . S
C1044 C1049 1.363 . S
C1045 H1016 0.950 . S
C1045 C1044 1.397 . S
C1045 C1046 1.334 . S
C1046 H1017 0.950 . S
C1046 C1045 1.334 . S
C1046 C1047 1.287 . S
C1047 C1046 1.287 . S
C1047 C1048 1.524 . S
C1047 H1050 0.999 . S
C1048 H1018 0.950 . S
C1048 C1047 1.524 . S
C1048 C1049 1.415 . S
C1049 H1019 0.950 . S
C1049 C1044 1.363 . S
C1049 C1048 1.415 . S
H1050 C1047 0.999 . S
H1051 C1032 0.913 . S
H1052 C1070 0.951 . S
H1053 C1072 0.951 . S
H1054 C1074 0.950 . S
H1055 C1075 0.950 . S
H1056 C1077 0.950 . S
H1057 C1080 0.950 . S
H1058 C1081 0.950 . S
H1059 C1083 0.950 . S
H1060 C1084 0.950 . S
H1061 C1085 0.951 . S
H1062 C1087 0.951 . S
H1063 C1089 0.950 . S
H1064 C1090 0.950 . S
H1065 C1092 0.950 . S
H1066 C1095 0.950 . S
H1067 C1096 0.950 . S
H1068 C1098 0.950 . S
H1069 C1099 0.950 . S
C1070 H1052 0.951 . S
C1070 C1071 1.366 . S
C1070 C1072 1.388 . S
C1071 C1070 1.366 . S
C1071 C1075 1.385 . S
C1072 H1053 0.951 . S
C1072 C1070 1.388 . S
C1072 C1073 1.366 . S
C1073 C1072 1.366 . S
C1073 C1074 1.414 . S
C1073 C1076 1.499 . S
C1074 H1054 0.950 . S
C1074 C1073 1.414 . S
C1074 C1075 1.374 . S
C1075 H1055 0.950 . S
C1075 C1071 1.385 . S
C1075 C1074 1.374 . S
C1076 C1073 1.499 . S
C1076 C1077 1.373 . S
C1076 C1078 1.389 . S
C1077 H1056 0.950 . S
C1077 C1076 1.373 . S
C1077 C1093 1.377 . S
C1078 C1076 1.389 . S
C1078 C1079 1.524 . S
C1078 C1092 1.377 . S
C1079 C1078 1.524 . S
C1079 C1080 1.397 . S
C1079 C1084 1.363 . S
C1080 H1057 0.950 . S
C1080 C1079 1.397 . S
C1080 C1081 1.334 . S
C1081 H1058 0.950 . S
C1081 C1080 1.334 . S
C1081 C1082 1.287 . S
C1082 C1081 1.287 . S
C1082 C1083 1.524 . S
C1082 H1101 0.913 . S
C1083 H1059 0.950 . S
C1083 C1082 1.524 . S
C1083 C1084 1.415 . S
C1084 H1060 0.950 . S
C1084 C1079 1.363 . S
C1084 C1083 1.415 . S
C1085 H1061 0.951 . S
C1085 C1086 1.366 . S
C1085 C1087 1.388 . S
C1086 C1085 1.366 . S
C1086 C1090 1.385 . S
C1087 H1062 0.951 . S
C1087 C1085 1.388 . S
C1087 C1088 1.366 . S
C1088 C1087 1.366 . S
C1088 C1089 1.414 . S
C1088 C1091 1.499 . S
C1089 H1063 0.950 . S
C1089 C1088 1.414 . S
C1089 C1090 1.374 . S
C1090 H1064 0.950 . S
C1090 C1086 1.385 . S
C1090 C1089 1.374 . S
C1091 C1088 1.499 . S
C1091 C1092 1.373 . S
C1091 C1093 1.389 . S
C1092 H1065 0.950 . S
C1092 C1078 1.377 . S
C1092 C1091 1.373 . S
C1093 C1077 1.377 . S
C1093 C1091 1.389 . S
C1093 C1094 1.524 . S
C1094 C1093 1.524 . S
C1094 C1095 1.397 . S
C1094 C1099 1.363 . S
C1095 H1066 0.950 . S
C1095 C1094 1.397 . S
C1095 C1096 1.334 . S
C1096 H1067 0.950 . S
C1096 C1095 1.334 . S
C1096 C1097 1.287 . S
C1097 C1096 1.287 . S
C1097 C1098 1.524 . S
C1097 H1100 0.999 . S
C1098 H1068 0.950 . S
C1098 C1097 1.524 . S
C1098 C1099 1.415 . S
C1099 H1069 0.950 . S
C1099 C1094 1.363 . S
C1099 C1098 1.415 . S
H1100 C1097 0.999 . S
H1101 C1082 0.913 . S
H1102 C1120 0.951 . S
H1103 C1122 0.951 . S
H1104 C1124 0.950 . S
H1105 C1125 0.950 . S
H1106 C1127 0.950 . S
H1107 C1130 0.950 . S
H1108 C1131 0.950 . S
H1109 C1133 0.950 . S
H1110 C1134 0.950 . S
H1111 C1135 0.951 . S
H1112 C1137 0.951 . S
H1113 C1139 0.950 . S
H1114 C1140 0.950 . S
H1115 C1142 0.950 . S
H1116 C1145 0.950 . S
H1117 C1146 0.950 . S
H1118 C1148 0.950 . S
H1119 C1149 0.950 . S
C1120 H1102 0.951 . S
C1120 C1121 1.366 . S
C1120 C1122 1.388 . S
C1121 C1120 1.366 . S
C1121 C1125 1.385 . S
C1122 H1103 0.951 . S
C1122 C1120 1.388 . S
C1122 C1123 1.366 . S
C1123 C1122 1.366 . S
C1123 C1124 1.414 . S
C1123 C1126 1.499 . S
C1124 H1104 0.950 . S
C1124 C1123 1.414 . S
C1124 C1125 1.374 . S
C1125 H1105 0.950 . S
C1125 C1121 1.385 . S
C1125 C1124 1.374 . S
C1126 C1123 1.499 . S
C1126 C1127 1.373 . S
C1126 C1128 1.389 . S
C1127 H1106 0.950 . S
C1127 C1126 1.373 . S
C1127 C1143 1.377 . S
C1128 C1126 1.389 . S
C1128 C1129 1.524 . S
C1128 C1142 1.377 . S
C1129 C1128 1.524 . S
C1129 C1130 1.397 . S
C1129 C1134 1.363 . S
C1130 H1107 0.950 . S
C1130 C1129 1.397 . S
C1130 C1131 1.334 . S
C1131 H1108 0.950 . S
C1131 C1130 1.334 . S
C1131 C1132 1.287 . S
C1132 C1131 1.287 . S
C1132 C1133 1.524 . S
C1132 H1151 0.913 . S
C1133 H1109 0.950 . S
C1133 C1132 1.524 . S
C1133 C1134 1.415 . S
C1134 H1110 0.950 . S
C1134 C1129 1.363 . S
C1134 C1133 1.415 . S
C1135 H1111 0.951 . S
C1135 C1136 1.366 . S
C1135 C1137 1.388 . S
C1136 C1135 1.366 . S
C1136 C1140 1.385 . S
C1137 H1112 0.951 . S
C1137 C1135 1.388 . S
C1137 C1138 1.366 . S
C1138 C1137 1.366 . S
C1138 C1139 1.414 . S
C1138 C1141 1.499 . S
C1139 H1113 0.950 . S
C1139 C1138 1.414 . S
C1139 C1140 1.374 . S
C1140 H1114 0.950 . S
C1140 C1136 1.385 . S
C1140 C1139 1.374 . S
C1141 C1138 1.499 . S
C1141 C1142 1.373 . S
C1141 C1143 1.389 . S
C1142 H1115 0.950 . S
C1142 C1128 1.377 . S
C1142 C1141 1.373 . S
C1143 C1127 1.377 . S
C1143 C1141 1.389 . S
C1143 C1144 1.524 . S
C1144 C1143 1.524 . S
C1144 C1145 1.397 . S
C1144 C1149 1.363 . S
C1145 H1116 0.950 . S
C1145 C1144 1.397 . S
C1145 C1146 1.334 . S
C1146 H1117 0.950 . S
C1146 C1145 1.334 . S
C1146 C1147 1.287 . S
C1147 C1146 1.287 . S
C1147 C1148 1.524 . S
C1147 H1150 0.999 . S
C1148 H1118 0.950 . S
C1148 C1147 1.524 . S
C1148 C1149 1.415 . S
C1149 H1119 0.950 . S
C1149 C1144 1.363 . S
C1149 C1148 1.415 . S
H1150 C1147 0.999 . S
H1151 C1132 0.913 . S
H1152 C1170 0.951 . S
H1153 C1172 0.951 . S
H1154 C1174 0.950 . S
H1155 C1175 0.950 . S
H1156 C1177 0.950 . S
H1157 C1180 0.950 . S
H1158 C1181 0.950 . S
H1159 C1183 0.950 . S
H1160 C1184 0.950 . S
H1161 C1185 0.951 . S
H1162 C1187 0.951 . S
H1163 C1189 0.950 . S
H1164 C1190 0.950 . S
H1165 C1192 0.950 . S
H1166 C1195 0.950 . S
H1167 C1196 0.950 . S
H1168 C1198 0.950 . S
H1169 C1199 0.950 . S
C1170 H1152 0.951 . S
C1170 C1171 1.366 . S
C1170 C1172 1.388 . S
C1171 C1170 1.366 . S
C1171 C1175 1.385 . S
C1172 H1153 0.951 . S
C1172 C1170 1.388 . S
C1172 C1173 1.366 . S
C1173 C1172 1.366 . S
C1173 C1174 1.414 . S
C1173 C1176 1.499 . S
C1174 H1154 0.950 . S
C1174 C1173 1.414 . S
C1174 C1175 1.374 . S
C1175 H1155 0.950 . S
C1175 C1171 1.385 . S
C1175 C1174 1.374 . S
C1176 C1173 1.499 . S
C1176 C1177 1.373 . S
C1176 C1178 1.389 . S
C1177 H1156 0.950 . S
C1177 C1176 1.373 . S
C1177 C1193 1.377 . S
C1178 C1176 1.389 . S
C1178 C1179 1.524 . S
C1178 C1192 1.377 . S
C1179 C1178 1.524 . S
C1179 C1180 1.397 . S
C1179 C1184 1.363 . S
C1180 H1157 0.950 . S
C1180 C1179 1.397 . S
C1180 C1181 1.334 . S
C1181 H1158 0.950 . S
C1181 C1180 1.334 . S
C1181 C1182 1.287 . S
C1182 C1181 1.287 . S
C1182 C1183 1.524 . S
C1182 H1201 0.913 . S
C1183 H1159 0.950 . S
C1183 C1182 1.524 . S
C1183 C1184 1.415 . S
C1184 H1160 0.950 . S
C1184 C1179 1.363 . S
C1184 C1183 1.415 . S
C1185 H1161 0.951 . S
C1185 C1186 1.366 . S
C1185 C1187 1.388 . S
C1186 C1185 1.366 . S
C1186 C1190 1.385 . S
C1187 H1162 0.951 . S
C1187 C1185 1.388 . S
C1187 C1188 1.366 . S
C1188 C1187 1.366 . S
C1188 C1189 1.414 . S
C1188 C1191 1.499 . S
C1189 H1163 0.950 . S
C1189 C1188 1.414 . S
C1189 C1190 1.374 . S
C1190 H1164 0.950 . S
C1190 C1186 1.385 . S
C1190 C1189 1.374 . S
C1191 C1188 1.499 . S
C1191 C1192 1.373 . S
C1191 C1193 1.389 . S
C1192 H1165 0.950 . S
C1192 C1178 1.377 . S
C1192 C1191 1.373 . S
C1193 C1177 1.377 . S
C1193 C1191 1.389 . S
C1193 C1194 1.524 . S
C1194 C1193 1.524 . S
C1194 C1195 1.397 . S
C1194 C1199 1.363 . S
C1195 H1166 0.950 . S
C1195 C1194 1.397 . S
C1195 C1196 1.334 . S
C1196 H1167 0.950 . S
C1196 C1195 1.334 . S
C1196 C1197 1.287 . S
C1197 C1196 1.287 . S
C1197 C1198 1.524 . S
C1197 H1200 0.999 . S
C1198 H1168 0.950 . S
C1198 C1197 1.524 . S
C1198 C1199 1.415 . S
C1199 H1169 0.950 . S
C1199 C1194 1.363 . S
C1199 C1198 1.415 . S
H1200 C1197 0.999 . S
H1201 C1182 0.913 . S
H1202 C1220 0.951 . S
H1203 C1222 0.951 . S
H1204 C1224 0.950 . S
H1205 C1225 0.950 . S
H1206 C1227 0.950 . S
H1207 C1230 0.950 . S
H1208 C1231 0.950 . S
H1209 C1233 0.950 . S
H1210 C1234 0.950 . S
H1211 C1235 0.951 . S
H1212 C1237 0.951 . S
H1213 C1239 0.950 . S
H1214 C1240 0.950 . S
H1215 C1242 0.950 . S
H1216 C1245 0.950 . S
H1217 C1246 0.950 . S
H1218 C1248 0.950 . S
H1219 C1249 0.950 . S
C1220 H1202 0.951 . S
C1220 C1221 1.366 . S
C1220 C1222 1.388 . S
C1221 C1220 1.366 . S
C1221 C1225 1.385 . S
C1222 H1203 0.951 . S
C1222 C1220 1.388 . S
C1222 C1223 1.366 . S
C1223 C1222 1.366 . S
C1223 C1224 1.414 . S
C1223 C1226 1.499 . S
C1224 H1204 0.950 . S
C1224 C1223 1.414 . S
C1224 C1225 1.374 . S
C1225 H1205 0.950 . S
C1225 C1221 1.385 . S
C1225 C1224 1.374 . S
C1226 C1223 1.499 . S
C1226 C1227 1.373 . S
C1226 C1228 1.389 . S
C1227 H1206 0.950 . S
C1227 C1226 1.373 . S
C1227 C1243 1.377 . S
C1228 C1226 1.389 . S
C1228 C1229 1.524 . S
C1228 C1242 1.377 . S
C1229 C1228 1.524 . S
C1229 C1230 1.397 . S
C1229 C1234 1.363 . S
C1230 H1207 0.950 . S
C1230 C1229 1.397 . S
C1230 C1231 1.334 . S
C1231 H1208 0.950 . S
C1231 C1230 1.334 . S
C1231 C1232 1.287 . S
C1232 C1231 1.287 . S
C1232 C1233 1.524 . S
C1232 H1251 0.913 . S
C1233 H1209 0.950 . S
C1233 C1232 1.524 . S
C1233 C1234 1.415 . S
C1234 H1210 0.950 . S
C1234 C1229 1.363 . S
C1234 C1233 1.415 . S
C1235 H1211 0.951 . S
C1235 C1236 1.366 . S
C1235 C1237 1.388 . S
C1236 C1235 1.366 . S
C1236 C1240 1.385 . S
C1237 H1212 0.951 . S
C1237 C1235 1.388 . S
C1237 C1238 1.366 . S
C1238 C1237 1.366 . S
C1238 C1239 1.414 . S
C1238 C1241 1.499 . S
C1239 H1213 0.950 . S
C1239 C1238 1.414 . S
C1239 C1240 1.374 . S
C1240 H1214 0.950 . S
C1240 C1236 1.385 . S
C1240 C1239 1.374 . S
C1241 C1238 1.499 . S
C1241 C1242 1.373 . S
C1241 C1243 1.389 . S
C1242 H1215 0.950 . S
C1242 C1228 1.377 . S
C1242 C1241 1.373 . S
C1243 C1227 1.377 . S
C1243 C1241 1.389 . S
C1243 C1244 1.524 . S
C1244 C1243 1.524 . S
C1244 C1245 1.397 . S
C1244 C1249 1.363 . S
C1245 H1216 0.950 . S
C1245 C1244 1.397 . S
C1245 C1246 1.334 . S
C1246 H1217 0.950 . S
C1246 C1245 1.334 . S
C1246 C1247 1.287 . S
C1247 C1246 1.287 . S
C1247 C1248 1.524 . S
C1247 H1250 0.999 . S
C1248 H1218 0.950 . S
C1248 C1247 1.524 . S
C1248 C1249 1.415 . S
C1249 H1219 0.950 . S
C1249 C1244 1.363 . S
C1249 C1248 1.415 . S
H1250 C1247 0.999 . S
H1251 C1232 0.913 . S
H1252 C1270 0.951 . S
H1253 C1272 0.951 . S
H1254 C1274 0.950 . S
H1255 C1275 0.950 . S
H1256 C1277 0.950 . S
H1257 C1280 0.950 . S
H1258 C1281 0.950 . S
H1259 C1283 0.950 . S
H1260 C1284 0.950 . S
H1261 C1285 0.951 . S
H1262 C1287 0.951 . S
H1263 C1289 0.950 . S
H1264 C1290 0.950 . S
H1265 C1292 0.950 . S
H1266 C1295 0.950 . S
H1267 C1296 0.950 . S
H1268 C1298 0.950 . S
H1269 C1299 0.950 . S
C1270 H1252 0.951 . S
C1270 C1271 1.366 . S
C1270 C1272 1.388 . S
C1271 C1270 1.366 . S
C1271 C1275 1.385 . S
C1272 H1253 0.951 . S
C1272 C1270 1.388 . S
C1272 C1273 1.366 . S
C1273 C1272 1.366 . S
C1273 C1274 1.414 . S
C1273 C1276 1.499 . S
C1274 H1254 0.950 . S
C1274 C1273 1.414 . S
C1274 C1275 1.374 . S
C1275 H1255 0.950 . S
C1275 C1271 1.385 . S
C1275 C1274 1.374 . S
C1276 C1273 1.499 . S
C1276 C1277 1.373 . S
C1276 C1278 1.389 . S
C1277 H1256 0.950 . S
C1277 C1276 1.373 . S
C1277 C1293 1.377 . S
C1278 C1276 1.389 . S
C1278 C1279 1.524 . S
C1278 C1292 1.377 . S
C1279 C1278 1.524 . S
C1279 C1280 1.397 . S
C1279 C1284 1.363 . S
C1280 H1257 0.950 . S
C1280 C1279 1.397 . S
C1280 C1281 1.334 . S
C1281 H1258 0.950 . S
C1281 C1280 1.334 . S
C1281 C1282 1.287 . S
C1282 C1281 1.287 . S
C1282 C1283 1.524 . S
C1282 H1301 0.913 . S
C1283 H1259 0.950 . S
C1283 C1282 1.524 . S
C1283 C1284 1.415 . S
C1284 H1260 0.950 . S
C1284 C1279 1.363 . S
C1284 C1283 1.415 . S
C1285 H1261 0.951 . S
C1285 C1286 1.366 . S
C1285 C1287 1.388 . S
C1286 C1285 1.366 . S
C1286 C1290 1.385 . S
C1287 H1262 0.951 . S
C1287 C1285 1.388 . S
C1287 C1288 1.366 . S
C1288 C1287 1.366 . S
C1288 C1289 1.414 . S
C1288 C1291 1.499 . S
C1289 H1263 0.950 . S
C1289 C1288 1.414 . S
C1289 C1290 1.374 . S
C1290 H1264 0.950 . S
C1290 C1286 1.385 . S
C1290 C1289 1.374 . S
C1291 C1288 1.499 . S
C1291 C1292 1.373 . S
C1291 C1293 1.389 . S
C1292 H1265 0.950 . S
C1292 C1278 1.377 . S
C1292 C1291 1.373 . S
C1293 C1277 1.377 . S
C1293 C1291 1.389 . S
C1293 C1294 1.524 . S
C1294 C1293 1.524 . S
C1294 C1295 1.397 . S
C1294 C1299 1.363 . S
C1295 H1266 0.950 . S
C1295 C1294 1.397 . S
C1295 C1296 1.334 . S
C1296 H1267 0.950 . S
C1296 C1295 1.334 . S
C1296 C1297 1.287 . S
C1297 C1296 1.287 . S
C1297 C1298 1.524 . S
C1297 H1300 0.999 . S
C1298 H1268 0.950 . S
C1298 C1297 1.524 . S
C1298 C1299 1.415 . S
C1299 H1269 0.950 . S
C1299 C1294 1.363 . S
C1299 C1298 1.415 . S
H1300 C1297 0.999 . S
H1301 C1282 0.913 . S
H1302 C1320 0.951 . S
H1303 C1322 0.951 . S
H1304 C1324 0.950 . S
H1305 C1325 0.950 . S
H1306 C1327 0.950 . S
H1307 C1330 0.950 . S
H1308 C1331 0.950 . S
H1309 C1333 0.950 . S
H1310 C1334 0.950 . S
H1311 C1335 0.951 . S
H1312 C1337 0.951 . S
H1313 C1339 0.950 . S
H1314 C1340 0.950 . S
H1315 C1342 0.950 . S
H1316 C1345 0.950 . S
H1317 C1346 0.950 . S
H1318 C1348 0.950 . S
H1319 C1349 0.950 . S
C1320 H1302 0.951 . S
C1320 C1321 1.366 . S
C1320 C1322 1.388 . S
C1321 C1320 1.366 . S
C1321 C1325 1.385 . S
C1322 H1303 0.951 . S
C1322 C1320 1.388 . S
C1322 C1323 1.366 . S
C1323 C1322 1.366 . S
C1323 C1324 1.414 . S
C1323 C1326 1.499 . S
C1324 H1304 0.950 . S
C1324 C1323 1.414 . S
C1324 C1325 1.374 . S
C1325 H1305 0.950 . S
C1325 C1321 1.385 . S
C1325 C1324 1.374 . S
C1326 C1323 1.499 . S
C1326 C1327 1.373 . S
C1326 C1328 1.389 . S
C1327 H1306 0.950 . S
C1327 C1326 1.373 . S
C1327 C1343 1.377 . S
C1328 C1326 1.389 . S
C1328 C1329 1.524 . S
C1328 C1342 1.377 . S
C1329 C1328 1.524 . S
C1329 C1330 1.397 . S
C1329 C1334 1.363 . S
C1330 H1307 0.950 . S
C1330 C1329 1.397 . S
C1330 C1331 1.334 . S
C1331 H1308 0.950 . S
C1331 C1330 1.334 . S
C1331 C1332 1.287 . S
C1332 C1331 1.287 . S
C1332 C1333 1.524 . S
C1332 H1351 0.913 . S
C1333 H1309 0.950 . S
C1333 C1332 1.524 . S
C1333 C1334 1.415 . S
C1334 H1310 0.950 . S
C1334 C1329 1.363 . S
C1334 C1333 1.415 . S
C1335 H1311 0.951 . S
C1335 C1336 1.366 . S
C1335 C1337 1.388 . S
C1336 C1335 1.366 . S
C1336 C1340 1.385 . S
C1337 H1312 0.951 . S
C1337 C1335 1.388 . S
C1337 C1338 1.366 . S
C1338 C1337 1.366 . S
C1338 C1339 1.414 . S
C1338 C1341 1.499 . S
C1339 H1313 0.950 . S
C1339 C1338 1.414 . S
C1339 C1340 1.374 . S
C1340 H1314 0.950 . S
C1340 C1336 1.385 . S
C1340 C1339 1.374 . S
C1341 C1338 1.499 . S
C1341 C1342 1.373 . S
C1341 C1343 1.389 . S
C1342 H1315 0.950 . S
C1342 C1328 1.377 . S
C1342 C1341 1.373 . S
C1343 C1327 1.377 . S
C1343 C1341 1.389 . S
C1343 C1344 1.524 . S
C1344 C1343 1.524 . S
C1344 C1345 1.397 . S
C1344 C1349 1.363 . S
C1345 H1316 0.950 . S
C1345 C1344 1.397 . S
C1345 C1346 1.334 . S
C1346 H1317 0.950 . S
C1346 C1345 1.334 . S
C1346 C1347 1.287 . S
C1347 C1346 1.287 . S
C1347 C1348 1.524 . S
C1347 H1350 0.999 . S
C1348 H1318 0.950 . S
C1348 C1347 1.524 . S
C1348 C1349 1.415 . S
C1349 H1319 0.950 . S
C1349 C1344 1.363 . S
C1349 C1348 1.415 . S
H1350 C1347 0.999 . S
H1351 C1332 0.913 . S
H1352 C1370 0.951 . S
H1353 C1372 0.951 . S
H1354 C1374 0.950 . S
H1355 C1375 0.950 . S
H1356 C1377 0.950 . S
H1357 C1380 0.950 . S
H1358 C1381 0.950 . S
H1359 C1383 0.950 . S
H1360 C1384 0.950 . S
H1361 C1385 0.951 . S
H1362 C1387 0.951 . S
H1363 C1389 0.950 . S
H1364 C1390 0.950 . S
H1365 C1392 0.950 . S
H1366 C1395 0.950 . S
H1367 C1396 0.950 . S
H1368 C1398 0.950 . S
H1369 C1399 0.950 . S
C1370 H1352 0.951 . S
C1370 C1371 1.366 . S
C1370 C1372 1.388 . S
C1371 C1370 1.366 . S
C1371 C1375 1.385 . S
C1372 H1353 0.951 . S
C1372 C1370 1.388 . S
C1372 C1373 1.366 . S
C1373 C1372 1.366 . S
C1373 C1374 1.414 . S
C1373 C1376 1.499 . S
C1374 H1354 0.950 . S
C1374 C1373 1.414 . S
C1374 C1375 1.374 . S
C1375 H1355 0.950 . S
C1375 C1371 1.385 . S
C1375 C1374 1.374 . S
C1376 C1373 1.499 . S
C1376 C1377 1.373 . S
C1376 C1378 1.389 . S
C1377 H1356 0.950 . S
C1377 C1376 1.373 . S
C1377 C1393 1.377 . S
C1378 C1376 1.389 . S
C1378 C1379 1.524 . S
C1378 C1392 1.377 . S
C1379 C1378 1.524 . S
C1379 C1380 1.397 . S
C1379 C1384 1.363 . S
C1380 H1357 0.950 . S
C1380 C1379 1.397 . S
C1380 C1381 1.334 . S
C1381 H1358 0.950 . S
C1381 C1380 1.334 . S
C1381 C1382 1.287 . S
C1382 C1381 1.287 . S
C1382 C1383 1.524 . S
C1382 H1401 0.913 . S
C1383 H1359 0.950 . S
C1383 C1382 1.524 . S
C1383 C1384 1.415 . S
C1384 H1360 0.950 . S
C1384 C1379 1.363 . S
C1384 C1383 1.415 . S
C1385 H1361 0.951 . S
C1385 C1386 1.366 . S
C1385 C1387 1.388 . S
C1386 C1385 1.366 . S
C1386 C1390 1.385 . S
C1387 H1362 0.951 . S
C1387 C1385 1.388 . S
C1387 C1388 1.366 . S
C1388 C1387 1.366 . S
C1388 C1389 1.414 . S
C1388 C1391 1.499 . S
C1389 H1363 0.950 . S
C1389 C1388 1.414 . S
C1389 C1390 1.374 . S
C1390 H1364 0.950 . S
C1390 C1386 1.385 . S
C1390 C1389 1.374 . S
C1391 C1388 1.499 . S
C1391 C1392 1.373 . S
C1391 C1393 1.389 . S
C1392 H1365 0.950 . S
C1392 C1378 1.377 . S
C1392 C1391 1.373 . S
C1393 C1377 1.377 . S
C1393 C1391 1.389 . S
C1393 C1394 1.524 . S
C1394 C1393 1.524 . S
C1394 C1395 1.397 . S
C1394 C1399 1.363 . S
C1395 H1366 0.950 . S
C1395 C1394 1.397 . S
C1395 C1396 1.334 . S
C1396 H1367 0.950 . S
C1396 C1395 1.334 . S
C1396 C1397 1.287 . S
C1397 C1396 1.287 . S
C1397 C1398 1.524 . S
C1397 H1400 0.999 . S
C1398 H1368 0.950 . S
C1398 C1397 1.524 . S
C1398 C1399 1.415 . S
C1399 H1369 0.950 . S
C1399 C1394 1.363 . S
C1399 C1398 1.415 . S
H1400 C1397 0.999 . S
H1401 C1382 0.913 . S
H1402 C1420 0.951 . S
H1403 C1422 0.951 . S
H1404 C1424 0.950 . S
H1405 C1425 0.950 . S
H1406 C1427 0.950 . S
H1407 C1430 0.950 . S
H1408 C1431 0.950 . S
H1409 C1433 0.950 . S
H1410 C1434 0.950 . S
H1411 C1435 0.951 . S
H1412 C1437 0.951 . S
H1413 C1439 0.950 . S
H1414 C1440 0.950 . S
H1415 C1442 0.950 . S
H1416 C1445 0.950 . S
H1417 C1446 0.950 . S
H1418 C1448 0.950 . S
H1419 C1449 0.950 . S
C1420 H1402 0.951 . S
C1420 C1421 1.366 . S
C1420 C1422 1.388 . S
C1421 C1420 1.366 . S
C1421 C1425 1.385 . S
C1422 H1403 0.951 . S
C1422 C1420 1.388 . S
C1422 C1423 1.366 . S
C1423 C1422 1.366 . S
C1423 C1424 1.414 . S
C1423 C1426 1.499 . S
C1424 H1404 0.950 . S
C1424 C1423 1.414 . S
C1424 C1425 1.374 . S
C1425 H1405 0.950 . S
C1425 C1421 1.385 . S
C1425 C1424 1.374 . S
C1426 C1423 1.499 . S
C1426 C1427 1.373 . S
C1426 C1428 1.389 . S
C1427 H1406 0.950 . S
C1427 C1426 1.373 . S
C1427 C1443 1.377 . S
C1428 C1426 1.389 . S
C1428 C1429 1.524 . S
C1428 C1442 1.377 . S
C1429 C1428 1.524 . S
C1429 C1430 1.397 . S
C1429 C1434 1.363 . S
C1430 H1407 0.950 . S
C1430 C1429 1.397 . S
C1430 C1431 1.334 . S
C1431 H1408 0.950 . S
C1431 C1430 1.334 . S
C1431 C1432 1.287 . S
C1432 C1431 1.287 . S
C1432 C1433 1.524 . S
C1432 H1451 0.913 . S
C1433 H1409 0.950 . S
C1433 C1432 1.524 . S
C1433 C1434 1.415 . S
C1434 H1410 0.950 . S
C1434 C1429 1.363 . S
C1434 C1433 1.415 . S
C1435 H1411 0.951 . S
C1435 C1436 1.366 . S
C1435 C1437 1.388 . S
C1436 C1435 1.366 . S
C1436 C1440 1.385 . S
C1437 H1412 0.951 . S
C1437 C1435 1.388 . S
C1437 C1438 1.366 . S
C1438 C1437 1.366 . S
C1438 C1439 1.414 . S
C1438 C1441 1.499 . S
C1439 H1413 0.950 . S
C1439 C1438 1.414 . S
C1439 C1440 1.374 . S
C1440 H1414 0.950 . S
C1440 C1436 1.385 . S
C1440 C1439 1.374 . S
C1441 C1438 1.499 . S
C1441 C1442 1.373 . S
C1441 C1443 1.389 . S
C1442 H1415 0.950 . S
C1442 C1428 1.377 . S
C1442 C1441 1.373 . S
C1443 C1427 1.377 . S
C1443 C1441 1.389 . S
C1443 C1444 1.524 . S
C1444 C1443 1.524 . S
C1444 C1445 1.397 . S
C1444 C1449 1.363 . S
C1445 H1416 0.950 . S
C1445 C1444 1.397 . S
C1445 C1446 1.334 . S
C1446 H1417 0.950 . S
C1446 C1445 1.334 . S
C1446 C1447 1.287 . S
C1447 C1446 1.287 . S
C1447 C1448 1.524 . S
C1447 H1450 0.999 . S
C1448 H1418 0.950 . S
C1448 C1447 1.524 . S
C1448 C1449 1.415 . S
C1449 H1419 0.950 . S
C1449 C1444 1.363 . S
C1449 C1448 1.415 . S
H1450 C1447 0.999 . S
H1451 C1432 0.913 . S
H1452 C1470 0.951 . S
H1453 C1472 0.951 . S
H1454 C1474 0.950 . S
H1455 C1475 0.950 . S
H1456 C1477 0.950 . S
H1457 C1480 0.950 . S
H1458 C1481 0.950 . S
H1459 C1483 0.950 . S
H1460 C1484 0.950 . S
H1461 C1485 0.951 . S
H1462 C1487 0.951 . S
H1463 C1489 0.950 . S
H1464 C1490 0.950 . S
H1465 C1492 0.950 . S
H1466 C1495 0.950 . S
H1467 C1496 0.950 . S
H1468 C1498 0.950 . S
H1469 C1499 0.950 . S
C1470 H1452 0.951 . S
C1470 C1471 1.366 . S
C1470 C1472 1.388 . S
C1471 C1470 1.366 . S
C1471 C1475 1.385 . S
C1472 H1453 0.951 . S
C1472 C1470 1.388 . S
C1472 C1473 1.366 . S
C1473 C1472 1.366 . S
C1473 C1474 1.414 . S
C1473 C1476 1.499 . S
C1474 H1454 0.950 . S
C1474 C1473 1.414 . S
C1474 C1475 1.374 . S
C1475 H1455 0.950 . S
C1475 C1471 1.385 . S
C1475 C1474 1.374 . S
C1476 C1473 1.499 . S
C1476 C1477 1.373 . S
C1476 C1478 1.389 . S
C1477 H1456 0.950 . S
C1477 C1476 1.373 . S
C1477 C1493 1.377 . S
C1478 C1476 1.389 . S
C1478 C1479 1.524 . S
C1478 C1492 1.377 . S
C1479 C1478 1.524 . S
C1479 C1480 1.397 . S
C1479 C1484 1.363 . S
C1480 H1457 0.950 . S
C1480 C1479 1.397 . S
C1480 C1481 1.334 . S
C1481 H1458 0.950 . S
C1481 C1480 1.334 . S
C1481 C1482 1.287 . S
C1482 C1481 1.287 . S
C1482 C1483 1.524 . S
C1482 H1501 0.913 . S
C1483 H1459 0.950 . S
C1483 C1482 1.524 . S
C1483 C1484 1.415 . S
C1484 H1460 0.950 . S
C1484 C1479 1.363 . S
C1484 C1483 1.415 . S
C1485 H1461 0.951 . S
C1485 C1486 1.366 . S
C1485 C1487 1.388 . S
C1486 C1485 1.366 . S
C1486 C1490 1.385 . S
C1487 H1462 0.951 . S
C1487 C1485 1.388 . S
C1487 C1488 1.366 . S
C1488 C1487 1.366 . S
C1488 C1489 1.414 . S
C1488 C1491 1.499 . S
C1489 H1463 0.950 . S
C1489 C1488 1.414 . S
C1489 C1490 1.374 . S
C1490 H1464 0.950 . S
C1490 C1486 1.385 . S
C1490 C1489 1.374 . S
C1491 C1488 1.499 . S
C1491 C1492 1.373 . S
C1491 C1493 1.389 . S
C1492 H1465 0.950 . S
C1492 C1478 1.377 . S
C1492 C1491 1.373 . S
C1493 C1477 1.377 . S
C1493 C1491 1.389 . S
C1493 C1494 1.524 . S
C1494 C1493 1.524 . S
C1494 C1495 1.397 . S
C1494 C1499 1.363 . S
C1495 H1466 0.950 . S
C1495 C1494 1.397 . S
C1495 C1496 1.334 . S
C1496 H1467 0.950 . S
C1496 C1495 1.334 . S
C1496 C1497 1.287 . S
C1497 C1496 1.287 . S
C1497 C1498 1.524 . S
C1497 H1500 0.999 . S
C1498 H1468 0.950 . S
C1498 C1497 1.524 . S
C1498 C1499 1.415 . S
C1499 H1469 0.950 . S
C1499 C1494 1.363 . S
C1499 C1498 1.415 . S
H1500 C1497 0.999 . S
H1501 C1482 0.913 . S
H1502 C1520 0.951 . S
H1503 C1522 0.951 . S
H1504 C1524 0.950 . S
H1505 C1525 0.950 . S
H1506 C1527 0.950 . S
H1507 C1530 0.950 . S
H1508 C1531 0.950 . S
H1509 C1533 0.950 . S
H1510 C1534 0.950 . S
H1511 C1535 0.951 . S
H1512 C1537 0.951 . S
H1513 C1539 0.950 . S
H1514 C1540 0.950 . S
H1515 C1542 0.950 . S
H1516 C1545 0.950 . S
H1517 C1546 0.950 . S
H1518 C1548 0.950 . S
H1519 C1549 0.950 . S
C1520 H1502 0.951 . S
C1520 C1521 1.366 . S
C1520 C1522 1.388 . S
C1521 C1520 1.366 . S
C1521 C1525 1.385 . S
C1522 H1503 0.951 . S
C1522 C1520 1.388 . S
C1522 C1523 1.366 . S
C1523 C1522 1.366 . S
C1523 C1524 1.414 . S
C1523 C1526 1.499 . S
C1524 H1504 0.950 . S
C1524 C1523 1.414 . S
C1524 C1525 1.374 . S
C1525 H1505 0.950 . S
C1525 C1521 1.385 . S
C1525 C1524 1.374 . S
C1526 C1523 1.499 . S
C1526 C1527 1.373 . S
C1526 C1528 1.389 . S
C1527 H1506 0.950 . S
C1527 C1526 1.373 . S
C1527 C1543 1.377 . S
C1528 C1526 1.389 . S
C1528 C1529 1.524 . S
C1528 C1542 1.377 . S
C1529 C1528 1.524 . S
C1529 C1530 1.397 . S
C1529 C1534 1.363 . S
C1530 H1507 0.950 . S
C1530 C1529 1.397 . S
C1530 C1531 1.334 . S
C1531 H1508 0.950 . S
C1531 C1530 1.334 . S
C1531 C1532 1.287 . S
C1532 C1531 1.287 . S
C1532 C1533 1.524 . S
C1532 H1551 0.913 . S
C1533 H1509 0.950 . S
C1533 C1532 1.524 . S
C1533 C1534 1.415 . S
C1534 H1510 0.950 . S
C1534 C1529 1.363 . S
C1534 C1533 1.415 . S
C1535 H1511 0.951 . S
C1535 C1536 1.366 . S
C1535 C1537 1.388 . S
C1536 C1535 1.366 . S
C1536 C1540 1.385 . S
C1537 H1512 0.951 . S
C1537 C1535 1.388 . S
C1537 C1538 1.366 . S
C1538 C1537 1.366 . S
C1538 C1539 1.414 . S
C1538 C1541 1.499 . S
C1539 H1513 0.950 . S
C1539 C1538 1.414 . S
C1539 C1540 1.374 . S
C1540 H1514 0.950 . S
C1540 C1536 1.385 . S
C1540 C1539 1.374 . S
C1541 C1538 1.499 . S
C1541 C1542 1.373 . S
C1541 C1543 1.389 . S
C1542 H1515 0.950 . S
C1542 C1528 1.377 . S
C1542 C1541 1.373 . S
C1543 C1527 1.377 . S
C1543 C1541 1.389 . S
C1543 C1544 1.524 . S
C1544 C1543 1.524 . S
C1544 C1545 1.397 . S
C1544 C1549 1.363 . S
C1545 H1516 0.950 . S
C1545 C1544 1.397 . S
C1545 C1546 1.334 . S
C1546 H1517 0.950 . S
C1546 C1545 1.334 . S
C1546 C1547 1.287 . S
C1547 C1546 1.287 . S
C1547 C1548 1.524 . S
C1547 H1550 0.999 . S
C1548 H1518 0.950 . S
C1548 C1547 1.524 . S
C1548 C1549 1.415 . S
C1549 H1519 0.950 . S
C1549 C1544 1.363 . S
C1549 C1548 1.415 . S
H1550 C1547 0.999 . S
H1551 C1532 0.913 . S
H1552 C1570 0.951 . S
H1553 C1572 0.951 . S
H1554 C1574 0.950 . S
H1555 C1575 0.950 . S
H1556 C1577 0.950 . S
H1557 C1580 0.950 . S
H1558 C1581 0.950 . S
H1559 C1583 0.950 . S
H1560 C1584 0.950 . S
H1561 C1585 0.951 . S
H1562 C1587 0.951 . S
H1563 C1589 0.950 . S
H1564 C1590 0.950 . S
H1565 C1592 0.950 . S
H1566 C1595 0.950 . S
H1567 C1596 0.950 . S
H1568 C1598 0.950 . S
H1569 C1599 0.950 . S
C1570 H1552 0.951 . S
C1570 C1571 1.366 . S
C1570 C1572 1.388 . S
C1571 C1570 1.366 . S
C1571 C1575 1.385 . S
C1572 H1553 0.951 . S
C1572 C1570 1.388 . S
C1572 C1573 1.366 . S
C1573 C1572 1.366 . S
C1573 C1574 1.414 . S
C1573 C1576 1.499 . S
C1574 H1554 0.950 . S
C1574 C1573 1.414 . S
C1574 C1575 1.374 . S
C1575 H1555 0.950 . S
C1575 C1571 1.385 . S
C1575 C1574 1.374 . S
C1576 C1573 1.499 . S
C1576 C1577 1.373 . S
C1576 C1578 1.389 . S
C1577 H1556 0.950 . S
C1577 C1576 1.373 . S
C1577 C1593 1.377 . S
C1578 C1576 1.389 . S
C1578 C1579 1.524 . S
C1578 C1592 1.377 . S
C1579 C1578 1.524 . S
C1579 C1580 1.397 . S
C1579 C1584 1.363 . S
C1580 H1557 0.950 . S
C1580 C1579 1.397 . S
C1580 C1581 1.334 . S
C1581 H1558 0.950 . S
C1581 C1580 1.334 . S
C1581 C1582 1.287 . S
C1582 C1581 1.287 . S
C1582 C1583 1.524 . S
C1582 H1601 0.913 . S
C1583 H1559 0.950 . S
C1583 C1582 1.524 . S
C1583 C1584 1.415 . S
C1584 H1560 0.950 . S
C1584 C1579 1.363 . S
C1584 C1583 1.415 . S
C1585 H1561 0.951 . S
C1585 C1586 1.366 . S
C1585 C1587 1.388 . S
C1586 C1585 1.366 . S
C1586 C1590 1.385 . S
C1587 H1562 0.951 . S
C1587 C1585 1.388 . S
C1587 C1588 1.366 . S
C1588 C1587 1.366 . S
C1588 C1589 1.414 . S
C1588 C1591 1.499 . S
C1589 H1563 0.950 . S
C1589 C1588 1.414 . S
C1589 C1590 1.374 . S
C1590 H1564 0.950 . S
C1590 C1586 1.385 . S
C1590 C1589 1.374 . S
C1591 C1588 1.499 . S
C1591 C1592 1.373 . S
C1591 C1593 1.389 . S
C1592 H1565 0.950 . S
C1592 C1578 1.377 . S
C1592 C1591 1.373 . S
C1593 C1577 1.377 . S
C1593 C1591 1.389 . S
C1593 C1594 1.524 . S
C1594 C1593 1.524 . S
C1594 C1595 1.397 . S
C1594 C1599 1.363 . S
C1595 H1566 0.950 . S
C1595 C1594 1.397 . S
C1595 C1596 1.334 . S
C1596 H1567 0.950 . S
C1596 C1595 1.334 . S
C1596 C1597 1.287 . S
C1597 C1596 1.287 . S
C1597 C1598 1.524 . S
C1597 H1600 0.999 . S
C1598 H1568 0.950 . S
C1598 C1597 1.524 . S
C1598 C1599 1.415 . S
C1599 H1569 0.950 . S
C1599 C1594 1.363 . S
C1599 C1598 1.415 . S
H1600 C1597 0.999 . S
H1601 C1582 0.913 . S
H1602 C1620 0.951 . S
H1603 C1622 0.951 . S
H1604 C1624 0.950 . S
H1605 C1625 0.950 . S
H1606 C1627 0.950 . S
H1607 C1630 0.950 . S
H1608 C1631 0.950 . S
H1609 C1633 0.950 . S
H1610 C1634 0.950 . S
H1611 C1635 0.951 . S
H1612 C1637 0.951 . S
H1613 C1639 0.950 . S
H1614 C1640 0.950 . S
H1615 C1642 0.950 . S
H1616 C1645 0.950 . S
H1617 C1646 0.950 . S
H1618 C1648 0.950 . S
H1619 C1649 0.950 . S
C1620 H1602 0.951 . S
C1620 C1621 1.366 . S
C1620 C1622 1.388 . S
C1621 C1620 1.366 . S
C1621 C1625 1.385 . S
C1622 H1603 0.951 . S
C1622 C1620 1.388 . S
C1622 C1623 1.366 . S
C1623 C1622 1.366 . S
C1623 C1624 1.414 . S
C1623 C1626 1.499 . S
C1624 H1604 0.950 . S
C1624 C1623 1.414 . S
C1624 C1625 1.374 . S
C1625 H1605 0.950 . S
C1625 C1621 1.385 . S
C1625 C1624 1.374 . S
C1626 C1623 1.499 . S
C1626 C1627 1.373 . S
C1626 C1628 1.389 . S
C1627 H1606 0.950 . S
C1627 C1626 1.373 . S
C1627 C1643 1.377 . S
C1628 C1626 1.389 . S
C1628 C1629 1.524 . S
C1628 C1642 1.377 . S
C1629 C1628 1.524 . S
C1629 C1630 1.397 . S
C1629 C1634 1.363 . S
C1630 H1607 0.950 . S
C1630 C1629 1.397 . S
C1630 C1631 1.334 . S
C1631 H1608 0.950 . S
C1631 C1630 1.334 . S
C1631 C1632 1.287 . S
C1632 C1631 1.287 . S
C1632 C1633 1.524 . S
C1632 H1651 0.913 . S
C1633 H1609 0.950 . S
C1633 C1632 1.524 . S
C1633 C1634 1.415 . S
C1634 H1610 0.950 . S
C1634 C1629 1.363 . S
C1634 C1633 1.415 . S
C1635 H1611 0.951 . S
C1635 C1636 1.366 . S
C1635 C1637 1.388 . S
C1636 C1635 1.366 . S
C1636 C1640 1.385 . S
C1637 H1612 0.951 . S
C1637 C1635 1.388 . S
C1637 C1638 1.366 . S
C1638 C1637 1.366 . S
C1638 C1639 1.414 . S
C1638 C1641 1.499 . S
C1639 H1613 0.950 . S
C1639 C1638 1.414 . S
C1639 C1640 1.374 . S
C1640 H1614 0.950 . S
C1640 C1636 1.385 . S
C1640 C1639 1.374 . S
C1641 C1638 1.499 . S
C1641 C1642 1.373 . S
C1641 C1643 1.389 . S
C1642 H1615 0.950 . S
C1642 C1628 1.377 . S
C1642 C1641 1.373 . S
C1643 C1627 1.377 . S
C1643 C1641 1.389 . S
C1643 C1644 1.524 . S
C1644 C1643 1.524 . S
C1644 C1645 1.397 . S
C1644 C1649 1.363 . S
C1645 H1616 0.950 . S
C1645 C1644 1.397 . S
C1645 C1646 1.334 . S
C1646 H1617 0.950 . S
C1646 C1645 1.334 . S
C1646 C1647 1.287 . S
C1647 C1646 1.287 . S
C1647 C1648 1.524 . S
C1647 H1650 0.999 . S
C1648 H1618 0.950 . S
C1648 C1647 1.524 . S
C1648 C1649 1.415 . S
C1649 H1619 0.950 . S
C1649 C1644 1.363 . S
C1649 C1648 1.415 . S
H1650 C1647 0.999 . S
H1651 C1632 0.913 . S
H1652 C1670 0.951 . S
H1653 C1672 0.951 . S
H1654 C1674 0.950 . S
H1655 C1675 0.950 . S
H1656 C1677 0.950 . S
H1657 C1680 0.950 . S
H1658 C1681 0.950 . S
H1659 C1683 0.950 . S
H1660 C1684 0.950 . S
H1661 C1685 0.951 . S
H1662 C1687 0.951 . S
H1663 C1689 0.950 . S
H1664 C1690 0.950 . S
H1665 C1692 0.950 . S
H1666 C1695 0.950 . S
H1667 C1696 0.950 . S
H1668 C1698 0.950 . S
H1669 C1699 0.950 . S
C1670 H1652 0.951 . S
C1670 C1671 1.366 . S
C1670 C1672 1.388 . S
C1671 C1670 1.366 . S
C1671 C1675 1.385 . S
C1672 H1653 0.951 . S
C1672 C1670 1.388 . S
C1672 C1673 1.366 . S
C1673 C1672 1.366 . S
C1673 C1674 1.414 . S
C1673 C1676 1.499 . S
C1674 H1654 0.950 . S
C1674 C1673 1.414 . S
C1674 C1675 1.374 . S
C1675 H1655 0.950 . S
C1675 C1671 1.385 . S
C1675 C1674 1.374 . S
C1676 C1673 1.499 . S
C1676 C1677 1.373 . S
C1676 C1678 1.389 . S
C1677 H1656 0.950 . S
C1677 C1676 1.373 . S
C1677 C1693 1.377 . S
C1678 C1676 1.389 . S
C1678 C1679 1.524 . S
C1678 C1692 1.377 . S
C1679 C1678 1.524 . S
C1679 C1680 1.397 . S
C1679 C1684 1.363 . S
C1680 H1657 0.950 . S
C1680 C1679 1.397 . S
C1680 C1681 1.334 . S
C1681 H1658 0.950 . S
C1681 C1680 1.334 . S
C1681 C1682 1.287 . S
C1682 C1681 1.287 . S
C1682 C1683 1.524 . S
C1682 H1701 0.913 . S
C1683 H1659 0.950 . S
C1683 C1682 1.524 . S
C1683 C1684 1.415 . S
C1684 H1660 0.950 . S
C1684 C1679 1.363 . S
C1684 C1683 1.415 . S
C1685 H1661 0.951 . S
C1685 C1686 1.366 . S
C1685 C1687 1.388 . S
C1686 C1685 1.366 . S
C1686 C1690 1.385 . S
C1687 H1662 0.951 . S
C1687 C1685 1.388 . S
C1687 C1688 1.366 . S
C1688 C1687 1.366 . S
C1688 C1689 1.414 . S
C1688 C1691 1.499 . S
C1689 H1663 0.950 . S
C1689 C1688 1.414 . S
C1689 C1690 1.374 . S
C1690 H1664 0.950 . S
C1690 C1686 1.385 . S
C1690 C1689 1.374 . S
C1691 C1688 1.499 . S
C1691 C1692 1.373 . S
C1691 C1693 1.389 . S
C1692 H1665 0.950 . S
C1692 C1678 1.377 . S
C1692 C1691 1.373 . S
C1693 C1677 1.377 . S
C1693 C1691 1.389 . S
C1693 C1694 1.524 . S
C1694 C1693 1.524 . S
C1694 C1695 1.397 . S
C1694 C1699 1.363 . S
C1695 H1666 0.950 . S
C1695 C1694 1.397 . S
C1695 C1696 1.334 . S
C1696 H1667 0.950 . S
C1696 C1695 1.334 . S
C1696 C1697 1.287 . S
C1697 C1696 1.287 . S
C1697 C1698 1.524 . S
C1697 H1700 0.999 . S
C1698 H1668 0.950 . S
C1698 C1697 1.524 . S
C1698 C1699 1.415 . S
C1699 H1669 0.950 . S
C1699 C1694 1.363 . S
C1699 C1698 1.415 . S
H1700 C1697 0.999 . S
H1701 C1682 0.913 . S
H1702 C1720 0.951 . S
H1703 C1722 0.951 . S
H1704 C1724 0.950 . S
H1705 C1725 0.950 . S
H1706 C1727 0.950 . S
H1707 C1730 0.950 . S
H1708 C1731 0.950 . S
H1709 C1733 0.950 . S
H1710 C1734 0.950 . S
H1711 C1735 0.951 . S
H1712 C1737 0.951 . S
H1713 C1739 0.950 . S
H1714 C1740 0.950 . S
H1715 C1742 0.950 . S
H1716 C1745 0.950 . S
H1717 C1746 0.950 . S
H1718 C1748 0.950 . S
H1719 C1749 0.950 . S
C1720 H1702 0.951 . S
C1720 C1721 1.366 . S
C1720 C1722 1.388 . S
C1721 C1720 1.366 . S
C1721 C1725 1.385 . S
C1722 H1703 0.951 . S
C1722 C1720 1.388 . S
C1722 C1723 1.366 . S
C1723 C1722 1.366 . S
C1723 C1724 1.414 . S
C1723 C1726 1.499 . S
C1724 H1704 0.950 . S
C1724 C1723 1.414 . S
C1724 C1725 1.374 . S
C1725 H1705 0.950 . S
C1725 C1721 1.385 . S
C1725 C1724 1.374 . S
C1726 C1723 1.499 . S
C1726 C1727 1.373 . S
C1726 C1728 1.389 . S
C1727 H1706 0.950 . S
C1727 C1726 1.373 . S
C1727 C1743 1.377 . S
C1728 C1726 1.389 . S
C1728 C1729 1.524 . S
C1728 C1742 1.377 . S
C1729 C1728 1.524 . S
C1729 C1730 1.397 . S
C1729 C1734 1.363 . S
C1730 H1707 0.950 . S
C1730 C1729 1.397 . S
C1730 C1731 1.334 . S
C1731 H1708 0.950 . S
C1731 C1730 1.334 . S
C1731 C1732 1.287 . S
C1732 C1731 1.287 . S
C1732 C1733 1.524 . S
C1732 H1751 0.913 . S
C1733 H1709 0.950 . S
C1733 C1732 1.524 . S
C1733 C1734 1.415 . S
C1734 H1710 0.950 . S
C1734 C1729 1.363 . S
C1734 C1733 1.415 . S
C1735 H1711 0.951 . S
C1735 C1736 1.366 . S
C1735 C1737 1.388 . S
C1736 C1735 1.366 . S
C1736 C1740 1.385 . S
C1737 H1712 0.951 . S
C1737 C1735 1.388 . S
C1737 C1738 1.366 . S
C1738 C1737 1.366 . S
C1738 C1739 1.414 . S
C1738 C1741 1.499 . S
C1739 H1713 0.950 . S
C1739 C1738 1.414 . S
C1739 C1740 1.374 . S
C1740 H1714 0.950 . S
C1740 C1736 1.385 . S
C1740 C1739 1.374 . S
C1741 C1738 1.499 . S
C1741 C1742 1.373 . S
C1741 C1743 1.389 . S
C1742 H1715 0.950 . S
C1742 C1728 1.377 . S
C1742 C1741 1.373 . S
C1743 C1727 1.377 . S
C1743 C1741 1.389 . S
C1743 C1744 1.524 . S
C1744 C1743 1.524 . S
C1744 C1745 1.397 . S
C1744 C1749 1.363 . S
C1745 H1716 0.950 . S
C1745 C1744 1.397 . S
C1745 C1746 1.334 . S
C1746 H1717 0.950 . S
C1746 C1745 1.334 . S
C1746 C1747 1.287 . S
C1747 C1746 1.287 . S
C1747 C1748 1.524 . S
C1747 H1750 0.999 . S
C1748 H1718 0.950 . S
C1748 C1747 1.524 . S
C1748 C1749 1.415 . S
C1749 H1719 0.950 . S
C1749 C1744 1.363 . S
C1749 C1748 1.415 . S
H1750 C1747 0.999 . S
H1751 C1732 0.913 . S
H1752 C1770 0.951 . S
H1753 C1772 0.951 . S
H1754 C1774 0.950 . S
H1755 C1775 0.950 . S
H1756 C1777 0.950 . S
H1757 C1780 0.950 . S
H1758 C1781 0.950 . S
H1759 C1783 0.950 . S
H1760 C1784 0.950 . S
H1761 C1785 0.951 . S
H1762 C1787 0.951 . S
H1763 C1789 0.950 . S
H1764 C1790 0.950 . S
H1765 C1792 0.950 . S
H1766 C1795 0.950 . S
H1767 C1796 0.950 . S
H1768 C1798 0.950 . S
H1769 C1799 0.950 . S
C1770 H1752 0.951 . S
C1770 C1771 1.366 . S
C1770 C1772 1.388 . S
C1771 C1770 1.366 . S
C1771 C1775 1.385 . S
C1772 H1753 0.951 . S
C1772 C1770 1.388 . S
C1772 C1773 1.366 . S
C1773 C1772 1.366 . S
C1773 C1774 1.414 . S
C1773 C1776 1.499 . S
C1774 H1754 0.950 . S
C1774 C1773 1.414 . S
C1774 C1775 1.374 . S
C1775 H1755 0.950 . S
C1775 C1771 1.385 . S
C1775 C1774 1.374 . S
C1776 C1773 1.499 . S
C1776 C1777 1.373 . S
C1776 C1778 1.389 . S
C1777 H1756 0.950 . S
C1777 C1776 1.373 . S
C1777 C1793 1.377 1_545 S
C1778 C1776 1.389 . S
C1778 C1779 1.524 . S
C1778 C1792 1.377 1_545 S
C1779 C1778 1.524 . S
C1779 C1780 1.397 . S
C1779 C1784 1.363 1_545 S
C1780 H1757 0.950 . S
C1780 C1779 1.397 . S
C1780 C1781 1.334 . S
C1781 H1758 0.950 . S
C1781 C1780 1.334 . S
C1781 C1782 1.287 . S
C1782 C1781 1.287 . S
C1782 C1783 1.524 1_545 S
C1782 H1801 0.913 . S
C1783 H1759 0.950 . S
C1783 C1782 1.524 1_565 S
C1783 C1784 1.415 . S
C1784 H1760 0.950 . S
C1784 C1779 1.363 1_565 S
C1784 C1783 1.415 . S
C1785 H1761 0.951 . S
C1785 C1786 1.366 . S
C1785 C1787 1.388 . S
C1786 C1785 1.366 . S
C1786 C1790 1.385 . S
C1787 H1762 0.951 . S
C1787 C1785 1.388 . S
C1787 C1788 1.366 . S
C1788 C1787 1.366 . S
C1788 C1789 1.414 . S
C1788 C1791 1.499 . S
C1789 H1763 0.950 . S
C1789 C1788 1.414 . S
C1789 C1790 1.374 . S
C1790 H1764 0.950 . S
C1790 C1786 1.385 . S
C1790 C1789 1.374 . S
C1791 C1788 1.499 . S
C1791 C1792 1.373 . S
C1791 C1793 1.389 . S
C1792 H1765 0.950 . S
C1792 C1778 1.377 1_565 S
C1792 C1791 1.373 . S
C1793 C1777 1.377 1_565 S
C1793 C1791 1.389 . S
C1793 C1794 1.524 . S
C1794 C1793 1.524 . S
C1794 C1795 1.397 . S
C1794 C1799 1.363 1_565 S
C1795 H1766 0.950 . S
C1795 C1794 1.397 . S
C1795 C1796 1.334 . S
C1796 H1767 0.950 . S
C1796 C1795 1.334 . S
C1796 C1797 1.287 . S
C1797 C1796 1.287 . S
C1797 C1798 1.524 1_565 S
C1797 H1800 0.999 . S
C1798 H1768 0.950 . S
C1798 C1797 1.524 1_545 S
C1798 C1799 1.415 . S
C1799 H1769 0.950 . S
C1799 C1794 1.363 1_545 S
C1799 C1798 1.415 . S
H1800 C1797 0.999 . S
H1801 C1782 0.913 . S
H1802 C1820 0.951 . S
H1803 C1822 0.951 . S
H1804 C1824 0.950 . S
H1805 C1825 0.950 . S
H1806 C1827 0.950 . S
H1807 C1830 0.950 . S
H1808 C1831 0.950 . S
H1809 C1833 0.950 . S
H1810 C1834 0.950 . S
H1811 C1835 0.951 . S
H1812 C1837 0.951 . S
H1813 C1839 0.950 . S
H1814 C1840 0.950 . S
H1815 C1842 0.950 . S
H1816 C1845 0.950 . S
H1817 C1846 0.950 . S
H1818 C1848 0.950 . S
H1819 C1849 0.950 . S
C1820 H1802 0.951 . S
C1820 C1821 1.366 . S
C1820 C1822 1.388 . S
C1821 C1820 1.366 . S
C1821 C1825 1.385 . S
C1822 H1803 0.951 . S
C1822 C1820 1.388 . S
C1822 C1823 1.366 . S
C1823 C1822 1.366 . S
C1823 C1824 1.414 . S
C1823 C1826 1.499 . S
C1824 H1804 0.950 . S
C1824 C1823 1.414 . S
C1824 C1825 1.374 . S
C1825 H1805 0.950 . S
C1825 C1821 1.385 . S
C1825 C1824 1.374 . S
C1826 C1823 1.499 . S
C1826 C1827 1.373 . S
C1826 C1828 1.389 . S
C1827 H1806 0.950 . S
C1827 C1826 1.373 . S
C1827 C1843 1.377 1_545 S
C1828 C1826 1.389 . S
C1828 C1829 1.524 . S
C1828 C1842 1.377 1_545 S
C1829 C1828 1.524 . S
C1829 C1830 1.397 . S
C1829 C1834 1.363 1_545 S
C1830 H1807 0.950 . S
C1830 C1829 1.397 . S
C1830 C1831 1.334 . S
C1831 H1808 0.950 . S
C1831 C1830 1.334 . S
C1831 C1832 1.287 . S
C1832 C1831 1.287 . S
C1832 C1833 1.524 1_545 S
C1832 H1851 0.913 . S
C1833 H1809 0.950 . S
C1833 C1832 1.524 1_565 S
C1833 C1834 1.415 . S
C1834 H1810 0.950 . S
C1834 C1829 1.363 1_565 S
C1834 C1833 1.415 . S
C1835 H1811 0.951 . S
C1835 C1836 1.366 . S
C1835 C1837 1.388 . S
C1836 C1835 1.366 . S
C1836 C1840 1.385 . S
C1837 H1812 0.951 . S
C1837 C1835 1.388 . S
C1837 C1838 1.366 . S
C1838 C1837 1.366 . S
C1838 C1839 1.414 . S
C1838 C1841 1.499 . S
C1839 H1813 0.950 . S
C1839 C1838 1.414 . S
C1839 C1840 1.374 . S
C1840 H1814 0.950 . S
C1840 C1836 1.385 . S
C1840 C1839 1.374 . S
C1841 C1838 1.499 . S
C1841 C1842 1.373 . S
C1841 C1843 1.389 . S
C1842 H1815 0.950 . S
C1842 C1828 1.377 1_565 S
C1842 C1841 1.373 . S
C1843 C1827 1.377 1_565 S
C1843 C1841 1.389 . S
C1843 C1844 1.524 . S
C1844 C1843 1.524 . S
C1844 C1845 1.397 . S
C1844 C1849 1.363 1_565 S
C1845 H1816 0.950 . S
C1845 C1844 1.397 . S
C1845 C1846 1.334 . S
C1846 H1817 0.950 . S
C1846 C1845 1.334 . S
C1846 C1847 1.287 . S
C1847 C1846 1.287 . S
C1847 C1848 1.524 1_565 S
C1847 H1850 0.999 . S
C1848 H1818 0.950 . S
C1848 C1847 1.524 1_545 S
C1848 C1849 1.415 . S
C1849 H1819 0.950 . S
C1849 C1844 1.363 1_545 S
C1849 C1848 1.415 . S
H1850 C1847 0.999 . S
H1851 C1832 0.913 . S
H1852 C1870 0.951 . S
H1853 C1872 0.951 . S
H1854 C1874 0.950 . S
H1855 C1875 0.950 . S
H1856 C1877 0.950 . S
H1857 C1880 0.950 . S
H1858 C1881 0.950 . S
H1859 C1883 0.950 . S
H1860 C1884 0.950 . S
H1861 C1885 0.951 . S
H1862 C1887 0.951 . S
H1863 C1889 0.950 . S
H1864 C1890 0.950 . S
H1865 C1892 0.950 . S
H1866 C1895 0.950 . S
H1867 C1896 0.950 . S
H1868 C1898 0.950 . S
H1869 C1899 0.950 . S
C1870 H1852 0.951 . S
C1870 C1871 1.366 . S
C1870 C1872 1.388 . S
C1871 C1870 1.366 . S
C1871 C1875 1.385 . S
C1872 H1853 0.951 . S
C1872 C1870 1.388 . S
C1872 C1873 1.366 . S
C1873 C1872 1.366 . S
C1873 C1874 1.414 . S
C1873 C1876 1.499 . S
C1874 H1854 0.950 . S
C1874 C1873 1.414 . S
C1874 C1875 1.374 . S
C1875 H1855 0.950 . S
C1875 C1871 1.385 . S
C1875 C1874 1.374 . S
C1876 C1873 1.499 . S
C1876 C1877 1.373 1_565 S
C1876 C1878 1.389 . S
C1877 H1856 0.950 . S
C1877 C1876 1.373 1_545 S
C1877 C1893 1.377 . S
C1878 C1876 1.389 . S
C1878 C1879 1.524 . S
C1878 C1892 1.377 . S
C1879 C1878 1.524 . S
C1879 C1880 1.397 . S
C1879 C1884 1.363 . S
C1880 H1857 0.950 . S
C1880 C1879 1.397 . S
C1880 C1881 1.334 . S
C1881 H1858 0.950 . S
C1881 C1880 1.334 . S
C1881 C1882 1.287 . S
C1882 C1881 1.287 . S
C1882 C1883 1.524 . S
C1882 H1901 0.913 . S
C1883 H1859 0.950 . S
C1883 C1882 1.524 . S
C1883 C1884 1.415 . S
C1884 H1860 0.950 . S
C1884 C1879 1.363 . S
C1884 C1883 1.415 . S
C1885 H1861 0.951 . S
C1885 C1886 1.366 . S
C1885 C1887 1.388 . S
C1886 C1885 1.366 . S
C1886 C1890 1.385 . S
C1887 H1862 0.951 . S
C1887 C1885 1.388 . S
C1887 C1888 1.366 . S
C1888 C1887 1.366 . S
C1888 C1889 1.414 . S
C1888 C1891 1.499 . S
C1889 H1863 0.950 . S
C1889 C1888 1.414 . S
C1889 C1890 1.374 . S
C1890 H1864 0.950 . S
C1890 C1886 1.385 . S
C1890 C1889 1.374 . S
C1891 C1888 1.499 . S
C1891 C1892 1.373 1_545 S
C1891 C1893 1.389 . S
C1892 H1865 0.950 . S
C1892 C1878 1.377 . S
C1892 C1891 1.373 1_565 S
C1893 C1877 1.377 . S
C1893 C1891 1.389 . S
C1893 C1894 1.524 . S
C1894 C1893 1.524 . S
C1894 C1895 1.397 . S
C1894 C1899 1.363 . S
C1895 H1866 0.950 . S
C1895 C1894 1.397 . S
C1895 C1896 1.334 . S
C1896 H1867 0.950 . S
C1896 C1895 1.334 . S
C1896 C1897 1.287 . S
C1897 C1896 1.287 . S
C1897 C1898 1.524 . S
C1897 H1900 0.999 . S
C1898 H1868 0.950 . S
C1898 C1897 1.524 . S
C1898 C1899 1.415 . S
C1899 H1869 0.950 . S
C1899 C1894 1.363 . S
C1899 C1898 1.415 . S
H1900 C1897 0.999 . S
H1901 C1882 0.913 . S
H1902 C1920 0.951 . S
H1903 C1922 0.951 . S
H1904 C1924 0.950 . S
H1905 C1925 0.950 . S
H1906 C1927 0.950 . S
H1907 C1930 0.950 . S
H1908 C1931 0.950 . S
H1909 C1933 0.950 . S
H1910 C1934 0.950 . S
H1911 C1935 0.951 . S
H1912 C1937 0.951 . S
H1913 C1939 0.950 . S
H1914 C1940 0.950 . S
H1915 C1942 0.950 . S
H1916 C1945 0.950 . S
H1917 C1946 0.950 . S
H1918 C1948 0.950 . S
H1919 C1949 0.950 . S
C1920 H1902 0.951 . S
C1920 C1921 1.366 . S
C1920 C1922 1.388 . S
C1921 C1920 1.366 . S
C1921 C1925 1.385 . S
C1922 H1903 0.951 . S
C1922 C1920 1.388 . S
C1922 C1923 1.366 . S
C1923 C1922 1.366 . S
C1923 C1924 1.414 . S
C1923 C1926 1.499 . S
C1924 H1904 0.950 . S
C1924 C1923 1.414 . S
C1924 C1925 1.374 . S
C1925 H1905 0.950 . S
C1925 C1921 1.385 . S
C1925 C1924 1.374 . S
C1926 C1923 1.499 . S
C1926 C1927 1.373 . S
C1926 C1928 1.389 1_565 S
C1927 H1906 0.950 . S
C1927 C1926 1.373 . S
C1927 C1943 1.377 . S
C1928 C1926 1.389 1_545 S
C1928 C1929 1.524 . S
C1928 C1942 1.377 . S
C1929 C1928 1.524 . S
C1929 C1930 1.397 1_545 S
C1929 C1934 1.363 . S
C1930 H1907 0.950 . S
C1930 C1929 1.397 1_565 S
C1930 C1931 1.334 . S
C1931 H1908 0.950 . S
C1931 C1930 1.334 . S
C1931 C1932 1.287 1_565 S
C1932 C1931 1.287 1_545 S
C1932 C1933 1.524 . S
C1932 H1951 0.913 . S
C1933 H1909 0.950 . S
C1933 C1932 1.524 . S
C1933 C1934 1.415 . S
C1934 H1910 0.950 . S
C1934 C1929 1.363 . S
C1934 C1933 1.415 . S
C1935 H1911 0.951 . S
C1935 C1936 1.366 . S
C1935 C1937 1.388 . S
C1936 C1935 1.366 . S
C1936 C1940 1.385 . S
C1937 H1912 0.951 . S
C1937 C1935 1.388 . S
C1937 C1938 1.366 . S
C1938 C1937 1.366 . S
C1938 C1939 1.414 . S
C1938 C1941 1.499 . S
C1939 H1913 0.950 . S
C1939 C1938 1.414 . S
C1939 C1940 1.374 . S
C1940 H1914 0.950 . S
C1940 C1936 1.385 . S
C1940 C1939 1.374 . S
C1941 C1938 1.499 . S
C1941 C1942 1.373 . S
C1941 C1943 1.389 1_545 S
C1942 H1915 0.950 . S
C1942 C1928 1.377 . S
C1942 C1941 1.373 . S
C1943 C1927 1.377 . S
C1943 C1941 1.389 1_565 S
C1943 C1944 1.524 . S
C1944 C1943 1.524 . S
C1944 C1945 1.397 1_565 S
C1944 C1949 1.363 . S
C1945 H1916 0.950 . S
C1945 C1944 1.397 1_545 S
C1945 C1946 1.334 . S
C1946 H1917 0.950 . S
C1946 C1945 1.334 . S
C1946 C1947 1.287 1_545 S
C1947 C1946 1.287 1_565 S
C1947 C1948 1.524 . S
C1947 H1950 0.999 . S
C1948 H1918 0.950 . S
C1948 C1947 1.524 . S
C1948 C1949 1.415 . S
C1949 H1919 0.950 . S
C1949 C1944 1.363 . S
C1949 C1948 1.415 . S
H1950 C1947 0.999 . S
H1951 C1932 0.913 . S
H1952 C1970 0.951 . S
H1953 C1972 0.951 . S
H1954 C1974 0.950 . S
H1955 C1975 0.950 . S
H1956 C1977 0.950 . S
H1957 C1980 0.950 . S
H1958 C1981 0.950 . S
H1959 C1983 0.950 . S
H1960 C1984 0.950 . S
H1961 C1985 0.951 . S
H1962 C1987 0.951 . S
H1963 C1989 0.950 . S
H1964 C1990 0.950 . S
H1965 C1992 0.950 . S
H1966 C1995 0.950 . S
H1967 C1996 0.950 . S
H1968 C1998 0.950 . S
H1969 C1999 0.950 . S
C1970 H1952 0.951 . S
C1970 C1971 1.366 . S
C1970 C1972 1.388 . S
C1971 C1970 1.366 . S
C1971 C1975 1.385 . S
C1972 H1953 0.951 . S
C1972 C1970 1.388 . S
C1972 C1973 1.366 . S
C1973 C1972 1.366 . S
C1973 C1974 1.414 . S
C1973 C1976 1.499 . S
C1974 H1954 0.950 . S
C1974 C1973 1.414 . S
C1974 C1975 1.374 . S
C1975 H1955 0.950 . S
C1975 C1971 1.385 . S
C1975 C1974 1.374 . S
C1976 C1973 1.499 . S
C1976 C1977 1.373 . S
C1976 C1978 1.389 1_556 S
C1977 H1956 0.950 . S
C1977 C1976 1.373 . S
C1977 C1993 1.377 . S
C1978 C1976 1.389 1_554 S
C1978 C1979 1.524 . S
C1978 C1992 1.377 . S
C1979 C1978 1.524 . S
C1979 C1980 1.397 . S
C1979 C1984 1.363 . S
C1980 H1957 0.950 . S
C1980 C1979 1.397 . S
C1980 C1981 1.334 . S
C1981 H1958 0.950 . S
C1981 C1980 1.334 . S
C1981 C1982 1.287 . S
C1982 C1981 1.287 . S
C1982 C1983 1.524 . S
C1982 H2001 0.913 . S
C1983 H1959 0.950 . S
C1983 C1982 1.524 . S
C1983 C1984 1.415 . S
C1984 H1960 0.950 . S
C1984 C1979 1.363 . S
C1984 C1983 1.415 . S
C1985 H1961 0.951 . S
C1985 C1986 1.366 . S
C1985 C1987 1.388 . S
C1986 C1985 1.366 . S
C1986 C1990 1.385 . S
C1987 H1962 0.951 . S
C1987 C1985 1.388 . S
C1987 C1988 1.366 . S
C1988 C1987 1.366 . S
C1988 C1989 1.414 . S
C1988 C1991 1.499 . S
C1989 H1963 0.950 . S
C1989 C1988 1.414 . S
C1989 C1990 1.374 . S
C1990 H1964 0.950 . S
C1990 C1986 1.385 . S
C1990 C1989 1.374 . S
C1991 C1988 1.499 . S
C1991 C1992 1.373 . S
C1991 C1993 1.389 1_554 S
C1992 H1965 0.950 . S
C1992 C1978 1.377 . S
C1992 C1991 1.373 . S
C1993 C1977 1.377 . S
C1993 C1991 1.389 1_556 S
C1993 C1994 1.524 . S
C1994 C1993 1.524 . S
C1994 C1995 1.397 . S
C1994 C1999 1.363 . S
C1995 H1966 0.950 . S
C1995 C1994 1.397 . S
C1995 C1996 1.334 . S
C1996 H1967 0.950 . S
C1996 C1995 1.334 . S
C1996 C1997 1.287 . S
C1997 C1996 1.287 . S
C1997 C1998 1.524 . S
C1997 H2000 0.999 . S
C1998 H1968 0.950 . S
C1998 C1997 1.524 . S
C1998 C1999 1.415 . S
C1999 H1969 0.950 . S
C1999 C1994 1.363 . S
C1999 C1998 1.415 . S
H2000 C1997 0.999 . S
H2001 C1982 0.913 . S
H2002 C2020 0.951 . S
H2003 C2022 0.951 . S
H2004 C2024 0.950 . S
H2005 C2025 0.950 . S
H2006 C2027 0.950 . S
H2007 C2030 0.950 . S
H2008 C2031 0.950 . S
H2009 C2033 0.950 . S
H2010 C2034 0.950 . S
H2011 C2035 0.951 . S
H2012 C2037 0.951 . S
H2013 C2039 0.950 . S
H2014 C2040 0.950 . S
H2015 C2042 0.950 . S
H2016 C2045 0.950 . S
H2017 C2046 0.950 . S
H2018 C2048 0.950 . S
H2019 C2049 0.950 . S
C2020 H2002 0.951 . S
C2020 C2021 1.366 . S
C2020 C2022 1.388 . S
C2021 C2020 1.366 . S
C2021 C2025 1.385 . S
C2022 H2003 0.951 . S
C2022 C2020 1.388 . S
C2022 C2023 1.366 . S
C2023 C2022 1.366 . S
C2023 C2024 1.414 . S
C2023 C2026 1.499 . S
C2024 H2004 0.950 . S
C2024 C2023 1.414 . S
C2024 C2025 1.374 . S
C2025 H2005 0.950 . S
C2025 C2021 1.385 . S
C2025 C2024 1.374 . S
C2026 C2023 1.499 . S
C2026 C2027 1.373 1_554 S
C2026 C2028 1.389 . S
C2027 H2006 0.950 . S
C2027 C2026 1.373 1_556 S
C2027 C2043 1.377 . S
C2028 C2026 1.389 . S
C2028 C2029 1.524 . S
C2028 C2042 1.377 . S
C2029 C2028 1.524 . S
C2029 C2030 1.397 . S
C2029 C2034 1.363 . S
C2030 H2007 0.950 . S
C2030 C2029 1.397 . S
C2030 C2031 1.334 . S
C2031 H2008 0.950 . S
C2031 C2030 1.334 . S
C2031 C2032 1.287 . S
C2032 C2031 1.287 . S
C2032 C2033 1.524 . S
C2032 H2051 0.913 . S
C2033 H2009 0.950 . S
C2033 C2032 1.524 . S
C2033 C2034 1.415 . S
C2034 H2010 0.950 . S
C2034 C2029 1.363 . S
C2034 C2033 1.415 . S
C2035 H2011 0.951 . S
C2035 C2036 1.366 . S
C2035 C2037 1.388 . S
C2036 C2035 1.366 . S
C2036 C2040 1.385 . S
C2037 H2012 0.951 . S
C2037 C2035 1.388 . S
C2037 C2038 1.366 . S
C2038 C2037 1.366 . S
C2038 C2039 1.414 . S
C2038 C2041 1.499 . S
C2039 H2013 0.950 . S
C2039 C2038 1.414 . S
C2039 C2040 1.374 . S
C2040 H2014 0.950 . S
C2040 C2036 1.385 . S
C2040 C2039 1.374 . S
C2041 C2038 1.499 . S
C2041 C2042 1.373 1_556 S
C2041 C2043 1.389 . S
C2042 H2015 0.950 . S
C2042 C2028 1.377 . S
C2042 C2041 1.373 1_554 S
C2043 C2027 1.377 . S
C2043 C2041 1.389 . S
C2043 C2044 1.524 . S
C2044 C2043 1.524 . S
C2044 C2045 1.397 . S
C2044 C2049 1.363 . S
C2045 H2016 0.950 . S
C2045 C2044 1.397 . S
C2045 C2046 1.334 . S
C2046 H2017 0.950 . S
C2046 C2045 1.334 . S
C2046 C2047 1.287 . S
C2047 C2046 1.287 . S
C2047 C2048 1.524 . S
C2047 H2050 0.999 . S
C2048 H2018 0.950 . S
C2048 C2047 1.524 . S
C2048 C2049 1.415 . S
C2049 H2019 0.950 . S
C2049 C2044 1.363 . S
C2049 C2048 1.415 . S
H2050 C2047 0.999 . S
H2051 C2032 0.913 . S
H2052 C2070 0.951 . S
H2053 C2072 0.951 . S
H2054 C2074 0.950 . S
H2055 C2075 0.950 . S
H2056 C2077 0.950 . S
H2057 C2080 0.950 . S
H2058 C2081 0.950 . S
H2059 C2083 0.950 . S
H2060 C2084 0.950 . S
H2061 C2085 0.951 . S
H2062 C2087 0.951 . S
H2063 C2089 0.950 . S
H2064 C2090 0.950 . S
H2065 C2092 0.950 . S
H2066 C2095 0.950 . S
H2067 C2096 0.950 . S
H2068 C2098 0.950 . S
H2069 C2099 0.950 . S
C2070 H2052 0.951 . S
C2070 C2071 1.366 . S
C2070 C2072 1.388 . S
C2071 C2070 1.366 . S
C2071 C2075 1.385 . S
C2072 H2053 0.951 . S
C2072 C2070 1.388 . S
C2072 C2073 1.366 . S
C2073 C2072 1.366 . S
C2073 C2074 1.414 . S
C2073 C2076 1.499 . S
C2074 H2054 0.950 . S
C2074 C2073 1.414 . S
C2074 C2075 1.374 . S
C2075 H2055 0.950 . S
C2075 C2071 1.385 . S
C2075 C2074 1.374 . S
C2076 C2073 1.499 . S
C2076 C2077 1.373 . S
C2076 C2078 1.389 . S
C2077 H2056 0.950 . S
C2077 C2076 1.373 . S
C2077 C2093 1.377 . S
C2078 C2076 1.389 . S
C2078 C2079 1.524 . S
C2078 C2092 1.377 . S
C2079 C2078 1.524 . S
C2079 C2080 1.397 . S
C2079 C2084 1.363 . S
C2080 H2057 0.950 . S
C2080 C2079 1.397 . S
C2080 C2081 1.334 . S
C2081 H2058 0.950 . S
C2081 C2080 1.334 . S
C2081 C2082 1.287 . S
C2082 C2081 1.287 . S
C2082 C2083 1.524 . S
C2082 H2101 0.913 . S
C2083 H2059 0.950 . S
C2083 C2082 1.524 . S
C2083 C2084 1.415 . S
C2084 H2060 0.950 . S
C2084 C2079 1.363 . S
C2084 C2083 1.415 . S
C2085 H2061 0.951 . S
C2085 C2086 1.366 . S
C2085 C2087 1.388 . S
C2086 C2085 1.366 . S
C2086 C2090 1.385 . S
C2087 H2062 0.951 . S
C2087 C2085 1.388 . S
C2087 C2088 1.366 . S
C2088 C2087 1.366 . S
C2088 C2089 1.414 . S
C2088 C2091 1.499 . S
C2089 H2063 0.950 . S
C2089 C2088 1.414 . S
C2089 C2090 1.374 . S
C2090 H2064 0.950 . S
C2090 C2086 1.385 . S
C2090 C2089 1.374 . S
C2091 C2088 1.499 . S
C2091 C2092 1.373 . S
C2091 C2093 1.389 . S
C2092 H2065 0.950 . S
C2092 C2078 1.377 . S
C2092 C2091 1.373 . S
C2093 C2077 1.377 . S
C2093 C2091 1.389 . S
C2093 C2094 1.524 . S
C2094 C2093 1.524 . S
C2094 C2095 1.397 . S
C2094 C2099 1.363 . S
C2095 H2066 0.950 . S
C2095 C2094 1.397 . S
C2095 C2096 1.334 . S
C2096 H2067 0.950 . S
C2096 C2095 1.334 . S
C2096 C2097 1.287 . S
C2097 C2096 1.287 . S
C2097 C2098 1.524 . S
C2097 H2100 0.999 . S
C2098 H2068 0.950 . S
C2098 C2097 1.524 . S
C2098 C2099 1.415 . S
C2099 H2069 0.950 . S
C2099 C2094 1.363 . S
C2099 C2098 1.415 . S
H2100 C2097 0.999 . S
H2101 C2082 0.913 . S
H2102 C2120 0.951 . S
H2103 C2122 0.951 . S
H2104 C2124 0.950 . S
H2105 C2125 0.950 . S
H2106 C2127 0.950 . S
H2107 C2130 0.950 . S
H2108 C2131 0.950 . S
H2109 C2133 0.950 . S
H2110 C2134 0.950 . S
H2111 C2135 0.951 . S
H2112 C2137 0.951 . S
H2113 C2139 0.950 . S
H2114 C2140 0.950 . S
H2115 C2142 0.950 . S
H2116 C2145 0.950 . S
H2117 C2146 0.950 . S
H2118 C2148 0.950 . S
H2119 C2149 0.950 . S
C2120 H2102 0.951 . S
C2120 C2121 1.366 . S
C2120 C2122 1.388 . S
C2121 C2120 1.366 . S
C2121 C2125 1.385 . S
C2122 H2103 0.951 . S
C2122 C2120 1.388 . S
C2122 C2123 1.366 . S
C2123 C2122 1.366 . S
C2123 C2124 1.414 . S
C2123 C2126 1.499 . S
C2124 H2104 0.950 . S
C2124 C2123 1.414 . S
C2124 C2125 1.374 . S
C2125 H2105 0.950 . S
C2125 C2121 1.385 . S
C2125 C2124 1.374 . S
C2126 C2123 1.499 . S
C2126 C2127 1.373 . S
C2126 C2128 1.389 . S
C2127 H2106 0.950 . S
C2127 C2126 1.373 . S
C2127 C2143 1.377 . S
C2128 C2126 1.389 . S
C2128 C2129 1.524 . S
C2128 C2142 1.377 . S
C2129 C2128 1.524 . S
C2129 C2130 1.397 . S
C2129 C2134 1.363 . S
C2130 H2107 0.950 . S
C2130 C2129 1.397 . S
C2130 C2131 1.334 . S
C2131 H2108 0.950 . S
C2131 C2130 1.334 . S
C2131 C2132 1.287 . S
C2132 C2131 1.287 . S
C2132 C2133 1.524 . S
C2132 H2151 0.913 . S
C2133 H2109 0.950 . S
C2133 C2132 1.524 . S
C2133 C2134 1.415 . S
C2134 H2110 0.950 . S
C2134 C2129 1.363 . S
C2134 C2133 1.415 . S
C2135 H2111 0.951 . S
C2135 C2136 1.366 . S
C2135 C2137 1.388 . S
C2136 C2135 1.366 . S
C2136 C2140 1.385 . S
C2137 H2112 0.951 . S
C2137 C2135 1.388 . S
C2137 C2138 1.366 . S
C2138 C2137 1.366 . S
C2138 C2139 1.414 . S
C2138 C2141 1.499 . S
C2139 H2113 0.950 . S
C2139 C2138 1.414 . S
C2139 C2140 1.374 . S
C2140 H2114 0.950 . S
C2140 C2136 1.385 . S
C2140 C2139 1.374 . S
C2141 C2138 1.499 . S
C2141 C2142 1.373 . S
C2141 C2143 1.389 . S
C2142 H2115 0.950 . S
C2142 C2128 1.377 . S
C2142 C2141 1.373 . S
C2143 C2127 1.377 . S
C2143 C2141 1.389 . S
C2143 C2144 1.524 . S
C2144 C2143 1.524 . S
C2144 C2145 1.397 . S
C2144 C2149 1.363 . S
C2145 H2116 0.950 . S
C2145 C2144 1.397 . S
C2145 C2146 1.334 . S
C2146 H2117 0.950 . S
C2146 C2145 1.334 . S
C2146 C2147 1.287 . S
C2147 C2146 1.287 . S
C2147 C2148 1.524 . S
C2147 H2150 0.999 . S
C2148 H2118 0.950 . S
C2148 C2147 1.524 . S
C2148 C2149 1.415 . S
C2149 H2119 0.950 . S
C2149 C2144 1.363 . S
C2149 C2148 1.415 . S
H2150 C2147 0.999 . S
H2151 C2132 0.913 . S
H2152 C2170 0.951 . S
H2153 C2172 0.951 . S
H2154 C2174 0.950 1_554 S
H2155 C2175 0.950 . S
H2156 C2177 0.950 . S
H2157 C2180 0.950 . S
H2158 C2181 0.950 . S
H2159 C2183 0.950 . S
H2160 C2184 0.950 . S
H2161 C2185 0.951 . S
H2162 C2187 0.951 . S
H2163 C2189 0.950 1_556 S
H2164 C2190 0.950 . S
H2165 C2192 0.950 . S
H2166 C2195 0.950 . S
H2167 C2196 0.950 . S
H2168 C2198 0.950 . S
H2169 C2199 0.950 . S
C2170 H2152 0.951 . S
C2170 C2171 1.366 . S
C2170 C2172 1.388 . S
C2171 C2170 1.366 . S
C2171 C2175 1.385 . S
C2172 H2153 0.951 . S
C2172 C2170 1.388 . S
C2172 C2173 1.366 . S
C2173 C2172 1.366 . S
C2173 C2174 1.414 . S
C2173 C2176 1.499 . S
C2174 H2154 0.950 1_556 S
C2174 C2173 1.414 . S
C2174 C2175 1.374 . S
C2175 H2155 0.950 . S
C2175 C2171 1.385 . S
C2175 C2174 1.374 . S
C2176 C2173 1.499 . S
C2176 C2177 1.373 1_556 S
C2176 C2178 1.389 . S
C2177 H2156 0.950 . S
C2177 C2176 1.373 1_554 S
C2177 C2193 1.377 . S
C2178 C2176 1.389 . S
C2178 C2179 1.524 . S
C2178 C2192 1.377 . S
C2179 C2178 1.524 . S
C2179 C2180 1.397 . S
C2179 C2184 1.363 . S
C2180 H2157 0.950 . S
C2180 C2179 1.397 . S
C2180 C2181 1.334 . S
C2181 H2158 0.950 . S
C2181 C2180 1.334 . S
C2181 C2182 1.287 . S
C2182 C2181 1.287 . S
C2182 C2183 1.524 . S
C2182 H2201 0.913 . S
C2183 H2159 0.950 . S
C2183 C2182 1.524 . S
C2183 C2184 1.415 . S
C2184 H2160 0.950 . S
C2184 C2179 1.363 . S
C2184 C2183 1.415 . S
C2185 H2161 0.951 . S
C2185 C2186 1.366 . S
C2185 C2187 1.388 . S
C2186 C2185 1.366 . S
C2186 C2190 1.385 . S
C2187 H2162 0.951 . S
C2187 C2185 1.388 . S
C2187 C2188 1.366 . S
C2188 C2187 1.366 . S
C2188 C2189 1.414 . S
C2188 C2191 1.499 . S
C2189 H2163 0.950 1_554 S
C2189 C2188 1.414 . S
C2189 C2190 1.374 . S
C2190 H2164 0.950 . S
C2190 C2186 1.385 . S
C2190 C2189 1.374 . S
C2191 C2188 1.499 . S
C2191 C2192 1.373 1_554 S
C2191 C2193 1.389 . S
C2192 H2165 0.950 . S
C2192 C2178 1.377 . S
C2192 C2191 1.373 1_556 S
C2193 C2177 1.377 . S
C2193 C2191 1.389 . S
C2193 C2194 1.524 . S
C2194 C2193 1.524 . S
C2194 C2195 1.397 . S
C2194 C2199 1.363 . S
C2195 H2166 0.950 . S
C2195 C2194 1.397 . S
C2195 C2196 1.334 . S
C2196 H2167 0.950 . S
C2196 C2195 1.334 . S
C2196 C2197 1.287 . S
C2197 C2196 1.287 . S
C2197 C2198 1.524 . S
C2197 H2200 0.999 . S
C2198 H2168 0.950 . S
C2198 C2197 1.524 . S
C2198 C2199 1.415 . S
C2199 H2169 0.950 . S
C2199 C2194 1.363 . S
C2199 C2198 1.415 . S
H2200 C2197 0.999 . S
H2201 C2182 0.913 . S
H2202 C2220 0.951 . S
H2203 C2222 0.951 . S
H2204 C2224 0.950 1_554 S
H2205 C2225 0.950 . S
H2206 C2227 0.950 1_554 S
H2207 C2230 0.950 1_554 S
H2208 C2231 0.950 1_554 S
H2209 C2233 0.950 . S
H2210 C2234 0.950 . S
H2211 C2235 0.951 . S
H2212 C2237 0.951 . S
H2213 C2239 0.950 1_556 S
H2214 C2240 0.950 . S
H2215 C2242 0.950 1_556 S
H2216 C2245 0.950 1_556 S
H2217 C2246 0.950 1_556 S
H2218 C2248 0.950 . S
H2219 C2249 0.950 . S
C2220 H2202 0.951 . S
C2220 C2221 1.366 . S
C2220 C2222 1.388 . S
C2221 C2220 1.366 . S
C2221 C2225 1.385 . S
C2222 H2203 0.951 . S
C2222 C2220 1.388 . S
C2222 C2223 1.366 . S
C2223 C2222 1.366 . S
C2223 C2224 1.414 . S
C2223 C2226 1.499 . S
C2224 H2204 0.950 1_556 S
C2224 C2223 1.414 . S
C2224 C2225 1.374 . S
C2225 H2205 0.950 . S
C2225 C2221 1.385 . S
C2225 C2224 1.374 . S
C2226 C2223 1.499 . S
C2226 C2227 1.372 . S
C2226 C2228 1.389 . S
C2227 H2206 0.950 1_556 S
C2227 C2226 1.372 . S
C2227 C2243 1.378 1_556 S
C2228 C2226 1.389 . S
C2228 C2229 1.524 . S
C2228 C2242 1.378 1_556 S
C2229 C2228 1.524 . S
C2229 C2230 1.397 . S
C2229 C2234 1.363 . S
C2230 H2207 0.950 1_556 S
C2230 C2229 1.397 . S
C2230 C2231 1.334 . S
C2231 H2208 0.950 1_556 S
C2231 C2230 1.334 . S
C2231 C2232 1.287 . S
C2232 C2231 1.287 . S
C2232 C2233 1.524 . S
C2232 H2251 0.913 . S
C2233 H2209 0.950 . S
C2233 C2232 1.524 . S
C2233 C2234 1.415 . S
C2234 H2210 0.950 . S
C2234 C2229 1.363 . S
C2234 C2233 1.415 . S
C2235 H2211 0.951 . S
C2235 C2236 1.366 . S
C2235 C2237 1.388 . S
C2236 C2235 1.366 . S
C2236 C2240 1.385 . S
C2237 H2212 0.951 . S
C2237 C2235 1.388 . S
C2237 C2238 1.366 . S
C2238 C2237 1.366 . S
C2238 C2239 1.414 . S
C2238 C2241 1.499 . S
C2239 H2213 0.950 1_554 S
C2239 C2238 1.414 . S
C2239 C2240 1.374 . S
C2240 H2214 0.950 . S
C2240 C2236 1.385 . S
C2240 C2239 1.374 . S
C2241 C2238 1.499 . S
C2241 C2242 1.372 . S
C2241 C2243 1.389 . S
C2242 H2215 0.950 1_554 S
C2242 C2228 1.378 1_554 S
C2242 C2241 1.372 . S
C2243 C2227 1.378 1_554 S
C2243 C2241 1.389 . S
C2243 C2244 1.524 . S
C2244 C2243 1.524 . S
C2244 C2245 1.397 . S
C2244 C2249 1.363 . S
C2245 H2216 0.950 1_554 S
C2245 C2244 1.397 . S
C2245 C2246 1.334 . S
C2246 H2217 0.950 1_554 S
C2246 C2245 1.334 . S
C2246 C2247 1.287 . S
C2247 C2246 1.287 . S
C2247 C2248 1.524 . S
C2247 H2250 0.999 . S
C2248 H2218 0.950 . S
C2248 C2247 1.524 . S
C2248 C2249 1.415 . S
C2249 H2219 0.950 . S
C2249 C2244 1.363 . S
C2249 C2248 1.415 . S
H2250 C2247 0.999 . S
H2251 C2232 0.913 . S
H2252 C2270 0.951 . S
H2253 C2272 0.951 . S
H2254 C2274 0.950 . S
H2255 C2275 0.950 . S
H2256 C2277 0.950 . S
H2257 C2280 0.950 . S
H2258 C2281 0.950 . S
H2259 C2283 0.950 . S
H2260 C2284 0.950 . S
H2261 C2285 0.951 . S
H2262 C2287 0.951 . S
H2263 C2289 0.950 . S
H2264 C2290 0.950 . S
H2265 C2292 0.950 . S
H2266 C2295 0.950 . S
H2267 C2296 0.950 . S
H2268 C2298 0.950 . S
H2269 C2299 0.950 . S
C2270 H2252 0.951 . S
C2270 C2271 1.366 . S
C2270 C2272 1.388 . S
C2271 C2270 1.366 . S
C2271 C2275 1.385 . S
C2272 H2253 0.951 . S
C2272 C2270 1.388 . S
C2272 C2273 1.366 . S
C2273 C2272 1.366 . S
C2273 C2274 1.414 . S
C2273 C2276 1.499 . S
C2274 H2254 0.950 . S
C2274 C2273 1.414 . S
C2274 C2275 1.374 . S
C2275 H2255 0.950 . S
C2275 C2271 1.385 . S
C2275 C2274 1.374 . S
C2276 C2273 1.499 . S
C2276 C2277 1.373 . S
C2276 C2278 1.389 . S
C2277 H2256 0.950 . S
C2277 C2276 1.373 . S
C2277 C2293 1.377 . S
C2278 C2276 1.389 . S
C2278 C2279 1.524 . S
C2278 C2292 1.377 . S
C2279 C2278 1.524 . S
C2279 C2280 1.397 . S
C2279 C2284 1.363 . S
C2280 H2257 0.950 . S
C2280 C2279 1.397 . S
C2280 C2281 1.334 . S
C2281 H2258 0.950 . S
C2281 C2280 1.334 . S
C2281 C2282 1.287 . S
C2282 C2281 1.287 . S
C2282 C2283 1.524 . S
C2282 H2301 0.913 . S
C2283 H2259 0.950 . S
C2283 C2282 1.524 . S
C2283 C2284 1.415 . S
C2284 H2260 0.950 . S
C2284 C2279 1.363 . S
C2284 C2283 1.415 . S
C2285 H2261 0.951 . S
C2285 C2286 1.366 . S
C2285 C2287 1.388 . S
C2286 C2285 1.366 . S
C2286 C2290 1.385 . S
C2287 H2262 0.951 . S
C2287 C2285 1.388 . S
C2287 C2288 1.366 . S
C2288 C2287 1.366 . S
C2288 C2289 1.414 . S
C2288 C2291 1.499 . S
C2289 H2263 0.950 . S
C2289 C2288 1.414 . S
C2289 C2290 1.374 . S
C2290 H2264 0.950 . S
C2290 C2286 1.385 . S
C2290 C2289 1.374 . S
C2291 C2288 1.499 . S
C2291 C2292 1.373 . S
C2291 C2293 1.389 . S
C2292 H2265 0.950 . S
C2292 C2278 1.377 . S
C2292 C2291 1.373 . S
C2293 C2277 1.377 . S
C2293 C2291 1.389 . S
C2293 C2294 1.524 . S
C2294 C2293 1.524 . S
C2294 C2295 1.397 . S
C2294 C2299 1.363 . S
C2295 H2266 0.950 . S
C2295 C2294 1.397 . S
C2295 C2296 1.334 . S
C2296 H2267 0.950 . S
C2296 C2295 1.334 . S
C2296 C2297 1.287 . S
C2297 C2296 1.287 . S
C2297 C2298 1.524 . S
C2297 H2300 0.999 . S
C2298 H2268 0.950 . S
C2298 C2297 1.524 . S
C2298 C2299 1.415 . S
C2299 H2269 0.950 . S
C2299 C2294 1.363 . S
C2299 C2298 1.415 . S
H2300 C2297 0.999 . S
H2301 C2282 0.913 . S
H2302 C2320 0.951 . S
H2303 C2322 0.951 . S
H2304 C2324 0.950 . S
H2305 C2325 0.950 . S
H2306 C2327 0.950 . S
H2307 C2330 0.950 . S
H2308 C2331 0.950 . S
H2309 C2333 0.950 . S
H2310 C2334 0.950 . S
H2311 C2335 0.951 . S
H2312 C2337 0.951 . S
H2313 C2339 0.950 . S
H2314 C2340 0.950 . S
H2315 C2342 0.950 . S
H2316 C2345 0.950 . S
H2317 C2346 0.950 . S
H2318 C2348 0.950 . S
H2319 C2349 0.950 . S
C2320 H2302 0.951 . S
C2320 C2321 1.366 . S
C2320 C2322 1.388 . S
C2321 C2320 1.366 . S
C2321 C2325 1.385 . S
C2322 H2303 0.951 . S
C2322 C2320 1.388 . S
C2322 C2323 1.366 . S
C2323 C2322 1.366 . S
C2323 C2324 1.414 . S
C2323 C2326 1.499 . S
C2324 H2304 0.950 . S
C2324 C2323 1.414 . S
C2324 C2325 1.374 . S
C2325 H2305 0.950 . S
C2325 C2321 1.385 . S
C2325 C2324 1.374 . S
C2326 C2323 1.499 . S
C2326 C2327 1.373 . S
C2326 C2328 1.389 . S
C2327 H2306 0.950 . S
C2327 C2326 1.373 . S
C2327 C2343 1.377 . S
C2328 C2326 1.389 . S
C2328 C2329 1.524 . S
C2328 C2342 1.377 . S
C2329 C2328 1.524 . S
C2329 C2330 1.397 . S
C2329 C2334 1.363 . S
C2330 H2307 0.950 . S
C2330 C2329 1.397 . S
C2330 C2331 1.334 . S
C2331 H2308 0.950 . S
C2331 C2330 1.334 . S
C2331 C2332 1.287 . S
C2332 C2331 1.287 . S
C2332 C2333 1.524 . S
C2332 H2351 0.913 . S
C2333 H2309 0.950 . S
C2333 C2332 1.524 . S
C2333 C2334 1.415 . S
C2334 H2310 0.950 . S
C2334 C2329 1.363 . S
C2334 C2333 1.415 . S
C2335 H2311 0.951 . S
C2335 C2336 1.366 . S
C2335 C2337 1.388 . S
C2336 C2335 1.366 . S
C2336 C2340 1.385 . S
C2337 H2312 0.951 . S
C2337 C2335 1.388 . S
C2337 C2338 1.366 . S
C2338 C2337 1.366 . S
C2338 C2339 1.414 . S
C2338 C2341 1.499 . S
C2339 H2313 0.950 . S
C2339 C2338 1.414 . S
C2339 C2340 1.374 . S
C2340 H2314 0.950 . S
C2340 C2336 1.385 . S
C2340 C2339 1.374 . S
C2341 C2338 1.499 . S
C2341 C2342 1.373 . S
C2341 C2343 1.389 . S
C2342 H2315 0.950 . S
C2342 C2328 1.377 . S
C2342 C2341 1.373 . S
C2343 C2327 1.377 . S
C2343 C2341 1.389 . S
C2343 C2344 1.524 . S
C2344 C2343 1.524 . S
C2344 C2345 1.397 . S
C2344 C2349 1.363 . S
C2345 H2316 0.950 . S
C2345 C2344 1.397 . S
C2345 C2346 1.334 . S
C2346 H2317 0.950 . S
C2346 C2345 1.334 . S
C2346 C2347 1.287 . S
C2347 C2346 1.287 . S
C2347 C2348 1.524 . S
C2347 H2350 0.999 . S
C2348 H2318 0.950 . S
C2348 C2347 1.524 . S
C2348 C2349 1.415 . S
C2349 H2319 0.950 . S
C2349 C2344 1.363 . S
C2349 C2348 1.415 . S
H2350 C2347 0.999 . S
H2351 C2332 0.913 . S
H2352 C2370 0.951 . S
H2353 C2372 0.951 . S
H2354 C2374 0.950 . S
H2355 C2375 0.950 . S
H2356 C2377 0.950 . S
H2357 C2380 0.950 . S
H2358 C2381 0.950 . S
H2359 C2383 0.950 . S
H2360 C2384 0.950 . S
H2361 C2385 0.951 . S
H2362 C2387 0.951 . S
H2363 C2389 0.950 . S
H2364 C2390 0.950 . S
H2365 C2392 0.950 . S
H2366 C2395 0.950 . S
H2367 C2396 0.950 . S
H2368 C2398 0.950 . S
H2369 C2399 0.950 . S
C2370 H2352 0.951 . S
C2370 C2371 1.366 . S
C2370 C2372 1.388 . S
C2371 C2370 1.366 . S
C2371 C2375 1.385 . S
C2372 H2353 0.951 . S
C2372 C2370 1.388 . S
C2372 C2373 1.366 . S
C2373 C2372 1.366 . S
C2373 C2374 1.414 . S
C2373 C2376 1.499 . S
C2374 H2354 0.950 . S
C2374 C2373 1.414 . S
C2374 C2375 1.374 . S
C2375 H2355 0.950 . S
C2375 C2371 1.385 . S
C2375 C2374 1.374 . S
C2376 C2373 1.499 . S
C2376 C2377 1.373 . S
C2376 C2378 1.389 . S
C2377 H2356 0.950 . S
C2377 C2376 1.373 . S
C2377 C2393 1.377 1_455 S
C2378 C2376 1.389 . S
C2378 C2379 1.524 . S
C2378 C2392 1.377 1_455 S
C2379 C2378 1.524 . S
C2379 C2380 1.397 . S
C2379 C2384 1.363 . S
C2380 H2357 0.950 . S
C2380 C2379 1.397 . S
C2380 C2381 1.334 . S
C2381 H2358 0.950 . S
C2381 C2380 1.334 . S
C2381 C2382 1.287 . S
C2382 C2381 1.287 . S
C2382 C2383 1.524 . S
C2382 H2401 0.913 . S
C2383 H2359 0.950 . S
C2383 C2382 1.524 . S
C2383 C2384 1.415 . S
C2384 H2360 0.950 . S
C2384 C2379 1.363 . S
C2384 C2383 1.415 . S
C2385 H2361 0.951 . S
C2385 C2386 1.366 . S
C2385 C2387 1.388 . S
C2386 C2385 1.366 . S
C2386 C2390 1.385 . S
C2387 H2362 0.951 . S
C2387 C2385 1.388 . S
C2387 C2388 1.366 . S
C2388 C2387 1.366 . S
C2388 C2389 1.414 . S
C2388 C2391 1.499 . S
C2389 H2363 0.950 . S
C2389 C2388 1.414 . S
C2389 C2390 1.374 . S
C2390 H2364 0.950 . S
C2390 C2386 1.385 . S
C2390 C2389 1.374 . S
C2391 C2388 1.499 . S
C2391 C2392 1.373 . S
C2391 C2393 1.389 . S
C2392 H2365 0.950 . S
C2392 C2378 1.377 1_655 S
C2392 C2391 1.373 . S
C2393 C2377 1.377 1_655 S
C2393 C2391 1.389 . S
C2393 C2394 1.524 . S
C2394 C2393 1.524 . S
C2394 C2395 1.397 . S
C2394 C2399 1.363 . S
C2395 H2366 0.950 . S
C2395 C2394 1.397 . S
C2395 C2396 1.334 . S
C2396 H2367 0.950 . S
C2396 C2395 1.334 . S
C2396 C2397 1.287 . S
C2397 C2396 1.287 . S
C2397 C2398 1.524 . S
C2397 H2400 0.999 . S
C2398 H2368 0.950 . S
C2398 C2397 1.524 . S
C2398 C2399 1.415 . S
C2399 H2369 0.950 . S
C2399 C2394 1.363 . S
C2399 C2398 1.415 . S
H2400 C2397 0.999 . S
H2401 C2382 0.913 . S
H2402 C2420 0.951 . S
H2403 C2422 0.951 . S
H2404 C2424 0.950 . S
H2405 C2425 0.950 . S
H2406 C2427 0.950 . S
H2407 C2430 0.950 . S
H2408 C2431 0.950 . S
H2409 C2433 0.950 . S
H2410 C2434 0.950 . S
H2411 C2435 0.951 . S
H2412 C2437 0.951 . S
H2413 C2439 0.950 . S
H2414 C2440 0.950 . S
H2415 C2442 0.950 . S
H2416 C2445 0.950 . S
H2417 C2446 0.950 . S
H2418 C2448 0.950 . S
H2419 C2449 0.950 . S
C2420 H2402 0.951 . S
C2420 C2421 1.366 . S
C2420 C2422 1.388 . S
C2421 C2420 1.366 . S
C2421 C2425 1.385 . S
C2422 H2403 0.951 . S
C2422 C2420 1.388 . S
C2422 C2423 1.366 . S
C2423 C2422 1.366 . S
C2423 C2424 1.414 . S
C2423 C2426 1.499 . S
C2424 H2404 0.950 . S
C2424 C2423 1.414 . S
C2424 C2425 1.374 . S
C2425 H2405 0.950 . S
C2425 C2421 1.385 . S
C2425 C2424 1.374 . S
C2426 C2423 1.499 . S
C2426 C2427 1.373 . S
C2426 C2428 1.389 . S
C2427 H2406 0.950 . S
C2427 C2426 1.373 . S
C2427 C2443 1.377 . S
C2428 C2426 1.389 . S
C2428 C2429 1.524 . S
C2428 C2442 1.377 . S
C2429 C2428 1.524 . S
C2429 C2430 1.397 . S
C2429 C2434 1.363 . S
C2430 H2407 0.950 . S
C2430 C2429 1.397 . S
C2430 C2431 1.334 . S
C2431 H2408 0.950 . S
C2431 C2430 1.334 . S
C2431 C2432 1.287 . S
C2432 C2431 1.287 . S
C2432 C2433 1.524 . S
C2432 H2451 0.913 . S
C2433 H2409 0.950 . S
C2433 C2432 1.524 . S
C2433 C2434 1.415 . S
C2434 H2410 0.950 . S
C2434 C2429 1.363 . S
C2434 C2433 1.415 . S
C2435 H2411 0.951 . S
C2435 C2436 1.366 . S
C2435 C2437 1.388 . S
C2436 C2435 1.366 . S
C2436 C2440 1.385 . S
C2437 H2412 0.951 . S
C2437 C2435 1.388 . S
C2437 C2438 1.366 . S
C2438 C2437 1.366 . S
C2438 C2439 1.414 . S
C2438 C2441 1.499 . S
C2439 H2413 0.950 . S
C2439 C2438 1.414 . S
C2439 C2440 1.374 . S
C2440 H2414 0.950 . S
C2440 C2436 1.385 . S
C2440 C2439 1.374 . S
C2441 C2438 1.499 . S
C2441 C2442 1.373 . S
C2441 C2443 1.389 . S
C2442 H2415 0.950 . S
C2442 C2428 1.377 . S
C2442 C2441 1.373 . S
C2443 C2427 1.377 . S
C2443 C2441 1.389 . S
C2443 C2444 1.524 . S
C2444 C2443 1.524 . S
C2444 C2445 1.397 . S
C2444 C2449 1.363 . S
C2445 H2416 0.950 . S
C2445 C2444 1.397 . S
C2445 C2446 1.334 . S
C2446 H2417 0.950 . S
C2446 C2445 1.334 . S
C2446 C2447 1.287 . S
C2447 C2446 1.287 . S
C2447 C2448 1.524 . S
C2447 H2450 0.999 . S
C2448 H2418 0.950 . S
C2448 C2447 1.524 . S
C2448 C2449 1.415 . S
C2449 H2419 0.950 . S
C2449 C2444 1.363 . S
C2449 C2448 1.415 . S
H2450 C2447 0.999 . S
H2451 C2432 0.913 . S
H2452 C2470 0.951 . S
H2453 C2472 0.951 . S
H2454 C2474 0.950 . S
H2455 C2475 0.950 . S
H2456 C2477 0.950 . S
H2457 C2480 0.950 . S
H2458 C2481 0.950 . S
H2459 C2483 0.950 . S
H2460 C2484 0.950 . S
H2461 C2485 0.951 . S
H2462 C2487 0.951 . S
H2463 C2489 0.950 . S
H2464 C2490 0.950 . S
H2465 C2492 0.950 . S
H2466 C2495 0.950 . S
H2467 C2496 0.950 . S
H2468 C2498 0.950 . S
H2469 C2499 0.950 . S
C2470 H2452 0.951 . S
C2470 C2471 1.366 . S
C2470 C2472 1.388 . S
C2471 C2470 1.366 . S
C2471 C2475 1.385 . S
C2472 H2453 0.951 . S
C2472 C2470 1.388 . S
C2472 C2473 1.366 . S
C2473 C2472 1.366 . S
C2473 C2474 1.414 . S
C2473 C2476 1.499 . S
C2474 H2454 0.950 . S
C2474 C2473 1.414 . S
C2474 C2475 1.374 . S
C2475 H2455 0.950 . S
C2475 C2471 1.385 . S
C2475 C2474 1.374 . S
C2476 C2473 1.499 . S
C2476 C2477 1.373 . S
C2476 C2478 1.389 . S
C2477 H2456 0.950 . S
C2477 C2476 1.373 . S
C2477 C2493 1.377 . S
C2478 C2476 1.389 . S
C2478 C2479 1.524 . S
C2478 C2492 1.377 . S
C2479 C2478 1.524 . S
C2479 C2480 1.397 . S
C2479 C2484 1.363 . S
C2480 H2457 0.950 . S
C2480 C2479 1.397 . S
C2480 C2481 1.334 . S
C2481 H2458 0.950 . S
C2481 C2480 1.334 . S
C2481 C2482 1.287 . S
C2482 C2481 1.287 . S
C2482 C2483 1.524 . S
C2482 H2501 0.913 . S
C2483 H2459 0.950 . S
C2483 C2482 1.524 . S
C2483 C2484 1.415 . S
C2484 H2460 0.950 . S
C2484 C2479 1.363 . S
C2484 C2483 1.415 . S
C2485 H2461 0.951 . S
C2485 C2486 1.366 . S
C2485 C2487 1.388 . S
C2486 C2485 1.366 . S
C2486 C2490 1.385 . S
C2487 H2462 0.951 . S
C2487 C2485 1.388 . S
C2487 C2488 1.366 . S
C2488 C2487 1.366 . S
C2488 C2489 1.414 . S
C2488 C2491 1.499 . S
C2489 H2463 0.950 . S
C2489 C2488 1.414 . S
C2489 C2490 1.374 . S
C2490 H2464 0.950 . S
C2490 C2486 1.385 . S
C2490 C2489 1.374 . S
C2491 C2488 1.499 . S
C2491 C2492 1.373 . S
C2491 C2493 1.389 . S
C2492 H2465 0.950 . S
C2492 C2478 1.377 . S
C2492 C2491 1.373 . S
C2493 C2477 1.377 . S
C2493 C2491 1.389 . S
C2493 C2494 1.524 . S
C2494 C2493 1.524 . S
C2494 C2495 1.397 . S
C2494 C2499 1.363 . S
C2495 H2466 0.950 . S
C2495 C2494 1.397 . S
C2495 C2496 1.334 . S
C2496 H2467 0.950 . S
C2496 C2495 1.334 . S
C2496 C2497 1.287 . S
C2497 C2496 1.287 . S
C2497 C2498 1.524 . S
C2497 H2500 0.999 . S
C2498 H2468 0.950 . S
C2498 C2497 1.524 . S
C2498 C2499 1.415 . S
C2499 H2469 0.950 . S
C2499 C2494 1.363 . S
C2499 C2498 1.415 . S
H2500 C2497 0.999 . S
H2501 C2482 0.913 . S
H2502 C2520 0.951 . S
H2503 C2522 0.951 . S
H2504 C2524 0.950 . S
H2505 C2525 0.950 . S
H2506 C2527 0.950 . S
H2507 C2530 0.950 . S
H2508 C2531 0.950 . S
H2509 C2533 0.950 . S
H2510 C2534 0.950 . S
H2511 C2535 0.951 . S
H2512 C2537 0.951 . S
H2513 C2539 0.950 . S
H2514 C2540 0.950 . S
H2515 C2542 0.950 . S
H2516 C2545 0.950 . S
H2517 C2546 0.950 . S
H2518 C2548 0.950 . S
H2519 C2549 0.950 . S
C2520 H2502 0.951 . S
C2520 C2521 1.366 . S
C2520 C2522 1.388 . S
C2521 C2520 1.366 . S
C2521 C2525 1.385 . S
C2522 H2503 0.951 . S
C2522 C2520 1.388 . S
C2522 C2523 1.366 . S
C2523 C2522 1.366 . S
C2523 C2524 1.414 . S
C2523 C2526 1.499 . S
C2524 H2504 0.950 . S
C2524 C2523 1.414 . S
C2524 C2525 1.374 . S
C2525 H2505 0.950 . S
C2525 C2521 1.385 . S
C2525 C2524 1.374 . S
C2526 C2523 1.499 . S
C2526 C2527 1.373 . S
C2526 C2528 1.389 . S
C2527 H2506 0.950 . S
C2527 C2526 1.373 . S
C2527 C2543 1.377 1_455 S
C2528 C2526 1.389 . S
C2528 C2529 1.524 . S
C2528 C2542 1.377 1_455 S
C2529 C2528 1.524 . S
C2529 C2530 1.397 . S
C2529 C2534 1.363 . S
C2530 H2507 0.950 . S
C2530 C2529 1.397 . S
C2530 C2531 1.334 . S
C2531 H2508 0.950 . S
C2531 C2530 1.334 . S
C2531 C2532 1.287 . S
C2532 C2531 1.287 . S
C2532 C2533 1.524 . S
C2532 H2551 0.913 . S
C2533 H2509 0.950 . S
C2533 C2532 1.524 . S
C2533 C2534 1.415 . S
C2534 H2510 0.950 . S
C2534 C2529 1.363 . S
C2534 C2533 1.415 . S
C2535 H2511 0.951 . S
C2535 C2536 1.366 . S
C2535 C2537 1.388 . S
C2536 C2535 1.366 . S
C2536 C2540 1.385 . S
C2537 H2512 0.951 . S
C2537 C2535 1.388 . S
C2537 C2538 1.366 . S
C2538 C2537 1.366 . S
C2538 C2539 1.414 . S
C2538 C2541 1.499 . S
C2539 H2513 0.950 . S
C2539 C2538 1.414 . S
C2539 C2540 1.374 . S
C2540 H2514 0.950 . S
C2540 C2536 1.385 . S
C2540 C2539 1.374 . S
C2541 C2538 1.499 . S
C2541 C2542 1.373 . S
C2541 C2543 1.389 . S
C2542 H2515 0.950 . S
C2542 C2528 1.377 1_655 S
C2542 C2541 1.373 . S
C2543 C2527 1.377 1_655 S
C2543 C2541 1.389 . S
C2543 C2544 1.524 . S
C2544 C2543 1.524 . S
C2544 C2545 1.397 . S
C2544 C2549 1.363 . S
C2545 H2516 0.950 . S
C2545 C2544 1.397 . S
C2545 C2546 1.334 . S
C2546 H2517 0.950 . S
C2546 C2545 1.334 . S
C2546 C2547 1.287 . S
C2547 C2546 1.287 . S
C2547 C2548 1.524 . S
C2547 H2550 0.999 . S
C2548 H2518 0.950 . S
C2548 C2547 1.524 . S
C2548 C2549 1.415 . S
C2549 H2519 0.950 . S
C2549 C2544 1.363 . S
C2549 C2548 1.415 . S
H2550 C2547 0.999 . S
H2551 C2532 0.913 . S
H2552 C2570 0.951 . S
H2553 C2572 0.951 . S
H2554 C2574 0.950 . S
H2555 C2575 0.950 . S
H2556 C2577 0.950 . S
H2557 C2580 0.950 . S
H2558 C2581 0.950 . S
H2559 C2583 0.942 1_455 S
H2560 C2584 0.950 . S
H2561 C2585 0.951 . S
H2562 C2587 0.951 . S
H2563 C2589 0.950 . S
H2564 C2590 0.950 . S
H2565 C2592 0.950 . S
H2566 C2595 0.950 . S
H2567 C2596 0.950 . S
H2568 C2598 0.942 1_655 S
H2569 C2599 0.950 . S
C2570 H2552 0.951 . S
C2570 C2571 1.366 . S
C2570 C2572 1.388 . S
C2571 C2570 1.366 . S
C2571 C2575 1.385 . S
C2572 H2553 0.951 . S
C2572 C2570 1.388 . S
C2572 C2573 1.366 . S
C2573 C2572 1.366 . S
C2573 C2574 1.414 . S
C2573 C2576 1.499 . S
C2574 H2554 0.950 . S
C2574 C2573 1.414 . S
C2574 C2575 1.374 . S
C2575 H2555 0.950 . S
C2575 C2571 1.385 . S
C2575 C2574 1.374 . S
C2576 C2573 1.499 . S
C2576 C2577 1.373 . S
C2576 C2578 1.389 . S
C2577 H2556 0.950 . S
C2577 C2576 1.373 . S
C2577 C2593 1.377 1_655 S
C2578 C2576 1.389 . S
C2578 C2579 1.524 . S
C2578 C2592 1.377 1_655 S
C2579 C2578 1.524 . S
C2579 C2580 1.397 . S
C2579 C2584 1.363 1_655 S
C2580 H2557 0.950 . S
C2580 C2579 1.397 . S
C2580 C2581 1.334 . S
C2581 H2558 0.950 . S
C2581 C2580 1.334 . S
C2581 C2582 1.287 . S
C2582 C2581 1.287 . S
C2582 C2583 1.536 . S
C2582 H2601 0.913 . S
C2583 H2559 0.942 1_655 S
C2583 C2582 1.536 . S
C2583 C2584 1.413 1_655 S
C2584 H2560 0.950 . S
C2584 C2579 1.363 1_455 S
C2584 C2583 1.413 1_455 S
C2585 H2561 0.951 . S
C2585 C2586 1.366 . S
C2585 C2587 1.388 . S
C2586 C2585 1.366 . S
C2586 C2590 1.385 . S
C2587 H2562 0.951 . S
C2587 C2585 1.388 . S
C2587 C2588 1.366 . S
C2588 C2587 1.366 . S
C2588 C2589 1.414 . S
C2588 C2591 1.499 . S
C2589 H2563 0.950 . S
C2589 C2588 1.414 . S
C2589 C2590 1.374 . S
C2590 H2564 0.950 . S
C2590 C2586 1.385 . S
C2590 C2589 1.374 . S
C2591 C2588 1.499 . S
C2591 C2592 1.373 . S
C2591 C2593 1.389 . S
C2592 H2565 0.950 . S
C2592 C2578 1.377 1_455 S
C2592 C2591 1.373 . S
C2593 C2577 1.377 1_455 S
C2593 C2591 1.389 . S
C2593 C2594 1.524 . S
C2594 C2593 1.524 . S
C2594 C2595 1.397 . S
C2594 C2599 1.363 1_455 S
C2595 H2566 0.950 . S
C2595 C2594 1.397 . S
C2595 C2596 1.334 . S
C2596 H2567 0.950 . S
C2596 C2595 1.334 . S
C2596 C2597 1.287 . S
C2597 C2596 1.287 . S
C2597 C2598 1.536 . S
C2597 H2600 0.999 . S
C2598 H2568 0.942 1_455 S
C2598 C2597 1.536 . S
C2598 C2599 1.413 1_455 S
C2599 H2569 0.950 . S
C2599 C2594 1.363 1_655 S
C2599 C2598 1.413 1_655 S
H2600 C2597 0.999 . S
H2601 C2582 0.913 . S
H2602 C2620 0.951 . S
H2603 C2622 0.951 . S
H2604 C2624 0.950 . S
H2605 C2625 0.950 . S
H2606 C2627 0.950 . S
H2607 C2630 0.950 . S
H2608 C2631 0.950 . S
H2609 C2633 0.950 . S
H2610 C2634 0.950 . S
H2611 C2635 0.951 . S
H2612 C2637 0.951 . S
H2613 C2639 0.950 . S
H2614 C2640 0.950 . S
H2615 C2642 0.950 . S
H2616 C2645 0.950 . S
H2617 C2646 0.950 . S
H2618 C2648 0.950 . S
H2619 C2649 0.950 . S
C2620 H2602 0.951 . S
C2620 C2621 1.366 . S
C2620 C2622 1.388 . S
C2621 C2620 1.366 . S
C2621 C2625 1.385 . S
C2622 H2603 0.951 . S
C2622 C2620 1.388 . S
C2622 C2623 1.366 . S
C2623 C2622 1.366 . S
C2623 C2624 1.414 . S
C2623 C2626 1.499 . S
C2624 H2604 0.950 . S
C2624 C2623 1.414 . S
C2624 C2625 1.374 . S
C2625 H2605 0.950 . S
C2625 C2621 1.385 . S
C2625 C2624 1.374 . S
C2626 C2623 1.499 . S
C2626 C2627 1.373 . S
C2626 C2628 1.389 . S
C2627 H2606 0.950 . S
C2627 C2626 1.373 . S
C2627 C2643 1.377 . S
C2628 C2626 1.389 . S
C2628 C2629 1.524 . S
C2628 C2642 1.377 . S
C2629 C2628 1.524 . S
C2629 C2630 1.397 . S
C2629 C2634 1.363 . S
C2630 H2607 0.950 . S
C2630 C2629 1.397 . S
C2630 C2631 1.334 . S
C2631 H2608 0.950 . S
C2631 C2630 1.334 . S
C2631 C2632 1.287 . S
C2632 C2631 1.287 . S
C2632 C2633 1.524 . S
C2632 H2651 0.913 . S
C2633 H2609 0.950 . S
C2633 C2632 1.524 . S
C2633 C2634 1.415 . S
C2634 H2610 0.950 . S
C2634 C2629 1.363 . S
C2634 C2633 1.415 . S
C2635 H2611 0.951 . S
C2635 C2636 1.366 . S
C2635 C2637 1.388 . S
C2636 C2635 1.366 . S
C2636 C2640 1.385 . S
C2637 H2612 0.951 . S
C2637 C2635 1.388 . S
C2637 C2638 1.366 . S
C2638 C2637 1.366 . S
C2638 C2639 1.414 . S
C2638 C2641 1.499 . S
C2639 H2613 0.950 . S
C2639 C2638 1.414 . S
C2639 C2640 1.374 . S
C2640 H2614 0.950 . S
C2640 C2636 1.385 . S
C2640 C2639 1.374 . S
C2641 C2638 1.499 . S
C2641 C2642 1.373 . S
C2641 C2643 1.389 . S
C2642 H2615 0.950 . S
C2642 C2628 1.377 . S
C2642 C2641 1.373 . S
C2643 C2627 1.377 . S
C2643 C2641 1.389 . S
C2643 C2644 1.524 . S
C2644 C2643 1.524 . S
C2644 C2645 1.397 . S
C2644 C2649 1.363 . S
C2645 H2616 0.950 . S
C2645 C2644 1.397 . S
C2645 C2646 1.334 . S
C2646 H2617 0.950 . S
C2646 C2645 1.334 . S
C2646 C2647 1.287 . S
C2647 C2646 1.287 . S
C2647 C2648 1.524 . S
C2647 H2650 0.999 . S
C2648 H2618 0.950 . S
C2648 C2647 1.524 . S
C2648 C2649 1.415 . S
C2649 H2619 0.950 . S
C2649 C2644 1.363 . S
C2649 C2648 1.415 . S
H2650 C2647 0.999 . S
H2651 C2632 0.913 . S
H2652 C2670 0.951 . S
H2653 C2672 0.951 . S
H2654 C2674 0.950 . S
H2655 C2675 0.950 . S
H2656 C2677 0.950 . S
H2657 C2680 0.950 . S
H2658 C2681 0.950 . S
H2659 C2683 0.950 . S
H2660 C2684 0.950 . S
H2661 C2685 0.951 . S
H2662 C2687 0.951 . S
H2663 C2689 0.950 . S
H2664 C2690 0.950 . S
H2665 C2692 0.950 . S
H2666 C2695 0.950 . S
H2667 C2696 0.950 . S
H2668 C2698 0.950 . S
H2669 C2699 0.950 . S
C2670 H2652 0.951 . S
C2670 C2671 1.366 . S
C2670 C2672 1.388 . S
C2671 C2670 1.366 . S
C2671 C2675 1.385 . S
C2672 H2653 0.951 . S
C2672 C2670 1.388 . S
C2672 C2673 1.366 . S
C2673 C2672 1.366 . S
C2673 C2674 1.414 . S
C2673 C2676 1.499 . S
C2674 H2654 0.950 . S
C2674 C2673 1.414 . S
C2674 C2675 1.374 . S
C2675 H2655 0.950 . S
C2675 C2671 1.385 . S
C2675 C2674 1.374 . S
C2676 C2673 1.499 . S
C2676 C2677 1.373 . S
C2676 C2678 1.389 . S
C2677 H2656 0.950 . S
C2677 C2676 1.373 . S
C2677 C2693 1.377 . S
C2678 C2676 1.389 . S
C2678 C2679 1.524 . S
C2678 C2692 1.377 . S
C2679 C2678 1.524 . S
C2679 C2680 1.397 . S
C2679 C2684 1.363 . S
C2680 H2657 0.950 . S
C2680 C2679 1.397 . S
C2680 C2681 1.334 . S
C2681 H2658 0.950 . S
C2681 C2680 1.334 . S
C2681 C2682 1.287 . S
C2682 C2681 1.287 . S
C2682 C2683 1.524 . S
C2682 H2701 0.913 . S
C2683 H2659 0.950 . S
C2683 C2682 1.524 . S
C2683 C2684 1.415 . S
C2684 H2660 0.950 . S
C2684 C2679 1.363 . S
C2684 C2683 1.415 . S
C2685 H2661 0.951 . S
C2685 C2686 1.366 . S
C2685 C2687 1.388 . S
C2686 C2685 1.366 . S
C2686 C2690 1.385 . S
C2687 H2662 0.951 . S
C2687 C2685 1.388 . S
C2687 C2688 1.366 . S
C2688 C2687 1.366 . S
C2688 C2689 1.414 . S
C2688 C2691 1.499 . S
C2689 H2663 0.950 . S
C2689 C2688 1.414 . S
C2689 C2690 1.374 . S
C2690 H2664 0.950 . S
C2690 C2686 1.385 . S
C2690 C2689 1.374 . S
C2691 C2688 1.499 . S
C2691 C2692 1.373 . S
C2691 C2693 1.389 . S
C2692 H2665 0.950 . S
C2692 C2678 1.377 . S
C2692 C2691 1.373 . S
C2693 C2677 1.377 . S
C2693 C2691 1.389 . S
C2693 C2694 1.524 . S
C2694 C2693 1.524 . S
C2694 C2695 1.397 . S
C2694 C2699 1.363 . S
C2695 H2666 0.950 . S
C2695 C2694 1.397 . S
C2695 C2696 1.334 . S
C2696 H2667 0.950 . S
C2696 C2695 1.334 . S
C2696 C2697 1.287 . S
C2697 C2696 1.287 . S
C2697 C2698 1.524 . S
C2697 H2700 0.999 . S
C2698 H2668 0.950 . S
C2698 C2697 1.524 . S
C2698 C2699 1.415 . S
C2699 H2669 0.950 . S
C2699 C2694 1.363 . S
C2699 C2698 1.415 . S
H2700 C2697 0.999 . S
H2701 C2682 0.913 . S
H2702 C2720 0.951 . S
H2703 C2722 0.951 . S
H2704 C2724 0.950 . S
H2705 C2725 0.950 . S
H2706 C2727 0.950 . S
H2707 C2730 0.950 . S
H2708 C2731 0.950 . S
H2709 C2733 0.950 . S
H2710 C2734 0.950 1_655 S
H2711 C2735 0.951 . S
H2712 C2737 0.951 . S
H2713 C2739 0.950 . S
H2714 C2740 0.950 . S
H2715 C2742 0.950 . S
H2716 C2745 0.950 . S
H2717 C2746 0.950 . S
H2718 C2748 0.950 . S
H2719 C2749 0.950 1_455 S
C2720 H2702 0.951 . S
C2720 C2721 1.366 . S
C2720 C2722 1.388 . S
C2721 C2720 1.366 . S
C2721 C2725 1.385 . S
C2722 H2703 0.951 . S
C2722 C2720 1.388 . S
C2722 C2723 1.366 . S
C2723 C2722 1.366 . S
C2723 C2724 1.414 . S
C2723 C2726 1.499 . S
C2724 H2704 0.950 . S
C2724 C2723 1.414 . S
C2724 C2725 1.374 . S
C2725 H2705 0.950 . S
C2725 C2721 1.385 . S
C2725 C2724 1.374 . S
C2726 C2723 1.499 . S
C2726 C2727 1.373 . S
C2726 C2728 1.389 . S
C2727 H2706 0.950 . S
C2727 C2726 1.373 . S
C2727 C2743 1.377 1_455 S
C2728 C2726 1.389 . S
C2728 C2729 1.524 . S
C2728 C2742 1.377 1_455 S
C2729 C2728 1.524 . S
C2729 C2730 1.397 . S
C2729 C2734 1.363 . S
C2730 H2707 0.950 . S
C2730 C2729 1.397 . S
C2730 C2731 1.334 . S
C2731 H2708 0.950 . S
C2731 C2730 1.334 . S
C2731 C2732 1.287 . S
C2732 C2731 1.287 . S
C2732 C2733 1.524 . S
C2732 H2751 0.913 . S
C2733 H2709 0.950 . S
C2733 C2732 1.524 . S
C2733 C2734 1.415 . S
C2734 H2710 0.950 1_455 S
C2734 C2729 1.363 . S
C2734 C2733 1.415 . S
C2735 H2711 0.951 . S
C2735 C2736 1.366 . S
C2735 C2737 1.388 . S
C2736 C2735 1.366 . S
C2736 C2740 1.385 . S
C2737 H2712 0.951 . S
C2737 C2735 1.388 . S
C2737 C2738 1.366 . S
C2738 C2737 1.366 . S
C2738 C2739 1.414 . S
C2738 C2741 1.499 . S
C2739 H2713 0.950 . S
C2739 C2738 1.414 . S
C2739 C2740 1.374 . S
C2740 H2714 0.950 . S
C2740 C2736 1.385 . S
C2740 C2739 1.374 . S
C2741 C2738 1.499 . S
C2741 C2742 1.373 . S
C2741 C2743 1.389 . S
C2742 H2715 0.950 . S
C2742 C2728 1.377 1_655 S
C2742 C2741 1.373 . S
C2743 C2727 1.377 1_655 S
C2743 C2741 1.389 . S
C2743 C2744 1.524 . S
C2744 C2743 1.524 . S
C2744 C2745 1.397 . S
C2744 C2749 1.363 . S
C2745 H2716 0.950 . S
C2745 C2744 1.397 . S
C2745 C2746 1.334 . S
C2746 H2717 0.950 . S
C2746 C2745 1.334 . S
C2746 C2747 1.287 . S
C2747 C2746 1.287 . S
C2747 C2748 1.524 . S
C2747 H2750 0.999 . S
C2748 H2718 0.950 . S
C2748 C2747 1.524 . S
C2748 C2749 1.415 . S
C2749 H2719 0.950 1_655 S
C2749 C2744 1.363 . S
C2749 C2748 1.415 . S
H2750 C2747 0.999 . S
H2751 C2732 0.913 . S
C371 C6 1.386 . S
C386 C290 1.480 . S
C421 C268 1.480 . S
C436 C29 1.387 . S
C471 C334 1.480 . S
C486 C50 1.387 . S
C521 C316 1.480 . S
C536 C72 1.387 . S
C571 C202 1.480 . S
C586 C97 1.386 . S
C621 C119 1.387 . S
C636 C184 1.480 . S
C671 C250 1.480 . S
C686 C137 1.388 . S
C721 C163 1.388 . S
C736 C228 1.480 . S
C771 C114 1.480 . S
C786 C182 1.388 . S
C821 C205 1.388 . S
C836 C92 1.480 . S
C871 C158 1.480 . S
C886 C226 1.388 . S
C921 C140 1.480 . S
C936 C248 1.387 . S
C971 C273 1.386 . S
C986 C26 1.480 . S
C1021 C8 1.480 . S
C1036 C295 1.386 . S
C1071 C313 1.387 . S
C1086 C74 1.480 . S
C1121 C52 1.480 . S
C1136 C339 1.387 . S
C1171 C225 1.483 . S
C1186 C5 1.482 . S
C1221 C31 1.483 . S
C1236 C247 1.482 . S
C1271 C181 1.482 . S
C1286 C49 1.483 . S
C1321 C207 1.483 . S
C1336 C71 1.482 . S
C1371 C314 1.482 . S
C1386 C95 1.482 . S
C1421 C117 1.483 . S
C1436 C337 1.482 . S
C1471 C138 1.482 . S
C1486 C271 1.482 . S
C1521 C293 1.483 . S
C1536 C161 1.482 . S
C1571 C7 1.634 . S
C1586 C28 1.634 . S
C1621 C51 1.634 . S
C1636 C73 1.634 . S
C1671 C93 1.634 . S
C1686 C115 1.634 . S
C1721 C159 1.634 . S
C1736 C141 1.634 . S
C1771 C204 1.634 . S
C1786 C183 1.634 . S
C1821 C227 1.634 . S
C1836 C249 1.634 . S
C1871 C291 1.634 . S
C1886 C269 1.634 . S
C1921 C317 1.634 . S
C1936 C335 1.634 . S
C1971 C270 0.517 . S
C1986 C9 0.517 . S
C2021 C27 0.519 . S
C2036 C292 0.519 . S
C2071 C53 0.516 . S
C2086 C315 0.516 . S
C2121 C75 0.519 . S
C2136 C336 0.519 . S
C2171 C94 0.519 . S
C2186 C185 0.519 . S
C2221 C116 0.518 . S
C2236 C203 0.518 . S
C2271 C139 0.516 . S
C2286 C229 0.516 . S
C2321 C251 0.519 . S
C2336 C160 0.519 . S
C2371 C4 1.449 . S
C2386 C206 1.449 . S
C2421 C30 1.449 . S
C2436 C180 1.449 . S
C2471 C246 1.449 . S
C2486 C48 1.449 . S
C2521 C224 1.449 . S
C2536 C70 1.449 . S
C2571 C96 1.449 . S
C2586 C294 1.449 . S
C2621 C118 1.449 . S
C2636 C272 1.449 . S
C2671 C338 1.449 . S
C2686 C136 1.449 . S
C2721 C162 1.449 . S
C2736 C312 1.449 . S
