# Generated by pormake.
# Topology dia, (4)-cn, num edge types: 1
# Building blocks:
#     Node 0, Type 0, BuildingBlock: CEKHIL_clean_sbu_0, # of connection points: 4
#     Node 1, Type 0, BuildingBlock: CEKHIL_clean_sbu_0, # of connection points: 4
#     Node 2, Type 0, BuildingBlock: CEKHIL_clean_sbu_0, # of connection points: 4
#     Node 3, Type 0, BuildingBlock: CEKHIL_clean_sbu_0, # of connection points: 4
#     Node 4, Type 0, BuildingBlock: CEKHIL_clean_sbu_0, # of connection points: 4
#     Node 5, Type 0, BuildingBlock: CEKHIL_clean_sbu_0, # of connection points: 4
#     Node 6, Type 0, BuildingBlock: CEKHIL_clean_sbu_0, # of connection points: 4
#     Node 7, Type 0, BuildingBlock: CEKHIL_clean_sbu_0, # of connection points: 4
#     Edge 8, Type (0, 0), BuildingBlock: FUNLAD_clean_linker_0, # of connection points: 2
#     Edge 9, Type (0, 0), BuildingBlock: FUNLAD_clean_linker_0, # of connection points: 2
#     Edge 10, Type (0, 0), BuildingBlock: FUNLAD_clean_linker_0, # of connection points: 2
#     Edge 11, Type (0, 0), BuildingBlock: FUNLAD_clean_linker_0, # of connection points: 2
#     Edge 12, Type (0, 0), BuildingBlock: FUNLAD_clean_linker_0, # of connection points: 2
#     Edge 13, Type (0, 0), BuildingBlock: FUNLAD_clean_linker_0, # of connection points: 2
#     Edge 14, Type (0, 0), BuildingBlock: FUNLAD_clean_linker_0, # of connection points: 2
#     Edge 15, Type (0, 0), BuildingBlock: FUNLAD_clean_linker_0, # of connection points: 2
#     Edge 16, Type (0, 0), BuildingBlock: FUNLAD_clean_linker_0, # of connection points: 2
#     Edge 17, Type (0, 0), BuildingBlock: FUNLAD_clean_linker_0, # of connection points: 2
#     Edge 18, Type (0, 0), BuildingBlock: FUNLAD_clean_linker_0, # of connection points: 2
#     Edge 19, Type (0, 0), BuildingBlock: FUNLAD_clean_linker_0, # of connection points: 2
#     Edge 20, Type (0, 0), BuildingBlock: FUNLAD_clean_linker_0, # of connection points: 2
#     Edge 21, Type (0, 0), BuildingBlock: FUNLAD_clean_linker_0, # of connection points: 2
#     Edge 22, Type (0, 0), BuildingBlock: FUNLAD_clean_linker_0, # of connection points: 2
#     Edge 23, Type (0, 0), BuildingBlock: FUNLAD_clean_linker_0, # of connection points: 2
# Relax obj value: 0.001
# Max RMSD: 0.019
# Mean RMSD: 0.019
data_MOF--net-dia--node1-CEKHIL_clean_sbu_0--edge1-FUNLAD_clean_linker_0
_symmetry_space_group_name_H-M    P1
_symmetry_Int_Tables_number       1
_symmetry_cell_setting            triclinic
loop_
_symmetry_equiv_pos_as_xyz
'x, y, z'
_cell_length_a     44.84952
_cell_length_b     44.776854
_cell_length_c     29.041959
_cell_angle_alpha  90.261358
_cell_angle_beta   90.237347
_cell_angle_gamma 91.919823
loop_
_atom_site_label
_atom_site_type_symbol
_atom_site_fract_x
_atom_site_fract_y
_atom_site_fract_z
_atom_type_partial_charge
Co0 Co 0.12803 0.142 0.63481 0.0
O1 O 0.09622 0.16974 0.6289 0.0
O2 O 0.1051 0.14323 0.6912 0.0
C3 C 0.16375 0.17247 0.60461 0.0
O4 O 0.15946 0.11229 0.65469 0.0
Co5 Co 0.16104 0.11809 0.5491 0.0
O6 O 0.18971 0.10326 0.59503 0.0
C7 C 0.09976 0.09594 0.56947 0.0
C8 C 0.08913 0.1631 0.67098 0.0
C9 C 0.18303 0.10086 0.6375 0.0
O10 O 0.10106 0.10887 0.60919 0.0
O11 O 0.1204 0.09896 0.53932 0.0
O12 O 0.15634 0.17519 0.64761 0.0
O13 O 0.14795 0.15332 0.58084 0.0
Co14 Co 0.86428 0.37808 0.8681 0.0
O15 O 0.83576 0.40923 0.87297 0.0
O16 O 0.86336 0.40094 0.81161 0.0
C17 C 0.83428 0.34175 0.89754 0.0
O18 O 0.89501 0.34733 0.84944 0.0
Co19 Co 0.88748 0.34559 0.95503 0.0
O20 O 0.90501 0.31802 0.90988 0.0
C21 C 0.90773 0.40765 0.93573 0.0
C22 C 0.84285 0.41647 0.83112 0.0
C23 C 0.90754 0.32454 0.86737 0.0
O24 O 0.89629 0.40581 0.895 0.0
O25 O 0.90428 0.38707 0.96588 0.0
O26 O 0.83193 0.3489 0.85438 0.0
O27 O 0.85274 0.35806 0.92167 0.0
Co28 Co 0.63352 0.1404 0.13809 0.0
O29 O 0.60355 0.17004 0.13069 0.0
O30 O 0.60901 0.14258 0.19294 0.0
C31 C 0.67172 0.16882 0.11086 0.0
O32 O 0.66289 0.10863 0.15889 0.0
Co33 Co 0.66696 0.11573 0.05276 0.0
O34 O 0.69362 0.099 0.09991 0.0
C35 C 0.60413 0.09743 0.06923 0.0
C36 C 0.59476 0.16348 0.17201 0.0
C37 C 0.68622 0.09638 0.14206 0.0
O38 O 0.60549 0.10908 0.10988 0.0
O39 O 0.62539 0.10001 0.04008 0.0
O40 O 0.66331 0.17193 0.15334 0.0
O41 O 0.65537 0.15094 0.08582 0.0
Co42 Co 0.87089 0.87372 0.36942 0.0
O43 O 0.84077 0.90332 0.37253 0.0
O44 O 0.87014 0.89688 0.31275 0.0
C45 C 0.8417 0.83575 0.39638 0.0
O46 O 0.90376 0.84419 0.35401 0.0
Co47 Co 0.89178 0.84401 0.4603 0.0
O48 O 0.91223 0.81699 0.41754 0.0
C49 C 0.91156 0.90586 0.43934 0.0
C50 C 0.84841 0.91127 0.33132 0.0
C51 C 0.91644 0.8225 0.37497 0.0
O52 O 0.90089 0.90302 0.39822 0.0
O53 O 0.90785 0.88583 0.47031 0.0
O54 O 0.84058 0.84295 0.35313 0.0
O55 O 0.85814 0.85323 0.42201 0.0
Co56 Co 0.13068 0.63958 0.12445 0.0
O57 O 0.09951 0.66768 0.11633 0.0
O58 O 0.10853 0.64444 0.18153 0.0
C59 C 0.16617 0.66799 0.08935 0.0
O60 O 0.16217 0.60992 0.14557 0.0
Co61 Co 0.16123 0.61215 0.03848 0.0
O62 O 0.19103 0.59988 0.08447 0.0
C63 C 0.09997 0.59241 0.06408 0.0
C64 C 0.09275 0.66359 0.15919 0.0
C65 C 0.18554 0.59847 0.12746 0.0
O66 O 0.10252 0.60611 0.10311 0.0
O67 O 0.11987 0.59428 0.03264 0.0
O68 O 0.16005 0.67262 0.13245 0.0
O69 O 0.14939 0.64822 0.06869 0.0
Co70 Co 0.36434 0.37678 0.36729 0.0
O71 O 0.33404 0.40554 0.3774 0.0
O72 O 0.35961 0.40174 0.313 0.0
C73 C 0.33762 0.33748 0.39544 0.0
O74 O 0.39653 0.34844 0.34449 0.0
Co75 Co 0.39151 0.34459 0.45192 0.0
O76 O 0.40912 0.31918 0.40394 0.0
C77 C 0.4085 0.40755 0.43346 0.0
C78 C 0.33881 0.41493 0.33588 0.0
C79 C 0.41057 0.32617 0.36146 0.0
O80 O 0.39555 0.40574 0.39379 0.0
O81 O 0.40707 0.38647 0.4631 0.0
O82 O 0.33346 0.34606 0.3533 0.0
O83 O 0.35545 0.35433 0.41982 0.0
Co84 Co 0.37028 0.88216 0.86611 0.0
O85 O 0.34198 0.91346 0.87224 0.0
O86 O 0.36741 0.90419 0.80902 0.0
C87 C 0.34129 0.84631 0.89915 0.0
O88 O 0.40023 0.85103 0.84592 0.0
Co89 Co 0.39615 0.8502 0.95177 0.0
O90 O 0.41036 0.82124 0.90574 0.0
C91 C 0.41604 0.91211 0.92952 0.0
C92 C 0.34759 0.92004 0.82961 0.0
C93 C 0.41206 0.82762 0.86309 0.0
O94 O 0.40319 0.91019 0.88977 0.0
O95 O 0.41356 0.89164 0.96006 0.0
O96 O 0.33753 0.85276 0.85595 0.0
O97 O 0.36056 0.86297 0.92111 0.0
Co98 Co 0.62797 0.63975 0.63037 0.0
O99 O 0.59806 0.66955 0.62544 0.0
O100 O 0.60483 0.64126 0.68654 0.0
C101 C 0.66584 0.66847 0.60233 0.0
O102 O 0.6574 0.60781 0.64899 0.0
Co103 Co 0.6596 0.61577 0.5434 0.0
O104 O 0.68681 0.59783 0.5887 0.0
C105 C 0.59735 0.59654 0.5627 0.0
C106 C 0.59028 0.66252 0.66709 0.0
C107 C 0.68008 0.59512 0.63112 0.0
O108 O 0.59926 0.60875 0.60291 0.0
O109 O 0.61811 0.59901 0.53267 0.0
O110 O 0.65822 0.67075 0.6453 0.0
O111 O 0.64889 0.65106 0.5773 0.0
C112 C 0.29198 0.30457 0.40212 0.0
C113 C 0.32149 0.31158 0.41553 0.0
C114 C 0.27544 0.28227 0.4251 0.0
C115 C 0.28852 0.26612 0.4608 0.0
C116 C 0.31846 0.27206 0.47259 0.0
C117 C 0.3347 0.29504 0.45068 0.0
C118 C 0.27074 0.24372 0.48686 0.0
C119 C 0.24607 0.25152 0.50939 0.0
C120 C 0.22737 0.22995 0.53592 0.0
C121 C 0.21366 0.23941 0.57656 0.0
C122 C 0.19407 0.22013 0.60036 0.0
C123 C 0.18717 0.19142 0.583 0.0
H124 H 0.2312 0.1931 0.4878 0.0
C125 C 0.20116 0.18181 0.54263 0.0
C126 C 0.22133 0.2008 0.5195 0.0
H127 H 0.19615 0.15978 0.5285 0.0
H128 H 0.28131 0.31715 0.37526 0.0
H129 H 0.25238 0.27777 0.41533 0.0
H130 H 0.32889 0.25972 0.49995 0.0
H131 H 0.35747 0.30004 0.46147 0.0
H132 H 0.27901 0.22129 0.48997 0.0
H133 H 0.2399 0.27481 0.50966 0.0
H134 H 0.21789 0.26186 0.58964 0.0
H135 H 0.18337 0.22813 0.63122 0.0
C136 C 0.72327 0.56137 0.64058 0.0
C137 C 0.69887 0.57577 0.6601 0.0
C138 C 0.74062 0.54239 0.6668 0.0
C139 C 0.73427 0.5374 0.71362 0.0
C140 C 0.70992 0.55181 0.73319 0.0
C141 C 0.69249 0.57084 0.70686 0.0
C142 C 0.75142 0.51628 0.74241 0.0
C143 C 0.77896 0.50698 0.73178 0.0
C144 C 0.79546 0.48448 0.75883 0.0
C145 C 0.81875 0.46948 0.73735 0.0
C146 C 0.83444 0.44768 0.76085 0.0
C147 C 0.82735 0.44052 0.80662 0.0
H148 H 0.77187 0.48935 0.82364 0.0
C149 C 0.80461 0.45602 0.82859 0.0
C150 C 0.78888 0.47778 0.80509 0.0
H151 H 0.79875 0.45124 0.86401 0.0
H152 H 0.72884 0.56438 0.60461 0.0
H153 H 0.75842 0.53118 0.64958 0.0
H154 H 0.70427 0.54826 0.76903 0.0
H155 H 0.67387 0.58143 0.7231 0.0
H156 H 0.74048 0.50794 0.77323 0.0
H157 H 0.78995 0.51546 0.70109 0.0
H158 H 0.82456 0.4743 0.70192 0.0
H159 H 0.8519 0.43625 0.74296 0.0
C160 C 0.57534 0.06662 0.01109 0.0
C161 C 0.57709 0.07965 0.05524 0.0
C162 C 0.55059 0.04886 0.99797 0.0
C163 C 0.52675 0.04384 0.02858 0.0
C164 C 0.52827 0.05716 0.07247 0.0
C165 C 0.5531 0.07498 0.08566 0.0
C166 C 0.50149 0.02266 0.01753 0.0
C167 C 0.49409 0.01385 0.97436 0.0
C168 C 0.47246 0.98877 0.96433 0.0
C169 C 0.45897 0.98653 0.92063 0.0
C170 C 0.44026 0.96191 0.90917 0.0
C171 C 0.43498 0.93887 0.94115 0.0
H172 H 0.47778 0.96593 0.02968 0.0
C173 C 0.44845 0.94128 0.98491 0.0
C174 C 0.46702 0.96577 0.99628 0.0
H175 H 0.44509 0.92397 0.01047 0.0
H176 H 0.59338 0.0696 0.98671 0.0
H177 H 0.55092 0.03833 0.96441 0.0
H178 H 0.51037 0.05342 0.09693 0.0
H179 H 0.55365 0.08469 0.11989 0.0
H180 H 0.48892 0.01363 0.04646 0.0
H181 H 0.50443 0.02495 0.94507 0.0
H182 H 0.46311 1.00376 0.89514 0.0
H183 H 0.43029 0.96078 0.87515 0.0
C184 C 0.94135 0.8041 0.30212 0.0
C185 C 0.9378 0.80328 0.35023 0.0
C186 C 0.96176 0.78555 0.2802 0.0
C187 C 0.97916 0.7659 0.3061 0.0
C188 C 0.9757 0.76545 0.35403 0.0
C189 C 0.95531 0.78363 0.3757 0.0
C190 C 1.00192 0.74618 0.28559 0.0
C191 C 1.00232 0.73729 0.24116 0.0
C192 C 0.0253 0.71736 0.2216 0.0
C193 C 0.03014 0.71774 0.1739 0.0
C194 C 0.0517 0.69998 0.15391 0.0
C195 C 0.06889 0.68102 0.18101 0.0
H196 H 0.03842 0.69594 0.28542 0.0
C197 C 0.0636 0.67989 0.22862 0.0
C198 C 0.04202 0.69781 0.24875 0.0
H199 H 0.0763 0.66538 0.25042 0.0
H200 H 0.92839 0.81903 0.28141 0.0
H201 H 0.96418 0.78716 0.24326 0.0
H202 H 0.98882 0.75081 0.37504 0.0
H203 H 0.95356 0.78235 0.41283 0.0
H204 H 0.01889 0.73834 0.30893 0.0
H205 H 0.98556 0.74528 0.21758 0.0
H206 H 0.01748 0.73222 0.15194 0.0
H207 H 0.05501 0.70135 0.11705 0.0
C208 C 0.31002 0.9603 0.82917 0.0
C209 C 0.33113 0.94359 0.80547 0.0
C210 C 0.29322 0.98147 0.80617 0.0
C211 C 0.29706 0.98644 0.75862 0.0
C212 C 0.3186 0.96999 0.73527 0.0
C213 C 0.33543 0.94888 0.75833 0.0
C214 C 0.27909 0.00788 0.73151 0.0
C215 C 0.25762 0.0252 0.74889 0.0
C216 C 0.23942 0.0456 0.72034 0.0
C217 C 0.21196 0.05507 0.73745 0.0
C218 C 0.19384 0.0735 0.71123 0.0
C219 C 0.20279 0.08298 0.66717 0.0
H220 H 0.27027 0.05052 0.66297 0.0
C221 C 0.2307 0.0743 0.6507 0.0
C222 C 0.24884 0.05606 0.67695 0.0
H223 H 0.23864 0.08155 0.61726 0.0
H224 H 0.30618 0.95681 0.86558 0.0
H225 H 0.27718 0.99342 0.82608 0.0
H226 H 0.32226 0.97324 0.69875 0.0
H227 H 0.35149 0.93641 0.73902 0.0
H228 H 0.28344 0.00859 0.69483 0.0
H229 H 0.25204 0.02388 0.78507 0.0
H230 H 0.20422 0.04774 0.77097 0.0
H231 H 0.17257 0.07981 0.72513 0.0
C232 C 0.93898 0.43674 0.99297 0.0
C233 C 0.92643 0.43435 0.94856 0.0
C234 C 0.95782 0.46096 0.00492 0.0
C235 C 0.96445 0.48362 0.97282 0.0
C236 C 0.95152 0.48154 0.92871 0.0
C237 C 0.93261 0.45724 0.91671 0.0
C238 C 0.98687 0.50803 0.9826 0.0
C239 C 0.99599 0.51608 0.02535 0.0
C240 C 0.02198 0.53678 0.03406 0.0
C241 C 0.02451 0.552 0.0764 0.0
C242 C 0.04969 0.57027 0.0864 0.0
C243 C 0.07298 0.57339 0.05432 0.0
H244 H 0.04495 0.52761 0.96996 0.0
C245 C 0.0704 0.55797 0.01211 0.0
C246 C 0.04536 0.53983 0.00218 0.0
H247 H 0.08794 0.55955 0.98661 0.0
H248 H 0.93479 0.41955 0.01847 0.0
H249 H 0.96792 0.46107 0.03879 0.0
H250 H 0.95646 0.49853 0.90315 0.0
H251 H 0.92332 0.45616 0.88223 0.0
H252 H 0.99663 0.51938 0.95303 0.0
H253 H 0.98437 0.50713 0.05521 0.0
H254 H 0.007 0.54968 0.10185 0.0
H255 H 0.05094 0.58177 0.11927 0.0
C256 C 0.4469 0.28524 0.35214 0.0
C257 C 0.43033 0.308 0.33193 0.0
C258 C 0.46631 0.26833 0.3261 0.0
C259 C 0.46962 0.27325 0.27857 0.0
C260 C 0.45319 0.29604 0.25818 0.0
C261 C 0.4337 0.31318 0.28447 0.0
C262 C 0.49116 0.25618 0.25019 0.0
C263 C 0.50148 0.22925 0.26257 0.0
C264 C 0.52487 0.21255 0.23752 0.0
C265 C 0.53829 0.18866 0.26014 0.0
C266 C 0.56074 0.17257 0.23891 0.0
C267 C 0.57027 0.17979 0.19424 0.0
H268 H 0.52414 0.23714 0.17307 0.0
C269 C 0.55654 0.20329 0.17113 0.0
C270 C 0.53413 0.21947 0.19241 0.0
H271 H 0.56322 0.20937 0.13653 0.0
H272 H 0.44535 0.28063 0.38865 0.0
H273 H 0.4792 0.25201 0.344 0.0
H274 H 0.45548 0.30067 0.22176 0.0
H275 H 0.42147 0.33054 0.26769 0.0
H276 H 0.49885 0.26659 0.21858 0.0
H277 H 0.49294 0.21877 0.29364 0.0
H278 H 0.53163 0.1826 0.29477 0.0
H279 H 0.57075 0.15459 0.25768 0.0
C280 C 0.82909 0.80147 0.46145 0.0
C281 C 0.82437 0.81023 0.41571 0.0
C282 C 0.8112 0.77891 0.48123 0.0
C283 C 0.78779 0.76494 0.45581 0.0
C284 C 0.78398 0.77289 0.40943 0.0
C285 C 0.80208 0.7953 0.38954 0.0
C286 C 0.76656 0.74251 0.47632 0.0
C287 C 0.76197 0.73971 0.52204 0.0
C288 C 0.7385 0.71964 0.54256 0.0
C289 C 0.72973 0.72491 0.58822 0.0
C290 C 0.70661 0.70781 0.60818 0.0
C291 C 0.69174 0.68508 0.58279 0.0
H292 H 0.7311 0.69016 0.48338 0.0
C293 C 0.70115 0.67901 0.53776 0.0
C294 C 0.72442 0.69591 0.51793 0.0
H295 H 0.69038 0.66129 0.5176 0.0
H296 H 0.84646 0.81227 0.48225 0.0
H297 H 0.81586 0.77272 0.51639 0.0
H298 H 0.76641 0.76228 0.38879 0.0
H299 H 0.79805 0.80149 0.3541 0.0
H300 H 0.75267 0.7296 0.45236 0.0
H301 H 0.77428 0.75431 0.54576 0.0
H302 H 0.74035 0.74278 0.60827 0.0
H303 H 0.69992 0.71289 0.64307 0.0
C304 C 0.19857 0.56885 0.19859 0.0
C305 C 0.2068 0.58157 0.15612 0.0
C306 C 0.21815 0.55029 0.22225 0.0
C307 C 0.24647 0.54421 0.2039 0.0
C308 C 0.25496 0.55809 0.16256 0.0
C309 C 0.23547 0.57632 0.13897 0.0
C310 C 0.26798 0.52354 0.22563 0.0
C311 C 0.26106 0.50374 0.25913 0.0
C312 C 0.28259 0.48214 0.27823 0.0
C313 C 0.27762 0.4708 0.32259 0.0
C314 C 0.29627 0.44955 0.3413 0.0
C315 C 0.32028 0.43863 0.31591 0.0
H316 H 0.31098 0.47889 0.21794 0.0
C317 C 0.32541 0.44989 0.27144 0.0
C318 C 0.3068 0.47142 0.25276 0.0
H319 H 0.34356 0.4418 0.25085 0.0
H320 H 0.17671 0.5725 0.21288 0.0
H321 H 0.21081 0.5408 0.25458 0.0
H322 H 0.27662 0.55427 0.14767 0.0
H323 H 0.24284 0.58599 0.10667 0.0
H324 H 0.29054 0.52424 0.21216 0.0
H325 H 0.23885 0.50312 0.27375 0.0
H326 H 0.25911 0.47836 0.34295 0.0
H327 H 0.2915 0.44133 0.3756 0.0
C328 C 0.82522 0.30519 0.96054 0.0
C329 C 0.81581 0.31798 0.91912 0.0
C330 C 0.8065 0.28512 0.9842 0.0
C331 C 0.77781 0.27781 0.96713 0.0
C332 C 0.76858 0.2902 0.92532 0.0
C333 C 0.78761 0.30982 0.90109 0.0
C334 C 0.75648 0.25909 0.99403 0.0
C335 C 0.76499 0.23616 0.02007 0.0
C336 C 0.74285 0.21833 0.04633 0.0
C337 C 0.73744 0.18822 0.03502 0.0
C338 C 0.71459 0.17188 0.05685 0.0
C339 C 0.69762 0.18517 0.09142 0.0
H340 H 0.73041 0.25481 0.0907 0.0
C341 C 0.70411 0.2149 0.10442 0.0
C342 C 0.72632 0.23155 0.08146 0.0
H343 H 0.69113 0.22561 0.13078 0.0
H344 H 0.84685 0.31118 0.97523 0.0
H345 H 0.81404 0.27638 0.01679 0.0
H346 H 0.74649 0.28497 0.91169 0.0
H347 H 0.77976 0.31961 0.86942 0.0
H348 H 0.73289 0.26378 0.99137 0.0
H349 H 0.78793 0.22912 0.01976 0.0
H350 H 0.75008 0.17773 0.00804 0.0
H351 H 0.70999 0.14896 0.04632 0.0
C352 C 0.81007 0.9507 0.33021 0.0
C353 C 0.83217 0.93498 0.30699 0.0
C354 C 0.7935 0.97216 0.30752 0.0
C355 C 0.79846 0.97846 0.26062 0.0
C356 C 0.82093 0.96299 0.23768 0.0
C357 C 0.83761 0.94156 0.26052 0.0
C358 C 0.78089 1.00059 0.23401 0.0
C359 C 0.75804 0.01636 0.25093 0.0
C360 C 0.74047 0.03784 0.2232 0.0
C361 C 0.7125 0.04662 0.23946 0.0
C362 C 0.69502 0.06616 0.21401 0.0
C363 C 0.70512 0.07741 0.17154 0.0
H364 H 0.77275 0.04516 0.16827 0.0
C365 C 0.73349 0.06938 0.15605 0.0
C366 C 0.75097 0.05009 0.18152 0.0
H367 H 0.74234 0.07799 0.12391 0.0
H368 H 0.80534 0.9463 0.36614 0.0
H369 H 0.77686 0.98341 0.32724 0.0
H370 H 0.82551 0.9673 0.20167 0.0
H371 H 0.85444 0.92988 0.24158 0.0
H372 H 0.78687 1.00319 0.1981 0.0
H373 H 0.75089 0.01299 0.28613 0.0
H374 H 0.70388 0.03795 0.27171 0.0
H375 H 0.67337 0.0719 0.22711 0.0
C376 C 0.94219 0.93618 0.49602 0.0
C377 C 0.93008 0.93288 0.45143 0.0
C378 C 0.96121 0.96046 0.50712 0.0
C379 C 0.96846 0.98233 0.474 0.0
C380 C 0.95596 0.97934 0.42969 0.0
C381 C 0.93689 0.95497 0.41852 0.0
C382 C 0.99082 0.00695 0.48327 0.0
C383 C 0.99889 0.01623 0.52595 0.0
C384 C 0.02406 0.03793 0.53528 0.0
C385 C 0.02549 0.0529 0.5779 0.0
C386 C 0.04984 0.07198 0.58903 0.0
C387 C 0.07347 0.07631 0.55781 0.0
H388 H 0.04809 0.0305 0.47151 0.0
C389 C 0.07195 0.06135 0.51511 0.0
C390 C 0.04768 0.04233 0.50404 0.0
H391 H 0.08977 0.06393 0.49025 0.0
H392 H 0.93758 0.91961 0.52231 0.0
H393 H 0.97095 0.96123 0.54124 0.0
H394 H 0.96134 0.99569 0.40335 0.0
H395 H 0.92799 0.95319 0.38385 0.0
H396 H 1.00105 0.01762 0.45351 0.0
H397 H 0.9867 0.00773 0.55558 0.0
H398 H 0.00779 0.04967 0.60285 0.0
H399 H 0.05023 0.0831 0.62223 0.0
C400 C 0.94134 0.28134 0.85827 0.0
C401 C 0.92678 0.30556 0.83846 0.0
C402 C 0.96056 0.26406 0.83234 0.0
C403 C 0.96564 0.27029 0.78549 0.0
C404 C 0.95097 0.29439 0.76559 0.0
C405 C 0.93172 0.31177 0.79164 0.0
C406 C 0.98713 0.25332 0.75706 0.0
C407 C 0.99707 0.22609 0.76831 0.0
C408 C 0.02002 0.20986 0.74176 0.0
C409 C 0.03544 0.18708 0.76384 0.0
C410 C 0.0576 0.17162 0.74085 0.0
C411 C 0.06474 0.17841 0.69496 0.0
H412 H 0.01489 0.2328 0.67643 0.0
C413 C 0.04886 0.20066 0.6724 0.0
C414 C 0.02673 0.21617 0.6954 0.0
H415 H 0.05363 0.20628 0.63689 0.0
H416 H 0.93836 0.2759 0.8943 0.0
H417 H 0.97192 0.24647 0.84985 0.0
H418 H 0.95456 0.29995 0.72972 0.0
H419 H 0.92101 0.33026 0.77518 0.0
H420 H 0.99525 0.26418 0.72603 0.0
H421 H 0.98882 0.21517 0.79919 0.0
H422 H 0.03064 0.18149 0.79937 0.0
H423 H 0.06933 0.15455 0.75921 0.0
C424 C 0.55223 0.70226 0.66938 0.0
C425 C 0.56688 0.67899 0.69151 0.0
C426 C 0.53138 0.71913 0.69292 0.0
C427 C 0.52454 0.71306 0.73934 0.0
C428 C 0.53896 0.68947 0.76111 0.0
C429 C 0.55981 0.67261 0.73754 0.0
C430 C 0.50367 0.73123 0.76709 0.0
C431 C 0.48539 0.75189 0.7498 0.0
C432 C 0.46564 0.77043 0.77888 0.0
C433 C 0.45565 0.79764 0.7615 0.0
C434 C 0.4378 0.81606 0.78824 0.0
C435 C 0.42945 0.80763 0.83306 0.0
H436 H 0.46231 0.74027 0.83735 0.0
C437 C 0.43866 0.77995 0.84984 0.0
C438 C 0.45633 0.76153 0.82311 0.0
H439 H 0.43225 0.77238 0.88387 0.0
H440 H 0.55724 0.70784 0.63393 0.0
H441 H 0.5214 0.73721 0.67458 0.0
H442 H 0.53431 0.6842 0.7968 0.0
H443 H 0.57072 0.65489 0.75564 0.0
H444 H 0.50402 0.72753 0.80397 0.0
H445 H 0.48522 0.75634 0.71317 0.0
H446 H 0.46211 0.80496 0.72735 0.0
H447 H 0.43105 0.83714 0.77408 0.0
C448 C 0.20466 0.70961 0.08482 0.0
C449 C 0.18979 0.68484 0.06445 0.0
C450 C 0.22512 0.72699 0.05942 0.0
C451 C 0.23135 0.71963 0.01324 0.0
C452 C 0.21682 0.69448 0.9934 0.0
C453 C 0.19632 0.67724 0.01869 0.0
C454 C 0.25122 0.73854 0.98373 0.0
C455 C 0.27197 0.75807 0.00061 0.0
C456 C 0.29053 0.77866 0.97169 0.0
C457 C 0.31562 0.79294 0.99203 0.0
C458 C 0.33249 0.81428 0.96785 0.0
C459 C 0.32467 0.82189 0.92262 0.0
H460 H 0.26344 0.77607 0.90916 0.0
C461 C 0.30006 0.80719 0.90158 0.0
C462 C 0.28298 0.78589 0.92594 0.0
H463 H 0.29342 0.81282 0.86687 0.0
H464 H 0.19982 0.71613 0.11989 0.0
H465 H 0.23506 0.74667 0.07576 0.0
H466 H 0.22102 0.68836 0.95792 0.0
H467 H 0.18517 0.65826 0.002 0.0
H468 H 0.24881 0.73567 0.94677 0.0
H469 H 0.27607 0.75894 0.03745 0.0
H470 H 0.32194 0.78796 0.02715 0.0
H471 H 0.35138 0.8252 0.98504 0.0
C472 C 0.44056 0.43733 0.4889 0.0
C473 C 0.42686 0.43471 0.44533 0.0
C474 C 0.45927 0.46189 0.49975 0.0
C475 C 0.46463 0.4847 0.4674 0.0
C476 C 0.45064 0.48235 0.42408 0.0
C477 C 0.43183 0.45772 0.41319 0.0
C478 C 0.4866 0.50973 0.47629 0.0
C479 C 0.4953 0.51857 0.5189 0.0
C480 C 0.5204 0.5404 0.52798 0.0
C481 C 0.52268 0.55429 0.5714 0.0
C482 C 0.54731 0.573 0.58255 0.0
C483 C 0.57037 0.57801 0.55057 0.0
H484 H 0.54304 0.5348 0.46252 0.0
C485 C 0.56787 0.56437 0.50692 0.0
C486 C 0.54331 0.54573 0.49581 0.0
H487 H 0.58521 0.56756 0.4814 0.0
H488 H 0.43738 0.42006 0.51458 0.0
H489 H 0.47027 0.46218 0.53297 0.0
H490 H 0.45459 0.49943 0.39831 0.0
H491 H 0.4217 0.45645 0.37929 0.0
H492 H 0.49599 0.52099 0.44641 0.0
H493 H 0.48382 0.50937 0.54873 0.0
H494 H 0.50553 0.55036 0.59704 0.0
H495 H 0.54846 0.5831 0.6165 0.0
loop_
_geom_bond_atom_site_label_1
_geom_bond_atom_site_label_2
_geom_bond_distance
_geom_bond_site_symmetry_2
_ccdc_geom_bond_type
Co0 O1 2.216 . S
Co0 O2 2.091 . S
Co0 O4 2.004 . S
Co0 O10 2.021 . S
Co0 O12 2.137 . S
Co0 O13 2.244 . S
O1 Co0 2.216 . S
O1 C8 1.247 . S
O2 Co0 2.091 . S
O2 C8 1.261 . S
C3 O12 1.247 . S
C3 O13 1.272 . S
O4 Co0 2.004 . S
O4 C9 1.259 . S
Co5 O6 2.061 . S
Co5 O11 2.052 . S
Co5 O13 2.135 . S
O6 Co5 2.061 . S
O6 C9 1.235 . S
C7 O10 1.238 . S
C7 O11 1.241 . S
C8 O1 1.247 . S
C8 O2 1.261 . S
C9 O4 1.259 . S
C9 O6 1.235 . S
O10 Co0 2.021 . S
O10 C7 1.238 . S
O11 Co5 2.052 . S
O11 C7 1.241 . S
O12 Co0 2.137 . S
O12 C3 1.247 . S
O13 Co0 2.244 . S
O13 C3 1.272 . S
O13 Co5 2.135 . S
Co14 O15 2.216 . S
Co14 O16 2.091 . S
Co14 O18 2.004 . S
Co14 O24 2.021 . S
Co14 O26 2.137 . S
Co14 O27 2.244 . S
O15 Co14 2.216 . S
O15 C22 1.247 . S
O16 Co14 2.091 . S
O16 C22 1.261 . S
C17 O26 1.247 . S
C17 O27 1.272 . S
O18 Co14 2.004 . S
O18 C23 1.259 . S
Co19 O20 2.061 . S
Co19 O25 2.052 . S
Co19 O27 2.135 . S
O20 Co19 2.061 . S
O20 C23 1.235 . S
C21 O24 1.238 . S
C21 O25 1.241 . S
C22 O15 1.247 . S
C22 O16 1.261 . S
C23 O18 1.259 . S
C23 O20 1.235 . S
O24 Co14 2.021 . S
O24 C21 1.238 . S
O25 Co19 2.052 . S
O25 C21 1.241 . S
O26 Co14 2.137 . S
O26 C17 1.247 . S
O27 Co14 2.244 . S
O27 C17 1.272 . S
O27 Co19 2.135 . S
Co28 O29 2.216 . S
Co28 O30 2.091 . S
Co28 O32 2.004 . S
Co28 O38 2.021 . S
Co28 O40 2.137 . S
Co28 O41 2.244 . S
O29 Co28 2.216 . S
O29 C36 1.247 . S
O30 Co28 2.091 . S
O30 C36 1.261 . S
C31 O40 1.247 . S
C31 O41 1.272 . S
O32 Co28 2.004 . S
O32 C37 1.259 . S
Co33 O34 2.061 . S
Co33 O39 2.052 . S
Co33 O41 2.135 . S
O34 Co33 2.061 . S
O34 C37 1.235 . S
C35 O38 1.238 . S
C35 O39 1.241 . S
C36 O29 1.247 . S
C36 O30 1.261 . S
C37 O32 1.259 . S
C37 O34 1.235 . S
O38 Co28 2.021 . S
O38 C35 1.238 . S
O39 Co33 2.052 . S
O39 C35 1.241 . S
O40 Co28 2.137 . S
O40 C31 1.247 . S
O41 Co28 2.244 . S
O41 C31 1.272 . S
O41 Co33 2.135 . S
Co42 O43 2.216 . S
Co42 O44 2.091 . S
Co42 O46 2.004 . S
Co42 O52 2.021 . S
Co42 O54 2.137 . S
Co42 O55 2.244 . S
O43 Co42 2.216 . S
O43 C50 1.247 . S
O44 Co42 2.091 . S
O44 C50 1.261 . S
C45 O54 1.247 . S
C45 O55 1.272 . S
O46 Co42 2.004 . S
O46 C51 1.259 . S
Co47 O48 2.061 . S
Co47 O53 2.052 . S
Co47 O55 2.135 . S
O48 Co47 2.061 . S
O48 C51 1.235 . S
C49 O52 1.238 . S
C49 O53 1.241 . S
C50 O43 1.247 . S
C50 O44 1.261 . S
C51 O46 1.259 . S
C51 O48 1.235 . S
O52 Co42 2.021 . S
O52 C49 1.238 . S
O53 Co47 2.052 . S
O53 C49 1.241 . S
O54 Co42 2.137 . S
O54 C45 1.247 . S
O55 Co42 2.244 . S
O55 C45 1.272 . S
O55 Co47 2.135 . S
Co56 O57 2.216 . S
Co56 O58 2.091 . S
Co56 O60 2.004 . S
Co56 O66 2.021 . S
Co56 O68 2.137 . S
Co56 O69 2.244 . S
O57 Co56 2.216 . S
O57 C64 1.247 . S
O58 Co56 2.091 . S
O58 C64 1.261 . S
C59 O68 1.247 . S
C59 O69 1.272 . S
O60 Co56 2.004 . S
O60 C65 1.259 . S
Co61 O62 2.061 . S
Co61 O67 2.052 . S
Co61 O69 2.135 . S
O62 Co61 2.061 . S
O62 C65 1.235 . S
C63 O66 1.238 . S
C63 O67 1.241 . S
C64 O57 1.247 . S
C64 O58 1.261 . S
C65 O60 1.259 . S
C65 O62 1.235 . S
O66 Co56 2.021 . S
O66 C63 1.238 . S
O67 Co61 2.052 . S
O67 C63 1.241 . S
O68 Co56 2.137 . S
O68 C59 1.247 . S
O69 Co56 2.244 . S
O69 C59 1.272 . S
O69 Co61 2.135 . S
Co70 O71 2.216 . S
Co70 O72 2.091 . S
Co70 O74 2.004 . S
Co70 O80 2.021 . S
Co70 O82 2.137 . S
Co70 O83 2.244 . S
O71 Co70 2.216 . S
O71 C78 1.247 . S
O72 Co70 2.091 . S
O72 C78 1.261 . S
C73 O82 1.247 . S
C73 O83 1.272 . S
O74 Co70 2.004 . S
O74 C79 1.259 . S
Co75 O76 2.061 . S
Co75 O81 2.052 . S
Co75 O83 2.135 . S
O76 Co75 2.061 . S
O76 C79 1.235 . S
C77 O80 1.238 . S
C77 O81 1.241 . S
C78 O71 1.247 . S
C78 O72 1.261 . S
C79 O74 1.259 . S
C79 O76 1.235 . S
O80 Co70 2.021 . S
O80 C77 1.238 . S
O81 Co75 2.052 . S
O81 C77 1.241 . S
O82 Co70 2.137 . S
O82 C73 1.247 . S
O83 Co70 2.244 . S
O83 C73 1.272 . S
O83 Co75 2.135 . S
Co84 O85 2.216 . S
Co84 O86 2.091 . S
Co84 O88 2.004 . S
Co84 O94 2.021 . S
Co84 O96 2.137 . S
Co84 O97 2.244 . S
O85 Co84 2.216 . S
O85 C92 1.247 . S
O86 Co84 2.091 . S
O86 C92 1.261 . S
C87 O96 1.247 . S
C87 O97 1.272 . S
O88 Co84 2.004 . S
O88 C93 1.259 . S
Co89 O90 2.061 . S
Co89 O95 2.052 . S
Co89 O97 2.135 . S
O90 Co89 2.061 . S
O90 C93 1.235 . S
C91 O94 1.238 . S
C91 O95 1.241 . S
C92 O85 1.247 . S
C92 O86 1.261 . S
C93 O88 1.259 . S
C93 O90 1.235 . S
O94 Co84 2.021 . S
O94 C91 1.238 . S
O95 Co89 2.052 . S
O95 C91 1.241 . S
O96 Co84 2.137 . S
O96 C87 1.247 . S
O97 Co84 2.244 . S
O97 C87 1.272 . S
O97 Co89 2.135 . S
Co98 O99 2.216 . S
Co98 O100 2.091 . S
Co98 O102 2.004 . S
Co98 O108 2.021 . S
Co98 O110 2.137 . S
Co98 O111 2.244 . S
O99 Co98 2.216 . S
O99 C106 1.247 . S
O100 Co98 2.091 . S
O100 C106 1.261 . S
C101 O110 1.247 . S
C101 O111 1.272 . S
O102 Co98 2.004 . S
O102 C107 1.259 . S
Co103 O104 2.061 . S
Co103 O109 2.052 . S
Co103 O111 2.135 . S
O104 Co103 2.061 . S
O104 C107 1.235 . S
C105 O108 1.238 . S
C105 O109 1.241 . S
C106 O99 1.247 . S
C106 O100 1.261 . S
C107 O102 1.259 . S
C107 O104 1.235 . S
O108 Co98 2.021 . S
O108 C105 1.238 . S
O109 Co103 2.052 . S
O109 C105 1.241 . S
O110 Co98 2.137 . S
O110 C101 1.247 . S
O111 Co98 2.244 . S
O111 C101 1.272 . S
O111 Co103 2.135 . S
C112 C113 1.386 . S
C112 C114 1.383 . S
C112 H128 0.951 . S
C113 C112 1.386 . S
C113 C117 1.383 . S
C114 C112 1.383 . S
C114 C115 1.402 . S
C114 H129 0.951 . S
C115 C114 1.402 . S
C115 C116 1.375 . S
C115 C118 1.481 . S
C116 C115 1.375 . S
C116 C117 1.367 . S
C116 H130 0.951 . S
C117 C113 1.383 . S
C117 C116 1.367 . S
C117 H131 0.950 . S
C118 C115 1.481 . S
C118 C119 1.297 . S
C118 H132 0.950 . S
C119 C118 1.297 . S
C119 C120 1.479 . S
C119 H133 0.950 . S
C120 C119 1.479 . S
C120 C121 1.375 . S
C120 C126 1.404 . S
C121 C120 1.375 . S
C121 C122 1.369 . S
C121 H134 0.950 . S
C122 C121 1.369 . S
C122 C123 1.392 . S
C122 H135 0.951 . S
C123 C122 1.392 . S
C123 C125 1.384 . S
H124 C126 0.949 . S
C125 C123 1.384 . S
C125 C126 1.385 . S
C125 H127 0.950 . S
C126 C120 1.404 . S
C126 H124 0.949 . S
C126 C125 1.385 . S
H127 C125 0.950 . S
H128 C112 0.951 . S
H129 C114 0.951 . S
H130 C116 0.951 . S
H131 C117 0.950 . S
H132 C118 0.950 . S
H133 C119 0.950 . S
H134 C121 0.950 . S
H135 C122 0.951 . S
C136 C137 1.386 . S
C136 C138 1.383 . S
C136 H152 0.951 . S
C137 C136 1.386 . S
C137 C141 1.383 . S
C138 C136 1.383 . S
C138 C139 1.402 . S
C138 H153 0.951 . S
C139 C138 1.402 . S
C139 C140 1.375 . S
C139 C142 1.481 . S
C140 C139 1.375 . S
C140 C141 1.367 . S
C140 H154 0.951 . S
C141 C137 1.383 . S
C141 C140 1.367 . S
C141 H155 0.950 . S
C142 C139 1.481 . S
C142 C143 1.297 . S
C142 H156 0.950 . S
C143 C142 1.297 . S
C143 C144 1.479 . S
C143 H157 0.950 . S
C144 C143 1.479 . S
C144 C145 1.375 . S
C144 C150 1.404 . S
C145 C144 1.375 . S
C145 C146 1.369 . S
C145 H158 0.950 . S
C146 C145 1.369 . S
C146 C147 1.392 . S
C146 H159 0.951 . S
C147 C146 1.392 . S
C147 C149 1.384 . S
H148 C150 0.949 . S
C149 C147 1.384 . S
C149 C150 1.385 . S
C149 H151 0.950 . S
C150 C144 1.404 . S
C150 H148 0.949 . S
C150 C149 1.385 . S
H151 C149 0.950 . S
H152 C136 0.951 . S
H153 C138 0.951 . S
H154 C140 0.951 . S
H155 C141 0.950 . S
H156 C142 0.950 . S
H157 C143 0.950 . S
H158 C145 0.950 . S
H159 C146 0.951 . S
C160 C161 1.386 . S
C160 C162 1.383 . S
C160 H176 0.951 . S
C161 C160 1.386 . S
C161 C165 1.383 . S
C162 C160 1.383 . S
C162 C163 1.402 . S
C162 H177 0.951 1_554 S
C163 C162 1.402 . S
C163 C164 1.375 . S
C163 C166 1.481 1_545 S
C164 C163 1.375 . S
C164 C165 1.367 . S
C164 H178 0.951 . S
C165 C161 1.383 . S
C165 C164 1.367 . S
C165 H179 0.950 . S
C166 C163 1.481 1_565 S
C166 C167 1.297 1_554 S
C166 H180 0.950 . S
C167 C166 1.297 1_556 S
C167 C168 1.479 . S
C167 H181 0.950 . S
C168 C167 1.479 . S
C168 C169 1.375 . S
C168 C174 1.404 . S
C169 C168 1.375 . S
C169 C170 1.369 . S
C169 H182 0.950 . S
C170 C169 1.369 . S
C170 C171 1.392 . S
C170 H183 0.951 . S
C171 C170 1.392 . S
C171 C173 1.384 . S
H172 C174 0.949 1_554 S
C173 C171 1.384 . S
C173 C174 1.385 . S
C173 H175 0.950 . S
C174 C168 1.404 . S
C174 H172 0.949 1_556 S
C174 C173 1.385 . S
H175 C173 0.950 . S
H176 C160 0.951 . S
H177 C162 0.951 1_556 S
H178 C164 0.951 . S
H179 C165 0.950 . S
H180 C166 0.950 . S
H181 C167 0.950 . S
H182 C169 0.950 . S
H183 C170 0.951 . S
C184 C185 1.386 . S
C184 C186 1.383 . S
C184 H200 0.951 . S
C185 C184 1.386 . S
C185 C189 1.383 . S
C186 C184 1.383 . S
C186 C187 1.402 . S
C186 H201 0.951 . S
C187 C186 1.402 . S
C187 C188 1.375 . S
C187 C190 1.481 1_655 S
C188 C187 1.375 . S
C188 C189 1.367 . S
C188 H202 0.951 1_655 S
C189 C185 1.383 . S
C189 C188 1.367 . S
C189 H203 0.950 . S
C190 C187 1.481 1_455 S
C190 C191 1.297 . S
C190 H204 0.950 . S
C191 C190 1.297 . S
C191 C192 1.479 . S
C191 H205 0.950 1_455 S
C192 C191 1.479 . S
C192 C193 1.375 . S
C192 C198 1.404 . S
C193 C192 1.375 . S
C193 C194 1.369 . S
C193 H206 0.950 . S
C194 C193 1.369 . S
C194 C195 1.392 . S
C194 H207 0.951 . S
C195 C194 1.392 . S
C195 C197 1.384 . S
H196 C198 0.949 . S
C197 C195 1.384 . S
C197 C198 1.385 . S
C197 H199 0.950 . S
C198 C192 1.404 . S
C198 H196 0.949 . S
C198 C197 1.385 . S
H199 C197 0.950 . S
H200 C184 0.951 . S
H201 C186 0.951 . S
H202 C188 0.951 1_455 S
H203 C189 0.950 . S
H204 C190 0.950 . S
H205 C191 0.950 1_655 S
H206 C193 0.950 . S
H207 C194 0.951 . S
C208 C209 1.386 . S
C208 C210 1.383 . S
C208 H224 0.951 . S
C209 C208 1.386 . S
C209 C213 1.383 . S
C210 C208 1.383 . S
C210 C211 1.402 . S
C210 H225 0.951 . S
C211 C210 1.402 . S
C211 C212 1.375 . S
C211 C214 1.481 . S
C212 C211 1.375 . S
C212 C213 1.367 . S
C212 H226 0.951 . S
C213 C209 1.383 . S
C213 C212 1.367 . S
C213 H227 0.950 . S
C214 C211 1.481 . S
C214 C215 1.297 1_565 S
C214 H228 0.950 . S
C215 C214 1.297 1_545 S
C215 C216 1.479 . S
C215 H229 0.950 . S
C216 C215 1.479 . S
C216 C217 1.375 . S
C216 C222 1.404 . S
C217 C216 1.375 . S
C217 C218 1.369 . S
C217 H230 0.950 . S
C218 C217 1.369 . S
C218 C219 1.392 . S
C218 H231 0.951 . S
C219 C218 1.392 . S
C219 C221 1.384 . S
H220 C222 0.949 . S
C221 C219 1.384 . S
C221 C222 1.385 . S
C221 H223 0.950 . S
C222 C216 1.404 . S
C222 H220 0.949 . S
C222 C221 1.385 . S
H223 C221 0.950 . S
H224 C208 0.951 . S
H225 C210 0.951 . S
H226 C212 0.951 . S
H227 C213 0.950 . S
H228 C214 0.950 . S
H229 C215 0.950 . S
H230 C217 0.950 . S
H231 C218 0.951 . S
C232 C233 1.386 . S
C232 C234 1.383 . S
C232 H248 0.951 . S
C233 C232 1.386 . S
C233 C237 1.383 . S
C234 C232 1.383 . S
C234 C235 1.402 . S
C234 H249 0.951 1_556 S
C235 C234 1.402 . S
C235 C236 1.375 . S
C235 C238 1.481 1_655 S
C236 C235 1.375 . S
C236 C237 1.367 . S
C236 H250 0.951 1_655 S
C237 C233 1.383 . S
C237 C236 1.367 . S
C237 H251 0.950 . S
C238 C235 1.481 1_455 S
C238 C239 1.297 1_556 S
C238 H252 0.950 . S
C239 C238 1.297 1_554 S
C239 C240 1.479 . S
C239 H253 0.950 1_455 S
C240 C239 1.479 . S
C240 C241 1.375 . S
C240 C246 1.404 . S
C241 C240 1.375 . S
C241 C242 1.369 . S
C241 H254 0.950 . S
C242 C241 1.369 . S
C242 C243 1.392 . S
C242 H255 0.951 . S
C243 C242 1.392 . S
C243 C245 1.384 . S
H244 C246 0.949 1_556 S
C245 C243 1.384 . S
C245 C246 1.385 . S
C245 H247 0.950 . S
C246 C240 1.404 . S
C246 H244 0.949 1_554 S
C246 C245 1.385 . S
H247 C245 0.950 . S
H248 C232 0.951 . S
H249 C234 0.951 1_554 S
H250 C236 0.951 1_455 S
H251 C237 0.950 . S
H252 C238 0.950 . S
H253 C239 0.950 1_655 S
H254 C241 0.950 . S
H255 C242 0.951 . S
C256 C257 1.386 . S
C256 C258 1.383 . S
C256 H272 0.951 . S
C257 C256 1.386 . S
C257 C261 1.383 . S
C258 C256 1.383 . S
C258 C259 1.402 . S
C258 H273 0.951 . S
C259 C258 1.402 . S
C259 C260 1.375 . S
C259 C262 1.481 . S
C260 C259 1.375 . S
C260 C261 1.367 . S
C260 H274 0.951 . S
C261 C257 1.383 . S
C261 C260 1.367 . S
C261 H275 0.950 . S
C262 C259 1.481 . S
C262 C263 1.297 . S
C262 H276 0.950 . S
C263 C262 1.297 . S
C263 C264 1.479 . S
C263 H277 0.950 . S
C264 C263 1.479 . S
C264 C265 1.375 . S
C264 C270 1.404 . S
C265 C264 1.375 . S
C265 C266 1.369 . S
C265 H278 0.950 . S
C266 C265 1.369 . S
C266 C267 1.392 . S
C266 H279 0.951 . S
C267 C266 1.392 . S
C267 C269 1.384 . S
H268 C270 0.949 . S
C269 C267 1.384 . S
C269 C270 1.385 . S
C269 H271 0.950 . S
C270 C264 1.404 . S
C270 H268 0.949 . S
C270 C269 1.385 . S
H271 C269 0.950 . S
H272 C256 0.951 . S
H273 C258 0.951 . S
H274 C260 0.951 . S
H275 C261 0.950 . S
H276 C262 0.950 . S
H277 C263 0.950 . S
H278 C265 0.950 . S
H279 C266 0.951 . S
C280 C281 1.386 . S
C280 C282 1.383 . S
C280 H296 0.951 . S
C281 C280 1.386 . S
C281 C285 1.383 . S
C282 C280 1.383 . S
C282 C283 1.402 . S
C282 H297 0.951 . S
C283 C282 1.402 . S
C283 C284 1.375 . S
C283 C286 1.481 . S
C284 C283 1.375 . S
C284 C285 1.367 . S
C284 H298 0.951 . S
C285 C281 1.383 . S
C285 C284 1.367 . S
C285 H299 0.950 . S
C286 C283 1.481 . S
C286 C287 1.297 . S
C286 H300 0.950 . S
C287 C286 1.297 . S
C287 C288 1.479 . S
C287 H301 0.950 . S
C288 C287 1.479 . S
C288 C289 1.375 . S
C288 C294 1.404 . S
C289 C288 1.375 . S
C289 C290 1.369 . S
C289 H302 0.950 . S
C290 C289 1.369 . S
C290 C291 1.392 . S
C290 H303 0.951 . S
C291 C290 1.392 . S
C291 C293 1.384 . S
H292 C294 0.949 . S
C293 C291 1.384 . S
C293 C294 1.385 . S
C293 H295 0.950 . S
C294 C288 1.404 . S
C294 H292 0.949 . S
C294 C293 1.385 . S
H295 C293 0.950 . S
H296 C280 0.951 . S
H297 C282 0.951 . S
H298 C284 0.951 . S
H299 C285 0.950 . S
H300 C286 0.950 . S
H301 C287 0.950 . S
H302 C289 0.950 . S
H303 C290 0.951 . S
C304 C305 1.386 . S
C304 C306 1.383 . S
C304 H320 0.951 . S
C305 C304 1.386 . S
C305 C309 1.383 . S
C306 C304 1.383 . S
C306 C307 1.402 . S
C306 H321 0.951 . S
C307 C306 1.402 . S
C307 C308 1.375 . S
C307 C310 1.481 . S
C308 C307 1.375 . S
C308 C309 1.367 . S
C308 H322 0.951 . S
C309 C305 1.383 . S
C309 C308 1.367 . S
C309 H323 0.950 . S
C310 C307 1.481 . S
C310 C311 1.297 . S
C310 H324 0.950 . S
C311 C310 1.297 . S
C311 C312 1.479 . S
C311 H325 0.950 . S
C312 C311 1.479 . S
C312 C313 1.375 . S
C312 C318 1.404 . S
C313 C312 1.375 . S
C313 C314 1.369 . S
C313 H326 0.950 . S
C314 C313 1.369 . S
C314 C315 1.392 . S
C314 H327 0.951 . S
C315 C314 1.392 . S
C315 C317 1.384 . S
H316 C318 0.949 . S
C317 C315 1.384 . S
C317 C318 1.385 . S
C317 H319 0.950 . S
C318 C312 1.404 . S
C318 H316 0.949 . S
C318 C317 1.385 . S
H319 C317 0.950 . S
H320 C304 0.951 . S
H321 C306 0.951 . S
H322 C308 0.951 . S
H323 C309 0.950 . S
H324 C310 0.950 . S
H325 C311 0.950 . S
H326 C313 0.950 . S
H327 C314 0.951 . S
C328 C329 1.386 . S
C328 C330 1.383 . S
C328 H344 0.951 . S
C329 C328 1.386 . S
C329 C333 1.383 . S
C330 C328 1.383 . S
C330 C331 1.402 . S
C330 H345 0.951 . S
C331 C330 1.402 . S
C331 C332 1.375 . S
C331 C334 1.481 1_556 S
C332 C331 1.375 . S
C332 C333 1.367 . S
C332 H346 0.951 . S
C333 C329 1.383 . S
C333 C332 1.367 . S
C333 H347 0.950 . S
C334 C331 1.481 1_554 S
C334 C335 1.297 . S
C334 H348 0.950 1_554 S
C335 C334 1.297 . S
C335 C336 1.479 . S
C335 H349 0.950 . S
C336 C335 1.479 . S
C336 C337 1.375 . S
C336 C342 1.404 . S
C337 C336 1.375 . S
C337 C338 1.369 . S
C337 H350 0.950 . S
C338 C337 1.369 . S
C338 C339 1.392 . S
C338 H351 0.951 . S
C339 C338 1.392 . S
C339 C341 1.384 . S
H340 C342 0.949 . S
C341 C339 1.384 . S
C341 C342 1.385 . S
C341 H343 0.950 . S
C342 C336 1.404 . S
C342 H340 0.949 . S
C342 C341 1.385 . S
H343 C341 0.950 . S
H344 C328 0.951 . S
H345 C330 0.951 . S
H346 C332 0.951 . S
H347 C333 0.950 . S
H348 C334 0.950 1_556 S
H349 C335 0.950 . S
H350 C337 0.950 . S
H351 C338 0.951 . S
C352 C353 1.386 . S
C352 C354 1.383 . S
C352 H368 0.951 . S
C353 C352 1.386 . S
C353 C357 1.383 . S
C354 C352 1.383 . S
C354 C355 1.402 . S
C354 H369 0.951 . S
C355 C354 1.402 . S
C355 C356 1.375 . S
C355 C358 1.481 1_565 S
C356 C355 1.375 . S
C356 C357 1.367 . S
C356 H370 0.951 . S
C357 C353 1.383 . S
C357 C356 1.367 . S
C357 H371 0.950 . S
C358 C355 1.481 1_545 S
C358 C359 1.297 . S
C358 H372 0.950 . S
C359 C358 1.297 . S
C359 C360 1.479 . S
C359 H373 0.950 . S
C360 C359 1.479 . S
C360 C361 1.375 . S
C360 C366 1.404 . S
C361 C360 1.375 . S
C361 C362 1.369 . S
C361 H374 0.950 . S
C362 C361 1.369 . S
C362 C363 1.392 . S
C362 H375 0.951 . S
C363 C362 1.392 . S
C363 C365 1.384 . S
H364 C366 0.949 . S
C365 C363 1.384 . S
C365 C366 1.385 . S
C365 H367 0.950 . S
C366 C360 1.404 . S
C366 H364 0.949 . S
C366 C365 1.385 . S
H367 C365 0.950 . S
H368 C352 0.951 . S
H369 C354 0.951 . S
H370 C356 0.951 . S
H371 C357 0.950 . S
H372 C358 0.950 . S
H373 C359 0.950 . S
H374 C361 0.950 . S
H375 C362 0.951 . S
C376 C377 1.386 . S
C376 C378 1.383 . S
C376 H392 0.951 . S
C377 C376 1.386 . S
C377 C381 1.383 . S
C378 C376 1.383 . S
C378 C379 1.402 . S
C378 H393 0.951 . S
C379 C378 1.402 . S
C379 C380 1.375 . S
C379 C382 1.481 1_655 S
C380 C379 1.375 . S
C380 C381 1.367 . S
C380 H394 0.951 1_655 S
C381 C377 1.383 . S
C381 C380 1.367 . S
C381 H395 0.950 . S
C382 C379 1.481 1_455 S
C382 C383 1.286 1_565 S
C382 H396 0.950 . S
C383 C382 1.286 1_545 S
C383 C384 1.489 . S
C383 H397 0.949 1_455 S
C384 C383 1.489 . S
C384 C385 1.375 . S
C384 C390 1.404 . S
C385 C384 1.375 . S
C385 C386 1.369 . S
C385 H398 0.950 1_455 S
C386 C385 1.369 . S
C386 C387 1.392 . S
C386 H399 0.951 . S
C387 C386 1.392 . S
C387 C389 1.384 . S
H388 C390 0.949 . S
C389 C387 1.384 . S
C389 C390 1.385 . S
C389 H391 0.950 . S
C390 C384 1.404 . S
C390 H388 0.949 . S
C390 C389 1.385 . S
H391 C389 0.950 . S
H392 C376 0.951 . S
H393 C378 0.951 . S
H394 C380 0.951 1_455 S
H395 C381 0.950 . S
H396 C382 0.950 . S
H397 C383 0.949 1_655 S
H398 C385 0.950 1_655 S
H399 C386 0.951 . S
C400 C401 1.386 . S
C400 C402 1.383 . S
C400 H416 0.951 . S
C401 C400 1.386 . S
C401 C405 1.383 . S
C402 C400 1.383 . S
C402 C403 1.402 . S
C402 H417 0.951 . S
C403 C402 1.402 . S
C403 C404 1.375 . S
C403 C406 1.481 . S
C404 C403 1.375 . S
C404 C405 1.367 . S
C404 H418 0.951 . S
C405 C401 1.383 . S
C405 C404 1.367 . S
C405 H419 0.950 . S
C406 C403 1.481 . S
C406 C407 1.297 1_655 S
C406 H420 0.950 . S
C407 C406 1.297 1_455 S
C407 C408 1.479 . S
C407 H421 0.950 . S
C408 C407 1.479 . S
C408 C409 1.375 . S
C408 C414 1.404 . S
C409 C408 1.375 . S
C409 C410 1.369 . S
C409 H422 0.950 . S
C410 C409 1.369 . S
C410 C411 1.392 . S
C410 H423 0.951 . S
C411 C410 1.392 . S
C411 C413 1.384 . S
H412 C414 0.949 1_655 S
C413 C411 1.384 . S
C413 C414 1.385 . S
C413 H415 0.950 . S
C414 C408 1.404 . S
C414 H412 0.949 1_455 S
C414 C413 1.385 . S
H415 C413 0.950 . S
H416 C400 0.951 . S
H417 C402 0.951 . S
H418 C404 0.951 . S
H419 C405 0.950 . S
H420 C406 0.950 . S
H421 C407 0.950 . S
H422 C409 0.950 . S
H423 C410 0.951 . S
C424 C425 1.386 . S
C424 C426 1.383 . S
C424 H440 0.951 . S
C425 C424 1.386 . S
C425 C429 1.383 . S
C426 C424 1.383 . S
C426 C427 1.402 . S
C426 H441 0.951 . S
C427 C426 1.402 . S
C427 C428 1.375 . S
C427 C430 1.481 . S
C428 C427 1.375 . S
C428 C429 1.367 . S
C428 H442 0.951 . S
C429 C425 1.383 . S
C429 C428 1.367 . S
C429 H443 0.950 . S
C430 C427 1.481 . S
C430 C431 1.297 . S
C430 H444 0.950 . S
C431 C430 1.297 . S
C431 C432 1.479 . S
C431 H445 0.950 . S
C432 C431 1.479 . S
C432 C433 1.375 . S
C432 C438 1.404 . S
C433 C432 1.375 . S
C433 C434 1.369 . S
C433 H446 0.950 . S
C434 C433 1.369 . S
C434 C435 1.392 . S
C434 H447 0.951 . S
C435 C434 1.392 . S
C435 C437 1.384 . S
H436 C438 0.949 . S
C437 C435 1.384 . S
C437 C438 1.385 . S
C437 H439 0.950 . S
C438 C432 1.404 . S
C438 H436 0.949 . S
C438 C437 1.385 . S
H439 C437 0.950 . S
H440 C424 0.951 . S
H441 C426 0.951 . S
H442 C428 0.951 . S
H443 C429 0.950 . S
H444 C430 0.950 . S
H445 C431 0.950 . S
H446 C433 0.950 . S
H447 C434 0.951 . S
C448 C449 1.386 . S
C448 C450 1.383 . S
C448 H464 0.951 . S
C449 C448 1.386 . S
C449 C453 1.383 . S
C450 C448 1.383 . S
C450 C451 1.402 . S
C450 H465 0.951 . S
C451 C450 1.402 . S
C451 C452 1.375 1_554 S
C451 C454 1.481 1_554 S
C452 C451 1.375 1_556 S
C452 C453 1.367 1_556 S
C452 H466 0.951 . S
C453 C449 1.383 . S
C453 C452 1.367 1_554 S
C453 H467 0.950 . S
C454 C451 1.481 1_556 S
C454 C455 1.294 1_556 S
C454 H468 0.950 . S
C455 C454 1.294 1_554 S
C455 C456 1.475 1_554 S
C455 H469 0.959 . S
C456 C455 1.475 1_556 S
C456 C457 1.389 . S
C456 C462 1.404 . S
C457 C456 1.389 . S
C457 C458 1.381 . S
C457 H470 0.925 1_556 S
C458 C457 1.381 . S
C458 C459 1.392 . S
C458 H471 0.951 . S
C459 C458 1.392 . S
C459 C461 1.384 . S
H460 C462 0.949 . S
C461 C459 1.384 . S
C461 C462 1.385 . S
C461 H463 0.950 . S
C462 C456 1.404 . S
C462 H460 0.949 . S
C462 C461 1.385 . S
H463 C461 0.950 . S
H464 C448 0.951 . S
H465 C450 0.951 . S
H466 C452 0.951 . S
H467 C453 0.950 . S
H468 C454 0.950 . S
H469 C455 0.959 . S
H470 C457 0.925 1_554 S
H471 C458 0.951 . S
C472 C473 1.386 . S
C472 C474 1.383 . S
C472 H488 0.951 . S
C473 C472 1.386 . S
C473 C477 1.383 . S
C474 C472 1.383 . S
C474 C475 1.402 . S
C474 H489 0.951 . S
C475 C474 1.402 . S
C475 C476 1.375 . S
C475 C478 1.481 . S
C476 C475 1.375 . S
C476 C477 1.367 . S
C476 H490 0.951 . S
C477 C473 1.383 . S
C477 C476 1.367 . S
C477 H491 0.950 . S
C478 C475 1.481 . S
C478 C479 1.297 . S
C478 H492 0.950 . S
C479 C478 1.297 . S
C479 C480 1.479 . S
C479 H493 0.950 . S
C480 C479 1.479 . S
C480 C481 1.375 . S
C480 C486 1.404 . S
C481 C480 1.375 . S
C481 C482 1.369 . S
C481 H494 0.950 . S
C482 C481 1.369 . S
C482 C483 1.392 . S
C482 H495 0.951 . S
C483 C482 1.392 . S
C483 C485 1.384 . S
H484 C486 0.949 . S
C485 C483 1.384 . S
C485 C486 1.385 . S
C485 H487 0.950 . S
C486 C480 1.404 . S
C486 H484 0.949 . S
C486 C485 1.385 . S
H487 C485 0.950 . S
H488 C472 0.951 . S
H489 C474 0.951 . S
H490 C476 0.951 . S
H491 C477 0.950 . S
H492 C478 0.950 . S
H493 C479 0.950 . S
H494 C481 0.950 . S
H495 C482 0.951 . S
C113 C73 1.492 . S
C123 C3 1.495 . S
C137 C107 1.492 . S
C147 C22 1.492 . S
C161 C35 1.472 . S
C171 C91 1.432 . S
C185 C51 1.479 . S
C195 C64 1.484 . S
C209 C92 1.495 . S
C219 C9 1.471 . S
C233 C21 1.457 . S
C243 C63 1.453 . S
C257 C79 1.482 . S
C267 C36 1.488 . S
C281 C45 1.490 . S
C291 C101 1.492 . S
C305 C65 1.468 . S
C315 C78 1.480 . S
C329 C17 1.494 . S
C339 C31 1.475 . S
C353 C50 1.499 . S
C363 C37 1.495 . S
C377 C49 1.451 . S
C387 C7 1.467 . S
C401 C23 1.480 . S
C411 C8 1.487 . S
C425 C106 1.500 . S
C435 C93 1.500 . S
C449 C59 1.501 . S
C459 C87 1.491 . S
C473 C77 1.471 . S
C483 C105 1.433 . S
