# Generated by pormake.
# Topology fcn, (5)-cn, num edge types: 1
# Building blocks:
#     Node 0, Type 0, BuildingBlock: XOMCOT_clean_sbu_1, # of connection points: 5
#     Node 1, Type 0, BuildingBlock: XOMCOT_clean_sbu_1, # of connection points: 5
#     Node 2, Type 0, BuildingBlock: XOMCOT_clean_sbu_1, # of connection points: 5
#     Node 3, Type 0, BuildingBlock: XOMCOT_clean_sbu_1, # of connection points: 5
#     Node 4, Type 0, BuildingBlock: XOMCOT_clean_sbu_1, # of connection points: 5
#     Node 5, Type 0, BuildingBlock: XOMCOT_clean_sbu_1, # of connection points: 5
#     Node 6, Type 0, BuildingBlock: XOMCOT_clean_sbu_1, # of connection points: 5
#     Node 7, Type 0, BuildingBlock: XOMCOT_clean_sbu_1, # of connection points: 5
#     Node 8, Type 0, BuildingBlock: XOMCOT_clean_sbu_1, # of connection points: 5
#     Node 9, Type 0, BuildingBlock: XOMCOT_clean_sbu_1, # of connection points: 5
#     Node 10, Type 0, BuildingBlock: XOMCOT_clean_sbu_1, # of connection points: 5
#     Node 11, Type 0, BuildingBlock: XOMCOT_clean_sbu_1, # of connection points: 5
#     Node 12, Type 0, BuildingBlock: XOMCOT_clean_sbu_1, # of connection points: 5
#     Node 13, Type 0, BuildingBlock: XOMCOT_clean_sbu_1, # of connection points: 5
#     Node 14, Type 0, BuildingBlock: XOMCOT_clean_sbu_1, # of connection points: 5
#     Node 15, Type 0, BuildingBlock: XOMCOT_clean_sbu_1, # of connection points: 5
#     Node 16, Type 0, BuildingBlock: XOMCOT_clean_sbu_1, # of connection points: 5
#     Node 17, Type 0, BuildingBlock: XOMCOT_clean_sbu_1, # of connection points: 5
#     Node 18, Type 0, BuildingBlock: XOMCOT_clean_sbu_1, # of connection points: 5
#     Node 19, Type 0, BuildingBlock: XOMCOT_clean_sbu_1, # of connection points: 5
#     Node 20, Type 0, BuildingBlock: XOMCOT_clean_sbu_1, # of connection points: 5
#     Node 21, Type 0, BuildingBlock: XOMCOT_clean_sbu_1, # of connection points: 5
#     Node 22, Type 0, BuildingBlock: XOMCOT_clean_sbu_1, # of connection points: 5
#     Node 23, Type 0, BuildingBlock: XOMCOT_clean_sbu_1, # of connection points: 5
#     Node 24, Type 0, BuildingBlock: XOMCOT_clean_sbu_1, # of connection points: 5
#     Node 25, Type 0, BuildingBlock: XOMCOT_clean_sbu_1, # of connection points: 5
#     Node 26, Type 0, BuildingBlock: XOMCOT_clean_sbu_1, # of connection points: 5
#     Node 27, Type 0, BuildingBlock: XOMCOT_clean_sbu_1, # of connection points: 5
#     Node 28, Type 0, BuildingBlock: XOMCOT_clean_sbu_1, # of connection points: 5
#     Node 29, Type 0, BuildingBlock: XOMCOT_clean_sbu_1, # of connection points: 5
#     Node 30, Type 0, BuildingBlock: XOMCOT_clean_sbu_1, # of connection points: 5
#     Node 31, Type 0, BuildingBlock: XOMCOT_clean_sbu_1, # of connection points: 5
#     Node 32, Type 0, BuildingBlock: XOMCOT_clean_sbu_1, # of connection points: 5
#     Node 33, Type 0, BuildingBlock: XOMCOT_clean_sbu_1, # of connection points: 5
#     Node 34, Type 0, BuildingBlock: XOMCOT_clean_sbu_1, # of connection points: 5
#     Node 35, Type 0, BuildingBlock: XOMCOT_clean_sbu_1, # of connection points: 5
#     Node 36, Type 0, BuildingBlock: XOMCOT_clean_sbu_1, # of connection points: 5
#     Node 37, Type 0, BuildingBlock: XOMCOT_clean_sbu_1, # of connection points: 5
#     Node 38, Type 0, BuildingBlock: XOMCOT_clean_sbu_1, # of connection points: 5
#     Node 39, Type 0, BuildingBlock: XOMCOT_clean_sbu_1, # of connection points: 5
#     Node 40, Type 0, BuildingBlock: XOMCOT_clean_sbu_1, # of connection points: 5
#     Node 41, Type 0, BuildingBlock: XOMCOT_clean_sbu_1, # of connection points: 5
#     Node 42, Type 0, BuildingBlock: XOMCOT_clean_sbu_1, # of connection points: 5
#     Node 43, Type 0, BuildingBlock: XOMCOT_clean_sbu_1, # of connection points: 5
#     Node 44, Type 0, BuildingBlock: XOMCOT_clean_sbu_1, # of connection points: 5
#     Node 45, Type 0, BuildingBlock: XOMCOT_clean_sbu_1, # of connection points: 5
#     Node 46, Type 0, BuildingBlock: XOMCOT_clean_sbu_1, # of connection points: 5
#     Node 47, Type 0, BuildingBlock: XOMCOT_clean_sbu_1, # of connection points: 5
#     Edge 48, Type (0, 0), BuildingBlock: XUDNAN_clean_linker_2, # of connection points: 2
#     Edge 49, Type (0, 0), BuildingBlock: XUDNAN_clean_linker_2, # of connection points: 2
#     Edge 50, Type (0, 0), BuildingBlock: XUDNAN_clean_linker_2, # of connection points: 2
#     Edge 51, Type (0, 0), BuildingBlock: XUDNAN_clean_linker_2, # of connection points: 2
#     Edge 52, Type (0, 0), BuildingBlock: XUDNAN_clean_linker_2, # of connection points: 2
#     Edge 53, Type (0, 0), BuildingBlock: XUDNAN_clean_linker_2, # of connection points: 2
#     Edge 54, Type (0, 0), BuildingBlock: XUDNAN_clean_linker_2, # of connection points: 2
#     Edge 55, Type (0, 0), BuildingBlock: XUDNAN_clean_linker_2, # of connection points: 2
#     Edge 56, Type (0, 0), BuildingBlock: XUDNAN_clean_linker_2, # of connection points: 2
#     Edge 57, Type (0, 0), BuildingBlock: XUDNAN_clean_linker_2, # of connection points: 2
#     Edge 58, Type (0, 0), BuildingBlock: XUDNAN_clean_linker_2, # of connection points: 2
#     Edge 59, Type (0, 0), BuildingBlock: XUDNAN_clean_linker_2, # of connection points: 2
#     Edge 60, Type (0, 0), BuildingBlock: XUDNAN_clean_linker_2, # of connection points: 2
#     Edge 61, Type (0, 0), BuildingBlock: XUDNAN_clean_linker_2, # of connection points: 2
#     Edge 62, Type (0, 0), BuildingBlock: XUDNAN_clean_linker_2, # of connection points: 2
#     Edge 63, Type (0, 0), BuildingBlock: XUDNAN_clean_linker_2, # of connection points: 2
#     Edge 64, Type (0, 0), BuildingBlock: XUDNAN_clean_linker_2, # of connection points: 2
#     Edge 65, Type (0, 0), BuildingBlock: XUDNAN_clean_linker_2, # of connection points: 2
#     Edge 66, Type (0, 0), BuildingBlock: XUDNAN_clean_linker_2, # of connection points: 2
#     Edge 67, Type (0, 0), BuildingBlock: XUDNAN_clean_linker_2, # of connection points: 2
#     Edge 68, Type (0, 0), BuildingBlock: XUDNAN_clean_linker_2, # of connection points: 2
#     Edge 69, Type (0, 0), BuildingBlock: XUDNAN_clean_linker_2, # of connection points: 2
#     Edge 70, Type (0, 0), BuildingBlock: XUDNAN_clean_linker_2, # of connection points: 2
#     Edge 71, Type (0, 0), BuildingBlock: XUDNAN_clean_linker_2, # of connection points: 2
#     Edge 72, Type (0, 0), BuildingBlock: XUDNAN_clean_linker_2, # of connection points: 2
#     Edge 73, Type (0, 0), BuildingBlock: XUDNAN_clean_linker_2, # of connection points: 2
#     Edge 74, Type (0, 0), BuildingBlock: XUDNAN_clean_linker_2, # of connection points: 2
#     Edge 75, Type (0, 0), BuildingBlock: XUDNAN_clean_linker_2, # of connection points: 2
#     Edge 76, Type (0, 0), BuildingBlock: XUDNAN_clean_linker_2, # of connection points: 2
#     Edge 77, Type (0, 0), BuildingBlock: XUDNAN_clean_linker_2, # of connection points: 2
#     Edge 78, Type (0, 0), BuildingBlock: XUDNAN_clean_linker_2, # of connection points: 2
#     Edge 79, Type (0, 0), BuildingBlock: XUDNAN_clean_linker_2, # of connection points: 2
#     Edge 80, Type (0, 0), BuildingBlock: XUDNAN_clean_linker_2, # of connection points: 2
#     Edge 81, Type (0, 0), BuildingBlock: XUDNAN_clean_linker_2, # of connection points: 2
#     Edge 82, Type (0, 0), BuildingBlock: XUDNAN_clean_linker_2, # of connection points: 2
#     Edge 83, Type (0, 0), BuildingBlock: XUDNAN_clean_linker_2, # of connection points: 2
#     Edge 84, Type (0, 0), BuildingBlock: XUDNAN_clean_linker_2, # of connection points: 2
#     Edge 85, Type (0, 0), BuildingBlock: XUDNAN_clean_linker_2, # of connection points: 2
#     Edge 86, Type (0, 0), BuildingBlock: XUDNAN_clean_linker_2, # of connection points: 2
#     Edge 87, Type (0, 0), BuildingBlock: XUDNAN_clean_linker_2, # of connection points: 2
#     Edge 88, Type (0, 0), BuildingBlock: XUDNAN_clean_linker_2, # of connection points: 2
#     Edge 89, Type (0, 0), BuildingBlock: XUDNAN_clean_linker_2, # of connection points: 2
#     Edge 90, Type (0, 0), BuildingBlock: XUDNAN_clean_linker_2, # of connection points: 2
#     Edge 91, Type (0, 0), BuildingBlock: XUDNAN_clean_linker_2, # of connection points: 2
#     Edge 92, Type (0, 0), BuildingBlock: XUDNAN_clean_linker_2, # of connection points: 2
#     Edge 93, Type (0, 0), BuildingBlock: XUDNAN_clean_linker_2, # of connection points: 2
#     Edge 94, Type (0, 0), BuildingBlock: XUDNAN_clean_linker_2, # of connection points: 2
#     Edge 95, Type (0, 0), BuildingBlock: XUDNAN_clean_linker_2, # of connection points: 2
#     Edge 96, Type (0, 0), BuildingBlock: XUDNAN_clean_linker_2, # of connection points: 2
#     Edge 97, Type (0, 0), BuildingBlock: XUDNAN_clean_linker_2, # of connection points: 2
#     Edge 98, Type (0, 0), BuildingBlock: XUDNAN_clean_linker_2, # of connection points: 2
#     Edge 99, Type (0, 0), BuildingBlock: XUDNAN_clean_linker_2, # of connection points: 2
#     Edge 100, Type (0, 0), BuildingBlock: XUDNAN_clean_linker_2, # of connection points: 2
#     Edge 101, Type (0, 0), BuildingBlock: XUDNAN_clean_linker_2, # of connection points: 2
#     Edge 102, Type (0, 0), BuildingBlock: XUDNAN_clean_linker_2, # of connection points: 2
#     Edge 103, Type (0, 0), BuildingBlock: XUDNAN_clean_linker_2, # of connection points: 2
#     Edge 104, Type (0, 0), BuildingBlock: XUDNAN_clean_linker_2, # of connection points: 2
#     Edge 105, Type (0, 0), BuildingBlock: XUDNAN_clean_linker_2, # of connection points: 2
#     Edge 106, Type (0, 0), BuildingBlock: XUDNAN_clean_linker_2, # of connection points: 2
#     Edge 107, Type (0, 0), BuildingBlock: XUDNAN_clean_linker_2, # of connection points: 2
#     Edge 108, Type (0, 0), BuildingBlock: XUDNAN_clean_linker_2, # of connection points: 2
#     Edge 109, Type (0, 0), BuildingBlock: XUDNAN_clean_linker_2, # of connection points: 2
#     Edge 110, Type (0, 0), BuildingBlock: XUDNAN_clean_linker_2, # of connection points: 2
#     Edge 111, Type (0, 0), BuildingBlock: XUDNAN_clean_linker_2, # of connection points: 2
#     Edge 112, Type (0, 0), BuildingBlock: XUDNAN_clean_linker_2, # of connection points: 2
#     Edge 113, Type (0, 0), BuildingBlock: XUDNAN_clean_linker_2, # of connection points: 2
#     Edge 114, Type (0, 0), BuildingBlock: XUDNAN_clean_linker_2, # of connection points: 2
#     Edge 115, Type (0, 0), BuildingBlock: XUDNAN_clean_linker_2, # of connection points: 2
#     Edge 116, Type (0, 0), BuildingBlock: XUDNAN_clean_linker_2, # of connection points: 2
#     Edge 117, Type (0, 0), BuildingBlock: XUDNAN_clean_linker_2, # of connection points: 2
#     Edge 118, Type (0, 0), BuildingBlock: XUDNAN_clean_linker_2, # of connection points: 2
#     Edge 119, Type (0, 0), BuildingBlock: XUDNAN_clean_linker_2, # of connection points: 2
#     Edge 120, Type (0, 0), BuildingBlock: XUDNAN_clean_linker_2, # of connection points: 2
#     Edge 121, Type (0, 0), BuildingBlock: XUDNAN_clean_linker_2, # of connection points: 2
#     Edge 122, Type (0, 0), BuildingBlock: XUDNAN_clean_linker_2, # of connection points: 2
#     Edge 123, Type (0, 0), BuildingBlock: XUDNAN_clean_linker_2, # of connection points: 2
#     Edge 124, Type (0, 0), BuildingBlock: XUDNAN_clean_linker_2, # of connection points: 2
#     Edge 125, Type (0, 0), BuildingBlock: XUDNAN_clean_linker_2, # of connection points: 2
#     Edge 126, Type (0, 0), BuildingBlock: XUDNAN_clean_linker_2, # of connection points: 2
#     Edge 127, Type (0, 0), BuildingBlock: XUDNAN_clean_linker_2, # of connection points: 2
#     Edge 128, Type (0, 0), BuildingBlock: XUDNAN_clean_linker_2, # of connection points: 2
#     Edge 129, Type (0, 0), BuildingBlock: XUDNAN_clean_linker_2, # of connection points: 2
#     Edge 130, Type (0, 0), BuildingBlock: XUDNAN_clean_linker_2, # of connection points: 2
#     Edge 131, Type (0, 0), BuildingBlock: XUDNAN_clean_linker_2, # of connection points: 2
#     Edge 132, Type (0, 0), BuildingBlock: XUDNAN_clean_linker_2, # of connection points: 2
#     Edge 133, Type (0, 0), BuildingBlock: XUDNAN_clean_linker_2, # of connection points: 2
#     Edge 134, Type (0, 0), BuildingBlock: XUDNAN_clean_linker_2, # of connection points: 2
#     Edge 135, Type (0, 0), BuildingBlock: XUDNAN_clean_linker_2, # of connection points: 2
#     Edge 136, Type (0, 0), BuildingBlock: XUDNAN_clean_linker_2, # of connection points: 2
#     Edge 137, Type (0, 0), BuildingBlock: XUDNAN_clean_linker_2, # of connection points: 2
#     Edge 138, Type (0, 0), BuildingBlock: XUDNAN_clean_linker_2, # of connection points: 2
#     Edge 139, Type (0, 0), BuildingBlock: XUDNAN_clean_linker_2, # of connection points: 2
#     Edge 140, Type (0, 0), BuildingBlock: XUDNAN_clean_linker_2, # of connection points: 2
#     Edge 141, Type (0, 0), BuildingBlock: XUDNAN_clean_linker_2, # of connection points: 2
#     Edge 142, Type (0, 0), BuildingBlock: XUDNAN_clean_linker_2, # of connection points: 2
#     Edge 143, Type (0, 0), BuildingBlock: XUDNAN_clean_linker_2, # of connection points: 2
#     Edge 144, Type (0, 0), BuildingBlock: XUDNAN_clean_linker_2, # of connection points: 2
#     Edge 145, Type (0, 0), BuildingBlock: XUDNAN_clean_linker_2, # of connection points: 2
#     Edge 146, Type (0, 0), BuildingBlock: XUDNAN_clean_linker_2, # of connection points: 2
#     Edge 147, Type (0, 0), BuildingBlock: XUDNAN_clean_linker_2, # of connection points: 2
#     Edge 148, Type (0, 0), BuildingBlock: XUDNAN_clean_linker_2, # of connection points: 2
#     Edge 149, Type (0, 0), BuildingBlock: XUDNAN_clean_linker_2, # of connection points: 2
#     Edge 150, Type (0, 0), BuildingBlock: XUDNAN_clean_linker_2, # of connection points: 2
#     Edge 151, Type (0, 0), BuildingBlock: XUDNAN_clean_linker_2, # of connection points: 2
#     Edge 152, Type (0, 0), BuildingBlock: XUDNAN_clean_linker_2, # of connection points: 2
#     Edge 153, Type (0, 0), BuildingBlock: XUDNAN_clean_linker_2, # of connection points: 2
#     Edge 154, Type (0, 0), BuildingBlock: XUDNAN_clean_linker_2, # of connection points: 2
#     Edge 155, Type (0, 0), BuildingBlock: XUDNAN_clean_linker_2, # of connection points: 2
#     Edge 156, Type (0, 0), BuildingBlock: XUDNAN_clean_linker_2, # of connection points: 2
#     Edge 157, Type (0, 0), BuildingBlock: XUDNAN_clean_linker_2, # of connection points: 2
#     Edge 158, Type (0, 0), BuildingBlock: XUDNAN_clean_linker_2, # of connection points: 2
#     Edge 159, Type (0, 0), BuildingBlock: XUDNAN_clean_linker_2, # of connection points: 2
#     Edge 160, Type (0, 0), BuildingBlock: XUDNAN_clean_linker_2, # of connection points: 2
#     Edge 161, Type (0, 0), BuildingBlock: XUDNAN_clean_linker_2, # of connection points: 2
#     Edge 162, Type (0, 0), BuildingBlock: XUDNAN_clean_linker_2, # of connection points: 2
#     Edge 163, Type (0, 0), BuildingBlock: XUDNAN_clean_linker_2, # of connection points: 2
#     Edge 164, Type (0, 0), BuildingBlock: XUDNAN_clean_linker_2, # of connection points: 2
#     Edge 165, Type (0, 0), BuildingBlock: XUDNAN_clean_linker_2, # of connection points: 2
#     Edge 166, Type (0, 0), BuildingBlock: XUDNAN_clean_linker_2, # of connection points: 2
#     Edge 167, Type (0, 0), BuildingBlock: XUDNAN_clean_linker_2, # of connection points: 2
# Relax obj value: 0.272
# Max RMSD: 0.219
# Mean RMSD: 0.219
data_MOF--net-fcn--node1-XOMCOT_clean_sbu_1--edge1-XUDNAN_clean_linker_2
_symmetry_space_group_name_H-M    P1
_symmetry_Int_Tables_number       1
_symmetry_cell_setting            triclinic
loop_
_symmetry_equiv_pos_as_xyz
'x, y, z'
_cell_length_a     74.230876
_cell_length_b     74.231177
_cell_length_c     74.235015
_cell_angle_alpha  89.996913
_cell_angle_beta   90.039687
_cell_angle_gamma 89.972677
loop_
_atom_site_label
_atom_site_type_symbol
_atom_site_fract_x
_atom_site_fract_y
_atom_site_fract_z
_atom_type_partial_charge
C0 C 0.08235 0.19386 0.3011 0.0
C1 C 0.06938 0.20701 0.30321 0.0
N2 N 0.0586 0.2068 0.28858 0.0
N3 N 0.07957 0.1853 0.28533 0.0
C4 C 0.06509 0.19351 0.27802 0.0
H5 H 0.09326 0.19094 0.31031 0.0
Co6 Co 0.09313 0.16729 0.2745 0.0
C7 C 0.06636 0.13959 0.26428 0.0
O8 O 0.07709 0.12705 0.27075 0.0
N9 N 0.10689 0.14941 0.26259 0.0
C10 C 0.11505 0.13177 0.23969 0.0
C11 C 0.10268 0.14402 0.24568 0.0
C12 C 0.12264 0.14081 0.26615 0.0
N13 N 0.12756 0.12977 0.25255 0.0
O14 O 0.09503 0.18163 0.25328 0.0
H15 H 0.09142 0.14903 0.23788 0.0
H16 H 0.13068 0.14282 0.2781 0.0
O17 O 0.07094 0.15618 0.26532 0.0
C18 C 0.10805 0.19275 0.25381 0.0
O19 O 0.11756 0.19395 0.2687 0.0
N20 N 0.09235 0.15402 0.29611 0.0
C21 C 0.09479 0.13704 0.32965 0.0
C22 C 0.07815 0.13859 0.32078 0.0
C23 C 0.07713 0.14759 0.30424 0.0
C24 C 0.10827 0.15392 0.3052 0.0
C25 C 0.10987 0.14534 0.32183 0.0
H26 H 0.06406 0.14957 0.29819 0.0
H27 H 0.11973 0.16101 0.29972 0.0
H28 H 0.05951 0.18984 0.26506 0.0
H29 H 0.06831 0.21632 0.31437 0.0
H30 H 0.11534 0.12545 0.22654 0.0
H31 H 0.066 0.13286 0.32645 0.0
H32 H 0.1228 0.1455 0.32859 0.0
C33 C 0.03993 0.83593 0.53687 0.0
C34 C 0.02521 0.82491 0.53508 0.0
N35 N 0.02975 0.81131 0.52411 0.0
N36 N 0.05379 0.82953 0.52684 0.0
C37 C 0.04704 0.81424 0.51939 0.0
H38 H 0.0401 0.84814 0.54476 0.0
Co39 Co 0.07654 0.84068 0.52235 0.0
C40 C 0.09124 0.81105 0.50811 0.0
O41 O 0.09539 0.80924 0.52523 0.0
N42 N 0.09877 0.85159 0.51767 0.0
C43 C 0.12464 0.86584 0.52257 0.0
C44 C 0.11252 0.85354 0.52941 0.0
C45 C 0.10319 0.86214 0.50351 0.0
N46 N 0.1187 0.87115 0.50627 0.0
O47 O 0.06505 0.85647 0.50509 0.0
H48 H 0.1129 0.84762 0.54272 0.0
H49 H 0.0945 0.86447 0.49203 0.0
O50 O 0.08135 0.82424 0.5034 0.0
C51 C 0.0521 0.86773 0.50512 0.0
O52 O 0.04306 0.87098 0.51996 0.0
N53 N 0.07353 0.85653 0.5418 0.0
C54 C 0.08289 0.87585 0.57254 0.0
C55 C 0.07843 0.85753 0.57367 0.0
C56 C 0.07419 0.84805 0.55806 0.0
C57 C 0.07633 0.8747 0.54064 0.0
C58 C 0.08086 0.88466 0.55595 0.0
H59 H 0.07288 0.83355 0.55869 0.0
H60 H 0.07717 0.88124 0.52767 0.0
H61 H 0.05428 0.8057 0.51009 0.0
H62 H 0.01212 0.82681 0.5412 0.0
H63 H 0.13631 0.87126 0.52944 0.0
H64 H 0.07983 0.85023 0.58623 0.0
H65 H 0.08465 0.89867 0.55439 0.0
C66 C 0.41962 0.79057 0.78072 0.0
C67 C 0.43258 0.77953 0.78799 0.0
N68 N 0.44834 0.78299 0.7797 0.0
N69 N 0.42713 0.80098 0.76791 0.0
C70 C 0.44466 0.79596 0.76747 0.0
H71 H 0.40574 0.79156 0.78506 0.0
Co72 Co 0.41516 0.81995 0.75666 0.0
C73 C 0.4427 0.83576 0.73387 0.0
O74 O 0.43218 0.83207 0.72012 0.0
N75 N 0.4033 0.8393 0.74562 0.0
C76 C 0.39772 0.86732 0.73675 0.0
C77 C 0.40836 0.85669 0.7474 0.0
C78 C 0.38922 0.83974 0.73406 0.0
N79 N 0.38575 0.85667 0.72829 0.0
O80 O 0.41372 0.80639 0.73476 0.0
H81 H 0.41938 0.86135 0.75573 0.0
H82 H 0.38193 0.82791 0.72969 0.0
O83 O 0.43803 0.83087 0.74969 0.0
C84 C 0.40232 0.79359 0.73487 0.0
O85 O 0.39352 0.78999 0.74977 0.0
N86 N 0.41484 0.83235 0.77837 0.0
C87 C 0.40881 0.85126 0.81003 0.0
C88 C 0.42646 0.84839 0.80387 0.0
C89 C 0.42923 0.83885 0.7878 0.0
C90 C 0.39776 0.83423 0.78474 0.0
C91 C 0.39441 0.84386 0.80041 0.0
H92 H 0.44279 0.83679 0.78291 0.0
H93 H 0.38662 0.8285 0.77728 0.0
H94 H 0.45476 0.80241 0.75919 0.0
H95 H 0.43069 0.7701 0.79895 0.0
H96 H 0.39862 0.88181 0.73545 0.0
H97 H 0.43789 0.85381 0.81115 0.0
H98 H 0.38065 0.84554 0.80497 0.0
C99 C 0.44907 0.16995 0.04748 0.0
C100 C 0.46254 0.18247 0.04917 0.0
N101 N 0.46442 0.19097 0.03329 0.0
N102 N 0.44236 0.1704 0.03053 0.0
C103 C 0.4522 0.18332 0.02219 0.0
H104 H 0.44433 0.16148 0.05829 0.0
Co105 Co 0.4222 0.15767 0.02144 0.0
C106 C 0.41168 0.18914 0.00587 0.0
O107 O 0.40862 0.1933 0.0228 0.0
N108 N 0.40212 0.14552 0.01274 0.0
C109 C 0.37424 0.13852 0.0042 0.0
C110 C 0.38562 0.15234 0.00918 0.0
C111 C 0.40045 0.12765 0.00994 0.0
N112 N 0.38365 0.12306 0.00491 0.0
O113 O 0.43734 0.14301 0.00581 0.0
H114 H 0.3819 0.16633 0.01068 0.0
H115 H 0.41125 0.11806 0.01189 0.0
O116 O 0.41959 0.17437 0.0023 0.0
C117 C 0.45411 0.13932 0.00471 0.0
O118 O 0.46532 0.14502 0.01715 0.0
N119 N 0.42299 0.14158 0.04066 0.0
C120 C 0.41418 0.11945 0.06959 0.0
C121 C 0.40652 0.13663 0.06785 0.0
C122 C 0.41104 0.14738 0.05326 0.0
C123 C 0.43129 0.12524 0.04233 0.0
C124 C 0.42696 0.11386 0.05678 0.0
H125 H 0.40441 0.16024 0.05146 0.0
H126 H 0.44043 0.12044 0.03214 0.0
H127 H 0.45002 0.18758 0.00844 0.0
H128 H 0.47008 0.18535 0.06131 0.0
H129 H 0.36002 0.13961 0.00114 0.0
H130 H 0.39627 0.14137 0.07709 0.0
H131 H 0.43308 0.10064 0.05761 0.0
C132 C 0.06173 0.80628 0.22487 0.0
C133 C 0.04729 0.79558 0.22091 0.0
N134 N 0.03554 0.79667 0.2346 0.0
N135 N 0.0594 0.81419 0.24118 0.0
C136 C 0.04321 0.80783 0.24678 0.0
H137 H 0.07321 0.8079 0.21611 0.0
Co138 Co 0.07447 0.83189 0.25206 0.0
C139 C 0.04636 0.84572 0.27026 0.0
O140 O 0.04434 0.85322 0.25434 0.0
N141 N 0.08902 0.84956 0.26224 0.0
C142 C 0.1009 0.87665 0.26699 0.0
C143 C 0.08519 0.86727 0.26384 0.0
C144 C 0.10696 0.84848 0.26483 0.0
N145 N 0.11455 0.86475 0.26728 0.0
O146 O 0.08801 0.81335 0.26508 0.0
H147 H 0.07221 0.87326 0.26108 0.0
H148 H 0.11466 0.83623 0.26319 0.0
O149 O 0.05865 0.83389 0.27226 0.0
C150 C 0.09257 0.79706 0.26194 0.0
O151 O 0.08856 0.78953 0.24646 0.0
N152 N 0.08966 0.83195 0.23197 0.0
C153 C 0.1092 0.84042 0.20109 0.0
C154 C 0.09204 0.84776 0.20402 0.0
C155 C 0.08267 0.84355 0.21963 0.0
C156 C 0.10611 0.82412 0.22922 0.0
C157 C 0.1161 0.82815 0.21373 0.0
H158 H 0.06972 0.84976 0.22216 0.0
H159 H 0.1121 0.81547 0.23921 0.0
H160 H 0.0368 0.81168 0.25925 0.0
H161 H 0.04561 0.78759 0.20883 0.0
H162 H 0.10242 0.89116 0.26704 0.0
H163 H 0.08598 0.85699 0.19447 0.0
H164 H 0.1294 0.82239 0.2121 0.0
C165 C 0.45682 0.83442 0.46695 0.0
C166 C 0.46739 0.81935 0.46486 0.0
N167 N 0.46342 0.80772 0.47822 0.0
N168 N 0.44613 0.8322 0.48144 0.0
C169 C 0.45058 0.81591 0.48813 0.0
H170 H 0.45691 0.84626 0.45846 0.0
Co171 Co 0.42936 0.84862 0.48974 0.0
C172 C 0.39962 0.82663 0.50509 0.0
O173 O 0.38772 0.83774 0.49811 0.0
N174 N 0.41284 0.86566 0.49852 0.0
C175 C 0.39792 0.88204 0.51868 0.0
C176 C 0.4077 0.86663 0.51595 0.0
C177 C 0.40625 0.88091 0.49104 0.0
N178 N 0.39705 0.89112 0.503 0.0
O179 O 0.44393 0.85311 0.51038 0.0
H180 H 0.4116 0.85713 0.52629 0.0
H181 H 0.40884 0.88496 0.47736 0.0
O182 O 0.41646 0.82937 0.50256 0.0
C183 C 0.45502 0.86585 0.50738 0.0
O184 O 0.4557 0.87274 0.49108 0.0
N185 N 0.41617 0.84514 0.46847 0.0
C186 C 0.40067 0.84321 0.43443 0.0
C187 C 0.39843 0.82909 0.44671 0.0
C188 C 0.40688 0.83002 0.46351 0.0
C189 C 0.41938 0.85837 0.45616 0.0
C190 C 0.41162 0.85779 0.4391 0.0
H191 H 0.40626 0.81838 0.47216 0.0
H192 H 0.42832 0.86935 0.45957 0.0
H193 H 0.44439 0.81005 0.49992 0.0
H194 H 0.47737 0.81722 0.45445 0.0
H195 H 0.39297 0.88673 0.53155 0.0
H196 H 0.39055 0.81732 0.44319 0.0
H197 H 0.41394 0.86874 0.42974 0.0
C198 C 0.42744 0.20819 0.73159 0.0
C199 C 0.43723 0.22383 0.73035 0.0
N200 N 0.44872 0.22452 0.74441 0.0
N201 N 0.43288 0.19893 0.74623 0.0
C202 C 0.44548 0.20942 0.75401 0.0
H203 H 0.41704 0.20382 0.72238 0.0
Co204 Co 0.42358 0.17713 0.754 0.0
C205 C 0.46412 0.16928 0.76062 0.0
O206 O 0.4721 0.18108 0.75013 0.0
N207 N 0.41407 0.15547 0.76161 0.0
C208 C 0.40911 0.1263 0.76569 0.0
C209 C 0.42164 0.13896 0.76075 0.0
C210 C 0.39701 0.15258 0.76696 0.0
N211 N 0.39358 0.1349 0.76944 0.0
O212 O 0.42048 0.18669 0.77765 0.0
H213 H 0.43509 0.13618 0.75589 0.0
H214 H 0.38717 0.16325 0.76831 0.0
O215 O 0.44698 0.16836 0.7613 0.0
C216 C 0.40885 0.19909 0.77986 0.0
O217 O 0.39988 0.20515 0.76585 0.0
N218 N 0.42526 0.16787 0.73072 0.0
C219 C 0.42148 0.1537 0.6963 0.0
C220 C 0.43867 0.15671 0.70353 0.0
C221 C 0.44029 0.16379 0.72095 0.0
C222 C 0.40854 0.16571 0.7235 0.0
C223 C 0.40632 0.15846 0.70641 0.0
H224 H 0.45353 0.16592 0.7264 0.0
H225 H 0.3968 0.16953 0.73123 0.0
H226 H 0.45242 0.20578 0.7663 0.0
H227 H 0.436 0.23383 0.71982 0.0
H228 H 0.41097 0.11183 0.76544 0.0
H229 H 0.45066 0.15325 0.69597 0.0
H230 H 0.39284 0.15659 0.70111 0.0
C231 C 0.03263 0.14632 0.95315 0.0
C232 C 0.02279 0.16205 0.95416 0.0
N233 N 0.03007 0.17246 0.96713 0.0
N234 N 0.04603 0.1469 0.9654 0.0
C235 C 0.04389 0.16281 0.9739 0.0
H236 H 0.03064 0.13549 0.9436 0.0
Co237 Co 0.0648 0.13062 0.96847 0.0
C238 C 0.08904 0.14988 0.99269 0.0
O239 O 0.08932 0.13556 0.0031 0.0
N240 N 0.0841 0.11439 0.97153 0.0
C241 C 0.11234 0.10439 0.97185 0.0
C242 C 0.10082 0.11692 0.96476 0.0
C243 C 0.08582 0.09998 0.98259 0.0
N244 N 0.10297 0.09386 0.98319 0.0
O245 O 0.05604 0.1253 0.99176 0.0
H246 H 0.10476 0.1279 0.95607 0.0
H247 H 0.0751 0.0949 0.99106 0.0
O248 O 0.07992 0.14971 0.97811 0.0
C249 C 0.04203 0.11546 0.99171 0.0
O250 O 0.03563 0.1097 0.97624 0.0
N251 N 0.07207 0.13506 0.94512 0.0
C252 C 0.0846 0.13538 0.91005 0.0
C253 C 0.08671 0.15063 0.92104 0.0
C254 C 0.08015 0.15026 0.93869 0.0
C255 C 0.06848 0.12086 0.93414 0.0
C256 C 0.07467 0.12071 0.91651 0.0
H257 H 0.08226 0.16178 0.94732 0.0
H258 H 0.06151 0.10922 0.93946 0.0
H259 H 0.05256 0.16743 0.98464 0.0
H260 H 0.01177 0.1659 0.94541 0.0
H261 H 0.1267 0.10356 0.96942 0.0
H262 H 0.09427 0.16222 0.91644 0.0
H263 H 0.07251 0.10884 0.90829 0.0
C264 C 0.2889 0.07636 0.21238 0.0
C265 C 0.29252 0.06464 0.22627 0.0
N266 N 0.28388 0.04905 0.22292 0.0
N267 N 0.27799 0.06821 0.20039 0.0
C268 C 0.27513 0.05155 0.20716 0.0
H269 H 0.29351 0.09014 0.21127 0.0
Co270 Co 0.26787 0.07999 0.18083 0.0
C271 C 0.26426 0.05058 0.15399 0.0
O272 O 0.27338 0.06024 0.14229 0.0
N273 N 0.25676 0.0928 0.1617 0.0
C274 C 0.23716 0.10152 0.14062 0.0
C275 C 0.24402 0.0871 0.14996 0.0
C276 C 0.2565 0.11095 0.15984 0.0
N277 N 0.24499 0.11661 0.14686 0.0
O278 O 0.24544 0.08033 0.19309 0.0
H279 H 0.2388 0.07359 0.149 0.0
H280 H 0.26363 0.11996 0.1688 0.0
O281 O 0.26116 0.0569 0.16975 0.0
C282 C 0.2421 0.09322 0.20387 0.0
O283 O 0.25417 0.10598 0.20601 0.0
N284 N 0.29076 0.07989 0.16928 0.0
C285 C 0.32445 0.07991 0.15239 0.0
C286 C 0.31742 0.06404 0.15976 0.0
C287 C 0.30074 0.06438 0.16843 0.0
C288 C 0.29808 0.09568 0.16344 0.0
C289 C 0.31472 0.09596 0.15468 0.0
H290 H 0.29566 0.05199 0.1741 0.0
H291 H 0.29123 0.10825 0.1656 0.0
H292 H 0.26625 0.04171 0.20109 0.0
H293 H 0.30071 0.0674 0.23802 0.0
H294 H 0.22671 0.10089 0.13048 0.0
H295 H 0.32472 0.05144 0.15883 0.0
H296 H 0.31972 0.10863 0.14946 0.0
C297 C 0.1802 0.01986 0.46993 0.0
C298 C 0.19554 0.02384 0.47956 0.0
N299 N 0.20943 0.02459 0.46798 0.0
N300 N 0.1844 0.01771 0.45234 0.0
C301 C 0.20232 0.0209 0.45167 0.0
H302 H 0.16681 0.01997 0.47541 0.0
Co303 Co 0.16952 0.01437 0.432 0.0
C304 C 0.19726 0.00392 0.41036 0.0
O305 O 0.19708 0.02129 0.40692 0.0
N306 N 0.15534 0.01156 0.4114 0.0
C307 C 0.14298 0.01853 0.38502 0.0
C308 C 0.15673 0.02234 0.39683 0.0
C309 C 0.14066 0.00129 0.40815 0.0
N310 N 0.13281 0.00542 0.39227 0.0
O311 O 0.15772 0.99387 0.44354 0.0
H312 H 0.16639 0.03314 0.39544 0.0
H313 H 0.13508 0.9918 0.41769 0.0
O314 O 0.18645 0.99772 0.42214 0.0
C315 C 0.14773 0.98974 0.45692 0.0
O316 O 0.14151 0.00226 0.46773 0.0
N317 N 0.15314 0.0317 0.44038 0.0
C318 C 0.13214 0.06127 0.43136 0.0
C319 C 0.15043 0.06343 0.43546 0.0
C320 C 0.16076 0.04839 0.43982 0.0
C321 C 0.13484 0.02982 0.43931 0.0
C322 C 0.12402 0.04457 0.43471 0.0
H323 H 0.17525 0.04975 0.44007 0.0
H324 H 0.12875 0.01664 0.43923 0.0
H325 H 0.21004 0.02112 0.43937 0.0
H326 H 0.19622 0.02706 0.49377 0.0
H327 H 0.13988 0.02579 0.37275 0.0
H328 H 0.15713 0.07618 0.4331 0.0
H329 H 0.10994 0.04236 0.43155 0.0
C330 C 0.24059 0.92214 0.69582 0.0
C331 C 0.2378 0.93644 0.70735 0.0
N332 N 0.23708 0.95166 0.69746 0.0
N333 N 0.24173 0.92836 0.67881 0.0
C334 C 0.23949 0.94635 0.68026 0.0
H335 H 0.24175 0.90811 0.69958 0.0
Co336 Co 0.24586 0.91477 0.65827 0.0
C337 C 0.25163 0.94307 0.62972 0.0
O338 O 0.24198 0.93466 0.61748 0.0
N339 N 0.2505 0.90076 0.6377 0.0
C340 C 0.26544 0.88914 0.61448 0.0
C341 C 0.2645 0.90323 0.62636 0.0
C342 C 0.24353 0.88466 0.63278 0.0
N343 N 0.25232 0.87732 0.6186 0.0
O344 O 0.27013 0.91132 0.66543 0.0
H345 H 0.27414 0.9141 0.62725 0.0
H346 H 0.23315 0.87778 0.64027 0.0
O347 O 0.25336 0.9364 0.64548 0.0
C348 C 0.27401 0.89636 0.67284 0.0
O349 O 0.2611 0.88459 0.67566 0.0
N350 N 0.22154 0.91726 0.65213 0.0
C351 C 0.18489 0.91504 0.64422 0.0
C352 C 0.19458 0.93088 0.6406 0.0
C353 C 0.21284 0.93189 0.64513 0.0
C354 C 0.21196 0.90256 0.65738 0.0
C355 C 0.19368 0.9011 0.65351 0.0
H356 H 0.21976 0.94445 0.64298 0.0
H357 H 0.2187 0.89175 0.66447 0.0
H358 H 0.23986 0.95548 0.66892 0.0
H359 H 0.23621 0.93565 0.72182 0.0
H360 H 0.27554 0.88747 0.60413 0.0
H361 H 0.18834 0.94222 0.63389 0.0
H362 H 0.1866 0.889 0.65752 0.0
C363 C 0.32953 0.96127 0.95836 0.0
C364 C 0.31387 0.95719 0.96737 0.0
N365 N 0.3004 0.96679 0.95994 0.0
N366 N 0.32594 0.97346 0.94538 0.0
C367 C 0.30803 0.97653 0.94662 0.0
H368 H 0.34281 0.95613 0.96143 0.0
Co369 Co 0.34341 0.98495 0.93166 0.0
C370 C 0.324 0.99497 0.89769 0.0
O371 O 0.33764 0.98988 0.88761 0.0
N372 N 0.36147 0.99702 0.91837 0.0
C373 C 0.37635 0.01861 0.90378 0.0
C374 C 0.35993 0.01337 0.91054 0.0
C375 C 0.37921 0.99306 0.91685 0.0
N376 N 0.38856 0.00578 0.90775 0.0
O377 O 0.34024 0.00622 0.94544 0.0
H378 H 0.34772 0.02131 0.91021 0.0
H379 H 0.38544 0.98161 0.92319 0.0
O380 O 0.32486 0.99328 0.91481 0.0
C381 C 0.34941 0.00586 0.95991 0.0
O382 O 0.35871 0.99126 0.96369 0.0
N383 N 0.34752 0.96331 0.91923 0.0
C384 C 0.35975 0.93206 0.90232 0.0
C385 C 0.343 0.93965 0.89769 0.0
C386 C 0.33692 0.95512 0.90662 0.0
C387 C 0.3625 0.95476 0.92547 0.0
C388 C 0.36916 0.93948 0.91692 0.0
H389 H 0.3238 0.96041 0.90331 0.0
H390 H 0.36964 0.96021 0.93693 0.0
H391 H 0.30083 0.98629 0.93853 0.0
H392 H 0.31249 0.94801 0.97863 0.0
H393 H 0.379 0.03109 0.89676 0.0
H394 H 0.33471 0.93378 0.88722 0.0
H395 H 0.38193 0.93401 0.92137 0.0
C396 C 0.29054 0.90209 0.28236 0.0
C397 C 0.29491 0.91797 0.27378 0.0
N398 N 0.28488 0.93124 0.281 0.0
N399 N 0.2778 0.90541 0.29487 0.0
C400 C 0.27461 0.92327 0.29368 0.0
H401 H 0.2958 0.88887 0.27924 0.0
Co402 Co 0.2652 0.88826 0.30795 0.0
C403 C 0.25379 0.9064 0.34202 0.0
O404 O 0.25501 0.89142 0.35137 0.0
N405 N 0.25178 0.87065 0.3207 0.0
C406 C 0.22795 0.85721 0.33305 0.0
C407 C 0.23401 0.87233 0.32437 0.0
C408 C 0.25607 0.8541 0.32715 0.0
N409 N 0.24184 0.84571 0.33485 0.0
O410 O 0.24438 0.89364 0.29441 0.0
H411 H 0.22587 0.88395 0.32107 0.0
H412 H 0.2693 0.84819 0.32632 0.0
O413 O 0.25793 0.90662 0.32531 0.0
C414 C 0.2419 0.88619 0.27923 0.0
O415 O 0.25477 0.87615 0.27238 0.0
N416 N 0.28633 0.88264 0.32058 0.0
C417 C 0.31711 0.87046 0.33797 0.0
C418 C 0.3089 0.88656 0.34329 0.0
C419 C 0.29377 0.89273 0.33404 0.0
C420 C 0.29514 0.86782 0.31422 0.0
C421 C 0.31055 0.86134 0.32286 0.0
H422 H 0.28828 0.90562 0.33778 0.0
H423 H 0.28972 0.86061 0.30277 0.0
H424 H 0.26422 0.93018 0.30119 0.0
H425 H 0.30452 0.9196 0.26294 0.0
H426 H 0.21423 0.85478 0.33733 0.0
H427 H 0.31417 0.8943 0.35449 0.0
H428 H 0.31687 0.84904 0.3182 0.0
C429 C 0.35031 0.06645 0.53212 0.0
C430 C 0.33726 0.06935 0.51919 0.0
N431 N 0.32713 0.05437 0.51795 0.0
N432 N 0.34829 0.04974 0.53904 0.0
C433 C 0.33432 0.04266 0.52978 0.0
H434 H 0.36046 0.07603 0.53621 0.0
Co435 Co 0.36149 0.03739 0.55669 0.0
C436 C 0.32293 0.03545 0.57082 0.0
O437 O 0.31622 0.04929 0.56208 0.0
N438 N 0.37461 0.02463 0.574 0.0
C439 C 0.38209 0.00488 0.59523 0.0
C440 C 0.36845 0.011 0.58435 0.0
C441 C 0.39214 0.02632 0.57863 0.0
N442 N 0.39704 0.01451 0.59165 0.0
O443 O 0.35952 0.01588 0.54307 0.0
H444 H 0.35493 0.00561 0.58397 0.0
H445 H 0.4012 0.03578 0.57228 0.0
O446 O 0.3395 0.03111 0.56937 0.0
C447 C 0.36925 0.01458 0.52904 0.0
O448 O 0.37933 0.02833 0.5243 0.0
N449 N 0.36485 0.05853 0.56997 0.0
C450 C 0.37813 0.08635 0.59145 0.0
C451 C 0.36138 0.07837 0.59518 0.0
C452 C 0.3551 0.06428 0.58446 0.0
C453 C 0.38053 0.0669 0.56545 0.0
C454 C 0.38749 0.08077 0.57603 0.0
H455 H 0.34292 0.05764 0.58852 0.0
H456 H 0.38822 0.062 0.55408 0.0
H457 H 0.3292 0.02918 0.532 0.0
H458 H 0.33508 0.08166 0.51169 0.0
H459 H 0.38096 0.99422 0.6051 0.0
H460 H 0.35347 0.08247 0.60672 0.0
H461 H 0.40056 0.08629 0.57267 0.0
C462 C 0.21413 0.08916 0.77565 0.0
C463 C 0.21198 0.07837 0.7608 0.0
N464 N 0.22529 0.06606 0.76076 0.0
N465 N 0.22854 0.0835 0.78521 0.0
C466 C 0.23535 0.0697 0.77548 0.0
H467 H 0.20572 0.10052 0.77917 0.0
Co468 Co 0.23755 0.09493 0.80574 0.0
C469 C 0.23777 0.0554 0.81905 0.0
O470 O 0.23044 0.04714 0.80527 0.0
N471 N 0.24676 0.10701 0.82578 0.0
C472 C 0.25562 0.11459 0.85335 0.0
C473 C 0.24731 0.10158 0.84314 0.0
C474 C 0.25447 0.12349 0.82584 0.0
N475 N 0.26004 0.12836 0.84244 0.0
O476 O 0.2612 0.09159 0.79736 0.0
H477 H 0.24189 0.08907 0.84819 0.0
H478 H 0.25608 0.13173 0.81391 0.0
O479 O 0.24 0.07244 0.81907 0.0
C480 C 0.26771 0.10274 0.78619 0.0
O481 O 0.25735 0.11562 0.77983 0.0
N482 N 0.2143 0.09895 0.81404 0.0
C483 C 0.17983 0.1086 0.82514 0.0
C484 C 0.18469 0.09037 0.82341 0.0
C485 C 0.20206 0.08582 0.81788 0.0
C486 C 0.20961 0.11667 0.81487 0.0
C487 C 0.19254 0.12181 0.82062 0.0
H488 H 0.20549 0.0718 0.81631 0.0
H489 H 0.21926 0.1269 0.8111 0.0
H490 H 0.24758 0.06257 0.77902 0.0
H491 H 0.20126 0.07935 0.75095 0.0
H492 H 0.25792 0.11416 0.86775 0.0
H493 H 0.17518 0.0797 0.82627 0.0
H494 H 0.18957 0.13603 0.82191 0.0
C495 C 0.16476 0.93899 0.03624 0.0
C496 C 0.17532 0.93924 0.021 0.0
N497 N 0.18611 0.95375 0.02191 0.0
N498 N 0.16903 0.95319 0.04676 0.0
C499 C 0.18183 0.96215 0.03743 0.0
H500 H 0.15451 0.92913 0.03939 0.0
Co501 Co 0.15718 0.95959 0.06795 0.0
C502 C 0.19657 0.9666 0.07998 0.0
O503 O 0.2055 0.95878 0.06688 0.0
N504 N 0.14496 0.9661 0.08912 0.0
C505 C 0.13791 0.96846 0.11814 0.0
C506 C 0.1496 0.96098 0.10596 0.0
C507 C 0.13021 0.97654 0.09144 0.0
N508 N 0.12573 0.97832 0.10901 0.0
O509 O 0.15481 0.98353 0.05912 0.0
H510 H 0.16068 0.9521 0.1092 0.0
H511 H 0.12298 0.9829 0.08051 0.0
O512 O 0.17937 0.96659 0.08019 0.0
C513 C 0.14158 0.98658 0.04864 0.0
O514 O 0.13057 0.97329 0.0447 0.0
N515 N 0.15852 0.93584 0.07625 0.0
C516 C 0.15456 0.90432 0.09577 0.0
C517 C 0.17179 0.91108 0.09217 0.0
C518 C 0.17352 0.92696 0.08218 0.0
C519 C 0.14194 0.92817 0.07773 0.0
C520 C 0.1396 0.91247 0.08766 0.0
H521 H 0.18674 0.93253 0.08022 0.0
H522 H 0.13027 0.93519 0.07251 0.0
H523 H 0.18777 0.97474 0.04178 0.0
H524 H 0.17536 0.92936 0.01028 0.0
H525 H 0.13818 0.96651 0.13259 0.0
H526 H 0.18361 0.90499 0.09819 0.0
H527 H 0.12611 0.90748 0.09011 0.0
C528 C 0.20133 0.27373 0.07998 0.0
C529 C 0.21216 0.27572 0.06504 0.0
N530 N 0.20659 0.26399 0.05235 0.0
N531 N 0.18896 0.26085 0.07668 0.0
C532 C 0.19272 0.25497 0.05988 0.0
H533 H 0.20198 0.28159 0.09223 0.0
Co534 Co 0.17023 0.25386 0.09196 0.0
C535 C 0.14369 0.24723 0.06171 0.0
O536 O 0.13404 0.26157 0.06541 0.0
N537 N 0.15192 0.2462 0.10774 0.0
C538 C 0.12678 0.23659 0.12094 0.0
C539 C 0.13446 0.24185 0.10495 0.0
C540 C 0.15448 0.24338 0.12556 0.0
N541 N 0.13939 0.23758 0.13392 0.0
O542 O 0.18238 0.23138 0.09608 0.0
H543 H 0.12745 0.24234 0.09229 0.0
H544 H 0.16725 0.24551 0.13223 0.0
O545 O 0.15729 0.24301 0.07146 0.0
C546 C 0.19575 0.23257 0.10681 0.0
O547 O 0.19983 0.24843 0.11351 0.0
N548 N 0.15907 0.27694 0.08893 0.0
C549 C 0.14398 0.31142 0.08679 0.0
C550 C 0.15216 0.30365 0.07172 0.0
C551 C 0.1597 0.28642 0.07307 0.0
C552 C 0.1522 0.28503 0.10398 0.0
C553 C 0.14418 0.302 0.10309 0.0
H554 H 0.16554 0.28051 0.06114 0.0
H555 H 0.15307 0.27856 0.11695 0.0
H556 H 0.18519 0.2445 0.0531 0.0
H557 H 0.22273 0.28562 0.06335 0.0
H558 H 0.11289 0.23262 0.12287 0.0
H559 H 0.15244 0.31068 0.05893 0.0
H560 H 0.13852 0.3079 0.11519 0.0
C561 C 0.71239 0.22774 0.91945 0.0
C562 C 0.72257 0.22613 0.93484 0.0
N563 N 0.7114 0.22604 0.94912 0.0
N564 N 0.69478 0.22884 0.92384 0.0
C565 C 0.69465 0.22764 0.94205 0.0
H566 H 0.71762 0.22729 0.90595 0.0
Co567 Co 0.67471 0.23021 0.90815 0.0
C568 C 0.6521 0.24171 0.93332 0.0
O569 O 0.64964 0.22418 0.93307 0.0
N570 N 0.65466 0.23165 0.89285 0.0
C571 C 0.63053 0.22256 0.8777 0.0
C572 C 0.64156 0.21911 0.89219 0.0
C573 C 0.6511 0.24284 0.87887 0.0
N574 N 0.63665 0.23742 0.86923 0.0
O575 O 0.6868 0.24907 0.89453 0.0
H576 H 0.64076 0.20756 0.90103 0.0
H577 H 0.65972 0.2539 0.87492 0.0
O578 O 0.66415 0.24838 0.92307 0.0
C579 C 0.69919 0.25193 0.88294 0.0
O580 O 0.70862 0.23849 0.87635 0.0
N581 N 0.68363 0.21097 0.89413 0.0
C582 C 0.68115 0.17748 0.87711 0.0
C583 C 0.6843 0.17868 0.8957 0.0
C584 C 0.68528 0.19552 0.90393 0.0
C585 C 0.68223 0.21012 0.87577 0.0
C586 C 0.68106 0.19346 0.86699 0.0
H587 H 0.68529 0.19609 0.91848 0.0
H588 H 0.67996 0.22217 0.86797 0.0
H589 H 0.68246 0.22771 0.95 0.0
H590 H 0.73703 0.22435 0.93537 0.0
H591 H 0.61936 0.21431 0.87328 0.0
H592 H 0.68407 0.16681 0.90417 0.0
H593 H 0.67864 0.19317 0.85261 0.0
C594 C 0.04838 0.46376 0.16162 0.0
C595 C 0.04664 0.47896 0.17201 0.0
N596 N 0.03373 0.47596 0.1843 0.0
N597 N 0.03646 0.45108 0.16714 0.0
C598 C 0.02779 0.45907 0.18111 0.0
H599 H 0.05762 0.46246 0.15049 0.0
Co600 Co 0.03271 0.42729 0.1582 0.0
C601 C 0.02445 0.41324 0.19051 0.0
O602 O 0.04203 0.41116 0.19029 0.0
N603 N 0.02946 0.40382 0.1501 0.0
C604 C 0.03555 0.37549 0.14255 0.0
C605 C 0.04152 0.39035 0.15194 0.0
C606 C 0.01619 0.39682 0.13989 0.0
N607 N 0.01966 0.37971 0.13487 0.0
O608 O 0.01183 0.43557 0.14403 0.0
H609 H 0.05425 0.39156 0.15892 0.0
H610 H 0.00443 0.40427 0.13569 0.0
O611 O 0.01706 0.42193 0.17771 0.0
C612 C 0.00818 0.45044 0.13613 0.0
O613 O 0.0199 0.46365 0.1362 0.0
N614 N 0.04887 0.43069 0.13918 0.0
C615 C 0.07448 0.418 0.11504 0.0
C616 C 0.07944 0.42261 0.13262 0.0
C617 C 0.0663 0.42863 0.1446 0.0
C618 C 0.04419 0.428 0.12156 0.0
C619 C 0.05686 0.42149 0.10926 0.0
H620 H 0.0696 0.42978 0.15876 0.0
H621 H 0.03028 0.42839 0.11737 0.0
H622 H 0.01716 0.45279 0.18881 0.0
H623 H 0.05451 0.49118 0.1708 0.0
H624 H 0.04284 0.363 0.14062 0.0
H625 H 0.09282 0.41957 0.13763 0.0
H626 H 0.05253 0.41757 0.09588 0.0
C627 C 0.77082 0.80131 0.39401 0.0
C628 C 0.75636 0.80048 0.40556 0.0
N629 N 0.75937 0.78705 0.41732 0.0
N630 N 0.78299 0.7886 0.39863 0.0
C631 C 0.77534 0.77982 0.4126 0.0
H632 H 0.77241 0.81073 0.38303 0.0
Co633 Co 0.80477 0.78462 0.38682 0.0
C634 C 0.81707 0.76973 0.42419 0.0
O635 O 0.80827 0.77995 0.43567 0.0
N636 N 0.82649 0.78068 0.37479 0.0
C637 C 0.85554 0.77588 0.36955 0.0
C638 C 0.84311 0.78107 0.38216 0.0
C639 C 0.82923 0.77555 0.35757 0.0
N640 N 0.8468 0.77229 0.35405 0.0
O641 O 0.79585 0.76203 0.37852 0.0
H642 H 0.84604 0.78422 0.39607 0.0
H643 H 0.81851 0.77392 0.34789 0.0
O644 O 0.81527 0.77217 0.40729 0.0
C645 C 0.78709 0.76249 0.3638 0.0
O646 O 0.78457 0.77806 0.35576 0.0
N647 N 0.81313 0.80739 0.39381 0.0
C648 C 0.82724 0.84203 0.39655 0.0
C649 C 0.8306 0.8292 0.40999 0.0
C650 C 0.82339 0.81192 0.4084 0.0
C651 C 0.80934 0.81988 0.3809 0.0
C652 C 0.81609 0.83736 0.38209 0.0
H653 H 0.82711 0.80216 0.41837 0.0
H654 H 0.80163 0.81596 0.36917 0.0
H655 H 0.78113 0.76819 0.41915 0.0
H656 H 0.74488 0.80949 0.40577 0.0
H657 H 0.8698 0.77406 0.37198 0.0
H658 H 0.83933 0.83231 0.42128 0.0
H659 H 0.81351 0.84677 0.37124 0.0
C660 C 0.96171 0.02481 0.16475 0.0
C661 C 0.96044 0.01283 0.17885 0.0
N662 N 0.97323 0.01702 0.19103 0.0
N663 N 0.97503 0.03664 0.16825 0.0
C664 C 0.98188 0.03148 0.18426 0.0
H665 H 0.95358 0.02481 0.15265 0.0
Co666 Co 0.9833 0.05488 0.15354 0.0
C667 C 0.98414 0.08698 0.17718 0.0
O668 O 0.9757 0.09619 0.16461 0.0
N669 N 0.99256 0.073 0.13839 0.0
C670 C 0.01162 0.09346 0.12745 0.0
C671 C 0.00636 0.08418 0.14252 0.0
C672 C 0.99038 0.07516 0.12045 0.0
N673 N 0.00156 0.08771 0.11353 0.0
O674 O 0.00709 0.04546 0.15542 0.0
H675 H 0.01305 0.08481 0.15544 0.0
H676 H 0.98209 0.06659 0.1122 0.0
O677 O 0.9877 0.07028 0.17466 0.0
C678 C 0.01179 0.03562 0.14219 0.0
O679 O 1e-05 0.03249 0.12934 0.0
N680 N 0.95936 0.06327 0.1508 0.0
C681 C 0.925 0.07649 0.1431 0.0
C682 C 0.9316 0.07653 0.16083 0.0
C683 C 0.94865 0.06936 0.16449 0.0
C684 C 0.95212 0.06083 0.13413 0.0
C685 C 0.93524 0.0678 0.1298 0.0
H686 H 0.95333 0.06903 0.17827 0.0
H687 H 0.95943 0.05332 0.12409 0.0
H688 H 0.99301 0.03824 0.19084 0.0
H689 H 0.95108 0.0017 0.17991 0.0
H690 H 0.02252 0.10309 0.12672 0.0
H691 H 0.92373 0.08215 0.17176 0.0
H692 H 0.93055 0.06679 0.11603 0.0
C693 C 0.27958 0.7008 0.58236 0.0
C694 C 0.27191 0.69296 0.56747 0.0
N695 N 0.27623 0.70287 0.55292 0.0
N696 N 0.28901 0.71544 0.57722 0.0
C697 C 0.28653 0.71652 0.55918 0.0
H698 H 0.27831 0.69615 0.5961 0.0
Co699 Co 0.30153 0.73051 0.59293 0.0
C700 C 0.33717 0.73635 0.57676 0.0
O701 O 0.34446 0.73237 0.5924 0.0
N702 N 0.31407 0.7465 0.60879 0.0
C703 C 0.32973 0.77092 0.61678 0.0
C704 C 0.31896 0.76334 0.6038 0.0
C705 C 0.32174 0.74452 0.62526 0.0
N706 N 0.33167 0.75897 0.63027 0.0
O707 O 0.2882 0.75058 0.58425 0.0
H708 H 0.31596 0.76937 0.59089 0.0
H709 H 0.32059 0.73266 0.63343 0.0
O710 O 0.32007 0.73525 0.57464 0.0
C711 C 0.27205 0.75266 0.58958 0.0
O712 O 0.26441 0.73972 0.59894 0.0
N713 N 0.31355 0.71013 0.60233 0.0
C714 C 0.33208 0.68394 0.62156 0.0
C715 C 0.33563 0.68656 0.60318 0.0
C716 C 0.32579 0.69951 0.5936 0.0
C717 C 0.30776 0.70536 0.61907 0.0
C718 C 0.31723 0.6927 0.62921 0.0
H719 H 0.32867 0.7016 0.57949 0.0
H720 H 0.29668 0.71262 0.62516 0.0
H721 H 0.2923 0.72696 0.55078 0.0
H722 H 0.2636 0.68097 0.56733 0.0
H723 H 0.33642 0.78383 0.61577 0.0
H724 H 0.34654 0.6795 0.59655 0.0
H725 H 0.31352 0.69043 0.64313 0.0
C726 C 0.01992 0.53947 0.32674 0.0
C727 C 0.02043 0.52857 0.31182 0.0
N728 N 0.014 0.53794 0.29771 0.0
N729 N 0.013 0.55577 0.32232 0.0
C730 C 0.00959 0.55429 0.30442 0.0
H731 H 0.02496 0.53572 0.33987 0.0
Co732 Co 0.01098 0.57684 0.33695 0.0
C733 C 0.00467 0.5993 0.30886 0.0
O734 O 0.02218 0.60118 0.31058 0.0
N735 N 0.00953 0.59771 0.35101 0.0
C736 C 0.02025 0.62144 0.36573 0.0
C737 C 0.02256 0.61036 0.3511 0.0
C738 C 0.99924 0.60158 0.36557 0.0
N739 N 0.00569 0.61578 0.37494 0.0
O740 O 0.98893 0.56757 0.34787 0.0
H741 H 0.034 0.61048 0.34211 0.0
H742 H 0.98856 0.59298 0.37044 0.0
O743 O 0.99645 0.58823 0.31906 0.0
C744 C 0.98354 0.55249 0.35412 0.0
O745 O 0.99466 0.53882 0.35528 0.0
N746 N 0.02643 0.56715 0.35436 0.0
C747 C 0.05457 0.57101 0.37869 0.0
C748 C 0.05808 0.56892 0.36031 0.0
C749 C 0.04375 0.56738 0.34831 0.0
C750 C 0.02284 0.56679 0.37241 0.0
C751 C 0.03682 0.5691 0.38488 0.0
H752 H 0.04636 0.56847 0.33402 0.0
H753 H 0.00913 0.56716 0.37721 0.0
H754 H 0.00431 0.56509 0.29624 0.0
H755 H 0.02599 0.51511 0.31126 0.0
H756 H 0.02935 0.63201 0.37 0.0
H757 H 0.07158 0.57071 0.35504 0.0
H758 H 0.03365 0.57095 0.399 0.0
C759 C 0.43903 0.47165 0.84521 0.0
C760 C 0.43906 0.48502 0.83238 0.0
N761 N 0.45559 0.48567 0.82493 0.0
N762 N 0.45533 0.46362 0.84552 0.0
C763 C 0.46527 0.47286 0.83345 0.0
H764 H 0.42773 0.46779 0.85356 0.0
Co765 Co 0.46231 0.44454 0.86014 0.0
C766 C 0.47737 0.43046 0.82372 0.0
O767 O 0.4697 0.44142 0.81213 0.0
N768 N 0.46934 0.42578 0.87516 0.0
C769 C 0.47635 0.39876 0.88596 0.0
C770 C 0.47061 0.40811 0.87103 0.0
C771 C 0.47397 0.42681 0.89268 0.0
N772 N 0.47842 0.41058 0.89955 0.0
O773 O 0.48483 0.45637 0.86427 0.0
H774 H 0.46736 0.40233 0.85805 0.0
H775 H 0.47416 0.43924 0.90026 0.0
O776 O 0.47424 0.43189 0.84056 0.0
C777 C 0.49005 0.46738 0.87632 0.0
O778 O 0.47909 0.47211 0.88938 0.0
N779 N 0.44018 0.43269 0.8558 0.0
C780 C 0.40909 0.41223 0.85039 0.0
C781 C 0.41895 0.41884 0.83574 0.0
C782 C 0.43437 0.42909 0.83873 0.0
C783 C 0.43002 0.42756 0.87023 0.0
C784 C 0.41446 0.41716 0.86784 0.0
H785 H 0.44154 0.43415 0.82726 0.0
H786 H 0.43434 0.43099 0.88372 0.0
H787 H 0.47919 0.46975 0.83047 0.0
H788 H 0.42775 0.49346 0.82871 0.0
H789 H 0.47848 0.38436 0.88685 0.0
H790 H 0.41494 0.41588 0.82202 0.0
H791 H 0.40719 0.41243 0.87956 0.0
C792 C 0.598 0.7275 0.80152 0.0
C793 C 0.58376 0.73816 0.80655 0.0
N794 N 0.57103 0.7372 0.79367 0.0
N795 N 0.59425 0.71948 0.78563 0.0
C796 C 0.57795 0.72624 0.78089 0.0
H797 H 0.61021 0.72576 0.8092 0.0
Co798 Co 0.60879 0.70306 0.7728 0.0
C799 C 0.57249 0.6836 0.77361 0.0
O800 O 0.56582 0.69134 0.78803 0.0
N801 N 0.62323 0.68705 0.75972 0.0
C802 C 0.63184 0.66636 0.73989 0.0
C803 C 0.61776 0.67682 0.74573 0.0
C804 C 0.64083 0.68287 0.76183 0.0
N805 N 0.64643 0.67009 0.75006 0.0
O806 O 0.60417 0.7158 0.7511 0.0
H807 H 0.60431 0.67684 0.74011 0.0
H808 H 0.6494 0.68919 0.77174 0.0
O809 O 0.58826 0.68743 0.76797 0.0
C810 C 0.61241 0.73072 0.74931 0.0
O811 O 0.62137 0.73723 0.76313 0.0
N812 N 0.6149 0.69086 0.79412 0.0
C813 C 0.63082 0.67368 0.82347 0.0
C814 C 0.61494 0.66691 0.8158 0.0
C815 C 0.60731 0.67555 0.80093 0.0
C816 C 0.63015 0.69776 0.80168 0.0
C817 C 0.63838 0.68938 0.81634 0.0
H818 H 0.59586 0.66932 0.79465 0.0
H819 H 0.63629 0.70963 0.79585 0.0
H820 H 0.57089 0.72243 0.76871 0.0
H821 H 0.58277 0.74585 0.8189 0.0
H822 H 0.63114 0.65654 0.72916 0.0
H823 H 0.60897 0.65453 0.8207 0.0
H824 H 0.6507 0.69495 0.82184 0.0
C825 C 0.52999 0.33339 0.04646 0.0
C826 C 0.51979 0.31799 0.04705 0.0
N827 N 0.52607 0.30651 0.03449 0.0
N828 N 0.54282 0.3316 0.03374 0.0
C829 C 0.53992 0.31516 0.02648 0.0
H830 H 0.528 0.34526 0.05464 0.0
Co831 Co 0.55934 0.34953 0.02835 0.0
C832 C 0.58858 0.33285 0.00552 0.0
O833 O 0.59955 0.34649 0.00791 0.0
N834 N 0.57562 0.36852 0.02316 0.0
C835 C 0.59687 0.3897 0.02471 0.0
C836 C 0.5883 0.37612 0.03387 0.0
C837 C 0.57672 0.37802 0.00761 0.0
N838 N 0.58954 0.39086 0.00821 0.0
O839 O 0.5451 0.35604 0.00817 0.0
H840 H 0.59139 0.37226 0.04753 0.0
H841 H 0.56861 0.37536 0.99581 0.0
O842 O 0.57309 0.33265 0.01315 0.0
C843 C 0.53331 0.36805 0.01143 0.0
O844 O 0.53182 0.37422 0.02795 0.0
N845 N 0.5722 0.34358 0.0491 0.0
C846 C 0.59112 0.34291 0.08133 0.0
C847 C 0.59671 0.33226 0.06677 0.0
C848 C 0.58682 0.33253 0.05074 0.0
C849 C 0.56591 0.35296 0.06357 0.0
C850 C 0.57512 0.35275 0.07988 0.0
H851 H 0.59148 0.32447 0.03963 0.0
H852 H 0.55439 0.36174 0.06199 0.0
H853 H 0.54771 0.30964 0.01553 0.0
H854 H 0.50838 0.3156 0.0558 0.0
H855 H 0.60737 0.39835 0.02997 0.0
H856 H 0.60896 0.32437 0.06756 0.0
H857 H 0.57052 0.3613 0.09077 0.0
C858 C 0.92567 0.29265 0.29715 0.0
C859 C 0.9405 0.28192 0.30017 0.0
N860 N 0.95135 0.2829 0.28563 0.0
N861 N 0.92723 0.30049 0.28086 0.0
C862 C 0.94294 0.29428 0.27415 0.0
H863 H 0.91424 0.29421 0.30603 0.0
Co864 Co 0.91033 0.31482 0.2693 0.0
C865 C 0.93053 0.345 0.25308 0.0
O866 O 0.91718 0.35593 0.25703 0.0
N867 N 0.89298 0.32893 0.25694 0.0
C868 C 0.87881 0.34127 0.23352 0.0
C869 C 0.8927 0.33033 0.23877 0.0
C870 C 0.87887 0.33918 0.26234 0.0
N871 N 0.87012 0.34694 0.24837 0.0
O872 O 0.90958 0.29804 0.24966 0.0
H873 H 0.90226 0.32404 0.22977 0.0
H874 H 0.8751 0.34124 0.27617 0.0
O875 O 0.9297 0.32834 0.25747 0.0
C876 C 0.89955 0.28432 0.25192 0.0
O877 O 0.89245 0.28157 0.2679 0.0
N878 N 0.91027 0.33035 0.28943 0.0
C879 C 0.90643 0.3516 0.32022 0.0
C880 C 0.92235 0.35218 0.31007 0.0
C881 C 0.92416 0.34116 0.29488 0.0
C882 C 0.89559 0.32825 0.30023 0.0
C883 C 0.89317 0.33902 0.31543 0.0
H884 H 0.93677 0.34131 0.28768 0.0
H885 H 0.8854 0.31846 0.29666 0.0
H886 H 0.94791 0.29783 0.26093 0.0
H887 H 0.94271 0.27348 0.31185 0.0
H888 H 0.8753 0.34453 0.21975 0.0
H889 H 0.93318 0.3613 0.3136 0.0
H890 H 0.88099 0.33756 0.32332 0.0
C891 C 0.94813 0.67873 0.52726 0.0
C892 C 0.96014 0.69272 0.52834 0.0
N893 N 0.95731 0.70366 0.51423 0.0
N894 N 0.93761 0.68062 0.51243 0.0
C895 C 0.94371 0.69608 0.50481 0.0
H896 H 0.94761 0.66769 0.53672 0.0
Co897 Co 0.919 0.66488 0.50379 0.0
C898 C 0.90275 0.69274 0.48904 0.0
O899 O 0.89831 0.69369 0.50615 0.0
N900 N 0.90094 0.6496 0.49526 0.0
C901 C 0.87425 0.63696 0.49011 0.0
C902 C 0.88297 0.65218 0.49628 0.0
C903 C 0.9028 0.63286 0.48836 0.0
N904 N 0.88683 0.62481 0.48534 0.0
O905 O 0.93663 0.65243 0.48899 0.0
H906 H 0.87662 0.66404 0.50185 0.0
H907 H 0.91562 0.62632 0.48615 0.0
O908 O 0.91401 0.6807 0.48421 0.0
C909 C 0.95265 0.6468 0.49161 0.0
O910 O 0.95993 0.64788 0.50769 0.0
N911 N 0.92137 0.64989 0.52385 0.0
C912 C 0.90973 0.63029 0.55364 0.0
C913 C 0.90757 0.64902 0.55292 0.0
C914 C 0.91296 0.6584 0.53772 0.0
C915 C 0.92519 0.6319 0.52483 0.0
C916 C 0.91941 0.62177 0.53976 0.0
H917 H 0.90948 0.6725 0.53648 0.0
H918 H 0.93126 0.625 0.51358 0.0
H919 H 0.93856 0.70169 0.4924 0.0
H920 H 0.97 0.69483 0.53889 0.0
H921 H 0.85985 0.63462 0.49011 0.0
H922 H 0.90061 0.65627 0.5635 0.0
H923 H 0.92129 0.6073 0.53977 0.0
C924 C 0.57302 0.31788 0.71853 0.0
C925 C 0.55884 0.30605 0.71767 0.0
N926 N 0.55299 0.30291 0.73455 0.0
N927 N 0.57626 0.32219 0.73592 0.0
C928 C 0.5638 0.3128 0.74529 0.0
H929 H 0.5803 0.32291 0.70702 0.0
Co930 Co 0.59307 0.33825 0.74603 0.0
C931 C 0.56418 0.35489 0.75946 0.0
O932 O 0.56398 0.36 0.7425 0.0
N933 N 0.60923 0.35438 0.75589 0.0
C934 C 0.6232 0.38008 0.76212 0.0
C935 C 0.60705 0.37237 0.75717 0.0
C936 C 0.62657 0.35141 0.7603 0.0
N937 N 0.63545 0.36682 0.76379 0.0
O938 O 0.60289 0.31888 0.76117 0.0
H939 H 0.59487 0.37951 0.7536 0.0
H940 H 0.63291 0.3383 0.76003 0.0
O941 O 0.57642 0.34404 0.76462 0.0
C942 C 0.60447 0.30197 0.75829 0.0
O943 O 0.60063 0.2954 0.74231 0.0
N944 N 0.60917 0.33454 0.72701 0.0
C945 C 0.63244 0.34028 0.69819 0.0
C946 C 0.61603 0.34948 0.69931 0.0
C947 C 0.60485 0.34669 0.71399 0.0
C948 C 0.62495 0.32505 0.72609 0.0
C949 C 0.63691 0.32786 0.71172 0.0
H950 H 0.59274 0.35469 0.71538 0.0
H951 H 0.62906 0.31627 0.7369 0.0
H952 H 0.56256 0.31346 0.75978 0.0
H953 H 0.55337 0.30019 0.7055 0.0
H954 H 0.62604 0.39435 0.76305 0.0
H955 H 0.61236 0.35961 0.68944 0.0
H956 H 0.64974 0.32091 0.7115 0.0
C957 C 0.97428 0.32192 0.98683 0.0
C958 C 0.98784 0.31013 0.98256 0.0
N959 N 0.98125 0.2933 0.98365 0.0
N960 N 0.95898 0.31269 0.99018 0.0
C961 C 0.96379 0.2952 0.98839 0.0
H962 H 0.97577 0.33632 0.98839 0.0
Co963 Co 0.93879 0.32368 0.0005 0.0
C964 C 0.92008 0.288 0.99424 0.0
O965 O 0.9221 0.28777 0.97665 0.0
N966 N 0.91924 0.33478 0.01148 0.0
C967 C 0.89605 0.34055 0.02938 0.0
C968 C 0.90888 0.32804 0.02478 0.0
C969 C 0.9127 0.35143 0.00838 0.0
N970 N 0.89845 0.35525 0.01901 0.0
O971 O 0.94981 0.32102 0.02346 0.0
H972 H 0.91069 0.31497 0.03097 0.0
H973 H 0.91824 0.36046 0.99837 0.0
O974 O 0.92665 0.30081 0.00361 0.0
C975 C 0.95678 0.33588 0.02836 0.0
O976 O 0.95567 0.34975 0.0174 0.0
N977 N 0.92822 0.3279 0.97773 0.0
C978 C 0.91193 0.34427 0.94798 0.0
C979 C 0.90195 0.33302 0.95943 0.0
C980 C 0.91032 0.32507 0.97432 0.0
C981 C 0.93812 0.33837 0.96634 0.0
C982 C 0.93037 0.34633 0.95125 0.0
H983 H 0.90203 0.31791 0.98391 0.0
H984 H 0.95177 0.34191 0.96955 0.0
H985 H 0.95529 0.28398 0.99199 0.0
H986 H 0.00167 0.31369 0.97961 0.0
H987 H 0.88608 0.33908 0.0399 0.0
H988 H 0.88756 0.33138 0.95767 0.0
H989 H 0.93863 0.35483 0.94275 0.0
C990 C 0.90512 0.71558 0.19606 0.0
C991 C 0.91747 0.72944 0.19701 0.0
N992 N 0.92714 0.72737 0.21225 0.0
N993 N 0.90732 0.70478 0.21049 0.0
C994 C 0.92078 0.71231 0.22005 0.0
H995 H 0.89491 0.71375 0.18582 0.0
Co996 Co 0.8936 0.68554 0.21812 0.0
C997 C 0.92106 0.65724 0.22489 0.0
O998 O 0.91155 0.64544 0.21573 0.0
N999 N 0.8792 0.66653 0.22681 0.0
C1000 C 0.86771 0.64537 0.24475 0.0
C1001 C 0.8828 0.65516 0.24061 0.0
C1002 C 0.86143 0.66413 0.22372 0.0
N1003 N 0.85423 0.65107 0.23407 0.0
O1004 O 0.89128 0.69683 0.24087 0.0
H1005 H 0.89515 0.65482 0.24828 0.0
H1006 H 0.85342 0.67301 0.21544 0.0
O1007 O 0.91541 0.67341 0.22666 0.0
C1008 C 0.87697 0.70533 0.24486 0.0
O1009 O 0.86344 0.70547 0.23346 0.0
N1010 N 0.89566 0.67493 0.19501 0.0
C1011 C 0.89735 0.65734 0.16175 0.0
C1012 C 0.91312 0.66328 0.17039 0.0
C1013 C 0.91197 0.67213 0.18696 0.0
C1014 C 0.88027 0.6716 0.1856 0.0
C1015 C 0.88073 0.66224 0.16936 0.0
H1016 H 0.92426 0.67649 0.19346 0.0
H1017 H 0.86749 0.67614 0.19055 0.0
H1018 H 0.9256 0.70696 0.23274 0.0
H1019 H 0.91879 0.74049 0.18759 0.0
H1020 H 0.86658 0.63548 0.25539 0.0
H1021 H 0.9263 0.66094 0.16464 0.0
H1022 H 0.86804 0.65852 0.16326 0.0
C1023 C 0.53204 0.6664 0.45872 0.0
C1024 C 0.52014 0.68056 0.4574 0.0
N1025 N 0.52063 0.68982 0.47297 0.0
N1026 N 0.54022 0.6669 0.47498 0.0
C1027 C 0.53272 0.68118 0.48341 0.0
H1028 H 0.53444 0.65643 0.44841 0.0
Co1029 Co 0.55736 0.65096 0.48457 0.0
C1030 C 0.57671 0.68711 0.48555 0.0
O1031 O 0.56659 0.69558 0.47379 0.0
N1032 N 0.57423 0.63503 0.4941 0.0
C1033 C 0.6 0.62217 0.50221 0.0
C1034 C 0.59224 0.63739 0.49516 0.0
C1035 C 0.57138 0.61821 0.5004 0.0
N1036 N 0.58688 0.61008 0.50548 0.0
O1037 O 0.54748 0.65403 0.50782 0.0
H1038 H 0.59945 0.64916 0.49056 0.0
H1039 H 0.5582 0.61202 0.50102 0.0
O1040 O 0.57393 0.67063 0.48952 0.0
C1041 C 0.53181 0.64771 0.51061 0.0
O1042 O 0.52301 0.64006 0.4973 0.0
N1043 N 0.56651 0.64641 0.4619 0.0
C1044 C 0.57883 0.63201 0.42974 0.0
C1045 C 0.58529 0.6487 0.43585 0.0
C1046 C 0.57899 0.6557 0.45214 0.0
C1047 C 0.55969 0.63052 0.45582 0.0
C1048 C 0.56564 0.62306 0.43975 0.0
H1049 H 0.58461 0.66814 0.457 0.0
H1050 H 0.5498 0.62343 0.46383 0.0
H1051 H 0.53657 0.68555 0.49678 0.0
H1052 H 0.5117 0.6837 0.44592 0.0
H1053 H 0.61428 0.6199 0.50406 0.0
H1054 H 0.59569 0.65586 0.42854 0.0
H1055 H 0.56026 0.61021 0.4354 0.0
C1056 C 0.80335 0.58242 0.71116 0.0
C1057 C 0.80576 0.56792 0.72248 0.0
N1058 N 0.79097 0.55742 0.72153 0.0
N1059 N 0.7872 0.58096 0.70299 0.0
C1060 C 0.77993 0.56569 0.70965 0.0
H1061 H 0.8127 0.59339 0.70907 0.0
Co1062 Co 0.77708 0.59702 0.68672 0.0
C1063 C 0.76229 0.57461 0.65775 0.0
O1064 O 0.77022 0.58529 0.64607 0.0
N1065 N 0.76595 0.61347 0.67049 0.0
C1066 C 0.74287 0.62609 0.65595 0.0
C1067 C 0.74797 0.61275 0.66757 0.0
C1068 C 0.77138 0.62778 0.66049 0.0
N1069 N 0.75761 0.63556 0.65139 0.0
O1070 O 0.75707 0.60046 0.70254 0.0
H1071 H 0.73894 0.60305 0.6736 0.0
H1072 H 0.78503 0.63263 0.65983 0.0
O1073 O 0.76424 0.57734 0.67467 0.0
C1074 C 0.75902 0.61066 0.71617 0.0
O1075 O 0.77516 0.61678 0.72008 0.0
N1076 N 0.79763 0.5943 0.67198 0.0
C1077 C 0.82816 0.59367 0.65027 0.0
C1078 C 0.81843 0.57782 0.6534 0.0
C1079 C 0.80332 0.57835 0.66467 0.0
C1080 C 0.80844 0.60907 0.67106 0.0
C1081 C 0.82344 0.60927 0.65978 0.0
H1082 H 0.79605 0.56601 0.66724 0.0
H1083 H 0.80519 0.6209 0.67889 0.0
H1084 H 0.76679 0.56072 0.70579 0.0
H1085 H 0.81734 0.56551 0.73101 0.0
H1086 H 0.72922 0.62887 0.65168 0.0
H1087 H 0.82208 0.56536 0.64676 0.0
H1088 H 0.83117 0.62156 0.65832 0.0
C1089 C 0.6636 0.53792 0.96036 0.0
C1090 C 0.67711 0.53766 0.97312 0.0
N1091 N 0.68813 0.52373 0.96944 0.0
N1092 N 0.66639 0.52446 0.94848 0.0
C1093 C 0.68125 0.51586 0.95457 0.0
H1094 H 0.65277 0.54764 0.95943 0.0
Co1095 Co 0.65326 0.51952 0.92763 0.0
C1096 C 0.68466 0.51645 0.90231 0.0
O1097 O 0.67894 0.52987 0.8923 0.0
N1098 N 0.63947 0.51365 0.90678 0.0
C1099 C 0.62975 0.50093 0.88136 0.0
C1100 C 0.64458 0.50496 0.89159 0.0
C1101 C 0.62122 0.51404 0.90559 0.0
N1102 N 0.615 0.50661 0.89018 0.0
O1103 O 0.64877 0.49589 0.93623 0.0
H1104 H 0.65794 0.50033 0.88846 0.0
H1105 H 0.6126 0.51927 0.9161 0.0
O1106 O 0.67542 0.51112 0.91586 0.0
C1107 C 0.63389 0.49519 0.94465 0.0
O1108 O 0.62482 0.51014 0.94736 0.0
N1109 N 0.65665 0.54361 0.91979 0.0
C1110 C 0.65936 0.57901 0.90715 0.0
C1111 C 0.67443 0.57018 0.91445 0.0
C1112 C 0.67274 0.55255 0.92092 0.0
C1113 C 0.6416 0.5527 0.91451 0.0
C1114 C 0.6427 0.5701 0.90768 0.0
H1115 H 0.68452 0.54586 0.92629 0.0
H1116 H 0.62854 0.54654 0.91546 0.0
H1117 H 0.68732 0.50442 0.94787 0.0
H1118 H 0.67882 0.54707 0.98414 0.0
H1119 H 0.62979 0.49328 0.86895 0.0
H1120 H 0.68747 0.57669 0.91499 0.0
H1121 H 0.63055 0.57619 0.9024 0.0
C1122 C 0.71486 0.42247 0.21637 0.0
C1123 C 0.7097 0.43883 0.22335 0.0
N1124 N 0.71676 0.45185 0.21291 0.0
N1125 N 0.72531 0.42523 0.20178 0.0
C1126 C 0.72612 0.44331 0.19992 0.0
H1127 H 0.7113 0.40937 0.22165 0.0
Co1128 Co 0.7363 0.40716 0.18854 0.0
C1129 C 0.74586 0.42404 0.15364 0.0
O1130 O 0.73975 0.41003 0.14472 0.0
N1131 N 0.74787 0.38868 0.1753 0.0
C1132 C 0.76993 0.37384 0.16139 0.0
C1133 C 0.76548 0.38916 0.17072 0.0
C1134 C 0.74198 0.37279 0.16855 0.0
N1135 N 0.7551 0.3635 0.15996 0.0
O1136 O 0.75788 0.4105 0.20191 0.0
H1137 H 0.7746 0.40008 0.17384 0.0
H1138 H 0.72832 0.36808 0.16966 0.0
O1139 O 0.7448 0.42466 0.1708 0.0
C1140 C 0.75803 0.40222 0.21692 0.0
O1141 O 0.7435 0.39351 0.22198 0.0
N1142 N 0.71437 0.40307 0.17697 0.0
C1143 C 0.6815 0.39174 0.16322 0.0
C1144 C 0.68967 0.40747 0.15669 0.0
C1145 C 0.70591 0.4133 0.16423 0.0
C1146 C 0.70564 0.38892 0.18471 0.0
C1147 C 0.6893 0.38281 0.17787 0.0
H1148 H 0.71155 0.42592 0.15977 0.0
H1149 H 0.71192 0.38181 0.19579 0.0
H1150 H 0.73371 0.45018 0.18956 0.0
H1151 H 0.70131 0.44103 0.23507 0.0
H1152 H 0.78319 0.37055 0.15634 0.0
H1153 H 0.68355 0.41515 0.14588 0.0
H1154 H 0.68324 0.3708 0.1835 0.0
C1155 C 0.81568 0.47172 0.44766 0.0
C1156 C 0.80187 0.4695 0.45968 0.0
N1157 N 0.78803 0.47995 0.45447 0.0
N1158 N 0.81078 0.48354 0.43465 0.0
C1159 C 0.79376 0.48837 0.43936 0.0
H1160 H 0.82847 0.46485 0.44849 0.0
Co1161 Co 0.82481 0.49132 0.41447 0.0
C1162 C 0.79701 0.5061 0.39795 0.0
O1163 O 0.79676 0.48928 0.3924 0.0
N1164 N 0.83843 0.49902 0.39476 0.0
C1165 C 0.85415 0.49728 0.36937 0.0
C1166 C 0.84028 0.48983 0.3792 0.0
C1167 C 0.85083 0.51233 0.39385 0.0
N1168 N 0.86074 0.5114 0.37867 0.0
O1169 O 0.83843 0.50708 0.43031 0.0
H1170 H 0.83295 0.47769 0.37588 0.0
H1171 H 0.85365 0.52162 0.40471 0.0
O1172 O 0.80848 0.51055 0.40992 0.0
C1173 C 0.84812 0.50557 0.44443 0.0
O1174 O 0.85114 0.48967 0.45154 0.0
N1175 N 0.84059 0.47164 0.41679 0.0
C1176 C 0.86099 0.44205 0.40562 0.0
C1177 C 0.84225 0.44072 0.40762 0.0
C1178 C 0.83231 0.45576 0.41276 0.0
C1179 C 0.85896 0.4729 0.41627 0.0
C1180 C 0.86943 0.45819 0.41078 0.0
H1181 H 0.81776 0.45514 0.41224 0.0
H1182 H 0.8655 0.48575 0.41825 0.0
H1183 H 0.78553 0.49768 0.43179 0.0
H1184 H 0.80211 0.46097 0.4715 0.0
H1185 H 0.85956 0.49218 0.35683 0.0
H1186 H 0.83513 0.42849 0.40407 0.0
H1187 H 0.88381 0.45999 0.40913 0.0
C1188 C 0.80593 0.41799 0.79586 0.0
C1189 C 0.80749 0.43263 0.78458 0.0
N1190 N 0.79313 0.44345 0.7872 0.0
N1191 N 0.79075 0.41965 0.80565 0.0
C1192 C 0.78318 0.4352 0.8 0.0
H1193 H 0.81518 0.40676 0.79675 0.0
Co1194 Co 0.78197 0.40347 0.82256 0.0
C1195 C 0.75563 0.42443 0.84242 0.0
O1196 O 0.74421 0.41114 0.83989 0.0
N1197 N 0.77318 0.38707 0.8397 0.0
C1198 C 0.76469 0.3757 0.86607 0.0
C1199 C 0.77443 0.38901 0.85777 0.0
C1200 C 0.76297 0.37214 0.83736 0.0
N1201 N 0.75752 0.36515 0.85323 0.0
O1202 O 0.7604 0.40147 0.8092 0.0
H1203 H 0.78119 0.39998 0.86454 0.0
H1204 H 0.75876 0.36707 0.82436 0.0
O1205 O 0.77163 0.42333 0.83622 0.0
C1206 C 0.76028 0.39162 0.79522 0.0
O1207 O 0.77527 0.38369 0.79015 0.0
N1208 N 0.80357 0.40455 0.835 0.0
C1209 C 0.83389 0.39859 0.85604 0.0
C1210 C 0.82439 0.41492 0.85732 0.0
C1211 C 0.80921 0.41773 0.84649 0.0
C1212 C 0.81342 0.3893 0.83257 0.0
C1213 C 0.82868 0.38605 0.84292 0.0
H1214 H 0.80158 0.43003 0.84803 0.0
H1215 H 0.80882 0.37921 0.82311 0.0
H1216 H 0.77061 0.44039 0.80524 0.0
H1217 H 0.81818 0.43492 0.77493 0.0
H1218 H 0.76251 0.37419 0.88041 0.0
H1219 H 0.82802 0.42499 0.86723 0.0
H1220 H 0.83593 0.37352 0.8411 0.0
C1221 C 0.8358 0.52783 0.02495 0.0
C1222 C 0.81993 0.52939 0.01551 0.0
N1223 N 0.80821 0.51719 0.02204 0.0
N1224 N 0.83403 0.51489 0.03758 0.0
C1225 C 0.81713 0.50846 0.0353 0.0
H1226 H 0.84782 0.53577 0.02286 0.0
Co1227 Co 0.85143 0.50856 0.05452 0.0
C1228 C 0.83146 0.49044 0.0827 0.0
O1229 O 0.84428 0.47822 0.08257 0.0
N1230 N 0.86931 0.50248 0.0716 0.0
C1231 C 0.88544 0.50285 0.09687 0.0
C1232 C 0.87012 0.50899 0.0886 0.0
C1233 C 0.88435 0.49226 0.06993 0.0
N1234 N 0.89437 0.49233 0.08515 0.0
O1235 O 0.84967 0.48428 0.0471 0.0
H1236 H 0.86017 0.5177 0.09468 0.0
H1237 H 0.88815 0.48529 0.05772 0.0
O1238 O 0.83245 0.5041 0.07225 0.0
C1239 C 0.859 0.4789 0.03384 0.0
O1240 O 0.86941 0.49043 0.02536 0.0
N1241 N 0.85402 0.53256 0.06099 0.0
C1242 C 0.86696 0.56503 0.07412 0.0
C1243 C 0.84985 0.55876 0.0793 0.0
C1244 C 0.8435 0.54236 0.07244 0.0
C1245 C 0.86973 0.53935 0.05447 0.0
C1246 C 0.87646 0.5556 0.06083 0.0
H1247 H 0.83087 0.53703 0.07728 0.0
H1248 H 0.87767 0.5314 0.04519 0.0
H1249 H 0.81136 0.49782 0.04343 0.0
H1250 H 0.81724 0.53867 0.00459 0.0
H1251 H 0.88965 0.50576 0.11053 0.0
H1252 H 0.84209 0.56572 0.0895 0.0
H1253 H 0.88952 0.56018 0.05621 0.0
C1254 C 0.68526 0.59692 0.26872 0.0
C1255 C 0.68391 0.5841 0.25538 0.0
N1256 N 0.69883 0.57385 0.25599 0.0
N1257 N 0.70086 0.59453 0.27776 0.0
C1258 C 0.70901 0.58062 0.26939 0.0
H1259 H 0.67552 0.60735 0.27166 0.0
Co1260 Co 0.70962 0.60949 0.29584 0.0
C1261 C 0.72234 0.57287 0.31194 0.0
O1262 O 0.71285 0.56131 0.3025 0.0
N1263 N 0.71872 0.6249 0.31346 0.0
C1264 C 0.72871 0.63645 0.33914 0.0
C1265 C 0.71998 0.62209 0.33135 0.0
C1266 C 0.72651 0.64106 0.31071 0.0
N1267 N 0.7329 0.64844 0.32612 0.0
O1268 O 0.73116 0.61243 0.2827 0.0
H1269 H 0.71509 0.61024 0.33827 0.0
H1270 H 0.72748 0.64715 0.29753 0.0
O1271 O 0.72082 0.58978 0.30916 0.0
C1272 C 0.73123 0.62112 0.26795 0.0
O1273 O 0.71605 0.62762 0.26156 0.0
N1274 N 0.688 0.60707 0.30867 0.0
C1275 C 0.6568 0.60498 0.32946 0.0
C1276 C 0.66438 0.58945 0.32181 0.0
C1277 C 0.68006 0.59078 0.31163 0.0
C1278 C 0.67989 0.62248 0.31449 0.0
C1279 C 0.66459 0.62173 0.32532 0.0
H1280 H 0.68559 0.5787 0.3059 0.0
H1281 H 0.68568 0.63545 0.31128 0.0
H1282 H 0.72232 0.57573 0.2728 0.0
H1283 H 0.6727 0.58217 0.24624 0.0
H1284 H 0.73197 0.63764 0.35328 0.0
H1285 H 0.65844 0.57629 0.32378 0.0
H1286 H 0.65944 0.6342 0.33083 0.0
C1287 C 0.66612 0.4516 0.55049 0.0
C1288 C 0.67723 0.451 0.53573 0.0
N1289 N 0.68263 0.46789 0.53191 0.0
N1290 N 0.66476 0.46875 0.55635 0.0
C1291 C 0.67439 0.47845 0.54426 0.0
H1292 H 0.65953 0.44016 0.55663 0.0
Co1293 Co 0.65088 0.47624 0.57617 0.0
C1294 C 0.68723 0.49402 0.58527 0.0
O1295 O 0.69697 0.48671 0.57247 0.0
N1296 N 0.63654 0.48363 0.59559 0.0
C1297 C 0.62695 0.4908 0.62307 0.0
C1298 C 0.6412 0.48428 0.61317 0.0
C1299 C 0.6193 0.48944 0.5952 0.0
N1300 N 0.61318 0.49402 0.61172 0.0
O1301 O 0.64328 0.49696 0.56296 0.0
H1302 H 0.65402 0.4799 0.6185 0.0
H1303 H 0.61138 0.49043 0.58302 0.0
O1304 O 0.67052 0.49021 0.58684 0.0
C1305 C 0.63068 0.49455 0.55156 0.0
O1306 O 0.62456 0.47813 0.54904 0.0
N1307 N 0.65751 0.45542 0.58907 0.0
C1308 C 0.66372 0.42401 0.6089 0.0
C1309 C 0.67811 0.43497 0.60339 0.0
C1310 C 0.67472 0.45063 0.59347 0.0
C1311 C 0.64345 0.44454 0.59357 0.0
C1312 C 0.64619 0.42897 0.6037 0.0
H1313 H 0.68598 0.45863 0.58915 0.0
H1314 H 0.62991 0.44822 0.5896 0.0
H1315 H 0.67591 0.49294 0.54499 0.0
H1316 H 0.68109 0.43898 0.52843 0.0
H1317 H 0.62659 0.4926 0.63754 0.0
H1318 H 0.6919 0.4315 0.60664 0.0
H1319 H 0.63455 0.4212 0.60777 0.0
C1320 C 0.7162 0.78633 0.56856 0.0
C1321 C 0.72323 0.7899 0.55178 0.0
N1322 N 0.71405 0.78006 0.53963 0.0
N1323 N 0.70278 0.7742 0.56695 0.0
C1324 C 0.70174 0.7707 0.54912 0.0
H1325 H 0.7208 0.79197 0.58118 0.0
Co1326 Co 0.69038 0.76385 0.58602 0.0
C1327 C 0.65698 0.74835 0.57 0.0
O1328 O 0.64734 0.75308 0.58407 0.0
N1329 N 0.67811 0.75299 0.60549 0.0
C1330 C 0.66643 0.73147 0.6228 0.0
C1331 C 0.67598 0.73501 0.6074 0.0
C1332 C 0.66968 0.76004 0.62005 0.0
N1333 N 0.66239 0.74725 0.63077 0.0
O1334 O 0.70574 0.74331 0.5847 0.0
H1335 H 0.68081 0.72498 0.59801 0.0
H1336 H 0.66854 0.77427 0.62267 0.0
O1337 O 0.6737 0.75235 0.56924 0.0
C1338 C 0.72054 0.745 0.59322 0.0
O1339 O 0.72432 0.76062 0.60064 0.0
N1340 N 0.67672 0.78496 0.58811 0.0
C1341 C 0.66052 0.81772 0.59645 0.0
C1342 C 0.65352 0.80681 0.5827 0.0
C1343 C 0.66219 0.79063 0.57833 0.0
C1344 C 0.68431 0.796 0.60065 0.0
C1345 C 0.67638 0.81239 0.60514 0.0
H1346 H 0.65722 0.78294 0.56708 0.0
H1347 H 0.69634 0.79168 0.60767 0.0
H1348 H 0.6926 0.76104 0.54317 0.0
H1349 H 0.73422 0.79898 0.54874 0.0
H1350 H 0.66297 0.71821 0.62777 0.0
H1351 H 0.64163 0.81088 0.57528 0.0
H1352 H 0.68229 0.82054 0.61571 0.0
C1353 C 0.20277 0.68444 0.4112 0.0
C1354 C 0.21591 0.67914 0.42304 0.0
N1355 N 0.21832 0.69228 0.43538 0.0
N1356 N 0.19665 0.70082 0.41592 0.0
C1357 C 0.20678 0.70555 0.43035 0.0
H1358 H 0.19783 0.67675 0.39984 0.0
Co1359 Co 0.17845 0.71223 0.40273 0.0
C1360 C 0.16739 0.72688 0.44062 0.0
O1361 O 0.17574 0.7161 0.4519 0.0
N1362 N 0.16055 0.72357 0.38911 0.0
C1363 C 0.13474 0.73614 0.38059 0.0
C1364 C 0.14353 0.72732 0.39431 0.0
C1365 C 0.16169 0.72989 0.37208 0.0
N1366 N 0.14618 0.73772 0.36662 0.0
O1367 O 0.19397 0.73223 0.39835 0.0
H1368 H 0.13781 0.72376 0.40722 0.0
H1369 H 0.17371 0.72889 0.3639 0.0
O1370 O 0.16891 0.7247 0.42364 0.0
C1371 C 0.2068 0.73048 0.38712 0.0
O1372 O 0.20975 0.71459 0.37989 0.0
N1373 N 0.1632 0.69218 0.40618 0.0
C1374 C 0.14202 0.66126 0.40811 0.0
C1375 C 0.14824 0.66953 0.42384 0.0
C1376 C 0.15893 0.685 0.42258 0.0
C1377 C 0.15752 0.68396 0.39075 0.0
C1378 C 0.14674 0.66856 0.39141 0.0
H1379 H 0.1642 0.69075 0.43475 0.0
H1380 H 0.16153 0.68929 0.3778 0.0
H1381 H 0.20566 0.71841 0.43705 0.0
H1382 H 0.22303 0.66645 0.42246 0.0
H1383 H 0.12087 0.74064 0.38071 0.0
H1384 H 0.14509 0.66394 0.43695 0.0
H1385 H 0.14234 0.66227 0.379 0.0
C1386 C 0.55712 0.97257 0.667 0.0
C1387 C 0.55989 0.98559 0.67988 0.0
N1388 N 0.546 0.98514 0.69148 0.0
N1389 N 0.54159 0.96374 0.6705 0.0
C1390 C 0.53499 0.97201 0.68537 0.0
H1391 H 0.56583 0.97009 0.65565 0.0
Co1392 Co 0.53045 0.94585 0.65633 0.0
C1393 C 0.5253 0.9307 0.69403 0.0
O1394 O 0.5407 0.93653 0.70054 0.0
N1395 N 0.5193 0.92836 0.64219 0.0
C1396 C 0.50728 0.90271 0.63259 0.0
C1397 C 0.51487 0.91139 0.64701 0.0
C1398 C 0.51441 0.92962 0.62471 0.0
N1399 N 0.50699 0.91416 0.61853 0.0
O1400 O 0.50909 0.96014 0.65506 0.0
H1401 H 0.51738 0.9054 0.66002 0.0
H1402 H 0.51632 0.94166 0.61671 0.0
O1403 O 0.52107 0.93391 0.67766 0.0
C1404 C 0.51017 0.97391 0.64488 0.0
O1405 O 0.52573 0.97785 0.63743 0.0
N1406 N 0.55162 0.93205 0.65572 0.0
C1407 C 0.58133 0.91141 0.64556 0.0
C1408 C 0.5704 0.90602 0.65997 0.0
C1409 C 0.55551 0.91652 0.66484 0.0
C1410 C 0.56203 0.93726 0.64155 0.0
C1411 C 0.57715 0.92738 0.63647 0.0
H1412 H 0.54671 0.91138 0.67511 0.0
H1413 H 0.55809 0.94884 0.63363 0.0
H1414 H 0.52219 0.96865 0.69148 0.0
H1415 H 0.57136 0.99455 0.68076 0.0
H1416 H 0.50289 0.8888 0.63233 0.0
H1417 H 0.57304 0.89355 0.66708 0.0
H1418 H 0.58495 0.9317 0.62492 0.0
C1419 C 0.27239 0.28418 0.90777 0.0
C1420 C 0.25802 0.28287 0.91933 0.0
N1421 N 0.26391 0.27567 0.93486 0.0
N1422 N 0.28735 0.27761 0.91583 0.0
C1423 C 0.28171 0.27275 0.93248 0.0
H1424 H 0.27179 0.28964 0.89429 0.0
Co1425 Co 0.31066 0.27543 0.90594 0.0
C1426 C 0.32734 0.26211 0.93596 0.0
O1427 O 0.33055 0.27926 0.93893 0.0
N1428 N 0.33376 0.27335 0.89643 0.0
C1429 C 0.36079 0.28031 0.88564 0.0
C1430 C 0.34605 0.28666 0.89492 0.0
C1431 C 0.34153 0.25891 0.88858 0.0
N1432 N 0.3579 0.26284 0.88184 0.0
O1433 O 0.30245 0.25577 0.89089 0.0
H1434 H 0.34413 0.3003 0.89967 0.0
H1435 H 0.33504 0.24596 0.88703 0.0
O1436 O 0.31695 0.25771 0.92309 0.0
C1437 C 0.2902 0.25052 0.88004 0.0
O1438 O 0.27733 0.26157 0.875 0.0
N1439 N 0.30589 0.29344 0.88912 0.0
C1440 C 0.31585 0.3229 0.86805 0.0
C1441 C 0.31224 0.32492 0.88656 0.0
C1442 C 0.30707 0.31004 0.89677 0.0
C1443 C 0.3074 0.29142 0.87092 0.0
C1444 C 0.31173 0.30617 0.86007 0.0
H1445 H 0.3064 0.31128 0.91128 0.0
H1446 H 0.30737 0.27822 0.86488 0.0
H1447 H 0.29032 0.26683 0.94263 0.0
H1448 H 0.24432 0.28706 0.91658 0.0
H1449 H 0.3725 0.28799 0.88157 0.0
H1450 H 0.31517 0.33725 0.89371 0.0
H1451 H 0.31346 0.30392 0.84578 0.0
C1452 C 0.46103 0.55356 0.68207 0.0
C1453 C 0.45756 0.5425 0.69656 0.0
N1454 N 0.47039 0.54534 0.7091 0.0
N1455 N 0.47586 0.56339 0.6856 0.0
C1456 C 0.48135 0.55799 0.70204 0.0
H1457 H 0.45319 0.55449 0.66982 0.0
Co1458 Co 0.48623 0.58066 0.67098 0.0
C1459 C 0.49723 0.60937 0.69631 0.0
O1460 O 0.48918 0.62132 0.68601 0.0
N1461 N 0.49745 0.59794 0.65612 0.0
C1462 C 0.51921 0.6156 0.64541 0.0
C1463 C 0.51434 0.60413 0.659 0.0
C1464 C 0.49271 0.60536 0.64017 0.0
N1465 N 0.50557 0.61636 0.63351 0.0
O1466 O 0.50716 0.56583 0.66833 0.0
H1467 H 0.52288 0.60018 0.67014 0.0
H1468 H 0.48064 0.60201 0.63288 0.0
O1469 O 0.49678 0.59265 0.6921 0.0
C1470 C 0.50459 0.55542 0.65491 0.0
O1471 O 0.48897 0.55626 0.64659 0.0
N1472 N 0.46467 0.59402 0.67223 0.0
C1473 C 0.43157 0.61189 0.66953 0.0
C1474 C 0.4404 0.6102 0.68625 0.0
C1475 C 0.4568 0.60091 0.68737 0.0
C1476 C 0.45518 0.59352 0.65656 0.0
C1477 C 0.43909 0.60294 0.65466 0.0
H1478 H 0.46305 0.59916 0.7004 0.0
H1479 H 0.46009 0.58557 0.64542 0.0
H1480 H 0.49299 0.56347 0.70887 0.0
H1481 H 0.44652 0.53305 0.6977 0.0
H1482 H 0.532 0.62248 0.64426 0.0
H1483 H 0.43467 0.61582 0.69842 0.0
H1484 H 0.43287 0.60329 0.64149 0.0
C1485 C 0.7819 0.19662 0.09084 0.0
C1486 C 0.76943 0.19337 0.07755 0.0
N1487 N 0.77056 0.20663 0.06521 0.0
N1488 N 0.79102 0.2118 0.0869 0.0
C1489 C 0.78386 0.2176 0.07115 0.0
H1490 H 0.78368 0.18879 0.103 0.0
Co1491 Co 0.80704 0.22341 0.10243 0.0
C1492 C 0.8391 0.23196 0.08117 0.0
O1493 O 0.84875 0.22664 0.09504 0.0
N1494 N 0.82278 0.23599 0.11849 0.0
C1495 C 0.83776 0.2596 0.12959 0.0
C1496 C 0.82721 0.25346 0.11574 0.0
C1497 C 0.8308 0.23199 0.13446 0.0
N1498 N 0.8401 0.24608 0.14144 0.0
O1499 O 0.793 0.24483 0.10075 0.0
H1500 H 0.82294 0.26139 0.10429 0.0
H1501 H 0.82989 0.21913 0.14105 0.0
O1502 O 0.82187 0.23111 0.08184 0.0
C1503 C 0.77878 0.24513 0.1103 0.0
O1504 O 0.7739 0.23036 0.11873 0.0
N1505 N 0.81989 0.20159 0.10491 0.0
C1506 C 0.83645 0.16844 0.11098 0.0
C1507 C 0.83665 0.17623 0.09379 0.0
C1508 C 0.82802 0.19273 0.09095 0.0
C1509 C 0.81801 0.19323 0.12114 0.0
C1510 C 0.82672 0.17695 0.12469 0.0
H1511 H 0.82766 0.19816 0.07747 0.0
H1512 H 0.80957 0.19921 0.13139 0.0
H1513 H 0.78758 0.23017 0.06476 0.0
H1514 H 0.75995 0.1823 0.07724 0.0
H1515 H 0.84285 0.27318 0.13098 0.0
H1516 H 0.84354 0.16972 0.0827 0.0
H1517 H 0.82559 0.1709 0.13792 0.0
C1518 C 0.54469 0.0232 0.84363 0.0
C1519 C 0.54516 0.01585 0.82668 0.0
N1520 N 0.54228 0.0291 0.81462 0.0
N1521 N 0.54146 0.04101 0.84238 0.0
C1522 C 0.54022 0.04429 0.82448 0.0
H1523 H 0.54655 0.01599 0.85614 0.0
Co1524 Co 0.53858 0.05551 0.86264 0.0
C1525 C 0.51046 0.07652 0.84281 0.0
O1526 O 0.49716 0.066 0.84785 0.0
N1527 N 0.53561 0.06923 0.88339 0.0
C1528 C 0.54027 0.07929 0.91113 0.0
C1529 C 0.54789 0.07059 0.89668 0.0
C1530 C 0.52058 0.07702 0.89007 0.0
N1531 N 0.52301 0.08325 0.90704 0.0
O1532 O 0.5163 0.04376 0.86773 0.0
H1533 H 0.56128 0.06485 0.89619 0.0
H1534 H 0.50791 0.07741 0.88288 0.0
O1535 O 0.52647 0.07343 0.84816 0.0
C1536 C 0.51497 0.03077 0.87881 0.0
O1537 O 0.52954 0.02442 0.8866 0.0
N1538 N 0.56075 0.0671 0.85799 0.0
C1539 C 0.5941 0.08447 0.85453 0.0
C1540 C 0.57804 0.09436 0.85611 0.0
C1541 C 0.5616 0.08548 0.85772 0.0
C1542 C 0.57611 0.05714 0.85643 0.0
C1543 C 0.5929 0.06554 0.85446 0.0
H1544 H 0.5496 0.09349 0.85965 0.0
H1545 H 0.57543 0.0426 0.85708 0.0
H1546 H 0.53751 0.05744 0.8188 0.0
H1547 H 0.54763 0.00184 0.82347 0.0
H1548 H 0.5467 0.08155 0.92402 0.0
H1549 H 0.5781 0.10891 0.8569 0.0
H1550 H 0.60482 0.05724 0.85317 0.0
C1551 C 0.95426 0.97758 0.33927 0.0
C1552 C 0.95378 0.98161 0.32126 0.0
N1553 N 0.96815 0.97388 0.31334 0.0
N1554 N 0.96871 0.96712 0.34268 0.0
C1555 C 0.9771 0.96526 0.32664 0.0
H1556 H 0.94483 0.98226 0.34931 0.0
Co1557 Co 0.97469 0.95897 0.36538 0.0
C1558 C 0.98499 0.92028 0.36051 0.0
O1559 O 0.97666 0.91571 0.37544 0.0
N1560 N 0.98084 0.9515 0.38886 0.0
C1561 C 0.98171 0.94855 0.41865 0.0
C1562 C 0.97226 0.95547 0.4044 0.0
C1563 C 0.99602 0.94291 0.39425 0.0
N1564 N 0.99668 0.94058 0.41227 0.0
O1565 O 0.99814 0.96935 0.36293 0.0
H1566 H 0.96022 0.96341 0.40573 0.0
H1567 H 0.00651 0.93867 0.38508 0.0
O1568 O 0.98469 0.93667 0.3551 0.0
C1569 C 0.00492 0.98115 0.37335 0.0
O1570 O 0.99517 0.98781 0.38653 0.0
N1571 N 0.95127 0.94896 0.36746 0.0
C1572 C 0.91755 0.93397 0.37379 0.0
C1573 C 0.92916 0.92632 0.36108 0.0
C1574 C 0.94572 0.9344 0.35765 0.0
C1575 C 0.9391 0.95794 0.37792 0.0
C1576 C 0.9222 0.95048 0.3816 0.0
H1577 H 0.95399 0.92881 0.34711 0.0
H1578 H 0.94255 0.9709 0.38355 0.0
H1579 H 0.98957 0.95792 0.32479 0.0
H1580 H 0.944 0.99015 0.31461 0.0
H1581 H 0.97765 0.94925 0.43262 0.0
H1582 H 0.9255 0.91411 0.35397 0.0
H1583 H 0.91317 0.95722 0.39087 0.0
H1584 H 0.05743 0.10594 0.25239 0.0
H1585 H 0.0388 0.16138 0.25281 0.0
H1586 H 0.01312 0.15281 0.23342 0.0
H1587 H 0.04914 0.09821 0.20728 0.0
H1588 H 0.04214 0.07511 0.20984 0.0
H1589 H 0.05735 0.08495 0.22591 0.0
H1590 H 0.03554 0.07661 0.25186 0.0
H1591 H 0.02023 0.06668 0.23582 0.0
H1592 H 0.01243 0.08402 0.25092 0.0
H1593 H 0.99157 0.13897 0.21152 0.0
H1594 H 0.97627 0.12124 0.18798 0.0
H1595 H 0.00921 0.07483 0.20153 0.0
C1596 C 0.0477 0.11621 0.2488 0.0
C1597 C 0.05002 0.13431 0.25422 0.0
C1598 C 0.03723 0.14742 0.24887 0.0
C1599 C 0.02257 0.14266 0.23793 0.0
C1600 C 0.02089 0.12475 0.23252 0.0
C1601 C 0.03309 0.11172 0.2378 0.0
C1602 C 0.02929 0.09383 0.22874 0.0
C1603 C 0.04543 0.08768 0.21726 0.0
C1604 C 0.02406 0.07944 0.24267 0.0
C1605 C 0.01336 0.09897 0.21709 0.0
C1606 C 0.00856 0.11678 0.21968 0.0
C1607 C 0.99504 0.12495 0.20956 0.0
C1608 C 0.98646 0.11476 0.19618 0.0
C1609 C 0.99151 0.09663 0.19296 0.0
C1610 C 0.00486 0.08857 0.20386 0.0
H1611 H 0.15601 0.73212 0.47544 0.0
H1612 H 0.15109 0.75379 0.42132 0.0
H1613 H 0.1294 0.77639 0.4323 0.0
H1614 H 0.10961 0.73826 0.48859 0.0
H1615 H 0.11511 0.74473 0.51134 0.0
H1616 H 0.12979 0.72976 0.49913 0.0
H1617 H 0.15669 0.75135 0.50464 0.0
H1618 H 0.14213 0.76629 0.517 0.0
H1619 H 0.15479 0.77465 0.49806 0.0
H1620 H 0.10834 0.79686 0.44925 0.0
H1621 H 0.09132 0.81504 0.47136 0.0
H1622 H 0.1106 0.78039 0.51438 0.0
C1623 C 0.15039 0.7416 0.46588 0.0
C1624 C 0.15506 0.74097 0.44745 0.0
C1625 C 0.14747 0.75375 0.43543 0.0
C1626 C 0.13515 0.76668 0.44155 0.0
C1627 C 0.13063 0.76675 0.45974 0.0
C1628 C 0.13813 0.75466 0.47176 0.0
C1629 C 0.13149 0.75801 0.49073 0.0
C1630 C 0.12087 0.74172 0.49786 0.0
C1631 C 0.14721 0.76287 0.50334 0.0
C1632 C 0.11924 0.774 0.48752 0.0
C1633 C 0.11877 0.77873 0.46953 0.0
C1634 C 0.10857 0.79327 0.46337 0.0
C1635 C 0.0989 0.80346 0.47601 0.0
C1636 C 0.09963 0.79912 0.49458 0.0
C1637 C 0.10974 0.78403 0.50028 0.0
H1638 H 0.49464 0.91375 0.68283 0.0
H1639 H 0.53109 0.91781 0.72841 0.0
H1640 H 0.51409 0.89367 0.74395 0.0
H1641 H 0.45403 0.90416 0.70757 0.0
H1642 H 0.44592 0.88854 0.69084 0.0
H1643 H 0.46025 0.90696 0.68427 0.0
H1644 H 0.48247 0.88435 0.6696 0.0
H1645 H 0.46833 0.86583 0.6763 0.0
H1646 H 0.49168 0.86628 0.68297 0.0
H1647 H 0.4929 0.8683 0.75411 0.0
H1648 H 0.46961 0.84464 0.75788 0.0
H1649 H 0.44915 0.85662 0.70442 0.0
C1650 C 0.49909 0.9097 0.69612 0.0
C1651 C 0.51429 0.91764 0.70435 0.0
C1652 C 0.51948 0.91194 0.72182 0.0
C1653 C 0.50993 0.8982 0.73072 0.0
C1654 C 0.49533 0.89028 0.72191 0.0
C1655 C 0.48997 0.8959 0.705 0.0
C1656 C 0.47434 0.88492 0.698 0.0
C1657 C 0.45765 0.89686 0.69501 0.0
C1658 C 0.47952 0.87474 0.6807 0.0
C1659 C 0.47167 0.87216 0.71362 0.0
C1660 C 0.48377 0.87547 0.72738 0.0
C1661 C 0.48342 0.86557 0.74337 0.0
C1662 C 0.4702 0.85213 0.74538 0.0
C1663 C 0.45769 0.84865 0.73138 0.0
C1664 C 0.45867 0.85872 0.71528 0.0
H1665 H 0.39681 0.22279 0.00774 0.0
H1666 H 0.40395 0.17709 0.97194 0.0
H1667 H 0.3828 0.1908 0.95027 0.0
H1668 H 0.35074 0.22866 0.00103 0.0
H1669 H 0.35107 0.25294 0.00125 0.0
H1670 H 0.36798 0.24048 0.0134 0.0
H1671 H 0.3933 0.25701 0.99597 0.0
H1672 H 0.37648 0.26984 0.98406 0.0
H1673 H 0.393 0.25706 0.97168 0.0
H1674 H 0.35832 0.20762 0.93428 0.0
H1675 H 0.33576 0.22899 0.92248 0.0
H1676 H 0.34549 0.26443 0.96798 0.0
C1677 C 0.39424 0.21588 0.99515 0.0
C1678 C 0.40202 0.1989 0.99151 0.0
C1679 C 0.39828 0.1902 0.97494 0.0
C1680 C 0.38617 0.1978 0.96261 0.0
C1681 C 0.37817 0.21421 0.96695 0.0
C1682 C 0.38237 0.22337 0.9826 0.0
C1683 C 0.37174 0.24072 0.98411 0.0
C1684 C 0.35967 0.24068 0.00095 0.0
C1685 C 0.38438 0.25713 0.98394 0.0
C1686 C 0.36064 0.23969 0.96704 0.0
C1687 C 0.36444 0.2242 0.95743 0.0
C1688 C 0.35539 0.2199 0.94157 0.0
C1689 C 0.34246 0.23203 0.93508 0.0
C1690 C 0.33889 0.24833 0.94436 0.0
C1691 C 0.34799 0.25208 0.96062 0.0
H1692 H 0.02851 0.87772 0.27215 0.0
H1693 H 0.04229 0.83054 0.30382 0.0
H1694 H 0.02726 0.84415 0.33035 0.0
H1695 H 0.03729 0.90959 0.30649 0.0
H1696 H 0.01919 0.9245 0.30013 0.0
H1697 H 0.02975 0.91045 0.28342 0.0
H1698 H 0.9987 0.89686 0.275 0.0
H1699 H 0.98805 0.91097 0.29161 0.0
H1700 H 0.98494 0.8869 0.29234 0.0
H1701 H 0.01105 0.8634 0.35349 0.0
H1702 H 0.99595 0.88692 0.37161 0.0
H1703 H 0.99437 0.92194 0.32482 0.0
C1704 C 0.02812 0.87008 0.28457 0.0
C1705 C 0.03637 0.85296 0.28589 0.0
C1706 C 0.03593 0.84361 0.30251 0.0
C1707 C 0.02744 0.85124 0.31761 0.0
C1708 C 0.01963 0.86827 0.31588 0.0
C1709 C 0.01997 0.87758 0.29977 0.0
C1710 C 0.01148 0.89604 0.3016 0.0
C1711 C 0.02525 0.91102 0.29768 0.0
C1712 C 0.9948 0.89778 0.28942 0.0
C1713 C 0.00629 0.89573 0.32129 0.0
C1714 C 0.01095 0.87955 0.32927 0.0
C1715 C 0.00735 0.8761 0.34736 0.0
C1716 C 0.99875 0.88953 0.35753 0.0
C1717 C 0.99403 0.90626 0.34963 0.0
C1718 C 0.99792 0.90935 0.33127 0.0
H1719 H 0.32773 0.76263 0.55269 0.0
H1720 H 0.37272 0.73013 0.57096 0.0
H1721 H 0.39347 0.74837 0.55246 0.0
H1722 H 0.3451 0.77207 0.50621 0.0
H1723 H 0.3367 0.79485 0.50672 0.0
H1724 H 0.32508 0.77735 0.5189 0.0
H1725 H 0.32772 0.79617 0.54816 0.0
H1726 H 0.3396 0.81357 0.53621 0.0
H1727 H 0.34964 0.80331 0.5558 0.0
H1728 H 0.40971 0.77225 0.53528 0.0
H1729 H 0.42025 0.79944 0.51937 0.0
H1730 H 0.36479 0.81689 0.51266 0.0
C1731 C 0.34184 0.75894 0.5522 0.0
C1732 C 0.34864 0.74483 0.56299 0.0
C1733 C 0.36727 0.7408 0.56261 0.0
C1734 C 0.37915 0.75108 0.55216 0.0
C1735 C 0.37216 0.76537 0.54222 0.0
C1736 C 0.35392 0.76923 0.542 0.0
C1737 C 0.35015 0.78637 0.53157 0.0
C1738 C 0.33857 0.78242 0.51485 0.0
C1739 C 0.34126 0.80069 0.54366 0.0
C1740 C 0.36913 0.79174 0.52636 0.0
C1741 C 0.38161 0.77937 0.5325 0.0
C1742 C 0.40006 0.7819 0.53014 0.0
C1743 C 0.40592 0.79744 0.52114 0.0
C1744 C 0.39338 0.81027 0.51465 0.0
C1745 C 0.37475 0.80728 0.51731 0.0
H1746 H 0.45135 0.14464 0.78481 0.0
H1747 H 0.50103 0.1659 0.76245 0.0
H1748 H 0.51844 0.14482 0.78158 0.0
H1749 H 0.467 0.13783 0.82979 0.0
H1750 H 0.45458 0.11719 0.83284 0.0
H1751 H 0.44621 0.13424 0.81773 0.0
H1752 H 0.44522 0.11097 0.79174 0.0
H1753 H 0.45352 0.0938 0.80676 0.0
H1754 H 0.46531 0.09855 0.78608 0.0
H1755 H 0.53024 0.12129 0.80327 0.0
H1756 H 0.53562 0.09668 0.82494 0.0
H1757 H 0.47789 0.09035 0.83201 0.0
C1758 C 0.46588 0.14484 0.78375 0.0
C1759 C 0.47481 0.15686 0.77199 0.0
C1760 C 0.49388 0.1568 0.77132 0.0
C1761 C 0.50387 0.14488 0.78214 0.0
C1762 C 0.49456 0.13312 0.79346 0.0
C1763 C 0.47598 0.13299 0.79426 0.0
C1764 C 0.46912 0.11885 0.80723 0.0
C1765 C 0.45861 0.12755 0.82282 0.0
C1766 C 0.45762 0.10471 0.79736 0.0
C1767 C 0.48677 0.11096 0.81365 0.0
C1768 C 0.50129 0.11944 0.80565 0.0
C1769 C 0.51897 0.11455 0.80959 0.0
C1770 C 0.52187 0.10058 0.82197 0.0
C1771 C 0.50716 0.09157 0.83018 0.0
C1772 C 0.48941 0.09692 0.82593 0.0
H1773 H 0.11309 0.15351 0.02044 0.0
H1774 H 0.08595 0.18375 0.97833 0.0
H1775 H 0.09954 0.21183 0.98987 0.0
H1776 H 0.10704 0.1847 0.05487 0.0
H1777 H 0.12872 0.18122 0.06526 0.0
H1778 H 0.11837 0.16332 0.05264 0.0
H1779 H 0.14672 0.16101 0.03241 0.0
H1780 H 0.1572 0.17892 0.04503 0.0
H1781 H 0.15486 0.1808 0.02093 0.0
H1782 H 0.11302 0.23681 0.00805 0.0
H1783 H 0.1265 0.25689 0.03091 0.0
H1784 H 0.14613 0.21041 0.06037 0.0
C1785 C 0.11023 0.16599 0.01345 0.0
C1786 C 0.09844 0.16645 0.9985 0.0
C1787 C 0.09499 0.18307 0.98977 0.0
C1788 C 0.10266 0.19908 0.99621 0.0
C1789 C 0.11398 0.1982 0.01119 0.0
C1790 C 0.11792 0.18206 0.01958 0.0
C1791 C 0.12977 0.18489 0.03597 0.0
C1792 C 0.12041 0.17814 0.0532 0.0
C1793 C 0.14823 0.17587 0.03342 0.0
C1794 C 0.13139 0.20522 0.03585 0.0
C1795 C 0.12224 0.21262 0.02138 0.0
C1796 C 0.12052 0.23117 0.01922 0.0
C1797 C 0.12815 0.24246 0.03228 0.0
C1798 C 0.1375 0.23516 0.04722 0.0
C1799 C 0.13942 0.21632 0.04883 0.0
H1800 H 0.26886 0.03309 0.12191 0.0
H1801 H 0.23803 0.03139 0.17155 0.0
H1802 H 0.21921 0.00707 0.1589 0.0
H1803 H 0.23324 0.02845 0.09285 0.0
H1804 H 0.24459 0.01436 0.07665 0.0
H1805 H 0.25738 0.02961 0.09044 0.0
H1806 H 0.27704 0.00315 0.10193 0.0
H1807 H 0.2644 0.98779 0.088 0.0
H1808 H 0.26637 0.98373 0.11187 0.0
H1809 H 0.20093 0.98675 0.13929 0.0
H1810 H 0.18586 0.96999 0.11496 0.0
H1811 H 0.22912 0.98385 0.07831 0.0
C1812 C 0.25845 0.0273 0.13031 0.0
C1813 C 0.2549 0.03416 0.14772 0.0
C1814 C 0.24105 0.02631 0.15822 0.0
C1815 C 0.23029 0.01249 0.15114 0.0
C1816 C 0.23374 0.0065 0.13368 0.0
C1817 C 0.24768 0.01344 0.1235 0.0
C1818 C 0.24778 0.00555 0.10466 0.0
C1819 C 0.24561 0.02038 0.09031 0.0
C1820 C 0.26492 0.99439 0.10143 0.0
C1821 C 0.23127 0.99363 0.10559 0.0
C1822 C 0.22344 0.99431 0.12248 0.0
C1823 C 0.20716 0.98578 0.12615 0.0
C1824 C 0.19862 0.97639 0.11219 0.0
C1825 C 0.2064 0.97548 0.09481 0.0
C1826 C 0.22308 0.98399 0.09158 0.0
H1827 H 0.20001 0.96699 0.41246 0.0
H1828 H 0.22105 0.01368 0.38416 0.0
H1829 H 0.23898 0.99378 0.36464 0.0
H1830 H 0.24169 0.94012 0.41043 0.0
H1831 H 0.2297 0.91928 0.40705 0.0
H1832 H 0.21944 0.93726 0.41973 0.0
H1833 H 0.19183 0.93657 0.39837 0.0
H1834 H 0.20202 0.91868 0.38557 0.0
H1835 H 0.19518 0.93916 0.37445 0.0
H1836 H 0.25257 0.96903 0.34654 0.0
H1837 H 0.26226 0.94075 0.332 0.0
H1838 H 0.23316 0.91002 0.3723 0.0
C1839 C 0.2086 0.97303 0.40234 0.0
C1840 C 0.20912 0.9919 0.39985 0.0
C1841 C 0.22043 0.99927 0.38636 0.0
C1842 C 0.23069 0.98809 0.37519 0.0
C1843 C 0.22962 0.96956 0.37776 0.0
C1844 C 0.21902 0.96205 0.3911 0.0
C1845 C 0.21985 0.94167 0.39056 0.0
C1846 C 0.22817 0.93414 0.40798 0.0
C1847 C 0.20111 0.93355 0.38702 0.0
C1848 C 0.23228 0.93893 0.37462 0.0
C1849 C 0.23776 0.95521 0.36745 0.0
C1850 C 0.24854 0.95619 0.35213 0.0
C1851 C 0.25386 0.94007 0.34389 0.0
C1852 C 0.24846 0.92325 0.35105 0.0
C1853 C 0.23767 0.92271 0.36669 0.0
H1854 H 0.29141 0.018 0.56386 0.0
H1855 H 0.33026 0.02939 0.60593 0.0
H1856 H 0.31352 0.00967 0.62688 0.0
H1857 H 0.25081 0.01239 0.59301 0.0
H1858 H 0.24258 0.99367 0.57991 0.0
H1859 H 0.25558 0.01117 0.56922 0.0
H1860 H 0.27802 0.9873 0.55738 0.0
H1861 H 0.26524 0.96972 0.56807 0.0
H1862 H 0.28886 0.97226 0.57309 0.0
H1863 H 0.29447 0.98713 0.64229 0.0
H1864 H 0.27569 0.9612 0.65078 0.0
H1865 H 0.25024 0.96237 0.59807 0.0
C1866 C 0.29595 0.01673 0.57768 0.0
C1867 C 0.31176 0.02543 0.58358 0.0
C1868 C 0.31794 0.02298 0.60141 0.0
C1869 C 0.30852 0.01188 0.61336 0.0
C1870 C 0.29312 0.00315 0.60712 0.0
C1871 C 0.28693 0.00531 0.58967 0.0
C1872 C 0.27147 0.99256 0.58572 0.0
C1873 C 0.25407 0.00308 0.58174 0.0
C1874 C 0.27619 0.9797 0.57015 0.0
C1875 C 0.27026 0.98264 0.60353 0.0
C1876 C 0.28262 0.98928 0.61578 0.0
C1877 C 0.28462 0.9819 0.63289 0.0
C1878 C 0.2739 0.96713 0.63757 0.0
C1879 C 0.26152 0.9597 0.62507 0.0
C1880 C 0.25953 0.96777 0.60793 0.0
H1881 H 0.26347 0.02957 0.81584 0.0
H1882 H 0.2314 0.05855 0.85499 0.0
H1883 H 0.24843 0.04399 0.87977 0.0
H1884 H 0.27028 0.98758 0.84221 0.0
H1885 H 0.29325 0.98523 0.8347 0.0
H1886 H 0.27679 0.99582 0.82031 0.0
H1887 H 0.29712 0.02409 0.81794 0.0
H1888 H 0.31355 0.01368 0.83241 0.0
H1889 H 0.30427 0.03536 0.83824 0.0
H1890 H 0.27038 0.02795 0.90007 0.0
H1891 H 0.29635 0.01283 0.91439 0.0
H1892 H 0.31519 0.9956 0.86178 0.0
C1893 C 0.25971 0.03235 0.82966 0.0
C1894 C 0.246 0.04487 0.83367 0.0
C1895 C 0.24181 0.04884 0.8518 0.0
C1896 C 0.25136 0.0406 0.8659 0.0
C1897 C 0.26515 0.02859 0.86156 0.0
C1898 C 0.26935 0.0245 0.84387 0.0
C1899 C 0.28592 0.01263 0.84277 0.0
C1900 C 0.28128 0.99422 0.83451 0.0
C1901 C 0.30111 0.02201 0.83222 0.0
C1902 C 0.29057 0.01092 0.86257 0.0
C1903 C 0.27827 0.01998 0.8732 0.0
C1904 C 0.28003 0.0207 0.89188 0.0
C1905 C 0.29483 0.01207 0.8999 0.0
C1906 C 0.30782 0.00304 0.88922 0.0
C1907 C 0.3055 0.00238 0.87032 0.0
H1908 H 0.61726 0.33129 0.98234 0.0
H1909 H 0.57488 0.29853 0.00574 0.0
H1910 H 0.58635 0.27203 0.98938 0.0
H1911 H 0.61754 0.3098 0.93845 0.0
H1912 H 0.64165 0.31126 0.93601 0.0
H1913 H 0.62977 0.32784 0.94915 0.0
H1914 H 0.65024 0.32083 0.97655 0.0
H1915 H 0.66214 0.30417 0.96352 0.0
H1916 H 0.65192 0.29799 0.98465 0.0
H1917 H 0.60297 0.24898 0.9716 0.0
H1918 H 0.62298 0.23073 0.95257 0.0
H1919 H 0.6548 0.27826 0.94024 0.0
C1920 C 0.61033 0.31856 0.98396 0.0
C1921 C 0.59502 0.31704 0.99522 0.0
C1922 C 0.58638 0.30014 0.99698 0.0
C1923 C 0.59289 0.28497 0.98782 0.0
C1924 C 0.60804 0.28693 0.97693 0.0
C1925 C 0.61662 0.30329 0.97487 0.0
C1926 C 0.63276 0.30166 0.96244 0.0
C1927 C 0.63027 0.31333 0.94551 0.0
C1928 C 0.6503 0.30644 0.97239 0.0
C1929 C 0.63198 0.28176 0.95794 0.0
C1930 C 0.61762 0.27357 0.9665 0.0
C1931 C 0.61421 0.25524 0.96476 0.0
C1932 C 0.62572 0.24499 0.95393 0.0
C1933 C 0.64048 0.25305 0.94488 0.0
C1934 C 0.64361 0.27172 0.94693 0.0
H1935 H 0.98805 0.41588 0.19669 0.0
H1936 H 0.03583 0.38599 0.21241 0.0
H1937 H 0.01704 0.36525 0.23024 0.0
H1938 H 0.96473 0.41128 0.24017 0.0
H1939 H 0.94291 0.40921 0.22969 0.0
H1940 H 0.96033 0.42223 0.21893 0.0
H1941 H 0.95677 0.40292 0.19007 0.0
H1942 H 0.93954 0.38967 0.2008 0.0
H1943 H 0.95915 0.37879 0.1915 0.0
H1944 H 0.99277 0.34597 0.24392 0.0
H1945 H 0.96494 0.33192 0.25577 0.0
H1946 H 0.9333 0.37521 0.23245 0.0
C1947 C 0.99458 0.40516 0.20413 0.0
C1948 C 0.0134 0.40255 0.20313 0.0
C1949 C 0.02144 0.38833 0.21303 0.0
C1950 C 0.01088 0.3764 0.22313 0.0
C1951 C 0.99232 0.37903 0.22342 0.0
C1952 C 0.98426 0.39325 0.21448 0.0
C1953 C 0.96403 0.39302 0.21694 0.0
C1954 C 0.95763 0.40994 0.22704 0.0
C1955 C 0.9543 0.39097 0.19874 0.0
C1956 C 0.96196 0.37627 0.2284 0.0
C1957 C 0.97842 0.3683 0.23187 0.0
C1958 C 0.97981 0.35222 0.24151 0.0
C1959 C 0.96397 0.34427 0.24806 0.0
C1960 C 0.94705 0.35257 0.24511 0.0
C1961 C 0.9461 0.3687 0.23508 0.0
H1962 H 0.87914 0.71989 0.49628 0.0
H1963 H 0.90415 0.69101 0.45202 0.0
H1964 H 0.88515 0.70796 0.43044 0.0
H1965 H 0.83511 0.71981 0.47901 0.0
H1966 H 0.8295 0.74203 0.48702 0.0
H1967 H 0.84599 0.72871 0.49881 0.0
H1968 H 0.8695 0.75429 0.49543 0.0
H1969 H 0.85301 0.76781 0.48382 0.0
H1970 H 0.87441 0.76314 0.47335 0.0
H1971 H 0.8619 0.7267 0.41402 0.0
H1972 H 0.83765 0.74693 0.40375 0.0
H1973 H 0.82797 0.76341 0.45905 0.0
C1974 C 0.88085 0.71727 0.48203 0.0
C1975 C 0.89316 0.70414 0.47581 0.0
C1976 C 0.89489 0.70109 0.45707 0.0
C1977 C 0.88411 0.7106 0.44474 0.0
C1978 C 0.87177 0.72313 0.45141 0.0
C1979 C 0.87024 0.72659 0.46962 0.0
C1980 C 0.85563 0.74032 0.47343 0.0
C1981 C 0.84067 0.73223 0.48526 0.0
C1982 C 0.86362 0.75741 0.48201 0.0
C1983 C 0.84898 0.74392 0.45452 0.0
C1984 C 0.85847 0.7339 0.442 0.0
C1985 C 0.8545 0.73472 0.4237 0.0
C1986 C 0.84066 0.74625 0.41801 0.0
C1987 C 0.83093 0.75687 0.43059 0.0
C1988 C 0.83513 0.75552 0.44909 0.0
H1989 H 0.97311 0.59111 0.29142 0.0
H1990 H 0.01431 0.63226 0.29629 0.0
H1991 H 0.99795 0.6513 0.27444 0.0
H1992 H 0.96628 0.59693 0.2432 0.0
H1993 H 0.94238 0.59283 0.24441 0.0
H1994 H 0.95731 0.58245 0.2605 0.0
H1995 H 0.9389 0.59637 0.2867 0.0
H1996 H 0.9239 0.60676 0.2707 0.0
H1997 H 0.93527 0.62038 0.28728 0.0
H1998 H 0.97598 0.66676 0.25389 0.0
H1999 H 0.95093 0.67657 0.23411 0.0
H2000 H 0.92549 0.62439 0.24062 0.0
C2001 C 0.97864 0.60413 0.28786 0.0
C2002 C 0.99488 0.61031 0.29557 0.0
C2003 C 0.00188 0.6273 0.29047 0.0
C2004 C 0.99268 0.63821 0.27811 0.0
C2005 C 0.97669 0.63177 0.27074 0.0
C2006 C 0.96983 0.61504 0.27524 0.0
C2007 C 0.95254 0.61121 0.26513 0.0
C2008 C 0.95477 0.59489 0.25256 0.0
C2009 C 0.93672 0.60853 0.27824 0.0
C2010 C 0.95059 0.62853 0.25453 0.0
C2011 C 0.96459 0.64028 0.25806 0.0
C2012 C 0.9651 0.65758 0.25076 0.0
C2013 C 0.95085 0.66304 0.23959 0.0
C2014 C 0.93655 0.65111 0.23564 0.0
C2015 C 0.93653 0.6336 0.24307 0.0
H2016 H 0.48594 0.42176 0.78883 0.0
H2017 H 0.4984 0.40817 0.84435 0.0
H2018 H 0.52035 0.38558 0.83395 0.0
H2019 H 0.4906 0.37643 0.7703 0.0
H2020 H 0.50093 0.38433 0.74981 0.0
H2021 H 0.48511 0.39844 0.76162 0.0
H2022 H 0.50892 0.42395 0.7632 0.0
H2023 H 0.52477 0.40994 0.75138 0.0
H2024 H 0.53068 0.41934 0.77298 0.0
H2025 H 0.54215 0.36547 0.8175 0.0
H2026 H 0.56273 0.35024 0.79615 0.0
H2027 H 0.53626 0.37745 0.75163 0.0
C2028 C 0.49313 0.41391 0.79881 0.0
C2029 C 0.49021 0.41658 0.81741 0.0
C2030 C 0.5001 0.40616 0.83003 0.0
C2031 C 0.51266 0.39331 0.82426 0.0
C2032 C 0.51523 0.39104 0.80583 0.0
C2033 C 0.50576 0.40107 0.7933 0.0
C2034 C 0.51171 0.39671 0.77431 0.0
C2035 C 0.49616 0.38849 0.76337 0.0
C2036 C 0.51949 0.41348 0.76493 0.0
C2037 C 0.5262 0.3829 0.77816 0.0
C2038 C 0.52793 0.37966 0.79639 0.0
C2039 C 0.54085 0.3678 0.80317 0.0
C2040 C 0.55246 0.35921 0.79096 0.0
C2041 C 0.5511 0.36266 0.77225 0.0
C2042 C 0.53763 0.37448 0.76585 0.0
H2043 H 0.49398 0.64073 0.71519 0.0
H2044 H 0.52685 0.59264 0.71045 0.0
H2045 H 0.54881 0.60558 0.73192 0.0
H2046 H 0.52845 0.67186 0.71633 0.0
H2047 H 0.51839 0.68659 0.7328 0.0
H2048 H 0.5043 0.67282 0.7187 0.0
H2049 H 0.48933 0.6588 0.74692 0.0
H2050 H 0.50327 0.67269 0.76115 0.0
H2051 H 0.50323 0.64857 0.76403 0.0
H2052 H 0.56938 0.62582 0.74954 0.0
H2053 H 0.5853 0.65035 0.76559 0.0
H2054 H 0.5379 0.68415 0.76125 0.0
C2055 C 0.5056 0.63277 0.71901 0.0
C2056 C 0.50877 0.61571 0.71119 0.0
C2057 C 0.52412 0.60568 0.71642 0.0
C2058 C 0.53668 0.61294 0.72854 0.0
C2059 C 0.53343 0.63005 0.73559 0.0
C2060 C 0.51805 0.63966 0.73135 0.0
C2061 C 0.51805 0.65802 0.74029 0.0
C2062 C 0.51726 0.67321 0.72619 0.0
C2063 C 0.50255 0.6596 0.75391 0.0
C2064 C 0.53614 0.65751 0.74968 0.0
C2065 C 0.54485 0.64129 0.74672 0.0
C2066 C 0.56251 0.63836 0.7524 0.0
C2067 C 0.57146 0.65234 0.7614 0.0
C2068 C 0.56261 0.66885 0.76489 0.0
C2069 C 0.5447 0.6714 0.75915 0.0
H2070 H 0.87229 0.247 0.08004 0.0
H2071 H 0.82719 0.23215 0.046 0.0
H2072 H 0.84428 0.24238 0.01911 0.0
H2073 H 0.88307 0.2874 0.05654 0.0
H2074 H 0.90696 0.28506 0.06012 0.0
H2075 H 0.89138 0.27564 0.0761 0.0
H2076 H 0.90645 0.24433 0.07215 0.0
H2077 H 0.92192 0.25364 0.05595 0.0
H2078 H 0.9081 0.23459 0.04996 0.0
H2079 H 0.86693 0.25442 0.99597 0.0
H2080 H 0.89102 0.27055 0.9794 0.0
H2081 H 0.92019 0.27816 0.02945 0.0
C2082 C 0.86603 0.24576 0.06692 0.0
C2083 C 0.84853 0.23863 0.06501 0.0
C2084 C 0.84062 0.23758 0.04768 0.0
C2085 C 0.85027 0.24324 0.03237 0.0
C2086 C 0.86766 0.25004 0.03474 0.0
C2087 C 0.8753 0.25155 0.05166 0.0
C2088 C 0.89363 0.26035 0.05092 0.0
C2089 C 0.89375 0.27817 0.06154 0.0
C2090 C 0.90839 0.24745 0.05764 0.0
C2091 C 0.89521 0.26361 0.03091 0.0
C2092 C 0.88027 0.25738 0.0217 0.0
C2093 C 0.8787 0.25931 0.00307 0.0
C2094 C 0.89249 0.26835 0.99375 0.0
C2095 C 0.90746 0.27552 0.00317 0.0
C2096 C 0.90893 0.27274 0.0219 0.0
H2097 H 0.57416 0.71283 0.51135 0.0
H2098 H 0.61246 0.68158 0.4804 0.0
H2099 H 0.63765 0.69549 0.49741 0.0
H2100 H 0.60159 0.75368 0.51714 0.0
H2101 H 0.59416 0.75707 0.54 0.0
H2102 H 0.57949 0.74627 0.52395 0.0
H2103 H 0.57641 0.71881 0.54529 0.0
H2104 H 0.59113 0.72945 0.56134 0.0
H2105 H 0.59641 0.70731 0.5529 0.0
H2106 H 0.65844 0.71215 0.51853 0.0
H2107 H 0.67323 0.72862 0.54345 0.0
H2108 H 0.621 0.74724 0.56198 0.0
C2109 C 0.58791 0.70931 0.50794 0.0
C2110 C 0.5916 0.69655 0.49441 0.0
C2111 C 0.60958 0.69162 0.4906 0.0
C2112 C 0.62389 0.69944 0.50016 0.0
C2113 C 0.61987 0.71191 0.51363 0.0
C2114 C 0.6023 0.71672 0.51761 0.0
C2115 C 0.60151 0.7292 0.53371 0.0
C2116 C 0.59373 0.74765 0.52838 0.0
C2117 C 0.59073 0.72068 0.54922 0.0
C2118 C 0.62134 0.73055 0.53829 0.0
C2119 C 0.63174 0.72071 0.52638 0.0
C2120 C 0.65044 0.71991 0.52793 0.0
C2121 C 0.65871 0.72931 0.5421 0.0
C2122 C 0.64825 0.73911 0.55468 0.0
C2123 C 0.62934 0.73976 0.55264 0.0
H2124 H 0.72004 0.51073 0.58293 0.0
H2125 H 0.67429 0.50357 0.61854 0.0
H2126 H 0.68962 0.52137 0.64194 0.0
H2127 H 0.75508 0.50944 0.61667 0.0
H2128 H 0.76819 0.527 0.60623 0.0
H2129 H 0.7541 0.51267 0.59262 0.0
H2130 H 0.73773 0.54071 0.57969 0.0
H2131 H 0.75188 0.5551 0.59313 0.0
H2132 H 0.72772 0.55674 0.59494 0.0
H2133 H 0.71027 0.53966 0.66175 0.0
H2134 H 0.73285 0.56048 0.67479 0.0
H2135 H 0.76397 0.55741 0.62544 0.0
C2136 C 0.71329 0.5128 0.59569 0.0
C2137 C 0.69607 0.50543 0.59901 0.0
C2138 C 0.68754 0.50882 0.61574 0.0
C2139 C 0.69618 0.5189 0.62916 0.0
C2140 C 0.71324 0.52576 0.62554 0.0
C2141 C 0.72157 0.52312 0.6091 0.0
C2142 C 0.73937 0.53299 0.60816 0.0
C2143 C 0.75511 0.51973 0.60578 0.0
C2144 C 0.73915 0.54723 0.59309 0.0
C2145 C 0.73971 0.54164 0.62661 0.0
C2146 C 0.72468 0.53705 0.63657 0.0
C2147 C 0.72208 0.54339 0.65406 0.0
C2148 C 0.73499 0.5551 0.66139 0.0
C2149 C 0.75006 0.56052 0.65107 0.0
C2150 C 0.75251 0.5535 0.63359 0.0
H2151 H 0.72855 0.42623 0.86703 0.0
H2152 H 0.7693 0.45866 0.84059 0.0
H2153 H 0.75741 0.48587 0.85583 0.0
H2154 H 0.69323 0.45652 0.86355 0.0
H2155 H 0.68362 0.45165 0.88531 0.0
H2156 H 0.69646 0.4347 0.87373 0.0
H2157 H 0.7176 0.43166 0.90138 0.0
H2158 H 0.70478 0.44864 0.91308 0.0
H2159 H 0.72873 0.45137 0.91017 0.0
H2160 H 0.73829 0.50981 0.87051 0.0
H2161 H 0.71473 0.52838 0.8851 0.0
H2162 H 0.68803 0.47993 0.90369 0.0
C2163 C 0.73513 0.43902 0.86465 0.0
C2164 C 0.74977 0.44043 0.85261 0.0
C2165 C 0.7581 0.45734 0.84985 0.0
C2166 C 0.75145 0.47283 0.85844 0.0
C2167 C 0.73675 0.47103 0.87001 0.0
C2168 C 0.72889 0.45449 0.87334 0.0
C2169 C 0.7128 0.45621 0.88574 0.0
C2170 C 0.69551 0.44937 0.87652 0.0
C2171 C 0.71619 0.44639 0.90365 0.0
C2172 C 0.71239 0.4764 0.88835 0.0
C2173 C 0.72632 0.48473 0.8792 0.0
C2174 C 0.72761 0.50343 0.8781 0.0
C2175 C 0.71418 0.51385 0.88636 0.0
C2176 C 0.69985 0.50553 0.89576 0.0
C2177 C 0.69918 0.4866 0.89706 0.0
H2178 H 0.77989 0.43633 0.15808 0.0
H2179 H 0.73165 0.44367 0.12615 0.0
H2180 H 0.74746 0.46626 0.10731 0.0
H2181 H 0.79855 0.48302 0.15434 0.0
H2182 H 0.82125 0.47472 0.15191 0.0
H2183 H 0.80513 0.46228 0.16515 0.0
H2184 H 0.81105 0.43385 0.14575 0.0
H2185 H 0.82715 0.44615 0.13254 0.0
H2186 H 0.80844 0.43516 0.12164 0.0
H2187 H 0.76939 0.486 0.09039 0.0
H2188 H 0.79625 0.49766 0.07439 0.0
H2189 H 0.83066 0.47486 0.1157 0.0
C2190 C 0.77257 0.44321 0.14749 0.0
C2191 C 0.75453 0.43876 0.14372 0.0
C2192 C 0.74544 0.44726 0.12931 0.0
C2193 C 0.75428 0.46013 0.11865 0.0
C2194 C 0.77226 0.46406 0.12245 0.0
C2195 C 0.78136 0.45567 0.13642 0.0
C2196 C 0.80127 0.46001 0.13599 0.0
C2197 C 0.80687 0.47064 0.15285 0.0
C2198 C 0.81263 0.44277 0.13384 0.0
C2199 C 0.80207 0.47168 0.1193 0.0
C2200 C 0.78515 0.47438 0.112 0.0
C2201 C 0.78269 0.48412 0.09609 0.0
C2202 C 0.79798 0.49075 0.08712 0.0
C2203 C 0.81542 0.48712 0.09387 0.0
C2204 C 0.81741 0.47787 0.11035 0.0
H2205 H 0.76954 0.49958 0.37449 0.0
H2206 H 0.79905 0.54303 0.40017 0.0
H2207 H 0.78234 0.56516 0.38159 0.0
H2208 H 0.76984 0.5173 0.33094 0.0
H2209 H 0.74749 0.50978 0.32515 0.0
H2210 H 0.7605 0.49757 0.34157 0.0
H2211 H 0.73489 0.50125 0.365 0.0
H2212 H 0.72167 0.51329 0.34857 0.0
H2213 H 0.72645 0.52345 0.3701 0.0
H2214 H 0.76433 0.58215 0.35807 0.0
H2215 H 0.74506 0.59288 0.33322 0.0
H2216 H 0.72708 0.53807 0.32352 0.0
C2217 C 0.77231 0.51376 0.37646 0.0
C2218 C 0.78558 0.5196 0.3888 0.0
C2219 C 0.78884 0.53828 0.39089 0.0
C2220 C 0.77946 0.55092 0.38035 0.0
C2221 C 0.76681 0.54463 0.36794 0.0
C2222 C 0.76308 0.52649 0.36614 0.0
C2223 C 0.74935 0.5231 0.35144 0.0
C2224 C 0.75728 0.51124 0.33639 0.0
C2225 C 0.73206 0.51479 0.35925 0.0
C2226 C 0.74615 0.54214 0.34497 0.0
C2227 C 0.75631 0.55438 0.35465 0.0
C2228 C 0.7561 0.5727 0.35061 0.0
C2229 C 0.74507 0.57867 0.33646 0.0
C2230 C 0.73431 0.56637 0.32654 0.0
C2231 C 0.73499 0.54786 0.33089 0.0
H2232 H 0.11564 0.21392 0.14868 0.0
H2233 H 0.15772 0.25224 0.16199 0.0
H2234 H 0.15334 0.24576 0.19431 0.0
H2235 H 0.08634 0.22415 0.18623 0.0
H2236 H 0.07958 0.20106 0.18947 0.0
H2237 H 0.08586 0.20886 0.16736 0.0
H2238 H 0.10985 0.18358 0.16514 0.0
H2239 H 0.10359 0.17566 0.18719 0.0
H2240 H 0.12668 0.18154 0.18254 0.0
H2241 H 0.14457 0.23495 0.22506 0.0
H2242 H 0.13298 0.21967 0.25214 0.0
H2243 H 0.09629 0.18852 0.21888 0.0
C2244 C 0.12381 0.22109 0.15838 0.0
C2245 C 0.13701 0.23363 0.15278 0.0
C2246 C 0.14767 0.24245 0.16593 0.0
C2247 C 0.14518 0.23896 0.18432 0.0
C2248 C 0.13198 0.22659 0.18936 0.0
C2249 C 0.12153 0.21773 0.17678 0.0
C2250 C 0.1086 0.20471 0.18573 0.0
C2251 C 0.08893 0.21002 0.18197 0.0
C2252 C 0.11242 0.18522 0.1798 0.0
C2253 C 0.11346 0.20761 0.20533 0.0
C2254 C 0.12693 0.22034 0.20711 0.0
C2255 C 0.13398 0.22501 0.22384 0.0
C2256 C 0.12729 0.21624 0.23915 0.0
C2257 C 0.11369 0.20294 0.23764 0.0
C2258 C 0.10655 0.19876 0.22049 0.0
H2259 H 0.00316 0.9433 0.44818 0.0
H2260 H 0.01936 0.9144 0.39998 0.0
H2261 H 0.03843 0.89447 0.41849 0.0
H2262 H 0.04567 0.93816 0.47382 0.0
H2263 H 0.03372 0.93492 0.49469 0.0
H2264 H 0.02419 0.94895 0.4773 0.0
H2265 H 0.9951 0.92963 0.47773 0.0
H2266 H 0.00456 0.91547 0.49495 0.0
H2267 H 0.99668 0.90566 0.47417 0.0
H2268 H 0.05304 0.87556 0.44272 0.0
H2269 H 0.06136 0.85911 0.47049 0.0
H2270 H 0.03348 0.89929 0.50252 0.0
C2271 C 0.01084 0.93295 0.4414 0.0
C2272 C 0.00968 0.93047 0.42258 0.0
C2273 C 0.02018 0.91681 0.41433 0.0
C2274 C 0.03103 0.90535 0.42475 0.0
C2275 C 0.03125 0.90777 0.44337 0.0
C2276 C 0.02147 0.9213 0.45159 0.0
C2277 C 0.02244 0.92 0.47188 0.0
C2278 C 0.03209 0.93649 0.47989 0.0
C2279 C 0.00358 0.91754 0.48016 0.0
C2280 C 0.03371 0.90319 0.47384 0.0
C2281 C 0.03903 0.89653 0.45729 0.0
C2282 C 0.04908 0.88075 0.45576 0.0
C2283 C 0.05369 0.87149 0.47157 0.0
C2284 C 0.04793 0.87789 0.4886 0.0
C2285 C 0.03797 0.89402 0.48968 0.0
H2286 H 0.34635 0.7897 0.6444 0.0
H2287 H 0.34456 0.73154 0.65125 0.0
H2288 H 0.36482 0.73403 0.6772 0.0
H2289 H 0.39403 0.79455 0.65586 0.0
H2290 H 0.39067 0.81565 0.66739 0.0
H2291 H 0.37612 0.80944 0.64896 0.0
H2292 H 0.34817 0.81338 0.6695 0.0
H2293 H 0.36261 0.81976 0.6879 0.0
H2294 H 0.34707 0.8013 0.69053 0.0
H2295 H 0.38318 0.74286 0.70394 0.0
H2296 H 0.39864 0.75775 0.72945 0.0
H2297 H 0.39144 0.8096 0.70364 0.0
C2298 C 0.35034 0.77742 0.65114 0.0
C2299 C 0.34356 0.76044 0.64566 0.0
C2300 C 0.34908 0.7448 0.65521 0.0
C2301 C 0.36083 0.74602 0.66993 0.0
C2302 C 0.36724 0.76293 0.67486 0.0
C2303 C 0.36228 0.77835 0.66573 0.0
C2304 C 0.3708 0.79493 0.67409 0.0
C2305 C 0.38367 0.80419 0.66078 0.0
C2306 C 0.3563 0.80811 0.68091 0.0
C2307 C 0.38105 0.78641 0.68957 0.0
C2308 C 0.37878 0.76792 0.68976 0.0
C2309 C 0.38543 0.75726 0.70372 0.0
C2310 C 0.39423 0.76578 0.71808 0.0
C2311 C 0.3966 0.78467 0.71817 0.0
C2312 C 0.39033 0.79505 0.70354 0.0
H2313 H 0.48927 0.13505 0.99436 0.0
H2314 H 0.43456 0.12095 0.97922 0.0
H2315 H 0.44614 0.1052 0.95225 0.0
H2316 H 0.50499 0.14394 0.94973 0.0
H2317 H 0.52713 0.13479 0.95372 0.0
H2318 H 0.51453 0.14443 0.97206 0.0
H2319 H 0.51769 0.11465 0.99004 0.0
H2320 H 0.53036 0.10495 0.97178 0.0
H2321 H 0.51041 0.09379 0.97994 0.0
H2322 H 0.46399 0.09092 0.92675 0.0
H2323 H 0.48646 0.07928 0.90521 0.0
H2324 H 0.52915 0.104 0.93664 0.0
C2325 C 0.4797 0.12852 0.98548 0.0
C2326 C 0.46101 0.12917 0.98896 0.0
C2327 C 0.44895 0.12063 0.97685 0.0
C2328 C 0.4554 0.11165 0.96149 0.0
C2329 C 0.47392 0.11143 0.95837 0.0
C2330 C 0.48588 0.11966 0.97004 0.0
C2331 C 0.5051 0.11779 0.96351 0.0
C2332 C 0.51342 0.13634 0.95952 0.0
C2333 C 0.51656 0.10716 0.97713 0.0
C2334 C 0.50213 0.10714 0.94638 0.0
C2335 C 0.48408 0.10357 0.94362 0.0
C2336 C 0.47816 0.09374 0.92874 0.0
C2337 C 0.49105 0.08728 0.91648 0.0
C2338 C 0.50967 0.0907 0.91911 0.0
C2339 C 0.51511 0.10093 0.93425 0.0
H2340 H 0.12508 0.76679 0.35994 0.0
H2341 H 0.15787 0.72598 0.33412 0.0
H2342 H 0.14874 0.73764 0.30421 0.0
H2343 H 0.08864 0.76579 0.32965 0.0
H2344 H 0.08461 0.78974 0.32996 0.0
H2345 H 0.09458 0.77889 0.34923 0.0
H2346 H 0.12179 0.80068 0.34765 0.0
H2347 H 0.11186 0.81168 0.3284 0.0
H2348 H 0.13435 0.80263 0.32696 0.0
H2349 H 0.13355 0.75183 0.27733 0.0
H2350 H 0.11564 0.7692 0.25528 0.0
H2351 H 0.09401 0.80194 0.29858 0.0
C2352 C 0.13043 0.76042 0.34797 0.0
C2353 C 0.14212 0.74544 0.34928 0.0
C2354 C 0.14902 0.73755 0.33336 0.0
C2355 C 0.14384 0.74403 0.31635 0.0
C2356 C 0.13202 0.75863 0.31553 0.0
C2357 C 0.12563 0.76691 0.33092 0.0
C2358 C 0.11295 0.78227 0.32635 0.0
C2359 C 0.09408 0.77896 0.33427 0.0
C2360 C 0.12071 0.80039 0.33272 0.0
C2361 C 0.11279 0.78102 0.30599 0.0
C2362 C 0.12384 0.76726 0.30002 0.0
C2363 C 0.12507 0.76281 0.28183 0.0
C2364 C 0.11478 0.77269 0.26942 0.0
C2365 C 0.10353 0.78698 0.27521 0.0
C2366 C 0.10269 0.79126 0.29374 0.0
H2367 H 0.45225 0.86003 0.54395 0.0
H2368 H 0.48149 0.891 0.50387 0.0
H2369 H 0.49762 0.90707 0.52801 0.0
H2370 H 0.44658 0.89597 0.57541 0.0
H2371 H 0.44964 0.88205 0.59507 0.0
H2372 H 0.44072 0.87242 0.57466 0.0
H2373 H 0.46608 0.84841 0.57469 0.0
H2374 H 0.47499 0.85788 0.59518 0.0
H2375 H 0.48928 0.85555 0.57569 0.0
H2376 H 0.50999 0.92052 0.55641 0.0
H2377 H 0.51896 0.92906 0.58731 0.0
H2378 H 0.4815 0.88972 0.60887 0.0
C2379 C 0.46221 0.87003 0.54026 0.0
C2380 C 0.46563 0.87422 0.52202 0.0
C2381 C 0.47863 0.88754 0.51775 0.0
C2382 C 0.48786 0.89679 0.53136 0.0
C2383 C 0.48396 0.89258 0.5492 0.0
C2384 C 0.47155 0.87945 0.5537 0.0
C2385 C 0.46976 0.87768 0.57394 0.0
C2386 C 0.45053 0.88231 0.58013 0.0
C2387 C 0.47537 0.85876 0.58025 0.0
C2388 C 0.48313 0.89184 0.58006 0.0
C2389 C 0.49112 0.90034 0.56559 0.0
C2390 C 0.50385 0.91395 0.56788 0.0
C2391 C 0.50876 0.91881 0.58548 0.0
C2392 C 0.501 0.91004 0.60053 0.0
C2393 C 0.48788 0.89652 0.59767 0.0
H2394 H 0.36917 0.27093 0.84844 0.0
H2395 H 0.36918 0.22905 0.88892 0.0
H2396 H 0.38545 0.20866 0.86793 0.0
H2397 H 0.35867 0.2422 0.81261 0.0
H2398 H 0.37197 0.25404 0.79611 0.0
H2399 H 0.36295 0.26597 0.81516 0.0
H2400 H 0.39503 0.27676 0.82377 0.0
H2401 H 0.40417 0.26486 0.80469 0.0
H2402 H 0.4127 0.2604 0.82699 0.0
H2403 H 0.40077 0.19272 0.84188 0.0
H2404 H 0.41064 0.1813 0.81209 0.0
H2405 H 0.39784 0.23302 0.78813 0.0
C2406 C 0.37309 0.25762 0.85295 0.0
C2407 C 0.36844 0.25154 0.87029 0.0
C2408 C 0.37298 0.23386 0.87569 0.0
C2409 C 0.38222 0.2223 0.86391 0.0
C2410 C 0.3865 0.22863 0.84673 0.0
C2411 C 0.38188 0.24583 0.84121 0.0
C2412 C 0.38611 0.24873 0.8215 0.0
C2413 C 0.3689 0.25298 0.81072 0.0
C2414 C 0.40035 0.26357 0.81911 0.0
C2415 C 0.39362 0.23042 0.81669 0.0
C2416 C 0.39414 0.21912 0.83149 0.0
C2417 C 0.40045 0.20146 0.83021 0.0
C2418 C 0.40607 0.19511 0.8133 0.0
C2419 C 0.4049 0.20629 0.79791 0.0
C2420 C 0.39878 0.22419 0.79971 0.0
H2421 H 0.05543 0.11709 0.02602 0.0
H2422 H 0.00745 0.10379 0.9953 0.0
H2423 H 0.99143 0.09648 0.02347 0.0
H2424 H 0.0508 0.08134 0.05798 0.0
H2425 H 0.05917 0.0944 0.07666 0.0
H2426 H 0.06657 0.09939 0.05412 0.0
H2427 H 0.05604 0.13248 0.05796 0.0
H2428 H 0.04852 0.12757 0.0805 0.0
H2429 H 0.03305 0.13704 0.06433 0.0
H2430 H 0.98067 0.09061 0.05477 0.0
H2431 H 0.97636 0.08485 0.08719 0.0
H2432 H 0.03182 0.1006 0.09724 0.0
C2433 C 0.04152 0.11276 0.02526 0.0
C2434 C 0.03262 0.11107 0.00856 0.0
C2435 C 0.01451 0.10513 0.00801 0.0
C2436 C 0.00527 0.10103 0.02391 0.0
C2437 C 0.01442 0.10282 0.04018 0.0
C2438 C 0.03217 0.1084 0.04098 0.0
C2439 C 0.0391 0.10841 0.06014 0.0
C2440 C 0.05484 0.09509 0.06235 0.0
C2441 C 0.04449 0.12751 0.06608 0.0
C2442 C 0.02245 0.10199 0.06996 0.0
C2443 C 0.00834 0.09897 0.05822 0.0
C2444 C 0.99164 0.09285 0.06412 0.0
C2445 C 0.98936 0.08952 0.08254 0.0
C2446 C 0.00376 0.09217 0.0948 0.0
C2447 C 0.02045 0.09865 0.08834 0.0
H2448 H 0.22898 0.12112 0.2242 0.0
H2449 H 0.21582 0.0674 0.2052 0.0
H2450 H 0.18617 0.06948 0.22006 0.0
H2451 H 0.20477 0.11831 0.26793 0.0
H2452 H 0.19731 0.14139 0.26658 0.0
H2453 H 0.21842 0.13483 0.25652 0.0
H2454 H 0.20787 0.14763 0.22578 0.0
H2455 H 0.18685 0.15431 0.23576 0.0
H2456 H 0.18692 0.13989 0.21622 0.0
H2457 H 0.15693 0.07865 0.23355 0.0
H2458 H 0.12967 0.09483 0.24387 0.0
H2459 H 0.16163 0.14227 0.2548 0.0
C2460 C 0.22001 0.10964 0.22346 0.0
C2461 C 0.22474 0.09405 0.2136 0.0
C2462 C 0.2125 0.07946 0.2127 0.0
C2463 C 0.19567 0.08047 0.2212 0.0
C2464 C 0.19134 0.09612 0.23064 0.0
C2465 C 0.20314 0.11045 0.23184 0.0
C2466 C 0.19457 0.12634 0.24138 0.0
C2467 C 0.20435 0.13045 0.25916 0.0
C2468 C 0.19402 0.14301 0.22905 0.0
C2469 C 0.17587 0.11893 0.2448 0.0
C2470 C 0.17439 0.10137 0.23872 0.0
C2471 C 0.15801 0.09223 0.23875 0.0
C2472 C 0.14265 0.10145 0.24464 0.0
C2473 C 0.14379 0.11953 0.25048 0.0
C2474 C 0.16066 0.12822 0.25102 0.0
H2475 H 0.12529 0.90462 0.51881 0.0
H2476 H 0.12464 0.87209 0.47046 0.0
H2477 H 0.13284 0.89893 0.45224 0.0
H2478 H 0.1043 0.94279 0.49885 0.0
H2479 H 0.11696 0.9591 0.51163 0.0
H2480 H 0.11273 0.9371 0.52091 0.0
H2481 H 0.14699 0.93218 0.52546 0.0
H2482 H 0.15133 0.95424 0.51634 0.0
H2483 H 0.16203 0.93475 0.50657 0.0
H2484 H 0.14129 0.92952 0.43956 0.0
H2485 H 0.14731 0.96165 0.43301 0.0
H2486 H 0.13979 0.9745 0.48953 0.0
C2487 C 0.1273 0.90316 0.50444 0.0
C2488 C 0.12481 0.88633 0.49597 0.0
C2489 C 0.1268 0.8849 0.47709 0.0
C2490 C 0.13142 0.90004 0.46671 0.0
C2491 C 0.13364 0.91653 0.47544 0.0
C2492 C 0.13149 0.9182 0.49387 0.0
C2493 C 0.13339 0.93762 0.49983 0.0
C2494 C 0.1158 0.94456 0.5083 0.0
C2495 C 0.14939 0.93982 0.51282 0.0
C2496 C 0.13705 0.94664 0.48191 0.0
C2497 C 0.13735 0.93423 0.46802 0.0
C2498 C 0.14097 0.93935 0.45031 0.0
C2499 C 0.14437 0.95762 0.44672 0.0
C2500 C 0.14382 0.97057 0.46072 0.0
C2501 C 0.14003 0.96494 0.4785 0.0
H2502 H 0.35199 0.84312 0.72406 0.0
H2503 H 0.38877 0.88407 0.70461 0.0
H2504 H 0.36446 0.89738 0.68631 0.0
H2505 H 0.3253 0.83892 0.68136 0.0
H2506 H 0.30448 0.83591 0.69347 0.0
H2507 H 0.32538 0.82814 0.70313 0.0
H2508 H 0.31912 0.84712 0.73172 0.0
H2509 H 0.29836 0.85513 0.72211 0.0
H2510 H 0.31516 0.871 0.72955 0.0
H2511 H 0.33571 0.90841 0.67318 0.0
H2512 H 0.30438 0.91554 0.66463 0.0
H2513 H 0.28605 0.86733 0.69224 0.0
C2514 C 0.355 0.85455 0.71553 0.0
C2515 C 0.37219 0.86265 0.71581 0.0
C2516 C 0.3756 0.87783 0.70475 0.0
C2517 C 0.36193 0.8854 0.69423 0.0
C2518 C 0.34493 0.87755 0.69478 0.0
C2519 C 0.34143 0.86234 0.70495 0.0
C2520 C 0.32165 0.85738 0.70413 0.0
C2521 C 0.31905 0.839 0.69497 0.0
C2522 C 0.31308 0.85769 0.723 0.0
C2523 C 0.31454 0.87255 0.69245 0.0
C2524 C 0.32823 0.88392 0.68706 0.0
C2525 C 0.32489 0.89946 0.67706 0.0
C2526 C 0.30704 0.90346 0.67237 0.0
C2527 C 0.29279 0.89198 0.67773 0.0
C2528 C 0.29667 0.87629 0.6878 0.0
H2529 H 0.36271 0.11057 0.97783 0.0
H2530 H 0.38993 0.09515 0.02709 0.0
H2531 H 0.38016 0.06362 0.02275 0.0
H2532 H 0.32448 0.07809 0.98097 0.0
H2533 H 0.32474 0.07356 0.95711 0.0
H2534 H 0.33147 0.09537 0.96541 0.0
H2535 H 0.36207 0.09228 0.94889 0.0
H2536 H 0.35542 0.07053 0.94054 0.0
H2537 H 0.37602 0.07286 0.95321 0.0
H2538 H 0.37023 0.03383 0.01183 0.0
H2539 H 0.3623 0.00694 0.99413 0.0
H2540 H 0.34197 0.04109 0.9512 0.0
C2541 C 0.36616 0.10054 0.98784 0.0
C2542 C 0.3769 0.10511 0.00284 0.0
C2543 C 0.3817 0.09174 0.01552 0.0
C2544 C 0.3761 0.0739 0.01324 0.0
C2545 C 0.36578 0.06969 0.99814 0.0
C2546 C 0.36089 0.08257 0.98559 0.0
C2547 C 0.35145 0.07407 0.9696 0.0
C2548 C 0.33187 0.08067 0.9682 0.0
C2549 C 0.36187 0.07764 0.95203 0.0
C2550 C 0.35226 0.05437 0.9749 0.0
C2551 C 0.36029 0.05223 0.99157 0.0
C2552 C 0.36371 0.03531 0.99887 0.0
C2553 C 0.3592 0.02012 0.98869 0.0
C2554 C 0.35146 0.02195 0.97135 0.0
C2555 C 0.34756 0.0393 0.96456 0.0
H2556 H 0.21107 0.90014 0.29377 0.0
H2557 H 0.23135 0.87066 0.2475 0.0
H2558 H 0.20016 0.86501 0.23754 0.0
H2559 H 0.17748 0.87088 0.30406 0.0
H2560 H 0.16109 0.88737 0.31106 0.0
H2561 H 0.18472 0.89237 0.31275 0.0
H2562 H 0.18043 0.92101 0.29327 0.0
H2563 H 0.15665 0.91631 0.29173 0.0
H2564 H 0.16976 0.91924 0.27151 0.0
H2565 H 0.16753 0.85825 0.23542 0.0
H2566 H 0.13515 0.8524 0.2402 0.0
H2567 H 0.13575 0.88616 0.28776 0.0
C2568 C 0.20899 0.89299 0.28122 0.0
C2569 C 0.22364 0.88584 0.27139 0.0
C2570 C 0.22033 0.87631 0.25521 0.0
C2571 C 0.20267 0.87306 0.24944 0.0
C2572 C 0.18852 0.87957 0.25992 0.0
C2573 C 0.19146 0.88955 0.27534 0.0
C2574 C 0.17401 0.89339 0.28519 0.0
C2575 C 0.17436 0.88553 0.30439 0.0
C2576 C 0.16997 0.91369 0.28543 0.0
C2577 C 0.16085 0.88338 0.27326 0.0
C2578 C 0.16951 0.87566 0.25867 0.0
C2579 C 0.16055 0.8645 0.24658 0.0
C2580 C 0.14226 0.8611 0.24949 0.0
C2581 C 0.13317 0.86883 0.26436 0.0
C2582 C 0.14249 0.88033 0.27622 0.0
H2583 H 0.35673 0.98165 0.53974 0.0
H2584 H 0.38548 0.00858 0.49658 0.0
H2585 H 0.39153 0.9792 0.48231 0.0
H2586 H 0.38649 0.94742 0.54509 0.0
H2587 H 0.37027 0.93 0.54984 0.0
H2588 H 0.36491 0.95309 0.55471 0.0
H2589 H 0.33625 0.95088 0.53489 0.0
H2590 H 0.34144 0.92765 0.53004 0.0
H2591 H 0.33812 0.9434 0.51186 0.0
H2592 H 0.39874 0.94721 0.47555 0.0
H2593 H 0.40678 0.91517 0.47688 0.0
H2594 H 0.3727 0.90871 0.52399 0.0
C2595 C 0.36378 0.98141 0.52697 0.0
C2596 C 0.37057 0.99737 0.51921 0.0
C2597 C 0.38012 0.9965 0.50274 0.0
C2598 C 0.38354 0.97988 0.49447 0.0
C2599 C 0.37719 0.96431 0.50279 0.0
C2600 C 0.36737 0.96493 0.51861 0.0
C2601 C 0.36395 0.94622 0.52594 0.0
C2602 C 0.37189 0.94407 0.54501 0.0
C2603 C 0.34374 0.94178 0.52566 0.0
C2604 C 0.37416 0.93506 0.51228 0.0
C2605 C 0.38139 0.9457 0.49885 0.0
C2606 C 0.39279 0.93865 0.48574 0.0
C2607 C 0.39725 0.92033 0.4866 0.0
C2608 C 0.39042 0.90924 0.50057 0.0
C2609 C 0.37827 0.91673 0.51319 0.0
H2610 H 0.28718 0.12884 0.76912 0.0
H2611 H 0.29236 0.07714 0.79602 0.0
H2612 H 0.32546 0.07925 0.79365 0.0
H2613 H 0.32566 0.12348 0.73836 0.0
H2614 H 0.33188 0.14687 0.74028 0.0
H2615 H 0.30862 0.14029 0.74249 0.0
H2616 H 0.30727 0.1561 0.77361 0.0
H2617 H 0.33057 0.16247 0.77165 0.0
H2618 H 0.3231 0.14973 0.79091 0.0
H2619 H 0.35795 0.08815 0.7905 0.0
H2620 H 0.38749 0.1027 0.78561 0.0
H2621 H 0.36069 0.14841 0.76084 0.0
C2622 C 0.29524 0.11777 0.77416 0.0
C2623 C 0.28723 0.10281 0.78269 0.0
C2624 C 0.29825 0.08872 0.78938 0.0
C2625 C 0.31705 0.08979 0.78811 0.0
C2626 C 0.32453 0.10499 0.78008 0.0
C2627 C 0.31397 0.11865 0.77308 0.0
C2628 C 0.32533 0.13398 0.76599 0.0
C2629 C 0.32272 0.13628 0.74557 0.0
C2630 C 0.32133 0.15161 0.77615 0.0
C2631 C 0.34392 0.12694 0.77037 0.0
C2632 C 0.3432 0.11017 0.77841 0.0
C2633 C 0.3587 0.10119 0.78403 0.0
C2634 C 0.37539 0.10954 0.7812 0.0
C2635 C 0.37639 0.12669 0.77288 0.0
C2636 C 0.36039 0.13543 0.76746 0.0
H2637 H 0.11147 0.99862 0.03101 0.0
H2638 H 0.16427 0.01562 0.04961 0.0
H2639 H 0.15912 0.04572 0.03636 0.0
H2640 H 0.11228 0.02095 0.98917 0.0
H2641 H 0.08884 0.02728 0.98946 0.0
H2642 H 0.09618 0.00746 0.00134 0.0
H2643 H 0.08228 0.01987 0.03086 0.0
H2644 H 0.07487 0.03976 0.01906 0.0
H2645 H 0.08881 0.04185 0.03884 0.0
H2646 H 0.14921 0.07302 0.01943 0.0
H2647 H 0.13495 0.09617 0.00032 0.0
H2648 H 0.08822 0.0619 0.99322 0.0
C2649 C 0.12192 0.00871 0.03241 0.0
C2650 C 0.13831 0.00478 0.0413 0.0
C2651 C 0.15161 0.01835 0.04289 0.0
C2652 C 0.14879 0.03548 0.03543 0.0
C2653 C 0.13254 0.03885 0.02663 0.0
C2654 C 0.11926 0.02591 0.0252 0.0
C2655 C 0.10321 0.03287 0.01464 0.0
C2656 C 0.09995 0.02146 0.99765 0.0
C2657 C 0.08629 0.03363 0.02657 0.0
C2658 C 0.10975 0.0516 0.00992 0.0
C2659 C 0.12667 0.05478 0.01707 0.0
C2660 C 0.13592 0.07075 0.01388 0.0
C2661 C 0.12777 0.08374 0.00291 0.0
C2662 C 0.11054 0.08074 0.99527 0.0
C2663 C 0.10131 0.06457 0.99908 0.0
H2664 H 0.21445 0.12912 0.13029 0.0
H2665 H 0.2664 0.14599 0.15134 0.0
H2666 H 0.25964 0.17728 0.14251 0.0
H2667 H 0.21439 0.15873 0.09146 0.0
H2668 H 0.19054 0.16314 0.09273 0.0
H2669 H 0.19942 0.14197 0.10066 0.0
H2670 H 0.18471 0.14738 0.13184 0.0
H2671 H 0.17577 0.16853 0.124 0.0
H2672 H 0.18961 0.16785 0.14395 0.0
H2673 H 0.24704 0.20676 0.13216 0.0
H2674 H 0.22948 0.23262 0.12098 0.0
H2675 H 0.18609 0.19664 0.10545 0.0
C2676 C 0.22456 0.13928 0.13289 0.0
C2677 C 0.24101 0.13495 0.1416 0.0
C2678 C 0.25362 0.14889 0.14496 0.0
C2679 C 0.24995 0.16672 0.13986 0.0
C2680 C 0.23365 0.17044 0.13131 0.0
C2681 C 0.22116 0.15713 0.12782 0.0
C2682 C 0.20455 0.1648 0.11864 0.0
C2683 C 0.20209 0.15668 0.09975 0.0
C2684 C 0.18767 0.16197 0.13031 0.0
C2685 C 0.20963 0.18455 0.11761 0.0
C2686 C 0.22648 0.18747 0.12502 0.0
C2687 C 0.2339 0.20463 0.12623 0.0
C2688 C 0.22379 0.21924 0.11985 0.0
C2689 C 0.20645 0.21664 0.11226 0.0
C2690 C 0.19939 0.19901 0.11096 0.0
H2691 H 0.72593 0.26366 0.86008 0.0
H2692 H 0.68242 0.28274 0.89423 0.0
H2693 H 0.69098 0.31409 0.88758 0.0
H2694 H 0.75774 0.29552 0.87312 0.0
H2695 H 0.76769 0.29842 0.85116 0.0
H2696 H 0.757 0.27745 0.8569 0.0
H2697 H 0.73615 0.2803 0.82904 0.0
H2698 H 0.74681 0.30132 0.82318 0.0
H2699 H 0.72273 0.30034 0.82613 0.0
H2700 H 0.70625 0.343 0.8804 0.0
H2701 H 0.72691 0.36782 0.87218 0.0
H2702 H 0.75984 0.33064 0.84168 0.0
C2703 C 0.718 0.27442 0.86591 0.0
C2704 C 0.70351 0.2707 0.87771 0.0
C2705 C 0.69358 0.2852 0.88517 0.0
C2706 C 0.6983 0.30308 0.88143 0.0
C2707 C 0.71285 0.30628 0.87004 0.0
C2708 C 0.72247 0.29238 0.86224 0.0
C2709 C 0.73818 0.29954 0.85131 0.0
C2710 C 0.75621 0.2923 0.85857 0.0
C2711 C 0.73582 0.29511 0.83122 0.0
C2712 C 0.73625 0.31958 0.85472 0.0
C2713 C 0.72145 0.32315 0.86546 0.0
C2714 C 0.71766 0.34043 0.8717 0.0
C2715 C 0.72943 0.3544 0.86705 0.0
C2716 C 0.7447 0.35103 0.85617 0.0
C2717 C 0.74798 0.3335 0.84966 0.0
H2718 H 0.98924 0.48156 0.13259 0.0
H2719 H 0.98817 0.42506 0.11792 0.0
H2720 H 0.95962 0.42997 0.10128 0.0
H2721 H 0.94207 0.48545 0.1407 0.0
H2722 H 0.94063 0.50815 0.13219 0.0
H2723 H 0.96136 0.50015 0.14191 0.0
H2724 H 0.97832 0.50858 0.11258 0.0
H2725 H 0.95759 0.51648 0.10271 0.0
H2726 H 0.97074 0.49951 0.09136 0.0
H2727 H 0.93102 0.44165 0.0857 0.0
H2728 H 0.90346 0.45809 0.07606 0.0
H2729 H 0.92303 0.5062 0.10257 0.0
C2730 C 0.98305 0.47023 0.12578 0.0
C2731 C 0.9909 0.45294 0.1265 0.0
C2732 C 0.98228 0.43838 0.11767 0.0
C2733 C 0.96616 0.44109 0.10805 0.0
C2734 C 0.95878 0.45839 0.10757 0.0
C2735 C 0.96687 0.47264 0.11644 0.0
C2736 C 0.95579 0.48966 0.11486 0.0
C2737 C 0.9496 0.49623 0.13352 0.0
C2738 C 0.96624 0.50443 0.10477 0.0
C2739 C 0.94012 0.48282 0.10378 0.0
C2740 C 0.94217 0.46483 0.0994 0.0
C2741 C 0.9293 0.45571 0.08912 0.0
C2742 C 0.91377 0.46513 0.08361 0.0
C2743 C 0.91117 0.48332 0.08868 0.0
C2744 C 0.92467 0.49225 0.09865 0.0
H2745 H 0.74128 0.66587 0.35761 0.0
H2746 H 0.74683 0.66974 0.29939 0.0
H2747 H 0.76218 0.69876 0.30294 0.0
H2748 H 0.73287 0.71168 0.36623 0.0
H2749 H 0.74592 0.7125 0.38669 0.0
H2750 H 0.73567 0.69167 0.37971 0.0
H2751 H 0.76678 0.67586 0.3807 0.0
H2752 H 0.77715 0.69664 0.38774 0.0
H2753 H 0.78529 0.6851 0.36799 0.0
H2754 H 0.7752 0.72837 0.31256 0.0
H2755 H 0.78621 0.7558 0.32787 0.0
H2756 H 0.7743 0.73178 0.37976 0.0
C2757 C 0.74583 0.67256 0.34553 0.0
C2758 C 0.74251 0.6653 0.32818 0.0
C2759 C 0.74875 0.67491 0.31286 0.0
C2760 C 0.75768 0.69144 0.31471 0.0
C2761 C 0.76053 0.69817 0.33197 0.0
C2762 C 0.75497 0.68896 0.34712 0.0
C2763 C 0.7596 0.69923 0.36416 0.0
C2764 C 0.7425 0.70406 0.37482 0.0
C2765 C 0.773 0.68857 0.37583 0.0
C2766 C 0.76832 0.71584 0.35618 0.0
C2767 C 0.76868 0.71496 0.33757 0.0
C2768 C 0.77516 0.72913 0.32712 0.0
C2769 C 0.78129 0.74466 0.33591 0.0
C2770 C 0.78111 0.74579 0.35494 0.0
C2771 C 0.77477 0.73111 0.3652 0.0
H2772 H 0.02675 0.01858 0.11321 0.0
H2773 H 0.03875 0.03666 0.16753 0.0
H2774 H 0.06973 0.02467 0.16455 0.0
H2775 H 0.05142 0.97748 0.11492 0.0
H2776 H 0.05914 0.97891 0.09195 0.0
H2777 H 0.03813 0.98923 0.09832 0.0
H2778 H 0.04936 0.01988 0.08593 0.0
H2779 H 0.07045 0.00967 0.07958 0.0
H2780 H 0.07028 0.02912 0.09412 0.0
H2781 H 0.09908 0.00998 0.15581 0.0
H2782 H 0.12468 0.99388 0.14205 0.0
H2783 H 0.09337 0.98566 0.09337 0.0
C2784 C 0.03586 0.02003 0.12451 0.0
C2785 C 0.03032 0.0285 0.14064 0.0
C2786 C 0.04271 0.03021 0.15505 0.0
C2787 C 0.06032 0.02347 0.15347 0.0
C2788 C 0.06532 0.01519 0.13736 0.0
C2789 C 0.05346 0.01351 0.12312 0.0
C2790 C 0.0621 0.00395 0.1073 0.0
C2791 C 0.0521 0.98635 0.10287 0.0
C2792 C 0.06311 0.0164 0.09076 0.0
C2793 C 0.08064 0.00027 0.11494 0.0
C2794 C 0.08223 0.0069 0.13227 0.0
C2795 C 0.09798 0.00476 0.14224 0.0
C2796 C 0.11241 0.9955 0.13434 0.0
C2797 C 0.11103 0.98845 0.11664 0.0
C2798 C 0.09494 0.99107 0.10681 0.0
H2799 H 0.28832 0.78467 0.58168 0.0
H2800 H 0.237 0.76141 0.59711 0.0
H2801 H 0.22477 0.79194 0.60223 0.0
H2802 H 0.28969 0.8151 0.61562 0.0
H2803 H 0.30047 0.8329 0.60312 0.0
H2804 H 0.30384 0.80984 0.59661 0.0
H2805 H 0.29252 0.81699 0.56437 0.0
H2806 H 0.28924 0.8402 0.5707 0.0
H2807 H 0.27082 0.82748 0.5613 0.0
H2808 H 0.21973 0.82456 0.61016 0.0
H2809 H 0.22228 0.85625 0.61997 0.0
H2810 H 0.2776 0.85731 0.60104 0.0
C2811 C 0.27432 0.78597 0.58552 0.0
C2812 C 0.26359 0.77066 0.58891 0.0
C2813 C 0.24544 0.77298 0.59432 0.0
C2814 C 0.23837 0.79027 0.59724 0.0
C2815 C 0.24962 0.80508 0.59466 0.0
C2816 C 0.26719 0.80308 0.58878 0.0
C2817 C 0.27729 0.82075 0.58934 0.0
C2818 C 0.29378 0.81956 0.60192 0.0
C2819 C 0.28278 0.8267 0.57029 0.0
C2820 C 0.26286 0.83291 0.59703 0.0
C2821 C 0.2469 0.82374 0.59971 0.0
C2822 C 0.23209 0.83194 0.60787 0.0
C2823 C 0.23372 0.8499 0.61357 0.0
C2824 C 0.25012 0.85942 0.61131 0.0
C2825 C 0.26472 0.85074 0.60266 0.0
H2826 H 0.89219 0.49734 0.36681 0.0
H2827 H 0.86658 0.54701 0.38351 0.0
H2828 H 0.89536 0.56339 0.37892 0.0
H2829 H 0.93397 0.50568 0.38929 0.0
H2830 H 0.94756 0.49525 0.37209 0.0
H2831 H 0.92474 0.48782 0.37567 0.0
H2832 H 0.9173 0.49394 0.3421 0.0
H2833 H 0.94012 0.50128 0.3384 0.0
H2834 H 0.92159 0.51593 0.33274 0.0
H2835 H 0.927 0.57427 0.37164 0.0
H2836 H 0.95922 0.57847 0.36421 0.0
H2837 H 0.96442 0.52105 0.35461 0.0
C2838 C 0.89261 0.51172 0.36918 0.0
C2839 C 0.87717 0.52105 0.37517 0.0
C2840 C 0.8783 0.53974 0.37875 0.0
C2841 C 0.89454 0.5491 0.37618 0.0
C2842 C 0.90959 0.53947 0.37032 0.0
C2843 C 0.90878 0.52115 0.36704 0.0
C2844 C 0.92703 0.51375 0.36171 0.0
C2845 C 0.93371 0.4998 0.37552 0.0
C2846 C 0.92647 0.50576 0.3426 0.0
C2847 C 0.93822 0.53077 0.36235 0.0
C2848 C 0.92791 0.54551 0.36717 0.0
C2849 C 0.93523 0.56279 0.36801 0.0
C2850 C 0.95354 0.56505 0.36377 0.0
C2851 C 0.96438 0.55007 0.35907 0.0
C2852 C 0.95656 0.53273 0.35846 0.0
H2853 H 0.51195 0.47935 0.90388 0.0
H2854 H 0.50969 0.47224 0.84588 0.0
H2855 H 0.54064 0.48388 0.84321 0.0
H2856 H 0.53976 0.52023 0.90426 0.0
H2857 H 0.55271 0.51326 0.9236 0.0
H2858 H 0.52973 0.50583 0.92104 0.0
H2859 H 0.54013 0.47258 0.92359 0.0
H2860 H 0.56308 0.47996 0.92622 0.0
H2861 H 0.55733 0.4643 0.90858 0.0
H2862 H 0.57188 0.49507 0.84662 0.0
H2863 H 0.60252 0.50354 0.85609 0.0
H2864 H 0.58561 0.50236 0.91203 0.0
C2865 C 0.51792 0.48053 0.89062 0.0
C2866 C 0.50838 0.47505 0.87506 0.0
C2867 C 0.51674 0.47638 0.85797 0.0
C2868 C 0.53429 0.48305 0.8563 0.0
C2869 C 0.5434 0.48819 0.87186 0.0
C2870 C 0.53563 0.4869 0.88873 0.0
C2871 C 0.54896 0.49217 0.90333 0.0
C2872 C 0.54239 0.50887 0.91367 0.0
C2873 C 0.55259 0.4763 0.91619 0.0
C2874 C 0.56543 0.49646 0.89201 0.0
C2875 C 0.5618 0.49424 0.87389 0.0
C2876 C 0.57491 0.49687 0.86077 0.0
C2877 C 0.59231 0.50158 0.86629 0.0
C2878 C 0.59657 0.50349 0.88481 0.0
C2879 C 0.58279 0.50119 0.89779 0.0
H2880 H 0.60942 0.71389 0.71671 0.0
H2881 H 0.62301 0.765 0.74154 0.0
H2882 H 0.63388 0.77633 0.71224 0.0
H2883 H 0.64744 0.71033 0.69178 0.0
H2884 H 0.6374 0.70017 0.67215 0.0
H2885 H 0.62706 0.6973 0.69384 0.0
H2886 H 0.59707 0.71042 0.68167 0.0
H2887 H 0.60723 0.71308 0.65978 0.0
H2888 H 0.597 0.73215 0.67081 0.0
H2889 H 0.64778 0.78025 0.68189 0.0
H2890 H 0.66281 0.77686 0.65258 0.0
H2891 H 0.63998 0.72323 0.64728 0.0
C2892 C 0.61397 0.72772 0.71581 0.0
C2893 C 0.61519 0.73866 0.73131 0.0
C2894 C 0.62183 0.75646 0.72976 0.0
C2895 C 0.62801 0.76302 0.71317 0.0
C2896 C 0.62739 0.75162 0.69828 0.0
C2897 C 0.62035 0.7344 0.69938 0.0
C2898 C 0.62317 0.72414 0.68199 0.0
C2899 C 0.63444 0.70698 0.68514 0.0
C2900 C 0.60504 0.71969 0.67303 0.0
C2901 C 0.63353 0.738 0.67122 0.0
C2902 C 0.6356 0.75384 0.68074 0.0
C2903 C 0.6459 0.76806 0.67412 0.0
C2904 C 0.65439 0.766 0.65737 0.0
C2905 C 0.65263 0.74978 0.64742 0.0
C2906 C 0.64177 0.73578 0.65445 0.0
H2907 H 0.53417 0.35968 0.97539 0.0
H2908 H 0.50821 0.39478 0.01434 0.0
H2909 H 0.49113 0.40934 0.98985 0.0
H2910 H 0.53886 0.3926 0.94065 0.0
H2911 H 0.5343 0.37707 0.92255 0.0
H2912 H 0.54421 0.36904 0.94319 0.0
H2913 H 0.51835 0.34587 0.94676 0.0
H2914 H 0.50837 0.35376 0.92609 0.0
H2915 H 0.49531 0.35356 0.94655 0.0
H2916 H 0.47767 0.42082 0.96112 0.0
H2917 H 0.46778 0.42755 0.93004 0.0
H2918 H 0.50214 0.3848 0.90991 0.0
C2919 C 0.52479 0.37033 0.97879 0.0
C2920 C 0.5225 0.37608 0.99678 0.0
C2921 C 0.51017 0.39013 0.00065 0.0
C2922 C 0.50041 0.3985 0.98684 0.0
C2923 C 0.5031 0.39263 0.96924 0.0
C2924 C 0.5149 0.37881 0.96517 0.0
C2925 C 0.51539 0.37519 0.94512 0.0
C2926 C 0.53431 0.37869 0.93743 0.0
C2927 C 0.50897 0.35595 0.94089 0.0
C2928 C 0.502 0.38912 0.93857 0.0
C2929 C 0.49514 0.39911 0.95269 0.0
C2930 C 0.48288 0.41305 0.94995 0.0
C2931 C 0.47743 0.41685 0.93227 0.0
C2932 C 0.48415 0.40666 0.91762 0.0
C2933 C 0.49658 0.39262 0.92089 0.0
H2934 H 0.90114 0.29286 0.21588 0.0
H2935 H 0.88289 0.25159 0.25302 0.0
H2936 H 0.86789 0.2357 0.22798 0.0
H2937 H 0.86144 0.29573 0.19168 0.0
H2938 H 0.8717 0.2993 0.16997 0.0
H2939 H 0.88339 0.306 0.19012 0.0
H2940 H 0.91083 0.28643 0.18102 0.0
H2941 H 0.89928 0.27979 0.16071 0.0
H2942 H 0.90761 0.26288 0.17603 0.0
H2943 H 0.85184 0.22627 0.19975 0.0
H2944 H 0.83661 0.22362 0.17043 0.0
H2945 H 0.8655 0.27084 0.15143 0.0
C2946 C 0.89446 0.2802 0.21866 0.0
C2947 C 0.8933 0.27341 0.23641 0.0
C2948 C 0.88403 0.25702 0.23953 0.0
C2949 C 0.87548 0.24787 0.22538 0.0
C2950 C 0.87632 0.25525 0.20815 0.0
C2951 C 0.88571 0.27096 0.20469 0.0
C2952 C 0.88327 0.27684 0.18528 0.0
C2953 C 0.87442 0.29557 0.18422 0.0
C2954 C 0.90132 0.27645 0.17516 0.0
C2955 C 0.87067 0.26225 0.17852 0.0
C2956 C 0.86697 0.24984 0.19186 0.0
C2957 C 0.85489 0.23573 0.18909 0.0
C2958 C 0.84631 0.23431 0.17229 0.0
C2959 C 0.84976 0.24697 0.15839 0.0
C2960 C 0.86234 0.26096 0.16165 0.0
H2961 H 0.94091 0.63598 0.45812 0.0
H2962 H 0.98928 0.64425 0.49 0.0
H2963 H 0.00794 0.63691 0.46354 0.0
H2964 H 0.95867 0.59791 0.43195 0.0
H2965 H 0.94725 0.60465 0.4116 0.0
H2966 H 0.93762 0.60995 0.43324 0.0
H2967 H 0.93658 0.64371 0.42447 0.0
H2968 H 0.94635 0.63855 0.40288 0.0
H2969 H 0.95698 0.65483 0.41742 0.0
H2970 H 0.02136 0.63122 0.43329 0.0
H2971 H 0.02883 0.62428 0.40171 0.0
H2972 H 0.9721 0.61792 0.38941 0.0
C2973 C 0.95543 0.63607 0.45957 0.0
C2974 C 0.96365 0.64073 0.47613 0.0
C2975 C 0.98268 0.64063 0.4775 0.0
C2976 C 0.9934 0.63656 0.46252 0.0
C2977 C 0.98491 0.63234 0.44633 0.0
C2978 C 0.96637 0.63175 0.4448 0.0
C2979 C 0.96071 0.62674 0.42579 0.0
C2980 C 0.95046 0.60874 0.42564 0.0
C2981 C 0.94949 0.64186 0.41713 0.0
C2982 C 0.97898 0.62495 0.41683 0.0
C2983 C 0.99272 0.62837 0.42893 0.0
C2984 C 0.01073 0.62834 0.42374 0.0
C2985 C 0.01485 0.62452 0.40574 0.0
C2986 C 0.00105 0.62059 0.39314 0.0
C2987 C 0.98289 0.62077 0.39882 0.0
H2988 H 0.63706 0.27218 0.85724 0.0
H2989 H 0.62392 0.21744 0.84154 0.0
H2990 H 0.61507 0.22814 0.81141 0.0
H2991 H 0.60018 0.29339 0.83351 0.0
H2992 H 0.61303 0.3129 0.82691 0.0
H2993 H 0.6187 0.30098 0.84728 0.0
H2994 H 0.6514 0.29685 0.83583 0.0
H2995 H 0.6458 0.3087 0.81539 0.0
H2996 H 0.65525 0.28636 0.81427 0.0
H2997 H 0.60821 0.24433 0.78294 0.0
H2998 H 0.60171 0.2654 0.7582 0.0
H2999 H 0.61826 0.31023 0.79198 0.0
C3000 C 0.63234 0.26249 0.84742 0.0
C3001 C 0.63107 0.24397 0.8518 0.0
C3002 C 0.62472 0.2317 0.83863 0.0
C3003 C 0.6198 0.23764 0.82141 0.0
C3004 C 0.6212 0.25593 0.81752 0.0
C3005 C 0.62716 0.26824 0.83014 0.0
C3006 C 0.62688 0.28722 0.82248 0.0
C3007 C 0.61392 0.29934 0.83318 0.0
C3008 C 0.64597 0.29525 0.82196 0.0
C3009 C 0.61982 0.2836 0.80362 0.0
C3010 C 0.61682 0.26541 0.80106 0.0
C3011 C 0.61046 0.25862 0.78478 0.0
C3012 C 0.60686 0.27072 0.77077 0.0
C3013 C 0.60945 0.2895 0.7731 0.0
C3014 C 0.6161 0.29597 0.78978 0.0
H3015 H 0.96485 0.36745 0.04477 0.0
H3016 H 0.96827 0.30954 0.05194 0.0
H3017 H 0.98407 0.31423 0.08106 0.0
H3018 H 0.0077 0.37831 0.06198 0.0
H3019 H 0.00029 0.3988 0.07269 0.0
H3020 H 0.98876 0.39061 0.05301 0.0
H3021 H 0.95858 0.39083 0.07059 0.0
H3022 H 0.97007 0.39892 0.09037 0.0
H3023 H 0.95685 0.3786 0.0915 0.0
H3024 H 0.00132 0.32587 0.1087 0.0
H3025 H 0.01696 0.34323 0.13262 0.0
H3026 H 0.00113 0.39302 0.10651 0.0
C3027 C 0.96884 0.3557 0.05245 0.0
C3028 C 0.96545 0.33812 0.04609 0.0
C3029 C 0.97075 0.32313 0.05663 0.0
C3030 C 0.97973 0.32567 0.07314 0.0
C3031 C 0.98303 0.34327 0.0789 0.0
C3032 C 0.97757 0.35799 0.06889 0.0
C3033 C 0.98282 0.37553 0.07772 0.0
C3034 C 0.99566 0.38644 0.06563 0.0
C3035 C 0.96608 0.38661 0.08285 0.0
C3036 C 0.99236 0.36846 0.0942 0.0
C3037 C 0.99241 0.34985 0.09475 0.0
C3038 C 0.00117 0.34044 0.10847 0.0
C3039 C 0.01007 0.35037 0.12194 0.0
C3040 C 0.01001 0.36945 0.12156 0.0
C3041 C 0.00099 0.37848 0.10749 0.0
H3042 H 0.84674 0.71512 0.26346 0.0
H3043 H 0.90507 0.71924 0.26397 0.0
H3044 H 0.90351 0.73803 0.2914 0.0
H3045 H 0.83691 0.75984 0.2791 0.0
H3046 H 0.81829 0.75295 0.29307 0.0
H3047 H 0.82389 0.7402 0.27321 0.0
H3048 H 0.82691 0.71121 0.29248 0.0
H3049 H 0.82113 0.7239 0.31233 0.0
H3050 H 0.84179 0.71115 0.31168 0.0
H3051 H 0.89555 0.75704 0.31805 0.0
H3052 H 0.8821 0.77258 0.34401 0.0
H3053 H 0.82904 0.75426 0.32724 0.0
C3054 C 0.85916 0.72002 0.26935 0.0
C3055 C 0.87602 0.71586 0.26162 0.0
C3056 C 0.89202 0.72226 0.26978 0.0
C3057 C 0.89127 0.733 0.28527 0.0
C3058 C 0.87442 0.73698 0.29251 0.0
C3059 C 0.85867 0.73049 0.28499 0.0
C3060 C 0.84237 0.73613 0.29588 0.0
C3061 C 0.82962 0.74799 0.28464 0.0
C3062 C 0.83248 0.71962 0.30355 0.0
C3063 C 0.85145 0.7469 0.31063 0.0
C3064 C 0.86989 0.74737 0.30832 0.0
C3065 C 0.88113 0.75662 0.32012 0.0
C3066 C 0.87333 0.76535 0.33491 0.0
C3067 C 0.85447 0.76458 0.33793 0.0
C3068 C 0.84345 0.75535 0.32541 0.0
H3069 H 0.55002 0.64714 0.54233 0.0
H3070 H 0.49622 0.64763 0.51958 0.0
H3071 H 0.48329 0.64413 0.55007 0.0
H3072 H 0.5422 0.6124 0.5714 0.0
H3073 H 0.55617 0.62065 0.58947 0.0
H3074 H 0.56099 0.62701 0.56663 0.0
H3075 H 0.55908 0.66076 0.57545 0.0
H3076 H 0.5543 0.65449 0.59841 0.0
H3077 H 0.53912 0.66918 0.58642 0.0
H3078 H 0.47651 0.6371 0.58224 0.0
H3079 H 0.47629 0.62539 0.61327 0.0
H3080 H 0.53477 0.62738 0.61426 0.0
C3081 C 0.53551 0.64713 0.54388 0.0
C3082 C 0.52405 0.64787 0.52877 0.0
C3083 C 0.50516 0.64717 0.53111 0.0
C3084 C 0.49772 0.64531 0.54834 0.0
C3085 C 0.50941 0.64408 0.56299 0.0
C3086 C 0.52791 0.64493 0.56092 0.0
C3087 C 0.53758 0.64079 0.57836 0.0
C3088 C 0.54995 0.62423 0.57634 0.0
C3089 C 0.54814 0.65729 0.58505 0.0
C3090 C 0.52166 0.63683 0.59039 0.0
C3091 C 0.50553 0.63922 0.58141 0.0
C3092 C 0.48905 0.63532 0.58946 0.0
C3093 C 0.48909 0.62848 0.60705 0.0
C3094 C 0.50552 0.62526 0.61626 0.0
C3095 C 0.52194 0.6299 0.60784 0.0
H3096 H 0.65977 0.64996 0.7222 0.0
H3097 H 0.67343 0.67086 0.77519 0.0
H3098 H 0.70325 0.65654 0.77297 0.0
H3099 H 0.68177 0.60669 0.72795 0.0
H3100 H 0.68907 0.60566 0.70481 0.0
H3101 H 0.66869 0.61753 0.71058 0.0
H3102 H 0.68103 0.64639 0.69527 0.0
H3103 H 0.70139 0.6346 0.68941 0.0
H3104 H 0.70257 0.65523 0.70215 0.0
H3105 H 0.73232 0.64107 0.76429 0.0
H3106 H 0.75801 0.62554 0.74983 0.0
H3107 H 0.7244 0.6131 0.70366 0.0
C3108 C 0.66881 0.65144 0.73351 0.0
C3109 C 0.66402 0.66171 0.74886 0.0
C3110 C 0.67666 0.66337 0.76313 0.0
C3111 C 0.69366 0.65513 0.76208 0.0
C3112 C 0.69782 0.64508 0.74678 0.0
C3113 C 0.68571 0.64314 0.7328 0.0
C3114 C 0.69352 0.6318 0.71773 0.0
C3115 C 0.68261 0.61439 0.71512 0.0
C3116 C 0.6947 0.64266 0.7001 0.0
C3117 C 0.71203 0.62786 0.72532 0.0
C3118 C 0.71427 0.63564 0.74209 0.0
C3119 C 0.73063 0.63472 0.75128 0.0
C3120 C 0.74513 0.62587 0.74297 0.0
C3121 C 0.74313 0.61793 0.72574 0.0
C3122 C 0.72625 0.6187 0.717 0.0
H3123 H 0.64882 0.46717 0.96332 0.0
H3124 H 0.59986 0.48507 0.93706 0.0
H3125 H 0.58417 0.45756 0.94722 0.0
H3126 H 0.6421 0.41747 0.95708 0.0
H3127 H 0.65067 0.4125 0.97925 0.0
H3128 H 0.65904 0.43174 0.96704 0.0
H3129 H 0.65055 0.45243 0.99384 0.0
H3130 H 0.64209 0.43332 0.00607 0.0
H3131 H 0.6277 0.45247 0.00206 0.0
H3132 H 0.57299 0.43006 0.96264 0.0
H3133 H 0.56644 0.40546 0.98401 0.0
H3134 H 0.62211 0.40606 0.00178 0.0
C3135 C 0.63497 0.46492 0.95931 0.0
C3136 C 0.62552 0.47793 0.94925 0.0
C3137 C 0.60725 0.47506 0.94469 0.0
C3138 C 0.59829 0.45947 0.9503 0.0
C3139 C 0.60779 0.44702 0.96064 0.0
C3140 C 0.6257 0.44958 0.9652 0.0
C3141 C 0.63205 0.43534 0.97836 0.0
C3142 C 0.64684 0.42356 0.96992 0.0
C3143 C 0.63847 0.44391 0.99613 0.0
C3144 C 0.61478 0.42481 0.98093 0.0
C3145 C 0.60108 0.43149 0.97024 0.0
C3146 C 0.58366 0.42453 0.9709 0.0
C3147 C 0.58007 0.41054 0.98304 0.0
C3148 C 0.59377 0.40389 0.99454 0.0
C3149 C 0.61139 0.41096 0.9932 0.0
H3150 H 0.85842 0.36995 0.22226 0.0
H3151 H 0.84568 0.34971 0.27566 0.0
H3152 H 0.81751 0.36712 0.2754 0.0
H3153 H 0.83667 0.4151 0.22694 0.0
H3154 H 0.82849 0.41451 0.20408 0.0
H3155 H 0.84934 0.40343 0.20982 0.0
H3156 H 0.8371 0.37346 0.19671 0.0
H3157 H 0.81633 0.38444 0.1909 0.0
H3158 H 0.81603 0.36463 0.20494 0.0
H3159 H 0.78879 0.38228 0.26753 0.0
H3160 H 0.76141 0.39335 0.25228 0.0
H3161 H 0.79243 0.40364 0.20389 0.0
C3162 C 0.84989 0.36931 0.23403 0.0
C3163 C 0.85442 0.3584 0.24899 0.0
C3164 C 0.84279 0.35813 0.26413 0.0
C3165 C 0.82669 0.368 0.26411 0.0
C3166 C 0.82245 0.3782 0.24894 0.0
C3167 C 0.83375 0.37898 0.23419 0.0
C3168 C 0.82514 0.38916 0.21874 0.0
C3169 C 0.83553 0.40659 0.21466 0.0
C3170 C 0.82355 0.3772 0.20184 0.0
C3171 C 0.80687 0.39322 0.22679 0.0
C3172 C 0.80573 0.3871 0.24436 0.0
C3173 C 0.78962 0.38751 0.25395 0.0
C3174 C 0.77414 0.39377 0.24517 0.0
C3175 C 0.7749 0.39949 0.22699 0.0
C3176 C 0.79159 0.39979 0.21793 0.0
H3177 H 0.86106 0.61095 0.46335 0.0
H3178 H 0.90624 0.59656 0.49746 0.0
H3179 H 0.90133 0.56438 0.49056 0.0
H3180 H 0.83276 0.57341 0.47426 0.0
H3181 H 0.82431 0.5705 0.45168 0.0
H3182 H 0.83137 0.59245 0.45924 0.0
H3183 H 0.8535 0.59469 0.43233 0.0
H3184 H 0.84647 0.57275 0.42468 0.0
H3185 H 0.86996 0.57715 0.42893 0.0
H3186 H 0.89075 0.53381 0.48108 0.0
H3187 H 0.87639 0.5068 0.46801 0.0
H3188 H 0.83892 0.54094 0.43879 0.0
C3189 C 0.86986 0.60096 0.46931 0.0
C3190 C 0.88404 0.60616 0.48088 0.0
C3191 C 0.89544 0.59282 0.48839 0.0
C3192 C 0.8927 0.57453 0.48463 0.0
C3193 C 0.87862 0.56982 0.47316 0.0
C3194 C 0.86749 0.58263 0.46544 0.0
C3195 C 0.85357 0.57391 0.4533 0.0
C3196 C 0.83437 0.5778 0.46003 0.0
C3197 C 0.85603 0.57999 0.43365 0.0
C3198 C 0.85845 0.55422 0.45564 0.0
C3199 C 0.87288 0.55217 0.46722 0.0
C3200 C 0.87952 0.53524 0.47188 0.0
C3201 C 0.87124 0.51998 0.46444 0.0
C3202 C 0.85659 0.52176 0.45235 0.0
C3203 C 0.85019 0.53915 0.44789 0.0
H3204 H 0.65348 0.39005 0.78532 0.0
H3205 H 0.66055 0.34828 0.74514 0.0
H3206 H 0.69356 0.35165 0.74729 0.0
H3207 H 0.69123 0.41827 0.77148 0.0
H3208 H 0.6974 0.42406 0.79424 0.0
H3209 H 0.67425 0.41912 0.78881 0.0
H3210 H 0.67366 0.39439 0.81349 0.0
H3211 H 0.69674 0.39934 0.81903 0.0
H3212 H 0.69031 0.3767 0.81304 0.0
H3213 H 0.72559 0.35887 0.75439 0.0
H3214 H 0.75476 0.36824 0.76728 0.0
H3215 H 0.7269 0.40508 0.80321 0.0
C3216 C 0.66205 0.38177 0.77692 0.0
C3217 C 0.6546 0.36886 0.76516 0.0
C3218 C 0.66609 0.35805 0.75444 0.0
C3219 C 0.68481 0.35999 0.75544 0.0
C3220 C 0.69177 0.37276 0.76726 0.0
C3221 C 0.68079 0.3834 0.7779 0.0
C3222 C 0.69176 0.3954 0.79019 0.0
C3223 C 0.68846 0.4154 0.78591 0.0
C3224 C 0.68789 0.3912 0.81011 0.0
C3225 C 0.7106 0.38969 0.7849 0.0
C3226 C 0.71031 0.37677 0.77153 0.0
C3227 C 0.72603 0.36905 0.76481 0.0
C3228 C 0.74252 0.37448 0.7722 0.0
C3229 C 0.74309 0.38738 0.78624 0.0
C3230 C 0.72691 0.39524 0.79244 0.0
H3231 H 0.9101 0.38863 0.00945 0.0
H3232 H 0.86402 0.35957 0.03062 0.0
H3233 H 0.84763 0.38823 0.0342 0.0
H3234 H 0.90768 0.42518 0.03855 0.0
H3235 H 0.91417 0.44182 0.02212 0.0
H3236 H 0.92161 0.41889 0.01968 0.0
H3237 H 0.90755 0.41763 0.9877 0.0
H3238 H 0.90007 0.44062 0.99005 0.0
H3239 H 0.88408 0.42314 0.98471 0.0
H3240 H 0.83758 0.42011 0.03845 0.0
H3241 H 0.83433 0.45302 0.04235 0.0
H3242 H 0.88636 0.46109 0.017 0.0
C3243 C 0.89641 0.3882 0.01441 0.0
C3244 C 0.88838 0.37182 0.01979 0.0
C3245 C 0.87056 0.37196 0.02664 0.0
C3246 C 0.86107 0.38816 0.02857 0.0
C3247 C 0.86952 0.40408 0.02342 0.0
C3248 C 0.88674 0.40422 0.01634 0.0
C3249 C 0.89317 0.42323 0.01284 0.0
C3250 C 0.91015 0.42752 0.02396 0.0
C3251 C 0.8964 0.42633 0.99262 0.0
C3252 C 0.87705 0.43377 0.01946 0.0
C3253 C 0.86351 0.42248 0.02544 0.0
C3254 C 0.84792 0.42911 0.0335 0.0
C3255 C 0.84621 0.44778 0.0357 0.0
C3256 C 0.86 0.45953 0.02976 0.0
C3257 C 0.87543 0.45242 0.02127 0.0
H3258 H 0.76487 0.61906 0.28237 0.0
H3259 H 0.73616 0.632 0.23308 0.0
H3260 H 0.76507 0.63953 0.21831 0.0
H3261 H 0.79576 0.65501 0.27963 0.0
H3262 H 0.81435 0.64246 0.28895 0.0
H3263 H 0.7916 0.6367 0.29502 0.0
H3264 H 0.79699 0.60384 0.28444 0.0
H3265 H 0.81978 0.60949 0.27832 0.0
H3266 H 0.80486 0.5997 0.26184 0.0
H3267 H 0.797 0.6466 0.20943 0.0
H3268 H 0.82944 0.65366 0.20732 0.0
H3269 H 0.83654 0.63721 0.263 0.0
C3270 C 0.76468 0.6232 0.26837 0.0
C3271 C 0.74837 0.62482 0.25877 0.0
C3272 C 0.74858 0.63065 0.24062 0.0
C3273 C 0.7649 0.63489 0.23213 0.0
C3274 C 0.78076 0.6333 0.24205 0.0
C3275 C 0.78076 0.62765 0.2598 0.0
C3276 C 0.79944 0.62813 0.26785 0.0
C3277 C 0.80033 0.64136 0.2838 0.0
C3278 C 0.80563 0.60916 0.27344 0.0
C3279 C 0.80999 0.63499 0.25188 0.0
C3280 C 0.79903 0.63777 0.23709 0.0
C3281 C 0.80573 0.64446 0.22091 0.0
C3282 C 0.82413 0.64854 0.21989 0.0
C3283 C 0.83555 0.64604 0.23499 0.0
C3284 C 0.82831 0.63903 0.25111 0.0
H3285 H 0.63985 0.5304 0.5535 0.0
H3286 H 0.60088 0.49368 0.52995 0.0
H3287 H 0.58469 0.51941 0.51655 0.0
H3288 H 0.60858 0.5658 0.56431 0.0
H3289 H 0.62399 0.58369 0.55865 0.0
H3290 H 0.63253 0.56238 0.56653 0.0
H3291 H 0.65217 0.55944 0.53782 0.0
H3292 H 0.64379 0.58079 0.52991 0.0
H3293 H 0.64166 0.56102 0.51597 0.0
H3294 H 0.57247 0.54924 0.50592 0.0
H3295 H 0.56646 0.58084 0.49721 0.0
H3296 H 0.61337 0.59795 0.52759 0.0
C3297 C 0.62795 0.52776 0.54548 0.0
C3298 C 0.62164 0.51001 0.5428 0.0
C3299 C 0.60601 0.50714 0.53218 0.0
C3300 C 0.59666 0.52168 0.52456 0.0
C3301 C 0.60313 0.53902 0.52761 0.0
C3302 C 0.61848 0.54211 0.5377 0.0
C3303 C 0.62276 0.56203 0.53866 0.0
C3304 C 0.62191 0.56887 0.5582 0.0
C3305 C 0.64118 0.56605 0.53007 0.0
C3306 C 0.60748 0.56961 0.52746 0.0
C3307 C 0.59621 0.55615 0.52133 0.0
C3308 C 0.5812 0.55991 0.51066 0.0
C3309 C 0.57781 0.5779 0.50589 0.0
C3310 C 0.58946 0.59186 0.51167 0.0
C3311 C 0.60433 0.58757 0.52279 0.0
H3312 H 0.73313 0.64493 0.62576 0.0
H3313 H 0.78257 0.66254 0.65157 0.0
H3314 H 0.78099 0.69112 0.63476 0.0
H3315 H 0.73981 0.66823 0.58179 0.0
H3316 H 0.71625 0.6739 0.58019 0.0
H3317 H 0.72311 0.65351 0.59148 0.0
H3318 H 0.70585 0.66355 0.62014 0.0
H3319 H 0.69896 0.68388 0.60896 0.0
H3320 H 0.71087 0.68513 0.63009 0.0
H3321 H 0.77157 0.71938 0.61903 0.0
H3322 H 0.75489 0.7451 0.60622 0.0
H3323 H 0.71124 0.70933 0.59105 0.0
C3324 C 0.74379 0.65464 0.62776 0.0
C3325 C 0.75797 0.65139 0.64008 0.0
C3326 C 0.7717 0.6645 0.64208 0.0
C3327 C 0.7709 0.68083 0.63257 0.0
C3328 C 0.75638 0.68379 0.621 0.0
C3329 C 0.74312 0.671 0.6185 0.0
C3330 C 0.7279 0.67817 0.60693 0.0
C3331 C 0.72671 0.66784 0.58903 0.0
C3332 C 0.70984 0.67766 0.61714 0.0
C3333 C 0.73427 0.6973 0.60398 0.0
C3334 C 0.75089 0.70017 0.61192 0.0
C3335 C 0.75873 0.7172 0.61246 0.0
C3336 C 0.74913 0.73174 0.60519 0.0
C3337 C 0.73182 0.72919 0.59756 0.0
C3338 C 0.72459 0.71164 0.59646 0.0
H3339 H 0.19751 0.76607 0.39064 0.0
H3340 H 0.2382 0.73076 0.36795 0.0
H3341 H 0.2531 0.75698 0.35393 0.0
H3342 H 0.19283 0.79339 0.35272 0.0
H3343 H 0.18951 0.8141 0.36495 0.0
H3344 H 0.18331 0.79296 0.37505 0.0
H3345 H 0.20375 0.79983 0.40252 0.0
H3346 H 0.20992 0.82109 0.39257 0.0
H3347 H 0.22716 0.80521 0.39898 0.0
H3348 H 0.26207 0.78669 0.34026 0.0
H3349 H 0.26429 0.81746 0.32794 0.0
H3350 H 0.21779 0.83335 0.35965 0.0
C3351 C 0.20981 0.7639 0.3831 0.0
C3352 C 0.21679 0.74639 0.38051 0.0
C3353 C 0.23266 0.74407 0.37017 0.0
C3354 C 0.24124 0.75889 0.36218 0.0
C3355 C 0.23378 0.77593 0.36465 0.0
C3356 C 0.21846 0.77852 0.37491 0.0
C3357 C 0.21242 0.79801 0.37439 0.0
C3358 C 0.1934 0.7997 0.36629 0.0
C3359 C 0.21338 0.80654 0.39324 0.0
C3360 C 0.22654 0.80589 0.36196 0.0
C3361 C 0.23883 0.793 0.35661 0.0
C3362 C 0.25265 0.79696 0.34454 0.0
C3363 C 0.25385 0.81453 0.33766 0.0
C3364 C 0.24124 0.82794 0.34278 0.0
C3365 C 0.22757 0.82347 0.35528 0.0
H3366 H 0.47544 0.96171 0.64227 0.0
H3367 H 0.5088 0.00901 0.6345 0.0
H3368 H 0.48279 0.0253 0.62159 0.0
H3369 H 0.45281 0.96518 0.60112 0.0
H3370 H 0.43135 0.95741 0.60937 0.0
H3371 H 0.4518 0.95023 0.62024 0.0
H3372 H 0.44008 0.96232 0.65081 0.0
H3373 H 0.41948 0.9694 0.64007 0.0
H3374 H 0.43279 0.98543 0.65254 0.0
H3375 H 0.4538 0.03569 0.60753 0.0
H3376 H 0.42391 0.03947 0.59349 0.0
H3377 H 0.41006 0.98475 0.6089 0.0
C3378 C 0.47709 0.97566 0.63835 0.0
C3379 C 0.49401 0.98423 0.6396 0.0
C3380 C 0.49587 0.00229 0.63377 0.0
C3381 C 0.48119 0.01164 0.62643 0.0
C3382 C 0.46478 0.00268 0.6249 0.0
C3383 C 0.46262 0.98511 0.63072 0.0
C3384 C 0.444 0.97811 0.6262 0.0
C3385 C 0.44507 0.96177 0.61348 0.0
C3386 C 0.43347 0.97355 0.64343 0.0
C3387 C 0.43612 0.99441 0.61676 0.0
C3388 C 0.44825 0.00849 0.61629 0.0
C3389 C 0.44415 0.02477 0.60788 0.0
C3390 C 0.42717 0.02674 0.59978 0.0
C3391 C 0.41451 0.01244 0.60001 0.0
C3392 C 0.41919 0.99609 0.60867 0.0
H3393 H 0.26816 0.23427 0.85485 0.0
H3394 H 0.3114 0.22327 0.89277 0.0
H3395 H 0.30987 0.19108 0.88524 0.0
H3396 H 0.24234 0.19592 0.86462 0.0
H3397 H 0.23527 0.19174 0.84176 0.0
H3398 H 0.24075 0.21428 0.84879 0.0
H3399 H 0.26417 0.21674 0.82305 0.0
H3400 H 0.25873 0.19418 0.8159 0.0
H3401 H 0.2817 0.20002 0.82119 0.0
H3402 H 0.30168 0.15991 0.87631 0.0
H3403 H 0.28808 0.1316 0.86518 0.0
H3404 H 0.25097 0.16224 0.83215 0.0
C3405 C 0.27749 0.22513 0.86136 0.0
C3406 C 0.28997 0.23139 0.87433 0.0
C3407 C 0.30184 0.21893 0.88264 0.0
C3408 C 0.30107 0.20056 0.87848 0.0
C3409 C 0.28847 0.1948 0.86585 0.0
C3410 C 0.27699 0.20669 0.85726 0.0
C3411 C 0.2642 0.19678 0.84476 0.0
C3412 C 0.24448 0.19986 0.85032 0.0
C3413 C 0.2674 0.20226 0.82505 0.0
C3414 C 0.26997 0.17746 0.8481 0.0
C3415 C 0.28404 0.17667 0.86029 0.0
C3416 C 0.29088 0.16034 0.86652 0.0
C3417 C 0.28306 0.14437 0.86022 0.0
C3418 C 0.26868 0.14484 0.84772 0.0
C3419 C 0.26223 0.16159 0.8414 0.0
H3420 H 0.60454 0.51764 0.63844 0.0
H3421 H 0.58179 0.4854 0.59533 0.0
H3422 H 0.55145 0.49671 0.60287 0.0
H3423 H 0.56756 0.51231 0.67019 0.0
H3424 H 0.56885 0.53516 0.67829 0.0
H3425 H 0.5888 0.52408 0.67001 0.0
H3426 H 0.59384 0.55 0.6472 0.0
H3427 H 0.57395 0.56118 0.65543 0.0
H3428 H 0.57603 0.55599 0.63181 0.0
H3429 H 0.52393 0.51148 0.61465 0.0
H3430 H 0.50059 0.53013 0.62883 0.0
H3431 H 0.54073 0.55361 0.66438 0.0
C3432 C 0.59312 0.51283 0.63074 0.0
C3433 C 0.5955 0.50059 0.6163 0.0
C3434 C 0.5803 0.49487 0.60631 0.0
C3435 C 0.56301 0.50112 0.61059 0.0
C3436 C 0.56115 0.51317 0.62486 0.0
C3437 C 0.57575 0.51908 0.63474 0.0
C3438 C 0.57001 0.53267 0.64893 0.0
C3439 C 0.57405 0.52563 0.66798 0.0
C3440 C 0.57899 0.55105 0.64564 0.0
C3441 C 0.54989 0.53349 0.64541 0.0
C3442 C 0.54513 0.522 0.63154 0.0
C3443 C 0.52746 0.5205 0.62553 0.0
C3444 C 0.51429 0.5312 0.63371 0.0
C3445 C 0.51879 0.54337 0.64774 0.0
C3446 C 0.53684 0.54436 0.65379 0.0
H3447 H 0.77851 0.34854 0.13579 0.0
H3448 H 0.7288 0.33823 0.16493 0.0
H3449 H 0.72738 0.30799 0.1516 0.0
H3450 H 0.76771 0.32232 0.09514 0.0
H3451 H 0.79043 0.31403 0.09295 0.0
H3452 H 0.78636 0.33584 0.10283 0.0
H3453 H 0.80395 0.32625 0.13146 0.0
H3454 H 0.80813 0.3045 0.12164 0.0
H3455 H 0.79731 0.30611 0.14331 0.0
H3456 H 0.73294 0.27779 0.13786 0.0
H3457 H 0.74571 0.24965 0.12561 0.0
H3458 H 0.79197 0.27932 0.10575 0.0
C3459 C 0.76722 0.34007 0.13935 0.0
C3460 C 0.75373 0.34603 0.15144 0.0
C3461 C 0.73919 0.33432 0.15553 0.0
C3462 C 0.73826 0.31701 0.14802 0.0
C3463 C 0.75192 0.31155 0.13639 0.0
C3464 C 0.76614 0.32273 0.13208 0.0
C3465 C 0.77987 0.31309 0.12045 0.0
C3466 C 0.78116 0.32184 0.10173 0.0
C3467 C 0.7984 0.31245 0.12978 0.0
C3468 C 0.77141 0.29457 0.11936 0.0
C3469 C 0.75516 0.29405 0.12844 0.0
C3470 C 0.7455 0.2781 0.13048 0.0
C3471 C 0.75287 0.26218 0.12349 0.0
C3472 C 0.76976 0.26233 0.11462 0.0
C3473 C 0.77887 0.27884 0.11213 0.0
H3474 H 0.40912 0.03432 0.89631 0.0
H3475 H 0.412 0.97742 0.91005 0.0
H3476 H 0.44456 0.9778 0.90442 0.0
H3477 H 0.44085 0.03198 0.85962 0.0
H3478 H 0.45046 0.05379 0.86428 0.0
H3479 H 0.42729 0.0493 0.86991 0.0
H3480 H 0.43345 0.05847 0.9031 0.0
H3481 H 0.45655 0.06311 0.8974 0.0
H3482 H 0.45141 0.04757 0.91532 0.0
H3483 H 0.47719 0.98448 0.89832 0.0
H3484 H 0.5071 0.99671 0.89018 0.0
H3485 H 0.48263 0.04848 0.87841 0.0
C3486 C 0.41642 0.02184 0.89806 0.0
C3487 C 0.40771 0.0059 0.90393 0.0
C3488 C 0.41814 0.98998 0.90602 0.0
C3489 C 0.43674 0.98999 0.90272 0.0
C3490 C 0.4448 0.00595 0.89711 0.0
C3491 C 0.43497 0.02154 0.89463 0.0
C3492 C 0.44687 0.03682 0.88815 0.0
C3493 C 0.44101 0.04335 0.86937 0.0
C3494 C 0.44708 0.0524 0.90181 0.0
C3495 C 0.46493 0.02735 0.88743 0.0
C3496 C 0.46348 0.00959 0.89281 0.0
C3497 C 0.47847 0.99831 0.89391 0.0
C3498 C 0.49538 0.00537 0.88931 0.0
C3499 C 0.4971 0.02342 0.88345 0.0
C3500 C 0.48165 0.03451 0.88249 0.0
H3501 H 0.02734 0.99085 0.40088 0.0
H3502 H 0.02643 0.97949 0.34356 0.0
H3503 H 0.05943 0.9841 0.34218 0.0
H3504 H 0.06211 0.02495 0.40037 0.0
H3505 H 0.07221 0.01733 0.4211 0.0
H3506 H 0.04847 0.01408 0.41726 0.0
H3507 H 0.0523 0.97983 0.42297 0.0
H3508 H 0.07609 0.98295 0.42665 0.0
H3509 H 0.06837 0.96725 0.4098 0.0
H3510 H 0.09246 0.99065 0.34705 0.0
H3511 H 0.12325 0.99749 0.35813 0.0
H3512 H 0.10269 0.00232 0.41249 0.0
C3513 C 0.03406 0.98962 0.38799 0.0
C3514 C 0.02436 0.98509 0.37226 0.0
C3515 C 0.03365 0.9831 0.35573 0.0
C3516 C 0.05236 0.98566 0.35482 0.0
C3517 C 0.06157 0.98992 0.37063 0.0
C3518 C 0.05275 0.99177 0.38692 0.0
C3519 C 0.06585 0.99568 0.40207 0.0
C3520 C 0.06192 0.0141 0.4107 0.0
C3521 C 0.06564 0.98052 0.4162 0.0
C3522 C 0.08342 0.9959 0.39173 0.0
C3523 C 0.08066 0.99268 0.3736 0.0
C3524 C 0.0948 0.993 0.36125 0.0
C3525 C 0.11218 0.99687 0.3676 0.0
C3526 C 0.11527 8e-05 0.38613 0.0
C3527 C 0.10071 0.99943 0.39833 0.0
H3528 H 0.14535 0.07439 0.40022 0.0
H3529 H 0.09842 0.07684 0.43482 0.0
H3530 H 0.08344 0.09724 0.41279 0.0
H3531 H 0.14457 0.12013 0.38399 0.0
H3532 H 0.15146 0.11375 0.3616 0.0
H3533 H 0.15843 0.10046 0.38067 0.0
H3534 H 0.14457 0.07197 0.36592 0.0
H3535 H 0.13749 0.08517 0.34684 0.0
H3536 H 0.12121 0.07216 0.35928 0.0
H3537 H 0.07397 0.11754 0.38624 0.0
H3538 H 0.07046 0.13463 0.35785 0.0
H3539 H 0.12329 0.11632 0.34063 0.0
C3540 C 0.13208 0.07957 0.40341 0.0
C3541 C 0.12319 0.07452 0.41943 0.0
C3542 C 0.10553 0.08088 0.42274 0.0
C3543 C 0.09697 0.09241 0.41032 0.0
C3544 C 0.1062 0.09711 0.39459 0.0
C3545 C 0.12334 0.09075 0.39114 0.0
C3546 C 0.13016 0.0968 0.37297 0.0
C3547 C 0.14716 0.10848 0.37493 0.0
C3548 C 0.13354 0.08056 0.36052 0.0
C3549 C 0.11426 0.10779 0.36667 0.0
C3550 C 0.10056 0.10794 0.37927 0.0
C3551 C 0.08461 0.11741 0.37627 0.0
C3552 C 0.08269 0.12698 0.36002 0.0
C3553 C 0.09661 0.12691 0.34691 0.0
C3554 C 0.11249 0.11702 0.3504 0.0
H3555 H 0.17023 0.88391 0.63134 0.0
H3556 H 0.15751 0.94025 0.64065 0.0
H3557 H 0.12791 0.93581 0.62599 0.0
H3558 H 0.15212 0.88049 0.58921 0.0
H3559 H 0.14362 0.85792 0.59202 0.0
H3560 H 0.16273 0.86528 0.60491 0.0
H3561 H 0.14615 0.85697 0.63452 0.0
H3562 H 0.12692 0.84954 0.62168 0.0
H3563 H 0.12419 0.86635 0.63898 0.0
H3564 H 0.10114 0.92562 0.60686 0.0
H3565 H 0.07994 0.91051 0.58586 0.0
H3566 H 0.11045 0.86097 0.59121 0.0
C3567 C 0.16106 0.89525 0.63096 0.0
C3568 C 0.16626 0.91241 0.63729 0.0
C3569 C 0.15397 0.92698 0.63577 0.0
C3570 C 0.13704 0.92455 0.62761 0.0
C3571 C 0.13252 0.90744 0.6213 0.0
C3572 C 0.14417 0.89302 0.62311 0.0
C3573 C 0.13688 0.87627 0.61421 0.0
C3574 C 0.14959 0.86962 0.5992 0.0
C3575 C 0.13332 0.86141 0.62819 0.0
C3576 C 0.11951 0.88358 0.6066 0.0
C3577 C 0.11706 0.90154 0.61086 0.0
C3578 C 0.10272 0.91145 0.60379 0.0
C3579 C 0.09078 0.90281 0.59186 0.0
C3580 C 0.0933 0.88447 0.58723 0.0
C3581 C 0.10769 0.87479 0.59501 0.0
H3582 H 0.38716 0.88062 0.8121 0.0
H3583 H 0.42149 0.84605 0.84429 0.0
H3584 H 0.41199 0.86242 0.87188 0.0
H3585 H 0.39563 0.9217 0.83757 0.0
H3586 H 0.37291 0.92978 0.8347 0.0
H3587 H 0.38291 0.91553 0.81782 0.0
H3588 H 0.35612 0.89334 0.82092 0.0
H3589 H 0.3462 0.90737 0.83804 0.0
H3590 H 0.35085 0.88399 0.8427 0.0
H3591 H 0.3969 0.88137 0.89596 0.0
H3592 H 0.38054 0.90364 0.91438 0.0
H3593 H 0.35758 0.92682 0.86576 0.0
C3594 C 0.39279 0.87665 0.82497 0.0
C3595 C 0.40499 0.86213 0.82622 0.0
C3596 C 0.41221 0.85726 0.84317 0.0
C3597 C 0.40679 0.86638 0.85885 0.0
C3598 C 0.39436 0.8804 0.85719 0.0
C3599 C 0.38772 0.88571 0.84063 0.0
C3600 C 0.37476 0.90134 0.84239 0.0
C3601 C 0.38199 0.91808 0.83254 0.0
C3602 C 0.35587 0.89619 0.83561 0.0
C3603 C 0.37495 0.90392 0.86258 0.0
C3604 C 0.38621 0.89163 0.87091 0.0
C3605 C 0.38826 0.89122 0.88955 0.0
C3606 C 0.37894 0.904 0.89989 0.0
C3607 C 0.36786 0.91719 0.89157 0.0
C3608 C 0.36572 0.91687 0.87265 0.0
H3609 H 0.40622 0.12735 0.10463 0.0
H3610 H 0.40466 0.08405 0.06548 0.0
H3611 H 0.38546 0.06629 0.08597 0.0
H3612 H 0.40176 0.09846 0.14696 0.0
H3613 H 0.38734 0.11511 0.15718 0.0
H3614 H 0.40501 0.12201 0.14203 0.0
H3615 H 0.38148 0.13901 0.12263 0.0
H3616 H 0.36374 0.13195 0.13745 0.0
H3617 H 0.3624 0.12688 0.11374 0.0
H3618 H 0.36136 0.05634 0.10724 0.0
H3619 H 0.3352 0.05474 0.12764 0.0
H3620 H 0.35169 0.10491 0.15266 0.0
C3621 C 0.40239 0.11384 0.10068 0.0
C3622 C 0.40701 0.10704 0.08352 0.0
C3623 C 0.4016 0.0894 0.07871 0.0
C3624 C 0.3906 0.07924 0.09025 0.0
C3625 C 0.38531 0.08685 0.1066 0.0
C3626 C 0.39126 0.10368 0.11193 0.0
C3627 C 0.38158 0.11004 0.12872 0.0
C3628 C 0.39471 0.11148 0.14467 0.0
C3629 C 0.37172 0.12802 0.12542 0.0
C3630 C 0.36846 0.09469 0.13136 0.0
C3631 C 0.37111 0.08123 0.11877 0.0
C3632 C 0.35948 0.06655 0.11747 0.0
C3633 C 0.34465 0.06575 0.12914 0.0
C3634 C 0.34142 0.07968 0.1418 0.0
C3635 C 0.35379 0.09407 0.14314 0.0
H3636 H 0.1118 0.87459 0.18818 0.0
H3637 H 0.13098 0.82021 0.17863 0.0
H3638 H 0.14697 0.83083 0.15128 0.0
H3639 H 0.10157 0.88429 0.14326 0.0
H3640 H 0.10804 0.90765 0.14475 0.0
H3641 H 0.10014 0.89603 0.16448 0.0
H3642 H 0.12953 0.90448 0.18142 0.0
H3643 H 0.13751 0.91619 0.16173 0.0
H3644 H 0.15102 0.89864 0.17173 0.0
H3645 H 0.15939 0.84778 0.12358 0.0
H3646 H 0.16604 0.86904 0.09845 0.0
H3647 H 0.13673 0.91102 0.12639 0.0
C3648 C 0.11934 0.86484 0.18038 0.0
C3649 C 0.12 0.84654 0.18544 0.0
C3650 C 0.13037 0.83434 0.17505 0.0
C3651 C 0.13945 0.84024 0.15948 0.0
C3652 C 0.13802 0.85835 0.15462 0.0
C3653 C 0.12822 0.87042 0.16486 0.0
C3654 C 0.12767 0.88889 0.15642 0.0
C3655 C 0.10821 0.89453 0.15196 0.0
C3656 C 0.137 0.90287 0.16855 0.0
C3657 C 0.13842 0.88534 0.13959 0.0
C3658 C 0.14457 0.86777 0.13877 0.0
C3659 C 0.15466 0.86156 0.12413 0.0
C3660 C 0.15836 0.87363 0.10997 0.0
C3661 C 0.15166 0.89145 0.11056 0.0
C3662 C 0.14179 0.89734 0.12562 0.0
H3663 H 0.31572 0.86012 0.37283 0.0
H3664 H 0.35182 0.86449 0.32724 0.0
H3665 H 0.37735 0.85468 0.34654 0.0
H3666 H 0.34433 0.87721 0.40527 0.0
H3667 H 0.33748 0.86211 0.42301 0.0
H3668 H 0.32204 0.86757 0.40516 0.0
H3669 H 0.31814 0.83361 0.39798 0.0
H3670 H 0.33359 0.82802 0.41588 0.0
H3671 H 0.33772 0.82002 0.39333 0.0
H3672 H 0.39922 0.8487 0.37189 0.0
H3673 H 0.41549 0.84503 0.40084 0.0
H3674 H 0.36459 0.84254 0.42919 0.0
C3675 C 0.32898 0.85868 0.36691 0.0
C3676 C 0.33201 0.86302 0.3487 0.0
C3677 C 0.3494 0.86109 0.34122 0.0
C3678 C 0.36389 0.85553 0.35205 0.0
C3679 C 0.36053 0.85163 0.37014 0.0
C3680 C 0.34343 0.85285 0.37742 0.0
C3681 C 0.34346 0.84873 0.39735 0.0
C3682 C 0.33642 0.86487 0.40833 0.0
C3683 C 0.33258 0.83157 0.40137 0.0
C3684 C 0.36336 0.84572 0.40037 0.0
C3685 C 0.37301 0.84737 0.38451 0.0
C3686 C 0.39179 0.84691 0.38429 0.0
C3687 C 0.4009 0.84488 0.40073 0.0
C3688 C 0.39118 0.84318 0.41702 0.0
C3689 C 0.37222 0.84329 0.41678 0.0
H3690 H 0.376 0.08542 0.62827 0.0
H3691 H 0.39961 0.11591 0.58427 0.0
H3692 H 0.41502 0.13552 0.60634 0.0
H3693 H 0.36695 0.12368 0.65646 0.0
H3694 H 0.37168 0.11152 0.67694 0.0
H3695 H 0.36321 0.0997 0.65753 0.0
H3696 H 0.39065 0.0781 0.65885 0.0
H3697 H 0.39934 0.09 0.67812 0.0
H3698 H 0.41312 0.08729 0.65832 0.0
H3699 H 0.42815 0.15166 0.63372 0.0
H3700 H 0.43539 0.16442 0.66381 0.0
H3701 H 0.40161 0.12403 0.68896 0.0
C3702 C 0.38411 0.0964 0.62314 0.0
C3703 C 0.38652 0.09908 0.60446 0.0
C3704 C 0.3977 0.11339 0.5985 0.0
C3705 C 0.40648 0.12464 0.61093 0.0
C3706 C 0.40386 0.12147 0.62925 0.0
C3707 C 0.39276 0.10781 0.63528 0.0
C3708 C 0.39165 0.10743 0.65559 0.0
C3709 C 0.37222 0.11079 0.662 0.0
C3710 C 0.39914 0.08965 0.66316 0.0
C3711 C 0.4038 0.12309 0.6601 0.0
C3712 C 0.41093 0.13093 0.6448 0.0
C3713 C 0.4226 0.14564 0.64578 0.0
C3714 C 0.42672 0.15273 0.66285 0.0
C3715 C 0.41898 0.14518 0.67853 0.0
C3716 C 0.40761 0.13006 0.6771 0.0
H3717 H 0.10552 0.10719 0.90078 0.0
H3718 H 0.08789 0.15965 0.88211 0.0
H3719 H 0.10785 0.15669 0.85543 0.0
H3720 H 0.15014 0.11319 0.8909 0.0
H3721 H 0.15435 0.09015 0.88446 0.0
H3722 H 0.13662 0.09525 0.9001 0.0
H3723 H 0.1136 0.07889 0.8795 0.0
H3724 H 0.13133 0.07373 0.86374 0.0
H3725 H 0.11148 0.08555 0.85624 0.0
H3726 H 0.13167 0.14872 0.8323 0.0
H3727 H 0.15862 0.13784 0.81614 0.0
H3728 H 0.16118 0.09159 0.85188 0.0
C3729 C 0.10537 0.1178 0.89076 0.0
C3730 C 0.09494 0.13347 0.8932 0.0
C3731 C 0.0957 0.14746 0.88028 0.0
C3732 C 0.10687 0.14583 0.8651 0.0
C3733 C 0.11716 0.13018 0.86321 0.0
C3734 C 0.1165 0.11647 0.87578 0.0
C3735 C 0.1303 0.10201 0.872 0.0
C3736 C 0.14364 0.10006 0.8878 0.0
C3737 C 0.12112 0.08398 0.86761 0.0
C3738 C 0.13923 0.10993 0.85559 0.0
C3739 C 0.13128 0.12597 0.85045 0.0
C3740 C 0.13793 0.13613 0.83615 0.0
C3741 C 0.15334 0.12991 0.82717 0.0
C3742 C 0.16212 0.11386 0.83278 0.0
C3743 C 0.15465 0.10365 0.84694 0.0
H3744 H 0.10946 0.31996 0.09551 0.0
H3745 H 0.15942 0.34319 0.07637 0.0
H3746 H 0.14588 0.37371 0.07812 0.0
H3747 H 0.07903 0.35214 0.07185 0.0
H3748 H 0.06322 0.35228 0.09028 0.0
H3749 H 0.07634 0.33237 0.08569 0.0
H3750 H 0.08822 0.33259 0.11855 0.0
H3751 H 0.07515 0.35244 0.12318 0.0
H3752 H 0.09911 0.35253 0.12713 0.0
H3753 H 0.12825 0.40177 0.08669 0.0
H3754 H 0.1072 0.42467 0.09911 0.0
H3755 H 0.06819 0.38277 0.11005 0.0
C3756 C 0.11739 0.33149 0.09136 0.0
C3757 C 0.13542 0.32937 0.08581 0.0
C3758 C 0.14551 0.34464 0.08053 0.0
C3759 C 0.13793 0.36197 0.08149 0.0
C3760 C 0.12016 0.36366 0.08737 0.0
C3761 C 0.10992 0.34876 0.09191 0.0
C3762 C 0.09146 0.35416 0.0986 0.0
C3763 C 0.07664 0.34734 0.08584 0.0
C3764 C 0.08832 0.34754 0.11801 0.0
C3765 C 0.0931 0.37444 0.09779 0.0
C3766 C 0.10973 0.37974 0.09128 0.0
C3767 C 0.11499 0.39782 0.09127 0.0
C3768 C 0.10302 0.41072 0.09829 0.0
C3769 C 0.08598 0.40542 0.10489 0.0
C3770 C 0.0809 0.38715 0.10436 0.0
H3771 H 0.60214 0.11774 0.83996 0.0
H3772 H 0.62633 0.07327 0.86936 0.0
H3773 H 0.65424 0.0908 0.8727 0.0
H3774 H 0.64406 0.13609 0.81891 0.0
H3775 H 0.63683 0.15899 0.82253 0.0
H3776 H 0.6204 0.14154 0.81856 0.0
H3777 H 0.6042 0.14992 0.84835 0.0
H3778 H 0.62046 0.16739 0.85228 0.0
H3779 H 0.61688 0.15022 0.86908 0.0
H3780 H 0.67772 0.1147 0.87715 0.0
H3781 H 0.69354 0.14316 0.88392 0.0
H3782 H 0.65304 0.17265 0.85379 0.0
C3783 C 0.61334 0.1115 0.8469 0.0
C3784 C 0.61187 0.09398 0.85432 0.0
C3785 C 0.62707 0.08643 0.86315 0.0
C3786 C 0.64304 0.09635 0.86519 0.0
C3787 C 0.64372 0.11383 0.85834 0.0
C3788 C 0.62923 0.12133 0.84936 0.0
C3789 C 0.63232 0.14114 0.84554 0.0
C3790 C 0.63347 0.14464 0.82517 0.0
C3791 C 0.6176 0.15285 0.85435 0.0
C3792 C 0.65044 0.14383 0.85452 0.0
C3793 C 0.65704 0.12782 0.86139 0.0
C3794 C 0.67281 0.12725 0.87159 0.0
C3795 C 0.68168 0.1435 0.87542 0.0
C3796 C 0.67462 0.16017 0.86933 0.0
C3797 C 0.65913 0.16015 0.85822 0.0
H3798 H 0.91588 0.89969 0.38586 0.0
H3799 H 0.8826 0.94618 0.37404 0.0
H3800 H 0.85523 0.92839 0.38143 0.0
H3801 H 0.88809 0.86718 0.36683 0.0
H3802 H 0.89247 0.85026 0.3837 0.0
H3803 H 0.90911 0.8672 0.37901 0.0
H3804 H 0.90937 0.8764 0.41271 0.0
H3805 H 0.89266 0.85947 0.41751 0.0
H3806 H 0.88856 0.88263 0.42357 0.0
H3807 H 0.83159 0.90411 0.38667 0.0
H3808 H 0.81389 0.87607 0.39076 0.0
H3809 H 0.86325 0.84642 0.40049 0.0
C3810 C 0.90281 0.90615 0.38502 0.0
C3811 C 0.90118 0.92418 0.37931 0.0
C3812 C 0.88399 0.93234 0.37845 0.0
C3813 C 0.86845 0.92236 0.38262 0.0
C3814 C 0.8705 0.90443 0.38793 0.0
C3815 C 0.88731 0.89652 0.38936 0.0
C3816 C 0.88601 0.87693 0.39468 0.0
C3817 C 0.89441 0.86468 0.38019 0.0
C3818 C 0.89466 0.87368 0.41322 0.0
C3819 C 0.86581 0.8748 0.39547 0.0
C3820 C 0.85703 0.89079 0.39161 0.0
C3821 C 0.83831 0.89163 0.39008 0.0
C3822 C 0.82839 0.87569 0.39237 0.0
C3823 C 0.83723 0.85924 0.39627 0.0
C3824 C 0.85613 0.85893 0.39808 0.0
H3825 H 0.86111 0.16243 0.13748 0.0
H3826 H 0.83448 0.13673 0.09232 0.0
H3827 H 0.85212 0.10891 0.09777 0.0
H3828 H 0.90413 0.14508 0.12814 0.0
H3829 H 0.91063 0.14244 0.15139 0.0
H3830 H 0.89444 0.15938 0.1452 0.0
H3831 H 0.87161 0.14587 0.16789 0.0
H3832 H 0.88774 0.1288 0.17409 0.0
H3833 H 0.86565 0.12238 0.16631 0.0
H3834 H 0.87365 0.08453 0.10734 0.0
H3835 H 0.8991 0.06629 0.1185 0.0
H3836 H 0.91284 0.1088 0.15628 0.0
C3837 C 0.85878 0.15079 0.12899 0.0
C3838 C 0.84635 0.15155 0.11462 0.0
C3839 C 0.84394 0.13631 0.10343 0.0
C3840 C 0.8538 0.12047 0.1065 0.0
C3841 C 0.86607 0.12019 0.12073 0.0
C3842 C 0.86869 0.135 0.1317 0.0
C3843 C 0.88382 0.13181 0.14501 0.0
C3844 C 0.89916 0.14548 0.14226 0.0
C3845 C 0.87678 0.13223 0.16448 0.0
C3846 C 0.88952 0.11298 0.13963 0.0
C3847 C 0.87893 0.1064 0.12581 0.0
C3848 C 0.88202 0.08954 0.11818 0.0
C3849 C 0.8966 0.07933 0.12454 0.0
C3850 C 0.90809 0.08612 0.13822 0.0
C3851 C 0.90418 0.10304 0.14605 0.0
H3852 H 0.3469 0.6504 0.61566 0.0
H3853 H 0.34649 0.69512 0.65326 0.0
H3854 H 0.37001 0.68018 0.67141 0.0
H3855 H 0.35493 0.61483 0.65014 0.0
H3856 H 0.36922 0.602 0.63527 0.0
H3857 H 0.35118 0.61547 0.62615 0.0
H3858 H 0.37399 0.6321 0.60563 0.0
H3859 H 0.39209 0.61878 0.61475 0.0
H3860 H 0.39324 0.64302 0.61564 0.0
H3861 H 0.39619 0.66243 0.6831 0.0
H3862 H 0.42197 0.64236 0.68852 0.0
H3863 H 0.40345 0.60746 0.64522 0.0
C3864 C 0.35158 0.65685 0.62788 0.0
C3865 C 0.34481 0.67382 0.63315 0.0
C3866 C 0.3513 0.68196 0.64916 0.0
C3867 C 0.36469 0.67361 0.65952 0.0
C3868 C 0.37126 0.65699 0.65386 0.0
C3869 C 0.36474 0.64854 0.63858 0.0
C3870 C 0.37459 0.631 0.63515 0.0
C3871 C 0.36171 0.61487 0.63678 0.0
C3872 C 0.38404 0.63125 0.6167 0.0
C3873 C 0.38809 0.63128 0.65047 0.0
C3874 C 0.38592 0.64635 0.66112 0.0
C3875 C 0.39776 0.65032 0.67513 0.0
C3876 C 0.41235 0.6387 0.67819 0.0
C3877 C 0.41495 0.62312 0.6674 0.0
C3878 C 0.40225 0.61927 0.65366 0.0
H3879 H 0.10547 0.65862 0.40773 0.0
H3880 H 0.15434 0.62685 0.40942 0.0
H3881 H 0.13628 0.59883 0.40726 0.0
H3882 H 0.07638 0.62588 0.43317 0.0
H3883 H 0.05706 0.63078 0.41932 0.0
H3884 H 0.07355 0.64806 0.42366 0.0
H3885 H 0.07794 0.6528 0.38934 0.0
H3886 H 0.06133 0.63577 0.38494 0.0
H3887 H 0.08354 0.63375 0.37535 0.0
H3888 H 0.11346 0.57505 0.39973 0.0
H3889 H 0.08769 0.5575 0.38778 0.0
H3890 H 0.05346 0.6044 0.39272 0.0
C3891 C 0.11222 0.64569 0.40815 0.0
C3892 C 0.13116 0.64468 0.40894 0.0
C3893 C 0.13977 0.6277 0.40903 0.0
C3894 C 0.12963 0.61179 0.40786 0.0
C3895 C 0.11091 0.61316 0.40682 0.0
C3896 C 0.10227 0.62969 0.40713 0.0
C3897 C 0.08218 0.6276 0.40425 0.0
C3898 C 0.07167 0.63342 0.4211 0.0
C3899 C 0.07589 0.63809 0.38747 0.0
C3900 C 0.08097 0.60743 0.4014 0.0
C3901 C 0.09764 0.59928 0.40315 0.0
C3902 C 0.10024 0.58114 0.39889 0.0
C3903 C 0.08557 0.57125 0.39219 0.0
C3904 C 0.06854 0.57949 0.39002 0.0
C3905 C 0.06615 0.59763 0.39514 0.0
H3906 H 0.31907 0.35976 0.87483 0.0
H3907 H 0.33914 0.31742 0.8395 0.0
H3908 H 0.36169 0.33805 0.82774 0.0
H3909 H 0.33137 0.39955 0.84612 0.0
H3910 H 0.33875 0.41223 0.86547 0.0
H3911 H 0.32073 0.3961 0.86767 0.0
H3912 H 0.33835 0.38009 0.89321 0.0
H3913 H 0.35648 0.39597 0.89096 0.0
H3914 H 0.36092 0.37218 0.88896 0.0
H3915 H 0.3855 0.36069 0.82343 0.0
H3916 H 0.40888 0.38387 0.82714 0.0
H3917 H 0.37597 0.41077 0.86729 0.0
C3918 C 0.32794 0.35475 0.86443 0.0
C3919 C 0.32689 0.33669 0.85822 0.0
C3920 C 0.33888 0.33114 0.84434 0.0
C3921 C 0.35204 0.3428 0.83758 0.0
C3922 C 0.35332 0.36001 0.84484 0.0
C3923 C 0.34159 0.36603 0.85793 0.0
C3924 C 0.34758 0.3841 0.86541 0.0
C3925 C 0.33378 0.39887 0.86089 0.0
C3926 C 0.35104 0.38301 0.88584 0.0
C3927 C 0.36495 0.38682 0.85505 0.0
C3928 C 0.36772 0.37298 0.84291 0.0
C3929 C 0.38332 0.37181 0.83259 0.0
C3930 C 0.39652 0.38507 0.83479 0.0
C3931 C 0.39419 0.39924 0.84738 0.0
C3932 C 0.37809 0.40016 0.85751 0.0
H3933 H 0.63419 0.60628 0.90548 0.0
H3934 H 0.68784 0.59174 0.88714 0.0
H3935 H 0.68819 0.61841 0.86749 0.0
H3936 H 0.61812 0.61503 0.86366 0.0
H3937 H 0.60344 0.63334 0.86993 0.0
H3938 H 0.60911 0.61632 0.88617 0.0
H3939 H 0.62109 0.64078 0.90801 0.0
H3940 H 0.61531 0.65797 0.89184 0.0
H3941 H 0.638 0.65643 0.90037 0.0
H3942 H 0.6809 0.64339 0.84616 0.0
H3943 H 0.66616 0.66376 0.82432 0.0
H3944 H 0.61631 0.66014 0.85447 0.0
C3945 C 0.64618 0.60878 0.89758 0.0
C3946 C 0.66098 0.59677 0.89794 0.0
C3947 C 0.67644 0.60083 0.88749 0.0
C3948 C 0.67675 0.61596 0.87617 0.0
C3949 C 0.66151 0.62691 0.87543 0.0
C3950 C 0.64652 0.62352 0.88591 0.0
C3951 C 0.63089 0.63556 0.8807 0.0
C3952 C 0.61443 0.62439 0.87476 0.0
C3953 C 0.62605 0.64846 0.89615 0.0
C3954 C 0.63914 0.64562 0.86504 0.0
C3955 C 0.65698 0.64085 0.86255 0.0
C3956 C 0.66706 0.64749 0.84818 0.0
C3957 C 0.6586 0.65904 0.83586 0.0
C3958 C 0.64016 0.66353 0.83783 0.0
C3959 C 0.63045 0.65697 0.85277 0.0
H3960 H 0.67737 0.38526 0.12744 0.0
H3961 H 0.65019 0.3801 0.17886 0.0
H3962 H 0.62458 0.3649 0.16377 0.0
H3963 H 0.63817 0.39411 0.10059 0.0
H3964 H 0.64621 0.38124 0.08163 0.0
H3965 H 0.66203 0.39179 0.09668 0.0
H3966 H 0.67735 0.36084 0.10202 0.0
H3967 H 0.66136 0.35014 0.08722 0.0
H3968 H 0.66406 0.34215 0.11 0.0
H3969 H 0.60156 0.35134 0.14272 0.0
H3970 H 0.58272 0.34086 0.1172 0.0
H3971 H 0.62596 0.35357 0.08012 0.0
C3972 C 0.66591 0.38113 0.13546 0.0
C3973 C 0.66558 0.38395 0.15423 0.0
C3974 C 0.65059 0.37804 0.16442 0.0
C3975 C 0.63606 0.36939 0.15599 0.0
C3976 C 0.63692 0.36656 0.13745 0.0
C3977 C 0.65147 0.37226 0.12732 0.0
C3978 C 0.64917 0.36758 0.10765 0.0
C3979 C 0.64887 0.3847 0.09595 0.0
C3980 C 0.66386 0.35439 0.10136 0.0
C3981 C 0.63092 0.35859 0.10821 0.0
C3982 C 0.62405 0.35811 0.12551 0.0
C3983 C 0.60689 0.35142 0.12916 0.0
C3984 C 0.59633 0.34546 0.11465 0.0
C3985 C 0.6031 0.3461 0.09685 0.0
C3986 C 0.62072 0.35243 0.09369 0.0
H3987 H 0.87565 0.37029 0.32742 0.0
H3988 H 0.93011 0.36196 0.34693 0.0
H3989 H 0.92447 0.38365 0.37169 0.0
H3990 H 0.87384 0.41737 0.33606 0.0
H3991 H 0.85044 0.4171 0.34253 0.0
H3992 H 0.85885 0.40061 0.32687 0.0
H3993 H 0.84711 0.37498 0.3475 0.0
H3994 H 0.83872 0.39141 0.36326 0.0
H3995 H 0.85414 0.37418 0.37074 0.0
H3996 H 0.91244 0.40679 0.39438 0.0
H3997 H 0.89554 0.42951 0.41209 0.0
H3998 H 0.84957 0.42247 0.37659 0.0
C3999 C 0.88634 0.37282 0.33703 0.0
C4000 C 0.90327 0.36433 0.33534 0.0
C4001 C 0.91704 0.36837 0.34794 0.0
C4002 C 0.91393 0.38059 0.36209 0.0
C4003 C 0.89701 0.3887 0.36336 0.0
C4004 C 0.8835 0.38498 0.35109 0.0
C4005 C 0.86669 0.39578 0.35495 0.0
C4006 C 0.8622 0.40847 0.33917 0.0
C4007 C 0.85073 0.38334 0.35938 0.0
C4008 C 0.87278 0.40617 0.37136 0.0
C4009 C 0.89026 0.40193 0.37612 0.0
C4010 C 0.89872 0.41016 0.39076 0.0
C4011 C 0.88904 0.4231 0.40071 0.0
C4012 C 0.87111 0.42766 0.39594 0.0
C4013 C 0.86303 0.419 0.38101 0.0
H4014 H 0.82931 0.61661 0.62212 0.0
H4015 H 0.85858 0.57261 0.64688 0.0
H4016 H 0.88262 0.57563 0.62371 0.0
H4017 H 0.84011 0.60481 0.57573 0.0
H4018 H 0.8415 0.62807 0.56888 0.0
H4019 H 0.82669 0.62163 0.58698 0.0
H4020 H 0.84225 0.64481 0.608 0.0
H4021 H 0.85711 0.65128 0.59001 0.0
H4022 H 0.86631 0.64374 0.61119 0.0
H4023 H 0.90457 0.58563 0.5984 0.0
H4024 H 0.92122 0.60078 0.57359 0.0
H4025 H 0.87565 0.63645 0.56535 0.0
C4026 C 0.84077 0.60757 0.62262 0.0
C4027 C 0.84229 0.59451 0.63628 0.0
C4028 C 0.85729 0.58272 0.63644 0.0
C4029 C 0.87095 0.58436 0.62337 0.0
C4030 C 0.86913 0.59762 0.61013 0.0
C4031 C 0.85424 0.60884 0.60962 0.0
C4032 C 0.85529 0.62211 0.59429 0.0
C4033 C 0.83999 0.61896 0.58066 0.0
C4034 C 0.85525 0.64163 0.6013 0.0
C4035 C 0.87334 0.61703 0.58647 0.0
C4036 C 0.88123 0.60288 0.59563 0.0
C4037 C 0.89839 0.59661 0.59105 0.0
C4038 C 0.90774 0.60523 0.57693 0.0
C4039 C 0.89988 0.61998 0.56771 0.0
C4040 C 0.88228 0.6255 0.57236 0.0
H4041 H 0.64511 0.39198 0.60894 0.0
H4042 H 0.68855 0.42009 0.63618 0.0
H4043 H 0.69026 0.39568 0.65854 0.0
H4044 H 0.62211 0.38249 0.64656 0.0
H4045 H 0.61371 0.36081 0.63954 0.0
H4046 H 0.61949 0.37737 0.62295 0.0
H4047 H 0.64137 0.35463 0.60794 0.0
H4048 H 0.63571 0.33799 0.62471 0.0
H4049 H 0.6589 0.34426 0.62119 0.0
H4050 H 0.68316 0.37207 0.6813 0.0
H4051 H 0.66632 0.35339 0.7031 0.0
H4052 H 0.62661 0.34138 0.66213 0.0
C4053 C 0.65526 0.39287 0.61938 0.0
C4054 C 0.66671 0.40802 0.62069 0.0
C4055 C 0.67984 0.40851 0.63457 0.0
C4056 C 0.68091 0.39466 0.64739 0.0
C4057 C 0.66885 0.38032 0.64616 0.0
C4058 C 0.65629 0.37933 0.63243 0.0
C4059 C 0.64285 0.36436 0.63573 0.0
C4060 C 0.62341 0.37171 0.63624 0.0
C4061 C 0.64484 0.34942 0.62154 0.0
C4062 C 0.64901 0.35792 0.65406 0.0
C4063 C 0.66445 0.3668 0.65958 0.0
C4064 C 0.67138 0.36467 0.67694 0.0
C4065 C 0.66181 0.35395 0.68923 0.0
C4066 C 0.64536 0.34582 0.68412 0.0
C4067 C 0.6394 0.34716 0.66613 0.0
H4068 H 0.8846 0.33403 0.92513 0.0
H4069 H 0.91855 0.37951 0.93929 0.0
H4070 H 0.90323 0.3981 0.91647 0.0
H4071 H 0.88188 0.34303 0.87734 0.0
H4072 H 0.85856 0.33644 0.87573 0.0
H4073 H 0.87288 0.32638 0.89256 0.0
H4074 H 0.85058 0.33625 0.91756 0.0
H4075 H 0.83619 0.34628 0.9008 0.0
H4076 H 0.84431 0.35964 0.91938 0.0
H4077 H 0.88348 0.41213 0.89271 0.0
H4078 H 0.8606 0.42035 0.86985 0.0
H4079 H 0.83899 0.36607 0.87241 0.0
C4080 C 0.88883 0.34788 0.92342 0.0
C4081 C 0.90295 0.3552 0.93384 0.0
C4082 C 0.90808 0.37342 0.93116 0.0
C4083 C 0.89938 0.38416 0.91832 0.0
C4084 C 0.88551 0.37653 0.9083 0.0
C4085 C 0.88024 0.35882 0.91072 0.0
C4086 C 0.86458 0.35405 0.89862 0.0
C4087 C 0.86979 0.33909 0.88527 0.0
C4088 C 0.84793 0.34875 0.90976 0.0
C4089 C 0.86182 0.37186 0.88911 0.0
C4090 C 0.87404 0.38465 0.8948 0.0
C4091 C 0.87386 0.40221 0.88809 0.0
C4092 C 0.86079 0.40678 0.8752 0.0
C4093 C 0.84813 0.39382 0.86922 0.0
C4094 C 0.84873 0.37618 0.87636 0.0
H4095 H 0.85307 0.59787 0.08467 0.0
H4096 H 0.90114 0.56465 0.08711 0.0
H4097 H 0.91583 0.58714 0.10646 0.0
H4098 H 0.87729 0.64234 0.08573 0.0
H4099 H 0.86015 0.6525 0.09961 0.0
H4100 H 0.85421 0.63504 0.08381 0.0
H4101 H 0.83982 0.61654 0.10967 0.0
H4102 H 0.84577 0.63386 0.12552 0.0
H4103 H 0.85317 0.61103 0.12922 0.0
H4104 H 0.92338 0.61011 0.12922 0.0
H4105 H 0.92383 0.63281 0.15311 0.0
H4106 H 0.87226 0.6534 0.13418 0.0
C4107 C 0.86681 0.59557 0.08899 0.0
C4108 C 0.87605 0.57965 0.0842 0.0
C4109 C 0.89395 0.57695 0.09027 0.0
C4110 C 0.90242 0.58963 0.10132 0.0
C4111 C 0.8929 0.60506 0.10601 0.0
C4112 C 0.87559 0.60824 0.09989 0.0
C4113 C 0.86799 0.62535 0.10802 0.0
C4114 C 0.86472 0.63966 0.09342 0.0
C4115 C 0.85067 0.62145 0.11875 0.0
C4116 C 0.88338 0.6307 0.12033 0.0
C4117 C 0.89766 0.61889 0.11882 0.0
C4118 C 0.91255 0.61983 0.13017 0.0
C4119 C 0.91271 0.63296 0.14369 0.0
C4120 C 0.89815 0.64521 0.14571 0.0
C4121 C 0.88359 0.64428 0.13336 0.0
H4122 H 0.58597 0.64687 0.39673 0.0
H4123 H 0.59054 0.5974 0.42751 0.0
H4124 H 0.60704 0.58324 0.40246 0.0
H4125 H 0.58218 0.62456 0.35111 0.0
H4126 H 0.59536 0.64203 0.34059 0.0
H4127 H 0.5812 0.64729 0.35961 0.0
H4128 H 0.60877 0.6606 0.37642 0.0
H4129 H 0.62298 0.65531 0.35756 0.0
H4130 H 0.62854 0.64682 0.37963 0.0
H4131 H 0.62759 0.57662 0.37735 0.0
H4132 H 0.64986 0.5773 0.3531 0.0
H4133 H 0.63002 0.62993 0.33654 0.0
C4134 C 0.59011 0.63294 0.39796 0.0
C4135 C 0.58692 0.62316 0.41392 0.0
C4136 C 0.59262 0.605 0.41523 0.0
C4137 C 0.60198 0.59685 0.40109 0.0
C4138 C 0.60526 0.60696 0.38565 0.0
C4139 C 0.59929 0.62451 0.38386 0.0
C4140 C 0.60599 0.63287 0.36652 0.0
C4141 C 0.59024 0.63692 0.3537 0.0
C4142 C 0.61724 0.6499 0.37027 0.0
C4143 C 0.61754 0.61763 0.35945 0.0
C4144 C 0.61673 0.60275 0.37058 0.0
C4145 C 0.6279 0.58791 0.36814 0.0
C4146 C 0.64049 0.58841 0.35415 0.0
C4147 C 0.64174 0.60361 0.34261 0.0
C4148 C 0.62963 0.61812 0.34507 0.0
H4149 H 0.62534 0.82141 0.60652 0.0
H4150 H 0.67507 0.85129 0.59995 0.0
H4151 H 0.66027 0.87863 0.61201 0.0
H4152 H 0.59453 0.85785 0.59514 0.0
H4153 H 0.57821 0.85135 0.61189 0.0
H4154 H 0.5925 0.83457 0.60175 0.0
H4155 H 0.60333 0.82473 0.63347 0.0
H4156 H 0.58923 0.84163 0.64369 0.0
H4157 H 0.61305 0.84123 0.64841 0.0
H4158 H 0.64009 0.90255 0.62494 0.0
H4159 H 0.61593 0.92142 0.63809 0.0
H4160 H 0.57983 0.87551 0.63754 0.0
C4161 C 0.63297 0.83382 0.60734 0.0
C4162 C 0.65125 0.83439 0.60217 0.0
C4163 C 0.66101 0.85069 0.60381 0.0
C4164 C 0.65273 0.86623 0.61064 0.0
C4165 C 0.63476 0.86516 0.61592 0.0
C4166 C 0.62499 0.84938 0.61437 0.0
C4167 C 0.60607 0.85165 0.62164 0.0
C4168 C 0.592 0.84868 0.60671 0.0
C4169 C 0.60273 0.83906 0.63776 0.0
C4170 C 0.60671 0.87118 0.62749 0.0
C4171 C 0.62334 0.87876 0.62398 0.0
C4172 C 0.62703 0.89676 0.62782 0.0
C4173 C 0.61328 0.90735 0.63527 0.0
C4174 C 0.59615 0.89983 0.63897 0.0
C4175 C 0.59292 0.88148 0.63515 0.0
H4176 H 0.97395 0.26866 0.31089 0.0
H4177 H 0.96588 0.27388 0.25318 0.0
H4178 H 0.9932 0.25589 0.24779 0.0
H4179 H 0.02272 0.27071 0.3103 0.0
H4180 H 0.02532 0.25417 0.32789 0.0
H4181 H 0.00554 0.26823 0.32728 0.0
H4182 H 0.98526 0.23983 0.32714 0.0
H4183 H 0.00497 0.22569 0.32776 0.0
H4184 H 0.98857 0.22289 0.31006 0.0
H4185 H 0.02069 0.23631 0.24857 0.0
H4186 H 0.04669 0.21685 0.25548 0.0
H4187 H 0.03661 0.22363 0.31267 0.0
C4188 C 0.97787 0.26602 0.29711 0.0
C4189 C 0.9677 0.27282 0.28248 0.0
C4190 C 0.97351 0.26915 0.26465 0.0
C4191 C 0.98899 0.25882 0.26143 0.0
C4192 C 0.99858 0.25225 0.27616 0.0
C4193 C 0.99329 0.25572 0.29365 0.0
C4194 C 0.00578 0.24672 0.30707 0.0
C4195 C 0.01541 0.2608 0.31883 0.0
C4196 C 0.99553 0.23296 0.31869 0.0
C4197 C 0.01882 0.23749 0.29438 0.0
C4198 C 0.01443 0.24089 0.27661 0.0
C4199 C 0.02426 0.23356 0.26243 0.0
C4200 C 0.03894 0.2224 0.26651 0.0
C4201 C 0.04368 0.21861 0.28463 0.0
C4202 C 0.03348 0.2264 0.2987 0.0
H4203 H 0.03551 0.77544 0.52634 0.0
H4204 H 0.99714 0.81576 0.50903 0.0
H4205 H 0.97533 0.79178 0.50107 0.0
H4206 H 0.02311 0.73963 0.49341 0.0
H4207 H 0.02565 0.72196 0.50988 0.0
H4208 H 0.03922 0.74204 0.51144 0.0
H4209 H 0.02788 0.74718 0.54405 0.0
H4210 H 0.01427 0.7272 0.54257 0.0
H4211 H 0.004 0.74845 0.54828 0.0
H4212 H 0.95699 0.76369 0.49719 0.0
H4213 H 0.94255 0.73379 0.49987 0.0
H4214 H 0.99223 0.71178 0.52131 0.0
C4215 C 0.02269 0.77906 0.5204 0.0
C4216 C 0.01797 0.79729 0.51797 0.0
C4217 C 0.0009 0.80177 0.51078 0.0
C4218 C 0.98853 0.78827 0.50618 0.0
C4219 C 0.9934 0.77037 0.50904 0.0
C4220 C 0.01004 0.76572 0.51608 0.0
C4221 C 0.01114 0.74567 0.51973 0.0
C4222 C 0.02564 0.73681 0.5079 0.0
C4223 C 0.01451 0.74192 0.53985 0.0
C4224 C 0.99241 0.73986 0.51407 0.0
C4225 C 0.98252 0.75424 0.50757 0.0
C4226 C 0.96465 0.75229 0.50209 0.0
C4227 C 0.95658 0.73527 0.50359 0.0
C4228 C 0.96627 0.72051 0.5108 0.0
C4229 C 0.98449 0.72285 0.51582 0.0
H4230 H 0.54924 0.74783 0.7659 0.0
H4231 H 0.55157 0.74208 0.82403 0.0
H4232 H 0.52051 0.75333 0.82645 0.0
H4233 H 0.52296 0.78903 0.76566 0.0
H4234 H 0.50984 0.78287 0.74617 0.0
H4235 H 0.53241 0.77433 0.74879 0.0
H4236 H 0.52049 0.74166 0.74588 0.0
H4237 H 0.49787 0.7501 0.74327 0.0
H4238 H 0.5029 0.73402 0.76077 0.0
H4239 H 0.4892 0.76417 0.82287 0.0
H4240 H 0.45946 0.77556 0.81349 0.0
H4241 H 0.47676 0.77532 0.7577 0.0
C4242 C 0.54317 0.74894 0.7791 0.0
C4243 C 0.55293 0.74419 0.79479 0.0
C4244 C 0.54454 0.74593 0.81185 0.0
C4245 C 0.52683 0.75219 0.81337 0.0
C4246 C 0.51762 0.75678 0.7977 0.0
C4247 C 0.52546 0.75537 0.78089 0.0
C4248 C 0.51245 0.76143 0.76628 0.0
C4249 C 0.51986 0.77789 0.75613 0.0
C4250 C 0.50818 0.74588 0.75328 0.0
C4251 C 0.49613 0.7664 0.77757 0.0
C4252 C 0.49944 0.76344 0.79564 0.0
C4253 C 0.48643 0.76658 0.80876 0.0
C4254 C 0.46954 0.77294 0.8033 0.0
C4255 C 0.4658 0.77625 0.78489 0.0
C4256 C 0.47933 0.77302 0.77187 0.0
H4257 H 0.51032 0.28374 0.05813 0.0
H4258 H 0.52638 0.28903 0.00224 0.0
H4259 H 0.51334 0.259 0.99573 0.0
H4260 H 0.51893 0.23596 0.06229 0.0
H4261 H 0.49974 0.23229 0.07669 0.0
H4262 H 0.51108 0.25374 0.07686 0.0
H4263 H 0.48092 0.26985 0.06961 0.0
H4264 H 0.4695 0.24847 0.06945 0.0
H4265 H 0.46817 0.26306 0.05008 0.0
H4266 H 0.49662 0.2289 0.99528 0.0
H4267 H 0.47892 0.20121 0.00122 0.0
H4268 H 0.47426 0.2165 0.05739 0.0
C4269 C 0.51108 0.27863 0.04451 0.0
C4270 C 0.51927 0.28876 0.03067 0.0
C4271 C 0.52028 0.28143 0.01307 0.0
C4272 C 0.51285 0.26443 0.00925 0.0
C4273 C 0.50465 0.25492 0.02322 0.0
C4274 C 0.50387 0.26176 0.04052 0.0
C4275 C 0.4941 0.24915 0.05314 0.0
C4276 C 0.50672 0.24238 0.06813 0.0
C4277 C 0.47717 0.25817 0.06103 0.0
C4278 C 0.48924 0.23421 0.04023 0.0
C4279 C 0.49541 0.23769 0.02302 0.0
C4280 C 0.49187 0.22599 0.00875 0.0
C4281 C 0.48174 0.21036 0.01221 0.0
C4282 C 0.47536 0.2066 0.02979 0.0
C4283 C 0.47929 0.21873 0.0439 0.0
H4284 H 0.9509 0.7472 0.19294 0.0
H4285 H 0.93488 0.73359 0.24742 0.0
H4286 H 0.96003 0.75173 0.25943 0.0
H4287 H 0.99737 0.74418 0.20003 0.0
H4288 H 0.00317 0.76281 0.18559 0.0
H4289 H 0.98297 0.7501 0.18137 0.0
H4290 H 0.96399 0.77939 0.18299 0.0
H4291 H 0.98418 0.79223 0.18713 0.0
H4292 H 0.96556 0.79358 0.20265 0.0
H4293 H 0.98817 0.76988 0.26537 0.0
H4294 H 0.0173 0.7861 0.26456 0.0
H4295 H 0.01428 0.78805 0.20624 0.0
C4296 C 0.95247 0.74835 0.20738 0.0
C4297 C 0.941 0.73896 0.21923 0.0
C4298 C 0.94369 0.74049 0.23809 0.0
C4299 C 0.95783 0.75088 0.24504 0.0
C4300 C 0.96912 0.75971 0.23296 0.0
C4301 C 0.96655 0.7586 0.21453 0.0
C4302 C 0.98115 0.76852 0.20441 0.0
C4303 C 0.99179 0.75563 0.19214 0.0
C4304 C 0.97324 0.78437 0.19366 0.0
C4305 C 0.99252 0.77505 0.22 0.0
C4306 C 0.9853 0.77003 0.23638 0.0
C4307 C 0.99386 0.77405 0.25262 0.0
C4308 C 0.01036 0.7833 0.25205 0.0
C4309 C 0.01811 0.78824 0.23535 0.0
C4310 C 0.00885 0.78425 0.21921 0.0
H4311 H 0.51013 0.71594 0.44968 0.0
H4312 H 0.50971 0.70072 0.50609 0.0
H4313 H 0.49451 0.72936 0.51367 0.0
H4314 H 0.51948 0.76229 0.45647 0.0
H4315 H 0.50526 0.76996 0.43833 0.0
H4316 H 0.51544 0.74796 0.43728 0.0
H4317 H 0.48397 0.73343 0.43304 0.0
H4318 H 0.4737 0.7554 0.43395 0.0
H4319 H 0.46645 0.73798 0.44922 0.0
H4320 H 0.47979 0.75991 0.51504 0.0
H4321 H 0.46698 0.79023 0.51018 0.0
H4322 H 0.477 0.7852 0.45281 0.0
C4323 C 0.50659 0.7185 0.46358 0.0
C4324 C 0.51106 0.7061 0.4773 0.0
C4325 C 0.50655 0.71012 0.4954 0.0
C4326 C 0.49784 0.72629 0.49982 0.0
C4327 C 0.49378 0.73829 0.48597 0.0
C4328 C 0.498 0.73458 0.46822 0.0
C4329 C 0.49263 0.74993 0.45593 0.0
C4330 C 0.50919 0.75801 0.44645 0.0
C4331 C 0.47833 0.74382 0.44223 0.0
C4332 C 0.48481 0.7629 0.46954 0.0
C4333 C 0.4855 0.75592 0.48678 0.0
C4334 C 0.47911 0.76549 0.50159 0.0
C4335 C 0.47178 0.78266 0.49868 0.0
C4336 C 0.471 0.7901 0.48112 0.0
C4337 C 0.47762 0.78001 0.46642 0.0
H4338 H 0.52491 0.29205 0.71362 0.0
H4339 H 0.54684 0.28845 0.76778 0.0
H4340 H 0.52089 0.26993 0.77694 0.0
H4341 H 0.47789 0.29361 0.72571 0.0
H4342 H 0.471 0.2797 0.70703 0.0
H4343 H 0.49066 0.29378 0.70505 0.0
H4344 H 0.51 0.26594 0.69657 0.0
H4345 H 0.49038 0.25182 0.69834 0.0
H4346 H 0.51025 0.24665 0.71133 0.0
H4347 H 0.49291 0.25095 0.77991 0.0
H4348 H 0.46623 0.23157 0.77595 0.0
H4349 H 0.46403 0.24646 0.7194 0.0
C4350 C 0.5244 0.28737 0.72739 0.0
C4351 C 0.53795 0.2919 0.73996 0.0
C4352 C 0.53651 0.28552 0.75792 0.0
C4353 C 0.52183 0.27492 0.76327 0.0
C4354 C 0.50874 0.27077 0.7505 0.0
C4355 C 0.50996 0.2767 0.73291 0.0
C4356 C 0.49464 0.26961 0.72153 0.0
C4357 C 0.48285 0.2851 0.71442 0.0
C4358 C 0.50175 0.2578 0.70603 0.0
C4359 C 0.48473 0.25854 0.73542 0.0
C4360 C 0.49292 0.25953 0.75209 0.0
C4361 C 0.48638 0.25006 0.7669 0.0
C4362 C 0.47127 0.23899 0.76448 0.0
C4363 C 0.46299 0.23735 0.74733 0.0
C4364 C 0.46974 0.24754 0.73275 0.0
H4365 H 0.99747 0.18907 0.9638 0.0
H4366 H 0.05313 0.19798 0.97946 0.0
H4367 H 0.0463 0.22971 0.98588 0.0
H4368 H 0.99132 0.23149 0.9415 0.0
H4369 H 0.96843 0.2345 0.94903 0.0
H4370 H 0.97742 0.21214 0.94617 0.0
H4371 H 0.96922 0.20452 0.97924 0.0
H4372 H 0.96019 0.22686 0.98218 0.0
H4373 H 0.97749 0.21868 0.99716 0.0
H4374 H 0.034 0.2605 0.98977 0.0
H4375 H 0.01658 0.28865 0.99167 0.0
H4376 H 0.96881 0.26043 0.97321 0.0
C4377 C 0.00819 0.19771 0.96858 0.0
C4378 C 0.0258 0.19094 0.97128 0.0
C4379 C 0.03946 0.20268 0.97763 0.0
C4380 C 0.03576 0.2208 0.9812 0.0
C4381 C 0.01831 0.22703 0.97838 0.0
C4382 C 0.00471 0.21589 0.97228 0.0
C4383 C 0.98716 0.22616 0.97026 0.0
C4384 C 0.98071 0.22606 0.95057 0.0
C4385 C 0.97266 0.2186 0.98297 0.0
C4386 C 0.99312 0.24481 0.97605 0.0
C4387 C 0.01115 0.24496 0.98065 0.0
C4388 C 0.01987 0.26059 0.9862 0.0
C4389 C 0.00988 0.27655 0.98709 0.0
C4390 C 0.99135 0.27678 0.98249 0.0
C4391 C 0.9829 0.26063 0.97695 0.0
H4392 H 0.28517 0.01401 0.21265 0.0
H4393 H 0.28141 0.04902 0.25918 0.0
H4394 H 0.28084 0.02242 0.27924 0.0
H4395 H 0.25659 0.97814 0.2293 0.0
H4396 H 0.27028 0.96042 0.2199 0.0
H4397 H 0.2696 0.9822 0.20921 0.0
H4398 H 0.30437 0.98438 0.21146 0.0
H4399 H 0.30515 0.96264 0.22221 0.0
H4400 H 0.31512 0.98192 0.23311 0.0
H4401 H 0.28 0.99205 0.29413 0.0
H4402 H 0.28106 0.95992 0.30301 0.0
H4403 H 0.28727 0.94461 0.24703 0.0
C4404 C 0.28407 0.01598 0.22706 0.0
C4405 C 0.28325 0.03349 0.23443 0.0
C4406 C 0.28213 0.03568 0.25334 0.0
C4407 C 0.28173 0.02067 0.2648 0.0
C4408 C 0.28268 0.00357 0.25713 0.0
C4409 C 0.28399 0.00113 0.23871 0.0
C4410 C 0.28559 0.98132 0.23402 0.0
C4411 C 0.26956 0.97516 0.22242 0.0
C4412 C 0.30363 0.97734 0.22465 0.0
C4413 C 0.28492 0.97302 0.25266 0.0
C4414 C 0.28303 0.98609 0.26579 0.0
C4415 C 0.28159 0.9817 0.28399 0.0
C4416 C 0.28215 0.96347 0.28891 0.0
C4417 C 0.28439 0.94988 0.27572 0.0
C4418 C 0.28584 0.95477 0.25739 0.0
H4419 H 0.22831 0.01808 0.49862 0.0
H4420 H 0.23163 0.04383 0.44629 0.0
H4421 H 0.26247 0.05413 0.45331 0.0
H4422 H 0.2523 0.05183 0.52345 0.0
H4423 H 0.26376 0.03593 0.5378 0.0
H4424 H 0.24202 0.03043 0.52856 0.0
H4425 H 0.25528 0.00127 0.51467 0.0
H4426 H 0.27703 0.00676 0.52392 0.0
H4427 H 0.27464 0.00273 0.50009 0.0
H4428 H 0.29248 0.06281 0.4666 0.0
H4429 H 0.32022 0.06753 0.4846 0.0
H4430 H 0.29752 0.03548 0.5278 0.0
C4431 C 0.23555 0.0259 0.48867 0.0
C4432 C 0.2276 0.03013 0.4719 0.0
C4433 C 0.23754 0.04024 0.45913 0.0
C4434 C 0.25502 0.04624 0.46303 0.0
C4435 C 0.26243 0.0419 0.47972 0.0
C4436 C 0.25308 0.03183 0.49229 0.0
C4437 C 0.2642 0.02886 0.50915 0.0
C4438 C 0.25502 0.03727 0.52571 0.0
C4439 C 0.26802 0.00871 0.51212 0.0
C4440 C 0.28118 0.03897 0.50413 0.0
C4441 C 0.27988 0.04649 0.48716 0.0
C4442 C 0.29372 0.05688 0.47986 0.0
C4443 C 0.30936 0.05957 0.49017 0.0
C4444 C 0.31105 0.05174 0.50746 0.0
C4445 C 0.29673 0.04134 0.51447 0.0
H4446 H 0.24528 0.96524 0.73063 0.0
H4447 H 0.22273 0.97949 0.67855 0.0
H4448 H 0.21897 0.01081 0.68873 0.0
H4449 H 0.21548 0.99286 0.75689 0.0
H4450 H 0.23246 0.99906 0.77312 0.0
H4451 H 0.23399 0.97781 0.76153 0.0
H4452 H 0.26604 0.98617 0.75052 0.0
H4453 H 0.26452 0.00752 0.76198 0.0
H4454 H 0.26941 0.00683 0.73821 0.0
H4455 H 0.21692 0.04032 0.70456 0.0
H4456 H 0.21587 0.06609 0.72553 0.0
H4457 H 0.23923 0.03285 0.76757 0.0
C4458 C 0.23947 0.97491 0.7214 0.0
C4459 C 0.23446 0.96987 0.70371 0.0
C4460 C 0.22701 0.98303 0.69203 0.0
C4461 C 0.22474 0.00087 0.69771 0.0
C4462 C 0.22996 0.00539 0.71513 0.0
C4463 C 0.2371 0.99282 0.72685 0.0
C4464 C 0.24122 0.0012 0.74502 0.0
C4465 C 0.23012 0.9922 0.76002 0.0
C4466 C 0.26151 0.00038 0.74917 0.0
C4467 C 0.2351 0.02039 0.74169 0.0
C4468 C 0.22873 0.0225 0.72433 0.0
C4469 C 0.22189 0.03885 0.71819 0.0
C4470 C 0.22129 0.05338 0.73021 0.0
C4471 C 0.22745 0.05148 0.74817 0.0
C4472 C 0.23468 0.03479 0.75385 0.0
H4473 H 0.28819 0.96684 0.99426 0.0
H4474 H 0.27093 0.96742 0.93853 0.0
H4475 H 0.23903 0.96594 0.94838 0.0
H4476 H 0.25601 0.93626 0.01077 0.0
H4477 H 0.25262 0.94768 0.03193 0.0
H4478 H 0.27385 0.94963 0.02042 0.0
H4479 H 0.2709 0.98442 0.02074 0.0
H4480 H 0.24963 0.98255 0.03228 0.0
H4481 H 0.25104 0.99484 0.01138 0.0
H4482 H 0.20938 0.96089 0.96448 0.0
H4483 H 0.18406 0.95555 0.98566 0.0
H4484 H 0.22059 0.9609 0.03078 0.0
C4485 C 0.27764 0.96676 0.98418 0.0
C4486 C 0.2819 0.96711 0.96565 0.0
C4487 C 0.26784 0.96722 0.95278 0.0
C4488 C 0.24975 0.96634 0.95826 0.0
C4489 C 0.246 0.96578 0.97667 0.0
C4490 C 0.25956 0.9663 0.98944 0.0
C4491 C 0.25199 0.96545 0.00836 0.0
C4492 C 0.25904 0.94876 0.01846 0.0
C4493 C 0.25614 0.98286 0.0188 0.0
C4494 C 0.23208 0.96385 0.00427 0.0
C4495 C 0.22888 0.96397 0.98591 0.0
C4496 C 0.21168 0.96118 0.97887 0.0
C4497 C 0.19742 0.95812 0.99092 0.0
C4498 C 0.20044 0.95819 0.00973 0.0
C4499 C 0.21793 0.96131 0.01645 0.0
H4500 H 0.27396 0.27827 0.97002 0.0
H4501 H 0.2295 0.2639 0.93496 0.0
H4502 H 0.21045 0.25782 0.96152 0.0
H4503 H 0.26463 0.24528 0.00552 0.0
H4504 H 0.27065 0.26051 0.02345 0.0
H4505 H 0.28121 0.2626 0.0017 0.0
H4506 H 0.27109 0.29597 -4e-05 0.0
H4507 H 0.26048 0.29397 0.02166 0.0
H4508 H 0.24757 0.30145 0.0025 0.0
H4509 H 0.19599 0.25421 0.99159 0.0
H4510 H 0.18647 0.25451 0.02334 0.0
H4511 H 0.24007 0.27159 0.03932 0.0
C4512 C 0.2603 0.27358 0.968 0.0
C4513 C 0.25318 0.27151 0.95046 0.0
C4514 C 0.23514 0.2657 0.94829 0.0
C4515 C 0.22427 0.26211 0.96328 0.0
C4516 C 0.23162 0.26446 0.98038 0.0
C4517 C 0.24919 0.27012 0.98286 0.0
C4518 C 0.25341 0.27248 0.00271 0.0
C4519 C 0.26836 0.25944 0.00869 0.0
C4520 C 0.25843 0.29214 0.00695 0.0
C4521 C 0.23542 0.26744 0.01096 0.0
C4522 C 0.22313 0.26268 0.99782 0.0
C4523 C 0.20553 0.25778 0.00202 0.0
C4524 C 0.20028 0.25788 0.02014 0.0
C4525 C 0.21254 0.26295 0.03388 0.0
C4526 C 0.23038 0.26771 0.02914 0.0
H4527 H 0.7787 0.22233 0.03297 0.0
H4528 H 0.73543 0.19699 0.06293 0.0
H4529 H 0.71522 0.20044 0.03681 0.0
H4530 H 0.75057 0.25489 0.00882 0.0
H4531 H 0.7633 0.25305 0.98823 0.0
H4532 H 0.77422 0.24939 0.00961 0.0
H4533 H 0.78492 0.21797 0.99884 0.0
H4534 H 0.77402 0.22152 0.97745 0.0
H4535 H 0.76857 0.20194 0.99074 0.0
H4536 H 0.69983 0.2058 0.00721 0.0
H4537 H 0.69069 0.21186 0.97585 0.0
H4538 H 0.74371 0.23392 0.96486 0.0
C4539 C 0.76491 0.21772 0.03407 0.0
C4540 C 0.7587 0.20931 0.05 0.0
C4541 C 0.74061 0.20323 0.05082 0.0
C4542 C 0.72896 0.20525 0.03609 0.0
C4543 C 0.73555 0.2134 0.02054 0.0
C4544 C 0.75309 0.21953 0.01939 0.0
C4545 C 0.75692 0.22716 0.00082 0.0
C4546 C 0.76152 0.24732 0.00194 0.0
C4547 C 0.772 0.21651 0.99141 0.0
C4548 C 0.73886 0.22417 0.99171 0.0
C4549 C 0.72668 0.21636 0.00337 0.0
C4550 C 0.70922 0.21203 0.99797 0.0
C4551 C 0.7041 0.21562 0.98011 0.0
C4552 C 0.71642 0.22339 0.96777 0.0
C4553 C 0.73399 0.22783 0.97383 0.0
H4554 H 0.02377 0.46701 0.21833 0.0
H4555 H 0.03172 0.51229 0.18236 0.0
H4556 H 0.0247 0.53332 0.20722 0.0
H4557 H 0.98699 0.48708 0.24545 0.0
H4558 H 0.99532 0.47739 0.2661 0.0
H4559 H 0.99894 0.46594 0.245 0.0
H4560 H 0.03329 0.46544 0.25118 0.0
H4561 H 0.0298 0.47694 0.27222 0.0
H4562 H 0.04488 0.4863 0.25567 0.0
H4563 H 0.01906 0.54937 0.23643 0.0
H4564 H 0.01634 0.55932 0.26799 0.0
H4565 H 0.01208 0.50356 0.28508 0.0
C4566 C 0.02358 0.48133 0.21561 0.0
C4567 C 0.02818 0.48806 0.19841 0.0
C4568 C 0.0283 0.50691 0.19547 0.0
C4569 C 0.02422 0.51892 0.20946 0.0
C4570 C 0.02006 0.51188 0.22635 0.0
C4571 C 0.0197 0.49352 0.22949 0.0
C4572 C 0.01621 0.48948 0.24919 0.0
C4573 C 0.99829 0.47938 0.25157 0.0
C4574 C 0.03199 0.47892 0.25755 0.0
C4575 C 0.01509 0.50843 0.2567 0.0
C4576 C 0.01709 0.52115 0.24327 0.0
C4577 C 0.01726 0.53954 0.24704 0.0
C4578 C 0.01561 0.54507 0.26504 0.0
C4579 C 0.01395 0.53225 0.2791 0.0
C4580 C 0.01343 0.51371 0.27471 0.0
H4581 H 0.74632 0.78017 0.52276 0.0
H4582 H 0.68875 0.77809 0.51349 0.0
H4583 H 0.69402 0.77788 0.48052 0.0
H4584 H 0.75756 0.8091 0.48671 0.0
H4585 H 0.77827 0.79769 0.48118 0.0
H4586 H 0.76982 0.79704 0.50388 0.0
H4587 H 0.77046 0.76213 0.50314 0.0
H4588 H 0.77887 0.7627 0.48038 0.0
H4589 H 0.75862 0.75033 0.48551 0.0
H4590 H 0.70576 0.78089 0.44863 0.0
H4591 H 0.72316 0.7846 0.42032 0.0
H4592 H 0.77293 0.78238 0.45065 0.0
C4593 C 0.73487 0.77964 0.51374 0.0
C4594 C 0.71713 0.77927 0.52054 0.0
C4595 C 0.70242 0.77831 0.50844 0.0
C4596 C 0.7053 0.77822 0.48975 0.0
C4597 C 0.72299 0.77872 0.48346 0.0
C4598 C 0.73753 0.77916 0.49511 0.0
C4599 C 0.75519 0.77968 0.48497 0.0
C4600 C 0.76583 0.79691 0.48945 0.0
C4601 C 0.76645 0.7627 0.48873 0.0
C4602 C 0.74833 0.77993 0.46578 0.0
C4603 C 0.72972 0.77944 0.46516 0.0
C4604 C 0.72033 0.78092 0.44893 0.0
C4605 C 0.73025 0.78305 0.43297 0.0
C4606 C 0.74929 0.7834 0.43339 0.0
C4607 C 0.75838 0.7816 0.44998 0.0
H4608 H 0.94861 0.0017 0.21299 0.0
H4609 H 0.00562 0.01288 0.20748 0.0
H4610 H 0.01122 0.99927 0.2374 0.0
H4611 H 0.94549 0.01363 0.25802 0.0
H4612 H 0.92927 0.99657 0.26395 0.0
H4613 H 0.93025 0.00491 0.24124 0.0
H4614 H 0.93469 0.97234 0.22939 0.0
H4615 H 0.93375 0.96389 0.25213 0.0
H4616 H 0.9529 0.95881 0.23809 0.0
H4617 H 0.01012 0.98635 0.26894 0.0
H4618 H 0.00202 0.97771 0.30015 0.0
H4619 H 0.94574 0.97563 0.28483 0.0
C4620 C 0.96232 0.00086 0.2179 0.0
C4621 C 0.9767 0.00819 0.20792 0.0
C4622 C 0.99441 0.00738 0.21499 0.0
C4623 C 0.99773 0.99953 0.23187 0.0
C4624 C 0.98318 0.99259 0.24148 0.0
C4625 C 0.96581 0.99325 0.23475 0.0
C4626 C 0.95228 0.98651 0.24838 0.0
C4627 C 0.93852 0.00129 0.25318 0.0
C4628 C 0.94285 0.96937 0.24159 0.0
C4629 C 0.96466 0.98243 0.26402 0.0
C4630 C 0.98248 0.98564 0.25972 0.0
C4631 C 0.99623 0.9836 0.27239 0.0
C4632 C 0.99155 0.97862 0.29004 0.0
C4633 C 0.97328 0.97606 0.29481 0.0
C4634 C 0.9598 0.97757 0.2815 0.0
H4635 H 0.26299 0.72621 0.52777 0.0
H4636 H 0.27735 0.67041 0.53712 0.0
H4637 H 0.26599 0.66232 0.50694 0.0
H4638 H 0.22174 0.71706 0.50585 0.0
H4639 H 0.22325 0.73507 0.48964 0.0
H4640 H 0.23437 0.73713 0.51111 0.0
H4641 H 0.26477 0.74291 0.49503 0.0
H4642 H 0.25372 0.74097 0.47348 0.0
H4643 H 0.27285 0.72692 0.47864 0.0
H4644 H 0.25132 0.65968 0.47735 0.0
H4645 H 0.23377 0.66215 0.44971 0.0
H4646 H 0.22805 0.71985 0.4584 0.0
C4647 C 0.26409 0.71241 0.52319 0.0
C4648 C 0.27117 0.6989 0.53463 0.0
C4649 C 0.27199 0.68088 0.52849 0.0
C4650 C 0.26562 0.6762 0.51138 0.0
C4651 C 0.25837 0.68969 0.50054 0.0
C4652 C 0.25753 0.70743 0.50611 0.0
C4653 C 0.24784 0.71893 0.49216 0.0
C4654 C 0.23079 0.72755 0.50017 0.0
C4655 C 0.26056 0.73328 0.48436 0.0
C4656 C 0.24314 0.70477 0.47811 0.0
C4657 C 0.24955 0.68808 0.48324 0.0
C4658 C 0.24644 0.67272 0.47302 0.0
C4659 C 0.23643 0.67435 0.45715 0.0
C4660 C 0.2295 0.69126 0.45142 0.0
C4661 C 0.23307 0.7067 0.46215 0.0
H4662 H 0.43437 0.49768 0.79767 0.0
H4663 H 0.48951 0.49686 0.81707 0.0
H4664 H 0.49939 0.5125 0.7894 0.0
H4665 H 0.44424 0.48898 0.75208 0.0
H4666 H 0.42702 0.50365 0.74323 0.0
H4667 H 0.42412 0.49331 0.76497 0.0
H4668 H 0.41952 0.52471 0.77955 0.0
H4669 H 0.4222 0.53514 0.75781 0.0
H4670 H 0.43633 0.54193 0.77636 0.0
H4671 H 0.50331 0.52719 0.75909 0.0
H4672 H 0.50095 0.54033 0.72866 0.0
H4673 H 0.44311 0.53183 0.72945 0.0
C4674 C 0.44846 0.50112 0.79631 0.0
C4675 C 0.46117 0.49609 0.80957 0.0
C4676 C 0.47957 0.50046 0.80702 0.0
C4677 C 0.48529 0.50939 0.7914 0.0
C4678 C 0.47243 0.51387 0.77847 0.0
C4679 C 0.45439 0.50996 0.7808 0.0
C4680 C 0.44335 0.51572 0.76465 0.0
C4681 C 0.43415 0.49944 0.75571 0.0
C4682 C 0.42954 0.53024 0.76991 0.0
C4683 C 0.45803 0.52338 0.75279 0.0
C4684 C 0.47469 0.52224 0.76102 0.0
C4685 C 0.49031 0.52828 0.75257 0.0
C4686 C 0.48882 0.53579 0.73531 0.0
C4687 C 0.47184 0.53718 0.72666 0.0
C4688 C 0.4563 0.5308 0.73558 0.0
H4689 H 0.81588 0.5335 0.73386 0.0
H4690 H 0.75841 0.54392 0.73142 0.0
H4691 H 0.75265 0.51571 0.74806 0.0
H4692 H 0.81327 0.48569 0.72785 0.0
H4693 H 0.83144 0.48085 0.74323 0.0
H4694 H 0.83102 0.50192 0.7312 0.0
H4695 H 0.83287 0.51933 0.76141 0.0
H4696 H 0.83334 0.49831 0.77353 0.0
H4697 H 0.81643 0.51495 0.77873 0.0
H4698 H 0.75322 0.48641 0.76529 0.0
H4699 H 0.76003 0.45793 0.78106 0.0
H4700 H 0.81715 0.46688 0.77246 0.0
C4701 C 0.80209 0.52995 0.73694 0.0
C4702 C 0.7876 0.54096 0.7313 0.0
C4703 C 0.76972 0.53563 0.73538 0.0
C4704 C 0.76632 0.51967 0.74493 0.0
C4705 C 0.78093 0.50915 0.75028 0.0
C4706 C 0.79846 0.51405 0.7464 0.0
C4707 C 0.81175 0.50028 0.7535 0.0
C4708 C 0.8225 0.49168 0.73802 0.0
C4709 C 0.82433 0.50873 0.76763 0.0
C4710 C 0.79896 0.48687 0.762 0.0
C4711 C 0.78125 0.49225 0.76006 0.0
C4712 C 0.76705 0.48208 0.76691 0.0
C4713 C 0.77106 0.46596 0.77595 0.0
C4714 C 0.78913 0.46012 0.77803 0.0
C4715 C 0.8032 0.47081 0.77093 0.0
H4716 H 0.78445 0.54288 0.01176 0.0
H4717 H 0.79072 0.4853 0.01887 0.0
H4718 H 0.75989 0.48051 0.00688 0.0
H4719 H 0.73712 0.54464 0.0248 0.0
H4720 H 0.73175 0.56199 0.00867 0.0
H4721 H 0.75407 0.5607 0.01816 0.0
H4722 H 0.76765 0.55901 0.98605 0.0
H4723 H 0.7454 0.56026 0.97647 0.0
H4724 H 0.76003 0.54174 0.97077 0.0
H4725 H 0.72923 0.48215 0.99161 0.0
H4726 H 0.70028 0.4902 0.97695 0.0
H4727 H 0.71354 0.54679 0.98174 0.0
C4728 C 0.77929 0.52928 0.01081 0.0
C4729 C 0.78995 0.51442 0.0161 0.0
C4730 C 0.78269 0.49683 0.01495 0.0
C4731 C 0.76525 0.49401 0.0081 0.0
C4732 C 0.75516 0.50897 0.00279 0.0
C4733 C 0.76184 0.52628 0.00434 0.0
C4734 C 0.74829 0.54009 0.99783 0.0
C4735 C 0.74246 0.55259 0.01329 0.0
C4736 C 0.7558 0.55091 0.98183 0.0
C4737 C 0.73304 0.52786 0.99204 0.0
C4738 C 0.73728 0.50994 0.99488 0.0
C4739 C 0.72568 0.49614 0.98958 0.0
C4740 C 0.70934 0.5008 0.98122 0.0
C4741 C 0.70465 0.51908 0.97848 0.0
C4742 C 0.71665 0.53273 0.98407 0.0
H4743 H 0.71023 0.54214 0.2693 0.0
H4744 H 0.69446 0.56925 0.22014 0.0
H4745 H 0.69919 0.5409 0.20299 0.0
H4746 H 0.74411 0.51209 0.2503 0.0
H4747 H 0.73765 0.49348 0.26449 0.0
H4748 H 0.73473 0.51626 0.27231 0.0
H4749 H 0.70088 0.51002 0.27802 0.0
H4750 H 0.70365 0.48725 0.27018 0.0
H4751 H 0.68705 0.50169 0.25988 0.0
H4752 H 0.70557 0.50939 0.19152 0.0
H4753 H 0.71019 0.47657 0.18705 0.0
H4754 H 0.71925 0.46997 0.24429 0.0
C4755 C 0.70813 0.54212 0.25487 0.0
C4756 C 0.7023 0.55778 0.24587 0.0
C4757 C 0.69906 0.55729 0.22711 0.0
C4758 C 0.70178 0.54133 0.21733 0.0
C4759 C 0.70743 0.52601 0.22665 0.0
C4760 C 0.71037 0.52625 0.24504 0.0
C4761 C 0.71493 0.50771 0.25215 0.0
C4762 C 0.73399 0.50737 0.26029 0.0
C4763 C 0.70078 0.50129 0.26586 0.0
C4764 C 0.71402 0.49694 0.2349 0.0
C4765 C 0.71001 0.50776 0.22027 0.0
C4766 C 0.70867 0.50078 0.20288 0.0
C4767 C 0.71134 0.48223 0.20044 0.0
C4768 C 0.71491 0.47091 0.21536 0.0
C4769 C 0.71633 0.4784 0.23274 0.0
H4770 H 0.77117 0.45416 0.47404 0.0
H4771 H 0.76584 0.50923 0.45533 0.0
H4772 H 0.73724 0.51214 0.47233 0.0
H4773 H 0.72379 0.44276 0.4727 0.0
H4774 H 0.72505 0.42911 0.49275 0.0
H4775 H 0.74448 0.43136 0.4784 0.0
H4776 H 0.76335 0.44256 0.50559 0.0
H4777 H 0.744 0.44034 0.52 0.0
H4778 H 0.75556 0.46163 0.51845 0.0
H4779 H 0.70985 0.50922 0.49335 0.0
H4780 H 0.68601 0.50035 0.51498 0.0
H4781 H 0.71013 0.44732 0.51944 0.0
C4782 C 0.76403 0.46686 0.47349 0.0
C4783 C 0.77081 0.4815 0.4634 0.0
C4784 C 0.76084 0.49778 0.46283 0.0
C4785 C 0.74463 0.49957 0.47253 0.0
C4786 C 0.73851 0.4849 0.48258 0.0
C4787 C 0.7479 0.46882 0.48297 0.0
C4788 C 0.73879 0.45512 0.49497 0.0
C4789 C 0.73266 0.43862 0.48405 0.0
C4790 C 0.75116 0.4496 0.51068 0.0
C4791 C 0.72288 0.46601 0.5015 0.0
C4792 C 0.72287 0.48317 0.49427 0.0
C4793 C 0.7097 0.49576 0.49895 0.0
C4794 C 0.69625 0.49064 0.51131 0.0
C4795 C 0.69604 0.47307 0.5188 0.0
C4796 C 0.70958 0.4607 0.51369 0.0
H4797 H 0.53261 0.97402 0.72354 0.0
H4798 H 0.55572 0.01999 0.69604 0.0
H4799 H 0.55497 0.03743 0.72445 0.0
H4800 H 0.50338 0.99938 0.75486 0.0
H4801 H 0.50764 0.98401 0.77318 0.0
H4802 H 0.5081 0.976 0.75027 0.0
H4803 H 0.54037 0.96366 0.75525 0.0
H4804 H 0.54007 0.97169 0.77811 0.0
H4805 H 0.5578 0.97866 0.76306 0.0
H4806 H 0.55332 0.0492 0.75641 0.0
H4807 H 0.55227 0.05373 0.78945 0.0
H4808 H 0.53095 0.99976 0.796 0.0
C4809 C 0.53706 0.98791 0.72344 0.0
C4810 C 0.54406 0.99575 0.7076 0.0
C4811 C 0.55032 0.01377 0.70807 0.0
C4812 C 0.54985 0.02378 0.7241 0.0
C4813 C 0.54317 0.01555 0.73959 0.0
C4814 C 0.53691 0.998 0.73938 0.0
C4815 C 0.53176 0.99178 0.75811 0.0
C4816 C 0.51152 0.98755 0.75916 0.0
C4817 C 0.54318 0.97549 0.76397 0.0
C4818 C 0.53642 0.00844 0.76893 0.0
C4819 C 0.54272 0.02211 0.758 0.0
C4820 C 0.54828 0.03862 0.76508 0.0
C4821 C 0.54758 0.04111 0.78384 0.0
C4822 C 0.54162 0.02709 0.7953 0.0
C4823 C 0.53576 0.01067 0.78762 0.0
loop_
_geom_bond_atom_site_label_1
_geom_bond_atom_site_label_2
_geom_bond_distance
_geom_bond_site_symmetry_2
_ccdc_geom_bond_type
C0 C1 1.351 . S
C0 N3 1.368 . S
C0 H5 0.931 . S
C1 C0 1.351 . S
C1 N2 1.373 . S
C1 H29 0.930 . S
N2 C1 1.373 . S
N2 C4 1.340 . S
N3 C0 1.368 . S
N3 C4 1.321 . S
N3 Co6 2.135 . S
C4 N2 1.340 . S
C4 N3 1.321 . S
C4 H28 0.930 . S
H5 C0 0.931 . S
Co6 N3 2.135 . S
Co6 N9 2.121 . S
Co6 O14 2.055 . S
Co6 O17 2.039 . S
Co6 N20 2.140 . S
C7 O8 1.227 . S
C7 O17 1.265 . S
O8 C7 1.227 . S
N9 Co6 2.121 . S
N9 C11 1.375 . S
N9 C12 1.313 . S
C10 C11 1.338 . S
C10 N13 1.377 . S
C10 H30 0.930 . S
C11 N9 1.375 . S
C11 C10 1.338 . S
C11 H15 0.931 . S
C12 N9 1.313 . S
C12 N13 1.344 . S
C12 H16 0.930 . S
N13 C10 1.377 . S
N13 C12 1.344 . S
O14 Co6 2.055 . S
O14 C18 1.253 . S
H15 C11 0.931 . S
H16 C12 0.930 . S
O17 Co6 2.039 . S
O17 C7 1.265 . S
C18 O14 1.253 . S
C18 O19 1.227 . S
O19 C18 1.227 . S
N20 Co6 2.140 . S
N20 C23 1.346 . S
N20 C24 1.345 . S
C21 C22 1.387 . S
C21 C25 1.391 . S
C22 C21 1.387 . S
C22 C23 1.369 . S
C22 H31 0.929 . S
C23 N20 1.346 . S
C23 C22 1.369 . S
C23 H26 0.928 . S
C24 N20 1.345 . S
C24 C25 1.371 . S
C24 H27 0.931 . S
C25 C21 1.391 . S
C25 C24 1.371 . S
C25 H32 0.930 . S
H26 C23 0.928 . S
H27 C24 0.931 . S
H28 C4 0.930 . S
H29 C1 0.930 . S
H30 C10 0.930 . S
H31 C22 0.929 . S
H32 C25 0.930 . S
C33 C34 1.351 . S
C33 N36 1.368 . S
C33 H38 0.931 . S
C34 C33 1.351 . S
C34 N35 1.373 . S
C34 H62 0.930 . S
N35 C34 1.373 . S
N35 C37 1.340 . S
N36 C33 1.368 . S
N36 C37 1.321 . S
N36 Co39 2.135 . S
C37 N35 1.340 . S
C37 N36 1.321 . S
C37 H61 0.930 . S
H38 C33 0.931 . S
Co39 N36 2.135 . S
Co39 N42 2.121 . S
Co39 O47 2.055 . S
Co39 O50 2.039 . S
Co39 N53 2.140 . S
C40 O41 1.227 . S
C40 O50 1.265 . S
O41 C40 1.227 . S
N42 Co39 2.121 . S
N42 C44 1.375 . S
N42 C45 1.313 . S
C43 C44 1.338 . S
C43 N46 1.377 . S
C43 H63 0.930 . S
C44 N42 1.375 . S
C44 C43 1.338 . S
C44 H48 0.931 . S
C45 N42 1.313 . S
C45 N46 1.344 . S
C45 H49 0.930 . S
N46 C43 1.377 . S
N46 C45 1.344 . S
O47 Co39 2.055 . S
O47 C51 1.253 . S
H48 C44 0.931 . S
H49 C45 0.930 . S
O50 Co39 2.039 . S
O50 C40 1.265 . S
C51 O47 1.253 . S
C51 O52 1.227 . S
O52 C51 1.227 . S
N53 Co39 2.140 . S
N53 C56 1.346 . S
N53 C57 1.345 . S
C54 C55 1.387 . S
C54 C58 1.391 . S
C55 C54 1.387 . S
C55 C56 1.369 . S
C55 H64 0.929 . S
C56 N53 1.346 . S
C56 C55 1.369 . S
C56 H59 0.928 . S
C57 N53 1.345 . S
C57 C58 1.371 . S
C57 H60 0.931 . S
C58 C54 1.391 . S
C58 C57 1.371 . S
C58 H65 0.930 . S
H59 C56 0.928 . S
H60 C57 0.931 . S
H61 C37 0.930 . S
H62 C34 0.930 . S
H63 C43 0.930 . S
H64 C55 0.929 . S
H65 C58 0.930 . S
C66 C67 1.351 . S
C66 N69 1.368 . S
C66 H71 0.931 . S
C67 C66 1.351 . S
C67 N68 1.373 . S
C67 H95 0.930 . S
N68 C67 1.373 . S
N68 C70 1.340 . S
N69 C66 1.368 . S
N69 C70 1.321 . S
N69 Co72 2.135 . S
C70 N68 1.340 . S
C70 N69 1.321 . S
C70 H94 0.930 . S
H71 C66 0.931 . S
Co72 N69 2.135 . S
Co72 N75 2.121 . S
Co72 O80 2.055 . S
Co72 O83 2.039 . S
Co72 N86 2.140 . S
C73 O74 1.227 . S
C73 O83 1.265 . S
O74 C73 1.227 . S
N75 Co72 2.121 . S
N75 C77 1.375 . S
N75 C78 1.313 . S
C76 C77 1.338 . S
C76 N79 1.377 . S
C76 H96 0.930 . S
C77 N75 1.375 . S
C77 C76 1.338 . S
C77 H81 0.931 . S
C78 N75 1.313 . S
C78 N79 1.344 . S
C78 H82 0.930 . S
N79 C76 1.377 . S
N79 C78 1.344 . S
O80 Co72 2.055 . S
O80 C84 1.253 . S
H81 C77 0.931 . S
H82 C78 0.930 . S
O83 Co72 2.039 . S
O83 C73 1.265 . S
C84 O80 1.253 . S
C84 O85 1.227 . S
O85 C84 1.227 . S
N86 Co72 2.140 . S
N86 C89 1.346 . S
N86 C90 1.345 . S
C87 C88 1.387 . S
C87 C91 1.391 . S
C88 C87 1.387 . S
C88 C89 1.369 . S
C88 H97 0.929 . S
C89 N86 1.346 . S
C89 C88 1.369 . S
C89 H92 0.928 . S
C90 N86 1.345 . S
C90 C91 1.371 . S
C90 H93 0.931 . S
C91 C87 1.391 . S
C91 C90 1.371 . S
C91 H98 0.930 . S
H92 C89 0.928 . S
H93 C90 0.931 . S
H94 C70 0.930 . S
H95 C67 0.930 . S
H96 C76 0.930 . S
H97 C88 0.929 . S
H98 C91 0.930 . S
C99 C100 1.351 . S
C99 N102 1.368 . S
C99 H104 0.931 . S
C100 C99 1.351 . S
C100 N101 1.373 . S
C100 H128 0.930 . S
N101 C100 1.373 . S
N101 C103 1.340 . S
N102 C99 1.368 . S
N102 C103 1.321 . S
N102 Co105 2.135 . S
C103 N101 1.340 . S
C103 N102 1.321 . S
C103 H127 0.930 . S
H104 C99 0.931 . S
Co105 N102 2.135 . S
Co105 N108 2.121 . S
Co105 O113 2.055 . S
Co105 O116 2.039 . S
Co105 N119 2.140 . S
C106 O107 1.227 . S
C106 O116 1.265 . S
O107 C106 1.227 . S
N108 Co105 2.121 . S
N108 C110 1.375 . S
N108 C111 1.313 . S
C109 C110 1.338 . S
C109 N112 1.377 . S
C109 H129 0.930 . S
C110 N108 1.375 . S
C110 C109 1.338 . S
C110 H114 0.931 . S
C111 N108 1.313 . S
C111 N112 1.344 . S
C111 H115 0.930 . S
N112 C109 1.377 . S
N112 C111 1.344 . S
O113 Co105 2.055 . S
O113 C117 1.253 . S
H114 C110 0.931 . S
H115 C111 0.930 . S
O116 Co105 2.039 . S
O116 C106 1.265 . S
C117 O113 1.253 . S
C117 O118 1.227 . S
O118 C117 1.227 . S
N119 Co105 2.140 . S
N119 C122 1.346 . S
N119 C123 1.345 . S
C120 C121 1.387 . S
C120 C124 1.391 . S
C121 C120 1.387 . S
C121 C122 1.369 . S
C121 H130 0.929 . S
C122 N119 1.346 . S
C122 C121 1.369 . S
C122 H125 0.928 . S
C123 N119 1.345 . S
C123 C124 1.371 . S
C123 H126 0.931 . S
C124 C120 1.391 . S
C124 C123 1.371 . S
C124 H131 0.930 . S
H125 C122 0.928 . S
H126 C123 0.931 . S
H127 C103 0.930 . S
H128 C100 0.930 . S
H129 C109 0.930 . S
H130 C121 0.929 . S
H131 C124 0.930 . S
C132 C133 1.351 . S
C132 N135 1.368 . S
C132 H137 0.931 . S
C133 C132 1.351 . S
C133 N134 1.373 . S
C133 H161 0.930 . S
N134 C133 1.373 . S
N134 C136 1.340 . S
N135 C132 1.368 . S
N135 C136 1.321 . S
N135 Co138 2.135 . S
C136 N134 1.340 . S
C136 N135 1.321 . S
C136 H160 0.930 . S
H137 C132 0.931 . S
Co138 N135 2.135 . S
Co138 N141 2.121 . S
Co138 O146 2.055 . S
Co138 O149 2.039 . S
Co138 N152 2.140 . S
C139 O140 1.227 . S
C139 O149 1.265 . S
O140 C139 1.227 . S
N141 Co138 2.121 . S
N141 C143 1.375 . S
N141 C144 1.313 . S
C142 C143 1.338 . S
C142 N145 1.377 . S
C142 H162 0.930 . S
C143 N141 1.375 . S
C143 C142 1.338 . S
C143 H147 0.931 . S
C144 N141 1.313 . S
C144 N145 1.344 . S
C144 H148 0.930 . S
N145 C142 1.377 . S
N145 C144 1.344 . S
O146 Co138 2.055 . S
O146 C150 1.253 . S
H147 C143 0.931 . S
H148 C144 0.930 . S
O149 Co138 2.039 . S
O149 C139 1.265 . S
C150 O146 1.253 . S
C150 O151 1.227 . S
O151 C150 1.227 . S
N152 Co138 2.140 . S
N152 C155 1.346 . S
N152 C156 1.345 . S
C153 C154 1.387 . S
C153 C157 1.391 . S
C154 C153 1.387 . S
C154 C155 1.369 . S
C154 H163 0.929 . S
C155 N152 1.346 . S
C155 C154 1.369 . S
C155 H158 0.928 . S
C156 N152 1.345 . S
C156 C157 1.371 . S
C156 H159 0.931 . S
C157 C153 1.391 . S
C157 C156 1.371 . S
C157 H164 0.930 . S
H158 C155 0.928 . S
H159 C156 0.931 . S
H160 C136 0.930 . S
H161 C133 0.930 . S
H162 C142 0.930 . S
H163 C154 0.929 . S
H164 C157 0.930 . S
C165 C166 1.351 . S
C165 N168 1.368 . S
C165 H170 0.931 . S
C166 C165 1.351 . S
C166 N167 1.373 . S
C166 H194 0.930 . S
N167 C166 1.373 . S
N167 C169 1.340 . S
N168 C165 1.368 . S
N168 C169 1.321 . S
N168 Co171 2.135 . S
C169 N167 1.340 . S
C169 N168 1.321 . S
C169 H193 0.930 . S
H170 C165 0.931 . S
Co171 N168 2.135 . S
Co171 N174 2.121 . S
Co171 O179 2.055 . S
Co171 O182 2.039 . S
Co171 N185 2.140 . S
C172 O173 1.227 . S
C172 O182 1.265 . S
O173 C172 1.227 . S
N174 Co171 2.121 . S
N174 C176 1.375 . S
N174 C177 1.313 . S
C175 C176 1.338 . S
C175 N178 1.377 . S
C175 H195 0.930 . S
C176 N174 1.375 . S
C176 C175 1.338 . S
C176 H180 0.931 . S
C177 N174 1.313 . S
C177 N178 1.344 . S
C177 H181 0.930 . S
N178 C175 1.377 . S
N178 C177 1.344 . S
O179 Co171 2.055 . S
O179 C183 1.253 . S
H180 C176 0.931 . S
H181 C177 0.930 . S
O182 Co171 2.039 . S
O182 C172 1.265 . S
C183 O179 1.253 . S
C183 O184 1.227 . S
O184 C183 1.227 . S
N185 Co171 2.140 . S
N185 C188 1.346 . S
N185 C189 1.345 . S
C186 C187 1.387 . S
C186 C190 1.391 . S
C187 C186 1.387 . S
C187 C188 1.369 . S
C187 H196 0.929 . S
C188 N185 1.346 . S
C188 C187 1.369 . S
C188 H191 0.928 . S
C189 N185 1.345 . S
C189 C190 1.371 . S
C189 H192 0.931 . S
C190 C186 1.391 . S
C190 C189 1.371 . S
C190 H197 0.930 . S
H191 C188 0.928 . S
H192 C189 0.931 . S
H193 C169 0.930 . S
H194 C166 0.930 . S
H195 C175 0.930 . S
H196 C187 0.929 . S
H197 C190 0.930 . S
C198 C199 1.351 . S
C198 N201 1.368 . S
C198 H203 0.931 . S
C199 C198 1.351 . S
C199 N200 1.373 . S
C199 H227 0.930 . S
N200 C199 1.373 . S
N200 C202 1.340 . S
N201 C198 1.368 . S
N201 C202 1.321 . S
N201 Co204 2.135 . S
C202 N200 1.340 . S
C202 N201 1.321 . S
C202 H226 0.930 . S
H203 C198 0.931 . S
Co204 N201 2.135 . S
Co204 N207 2.121 . S
Co204 O212 2.055 . S
Co204 O215 2.039 . S
Co204 N218 2.140 . S
C205 O206 1.227 . S
C205 O215 1.265 . S
O206 C205 1.227 . S
N207 Co204 2.121 . S
N207 C209 1.375 . S
N207 C210 1.313 . S
C208 C209 1.338 . S
C208 N211 1.377 . S
C208 H228 0.930 . S
C209 N207 1.375 . S
C209 C208 1.338 . S
C209 H213 0.931 . S
C210 N207 1.313 . S
C210 N211 1.344 . S
C210 H214 0.930 . S
N211 C208 1.377 . S
N211 C210 1.344 . S
O212 Co204 2.055 . S
O212 C216 1.253 . S
H213 C209 0.931 . S
H214 C210 0.930 . S
O215 Co204 2.039 . S
O215 C205 1.265 . S
C216 O212 1.253 . S
C216 O217 1.227 . S
O217 C216 1.227 . S
N218 Co204 2.140 . S
N218 C221 1.346 . S
N218 C222 1.345 . S
C219 C220 1.387 . S
C219 C223 1.391 . S
C220 C219 1.387 . S
C220 C221 1.369 . S
C220 H229 0.929 . S
C221 N218 1.346 . S
C221 C220 1.369 . S
C221 H224 0.928 . S
C222 N218 1.345 . S
C222 C223 1.371 . S
C222 H225 0.931 . S
C223 C219 1.391 . S
C223 C222 1.371 . S
C223 H230 0.930 . S
H224 C221 0.928 . S
H225 C222 0.931 . S
H226 C202 0.930 . S
H227 C199 0.930 . S
H228 C208 0.930 . S
H229 C220 0.929 . S
H230 C223 0.930 . S
C231 C232 1.351 . S
C231 N234 1.368 . S
C231 H236 0.931 . S
C232 C231 1.351 . S
C232 N233 1.373 . S
C232 H260 0.930 . S
N233 C232 1.373 . S
N233 C235 1.340 . S
N234 C231 1.368 . S
N234 C235 1.321 . S
N234 Co237 2.135 . S
C235 N233 1.340 . S
C235 N234 1.321 . S
C235 H259 0.930 . S
H236 C231 0.931 . S
Co237 N234 2.135 . S
Co237 N240 2.121 . S
Co237 O245 2.055 . S
Co237 O248 2.039 . S
Co237 N251 2.140 . S
C238 O239 1.227 . S
C238 O248 1.265 . S
O239 C238 1.227 . S
N240 Co237 2.121 . S
N240 C242 1.375 . S
N240 C243 1.313 . S
C241 C242 1.338 . S
C241 N244 1.377 . S
C241 H261 0.930 . S
C242 N240 1.375 . S
C242 C241 1.338 . S
C242 H246 0.931 . S
C243 N240 1.313 . S
C243 N244 1.344 . S
C243 H247 0.930 . S
N244 C241 1.377 . S
N244 C243 1.344 . S
O245 Co237 2.055 . S
O245 C249 1.253 . S
H246 C242 0.931 . S
H247 C243 0.930 . S
O248 Co237 2.039 . S
O248 C238 1.265 . S
C249 O245 1.253 . S
C249 O250 1.227 . S
O250 C249 1.227 . S
N251 Co237 2.140 . S
N251 C254 1.346 . S
N251 C255 1.345 . S
C252 C253 1.387 . S
C252 C256 1.391 . S
C253 C252 1.387 . S
C253 C254 1.369 . S
C253 H262 0.929 . S
C254 N251 1.346 . S
C254 C253 1.369 . S
C254 H257 0.928 . S
C255 N251 1.345 . S
C255 C256 1.371 . S
C255 H258 0.931 . S
C256 C252 1.391 . S
C256 C255 1.371 . S
C256 H263 0.930 . S
H257 C254 0.928 . S
H258 C255 0.931 . S
H259 C235 0.930 . S
H260 C232 0.930 . S
H261 C241 0.930 . S
H262 C253 0.929 . S
H263 C256 0.930 . S
C264 C265 1.351 . S
C264 N267 1.368 . S
C264 H269 0.931 . S
C265 C264 1.351 . S
C265 N266 1.373 . S
C265 H293 0.930 . S
N266 C265 1.373 . S
N266 C268 1.340 . S
N267 C264 1.368 . S
N267 C268 1.321 . S
N267 Co270 2.135 . S
C268 N266 1.340 . S
C268 N267 1.321 . S
C268 H292 0.930 . S
H269 C264 0.931 . S
Co270 N267 2.135 . S
Co270 N273 2.121 . S
Co270 O278 2.055 . S
Co270 O281 2.039 . S
Co270 N284 2.140 . S
C271 O272 1.227 . S
C271 O281 1.265 . S
O272 C271 1.227 . S
N273 Co270 2.121 . S
N273 C275 1.375 . S
N273 C276 1.313 . S
C274 C275 1.338 . S
C274 N277 1.377 . S
C274 H294 0.930 . S
C275 N273 1.375 . S
C275 C274 1.338 . S
C275 H279 0.931 . S
C276 N273 1.313 . S
C276 N277 1.344 . S
C276 H280 0.930 . S
N277 C274 1.377 . S
N277 C276 1.344 . S
O278 Co270 2.055 . S
O278 C282 1.253 . S
H279 C275 0.931 . S
H280 C276 0.930 . S
O281 Co270 2.039 . S
O281 C271 1.265 . S
C282 O278 1.253 . S
C282 O283 1.227 . S
O283 C282 1.227 . S
N284 Co270 2.140 . S
N284 C287 1.346 . S
N284 C288 1.345 . S
C285 C286 1.387 . S
C285 C289 1.391 . S
C286 C285 1.387 . S
C286 C287 1.369 . S
C286 H295 0.929 . S
C287 N284 1.346 . S
C287 C286 1.369 . S
C287 H290 0.928 . S
C288 N284 1.345 . S
C288 C289 1.371 . S
C288 H291 0.931 . S
C289 C285 1.391 . S
C289 C288 1.371 . S
C289 H296 0.930 . S
H290 C287 0.928 . S
H291 C288 0.931 . S
H292 C268 0.930 . S
H293 C265 0.930 . S
H294 C274 0.930 . S
H295 C286 0.929 . S
H296 C289 0.930 . S
C297 C298 1.351 . S
C297 N300 1.368 . S
C297 H302 0.931 . S
C298 C297 1.351 . S
C298 N299 1.373 . S
C298 H326 0.930 . S
N299 C298 1.373 . S
N299 C301 1.340 . S
N300 C297 1.368 . S
N300 C301 1.321 . S
N300 Co303 2.135 . S
C301 N299 1.340 . S
C301 N300 1.321 . S
C301 H325 0.930 . S
H302 C297 0.931 . S
Co303 N300 2.135 . S
Co303 N306 2.121 . S
Co303 O311 2.055 . S
Co303 O314 2.039 . S
Co303 N317 2.140 . S
C304 O305 1.227 . S
C304 O314 1.265 . S
O305 C304 1.227 . S
N306 Co303 2.121 . S
N306 C308 1.375 . S
N306 C309 1.313 . S
C307 C308 1.338 . S
C307 N310 1.377 . S
C307 H327 0.930 . S
C308 N306 1.375 . S
C308 C307 1.338 . S
C308 H312 0.931 . S
C309 N306 1.313 . S
C309 N310 1.344 . S
C309 H313 0.930 . S
N310 C307 1.377 . S
N310 C309 1.344 . S
O311 Co303 2.055 . S
O311 C315 1.253 . S
H312 C308 0.931 . S
H313 C309 0.930 . S
O314 Co303 2.039 . S
O314 C304 1.265 . S
C315 O311 1.253 . S
C315 O316 1.227 . S
O316 C315 1.227 . S
N317 Co303 2.140 . S
N317 C320 1.346 . S
N317 C321 1.345 . S
C318 C319 1.387 . S
C318 C322 1.391 . S
C319 C318 1.387 . S
C319 C320 1.369 . S
C319 H328 0.929 . S
C320 N317 1.346 . S
C320 C319 1.369 . S
C320 H323 0.928 . S
C321 N317 1.345 . S
C321 C322 1.371 . S
C321 H324 0.931 . S
C322 C318 1.391 . S
C322 C321 1.371 . S
C322 H329 0.930 . S
H323 C320 0.928 . S
H324 C321 0.931 . S
H325 C301 0.930 . S
H326 C298 0.930 . S
H327 C307 0.930 . S
H328 C319 0.929 . S
H329 C322 0.930 . S
C330 C331 1.351 . S
C330 N333 1.368 . S
C330 H335 0.931 . S
C331 C330 1.351 . S
C331 N332 1.373 . S
C331 H359 0.930 . S
N332 C331 1.373 . S
N332 C334 1.340 . S
N333 C330 1.368 . S
N333 C334 1.321 . S
N333 Co336 2.135 . S
C334 N332 1.340 . S
C334 N333 1.321 . S
C334 H358 0.930 . S
H335 C330 0.931 . S
Co336 N333 2.135 . S
Co336 N339 2.121 . S
Co336 O344 2.055 . S
Co336 O347 2.039 . S
Co336 N350 2.140 . S
C337 O338 1.227 . S
C337 O347 1.265 . S
O338 C337 1.227 . S
N339 Co336 2.121 . S
N339 C341 1.375 . S
N339 C342 1.313 . S
C340 C341 1.338 . S
C340 N343 1.377 . S
C340 H360 0.930 . S
C341 N339 1.375 . S
C341 C340 1.338 . S
C341 H345 0.931 . S
C342 N339 1.313 . S
C342 N343 1.344 . S
C342 H346 0.930 . S
N343 C340 1.377 . S
N343 C342 1.344 . S
O344 Co336 2.055 . S
O344 C348 1.253 . S
H345 C341 0.931 . S
H346 C342 0.930 . S
O347 Co336 2.039 . S
O347 C337 1.265 . S
C348 O344 1.253 . S
C348 O349 1.227 . S
O349 C348 1.227 . S
N350 Co336 2.140 . S
N350 C353 1.346 . S
N350 C354 1.345 . S
C351 C352 1.387 . S
C351 C355 1.391 . S
C352 C351 1.387 . S
C352 C353 1.369 . S
C352 H361 0.929 . S
C353 N350 1.346 . S
C353 C352 1.369 . S
C353 H356 0.928 . S
C354 N350 1.345 . S
C354 C355 1.371 . S
C354 H357 0.931 . S
C355 C351 1.391 . S
C355 C354 1.371 . S
C355 H362 0.930 . S
H356 C353 0.928 . S
H357 C354 0.931 . S
H358 C334 0.930 . S
H359 C331 0.930 . S
H360 C340 0.930 . S
H361 C352 0.929 . S
H362 C355 0.930 . S
C363 C364 1.351 . S
C363 N366 1.368 . S
C363 H368 0.931 . S
C364 C363 1.351 . S
C364 N365 1.373 . S
C364 H392 0.930 . S
N365 C364 1.373 . S
N365 C367 1.340 . S
N366 C363 1.368 . S
N366 C367 1.321 . S
N366 Co369 2.135 . S
C367 N365 1.340 . S
C367 N366 1.321 . S
C367 H391 0.930 . S
H368 C363 0.931 . S
Co369 N366 2.135 . S
Co369 N372 2.121 . S
Co369 O377 2.055 . S
Co369 O380 2.039 . S
Co369 N383 2.140 . S
C370 O371 1.227 . S
C370 O380 1.265 . S
O371 C370 1.227 . S
N372 Co369 2.121 . S
N372 C374 1.375 . S
N372 C375 1.313 . S
C373 C374 1.338 . S
C373 N376 1.377 . S
C373 H393 0.930 . S
C374 N372 1.375 . S
C374 C373 1.338 . S
C374 H378 0.931 . S
C375 N372 1.313 . S
C375 N376 1.344 . S
C375 H379 0.930 . S
N376 C373 1.377 . S
N376 C375 1.344 . S
O377 Co369 2.055 . S
O377 C381 1.253 . S
H378 C374 0.931 . S
H379 C375 0.930 . S
O380 Co369 2.039 . S
O380 C370 1.265 . S
C381 O377 1.253 . S
C381 O382 1.227 . S
O382 C381 1.227 . S
N383 Co369 2.140 . S
N383 C386 1.346 . S
N383 C387 1.345 . S
C384 C385 1.387 . S
C384 C388 1.391 . S
C385 C384 1.387 . S
C385 C386 1.369 . S
C385 H394 0.929 . S
C386 N383 1.346 . S
C386 C385 1.369 . S
C386 H389 0.928 . S
C387 N383 1.345 . S
C387 C388 1.371 . S
C387 H390 0.931 . S
C388 C384 1.391 . S
C388 C387 1.371 . S
C388 H395 0.930 . S
H389 C386 0.928 . S
H390 C387 0.931 . S
H391 C367 0.930 . S
H392 C364 0.930 . S
H393 C373 0.930 . S
H394 C385 0.929 . S
H395 C388 0.930 . S
C396 C397 1.351 . S
C396 N399 1.368 . S
C396 H401 0.931 . S
C397 C396 1.351 . S
C397 N398 1.373 . S
C397 H425 0.930 . S
N398 C397 1.373 . S
N398 C400 1.340 . S
N399 C396 1.368 . S
N399 C400 1.321 . S
N399 Co402 2.135 . S
C400 N398 1.340 . S
C400 N399 1.321 . S
C400 H424 0.930 . S
H401 C396 0.931 . S
Co402 N399 2.135 . S
Co402 N405 2.121 . S
Co402 O410 2.055 . S
Co402 O413 2.039 . S
Co402 N416 2.140 . S
C403 O404 1.227 . S
C403 O413 1.265 . S
O404 C403 1.227 . S
N405 Co402 2.121 . S
N405 C407 1.375 . S
N405 C408 1.313 . S
C406 C407 1.338 . S
C406 N409 1.377 . S
C406 H426 0.930 . S
C407 N405 1.375 . S
C407 C406 1.338 . S
C407 H411 0.931 . S
C408 N405 1.313 . S
C408 N409 1.344 . S
C408 H412 0.930 . S
N409 C406 1.377 . S
N409 C408 1.344 . S
O410 Co402 2.055 . S
O410 C414 1.253 . S
H411 C407 0.931 . S
H412 C408 0.930 . S
O413 Co402 2.039 . S
O413 C403 1.265 . S
C414 O410 1.253 . S
C414 O415 1.227 . S
O415 C414 1.227 . S
N416 Co402 2.140 . S
N416 C419 1.346 . S
N416 C420 1.345 . S
C417 C418 1.387 . S
C417 C421 1.391 . S
C418 C417 1.387 . S
C418 C419 1.369 . S
C418 H427 0.929 . S
C419 N416 1.346 . S
C419 C418 1.369 . S
C419 H422 0.928 . S
C420 N416 1.345 . S
C420 C421 1.371 . S
C420 H423 0.931 . S
C421 C417 1.391 . S
C421 C420 1.371 . S
C421 H428 0.930 . S
H422 C419 0.928 . S
H423 C420 0.931 . S
H424 C400 0.930 . S
H425 C397 0.930 . S
H426 C406 0.930 . S
H427 C418 0.929 . S
H428 C421 0.930 . S
C429 C430 1.351 . S
C429 N432 1.368 . S
C429 H434 0.931 . S
C430 C429 1.351 . S
C430 N431 1.373 . S
C430 H458 0.930 . S
N431 C430 1.373 . S
N431 C433 1.340 . S
N432 C429 1.368 . S
N432 C433 1.321 . S
N432 Co435 2.135 . S
C433 N431 1.340 . S
C433 N432 1.321 . S
C433 H457 0.930 . S
H434 C429 0.931 . S
Co435 N432 2.135 . S
Co435 N438 2.121 . S
Co435 O443 2.055 . S
Co435 O446 2.039 . S
Co435 N449 2.140 . S
C436 O437 1.227 . S
C436 O446 1.265 . S
O437 C436 1.227 . S
N438 Co435 2.121 . S
N438 C440 1.375 . S
N438 C441 1.313 . S
C439 C440 1.338 . S
C439 N442 1.377 . S
C439 H459 0.930 . S
C440 N438 1.375 . S
C440 C439 1.338 . S
C440 H444 0.931 . S
C441 N438 1.313 . S
C441 N442 1.344 . S
C441 H445 0.930 . S
N442 C439 1.377 . S
N442 C441 1.344 . S
O443 Co435 2.055 . S
O443 C447 1.253 . S
H444 C440 0.931 . S
H445 C441 0.930 . S
O446 Co435 2.039 . S
O446 C436 1.265 . S
C447 O443 1.253 . S
C447 O448 1.227 . S
O448 C447 1.227 . S
N449 Co435 2.140 . S
N449 C452 1.346 . S
N449 C453 1.345 . S
C450 C451 1.387 . S
C450 C454 1.391 . S
C451 C450 1.387 . S
C451 C452 1.369 . S
C451 H460 0.929 . S
C452 N449 1.346 . S
C452 C451 1.369 . S
C452 H455 0.928 . S
C453 N449 1.345 . S
C453 C454 1.371 . S
C453 H456 0.931 . S
C454 C450 1.391 . S
C454 C453 1.371 . S
C454 H461 0.930 . S
H455 C452 0.928 . S
H456 C453 0.931 . S
H457 C433 0.930 . S
H458 C430 0.930 . S
H459 C439 0.930 . S
H460 C451 0.929 . S
H461 C454 0.930 . S
C462 C463 1.351 . S
C462 N465 1.368 . S
C462 H467 0.931 . S
C463 C462 1.351 . S
C463 N464 1.373 . S
C463 H491 0.930 . S
N464 C463 1.373 . S
N464 C466 1.340 . S
N465 C462 1.368 . S
N465 C466 1.321 . S
N465 Co468 2.135 . S
C466 N464 1.340 . S
C466 N465 1.321 . S
C466 H490 0.930 . S
H467 C462 0.931 . S
Co468 N465 2.135 . S
Co468 N471 2.121 . S
Co468 O476 2.055 . S
Co468 O479 2.039 . S
Co468 N482 2.140 . S
C469 O470 1.227 . S
C469 O479 1.265 . S
O470 C469 1.227 . S
N471 Co468 2.121 . S
N471 C473 1.375 . S
N471 C474 1.313 . S
C472 C473 1.338 . S
C472 N475 1.377 . S
C472 H492 0.930 . S
C473 N471 1.375 . S
C473 C472 1.338 . S
C473 H477 0.931 . S
C474 N471 1.313 . S
C474 N475 1.344 . S
C474 H478 0.930 . S
N475 C472 1.377 . S
N475 C474 1.344 . S
O476 Co468 2.055 . S
O476 C480 1.253 . S
H477 C473 0.931 . S
H478 C474 0.930 . S
O479 Co468 2.039 . S
O479 C469 1.265 . S
C480 O476 1.253 . S
C480 O481 1.227 . S
O481 C480 1.227 . S
N482 Co468 2.140 . S
N482 C485 1.346 . S
N482 C486 1.345 . S
C483 C484 1.387 . S
C483 C487 1.391 . S
C484 C483 1.387 . S
C484 C485 1.369 . S
C484 H493 0.929 . S
C485 N482 1.346 . S
C485 C484 1.369 . S
C485 H488 0.928 . S
C486 N482 1.345 . S
C486 C487 1.371 . S
C486 H489 0.931 . S
C487 C483 1.391 . S
C487 C486 1.371 . S
C487 H494 0.930 . S
H488 C485 0.928 . S
H489 C486 0.931 . S
H490 C466 0.930 . S
H491 C463 0.930 . S
H492 C472 0.930 . S
H493 C484 0.929 . S
H494 C487 0.930 . S
C495 C496 1.351 . S
C495 N498 1.368 . S
C495 H500 0.931 . S
C496 C495 1.351 . S
C496 N497 1.373 . S
C496 H524 0.930 . S
N497 C496 1.373 . S
N497 C499 1.340 . S
N498 C495 1.368 . S
N498 C499 1.321 . S
N498 Co501 2.135 . S
C499 N497 1.340 . S
C499 N498 1.321 . S
C499 H523 0.930 . S
H500 C495 0.931 . S
Co501 N498 2.135 . S
Co501 N504 2.121 . S
Co501 O509 2.055 . S
Co501 O512 2.039 . S
Co501 N515 2.140 . S
C502 O503 1.227 . S
C502 O512 1.265 . S
O503 C502 1.227 . S
N504 Co501 2.121 . S
N504 C506 1.375 . S
N504 C507 1.313 . S
C505 C506 1.338 . S
C505 N508 1.377 . S
C505 H525 0.930 . S
C506 N504 1.375 . S
C506 C505 1.338 . S
C506 H510 0.931 . S
C507 N504 1.313 . S
C507 N508 1.344 . S
C507 H511 0.930 . S
N508 C505 1.377 . S
N508 C507 1.344 . S
O509 Co501 2.055 . S
O509 C513 1.253 . S
H510 C506 0.931 . S
H511 C507 0.930 . S
O512 Co501 2.039 . S
O512 C502 1.265 . S
C513 O509 1.253 . S
C513 O514 1.227 . S
O514 C513 1.227 . S
N515 Co501 2.140 . S
N515 C518 1.346 . S
N515 C519 1.345 . S
C516 C517 1.387 . S
C516 C520 1.391 . S
C517 C516 1.387 . S
C517 C518 1.369 . S
C517 H526 0.929 . S
C518 N515 1.346 . S
C518 C517 1.369 . S
C518 H521 0.928 . S
C519 N515 1.345 . S
C519 C520 1.371 . S
C519 H522 0.931 . S
C520 C516 1.391 . S
C520 C519 1.371 . S
C520 H527 0.930 . S
H521 C518 0.928 . S
H522 C519 0.931 . S
H523 C499 0.930 . S
H524 C496 0.930 . S
H525 C505 0.930 . S
H526 C517 0.929 . S
H527 C520 0.930 . S
C528 C529 1.351 . S
C528 N531 1.368 . S
C528 H533 0.931 . S
C529 C528 1.351 . S
C529 N530 1.373 . S
C529 H557 0.930 . S
N530 C529 1.373 . S
N530 C532 1.340 . S
N531 C528 1.368 . S
N531 C532 1.321 . S
N531 Co534 2.135 . S
C532 N530 1.340 . S
C532 N531 1.321 . S
C532 H556 0.930 . S
H533 C528 0.931 . S
Co534 N531 2.135 . S
Co534 N537 2.121 . S
Co534 O542 2.055 . S
Co534 O545 2.039 . S
Co534 N548 2.140 . S
C535 O536 1.227 . S
C535 O545 1.265 . S
O536 C535 1.227 . S
N537 Co534 2.121 . S
N537 C539 1.375 . S
N537 C540 1.313 . S
C538 C539 1.338 . S
C538 N541 1.377 . S
C538 H558 0.930 . S
C539 N537 1.375 . S
C539 C538 1.338 . S
C539 H543 0.931 . S
C540 N537 1.313 . S
C540 N541 1.344 . S
C540 H544 0.930 . S
N541 C538 1.377 . S
N541 C540 1.344 . S
O542 Co534 2.055 . S
O542 C546 1.253 . S
H543 C539 0.931 . S
H544 C540 0.930 . S
O545 Co534 2.039 . S
O545 C535 1.265 . S
C546 O542 1.253 . S
C546 O547 1.227 . S
O547 C546 1.227 . S
N548 Co534 2.140 . S
N548 C551 1.346 . S
N548 C552 1.345 . S
C549 C550 1.387 . S
C549 C553 1.391 . S
C550 C549 1.387 . S
C550 C551 1.369 . S
C550 H559 0.929 . S
C551 N548 1.346 . S
C551 C550 1.369 . S
C551 H554 0.928 . S
C552 N548 1.345 . S
C552 C553 1.371 . S
C552 H555 0.931 . S
C553 C549 1.391 . S
C553 C552 1.371 . S
C553 H560 0.930 . S
H554 C551 0.928 . S
H555 C552 0.931 . S
H556 C532 0.930 . S
H557 C529 0.930 . S
H558 C538 0.930 . S
H559 C550 0.929 . S
H560 C553 0.930 . S
C561 C562 1.351 . S
C561 N564 1.368 . S
C561 H566 0.931 . S
C562 C561 1.351 . S
C562 N563 1.373 . S
C562 H590 0.930 . S
N563 C562 1.373 . S
N563 C565 1.340 . S
N564 C561 1.368 . S
N564 C565 1.321 . S
N564 Co567 2.135 . S
C565 N563 1.340 . S
C565 N564 1.321 . S
C565 H589 0.930 . S
H566 C561 0.931 . S
Co567 N564 2.135 . S
Co567 N570 2.121 . S
Co567 O575 2.055 . S
Co567 O578 2.039 . S
Co567 N581 2.140 . S
C568 O569 1.227 . S
C568 O578 1.265 . S
O569 C568 1.227 . S
N570 Co567 2.121 . S
N570 C572 1.375 . S
N570 C573 1.313 . S
C571 C572 1.338 . S
C571 N574 1.377 . S
C571 H591 0.930 . S
C572 N570 1.375 . S
C572 C571 1.338 . S
C572 H576 0.931 . S
C573 N570 1.313 . S
C573 N574 1.344 . S
C573 H577 0.930 . S
N574 C571 1.377 . S
N574 C573 1.344 . S
O575 Co567 2.055 . S
O575 C579 1.253 . S
H576 C572 0.931 . S
H577 C573 0.930 . S
O578 Co567 2.039 . S
O578 C568 1.265 . S
C579 O575 1.253 . S
C579 O580 1.227 . S
O580 C579 1.227 . S
N581 Co567 2.140 . S
N581 C584 1.346 . S
N581 C585 1.345 . S
C582 C583 1.387 . S
C582 C586 1.391 . S
C583 C582 1.387 . S
C583 C584 1.369 . S
C583 H592 0.929 . S
C584 N581 1.346 . S
C584 C583 1.369 . S
C584 H587 0.928 . S
C585 N581 1.345 . S
C585 C586 1.371 . S
C585 H588 0.931 . S
C586 C582 1.391 . S
C586 C585 1.371 . S
C586 H593 0.930 . S
H587 C584 0.928 . S
H588 C585 0.931 . S
H589 C565 0.930 . S
H590 C562 0.930 . S
H591 C571 0.930 . S
H592 C583 0.929 . S
H593 C586 0.930 . S
C594 C595 1.351 . S
C594 N597 1.368 . S
C594 H599 0.931 . S
C595 C594 1.351 . S
C595 N596 1.373 . S
C595 H623 0.930 . S
N596 C595 1.373 . S
N596 C598 1.340 . S
N597 C594 1.368 . S
N597 C598 1.321 . S
N597 Co600 2.135 . S
C598 N596 1.340 . S
C598 N597 1.321 . S
C598 H622 0.930 . S
H599 C594 0.931 . S
Co600 N597 2.135 . S
Co600 N603 2.121 . S
Co600 O608 2.055 . S
Co600 O611 2.039 . S
Co600 N614 2.140 . S
C601 O602 1.227 . S
C601 O611 1.265 . S
O602 C601 1.227 . S
N603 Co600 2.121 . S
N603 C605 1.375 . S
N603 C606 1.313 . S
C604 C605 1.338 . S
C604 N607 1.377 . S
C604 H624 0.930 . S
C605 N603 1.375 . S
C605 C604 1.338 . S
C605 H609 0.931 . S
C606 N603 1.313 . S
C606 N607 1.344 . S
C606 H610 0.930 . S
N607 C604 1.377 . S
N607 C606 1.344 . S
O608 Co600 2.055 . S
O608 C612 1.253 . S
H609 C605 0.931 . S
H610 C606 0.930 . S
O611 Co600 2.039 . S
O611 C601 1.265 . S
C612 O608 1.253 . S
C612 O613 1.227 . S
O613 C612 1.227 . S
N614 Co600 2.140 . S
N614 C617 1.346 . S
N614 C618 1.345 . S
C615 C616 1.387 . S
C615 C619 1.391 . S
C616 C615 1.387 . S
C616 C617 1.369 . S
C616 H625 0.929 . S
C617 N614 1.346 . S
C617 C616 1.369 . S
C617 H620 0.928 . S
C618 N614 1.345 . S
C618 C619 1.371 . S
C618 H621 0.931 . S
C619 C615 1.391 . S
C619 C618 1.371 . S
C619 H626 0.930 . S
H620 C617 0.928 . S
H621 C618 0.931 . S
H622 C598 0.930 . S
H623 C595 0.930 . S
H624 C604 0.930 . S
H625 C616 0.929 . S
H626 C619 0.930 . S
C627 C628 1.351 . S
C627 N630 1.368 . S
C627 H632 0.931 . S
C628 C627 1.351 . S
C628 N629 1.373 . S
C628 H656 0.930 . S
N629 C628 1.373 . S
N629 C631 1.340 . S
N630 C627 1.368 . S
N630 C631 1.321 . S
N630 Co633 2.135 . S
C631 N629 1.340 . S
C631 N630 1.321 . S
C631 H655 0.930 . S
H632 C627 0.931 . S
Co633 N630 2.135 . S
Co633 N636 2.121 . S
Co633 O641 2.055 . S
Co633 O644 2.039 . S
Co633 N647 2.140 . S
C634 O635 1.227 . S
C634 O644 1.265 . S
O635 C634 1.227 . S
N636 Co633 2.121 . S
N636 C638 1.375 . S
N636 C639 1.313 . S
C637 C638 1.338 . S
C637 N640 1.377 . S
C637 H657 0.930 . S
C638 N636 1.375 . S
C638 C637 1.338 . S
C638 H642 0.931 . S
C639 N636 1.313 . S
C639 N640 1.344 . S
C639 H643 0.930 . S
N640 C637 1.377 . S
N640 C639 1.344 . S
O641 Co633 2.055 . S
O641 C645 1.253 . S
H642 C638 0.931 . S
H643 C639 0.930 . S
O644 Co633 2.039 . S
O644 C634 1.265 . S
C645 O641 1.253 . S
C645 O646 1.227 . S
O646 C645 1.227 . S
N647 Co633 2.140 . S
N647 C650 1.346 . S
N647 C651 1.345 . S
C648 C649 1.387 . S
C648 C652 1.391 . S
C649 C648 1.387 . S
C649 C650 1.369 . S
C649 H658 0.929 . S
C650 N647 1.346 . S
C650 C649 1.369 . S
C650 H653 0.928 . S
C651 N647 1.345 . S
C651 C652 1.371 . S
C651 H654 0.931 . S
C652 C648 1.391 . S
C652 C651 1.371 . S
C652 H659 0.930 . S
H653 C650 0.928 . S
H654 C651 0.931 . S
H655 C631 0.930 . S
H656 C628 0.930 . S
H657 C637 0.930 . S
H658 C649 0.929 . S
H659 C652 0.930 . S
C660 C661 1.351 . S
C660 N663 1.368 . S
C660 H665 0.931 . S
C661 C660 1.351 . S
C661 N662 1.373 . S
C661 H689 0.930 . S
N662 C661 1.373 . S
N662 C664 1.340 . S
N663 C660 1.368 . S
N663 C664 1.321 . S
N663 Co666 2.135 . S
C664 N662 1.340 . S
C664 N663 1.321 . S
C664 H688 0.930 . S
H665 C660 0.931 . S
Co666 N663 2.135 . S
Co666 N669 2.121 . S
Co666 O674 2.055 . S
Co666 O677 2.039 . S
Co666 N680 2.140 . S
C667 O668 1.227 . S
C667 O677 1.265 . S
O668 C667 1.227 . S
N669 Co666 2.121 . S
N669 C671 1.375 . S
N669 C672 1.313 . S
C670 C671 1.338 . S
C670 N673 1.377 . S
C670 H690 0.930 . S
C671 N669 1.375 . S
C671 C670 1.338 . S
C671 H675 0.931 . S
C672 N669 1.313 . S
C672 N673 1.344 . S
C672 H676 0.930 . S
N673 C670 1.377 . S
N673 C672 1.344 . S
O674 Co666 2.055 . S
O674 C678 1.253 . S
H675 C671 0.931 . S
H676 C672 0.930 . S
O677 Co666 2.039 . S
O677 C667 1.265 . S
C678 O674 1.253 . S
C678 O679 1.227 . S
O679 C678 1.227 . S
N680 Co666 2.140 . S
N680 C683 1.346 . S
N680 C684 1.345 . S
C681 C682 1.387 . S
C681 C685 1.391 . S
C682 C681 1.387 . S
C682 C683 1.369 . S
C682 H691 0.929 . S
C683 N680 1.346 . S
C683 C682 1.369 . S
C683 H686 0.928 . S
C684 N680 1.345 . S
C684 C685 1.371 . S
C684 H687 0.931 . S
C685 C681 1.391 . S
C685 C684 1.371 . S
C685 H692 0.930 . S
H686 C683 0.928 . S
H687 C684 0.931 . S
H688 C664 0.930 . S
H689 C661 0.930 . S
H690 C670 0.930 . S
H691 C682 0.929 . S
H692 C685 0.930 . S
C693 C694 1.351 . S
C693 N696 1.368 . S
C693 H698 0.931 . S
C694 C693 1.351 . S
C694 N695 1.373 . S
C694 H722 0.930 . S
N695 C694 1.373 . S
N695 C697 1.340 . S
N696 C693 1.368 . S
N696 C697 1.321 . S
N696 Co699 2.135 . S
C697 N695 1.340 . S
C697 N696 1.321 . S
C697 H721 0.930 . S
H698 C693 0.931 . S
Co699 N696 2.135 . S
Co699 N702 2.121 . S
Co699 O707 2.055 . S
Co699 O710 2.039 . S
Co699 N713 2.140 . S
C700 O701 1.227 . S
C700 O710 1.265 . S
O701 C700 1.227 . S
N702 Co699 2.121 . S
N702 C704 1.375 . S
N702 C705 1.313 . S
C703 C704 1.338 . S
C703 N706 1.377 . S
C703 H723 0.930 . S
C704 N702 1.375 . S
C704 C703 1.338 . S
C704 H708 0.931 . S
C705 N702 1.313 . S
C705 N706 1.344 . S
C705 H709 0.930 . S
N706 C703 1.377 . S
N706 C705 1.344 . S
O707 Co699 2.055 . S
O707 C711 1.253 . S
H708 C704 0.931 . S
H709 C705 0.930 . S
O710 Co699 2.039 . S
O710 C700 1.265 . S
C711 O707 1.253 . S
C711 O712 1.227 . S
O712 C711 1.227 . S
N713 Co699 2.140 . S
N713 C716 1.346 . S
N713 C717 1.345 . S
C714 C715 1.387 . S
C714 C718 1.391 . S
C715 C714 1.387 . S
C715 C716 1.369 . S
C715 H724 0.929 . S
C716 N713 1.346 . S
C716 C715 1.369 . S
C716 H719 0.928 . S
C717 N713 1.345 . S
C717 C718 1.371 . S
C717 H720 0.931 . S
C718 C714 1.391 . S
C718 C717 1.371 . S
C718 H725 0.930 . S
H719 C716 0.928 . S
H720 C717 0.931 . S
H721 C697 0.930 . S
H722 C694 0.930 . S
H723 C703 0.930 . S
H724 C715 0.929 . S
H725 C718 0.930 . S
C726 C727 1.351 . S
C726 N729 1.368 . S
C726 H731 0.931 . S
C727 C726 1.351 . S
C727 N728 1.373 . S
C727 H755 0.930 . S
N728 C727 1.373 . S
N728 C730 1.340 . S
N729 C726 1.368 . S
N729 C730 1.321 . S
N729 Co732 2.135 . S
C730 N728 1.340 . S
C730 N729 1.321 . S
C730 H754 0.930 . S
H731 C726 0.931 . S
Co732 N729 2.135 . S
Co732 N735 2.121 . S
Co732 O740 2.055 . S
Co732 O743 2.039 . S
Co732 N746 2.140 . S
C733 O734 1.227 . S
C733 O743 1.265 . S
O734 C733 1.227 . S
N735 Co732 2.121 . S
N735 C737 1.375 . S
N735 C738 1.313 . S
C736 C737 1.338 . S
C736 N739 1.377 . S
C736 H756 0.930 . S
C737 N735 1.375 . S
C737 C736 1.338 . S
C737 H741 0.931 . S
C738 N735 1.313 . S
C738 N739 1.344 . S
C738 H742 0.930 . S
N739 C736 1.377 . S
N739 C738 1.344 . S
O740 Co732 2.055 . S
O740 C744 1.253 . S
H741 C737 0.931 . S
H742 C738 0.930 . S
O743 Co732 2.039 . S
O743 C733 1.265 . S
C744 O740 1.253 . S
C744 O745 1.227 . S
O745 C744 1.227 . S
N746 Co732 2.140 . S
N746 C749 1.346 . S
N746 C750 1.345 . S
C747 C748 1.387 . S
C747 C751 1.391 . S
C748 C747 1.387 . S
C748 C749 1.369 . S
C748 H757 0.929 . S
C749 N746 1.346 . S
C749 C748 1.369 . S
C749 H752 0.928 . S
C750 N746 1.345 . S
C750 C751 1.371 . S
C750 H753 0.931 . S
C751 C747 1.391 . S
C751 C750 1.371 . S
C751 H758 0.930 . S
H752 C749 0.928 . S
H753 C750 0.931 . S
H754 C730 0.930 . S
H755 C727 0.930 . S
H756 C736 0.930 . S
H757 C748 0.929 . S
H758 C751 0.930 . S
C759 C760 1.351 . S
C759 N762 1.368 . S
C759 H764 0.931 . S
C760 C759 1.351 . S
C760 N761 1.373 . S
C760 H788 0.930 . S
N761 C760 1.373 . S
N761 C763 1.340 . S
N762 C759 1.368 . S
N762 C763 1.321 . S
N762 Co765 2.135 . S
C763 N761 1.340 . S
C763 N762 1.321 . S
C763 H787 0.930 . S
H764 C759 0.931 . S
Co765 N762 2.135 . S
Co765 N768 2.121 . S
Co765 O773 2.055 . S
Co765 O776 2.039 . S
Co765 N779 2.140 . S
C766 O767 1.227 . S
C766 O776 1.265 . S
O767 C766 1.227 . S
N768 Co765 2.121 . S
N768 C770 1.375 . S
N768 C771 1.313 . S
C769 C770 1.338 . S
C769 N772 1.377 . S
C769 H789 0.930 . S
C770 N768 1.375 . S
C770 C769 1.338 . S
C770 H774 0.931 . S
C771 N768 1.313 . S
C771 N772 1.344 . S
C771 H775 0.930 . S
N772 C769 1.377 . S
N772 C771 1.344 . S
O773 Co765 2.055 . S
O773 C777 1.253 . S
H774 C770 0.931 . S
H775 C771 0.930 . S
O776 Co765 2.039 . S
O776 C766 1.265 . S
C777 O773 1.253 . S
C777 O778 1.227 . S
O778 C777 1.227 . S
N779 Co765 2.140 . S
N779 C782 1.346 . S
N779 C783 1.345 . S
C780 C781 1.387 . S
C780 C784 1.391 . S
C781 C780 1.387 . S
C781 C782 1.369 . S
C781 H790 0.929 . S
C782 N779 1.346 . S
C782 C781 1.369 . S
C782 H785 0.928 . S
C783 N779 1.345 . S
C783 C784 1.371 . S
C783 H786 0.931 . S
C784 C780 1.391 . S
C784 C783 1.371 . S
C784 H791 0.930 . S
H785 C782 0.928 . S
H786 C783 0.931 . S
H787 C763 0.930 . S
H788 C760 0.930 . S
H789 C769 0.930 . S
H790 C781 0.929 . S
H791 C784 0.930 . S
C792 C793 1.351 . S
C792 N795 1.368 . S
C792 H797 0.931 . S
C793 C792 1.351 . S
C793 N794 1.373 . S
C793 H821 0.930 . S
N794 C793 1.373 . S
N794 C796 1.340 . S
N795 C792 1.368 . S
N795 C796 1.321 . S
N795 Co798 2.135 . S
C796 N794 1.340 . S
C796 N795 1.321 . S
C796 H820 0.930 . S
H797 C792 0.931 . S
Co798 N795 2.135 . S
Co798 N801 2.121 . S
Co798 O806 2.055 . S
Co798 O809 2.039 . S
Co798 N812 2.140 . S
C799 O800 1.227 . S
C799 O809 1.265 . S
O800 C799 1.227 . S
N801 Co798 2.121 . S
N801 C803 1.375 . S
N801 C804 1.313 . S
C802 C803 1.338 . S
C802 N805 1.377 . S
C802 H822 0.930 . S
C803 N801 1.375 . S
C803 C802 1.338 . S
C803 H807 0.931 . S
C804 N801 1.313 . S
C804 N805 1.344 . S
C804 H808 0.930 . S
N805 C802 1.377 . S
N805 C804 1.344 . S
O806 Co798 2.055 . S
O806 C810 1.253 . S
H807 C803 0.931 . S
H808 C804 0.930 . S
O809 Co798 2.039 . S
O809 C799 1.265 . S
C810 O806 1.253 . S
C810 O811 1.227 . S
O811 C810 1.227 . S
N812 Co798 2.140 . S
N812 C815 1.346 . S
N812 C816 1.345 . S
C813 C814 1.387 . S
C813 C817 1.391 . S
C814 C813 1.387 . S
C814 C815 1.369 . S
C814 H823 0.929 . S
C815 N812 1.346 . S
C815 C814 1.369 . S
C815 H818 0.928 . S
C816 N812 1.345 . S
C816 C817 1.371 . S
C816 H819 0.931 . S
C817 C813 1.391 . S
C817 C816 1.371 . S
C817 H824 0.930 . S
H818 C815 0.928 . S
H819 C816 0.931 . S
H820 C796 0.930 . S
H821 C793 0.930 . S
H822 C802 0.930 . S
H823 C814 0.929 . S
H824 C817 0.930 . S
C825 C826 1.351 . S
C825 N828 1.368 . S
C825 H830 0.931 . S
C826 C825 1.351 . S
C826 N827 1.373 . S
C826 H854 0.930 . S
N827 C826 1.373 . S
N827 C829 1.340 . S
N828 C825 1.368 . S
N828 C829 1.321 . S
N828 Co831 2.135 . S
C829 N827 1.340 . S
C829 N828 1.321 . S
C829 H853 0.930 . S
H830 C825 0.931 . S
Co831 N828 2.135 . S
Co831 N834 2.121 . S
Co831 O839 2.055 . S
Co831 O842 2.039 . S
Co831 N845 2.140 . S
C832 O833 1.227 . S
C832 O842 1.265 . S
O833 C832 1.227 . S
N834 Co831 2.121 . S
N834 C836 1.375 . S
N834 C837 1.313 . S
C835 C836 1.338 . S
C835 N838 1.377 . S
C835 H855 0.930 . S
C836 N834 1.375 . S
C836 C835 1.338 . S
C836 H840 0.931 . S
C837 N834 1.313 . S
C837 N838 1.344 . S
C837 H841 0.930 . S
N838 C835 1.377 . S
N838 C837 1.344 . S
O839 Co831 2.055 . S
O839 C843 1.253 . S
H840 C836 0.931 . S
H841 C837 0.930 . S
O842 Co831 2.039 . S
O842 C832 1.265 . S
C843 O839 1.253 . S
C843 O844 1.227 . S
O844 C843 1.227 . S
N845 Co831 2.140 . S
N845 C848 1.346 . S
N845 C849 1.345 . S
C846 C847 1.387 . S
C846 C850 1.391 . S
C847 C846 1.387 . S
C847 C848 1.369 . S
C847 H856 0.929 . S
C848 N845 1.346 . S
C848 C847 1.369 . S
C848 H851 0.928 . S
C849 N845 1.345 . S
C849 C850 1.371 . S
C849 H852 0.931 . S
C850 C846 1.391 . S
C850 C849 1.371 . S
C850 H857 0.930 . S
H851 C848 0.928 . S
H852 C849 0.931 . S
H853 C829 0.930 . S
H854 C826 0.930 . S
H855 C835 0.930 . S
H856 C847 0.929 . S
H857 C850 0.930 . S
C858 C859 1.351 . S
C858 N861 1.368 . S
C858 H863 0.931 . S
C859 C858 1.351 . S
C859 N860 1.373 . S
C859 H887 0.930 . S
N860 C859 1.373 . S
N860 C862 1.340 . S
N861 C858 1.368 . S
N861 C862 1.321 . S
N861 Co864 2.135 . S
C862 N860 1.340 . S
C862 N861 1.321 . S
C862 H886 0.930 . S
H863 C858 0.931 . S
Co864 N861 2.135 . S
Co864 N867 2.121 . S
Co864 O872 2.055 . S
Co864 O875 2.039 . S
Co864 N878 2.140 . S
C865 O866 1.227 . S
C865 O875 1.265 . S
O866 C865 1.227 . S
N867 Co864 2.121 . S
N867 C869 1.375 . S
N867 C870 1.313 . S
C868 C869 1.338 . S
C868 N871 1.377 . S
C868 H888 0.930 . S
C869 N867 1.375 . S
C869 C868 1.338 . S
C869 H873 0.931 . S
C870 N867 1.313 . S
C870 N871 1.344 . S
C870 H874 0.930 . S
N871 C868 1.377 . S
N871 C870 1.344 . S
O872 Co864 2.055 . S
O872 C876 1.253 . S
H873 C869 0.931 . S
H874 C870 0.930 . S
O875 Co864 2.039 . S
O875 C865 1.265 . S
C876 O872 1.253 . S
C876 O877 1.227 . S
O877 C876 1.227 . S
N878 Co864 2.140 . S
N878 C881 1.346 . S
N878 C882 1.345 . S
C879 C880 1.387 . S
C879 C883 1.391 . S
C880 C879 1.387 . S
C880 C881 1.369 . S
C880 H889 0.929 . S
C881 N878 1.346 . S
C881 C880 1.369 . S
C881 H884 0.928 . S
C882 N878 1.345 . S
C882 C883 1.371 . S
C882 H885 0.931 . S
C883 C879 1.391 . S
C883 C882 1.371 . S
C883 H890 0.930 . S
H884 C881 0.928 . S
H885 C882 0.931 . S
H886 C862 0.930 . S
H887 C859 0.930 . S
H888 C868 0.930 . S
H889 C880 0.929 . S
H890 C883 0.930 . S
C891 C892 1.351 . S
C891 N894 1.368 . S
C891 H896 0.931 . S
C892 C891 1.351 . S
C892 N893 1.373 . S
C892 H920 0.930 . S
N893 C892 1.373 . S
N893 C895 1.340 . S
N894 C891 1.368 . S
N894 C895 1.321 . S
N894 Co897 2.135 . S
C895 N893 1.340 . S
C895 N894 1.321 . S
C895 H919 0.930 . S
H896 C891 0.931 . S
Co897 N894 2.135 . S
Co897 N900 2.121 . S
Co897 O905 2.055 . S
Co897 O908 2.039 . S
Co897 N911 2.140 . S
C898 O899 1.227 . S
C898 O908 1.265 . S
O899 C898 1.227 . S
N900 Co897 2.121 . S
N900 C902 1.375 . S
N900 C903 1.313 . S
C901 C902 1.338 . S
C901 N904 1.377 . S
C901 H921 0.930 . S
C902 N900 1.375 . S
C902 C901 1.338 . S
C902 H906 0.931 . S
C903 N900 1.313 . S
C903 N904 1.344 . S
C903 H907 0.930 . S
N904 C901 1.377 . S
N904 C903 1.344 . S
O905 Co897 2.055 . S
O905 C909 1.253 . S
H906 C902 0.931 . S
H907 C903 0.930 . S
O908 Co897 2.039 . S
O908 C898 1.265 . S
C909 O905 1.253 . S
C909 O910 1.227 . S
O910 C909 1.227 . S
N911 Co897 2.140 . S
N911 C914 1.346 . S
N911 C915 1.345 . S
C912 C913 1.387 . S
C912 C916 1.391 . S
C913 C912 1.387 . S
C913 C914 1.369 . S
C913 H922 0.929 . S
C914 N911 1.346 . S
C914 C913 1.369 . S
C914 H917 0.928 . S
C915 N911 1.345 . S
C915 C916 1.371 . S
C915 H918 0.931 . S
C916 C912 1.391 . S
C916 C915 1.371 . S
C916 H923 0.930 . S
H917 C914 0.928 . S
H918 C915 0.931 . S
H919 C895 0.930 . S
H920 C892 0.930 . S
H921 C901 0.930 . S
H922 C913 0.929 . S
H923 C916 0.930 . S
C924 C925 1.351 . S
C924 N927 1.368 . S
C924 H929 0.931 . S
C925 C924 1.351 . S
C925 N926 1.373 . S
C925 H953 0.930 . S
N926 C925 1.373 . S
N926 C928 1.340 . S
N927 C924 1.368 . S
N927 C928 1.321 . S
N927 Co930 2.135 . S
C928 N926 1.340 . S
C928 N927 1.321 . S
C928 H952 0.930 . S
H929 C924 0.931 . S
Co930 N927 2.135 . S
Co930 N933 2.121 . S
Co930 O938 2.055 . S
Co930 O941 2.039 . S
Co930 N944 2.140 . S
C931 O932 1.227 . S
C931 O941 1.265 . S
O932 C931 1.227 . S
N933 Co930 2.121 . S
N933 C935 1.375 . S
N933 C936 1.313 . S
C934 C935 1.338 . S
C934 N937 1.377 . S
C934 H954 0.930 . S
C935 N933 1.375 . S
C935 C934 1.338 . S
C935 H939 0.931 . S
C936 N933 1.313 . S
C936 N937 1.344 . S
C936 H940 0.930 . S
N937 C934 1.377 . S
N937 C936 1.344 . S
O938 Co930 2.055 . S
O938 C942 1.253 . S
H939 C935 0.931 . S
H940 C936 0.930 . S
O941 Co930 2.039 . S
O941 C931 1.265 . S
C942 O938 1.253 . S
C942 O943 1.227 . S
O943 C942 1.227 . S
N944 Co930 2.140 . S
N944 C947 1.346 . S
N944 C948 1.345 . S
C945 C946 1.387 . S
C945 C949 1.391 . S
C946 C945 1.387 . S
C946 C947 1.369 . S
C946 H955 0.929 . S
C947 N944 1.346 . S
C947 C946 1.369 . S
C947 H950 0.928 . S
C948 N944 1.345 . S
C948 C949 1.371 . S
C948 H951 0.931 . S
C949 C945 1.391 . S
C949 C948 1.371 . S
C949 H956 0.930 . S
H950 C947 0.928 . S
H951 C948 0.931 . S
H952 C928 0.930 . S
H953 C925 0.930 . S
H954 C934 0.930 . S
H955 C946 0.929 . S
H956 C949 0.930 . S
C957 C958 1.351 . S
C957 N960 1.368 . S
C957 H962 0.931 . S
C958 C957 1.351 . S
C958 N959 1.373 . S
C958 H986 0.930 . S
N959 C958 1.373 . S
N959 C961 1.340 . S
N960 C957 1.368 . S
N960 C961 1.321 . S
N960 Co963 2.135 . S
C961 N959 1.340 . S
C961 N960 1.321 . S
C961 H985 0.930 . S
H962 C957 0.931 . S
Co963 N960 2.135 . S
Co963 N966 2.121 . S
Co963 O971 2.055 . S
Co963 O974 2.039 . S
Co963 N977 2.140 . S
C964 O965 1.227 . S
C964 O974 1.265 . S
O965 C964 1.227 . S
N966 Co963 2.121 . S
N966 C968 1.375 . S
N966 C969 1.313 . S
C967 C968 1.338 . S
C967 N970 1.377 . S
C967 H987 0.930 . S
C968 N966 1.375 . S
C968 C967 1.338 . S
C968 H972 0.931 . S
C969 N966 1.313 . S
C969 N970 1.344 . S
C969 H973 0.930 . S
N970 C967 1.377 . S
N970 C969 1.344 . S
O971 Co963 2.055 . S
O971 C975 1.253 . S
H972 C968 0.931 . S
H973 C969 0.930 . S
O974 Co963 2.039 . S
O974 C964 1.265 . S
C975 O971 1.253 . S
C975 O976 1.227 . S
O976 C975 1.227 . S
N977 Co963 2.140 . S
N977 C980 1.346 . S
N977 C981 1.345 . S
C978 C979 1.387 . S
C978 C982 1.391 . S
C979 C978 1.387 . S
C979 C980 1.369 . S
C979 H988 0.929 . S
C980 N977 1.346 . S
C980 C979 1.369 . S
C980 H983 0.928 . S
C981 N977 1.345 . S
C981 C982 1.371 . S
C981 H984 0.931 . S
C982 C978 1.391 . S
C982 C981 1.371 . S
C982 H989 0.930 . S
H983 C980 0.928 . S
H984 C981 0.931 . S
H985 C961 0.930 . S
H986 C958 0.930 . S
H987 C967 0.930 . S
H988 C979 0.929 . S
H989 C982 0.930 . S
C990 C991 1.351 . S
C990 N993 1.368 . S
C990 H995 0.931 . S
C991 C990 1.351 . S
C991 N992 1.373 . S
C991 H1019 0.930 . S
N992 C991 1.373 . S
N992 C994 1.340 . S
N993 C990 1.368 . S
N993 C994 1.321 . S
N993 Co996 2.135 . S
C994 N992 1.340 . S
C994 N993 1.321 . S
C994 H1018 0.930 . S
H995 C990 0.931 . S
Co996 N993 2.135 . S
Co996 N999 2.121 . S
Co996 O1004 2.055 . S
Co996 O1007 2.039 . S
Co996 N1010 2.140 . S
C997 O998 1.227 . S
C997 O1007 1.265 . S
O998 C997 1.227 . S
N999 Co996 2.121 . S
N999 C1001 1.375 . S
N999 C1002 1.313 . S
C1000 C1001 1.338 . S
C1000 N1003 1.377 . S
C1000 H1020 0.930 . S
C1001 N999 1.375 . S
C1001 C1000 1.338 . S
C1001 H1005 0.931 . S
C1002 N999 1.313 . S
C1002 N1003 1.344 . S
C1002 H1006 0.930 . S
N1003 C1000 1.377 . S
N1003 C1002 1.344 . S
O1004 Co996 2.055 . S
O1004 C1008 1.253 . S
H1005 C1001 0.931 . S
H1006 C1002 0.930 . S
O1007 Co996 2.039 . S
O1007 C997 1.265 . S
C1008 O1004 1.253 . S
C1008 O1009 1.227 . S
O1009 C1008 1.227 . S
N1010 Co996 2.140 . S
N1010 C1013 1.346 . S
N1010 C1014 1.345 . S
C1011 C1012 1.387 . S
C1011 C1015 1.391 . S
C1012 C1011 1.387 . S
C1012 C1013 1.369 . S
C1012 H1021 0.929 . S
C1013 N1010 1.346 . S
C1013 C1012 1.369 . S
C1013 H1016 0.928 . S
C1014 N1010 1.345 . S
C1014 C1015 1.371 . S
C1014 H1017 0.931 . S
C1015 C1011 1.391 . S
C1015 C1014 1.371 . S
C1015 H1022 0.930 . S
H1016 C1013 0.928 . S
H1017 C1014 0.931 . S
H1018 C994 0.930 . S
H1019 C991 0.930 . S
H1020 C1000 0.930 . S
H1021 C1012 0.929 . S
H1022 C1015 0.930 . S
C1023 C1024 1.351 . S
C1023 N1026 1.368 . S
C1023 H1028 0.931 . S
C1024 C1023 1.351 . S
C1024 N1025 1.373 . S
C1024 H1052 0.930 . S
N1025 C1024 1.373 . S
N1025 C1027 1.340 . S
N1026 C1023 1.368 . S
N1026 C1027 1.321 . S
N1026 Co1029 2.135 . S
C1027 N1025 1.340 . S
C1027 N1026 1.321 . S
C1027 H1051 0.930 . S
H1028 C1023 0.931 . S
Co1029 N1026 2.135 . S
Co1029 N1032 2.121 . S
Co1029 O1037 2.055 . S
Co1029 O1040 2.039 . S
Co1029 N1043 2.140 . S
C1030 O1031 1.227 . S
C1030 O1040 1.265 . S
O1031 C1030 1.227 . S
N1032 Co1029 2.121 . S
N1032 C1034 1.375 . S
N1032 C1035 1.313 . S
C1033 C1034 1.338 . S
C1033 N1036 1.377 . S
C1033 H1053 0.930 . S
C1034 N1032 1.375 . S
C1034 C1033 1.338 . S
C1034 H1038 0.931 . S
C1035 N1032 1.313 . S
C1035 N1036 1.344 . S
C1035 H1039 0.930 . S
N1036 C1033 1.377 . S
N1036 C1035 1.344 . S
O1037 Co1029 2.055 . S
O1037 C1041 1.253 . S
H1038 C1034 0.931 . S
H1039 C1035 0.930 . S
O1040 Co1029 2.039 . S
O1040 C1030 1.265 . S
C1041 O1037 1.253 . S
C1041 O1042 1.227 . S
O1042 C1041 1.227 . S
N1043 Co1029 2.140 . S
N1043 C1046 1.346 . S
N1043 C1047 1.345 . S
C1044 C1045 1.387 . S
C1044 C1048 1.391 . S
C1045 C1044 1.387 . S
C1045 C1046 1.369 . S
C1045 H1054 0.929 . S
C1046 N1043 1.346 . S
C1046 C1045 1.369 . S
C1046 H1049 0.928 . S
C1047 N1043 1.345 . S
C1047 C1048 1.371 . S
C1047 H1050 0.931 . S
C1048 C1044 1.391 . S
C1048 C1047 1.371 . S
C1048 H1055 0.930 . S
H1049 C1046 0.928 . S
H1050 C1047 0.931 . S
H1051 C1027 0.930 . S
H1052 C1024 0.930 . S
H1053 C1033 0.930 . S
H1054 C1045 0.929 . S
H1055 C1048 0.930 . S
C1056 C1057 1.351 . S
C1056 N1059 1.368 . S
C1056 H1061 0.931 . S
C1057 C1056 1.351 . S
C1057 N1058 1.373 . S
C1057 H1085 0.930 . S
N1058 C1057 1.373 . S
N1058 C1060 1.340 . S
N1059 C1056 1.368 . S
N1059 C1060 1.321 . S
N1059 Co1062 2.135 . S
C1060 N1058 1.340 . S
C1060 N1059 1.321 . S
C1060 H1084 0.930 . S
H1061 C1056 0.931 . S
Co1062 N1059 2.135 . S
Co1062 N1065 2.121 . S
Co1062 O1070 2.055 . S
Co1062 O1073 2.039 . S
Co1062 N1076 2.140 . S
C1063 O1064 1.227 . S
C1063 O1073 1.265 . S
O1064 C1063 1.227 . S
N1065 Co1062 2.121 . S
N1065 C1067 1.375 . S
N1065 C1068 1.313 . S
C1066 C1067 1.338 . S
C1066 N1069 1.377 . S
C1066 H1086 0.930 . S
C1067 N1065 1.375 . S
C1067 C1066 1.338 . S
C1067 H1071 0.931 . S
C1068 N1065 1.313 . S
C1068 N1069 1.344 . S
C1068 H1072 0.930 . S
N1069 C1066 1.377 . S
N1069 C1068 1.344 . S
O1070 Co1062 2.055 . S
O1070 C1074 1.253 . S
H1071 C1067 0.931 . S
H1072 C1068 0.930 . S
O1073 Co1062 2.039 . S
O1073 C1063 1.265 . S
C1074 O1070 1.253 . S
C1074 O1075 1.227 . S
O1075 C1074 1.227 . S
N1076 Co1062 2.140 . S
N1076 C1079 1.346 . S
N1076 C1080 1.345 . S
C1077 C1078 1.387 . S
C1077 C1081 1.391 . S
C1078 C1077 1.387 . S
C1078 C1079 1.369 . S
C1078 H1087 0.929 . S
C1079 N1076 1.346 . S
C1079 C1078 1.369 . S
C1079 H1082 0.928 . S
C1080 N1076 1.345 . S
C1080 C1081 1.371 . S
C1080 H1083 0.931 . S
C1081 C1077 1.391 . S
C1081 C1080 1.371 . S
C1081 H1088 0.930 . S
H1082 C1079 0.928 . S
H1083 C1080 0.931 . S
H1084 C1060 0.930 . S
H1085 C1057 0.930 . S
H1086 C1066 0.930 . S
H1087 C1078 0.929 . S
H1088 C1081 0.930 . S
C1089 C1090 1.351 . S
C1089 N1092 1.368 . S
C1089 H1094 0.931 . S
C1090 C1089 1.351 . S
C1090 N1091 1.373 . S
C1090 H1118 0.930 . S
N1091 C1090 1.373 . S
N1091 C1093 1.340 . S
N1092 C1089 1.368 . S
N1092 C1093 1.321 . S
N1092 Co1095 2.135 . S
C1093 N1091 1.340 . S
C1093 N1092 1.321 . S
C1093 H1117 0.930 . S
H1094 C1089 0.931 . S
Co1095 N1092 2.135 . S
Co1095 N1098 2.121 . S
Co1095 O1103 2.055 . S
Co1095 O1106 2.039 . S
Co1095 N1109 2.140 . S
C1096 O1097 1.227 . S
C1096 O1106 1.265 . S
O1097 C1096 1.227 . S
N1098 Co1095 2.121 . S
N1098 C1100 1.375 . S
N1098 C1101 1.313 . S
C1099 C1100 1.338 . S
C1099 N1102 1.377 . S
C1099 H1119 0.930 . S
C1100 N1098 1.375 . S
C1100 C1099 1.338 . S
C1100 H1104 0.931 . S
C1101 N1098 1.313 . S
C1101 N1102 1.344 . S
C1101 H1105 0.930 . S
N1102 C1099 1.377 . S
N1102 C1101 1.344 . S
O1103 Co1095 2.055 . S
O1103 C1107 1.253 . S
H1104 C1100 0.931 . S
H1105 C1101 0.930 . S
O1106 Co1095 2.039 . S
O1106 C1096 1.265 . S
C1107 O1103 1.253 . S
C1107 O1108 1.227 . S
O1108 C1107 1.227 . S
N1109 Co1095 2.140 . S
N1109 C1112 1.346 . S
N1109 C1113 1.345 . S
C1110 C1111 1.387 . S
C1110 C1114 1.391 . S
C1111 C1110 1.387 . S
C1111 C1112 1.369 . S
C1111 H1120 0.929 . S
C1112 N1109 1.346 . S
C1112 C1111 1.369 . S
C1112 H1115 0.928 . S
C1113 N1109 1.345 . S
C1113 C1114 1.371 . S
C1113 H1116 0.931 . S
C1114 C1110 1.391 . S
C1114 C1113 1.371 . S
C1114 H1121 0.930 . S
H1115 C1112 0.928 . S
H1116 C1113 0.931 . S
H1117 C1093 0.930 . S
H1118 C1090 0.930 . S
H1119 C1099 0.930 . S
H1120 C1111 0.929 . S
H1121 C1114 0.930 . S
C1122 C1123 1.351 . S
C1122 N1125 1.368 . S
C1122 H1127 0.931 . S
C1123 C1122 1.351 . S
C1123 N1124 1.373 . S
C1123 H1151 0.930 . S
N1124 C1123 1.373 . S
N1124 C1126 1.340 . S
N1125 C1122 1.368 . S
N1125 C1126 1.321 . S
N1125 Co1128 2.135 . S
C1126 N1124 1.340 . S
C1126 N1125 1.321 . S
C1126 H1150 0.930 . S
H1127 C1122 0.931 . S
Co1128 N1125 2.135 . S
Co1128 N1131 2.121 . S
Co1128 O1136 2.055 . S
Co1128 O1139 2.039 . S
Co1128 N1142 2.140 . S
C1129 O1130 1.227 . S
C1129 O1139 1.265 . S
O1130 C1129 1.227 . S
N1131 Co1128 2.121 . S
N1131 C1133 1.375 . S
N1131 C1134 1.313 . S
C1132 C1133 1.338 . S
C1132 N1135 1.377 . S
C1132 H1152 0.930 . S
C1133 N1131 1.375 . S
C1133 C1132 1.338 . S
C1133 H1137 0.931 . S
C1134 N1131 1.313 . S
C1134 N1135 1.344 . S
C1134 H1138 0.930 . S
N1135 C1132 1.377 . S
N1135 C1134 1.344 . S
O1136 Co1128 2.055 . S
O1136 C1140 1.253 . S
H1137 C1133 0.931 . S
H1138 C1134 0.930 . S
O1139 Co1128 2.039 . S
O1139 C1129 1.265 . S
C1140 O1136 1.253 . S
C1140 O1141 1.227 . S
O1141 C1140 1.227 . S
N1142 Co1128 2.140 . S
N1142 C1145 1.346 . S
N1142 C1146 1.345 . S
C1143 C1144 1.387 . S
C1143 C1147 1.391 . S
C1144 C1143 1.387 . S
C1144 C1145 1.369 . S
C1144 H1153 0.929 . S
C1145 N1142 1.346 . S
C1145 C1144 1.369 . S
C1145 H1148 0.928 . S
C1146 N1142 1.345 . S
C1146 C1147 1.371 . S
C1146 H1149 0.931 . S
C1147 C1143 1.391 . S
C1147 C1146 1.371 . S
C1147 H1154 0.930 . S
H1148 C1145 0.928 . S
H1149 C1146 0.931 . S
H1150 C1126 0.930 . S
H1151 C1123 0.930 . S
H1152 C1132 0.930 . S
H1153 C1144 0.929 . S
H1154 C1147 0.930 . S
C1155 C1156 1.351 . S
C1155 N1158 1.368 . S
C1155 H1160 0.931 . S
C1156 C1155 1.351 . S
C1156 N1157 1.373 . S
C1156 H1184 0.930 . S
N1157 C1156 1.373 . S
N1157 C1159 1.340 . S
N1158 C1155 1.368 . S
N1158 C1159 1.321 . S
N1158 Co1161 2.135 . S
C1159 N1157 1.340 . S
C1159 N1158 1.321 . S
C1159 H1183 0.930 . S
H1160 C1155 0.931 . S
Co1161 N1158 2.135 . S
Co1161 N1164 2.121 . S
Co1161 O1169 2.055 . S
Co1161 O1172 2.039 . S
Co1161 N1175 2.140 . S
C1162 O1163 1.227 . S
C1162 O1172 1.265 . S
O1163 C1162 1.227 . S
N1164 Co1161 2.121 . S
N1164 C1166 1.375 . S
N1164 C1167 1.313 . S
C1165 C1166 1.338 . S
C1165 N1168 1.377 . S
C1165 H1185 0.930 . S
C1166 N1164 1.375 . S
C1166 C1165 1.338 . S
C1166 H1170 0.931 . S
C1167 N1164 1.313 . S
C1167 N1168 1.344 . S
C1167 H1171 0.930 . S
N1168 C1165 1.377 . S
N1168 C1167 1.344 . S
O1169 Co1161 2.055 . S
O1169 C1173 1.253 . S
H1170 C1166 0.931 . S
H1171 C1167 0.930 . S
O1172 Co1161 2.039 . S
O1172 C1162 1.265 . S
C1173 O1169 1.253 . S
C1173 O1174 1.227 . S
O1174 C1173 1.227 . S
N1175 Co1161 2.140 . S
N1175 C1178 1.346 . S
N1175 C1179 1.345 . S
C1176 C1177 1.387 . S
C1176 C1180 1.391 . S
C1177 C1176 1.387 . S
C1177 C1178 1.369 . S
C1177 H1186 0.929 . S
C1178 N1175 1.346 . S
C1178 C1177 1.369 . S
C1178 H1181 0.928 . S
C1179 N1175 1.345 . S
C1179 C1180 1.371 . S
C1179 H1182 0.931 . S
C1180 C1176 1.391 . S
C1180 C1179 1.371 . S
C1180 H1187 0.930 . S
H1181 C1178 0.928 . S
H1182 C1179 0.931 . S
H1183 C1159 0.930 . S
H1184 C1156 0.930 . S
H1185 C1165 0.930 . S
H1186 C1177 0.929 . S
H1187 C1180 0.930 . S
C1188 C1189 1.351 . S
C1188 N1191 1.368 . S
C1188 H1193 0.931 . S
C1189 C1188 1.351 . S
C1189 N1190 1.373 . S
C1189 H1217 0.930 . S
N1190 C1189 1.373 . S
N1190 C1192 1.340 . S
N1191 C1188 1.368 . S
N1191 C1192 1.321 . S
N1191 Co1194 2.135 . S
C1192 N1190 1.340 . S
C1192 N1191 1.321 . S
C1192 H1216 0.930 . S
H1193 C1188 0.931 . S
Co1194 N1191 2.135 . S
Co1194 N1197 2.121 . S
Co1194 O1202 2.055 . S
Co1194 O1205 2.039 . S
Co1194 N1208 2.140 . S
C1195 O1196 1.227 . S
C1195 O1205 1.265 . S
O1196 C1195 1.227 . S
N1197 Co1194 2.121 . S
N1197 C1199 1.375 . S
N1197 C1200 1.313 . S
C1198 C1199 1.338 . S
C1198 N1201 1.377 . S
C1198 H1218 0.930 . S
C1199 N1197 1.375 . S
C1199 C1198 1.338 . S
C1199 H1203 0.931 . S
C1200 N1197 1.313 . S
C1200 N1201 1.344 . S
C1200 H1204 0.930 . S
N1201 C1198 1.377 . S
N1201 C1200 1.344 . S
O1202 Co1194 2.055 . S
O1202 C1206 1.253 . S
H1203 C1199 0.931 . S
H1204 C1200 0.930 . S
O1205 Co1194 2.039 . S
O1205 C1195 1.265 . S
C1206 O1202 1.253 . S
C1206 O1207 1.227 . S
O1207 C1206 1.227 . S
N1208 Co1194 2.140 . S
N1208 C1211 1.346 . S
N1208 C1212 1.345 . S
C1209 C1210 1.387 . S
C1209 C1213 1.391 . S
C1210 C1209 1.387 . S
C1210 C1211 1.369 . S
C1210 H1219 0.929 . S
C1211 N1208 1.346 . S
C1211 C1210 1.369 . S
C1211 H1214 0.928 . S
C1212 N1208 1.345 . S
C1212 C1213 1.371 . S
C1212 H1215 0.931 . S
C1213 C1209 1.391 . S
C1213 C1212 1.371 . S
C1213 H1220 0.930 . S
H1214 C1211 0.928 . S
H1215 C1212 0.931 . S
H1216 C1192 0.930 . S
H1217 C1189 0.930 . S
H1218 C1198 0.930 . S
H1219 C1210 0.929 . S
H1220 C1213 0.930 . S
C1221 C1222 1.351 . S
C1221 N1224 1.368 . S
C1221 H1226 0.931 . S
C1222 C1221 1.351 . S
C1222 N1223 1.373 . S
C1222 H1250 0.930 . S
N1223 C1222 1.373 . S
N1223 C1225 1.340 . S
N1224 C1221 1.368 . S
N1224 C1225 1.321 . S
N1224 Co1227 2.135 . S
C1225 N1223 1.340 . S
C1225 N1224 1.321 . S
C1225 H1249 0.930 . S
H1226 C1221 0.931 . S
Co1227 N1224 2.135 . S
Co1227 N1230 2.121 . S
Co1227 O1235 2.055 . S
Co1227 O1238 2.039 . S
Co1227 N1241 2.140 . S
C1228 O1229 1.227 . S
C1228 O1238 1.265 . S
O1229 C1228 1.227 . S
N1230 Co1227 2.121 . S
N1230 C1232 1.375 . S
N1230 C1233 1.313 . S
C1231 C1232 1.338 . S
C1231 N1234 1.377 . S
C1231 H1251 0.930 . S
C1232 N1230 1.375 . S
C1232 C1231 1.338 . S
C1232 H1236 0.931 . S
C1233 N1230 1.313 . S
C1233 N1234 1.344 . S
C1233 H1237 0.930 . S
N1234 C1231 1.377 . S
N1234 C1233 1.344 . S
O1235 Co1227 2.055 . S
O1235 C1239 1.253 . S
H1236 C1232 0.931 . S
H1237 C1233 0.930 . S
O1238 Co1227 2.039 . S
O1238 C1228 1.265 . S
C1239 O1235 1.253 . S
C1239 O1240 1.227 . S
O1240 C1239 1.227 . S
N1241 Co1227 2.140 . S
N1241 C1244 1.346 . S
N1241 C1245 1.345 . S
C1242 C1243 1.387 . S
C1242 C1246 1.391 . S
C1243 C1242 1.387 . S
C1243 C1244 1.369 . S
C1243 H1252 0.929 . S
C1244 N1241 1.346 . S
C1244 C1243 1.369 . S
C1244 H1247 0.928 . S
C1245 N1241 1.345 . S
C1245 C1246 1.371 . S
C1245 H1248 0.931 . S
C1246 C1242 1.391 . S
C1246 C1245 1.371 . S
C1246 H1253 0.930 . S
H1247 C1244 0.928 . S
H1248 C1245 0.931 . S
H1249 C1225 0.930 . S
H1250 C1222 0.930 . S
H1251 C1231 0.930 . S
H1252 C1243 0.929 . S
H1253 C1246 0.930 . S
C1254 C1255 1.351 . S
C1254 N1257 1.368 . S
C1254 H1259 0.931 . S
C1255 C1254 1.351 . S
C1255 N1256 1.373 . S
C1255 H1283 0.930 . S
N1256 C1255 1.373 . S
N1256 C1258 1.340 . S
N1257 C1254 1.368 . S
N1257 C1258 1.321 . S
N1257 Co1260 2.135 . S
C1258 N1256 1.340 . S
C1258 N1257 1.321 . S
C1258 H1282 0.930 . S
H1259 C1254 0.931 . S
Co1260 N1257 2.135 . S
Co1260 N1263 2.121 . S
Co1260 O1268 2.055 . S
Co1260 O1271 2.039 . S
Co1260 N1274 2.140 . S
C1261 O1262 1.227 . S
C1261 O1271 1.265 . S
O1262 C1261 1.227 . S
N1263 Co1260 2.121 . S
N1263 C1265 1.375 . S
N1263 C1266 1.313 . S
C1264 C1265 1.338 . S
C1264 N1267 1.377 . S
C1264 H1284 0.930 . S
C1265 N1263 1.375 . S
C1265 C1264 1.338 . S
C1265 H1269 0.931 . S
C1266 N1263 1.313 . S
C1266 N1267 1.344 . S
C1266 H1270 0.930 . S
N1267 C1264 1.377 . S
N1267 C1266 1.344 . S
O1268 Co1260 2.055 . S
O1268 C1272 1.253 . S
H1269 C1265 0.931 . S
H1270 C1266 0.930 . S
O1271 Co1260 2.039 . S
O1271 C1261 1.265 . S
C1272 O1268 1.253 . S
C1272 O1273 1.227 . S
O1273 C1272 1.227 . S
N1274 Co1260 2.140 . S
N1274 C1277 1.346 . S
N1274 C1278 1.345 . S
C1275 C1276 1.387 . S
C1275 C1279 1.391 . S
C1276 C1275 1.387 . S
C1276 C1277 1.369 . S
C1276 H1285 0.929 . S
C1277 N1274 1.346 . S
C1277 C1276 1.369 . S
C1277 H1280 0.928 . S
C1278 N1274 1.345 . S
C1278 C1279 1.371 . S
C1278 H1281 0.931 . S
C1279 C1275 1.391 . S
C1279 C1278 1.371 . S
C1279 H1286 0.930 . S
H1280 C1277 0.928 . S
H1281 C1278 0.931 . S
H1282 C1258 0.930 . S
H1283 C1255 0.930 . S
H1284 C1264 0.930 . S
H1285 C1276 0.929 . S
H1286 C1279 0.930 . S
C1287 C1288 1.351 . S
C1287 N1290 1.368 . S
C1287 H1292 0.931 . S
C1288 C1287 1.351 . S
C1288 N1289 1.373 . S
C1288 H1316 0.930 . S
N1289 C1288 1.373 . S
N1289 C1291 1.340 . S
N1290 C1287 1.368 . S
N1290 C1291 1.321 . S
N1290 Co1293 2.135 . S
C1291 N1289 1.340 . S
C1291 N1290 1.321 . S
C1291 H1315 0.930 . S
H1292 C1287 0.931 . S
Co1293 N1290 2.135 . S
Co1293 N1296 2.121 . S
Co1293 O1301 2.055 . S
Co1293 O1304 2.039 . S
Co1293 N1307 2.140 . S
C1294 O1295 1.227 . S
C1294 O1304 1.265 . S
O1295 C1294 1.227 . S
N1296 Co1293 2.121 . S
N1296 C1298 1.375 . S
N1296 C1299 1.313 . S
C1297 C1298 1.338 . S
C1297 N1300 1.377 . S
C1297 H1317 0.930 . S
C1298 N1296 1.375 . S
C1298 C1297 1.338 . S
C1298 H1302 0.931 . S
C1299 N1296 1.313 . S
C1299 N1300 1.344 . S
C1299 H1303 0.930 . S
N1300 C1297 1.377 . S
N1300 C1299 1.344 . S
O1301 Co1293 2.055 . S
O1301 C1305 1.253 . S
H1302 C1298 0.931 . S
H1303 C1299 0.930 . S
O1304 Co1293 2.039 . S
O1304 C1294 1.265 . S
C1305 O1301 1.253 . S
C1305 O1306 1.227 . S
O1306 C1305 1.227 . S
N1307 Co1293 2.140 . S
N1307 C1310 1.346 . S
N1307 C1311 1.345 . S
C1308 C1309 1.387 . S
C1308 C1312 1.391 . S
C1309 C1308 1.387 . S
C1309 C1310 1.369 . S
C1309 H1318 0.929 . S
C1310 N1307 1.346 . S
C1310 C1309 1.369 . S
C1310 H1313 0.928 . S
C1311 N1307 1.345 . S
C1311 C1312 1.371 . S
C1311 H1314 0.931 . S
C1312 C1308 1.391 . S
C1312 C1311 1.371 . S
C1312 H1319 0.930 . S
H1313 C1310 0.928 . S
H1314 C1311 0.931 . S
H1315 C1291 0.930 . S
H1316 C1288 0.930 . S
H1317 C1297 0.930 . S
H1318 C1309 0.929 . S
H1319 C1312 0.930 . S
C1320 C1321 1.351 . S
C1320 N1323 1.368 . S
C1320 H1325 0.931 . S
C1321 C1320 1.351 . S
C1321 N1322 1.373 . S
C1321 H1349 0.930 . S
N1322 C1321 1.373 . S
N1322 C1324 1.340 . S
N1323 C1320 1.368 . S
N1323 C1324 1.321 . S
N1323 Co1326 2.135 . S
C1324 N1322 1.340 . S
C1324 N1323 1.321 . S
C1324 H1348 0.930 . S
H1325 C1320 0.931 . S
Co1326 N1323 2.135 . S
Co1326 N1329 2.121 . S
Co1326 O1334 2.055 . S
Co1326 O1337 2.039 . S
Co1326 N1340 2.140 . S
C1327 O1328 1.227 . S
C1327 O1337 1.265 . S
O1328 C1327 1.227 . S
N1329 Co1326 2.121 . S
N1329 C1331 1.375 . S
N1329 C1332 1.313 . S
C1330 C1331 1.338 . S
C1330 N1333 1.377 . S
C1330 H1350 0.930 . S
C1331 N1329 1.375 . S
C1331 C1330 1.338 . S
C1331 H1335 0.931 . S
C1332 N1329 1.313 . S
C1332 N1333 1.344 . S
C1332 H1336 0.930 . S
N1333 C1330 1.377 . S
N1333 C1332 1.344 . S
O1334 Co1326 2.055 . S
O1334 C1338 1.253 . S
H1335 C1331 0.931 . S
H1336 C1332 0.930 . S
O1337 Co1326 2.039 . S
O1337 C1327 1.265 . S
C1338 O1334 1.253 . S
C1338 O1339 1.227 . S
O1339 C1338 1.227 . S
N1340 Co1326 2.140 . S
N1340 C1343 1.346 . S
N1340 C1344 1.345 . S
C1341 C1342 1.387 . S
C1341 C1345 1.391 . S
C1342 C1341 1.387 . S
C1342 C1343 1.369 . S
C1342 H1351 0.929 . S
C1343 N1340 1.346 . S
C1343 C1342 1.369 . S
C1343 H1346 0.928 . S
C1344 N1340 1.345 . S
C1344 C1345 1.371 . S
C1344 H1347 0.931 . S
C1345 C1341 1.391 . S
C1345 C1344 1.371 . S
C1345 H1352 0.930 . S
H1346 C1343 0.928 . S
H1347 C1344 0.931 . S
H1348 C1324 0.930 . S
H1349 C1321 0.930 . S
H1350 C1330 0.930 . S
H1351 C1342 0.929 . S
H1352 C1345 0.930 . S
C1353 C1354 1.351 . S
C1353 N1356 1.368 . S
C1353 H1358 0.931 . S
C1354 C1353 1.351 . S
C1354 N1355 1.373 . S
C1354 H1382 0.930 . S
N1355 C1354 1.373 . S
N1355 C1357 1.340 . S
N1356 C1353 1.368 . S
N1356 C1357 1.321 . S
N1356 Co1359 2.135 . S
C1357 N1355 1.340 . S
C1357 N1356 1.321 . S
C1357 H1381 0.930 . S
H1358 C1353 0.931 . S
Co1359 N1356 2.135 . S
Co1359 N1362 2.121 . S
Co1359 O1367 2.055 . S
Co1359 O1370 2.039 . S
Co1359 N1373 2.140 . S
C1360 O1361 1.227 . S
C1360 O1370 1.265 . S
O1361 C1360 1.227 . S
N1362 Co1359 2.121 . S
N1362 C1364 1.375 . S
N1362 C1365 1.313 . S
C1363 C1364 1.338 . S
C1363 N1366 1.377 . S
C1363 H1383 0.930 . S
C1364 N1362 1.375 . S
C1364 C1363 1.338 . S
C1364 H1368 0.931 . S
C1365 N1362 1.313 . S
C1365 N1366 1.344 . S
C1365 H1369 0.930 . S
N1366 C1363 1.377 . S
N1366 C1365 1.344 . S
O1367 Co1359 2.055 . S
O1367 C1371 1.253 . S
H1368 C1364 0.931 . S
H1369 C1365 0.930 . S
O1370 Co1359 2.039 . S
O1370 C1360 1.265 . S
C1371 O1367 1.253 . S
C1371 O1372 1.227 . S
O1372 C1371 1.227 . S
N1373 Co1359 2.140 . S
N1373 C1376 1.346 . S
N1373 C1377 1.345 . S
C1374 C1375 1.387 . S
C1374 C1378 1.391 . S
C1375 C1374 1.387 . S
C1375 C1376 1.369 . S
C1375 H1384 0.929 . S
C1376 N1373 1.346 . S
C1376 C1375 1.369 . S
C1376 H1379 0.928 . S
C1377 N1373 1.345 . S
C1377 C1378 1.371 . S
C1377 H1380 0.931 . S
C1378 C1374 1.391 . S
C1378 C1377 1.371 . S
C1378 H1385 0.930 . S
H1379 C1376 0.928 . S
H1380 C1377 0.931 . S
H1381 C1357 0.930 . S
H1382 C1354 0.930 . S
H1383 C1363 0.930 . S
H1384 C1375 0.929 . S
H1385 C1378 0.930 . S
C1386 C1387 1.351 . S
C1386 N1389 1.368 . S
C1386 H1391 0.931 . S
C1387 C1386 1.351 . S
C1387 N1388 1.373 . S
C1387 H1415 0.930 . S
N1388 C1387 1.373 . S
N1388 C1390 1.340 . S
N1389 C1386 1.368 . S
N1389 C1390 1.321 . S
N1389 Co1392 2.135 . S
C1390 N1388 1.340 . S
C1390 N1389 1.321 . S
C1390 H1414 0.930 . S
H1391 C1386 0.931 . S
Co1392 N1389 2.135 . S
Co1392 N1395 2.121 . S
Co1392 O1400 2.055 . S
Co1392 O1403 2.039 . S
Co1392 N1406 2.140 . S
C1393 O1394 1.227 . S
C1393 O1403 1.265 . S
O1394 C1393 1.227 . S
N1395 Co1392 2.121 . S
N1395 C1397 1.375 . S
N1395 C1398 1.313 . S
C1396 C1397 1.338 . S
C1396 N1399 1.377 . S
C1396 H1416 0.930 . S
C1397 N1395 1.375 . S
C1397 C1396 1.338 . S
C1397 H1401 0.931 . S
C1398 N1395 1.313 . S
C1398 N1399 1.344 . S
C1398 H1402 0.930 . S
N1399 C1396 1.377 . S
N1399 C1398 1.344 . S
O1400 Co1392 2.055 . S
O1400 C1404 1.253 . S
H1401 C1397 0.931 . S
H1402 C1398 0.930 . S
O1403 Co1392 2.039 . S
O1403 C1393 1.265 . S
C1404 O1400 1.253 . S
C1404 O1405 1.227 . S
O1405 C1404 1.227 . S
N1406 Co1392 2.140 . S
N1406 C1409 1.346 . S
N1406 C1410 1.345 . S
C1407 C1408 1.387 . S
C1407 C1411 1.391 . S
C1408 C1407 1.387 . S
C1408 C1409 1.369 . S
C1408 H1417 0.929 . S
C1409 N1406 1.346 . S
C1409 C1408 1.369 . S
C1409 H1412 0.928 . S
C1410 N1406 1.345 . S
C1410 C1411 1.371 . S
C1410 H1413 0.931 . S
C1411 C1407 1.391 . S
C1411 C1410 1.371 . S
C1411 H1418 0.930 . S
H1412 C1409 0.928 . S
H1413 C1410 0.931 . S
H1414 C1390 0.930 . S
H1415 C1387 0.930 . S
H1416 C1396 0.930 . S
H1417 C1408 0.929 . S
H1418 C1411 0.930 . S
C1419 C1420 1.351 . S
C1419 N1422 1.368 . S
C1419 H1424 0.931 . S
C1420 C1419 1.351 . S
C1420 N1421 1.373 . S
C1420 H1448 0.930 . S
N1421 C1420 1.373 . S
N1421 C1423 1.340 . S
N1422 C1419 1.368 . S
N1422 C1423 1.321 . S
N1422 Co1425 2.135 . S
C1423 N1421 1.340 . S
C1423 N1422 1.321 . S
C1423 H1447 0.930 . S
H1424 C1419 0.931 . S
Co1425 N1422 2.135 . S
Co1425 N1428 2.121 . S
Co1425 O1433 2.055 . S
Co1425 O1436 2.039 . S
Co1425 N1439 2.140 . S
C1426 O1427 1.227 . S
C1426 O1436 1.265 . S
O1427 C1426 1.227 . S
N1428 Co1425 2.121 . S
N1428 C1430 1.375 . S
N1428 C1431 1.313 . S
C1429 C1430 1.338 . S
C1429 N1432 1.377 . S
C1429 H1449 0.930 . S
C1430 N1428 1.375 . S
C1430 C1429 1.338 . S
C1430 H1434 0.931 . S
C1431 N1428 1.313 . S
C1431 N1432 1.344 . S
C1431 H1435 0.930 . S
N1432 C1429 1.377 . S
N1432 C1431 1.344 . S
O1433 Co1425 2.055 . S
O1433 C1437 1.253 . S
H1434 C1430 0.931 . S
H1435 C1431 0.930 . S
O1436 Co1425 2.039 . S
O1436 C1426 1.265 . S
C1437 O1433 1.253 . S
C1437 O1438 1.227 . S
O1438 C1437 1.227 . S
N1439 Co1425 2.140 . S
N1439 C1442 1.346 . S
N1439 C1443 1.345 . S
C1440 C1441 1.387 . S
C1440 C1444 1.391 . S
C1441 C1440 1.387 . S
C1441 C1442 1.369 . S
C1441 H1450 0.929 . S
C1442 N1439 1.346 . S
C1442 C1441 1.369 . S
C1442 H1445 0.928 . S
C1443 N1439 1.345 . S
C1443 C1444 1.371 . S
C1443 H1446 0.931 . S
C1444 C1440 1.391 . S
C1444 C1443 1.371 . S
C1444 H1451 0.930 . S
H1445 C1442 0.928 . S
H1446 C1443 0.931 . S
H1447 C1423 0.930 . S
H1448 C1420 0.930 . S
H1449 C1429 0.930 . S
H1450 C1441 0.929 . S
H1451 C1444 0.930 . S
C1452 C1453 1.351 . S
C1452 N1455 1.368 . S
C1452 H1457 0.931 . S
C1453 C1452 1.351 . S
C1453 N1454 1.373 . S
C1453 H1481 0.930 . S
N1454 C1453 1.373 . S
N1454 C1456 1.340 . S
N1455 C1452 1.368 . S
N1455 C1456 1.321 . S
N1455 Co1458 2.135 . S
C1456 N1454 1.340 . S
C1456 N1455 1.321 . S
C1456 H1480 0.930 . S
H1457 C1452 0.931 . S
Co1458 N1455 2.135 . S
Co1458 N1461 2.121 . S
Co1458 O1466 2.055 . S
Co1458 O1469 2.039 . S
Co1458 N1472 2.140 . S
C1459 O1460 1.227 . S
C1459 O1469 1.265 . S
O1460 C1459 1.227 . S
N1461 Co1458 2.121 . S
N1461 C1463 1.375 . S
N1461 C1464 1.313 . S
C1462 C1463 1.338 . S
C1462 N1465 1.377 . S
C1462 H1482 0.930 . S
C1463 N1461 1.375 . S
C1463 C1462 1.338 . S
C1463 H1467 0.931 . S
C1464 N1461 1.313 . S
C1464 N1465 1.344 . S
C1464 H1468 0.930 . S
N1465 C1462 1.377 . S
N1465 C1464 1.344 . S
O1466 Co1458 2.055 . S
O1466 C1470 1.253 . S
H1467 C1463 0.931 . S
H1468 C1464 0.930 . S
O1469 Co1458 2.039 . S
O1469 C1459 1.265 . S
C1470 O1466 1.253 . S
C1470 O1471 1.227 . S
O1471 C1470 1.227 . S
N1472 Co1458 2.140 . S
N1472 C1475 1.346 . S
N1472 C1476 1.345 . S
C1473 C1474 1.387 . S
C1473 C1477 1.391 . S
C1474 C1473 1.387 . S
C1474 C1475 1.369 . S
C1474 H1483 0.929 . S
C1475 N1472 1.346 . S
C1475 C1474 1.369 . S
C1475 H1478 0.928 . S
C1476 N1472 1.345 . S
C1476 C1477 1.371 . S
C1476 H1479 0.931 . S
C1477 C1473 1.391 . S
C1477 C1476 1.371 . S
C1477 H1484 0.930 . S
H1478 C1475 0.928 . S
H1479 C1476 0.931 . S
H1480 C1456 0.930 . S
H1481 C1453 0.930 . S
H1482 C1462 0.930 . S
H1483 C1474 0.929 . S
H1484 C1477 0.930 . S
C1485 C1486 1.351 . S
C1485 N1488 1.368 . S
C1485 H1490 0.931 . S
C1486 C1485 1.351 . S
C1486 N1487 1.373 . S
C1486 H1514 0.930 . S
N1487 C1486 1.373 . S
N1487 C1489 1.340 . S
N1488 C1485 1.368 . S
N1488 C1489 1.321 . S
N1488 Co1491 2.135 . S
C1489 N1487 1.340 . S
C1489 N1488 1.321 . S
C1489 H1513 0.930 . S
H1490 C1485 0.931 . S
Co1491 N1488 2.135 . S
Co1491 N1494 2.121 . S
Co1491 O1499 2.055 . S
Co1491 O1502 2.039 . S
Co1491 N1505 2.140 . S
C1492 O1493 1.227 . S
C1492 O1502 1.265 . S
O1493 C1492 1.227 . S
N1494 Co1491 2.121 . S
N1494 C1496 1.375 . S
N1494 C1497 1.313 . S
C1495 C1496 1.338 . S
C1495 N1498 1.377 . S
C1495 H1515 0.930 . S
C1496 N1494 1.375 . S
C1496 C1495 1.338 . S
C1496 H1500 0.931 . S
C1497 N1494 1.313 . S
C1497 N1498 1.344 . S
C1497 H1501 0.930 . S
N1498 C1495 1.377 . S
N1498 C1497 1.344 . S
O1499 Co1491 2.055 . S
O1499 C1503 1.253 . S
H1500 C1496 0.931 . S
H1501 C1497 0.930 . S
O1502 Co1491 2.039 . S
O1502 C1492 1.265 . S
C1503 O1499 1.253 . S
C1503 O1504 1.227 . S
O1504 C1503 1.227 . S
N1505 Co1491 2.140 . S
N1505 C1508 1.346 . S
N1505 C1509 1.345 . S
C1506 C1507 1.387 . S
C1506 C1510 1.391 . S
C1507 C1506 1.387 . S
C1507 C1508 1.369 . S
C1507 H1516 0.929 . S
C1508 N1505 1.346 . S
C1508 C1507 1.369 . S
C1508 H1511 0.928 . S
C1509 N1505 1.345 . S
C1509 C1510 1.371 . S
C1509 H1512 0.931 . S
C1510 C1506 1.391 . S
C1510 C1509 1.371 . S
C1510 H1517 0.930 . S
H1511 C1508 0.928 . S
H1512 C1509 0.931 . S
H1513 C1489 0.930 . S
H1514 C1486 0.930 . S
H1515 C1495 0.930 . S
H1516 C1507 0.929 . S
H1517 C1510 0.930 . S
C1518 C1519 1.351 . S
C1518 N1521 1.368 . S
C1518 H1523 0.931 . S
C1519 C1518 1.351 . S
C1519 N1520 1.373 . S
C1519 H1547 0.930 . S
N1520 C1519 1.373 . S
N1520 C1522 1.340 . S
N1521 C1518 1.368 . S
N1521 C1522 1.321 . S
N1521 Co1524 2.135 . S
C1522 N1520 1.340 . S
C1522 N1521 1.321 . S
C1522 H1546 0.930 . S
H1523 C1518 0.931 . S
Co1524 N1521 2.135 . S
Co1524 N1527 2.121 . S
Co1524 O1532 2.055 . S
Co1524 O1535 2.039 . S
Co1524 N1538 2.140 . S
C1525 O1526 1.227 . S
C1525 O1535 1.265 . S
O1526 C1525 1.227 . S
N1527 Co1524 2.121 . S
N1527 C1529 1.375 . S
N1527 C1530 1.313 . S
C1528 C1529 1.338 . S
C1528 N1531 1.377 . S
C1528 H1548 0.930 . S
C1529 N1527 1.375 . S
C1529 C1528 1.338 . S
C1529 H1533 0.931 . S
C1530 N1527 1.313 . S
C1530 N1531 1.344 . S
C1530 H1534 0.930 . S
N1531 C1528 1.377 . S
N1531 C1530 1.344 . S
O1532 Co1524 2.055 . S
O1532 C1536 1.253 . S
H1533 C1529 0.931 . S
H1534 C1530 0.930 . S
O1535 Co1524 2.039 . S
O1535 C1525 1.265 . S
C1536 O1532 1.253 . S
C1536 O1537 1.227 . S
O1537 C1536 1.227 . S
N1538 Co1524 2.140 . S
N1538 C1541 1.346 . S
N1538 C1542 1.345 . S
C1539 C1540 1.387 . S
C1539 C1543 1.391 . S
C1540 C1539 1.387 . S
C1540 C1541 1.369 . S
C1540 H1549 0.929 . S
C1541 N1538 1.346 . S
C1541 C1540 1.369 . S
C1541 H1544 0.928 . S
C1542 N1538 1.345 . S
C1542 C1543 1.371 . S
C1542 H1545 0.931 . S
C1543 C1539 1.391 . S
C1543 C1542 1.371 . S
C1543 H1550 0.930 . S
H1544 C1541 0.928 . S
H1545 C1542 0.931 . S
H1546 C1522 0.930 . S
H1547 C1519 0.930 . S
H1548 C1528 0.930 . S
H1549 C1540 0.929 . S
H1550 C1543 0.930 . S
C1551 C1552 1.351 . S
C1551 N1554 1.368 . S
C1551 H1556 0.931 . S
C1552 C1551 1.351 . S
C1552 N1553 1.373 . S
C1552 H1580 0.930 . S
N1553 C1552 1.373 . S
N1553 C1555 1.340 . S
N1554 C1551 1.368 . S
N1554 C1555 1.321 . S
N1554 Co1557 2.135 . S
C1555 N1553 1.340 . S
C1555 N1554 1.321 . S
C1555 H1579 0.930 . S
H1556 C1551 0.931 . S
Co1557 N1554 2.135 . S
Co1557 N1560 2.121 . S
Co1557 O1565 2.055 . S
Co1557 O1568 2.039 . S
Co1557 N1571 2.140 . S
C1558 O1559 1.227 . S
C1558 O1568 1.265 . S
O1559 C1558 1.227 . S
N1560 Co1557 2.121 . S
N1560 C1562 1.375 . S
N1560 C1563 1.313 . S
C1561 C1562 1.338 . S
C1561 N1564 1.377 . S
C1561 H1581 0.930 . S
C1562 N1560 1.375 . S
C1562 C1561 1.338 . S
C1562 H1566 0.931 . S
C1563 N1560 1.313 . S
C1563 N1564 1.344 . S
C1563 H1567 0.930 . S
N1564 C1561 1.377 . S
N1564 C1563 1.344 . S
O1565 Co1557 2.055 . S
O1565 C1569 1.253 . S
H1566 C1562 0.931 . S
H1567 C1563 0.930 . S
O1568 Co1557 2.039 . S
O1568 C1558 1.265 . S
C1569 O1565 1.253 . S
C1569 O1570 1.227 . S
O1570 C1569 1.227 . S
N1571 Co1557 2.140 . S
N1571 C1574 1.346 . S
N1571 C1575 1.345 . S
C1572 C1573 1.387 . S
C1572 C1576 1.391 . S
C1573 C1572 1.387 . S
C1573 C1574 1.369 . S
C1573 H1582 0.929 . S
C1574 N1571 1.346 . S
C1574 C1573 1.369 . S
C1574 H1577 0.928 . S
C1575 N1571 1.345 . S
C1575 C1576 1.371 . S
C1575 H1578 0.931 . S
C1576 C1572 1.391 . S
C1576 C1575 1.371 . S
C1576 H1583 0.930 . S
H1577 C1574 0.928 . S
H1578 C1575 0.931 . S
H1579 C1555 0.930 . S
H1580 C1552 0.930 . S
H1581 C1561 0.930 . S
H1582 C1573 0.929 . S
H1583 C1576 0.930 . S
H1584 C1596 0.930 . S
H1585 C1598 0.930 . S
H1586 C1599 0.930 . S
H1587 C1603 0.959 . S
H1588 C1603 0.959 . S
H1589 C1603 0.961 . S
H1590 C1604 0.960 . S
H1591 C1604 0.961 . S
H1592 C1604 0.959 . S
H1593 C1607 0.929 . S
H1594 C1608 0.931 . S
H1595 C1610 0.930 . S
C1596 H1584 0.930 . S
C1596 C1597 1.399 . S
C1596 C1601 1.399 . S
C1597 C1596 1.399 . S
C1597 C1598 1.376 . S
C1598 H1585 0.930 . S
C1598 C1597 1.376 . S
C1598 C1599 1.388 . S
C1599 H1586 0.930 . S
C1599 C1598 1.388 . S
C1599 C1600 1.390 . S
C1600 C1599 1.390 . S
C1600 C1601 1.394 . S
C1600 C1606 1.465 . S
C1601 C1596 1.399 . S
C1601 C1600 1.394 . S
C1601 C1602 1.516 . S
C1602 C1601 1.516 . S
C1602 C1603 1.502 . S
C1602 C1604 1.561 . S
C1602 C1605 1.526 . S
C1603 H1587 0.959 . S
C1603 H1588 0.959 . S
C1603 H1589 0.961 . S
C1603 C1602 1.502 . S
C1604 H1590 0.960 . S
C1604 H1591 0.961 . S
C1604 H1592 0.959 . S
C1604 C1602 1.561 . S
C1605 C1602 1.526 . S
C1605 C1606 1.396 . S
C1605 C1610 1.390 . S
C1606 C1600 1.465 . S
C1606 C1605 1.396 . S
C1606 C1607 1.399 . S
C1607 H1593 0.929 . S
C1607 C1606 1.399 . S
C1607 C1608 1.385 1_455 S
C1608 H1594 0.931 . S
C1608 C1607 1.385 1_655 S
C1608 C1609 1.389 1_655 S
C1609 C1608 1.389 1_455 S
C1609 C1610 1.387 . S
C1610 H1595 0.930 . S
C1610 C1605 1.390 . S
C1610 C1609 1.387 . S
H1611 C1623 0.930 . S
H1612 C1625 0.930 . S
H1613 C1626 0.930 . S
H1614 C1630 0.959 . S
H1615 C1630 0.959 . S
H1616 C1630 0.961 . S
H1617 C1631 0.960 . S
H1618 C1631 0.961 . S
H1619 C1631 0.959 . S
H1620 C1634 0.929 . S
H1621 C1635 0.931 . S
H1622 C1637 0.930 . S
C1623 H1611 0.930 . S
C1623 C1624 1.399 . S
C1623 C1628 1.399 . S
C1624 C1623 1.399 . S
C1624 C1625 1.376 . S
C1625 H1612 0.930 . S
C1625 C1624 1.376 . S
C1625 C1626 1.388 . S
C1626 H1613 0.930 . S
C1626 C1625 1.388 . S
C1626 C1627 1.390 . S
C1627 C1626 1.390 . S
C1627 C1628 1.394 . S
C1627 C1633 1.465 . S
C1628 C1623 1.399 . S
C1628 C1627 1.394 . S
C1628 C1629 1.516 . S
C1629 C1628 1.516 . S
C1629 C1630 1.502 . S
C1629 C1631 1.561 . S
C1629 C1632 1.526 . S
C1630 H1614 0.959 . S
C1630 H1615 0.959 . S
C1630 H1616 0.961 . S
C1630 C1629 1.502 . S
C1631 H1617 0.960 . S
C1631 H1618 0.961 . S
C1631 H1619 0.959 . S
C1631 C1629 1.561 . S
C1632 C1629 1.526 . S
C1632 C1633 1.396 . S
C1632 C1637 1.390 . S
C1633 C1627 1.465 . S
C1633 C1632 1.396 . S
C1633 C1634 1.399 . S
C1634 H1620 0.929 . S
C1634 C1633 1.399 . S
C1634 C1635 1.385 . S
C1635 H1621 0.931 . S
C1635 C1634 1.385 . S
C1635 C1636 1.389 . S
C1636 C1635 1.389 . S
C1636 C1637 1.387 . S
C1637 H1622 0.930 . S
C1637 C1632 1.390 . S
C1637 C1636 1.387 . S
H1638 C1650 0.930 . S
H1639 C1652 0.930 . S
H1640 C1653 0.930 . S
H1641 C1657 0.959 . S
H1642 C1657 0.959 . S
H1643 C1657 0.961 . S
H1644 C1658 0.960 . S
H1645 C1658 0.961 . S
H1646 C1658 0.959 . S
H1647 C1661 0.929 . S
H1648 C1662 0.931 . S
H1649 C1664 0.930 . S
C1650 H1638 0.930 . S
C1650 C1651 1.399 . S
C1650 C1655 1.399 . S
C1651 C1650 1.399 . S
C1651 C1652 1.376 . S
C1652 H1639 0.930 . S
C1652 C1651 1.376 . S
C1652 C1653 1.388 . S
C1653 H1640 0.930 . S
C1653 C1652 1.388 . S
C1653 C1654 1.390 . S
C1654 C1653 1.390 . S
C1654 C1655 1.394 . S
C1654 C1660 1.465 . S
C1655 C1650 1.399 . S
C1655 C1654 1.394 . S
C1655 C1656 1.516 . S
C1656 C1655 1.516 . S
C1656 C1657 1.502 . S
C1656 C1658 1.561 . S
C1656 C1659 1.526 . S
C1657 H1641 0.959 . S
C1657 H1642 0.959 . S
C1657 H1643 0.961 . S
C1657 C1656 1.502 . S
C1658 H1644 0.960 . S
C1658 H1645 0.961 . S
C1658 H1646 0.959 . S
C1658 C1656 1.561 . S
C1659 C1656 1.526 . S
C1659 C1660 1.396 . S
C1659 C1664 1.390 . S
C1660 C1654 1.465 . S
C1660 C1659 1.396 . S
C1660 C1661 1.399 . S
C1661 H1647 0.929 . S
C1661 C1660 1.399 . S
C1661 C1662 1.385 . S
C1662 H1648 0.931 . S
C1662 C1661 1.385 . S
C1662 C1663 1.389 . S
C1663 C1662 1.389 . S
C1663 C1664 1.387 . S
C1664 H1649 0.930 . S
C1664 C1659 1.390 . S
C1664 C1663 1.387 . S
H1665 C1677 0.930 . S
H1666 C1679 0.930 . S
H1667 C1680 0.930 . S
H1668 C1684 0.959 . S
H1669 C1684 0.959 . S
H1670 C1684 0.961 . S
H1671 C1685 0.960 . S
H1672 C1685 0.961 . S
H1673 C1685 0.959 . S
H1674 C1688 0.929 . S
H1675 C1689 0.931 . S
H1676 C1691 0.930 . S
C1677 H1665 0.930 . S
C1677 C1678 1.399 . S
C1677 C1682 1.399 . S
C1678 C1677 1.399 . S
C1678 C1679 1.376 . S
C1679 H1666 0.930 . S
C1679 C1678 1.376 . S
C1679 C1680 1.388 . S
C1680 H1667 0.930 . S
C1680 C1679 1.388 . S
C1680 C1681 1.390 . S
C1681 C1680 1.390 . S
C1681 C1682 1.394 . S
C1681 C1687 1.465 . S
C1682 C1677 1.399 . S
C1682 C1681 1.394 . S
C1682 C1683 1.516 . S
C1683 C1682 1.516 . S
C1683 C1684 1.502 . S
C1683 C1685 1.561 . S
C1683 C1686 1.526 . S
C1684 H1668 0.959 . S
C1684 H1669 0.959 . S
C1684 H1670 0.961 . S
C1684 C1683 1.502 . S
C1685 H1671 0.960 . S
C1685 H1672 0.961 . S
C1685 H1673 0.959 . S
C1685 C1683 1.561 . S
C1686 C1683 1.526 . S
C1686 C1687 1.396 . S
C1686 C1691 1.390 . S
C1687 C1681 1.465 . S
C1687 C1686 1.396 . S
C1687 C1688 1.399 . S
C1688 H1674 0.929 . S
C1688 C1687 1.399 . S
C1688 C1689 1.385 . S
C1689 H1675 0.931 . S
C1689 C1688 1.385 . S
C1689 C1690 1.389 . S
C1690 C1689 1.389 . S
C1690 C1691 1.387 . S
C1691 H1676 0.930 . S
C1691 C1686 1.390 . S
C1691 C1690 1.387 . S
H1692 C1704 0.930 . S
H1693 C1706 0.930 . S
H1694 C1707 0.930 . S
H1695 C1711 0.959 . S
H1696 C1711 0.959 . S
H1697 C1711 0.961 . S
H1698 C1712 0.960 . S
H1699 C1712 0.961 . S
H1700 C1712 0.959 . S
H1701 C1715 0.929 . S
H1702 C1716 0.931 1_655 S
H1703 C1718 0.930 . S
C1704 H1692 0.930 . S
C1704 C1705 1.399 . S
C1704 C1709 1.399 . S
C1705 C1704 1.399 . S
C1705 C1706 1.376 . S
C1706 H1693 0.930 . S
C1706 C1705 1.376 . S
C1706 C1707 1.388 . S
C1707 H1694 0.930 . S
C1707 C1706 1.388 . S
C1707 C1708 1.390 . S
C1708 C1707 1.390 . S
C1708 C1709 1.394 . S
C1708 C1714 1.465 . S
C1709 C1704 1.399 . S
C1709 C1708 1.394 . S
C1709 C1710 1.516 . S
C1710 C1709 1.516 . S
C1710 C1711 1.502 . S
C1710 C1712 1.561 . S
C1710 C1713 1.526 . S
C1711 H1695 0.959 . S
C1711 H1696 0.959 . S
C1711 H1697 0.961 . S
C1711 C1710 1.502 . S
C1712 H1698 0.960 . S
C1712 H1699 0.961 . S
C1712 H1700 0.959 . S
C1712 C1710 1.561 . S
C1713 C1710 1.526 . S
C1713 C1714 1.396 . S
C1713 C1718 1.390 . S
C1714 C1708 1.465 . S
C1714 C1713 1.396 . S
C1714 C1715 1.399 . S
C1715 H1701 0.929 . S
C1715 C1714 1.399 . S
C1715 C1716 1.385 . S
C1716 H1702 0.931 1_455 S
C1716 C1715 1.385 . S
C1716 C1717 1.389 . S
C1717 C1716 1.389 . S
C1717 C1718 1.387 . S
C1718 H1703 0.930 . S
C1718 C1713 1.390 . S
C1718 C1717 1.387 . S
H1719 C1731 0.930 . S
H1720 C1733 0.930 . S
H1721 C1734 0.930 . S
H1722 C1738 0.959 . S
H1723 C1738 0.959 . S
H1724 C1738 0.961 . S
H1725 C1739 0.960 . S
H1726 C1739 0.961 . S
H1727 C1739 0.959 . S
H1728 C1742 0.929 . S
H1729 C1743 0.931 . S
H1730 C1745 0.930 . S
C1731 H1719 0.930 . S
C1731 C1732 1.399 . S
C1731 C1736 1.399 . S
C1732 C1731 1.399 . S
C1732 C1733 1.376 . S
C1733 H1720 0.930 . S
C1733 C1732 1.376 . S
C1733 C1734 1.388 . S
C1734 H1721 0.930 . S
C1734 C1733 1.388 . S
C1734 C1735 1.390 . S
C1735 C1734 1.390 . S
C1735 C1736 1.394 . S
C1735 C1741 1.465 . S
C1736 C1731 1.399 . S
C1736 C1735 1.394 . S
C1736 C1737 1.516 . S
C1737 C1736 1.516 . S
C1737 C1738 1.502 . S
C1737 C1739 1.561 . S
C1737 C1740 1.526 . S
C1738 H1722 0.959 . S
C1738 H1723 0.959 . S
C1738 H1724 0.961 . S
C1738 C1737 1.502 . S
C1739 H1725 0.960 . S
C1739 H1726 0.961 . S
C1739 H1727 0.959 . S
C1739 C1737 1.561 . S
C1740 C1737 1.526 . S
C1740 C1741 1.396 . S
C1740 C1745 1.390 . S
C1741 C1735 1.465 . S
C1741 C1740 1.396 . S
C1741 C1742 1.399 . S
C1742 H1728 0.929 . S
C1742 C1741 1.399 . S
C1742 C1743 1.385 . S
C1743 H1729 0.931 . S
C1743 C1742 1.385 . S
C1743 C1744 1.389 . S
C1744 C1743 1.389 . S
C1744 C1745 1.387 . S
C1745 H1730 0.930 . S
C1745 C1740 1.390 . S
C1745 C1744 1.387 . S
H1746 C1758 0.930 . S
H1747 C1760 0.930 . S
H1748 C1761 0.930 . S
H1749 C1765 0.959 . S
H1750 C1765 0.959 . S
H1751 C1765 0.961 . S
H1752 C1766 0.960 . S
H1753 C1766 0.961 . S
H1754 C1766 0.959 . S
H1755 C1769 0.929 . S
H1756 C1770 0.931 . S
H1757 C1772 0.930 . S
C1758 H1746 0.930 . S
C1758 C1759 1.399 . S
C1758 C1763 1.399 . S
C1759 C1758 1.399 . S
C1759 C1760 1.376 . S
C1760 H1747 0.930 . S
C1760 C1759 1.376 . S
C1760 C1761 1.388 . S
C1761 H1748 0.930 . S
C1761 C1760 1.388 . S
C1761 C1762 1.390 . S
C1762 C1761 1.390 . S
C1762 C1763 1.394 . S
C1762 C1768 1.465 . S
C1763 C1758 1.399 . S
C1763 C1762 1.394 . S
C1763 C1764 1.516 . S
C1764 C1763 1.516 . S
C1764 C1765 1.502 . S
C1764 C1766 1.561 . S
C1764 C1767 1.526 . S
C1765 H1749 0.959 . S
C1765 H1750 0.959 . S
C1765 H1751 0.961 . S
C1765 C1764 1.502 . S
C1766 H1752 0.960 . S
C1766 H1753 0.961 . S
C1766 H1754 0.959 . S
C1766 C1764 1.561 . S
C1767 C1764 1.526 . S
C1767 C1768 1.396 . S
C1767 C1772 1.390 . S
C1768 C1762 1.465 . S
C1768 C1767 1.396 . S
C1768 C1769 1.399 . S
C1769 H1755 0.929 . S
C1769 C1768 1.399 . S
C1769 C1770 1.385 . S
C1770 H1756 0.931 . S
C1770 C1769 1.385 . S
C1770 C1771 1.389 . S
C1771 C1770 1.389 . S
C1771 C1772 1.387 . S
C1772 H1757 0.930 . S
C1772 C1767 1.390 . S
C1772 C1771 1.387 . S
H1773 C1785 0.930 . S
H1774 C1787 0.930 . S
H1775 C1788 0.930 . S
H1776 C1792 0.959 . S
H1777 C1792 0.959 . S
H1778 C1792 0.961 . S
H1779 C1793 0.960 . S
H1780 C1793 0.961 . S
H1781 C1793 0.959 . S
H1782 C1796 0.929 . S
H1783 C1797 0.931 . S
H1784 C1799 0.930 . S
C1785 H1773 0.930 . S
C1785 C1786 1.399 . S
C1785 C1790 1.399 . S
C1786 C1785 1.399 . S
C1786 C1787 1.376 1_554 S
C1787 H1774 0.930 . S
C1787 C1786 1.376 1_556 S
C1787 C1788 1.388 1_556 S
C1788 H1775 0.930 . S
C1788 C1787 1.388 1_554 S
C1788 C1789 1.390 . S
C1789 C1788 1.390 . S
C1789 C1790 1.394 . S
C1789 C1795 1.465 . S
C1790 C1785 1.399 . S
C1790 C1789 1.394 . S
C1790 C1791 1.516 . S
C1791 C1790 1.516 . S
C1791 C1792 1.502 . S
C1791 C1793 1.561 . S
C1791 C1794 1.526 . S
C1792 H1776 0.959 . S
C1792 H1777 0.959 . S
C1792 H1778 0.961 . S
C1792 C1791 1.502 . S
C1793 H1779 0.960 . S
C1793 H1780 0.961 . S
C1793 H1781 0.959 . S
C1793 C1791 1.561 . S
C1794 C1791 1.526 . S
C1794 C1795 1.396 . S
C1794 C1799 1.390 . S
C1795 C1789 1.465 . S
C1795 C1794 1.396 . S
C1795 C1796 1.399 . S
C1796 H1782 0.929 . S
C1796 C1795 1.399 . S
C1796 C1797 1.385 . S
C1797 H1783 0.931 . S
C1797 C1796 1.385 . S
C1797 C1798 1.389 . S
C1798 C1797 1.389 . S
C1798 C1799 1.387 . S
C1799 H1784 0.930 . S
C1799 C1794 1.390 . S
C1799 C1798 1.387 . S
H1800 C1812 0.930 . S
H1801 C1814 0.930 . S
H1802 C1815 0.930 . S
H1803 C1819 0.959 . S
H1804 C1819 0.959 . S
H1805 C1819 0.961 . S
H1806 C1820 0.960 . S
H1807 C1820 0.961 . S
H1808 C1820 0.959 . S
H1809 C1823 0.929 . S
H1810 C1824 0.931 . S
H1811 C1826 0.930 . S
C1812 H1800 0.930 . S
C1812 C1813 1.399 . S
C1812 C1817 1.399 . S
C1813 C1812 1.399 . S
C1813 C1814 1.376 . S
C1814 H1801 0.930 . S
C1814 C1813 1.376 . S
C1814 C1815 1.388 . S
C1815 H1802 0.930 . S
C1815 C1814 1.388 . S
C1815 C1816 1.390 . S
C1816 C1815 1.390 . S
C1816 C1817 1.394 . S
C1816 C1822 1.465 . S
C1817 C1812 1.399 . S
C1817 C1816 1.394 . S
C1817 C1818 1.516 . S
C1818 C1817 1.516 . S
C1818 C1819 1.502 . S
C1818 C1820 1.561 . S
C1818 C1821 1.526 . S
C1819 H1803 0.959 . S
C1819 H1804 0.959 . S
C1819 H1805 0.961 . S
C1819 C1818 1.502 . S
C1820 H1806 0.960 . S
C1820 H1807 0.961 . S
C1820 H1808 0.959 . S
C1820 C1818 1.561 . S
C1821 C1818 1.526 . S
C1821 C1822 1.396 . S
C1821 C1826 1.390 . S
C1822 C1816 1.465 . S
C1822 C1821 1.396 . S
C1822 C1823 1.399 . S
C1823 H1809 0.929 . S
C1823 C1822 1.399 . S
C1823 C1824 1.385 . S
C1824 H1810 0.931 . S
C1824 C1823 1.385 . S
C1824 C1825 1.389 . S
C1825 C1824 1.389 . S
C1825 C1826 1.387 . S
C1826 H1811 0.930 . S
C1826 C1821 1.390 . S
C1826 C1825 1.387 . S
H1827 C1839 0.930 . S
H1828 C1841 0.901 1_545 S
H1829 C1842 0.930 . S
H1830 C1846 0.959 . S
H1831 C1846 0.959 . S
H1832 C1846 0.961 . S
H1833 C1847 0.960 . S
H1834 C1847 0.961 . S
H1835 C1847 0.959 . S
H1836 C1850 0.929 . S
H1837 C1851 0.931 . S
H1838 C1853 0.930 . S
C1839 H1827 0.930 . S
C1839 C1840 1.399 . S
C1839 C1844 1.399 . S
C1840 C1839 1.399 . S
C1840 C1841 1.376 . S
C1841 H1828 0.901 1_565 S
C1841 C1840 1.376 . S
C1841 C1842 1.388 . S
C1842 H1829 0.930 . S
C1842 C1841 1.388 . S
C1842 C1843 1.390 . S
C1843 C1842 1.390 . S
C1843 C1844 1.394 . S
C1843 C1849 1.465 . S
C1844 C1839 1.399 . S
C1844 C1843 1.394 . S
C1844 C1845 1.516 . S
C1845 C1844 1.516 . S
C1845 C1846 1.502 . S
C1845 C1847 1.561 . S
C1845 C1848 1.526 . S
C1846 H1830 0.959 . S
C1846 H1831 0.959 . S
C1846 H1832 0.961 . S
C1846 C1845 1.502 . S
C1847 H1833 0.960 . S
C1847 H1834 0.961 . S
C1847 H1835 0.959 . S
C1847 C1845 1.561 . S
C1848 C1845 1.526 . S
C1848 C1849 1.396 . S
C1848 C1853 1.390 . S
C1849 C1843 1.465 . S
C1849 C1848 1.396 . S
C1849 C1850 1.399 . S
C1850 H1836 0.929 . S
C1850 C1849 1.399 . S
C1850 C1851 1.385 . S
C1851 H1837 0.931 . S
C1851 C1850 1.385 . S
C1851 C1852 1.389 . S
C1852 C1851 1.389 . S
C1852 C1853 1.387 . S
C1853 H1838 0.930 . S
C1853 C1848 1.390 . S
C1853 C1852 1.387 . S
H1854 C1866 0.930 1_545 S
H1855 C1868 0.930 . S
H1856 C1869 0.930 . S
H1857 C1873 0.959 . S
H1858 C1873 0.959 . S
H1859 C1873 0.961 1_545 S
H1860 C1874 0.960 . S
H1861 C1874 0.961 . S
H1862 C1874 0.959 . S
H1863 C1877 0.929 . S
H1864 C1878 0.931 . S
H1865 C1880 0.930 . S
C1866 H1854 0.930 1_565 S
C1866 C1867 1.399 . S
C1866 C1871 1.399 . S
C1867 C1866 1.399 . S
C1867 C1868 1.376 . S
C1868 H1855 0.930 . S
C1868 C1867 1.376 . S
C1868 C1869 1.388 . S
C1869 H1856 0.930 . S
C1869 C1868 1.388 . S
C1869 C1870 1.390 . S
C1870 C1869 1.390 . S
C1870 C1871 1.394 . S
C1870 C1876 1.465 . S
C1871 C1866 1.399 . S
C1871 C1870 1.394 . S
C1871 C1872 1.516 . S
C1872 C1871 1.516 . S
C1872 C1873 1.502 . S
C1872 C1874 1.561 . S
C1872 C1875 1.526 . S
C1873 H1857 0.959 . S
C1873 H1858 0.959 . S
C1873 H1859 0.961 1_565 S
C1873 C1872 1.502 . S
C1874 H1860 0.960 . S
C1874 H1861 0.961 . S
C1874 H1862 0.959 . S
C1874 C1872 1.561 . S
C1875 C1872 1.526 . S
C1875 C1876 1.396 . S
C1875 C1880 1.390 . S
C1876 C1870 1.465 . S
C1876 C1875 1.396 . S
C1876 C1877 1.399 . S
C1877 H1863 0.929 . S
C1877 C1876 1.399 . S
C1877 C1878 1.385 . S
C1878 H1864 0.931 . S
C1878 C1877 1.385 . S
C1878 C1879 1.389 . S
C1879 C1878 1.389 . S
C1879 C1880 1.387 . S
C1880 H1865 0.930 . S
C1880 C1875 1.390 . S
C1880 C1879 1.387 . S
H1881 C1893 0.930 . S
H1882 C1895 0.930 . S
H1883 C1896 0.930 . S
H1884 C1900 0.959 . S
H1885 C1900 0.959 1_565 S
H1886 C1900 0.961 . S
H1887 C1901 0.960 . S
H1888 C1901 0.961 1_565 S
H1889 C1901 0.959 . S
H1890 C1904 0.929 . S
H1891 C1905 0.931 . S
H1892 C1907 0.930 1_565 S
C1893 H1881 0.930 . S
C1893 C1894 1.399 . S
C1893 C1898 1.399 . S
C1894 C1893 1.399 . S
C1894 C1895 1.376 . S
C1895 H1882 0.930 . S
C1895 C1894 1.376 . S
C1895 C1896 1.388 . S
C1896 H1883 0.930 . S
C1896 C1895 1.388 . S
C1896 C1897 1.390 . S
C1897 C1896 1.390 . S
C1897 C1898 1.394 . S
C1897 C1903 1.465 . S
C1898 C1893 1.399 . S
C1898 C1897 1.394 . S
C1898 C1899 1.516 . S
C1899 C1898 1.516 . S
C1899 C1900 1.502 . S
C1899 C1901 1.561 . S
C1899 C1902 1.526 . S
C1900 H1884 0.959 . S
C1900 H1885 0.959 1_545 S
C1900 H1886 0.961 . S
C1900 C1899 1.502 . S
C1901 H1887 0.960 . S
C1901 H1888 0.961 1_545 S
C1901 H1889 0.959 . S
C1901 C1899 1.561 . S
C1902 C1899 1.526 . S
C1902 C1903 1.396 . S
C1902 C1907 1.390 . S
C1903 C1897 1.465 . S
C1903 C1902 1.396 . S
C1903 C1904 1.399 . S
C1904 H1890 0.929 . S
C1904 C1903 1.399 . S
C1904 C1905 1.385 . S
C1905 H1891 0.931 . S
C1905 C1904 1.385 . S
C1905 C1906 1.389 . S
C1906 C1905 1.389 . S
C1906 C1907 1.387 . S
C1907 H1892 0.930 1_545 S
C1907 C1902 1.390 . S
C1907 C1906 1.387 . S
H1908 C1920 0.930 . S
H1909 C1922 0.930 . S
H1910 C1923 0.930 1_554 S
H1911 C1927 0.959 . S
H1912 C1927 0.959 . S
H1913 C1927 0.961 . S
H1914 C1928 0.960 . S
H1915 C1928 0.961 . S
H1916 C1928 0.959 . S
H1917 C1931 0.929 . S
H1918 C1932 0.931 . S
H1919 C1934 0.930 . S
C1920 H1908 0.930 . S
C1920 C1921 1.399 . S
C1920 C1925 1.399 . S
C1921 C1920 1.399 . S
C1921 C1922 1.376 1_556 S
C1922 H1909 0.930 . S
C1922 C1921 1.376 1_554 S
C1922 C1923 1.388 1_554 S
C1923 H1910 0.930 1_556 S
C1923 C1922 1.388 1_556 S
C1923 C1924 1.390 . S
C1924 C1923 1.390 . S
C1924 C1925 1.394 . S
C1924 C1930 1.465 . S
C1925 C1920 1.399 . S
C1925 C1924 1.394 . S
C1925 C1926 1.516 . S
C1926 C1925 1.516 . S
C1926 C1927 1.502 . S
C1926 C1928 1.561 . S
C1926 C1929 1.526 . S
C1927 H1911 0.959 . S
C1927 H1912 0.959 . S
C1927 H1913 0.961 . S
C1927 C1926 1.502 . S
C1928 H1914 0.960 . S
C1928 H1915 0.961 . S
C1928 H1916 0.959 . S
C1928 C1926 1.561 . S
C1929 C1926 1.526 . S
C1929 C1930 1.396 . S
C1929 C1934 1.390 . S
C1930 C1924 1.465 . S
C1930 C1929 1.396 . S
C1930 C1931 1.399 . S
C1931 H1917 0.929 . S
C1931 C1930 1.399 . S
C1931 C1932 1.385 . S
C1932 H1918 0.931 . S
C1932 C1931 1.385 . S
C1932 C1933 1.389 . S
C1933 C1932 1.389 . S
C1933 C1934 1.387 . S
C1934 H1919 0.930 . S
C1934 C1929 1.390 . S
C1934 C1933 1.387 . S
H1935 C1947 0.930 . S
H1936 C1949 0.930 1_455 S
H1937 C1950 0.930 . S
H1938 C1954 0.959 . S
H1939 C1954 0.959 . S
H1940 C1954 0.961 . S
H1941 C1955 0.960 . S
H1942 C1955 0.961 . S
H1943 C1955 0.959 . S
H1944 C1958 0.929 . S
H1945 C1959 0.931 . S
H1946 C1961 0.930 . S
C1947 H1935 0.930 . S
C1947 C1948 1.399 . S
C1947 C1952 1.399 . S
C1948 C1947 1.399 . S
C1948 C1949 1.376 . S
C1949 H1936 0.930 1_655 S
C1949 C1948 1.376 . S
C1949 C1950 1.388 . S
C1950 H1937 0.930 . S
C1950 C1949 1.388 . S
C1950 C1951 1.390 . S
C1951 C1950 1.390 . S
C1951 C1952 1.394 . S
C1951 C1957 1.465 . S
C1952 C1947 1.399 . S
C1952 C1951 1.394 . S
C1952 C1953 1.516 . S
C1953 C1952 1.516 . S
C1953 C1954 1.502 . S
C1953 C1955 1.561 . S
C1953 C1956 1.526 . S
C1954 H1938 0.959 . S
C1954 H1939 0.959 . S
C1954 H1940 0.961 . S
C1954 C1953 1.502 . S
C1955 H1941 0.960 . S
C1955 H1942 0.961 . S
C1955 H1943 0.959 . S
C1955 C1953 1.561 . S
C1956 C1953 1.526 . S
C1956 C1957 1.396 . S
C1956 C1961 1.390 . S
C1957 C1951 1.465 . S
C1957 C1956 1.396 . S
C1957 C1958 1.399 . S
C1958 H1944 0.929 . S
C1958 C1957 1.399 . S
C1958 C1959 1.385 . S
C1959 H1945 0.931 . S
C1959 C1958 1.385 . S
C1959 C1960 1.389 . S
C1960 C1959 1.389 . S
C1960 C1961 1.387 . S
C1961 H1946 0.930 . S
C1961 C1956 1.390 . S
C1961 C1960 1.387 . S
H1962 C1974 0.930 . S
H1963 C1976 0.930 . S
H1964 C1977 0.930 . S
H1965 C1981 0.959 . S
H1966 C1981 0.959 . S
H1967 C1981 0.961 . S
H1968 C1982 0.960 . S
H1969 C1982 0.961 . S
H1970 C1982 0.959 . S
H1971 C1985 0.929 . S
H1972 C1986 0.931 . S
H1973 C1988 0.930 . S
C1974 H1962 0.930 . S
C1974 C1975 1.399 . S
C1974 C1979 1.399 . S
C1975 C1974 1.399 . S
C1975 C1976 1.376 . S
C1976 H1963 0.930 . S
C1976 C1975 1.376 . S
C1976 C1977 1.388 . S
C1977 H1964 0.930 . S
C1977 C1976 1.388 . S
C1977 C1978 1.390 . S
C1978 C1977 1.390 . S
C1978 C1979 1.394 . S
C1978 C1984 1.465 . S
C1979 C1974 1.399 . S
C1979 C1978 1.394 . S
C1979 C1980 1.516 . S
C1980 C1979 1.516 . S
C1980 C1981 1.502 . S
C1980 C1982 1.561 . S
C1980 C1983 1.526 . S
C1981 H1965 0.959 . S
C1981 H1966 0.959 . S
C1981 H1967 0.961 . S
C1981 C1980 1.502 . S
C1982 H1968 0.960 . S
C1982 H1969 0.961 . S
C1982 H1970 0.959 . S
C1982 C1980 1.561 . S
C1983 C1980 1.526 . S
C1983 C1984 1.396 . S
C1983 C1988 1.390 . S
C1984 C1978 1.465 . S
C1984 C1983 1.396 . S
C1984 C1985 1.399 . S
C1985 H1971 0.929 . S
C1985 C1984 1.399 . S
C1985 C1986 1.385 . S
C1986 H1972 0.931 . S
C1986 C1985 1.385 . S
C1986 C1987 1.389 . S
C1987 C1986 1.389 . S
C1987 C1988 1.387 . S
C1988 H1973 0.930 . S
C1988 C1983 1.390 . S
C1988 C1987 1.387 . S
H1989 C2001 0.930 . S
H1990 C2003 0.943 . S
H1991 C2004 0.930 . S
H1992 C2008 0.959 . S
H1993 C2008 0.959 . S
H1994 C2008 0.961 . S
H1995 C2009 0.960 . S
H1996 C2009 0.961 . S
H1997 C2009 0.959 . S
H1998 C2012 0.929 . S
H1999 C2013 0.931 . S
H2000 C2015 0.930 . S
C2001 H1989 0.930 . S
C2001 C2002 1.399 . S
C2001 C2006 1.399 . S
C2002 C2001 1.399 . S
C2002 C2003 1.376 . S
C2003 H1990 0.943 . S
C2003 C2002 1.376 . S
C2003 C2004 1.388 . S
C2004 H1991 0.930 . S
C2004 C2003 1.388 . S
C2004 C2005 1.390 . S
C2005 C2004 1.390 . S
C2005 C2006 1.394 . S
C2005 C2011 1.465 . S
C2006 C2001 1.399 . S
C2006 C2005 1.394 . S
C2006 C2007 1.516 . S
C2007 C2006 1.516 . S
C2007 C2008 1.502 . S
C2007 C2009 1.561 . S
C2007 C2010 1.526 . S
C2008 H1992 0.959 . S
C2008 H1993 0.959 . S
C2008 H1994 0.961 . S
C2008 C2007 1.502 . S
C2009 H1995 0.960 . S
C2009 H1996 0.961 . S
C2009 H1997 0.959 . S
C2009 C2007 1.561 . S
C2010 C2007 1.526 . S
C2010 C2011 1.396 . S
C2010 C2015 1.390 . S
C2011 C2005 1.465 . S
C2011 C2010 1.396 . S
C2011 C2012 1.399 . S
C2012 H1998 0.929 . S
C2012 C2011 1.399 . S
C2012 C2013 1.385 . S
C2013 H1999 0.931 . S
C2013 C2012 1.385 . S
C2013 C2014 1.389 . S
C2014 C2013 1.389 . S
C2014 C2015 1.387 . S
C2015 H2000 0.930 . S
C2015 C2010 1.390 . S
C2015 C2014 1.387 . S
H2016 C2028 0.930 . S
H2017 C2030 0.930 . S
H2018 C2031 0.930 . S
H2019 C2035 0.959 . S
H2020 C2035 0.959 . S
H2021 C2035 0.961 . S
H2022 C2036 0.960 . S
H2023 C2036 0.961 . S
H2024 C2036 0.959 . S
H2025 C2039 0.929 . S
H2026 C2040 0.931 . S
H2027 C2042 0.930 . S
C2028 H2016 0.930 . S
C2028 C2029 1.399 . S
C2028 C2033 1.399 . S
C2029 C2028 1.399 . S
C2029 C2030 1.376 . S
C2030 H2017 0.930 . S
C2030 C2029 1.376 . S
C2030 C2031 1.388 . S
C2031 H2018 0.930 . S
C2031 C2030 1.388 . S
C2031 C2032 1.390 . S
C2032 C2031 1.390 . S
C2032 C2033 1.394 . S
C2032 C2038 1.465 . S
C2033 C2028 1.399 . S
C2033 C2032 1.394 . S
C2033 C2034 1.516 . S
C2034 C2033 1.516 . S
C2034 C2035 1.502 . S
C2034 C2036 1.561 . S
C2034 C2037 1.526 . S
C2035 H2019 0.959 . S
C2035 H2020 0.959 . S
C2035 H2021 0.961 . S
C2035 C2034 1.502 . S
C2036 H2022 0.960 . S
C2036 H2023 0.961 . S
C2036 H2024 0.959 . S
C2036 C2034 1.561 . S
C2037 C2034 1.526 . S
C2037 C2038 1.396 . S
C2037 C2042 1.390 . S
C2038 C2032 1.465 . S
C2038 C2037 1.396 . S
C2038 C2039 1.399 . S
C2039 H2025 0.929 . S
C2039 C2038 1.399 . S
C2039 C2040 1.385 . S
C2040 H2026 0.931 . S
C2040 C2039 1.385 . S
C2040 C2041 1.389 . S
C2041 C2040 1.389 . S
C2041 C2042 1.387 . S
C2042 H2027 0.930 . S
C2042 C2037 1.390 . S
C2042 C2041 1.387 . S
H2043 C2055 0.930 . S
H2044 C2057 0.930 . S
H2045 C2058 0.930 . S
H2046 C2062 0.959 . S
H2047 C2062 0.959 . S
H2048 C2062 0.961 . S
H2049 C2063 0.960 . S
H2050 C2063 0.961 . S
H2051 C2063 0.959 . S
H2052 C2066 0.929 . S
H2053 C2067 0.931 . S
H2054 C2069 0.930 . S
C2055 H2043 0.930 . S
C2055 C2056 1.399 . S
C2055 C2060 1.399 . S
C2056 C2055 1.399 . S
C2056 C2057 1.376 . S
C2057 H2044 0.930 . S
C2057 C2056 1.376 . S
C2057 C2058 1.388 . S
C2058 H2045 0.930 . S
C2058 C2057 1.388 . S
C2058 C2059 1.390 . S
C2059 C2058 1.390 . S
C2059 C2060 1.394 . S
C2059 C2065 1.465 . S
C2060 C2055 1.399 . S
C2060 C2059 1.394 . S
C2060 C2061 1.516 . S
C2061 C2060 1.516 . S
C2061 C2062 1.502 . S
C2061 C2063 1.561 . S
C2061 C2064 1.526 . S
C2062 H2046 0.959 . S
C2062 H2047 0.959 . S
C2062 H2048 0.961 . S
C2062 C2061 1.502 . S
C2063 H2049 0.960 . S
C2063 H2050 0.961 . S
C2063 H2051 0.959 . S
C2063 C2061 1.561 . S
C2064 C2061 1.526 . S
C2064 C2065 1.396 . S
C2064 C2069 1.390 . S
C2065 C2059 1.465 . S
C2065 C2064 1.396 . S
C2065 C2066 1.399 . S
C2066 H2052 0.929 . S
C2066 C2065 1.399 . S
C2066 C2067 1.385 . S
C2067 H2053 0.931 . S
C2067 C2066 1.385 . S
C2067 C2068 1.389 . S
C2068 C2067 1.389 . S
C2068 C2069 1.387 . S
C2069 H2054 0.930 . S
C2069 C2064 1.390 . S
C2069 C2068 1.387 . S
H2070 C2082 0.930 . S
H2071 C2084 0.930 . S
H2072 C2085 0.930 . S
H2073 C2089 0.959 . S
H2074 C2089 0.959 . S
H2075 C2089 0.961 . S
H2076 C2090 0.960 . S
H2077 C2090 0.961 1_556 S
H2078 C2090 0.959 . S
H2079 C2093 0.929 . S
H2080 C2094 0.931 . S
H2081 C2096 0.930 1_556 S
C2082 H2070 0.930 . S
C2082 C2083 1.399 . S
C2082 C2087 1.399 . S
C2083 C2082 1.399 . S
C2083 C2084 1.376 . S
C2084 H2071 0.930 . S
C2084 C2083 1.376 . S
C2084 C2085 1.388 . S
C2085 H2072 0.930 . S
C2085 C2084 1.388 . S
C2085 C2086 1.390 . S
C2086 C2085 1.390 . S
C2086 C2087 1.394 . S
C2086 C2092 1.465 . S
C2087 C2082 1.399 . S
C2087 C2086 1.394 . S
C2087 C2088 1.516 . S
C2088 C2087 1.516 . S
C2088 C2089 1.502 . S
C2088 C2090 1.561 . S
C2088 C2091 1.526 . S
C2089 H2073 0.959 . S
C2089 H2074 0.959 . S
C2089 H2075 0.961 . S
C2089 C2088 1.502 . S
C2090 H2076 0.960 . S
C2090 H2077 0.961 1_554 S
C2090 H2078 0.959 . S
C2090 C2088 1.561 . S
C2091 C2088 1.526 . S
C2091 C2092 1.396 . S
C2091 C2096 1.390 . S
C2092 C2086 1.465 . S
C2092 C2091 1.396 . S
C2092 C2093 1.399 . S
C2093 H2079 0.929 . S
C2093 C2092 1.399 . S
C2093 C2094 1.385 . S
C2094 H2080 0.931 . S
C2094 C2093 1.385 . S
C2094 C2095 1.389 . S
C2095 C2094 1.389 . S
C2095 C2096 1.387 . S
C2096 H2081 0.930 1_554 S
C2096 C2091 1.390 . S
C2096 C2095 1.387 . S
H2097 C2109 0.930 . S
H2098 C2111 0.930 . S
H2099 C2112 0.930 . S
H2100 C2116 0.959 . S
H2101 C2116 0.959 . S
H2102 C2116 0.961 . S
H2103 C2117 0.960 . S
H2104 C2117 0.961 . S
H2105 C2117 0.959 . S
H2106 C2120 0.929 . S
H2107 C2121 0.931 . S
H2108 C2123 0.930 . S
C2109 H2097 0.930 . S
C2109 C2110 1.399 . S
C2109 C2114 1.399 . S
C2110 C2109 1.399 . S
C2110 C2111 1.376 . S
C2111 H2098 0.930 . S
C2111 C2110 1.376 . S
C2111 C2112 1.388 . S
C2112 H2099 0.930 . S
C2112 C2111 1.388 . S
C2112 C2113 1.390 . S
C2113 C2112 1.390 . S
C2113 C2114 1.394 . S
C2113 C2119 1.465 . S
C2114 C2109 1.399 . S
C2114 C2113 1.394 . S
C2114 C2115 1.516 . S
C2115 C2114 1.516 . S
C2115 C2116 1.502 . S
C2115 C2117 1.561 . S
C2115 C2118 1.526 . S
C2116 H2100 0.959 . S
C2116 H2101 0.959 . S
C2116 H2102 0.961 . S
C2116 C2115 1.502 . S
C2117 H2103 0.960 . S
C2117 H2104 0.961 . S
C2117 H2105 0.959 . S
C2117 C2115 1.561 . S
C2118 C2115 1.526 . S
C2118 C2119 1.396 . S
C2118 C2123 1.390 . S
C2119 C2113 1.465 . S
C2119 C2118 1.396 . S
C2119 C2120 1.399 . S
C2120 H2106 0.929 . S
C2120 C2119 1.399 . S
C2120 C2121 1.385 . S
C2121 H2107 0.931 . S
C2121 C2120 1.385 . S
C2121 C2122 1.389 . S
C2122 C2121 1.389 . S
C2122 C2123 1.387 . S
C2123 H2108 0.930 . S
C2123 C2118 1.390 . S
C2123 C2122 1.387 . S
H2124 C2136 0.930 . S
H2125 C2138 0.930 . S
H2126 C2139 0.930 . S
H2127 C2143 0.959 . S
H2128 C2143 0.959 . S
H2129 C2143 0.961 . S
H2130 C2144 0.960 . S
H2131 C2144 0.961 . S
H2132 C2144 0.959 . S
H2133 C2147 0.929 . S
H2134 C2148 0.931 . S
H2135 C2150 0.930 . S
C2136 H2124 0.930 . S
C2136 C2137 1.399 . S
C2136 C2141 1.399 . S
C2137 C2136 1.399 . S
C2137 C2138 1.376 . S
C2138 H2125 0.930 . S
C2138 C2137 1.376 . S
C2138 C2139 1.388 . S
C2139 H2126 0.930 . S
C2139 C2138 1.388 . S
C2139 C2140 1.390 . S
C2140 C2139 1.390 . S
C2140 C2141 1.394 . S
C2140 C2146 1.465 . S
C2141 C2136 1.399 . S
C2141 C2140 1.394 . S
C2141 C2142 1.516 . S
C2142 C2141 1.516 . S
C2142 C2143 1.502 . S
C2142 C2144 1.561 . S
C2142 C2145 1.526 . S
C2143 H2127 0.959 . S
C2143 H2128 0.959 . S
C2143 H2129 0.961 . S
C2143 C2142 1.502 . S
C2144 H2130 0.960 . S
C2144 H2131 0.961 . S
C2144 H2132 0.959 . S
C2144 C2142 1.561 . S
C2145 C2142 1.526 . S
C2145 C2146 1.396 . S
C2145 C2150 1.390 . S
C2146 C2140 1.465 . S
C2146 C2145 1.396 . S
C2146 C2147 1.399 . S
C2147 H2133 0.929 . S
C2147 C2146 1.399 . S
C2147 C2148 1.385 . S
C2148 H2134 0.931 . S
C2148 C2147 1.385 . S
C2148 C2149 1.389 . S
C2149 C2148 1.389 . S
C2149 C2150 1.387 . S
C2150 H2135 0.930 . S
C2150 C2145 1.390 . S
C2150 C2149 1.387 . S
H2151 C2163 0.930 . S
H2152 C2165 0.930 . S
H2153 C2166 0.930 . S
H2154 C2170 0.959 . S
H2155 C2170 0.959 . S
H2156 C2170 0.961 . S
H2157 C2171 0.960 . S
H2158 C2171 0.961 . S
H2159 C2171 0.959 . S
H2160 C2174 0.929 . S
H2161 C2175 0.931 . S
H2162 C2177 0.930 . S
C2163 H2151 0.930 . S
C2163 C2164 1.399 . S
C2163 C2168 1.399 . S
C2164 C2163 1.399 . S
C2164 C2165 1.376 . S
C2165 H2152 0.930 . S
C2165 C2164 1.376 . S
C2165 C2166 1.388 . S
C2166 H2153 0.930 . S
C2166 C2165 1.388 . S
C2166 C2167 1.390 . S
C2167 C2166 1.390 . S
C2167 C2168 1.394 . S
C2167 C2173 1.465 . S
C2168 C2163 1.399 . S
C2168 C2167 1.394 . S
C2168 C2169 1.516 . S
C2169 C2168 1.516 . S
C2169 C2170 1.502 . S
C2169 C2171 1.561 . S
C2169 C2172 1.526 . S
C2170 H2154 0.959 . S
C2170 H2155 0.959 . S
C2170 H2156 0.961 . S
C2170 C2169 1.502 . S
C2171 H2157 0.960 . S
C2171 H2158 0.961 . S
C2171 H2159 0.959 . S
C2171 C2169 1.561 . S
C2172 C2169 1.526 . S
C2172 C2173 1.396 . S
C2172 C2177 1.390 . S
C2173 C2167 1.465 . S
C2173 C2172 1.396 . S
C2173 C2174 1.399 . S
C2174 H2160 0.929 . S
C2174 C2173 1.399 . S
C2174 C2175 1.385 . S
C2175 H2161 0.931 . S
C2175 C2174 1.385 . S
C2175 C2176 1.389 . S
C2176 C2175 1.389 . S
C2176 C2177 1.387 . S
C2177 H2162 0.930 . S
C2177 C2172 1.390 . S
C2177 C2176 1.387 . S
H2178 C2190 0.930 . S
H2179 C2192 0.930 . S
H2180 C2193 0.930 . S
H2181 C2197 0.959 . S
H2182 C2197 0.959 . S
H2183 C2197 0.961 . S
H2184 C2198 0.960 . S
H2185 C2198 0.961 . S
H2186 C2198 0.959 . S
H2187 C2201 0.929 . S
H2188 C2202 0.931 . S
H2189 C2204 0.930 . S
C2190 H2178 0.930 . S
C2190 C2191 1.399 . S
C2190 C2195 1.399 . S
C2191 C2190 1.399 . S
C2191 C2192 1.376 . S
C2192 H2179 0.930 . S
C2192 C2191 1.376 . S
C2192 C2193 1.388 . S
C2193 H2180 0.930 . S
C2193 C2192 1.388 . S
C2193 C2194 1.390 . S
C2194 C2193 1.390 . S
C2194 C2195 1.394 . S
C2194 C2200 1.465 . S
C2195 C2190 1.399 . S
C2195 C2194 1.394 . S
C2195 C2196 1.516 . S
C2196 C2195 1.516 . S
C2196 C2197 1.502 . S
C2196 C2198 1.561 . S
C2196 C2199 1.526 . S
C2197 H2181 0.959 . S
C2197 H2182 0.959 . S
C2197 H2183 0.961 . S
C2197 C2196 1.502 . S
C2198 H2184 0.960 . S
C2198 H2185 0.961 . S
C2198 H2186 0.959 . S
C2198 C2196 1.561 . S
C2199 C2196 1.526 . S
C2199 C2200 1.396 . S
C2199 C2204 1.390 . S
C2200 C2194 1.465 . S
C2200 C2199 1.396 . S
C2200 C2201 1.399 . S
C2201 H2187 0.929 . S
C2201 C2200 1.399 . S
C2201 C2202 1.385 . S
C2202 H2188 0.931 . S
C2202 C2201 1.385 . S
C2202 C2203 1.389 . S
C2203 C2202 1.389 . S
C2203 C2204 1.387 . S
C2204 H2189 0.930 . S
C2204 C2199 1.390 . S
C2204 C2203 1.387 . S
H2205 C2217 0.930 . S
H2206 C2219 0.930 . S
H2207 C2220 0.930 . S
H2208 C2224 0.959 . S
H2209 C2224 0.959 . S
H2210 C2224 0.961 . S
H2211 C2225 0.960 . S
H2212 C2225 0.961 . S
H2213 C2225 0.959 . S
H2214 C2228 0.929 . S
H2215 C2229 0.931 . S
H2216 C2231 0.930 . S
C2217 H2205 0.930 . S
C2217 C2218 1.399 . S
C2217 C2222 1.399 . S
C2218 C2217 1.399 . S
C2218 C2219 1.376 . S
C2219 H2206 0.930 . S
C2219 C2218 1.376 . S
C2219 C2220 1.388 . S
C2220 H2207 0.930 . S
C2220 C2219 1.388 . S
C2220 C2221 1.390 . S
C2221 C2220 1.390 . S
C2221 C2222 1.394 . S
C2221 C2227 1.465 . S
C2222 C2217 1.399 . S
C2222 C2221 1.394 . S
C2222 C2223 1.516 . S
C2223 C2222 1.516 . S
C2223 C2224 1.502 . S
C2223 C2225 1.561 . S
C2223 C2226 1.526 . S
C2224 H2208 0.959 . S
C2224 H2209 0.959 . S
C2224 H2210 0.961 . S
C2224 C2223 1.502 . S
C2225 H2211 0.960 . S
C2225 H2212 0.961 . S
C2225 H2213 0.959 . S
C2225 C2223 1.561 . S
C2226 C2223 1.526 . S
C2226 C2227 1.396 . S
C2226 C2231 1.390 . S
C2227 C2221 1.465 . S
C2227 C2226 1.396 . S
C2227 C2228 1.399 . S
C2228 H2214 0.929 . S
C2228 C2227 1.399 . S
C2228 C2229 1.385 . S
C2229 H2215 0.931 . S
C2229 C2228 1.385 . S
C2229 C2230 1.389 . S
C2230 C2229 1.389 . S
C2230 C2231 1.387 . S
C2231 H2216 0.930 . S
C2231 C2226 1.390 . S
C2231 C2230 1.387 . S
H2232 C2244 0.930 . S
H2233 C2246 0.930 . S
H2234 C2247 0.930 . S
H2235 C2251 0.959 . S
H2236 C2251 0.959 . S
H2237 C2251 0.961 . S
H2238 C2252 0.960 . S
H2239 C2252 0.961 . S
H2240 C2252 0.959 . S
H2241 C2255 0.929 . S
H2242 C2256 0.931 . S
H2243 C2258 0.930 . S
C2244 H2232 0.930 . S
C2244 C2245 1.399 . S
C2244 C2249 1.399 . S
C2245 C2244 1.399 . S
C2245 C2246 1.376 . S
C2246 H2233 0.930 . S
C2246 C2245 1.376 . S
C2246 C2247 1.388 . S
C2247 H2234 0.930 . S
C2247 C2246 1.388 . S
C2247 C2248 1.390 . S
C2248 C2247 1.390 . S
C2248 C2249 1.394 . S
C2248 C2254 1.465 . S
C2249 C2244 1.399 . S
C2249 C2248 1.394 . S
C2249 C2250 1.516 . S
C2250 C2249 1.516 . S
C2250 C2251 1.502 . S
C2250 C2252 1.561 . S
C2250 C2253 1.526 . S
C2251 H2235 0.959 . S
C2251 H2236 0.959 . S
C2251 H2237 0.961 . S
C2251 C2250 1.502 . S
C2252 H2238 0.960 . S
C2252 H2239 0.961 . S
C2252 H2240 0.959 . S
C2252 C2250 1.561 . S
C2253 C2250 1.526 . S
C2253 C2254 1.396 . S
C2253 C2258 1.390 . S
C2254 C2248 1.465 . S
C2254 C2253 1.396 . S
C2254 C2255 1.399 . S
C2255 H2241 0.929 . S
C2255 C2254 1.399 . S
C2255 C2256 1.385 . S
C2256 H2242 0.931 . S
C2256 C2255 1.385 . S
C2256 C2257 1.389 . S
C2257 C2256 1.389 . S
C2257 C2258 1.387 . S
C2258 H2243 0.930 . S
C2258 C2253 1.390 . S
C2258 C2257 1.387 . S
H2259 C2271 0.930 . S
H2260 C2273 0.930 . S
H2261 C2274 0.930 . S
H2262 C2278 0.959 1_455 S
H2263 C2278 0.959 . S
H2264 C2278 0.961 . S
H2265 C2279 0.960 . S
H2266 C2279 0.961 . S
H2267 C2279 0.959 . S
H2268 C2282 0.929 . S
H2269 C2283 0.931 . S
H2270 C2285 0.930 . S
C2271 H2259 0.930 . S
C2271 C2272 1.399 1_655 S
C2271 C2276 1.397 . S
C2272 C2271 1.399 1_455 S
C2272 C2273 1.376 . S
C2273 H2260 0.930 . S
C2273 C2272 1.376 . S
C2273 C2274 1.388 . S
C2274 H2261 0.930 . S
C2274 C2273 1.388 . S
C2274 C2275 1.390 . S
C2275 C2274 1.390 . S
C2275 C2276 1.398 1_455 S
C2275 C2281 1.465 . S
C2276 C2271 1.397 . S
C2276 C2275 1.398 1_655 S
C2276 C2277 1.515 . S
C2277 C2276 1.515 . S
C2277 C2278 1.502 . S
C2277 C2279 1.561 . S
C2277 C2280 1.526 1_655 S
C2278 H2262 0.959 1_655 S
C2278 H2263 0.959 . S
C2278 H2264 0.961 . S
C2278 C2277 1.502 . S
C2279 H2265 0.960 . S
C2279 H2266 0.961 . S
C2279 H2267 0.959 . S
C2279 C2277 1.561 . S
C2280 C2277 1.526 1_455 S
C2280 C2281 1.396 . S
C2280 C2285 1.390 . S
C2281 C2275 1.465 . S
C2281 C2280 1.396 . S
C2281 C2282 1.399 . S
C2282 H2268 0.929 . S
C2282 C2281 1.399 . S
C2282 C2283 1.385 . S
C2283 H2269 0.931 . S
C2283 C2282 1.385 . S
C2283 C2284 1.389 . S
C2284 C2283 1.389 . S
C2284 C2285 1.387 . S
C2285 H2270 0.930 . S
C2285 C2280 1.390 . S
C2285 C2284 1.387 . S
H2286 C2298 0.930 . S
H2287 C2300 0.930 . S
H2288 C2301 0.930 . S
H2289 C2305 0.959 . S
H2290 C2305 0.959 . S
H2291 C2305 0.961 . S
H2292 C2306 0.960 . S
H2293 C2306 0.961 . S
H2294 C2306 0.959 . S
H2295 C2309 0.929 . S
H2296 C2310 0.931 . S
H2297 C2312 0.930 . S
C2298 H2286 0.930 . S
C2298 C2299 1.399 . S
C2298 C2303 1.399 . S
C2299 C2298 1.399 . S
C2299 C2300 1.376 . S
C2300 H2287 0.930 . S
C2300 C2299 1.376 . S
C2300 C2301 1.388 . S
C2301 H2288 0.930 . S
C2301 C2300 1.388 . S
C2301 C2302 1.390 . S
C2302 C2301 1.390 . S
C2302 C2303 1.394 . S
C2302 C2308 1.465 . S
C2303 C2298 1.399 . S
C2303 C2302 1.394 . S
C2303 C2304 1.516 . S
C2304 C2303 1.516 . S
C2304 C2305 1.502 . S
C2304 C2306 1.561 . S
C2304 C2307 1.526 . S
C2305 H2289 0.959 . S
C2305 H2290 0.959 . S
C2305 H2291 0.961 . S
C2305 C2304 1.502 . S
C2306 H2292 0.960 . S
C2306 H2293 0.961 . S
C2306 H2294 0.959 . S
C2306 C2304 1.561 . S
C2307 C2304 1.526 . S
C2307 C2308 1.396 . S
C2307 C2312 1.390 . S
C2308 C2302 1.465 . S
C2308 C2307 1.396 . S
C2308 C2309 1.399 . S
C2309 H2295 0.929 . S
C2309 C2308 1.399 . S
C2309 C2310 1.385 . S
C2310 H2296 0.931 . S
C2310 C2309 1.385 . S
C2310 C2311 1.389 . S
C2311 C2310 1.389 . S
C2311 C2312 1.387 . S
C2312 H2297 0.930 . S
C2312 C2307 1.390 . S
C2312 C2311 1.387 . S
H2313 C2325 0.930 1_554 S
H2314 C2327 0.930 . S
H2315 C2328 0.930 . S
H2316 C2332 0.959 . S
H2317 C2332 0.959 . S
H2318 C2332 0.961 . S
H2319 C2333 0.960 . S
H2320 C2333 0.961 . S
H2321 C2333 0.959 . S
H2322 C2336 0.929 . S
H2323 C2337 0.931 . S
H2324 C2339 0.930 . S
C2325 H2313 0.930 1_556 S
C2325 C2326 1.399 1_556 S
C2325 C2330 1.399 . S
C2326 C2325 1.399 1_554 S
C2326 C2327 1.376 1_554 S
C2327 H2314 0.930 . S
C2327 C2326 1.376 1_556 S
C2327 C2328 1.388 . S
C2328 H2315 0.930 . S
C2328 C2327 1.388 . S
C2328 C2329 1.390 . S
C2329 C2328 1.390 . S
C2329 C2330 1.394 . S
C2329 C2335 1.465 . S
C2330 C2325 1.399 . S
C2330 C2329 1.394 . S
C2330 C2331 1.516 . S
C2331 C2330 1.516 . S
C2331 C2332 1.502 . S
C2331 C2333 1.561 . S
C2331 C2334 1.526 . S
C2332 H2316 0.959 . S
C2332 H2317 0.959 . S
C2332 H2318 0.961 . S
C2332 C2331 1.502 . S
C2333 H2319 0.960 . S
C2333 H2320 0.961 . S
C2333 H2321 0.959 . S
C2333 C2331 1.561 . S
C2334 C2331 1.526 . S
C2334 C2335 1.396 . S
C2334 C2339 1.390 . S
C2335 C2329 1.465 . S
C2335 C2334 1.396 . S
C2335 C2336 1.399 . S
C2336 H2322 0.929 . S
C2336 C2335 1.399 . S
C2336 C2337 1.385 . S
C2337 H2323 0.931 . S
C2337 C2336 1.385 . S
C2337 C2338 1.389 . S
C2338 C2337 1.389 . S
C2338 C2339 1.387 . S
C2339 H2324 0.930 . S
C2339 C2334 1.390 . S
C2339 C2338 1.387 . S
H2340 C2352 0.930 . S
H2341 C2354 0.930 . S
H2342 C2355 0.930 . S
H2343 C2359 0.959 . S
H2344 C2359 0.959 . S
H2345 C2359 0.961 . S
H2346 C2360 0.960 . S
H2347 C2360 0.961 . S
H2348 C2360 0.959 . S
H2349 C2363 0.929 . S
H2350 C2364 0.931 . S
H2351 C2366 0.930 . S
C2352 H2340 0.930 . S
C2352 C2353 1.399 . S
C2352 C2357 1.399 . S
C2353 C2352 1.399 . S
C2353 C2354 1.376 . S
C2354 H2341 0.930 . S
C2354 C2353 1.376 . S
C2354 C2355 1.388 . S
C2355 H2342 0.930 . S
C2355 C2354 1.388 . S
C2355 C2356 1.390 . S
C2356 C2355 1.390 . S
C2356 C2357 1.394 . S
C2356 C2362 1.465 . S
C2357 C2352 1.399 . S
C2357 C2356 1.394 . S
C2357 C2358 1.516 . S
C2358 C2357 1.516 . S
C2358 C2359 1.502 . S
C2358 C2360 1.561 . S
C2358 C2361 1.526 . S
C2359 H2343 0.959 . S
C2359 H2344 0.959 . S
C2359 H2345 0.961 . S
C2359 C2358 1.502 . S
C2360 H2346 0.960 . S
C2360 H2347 0.961 . S
C2360 H2348 0.959 . S
C2360 C2358 1.561 . S
C2361 C2358 1.526 . S
C2361 C2362 1.396 . S
C2361 C2366 1.390 . S
C2362 C2356 1.465 . S
C2362 C2361 1.396 . S
C2362 C2363 1.399 . S
C2363 H2349 0.929 . S
C2363 C2362 1.399 . S
C2363 C2364 1.385 . S
C2364 H2350 0.931 . S
C2364 C2363 1.385 . S
C2364 C2365 1.389 . S
C2365 C2364 1.389 . S
C2365 C2366 1.387 . S
C2366 H2351 0.930 . S
C2366 C2361 1.390 . S
C2366 C2365 1.387 . S
H2367 C2379 0.930 . S
H2368 C2381 0.930 . S
H2369 C2382 0.930 . S
H2370 C2386 0.959 . S
H2371 C2386 0.959 . S
H2372 C2386 0.961 . S
H2373 C2387 0.960 . S
H2374 C2387 0.961 . S
H2375 C2387 0.959 . S
H2376 C2390 0.929 . S
H2377 C2391 0.931 . S
H2378 C2393 0.930 . S
C2379 H2367 0.930 . S
C2379 C2380 1.399 . S
C2379 C2384 1.399 . S
C2380 C2379 1.399 . S
C2380 C2381 1.376 . S
C2381 H2368 0.930 . S
C2381 C2380 1.376 . S
C2381 C2382 1.388 . S
C2382 H2369 0.930 . S
C2382 C2381 1.388 . S
C2382 C2383 1.390 . S
C2383 C2382 1.390 . S
C2383 C2384 1.394 . S
C2383 C2389 1.465 . S
C2384 C2379 1.399 . S
C2384 C2383 1.394 . S
C2384 C2385 1.516 . S
C2385 C2384 1.516 . S
C2385 C2386 1.502 . S
C2385 C2387 1.561 . S
C2385 C2388 1.526 . S
C2386 H2370 0.959 . S
C2386 H2371 0.959 . S
C2386 H2372 0.961 . S
C2386 C2385 1.502 . S
C2387 H2373 0.960 . S
C2387 H2374 0.961 . S
C2387 H2375 0.959 . S
C2387 C2385 1.561 . S
C2388 C2385 1.526 . S
C2388 C2389 1.396 . S
C2388 C2393 1.390 . S
C2389 C2383 1.465 . S
C2389 C2388 1.396 . S
C2389 C2390 1.399 . S
C2390 H2376 0.929 . S
C2390 C2389 1.399 . S
C2390 C2391 1.385 . S
C2391 H2377 0.931 . S
C2391 C2390 1.385 . S
C2391 C2392 1.389 . S
C2392 C2391 1.389 . S
C2392 C2393 1.387 . S
C2393 H2378 0.930 . S
C2393 C2388 1.390 . S
C2393 C2392 1.387 . S
H2394 C2406 0.930 . S
H2395 C2408 0.930 . S
H2396 C2409 0.930 . S
H2397 C2413 0.959 . S
H2398 C2413 0.959 . S
H2399 C2413 0.961 . S
H2400 C2414 0.960 . S
H2401 C2414 0.961 . S
H2402 C2414 0.959 . S
H2403 C2417 0.929 . S
H2404 C2418 0.931 . S
H2405 C2420 0.930 . S
C2406 H2394 0.930 . S
C2406 C2407 1.399 . S
C2406 C2411 1.399 . S
C2407 C2406 1.399 . S
C2407 C2408 1.376 . S
C2408 H2395 0.930 . S
C2408 C2407 1.376 . S
C2408 C2409 1.388 . S
C2409 H2396 0.930 . S
C2409 C2408 1.388 . S
C2409 C2410 1.390 . S
C2410 C2409 1.390 . S
C2410 C2411 1.394 . S
C2410 C2416 1.465 . S
C2411 C2406 1.399 . S
C2411 C2410 1.394 . S
C2411 C2412 1.516 . S
C2412 C2411 1.516 . S
C2412 C2413 1.502 . S
C2412 C2414 1.561 . S
C2412 C2415 1.526 . S
C2413 H2397 0.959 . S
C2413 H2398 0.959 . S
C2413 H2399 0.961 . S
C2413 C2412 1.502 . S
C2414 H2400 0.960 . S
C2414 H2401 0.961 . S
C2414 H2402 0.959 . S
C2414 C2412 1.561 . S
C2415 C2412 1.526 . S
C2415 C2416 1.396 . S
C2415 C2420 1.390 . S
C2416 C2410 1.465 . S
C2416 C2415 1.396 . S
C2416 C2417 1.399 . S
C2417 H2403 0.929 . S
C2417 C2416 1.399 . S
C2417 C2418 1.385 . S
C2418 H2404 0.931 . S
C2418 C2417 1.385 . S
C2418 C2419 1.389 . S
C2419 C2418 1.389 . S
C2419 C2420 1.387 . S
C2420 H2405 0.930 . S
C2420 C2415 1.390 . S
C2420 C2419 1.387 . S
H2421 C2433 0.930 . S
H2422 C2435 0.930 . S
H2423 C2436 0.930 . S
H2424 C2440 0.959 . S
H2425 C2440 0.959 . S
H2426 C2440 0.961 . S
H2427 C2441 0.964 . S
H2428 C2441 0.960 1_655 S
H2429 C2441 0.947 1_655 S
H2430 C2444 0.929 . S
H2431 C2445 0.931 . S
H2432 C2447 0.930 . S
C2433 H2421 0.930 . S
C2433 C2434 1.399 1_554 S
C2433 C2438 1.399 . S
C2434 C2433 1.399 1_556 S
C2434 C2435 1.376 . S
C2435 H2422 0.930 . S
C2435 C2434 1.376 . S
C2435 C2436 1.388 1_556 S
C2436 H2423 0.930 . S
C2436 C2435 1.388 1_554 S
C2436 C2437 1.390 . S
C2437 C2436 1.390 . S
C2437 C2438 1.394 . S
C2437 C2443 1.465 . S
C2438 C2433 1.399 . S
C2438 C2437 1.394 . S
C2438 C2439 1.516 . S
C2439 C2438 1.516 . S
C2439 C2440 1.502 . S
C2439 C2441 1.570 . S
C2439 C2442 1.526 . S
C2440 H2424 0.959 . S
C2440 H2425 0.959 . S
C2440 H2426 0.961 . S
C2440 C2439 1.502 . S
C2441 H2427 0.964 . S
C2441 H2428 0.960 1_455 S
C2441 H2429 0.947 1_455 S
C2441 C2439 1.570 . S
C2442 C2439 1.526 . S
C2442 C2443 1.396 . S
C2442 C2447 1.390 . S
C2443 C2437 1.465 . S
C2443 C2442 1.396 . S
C2443 C2444 1.399 1_455 S
C2444 H2430 0.929 . S
C2444 C2443 1.399 1_655 S
C2444 C2445 1.385 . S
C2445 H2431 0.931 . S
C2445 C2444 1.385 . S
C2445 C2446 1.389 . S
C2446 C2445 1.389 . S
C2446 C2447 1.387 1_655 S
C2447 H2432 0.930 . S
C2447 C2442 1.390 . S
C2447 C2446 1.387 1_455 S
H2448 C2460 0.930 . S
H2449 C2462 0.930 . S
H2450 C2463 0.930 . S
H2451 C2467 0.959 . S
H2452 C2467 0.959 . S
H2453 C2467 0.961 . S
H2454 C2468 0.960 . S
H2455 C2468 0.961 . S
H2456 C2468 0.959 . S
H2457 C2471 0.929 . S
H2458 C2472 0.931 . S
H2459 C2474 0.930 . S
C2460 H2448 0.930 . S
C2460 C2461 1.399 . S
C2460 C2465 1.399 . S
C2461 C2460 1.399 . S
C2461 C2462 1.376 . S
C2462 H2449 0.930 . S
C2462 C2461 1.376 . S
C2462 C2463 1.388 . S
C2463 H2450 0.930 . S
C2463 C2462 1.388 . S
C2463 C2464 1.390 . S
C2464 C2463 1.390 . S
C2464 C2465 1.394 . S
C2464 C2470 1.465 . S
C2465 C2460 1.399 . S
C2465 C2464 1.394 . S
C2465 C2466 1.516 . S
C2466 C2465 1.516 . S
C2466 C2467 1.502 . S
C2466 C2468 1.561 . S
C2466 C2469 1.526 . S
C2467 H2451 0.959 . S
C2467 H2452 0.959 . S
C2467 H2453 0.961 . S
C2467 C2466 1.502 . S
C2468 H2454 0.960 . S
C2468 H2455 0.961 . S
C2468 H2456 0.959 . S
C2468 C2466 1.561 . S
C2469 C2466 1.526 . S
C2469 C2470 1.396 . S
C2469 C2474 1.390 . S
C2470 C2464 1.465 . S
C2470 C2469 1.396 . S
C2470 C2471 1.399 . S
C2471 H2457 0.929 . S
C2471 C2470 1.399 . S
C2471 C2472 1.385 . S
C2472 H2458 0.931 . S
C2472 C2471 1.385 . S
C2472 C2473 1.389 . S
C2473 C2472 1.389 . S
C2473 C2474 1.387 . S
C2474 H2459 0.930 . S
C2474 C2469 1.390 . S
C2474 C2473 1.387 . S
H2475 C2487 0.930 . S
H2476 C2489 0.930 . S
H2477 C2490 0.930 . S
H2478 C2494 0.959 . S
H2479 C2494 0.959 . S
H2480 C2494 0.961 . S
H2481 C2495 0.960 . S
H2482 C2495 0.961 . S
H2483 C2495 0.959 . S
H2484 C2498 0.929 . S
H2485 C2499 0.931 . S
H2486 C2501 0.930 1_545 S
C2487 H2475 0.930 . S
C2487 C2488 1.399 . S
C2487 C2492 1.399 . S
C2488 C2487 1.399 . S
C2488 C2489 1.376 . S
C2489 H2476 0.930 . S
C2489 C2488 1.376 . S
C2489 C2490 1.388 . S
C2490 H2477 0.930 . S
C2490 C2489 1.388 . S
C2490 C2491 1.390 . S
C2491 C2490 1.390 . S
C2491 C2492 1.394 . S
C2491 C2497 1.465 . S
C2492 C2487 1.399 . S
C2492 C2491 1.394 . S
C2492 C2493 1.516 . S
C2493 C2492 1.516 . S
C2493 C2494 1.502 . S
C2493 C2495 1.561 . S
C2493 C2496 1.526 . S
C2494 H2478 0.959 . S
C2494 H2479 0.959 . S
C2494 H2480 0.961 . S
C2494 C2493 1.502 . S
C2495 H2481 0.960 . S
C2495 H2482 0.961 . S
C2495 H2483 0.959 . S
C2495 C2493 1.561 . S
C2496 C2493 1.526 . S
C2496 C2497 1.396 . S
C2496 C2501 1.390 . S
C2497 C2491 1.465 . S
C2497 C2496 1.396 . S
C2497 C2498 1.399 . S
C2498 H2484 0.929 . S
C2498 C2497 1.399 . S
C2498 C2499 1.385 . S
C2499 H2485 0.931 . S
C2499 C2498 1.385 . S
C2499 C2500 1.389 1_565 S
C2500 C2499 1.389 1_545 S
C2500 C2501 1.387 1_545 S
C2501 H2486 0.930 1_565 S
C2501 C2496 1.390 . S
C2501 C2500 1.387 1_565 S
H2502 C2514 0.930 . S
H2503 C2516 0.930 . S
H2504 C2517 0.930 . S
H2505 C2521 0.959 . S
H2506 C2521 0.959 . S
H2507 C2521 0.961 . S
H2508 C2522 0.960 . S
H2509 C2522 0.961 . S
H2510 C2522 0.959 . S
H2511 C2525 0.929 . S
H2512 C2526 0.931 . S
H2513 C2528 0.930 . S
C2514 H2502 0.930 . S
C2514 C2515 1.399 . S
C2514 C2519 1.399 . S
C2515 C2514 1.399 . S
C2515 C2516 1.376 . S
C2516 H2503 0.930 . S
C2516 C2515 1.376 . S
C2516 C2517 1.388 . S
C2517 H2504 0.930 . S
C2517 C2516 1.388 . S
C2517 C2518 1.390 . S
C2518 C2517 1.390 . S
C2518 C2519 1.394 . S
C2518 C2524 1.465 . S
C2519 C2514 1.399 . S
C2519 C2518 1.394 . S
C2519 C2520 1.516 . S
C2520 C2519 1.516 . S
C2520 C2521 1.502 . S
C2520 C2522 1.561 . S
C2520 C2523 1.526 . S
C2521 H2505 0.959 . S
C2521 H2506 0.959 . S
C2521 H2507 0.961 . S
C2521 C2520 1.502 . S
C2522 H2508 0.960 . S
C2522 H2509 0.961 . S
C2522 H2510 0.959 . S
C2522 C2520 1.561 . S
C2523 C2520 1.526 . S
C2523 C2524 1.396 . S
C2523 C2528 1.390 . S
C2524 C2518 1.465 . S
C2524 C2523 1.396 . S
C2524 C2525 1.399 . S
C2525 H2511 0.929 . S
C2525 C2524 1.399 . S
C2525 C2526 1.385 . S
C2526 H2512 0.931 . S
C2526 C2525 1.385 . S
C2526 C2527 1.389 . S
C2527 C2526 1.389 . S
C2527 C2528 1.387 . S
C2528 H2513 0.930 . S
C2528 C2523 1.390 . S
C2528 C2527 1.387 . S
H2529 C2541 0.930 . S
H2530 C2543 0.930 . S
H2531 C2544 0.930 . S
H2532 C2548 0.959 . S
H2533 C2548 0.959 . S
H2534 C2548 0.961 . S
H2535 C2549 0.960 . S
H2536 C2549 0.961 . S
H2537 C2549 0.959 . S
H2538 C2552 0.929 . S
H2539 C2553 0.931 1_554 S
H2540 C2555 0.930 . S
C2541 H2529 0.930 . S
C2541 C2542 1.399 1_556 S
C2541 C2546 1.399 . S
C2542 C2541 1.399 1_554 S
C2542 C2543 1.376 . S
C2543 H2530 0.930 . S
C2543 C2542 1.376 . S
C2543 C2544 1.388 . S
C2544 H2531 0.930 . S
C2544 C2543 1.388 . S
C2544 C2545 1.395 1_554 S
C2545 C2544 1.395 1_556 S
C2545 C2546 1.389 . S
C2545 C2551 1.464 . S
C2546 C2541 1.399 . S
C2546 C2545 1.389 . S
C2546 C2547 1.516 . S
C2547 C2546 1.516 . S
C2547 C2548 1.502 . S
C2547 C2549 1.561 . S
C2547 C2550 1.526 . S
C2548 H2532 0.959 . S
C2548 H2533 0.959 . S
C2548 H2534 0.961 . S
C2548 C2547 1.502 . S
C2549 H2535 0.960 . S
C2549 H2536 0.961 . S
C2549 H2537 0.959 . S
C2549 C2547 1.561 . S
C2550 C2547 1.526 . S
C2550 C2551 1.396 . S
C2550 C2555 1.390 . S
C2551 C2545 1.464 . S
C2551 C2550 1.396 . S
C2551 C2552 1.399 1_556 S
C2552 H2538 0.929 . S
C2552 C2551 1.399 1_554 S
C2552 C2553 1.385 1_544 S
C2553 H2539 0.931 1_556 S
C2553 C2552 1.385 1_566 S
C2553 C2554 1.389 . S
C2554 C2553 1.389 . S
C2554 C2555 1.387 1_565 S
C2555 H2540 0.930 . S
C2555 C2550 1.390 . S
C2555 C2554 1.387 1_545 S
H2556 C2568 0.930 . S
H2557 C2570 0.930 . S
H2558 C2571 0.930 . S
H2559 C2575 0.959 . S
H2560 C2575 0.959 . S
H2561 C2575 0.961 . S
H2562 C2576 0.960 . S
H2563 C2576 0.961 . S
H2564 C2576 0.959 . S
H2565 C2579 0.929 . S
H2566 C2580 0.931 . S
H2567 C2582 0.930 . S
C2568 H2556 0.930 . S
C2568 C2569 1.399 . S
C2568 C2573 1.399 . S
C2569 C2568 1.399 . S
C2569 C2570 1.376 . S
C2570 H2557 0.930 . S
C2570 C2569 1.376 . S
C2570 C2571 1.388 . S
C2571 H2558 0.930 . S
C2571 C2570 1.388 . S
C2571 C2572 1.390 . S
C2572 C2571 1.390 . S
C2572 C2573 1.394 . S
C2572 C2578 1.465 . S
C2573 C2568 1.399 . S
C2573 C2572 1.394 . S
C2573 C2574 1.516 . S
C2574 C2573 1.516 . S
C2574 C2575 1.502 . S
C2574 C2576 1.561 . S
C2574 C2577 1.526 . S
C2575 H2559 0.959 . S
C2575 H2560 0.959 . S
C2575 H2561 0.961 . S
C2575 C2574 1.502 . S
C2576 H2562 0.960 . S
C2576 H2563 0.961 . S
C2576 H2564 0.959 . S
C2576 C2574 1.561 . S
C2577 C2574 1.526 . S
C2577 C2578 1.396 . S
C2577 C2582 1.390 . S
C2578 C2572 1.465 . S
C2578 C2577 1.396 . S
C2578 C2579 1.399 . S
C2579 H2565 0.929 . S
C2579 C2578 1.399 . S
C2579 C2580 1.385 . S
C2580 H2566 0.931 . S
C2580 C2579 1.385 . S
C2580 C2581 1.389 . S
C2581 C2580 1.389 . S
C2581 C2582 1.387 . S
C2582 H2567 0.930 . S
C2582 C2577 1.390 . S
C2582 C2581 1.387 . S
H2583 C2595 0.930 . S
H2584 C2597 0.913 1_545 S
H2585 C2598 0.930 . S
H2586 C2602 0.959 . S
H2587 C2602 0.959 . S
H2588 C2602 0.961 . S
H2589 C2603 0.960 . S
H2590 C2603 0.961 . S
H2591 C2603 0.959 . S
H2592 C2606 0.929 . S
H2593 C2607 0.931 . S
H2594 C2609 0.930 . S
C2595 H2583 0.930 . S
C2595 C2596 1.399 1_565 S
C2595 C2600 1.399 . S
C2596 C2595 1.399 1_545 S
C2596 C2597 1.372 1_545 S
C2597 H2584 0.913 1_565 S
C2597 C2596 1.372 1_565 S
C2597 C2598 1.410 . S
C2598 H2585 0.930 . S
C2598 C2597 1.410 . S
C2598 C2599 1.390 . S
C2599 C2598 1.390 . S
C2599 C2600 1.394 . S
C2599 C2605 1.465 . S
C2600 C2595 1.399 . S
C2600 C2599 1.394 . S
C2600 C2601 1.516 . S
C2601 C2600 1.516 . S
C2601 C2602 1.502 . S
C2601 C2603 1.561 . S
C2601 C2604 1.526 . S
C2602 H2586 0.959 . S
C2602 H2587 0.959 . S
C2602 H2588 0.961 . S
C2602 C2601 1.502 . S
C2603 H2589 0.960 . S
C2603 H2590 0.961 . S
C2603 H2591 0.959 . S
C2603 C2601 1.561 . S
C2604 C2601 1.526 . S
C2604 C2605 1.396 . S
C2604 C2609 1.390 . S
C2605 C2599 1.465 . S
C2605 C2604 1.396 . S
C2605 C2606 1.399 . S
C2606 H2592 0.929 . S
C2606 C2605 1.399 . S
C2606 C2607 1.385 . S
C2607 H2593 0.931 . S
C2607 C2606 1.385 . S
C2607 C2608 1.389 . S
C2608 C2607 1.389 . S
C2608 C2609 1.387 . S
C2609 H2594 0.930 . S
C2609 C2604 1.390 . S
C2609 C2608 1.387 . S
H2610 C2622 0.930 . S
H2611 C2624 0.930 . S
H2612 C2625 0.930 . S
H2613 C2629 0.959 . S
H2614 C2629 0.959 . S
H2615 C2629 0.961 . S
H2616 C2630 0.960 . S
H2617 C2630 0.961 . S
H2618 C2630 0.959 . S
H2619 C2633 0.929 . S
H2620 C2634 0.931 . S
H2621 C2636 0.930 . S
C2622 H2610 0.930 . S
C2622 C2623 1.399 . S
C2622 C2627 1.399 . S
C2623 C2622 1.399 . S
C2623 C2624 1.376 . S
C2624 H2611 0.930 . S
C2624 C2623 1.376 . S
C2624 C2625 1.388 . S
C2625 H2612 0.930 . S
C2625 C2624 1.388 . S
C2625 C2626 1.390 . S
C2626 C2625 1.390 . S
C2626 C2627 1.394 . S
C2626 C2632 1.465 . S
C2627 C2622 1.399 . S
C2627 C2626 1.394 . S
C2627 C2628 1.516 . S
C2628 C2627 1.516 . S
C2628 C2629 1.502 . S
C2628 C2630 1.561 . S
C2628 C2631 1.526 . S
C2629 H2613 0.959 . S
C2629 H2614 0.959 . S
C2629 H2615 0.961 . S
C2629 C2628 1.502 . S
C2630 H2616 0.960 . S
C2630 H2617 0.961 . S
C2630 H2618 0.959 . S
C2630 C2628 1.561 . S
C2631 C2628 1.526 . S
C2631 C2632 1.396 . S
C2631 C2636 1.390 . S
C2632 C2626 1.465 . S
C2632 C2631 1.396 . S
C2632 C2633 1.399 . S
C2633 H2619 0.929 . S
C2633 C2632 1.399 . S
C2633 C2634 1.385 . S
C2634 H2620 0.931 . S
C2634 C2633 1.385 . S
C2634 C2635 1.389 . S
C2635 C2634 1.389 . S
C2635 C2636 1.387 . S
C2636 H2621 0.930 . S
C2636 C2631 1.390 . S
C2636 C2635 1.387 . S
H2637 C2649 0.930 . S
H2638 C2651 0.944 1_565 S
H2639 C2652 0.930 . S
H2640 C2656 0.959 . S
H2641 C2656 0.959 . S
H2642 C2656 0.961 . S
H2643 C2657 0.960 . S
H2644 C2657 0.961 . S
H2645 C2657 0.959 . S
H2646 C2660 0.929 . S
H2647 C2661 0.931 . S
H2648 C2663 0.930 . S
C2649 H2637 0.930 . S
C2649 C2650 1.399 1_545 S
C2649 C2654 1.399 . S
C2650 C2649 1.399 1_565 S
C2650 C2651 1.376 1_565 S
C2651 H2638 0.944 1_545 S
C2651 C2650 1.376 1_545 S
C2651 C2652 1.388 1_554 S
C2652 H2639 0.930 . S
C2652 C2651 1.388 1_556 S
C2652 C2653 1.390 1_556 S
C2653 C2652 1.390 1_554 S
C2653 C2654 1.394 . S
C2653 C2659 1.465 . S
C2654 C2649 1.399 . S
C2654 C2653 1.394 . S
C2654 C2655 1.516 . S
C2655 C2654 1.516 . S
C2655 C2656 1.502 . S
C2655 C2657 1.561 . S
C2655 C2658 1.526 . S
C2656 H2640 0.959 . S
C2656 H2641 0.959 . S
C2656 H2642 0.961 . S
C2656 C2655 1.502 . S
C2657 H2643 0.960 . S
C2657 H2644 0.961 . S
C2657 H2645 0.959 . S
C2657 C2655 1.561 . S
C2658 C2655 1.526 . S
C2658 C2659 1.396 . S
C2658 C2663 1.390 . S
C2659 C2653 1.465 . S
C2659 C2658 1.396 . S
C2659 C2660 1.399 1_554 S
C2660 H2646 0.929 . S
C2660 C2659 1.399 1_556 S
C2660 C2661 1.385 . S
C2661 H2647 0.931 . S
C2661 C2660 1.385 . S
C2661 C2662 1.389 . S
C2662 C2661 1.389 . S
C2662 C2663 1.387 1_556 S
C2663 H2648 0.930 . S
C2663 C2658 1.390 . S
C2663 C2662 1.387 1_554 S
H2664 C2676 0.930 . S
H2665 C2678 0.930 . S
H2666 C2679 0.930 . S
H2667 C2683 0.959 . S
H2668 C2683 0.959 . S
H2669 C2683 0.961 . S
H2670 C2684 0.960 . S
H2671 C2684 0.961 . S
H2672 C2684 0.959 . S
H2673 C2687 0.929 . S
H2674 C2688 0.931 . S
H2675 C2690 0.930 . S
C2676 H2664 0.930 . S
C2676 C2677 1.399 . S
C2676 C2681 1.399 . S
C2677 C2676 1.399 . S
C2677 C2678 1.376 . S
C2678 H2665 0.930 . S
C2678 C2677 1.376 . S
C2678 C2679 1.388 . S
C2679 H2666 0.930 . S
C2679 C2678 1.388 . S
C2679 C2680 1.390 . S
C2680 C2679 1.390 . S
C2680 C2681 1.394 . S
C2680 C2686 1.465 . S
C2681 C2676 1.399 . S
C2681 C2680 1.394 . S
C2681 C2682 1.516 . S
C2682 C2681 1.516 . S
C2682 C2683 1.502 . S
C2682 C2684 1.561 . S
C2682 C2685 1.526 . S
C2683 H2667 0.959 . S
C2683 H2668 0.959 . S
C2683 H2669 0.961 . S
C2683 C2682 1.502 . S
C2684 H2670 0.960 . S
C2684 H2671 0.961 . S
C2684 H2672 0.959 . S
C2684 C2682 1.561 . S
C2685 C2682 1.526 . S
C2685 C2686 1.396 . S
C2685 C2690 1.390 . S
C2686 C2680 1.465 . S
C2686 C2685 1.396 . S
C2686 C2687 1.399 . S
C2687 H2673 0.929 . S
C2687 C2686 1.399 . S
C2687 C2688 1.385 . S
C2688 H2674 0.931 . S
C2688 C2687 1.385 . S
C2688 C2689 1.389 . S
C2689 C2688 1.389 . S
C2689 C2690 1.387 . S
C2690 H2675 0.930 . S
C2690 C2685 1.390 . S
C2690 C2689 1.387 . S
H2691 C2703 0.930 . S
H2692 C2705 0.930 . S
H2693 C2706 0.930 . S
H2694 C2710 0.959 . S
H2695 C2710 0.959 . S
H2696 C2710 0.961 . S
H2697 C2711 0.960 . S
H2698 C2711 0.961 . S
H2699 C2711 0.959 . S
H2700 C2714 0.929 . S
H2701 C2715 0.931 . S
H2702 C2717 0.930 . S
C2703 H2691 0.930 . S
C2703 C2704 1.399 . S
C2703 C2708 1.399 . S
C2704 C2703 1.399 . S
C2704 C2705 1.376 . S
C2705 H2692 0.930 . S
C2705 C2704 1.376 . S
C2705 C2706 1.388 . S
C2706 H2693 0.930 . S
C2706 C2705 1.388 . S
C2706 C2707 1.390 . S
C2707 C2706 1.390 . S
C2707 C2708 1.394 . S
C2707 C2713 1.465 . S
C2708 C2703 1.399 . S
C2708 C2707 1.394 . S
C2708 C2709 1.516 . S
C2709 C2708 1.516 . S
C2709 C2710 1.502 . S
C2709 C2711 1.561 . S
C2709 C2712 1.526 . S
C2710 H2694 0.959 . S
C2710 H2695 0.959 . S
C2710 H2696 0.961 . S
C2710 C2709 1.502 . S
C2711 H2697 0.960 . S
C2711 H2698 0.961 . S
C2711 H2699 0.959 . S
C2711 C2709 1.561 . S
C2712 C2709 1.526 . S
C2712 C2713 1.396 . S
C2712 C2717 1.390 . S
C2713 C2707 1.465 . S
C2713 C2712 1.396 . S
C2713 C2714 1.399 . S
C2714 H2700 0.929 . S
C2714 C2713 1.399 . S
C2714 C2715 1.385 . S
C2715 H2701 0.931 . S
C2715 C2714 1.385 . S
C2715 C2716 1.389 . S
C2716 C2715 1.389 . S
C2716 C2717 1.387 . S
C2717 H2702 0.930 . S
C2717 C2712 1.390 . S
C2717 C2716 1.387 . S
H2718 C2730 0.930 1_455 S
H2719 C2732 0.930 . S
H2720 C2733 0.930 . S
H2721 C2737 0.959 . S
H2722 C2737 0.959 . S
H2723 C2737 0.961 . S
H2724 C2738 0.960 . S
H2725 C2738 0.961 . S
H2726 C2738 0.959 . S
H2727 C2741 0.929 . S
H2728 C2742 0.931 . S
H2729 C2744 0.930 . S
C2730 H2718 0.930 1_655 S
C2730 C2731 1.399 1_655 S
C2730 C2735 1.399 . S
C2731 C2730 1.399 1_455 S
C2731 C2732 1.376 1_455 S
C2732 H2719 0.930 . S
C2732 C2731 1.376 1_655 S
C2732 C2733 1.388 . S
C2733 H2720 0.930 . S
C2733 C2732 1.388 . S
C2733 C2734 1.390 . S
C2734 C2733 1.390 . S
C2734 C2735 1.394 . S
C2734 C2740 1.465 . S
C2735 C2730 1.399 . S
C2735 C2734 1.394 . S
C2735 C2736 1.516 . S
C2736 C2735 1.516 . S
C2736 C2737 1.502 . S
C2736 C2738 1.561 . S
C2736 C2739 1.526 . S
C2737 H2721 0.959 . S
C2737 H2722 0.959 . S
C2737 H2723 0.961 . S
C2737 C2736 1.502 . S
C2738 H2724 0.960 . S
C2738 H2725 0.961 . S
C2738 H2726 0.959 . S
C2738 C2736 1.561 . S
C2739 C2736 1.526 . S
C2739 C2740 1.396 . S
C2739 C2744 1.390 . S
C2740 C2734 1.465 . S
C2740 C2739 1.396 . S
C2740 C2741 1.399 . S
C2741 H2727 0.929 . S
C2741 C2740 1.399 . S
C2741 C2742 1.385 . S
C2742 H2728 0.931 . S
C2742 C2741 1.385 . S
C2742 C2743 1.389 . S
C2743 C2742 1.389 . S
C2743 C2744 1.387 . S
C2744 H2729 0.930 . S
C2744 C2739 1.390 . S
C2744 C2743 1.387 . S
H2745 C2757 0.930 . S
H2746 C2759 0.930 . S
H2747 C2760 0.930 . S
H2748 C2764 0.959 . S
H2749 C2764 0.959 . S
H2750 C2764 0.961 . S
H2751 C2765 0.960 . S
H2752 C2765 0.961 . S
H2753 C2765 0.959 . S
H2754 C2768 0.929 . S
H2755 C2769 0.931 . S
H2756 C2771 0.930 . S
C2757 H2745 0.930 . S
C2757 C2758 1.399 . S
C2757 C2762 1.399 . S
C2758 C2757 1.399 . S
C2758 C2759 1.376 . S
C2759 H2746 0.930 . S
C2759 C2758 1.376 . S
C2759 C2760 1.388 . S
C2760 H2747 0.930 . S
C2760 C2759 1.388 . S
C2760 C2761 1.390 . S
C2761 C2760 1.390 . S
C2761 C2762 1.394 . S
C2761 C2767 1.465 . S
C2762 C2757 1.399 . S
C2762 C2761 1.394 . S
C2762 C2763 1.516 . S
C2763 C2762 1.516 . S
C2763 C2764 1.502 . S
C2763 C2765 1.561 . S
C2763 C2766 1.526 . S
C2764 H2748 0.959 . S
C2764 H2749 0.959 . S
C2764 H2750 0.961 . S
C2764 C2763 1.502 . S
C2765 H2751 0.960 . S
C2765 H2752 0.961 . S
C2765 H2753 0.959 . S
C2765 C2763 1.561 . S
C2766 C2763 1.526 . S
C2766 C2767 1.396 . S
C2766 C2771 1.390 . S
C2767 C2761 1.465 . S
C2767 C2766 1.396 . S
C2767 C2768 1.399 . S
C2768 H2754 0.929 . S
C2768 C2767 1.399 . S
C2768 C2769 1.385 . S
C2769 H2755 0.931 . S
C2769 C2768 1.385 . S
C2769 C2770 1.389 . S
C2770 C2769 1.389 . S
C2770 C2771 1.387 . S
C2771 H2756 0.930 . S
C2771 C2766 1.390 . S
C2771 C2770 1.387 . S
H2772 C2784 0.910 1_655 S
H2773 C2786 0.930 . S
H2774 C2787 0.930 . S
H2775 C2791 0.959 1_565 S
H2776 C2791 0.959 . S
H2777 C2791 0.961 . S
H2778 C2792 0.960 . S
H2779 C2792 0.961 . S
H2780 C2792 0.959 . S
H2781 C2795 0.929 . S
H2782 C2796 0.931 . S
H2783 C2798 0.930 . S
C2784 H2772 0.910 1_455 S
C2784 C2785 1.399 1_455 S
C2784 C2789 1.399 . S
C2785 C2784 1.399 1_655 S
C2785 C2786 1.376 1_655 S
C2786 H2773 0.930 . S
C2786 C2785 1.376 1_455 S
C2786 C2787 1.388 . S
C2787 H2774 0.930 . S
C2787 C2786 1.388 . S
C2787 C2788 1.390 . S
C2788 C2787 1.390 . S
C2788 C2789 1.394 . S
C2788 C2794 1.465 . S
C2789 C2784 1.399 . S
C2789 C2788 1.394 . S
C2789 C2790 1.516 . S
C2790 C2789 1.516 . S
C2790 C2791 1.502 . S
C2790 C2792 1.561 . S
C2790 C2793 1.526 . S
C2791 H2775 0.959 1_545 S
C2791 H2776 0.959 . S
C2791 H2777 0.961 . S
C2791 C2790 1.502 . S
C2792 H2778 0.960 . S
C2792 H2779 0.961 . S
C2792 H2780 0.959 . S
C2792 C2790 1.561 . S
C2793 C2790 1.526 . S
C2793 C2794 1.396 . S
C2793 C2798 1.390 . S
C2794 C2788 1.465 . S
C2794 C2793 1.396 . S
C2794 C2795 1.399 . S
C2795 H2781 0.929 . S
C2795 C2794 1.399 . S
C2795 C2796 1.385 1_545 S
C2796 H2782 0.931 . S
C2796 C2795 1.385 1_565 S
C2796 C2797 1.393 . S
C2797 C2796 1.393 . S
C2797 C2798 1.374 1_565 S
C2798 H2783 0.930 . S
C2798 C2793 1.390 . S
C2798 C2797 1.374 1_545 S
H2799 C2811 0.930 . S
H2800 C2813 0.930 . S
H2801 C2814 0.930 . S
H2802 C2818 0.959 . S
H2803 C2818 0.959 . S
H2804 C2818 0.961 . S
H2805 C2819 0.960 . S
H2806 C2819 0.961 . S
H2807 C2819 0.959 . S
H2808 C2822 0.929 . S
H2809 C2823 0.931 . S
H2810 C2825 0.930 . S
C2811 H2799 0.930 . S
C2811 C2812 1.399 . S
C2811 C2816 1.399 . S
C2812 C2811 1.399 . S
C2812 C2813 1.376 . S
C2813 H2800 0.930 . S
C2813 C2812 1.376 . S
C2813 C2814 1.388 . S
C2814 H2801 0.930 . S
C2814 C2813 1.388 . S
C2814 C2815 1.390 . S
C2815 C2814 1.390 . S
C2815 C2816 1.394 . S
C2815 C2821 1.465 . S
C2816 C2811 1.399 . S
C2816 C2815 1.394 . S
C2816 C2817 1.516 . S
C2817 C2816 1.516 . S
C2817 C2818 1.502 . S
C2817 C2819 1.561 . S
C2817 C2820 1.526 . S
C2818 H2802 0.959 . S
C2818 H2803 0.959 . S
C2818 H2804 0.961 . S
C2818 C2817 1.502 . S
C2819 H2805 0.960 . S
C2819 H2806 0.961 . S
C2819 H2807 0.959 . S
C2819 C2817 1.561 . S
C2820 C2817 1.526 . S
C2820 C2821 1.396 . S
C2820 C2825 1.390 . S
C2821 C2815 1.465 . S
C2821 C2820 1.396 . S
C2821 C2822 1.399 . S
C2822 H2808 0.929 . S
C2822 C2821 1.399 . S
C2822 C2823 1.385 . S
C2823 H2809 0.931 . S
C2823 C2822 1.385 . S
C2823 C2824 1.389 . S
C2824 C2823 1.389 . S
C2824 C2825 1.387 . S
C2825 H2810 0.930 . S
C2825 C2820 1.390 . S
C2825 C2824 1.387 . S
H2826 C2838 0.930 . S
H2827 C2840 0.930 . S
H2828 C2841 0.930 . S
H2829 C2845 0.959 . S
H2830 C2845 0.959 . S
H2831 C2845 0.961 . S
H2832 C2846 0.960 . S
H2833 C2846 0.961 . S
H2834 C2846 0.959 . S
H2835 C2849 0.929 . S
H2836 C2850 0.931 . S
H2837 C2852 0.930 1_455 S
C2838 H2826 0.930 . S
C2838 C2839 1.399 . S
C2838 C2843 1.399 . S
C2839 C2838 1.399 . S
C2839 C2840 1.376 . S
C2840 H2827 0.930 . S
C2840 C2839 1.376 . S
C2840 C2841 1.388 . S
C2841 H2828 0.930 . S
C2841 C2840 1.388 . S
C2841 C2842 1.390 . S
C2842 C2841 1.390 . S
C2842 C2843 1.394 . S
C2842 C2848 1.465 . S
C2843 C2838 1.399 . S
C2843 C2842 1.394 . S
C2843 C2844 1.516 . S
C2844 C2843 1.516 . S
C2844 C2845 1.502 . S
C2844 C2846 1.561 . S
C2844 C2847 1.526 . S
C2845 H2829 0.959 . S
C2845 H2830 0.959 . S
C2845 H2831 0.961 . S
C2845 C2844 1.502 . S
C2846 H2832 0.960 . S
C2846 H2833 0.961 . S
C2846 H2834 0.959 . S
C2846 C2844 1.561 . S
C2847 C2844 1.526 . S
C2847 C2848 1.396 . S
C2847 C2852 1.390 . S
C2848 C2842 1.465 . S
C2848 C2847 1.396 . S
C2848 C2849 1.399 . S
C2849 H2835 0.929 . S
C2849 C2848 1.399 . S
C2849 C2850 1.385 . S
C2850 H2836 0.931 . S
C2850 C2849 1.385 . S
C2850 C2851 1.389 1_655 S
C2851 C2850 1.389 1_455 S
C2851 C2852 1.387 1_455 S
C2852 H2837 0.930 1_655 S
C2852 C2847 1.390 . S
C2852 C2851 1.387 1_655 S
H2853 C2865 0.930 . S
H2854 C2867 0.930 . S
H2855 C2868 0.930 . S
H2856 C2872 0.959 . S
H2857 C2872 0.959 . S
H2858 C2872 0.961 . S
H2859 C2873 0.960 . S
H2860 C2873 0.961 . S
H2861 C2873 0.959 . S
H2862 C2876 0.929 . S
H2863 C2877 0.931 . S
H2864 C2879 0.930 . S
C2865 H2853 0.930 . S
C2865 C2866 1.399 . S
C2865 C2870 1.399 . S
C2866 C2865 1.399 . S
C2866 C2867 1.376 . S
C2867 H2854 0.930 . S
C2867 C2866 1.376 . S
C2867 C2868 1.388 . S
C2868 H2855 0.930 . S
C2868 C2867 1.388 . S
C2868 C2869 1.390 . S
C2869 C2868 1.390 . S
C2869 C2870 1.394 . S
C2869 C2875 1.465 . S
C2870 C2865 1.399 . S
C2870 C2869 1.394 . S
C2870 C2871 1.516 . S
C2871 C2870 1.516 . S
C2871 C2872 1.502 . S
C2871 C2873 1.561 . S
C2871 C2874 1.526 . S
C2872 H2856 0.959 . S
C2872 H2857 0.959 . S
C2872 H2858 0.961 . S
C2872 C2871 1.502 . S
C2873 H2859 0.960 . S
C2873 H2860 0.961 . S
C2873 H2861 0.959 . S
C2873 C2871 1.561 . S
C2874 C2871 1.526 . S
C2874 C2875 1.396 . S
C2874 C2879 1.390 . S
C2875 C2869 1.465 . S
C2875 C2874 1.396 . S
C2875 C2876 1.399 . S
C2876 H2862 0.929 . S
C2876 C2875 1.399 . S
C2876 C2877 1.385 . S
C2877 H2863 0.931 . S
C2877 C2876 1.385 . S
C2877 C2878 1.389 . S
C2878 C2877 1.389 . S
C2878 C2879 1.387 . S
C2879 H2864 0.930 . S
C2879 C2874 1.390 . S
C2879 C2878 1.387 . S
H2880 C2892 0.930 . S
H2881 C2894 0.930 . S
H2882 C2895 0.930 . S
H2883 C2899 0.959 . S
H2884 C2899 0.959 . S
H2885 C2899 0.961 . S
H2886 C2900 0.960 . S
H2887 C2900 0.961 . S
H2888 C2900 0.959 . S
H2889 C2903 0.929 . S
H2890 C2904 0.931 . S
H2891 C2906 0.930 . S
C2892 H2880 0.930 . S
C2892 C2893 1.399 . S
C2892 C2897 1.399 . S
C2893 C2892 1.399 . S
C2893 C2894 1.376 . S
C2894 H2881 0.930 . S
C2894 C2893 1.376 . S
C2894 C2895 1.388 . S
C2895 H2882 0.930 . S
C2895 C2894 1.388 . S
C2895 C2896 1.390 . S
C2896 C2895 1.390 . S
C2896 C2897 1.394 . S
C2896 C2902 1.465 . S
C2897 C2892 1.399 . S
C2897 C2896 1.394 . S
C2897 C2898 1.516 . S
C2898 C2897 1.516 . S
C2898 C2899 1.502 . S
C2898 C2900 1.561 . S
C2898 C2901 1.526 . S
C2899 H2883 0.959 . S
C2899 H2884 0.959 . S
C2899 H2885 0.961 . S
C2899 C2898 1.502 . S
C2900 H2886 0.960 . S
C2900 H2887 0.961 . S
C2900 H2888 0.959 . S
C2900 C2898 1.561 . S
C2901 C2898 1.526 . S
C2901 C2902 1.396 . S
C2901 C2906 1.390 . S
C2902 C2896 1.465 . S
C2902 C2901 1.396 . S
C2902 C2903 1.399 . S
C2903 H2889 0.929 . S
C2903 C2902 1.399 . S
C2903 C2904 1.385 . S
C2904 H2890 0.931 . S
C2904 C2903 1.385 . S
C2904 C2905 1.389 . S
C2905 C2904 1.389 . S
C2905 C2906 1.387 . S
C2906 H2891 0.930 . S
C2906 C2901 1.390 . S
C2906 C2905 1.387 . S
H2907 C2919 0.930 . S
H2908 C2921 0.930 . S
H2909 C2922 0.930 . S
H2910 C2926 0.959 . S
H2911 C2926 0.959 . S
H2912 C2926 0.961 . S
H2913 C2927 0.960 . S
H2914 C2927 0.961 . S
H2915 C2927 0.959 . S
H2916 C2930 0.929 . S
H2917 C2931 0.931 . S
H2918 C2933 0.930 . S
C2919 H2907 0.930 . S
C2919 C2920 1.399 1_556 S
C2919 C2924 1.399 . S
C2920 C2919 1.399 1_554 S
C2920 C2921 1.376 . S
C2921 H2908 0.930 . S
C2921 C2920 1.376 . S
C2921 C2922 1.388 1_554 S
C2922 H2909 0.930 . S
C2922 C2921 1.388 1_556 S
C2922 C2923 1.390 . S
C2923 C2922 1.390 . S
C2923 C2924 1.394 . S
C2923 C2929 1.465 . S
C2924 C2919 1.399 . S
C2924 C2923 1.394 . S
C2924 C2925 1.516 . S
C2925 C2924 1.516 . S
C2925 C2926 1.502 . S
C2925 C2927 1.561 . S
C2925 C2928 1.526 . S
C2926 H2910 0.959 . S
C2926 H2911 0.959 . S
C2926 H2912 0.961 . S
C2926 C2925 1.502 . S
C2927 H2913 0.960 . S
C2927 H2914 0.961 . S
C2927 H2915 0.959 . S
C2927 C2925 1.561 . S
C2928 C2925 1.526 . S
C2928 C2929 1.396 . S
C2928 C2933 1.390 . S
C2929 C2923 1.465 . S
C2929 C2928 1.396 . S
C2929 C2930 1.399 . S
C2930 H2916 0.929 . S
C2930 C2929 1.399 . S
C2930 C2931 1.385 . S
C2931 H2917 0.931 . S
C2931 C2930 1.385 . S
C2931 C2932 1.389 . S
C2932 C2931 1.389 . S
C2932 C2933 1.387 . S
C2933 H2918 0.930 . S
C2933 C2928 1.390 . S
C2933 C2932 1.387 . S
H2934 C2946 0.930 . S
H2935 C2948 0.930 . S
H2936 C2949 0.930 . S
H2937 C2953 0.959 . S
H2938 C2953 0.959 . S
H2939 C2953 0.961 . S
H2940 C2954 0.960 . S
H2941 C2954 0.961 . S
H2942 C2954 0.959 . S
H2943 C2957 0.929 . S
H2944 C2958 0.931 . S
H2945 C2960 0.930 . S
C2946 H2934 0.930 . S
C2946 C2947 1.399 . S
C2946 C2951 1.399 . S
C2947 C2946 1.399 . S
C2947 C2948 1.376 . S
C2948 H2935 0.930 . S
C2948 C2947 1.376 . S
C2948 C2949 1.388 . S
C2949 H2936 0.930 . S
C2949 C2948 1.388 . S
C2949 C2950 1.390 . S
C2950 C2949 1.390 . S
C2950 C2951 1.394 . S
C2950 C2956 1.465 . S
C2951 C2946 1.399 . S
C2951 C2950 1.394 . S
C2951 C2952 1.516 . S
C2952 C2951 1.516 . S
C2952 C2953 1.502 . S
C2952 C2954 1.561 . S
C2952 C2955 1.526 . S
C2953 H2937 0.959 . S
C2953 H2938 0.959 . S
C2953 H2939 0.961 . S
C2953 C2952 1.502 . S
C2954 H2940 0.960 . S
C2954 H2941 0.961 . S
C2954 H2942 0.959 . S
C2954 C2952 1.561 . S
C2955 C2952 1.526 . S
C2955 C2956 1.396 . S
C2955 C2960 1.390 . S
C2956 C2950 1.465 . S
C2956 C2955 1.396 . S
C2956 C2957 1.399 . S
C2957 H2943 0.929 . S
C2957 C2956 1.399 . S
C2957 C2958 1.385 . S
C2958 H2944 0.931 . S
C2958 C2957 1.385 . S
C2958 C2959 1.389 . S
C2959 C2958 1.389 . S
C2959 C2960 1.387 . S
C2960 H2945 0.930 . S
C2960 C2955 1.390 . S
C2960 C2959 1.387 . S
H2961 C2973 0.930 . S
H2962 C2975 0.930 . S
H2963 C2976 0.930 1_455 S
H2964 C2980 0.959 . S
H2965 C2980 0.959 . S
H2966 C2980 0.961 . S
H2967 C2981 0.960 . S
H2968 C2981 0.961 . S
H2969 C2981 0.959 1_455 S
H2970 C2984 0.929 . S
H2971 C2985 0.931 . S
H2972 C2987 0.930 . S
C2973 H2961 0.930 . S
C2973 C2974 1.399 . S
C2973 C2978 1.399 . S
C2974 C2973 1.399 . S
C2974 C2975 1.376 . S
C2975 H2962 0.930 . S
C2975 C2974 1.376 . S
C2975 C2976 1.388 . S
C2976 H2963 0.930 1_655 S
C2976 C2975 1.388 . S
C2976 C2977 1.390 . S
C2977 C2976 1.390 . S
C2977 C2978 1.394 . S
C2977 C2983 1.465 . S
C2978 C2973 1.399 . S
C2978 C2977 1.394 . S
C2978 C2979 1.516 . S
C2979 C2978 1.516 . S
C2979 C2980 1.502 . S
C2979 C2981 1.561 . S
C2979 C2982 1.526 . S
C2980 H2964 0.959 . S
C2980 H2965 0.959 . S
C2980 H2966 0.961 . S
C2980 C2979 1.502 . S
C2981 H2967 0.960 . S
C2981 H2968 0.961 . S
C2981 H2969 0.959 1_655 S
C2981 C2979 1.561 . S
C2982 C2979 1.526 . S
C2982 C2983 1.396 . S
C2982 C2987 1.390 . S
C2983 C2977 1.465 . S
C2983 C2982 1.396 . S
C2983 C2984 1.399 1_655 S
C2984 H2970 0.929 . S
C2984 C2983 1.399 1_455 S
C2984 C2985 1.385 . S
C2985 H2971 0.931 . S
C2985 C2984 1.385 . S
C2985 C2986 1.389 . S
C2986 C2985 1.389 . S
C2986 C2987 1.387 1_455 S
C2987 H2972 0.930 . S
C2987 C2982 1.390 . S
C2987 C2986 1.387 1_655 S
H2988 C3000 0.930 . S
H2989 C3002 0.930 . S
H2990 C3003 0.930 . S
H2991 C3007 0.959 . S
H2992 C3007 0.959 . S
H2993 C3007 0.961 . S
H2994 C3008 0.960 . S
H2995 C3008 0.961 . S
H2996 C3008 0.959 . S
H2997 C3011 0.929 . S
H2998 C3012 0.931 . S
H2999 C3014 0.930 . S
C3000 H2988 0.930 . S
C3000 C3001 1.399 . S
C3000 C3005 1.399 . S
C3001 C3000 1.399 . S
C3001 C3002 1.376 . S
C3002 H2989 0.930 . S
C3002 C3001 1.376 . S
C3002 C3003 1.388 . S
C3003 H2990 0.930 . S
C3003 C3002 1.388 . S
C3003 C3004 1.390 . S
C3004 C3003 1.390 . S
C3004 C3005 1.394 . S
C3004 C3010 1.465 . S
C3005 C3000 1.399 . S
C3005 C3004 1.394 . S
C3005 C3006 1.516 . S
C3006 C3005 1.516 . S
C3006 C3007 1.502 . S
C3006 C3008 1.561 . S
C3006 C3009 1.526 . S
C3007 H2991 0.959 . S
C3007 H2992 0.959 . S
C3007 H2993 0.961 . S
C3007 C3006 1.502 . S
C3008 H2994 0.960 . S
C3008 H2995 0.961 . S
C3008 H2996 0.959 . S
C3008 C3006 1.561 . S
C3009 C3006 1.526 . S
C3009 C3010 1.396 . S
C3009 C3014 1.390 . S
C3010 C3004 1.465 . S
C3010 C3009 1.396 . S
C3010 C3011 1.399 . S
C3011 H2997 0.929 . S
C3011 C3010 1.399 . S
C3011 C3012 1.385 . S
C3012 H2998 0.931 . S
C3012 C3011 1.385 . S
C3012 C3013 1.389 . S
C3013 C3012 1.389 . S
C3013 C3014 1.387 . S
C3014 H2999 0.930 . S
C3014 C3009 1.390 . S
C3014 C3013 1.387 . S
H3015 C3027 0.930 . S
H3016 C3029 0.930 . S
H3017 C3030 0.930 1_455 S
H3018 C3034 0.959 . S
H3019 C3034 0.959 . S
H3020 C3034 0.961 . S
H3021 C3035 0.960 . S
H3022 C3035 0.961 . S
H3023 C3035 0.959 1_455 S
H3024 C3038 0.929 . S
H3025 C3039 0.931 . S
H3026 C3041 0.930 . S
C3027 H3015 0.930 . S
C3027 C3028 1.399 1_554 S
C3027 C3032 1.399 . S
C3028 C3027 1.399 1_556 S
C3028 C3029 1.376 . S
C3029 H3016 0.930 . S
C3029 C3028 1.376 . S
C3029 C3030 1.388 1_556 S
C3030 H3017 0.930 1_655 S
C3030 C3029 1.388 1_554 S
C3030 C3031 1.390 . S
C3031 C3030 1.390 . S
C3031 C3032 1.394 . S
C3031 C3037 1.465 . S
C3032 C3027 1.399 . S
C3032 C3031 1.394 . S
C3032 C3033 1.516 . S
C3033 C3032 1.516 . S
C3033 C3034 1.502 . S
C3033 C3035 1.561 . S
C3033 C3036 1.526 . S
C3034 H3018 0.959 . S
C3034 H3019 0.959 . S
C3034 H3020 0.961 . S
C3034 C3033 1.502 . S
C3035 H3021 0.960 . S
C3035 H3022 0.961 . S
C3035 H3023 0.959 1_655 S
C3035 C3033 1.561 . S
C3036 C3033 1.526 . S
C3036 C3037 1.396 . S
C3036 C3041 1.390 . S
C3037 C3031 1.465 . S
C3037 C3036 1.396 . S
C3037 C3038 1.399 1_655 S
C3038 H3024 0.929 . S
C3038 C3037 1.399 1_455 S
C3038 C3039 1.385 . S
C3039 H3025 0.931 . S
C3039 C3038 1.385 . S
C3039 C3040 1.389 . S
C3040 C3039 1.389 . S
C3040 C3041 1.387 1_455 S
C3041 H3026 0.930 . S
C3041 C3036 1.390 . S
C3041 C3040 1.387 1_655 S
H3042 C3054 0.930 . S
H3043 C3056 0.930 . S
H3044 C3057 0.930 . S
H3045 C3061 0.959 . S
H3046 C3061 0.959 . S
H3047 C3061 0.961 . S
H3048 C3062 0.960 . S
H3049 C3062 0.961 . S
H3050 C3062 0.959 . S
H3051 C3065 0.929 . S
H3052 C3066 0.931 . S
H3053 C3068 0.930 . S
C3054 H3042 0.930 . S
C3054 C3055 1.399 . S
C3054 C3059 1.399 . S
C3055 C3054 1.399 . S
C3055 C3056 1.376 . S
C3056 H3043 0.930 . S
C3056 C3055 1.376 . S
C3056 C3057 1.388 . S
C3057 H3044 0.930 . S
C3057 C3056 1.388 . S
C3057 C3058 1.390 . S
C3058 C3057 1.390 . S
C3058 C3059 1.394 . S
C3058 C3064 1.465 . S
C3059 C3054 1.399 . S
C3059 C3058 1.394 . S
C3059 C3060 1.516 . S
C3060 C3059 1.516 . S
C3060 C3061 1.502 . S
C3060 C3062 1.561 . S
C3060 C3063 1.526 . S
C3061 H3045 0.959 . S
C3061 H3046 0.959 . S
C3061 H3047 0.961 . S
C3061 C3060 1.502 . S
C3062 H3048 0.960 . S
C3062 H3049 0.961 . S
C3062 H3050 0.959 . S
C3062 C3060 1.561 . S
C3063 C3060 1.526 . S
C3063 C3064 1.396 . S
C3063 C3068 1.390 . S
C3064 C3058 1.465 . S
C3064 C3063 1.396 . S
C3064 C3065 1.399 . S
C3065 H3051 0.929 . S
C3065 C3064 1.399 . S
C3065 C3066 1.385 . S
C3066 H3052 0.931 . S
C3066 C3065 1.385 . S
C3066 C3067 1.389 . S
C3067 C3066 1.389 . S
C3067 C3068 1.387 . S
C3068 H3053 0.930 . S
C3068 C3063 1.390 . S
C3068 C3067 1.387 . S
H3069 C3081 0.930 . S
H3070 C3083 0.930 . S
H3071 C3084 0.930 . S
H3072 C3088 0.959 . S
H3073 C3088 0.959 . S
H3074 C3088 0.961 . S
H3075 C3089 0.960 . S
H3076 C3089 0.961 . S
H3077 C3089 0.959 . S
H3078 C3092 0.929 . S
H3079 C3093 0.931 . S
H3080 C3095 0.930 . S
C3081 H3069 0.930 . S
C3081 C3082 1.399 . S
C3081 C3086 1.399 . S
C3082 C3081 1.399 . S
C3082 C3083 1.376 . S
C3083 H3070 0.930 . S
C3083 C3082 1.376 . S
C3083 C3084 1.388 . S
C3084 H3071 0.930 . S
C3084 C3083 1.388 . S
C3084 C3085 1.390 . S
C3085 C3084 1.390 . S
C3085 C3086 1.394 . S
C3085 C3091 1.465 . S
C3086 C3081 1.399 . S
C3086 C3085 1.394 . S
C3086 C3087 1.516 . S
C3087 C3086 1.516 . S
C3087 C3088 1.502 . S
C3087 C3089 1.561 . S
C3087 C3090 1.526 . S
C3088 H3072 0.959 . S
C3088 H3073 0.959 . S
C3088 H3074 0.961 . S
C3088 C3087 1.502 . S
C3089 H3075 0.960 . S
C3089 H3076 0.961 . S
C3089 H3077 0.959 . S
C3089 C3087 1.561 . S
C3090 C3087 1.526 . S
C3090 C3091 1.396 . S
C3090 C3095 1.390 . S
C3091 C3085 1.465 . S
C3091 C3090 1.396 . S
C3091 C3092 1.399 . S
C3092 H3078 0.929 . S
C3092 C3091 1.399 . S
C3092 C3093 1.385 . S
C3093 H3079 0.931 . S
C3093 C3092 1.385 . S
C3093 C3094 1.389 . S
C3094 C3093 1.389 . S
C3094 C3095 1.387 . S
C3095 H3080 0.930 . S
C3095 C3090 1.390 . S
C3095 C3094 1.387 . S
H3096 C3108 0.930 . S
H3097 C3110 0.930 . S
H3098 C3111 0.930 . S
H3099 C3115 0.959 . S
H3100 C3115 0.959 . S
H3101 C3115 0.961 . S
H3102 C3116 0.960 . S
H3103 C3116 0.961 . S
H3104 C3116 0.959 . S
H3105 C3119 0.929 . S
H3106 C3120 0.931 . S
H3107 C3122 0.930 . S
C3108 H3096 0.930 . S
C3108 C3109 1.399 . S
C3108 C3113 1.399 . S
C3109 C3108 1.399 . S
C3109 C3110 1.376 . S
C3110 H3097 0.930 . S
C3110 C3109 1.376 . S
C3110 C3111 1.388 . S
C3111 H3098 0.930 . S
C3111 C3110 1.388 . S
C3111 C3112 1.390 . S
C3112 C3111 1.390 . S
C3112 C3113 1.394 . S
C3112 C3118 1.465 . S
C3113 C3108 1.399 . S
C3113 C3112 1.394 . S
C3113 C3114 1.516 . S
C3114 C3113 1.516 . S
C3114 C3115 1.502 . S
C3114 C3116 1.561 . S
C3114 C3117 1.526 . S
C3115 H3099 0.959 . S
C3115 H3100 0.959 . S
C3115 H3101 0.961 . S
C3115 C3114 1.502 . S
C3116 H3102 0.960 . S
C3116 H3103 0.961 . S
C3116 H3104 0.959 . S
C3116 C3114 1.561 . S
C3117 C3114 1.526 . S
C3117 C3118 1.396 . S
C3117 C3122 1.390 . S
C3118 C3112 1.465 . S
C3118 C3117 1.396 . S
C3118 C3119 1.399 . S
C3119 H3105 0.929 . S
C3119 C3118 1.399 . S
C3119 C3120 1.385 . S
C3120 H3106 0.931 . S
C3120 C3119 1.385 . S
C3120 C3121 1.389 . S
C3121 C3120 1.389 . S
C3121 C3122 1.387 . S
C3122 H3107 0.930 . S
C3122 C3117 1.390 . S
C3122 C3121 1.387 . S
H3123 C3135 0.930 1_554 S
H3124 C3137 0.930 . S
H3125 C3138 0.930 . S
H3126 C3142 0.959 . S
H3127 C3142 0.959 . S
H3128 C3142 0.961 . S
H3129 C3143 0.960 . S
H3130 C3143 0.961 . S
H3131 C3143 0.959 . S
H3132 C3146 0.929 . S
H3133 C3147 0.931 . S
H3134 C3149 0.930 . S
C3135 H3123 0.930 1_556 S
C3135 C3136 1.399 . S
C3135 C3140 1.399 . S
C3136 C3135 1.399 . S
C3136 C3137 1.376 . S
C3137 H3124 0.930 . S
C3137 C3136 1.376 . S
C3137 C3138 1.388 . S
C3138 H3125 0.930 . S
C3138 C3137 1.388 . S
C3138 C3139 1.390 . S
C3139 C3138 1.390 . S
C3139 C3140 1.394 . S
C3139 C3145 1.465 . S
C3140 C3135 1.399 . S
C3140 C3139 1.394 . S
C3140 C3141 1.516 1_556 S
C3141 C3140 1.516 1_554 S
C3141 C3142 1.502 . S
C3141 C3143 1.561 . S
C3141 C3144 1.526 . S
C3142 H3126 0.959 . S
C3142 H3127 0.959 . S
C3142 H3128 0.961 . S
C3142 C3141 1.502 . S
C3143 H3129 0.960 . S
C3143 H3130 0.961 . S
C3143 H3131 0.959 . S
C3143 C3141 1.561 . S
C3144 C3141 1.526 . S
C3144 C3145 1.396 1_554 S
C3144 C3149 1.390 . S
C3145 C3139 1.465 . S
C3145 C3144 1.396 1_556 S
C3145 C3146 1.399 . S
C3146 H3132 0.929 . S
C3146 C3145 1.399 . S
C3146 C3147 1.385 . S
C3147 H3133 0.931 . S
C3147 C3146 1.385 . S
C3147 C3148 1.389 . S
C3148 C3147 1.389 . S
C3148 C3149 1.387 1_556 S
C3149 H3134 0.930 . S
C3149 C3144 1.390 . S
C3149 C3148 1.387 1_554 S
H3150 C3162 0.930 . S
H3151 C3164 0.930 . S
H3152 C3165 0.930 . S
H3153 C3169 0.959 . S
H3154 C3169 0.959 . S
H3155 C3169 0.961 . S
H3156 C3170 0.960 . S
H3157 C3170 0.961 . S
H3158 C3170 0.959 . S
H3159 C3173 0.929 . S
H3160 C3174 0.931 . S
H3161 C3176 0.930 . S
C3162 H3150 0.930 . S
C3162 C3163 1.399 . S
C3162 C3167 1.399 . S
C3163 C3162 1.399 . S
C3163 C3164 1.376 . S
C3164 H3151 0.930 . S
C3164 C3163 1.376 . S
C3164 C3165 1.388 . S
C3165 H3152 0.930 . S
C3165 C3164 1.388 . S
C3165 C3166 1.390 . S
C3166 C3165 1.390 . S
C3166 C3167 1.394 . S
C3166 C3172 1.465 . S
C3167 C3162 1.399 . S
C3167 C3166 1.394 . S
C3167 C3168 1.516 . S
C3168 C3167 1.516 . S
C3168 C3169 1.502 . S
C3168 C3170 1.561 . S
C3168 C3171 1.526 . S
C3169 H3153 0.959 . S
C3169 H3154 0.959 . S
C3169 H3155 0.961 . S
C3169 C3168 1.502 . S
C3170 H3156 0.960 . S
C3170 H3157 0.961 . S
C3170 H3158 0.959 . S
C3170 C3168 1.561 . S
C3171 C3168 1.526 . S
C3171 C3172 1.396 . S
C3171 C3176 1.390 . S
C3172 C3166 1.465 . S
C3172 C3171 1.396 . S
C3172 C3173 1.399 . S
C3173 H3159 0.929 . S
C3173 C3172 1.399 . S
C3173 C3174 1.385 . S
C3174 H3160 0.931 . S
C3174 C3173 1.385 . S
C3174 C3175 1.389 . S
C3175 C3174 1.389 . S
C3175 C3176 1.387 . S
C3176 H3161 0.930 . S
C3176 C3171 1.390 . S
C3176 C3175 1.387 . S
H3177 C3189 0.930 . S
H3178 C3191 0.930 . S
H3179 C3192 0.930 . S
H3180 C3196 0.959 . S
H3181 C3196 0.959 . S
H3182 C3196 0.961 . S
H3183 C3197 0.960 . S
H3184 C3197 0.961 . S
H3185 C3197 0.959 . S
H3186 C3200 0.929 . S
H3187 C3201 0.931 . S
H3188 C3203 0.930 . S
C3189 H3177 0.930 . S
C3189 C3190 1.399 . S
C3189 C3194 1.399 . S
C3190 C3189 1.399 . S
C3190 C3191 1.376 . S
C3191 H3178 0.930 . S
C3191 C3190 1.376 . S
C3191 C3192 1.388 . S
C3192 H3179 0.930 . S
C3192 C3191 1.388 . S
C3192 C3193 1.390 . S
C3193 C3192 1.390 . S
C3193 C3194 1.394 . S
C3193 C3199 1.465 . S
C3194 C3189 1.399 . S
C3194 C3193 1.394 . S
C3194 C3195 1.516 . S
C3195 C3194 1.516 . S
C3195 C3196 1.502 . S
C3195 C3197 1.561 . S
C3195 C3198 1.526 . S
C3196 H3180 0.959 . S
C3196 H3181 0.959 . S
C3196 H3182 0.961 . S
C3196 C3195 1.502 . S
C3197 H3183 0.960 . S
C3197 H3184 0.961 . S
C3197 H3185 0.959 . S
C3197 C3195 1.561 . S
C3198 C3195 1.526 . S
C3198 C3199 1.396 . S
C3198 C3203 1.390 . S
C3199 C3193 1.465 . S
C3199 C3198 1.396 . S
C3199 C3200 1.399 . S
C3200 H3186 0.929 . S
C3200 C3199 1.399 . S
C3200 C3201 1.385 . S
C3201 H3187 0.931 . S
C3201 C3200 1.385 . S
C3201 C3202 1.389 . S
C3202 C3201 1.389 . S
C3202 C3203 1.387 . S
C3203 H3188 0.930 . S
C3203 C3198 1.390 . S
C3203 C3202 1.387 . S
H3204 C3216 0.930 . S
H3205 C3218 0.930 . S
H3206 C3219 0.930 . S
H3207 C3223 0.959 . S
H3208 C3223 0.959 . S
H3209 C3223 0.961 . S
H3210 C3224 0.960 . S
H3211 C3224 0.961 . S
H3212 C3224 0.959 . S
H3213 C3227 0.929 . S
H3214 C3228 0.931 . S
H3215 C3230 0.930 . S
C3216 H3204 0.930 . S
C3216 C3217 1.399 . S
C3216 C3221 1.399 . S
C3217 C3216 1.399 . S
C3217 C3218 1.376 . S
C3218 H3205 0.930 . S
C3218 C3217 1.376 . S
C3218 C3219 1.388 . S
C3219 H3206 0.930 . S
C3219 C3218 1.388 . S
C3219 C3220 1.390 . S
C3220 C3219 1.390 . S
C3220 C3221 1.394 . S
C3220 C3226 1.465 . S
C3221 C3216 1.399 . S
C3221 C3220 1.394 . S
C3221 C3222 1.516 . S
C3222 C3221 1.516 . S
C3222 C3223 1.502 . S
C3222 C3224 1.561 . S
C3222 C3225 1.526 . S
C3223 H3207 0.959 . S
C3223 H3208 0.959 . S
C3223 H3209 0.961 . S
C3223 C3222 1.502 . S
C3224 H3210 0.960 . S
C3224 H3211 0.961 . S
C3224 H3212 0.959 . S
C3224 C3222 1.561 . S
C3225 C3222 1.526 . S
C3225 C3226 1.396 . S
C3225 C3230 1.390 . S
C3226 C3220 1.465 . S
C3226 C3225 1.396 . S
C3226 C3227 1.399 . S
C3227 H3213 0.929 . S
C3227 C3226 1.399 . S
C3227 C3228 1.385 . S
C3228 H3214 0.931 . S
C3228 C3227 1.385 . S
C3228 C3229 1.389 . S
C3229 C3228 1.389 . S
C3229 C3230 1.387 . S
C3230 H3215 0.930 . S
C3230 C3225 1.390 . S
C3230 C3229 1.387 . S
H3231 C3243 0.930 . S
H3232 C3245 0.930 . S
H3233 C3246 0.930 . S
H3234 C3250 0.959 . S
H3235 C3250 0.959 . S
H3236 C3250 0.961 . S
H3237 C3251 0.960 . S
H3238 C3251 0.961 . S
H3239 C3251 0.959 . S
H3240 C3254 0.929 . S
H3241 C3255 0.931 . S
H3242 C3257 0.930 1_556 S
C3243 H3231 0.930 . S
C3243 C3244 1.399 1_556 S
C3243 C3248 1.399 . S
C3244 C3243 1.399 1_554 S
C3244 C3245 1.376 . S
C3245 H3232 0.930 . S
C3245 C3244 1.376 . S
C3245 C3246 1.388 . S
C3246 H3233 0.930 . S
C3246 C3245 1.388 . S
C3246 C3247 1.390 . S
C3247 C3246 1.390 . S
C3247 C3248 1.394 1_554 S
C3247 C3253 1.465 . S
C3248 C3243 1.399 . S
C3248 C3247 1.394 1_556 S
C3248 C3249 1.516 . S
C3249 C3248 1.516 . S
C3249 C3250 1.502 . S
C3249 C3251 1.561 . S
C3249 C3252 1.526 1_556 S
C3250 H3234 0.959 . S
C3250 H3235 0.959 . S
C3250 H3236 0.961 . S
C3250 C3249 1.502 . S
C3251 H3237 0.960 . S
C3251 H3238 0.961 . S
C3251 H3239 0.959 . S
C3251 C3249 1.561 . S
C3252 C3249 1.526 1_554 S
C3252 C3253 1.396 . S
C3252 C3257 1.390 . S
C3253 C3247 1.465 . S
C3253 C3252 1.396 . S
C3253 C3254 1.399 . S
C3254 H3240 0.929 . S
C3254 C3253 1.399 . S
C3254 C3255 1.385 . S
C3255 H3241 0.931 . S
C3255 C3254 1.385 . S
C3255 C3256 1.389 . S
C3256 C3255 1.389 . S
C3256 C3257 1.387 . S
C3257 H3242 0.930 1_554 S
C3257 C3252 1.390 . S
C3257 C3256 1.387 . S
H3258 C3270 0.930 . S
H3259 C3272 0.930 . S
H3260 C3273 0.930 . S
H3261 C3277 0.959 . S
H3262 C3277 0.959 . S
H3263 C3277 0.961 . S
H3264 C3278 0.960 . S
H3265 C3278 0.961 . S
H3266 C3278 0.959 . S
H3267 C3281 0.929 . S
H3268 C3282 0.931 . S
H3269 C3284 0.930 . S
C3270 H3258 0.930 . S
C3270 C3271 1.399 . S
C3270 C3275 1.399 . S
C3271 C3270 1.399 . S
C3271 C3272 1.376 . S
C3272 H3259 0.930 . S
C3272 C3271 1.376 . S
C3272 C3273 1.388 . S
C3273 H3260 0.930 . S
C3273 C3272 1.388 . S
C3273 C3274 1.390 . S
C3274 C3273 1.390 . S
C3274 C3275 1.394 . S
C3274 C3280 1.465 . S
C3275 C3270 1.399 . S
C3275 C3274 1.394 . S
C3275 C3276 1.516 . S
C3276 C3275 1.516 . S
C3276 C3277 1.502 . S
C3276 C3278 1.561 . S
C3276 C3279 1.526 . S
C3277 H3261 0.959 . S
C3277 H3262 0.959 . S
C3277 H3263 0.961 . S
C3277 C3276 1.502 . S
C3278 H3264 0.960 . S
C3278 H3265 0.961 . S
C3278 H3266 0.959 . S
C3278 C3276 1.561 . S
C3279 C3276 1.526 . S
C3279 C3280 1.396 . S
C3279 C3284 1.390 . S
C3280 C3274 1.465 . S
C3280 C3279 1.396 . S
C3280 C3281 1.399 . S
C3281 H3267 0.929 . S
C3281 C3280 1.399 . S
C3281 C3282 1.385 . S
C3282 H3268 0.931 . S
C3282 C3281 1.385 . S
C3282 C3283 1.389 . S
C3283 C3282 1.389 . S
C3283 C3284 1.387 . S
C3284 H3269 0.930 . S
C3284 C3279 1.390 . S
C3284 C3283 1.387 . S
H3285 C3297 0.930 . S
H3286 C3299 0.930 . S
H3287 C3300 0.930 . S
H3288 C3304 0.959 . S
H3289 C3304 0.959 . S
H3290 C3304 0.961 . S
H3291 C3305 0.960 . S
H3292 C3305 0.961 . S
H3293 C3305 0.959 . S
H3294 C3308 0.929 . S
H3295 C3309 0.931 . S
H3296 C3311 0.930 . S
C3297 H3285 0.930 . S
C3297 C3298 1.399 . S
C3297 C3302 1.399 . S
C3298 C3297 1.399 . S
C3298 C3299 1.376 . S
C3299 H3286 0.930 . S
C3299 C3298 1.376 . S
C3299 C3300 1.388 . S
C3300 H3287 0.930 . S
C3300 C3299 1.388 . S
C3300 C3301 1.390 . S
C3301 C3300 1.390 . S
C3301 C3302 1.394 . S
C3301 C3307 1.465 . S
C3302 C3297 1.399 . S
C3302 C3301 1.394 . S
C3302 C3303 1.516 . S
C3303 C3302 1.516 . S
C3303 C3304 1.502 . S
C3303 C3305 1.561 . S
C3303 C3306 1.526 . S
C3304 H3288 0.959 . S
C3304 H3289 0.959 . S
C3304 H3290 0.961 . S
C3304 C3303 1.502 . S
C3305 H3291 0.960 . S
C3305 H3292 0.961 . S
C3305 H3293 0.959 . S
C3305 C3303 1.561 . S
C3306 C3303 1.526 . S
C3306 C3307 1.396 . S
C3306 C3311 1.390 . S
C3307 C3301 1.465 . S
C3307 C3306 1.396 . S
C3307 C3308 1.399 . S
C3308 H3294 0.929 . S
C3308 C3307 1.399 . S
C3308 C3309 1.385 . S
C3309 H3295 0.931 . S
C3309 C3308 1.385 . S
C3309 C3310 1.389 . S
C3310 C3309 1.389 . S
C3310 C3311 1.387 . S
C3311 H3296 0.930 . S
C3311 C3306 1.390 . S
C3311 C3310 1.387 . S
H3312 C3324 0.930 . S
H3313 C3326 0.930 . S
H3314 C3327 0.930 . S
H3315 C3331 0.959 . S
H3316 C3331 0.959 . S
H3317 C3331 0.961 . S
H3318 C3332 0.960 . S
H3319 C3332 0.961 . S
H3320 C3332 0.959 . S
H3321 C3335 0.929 . S
H3322 C3336 0.931 . S
H3323 C3338 0.930 . S
C3324 H3312 0.930 . S
C3324 C3325 1.399 . S
C3324 C3329 1.399 . S
C3325 C3324 1.399 . S
C3325 C3326 1.376 . S
C3326 H3313 0.930 . S
C3326 C3325 1.376 . S
C3326 C3327 1.388 . S
C3327 H3314 0.930 . S
C3327 C3326 1.388 . S
C3327 C3328 1.390 . S
C3328 C3327 1.390 . S
C3328 C3329 1.394 . S
C3328 C3334 1.465 . S
C3329 C3324 1.399 . S
C3329 C3328 1.394 . S
C3329 C3330 1.516 . S
C3330 C3329 1.516 . S
C3330 C3331 1.502 . S
C3330 C3332 1.561 . S
C3330 C3333 1.526 . S
C3331 H3315 0.959 . S
C3331 H3316 0.959 . S
C3331 H3317 0.961 . S
C3331 C3330 1.502 . S
C3332 H3318 0.960 . S
C3332 H3319 0.961 . S
C3332 H3320 0.959 . S
C3332 C3330 1.561 . S
C3333 C3330 1.526 . S
C3333 C3334 1.396 . S
C3333 C3338 1.390 . S
C3334 C3328 1.465 . S
C3334 C3333 1.396 . S
C3334 C3335 1.399 . S
C3335 H3321 0.929 . S
C3335 C3334 1.399 . S
C3335 C3336 1.385 . S
C3336 H3322 0.931 . S
C3336 C3335 1.385 . S
C3336 C3337 1.389 . S
C3337 C3336 1.389 . S
C3337 C3338 1.387 . S
C3338 H3323 0.930 . S
C3338 C3333 1.390 . S
C3338 C3337 1.387 . S
H3339 C3351 0.930 . S
H3340 C3353 0.930 . S
H3341 C3354 0.930 . S
H3342 C3358 0.959 . S
H3343 C3358 0.959 . S
H3344 C3358 0.961 . S
H3345 C3359 0.960 . S
H3346 C3359 0.961 . S
H3347 C3359 0.959 . S
H3348 C3362 0.929 . S
H3349 C3363 0.931 . S
H3350 C3365 0.930 . S
C3351 H3339 0.930 . S
C3351 C3352 1.399 . S
C3351 C3356 1.399 . S
C3352 C3351 1.399 . S
C3352 C3353 1.376 . S
C3353 H3340 0.930 . S
C3353 C3352 1.376 . S
C3353 C3354 1.388 . S
C3354 H3341 0.930 . S
C3354 C3353 1.388 . S
C3354 C3355 1.390 . S
C3355 C3354 1.390 . S
C3355 C3356 1.394 . S
C3355 C3361 1.465 . S
C3356 C3351 1.399 . S
C3356 C3355 1.394 . S
C3356 C3357 1.516 . S
C3357 C3356 1.516 . S
C3357 C3358 1.502 . S
C3357 C3359 1.561 . S
C3357 C3360 1.526 . S
C3358 H3342 0.959 . S
C3358 H3343 0.959 . S
C3358 H3344 0.961 . S
C3358 C3357 1.502 . S
C3359 H3345 0.960 . S
C3359 H3346 0.961 . S
C3359 H3347 0.959 . S
C3359 C3357 1.561 . S
C3360 C3357 1.526 . S
C3360 C3361 1.396 . S
C3360 C3365 1.390 . S
C3361 C3355 1.465 . S
C3361 C3360 1.396 . S
C3361 C3362 1.399 . S
C3362 H3348 0.929 . S
C3362 C3361 1.399 . S
C3362 C3363 1.385 . S
C3363 H3349 0.931 . S
C3363 C3362 1.385 . S
C3363 C3364 1.389 . S
C3364 C3363 1.389 . S
C3364 C3365 1.387 . S
C3365 H3350 0.930 . S
C3365 C3360 1.390 . S
C3365 C3364 1.387 . S
H3366 C3378 0.930 . S
H3367 C3380 0.930 1_545 S
H3368 C3381 0.930 . S
H3369 C3385 0.959 . S
H3370 C3385 0.959 . S
H3371 C3385 0.961 . S
H3372 C3386 0.960 . S
H3373 C3386 0.961 . S
H3374 C3386 0.959 . S
H3375 C3389 0.929 . S
H3376 C3390 0.931 . S
H3377 C3392 0.930 . S
C3378 H3366 0.930 . S
C3378 C3379 1.399 . S
C3378 C3383 1.399 . S
C3379 C3378 1.399 . S
C3379 C3380 1.376 . S
C3380 H3367 0.930 1_565 S
C3380 C3379 1.376 . S
C3380 C3381 1.388 1_565 S
C3381 H3368 0.930 . S
C3381 C3380 1.388 1_545 S
C3381 C3382 1.390 1_545 S
C3382 C3381 1.390 1_565 S
C3382 C3383 1.394 . S
C3382 C3388 1.451 1_565 S
C3383 C3378 1.399 . S
C3383 C3382 1.394 . S
C3383 C3384 1.516 . S
C3384 C3383 1.516 . S
C3384 C3385 1.502 . S
C3384 C3386 1.561 . S
C3384 C3387 1.526 . S
C3385 H3369 0.959 . S
C3385 H3370 0.959 . S
C3385 H3371 0.961 . S
C3385 C3384 1.502 . S
C3386 H3372 0.960 . S
C3386 H3373 0.961 . S
C3386 H3374 0.959 . S
C3386 C3384 1.561 . S
C3387 C3384 1.526 . S
C3387 C3388 1.344 1_565 S
C3387 C3392 1.390 . S
C3388 C3382 1.451 1_545 S
C3388 C3387 1.344 1_545 S
C3388 C3389 1.455 . S
C3389 H3375 0.929 . S
C3389 C3388 1.455 . S
C3389 C3390 1.385 . S
C3390 H3376 0.931 . S
C3390 C3389 1.385 . S
C3390 C3391 1.389 . S
C3391 C3390 1.389 . S
C3391 C3392 1.387 1_545 S
C3392 H3377 0.930 . S
C3392 C3387 1.390 . S
C3392 C3391 1.387 1_565 S
H3393 C3405 0.930 . S
H3394 C3407 0.930 . S
H3395 C3408 0.930 . S
H3396 C3412 0.959 . S
H3397 C3412 0.959 . S
H3398 C3412 0.961 . S
H3399 C3413 0.960 . S
H3400 C3413 0.961 . S
H3401 C3413 0.959 . S
H3402 C3416 0.929 . S
H3403 C3417 0.931 . S
H3404 C3419 0.930 . S
C3405 H3393 0.930 . S
C3405 C3406 1.399 . S
C3405 C3410 1.399 . S
C3406 C3405 1.399 . S
C3406 C3407 1.376 . S
C3407 H3394 0.930 . S
C3407 C3406 1.376 . S
C3407 C3408 1.388 . S
C3408 H3395 0.930 . S
C3408 C3407 1.388 . S
C3408 C3409 1.390 . S
C3409 C3408 1.390 . S
C3409 C3410 1.394 . S
C3409 C3415 1.465 . S
C3410 C3405 1.399 . S
C3410 C3409 1.394 . S
C3410 C3411 1.516 . S
C3411 C3410 1.516 . S
C3411 C3412 1.502 . S
C3411 C3413 1.561 . S
C3411 C3414 1.526 . S
C3412 H3396 0.959 . S
C3412 H3397 0.959 . S
C3412 H3398 0.961 . S
C3412 C3411 1.502 . S
C3413 H3399 0.960 . S
C3413 H3400 0.961 . S
C3413 H3401 0.959 . S
C3413 C3411 1.561 . S
C3414 C3411 1.526 . S
C3414 C3415 1.396 . S
C3414 C3419 1.390 . S
C3415 C3409 1.465 . S
C3415 C3414 1.396 . S
C3415 C3416 1.399 . S
C3416 H3402 0.929 . S
C3416 C3415 1.399 . S
C3416 C3417 1.385 . S
C3417 H3403 0.931 . S
C3417 C3416 1.385 . S
C3417 C3418 1.389 . S
C3418 C3417 1.389 . S
C3418 C3419 1.387 . S
C3419 H3404 0.930 . S
C3419 C3414 1.390 . S
C3419 C3418 1.387 . S
H3420 C3432 0.930 . S
H3421 C3434 0.930 . S
H3422 C3435 0.930 . S
H3423 C3439 0.959 . S
H3424 C3439 0.959 . S
H3425 C3439 0.961 . S
H3426 C3440 0.960 . S
H3427 C3440 0.961 . S
H3428 C3440 0.959 . S
H3429 C3443 0.929 . S
H3430 C3444 0.931 . S
H3431 C3446 0.930 . S
C3432 H3420 0.930 . S
C3432 C3433 1.399 . S
C3432 C3437 1.399 . S
C3433 C3432 1.399 . S
C3433 C3434 1.376 . S
C3434 H3421 0.930 . S
C3434 C3433 1.376 . S
C3434 C3435 1.388 . S
C3435 H3422 0.930 . S
C3435 C3434 1.388 . S
C3435 C3436 1.390 . S
C3436 C3435 1.390 . S
C3436 C3437 1.394 . S
C3436 C3442 1.465 . S
C3437 C3432 1.399 . S
C3437 C3436 1.394 . S
C3437 C3438 1.516 . S
C3438 C3437 1.516 . S
C3438 C3439 1.502 . S
C3438 C3440 1.561 . S
C3438 C3441 1.526 . S
C3439 H3423 0.959 . S
C3439 H3424 0.959 . S
C3439 H3425 0.961 . S
C3439 C3438 1.502 . S
C3440 H3426 0.960 . S
C3440 H3427 0.961 . S
C3440 H3428 0.959 . S
C3440 C3438 1.561 . S
C3441 C3438 1.526 . S
C3441 C3442 1.396 . S
C3441 C3446 1.390 . S
C3442 C3436 1.465 . S
C3442 C3441 1.396 . S
C3442 C3443 1.399 . S
C3443 H3429 0.929 . S
C3443 C3442 1.399 . S
C3443 C3444 1.385 . S
C3444 H3430 0.931 . S
C3444 C3443 1.385 . S
C3444 C3445 1.389 . S
C3445 C3444 1.389 . S
C3445 C3446 1.387 . S
C3446 H3431 0.930 . S
C3446 C3441 1.390 . S
C3446 C3445 1.387 . S
H3447 C3459 0.930 . S
H3448 C3461 0.930 . S
H3449 C3462 0.930 . S
H3450 C3466 0.959 . S
H3451 C3466 0.959 . S
H3452 C3466 0.961 . S
H3453 C3467 0.960 . S
H3454 C3467 0.961 . S
H3455 C3467 0.959 . S
H3456 C3470 0.929 . S
H3457 C3471 0.931 . S
H3458 C3473 0.930 . S
C3459 H3447 0.930 . S
C3459 C3460 1.399 . S
C3459 C3464 1.399 . S
C3460 C3459 1.399 . S
C3460 C3461 1.376 . S
C3461 H3448 0.930 . S
C3461 C3460 1.376 . S
C3461 C3462 1.388 . S
C3462 H3449 0.930 . S
C3462 C3461 1.388 . S
C3462 C3463 1.390 . S
C3463 C3462 1.390 . S
C3463 C3464 1.394 . S
C3463 C3469 1.465 . S
C3464 C3459 1.399 . S
C3464 C3463 1.394 . S
C3464 C3465 1.516 . S
C3465 C3464 1.516 . S
C3465 C3466 1.502 . S
C3465 C3467 1.561 . S
C3465 C3468 1.526 . S
C3466 H3450 0.959 . S
C3466 H3451 0.959 . S
C3466 H3452 0.961 . S
C3466 C3465 1.502 . S
C3467 H3453 0.960 . S
C3467 H3454 0.961 . S
C3467 H3455 0.959 . S
C3467 C3465 1.561 . S
C3468 C3465 1.526 . S
C3468 C3469 1.396 . S
C3468 C3473 1.390 . S
C3469 C3463 1.465 . S
C3469 C3468 1.396 . S
C3469 C3470 1.399 . S
C3470 H3456 0.929 . S
C3470 C3469 1.399 . S
C3470 C3471 1.385 . S
C3471 H3457 0.931 . S
C3471 C3470 1.385 . S
C3471 C3472 1.389 . S
C3472 C3471 1.389 . S
C3472 C3473 1.387 . S
C3473 H3458 0.930 . S
C3473 C3468 1.390 . S
C3473 C3472 1.387 . S
H3474 C3486 0.930 . S
H3475 C3488 0.930 . S
H3476 C3489 0.930 . S
H3477 C3493 0.959 . S
H3478 C3493 0.959 . S
H3479 C3493 0.961 . S
H3480 C3494 0.960 . S
H3481 C3494 0.961 . S
H3482 C3494 0.959 . S
H3483 C3497 0.929 . S
H3484 C3498 0.931 1_565 S
H3485 C3500 0.930 . S
C3486 H3474 0.930 . S
C3486 C3487 1.399 1_545 S
C3486 C3491 1.399 . S
C3487 C3486 1.399 1_565 S
C3487 C3488 1.376 . S
C3488 H3475 0.930 . S
C3488 C3487 1.376 . S
C3488 C3489 1.388 . S
C3489 H3476 0.930 . S
C3489 C3488 1.388 . S
C3489 C3490 1.390 1_565 S
C3490 C3489 1.390 1_545 S
C3490 C3491 1.394 . S
C3490 C3496 1.465 . S
C3491 C3486 1.399 . S
C3491 C3490 1.394 . S
C3491 C3492 1.516 . S
C3492 C3491 1.516 . S
C3492 C3493 1.502 . S
C3492 C3494 1.561 . S
C3492 C3495 1.526 . S
C3493 H3477 0.959 . S
C3493 H3478 0.959 . S
C3493 H3479 0.961 . S
C3493 C3492 1.502 . S
C3494 H3480 0.960 . S
C3494 H3481 0.961 . S
C3494 H3482 0.959 . S
C3494 C3492 1.561 . S
C3495 C3492 1.526 . S
C3495 C3496 1.396 . S
C3495 C3500 1.390 . S
C3496 C3490 1.465 . S
C3496 C3495 1.396 . S
C3496 C3497 1.399 1_545 S
C3497 H3483 0.929 . S
C3497 C3496 1.399 1_565 S
C3497 C3498 1.385 1_565 S
C3498 H3484 0.931 1_545 S
C3498 C3497 1.385 1_545 S
C3498 C3499 1.389 . S
C3499 C3498 1.389 . S
C3499 C3500 1.387 . S
C3500 H3485 0.930 . S
C3500 C3495 1.390 . S
C3500 C3499 1.387 . S
H3501 C3513 0.930 . S
H3502 C3515 0.930 1_655 S
H3503 C3516 0.930 1_545 S
H3504 C3520 0.959 . S
H3505 C3520 0.959 . S
H3506 C3520 0.961 . S
H3507 C3521 0.960 . S
H3508 C3521 0.961 . S
H3509 C3521 0.959 . S
H3510 C3524 0.929 . S
H3511 C3525 0.931 . S
H3512 C3527 0.930 . S
C3513 H3501 0.930 . S
C3513 C3514 1.399 1_455 S
C3513 C3518 1.399 . S
C3514 C3513 1.399 1_655 S
C3514 C3515 1.376 1_655 S
C3515 H3502 0.930 1_455 S
C3515 C3514 1.376 1_455 S
C3515 C3516 1.388 . S
C3516 H3503 0.930 1_565 S
C3516 C3515 1.388 . S
C3516 C3517 1.390 . S
C3517 C3516 1.390 . S
C3517 C3518 1.394 . S
C3517 C3523 1.465 . S
C3518 C3513 1.399 . S
C3518 C3517 1.394 . S
C3518 C3519 1.516 . S
C3519 C3518 1.516 . S
C3519 C3520 1.502 . S
C3519 C3521 1.561 . S
C3519 C3522 1.526 . S
C3520 H3504 0.959 . S
C3520 H3505 0.959 . S
C3520 H3506 0.961 . S
C3520 C3519 1.502 . S
C3521 H3507 0.960 . S
C3521 H3508 0.961 . S
C3521 H3509 0.959 . S
C3521 C3519 1.561 . S
C3522 C3519 1.526 . S
C3522 C3523 1.396 . S
C3522 C3527 1.390 . S
C3523 C3517 1.465 . S
C3523 C3522 1.396 . S
C3523 C3524 1.399 1_565 S
C3524 H3510 0.929 . S
C3524 C3523 1.399 1_545 S
C3524 C3525 1.385 . S
C3525 H3511 0.931 . S
C3525 C3524 1.385 . S
C3525 C3526 1.389 . S
C3526 C3525 1.389 . S
C3526 C3527 1.387 1_545 S
C3527 H3512 0.930 . S
C3527 C3522 1.390 . S
C3527 C3526 1.387 1_565 S
H3528 C3540 0.930 . S
H3529 C3542 0.930 . S
H3530 C3543 0.930 . S
H3531 C3547 0.959 . S
H3532 C3547 0.959 . S
H3533 C3547 0.961 . S
H3534 C3548 0.960 . S
H3535 C3548 0.961 . S
H3536 C3548 0.959 . S
H3537 C3551 0.929 . S
H3538 C3552 0.931 . S
H3539 C3554 0.930 . S
C3540 H3528 0.930 . S
C3540 C3541 1.399 . S
C3540 C3545 1.399 . S
C3541 C3540 1.399 . S
C3541 C3542 1.376 . S
C3542 H3529 0.930 . S
C3542 C3541 1.376 . S
C3542 C3543 1.388 . S
C3543 H3530 0.930 . S
C3543 C3542 1.388 . S
C3543 C3544 1.390 . S
C3544 C3543 1.390 . S
C3544 C3545 1.394 . S
C3544 C3550 1.465 . S
C3545 C3540 1.399 . S
C3545 C3544 1.394 . S
C3545 C3546 1.516 . S
C3546 C3545 1.516 . S
C3546 C3547 1.502 . S
C3546 C3548 1.561 . S
C3546 C3549 1.526 . S
C3547 H3531 0.959 . S
C3547 H3532 0.959 . S
C3547 H3533 0.961 . S
C3547 C3546 1.502 . S
C3548 H3534 0.960 . S
C3548 H3535 0.961 . S
C3548 H3536 0.959 . S
C3548 C3546 1.561 . S
C3549 C3546 1.526 . S
C3549 C3550 1.396 . S
C3549 C3554 1.390 . S
C3550 C3544 1.465 . S
C3550 C3549 1.396 . S
C3550 C3551 1.399 . S
C3551 H3537 0.929 . S
C3551 C3550 1.399 . S
C3551 C3552 1.385 . S
C3552 H3538 0.931 . S
C3552 C3551 1.385 . S
C3552 C3553 1.389 . S
C3553 C3552 1.389 . S
C3553 C3554 1.387 . S
C3554 H3539 0.930 . S
C3554 C3549 1.390 . S
C3554 C3553 1.387 . S
H3555 C3567 0.930 . S
H3556 C3569 0.930 . S
H3557 C3570 0.930 . S
H3558 C3574 0.959 . S
H3559 C3574 0.959 . S
H3560 C3574 0.961 . S
H3561 C3575 0.960 . S
H3562 C3575 0.961 . S
H3563 C3575 0.959 . S
H3564 C3578 0.929 . S
H3565 C3579 0.931 . S
H3566 C3581 0.930 . S
C3567 H3555 0.930 . S
C3567 C3568 1.399 . S
C3567 C3572 1.399 . S
C3568 C3567 1.399 . S
C3568 C3569 1.376 . S
C3569 H3556 0.930 . S
C3569 C3568 1.376 . S
C3569 C3570 1.388 . S
C3570 H3557 0.930 . S
C3570 C3569 1.388 . S
C3570 C3571 1.390 . S
C3571 C3570 1.390 . S
C3571 C3572 1.394 . S
C3571 C3577 1.465 . S
C3572 C3567 1.399 . S
C3572 C3571 1.394 . S
C3572 C3573 1.516 . S
C3573 C3572 1.516 . S
C3573 C3574 1.502 . S
C3573 C3575 1.561 . S
C3573 C3576 1.526 . S
C3574 H3558 0.959 . S
C3574 H3559 0.959 . S
C3574 H3560 0.961 . S
C3574 C3573 1.502 . S
C3575 H3561 0.960 . S
C3575 H3562 0.961 . S
C3575 H3563 0.959 . S
C3575 C3573 1.561 . S
C3576 C3573 1.526 . S
C3576 C3577 1.396 . S
C3576 C3581 1.390 . S
C3577 C3571 1.465 . S
C3577 C3576 1.396 . S
C3577 C3578 1.399 . S
C3578 H3564 0.929 . S
C3578 C3577 1.399 . S
C3578 C3579 1.385 . S
C3579 H3565 0.931 . S
C3579 C3578 1.385 . S
C3579 C3580 1.389 . S
C3580 C3579 1.389 . S
C3580 C3581 1.387 . S
C3581 H3566 0.930 . S
C3581 C3576 1.390 . S
C3581 C3580 1.387 . S
H3582 C3594 0.930 . S
H3583 C3596 0.930 . S
H3584 C3597 0.930 . S
H3585 C3601 0.959 . S
H3586 C3601 0.959 . S
H3587 C3601 0.961 . S
H3588 C3602 0.960 . S
H3589 C3602 0.961 . S
H3590 C3602 0.959 . S
H3591 C3605 0.929 . S
H3592 C3606 0.931 . S
H3593 C3608 0.930 . S
C3594 H3582 0.930 . S
C3594 C3595 1.399 . S
C3594 C3599 1.399 . S
C3595 C3594 1.399 . S
C3595 C3596 1.376 . S
C3596 H3583 0.930 . S
C3596 C3595 1.376 . S
C3596 C3597 1.388 . S
C3597 H3584 0.930 . S
C3597 C3596 1.388 . S
C3597 C3598 1.390 . S
C3598 C3597 1.390 . S
C3598 C3599 1.394 . S
C3598 C3604 1.465 . S
C3599 C3594 1.399 . S
C3599 C3598 1.394 . S
C3599 C3600 1.516 . S
C3600 C3599 1.516 . S
C3600 C3601 1.502 . S
C3600 C3602 1.561 . S
C3600 C3603 1.526 . S
C3601 H3585 0.959 . S
C3601 H3586 0.959 . S
C3601 H3587 0.961 . S
C3601 C3600 1.502 . S
C3602 H3588 0.960 . S
C3602 H3589 0.961 . S
C3602 H3590 0.959 . S
C3602 C3600 1.561 . S
C3603 C3600 1.526 . S
C3603 C3604 1.396 . S
C3603 C3608 1.390 . S
C3604 C3598 1.465 . S
C3604 C3603 1.396 . S
C3604 C3605 1.399 . S
C3605 H3591 0.929 . S
C3605 C3604 1.399 . S
C3605 C3606 1.385 . S
C3606 H3592 0.931 . S
C3606 C3605 1.385 . S
C3606 C3607 1.389 . S
C3607 C3606 1.389 . S
C3607 C3608 1.387 . S
C3608 H3593 0.930 . S
C3608 C3603 1.390 . S
C3608 C3607 1.387 . S
H3609 C3621 0.930 . S
H3610 C3623 0.930 . S
H3611 C3624 0.930 . S
H3612 C3628 0.959 . S
H3613 C3628 0.959 . S
H3614 C3628 0.961 . S
H3615 C3629 0.960 . S
H3616 C3629 0.961 . S
H3617 C3629 0.959 . S
H3618 C3632 0.929 . S
H3619 C3633 0.931 . S
H3620 C3635 0.930 . S
C3621 H3609 0.930 . S
C3621 C3622 1.399 . S
C3621 C3626 1.399 . S
C3622 C3621 1.399 . S
C3622 C3623 1.376 . S
C3623 H3610 0.930 . S
C3623 C3622 1.376 . S
C3623 C3624 1.388 . S
C3624 H3611 0.930 . S
C3624 C3623 1.388 . S
C3624 C3625 1.390 . S
C3625 C3624 1.390 . S
C3625 C3626 1.394 . S
C3625 C3631 1.465 . S
C3626 C3621 1.399 . S
C3626 C3625 1.394 . S
C3626 C3627 1.516 . S
C3627 C3626 1.516 . S
C3627 C3628 1.502 . S
C3627 C3629 1.561 . S
C3627 C3630 1.526 . S
C3628 H3612 0.959 . S
C3628 H3613 0.959 . S
C3628 H3614 0.961 . S
C3628 C3627 1.502 . S
C3629 H3615 0.960 . S
C3629 H3616 0.961 . S
C3629 H3617 0.959 . S
C3629 C3627 1.561 . S
C3630 C3627 1.526 . S
C3630 C3631 1.396 . S
C3630 C3635 1.390 . S
C3631 C3625 1.465 . S
C3631 C3630 1.396 . S
C3631 C3632 1.399 . S
C3632 H3618 0.929 . S
C3632 C3631 1.399 . S
C3632 C3633 1.385 . S
C3633 H3619 0.931 . S
C3633 C3632 1.385 . S
C3633 C3634 1.389 . S
C3634 C3633 1.389 . S
C3634 C3635 1.387 . S
C3635 H3620 0.930 . S
C3635 C3630 1.390 . S
C3635 C3634 1.387 . S
H3636 C3648 0.930 . S
H3637 C3650 0.930 . S
H3638 C3651 0.930 . S
H3639 C3655 0.959 . S
H3640 C3655 0.959 . S
H3641 C3655 0.961 . S
H3642 C3656 0.960 . S
H3643 C3656 0.961 . S
H3644 C3656 0.959 . S
H3645 C3659 0.929 . S
H3646 C3660 0.931 . S
H3647 C3662 0.930 . S
C3648 H3636 0.930 . S
C3648 C3649 1.399 . S
C3648 C3653 1.399 . S
C3649 C3648 1.399 . S
C3649 C3650 1.376 . S
C3650 H3637 0.930 . S
C3650 C3649 1.376 . S
C3650 C3651 1.388 . S
C3651 H3638 0.930 . S
C3651 C3650 1.388 . S
C3651 C3652 1.390 . S
C3652 C3651 1.390 . S
C3652 C3653 1.394 . S
C3652 C3658 1.465 . S
C3653 C3648 1.399 . S
C3653 C3652 1.394 . S
C3653 C3654 1.516 . S
C3654 C3653 1.516 . S
C3654 C3655 1.502 . S
C3654 C3656 1.561 . S
C3654 C3657 1.526 . S
C3655 H3639 0.959 . S
C3655 H3640 0.959 . S
C3655 H3641 0.961 . S
C3655 C3654 1.502 . S
C3656 H3642 0.960 . S
C3656 H3643 0.961 . S
C3656 H3644 0.959 . S
C3656 C3654 1.561 . S
C3657 C3654 1.526 . S
C3657 C3658 1.396 . S
C3657 C3662 1.390 . S
C3658 C3652 1.465 . S
C3658 C3657 1.396 . S
C3658 C3659 1.399 . S
C3659 H3645 0.929 . S
C3659 C3658 1.399 . S
C3659 C3660 1.385 . S
C3660 H3646 0.931 . S
C3660 C3659 1.385 . S
C3660 C3661 1.389 . S
C3661 C3660 1.389 . S
C3661 C3662 1.387 . S
C3662 H3647 0.930 . S
C3662 C3657 1.390 . S
C3662 C3661 1.387 . S
H3663 C3675 0.930 . S
H3664 C3677 0.930 . S
H3665 C3678 0.930 . S
H3666 C3682 0.959 . S
H3667 C3682 0.959 . S
H3668 C3682 0.961 . S
H3669 C3683 0.960 . S
H3670 C3683 0.961 . S
H3671 C3683 0.959 . S
H3672 C3686 0.929 . S
H3673 C3687 0.931 . S
H3674 C3689 0.930 . S
C3675 H3663 0.930 . S
C3675 C3676 1.399 . S
C3675 C3680 1.399 . S
C3676 C3675 1.399 . S
C3676 C3677 1.376 . S
C3677 H3664 0.930 . S
C3677 C3676 1.376 . S
C3677 C3678 1.388 . S
C3678 H3665 0.930 . S
C3678 C3677 1.388 . S
C3678 C3679 1.390 . S
C3679 C3678 1.390 . S
C3679 C3680 1.394 . S
C3679 C3685 1.465 . S
C3680 C3675 1.399 . S
C3680 C3679 1.394 . S
C3680 C3681 1.516 . S
C3681 C3680 1.516 . S
C3681 C3682 1.502 . S
C3681 C3683 1.561 . S
C3681 C3684 1.526 . S
C3682 H3666 0.959 . S
C3682 H3667 0.959 . S
C3682 H3668 0.961 . S
C3682 C3681 1.502 . S
C3683 H3669 0.960 . S
C3683 H3670 0.961 . S
C3683 H3671 0.959 . S
C3683 C3681 1.561 . S
C3684 C3681 1.526 . S
C3684 C3685 1.396 . S
C3684 C3689 1.390 . S
C3685 C3679 1.465 . S
C3685 C3684 1.396 . S
C3685 C3686 1.399 . S
C3686 H3672 0.929 . S
C3686 C3685 1.399 . S
C3686 C3687 1.385 . S
C3687 H3673 0.931 . S
C3687 C3686 1.385 . S
C3687 C3688 1.389 . S
C3688 C3687 1.389 . S
C3688 C3689 1.387 . S
C3689 H3674 0.930 . S
C3689 C3684 1.390 . S
C3689 C3688 1.387 . S
H3690 C3702 0.930 . S
H3691 C3704 0.930 . S
H3692 C3705 0.930 . S
H3693 C3709 0.959 . S
H3694 C3709 0.959 . S
H3695 C3709 0.961 . S
H3696 C3710 0.960 . S
H3697 C3710 0.961 . S
H3698 C3710 0.959 . S
H3699 C3713 0.929 . S
H3700 C3714 0.931 . S
H3701 C3716 0.930 . S
C3702 H3690 0.930 . S
C3702 C3703 1.399 . S
C3702 C3707 1.399 . S
C3703 C3702 1.399 . S
C3703 C3704 1.376 . S
C3704 H3691 0.930 . S
C3704 C3703 1.376 . S
C3704 C3705 1.388 . S
C3705 H3692 0.930 . S
C3705 C3704 1.388 . S
C3705 C3706 1.390 . S
C3706 C3705 1.390 . S
C3706 C3707 1.394 . S
C3706 C3712 1.465 . S
C3707 C3702 1.399 . S
C3707 C3706 1.394 . S
C3707 C3708 1.516 . S
C3708 C3707 1.516 . S
C3708 C3709 1.502 . S
C3708 C3710 1.561 . S
C3708 C3711 1.526 . S
C3709 H3693 0.959 . S
C3709 H3694 0.959 . S
C3709 H3695 0.961 . S
C3709 C3708 1.502 . S
C3710 H3696 0.960 . S
C3710 H3697 0.961 . S
C3710 H3698 0.959 . S
C3710 C3708 1.561 . S
C3711 C3708 1.526 . S
C3711 C3712 1.396 . S
C3711 C3716 1.390 . S
C3712 C3706 1.465 . S
C3712 C3711 1.396 . S
C3712 C3713 1.399 . S
C3713 H3699 0.929 . S
C3713 C3712 1.399 . S
C3713 C3714 1.385 . S
C3714 H3700 0.931 . S
C3714 C3713 1.385 . S
C3714 C3715 1.389 . S
C3715 C3714 1.389 . S
C3715 C3716 1.387 . S
C3716 H3701 0.930 . S
C3716 C3711 1.390 . S
C3716 C3715 1.387 . S
H3717 C3729 0.930 . S
H3718 C3731 0.930 . S
H3719 C3732 0.930 . S
H3720 C3736 0.959 . S
H3721 C3736 0.959 . S
H3722 C3736 0.961 . S
H3723 C3737 0.960 . S
H3724 C3737 0.961 . S
H3725 C3737 0.959 . S
H3726 C3740 0.929 . S
H3727 C3741 0.931 . S
H3728 C3743 0.930 . S
C3729 H3717 0.930 . S
C3729 C3730 1.399 . S
C3729 C3734 1.399 . S
C3730 C3729 1.399 . S
C3730 C3731 1.376 . S
C3731 H3718 0.930 . S
C3731 C3730 1.376 . S
C3731 C3732 1.388 . S
C3732 H3719 0.930 . S
C3732 C3731 1.388 . S
C3732 C3733 1.390 . S
C3733 C3732 1.390 . S
C3733 C3734 1.394 . S
C3733 C3739 1.465 . S
C3734 C3729 1.399 . S
C3734 C3733 1.394 . S
C3734 C3735 1.516 . S
C3735 C3734 1.516 . S
C3735 C3736 1.502 . S
C3735 C3737 1.561 . S
C3735 C3738 1.526 . S
C3736 H3720 0.959 . S
C3736 H3721 0.959 . S
C3736 H3722 0.961 . S
C3736 C3735 1.502 . S
C3737 H3723 0.960 . S
C3737 H3724 0.961 . S
C3737 H3725 0.959 . S
C3737 C3735 1.561 . S
C3738 C3735 1.526 . S
C3738 C3739 1.396 . S
C3738 C3743 1.390 . S
C3739 C3733 1.465 . S
C3739 C3738 1.396 . S
C3739 C3740 1.399 . S
C3740 H3726 0.929 . S
C3740 C3739 1.399 . S
C3740 C3741 1.385 . S
C3741 H3727 0.931 . S
C3741 C3740 1.385 . S
C3741 C3742 1.389 . S
C3742 C3741 1.389 . S
C3742 C3743 1.387 . S
C3743 H3728 0.930 . S
C3743 C3738 1.390 . S
C3743 C3742 1.387 . S
H3744 C3756 0.930 . S
H3745 C3758 0.930 . S
H3746 C3759 0.930 . S
H3747 C3763 0.959 . S
H3748 C3763 0.959 . S
H3749 C3763 0.961 . S
H3750 C3764 0.960 . S
H3751 C3764 0.961 . S
H3752 C3764 0.959 . S
H3753 C3767 0.929 . S
H3754 C3768 0.931 . S
H3755 C3770 0.930 . S
C3756 H3744 0.930 . S
C3756 C3757 1.399 . S
C3756 C3761 1.399 . S
C3757 C3756 1.399 . S
C3757 C3758 1.376 . S
C3758 H3745 0.930 . S
C3758 C3757 1.376 . S
C3758 C3759 1.388 . S
C3759 H3746 0.930 . S
C3759 C3758 1.388 . S
C3759 C3760 1.390 . S
C3760 C3759 1.390 . S
C3760 C3761 1.394 . S
C3760 C3766 1.465 . S
C3761 C3756 1.399 . S
C3761 C3760 1.394 . S
C3761 C3762 1.516 . S
C3762 C3761 1.516 . S
C3762 C3763 1.502 . S
C3762 C3764 1.561 . S
C3762 C3765 1.526 . S
C3763 H3747 0.959 . S
C3763 H3748 0.959 . S
C3763 H3749 0.961 . S
C3763 C3762 1.502 . S
C3764 H3750 0.960 . S
C3764 H3751 0.961 . S
C3764 H3752 0.959 . S
C3764 C3762 1.561 . S
C3765 C3762 1.526 . S
C3765 C3766 1.396 . S
C3765 C3770 1.390 . S
C3766 C3760 1.465 . S
C3766 C3765 1.396 . S
C3766 C3767 1.399 . S
C3767 H3753 0.929 . S
C3767 C3766 1.399 . S
C3767 C3768 1.385 . S
C3768 H3754 0.931 . S
C3768 C3767 1.385 . S
C3768 C3769 1.389 . S
C3769 C3768 1.389 . S
C3769 C3770 1.387 . S
C3770 H3755 0.930 . S
C3770 C3765 1.390 . S
C3770 C3769 1.387 . S
H3771 C3783 0.930 . S
H3772 C3785 0.930 . S
H3773 C3786 0.930 . S
H3774 C3790 0.959 . S
H3775 C3790 0.959 . S
H3776 C3790 0.961 . S
H3777 C3791 0.960 . S
H3778 C3791 0.961 . S
H3779 C3791 0.959 . S
H3780 C3794 0.929 . S
H3781 C3795 0.931 . S
H3782 C3797 0.930 . S
C3783 H3771 0.930 . S
C3783 C3784 1.399 . S
C3783 C3788 1.399 . S
C3784 C3783 1.399 . S
C3784 C3785 1.376 . S
C3785 H3772 0.930 . S
C3785 C3784 1.376 . S
C3785 C3786 1.388 . S
C3786 H3773 0.930 . S
C3786 C3785 1.388 . S
C3786 C3787 1.390 . S
C3787 C3786 1.390 . S
C3787 C3788 1.394 . S
C3787 C3793 1.465 . S
C3788 C3783 1.399 . S
C3788 C3787 1.394 . S
C3788 C3789 1.516 . S
C3789 C3788 1.516 . S
C3789 C3790 1.502 . S
C3789 C3791 1.561 . S
C3789 C3792 1.526 . S
C3790 H3774 0.959 . S
C3790 H3775 0.959 . S
C3790 H3776 0.961 . S
C3790 C3789 1.502 . S
C3791 H3777 0.960 . S
C3791 H3778 0.961 . S
C3791 H3779 0.959 . S
C3791 C3789 1.561 . S
C3792 C3789 1.526 . S
C3792 C3793 1.396 . S
C3792 C3797 1.390 . S
C3793 C3787 1.465 . S
C3793 C3792 1.396 . S
C3793 C3794 1.399 . S
C3794 H3780 0.929 . S
C3794 C3793 1.399 . S
C3794 C3795 1.385 . S
C3795 H3781 0.931 . S
C3795 C3794 1.385 . S
C3795 C3796 1.389 . S
C3796 C3795 1.389 . S
C3796 C3797 1.387 . S
C3797 H3782 0.930 . S
C3797 C3792 1.390 . S
C3797 C3796 1.387 . S
H3798 C3810 0.930 . S
H3799 C3812 0.930 . S
H3800 C3813 0.930 . S
H3801 C3817 0.959 . S
H3802 C3817 0.959 . S
H3803 C3817 0.961 . S
H3804 C3818 0.960 . S
H3805 C3818 0.961 . S
H3806 C3818 0.959 . S
H3807 C3821 0.929 . S
H3808 C3822 0.931 . S
H3809 C3824 0.930 . S
C3810 H3798 0.930 . S
C3810 C3811 1.399 . S
C3810 C3815 1.399 . S
C3811 C3810 1.399 . S
C3811 C3812 1.376 . S
C3812 H3799 0.930 . S
C3812 C3811 1.376 . S
C3812 C3813 1.388 . S
C3813 H3800 0.930 . S
C3813 C3812 1.388 . S
C3813 C3814 1.390 . S
C3814 C3813 1.390 . S
C3814 C3815 1.394 . S
C3814 C3820 1.465 . S
C3815 C3810 1.399 . S
C3815 C3814 1.394 . S
C3815 C3816 1.516 . S
C3816 C3815 1.516 . S
C3816 C3817 1.502 . S
C3816 C3818 1.561 . S
C3816 C3819 1.526 . S
C3817 H3801 0.959 . S
C3817 H3802 0.959 . S
C3817 H3803 0.961 . S
C3817 C3816 1.502 . S
C3818 H3804 0.960 . S
C3818 H3805 0.961 . S
C3818 H3806 0.959 . S
C3818 C3816 1.561 . S
C3819 C3816 1.526 . S
C3819 C3820 1.396 . S
C3819 C3824 1.390 . S
C3820 C3814 1.465 . S
C3820 C3819 1.396 . S
C3820 C3821 1.399 . S
C3821 H3807 0.929 . S
C3821 C3820 1.399 . S
C3821 C3822 1.385 . S
C3822 H3808 0.931 . S
C3822 C3821 1.385 . S
C3822 C3823 1.389 . S
C3823 C3822 1.389 . S
C3823 C3824 1.387 . S
C3824 H3809 0.930 . S
C3824 C3819 1.390 . S
C3824 C3823 1.387 . S
H3825 C3837 0.930 . S
H3826 C3839 0.930 . S
H3827 C3840 0.930 . S
H3828 C3844 0.959 . S
H3829 C3844 0.959 . S
H3830 C3844 0.961 . S
H3831 C3845 0.960 . S
H3832 C3845 0.961 . S
H3833 C3845 0.959 . S
H3834 C3848 0.929 . S
H3835 C3849 0.931 . S
H3836 C3851 0.930 . S
C3837 H3825 0.930 . S
C3837 C3838 1.399 . S
C3837 C3842 1.399 . S
C3838 C3837 1.399 . S
C3838 C3839 1.376 . S
C3839 H3826 0.930 . S
C3839 C3838 1.376 . S
C3839 C3840 1.388 . S
C3840 H3827 0.930 . S
C3840 C3839 1.388 . S
C3840 C3841 1.390 . S
C3841 C3840 1.390 . S
C3841 C3842 1.394 . S
C3841 C3847 1.465 . S
C3842 C3837 1.399 . S
C3842 C3841 1.394 . S
C3842 C3843 1.516 . S
C3843 C3842 1.516 . S
C3843 C3844 1.502 . S
C3843 C3845 1.561 . S
C3843 C3846 1.526 . S
C3844 H3828 0.959 . S
C3844 H3829 0.959 . S
C3844 H3830 0.961 . S
C3844 C3843 1.502 . S
C3845 H3831 0.960 . S
C3845 H3832 0.961 . S
C3845 H3833 0.959 . S
C3845 C3843 1.561 . S
C3846 C3843 1.526 . S
C3846 C3847 1.396 . S
C3846 C3851 1.390 . S
C3847 C3841 1.465 . S
C3847 C3846 1.396 . S
C3847 C3848 1.399 . S
C3848 H3834 0.929 . S
C3848 C3847 1.399 . S
C3848 C3849 1.385 . S
C3849 H3835 0.931 . S
C3849 C3848 1.385 . S
C3849 C3850 1.389 . S
C3850 C3849 1.389 . S
C3850 C3851 1.387 . S
C3851 H3836 0.930 . S
C3851 C3846 1.390 . S
C3851 C3850 1.387 . S
H3852 C3864 0.930 . S
H3853 C3866 0.930 . S
H3854 C3867 0.930 . S
H3855 C3871 0.959 . S
H3856 C3871 0.959 . S
H3857 C3871 0.961 . S
H3858 C3872 0.960 . S
H3859 C3872 0.961 . S
H3860 C3872 0.959 . S
H3861 C3875 0.929 . S
H3862 C3876 0.931 . S
H3863 C3878 0.930 . S
C3864 H3852 0.930 . S
C3864 C3865 1.399 . S
C3864 C3869 1.399 . S
C3865 C3864 1.399 . S
C3865 C3866 1.376 . S
C3866 H3853 0.930 . S
C3866 C3865 1.376 . S
C3866 C3867 1.388 . S
C3867 H3854 0.930 . S
C3867 C3866 1.388 . S
C3867 C3868 1.390 . S
C3868 C3867 1.390 . S
C3868 C3869 1.394 . S
C3868 C3874 1.465 . S
C3869 C3864 1.399 . S
C3869 C3868 1.394 . S
C3869 C3870 1.516 . S
C3870 C3869 1.516 . S
C3870 C3871 1.502 . S
C3870 C3872 1.561 . S
C3870 C3873 1.526 . S
C3871 H3855 0.959 . S
C3871 H3856 0.959 . S
C3871 H3857 0.961 . S
C3871 C3870 1.502 . S
C3872 H3858 0.960 . S
C3872 H3859 0.961 . S
C3872 H3860 0.959 . S
C3872 C3870 1.561 . S
C3873 C3870 1.526 . S
C3873 C3874 1.396 . S
C3873 C3878 1.390 . S
C3874 C3868 1.465 . S
C3874 C3873 1.396 . S
C3874 C3875 1.399 . S
C3875 H3861 0.929 . S
C3875 C3874 1.399 . S
C3875 C3876 1.385 . S
C3876 H3862 0.931 . S
C3876 C3875 1.385 . S
C3876 C3877 1.389 . S
C3877 C3876 1.389 . S
C3877 C3878 1.387 . S
C3878 H3863 0.930 . S
C3878 C3873 1.390 . S
C3878 C3877 1.387 . S
H3879 C3891 0.930 . S
H3880 C3893 0.930 . S
H3881 C3894 0.930 . S
H3882 C3898 0.959 . S
H3883 C3898 0.959 . S
H3884 C3898 0.961 . S
H3885 C3899 0.960 . S
H3886 C3899 0.961 . S
H3887 C3899 0.959 . S
H3888 C3902 0.929 . S
H3889 C3903 0.931 . S
H3890 C3905 0.930 . S
C3891 H3879 0.930 . S
C3891 C3892 1.399 . S
C3891 C3896 1.399 . S
C3892 C3891 1.399 . S
C3892 C3893 1.376 . S
C3893 H3880 0.930 . S
C3893 C3892 1.376 . S
C3893 C3894 1.388 . S
C3894 H3881 0.930 . S
C3894 C3893 1.388 . S
C3894 C3895 1.390 . S
C3895 C3894 1.390 . S
C3895 C3896 1.394 . S
C3895 C3901 1.465 . S
C3896 C3891 1.399 . S
C3896 C3895 1.394 . S
C3896 C3897 1.516 . S
C3897 C3896 1.516 . S
C3897 C3898 1.502 . S
C3897 C3899 1.561 . S
C3897 C3900 1.526 . S
C3898 H3882 0.959 . S
C3898 H3883 0.959 . S
C3898 H3884 0.961 . S
C3898 C3897 1.502 . S
C3899 H3885 0.960 . S
C3899 H3886 0.961 . S
C3899 H3887 0.959 . S
C3899 C3897 1.561 . S
C3900 C3897 1.526 . S
C3900 C3901 1.396 . S
C3900 C3905 1.390 . S
C3901 C3895 1.465 . S
C3901 C3900 1.396 . S
C3901 C3902 1.399 . S
C3902 H3888 0.929 . S
C3902 C3901 1.399 . S
C3902 C3903 1.385 . S
C3903 H3889 0.931 . S
C3903 C3902 1.385 . S
C3903 C3904 1.389 . S
C3904 C3903 1.389 . S
C3904 C3905 1.387 . S
C3905 H3890 0.930 . S
C3905 C3900 1.390 . S
C3905 C3904 1.387 . S
H3906 C3918 0.930 . S
H3907 C3920 0.930 . S
H3908 C3921 0.930 . S
H3909 C3925 0.959 . S
H3910 C3925 0.959 . S
H3911 C3925 0.961 . S
H3912 C3926 0.960 . S
H3913 C3926 0.961 . S
H3914 C3926 0.959 . S
H3915 C3929 0.929 . S
H3916 C3930 0.931 . S
H3917 C3932 0.930 . S
C3918 H3906 0.930 . S
C3918 C3919 1.399 . S
C3918 C3923 1.399 . S
C3919 C3918 1.399 . S
C3919 C3920 1.376 . S
C3920 H3907 0.930 . S
C3920 C3919 1.376 . S
C3920 C3921 1.388 . S
C3921 H3908 0.930 . S
C3921 C3920 1.388 . S
C3921 C3922 1.390 . S
C3922 C3921 1.390 . S
C3922 C3923 1.394 . S
C3922 C3928 1.465 . S
C3923 C3918 1.399 . S
C3923 C3922 1.394 . S
C3923 C3924 1.516 . S
C3924 C3923 1.516 . S
C3924 C3925 1.502 . S
C3924 C3926 1.561 . S
C3924 C3927 1.526 . S
C3925 H3909 0.959 . S
C3925 H3910 0.959 . S
C3925 H3911 0.961 . S
C3925 C3924 1.502 . S
C3926 H3912 0.960 . S
C3926 H3913 0.961 . S
C3926 H3914 0.959 . S
C3926 C3924 1.561 . S
C3927 C3924 1.526 . S
C3927 C3928 1.396 . S
C3927 C3932 1.390 . S
C3928 C3922 1.465 . S
C3928 C3927 1.396 . S
C3928 C3929 1.399 . S
C3929 H3915 0.929 . S
C3929 C3928 1.399 . S
C3929 C3930 1.385 . S
C3930 H3916 0.931 . S
C3930 C3929 1.385 . S
C3930 C3931 1.389 . S
C3931 C3930 1.389 . S
C3931 C3932 1.387 . S
C3932 H3917 0.930 . S
C3932 C3927 1.390 . S
C3932 C3931 1.387 . S
H3933 C3945 0.930 . S
H3934 C3947 0.930 . S
H3935 C3948 0.930 . S
H3936 C3952 0.959 . S
H3937 C3952 0.959 . S
H3938 C3952 0.961 . S
H3939 C3953 0.960 . S
H3940 C3953 0.961 . S
H3941 C3953 0.959 . S
H3942 C3956 0.929 . S
H3943 C3957 0.931 . S
H3944 C3959 0.930 . S
C3945 H3933 0.930 . S
C3945 C3946 1.399 . S
C3945 C3950 1.399 . S
C3946 C3945 1.399 . S
C3946 C3947 1.376 . S
C3947 H3934 0.930 . S
C3947 C3946 1.376 . S
C3947 C3948 1.388 . S
C3948 H3935 0.930 . S
C3948 C3947 1.388 . S
C3948 C3949 1.390 . S
C3949 C3948 1.390 . S
C3949 C3950 1.394 . S
C3949 C3955 1.465 . S
C3950 C3945 1.399 . S
C3950 C3949 1.394 . S
C3950 C3951 1.516 . S
C3951 C3950 1.516 . S
C3951 C3952 1.502 . S
C3951 C3953 1.561 . S
C3951 C3954 1.526 . S
C3952 H3936 0.959 . S
C3952 H3937 0.959 . S
C3952 H3938 0.961 . S
C3952 C3951 1.502 . S
C3953 H3939 0.960 . S
C3953 H3940 0.961 . S
C3953 H3941 0.959 . S
C3953 C3951 1.561 . S
C3954 C3951 1.526 . S
C3954 C3955 1.396 . S
C3954 C3959 1.390 . S
C3955 C3949 1.465 . S
C3955 C3954 1.396 . S
C3955 C3956 1.399 . S
C3956 H3942 0.929 . S
C3956 C3955 1.399 . S
C3956 C3957 1.385 . S
C3957 H3943 0.931 . S
C3957 C3956 1.385 . S
C3957 C3958 1.389 . S
C3958 C3957 1.389 . S
C3958 C3959 1.387 . S
C3959 H3944 0.930 . S
C3959 C3954 1.390 . S
C3959 C3958 1.387 . S
H3960 C3972 0.930 . S
H3961 C3974 0.930 . S
H3962 C3975 0.930 . S
H3963 C3979 0.959 . S
H3964 C3979 0.959 . S
H3965 C3979 0.961 . S
H3966 C3980 0.960 . S
H3967 C3980 0.961 . S
H3968 C3980 0.959 . S
H3969 C3983 0.929 . S
H3970 C3984 0.931 . S
H3971 C3986 0.930 . S
C3972 H3960 0.930 . S
C3972 C3973 1.399 . S
C3972 C3977 1.399 . S
C3973 C3972 1.399 . S
C3973 C3974 1.376 . S
C3974 H3961 0.930 . S
C3974 C3973 1.376 . S
C3974 C3975 1.388 . S
C3975 H3962 0.930 . S
C3975 C3974 1.388 . S
C3975 C3976 1.390 . S
C3976 C3975 1.390 . S
C3976 C3977 1.394 . S
C3976 C3982 1.465 . S
C3977 C3972 1.399 . S
C3977 C3976 1.394 . S
C3977 C3978 1.516 . S
C3978 C3977 1.516 . S
C3978 C3979 1.502 . S
C3978 C3980 1.561 . S
C3978 C3981 1.526 . S
C3979 H3963 0.959 . S
C3979 H3964 0.959 . S
C3979 H3965 0.961 . S
C3979 C3978 1.502 . S
C3980 H3966 0.960 . S
C3980 H3967 0.961 . S
C3980 H3968 0.959 . S
C3980 C3978 1.561 . S
C3981 C3978 1.526 . S
C3981 C3982 1.396 . S
C3981 C3986 1.390 . S
C3982 C3976 1.465 . S
C3982 C3981 1.396 . S
C3982 C3983 1.399 . S
C3983 H3969 0.929 . S
C3983 C3982 1.399 . S
C3983 C3984 1.385 . S
C3984 H3970 0.931 . S
C3984 C3983 1.385 . S
C3984 C3985 1.389 . S
C3985 C3984 1.389 . S
C3985 C3986 1.387 . S
C3986 H3971 0.930 . S
C3986 C3981 1.390 . S
C3986 C3985 1.387 . S
H3987 C3999 0.930 . S
H3988 C4001 0.930 . S
H3989 C4002 0.930 . S
H3990 C4006 0.959 . S
H3991 C4006 0.959 . S
H3992 C4006 0.961 . S
H3993 C4007 0.960 . S
H3994 C4007 0.961 . S
H3995 C4007 0.959 . S
H3996 C4010 0.929 . S
H3997 C4011 0.931 . S
H3998 C4013 0.930 . S
C3999 H3987 0.930 . S
C3999 C4000 1.399 . S
C3999 C4004 1.399 . S
C4000 C3999 1.399 . S
C4000 C4001 1.376 . S
C4001 H3988 0.930 . S
C4001 C4000 1.376 . S
C4001 C4002 1.388 . S
C4002 H3989 0.930 . S
C4002 C4001 1.388 . S
C4002 C4003 1.390 . S
C4003 C4002 1.390 . S
C4003 C4004 1.394 . S
C4003 C4009 1.465 . S
C4004 C3999 1.399 . S
C4004 C4003 1.394 . S
C4004 C4005 1.516 . S
C4005 C4004 1.516 . S
C4005 C4006 1.502 . S
C4005 C4007 1.561 . S
C4005 C4008 1.526 . S
C4006 H3990 0.959 . S
C4006 H3991 0.959 . S
C4006 H3992 0.961 . S
C4006 C4005 1.502 . S
C4007 H3993 0.960 . S
C4007 H3994 0.961 . S
C4007 H3995 0.959 . S
C4007 C4005 1.561 . S
C4008 C4005 1.526 . S
C4008 C4009 1.396 . S
C4008 C4013 1.390 . S
C4009 C4003 1.465 . S
C4009 C4008 1.396 . S
C4009 C4010 1.399 . S
C4010 H3996 0.929 . S
C4010 C4009 1.399 . S
C4010 C4011 1.385 . S
C4011 H3997 0.931 . S
C4011 C4010 1.385 . S
C4011 C4012 1.389 . S
C4012 C4011 1.389 . S
C4012 C4013 1.387 . S
C4013 H3998 0.930 . S
C4013 C4008 1.390 . S
C4013 C4012 1.387 . S
H4014 C4026 0.930 . S
H4015 C4028 0.930 . S
H4016 C4029 0.930 . S
H4017 C4033 0.959 . S
H4018 C4033 0.959 . S
H4019 C4033 0.961 . S
H4020 C4034 0.960 . S
H4021 C4034 0.961 . S
H4022 C4034 0.959 . S
H4023 C4037 0.929 . S
H4024 C4038 0.931 . S
H4025 C4040 0.930 . S
C4026 H4014 0.930 . S
C4026 C4027 1.399 . S
C4026 C4031 1.399 . S
C4027 C4026 1.399 . S
C4027 C4028 1.376 . S
C4028 H4015 0.930 . S
C4028 C4027 1.376 . S
C4028 C4029 1.388 . S
C4029 H4016 0.930 . S
C4029 C4028 1.388 . S
C4029 C4030 1.390 . S
C4030 C4029 1.390 . S
C4030 C4031 1.394 . S
C4030 C4036 1.465 . S
C4031 C4026 1.399 . S
C4031 C4030 1.394 . S
C4031 C4032 1.516 . S
C4032 C4031 1.516 . S
C4032 C4033 1.502 . S
C4032 C4034 1.561 . S
C4032 C4035 1.526 . S
C4033 H4017 0.959 . S
C4033 H4018 0.959 . S
C4033 H4019 0.961 . S
C4033 C4032 1.502 . S
C4034 H4020 0.960 . S
C4034 H4021 0.961 . S
C4034 H4022 0.959 . S
C4034 C4032 1.561 . S
C4035 C4032 1.526 . S
C4035 C4036 1.396 . S
C4035 C4040 1.390 . S
C4036 C4030 1.465 . S
C4036 C4035 1.396 . S
C4036 C4037 1.399 . S
C4037 H4023 0.929 . S
C4037 C4036 1.399 . S
C4037 C4038 1.385 . S
C4038 H4024 0.931 . S
C4038 C4037 1.385 . S
C4038 C4039 1.389 . S
C4039 C4038 1.389 . S
C4039 C4040 1.387 . S
C4040 H4025 0.930 . S
C4040 C4035 1.390 . S
C4040 C4039 1.387 . S
H4041 C4053 0.930 . S
H4042 C4055 0.930 . S
H4043 C4056 0.930 . S
H4044 C4060 0.959 . S
H4045 C4060 0.959 . S
H4046 C4060 0.961 . S
H4047 C4061 0.960 . S
H4048 C4061 0.961 . S
H4049 C4061 0.959 . S
H4050 C4064 0.929 . S
H4051 C4065 0.931 . S
H4052 C4067 0.930 . S
C4053 H4041 0.930 . S
C4053 C4054 1.399 . S
C4053 C4058 1.399 . S
C4054 C4053 1.399 . S
C4054 C4055 1.376 . S
C4055 H4042 0.930 . S
C4055 C4054 1.376 . S
C4055 C4056 1.388 . S
C4056 H4043 0.930 . S
C4056 C4055 1.388 . S
C4056 C4057 1.390 . S
C4057 C4056 1.390 . S
C4057 C4058 1.394 . S
C4057 C4063 1.465 . S
C4058 C4053 1.399 . S
C4058 C4057 1.394 . S
C4058 C4059 1.516 . S
C4059 C4058 1.516 . S
C4059 C4060 1.502 . S
C4059 C4061 1.561 . S
C4059 C4062 1.526 . S
C4060 H4044 0.959 . S
C4060 H4045 0.959 . S
C4060 H4046 0.961 . S
C4060 C4059 1.502 . S
C4061 H4047 0.960 . S
C4061 H4048 0.961 . S
C4061 H4049 0.959 . S
C4061 C4059 1.561 . S
C4062 C4059 1.526 . S
C4062 C4063 1.396 . S
C4062 C4067 1.390 . S
C4063 C4057 1.465 . S
C4063 C4062 1.396 . S
C4063 C4064 1.399 . S
C4064 H4050 0.929 . S
C4064 C4063 1.399 . S
C4064 C4065 1.385 . S
C4065 H4051 0.931 . S
C4065 C4064 1.385 . S
C4065 C4066 1.389 . S
C4066 C4065 1.389 . S
C4066 C4067 1.387 . S
C4067 H4052 0.930 . S
C4067 C4062 1.390 . S
C4067 C4066 1.387 . S
H4068 C4080 0.930 . S
H4069 C4082 0.930 . S
H4070 C4083 0.930 . S
H4071 C4087 0.959 . S
H4072 C4087 0.959 . S
H4073 C4087 0.961 . S
H4074 C4088 0.960 . S
H4075 C4088 0.961 . S
H4076 C4088 0.959 . S
H4077 C4091 0.929 . S
H4078 C4092 0.931 . S
H4079 C4094 0.930 . S
C4080 H4068 0.930 . S
C4080 C4081 1.399 . S
C4080 C4085 1.399 . S
C4081 C4080 1.399 . S
C4081 C4082 1.376 . S
C4082 H4069 0.930 . S
C4082 C4081 1.376 . S
C4082 C4083 1.388 . S
C4083 H4070 0.930 . S
C4083 C4082 1.388 . S
C4083 C4084 1.390 . S
C4084 C4083 1.390 . S
C4084 C4085 1.394 . S
C4084 C4090 1.465 . S
C4085 C4080 1.399 . S
C4085 C4084 1.394 . S
C4085 C4086 1.516 . S
C4086 C4085 1.516 . S
C4086 C4087 1.502 . S
C4086 C4088 1.561 . S
C4086 C4089 1.526 . S
C4087 H4071 0.959 . S
C4087 H4072 0.959 . S
C4087 H4073 0.961 . S
C4087 C4086 1.502 . S
C4088 H4074 0.960 . S
C4088 H4075 0.961 . S
C4088 H4076 0.959 . S
C4088 C4086 1.561 . S
C4089 C4086 1.526 . S
C4089 C4090 1.396 . S
C4089 C4094 1.390 . S
C4090 C4084 1.465 . S
C4090 C4089 1.396 . S
C4090 C4091 1.399 . S
C4091 H4077 0.929 . S
C4091 C4090 1.399 . S
C4091 C4092 1.385 . S
C4092 H4078 0.931 . S
C4092 C4091 1.385 . S
C4092 C4093 1.389 . S
C4093 C4092 1.389 . S
C4093 C4094 1.387 . S
C4094 H4079 0.930 . S
C4094 C4089 1.390 . S
C4094 C4093 1.387 . S
H4095 C4107 0.930 . S
H4096 C4109 0.930 . S
H4097 C4110 0.930 . S
H4098 C4114 0.959 . S
H4099 C4114 0.959 . S
H4100 C4114 0.961 . S
H4101 C4115 0.960 . S
H4102 C4115 0.961 . S
H4103 C4115 0.959 . S
H4104 C4118 0.929 . S
H4105 C4119 0.931 . S
H4106 C4121 0.930 . S
C4107 H4095 0.930 . S
C4107 C4108 1.399 . S
C4107 C4112 1.399 . S
C4108 C4107 1.399 . S
C4108 C4109 1.376 . S
C4109 H4096 0.930 . S
C4109 C4108 1.376 . S
C4109 C4110 1.388 . S
C4110 H4097 0.930 . S
C4110 C4109 1.388 . S
C4110 C4111 1.390 . S
C4111 C4110 1.390 . S
C4111 C4112 1.394 . S
C4111 C4117 1.465 . S
C4112 C4107 1.399 . S
C4112 C4111 1.394 . S
C4112 C4113 1.516 . S
C4113 C4112 1.516 . S
C4113 C4114 1.502 . S
C4113 C4115 1.561 . S
C4113 C4116 1.526 . S
C4114 H4098 0.959 . S
C4114 H4099 0.959 . S
C4114 H4100 0.961 . S
C4114 C4113 1.502 . S
C4115 H4101 0.960 . S
C4115 H4102 0.961 . S
C4115 H4103 0.959 . S
C4115 C4113 1.561 . S
C4116 C4113 1.526 . S
C4116 C4117 1.396 . S
C4116 C4121 1.390 . S
C4117 C4111 1.465 . S
C4117 C4116 1.396 . S
C4117 C4118 1.399 . S
C4118 H4104 0.929 . S
C4118 C4117 1.399 . S
C4118 C4119 1.385 . S
C4119 H4105 0.931 . S
C4119 C4118 1.385 . S
C4119 C4120 1.389 . S
C4120 C4119 1.389 . S
C4120 C4121 1.387 . S
C4121 H4106 0.930 . S
C4121 C4116 1.390 . S
C4121 C4120 1.387 . S
H4122 C4134 0.930 . S
H4123 C4136 0.930 . S
H4124 C4137 0.930 . S
H4125 C4141 0.959 . S
H4126 C4141 0.959 . S
H4127 C4141 0.961 . S
H4128 C4142 0.960 . S
H4129 C4142 0.961 . S
H4130 C4142 0.959 . S
H4131 C4145 0.929 . S
H4132 C4146 0.931 . S
H4133 C4148 0.930 . S
C4134 H4122 0.930 . S
C4134 C4135 1.399 . S
C4134 C4139 1.399 . S
C4135 C4134 1.399 . S
C4135 C4136 1.376 . S
C4136 H4123 0.930 . S
C4136 C4135 1.376 . S
C4136 C4137 1.388 . S
C4137 H4124 0.930 . S
C4137 C4136 1.388 . S
C4137 C4138 1.390 . S
C4138 C4137 1.390 . S
C4138 C4139 1.394 . S
C4138 C4144 1.465 . S
C4139 C4134 1.399 . S
C4139 C4138 1.394 . S
C4139 C4140 1.516 . S
C4140 C4139 1.516 . S
C4140 C4141 1.502 . S
C4140 C4142 1.561 . S
C4140 C4143 1.526 . S
C4141 H4125 0.959 . S
C4141 H4126 0.959 . S
C4141 H4127 0.961 . S
C4141 C4140 1.502 . S
C4142 H4128 0.960 . S
C4142 H4129 0.961 . S
C4142 H4130 0.959 . S
C4142 C4140 1.561 . S
C4143 C4140 1.526 . S
C4143 C4144 1.396 . S
C4143 C4148 1.390 . S
C4144 C4138 1.465 . S
C4144 C4143 1.396 . S
C4144 C4145 1.399 . S
C4145 H4131 0.929 . S
C4145 C4144 1.399 . S
C4145 C4146 1.385 . S
C4146 H4132 0.931 . S
C4146 C4145 1.385 . S
C4146 C4147 1.389 . S
C4147 C4146 1.389 . S
C4147 C4148 1.387 . S
C4148 H4133 0.930 . S
C4148 C4143 1.390 . S
C4148 C4147 1.387 . S
H4149 C4161 0.930 . S
H4150 C4163 0.930 . S
H4151 C4164 0.930 . S
H4152 C4168 0.959 . S
H4153 C4168 0.959 . S
H4154 C4168 0.961 . S
H4155 C4169 0.960 . S
H4156 C4169 0.961 . S
H4157 C4169 0.959 . S
H4158 C4172 0.929 . S
H4159 C4173 0.931 . S
H4160 C4175 0.930 . S
C4161 H4149 0.930 . S
C4161 C4162 1.399 . S
C4161 C4166 1.399 . S
C4162 C4161 1.399 . S
C4162 C4163 1.376 . S
C4163 H4150 0.930 . S
C4163 C4162 1.376 . S
C4163 C4164 1.388 . S
C4164 H4151 0.930 . S
C4164 C4163 1.388 . S
C4164 C4165 1.390 . S
C4165 C4164 1.390 . S
C4165 C4166 1.394 . S
C4165 C4171 1.465 . S
C4166 C4161 1.399 . S
C4166 C4165 1.394 . S
C4166 C4167 1.516 . S
C4167 C4166 1.516 . S
C4167 C4168 1.502 . S
C4167 C4169 1.561 . S
C4167 C4170 1.526 . S
C4168 H4152 0.959 . S
C4168 H4153 0.959 . S
C4168 H4154 0.961 . S
C4168 C4167 1.502 . S
C4169 H4155 0.960 . S
C4169 H4156 0.961 . S
C4169 H4157 0.959 . S
C4169 C4167 1.561 . S
C4170 C4167 1.526 . S
C4170 C4171 1.396 . S
C4170 C4175 1.390 . S
C4171 C4165 1.465 . S
C4171 C4170 1.396 . S
C4171 C4172 1.399 . S
C4172 H4158 0.929 . S
C4172 C4171 1.399 . S
C4172 C4173 1.385 . S
C4173 H4159 0.931 . S
C4173 C4172 1.385 . S
C4173 C4174 1.389 . S
C4174 C4173 1.389 . S
C4174 C4175 1.387 . S
C4175 H4160 0.930 . S
C4175 C4170 1.390 . S
C4175 C4174 1.387 . S
H4176 C4188 0.930 . S
H4177 C4190 0.930 . S
H4178 C4191 0.930 . S
H4179 C4195 0.969 . S
H4180 C4195 0.969 . S
H4181 C4195 0.946 1_655 S
H4182 C4196 0.960 . S
H4183 C4196 0.961 . S
H4184 C4196 0.959 . S
H4185 C4199 0.929 . S
H4186 C4200 0.931 . S
H4187 C4202 0.930 . S
C4188 H4176 0.930 . S
C4188 C4189 1.399 . S
C4188 C4193 1.399 . S
C4189 C4188 1.399 . S
C4189 C4190 1.376 . S
C4190 H4177 0.930 . S
C4190 C4189 1.376 . S
C4190 C4191 1.388 . S
C4191 H4178 0.930 . S
C4191 C4190 1.388 . S
C4191 C4192 1.390 . S
C4192 C4191 1.390 . S
C4192 C4193 1.394 . S
C4192 C4198 1.465 1_655 S
C4193 C4188 1.399 . S
C4193 C4192 1.394 . S
C4193 C4194 1.516 . S
C4194 C4193 1.516 . S
C4194 C4195 1.498 1_655 S
C4194 C4196 1.561 . S
C4194 C4197 1.526 1_655 S
C4195 H4179 0.969 . S
C4195 H4180 0.969 . S
C4195 H4181 0.946 1_455 S
C4195 C4194 1.498 1_455 S
C4196 H4182 0.960 . S
C4196 H4183 0.961 . S
C4196 H4184 0.959 . S
C4196 C4194 1.561 . S
C4197 C4194 1.526 1_455 S
C4197 C4198 1.396 . S
C4197 C4202 1.390 . S
C4198 C4192 1.465 1_455 S
C4198 C4197 1.396 . S
C4198 C4199 1.399 . S
C4199 H4185 0.929 . S
C4199 C4198 1.399 . S
C4199 C4200 1.385 . S
C4200 H4186 0.931 . S
C4200 C4199 1.385 . S
C4200 C4201 1.389 . S
C4201 C4200 1.389 . S
C4201 C4202 1.387 . S
C4202 H4187 0.930 . S
C4202 C4197 1.390 . S
C4202 C4201 1.387 . S
H4203 C4215 0.930 . S
H4204 C4217 0.930 . S
H4205 C4218 0.930 1_655 S
H4206 C4222 0.959 1_655 S
H4207 C4222 0.959 . S
H4208 C4222 0.961 . S
H4209 C4223 0.960 . S
H4210 C4223 0.961 . S
H4211 C4223 0.959 . S
H4212 C4226 0.929 . S
H4213 C4227 0.931 . S
H4214 C4229 0.930 . S
C4215 H4203 0.930 . S
C4215 C4216 1.399 . S
C4215 C4220 1.399 . S
C4216 C4215 1.399 . S
C4216 C4217 1.376 . S
C4217 H4204 0.930 . S
C4217 C4216 1.376 . S
C4217 C4218 1.388 . S
C4218 H4205 0.930 1_455 S
C4218 C4217 1.388 . S
C4218 C4219 1.390 . S
C4219 C4218 1.390 . S
C4219 C4220 1.394 . S
C4219 C4225 1.465 1_455 S
C4220 C4215 1.399 . S
C4220 C4219 1.394 . S
C4220 C4221 1.516 . S
C4221 C4220 1.516 . S
C4221 C4222 1.502 . S
C4221 C4223 1.561 . S
C4221 C4224 1.526 1_455 S
C4222 H4206 0.959 1_455 S
C4222 H4207 0.959 . S
C4222 H4208 0.961 . S
C4222 C4221 1.502 . S
C4223 H4209 0.960 . S
C4223 H4210 0.961 . S
C4223 H4211 0.959 . S
C4223 C4221 1.561 . S
C4224 C4221 1.526 1_655 S
C4224 C4225 1.396 . S
C4224 C4229 1.390 . S
C4225 C4219 1.465 1_655 S
C4225 C4224 1.396 . S
C4225 C4226 1.399 . S
C4226 H4212 0.929 . S
C4226 C4225 1.399 . S
C4226 C4227 1.385 . S
C4227 H4213 0.931 . S
C4227 C4226 1.385 . S
C4227 C4228 1.389 . S
C4228 C4227 1.389 . S
C4228 C4229 1.387 . S
C4229 H4214 0.930 . S
C4229 C4224 1.390 . S
C4229 C4228 1.387 . S
H4230 C4242 0.930 . S
H4231 C4244 0.930 . S
H4232 C4245 0.930 . S
H4233 C4249 0.959 . S
H4234 C4249 0.959 . S
H4235 C4249 0.961 . S
H4236 C4250 0.960 . S
H4237 C4250 0.961 . S
H4238 C4250 0.959 . S
H4239 C4253 0.929 . S
H4240 C4254 0.931 . S
H4241 C4256 0.930 . S
C4242 H4230 0.930 . S
C4242 C4243 1.399 . S
C4242 C4247 1.399 . S
C4243 C4242 1.399 . S
C4243 C4244 1.376 . S
C4244 H4231 0.930 . S
C4244 C4243 1.376 . S
C4244 C4245 1.388 . S
C4245 H4232 0.930 . S
C4245 C4244 1.388 . S
C4245 C4246 1.390 . S
C4246 C4245 1.390 . S
C4246 C4247 1.394 . S
C4246 C4252 1.465 . S
C4247 C4242 1.399 . S
C4247 C4246 1.394 . S
C4247 C4248 1.516 . S
C4248 C4247 1.516 . S
C4248 C4249 1.502 . S
C4248 C4250 1.561 . S
C4248 C4251 1.526 . S
C4249 H4233 0.959 . S
C4249 H4234 0.959 . S
C4249 H4235 0.961 . S
C4249 C4248 1.502 . S
C4250 H4236 0.960 . S
C4250 H4237 0.961 . S
C4250 H4238 0.959 . S
C4250 C4248 1.561 . S
C4251 C4248 1.526 . S
C4251 C4252 1.396 . S
C4251 C4256 1.390 . S
C4252 C4246 1.465 . S
C4252 C4251 1.396 . S
C4252 C4253 1.399 . S
C4253 H4239 0.929 . S
C4253 C4252 1.399 . S
C4253 C4254 1.385 . S
C4254 H4240 0.931 . S
C4254 C4253 1.385 . S
C4254 C4255 1.389 . S
C4255 C4254 1.389 . S
C4255 C4256 1.387 . S
C4256 H4241 0.930 . S
C4256 C4251 1.390 . S
C4256 C4255 1.387 . S
H4257 C4269 0.930 . S
H4258 C4271 0.930 . S
H4259 C4272 0.930 . S
H4260 C4276 0.959 . S
H4261 C4276 0.959 . S
H4262 C4276 0.961 . S
H4263 C4277 0.960 . S
H4264 C4277 0.961 . S
H4265 C4277 0.959 . S
H4266 C4280 0.929 . S
H4267 C4281 0.931 . S
H4268 C4283 0.930 . S
C4269 H4257 0.930 . S
C4269 C4270 1.399 . S
C4269 C4274 1.399 . S
C4270 C4269 1.399 . S
C4270 C4271 1.376 . S
C4271 H4258 0.930 . S
C4271 C4270 1.376 . S
C4271 C4272 1.388 . S
C4272 H4259 0.930 . S
C4272 C4271 1.388 . S
C4272 C4273 1.390 . S
C4273 C4272 1.390 . S
C4273 C4274 1.394 . S
C4273 C4279 1.465 . S
C4274 C4269 1.399 . S
C4274 C4273 1.394 . S
C4274 C4275 1.516 . S
C4275 C4274 1.516 . S
C4275 C4276 1.502 . S
C4275 C4277 1.561 . S
C4275 C4278 1.526 . S
C4276 H4260 0.959 . S
C4276 H4261 0.959 . S
C4276 H4262 0.961 . S
C4276 C4275 1.502 . S
C4277 H4263 0.960 . S
C4277 H4264 0.961 . S
C4277 H4265 0.959 . S
C4277 C4275 1.561 . S
C4278 C4275 1.526 . S
C4278 C4279 1.396 . S
C4278 C4283 1.390 . S
C4279 C4273 1.465 . S
C4279 C4278 1.396 . S
C4279 C4280 1.399 . S
C4280 H4266 0.929 . S
C4280 C4279 1.399 . S
C4280 C4281 1.385 . S
C4281 H4267 0.931 . S
C4281 C4280 1.385 . S
C4281 C4282 1.389 . S
C4282 C4281 1.389 . S
C4282 C4283 1.387 . S
C4283 H4268 0.930 . S
C4283 C4278 1.390 . S
C4283 C4282 1.387 . S
H4284 C4296 0.930 . S
H4285 C4298 0.930 . S
H4286 C4299 0.930 . S
H4287 C4303 0.959 . S
H4288 C4303 0.959 . S
H4289 C4303 0.961 . S
H4290 C4304 0.960 1_655 S
H4291 C4304 0.961 . S
H4292 C4304 0.959 1_655 S
H4293 C4307 0.929 . S
H4294 C4308 0.931 . S
H4295 C4310 0.930 . S
C4296 H4284 0.930 . S
C4296 C4297 1.399 . S
C4296 C4301 1.399 . S
C4297 C4296 1.399 . S
C4297 C4298 1.376 . S
C4298 H4285 0.930 . S
C4298 C4297 1.376 . S
C4298 C4299 1.388 . S
C4299 H4286 0.930 . S
C4299 C4298 1.388 . S
C4299 C4300 1.390 . S
C4300 C4299 1.390 . S
C4300 C4301 1.394 . S
C4300 C4306 1.465 1_655 S
C4301 C4296 1.399 . S
C4301 C4300 1.394 . S
C4301 C4302 1.516 1_655 S
C4302 C4301 1.516 1_455 S
C4302 C4303 1.502 . S
C4302 C4304 1.561 . S
C4302 C4305 1.526 . S
C4303 H4287 0.959 . S
C4303 H4288 0.959 . S
C4303 H4289 0.961 . S
C4303 C4302 1.502 . S
C4304 H4290 0.960 1_455 S
C4304 H4291 0.961 . S
C4304 H4292 0.959 1_455 S
C4304 C4302 1.561 . S
C4305 C4302 1.526 . S
C4305 C4306 1.396 . S
C4305 C4310 1.390 . S
C4306 C4300 1.465 1_455 S
C4306 C4305 1.396 . S
C4306 C4307 1.399 . S
C4307 H4293 0.929 . S
C4307 C4306 1.399 . S
C4307 C4308 1.385 . S
C4308 H4294 0.931 . S
C4308 C4307 1.385 . S
C4308 C4309 1.389 . S
C4309 C4308 1.389 . S
C4309 C4310 1.387 . S
C4310 H4295 0.930 . S
C4310 C4305 1.390 . S
C4310 C4309 1.387 . S
H4311 C4323 0.930 . S
H4312 C4325 0.930 . S
H4313 C4326 0.930 . S
H4314 C4330 0.959 . S
H4315 C4330 0.959 . S
H4316 C4330 0.961 . S
H4317 C4331 0.960 . S
H4318 C4331 0.961 . S
H4319 C4331 0.959 . S
H4320 C4334 0.929 . S
H4321 C4335 0.931 . S
H4322 C4337 0.930 . S
C4323 H4311 0.930 . S
C4323 C4324 1.399 . S
C4323 C4328 1.399 . S
C4324 C4323 1.399 . S
C4324 C4325 1.376 . S
C4325 H4312 0.930 . S
C4325 C4324 1.376 . S
C4325 C4326 1.388 . S
C4326 H4313 0.930 . S
C4326 C4325 1.388 . S
C4326 C4327 1.390 . S
C4327 C4326 1.390 . S
C4327 C4328 1.394 . S
C4327 C4333 1.465 . S
C4328 C4323 1.399 . S
C4328 C4327 1.394 . S
C4328 C4329 1.516 . S
C4329 C4328 1.516 . S
C4329 C4330 1.502 . S
C4329 C4331 1.561 . S
C4329 C4332 1.526 . S
C4330 H4314 0.959 . S
C4330 H4315 0.959 . S
C4330 H4316 0.961 . S
C4330 C4329 1.502 . S
C4331 H4317 0.960 . S
C4331 H4318 0.961 . S
C4331 H4319 0.959 . S
C4331 C4329 1.561 . S
C4332 C4329 1.526 . S
C4332 C4333 1.396 . S
C4332 C4337 1.390 . S
C4333 C4327 1.465 . S
C4333 C4332 1.396 . S
C4333 C4334 1.399 . S
C4334 H4320 0.929 . S
C4334 C4333 1.399 . S
C4334 C4335 1.385 . S
C4335 H4321 0.931 . S
C4335 C4334 1.385 . S
C4335 C4336 1.389 . S
C4336 C4335 1.389 . S
C4336 C4337 1.387 . S
C4337 H4322 0.930 . S
C4337 C4332 1.390 . S
C4337 C4336 1.387 . S
H4338 C4350 0.930 . S
H4339 C4352 0.930 . S
H4340 C4353 0.930 . S
H4341 C4357 0.959 . S
H4342 C4357 0.959 . S
H4343 C4357 0.961 . S
H4344 C4358 0.960 . S
H4345 C4358 0.961 . S
H4346 C4358 0.959 . S
H4347 C4361 0.929 . S
H4348 C4362 0.931 . S
H4349 C4364 0.930 . S
C4350 H4338 0.930 . S
C4350 C4351 1.399 . S
C4350 C4355 1.399 . S
C4351 C4350 1.399 . S
C4351 C4352 1.376 . S
C4352 H4339 0.930 . S
C4352 C4351 1.376 . S
C4352 C4353 1.388 . S
C4353 H4340 0.930 . S
C4353 C4352 1.388 . S
C4353 C4354 1.390 . S
C4354 C4353 1.390 . S
C4354 C4355 1.394 . S
C4354 C4360 1.465 . S
C4355 C4350 1.399 . S
C4355 C4354 1.394 . S
C4355 C4356 1.516 . S
C4356 C4355 1.516 . S
C4356 C4357 1.502 . S
C4356 C4358 1.561 . S
C4356 C4359 1.526 . S
C4357 H4341 0.959 . S
C4357 H4342 0.959 . S
C4357 H4343 0.961 . S
C4357 C4356 1.502 . S
C4358 H4344 0.960 . S
C4358 H4345 0.961 . S
C4358 H4346 0.959 . S
C4358 C4356 1.561 . S
C4359 C4356 1.526 . S
C4359 C4360 1.396 . S
C4359 C4364 1.390 . S
C4360 C4354 1.465 . S
C4360 C4359 1.396 . S
C4360 C4361 1.399 . S
C4361 H4347 0.929 . S
C4361 C4360 1.399 . S
C4361 C4362 1.385 . S
C4362 H4348 0.931 . S
C4362 C4361 1.385 . S
C4362 C4363 1.389 . S
C4363 C4362 1.389 . S
C4363 C4364 1.387 . S
C4364 H4349 0.930 . S
C4364 C4359 1.390 . S
C4364 C4363 1.387 . S
H4365 C4377 0.930 1_655 S
H4366 C4379 0.930 . S
H4367 C4380 0.930 . S
H4368 C4384 0.959 . S
H4369 C4384 0.959 . S
H4370 C4384 0.961 . S
H4371 C4385 0.960 . S
H4372 C4385 0.961 . S
H4373 C4385 0.959 . S
H4374 C4388 0.929 . S
H4375 C4389 0.931 1_455 S
H4376 C4391 0.930 . S
C4377 H4365 0.930 1_455 S
C4377 C4378 1.399 . S
C4377 C4382 1.397 1_455 S
C4378 C4377 1.399 . S
C4378 C4379 1.376 . S
C4379 H4366 0.930 . S
C4379 C4378 1.376 . S
C4379 C4380 1.388 . S
C4380 H4367 0.930 . S
C4380 C4379 1.388 . S
C4380 C4381 1.390 . S
C4381 C4380 1.390 . S
C4381 C4382 1.389 1_455 S
C4381 C4387 1.465 . S
C4382 C4377 1.397 1_655 S
C4382 C4381 1.389 1_655 S
C4382 C4383 1.523 . S
C4383 C4382 1.523 . S
C4383 C4384 1.502 . S
C4383 C4385 1.561 . S
C4383 C4386 1.526 . S
C4384 H4368 0.959 . S
C4384 H4369 0.959 . S
C4384 H4370 0.961 . S
C4384 C4383 1.502 . S
C4385 H4371 0.960 . S
C4385 H4372 0.961 . S
C4385 H4373 0.959 . S
C4385 C4383 1.561 . S
C4386 C4383 1.526 . S
C4386 C4387 1.396 1_655 S
C4386 C4391 1.390 . S
C4387 C4381 1.465 . S
C4387 C4386 1.396 1_455 S
C4387 C4388 1.399 . S
C4388 H4374 0.929 . S
C4388 C4387 1.399 . S
C4388 C4389 1.385 1_455 S
C4389 H4375 0.931 1_655 S
C4389 C4388 1.385 1_655 S
C4389 C4390 1.389 . S
C4390 C4389 1.389 . S
C4390 C4391 1.387 . S
C4391 H4376 0.930 . S
C4391 C4386 1.390 . S
C4391 C4390 1.387 . S
H4392 C4404 0.930 . S
H4393 C4406 0.930 . S
H4394 C4407 0.930 . S
H4395 C4411 0.959 . S
H4396 C4411 0.959 . S
H4397 C4411 0.961 . S
H4398 C4412 0.960 . S
H4399 C4412 0.961 . S
H4400 C4412 0.959 . S
H4401 C4415 0.929 1_545 S
H4402 C4416 0.931 . S
H4403 C4418 0.930 . S
C4404 H4392 0.930 . S
C4404 C4405 1.399 . S
C4404 C4409 1.399 . S
C4405 C4404 1.399 . S
C4405 C4406 1.376 . S
C4406 H4393 0.930 . S
C4406 C4405 1.376 . S
C4406 C4407 1.388 . S
C4407 H4394 0.930 . S
C4407 C4406 1.388 . S
C4407 C4408 1.390 . S
C4408 C4407 1.390 . S
C4408 C4409 1.394 . S
C4408 C4414 1.465 1_545 S
C4409 C4404 1.399 . S
C4409 C4408 1.394 . S
C4409 C4410 1.516 1_545 S
C4410 C4409 1.516 1_565 S
C4410 C4411 1.502 . S
C4410 C4412 1.561 . S
C4410 C4413 1.526 . S
C4411 H4395 0.959 . S
C4411 H4396 0.959 . S
C4411 H4397 0.961 . S
C4411 C4410 1.502 . S
C4412 H4398 0.960 . S
C4412 H4399 0.961 . S
C4412 H4400 0.959 . S
C4412 C4410 1.561 . S
C4413 C4410 1.526 . S
C4413 C4414 1.396 . S
C4413 C4418 1.390 . S
C4414 C4408 1.465 1_565 S
C4414 C4413 1.396 . S
C4414 C4415 1.399 . S
C4415 H4401 0.929 1_565 S
C4415 C4414 1.399 . S
C4415 C4416 1.385 . S
C4416 H4402 0.931 . S
C4416 C4415 1.385 . S
C4416 C4417 1.389 . S
C4417 C4416 1.389 . S
C4417 C4418 1.387 . S
C4418 H4403 0.930 . S
C4418 C4413 1.390 . S
C4418 C4417 1.387 . S
H4419 C4431 0.930 . S
H4420 C4433 0.930 . S
H4421 C4434 0.930 . S
H4422 C4438 0.959 . S
H4423 C4438 0.959 . S
H4424 C4438 0.961 . S
H4425 C4439 0.940 1_565 S
H4426 C4439 0.961 1_565 S
H4427 C4439 0.959 . S
H4428 C4442 0.929 . S
H4429 C4443 0.931 . S
H4430 C4445 0.930 . S
C4431 H4419 0.930 . S
C4431 C4432 1.399 . S
C4431 C4436 1.399 . S
C4432 C4431 1.399 . S
C4432 C4433 1.376 . S
C4433 H4420 0.930 . S
C4433 C4432 1.376 . S
C4433 C4434 1.388 . S
C4434 H4421 0.930 . S
C4434 C4433 1.388 . S
C4434 C4435 1.390 . S
C4435 C4434 1.390 . S
C4435 C4436 1.394 . S
C4435 C4441 1.465 . S
C4436 C4431 1.399 . S
C4436 C4435 1.394 . S
C4436 C4437 1.516 . S
C4437 C4436 1.516 . S
C4437 C4438 1.502 . S
C4437 C4439 1.561 . S
C4437 C4440 1.526 . S
C4438 H4422 0.959 . S
C4438 H4423 0.959 . S
C4438 H4424 0.961 . S
C4438 C4437 1.502 . S
C4439 H4425 0.940 1_545 S
C4439 H4426 0.961 1_545 S
C4439 H4427 0.959 . S
C4439 C4437 1.561 . S
C4440 C4437 1.526 . S
C4440 C4441 1.396 . S
C4440 C4445 1.390 . S
C4441 C4435 1.465 . S
C4441 C4440 1.396 . S
C4441 C4442 1.399 . S
C4442 H4428 0.929 . S
C4442 C4441 1.399 . S
C4442 C4443 1.385 . S
C4443 H4429 0.931 . S
C4443 C4442 1.385 . S
C4443 C4444 1.389 . S
C4444 C4443 1.389 . S
C4444 C4445 1.387 . S
C4445 H4430 0.930 . S
C4445 C4440 1.390 . S
C4445 C4444 1.387 . S
H4446 C4458 0.930 . S
H4447 C4460 0.930 . S
H4448 C4461 0.969 . S
H4449 C4465 0.959 . S
H4450 C4465 0.959 . S
H4451 C4465 0.961 . S
H4452 C4466 0.960 . S
H4453 C4466 0.961 . S
H4454 C4466 0.959 . S
H4455 C4469 0.929 . S
H4456 C4470 0.931 . S
H4457 C4472 0.930 . S
C4458 H4446 0.930 . S
C4458 C4459 1.399 . S
C4458 C4463 1.399 . S
C4459 C4458 1.399 . S
C4459 C4460 1.376 . S
C4460 H4447 0.930 . S
C4460 C4459 1.376 . S
C4460 C4461 1.388 . S
C4461 H4448 0.969 . S
C4461 C4460 1.388 . S
C4461 C4462 1.390 . S
C4462 C4461 1.390 . S
C4462 C4463 1.394 . S
C4462 C4468 1.465 1_565 S
C4463 C4458 1.399 . S
C4463 C4462 1.394 . S
C4463 C4464 1.516 . S
C4464 C4463 1.516 . S
C4464 C4465 1.502 . S
C4464 C4466 1.561 . S
C4464 C4467 1.526 1_565 S
C4465 H4449 0.959 . S
C4465 H4450 0.959 . S
C4465 H4451 0.961 . S
C4465 C4464 1.502 . S
C4466 H4452 0.960 . S
C4466 H4453 0.961 . S
C4466 H4454 0.959 . S
C4466 C4464 1.561 . S
C4467 C4464 1.526 1_545 S
C4467 C4468 1.396 . S
C4467 C4472 1.390 . S
C4468 C4462 1.465 1_545 S
C4468 C4467 1.396 . S
C4468 C4469 1.399 . S
C4469 H4455 0.929 . S
C4469 C4468 1.399 . S
C4469 C4470 1.385 . S
C4470 H4456 0.931 . S
C4470 C4469 1.385 . S
C4470 C4471 1.389 . S
C4471 C4470 1.389 . S
C4471 C4472 1.387 . S
C4472 H4457 0.930 . S
C4472 C4467 1.390 . S
C4472 C4471 1.387 . S
H4473 C4485 0.930 . S
H4474 C4487 0.930 . S
H4475 C4488 0.930 . S
H4476 C4492 0.959 . S
H4477 C4492 0.959 . S
H4478 C4492 0.961 . S
H4479 C4493 0.963 . S
H4480 C4493 0.950 1_545 S
H4481 C4493 0.959 1_556 S
H4482 C4496 0.929 . S
H4483 C4497 0.931 . S
H4484 C4499 0.930 . S
C4485 H4473 0.930 . S
C4485 C4486 1.399 . S
C4485 C4490 1.399 . S
C4486 C4485 1.399 . S
C4486 C4487 1.376 . S
C4487 H4474 0.930 . S
C4487 C4486 1.376 . S
C4487 C4488 1.388 . S
C4488 H4475 0.930 . S
C4488 C4487 1.388 . S
C4488 C4489 1.390 . S
C4489 C4488 1.390 . S
C4489 C4490 1.394 . S
C4489 C4495 1.465 . S
C4490 C4485 1.399 . S
C4490 C4489 1.394 . S
C4490 C4491 1.516 1_556 S
C4491 C4490 1.516 1_554 S
C4491 C4492 1.502 . S
C4491 C4493 1.561 . S
C4491 C4494 1.526 . S
C4492 H4476 0.959 . S
C4492 H4477 0.959 . S
C4492 H4478 0.961 . S
C4492 C4491 1.502 . S
C4493 H4479 0.963 . S
C4493 H4480 0.950 1_565 S
C4493 H4481 0.959 1_554 S
C4493 C4491 1.561 . S
C4494 C4491 1.526 . S
C4494 C4495 1.396 1_554 S
C4494 C4499 1.390 . S
C4495 C4489 1.465 . S
C4495 C4494 1.396 1_556 S
C4495 C4496 1.399 . S
C4496 H4482 0.929 . S
C4496 C4495 1.399 . S
C4496 C4497 1.385 1_556 S
C4497 H4483 0.931 . S
C4497 C4496 1.385 1_554 S
C4497 C4498 1.389 . S
C4498 C4497 1.389 . S
C4498 C4499 1.387 . S
C4499 H4484 0.930 . S
C4499 C4494 1.390 . S
C4499 C4498 1.387 . S
H4500 C4512 0.930 . S
H4501 C4514 0.930 . S
H4502 C4515 0.930 . S
H4503 C4519 0.959 . S
H4504 C4519 0.959 . S
H4505 C4519 0.961 . S
H4506 C4520 0.960 1_556 S
H4507 C4520 0.961 . S
H4508 C4520 0.969 . S
H4509 C4523 0.929 . S
H4510 C4524 0.931 . S
H4511 C4526 0.930 . S
C4512 H4500 0.930 . S
C4512 C4513 1.399 . S
C4512 C4517 1.399 . S
C4513 C4512 1.399 . S
C4513 C4514 1.376 . S
C4514 H4501 0.930 . S
C4514 C4513 1.376 . S
C4514 C4515 1.388 . S
C4515 H4502 0.930 . S
C4515 C4514 1.388 . S
C4515 C4516 1.390 . S
C4516 C4515 1.390 . S
C4516 C4517 1.394 . S
C4516 C4522 1.465 1_556 S
C4517 C4512 1.399 . S
C4517 C4516 1.394 . S
C4517 C4518 1.516 1_556 S
C4518 C4517 1.516 1_554 S
C4518 C4519 1.502 . S
C4518 C4520 1.561 . S
C4518 C4521 1.526 . S
C4519 H4503 0.959 . S
C4519 H4504 0.959 . S
C4519 H4505 0.961 . S
C4519 C4518 1.502 . S
C4520 H4506 0.960 1_554 S
C4520 H4507 0.961 . S
C4520 H4508 0.969 . S
C4520 C4518 1.561 . S
C4521 C4518 1.526 . S
C4521 C4522 1.396 . S
C4521 C4526 1.390 . S
C4522 C4516 1.465 1_554 S
C4522 C4521 1.396 . S
C4522 C4523 1.399 . S
C4523 H4509 0.929 . S
C4523 C4522 1.399 . S
C4523 C4524 1.385 . S
C4524 H4510 0.931 . S
C4524 C4523 1.385 . S
C4524 C4525 1.389 . S
C4525 C4524 1.389 . S
C4525 C4526 1.387 . S
C4526 H4511 0.930 . S
C4526 C4521 1.390 . S
C4526 C4525 1.387 . S
H4527 C4539 0.930 . S
H4528 C4541 0.930 . S
H4529 C4542 0.930 . S
H4530 C4546 0.959 . S
H4531 C4546 0.987 . S
H4532 C4546 0.961 . S
H4533 C4547 0.960 1_554 S
H4534 C4547 0.961 . S
H4535 C4547 0.959 . S
H4536 C4550 0.929 . S
H4537 C4551 0.931 . S
H4538 C4553 0.930 . S
C4539 H4527 0.930 . S
C4539 C4540 1.399 . S
C4539 C4544 1.399 . S
C4540 C4539 1.399 . S
C4540 C4541 1.376 . S
C4541 H4528 0.930 . S
C4541 C4540 1.376 . S
C4541 C4542 1.388 . S
C4542 H4529 0.930 . S
C4542 C4541 1.388 . S
C4542 C4543 1.390 . S
C4543 C4542 1.390 . S
C4543 C4544 1.394 . S
C4543 C4549 1.465 1_554 S
C4544 C4539 1.399 . S
C4544 C4543 1.394 . S
C4544 C4545 1.516 . S
C4545 C4544 1.516 . S
C4545 C4546 1.502 . S
C4545 C4547 1.561 1_554 S
C4545 C4548 1.526 1_554 S
C4546 H4530 0.959 . S
C4546 H4531 0.987 . S
C4546 H4532 0.961 . S
C4546 C4545 1.502 . S
C4547 H4533 0.960 1_556 S
C4547 H4534 0.961 . S
C4547 H4535 0.959 . S
C4547 C4545 1.561 1_556 S
C4548 C4545 1.526 1_556 S
C4548 C4549 1.396 . S
C4548 C4553 1.390 . S
C4549 C4543 1.465 1_556 S
C4549 C4548 1.396 . S
C4549 C4550 1.399 . S
C4550 H4536 0.929 . S
C4550 C4549 1.399 . S
C4550 C4551 1.385 . S
C4551 H4537 0.931 . S
C4551 C4550 1.385 . S
C4551 C4552 1.389 . S
C4552 C4551 1.389 . S
C4552 C4553 1.387 . S
C4553 H4538 0.930 . S
C4553 C4548 1.390 . S
C4553 C4552 1.387 . S
H4554 C4566 0.930 . S
H4555 C4568 0.930 . S
H4556 C4569 0.930 . S
H4557 C4573 0.959 . S
H4558 C4573 0.959 . S
H4559 C4573 0.961 . S
H4560 C4574 0.960 . S
H4561 C4574 0.961 . S
H4562 C4574 0.959 . S
H4563 C4577 0.929 . S
H4564 C4578 0.931 . S
H4565 C4580 0.930 . S
C4566 H4554 0.930 . S
C4566 C4567 1.399 . S
C4566 C4571 1.399 . S
C4567 C4566 1.399 . S
C4567 C4568 1.376 . S
C4568 H4555 0.930 . S
C4568 C4567 1.376 . S
C4568 C4569 1.388 . S
C4569 H4556 0.930 . S
C4569 C4568 1.388 . S
C4569 C4570 1.390 . S
C4570 C4569 1.390 . S
C4570 C4571 1.394 . S
C4570 C4576 1.465 . S
C4571 C4566 1.399 . S
C4571 C4570 1.394 . S
C4571 C4572 1.516 . S
C4572 C4571 1.516 . S
C4572 C4573 1.502 . S
C4572 C4574 1.561 . S
C4572 C4575 1.526 . S
C4573 H4557 0.959 . S
C4573 H4558 0.959 . S
C4573 H4559 0.961 . S
C4573 C4572 1.502 . S
C4574 H4560 0.960 . S
C4574 H4561 0.961 . S
C4574 H4562 0.959 . S
C4574 C4572 1.561 . S
C4575 C4572 1.526 . S
C4575 C4576 1.396 . S
C4575 C4580 1.390 . S
C4576 C4570 1.465 . S
C4576 C4575 1.396 . S
C4576 C4577 1.399 . S
C4577 H4563 0.929 . S
C4577 C4576 1.399 . S
C4577 C4578 1.385 . S
C4578 H4564 0.931 . S
C4578 C4577 1.385 . S
C4578 C4579 1.389 . S
C4579 C4578 1.389 . S
C4579 C4580 1.387 . S
C4580 H4565 0.930 . S
C4580 C4575 1.390 . S
C4580 C4579 1.387 . S
H4581 C4593 0.930 . S
H4582 C4595 0.930 . S
H4583 C4596 0.930 . S
H4584 C4600 0.959 . S
H4585 C4600 0.959 . S
H4586 C4600 0.961 . S
H4587 C4601 0.960 . S
H4588 C4601 0.961 . S
H4589 C4601 0.959 . S
H4590 C4604 0.929 . S
H4591 C4605 0.931 . S
H4592 C4607 0.930 . S
C4593 H4581 0.930 . S
C4593 C4594 1.399 . S
C4593 C4598 1.399 . S
C4594 C4593 1.399 . S
C4594 C4595 1.376 . S
C4595 H4582 0.930 . S
C4595 C4594 1.376 . S
C4595 C4596 1.388 . S
C4596 H4583 0.930 . S
C4596 C4595 1.388 . S
C4596 C4597 1.390 . S
C4597 C4596 1.390 . S
C4597 C4598 1.394 . S
C4597 C4603 1.465 . S
C4598 C4593 1.399 . S
C4598 C4597 1.394 . S
C4598 C4599 1.516 . S
C4599 C4598 1.516 . S
C4599 C4600 1.502 . S
C4599 C4601 1.561 . S
C4599 C4602 1.526 . S
C4600 H4584 0.959 . S
C4600 H4585 0.959 . S
C4600 H4586 0.961 . S
C4600 C4599 1.502 . S
C4601 H4587 0.960 . S
C4601 H4588 0.961 . S
C4601 H4589 0.959 . S
C4601 C4599 1.561 . S
C4602 C4599 1.526 . S
C4602 C4603 1.396 . S
C4602 C4607 1.390 . S
C4603 C4597 1.465 . S
C4603 C4602 1.396 . S
C4603 C4604 1.399 . S
C4604 H4590 0.929 . S
C4604 C4603 1.399 . S
C4604 C4605 1.385 . S
C4605 H4591 0.931 . S
C4605 C4604 1.385 . S
C4605 C4606 1.389 . S
C4606 C4605 1.389 . S
C4606 C4607 1.387 . S
C4607 H4592 0.930 . S
C4607 C4602 1.390 . S
C4607 C4606 1.387 . S
H4608 C4620 0.930 . S
H4609 C4622 0.930 . S
H4610 C4623 0.906 1_565 S
H4611 C4627 0.959 . S
H4612 C4627 0.959 . S
H4613 C4627 0.961 . S
H4614 C4628 0.956 1_545 S
H4615 C4628 0.961 . S
H4616 C4628 0.959 . S
H4617 C4631 0.929 . S
H4618 C4632 0.931 . S
H4619 C4634 0.930 . S
C4620 H4608 0.930 . S
C4620 C4621 1.399 . S
C4620 C4625 1.399 . S
C4621 C4620 1.399 . S
C4621 C4622 1.376 . S
C4622 H4609 0.930 . S
C4622 C4621 1.376 . S
C4622 C4623 1.416 . S
C4623 H4610 0.906 1_545 S
C4623 C4622 1.416 . S
C4623 C4624 1.389 1_545 S
C4624 C4623 1.389 1_565 S
C4624 C4625 1.394 1_565 S
C4624 C4630 1.465 . S
C4625 C4620 1.399 . S
C4625 C4624 1.394 1_545 S
C4625 C4626 1.516 . S
C4626 C4625 1.516 . S
C4626 C4627 1.502 . S
C4626 C4628 1.561 1_545 S
C4626 C4629 1.526 1_545 S
C4627 H4611 0.959 . S
C4627 H4612 0.959 . S
C4627 H4613 0.961 . S
C4627 C4626 1.502 . S
C4628 H4614 0.956 1_565 S
C4628 H4615 0.961 . S
C4628 H4616 0.959 . S
C4628 C4626 1.561 1_565 S
C4629 C4626 1.526 1_565 S
C4629 C4630 1.396 . S
C4629 C4634 1.390 . S
C4630 C4624 1.465 . S
C4630 C4629 1.396 . S
C4630 C4631 1.399 . S
C4631 H4617 0.929 . S
C4631 C4630 1.399 . S
C4631 C4632 1.385 . S
C4632 H4618 0.931 . S
C4632 C4631 1.385 . S
C4632 C4633 1.389 . S
C4633 C4632 1.389 . S
C4633 C4634 1.387 . S
C4634 H4619 0.930 . S
C4634 C4629 1.390 . S
C4634 C4633 1.387 . S
H4635 C4647 0.930 . S
H4636 C4649 0.930 . S
H4637 C4650 0.930 . S
H4638 C4654 0.959 . S
H4639 C4654 0.959 . S
H4640 C4654 0.961 . S
H4641 C4655 0.960 . S
H4642 C4655 0.961 . S
H4643 C4655 0.959 . S
H4644 C4658 0.929 . S
H4645 C4659 0.931 . S
H4646 C4661 0.930 . S
C4647 H4635 0.930 . S
C4647 C4648 1.399 . S
C4647 C4652 1.399 . S
C4648 C4647 1.399 . S
C4648 C4649 1.376 . S
C4649 H4636 0.930 . S
C4649 C4648 1.376 . S
C4649 C4650 1.388 . S
C4650 H4637 0.930 . S
C4650 C4649 1.388 . S
C4650 C4651 1.390 . S
C4651 C4650 1.390 . S
C4651 C4652 1.394 . S
C4651 C4657 1.465 . S
C4652 C4647 1.399 . S
C4652 C4651 1.394 . S
C4652 C4653 1.516 . S
C4653 C4652 1.516 . S
C4653 C4654 1.502 . S
C4653 C4655 1.561 . S
C4653 C4656 1.526 . S
C4654 H4638 0.959 . S
C4654 H4639 0.959 . S
C4654 H4640 0.961 . S
C4654 C4653 1.502 . S
C4655 H4641 0.960 . S
C4655 H4642 0.961 . S
C4655 H4643 0.959 . S
C4655 C4653 1.561 . S
C4656 C4653 1.526 . S
C4656 C4657 1.396 . S
C4656 C4661 1.390 . S
C4657 C4651 1.465 . S
C4657 C4656 1.396 . S
C4657 C4658 1.399 . S
C4658 H4644 0.929 . S
C4658 C4657 1.399 . S
C4658 C4659 1.385 . S
C4659 H4645 0.931 . S
C4659 C4658 1.385 . S
C4659 C4660 1.389 . S
C4660 C4659 1.389 . S
C4660 C4661 1.387 . S
C4661 H4646 0.930 . S
C4661 C4656 1.390 . S
C4661 C4660 1.387 . S
H4662 C4674 0.930 . S
H4663 C4676 0.930 . S
H4664 C4677 0.930 . S
H4665 C4681 0.959 . S
H4666 C4681 0.959 . S
H4667 C4681 0.961 . S
H4668 C4682 0.960 . S
H4669 C4682 0.961 . S
H4670 C4682 0.959 . S
H4671 C4685 0.929 . S
H4672 C4686 0.931 . S
H4673 C4688 0.930 . S
C4674 H4662 0.930 . S
C4674 C4675 1.399 . S
C4674 C4679 1.399 . S
C4675 C4674 1.399 . S
C4675 C4676 1.376 . S
C4676 H4663 0.930 . S
C4676 C4675 1.376 . S
C4676 C4677 1.388 . S
C4677 H4664 0.930 . S
C4677 C4676 1.388 . S
C4677 C4678 1.390 . S
C4678 C4677 1.390 . S
C4678 C4679 1.394 . S
C4678 C4684 1.465 . S
C4679 C4674 1.399 . S
C4679 C4678 1.394 . S
C4679 C4680 1.516 . S
C4680 C4679 1.516 . S
C4680 C4681 1.502 . S
C4680 C4682 1.561 . S
C4680 C4683 1.526 . S
C4681 H4665 0.959 . S
C4681 H4666 0.959 . S
C4681 H4667 0.961 . S
C4681 C4680 1.502 . S
C4682 H4668 0.960 . S
C4682 H4669 0.961 . S
C4682 H4670 0.959 . S
C4682 C4680 1.561 . S
C4683 C4680 1.526 . S
C4683 C4684 1.396 . S
C4683 C4688 1.390 . S
C4684 C4678 1.465 . S
C4684 C4683 1.396 . S
C4684 C4685 1.399 . S
C4685 H4671 0.929 . S
C4685 C4684 1.399 . S
C4685 C4686 1.385 . S
C4686 H4672 0.931 . S
C4686 C4685 1.385 . S
C4686 C4687 1.389 . S
C4687 C4686 1.389 . S
C4687 C4688 1.387 . S
C4688 H4673 0.930 . S
C4688 C4683 1.390 . S
C4688 C4687 1.387 . S
H4689 C4701 0.930 . S
H4690 C4703 0.930 . S
H4691 C4704 0.930 . S
H4692 C4708 0.959 . S
H4693 C4708 0.959 . S
H4694 C4708 0.961 . S
H4695 C4709 0.960 . S
H4696 C4709 0.961 . S
H4697 C4709 0.959 . S
H4698 C4712 0.929 . S
H4699 C4713 0.931 . S
H4700 C4715 0.930 . S
C4701 H4689 0.930 . S
C4701 C4702 1.399 . S
C4701 C4706 1.399 . S
C4702 C4701 1.399 . S
C4702 C4703 1.376 . S
C4703 H4690 0.930 . S
C4703 C4702 1.376 . S
C4703 C4704 1.388 . S
C4704 H4691 0.930 . S
C4704 C4703 1.388 . S
C4704 C4705 1.390 . S
C4705 C4704 1.390 . S
C4705 C4706 1.394 . S
C4705 C4711 1.465 . S
C4706 C4701 1.399 . S
C4706 C4705 1.394 . S
C4706 C4707 1.516 . S
C4707 C4706 1.516 . S
C4707 C4708 1.502 . S
C4707 C4709 1.561 . S
C4707 C4710 1.526 . S
C4708 H4692 0.959 . S
C4708 H4693 0.959 . S
C4708 H4694 0.961 . S
C4708 C4707 1.502 . S
C4709 H4695 0.960 . S
C4709 H4696 0.961 . S
C4709 H4697 0.959 . S
C4709 C4707 1.561 . S
C4710 C4707 1.526 . S
C4710 C4711 1.396 . S
C4710 C4715 1.390 . S
C4711 C4705 1.465 . S
C4711 C4710 1.396 . S
C4711 C4712 1.399 . S
C4712 H4698 0.929 . S
C4712 C4711 1.399 . S
C4712 C4713 1.385 . S
C4713 H4699 0.931 . S
C4713 C4712 1.385 . S
C4713 C4714 1.389 . S
C4714 C4713 1.389 . S
C4714 C4715 1.387 . S
C4715 H4700 0.930 . S
C4715 C4710 1.390 . S
C4715 C4714 1.387 . S
H4716 C4728 0.930 . S
H4717 C4730 0.930 . S
H4718 C4731 0.930 1_556 S
H4719 C4735 0.959 . S
H4720 C4735 0.959 . S
H4721 C4735 0.961 . S
H4722 C4736 0.960 . S
H4723 C4736 0.961 . S
H4724 C4736 0.959 . S
H4725 C4739 0.929 . S
H4726 C4740 0.931 . S
H4727 C4742 0.930 . S
C4728 H4716 0.930 . S
C4728 C4729 1.399 . S
C4728 C4733 1.399 . S
C4729 C4728 1.399 . S
C4729 C4730 1.376 . S
C4730 H4717 0.930 . S
C4730 C4729 1.376 . S
C4730 C4731 1.388 . S
C4731 H4718 0.930 1_554 S
C4731 C4730 1.388 . S
C4731 C4732 1.397 . S
C4732 C4731 1.397 . S
C4732 C4733 1.415 . S
C4732 C4738 1.442 1_554 S
C4733 C4728 1.399 . S
C4733 C4732 1.415 . S
C4733 C4734 1.516 . S
C4734 C4733 1.516 . S
C4734 C4735 1.502 . S
C4734 C4736 1.561 1_554 S
C4734 C4737 1.526 1_554 S
C4735 H4719 0.959 . S
C4735 H4720 0.959 . S
C4735 H4721 0.961 . S
C4735 C4734 1.502 . S
C4736 H4722 0.960 . S
C4736 H4723 0.961 . S
C4736 H4724 0.959 . S
C4736 C4734 1.561 1_556 S
C4737 C4734 1.526 1_556 S
C4737 C4738 1.396 . S
C4737 C4742 1.390 . S
C4738 C4732 1.442 1_556 S
C4738 C4737 1.396 . S
C4738 C4739 1.399 . S
C4739 H4725 0.929 . S
C4739 C4738 1.399 . S
C4739 C4740 1.385 . S
C4740 H4726 0.931 . S
C4740 C4739 1.385 . S
C4740 C4741 1.389 . S
C4741 C4740 1.389 . S
C4741 C4742 1.387 . S
C4742 H4727 0.930 . S
C4742 C4737 1.390 . S
C4742 C4741 1.387 . S
H4743 C4755 0.930 . S
H4744 C4757 0.930 . S
H4745 C4758 0.930 . S
H4746 C4762 0.959 . S
H4747 C4762 0.959 . S
H4748 C4762 0.961 . S
H4749 C4763 0.960 . S
H4750 C4763 0.961 . S
H4751 C4763 0.959 . S
H4752 C4766 0.929 . S
H4753 C4767 0.931 . S
H4754 C4769 0.930 . S
C4755 H4743 0.930 . S
C4755 C4756 1.399 . S
C4755 C4760 1.399 . S
C4756 C4755 1.399 . S
C4756 C4757 1.376 . S
C4757 H4744 0.930 . S
C4757 C4756 1.376 . S
C4757 C4758 1.388 . S
C4758 H4745 0.930 . S
C4758 C4757 1.388 . S
C4758 C4759 1.390 . S
C4759 C4758 1.390 . S
C4759 C4760 1.394 . S
C4759 C4765 1.465 . S
C4760 C4755 1.399 . S
C4760 C4759 1.394 . S
C4760 C4761 1.516 . S
C4761 C4760 1.516 . S
C4761 C4762 1.502 . S
C4761 C4763 1.561 . S
C4761 C4764 1.526 . S
C4762 H4746 0.959 . S
C4762 H4747 0.959 . S
C4762 H4748 0.961 . S
C4762 C4761 1.502 . S
C4763 H4749 0.960 . S
C4763 H4750 0.961 . S
C4763 H4751 0.959 . S
C4763 C4761 1.561 . S
C4764 C4761 1.526 . S
C4764 C4765 1.396 . S
C4764 C4769 1.390 . S
C4765 C4759 1.465 . S
C4765 C4764 1.396 . S
C4765 C4766 1.399 . S
C4766 H4752 0.929 . S
C4766 C4765 1.399 . S
C4766 C4767 1.385 . S
C4767 H4753 0.931 . S
C4767 C4766 1.385 . S
C4767 C4768 1.389 . S
C4768 C4767 1.389 . S
C4768 C4769 1.387 . S
C4769 H4754 0.930 . S
C4769 C4764 1.390 . S
C4769 C4768 1.387 . S
H4770 C4782 0.930 . S
H4771 C4784 0.930 . S
H4772 C4785 0.930 . S
H4773 C4789 0.959 . S
H4774 C4789 0.959 . S
H4775 C4789 0.961 . S
H4776 C4790 0.960 . S
H4777 C4790 0.961 . S
H4778 C4790 0.959 . S
H4779 C4793 0.929 . S
H4780 C4794 0.931 . S
H4781 C4796 0.930 . S
C4782 H4770 0.930 . S
C4782 C4783 1.399 . S
C4782 C4787 1.399 . S
C4783 C4782 1.399 . S
C4783 C4784 1.376 . S
C4784 H4771 0.930 . S
C4784 C4783 1.376 . S
C4784 C4785 1.388 . S
C4785 H4772 0.930 . S
C4785 C4784 1.388 . S
C4785 C4786 1.390 . S
C4786 C4785 1.390 . S
C4786 C4787 1.394 . S
C4786 C4792 1.465 . S
C4787 C4782 1.399 . S
C4787 C4786 1.394 . S
C4787 C4788 1.516 . S
C4788 C4787 1.516 . S
C4788 C4789 1.502 . S
C4788 C4790 1.561 . S
C4788 C4791 1.526 . S
C4789 H4773 0.959 . S
C4789 H4774 0.959 . S
C4789 H4775 0.961 . S
C4789 C4788 1.502 . S
C4790 H4776 0.960 . S
C4790 H4777 0.961 . S
C4790 H4778 0.959 . S
C4790 C4788 1.561 . S
C4791 C4788 1.526 . S
C4791 C4792 1.396 . S
C4791 C4796 1.390 . S
C4792 C4786 1.465 . S
C4792 C4791 1.396 . S
C4792 C4793 1.399 . S
C4793 H4779 0.929 . S
C4793 C4792 1.399 . S
C4793 C4794 1.385 . S
C4794 H4780 0.931 . S
C4794 C4793 1.385 . S
C4794 C4795 1.389 . S
C4795 C4794 1.389 . S
C4795 C4796 1.387 . S
C4796 H4781 0.930 . S
C4796 C4791 1.390 . S
C4796 C4795 1.387 . S
H4797 C4809 0.930 . S
H4798 C4811 0.930 . S
H4799 C4812 0.923 1_545 S
H4800 C4816 0.959 1_545 S
H4801 C4816 0.959 . S
H4802 C4816 0.961 . S
H4803 C4817 0.960 . S
H4804 C4817 0.961 . S
H4805 C4817 0.959 . S
H4806 C4820 0.929 . S
H4807 C4821 0.931 . S
H4808 C4823 0.930 . S
C4809 H4797 0.930 . S
C4809 C4810 1.399 . S
C4809 C4814 1.399 . S
C4810 C4809 1.399 . S
C4810 C4811 1.376 . S
C4811 H4798 0.930 . S
C4811 C4810 1.376 . S
C4811 C4812 1.395 . S
C4812 H4799 0.923 1_565 S
C4812 C4811 1.395 . S
C4812 C4813 1.391 . S
C4813 C4812 1.391 . S
C4813 C4814 1.394 . S
C4813 C4819 1.465 1_565 S
C4814 C4809 1.399 . S
C4814 C4813 1.394 . S
C4814 C4815 1.516 . S
C4815 C4814 1.516 . S
C4815 C4816 1.502 . S
C4815 C4817 1.561 . S
C4815 C4818 1.526 1_565 S
C4816 H4800 0.959 1_565 S
C4816 H4801 0.959 . S
C4816 H4802 0.961 . S
C4816 C4815 1.502 . S
C4817 H4803 0.960 . S
C4817 H4804 0.961 . S
C4817 H4805 0.959 . S
C4817 C4815 1.561 . S
C4818 C4815 1.526 1_545 S
C4818 C4819 1.396 . S
C4818 C4823 1.390 . S
C4819 C4813 1.465 1_545 S
C4819 C4818 1.396 . S
C4819 C4820 1.399 . S
C4820 H4806 0.929 . S
C4820 C4819 1.399 . S
C4820 C4821 1.385 . S
C4821 H4807 0.931 . S
C4821 C4820 1.385 . S
C4821 C4822 1.389 . S
C4822 C4821 1.389 . S
C4822 C4823 1.387 . S
C4823 H4808 0.930 . S
C4823 C4818 1.390 . S
C4823 C4822 1.387 . S
C1597 C7 2.169 . S
C1609 C667 2.174 1_455 S
C1624 C1360 2.170 . S
C1636 C40 2.176 . S
C1651 C1393 2.173 . S
C1663 C73 2.169 . S
C1678 C106 2.175 1_556 S
C1690 C1426 2.173 . S
C1705 C139 2.169 . S
C1717 C1558 2.175 1_455 S
C1732 C700 2.173 . S
C1744 C172 2.169 . S
C1759 C205 2.176 . S
C1771 C1525 2.173 . S
C1786 C238 2.169 1_554 S
C1798 C535 2.171 . S
C1813 C271 2.170 . S
C1825 C502 2.176 1_545 S
C1840 C304 2.176 1_565 S
C1852 C403 2.171 . S
C1867 C436 2.175 1_565 S
C1879 C337 2.174 . S
C1894 C469 2.175 . S
C1906 C370 2.173 1_545 S
C1921 C832 2.172 1_556 S
C1933 C568 2.169 . S
C1948 C601 2.175 1_655 S
C1960 C865 2.170 . S
C1975 C898 2.175 . S
C1987 C634 2.173 . S
C2002 C733 2.176 1_655 S
C2014 C997 2.171 . S
C2029 C766 2.175 . S
C2041 C931 2.174 . S
C2056 C1459 2.171 . S
C2068 C799 2.176 . S
C2083 C1492 2.172 . S
C2095 C964 2.176 1_554 S
C2110 C1030 2.173 . S
C2122 C1327 2.176 . S
C2137 C1294 2.174 . S
C2149 C1063 2.175 . S
C2164 C1195 2.169 . S
C2176 C1096 2.173 . S
C2191 C1129 2.176 . S
C2203 C1228 2.171 . S
C2218 C1162 2.170 . S
C2230 C1261 2.176 . S
C2245 N541 1.274 . S
C2257 C18 1.230 . S
C2272 N1564 1.267 1_455 S
C2284 C51 1.125 . S
C2299 N706 1.288 . S
C2311 C84 1.249 . S
C2326 C117 1.118 . S
C2338 N1531 1.270 . S
C2353 N1366 1.292 . S
C2365 C150 1.243 . S
C2380 C183 1.246 . S
C2392 N1399 1.292 . S
C2407 N1432 1.274 . S
C2419 C216 1.118 . S
C2434 C249 1.247 . S
C2446 N673 1.291 . S
C2461 C282 1.153 . S
C2473 N13 1.264 . S
C2488 N46 1.270 . S
C2500 C315 1.118 . S
C2515 N79 1.286 . S
C2527 C348 1.142 . S
C2542 N112 1.285 . S
C2554 C381 1.249 . S
C2569 C414 1.212 . S
C2581 N145 1.295 . S
C2596 C447 1.209 . S
C2608 N178 1.269 . S
C2623 C480 1.164 . S
C2635 N211 1.265 . S
C2650 C513 1.188 . S
C2662 N244 1.266 . S
C2677 N277 1.295 . S
C2689 C546 1.192 . S
C2704 C579 1.122 . S
C2716 N1201 1.268 . S
C2731 C612 1.116 . S
C2743 N1234 1.272 . S
C2758 N1267 1.294 . S
C2770 C645 1.182 . S
C2785 C678 1.140 . S
C2797 N508 1.275 . S
C2812 C711 1.245 . S
C2824 N343 1.292 . S
C2839 N1168 1.273 . S
C2851 C744 1.117 . S
C2866 C777 1.143 . S
C2878 N1102 1.265 . S
C2893 C810 1.223 . S
C2905 N1333 1.272 . S
C2920 C843 1.243 . S
C2932 N772 1.293 . S
C2947 C876 1.168 . S
C2959 N1498 1.292 . S
C2974 C909 1.249 . S
C2986 N739 1.290 . S
C3001 N574 1.264 . S
C3013 C942 1.158 . S
C3028 C975 1.249 . S
C3040 N607 1.290 . S
C3055 C1008 1.201 . S
C3067 N640 1.268 . S
C3082 C1041 1.250 . S
C3094 N1465 1.289 . S
C3109 N805 1.288 . S
C3121 C1074 1.149 . S
C3136 C1107 1.165 . S
C3148 N838 1.291 1_556 S
C3163 N871 1.295 . S
C3175 C1140 1.200 . S
C3190 N904 1.291 . S
C3202 C1173 1.245 . S
C3217 N937 1.292 . S
C3229 C1206 1.169 . S
C3244 N970 1.279 1_554 S
C3256 C1239 1.123 . S
C3271 C1272 1.187 . S
C3283 N1003 1.294 . S
C3298 C1305 1.195 . S
C3310 N1036 1.267 . S
C3325 N1069 1.295 . S
C3337 C1338 1.202 . S
C3352 C1371 1.243 . S
C3364 N409 1.279 . S
C3379 C1404 1.230 . S
C3391 N442 1.274 . S
C3406 C1437 1.116 . S
C3418 N475 1.273 . S
C3433 N1300 1.286 . S
C3445 C1470 1.142 . S
C3460 N1135 1.295 . S
C3472 C1503 1.206 . S
C3487 N376 1.289 . S
C3499 C1536 1.248 . S
C3514 C1569 1.167 . S
C3526 N310 1.265 . S
C3541 C318 1.311 . S
C3553 C21 1.316 . S
C3568 C351 1.303 . S
C3580 C54 1.294 . S
C3595 C87 1.320 . S
C3607 C384 1.319 . S
C3622 C120 1.247 . S
C3634 C285 1.255 . S
C3649 C153 1.309 . S
C3661 C516 1.315 . S
C3676 C417 1.301 . S
C3688 C186 1.291 . S
C3703 C450 1.278 . S
C3715 C219 1.289 . S
C3730 C252 1.312 . S
C3742 C483 1.305 . S
C3757 C549 1.320 . S
C3769 C615 1.319 . S
C3784 C1539 1.241 . S
C3796 C582 1.247 . S
C3811 C1572 1.292 . S
C3823 C648 1.282 . S
C3838 C1506 1.303 . S
C3850 C681 1.294 . S
C3865 C714 1.246 . S
C3877 C1473 1.254 . S
C3892 C1374 1.316 . S
C3904 C747 1.310 . S
C3919 C1440 1.248 . S
C3931 C780 1.257 . S
C3946 C1110 1.242 . S
C3958 C813 1.240 . S
C3973 C1143 1.303 . S
C3985 C846 1.293 . S
C4000 C879 1.320 . S
C4012 C1176 1.317 . S
C4027 C1077 1.310 . S
C4039 C912 1.302 . S
C4054 C1308 1.254 . S
C4066 C945 1.248 . S
C4081 C978 1.247 . S
C4093 C1209 1.256 . S
C4108 C1242 1.252 . S
C4120 C1011 1.262 . S
C4135 C1044 1.255 . S
C4147 C1275 1.265 . S
C4162 C1341 1.317 . S
C4174 C1407 1.311 . S
C4189 N860 1.416 . S
C4201 N2 1.415 . S
C4216 N35 1.462 . S
C4228 N893 1.473 . S
C4243 N794 1.476 . S
C4255 N68 1.457 . S
C4270 N827 1.404 . S
C4282 N101 1.443 . S
C4297 N992 1.405 . S
C4309 N134 1.448 . S
C4324 N1025 1.407 . S
C4336 N167 1.429 . S
C4351 N926 1.405 . S
C4363 N200 1.447 . S
C4378 N233 1.453 . S
C4390 N959 1.407 . S
C4405 N266 1.422 . S
C4417 N398 1.473 . S
C4432 N299 1.479 . S
C4444 N431 1.442 . S
C4459 N332 1.447 . S
C4471 N464 1.406 . S
C4486 N365 1.478 . S
C4498 N497 1.434 . S
C4513 N1421 1.407 . S
C4525 N530 1.456 . S
C4540 N1487 1.478 . S
C4552 N563 1.452 . S
C4567 N596 1.431 . S
C4579 N728 1.477 . S
C4594 N1322 1.449 . S
C4606 N629 1.406 . S
C4621 N662 1.404 . S
C4633 N1553 1.439 . S
C4648 N695 1.479 . S
C4660 N1355 1.447 . S
C4675 N761 1.418 . S
C4687 N1454 1.413 . S
C4702 N1058 1.405 . S
C4714 N1190 1.448 . S
C4729 N1223 1.405 . S
C4741 N1091 1.434 . S
C4756 N1256 1.430 . S
C4768 N1124 1.477 . S
C4783 N1157 1.405 . S
C4795 N1289 1.435 . S
C4810 N1388 1.458 . S
C4822 N1520 1.475 . S
