# Generated by pormake.
# Topology uom, (4)-cn, num edge types: 1
# Building blocks:
#     Node 0, Type 0, BuildingBlock: MUDLON_clean_sbu_0, # of connection points: 4
#     Node 1, Type 0, BuildingBlock: MUDLON_clean_sbu_0, # of connection points: 4
#     Node 2, Type 0, BuildingBlock: MUDLON_clean_sbu_0, # of connection points: 4
#     Node 3, Type 0, BuildingBlock: MUDLON_clean_sbu_0, # of connection points: 4
#     Node 4, Type 0, BuildingBlock: MUDLON_clean_sbu_0, # of connection points: 4
#     Node 5, Type 0, BuildingBlock: MUDLON_clean_sbu_0, # of connection points: 4
#     Edge 6, Type (0, 0), BuildingBlock: UVAHIK_clean_linker_0, # of connection points: 2
#     Edge 7, Type (0, 0), BuildingBlock: UVAHIK_clean_linker_0, # of connection points: 2
#     Edge 8, Type (0, 0), BuildingBlock: UVAHIK_clean_linker_0, # of connection points: 2
#     Edge 9, Type (0, 0), BuildingBlock: UVAHIK_clean_linker_0, # of connection points: 2
#     Edge 10, Type (0, 0), BuildingBlock: UVAHIK_clean_linker_0, # of connection points: 2
#     Edge 11, Type (0, 0), BuildingBlock: UVAHIK_clean_linker_0, # of connection points: 2
#     Edge 12, Type (0, 0), BuildingBlock: UVAHIK_clean_linker_0, # of connection points: 2
#     Edge 13, Type (0, 0), BuildingBlock: UVAHIK_clean_linker_0, # of connection points: 2
#     Edge 14, Type (0, 0), BuildingBlock: UVAHIK_clean_linker_0, # of connection points: 2
#     Edge 15, Type (0, 0), BuildingBlock: UVAHIK_clean_linker_0, # of connection points: 2
#     Edge 16, Type (0, 0), BuildingBlock: UVAHIK_clean_linker_0, # of connection points: 2
#     Edge 17, Type (0, 0), BuildingBlock: UVAHIK_clean_linker_0, # of connection points: 2
# Relax obj value: 0.094
# Max RMSD: 0.084
# Mean RMSD: 0.084
data_MOF--net-uom--node1-MUDLON_clean_sbu_0--edge1-UVAHIK_clean_linker_0
_symmetry_space_group_name_H-M    P1
_symmetry_Int_Tables_number       1
_symmetry_cell_setting            triclinic
loop_
_symmetry_equiv_pos_as_xyz
'x, y, z'
_cell_length_a     38.413284
_cell_length_b     38.365894
_cell_length_c     50.945836
_cell_angle_alpha  90.505703
_cell_angle_beta   89.512343
_cell_angle_gamma 119.90589
loop_
_atom_site_label
_atom_site_type_symbol
_atom_site_fract_x
_atom_site_fract_y
_atom_site_fract_z
_atom_type_partial_charge
Mg0 Mg 0.25266 0.00529 0.09049 0.0
C1 C 0.27325 0.00921 0.14841 0.0
O2 O 0.30602 0.01193 0.13818 0.0
C3 C 0.22361 0.95939 0.04251 0.0
O4 O 0.25464 0.9943 0.03619 0.0
C5 C 0.32728 1.00221 0.07731 0.0
O6 O 0.30066 0.96367 0.07826 0.0
O7 O 0.31565 0.02761 0.08124 0.0
O8 O 0.24452 0.003 0.13322 0.0
O9 O 0.23104 0.04362 0.07564 0.0
C10 C 0.21858 0.06164 0.09073 0.0
O11 O 0.22632 0.06385 0.11595 0.0
O12 O 0.2151 0.95182 0.06678 0.0
Mg13 Mg 0.30158 0.27113 0.41937 0.0
C14 C 0.281 0.24375 0.4779 0.0
O15 O 0.26443 0.20693 0.46851 0.0
C16 C 0.29499 0.19524 0.39778 0.0
O17 O 0.26097 0.18092 0.41081 0.0
C18 C 0.37601 0.34445 0.39948 0.0
O19 O 0.38805 0.3179 0.39785 0.0
O20 O 0.34019 0.33292 0.40687 0.0
O21 O 0.29875 0.27329 0.46228 0.0
O22 O 0.24149 0.24486 0.40365 0.0
C23 C 0.21042 0.23419 0.41777 0.0
O24 O 0.21469 0.24613 0.44236 0.0
O25 O 0.32105 0.23232 0.40048 0.0
Mg26 Mg 0.08554 0.3153 0.75386 0.0
C27 C 0.07908 0.33373 0.81127 0.0
O28 O 0.07997 0.36511 0.80043 0.0
C29 C 0.14859 0.30103 0.7308 0.0
O30 O 0.12783 0.26882 0.74523 0.0
C31 C 0.09063 0.39362 0.73886 0.0
O32 O 0.12906 0.40505 0.73917 0.0
O33 O 0.06513 0.35702 0.7435 0.0
O34 O 0.08384 0.30927 0.79669 0.0
O35 O 0.04732 0.25599 0.73752 0.0
C36 C 0.02888 0.22533 0.75209 0.0
O37 O 0.02554 0.2305 0.77731 0.0
O38 O 0.14116 0.32978 0.73312 0.0
Mg39 Mg 0.81671 0.10733 0.08635 0.0
C40 C 0.78336 0.07436 0.13861 0.0
O41 O 0.7536 0.05388 0.12228 0.0
C42 C 0.84983 0.16595 0.04369 0.0
O43 O 0.81529 0.13727 0.03471 0.0
C44 C 0.74486 0.11591 0.07782 0.0
O45 O 0.77101 0.15157 0.08704 0.0
O46 O 0.75587 0.08995 0.07439 0.0
O47 O 0.81645 0.10223 0.12933 0.0
O48 O 0.8389 0.07002 0.06972 0.0
C49 C 0.84881 0.0494 0.08397 0.0
O50 O 0.83769 0.04373 0.10874 0.0
O51 O 0.85882 0.16416 0.06747 0.0
Mg52 Mg 0.76332 0.83322 0.41795 0.0
C53 C 0.76627 0.79932 0.46897 0.0
O54 O 0.75877 0.77077 0.45174 0.0
C55 C 0.72757 0.86769 0.38109 0.0
O56 O 0.70637 0.82937 0.37497 0.0
C57 C 0.68281 0.76001 0.41423 0.0
O58 O 0.67563 0.78397 0.42905 0.0
O59 O 0.71828 0.77286 0.40556 0.0
O60 O 0.76916 0.83197 0.46077 0.0
O61 O 0.82204 0.85368 0.40069 0.0
C62 C 0.85283 0.86357 0.41469 0.0
O63 O 0.84796 0.85342 0.43957 0.0
O64 O 0.75099 0.87807 0.40075 0.0
Mg65 Mg 0.98259 0.77856 0.7529 0.0
C66 C 1.00224 0.77261 0.8094 0.0
O67 O 0.01515 0.75054 0.79767 0.0
C68 C 0.92054 0.74585 0.71083 0.0
O69 O 0.94384 0.73133 0.70392 0.0
C70 C 0.97558 0.69767 0.74729 0.0
O71 O 0.94003 0.68814 0.7568 0.0
O72 O 1.0007 0.73449 0.74294 0.0
O73 O 0.98461 0.78682 0.79571 0.0
O74 O 0.02131 0.8371 0.736 0.0
C75 C 0.0418 0.86795 0.75025 0.0
O76 O 0.04634 0.86312 0.77524 0.0
O77 O 0.92697 0.76447 0.73266 0.0
C78 C 0.30298 0.02326 0.19357 0.0
C79 C 0.27259 0.01939 0.17656 0.0
C80 C 0.30542 0.03753 0.21926 0.0
C81 C 0.24853 0.0593 0.27053 0.0
H82 H 0.3551 0.1328 0.29692 0.0
C83 C 0.32703 0.18935 0.35597 0.0
C84 C 0.29852 0.17094 0.37614 0.0
C85 C 0.3255 0.16779 0.33324 0.0
C86 C 0.32508 0.11252 0.28985 0.0
H87 H 0.22022 0.02653 0.17357 0.0
H88 H 0.22485 0.0521 0.2181 0.0
H89 H 0.34753 0.10106 0.25419 0.0
H90 H 0.24767 0.11463 0.38893 0.0
H91 H 0.24584 0.07679 0.34984 0.0
H92 H 0.22602 0.07225 0.30559 0.0
C93 C 0.2465 0.04347 0.21183 0.0
C94 C 0.32071 0.09379 0.26541 0.0
C95 C 0.24387 0.02886 0.18618 0.0
C96 C 0.26996 0.12986 0.37371 0.0
C97 C 0.26863 0.10823 0.35111 0.0
C98 C 0.25289 0.07822 0.29489 0.0
C99 C 0.27774 0.04867 0.22861 0.0
C100 C 0.28235 0.06711 0.25529 0.0
C101 C 0.29563 0.12715 0.3302 0.0
C102 C 0.29123 0.10534 0.30485 0.0
H103 H 0.32547 0.01601 0.18688 0.0
H104 H 0.32935 0.0402 0.23171 0.0
H105 H 0.21851 0.03861 0.26363 0.0
H106 H 0.34929 0.22101 0.35709 0.0
H107 H 0.34663 0.18361 0.31756 0.0
C108 C 0.28459 0.28973 0.51452 0.0
C109 C 0.27504 0.25104 0.50587 0.0
C110 C 0.27578 0.29616 0.54023 0.0
C111 C 0.20991 0.24087 0.59682 0.0
H112 H 0.27587 0.34134 0.63382 0.0
C113 C 0.17404 0.264 0.70325 0.0
C114 C 0.17288 0.29951 0.70839 0.0
C115 C 0.19094 0.25941 0.67998 0.0
C116 C 0.25707 0.3132 0.62368 0.0
H117 H 0.25009 0.18904 0.51793 0.0
H118 H 0.23584 0.20037 0.56294 0.0
H119 H 0.29728 0.33011 0.5908 0.0
H120 H 0.19065 0.35892 0.69356 0.0
H121 H 0.22064 0.35103 0.65297 0.0
H122 H 0.16987 0.22392 0.62975 0.0
C123 C 0.24915 0.22567 0.54966 0.0
C124 C 0.26924 0.30674 0.59895 0.0
C125 C 0.25762 0.21918 0.52386 0.0
C126 C 0.19108 0.33121 0.69028 0.0
C127 C 0.2083 0.32669 0.66701 0.0
C128 C 0.19799 0.24718 0.62159 0.0
C129 C 0.25747 0.26414 0.55812 0.0
C130 C 0.24569 0.27055 0.58506 0.0
C131 C 0.20741 0.2903 0.66127 0.0
C132 C 0.22128 0.28348 0.63529 0.0
H133 H 0.29782 0.31499 0.5012 0.0
H134 H 0.28218 0.32609 0.54575 0.0
H135 H 0.19042 0.213 0.58663 0.0
H136 H 0.16041 0.23892 0.71671 0.0
H137 H 0.19035 0.23126 0.67638 0.0
C138 C 0.86594 0.20155 1.00077 0.0
C139 C 0.87943 0.19519 1.02485 0.0
C140 C 0.89312 0.2235 0.98085 0.0
C141 C 0.99314 0.24979 0.95601 0.0
H142 H 0.97458 0.31769 0.90898 0.0
C143 C 0.05642 0.28636 0.8497 0.0
C144 C 0.06664 0.3241 0.83921 0.0
C145 C 0.03951 0.27551 0.87489 0.0
C146 C 0.98069 0.2993 0.92205 0.0
H147 H 0.93231 0.20814 0.04722 0.0
H148 H 0.98013 0.24674 1.01222 0.0
H149 H 0.93446 0.29252 0.9488 0.0
H150 H 0.06917 0.38083 0.84767 0.0
H151 H 0.04037 0.36218 0.89155 0.0
H152 H 0.03917 0.25629 0.92902 0.0
C153 C 0.94833 0.2345 1.00882 0.0
C154 C 0.95734 0.28451 0.9448 0.0
C155 C 0.921 0.21279 1.02896 0.0
C156 C 0.06136 0.35139 0.855 0.0
C157 C 0.04457 0.34059 0.88015 0.0
C158 C 0.01648 0.2645 0.93315 0.0
C159 C 0.93462 0.23948 0.98434 0.0
C160 C 0.96274 0.25899 0.96185 0.0
C161 C 0.03247 0.30215 0.8902 0.0
C162 C 0.01015 0.28899 0.91566 0.0
H163 H 0.83411 0.18835 0.99696 0.0
H164 H 0.88139 0.22632 0.96222 0.0
H165 H 0.99791 0.22994 0.96858 0.0
H166 H 0.05995 0.26454 0.83808 0.0
H167 H 0.0303 0.24554 0.88185 0.0
C168 C 0.74054 0.03248 0.17572 0.0
C169 C 0.77858 0.06181 0.16655 0.0
C170 C 0.73566 0.01669 0.20091 0.0
C171 C 0.78014 0.03109 0.26673 0.0
H172 H 0.71673 0.91473 0.26859 0.0
C173 C 0.76658 0.93449 0.35854 0.0
C174 C 0.7306 0.89779 0.36177 0.0
C175 C 0.77233 0.95865 0.33656 0.0
C176 C 0.73389 0.94727 0.26866 0.0
H177 H 0.84114 0.09889 0.17731 0.0
H178 H 0.8325 0.07108 0.22172 0.0
H179 H 0.72786 0.94934 0.22714 0.0
H180 H 0.67133 0.85937 0.34575 0.0
H181 H 0.68051 0.90204 0.30826 0.0
H182 H 0.78592 0.02879 0.30849 0.0
C183 C 0.80649 0.06045 0.20919 0.0
C184 C 0.74046 0.96715 0.24476 0.0
C185 C 0.81144 0.07632 0.18376 0.0
C186 C 0.69951 0.88728 0.34368 0.0
C187 C 0.70501 0.9116 0.322 0.0
C188 C 0.7733 0.0111 0.29085 0.0
C189 C 0.76865 0.02971 0.21776 0.0
C190 C 0.76333 0.00928 0.24346 0.0
C191 C 0.74206 0.94677 0.31751 0.0
C192 C 0.74971 0.96887 0.29215 0.0
H193 H 0.7144 0.02087 0.1632 0.0
H194 H 0.70597 0.99366 0.20707 0.0
H195 H 0.79781 0.0636 0.26638 0.0
H196 H 0.79127 0.94327 0.37202 0.0
H197 H 0.80128 0.98542 0.33381 0.0
C198 C 0.87853 0.71841 0.67074 0.0
C199 C 0.89326 0.74719 0.69097 0.0
C200 C 0.85963 0.7234 0.64896 0.0
C201 C 0.81712 0.78403 0.62085 0.0
H202 H 0.84753 0.75374 0.55545 0.0
C203 C 0.7887 0.82551 0.51517 0.0
C204 C 0.77486 0.79406 0.49661 0.0
C205 C 0.80008 0.82056 0.54042 0.0
C206 C 0.83846 0.7621 0.57353 0.0
H207 H 0.89801 0.80293 0.70487 0.0
H208 H 0.86576 0.81227 0.66646 0.0
H209 H 0.87165 0.74279 0.59665 0.0
H210 H 0.7604 0.73215 0.49059 0.0
H211 H 0.78021 0.72381 0.53411 0.0
H212 H 0.78457 0.80421 0.59712 0.0
C213 C 0.86818 0.78539 0.66759 0.0
C214 C 0.85211 0.75558 0.59727 0.0
C215 C 0.88664 0.78003 0.68967 0.0
C216 C 0.7713 0.75725 0.50419 0.0
C217 C 0.78281 0.75243 0.52917 0.0
C218 C 0.80366 0.79089 0.59691 0.0
C219 C 0.85566 0.75779 0.64652 0.0
C220 C 0.84118 0.76581 0.62134 0.0
C221 C 0.79811 0.78419 0.54743 0.0
C222 C 0.81374 0.77941 0.57301 0.0
H223 H 0.88289 0.69261 0.67129 0.0
H224 H 0.84923 0.70078 0.6336 0.0
H225 H 0.80802 0.79226 0.63895 0.0
H226 H 0.79176 0.85423 0.50998 0.0
H227 H 0.81181 0.8456 0.55409 0.0
C228 C 0.158 0.90095 1.02657 0.0
C229 C 0.19692 0.9329 1.02133 0.0
C230 C 0.13164 0.87996 1.00586 0.0
C231 C 0.11455 0.8945 0.9365 0.0
H232 H 0.04856 0.77846 0.93308 0.0
C233 C 0.01033 0.81704 0.84829 0.0
C234 C 0.01336 0.78497 0.83719 0.0
C235 C 0.02624 0.83209 0.87321 0.0
C236 C 0.06675 0.81093 0.93378 0.0
H237 H 0.23921 0.9663 0.9902 0.0
H238 H 0.19376 0.92985 0.95452 0.0
H239 H 0.09053 0.81024 0.97166 0.0
H240 H 0.03347 0.74215 0.84428 0.0
H241 H 0.06118 0.76836 0.88744 0.0
H242 H 0.09204 0.89543 0.89843 0.0
C243 C 0.18315 0.92145 0.9745 0.0
C244 C 0.09055 0.82911 0.95598 0.0
C245 C 0.20935 0.94218 0.99504 0.0
C246 C 0.03073 0.76699 0.85216 0.0
C247 C 0.04643 0.78187 0.87706 0.0
C248 C 0.09069 0.87641 0.91445 0.0
C249 C 0.14368 0.89072 0.97959 0.0
C250 C 0.11543 0.87109 0.95731 0.0
C251 C 0.04533 0.81526 0.88766 0.0
C252 C 0.06702 0.83435 0.91254 0.0
H253 H 0.14745 0.89312 0.0466 0.0
H254 H 0.10141 0.85635 1.01042 0.0
H255 H 0.13287 0.92697 0.93707 0.0
H256 H 0.99711 0.83157 0.83733 0.0
H257 H 0.02438 0.8575 0.88093 0.0
C258 C 0.17308 0.09026 0.09731 0.0
C259 C 0.18685 0.06955 0.08133 0.0
C260 C 0.13777 0.09037 0.09102 0.0
C261 C 0.06796 0.09601 0.0655 0.0
H262 H 0.97752 0.98721 0.06099 0.0
C263 C 0.90608 0.06429 0.0537 0.0
C264 C 0.88156 0.04238 0.07502 0.0
C265 C 0.94247 0.06539 0.04896 0.0
C266 C 1.00255 0.0177 0.06192 0.0
H267 H 0.17575 0.03491 0.04529 0.0
H268 H 0.11373 0.03452 0.03476 0.0
H269 H 0.04607 0.9983 0.06242 0.0
H270 H 0.87423 1.00162 0.10653 0.0
H271 H 0.93741 1.00263 0.09767 0.0
H272 H 0.02441 0.11538 0.06542 0.0
C273 C 0.13037 0.05069 0.05205 0.0
C274 C 0.04167 0.02408 0.06261 0.0
C275 C 0.16601 0.05118 0.05805 0.0
C276 C 0.89252 0.01884 0.09003 0.0
C277 C 0.92862 0.01939 0.08495 0.0
C278 C 0.02889 0.08967 0.06427 0.0
C279 C 0.11536 0.06927 0.06888 0.0
C280 C 0.07463 0.06324 0.06494 0.0
C281 C 0.95459 0.04393 0.06505 0.0
C282 C 0.99583 0.05043 0.06301 0.0
H283 H 0.1885 0.10473 0.11532 0.0
H284 H 0.1267 0.10485 0.10433 0.0
H285 H 0.09291 0.12643 0.06732 0.0
H286 H 0.89858 0.08279 0.04173 0.0
H287 H 0.9619 0.08425 1.03336 0.0
C288 C 0.92717 0.90645 0.42027 0.0
C289 C 0.89259 0.89538 0.40531 0.0
C290 C 0.9629 0.942 0.41482 0.0
C291 C 0.03881 0.0145 0.39211 0.0
H292 H 0.02176 0.10611 0.39343 0.0
C293 C 0.17016 0.17725 0.38687 0.0
C294 C 0.17144 0.20075 0.40863 0.0
C295 C 0.13536 0.14098 0.38127 0.0
C296 C 0.0269 0.08079 0.3928 0.0
H297 H 0.86924 0.91151 0.37168 0.0
H298 H 0.93148 0.97382 0.36254 0.0
H299 H 0.96398 0.03784 0.39217 0.0
H300 H 0.13633 0.20605 0.44033 0.0
H301 H 0.0751 0.14303 0.43005 0.0
H302 H 0.10173 0.05746 0.39328 0.0
C303 C 0.93081 0.95496 0.37846 0.0
C304 C 0.99395 0.04182 0.39189 0.0
C305 C 0.89529 0.91912 0.38363 0.0
C306 C 0.1363 0.18862 0.42348 0.0
C307 C 0.10126 0.1526 0.41758 0.0
C308 C 0.07179 0.05349 0.39255 0.0
C309 C 0.9645 0.96734 0.39453 0.0
C310 C 0.9996 0.00832 0.39207 0.0
C311 C 0.10094 0.12785 0.39697 0.0
C312 C 0.06608 0.08695 0.39344 0.0
H313 H 0.92607 0.88875 0.43704 0.0
H314 H 0.98847 0.95094 0.42754 0.0
H315 H 0.04391 0.98916 0.39227 0.0
H316 H 0.1967 0.18563 0.37502 0.0
H317 H 0.13573 0.12257 0.36514 0.0
C318 C 0.04399 0.18446 0.7204 0.0
C319 C 0.02244 0.18609 0.74243 0.0
C320 C 0.04548 0.14956 0.71467 0.0
C321 C 0.07037 0.08666 0.72668 0.0
H322 H 0.97898 0.97842 0.72574 0.0
C323 C 0.07252 0.9424 0.75613 0.0
C324 C 0.04998 0.90772 0.7408 0.0
C325 C 0.07276 0.97809 0.75035 0.0
C326 C 0.00477 0.00851 0.72562 0.0
H327 H 0.98302 0.15148 0.77438 0.0
H328 H 0.98458 0.08998 0.76377 0.0
H329 H 0.96794 0.03601 0.72641 0.0
H330 H 0.01239 0.88418 0.7062 0.0
H331 H 0.01233 0.94629 0.69652 0.0
H332 H 0.10716 0.0591 0.7273 0.0
C333 C 1.00074 0.11596 0.75124 0.0
C334 C 0.99842 0.04134 0.72616 0.0
C335 C 0.99986 0.15113 0.75731 0.0
C336 C 0.03005 0.9103 0.71847 0.0
C337 C 0.02976 0.94575 0.71297 0.0
C338 C 0.07671 0.0538 0.72665 0.0
C339 C 0.02474 0.11539 0.73046 0.0
C340 C 0.03116 0.08067 0.72701 0.0
C341 C 0.05004 0.97952 0.72935 0.0
C342 C 0.04394 0.01445 0.72643 0.0
H343 H 0.06188 0.2109 0.70857 0.0
H344 H 0.06397 0.14972 0.69844 0.0
H345 H 0.09611 0.11674 0.72759 0.0
H346 H 0.08826 0.94141 0.7734 0.0
H347 H 0.08858 0.00375 0.76332 0.0
C348 C 0.67284 0.06589 0.06777 0.0
C349 C 0.70274 0.10562 0.07335 0.0
C350 C 0.63262 0.05594 0.06552 0.0
C351 C 0.56362 0.09222 0.08604 0.0
H352 H 0.49143 0.0136 0.03561 0.0
C353 C 0.39966 0.05649 0.07509 0.0
C354 C 0.37039 0.01556 0.07338 0.0
C355 C 0.44047 0.06866 0.07289 0.0
C356 C 0.51118 0.03543 0.04992 0.0
H357 H 0.71404 0.16633 0.07995 0.0
H358 H 0.64423 0.14915 0.0756 0.0
H359 H 0.56231 0.03261 0.03557 0.0
H360 H 0.36107 0.95544 0.06738 0.0
H361 H 0.43216 0.97665 0.0637 0.0
H362 H 0.51255 0.09487 0.10052 0.0
C363 C 0.65162 0.12547 0.07352 0.0
C364 C 0.55178 0.04628 0.04991 0.0
C365 C 0.69172 0.13536 0.07585 0.0
C366 C 0.38281 0.98721 0.06881 0.0
C367 C 0.42359 0.99938 0.06653 0.0
C368 C 0.52311 0.08146 0.086 0.0
C369 C 0.62146 0.08554 0.06873 0.0
C370 C 0.57847 0.07469 0.06806 0.0
C371 C 0.45293 0.0402 0.06885 0.0
C372 C 0.49635 0.05279 0.06804 0.0
H373 H 0.68031 0.04224 0.06579 0.0
H374 H 0.61014 0.02483 0.06207 0.0
H375 H 0.58312 0.11363 0.10062 0.0
H376 H 0.39111 0.07912 0.07853 0.0
H377 H 0.46232 0.10039 0.07443 0.0
C378 C 0.65857 0.68991 0.39728 0.0
C379 C 0.65024 0.71848 0.40867 0.0
C380 C 0.62781 0.65012 0.39358 0.0
C381 C 0.52604 0.57764 0.4183 0.0
H382 H 0.52323 0.51397 0.35798 0.0
C383 C 0.39446 0.41705 0.4018 0.0
C384 C 0.40509 0.38777 0.39564 0.0
C385 C 0.42315 0.45796 0.40081 0.0
C386 C 0.52375 0.53135 0.37499 0.0
H387 H 0.60287 0.72804 0.42418 0.0
H388 H 0.54935 0.65921 0.41722 0.0
H389 H 0.57583 0.58448 0.36112 0.0
H390 H 0.45386 0.37863 0.38251 0.0
H391 H 0.50383 0.44997 0.38079 0.0
H392 H 0.47411 0.52462 0.43219 0.0
C393 C 0.5797 0.6671 0.41174 0.0
C394 C 0.55395 0.57172 0.37684 0.0
C395 C 0.61041 0.7067 0.41559 0.0
C396 C 0.44466 0.40038 0.38744 0.0
C397 C 0.4733 0.4413 0.38632 0.0
C398 C 0.49581 0.53745 0.41637 0.0
C399 C 0.58804 0.63811 0.40106 0.0
C400 C 0.55555 0.59535 0.39858 0.0
C401 C 0.46307 0.47053 0.39351 0.0
C402 C 0.49436 0.51376 0.39476 0.0
H403 H 0.68898 0.69802 0.39179 0.0
H404 H 0.63545 0.62854 0.38554 0.0
H405 H 0.52675 0.59458 0.4356 0.0
H406 H 0.36423 0.4084 0.4081 0.0
H407 H 0.4142 0.47978 0.4061 0.0
C408 C 0.9575 0.62535 0.74619 0.0
C409 C 0.9865 0.66607 0.74293 0.0
C410 C 0.96789 0.59542 0.74339 0.0
C411 C 0.04622 0.57499 0.71668 0.0
H412 H 1.00113 0.48807 0.76712 0.0
C413 C 0.10576 0.46421 0.73075 0.0
C414 C 0.07747 0.42365 0.73551 0.0
C415 C 0.0938 0.49313 0.7295 0.0
C416 C 0.01357 0.51181 0.75264 0.0
H417 H 0.0491 0.70723 0.73374 0.0
H418 H 0.06741 0.65499 0.72924 0.0
H419 H 0.98226 0.53988 0.7691 0.0
H420 H 0.01418 0.38152 0.74195 0.0
H421 H 0.99333 0.43194 0.73964 0.0
H422 H 0.07802 0.54703 0.70053 0.0
C423 C 0.03646 0.64614 0.73361 0.0
C424 C 1.00274 0.54156 0.75377 0.0
C425 C 0.02602 0.67613 0.73632 0.0
C426 C 0.03679 0.41251 0.73833 0.0
C427 C 0.02485 0.44145 0.73718 0.0
C428 C 0.05716 0.54524 0.71561 0.0
C429 C 0.00759 0.60543 0.73739 0.0
C430 C 0.01892 0.57356 0.73582 0.0
C431 C 0.05328 0.48218 0.73309 0.0
C432 C 0.04097 0.51331 0.73361 0.0
H433 H 0.9267 0.6165 0.75109 0.0
H434 H 0.94471 0.56436 0.74595 0.0
H435 H 0.05885 0.59889 0.70233 0.0
H436 H 0.13734 0.47384 0.72847 0.0
H437 H 0.1165 0.52428 0.72655 0.0
loop_
_geom_bond_atom_site_label_1
_geom_bond_atom_site_label_2
_geom_bond_distance
_geom_bond_site_symmetry_2
_ccdc_geom_bond_type
Mg0 O7 2.141 . S
Mg0 O8 2.048 . S
Mg0 O9 2.048 . S
Mg0 O12 2.141 . S
C1 O2 1.313 . S
C1 O8 1.195 . S
O2 C1 1.313 . S
C3 O4 1.245 . S
C3 O12 1.289 1_565 S
O4 C3 1.245 . S
C5 O6 1.245 1_545 S
C5 O7 1.289 . S
O6 C5 1.245 1_565 S
O7 Mg0 2.141 . S
O7 C5 1.289 . S
O8 Mg0 2.048 . S
O8 C1 1.195 . S
O9 Mg0 2.048 . S
O9 C10 1.195 . S
C10 O9 1.195 . S
C10 O11 1.313 1_545 S
O11 C10 1.313 1_565 S
O12 Mg0 2.141 . S
O12 C3 1.289 1_545 S
Mg13 O20 2.141 . S
Mg13 O21 2.048 . S
Mg13 O22 2.048 . S
Mg13 O25 2.141 . S
C14 O15 1.313 . S
C14 O21 1.195 . S
O15 C14 1.313 . S
C16 O17 1.245 . S
C16 O25 1.289 . S
O17 C16 1.245 . S
C18 O19 1.245 . S
C18 O20 1.289 . S
O19 C18 1.245 . S
O20 Mg13 2.141 . S
O20 C18 1.289 . S
O21 Mg13 2.048 . S
O21 C14 1.195 . S
O22 Mg13 2.048 . S
O22 C23 1.195 . S
C23 O22 1.195 . S
C23 O24 1.313 . S
O24 C23 1.313 . S
O25 Mg13 2.141 . S
O25 C16 1.289 . S
Mg26 O33 2.141 . S
Mg26 O34 2.040 1_455 S
Mg26 O35 2.048 . S
Mg26 O38 2.141 . S
C27 O28 1.313 . S
C27 O34 1.187 1_455 S
O28 C27 1.313 . S
C29 O30 1.245 . S
C29 O38 1.289 . S
O30 C29 1.245 . S
C31 O32 1.245 . S
C31 O33 1.289 . S
O32 C31 1.245 . S
O33 Mg26 2.141 . S
O33 C31 1.289 . S
O34 Mg26 2.040 1_655 S
O34 C27 1.187 1_655 S
O35 Mg26 2.048 . S
O35 C36 1.195 . S
C36 O35 1.195 . S
C36 O37 1.313 . S
O37 C36 1.313 . S
O38 Mg26 2.141 . S
O38 C29 1.289 . S
Mg39 O46 2.141 . S
Mg39 O47 2.048 . S
Mg39 O48 2.048 . S
Mg39 O51 2.141 . S
C40 O41 1.313 . S
C40 O47 1.195 . S
O41 C40 1.313 . S
C42 O43 1.245 . S
C42 O51 1.289 . S
O43 C42 1.245 . S
C44 O45 1.245 . S
C44 O46 1.289 . S
O45 C44 1.245 . S
O46 Mg39 2.141 . S
O46 C44 1.289 . S
O47 Mg39 2.048 . S
O47 C40 1.195 . S
O48 Mg39 2.048 . S
O48 C49 1.195 . S
C49 O48 1.195 . S
C49 O50 1.313 . S
O50 C49 1.313 . S
O51 Mg39 2.141 . S
O51 C42 1.289 . S
Mg52 O59 2.141 . S
Mg52 O60 2.048 . S
Mg52 O61 2.048 . S
Mg52 O64 2.141 . S
C53 O54 1.313 . S
C53 O60 1.195 . S
O54 C53 1.313 . S
C55 O56 1.245 . S
C55 O64 1.289 . S
O56 C55 1.245 . S
C57 O58 1.245 . S
C57 O59 1.289 . S
O58 C57 1.245 . S
O59 Mg52 2.141 . S
O59 C57 1.289 . S
O60 Mg52 2.048 . S
O60 C53 1.195 . S
O61 Mg52 2.048 . S
O61 C62 1.195 . S
C62 O61 1.195 . S
C62 O63 1.313 . S
O63 C62 1.313 . S
O64 Mg52 2.141 . S
O64 C55 1.289 . S
Mg65 O72 2.141 . S
Mg65 O73 2.048 . S
Mg65 O74 2.048 . S
Mg65 O77 2.141 . S
C66 O67 1.313 . S
C66 O73 1.195 . S
O67 C66 1.313 . S
C68 O69 1.245 . S
C68 O77 1.289 1_655 S
O69 C68 1.245 . S
C70 O71 1.245 1_455 S
C70 O72 1.289 . S
O71 C70 1.245 1_655 S
O72 Mg65 2.141 . S
O72 C70 1.289 . S
O73 Mg65 2.048 . S
O73 C66 1.195 . S
O74 Mg65 2.048 . S
O74 C75 1.195 . S
C75 O74 1.195 . S
C75 O76 1.313 1_455 S
O76 C75 1.313 1_655 S
O77 Mg65 2.141 . S
O77 C68 1.289 1_455 S
C78 C79 1.349 . S
C78 C80 1.327 . S
C78 H103 0.950 . S
C79 C78 1.349 . S
C79 C95 1.349 . S
C80 C78 1.327 . S
C80 C99 1.429 . S
C80 H104 0.950 . S
C81 C98 1.574 . S
C81 C100 1.368 . S
C81 H105 0.949 . S
H82 C86 0.949 . S
C83 C84 1.349 . S
C83 C85 1.327 . S
C83 H106 0.950 . S
C84 C83 1.349 . S
C84 C96 1.349 . S
C85 C83 1.327 . S
C85 C101 1.429 . S
C85 H107 0.950 . S
C86 H82 0.949 . S
C86 C94 1.574 . S
C86 C102 1.368 . S
H87 C95 0.950 . S
H88 C93 0.950 . S
H89 C94 0.949 . S
H90 C96 0.950 . S
H91 C97 0.950 . S
H92 C98 0.949 . S
C93 H88 0.950 . S
C93 C95 1.327 . S
C93 C99 1.429 . S
C94 C86 1.574 . S
C94 H89 0.949 . S
C94 C100 1.368 . S
C95 C79 1.349 . S
C95 H87 0.950 . S
C95 C93 1.327 . S
C96 C84 1.349 . S
C96 H90 0.950 . S
C96 C97 1.327 . S
C97 H91 0.950 . S
C97 C96 1.327 . S
C97 C101 1.429 . S
C98 C81 1.574 . S
C98 H92 0.949 . S
C98 C102 1.368 . S
C99 C80 1.429 . S
C99 C93 1.429 . S
C99 C100 1.523 . S
C100 C81 1.368 . S
C100 C94 1.368 . S
C100 C99 1.523 . S
C101 C85 1.429 . S
C101 C97 1.429 . S
C101 C102 1.523 . S
C102 C86 1.368 . S
C102 C98 1.368 . S
C102 C101 1.523 . S
H103 C78 0.950 . S
H104 C80 0.950 . S
H105 C81 0.949 . S
H106 C83 0.950 . S
H107 C85 0.950 . S
C108 C109 1.349 . S
C108 C110 1.327 . S
C108 H133 0.950 . S
C109 C108 1.349 . S
C109 C125 1.349 . S
C110 C108 1.327 . S
C110 C129 1.429 . S
C110 H134 0.950 . S
C111 C128 1.574 . S
C111 C130 1.368 . S
C111 H135 0.949 . S
H112 C116 0.949 . S
C113 C114 1.349 . S
C113 C115 1.327 . S
C113 H136 0.950 . S
C114 C113 1.349 . S
C114 C126 1.349 . S
C115 C113 1.327 . S
C115 C131 1.429 . S
C115 H137 0.950 . S
C116 H112 0.949 . S
C116 C124 1.574 . S
C116 C132 1.368 . S
H117 C125 0.950 . S
H118 C123 0.950 . S
H119 C124 0.949 . S
H120 C126 0.950 . S
H121 C127 0.950 . S
H122 C128 0.949 . S
C123 H118 0.950 . S
C123 C125 1.327 . S
C123 C129 1.429 . S
C124 C116 1.574 . S
C124 H119 0.949 . S
C124 C130 1.368 . S
C125 C109 1.349 . S
C125 H117 0.950 . S
C125 C123 1.327 . S
C126 C114 1.349 . S
C126 H120 0.950 . S
C126 C127 1.327 . S
C127 H121 0.950 . S
C127 C126 1.327 . S
C127 C131 1.429 . S
C128 C111 1.574 . S
C128 H122 0.949 . S
C128 C132 1.368 . S
C129 C110 1.429 . S
C129 C123 1.429 . S
C129 C130 1.523 . S
C130 C111 1.368 . S
C130 C124 1.368 . S
C130 C129 1.523 . S
C131 C115 1.429 . S
C131 C127 1.429 . S
C131 C132 1.523 . S
C132 C116 1.368 . S
C132 C128 1.368 . S
C132 C131 1.523 . S
H133 C108 0.950 . S
H134 C110 0.950 . S
H135 C111 0.949 . S
H136 C113 0.950 . S
H137 C115 0.950 . S
C138 C139 1.349 . S
C138 C140 1.327 . S
C138 H163 0.950 . S
C139 C138 1.349 . S
C139 C155 1.349 . S
C140 C138 1.327 . S
C140 C159 1.429 . S
C140 H164 0.950 . S
C141 C158 1.574 . S
C141 C160 1.368 . S
C141 H165 0.949 . S
H142 C146 0.949 . S
C143 C144 1.349 . S
C143 C145 1.327 . S
C143 H166 0.950 . S
C144 C143 1.349 . S
C144 C156 1.349 1_655 S
C145 C143 1.327 . S
C145 C161 1.429 . S
C145 H167 0.950 . S
C146 H142 0.949 . S
C146 C154 1.574 . S
C146 C162 1.368 . S
H147 C155 0.950 . S
H148 C153 0.950 . S
H149 C154 0.949 . S
H150 C156 0.950 . S
H151 C157 0.950 . S
H152 C158 0.949 . S
C153 H148 0.950 . S
C153 C155 1.327 . S
C153 C159 1.429 . S
C154 C146 1.574 . S
C154 H149 0.949 . S
C154 C160 1.368 . S
C155 C139 1.349 . S
C155 H147 0.950 . S
C155 C153 1.327 . S
C156 C144 1.349 1_455 S
C156 H150 0.950 . S
C156 C157 1.327 1_455 S
C157 H151 0.950 . S
C157 C156 1.327 1_655 S
C157 C161 1.429 . S
C158 C141 1.574 . S
C158 H152 0.949 . S
C158 C162 1.368 . S
C159 C140 1.429 . S
C159 C153 1.429 . S
C159 C160 1.523 . S
C160 C141 1.368 . S
C160 C154 1.368 . S
C160 C159 1.523 . S
C161 C145 1.429 . S
C161 C157 1.429 . S
C161 C162 1.523 . S
C162 C146 1.368 . S
C162 C158 1.368 . S
C162 C161 1.523 . S
H163 C138 0.950 . S
H164 C140 0.950 . S
H165 C141 0.949 . S
H166 C143 0.950 . S
H167 C145 0.950 . S
C168 C169 1.355 1_565 S
C168 C170 1.337 . S
C168 H193 0.934 1_565 S
C169 C168 1.355 1_545 S
C169 C185 1.349 1_545 S
C170 C168 1.337 . S
C170 C189 1.429 . S
C170 H194 0.950 . S
C171 C188 1.574 . S
C171 C190 1.368 . S
C171 H195 0.949 . S
H172 C176 0.949 . S
C173 C174 1.349 . S
C173 C175 1.327 . S
C173 H196 0.950 . S
C174 C173 1.349 . S
C174 C186 1.349 . S
C175 C173 1.327 . S
C175 C191 1.429 . S
C175 H197 0.950 . S
C176 H172 0.949 . S
C176 C184 1.574 . S
C176 C192 1.368 . S
H177 C185 0.950 . S
H178 C183 0.950 . S
H179 C184 0.949 . S
H180 C186 0.950 . S
H181 C187 0.950 . S
H182 C188 0.949 . S
C183 H178 0.950 . S
C183 C185 1.327 . S
C183 C189 1.429 . S
C184 C176 1.574 . S
C184 H179 0.949 . S
C184 C190 1.368 . S
C185 C169 1.349 1_565 S
C185 H177 0.950 . S
C185 C183 1.327 . S
C186 C174 1.349 . S
C186 H180 0.950 . S
C186 C187 1.327 . S
C187 H181 0.950 . S
C187 C186 1.327 . S
C187 C191 1.429 . S
C188 C171 1.574 . S
C188 H182 0.949 . S
C188 C192 1.368 . S
C189 C170 1.429 . S
C189 C183 1.429 . S
C189 C190 1.523 . S
C190 C171 1.368 . S
C190 C184 1.368 . S
C190 C189 1.523 . S
C191 C175 1.429 . S
C191 C187 1.429 . S
C191 C192 1.523 . S
C192 C176 1.368 . S
C192 C188 1.368 . S
C192 C191 1.523 . S
H193 C168 0.934 1_545 S
H194 C170 0.950 . S
H195 C171 0.949 . S
H196 C173 0.950 . S
H197 C175 0.950 . S
C198 C199 1.349 . S
C198 C200 1.327 . S
C198 H223 0.950 . S
C199 C198 1.349 . S
C199 C215 1.349 . S
C200 C198 1.327 . S
C200 C219 1.429 . S
C200 H224 0.950 . S
C201 C218 1.574 . S
C201 C220 1.368 . S
C201 H225 0.949 . S
H202 C206 0.949 . S
C203 C204 1.349 . S
C203 C205 1.327 . S
C203 H226 0.950 . S
C204 C203 1.349 . S
C204 C216 1.349 . S
C205 C203 1.327 . S
C205 C221 1.429 . S
C205 H227 0.950 . S
C206 H202 0.949 . S
C206 C214 1.574 . S
C206 C222 1.368 . S
H207 C215 0.950 1_455 S
H208 C213 0.950 . S
H209 C214 0.949 . S
H210 C216 0.950 . S
H211 C217 0.950 . S
H212 C218 0.949 . S
C213 H208 0.950 . S
C213 C215 1.327 . S
C213 C219 1.429 . S
C214 C206 1.574 . S
C214 H209 0.949 . S
C214 C220 1.368 . S
C215 C199 1.349 . S
C215 H207 0.950 1_655 S
C215 C213 1.327 . S
C216 C204 1.349 . S
C216 H210 0.950 . S
C216 C217 1.327 . S
C217 H211 0.950 . S
C217 C216 1.327 . S
C217 C221 1.429 . S
C218 C201 1.574 . S
C218 H212 0.949 . S
C218 C222 1.368 . S
C219 C200 1.429 . S
C219 C213 1.429 . S
C219 C220 1.523 . S
C220 C201 1.368 . S
C220 C214 1.368 . S
C220 C219 1.523 . S
C221 C205 1.429 . S
C221 C217 1.429 . S
C221 C222 1.523 . S
C222 C206 1.368 . S
C222 C218 1.368 . S
C222 C221 1.523 . S
H223 C198 0.950 . S
H224 C200 0.950 . S
H225 C201 0.949 . S
H226 C203 0.950 . S
H227 C205 0.950 . S
C228 C229 1.349 . S
C228 C230 1.327 . S
C228 H253 0.950 . S
C229 C228 1.349 . S
C229 C245 1.349 . S
C230 C228 1.327 . S
C230 C249 1.429 . S
C230 H254 0.950 . S
C231 C248 1.574 . S
C231 C250 1.368 . S
C231 H255 0.949 . S
H232 C236 0.949 . S
C233 C234 1.349 . S
C233 C235 1.327 . S
C233 H256 0.950 . S
C234 C233 1.349 . S
C234 C246 1.349 . S
C235 C233 1.327 . S
C235 C251 1.429 . S
C235 H257 0.950 . S
C236 H232 0.949 . S
C236 C244 1.574 . S
C236 C252 1.368 . S
H237 C245 0.950 . S
H238 C243 0.950 . S
H239 C244 0.949 . S
H240 C246 0.950 . S
H241 C247 0.950 . S
H242 C248 0.949 . S
C243 H238 0.950 . S
C243 C245 1.327 . S
C243 C249 1.429 . S
C244 C236 1.574 . S
C244 H239 0.949 . S
C244 C250 1.368 . S
C245 C229 1.349 . S
C245 H237 0.950 . S
C245 C243 1.327 . S
C246 C234 1.349 . S
C246 H240 0.950 . S
C246 C247 1.327 . S
C247 H241 0.950 . S
C247 C246 1.327 . S
C247 C251 1.429 . S
C248 C231 1.574 . S
C248 H242 0.949 . S
C248 C252 1.368 . S
C249 C230 1.429 . S
C249 C243 1.429 . S
C249 C250 1.523 . S
C250 C231 1.368 . S
C250 C244 1.368 . S
C250 C249 1.523 . S
C251 C235 1.429 . S
C251 C247 1.429 . S
C251 C252 1.523 . S
C252 C236 1.368 . S
C252 C248 1.368 . S
C252 C251 1.523 . S
H253 C228 0.950 . S
H254 C230 0.950 . S
H255 C231 0.949 . S
H256 C233 0.950 . S
H257 C235 0.950 . S
C258 C259 1.349 . S
C258 C260 1.327 . S
C258 H283 0.950 . S
C259 C258 1.349 . S
C259 C275 1.349 . S
C260 C258 1.327 . S
C260 C279 1.429 . S
C260 H284 0.950 . S
C261 C278 1.574 1_455 S
C261 C280 1.368 . S
C261 H285 0.949 . S
H262 C266 0.949 . S
C263 C264 1.349 . S
C263 C265 1.327 . S
C263 H286 0.950 . S
C264 C263 1.349 . S
C264 C276 1.349 . S
C265 C263 1.327 . S
C265 C281 1.429 . S
C265 H287 0.950 . S
C266 H262 0.949 . S
C266 C274 1.574 . S
C266 C282 1.368 1_455 S
H267 C275 0.950 1_565 S
H268 C273 0.952 . S
H269 C274 0.949 . S
H270 C276 0.950 . S
H271 C277 0.950 . S
H272 C278 0.949 . S
C273 H268 0.952 . S
C273 C275 1.327 . S
C273 C279 1.429 . S
C274 C266 1.574 . S
C274 H269 0.949 . S
C274 C280 1.368 . S
C275 C259 1.349 . S
C275 H267 0.950 1_545 S
C275 C273 1.327 . S
C276 C264 1.349 . S
C276 H270 0.950 . S
C276 C277 1.327 . S
C277 H271 0.950 . S
C277 C276 1.327 . S
C277 C281 1.429 . S
C278 C261 1.574 1_655 S
C278 H272 0.949 . S
C278 C282 1.368 . S
C279 C260 1.429 . S
C279 C273 1.429 . S
C279 C280 1.523 . S
C280 C261 1.368 . S
C280 C274 1.368 . S
C280 C279 1.523 . S
C281 C265 1.429 . S
C281 C277 1.429 . S
C281 C282 1.523 . S
C282 C266 1.368 1_655 S
C282 C278 1.368 . S
C282 C281 1.523 . S
H283 C258 0.950 . S
H284 C260 0.950 . S
H285 C261 0.949 . S
H286 C263 0.950 . S
H287 C265 0.950 . S
C288 C289 1.349 . S
C288 C290 1.327 . S
C288 H313 0.950 . S
C289 C288 1.349 . S
C289 C305 1.349 . S
C290 C288 1.327 . S
C290 C309 1.429 . S
C290 H314 0.950 . S
C291 C308 1.574 1_655 S
C291 C310 1.368 . S
C291 H315 0.949 . S
H292 C296 0.949 . S
C293 C294 1.349 . S
C293 C295 1.327 . S
C293 H316 0.950 . S
C294 C293 1.349 . S
C294 C306 1.349 . S
C295 C293 1.327 . S
C295 C311 1.429 . S
C295 H317 0.950 . S
C296 H292 0.949 . S
C296 C304 1.574 . S
C296 C312 1.368 . S
H297 C305 0.950 . S
H298 C303 0.950 . S
H299 C304 0.949 1_565 S
H300 C306 0.950 . S
H301 C307 0.950 . S
H302 C308 0.949 . S
C303 H298 0.950 . S
C303 C305 1.327 . S
C303 C309 1.429 . S
C304 C296 1.574 . S
C304 H299 0.949 1_545 S
C304 C310 1.368 1_455 S
C305 C289 1.349 . S
C305 H297 0.950 . S
C305 C303 1.327 . S
C306 C294 1.349 . S
C306 H300 0.950 . S
C306 C307 1.327 . S
C307 H301 0.950 . S
C307 C306 1.327 . S
C307 C311 1.429 . S
C308 C291 1.574 1_455 S
C308 H302 0.949 . S
C308 C312 1.368 . S
C309 C290 1.429 . S
C309 C303 1.429 . S
C309 C310 1.523 1_565 S
C310 C291 1.368 . S
C310 C304 1.368 1_655 S
C310 C309 1.523 1_545 S
C311 C295 1.429 . S
C311 C307 1.429 . S
C311 C312 1.523 . S
C312 C296 1.368 . S
C312 C308 1.368 . S
C312 C311 1.523 . S
H313 C288 0.950 . S
H314 C290 0.950 . S
H315 C291 0.949 . S
H316 C293 0.950 . S
H317 C295 0.950 . S
C318 C319 1.349 . S
C318 C320 1.327 . S
C318 H343 0.950 . S
C319 C318 1.349 . S
C319 C335 1.349 . S
C320 C318 1.327 . S
C320 C339 1.429 . S
C320 H344 0.950 . S
C321 C338 1.574 . S
C321 C340 1.368 . S
C321 H345 0.949 1_455 S
H322 C326 0.949 . S
C323 C324 1.349 1_655 S
C323 C325 1.327 . S
C323 H346 0.950 . S
C324 C323 1.349 1_455 S
C324 C336 1.349 . S
C325 C323 1.327 . S
C325 C341 1.429 1_655 S
C325 H347 0.950 . S
C326 H322 0.949 . S
C326 C334 1.574 . S
C326 C342 1.368 . S
H327 C335 0.950 . S
H328 C333 0.955 . S
H329 C334 0.949 . S
H330 C336 0.950 . S
H331 C337 0.950 . S
H332 C338 0.949 1_665 S
C333 H328 0.955 . S
C333 C335 1.327 . S
C333 C339 1.429 . S
C334 C326 1.574 . S
C334 H329 0.949 . S
C334 C340 1.368 . S
C335 C319 1.349 . S
C335 H327 0.950 . S
C335 C333 1.327 . S
C336 C324 1.349 . S
C336 H330 0.950 . S
C336 C337 1.327 . S
C337 H331 0.950 . S
C337 C336 1.327 . S
C337 C341 1.429 . S
C338 C321 1.574 . S
C338 H332 0.949 1_445 S
C338 C342 1.368 . S
C339 C320 1.429 . S
C339 C333 1.429 . S
C339 C340 1.523 . S
C340 C321 1.368 . S
C340 C334 1.368 . S
C340 C339 1.523 . S
C341 C325 1.429 1_455 S
C341 C337 1.429 . S
C341 C342 1.523 1_565 S
C342 C326 1.368 . S
C342 C338 1.368 . S
C342 C341 1.523 1_545 S
H343 C318 0.950 . S
H344 C320 0.950 . S
H345 C321 0.949 1_655 S
H346 C323 0.950 . S
H347 C325 0.950 . S
C348 C349 1.349 . S
C348 C350 1.327 . S
C348 H373 0.950 . S
C349 C348 1.349 . S
C349 C365 1.349 . S
C350 C348 1.327 . S
C350 C369 1.429 . S
C350 H374 0.950 . S
C351 C368 1.574 . S
C351 C370 1.368 . S
C351 H375 0.949 . S
H352 C356 0.949 . S
C353 C354 1.349 . S
C353 C355 1.327 . S
C353 H376 0.950 . S
C354 C353 1.349 . S
C354 C366 1.349 . S
C355 C353 1.327 . S
C355 C371 1.429 . S
C355 H377 0.950 . S
C356 H352 0.949 . S
C356 C364 1.574 . S
C356 C372 1.368 . S
H357 C365 0.950 . S
H358 C363 0.950 . S
H359 C364 0.949 . S
H360 C366 0.950 1_565 S
H361 C367 0.972 . S
H362 C368 0.949 . S
C363 H358 0.950 . S
C363 C365 1.327 . S
C363 C369 1.429 . S
C364 C356 1.574 . S
C364 H359 0.949 . S
C364 C370 1.368 . S
C365 C349 1.349 . S
C365 H357 0.950 . S
C365 C363 1.327 . S
C366 C354 1.349 . S
C366 H360 0.950 1_545 S
C366 C367 1.327 . S
C367 H361 0.972 . S
C367 C366 1.327 . S
C367 C371 1.429 . S
C368 C351 1.574 . S
C368 H362 0.949 . S
C368 C372 1.368 . S
C369 C350 1.429 . S
C369 C363 1.429 . S
C369 C370 1.523 . S
C370 C351 1.368 . S
C370 C364 1.368 . S
C370 C369 1.523 . S
C371 C355 1.429 . S
C371 C367 1.429 . S
C371 C372 1.523 . S
C372 C356 1.368 . S
C372 C368 1.368 . S
C372 C371 1.523 . S
H373 C348 0.950 . S
H374 C350 0.950 . S
H375 C351 0.949 . S
H376 C353 0.950 . S
H377 C355 0.950 . S
C378 C379 1.349 . S
C378 C380 1.327 . S
C378 H403 0.950 . S
C379 C378 1.349 . S
C379 C395 1.349 . S
C380 C378 1.327 . S
C380 C399 1.429 . S
C380 H404 0.950 . S
C381 C398 1.574 . S
C381 C400 1.368 . S
C381 H405 0.949 . S
H382 C386 0.949 . S
C383 C384 1.349 . S
C383 C385 1.327 . S
C383 H406 0.950 . S
C384 C383 1.349 . S
C384 C396 1.349 . S
C385 C383 1.327 . S
C385 C401 1.429 . S
C385 H407 0.950 . S
C386 H382 0.949 . S
C386 C394 1.574 . S
C386 C402 1.368 . S
H387 C395 0.950 . S
H388 C393 0.950 . S
H389 C394 0.949 . S
H390 C396 0.950 . S
H391 C397 0.950 . S
H392 C398 0.949 . S
C393 H388 0.950 . S
C393 C395 1.327 . S
C393 C399 1.429 . S
C394 C386 1.574 . S
C394 H389 0.949 . S
C394 C400 1.368 . S
C395 C379 1.349 . S
C395 H387 0.950 . S
C395 C393 1.327 . S
C396 C384 1.349 . S
C396 H390 0.950 . S
C396 C397 1.327 . S
C397 H391 0.950 . S
C397 C396 1.327 . S
C397 C401 1.429 . S
C398 C381 1.574 . S
C398 H392 0.949 . S
C398 C402 1.368 . S
C399 C380 1.429 . S
C399 C393 1.429 . S
C399 C400 1.523 . S
C400 C381 1.368 . S
C400 C394 1.368 . S
C400 C399 1.523 . S
C401 C385 1.429 . S
C401 C397 1.429 . S
C401 C402 1.523 . S
C402 C386 1.368 . S
C402 C398 1.368 . S
C402 C401 1.523 . S
H403 C378 0.950 . S
H404 C380 0.950 . S
H405 C381 0.949 . S
H406 C383 0.950 . S
H407 C385 0.950 . S
C408 C409 1.349 1_655 S
C408 C410 1.327 . S
C408 H433 0.950 . S
C409 C408 1.349 1_455 S
C409 C425 1.349 . S
C410 C408 1.327 . S
C410 C429 1.429 1_655 S
C410 H434 0.950 . S
C411 C428 1.574 . S
C411 C430 1.368 . S
C411 H435 0.949 . S
H412 C416 0.949 1_655 S
C413 C414 1.349 . S
C413 C415 1.327 . S
C413 H436 0.950 . S
C414 C413 1.349 . S
C414 C426 1.349 . S
C415 C413 1.327 . S
C415 C431 1.429 . S
C415 H437 0.950 . S
C416 H412 0.949 1_455 S
C416 C424 1.574 . S
C416 C432 1.368 . S
H417 C425 0.950 . S
H418 C423 0.950 . S
H419 C424 0.949 1_655 S
H420 C426 0.950 . S
H421 C427 0.950 . S
H422 C428 0.949 . S
C423 H418 0.950 . S
C423 C425 1.327 . S
C423 C429 1.429 . S
C424 C416 1.574 . S
C424 H419 0.949 1_455 S
C424 C430 1.368 . S
C425 C409 1.349 . S
C425 H417 0.950 . S
C425 C423 1.327 . S
C426 C414 1.349 . S
C426 H420 0.950 . S
C426 C427 1.327 . S
C427 H421 0.950 . S
C427 C426 1.327 . S
C427 C431 1.429 . S
C428 C411 1.574 . S
C428 H422 0.949 . S
C428 C432 1.368 . S
C429 C410 1.429 1_455 S
C429 C423 1.429 . S
C429 C430 1.523 . S
C430 C411 1.368 . S
C430 C424 1.368 . S
C430 C429 1.523 . S
C431 C415 1.429 . S
C431 C427 1.429 . S
C431 C432 1.523 . S
C432 C416 1.368 . S
C432 C428 1.368 . S
C432 C431 1.523 . S
H433 C408 0.950 . S
H434 C410 0.950 . S
H435 C411 0.949 . S
H436 C413 0.950 . S
H437 C415 0.950 . S
C79 C1 1.747 . S
C84 C16 1.744 . S
C109 C14 1.747 . S
C114 C29 1.744 . S
C139 C42 1.744 1_556 S
C144 C27 1.747 1_655 S
C169 C40 1.747 . S
C174 C55 1.744 . S
C199 C68 1.744 . S
C204 C53 1.747 . S
C229 C3 1.744 1_556 S
C234 C66 1.747 . S
C259 C10 0.856 . S
C264 C49 0.856 . S
C289 C62 0.856 . S
C294 C23 0.856 . S
C319 C36 0.856 . S
C324 C75 0.856 . S
C349 C44 1.431 . S
C354 C5 1.431 . S
C379 C57 1.431 . S
C384 C18 1.431 . S
C409 C70 1.431 . S
C414 C31 1.431 . S
