# Generated by pormake.
# Topology uos, (4)-cn, num edge types: 1
# Building blocks:
#     Node 0, Type 0, BuildingBlock: QUQFOY_clean_sbu_3, # of connection points: 4
#     Node 1, Type 0, BuildingBlock: QUQFOY_clean_sbu_3, # of connection points: 4
#     Node 2, Type 0, BuildingBlock: QUQFOY_clean_sbu_3, # of connection points: 4
#     Node 3, Type 0, BuildingBlock: QUQFOY_clean_sbu_3, # of connection points: 4
#     Node 4, Type 0, BuildingBlock: QUQFOY_clean_sbu_3, # of connection points: 4
#     Node 5, Type 0, BuildingBlock: QUQFOY_clean_sbu_3, # of connection points: 4
#     Node 6, Type 0, BuildingBlock: QUQFOY_clean_sbu_3, # of connection points: 4
#     Node 7, Type 0, BuildingBlock: QUQFOY_clean_sbu_3, # of connection points: 4
#     Node 8, Type 0, BuildingBlock: QUQFOY_clean_sbu_3, # of connection points: 4
#     Node 9, Type 0, BuildingBlock: QUQFOY_clean_sbu_3, # of connection points: 4
#     Node 10, Type 0, BuildingBlock: QUQFOY_clean_sbu_3, # of connection points: 4
#     Node 11, Type 0, BuildingBlock: QUQFOY_clean_sbu_3, # of connection points: 4
#     Node 12, Type 0, BuildingBlock: QUQFOY_clean_sbu_3, # of connection points: 4
#     Node 13, Type 0, BuildingBlock: QUQFOY_clean_sbu_3, # of connection points: 4
#     Node 14, Type 0, BuildingBlock: QUQFOY_clean_sbu_3, # of connection points: 4
#     Node 15, Type 0, BuildingBlock: QUQFOY_clean_sbu_3, # of connection points: 4
#     Node 16, Type 0, BuildingBlock: QUQFOY_clean_sbu_3, # of connection points: 4
#     Node 17, Type 0, BuildingBlock: QUQFOY_clean_sbu_3, # of connection points: 4
#     Node 18, Type 0, BuildingBlock: QUQFOY_clean_sbu_3, # of connection points: 4
#     Node 19, Type 0, BuildingBlock: QUQFOY_clean_sbu_3, # of connection points: 4
#     Node 20, Type 0, BuildingBlock: QUQFOY_clean_sbu_3, # of connection points: 4
#     Node 21, Type 0, BuildingBlock: QUQFOY_clean_sbu_3, # of connection points: 4
#     Node 22, Type 0, BuildingBlock: QUQFOY_clean_sbu_3, # of connection points: 4
#     Node 23, Type 0, BuildingBlock: QUQFOY_clean_sbu_3, # of connection points: 4
#     Node 24, Type 0, BuildingBlock: QUQFOY_clean_sbu_3, # of connection points: 4
#     Node 25, Type 0, BuildingBlock: QUQFOY_clean_sbu_3, # of connection points: 4
#     Node 26, Type 0, BuildingBlock: QUQFOY_clean_sbu_3, # of connection points: 4
#     Node 27, Type 0, BuildingBlock: QUQFOY_clean_sbu_3, # of connection points: 4
#     Node 28, Type 0, BuildingBlock: QUQFOY_clean_sbu_3, # of connection points: 4
#     Node 29, Type 0, BuildingBlock: QUQFOY_clean_sbu_3, # of connection points: 4
#     Node 30, Type 0, BuildingBlock: QUQFOY_clean_sbu_3, # of connection points: 4
#     Node 31, Type 0, BuildingBlock: QUQFOY_clean_sbu_3, # of connection points: 4
#     Edge 32, Type (0, 0), None
#     Edge 33, Type (0, 0), None
#     Edge 34, Type (0, 0), None
#     Edge 35, Type (0, 0), None
#     Edge 36, Type (0, 0), None
#     Edge 37, Type (0, 0), None
#     Edge 38, Type (0, 0), None
#     Edge 39, Type (0, 0), None
#     Edge 40, Type (0, 0), None
#     Edge 41, Type (0, 0), None
#     Edge 42, Type (0, 0), None
#     Edge 43, Type (0, 0), None
#     Edge 44, Type (0, 0), None
#     Edge 45, Type (0, 0), None
#     Edge 46, Type (0, 0), None
#     Edge 47, Type (0, 0), None
#     Edge 48, Type (0, 0), None
#     Edge 49, Type (0, 0), None
#     Edge 50, Type (0, 0), None
#     Edge 51, Type (0, 0), None
#     Edge 52, Type (0, 0), None
#     Edge 53, Type (0, 0), None
#     Edge 54, Type (0, 0), None
#     Edge 55, Type (0, 0), None
#     Edge 56, Type (0, 0), None
#     Edge 57, Type (0, 0), None
#     Edge 58, Type (0, 0), None
#     Edge 59, Type (0, 0), None
#     Edge 60, Type (0, 0), None
#     Edge 61, Type (0, 0), None
#     Edge 62, Type (0, 0), None
#     Edge 63, Type (0, 0), None
#     Edge 64, Type (0, 0), None
#     Edge 65, Type (0, 0), None
#     Edge 66, Type (0, 0), None
#     Edge 67, Type (0, 0), None
#     Edge 68, Type (0, 0), None
#     Edge 69, Type (0, 0), None
#     Edge 70, Type (0, 0), None
#     Edge 71, Type (0, 0), None
#     Edge 72, Type (0, 0), None
#     Edge 73, Type (0, 0), None
#     Edge 74, Type (0, 0), None
#     Edge 75, Type (0, 0), None
#     Edge 76, Type (0, 0), None
#     Edge 77, Type (0, 0), None
#     Edge 78, Type (0, 0), None
#     Edge 79, Type (0, 0), None
#     Edge 80, Type (0, 0), None
#     Edge 81, Type (0, 0), None
#     Edge 82, Type (0, 0), None
#     Edge 83, Type (0, 0), None
#     Edge 84, Type (0, 0), None
#     Edge 85, Type (0, 0), None
#     Edge 86, Type (0, 0), None
#     Edge 87, Type (0, 0), None
#     Edge 88, Type (0, 0), None
#     Edge 89, Type (0, 0), None
#     Edge 90, Type (0, 0), None
#     Edge 91, Type (0, 0), None
#     Edge 92, Type (0, 0), None
#     Edge 93, Type (0, 0), None
#     Edge 94, Type (0, 0), None
#     Edge 95, Type (0, 0), None
# Relax obj value: 0.039
# Max RMSD: 0.070
# Mean RMSD: 0.070
data_MOF--net-uos--node1-QUQFOY_clean_sbu_3--edge1-none
_symmetry_space_group_name_H-M    P1
_symmetry_Int_Tables_number       1
_symmetry_cell_setting            triclinic
loop_
_symmetry_equiv_pos_as_xyz
'x, y, z'
_cell_length_a     43.670809
_cell_length_b     43.671283
_cell_length_c     11.418695
_cell_angle_alpha  90.000273
_cell_angle_beta   90.009905
_cell_angle_gamma 89.999914
loop_
_atom_site_label
_atom_site_type_symbol
_atom_site_fract_x
_atom_site_fract_y
_atom_site_fract_z
_atom_type_partial_charge
C0 C 0.11443 0.18262 0.21276 0.0
O1 O 0.11676 0.17044 0.31319 0.0
Cd2 Cd 0.11745 0.12024 0.38013 0.0
O3 O 0.11203 0.16614 0.12049 0.0
Cd4 Cd 0.11191 0.10743 0.11251 0.0
C5 C 0.18272 0.10353 0.23383 0.0
O6 O 0.0765 0.10075 0.26775 0.0
O7 O 0.11082 0.06541 0.25895 0.0
O8 O 0.07286 0.10367 0.9559 0.0
C9 C 0.08656 0.07561 0.30552 0.0
O10 O 0.16925 0.10476 0.33237 0.0
C11 C 0.08429 0.0802 0.90704 0.0
O12 O 0.16782 0.1061 0.13803 0.0
O13 O 0.10974 0.07078 0.94699 0.0
C14 C -0.03365 0.8644 0.46273 0.0
O15 O -0.02147 0.86673 0.56316 0.0
Cd16 Cd 0.02873 0.86742 0.63008 0.0
O17 O -0.01717 0.86201 0.37046 0.0
Cd18 Cd 0.04154 0.86189 0.36249 0.0
C19 C 0.04544 0.93269 0.48382 0.0
O20 O 0.04822 0.82647 0.51778 0.0
O21 O 0.08357 0.8608 0.50895 0.0
O22 O 0.0453 0.82284 0.20588 0.0
C23 C 0.07337 0.83654 0.55541 0.0
O24 O 0.04421 0.91922 0.58236 0.0
C25 C 0.06876 0.83427 0.15703 0.0
O26 O 0.04287 0.9178 0.38801 0.0
O27 O 0.07819 0.85972 0.19697 0.0
C28 C 0.28457 0.71632 0.71269 0.0
O29 O 0.28225 0.7285 0.81312 0.0
Cd30 Cd 0.28156 0.77869 0.88006 0.0
O31 O 0.28695 0.7328 0.62042 0.0
Cd32 Cd 0.28706 0.79152 0.61246 0.0
C33 C 0.21627 0.79541 0.73381 0.0
O34 O 0.3225 0.79819 0.76782 0.0
O35 O 0.28815 0.83353 0.75891 0.0
O36 O 0.32612 0.79528 0.45589 0.0
C37 C 0.31242 0.82335 0.80531 0.0
O38 O 0.22975 0.79417 0.83235 0.0
C39 C 0.31469 0.81874 0.407 0.0
O40 O 0.23116 0.79284 0.638 0.0
O41 O 0.28924 0.82815 0.4469 0.0
C42 C 0.43267 0.03454 0.96273 0.0
O43 O 0.42049 0.03221 0.06316 0.0
Cd44 Cd 0.3703 0.03153 0.13007 0.0
O45 O 0.41618 0.03693 0.87046 0.0
Cd46 Cd 0.35747 0.03705 0.86251 0.0
C47 C 0.35356 -0.03375 -0.01617 0.0
O48 O 0.35079 0.07248 0.0178 0.0
O49 O 0.31545 0.03814 0.00895 0.0
O50 O 0.3537 0.07611 0.70593 0.0
C51 C 0.32564 0.0624 0.05541 0.0
O52 O 0.3548 -0.02028 0.08237 0.0
C53 C 0.33024 0.06467 0.65703 0.0
O54 O 0.35613 -0.01885 0.88803 0.0
O55 O 0.32082 0.03922 0.69694 0.0
C56 C 0.11442 0.7163 0.75313 0.0
O57 O 0.11674 0.72847 0.65268 0.0
Cd58 Cd 0.11744 0.77866 0.58563 0.0
O59 O 0.11204 0.7328 0.84537 0.0
Cd60 Cd 0.11192 0.79151 0.85325 0.0
C61 C 0.18272 0.79541 0.73188 0.0
O62 O 0.0765 0.79818 0.69789 0.0
O63 O 0.11084 0.83353 0.70678 0.0
O64 O 0.07285 0.79529 0.00977 0.0
C65 C 0.08659 0.82332 0.66025 0.0
O66 O 0.16924 0.79415 0.63334 0.0
C67 C 0.08429 0.81875 0.05867 0.0
O68 O 0.16783 0.79284 0.8277 0.0
O69 O 0.10974 0.82816 0.0188 0.0
C70 C 0.43265 0.8644 0.00308 0.0
O71 O 0.42048 0.86673 0.90263 0.0
Cd72 Cd 0.37029 0.86742 0.83561 0.0
O73 O 0.41616 0.86201 0.09532 0.0
Cd74 Cd 0.35744 0.8619 0.10322 0.0
C75 C 0.35355 0.9327 0.98189 0.0
O76 O 0.35079 0.82648 0.94783 0.0
O77 O 0.31542 0.86081 0.95674 0.0
O78 O 0.35368 0.82283 0.25978 0.0
C79 C 0.32563 0.83656 0.91027 0.0
O80 O 0.35479 0.91923 0.88335 0.0
C81 C 0.33021 0.83426 0.30864 0.0
O82 O 0.35612 0.9178 0.0777 0.0
O83 O 0.3208 0.85971 0.26873 0.0
C84 C 0.28456 0.18263 0.25308 0.0
O85 O 0.28223 0.17047 0.15263 0.0
Cd86 Cd 0.28154 0.12028 0.08563 0.0
O87 O 0.28696 0.16614 0.34532 0.0
Cd88 Cd 0.28708 0.10743 0.3532 0.0
C89 C 0.21628 0.10353 0.23189 0.0
O90 O 0.3225 0.10077 0.19787 0.0
O91 O 0.28818 0.06541 0.20673 0.0
O92 O 0.32615 0.10366 0.50978 0.0
C93 C 0.31242 0.07562 0.16023 0.0
O94 O 0.22974 0.10477 0.13334 0.0
C95 C 0.31472 0.0802 0.55865 0.0
O96 O 0.23118 0.10609 0.3277 0.0
O97 O 0.28927 0.07078 0.51872 0.0
C98 C -0.03367 0.03454 0.5031 0.0
O99 O -0.02151 0.03221 0.40266 0.0
Cd100 Cd 0.02869 0.03152 0.33563 0.0
O101 O -0.01717 0.03693 0.59534 0.0
Cd102 Cd 0.04153 0.03705 0.60321 0.0
C103 C 0.04544 -0.03375 0.48188 0.0
O104 O 0.0482 0.07246 0.44791 0.0
O105 O 0.08355 0.03813 0.45676 0.0
O106 O 0.04531 0.07612 0.75975 0.0
C107 C 0.07335 0.0624 0.41017 0.0
O108 O 0.04419 -0.02028 0.38334 0.0
C109 C 0.06877 0.06468 0.80866 0.0
O110 O 0.04287 -0.01886 0.57769 0.0
O111 O 0.07819 0.03923 0.76877 0.0
C112 C 0.78456 0.71632 0.75311 0.0
O113 O 0.78223 0.72849 0.65268 0.0
Cd114 Cd 0.78155 0.77869 0.58579 0.0
O115 O 0.78696 0.7328 0.84537 0.0
Cd116 Cd 0.78707 0.79151 0.85335 0.0
C117 C 0.71627 0.79541 0.73203 0.0
O118 O 0.8225 0.79818 0.69805 0.0
O119 O 0.78817 0.83353 0.70689 0.0
O120 O 0.82613 0.79527 0.00997 0.0
C121 C 0.81243 0.82334 0.66048 0.0
O122 O 0.72974 0.79418 0.63349 0.0
C123 C 0.8147 0.81873 0.05883 0.0
O124 O 0.73117 0.79284 0.82784 0.0
O125 O 0.78925 0.82816 0.01888 0.0
C126 C 0.93265 0.03454 0.50313 0.0
O127 O 0.92046 0.03221 0.4027 0.0
Cd128 Cd 0.87027 0.03152 0.33578 0.0
O129 O 0.91617 0.03693 0.59539 0.0
Cd130 Cd 0.85745 0.03705 0.60337 0.0
C131 C 0.85355 -0.03375 0.48205 0.0
O132 O 0.85078 0.07247 0.44805 0.0
O133 O 0.81543 0.03814 0.4569 0.0
O134 O 0.85369 0.0761 0.75997 0.0
C135 C 0.82562 0.0624 0.41047 0.0
O136 O 0.85478 -0.02028 0.38351 0.0
C137 C 0.83023 0.06467 0.80882 0.0
O138 O 0.85613 -0.01886 0.57785 0.0
O139 O 0.82081 0.03923 0.76889 0.0
C140 C 0.61442 0.18262 0.25315 0.0
O141 O 0.61674 0.17045 0.15272 0.0
Cd142 Cd 0.61743 0.12026 0.08579 0.0
O143 O 0.61204 0.16614 0.34542 0.0
Cd144 Cd 0.61193 0.10741 0.35337 0.0
C145 C 0.68272 0.10354 0.23204 0.0
O146 O 0.5765 0.10076 0.19792 0.0
O147 O 0.61085 0.06541 0.20695 0.0
O148 O 0.57287 0.10366 0.50994 0.0
C149 C 0.58656 0.07557 0.16055 0.0
O150 O 0.66925 0.10477 0.1335 0.0
C151 C 0.58431 0.0802 0.55883 0.0
O152 O 0.66783 0.1061 0.32785 0.0
O153 O 0.60976 0.07078 0.51893 0.0
C154 C 0.46633 0.8644 0.0031 0.0
O155 O 0.47851 0.86672 0.90268 0.0
Cd156 Cd 0.5287 0.86741 0.83577 0.0
O157 O 0.48282 0.86201 0.09537 0.0
Cd158 Cd 0.54153 0.86189 0.10334 0.0
C159 C 0.54544 0.93269 0.98201 0.0
O160 O 0.5482 0.82646 0.94802 0.0
O161 O 0.58355 0.8608 0.95689 0.0
O162 O 0.54529 0.82283 0.25992 0.0
C163 C 0.57336 0.83653 0.91046 0.0
O164 O 0.5442 0.91921 0.88347 0.0
C165 C 0.56875 0.83426 0.30881 0.0
O166 O 0.54286 0.91779 0.07782 0.0
O167 O 0.57817 0.85971 0.2689 0.0
C168 C 0.78457 0.18264 0.21274 0.0
O169 O 0.78225 0.17047 0.31319 0.0
Cd170 Cd 0.78156 0.12028 0.38023 0.0
O171 O 0.78695 0.16614 0.1205 0.0
Cd172 Cd 0.78707 0.10743 0.11261 0.0
C173 C 0.71628 0.10354 0.23397 0.0
O174 O 0.82249 0.10077 0.26797 0.0
O175 O 0.78816 0.06541 0.25907 0.0
O176 O 0.82614 0.10365 0.95609 0.0
C177 C 0.81241 0.07562 0.3056 0.0
O178 O 0.72975 0.10479 0.33251 0.0
C179 C 0.8147 0.0802 0.90718 0.0
O180 O 0.73117 0.1061 0.13815 0.0
O181 O 0.78925 0.07078 0.94706 0.0
C182 C 0.46635 0.03454 0.96276 0.0
O183 O 0.47852 0.03221 0.0632 0.0
Cd184 Cd 0.5287 0.03152 0.13022 0.0
O185 O 0.48284 0.03693 0.87051 0.0
Cd186 Cd 0.54156 0.03704 0.86262 0.0
C187 C 0.54544 -0.03376 -0.01605 0.0
O188 O 0.5482 0.07245 0.01806 0.0
O189 O 0.58357 0.03812 0.00906 0.0
O190 O 0.54532 0.07611 0.70605 0.0
C191 C 0.57339 0.0624 0.05558 0.0
O192 O 0.5442 -0.02029 0.08249 0.0
C193 C 0.56878 0.06467 0.65719 0.0
O194 O 0.54288 -0.01886 0.88814 0.0
O195 O 0.5782 0.03922 0.6971 0.0
C196 C 0.61443 0.7163 0.71279 0.0
O197 O 0.61676 0.72847 0.81323 0.0
Cd198 Cd 0.61745 0.77867 0.88023 0.0
O199 O 0.61203 0.7328 0.62054 0.0
Cd200 Cd 0.61191 0.79151 0.61265 0.0
C201 C 0.68272 0.79541 0.73397 0.0
O202 O 0.5765 0.79817 0.76798 0.0
O203 O 0.61082 0.83353 0.75911 0.0
O204 O 0.57285 0.79528 0.45606 0.0
C205 C 0.58657 0.82332 0.80561 0.0
O206 O 0.66925 0.79417 0.83251 0.0
C207 C 0.58428 0.81874 0.40719 0.0
O208 O 0.66782 0.79284 0.63816 0.0
O209 O 0.60973 0.82816 0.44712 0.0
C210 C 0.93267 0.8644 0.46277 0.0
O211 O 0.9205 0.86673 0.56321 0.0
Cd212 Cd 0.87032 0.86742 0.63023 0.0
O213 O 0.91617 0.86201 0.37053 0.0
Cd214 Cd 0.85745 0.86189 0.36266 0.0
C215 C 0.85356 0.93269 0.48398 0.0
O216 O 0.8508 0.82647 0.51803 0.0
O217 O 0.81544 0.86081 0.50912 0.0
O218 O 0.85368 0.82282 0.20612 0.0
C219 C 0.82565 0.83656 0.55561 0.0
O220 O 0.85481 0.91922 0.58253 0.0
C221 C 0.83022 0.83426 0.15721 0.0
O222 O 0.85612 0.9178 0.38817 0.0
O223 O 0.82081 0.85971 0.1971 0.0
C224 C 0.61443 0.68262 0.71277 0.0
O225 O 0.61676 0.67044 0.8132 0.0
Cd226 Cd 0.61745 0.62025 0.88013 0.0
O227 O 0.61204 0.66614 0.6205 0.0
Cd228 Cd 0.61192 0.60743 0.61253 0.0
C229 C 0.68272 0.60353 0.73385 0.0
O230 O 0.5765 0.60076 0.76784 0.0
O231 O 0.61083 0.56541 0.75898 0.0
O232 O 0.57286 0.60367 0.45591 0.0
C233 C 0.58657 0.5756 0.80541 0.0
O234 O 0.66926 0.60476 0.83239 0.0
C235 C 0.5843 0.5802 0.40705 0.0
O236 O 0.66782 0.6061 0.63805 0.0
O237 O 0.60974 0.57078 0.447 0.0
C238 C 0.46634 0.3644 0.96274 0.0
O239 O 0.47852 0.36673 0.06317 0.0
Cd240 Cd 0.52871 0.36741 0.13008 0.0
O241 O 0.48282 0.36201 0.87047 0.0
Cd242 Cd 0.54154 0.3619 0.8625 0.0
C243 C 0.54543 0.4327 -0.01618 0.0
O244 O 0.54819 0.32647 0.01795 0.0
O245 O 0.58356 0.36081 0.00893 0.0
O246 O 0.54529 0.32284 0.70589 0.0
C247 C 0.57338 0.33652 0.0553 0.0
O248 O 0.54421 0.41922 0.08236 0.0
C249 C 0.56875 0.33427 0.65704 0.0
O250 O 0.54286 0.4178 0.88802 0.0
O251 O 0.57818 0.35972 0.69697 0.0
C252 C 0.78456 0.21632 0.21271 0.0
O253 O 0.78224 0.2285 0.31314 0.0
Cd254 Cd 0.78155 0.27869 0.3801 0.0
O255 O 0.78695 0.2328 0.12045 0.0
Cd256 Cd 0.78706 0.29151 0.1125 0.0
C257 C 0.71626 0.29541 0.23384 0.0
O258 O 0.82248 0.2982 0.26778 0.0
O259 O 0.78814 0.33354 0.25894 0.0
O260 O 0.82612 0.29528 0.95594 0.0
C261 C 0.81242 0.32335 0.30552 0.0
O262 O 0.72974 0.29418 0.33238 0.0
C263 C 0.81468 0.31874 0.90705 0.0
O264 O 0.73115 0.29284 0.13803 0.0
O265 O 0.78923 0.32816 0.94694 0.0
C266 C 0.93267 0.53454 0.46276 0.0
O267 O 0.92049 0.53222 0.56318 0.0
Cd268 Cd 0.87029 0.53153 0.6301 0.0
O269 O 0.91618 0.53693 0.37049 0.0
Cd270 Cd 0.85747 0.53705 0.36253 0.0
C271 C 0.85356 0.46625 0.48386 0.0
O272 O 0.85079 0.57248 0.51781 0.0
O273 O 0.81545 0.53814 0.50897 0.0
O274 O 0.8537 0.57611 0.20595 0.0
C275 C 0.82564 0.56241 0.55545 0.0
O276 O 0.85479 0.47973 0.5824 0.0
C277 C 0.83024 0.56468 0.15705 0.0
O278 O 0.85613 0.48115 0.38806 0.0
O279 O 0.82082 0.53923 0.19696 0.0
C280 C 0.61442 0.21631 0.25313 0.0
O281 O 0.61674 0.22847 0.15268 0.0
Cd282 Cd 0.61743 0.27866 0.08563 0.0
O283 O 0.61203 0.2328 0.34537 0.0
Cd284 Cd 0.61191 0.29151 0.35325 0.0
C285 C 0.68271 0.29541 0.2319 0.0
O286 O 0.5765 0.29818 0.19793 0.0
O287 O 0.61083 0.33353 0.20681 0.0
O288 O 0.57284 0.29529 0.50977 0.0
C289 C 0.58656 0.32333 0.16016 0.0
O290 O 0.66923 0.29416 0.13336 0.0
C291 C 0.58428 0.31874 0.55868 0.0
O292 O 0.66782 0.29284 0.32772 0.0
O293 O 0.60973 0.32816 0.5188 0.0
C294 C 0.93264 0.3644 0.5031 0.0
O295 O 0.92046 0.36673 0.40266 0.0
Cd296 Cd 0.87028 0.36742 0.33565 0.0
O297 O 0.91615 0.36201 0.59535 0.0
Cd298 Cd 0.85742 0.3619 0.60325 0.0
C299 C 0.85355 0.4327 0.48192 0.0
O300 O 0.85079 0.32649 0.44775 0.0
O301 O 0.81541 0.36082 0.45682 0.0
O302 O 0.85367 0.32284 0.75983 0.0
C303 C 0.8256 0.33654 0.41042 0.0
O304 O 0.85479 0.41923 0.38338 0.0
C305 C 0.83021 0.33427 0.80869 0.0
O306 O 0.85611 0.41781 0.57773 0.0
O307 O 0.82079 0.35972 0.76878 0.0
C308 C 0.78456 0.68263 0.75308 0.0
O309 O 0.78223 0.67046 0.65264 0.0
Cd310 Cd 0.78154 0.62027 0.58564 0.0
O311 O 0.78696 0.66614 0.84533 0.0
Cd312 Cd 0.78709 0.60744 0.85322 0.0
C313 C 0.71628 0.60353 0.73191 0.0
O314 O 0.8225 0.60077 0.69793 0.0
O315 O 0.78818 0.56541 0.70676 0.0
O316 O 0.82615 0.60366 0.0098 0.0
C317 C 0.81243 0.57562 0.66021 0.0
O318 O 0.72974 0.60477 0.63336 0.0
C319 C 0.81472 0.5802 0.05868 0.0
O320 O 0.73118 0.6061 0.82771 0.0
O321 O 0.78927 0.57078 0.01875 0.0
C322 C 0.46633 0.53454 0.00311 0.0
O323 O 0.47849 0.53221 0.90266 0.0
Cd324 Cd 0.52868 0.53152 0.83564 0.0
O325 O 0.48283 0.53693 0.09535 0.0
Cd326 Cd 0.54154 0.53705 0.10322 0.0
C327 C 0.54543 0.46625 0.98189 0.0
O328 O 0.5482 0.57247 0.94791 0.0
O329 O 0.58355 0.53813 0.95675 0.0
O330 O 0.54531 0.57611 0.25976 0.0
C331 C 0.57335 0.56239 0.91022 0.0
O332 O 0.54418 0.47972 0.88334 0.0
C333 C 0.56877 0.56468 0.30867 0.0
O334 O 0.54287 0.48114 0.0777 0.0
O335 O 0.57819 0.53923 0.26878 0.0
C336 C 0.28456 0.21631 0.25311 0.0
O337 O 0.28223 0.22849 0.15268 0.0
Cd338 Cd 0.28153 0.27869 0.08579 0.0
O339 O 0.28695 0.2328 0.34538 0.0
Cd340 Cd 0.28706 0.29151 0.35334 0.0
C341 C 0.21626 0.29541 0.23203 0.0
O342 O 0.32249 0.29818 0.19804 0.0
O343 O 0.28816 0.33353 0.20688 0.0
O344 O 0.32612 0.29527 0.50997 0.0
C345 C 0.31242 0.32334 0.16047 0.0
O346 O 0.22973 0.29418 0.13349 0.0
C347 C 0.31469 0.31873 0.55883 0.0
O348 O 0.23116 0.29284 0.32784 0.0
O349 O 0.28924 0.32816 0.51888 0.0
C350 C 0.43265 0.53454 0.00313 0.0
O351 O 0.42046 0.53221 0.90271 0.0
Cd352 Cd 0.37027 0.53152 0.83578 0.0
O353 O 0.41617 0.53693 0.0954 0.0
Cd354 Cd 0.35745 0.53704 0.10337 0.0
C355 C 0.35355 0.46624 0.98205 0.0
O356 O 0.35078 0.57247 0.94805 0.0
O357 O 0.31543 0.53814 0.9569 0.0
O358 O 0.35369 0.5761 0.25997 0.0
C359 C 0.32562 0.5624 0.91047 0.0
O360 O 0.35478 0.47972 0.8835 0.0
C361 C 0.33023 0.56467 0.30882 0.0
O362 O 0.35612 0.48114 0.07785 0.0
O363 O 0.32081 0.53922 0.26888 0.0
C364 C 0.11442 0.68262 0.75316 0.0
O365 O 0.11674 0.67044 0.65273 0.0
Cd366 Cd 0.11744 0.62025 0.5858 0.0
O367 O 0.11204 0.66614 0.84543 0.0
Cd368 Cd 0.11193 0.60743 0.8534 0.0
C369 C 0.18273 0.60353 0.73205 0.0
O370 O 0.0765 0.60075 0.6981 0.0
O371 O 0.11084 0.56541 0.70694 0.0
O372 O 0.07287 0.60366 0.00996 0.0
C373 C 0.08658 0.5756 0.66047 0.0
O374 O 0.16925 0.60477 0.63351 0.0
C375 C 0.08431 0.5802 0.05885 0.0
O376 O 0.16784 0.6061 0.82786 0.0
O377 O 0.10976 0.57078 0.01896 0.0
C378 C -0.03368 0.3644 0.50312 0.0
O379 O -0.02151 0.36673 0.40269 0.0
Cd380 Cd 0.02869 0.36741 0.33578 0.0
O381 O -0.01719 0.36201 0.59539 0.0
Cd382 Cd 0.04152 0.36189 0.60334 0.0
C383 C 0.04543 0.43269 0.48202 0.0
O384 O 0.04819 0.32646 0.44807 0.0
O385 O 0.08354 0.3608 0.45689 0.0
O386 O 0.04528 0.32283 0.75992 0.0
C387 C 0.07334 0.33654 0.4104 0.0
O388 O 0.04419 0.41922 0.38348 0.0
C389 C 0.06874 0.33426 0.80881 0.0
O390 O 0.04286 0.41779 0.57782 0.0
O391 O 0.07816 0.35971 0.76891 0.0
C392 C 0.28457 0.68264 0.71272 0.0
O393 O 0.28225 0.67047 0.81317 0.0
Cd394 Cd 0.28156 0.62029 0.88022 0.0
O395 O 0.28696 0.66614 0.62048 0.0
Cd396 Cd 0.28707 0.60742 0.61261 0.0
C397 C 0.21628 0.60353 0.73397 0.0
O398 O 0.32249 0.60077 0.76799 0.0
O399 O 0.28816 0.56541 0.75907 0.0
O400 O 0.32614 0.60365 0.45608 0.0
C401 C 0.31241 0.57561 0.80557 0.0
O402 O 0.22976 0.60479 0.83251 0.0
C403 C 0.3147 0.58019 0.40718 0.0
O404 O 0.23117 0.6061 0.63815 0.0
O405 O 0.28925 0.57078 0.44706 0.0
C406 C -0.03365 0.53454 0.46279 0.0
O407 O -0.02148 0.53221 0.56324 0.0
Cd408 Cd 0.02871 0.53151 0.63025 0.0
O409 O -0.01716 0.53693 0.37055 0.0
Cd410 Cd 0.04155 0.53704 0.36264 0.0
C411 C 0.04544 0.46624 0.48396 0.0
O412 O 0.04821 0.57246 0.51801 0.0
O413 O 0.08357 0.53813 0.50912 0.0
O414 O 0.04532 0.57611 0.20608 0.0
C415 C 0.07337 0.56238 0.5556 0.0
O416 O 0.0442 0.47971 0.5825 0.0
C417 C 0.06878 0.56468 0.15721 0.0
O418 O 0.04287 0.48114 0.38815 0.0
O419 O 0.0782 0.53923 0.19713 0.0
C420 C 0.11442 0.2163 0.21279 0.0
O421 O 0.11675 0.22847 0.31323 0.0
Cd422 Cd 0.11744 0.27866 0.38022 0.0
O423 O 0.11202 0.2328 0.12054 0.0
Cd424 Cd 0.1119 0.29151 0.11265 0.0
C425 C 0.18271 0.29541 0.23397 0.0
O426 O 0.07648 0.29816 0.26803 0.0
O427 O 0.11081 0.33353 0.25911 0.0
O428 O 0.07284 0.29528 0.95606 0.0
C429 C 0.08656 0.32332 0.30556 0.0
O430 O 0.16924 0.29417 0.33251 0.0
C431 C 0.08427 0.31874 0.90719 0.0
O432 O 0.16781 0.29284 0.13816 0.0
O433 O 0.10972 0.32816 0.94712 0.0
C434 C 0.43266 0.3644 0.96277 0.0
O435 O 0.42049 0.36673 0.06322 0.0
Cd436 Cd 0.37031 0.36742 0.13023 0.0
O437 O 0.41616 0.36201 0.87054 0.0
Cd438 Cd 0.35745 0.36189 0.86265 0.0
C439 C 0.35355 0.43269 -0.01602 0.0
O440 O 0.35079 0.32647 0.018 0.0
O441 O 0.31543 0.3608 0.00912 0.0
O442 O 0.35367 0.32282 0.70611 0.0
C443 C 0.32564 0.33655 0.05563 0.0
O444 O 0.3548 0.41922 0.08252 0.0
C445 C 0.33021 0.33426 0.65721 0.0
O446 O 0.35611 0.4178 0.88817 0.0
O447 O 0.3208 0.35971 0.6971 0.0
loop_
_geom_bond_atom_site_label_1
_geom_bond_atom_site_label_2
_geom_bond_distance
_geom_bond_site_symmetry_2
_ccdc_geom_bond_type
C0 O1 1.306 . S
C0 O3 1.160 . S
O1 C0 1.306 . S
O1 Cd2 2.228 . S
Cd2 O1 2.228 . S
Cd2 O6 2.273 . S
Cd2 O10 2.277 . S
O3 C0 1.160 . S
O3 Cd4 2.203 . S
Cd4 O3 2.203 . S
Cd4 O6 2.411 . S
Cd4 O7 2.333 . S
Cd4 O8 2.352 1_554 S
Cd4 O12 2.277 . S
Cd4 O13 2.356 1_554 S
C5 O10 1.209 . S
C5 O12 1.226 . S
O6 Cd2 2.273 . S
O6 Cd4 2.411 . S
O6 C9 1.320 . S
O7 Cd4 2.333 . S
O7 C9 1.214 . S
O8 Cd4 2.352 1_556 S
O8 C11 1.258 . S
C9 O6 1.320 . S
C9 O7 1.214 . S
O10 Cd2 2.277 . S
O10 C5 1.209 . S
C11 O8 1.258 . S
C11 O13 1.282 . S
O12 Cd4 2.277 . S
O12 C5 1.226 . S
O13 Cd4 2.356 1_556 S
O13 C11 1.282 . S
C14 O15 1.306 . S
C14 O17 1.160 . S
O15 C14 1.306 . S
O15 Cd16 2.228 . S
Cd16 O15 2.228 . S
Cd16 O20 2.273 . S
Cd16 O24 2.277 . S
O17 C14 1.160 . S
O17 Cd18 2.203 . S
Cd18 O17 2.203 . S
Cd18 O20 2.411 . S
Cd18 O21 2.333 . S
Cd18 O22 2.352 . S
Cd18 O26 2.277 . S
Cd18 O27 2.356 . S
C19 O24 1.209 . S
C19 O26 1.226 . S
O20 Cd16 2.273 . S
O20 Cd18 2.411 . S
O20 C23 1.320 . S
O21 Cd18 2.333 . S
O21 C23 1.214 . S
O22 Cd18 2.352 . S
O22 C25 1.258 . S
C23 O20 1.320 . S
C23 O21 1.214 . S
O24 Cd16 2.277 . S
O24 C19 1.209 . S
C25 O22 1.258 . S
C25 O27 1.282 . S
O26 Cd18 2.277 . S
O26 C19 1.226 . S
O27 Cd18 2.356 . S
O27 C25 1.282 . S
C28 O29 1.306 . S
C28 O31 1.160 . S
O29 C28 1.306 . S
O29 Cd30 2.228 . S
Cd30 O29 2.228 . S
Cd30 O34 2.273 . S
Cd30 O38 2.277 . S
O31 C28 1.160 . S
O31 Cd32 2.203 . S
Cd32 O31 2.203 . S
Cd32 O34 2.411 . S
Cd32 O35 2.333 . S
Cd32 O36 2.352 . S
Cd32 O40 2.277 . S
Cd32 O41 2.356 . S
C33 O38 1.209 . S
C33 O40 1.226 . S
O34 Cd30 2.273 . S
O34 Cd32 2.411 . S
O34 C37 1.320 . S
O35 Cd32 2.333 . S
O35 C37 1.214 . S
O36 Cd32 2.352 . S
O36 C39 1.258 . S
C37 O34 1.320 . S
C37 O35 1.214 . S
O38 Cd30 2.277 . S
O38 C33 1.209 . S
C39 O36 1.258 . S
C39 O41 1.282 . S
O40 Cd32 2.277 . S
O40 C33 1.226 . S
O41 Cd32 2.356 . S
O41 C39 1.282 . S
C42 O43 1.306 . S
C42 O45 1.160 . S
O43 C42 1.306 . S
O43 Cd44 2.228 1_556 S
Cd44 O43 2.228 1_554 S
Cd44 O48 2.273 . S
Cd44 O52 2.277 . S
O45 C42 1.160 . S
O45 Cd46 2.203 . S
Cd46 O45 2.203 . S
Cd46 O48 2.411 1_556 S
Cd46 O49 2.333 . S
Cd46 O50 2.352 . S
Cd46 O54 2.277 . S
Cd46 O55 2.356 . S
C47 O52 1.209 1_556 S
C47 O54 1.226 . S
O48 Cd44 2.273 . S
O48 Cd46 2.411 1_554 S
O48 C51 1.320 . S
O49 Cd46 2.333 . S
O49 C51 1.214 1_556 S
O50 Cd46 2.352 . S
O50 C53 1.258 . S
C51 O48 1.320 . S
C51 O49 1.214 1_554 S
O52 Cd44 2.277 . S
O52 C47 1.209 1_554 S
C53 O50 1.258 . S
C53 O55 1.282 . S
O54 Cd46 2.277 . S
O54 C47 1.226 . S
O55 Cd46 2.356 . S
O55 C53 1.282 . S
C56 O57 1.306 . S
C56 O59 1.160 . S
O57 C56 1.306 . S
O57 Cd58 2.228 . S
Cd58 O57 2.228 . S
Cd58 O62 2.273 . S
Cd58 O66 2.277 . S
O59 C56 1.160 . S
O59 Cd60 2.203 . S
Cd60 O59 2.203 . S
Cd60 O62 2.411 . S
Cd60 O63 2.333 . S
Cd60 O64 2.352 1_556 S
Cd60 O68 2.277 . S
Cd60 O69 2.356 1_556 S
C61 O66 1.209 . S
C61 O68 1.226 . S
O62 Cd58 2.273 . S
O62 Cd60 2.411 . S
O62 C65 1.320 . S
O63 Cd60 2.333 . S
O63 C65 1.214 . S
O64 Cd60 2.352 1_554 S
O64 C67 1.258 . S
C65 O62 1.320 . S
C65 O63 1.214 . S
O66 Cd58 2.277 . S
O66 C61 1.209 . S
C67 O64 1.258 . S
C67 O69 1.282 . S
O68 Cd60 2.277 . S
O68 C61 1.226 . S
O69 Cd60 2.356 1_554 S
O69 C67 1.282 . S
C70 O71 1.306 . S
C70 O73 1.160 . S
O71 C70 1.306 . S
O71 Cd72 2.228 1_554 S
Cd72 O71 2.228 1_556 S
Cd72 O76 2.273 . S
Cd72 O80 2.277 . S
O73 C70 1.160 . S
O73 Cd74 2.203 . S
Cd74 O73 2.203 . S
Cd74 O76 2.411 1_554 S
Cd74 O77 2.333 . S
Cd74 O78 2.352 . S
Cd74 O82 2.277 . S
Cd74 O83 2.356 . S
C75 O80 1.209 1_554 S
C75 O82 1.226 . S
O76 Cd72 2.273 . S
O76 Cd74 2.411 1_556 S
O76 C79 1.320 . S
O77 Cd74 2.333 . S
O77 C79 1.214 1_554 S
O78 Cd74 2.352 . S
O78 C81 1.258 . S
C79 O76 1.320 . S
C79 O77 1.214 1_556 S
O80 Cd72 2.277 . S
O80 C75 1.209 1_556 S
C81 O78 1.258 . S
C81 O83 1.282 . S
O82 Cd74 2.277 . S
O82 C75 1.226 . S
O83 Cd74 2.356 . S
O83 C81 1.282 . S
C84 O85 1.306 . S
C84 O87 1.160 . S
O85 C84 1.306 . S
O85 Cd86 2.228 . S
Cd86 O85 2.228 . S
Cd86 O90 2.273 . S
Cd86 O94 2.277 . S
O87 C84 1.160 . S
O87 Cd88 2.203 . S
Cd88 O87 2.203 . S
Cd88 O90 2.411 . S
Cd88 O91 2.333 . S
Cd88 O92 2.352 . S
Cd88 O96 2.277 . S
Cd88 O97 2.356 . S
C89 O94 1.209 . S
C89 O96 1.226 . S
O90 Cd86 2.273 . S
O90 Cd88 2.411 . S
O90 C93 1.320 . S
O91 Cd88 2.333 . S
O91 C93 1.214 . S
O92 Cd88 2.352 . S
O92 C95 1.258 . S
C93 O90 1.320 . S
C93 O91 1.214 . S
O94 Cd86 2.277 . S
O94 C89 1.209 . S
C95 O92 1.258 . S
C95 O97 1.282 . S
O96 Cd88 2.277 . S
O96 C89 1.226 . S
O97 Cd88 2.356 . S
O97 C95 1.282 . S
C98 O99 1.306 . S
C98 O101 1.160 . S
O99 C98 1.306 . S
O99 Cd100 2.228 . S
Cd100 O99 2.228 . S
Cd100 O104 2.273 . S
Cd100 O108 2.277 . S
O101 C98 1.160 . S
O101 Cd102 2.203 . S
Cd102 O101 2.203 . S
Cd102 O104 2.411 . S
Cd102 O105 2.333 . S
Cd102 O106 2.352 . S
Cd102 O110 2.277 . S
Cd102 O111 2.356 . S
C103 O108 1.209 . S
C103 O110 1.226 . S
O104 Cd100 2.273 . S
O104 Cd102 2.411 . S
O104 C107 1.320 . S
O105 Cd102 2.333 . S
O105 C107 1.214 . S
O106 Cd102 2.352 . S
O106 C109 1.258 . S
C107 O104 1.320 . S
C107 O105 1.214 . S
O108 Cd100 2.277 . S
O108 C103 1.209 . S
C109 O106 1.258 . S
C109 O111 1.282 . S
O110 Cd102 2.277 . S
O110 C103 1.226 . S
O111 Cd102 2.356 . S
O111 C109 1.282 . S
C112 O113 1.306 . S
C112 O115 1.160 . S
O113 C112 1.306 . S
O113 Cd114 2.228 . S
Cd114 O113 2.228 . S
Cd114 O118 2.273 . S
Cd114 O122 2.277 . S
O115 C112 1.160 . S
O115 Cd116 2.203 . S
Cd116 O115 2.203 . S
Cd116 O118 2.411 . S
Cd116 O119 2.333 . S
Cd116 O120 2.352 1_556 S
Cd116 O124 2.277 . S
Cd116 O125 2.356 1_556 S
C117 O122 1.209 . S
C117 O124 1.226 . S
O118 Cd114 2.273 . S
O118 Cd116 2.411 . S
O118 C121 1.320 . S
O119 Cd116 2.333 . S
O119 C121 1.214 . S
O120 Cd116 2.352 1_554 S
O120 C123 1.258 . S
C121 O118 1.320 . S
C121 O119 1.214 . S
O122 Cd114 2.277 . S
O122 C117 1.209 . S
C123 O120 1.258 . S
C123 O125 1.282 . S
O124 Cd116 2.277 . S
O124 C117 1.226 . S
O125 Cd116 2.356 1_554 S
O125 C123 1.282 . S
C126 O127 1.306 . S
C126 O129 1.160 . S
O127 C126 1.306 . S
O127 Cd128 2.228 . S
Cd128 O127 2.228 . S
Cd128 O132 2.273 . S
Cd128 O136 2.277 . S
O129 C126 1.160 . S
O129 Cd130 2.203 . S
Cd130 O129 2.203 . S
Cd130 O132 2.411 . S
Cd130 O133 2.333 . S
Cd130 O134 2.352 . S
Cd130 O138 2.277 . S
Cd130 O139 2.356 . S
C131 O136 1.209 . S
C131 O138 1.226 . S
O132 Cd128 2.273 . S
O132 Cd130 2.411 . S
O132 C135 1.320 . S
O133 Cd130 2.333 . S
O133 C135 1.214 . S
O134 Cd130 2.352 . S
O134 C137 1.258 . S
C135 O132 1.320 . S
C135 O133 1.214 . S
O136 Cd128 2.277 . S
O136 C131 1.209 . S
C137 O134 1.258 . S
C137 O139 1.282 . S
O138 Cd130 2.277 . S
O138 C131 1.226 . S
O139 Cd130 2.356 . S
O139 C137 1.282 . S
C140 O141 1.306 . S
C140 O143 1.160 . S
O141 C140 1.306 . S
O141 Cd142 2.228 . S
Cd142 O141 2.228 . S
Cd142 O146 2.273 . S
Cd142 O150 2.277 . S
O143 C140 1.160 . S
O143 Cd144 2.203 . S
Cd144 O143 2.203 . S
Cd144 O146 2.411 . S
Cd144 O147 2.333 . S
Cd144 O148 2.352 . S
Cd144 O152 2.277 . S
Cd144 O153 2.356 . S
C145 O150 1.209 . S
C145 O152 1.226 . S
O146 Cd142 2.273 . S
O146 Cd144 2.411 . S
O146 C149 1.320 . S
O147 Cd144 2.333 . S
O147 C149 1.214 . S
O148 Cd144 2.352 . S
O148 C151 1.258 . S
C149 O146 1.320 . S
C149 O147 1.214 . S
O150 Cd142 2.277 . S
O150 C145 1.209 . S
C151 O148 1.258 . S
C151 O153 1.282 . S
O152 Cd144 2.277 . S
O152 C145 1.226 . S
O153 Cd144 2.356 . S
O153 C151 1.282 . S
C154 O155 1.306 . S
C154 O157 1.160 . S
O155 C154 1.306 . S
O155 Cd156 2.228 1_554 S
Cd156 O155 2.228 1_556 S
Cd156 O160 2.273 . S
Cd156 O164 2.277 . S
O157 C154 1.160 . S
O157 Cd158 2.203 . S
Cd158 O157 2.203 . S
Cd158 O160 2.411 1_554 S
Cd158 O161 2.333 . S
Cd158 O162 2.352 . S
Cd158 O166 2.277 . S
Cd158 O167 2.356 . S
C159 O164 1.209 1_554 S
C159 O166 1.226 . S
O160 Cd156 2.273 . S
O160 Cd158 2.411 1_556 S
O160 C163 1.320 . S
O161 Cd158 2.333 . S
O161 C163 1.214 1_554 S
O162 Cd158 2.352 . S
O162 C165 1.258 . S
C163 O160 1.320 . S
C163 O161 1.214 1_556 S
O164 Cd156 2.277 . S
O164 C159 1.209 1_556 S
C165 O162 1.258 . S
C165 O167 1.282 . S
O166 Cd158 2.277 . S
O166 C159 1.226 . S
O167 Cd158 2.356 . S
O167 C165 1.282 . S
C168 O169 1.306 . S
C168 O171 1.160 . S
O169 C168 1.306 . S
O169 Cd170 2.228 . S
Cd170 O169 2.228 . S
Cd170 O174 2.273 . S
Cd170 O178 2.277 . S
O171 C168 1.160 . S
O171 Cd172 2.203 . S
Cd172 O171 2.203 . S
Cd172 O174 2.411 . S
Cd172 O175 2.333 . S
Cd172 O176 2.352 1_554 S
Cd172 O180 2.277 . S
Cd172 O181 2.356 1_554 S
C173 O178 1.209 . S
C173 O180 1.226 . S
O174 Cd170 2.273 . S
O174 Cd172 2.411 . S
O174 C177 1.320 . S
O175 Cd172 2.333 . S
O175 C177 1.214 . S
O176 Cd172 2.352 1_556 S
O176 C179 1.258 . S
C177 O174 1.320 . S
C177 O175 1.214 . S
O178 Cd170 2.277 . S
O178 C173 1.209 . S
C179 O176 1.258 . S
C179 O181 1.282 . S
O180 Cd172 2.277 . S
O180 C173 1.226 . S
O181 Cd172 2.356 1_556 S
O181 C179 1.282 . S
C182 O183 1.306 . S
C182 O185 1.160 . S
O183 C182 1.306 . S
O183 Cd184 2.228 1_556 S
Cd184 O183 2.228 1_554 S
Cd184 O188 2.273 . S
Cd184 O192 2.277 . S
O185 C182 1.160 . S
O185 Cd186 2.203 . S
Cd186 O185 2.203 . S
Cd186 O188 2.411 1_556 S
Cd186 O189 2.333 . S
Cd186 O190 2.352 . S
Cd186 O194 2.277 . S
Cd186 O195 2.356 . S
C187 O192 1.209 1_556 S
C187 O194 1.226 . S
O188 Cd184 2.273 . S
O188 Cd186 2.411 1_554 S
O188 C191 1.320 . S
O189 Cd186 2.333 . S
O189 C191 1.214 1_556 S
O190 Cd186 2.352 . S
O190 C193 1.258 . S
C191 O188 1.320 . S
C191 O189 1.214 1_554 S
O192 Cd184 2.277 . S
O192 C187 1.209 1_554 S
C193 O190 1.258 . S
C193 O195 1.282 . S
O194 Cd186 2.277 . S
O194 C187 1.226 . S
O195 Cd186 2.356 . S
O195 C193 1.282 . S
C196 O197 1.306 . S
C196 O199 1.160 . S
O197 C196 1.306 . S
O197 Cd198 2.228 . S
Cd198 O197 2.228 . S
Cd198 O202 2.273 . S
Cd198 O206 2.277 . S
O199 C196 1.160 . S
O199 Cd200 2.203 . S
Cd200 O199 2.203 . S
Cd200 O202 2.411 . S
Cd200 O203 2.333 . S
Cd200 O204 2.352 . S
Cd200 O208 2.277 . S
Cd200 O209 2.356 . S
C201 O206 1.209 . S
C201 O208 1.226 . S
O202 Cd198 2.273 . S
O202 Cd200 2.411 . S
O202 C205 1.320 . S
O203 Cd200 2.333 . S
O203 C205 1.214 . S
O204 Cd200 2.352 . S
O204 C207 1.258 . S
C205 O202 1.320 . S
C205 O203 1.214 . S
O206 Cd198 2.277 . S
O206 C201 1.209 . S
C207 O204 1.258 . S
C207 O209 1.282 . S
O208 Cd200 2.277 . S
O208 C201 1.226 . S
O209 Cd200 2.356 . S
O209 C207 1.282 . S
C210 O211 1.306 . S
C210 O213 1.160 . S
O211 C210 1.306 . S
O211 Cd212 2.228 . S
Cd212 O211 2.228 . S
Cd212 O216 2.273 . S
Cd212 O220 2.277 . S
O213 C210 1.160 . S
O213 Cd214 2.203 . S
Cd214 O213 2.203 . S
Cd214 O216 2.411 . S
Cd214 O217 2.333 . S
Cd214 O218 2.352 . S
Cd214 O222 2.277 . S
Cd214 O223 2.356 . S
C215 O220 1.209 . S
C215 O222 1.226 . S
O216 Cd212 2.273 . S
O216 Cd214 2.411 . S
O216 C219 1.320 . S
O217 Cd214 2.333 . S
O217 C219 1.214 . S
O218 Cd214 2.352 . S
O218 C221 1.258 . S
C219 O216 1.320 . S
C219 O217 1.214 . S
O220 Cd212 2.277 . S
O220 C215 1.209 . S
C221 O218 1.258 . S
C221 O223 1.282 . S
O222 Cd214 2.277 . S
O222 C215 1.226 . S
O223 Cd214 2.356 . S
O223 C221 1.282 . S
C224 O225 1.306 . S
C224 O227 1.160 . S
O225 C224 1.306 . S
O225 Cd226 2.228 . S
Cd226 O225 2.228 . S
Cd226 O230 2.273 . S
Cd226 O234 2.277 . S
O227 C224 1.160 . S
O227 Cd228 2.203 . S
Cd228 O227 2.203 . S
Cd228 O230 2.411 . S
Cd228 O231 2.333 . S
Cd228 O232 2.352 . S
Cd228 O236 2.277 . S
Cd228 O237 2.356 . S
C229 O234 1.209 . S
C229 O236 1.226 . S
O230 Cd226 2.273 . S
O230 Cd228 2.411 . S
O230 C233 1.320 . S
O231 Cd228 2.333 . S
O231 C233 1.214 . S
O232 Cd228 2.352 . S
O232 C235 1.258 . S
C233 O230 1.320 . S
C233 O231 1.214 . S
O234 Cd226 2.277 . S
O234 C229 1.209 . S
C235 O232 1.258 . S
C235 O237 1.282 . S
O236 Cd228 2.277 . S
O236 C229 1.226 . S
O237 Cd228 2.356 . S
O237 C235 1.282 . S
C238 O239 1.306 . S
C238 O241 1.160 . S
O239 C238 1.306 . S
O239 Cd240 2.228 1_556 S
Cd240 O239 2.228 1_554 S
Cd240 O244 2.273 . S
Cd240 O248 2.277 . S
O241 C238 1.160 . S
O241 Cd242 2.203 . S
Cd242 O241 2.203 . S
Cd242 O244 2.411 1_556 S
Cd242 O245 2.333 . S
Cd242 O246 2.352 . S
Cd242 O250 2.277 . S
Cd242 O251 2.356 . S
C243 O248 1.209 1_556 S
C243 O250 1.226 . S
O244 Cd240 2.273 . S
O244 Cd242 2.411 1_554 S
O244 C247 1.320 . S
O245 Cd242 2.333 . S
O245 C247 1.214 1_556 S
O246 Cd242 2.352 . S
O246 C249 1.258 . S
C247 O244 1.320 . S
C247 O245 1.214 1_554 S
O248 Cd240 2.277 . S
O248 C243 1.209 1_554 S
C249 O246 1.258 . S
C249 O251 1.282 . S
O250 Cd242 2.277 . S
O250 C243 1.226 . S
O251 Cd242 2.356 . S
O251 C249 1.282 . S
C252 O253 1.306 . S
C252 O255 1.160 . S
O253 C252 1.306 . S
O253 Cd254 2.228 . S
Cd254 O253 2.228 . S
Cd254 O258 2.273 . S
Cd254 O262 2.277 . S
O255 C252 1.160 . S
O255 Cd256 2.203 . S
Cd256 O255 2.203 . S
Cd256 O258 2.411 . S
Cd256 O259 2.333 . S
Cd256 O260 2.352 1_554 S
Cd256 O264 2.277 . S
Cd256 O265 2.356 1_554 S
C257 O262 1.209 . S
C257 O264 1.226 . S
O258 Cd254 2.273 . S
O258 Cd256 2.411 . S
O258 C261 1.320 . S
O259 Cd256 2.333 . S
O259 C261 1.214 . S
O260 Cd256 2.352 1_556 S
O260 C263 1.258 . S
C261 O258 1.320 . S
C261 O259 1.214 . S
O262 Cd254 2.277 . S
O262 C257 1.209 . S
C263 O260 1.258 . S
C263 O265 1.282 . S
O264 Cd256 2.277 . S
O264 C257 1.226 . S
O265 Cd256 2.356 1_556 S
O265 C263 1.282 . S
C266 O267 1.306 . S
C266 O269 1.160 . S
O267 C266 1.306 . S
O267 Cd268 2.228 . S
Cd268 O267 2.228 . S
Cd268 O272 2.273 . S
Cd268 O276 2.277 . S
O269 C266 1.160 . S
O269 Cd270 2.203 . S
Cd270 O269 2.203 . S
Cd270 O272 2.411 . S
Cd270 O273 2.333 . S
Cd270 O274 2.352 . S
Cd270 O278 2.277 . S
Cd270 O279 2.356 . S
C271 O276 1.209 . S
C271 O278 1.226 . S
O272 Cd268 2.273 . S
O272 Cd270 2.411 . S
O272 C275 1.320 . S
O273 Cd270 2.333 . S
O273 C275 1.214 . S
O274 Cd270 2.352 . S
O274 C277 1.258 . S
C275 O272 1.320 . S
C275 O273 1.214 . S
O276 Cd268 2.277 . S
O276 C271 1.209 . S
C277 O274 1.258 . S
C277 O279 1.282 . S
O278 Cd270 2.277 . S
O278 C271 1.226 . S
O279 Cd270 2.356 . S
O279 C277 1.282 . S
C280 O281 1.306 . S
C280 O283 1.160 . S
O281 C280 1.306 . S
O281 Cd282 2.228 . S
Cd282 O281 2.228 . S
Cd282 O286 2.273 . S
Cd282 O290 2.277 . S
O283 C280 1.160 . S
O283 Cd284 2.203 . S
Cd284 O283 2.203 . S
Cd284 O286 2.411 . S
Cd284 O287 2.333 . S
Cd284 O288 2.352 . S
Cd284 O292 2.277 . S
Cd284 O293 2.356 . S
C285 O290 1.209 . S
C285 O292 1.226 . S
O286 Cd282 2.273 . S
O286 Cd284 2.411 . S
O286 C289 1.320 . S
O287 Cd284 2.333 . S
O287 C289 1.214 . S
O288 Cd284 2.352 . S
O288 C291 1.258 . S
C289 O286 1.320 . S
C289 O287 1.214 . S
O290 Cd282 2.277 . S
O290 C285 1.209 . S
C291 O288 1.258 . S
C291 O293 1.282 . S
O292 Cd284 2.277 . S
O292 C285 1.226 . S
O293 Cd284 2.356 . S
O293 C291 1.282 . S
C294 O295 1.306 . S
C294 O297 1.160 . S
O295 C294 1.306 . S
O295 Cd296 2.228 . S
Cd296 O295 2.228 . S
Cd296 O300 2.273 . S
Cd296 O304 2.277 . S
O297 C294 1.160 . S
O297 Cd298 2.203 . S
Cd298 O297 2.203 . S
Cd298 O300 2.411 . S
Cd298 O301 2.333 . S
Cd298 O302 2.352 . S
Cd298 O306 2.277 . S
Cd298 O307 2.356 . S
C299 O304 1.209 . S
C299 O306 1.226 . S
O300 Cd296 2.273 . S
O300 Cd298 2.411 . S
O300 C303 1.320 . S
O301 Cd298 2.333 . S
O301 C303 1.214 . S
O302 Cd298 2.352 . S
O302 C305 1.258 . S
C303 O300 1.320 . S
C303 O301 1.214 . S
O304 Cd296 2.277 . S
O304 C299 1.209 . S
C305 O302 1.258 . S
C305 O307 1.282 . S
O306 Cd298 2.277 . S
O306 C299 1.226 . S
O307 Cd298 2.356 . S
O307 C305 1.282 . S
C308 O309 1.306 . S
C308 O311 1.160 . S
O309 C308 1.306 . S
O309 Cd310 2.228 . S
Cd310 O309 2.228 . S
Cd310 O314 2.273 . S
Cd310 O318 2.277 . S
O311 C308 1.160 . S
O311 Cd312 2.203 . S
Cd312 O311 2.203 . S
Cd312 O314 2.411 . S
Cd312 O315 2.333 . S
Cd312 O316 2.352 1_556 S
Cd312 O320 2.277 . S
Cd312 O321 2.356 1_556 S
C313 O318 1.209 . S
C313 O320 1.226 . S
O314 Cd310 2.273 . S
O314 Cd312 2.411 . S
O314 C317 1.320 . S
O315 Cd312 2.333 . S
O315 C317 1.214 . S
O316 Cd312 2.352 1_554 S
O316 C319 1.258 . S
C317 O314 1.320 . S
C317 O315 1.214 . S
O318 Cd310 2.277 . S
O318 C313 1.209 . S
C319 O316 1.258 . S
C319 O321 1.282 . S
O320 Cd312 2.277 . S
O320 C313 1.226 . S
O321 Cd312 2.356 1_554 S
O321 C319 1.282 . S
C322 O323 1.306 . S
C322 O325 1.160 . S
O323 C322 1.306 . S
O323 Cd324 2.228 1_554 S
Cd324 O323 2.228 1_556 S
Cd324 O328 2.273 . S
Cd324 O332 2.277 . S
O325 C322 1.160 . S
O325 Cd326 2.203 . S
Cd326 O325 2.203 . S
Cd326 O328 2.411 1_554 S
Cd326 O329 2.333 . S
Cd326 O330 2.352 . S
Cd326 O334 2.277 . S
Cd326 O335 2.356 . S
C327 O332 1.209 1_554 S
C327 O334 1.226 . S
O328 Cd324 2.273 . S
O328 Cd326 2.411 1_556 S
O328 C331 1.320 . S
O329 Cd326 2.333 . S
O329 C331 1.214 1_554 S
O330 Cd326 2.352 . S
O330 C333 1.258 . S
C331 O328 1.320 . S
C331 O329 1.214 1_556 S
O332 Cd324 2.277 . S
O332 C327 1.209 1_556 S
C333 O330 1.258 . S
C333 O335 1.282 . S
O334 Cd326 2.277 . S
O334 C327 1.226 . S
O335 Cd326 2.356 . S
O335 C333 1.282 . S
C336 O337 1.306 . S
C336 O339 1.160 . S
O337 C336 1.306 . S
O337 Cd338 2.228 . S
Cd338 O337 2.228 . S
Cd338 O342 2.273 . S
Cd338 O346 2.277 . S
O339 C336 1.160 . S
O339 Cd340 2.203 . S
Cd340 O339 2.203 . S
Cd340 O342 2.411 . S
Cd340 O343 2.333 . S
Cd340 O344 2.352 . S
Cd340 O348 2.277 . S
Cd340 O349 2.356 . S
C341 O346 1.209 . S
C341 O348 1.226 . S
O342 Cd338 2.273 . S
O342 Cd340 2.411 . S
O342 C345 1.320 . S
O343 Cd340 2.333 . S
O343 C345 1.214 . S
O344 Cd340 2.352 . S
O344 C347 1.258 . S
C345 O342 1.320 . S
C345 O343 1.214 . S
O346 Cd338 2.277 . S
O346 C341 1.209 . S
C347 O344 1.258 . S
C347 O349 1.282 . S
O348 Cd340 2.277 . S
O348 C341 1.226 . S
O349 Cd340 2.356 . S
O349 C347 1.282 . S
C350 O351 1.306 . S
C350 O353 1.160 . S
O351 C350 1.306 . S
O351 Cd352 2.228 1_554 S
Cd352 O351 2.228 1_556 S
Cd352 O356 2.273 . S
Cd352 O360 2.277 . S
O353 C350 1.160 . S
O353 Cd354 2.203 . S
Cd354 O353 2.203 . S
Cd354 O356 2.411 1_554 S
Cd354 O357 2.333 . S
Cd354 O358 2.352 . S
Cd354 O362 2.277 . S
Cd354 O363 2.356 . S
C355 O360 1.209 1_554 S
C355 O362 1.226 . S
O356 Cd352 2.273 . S
O356 Cd354 2.411 1_556 S
O356 C359 1.320 . S
O357 Cd354 2.333 . S
O357 C359 1.214 1_554 S
O358 Cd354 2.352 . S
O358 C361 1.258 . S
C359 O356 1.320 . S
C359 O357 1.214 1_556 S
O360 Cd352 2.277 . S
O360 C355 1.209 1_556 S
C361 O358 1.258 . S
C361 O363 1.282 . S
O362 Cd354 2.277 . S
O362 C355 1.226 . S
O363 Cd354 2.356 . S
O363 C361 1.282 . S
C364 O365 1.306 . S
C364 O367 1.160 . S
O365 C364 1.306 . S
O365 Cd366 2.228 . S
Cd366 O365 2.228 . S
Cd366 O370 2.273 . S
Cd366 O374 2.277 . S
O367 C364 1.160 . S
O367 Cd368 2.203 . S
Cd368 O367 2.203 . S
Cd368 O370 2.411 . S
Cd368 O371 2.333 . S
Cd368 O372 2.352 1_556 S
Cd368 O376 2.277 . S
Cd368 O377 2.356 1_556 S
C369 O374 1.209 . S
C369 O376 1.226 . S
O370 Cd366 2.273 . S
O370 Cd368 2.411 . S
O370 C373 1.320 . S
O371 Cd368 2.333 . S
O371 C373 1.214 . S
O372 Cd368 2.352 1_554 S
O372 C375 1.258 . S
C373 O370 1.320 . S
C373 O371 1.214 . S
O374 Cd366 2.277 . S
O374 C369 1.209 . S
C375 O372 1.258 . S
C375 O377 1.282 . S
O376 Cd368 2.277 . S
O376 C369 1.226 . S
O377 Cd368 2.356 1_554 S
O377 C375 1.282 . S
C378 O379 1.306 . S
C378 O381 1.160 . S
O379 C378 1.306 . S
O379 Cd380 2.228 . S
Cd380 O379 2.228 . S
Cd380 O384 2.273 . S
Cd380 O388 2.277 . S
O381 C378 1.160 . S
O381 Cd382 2.203 . S
Cd382 O381 2.203 . S
Cd382 O384 2.411 . S
Cd382 O385 2.333 . S
Cd382 O386 2.352 . S
Cd382 O390 2.277 . S
Cd382 O391 2.356 . S
C383 O388 1.209 . S
C383 O390 1.226 . S
O384 Cd380 2.273 . S
O384 Cd382 2.411 . S
O384 C387 1.320 . S
O385 Cd382 2.333 . S
O385 C387 1.214 . S
O386 Cd382 2.352 . S
O386 C389 1.258 . S
C387 O384 1.320 . S
C387 O385 1.214 . S
O388 Cd380 2.277 . S
O388 C383 1.209 . S
C389 O386 1.258 . S
C389 O391 1.282 . S
O390 Cd382 2.277 . S
O390 C383 1.226 . S
O391 Cd382 2.356 . S
O391 C389 1.282 . S
C392 O393 1.306 . S
C392 O395 1.160 . S
O393 C392 1.306 . S
O393 Cd394 2.228 . S
Cd394 O393 2.228 . S
Cd394 O398 2.273 . S
Cd394 O402 2.277 . S
O395 C392 1.160 . S
O395 Cd396 2.203 . S
Cd396 O395 2.203 . S
Cd396 O398 2.411 . S
Cd396 O399 2.333 . S
Cd396 O400 2.352 . S
Cd396 O404 2.277 . S
Cd396 O405 2.356 . S
C397 O402 1.209 . S
C397 O404 1.226 . S
O398 Cd394 2.273 . S
O398 Cd396 2.411 . S
O398 C401 1.320 . S
O399 Cd396 2.333 . S
O399 C401 1.214 . S
O400 Cd396 2.352 . S
O400 C403 1.258 . S
C401 O398 1.320 . S
C401 O399 1.214 . S
O402 Cd394 2.277 . S
O402 C397 1.209 . S
C403 O400 1.258 . S
C403 O405 1.282 . S
O404 Cd396 2.277 . S
O404 C397 1.226 . S
O405 Cd396 2.356 . S
O405 C403 1.282 . S
C406 O407 1.306 . S
C406 O409 1.160 . S
O407 C406 1.306 . S
O407 Cd408 2.228 . S
Cd408 O407 2.228 . S
Cd408 O412 2.273 . S
Cd408 O416 2.277 . S
O409 C406 1.160 . S
O409 Cd410 2.203 . S
Cd410 O409 2.203 . S
Cd410 O412 2.411 . S
Cd410 O413 2.333 . S
Cd410 O414 2.352 . S
Cd410 O418 2.277 . S
Cd410 O419 2.356 . S
C411 O416 1.209 . S
C411 O418 1.226 . S
O412 Cd408 2.273 . S
O412 Cd410 2.411 . S
O412 C415 1.320 . S
O413 Cd410 2.333 . S
O413 C415 1.214 . S
O414 Cd410 2.352 . S
O414 C417 1.258 . S
C415 O412 1.320 . S
C415 O413 1.214 . S
O416 Cd408 2.277 . S
O416 C411 1.209 . S
C417 O414 1.258 . S
C417 O419 1.282 . S
O418 Cd410 2.277 . S
O418 C411 1.226 . S
O419 Cd410 2.356 . S
O419 C417 1.282 . S
C420 O421 1.306 . S
C420 O423 1.160 . S
O421 C420 1.306 . S
O421 Cd422 2.228 . S
Cd422 O421 2.228 . S
Cd422 O426 2.273 . S
Cd422 O430 2.277 . S
O423 C420 1.160 . S
O423 Cd424 2.203 . S
Cd424 O423 2.203 . S
Cd424 O426 2.411 . S
Cd424 O427 2.333 . S
Cd424 O428 2.352 1_554 S
Cd424 O432 2.277 . S
Cd424 O433 2.356 1_554 S
C425 O430 1.209 . S
C425 O432 1.226 . S
O426 Cd422 2.273 . S
O426 Cd424 2.411 . S
O426 C429 1.320 . S
O427 Cd424 2.333 . S
O427 C429 1.214 . S
O428 Cd424 2.352 1_556 S
O428 C431 1.258 . S
C429 O426 1.320 . S
C429 O427 1.214 . S
O430 Cd422 2.277 . S
O430 C425 1.209 . S
C431 O428 1.258 . S
C431 O433 1.282 . S
O432 Cd424 2.277 . S
O432 C425 1.226 . S
O433 Cd424 2.356 1_556 S
O433 C431 1.282 . S
C434 O435 1.306 . S
C434 O437 1.160 . S
O435 C434 1.306 . S
O435 Cd436 2.228 1_556 S
Cd436 O435 2.228 1_554 S
Cd436 O440 2.273 . S
Cd436 O444 2.277 . S
O437 C434 1.160 . S
O437 Cd438 2.203 . S
Cd438 O437 2.203 . S
Cd438 O440 2.411 1_556 S
Cd438 O441 2.333 . S
Cd438 O442 2.352 . S
Cd438 O446 2.277 . S
Cd438 O447 2.356 . S
C439 O444 1.209 1_556 S
C439 O446 1.226 . S
O440 Cd436 2.273 . S
O440 Cd438 2.411 1_554 S
O440 C443 1.320 . S
O441 Cd438 2.333 . S
O441 C443 1.214 1_556 S
O442 Cd438 2.352 . S
O442 C445 1.258 . S
C443 O440 1.320 . S
C443 O441 1.214 1_554 S
O444 Cd436 2.277 . S
O444 C439 1.209 1_554 S
C445 O442 1.258 . S
C445 O447 1.282 . S
O446 Cd438 2.277 . S
O446 C439 1.226 . S
O447 Cd438 2.356 . S
O447 C445 1.282 . S
C89 C5 1.490 . S
C19 C103 1.490 1_565 S
C61 C33 1.490 . S
C47 C75 1.490 1_546 S
C117 C201 1.490 . S
C215 C131 1.490 1_565 S
C145 C173 1.490 . S
C187 C159 1.490 1_546 S
C229 C313 1.490 . S
C243 C327 1.490 1_556 S
C285 C257 1.490 . S
C299 C271 1.490 . S
C341 C425 1.490 . S
C355 C439 1.490 1_554 S
C397 C369 1.490 . S
C383 C411 1.490 . S
C11 C109 1.445 . S
C67 C25 1.445 . S
C81 C39 1.445 . S
C53 C95 1.445 . S
C123 C221 1.445 . S
C179 C137 1.445 . S
C193 C151 1.445 . S
C207 C165 1.445 . S
C235 C333 1.445 . S
C249 C291 1.445 . S
C305 C263 1.445 . S
C277 C319 1.445 . S
C347 C445 1.445 . S
C403 C361 1.445 . S
C375 C417 1.445 . S
C389 C431 1.445 . S
C420 C0 1.454 . S
C210 C14 1.454 1_655 S
C28 C392 1.454 . S
C42 C182 1.454 . S
C56 C364 1.454 . S
C70 C154 1.454 . S
C84 C336 1.454 . S
C126 C98 1.454 1_655 S
C308 C112 1.454 . S
C140 C280 1.454 . S
C252 C168 1.454 . S
C224 C196 1.454 . S
C238 C434 1.454 . S
C266 C406 1.454 1_655 S
C294 C378 1.454 1_655 S
C350 C322 1.454 . S
C9 C107 1.642 . S
C23 C65 1.642 . S
C79 C37 1.642 . S
C51 C93 1.642 . S
C219 C121 1.642 . S
C177 C135 1.642 . S
C149 C191 1.642 . S
C205 C163 1.642 . S
C331 C233 1.642 . S
C289 C247 1.642 . S
C303 C261 1.642 . S
C317 C275 1.642 . S
C345 C443 1.642 . S
C359 C401 1.642 . S
C373 C415 1.642 . S
C429 C387 1.642 . S
