# Generated by pormake.
# Topology smm, (6)-cn, num edge types: 1
# Building blocks:
#     Node 0, Type 0, BuildingBlock: BETDAH_clean_sbu_0, # of connection points: 6
#     Node 1, Type 0, BuildingBlock: BETDAH_clean_sbu_0, # of connection points: 6
#     Node 2, Type 0, BuildingBlock: BETDAH_clean_sbu_0, # of connection points: 6
#     Node 3, Type 0, BuildingBlock: BETDAH_clean_sbu_0, # of connection points: 6
#     Node 4, Type 0, BuildingBlock: BETDAH_clean_sbu_0, # of connection points: 6
#     Node 5, Type 0, BuildingBlock: BETDAH_clean_sbu_0, # of connection points: 6
#     Node 6, Type 0, BuildingBlock: BETDAH_clean_sbu_0, # of connection points: 6
#     Node 7, Type 0, BuildingBlock: BETDAH_clean_sbu_0, # of connection points: 6
#     Node 8, Type 0, BuildingBlock: BETDAH_clean_sbu_0, # of connection points: 6
#     Edge 9, Type (0, 0), BuildingBlock: XUDNAN_clean_linker_2, # of connection points: 2
#     Edge 10, Type (0, 0), BuildingBlock: XUDNAN_clean_linker_2, # of connection points: 2
#     Edge 11, Type (0, 0), BuildingBlock: XUDNAN_clean_linker_2, # of connection points: 2
#     Edge 12, Type (0, 0), BuildingBlock: XUDNAN_clean_linker_2, # of connection points: 2
#     Edge 13, Type (0, 0), BuildingBlock: XUDNAN_clean_linker_2, # of connection points: 2
#     Edge 14, Type (0, 0), BuildingBlock: XUDNAN_clean_linker_2, # of connection points: 2
#     Edge 15, Type (0, 0), BuildingBlock: XUDNAN_clean_linker_2, # of connection points: 2
#     Edge 16, Type (0, 0), BuildingBlock: XUDNAN_clean_linker_2, # of connection points: 2
#     Edge 17, Type (0, 0), BuildingBlock: XUDNAN_clean_linker_2, # of connection points: 2
#     Edge 18, Type (0, 0), BuildingBlock: XUDNAN_clean_linker_2, # of connection points: 2
#     Edge 19, Type (0, 0), BuildingBlock: XUDNAN_clean_linker_2, # of connection points: 2
#     Edge 20, Type (0, 0), BuildingBlock: XUDNAN_clean_linker_2, # of connection points: 2
#     Edge 21, Type (0, 0), BuildingBlock: XUDNAN_clean_linker_2, # of connection points: 2
#     Edge 22, Type (0, 0), BuildingBlock: XUDNAN_clean_linker_2, # of connection points: 2
#     Edge 23, Type (0, 0), BuildingBlock: XUDNAN_clean_linker_2, # of connection points: 2
#     Edge 24, Type (0, 0), BuildingBlock: XUDNAN_clean_linker_2, # of connection points: 2
#     Edge 25, Type (0, 0), BuildingBlock: XUDNAN_clean_linker_2, # of connection points: 2
#     Edge 26, Type (0, 0), BuildingBlock: XUDNAN_clean_linker_2, # of connection points: 2
#     Edge 27, Type (0, 0), BuildingBlock: XUDNAN_clean_linker_2, # of connection points: 2
#     Edge 28, Type (0, 0), BuildingBlock: XUDNAN_clean_linker_2, # of connection points: 2
#     Edge 29, Type (0, 0), BuildingBlock: XUDNAN_clean_linker_2, # of connection points: 2
#     Edge 30, Type (0, 0), BuildingBlock: XUDNAN_clean_linker_2, # of connection points: 2
#     Edge 31, Type (0, 0), BuildingBlock: XUDNAN_clean_linker_2, # of connection points: 2
#     Edge 32, Type (0, 0), BuildingBlock: XUDNAN_clean_linker_2, # of connection points: 2
#     Edge 33, Type (0, 0), BuildingBlock: XUDNAN_clean_linker_2, # of connection points: 2
#     Edge 34, Type (0, 0), BuildingBlock: XUDNAN_clean_linker_2, # of connection points: 2
#     Edge 35, Type (0, 0), BuildingBlock: XUDNAN_clean_linker_2, # of connection points: 2
# Relax obj value: 0.047
# Max RMSD: 0.126
# Mean RMSD: 0.126
data_MOF--net-smm--node1-BETDAH_clean_sbu_0--edge1-XUDNAN_clean_linker_2
_symmetry_space_group_name_H-M    P1
_symmetry_Int_Tables_number       1
_symmetry_cell_setting            triclinic
loop_
_symmetry_equiv_pos_as_xyz
'x, y, z'
_cell_length_a     70.139045
_cell_length_b     70.64345
_cell_length_c     14.178033
_cell_angle_alpha  90.000046
_cell_angle_beta   89.941181
_cell_angle_gamma 119.75494
loop_
_atom_site_label
_atom_site_type_symbol
_atom_site_fract_x
_atom_site_fract_y
_atom_site_fract_z
_atom_type_partial_charge
Ho0 Ho 0.06516 0.22531 -0.01269 0.0
Ho1 Ho 1.02836 0.178 0.03547 0.0
C2 C 1.01705 0.21702 0.05239 0.0
C3 C 0.09056 0.26184 0.90276 0.0
C4 C 0.10108 0.2859 0.89916 0.0
C5 C 0.08916 0.29703 0.89173 0.0
C6 C 0.10024 0.31986 0.88108 0.0
C7 C 0.12336 0.33183 0.87769 0.0
C8 C 0.13503 0.32045 0.88397 0.0
C9 C 0.12406 0.29787 0.89468 0.0
C10 C 0.06094 0.21373 0.17219 0.0
C11 C 0.07755 0.18731 -0.00692 0.0
C12 C 1.00265 0.1395 0.10426 0.0
C13 C 0.99157 0.11618 0.07726 0.0
C14 C 0.96853 0.10429 0.07689 0.0
C15 C 0.95735 0.08212 0.05472 0.0
C16 C 0.96893 0.07117 0.03282 0.0
C17 C 0.99204 0.08299 0.03402 0.0
C18 C 1.00328 0.10532 0.05582 0.0
C19 C 1.03141 0.18897 0.85088 0.0
O20 O 1.03508 0.22972 0.00268 0.0
O21 O 1.01333 0.1979 0.08562 0.0
O22 O 0.0973 0.25343 0.96811 0.0
O23 O 0.06957 0.24982 0.8838 0.0
O24 O 0.07929 0.22905 0.13729 0.0
O25 O 0.04639 0.20829 0.11128 0.0
O26 O 0.05912 0.1752 0.04033 0.0
O27 O 0.08148 0.2057 0.95146 0.0
O28 O 0.99563 0.15143 0.0629 0.0
O29 O 1.02401 0.14988 0.11502 0.0
O30 O 1.01351 0.17503 0.89292 0.0
O31 O 0.04724 0.19462 0.90677 0.0
H32 H 0.07138 0.28816 0.89359 0.0
H33 H 0.09077 0.32814 0.87659 0.0
H34 H 0.15279 0.32898 0.87929 0.0
H35 H 0.13363 0.28966 0.8979 0.0
H36 H 0.95909 0.11216 0.09455 0.0
H37 H 0.93957 0.07345 0.05623 0.0
H38 H 1.00143 0.07505 0.01703 0.0
H39 H 1.02107 0.114 0.05605 0.0
Ho40 Ho 0.862 0.86108 0.97822 0.0
Ho41 Ho 0.9094 0.87146 0.02581 0.0
C42 C 0.87112 0.82116 0.02898 0.0
C43 C 0.82483 0.84864 0.89444 0.0
C44 C 0.80129 0.83187 0.88977 0.0
C45 C 0.79169 0.82388 0.80118 0.0
C46 C 0.76884 0.8112 0.79185 0.0
C47 C 0.75512 0.80642 0.87103 0.0
C48 C 0.76487 0.81329 0.96051 0.0
C49 C 0.78771 0.82589 0.96985 0.0
C50 C 0.87229 0.86561 0.16519 0.0
C51 C 0.89952 0.91117 -0.01026 0.0
C52 C 0.94829 0.88464 0.0942 0.0
C53 C 0.9717 0.89974 0.07055 0.0
C54 C 0.98109 0.9226 0.07277 0.0
C55 C 1.00337 0.9362 0.04995 0.0
C56 C 1.01653 0.92717 0.02382 0.0
C57 C 1.00716 0.90437 0.02368 0.0
C58 C 0.98511 0.89088 0.04715 0.0
C59 C 0.89862 0.86503 0.84178 0.0
O60 O 0.85811 0.82702 -0.01491 0.0
O61 O 0.8904 0.83595 0.06365 0.0
O62 O 0.83155 0.8615 0.96821 0.0
O63 O 0.83929 0.8434 0.86453 0.0
O64 O 0.8579 0.86998 0.1289 0.0
O65 O 0.87839 0.85737 0.10229 0.0
O66 O 0.91217 0.90473 0.03179 0.0
O67 O 0.88061 0.8971 0.95037 0.0
O68 O 0.93796 0.86766 0.0393 0.0
O69 O 0.93595 0.89288 0.11936 0.0
O70 O 0.91251 0.86048 0.88081 0.0
O71 O 0.89301 0.87484 0.89953 0.0
H72 H 0.80181 0.82838 0.7383 0.0
H73 H 0.76188 0.8063 0.72196 0.0
H74 H 0.75476 0.8096 0.0231 0.0
H75 H 0.79462 0.83172 0.03916 0.0
H76 H 0.97125 0.92997 0.09135 0.0
H77 H 1.01015 0.95371 0.05051 0.0
H78 H 1.01694 0.89692 0.00542 0.0
H79 H 0.97847 0.87337 0.04647 0.0
Ho80 Ho 0.22425 0.02244 0.95052 0.0
Ho81 Ho 0.22199 0.06387 0.00322 0.0
C82 C 0.26965 0.06778 -0.0066 0.0
C83 C 0.23187 0.99405 0.86885 0.0
C84 C 0.24743 0.98561 0.86562 0.0
C85 C 0.25618 0.98429 0.77827 0.0
C86 C 0.26837 0.97356 0.77034 0.0
C87 C 0.27188 0.96373 0.84961 0.0
C88 C 0.26403 0.96602 0.9379 0.0
C89 C 0.25194 0.97685 0.94591 0.0
C90 C 0.22181 0.02962 0.13736 0.0
C91 C 0.17691 1.01789 0.96084 0.0
C92 C 0.21379 0.09256 0.07843 0.0
C93 C 0.19975 0.10247 0.06204 0.0
C94 C 0.17691 0.0899 0.04778 0.0
C95 C 0.16435 0.10009 0.03146 0.0
C96 C 0.17442 0.12299 0.02821 0.0
C97 C 0.19719 0.1354 0.04393 0.0
C98 C 0.20964 0.12527 0.06077 0.0
C99 C 0.22642 0.05905 0.81738 0.0
O100 O 0.25996 0.04884 0.94825 0.0
O101 O 0.25791 0.07556 0.03456 0.0
O102 O 0.21956 0.98986 0.94417 0.0
O103 O 0.23867 1.01363 0.83519 0.0
O104 O 0.21366 1.01015 0.10232 0.0
O105 O 0.23203 0.0432 0.07423 0.0
O106 O 0.18605 0.03684 0.00609 0.0
O107 O 0.18893 1.0106 0.9198 0.0
O108 O 0.22939 0.09735 0.01668 0.0
O109 O 0.20431 0.07217 0.10567 0.0
O110 O 0.23377 0.07761 0.85967 0.0
O111 O 0.2149 0.04383 0.8739 0.0
H112 H 0.25283 0.99081 0.71522 0.0
H113 H 0.27404 0.97196 0.70128 0.0
H114 H 0.26672 0.95889 0.00057 0.0
H115 H 0.24552 0.97769 0.01434 0.0
H116 H 0.1688 0.07226 0.04839 0.0
H117 H 0.14688 0.09006 0.01919 0.0
H118 H 0.20544 0.15305 0.04353 0.0
H119 H 0.22715 0.13533 0.07237 0.0
Ho120 Ho 0.73757 0.55893 0.31487 0.0
Ho121 Ho 0.69987 0.5119 0.3619 0.0
C122 C 0.68958 0.55164 0.37885 0.0
C123 C 0.76247 0.59564 0.2306 0.0
C124 C 0.76984 0.61924 0.22526 0.0
C125 C 0.76944 0.62836 0.13768 0.0
C126 C 0.78013 0.65102 0.12559 0.0
C127 C 0.79163 0.66503 0.20076 0.0
C128 C 0.79085 0.65587 0.28988 0.0
C129 C 0.78008 0.63322 0.30207 0.0
C130 C 0.73247 0.54722 0.49929 0.0
C131 C 0.74914 0.52027 0.32076 0.0
C132 C 0.67364 0.47347 0.42959 0.0
C133 C 0.66633 0.45034 0.41006 0.0
C134 C 0.68074 0.44365 0.37451 0.0
C135 C 0.67343 0.42146 0.3604 0.0
C136 C 0.65158 0.40555 0.38121 0.0
C137 C 0.63714 0.41245 0.41465 0.0
C138 C 0.64447 0.4346 0.429 0.0
C139 C 0.70347 0.52338 0.17869 0.0
O140 O 0.70806 0.56423 0.33166 0.0
O141 O 0.68483 0.532 0.40934 0.0
O142 O 0.76868 0.58864 0.30353 0.0
O143 O 0.74256 0.58175 0.20201 0.0
O144 O 0.75122 0.56204 0.46511 0.0
O145 O 0.71814 0.54218 0.43755 0.0
O146 O 0.72982 0.50766 0.36103 0.0
O147 O 0.75443 0.53958 0.28476 0.0
O148 O 0.66752 0.48334 0.36894 0.0
O149 O 0.6939 0.48577 0.45838 0.0
O150 O 0.68524 0.51014 0.22052 0.0
O151 O 0.71927 0.52834 0.23418 0.0
H152 H 0.76183 0.61794 0.07714 0.0
H153 H 0.78053 0.65753 0.05599 0.0
H154 H 0.79928 0.66624 0.34956 0.0
H155 H 0.78065 0.62672 0.37054 0.0
H156 H 0.69765 0.45552 0.35854 0.0
H157 H 0.68493 0.41674 0.33341 0.0
H158 H 0.62032 0.40069 0.43251 0.0
H159 H 0.63309 0.43945 0.45639 0.0
Ho160 Ho 0.52886 0.20176 0.30459 0.0
Ho161 Ho 0.56871 0.1959 0.3509 0.0
C162 C 0.52231 0.15295 0.34425 0.0
C163 C 0.49478 0.20042 0.22563 0.0
C164 C 0.47159 0.18466 0.20387 0.0
C165 C 0.45816 0.19213 0.16465 0.0
C166 C 0.43623 0.17744 0.14169 0.0
C167 C 0.42731 0.15493 0.15694 0.0
C168 C 0.44079 0.14757 0.19784 0.0
C169 C 0.46268 0.16231 0.22138 0.0
C170 C 0.53926 0.20533 0.48734 0.0
C171 C 0.5749 0.24501 0.33442 0.0
C172 C 0.60532 0.19963 0.41166 0.0
C173 C 0.62872 0.21603 0.39837 0.0
C174 C 0.63477 0.23521 0.34726 0.0
C175 C 0.65693 0.25108 0.33748 0.0
C176 C 0.67355 0.24798 0.37746 0.0
C177 C 0.66743 0.22844 0.42641 0.0
C178 C 0.6452 0.21267 0.43714 0.0
C179 C 0.55961 0.19709 0.16599 0.0
O180 O 0.51505 0.16497 0.30192 0.0
O181 O 0.54214 0.16187 0.38201 0.0
O182 O 0.4997 0.20482 0.31483 0.0
O183 O 0.50971 0.1982 0.17918 0.0
O184 O 0.53081 0.21588 0.44638 0.0
O185 O 0.53997 0.19169 0.43164 0.0
O186 O 0.58207 0.23213 0.36749 0.0
O187 O 0.55537 0.23702 0.29384 0.0
O188 O 0.59503 0.18843 0.33679 0.0
O189 O 0.59359 0.20605 0.45952 0.0
O190 O 0.56689 0.18474 0.19858 0.0
O191 O 0.55876 0.20847 0.23141 0.0
H192 H 0.46472 0.20935 0.15085 0.0
H193 H 0.42643 0.18367 0.10958 0.0
H194 H 0.43441 0.13039 0.21176 0.0
H195 H 0.47268 0.15629 0.25279 0.0
H196 H 0.62235 0.23796 0.31528 0.0
H197 H 0.66106 0.26579 0.29829 0.0
H198 H 0.67979 0.22561 0.45858 0.0
H199 H 0.64087 0.19793 0.47647 0.0
Ho200 Ho 0.87982 0.34326 0.30636 0.0
Ho201 Ho 0.88273 0.38721 0.35613 0.0
C202 C 0.92789 0.38646 0.34503 0.0
C203 C 0.88387 0.31273 0.2232 0.0
C204 C 0.89853 0.30331 0.21464 0.0
C205 C 0.92144 0.3162 0.20381 0.0
C206 C 0.93453 0.30634 0.19382 0.0
C207 C 0.92491 0.28347 0.19511 0.0
C208 C 0.90195 0.27077 0.2045 0.0
C209 C 0.88898 0.28056 0.21416 0.0
C210 C 0.87978 0.35159 0.49345 0.0
C211 C 0.83461 0.34314 0.33158 0.0
C212 C 0.87902 0.4191 0.42696 0.0
C213 C 0.86576 0.42989 0.41298 0.0
C214 C 0.87581 0.4525 0.42606 0.0
C215 C 0.86425 0.46354 0.40876 0.0
C216 C 0.84228 0.45223 0.37813 0.0
C217 C 0.83201 0.42944 0.36717 0.0
C218 C 0.84371 0.41839 0.38382 0.0
C219 C 0.88524 0.38032 0.17116 0.0
O220 O 0.91666 0.36724 0.30244 0.0
O221 O 0.9177 0.39591 0.38555 0.0
O222 O 0.87373 0.31004 0.30382 0.0
O223 O 0.89042 0.33196 0.18605 0.0
O224 O 0.8697 0.33206 0.45821 0.0
O225 O 0.89055 0.36484 0.42948 0.0
O226 O 0.84631 0.36314 0.36604 0.0
O227 O 0.84402 0.33281 0.29243 0.0
O228 O 0.89251 0.42146 0.3585 0.0
O229 O 0.86919 0.39935 0.46224 0.0
O230 O 0.89515 0.39929 0.21082 0.0
O231 O 0.87275 0.3661 0.22961 0.0
H232 H 0.92922 0.33381 0.2034 0.0
H233 H 0.95215 0.31658 0.18717 0.0
H234 H 0.89392 0.25313 0.20408 0.0
H235 H 0.87135 0.27028 0.22111 0.0
H236 H 0.89278 0.46171 0.44858 0.0
H237 H 0.87257 0.48103 0.41913 0.0
H238 H 0.81517 0.42028 0.34304 0.0
H239 H 0.83567 0.40096 0.37247 0.0
Ho240 Ho 0.40004 0.89256 0.64673 0.0
Ho241 Ho 0.36258 0.84566 0.69545 0.0
C242 C 0.35172 0.8849 0.70282 0.0
C243 C 0.42539 0.92954 0.56447 0.0
C244 C 0.42952 0.95196 0.5456 0.0
C245 C 0.42462 0.95703 0.45622 0.0
C246 C 0.43105 0.97856 0.43187 0.0
C247 C 0.44271 0.9957 0.49604 0.0
C248 C 0.44726 0.99059 0.58623 0.0
C249 C 0.44079 0.96898 0.61068 0.0
C250 C 0.39498 0.88094 0.83131 0.0
C251 C 0.4122 0.8546 0.65934 0.0
C252 C 0.33626 0.8077 0.76783 0.0
C253 C 0.32456 0.78415 0.74532 0.0
C254 C 0.30193 0.77213 0.7631 0.0
C255 C 0.29004 0.74984 0.74365 0.0
C256 C 0.30049 0.73892 0.7061 0.0
C257 C 0.32329 0.75088 0.68951 0.0
C258 C 0.33524 0.77335 0.70862 0.0
C259 C 0.36631 0.85593 0.5104 0.0
O260 O 0.3701 0.89719 0.65475 0.0
O261 O 0.34758 0.86596 0.73951 0.0
O262 O 0.42895 0.92471 0.64949 0.0
O263 O 0.40831 0.91333 0.52397 0.0
O264 O 0.4139 0.89499 0.79589 0.0
O265 O 0.3805 0.87611 0.77032 0.0
O266 O 0.39301 0.84228 0.70121 0.0
O267 O 0.41742 0.87365 0.62086 0.0
O268 O 0.32961 0.81955 0.72319 0.0
O269 O 0.35762 0.81771 0.77824 0.0
O270 O 0.34819 0.84235 0.55211 0.0
O271 O 0.38202 0.86163 0.5672 0.0
H272 H 0.41643 0.9444 0.40363 0.0
H273 H 0.42757 0.98185 0.36126 0.0
H274 H 0.456 1.00332 0.63779 0.0
H275 H 0.44511 0.96573 0.67972 0.0
H276 H 0.29337 0.78002 0.79235 0.0
H277 H 0.2726 0.74108 0.75896 0.0
H278 H 0.3318 0.74296 0.66027 0.0
H279 H 0.35272 0.78223 0.69443 0.0
Ho280 Ho 0.18954 0.52851 0.65599 0.0
Ho281 Ho 0.23704 0.53833 0.70054 0.0
C282 C 0.1979 0.48826 0.70976 0.0
C283 C 0.15234 0.51704 0.57415 0.0
C284 C 0.12912 0.49999 0.56177 0.0
C285 C 0.12252 0.47772 0.5562 0.0
C286 C 0.10071 0.46238 0.53353 0.0
C287 C 0.0851 0.46903 0.51571 0.0
C288 C 0.09178 0.49131 0.52418 0.0
C289 C 0.11349 0.50655 0.54694 0.0
C290 C 0.20077 0.53383 0.84175 0.0
C291 C 0.22775 0.57858 0.6658 0.0
C292 C 0.27592 0.55076 0.76704 0.0
C293 C 0.29918 0.56569 0.74248 0.0
C294 C 0.31488 0.57469 0.81455 0.0
C295 C 0.33732 0.58661 0.79291 0.0
C296 C 0.3445 0.58961 0.69857 0.0
C297 C 0.32864 0.58131 0.6264 0.0
C298 C 0.30621 0.56953 0.64809 0.0
C299 C 0.22543 0.53145 0.5179 0.0
O300 O 0.18488 0.4941 0.66566 0.0
O301 O 0.2175 0.50309 0.74153 0.0
O302 O 0.15807 0.52744 0.65473 0.0
O303 O 0.16752 0.51348 0.53843 0.0
O304 O 0.18655 0.5385 0.80587 0.0
O305 O 0.20635 0.52507 0.77906 0.0
O306 O 0.24069 0.57198 0.70393 0.0
O307 O 0.20826 0.56465 0.63048 0.0
O308 O 0.26523 0.53395 0.71152 0.0
O309 O 0.26406 0.55946 0.79311 0.0
O310 O 0.23925 0.52666 0.556 0.0
O311 O 0.2203 0.54165 0.57565 0.0
H312 H 0.13429 0.47223 0.56739 0.0
H313 H 0.09614 0.44534 0.52909 0.0
H314 H 0.08045 0.49718 0.50969 0.0
H315 H 0.11826 0.52367 0.55 0.0
H316 H 0.30982 0.57186 0.88783 0.0
H317 H 0.34907 0.59263 0.85019 0.0
H318 H 0.3336 0.58361 0.55301 0.0
H319 H 0.29441 0.56285 0.59113 0.0
Ho320 Ho 0.55599 0.68288 0.6486 0.0
Ho321 Ho 0.54747 0.72105 0.69724 0.0
C322 C 0.59715 0.73007 0.70963 0.0
C323 C 0.56659 0.65667 0.56605 0.0
C324 C 0.58105 0.6469 0.56575 0.0
C325 C 0.60359 0.65894 0.54375 0.0
C326 C 0.61611 0.64845 0.53562 0.0
C327 C 0.60632 0.62577 0.54936 0.0
C328 C 0.58378 0.6139 0.57085 0.0
C329 C 0.57137 0.62431 0.57887 0.0
C330 C 0.5496 0.68792 0.83376 0.0
C331 C 0.50632 0.67298 0.65778 0.0
C332 C 0.5358 0.74773 0.76688 0.0
C333 C 0.52366 0.75917 0.74128 0.0
C334 C 0.53477 0.78202 0.74466 0.0
C335 C 0.52391 0.79353 0.72333 0.0
C336 C 0.50156 0.78248 0.69846 0.0
C337 C 0.49029 0.75953 0.69598 0.0
C338 C 0.50125 0.74796 0.71694 0.0
C339 C 0.55443 0.71727 0.51222 0.0
O340 O 0.59094 0.71177 0.66139 0.0
O341 O 0.58245 0.73484 0.74419 0.0
O342 O 0.55199 0.65069 0.63372 0.0
O343 O 0.57478 0.67718 0.54195 0.0
O344 O 0.54534 0.66922 0.79883 0.0
O345 O 0.5591 0.7022 0.77248 0.0
O346 O 0.51354 0.69149 0.70456 0.0
O347 O 0.52001 0.66793 0.61508 0.0
O348 O 0.55436 0.75402 0.72274 0.0
O349 O 0.52463 0.7266 0.77966 0.0
O350 O 0.55925 0.73536 0.55409 0.0
O351 O 0.54396 0.70172 0.56857 0.0
H352 H 0.61148 0.67636 0.53186 0.0
H353 H 0.63344 0.65809 0.51929 0.0
H354 H 0.57552 0.59637 0.57976 0.0
H355 H 0.55395 0.61451 0.59356 0.0
H356 H 0.55194 0.79104 0.76446 0.0
H357 H 0.53299 0.81116 0.72767 0.0
H358 H 0.4731 0.75054 0.67665 0.0
H359 H 0.4922 0.73031 0.71413 0.0
H360 H 0.11463 0.35874 0.76338 0.0
H361 H 0.16027 0.35998 0.97362 0.0
H362 H 0.18371 0.3994 0.94992 0.0
H363 H 0.15433 0.39784 0.6068 0.0
H364 H 0.1389 0.4112 0.57764 0.0
H365 H 0.12475 0.3829 0.6118 0.0
H366 H 0.10474 0.3912 0.74519 0.0
H367 H 0.11865 0.41949 0.71068 0.0
H368 H 0.1206 0.41208 0.83049 0.0
H369 H 0.20367 0.43733 0.89735 0.0
H370 H 0.21769 0.47387 0.83221 0.0
H371 H 0.15886 0.45059 0.66067 0.0
C372 C 0.12937 0.3674 0.80548 0.0
C373 C 0.13577 0.35609 0.86934 0.0
C374 C 0.15524 0.36808 0.92272 0.0
C375 C 0.16865 0.39053 0.91011 0.0
C376 C 0.16231 0.40102 0.84476 0.0
C377 C 0.143 0.39008 0.79435 0.0
C378 C 0.14033 0.40572 0.72883 0.0
C379 C 0.13953 0.39901 0.62511 0.0
C380 C 0.11986 0.40721 0.75541 0.0
C381 C 0.16132 0.42699 0.74984 0.0
C382 C 0.17369 0.42364 0.81653 0.0
C383 C 0.19404 0.44026 0.84594 0.0
C384 C 0.2019 0.46104 0.80776 0.0
C385 C 0.1894 0.46534 0.74128 0.0
C386 C 0.1688 0.44794 0.71154 0.0
H387 H 0.72659 0.77128 0.75973 0.0
H388 H 0.72898 0.81996 0.95385 0.0
H389 H 0.68945 0.80585 0.93063 0.0
H390 H 0.68778 0.77259 0.59712 0.0
H391 H 0.67323 0.74364 0.57525 0.0
H392 H 0.70187 0.75717 0.60707 0.0
H393 H 0.69296 0.73059 0.74735 0.0
H394 H 0.66432 0.71691 0.71556 0.0
H395 H 0.67264 0.72768 0.83292 0.0
H396 H 0.65059 0.78803 0.88368 0.0
H397 H 0.61314 0.76547 0.8248 0.0
H398 H 0.63405 0.72677 0.66222 0.0
C399 C 0.71873 0.77888 0.79747 0.0
C400 C 0.73091 0.79665 0.8594 0.0
C401 C 0.72 0.80612 0.90757 0.0
C402 C 0.69755 0.79833 0.89422 0.0
C403 C 0.68608 0.78095 0.83269 0.0
C404 C 0.69612 0.77113 0.78565 0.0
C405 C 0.67961 0.75244 0.72456 0.0
C406 C 0.68601 0.75673 0.61978 0.0
C407 C 0.67725 0.73061 0.75706 0.0
C408 C 0.65882 0.75345 0.7445 0.0
C409 C 0.66314 0.77018 0.80662 0.0
C410 C 0.64694 0.77479 0.83543 0.0
C411 C 0.62563 0.76181 0.8011 0.0
C412 C 0.62044 0.74417 0.73881 0.0
C413 C 0.6374 0.74006 0.70972 0.0
H414 H 0.30857 0.97113 0.74623 0.0
H415 H 0.25704 0.92356 0.92706 0.0
H416 H 0.27164 0.89854 0.90574 0.0
H417 H 0.30958 0.93273 0.58151 0.0
H418 H 0.33899 0.94732 0.56689 0.0
H419 H 0.32479 0.96192 0.59623 0.0
H420 H 0.34956 0.97838 0.74309 0.0
H421 H 0.3639 0.96393 0.71384 0.0
H422 H 0.35143 0.96045 0.82843 0.0
H423 H 0.29058 0.87821 0.86254 0.0
H424 H 0.3145 0.86425 0.80874 0.0
H425 H 0.355 0.92475 0.65689 0.0
C426 C 0.30041 0.95545 0.78132 0.0
C427 C 0.28171 0.94938 0.83896 0.0
C428 C 0.27157 0.92875 0.884 0.0
C429 C 0.27963 0.91434 0.87169 0.0
C430 C 0.29795 0.92074 0.81435 0.0
C431 C 0.3084 0.94084 0.77045 0.0
C432 C 0.32807 0.94362 0.71383 0.0
C433 C 0.32517 0.94657 0.60835 0.0
C434 C 0.34951 0.96273 0.75211 0.0
C435 C 0.3269 0.92189 0.73262 0.0
C436 C 0.30928 0.90898 0.79036 0.0
C437 C 0.3045 0.88819 0.81763 0.0
C438 C 0.31826 0.8804 0.78634 0.0
C439 C 0.33678 0.89337 0.72858 0.0
C440 C 0.34101 0.91439 0.70083 0.0
H441 H 0.38955 0.15788 0.17794 0.0
H442 H 0.41331 0.11622 0.06534 0.0
H443 H 0.37595 0.09017 0.01043 0.0
H444 H 0.33708 0.11424 0.25948 0.0
H445 H 0.32215 0.12802 0.22852 0.0
H446 H 0.35081 0.14362 0.25908 0.0
H447 H 0.35896 0.16419 0.09989 0.0
H448 H 0.33033 0.14861 0.06871 0.0
H449 H 0.35088 0.1489 -0.00865 0.0
H450 H 0.3366 0.06906 0.9641 0.0
H451 H 0.297 0.05283 0.93666 0.0
H452 H 0.29747 0.10731 0.08133 0.0
C453 C 0.38689 0.14331 0.14144 0.0
C454 C 0.40445 0.13911 0.12625 0.0
C455 C 0.40016 0.11971 0.07903 0.0
C456 C 0.379 0.10486 0.04693 0.0
C457 C 0.36214 0.10951 0.06276 0.0
C458 C 0.36573 0.12815 0.10944 0.0
C459 C 0.3445 0.12891 0.11838 0.0
C460 C 0.33827 0.12868 0.22256 0.0
C461 C 0.34628 0.14884 0.06648 0.0
C462 C 0.32846 0.10781 0.06916 0.0
C463 C 0.33912 0.09702 0.03725 0.0
C464 C 0.32805 0.07733 -0.01101 0.0
C465 C 0.30546 0.06826 0.97359 0.0
C466 C 0.29391 0.07871 0.00677 0.0
C467 C 0.30572 0.09887 0.05496 0.0
H468 H 0.9602 0.2924 0.07702 0.0
H469 H 0.92024 0.24965 0.30344 0.0
H470 H 0.9399 0.22905 0.29107 0.0
H471 H 0.96272 0.25157 0.93817 0.0
H472 H 0.99094 0.26831 0.9022 0.0
H473 H 0.97458 0.28075 0.93019 0.0
H474 H 1.00337 0.30544 0.05373 0.0
H475 H 1.01989 0.29317 0.02566 0.0
H476 H 1.0114 0.2932 0.14568 0.0
H477 H 0.96165 0.21173 0.25062 0.0
H478 H 0.98621 0.19926 0.19023 0.0
H479 H 1.01412 0.25315 -0.00921 0.0
C480 C 0.95585 0.2789 0.1248 0.0
C481 C 0.93844 0.27251 0.19062 0.0
C482 C 0.93317 0.25463 0.25134 0.0
C483 C 0.94433 0.24288 0.24523 0.0
C484 C 0.96096 0.24921 0.17846 0.0
C485 C 0.96695 0.26688 0.11974 0.0
C486 C 0.9853 0.26973 0.05331 0.0
C487 C 0.97794 0.26745 0.94983 0.0
C488 C 1.00623 0.29169 0.07065 0.0
C489 C 0.98839 0.25073 0.08342 0.0
C490 C 0.97407 0.23921 0.15575 0.0
C491 C 0.97307 0.22068 0.19446 0.0
C492 C 0.98711 0.21367 0.15898 0.0
C493 C 1.00222 0.22515 0.08535 0.0
C494 C 1.00287 0.24404 0.04724 0.0
H495 H 0.83011 0.78501 -0.00554 0.0
H496 H 0.89346 0.80465 0.12318 0.0
H497 H 0.87974 0.7673 0.17997 0.0
H498 H 0.79725 0.74832 0.1763 0.0
H499 H 0.7772 0.72818 0.09804 0.0
H500 H 0.79194 0.75642 0.0632 0.0
H501 H 0.80522 0.74616 0.91123 0.0
H502 H 0.79038 0.71785 0.94517 0.0
H503 H 0.81937 0.73079 0.92017 0.0
H504 H 0.85926 0.72878 0.23071 0.0
H505 H 0.83363 0.68996 0.26238 0.0
H506 H 0.78325 0.69378 0.09956 0.0
C507 C 0.84116 0.78138 0.03353 0.0
C508 C 0.86291 0.79793 0.05424 0.0
C509 C 0.87676 0.79242 0.10616 0.0
C510 C 0.86911 0.77119 0.13908 0.0
C511 C 0.84758 0.75543 0.11918 0.0
C512 C 0.83381 0.76008 0.06677 0.0
C513 C 0.81132 0.73987 0.05623 0.0
C514 C 0.79337 0.74342 0.10113 0.0
C515 C 0.80628 0.73328 0.95199 0.0
C516 C 0.81466 0.72331 0.1116 0.0
C517 C 0.8357 0.73277 0.14756 0.0
C518 C 0.84274 0.72112 0.20274 0.0
C519 C 0.82798 0.69911 0.22106 0.0
C520 C 0.80637 0.68881 0.18416 0.0
C521 C 0.79968 0.70116 0.12851 0.0
H522 H 0.04625 0.46794 0.56206 0.0
H523 H 0.07218 0.43429 0.39494 0.0
H524 H 1.03496 0.4094 0.33452 0.0
H525 H 0.99416 0.42043 0.62118 0.0
H526 H 0.97897 0.43477 0.61188 0.0
H527 H 1.00749 0.44926 0.64543 0.0
H528 H 1.01587 0.47639 0.50767 0.0
H529 H 0.9874 0.46193 0.47344 0.0
H530 H 1.0084 0.46612 0.38912 0.0
H531 H 0.99482 0.38873 0.28805 0.0
H532 H 0.95502 0.37352 0.26269 0.0
H533 H 0.9555 0.42133 0.45658 0.0
C534 C 0.04418 0.45538 0.51268 0.0
C535 C 0.06231 0.45313 0.48376 0.0
C536 C 0.05863 0.43621 0.41976 0.0
C537 C 0.03753 0.42206 0.38432 0.0
C538 C 1.02015 0.42496 0.41333 0.0
C539 C 1.02324 0.44115 0.47638 0.0
C540 C 1.00187 0.44102 0.49525 0.0
C541 C 0.99523 0.43607 0.59963 0.0
C542 C 1.00349 0.46265 0.46451 0.0
C543 C 0.98631 0.42235 0.43233 0.0
C544 C 0.99715 0.41325 0.3859 0.0
C545 C 0.98618 0.39573 0.3242 0.0
C546 C 0.96353 0.3872 0.31017 0.0
C547 C 0.95203 0.3962 0.35731 0.0
C548 C 0.96374 0.41411 0.41884 0.0
H549 H 0.63825 0.63145 0.41792 0.0
H550 H 0.60348 0.59365 0.66503 0.0
H551 H 0.6212 0.57134 0.64662 0.0
H552 H 0.63546 0.58779 0.2835 0.0
H553 H 0.66275 0.60286 0.2348 0.0
H554 H 0.64824 0.6169 0.26814 0.0
H555 H 0.68037 0.64245 0.37731 0.0
H556 H 0.69509 0.62862 0.34358 0.0
H557 H 0.68982 0.63082 0.4664 0.0
H558 H 0.63987 0.55139 0.59706 0.0
H559 H 0.66161 0.53648 0.52772 0.0
H560 H 0.68682 0.58764 0.31533 0.0
C561 C 0.63469 0.61873 0.46906 0.0
C562 C 0.61917 0.61414 0.5423 0.0
C563 C 0.61488 0.59722 0.60723 0.0
C564 C 0.62496 0.5845 0.5977 0.0
C565 C 0.6396 0.58899 0.52352 0.0
C566 C 0.6448 0.60586 0.46099 0.0
C567 C 0.66108 0.60685 0.3872 0.0
C568 C 0.65129 0.60339 0.28751 0.0
C569 C 0.68289 0.62847 0.39406 0.0
C570 C 0.66385 0.58768 0.41752 0.0
C571 C 0.65115 0.57767 0.49616 0.0
C572 C 0.65006 0.55919 0.53603 0.0
C573 C 0.66242 0.55075 0.49536 0.0
C574 C 0.67598 0.56081 0.41566 0.0
C575 C 0.67671 0.57962 0.37635 0.0
H576 H 0.52906 0.12343 0.44552 0.0
H577 H 0.48139 0.12815 0.26656 0.0
H578 H 0.45564 0.08895 0.28964 0.0
H579 H 0.51768 0.07043 0.36306 0.0
H580 H 0.52143 0.06162 0.47743 0.0
H581 H 0.53605 0.09015 0.44732 0.0
H582 H 0.52001 0.09879 0.59523 0.0
H583 H 0.50522 0.07027 0.62546 0.0
H584 H 0.49067 0.08513 0.61167 0.0
H585 H 0.43478 0.04919 0.33363 0.0
H586 H 0.42096 1.01153 0.38974 0.0
H587 H 0.48253 0.03224 0.53633 0.0
C588 C 0.51325 0.11625 0.41081 0.0
C589 C 0.50724 0.12907 0.35477 0.0
C590 C 0.48635 0.11888 0.31072 0.0
C591 C 0.47159 0.09655 0.32325 0.0
C592 C 0.47793 0.0845 0.37976 0.0
C593 C 0.49831 0.09394 0.42234 0.0
C594 C 0.50116 0.07724 0.47868 0.0
C595 C 0.52021 0.07471 0.43924 0.0
C596 C 0.50446 0.08322 0.584 0.0
C597 C 0.47917 0.05694 0.46118 0.0
C598 C 0.46601 0.06151 0.40414 0.0
C599 C 0.445 0.0454 0.37794 0.0
C600 C 0.43733 0.02401 0.40987 0.0
C601 C 0.45063 1.01878 0.46727 0.0
C602 C 0.47179 0.03564 0.49362 0.0
H603 H 0.13383 0.11414 0.09769 0.0
H604 H 0.18615 0.15728 0.90834 0.0
H605 H 0.16663 0.17754 0.87664 0.0
H606 H 0.08861 0.11249 0.96107 0.0
H607 H 0.07355 0.11244 0.06421 0.0
H608 H 0.09111 0.1006 0.06958 0.0
H609 H 0.11205 0.12573 0.2103 0.0
H610 H 0.09461 0.13769 0.20515 0.0
H611 H 0.124 0.15483 0.19784 0.0
H612 H 0.14249 0.19412 0.86947 0.0
H613 H 0.11486 0.20574 0.88543 0.0
H614 H 0.07748 0.15199 0.07835 0.0
C615 C 0.141 0.12766 0.04859 0.0
C616 C 0.16164 0.13418 0.00592 0.0
C617 C 0.17056 0.15215 0.94296 0.0
C618 C 0.15953 0.1637 0.92404 0.0
C619 C 0.13947 0.15713 0.96831 0.0
C620 C 0.13019 0.13949 0.029 0.0
C621 C 0.10867 0.13631 0.06904 0.0
C622 C 0.08934 0.11414 0.03917 0.0
C623 C 0.10992 0.13879 0.17698 0.0
C624 C 0.10747 0.15502 0.0219 0.0
C625 C 0.1254 0.16674 0.96393 0.0
C626 C 0.1283 0.185 0.91429 0.0
C627 C 0.11249 0.19151 0.92405 0.0
C628 C 0.0939 0.17982 0.98306 0.0
C629 C 0.09141 0.16125 0.03231 0.0
H630 H 0.93636 0.9454 0.06975 0.0
H631 H 0.8801 0.93069 0.89304 0.0
H632 H 0.89267 0.96993 0.88009 0.0
H633 H 0.9364 0.98913 0.19765 0.0
H634 H 0.96591 1.00534 0.20365 0.0
H635 H 0.95292 0.97609 0.19673 0.0
H636 H 0.97612 0.97948 0.0488 0.0
H637 H 0.98914 1.00877 0.05503 0.0
H638 H 0.97541 0.99478 0.94837 0.0
H639 H 0.91078 1.01058 0.88796 0.0
H640 H 0.93281 0.05002 0.91962 0.0
H641 H 0.97719 0.03873 0.09291 0.0
C642 C 0.92671 0.9504 0.02799 0.0
C643 C 0.90722 0.93486 0.9823 0.0
C644 C 0.89506 0.94218 0.92882 0.0
C645 C 0.90209 0.96448 0.92078 0.0
C646 C 0.92133 0.97933 0.96663 0.0
C647 C 0.93346 0.97264 0.01939 0.0
C648 C 0.95325 0.99198 0.0635 0.0
C649 C 0.95204 0.99054 0.1718 0.0
C650 C 0.97475 0.99386 0.0267 0.0
C651 C 0.95025 1.01058 0.02768 0.0
C652 C 0.93177 1.00288 0.97162 0.0
C653 C 0.92528 1.01681 0.93179 0.0
C654 C 0.93785 0.03918 0.9506 0.0
C655 C 0.95669 0.04751 0.00907 0.0
C656 C 0.96305 0.03294 0.0471 0.0
H657 H 0.04986 0.96381 0.11106 0.0
H658 H 1.03574 0.92164 0.8678 0.0
H659 H 0.07469 0.94203 0.8212 0.0
H660 H 0.09256 1.01448 -0.0047 0.0
H661 H 0.10944 0.02388 0.0995 0.0
H662 H 0.08004 1.00727 0.11048 0.0
H663 H 0.08498 0.97965 0.21287 0.0
H664 H 0.11435 0.99612 0.20201 0.0
H665 H 0.10076 0.96785 0.1674 0.0
H666 H 0.1149 0.96443 0.80687 0.0
H667 H 0.15474 0.98837 0.82326 0.0
H668 H 0.14429 1.01733 0.07421 0.0
C669 C 0.05496 0.95922 0.04702 0.0
C670 C 0.03975 0.94108 -0.00692 0.0
C671 C 0.0471 0.93532 0.91059 0.0
C672 C 0.06918 0.94688 0.88325 0.0
C673 C 0.08382 0.96431 0.93879 0.0
C674 C 0.07711 0.97062 0.01865 0.0
C675 C 0.09666 0.98933 0.06788 0.0
C676 C 0.09454 1.00997 0.06829 0.0
C677 C 0.09934 0.98284 0.16849 0.0
C678 C 0.11536 0.99215 0.00419 0.0
C679 C 0.10742 0.97757 0.92998 0.0
C680 C 0.12132 0.97609 0.86405 0.0
C681 C 0.14399 0.98973 0.87434 0.0
C682 C 0.1527 1.00479 0.94992 0.0
C683 C 0.13812 1.00619 0.01506 0.0
H684 H 0.7458 0.48235 0.39343 0.0
H685 H 0.7893 0.54057 0.23373 0.0
H686 H 0.81683 0.52865 0.22659 0.0
H687 H 0.78753 0.48104 0.53246 0.0
H688 H 0.77505 0.45175 0.53177 0.0
H689 H 0.75816 0.46424 0.52118 0.0
H690 H 0.74175 0.4432 0.36567 0.0
H691 H 0.75859 0.43061 0.37576 0.0
H692 H 0.75988 0.44553 0.27056 0.0
H693 H 0.84034 0.51146 0.24137 0.0
H694 H 0.85832 0.48985 0.2763 0.0
H695 H 0.80004 0.44245 0.42624 0.0
C696 C 0.76104 0.49253 0.35629 0.0
C697 C 0.76529 0.51245 0.31405 0.0
C698 C 0.78555 0.52528 0.2667 0.0
C699 C 0.80134 0.51863 0.26211 0.0
C700 C 0.7967 0.49906 0.30498 0.0
C701 C 0.77705 0.48613 0.351 0.0
C702 C 0.77653 0.46608 0.39308 0.0
C703 C 0.77418 0.46577 0.50103 0.0
C704 C 0.75809 0.44512 0.34859 0.0
C705 C 0.79904 0.4699 0.3642 0.0
C706 C 0.81034 0.48902 0.31329 0.0
C707 C 0.83164 0.49643 0.28096 0.0
C708 C 0.84177 0.48409 0.30166 0.0
C709 C 0.83067 0.46449 0.35434 0.0
C710 C 0.80889 0.45724 0.38508 0.0
H711 H 0.61191 0.37241 0.31437 0.0
H712 H 0.67427 0.3849 0.43169 0.0
H713 H 0.66171 0.34558 0.4264 0.0
H714 H 0.57833 0.32335 0.44188 0.0
H715 H 0.55954 0.30976 0.34615 0.0
H716 H 0.57371 0.33907 0.35391 0.0
H717 H 0.58911 0.34191 0.18519 0.0
H718 H 0.57494 0.3126 0.17682 0.0
H719 H 0.60418 0.32807 0.15761 0.0
H720 H 0.64205 0.30515 0.4174 0.0
H721 H 0.61693 0.26587 0.40093 0.0
H722 H 0.56679 0.27858 0.28766 0.0
C723 C 0.62294 0.36687 0.33873 0.0
C724 C 0.64418 0.38185 0.37298 0.0
C725 C 0.65812 0.37389 0.4036 0.0
C726 C 0.65108 0.35153 0.40145 0.0
C727 C 0.63005 0.33726 0.3681 0.0
C728 C 0.61619 0.34455 0.33675 0.0
C729 C 0.59424 0.32559 0.30585 0.0
C730 C 0.57534 0.32438 0.36553 0.0
C731 C 0.5904 0.32714 0.20008 0.0
C732 C 0.59784 0.30649 0.32631 0.0
C733 C 0.61866 0.31371 0.36196 0.0
C734 C 0.62578 0.29931 0.38875 0.0
C735 C 0.61129 0.27693 0.37895 0.0
C736 C 0.58982 0.26896 0.34214 0.0
C737 C 0.5831 0.28406 0.31528 0.0
H738 H 0.70993 0.24389 0.3358 0.0
H739 H 0.69038 0.29165 0.40575 0.0
H740 H 0.72909 0.32091 0.39767 0.0
H741 H 0.7602 0.26824 0.46844 0.0
H742 H 0.77534 0.2622 0.38227 0.0
H743 H 0.74603 0.24491 0.39212 0.0
H744 H 0.74174 0.25082 0.21485 0.0
H745 H 0.77104 0.26817 0.20451 0.0
H746 H 0.75293 0.27819 0.16995 0.0
H747 H 0.76981 0.34484 0.38792 0.0
H748 H 0.80995 0.36222 0.37275 0.0
H749 H 0.80386 0.29952 0.30466 0.0
C750 C 0.71383 0.26051 0.3496 0.0
C751 C 0.69704 0.26546 0.37116 0.0
C752 C 0.70285 0.28746 0.38794 0.0
C753 C 0.72482 0.30419 0.38394 0.0
C754 C 0.74092 0.29878 0.36237 0.0
C755 C 0.73575 0.27751 0.34496 0.0
C756 C 0.75631 0.27626 0.32289 0.0
C757 C 0.75967 0.26206 0.39579 0.0
C758 C 0.75545 0.26786 0.22205 0.0
C759 C 0.77384 0.3001 0.3319 0.0
C760 C 0.76453 0.31274 0.35482 0.0
C761 C 0.77728 0.33512 0.36937 0.0
C762 C 0.80014 0.34486 0.36063 0.0
C763 C 0.81021 0.33235 0.33695 0.0
C764 C 0.79675 0.30963 0.32188 0.0
H765 H 0.46046 0.77442 0.7547 0.0
H766 H 0.51739 0.81926 0.59025 0.0
H767 H 0.50037 0.84195 0.5602 0.0
H768 H 0.41953 0.77844 0.60752 0.0
H769 H 0.40282 0.77703 0.70691 0.0
H770 H 0.419 0.76366 0.71207 0.0
H771 H 0.43772 0.78496 0.86462 0.0
H772 H 0.42171 0.79848 0.85961 0.0
H773 H 0.45126 0.81433 0.8641 0.0
H774 H 0.47818 0.8607 0.55355 0.0
H775 H 0.45173 0.8739 0.56711 0.0
H776 H 0.40867 0.81688 0.73438 0.0
C777 C 0.46917 0.78881 0.71108 0.0
C778 C 0.49034 0.7951 0.6752 0.0
C779 C 0.50131 0.81425 0.61957 0.0
C780 C 0.49173 0.8272 0.60167 0.0
C781 C 0.47107 0.82078 0.63947 0.0
C782 C 0.45982 0.80199 0.69252 0.0
C783 C 0.43805 0.79918 0.72682 0.0
C784 C 0.41871 0.77834 0.68587 0.0
C785 C 0.43715 0.79925 0.83522 0.0
C786 C 0.43899 0.81947 0.68567 0.0
C787 C 0.45817 0.83163 0.63532 0.0
C788 C 0.46303 0.85125 0.59233 0.0
C789 C 0.44789 0.85865 0.60072 0.0
C790 C 0.42805 0.84648 0.65178 0.0
C791 C 0.42362 0.82658 0.69462 0.0
H792 H 0.26768 0.61283 0.72307 0.0
H793 H 0.20572 0.5983 0.59394 0.0
H794 H 0.21841 0.63761 0.58408 0.0
H795 H 0.27405 0.65739 0.86425 0.0
H796 H 0.30339 0.67331 0.84862 0.0
H797 H 0.28984 0.64402 0.84254 0.0
H798 H 0.3065 0.64656 0.67678 0.0
H799 H 0.32007 0.67589 0.6822 0.0
H800 H 0.30208 0.66162 0.58499 0.0
H801 H 0.23713 0.67826 0.59195 0.0
H802 H 0.26053 0.71774 0.61914 0.0
H803 H 0.31052 0.70642 0.74356 0.0
C804 C 0.25678 0.61788 0.69234 0.0
C805 C 0.23565 0.60235 0.65922 0.0
C806 C 0.22196 0.60976 0.61972 0.0
C807 C 0.22904 0.63211 0.61364 0.0
C808 C 0.2499 0.64692 0.64698 0.0
C809 C 0.26361 0.64017 0.68549 0.0
C810 C 0.28508 0.65954 0.71783 0.0
C811 C 0.28826 0.65849 0.82465 0.0
C812 C 0.30458 0.66098 0.66211 0.0
C813 C 0.28114 0.6782 0.69279 0.0
C814 C 0.26077 0.67051 0.6515 0.0
C815 C 0.25312 0.68448 0.62409 0.0
C816 C 0.2665 0.70688 0.64029 0.0
C817 C 0.28733 0.71521 0.68386 0.0
C818 C 0.2948 0.70061 0.70923 0.0
H819 H 0.47313 0.67489 0.75365 0.0
H820 H 0.48492 0.63718 0.54326 0.0
H821 H 0.44496 0.61252 0.52819 0.0
H822 H 0.42802 0.62928 0.86806 0.0
H823 H 0.41301 0.64342 0.89042 0.0
H824 H 0.44254 0.65847 0.88297 0.0
H825 H 0.44029 0.68291 0.75221 0.0
H826 H 0.41075 0.66792 0.75921 0.0
H827 H 0.42425 0.67044 0.64789 0.0
H828 H 0.40367 0.59197 0.53536 0.0
H829 H 0.36414 0.57597 0.56958 0.0
H830 H 0.37897 0.62657 0.77717 0.0
C831 C 0.46734 0.66149 0.70415 0.0
C832 C 0.48225 0.65804 0.64943 0.0
C833 C 0.47391 0.64019 0.58608 0.0
C834 C 0.4512 0.6261 0.57681 0.0
C835 C 0.43698 0.62998 0.63166 0.0
C836 C 0.44471 0.64716 0.69448 0.0
C837 C 0.42593 0.64741 0.74665 0.0
C838 C 0.42747 0.64446 0.85335 0.0
C839 C 0.42527 0.66842 0.72518 0.0
C840 C 0.40643 0.62763 0.70356 0.0
C841 C 0.41318 0.61793 0.63686 0.0
C842 C 0.3982 0.59946 0.58729 0.0
C843 C 0.37574 0.59058 0.6068 0.0
C844 C 0.36838 0.60004 0.67574 0.0
C845 C 0.38404 0.61887 0.72446 0.0
H846 H 0.0672 0.21672 0.74034 0.0
H847 H 0.99972 0.16359 0.72772 0.0
H848 H 1.00204 0.16305 0.55548 0.0
H849 H 0.06302 0.24464 0.53412 0.0
H850 H 0.09049 0.2535 0.49265 0.0
H851 H 0.08439 0.24922 0.61687 0.0
H852 H 0.09946 0.22238 0.62148 0.0
H853 H 0.10543 0.22644 0.49702 0.0
H854 H 0.08824 0.19932 0.54271 0.0
H855 H 1.01051 0.16743 0.3899 0.0
H856 H 1.02347 0.17933 0.22961 0.0
H857 H 0.08556 0.23112 0.33716 0.0
C858 C 0.05301 0.20501 0.70083 0.0
C859 C 1.03333 0.19005 0.74731 0.0
C860 C 1.01497 0.17513 0.69376 0.0
C861 C 1.01614 0.1746 0.5958 0.0
C862 C 1.0357 0.18928 0.55204 0.0
C863 C 0.05376 0.20447 0.60178 0.0
C864 C 0.0722 0.21915 0.53464 0.0
C865 C 0.07785 0.24304 0.54521 0.0
C866 C 0.09254 0.21667 0.5499 0.0
C867 C 0.06147 0.20979 0.43982 0.0
C868 C 0.04054 0.19236 0.45295 0.0
C869 C 1.02687 0.18101 0.37835 0.0
C870 C 1.03448 0.18791 0.28726 0.0
C871 C 0.05556 0.20608 0.27059 0.0
C872 C 0.06948 0.21703 0.34791 0.0
H873 H 0.88262 0.88539 0.7256 0.0
H874 H 0.89961 0.83412 0.7352 0.0
H875 H 0.89115 0.82695 0.56634 0.0
H876 H 0.83807 0.85922 0.54573 0.0
H877 H 0.84565 0.88469 0.48756 0.0
H878 H 0.85024 0.88423 0.61245 0.0
H879 H 0.89137 0.9125 0.5887 0.0
H880 H 0.88697 0.91298 0.46385 0.0
H881 H 0.90742 0.90671 0.50636 0.0
H882 H 0.88458 0.82718 0.39913 0.0
H883 H 0.88011 0.83459 0.23521 0.0
H884 H 0.86765 0.88637 0.32321 0.0
C885 C 0.88407 0.87238 0.69204 0.0
C886 C 0.89165 0.86018 0.74289 0.0
C887 C 0.89383 0.8436 0.69711 0.0
C888 C 0.88897 0.83935 0.60145 0.0
C889 C 0.88203 0.8519 0.55247 0.0
C890 C 0.87952 0.86807 0.59546 0.0
C891 C 0.87348 0.88017 0.52332 0.0
C892 C 0.85049 0.87688 0.54347 0.0
C893 C 0.89085 0.90453 0.52041 0.0
C894 C 0.87368 0.86863 0.43311 0.0
C895 C 0.8784 0.85223 0.45282 0.0
C896 C 0.88069 0.83983 0.3826 0.0
C897 C 0.87829 0.84436 0.28922 0.0
C898 C 0.87367 0.86117 0.26602 0.0
C899 C 0.87101 0.87331 0.33908 0.0
H900 H 0.21057 0.02183 0.70547 0.0
H901 H 0.24264 0.09258 0.69558 0.0
H902 H 0.24287 0.09153 0.5232 0.0
H903 H 0.2412 1.01695 0.50946 0.0
H904 H 0.21842 0.99244 0.46251 0.0
H905 H 0.21974 0.99815 0.58697 0.0
H906 H 0.1813 0.9948 0.57892 0.0
H907 H 0.17992 0.98919 0.45431 0.0
H908 H 0.1765 1.0114 0.49641 0.0
H909 H 0.24039 0.08411 0.35751 0.0
H910 H 0.23719 0.0706 0.19709 0.0
H911 H 0.20727 1.00403 0.30134 0.0
C912 C 0.21757 0.03701 0.66651 0.0
C913 C 0.22647 0.05731 0.71385 0.0
C914 C 0.23566 0.07686 0.66101 0.0
C915 C 0.23584 0.07646 0.56289 0.0
C916 C 0.22692 0.05637 0.5182 0.0
C917 C 0.21811 0.03695 0.56727 0.0
C918 C 0.21045 1.01783 0.49929 0.0
C919 C 0.22322 1.00562 0.51553 0.0
C920 C 0.18556 1.00239 0.50776 0.0
C921 C 0.21642 0.02974 0.40493 0.0
C922 C 0.22576 0.05194 0.41895 0.0
C923 C 0.23307 0.06677 0.34518 0.0
C924 C 0.23112 0.05884 0.25395 0.0
C925 C 0.22188 0.03623 0.23624 0.0
C926 C 0.21423 0.02137 0.3128 0.0
H927 H 0.75794 0.56273 0.66336 0.0
H928 H 0.69302 0.51618 0.55881 0.0
H929 H 0.67979 0.50556 0.71923 0.0
H930 H 0.75662 0.52862 0.86532 0.0
H931 H 0.77048 0.55139 0.94468 0.0
H932 H 0.77602 0.55517 0.81985 0.0
H933 H 0.76589 0.58578 0.81957 0.0
H934 H 0.76009 0.58193 0.94415 0.0
H935 H 0.7394 0.58005 0.86333 0.0
H936 H 0.67185 0.50169 0.88431 0.0
H937 H 0.67034 0.5016 0.05662 0.0
H938 H 0.74012 0.54886 0.06748 0.0
C939 C 0.7411 0.55008 0.67482 0.0
C940 C 0.72654 0.54026 0.59813 0.0
C941 C 0.70455 0.52392 0.61574 0.0
C942 C 0.69677 0.51775 0.70701 0.0
C943 C 0.71117 0.52795 0.78089 0.0
C944 C 0.73292 0.54353 0.76702 0.0
C945 C 0.7444 0.55178 0.86154 0.0
C946 C 0.76298 0.54641 0.87354 0.0
C947 C 0.75295 0.57635 0.87277 0.0
C948 C 0.72551 0.53851 0.9292 0.0
C949 C 0.70656 0.52508 0.87997 0.0
C950 C 0.6866 0.51187 0.92424 0.0
C951 C 0.68592 0.51202 0.02227 0.0
C952 C 0.70514 0.52506 0.0753 0.0
C953 C 0.72524 0.53861 0.02833 0.0
H954 H 0.54726 0.17867 0.60505 0.0
H955 H 0.54441 0.23867 0.59562 0.0
H956 H 0.55095 0.24334 0.76609 0.0
H957 H 0.51903 0.15945 0.82135 0.0
H958 H 0.53551 0.14835 0.86572 0.0
H959 H 0.53253 0.15021 0.74045 0.0
H960 H 0.5748 0.17265 0.72158 0.0
H961 H 0.57793 0.17069 0.84681 0.0
H962 H 0.59025 0.19704 0.79058 0.0
H963 H 0.55417 0.24038 0.93472 0.0
H964 H 0.55665 0.23121 0.09916 0.0
H965 H 0.55854 0.17344 0.00799 0.0
C966 C 0.54841 0.19292 0.6391 0.0
C967 C 0.54525 0.20829 0.58764 0.0
C968 C 0.54665 0.22666 0.63403 0.0
C969 C 0.55041 0.2295 0.73078 0.0
C970 C 0.55287 0.21388 0.7802 0.0
C971 C 0.55217 0.19604 0.73663 0.0
C972 C 0.55455 0.18142 0.80869 0.0
C973 C 0.53419 0.1585 0.80904 0.0
C974 C 0.57564 0.1804 0.79085 0.0
C975 C 0.55616 0.19366 0.89919 0.0
C976 C 0.55518 0.21234 0.88013 0.0
C977 C 0.55527 0.22598 0.95085 0.0
C978 C 0.55657 0.22054 0.04412 0.0
C979 C 0.55791 0.20169 0.06612 0.0
C980 C 0.55774 0.18805 -0.00724 0.0
H981 H 0.85515 0.32912 0.65022 0.0
H982 H 0.91554 0.38672 0.56412 0.0
H983 H 0.92435 0.39778 0.7289 0.0
H984 H 0.84181 0.35537 0.83088 0.0
H985 H 0.831 0.33289 0.91281 0.0
H986 H 0.82997 0.32779 0.78797 0.0
H987 H 0.85084 0.30653 0.81322 0.0
H988 H 0.85196 0.31161 0.93829 0.0
H989 H 0.87691 0.31954 0.87336 0.0
H990 H 0.92607 0.40449 0.89699 0.0
H991 H 0.92 0.40724 0.06573 0.0
H992 H 0.8586 0.34585 0.05299 0.0
C993 C 0.87033 0.34386 0.66672 0.0
C994 C 0.88466 0.35705 0.59424 0.0
C995 C 0.90422 0.37641 0.61802 0.0
C996 C 0.9095 0.38279 0.71173 0.0
C997 C 0.89504 0.36971 0.78144 0.0
C998 C 0.87583 0.35068 0.76094 0.0
C999 C 0.86266 0.34065 0.85052 0.0
C1000 C 0.84002 0.33909 0.8452 0.0
C1001 C 0.86047 0.31825 0.86997 0.0
C1002 C 0.8773 0.35735 0.9234 0.0
C1003 C 0.89599 0.37376 0.88126 0.0
C1004 C 0.91163 0.39167 0.93128 0.0
C1005 C 0.90799 0.39311 0.02701 0.0
C1006 C 0.88888 0.37677 0.07205 0.0
C1007 C 0.87347 0.35842 0.02013 0.0
H1008 H 0.40281 0.88189 0.39881 0.0
H1009 H 0.33387 0.83212 0.38779 0.0
H1010 H 0.33566 0.83173 0.21554 0.0
H1011 H 0.40031 0.91169 0.19646 0.0
H1012 H 0.42723 0.91896 0.1527 0.0
H1013 H 0.42144 0.91458 0.27712 0.0
H1014 H 0.43391 0.88569 0.27694 0.0
H1015 H 0.43958 0.88985 0.15228 0.0
H1016 H 0.42117 0.86291 0.1969 0.0
H1017 H 0.34359 0.83618 0.04972 0.0
H1018 H 0.35644 0.84805 0.88927 0.0
H1019 H 0.42037 0.89661 -0.00471 0.0
C1020 C 0.38817 0.87097 0.35975 0.0
C1021 C 0.36822 0.85694 0.40676 0.0
C1022 C 0.34934 0.84295 0.35355 0.0
C1023 C 0.35019 0.84251 0.25552 0.0
C1024 C 0.36997 0.85636 0.21122 0.0
C1025 C 0.3886 0.87059 0.26059 0.0
C1026 C 0.40722 0.88463 0.19295 0.0
C1027 C 0.41447 0.90891 0.20556 0.0
C1028 C 0.42662 0.88052 0.20554 0.0
C1029 C 0.39592 0.87604 0.09837 0.0
C1030 C 0.37454 0.85951 0.11198 0.0
C1031 C 0.3603 0.84905 0.03776 0.0
C1032 C 0.36784 0.85593 0.94657 0.0
C1033 C 0.38943 0.87318 0.92948 0.0
C1034 C 0.40387 0.88322 0.00636 0.0
H1035 H 0.19721 0.55527 -0.00061 0.0
H1036 H 0.20682 0.50168 0.91181 0.0
H1037 H 0.21037 0.49361 0.0757 0.0
H1038 H 0.2366 0.57377 0.18244 0.0
H1039 H 0.2213 0.58064 0.26436 0.0
H1040 H 0.21708 0.58128 0.13944 0.0
H1041 H 0.17546 0.55459 0.16198 0.0
H1042 H 0.1796 0.55385 0.28714 0.0
H1043 H 0.16652 0.52886 0.22036 0.0
H1044 H 0.21628 0.49276 0.24299 0.0
H1045 H 0.2247 0.49961 0.41206 0.0
H1046 H 0.21096 0.55309 0.40183 0.0
C1047 C 0.19975 0.5417 0.01538 0.0
C1048 C 0.20187 0.52921 0.94245 0.0
C1049 C 0.20544 0.51171 0.96572 0.0
C1050 C 0.20728 0.5068 0.0591 0.0
C1051 C 0.2055 0.51951 0.12922 0.0
C1052 C 0.20181 0.53659 0.10944 0.0
C1053 C 0.20214 0.5484 0.19962 0.0
C1054 C 0.22037 0.57244 0.19623 0.0
C1055 C 0.17958 0.54629 0.21836 0.0
C1056 C 0.20722 0.53559 0.27174 0.0
C1057 C 0.20881 0.51887 0.22889 0.0
C1058 C 0.21478 0.50557 0.27803 0.0
C1059 C 0.21961 0.50963 0.37377 0.0
C1060 C 0.21833 0.52673 0.41933 0.0
C1061 C 0.21167 0.53967 0.36838 0.0
H1062 H 0.54486 0.68117 0.40166 0.0
H1063 H 0.56201 0.74929 0.38915 0.0
H1064 H 0.55943 0.74726 0.21691 0.0
H1065 H 0.5767 0.68365 0.19688 0.0
H1066 H 0.55737 0.65677 0.15469 0.0
H1067 H 0.55909 0.66272 0.27896 0.0
H1068 H 0.51751 0.64991 0.28185 0.0
H1069 H 0.5157 0.64407 0.15735 0.0
H1070 H 0.50671 0.66221 0.20246 0.0
H1071 H 0.55578 0.73915 0.05127 0.0
H1072 H 0.55468 0.72618 0.89105 0.0
H1073 H 0.54092 0.66304 -0.00148 0.0
C1074 C 0.54798 0.69556 0.36218 0.0
C1075 C 0.55346 0.71536 0.40869 0.0
C1076 C 0.55772 0.73395 0.35517 0.0
C1077 C 0.55618 0.73295 0.2572 0.0
C1078 C 0.55061 0.7133 0.21337 0.0
C1079 C 0.54684 0.69496 0.26311 0.0
C1080 C 0.54247 0.67641 0.19591 0.0
C1081 C 0.55995 0.66948 0.2073 0.0
C1082 C 0.51921 0.657 0.21027 0.0
C1083 C 0.54457 0.68741 0.10112 0.0
C1084 C 0.54898 0.7086 0.11426 0.0
C1085 C 0.55224 0.72257 0.0397 0.0
C1086 C 0.55151 0.71497 0.94864 0.0
C1087 C 0.54756 0.69356 0.93201 0.0
C1088 C 0.5437 0.67939 0.00925 0.0
loop_
_geom_bond_atom_site_label_1
_geom_bond_atom_site_label_2
_geom_bond_distance
_geom_bond_site_symmetry_2
_ccdc_geom_bond_type
Ho0 C3 2.811 1_554 S
Ho0 O20 2.322 . S
Ho0 O22 2.378 . S
Ho0 O23 2.524 1_554 S
Ho0 O24 2.381 . S
Ho0 O25 2.669 . S
Ho0 O27 2.346 . S
Ho0 O31 2.305 1_554 S
Ho1 C12 2.811 1_556 S
Ho1 O21 2.346 1_556 S
Ho1 O25 2.305 1_656 S
Ho1 O26 2.322 1_655 S
Ho1 O28 2.378 . S
Ho1 O29 2.524 1_556 S
Ho1 O30 2.381 . S
Ho1 O31 2.669 1_655 S
C2 O20 1.259 1_655 S
C2 O21 1.268 . S
C3 Ho0 2.811 1_556 S
C3 C4 1.488 . S
C3 O22 1.215 1_556 S
C3 O23 1.289 . S
C4 C3 1.488 . S
C4 C5 1.348 . S
C4 C9 1.413 1_556 S
C5 C4 1.348 . S
C5 C6 1.442 . S
C5 H32 0.930 . S
C6 C5 1.442 . S
C6 C7 1.381 . S
C6 H33 0.931 . S
C7 C6 1.381 . S
C7 C8 1.321 1_556 S
C8 C7 1.321 1_554 S
C8 C9 1.403 . S
C8 H34 0.934 . S
C9 C4 1.413 1_554 S
C9 C8 1.403 . S
C9 H35 0.930 . S
C10 O24 1.275 . S
C10 O25 1.256 . S
C11 O26 1.259 . S
C11 O27 1.268 1_556 S
C12 Ho1 2.811 1_554 S
C12 C13 1.488 . S
C12 O28 1.215 1_554 S
C12 O29 1.289 . S
C13 C12 1.488 . S
C13 C14 1.348 . S
C13 C18 1.413 1_554 S
C14 C13 1.348 . S
C14 C15 1.442 . S
C14 H36 0.930 . S
C15 C14 1.442 . S
C15 C16 1.381 . S
C15 H37 0.931 . S
C16 C15 1.381 . S
C16 C17 1.321 1_554 S
C17 C16 1.321 1_556 S
C17 C18 1.403 . S
C17 H38 0.934 . S
C18 C13 1.413 1_556 S
C18 C17 1.403 . S
C18 H39 0.930 . S
C19 O30 1.275 1_455 S
C19 O31 1.256 . S
O20 Ho0 2.322 . S
O20 C2 1.259 1_455 S
O21 Ho1 2.346 1_554 S
O21 C2 1.268 . S
O22 Ho0 2.378 . S
O22 C3 1.215 1_554 S
O23 Ho0 2.524 1_556 S
O23 C3 1.289 . S
O24 Ho0 2.381 . S
O24 C10 1.275 . S
O25 Ho0 2.669 . S
O25 Ho1 2.305 1_454 S
O25 C10 1.256 . S
O26 Ho1 2.322 1_455 S
O26 C11 1.259 . S
O27 Ho0 2.346 . S
O27 C11 1.268 1_554 S
O28 Ho1 2.378 . S
O28 C12 1.215 1_556 S
O29 Ho1 2.524 1_554 S
O29 C12 1.289 . S
O30 Ho1 2.381 . S
O30 C19 1.275 1_655 S
O31 Ho0 2.305 1_556 S
O31 Ho1 2.669 1_455 S
O31 C19 1.256 . S
H32 C5 0.930 . S
H33 C6 0.931 . S
H34 C8 0.934 . S
H35 C9 0.930 . S
H36 C14 0.930 . S
H37 C15 0.931 . S
H38 C17 0.934 . S
H39 C18 0.930 . S
Ho40 C43 2.811 1_554 S
Ho40 O60 2.322 . S
Ho40 O62 2.378 . S
Ho40 O63 2.524 1_554 S
Ho40 O64 2.381 . S
Ho40 O65 2.669 . S
Ho40 O67 2.346 . S
Ho40 O71 2.305 1_554 S
Ho41 C52 2.811 1_556 S
Ho41 O61 2.346 1_556 S
Ho41 O65 2.305 1_556 S
Ho41 O66 2.322 . S
Ho41 O68 2.378 . S
Ho41 O69 2.524 1_556 S
Ho41 O70 2.381 . S
Ho41 O71 2.669 . S
C42 O60 1.259 . S
C42 O61 1.268 . S
C43 Ho40 2.811 1_556 S
C43 C44 1.488 . S
C43 O62 1.215 1_556 S
C43 O63 1.289 . S
C44 C43 1.488 . S
C44 C45 1.348 . S
C44 C49 1.413 1_556 S
C45 C44 1.348 . S
C45 C46 1.442 . S
C45 H72 0.930 . S
C46 C45 1.442 . S
C46 C47 1.381 . S
C46 H73 0.931 . S
C47 C46 1.381 . S
C47 C48 1.321 1_556 S
C48 C47 1.321 1_554 S
C48 C49 1.403 . S
C48 H74 0.934 . S
C49 C44 1.413 1_554 S
C49 C48 1.403 . S
C49 H75 0.930 . S
C50 O64 1.275 . S
C50 O65 1.256 . S
C51 O66 1.259 . S
C51 O67 1.268 1_556 S
C52 Ho41 2.811 1_554 S
C52 C53 1.488 . S
C52 O68 1.215 1_554 S
C52 O69 1.289 . S
C53 C52 1.488 . S
C53 C54 1.348 . S
C53 C58 1.413 1_554 S
C54 C53 1.348 . S
C54 C55 1.442 . S
C54 H76 0.930 . S
C55 C54 1.442 . S
C55 C56 1.381 . S
C55 H77 0.931 . S
C56 C55 1.381 . S
C56 C57 1.321 1_554 S
C57 C56 1.321 1_556 S
C57 C58 1.403 . S
C57 H78 0.934 . S
C58 C53 1.413 1_556 S
C58 C57 1.403 . S
C58 H79 0.930 . S
C59 O70 1.275 . S
C59 O71 1.256 . S
O60 Ho40 2.322 . S
O60 C42 1.259 . S
O61 Ho41 2.346 1_554 S
O61 C42 1.268 . S
O62 Ho40 2.378 . S
O62 C43 1.215 1_554 S
O63 Ho40 2.524 1_556 S
O63 C43 1.289 . S
O64 Ho40 2.381 . S
O64 C50 1.275 . S
O65 Ho40 2.669 . S
O65 Ho41 2.305 1_554 S
O65 C50 1.256 . S
O66 Ho41 2.322 . S
O66 C51 1.259 . S
O67 Ho40 2.346 . S
O67 C51 1.268 1_554 S
O68 Ho41 2.378 . S
O68 C52 1.215 1_556 S
O69 Ho41 2.524 1_554 S
O69 C52 1.289 . S
O70 Ho41 2.381 . S
O70 C59 1.275 . S
O71 Ho40 2.305 1_556 S
O71 Ho41 2.669 . S
O71 C59 1.256 . S
H72 C45 0.930 . S
H73 C46 0.931 . S
H74 C48 0.934 . S
H75 C49 0.930 . S
H76 C54 0.930 . S
H77 C55 0.931 . S
H78 C57 0.934 . S
H79 C58 0.930 . S
Ho80 C83 2.811 1_554 S
Ho80 O100 2.322 1_565 S
Ho80 O102 2.378 . S
Ho80 O103 2.524 1_554 S
Ho80 O104 2.381 . S
Ho80 O105 2.669 1_565 S
Ho80 O107 2.346 . S
Ho80 O111 2.305 1_564 S
Ho81 C92 2.811 1_556 S
Ho81 O101 2.346 1_556 S
Ho81 O105 2.305 1_556 S
Ho81 O106 2.322 . S
Ho81 O108 2.378 . S
Ho81 O109 2.524 1_556 S
Ho81 O110 2.381 . S
Ho81 O111 2.669 . S
C82 O100 1.259 . S
C82 O101 1.268 . S
C83 Ho80 2.811 1_556 S
C83 C84 1.488 . S
C83 O102 1.215 1_556 S
C83 O103 1.289 . S
C84 C83 1.488 . S
C84 C85 1.348 . S
C84 C89 1.413 1_556 S
C85 C84 1.348 . S
C85 C86 1.442 . S
C85 H112 0.930 . S
C86 C85 1.442 . S
C86 C87 1.381 . S
C86 H113 0.931 . S
C87 C86 1.381 . S
C87 C88 1.321 1_556 S
C88 C87 1.321 1_554 S
C88 C89 1.403 . S
C88 H114 0.934 . S
C89 C84 1.413 1_554 S
C89 C88 1.403 . S
C89 H115 0.930 . S
C90 O104 1.275 1_545 S
C90 O105 1.256 . S
C91 O106 1.259 1_565 S
C91 O107 1.268 1_556 S
C92 Ho81 2.811 1_554 S
C92 C93 1.488 . S
C92 O108 1.215 1_554 S
C92 O109 1.289 . S
C93 C92 1.488 . S
C93 C94 1.348 . S
C93 C98 1.413 1_554 S
C94 C93 1.348 . S
C94 C95 1.442 . S
C94 H116 0.930 . S
C95 C94 1.442 . S
C95 C96 1.381 . S
C95 H117 0.931 . S
C96 C95 1.381 . S
C96 C97 1.321 1_554 S
C97 C96 1.321 1_556 S
C97 C98 1.403 . S
C97 H118 0.934 . S
C98 C93 1.413 1_556 S
C98 C97 1.403 . S
C98 H119 0.930 . S
C99 O110 1.275 . S
C99 O111 1.256 . S
O100 Ho80 2.322 1_545 S
O100 C82 1.259 . S
O101 Ho81 2.346 1_554 S
O101 C82 1.268 . S
O102 Ho80 2.378 . S
O102 C83 1.215 1_554 S
O103 Ho80 2.524 1_556 S
O103 C83 1.289 . S
O104 Ho80 2.381 . S
O104 C90 1.275 1_565 S
O105 Ho80 2.669 1_545 S
O105 Ho81 2.305 1_554 S
O105 C90 1.256 . S
O106 Ho81 2.322 . S
O106 C91 1.259 1_545 S
O107 Ho80 2.346 . S
O107 C91 1.268 1_554 S
O108 Ho81 2.378 . S
O108 C92 1.215 1_556 S
O109 Ho81 2.524 1_554 S
O109 C92 1.289 . S
O110 Ho81 2.381 . S
O110 C99 1.275 . S
O111 Ho80 2.305 1_546 S
O111 Ho81 2.669 . S
O111 C99 1.256 . S
H112 C85 0.930 . S
H113 C86 0.931 . S
H114 C88 0.934 . S
H115 C89 0.930 . S
H116 C94 0.930 . S
H117 C95 0.931 . S
H118 C97 0.934 . S
H119 C98 0.930 . S
Ho120 C123 2.811 . S
Ho120 O140 2.322 . S
Ho120 O142 2.378 . S
Ho120 O143 2.524 . S
Ho120 O144 2.381 . S
Ho120 O145 2.669 . S
Ho120 O147 2.346 . S
Ho120 O151 2.305 . S
Ho121 C132 2.811 . S
Ho121 O141 2.346 . S
Ho121 O145 2.305 . S
Ho121 O146 2.322 . S
Ho121 O148 2.378 . S
Ho121 O149 2.524 . S
Ho121 O150 2.381 . S
Ho121 O151 2.669 . S
C122 O140 1.259 . S
C122 O141 1.268 . S
C123 Ho120 2.811 . S
C123 C124 1.488 . S
C123 O142 1.215 . S
C123 O143 1.289 . S
C124 C123 1.488 . S
C124 C125 1.348 . S
C124 C129 1.413 . S
C125 C124 1.348 . S
C125 C126 1.442 . S
C125 H152 0.930 . S
C126 C125 1.442 . S
C126 C127 1.381 . S
C126 H153 0.931 . S
C127 C126 1.381 . S
C127 C128 1.321 . S
C128 C127 1.321 . S
C128 C129 1.403 . S
C128 H154 0.934 . S
C129 C124 1.413 . S
C129 C128 1.403 . S
C129 H155 0.930 . S
C130 O144 1.275 . S
C130 O145 1.256 . S
C131 O146 1.259 . S
C131 O147 1.268 . S
C132 Ho121 2.811 . S
C132 C133 1.488 . S
C132 O148 1.215 . S
C132 O149 1.289 . S
C133 C132 1.488 . S
C133 C134 1.348 . S
C133 C138 1.413 . S
C134 C133 1.348 . S
C134 C135 1.442 . S
C134 H156 0.930 . S
C135 C134 1.442 . S
C135 C136 1.381 . S
C135 H157 0.931 . S
C136 C135 1.381 . S
C136 C137 1.321 . S
C137 C136 1.321 . S
C137 C138 1.403 . S
C137 H158 0.934 . S
C138 C133 1.413 . S
C138 C137 1.403 . S
C138 H159 0.930 . S
C139 O150 1.275 . S
C139 O151 1.256 . S
O140 Ho120 2.322 . S
O140 C122 1.259 . S
O141 Ho121 2.346 . S
O141 C122 1.268 . S
O142 Ho120 2.378 . S
O142 C123 1.215 . S
O143 Ho120 2.524 . S
O143 C123 1.289 . S
O144 Ho120 2.381 . S
O144 C130 1.275 . S
O145 Ho120 2.669 . S
O145 Ho121 2.305 . S
O145 C130 1.256 . S
O146 Ho121 2.322 . S
O146 C131 1.259 . S
O147 Ho120 2.346 . S
O147 C131 1.268 . S
O148 Ho121 2.378 . S
O148 C132 1.215 . S
O149 Ho121 2.524 . S
O149 C132 1.289 . S
O150 Ho121 2.381 . S
O150 C139 1.275 . S
O151 Ho120 2.305 . S
O151 Ho121 2.669 . S
O151 C139 1.256 . S
H152 C125 0.930 . S
H153 C126 0.931 . S
H154 C128 0.934 . S
H155 C129 0.930 . S
H156 C134 0.930 . S
H157 C135 0.931 . S
H158 C137 0.934 . S
H159 C138 0.930 . S
Ho160 C163 2.811 . S
Ho160 O180 2.322 . S
Ho160 O182 2.378 . S
Ho160 O183 2.524 . S
Ho160 O184 2.381 . S
Ho160 O185 2.669 . S
Ho160 O187 2.346 . S
Ho160 O191 2.305 . S
Ho161 C172 2.811 . S
Ho161 O181 2.346 . S
Ho161 O185 2.305 . S
Ho161 O186 2.322 . S
Ho161 O188 2.378 . S
Ho161 O189 2.524 . S
Ho161 O190 2.381 . S
Ho161 O191 2.669 . S
C162 O180 1.259 . S
C162 O181 1.268 . S
C163 Ho160 2.811 . S
C163 C164 1.488 . S
C163 O182 1.215 . S
C163 O183 1.289 . S
C164 C163 1.488 . S
C164 C165 1.348 . S
C164 C169 1.413 . S
C165 C164 1.348 . S
C165 C166 1.442 . S
C165 H192 0.930 . S
C166 C165 1.442 . S
C166 C167 1.381 . S
C166 H193 0.931 . S
C167 C166 1.381 . S
C167 C168 1.321 . S
C168 C167 1.321 . S
C168 C169 1.403 . S
C168 H194 0.934 . S
C169 C164 1.413 . S
C169 C168 1.403 . S
C169 H195 0.930 . S
C170 O184 1.275 . S
C170 O185 1.256 . S
C171 O186 1.259 . S
C171 O187 1.268 . S
C172 Ho161 2.811 . S
C172 C173 1.488 . S
C172 O188 1.215 . S
C172 O189 1.289 . S
C173 C172 1.488 . S
C173 C174 1.348 . S
C173 C178 1.413 . S
C174 C173 1.348 . S
C174 C175 1.442 . S
C174 H196 0.930 . S
C175 C174 1.442 . S
C175 C176 1.381 . S
C175 H197 0.931 . S
C176 C175 1.381 . S
C176 C177 1.321 . S
C177 C176 1.321 . S
C177 C178 1.403 . S
C177 H198 0.934 . S
C178 C173 1.413 . S
C178 C177 1.403 . S
C178 H199 0.930 . S
C179 O190 1.275 . S
C179 O191 1.256 . S
O180 Ho160 2.322 . S
O180 C162 1.259 . S
O181 Ho161 2.346 . S
O181 C162 1.268 . S
O182 Ho160 2.378 . S
O182 C163 1.215 . S
O183 Ho160 2.524 . S
O183 C163 1.289 . S
O184 Ho160 2.381 . S
O184 C170 1.275 . S
O185 Ho160 2.669 . S
O185 Ho161 2.305 . S
O185 C170 1.256 . S
O186 Ho161 2.322 . S
O186 C171 1.259 . S
O187 Ho160 2.346 . S
O187 C171 1.268 . S
O188 Ho161 2.378 . S
O188 C172 1.215 . S
O189 Ho161 2.524 . S
O189 C172 1.289 . S
O190 Ho161 2.381 . S
O190 C179 1.275 . S
O191 Ho160 2.305 . S
O191 Ho161 2.669 . S
O191 C179 1.256 . S
H192 C165 0.930 . S
H193 C166 0.931 . S
H194 C168 0.934 . S
H195 C169 0.930 . S
H196 C174 0.930 . S
H197 C175 0.931 . S
H198 C177 0.934 . S
H199 C178 0.930 . S
Ho200 C203 2.811 . S
Ho200 O220 2.322 . S
Ho200 O222 2.378 . S
Ho200 O223 2.524 . S
Ho200 O224 2.381 . S
Ho200 O225 2.669 . S
Ho200 O227 2.346 . S
Ho200 O231 2.305 . S
Ho201 C212 2.811 . S
Ho201 O221 2.346 . S
Ho201 O225 2.305 . S
Ho201 O226 2.322 . S
Ho201 O228 2.378 . S
Ho201 O229 2.524 . S
Ho201 O230 2.381 . S
Ho201 O231 2.669 . S
C202 O220 1.259 . S
C202 O221 1.268 . S
C203 Ho200 2.811 . S
C203 C204 1.488 . S
C203 O222 1.215 . S
C203 O223 1.289 . S
C204 C203 1.488 . S
C204 C205 1.348 . S
C204 C209 1.413 . S
C205 C204 1.348 . S
C205 C206 1.442 . S
C205 H232 0.930 . S
C206 C205 1.442 . S
C206 C207 1.381 . S
C206 H233 0.931 . S
C207 C206 1.381 . S
C207 C208 1.321 . S
C208 C207 1.321 . S
C208 C209 1.403 . S
C208 H234 0.934 . S
C209 C204 1.413 . S
C209 C208 1.403 . S
C209 H235 0.930 . S
C210 O224 1.275 . S
C210 O225 1.256 . S
C211 O226 1.259 . S
C211 O227 1.268 . S
C212 Ho201 2.811 . S
C212 C213 1.488 . S
C212 O228 1.215 . S
C212 O229 1.289 . S
C213 C212 1.488 . S
C213 C214 1.348 . S
C213 C218 1.413 . S
C214 C213 1.348 . S
C214 C215 1.442 . S
C214 H236 0.930 . S
C215 C214 1.442 . S
C215 C216 1.381 . S
C215 H237 0.931 . S
C216 C215 1.381 . S
C216 C217 1.321 . S
C217 C216 1.321 . S
C217 C218 1.403 . S
C217 H238 0.934 . S
C218 C213 1.413 . S
C218 C217 1.403 . S
C218 H239 0.930 . S
C219 O230 1.275 . S
C219 O231 1.256 . S
O220 Ho200 2.322 . S
O220 C202 1.259 . S
O221 Ho201 2.346 . S
O221 C202 1.268 . S
O222 Ho200 2.378 . S
O222 C203 1.215 . S
O223 Ho200 2.524 . S
O223 C203 1.289 . S
O224 Ho200 2.381 . S
O224 C210 1.275 . S
O225 Ho200 2.669 . S
O225 Ho201 2.305 . S
O225 C210 1.256 . S
O226 Ho201 2.322 . S
O226 C211 1.259 . S
O227 Ho200 2.346 . S
O227 C211 1.268 . S
O228 Ho201 2.378 . S
O228 C212 1.215 . S
O229 Ho201 2.524 . S
O229 C212 1.289 . S
O230 Ho201 2.381 . S
O230 C219 1.275 . S
O231 Ho200 2.305 . S
O231 Ho201 2.669 . S
O231 C219 1.256 . S
H232 C205 0.930 . S
H233 C206 0.931 . S
H234 C208 0.934 . S
H235 C209 0.930 . S
H236 C214 0.930 . S
H237 C215 0.931 . S
H238 C217 0.934 . S
H239 C218 0.930 . S
Ho240 C243 2.811 . S
Ho240 O260 2.322 . S
Ho240 O262 2.378 . S
Ho240 O263 2.524 . S
Ho240 O264 2.381 . S
Ho240 O265 2.669 . S
Ho240 O267 2.346 . S
Ho240 O271 2.305 . S
Ho241 C252 2.811 . S
Ho241 O261 2.346 . S
Ho241 O265 2.305 . S
Ho241 O266 2.322 . S
Ho241 O268 2.378 . S
Ho241 O269 2.524 . S
Ho241 O270 2.381 . S
Ho241 O271 2.669 . S
C242 O260 1.259 . S
C242 O261 1.268 . S
C243 Ho240 2.811 . S
C243 C244 1.488 . S
C243 O262 1.215 . S
C243 O263 1.289 . S
C244 C243 1.488 . S
C244 C245 1.348 . S
C244 C249 1.413 . S
C245 C244 1.348 . S
C245 C246 1.442 . S
C245 H272 0.930 . S
C246 C245 1.442 . S
C246 C247 1.381 . S
C246 H273 0.931 . S
C247 C246 1.381 . S
C247 C248 1.321 . S
C248 C247 1.321 . S
C248 C249 1.403 . S
C248 H274 0.934 . S
C249 C244 1.413 . S
C249 C248 1.403 . S
C249 H275 0.930 . S
C250 O264 1.275 . S
C250 O265 1.256 . S
C251 O266 1.259 . S
C251 O267 1.268 . S
C252 Ho241 2.811 . S
C252 C253 1.488 . S
C252 O268 1.215 . S
C252 O269 1.289 . S
C253 C252 1.488 . S
C253 C254 1.348 . S
C253 C258 1.413 . S
C254 C253 1.348 . S
C254 C255 1.442 . S
C254 H276 0.930 . S
C255 C254 1.442 . S
C255 C256 1.381 . S
C255 H277 0.931 . S
C256 C255 1.381 . S
C256 C257 1.321 . S
C257 C256 1.321 . S
C257 C258 1.403 . S
C257 H278 0.934 . S
C258 C253 1.413 . S
C258 C257 1.403 . S
C258 H279 0.930 . S
C259 O270 1.275 . S
C259 O271 1.256 . S
O260 Ho240 2.322 . S
O260 C242 1.259 . S
O261 Ho241 2.346 . S
O261 C242 1.268 . S
O262 Ho240 2.378 . S
O262 C243 1.215 . S
O263 Ho240 2.524 . S
O263 C243 1.289 . S
O264 Ho240 2.381 . S
O264 C250 1.275 . S
O265 Ho240 2.669 . S
O265 Ho241 2.305 . S
O265 C250 1.256 . S
O266 Ho241 2.322 . S
O266 C251 1.259 . S
O267 Ho240 2.346 . S
O267 C251 1.268 . S
O268 Ho241 2.378 . S
O268 C252 1.215 . S
O269 Ho241 2.524 . S
O269 C252 1.289 . S
O270 Ho241 2.381 . S
O270 C259 1.275 . S
O271 Ho240 2.305 . S
O271 Ho241 2.669 . S
O271 C259 1.256 . S
H272 C245 0.930 . S
H273 C246 0.931 . S
H274 C248 0.934 . S
H275 C249 0.930 . S
H276 C254 0.930 . S
H277 C255 0.931 . S
H278 C257 0.934 . S
H279 C258 0.930 . S
Ho280 C283 2.811 . S
Ho280 O300 2.322 . S
Ho280 O302 2.378 . S
Ho280 O303 2.524 . S
Ho280 O304 2.381 . S
Ho280 O305 2.669 . S
Ho280 O307 2.346 . S
Ho280 O311 2.305 . S
Ho281 C292 2.811 . S
Ho281 O301 2.346 . S
Ho281 O305 2.305 . S
Ho281 O306 2.322 . S
Ho281 O308 2.378 . S
Ho281 O309 2.524 . S
Ho281 O310 2.381 . S
Ho281 O311 2.669 . S
C282 O300 1.259 . S
C282 O301 1.268 . S
C283 Ho280 2.811 . S
C283 C284 1.488 . S
C283 O302 1.215 . S
C283 O303 1.289 . S
C284 C283 1.488 . S
C284 C285 1.348 . S
C284 C289 1.413 . S
C285 C284 1.348 . S
C285 C286 1.442 . S
C285 H312 0.930 . S
C286 C285 1.442 . S
C286 C287 1.381 . S
C286 H313 0.931 . S
C287 C286 1.381 . S
C287 C288 1.321 . S
C288 C287 1.321 . S
C288 C289 1.403 . S
C288 H314 0.934 . S
C289 C284 1.413 . S
C289 C288 1.403 . S
C289 H315 0.930 . S
C290 O304 1.275 . S
C290 O305 1.256 . S
C291 O306 1.259 . S
C291 O307 1.268 . S
C292 Ho281 2.811 . S
C292 C293 1.488 . S
C292 O308 1.215 . S
C292 O309 1.289 . S
C293 C292 1.488 . S
C293 C294 1.348 . S
C293 C298 1.413 . S
C294 C293 1.348 . S
C294 C295 1.442 . S
C294 H316 0.930 . S
C295 C294 1.442 . S
C295 C296 1.381 . S
C295 H317 0.931 . S
C296 C295 1.381 . S
C296 C297 1.321 . S
C297 C296 1.321 . S
C297 C298 1.403 . S
C297 H318 0.934 . S
C298 C293 1.413 . S
C298 C297 1.403 . S
C298 H319 0.930 . S
C299 O310 1.275 . S
C299 O311 1.256 . S
O300 Ho280 2.322 . S
O300 C282 1.259 . S
O301 Ho281 2.346 . S
O301 C282 1.268 . S
O302 Ho280 2.378 . S
O302 C283 1.215 . S
O303 Ho280 2.524 . S
O303 C283 1.289 . S
O304 Ho280 2.381 . S
O304 C290 1.275 . S
O305 Ho280 2.669 . S
O305 Ho281 2.305 . S
O305 C290 1.256 . S
O306 Ho281 2.322 . S
O306 C291 1.259 . S
O307 Ho280 2.346 . S
O307 C291 1.268 . S
O308 Ho281 2.378 . S
O308 C292 1.215 . S
O309 Ho281 2.524 . S
O309 C292 1.289 . S
O310 Ho281 2.381 . S
O310 C299 1.275 . S
O311 Ho280 2.305 . S
O311 Ho281 2.669 . S
O311 C299 1.256 . S
H312 C285 0.930 . S
H313 C286 0.931 . S
H314 C288 0.934 . S
H315 C289 0.930 . S
H316 C294 0.930 . S
H317 C295 0.931 . S
H318 C297 0.934 . S
H319 C298 0.930 . S
Ho320 C323 2.811 . S
Ho320 O340 2.322 . S
Ho320 O342 2.378 . S
Ho320 O343 2.524 . S
Ho320 O344 2.381 . S
Ho320 O345 2.669 . S
Ho320 O347 2.346 . S
Ho320 O351 2.305 . S
Ho321 C332 2.811 . S
Ho321 O341 2.346 . S
Ho321 O345 2.305 . S
Ho321 O346 2.322 . S
Ho321 O348 2.378 . S
Ho321 O349 2.524 . S
Ho321 O350 2.381 . S
Ho321 O351 2.669 . S
C322 O340 1.259 . S
C322 O341 1.268 . S
C323 Ho320 2.811 . S
C323 C324 1.488 . S
C323 O342 1.215 . S
C323 O343 1.289 . S
C324 C323 1.488 . S
C324 C325 1.348 . S
C324 C329 1.413 . S
C325 C324 1.348 . S
C325 C326 1.442 . S
C325 H352 0.930 . S
C326 C325 1.442 . S
C326 C327 1.381 . S
C326 H353 0.931 . S
C327 C326 1.381 . S
C327 C328 1.321 . S
C328 C327 1.321 . S
C328 C329 1.403 . S
C328 H354 0.934 . S
C329 C324 1.413 . S
C329 C328 1.403 . S
C329 H355 0.930 . S
C330 O344 1.275 . S
C330 O345 1.256 . S
C331 O346 1.259 . S
C331 O347 1.268 . S
C332 Ho321 2.811 . S
C332 C333 1.488 . S
C332 O348 1.215 . S
C332 O349 1.289 . S
C333 C332 1.488 . S
C333 C334 1.348 . S
C333 C338 1.413 . S
C334 C333 1.348 . S
C334 C335 1.442 . S
C334 H356 0.930 . S
C335 C334 1.442 . S
C335 C336 1.381 . S
C335 H357 0.931 . S
C336 C335 1.381 . S
C336 C337 1.321 . S
C337 C336 1.321 . S
C337 C338 1.403 . S
C337 H358 0.934 . S
C338 C333 1.413 . S
C338 C337 1.403 . S
C338 H359 0.930 . S
C339 O350 1.275 . S
C339 O351 1.256 . S
O340 Ho320 2.322 . S
O340 C322 1.259 . S
O341 Ho321 2.346 . S
O341 C322 1.268 . S
O342 Ho320 2.378 . S
O342 C323 1.215 . S
O343 Ho320 2.524 . S
O343 C323 1.289 . S
O344 Ho320 2.381 . S
O344 C330 1.275 . S
O345 Ho320 2.669 . S
O345 Ho321 2.305 . S
O345 C330 1.256 . S
O346 Ho321 2.322 . S
O346 C331 1.259 . S
O347 Ho320 2.346 . S
O347 C331 1.268 . S
O348 Ho321 2.378 . S
O348 C332 1.215 . S
O349 Ho321 2.524 . S
O349 C332 1.289 . S
O350 Ho321 2.381 . S
O350 C339 1.275 . S
O351 Ho320 2.305 . S
O351 Ho321 2.669 . S
O351 C339 1.256 . S
H352 C325 0.930 . S
H353 C326 0.931 . S
H354 C328 0.934 . S
H355 C329 0.930 . S
H356 C334 0.930 . S
H357 C335 0.931 . S
H358 C337 0.934 . S
H359 C338 0.930 . S
H360 C372 0.930 . S
H361 C374 0.930 1_554 S
H362 C375 0.930 1_554 S
H363 C379 0.959 . S
H364 C379 0.959 . S
H365 C379 0.961 . S
H366 C380 0.960 . S
H367 C380 0.961 . S
H368 C380 0.959 . S
H369 C383 0.929 . S
H370 C384 0.931 . S
H371 C386 0.930 . S
C372 H360 0.930 . S
C372 C373 1.399 . S
C372 C377 1.399 . S
C373 C372 1.399 . S
C373 C374 1.376 . S
C374 H361 0.930 1_556 S
C374 C373 1.376 . S
C374 C375 1.388 . S
C375 H362 0.930 1_556 S
C375 C374 1.388 . S
C375 C376 1.390 . S
C376 C375 1.390 . S
C376 C377 1.394 . S
C376 C382 1.465 . S
C377 C372 1.399 . S
C377 C376 1.394 . S
C377 C378 1.516 . S
C378 C377 1.516 . S
C378 C379 1.502 . S
C378 C380 1.561 . S
C378 C381 1.526 . S
C379 H363 0.959 . S
C379 H364 0.959 . S
C379 H365 0.961 . S
C379 C378 1.502 . S
C380 H366 0.960 . S
C380 H367 0.961 . S
C380 H368 0.959 . S
C380 C378 1.561 . S
C381 C378 1.526 . S
C381 C382 1.396 . S
C381 C386 1.390 . S
C382 C376 1.465 . S
C382 C381 1.396 . S
C382 C383 1.399 . S
C383 H369 0.929 . S
C383 C382 1.399 . S
C383 C384 1.385 . S
C384 H370 0.931 . S
C384 C383 1.385 . S
C384 C385 1.389 . S
C385 C384 1.389 . S
C385 C386 1.387 . S
C386 H371 0.930 . S
C386 C381 1.390 . S
C386 C385 1.387 . S
H387 C399 0.930 . S
H388 C401 0.930 . S
H389 C402 0.930 . S
H390 C406 0.959 . S
H391 C406 0.959 . S
H392 C406 0.961 . S
H393 C407 0.960 1_554 S
H394 C407 0.961 . S
H395 C407 0.959 . S
H396 C410 0.929 . S
H397 C411 0.931 . S
H398 C413 0.930 . S
C399 H387 0.930 . S
C399 C400 1.399 . S
C399 C404 1.399 . S
C400 C399 1.399 . S
C400 C401 1.376 . S
C401 H388 0.930 . S
C401 C400 1.376 . S
C401 C402 1.388 . S
C402 H389 0.930 . S
C402 C401 1.388 . S
C402 C403 1.390 . S
C403 C402 1.390 . S
C403 C404 1.394 . S
C403 C409 1.465 . S
C404 C399 1.399 . S
C404 C403 1.394 . S
C404 C405 1.516 . S
C405 C404 1.516 . S
C405 C406 1.502 . S
C405 C407 1.561 . S
C405 C408 1.526 . S
C406 H390 0.959 . S
C406 H391 0.959 . S
C406 H392 0.961 . S
C406 C405 1.502 . S
C407 H393 0.960 1_556 S
C407 H394 0.961 . S
C407 H395 0.959 . S
C407 C405 1.561 . S
C408 C405 1.526 . S
C408 C409 1.396 . S
C408 C413 1.390 . S
C409 C403 1.465 . S
C409 C408 1.396 . S
C409 C410 1.399 . S
C410 H396 0.929 . S
C410 C409 1.399 . S
C410 C411 1.385 . S
C411 H397 0.931 . S
C411 C410 1.385 . S
C411 C412 1.389 . S
C412 C411 1.389 . S
C412 C413 1.387 . S
C413 H398 0.930 . S
C413 C408 1.390 . S
C413 C412 1.387 . S
H414 C426 0.930 . S
H415 C428 0.930 1_554 S
H416 C429 0.930 . S
H417 C433 0.959 . S
H418 C433 0.959 . S
H419 C433 0.961 . S
H420 C434 0.960 . S
H421 C434 0.961 . S
H422 C434 0.959 . S
H423 C437 0.929 . S
H424 C438 0.931 . S
H425 C440 0.930 . S
C426 H414 0.930 . S
C426 C427 1.399 . S
C426 C431 1.399 . S
C427 C426 1.399 . S
C427 C428 1.376 . S
C428 H415 0.930 1_556 S
C428 C427 1.376 . S
C428 C429 1.388 . S
C429 H416 0.930 . S
C429 C428 1.388 . S
C429 C430 1.390 . S
C430 C429 1.390 . S
C430 C431 1.394 . S
C430 C436 1.465 . S
C431 C426 1.399 . S
C431 C430 1.394 . S
C431 C432 1.516 . S
C432 C431 1.516 . S
C432 C433 1.502 . S
C432 C434 1.561 . S
C432 C435 1.526 . S
C433 H417 0.959 . S
C433 H418 0.959 . S
C433 H419 0.961 . S
C433 C432 1.502 . S
C434 H420 0.960 . S
C434 H421 0.961 . S
C434 H422 0.959 . S
C434 C432 1.561 . S
C435 C432 1.526 . S
C435 C436 1.396 . S
C435 C440 1.390 . S
C436 C430 1.465 . S
C436 C435 1.396 . S
C436 C437 1.399 . S
C437 H423 0.929 . S
C437 C436 1.399 . S
C437 C438 1.385 . S
C438 H424 0.931 . S
C438 C437 1.385 . S
C438 C439 1.389 . S
C439 C438 1.389 . S
C439 C440 1.387 . S
C440 H425 0.930 . S
C440 C435 1.390 . S
C440 C439 1.387 . S
H441 C453 0.930 . S
H442 C455 0.930 . S
H443 C456 0.930 . S
H444 C460 0.959 . S
H445 C460 0.959 . S
H446 C460 0.961 . S
H447 C461 0.960 . S
H448 C461 0.961 . S
H449 C461 0.959 . S
H450 C464 0.929 . S
H451 C465 0.931 . S
H452 C467 0.930 . S
C453 H441 0.930 . S
C453 C454 1.399 . S
C453 C458 1.399 . S
C454 C453 1.399 . S
C454 C455 1.376 . S
C455 H442 0.930 . S
C455 C454 1.376 . S
C455 C456 1.388 . S
C456 H443 0.930 . S
C456 C455 1.388 . S
C456 C457 1.390 . S
C457 C456 1.390 . S
C457 C458 1.394 . S
C457 C463 1.465 . S
C458 C453 1.399 . S
C458 C457 1.394 . S
C458 C459 1.516 . S
C459 C458 1.516 . S
C459 C460 1.502 . S
C459 C461 1.561 1_554 S
C459 C462 1.526 . S
C460 H444 0.959 . S
C460 H445 0.959 . S
C460 H446 0.961 . S
C460 C459 1.502 . S
C461 H447 0.960 . S
C461 H448 0.961 . S
C461 H449 0.959 . S
C461 C459 1.561 1_556 S
C462 C459 1.526 . S
C462 C463 1.396 . S
C462 C467 1.390 . S
C463 C457 1.465 . S
C463 C462 1.396 . S
C463 C464 1.399 . S
C464 H450 0.929 . S
C464 C463 1.399 . S
C464 C465 1.385 . S
C465 H451 0.931 . S
C465 C464 1.385 . S
C465 C466 1.389 . S
C466 C465 1.389 . S
C466 C467 1.387 . S
C467 H452 0.930 . S
C467 C462 1.390 . S
C467 C466 1.387 . S
H468 C480 0.930 . S
H469 C482 0.930 . S
H470 C483 0.930 . S
H471 C487 0.959 . S
H472 C487 0.959 . S
H473 C487 0.961 . S
H474 C488 0.960 . S
H475 C488 0.961 1_556 S
H476 C488 0.959 . S
H477 C491 0.929 . S
H478 C492 0.931 . S
H479 C494 0.930 1_556 S
C480 H468 0.930 . S
C480 C481 1.399 . S
C480 C485 1.399 . S
C481 C480 1.399 . S
C481 C482 1.376 . S
C482 H469 0.930 . S
C482 C481 1.376 . S
C482 C483 1.388 . S
C483 H470 0.930 . S
C483 C482 1.388 . S
C483 C484 1.390 . S
C484 C483 1.390 . S
C484 C485 1.394 . S
C484 C490 1.465 . S
C485 C480 1.399 . S
C485 C484 1.394 . S
C485 C486 1.516 . S
C486 C485 1.516 . S
C486 C487 1.502 1_554 S
C486 C488 1.561 . S
C486 C489 1.526 . S
C487 H471 0.959 . S
C487 H472 0.959 . S
C487 H473 0.961 . S
C487 C486 1.502 1_556 S
C488 H474 0.960 . S
C488 H475 0.961 1_554 S
C488 H476 0.959 . S
C488 C486 1.561 . S
C489 C486 1.526 . S
C489 C490 1.396 . S
C489 C494 1.390 . S
C490 C484 1.465 . S
C490 C489 1.396 . S
C490 C491 1.399 . S
C491 H477 0.929 . S
C491 C490 1.399 . S
C491 C492 1.385 . S
C492 H478 0.931 . S
C492 C491 1.385 . S
C492 C493 1.389 . S
C493 C492 1.389 . S
C493 C494 1.387 . S
C494 H479 0.930 1_554 S
C494 C489 1.390 . S
C494 C493 1.387 . S
H495 C507 0.930 1_556 S
H496 C509 0.930 . S
H497 C510 0.930 . S
H498 C514 0.959 . S
H499 C514 0.959 . S
H500 C514 0.961 1_556 S
H501 C515 0.960 . S
H502 C515 0.961 . S
H503 C515 0.959 . S
H504 C518 0.929 . S
H505 C519 0.931 . S
H506 C521 0.930 . S
C507 H495 0.930 1_554 S
C507 C508 1.399 . S
C507 C512 1.399 . S
C508 C507 1.399 . S
C508 C509 1.376 . S
C509 H496 0.930 . S
C509 C508 1.376 . S
C509 C510 1.388 . S
C510 H497 0.930 . S
C510 C509 1.388 . S
C510 C511 1.390 . S
C511 C510 1.390 . S
C511 C512 1.394 . S
C511 C517 1.465 . S
C512 C507 1.399 . S
C512 C511 1.394 . S
C512 C513 1.516 . S
C513 C512 1.516 . S
C513 C514 1.502 . S
C513 C515 1.561 1_554 S
C513 C516 1.526 . S
C514 H498 0.959 . S
C514 H499 0.959 . S
C514 H500 0.961 1_554 S
C514 C513 1.502 . S
C515 H501 0.960 . S
C515 H502 0.961 . S
C515 H503 0.959 . S
C515 C513 1.561 1_556 S
C516 C513 1.526 . S
C516 C517 1.396 . S
C516 C521 1.390 . S
C517 C511 1.465 . S
C517 C516 1.396 . S
C517 C518 1.399 . S
C518 H504 0.929 . S
C518 C517 1.399 . S
C518 C519 1.385 . S
C519 H505 0.931 . S
C519 C518 1.385 . S
C519 C520 1.389 . S
C520 C519 1.389 . S
C520 C521 1.387 . S
C521 H506 0.930 . S
C521 C516 1.390 . S
C521 C520 1.387 . S
H522 C534 0.930 . S
H523 C536 0.930 . S
H524 C537 0.930 . S
H525 C541 0.959 . S
H526 C541 0.959 . S
H527 C541 0.961 . S
H528 C542 0.960 . S
H529 C542 0.961 . S
H530 C542 0.959 . S
H531 C545 0.929 . S
H532 C546 0.931 . S
H533 C548 0.930 . S
C534 H522 0.930 . S
C534 C535 1.399 1_655 S
C534 C539 1.399 . S
C535 C534 1.399 1_455 S
C535 C536 1.376 . S
C536 H523 0.930 . S
C536 C535 1.376 . S
C536 C537 1.388 . S
C537 H524 0.930 . S
C537 C536 1.388 . S
C537 C538 1.390 1_455 S
C538 C537 1.390 1_655 S
C538 C539 1.394 . S
C538 C544 1.465 . S
C539 C534 1.399 . S
C539 C538 1.394 . S
C539 C540 1.516 . S
C540 C539 1.516 . S
C540 C541 1.502 . S
C540 C542 1.561 . S
C540 C543 1.526 . S
C541 H525 0.959 . S
C541 H526 0.959 . S
C541 H527 0.961 . S
C541 C540 1.502 . S
C542 H528 0.960 . S
C542 H529 0.961 . S
C542 H530 0.959 . S
C542 C540 1.561 . S
C543 C540 1.526 . S
C543 C544 1.396 . S
C543 C548 1.390 . S
C544 C538 1.465 . S
C544 C543 1.396 . S
C544 C545 1.399 . S
C545 H531 0.929 . S
C545 C544 1.399 . S
C545 C546 1.385 . S
C546 H532 0.931 . S
C546 C545 1.385 . S
C546 C547 1.389 . S
C547 C546 1.389 . S
C547 C548 1.387 . S
C548 H533 0.930 . S
C548 C543 1.390 . S
C548 C547 1.387 . S
H549 C561 0.930 . S
H550 C563 0.930 . S
H551 C564 0.930 . S
H552 C568 0.959 . S
H553 C568 0.959 . S
H554 C568 0.961 . S
H555 C569 0.960 . S
H556 C569 0.961 . S
H557 C569 0.959 . S
H558 C572 0.929 . S
H559 C573 0.931 . S
H560 C575 0.930 . S
C561 H549 0.930 . S
C561 C562 1.399 . S
C561 C566 1.399 . S
C562 C561 1.399 . S
C562 C563 1.376 . S
C563 H550 0.930 . S
C563 C562 1.376 . S
C563 C564 1.388 . S
C564 H551 0.930 . S
C564 C563 1.388 . S
C564 C565 1.390 . S
C565 C564 1.390 . S
C565 C566 1.394 . S
C565 C571 1.465 . S
C566 C561 1.399 . S
C566 C565 1.394 . S
C566 C567 1.516 . S
C567 C566 1.516 . S
C567 C568 1.502 . S
C567 C569 1.561 . S
C567 C570 1.526 . S
C568 H552 0.959 . S
C568 H553 0.959 . S
C568 H554 0.961 . S
C568 C567 1.502 . S
C569 H555 0.960 . S
C569 H556 0.961 . S
C569 H557 0.959 . S
C569 C567 1.561 . S
C570 C567 1.526 . S
C570 C571 1.396 . S
C570 C575 1.390 . S
C571 C565 1.465 . S
C571 C570 1.396 . S
C571 C572 1.399 . S
C572 H558 0.929 . S
C572 C571 1.399 . S
C572 C573 1.385 . S
C573 H559 0.931 . S
C573 C572 1.385 . S
C573 C574 1.389 . S
C574 C573 1.389 . S
C574 C575 1.387 . S
C575 H560 0.930 . S
C575 C570 1.390 . S
C575 C574 1.387 . S
H576 C588 0.930 . S
H577 C590 0.930 . S
H578 C591 0.930 . S
H579 C595 0.959 . S
H580 C595 0.959 . S
H581 C595 0.961 . S
H582 C596 0.960 . S
H583 C596 0.961 . S
H584 C596 0.959 . S
H585 C599 0.929 . S
H586 C600 0.931 1_565 S
H587 C602 0.930 . S
C588 H576 0.930 . S
C588 C589 1.399 . S
C588 C593 1.399 . S
C589 C588 1.399 . S
C589 C590 1.376 . S
C590 H577 0.930 . S
C590 C589 1.376 . S
C590 C591 1.388 . S
C591 H578 0.930 . S
C591 C590 1.388 . S
C591 C592 1.390 . S
C592 C591 1.390 . S
C592 C593 1.394 . S
C592 C598 1.465 . S
C593 C588 1.399 . S
C593 C592 1.394 . S
C593 C594 1.516 . S
C594 C593 1.516 . S
C594 C595 1.502 . S
C594 C596 1.561 . S
C594 C597 1.526 . S
C595 H579 0.959 . S
C595 H580 0.959 . S
C595 H581 0.961 . S
C595 C594 1.502 . S
C596 H582 0.960 . S
C596 H583 0.961 . S
C596 H584 0.959 . S
C596 C594 1.561 . S
C597 C594 1.526 . S
C597 C598 1.396 . S
C597 C602 1.390 . S
C598 C592 1.465 . S
C598 C597 1.396 . S
C598 C599 1.399 . S
C599 H585 0.929 . S
C599 C598 1.399 . S
C599 C600 1.385 . S
C600 H586 0.931 1_545 S
C600 C599 1.385 . S
C600 C601 1.389 . S
C601 C600 1.389 . S
C601 C602 1.387 . S
C602 H587 0.930 . S
C602 C597 1.390 . S
C602 C601 1.387 . S
H603 C615 0.930 . S
H604 C617 0.930 . S
H605 C618 0.930 . S
H606 C622 0.959 . S
H607 C622 0.959 . S
H608 C622 0.961 . S
H609 C623 0.960 . S
H610 C623 0.961 . S
H611 C623 0.959 . S
H612 C626 0.929 . S
H613 C627 0.931 . S
H614 C629 0.930 . S
C615 H603 0.930 . S
C615 C616 1.399 . S
C615 C620 1.399 . S
C616 C615 1.399 . S
C616 C617 1.376 1_554 S
C617 H604 0.930 . S
C617 C616 1.376 1_556 S
C617 C618 1.388 . S
C618 H605 0.930 . S
C618 C617 1.388 . S
C618 C619 1.390 . S
C619 C618 1.390 . S
C619 C620 1.394 1_556 S
C619 C625 1.465 . S
C620 C615 1.399 . S
C620 C619 1.394 1_554 S
C620 C621 1.516 . S
C621 C620 1.516 . S
C621 C622 1.502 . S
C621 C623 1.561 . S
C621 C624 1.526 . S
C622 H606 0.959 . S
C622 H607 0.959 . S
C622 H608 0.961 . S
C622 C621 1.502 . S
C623 H609 0.960 . S
C623 H610 0.961 . S
C623 H611 0.959 . S
C623 C621 1.561 . S
C624 C621 1.526 . S
C624 C625 1.396 1_554 S
C624 C629 1.390 . S
C625 C619 1.465 . S
C625 C624 1.396 1_556 S
C625 C626 1.399 . S
C626 H612 0.929 . S
C626 C625 1.399 . S
C626 C627 1.385 . S
C627 H613 0.931 . S
C627 C626 1.385 . S
C627 C628 1.389 1_556 S
C628 C627 1.389 1_554 S
C628 C629 1.387 . S
C629 H614 0.930 . S
C629 C624 1.390 . S
C629 C628 1.387 . S
H630 C642 0.930 . S
H631 C644 0.930 . S
H632 C645 0.930 . S
H633 C649 0.959 . S
H634 C649 0.959 . S
H635 C649 0.961 . S
H636 C650 0.960 . S
H637 C650 0.961 . S
H638 C650 0.959 . S
H639 C653 0.929 . S
H640 C654 0.931 . S
H641 C656 0.930 . S
C642 H630 0.930 . S
C642 C643 1.399 1_556 S
C642 C647 1.399 . S
C643 C642 1.399 1_554 S
C643 C644 1.376 . S
C644 H631 0.930 . S
C644 C643 1.376 . S
C644 C645 1.388 . S
C645 H632 0.930 . S
C645 C644 1.388 . S
C645 C646 1.390 . S
C646 C645 1.390 . S
C646 C647 1.394 1_554 S
C646 C652 1.465 . S
C647 C642 1.399 . S
C647 C646 1.394 1_556 S
C647 C648 1.516 . S
C648 C647 1.516 . S
C648 C649 1.502 . S
C648 C650 1.561 . S
C648 C651 1.526 . S
C649 H633 0.959 . S
C649 H634 0.959 . S
C649 H635 0.961 . S
C649 C648 1.502 . S
C650 H636 0.960 . S
C650 H637 0.961 . S
C650 H638 0.959 . S
C650 C648 1.561 . S
C651 C648 1.526 . S
C651 C652 1.396 1_556 S
C651 C656 1.390 1_565 S
C652 C646 1.465 . S
C652 C651 1.396 1_554 S
C652 C653 1.399 . S
C653 H639 0.929 . S
C653 C652 1.399 . S
C653 C654 1.385 1_565 S
C654 H640 0.931 . S
C654 C653 1.385 1_545 S
C654 C655 1.389 . S
C655 C654 1.389 . S
C655 C656 1.387 1_554 S
C656 H641 0.930 . S
C656 C651 1.390 1_545 S
C656 C655 1.387 1_556 S
H657 C669 0.930 . S
H658 C671 0.938 . S
H659 C672 0.930 . S
H660 C676 0.959 . S
H661 C676 0.959 . S
H662 C676 0.961 . S
H663 C677 0.960 . S
H664 C677 0.961 . S
H665 C677 0.959 . S
H666 C680 0.929 . S
H667 C681 0.931 . S
H668 C683 0.930 . S
C669 H657 0.930 . S
C669 C670 1.399 . S
C669 C674 1.399 . S
C670 C669 1.399 . S
C670 C671 1.376 1_554 S
C671 H658 0.938 . S
C671 C670 1.376 1_556 S
C671 C672 1.388 . S
C672 H659 0.930 . S
C672 C671 1.388 . S
C672 C673 1.390 . S
C673 C672 1.390 . S
C673 C674 1.394 1_556 S
C673 C679 1.465 . S
C674 C669 1.399 . S
C674 C673 1.394 1_554 S
C674 C675 1.516 . S
C675 C674 1.516 . S
C675 C676 1.502 . S
C675 C677 1.561 . S
C675 C678 1.526 . S
C676 H660 0.959 . S
C676 H661 0.959 . S
C676 H662 0.961 . S
C676 C675 1.502 . S
C677 H663 0.960 . S
C677 H664 0.961 . S
C677 H665 0.959 . S
C677 C675 1.561 . S
C678 C675 1.526 . S
C678 C679 1.396 1_554 S
C678 C683 1.390 . S
C679 C673 1.465 . S
C679 C678 1.396 1_556 S
C679 C680 1.399 . S
C680 H666 0.929 . S
C680 C679 1.399 . S
C680 C681 1.385 . S
C681 H667 0.931 . S
C681 C680 1.385 . S
C681 C682 1.387 1_556 S
C682 C681 1.387 1_554 S
C682 C683 1.389 . S
C683 H668 0.930 . S
C683 C678 1.390 . S
C683 C682 1.389 . S
H684 C696 0.930 . S
H685 C698 0.930 . S
H686 C699 0.930 . S
H687 C703 0.959 . S
H688 C703 0.959 . S
H689 C703 0.961 . S
H690 C704 0.960 . S
H691 C704 0.961 . S
H692 C704 0.959 . S
H693 C707 0.929 . S
H694 C708 0.931 . S
H695 C710 0.930 . S
C696 H684 0.930 . S
C696 C697 1.399 . S
C696 C701 1.399 . S
C697 C696 1.399 . S
C697 C698 1.376 . S
C698 H685 0.930 . S
C698 C697 1.376 . S
C698 C699 1.388 . S
C699 H686 0.930 . S
C699 C698 1.388 . S
C699 C700 1.390 . S
C700 C699 1.390 . S
C700 C701 1.394 . S
C700 C706 1.465 . S
C701 C696 1.399 . S
C701 C700 1.394 . S
C701 C702 1.516 . S
C702 C701 1.516 . S
C702 C703 1.502 . S
C702 C704 1.561 . S
C702 C705 1.526 . S
C703 H687 0.959 . S
C703 H688 0.959 . S
C703 H689 0.961 . S
C703 C702 1.502 . S
C704 H690 0.960 . S
C704 H691 0.961 . S
C704 H692 0.959 . S
C704 C702 1.561 . S
C705 C702 1.526 . S
C705 C706 1.396 . S
C705 C710 1.390 . S
C706 C700 1.465 . S
C706 C705 1.396 . S
C706 C707 1.399 . S
C707 H693 0.929 . S
C707 C706 1.399 . S
C707 C708 1.385 . S
C708 H694 0.931 . S
C708 C707 1.385 . S
C708 C709 1.389 . S
C709 C708 1.389 . S
C709 C710 1.387 . S
C710 H695 0.930 . S
C710 C705 1.390 . S
C710 C709 1.387 . S
H711 C723 0.930 . S
H712 C725 0.930 . S
H713 C726 0.930 . S
H714 C730 0.959 . S
H715 C730 0.959 . S
H716 C730 0.961 . S
H717 C731 0.960 . S
H718 C731 0.961 . S
H719 C731 0.959 . S
H720 C734 0.929 . S
H721 C735 0.931 . S
H722 C737 0.930 . S
C723 H711 0.930 . S
C723 C724 1.399 . S
C723 C728 1.399 . S
C724 C723 1.399 . S
C724 C725 1.376 . S
C725 H712 0.930 . S
C725 C724 1.376 . S
C725 C726 1.388 . S
C726 H713 0.930 . S
C726 C725 1.388 . S
C726 C727 1.390 . S
C727 C726 1.390 . S
C727 C728 1.394 . S
C727 C733 1.465 . S
C728 C723 1.399 . S
C728 C727 1.394 . S
C728 C729 1.516 . S
C729 C728 1.516 . S
C729 C730 1.502 . S
C729 C731 1.561 . S
C729 C732 1.526 . S
C730 H714 0.959 . S
C730 H715 0.959 . S
C730 H716 0.961 . S
C730 C729 1.502 . S
C731 H717 0.960 . S
C731 H718 0.961 . S
C731 H719 0.959 . S
C731 C729 1.561 . S
C732 C729 1.526 . S
C732 C733 1.396 . S
C732 C737 1.390 . S
C733 C727 1.465 . S
C733 C732 1.396 . S
C733 C734 1.399 . S
C734 H720 0.929 . S
C734 C733 1.399 . S
C734 C735 1.385 . S
C735 H721 0.931 . S
C735 C734 1.385 . S
C735 C736 1.389 . S
C736 C735 1.389 . S
C736 C737 1.387 . S
C737 H722 0.930 . S
C737 C732 1.390 . S
C737 C736 1.387 . S
H738 C750 0.930 . S
H739 C752 0.930 . S
H740 C753 0.930 . S
H741 C757 0.959 . S
H742 C757 0.959 . S
H743 C757 0.961 . S
H744 C758 0.960 . S
H745 C758 0.961 . S
H746 C758 0.959 . S
H747 C761 0.929 . S
H748 C762 0.931 . S
H749 C764 0.930 . S
C750 H738 0.930 . S
C750 C751 1.399 . S
C750 C755 1.399 . S
C751 C750 1.399 . S
C751 C752 1.376 . S
C752 H739 0.930 . S
C752 C751 1.376 . S
C752 C753 1.388 . S
C753 H740 0.930 . S
C753 C752 1.388 . S
C753 C754 1.390 . S
C754 C753 1.390 . S
C754 C755 1.394 . S
C754 C760 1.465 . S
C755 C750 1.399 . S
C755 C754 1.394 . S
C755 C756 1.516 . S
C756 C755 1.516 . S
C756 C757 1.502 . S
C756 C758 1.561 . S
C756 C759 1.526 . S
C757 H741 0.959 . S
C757 H742 0.959 . S
C757 H743 0.961 . S
C757 C756 1.502 . S
C758 H744 0.960 . S
C758 H745 0.961 . S
C758 H746 0.959 . S
C758 C756 1.561 . S
C759 C756 1.526 . S
C759 C760 1.396 . S
C759 C764 1.390 . S
C760 C754 1.465 . S
C760 C759 1.396 . S
C760 C761 1.399 . S
C761 H747 0.929 . S
C761 C760 1.399 . S
C761 C762 1.385 . S
C762 H748 0.931 . S
C762 C761 1.385 . S
C762 C763 1.389 . S
C763 C762 1.389 . S
C763 C764 1.387 . S
C764 H749 0.930 . S
C764 C759 1.390 . S
C764 C763 1.387 . S
H765 C777 0.930 . S
H766 C779 0.930 . S
H767 C780 0.930 . S
H768 C784 0.959 . S
H769 C784 0.959 . S
H770 C784 0.961 . S
H771 C785 0.960 . S
H772 C785 0.961 . S
H773 C785 0.959 . S
H774 C788 0.929 . S
H775 C789 0.931 . S
H776 C791 0.930 . S
C777 H765 0.930 . S
C777 C778 1.399 . S
C777 C782 1.399 . S
C778 C777 1.399 . S
C778 C779 1.376 . S
C779 H766 0.930 . S
C779 C778 1.376 . S
C779 C780 1.388 . S
C780 H767 0.930 . S
C780 C779 1.388 . S
C780 C781 1.390 . S
C781 C780 1.390 . S
C781 C782 1.394 . S
C781 C787 1.465 . S
C782 C777 1.399 . S
C782 C781 1.394 . S
C782 C783 1.516 . S
C783 C782 1.516 . S
C783 C784 1.502 . S
C783 C785 1.561 . S
C783 C786 1.526 . S
C784 H768 0.959 . S
C784 H769 0.959 . S
C784 H770 0.961 . S
C784 C783 1.502 . S
C785 H771 0.960 . S
C785 H772 0.961 . S
C785 H773 0.959 . S
C785 C783 1.561 . S
C786 C783 1.526 . S
C786 C787 1.396 . S
C786 C791 1.390 . S
C787 C781 1.465 . S
C787 C786 1.396 . S
C787 C788 1.399 . S
C788 H774 0.929 . S
C788 C787 1.399 . S
C788 C789 1.385 . S
C789 H775 0.931 . S
C789 C788 1.385 . S
C789 C790 1.389 . S
C790 C789 1.389 . S
C790 C791 1.387 . S
C791 H776 0.930 . S
C791 C786 1.390 . S
C791 C790 1.387 . S
H792 C804 0.930 . S
H793 C806 0.930 . S
H794 C807 0.930 . S
H795 C811 0.959 . S
H796 C811 0.959 . S
H797 C811 0.961 . S
H798 C812 0.960 . S
H799 C812 0.961 . S
H800 C812 0.959 . S
H801 C815 0.929 . S
H802 C816 0.931 . S
H803 C818 0.930 . S
C804 H792 0.930 . S
C804 C805 1.399 . S
C804 C809 1.399 . S
C805 C804 1.399 . S
C805 C806 1.376 . S
C806 H793 0.930 . S
C806 C805 1.376 . S
C806 C807 1.388 . S
C807 H794 0.930 . S
C807 C806 1.388 . S
C807 C808 1.390 . S
C808 C807 1.390 . S
C808 C809 1.394 . S
C808 C814 1.465 . S
C809 C804 1.399 . S
C809 C808 1.394 . S
C809 C810 1.516 . S
C810 C809 1.516 . S
C810 C811 1.502 . S
C810 C812 1.561 . S
C810 C813 1.526 . S
C811 H795 0.959 . S
C811 H796 0.959 . S
C811 H797 0.961 . S
C811 C810 1.502 . S
C812 H798 0.960 . S
C812 H799 0.961 . S
C812 H800 0.959 . S
C812 C810 1.561 . S
C813 C810 1.526 . S
C813 C814 1.396 . S
C813 C818 1.390 . S
C814 C808 1.465 . S
C814 C813 1.396 . S
C814 C815 1.399 . S
C815 H801 0.929 . S
C815 C814 1.399 . S
C815 C816 1.385 . S
C816 H802 0.931 . S
C816 C815 1.385 . S
C816 C817 1.389 . S
C817 C816 1.389 . S
C817 C818 1.387 . S
C818 H803 0.930 . S
C818 C813 1.390 . S
C818 C817 1.387 . S
H819 C831 0.930 . S
H820 C833 0.930 . S
H821 C834 0.930 . S
H822 C838 0.959 . S
H823 C838 0.959 . S
H824 C838 0.961 . S
H825 C839 0.960 . S
H826 C839 0.961 . S
H827 C839 0.959 . S
H828 C842 0.929 . S
H829 C843 0.931 . S
H830 C845 0.930 . S
C831 H819 0.930 . S
C831 C832 1.399 . S
C831 C836 1.399 . S
C832 C831 1.399 . S
C832 C833 1.376 . S
C833 H820 0.930 . S
C833 C832 1.376 . S
C833 C834 1.388 . S
C834 H821 0.930 . S
C834 C833 1.388 . S
C834 C835 1.390 . S
C835 C834 1.390 . S
C835 C836 1.394 . S
C835 C841 1.465 . S
C836 C831 1.399 . S
C836 C835 1.394 . S
C836 C837 1.516 . S
C837 C836 1.516 . S
C837 C838 1.502 . S
C837 C839 1.561 . S
C837 C840 1.526 . S
C838 H822 0.959 . S
C838 H823 0.959 . S
C838 H824 0.961 . S
C838 C837 1.502 . S
C839 H825 0.960 . S
C839 H826 0.961 . S
C839 H827 0.959 . S
C839 C837 1.561 . S
C840 C837 1.526 . S
C840 C841 1.396 . S
C840 C845 1.390 . S
C841 C835 1.465 . S
C841 C840 1.396 . S
C841 C842 1.399 . S
C842 H828 0.929 . S
C842 C841 1.399 . S
C842 C843 1.385 . S
C843 H829 0.931 . S
C843 C842 1.385 . S
C843 C844 1.389 . S
C844 C843 1.389 . S
C844 C845 1.387 . S
C845 H830 0.930 . S
C845 C840 1.390 . S
C845 C844 1.387 . S
H846 C858 0.930 . S
H847 C860 0.930 . S
H848 C861 0.930 . S
H849 C865 0.976 . S
H850 C865 0.964 1_455 S
H851 C865 0.952 . S
H852 C866 0.960 . S
H853 C866 0.961 . S
H854 C866 0.959 . S
H855 C869 0.929 . S
H856 C870 0.931 . S
H857 C872 0.930 . S
C858 H846 0.930 . S
C858 C859 1.399 . S
C858 C863 1.399 . S
C859 C858 1.399 . S
C859 C860 1.376 . S
C860 H847 0.930 . S
C860 C859 1.376 . S
C860 C861 1.388 . S
C861 H848 0.930 . S
C861 C860 1.388 . S
C861 C862 1.390 . S
C862 C861 1.390 . S
C862 C863 1.394 . S
C862 C868 1.465 . S
C863 C858 1.399 . S
C863 C862 1.394 . S
C863 C864 1.516 . S
C864 C863 1.516 . S
C864 C865 1.471 1_455 S
C864 C866 1.561 . S
C864 C867 1.526 . S
C865 H849 0.976 . S
C865 H850 0.964 1_655 S
C865 H851 0.952 . S
C865 C864 1.471 1_655 S
C866 H852 0.960 . S
C866 H853 0.961 . S
C866 H854 0.959 . S
C866 C864 1.561 . S
C867 C864 1.526 . S
C867 C868 1.396 . S
C867 C872 1.390 . S
C868 C862 1.465 . S
C868 C867 1.396 . S
C868 C869 1.399 . S
C869 H855 0.929 . S
C869 C868 1.399 . S
C869 C870 1.385 . S
C870 H856 0.931 . S
C870 C869 1.385 . S
C870 C871 1.389 . S
C871 C870 1.389 . S
C871 C872 1.387 . S
C872 H857 0.930 . S
C872 C867 1.390 . S
C872 C871 1.387 . S
H873 C885 0.930 . S
H874 C887 0.930 . S
H875 C888 0.930 . S
H876 C892 0.959 . S
H877 C892 0.959 . S
H878 C892 0.961 . S
H879 C893 0.960 . S
H880 C893 0.961 . S
H881 C893 0.959 . S
H882 C896 0.929 . S
H883 C897 0.931 . S
H884 C899 0.930 . S
C885 H873 0.930 . S
C885 C886 1.399 . S
C885 C890 1.399 . S
C886 C885 1.399 . S
C886 C887 1.376 . S
C887 H874 0.930 . S
C887 C886 1.376 . S
C887 C888 1.388 . S
C888 H875 0.930 . S
C888 C887 1.388 . S
C888 C889 1.390 . S
C889 C888 1.390 . S
C889 C890 1.394 . S
C889 C895 1.465 . S
C890 C885 1.399 . S
C890 C889 1.394 . S
C890 C891 1.516 . S
C891 C890 1.516 . S
C891 C892 1.502 . S
C891 C893 1.561 . S
C891 C894 1.526 . S
C892 H876 0.959 . S
C892 H877 0.959 . S
C892 H878 0.961 . S
C892 C891 1.502 . S
C893 H879 0.960 . S
C893 H880 0.961 . S
C893 H881 0.959 . S
C893 C891 1.561 . S
C894 C891 1.526 . S
C894 C895 1.396 . S
C894 C899 1.390 . S
C895 C889 1.465 . S
C895 C894 1.396 . S
C895 C896 1.399 . S
C896 H882 0.929 . S
C896 C895 1.399 . S
C896 C897 1.385 . S
C897 H883 0.931 . S
C897 C896 1.385 . S
C897 C898 1.389 . S
C898 C897 1.389 . S
C898 C899 1.387 . S
C899 H884 0.930 . S
C899 C894 1.390 . S
C899 C898 1.387 . S
H900 C912 0.930 1_565 S
H901 C914 0.930 . S
H902 C915 0.930 . S
H903 C919 0.959 . S
H904 C919 0.959 . S
H905 C919 0.961 . S
H906 C920 0.960 . S
H907 C920 0.961 . S
H908 C920 0.959 . S
H909 C923 0.929 . S
H910 C924 0.931 . S
H911 C926 0.930 . S
C912 H900 0.930 1_545 S
C912 C913 1.399 . S
C912 C917 1.399 . S
C913 C912 1.399 . S
C913 C914 1.376 . S
C914 H901 0.930 . S
C914 C913 1.376 . S
C914 C915 1.388 . S
C915 H902 0.930 . S
C915 C914 1.388 . S
C915 C916 1.390 . S
C916 C915 1.390 . S
C916 C917 1.394 . S
C916 C922 1.465 . S
C917 C912 1.399 . S
C917 C916 1.394 . S
C917 C918 1.516 1_545 S
C918 C917 1.516 1_565 S
C918 C919 1.502 . S
C918 C920 1.561 . S
C918 C921 1.526 1_565 S
C919 H903 0.959 . S
C919 H904 0.959 . S
C919 H905 0.961 . S
C919 C918 1.502 . S
C920 H906 0.960 . S
C920 H907 0.961 . S
C920 H908 0.959 . S
C920 C918 1.561 . S
C921 C918 1.526 1_545 S
C921 C922 1.396 . S
C921 C926 1.390 1_545 S
C922 C916 1.465 . S
C922 C921 1.396 . S
C922 C923 1.399 . S
C923 H909 0.929 . S
C923 C922 1.399 . S
C923 C924 1.385 . S
C924 H910 0.931 . S
C924 C923 1.385 . S
C924 C925 1.389 . S
C925 C924 1.389 . S
C925 C926 1.387 1_545 S
C926 H911 0.930 . S
C926 C921 1.390 1_565 S
C926 C925 1.387 1_565 S
H927 C939 0.930 . S
H928 C941 0.930 . S
H929 C942 0.930 . S
H930 C946 0.959 . S
H931 C946 0.959 . S
H932 C946 0.961 . S
H933 C947 0.960 . S
H934 C947 0.961 . S
H935 C947 0.959 . S
H936 C950 0.929 . S
H937 C951 0.931 . S
H938 C953 0.930 . S
C939 H927 0.930 . S
C939 C940 1.399 . S
C939 C944 1.399 . S
C940 C939 1.399 . S
C940 C941 1.376 . S
C941 H928 0.930 . S
C941 C940 1.376 . S
C941 C942 1.388 . S
C942 H929 0.930 . S
C942 C941 1.388 . S
C942 C943 1.390 . S
C943 C942 1.390 . S
C943 C944 1.394 . S
C943 C949 1.465 . S
C944 C939 1.399 . S
C944 C943 1.394 . S
C944 C945 1.516 . S
C945 C944 1.516 . S
C945 C946 1.502 . S
C945 C947 1.561 . S
C945 C948 1.526 . S
C946 H930 0.959 . S
C946 H931 0.959 . S
C946 H932 0.961 . S
C946 C945 1.502 . S
C947 H933 0.960 . S
C947 H934 0.961 . S
C947 H935 0.959 . S
C947 C945 1.561 . S
C948 C945 1.526 . S
C948 C949 1.396 . S
C948 C953 1.390 1_556 S
C949 C943 1.465 . S
C949 C948 1.396 . S
C949 C950 1.399 . S
C950 H936 0.929 . S
C950 C949 1.399 . S
C950 C951 1.385 1_556 S
C951 H937 0.931 . S
C951 C950 1.385 1_554 S
C951 C952 1.389 . S
C952 C951 1.389 . S
C952 C953 1.387 . S
C953 H938 0.930 . S
C953 C948 1.390 1_554 S
C953 C952 1.387 . S
H954 C966 0.930 . S
H955 C968 0.930 . S
H956 C969 0.930 . S
H957 C973 0.959 . S
H958 C973 0.959 . S
H959 C973 0.961 . S
H960 C974 0.960 . S
H961 C974 0.961 . S
H962 C974 0.959 . S
H963 C977 0.929 . S
H964 C978 0.931 . S
H965 C980 0.930 . S
C966 H954 0.930 . S
C966 C967 1.399 . S
C966 C971 1.399 . S
C967 C966 1.399 . S
C967 C968 1.376 . S
C968 H955 0.930 . S
C968 C967 1.376 . S
C968 C969 1.388 . S
C969 H956 0.930 . S
C969 C968 1.388 . S
C969 C970 1.390 . S
C970 C969 1.390 . S
C970 C971 1.394 . S
C970 C976 1.465 . S
C971 C966 1.399 . S
C971 C970 1.394 . S
C971 C972 1.516 . S
C972 C971 1.516 . S
C972 C973 1.502 . S
C972 C974 1.561 . S
C972 C975 1.526 . S
C973 H957 0.959 . S
C973 H958 0.959 . S
C973 H959 0.961 . S
C973 C972 1.502 . S
C974 H960 0.960 . S
C974 H961 0.961 . S
C974 H962 0.959 . S
C974 C972 1.561 . S
C975 C972 1.526 . S
C975 C976 1.396 . S
C975 C980 1.390 1_556 S
C976 C970 1.465 . S
C976 C975 1.396 . S
C976 C977 1.399 . S
C977 H963 0.929 . S
C977 C976 1.399 . S
C977 C978 1.385 1_556 S
C978 H964 0.931 . S
C978 C977 1.385 1_554 S
C978 C979 1.389 . S
C979 C978 1.389 . S
C979 C980 1.387 . S
C980 H965 0.930 . S
C980 C975 1.390 1_554 S
C980 C979 1.387 . S
H981 C993 0.930 . S
H982 C995 0.930 . S
H983 C996 0.930 . S
H984 C1000 0.959 . S
H985 C1000 0.959 . S
H986 C1000 0.961 . S
H987 C1001 0.960 . S
H988 C1001 0.961 . S
H989 C1001 0.959 . S
H990 C1004 0.929 . S
H991 C1005 0.931 . S
H992 C1007 0.930 . S
C993 H981 0.930 . S
C993 C994 1.399 . S
C993 C998 1.399 . S
C994 C993 1.399 . S
C994 C995 1.376 . S
C995 H982 0.930 . S
C995 C994 1.376 . S
C995 C996 1.388 . S
C996 H983 0.930 . S
C996 C995 1.388 . S
C996 C997 1.390 . S
C997 C996 1.390 . S
C997 C998 1.394 . S
C997 C1003 1.465 . S
C998 C993 1.399 . S
C998 C997 1.394 . S
C998 C999 1.516 . S
C999 C998 1.516 . S
C999 C1000 1.502 . S
C999 C1001 1.561 . S
C999 C1002 1.526 . S
C1000 H984 0.959 . S
C1000 H985 0.959 . S
C1000 H986 0.961 . S
C1000 C999 1.502 . S
C1001 H987 0.960 . S
C1001 H988 0.961 . S
C1001 H989 0.959 . S
C1001 C999 1.561 . S
C1002 C999 1.526 . S
C1002 C1003 1.396 . S
C1002 C1007 1.390 1_556 S
C1003 C997 1.465 . S
C1003 C1002 1.396 . S
C1003 C1004 1.399 . S
C1004 H990 0.929 . S
C1004 C1003 1.399 . S
C1004 C1005 1.385 1_556 S
C1005 H991 0.931 . S
C1005 C1004 1.385 1_554 S
C1005 C1006 1.389 . S
C1006 C1005 1.389 . S
C1006 C1007 1.387 . S
C1007 H992 0.930 . S
C1007 C1002 1.390 1_554 S
C1007 C1006 1.387 . S
H1008 C1020 0.930 . S
H1009 C1022 0.930 . S
H1010 C1023 0.930 . S
H1011 C1027 0.959 . S
H1012 C1027 0.959 . S
H1013 C1027 0.961 . S
H1014 C1028 0.960 . S
H1015 C1028 0.961 . S
H1016 C1028 0.959 . S
H1017 C1031 0.929 . S
H1018 C1032 0.931 . S
H1019 C1034 0.930 . S
C1020 H1008 0.930 . S
C1020 C1021 1.399 . S
C1020 C1025 1.399 . S
C1021 C1020 1.399 . S
C1021 C1022 1.376 . S
C1022 H1009 0.930 . S
C1022 C1021 1.376 . S
C1022 C1023 1.388 . S
C1023 H1010 0.930 . S
C1023 C1022 1.388 . S
C1023 C1024 1.390 . S
C1024 C1023 1.390 . S
C1024 C1025 1.394 . S
C1024 C1030 1.465 . S
C1025 C1020 1.399 . S
C1025 C1024 1.394 . S
C1025 C1026 1.516 . S
C1026 C1025 1.516 . S
C1026 C1027 1.502 . S
C1026 C1028 1.561 . S
C1026 C1029 1.526 . S
C1027 H1011 0.959 . S
C1027 H1012 0.959 . S
C1027 H1013 0.961 . S
C1027 C1026 1.502 . S
C1028 H1014 0.960 . S
C1028 H1015 0.961 . S
C1028 H1016 0.959 . S
C1028 C1026 1.561 . S
C1029 C1026 1.526 . S
C1029 C1030 1.396 . S
C1029 C1034 1.390 1_554 S
C1030 C1024 1.465 . S
C1030 C1029 1.396 . S
C1030 C1031 1.399 . S
C1031 H1017 0.929 . S
C1031 C1030 1.399 . S
C1031 C1032 1.385 1_554 S
C1032 H1018 0.931 . S
C1032 C1031 1.385 1_556 S
C1032 C1033 1.389 . S
C1033 C1032 1.389 . S
C1033 C1034 1.387 . S
C1034 H1019 0.930 . S
C1034 C1029 1.390 1_556 S
C1034 C1033 1.387 . S
H1035 C1047 0.930 . S
H1036 C1049 0.930 . S
H1037 C1050 0.930 . S
H1038 C1054 0.959 . S
H1039 C1054 0.959 . S
H1040 C1054 0.961 . S
H1041 C1055 0.960 . S
H1042 C1055 0.961 . S
H1043 C1055 0.959 . S
H1044 C1058 0.929 . S
H1045 C1059 0.931 . S
H1046 C1061 0.930 . S
C1047 H1035 0.930 . S
C1047 C1048 1.399 . S
C1047 C1052 1.399 1_556 S
C1048 C1047 1.399 . S
C1048 C1049 1.376 . S
C1049 H1036 0.930 . S
C1049 C1048 1.376 . S
C1049 C1050 1.388 1_556 S
C1050 H1037 0.930 . S
C1050 C1049 1.388 1_554 S
C1050 C1051 1.390 . S
C1051 C1050 1.390 . S
C1051 C1052 1.394 . S
C1051 C1057 1.465 . S
C1052 C1047 1.399 1_554 S
C1052 C1051 1.394 . S
C1052 C1053 1.516 . S
C1053 C1052 1.516 . S
C1053 C1054 1.502 . S
C1053 C1055 1.561 . S
C1053 C1056 1.526 . S
C1054 H1038 0.959 . S
C1054 H1039 0.959 . S
C1054 H1040 0.961 . S
C1054 C1053 1.502 . S
C1055 H1041 0.960 . S
C1055 H1042 0.961 . S
C1055 H1043 0.959 . S
C1055 C1053 1.561 . S
C1056 C1053 1.526 . S
C1056 C1057 1.396 . S
C1056 C1061 1.390 . S
C1057 C1051 1.465 . S
C1057 C1056 1.396 . S
C1057 C1058 1.399 . S
C1058 H1044 0.929 . S
C1058 C1057 1.399 . S
C1058 C1059 1.385 . S
C1059 H1045 0.931 . S
C1059 C1058 1.385 . S
C1059 C1060 1.389 . S
C1060 C1059 1.389 . S
C1060 C1061 1.387 . S
C1061 H1046 0.930 . S
C1061 C1056 1.390 . S
C1061 C1060 1.387 . S
H1062 C1074 0.930 . S
H1063 C1076 0.930 . S
H1064 C1077 0.930 . S
H1065 C1081 0.959 . S
H1066 C1081 0.959 . S
H1067 C1081 0.961 . S
H1068 C1082 0.960 . S
H1069 C1082 0.961 . S
H1070 C1082 0.959 . S
H1071 C1085 0.929 . S
H1072 C1086 0.931 . S
H1073 C1088 0.930 . S
C1074 H1062 0.930 . S
C1074 C1075 1.399 . S
C1074 C1079 1.399 . S
C1075 C1074 1.399 . S
C1075 C1076 1.376 . S
C1076 H1063 0.930 . S
C1076 C1075 1.376 . S
C1076 C1077 1.388 . S
C1077 H1064 0.930 . S
C1077 C1076 1.388 . S
C1077 C1078 1.390 . S
C1078 C1077 1.390 . S
C1078 C1079 1.394 . S
C1078 C1084 1.465 . S
C1079 C1074 1.399 . S
C1079 C1078 1.394 . S
C1079 C1080 1.516 . S
C1080 C1079 1.516 . S
C1080 C1081 1.502 . S
C1080 C1082 1.561 . S
C1080 C1083 1.526 . S
C1081 H1065 0.959 . S
C1081 H1066 0.959 . S
C1081 H1067 0.961 . S
C1081 C1080 1.502 . S
C1082 H1068 0.960 . S
C1082 H1069 0.961 . S
C1082 H1070 0.959 . S
C1082 C1080 1.561 . S
C1083 C1080 1.526 . S
C1083 C1084 1.396 . S
C1083 C1088 1.390 1_554 S
C1084 C1078 1.465 . S
C1084 C1083 1.396 . S
C1084 C1085 1.399 . S
C1085 H1071 0.929 . S
C1085 C1084 1.399 . S
C1085 C1086 1.385 1_554 S
C1086 H1072 0.931 . S
C1086 C1085 1.385 1_556 S
C1086 C1087 1.389 . S
C1087 C1086 1.389 . S
C1087 C1088 1.387 . S
C1088 H1073 0.930 . S
C1088 C1083 1.390 1_556 S
C1088 C1087 1.387 . S
C373 C7 1.938 . S
C385 C282 1.827 . S
C400 C47 1.911 . S
C412 C322 1.859 . S
C427 C87 1.931 . S
C439 C242 1.829 . S
C454 C167 1.927 . S
C466 C82 1.851 . S
C481 C207 1.938 . S
C493 C2 1.822 . S
C508 C42 1.832 . S
C520 C127 1.927 . S
C535 C287 1.898 . S
C547 C202 1.887 . S
C562 C327 1.939 . S
C574 C122 1.825 . S
C589 C162 1.877 . S
C601 C247 1.912 1_545 S
C616 C96 1.679 . S
C628 C11 1.692 1_554 S
C643 C51 1.696 1_554 S
C655 C16 1.694 . S
C670 C56 1.677 1_455 S
C682 C91 1.690 1_554 S
C697 C131 1.696 . S
C709 C216 1.694 . S
C724 C136 1.705 . S
C736 C171 1.706 . S
C751 C176 1.705 . S
C763 C211 1.706 . S
C778 C336 1.704 . S
C790 C251 1.705 . S
C805 C291 1.697 . S
C817 C256 1.695 . S
C832 C331 1.690 . S
C844 C296 1.685 . S
C859 C19 0.953 . S
C871 C10 1.004 . S
C886 C59 0.949 . S
C898 C50 0.982 . S
C913 C99 0.923 . S
C925 C90 1.019 . S
C940 C130 1.007 . S
C952 C139 0.929 . S
C967 C170 1.014 . S
C979 C179 0.941 . S
C994 C210 0.974 . S
C1006 C219 0.958 . S
C1021 C259 0.947 . S
C1033 C250 1.009 . S
C1048 C290 0.933 . S
C1060 C299 1.001 . S
C1075 C339 0.924 . S
C1087 C330 1.020 . S
