# Generated by pormake.
# Topology wna, (6)-cn, num edge types: 1
# Building blocks:
#     Node 0, Type 0, BuildingBlock: CUKXOW_clean_sbu_0, # of connection points: 6
#     Node 1, Type 0, BuildingBlock: CUKXOW_clean_sbu_0, # of connection points: 6
#     Node 2, Type 0, BuildingBlock: CUKXOW_clean_sbu_0, # of connection points: 6
#     Node 3, Type 0, BuildingBlock: CUKXOW_clean_sbu_0, # of connection points: 6
#     Node 4, Type 0, BuildingBlock: CUKXOW_clean_sbu_0, # of connection points: 6
#     Node 5, Type 0, BuildingBlock: CUKXOW_clean_sbu_0, # of connection points: 6
#     Node 6, Type 0, BuildingBlock: CUKXOW_clean_sbu_0, # of connection points: 6
#     Node 7, Type 0, BuildingBlock: CUKXOW_clean_sbu_0, # of connection points: 6
#     Node 8, Type 0, BuildingBlock: CUKXOW_clean_sbu_0, # of connection points: 6
#     Node 9, Type 0, BuildingBlock: CUKXOW_clean_sbu_0, # of connection points: 6
#     Node 10, Type 0, BuildingBlock: CUKXOW_clean_sbu_0, # of connection points: 6
#     Node 11, Type 0, BuildingBlock: CUKXOW_clean_sbu_0, # of connection points: 6
#     Node 12, Type 0, BuildingBlock: CUKXOW_clean_sbu_0, # of connection points: 6
#     Node 13, Type 0, BuildingBlock: CUKXOW_clean_sbu_0, # of connection points: 6
#     Node 14, Type 0, BuildingBlock: CUKXOW_clean_sbu_0, # of connection points: 6
#     Node 15, Type 0, BuildingBlock: CUKXOW_clean_sbu_0, # of connection points: 6
#     Node 16, Type 0, BuildingBlock: CUKXOW_clean_sbu_0, # of connection points: 6
#     Node 17, Type 0, BuildingBlock: CUKXOW_clean_sbu_0, # of connection points: 6
#     Node 18, Type 0, BuildingBlock: CUKXOW_clean_sbu_0, # of connection points: 6
#     Node 19, Type 0, BuildingBlock: CUKXOW_clean_sbu_0, # of connection points: 6
#     Node 20, Type 0, BuildingBlock: CUKXOW_clean_sbu_0, # of connection points: 6
#     Node 21, Type 0, BuildingBlock: CUKXOW_clean_sbu_0, # of connection points: 6
#     Node 22, Type 0, BuildingBlock: CUKXOW_clean_sbu_0, # of connection points: 6
#     Node 23, Type 0, BuildingBlock: CUKXOW_clean_sbu_0, # of connection points: 6
#     Node 24, Type 0, BuildingBlock: CUKXOW_clean_sbu_0, # of connection points: 6
#     Node 25, Type 0, BuildingBlock: CUKXOW_clean_sbu_0, # of connection points: 6
#     Node 26, Type 0, BuildingBlock: CUKXOW_clean_sbu_0, # of connection points: 6
#     Node 27, Type 0, BuildingBlock: CUKXOW_clean_sbu_0, # of connection points: 6
#     Node 28, Type 0, BuildingBlock: CUKXOW_clean_sbu_0, # of connection points: 6
#     Node 29, Type 0, BuildingBlock: CUKXOW_clean_sbu_0, # of connection points: 6
#     Node 30, Type 0, BuildingBlock: CUKXOW_clean_sbu_0, # of connection points: 6
#     Node 31, Type 0, BuildingBlock: CUKXOW_clean_sbu_0, # of connection points: 6
#     Node 32, Type 0, BuildingBlock: CUKXOW_clean_sbu_0, # of connection points: 6
#     Node 33, Type 0, BuildingBlock: CUKXOW_clean_sbu_0, # of connection points: 6
#     Node 34, Type 0, BuildingBlock: CUKXOW_clean_sbu_0, # of connection points: 6
#     Node 35, Type 0, BuildingBlock: CUKXOW_clean_sbu_0, # of connection points: 6
#     Edge 36, Type (0, 0), BuildingBlock: XIVTED_clean_linker_0, # of connection points: 2
#     Edge 37, Type (0, 0), BuildingBlock: XIVTED_clean_linker_0, # of connection points: 2
#     Edge 38, Type (0, 0), BuildingBlock: XIVTED_clean_linker_0, # of connection points: 2
#     Edge 39, Type (0, 0), BuildingBlock: XIVTED_clean_linker_0, # of connection points: 2
#     Edge 40, Type (0, 0), BuildingBlock: XIVTED_clean_linker_0, # of connection points: 2
#     Edge 41, Type (0, 0), BuildingBlock: XIVTED_clean_linker_0, # of connection points: 2
#     Edge 42, Type (0, 0), BuildingBlock: XIVTED_clean_linker_0, # of connection points: 2
#     Edge 43, Type (0, 0), BuildingBlock: XIVTED_clean_linker_0, # of connection points: 2
#     Edge 44, Type (0, 0), BuildingBlock: XIVTED_clean_linker_0, # of connection points: 2
#     Edge 45, Type (0, 0), BuildingBlock: XIVTED_clean_linker_0, # of connection points: 2
#     Edge 46, Type (0, 0), BuildingBlock: XIVTED_clean_linker_0, # of connection points: 2
#     Edge 47, Type (0, 0), BuildingBlock: XIVTED_clean_linker_0, # of connection points: 2
#     Edge 48, Type (0, 0), BuildingBlock: XIVTED_clean_linker_0, # of connection points: 2
#     Edge 49, Type (0, 0), BuildingBlock: XIVTED_clean_linker_0, # of connection points: 2
#     Edge 50, Type (0, 0), BuildingBlock: XIVTED_clean_linker_0, # of connection points: 2
#     Edge 51, Type (0, 0), BuildingBlock: XIVTED_clean_linker_0, # of connection points: 2
#     Edge 52, Type (0, 0), BuildingBlock: XIVTED_clean_linker_0, # of connection points: 2
#     Edge 53, Type (0, 0), BuildingBlock: XIVTED_clean_linker_0, # of connection points: 2
#     Edge 54, Type (0, 0), BuildingBlock: XIVTED_clean_linker_0, # of connection points: 2
#     Edge 55, Type (0, 0), BuildingBlock: XIVTED_clean_linker_0, # of connection points: 2
#     Edge 56, Type (0, 0), BuildingBlock: XIVTED_clean_linker_0, # of connection points: 2
#     Edge 57, Type (0, 0), BuildingBlock: XIVTED_clean_linker_0, # of connection points: 2
#     Edge 58, Type (0, 0), BuildingBlock: XIVTED_clean_linker_0, # of connection points: 2
#     Edge 59, Type (0, 0), BuildingBlock: XIVTED_clean_linker_0, # of connection points: 2
#     Edge 60, Type (0, 0), BuildingBlock: XIVTED_clean_linker_0, # of connection points: 2
#     Edge 61, Type (0, 0), BuildingBlock: XIVTED_clean_linker_0, # of connection points: 2
#     Edge 62, Type (0, 0), BuildingBlock: XIVTED_clean_linker_0, # of connection points: 2
#     Edge 63, Type (0, 0), BuildingBlock: XIVTED_clean_linker_0, # of connection points: 2
#     Edge 64, Type (0, 0), BuildingBlock: XIVTED_clean_linker_0, # of connection points: 2
#     Edge 65, Type (0, 0), BuildingBlock: XIVTED_clean_linker_0, # of connection points: 2
#     Edge 66, Type (0, 0), BuildingBlock: XIVTED_clean_linker_0, # of connection points: 2
#     Edge 67, Type (0, 0), BuildingBlock: XIVTED_clean_linker_0, # of connection points: 2
#     Edge 68, Type (0, 0), BuildingBlock: XIVTED_clean_linker_0, # of connection points: 2
#     Edge 69, Type (0, 0), BuildingBlock: XIVTED_clean_linker_0, # of connection points: 2
#     Edge 70, Type (0, 0), BuildingBlock: XIVTED_clean_linker_0, # of connection points: 2
#     Edge 71, Type (0, 0), BuildingBlock: XIVTED_clean_linker_0, # of connection points: 2
#     Edge 72, Type (0, 0), BuildingBlock: XIVTED_clean_linker_0, # of connection points: 2
#     Edge 73, Type (0, 0), BuildingBlock: XIVTED_clean_linker_0, # of connection points: 2
#     Edge 74, Type (0, 0), BuildingBlock: XIVTED_clean_linker_0, # of connection points: 2
#     Edge 75, Type (0, 0), BuildingBlock: XIVTED_clean_linker_0, # of connection points: 2
#     Edge 76, Type (0, 0), BuildingBlock: XIVTED_clean_linker_0, # of connection points: 2
#     Edge 77, Type (0, 0), BuildingBlock: XIVTED_clean_linker_0, # of connection points: 2
#     Edge 78, Type (0, 0), BuildingBlock: XIVTED_clean_linker_0, # of connection points: 2
#     Edge 79, Type (0, 0), BuildingBlock: XIVTED_clean_linker_0, # of connection points: 2
#     Edge 80, Type (0, 0), BuildingBlock: XIVTED_clean_linker_0, # of connection points: 2
#     Edge 81, Type (0, 0), BuildingBlock: XIVTED_clean_linker_0, # of connection points: 2
#     Edge 82, Type (0, 0), BuildingBlock: XIVTED_clean_linker_0, # of connection points: 2
#     Edge 83, Type (0, 0), BuildingBlock: XIVTED_clean_linker_0, # of connection points: 2
#     Edge 84, Type (0, 0), BuildingBlock: XIVTED_clean_linker_0, # of connection points: 2
#     Edge 85, Type (0, 0), BuildingBlock: XIVTED_clean_linker_0, # of connection points: 2
#     Edge 86, Type (0, 0), BuildingBlock: XIVTED_clean_linker_0, # of connection points: 2
#     Edge 87, Type (0, 0), BuildingBlock: XIVTED_clean_linker_0, # of connection points: 2
#     Edge 88, Type (0, 0), BuildingBlock: XIVTED_clean_linker_0, # of connection points: 2
#     Edge 89, Type (0, 0), BuildingBlock: XIVTED_clean_linker_0, # of connection points: 2
#     Edge 90, Type (0, 0), BuildingBlock: XIVTED_clean_linker_0, # of connection points: 2
#     Edge 91, Type (0, 0), BuildingBlock: XIVTED_clean_linker_0, # of connection points: 2
#     Edge 92, Type (0, 0), BuildingBlock: XIVTED_clean_linker_0, # of connection points: 2
#     Edge 93, Type (0, 0), BuildingBlock: XIVTED_clean_linker_0, # of connection points: 2
#     Edge 94, Type (0, 0), BuildingBlock: XIVTED_clean_linker_0, # of connection points: 2
#     Edge 95, Type (0, 0), BuildingBlock: XIVTED_clean_linker_0, # of connection points: 2
#     Edge 96, Type (0, 0), BuildingBlock: XIVTED_clean_linker_0, # of connection points: 2
#     Edge 97, Type (0, 0), BuildingBlock: XIVTED_clean_linker_0, # of connection points: 2
#     Edge 98, Type (0, 0), BuildingBlock: XIVTED_clean_linker_0, # of connection points: 2
#     Edge 99, Type (0, 0), BuildingBlock: XIVTED_clean_linker_0, # of connection points: 2
#     Edge 100, Type (0, 0), BuildingBlock: XIVTED_clean_linker_0, # of connection points: 2
#     Edge 101, Type (0, 0), BuildingBlock: XIVTED_clean_linker_0, # of connection points: 2
#     Edge 102, Type (0, 0), BuildingBlock: XIVTED_clean_linker_0, # of connection points: 2
#     Edge 103, Type (0, 0), BuildingBlock: XIVTED_clean_linker_0, # of connection points: 2
#     Edge 104, Type (0, 0), BuildingBlock: XIVTED_clean_linker_0, # of connection points: 2
#     Edge 105, Type (0, 0), BuildingBlock: XIVTED_clean_linker_0, # of connection points: 2
#     Edge 106, Type (0, 0), BuildingBlock: XIVTED_clean_linker_0, # of connection points: 2
#     Edge 107, Type (0, 0), BuildingBlock: XIVTED_clean_linker_0, # of connection points: 2
#     Edge 108, Type (0, 0), BuildingBlock: XIVTED_clean_linker_0, # of connection points: 2
#     Edge 109, Type (0, 0), BuildingBlock: XIVTED_clean_linker_0, # of connection points: 2
#     Edge 110, Type (0, 0), BuildingBlock: XIVTED_clean_linker_0, # of connection points: 2
#     Edge 111, Type (0, 0), BuildingBlock: XIVTED_clean_linker_0, # of connection points: 2
#     Edge 112, Type (0, 0), BuildingBlock: XIVTED_clean_linker_0, # of connection points: 2
#     Edge 113, Type (0, 0), BuildingBlock: XIVTED_clean_linker_0, # of connection points: 2
#     Edge 114, Type (0, 0), BuildingBlock: XIVTED_clean_linker_0, # of connection points: 2
#     Edge 115, Type (0, 0), BuildingBlock: XIVTED_clean_linker_0, # of connection points: 2
#     Edge 116, Type (0, 0), BuildingBlock: XIVTED_clean_linker_0, # of connection points: 2
#     Edge 117, Type (0, 0), BuildingBlock: XIVTED_clean_linker_0, # of connection points: 2
#     Edge 118, Type (0, 0), BuildingBlock: XIVTED_clean_linker_0, # of connection points: 2
#     Edge 119, Type (0, 0), BuildingBlock: XIVTED_clean_linker_0, # of connection points: 2
#     Edge 120, Type (0, 0), BuildingBlock: XIVTED_clean_linker_0, # of connection points: 2
#     Edge 121, Type (0, 0), BuildingBlock: XIVTED_clean_linker_0, # of connection points: 2
#     Edge 122, Type (0, 0), BuildingBlock: XIVTED_clean_linker_0, # of connection points: 2
#     Edge 123, Type (0, 0), BuildingBlock: XIVTED_clean_linker_0, # of connection points: 2
#     Edge 124, Type (0, 0), BuildingBlock: XIVTED_clean_linker_0, # of connection points: 2
#     Edge 125, Type (0, 0), BuildingBlock: XIVTED_clean_linker_0, # of connection points: 2
#     Edge 126, Type (0, 0), BuildingBlock: XIVTED_clean_linker_0, # of connection points: 2
#     Edge 127, Type (0, 0), BuildingBlock: XIVTED_clean_linker_0, # of connection points: 2
#     Edge 128, Type (0, 0), BuildingBlock: XIVTED_clean_linker_0, # of connection points: 2
#     Edge 129, Type (0, 0), BuildingBlock: XIVTED_clean_linker_0, # of connection points: 2
#     Edge 130, Type (0, 0), BuildingBlock: XIVTED_clean_linker_0, # of connection points: 2
#     Edge 131, Type (0, 0), BuildingBlock: XIVTED_clean_linker_0, # of connection points: 2
#     Edge 132, Type (0, 0), BuildingBlock: XIVTED_clean_linker_0, # of connection points: 2
#     Edge 133, Type (0, 0), BuildingBlock: XIVTED_clean_linker_0, # of connection points: 2
#     Edge 134, Type (0, 0), BuildingBlock: XIVTED_clean_linker_0, # of connection points: 2
#     Edge 135, Type (0, 0), BuildingBlock: XIVTED_clean_linker_0, # of connection points: 2
#     Edge 136, Type (0, 0), BuildingBlock: XIVTED_clean_linker_0, # of connection points: 2
#     Edge 137, Type (0, 0), BuildingBlock: XIVTED_clean_linker_0, # of connection points: 2
#     Edge 138, Type (0, 0), BuildingBlock: XIVTED_clean_linker_0, # of connection points: 2
#     Edge 139, Type (0, 0), BuildingBlock: XIVTED_clean_linker_0, # of connection points: 2
#     Edge 140, Type (0, 0), BuildingBlock: XIVTED_clean_linker_0, # of connection points: 2
#     Edge 141, Type (0, 0), BuildingBlock: XIVTED_clean_linker_0, # of connection points: 2
#     Edge 142, Type (0, 0), BuildingBlock: XIVTED_clean_linker_0, # of connection points: 2
#     Edge 143, Type (0, 0), BuildingBlock: XIVTED_clean_linker_0, # of connection points: 2
# Relax obj value: 0.209
# Max RMSD: 0.246
# Mean RMSD: 0.232
data_MOF--net-wna--node1-CUKXOW_clean_sbu_0--edge1-XIVTED_clean_linker_0
_symmetry_space_group_name_H-M    P1
_symmetry_Int_Tables_number       1
_symmetry_cell_setting            triclinic
loop_
_symmetry_equiv_pos_as_xyz
'x, y, z'
_cell_length_a     44.95211
_cell_length_b     44.899809
_cell_length_c     72.178273
_cell_angle_alpha  89.934615
_cell_angle_beta   90.059729
_cell_angle_gamma 119.85604
loop_
_atom_site_label
_atom_site_type_symbol
_atom_site_fract_x
_atom_site_fract_y
_atom_site_fract_z
_atom_type_partial_charge
Tb0 Tb 0.12173 0.25984 0.20821 0.0
C1 C 0.10155 0.18161 0.20264 0.0
Tb2 Tb 0.04418 0.20378 0.20002 0.0
O3 O 0.10867 0.26445 0.23683 0.0
O4 O 0.08012 0.21853 0.22206 0.0
O5 O 0.12631 0.21367 0.2059 0.0
C6 C 0.98124 0.15033 0.20178 0.0
O7 O 0.06862 0.1724 0.20097 0.0
C8 C 0.0776 0.23884 0.17017 0.0
C9 C 0.06507 0.28136 0.2056 0.0
O10 O 0.00342 0.15635 0.18879 0.0
O11 O -0.00571 0.17496 0.21399 0.0
O12 O 0.04529 0.21574 0.16997 0.0
O13 O 0.08749 0.2398 0.18642 0.0
O14 O 0.0405 0.24873 0.20775 0.0
O15 O 0.09795 0.29108 0.20264 0.0
C16 C 0.18835 0.29964 0.20194 0.0
O17 O 0.17325 0.29798 0.21758 0.0
O18 O 0.16597 0.27923 0.19 0.0
C19 C 0.08151 0.23399 0.23689 0.0
Tb20 Tb 0.71436 0.85121 0.20566 0.0
C21 C 0.79108 0.90971 0.20885 0.0
Tb22 Tb 0.77142 0.83198 0.2012 0.0
O23 O 0.72453 0.85591 0.23597 0.0
O24 O 0.73227 0.8223 0.21994 0.0
O25 O 0.75905 0.90237 0.20575 0.0
C26 C 0.82298 0.82127 0.20984 0.0
O27 O 0.80069 0.88613 0.20884 0.0
C28 C 0.75039 0.84459 0.16993 0.0
C29 C 0.69397 0.77452 0.19648 0.0
O30 O 0.81139 0.83678 0.22024 0.0
O31 O 0.8053 0.81148 0.19459 0.0
O32 O 0.76785 0.82868 0.17125 0.0
O33 O 0.75149 0.85787 0.18556 0.0
O34 O 0.72531 0.78138 0.20153 0.0
O35 O 0.68468 0.79837 0.19557 0.0
C36 C 0.66524 0.86778 0.20213 0.0
O37 O 0.67627 0.8622 0.21762 0.0
O38 O 0.68138 0.86324 0.1885 0.0
C39 C 0.73597 0.83448 0.23583 0.0
Tb40 Tb 0.12164 0.84873 0.21401 0.0
C41 C 0.06116 0.86342 0.21357 0.0
Tb42 Tb 0.1356 0.92007 0.20163 0.0
O43 O 0.11496 0.8607 0.2428 0.0
O44 O 0.14718 0.89914 0.22472 0.0
O45 O 0.06976 0.83965 0.21042 0.0
C46 C 0.14063 0.98162 0.19925 0.0
O47 O 0.0842 0.8966 0.21364 0.0
C48 C 0.12715 0.87843 0.17453 0.0
C49 C 0.19737 0.90567 0.2019 0.0
O50 O 0.12326 0.956 0.18816 0.0
O51 O 0.15554 0.97274 0.21176 0.0
O52 O 0.14445 0.91161 0.17305 0.0
O53 O 0.11207 0.86999 0.19006 0.0
O54 O 0.18784 0.92936 0.20092 0.0
O55 O 0.17607 0.87298 0.20646 0.0
C56 C 0.10768 0.78367 0.21693 0.0
O57 O 0.10628 0.80219 0.23028 0.0
O58 O 0.1177 0.80207 0.20197 0.0
C59 C 0.13403 0.89358 0.24052 0.0
Tb60 Tb 0.25809 0.12049 0.36498 0.0
C61 C 0.18325 0.109 0.36894 0.0
Tb62 Tb 0.19674 0.0478 0.37649 0.0
O63 O 0.26387 0.09816 0.33926 0.0
O64 O 0.21608 0.07764 0.35209 0.0
O65 O 0.21653 0.13113 0.37071 0.0
C66 C 0.14078 0.98659 0.37717 0.0
O67 O 0.17053 0.0753 0.36792 0.0
C68 C 0.22916 0.08661 0.40554 0.0
C69 C 0.27296 0.06156 0.37503 0.0
O70 O 0.14548 0.01332 0.38642 0.0
O71 O 0.16795 -0.00592 0.36737 0.0
O72 O 0.20422 0.05518 0.4069 0.0
O73 O 0.23307 0.09325 0.38863 0.0
O74 O 0.23977 0.0385 0.37303 0.0
O75 O 0.28542 0.09535 0.37517 0.0
C76 C 0.3015 0.18644 0.3591 0.0
O77 O 0.27628 0.16651 0.34833 0.0
O78 O 0.30257 0.1692 0.37334 0.0
C79 C 0.23219 0.07347 0.33907 0.0
Tb80 Tb 0.85249 0.12838 0.35987 0.0
C81 C 0.86671 0.06721 0.36975 0.0
Tb82 Tb 0.92653 0.14379 0.37251 0.0
O83 O 0.87422 0.15372 0.33353 0.0
O84 O 0.89595 0.12881 0.34811 0.0
O85 O 0.84388 0.07744 0.36723 0.0
C86 C -0.00933 0.15575 0.37061 0.0
O87 O 0.90035 0.08839 0.37046 0.0
C88 C 0.88773 0.14081 0.40081 0.0
C89 C 0.90936 0.20416 0.36834 0.0
O90 O 0.97038 0.14267 0.38474 0.0
O91 O 0.97493 0.16231 0.35751 0.0
O92 O 0.91937 0.14777 0.4026 0.0
O93 O 0.88079 0.13574 0.3839 0.0
O94 O 0.93334 0.19492 0.36827 0.0
O95 O 0.8758 0.18221 0.36727 0.0
C96 C 0.7856 0.10258 0.35492 0.0
O97 O 0.80582 0.09791 0.344 0.0
O98 O 0.80317 0.1224 0.36862 0.0
C99 C 0.89938 0.14733 0.33423 0.0
Tb100 Tb 0.84229 0.71523 0.36134 0.0
C101 C 0.90213 0.79262 0.36562 0.0
Tb102 Tb 0.82536 0.77288 0.37485 0.0
O103 O 0.81597 0.71069 0.33515 0.0
O104 O 0.83851 0.75688 0.35004 0.0
O105 O 0.89369 0.75991 0.3636 0.0
C106 C 0.81652 0.82676 0.37797 0.0
O107 O 0.87938 0.80296 0.36799 0.0
C108 C 0.83269 0.73834 0.40249 0.0
C109 C 0.76629 0.69551 0.37103 0.0
O110 O 0.83712 0.82088 0.38787 0.0
O111 O 0.80041 0.80201 0.36604 0.0
O112 O 0.8241 0.76171 0.40486 0.0
O113 O 0.83686 0.73714 0.38546 0.0
O114 O 0.77453 0.72844 0.37106 0.0
O115 O 0.78885 0.68463 0.36943 0.0
C116 C 0.86628 0.67182 0.36089 0.0
O117 O 0.8628 0.68697 0.34636 0.0
O118 O 0.856 0.68092 0.37549 0.0
C119 C 0.81978 0.74136 0.33635 0.0
Tb120 Tb 0.92006 0.77735 0.86101 0.0
C121 C 0.90312 0.70029 0.85594 0.0
Tb122 Tb 0.84442 0.7183 0.85086 0.0
O123 O 0.91565 0.76657 0.89124 0.0
O124 O 0.87546 0.7412 0.8737 0.0
O125 O 0.92681 0.73347 0.85473 0.0
C126 C 0.77772 0.67483 0.85432 0.0
O127 O 0.86955 0.68872 0.85692 0.0
C128 C 0.88826 0.7452 0.8235 0.0
C129 C 0.86112 0.79579 0.85509 0.0
O130 O 0.79292 0.68944 0.83888 0.0
O131 O 0.80012 0.68428 0.86754 0.0
O132 O 0.86203 0.71409 0.82311 0.0
O133 O 0.88674 0.76019 0.83787 0.0
O134 O 0.83727 0.7627 0.85486 0.0
O135 O 0.89465 0.80701 0.85521 0.0
C136 C 0.983 0.83027 0.86247 0.0
O137 O 0.95759 0.8258 0.87286 0.0
O138 O 0.97303 0.80496 0.85078 0.0
C139 C 0.88383 0.74256 0.8903 0.0
Tb140 Tb 0.19571 0.14263 0.86054 0.0
C141 C 0.27088 0.20313 0.85638 0.0
Tb142 Tb 0.25354 0.12769 0.85148 0.0
O143 O 0.21845 0.16606 0.88683 0.0
O144 O 0.22688 0.12782 0.87578 0.0
O145 O 0.23815 0.19322 0.85307 0.0
C146 C 0.29935 0.10685 0.84963 0.0
O147 O 0.28209 0.18122 0.85904 0.0
C148 C 0.22909 0.14628 0.82347 0.0
C149 C 0.17902 0.06544 0.85778 0.0
O150 O 0.27559 0.10032 0.83749 0.0
O151 O 0.29742 0.12525 0.86296 0.0
O152 O 0.26073 0.1533 0.82462 0.0
O153 O 0.21256 0.12779 0.83696 0.0
O154 O 0.21191 0.07542 0.85551 0.0
O155 O 0.16701 0.087 0.85908 0.0
C156 C 0.13901 0.14715 0.86168 0.0
O157 O 0.14779 0.13147 0.87373 0.0
O158 O 0.1623 0.16053 0.84884 0.0
C159 C 0.23521 0.14965 0.88864 0.0
Tb160 Tb 0.82246 0.05271 0.85638 0.0
C161 C 0.76578 0.0726 0.84946 0.0
Tb162 Tb 0.84331 0.12713 0.84629 0.0
O163 O 0.79885 0.05465 0.88237 0.0
O164 O 0.83921 0.09959 0.87094 0.0
O165 O 0.77403 0.04816 0.8474 0.0
C166 C 0.8702 0.19489 0.84395 0.0
O167 O 0.78899 0.10536 0.85206 0.0
C168 C 0.82497 0.08373 0.81865 0.0
C169 C 0.90122 0.10869 0.85625 0.0
O170 O 0.87653 0.17617 0.83274 0.0
O171 O 0.84848 0.17542 0.85648 0.0
O172 O 0.81969 0.10962 0.81889 0.0
O173 O 0.84156 0.0846 0.83285 0.0
O174 O 0.89372 0.13306 0.85215 0.0
O175 O 0.87773 0.07587 0.85824 0.0
C176 C 0.81348 -0.01057 0.85515 0.0
O177 O 0.82194 0.00873 0.86979 0.0
O178 O 0.80966 0.0056 0.84125 0.0
C179 C 0.81655 0.08793 0.88345 0.0
Tb180 Tb 0.77501 0.92641 0.68608 0.0
C181 C 0.70021 0.91416 0.68814 0.0
Tb182 Tb 0.71542 0.8552 0.69474 0.0
O183 O 0.75568 0.9271 0.65866 0.0
O184 O 0.74441 0.88037 0.67074 0.0
O185 O 0.73295 0.93614 0.69198 0.0
C186 C 0.67184 0.78914 0.7007 0.0
O187 O 0.68838 0.88097 0.68525 0.0
C188 C 0.73789 0.89906 0.72245 0.0
C189 C 0.78983 0.86554 0.69168 0.0
O190 O 0.69653 0.80942 0.7116 0.0
O191 O 0.67134 0.80605 0.68614 0.0
O192 O 0.70605 0.87581 0.72028 0.0
O193 O 0.75545 0.89578 0.70996 0.0
O194 O 0.75653 0.84328 0.69082 0.0
O195 O 0.80249 0.89918 0.69177 0.0
C196 C 0.83326 0.98589 0.68544 0.0
O197 O 0.82491 0.96056 0.6741 0.0
O198 O 0.80852 0.978 0.69721 0.0
C199 C 0.73801 0.89399 0.6571 0.0
Tb200 Tb 0.04897 0.83342 0.68867 0.0
C201 C 0.06543 0.7731 0.69371 0.0
Tb202 Tb 0.12103 0.85068 0.70203 0.0
O203 O 0.05824 0.82488 0.66005 0.0
O204 O 0.09906 0.85717 0.67749 0.0
O205 O 0.04123 0.78198 0.69307 0.0
C206 C 0.18626 0.86657 0.70591 0.0
O207 O 0.0986 0.79576 0.69594 0.0
C208 C 0.0746 0.83853 0.72778 0.0
C209 C 0.10617 0.91128 0.69581 0.0
O210 O 0.16749 0.86944 0.71861 0.0
O211 O 0.16793 0.85371 0.69107 0.0
O212 O 0.10724 0.85853 0.73042 0.0
O213 O 0.07062 0.82483 0.71226 0.0
O214 O 0.12998 0.90207 0.69624 0.0
O215 O 0.07293 0.88865 0.6943 0.0
C216 C -0.01378 0.82485 0.69138 0.0
O217 O 0.00943 0.83687 0.70421 0.0
O218 O -0.00164 0.81781 0.67672 0.0
C219 C 0.09139 0.8419 0.66205 0.0
Tb220 Tb 0.15343 0.20878 0.68541 0.0
C221 C 0.20753 0.28729 0.68794 0.0
Tb222 Tb 0.12822 0.26083 0.69303 0.0
O223 O 0.16505 0.22306 0.65637 0.0
O224 O 0.12865 0.23069 0.67062 0.0
O225 O 0.2017 0.25549 0.69078 0.0
C226 C 0.1054 0.30503 0.68923 0.0
O227 O 0.1825 0.29479 0.68599 0.0
C228 C 0.13934 0.23209 0.72199 0.0
C229 C 0.07323 0.1824 0.69023 0.0
O230 O 0.12426 0.30497 0.7029 0.0
O231 O 0.10018 0.28079 0.67771 0.0
O232 O 0.11742 0.24302 0.72223 0.0
O233 O 0.15512 0.24067 0.70696 0.0
O234 O 0.07878 0.21414 0.69187 0.0
O235 O 0.0981 0.175 0.6878 0.0
C236 C 0.16195 0.15536 0.69272 0.0
O237 O 0.14691 0.16703 0.70338 0.0
O238 O 0.17308 0.17436 0.67791 0.0
C239 C 0.14624 0.23765 0.65596 0.0
Tb240 Tb 0.7832 0.59485 0.54549 0.0
C241 C 0.76509 0.51889 0.53499 0.0
Tb242 Tb 0.70705 0.53882 0.53398 0.0
O243 O 0.76563 0.59607 0.57354 0.0
O244 O 0.74 0.55176 0.55732 0.0
O245 O 0.78923 0.55174 0.53624 0.0
C246 C 0.64356 0.48581 0.53311 0.0
O247 O 0.73177 0.50801 0.53625 0.0
C248 C 0.74462 0.57535 0.50555 0.0
C249 C 0.72612 0.6158 0.54188 0.0
O250 O 0.66778 0.49168 0.52144 0.0
O251 O 0.65492 0.51012 0.54549 0.0
O252 O 0.71249 0.55215 0.50407 0.0
O253 O 0.75236 0.57589 0.5222 0.0
O254 O 0.70172 0.58281 0.54192 0.0
O255 O 0.75959 0.62656 0.54085 0.0
C256 C 0.85091 0.63547 0.54716 0.0
O257 O 0.83295 0.60894 0.55764 0.0
O258 O 0.83065 0.63955 0.5359 0.0
C259 C 0.73898 0.56545 0.57232 0.0
Tb260 Tb 0.37162 0.18716 0.54948 0.0
C261 C 0.44746 0.2482 0.54264 0.0
Tb262 Tb 0.4279 0.17031 0.53863 0.0
O263 O 0.36504 0.16193 0.57637 0.0
O264 O 0.41244 0.18523 0.56285 0.0
O265 O 0.41493 0.23908 0.5458 0.0
C266 C 0.4838 0.16439 0.53647 0.0
O267 O 0.45826 0.22583 0.54033 0.0
C268 C 0.3872 0.16584 0.51162 0.0
C269 C 0.35256 0.11044 0.54395 0.0
O270 O 0.47404 0.17901 0.52428 0.0
O271 O 0.46191 0.15283 0.55008 0.0
O272 O 0.4039 0.1492 0.51192 0.0
O273 O 0.39702 0.18693 0.52486 0.0
O274 O 0.3855 0.11978 0.54569 0.0
O275 O 0.34148 0.13282 0.54286 0.0
C276 C 0.32776 0.21065 0.54979 0.0
O277 O 0.32787 0.18922 0.5378 0.0
O278 O 0.35201 0.21839 0.56184 0.0
C279 C 0.39616 0.16709 0.57653 0.0
Tb280 Tb 0.78227 0.1858 0.54243 0.0
C281 C 0.72119 0.20097 0.53713 0.0
Tb282 Tb 0.79909 0.25831 0.5317 0.0
O283 O 0.80972 0.20486 0.56858 0.0
O284 O 0.78469 0.22865 0.55629 0.0
O285 O 0.73013 0.17743 0.54057 0.0
C286 C 0.80448 0.31994 0.52918 0.0
O287 O 0.74371 0.23374 0.534 0.0
C288 C 0.80337 0.22234 0.50437 0.0
C289 C 0.85861 0.24255 0.53683 0.0
O290 O 0.78908 0.29508 0.5174 0.0
O291 O 0.81721 0.31025 0.54254 0.0
O292 O 0.82043 0.25559 0.50501 0.0
O293 O 0.78219 0.21101 0.51762 0.0
O294 O 0.84945 0.26619 0.53923 0.0
O295 O 0.83608 0.20944 0.53489 0.0
C296 C 0.76089 0.11895 0.54367 0.0
O297 O 0.75823 0.1366 0.55714 0.0
O298 O 0.77532 0.13886 0.52957 0.0
C299 C 0.80379 0.2303 0.56951 0.0
Tb300 Tb 0.92453 0.45366 0.6952 0.0
C301 C 0.84826 0.43683 0.70414 0.0
Tb302 Tb 0.86829 0.3779 0.70716 0.0
O303 O 0.92526 0.43575 0.66729 0.0
O304 O 0.88082 0.41057 0.68362 0.0
O305 O 0.8801 0.46044 0.69954 0.0
C306 C 0.81458 0.31459 0.7081 0.0
O307 O 0.83815 0.40375 0.70658 0.0
C308 C 0.90817 0.41521 0.73492 0.0
C309 C 0.94446 0.396 0.69877 0.0
O310 O 0.8373 0.32659 0.69487 0.0
O311 O 0.82246 0.33808 0.7206 0.0
O312 O 0.88435 0.38332 0.73679 0.0
O313 O 0.90712 0.42265 0.71838 0.0
O314 O 0.91144 0.37171 0.69846 0.0
O315 O 0.95529 0.4294 0.70052 0.0
C316 C 0.96848 0.52076 0.69638 0.0
O317 O 0.9601 0.50204 0.68152 0.0
O318 O 0.95217 0.50171 0.71049 0.0
C319 C 0.89452 0.40933 0.66859 0.0
Tb320 Tb 0.51948 0.4598 0.69913 0.0
C321 C 0.53565 0.40037 0.70235 0.0
Tb322 Tb 0.59202 0.47746 0.71243 0.0
O323 O 0.53106 0.44852 0.67114 0.0
O324 O 0.56945 0.48371 0.68839 0.0
O325 O 0.51096 0.40828 0.70274 0.0
C326 C 0.65396 0.4834 0.71508 0.0
O327 O 0.5687 0.42381 0.70352 0.0
C328 C 0.5506 0.47372 0.73849 0.0
C329 C 0.57581 0.53754 0.70785 0.0
O330 O 0.64394 0.49573 0.70171 0.0
O331 O 0.6293 0.46827 0.72702 0.0
O332 O 0.58377 0.49116 0.74007 0.0
O333 O 0.54233 0.45574 0.72392 0.0
O334 O 0.60034 0.52926 0.70946 0.0
O335 O 0.5429 0.51468 0.70501 0.0
C336 C 0.45504 0.44729 0.69802 0.0
O337 O 0.47578 0.45685 0.68396 0.0
O338 O 0.47069 0.44494 0.71255 0.0
C339 C 0.564 0.46829 0.67323 0.0
Tb340 Tb 0.51305 0.04487 0.69393 0.0
C341 C 0.57474 0.12021 0.70391 0.0
Tb342 Tb 0.49796 0.10431 0.70561 0.0
O343 O 0.48843 0.04061 0.66716 0.0
O344 O 0.5125 0.0872 0.68169 0.0
O345 O 0.56496 0.08897 0.69727 0.0
C346 C 0.4934 0.16061 0.70025 0.0
O347 O 0.55321 0.13111 0.70861 0.0
C348 C 0.50051 0.06925 0.73435 0.0
C349 C 0.43737 0.02784 0.69999 0.0
O350 O 0.51299 0.15226 0.69119 0.0
O351 O 0.47586 0.13698 0.71248 0.0
O352 O 0.49515 0.09516 0.73595 0.0
O353 O 0.50519 0.0666 0.71747 0.0
O354 O 0.4472 0.06118 0.69879 0.0
O355 O 0.45905 0.01579 0.7008 0.0
C356 C 0.53616 0.00091 0.69292 0.0
O357 O 0.53126 0.01532 0.67854 0.0
O358 O 0.52772 0.01099 0.70786 0.0
C359 C 0.49459 0.07214 0.66767 0.0
Tb360 Tb 0.58854 0.10168 0.1953 0.0
C361 C 0.57179 0.02583 0.18925 0.0
Tb362 Tb 0.51522 0.04681 0.18432 0.0
O363 O 0.58559 0.0774 0.22192 0.0
O364 O 0.54103 0.0713 0.20913 0.0
O365 O 0.59593 0.05871 0.18815 0.0
C366 C 0.4478 0.0044 0.18221 0.0
O367 O 0.53849 0.01534 0.19038 0.0
C368 C 0.55987 0.07062 0.15736 0.0
C369 C 0.53146 0.12312 0.19158 0.0
O370 O 0.46596 0.02852 0.17041 0.0
O371 O 0.46768 0.00392 0.19511 0.0
O372 O 0.5337 0.03972 0.15758 0.0
O373 O 0.55831 0.08721 0.171 0.0
O374 O 0.50759 0.09092 0.18804 0.0
O375 O 0.56423 0.13285 0.19408 0.0
C376 C 0.64949 0.15881 0.1968 0.0
O377 O 0.62567 0.14852 0.20929 0.0
O378 O 0.63939 0.13633 0.18348 0.0
C379 C 0.5523 0.06109 0.22228 0.0
Tb380 Tb 0.86785 0.48104 0.19916 0.0
C381 C 0.94649 0.53589 0.20121 0.0
Tb382 Tb 0.9215 0.45739 0.19185 0.0
O383 O 0.87683 0.48718 0.22897 0.0
O384 O 0.88884 0.45514 0.21352 0.0
O385 O 0.91487 0.53066 0.19859 0.0
C386 C 0.96478 0.43425 0.19819 0.0
O387 O 0.95446 0.51103 0.2003 0.0
C388 C 0.89676 0.4728 0.16279 0.0
C389 C 0.84276 0.40151 0.19169 0.0
O390 O 0.96709 0.45389 0.18432 0.0
O391 O 0.9385 0.42808 0.20826 0.0
O392 O 0.90808 0.45116 0.16205 0.0
O393 O 0.90291 0.48626 0.17853 0.0
O394 O 0.87479 0.40781 0.19018 0.0
O395 O 0.83467 0.42573 0.19506 0.0
C396 C 0.8169 0.4926 0.1904 0.0
O397 O 0.82957 0.47853 0.1797 0.0
O398 O 0.83317 0.50056 0.20615 0.0
C399 C 0.89272 0.46957 0.22909 0.0
Tb400 Tb 0.50253 0.38768 0.1895 0.0
C401 C 0.4403 0.40023 0.18697 0.0
Tb402 Tb 0.51493 0.45986 0.18005 0.0
O403 O 0.48445 0.38938 0.2174 0.0
O404 O 0.51896 0.43462 0.2039 0.0
O405 O 0.4508 0.37779 0.18381 0.0
C406 C 0.53471 0.52634 0.17996 0.0
O407 O 0.4617 0.43364 0.18884 0.0
C408 C 0.49268 0.41546 0.15282 0.0
C409 C 0.57841 0.44753 0.18181 0.0
O410 O 0.53791 0.50975 0.16609 0.0
O411 O 0.52029 0.50546 0.19371 0.0
O412 O 0.48592 0.44032 0.1542 0.0
O413 O 0.5131 0.41817 0.16549 0.0
O414 O 0.56784 0.47035 0.18124 0.0
O415 O 0.55726 0.414 0.18358 0.0
C416 C 0.49877 0.32676 0.19094 0.0
O417 O 0.51614 0.35217 0.20219 0.0
O418 O 0.48338 0.3356 0.17866 0.0
C419 C 0.49988 0.42259 0.21793 0.0
Tb420 Tb 0.43999 0.2636 1.02146 0.0
C421 C 0.36651 0.25486 1.02177 0.0
Tb422 Tb 0.37775 0.19257 1.02645 0.0
O423 O 0.42412 0.26874 0.99387 0.0
O424 O 0.41086 0.22013 1.00409 0.0
O425 O 0.3989 0.27501 1.02702 0.0
C426 C 0.3297 0.12668 1.0259 0.0
O427 O 0.35398 0.22203 1.01745 0.0
C428 C 0.39837 0.23201 0.05599 0.0
C429 C 0.45171 0.20046 1.02776 0.0
O430 O 0.34619 0.14381 0.04045 0.0
O431 O 0.3401 0.14669 1.01151 0.0
O432 O 0.36638 0.21035 0.05256 0.0
O433 O 0.41658 0.22954 0.04364 0.0
O434 O 0.41822 0.17887 1.02643 0.0
O435 O 0.46535 0.23427 1.02741 0.0
C436 C 0.49945 0.32159 1.02259 0.0
O437 O 0.4909 0.29712 1.01065 0.0
O438 O 0.47434 0.31361 0.03412 0.0
C439 C 0.40671 0.23604 0.9908 0.0
Tb440 Tb 0.70799 0.16508 1.02141 0.0
C441 C 0.72708 0.10609 1.02626 0.0
Tb442 Tb 0.78378 0.18227 0.03174 0.0
O443 O 0.71334 0.16411 0.99092 0.0
O444 O 0.7529 0.17394 1.00866 0.0
O445 O 0.70293 0.11503 1.02767 0.0
C446 C 0.85087 0.20832 0.03536 0.0
O447 O 0.76046 0.1284 1.02503 0.0
C448 C 0.73934 0.16304 0.05873 0.0
C449 C 0.76748 0.24216 1.02072 0.0
O450 O 0.83124 0.21279 0.04683 0.0
O451 O 0.83268 0.1888 1.0217 0.0
O452 O 0.76513 0.15761 0.05869 0.0
O453 O 0.74103 0.18068 0.0448 0.0
O454 O 0.79056 0.23269 1.0246 0.0
O455 O 0.73397 0.22053 1.01929 0.0
C456 C 0.64474 0.15423 1.02722 0.0
O457 O 0.67127 0.17253 0.03756 0.0
O458 O 0.65373 0.14183 1.01344 0.0
C459 C 0.74485 0.17021 0.99186 0.0
Tb460 Tb 0.81903 0.54109 1.02129 0.0
C461 C 0.8752 0.61632 1.03062 0.0
Tb462 Tb 0.7976 0.59319 0.03386 0.0
O463 O 0.8413 0.56912 0.99565 0.0
O464 O 0.80085 0.57146 1.00847 0.0
O465 O 0.8671 0.58355 0.03134 0.0
C466 C 0.77059 0.63413 0.03542 0.0
O467 O 0.85204 0.62617 1.0284 0.0
C468 C 0.81768 0.56705 0.0602 0.0
C469 C 0.73992 0.5164 1.0267 0.0
O470 O 0.77235 0.61647 0.04919 0.0
O471 O 0.78432 0.629 1.02086 0.0
O472 O 0.82143 0.59767 0.06095 0.0
O473 O 0.80098 0.55195 0.04589 0.0
O474 O 0.74701 0.54795 1.03107 0.0
O475 O 0.7638 0.50808 1.02309 0.0
C476 C 0.82659 0.48652 1.01651 0.0
O477 O 0.81092 0.49666 1.00527 0.0
O478 O 0.83863 0.50749 1.0305 0.0
C479 C 0.82294 0.58403 0.99576 0.0
Tb480 Tb 0.44958 0.92872 0.87448 0.0
C481 C 0.4263 0.84987 0.8743 0.0
Tb482 Tb 0.37233 0.87554 0.86716 0.0
O483 O 0.44359 0.91475 0.90415 0.0
O484 O 0.40251 0.9094 0.88822 0.0
O485 O 0.45222 0.88173 0.87588 0.0
C486 C 0.31047 0.82276 0.87477 0.0
O487 O 0.39425 0.84229 0.87096 0.0
C488 C 0.40877 0.90198 0.83733 0.0
C489 C 0.39556 0.95377 0.86655 0.0
O490 O 0.3371 0.83449 0.88548 0.0
O491 O 0.31843 0.84129 0.85977 0.0
O492 O 0.37539 0.88651 0.83742 0.0
O493 O 0.41888 0.8969 0.85273 0.0
O494 O 0.36954 0.92218 0.8695 0.0
O495 O 0.4284 0.96181 0.86669 0.0
C496 C 0.51521 0.97083 0.86657 0.0
O497 O 0.49908 0.97497 0.88045 0.0
O498 O 0.49447 0.94336 0.85751 0.0
C499 C 0.41054 0.90281 0.90371 0.0
Tb500 Tb 0.04366 0.52154 0.87352 0.0
C501 C 0.12136 0.58002 0.87595 0.0
Tb502 Tb 0.10109 0.5025 0.86682 0.0
O503 O 0.05546 0.52678 0.90359 0.0
O504 O 0.06407 0.49419 0.88688 0.0
O505 O 0.08877 0.5721 0.87567 0.0
C506 C 0.15265 0.49166 0.87499 0.0
O507 O 0.13163 0.55721 0.87342 0.0
C508 C 0.07697 0.51447 0.83653 0.0
C509 C 0.0236 0.44486 0.8632 0.0
O510 O 0.1406 0.50623 0.88577 0.0
O511 O 0.13556 0.48301 0.85952 0.0
O512 O 0.09502 0.49909 0.83667 0.0
O513 O 0.07854 0.5268 0.85247 0.0
O514 O 0.05549 0.45185 0.86692 0.0
O515 O 0.01369 0.46834 0.86373 0.0
C516 C 0.00023 0.54434 0.86673 0.0
O517 O -0.00355 0.52295 0.87997 0.0
O518 O 0.02785 0.55219 0.85752 0.0
C519 C 0.06864 0.50669 0.90281 0.0
Tb520 Tb 0.45197 0.51851 0.87869 0.0
C521 C 0.38973 0.53274 0.87828 0.0
Tb522 Tb 0.4661 0.59178 0.87012 0.0
O523 O 0.47995 0.53612 0.90495 0.0
O524 O 0.45409 0.55985 0.89363 0.0
O525 O 0.39958 0.5094 0.87904 0.0
C526 C 0.46892 0.65219 0.86988 0.0
O527 O 0.41133 0.56605 0.87598 0.0
C528 C 0.46843 0.55738 0.84133 0.0
C529 C 0.52734 0.57777 0.87261 0.0
O530 O 0.45196 0.6274 0.85824 0.0
O531 O 0.48489 0.64322 0.88173 0.0
O532 O 0.48431 0.59063 0.84205 0.0
O533 O 0.44934 0.54548 0.85535 0.0
O534 O 0.51746 0.60064 0.87599 0.0
O535 O 0.50556 0.54447 0.87059 0.0
C536 C 0.42914 0.45167 0.876 0.0
O537 O 0.43026 0.46745 0.89128 0.0
O538 O 0.44124 0.47353 0.86255 0.0
C539 C 0.47371 0.56136 0.90648 0.0
Tb540 Tb 0.59519 0.78765 1.03105 0.0
C541 C 0.52043 0.77599 0.03769 0.0
Tb542 Tb 0.53783 0.71615 0.04028 0.0
O543 O 0.60288 0.76816 1.00472 0.0
O544 O 0.55414 0.74714 1.01641 0.0
O545 O 0.55337 0.79847 0.03518 0.0
C546 C 0.48117 0.65509 0.04093 0.0
O547 O 0.50846 0.74253 0.03926 0.0
C548 C 0.57739 0.74852 0.06841 0.0
C549 C 0.61278 0.72964 0.03559 0.0
O550 O 0.49064 0.67844 0.05365 0.0
O551 O 0.50379 0.66599 1.0277 0.0
O552 O 0.5611 0.71542 0.06643 0.0
O553 O 0.56878 0.76206 0.05565 0.0
O554 O 0.57983 0.70733 0.03259 0.0
O555 O 0.62433 0.76276 0.03861 0.0
C556 C 0.63751 0.85448 1.02649 0.0
O557 O 0.61356 0.83451 1.01513 0.0
O558 O 0.63819 0.83672 0.04058 0.0
C559 C 0.57094 0.74469 1.00319 0.0
Tb560 Tb 0.19248 0.80209 0.03252 0.0
C561 C 0.20975 0.74244 0.03853 0.0
Tb562 Tb 0.26853 0.82106 0.04368 0.0
O563 O 0.20859 0.82011 1.0043 0.0
O564 O 0.23556 0.80232 1.02025 0.0
O565 O 0.18596 0.75094 0.03494 0.0
C566 C 0.33128 0.8293 0.04533 0.0
O567 O 0.24282 0.76517 0.04104 0.0
C568 C 0.23126 0.8209 0.07219 0.0
C569 C 0.2497 0.87898 0.03658 0.0
O570 O 0.30636 0.81142 0.0567 0.0
O571 O 0.3211 0.84319 0.0328 0.0
O572 O 0.26304 0.82856 0.07375 0.0
O573 O 0.22401 0.81482 0.05546 0.0
O574 O 0.27418 0.87048 0.03549 0.0
O575 O 0.21662 0.85636 0.03909 0.0
C576 C 0.12545 0.77791 0.03548 0.0
O577 O 0.14379 0.79365 1.02102 0.0
O578 O 0.14487 0.77598 0.04815 0.0
C579 C 0.23591 0.81712 1.00531 0.0
Tb580 Tb 0.17928 0.38838 1.02703 0.0
C581 C 0.23918 0.46496 0.03436 0.0
Tb582 Tb 0.16166 0.44481 0.04117 0.0
O583 O 0.15499 0.386 1.00053 0.0
O584 O 0.17703 0.43134 1.01621 0.0
O585 O 0.23056 0.43263 1.03078 0.0
C586 C 0.15286 0.49875 0.04415 0.0
O587 O 0.21661 0.4754 0.03703 0.0
C588 C 0.16556 0.40765 0.0685 0.0
C589 C 0.10264 0.36793 0.03508 0.0
O590 O 0.17189 0.49187 0.0548 0.0
O591 O 0.13809 0.47481 0.03168 0.0
O592 O 0.15736 0.4313 0.07094 0.0
O593 O 0.17102 0.40733 0.05154 0.0
O594 O 0.11114 0.40093 0.03574 0.0
O595 O 0.12519 0.35695 0.03384 0.0
C596 C 0.20506 0.34648 1.02502 0.0
O597 O 0.20006 0.3616 1.01099 0.0
O598 O 0.19489 0.35442 0.04011 0.0
C599 C 0.1592 0.41678 1.00204 0.0
Tb600 Tb 0.24856 0.43748 0.52303 0.0
C601 C 0.2329 0.36222 0.51772 0.0
Tb602 Tb 0.17465 0.3814 0.514 0.0
O603 O 0.2482 0.41389 0.54956 0.0
O604 O 0.20263 0.40722 0.53795 0.0
O605 O 0.25621 0.39507 0.51534 0.0
C606 C 0.10793 0.33741 0.51707 0.0
O607 O 0.1996 0.35127 0.51953 0.0
C608 C 0.21661 0.40468 0.48592 0.0
C609 C 0.19058 0.4579 0.51998 0.0
O610 O 0.12297 0.35446 0.50214 0.0
O611 O 0.13047 0.34485 0.53005 0.0
O612 O 0.19096 0.37343 0.4868 0.0
O613 O 0.21602 0.42165 0.49964 0.0
O614 O 0.16685 0.42573 0.51617 0.0
O615 O 0.2234 0.46785 0.52252 0.0
C616 C 0.30921 0.4945 0.52391 0.0
O617 O 0.28586 0.48442 0.53665 0.0
O618 O 0.29872 0.47207 0.51056 0.0
C619 C 0.21501 0.39755 0.55075 0.0
Tb620 Tb 0.52765 0.81512 0.5316 0.0
C621 C 0.60593 0.86933 0.53488 0.0
Tb622 Tb 0.5815 0.79109 0.52777 0.0
O623 O 0.53481 0.82346 0.56121 0.0
O624 O 0.54662 0.78935 0.54813 0.0
O625 O 0.57533 0.86381 0.52933 0.0
C626 C 0.62617 0.76973 0.53484 0.0
O627 O 0.61306 0.84417 0.53744 0.0
C628 C 0.55971 0.80595 0.49703 0.0
C629 C 0.50316 0.73573 0.52511 0.0
O630 O 0.62751 0.78809 0.52057 0.0
O631 O 0.60016 0.76402 0.54503 0.0
O632 O 0.57037 0.78379 0.49752 0.0
O633 O 0.56471 0.81977 0.51257 0.0
O634 O 0.53503 0.74145 0.5262 0.0
O635 O 0.495 0.7603 0.52643 0.0
C636 C 0.47831 0.82892 0.52249 0.0
O637 O 0.48949 0.81303 0.51209 0.0
O638 O 0.49514 0.83731 0.53803 0.0
C639 C 0.54995 0.80536 0.56313 0.0
Tb640 Tb 0.16553 0.72421 0.52723 0.0
C641 C 0.1024 0.73588 0.52721 0.0
Tb642 Tb 0.17615 0.79599 0.51911 0.0
O643 O 0.14876 0.72462 0.55547 0.0
O644 O 0.18254 0.77069 0.54236 0.0
O645 O 0.11326 0.71402 0.52318 0.0
C646 C 0.19709 0.86279 0.51803 0.0
O647 O 0.12354 0.76939 0.52902 0.0
C648 C 0.1548 0.7526 0.49129 0.0
C649 C 0.24061 0.78497 0.51999 0.0
O650 O 0.20469 0.84622 0.50597 0.0
O651 O 0.17694 0.84152 0.53054 0.0
O652 O 0.14704 0.77669 0.49305 0.0
O653 O 0.17534 0.75568 0.50385 0.0
O654 O 0.22944 0.80732 0.52101 0.0
O655 O 0.21989 0.75125 0.5207 0.0
C656 C 0.1612 0.66307 0.52645 0.0
O657 O 0.17893 0.68736 0.53826 0.0
O658 O 0.14586 0.67321 0.51487 0.0
C659 C 0.16434 0.75781 0.55662 0.0
Tb660 Tb 0.10202 0.59854 0.35741 0.0
C661 C 0.0256 0.57912 0.36388 0.0
Tb662 Tb 0.04861 0.5245 0.36793 0.0
O663 O 0.07687 0.59591 0.33107 0.0
O664 O 0.07213 0.55131 0.34324 0.0
O665 O 0.05815 0.60355 0.36576 0.0
C666 C 0.00914 0.45716 0.37226 0.0
O667 O 0.01602 0.54624 0.36152 0.0
C668 C 0.07212 0.56867 0.39515 0.0
C669 C 0.12495 0.54247 0.35822 0.0
O670 O 0.03422 0.4773 0.38304 0.0
O671 O 0.00608 0.47492 0.35893 0.0
O672 O 0.04118 0.54276 0.39467 0.0
O673 O 0.08863 0.56753 0.38137 0.0
O674 O 0.09309 0.51836 0.36229 0.0
O675 O 0.13433 0.57534 0.35609 0.0
C676 C 0.15541 0.66191 0.35928 0.0
O677 O 0.14585 0.64276 0.34456 0.0
O678 O 0.13469 0.64554 0.37283 0.0
C679 C 0.06135 0.56257 0.33038 0.0
Tb680 Tb 0.37932 0.49857 0.3519 0.0
C681 C 0.39388 0.43775 0.35762 0.0
Tb682 Tb 0.44975 0.51319 0.36527 0.0
O683 O 0.38393 0.47832 0.32541 0.0
O684 O 0.42798 0.51481 0.33941 0.0
O685 O 0.37031 0.44735 0.35847 0.0
C686 C 0.51573 0.53616 0.37191 0.0
O687 O 0.42727 0.45986 0.35731 0.0
C688 C 0.40172 0.49151 0.39051 0.0
C689 C 0.43784 0.57571 0.35712 0.0
O690 O 0.49528 0.54127 0.38236 0.0
O691 O 0.499 0.51787 0.35763 0.0
O692 O 0.42648 0.48462 0.39076 0.0
O693 O 0.40604 0.51152 0.3773 0.0
O694 O 0.46023 0.56567 0.36126 0.0
O695 O 0.40498 0.55406 0.35377 0.0
C696 C 0.31792 0.4936 0.34952 0.0
O697 O 0.34274 0.50913 0.3377 0.0
O698 O 0.32749 0.48038 0.36267 0.0
C699 C 0.4172 0.49404 0.32594 0.0
Tb700 Tb 0.47207 0.86814 0.35668 0.0
C701 C 0.53326 0.94508 0.36046 0.0
Tb702 Tb 0.45813 0.92763 0.36988 0.0
O703 O 0.47349 0.87872 0.32658 0.0
O704 O 0.46304 0.9055 0.3457 0.0
O705 O 0.52375 0.91176 0.36052 0.0
C706 C 0.43479 0.97142 0.3724 0.0
O707 O 0.51154 0.95703 0.36175 0.0
C708 C 0.47872 0.89979 0.39509 0.0
C709 C 0.39626 0.85157 0.36462 0.0
O710 O 0.43587 0.95294 0.38596 0.0
O711 O 0.44737 0.96565 0.35754 0.0
O712 O 0.48425 0.9311 0.39603 0.0
O713 O 0.45957 0.88479 0.38145 0.0
O714 O 0.4063 0.8848 0.36542 0.0
O715 O 0.41777 0.8394 0.3637 0.0
C716 C 0.48056 0.81404 0.35394 0.0
O717 O 0.45985 0.81973 0.34401 0.0
O718 O 0.4968 0.83897 0.36574 0.0
C719 C 0.46684 0.90349 0.32868 0.0
H720 H 0.0646 0.12003 0.18555 0.0
H721 H 0.17451 0.03797 0.22182 0.0
H722 H 0.15828 0.18047 0.21631 0.0
H723 H 0.10502 -0.0014 0.17539 0.0
H724 H 0.16827 0.08944 0.22179 0.0
H725 H 0.07753 0.07364 0.18371 0.0
C726 C 0.08795 0.12355 0.19195 0.0
C727 C 0.11033 0.15411 0.20118 0.0
C728 C 0.15474 0.06964 0.21151 0.0
C729 C 0.1253 0.10084 0.19914 0.0
C730 C 0.15826 0.04037 0.21154 0.0
C731 C 0.14009 0.01408 0.19865 0.0
C732 C 0.13257 0.07214 0.19867 0.0
C733 C 0.11936 0.01825 0.18561 0.0
C734 C 0.09543 0.09708 0.19079 0.0
C735 C 0.14038 0.1573 0.20904 0.0
N736 N 0.11592 0.04655 0.18607 0.0
N737 N 0.14688 0.13078 0.208 0.0
H738 H 0.93138 0.12917 0.22888 0.0
H739 H 0.85965 0.93625 0.20415 0.0
H740 H 0.95886 0.09661 0.17861 0.0
H741 H 0.78402 0.96566 0.21728 0.0
H742 H 0.90369 -0.00337 0.2038 0.0
H743 H 0.88209 0.0703 0.23252 0.0
C744 C 0.92676 0.10985 0.21855 0.0
C745 C 0.94913 0.11749 0.20348 0.0
C746 C 0.87745 -0.01028 0.20694 0.0
C747 C 0.8944 0.05114 0.20784 0.0
C748 C 0.85232 0.95534 0.20721 0.0
C749 C 0.81804 0.94597 0.21052 0.0
C750 C 0.86844 0.01492 0.21029 0.0
C751 C 0.81015 0.97194 0.21443 0.0
C752 C 0.89888 0.07653 0.22065 0.0
C753 C 0.94233 0.09174 0.19048 0.0
N754 N 0.83529 0.00552 0.21419 0.0
N755 N 0.91589 0.05957 0.19312 0.0
H756 H 0.03488 0.89945 0.23061 0.0
H757 H 0.84851 0.78689 0.19034 0.0
H758 H 0.00463 0.80402 0.20219 0.0
H759 H 0.86985 0.85433 0.2371 0.0
H760 H 0.90542 0.79266 0.19388 0.0
H761 H 0.97464 0.8841 0.23253 0.0
C762 C 0.01552 0.87516 0.22486 0.0
C763 C 0.02472 0.85307 0.2161 0.0
C764 C 0.89741 0.80575 0.20353 0.0
C765 C 0.95586 0.83553 0.2181 0.0
C766 C 0.86503 0.80249 0.2015 0.0
C767 C 0.85475 0.82038 0.21337 0.0
C768 C 0.91975 0.82757 0.21727 0.0
C769 C 0.87696 0.84023 0.22762 0.0
C770 C 0.98115 0.86634 0.22606 0.0
C771 C -0.00141 0.82179 0.20905 0.0
N772 N 0.90868 0.84375 0.22901 0.0
N773 N 0.96531 0.81414 0.20995 0.0
H774 H 0.18502 0.16216 0.38821 0.0
H775 H 0.02205 0.15241 0.33905 0.0
H776 H 0.12709 0.08564 0.34684 0.0
H777 H 0.03449 0.16249 0.39838 0.0
H778 H 0.07347 0.14639 0.33716 0.0
H779 H 0.14166 0.18047 0.38748 0.0
C780 C 0.16345 0.14963 0.37881 0.0
C781 C 0.15925 0.1222 0.3677 0.0
C782 C 0.06516 0.15056 0.35051 0.0
C783 C 0.11068 0.14348 0.36644 0.0
C784 C 0.0361 0.15416 0.3516 0.0
C785 C 0.02414 0.15769 0.36891 0.0
C786 C 0.08266 0.15148 0.3668 0.0
C787 C 0.04294 0.15956 0.3848 0.0
C788 C 0.13886 0.15999 0.37843 0.0
C789 C 0.13091 0.10664 0.35576 0.0
N790 N 0.0714 0.15644 0.38339 0.0
N791 N 0.10769 0.1176 0.35538 0.0
H792 H 0.84615 0.87563 0.40413 0.0
H793 H 0.80708 0.01276 0.35657 0.0
H794 H 0.78571 0.85123 0.35415 0.0
H795 H 0.89792 0.0379 0.38845 0.0
H796 H 0.78854 0.95139 0.36013 0.0
H797 H 0.85333 0.93302 0.4037 0.0
C798 C 0.83399 0.88227 0.39317 0.0
C799 C 0.81572 0.85898 0.379 0.0
C800 C 0.8124 0.97049 0.36637 0.0
C801 C 0.82407 0.92466 0.37836 0.0
C802 C 0.82294 0.00535 0.36441 0.0
C803 C 0.8542 0.03031 0.37212 0.0
C804 C 0.83296 0.96084 0.37645 0.0
C805 C 0.87385 0.0195 0.3821 0.0
C806 C 0.83821 0.91504 0.39291 0.0
C807 C 0.80016 0.86869 0.36525 0.0
N808 N 0.86285 0.98558 0.38402 0.0
N809 N 0.80498 0.90115 0.36514 0.0
H810 H 0.95895 0.7863 0.35783 0.0
H811 H 0.08501 0.97145 0.39754 0.0
H812 H 0.92862 0.86005 0.37402 0.0
H813 H 0.12162 0.92937 0.35542 0.0
H814 H 0.0279 0.92212 0.39433 0.0
H815 H 0.01947 0.83164 0.36081 0.0
C816 C 0.96492 0.8119 0.36189 0.0
C817 C 0.93866 0.81933 0.36579 0.0
C818 C 0.04843 0.92352 0.38583 0.0
C819 C 0.00708 0.87043 0.36947 0.0
C820 C 0.08105 0.95156 0.38772 0.0
C821 C 0.10782 0.95451 0.37657 0.0
C822 C 0.04245 0.8981 0.37276 0.0
C823 C 0.10139 0.9279 0.36418 0.0
C824 C -0.00068 0.83761 0.36354 0.0
C825 C 0.94781 0.85293 0.37092 0.0
N826 N 0.06905 0.9006 0.36249 0.0
N827 N 0.98119 0.87706 0.37277 0.0
H828 H 0.80629 0.79407 0.87242 0.0
H829 H 0.82487 0.96137 0.82449 0.0
H830 H 0.8906 0.85571 0.83571 0.0
H831 H 0.80401 0.94455 0.88303 0.0
H832 H 0.83326 0.9113 0.8235 0.0
H833 H 0.78991 0.8389 0.87168 0.0
C834 C 0.82108 0.81687 0.86408 0.0
C835 C 0.84994 0.8215 0.85422 0.0
C836 C 0.82637 0.91841 0.83647 0.0
C837 C 0.83091 0.87184 0.85293 0.0
C838 C 0.8214 0.9467 0.83703 0.0
C839 C 0.81391 0.95697 0.8539 0.0
C840 C 0.82287 0.8999 0.85276 0.0
C841 C 0.80992 0.93738 0.8698 0.0
C842 C 0.81181 0.84231 0.86371 0.0
C843 C 0.86838 0.85144 0.84365 0.0
N844 N 0.81436 0.90959 0.86886 0.0
N845 N 0.8584 0.87544 0.84316 0.0
H846 H 0.18165 0.01125 0.84191 0.0
H847 H 0.00699 0.87573 0.8904 0.0
H848 H 0.12059 0.03644 0.8778 0.0
H849 H 0.03593 0.85398 0.83729 0.0
H850 H 0.05961 0.93095 0.8909 0.0
H851 H 0.13767 0.95003 0.84443 0.0
C852 C 0.15918 0.00383 0.85042 0.0
C853 C 0.15437 0.0287 0.85954 0.0
C854 C 0.05466 0.914 0.8792 0.0
C855 C 0.10511 0.95965 0.86274 0.0
C856 C 0.02471 0.88252 0.87891 0.0
C857 C 0.01704 0.86079 0.86361 0.0
C858 C 0.077 0.92395 0.86403 0.0
C859 C 0.04102 0.87041 0.84923 0.0
C860 C 0.13425 0.96913 0.8518 0.0
C861 C 0.125 0.01806 0.87036 0.0
N862 N 0.07 0.90177 0.84964 0.0
N863 N 0.10153 0.98431 0.87169 0.0
H864 H 0.9259 0.07431 0.87615 0.0
H865 H 0.11572 0.17812 0.83745 0.0
H866 H 0.95864 0.16413 0.84184 0.0
H867 H 0.08777 0.11504 0.88657 0.0
H868 H 0.05843 0.17259 0.83736 0.0
H869 H -0.01479 0.08749 0.87864 0.0
C870 C 0.94565 0.09692 0.86918 0.0
C871 C 0.93739 0.1181 0.85871 0.0
C872 C 0.0651 0.16034 0.84824 0.0
C873 C 0.00539 0.13322 0.8614 0.0
C874 C 0.09763 0.16342 0.84828 0.0
C875 C 0.1062 0.14683 0.86198 0.0
C876 C 0.04115 0.14016 0.86186 0.0
C877 C 0.08205 0.1281 0.87571 0.0
C878 C 0.97954 0.10453 0.87068 0.0
C879 C 0.96403 0.14721 0.85009 0.0
N880 N 0.05051 0.125 0.8752 0.0
N881 N -0.00306 0.15376 0.85144 0.0
H882 H 0.78692 0.80934 0.67487 0.0
H883 H 0.96222 0.8432 0.72096 0.0
H884 H 0.84812 0.89348 0.71182 0.0
H885 H 0.93443 0.80211 0.66563 0.0
H886 H 0.90988 0.84675 0.72265 0.0
H887 H 0.83157 0.79265 0.67597 0.0
C888 C 0.8095 0.82393 0.68338 0.0
C889 C 0.81423 0.85295 0.69315 0.0
C890 C 0.91507 0.83662 0.71021 0.0
C891 C 0.86433 0.83382 0.69473 0.0
C892 C 0.94485 0.83456 0.70923 0.0
C893 C 0.95276 0.8229 0.69301 0.0
C894 C 0.89296 0.82672 0.69491 0.0
C895 C 0.92926 0.81162 0.6783 0.0
C896 C 0.83485 0.81452 0.68393 0.0
C897 C 0.84381 0.87118 0.70392 0.0
N898 N 0.90033 0.81405 0.67952 0.0
N899 N 0.86772 0.86125 0.70446 0.0
H900 H 0.1266 0.10848 0.71941 0.0
H901 H 0.16761 0.96497 0.68443 0.0
H902 H 0.19119 0.12565 0.67181 0.0
H903 H 0.07003 0.94145 0.7079 0.0
H904 H 0.18519 0.02625 0.68493 0.0
H905 H 0.11522 0.04936 0.72112 0.0
C906 C 0.13884 0.09994 0.7095 0.0
C907 C 0.15966 0.12178 0.69535 0.0
C908 C 0.16 0.00758 0.68998 0.0
C909 C 0.14677 0.05437 0.69728 0.0
C910 C 0.14998 0.97273 0.68976 0.0
C911 C 0.11725 0.94819 0.69607 0.0
C912 C 0.13744 0.01787 0.69698 0.0
C913 C 0.09536 0.95954 0.70278 0.0
C914 C 0.13213 0.06619 0.71041 0.0
C915 C 0.17488 0.10946 0.68287 0.0
N916 N 0.10594 -0.00638 0.70318 0.0
N917 N 0.16807 0.07639 0.68408 0.0
H918 H 0.8554 0.04303 0.70734 0.0
H919 H 0.05011 0.11696 0.67825 0.0
H920 H 0.88826 -0.00144 0.66466 0.0
H921 H 0.01511 0.18263 0.70168 0.0
H922 H -0.00899 0.07022 0.67705 0.0
H923 H 0.91412 0.0924 0.70879 0.0
C924 C 0.87491 0.04384 0.69823 0.0
C925 C 0.86721 0.01687 0.68588 0.0
C926 C -0.00375 0.09488 0.68242 0.0
C927 C 0.93381 0.07233 0.68767 0.0
C928 C 0.03001 0.12155 0.68322 0.0
C929 C 0.03753 0.1538 0.69001 0.0
C930 C 0.96977 0.10029 0.68868 0.0
C931 C 0.01036 0.1582 0.69622 0.0
C932 C 0.90825 0.07187 0.69905 0.0
C933 C 0.89321 0.01888 0.67437 0.0
N934 N 0.97756 0.13163 0.69548 0.0
N935 N 0.92543 0.046 0.67565 0.0
H936 H 0.77107 0.33727 0.50402 0.0
H937 H 0.82456 0.52122 0.54633 0.0
H938 H 0.83632 0.37599 0.55217 0.0
H939 H 0.72878 0.45695 0.51815 0.0
H940 H 0.83851 0.47485 0.54369 0.0
H941 H 0.76534 0.38851 0.50388 0.0
C942 C 0.78449 0.35679 0.51446 0.0
C943 C 0.80395 0.35239 0.52823 0.0
C944 C 0.81459 0.47116 0.53803 0.0
C945 C 0.79755 0.41102 0.5281 0.0
C946 C 0.8067 0.49755 0.53943 0.0
C947 C 0.77539 0.49271 0.53254 0.0
C948 C 0.7913 0.44027 0.52931 0.0
C949 C 0.75304 0.46158 0.5238 0.0
C950 C 0.78111 0.38592 0.5144 0.0
C951 C 0.82091 0.37847 0.5414 0.0
N952 N 0.76148 0.43659 0.52239 0.0
N953 N 0.81725 0.4068 0.54106 0.0
H954 H 0.44676 0.30384 0.55822 0.0
H955 H 0.6191 0.43694 0.50672 0.0
H956 H 0.5064 0.2759 0.52288 0.0
H957 H 0.59253 0.46233 0.55951 0.0
H958 H 0.56791 0.38055 0.5082 0.0
H959 H 0.49159 0.36467 0.55514 0.0
C960 C 0.46912 0.31052 0.54976 0.0
C961 C 0.4731 0.2849 0.54088 0.0
C962 C 0.57307 0.39852 0.51941 0.0
C963 C 0.52351 0.35371 0.53707 0.0
C964 C 0.60219 0.43074 0.51855 0.0
C965 C 0.61014 0.45404 0.53312 0.0
C966 C 0.55162 0.38945 0.53495 0.0
C967 C 0.58722 0.44486 0.54804 0.0
C968 C 0.49458 0.34505 0.54807 0.0
C969 C 0.50247 0.29477 0.53012 0.0
N970 N 0.55893 0.41295 0.54868 0.0
N971 N 0.52642 0.32836 0.52846 0.0
H972 H 0.53118 0.19133 0.50926 0.0
H973 H 0.66646 0.14674 0.55458 0.0
H974 H 0.51036 0.13713 0.56128 0.0
H975 H 0.69271 0.2323 0.51789 0.0
H976 H 0.60615 0.1332 0.55378 0.0
H977 H 0.58745 0.19589 0.50848 0.0
C978 C 0.5384 0.18013 0.52047 0.0
C979 C 0.51634 0.16413 0.53544 0.0
C980 C 0.62525 0.15481 0.54589 0.0
C981 C 0.58078 0.16932 0.53466 0.0
C982 C 0.6595 0.16244 0.54628 0.0
C983 C 0.68456 0.19082 0.53639 0.0
C984 C 0.6162 0.1753 0.53523 0.0
C985 C 0.6743 0.21042 0.52589 0.0
C986 C 0.57056 0.18283 0.52004 0.0
C987 C 0.52686 0.14985 0.54954 0.0
N988 N 0.64097 0.20224 0.52555 0.0
N989 N 0.55856 0.15291 0.54887 0.0
H990 H 0.84846 0.49403 0.69017 0.0
H991 H 0.67225 0.44979 0.73981 0.0
H992 H 0.7887 0.40376 0.72367 0.0
H993 H 0.70794 0.51311 0.69082 0.0
H994 H 0.72202 0.44165 0.73822 0.0
H995 H 0.8035 0.50952 0.69405 0.0
C996 C 0.82602 0.47759 0.69839 0.0
C997 C 0.82217 0.44741 0.70649 0.0
C998 C 0.71912 0.45754 0.72789 0.0
C999 C 0.77122 0.46521 0.71117 0.0
C1000 C 0.69084 0.46233 0.72884 0.0
C1001 C 0.68597 0.48196 0.71535 0.0
C1002 C 0.74286 0.47269 0.71341 0.0
C1003 C 0.71081 0.49768 0.70144 0.0
C1004 C 0.80042 0.4864 0.70055 0.0
C1005 C 0.7926 0.42704 0.717 0.0
N1006 N 0.73824 0.49261 0.70077 0.0
N1007 N 0.76836 0.43636 0.71907 0.0
H1008 H 0.53419 0.21241 0.67711 0.0
H1009 H 0.47444 0.34334 0.71116 0.0
H1010 H 0.45636 0.18456 0.71903 0.0
H1011 H 0.57538 0.37465 0.68964 0.0
H1012 H 0.46047 0.28314 0.70914 0.0
H1013 H 0.54185 0.27013 0.67614 0.0
C1014 C 0.51845 0.21839 0.68599 0.0
C1015 C 0.49485 0.19392 0.69831 0.0
C1016 C 0.48558 0.30328 0.70482 0.0
C1017 C 0.50349 0.25983 0.69725 0.0
C1018 C 0.49355 0.33754 0.70589 0.0
C1019 C 0.52619 0.36398 0.70064 0.0
C1020 C 0.51023 0.29554 0.69811 0.0
C1021 C 0.55002 0.35509 0.69398 0.0
C1022 C 0.52295 0.25135 0.68547 0.0
C1023 C 0.47496 0.20289 0.70942 0.0
N1024 N 0.54152 0.32162 0.69285 0.0
N1025 N 0.47981 0.23531 0.70869 0.0
H1026 H 0.78805 0.26475 0.68102 0.0
H1027 H 0.60466 0.1728 0.72842 0.0
H1028 H 0.76789 0.28927 0.73568 0.0
H1029 H 0.62879 0.12398 0.68407 0.0
H1030 H 0.66492 0.21641 0.73045 0.0
H1031 H 0.73063 0.21315 0.68099 0.0
C1032 C 0.77175 0.25898 0.69308 0.0
C1033 C 0.78246 0.28132 0.70831 0.0
C1034 C 0.65722 0.19604 0.72036 0.0
C1035 C 0.71719 0.2231 0.7083 0.0
C1036 C 0.62274 0.1712 0.71914 0.0
C1037 C 0.61171 0.14487 0.70599 0.0
C1038 C 0.68096 0.19504 0.70812 0.0
C1039 C 0.63633 0.14388 0.69443 0.0
C1040 C 0.73909 0.22964 0.69306 0.0
C1041 C 0.7605 0.27286 0.72359 0.0
N1042 N 0.66987 0.16894 0.69559 0.0
N1043 N 0.72884 0.24467 0.72311 0.0
H1044 H 0.56358 0.18126 0.2119 0.0
H1045 H 0.46576 0.27083 0.16789 0.0
H1046 H 0.47808 0.12637 0.17468 0.0
H1047 H 0.53088 0.30809 0.21614 0.0
H1048 H 0.46926 0.21782 0.16922 0.0
H1049 H 0.55167 0.22831 0.21279 0.0
C1050 C 0.54213 0.17908 0.20394 0.0
C1051 C 0.52191 0.15001 0.19309 0.0
C1052 C 0.48244 0.23752 0.17959 0.0
C1053 C 0.50819 0.20415 0.19393 0.0
C1054 C 0.48053 0.26769 0.17881 0.0
C1055 C 0.4983 0.29382 0.19185 0.0
C1056 C 0.50248 0.23389 0.19341 0.0
C1057 C 0.517 0.28865 0.20575 0.0
C1058 C 0.53524 0.20595 0.20451 0.0
C1059 C 0.49423 0.14841 0.18323 0.0
N1060 N 0.51879 0.25943 0.20607 0.0
N1061 N 0.48837 0.17541 0.18369 0.0
H1062 H 0.84393 0.34577 0.17684 0.0
H1063 H 0.66456 0.21087 0.22067 0.0
H1064 H 0.77787 0.3748 0.20542 0.0
H1065 H 0.70344 0.18529 0.17224 0.0
H1066 H 0.71202 0.2698 0.2188 0.0
H1067 H 0.7978 0.28553 0.1779 0.0
C1068 C 0.81974 0.33952 0.18327 0.0
C1069 C 0.81474 0.36536 0.19107 0.0
C1070 C 0.71027 0.25129 0.20861 0.0
C1071 C 0.76241 0.29674 0.19258 0.0
C1072 C 0.68336 0.2176 0.20975 0.0
C1073 C 0.68014 0.19327 0.19657 0.0
C1074 C 0.73447 0.26069 0.19434 0.0
C1075 C 0.70512 0.20339 0.18266 0.0
C1076 C 0.79349 0.30522 0.18382 0.0
C1077 C 0.78286 0.35582 0.19917 0.0
N1078 N 0.73142 0.23646 0.18191 0.0
N1079 N 0.75807 0.32228 0.19987 0.0
H1080 H 0.77497 0.46494 0.16071 0.0
H1081 H 0.6318 0.50831 0.19431 0.0
H1082 H 0.78688 0.52187 0.21093 0.0
H1083 H 0.60894 0.41418 0.16658 0.0
H1084 H 0.693 0.52527 0.19433 0.0
H1085 H 0.71822 0.45878 0.15628 0.0
C1086 C 0.76584 0.47663 0.17064 0.0
C1087 C 0.78531 0.49357 0.18633 0.0
C1088 C 0.67449 0.5011 0.18811 0.0
C1089 C 0.72074 0.48678 0.18128 0.0
C1090 C 0.63974 0.49149 0.18802 0.0
C1091 C 0.61541 0.45969 0.18057 0.0
C1092 C 0.68481 0.4791 0.18027 0.0
C1093 C 0.62689 0.43874 0.17264 0.0
C1094 C 0.73347 0.47299 0.16814 0.0
C1095 C 0.77242 0.50838 0.19874 0.0
N1096 N 0.6608 0.44884 0.17266 0.0
N1097 N 0.74071 0.5045 0.196 0.0
H1098 H 0.58819 0.12326 1.00458 0.0
H1099 H 0.5088 0.22831 0.04895 0.0
H1100 H 0.62558 0.18111 0.05524 0.0
H1101 H 0.44863 0.14273 1.01267 0.0
H1102 H 0.55163 0.2104 0.05122 0.0
H1103 H 0.5362 0.12815 1.00699 0.0
C1104 C 0.58517 0.13649 1.01633 0.0
C1105 C 0.61128 0.15223 1.0296 0.0
C1106 C 0.52892 0.1952 0.04291 0.0
C1107 C 0.5525 0.15818 0.03234 0.0
C1108 C 0.50455 0.20553 0.04155 0.0
C1109 C 0.47537 0.18708 1.0305 0.0
C1110 C 0.52457 0.16661 0.0328 0.0
C1111 C 0.47088 0.15757 1.02134 0.0
C1112 C 0.55556 0.13923 1.01771 0.0
C1113 C 0.60621 0.16898 0.04459 0.0
N1114 N 0.49561 0.14851 1.02243 0.0
N1115 N 0.57764 0.17191 0.04542 0.0
H1116 H 0.73636 0.27142 1.00147 0.0
H1117 H 0.85491 0.45903 0.03977 0.0
H1118 H 0.82652 0.29673 0.03403 0.0
H1119 H 0.79395 0.43799 0.99019 0.0
H1120 H 0.84443 0.39983 0.0391 0.0
H1121 H 0.75563 0.33253 0.99853 0.0
C1122 C 0.76027 0.28987 1.00796 0.0
C1123 C 0.77981 0.27904 1.01807 0.0
C1124 C 0.83383 0.40844 1.02824 0.0
C1125 C 0.80187 0.34893 1.01487 0.0
C1126 C 0.83981 0.44211 1.02861 0.0
C1127 C 0.82508 0.45316 1.01508 0.0
C1128 C 0.81253 0.3858 1.01442 0.0
C1129 C 0.80564 0.43035 1.00093 0.0
C1130 C 0.77136 0.32473 1.00618 0.0
C1131 C 0.81074 0.30405 1.02607 0.0
N1132 N 0.79953 0.39759 1.00111 0.0
N1133 N 0.82065 0.33791 1.0245 0.0
H1134 H 0.52294 0.37699 0.04606 0.0
H1135 H 0.7148 0.45363 1.01078 0.0
H1136 H 0.55308 0.33569 1.00046 0.0
H1137 H 0.68311 0.51618 0.04098 0.0
H1138 H 0.6556 0.40758 1.00982 0.0
H1139 H 0.58167 0.42655 0.04704 0.0
C1140 C 0.54186 0.37851 0.03624 0.0
C1141 C 0.53344 0.35238 1.0232 0.0
C1142 C 0.6615 0.43141 1.0166 0.0
C1143 C 0.59988 0.40808 1.02434 0.0
C1144 C 0.69536 0.4577 1.01723 0.0
C1145 C 0.70388 0.48879 1.02597 0.0
C1146 C 0.63587 0.436 1.0249 0.0
C1147 C 0.67754 0.49261 0.03403 0.0
C1148 C 0.57517 0.40666 0.03678 0.0
C1149 C 0.55861 0.3553 1.01076 0.0
N1150 N 0.64456 0.46634 0.03339 0.0
N1151 N 0.59074 0.38253 1.01172 0.0
H1152 H 0.38342 0.78352 0.8642 0.0
H1153 H 0.50354 0.70832 0.89262 0.0
H1154 H 0.4851 0.85052 0.88582 0.0
H1155 H 0.42808 0.66675 0.84892 0.0
H1156 H 0.49455 0.75814 0.89453 0.0
H1157 H 0.3958 0.73673 0.86356 0.0
C1158 C 0.40834 0.78843 0.86892 0.0
C1159 C 0.43337 0.82113 0.87495 0.0
C1160 C 0.48026 0.73813 0.88447 0.0
C1161 C 0.44763 0.76739 0.87421 0.0
C1162 C 0.48535 0.70986 0.88337 0.0
C1163 C 0.46647 0.68356 0.87061 0.0
C1164 C 0.45571 0.73941 0.87296 0.0
C1165 C 0.44315 0.6865 0.85896 0.0
C1166 C 0.41543 0.76168 0.86844 0.0
C1167 C 0.46518 0.82576 0.88092 0.0
N1168 N 0.43821 0.71376 0.86053 0.0
N1169 N 0.47145 0.79907 0.88044 0.0
H1170 H 0.1868 0.60675 0.88916 0.0
H1171 H 0.25066 0.79566 0.85498 0.0
H1172 H 0.11567 0.63623 0.86743 0.0
H1173 H 0.29947 0.77416 0.90046 0.0
H1174 H 0.20205 0.7368 0.85726 0.0
H1175 H 0.23066 0.66757 0.89117 0.0
C1176 C 0.18041 0.62602 0.88487 0.0
C1177 C 0.14763 0.6165 0.87809 0.0
C1178 C 0.22323 0.74521 0.86688 0.0
C1179 C 0.1976 0.68582 0.88015 0.0
C1180 C 0.25086 0.77869 0.86559 0.0
C1181 C 0.279 0.78957 0.87751 0.0
C1182 C 0.22432 0.72246 0.87989 0.0
C1183 C 0.27819 0.76668 0.891 0.0
C1184 C 0.20533 0.66065 0.88612 0.0
C1185 C 0.14061 0.6425 0.87281 0.0
N1186 N 0.25152 0.73397 0.89164 0.0
N1187 N 0.16555 0.67601 0.87372 0.0
H1188 H 0.33454 0.47142 0.86795 0.0
H1189 H 0.19737 0.52179 0.90339 0.0
H1190 H 0.36185 0.56862 0.89345 0.0
H1191 H 0.17965 0.45931 0.85476 0.0
H1192 H 0.25399 0.5271 0.90678 0.0
H1193 H 0.27373 0.45553 0.86964 0.0
C1194 C 0.32768 0.48917 0.8741 0.0
C1195 C 0.35309 0.52149 0.8804 0.0
C1196 C 0.23748 0.51187 0.89552 0.0
C1197 C 0.2842 0.50332 0.88266 0.0
C1198 C 0.20521 0.50871 0.89361 0.0
C1199 C 0.18418 0.49046 0.87863 0.0
C1200 C 0.24849 0.49626 0.8825 0.0
C1201 C 0.19539 0.47388 0.86639 0.0
C1202 C 0.29314 0.48015 0.875 0.0
C1203 C 0.343 0.54364 0.88822 0.0
N1204 N 0.227 0.47732 0.86852 0.0
N1205 N 0.30929 0.53412 0.88917 0.0
H1206 H 0.52508 0.83479 1.02308 0.0
H1207 H 0.35243 0.80168 0.0718 0.0
H1208 H 0.45979 0.74552 0.05608 0.0
H1209 H 0.38382 0.8558 1.01969 0.0
H1210 H 0.40175 0.79311 0.0708 0.0
H1211 H 0.48207 0.85341 1.02571 0.0
C1212 C 0.50186 0.81928 1.03095 0.0
C1213 C 0.4958 0.78849 0.03931 0.0
C1214 C 0.39806 0.80712 0.05964 0.0
C1215 C 0.44737 0.80984 0.04259 0.0
C1216 C 0.37001 0.81216 0.06023 0.0
C1217 C 0.36391 0.82911 0.04569 0.0
C1218 C 0.42035 0.81921 0.04444 0.0
C1219 C 0.38767 0.84244 1.03112 0.0
C1220 C 0.47742 0.82985 0.03237 0.0
C1221 C 0.46535 0.76926 0.04928 0.0
N1222 N 0.41492 0.83698 1.03076 0.0
N1223 N 0.4424 0.78035 0.05072 0.0
H1224 H 0.24302 0.7135 0.0557 0.0
H1225 H 0.12469 0.52431 1.01933 0.0
H1226 H 0.15205 0.68791 1.02379 0.0
H1227 H 0.18378 0.54845 0.06981 0.0
H1228 H 0.13561 0.58381 1.01837 0.0
H1229 H 0.22458 0.65262 0.05805 0.0
C1230 C 0.21923 0.69506 0.04911 0.0
C1231 C 0.19904 0.70572 0.03953 0.0
C1232 C 0.14565 0.57574 1.02976 0.0
C1233 C 0.17778 0.63603 0.04218 0.0
C1234 C 0.13936 0.54193 1.03034 0.0
C1235 C 0.15361 0.53177 0.04459 0.0
C1236 C 0.16669 0.59919 0.04336 0.0
C1237 C 0.17258 0.55541 0.0585 0.0
C1238 C 0.20857 0.66032 0.05059 0.0
C1239 C 0.16828 0.68067 0.03137 0.0
N1240 N 0.17895 0.58815 0.0574 0.0
N1241 N 0.15864 0.64685 0.03275 0.0
H1242 H 0.26672 0.52543 0.05284 0.0
H1243 H 0.45575 0.6036 1.01497 0.0
H1244 H 0.29473 0.46389 1.01905 0.0
H1245 H 0.43076 0.63497 0.06639 0.0
H1246 H 0.39703 0.55415 1.01383 0.0
H1247 H 0.3269 0.569 0.05519 0.0
C1248 C 0.28557 0.52113 0.04585 0.0
C1249 C 0.27575 0.49108 0.03567 0.0
C1250 C 0.4047 0.5717 1.02544 0.0
C1251 C 0.3448 0.54097 0.03833 0.0
C1252 C 0.43803 0.5998 1.02609 0.0
C1253 C 0.44781 0.62333 0.04073 0.0
C1254 C 0.38124 0.56777 0.03937 0.0
C1255 C 0.42412 0.61748 0.05481 0.0
C1256 C 0.31996 0.54591 0.04732 0.0
C1257 C 0.30134 0.48674 1.02706 0.0
N1258 N 0.3918 0.5905 0.05367 0.0
N1259 N 0.33485 0.51166 1.02843 0.0
H1260 H 0.22003 0.5121 0.54303 0.0
H1261 H 0.12876 0.61023 0.50147 0.0
H1262 H 0.13945 0.46435 0.5023 0.0
H1263 H 0.191 0.64045 0.5509 0.0
H1264 H 0.13094 0.55648 0.50089 0.0
H1265 H 0.2086 0.55922 0.54559 0.0
C1266 C 0.19976 0.51154 0.53463 0.0
C1267 C 0.18086 0.4845 0.5223 0.0
C1268 C 0.14377 0.57478 0.51194 0.0
C1269 C 0.16765 0.5388 0.52507 0.0
C1270 C 0.14261 0.60538 0.51225 0.0
C1271 C 0.15999 0.62977 0.52617 0.0
C1272 C 0.16261 0.56896 0.5256 0.0
C1273 C 0.17749 0.62243 0.53984 0.0
C1274 C 0.19312 0.53844 0.53615 0.0
C1275 C 0.15458 0.48483 0.51196 0.0
N1276 N 0.17852 0.59283 0.53913 0.0
N1277 N 0.14897 0.51194 0.51339 0.0
H1278 H 0.43613 0.71087 0.5341 0.0
H1279 H 0.36407 0.51974 0.49998 0.0
H1280 H 0.50585 0.67932 0.51267 0.0
H1281 H 0.32391 0.54671 0.54737 0.0
H1282 H 0.41302 0.57902 0.49934 0.0
H1283 H 0.39001 0.65131 0.53318 0.0
C1284 C 0.44171 0.69146 0.52906 0.0
C1285 C 0.47492 0.69999 0.52357 0.0
C1286 C 0.39349 0.57164 0.5099 0.0
C1287 C 0.42219 0.63187 0.52243 0.0
C1288 C 0.36574 0.53804 0.51028 0.0
C1289 C 0.34013 0.52855 0.52376 0.0
C1290 C 0.39483 0.59566 0.52282 0.0
C1291 C 0.34319 0.55302 0.53678 0.0
C1292 C 0.41542 0.65748 0.52865 0.0
C1293 C 0.48063 0.67369 0.51719 0.0
N1294 N 0.36984 0.58556 0.53586 0.0
N1295 N 0.45439 0.64065 0.51672 0.0
H1296 H 0.43452 0.80113 0.49343 0.0
H1297 H 0.29475 0.84549 0.53251 0.0
H1298 H 0.45141 0.86099 0.54305 0.0
H1299 H 0.27033 0.7533 0.50219 0.0
H1300 H 0.35603 0.86314 0.53041 0.0
H1301 H 0.37805 0.79618 0.4901 0.0
C1302 C 0.42656 0.81376 0.50343 0.0
C1303 C 0.44729 0.83107 0.51868 0.0
C1304 C 0.33714 0.83925 0.52409 0.0
C1305 C 0.383 0.82554 0.51496 0.0
C1306 C 0.30233 0.82924 0.52524 0.0
C1307 C 0.27758 0.79771 0.51773 0.0
C1308 C 0.34703 0.81791 0.51499 0.0
C1309 C 0.28862 0.77756 0.50842 0.0
C1310 C 0.39435 0.81081 0.50157 0.0
C1311 C 0.43592 0.84713 0.5312 0.0
N1312 N 0.32253 0.78799 0.50732 0.0
N1313 N 0.40429 0.84375 0.52916 0.0
H1314 H 0.18516 0.57735 0.33933 0.0
H1315 H 0.26321 0.4626 0.37323 0.0
H1316 H 0.12493 0.48488 0.37115 0.0
H1317 H 0.30074 0.529 0.32545 0.0
H1318 H 0.2134 0.47132 0.37422 0.0
H1319 H 0.22959 0.56178 0.33583 0.0
C1320 C 0.18126 0.55373 0.34559 0.0
C1321 C 0.15135 0.53244 0.35561 0.0
C1322 C 0.23237 0.4836 0.36341 0.0
C1323 C 0.20229 0.51453 0.35171 0.0
C1324 C 0.26071 0.47865 0.36284 0.0
C1325 C 0.28604 0.49524 0.34928 0.0
C1326 C 0.22986 0.5057 0.3505 0.0
C1327 C 0.28177 0.51582 0.33616 0.0
C1328 C 0.20657 0.54475 0.34348 0.0
C1329 C 0.1476 0.50198 0.36328 0.0
N1330 N 0.25442 0.52078 0.33722 0.0
N1331 N 0.17299 0.49407 0.36133 0.0
H1332 H 0.49361 0.62964 0.3739 0.0
H1333 H 0.45417 0.76707 0.3267 0.0
H1334 H 0.40912 0.60564 0.33686 0.0
H1335 H 0.51056 0.78908 0.37802 0.0
H1336 H 0.44946 0.71078 0.32599 0.0
H1337 H 0.51052 0.69085 0.37183 0.0
C1338 C 0.47884 0.63728 0.36525 0.0
C1339 C 0.44976 0.61264 0.35566 0.0
C1340 C 0.4631 0.72794 0.33737 0.0
C1341 C 0.46914 0.68193 0.35304 0.0
C1342 C 0.46588 0.7601 0.33776 0.0
C1343 C 0.48234 0.78239 0.35258 0.0
C1344 C 0.47671 0.71784 0.35197 0.0
C1345 C 0.49747 0.77235 0.36642 0.0
C1346 C 0.48843 0.67204 0.36413 0.0
C1347 C 0.43145 0.62372 0.34467 0.0
N1348 N 0.49397 0.74043 0.36591 0.0
N1349 N 0.44149 0.65752 0.34365 0.0
H1350 H 0.19158 0.68918 0.3909 0.0
H1351 H 0.3452 0.85643 0.34701 0.0
H1352 H 0.1934 0.70713 0.33207 0.0
H1353 H 0.36377 0.79069 0.38305 0.0
H1354 H 0.28382 0.81283 0.34642 0.0
H1355 H 0.24986 0.73866 0.39334 0.0
C1356 C 0.20401 0.70401 0.37858 0.0
C1357 C 0.188 0.69419 0.36123 0.0
C1358 C 0.30145 0.8083 0.35456 0.0
C1359 C 0.25377 0.75058 0.36402 0.0
C1360 C 0.33622 0.83301 0.35496 0.0
C1361 C 0.35932 0.82683 0.365 0.0
C1362 C 0.28984 0.77795 0.36478 0.0
C1363 C 0.34667 0.79614 0.37502 0.0
C1364 C 0.23715 0.73195 0.37999 0.0
C1365 C 0.20514 0.71395 0.34566 0.0
N1366 N 0.31261 0.77284 0.37478 0.0
N1367 N 0.23725 0.74142 0.34741 0.0
H1368 H 0.22152 0.29452 0.17192 0.0
H1369 H 0.40922 0.42893 0.20661 0.0
H1370 H 0.23915 0.34621 0.22454 0.0
H1371 H 0.38777 0.34304 0.17124 0.0
H1372 H 0.34743 0.40695 0.20967 0.0
H1373 H 0.28344 0.32102 0.16757 0.0
C1374 C 0.2385 0.31175 0.18247 0.0
C1375 C 0.22544 0.31814 0.19866 0.0
C1376 C 0.35636 0.39304 0.20124 0.0
C1377 C 0.29596 0.34844 0.19375 0.0
C1378 C 0.39147 0.40557 0.19941 0.0
C1379 C 0.4034 0.38762 0.18869 0.0
C1380 C 0.33325 0.36281 0.19198 0.0
C1381 C 0.3795 0.35742 0.17975 0.0
C1382 C 0.27373 0.32668 0.18002 0.0
C1383 C 0.2484 0.34063 0.21191 0.0
N1384 N 0.34546 0.34601 0.18151 0.0
N1385 N 0.28275 0.35508 0.20917 0.0
H1386 H 0.54181 0.96221 0.17321 0.0
H1387 H 0.65012 0.89901 0.22967 0.0
H1388 H 0.62603 0.03073 0.20826 0.0
H1389 H 0.6344 0.87597 0.17127 0.0
H1390 H 0.62435 0.9356 0.22633 0.0
H1391 H 0.56048 0.91919 0.17622 0.0
C1392 C 0.56413 0.96808 0.18153 0.0
C1393 C 0.58266 -3e-05 0.19041 0.0
C1394 C 0.62612 0.92207 0.21434 0.0
C1395 C 0.60311 0.95105 0.19434 0.0
C1396 C 0.64055 0.90106 0.21623 0.0
C1397 C 0.6445 0.8847 0.20068 0.0
C1398 C 0.61488 0.92605 0.19689 0.0
C1399 C 0.63185 0.88834 0.18355 0.0
C1400 C 0.57471 0.9437 0.1832 0.0
C1401 C 0.61136 0.00654 0.20105 0.0
N1402 N 0.61751 0.90874 0.18207 0.0
N1403 N 0.62051 0.98209 0.20291 0.0
H1404 H 0.06733 0.74078 0.24412 0.0
H1405 H 0.01377 0.56636 0.19058 0.0
H1406 H 0.11051 0.74125 0.1907 0.0
H1407 H 0.94183 0.58509 0.22068 0.0
H1408 H 0.05868 0.62615 0.19645 0.0
H1409 H 0.03109 0.67831 0.24199 0.0
C1410 C 0.06979 0.72762 0.23216 0.0
C1411 C 0.09161 0.74605 0.21747 0.0
C1412 C 0.03308 0.61691 0.20184 0.0
C1413 C 0.0505 0.67499 0.21503 0.0
C1414 C 0.00757 0.58299 0.19853 0.0
C1415 C 0.97409 0.57111 0.205 0.0
C1416 C 0.02511 0.63849 0.21212 0.0
C1417 C 0.96725 0.5935 0.21525 0.0
C1418 C 0.04898 0.69211 0.23092 0.0
C1419 C 0.09379 0.72783 0.20225 0.0
N1420 N -0.00739 0.62613 0.21858 0.0
N1421 N 0.07325 0.69315 0.20134 0.0
H1422 H 0.35414 0.23312 0.38076 0.0
H1423 H 0.33345 0.38665 0.34414 0.0
H1424 H 0.29312 0.22427 0.33267 0.0
H1425 H 0.4287 0.4057 0.36906 0.0
H1426 H 0.315 0.32551 0.34271 0.0
H1427 H 0.38031 0.29593 0.37911 0.0
C1428 C 0.34671 0.24446 0.36972 0.0
C1429 C 0.32135 0.22377 0.35692 0.0
C1430 C 0.34002 0.34315 0.34839 0.0
C1431 C 0.35028 0.29465 0.35521 0.0
C1432 C 0.3504 0.37788 0.34935 0.0
C1433 C 0.38253 0.40102 0.35676 0.0
C1434 C 0.36167 0.33151 0.35523 0.0
C1435 C 0.40373 0.38852 0.36319 0.0
C1436 C 0.36156 0.28011 0.36879 0.0
C1437 C 0.31247 0.23944 0.34287 0.0
N1438 N 0.39276 0.35439 0.36246 0.0
N1439 N 0.32655 0.274 0.34255 0.0
H1440 H 0.56646 0.01233 0.3713 0.0
H1441 H 0.7471 0.05162 0.33072 0.0
H1442 H 0.58363 0.93532 0.34569 0.0
H1443 H 0.73901 0.10948 0.3762 0.0
H1444 H 0.68481 0.0147 0.33093 0.0
H1445 H 0.62784 0.05374 0.36848 0.0
C1446 C 0.58311 0.00418 0.36502 0.0
C1447 C 0.57005 0.97032 0.35879 0.0
C1448 C 0.69666 0.03564 0.34076 0.0
C1449 C 0.63983 0.01752 0.35534 0.0
C1450 C 0.73211 0.05683 0.34058 0.0
C1451 C 0.74804 0.08341 0.35354 0.0
C1452 C 0.67704 0.04137 0.35386 0.0
C1453 C 0.72755 0.08909 0.36603 0.0
C1454 C 0.61805 0.02777 0.36348 0.0
C1455 C 0.59272 0.96108 0.35082 0.0
N1456 N 0.69294 0.06811 0.36593 0.0
N1457 N 0.62653 0.98463 0.34924 0.0
H1458 H 0.88211 0.64314 0.33182 0.0
H1459 H 0.02413 0.62741 0.38577 0.0
H1460 H 0.89173 0.65643 0.39113 0.0
H1461 H 0.96757 0.55375 0.34291 0.0
H1462 H 0.98086 0.64545 0.38565 0.0
H1463 H 0.91796 0.61591 0.33311 0.0
C1464 C 0.89145 0.63994 0.34509 0.0
C1465 C 0.8842 0.65203 0.36139 0.0
C1466 C 0.97786 0.62517 0.37638 0.0
C1467 C 0.9254 0.62201 0.36287 0.0
C1468 C 0.00253 0.61506 0.37637 0.0
C1469 C -0.00084 0.58912 0.36435 0.0
C1470 C 0.95032 0.6099 0.3639 0.0
C1471 C 0.97075 0.57372 0.35245 0.0
C1472 C 0.91173 0.62443 0.34582 0.0
C1473 C 0.89683 0.64741 0.37826 0.0
N1474 N 0.94752 0.58473 0.35231 0.0
N1475 N 0.91736 0.63327 0.37855 0.0
H1476 H 0.55618 0.55369 0.84821 0.0
H1477 H 0.74459 0.66248 0.88714 0.0
H1478 H 0.58117 0.62905 0.8913 0.0
H1479 H 0.72683 0.64508 0.82836 0.0
H1480 H 0.68274 0.63699 0.89196 0.0
H1481 H 0.61759 0.57476 0.84367 0.0
C1482 C 0.57465 0.57449 0.85679 0.0
C1483 C 0.56392 0.58981 0.87013 0.0
C1484 C 0.69247 0.63855 0.87805 0.0
C1485 C 0.63343 0.6133 0.86524 0.0
C1486 C 0.72757 0.6528 0.87529 0.0
C1487 C 0.74057 0.65589 0.85731 0.0
C1488 C 0.67035 0.62668 0.86278 0.0
C1489 C 0.71761 0.64315 0.84241 0.0
C1490 C 0.60948 0.58651 0.85413 0.0
C1491 C 0.58864 0.61682 0.88081 0.0
N1492 N 0.68337 0.6289 0.84547 0.0
N1493 N 0.62242 0.62757 0.87825 0.0
H1494 H 0.29951 0.06292 0.82406 0.0
H1495 H 0.43121 0.02191 0.87632 0.0
H1496 H 0.34849 0.11496 0.87485 0.0
H1497 H 0.34081 0.94658 0.84743 0.0
H1498 H 0.4138 0.06516 0.87013 0.0
H1499 H 0.329 0.0298 0.82622 0.0
C1500 C 0.31694 0.06775 0.83552 0.0
C1501 C 0.32127 0.09122 0.84947 0.0
C1502 C 0.39807 0.03917 0.8651 0.0
C1503 C 0.35494 0.05357 0.85197 0.0
C1504 C 0.40793 0.01464 0.86857 0.0
C1505 C 0.38707 0.98071 0.86256 0.0
C1506 C 0.36783 0.02962 0.85511 0.0
C1507 C 0.35725 0.97238 0.85255 0.0
C1508 C 0.33363 0.04881 0.83675 0.0
C1509 C 0.34431 0.09676 0.86393 0.0
N1510 N 0.34857 -0.00329 0.84908 0.0
N1511 N 0.36019 0.07774 0.86494 0.0
H1512 H 0.9245 0.23743 0.82252 0.0
H1513 H 0.95385 0.41166 0.86834 0.0
H1514 H 0.85808 0.23779 0.86552 0.0
H1515 H 0.03562 0.39705 0.84745 0.0
H1516 H 0.91286 0.35104 0.86148 0.0
H1517 H 0.95962 0.29983 0.82524 0.0
C1518 C 0.91706 0.25076 0.83235 0.0
C1519 C 0.88864 0.23261 0.84395 0.0
C1520 C 0.93979 0.36133 0.85836 0.0
C1521 C 0.92852 0.30369 0.84708 0.0
C1522 C 0.96309 0.39577 0.8622 0.0
C1523 C -0.00186 0.40913 0.85863 0.0
C1524 C 0.95168 0.3406 0.85051 0.0
C1525 C 0.00887 0.38759 0.85066 0.0
C1526 C 0.93715 0.28626 0.83394 0.0
C1527 C 0.88001 0.251 0.85643 0.0
N1528 N -0.01429 0.35441 0.84682 0.0
N1529 N 0.90002 0.28569 0.85775 0.0
H1530 H 0.54275 0.56804 0.69169 0.0
H1531 H 0.67569 0.75371 0.72992 0.0
H1532 H 0.6314 0.58986 0.72478 0.0
H1533 H 0.62225 0.74029 0.67817 0.0
H1534 H 0.64821 0.69158 0.73318 0.0
H1535 H 0.56154 0.62956 0.69128 0.0
C1536 C 0.56597 0.58574 0.69901 0.0
C1537 C 0.58575 0.57403 0.70821 0.0
C1538 C 0.64226 0.70222 0.72119 0.0
C1539 C 0.60684 0.64377 0.70796 0.0
C1540 C 0.65778 0.73761 0.71934 0.0
C1541 C 0.65143 0.75195 0.70363 0.0
C1542 C 0.62007 0.68104 0.70731 0.0
C1543 C 0.62787 0.73003 0.69042 0.0
C1544 C 0.57665 0.6207 0.69868 0.0
C1545 C 0.61563 0.59792 0.71739 0.0
N1546 N 0.61307 0.69541 0.69249 0.0
N1547 N 0.62524 0.63172 0.71707 0.0
H1548 H 0.38673 0.03713 0.71458 0.0
H1549 H 0.23013 0.86332 0.68077 0.0
H1550 H 0.40446 0.9616 0.68765 0.0
H1551 H 0.22763 0.91073 0.73227 0.0
H1552 H 0.29276 0.9012 0.67976 0.0
H1553 H 0.32582 -0.00588 0.71733 0.0
C1554 C 0.37771 0.01157 0.70912 0.0
C1555 C 0.40049 0.00279 0.70088 0.0
C1556 C 0.27841 0.90281 0.69139 0.0
C1557 C 0.33122 0.9538 0.7039 0.0
C1558 C 0.24286 0.88123 0.692 0.0
C1559 C 0.22389 0.88406 0.7066 0.0
C1560 C 0.2946 0.92776 0.70522 0.0
C1561 C 0.24139 0.90777 0.72077 0.0
C1562 C 0.34314 0.98703 0.71085 0.0
C1563 C 0.38763 0.96924 0.69418 0.0
N1564 N 0.27575 0.92917 0.71957 0.0
N1565 N 0.35367 0.94593 0.69567 0.0
H1566 H 0.01034 0.42889 0.71184 0.0
H1567 H 0.058 0.29837 0.6639 0.0
H1568 H 0.93786 0.33935 0.68121 0.0
H1569 H 0.10993 0.35452 0.71321 0.0
H1570 H 0.02061 0.32328 0.66533 0.0
H1571 H 0.05327 0.41067 0.70823 0.0
C1572 C 0.00354 0.40549 0.70431 0.0
C1573 C 0.97051 0.38543 0.69689 0.0
C1574 C 0.04038 0.33038 0.67574 0.0
C1575 C 0.0194 0.36499 0.69248 0.0
C1576 C 0.06187 0.31639 0.67487 0.0
C1577 C 0.08683 0.32426 0.68856 0.0
C1578 C 0.04413 0.35267 0.69028 0.0
C1579 C 0.09082 0.34777 0.70245 0.0
C1580 C 0.02796 0.39514 0.70231 0.0
C1581 C 0.96292 0.35533 0.68731 0.0
N1582 N 0.06951 0.36113 0.70302 0.0
N1583 N -0.01274 0.34611 0.6853 0.0
H1584 H 0.89246 0.6941 0.52778 0.0
H1585 H 0.05498 0.67061 0.5371 0.0
H1586 H 0.89455 0.61836 0.56375 0.0
H1587 H 0.06598 0.76981 0.52507 0.0
H1588 H -0.00587 0.64831 0.54338 0.0
H1589 H 0.95481 0.72057 0.52361 0.0
C1590 C 0.90614 0.68335 0.53495 0.0
C1591 C 0.88855 0.65409 0.54611 0.0
C1592 C 0.00991 0.67498 0.53941 0.0
C1593 C 0.95913 0.68351 0.5411 0.0
C1594 C 0.04454 0.68765 0.53568 0.0
C1595 C 0.06549 0.72208 0.53053 0.0
C1596 C -0.00403 0.69671 0.53765 0.0
C1597 C 0.05068 0.74311 0.52906 0.0
C1598 C 0.94158 0.69839 0.53256 0.0
C1599 C 0.90726 0.64097 0.55505 0.0
N1600 N 0.01667 0.73001 0.53246 0.0
N1601 N 0.94152 0.65553 0.55217 0.0
H1602 H 0.33954 0.26914 0.56716 0.0
H1603 H 0.19684 0.29195 0.51473 0.0
H1604 H 0.27362 0.19454 0.52678 0.0
H1605 H 0.29633 0.37684 0.52922 0.0
H1606 H 0.21674 0.252 0.52393 0.0
H1607 H 0.31433 0.30488 0.55928 0.0
C1608 C 0.31927 0.26 0.5569 0.0
C1609 C 0.30868 0.22907 0.5475 0.0
C1610 C 0.2341 0.27941 0.52495 0.0
C1611 C 0.28002 0.26965 0.53843 0.0
C1612 C 0.22289 0.30215 0.51967 0.0
C1613 C 0.24508 0.33772 0.52109 0.0
C1614 C 0.26731 0.29249 0.53211 0.0
C1615 C 0.27849 0.34964 0.52769 0.0
C1616 C 0.30517 0.28049 0.55231 0.0
C1617 C 0.28247 0.21838 0.53426 0.0
N1618 N 0.28847 0.32706 0.53314 0.0
N1619 N 0.26898 0.23875 0.53004 0.0
H1620 H 0.61957 0.9197 0.51033 0.0
H1621 H 0.73489 0.0742 0.57279 0.0
H1622 H 0.65504 0.89934 0.56178 0.0
H1623 H 0.752 0.07898 0.51378 0.0
H1624 H 0.70238 0.01114 0.57079 0.0
H1625 H 0.66407 0.98003 0.51259 0.0
C1626 C 0.63687 0.92807 0.52209 0.0
C1627 C 0.63378 0.90493 0.53596 0.0
C1628 C 0.71389 0.02613 0.5584 0.0
C1629 C 0.68408 0.97353 0.53875 0.0
C1630 C 0.73221 0.06192 0.5595 0.0
C1631 C 0.74567 0.08153 0.54338 0.0
C1632 C 0.7085 0.01033 0.54101 0.0
C1633 C 0.74175 0.06465 0.52649 0.0
C1634 C 0.66232 0.96229 0.52329 0.0
C1635 C 0.65684 0.91671 0.55086 0.0
N1636 N 0.72288 0.02993 0.52567 0.0
N1637 N 0.68083 0.95059 0.55209 0.0
H1638 H 0.00856 0.72358 0.71055 0.0
H1639 H 0.00986 0.56397 0.66919 0.0
H1640 H 0.09692 0.73958 0.6791 0.0
H1641 H 0.97315 0.56264 0.72456 0.0
H1642 H 0.0381 0.6271 0.66927 0.0
H1643 H -0.01047 0.66236 0.71231 0.0
C1644 C 0.02385 0.71408 0.70394 0.0
C1645 C 0.05423 0.73639 0.69462 0.0
C1646 C 0.02427 0.61285 0.68145 0.0
C1647 C 0.03254 0.66666 0.69647 0.0
C1648 C 0.00815 0.57703 0.68141 0.0
C1649 C -0.01092 0.55834 0.69685 0.0
C1650 C 0.02035 0.62961 0.69685 0.0
C1651 C -0.01244 0.57622 0.71237 0.0
C1652 C 0.01316 0.67931 0.7051 0.0
C1653 C 0.07337 0.72298 0.68645 0.0
N1654 N 0.0025 0.61091 0.71186 0.0
N1655 N 0.06193 0.68868 0.68734 0.0
H1656 H 0.25485 0.29055 0.71202 0.0
H1657 H 0.41608 0.44202 0.66761 0.0
H1658 H 0.24009 0.34795 0.66854 0.0
H1659 H 0.40973 0.42132 0.7263 0.0
H1660 H 0.35312 0.40797 0.66574 0.0
H1661 H 0.3139 0.33676 0.71554 0.0
C1662 C 0.2642 0.31294 0.70317 0.0
C1663 C 0.24291 0.31551 0.68987 0.0
C1664 C 0.36562 0.41167 0.67905 0.0
C1665 C 0.31033 0.36834 0.69378 0.0
C1666 C 0.40138 0.431 0.68014 0.0
C1667 C 0.4179 0.43386 0.69708 0.0
C1668 C 0.34678 0.39485 0.69496 0.0
C1669 C 0.39791 0.41926 0.71293 0.0
C1670 C 0.29772 0.33943 0.70531 0.0
C1671 C 0.25598 0.34522 0.67892 0.0
N1672 N 0.36338 0.39976 0.71142 0.0
N1673 N 0.28927 0.37046 0.68089 0.0
H1674 H 0.70201 0.96444 0.70981 0.0
H1675 H 0.54686 0.96997 0.66331 0.0
H1676 H 0.6421 0.89087 0.66753 0.0
H1677 H 0.56891 -0.00964 0.72159 0.0
H1678 H 0.58568 0.9463 0.66214 0.0
H1679 H 0.65834 0.9818 0.71166 0.0
C1680 C 0.67981 0.95224 0.70081 0.0
C1681 C 0.67546 0.92632 0.68848 0.0
C1682 C 0.58157 0.95556 0.6752 0.0
C1683 C 0.62587 0.9459 0.6905 0.0
C1684 C 0.55951 0.96896 0.67588 0.0
C1685 C 0.5549 0.98204 0.69256 0.0
C1686 C 0.59962 0.95623 0.6912 0.0
C1687 C 0.57182 0.98038 0.70849 0.0
C1688 C 0.65483 0.96184 0.702 0.0
C1689 C 0.64614 0.91091 0.67725 0.0
N1690 N 0.59398 0.96821 0.70736 0.0
N1691 N 0.62245 0.92118 0.67839 0.0
H1692 H 0.2341 0.87447 0.21225 0.0
H1693 H 0.40371 0.01177 0.15945 0.0
H1694 H 0.24261 0.96131 0.18191 0.0
H1695 H 0.40658 0.95258 0.20583 0.0
H1696 H 0.34139 0.98404 0.16265 0.0
H1697 H 0.29469 0.89439 0.20551 0.0
C1698 C 0.24864 0.8976 0.20413 0.0
C1699 C 0.23348 0.91652 0.19781 0.0
C1700 C 0.35563 0.9769 0.17202 0.0
C1701 C 0.3022 0.93893 0.18985 0.0
C1702 C 0.39111 -0.00745 0.17014 0.0
C1703 C 0.41015 0.98456 0.1825 0.0
C1704 C 0.33915 0.95294 0.18628 0.0
C1705 C 0.39268 0.95951 0.19611 0.0
C1706 C 0.28313 0.90892 0.20032 0.0
C1707 C 0.25341 0.94622 0.18729 0.0
N1708 N 0.35805 0.94462 0.19771 0.0
N1709 N 0.28672 0.95647 0.18362 0.0
H1710 H 0.95938 0.39289 0.22671 0.0
H1711 H 0.09638 0.34425 0.18851 0.0
H1712 H 0.01681 0.43757 0.1766 0.0
H1713 H 0.01062 0.27863 0.22354 0.0
H1714 H 0.07647 0.38628 0.18808 0.0
H1715 H -0.01203 0.35921 0.2301 0.0
C1716 C 0.97833 0.39586 0.2165 0.0
C1717 C -0.01449 0.41767 0.20122 0.0
C1718 C 0.06224 0.36274 0.19592 0.0
C1719 C 0.01822 0.37909 0.205 0.0
C1720 C 0.0736 0.33888 0.19625 0.0
C1721 C 0.05493 0.30789 0.20599 0.0
C1722 C 0.03244 0.35569 0.20568 0.0
C1723 C 0.02554 0.30204 0.2157 0.0
C1724 C -0.00546 0.37655 0.21843 0.0
C1725 C 0.01048 0.42081 0.18851 0.0
N1726 N 0.01524 0.32574 0.21532 0.0
N1727 N 0.02587 0.40145 0.1906 0.0
H1728 H 0.56036 0.57374 0.15199 0.0
H1729 H 0.6866 0.71962 0.21581 0.0
H1730 H 0.54709 0.56362 0.21131 0.0
H1731 H 0.64173 0.74822 0.17124 0.0
H1732 H 0.64225 0.65952 0.21156 0.0
H1733 H 0.59588 0.63642 0.15578 0.0
C1734 C 0.56447 0.5848 0.16573 0.0
C1735 C 0.55113 0.56377 0.18139 0.0
C1736 C 0.64216 0.67905 0.20277 0.0
C1737 C 0.5919 0.63431 0.18574 0.0
C1738 C 0.66748 0.71312 0.20507 0.0
C1739 C 0.66764 0.73858 0.1938 0.0
C1740 C 0.61757 0.67043 0.18879 0.0
C1741 C 0.64222 0.72909 0.18018 0.0
C1742 C 0.58456 0.62033 0.16785 0.0
C1743 C 0.55706 0.57907 0.19891 0.0
N1744 N 0.61829 0.69546 0.17782 0.0
N1745 N 0.5777 0.61347 0.20067 0.0
H1746 H 0.30112 0.92744 1.01534 0.0
H1747 H 0.29173 0.08475 0.05385 0.0
H1748 H 0.21914 0.91203 0.05223 0.0
H1749 H 0.32288 0.08407 0.99745 0.0
H1750 H 0.26788 0.02243 0.05533 0.0
H1751 H 0.31461 0.98701 1.01061 0.0
C1752 C 0.28619 0.93673 1.02253 0.0
C1753 C 0.2592 0.91511 0.03429 0.0
C1754 C 0.27934 0.03586 0.04252 0.0
C1755 C 0.27431 0.98258 1.02893 0.0
C1756 C 0.29281 0.07125 0.04167 0.0
C1757 C 0.30912 0.08921 1.02551 0.0
C1758 C 0.2833 0.01877 1.02731 0.0
C1759 C 0.31023 0.07087 1.0101 0.0
C1760 C 0.29357 0.97043 1.01965 0.0
C1761 C 0.2402 0.92805 0.04307 0.0
N1762 N 0.29813 0.03656 1.01149 0.0
N1763 N 0.24839 0.96119 0.0404 0.0
H1764 H 0.05207 0.37528 0.05113 0.0
H1765 H 0.897 0.20378 1.01234 0.0
H1766 H 0.07003 0.30219 1.02154 0.0
H1767 H 0.88978 0.25501 0.06125 0.0
H1768 H 0.95981 0.24046 1.01329 0.0
H1769 H -0.00885 0.33302 0.05247 0.0
C1770 C 0.04314 0.35031 0.04488 0.0
C1771 C 0.06599 0.34218 0.03615 0.0
C1772 C 0.94437 0.24323 1.02392 0.0
C1773 C -0.00362 0.2938 0.03759 0.0
C1774 C 0.90869 0.22242 1.02337 0.0
C1775 C 0.88841 0.22668 0.03666 0.0
C1776 C 0.95939 0.26861 0.03765 0.0
C1777 C 0.90457 0.25108 0.05068 0.0
C1778 C 0.00843 0.32613 0.04577 0.0
C1779 C 0.05314 0.30934 1.02844 0.0
N1780 N 0.9391 0.27144 0.05068 0.0
N1781 N 0.01897 0.28633 1.02916 0.0
H1782 H 0.75284 0.65905 0.0653 0.0
H1783 H 0.61199 0.68081 1.01306 0.0
H1784 H 0.74422 0.6504 1.00578 0.0
H1785 H 0.66935 0.75052 0.05729 0.0
H1786 H 0.65366 0.66059 1.01258 0.0
H1787 H 0.71606 0.68522 0.06515 0.0
C1788 C 0.74342 0.66296 0.05223 0.0
C1789 C 0.75145 0.65272 0.03553 0.0
C1790 C 0.65709 0.68039 1.02232 0.0
C1791 C 0.70904 0.68145 0.03533 0.0
C1792 C 0.63332 0.6917 1.02269 0.0
C1793 C 0.63746 0.71729 0.03522 0.0
C1794 C 0.6845 0.69412 0.03492 0.0
C1795 C 0.66555 0.73086 0.04736 0.0
C1796 C 0.72259 0.67786 0.05216 0.0
C1797 C 0.73865 0.65816 1.01893 0.0
N1798 N 0.6879 0.71878 0.04709 0.0
N1799 N 0.71755 0.6717 1.01926 0.0
H1800 H 0.73616 0.1052 0.86702 0.0
H1801 H 0.5471 0.96373 0.83673 0.0
H1802 H 0.71253 0.01695 0.83315 0.0
H1803 H 0.56625 0.02504 0.886 0.0
H1804 H 0.60843 -0.00709 0.83059 0.0
H1805 H 0.67456 0.08504 0.86967 0.0
C1806 C 0.71802 0.08185 0.85994 0.0
C1807 C 0.72927 0.06253 0.84991 0.0
C1808 C 0.59927 0.00018 0.84269 0.0
C1809 C 0.65933 0.03969 0.85281 0.0
C1810 C 0.56429 0.98361 0.84619 0.0
C1811 C 0.5518 -0.00828 0.86205 0.0
C1812 C 0.62201 0.02513 0.8551 0.0
C1813 C 0.57506 0.01796 0.8737 0.0
C1814 C 0.68299 0.07034 0.86156 0.0
C1815 C 0.70485 0.0324 0.84114 0.0
N1816 N 0.60931 0.03367 0.87008 0.0
N1817 N 0.671 0.02191 0.84279 0.0
H1818 H 0.96221 0.70717 0.84158 0.0
H1819 H 0.9457 0.53874 0.88703 0.0
H1820 H 0.87077 0.63594 0.87128 0.0
H1821 H 0.00949 0.58949 0.83963 0.0
H1822 H 0.91865 0.57456 0.88334 0.0
H1823 H 0.98211 0.66562 0.84298 0.0
C1824 C 0.94633 0.68275 0.8484 0.0
C1825 C 0.91485 0.67494 0.85632 0.0
C1826 C 0.93829 0.57742 0.87365 0.0
C1827 C 0.93749 0.62733 0.85808 0.0
C1828 C 0.95361 0.55702 0.87573 0.0
C1829 C 0.97998 0.56147 0.86371 0.0
C1830 C 0.94993 0.60252 0.85964 0.0
C1831 C -0.01057 0.58547 0.84931 0.0
C1832 C 0.95757 0.65895 0.8491 0.0
C1833 C 0.89515 0.64281 0.86489 0.0
N1834 N 0.97472 0.60535 0.84781 0.0
N1835 N 0.90695 0.62022 0.86571 0.0
H1836 H 0.27175 0.25718 0.83857 0.0
H1837 H 0.40856 0.40135 0.90228 0.0
H1838 H 0.32556 0.23159 0.87948 0.0
H1839 H 0.40643 0.41812 0.84351 0.0
H1840 H 0.37103 0.33934 0.89711 0.0
H1841 H 0.31369 0.31832 0.84313 0.0
C1842 C 0.29234 0.26452 0.84849 0.0
C1843 C 0.29551 0.23966 0.85862 0.0
C1844 C 0.37919 0.35676 0.8854 0.0
C1845 C 0.34253 0.3086 0.86408 0.0
C1846 C 0.40048 0.39188 0.88833 0.0
C1847 C 0.41041 0.41451 0.87329 0.0
C1848 C 0.36725 0.34483 0.86745 0.0
C1849 C 0.39931 0.40131 0.85545 0.0
C1850 C 0.3162 0.29913 0.85101 0.0
C1851 C 0.32255 0.25017 0.87132 0.0
N1852 N 0.37778 0.36725 0.85303 0.0
N1853 N 0.34493 0.28403 0.87388 0.0
H1854 H 0.62859 0.89198 1.00014 0.0
H1855 H 0.76315 0.07582 0.03854 0.0
H1856 H 0.68749 0.90199 0.04936 0.0
H1857 H 0.66672 0.05324 1.01373 0.0
H1858 H 0.74465 0.01431 0.03787 0.0
H1859 H 0.65273 0.95408 0.99959 0.0
C1860 C 0.64702 0.90736 1.01069 0.0
C1861 C 0.65595 0.89201 1.02491 0.0
C1862 C 0.72768 0.023 0.0326 0.0
C1863 C 0.68351 0.96282 1.02432 0.0
C1864 C 0.73817 0.05791 0.0329 0.0
C1865 C 0.71631 0.06941 1.02619 0.0
C1866 C 0.69558 -0.00018 1.02512 0.0
C1867 C 0.68418 0.04532 1.01915 0.0
C1868 C 0.66056 0.94269 1.01042 0.0
C1869 C 0.67995 0.91303 0.03822 0.0
N1870 N 0.67487 0.0116 1.01865 0.0
N1871 N 0.69298 0.94762 0.03764 0.0
H1872 H 0.92434 0.6112 0.04989 0.0
H1873 H 0.08069 0.77965 1.0104 0.0
H1874 H 0.90785 0.68128 1.0163 0.0
H1875 H 0.08525 0.73523 0.06263 0.0
H1876 H 0.01797 0.74302 1.0106 0.0
H1877 H -0.01521 0.65479 0.05282 0.0
C1878 C 0.93353 0.63581 0.04313 0.0
C1879 C 0.91133 0.64274 0.03277 0.0
C1880 C 0.03277 0.74176 1.02212 0.0
C1881 C 0.98019 0.69248 0.03599 0.0
C1882 C 0.0684 0.76254 1.022 0.0
C1883 C 0.08792 0.76008 0.03644 0.0
C1884 C 0.01699 0.71811 0.03659 0.0
C1885 C 0.07101 0.73767 0.05118 0.0
C1886 C 0.96788 0.66073 0.04493 0.0
C1887 C 0.92431 0.6751 1.02444 0.0
N1888 N 0.03648 0.71711 0.05075 0.0
N1889 N 0.95815 0.69876 1.02603 0.0
H1890 H 0.21965 0.31956 0.9948 0.0
H1891 H 0.36791 0.30389 0.04451 0.0
H1892 H 0.23681 0.33443 0.05371 0.0
H1893 H 0.31142 0.23669 0.99921 0.0
H1894 H 0.32621 0.32399 0.04549 0.0
H1895 H 0.25867 0.29605 0.99371 0.0
C1896 C 0.23137 0.3175 1.0075 0.0
C1897 C 0.22506 0.32875 1.02438 0.0
C1898 C 0.32304 0.30487 0.03535 0.0
C1899 C 0.2701 0.30307 1.02314 0.0
C1900 C 0.34691 0.29367 0.03467 0.0
C1901 C 0.34295 0.26866 1.02176 0.0
C1902 C 0.29558 0.2915 1.02277 0.0
C1903 C 0.31515 0.2559 1.00943 0.0
C1904 C 0.25356 0.30418 1.00687 0.0
C1905 C 0.24092 0.3258 0.04045 0.0
N1906 N 0.29258 0.26768 1.01012 0.0
N1907 N 0.26314 0.31365 0.03941 0.0
H1908 H 0.0574 0.30897 0.49094 0.0
H1909 H 0.91198 0.29328 0.55598 0.0
H1910 H 0.07452 0.32263 0.54992 0.0
H1911 H 0.88769 0.21709 0.51346 0.0
H1912 H 0.9732 0.31259 0.55175 0.0
H1913 H -0.0047 0.28199 0.4965 0.0
C1914 C 0.04799 0.30592 0.50503 0.0
C1915 C 0.07079 0.31788 0.52001 0.0
C1916 C 0.95432 0.29149 0.54348 0.0
C1917 C 0.00076 0.28834 0.52634 0.0
C1918 C 0.91963 0.28067 0.54581 0.0
C1919 C 0.8951 0.25362 0.53508 0.0
C1920 C 0.96428 0.27578 0.52995 0.0
C1921 C 0.90602 0.23789 0.52208 0.0
C1922 C 0.01278 0.29059 0.50817 0.0
C1923 C 0.0576 0.31356 0.53802 0.0
N1924 N 0.94 0.24956 0.51966 0.0
N1925 N 0.02336 0.29963 0.54069 0.0
H1926 H 0.68004 0.77568 0.51398 0.0
H1927 H 0.66854 0.60894 0.55817 0.0
H1928 H 0.6187 0.72508 0.56212 0.0
H1929 H 0.75818 0.68115 0.52758 0.0
H1930 H 0.64831 0.65028 0.55817 0.0
H1931 H 0.70846 0.74116 0.5173 0.0
C1932 C 0.67293 0.75767 0.52536 0.0
C1933 C 0.64688 0.75297 0.53772 0.0
C1934 C 0.67256 0.65726 0.55159 0.0
C1935 C 0.67862 0.71329 0.5414 0.0
C1936 C 0.68401 0.6336 0.55149 0.0
C1937 C 0.715 0.64164 0.54282 0.0
C1938 C 0.69185 0.68901 0.54261 0.0
C1939 C 0.73418 0.67406 0.5345 0.0
C1940 C 0.6891 0.73804 0.52725 0.0
C1941 C 0.63854 0.72934 0.55223 0.0
N1942 N 0.72207 0.69648 0.53438 0.0
N1943 N 0.65402 0.71008 0.55353 0.0
H1944 H 0.25068 0.90872 0.49733 0.0
H1945 H 0.28343 0.07664 0.55079 0.0
H1946 H 0.18538 0.90188 0.54284 0.0
H1947 H 0.36495 0.06143 0.53007 0.0
H1948 H 0.24204 0.01644 0.54333 0.0
H1949 H 0.28722 0.96997 0.50361 0.0
C1950 C 0.24368 0.92029 0.50842 0.0
C1951 C 0.2152 0.90036 0.51969 0.0
C1952 C 0.26904 0.02643 0.54054 0.0
C1953 C 0.25681 0.97007 0.52693 0.0
C1954 C 0.2926 0.06059 0.54479 0.0
C1955 C 0.32762 0.07384 0.54115 0.0
C1956 C 0.28066 0.00594 0.53215 0.0
C1957 C 0.33823 0.05212 0.5333 0.0
C1958 C 0.26467 0.95509 0.51208 0.0
C1959 C 0.20726 0.91652 0.5339 0.0
N1960 N 0.31478 0.01931 0.52889 0.0
N1961 N 0.22811 0.95061 0.5372 0.0
H1962 H 0.02065 0.41824 0.39671 0.0
H1963 H 0.87589 0.23806 0.35721 0.0
H1964 H 0.95494 0.41117 0.35129 0.0
H1965 H 0.9689 0.25371 0.38355 0.0
H1966 H 0.89681 0.29989 0.35979 0.0
H1967 H -0.00682 0.3557 0.39727 0.0
C1968 C 0.00014 0.40343 0.38699 0.0
C1969 C -0.00986 0.41965 0.37382 0.0
C1970 C 0.91247 0.28962 0.36502 0.0
C1971 C 0.95876 0.34841 0.37439 0.0
C1972 C 0.90058 0.25447 0.36361 0.0
C1973 C 0.92088 0.24093 0.37005 0.0
C1974 C 0.94447 0.311 0.37324 0.0
C1975 C 0.95265 0.2632 0.37821 0.0
C1976 C -0.01538 0.36783 0.38727 0.0
C1977 C 0.96342 0.39942 0.36157 0.0
N1978 N 0.96343 0.29716 0.37962 0.0
N1979 N 0.94863 0.36465 0.36209 0.0
H1980 H 0.71607 0.7032 0.38746 0.0
H1981 H 0.56255 0.52914 0.35102 0.0
H1982 H 0.73406 0.62872 0.35942 0.0
H1983 H 0.5533 0.58312 0.39811 0.0
H1984 H 0.62519 0.56525 0.35279 0.0
H1985 H 0.65546 0.66018 0.39012 0.0
C1986 C 0.70722 0.67777 0.38185 0.0
C1987 C 0.72993 0.66949 0.37308 0.0
C1988 C 0.60939 0.56874 0.3629 0.0
C1989 C 0.6608 0.62031 0.37605 0.0
C1990 C 0.57379 0.54822 0.36189 0.0
C1991 C 0.553 0.55353 0.37434 0.0
C1992 C 0.6239 0.59493 0.37623 0.0
C1993 C 0.56856 0.57844 0.38818 0.0
C1994 C 0.67273 0.65317 0.38352 0.0
C1995 C 0.71726 0.63606 0.36627 0.0
N1996 N 0.60313 0.59863 0.38859 0.0
N1997 N 0.68334 0.6127 0.36769 0.0
H1998 H 0.33019 0.08596 0.39661 0.0
H1999 H 0.40815 0.98803 0.34308 0.0
H2000 H 0.27197 0.00997 0.35504 0.0
H2001 H 0.41732 -0.00401 0.40261 0.0
H2002 H 0.36914 0.01137 0.3442 0.0
H2003 H 0.37283 0.0667 0.39637 0.0
C2004 C 0.32644 0.06521 0.38749 0.0
C2005 C 0.29762 0.04925 0.37591 0.0
C2006 C 0.38008 0.00832 0.35696 0.0
C2007 C 0.34629 0.02824 0.37515 0.0
C2008 C 0.40246 -0.00466 0.35634 0.0
C2009 C 0.41572 -0.00992 0.3728 0.0
C2010 C 0.3717 0.01681 0.3741 0.0
C2011 C 0.40742 -0.00034 0.38965 0.0
C2012 C 0.35061 0.05431 0.38739 0.0
C2013 C 0.29373 0.02256 0.36431 0.0
N2014 N 0.3859 0.01276 0.3899 0.0
N2015 N 0.3181 0.01313 0.36404 0.0
H2016 H 0.17783 0.42007 0.10497 0.0
H2017 H 0.06466 0.22659 0.13345 0.0
H2018 H 0.14419 0.33897 0.06461 0.0
H2019 H 0.13339 0.30363 0.17189 0.0
H2020 H 0.09338 0.26677 0.10786 0.0
H2021 H 0.1627 0.37778 0.12972 0.0
C2022 C 0.16787 0.39334 0.10135 0.0
C2023 C 0.1623 0.38289 0.08279 0.0
C2024 C 0.10258 0.27464 0.12187 0.0
C2025 C 0.144 0.33428 0.11096 0.0
C2026 C 0.08611 0.25184 0.13645 0.0
C2027 C 0.09685 0.26184 0.15474 0.0
C2028 C 0.1294 0.30792 0.12572 0.0
C2029 C 0.12466 0.29475 0.15797 0.0
C2030 C 0.15924 0.36924 0.11545 0.0
C2031 C 0.14917 0.34804 0.07875 0.0
N2032 N 0.1397 0.31683 0.14361 0.0
N2033 N 0.13981 0.32478 0.09277 0.0
H2034 H 0.61515 0.81823 0.07664 0.0
H2035 H 0.7167 0.78187 0.15492 0.0
H2036 H 0.59109 0.71798 0.09644 0.0
H2037 H 0.72034 0.87972 0.15394 0.0
H2038 H 0.67301 0.76081 0.13135 0.0
H2039 H 0.65553 0.84425 0.10289 0.0
C2040 C 0.61823 0.8018 0.08651 0.0
C2041 C 0.60021 0.76596 0.08425 0.0
C2042 C 0.68297 0.78687 0.13625 0.0
C2043 C 0.64558 0.79516 0.114 0.0
C2044 C 0.70817 0.79903 0.14972 0.0
C2045 C 0.72217 0.83262 0.15639 0.0
C2046 C 0.67168 0.80848 0.12896 0.0
C2047 C 0.70989 0.85354 0.14918 0.0
C2048 C 0.641 0.81658 0.10148 0.0
C2049 C 0.60469 0.74571 0.09748 0.0
N2050 N 0.68538 0.84121 0.1356 0.0
N2051 N 0.62696 0.76057 0.11163 0.0
H2052 H 0.10523 0.87094 0.13912 0.0
H2053 H 0.23809 0.81305 0.10882 0.0
H2054 H 0.15748 0.83899 0.17731 0.0
H2055 H 0.17491 0.82913 0.06974 0.0
H2056 H 0.20388 0.81638 0.13415 0.0
H2057 H 0.12408 0.84856 0.11349 0.0
C2058 C 0.11946 0.85788 0.14217 0.0
C2059 C 0.12895 0.85585 0.16042 0.0
C2060 C 0.19707 0.81866 0.12004 0.0
C2061 C 0.152 0.83173 0.13125 0.0
C2062 C 0.21672 0.81693 0.1056 0.0
C2063 C 0.20911 0.82065 0.08723 0.0
C2064 C 0.17001 0.82486 0.11608 0.0
C2065 C 0.18119 0.82558 0.08373 0.0
C2066 C 0.13048 0.8454 0.12755 0.0
C2067 C 0.14839 0.83986 0.16364 0.0
N2068 N 0.16284 0.82796 0.09805 0.0
N2069 N 0.15967 0.82883 0.14918 0.0
H2070 H 0.40506 0.17777 0.47544 0.0
H2071 H 0.21272 0.08048 0.44182 0.0
H2072 H 0.31971 0.14785 0.51242 0.0
H2073 H 0.29664 0.13751 0.40419 0.0
H2074 H 0.25155 0.10781 0.46791 0.0
H2075 H 0.36651 0.16624 0.449 0.0
C2076 C 0.37832 0.16961 0.47795 0.0
C2077 C 0.36554 0.16446 0.49606 0.0
C2078 C 0.26144 0.11487 0.45395 0.0
C2079 C 0.32125 0.15031 0.4661 0.0
C2080 C 0.23931 0.09923 0.43908 0.0
C2081 C 0.25163 0.10682 0.42089 0.0
C2082 C 0.29636 0.13769 0.45059 0.0
C2083 C 0.28618 0.13122 0.41801 0.0
C2084 C 0.35636 0.16306 0.46292 0.0
C2085 C 0.33073 0.15327 0.49871 0.0
N2086 N 0.30756 0.14543 0.43274 0.0
N2087 N 0.30965 0.14614 0.48387 0.0
H2088 H 0.89317 0.1328 0.4375 0.0
H2089 H 0.79601 0.23035 0.46774 0.0
H2090 H 0.83701 0.15793 0.39808 0.0
H2091 H 0.81966 0.17126 0.50585 0.0
H2092 H 0.80956 0.20372 0.44183 0.0
H2093 H 0.86535 0.1459 0.46275 0.0
C2094 C 0.87453 0.14061 0.43419 0.0
C2095 C 0.86725 0.14423 0.41572 0.0
C2096 C 0.81091 0.19592 0.45586 0.0
C2097 C 0.83586 0.16003 0.4445 0.0
C2098 C 0.80318 0.21107 0.47061 0.0
C2099 C 0.80586 0.20227 0.48893 0.0
C2100 C 0.82242 0.1726 0.45954 0.0
C2101 C 0.81598 0.1778 0.492 0.0
C2102 C 0.85862 0.14803 0.44859 0.0
C2103 C 0.84303 0.15451 0.41213 0.0
N2104 N 0.82432 0.16414 0.47747 0.0
N2105 N 0.82856 0.16262 0.42642 0.0
H2106 H 0.8103 0.66956 0.39904 0.0
H2107 H 0.79742 0.64133 0.50852 0.0
H2108 H 0.84723 0.75191 0.43879 0.0
H2109 H 0.73863 0.56184 0.46884 0.0
H2110 H 0.82831 0.68074 0.48304 0.0
H2111 H 0.79697 0.62868 0.42433 0.0
C2112 C 0.81675 0.67918 0.41302 0.0
C2113 C 0.8302 0.7141 0.41687 0.0
C2114 C 0.80908 0.65449 0.47992 0.0
C2115 C 0.81403 0.66755 0.44589 0.0
C2116 C 0.79179 0.63196 0.49446 0.0
C2117 C 0.76584 0.59839 0.49069 0.0
C2118 C 0.8002 0.64319 0.46155 0.0
C2119 C 0.75849 0.5877 0.47222 0.0
C2120 C 0.80868 0.65579 0.4275 0.0
C2121 C 0.83682 0.72506 0.43533 0.0
N2122 N 0.77548 0.6101 0.45829 0.0
N2123 N 0.82843 0.70182 0.44921 0.0
H2124 H 0.83924 0.67307 0.88815 0.0
H2125 H 0.83348 0.64914 0.99805 0.0
H2126 H 0.88782 0.75706 0.92675 0.0
H2127 H 0.81474 0.56892 0.95919 0.0
H2128 H 0.83974 0.68714 0.97216 0.0
H2129 H 0.81625 0.63299 0.91415 0.0
C2130 C 0.84412 0.68319 0.90206 0.0
C2131 C 0.86507 0.7184 0.90535 0.0
C2132 C 0.83362 0.66101 0.9693 0.0
C2133 C 0.83968 0.67278 0.93512 0.0
C2134 C 0.8296 0.63924 0.98408 0.0
C2135 C 0.82295 0.60583 0.98064 0.0
C2136 C 0.831 0.64913 0.95104 0.0
C2137 C 0.8197 0.59459 0.96229 0.0
C2138 C 0.83138 0.66026 0.91692 0.0
C2139 C 0.87167 0.73001 0.92371 0.0
N2140 N 0.82383 0.61625 0.94811 0.0
N2141 N 0.85914 0.70724 0.93793 0.0
H2142 H 0.26666 0.1135 0.90109 0.0
H2143 H 0.39376 0.271 0.96494 0.0
H2144 H 0.26673 0.20914 0.90712 0.0
H2145 H 0.37021 0.16811 0.97904 0.0
H2146 H 0.35552 0.24866 0.93863 0.0
H2147 H 0.3116 0.13283 0.92535 0.0
C2148 C 0.27626 0.1385 0.90742 0.0
C2149 C 0.26298 0.15974 0.90226 0.0
C2150 C 0.35851 0.23078 0.94745 0.0
C2151 C 0.31386 0.18183 0.92942 0.0
C2152 C 0.38046 0.24355 0.96249 0.0
C2153 C 0.38456 0.22126 0.97442 0.0
C2154 C 0.3402 0.1953 0.94418 0.0
C2155 C 0.36698 0.18598 0.97038 0.0
C2156 C 0.30162 0.14938 0.92123 0.0
C2157 C 0.27601 0.1918 0.9108 0.0
N2158 N 0.3452 0.17389 0.95557 0.0
N2159 N 0.30069 0.20183 0.92386 0.0
H2160 H 0.80738 0.14367 0.88281 0.0
H2161 H 0.79526 0.15294 0.99293 0.0
H2162 H 0.81929 0.07516 0.91991 0.0
H2163 H 0.73733 0.1792 0.95534 0.0
H2164 H 0.81989 0.1388 0.96632 0.0
H2165 H 0.79711 0.1711 0.90951 0.0
C2166 C 0.80886 0.13513 0.89659 0.0
C2167 C 0.81462 0.10753 0.89926 0.0
C2168 C 0.80223 0.14824 0.96394 0.0
C2169 C 0.80261 0.13832 0.92973 0.0
C2170 C 0.78843 0.15657 0.97909 0.0
C2171 C 0.76427 0.16718 0.97626 0.0
C2172 C 0.79214 0.15112 0.94591 0.0
C2173 C 0.75583 0.17095 0.95804 0.0
C2174 C 0.80262 0.15049 0.91179 0.0
C2175 C 0.81503 0.09652 0.91738 0.0
N2176 N 0.76968 0.16285 0.94352 0.0
N2177 N 0.80912 0.11198 0.93197 0.0
H2178 H 0.58403 0.8659 0.5806 0.0
H2179 H 0.69432 0.8242 0.65077 0.0
H2180 H 0.57743 0.76681 0.57778 0.0
H2181 H 0.72175 0.9251 0.63047 0.0
H2182 H 0.64773 0.79907 0.62741 0.0
H2183 H 0.62956 0.8843 0.60312 0.0
C2184 C 0.59221 0.84788 0.58474 0.0
C2185 C 0.57731 0.81493 0.57705 0.0
C2186 C 0.66429 0.82665 0.62809 0.0
C2187 C 0.63003 0.83609 0.60308 0.0
C2188 C 0.69064 0.84094 0.64141 0.0
C2189 C 0.71154 0.87677 0.64269 0.0
C2190 C 0.65899 0.84857 0.61632 0.0
C2191 C 0.70612 0.89738 0.63013 0.0
C2192 C 0.61847 0.85854 0.59756 0.0
C2193 C 0.58901 0.79276 0.58304 0.0
N2194 N 0.68034 0.88304 0.61765 0.0
N2195 N 0.61482 0.80372 0.59582 0.0
H2196 H 0.19098 0.82753 0.56139 0.0
H2197 H 0.12792 0.80879 0.66558 0.0
H2198 H 0.13504 0.73032 0.58959 0.0
H2199 H 0.10589 0.86906 0.6274 0.0
H2200 H 0.15454 0.79398 0.64046 0.0
H2201 H 0.18141 0.85579 0.58821 0.0
C2202 C 0.17666 0.81221 0.57314 0.0
C2203 C 0.16271 0.77646 0.57304 0.0
C2204 C 0.14483 0.81134 0.63775 0.0
C2205 C 0.1538 0.80856 0.60392 0.0
C2206 C 0.12994 0.82008 0.65212 0.0
C2207 C 0.11514 0.84053 0.64858 0.0
C2208 C 0.14511 0.82339 0.61979 0.0
C2209 C 0.11742 0.85349 0.63063 0.0
C2210 C 0.17158 0.82833 0.58844 0.0
C2211 C 0.14572 0.75789 0.58896 0.0
N2212 N 0.132 0.84456 0.61678 0.0
N2213 N 0.1418 0.77415 0.60378 0.0
H2214 H 0.22071 0.4137 0.58717 0.0
H2215 H 0.14288 0.2227 0.61955 0.0
H2216 H 0.16816 0.32897 0.54939 0.0
H2217 H 0.15216 0.30132 0.65712 0.0
H2218 H 0.15194 0.26127 0.59348 0.0
H2219 H 0.19587 0.37357 0.61325 0.0
C2220 C 0.20328 0.38675 0.58441 0.0
C2221 C 0.1959 0.37463 0.56617 0.0
C2222 C 0.15119 0.26982 0.60741 0.0
C2223 C 0.16838 0.32866 0.59568 0.0
C2224 C 0.14606 0.24787 0.62224 0.0
C2225 C 0.14617 0.25873 0.64042 0.0
C2226 C 0.15759 0.30327 0.61088 0.0
C2227 C 0.15092 0.29167 0.6433 0.0
C2228 C 0.18912 0.36392 0.59923 0.0
C2229 C 0.17379 0.33951 0.5632 0.0
N2230 N 0.15703 0.31308 0.62868 0.0
N2231 N 0.16116 0.31763 0.57781 0.0
H2232 H 0.97438 0.46744 0.73008 0.0
H2233 H 0.01047 0.50224 0.83822 0.0
H2234 H 0.899 0.41081 0.77211 0.0
H2235 H 0.0891 0.51457 0.79984 0.0
H2236 H 0.96947 0.48412 0.81284 0.0
H2237 H 0.01648 0.49919 0.75444 0.0
C2238 C 0.96651 0.46216 0.7444 0.0
C2239 C 0.93321 0.43658 0.74915 0.0
C2240 C -0.0041 0.49151 0.80993 0.0
C2241 C 0.98095 0.47278 0.77694 0.0
C2242 C 0.01954 0.50239 0.82444 0.0
C2243 C 0.05342 0.51032 0.82119 0.0
C2244 C 0.00633 0.48888 0.792 0.0
C2245 C 0.06317 0.50874 0.80292 0.0
C2246 C -0.00943 0.48011 0.75827 0.0
C2247 C 0.92451 0.4303 0.76794 0.0
N2248 N 0.03972 0.49809 0.78898 0.0
N2249 N 0.94822 0.44833 0.78118 0.0
H2250 H 0.50484 0.4967 0.73405 0.0
H2251 H 0.4889 0.50924 0.8432 0.0
H2252 H 0.54681 0.45737 0.77461 0.0
H2253 H 0.45964 0.56298 0.80442 0.0
H2254 H 0.49898 0.48034 0.8179 0.0
H2255 H 0.47716 0.51105 0.75894 0.0
C2256 C 0.50708 0.48982 0.74812 0.0
C2257 C 0.52741 0.4751 0.75232 0.0
C2258 C 0.48968 0.4979 0.81483 0.0
C2259 C 0.49707 0.49262 0.78086 0.0
C2260 C 0.48316 0.514 0.82944 0.0
C2261 C 0.47198 0.53754 0.82606 0.0
C2262 C 0.48576 0.50593 0.79653 0.0
C2263 C 0.46776 0.54454 0.80761 0.0
C2264 C 0.49173 0.49852 0.76236 0.0
C2265 C 0.53088 0.46827 0.77085 0.0
N2266 N 0.47476 0.52887 0.79348 0.0
N2267 N 0.51601 0.47721 0.78445 0.0
H2268 H 0.48 0.00092 0.73093 0.0
H2269 H 0.4644 0.96718 0.83994 0.0
H2270 H 0.50716 0.08083 0.77144 0.0
H2271 H 0.39955 0.89035 0.80039 0.0
H2272 H 0.49331 0.00732 0.81468 0.0
H2273 H 0.46347 0.95886 0.756 0.0
C2274 C 0.48334 0.00977 0.74509 0.0
C2275 C 0.49512 0.0444 0.74915 0.0
C2276 C 0.4732 0.98145 0.81151 0.0
C2277 C 0.47605 -0.00352 0.77784 0.0
C2278 C 0.457 0.95826 0.82596 0.0
C2279 C 0.43001 0.92507 0.82229 0.0
C2280 C 0.46237 0.97133 0.79321 0.0
C2281 C 0.42048 0.91567 0.80378 0.0
C2282 C 0.47357 0.98569 0.75938 0.0
C2283 C 0.49815 0.05431 0.76777 0.0
N2284 N 0.43662 0.93868 0.7899 0.0
N2285 N 0.48863 0.03046 0.78146 0.0
H2286 H 0.49812 -0.00418 0.22124 0.0
H2287 H 0.48992 0.97272 0.33132 0.0
H2288 H 0.5625 0.07696 0.25883 0.0
H2289 H 0.45295 0.88903 0.29241 0.0
H2290 H 0.50435 0.01294 0.30537 0.0
H2291 H 0.46911 0.95838 0.24765 0.0
C2292 C 0.50524 0.00611 0.23506 0.0
C2293 C 0.53202 0.03964 0.23792 0.0
C2294 C 0.49247 0.98569 0.30257 0.0
C2295 C 0.50005 -0.00321 0.26822 0.0
C2296 C 0.48389 0.96273 0.31738 0.0
C2297 C 0.47012 0.92759 0.31394 0.0
C2298 C 0.48692 0.97321 0.2843 0.0
C2299 C 0.46363 0.91603 0.29558 0.0
C2300 C 0.48911 0.9846 0.25015 0.0
C2301 C 0.5417 0.05121 0.25614 0.0
N2302 N 0.47221 0.93878 0.28143 0.0
N2303 N 0.52576 0.02978 0.27065 0.0
H2304 H 0.07183 0.57334 0.29342 0.0
H2305 H 0.87997 0.46716 0.26574 0.0
H2306 H -0.00276 0.50652 0.33334 0.0
H2307 H 0.95854 0.48023 0.22712 0.0
H2308 H 0.92171 0.48338 0.29102 0.0
H2309 H 0.03044 0.54254 0.26854 0.0
C2310 C 0.04692 0.5518 0.29689 0.0
C2311 C 0.038 0.54198 0.31539 0.0
C2312 C 0.92952 0.48186 0.27702 0.0
C2313 C -0.00949 0.50746 0.28728 0.0
C2314 C 0.90578 0.47259 0.26263 0.0
C2315 C 0.9157 0.47196 0.2443 0.0
C2316 C 0.9637 0.49176 0.2729 0.0
C2317 C 0.94953 0.47973 0.24096 0.0
C2318 C 0.02345 0.5342 0.28275 0.0
C2319 C 0.00537 0.51425 0.31927 0.0
N2320 N 0.97257 0.49004 0.25507 0.0
N2321 N 0.9825 0.49827 0.30535 0.0
H2322 H 0.47844 0.46989 0.21723 0.0
H2323 H 0.47341 0.48547 0.32727 0.0
H2324 H 0.51209 0.41738 0.2543 0.0
H2325 H 0.40661 0.49867 0.28951 0.0
H2326 H 0.50127 0.47498 0.30073 0.0
H2327 H 0.46621 0.49557 0.24368 0.0
C2328 C 0.48457 0.4648 0.23087 0.0
C2329 C 0.49719 0.44222 0.23353 0.0
C2330 C 0.48095 0.48084 0.2983 0.0
C2331 C 0.48192 0.47047 0.26405 0.0
C2332 C 0.46538 0.4872 0.31339 0.0
C2333 C 0.43802 0.49324 0.31047 0.0
C2334 C 0.46922 0.48102 0.28026 0.0
C2335 C 0.42773 0.49414 0.29226 0.0
C2336 C 0.477 0.47903 0.24604 0.0
C2337 C 0.50269 0.43501 0.25171 0.0
N2338 N 0.44332 0.48808 0.27784 0.0
N2339 N 0.49496 0.44904 0.26634 0.0
H2340 H 0.92522 0.20652 0.31465 0.0
H2341 H 0.03558 0.1669 0.24486 0.0
H2342 H 0.93769 0.11835 0.32341 0.0
H2343 H 0.06836 0.27056 0.26228 0.0
H2344 H -0.0077 0.14543 0.26969 0.0
H2345 H 0.97101 0.22786 0.29138 0.0
C2346 C 0.93769 0.19171 0.31165 0.0
C2347 C 0.92789 0.16074 0.32089 0.0
C2348 C 0.00915 0.17284 0.26808 0.0
C2349 C 0.97946 0.18449 0.29415 0.0
C2350 C 0.03361 0.18506 0.25392 0.0
C2351 C 0.05547 0.22049 0.25164 0.0
C2352 C 0.00612 0.19631 0.27964 0.0
C2353 C 0.05204 0.24304 0.26369 0.0
C2354 C 0.96379 0.20392 0.29847 0.0
C2355 C 0.94476 0.14246 0.31658 0.0
N2356 N 0.02753 0.23059 0.27707 0.0
N2357 N 0.96955 0.15441 0.3033 0.0
H2358 H 0.83214 0.80767 0.33423 0.0
H2359 H 0.73956 0.77641 0.23693 0.0
H2360 H 0.77596 0.70847 0.30805 0.0
H2361 H 0.75694 0.86278 0.27076 0.0
H2362 H 0.75822 0.75424 0.26227 0.0
H2363 H 0.80935 0.83118 0.31095 0.0
C2364 C 0.81467 0.79079 0.32374 0.0
C2365 C 0.8057 0.75606 0.32306 0.0
C2366 C 0.75783 0.77795 0.26429 0.0
C2367 C 0.78044 0.7828 0.29632 0.0
C2368 C 0.74731 0.79076 0.24976 0.0
C2369 C 0.74671 0.8215 0.25176 0.0
C2370 C 0.76835 0.79612 0.28101 0.0
C2371 C 0.75696 0.8389 0.26875 0.0
C2372 C 0.8018 0.80422 0.31047 0.0
C2373 C 0.78359 0.7354 0.30902 0.0
N2374 N 0.76769 0.82607 0.28278 0.0
N2375 N 0.77193 0.74914 0.29615 0.0
H2376 H 0.26509 0.06309 0.31049 0.0
H2377 H 0.10585 0.88878 0.27487 0.0
H2378 H 0.16522 0.02238 0.33555 0.0
H2379 H 0.19017 0.95708 0.23979 0.0
H2380 H 0.12894 0.93243 0.29956 0.0
H2381 H 0.24003 0.01873 0.28663 0.0
C2382 C 0.23789 0.04466 0.31101 0.0
C2383 C 0.21718 0.04617 0.32502 0.0
C2384 C 0.14216 0.93778 0.28639 0.0
C2385 C 0.18841 -0.00466 0.29789 0.0
C2386 C 0.12909 0.91296 0.27238 0.0
C2387 C 0.14615 0.91949 0.25534 0.0
C2388 C 0.17275 0.96882 0.28333 0.0
C2389 C 0.17614 0.95114 0.25272 0.0
C2390 C 0.2236 0.01944 0.29738 0.0
C2391 C 0.18209 0.02171 0.32508 0.0
N2392 N 0.18863 0.9745 0.26661 0.0
N2393 N 0.16873 -0.00291 0.31173 0.0
H2394 H 0.94157 0.81129 0.82156 0.0
H2395 H 0.01103 0.78274 0.72554 0.0
H2396 H 0.89727 0.7137 0.79351 0.0
H2397 H 0.07579 0.86615 0.76208 0.0
H2398 H 0.96584 0.76098 0.74874 0.0
H2399 H -0.01192 0.83532 0.79863 0.0
C2400 C 0.94183 0.79487 0.81066 0.0
C2401 C 0.91592 0.76032 0.80957 0.0
C2402 C -0.0101 0.78402 0.75175 0.0
C2403 C 0.96824 0.78782 0.78307 0.0
C2404 C 0.01573 0.7966 0.73846 0.0
C2405 C 0.04725 0.82632 0.74191 0.0
C2406 C -0.00463 0.80136 0.76865 0.0
C2407 C 0.05185 0.8431 0.75893 0.0
C2408 C 0.96825 0.80863 0.79757 0.0
C2409 C 0.91685 0.74041 0.7949 0.0
N2410 N 0.02608 0.83043 0.77171 0.0
N2411 N 0.94252 0.75447 0.7822 0.0
H2412 H 0.10589 0.20441 0.75505 0.0
H2413 H 0.26452 0.19205 0.79625 0.0
H2414 H 0.19831 0.23033 0.7247 0.0
H2415 H 0.16221 0.12951 0.81778 0.0
H2416 H 0.24164 0.21339 0.77222 0.0
H2417 H 0.12689 0.18318 0.78068 0.0
C2418 C 0.1305 0.20567 0.75381 0.0
C2419 C 0.15038 0.21904 0.73777 0.0
C2420 C 0.22414 0.19506 0.78222 0.0
C2421 C 0.17452 0.19547 0.76678 0.0
C2422 C 0.23721 0.1829 0.79593 0.0
C2423 C 0.21522 0.1592 0.80903 0.0
C2424 C 0.18881 0.18359 0.78167 0.0
C2425 C 0.18003 0.1482 0.80804 0.0
C2426 C 0.14238 0.19352 0.76834 0.0
C2427 C 0.18206 0.22013 0.73677 0.0
N2428 N 0.16783 0.16057 0.79459 0.0
N2429 N 0.19317 0.20868 0.75106 0.0
H2430 H 0.85142 0.04264 0.80971 0.0
H2431 H 0.70122 0.92241 0.74132 0.0
H2432 H 0.77129 0.06451 0.79492 0.0
H2433 H 0.80369 0.939 0.73459 0.0
H2434 H 0.72291 0.96853 0.76446 0.0
H2435 H 0.8307 -0.00191 0.78566 0.0
C2436 C 0.82944 0.03797 0.80139 0.0
C2437 C 0.81296 0.05711 0.80421 0.0
C2438 C 0.74061 0.96208 0.75788 0.0
C2439 C 0.78909 0.00631 0.77696 0.0
C2440 C 0.72827 0.93573 0.74479 0.0
C2441 C 0.75076 0.92696 0.73617 0.0
C2442 C 0.77551 0.97913 0.76266 0.0
C2443 C 0.78559 0.9451 0.74098 0.0
C2444 C 0.81779 0.01276 0.78765 0.0
C2445 C 0.78472 0.05031 0.79306 0.0
N2446 N 0.7969 0.97016 0.75408 0.0
N2447 N 0.77342 0.02519 0.78001 0.0
H2448 H 0.62734 0.5241 0.67394 0.0
H2449 H 0.68574 0.499 0.57369 0.0
H2450 H 0.55944 0.43956 0.63883 0.0
H2451 H 0.73257 0.59469 0.60373 0.0
H2452 H 0.64197 0.47309 0.59809 0.0
H2453 H 0.66977 0.54593 0.64941 0.0
C2454 C 0.62151 0.50984 0.66109 0.0
C2455 C 0.58991 0.47984 0.65843 0.0
C2456 C 0.66177 0.49977 0.59925 0.0
C2457 C 0.63837 0.50521 0.63001 0.0
C2458 C 0.68657 0.51458 0.58533 0.0
C2459 C 0.71243 0.54911 0.58665 0.0
C2460 C 0.66344 0.51958 0.61466 0.0
C2461 C 0.713 0.56801 0.60217 0.0
C2462 C 0.64568 0.52254 0.647 0.0
C2463 C 0.58356 0.4628 0.64137 0.0
N2464 N 0.68893 0.55297 0.61559 0.0
N2465 N 0.60768 0.47575 0.62771 0.0
H2466 H 0.52333 0.13872 0.65642 0.0
H2467 H 0.36056 0.11293 0.59975 0.0
H2468 H 0.4338 0.03892 0.64937 0.0
H2469 H 0.46333 0.18994 0.58456 0.0
H2470 H 0.38447 0.08974 0.62246 0.0
H2471 H 0.49901 0.16268 0.63442 0.0
C2472 C 0.49841 0.12201 0.65035 0.0
C2473 C 0.48034 0.08696 0.65468 0.0
C2474 C 0.40171 0.11172 0.61414 0.0
C2475 C 0.45257 0.11391 0.62972 0.0
C2476 C 0.38814 0.125 0.60129 0.0
C2477 C 0.41011 0.15326 0.59034 0.0
C2478 C 0.43741 0.12736 0.61626 0.0
C2479 C 0.44563 0.16799 0.59274 0.0
C2480 C 0.48473 0.13556 0.63774 0.0
C2481 C 0.44848 0.0661 0.64626 0.0
N2482 N 0.45825 0.155 0.60557 0.0
N2483 N 0.4354 0.07995 0.63425 0.0
H2484 H 0.82652 0.36487 0.66137 0.0
H2485 H 0.85993 0.24949 0.59098 0.0
H2486 H 0.92873 0.39046 0.6449 0.0
H2487 H 0.77713 0.27006 0.58144 0.0
H2488 H 0.88122 0.29228 0.61589 0.0
H2489 H 0.80315 0.3204 0.63703 0.0
C2490 C 0.84393 0.36092 0.65271 0.0
C2491 C 0.87951 0.38132 0.65495 0.0
C2492 C 0.85837 0.28734 0.60835 0.0
C2493 C 0.85324 0.33073 0.62761 0.0
C2494 C 0.84621 0.26298 0.59421 0.0
C2495 C 0.81684 0.25644 0.58422 0.0
C2496 C 0.84052 0.30459 0.6128 0.0
C2497 C 0.79999 0.27461 0.58884 0.0
C2498 C 0.83066 0.33583 0.63884 0.0
C2499 C 0.90112 0.37538 0.64345 0.0
N2500 N 0.8119 0.29775 0.60297 0.0
N2501 N 0.88765 0.35043 0.63035 0.0
H2502 H 0.70253 0.19237 0.07115 0.0
H2503 H 0.57627 0.03412 0.13373 0.0
H2504 H 0.71508 0.10392 0.07831 0.0
H2505 H 0.6035 0.13776 0.14831 0.0
H2506 H 0.61993 0.05674 0.1093 0.0
H2507 H 0.65829 0.17001 0.09544 0.0
C2508 C 0.69564 0.16808 0.07772 0.0
C2509 C 0.71209 0.14973 0.07276 0.0
C2510 C 0.61634 0.07449 0.11788 0.0
C2511 C 0.66204 0.12426 0.10031 0.0
C2512 C 0.59146 0.06164 0.13173 0.0
C2513 C 0.58648 0.0842 0.14296 0.0
C2514 C 0.63578 0.11007 0.11502 0.0
C2515 C 0.60679 0.11963 0.13992 0.0
C2516 C 0.67076 0.15556 0.09164 0.0
C2517 C 0.7029 0.11876 0.08184 0.0
N2518 N 0.63045 0.13155 0.12608 0.0
N2519 N 0.67822 0.10679 0.09511 0.0
H2520 H 0.89289 0.53091 0.1619 0.0
H2521 H 0.80634 0.50116 0.0623 0.0
H2522 H 0.87478 0.44426 0.12812 0.0
H2523 H 0.85645 0.59881 0.09042 0.0
H2524 H 0.82669 0.47718 0.0866 0.0
H2525 H 0.87425 0.55318 0.1365 0.0
C2526 C 0.88492 0.5165 0.14908 0.0
C2527 C 0.8853 0.48564 0.1471 0.0
C2528 C 0.83338 0.50389 0.08735 0.0
C2529 C 0.86391 0.51119 0.11779 0.0
C2530 C 0.8219 0.51759 0.07349 0.0
C2531 C 0.82996 0.55204 0.07436 0.0
C2532 C 0.85252 0.52474 0.10225 0.0
C2533 C 0.84962 0.57211 0.08927 0.0
C2534 C 0.8744 0.52935 0.13453 0.0
C2535 C 0.87485 0.46817 0.13014 0.0
N2536 N 0.86007 0.55812 0.10266 0.0
N2537 N 0.86436 0.48113 0.11609 0.0
H2538 H 0.43533 0.39566 0.13192 0.0
H2539 H 0.46373 0.26754 0.06875 0.0
H2540 H 0.51559 0.37189 0.14276 0.0
H2541 H 0.36319 0.2554 0.07665 0.0
H2542 H 0.48612 0.31144 0.09303 0.0
H2543 H 0.41097 0.34948 0.10879 0.0
C2544 C 0.44781 0.38072 0.12938 0.0
C2545 C 0.47752 0.38753 0.13912 0.0
C2546 C 0.45913 0.29902 0.08952 0.0
C2547 C 0.45017 0.33523 0.11272 0.0
C2548 C 0.44638 0.27412 0.07567 0.0
C2549 C 0.41158 0.25783 0.07085 0.0
C2550 C 0.43702 0.30815 0.09835 0.0
C2551 C 0.39015 0.26726 0.08013 0.0
C2552 C 0.43384 0.35434 0.11629 0.0
C2553 C 0.49263 0.36736 0.13549 0.0
N2554 N 0.40329 0.29209 0.09338 0.0
N2555 N 0.47897 0.34229 0.12242 0.0
H2556 H 0.41927 0.88035 0.93784 0.0
H2557 H 0.24177 0.85662 0.97578 0.0
H2558 H 0.34739 0.89581 0.90543 0.0
H2559 H 0.29145 0.80704 1.00251 0.0
H2560 H 0.28559 0.87783 0.95181 0.0
H2561 H 0.37763 0.85924 0.96363 0.0
C2562 C 0.39482 0.8793 0.93618 0.0
C2563 C 0.38666 0.88974 0.91953 0.0
C2564 C 0.28706 0.86236 0.96291 0.0
C2565 C 0.33952 0.86621 0.94872 0.0
C2566 C 0.26203 0.85026 0.97661 0.0
C2567 C 0.26311 0.83017 0.99115 0.0
C2568 C 0.31357 0.85443 0.9637 0.0
C2569 C 0.29005 0.82284 0.99161 0.0
C2570 C 0.37113 0.86722 0.95081 0.0
C2571 C 0.35471 0.88791 0.918 0.0
N2572 N 0.31437 0.83503 0.97804 0.0
N2573 N 0.33246 0.87654 0.93239 0.0
H2574 H 0.17111 0.48328 1.00015 0.0
H2575 H 0.07597 0.45068 0.9032 0.0
H2576 H 0.11623 0.38447 0.97345 0.0
H2577 H 0.09089 0.53557 0.93757 0.0
H2578 H 0.09756 0.43014 0.92797 0.0
H2579 H 0.14775 0.50662 0.97698 0.0
C2580 C 0.15387 0.46646 0.98957 0.0
C2581 C 0.14534 0.43184 0.98876 0.0
C2582 C 0.09604 0.45319 0.93023 0.0
C2583 C 0.1195 0.4584 0.96212 0.0
C2584 C 0.08381 0.46506 0.91603 0.0
C2585 C 0.08159 0.49488 0.91834 0.0
C2586 C 0.10653 0.47131 0.94698 0.0
C2587 C 0.0921 0.51238 0.93531 0.0
C2588 C 0.14069 0.47979 0.97636 0.0
C2589 C 0.12353 0.41131 0.97457 0.0
N2590 N 0.10438 0.50042 0.94904 0.0
N2591 N 0.11159 0.42493 0.96179 0.0
H2592 H 0.44951 0.60352 0.91696 0.0
H2593 H 0.60603 0.72194 0.98232 0.0
H2594 H 0.5298 0.58 0.92834 0.0
H2595 H 0.50437 0.70547 0.99238 0.0
H2596 H 0.58224 0.67633 0.95883 0.0
H2597 H 0.47312 0.64803 0.94098 0.0
C2598 C 0.47213 0.60781 0.92454 0.0
C2599 C 0.48772 0.5881 0.92084 0.0
C2600 C 0.56521 0.68274 0.96622 0.0
C2601 C 0.51496 0.63898 0.94797 0.0
C2602 C 0.57873 0.70878 0.97949 0.0
C2603 C 0.55704 0.71738 0.98915 0.0
C2604 C 0.52994 0.66589 0.96234 0.0
C2605 C 0.52186 0.69948 0.98517 0.0
C2606 C 0.48545 0.63302 0.93824 0.0
C2607 C 0.51696 0.59457 0.93095 0.0
N2608 N 0.50938 0.67473 0.97191 0.0
N2609 N 0.52987 0.61972 0.94401 0.0
H2610 H 0.25966 0.47147 0.4763 0.0
H2611 H 0.37776 0.43365 0.41123 0.0
H2612 H 0.23352 0.36769 0.46279 0.0
H2613 H 0.36103 0.51847 0.39975 0.0
H2614 H 0.33118 0.4119 0.43404 0.0
H2615 H 0.30383 0.49264 0.452 0.0
C2616 C 0.26329 0.45322 0.4682 0.0
C2617 C 0.24305 0.41786 0.47142 0.0
C2618 C 0.33767 0.4352 0.42647 0.0
C2619 C 0.29342 0.44173 0.44404 0.0
C2620 C 0.36423 0.44766 0.41356 0.0
C2621 C 0.37309 0.47785 0.40372 0.0
C2622 C 0.32056 0.4536 0.42985 0.0
C2623 C 0.35479 0.49504 0.4071 0.0
C2624 C 0.28826 0.46526 0.45435 0.0
C2625 C 0.24858 0.39516 0.46061 0.0
N2626 N 0.32955 0.48288 0.4201 0.0
N2627 N 0.27355 0.40751 0.4475 0.0
H2628 H 0.46361 0.83241 0.39793 0.0
H2629 H 0.5617 0.86666 0.49405 0.0
H2630 H 0.52388 0.93227 0.42286 0.0
H2631 H 0.53429 0.77448 0.46302 0.0
H2632 H 0.54346 0.88843 0.46843 0.0
H2633 H 0.48537 0.80824 0.42151 0.0
C2634 C 0.48168 0.84926 0.40823 0.0
C2635 C 0.49206 0.88439 0.40847 0.0
C2636 C 0.54152 0.86351 0.46704 0.0
C2637 C 0.51636 0.85698 0.4355 0.0
C2638 C 0.55184 0.85092 0.48177 0.0
C2639 C 0.54948 0.81864 0.4807 0.0
C2640 C 0.52824 0.84366 0.45099 0.0
C2641 C 0.53662 0.79957 0.46433 0.0
C2642 C 0.49399 0.83546 0.42166 0.0
C2643 C 0.51509 0.90503 0.42221 0.0
N2644 N 0.52614 0.81227 0.45008 0.0
N2645 N 0.52624 0.891 0.43519 0.0
H2646 H 0.18404 0.71501 0.48089 0.0
H2647 H 0.03392 0.58968 0.41431 0.0
H2648 H 0.0995 0.73146 0.46829 0.0
H2649 H 0.13794 0.61154 0.40636 0.0
H2650 H 0.05444 0.6363 0.4371 0.0
H2651 H 0.16452 0.67131 0.45656 0.0
C2652 C 0.16136 0.70938 0.47296 0.0
C2653 C 0.14329 0.72676 0.47649 0.0
C2654 C 0.07275 0.63096 0.43029 0.0
C2655 C 0.12073 0.67675 0.44891 0.0
C2656 C 0.06108 0.60433 0.41742 0.0
C2657 C 0.08438 0.59696 0.40855 0.0
C2658 C 0.1078 0.64965 0.43461 0.0
C2659 C 0.11928 0.61666 0.41291 0.0
C2660 C 0.15037 0.68463 0.45906 0.0
C2661 C 0.11413 0.71864 0.46587 0.0
N2662 N 0.12997 0.64197 0.42581 0.0
N2663 N 0.10349 0.69389 0.45262 0.0
loop_
_geom_bond_atom_site_label_1
_geom_bond_atom_site_label_2
_geom_bond_distance
_geom_bond_site_symmetry_2
_ccdc_geom_bond_type
Tb0 O3 2.453 . S
Tb0 O4 2.596 . S
Tb0 O5 2.374 . S
Tb0 O13 2.343 . S
Tb0 O15 2.353 . S
Tb0 O17 2.427 . S
Tb0 O18 2.513 . S
C1 O5 1.251 . S
C1 O7 1.263 . S
Tb2 O4 2.343 . S
Tb2 O7 2.353 . S
Tb2 O10 2.427 . S
Tb2 O11 2.513 . S
Tb2 O12 2.453 . S
Tb2 O13 2.596 . S
Tb2 O14 2.374 . S
O3 Tb0 2.453 . S
O3 C19 1.245 . S
O4 Tb0 2.596 . S
O4 Tb2 2.343 . S
O4 C19 1.259 . S
O5 Tb0 2.374 . S
O5 C1 1.251 . S
C6 O10 1.275 . S
C6 O11 1.246 . S
O7 C1 1.263 . S
O7 Tb2 2.353 . S
C8 O12 1.245 . S
C8 O13 1.259 . S
C9 O14 1.250 . S
C9 O15 1.263 . S
O10 Tb2 2.427 . S
O10 C6 1.275 . S
O11 Tb2 2.513 . S
O11 C6 1.246 . S
O12 Tb2 2.453 . S
O12 C8 1.245 . S
O13 Tb0 2.343 . S
O13 Tb2 2.596 . S
O13 C8 1.259 . S
O14 Tb2 2.374 . S
O14 C9 1.250 . S
O15 Tb0 2.353 . S
O15 C9 1.263 . S
C16 O17 1.275 . S
C16 O18 1.246 . S
O17 Tb0 2.427 . S
O17 C16 1.275 . S
O18 Tb0 2.513 . S
O18 C16 1.246 . S
C19 O3 1.245 . S
C19 O4 1.259 . S
Tb20 O23 2.453 . S
Tb20 O24 2.596 . S
Tb20 O25 2.374 . S
Tb20 O33 2.343 . S
Tb20 O35 2.353 . S
Tb20 O37 2.427 . S
Tb20 O38 2.513 . S
C21 O25 1.251 . S
C21 O27 1.263 . S
Tb22 O24 2.343 . S
Tb22 O27 2.353 . S
Tb22 O30 2.427 . S
Tb22 O31 2.513 . S
Tb22 O32 2.453 . S
Tb22 O33 2.596 . S
Tb22 O34 2.374 . S
O23 Tb20 2.453 . S
O23 C39 1.245 . S
O24 Tb20 2.596 . S
O24 Tb22 2.343 . S
O24 C39 1.259 . S
O25 Tb20 2.374 . S
O25 C21 1.251 . S
C26 O30 1.275 . S
C26 O31 1.246 . S
O27 C21 1.263 . S
O27 Tb22 2.353 . S
C28 O32 1.245 . S
C28 O33 1.259 . S
C29 O34 1.250 . S
C29 O35 1.263 . S
O30 Tb22 2.427 . S
O30 C26 1.275 . S
O31 Tb22 2.513 . S
O31 C26 1.246 . S
O32 Tb22 2.453 . S
O32 C28 1.245 . S
O33 Tb20 2.343 . S
O33 Tb22 2.596 . S
O33 C28 1.259 . S
O34 Tb22 2.374 . S
O34 C29 1.250 . S
O35 Tb20 2.353 . S
O35 C29 1.263 . S
C36 O37 1.275 . S
C36 O38 1.246 . S
O37 Tb20 2.427 . S
O37 C36 1.275 . S
O38 Tb20 2.513 . S
O38 C36 1.246 . S
C39 O23 1.245 . S
C39 O24 1.259 . S
Tb40 O43 2.453 . S
Tb40 O44 2.596 . S
Tb40 O45 2.374 . S
Tb40 O53 2.343 . S
Tb40 O55 2.353 . S
Tb40 O57 2.427 . S
Tb40 O58 2.513 . S
C41 O45 1.251 . S
C41 O47 1.263 . S
Tb42 O44 2.343 . S
Tb42 O47 2.353 . S
Tb42 O50 2.427 . S
Tb42 O51 2.513 . S
Tb42 O52 2.453 . S
Tb42 O53 2.596 . S
Tb42 O54 2.374 . S
O43 Tb40 2.453 . S
O43 C59 1.245 . S
O44 Tb40 2.596 . S
O44 Tb42 2.343 . S
O44 C59 1.259 . S
O45 Tb40 2.374 . S
O45 C41 1.251 . S
C46 O50 1.275 . S
C46 O51 1.246 . S
O47 C41 1.263 . S
O47 Tb42 2.353 . S
C48 O52 1.245 . S
C48 O53 1.259 . S
C49 O54 1.250 . S
C49 O55 1.263 . S
O50 Tb42 2.427 . S
O50 C46 1.275 . S
O51 Tb42 2.513 . S
O51 C46 1.246 . S
O52 Tb42 2.453 . S
O52 C48 1.245 . S
O53 Tb40 2.343 . S
O53 Tb42 2.596 . S
O53 C48 1.259 . S
O54 Tb42 2.374 . S
O54 C49 1.250 . S
O55 Tb40 2.353 . S
O55 C49 1.263 . S
C56 O57 1.275 . S
C56 O58 1.246 . S
O57 Tb40 2.427 . S
O57 C56 1.275 . S
O58 Tb40 2.513 . S
O58 C56 1.246 . S
C59 O43 1.245 . S
C59 O44 1.259 . S
Tb60 O63 2.453 . S
Tb60 O64 2.596 . S
Tb60 O65 2.374 . S
Tb60 O73 2.343 . S
Tb60 O75 2.353 . S
Tb60 O77 2.427 . S
Tb60 O78 2.513 . S
C61 O65 1.251 . S
C61 O67 1.263 . S
Tb62 O64 2.343 . S
Tb62 O67 2.353 . S
Tb62 O70 2.427 . S
Tb62 O71 2.513 . S
Tb62 O72 2.453 . S
Tb62 O73 2.596 . S
Tb62 O74 2.374 . S
O63 Tb60 2.453 . S
O63 C79 1.245 . S
O64 Tb60 2.596 . S
O64 Tb62 2.343 . S
O64 C79 1.259 . S
O65 Tb60 2.374 . S
O65 C61 1.251 . S
C66 O70 1.275 . S
C66 O71 1.246 . S
O67 C61 1.263 . S
O67 Tb62 2.353 . S
C68 O72 1.245 . S
C68 O73 1.259 . S
C69 O74 1.250 . S
C69 O75 1.263 . S
O70 Tb62 2.427 . S
O70 C66 1.275 . S
O71 Tb62 2.513 . S
O71 C66 1.246 . S
O72 Tb62 2.453 . S
O72 C68 1.245 . S
O73 Tb60 2.343 . S
O73 Tb62 2.596 . S
O73 C68 1.259 . S
O74 Tb62 2.374 . S
O74 C69 1.250 . S
O75 Tb60 2.353 . S
O75 C69 1.263 . S
C76 O77 1.275 . S
C76 O78 1.246 . S
O77 Tb60 2.427 . S
O77 C76 1.275 . S
O78 Tb60 2.513 . S
O78 C76 1.246 . S
C79 O63 1.245 . S
C79 O64 1.259 . S
Tb80 O83 2.453 . S
Tb80 O84 2.596 . S
Tb80 O85 2.374 . S
Tb80 O93 2.343 . S
Tb80 O95 2.353 . S
Tb80 O97 2.427 . S
Tb80 O98 2.513 . S
C81 O85 1.251 . S
C81 O87 1.263 . S
Tb82 O84 2.343 . S
Tb82 O87 2.353 . S
Tb82 O90 2.427 . S
Tb82 O91 2.513 . S
Tb82 O92 2.453 . S
Tb82 O93 2.596 . S
Tb82 O94 2.374 . S
O83 Tb80 2.453 . S
O83 C99 1.245 . S
O84 Tb80 2.596 . S
O84 Tb82 2.343 . S
O84 C99 1.259 . S
O85 Tb80 2.374 . S
O85 C81 1.251 . S
C86 O90 1.275 . S
C86 O91 1.246 . S
O87 C81 1.263 . S
O87 Tb82 2.353 . S
C88 O92 1.245 . S
C88 O93 1.259 . S
C89 O94 1.250 . S
C89 O95 1.263 . S
O90 Tb82 2.427 . S
O90 C86 1.275 . S
O91 Tb82 2.513 . S
O91 C86 1.246 . S
O92 Tb82 2.453 . S
O92 C88 1.245 . S
O93 Tb80 2.343 . S
O93 Tb82 2.596 . S
O93 C88 1.259 . S
O94 Tb82 2.374 . S
O94 C89 1.250 . S
O95 Tb80 2.353 . S
O95 C89 1.263 . S
C96 O97 1.275 . S
C96 O98 1.246 . S
O97 Tb80 2.427 . S
O97 C96 1.275 . S
O98 Tb80 2.513 . S
O98 C96 1.246 . S
C99 O83 1.245 . S
C99 O84 1.259 . S
Tb100 O103 2.453 . S
Tb100 O104 2.596 . S
Tb100 O105 2.374 . S
Tb100 O113 2.343 . S
Tb100 O115 2.353 . S
Tb100 O117 2.427 . S
Tb100 O118 2.513 . S
C101 O105 1.251 . S
C101 O107 1.263 . S
Tb102 O104 2.343 . S
Tb102 O107 2.353 . S
Tb102 O110 2.427 . S
Tb102 O111 2.513 . S
Tb102 O112 2.453 . S
Tb102 O113 2.596 . S
Tb102 O114 2.374 . S
O103 Tb100 2.453 . S
O103 C119 1.245 . S
O104 Tb100 2.596 . S
O104 Tb102 2.343 . S
O104 C119 1.259 . S
O105 Tb100 2.374 . S
O105 C101 1.251 . S
C106 O110 1.275 . S
C106 O111 1.246 . S
O107 C101 1.263 . S
O107 Tb102 2.353 . S
C108 O112 1.245 . S
C108 O113 1.259 . S
C109 O114 1.250 . S
C109 O115 1.263 . S
O110 Tb102 2.427 . S
O110 C106 1.275 . S
O111 Tb102 2.513 . S
O111 C106 1.246 . S
O112 Tb102 2.453 . S
O112 C108 1.245 . S
O113 Tb100 2.343 . S
O113 Tb102 2.596 . S
O113 C108 1.259 . S
O114 Tb102 2.374 . S
O114 C109 1.250 . S
O115 Tb100 2.353 . S
O115 C109 1.263 . S
C116 O117 1.275 . S
C116 O118 1.246 . S
O117 Tb100 2.427 . S
O117 C116 1.275 . S
O118 Tb100 2.513 . S
O118 C116 1.246 . S
C119 O103 1.245 . S
C119 O104 1.259 . S
Tb120 O123 2.453 . S
Tb120 O124 2.596 . S
Tb120 O125 2.374 . S
Tb120 O133 2.343 . S
Tb120 O135 2.353 . S
Tb120 O137 2.427 . S
Tb120 O138 2.513 . S
C121 O125 1.251 . S
C121 O127 1.263 . S
Tb122 O124 2.343 . S
Tb122 O127 2.353 . S
Tb122 O130 2.427 . S
Tb122 O131 2.513 . S
Tb122 O132 2.453 . S
Tb122 O133 2.596 . S
Tb122 O134 2.374 . S
O123 Tb120 2.453 . S
O123 C139 1.245 . S
O124 Tb120 2.596 . S
O124 Tb122 2.343 . S
O124 C139 1.259 . S
O125 Tb120 2.374 . S
O125 C121 1.251 . S
C126 O130 1.275 . S
C126 O131 1.246 . S
O127 C121 1.263 . S
O127 Tb122 2.353 . S
C128 O132 1.245 . S
C128 O133 1.259 . S
C129 O134 1.250 . S
C129 O135 1.263 . S
O130 Tb122 2.427 . S
O130 C126 1.275 . S
O131 Tb122 2.513 . S
O131 C126 1.246 . S
O132 Tb122 2.453 . S
O132 C128 1.245 . S
O133 Tb120 2.343 . S
O133 Tb122 2.596 . S
O133 C128 1.259 . S
O134 Tb122 2.374 . S
O134 C129 1.250 . S
O135 Tb120 2.353 . S
O135 C129 1.263 . S
C136 O137 1.275 . S
C136 O138 1.246 . S
O137 Tb120 2.427 . S
O137 C136 1.275 . S
O138 Tb120 2.513 . S
O138 C136 1.246 . S
C139 O123 1.245 . S
C139 O124 1.259 . S
Tb140 O143 2.453 . S
Tb140 O144 2.596 . S
Tb140 O145 2.374 . S
Tb140 O153 2.343 . S
Tb140 O155 2.353 . S
Tb140 O157 2.427 . S
Tb140 O158 2.513 . S
C141 O145 1.251 . S
C141 O147 1.263 . S
Tb142 O144 2.343 . S
Tb142 O147 2.353 . S
Tb142 O150 2.427 . S
Tb142 O151 2.513 . S
Tb142 O152 2.453 . S
Tb142 O153 2.596 . S
Tb142 O154 2.374 . S
O143 Tb140 2.453 . S
O143 C159 1.245 . S
O144 Tb140 2.596 . S
O144 Tb142 2.343 . S
O144 C159 1.259 . S
O145 Tb140 2.374 . S
O145 C141 1.251 . S
C146 O150 1.275 . S
C146 O151 1.246 . S
O147 C141 1.263 . S
O147 Tb142 2.353 . S
C148 O152 1.245 . S
C148 O153 1.259 . S
C149 O154 1.250 . S
C149 O155 1.263 . S
O150 Tb142 2.427 . S
O150 C146 1.275 . S
O151 Tb142 2.513 . S
O151 C146 1.246 . S
O152 Tb142 2.453 . S
O152 C148 1.245 . S
O153 Tb140 2.343 . S
O153 Tb142 2.596 . S
O153 C148 1.259 . S
O154 Tb142 2.374 . S
O154 C149 1.250 . S
O155 Tb140 2.353 . S
O155 C149 1.263 . S
C156 O157 1.275 . S
C156 O158 1.246 . S
O157 Tb140 2.427 . S
O157 C156 1.275 . S
O158 Tb140 2.513 . S
O158 C156 1.246 . S
C159 O143 1.245 . S
C159 O144 1.259 . S
Tb160 O163 2.453 . S
Tb160 O164 2.596 . S
Tb160 O165 2.374 . S
Tb160 O173 2.343 . S
Tb160 O175 2.353 . S
Tb160 O177 2.427 . S
Tb160 O178 2.513 . S
C161 O165 1.251 . S
C161 O167 1.263 . S
Tb162 O164 2.343 . S
Tb162 O167 2.353 . S
Tb162 O170 2.427 . S
Tb162 O171 2.513 . S
Tb162 O172 2.453 . S
Tb162 O173 2.596 . S
Tb162 O174 2.374 . S
O163 Tb160 2.453 . S
O163 C179 1.245 . S
O164 Tb160 2.596 . S
O164 Tb162 2.343 . S
O164 C179 1.259 . S
O165 Tb160 2.374 . S
O165 C161 1.251 . S
C166 O170 1.275 . S
C166 O171 1.246 . S
O167 C161 1.263 . S
O167 Tb162 2.353 . S
C168 O172 1.245 . S
C168 O173 1.259 . S
C169 O174 1.250 . S
C169 O175 1.263 . S
O170 Tb162 2.427 . S
O170 C166 1.275 . S
O171 Tb162 2.513 . S
O171 C166 1.246 . S
O172 Tb162 2.453 . S
O172 C168 1.245 . S
O173 Tb160 2.343 . S
O173 Tb162 2.596 . S
O173 C168 1.259 . S
O174 Tb162 2.374 . S
O174 C169 1.250 . S
O175 Tb160 2.353 . S
O175 C169 1.263 . S
C176 O177 1.275 . S
C176 O178 1.246 . S
O177 Tb160 2.427 . S
O177 C176 1.275 . S
O178 Tb160 2.513 . S
O178 C176 1.246 . S
C179 O163 1.245 . S
C179 O164 1.259 . S
Tb180 O183 2.453 . S
Tb180 O184 2.596 . S
Tb180 O185 2.374 . S
Tb180 O193 2.343 . S
Tb180 O195 2.353 . S
Tb180 O197 2.427 . S
Tb180 O198 2.513 . S
C181 O185 1.251 . S
C181 O187 1.263 . S
Tb182 O184 2.343 . S
Tb182 O187 2.353 . S
Tb182 O190 2.427 . S
Tb182 O191 2.513 . S
Tb182 O192 2.453 . S
Tb182 O193 2.596 . S
Tb182 O194 2.374 . S
O183 Tb180 2.453 . S
O183 C199 1.245 . S
O184 Tb180 2.596 . S
O184 Tb182 2.343 . S
O184 C199 1.259 . S
O185 Tb180 2.374 . S
O185 C181 1.251 . S
C186 O190 1.275 . S
C186 O191 1.246 . S
O187 C181 1.263 . S
O187 Tb182 2.353 . S
C188 O192 1.245 . S
C188 O193 1.259 . S
C189 O194 1.250 . S
C189 O195 1.263 . S
O190 Tb182 2.427 . S
O190 C186 1.275 . S
O191 Tb182 2.513 . S
O191 C186 1.246 . S
O192 Tb182 2.453 . S
O192 C188 1.245 . S
O193 Tb180 2.343 . S
O193 Tb182 2.596 . S
O193 C188 1.259 . S
O194 Tb182 2.374 . S
O194 C189 1.250 . S
O195 Tb180 2.353 . S
O195 C189 1.263 . S
C196 O197 1.275 . S
C196 O198 1.246 . S
O197 Tb180 2.427 . S
O197 C196 1.275 . S
O198 Tb180 2.513 . S
O198 C196 1.246 . S
C199 O183 1.245 . S
C199 O184 1.259 . S
Tb200 O203 2.453 . S
Tb200 O204 2.596 . S
Tb200 O205 2.374 . S
Tb200 O213 2.343 . S
Tb200 O215 2.353 . S
Tb200 O217 2.427 . S
Tb200 O218 2.513 . S
C201 O205 1.251 . S
C201 O207 1.263 . S
Tb202 O204 2.343 . S
Tb202 O207 2.353 . S
Tb202 O210 2.427 . S
Tb202 O211 2.513 . S
Tb202 O212 2.453 . S
Tb202 O213 2.596 . S
Tb202 O214 2.374 . S
O203 Tb200 2.453 . S
O203 C219 1.245 . S
O204 Tb200 2.596 . S
O204 Tb202 2.343 . S
O204 C219 1.259 . S
O205 Tb200 2.374 . S
O205 C201 1.251 . S
C206 O210 1.275 . S
C206 O211 1.246 . S
O207 C201 1.263 . S
O207 Tb202 2.353 . S
C208 O212 1.245 . S
C208 O213 1.259 . S
C209 O214 1.250 . S
C209 O215 1.263 . S
O210 Tb202 2.427 . S
O210 C206 1.275 . S
O211 Tb202 2.513 . S
O211 C206 1.246 . S
O212 Tb202 2.453 . S
O212 C208 1.245 . S
O213 Tb200 2.343 . S
O213 Tb202 2.596 . S
O213 C208 1.259 . S
O214 Tb202 2.374 . S
O214 C209 1.250 . S
O215 Tb200 2.353 . S
O215 C209 1.263 . S
C216 O217 1.275 . S
C216 O218 1.246 . S
O217 Tb200 2.427 . S
O217 C216 1.275 . S
O218 Tb200 2.513 . S
O218 C216 1.246 . S
C219 O203 1.245 . S
C219 O204 1.259 . S
Tb220 O223 2.453 . S
Tb220 O224 2.596 . S
Tb220 O225 2.374 . S
Tb220 O233 2.343 . S
Tb220 O235 2.353 . S
Tb220 O237 2.427 . S
Tb220 O238 2.513 . S
C221 O225 1.251 . S
C221 O227 1.263 . S
Tb222 O224 2.343 . S
Tb222 O227 2.353 . S
Tb222 O230 2.427 . S
Tb222 O231 2.513 . S
Tb222 O232 2.453 . S
Tb222 O233 2.596 . S
Tb222 O234 2.374 . S
O223 Tb220 2.453 . S
O223 C239 1.245 . S
O224 Tb220 2.596 . S
O224 Tb222 2.343 . S
O224 C239 1.259 . S
O225 Tb220 2.374 . S
O225 C221 1.251 . S
C226 O230 1.275 . S
C226 O231 1.246 . S
O227 C221 1.263 . S
O227 Tb222 2.353 . S
C228 O232 1.245 . S
C228 O233 1.259 . S
C229 O234 1.250 . S
C229 O235 1.263 . S
O230 Tb222 2.427 . S
O230 C226 1.275 . S
O231 Tb222 2.513 . S
O231 C226 1.246 . S
O232 Tb222 2.453 . S
O232 C228 1.245 . S
O233 Tb220 2.343 . S
O233 Tb222 2.596 . S
O233 C228 1.259 . S
O234 Tb222 2.374 . S
O234 C229 1.250 . S
O235 Tb220 2.353 . S
O235 C229 1.263 . S
C236 O237 1.275 . S
C236 O238 1.246 . S
O237 Tb220 2.427 . S
O237 C236 1.275 . S
O238 Tb220 2.513 . S
O238 C236 1.246 . S
C239 O223 1.245 . S
C239 O224 1.259 . S
Tb240 O243 2.453 . S
Tb240 O244 2.596 . S
Tb240 O245 2.374 . S
Tb240 O253 2.343 . S
Tb240 O255 2.353 . S
Tb240 O257 2.427 . S
Tb240 O258 2.513 . S
C241 O245 1.251 . S
C241 O247 1.263 . S
Tb242 O244 2.343 . S
Tb242 O247 2.353 . S
Tb242 O250 2.427 . S
Tb242 O251 2.513 . S
Tb242 O252 2.453 . S
Tb242 O253 2.596 . S
Tb242 O254 2.374 . S
O243 Tb240 2.453 . S
O243 C259 1.245 . S
O244 Tb240 2.596 . S
O244 Tb242 2.343 . S
O244 C259 1.259 . S
O245 Tb240 2.374 . S
O245 C241 1.251 . S
C246 O250 1.275 . S
C246 O251 1.246 . S
O247 C241 1.263 . S
O247 Tb242 2.353 . S
C248 O252 1.245 . S
C248 O253 1.259 . S
C249 O254 1.250 . S
C249 O255 1.263 . S
O250 Tb242 2.427 . S
O250 C246 1.275 . S
O251 Tb242 2.513 . S
O251 C246 1.246 . S
O252 Tb242 2.453 . S
O252 C248 1.245 . S
O253 Tb240 2.343 . S
O253 Tb242 2.596 . S
O253 C248 1.259 . S
O254 Tb242 2.374 . S
O254 C249 1.250 . S
O255 Tb240 2.353 . S
O255 C249 1.263 . S
C256 O257 1.275 . S
C256 O258 1.246 . S
O257 Tb240 2.427 . S
O257 C256 1.275 . S
O258 Tb240 2.513 . S
O258 C256 1.246 . S
C259 O243 1.245 . S
C259 O244 1.259 . S
Tb260 O263 2.453 . S
Tb260 O264 2.596 . S
Tb260 O265 2.374 . S
Tb260 O273 2.343 . S
Tb260 O275 2.353 . S
Tb260 O277 2.427 . S
Tb260 O278 2.513 . S
C261 O265 1.251 . S
C261 O267 1.263 . S
Tb262 O264 2.343 . S
Tb262 O267 2.353 . S
Tb262 O270 2.427 . S
Tb262 O271 2.513 . S
Tb262 O272 2.453 . S
Tb262 O273 2.596 . S
Tb262 O274 2.374 . S
O263 Tb260 2.453 . S
O263 C279 1.245 . S
O264 Tb260 2.596 . S
O264 Tb262 2.343 . S
O264 C279 1.259 . S
O265 Tb260 2.374 . S
O265 C261 1.251 . S
C266 O270 1.275 . S
C266 O271 1.246 . S
O267 C261 1.263 . S
O267 Tb262 2.353 . S
C268 O272 1.245 . S
C268 O273 1.259 . S
C269 O274 1.250 . S
C269 O275 1.263 . S
O270 Tb262 2.427 . S
O270 C266 1.275 . S
O271 Tb262 2.513 . S
O271 C266 1.246 . S
O272 Tb262 2.453 . S
O272 C268 1.245 . S
O273 Tb260 2.343 . S
O273 Tb262 2.596 . S
O273 C268 1.259 . S
O274 Tb262 2.374 . S
O274 C269 1.250 . S
O275 Tb260 2.353 . S
O275 C269 1.263 . S
C276 O277 1.275 . S
C276 O278 1.246 . S
O277 Tb260 2.427 . S
O277 C276 1.275 . S
O278 Tb260 2.513 . S
O278 C276 1.246 . S
C279 O263 1.245 . S
C279 O264 1.259 . S
Tb280 O283 2.453 . S
Tb280 O284 2.596 . S
Tb280 O285 2.374 . S
Tb280 O293 2.343 . S
Tb280 O295 2.353 . S
Tb280 O297 2.427 . S
Tb280 O298 2.513 . S
C281 O285 1.251 . S
C281 O287 1.263 . S
Tb282 O284 2.343 . S
Tb282 O287 2.353 . S
Tb282 O290 2.427 . S
Tb282 O291 2.513 . S
Tb282 O292 2.453 . S
Tb282 O293 2.596 . S
Tb282 O294 2.374 . S
O283 Tb280 2.453 . S
O283 C299 1.245 . S
O284 Tb280 2.596 . S
O284 Tb282 2.343 . S
O284 C299 1.259 . S
O285 Tb280 2.374 . S
O285 C281 1.251 . S
C286 O290 1.275 . S
C286 O291 1.246 . S
O287 C281 1.263 . S
O287 Tb282 2.353 . S
C288 O292 1.245 . S
C288 O293 1.259 . S
C289 O294 1.250 . S
C289 O295 1.263 . S
O290 Tb282 2.427 . S
O290 C286 1.275 . S
O291 Tb282 2.513 . S
O291 C286 1.246 . S
O292 Tb282 2.453 . S
O292 C288 1.245 . S
O293 Tb280 2.343 . S
O293 Tb282 2.596 . S
O293 C288 1.259 . S
O294 Tb282 2.374 . S
O294 C289 1.250 . S
O295 Tb280 2.353 . S
O295 C289 1.263 . S
C296 O297 1.275 . S
C296 O298 1.246 . S
O297 Tb280 2.427 . S
O297 C296 1.275 . S
O298 Tb280 2.513 . S
O298 C296 1.246 . S
C299 O283 1.245 . S
C299 O284 1.259 . S
Tb300 O303 2.453 . S
Tb300 O304 2.596 . S
Tb300 O305 2.374 . S
Tb300 O313 2.343 . S
Tb300 O315 2.353 . S
Tb300 O317 2.427 1_655 S
Tb300 O318 2.513 . S
C301 O305 1.251 . S
C301 O307 1.263 . S
Tb302 O304 2.343 . S
Tb302 O307 2.353 . S
Tb302 O310 2.427 . S
Tb302 O311 2.513 . S
Tb302 O312 2.453 . S
Tb302 O313 2.596 . S
Tb302 O314 2.374 . S
O303 Tb300 2.453 . S
O303 C319 1.245 . S
O304 Tb300 2.596 . S
O304 Tb302 2.343 . S
O304 C319 1.259 . S
O305 Tb300 2.374 . S
O305 C301 1.251 . S
C306 O310 1.275 . S
C306 O311 1.246 . S
O307 C301 1.263 . S
O307 Tb302 2.353 . S
C308 O312 1.245 . S
C308 O313 1.259 . S
C309 O314 1.250 . S
C309 O315 1.263 . S
O310 Tb302 2.427 . S
O310 C306 1.275 . S
O311 Tb302 2.513 . S
O311 C306 1.246 . S
O312 Tb302 2.453 . S
O312 C308 1.245 . S
O313 Tb300 2.343 . S
O313 Tb302 2.596 . S
O313 C308 1.259 . S
O314 Tb302 2.374 . S
O314 C309 1.250 . S
O315 Tb300 2.353 . S
O315 C309 1.263 . S
C316 O317 1.275 1_655 S
C316 O318 1.246 . S
O317 Tb300 2.427 1_455 S
O317 C316 1.275 1_455 S
O318 Tb300 2.513 . S
O318 C316 1.246 . S
C319 O303 1.245 . S
C319 O304 1.259 . S
Tb320 O323 2.453 . S
Tb320 O324 2.596 . S
Tb320 O325 2.374 . S
Tb320 O333 2.343 . S
Tb320 O335 2.353 . S
Tb320 O337 2.427 . S
Tb320 O338 2.513 . S
C321 O325 1.251 . S
C321 O327 1.263 . S
Tb322 O324 2.343 . S
Tb322 O327 2.353 . S
Tb322 O330 2.427 . S
Tb322 O331 2.513 . S
Tb322 O332 2.453 . S
Tb322 O333 2.596 . S
Tb322 O334 2.374 . S
O323 Tb320 2.453 . S
O323 C339 1.245 . S
O324 Tb320 2.596 . S
O324 Tb322 2.343 . S
O324 C339 1.259 . S
O325 Tb320 2.374 . S
O325 C321 1.251 . S
C326 O330 1.275 . S
C326 O331 1.246 . S
O327 C321 1.263 . S
O327 Tb322 2.353 . S
C328 O332 1.245 . S
C328 O333 1.259 . S
C329 O334 1.250 . S
C329 O335 1.263 . S
O330 Tb322 2.427 . S
O330 C326 1.275 . S
O331 Tb322 2.513 . S
O331 C326 1.246 . S
O332 Tb322 2.453 . S
O332 C328 1.245 . S
O333 Tb320 2.343 . S
O333 Tb322 2.596 . S
O333 C328 1.259 . S
O334 Tb322 2.374 . S
O334 C329 1.250 . S
O335 Tb320 2.353 . S
O335 C329 1.263 . S
C336 O337 1.275 . S
C336 O338 1.246 . S
O337 Tb320 2.427 . S
O337 C336 1.275 . S
O338 Tb320 2.513 . S
O338 C336 1.246 . S
C339 O323 1.245 . S
C339 O324 1.259 . S
Tb340 O343 2.453 . S
Tb340 O344 2.596 . S
Tb340 O345 2.374 . S
Tb340 O353 2.343 . S
Tb340 O355 2.353 . S
Tb340 O357 2.427 1_545 S
Tb340 O358 2.513 . S
C341 O345 1.251 . S
C341 O347 1.263 . S
Tb342 O344 2.343 . S
Tb342 O347 2.353 . S
Tb342 O350 2.427 . S
Tb342 O351 2.513 . S
Tb342 O352 2.453 . S
Tb342 O353 2.596 . S
Tb342 O354 2.374 . S
O343 Tb340 2.453 . S
O343 C359 1.245 . S
O344 Tb340 2.596 . S
O344 Tb342 2.343 . S
O344 C359 1.259 . S
O345 Tb340 2.374 . S
O345 C341 1.251 . S
C346 O350 1.275 . S
C346 O351 1.246 . S
O347 C341 1.263 . S
O347 Tb342 2.353 . S
C348 O352 1.245 . S
C348 O353 1.259 . S
C349 O354 1.250 . S
C349 O355 1.263 . S
O350 Tb342 2.427 . S
O350 C346 1.275 . S
O351 Tb342 2.513 . S
O351 C346 1.246 . S
O352 Tb342 2.453 . S
O352 C348 1.245 . S
O353 Tb340 2.343 . S
O353 Tb342 2.596 . S
O353 C348 1.259 . S
O354 Tb342 2.374 . S
O354 C349 1.250 . S
O355 Tb340 2.353 . S
O355 C349 1.263 . S
C356 O357 1.275 1_545 S
C356 O358 1.246 . S
O357 Tb340 2.427 1_565 S
O357 C356 1.275 1_565 S
O358 Tb340 2.513 . S
O358 C356 1.246 . S
C359 O343 1.245 . S
C359 O344 1.259 . S
Tb360 O363 2.453 . S
Tb360 O364 2.596 . S
Tb360 O365 2.374 . S
Tb360 O373 2.343 . S
Tb360 O375 2.353 . S
Tb360 O377 2.427 . S
Tb360 O378 2.513 . S
C361 O365 1.251 . S
C361 O367 1.263 . S
Tb362 O364 2.343 . S
Tb362 O367 2.353 . S
Tb362 O370 2.427 1_545 S
Tb362 O371 2.513 . S
Tb362 O372 2.453 . S
Tb362 O373 2.596 . S
Tb362 O374 2.374 . S
O363 Tb360 2.453 . S
O363 C379 1.245 . S
O364 Tb360 2.596 . S
O364 Tb362 2.343 . S
O364 C379 1.259 . S
O365 Tb360 2.374 . S
O365 C361 1.251 . S
C366 O370 1.275 1_545 S
C366 O371 1.246 . S
O367 C361 1.263 . S
O367 Tb362 2.353 . S
C368 O372 1.245 . S
C368 O373 1.259 . S
C369 O374 1.250 . S
C369 O375 1.263 . S
O370 Tb362 2.427 1_565 S
O370 C366 1.275 1_565 S
O371 Tb362 2.513 . S
O371 C366 1.246 . S
O372 Tb362 2.453 . S
O372 C368 1.245 . S
O373 Tb360 2.343 . S
O373 Tb362 2.596 . S
O373 C368 1.259 . S
O374 Tb362 2.374 . S
O374 C369 1.250 . S
O375 Tb360 2.353 . S
O375 C369 1.263 . S
C376 O377 1.275 . S
C376 O378 1.246 . S
O377 Tb360 2.427 . S
O377 C376 1.275 . S
O378 Tb360 2.513 . S
O378 C376 1.246 . S
C379 O363 1.245 . S
C379 O364 1.259 . S
Tb380 O383 2.453 . S
Tb380 O384 2.596 . S
Tb380 O385 2.374 . S
Tb380 O393 2.343 . S
Tb380 O395 2.353 . S
Tb380 O397 2.427 . S
Tb380 O398 2.513 . S
C381 O385 1.251 . S
C381 O387 1.263 . S
Tb382 O384 2.343 . S
Tb382 O387 2.353 . S
Tb382 O390 2.427 1_655 S
Tb382 O391 2.513 . S
Tb382 O392 2.453 . S
Tb382 O393 2.596 . S
Tb382 O394 2.374 . S
O383 Tb380 2.453 . S
O383 C399 1.245 . S
O384 Tb380 2.596 . S
O384 Tb382 2.343 . S
O384 C399 1.259 . S
O385 Tb380 2.374 . S
O385 C381 1.251 . S
C386 O390 1.275 1_655 S
C386 O391 1.246 . S
O387 C381 1.263 . S
O387 Tb382 2.353 . S
C388 O392 1.245 . S
C388 O393 1.259 . S
C389 O394 1.250 . S
C389 O395 1.263 . S
O390 Tb382 2.427 1_455 S
O390 C386 1.275 1_455 S
O391 Tb382 2.513 . S
O391 C386 1.246 . S
O392 Tb382 2.453 . S
O392 C388 1.245 . S
O393 Tb380 2.343 . S
O393 Tb382 2.596 . S
O393 C388 1.259 . S
O394 Tb382 2.374 . S
O394 C389 1.250 . S
O395 Tb380 2.353 . S
O395 C389 1.263 . S
C396 O397 1.275 . S
C396 O398 1.246 . S
O397 Tb380 2.427 . S
O397 C396 1.275 . S
O398 Tb380 2.513 . S
O398 C396 1.246 . S
C399 O383 1.245 . S
C399 O384 1.259 . S
Tb400 O403 2.453 . S
Tb400 O404 2.596 . S
Tb400 O405 2.374 . S
Tb400 O413 2.343 . S
Tb400 O415 2.353 . S
Tb400 O417 2.427 . S
Tb400 O418 2.513 . S
C401 O405 1.251 . S
C401 O407 1.263 . S
Tb402 O404 2.343 . S
Tb402 O407 2.353 . S
Tb402 O410 2.427 . S
Tb402 O411 2.513 . S
Tb402 O412 2.453 . S
Tb402 O413 2.596 . S
Tb402 O414 2.374 . S
O403 Tb400 2.453 . S
O403 C419 1.245 . S
O404 Tb400 2.596 . S
O404 Tb402 2.343 . S
O404 C419 1.259 . S
O405 Tb400 2.374 . S
O405 C401 1.251 . S
C406 O410 1.275 . S
C406 O411 1.246 . S
O407 C401 1.263 . S
O407 Tb402 2.353 . S
C408 O412 1.245 . S
C408 O413 1.259 . S
C409 O414 1.250 . S
C409 O415 1.263 . S
O410 Tb402 2.427 . S
O410 C406 1.275 . S
O411 Tb402 2.513 . S
O411 C406 1.246 . S
O412 Tb402 2.453 . S
O412 C408 1.245 . S
O413 Tb400 2.343 . S
O413 Tb402 2.596 . S
O413 C408 1.259 . S
O414 Tb402 2.374 . S
O414 C409 1.250 . S
O415 Tb400 2.353 . S
O415 C409 1.263 . S
C416 O417 1.275 . S
C416 O418 1.246 . S
O417 Tb400 2.427 . S
O417 C416 1.275 . S
O418 Tb400 2.513 . S
O418 C416 1.246 . S
C419 O403 1.245 . S
C419 O404 1.259 . S
Tb420 O423 2.453 . S
Tb420 O424 2.596 . S
Tb420 O425 2.374 . S
Tb420 O433 2.343 1_556 S
Tb420 O435 2.353 . S
Tb420 O437 2.427 . S
Tb420 O438 2.532 . S
C421 O425 1.251 . S
C421 O427 1.263 1_556 S
Tb422 O424 2.343 1_554 S
Tb422 O427 2.353 . S
Tb422 O430 2.427 . S
Tb422 O431 2.525 . S
Tb422 O432 2.453 . S
Tb422 O433 2.596 . S
Tb422 O434 2.374 . S
O423 Tb420 2.453 . S
O423 C439 1.245 . S
O424 Tb420 2.596 . S
O424 Tb422 2.343 1_556 S
O424 C439 1.259 . S
O425 Tb420 2.374 . S
O425 C421 1.251 . S
C426 O430 1.269 1_556 S
C426 O431 1.245 1_556 S
O427 C421 1.263 1_554 S
O427 Tb422 2.353 . S
C428 O432 1.245 . S
C428 O433 1.259 . S
C429 O434 1.250 . S
C429 O435 1.263 1_554 S
O430 Tb422 2.427 . S
O430 C426 1.269 1_554 S
O431 Tb422 2.525 . S
O431 C426 1.245 1_554 S
O432 Tb422 2.453 . S
O432 C428 1.245 . S
O433 Tb420 2.343 1_554 S
O433 Tb422 2.596 . S
O433 C428 1.259 . S
O434 Tb422 2.374 . S
O434 C429 1.250 . S
O435 Tb420 2.353 . S
O435 C429 1.263 1_556 S
C436 O437 1.274 1_554 S
C436 O438 1.245 1_554 S
O437 Tb420 2.427 . S
O437 C436 1.274 1_556 S
O438 Tb420 2.532 . S
O438 C436 1.245 1_556 S
C439 O423 1.245 . S
C439 O424 1.259 . S
Tb440 O443 2.453 . S
Tb440 O444 2.596 . S
Tb440 O445 2.374 . S
Tb440 O453 2.343 1_556 S
Tb440 O455 2.353 . S
Tb440 O457 2.427 . S
Tb440 O458 2.532 . S
C441 O445 1.251 . S
C441 O447 1.263 1_556 S
Tb442 O444 2.343 1_554 S
Tb442 O447 2.353 . S
Tb442 O450 2.427 . S
Tb442 O451 2.525 . S
Tb442 O452 2.453 . S
Tb442 O453 2.596 . S
Tb442 O454 2.374 . S
O443 Tb440 2.453 . S
O443 C459 1.245 . S
O444 Tb440 2.596 . S
O444 Tb442 2.343 1_556 S
O444 C459 1.259 . S
O445 Tb440 2.374 . S
O445 C441 1.251 . S
C446 O450 1.269 1_556 S
C446 O451 1.245 1_556 S
O447 C441 1.263 1_554 S
O447 Tb442 2.353 . S
C448 O452 1.245 . S
C448 O453 1.259 . S
C449 O454 1.250 . S
C449 O455 1.263 1_554 S
O450 Tb442 2.427 . S
O450 C446 1.269 1_554 S
O451 Tb442 2.525 . S
O451 C446 1.245 1_554 S
O452 Tb442 2.453 . S
O452 C448 1.245 . S
O453 Tb440 2.343 1_554 S
O453 Tb442 2.596 . S
O453 C448 1.259 . S
O454 Tb442 2.374 . S
O454 C449 1.250 . S
O455 Tb440 2.353 . S
O455 C449 1.263 1_556 S
C456 O457 1.274 1_554 S
C456 O458 1.245 1_554 S
O457 Tb440 2.427 . S
O457 C456 1.274 1_556 S
O458 Tb440 2.532 . S
O458 C456 1.245 1_556 S
C459 O443 1.245 . S
C459 O444 1.259 . S
Tb460 O463 2.453 . S
Tb460 O464 2.596 . S
Tb460 O465 2.374 . S
Tb460 O473 2.343 1_556 S
Tb460 O475 2.353 . S
Tb460 O477 2.427 . S
Tb460 O478 2.532 . S
C461 O465 1.251 . S
C461 O467 1.263 1_556 S
Tb462 O464 2.343 1_554 S
Tb462 O467 2.353 . S
Tb462 O470 2.427 . S
Tb462 O471 2.525 . S
Tb462 O472 2.453 . S
Tb462 O473 2.596 . S
Tb462 O474 2.374 . S
O463 Tb460 2.453 . S
O463 C479 1.245 . S
O464 Tb460 2.596 . S
O464 Tb462 2.343 1_556 S
O464 C479 1.259 . S
O465 Tb460 2.374 . S
O465 C461 1.251 . S
C466 O470 1.269 1_556 S
C466 O471 1.245 1_556 S
O467 C461 1.263 1_554 S
O467 Tb462 2.353 . S
C468 O472 1.245 . S
C468 O473 1.259 . S
C469 O474 1.250 . S
C469 O475 1.263 1_554 S
O470 Tb462 2.427 . S
O470 C466 1.269 1_554 S
O471 Tb462 2.525 . S
O471 C466 1.245 1_554 S
O472 Tb462 2.453 . S
O472 C468 1.245 . S
O473 Tb460 2.343 1_554 S
O473 Tb462 2.596 . S
O473 C468 1.259 . S
O474 Tb462 2.374 . S
O474 C469 1.250 . S
O475 Tb460 2.353 . S
O475 C469 1.263 1_556 S
C476 O477 1.274 1_554 S
C476 O478 1.245 1_554 S
O477 Tb460 2.427 . S
O477 C476 1.274 1_556 S
O478 Tb460 2.532 . S
O478 C476 1.245 1_556 S
C479 O463 1.245 . S
C479 O464 1.259 . S
Tb480 O483 2.453 . S
Tb480 O484 2.596 . S
Tb480 O485 2.374 . S
Tb480 O493 2.343 . S
Tb480 O495 2.353 . S
Tb480 O497 2.427 1_565 S
Tb480 O498 2.513 . S
C481 O485 1.251 . S
C481 O487 1.263 . S
Tb482 O484 2.343 . S
Tb482 O487 2.353 . S
Tb482 O490 2.427 . S
Tb482 O491 2.513 . S
Tb482 O492 2.453 . S
Tb482 O493 2.596 . S
Tb482 O494 2.374 . S
O483 Tb480 2.453 . S
O483 C499 1.245 . S
O484 Tb480 2.596 . S
O484 Tb482 2.343 . S
O484 C499 1.259 . S
O485 Tb480 2.374 . S
O485 C481 1.251 . S
C486 O490 1.275 . S
C486 O491 1.246 . S
O487 C481 1.263 . S
O487 Tb482 2.353 . S
C488 O492 1.245 . S
C488 O493 1.259 . S
C489 O494 1.250 . S
C489 O495 1.263 . S
O490 Tb482 2.427 . S
O490 C486 1.275 . S
O491 Tb482 2.513 . S
O491 C486 1.246 . S
O492 Tb482 2.453 . S
O492 C488 1.245 . S
O493 Tb480 2.343 . S
O493 Tb482 2.596 . S
O493 C488 1.259 . S
O494 Tb482 2.374 . S
O494 C489 1.250 . S
O495 Tb480 2.353 . S
O495 C489 1.263 . S
C496 O497 1.275 1_565 S
C496 O498 1.246 . S
O497 Tb480 2.427 1_545 S
O497 C496 1.275 1_545 S
O498 Tb480 2.513 . S
O498 C496 1.246 . S
C499 O483 1.245 . S
C499 O484 1.259 . S
Tb500 O503 2.453 . S
Tb500 O504 2.596 . S
Tb500 O505 2.374 . S
Tb500 O513 2.343 . S
Tb500 O515 2.353 . S
Tb500 O517 2.427 1_455 S
Tb500 O518 2.513 . S
C501 O505 1.251 . S
C501 O507 1.263 . S
Tb502 O504 2.343 . S
Tb502 O507 2.353 . S
Tb502 O510 2.427 . S
Tb502 O511 2.513 . S
Tb502 O512 2.453 . S
Tb502 O513 2.596 . S
Tb502 O514 2.374 . S
O503 Tb500 2.453 . S
O503 C519 1.245 . S
O504 Tb500 2.596 . S
O504 Tb502 2.343 . S
O504 C519 1.259 . S
O505 Tb500 2.374 . S
O505 C501 1.251 . S
C506 O510 1.275 . S
C506 O511 1.246 . S
O507 C501 1.263 . S
O507 Tb502 2.353 . S
C508 O512 1.245 . S
C508 O513 1.259 . S
C509 O514 1.250 . S
C509 O515 1.263 . S
O510 Tb502 2.427 . S
O510 C506 1.275 . S
O511 Tb502 2.513 . S
O511 C506 1.246 . S
O512 Tb502 2.453 . S
O512 C508 1.245 . S
O513 Tb500 2.343 . S
O513 Tb502 2.596 . S
O513 C508 1.259 . S
O514 Tb502 2.374 . S
O514 C509 1.250 . S
O515 Tb500 2.353 . S
O515 C509 1.263 . S
C516 O517 1.275 1_455 S
C516 O518 1.246 . S
O517 Tb500 2.427 1_655 S
O517 C516 1.275 1_655 S
O518 Tb500 2.513 . S
O518 C516 1.246 . S
C519 O503 1.245 . S
C519 O504 1.259 . S
Tb520 O523 2.453 . S
Tb520 O524 2.596 . S
Tb520 O525 2.374 . S
Tb520 O533 2.343 . S
Tb520 O535 2.353 . S
Tb520 O537 2.427 . S
Tb520 O538 2.513 . S
C521 O525 1.251 . S
C521 O527 1.263 . S
Tb522 O524 2.343 . S
Tb522 O527 2.353 . S
Tb522 O530 2.427 . S
Tb522 O531 2.513 . S
Tb522 O532 2.453 . S
Tb522 O533 2.596 . S
Tb522 O534 2.374 . S
O523 Tb520 2.453 . S
O523 C539 1.245 . S
O524 Tb520 2.596 . S
O524 Tb522 2.343 . S
O524 C539 1.259 . S
O525 Tb520 2.374 . S
O525 C521 1.251 . S
C526 O530 1.275 . S
C526 O531 1.246 . S
O527 C521 1.263 . S
O527 Tb522 2.353 . S
C528 O532 1.245 . S
C528 O533 1.259 . S
C529 O534 1.250 . S
C529 O535 1.263 . S
O530 Tb522 2.427 . S
O530 C526 1.275 . S
O531 Tb522 2.513 . S
O531 C526 1.246 . S
O532 Tb522 2.453 . S
O532 C528 1.245 . S
O533 Tb520 2.343 . S
O533 Tb522 2.596 . S
O533 C528 1.259 . S
O534 Tb522 2.374 . S
O534 C529 1.250 . S
O535 Tb520 2.353 . S
O535 C529 1.263 . S
C536 O537 1.275 . S
C536 O538 1.246 . S
O537 Tb520 2.427 . S
O537 C536 1.275 . S
O538 Tb520 2.513 . S
O538 C536 1.246 . S
C539 O523 1.245 . S
C539 O524 1.259 . S
Tb540 O543 2.453 . S
Tb540 O544 2.596 . S
Tb540 O545 2.374 . S
Tb540 O553 2.343 1_556 S
Tb540 O555 2.353 . S
Tb540 O557 2.427 . S
Tb540 O558 2.525 . S
C541 O545 1.251 . S
C541 O547 1.263 1_556 S
Tb542 O544 2.343 1_554 S
Tb542 O547 2.353 . S
Tb542 O550 2.427 . S
Tb542 O551 2.532 . S
Tb542 O552 2.453 . S
Tb542 O553 2.596 . S
Tb542 O554 2.374 . S
O543 Tb540 2.453 . S
O543 C559 1.245 . S
O544 Tb540 2.596 . S
O544 Tb542 2.343 1_556 S
O544 C559 1.259 . S
O545 Tb540 2.374 . S
O545 C541 1.251 . S
C546 O550 1.274 1_556 S
C546 O551 1.245 1_556 S
O547 C541 1.263 1_554 S
O547 Tb542 2.353 . S
C548 O552 1.245 . S
C548 O553 1.259 . S
C549 O554 1.250 . S
C549 O555 1.263 1_554 S
O550 Tb542 2.427 . S
O550 C546 1.274 1_554 S
O551 Tb542 2.532 . S
O551 C546 1.245 1_554 S
O552 Tb542 2.453 . S
O552 C548 1.245 . S
O553 Tb540 2.343 1_554 S
O553 Tb542 2.596 . S
O553 C548 1.259 . S
O554 Tb542 2.374 . S
O554 C549 1.250 . S
O555 Tb540 2.353 . S
O555 C549 1.263 1_556 S
C556 O557 1.269 1_554 S
C556 O558 1.245 1_554 S
O557 Tb540 2.427 . S
O557 C556 1.269 1_556 S
O558 Tb540 2.525 . S
O558 C556 1.245 1_556 S
C559 O543 1.245 . S
C559 O544 1.259 . S
Tb560 O563 2.453 . S
Tb560 O564 2.596 . S
Tb560 O565 2.374 . S
Tb560 O573 2.343 1_556 S
Tb560 O575 2.353 . S
Tb560 O577 2.427 . S
Tb560 O578 2.525 . S
C561 O565 1.251 . S
C561 O567 1.263 1_556 S
Tb562 O564 2.343 1_554 S
Tb562 O567 2.353 . S
Tb562 O570 2.427 . S
Tb562 O571 2.532 . S
Tb562 O572 2.453 . S
Tb562 O573 2.596 . S
Tb562 O574 2.374 . S
O563 Tb560 2.453 . S
O563 C579 1.245 . S
O564 Tb560 2.596 . S
O564 Tb562 2.343 1_556 S
O564 C579 1.259 . S
O565 Tb560 2.374 . S
O565 C561 1.251 . S
C566 O570 1.274 1_556 S
C566 O571 1.245 1_556 S
O567 C561 1.263 1_554 S
O567 Tb562 2.353 . S
C568 O572 1.245 . S
C568 O573 1.259 . S
C569 O574 1.250 . S
C569 O575 1.263 1_554 S
O570 Tb562 2.427 . S
O570 C566 1.274 1_554 S
O571 Tb562 2.532 . S
O571 C566 1.245 1_554 S
O572 Tb562 2.453 . S
O572 C568 1.245 . S
O573 Tb560 2.343 1_554 S
O573 Tb562 2.596 . S
O573 C568 1.259 . S
O574 Tb562 2.374 . S
O574 C569 1.250 . S
O575 Tb560 2.353 . S
O575 C569 1.263 1_556 S
C576 O577 1.269 1_554 S
C576 O578 1.245 1_554 S
O577 Tb560 2.427 . S
O577 C576 1.269 1_556 S
O578 Tb560 2.525 . S
O578 C576 1.245 1_556 S
C579 O563 1.245 . S
C579 O564 1.259 . S
Tb580 O583 2.453 . S
Tb580 O584 2.596 . S
Tb580 O585 2.374 . S
Tb580 O593 2.343 1_556 S
Tb580 O595 2.353 . S
Tb580 O597 2.427 . S
Tb580 O598 2.525 . S
C581 O585 1.251 . S
C581 O587 1.263 1_556 S
Tb582 O584 2.343 1_554 S
Tb582 O587 2.353 . S
Tb582 O590 2.427 . S
Tb582 O591 2.532 . S
Tb582 O592 2.453 . S
Tb582 O593 2.596 . S
Tb582 O594 2.374 . S
O583 Tb580 2.453 . S
O583 C599 1.245 . S
O584 Tb580 2.596 . S
O584 Tb582 2.343 1_556 S
O584 C599 1.259 . S
O585 Tb580 2.374 . S
O585 C581 1.251 . S
C586 O590 1.274 1_556 S
C586 O591 1.245 1_556 S
O587 C581 1.263 1_554 S
O587 Tb582 2.353 . S
C588 O592 1.245 . S
C588 O593 1.259 . S
C589 O594 1.250 . S
C589 O595 1.263 1_554 S
O590 Tb582 2.427 . S
O590 C586 1.274 1_554 S
O591 Tb582 2.532 . S
O591 C586 1.245 1_554 S
O592 Tb582 2.453 . S
O592 C588 1.245 . S
O593 Tb580 2.343 1_554 S
O593 Tb582 2.596 . S
O593 C588 1.259 . S
O594 Tb582 2.374 . S
O594 C589 1.250 . S
O595 Tb580 2.353 . S
O595 C589 1.263 1_556 S
C596 O597 1.269 1_554 S
C596 O598 1.245 1_554 S
O597 Tb580 2.427 . S
O597 C596 1.269 1_556 S
O598 Tb580 2.525 . S
O598 C596 1.245 1_556 S
C599 O583 1.245 . S
C599 O584 1.259 . S
Tb600 O603 2.453 . S
Tb600 O604 2.596 . S
Tb600 O605 2.374 . S
Tb600 O613 2.343 . S
Tb600 O615 2.353 . S
Tb600 O617 2.427 . S
Tb600 O618 2.513 . S
C601 O605 1.251 . S
C601 O607 1.263 . S
Tb602 O604 2.343 . S
Tb602 O607 2.353 . S
Tb602 O610 2.427 . S
Tb602 O611 2.513 . S
Tb602 O612 2.453 . S
Tb602 O613 2.596 . S
Tb602 O614 2.374 . S
O603 Tb600 2.453 . S
O603 C619 1.245 . S
O604 Tb600 2.596 . S
O604 Tb602 2.343 . S
O604 C619 1.259 . S
O605 Tb600 2.374 . S
O605 C601 1.251 . S
C606 O610 1.275 . S
C606 O611 1.246 . S
O607 C601 1.263 . S
O607 Tb602 2.353 . S
C608 O612 1.245 . S
C608 O613 1.259 . S
C609 O614 1.250 . S
C609 O615 1.263 . S
O610 Tb602 2.427 . S
O610 C606 1.275 . S
O611 Tb602 2.513 . S
O611 C606 1.246 . S
O612 Tb602 2.453 . S
O612 C608 1.245 . S
O613 Tb600 2.343 . S
O613 Tb602 2.596 . S
O613 C608 1.259 . S
O614 Tb602 2.374 . S
O614 C609 1.250 . S
O615 Tb600 2.353 . S
O615 C609 1.263 . S
C616 O617 1.275 . S
C616 O618 1.246 . S
O617 Tb600 2.427 . S
O617 C616 1.275 . S
O618 Tb600 2.513 . S
O618 C616 1.246 . S
C619 O603 1.245 . S
C619 O604 1.259 . S
Tb620 O623 2.453 . S
Tb620 O624 2.596 . S
Tb620 O625 2.374 . S
Tb620 O633 2.343 . S
Tb620 O635 2.353 . S
Tb620 O637 2.427 . S
Tb620 O638 2.513 . S
C621 O625 1.251 . S
C621 O627 1.263 . S
Tb622 O624 2.343 . S
Tb622 O627 2.353 . S
Tb622 O630 2.427 . S
Tb622 O631 2.513 . S
Tb622 O632 2.453 . S
Tb622 O633 2.596 . S
Tb622 O634 2.374 . S
O623 Tb620 2.453 . S
O623 C639 1.245 . S
O624 Tb620 2.596 . S
O624 Tb622 2.343 . S
O624 C639 1.259 . S
O625 Tb620 2.374 . S
O625 C621 1.251 . S
C626 O630 1.275 . S
C626 O631 1.246 . S
O627 C621 1.263 . S
O627 Tb622 2.353 . S
C628 O632 1.245 . S
C628 O633 1.259 . S
C629 O634 1.250 . S
C629 O635 1.263 . S
O630 Tb622 2.427 . S
O630 C626 1.275 . S
O631 Tb622 2.513 . S
O631 C626 1.246 . S
O632 Tb622 2.453 . S
O632 C628 1.245 . S
O633 Tb620 2.343 . S
O633 Tb622 2.596 . S
O633 C628 1.259 . S
O634 Tb622 2.374 . S
O634 C629 1.250 . S
O635 Tb620 2.353 . S
O635 C629 1.263 . S
C636 O637 1.275 . S
C636 O638 1.246 . S
O637 Tb620 2.427 . S
O637 C636 1.275 . S
O638 Tb620 2.513 . S
O638 C636 1.246 . S
C639 O623 1.245 . S
C639 O624 1.259 . S
Tb640 O643 2.453 . S
Tb640 O644 2.596 . S
Tb640 O645 2.374 . S
Tb640 O653 2.343 . S
Tb640 O655 2.353 . S
Tb640 O657 2.427 . S
Tb640 O658 2.513 . S
C641 O645 1.251 . S
C641 O647 1.263 . S
Tb642 O644 2.343 . S
Tb642 O647 2.353 . S
Tb642 O650 2.427 . S
Tb642 O651 2.513 . S
Tb642 O652 2.453 . S
Tb642 O653 2.596 . S
Tb642 O654 2.374 . S
O643 Tb640 2.453 . S
O643 C659 1.245 . S
O644 Tb640 2.596 . S
O644 Tb642 2.343 . S
O644 C659 1.259 . S
O645 Tb640 2.374 . S
O645 C641 1.251 . S
C646 O650 1.275 . S
C646 O651 1.246 . S
O647 C641 1.263 . S
O647 Tb642 2.353 . S
C648 O652 1.245 . S
C648 O653 1.259 . S
C649 O654 1.250 . S
C649 O655 1.263 . S
O650 Tb642 2.427 . S
O650 C646 1.275 . S
O651 Tb642 2.513 . S
O651 C646 1.246 . S
O652 Tb642 2.453 . S
O652 C648 1.245 . S
O653 Tb640 2.343 . S
O653 Tb642 2.596 . S
O653 C648 1.259 . S
O654 Tb642 2.374 . S
O654 C649 1.250 . S
O655 Tb640 2.353 . S
O655 C649 1.263 . S
C656 O657 1.275 . S
C656 O658 1.246 . S
O657 Tb640 2.427 . S
O657 C656 1.275 . S
O658 Tb640 2.513 . S
O658 C656 1.246 . S
C659 O643 1.245 . S
C659 O644 1.259 . S
Tb660 O663 2.453 . S
Tb660 O664 2.596 . S
Tb660 O665 2.374 . S
Tb660 O673 2.343 . S
Tb660 O675 2.353 . S
Tb660 O677 2.427 . S
Tb660 O678 2.513 . S
C661 O665 1.251 . S
C661 O667 1.263 . S
Tb662 O664 2.343 . S
Tb662 O667 2.353 . S
Tb662 O670 2.427 1_455 S
Tb662 O671 2.513 . S
Tb662 O672 2.453 . S
Tb662 O673 2.596 . S
Tb662 O674 2.374 . S
O663 Tb660 2.453 . S
O663 C679 1.245 . S
O664 Tb660 2.596 . S
O664 Tb662 2.343 . S
O664 C679 1.259 . S
O665 Tb660 2.374 . S
O665 C661 1.251 . S
C666 O670 1.275 1_455 S
C666 O671 1.246 . S
O667 C661 1.263 . S
O667 Tb662 2.353 . S
C668 O672 1.245 . S
C668 O673 1.259 . S
C669 O674 1.250 . S
C669 O675 1.263 . S
O670 Tb662 2.427 1_655 S
O670 C666 1.275 1_655 S
O671 Tb662 2.513 . S
O671 C666 1.246 . S
O672 Tb662 2.453 . S
O672 C668 1.245 . S
O673 Tb660 2.343 . S
O673 Tb662 2.596 . S
O673 C668 1.259 . S
O674 Tb662 2.374 . S
O674 C669 1.250 . S
O675 Tb660 2.353 . S
O675 C669 1.263 . S
C676 O677 1.275 . S
C676 O678 1.246 . S
O677 Tb660 2.427 . S
O677 C676 1.275 . S
O678 Tb660 2.513 . S
O678 C676 1.246 . S
C679 O663 1.245 . S
C679 O664 1.259 . S
Tb680 O683 2.453 . S
Tb680 O684 2.596 . S
Tb680 O685 2.374 . S
Tb680 O693 2.343 . S
Tb680 O695 2.353 . S
Tb680 O697 2.427 . S
Tb680 O698 2.513 . S
C681 O685 1.251 . S
C681 O687 1.263 . S
Tb682 O684 2.343 . S
Tb682 O687 2.353 . S
Tb682 O690 2.427 . S
Tb682 O691 2.513 . S
Tb682 O692 2.453 . S
Tb682 O693 2.596 . S
Tb682 O694 2.374 . S
O683 Tb680 2.453 . S
O683 C699 1.245 . S
O684 Tb680 2.596 . S
O684 Tb682 2.343 . S
O684 C699 1.259 . S
O685 Tb680 2.374 . S
O685 C681 1.251 . S
C686 O690 1.275 . S
C686 O691 1.246 . S
O687 C681 1.263 . S
O687 Tb682 2.353 . S
C688 O692 1.245 . S
C688 O693 1.259 . S
C689 O694 1.250 . S
C689 O695 1.263 . S
O690 Tb682 2.427 . S
O690 C686 1.275 . S
O691 Tb682 2.513 . S
O691 C686 1.246 . S
O692 Tb682 2.453 . S
O692 C688 1.245 . S
O693 Tb680 2.343 . S
O693 Tb682 2.596 . S
O693 C688 1.259 . S
O694 Tb682 2.374 . S
O694 C689 1.250 . S
O695 Tb680 2.353 . S
O695 C689 1.263 . S
C696 O697 1.275 . S
C696 O698 1.246 . S
O697 Tb680 2.427 . S
O697 C696 1.275 . S
O698 Tb680 2.513 . S
O698 C696 1.246 . S
C699 O683 1.245 . S
C699 O684 1.259 . S
Tb700 O703 2.453 . S
Tb700 O704 2.596 . S
Tb700 O705 2.374 . S
Tb700 O713 2.343 . S
Tb700 O715 2.353 . S
Tb700 O717 2.427 . S
Tb700 O718 2.513 . S
C701 O705 1.251 . S
C701 O707 1.263 . S
Tb702 O704 2.343 . S
Tb702 O707 2.353 . S
Tb702 O710 2.427 1_565 S
Tb702 O711 2.513 . S
Tb702 O712 2.453 . S
Tb702 O713 2.596 . S
Tb702 O714 2.374 . S
O703 Tb700 2.453 . S
O703 C719 1.245 . S
O704 Tb700 2.596 . S
O704 Tb702 2.343 . S
O704 C719 1.259 . S
O705 Tb700 2.374 . S
O705 C701 1.251 . S
C706 O710 1.275 1_565 S
C706 O711 1.246 . S
O707 C701 1.263 . S
O707 Tb702 2.353 . S
C708 O712 1.245 . S
C708 O713 1.259 . S
C709 O714 1.250 . S
C709 O715 1.263 . S
O710 Tb702 2.427 1_545 S
O710 C706 1.275 1_545 S
O711 Tb702 2.513 . S
O711 C706 1.246 . S
O712 Tb702 2.453 . S
O712 C708 1.245 . S
O713 Tb700 2.343 . S
O713 Tb702 2.596 . S
O713 C708 1.259 . S
O714 Tb702 2.374 . S
O714 C709 1.250 . S
O715 Tb700 2.353 . S
O715 C709 1.263 . S
C716 O717 1.275 . S
C716 O718 1.246 . S
O717 Tb700 2.427 . S
O717 C716 1.275 . S
O718 Tb700 2.513 . S
O718 C716 1.246 . S
C719 O703 1.245 . S
C719 O704 1.259 . S
H720 C726 0.930 . S
H721 C730 0.930 . S
H722 C735 0.929 . S
H723 C733 0.929 1_565 S
H724 C728 0.929 . S
H725 C734 0.929 . S
C726 H720 0.930 . S
C726 C727 1.367 . S
C726 C734 1.378 . S
C727 C726 1.367 . S
C727 C735 1.433 . S
C728 H724 0.929 . S
C728 C730 1.378 . S
C728 C732 1.350 . S
C729 C732 1.463 . S
C729 C734 1.350 . S
C729 N737 1.427 . S
C730 H721 0.930 . S
C730 C728 1.378 . S
C730 C731 1.367 . S
C731 C730 1.367 . S
C731 C733 1.433 . S
C732 C728 1.350 . S
C732 C729 1.463 . S
C732 N736 1.427 . S
C733 H723 0.929 1_545 S
C733 C731 1.433 . S
C733 N736 1.384 . S
C734 H725 0.929 . S
C734 C726 1.378 . S
C734 C729 1.350 . S
C735 H722 0.929 . S
C735 C727 1.433 . S
C735 N737 1.384 . S
N736 C732 1.427 . S
N736 C733 1.384 . S
N737 C729 1.427 . S
N737 C735 1.384 . S
H738 C744 0.930 . S
H739 C748 0.930 . S
H740 C753 0.929 . S
H741 C751 0.929 . S
H742 C746 0.929 . S
H743 C752 0.929 . S
C744 H738 0.930 . S
C744 C745 1.367 . S
C744 C752 1.378 . S
C745 C744 1.367 . S
C745 C753 1.433 . S
C746 H742 0.929 . S
C746 C748 1.378 1_545 S
C746 C750 1.350 . S
C747 C750 1.463 . S
C747 C752 1.350 . S
C747 N755 1.427 . S
C748 H739 0.930 . S
C748 C746 1.378 1_565 S
C748 C749 1.367 . S
C749 C748 1.367 . S
C749 C751 1.433 . S
C750 C746 1.350 . S
C750 C747 1.463 . S
C750 N754 1.427 . S
C751 H741 0.929 . S
C751 C749 1.433 . S
C751 N754 1.384 1_565 S
C752 H743 0.929 . S
C752 C744 1.378 . S
C752 C747 1.350 . S
C753 H740 0.929 . S
C753 C745 1.433 . S
C753 N755 1.384 . S
N754 C750 1.427 . S
N754 C751 1.384 1_545 S
N755 C747 1.427 . S
N755 C753 1.384 . S
H756 C762 0.930 . S
H757 C766 0.930 . S
H758 C771 0.929 . S
H759 C769 0.929 . S
H760 C764 0.929 . S
H761 C770 0.929 . S
C762 H756 0.930 . S
C762 C763 1.367 . S
C762 C770 1.378 1_455 S
C763 C762 1.367 . S
C763 C771 1.433 1_455 S
C764 H760 0.929 . S
C764 C766 1.378 . S
C764 C768 1.350 . S
C765 C768 1.463 . S
C765 C770 1.350 . S
C765 N773 1.427 . S
C766 H757 0.930 . S
C766 C764 1.378 . S
C766 C767 1.367 . S
C767 C766 1.367 . S
C767 C769 1.433 . S
C768 C764 1.350 . S
C768 C765 1.463 . S
C768 N772 1.427 . S
C769 H759 0.929 . S
C769 C767 1.433 . S
C769 N772 1.384 . S
C770 H761 0.929 . S
C770 C762 1.378 1_655 S
C770 C765 1.350 . S
C771 H758 0.929 . S
C771 C763 1.433 1_655 S
C771 N773 1.384 . S
N772 C768 1.427 . S
N772 C769 1.384 . S
N773 C765 1.427 . S
N773 C771 1.384 . S
H774 C780 0.930 . S
H775 C784 0.930 . S
H776 C789 0.929 . S
H777 C787 0.929 . S
H778 C782 0.929 . S
H779 C788 0.929 . S
C780 H774 0.930 . S
C780 C781 1.367 . S
C780 C788 1.378 . S
C781 C780 1.367 . S
C781 C789 1.433 . S
C782 H778 0.929 . S
C782 C784 1.378 . S
C782 C786 1.350 . S
C783 C786 1.463 . S
C783 C788 1.350 . S
C783 N791 1.427 . S
C784 H775 0.930 . S
C784 C782 1.378 . S
C784 C785 1.367 . S
C785 C784 1.367 . S
C785 C787 1.433 . S
C786 C782 1.350 . S
C786 C783 1.463 . S
C786 N790 1.427 . S
C787 H777 0.929 . S
C787 C785 1.433 . S
C787 N790 1.384 . S
C788 H779 0.929 . S
C788 C780 1.378 . S
C788 C783 1.350 . S
C789 H776 0.929 . S
C789 C781 1.433 . S
C789 N791 1.384 . S
N790 C786 1.427 . S
N790 C787 1.384 . S
N791 C783 1.427 . S
N791 C789 1.384 . S
H792 C798 0.930 . S
H793 C802 0.930 . S
H794 C807 0.929 . S
H795 C805 0.929 . S
H796 C800 0.929 . S
H797 C806 0.929 . S
C798 H792 0.930 . S
C798 C799 1.367 . S
C798 C806 1.378 . S
C799 C798 1.367 . S
C799 C807 1.433 . S
C800 H796 0.929 . S
C800 C802 1.378 1_565 S
C800 C804 1.350 . S
C801 C804 1.463 . S
C801 C806 1.350 . S
C801 N809 1.427 . S
C802 H793 0.930 . S
C802 C800 1.378 1_545 S
C802 C803 1.367 . S
C803 C802 1.367 . S
C803 C805 1.433 . S
C804 C800 1.350 . S
C804 C801 1.463 . S
C804 N808 1.427 . S
C805 H795 0.929 . S
C805 C803 1.433 . S
C805 N808 1.384 1_545 S
C806 H797 0.929 . S
C806 C798 1.378 . S
C806 C801 1.350 . S
C807 H794 0.929 . S
C807 C799 1.433 . S
C807 N809 1.384 . S
N808 C804 1.427 . S
N808 C805 1.384 1_565 S
N809 C801 1.427 . S
N809 C807 1.384 . S
H810 C816 0.924 . S
H811 C820 0.930 1_545 S
H812 C825 0.929 . S
H813 C823 0.929 . S
H814 C818 0.929 . S
H815 C824 0.929 . S
C816 H810 0.924 . S
C816 C817 1.367 1_455 S
C816 C824 1.378 . S
C817 C816 1.367 1_655 S
C817 C825 1.433 . S
C818 H814 0.929 . S
C818 C820 1.378 . S
C818 C822 1.350 . S
C819 C822 1.463 . S
C819 C824 1.350 . S
C819 N827 1.427 . S
C820 H811 0.930 1_565 S
C820 C818 1.378 . S
C820 C821 1.367 . S
C821 C820 1.367 . S
C821 C823 1.433 . S
C822 C818 1.350 . S
C822 C819 1.463 . S
C822 N826 1.427 . S
C823 H813 0.929 . S
C823 C821 1.433 . S
C823 N826 1.384 . S
C824 H815 0.929 . S
C824 C816 1.378 . S
C824 C819 1.350 . S
C825 H812 0.929 . S
C825 C817 1.433 . S
C825 N827 1.384 1_655 S
N826 C822 1.427 . S
N826 C823 1.384 . S
N827 C819 1.427 . S
N827 C825 1.384 1_455 S
H828 C834 0.930 . S
H829 C838 0.930 . S
H830 C843 0.929 . S
H831 C841 0.929 . S
H832 C836 0.929 . S
H833 C842 0.929 . S
C834 H828 0.930 . S
C834 C835 1.367 . S
C834 C842 1.378 . S
C835 C834 1.367 . S
C835 C843 1.433 . S
C836 H832 0.929 . S
C836 C838 1.378 . S
C836 C840 1.350 . S
C837 C840 1.463 . S
C837 C842 1.350 . S
C837 N845 1.427 . S
C838 H829 0.930 . S
C838 C836 1.378 . S
C838 C839 1.367 . S
C839 C838 1.367 . S
C839 C841 1.433 . S
C840 C836 1.350 . S
C840 C837 1.463 . S
C840 N844 1.427 . S
C841 H831 0.929 . S
C841 C839 1.433 . S
C841 N844 1.384 . S
C842 H833 0.929 . S
C842 C834 1.378 . S
C842 C837 1.350 . S
C843 H830 0.929 . S
C843 C835 1.433 . S
C843 N845 1.384 . S
N844 C840 1.427 . S
N844 C841 1.384 . S
N845 C837 1.427 . S
N845 C843 1.384 . S
H846 C852 0.930 . S
H847 C856 0.930 . S
H848 C861 0.929 . S
H849 C859 0.929 . S
H850 C854 0.929 . S
H851 C860 0.929 . S
C852 H846 0.930 . S
C852 C853 1.367 . S
C852 C860 1.378 1_545 S
C853 C852 1.367 . S
C853 C861 1.433 . S
C854 H850 0.929 . S
C854 C856 1.378 . S
C854 C858 1.350 . S
C855 C858 1.463 . S
C855 C860 1.350 . S
C855 N863 1.427 . S
C856 H847 0.930 . S
C856 C854 1.378 . S
C856 C857 1.367 . S
C857 C856 1.367 . S
C857 C859 1.433 . S
C858 C854 1.350 . S
C858 C855 1.463 . S
C858 N862 1.427 . S
C859 H849 0.929 . S
C859 C857 1.433 . S
C859 N862 1.384 . S
C860 H851 0.929 . S
C860 C852 1.378 1_565 S
C860 C855 1.350 . S
C861 H848 0.929 . S
C861 C853 1.433 . S
C861 N863 1.384 1_545 S
N862 C858 1.427 . S
N862 C859 1.384 . S
N863 C855 1.427 . S
N863 C861 1.384 1_565 S
H864 C870 0.930 . S
H865 C874 0.930 . S
H866 C879 0.929 . S
H867 C877 0.929 . S
H868 C872 0.929 . S
H869 C878 0.929 . S
C870 H864 0.930 . S
C870 C871 1.367 . S
C870 C878 1.378 1_655 S
C871 C870 1.367 . S
C871 C879 1.433 1_655 S
C872 H868 0.929 . S
C872 C874 1.378 . S
C872 C876 1.350 . S
C873 C876 1.463 . S
C873 C878 1.350 . S
C873 N881 1.427 . S
C874 H865 0.930 . S
C874 C872 1.378 . S
C874 C875 1.367 . S
C875 C874 1.367 . S
C875 C877 1.433 . S
C876 C872 1.350 . S
C876 C873 1.463 . S
C876 N880 1.427 . S
C877 H867 0.929 . S
C877 C875 1.433 . S
C877 N880 1.384 . S
C878 H869 0.929 . S
C878 C870 1.378 1_455 S
C878 C873 1.350 . S
C879 H866 0.929 . S
C879 C871 1.433 1_455 S
C879 N881 1.384 . S
N880 C876 1.427 . S
N880 C877 1.384 . S
N881 C873 1.427 . S
N881 C879 1.384 . S
H882 C888 0.930 . S
H883 C892 0.930 1_455 S
H884 C897 0.929 . S
H885 C895 0.929 . S
H886 C890 0.929 . S
H887 C896 0.929 . S
C888 H882 0.930 . S
C888 C889 1.367 . S
C888 C896 1.378 . S
C889 C888 1.367 . S
C889 C897 1.433 . S
C890 H886 0.929 . S
C890 C892 1.378 . S
C890 C894 1.350 . S
C891 C894 1.463 . S
C891 C896 1.350 . S
C891 N899 1.427 . S
C892 H883 0.930 1_655 S
C892 C890 1.378 . S
C892 C893 1.367 . S
C893 C892 1.367 . S
C893 C895 1.433 . S
C894 C890 1.350 . S
C894 C891 1.463 . S
C894 N898 1.427 . S
C895 H885 0.929 . S
C895 C893 1.433 . S
C895 N898 1.384 . S
C896 H887 0.929 . S
C896 C888 1.378 . S
C896 C891 1.350 . S
C897 H884 0.929 . S
C897 C889 1.433 . S
C897 N899 1.384 . S
N898 C894 1.427 . S
N898 C895 1.384 . S
N899 C891 1.427 . S
N899 C897 1.384 . S
H900 C906 0.930 . S
H901 C910 0.930 . S
H902 C915 0.929 . S
H903 C913 0.929 . S
H904 C908 0.929 . S
H905 C914 0.929 . S
C906 H900 0.930 . S
C906 C907 1.367 . S
C906 C914 1.378 . S
C907 C906 1.367 . S
C907 C915 1.433 . S
C908 H904 0.929 . S
C908 C910 1.378 . S
C908 C912 1.350 . S
C909 C912 1.463 . S
C909 C914 1.350 . S
C909 N917 1.427 . S
C910 H901 0.930 . S
C910 C908 1.378 . S
C910 C911 1.367 1_545 S
C911 C910 1.367 1_565 S
C911 C913 1.433 . S
C912 C908 1.350 . S
C912 C909 1.463 . S
C912 N916 1.427 . S
C913 H903 0.929 . S
C913 C911 1.433 . S
C913 N916 1.384 1_565 S
C914 H905 0.929 . S
C914 C906 1.378 . S
C914 C909 1.350 . S
C915 H902 0.929 . S
C915 C907 1.433 . S
C915 N917 1.384 . S
N916 C912 1.427 . S
N916 C913 1.384 1_545 S
N917 C909 1.427 . S
N917 C915 1.384 . S
H918 C924 0.930 . S
H919 C928 0.930 . S
H920 C933 0.929 1_565 S
H921 C931 0.929 1_455 S
H922 C926 0.929 . S
H923 C932 0.929 . S
C924 H918 0.930 . S
C924 C925 1.367 . S
C924 C932 1.378 . S
C925 C924 1.367 . S
C925 C933 1.433 . S
C926 H922 0.929 . S
C926 C928 1.378 1_655 S
C926 C930 1.350 . S
C927 C930 1.463 . S
C927 C932 1.350 . S
C927 N935 1.427 . S
C928 H919 0.930 . S
C928 C926 1.378 1_455 S
C928 C929 1.367 . S
C929 C928 1.367 . S
C929 C931 1.433 1_455 S
C930 C926 1.350 . S
C930 C927 1.463 . S
C930 N934 1.427 . S
C931 H921 0.929 1_655 S
C931 C929 1.433 1_655 S
C931 N934 1.384 . S
C932 H923 0.929 . S
C932 C924 1.378 . S
C932 C927 1.350 . S
C933 H920 0.929 1_545 S
C933 C925 1.433 . S
C933 N935 1.384 . S
N934 C930 1.427 . S
N934 C931 1.384 . S
N935 C927 1.427 . S
N935 C933 1.384 . S
H936 C942 0.930 . S
H937 C946 0.930 . S
H938 C951 0.929 . S
H939 C949 0.929 . S
H940 C944 0.929 . S
H941 C950 0.929 . S
C942 H936 0.930 . S
C942 C943 1.367 . S
C942 C950 1.378 . S
C943 C942 1.367 . S
C943 C951 1.433 . S
C944 H940 0.929 . S
C944 C946 1.378 . S
C944 C948 1.350 . S
C945 C948 1.463 . S
C945 C950 1.350 . S
C945 N953 1.427 . S
C946 H937 0.930 . S
C946 C944 1.378 . S
C946 C947 1.367 . S
C947 C946 1.367 . S
C947 C949 1.433 . S
C948 C944 1.350 . S
C948 C945 1.463 . S
C948 N952 1.427 . S
C949 H939 0.929 . S
C949 C947 1.433 . S
C949 N952 1.384 . S
C950 H941 0.929 . S
C950 C942 1.378 . S
C950 C945 1.350 . S
C951 H938 0.929 . S
C951 C943 1.433 . S
C951 N953 1.384 . S
N952 C948 1.427 . S
N952 C949 1.384 . S
N953 C945 1.427 . S
N953 C951 1.384 . S
H954 C960 0.930 . S
H955 C964 0.930 . S
H956 C969 0.929 . S
H957 C967 0.929 . S
H958 C962 0.929 . S
H959 C968 0.929 . S
C960 H954 0.930 . S
C960 C961 1.367 . S
C960 C968 1.378 . S
C961 C960 1.367 . S
C961 C969 1.433 . S
C962 H958 0.929 . S
C962 C964 1.378 . S
C962 C966 1.350 . S
C963 C966 1.463 . S
C963 C968 1.350 . S
C963 N971 1.427 . S
C964 H955 0.930 . S
C964 C962 1.378 . S
C964 C965 1.367 . S
C965 C964 1.367 . S
C965 C967 1.433 . S
C966 C962 1.350 . S
C966 C963 1.463 . S
C966 N970 1.427 . S
C967 H957 0.929 . S
C967 C965 1.433 . S
C967 N970 1.384 . S
C968 H959 0.929 . S
C968 C960 1.378 . S
C968 C963 1.350 . S
C969 H956 0.929 . S
C969 C961 1.433 . S
C969 N971 1.384 . S
N970 C966 1.427 . S
N970 C967 1.384 . S
N971 C963 1.427 . S
N971 C969 1.384 . S
H972 C978 0.930 . S
H973 C982 0.930 . S
H974 C987 0.929 . S
H975 C985 0.929 . S
H976 C980 0.929 . S
H977 C986 0.929 . S
C978 H972 0.930 . S
C978 C979 1.367 . S
C978 C986 1.378 . S
C979 C978 1.367 . S
C979 C987 1.433 . S
C980 H976 0.929 . S
C980 C982 1.378 . S
C980 C984 1.350 . S
C981 C984 1.463 . S
C981 C986 1.350 . S
C981 N989 1.427 . S
C982 H973 0.930 . S
C982 C980 1.378 . S
C982 C983 1.367 . S
C983 C982 1.367 . S
C983 C985 1.433 . S
C984 C980 1.350 . S
C984 C981 1.463 . S
C984 N988 1.427 . S
C985 H975 0.929 . S
C985 C983 1.433 . S
C985 N988 1.384 . S
C986 H977 0.929 . S
C986 C978 1.378 . S
C986 C981 1.350 . S
C987 H974 0.929 . S
C987 C979 1.433 . S
C987 N989 1.384 . S
N988 C984 1.427 . S
N988 C985 1.384 . S
N989 C981 1.427 . S
N989 C987 1.384 . S
H990 C996 0.930 . S
H991 C1000 0.930 . S
H992 C1005 0.929 . S
H993 C1003 0.929 . S
H994 C998 0.929 . S
H995 C1004 0.929 . S
C996 H990 0.930 . S
C996 C997 1.367 . S
C996 C1004 1.378 . S
C997 C996 1.367 . S
C997 C1005 1.433 . S
C998 H994 0.929 . S
C998 C1000 1.378 . S
C998 C1002 1.350 . S
C999 C1002 1.463 . S
C999 C1004 1.350 . S
C999 N1007 1.427 . S
C1000 H991 0.930 . S
C1000 C998 1.378 . S
C1000 C1001 1.367 . S
C1001 C1000 1.367 . S
C1001 C1003 1.433 . S
C1002 C998 1.350 . S
C1002 C999 1.463 . S
C1002 N1006 1.427 . S
C1003 H993 0.929 . S
C1003 C1001 1.433 . S
C1003 N1006 1.384 . S
C1004 H995 0.929 . S
C1004 C996 1.378 . S
C1004 C999 1.350 . S
C1005 H992 0.929 . S
C1005 C997 1.433 . S
C1005 N1007 1.384 . S
N1006 C1002 1.427 . S
N1006 C1003 1.384 . S
N1007 C999 1.427 . S
N1007 C1005 1.384 . S
H1008 C1014 0.930 . S
H1009 C1018 0.930 . S
H1010 C1023 0.929 . S
H1011 C1021 0.929 . S
H1012 C1016 0.929 . S
H1013 C1022 0.929 . S
C1014 H1008 0.930 . S
C1014 C1015 1.367 . S
C1014 C1022 1.378 . S
C1015 C1014 1.367 . S
C1015 C1023 1.433 . S
C1016 H1012 0.929 . S
C1016 C1018 1.378 . S
C1016 C1020 1.350 . S
C1017 C1020 1.463 . S
C1017 C1022 1.350 . S
C1017 N1025 1.427 . S
C1018 H1009 0.930 . S
C1018 C1016 1.378 . S
C1018 C1019 1.367 . S
C1019 C1018 1.367 . S
C1019 C1021 1.433 . S
C1020 C1016 1.350 . S
C1020 C1017 1.463 . S
C1020 N1024 1.427 . S
C1021 H1011 0.929 . S
C1021 C1019 1.433 . S
C1021 N1024 1.384 . S
C1022 H1013 0.929 . S
C1022 C1014 1.378 . S
C1022 C1017 1.350 . S
C1023 H1010 0.929 . S
C1023 C1015 1.433 . S
C1023 N1025 1.384 . S
N1024 C1020 1.427 . S
N1024 C1021 1.384 . S
N1025 C1017 1.427 . S
N1025 C1023 1.384 . S
H1026 C1032 0.930 . S
H1027 C1036 0.930 . S
H1028 C1041 0.929 . S
H1029 C1039 0.929 . S
H1030 C1034 0.929 . S
H1031 C1040 0.929 . S
C1032 H1026 0.930 . S
C1032 C1033 1.367 . S
C1032 C1040 1.378 . S
C1033 C1032 1.367 . S
C1033 C1041 1.433 . S
C1034 H1030 0.929 . S
C1034 C1036 1.378 . S
C1034 C1038 1.350 . S
C1035 C1038 1.463 . S
C1035 C1040 1.350 . S
C1035 N1043 1.427 . S
C1036 H1027 0.930 . S
C1036 C1034 1.378 . S
C1036 C1037 1.367 . S
C1037 C1036 1.367 . S
C1037 C1039 1.433 . S
C1038 C1034 1.350 . S
C1038 C1035 1.463 . S
C1038 N1042 1.427 . S
C1039 H1029 0.929 . S
C1039 C1037 1.433 . S
C1039 N1042 1.384 . S
C1040 H1031 0.929 . S
C1040 C1032 1.378 . S
C1040 C1035 1.350 . S
C1041 H1028 0.929 . S
C1041 C1033 1.433 . S
C1041 N1043 1.384 . S
N1042 C1038 1.427 . S
N1042 C1039 1.384 . S
N1043 C1035 1.427 . S
N1043 C1041 1.384 . S
H1044 C1050 0.930 . S
H1045 C1054 0.930 . S
H1046 C1059 0.929 . S
H1047 C1057 0.929 . S
H1048 C1052 0.929 . S
H1049 C1058 0.929 . S
C1050 H1044 0.930 . S
C1050 C1051 1.367 . S
C1050 C1058 1.378 . S
C1051 C1050 1.367 . S
C1051 C1059 1.433 . S
C1052 H1048 0.929 . S
C1052 C1054 1.378 . S
C1052 C1056 1.350 . S
C1053 C1056 1.463 . S
C1053 C1058 1.350 . S
C1053 N1061 1.427 . S
C1054 H1045 0.930 . S
C1054 C1052 1.378 . S
C1054 C1055 1.367 . S
C1055 C1054 1.367 . S
C1055 C1057 1.433 . S
C1056 C1052 1.350 . S
C1056 C1053 1.463 . S
C1056 N1060 1.427 . S
C1057 H1047 0.929 . S
C1057 C1055 1.433 . S
C1057 N1060 1.384 . S
C1058 H1049 0.929 . S
C1058 C1050 1.378 . S
C1058 C1053 1.350 . S
C1059 H1046 0.929 . S
C1059 C1051 1.433 . S
C1059 N1061 1.384 . S
N1060 C1056 1.427 . S
N1060 C1057 1.384 . S
N1061 C1053 1.427 . S
N1061 C1059 1.384 . S
H1062 C1068 0.930 . S
H1063 C1072 0.930 . S
H1064 C1077 0.929 . S
H1065 C1075 0.929 . S
H1066 C1070 0.929 . S
H1067 C1076 0.929 . S
C1068 H1062 0.930 . S
C1068 C1069 1.367 . S
C1068 C1076 1.378 . S
C1069 C1068 1.367 . S
C1069 C1077 1.433 . S
C1070 H1066 0.929 . S
C1070 C1072 1.378 . S
C1070 C1074 1.350 . S
C1071 C1074 1.463 . S
C1071 C1076 1.350 . S
C1071 N1079 1.427 . S
C1072 H1063 0.930 . S
C1072 C1070 1.378 . S
C1072 C1073 1.367 . S
C1073 C1072 1.367 . S
C1073 C1075 1.433 . S
C1074 C1070 1.350 . S
C1074 C1071 1.463 . S
C1074 N1078 1.427 . S
C1075 H1065 0.929 . S
C1075 C1073 1.433 . S
C1075 N1078 1.384 . S
C1076 H1067 0.929 . S
C1076 C1068 1.378 . S
C1076 C1071 1.350 . S
C1077 H1064 0.929 . S
C1077 C1069 1.433 . S
C1077 N1079 1.384 . S
N1078 C1074 1.427 . S
N1078 C1075 1.384 . S
N1079 C1071 1.427 . S
N1079 C1077 1.384 . S
H1080 C1086 0.930 . S
H1081 C1090 0.930 . S
H1082 C1095 0.929 . S
H1083 C1093 0.929 . S
H1084 C1088 0.929 . S
H1085 C1094 0.929 . S
C1086 H1080 0.930 . S
C1086 C1087 1.367 . S
C1086 C1094 1.378 . S
C1087 C1086 1.367 . S
C1087 C1095 1.433 . S
C1088 H1084 0.929 . S
C1088 C1090 1.378 . S
C1088 C1092 1.350 . S
C1089 C1092 1.463 . S
C1089 C1094 1.350 . S
C1089 N1097 1.427 . S
C1090 H1081 0.930 . S
C1090 C1088 1.378 . S
C1090 C1091 1.367 . S
C1091 C1090 1.367 . S
C1091 C1093 1.433 . S
C1092 C1088 1.350 . S
C1092 C1089 1.463 . S
C1092 N1096 1.427 . S
C1093 H1083 0.929 . S
C1093 C1091 1.433 . S
C1093 N1096 1.384 . S
C1094 H1085 0.929 . S
C1094 C1086 1.378 . S
C1094 C1089 1.350 . S
C1095 H1082 0.929 . S
C1095 C1087 1.433 . S
C1095 N1097 1.384 . S
N1096 C1092 1.427 . S
N1096 C1093 1.384 . S
N1097 C1089 1.427 . S
N1097 C1095 1.384 . S
H1098 C1104 0.930 . S
H1099 C1108 0.930 . S
H1100 C1113 0.929 . S
H1101 C1111 0.929 . S
H1102 C1106 0.929 . S
H1103 C1112 0.929 . S
C1104 H1098 0.930 . S
C1104 C1105 1.367 1_556 S
C1104 C1112 1.378 . S
C1105 C1104 1.367 1_554 S
C1105 C1113 1.433 . S
C1106 H1102 0.929 . S
C1106 C1108 1.378 . S
C1106 C1110 1.350 . S
C1107 C1110 1.463 . S
C1107 C1112 1.350 1_554 S
C1107 N1115 1.427 . S
C1108 H1099 0.930 . S
C1108 C1106 1.378 . S
C1108 C1109 1.367 . S
C1109 C1108 1.367 . S
C1109 C1111 1.433 1_554 S
C1110 C1106 1.350 . S
C1110 C1107 1.463 . S
C1110 N1114 1.427 1_554 S
C1111 H1101 0.929 . S
C1111 C1109 1.433 1_556 S
C1111 N1114 1.384 . S
C1112 H1103 0.929 . S
C1112 C1104 1.378 . S
C1112 C1107 1.350 1_556 S
C1113 H1100 0.929 . S
C1113 C1105 1.433 . S
C1113 N1115 1.384 . S
N1114 C1110 1.427 1_556 S
N1114 C1111 1.384 . S
N1115 C1107 1.427 . S
N1115 C1113 1.384 . S
H1116 C1122 0.930 . S
H1117 C1126 0.930 . S
H1118 C1131 0.929 . S
H1119 C1129 0.929 . S
H1120 C1124 0.929 . S
H1121 C1130 0.929 . S
C1122 H1116 0.930 . S
C1122 C1123 1.367 1_556 S
C1122 C1130 1.378 . S
C1123 C1122 1.367 1_554 S
C1123 C1131 1.433 . S
C1124 H1120 0.929 . S
C1124 C1126 1.378 . S
C1124 C1128 1.350 . S
C1125 C1128 1.463 . S
C1125 C1130 1.350 1_554 S
C1125 N1133 1.427 . S
C1126 H1117 0.930 . S
C1126 C1124 1.378 . S
C1126 C1127 1.367 . S
C1127 C1126 1.367 . S
C1127 C1129 1.433 1_554 S
C1128 C1124 1.350 . S
C1128 C1125 1.463 . S
C1128 N1132 1.427 1_554 S
C1129 H1119 0.929 . S
C1129 C1127 1.433 1_556 S
C1129 N1132 1.384 . S
C1130 H1121 0.929 . S
C1130 C1122 1.378 . S
C1130 C1125 1.350 1_556 S
C1131 H1118 0.929 . S
C1131 C1123 1.433 . S
C1131 N1133 1.384 . S
N1132 C1128 1.427 1_556 S
N1132 C1129 1.384 . S
N1133 C1125 1.427 . S
N1133 C1131 1.384 . S
H1134 C1140 0.930 . S
H1135 C1144 0.930 . S
H1136 C1149 0.929 . S
H1137 C1147 0.929 . S
H1138 C1142 0.929 . S
H1139 C1148 0.929 . S
C1140 H1134 0.930 . S
C1140 C1141 1.367 1_556 S
C1140 C1148 1.378 . S
C1141 C1140 1.367 1_554 S
C1141 C1149 1.433 . S
C1142 H1138 0.929 . S
C1142 C1144 1.378 . S
C1142 C1146 1.350 . S
C1143 C1146 1.463 . S
C1143 C1148 1.350 1_554 S
C1143 N1151 1.427 . S
C1144 H1135 0.930 . S
C1144 C1142 1.378 . S
C1144 C1145 1.367 . S
C1145 C1144 1.367 . S
C1145 C1147 1.433 1_554 S
C1146 C1142 1.350 . S
C1146 C1143 1.463 . S
C1146 N1150 1.427 1_554 S
C1147 H1137 0.929 . S
C1147 C1145 1.433 1_556 S
C1147 N1150 1.384 . S
C1148 H1139 0.929 . S
C1148 C1140 1.378 . S
C1148 C1143 1.350 1_556 S
C1149 H1136 0.929 . S
C1149 C1141 1.433 . S
C1149 N1151 1.384 . S
N1150 C1146 1.427 1_556 S
N1150 C1147 1.384 . S
N1151 C1143 1.427 . S
N1151 C1149 1.384 . S
H1152 C1158 0.930 . S
H1153 C1162 0.930 . S
H1154 C1167 0.929 . S
H1155 C1165 0.929 . S
H1156 C1160 0.929 . S
H1157 C1166 0.929 . S
C1158 H1152 0.930 . S
C1158 C1159 1.367 . S
C1158 C1166 1.378 . S
C1159 C1158 1.367 . S
C1159 C1167 1.433 . S
C1160 H1156 0.929 . S
C1160 C1162 1.378 . S
C1160 C1164 1.350 . S
C1161 C1164 1.463 . S
C1161 C1166 1.350 . S
C1161 N1169 1.427 . S
C1162 H1153 0.930 . S
C1162 C1160 1.378 . S
C1162 C1163 1.367 . S
C1163 C1162 1.367 . S
C1163 C1165 1.433 . S
C1164 C1160 1.350 . S
C1164 C1161 1.463 . S
C1164 N1168 1.427 . S
C1165 H1155 0.929 . S
C1165 C1163 1.433 . S
C1165 N1168 1.384 . S
C1166 H1157 0.929 . S
C1166 C1158 1.378 . S
C1166 C1161 1.350 . S
C1167 H1154 0.929 . S
C1167 C1159 1.433 . S
C1167 N1169 1.384 . S
N1168 C1164 1.427 . S
N1168 C1165 1.384 . S
N1169 C1161 1.427 . S
N1169 C1167 1.384 . S
H1170 C1176 0.930 . S
H1171 C1180 0.930 . S
H1172 C1185 0.929 . S
H1173 C1183 0.929 . S
H1174 C1178 0.929 . S
H1175 C1184 0.929 . S
C1176 H1170 0.930 . S
C1176 C1177 1.367 . S
C1176 C1184 1.378 . S
C1177 C1176 1.367 . S
C1177 C1185 1.433 . S
C1178 H1174 0.929 . S
C1178 C1180 1.378 . S
C1178 C1182 1.350 . S
C1179 C1182 1.463 . S
C1179 C1184 1.350 . S
C1179 N1187 1.427 . S
C1180 H1171 0.930 . S
C1180 C1178 1.378 . S
C1180 C1181 1.367 . S
C1181 C1180 1.367 . S
C1181 C1183 1.433 . S
C1182 C1178 1.350 . S
C1182 C1179 1.463 . S
C1182 N1186 1.427 . S
C1183 H1173 0.929 . S
C1183 C1181 1.433 . S
C1183 N1186 1.384 . S
C1184 H1175 0.929 . S
C1184 C1176 1.378 . S
C1184 C1179 1.350 . S
C1185 H1172 0.929 . S
C1185 C1177 1.433 . S
C1185 N1187 1.384 . S
N1186 C1182 1.427 . S
N1186 C1183 1.384 . S
N1187 C1179 1.427 . S
N1187 C1185 1.384 . S
H1188 C1194 0.930 . S
H1189 C1198 0.930 . S
H1190 C1203 0.929 . S
H1191 C1201 0.929 . S
H1192 C1196 0.929 . S
H1193 C1202 0.929 . S
C1194 H1188 0.930 . S
C1194 C1195 1.367 . S
C1194 C1202 1.378 . S
C1195 C1194 1.367 . S
C1195 C1203 1.433 . S
C1196 H1192 0.929 . S
C1196 C1198 1.378 . S
C1196 C1200 1.350 . S
C1197 C1200 1.463 . S
C1197 C1202 1.350 . S
C1197 N1205 1.427 . S
C1198 H1189 0.930 . S
C1198 C1196 1.378 . S
C1198 C1199 1.367 . S
C1199 C1198 1.367 . S
C1199 C1201 1.433 . S
C1200 C1196 1.350 . S
C1200 C1197 1.463 . S
C1200 N1204 1.427 . S
C1201 H1191 0.929 . S
C1201 C1199 1.433 . S
C1201 N1204 1.384 . S
C1202 H1193 0.929 . S
C1202 C1194 1.378 . S
C1202 C1197 1.350 . S
C1203 H1190 0.929 . S
C1203 C1195 1.433 . S
C1203 N1205 1.384 . S
N1204 C1200 1.427 . S
N1204 C1201 1.384 . S
N1205 C1197 1.427 . S
N1205 C1203 1.384 . S
H1206 C1212 0.930 . S
H1207 C1216 0.930 . S
H1208 C1221 0.929 . S
H1209 C1219 0.929 . S
H1210 C1214 0.929 . S
H1211 C1220 0.929 . S
C1212 H1206 0.930 . S
C1212 C1213 1.367 . S
C1212 C1220 1.378 . S
C1213 C1212 1.367 . S
C1213 C1221 1.433 1_556 S
C1214 H1210 0.929 . S
C1214 C1216 1.378 . S
C1214 C1218 1.350 1_554 S
C1215 C1218 1.463 . S
C1215 C1220 1.350 . S
C1215 N1223 1.427 1_556 S
C1216 H1207 0.930 . S
C1216 C1214 1.378 . S
C1216 C1217 1.367 1_554 S
C1217 C1216 1.367 1_556 S
C1217 C1219 1.433 . S
C1218 C1214 1.350 1_556 S
C1218 C1215 1.463 . S
C1218 N1222 1.427 . S
C1219 H1209 0.929 . S
C1219 C1217 1.433 . S
C1219 N1222 1.384 . S
C1220 H1211 0.929 . S
C1220 C1212 1.378 . S
C1220 C1215 1.350 . S
C1221 H1208 0.929 . S
C1221 C1213 1.433 1_554 S
C1221 N1223 1.384 . S
N1222 C1218 1.427 . S
N1222 C1219 1.384 . S
N1223 C1215 1.427 1_554 S
N1223 C1221 1.384 . S
H1224 C1230 0.934 . S
H1225 C1234 0.930 . S
H1226 C1239 0.929 . S
H1227 C1237 0.936 . S
H1228 C1232 0.929 . S
H1229 C1238 0.932 . S
C1230 H1224 0.934 . S
C1230 C1231 1.364 1_554 S
C1230 C1238 1.378 . S
C1231 C1230 1.364 1_556 S
C1231 C1239 1.433 . S
C1232 H1228 0.929 . S
C1232 C1234 1.378 . S
C1232 C1236 1.350 . S
C1233 C1236 1.463 . S
C1233 C1238 1.346 1_556 S
C1233 N1241 1.427 . S
C1234 H1225 0.930 . S
C1234 C1232 1.378 . S
C1234 C1235 1.367 . S
C1235 C1234 1.367 . S
C1235 C1237 1.427 1_556 S
C1236 C1232 1.350 . S
C1236 C1233 1.463 . S
C1236 N1240 1.422 1_556 S
C1237 H1227 0.936 . S
C1237 C1235 1.427 1_554 S
C1237 N1240 1.384 . S
C1238 H1229 0.932 . S
C1238 C1230 1.378 . S
C1238 C1233 1.346 1_554 S
C1239 H1226 0.929 . S
C1239 C1231 1.433 . S
C1239 N1241 1.384 . S
N1240 C1236 1.422 1_554 S
N1240 C1237 1.384 . S
N1241 C1233 1.427 . S
N1241 C1239 1.384 . S
H1242 C1248 0.930 . S
H1243 C1252 0.930 . S
H1244 C1257 0.929 . S
H1245 C1255 0.929 . S
H1246 C1250 0.929 . S
H1247 C1256 0.929 . S
C1248 H1242 0.930 . S
C1248 C1249 1.367 1_554 S
C1248 C1256 1.378 . S
C1249 C1248 1.367 1_556 S
C1249 C1257 1.433 . S
C1250 H1246 0.929 . S
C1250 C1252 1.378 . S
C1250 C1254 1.350 . S
C1251 C1254 1.463 . S
C1251 C1256 1.350 1_556 S
C1251 N1259 1.427 . S
C1252 H1243 0.930 . S
C1252 C1250 1.378 . S
C1252 C1253 1.367 . S
C1253 C1252 1.367 . S
C1253 C1255 1.433 1_556 S
C1254 C1250 1.350 . S
C1254 C1251 1.463 . S
C1254 N1258 1.427 1_556 S
C1255 H1245 0.929 . S
C1255 C1253 1.433 1_554 S
C1255 N1258 1.384 . S
C1256 H1247 0.929 . S
C1256 C1248 1.378 . S
C1256 C1251 1.350 1_554 S
C1257 H1244 0.929 . S
C1257 C1249 1.433 . S
C1257 N1259 1.384 . S
N1258 C1254 1.427 1_554 S
N1258 C1255 1.384 . S
N1259 C1251 1.427 . S
N1259 C1257 1.384 . S
H1260 C1266 0.930 . S
H1261 C1270 0.930 . S
H1262 C1275 0.929 . S
H1263 C1273 0.929 . S
H1264 C1268 0.929 . S
H1265 C1274 0.929 . S
C1266 H1260 0.930 . S
C1266 C1267 1.367 . S
C1266 C1274 1.378 . S
C1267 C1266 1.367 . S
C1267 C1275 1.433 . S
C1268 H1264 0.929 . S
C1268 C1270 1.378 . S
C1268 C1272 1.350 . S
C1269 C1272 1.463 . S
C1269 C1274 1.350 . S
C1269 N1277 1.427 . S
C1270 H1261 0.930 . S
C1270 C1268 1.378 . S
C1270 C1271 1.367 . S
C1271 C1270 1.367 . S
C1271 C1273 1.433 . S
C1272 C1268 1.350 . S
C1272 C1269 1.463 . S
C1272 N1276 1.427 . S
C1273 H1263 0.929 . S
C1273 C1271 1.433 . S
C1273 N1276 1.384 . S
C1274 H1265 0.929 . S
C1274 C1266 1.378 . S
C1274 C1269 1.350 . S
C1275 H1262 0.929 . S
C1275 C1267 1.433 . S
C1275 N1277 1.384 . S
N1276 C1272 1.427 . S
N1276 C1273 1.384 . S
N1277 C1269 1.427 . S
N1277 C1275 1.384 . S
H1278 C1284 0.930 . S
H1279 C1288 0.930 . S
H1280 C1293 0.929 . S
H1281 C1291 0.929 . S
H1282 C1286 0.929 . S
H1283 C1292 0.929 . S
C1284 H1278 0.930 . S
C1284 C1285 1.367 . S
C1284 C1292 1.378 . S
C1285 C1284 1.367 . S
C1285 C1293 1.433 . S
C1286 H1282 0.929 . S
C1286 C1288 1.378 . S
C1286 C1290 1.350 . S
C1287 C1290 1.463 . S
C1287 C1292 1.350 . S
C1287 N1295 1.427 . S
C1288 H1279 0.930 . S
C1288 C1286 1.378 . S
C1288 C1289 1.367 . S
C1289 C1288 1.367 . S
C1289 C1291 1.433 . S
C1290 C1286 1.350 . S
C1290 C1287 1.463 . S
C1290 N1294 1.427 . S
C1291 H1281 0.929 . S
C1291 C1289 1.433 . S
C1291 N1294 1.384 . S
C1292 H1283 0.929 . S
C1292 C1284 1.378 . S
C1292 C1287 1.350 . S
C1293 H1280 0.929 . S
C1293 C1285 1.433 . S
C1293 N1295 1.384 . S
N1294 C1290 1.427 . S
N1294 C1291 1.384 . S
N1295 C1287 1.427 . S
N1295 C1293 1.384 . S
H1296 C1302 0.930 . S
H1297 C1306 0.930 . S
H1298 C1311 0.929 . S
H1299 C1309 0.929 . S
H1300 C1304 0.929 . S
H1301 C1310 0.929 . S
C1302 H1296 0.930 . S
C1302 C1303 1.367 . S
C1302 C1310 1.378 . S
C1303 C1302 1.367 . S
C1303 C1311 1.433 . S
C1304 H1300 0.929 . S
C1304 C1306 1.378 . S
C1304 C1308 1.350 . S
C1305 C1308 1.463 . S
C1305 C1310 1.350 . S
C1305 N1313 1.427 . S
C1306 H1297 0.930 . S
C1306 C1304 1.378 . S
C1306 C1307 1.367 . S
C1307 C1306 1.367 . S
C1307 C1309 1.433 . S
C1308 C1304 1.350 . S
C1308 C1305 1.463 . S
C1308 N1312 1.427 . S
C1309 H1299 0.929 . S
C1309 C1307 1.433 . S
C1309 N1312 1.384 . S
C1310 H1301 0.929 . S
C1310 C1302 1.378 . S
C1310 C1305 1.350 . S
C1311 H1298 0.929 . S
C1311 C1303 1.433 . S
C1311 N1313 1.384 . S
N1312 C1308 1.427 . S
N1312 C1309 1.384 . S
N1313 C1305 1.427 . S
N1313 C1311 1.384 . S
H1314 C1320 0.930 . S
H1315 C1324 0.930 . S
H1316 C1329 0.929 . S
H1317 C1327 0.929 . S
H1318 C1322 0.929 . S
H1319 C1328 0.929 . S
C1320 H1314 0.930 . S
C1320 C1321 1.367 . S
C1320 C1328 1.378 . S
C1321 C1320 1.367 . S
C1321 C1329 1.433 . S
C1322 H1318 0.929 . S
C1322 C1324 1.378 . S
C1322 C1326 1.350 . S
C1323 C1326 1.463 . S
C1323 C1328 1.350 . S
C1323 N1331 1.427 . S
C1324 H1315 0.930 . S
C1324 C1322 1.378 . S
C1324 C1325 1.367 . S
C1325 C1324 1.367 . S
C1325 C1327 1.433 . S
C1326 C1322 1.350 . S
C1326 C1323 1.463 . S
C1326 N1330 1.427 . S
C1327 H1317 0.929 . S
C1327 C1325 1.433 . S
C1327 N1330 1.384 . S
C1328 H1319 0.929 . S
C1328 C1320 1.378 . S
C1328 C1323 1.350 . S
C1329 H1316 0.929 . S
C1329 C1321 1.433 . S
C1329 N1331 1.384 . S
N1330 C1326 1.427 . S
N1330 C1327 1.384 . S
N1331 C1323 1.427 . S
N1331 C1329 1.384 . S
H1332 C1338 0.930 . S
H1333 C1342 0.930 . S
H1334 C1347 0.929 . S
H1335 C1345 0.929 . S
H1336 C1340 0.929 . S
H1337 C1346 0.929 . S
C1338 H1332 0.930 . S
C1338 C1339 1.367 . S
C1338 C1346 1.378 . S
C1339 C1338 1.367 . S
C1339 C1347 1.433 . S
C1340 H1336 0.929 . S
C1340 C1342 1.378 . S
C1340 C1344 1.350 . S
C1341 C1344 1.463 . S
C1341 C1346 1.350 . S
C1341 N1349 1.427 . S
C1342 H1333 0.930 . S
C1342 C1340 1.378 . S
C1342 C1343 1.367 . S
C1343 C1342 1.367 . S
C1343 C1345 1.433 . S
C1344 C1340 1.350 . S
C1344 C1341 1.463 . S
C1344 N1348 1.427 . S
C1345 H1335 0.929 . S
C1345 C1343 1.433 . S
C1345 N1348 1.384 . S
C1346 H1337 0.929 . S
C1346 C1338 1.378 . S
C1346 C1341 1.350 . S
C1347 H1334 0.929 . S
C1347 C1339 1.433 . S
C1347 N1349 1.384 . S
N1348 C1344 1.427 . S
N1348 C1345 1.384 . S
N1349 C1341 1.427 . S
N1349 C1347 1.384 . S
H1350 C1356 0.930 . S
H1351 C1360 0.930 . S
H1352 C1365 0.929 . S
H1353 C1363 0.929 . S
H1354 C1358 0.929 . S
H1355 C1364 0.929 . S
C1356 H1350 0.930 . S
C1356 C1357 1.367 . S
C1356 C1364 1.378 . S
C1357 C1356 1.367 . S
C1357 C1365 1.433 . S
C1358 H1354 0.929 . S
C1358 C1360 1.378 . S
C1358 C1362 1.350 . S
C1359 C1362 1.463 . S
C1359 C1364 1.350 . S
C1359 N1367 1.427 . S
C1360 H1351 0.930 . S
C1360 C1358 1.378 . S
C1360 C1361 1.367 . S
C1361 C1360 1.367 . S
C1361 C1363 1.433 . S
C1362 C1358 1.350 . S
C1362 C1359 1.463 . S
C1362 N1366 1.427 . S
C1363 H1353 0.929 . S
C1363 C1361 1.433 . S
C1363 N1366 1.384 . S
C1364 H1355 0.929 . S
C1364 C1356 1.378 . S
C1364 C1359 1.350 . S
C1365 H1352 0.929 . S
C1365 C1357 1.433 . S
C1365 N1367 1.384 . S
N1366 C1362 1.427 . S
N1366 C1363 1.384 . S
N1367 C1359 1.427 . S
N1367 C1365 1.384 . S
H1368 C1374 0.930 . S
H1369 C1378 0.930 . S
H1370 C1383 0.929 . S
H1371 C1381 0.929 . S
H1372 C1376 0.929 . S
H1373 C1382 0.929 . S
C1374 H1368 0.930 . S
C1374 C1375 1.367 . S
C1374 C1382 1.378 . S
C1375 C1374 1.367 . S
C1375 C1383 1.433 . S
C1376 H1372 0.929 . S
C1376 C1378 1.378 . S
C1376 C1380 1.350 . S
C1377 C1380 1.463 . S
C1377 C1382 1.350 . S
C1377 N1385 1.427 . S
C1378 H1369 0.930 . S
C1378 C1376 1.378 . S
C1378 C1379 1.367 . S
C1379 C1378 1.367 . S
C1379 C1381 1.433 . S
C1380 C1376 1.350 . S
C1380 C1377 1.463 . S
C1380 N1384 1.427 . S
C1381 H1371 0.929 . S
C1381 C1379 1.433 . S
C1381 N1384 1.384 . S
C1382 H1373 0.929 . S
C1382 C1374 1.378 . S
C1382 C1377 1.350 . S
C1383 H1370 0.929 . S
C1383 C1375 1.433 . S
C1383 N1385 1.384 . S
N1384 C1380 1.427 . S
N1384 C1381 1.384 . S
N1385 C1377 1.427 . S
N1385 C1383 1.384 . S
H1386 C1392 0.930 . S
H1387 C1396 0.930 . S
H1388 C1401 0.929 . S
H1389 C1399 0.929 . S
H1390 C1394 0.929 . S
H1391 C1400 0.929 . S
C1392 H1386 0.930 . S
C1392 C1393 1.367 1_565 S
C1392 C1400 1.378 . S
C1393 C1392 1.367 1_545 S
C1393 C1401 1.433 . S
C1394 H1390 0.929 . S
C1394 C1396 1.378 . S
C1394 C1398 1.350 . S
C1395 C1398 1.463 . S
C1395 C1400 1.350 . S
C1395 N1403 1.427 . S
C1396 H1387 0.930 . S
C1396 C1394 1.378 . S
C1396 C1397 1.367 . S
C1397 C1396 1.367 . S
C1397 C1399 1.433 . S
C1398 C1394 1.350 . S
C1398 C1395 1.463 . S
C1398 N1402 1.427 . S
C1399 H1389 0.929 . S
C1399 C1397 1.433 . S
C1399 N1402 1.384 . S
C1400 H1391 0.929 . S
C1400 C1392 1.378 . S
C1400 C1395 1.350 . S
C1401 H1388 0.929 . S
C1401 C1393 1.433 . S
C1401 N1403 1.384 1_545 S
N1402 C1398 1.427 . S
N1402 C1399 1.384 . S
N1403 C1395 1.427 . S
N1403 C1401 1.384 1_565 S
H1404 C1410 0.930 . S
H1405 C1414 0.930 . S
H1406 C1419 0.929 . S
H1407 C1417 0.929 . S
H1408 C1412 0.929 . S
H1409 C1418 0.929 . S
C1410 H1404 0.930 . S
C1410 C1411 1.367 . S
C1410 C1418 1.378 . S
C1411 C1410 1.367 . S
C1411 C1419 1.433 . S
C1412 H1408 0.929 . S
C1412 C1414 1.378 . S
C1412 C1416 1.350 . S
C1413 C1416 1.463 . S
C1413 C1418 1.350 . S
C1413 N1421 1.427 . S
C1414 H1405 0.930 . S
C1414 C1412 1.378 . S
C1414 C1415 1.367 1_455 S
C1415 C1414 1.367 1_655 S
C1415 C1417 1.433 . S
C1416 C1412 1.350 . S
C1416 C1413 1.463 . S
C1416 N1420 1.427 . S
C1417 H1407 0.929 . S
C1417 C1415 1.433 . S
C1417 N1420 1.384 1_655 S
C1418 H1409 0.929 . S
C1418 C1410 1.378 . S
C1418 C1413 1.350 . S
C1419 H1406 0.929 . S
C1419 C1411 1.433 . S
C1419 N1421 1.384 . S
N1420 C1416 1.427 . S
N1420 C1417 1.384 1_455 S
N1421 C1413 1.427 . S
N1421 C1419 1.384 . S
H1422 C1428 0.930 . S
H1423 C1432 0.930 . S
H1424 C1437 0.929 . S
H1425 C1435 0.929 . S
H1426 C1430 0.929 . S
H1427 C1436 0.929 . S
C1428 H1422 0.930 . S
C1428 C1429 1.367 . S
C1428 C1436 1.378 . S
C1429 C1428 1.367 . S
C1429 C1437 1.433 . S
C1430 H1426 0.929 . S
C1430 C1432 1.378 . S
C1430 C1434 1.350 . S
C1431 C1434 1.463 . S
C1431 C1436 1.350 . S
C1431 N1439 1.427 . S
C1432 H1423 0.930 . S
C1432 C1430 1.378 . S
C1432 C1433 1.367 . S
C1433 C1432 1.367 . S
C1433 C1435 1.433 . S
C1434 C1430 1.350 . S
C1434 C1431 1.463 . S
C1434 N1438 1.427 . S
C1435 H1425 0.929 . S
C1435 C1433 1.433 . S
C1435 N1438 1.384 . S
C1436 H1427 0.929 . S
C1436 C1428 1.378 . S
C1436 C1431 1.350 . S
C1437 H1424 0.929 . S
C1437 C1429 1.433 . S
C1437 N1439 1.384 . S
N1438 C1434 1.427 . S
N1438 C1435 1.384 . S
N1439 C1431 1.427 . S
N1439 C1437 1.384 . S
H1440 C1446 0.930 . S
H1441 C1450 0.930 . S
H1442 C1455 0.929 . S
H1443 C1453 0.929 . S
H1444 C1448 0.929 . S
H1445 C1454 0.929 . S
C1446 H1440 0.930 . S
C1446 C1447 1.367 1_545 S
C1446 C1454 1.378 . S
C1447 C1446 1.367 1_565 S
C1447 C1455 1.433 . S
C1448 H1444 0.929 . S
C1448 C1450 1.378 . S
C1448 C1452 1.350 . S
C1449 C1452 1.463 . S
C1449 C1454 1.350 . S
C1449 N1457 1.427 1_545 S
C1450 H1441 0.930 . S
C1450 C1448 1.378 . S
C1450 C1451 1.367 . S
C1451 C1450 1.367 . S
C1451 C1453 1.433 . S
C1452 C1448 1.350 . S
C1452 C1449 1.463 . S
C1452 N1456 1.427 . S
C1453 H1443 0.929 . S
C1453 C1451 1.433 . S
C1453 N1456 1.384 . S
C1454 H1445 0.929 . S
C1454 C1446 1.378 . S
C1454 C1449 1.350 . S
C1455 H1442 0.929 . S
C1455 C1447 1.433 . S
C1455 N1457 1.384 . S
N1456 C1452 1.427 . S
N1456 C1453 1.384 . S
N1457 C1449 1.427 1_565 S
N1457 C1455 1.384 . S
H1458 C1464 0.930 . S
H1459 C1468 0.930 . S
H1460 C1473 0.929 . S
H1461 C1471 0.929 1_455 S
H1462 C1466 0.929 . S
H1463 C1472 0.929 . S
C1464 H1458 0.930 . S
C1464 C1465 1.367 . S
C1464 C1472 1.378 . S
C1465 C1464 1.367 . S
C1465 C1473 1.433 . S
C1466 H1462 0.929 . S
C1466 C1468 1.378 1_655 S
C1466 C1470 1.350 . S
C1467 C1470 1.463 . S
C1467 C1472 1.350 . S
C1467 N1475 1.427 . S
C1468 H1459 0.930 . S
C1468 C1466 1.378 1_455 S
C1468 C1469 1.367 . S
C1469 C1468 1.367 . S
C1469 C1471 1.433 1_455 S
C1470 C1466 1.350 . S
C1470 C1467 1.463 . S
C1470 N1474 1.427 . S
C1471 H1461 0.929 1_655 S
C1471 C1469 1.433 1_655 S
C1471 N1474 1.384 . S
C1472 H1463 0.929 . S
C1472 C1464 1.378 . S
C1472 C1467 1.350 . S
C1473 H1460 0.929 . S
C1473 C1465 1.433 . S
C1473 N1475 1.384 . S
N1474 C1470 1.427 . S
N1474 C1471 1.384 . S
N1475 C1467 1.427 . S
N1475 C1473 1.384 . S
H1476 C1482 0.930 . S
H1477 C1486 0.930 . S
H1478 C1491 0.929 . S
H1479 C1489 0.929 . S
H1480 C1484 0.929 . S
H1481 C1490 0.929 . S
C1482 H1476 0.930 . S
C1482 C1483 1.367 . S
C1482 C1490 1.378 . S
C1483 C1482 1.367 . S
C1483 C1491 1.433 . S
C1484 H1480 0.929 . S
C1484 C1486 1.378 . S
C1484 C1488 1.350 . S
C1485 C1488 1.463 . S
C1485 C1490 1.350 . S
C1485 N1493 1.427 . S
C1486 H1477 0.930 . S
C1486 C1484 1.378 . S
C1486 C1487 1.367 . S
C1487 C1486 1.367 . S
C1487 C1489 1.433 . S
C1488 C1484 1.350 . S
C1488 C1485 1.463 . S
C1488 N1492 1.427 . S
C1489 H1479 0.929 . S
C1489 C1487 1.433 . S
C1489 N1492 1.384 . S
C1490 H1481 0.929 . S
C1490 C1482 1.378 . S
C1490 C1485 1.350 . S
C1491 H1478 0.929 . S
C1491 C1483 1.433 . S
C1491 N1493 1.384 . S
N1492 C1488 1.427 . S
N1492 C1489 1.384 . S
N1493 C1485 1.427 . S
N1493 C1491 1.384 . S
H1494 C1500 0.930 . S
H1495 C1504 0.930 . S
H1496 C1509 0.929 . S
H1497 C1507 0.929 . S
H1498 C1502 0.929 . S
H1499 C1508 0.929 . S
C1500 H1494 0.930 . S
C1500 C1501 1.367 . S
C1500 C1508 1.378 . S
C1501 C1500 1.367 . S
C1501 C1509 1.433 . S
C1502 H1498 0.929 . S
C1502 C1504 1.378 . S
C1502 C1506 1.350 . S
C1503 C1506 1.463 . S
C1503 C1508 1.350 . S
C1503 N1511 1.427 . S
C1504 H1495 0.930 . S
C1504 C1502 1.378 . S
C1504 C1505 1.367 1_545 S
C1505 C1504 1.367 1_565 S
C1505 C1507 1.433 . S
C1506 C1502 1.350 . S
C1506 C1503 1.463 . S
C1506 N1510 1.427 . S
C1507 H1497 0.929 . S
C1507 C1505 1.433 . S
C1507 N1510 1.384 1_565 S
C1508 H1499 0.929 . S
C1508 C1500 1.378 . S
C1508 C1503 1.350 . S
C1509 H1496 0.929 . S
C1509 C1501 1.433 . S
C1509 N1511 1.384 . S
N1510 C1506 1.427 . S
N1510 C1507 1.384 1_545 S
N1511 C1503 1.427 . S
N1511 C1509 1.384 . S
H1512 C1518 0.930 . S
H1513 C1522 0.930 . S
H1514 C1527 0.929 . S
H1515 C1525 0.929 . S
H1516 C1520 0.929 . S
H1517 C1526 0.929 . S
C1518 H1512 0.930 . S
C1518 C1519 1.367 . S
C1518 C1526 1.378 . S
C1519 C1518 1.367 . S
C1519 C1527 1.433 . S
C1520 H1516 0.929 . S
C1520 C1522 1.378 . S
C1520 C1524 1.350 . S
C1521 C1524 1.463 . S
C1521 C1526 1.350 . S
C1521 N1529 1.427 . S
C1522 H1513 0.930 . S
C1522 C1520 1.378 . S
C1522 C1523 1.367 1_655 S
C1523 C1522 1.367 1_455 S
C1523 C1525 1.433 . S
C1524 C1520 1.350 . S
C1524 C1521 1.463 . S
C1524 N1528 1.427 . S
C1525 H1515 0.929 . S
C1525 C1523 1.433 . S
C1525 N1528 1.384 1_455 S
C1526 H1517 0.929 . S
C1526 C1518 1.378 . S
C1526 C1521 1.350 . S
C1527 H1514 0.929 . S
C1527 C1519 1.433 . S
C1527 N1529 1.384 . S
N1528 C1524 1.427 . S
N1528 C1525 1.384 1_655 S
N1529 C1521 1.427 . S
N1529 C1527 1.384 . S
H1530 C1536 0.930 . S
H1531 C1540 0.930 . S
H1532 C1545 0.929 . S
H1533 C1543 0.929 . S
H1534 C1538 0.929 . S
H1535 C1544 0.929 . S
C1536 H1530 0.930 . S
C1536 C1537 1.367 . S
C1536 C1544 1.378 . S
C1537 C1536 1.367 . S
C1537 C1545 1.433 . S
C1538 H1534 0.929 . S
C1538 C1540 1.378 . S
C1538 C1542 1.350 . S
C1539 C1542 1.463 . S
C1539 C1544 1.350 . S
C1539 N1547 1.427 . S
C1540 H1531 0.930 . S
C1540 C1538 1.378 . S
C1540 C1541 1.367 . S
C1541 C1540 1.367 . S
C1541 C1543 1.433 . S
C1542 C1538 1.350 . S
C1542 C1539 1.463 . S
C1542 N1546 1.427 . S
C1543 H1533 0.929 . S
C1543 C1541 1.433 . S
C1543 N1546 1.384 . S
C1544 H1535 0.929 . S
C1544 C1536 1.378 . S
C1544 C1539 1.350 . S
C1545 H1532 0.929 . S
C1545 C1537 1.433 . S
C1545 N1547 1.384 . S
N1546 C1542 1.427 . S
N1546 C1543 1.384 . S
N1547 C1539 1.427 . S
N1547 C1545 1.384 . S
H1548 C1554 0.930 . S
H1549 C1558 0.930 . S
H1550 C1563 0.929 . S
H1551 C1561 0.929 . S
H1552 C1556 0.929 . S
H1553 C1562 0.929 . S
C1554 H1548 0.930 . S
C1554 C1555 1.367 . S
C1554 C1562 1.378 . S
C1555 C1554 1.367 . S
C1555 C1563 1.433 1_545 S
C1556 H1552 0.929 . S
C1556 C1558 1.378 . S
C1556 C1560 1.350 . S
C1557 C1560 1.463 . S
C1557 C1562 1.350 1_565 S
C1557 N1565 1.427 . S
C1558 H1549 0.930 . S
C1558 C1556 1.378 . S
C1558 C1559 1.367 . S
C1559 C1558 1.367 . S
C1559 C1561 1.433 . S
C1560 C1556 1.350 . S
C1560 C1557 1.463 . S
C1560 N1564 1.427 . S
C1561 H1551 0.929 . S
C1561 C1559 1.433 . S
C1561 N1564 1.384 . S
C1562 H1553 0.929 . S
C1562 C1554 1.378 . S
C1562 C1557 1.350 1_545 S
C1563 H1550 0.929 . S
C1563 C1555 1.433 1_565 S
C1563 N1565 1.384 . S
N1564 C1560 1.427 . S
N1564 C1561 1.384 . S
N1565 C1557 1.427 . S
N1565 C1563 1.384 . S
H1566 C1572 0.939 . S
H1567 C1576 0.930 . S
H1568 C1581 0.929 . S
H1569 C1579 0.929 . S
H1570 C1574 0.929 . S
H1571 C1580 0.929 . S
C1572 H1566 0.939 . S
C1572 C1573 1.367 1_455 S
C1572 C1580 1.378 . S
C1573 C1572 1.367 1_655 S
C1573 C1581 1.433 . S
C1574 H1570 0.929 . S
C1574 C1576 1.378 . S
C1574 C1578 1.350 . S
C1575 C1578 1.463 . S
C1575 C1580 1.350 . S
C1575 N1583 1.427 . S
C1576 H1567 0.930 . S
C1576 C1574 1.378 . S
C1576 C1577 1.367 . S
C1577 C1576 1.367 . S
C1577 C1579 1.433 . S
C1578 C1574 1.350 . S
C1578 C1575 1.463 . S
C1578 N1582 1.427 . S
C1579 H1569 0.929 . S
C1579 C1577 1.433 . S
C1579 N1582 1.384 . S
C1580 H1571 0.929 . S
C1580 C1572 1.378 . S
C1580 C1575 1.350 . S
C1581 H1568 0.929 . S
C1581 C1573 1.433 . S
C1581 N1583 1.384 1_655 S
N1582 C1578 1.427 . S
N1582 C1579 1.384 . S
N1583 C1575 1.427 . S
N1583 C1581 1.384 1_455 S
H1584 C1590 0.930 . S
H1585 C1594 0.930 . S
H1586 C1599 0.929 . S
H1587 C1597 0.929 . S
H1588 C1592 0.929 . S
H1589 C1598 0.929 . S
C1590 H1584 0.930 . S
C1590 C1591 1.367 . S
C1590 C1598 1.378 . S
C1591 C1590 1.367 . S
C1591 C1599 1.433 . S
C1592 H1588 0.929 . S
C1592 C1594 1.378 . S
C1592 C1596 1.350 . S
C1593 C1596 1.463 1_655 S
C1593 C1598 1.350 . S
C1593 N1601 1.427 . S
C1594 H1585 0.930 . S
C1594 C1592 1.378 . S
C1594 C1595 1.367 . S
C1595 C1594 1.367 . S
C1595 C1597 1.433 . S
C1596 C1592 1.350 . S
C1596 C1593 1.463 1_455 S
C1596 N1600 1.427 . S
C1597 H1587 0.929 . S
C1597 C1595 1.433 . S
C1597 N1600 1.384 . S
C1598 H1589 0.929 . S
C1598 C1590 1.378 . S
C1598 C1593 1.350 . S
C1599 H1586 0.929 . S
C1599 C1591 1.433 . S
C1599 N1601 1.384 . S
N1600 C1596 1.427 . S
N1600 C1597 1.384 . S
N1601 C1593 1.427 . S
N1601 C1599 1.384 . S
H1602 C1608 0.930 . S
H1603 C1612 0.930 . S
H1604 C1617 0.929 . S
H1605 C1615 0.929 . S
H1606 C1610 0.929 . S
H1607 C1616 0.929 . S
C1608 H1602 0.930 . S
C1608 C1609 1.367 . S
C1608 C1616 1.378 . S
C1609 C1608 1.367 . S
C1609 C1617 1.433 . S
C1610 H1606 0.929 . S
C1610 C1612 1.378 . S
C1610 C1614 1.350 . S
C1611 C1614 1.463 . S
C1611 C1616 1.350 . S
C1611 N1619 1.427 . S
C1612 H1603 0.930 . S
C1612 C1610 1.378 . S
C1612 C1613 1.367 . S
C1613 C1612 1.367 . S
C1613 C1615 1.433 . S
C1614 C1610 1.350 . S
C1614 C1611 1.463 . S
C1614 N1618 1.427 . S
C1615 H1605 0.929 . S
C1615 C1613 1.433 . S
C1615 N1618 1.384 . S
C1616 H1607 0.929 . S
C1616 C1608 1.378 . S
C1616 C1611 1.350 . S
C1617 H1604 0.929 . S
C1617 C1609 1.433 . S
C1617 N1619 1.384 . S
N1618 C1614 1.427 . S
N1618 C1615 1.384 . S
N1619 C1611 1.427 . S
N1619 C1617 1.384 . S
H1620 C1626 0.930 . S
H1621 C1630 0.930 . S
H1622 C1635 0.929 . S
H1623 C1633 0.929 . S
H1624 C1628 0.900 1_565 S
H1625 C1634 0.929 . S
C1626 H1620 0.930 . S
C1626 C1627 1.367 . S
C1626 C1634 1.378 . S
C1627 C1626 1.367 . S
C1627 C1635 1.433 . S
C1628 H1624 0.900 1_545 S
C1628 C1630 1.378 . S
C1628 C1632 1.350 . S
C1629 C1632 1.463 1_565 S
C1629 C1634 1.350 . S
C1629 N1637 1.427 . S
C1630 H1621 0.930 . S
C1630 C1628 1.378 . S
C1630 C1631 1.367 . S
C1631 C1630 1.367 . S
C1631 C1633 1.433 . S
C1632 C1628 1.350 . S
C1632 C1629 1.463 1_545 S
C1632 N1636 1.427 . S
C1633 H1623 0.929 . S
C1633 C1631 1.433 . S
C1633 N1636 1.384 . S
C1634 H1625 0.929 . S
C1634 C1626 1.378 . S
C1634 C1629 1.350 . S
C1635 H1622 0.929 . S
C1635 C1627 1.433 . S
C1635 N1637 1.384 . S
N1636 C1632 1.427 . S
N1636 C1633 1.384 . S
N1637 C1629 1.427 . S
N1637 C1635 1.384 . S
H1638 C1644 0.930 . S
H1639 C1648 0.930 . S
H1640 C1653 0.929 . S
H1641 C1651 0.929 1_655 S
H1642 C1646 0.929 . S
H1643 C1652 0.929 . S
C1644 H1638 0.930 . S
C1644 C1645 1.367 . S
C1644 C1652 1.378 . S
C1645 C1644 1.367 . S
C1645 C1653 1.433 . S
C1646 H1642 0.929 . S
C1646 C1648 1.378 . S
C1646 C1650 1.350 . S
C1647 C1650 1.463 . S
C1647 C1652 1.350 . S
C1647 N1655 1.427 . S
C1648 H1639 0.930 . S
C1648 C1646 1.378 . S
C1648 C1649 1.367 . S
C1649 C1648 1.367 . S
C1649 C1651 1.433 . S
C1650 C1646 1.350 . S
C1650 C1647 1.463 . S
C1650 N1654 1.427 . S
C1651 H1641 0.929 1_455 S
C1651 C1649 1.433 . S
C1651 N1654 1.384 . S
C1652 H1643 0.929 . S
C1652 C1644 1.378 . S
C1652 C1647 1.350 . S
C1653 H1640 0.929 . S
C1653 C1645 1.433 . S
C1653 N1655 1.384 . S
N1654 C1650 1.427 . S
N1654 C1651 1.384 . S
N1655 C1647 1.427 . S
N1655 C1653 1.384 . S
H1656 C1662 0.930 . S
H1657 C1666 0.930 . S
H1658 C1671 0.929 . S
H1659 C1669 0.929 . S
H1660 C1664 0.929 . S
H1661 C1670 0.929 . S
C1662 H1656 0.930 . S
C1662 C1663 1.367 . S
C1662 C1670 1.378 . S
C1663 C1662 1.367 . S
C1663 C1671 1.433 . S
C1664 H1660 0.929 . S
C1664 C1666 1.378 . S
C1664 C1668 1.350 . S
C1665 C1668 1.463 . S
C1665 C1670 1.350 . S
C1665 N1673 1.427 . S
C1666 H1657 0.930 . S
C1666 C1664 1.378 . S
C1666 C1667 1.367 . S
C1667 C1666 1.367 . S
C1667 C1669 1.433 . S
C1668 C1664 1.350 . S
C1668 C1665 1.463 . S
C1668 N1672 1.427 . S
C1669 H1659 0.929 . S
C1669 C1667 1.433 . S
C1669 N1672 1.384 . S
C1670 H1661 0.929 . S
C1670 C1662 1.378 . S
C1670 C1665 1.350 . S
C1671 H1658 0.929 . S
C1671 C1663 1.433 . S
C1671 N1673 1.384 . S
N1672 C1668 1.427 . S
N1672 C1669 1.384 . S
N1673 C1665 1.427 . S
N1673 C1671 1.384 . S
H1674 C1680 0.930 . S
H1675 C1684 0.930 . S
H1676 C1689 0.929 . S
H1677 C1687 0.929 . S
H1678 C1682 0.929 . S
H1679 C1688 0.929 . S
C1680 H1674 0.930 . S
C1680 C1681 1.367 . S
C1680 C1688 1.378 . S
C1681 C1680 1.367 . S
C1681 C1689 1.433 . S
C1682 H1678 0.929 . S
C1682 C1684 1.378 . S
C1682 C1686 1.350 . S
C1683 C1686 1.463 . S
C1683 C1688 1.350 . S
C1683 N1691 1.427 . S
C1684 H1675 0.930 . S
C1684 C1682 1.378 . S
C1684 C1685 1.367 . S
C1685 C1684 1.367 . S
C1685 C1687 1.433 1_565 S
C1686 C1682 1.350 . S
C1686 C1683 1.463 . S
C1686 N1690 1.427 . S
C1687 H1677 0.929 . S
C1687 C1685 1.433 1_545 S
C1687 N1690 1.384 1_545 S
C1688 H1679 0.929 . S
C1688 C1680 1.378 . S
C1688 C1683 1.350 . S
C1689 H1676 0.929 . S
C1689 C1681 1.433 . S
C1689 N1691 1.384 . S
N1690 C1686 1.427 . S
N1690 C1687 1.384 1_565 S
N1691 C1683 1.427 . S
N1691 C1689 1.384 . S
H1692 C1698 0.930 . S
H1693 C1702 0.930 . S
H1694 C1707 0.929 . S
H1695 C1705 0.929 . S
H1696 C1700 0.929 . S
H1697 C1706 0.929 . S
C1698 H1692 0.930 . S
C1698 C1699 1.367 . S
C1698 C1706 1.378 . S
C1699 C1698 1.367 . S
C1699 C1707 1.433 . S
C1700 H1696 0.929 . S
C1700 C1702 1.378 . S
C1700 C1704 1.350 . S
C1701 C1704 1.463 . S
C1701 C1706 1.350 . S
C1701 N1709 1.427 . S
C1702 H1693 0.930 . S
C1702 C1700 1.378 . S
C1702 C1703 1.367 . S
C1703 C1702 1.367 . S
C1703 C1705 1.433 . S
C1704 C1700 1.350 . S
C1704 C1701 1.463 . S
C1704 N1708 1.427 . S
C1705 H1695 0.929 . S
C1705 C1703 1.433 . S
C1705 N1708 1.384 . S
C1706 H1697 0.929 . S
C1706 C1698 1.378 . S
C1706 C1701 1.350 . S
C1707 H1694 0.929 . S
C1707 C1699 1.433 . S
C1707 N1709 1.384 . S
N1708 C1704 1.427 . S
N1708 C1705 1.384 . S
N1709 C1701 1.427 . S
N1709 C1707 1.384 . S
H1710 C1716 0.930 1_655 S
H1711 C1720 0.930 . S
H1712 C1725 0.929 . S
H1713 C1723 0.929 . S
H1714 C1718 0.929 . S
H1715 C1724 0.929 . S
C1716 H1710 0.930 1_455 S
C1716 C1717 1.367 . S
C1716 C1724 1.378 . S
C1717 C1716 1.367 . S
C1717 C1725 1.433 . S
C1718 H1714 0.929 . S
C1718 C1720 1.378 . S
C1718 C1722 1.350 . S
C1719 C1722 1.463 . S
C1719 C1724 1.350 . S
C1719 N1727 1.427 . S
C1720 H1711 0.930 . S
C1720 C1718 1.378 . S
C1720 C1721 1.367 . S
C1721 C1720 1.367 . S
C1721 C1723 1.433 . S
C1722 C1718 1.350 . S
C1722 C1719 1.463 . S
C1722 N1726 1.427 . S
C1723 H1713 0.929 . S
C1723 C1721 1.433 . S
C1723 N1726 1.384 . S
C1724 H1715 0.929 . S
C1724 C1716 1.378 . S
C1724 C1719 1.350 . S
C1725 H1712 0.929 . S
C1725 C1717 1.433 . S
C1725 N1727 1.384 . S
N1726 C1722 1.427 . S
N1726 C1723 1.384 . S
N1727 C1719 1.427 . S
N1727 C1725 1.384 . S
H1728 C1734 0.930 . S
H1729 C1738 0.930 . S
H1730 C1743 0.929 . S
H1731 C1741 0.929 . S
H1732 C1736 0.929 . S
H1733 C1742 0.929 . S
C1734 H1728 0.930 . S
C1734 C1735 1.367 . S
C1734 C1742 1.378 . S
C1735 C1734 1.367 . S
C1735 C1743 1.433 . S
C1736 H1732 0.929 . S
C1736 C1738 1.378 . S
C1736 C1740 1.350 . S
C1737 C1740 1.463 . S
C1737 C1742 1.350 . S
C1737 N1745 1.427 . S
C1738 H1729 0.930 . S
C1738 C1736 1.378 . S
C1738 C1739 1.367 . S
C1739 C1738 1.367 . S
C1739 C1741 1.433 . S
C1740 C1736 1.350 . S
C1740 C1737 1.463 . S
C1740 N1744 1.427 . S
C1741 H1731 0.929 . S
C1741 C1739 1.433 . S
C1741 N1744 1.384 . S
C1742 H1733 0.929 . S
C1742 C1734 1.378 . S
C1742 C1737 1.350 . S
C1743 H1730 0.929 . S
C1743 C1735 1.433 . S
C1743 N1745 1.384 . S
N1744 C1740 1.427 . S
N1744 C1741 1.384 . S
N1745 C1737 1.427 . S
N1745 C1743 1.384 . S
H1746 C1752 0.930 . S
H1747 C1756 0.930 . S
H1748 C1761 0.933 . S
H1749 C1759 0.931 . S
H1750 C1754 0.929 . S
H1751 C1760 0.929 . S
C1752 H1746 0.930 . S
C1752 C1753 1.367 . S
C1752 C1760 1.378 . S
C1753 C1752 1.367 . S
C1753 C1761 1.433 . S
C1754 H1750 0.929 . S
C1754 C1756 1.378 . S
C1754 C1758 1.356 . S
C1755 C1758 1.457 1_564 S
C1755 C1760 1.360 . S
C1755 N1763 1.425 . S
C1756 H1747 0.930 . S
C1756 C1754 1.378 . S
C1756 C1757 1.367 . S
C1757 C1756 1.367 . S
C1757 C1759 1.433 . S
C1758 C1754 1.356 . S
C1758 C1755 1.457 1_546 S
C1758 N1762 1.425 1_556 S
C1759 H1749 0.931 . S
C1759 C1757 1.433 . S
C1759 N1762 1.382 1_556 S
C1760 H1751 0.929 . S
C1760 C1752 1.378 . S
C1760 C1755 1.360 . S
C1761 H1748 0.933 . S
C1761 C1753 1.433 . S
C1761 N1763 1.383 . S
N1762 C1758 1.425 1_554 S
N1762 C1759 1.382 1_554 S
N1763 C1755 1.425 . S
N1763 C1761 1.383 . S
H1764 C1770 0.930 . S
H1765 C1774 0.930 . S
H1766 C1779 0.929 . S
H1767 C1777 0.929 . S
H1768 C1772 0.929 . S
H1769 C1778 0.929 . S
C1770 H1764 0.930 . S
C1770 C1771 1.367 . S
C1770 C1778 1.378 . S
C1771 C1770 1.367 . S
C1771 C1779 1.433 1_554 S
C1772 H1768 0.929 . S
C1772 C1774 1.378 . S
C1772 C1776 1.350 . S
C1773 C1776 1.463 1_454 S
C1773 C1778 1.350 . S
C1773 N1781 1.427 1_554 S
C1774 H1765 0.930 . S
C1774 C1772 1.378 . S
C1774 C1775 1.367 . S
C1775 C1774 1.367 . S
C1775 C1777 1.433 1_556 S
C1776 C1772 1.350 . S
C1776 C1773 1.463 1_656 S
C1776 N1780 1.427 1_556 S
C1777 H1767 0.929 . S
C1777 C1775 1.433 1_554 S
C1777 N1780 1.384 . S
C1778 H1769 0.929 . S
C1778 C1770 1.378 . S
C1778 C1773 1.350 . S
C1779 H1766 0.929 . S
C1779 C1771 1.433 1_556 S
C1779 N1781 1.384 . S
N1780 C1776 1.427 1_554 S
N1780 C1777 1.384 . S
N1781 C1773 1.427 1_556 S
N1781 C1779 1.384 . S
H1782 C1788 0.930 . S
H1783 C1792 0.930 . S
H1784 C1797 0.929 . S
H1785 C1795 0.929 . S
H1786 C1790 0.929 . S
H1787 C1796 0.929 . S
C1788 H1782 0.930 . S
C1788 C1789 1.367 1_554 S
C1788 C1796 1.378 . S
C1789 C1788 1.367 1_556 S
C1789 C1797 1.433 . S
C1790 H1786 0.929 . S
C1790 C1792 1.378 . S
C1790 C1794 1.343 1_556 S
C1791 C1794 1.462 1_556 S
C1791 C1796 1.341 1_556 S
C1791 N1799 1.437 . S
C1792 H1783 0.930 . S
C1792 C1790 1.378 . S
C1792 C1793 1.367 1_556 S
C1793 C1792 1.367 1_554 S
C1793 C1795 1.433 . S
C1794 C1790 1.343 1_554 S
C1794 C1791 1.462 1_554 S
C1794 N1798 1.435 . S
C1795 H1785 0.929 . S
C1795 C1793 1.433 . S
C1795 N1798 1.384 . S
C1796 H1787 0.929 . S
C1796 C1788 1.378 . S
C1796 C1791 1.341 1_554 S
C1797 H1784 0.929 . S
C1797 C1789 1.433 . S
C1797 N1799 1.384 . S
N1798 C1794 1.435 . S
N1798 C1795 1.384 . S
N1799 C1791 1.437 . S
N1799 C1797 1.384 . S
H1800 C1806 0.930 . S
H1801 C1810 0.930 . S
H1802 C1815 0.929 . S
H1803 C1813 0.929 . S
H1804 C1808 0.929 . S
H1805 C1814 0.929 . S
C1806 H1800 0.930 . S
C1806 C1807 1.367 . S
C1806 C1814 1.378 . S
C1807 C1806 1.367 . S
C1807 C1815 1.433 . S
C1808 H1804 0.929 . S
C1808 C1810 1.378 . S
C1808 C1812 1.350 . S
C1809 C1812 1.463 . S
C1809 C1814 1.350 . S
C1809 N1817 1.427 . S
C1810 H1801 0.930 . S
C1810 C1808 1.378 . S
C1810 C1811 1.367 . S
C1811 C1810 1.367 . S
C1811 C1813 1.433 . S
C1812 C1808 1.350 . S
C1812 C1809 1.463 . S
C1812 N1816 1.427 . S
C1813 H1803 0.929 . S
C1813 C1811 1.433 . S
C1813 N1816 1.384 . S
C1814 H1805 0.929 . S
C1814 C1806 1.378 . S
C1814 C1809 1.350 . S
C1815 H1802 0.929 . S
C1815 C1807 1.433 . S
C1815 N1817 1.384 . S
N1816 C1812 1.427 . S
N1816 C1813 1.384 . S
N1817 C1809 1.427 . S
N1817 C1815 1.384 . S
H1818 C1824 0.930 . S
H1819 C1828 0.930 . S
H1820 C1833 0.929 . S
H1821 C1831 0.929 . S
H1822 C1826 0.929 . S
H1823 C1832 0.929 . S
C1824 H1818 0.930 . S
C1824 C1825 1.367 . S
C1824 C1832 1.378 . S
C1825 C1824 1.367 . S
C1825 C1833 1.433 . S
C1826 H1822 0.929 . S
C1826 C1828 1.378 . S
C1826 C1830 1.350 . S
C1827 C1830 1.463 . S
C1827 C1832 1.350 . S
C1827 N1835 1.427 . S
C1828 H1819 0.930 . S
C1828 C1826 1.378 . S
C1828 C1829 1.367 . S
C1829 C1828 1.367 . S
C1829 C1831 1.433 . S
C1830 C1826 1.350 . S
C1830 C1827 1.463 . S
C1830 N1834 1.427 . S
C1831 H1821 0.929 . S
C1831 C1829 1.433 . S
C1831 N1834 1.384 . S
C1832 H1823 0.929 . S
C1832 C1824 1.378 . S
C1832 C1827 1.350 . S
C1833 H1820 0.929 . S
C1833 C1825 1.433 . S
C1833 N1835 1.384 . S
N1834 C1830 1.427 . S
N1834 C1831 1.384 . S
N1835 C1827 1.427 . S
N1835 C1833 1.384 . S
H1836 C1842 0.930 . S
H1837 C1846 0.930 . S
H1838 C1851 0.929 . S
H1839 C1849 0.929 . S
H1840 C1844 0.929 . S
H1841 C1850 0.929 . S
C1842 H1836 0.930 . S
C1842 C1843 1.367 . S
C1842 C1850 1.378 . S
C1843 C1842 1.367 . S
C1843 C1851 1.433 . S
C1844 H1840 0.929 . S
C1844 C1846 1.378 . S
C1844 C1848 1.350 . S
C1845 C1848 1.463 . S
C1845 C1850 1.350 . S
C1845 N1853 1.427 . S
C1846 H1837 0.930 . S
C1846 C1844 1.378 . S
C1846 C1847 1.367 . S
C1847 C1846 1.367 . S
C1847 C1849 1.433 . S
C1848 C1844 1.350 . S
C1848 C1845 1.463 . S
C1848 N1852 1.427 . S
C1849 H1839 0.929 . S
C1849 C1847 1.433 . S
C1849 N1852 1.384 . S
C1850 H1841 0.929 . S
C1850 C1842 1.378 . S
C1850 C1845 1.350 . S
C1851 H1838 0.929 . S
C1851 C1843 1.433 . S
C1851 N1853 1.384 . S
N1852 C1848 1.427 . S
N1852 C1849 1.384 . S
N1853 C1845 1.427 . S
N1853 C1851 1.384 . S
H1854 C1860 0.930 . S
H1855 C1864 0.930 . S
H1856 C1869 0.929 . S
H1857 C1867 0.929 . S
H1858 C1862 0.929 . S
H1859 C1868 0.929 . S
C1860 H1854 0.930 . S
C1860 C1861 1.367 1_556 S
C1860 C1868 1.378 . S
C1861 C1860 1.367 1_554 S
C1861 C1869 1.433 . S
C1862 H1858 0.929 . S
C1862 C1864 1.378 . S
C1862 C1866 1.341 1_554 S
C1863 C1866 1.462 1_564 S
C1863 C1868 1.339 1_554 S
C1863 N1871 1.439 . S
C1864 H1855 0.930 . S
C1864 C1862 1.378 . S
C1864 C1865 1.367 1_554 S
C1865 C1864 1.367 1_556 S
C1865 C1867 1.433 . S
C1866 C1862 1.341 1_556 S
C1866 C1863 1.462 1_546 S
C1866 N1870 1.437 . S
C1867 H1857 0.929 . S
C1867 C1865 1.433 . S
C1867 N1870 1.384 . S
C1868 H1859 0.929 . S
C1868 C1860 1.378 . S
C1868 C1863 1.339 1_556 S
C1869 H1856 0.929 . S
C1869 C1861 1.433 . S
C1869 N1871 1.384 . S
N1870 C1866 1.437 . S
N1870 C1867 1.384 . S
N1871 C1863 1.439 . S
N1871 C1869 1.384 . S
H1872 C1878 0.930 . S
H1873 C1882 0.930 . S
H1874 C1887 0.929 . S
H1875 C1885 0.929 . S
H1876 C1880 0.931 . S
H1877 C1886 0.929 . S
C1878 H1872 0.930 . S
C1878 C1879 1.367 . S
C1878 C1886 1.378 . S
C1879 C1878 1.367 . S
C1879 C1887 1.433 . S
C1880 H1876 0.931 . S
C1880 C1882 1.378 . S
C1880 C1884 1.352 . S
C1881 C1884 1.458 1_656 S
C1881 C1886 1.354 . S
C1881 N1889 1.431 . S
C1882 H1873 0.930 . S
C1882 C1880 1.378 . S
C1882 C1883 1.367 . S
C1883 C1882 1.367 . S
C1883 C1885 1.433 . S
C1884 C1880 1.352 . S
C1884 C1881 1.458 1_454 S
C1884 N1888 1.429 . S
C1885 H1875 0.929 . S
C1885 C1883 1.433 . S
C1885 N1888 1.384 . S
C1886 H1877 0.929 . S
C1886 C1878 1.378 . S
C1886 C1881 1.354 . S
C1887 H1874 0.929 . S
C1887 C1879 1.433 . S
C1887 N1889 1.384 . S
N1888 C1884 1.429 . S
N1888 C1885 1.384 . S
N1889 C1881 1.431 . S
N1889 C1887 1.384 . S
H1890 C1896 0.930 . S
H1891 C1900 0.930 . S
H1892 C1905 0.929 . S
H1893 C1903 0.929 . S
H1894 C1898 0.929 . S
H1895 C1904 0.929 . S
C1896 H1890 0.930 . S
C1896 C1897 1.367 1_556 S
C1896 C1904 1.378 . S
C1897 C1896 1.367 1_554 S
C1897 C1905 1.433 . S
C1898 H1894 0.929 . S
C1898 C1900 1.378 . S
C1898 C1902 1.343 1_554 S
C1899 C1902 1.462 1_554 S
C1899 C1904 1.341 1_554 S
C1899 N1907 1.437 . S
C1900 H1891 0.930 . S
C1900 C1898 1.378 . S
C1900 C1901 1.367 1_554 S
C1901 C1900 1.367 1_556 S
C1901 C1903 1.433 . S
C1902 C1898 1.343 1_556 S
C1902 C1899 1.462 1_556 S
C1902 N1906 1.435 . S
C1903 H1893 0.929 . S
C1903 C1901 1.433 . S
C1903 N1906 1.384 . S
C1904 H1895 0.929 . S
C1904 C1896 1.378 . S
C1904 C1899 1.341 1_556 S
C1905 H1892 0.929 . S
C1905 C1897 1.433 . S
C1905 N1907 1.384 . S
N1906 C1902 1.435 . S
N1906 C1903 1.384 . S
N1907 C1899 1.437 . S
N1907 C1905 1.384 . S
H1908 C1914 0.930 . S
H1909 C1918 0.930 . S
H1910 C1923 0.929 . S
H1911 C1921 0.929 . S
H1912 C1916 0.929 . S
H1913 C1922 0.929 1_655 S
C1914 H1908 0.930 . S
C1914 C1915 1.367 . S
C1914 C1922 1.378 . S
C1915 C1914 1.367 . S
C1915 C1923 1.433 . S
C1916 H1912 0.929 . S
C1916 C1918 1.378 . S
C1916 C1920 1.350 . S
C1917 C1920 1.463 1_455 S
C1917 C1922 1.350 . S
C1917 N1925 1.427 . S
C1918 H1909 0.930 . S
C1918 C1916 1.378 . S
C1918 C1919 1.367 . S
C1919 C1918 1.367 . S
C1919 C1921 1.433 . S
C1920 C1916 1.350 . S
C1920 C1917 1.463 1_655 S
C1920 N1924 1.427 . S
C1921 H1911 0.929 . S
C1921 C1919 1.433 . S
C1921 N1924 1.384 . S
C1922 H1913 0.929 1_455 S
C1922 C1914 1.378 . S
C1922 C1917 1.350 . S
C1923 H1910 0.929 . S
C1923 C1915 1.433 . S
C1923 N1925 1.384 . S
N1924 C1920 1.427 . S
N1924 C1921 1.384 . S
N1925 C1917 1.427 . S
N1925 C1923 1.384 . S
H1926 C1932 0.930 . S
H1927 C1936 0.930 . S
H1928 C1941 0.929 . S
H1929 C1939 0.929 . S
H1930 C1934 0.929 . S
H1931 C1940 0.929 . S
C1932 H1926 0.930 . S
C1932 C1933 1.367 . S
C1932 C1940 1.378 . S
C1933 C1932 1.367 . S
C1933 C1941 1.433 . S
C1934 H1930 0.929 . S
C1934 C1936 1.378 . S
C1934 C1938 1.350 . S
C1935 C1938 1.463 . S
C1935 C1940 1.350 . S
C1935 N1943 1.427 . S
C1936 H1927 0.930 . S
C1936 C1934 1.378 . S
C1936 C1937 1.367 . S
C1937 C1936 1.367 . S
C1937 C1939 1.433 . S
C1938 C1934 1.350 . S
C1938 C1935 1.463 . S
C1938 N1942 1.427 . S
C1939 H1929 0.929 . S
C1939 C1937 1.433 . S
C1939 N1942 1.384 . S
C1940 H1931 0.929 . S
C1940 C1932 1.378 . S
C1940 C1935 1.350 . S
C1941 H1928 0.929 . S
C1941 C1933 1.433 . S
C1941 N1943 1.384 . S
N1942 C1938 1.427 . S
N1942 C1939 1.384 . S
N1943 C1935 1.427 . S
N1943 C1941 1.384 . S
H1944 C1950 0.930 . S
H1945 C1954 0.930 . S
H1946 C1959 0.929 . S
H1947 C1957 0.929 . S
H1948 C1952 0.929 . S
H1949 C1958 0.929 . S
C1950 H1944 0.930 . S
C1950 C1951 1.367 . S
C1950 C1958 1.378 . S
C1951 C1950 1.367 . S
C1951 C1959 1.433 . S
C1952 H1948 0.929 . S
C1952 C1954 1.378 . S
C1952 C1956 1.350 . S
C1953 C1956 1.463 1_565 S
C1953 C1958 1.350 . S
C1953 N1961 1.427 . S
C1954 H1945 0.930 . S
C1954 C1952 1.378 . S
C1954 C1955 1.367 . S
C1955 C1954 1.367 . S
C1955 C1957 1.433 . S
C1956 C1952 1.350 . S
C1956 C1953 1.463 1_545 S
C1956 N1960 1.427 . S
C1957 H1947 0.929 . S
C1957 C1955 1.433 . S
C1957 N1960 1.384 . S
C1958 H1949 0.929 . S
C1958 C1950 1.378 . S
C1958 C1953 1.350 . S
C1959 H1946 0.929 . S
C1959 C1951 1.433 . S
C1959 N1961 1.384 . S
N1960 C1956 1.427 . S
N1960 C1957 1.384 . S
N1961 C1953 1.427 . S
N1961 C1959 1.384 . S
H1962 C1968 0.930 . S
H1963 C1972 0.930 . S
H1964 C1977 0.929 . S
H1965 C1975 0.929 . S
H1966 C1970 0.929 . S
H1967 C1976 0.929 . S
C1968 H1962 0.930 . S
C1968 C1969 1.367 . S
C1968 C1976 1.378 . S
C1969 C1968 1.367 . S
C1969 C1977 1.433 . S
C1970 H1966 0.929 . S
C1970 C1972 1.378 . S
C1970 C1974 1.350 . S
C1971 C1974 1.463 . S
C1971 C1976 1.350 . S
C1971 N1979 1.427 . S
C1972 H1963 0.930 . S
C1972 C1970 1.378 . S
C1972 C1973 1.367 . S
C1973 C1972 1.367 . S
C1973 C1975 1.433 . S
C1974 C1970 1.350 . S
C1974 C1971 1.463 . S
C1974 N1978 1.427 . S
C1975 H1965 0.929 . S
C1975 C1973 1.433 . S
C1975 N1978 1.384 . S
C1976 H1967 0.929 . S
C1976 C1968 1.378 . S
C1976 C1971 1.350 . S
C1977 H1964 0.929 . S
C1977 C1969 1.433 . S
C1977 N1979 1.384 . S
N1978 C1974 1.427 . S
N1978 C1975 1.384 . S
N1979 C1971 1.427 . S
N1979 C1977 1.384 . S
H1980 C1986 0.930 . S
H1981 C1990 0.930 . S
H1982 C1995 0.929 . S
H1983 C1993 0.929 . S
H1984 C1988 0.929 . S
H1985 C1994 0.929 . S
C1986 H1980 0.930 . S
C1986 C1987 1.367 . S
C1986 C1994 1.378 . S
C1987 C1986 1.367 . S
C1987 C1995 1.433 . S
C1988 H1984 0.929 . S
C1988 C1990 1.378 . S
C1988 C1992 1.350 . S
C1989 C1992 1.463 . S
C1989 C1994 1.350 . S
C1989 N1997 1.427 . S
C1990 H1981 0.930 . S
C1990 C1988 1.378 . S
C1990 C1991 1.367 . S
C1991 C1990 1.367 . S
C1991 C1993 1.433 . S
C1992 C1988 1.350 . S
C1992 C1989 1.463 . S
C1992 N1996 1.427 . S
C1993 H1983 0.929 . S
C1993 C1991 1.433 . S
C1993 N1996 1.384 . S
C1994 H1985 0.929 . S
C1994 C1986 1.378 . S
C1994 C1989 1.350 . S
C1995 H1982 0.929 . S
C1995 C1987 1.433 . S
C1995 N1997 1.384 . S
N1996 C1992 1.427 . S
N1996 C1993 1.384 . S
N1997 C1989 1.427 . S
N1997 C1995 1.384 . S
H1998 C2004 0.930 . S
H1999 C2008 0.930 1_565 S
H2000 C2013 0.929 . S
H2001 C2011 0.929 . S
H2002 C2006 0.929 . S
H2003 C2012 0.929 . S
C2004 H1998 0.930 . S
C2004 C2005 1.367 . S
C2004 C2012 1.378 . S
C2005 C2004 1.367 . S
C2005 C2013 1.433 . S
C2006 H2002 0.929 . S
C2006 C2008 1.378 . S
C2006 C2010 1.350 . S
C2007 C2010 1.463 . S
C2007 C2012 1.350 . S
C2007 N2015 1.427 . S
C2008 H1999 0.930 1_545 S
C2008 C2006 1.378 . S
C2008 C2009 1.367 . S
C2009 C2008 1.367 . S
C2009 C2011 1.433 . S
C2010 C2006 1.350 . S
C2010 C2007 1.463 . S
C2010 N2014 1.427 . S
C2011 H2001 0.929 . S
C2011 C2009 1.433 . S
C2011 N2014 1.384 . S
C2012 H2003 0.929 . S
C2012 C2004 1.378 . S
C2012 C2007 1.350 . S
C2013 H2000 0.929 . S
C2013 C2005 1.433 . S
C2013 N2015 1.384 . S
N2014 C2010 1.427 . S
N2014 C2011 1.384 . S
N2015 C2007 1.427 . S
N2015 C2013 1.384 . S
H2016 C2022 0.930 . S
H2017 C2026 0.930 . S
H2018 C2031 0.929 . S
H2019 C2029 0.929 . S
H2020 C2024 0.929 . S
H2021 C2030 0.929 . S
C2022 H2016 0.930 . S
C2022 C2023 1.367 . S
C2022 C2030 1.378 . S
C2023 C2022 1.367 . S
C2023 C2031 1.433 . S
C2024 H2020 0.929 . S
C2024 C2026 1.378 . S
C2024 C2028 1.350 . S
C2025 C2028 1.463 . S
C2025 C2030 1.350 . S
C2025 N2033 1.427 . S
C2026 H2017 0.930 . S
C2026 C2024 1.378 . S
C2026 C2027 1.367 . S
C2027 C2026 1.367 . S
C2027 C2029 1.433 . S
C2028 C2024 1.350 . S
C2028 C2025 1.463 . S
C2028 N2032 1.427 . S
C2029 H2019 0.929 . S
C2029 C2027 1.433 . S
C2029 N2032 1.384 . S
C2030 H2021 0.929 . S
C2030 C2022 1.378 . S
C2030 C2025 1.350 . S
C2031 H2018 0.929 . S
C2031 C2023 1.433 . S
C2031 N2033 1.384 . S
N2032 C2028 1.427 . S
N2032 C2029 1.384 . S
N2033 C2025 1.427 . S
N2033 C2031 1.384 . S
H2034 C2040 0.930 . S
H2035 C2044 0.930 . S
H2036 C2049 0.929 . S
H2037 C2047 0.929 . S
H2038 C2042 0.929 . S
H2039 C2048 0.929 . S
C2040 H2034 0.930 . S
C2040 C2041 1.367 . S
C2040 C2048 1.378 . S
C2041 C2040 1.367 . S
C2041 C2049 1.433 . S
C2042 H2038 0.929 . S
C2042 C2044 1.378 . S
C2042 C2046 1.350 . S
C2043 C2046 1.463 . S
C2043 C2048 1.350 . S
C2043 N2051 1.427 . S
C2044 H2035 0.930 . S
C2044 C2042 1.378 . S
C2044 C2045 1.367 . S
C2045 C2044 1.367 . S
C2045 C2047 1.433 . S
C2046 C2042 1.350 . S
C2046 C2043 1.463 . S
C2046 N2050 1.427 . S
C2047 H2037 0.929 . S
C2047 C2045 1.433 . S
C2047 N2050 1.384 . S
C2048 H2039 0.929 . S
C2048 C2040 1.378 . S
C2048 C2043 1.350 . S
C2049 H2036 0.929 . S
C2049 C2041 1.433 . S
C2049 N2051 1.384 . S
N2050 C2046 1.427 . S
N2050 C2047 1.384 . S
N2051 C2043 1.427 . S
N2051 C2049 1.384 . S
H2052 C2058 0.930 . S
H2053 C2062 0.930 . S
H2054 C2067 0.929 . S
H2055 C2065 0.929 . S
H2056 C2060 0.929 . S
H2057 C2066 0.929 . S
C2058 H2052 0.930 . S
C2058 C2059 1.367 . S
C2058 C2066 1.378 . S
C2059 C2058 1.367 . S
C2059 C2067 1.433 . S
C2060 H2056 0.929 . S
C2060 C2062 1.378 . S
C2060 C2064 1.350 . S
C2061 C2064 1.463 . S
C2061 C2066 1.350 . S
C2061 N2069 1.427 . S
C2062 H2053 0.930 . S
C2062 C2060 1.378 . S
C2062 C2063 1.367 . S
C2063 C2062 1.367 . S
C2063 C2065 1.433 . S
C2064 C2060 1.350 . S
C2064 C2061 1.463 . S
C2064 N2068 1.427 . S
C2065 H2055 0.929 . S
C2065 C2063 1.433 . S
C2065 N2068 1.384 . S
C2066 H2057 0.929 . S
C2066 C2058 1.378 . S
C2066 C2061 1.350 . S
C2067 H2054 0.929 . S
C2067 C2059 1.433 . S
C2067 N2069 1.384 . S
N2068 C2064 1.427 . S
N2068 C2065 1.384 . S
N2069 C2061 1.427 . S
N2069 C2067 1.384 . S
H2070 C2076 0.930 . S
H2071 C2080 0.930 . S
H2072 C2085 0.929 . S
H2073 C2083 0.929 . S
H2074 C2078 0.929 . S
H2075 C2084 0.929 . S
C2076 H2070 0.930 . S
C2076 C2077 1.367 . S
C2076 C2084 1.378 . S
C2077 C2076 1.367 . S
C2077 C2085 1.433 . S
C2078 H2074 0.929 . S
C2078 C2080 1.378 . S
C2078 C2082 1.350 . S
C2079 C2082 1.463 . S
C2079 C2084 1.350 . S
C2079 N2087 1.427 . S
C2080 H2071 0.930 . S
C2080 C2078 1.378 . S
C2080 C2081 1.367 . S
C2081 C2080 1.367 . S
C2081 C2083 1.433 . S
C2082 C2078 1.350 . S
C2082 C2079 1.463 . S
C2082 N2086 1.427 . S
C2083 H2073 0.929 . S
C2083 C2081 1.433 . S
C2083 N2086 1.384 . S
C2084 H2075 0.929 . S
C2084 C2076 1.378 . S
C2084 C2079 1.350 . S
C2085 H2072 0.929 . S
C2085 C2077 1.433 . S
C2085 N2087 1.384 . S
N2086 C2082 1.427 . S
N2086 C2083 1.384 . S
N2087 C2079 1.427 . S
N2087 C2085 1.384 . S
H2088 C2094 0.930 . S
H2089 C2098 0.930 . S
H2090 C2103 0.929 . S
H2091 C2101 0.929 . S
H2092 C2096 0.929 . S
H2093 C2102 0.929 . S
C2094 H2088 0.930 . S
C2094 C2095 1.367 . S
C2094 C2102 1.378 . S
C2095 C2094 1.367 . S
C2095 C2103 1.433 . S
C2096 H2092 0.929 . S
C2096 C2098 1.378 . S
C2096 C2100 1.350 . S
C2097 C2100 1.463 . S
C2097 C2102 1.350 . S
C2097 N2105 1.427 . S
C2098 H2089 0.930 . S
C2098 C2096 1.378 . S
C2098 C2099 1.367 . S
C2099 C2098 1.367 . S
C2099 C2101 1.433 . S
C2100 C2096 1.350 . S
C2100 C2097 1.463 . S
C2100 N2104 1.427 . S
C2101 H2091 0.929 . S
C2101 C2099 1.433 . S
C2101 N2104 1.384 . S
C2102 H2093 0.929 . S
C2102 C2094 1.378 . S
C2102 C2097 1.350 . S
C2103 H2090 0.929 . S
C2103 C2095 1.433 . S
C2103 N2105 1.384 . S
N2104 C2100 1.427 . S
N2104 C2101 1.384 . S
N2105 C2097 1.427 . S
N2105 C2103 1.384 . S
H2106 C2112 0.930 . S
H2107 C2116 0.930 . S
H2108 C2121 0.929 . S
H2109 C2119 0.929 . S
H2110 C2114 0.929 . S
H2111 C2120 0.929 . S
C2112 H2106 0.930 . S
C2112 C2113 1.367 . S
C2112 C2120 1.378 . S
C2113 C2112 1.367 . S
C2113 C2121 1.433 . S
C2114 H2110 0.929 . S
C2114 C2116 1.378 . S
C2114 C2118 1.350 . S
C2115 C2118 1.463 . S
C2115 C2120 1.350 . S
C2115 N2123 1.427 . S
C2116 H2107 0.930 . S
C2116 C2114 1.378 . S
C2116 C2117 1.367 . S
C2117 C2116 1.367 . S
C2117 C2119 1.433 . S
C2118 C2114 1.350 . S
C2118 C2115 1.463 . S
C2118 N2122 1.427 . S
C2119 H2109 0.929 . S
C2119 C2117 1.433 . S
C2119 N2122 1.384 . S
C2120 H2111 0.929 . S
C2120 C2112 1.378 . S
C2120 C2115 1.350 . S
C2121 H2108 0.929 . S
C2121 C2113 1.433 . S
C2121 N2123 1.384 . S
N2122 C2118 1.427 . S
N2122 C2119 1.384 . S
N2123 C2115 1.427 . S
N2123 C2121 1.384 . S
H2124 C2130 0.930 . S
H2125 C2134 0.930 . S
H2126 C2139 0.929 . S
H2127 C2137 0.929 . S
H2128 C2132 0.929 . S
H2129 C2138 0.929 . S
C2130 H2124 0.930 . S
C2130 C2131 1.367 . S
C2130 C2138 1.378 . S
C2131 C2130 1.367 . S
C2131 C2139 1.433 . S
C2132 H2128 0.929 . S
C2132 C2134 1.378 . S
C2132 C2136 1.350 . S
C2133 C2136 1.463 . S
C2133 C2138 1.350 . S
C2133 N2141 1.427 . S
C2134 H2125 0.930 . S
C2134 C2132 1.378 . S
C2134 C2135 1.367 . S
C2135 C2134 1.367 . S
C2135 C2137 1.433 . S
C2136 C2132 1.350 . S
C2136 C2133 1.463 . S
C2136 N2140 1.427 . S
C2137 H2127 0.929 . S
C2137 C2135 1.433 . S
C2137 N2140 1.384 . S
C2138 H2129 0.929 . S
C2138 C2130 1.378 . S
C2138 C2133 1.350 . S
C2139 H2126 0.929 . S
C2139 C2131 1.433 . S
C2139 N2141 1.384 . S
N2140 C2136 1.427 . S
N2140 C2137 1.384 . S
N2141 C2133 1.427 . S
N2141 C2139 1.384 . S
H2142 C2148 0.930 . S
H2143 C2152 0.930 . S
H2144 C2157 0.929 . S
H2145 C2155 0.929 . S
H2146 C2150 0.929 . S
H2147 C2156 0.929 . S
C2148 H2142 0.930 . S
C2148 C2149 1.367 . S
C2148 C2156 1.378 . S
C2149 C2148 1.367 . S
C2149 C2157 1.433 . S
C2150 H2146 0.929 . S
C2150 C2152 1.378 . S
C2150 C2154 1.350 . S
C2151 C2154 1.463 . S
C2151 C2156 1.350 . S
C2151 N2159 1.427 . S
C2152 H2143 0.930 . S
C2152 C2150 1.378 . S
C2152 C2153 1.367 . S
C2153 C2152 1.367 . S
C2153 C2155 1.433 . S
C2154 C2150 1.350 . S
C2154 C2151 1.463 . S
C2154 N2158 1.427 . S
C2155 H2145 0.929 . S
C2155 C2153 1.433 . S
C2155 N2158 1.384 . S
C2156 H2147 0.929 . S
C2156 C2148 1.378 . S
C2156 C2151 1.350 . S
C2157 H2144 0.929 . S
C2157 C2149 1.433 . S
C2157 N2159 1.384 . S
N2158 C2154 1.427 . S
N2158 C2155 1.384 . S
N2159 C2151 1.427 . S
N2159 C2157 1.384 . S
H2160 C2166 0.930 . S
H2161 C2170 0.930 . S
H2162 C2175 0.929 . S
H2163 C2173 0.929 . S
H2164 C2168 0.929 . S
H2165 C2174 0.929 . S
C2166 H2160 0.930 . S
C2166 C2167 1.367 . S
C2166 C2174 1.378 . S
C2167 C2166 1.367 . S
C2167 C2175 1.433 . S
C2168 H2164 0.929 . S
C2168 C2170 1.378 . S
C2168 C2172 1.350 . S
C2169 C2172 1.463 . S
C2169 C2174 1.350 . S
C2169 N2177 1.427 . S
C2170 H2161 0.930 . S
C2170 C2168 1.378 . S
C2170 C2171 1.367 . S
C2171 C2170 1.367 . S
C2171 C2173 1.433 . S
C2172 C2168 1.350 . S
C2172 C2169 1.463 . S
C2172 N2176 1.427 . S
C2173 H2163 0.929 . S
C2173 C2171 1.433 . S
C2173 N2176 1.384 . S
C2174 H2165 0.929 . S
C2174 C2166 1.378 . S
C2174 C2169 1.350 . S
C2175 H2162 0.929 . S
C2175 C2167 1.433 . S
C2175 N2177 1.384 . S
N2176 C2172 1.427 . S
N2176 C2173 1.384 . S
N2177 C2169 1.427 . S
N2177 C2175 1.384 . S
H2178 C2184 0.930 . S
H2179 C2188 0.930 . S
H2180 C2193 0.929 . S
H2181 C2191 0.929 . S
H2182 C2186 0.929 . S
H2183 C2192 0.929 . S
C2184 H2178 0.930 . S
C2184 C2185 1.367 . S
C2184 C2192 1.378 . S
C2185 C2184 1.367 . S
C2185 C2193 1.433 . S
C2186 H2182 0.929 . S
C2186 C2188 1.378 . S
C2186 C2190 1.350 . S
C2187 C2190 1.463 . S
C2187 C2192 1.350 . S
C2187 N2195 1.427 . S
C2188 H2179 0.930 . S
C2188 C2186 1.378 . S
C2188 C2189 1.367 . S
C2189 C2188 1.367 . S
C2189 C2191 1.433 . S
C2190 C2186 1.350 . S
C2190 C2187 1.463 . S
C2190 N2194 1.427 . S
C2191 H2181 0.929 . S
C2191 C2189 1.433 . S
C2191 N2194 1.384 . S
C2192 H2183 0.929 . S
C2192 C2184 1.378 . S
C2192 C2187 1.350 . S
C2193 H2180 0.929 . S
C2193 C2185 1.433 . S
C2193 N2195 1.384 . S
N2194 C2190 1.427 . S
N2194 C2191 1.384 . S
N2195 C2187 1.427 . S
N2195 C2193 1.384 . S
H2196 C2202 0.930 . S
H2197 C2206 0.930 . S
H2198 C2211 0.929 . S
H2199 C2209 0.929 . S
H2200 C2204 0.929 . S
H2201 C2210 0.929 . S
C2202 H2196 0.930 . S
C2202 C2203 1.367 . S
C2202 C2210 1.378 . S
C2203 C2202 1.367 . S
C2203 C2211 1.433 . S
C2204 H2200 0.929 . S
C2204 C2206 1.378 . S
C2204 C2208 1.350 . S
C2205 C2208 1.463 . S
C2205 C2210 1.350 . S
C2205 N2213 1.427 . S
C2206 H2197 0.930 . S
C2206 C2204 1.378 . S
C2206 C2207 1.367 . S
C2207 C2206 1.367 . S
C2207 C2209 1.433 . S
C2208 C2204 1.350 . S
C2208 C2205 1.463 . S
C2208 N2212 1.427 . S
C2209 H2199 0.929 . S
C2209 C2207 1.433 . S
C2209 N2212 1.384 . S
C2210 H2201 0.929 . S
C2210 C2202 1.378 . S
C2210 C2205 1.350 . S
C2211 H2198 0.929 . S
C2211 C2203 1.433 . S
C2211 N2213 1.384 . S
N2212 C2208 1.427 . S
N2212 C2209 1.384 . S
N2213 C2205 1.427 . S
N2213 C2211 1.384 . S
H2214 C2220 0.930 . S
H2215 C2224 0.930 . S
H2216 C2229 0.929 . S
H2217 C2227 0.929 . S
H2218 C2222 0.929 . S
H2219 C2228 0.929 . S
C2220 H2214 0.930 . S
C2220 C2221 1.367 . S
C2220 C2228 1.378 . S
C2221 C2220 1.367 . S
C2221 C2229 1.433 . S
C2222 H2218 0.929 . S
C2222 C2224 1.378 . S
C2222 C2226 1.350 . S
C2223 C2226 1.463 . S
C2223 C2228 1.350 . S
C2223 N2231 1.427 . S
C2224 H2215 0.930 . S
C2224 C2222 1.378 . S
C2224 C2225 1.367 . S
C2225 C2224 1.367 . S
C2225 C2227 1.433 . S
C2226 C2222 1.350 . S
C2226 C2223 1.463 . S
C2226 N2230 1.427 . S
C2227 H2217 0.929 . S
C2227 C2225 1.433 . S
C2227 N2230 1.384 . S
C2228 H2219 0.929 . S
C2228 C2220 1.378 . S
C2228 C2223 1.350 . S
C2229 H2216 0.929 . S
C2229 C2221 1.433 . S
C2229 N2231 1.384 . S
N2230 C2226 1.427 . S
N2230 C2227 1.384 . S
N2231 C2223 1.427 . S
N2231 C2229 1.384 . S
H2232 C2238 0.930 1_455 S
H2233 C2242 0.930 1_655 S
H2234 C2247 0.929 . S
H2235 C2245 0.929 . S
H2236 C2240 0.929 . S
H2237 C2246 0.929 . S
C2238 H2232 0.930 1_655 S
C2238 C2239 1.367 . S
C2238 C2246 1.378 1_655 S
C2239 C2238 1.367 . S
C2239 C2247 1.433 . S
C2240 H2236 0.929 . S
C2240 C2242 1.378 1_655 S
C2240 C2244 1.350 1_655 S
C2241 C2244 1.463 1_655 S
C2241 C2246 1.350 1_655 S
C2241 N2249 1.427 . S
C2242 H2233 0.930 1_455 S
C2242 C2240 1.378 1_455 S
C2242 C2243 1.367 . S
C2243 C2242 1.367 . S
C2243 C2245 1.433 . S
C2244 C2240 1.350 1_455 S
C2244 C2241 1.463 1_455 S
C2244 N2248 1.427 . S
C2245 H2235 0.929 . S
C2245 C2243 1.433 . S
C2245 N2248 1.384 . S
C2246 H2237 0.929 . S
C2246 C2238 1.378 1_455 S
C2246 C2241 1.350 1_455 S
C2247 H2234 0.929 . S
C2247 C2239 1.433 . S
C2247 N2249 1.384 . S
N2248 C2244 1.427 . S
N2248 C2245 1.384 . S
N2249 C2241 1.427 . S
N2249 C2247 1.384 . S
H2250 C2256 0.930 . S
H2251 C2260 0.930 . S
H2252 C2265 0.929 . S
H2253 C2263 0.929 . S
H2254 C2258 0.929 . S
H2255 C2264 0.929 . S
C2256 H2250 0.930 . S
C2256 C2257 1.367 . S
C2256 C2264 1.378 . S
C2257 C2256 1.367 . S
C2257 C2265 1.433 . S
C2258 H2254 0.929 . S
C2258 C2260 1.378 . S
C2258 C2262 1.350 . S
C2259 C2262 1.463 . S
C2259 C2264 1.350 . S
C2259 N2267 1.427 . S
C2260 H2251 0.930 . S
C2260 C2258 1.378 . S
C2260 C2261 1.367 . S
C2261 C2260 1.367 . S
C2261 C2263 1.433 . S
C2262 C2258 1.350 . S
C2262 C2259 1.463 . S
C2262 N2266 1.427 . S
C2263 H2253 0.929 . S
C2263 C2261 1.433 . S
C2263 N2266 1.384 . S
C2264 H2255 0.929 . S
C2264 C2256 1.378 . S
C2264 C2259 1.350 . S
C2265 H2252 0.929 . S
C2265 C2257 1.433 . S
C2265 N2267 1.384 . S
N2266 C2262 1.427 . S
N2266 C2263 1.384 . S
N2267 C2259 1.427 . S
N2267 C2265 1.384 . S
H2268 C2274 0.930 . S
H2269 C2278 0.908 1_545 S
H2270 C2283 0.929 . S
H2271 C2281 0.929 . S
H2272 C2276 0.929 . S
H2273 C2282 0.929 . S
C2274 H2268 0.930 . S
C2274 C2275 1.367 1_565 S
C2274 C2282 1.378 . S
C2275 C2274 1.367 1_545 S
C2275 C2283 1.433 . S
C2276 H2272 0.929 . S
C2276 C2278 1.368 1_545 S
C2276 C2280 1.350 1_545 S
C2277 C2280 1.463 1_545 S
C2277 C2282 1.350 1_545 S
C2277 N2285 1.427 . S
C2278 H2269 0.908 1_565 S
C2278 C2276 1.368 1_565 S
C2278 C2279 1.400 . S
C2279 C2278 1.400 . S
C2279 C2281 1.433 . S
C2280 C2276 1.350 1_565 S
C2280 C2277 1.463 1_565 S
C2280 N2284 1.427 . S
C2281 H2271 0.929 . S
C2281 C2279 1.433 . S
C2281 N2284 1.384 . S
C2282 H2273 0.929 . S
C2282 C2274 1.378 . S
C2282 C2277 1.350 1_565 S
C2283 H2270 0.929 . S
C2283 C2275 1.433 . S
C2283 N2285 1.384 . S
N2284 C2280 1.427 . S
N2284 C2281 1.384 . S
N2285 C2277 1.427 . S
N2285 C2283 1.384 . S
H2286 C2292 0.930 . S
H2287 C2296 0.930 . S
H2288 C2301 0.929 . S
H2289 C2299 0.929 . S
H2290 C2294 0.929 . S
H2291 C2300 0.936 . S
C2292 H2286 0.930 . S
C2292 C2293 1.367 . S
C2292 C2300 1.375 1_545 S
C2293 C2292 1.367 . S
C2293 C2301 1.433 . S
C2294 H2290 0.929 . S
C2294 C2296 1.378 1_545 S
C2294 C2298 1.350 1_545 S
C2295 C2298 1.463 1_545 S
C2295 C2300 1.345 1_545 S
C2295 N2303 1.427 . S
C2296 H2287 0.930 . S
C2296 C2294 1.378 1_565 S
C2296 C2297 1.367 . S
C2297 C2296 1.367 . S
C2297 C2299 1.433 . S
C2298 C2294 1.350 1_565 S
C2298 C2295 1.463 1_565 S
C2298 N2302 1.427 . S
C2299 H2289 0.929 . S
C2299 C2297 1.433 . S
C2299 N2302 1.384 . S
C2300 H2291 0.936 . S
C2300 C2292 1.375 1_565 S
C2300 C2295 1.345 1_565 S
C2301 H2288 0.929 . S
C2301 C2293 1.433 . S
C2301 N2303 1.384 . S
N2302 C2298 1.427 . S
N2302 C2299 1.384 . S
N2303 C2295 1.427 . S
N2303 C2301 1.384 . S
H2304 C2310 0.930 . S
H2305 C2314 0.930 . S
H2306 C2319 0.929 1_655 S
H2307 C2317 0.929 1_455 S
H2308 C2312 0.929 . S
H2309 C2318 0.929 . S
C2310 H2304 0.930 . S
C2310 C2311 1.367 . S
C2310 C2318 1.378 . S
C2311 C2310 1.367 . S
C2311 C2319 1.433 . S
C2312 H2308 0.929 . S
C2312 C2314 1.378 . S
C2312 C2316 1.350 . S
C2313 C2316 1.463 1_455 S
C2313 C2318 1.350 . S
C2313 N2321 1.427 1_455 S
C2314 H2305 0.930 . S
C2314 C2312 1.378 . S
C2314 C2315 1.367 . S
C2315 C2314 1.367 . S
C2315 C2317 1.433 . S
C2316 C2312 1.350 . S
C2316 C2313 1.463 1_655 S
C2316 N2320 1.427 1_655 S
C2317 H2307 0.929 1_655 S
C2317 C2315 1.433 . S
C2317 N2320 1.384 1_655 S
C2318 H2309 0.929 . S
C2318 C2310 1.378 . S
C2318 C2313 1.350 . S
C2319 H2306 0.929 1_455 S
C2319 C2311 1.433 . S
C2319 N2321 1.384 1_455 S
N2320 C2316 1.427 1_455 S
N2320 C2317 1.384 1_455 S
N2321 C2313 1.427 1_655 S
N2321 C2319 1.384 1_655 S
H2322 C2328 0.930 . S
H2323 C2332 0.930 . S
H2324 C2337 0.929 . S
H2325 C2335 0.929 . S
H2326 C2330 0.929 . S
H2327 C2336 0.929 . S
C2328 H2322 0.930 . S
C2328 C2329 1.367 . S
C2328 C2336 1.378 . S
C2329 C2328 1.367 . S
C2329 C2337 1.433 . S
C2330 H2326 0.929 . S
C2330 C2332 1.378 . S
C2330 C2334 1.350 . S
C2331 C2334 1.463 . S
C2331 C2336 1.350 . S
C2331 N2339 1.427 . S
C2332 H2323 0.930 . S
C2332 C2330 1.378 . S
C2332 C2333 1.367 . S
C2333 C2332 1.367 . S
C2333 C2335 1.433 . S
C2334 C2330 1.350 . S
C2334 C2331 1.463 . S
C2334 N2338 1.427 . S
C2335 H2325 0.929 . S
C2335 C2333 1.433 . S
C2335 N2338 1.384 . S
C2336 H2327 0.929 . S
C2336 C2328 1.378 . S
C2336 C2331 1.350 . S
C2337 H2324 0.929 . S
C2337 C2329 1.433 . S
C2337 N2339 1.384 . S
N2338 C2334 1.427 . S
N2338 C2335 1.384 . S
N2339 C2331 1.427 . S
N2339 C2337 1.384 . S
H2340 C2346 0.930 . S
H2341 C2350 0.930 . S
H2342 C2355 0.929 . S
H2343 C2353 0.929 . S
H2344 C2348 0.929 . S
H2345 C2354 0.929 . S
C2346 H2340 0.930 . S
C2346 C2347 1.367 . S
C2346 C2354 1.378 . S
C2347 C2346 1.367 . S
C2347 C2355 1.433 . S
C2348 H2344 0.929 . S
C2348 C2350 1.378 . S
C2348 C2352 1.350 . S
C2349 C2352 1.463 1_655 S
C2349 C2354 1.350 . S
C2349 N2357 1.427 . S
C2350 H2341 0.930 . S
C2350 C2348 1.378 . S
C2350 C2351 1.367 . S
C2351 C2350 1.367 . S
C2351 C2353 1.433 . S
C2352 C2348 1.350 . S
C2352 C2349 1.463 1_455 S
C2352 N2356 1.427 . S
C2353 H2343 0.929 . S
C2353 C2351 1.433 . S
C2353 N2356 1.384 . S
C2354 H2345 0.929 . S
C2354 C2346 1.378 . S
C2354 C2349 1.350 . S
C2355 H2342 0.929 . S
C2355 C2347 1.433 . S
C2355 N2357 1.384 . S
N2356 C2352 1.427 . S
N2356 C2353 1.384 . S
N2357 C2349 1.427 . S
N2357 C2355 1.384 . S
H2358 C2364 0.930 . S
H2359 C2368 0.930 . S
H2360 C2373 0.929 . S
H2361 C2371 0.929 . S
H2362 C2366 0.929 . S
H2363 C2372 0.929 . S
C2364 H2358 0.930 . S
C2364 C2365 1.367 . S
C2364 C2372 1.378 . S
C2365 C2364 1.367 . S
C2365 C2373 1.433 . S
C2366 H2362 0.929 . S
C2366 C2368 1.378 . S
C2366 C2370 1.350 . S
C2367 C2370 1.463 . S
C2367 C2372 1.350 . S
C2367 N2375 1.427 . S
C2368 H2359 0.930 . S
C2368 C2366 1.378 . S
C2368 C2369 1.367 . S
C2369 C2368 1.367 . S
C2369 C2371 1.433 . S
C2370 C2366 1.350 . S
C2370 C2367 1.463 . S
C2370 N2374 1.427 . S
C2371 H2361 0.929 . S
C2371 C2369 1.433 . S
C2371 N2374 1.384 . S
C2372 H2363 0.929 . S
C2372 C2364 1.378 . S
C2372 C2367 1.350 . S
C2373 H2360 0.929 . S
C2373 C2365 1.433 . S
C2373 N2375 1.384 . S
N2374 C2370 1.427 . S
N2374 C2371 1.384 . S
N2375 C2367 1.427 . S
N2375 C2373 1.384 . S
H2376 C2382 0.930 . S
H2377 C2386 0.930 . S
H2378 C2391 0.929 . S
H2379 C2389 0.929 . S
H2380 C2384 0.929 . S
H2381 C2390 0.929 . S
C2382 H2376 0.930 . S
C2382 C2383 1.367 . S
C2382 C2390 1.378 . S
C2383 C2382 1.367 . S
C2383 C2391 1.433 . S
C2384 H2380 0.929 . S
C2384 C2386 1.378 . S
C2384 C2388 1.350 . S
C2385 C2388 1.463 1_545 S
C2385 C2390 1.350 . S
C2385 N2393 1.427 . S
C2386 H2377 0.930 . S
C2386 C2384 1.378 . S
C2386 C2387 1.367 . S
C2387 C2386 1.367 . S
C2387 C2389 1.433 . S
C2388 C2384 1.350 . S
C2388 C2385 1.463 1_565 S
C2388 N2392 1.427 . S
C2389 H2379 0.929 . S
C2389 C2387 1.433 . S
C2389 N2392 1.384 . S
C2390 H2381 0.929 . S
C2390 C2382 1.378 . S
C2390 C2385 1.350 . S
C2391 H2378 0.929 . S
C2391 C2383 1.433 . S
C2391 N2393 1.384 . S
N2392 C2388 1.427 . S
N2392 C2389 1.384 . S
N2393 C2385 1.427 . S
N2393 C2391 1.384 . S
H2394 C2400 0.930 . S
H2395 C2404 0.930 . S
H2396 C2409 0.929 . S
H2397 C2407 0.929 . S
H2398 C2402 0.929 1_655 S
H2399 C2408 0.929 1_455 S
C2400 H2394 0.930 . S
C2400 C2401 1.367 . S
C2400 C2408 1.378 . S
C2401 C2400 1.367 . S
C2401 C2409 1.433 . S
C2402 H2398 0.929 1_455 S
C2402 C2404 1.378 . S
C2402 C2406 1.350 . S
C2403 C2406 1.463 1_655 S
C2403 C2408 1.350 . S
C2403 N2411 1.427 . S
C2404 H2395 0.930 . S
C2404 C2402 1.378 . S
C2404 C2405 1.367 . S
C2405 C2404 1.367 . S
C2405 C2407 1.433 . S
C2406 C2402 1.350 . S
C2406 C2403 1.463 1_455 S
C2406 N2410 1.427 . S
C2407 H2397 0.929 . S
C2407 C2405 1.433 . S
C2407 N2410 1.384 . S
C2408 H2399 0.929 1_655 S
C2408 C2400 1.378 . S
C2408 C2403 1.350 . S
C2409 H2396 0.929 . S
C2409 C2401 1.433 . S
C2409 N2411 1.384 . S
N2410 C2406 1.427 . S
N2410 C2407 1.384 . S
N2411 C2403 1.427 . S
N2411 C2409 1.384 . S
H2412 C2418 0.930 . S
H2413 C2422 0.930 . S
H2414 C2427 0.929 . S
H2415 C2425 0.929 . S
H2416 C2420 0.929 . S
H2417 C2426 0.929 . S
C2418 H2412 0.930 . S
C2418 C2419 1.367 . S
C2418 C2426 1.378 . S
C2419 C2418 1.367 . S
C2419 C2427 1.433 . S
C2420 H2416 0.929 . S
C2420 C2422 1.378 . S
C2420 C2424 1.350 . S
C2421 C2424 1.463 . S
C2421 C2426 1.350 . S
C2421 N2429 1.427 . S
C2422 H2413 0.930 . S
C2422 C2420 1.378 . S
C2422 C2423 1.367 . S
C2423 C2422 1.367 . S
C2423 C2425 1.433 . S
C2424 C2420 1.350 . S
C2424 C2421 1.463 . S
C2424 N2428 1.427 . S
C2425 H2415 0.929 . S
C2425 C2423 1.433 . S
C2425 N2428 1.384 . S
C2426 H2417 0.929 . S
C2426 C2418 1.378 . S
C2426 C2421 1.350 . S
C2427 H2414 0.929 . S
C2427 C2419 1.433 . S
C2427 N2429 1.384 . S
N2428 C2424 1.427 . S
N2428 C2425 1.384 . S
N2429 C2421 1.427 . S
N2429 C2427 1.384 . S
H2430 C2436 0.930 . S
H2431 C2440 0.930 . S
H2432 C2445 0.929 . S
H2433 C2443 0.929 . S
H2434 C2438 0.929 . S
H2435 C2444 0.929 . S
C2436 H2430 0.930 . S
C2436 C2437 1.367 . S
C2436 C2444 1.378 . S
C2437 C2436 1.367 . S
C2437 C2445 1.433 . S
C2438 H2434 0.929 . S
C2438 C2440 1.378 . S
C2438 C2442 1.350 . S
C2439 C2442 1.463 1_545 S
C2439 C2444 1.350 . S
C2439 N2447 1.427 . S
C2440 H2431 0.930 . S
C2440 C2438 1.378 . S
C2440 C2441 1.367 . S
C2441 C2440 1.367 . S
C2441 C2443 1.433 . S
C2442 C2438 1.350 . S
C2442 C2439 1.463 1_565 S
C2442 N2446 1.427 . S
C2443 H2433 0.929 . S
C2443 C2441 1.433 . S
C2443 N2446 1.384 . S
C2444 H2435 0.929 . S
C2444 C2436 1.378 . S
C2444 C2439 1.350 . S
C2445 H2432 0.929 . S
C2445 C2437 1.433 . S
C2445 N2447 1.384 . S
N2446 C2442 1.427 . S
N2446 C2443 1.384 . S
N2447 C2439 1.427 . S
N2447 C2445 1.384 . S
H2448 C2454 0.930 . S
H2449 C2458 0.930 . S
H2450 C2463 0.929 . S
H2451 C2461 0.929 . S
H2452 C2456 0.929 . S
H2453 C2462 0.929 . S
C2454 H2448 0.930 . S
C2454 C2455 1.367 . S
C2454 C2462 1.378 . S
C2455 C2454 1.367 . S
C2455 C2463 1.433 . S
C2456 H2452 0.929 . S
C2456 C2458 1.378 . S
C2456 C2460 1.350 . S
C2457 C2460 1.463 . S
C2457 C2462 1.350 . S
C2457 N2465 1.427 . S
C2458 H2449 0.930 . S
C2458 C2456 1.378 . S
C2458 C2459 1.367 . S
C2459 C2458 1.367 . S
C2459 C2461 1.433 . S
C2460 C2456 1.350 . S
C2460 C2457 1.463 . S
C2460 N2464 1.427 . S
C2461 H2451 0.929 . S
C2461 C2459 1.433 . S
C2461 N2464 1.384 . S
C2462 H2453 0.929 . S
C2462 C2454 1.378 . S
C2462 C2457 1.350 . S
C2463 H2450 0.929 . S
C2463 C2455 1.433 . S
C2463 N2465 1.384 . S
N2464 C2460 1.427 . S
N2464 C2461 1.384 . S
N2465 C2457 1.427 . S
N2465 C2463 1.384 . S
H2466 C2472 0.930 . S
H2467 C2476 0.930 . S
H2468 C2481 0.929 . S
H2469 C2479 0.929 . S
H2470 C2474 0.929 . S
H2471 C2480 0.929 . S
C2472 H2466 0.930 . S
C2472 C2473 1.367 . S
C2472 C2480 1.378 . S
C2473 C2472 1.367 . S
C2473 C2481 1.433 . S
C2474 H2470 0.929 . S
C2474 C2476 1.378 . S
C2474 C2478 1.350 . S
C2475 C2478 1.463 . S
C2475 C2480 1.350 . S
C2475 N2483 1.427 . S
C2476 H2467 0.930 . S
C2476 C2474 1.378 . S
C2476 C2477 1.367 . S
C2477 C2476 1.367 . S
C2477 C2479 1.433 . S
C2478 C2474 1.350 . S
C2478 C2475 1.463 . S
C2478 N2482 1.427 . S
C2479 H2469 0.929 . S
C2479 C2477 1.433 . S
C2479 N2482 1.384 . S
C2480 H2471 0.929 . S
C2480 C2472 1.378 . S
C2480 C2475 1.350 . S
C2481 H2468 0.929 . S
C2481 C2473 1.433 . S
C2481 N2483 1.384 . S
N2482 C2478 1.427 . S
N2482 C2479 1.384 . S
N2483 C2475 1.427 . S
N2483 C2481 1.384 . S
H2484 C2490 0.930 . S
H2485 C2494 0.930 . S
H2486 C2499 0.929 . S
H2487 C2497 0.929 . S
H2488 C2492 0.929 . S
H2489 C2498 0.929 . S
C2490 H2484 0.930 . S
C2490 C2491 1.367 . S
C2490 C2498 1.378 . S
C2491 C2490 1.367 . S
C2491 C2499 1.433 . S
C2492 H2488 0.929 . S
C2492 C2494 1.378 . S
C2492 C2496 1.350 . S
C2493 C2496 1.463 . S
C2493 C2498 1.350 . S
C2493 N2501 1.427 . S
C2494 H2485 0.930 . S
C2494 C2492 1.378 . S
C2494 C2495 1.367 . S
C2495 C2494 1.367 . S
C2495 C2497 1.433 . S
C2496 C2492 1.350 . S
C2496 C2493 1.463 . S
C2496 N2500 1.427 . S
C2497 H2487 0.929 . S
C2497 C2495 1.433 . S
C2497 N2500 1.384 . S
C2498 H2489 0.929 . S
C2498 C2490 1.378 . S
C2498 C2493 1.350 . S
C2499 H2486 0.929 . S
C2499 C2491 1.433 . S
C2499 N2501 1.384 . S
N2500 C2496 1.427 . S
N2500 C2497 1.384 . S
N2501 C2493 1.427 . S
N2501 C2499 1.384 . S
H2502 C2508 0.930 . S
H2503 C2512 0.930 . S
H2504 C2517 0.929 . S
H2505 C2515 0.929 . S
H2506 C2510 0.929 . S
H2507 C2516 0.929 . S
C2508 H2502 0.930 . S
C2508 C2509 1.367 . S
C2508 C2516 1.378 . S
C2509 C2508 1.367 . S
C2509 C2517 1.433 . S
C2510 H2506 0.929 . S
C2510 C2512 1.378 . S
C2510 C2514 1.350 . S
C2511 C2514 1.463 . S
C2511 C2516 1.350 . S
C2511 N2519 1.427 . S
C2512 H2503 0.930 . S
C2512 C2510 1.378 . S
C2512 C2513 1.367 . S
C2513 C2512 1.367 . S
C2513 C2515 1.433 . S
C2514 C2510 1.350 . S
C2514 C2511 1.463 . S
C2514 N2518 1.427 . S
C2515 H2505 0.929 . S
C2515 C2513 1.433 . S
C2515 N2518 1.384 . S
C2516 H2507 0.929 . S
C2516 C2508 1.378 . S
C2516 C2511 1.350 . S
C2517 H2504 0.929 . S
C2517 C2509 1.433 . S
C2517 N2519 1.384 . S
N2518 C2514 1.427 . S
N2518 C2515 1.384 . S
N2519 C2511 1.427 . S
N2519 C2517 1.384 . S
H2520 C2526 0.930 . S
H2521 C2530 0.930 . S
H2522 C2535 0.929 . S
H2523 C2533 0.929 . S
H2524 C2528 0.929 . S
H2525 C2534 0.929 . S
C2526 H2520 0.930 . S
C2526 C2527 1.367 . S
C2526 C2534 1.378 . S
C2527 C2526 1.367 . S
C2527 C2535 1.433 . S
C2528 H2524 0.929 . S
C2528 C2530 1.378 . S
C2528 C2532 1.350 . S
C2529 C2532 1.463 . S
C2529 C2534 1.350 . S
C2529 N2537 1.427 . S
C2530 H2521 0.930 . S
C2530 C2528 1.378 . S
C2530 C2531 1.367 . S
C2531 C2530 1.367 . S
C2531 C2533 1.433 . S
C2532 C2528 1.350 . S
C2532 C2529 1.463 . S
C2532 N2536 1.427 . S
C2533 H2523 0.929 . S
C2533 C2531 1.433 . S
C2533 N2536 1.384 . S
C2534 H2525 0.929 . S
C2534 C2526 1.378 . S
C2534 C2529 1.350 . S
C2535 H2522 0.929 . S
C2535 C2527 1.433 . S
C2535 N2537 1.384 . S
N2536 C2532 1.427 . S
N2536 C2533 1.384 . S
N2537 C2529 1.427 . S
N2537 C2535 1.384 . S
H2538 C2544 0.930 . S
H2539 C2548 0.930 . S
H2540 C2553 0.929 . S
H2541 C2551 0.929 . S
H2542 C2546 0.929 . S
H2543 C2552 0.929 . S
C2544 H2538 0.930 . S
C2544 C2545 1.367 . S
C2544 C2552 1.378 . S
C2545 C2544 1.367 . S
C2545 C2553 1.433 . S
C2546 H2542 0.929 . S
C2546 C2548 1.378 . S
C2546 C2550 1.350 . S
C2547 C2550 1.463 . S
C2547 C2552 1.350 . S
C2547 N2555 1.427 . S
C2548 H2539 0.930 . S
C2548 C2546 1.378 . S
C2548 C2549 1.367 . S
C2549 C2548 1.367 . S
C2549 C2551 1.433 . S
C2550 C2546 1.350 . S
C2550 C2547 1.463 . S
C2550 N2554 1.427 . S
C2551 H2541 0.929 . S
C2551 C2549 1.433 . S
C2551 N2554 1.384 . S
C2552 H2543 0.929 . S
C2552 C2544 1.378 . S
C2552 C2547 1.350 . S
C2553 H2540 0.929 . S
C2553 C2545 1.433 . S
C2553 N2555 1.384 . S
N2554 C2550 1.427 . S
N2554 C2551 1.384 . S
N2555 C2547 1.427 . S
N2555 C2553 1.384 . S
H2556 C2562 0.930 . S
H2557 C2566 0.930 . S
H2558 C2571 0.929 . S
H2559 C2569 0.929 . S
H2560 C2564 0.929 . S
H2561 C2570 0.929 . S
C2562 H2556 0.930 . S
C2562 C2563 1.367 . S
C2562 C2570 1.378 . S
C2563 C2562 1.367 . S
C2563 C2571 1.433 . S
C2564 H2560 0.929 . S
C2564 C2566 1.378 . S
C2564 C2568 1.350 . S
C2565 C2568 1.463 . S
C2565 C2570 1.350 . S
C2565 N2573 1.427 . S
C2566 H2557 0.930 . S
C2566 C2564 1.378 . S
C2566 C2567 1.367 . S
C2567 C2566 1.367 . S
C2567 C2569 1.433 . S
C2568 C2564 1.350 . S
C2568 C2565 1.463 . S
C2568 N2572 1.427 . S
C2569 H2559 0.929 . S
C2569 C2567 1.433 . S
C2569 N2572 1.384 . S
C2570 H2561 0.929 . S
C2570 C2562 1.378 . S
C2570 C2565 1.350 . S
C2571 H2558 0.929 . S
C2571 C2563 1.433 . S
C2571 N2573 1.384 . S
N2572 C2568 1.427 . S
N2572 C2569 1.384 . S
N2573 C2565 1.427 . S
N2573 C2571 1.384 . S
H2574 C2580 0.930 . S
H2575 C2584 0.930 . S
H2576 C2589 0.929 . S
H2577 C2587 0.929 . S
H2578 C2582 0.929 . S
H2579 C2588 0.929 . S
C2580 H2574 0.930 . S
C2580 C2581 1.367 . S
C2580 C2588 1.378 . S
C2581 C2580 1.367 . S
C2581 C2589 1.433 . S
C2582 H2578 0.929 . S
C2582 C2584 1.378 . S
C2582 C2586 1.350 . S
C2583 C2586 1.463 . S
C2583 C2588 1.350 . S
C2583 N2591 1.427 . S
C2584 H2575 0.930 . S
C2584 C2582 1.378 . S
C2584 C2585 1.367 . S
C2585 C2584 1.367 . S
C2585 C2587 1.433 . S
C2586 C2582 1.350 . S
C2586 C2583 1.463 . S
C2586 N2590 1.427 . S
C2587 H2577 0.929 . S
C2587 C2585 1.433 . S
C2587 N2590 1.384 . S
C2588 H2579 0.929 . S
C2588 C2580 1.378 . S
C2588 C2583 1.350 . S
C2589 H2576 0.929 . S
C2589 C2581 1.433 . S
C2589 N2591 1.384 . S
N2590 C2586 1.427 . S
N2590 C2587 1.384 . S
N2591 C2583 1.427 . S
N2591 C2589 1.384 . S
H2592 C2598 0.930 . S
H2593 C2602 0.930 . S
H2594 C2607 0.929 . S
H2595 C2605 0.929 . S
H2596 C2600 0.929 . S
H2597 C2606 0.929 . S
C2598 H2592 0.930 . S
C2598 C2599 1.367 . S
C2598 C2606 1.378 . S
C2599 C2598 1.367 . S
C2599 C2607 1.433 . S
C2600 H2596 0.929 . S
C2600 C2602 1.378 . S
C2600 C2604 1.350 . S
C2601 C2604 1.463 . S
C2601 C2606 1.350 . S
C2601 N2609 1.427 . S
C2602 H2593 0.930 . S
C2602 C2600 1.378 . S
C2602 C2603 1.367 . S
C2603 C2602 1.367 . S
C2603 C2605 1.433 . S
C2604 C2600 1.350 . S
C2604 C2601 1.463 . S
C2604 N2608 1.427 . S
C2605 H2595 0.929 . S
C2605 C2603 1.433 . S
C2605 N2608 1.384 . S
C2606 H2597 0.929 . S
C2606 C2598 1.378 . S
C2606 C2601 1.350 . S
C2607 H2594 0.929 . S
C2607 C2599 1.433 . S
C2607 N2609 1.384 . S
N2608 C2604 1.427 . S
N2608 C2605 1.384 . S
N2609 C2601 1.427 . S
N2609 C2607 1.384 . S
H2610 C2616 0.930 . S
H2611 C2620 0.930 . S
H2612 C2625 0.929 . S
H2613 C2623 0.929 . S
H2614 C2618 0.929 . S
H2615 C2624 0.929 . S
C2616 H2610 0.930 . S
C2616 C2617 1.367 . S
C2616 C2624 1.378 . S
C2617 C2616 1.367 . S
C2617 C2625 1.433 . S
C2618 H2614 0.929 . S
C2618 C2620 1.378 . S
C2618 C2622 1.350 . S
C2619 C2622 1.463 . S
C2619 C2624 1.350 . S
C2619 N2627 1.427 . S
C2620 H2611 0.930 . S
C2620 C2618 1.378 . S
C2620 C2621 1.367 . S
C2621 C2620 1.367 . S
C2621 C2623 1.433 . S
C2622 C2618 1.350 . S
C2622 C2619 1.463 . S
C2622 N2626 1.427 . S
C2623 H2613 0.929 . S
C2623 C2621 1.433 . S
C2623 N2626 1.384 . S
C2624 H2615 0.929 . S
C2624 C2616 1.378 . S
C2624 C2619 1.350 . S
C2625 H2612 0.929 . S
C2625 C2617 1.433 . S
C2625 N2627 1.384 . S
N2626 C2622 1.427 . S
N2626 C2623 1.384 . S
N2627 C2619 1.427 . S
N2627 C2625 1.384 . S
H2628 C2634 0.930 . S
H2629 C2638 0.930 . S
H2630 C2643 0.929 . S
H2631 C2641 0.929 . S
H2632 C2636 0.929 . S
H2633 C2642 0.929 . S
C2634 H2628 0.930 . S
C2634 C2635 1.367 . S
C2634 C2642 1.378 . S
C2635 C2634 1.367 . S
C2635 C2643 1.433 . S
C2636 H2632 0.929 . S
C2636 C2638 1.378 . S
C2636 C2640 1.350 . S
C2637 C2640 1.463 . S
C2637 C2642 1.350 . S
C2637 N2645 1.427 . S
C2638 H2629 0.930 . S
C2638 C2636 1.378 . S
C2638 C2639 1.367 . S
C2639 C2638 1.367 . S
C2639 C2641 1.433 . S
C2640 C2636 1.350 . S
C2640 C2637 1.463 . S
C2640 N2644 1.427 . S
C2641 H2631 0.929 . S
C2641 C2639 1.433 . S
C2641 N2644 1.384 . S
C2642 H2633 0.929 . S
C2642 C2634 1.378 . S
C2642 C2637 1.350 . S
C2643 H2630 0.929 . S
C2643 C2635 1.433 . S
C2643 N2645 1.384 . S
N2644 C2640 1.427 . S
N2644 C2641 1.384 . S
N2645 C2637 1.427 . S
N2645 C2643 1.384 . S
H2646 C2652 0.930 . S
H2647 C2656 0.930 . S
H2648 C2661 0.929 . S
H2649 C2659 0.929 . S
H2650 C2654 0.929 . S
H2651 C2660 0.929 . S
C2652 H2646 0.930 . S
C2652 C2653 1.367 . S
C2652 C2660 1.378 . S
C2653 C2652 1.367 . S
C2653 C2661 1.433 . S
C2654 H2650 0.929 . S
C2654 C2656 1.378 . S
C2654 C2658 1.350 . S
C2655 C2658 1.463 . S
C2655 C2660 1.350 . S
C2655 N2663 1.427 . S
C2656 H2647 0.930 . S
C2656 C2654 1.378 . S
C2656 C2657 1.367 . S
C2657 C2656 1.367 . S
C2657 C2659 1.433 . S
C2658 C2654 1.350 . S
C2658 C2655 1.463 . S
C2658 N2662 1.427 . S
C2659 H2649 0.929 . S
C2659 C2657 1.433 . S
C2659 N2662 1.384 . S
C2660 H2651 0.929 . S
C2660 C2652 1.378 . S
C2660 C2655 1.350 . S
C2661 H2648 0.929 . S
C2661 C2653 1.433 . S
C2661 N2663 1.384 . S
N2662 C2658 1.427 . S
N2662 C2659 1.384 . S
N2663 C2655 1.427 . S
N2663 C2661 1.384 . S
C727 C1 1.461 . S
C731 C46 1.439 1_545 S
C745 C6 1.442 1_655 S
C749 C21 1.456 . S
C763 C41 1.463 . S
C767 C26 1.436 . S
C781 C61 1.484 . S
C785 C86 1.467 1_455 S
C799 C106 1.455 . S
C803 C81 1.492 . S
C817 C101 1.486 . S
C821 C66 1.462 1_565 S
C835 C129 1.456 . S
C839 C176 1.441 1_565 S
C853 C149 1.465 . S
C857 C136 1.428 1_455 S
C871 C169 1.460 . S
C875 C156 1.440 . S
C889 C189 1.485 . S
C893 C216 1.463 1_655 S
C907 C236 1.459 . S
C911 C209 1.487 . S
C925 C196 1.461 1_545 S
C929 C229 1.491 . S
C943 C286 1.458 . S
C947 C241 1.495 . S
C961 C261 1.488 . S
C965 C246 1.469 . S
C979 C266 1.458 . S
C983 C281 1.497 . S
C997 C301 1.507 . S
C1001 C326 1.469 . S
C1015 C346 1.475 . S
C1019 C321 1.500 . S
C1033 C306 1.481 . S
C1037 C341 1.498 . S
C1051 C369 1.492 . S
C1055 C416 1.472 . S
C1069 C389 1.501 . S
C1073 C376 1.458 . S
C1087 C396 1.462 . S
C1091 C409 1.497 . S
C1105 C456 1.376 . S
C1109 C429 1.409 . S
C1123 C449 1.401 . S
C1127 C476 1.387 . S
C1141 C436 1.378 . S
C1145 C469 1.408 . S
C1159 C481 1.492 . S
C1163 C526 1.472 . S
C1177 C501 1.500 . S
C1181 C486 1.460 . S
C1195 C521 1.492 . S
C1199 C506 1.471 . S
C1213 C541 1.409 . S
C1217 C566 1.375 . S
C1231 C561 1.404 . S
C1235 C586 1.386 . S
C1249 C581 1.403 . S
C1253 C546 1.387 . S
C1267 C609 1.488 . S
C1271 C656 1.471 . S
C1285 C629 1.488 . S
C1289 C616 1.471 . S
C1303 C636 1.469 . S
C1307 C649 1.488 . S
C1321 C669 1.500 . S
C1325 C696 1.481 . S
C1339 C689 1.507 . S
C1343 C716 1.468 . S
C1357 C676 1.480 . S
C1361 C709 1.498 . S
C1375 C16 1.445 . S
C1379 C401 1.455 . S
C1393 C361 1.451 . S
C1397 C36 1.440 . S
C1411 C56 1.437 . S
C1415 C381 1.454 . S
C1429 C76 1.295 . S
C1433 C681 1.300 . S
C1447 C701 1.304 . S
C1451 C96 1.280 . S
C1465 C116 1.284 . S
C1469 C661 1.296 . S
C1483 C529 1.458 . S
C1487 C126 1.439 . S
C1501 C146 1.437 . S
C1505 C489 1.454 . S
C1519 C166 1.439 . S
C1523 C509 1.452 . S
C1537 C329 1.301 . S
C1541 C186 1.280 . S
C1555 C349 1.296 . S
C1559 C206 1.296 . S
C1573 C309 1.305 . S
C1577 C226 1.292 . S
C1591 C256 1.374 . S
C1595 C641 1.384 . S
C1609 C276 1.364 . S
C1613 C601 1.387 . S
C1627 C621 1.375 . S
C1631 C296 1.371 . S
C1645 C201 1.318 . S
C1649 C316 1.309 1_455 S
C1663 C221 1.317 . S
C1667 C336 1.314 . S
C1681 C181 1.318 . S
C1685 C356 1.315 1_565 S
C1699 C49 1.444 . S
C1703 C366 1.428 1_565 S
C1717 C386 1.431 1_455 S
C1721 C9 1.449 . S
C1735 C406 1.437 . S
C1739 C29 1.439 . S
C1753 C569 1.318 . S
C1757 C426 1.308 . S
C1771 C589 1.326 . S
C1775 C446 1.310 . S
C1789 C466 1.297 . S
C1793 C549 1.316 . S
C1807 C161 1.446 . S
C1811 C496 1.436 1_545 S
C1825 C121 1.441 . S
C1829 C516 1.430 1_655 S
C1843 C141 1.440 . S
C1847 C536 1.431 . S
C1861 C556 1.294 . S
C1865 C441 1.320 . S
C1879 C461 1.318 . S
C1883 C576 1.307 . S
C1897 C596 1.297 . S
C1901 C421 1.316 . S
C1915 C606 1.370 . S
C1919 C289 1.376 . S
C1933 C626 1.370 . S
C1937 C249 1.376 . S
C1951 C646 1.363 . S
C1955 C269 1.385 . S
C1969 C666 1.306 1_655 S
C1973 C89 1.320 . S
C1987 C109 1.327 . S
C1991 C686 1.316 . S
C2005 C69 1.331 . S
C2009 C706 1.311 1_545 S
C2023 C588 2.015 . S
C2027 C8 2.025 . S
C2041 C548 2.027 . S
C2045 C28 2.028 . S
C2059 C48 2.030 . S
C2063 C568 2.014 . S
C2077 C268 2.279 . S
C2081 C68 2.267 . S
C2095 C88 2.271 . S
C2099 C288 2.274 . S
C2113 C108 2.279 . S
C2117 C248 2.282 . S
C2131 C139 2.040 . S
C2135 C479 2.022 . S
C2149 C159 2.039 . S
C2153 C439 2.011 . S
C2167 C179 2.043 . S
C2171 C459 2.017 . S
C2185 C639 2.275 . S
C2189 C199 2.273 . S
C2203 C659 2.282 . S
C2207 C219 2.279 . S
C2221 C619 2.277 . S
C2225 C239 2.266 . S
C2239 C308 2.346 . S
C2243 C508 2.353 . S
C2257 C328 2.340 . S
C2261 C528 2.357 . S
C2275 C348 2.347 . S
C2279 C488 2.355 . S
C2293 C379 2.352 . S
C2297 C719 2.346 . S
C2311 C679 2.334 . S
C2315 C399 2.350 . S
C2329 C419 2.358 . S
C2333 C699 2.341 . S
C2347 C99 1.229 . S
C2351 C19 1.246 . S
C2365 C119 1.246 . S
C2369 C39 1.231 . S
C2383 C79 1.231 . S
C2387 C59 1.244 . S
C2401 C128 1.242 . S
C2405 C208 1.234 . S
C2419 C228 1.238 . S
C2423 C148 1.238 . S
C2437 C168 1.247 . S
C2441 C188 1.228 . S
C2455 C339 1.340 . S
C2459 C259 1.348 . S
C2473 C359 1.349 . S
C2477 C279 1.336 . S
C2491 C319 1.345 . S
C2495 C299 1.343 . S
C2509 C448 1.523 . S
C2513 C368 1.541 . S
C2527 C388 1.537 . S
C2531 C468 1.527 . S
C2545 C408 1.532 . S
C2549 C428 1.530 . S
C2563 C499 1.544 . S
C2567 C579 1.515 . S
C2581 C599 1.522 . S
C2585 C519 1.543 . S
C2599 C539 1.545 . S
C2603 C559 1.514 . S
C2617 C608 1.352 . S
C2621 C688 1.334 . S
C2635 C708 1.347 . S
C2639 C628 1.340 . S
C2653 C648 1.349 . S
C2657 C668 1.336 . S
