# Generated by pormake.
# Topology wio, (6)-cn, num edge types: 1
# Building blocks:
#     Node 0, Type 0, BuildingBlock: GEDQOX_clean_sbu_0, # of connection points: 6
#     Node 1, Type 0, BuildingBlock: GEDQOX_clean_sbu_0, # of connection points: 6
#     Node 2, Type 0, BuildingBlock: GEDQOX_clean_sbu_0, # of connection points: 6
#     Node 3, Type 0, BuildingBlock: GEDQOX_clean_sbu_0, # of connection points: 6
#     Node 4, Type 0, BuildingBlock: GEDQOX_clean_sbu_0, # of connection points: 6
#     Node 5, Type 0, BuildingBlock: GEDQOX_clean_sbu_0, # of connection points: 6
#     Node 6, Type 0, BuildingBlock: GEDQOX_clean_sbu_0, # of connection points: 6
#     Node 7, Type 0, BuildingBlock: GEDQOX_clean_sbu_0, # of connection points: 6
#     Node 8, Type 0, BuildingBlock: GEDQOX_clean_sbu_0, # of connection points: 6
#     Node 9, Type 0, BuildingBlock: GEDQOX_clean_sbu_0, # of connection points: 6
#     Node 10, Type 0, BuildingBlock: GEDQOX_clean_sbu_0, # of connection points: 6
#     Node 11, Type 0, BuildingBlock: GEDQOX_clean_sbu_0, # of connection points: 6
#     Node 12, Type 0, BuildingBlock: GEDQOX_clean_sbu_0, # of connection points: 6
#     Node 13, Type 0, BuildingBlock: GEDQOX_clean_sbu_0, # of connection points: 6
#     Node 14, Type 0, BuildingBlock: GEDQOX_clean_sbu_0, # of connection points: 6
#     Node 15, Type 0, BuildingBlock: GEDQOX_clean_sbu_0, # of connection points: 6
#     Node 16, Type 0, BuildingBlock: GEDQOX_clean_sbu_0, # of connection points: 6
#     Node 17, Type 0, BuildingBlock: GEDQOX_clean_sbu_0, # of connection points: 6
#     Node 18, Type 0, BuildingBlock: GEDQOX_clean_sbu_0, # of connection points: 6
#     Node 19, Type 0, BuildingBlock: GEDQOX_clean_sbu_0, # of connection points: 6
#     Node 20, Type 0, BuildingBlock: GEDQOX_clean_sbu_0, # of connection points: 6
#     Node 21, Type 0, BuildingBlock: GEDQOX_clean_sbu_0, # of connection points: 6
#     Node 22, Type 0, BuildingBlock: GEDQOX_clean_sbu_0, # of connection points: 6
#     Node 23, Type 0, BuildingBlock: GEDQOX_clean_sbu_0, # of connection points: 6
#     Node 24, Type 0, BuildingBlock: GEDQOX_clean_sbu_0, # of connection points: 6
#     Node 25, Type 0, BuildingBlock: GEDQOX_clean_sbu_0, # of connection points: 6
#     Node 26, Type 0, BuildingBlock: GEDQOX_clean_sbu_0, # of connection points: 6
#     Node 27, Type 0, BuildingBlock: GEDQOX_clean_sbu_0, # of connection points: 6
#     Node 28, Type 0, BuildingBlock: GEDQOX_clean_sbu_0, # of connection points: 6
#     Node 29, Type 0, BuildingBlock: GEDQOX_clean_sbu_0, # of connection points: 6
#     Node 30, Type 0, BuildingBlock: GEDQOX_clean_sbu_0, # of connection points: 6
#     Node 31, Type 0, BuildingBlock: GEDQOX_clean_sbu_0, # of connection points: 6
#     Edge 32, Type (0, 0), BuildingBlock: AJUNOK_clean_linker_0, # of connection points: 2
#     Edge 33, Type (0, 0), BuildingBlock: AJUNOK_clean_linker_0, # of connection points: 2
#     Edge 34, Type (0, 0), BuildingBlock: AJUNOK_clean_linker_0, # of connection points: 2
#     Edge 35, Type (0, 0), BuildingBlock: AJUNOK_clean_linker_0, # of connection points: 2
#     Edge 36, Type (0, 0), BuildingBlock: AJUNOK_clean_linker_0, # of connection points: 2
#     Edge 37, Type (0, 0), BuildingBlock: AJUNOK_clean_linker_0, # of connection points: 2
#     Edge 38, Type (0, 0), BuildingBlock: AJUNOK_clean_linker_0, # of connection points: 2
#     Edge 39, Type (0, 0), BuildingBlock: AJUNOK_clean_linker_0, # of connection points: 2
#     Edge 40, Type (0, 0), BuildingBlock: AJUNOK_clean_linker_0, # of connection points: 2
#     Edge 41, Type (0, 0), BuildingBlock: AJUNOK_clean_linker_0, # of connection points: 2
#     Edge 42, Type (0, 0), BuildingBlock: AJUNOK_clean_linker_0, # of connection points: 2
#     Edge 43, Type (0, 0), BuildingBlock: AJUNOK_clean_linker_0, # of connection points: 2
#     Edge 44, Type (0, 0), BuildingBlock: AJUNOK_clean_linker_0, # of connection points: 2
#     Edge 45, Type (0, 0), BuildingBlock: AJUNOK_clean_linker_0, # of connection points: 2
#     Edge 46, Type (0, 0), BuildingBlock: AJUNOK_clean_linker_0, # of connection points: 2
#     Edge 47, Type (0, 0), BuildingBlock: AJUNOK_clean_linker_0, # of connection points: 2
#     Edge 48, Type (0, 0), BuildingBlock: AJUNOK_clean_linker_0, # of connection points: 2
#     Edge 49, Type (0, 0), BuildingBlock: AJUNOK_clean_linker_0, # of connection points: 2
#     Edge 50, Type (0, 0), BuildingBlock: AJUNOK_clean_linker_0, # of connection points: 2
#     Edge 51, Type (0, 0), BuildingBlock: AJUNOK_clean_linker_0, # of connection points: 2
#     Edge 52, Type (0, 0), BuildingBlock: AJUNOK_clean_linker_0, # of connection points: 2
#     Edge 53, Type (0, 0), BuildingBlock: AJUNOK_clean_linker_0, # of connection points: 2
#     Edge 54, Type (0, 0), BuildingBlock: AJUNOK_clean_linker_0, # of connection points: 2
#     Edge 55, Type (0, 0), BuildingBlock: AJUNOK_clean_linker_0, # of connection points: 2
#     Edge 56, Type (0, 0), BuildingBlock: AJUNOK_clean_linker_0, # of connection points: 2
#     Edge 57, Type (0, 0), BuildingBlock: AJUNOK_clean_linker_0, # of connection points: 2
#     Edge 58, Type (0, 0), BuildingBlock: AJUNOK_clean_linker_0, # of connection points: 2
#     Edge 59, Type (0, 0), BuildingBlock: AJUNOK_clean_linker_0, # of connection points: 2
#     Edge 60, Type (0, 0), BuildingBlock: AJUNOK_clean_linker_0, # of connection points: 2
#     Edge 61, Type (0, 0), BuildingBlock: AJUNOK_clean_linker_0, # of connection points: 2
#     Edge 62, Type (0, 0), BuildingBlock: AJUNOK_clean_linker_0, # of connection points: 2
#     Edge 63, Type (0, 0), BuildingBlock: AJUNOK_clean_linker_0, # of connection points: 2
#     Edge 64, Type (0, 0), BuildingBlock: AJUNOK_clean_linker_0, # of connection points: 2
#     Edge 65, Type (0, 0), BuildingBlock: AJUNOK_clean_linker_0, # of connection points: 2
#     Edge 66, Type (0, 0), BuildingBlock: AJUNOK_clean_linker_0, # of connection points: 2
#     Edge 67, Type (0, 0), BuildingBlock: AJUNOK_clean_linker_0, # of connection points: 2
#     Edge 68, Type (0, 0), BuildingBlock: AJUNOK_clean_linker_0, # of connection points: 2
#     Edge 69, Type (0, 0), BuildingBlock: AJUNOK_clean_linker_0, # of connection points: 2
#     Edge 70, Type (0, 0), BuildingBlock: AJUNOK_clean_linker_0, # of connection points: 2
#     Edge 71, Type (0, 0), BuildingBlock: AJUNOK_clean_linker_0, # of connection points: 2
#     Edge 72, Type (0, 0), BuildingBlock: AJUNOK_clean_linker_0, # of connection points: 2
#     Edge 73, Type (0, 0), BuildingBlock: AJUNOK_clean_linker_0, # of connection points: 2
#     Edge 74, Type (0, 0), BuildingBlock: AJUNOK_clean_linker_0, # of connection points: 2
#     Edge 75, Type (0, 0), BuildingBlock: AJUNOK_clean_linker_0, # of connection points: 2
#     Edge 76, Type (0, 0), BuildingBlock: AJUNOK_clean_linker_0, # of connection points: 2
#     Edge 77, Type (0, 0), BuildingBlock: AJUNOK_clean_linker_0, # of connection points: 2
#     Edge 78, Type (0, 0), BuildingBlock: AJUNOK_clean_linker_0, # of connection points: 2
#     Edge 79, Type (0, 0), BuildingBlock: AJUNOK_clean_linker_0, # of connection points: 2
#     Edge 80, Type (0, 0), BuildingBlock: AJUNOK_clean_linker_0, # of connection points: 2
#     Edge 81, Type (0, 0), BuildingBlock: AJUNOK_clean_linker_0, # of connection points: 2
#     Edge 82, Type (0, 0), BuildingBlock: AJUNOK_clean_linker_0, # of connection points: 2
#     Edge 83, Type (0, 0), BuildingBlock: AJUNOK_clean_linker_0, # of connection points: 2
#     Edge 84, Type (0, 0), BuildingBlock: AJUNOK_clean_linker_0, # of connection points: 2
#     Edge 85, Type (0, 0), BuildingBlock: AJUNOK_clean_linker_0, # of connection points: 2
#     Edge 86, Type (0, 0), BuildingBlock: AJUNOK_clean_linker_0, # of connection points: 2
#     Edge 87, Type (0, 0), BuildingBlock: AJUNOK_clean_linker_0, # of connection points: 2
#     Edge 88, Type (0, 0), BuildingBlock: AJUNOK_clean_linker_0, # of connection points: 2
#     Edge 89, Type (0, 0), BuildingBlock: AJUNOK_clean_linker_0, # of connection points: 2
#     Edge 90, Type (0, 0), BuildingBlock: AJUNOK_clean_linker_0, # of connection points: 2
#     Edge 91, Type (0, 0), BuildingBlock: AJUNOK_clean_linker_0, # of connection points: 2
#     Edge 92, Type (0, 0), BuildingBlock: AJUNOK_clean_linker_0, # of connection points: 2
#     Edge 93, Type (0, 0), BuildingBlock: AJUNOK_clean_linker_0, # of connection points: 2
#     Edge 94, Type (0, 0), BuildingBlock: AJUNOK_clean_linker_0, # of connection points: 2
#     Edge 95, Type (0, 0), BuildingBlock: AJUNOK_clean_linker_0, # of connection points: 2
#     Edge 96, Type (0, 0), BuildingBlock: AJUNOK_clean_linker_0, # of connection points: 2
#     Edge 97, Type (0, 0), BuildingBlock: AJUNOK_clean_linker_0, # of connection points: 2
#     Edge 98, Type (0, 0), BuildingBlock: AJUNOK_clean_linker_0, # of connection points: 2
#     Edge 99, Type (0, 0), BuildingBlock: AJUNOK_clean_linker_0, # of connection points: 2
#     Edge 100, Type (0, 0), BuildingBlock: AJUNOK_clean_linker_0, # of connection points: 2
#     Edge 101, Type (0, 0), BuildingBlock: AJUNOK_clean_linker_0, # of connection points: 2
#     Edge 102, Type (0, 0), BuildingBlock: AJUNOK_clean_linker_0, # of connection points: 2
#     Edge 103, Type (0, 0), BuildingBlock: AJUNOK_clean_linker_0, # of connection points: 2
#     Edge 104, Type (0, 0), BuildingBlock: AJUNOK_clean_linker_0, # of connection points: 2
#     Edge 105, Type (0, 0), BuildingBlock: AJUNOK_clean_linker_0, # of connection points: 2
#     Edge 106, Type (0, 0), BuildingBlock: AJUNOK_clean_linker_0, # of connection points: 2
#     Edge 107, Type (0, 0), BuildingBlock: AJUNOK_clean_linker_0, # of connection points: 2
#     Edge 108, Type (0, 0), BuildingBlock: AJUNOK_clean_linker_0, # of connection points: 2
#     Edge 109, Type (0, 0), BuildingBlock: AJUNOK_clean_linker_0, # of connection points: 2
#     Edge 110, Type (0, 0), BuildingBlock: AJUNOK_clean_linker_0, # of connection points: 2
#     Edge 111, Type (0, 0), BuildingBlock: AJUNOK_clean_linker_0, # of connection points: 2
#     Edge 112, Type (0, 0), BuildingBlock: AJUNOK_clean_linker_0, # of connection points: 2
#     Edge 113, Type (0, 0), BuildingBlock: AJUNOK_clean_linker_0, # of connection points: 2
#     Edge 114, Type (0, 0), BuildingBlock: AJUNOK_clean_linker_0, # of connection points: 2
#     Edge 115, Type (0, 0), BuildingBlock: AJUNOK_clean_linker_0, # of connection points: 2
#     Edge 116, Type (0, 0), BuildingBlock: AJUNOK_clean_linker_0, # of connection points: 2
#     Edge 117, Type (0, 0), BuildingBlock: AJUNOK_clean_linker_0, # of connection points: 2
#     Edge 118, Type (0, 0), BuildingBlock: AJUNOK_clean_linker_0, # of connection points: 2
#     Edge 119, Type (0, 0), BuildingBlock: AJUNOK_clean_linker_0, # of connection points: 2
#     Edge 120, Type (0, 0), BuildingBlock: AJUNOK_clean_linker_0, # of connection points: 2
#     Edge 121, Type (0, 0), BuildingBlock: AJUNOK_clean_linker_0, # of connection points: 2
#     Edge 122, Type (0, 0), BuildingBlock: AJUNOK_clean_linker_0, # of connection points: 2
#     Edge 123, Type (0, 0), BuildingBlock: AJUNOK_clean_linker_0, # of connection points: 2
#     Edge 124, Type (0, 0), BuildingBlock: AJUNOK_clean_linker_0, # of connection points: 2
#     Edge 125, Type (0, 0), BuildingBlock: AJUNOK_clean_linker_0, # of connection points: 2
#     Edge 126, Type (0, 0), BuildingBlock: AJUNOK_clean_linker_0, # of connection points: 2
#     Edge 127, Type (0, 0), BuildingBlock: AJUNOK_clean_linker_0, # of connection points: 2
# Relax obj value: 0.179
# Max RMSD: 0.227
# Mean RMSD: 0.227
data_MOF--net-wio--node1-GEDQOX_clean_sbu_0--edge1-AJUNOK_clean_linker_0
_symmetry_space_group_name_H-M    P1
_symmetry_Int_Tables_number       1
_symmetry_cell_setting            triclinic
loop_
_symmetry_equiv_pos_as_xyz
'x, y, z'
_cell_length_a     38.085772
_cell_length_b     38.063583
_cell_length_c     53.071105
_cell_angle_alpha  90.124671
_cell_angle_beta   89.967458
_cell_angle_gamma 89.987068
loop_
_atom_site_label
_atom_site_type_symbol
_atom_site_fract_x
_atom_site_fract_y
_atom_site_fract_z
_atom_type_partial_charge
Nd0 Nd 0.07249 0.12537 0.31847 0.0
Nd1 Nd 0.11945 0.08569 0.3594 0.0
C2 C 0.03701 0.13581 0.27643 0.0
C3 C 0.04611 0.14657 0.25062 0.0
C4 C 0.03141 0.12834 0.23021 0.0
C5 C 0.04143 0.13635 0.20556 0.0
C6 C 0.06634 0.16277 0.20092 0.0
C7 C 0.08083 0.18126 0.22134 0.0
C8 C 0.07102 0.17303 0.24604 0.0
C9 C 0.10499 0.17446 0.35022 0.0
C10 C 0.15632 0.11064 0.30563 0.0
C11 C 0.14915 0.05605 0.39946 0.0
C12 C 0.14973 0.04627 0.42674 0.0
C13 C 0.18213 0.04357 0.43926 0.0
C14 C 0.18467 0.02685 0.46281 0.0
C15 C 0.15485 0.01216 0.47448 0.0
C16 C 0.12203 0.01699 0.46272 0.0
C17 C 0.11951 0.03368 0.43911 0.0
C18 C 0.09978 0.04548 0.31839 0.0
C19 C 0.03515 0.10973 0.37165 0.0
O20 O 0.0491 0.1051 0.28318 0.0
O21 O 0.03952 0.15953 0.29427 0.0
O22 O 0.08508 0.18274 0.33124 0.0
O23 O 0.10762 0.1414 0.35086 0.0
O24 O 0.12452 0.11938 0.29818 0.0
O25 O 0.163 0.10138 0.32954 0.0
O26 O 0.15777 0.08776 0.3918 0.0
O27 O 0.1253 0.04105 0.38532 0.0
O28 O 0.1289 0.04217 0.33073 0.0
O29 O 0.08035 0.06827 0.32931 0.0
O30 O 0.0667 0.10013 0.38015 0.0
O31 O 0.02959 0.11661 0.34764 0.0
H32 H 0.01244 0.10759 0.23337 0.0
H33 H 0.02956 0.12202 0.1901 0.0
H34 H 0.10018 0.20165 0.21819 0.0
H35 H 0.08321 0.18703 0.26153 0.0
H36 H 0.20592 0.05274 0.43021 0.0
H37 H 0.21028 0.02426 0.47147 0.0
H38 H 0.09851 1.00606 0.47108 0.0
H39 H 0.09413 0.0351 0.42997 0.0
Nd40 Nd 0.1281 0.82979 0.56523 0.0
Nd41 Nd 0.17422 0.86916 0.60965 0.0
C42 C 0.10515 0.7987 0.5239 0.0
C43 C 0.10981 0.80052 0.49645 0.0
C44 C 0.12197 0.83145 0.48497 0.0
C45 C 0.11954 0.83554 0.45884 0.0
C46 C 0.10478 0.80884 0.44389 0.0
C47 C 0.09507 0.77697 0.4553 0.0
C48 C 0.09742 0.77293 0.48141 0.0
C49 C 0.08408 0.86276 0.60041 0.0
C50 C 0.15538 0.91026 0.55684 0.0
C51 C 0.1915 0.90142 0.6527 0.0
C52 C 0.21589 0.90255 0.67465 0.0
C53 C 0.20801 0.92464 0.69516 0.0
C54 C 0.22975 0.92576 0.71656 0.0
C55 C 0.26001 0.90463 0.71812 0.0
C56 C 0.2679 0.88255 0.69742 0.0
C57 C 0.24607 0.88142 0.676 0.0
C58 C 0.21813 0.8426 0.57172 0.0
C59 C 0.14982 0.7841 0.61548 0.0
O60 O 0.13076 0.78568 0.53753 0.0
O61 O 0.09037 0.82634 0.53408 0.0
O62 O 0.07324 0.84539 0.58094 0.0
O63 O 0.11729 0.86197 0.60022 0.0
O64 O 0.14947 0.87928 0.54639 0.0
O65 O 0.15889 0.91437 0.58172 0.0
O66 O 0.1701 0.87465 0.65123 0.0
O67 O 0.20301 0.91135 0.63055 0.0
O68 O 0.22929 0.8584 0.59198 0.0
O69 O 0.18512 0.83958 0.57383 0.0
O70 O 0.16554 0.81247 0.62507 0.0
O71 O 0.13515 0.78386 0.59284 0.0
H72 H 0.13171 0.85305 0.4963 0.0
H73 H 0.12737 0.8603 0.45053 0.0
H74 H 0.08439 0.75567 0.44411 0.0
H75 H 0.08798 0.74889 0.48995 0.0
H76 H 0.18486 0.94118 0.69463 0.0
H77 H 0.22313 0.94369 0.7317 0.0
H78 H 0.2909 0.86582 0.69788 0.0
H79 H 0.25268 0.86397 0.66056 0.0
Nd80 Nd 0.43836 0.87727 0.81989 0.0
Nd81 Nd 0.39572 0.92525 0.85754 0.0
C82 C 0.46612 0.843 0.78134 0.0
C83 C 0.46096 0.8405 0.75395 0.0
C84 C 0.42818 0.84795 0.74317 0.0
C85 C 0.42316 0.84447 0.71723 0.0
C86 C 0.45072 0.83297 0.70161 0.0
C87 C 0.48351 0.82536 0.71251 0.0
C88 C 0.48862 0.82931 0.73847 0.0
C89 C 0.40827 0.843 0.86038 0.0
C90 C 0.35954 0.90542 0.80337 0.0
C91 C 0.36055 0.94671 0.89835 0.0
C92 C 0.36308 0.96851 0.92184 0.0
C93 C 0.38962 0.96292 0.93989 0.0
C94 C 0.38986 0.98175 0.96275 0.0
C95 C 0.36363 1.00678 0.96831 0.0
C96 C 0.3371 0.01225 0.95024 0.0
C97 C 0.33686 0.99343 0.92737 0.0
C98 C 0.42838 0.96785 0.82139 0.0
C99 C 0.47976 0.90247 0.86937 0.0
O100 O 0.47917 0.87249 0.79006 0.0
O101 O 0.44054 0.83065 0.79522 0.0
O102 O 0.439 0.83595 0.85124 0.0
O103 O 0.39354 0.86706 0.84765 0.0
O104 O 0.39107 0.89473 0.7964 0.0
O105 O 0.35257 0.91389 0.82724 0.0
O106 O 0.3791 0.91779 0.89723 0.0
O107 O 0.35854 0.96258 0.87651 0.0
O108 O 0.4105 0.97981 0.84043 0.0
O109 O 0.43044 0.93492 0.82396 0.0
O110 O 0.44877 0.91319 0.87812 0.0
O111 O 0.48386 0.89288 0.84562 0.0
H112 H 0.4064 0.8563 0.75483 0.0
H113 H 0.39765 0.85069 0.70941 0.0
H114 H 0.50499 0.81558 0.7011 0.0
H115 H 0.51398 0.82304 0.74652 0.0
H116 H 0.41002 0.94364 0.93652 0.0
H117 H 0.41037 0.97624 0.9763 0.0
H118 H 0.31659 0.03139 0.9537 0.0
H119 H 0.31583 0.9981 0.91406 0.0
Nd120 Nd 0.38241 0.18197 0.06983 0.0
Nd121 Nd 0.33624 0.14376 0.10542 0.0
C122 C 0.41693 0.20804 0.0307 0.0
C123 C 0.41935 0.20129 1.00337 0.0
C124 C 0.42349 0.22951 0.98672 0.0
C125 C 0.42597 0.22357 0.96075 0.0
C126 C 0.42434 0.18924 0.95093 0.0
C127 C 0.42016 0.16097 0.9677 0.0
C128 C 0.41752 0.16697 0.99364 0.0
C129 C 0.41782 0.15752 0.1119 0.0
C130 C 0.36146 0.10067 0.05582 0.0
C131 C 0.30315 0.11641 0.14545 0.0
C132 C 0.28999 0.12077 0.17202 0.0
C133 C 0.29956 0.09649 0.19087 0.0
C134 C 0.28238 0.09606 0.21448 0.0
C135 C 0.25492 0.1197 0.21978 0.0
C136 C 0.24668 0.14513 0.20144 0.0
C137 C 0.26391 0.14571 0.17799 0.0
C138 C 0.30072 0.16352 0.0622 0.0
C139 C 0.35847 0.22795 0.11673 0.0
O140 O 0.3874 0.22124 0.039 0.0
O141 O 0.42958 0.18377 0.04552 0.0
O142 O 0.42199 0.18833 0.10208 0.0
O143 O 0.39525 0.14002 0.09955 0.0
O144 O 0.37075 0.13181 0.04748 0.0
O145 O 0.35026 0.09636 0.07933 0.0
O146 O 0.33662 0.11153 0.141 0.0
O147 O 0.28784 0.13444 0.12765 0.0
O148 O 0.29497 0.13491 0.0747 0.0
O149 O 0.32308 0.18277 0.07366 0.0
O150 O 0.34766 0.19731 0.12581 0.0
O151 O 0.36887 0.23039 0.09318 0.0
H152 H 0.42482 0.25619 0.99382 0.0
H153 H 0.42904 0.24588 0.9483 0.0
H154 H 0.41952 0.13417 0.96082 0.0
H155 H 0.41408 0.1448 1.00609 0.0
H156 H 0.31919 0.07664 0.1869 0.0
H157 H 0.28915 0.07589 0.228 0.0
H158 H 0.22562 0.16369 0.20485 0.0
H159 H 0.25554 0.16476 0.1641 0.0
Nd160 Nd 0.07911 0.88846 0.22103 0.0
Nd161 Nd 0.12302 0.92394 0.18362 0.0
C162 C 0.04855 0.86144 0.26145 0.0
C163 C 0.05717 0.85444 0.28801 0.0
C164 C 0.07534 0.879 0.30291 0.0
C165 C 0.0835 0.87122 0.32801 0.0
C166 C 0.07363 0.83882 0.33857 0.0
C167 C 0.05614 0.81411 0.32338 0.0
C168 C 0.04785 0.82194 0.2984 0.0
C169 C 0.1057 0.84373 0.18433 0.0
C170 C 0.1607 0.90348 0.23603 0.0
C171 C 0.15519 0.94776 0.1421 0.0
C172 C 0.14955 0.96592 0.11741 0.0
C173 C 0.16571 0.95297 0.09541 0.0
C174 C 0.16381 0.97158 0.07253 0.0
C175 C 0.1456 1.00374 0.07095 0.0
C176 C 0.12925 0.0165 0.09302 0.0
C177 C 0.13105 0.99786 0.11583 0.0
C178 C 0.10305 0.969 0.22198 0.0
C179 C 0.03759 0.90879 0.17195 0.0
O180 O 0.04475 0.8942 0.25459 0.0
O181 O 0.0656 0.84271 0.24488 0.0
O182 O 0.07315 0.8447 0.1914 0.0
O183 O 0.12339 0.86708 0.19569 0.0
O184 O 0.12805 0.90133 0.24387 0.0
O185 O 0.16741 0.90654 0.21153 0.0
O186 O 0.14472 0.91526 0.14471 0.0
O187 O 0.15059 0.96609 0.16263 0.0
O188 O 0.13291 0.96942 0.21037 0.0
O189 O 0.08262 0.94643 0.21183 0.0
O190 O 0.06954 0.91398 0.16268 0.0
O191 O 0.0331 0.90378 0.19619 0.0
H192 H 0.08315 0.90414 0.29519 0.0
H193 H 0.09707 0.89073 0.33926 0.0
H194 H 0.04904 0.78857 0.33077 0.0
H195 H 0.03426 0.80247 0.28711 0.0
H196 H 0.18051 0.92868 0.09603 0.0
H197 H 0.17676 0.96083 0.05606 0.0
H198 H 0.11582 0.04156 0.0929 0.0
H199 H 0.11862 0.00894 0.13239 0.0
Nd200 Nd 0.38076 0.82476 0.47629 0.0
Nd201 Nd 0.33615 0.86782 0.43593 0.0
C202 C 0.39628 0.78952 0.51768 0.0
C203 C 0.40542 0.79758 0.54413 0.0
C204 C 0.38185 0.81563 0.55996 0.0
C205 C 0.39037 0.82197 0.58515 0.0
C206 C 0.42269 0.81073 0.59495 0.0
C207 C 0.44646 0.79309 0.57912 0.0
C208 C 0.43782 0.78646 0.55393 0.0
C209 C 0.42605 0.85798 0.44252 0.0
C210 C 0.36531 0.90909 0.48651 0.0
C211 C 0.30438 0.8955 0.39587 0.0
C212 C 0.29237 0.89094 0.36916 0.0
C213 C 0.30346 0.9144 0.35023 0.0
C214 C 0.28703 0.91484 0.3264 0.0
C215 C 0.25887 0.89208 0.32108 0.0
C216 C 0.24903 0.86751 0.33955 0.0
C217 C 0.26559 0.8668 0.36315 0.0
C218 C 0.3004 0.84718 0.47861 0.0
C219 C 0.3622 0.78401 0.42437 0.0
O220 O 0.36412 0.79645 0.51056 0.0
O221 O 0.41966 0.79734 0.50051 0.0
O222 O 0.43639 0.83897 0.4614 0.0
O223 O 0.39291 0.85899 0.44263 0.0
O224 O 0.3739 0.87801 0.49572 0.0
O225 O 0.35388 0.9133 0.46289 0.0
O226 O 0.33762 0.90132 0.40103 0.0
O227 O 0.28867 0.87665 0.41312 0.0
O228 O 0.29529 0.87674 0.46714 0.0
O229 O 0.32287 0.82869 0.46673 0.0
O230 O 0.34864 0.8141 0.41597 0.0
O231 O 0.37369 0.78053 0.44767 0.0
H232 H 0.35671 0.82467 0.55301 0.0
H233 H 0.37169 0.83572 0.59701 0.0
H234 H 0.47137 0.7838 0.58637 0.0
H235 H 0.45632 0.77235 0.54215 0.0
H236 H 0.32363 0.93365 0.35428 0.0
H237 H 0.29491 0.93439 0.31272 0.0
H238 H 0.22735 0.84972 0.33609 0.0
H239 H 0.25605 0.84842 0.37711 0.0
Nd240 Nd 0.43463 0.13081 0.72261 0.0
Nd241 Nd 0.39559 0.08446 0.68672 0.0
C242 C 0.46337 0.15947 0.76319 0.0
C243 C 0.45614 0.16135 0.7905 0.0
C244 C 0.42199 0.16689 0.79974 0.0
C245 C 0.41592 0.16979 0.82568 0.0
C246 C 0.44384 0.16686 0.84289 0.0
C247 C 0.47788 0.16074 0.83355 0.0
C248 C 0.48394 0.15802 0.80762 0.0
C249 C 0.40596 0.1683 0.68284 0.0
C250 C 0.3537 0.10771 0.73741 0.0
C251 C 0.36718 0.04911 0.64818 0.0
C252 C 0.367 0.03851 0.62106 0.0
C253 C 0.39782 0.03732 0.60647 0.0
C254 C 0.39768 0.0219 0.58228 0.0
C255 C 0.36676 0.00711 0.57201 0.0
C256 C 0.33578 0.00946 0.58646 0.0
C257 C 0.33592 0.02502 0.61053 0.0
C258 C 0.41985 0.04924 0.72882 0.0
C259 C 0.47678 0.11261 0.67249 0.0
O260 O 0.47281 0.12884 0.75427 0.0
O261 O 0.44175 0.17615 0.74829 0.0
O262 O 0.43603 0.17487 0.69332 0.0
O263 O 0.39068 0.14311 0.69415 0.0
O264 O 0.38445 0.11946 0.74498 0.0
O265 O 0.34917 0.09541 0.7142 0.0
O266 O 0.35676 0.08057 0.65491 0.0
O267 O 0.39254 0.03718 0.66237 0.0
O268 O 0.39033 0.04268 0.71774 0.0
O269 O 0.43708 0.0722 0.71662 0.0
O270 O 0.44575 0.1015 0.66434 0.0
O271 O 0.48119 0.1211 0.69634 0.0
H272 H 0.40007 0.16955 0.78692 0.0
H273 H 0.38951 0.17521 0.83218 0.0
H274 H 0.4999 0.15817 0.84632 0.0
H275 H 0.51046 0.1536 0.80091 0.0
H276 H 0.42227 0.04724 0.6141 0.0
H277 H 0.42208 0.02078 0.57183 0.0
H278 H 0.31165 0.99765 0.57979 0.0
H279 H 0.31188 0.02504 0.62146 0.0
Nd280 Nd 0.12888 0.18481 0.97707 0.0
Nd281 Nd 0.17443 0.14096 0.93293 0.0
C282 C 0.11456 0.22091 1.0184 0.0
C283 C 0.11027 0.21364 0.04555 0.0
C284 C 0.13582 0.1951 0.05926 0.0
C285 C 0.13043 0.18724 0.08469 0.0
C286 C 0.09931 0.19758 0.09687 0.0
C287 C 0.0741 0.21669 0.08326 0.0
C288 C 0.07954 0.2246 0.05785 0.0
C289 C 0.08491 0.14997 0.94329 0.0
C290 C 0.14795 0.10137 0.98608 0.0
C291 C 0.19312 0.10575 0.89148 0.0
C292 C 0.21557 0.10683 0.86841 0.0
C293 C 0.20117 0.09671 0.84509 0.0
C294 C 0.22171 0.0963 0.82307 0.0
C295 C 0.25737 0.10598 0.82373 0.0
C296 C 0.27172 0.11636 0.84713 0.0
C297 C 0.25115 0.1167 0.86918 0.0
C298 C 0.217 0.17099 0.97017 0.0
C299 C 0.1491 0.22516 0.92371 0.0
O300 O 0.14625 0.21834 1.00889 0.0
O301 O 0.09028 0.20803 1.00357 0.0
O302 O 0.07374 0.16839 0.96236 0.0
O303 O 0.11818 0.15042 0.94352 0.0
O304 O 0.13872 0.13196 0.99598 0.0
O305 O 0.15853 0.09736 0.96216 0.0
O306 O 0.16636 0.12724 0.89252 0.0
O307 O 0.20821 0.10151 0.91346 0.0
O308 O 0.22943 0.15392 0.95084 0.0
O309 O 0.18434 0.17331 0.96689 0.0
O310 O 0.16408 0.19589 0.91484 0.0
O311 O 0.13614 0.22777 0.94691 0.0
H312 H 0.15986 0.18648 0.05038 0.0
H313 H 0.15065 0.17313 0.09485 0.0
H314 H 0.04984 0.22492 0.09215 0.0
H315 H 0.05948 0.23894 0.04768 0.0
H316 H 0.17383 0.08901 0.84389 0.0
H317 H 0.20947 0.0889 0.80543 0.0
H318 H 0.29907 0.12393 0.84844 0.0
H319 H 0.26313 0.12459 0.88681 0.0
Nd320 Nd 0.88967 0.93106 0.68161 0.0
Nd321 Nd 0.93235 0.89064 0.72367 0.0
C322 C 0.86082 0.96208 0.64181 0.0
C323 C 0.86053 0.97207 0.61474 0.0
C324 C 0.83001 0.98727 0.60469 0.0
C325 C 0.83021 1.00283 0.58073 0.0
C326 C 0.86097 1.00338 0.56599 0.0
C327 C 0.89124 0.98682 0.57577 0.0
C328 C 0.89107 0.97148 0.59989 0.0
C329 C 0.90478 0.96979 0.72441 0.0
C330 C 0.97379 0.90595 0.67147 0.0
C331 C 0.96633 0.87946 0.76642 0.0
C332 C 0.95794 0.87201 0.79316 0.0
C333 C 0.94809 0.89921 0.80975 0.0
C334 C 0.94147 0.89216 0.83516 0.0
C335 C 0.94477 0.85786 0.8446 0.0
C336 C 0.95414 0.83062 0.82797 0.0
C337 C 0.96087 0.83766 0.80257 0.0
C338 C 0.90215 0.84161 0.69091 0.0
C339 C 0.84717 0.90119 0.73118 0.0
O340 O 0.85252 0.93003 0.64877 0.0
O341 O 0.88481 0.97655 0.65611 0.0
O342 O 0.87617 0.97221 0.71141 0.0
O343 O 0.92574 0.94823 0.71377 0.0
O344 O 0.94341 0.91758 0.66222 0.0
O345 O 0.97715 0.89715 0.69539 0.0
O346 O 0.95842 0.91072 0.75799 0.0
O347 O 0.96014 0.85466 0.7499 0.0
O348 O 0.92105 0.83359 0.71045 0.0
O349 O 0.89977 0.87472 0.68966 0.0
O350 O 0.87808 0.89538 0.74165 0.0
O351 O 0.84375 0.91142 0.70726 0.0
H352 H 0.80629 0.9887 0.61594 0.0
H353 H 0.80669 0.01615 0.57443 0.0
H354 H 0.91543 0.98664 0.56504 0.0
H355 H 0.91511 0.96032 0.60729 0.0
H356 H 0.94581 0.92606 0.80322 0.0
H357 H 0.93442 0.91369 0.84756 0.0
H358 H 0.95621 0.80381 0.83459 0.0
H359 H 0.96852 0.81619 0.79031 0.0
Nd360 Nd 0.83555 0.14805 0.43339 0.0
Nd361 Nd 0.87906 0.1881 0.47577 0.0
C362 C 0.80387 0.12062 0.39326 0.0
C363 C 0.79406 0.12 0.36603 0.0
C364 C 0.79585 0.08815 0.35263 0.0
C365 C 0.78024 0.08473 0.32876 0.0
C366 C 0.76222 0.11306 0.31766 0.0
C367 C 0.76229 0.14557 0.33041 0.0
C368 C 0.77788 0.14899 0.35433 0.0
C369 C 0.79804 0.16773 0.47574 0.0
C370 C 0.86574 0.2302 0.42348 0.0
C371 C 0.89225 0.22224 0.51818 0.0
C372 C 0.89654 0.21341 0.54511 0.0
C373 C 0.86982 0.19641 0.55876 0.0
C374 C 0.87472 0.18801 0.58417 0.0
C375 C 0.9065 0.19613 0.59634 0.0
C376 C 0.933 0.21337 0.58269 0.0
C377 C 0.92804 0.22196 0.55736 0.0
C378 C 0.92583 0.1559 0.44256 0.0
C379 C 0.86212 0.10406 0.48325 0.0
O380 O 0.83509 0.11031 0.40074 0.0
O381 O 0.79024 0.14516 0.40758 0.0
O382 O 0.79323 0.13873 0.46343 0.0
O383 O 0.82164 0.18596 0.46498 0.0
O384 O 0.85053 0.20144 0.41421 0.0
O385 O 0.87669 0.23235 0.44703 0.0
O386 O 0.86076 0.21913 0.50857 0.0
O387 O 0.91692 0.21128 0.50292 0.0
O388 O 0.93515 0.17399 0.46223 0.0
O389 O 0.89258 0.15514 0.44146 0.0
O390 O 0.87016 0.13449 0.49376 0.0
O391 O 0.85172 0.10126 0.45933 0.0
H392 H 0.80792 0.0653 0.36115 0.0
H393 H 0.78132 0.05949 0.31933 0.0
H394 H 0.74866 0.16794 0.32249 0.0
H395 H 0.77584 0.1739 0.36411 0.0
H396 H 0.84516 0.18954 0.54987 0.0
H397 H 0.85352 0.17541 0.59433 0.0
H398 H 0.95781 0.21981 0.59153 0.0
H399 H 0.94897 0.23511 0.54725 0.0
Nd400 Nd 0.61753 0.08959 0.18482 0.0
Nd401 Nd 0.58402 0.13311 0.22463 0.0
C402 C 0.64418 0.06268 0.14219 0.0
C403 C 0.63881 0.04634 0.11674 0.0
C404 C 0.65737 0.0593 0.09572 0.0
C405 C 0.65759 0.04096 0.0726 0.0
C406 C 0.63937 0.009 0.06992 0.0
C407 C 0.61946 0.997 0.09061 0.0
C408 C 0.61916 0.01533 0.11365 0.0
C409 C 0.59681 0.04971 0.22588 0.0
C410 C 0.53347 0.11545 0.17826 0.0
C411 C 0.5629 0.1656 0.26623 0.0
C412 C 0.57283 0.16847 0.29294 0.0
C413 C 0.59824 0.14628 0.30362 0.0
C414 C 0.6087 0.15104 0.32873 0.0
C415 C 0.59389 0.17805 0.34346 0.0
C416 C 0.56832 0.19996 0.33262 0.0
C417 C 0.55792 0.1952 0.30761 0.0
C418 C 0.60985 0.17152 0.18451 0.0
C419 C 0.66403 0.10704 0.23393 0.0
O420 O 0.63832 0.09623 0.14546 0.0
O421 O 0.63657 0.04425 0.1622 0.0
O422 O 0.62433 0.04361 0.21218 0.0
O423 O 0.57895 0.0749 0.21659 0.0
O424 O 0.56209 0.10223 0.16746 0.0
O425 O 0.53383 0.12534 0.20205 0.0
O426 O 0.54988 0.13563 0.25857 0.0
O427 O 0.58503 0.17914 0.25017 0.0
O428 O 0.57925 0.17622 0.19458 0.0
O429 O 0.62603 0.14663 0.19527 0.0
O430 O 0.63339 0.11314 0.24439 0.0
O431 O 0.66677 0.1026 0.20922 0.0
H432 H 0.67309 0.08289 0.09751 0.0
H433 H 0.67356 0.05081 0.05727 0.0
H434 H 0.6049 0.97265 0.08917 0.0
H435 H 0.60459 1.00445 0.12932 0.0
H436 H 0.61028 0.12565 0.29251 0.0
H437 H 0.6288 0.13405 0.33645 0.0
H438 H 0.55625 0.22079 0.34355 0.0
H439 H 0.53842 0.21267 0.29963 0.0
Nd440 Nd 0.67682 0.87061 0.93275 0.0
Nd441 Nd 0.63556 0.82527 0.97403 0.0
C442 C 0.70803 0.89949 0.89279 0.0
C443 C 0.7217 0.89538 0.86639 0.0
C444 C 0.70254 0.90619 0.84504 0.0
C445 C 0.71792 0.90558 0.82077 0.0
C446 C 0.75301 0.89451 0.81729 0.0
C447 C 0.77182 0.88364 0.83873 0.0
C448 C 0.75653 0.88405 0.86271 0.0
C449 C 0.71552 0.85274 0.97474 0.0
C450 C 0.65178 0.78645 0.92081 0.0
C451 C 0.62113 0.78907 1.01534 0.0
C452 C 0.61958 0.79614 0.04264 0.0
C453 C 0.64107 0.82172 0.05391 0.0
C454 C 0.63717 0.82994 0.07951 0.0
C455 C 0.61162 0.8128 0.09421 0.0
C456 C 0.5908 0.78664 0.08292 0.0
C457 C 0.5947 0.77848 0.05737 0.0
C458 C 0.58806 0.85741 0.94101 0.0
C459 C 0.65115 0.90906 0.98529 0.0
O460 O 0.67438 0.90367 0.8975 0.0
O461 O 0.72405 0.88144 0.91029 0.0
O462 O 0.71878 0.88156 0.96206 0.0
O463 O 0.69324 0.83255 0.96402 0.0
O464 O 0.66484 0.81686 0.91255 0.0
O465 O 0.64137 0.78217 0.94435 0.0
O466 O 0.65214 0.78935 1.0047 0.0
O467 O 0.59721 0.80471 1.00177 0.0
O468 O 0.57884 0.83776 0.95984 0.0
O469 O 0.6211 0.85933 0.9409 0.0
O470 O 0.646 0.87707 0.99412 0.0
O471 O 0.65784 0.91488 0.96084 0.0
H472 H 0.67587 0.91563 0.84711 0.0
H473 H 0.70231 0.91373 0.80479 0.0
H474 H 0.79901 0.87556 0.83714 0.0
H475 H 0.77264 0.87631 0.87857 0.0
H476 H 0.66052 0.83563 0.04287 0.0
H477 H 0.65404 0.84975 0.08777 0.0
H478 H 0.5708 0.77311 0.09371 0.0
H479 H 0.57776 0.7588 0.04899 0.0
Nd480 Nd 0.88968 0.08806 0.86243 0.0
Nd481 Nd 0.93413 0.1249 0.81939 0.0
C482 C 0.86069 0.06101 0.90388 0.0
C483 C 0.86641 0.04707 0.92994 0.0
C484 C 0.84834 0.06155 0.95067 0.0
C485 C 0.84931 0.04523 0.97449 0.0
C486 C 0.86833 0.01388 0.97823 0.0
C487 C 0.88667 0.99973 0.95749 0.0
C488 C 0.88594 0.01612 0.93385 0.0
C489 C 0.90501 0.04672 0.82101 0.0
C490 C 0.97536 0.10834 0.87156 0.0
C491 C 0.96699 0.13181 0.77581 0.0
C492 C 0.95805 0.1431 0.75008 0.0
C493 C 0.96976 0.12284 0.72965 0.0
C494 C 0.95976 0.13133 0.7051 0.0
C495 C 0.9378 0.16028 0.70054 0.0
C496 C 0.92642 0.18089 0.72098 0.0
C497 C 0.93624 0.17221 0.74562 0.0
C498 C 0.90452 0.17645 0.85032 0.0
C499 C 0.8483 0.11808 0.81245 0.0
O500 O 0.86155 0.09494 0.8995 0.0
O501 O 0.87351 0.04258 0.88522 0.0
O502 O 0.87586 0.04586 0.83357 0.0
O503 O 0.92624 0.06833 0.83133 0.0
O504 O 0.94489 0.09704 0.88087 0.0
O505 O 0.9787 0.11757 0.8477 0.0
O506 O 0.95198 0.10268 0.78309 0.0
O507 O 0.96804 0.15579 0.79356 0.0
O508 O 0.9237 0.18305 0.83061 0.0
O509 O 0.90134 0.1435 0.85239 0.0
O510 O 0.87947 0.12213 0.80194 0.0
O511 O 0.84441 0.10896 0.83659 0.0
H512 H 0.83253 0.08497 0.94827 0.0
H513 H 0.83474 0.0569 0.98991 0.0
H514 H 0.90062 0.97506 0.95918 0.0
H515 H 0.89971 1.00363 0.91839 0.0
H516 H 0.98637 0.10012 0.73273 0.0
H517 H 0.96937 0.11538 0.68963 0.0
H518 H 0.90946 0.20333 0.71792 0.0
H519 H 0.92644 0.18794 0.76114 0.0
Nd520 Nd 0.67755 0.14559 0.61069 0.0
Nd521 Nd 0.63617 0.18864 0.57001 0.0
C522 C 0.70706 0.11659 0.65138 0.0
C523 C 0.7219 0.12172 0.67737 0.0
C524 C 0.70203 0.11603 0.69943 0.0
C525 C 0.71793 0.1174 0.72351 0.0
C526 C 0.7542 0.12424 0.72613 0.0
C527 C 0.77376 0.13003 0.70399 0.0
C528 C 0.75799 0.12876 0.68017 0.0
C529 C 0.71785 0.16413 0.56947 0.0
C530 C 0.65215 0.22934 0.6225 0.0
C531 C 0.61755 0.22321 0.52886 0.0
C532 C 0.62312 0.22025 0.50152 0.0
C533 C 0.64479 0.19391 0.49137 0.0
C534 C 0.64491 0.18743 0.46537 0.0
C535 C 0.62318 0.20705 0.44919 0.0
C536 C 0.60284 0.23445 0.45942 0.0
C537 C 0.60276 0.2409 0.48534 0.0
C538 C 0.58781 0.15678 0.60245 0.0
C539 C 0.65535 0.10635 0.55837 0.0
O540 O 0.67305 0.11605 0.64738 0.0
O541 O 0.72427 0.13094 0.63278 0.0
O542 O 0.72057 0.13518 0.58207 0.0
O543 O 0.69467 0.18409 0.57955 0.0
O544 O 0.66779 0.19996 0.63018 0.0
O545 O 0.63936 0.23248 0.59949 0.0
O546 O 0.64423 0.23251 0.54291 0.0
O547 O 0.59924 0.19772 0.53871 0.0
O548 O 0.57954 0.17687 0.58376 0.0
O549 O 0.62087 0.15466 0.60347 0.0
O550 O 0.65141 0.13833 0.54933 0.0
O551 O 0.65958 0.10074 0.58302 0.0
H552 H 0.6743 0.11002 0.6981 0.0
H553 H 0.70179 0.11323 0.74002 0.0
H554 H 0.80176 0.13479 0.70498 0.0
H555 H 0.77455 0.13249 0.66379 0.0
H556 H 0.6606 0.17762 0.50363 0.0
H557 H 0.66137 0.1666 0.45799 0.0
H558 H 0.5857 0.2499 0.4475 0.0
H559 H 0.58559 0.26106 0.49288 0.0
Nd560 Nd 0.61701 0.92937 0.36004 0.0
Nd561 Nd 0.57386 0.88088 0.31721 0.0
C562 C 0.64918 0.94997 0.40228 0.0
C563 C 0.64574 0.97083 0.42613 0.0
C564 C 0.65049 0.95424 0.44962 0.0
C565 C 0.65145 0.97381 0.47218 0.0
C566 C 0.64797 0.0106 0.47185 0.0
C567 C 0.6416 0.02694 0.44844 0.0
C568 C 0.64067 0.00743 0.42592 0.0
C569 C 0.58948 0.96933 0.32013 0.0
C570 C 0.53313 0.90282 0.36987 0.0
C571 C 0.54239 0.86517 0.27437 0.0
C572 C 0.55478 0.85863 0.24842 0.0
C573 C 0.53535 0.87138 0.22797 0.0
C574 C 0.54684 0.86553 0.20326 0.0
C575 C 0.57797 0.84675 0.19859 0.0
C576 C 0.59758 0.8342 0.2191 0.0
C577 C 0.58625 0.84032 0.24382 0.0
C578 C 0.60851 0.83915 0.35201 0.0
C579 C 0.65893 0.89674 0.31004 0.0
O580 O 0.6312 0.92085 0.40031 0.0
O581 O 0.65187 0.96659 0.38074 0.0
O582 O 0.60655 0.98292 0.33904 0.0
O583 O 0.58555 0.93716 0.32524 0.0
O584 O 0.56184 0.91973 0.3777 0.0
O585 O 0.5304 0.88843 0.34708 0.0
O586 O 0.54542 0.89745 0.28267 0.0
O587 O 0.55074 0.84161 0.2913 0.0
O588 O 0.59001 0.82672 0.33338 0.0
O589 O 0.60791 0.87244 0.351 0.0
O590 O 0.62886 0.8855 0.30049 0.0
O591 O 0.66201 0.91141 0.33285 0.0
H592 H 0.65456 0.92609 0.45047 0.0
H593 H 0.65632 0.96029 0.48977 0.0
H594 H 0.63799 0.05511 0.44748 0.0
H595 H 0.63676 0.02119 0.4083 0.0
H596 H 0.51117 0.88575 0.2311 0.0
H597 H 0.53103 0.87512 0.18777 0.0
H598 H 0.62176 0.81981 0.21599 0.0
H599 H 0.60205 0.83069 0.2593 0.0
Nd600 Nd 0.83622 0.8708 0.11095 0.0
Nd601 Nd 0.87765 0.83521 0.07159 0.0
C602 C 0.80441 0.89784 0.15156 0.0
C603 C 0.78905 0.89186 0.17714 0.0
C604 C 0.80409 0.90777 0.19855 0.0
C605 C 0.7871 0.90652 0.22211 0.0
C606 C 0.75459 0.88932 0.2249 0.0
C607 C 0.7398 0.87316 0.20347 0.0
C608 C 0.75678 0.87428 0.18003 0.0
C609 C 0.79623 0.85433 0.06914 0.0
C610 C 0.86134 0.78729 0.1195 0.0
C611 C 0.90504 0.80887 0.02967 0.0
C612 C 0.90791 0.81644 1.00259 0.0
C613 C 0.90488 0.85083 0.99328 0.0
C614 C 0.91013 0.85756 0.96762 0.0
C615 C 0.91863 0.83003 0.95097 0.0
C616 C 0.92059 0.79555 0.96031 0.0
C617 C 0.91535 0.78887 0.98591 0.0
C618 C 0.91932 0.85985 0.11081 0.0
C619 C 0.85966 0.91778 0.06282 0.0
O620 O 0.83847 0.89788 0.14853 0.0
O621 O 0.78804 0.8846 0.13216 0.0
O622 O 0.79416 0.88308 0.08206 0.0
O623 O 0.81889 0.83366 0.07884 0.0
O624 O 0.8492 0.81663 0.12985 0.0
O625 O 0.8703 0.78637 0.09559 0.0
O626 O 0.87411 0.79992 0.0382 0.0
O627 O 0.92187 0.82998 0.04486 0.0
O628 O 0.92328 0.82989 0.0995 0.0
O629 O 0.89381 0.87657 0.10116 0.0
O630 O 0.8658 0.88728 0.05209 0.0
O631 O 0.85183 0.91995 0.08717 0.0
H632 H 0.82856 0.92209 0.19694 0.0
H633 H 0.79925 0.91936 0.23812 0.0
H634 H 0.71433 0.86062 0.20455 0.0
H635 H 0.7439 0.86232 0.16398 0.0
H636 H 0.89913 0.87251 1.00588 0.0
H637 H 0.90841 0.88436 0.96091 0.0
H638 H 0.92633 0.77375 0.94782 0.0
H639 H 0.91762 0.76216 0.99275 0.0
Nd640 Nd 0.5753 0.62619 0.81889 0.0
Nd641 Nd 0.62109 0.58758 0.8609 0.0
C642 C 0.53962 0.63777 0.77689 0.0
C643 C 0.54716 0.65175 0.75161 0.0
C644 C 0.58183 0.65378 0.74275 0.0
C645 C 0.58864 0.66402 0.71794 0.0
C646 C 0.56091 0.67266 0.70158 0.0
C647 C 0.52626 0.67134 0.71071 0.0
C648 C 0.51946 0.66094 0.73554 0.0
C649 C 0.60912 0.67594 0.84948 0.0
C650 C 0.6592 0.61016 0.80739 0.0
C651 C 0.6514 0.55945 0.90133 0.0
C652 C 0.65002 0.55091 0.92872 0.0
C653 C 0.68132 0.54286 0.94152 0.0
C654 C 0.68062 0.52674 0.96535 0.0
C655 C 0.64851 0.51821 0.97701 0.0
C656 C 0.6172 0.52831 0.96478 0.0
C657 C 0.61793 0.54443 0.94096 0.0
C658 C 0.60167 0.54584 0.82063 0.0
C659 C 0.53703 0.61166 0.87253 0.0
O660 O 0.55489 0.60796 0.78224 0.0
O661 O 0.54022 0.66003 0.79572 0.0
O662 O 0.58968 0.68391 0.83022 0.0
O663 O 0.61068 0.64291 0.85079 0.0
O664 O 0.6275 0.61752 0.79891 0.0
O665 O 0.6652 0.6029 0.83169 0.0
O666 O 0.65854 0.59146 0.89364 0.0
O667 O 0.62876 0.54323 0.88687 0.0
O668 O 0.63081 0.5434 0.83302 0.0
O669 O 0.5819 0.56903 0.83086 0.0
O670 O 0.56833 0.60202 0.88136 0.0
O671 O 0.53201 0.61821 0.84835 0.0
H672 H 0.60361 0.64675 0.75484 0.0
H673 H 0.61561 0.6649 0.71146 0.0
H674 H 0.50434 0.67725 0.69843 0.0
H675 H 0.49252 0.65924 0.74199 0.0
H676 H 0.70642 0.54704 0.93239 0.0
H677 H 0.70524 0.51887 0.97384 0.0
H678 H 0.59198 0.52234 0.97318 0.0
H679 H 0.59334 0.55008 0.93154 0.0
Nd680 Nd 0.63222 0.33107 0.07029 0.0
Nd681 Nd 0.67593 0.36964 0.10713 0.0
C682 C 0.60124 0.30365 0.03022 0.0
C683 C 0.59688 0.31297 1.00346 0.0
C684 C 0.60685 0.28888 0.98474 0.0
C685 C 0.60349 0.29751 0.95927 0.0
C686 C 0.59001 0.33037 0.95214 0.0
C687 C 0.5798 0.35438 0.97087 0.0
C688 C 0.58324 0.3458 0.99631 0.0
C689 C 0.5944 0.35611 0.11086 0.0
C690 C 0.6503 0.41372 0.05827 0.0
C691 C 0.7063 0.39843 0.14764 0.0
C692 C 0.72264 0.39325 0.17305 0.0
C693 C 0.70541 0.40479 0.1951 0.0
C694 C 0.72308 0.40584 0.21843 0.0
C695 C 0.75854 0.39584 0.22017 0.0
C696 C 0.77519 0.38273 0.19841 0.0
C697 C 0.75756 0.38145 0.17523 0.0
C698 C 0.71346 0.34953 0.06497 0.0
C699 C 0.65436 0.28519 0.11763 0.0
O700 O 0.63289 0.29488 0.03737 0.0
O701 O 0.58503 0.32339 0.04671 0.0
O702 O 0.59128 0.32481 0.10152 0.0
O703 O 0.61757 0.37353 0.09913 0.0
O704 O 0.64221 0.38252 0.04926 0.0
O705 O 0.66043 0.41744 0.08207 0.0
O706 O 0.67224 0.39594 0.14495 0.0
O707 O 0.72333 0.38708 0.12787 0.0
O708 O 0.7183 0.3786 0.07716 0.0
O709 O 0.69094 0.33028 0.07611 0.0
O710 O 0.66582 0.31538 0.12718 0.0
O711 O 0.64422 0.28318 0.09403 0.0
H712 H 0.6173 0.26339 0.98983 0.0
H713 H 0.61094 0.27831 0.94516 0.0
H714 H 0.56927 0.37986 0.96581 0.0
H715 H 0.57516 0.36484 1.01033 0.0
H716 H 0.67871 0.41449 0.19412 0.0
H717 H 0.7096 0.41623 0.23481 0.0
H718 H 0.80245 0.37463 0.19916 0.0
H719 H 0.77194 0.3726 0.15879 0.0
Nd720 Nd 0.93378 0.38913 0.31973 0.0
Nd721 Nd 0.89202 0.42573 0.35842 0.0
C722 C 0.96038 0.36083 0.27818 0.0
C723 C 0.95164 0.35791 0.25118 0.0
C724 C 0.93517 0.38535 0.23796 0.0
C725 C 0.92557 0.38076 0.21263 0.0
C726 C 0.93181 0.34855 0.20036 0.0
C727 C 0.94861 0.32144 0.21362 0.0
C728 C 0.95842 0.3261 0.23876 0.0
C729 C 0.90802 0.34539 0.35703 0.0
C730 C 0.85297 0.40778 0.30641 0.0
C731 C 0.86081 0.44777 0.40093 0.0
C732 C 0.86478 0.46888 0.42471 0.0
C733 C 0.86353 0.4523 0.44841 0.0
C734 C 0.86371 0.47202 0.47094 0.0
C735 C 0.8649 0.50902 0.47045 0.0
C736 C 0.86646 0.52552 0.44669 0.0
C737 C 0.86634 0.50585 0.42423 0.0
C738 C 0.91258 0.47129 0.32068 0.0
C739 C 0.97772 0.40787 0.36873 0.0
O740 O 0.96987 0.39157 0.28685 0.0
O741 O 0.9395 0.34411 0.29352 0.0
O742 O 0.94009 0.34514 0.34894 0.0
O743 O 0.89029 0.36902 0.34609 0.0
O744 O 0.8853 0.40627 0.29796 0.0
O745 O 0.84697 0.40851 0.33106 0.0
O746 O 0.87712 0.41767 0.3989 0.0
O747 O 0.85943 0.46441 0.37947 0.0
O748 O 0.88364 0.47327 0.33337 0.0
O749 O 0.93227 0.44722 0.32971 0.0
O750 O 0.94664 0.41708 0.37804 0.0
O751 O 0.98105 0.40014 0.34467 0.0
H752 H 0.9294 0.41006 0.24725 0.0
H753 H 0.91265 0.40206 0.20279 0.0
H754 H 0.95422 0.29658 0.2045 0.0
H755 H 0.97101 0.30462 0.24862 0.0
H756 H 0.8619 0.42393 0.44956 0.0
H757 H 0.86315 0.45821 0.48874 0.0
H758 H 0.86708 0.55391 0.44542 0.0
H759 H 0.86683 0.51977 0.40646 0.0
Nd760 Nd 0.87671 0.68789 0.57114 0.0
Nd761 Nd 0.83811 0.64517 0.60841 0.0
C762 C 0.90467 0.71681 0.53026 0.0
C763 C 0.90628 0.70996 0.50291 0.0
C764 C 0.88359 0.68577 0.49129 0.0
C765 C 0.88673 0.67852 0.46546 0.0
C766 C 0.91265 0.69529 0.45085 0.0
C767 C 0.93493 0.71982 0.46259 0.0
C768 C 0.93183 0.72697 0.48837 0.0
C769 C 0.91879 0.66176 0.6094 0.0
C770 C 0.86131 0.60566 0.557 0.0
C771 C 0.81204 0.61422 0.64976 0.0
C772 C 0.79475 0.61935 0.67498 0.0
C773 C 0.80935 0.60423 0.69685 0.0
C774 C 0.79062 0.60372 0.71983 0.0
C775 C 0.75659 0.61797 0.72147 0.0
C776 C 0.74276 0.6346 0.69993 0.0
C777 C 0.76148 0.63528 0.67708 0.0
C778 C 0.79566 0.66448 0.56862 0.0
C779 C 0.85714 0.7302 0.62091 0.0
O780 O 0.87429 0.72612 0.53961 0.0
O781 O 0.92122 0.69443 0.54457 0.0
O782 O 0.92007 0.69369 0.60105 0.0
O783 O 0.89551 0.6443 0.59782 0.0
O784 O 0.86504 0.63793 0.54864 0.0
O785 O 0.85513 0.59976 0.58129 0.0
O786 O 0.84536 0.62154 0.64693 0.0
O787 O 0.79384 0.62153 0.62961 0.0
O788 O 0.79434 0.63482 0.58045 0.0
O789 O 0.81802 0.68503 0.57896 0.0
O790 O 0.84728 0.69882 0.62919 0.0
O791 O 0.86568 0.73458 0.59709 0.0
H792 H 0.86361 0.6724 0.50218 0.0
H793 H 0.86875 0.65997 0.4569 0.0
H794 H 0.95523 0.73304 0.45189 0.0
H795 H 0.94968 0.74559 0.49702 0.0
H796 H 0.83473 0.59145 0.69591 0.0
H797 H 0.80204 0.59061 0.73596 0.0
H798 H 0.71679 0.64617 0.70054 0.0
H799 H 0.74919 0.64718 0.66081 0.0
Nd800 Nd 0.57679 0.38761 0.72611 0.0
Nd801 Nd 0.61593 0.42984 0.6827 0.0
C802 C 0.54175 0.37523 0.76815 0.0
C803 C 0.55018 0.36997 0.79486 0.0
C804 C 0.57979 0.38582 0.80581 0.0
C805 C 0.58736 0.38045 0.83128 0.0
C806 C 0.56562 0.3589 0.84608 0.0
C807 C 0.53606 0.3431 0.83497 0.0
C808 C 0.52843 0.34859 0.80956 0.0
C809 C 0.60914 0.34004 0.69341 0.0
C810 C 0.66049 0.40482 0.73348 0.0
C811 C 0.64281 0.46083 0.64211 0.0
C812 C 0.6424 0.47069 0.61492 0.0
C813 C 0.61084 0.47506 0.60155 0.0
C814 C 0.61075 0.49096 0.57761 0.0
C815 C 0.64215 0.50316 0.56645 0.0
C816 C 0.6738 0.49737 0.57956 0.0
C817 C 0.67388 0.48127 0.60338 0.0
C818 C 0.59749 0.46867 0.7248 0.0
C819 C 0.53367 0.39869 0.67397 0.0
O820 O 0.54713 0.40677 0.75921 0.0
O821 O 0.55171 0.35035 0.75271 0.0
O822 O 0.59176 0.33118 0.71348 0.0
O823 O 0.60941 0.37321 0.69181 0.0
O824 O 0.63014 0.3971 0.74412 0.0
O825 O 0.66305 0.41454 0.7093 0.0
O826 O 0.65246 0.42926 0.64933 0.0
O827 O 0.6188 0.47484 0.65666 0.0
O828 O 0.6258 0.4733 0.7117 0.0
O829 O 0.57886 0.4448 0.71459 0.0
O830 O 0.56216 0.41368 0.6641 0.0
O831 O 0.53208 0.38909 0.6978 0.0
H832 H 0.59694 0.40244 0.79472 0.0
H833 H 0.60995 0.39346 0.83946 0.0
H834 H 0.51899 0.32623 0.84592 0.0
H835 H 0.50557 0.33607 0.80136 0.0
H836 H 0.5861 0.46751 0.61003 0.0
H837 H 0.58585 0.49476 0.56816 0.0
H838 H 0.69842 0.50709 0.57214 0.0
H839 H 0.69852 0.47884 0.61342 0.0
Nd840 Nd 0.87924 0.32919 0.97372 0.0
Nd841 Nd 0.83603 0.37281 0.93253 0.0
C842 C 0.89433 0.29468 1.01571 0.0
C843 C 0.89617 0.30329 0.04278 0.0
C844 C 0.88946 0.33752 0.05149 0.0
C845 C 0.89255 0.34563 0.07715 0.0
C846 C 0.90244 0.31964 0.09457 0.0
C847 C 0.90928 0.28543 0.08568 0.0
C848 C 0.90604 0.27734 0.06005 0.0
C849 C 0.92608 0.36115 0.94061 0.0
C850 C 0.86294 0.41349 0.98369 0.0
C851 C 0.80387 0.40085 0.89272 0.0
C852 C 0.79375 0.40169 0.86551 0.0
C853 C 0.7803 0.433 0.85531 0.0
C854 C 0.76441 0.43351 0.83137 0.0
C855 C 0.76167 0.40269 0.81672 0.0
C856 C 0.77654 0.37159 0.82662 0.0
C857 C 0.79222 0.37106 0.85069 0.0
C858 C 0.7988 0.35236 0.97472 0.0
C859 C 0.86478 0.28997 0.9204 0.0
O860 O 0.86313 0.29468 1.00542 0.0
O861 O 0.91798 0.30954 1.00145 0.0
O862 O 0.93523 0.34144 0.95941 0.0
O863 O 0.89289 0.36311 0.93995 0.0
O864 O 0.87018 0.3822 0.99304 0.0
O865 O 0.85296 0.41811 0.9598 0.0
O866 O 0.83516 0.41107 0.9002 0.0
O867 O 0.79077 0.37565 0.90659 0.0
O868 O 0.79289 0.38099 0.96231 0.0
O869 O 0.82184 0.334 0.96343 0.0
O870 O 0.85168 0.32034 0.91218 0.0
O871 O 0.87432 0.28547 0.94416 0.0
H872 H 0.88213 0.35806 0.03846 0.0
H873 H 0.88717 0.37222 0.08338 0.0
H874 H 0.91787 0.26504 0.09847 0.0
H875 H 0.91174 0.25089 0.05366 0.0
H876 H 0.78045 0.45688 0.86645 0.0
H877 H 0.75255 0.45777 0.82503 0.0
H878 H 0.77516 0.34729 0.81602 0.0
H879 H 0.80198 0.34641 0.85808 0.0
Nd880 Nd 0.93365 0.63052 0.22268 0.0
Nd881 Nd 0.89235 0.58918 0.18495 0.0
C882 C 0.96137 0.65551 0.26491 0.0
C883 C 0.95146 0.65942 0.29184 0.0
C884 C 0.97169 0.64282 0.31046 0.0
C885 C 0.96362 0.64707 0.33603 0.0
C886 C 0.93516 0.66815 0.34357 0.0
C887 C 0.91477 0.68465 0.32495 0.0
C888 C 0.92271 0.68023 0.29935 0.0
C889 C 0.90794 0.67096 0.18353 0.0
C890 C 0.84968 0.61661 0.23391 0.0
C891 C 0.86269 0.55839 0.14479 0.0
C892 C 0.86736 0.54202 0.11919 0.0
C893 C 0.85556 0.55921 0.09726 0.0
C894 C 0.85581 0.54209 0.07364 0.0
C895 C 0.86758 0.50709 0.07125 0.0
C896 C 0.87982 0.4902 0.09319 0.0
C897 C 0.87967 0.50728 0.11669 0.0
C898 C 0.91285 0.55034 0.22643 0.0
C899 C 0.9768 0.61052 0.17324 0.0
O900 O 0.96698 0.62355 0.25671 0.0
O901 O 0.94487 0.67501 0.24847 0.0
O902 O 0.93915 0.6742 0.19309 0.0
O903 O 0.89077 0.64714 0.19479 0.0
O904 O 0.88111 0.62305 0.24316 0.0
O905 O 0.84543 0.60662 0.21013 0.0
O906 O 0.86479 0.59252 0.14756 0.0
O907 O 0.87497 0.54155 0.16431 0.0
O908 O 0.88245 0.54821 0.21564 0.0
O909 O 0.93226 0.57224 0.21486 0.0
O910 O 0.94564 0.60082 0.16433 0.0
O911 O 0.98057 0.61909 0.19714 0.0
H912 H 0.9941 0.62684 0.30523 0.0
H913 H 0.98019 0.63453 0.34994 0.0
H914 H 0.89265 0.701 0.33022 0.0
H915 H 0.90651 0.69337 0.28551 0.0
H916 H 0.84543 0.58575 0.09843 0.0
H917 H 0.84679 0.55635 0.05725 0.0
H918 H 0.88875 0.4632 0.09237 0.0
H919 H 0.8884 0.49275 0.13305 0.0
Nd920 Nd 0.63437 0.69078 0.47659 0.0
Nd921 Nd 0.6754 0.64741 0.4342 0.0
C922 C 0.62383 0.72468 0.51956 0.0
C923 C 0.61311 0.71698 0.54588 0.0
C924 C 0.63865 0.70881 0.56409 0.0
C925 C 0.62904 0.70221 0.58903 0.0
C926 C 0.59369 0.70386 0.59651 0.0
C927 C 0.56807 0.71216 0.57839 0.0
C928 C 0.5777 0.7188 0.55335 0.0
C929 C 0.58602 0.65834 0.44459 0.0
C930 C 0.64628 0.60549 0.48421 0.0
C931 C 0.70478 0.61863 0.39337 0.0
C932 C 0.72028 0.62427 0.36771 0.0
C933 C 0.70436 0.60992 0.34605 0.0
C934 C 0.72143 0.61091 0.32246 0.0
C935 C 0.75494 0.62623 0.31988 0.0
C936 C 0.77065 0.64068 0.34158 0.0
C937 C 0.7536 0.63989 0.365 0.0
C938 C 0.71437 0.66794 0.47559 0.0
C939 C 0.6517 0.73201 0.42443 0.0
O940 O 0.65439 0.71247 0.5124 0.0
O941 O 0.6 0.72255 0.5018 0.0
O942 O 0.57748 0.67741 0.46402 0.0
O943 O 0.61916 0.65675 0.44335 0.0
O944 O 0.64022 0.63656 0.49451 0.0
O945 O 0.65609 0.60177 0.46019 0.0
O946 O 0.67065 0.61975 0.39679 0.0
O947 O 0.72215 0.63115 0.41263 0.0
O948 O 0.71774 0.63804 0.46413 0.0
O949 O 0.69121 0.68647 0.46457 0.0
O950 O 0.66511 0.70212 0.41548 0.0
O951 O 0.64064 0.73501 0.44794 0.0
H952 H 0.66623 0.70763 0.55913 0.0
H953 H 0.64941 0.69617 0.60259 0.0
H954 H 0.54055 0.71309 0.58348 0.0
H955 H 0.55739 0.7253 0.53986 0.0
H956 H 0.67908 0.59705 0.34747 0.0
H957 H 0.70851 0.59936 0.30627 0.0
H958 H 0.79687 0.65162 0.34074 0.0
H959 H 0.76726 0.65055 0.38119 0.0
Nd960 Nd 0.39419 0.42616 0.18261 0.0
Nd961 Nd 0.43238 0.37616 0.22653 0.0
C962 C 0.36209 0.44722 0.14042 0.0
C963 C 0.36542 0.46692 0.11604 0.0
C964 C 0.36157 0.44906 0.09288 0.0
C965 C 0.36048 0.46746 0.06986 0.0
C966 C 0.36307 0.50436 0.06928 0.0
C967 C 0.36781 0.52208 0.09244 0.0
C968 C 0.36892 0.50372 0.11542 0.0
C969 C 0.42092 0.46557 0.22308 0.0
C970 C 0.47733 0.39808 0.17555 0.0
C971 C 0.46718 0.35681 0.26718 0.0
C972 C 0.46154 0.35573 0.29465 0.0
C973 C 0.48752 0.36869 0.3109 0.0
C974 C 0.48335 0.3662 0.33702 0.0
C975 C 0.45322 0.3504 0.34729 0.0
C976 C 0.42678 0.33836 0.33097 0.0
C977 C 0.43086 0.34099 0.3049 0.0
C978 C 0.40008 0.33544 0.18974 0.0
C979 C 0.34984 0.39836 0.23363 0.0
O980 O 0.37834 0.41711 0.14263 0.0
O981 O 0.36121 0.46477 0.16169 0.0
O982 O 0.4066 0.47957 0.2032 0.0
O983 O 0.42272 0.43292 0.21893 0.0
O984 O 0.4505 0.41659 0.1663 0.0
O985 O 0.4766 0.38248 0.19784 0.0
O986 O 0.47112 0.38782 0.25682 0.0
O987 O 0.44808 0.33533 0.2536 0.0
O988 O 0.41631 0.32264 0.2092 0.0
O989 O 0.40144 0.3687 0.19096 0.0
O990 O 0.37925 0.38706 0.244 0.0
O991 O 0.34787 0.41097 0.21008 0.0
H992 H 0.35831 0.42079 0.09263 0.0
H993 H 0.35625 0.45283 0.05261 0.0
H994 H 0.37022 0.55043 0.09285 0.0
H995 H 0.37174 0.51853 0.13274 0.0
H996 H 0.51123 0.38041 0.30338 0.0
H997 H 0.50377 0.37647 0.34917 0.0
H998 H 0.40326 0.32612 0.33836 0.0
H999 H 0.41015 0.33115 0.29282 0.0
Nd1000 Nd 0.33674 0.64371 0.93133 0.0
Nd1001 Nd 0.37579 0.68329 0.97634 0.0
C1002 C 0.30802 0.61785 0.88955 0.0
C1003 C 0.29767 0.61686 0.86238 0.0
C1004 C 0.29782 0.58469 0.84931 0.0
C1005 C 0.28105 0.58127 0.82581 0.0
C1006 C 0.2634 0.60994 0.81477 0.0
C1007 C 0.26518 0.64268 0.82716 0.0
C1008 C 0.28196 0.64608 0.85065 0.0
C1009 C 0.29467 0.6597 0.97217 0.0
C1010 C 0.36227 0.72795 0.9252 0.0
C1011 C 0.38788 0.71471 1.02003 0.0
C1012 C 0.40304 0.70518 0.04457 0.0
C1013 C 0.41083 0.67004 0.05034 0.0
C1014 C 0.42249 0.66093 0.07447 0.0
C1015 C 0.4267 0.68683 0.09318 0.0
C1016 C 0.41921 0.72203 0.08716 0.0
C1017 C 0.40755 0.7311 0.06305 0.0
C1018 C 0.4254 0.6518 0.94424 0.0
C1019 C 0.3573 0.59953 0.983 0.0
O1020 O 0.33898 0.60742 0.89755 0.0
O1021 O 0.29361 0.64188 0.90387 0.0
O1022 O 0.29122 0.63285 0.95744 0.0
O1023 O 0.31881 0.6798 0.96368 0.0
O1024 O 0.35258 0.69805 0.91414 0.0
O1025 O 0.36812 0.72974 0.9497 0.0
O1026 O 0.35833 0.6991 1.01439 0.0
O1027 O 0.40945 0.7167 1.00086 0.0
O1028 O 0.43325 0.66859 0.96481 0.0
O1029 O 0.39237 0.65125 0.94237 0.0
O1030 O 0.36474 0.62995 0.99357 0.0
O1031 O 0.35036 0.59639 0.95836 0.0
H1032 H 0.30944 0.56163 0.85786 0.0
H1033 H 0.28098 0.55583 0.81664 0.0
H1034 H 0.25194 0.66535 0.81933 0.0
H1035 H 0.28112 0.67125 0.8602 0.0
H1036 H 0.40727 0.64961 0.03632 0.0
H1037 H 0.42799 0.63361 0.07858 0.0
H1038 H 0.42133 0.74246 0.10131 0.0
H1039 H 0.40125 0.75827 0.05901 0.0
Nd1040 Nd 0.11544 0.58236 0.68183 0.0
Nd1041 Nd 0.08152 0.63524 0.72494 0.0
C1042 C 0.14476 0.55186 0.64184 0.0
C1043 C 0.14504 0.54249 0.61447 0.0
C1044 C 0.17689 0.54295 0.60108 0.0
C1045 C 0.1797 0.52692 0.57726 0.0
C1046 C 0.15076 0.5097 0.56622 0.0
C1047 C 0.11831 0.51121 0.57893 0.0
C1048 C 0.11549 0.52729 0.60275 0.0
C1049 C 0.09202 0.54471 0.72422 0.0
C1050 C 0.03478 0.61638 0.67432 0.0
C1051 C 0.04991 0.66212 0.76481 0.0
C1052 C 0.05526 0.66313 0.7922 0.0
C1053 C 0.08934 0.66392 0.80231 0.0
C1054 C 0.0943 0.6663 0.82828 0.0
C1055 C 0.06529 0.66816 0.84456 0.0
C1056 C 0.03122 0.66757 0.83446 0.0
C1057 C 0.02625 0.66491 0.80841 0.0
C1058 C 0.11244 0.67379 0.6864 0.0
C1059 C 0.16191 0.60515 0.73263 0.0
O1060 O 0.15452 0.5831 0.64984 0.0
O1061 O 0.12021 0.5377 0.65575 0.0
O1062 O 0.10582 0.53067 0.70429 0.0
O1063 O 0.08965 0.57736 0.71993 0.0
O1064 O 0.06172 0.59892 0.66431 0.0
O1065 O 0.03529 0.62932 0.69753 0.0
O1066 O 0.04033 0.63209 0.75472 0.0
O1067 O 0.07358 0.67878 0.75154 0.0
O1068 O 0.09835 0.68734 0.70638 0.0
O1069 O 0.11036 0.64062 0.68796 0.0
O1070 O 0.13342 0.6188 0.74308 0.0
O1071 O 0.163 0.59312 0.70892 0.0
H1072 H 0.20018 0.55417 0.60961 0.0
H1073 H 0.20493 0.527 0.56784 0.0
H1074 H 0.09546 0.49825 0.57111 0.0
H1075 H 0.09053 0.52622 0.61251 0.0
H1076 H 0.11216 0.66262 0.79013 0.0
H1077 H 0.12081 0.66724 0.83564 0.0
H1078 H 0.00852 0.66912 0.84671 0.0
H1079 H 0.9998 0.66463 0.80091 0.0
Nd1080 Nd 0.17416 0.37002 0.4292 0.0
Nd1081 Nd 0.12999 0.32818 0.47447 0.0
C1082 C 0.19108 0.40431 0.38706 0.0
C1083 C 0.2126 0.40238 0.36362 0.0
C1084 C 0.19845 0.41478 0.34082 0.0
C1085 C 0.21806 0.41367 0.31837 0.0
C1086 C 0.25231 0.39983 0.31809 0.0
C1087 C 0.26658 0.38779 0.34107 0.0
C1088 C 0.24696 0.38894 0.36352 0.0
C1089 C 0.21858 0.34314 0.4668 0.0
C1090 C 0.14704 0.28612 0.42103 0.0
C1091 C 0.11262 0.29509 0.51638 0.0
C1092 C 0.11684 0.30046 0.54366 0.0
C1093 C 0.13685 0.32852 0.55314 0.0
C1094 C 0.13599 0.33666 0.5789 0.0
C1095 C 0.11485 0.31704 0.59549 0.0
C1096 C 0.09612 0.28807 0.58597 0.0
C1097 C 0.09705 0.27994 0.56029 0.0
C1098 C 0.08546 0.36283 0.44071 0.0
C1099 C 0.15439 0.41005 0.48256 0.0
O1100 O 0.16457 0.38268 0.38887 0.0
O1101 O 0.20707 0.40906 0.40866 0.0
O1102 O 0.22943 0.35941 0.44669 0.0
O1103 O 0.18588 0.33895 0.46401 0.0
O1104 O 0.16268 0.31478 0.41185 0.0
O1105 O 0.13467 0.28421 0.44446 0.0
O1106 O 0.14069 0.28708 0.50321 0.0
O1107 O 0.09245 0.31812 0.50523 0.0
O1108 O 0.07445 0.34493 0.45995 0.0
O1109 O 0.11856 0.36168 0.44083 0.0
O1110 O 0.14888 0.37904 0.49304 0.0
O1111 O 0.15834 0.41434 0.45774 0.0
H1112 H 0.17206 0.42538 0.34036 0.0
H1113 H 0.2062 0.42315 0.30114 0.0
H1114 H 0.29316 0.37772 0.34176 0.0
H1115 H 0.2587 0.37937 0.38077 0.0
H1116 H 0.15216 0.34481 0.54053 0.0
H1117 H 0.15124 0.35871 0.58574 0.0
H1118 H 0.07949 0.27257 0.59823 0.0
H1119 H 0.08116 0.25843 0.55327 0.0
Nd1120 Nd 0.39571 0.58371 0.35969 0.0
Nd1121 Nd 0.43727 0.62857 0.31901 0.0
C1122 C 0.36787 0.55032 0.39892 0.0
C1123 C 0.36741 0.54053 0.42606 0.0
C1124 C 0.39748 0.54295 0.44131 0.0
C1125 C 0.398 0.52757 0.46543 0.0
C1126 C 0.36869 0.50884 0.4747 0.0
C1127 C 0.33812 0.50813 0.4598 0.0
C1128 C 0.33753 0.52375 0.43585 0.0
C1129 C 0.4152 0.54736 0.31661 0.0
C1130 C 0.47685 0.61478 0.37248 0.0
C1131 C 0.47292 0.64614 0.27803 0.0
C1132 C 0.46743 0.64564 0.25055 0.0
C1133 C 0.49642 0.64693 0.23431 0.0
C1134 C 0.49154 0.65047 0.20829 0.0
C1135 C 0.45754 0.6532 0.19811 0.0
C1136 C 0.42852 0.65024 0.2144 0.0
C1137 C 0.43342 0.64644 0.24037 0.0
C1138 C 0.4051 0.67426 0.35305 0.0
C1139 C 0.35386 0.60969 0.30953 0.0
O1140 O 0.35695 0.5814 0.39158 0.0
O1141 O 0.39367 0.538 0.38518 0.0
O1142 O 0.38712 0.54116 0.32959 0.0
O1143 O 0.43381 0.57044 0.32774 0.0
O1144 O 0.44725 0.59989 0.3804 0.0
O1145 O 0.48089 0.62528 0.34889 0.0
O1146 O 0.4768 0.61588 0.28934 0.0
O1147 O 0.45304 0.66789 0.29068 0.0
O1148 O 0.42385 0.68417 0.33396 0.0
O1149 O 0.4038 0.64102 0.35328 0.0
O1150 O 0.38492 0.61621 0.29944 0.0
O1151 O 0.34988 0.60148 0.33373 0.0
H1152 H 0.42094 0.55562 0.43423 0.0
H1153 H 0.42174 0.52959 0.47655 0.0
H1154 H 0.3151 0.49392 0.4661 0.0
H1155 H 0.31411 0.52116 0.42441 0.0
H1156 H 0.52286 0.64607 0.2418 0.0
H1157 H 0.51441 0.65161 0.19619 0.0
H1158 H 0.402 0.65215 0.20717 0.0
H1159 H 0.41064 0.64528 0.25258 0.0
Nd1160 Nd 0.17773 0.64207 0.11058 0.0
Nd1161 Nd 0.13532 0.68314 0.06903 0.0
C1162 C 0.21159 0.61377 0.14941 0.0
C1163 C 0.22745 0.61411 0.17507 0.0
C1164 C 0.20868 0.62212 0.19722 0.0
C1165 C 0.22543 0.62058 0.22096 0.0
C1166 C 0.26099 0.61049 0.22294 0.0
C1167 C 0.27956 0.60318 0.20065 0.0
C1168 C 0.26304 0.60489 0.17717 0.0
C1169 C 0.21526 0.65874 0.06766 0.0
C1170 C 0.15081 0.72549 0.12083 0.0
C1171 C 0.12241 0.71752 0.02685 0.0
C1172 C 0.11286 0.70864 1.00058 0.0
C1173 C 0.13902 0.69993 0.98293 0.0
C1174 C 0.13007 0.69162 0.95814 0.0
C1175 C 0.09479 0.69173 0.95046 0.0
C1176 C 0.06865 0.70089 0.96796 0.0
C1177 C 0.0776 0.70932 0.99279 0.0
C1178 C 0.08772 0.65218 0.10223 0.0
C1179 C 0.14631 0.59831 0.06139 0.0
O1180 O 0.1777 0.60961 0.14591 0.0
O1181 O 0.22646 0.63326 0.13221 0.0
O1182 O 0.21825 0.62984 0.08024 0.0
O1183 O 0.19322 0.67899 0.07853 0.0
O1184 O 0.1654 0.6964 0.13008 0.0
O1185 O 0.14013 0.72768 0.09728 0.0
O1186 O 0.15397 0.70867 0.03419 0.0
O1187 O 0.09861 0.71232 0.04424 0.0
O1188 O 0.07882 0.67013 0.08244 0.0
O1189 O 0.12088 0.65042 0.10321 0.0
O1190 O 0.14061 0.62923 0.05096 0.0
O1191 O 0.15729 0.59525 0.08526 0.0
H1192 H 0.18123 0.62938 0.19622 0.0
H1193 H 0.21046 0.62662 0.23778 0.0
H1194 H 0.30712 0.59619 0.20134 0.0
H1195 H 0.27823 0.59864 0.16047 0.0
H1196 H 0.16651 0.69968 0.98817 0.0
H1197 H 0.15086 0.68567 0.94487 0.0
H1198 H 0.04126 0.70136 0.96247 0.0
H1199 H 0.0569 0.71635 1.00586 0.0
Nd1200 Nd 0.12209 0.42598 0.85922 0.0
Nd1201 Nd 0.07811 0.38196 0.81846 0.0
C1202 C 0.15 0.4568 0.89991 0.0
C1203 C 0.14515 0.47161 0.92599 0.0
C1204 C 0.1465 0.45096 0.94804 0.0
C1205 C 0.14479 0.46672 0.97223 0.0
C1206 C 0.14188 0.50353 0.97498 0.0
C1207 C 0.14073 0.52385 0.95283 0.0
C1208 C 0.14239 0.50825 0.92892 0.0
C1209 C 0.10081 0.46257 0.81706 0.0
C1210 C 0.03764 0.40129 0.87033 0.0
C1211 C 0.04571 0.36721 0.77568 0.0
C1212 C 0.05822 0.36127 0.74971 0.0
C1213 C 0.03736 0.37153 0.72926 0.0
C1214 C 0.04926 0.36661 0.70455 0.0
C1215 C 0.0823 0.35139 0.69987 0.0
C1216 C 0.10328 0.34137 0.72041 0.0
C1217 C 0.09144 0.34647 0.74512 0.0
C1218 C 0.11033 0.33588 0.85205 0.0
C1219 C 0.16278 0.39655 0.80879 0.0
O1220 O 0.15167 0.42278 0.89592 0.0
O1221 O 0.13486 0.47353 0.88137 0.0
O1222 O 0.12984 0.46855 0.82904 0.0
O1223 O 0.08269 0.43953 0.82857 0.0
O1224 O 0.06763 0.41555 0.87834 0.0
O1225 O 0.03395 0.38882 0.84721 0.0
O1226 O 0.04925 0.39918 0.78431 0.0
O1227 O 0.05403 0.34334 0.79235 0.0
O1228 O 0.09095 0.32608 0.83318 0.0
O1229 O 0.11224 0.3691 0.85208 0.0
O1230 O 0.13143 0.38942 0.79948 0.0
O1231 O 0.16745 0.4073 0.83254 0.0
H1232 H 0.14916 0.42271 0.94664 0.0
H1233 H 0.14542 0.45005 0.98873 0.0
H1234 H 0.13911 0.55223 0.95394 0.0
H1235 H 0.14218 0.52518 0.91256 0.0
H1236 H 0.01179 0.38322 0.73242 0.0
H1237 H 0.03231 0.37406 0.68907 0.0
H1238 H 0.12887 0.32968 0.71733 0.0
H1239 H 0.1082 0.33876 0.76063 0.0
Nd1240 Nd 0.33397 0.36614 0.60575 0.0
Nd1241 Nd 0.37823 0.32611 0.57055 0.0
C1242 C 0.29844 0.39384 0.64455 0.0
C1243 C 0.28418 0.38991 0.67079 0.0
C1244 C 0.30387 0.39907 0.69234 0.0
C1245 C 0.28847 0.39881 0.71657 0.0
C1246 C 0.25286 0.38968 0.71991 0.0
C1247 C 0.23345 0.38029 0.69831 0.0
C1248 C 0.24877 0.38048 0.67426 0.0
C1249 C 0.29857 0.34772 0.56185 0.0
C1250 C 0.35543 0.2823 0.6183 0.0
C1251 C 0.40803 0.29668 0.53052 0.0
C1252 C 0.4165 0.30622 0.50444 0.0
C1253 C 0.40964 0.34008 0.49534 0.0
C1254 C 0.41727 0.34867 0.47035 0.0
C1255 C 0.43203 0.32349 0.45409 0.0
C1256 C 0.43878 0.28953 0.4633 0.0
C1257 C 0.43115 0.28102 0.48831 0.0
C1258 C 0.41571 0.35098 0.6115 0.0
C1259 C 0.36566 0.41068 0.55926 0.0
O1260 O 0.33203 0.39916 0.64083 0.0
O1261 O 0.28427 0.37494 0.62667 0.0
O1262 O 0.29608 0.37785 0.57302 0.0
O1263 O 0.31898 0.32751 0.57416 0.0
O1264 O 0.34708 0.31375 0.62739 0.0
O1265 O 0.3633 0.27872 0.59436 0.0
O1266 O 0.37468 0.2937 0.53587 0.0
O1267 O 0.4256 0.31301 0.54811 0.0
O1268 O 0.41863 0.31952 0.60227 0.0
O1269 O 0.39296 0.36854 0.5994 0.0
O1270 O 0.37551 0.37961 0.55087 0.0
O1271 O 0.35097 0.41422 0.58178 0.0
H1272 H 0.33106 0.40696 0.69047 0.0
H1273 H 0.30453 0.40567 0.73266 0.0
H1274 H 0.20591 0.37355 0.69988 0.0
H1275 H 0.23242 0.37402 0.65821 0.0
H1276 H 0.39825 0.3598 0.5075 0.0
H1277 H 0.41172 0.37501 0.46374 0.0
H1278 H 0.44933 0.26933 0.45104 0.0
H1279 H 0.43639 0.25466 0.495 0.0
C1280 C 0.21951 0.11558 0.28828 0.0
C1281 C 0.18327 0.10959 0.28462 0.0
C1282 C 0.24308 0.11811 0.26749 0.0
C1283 C 0.23126 0.1149 0.2423 0.0
H1284 H 0.22955 0.11943 0.30717 0.0
H1285 H 0.27052 0.12358 0.27112 0.0
S1286 S 0.14038 0.09406 0.22225 0.0
N1287 N 0.13805 0.09685 0.25321 0.0
N1288 N 0.1818 0.10195 0.21523 0.0
C1289 C 0.19562 0.10732 0.23857 0.0
C1290 C 0.17187 0.10457 0.25937 0.0
C1291 C 0.13569 0.9928 0.51836 0.0
C1292 C 0.15829 0.98902 0.49737 0.0
C1293 C 0.13658 0.96895 0.53882 0.0
C1294 C 0.15977 0.94012 0.5389 0.0
H1295 H 0.11662 0.0139 0.51872 0.0
H1296 H 0.11773 0.97201 0.55395 0.0
S1297 S 0.22438 0.91816 0.48896 0.0
N1298 N 0.20492 0.95407 0.47857 0.0
N1299 N 0.20622 0.90963 0.51651 0.0
C1300 C 0.18299 0.93663 0.51841 0.0
C1301 C 0.18239 0.96093 0.49783 0.0
C1302 C 0.34409 0.90935 0.75742 0.0
C1303 C 0.33254 0.90785 0.78272 0.0
C1304 C 0.32062 0.90852 0.73701 0.0
C1305 C 0.2841 0.90645 0.74066 0.0
H1306 H 0.37182 0.91105 0.75313 0.0
H1307 H 0.33131 0.90965 0.71811 0.0
S1308 S 0.23942 0.90284 0.80294 0.0
N1309 N 0.28157 0.90504 0.81014 0.0
N1310 N 0.2373 0.90352 0.77185 0.0
C1311 C 0.27188 0.90591 0.76585 0.0
C1312 C 0.29602 0.90665 0.78678 0.0
C1313 C 0.33337 0.03236 1.00707 0.0
C1314 C 0.36419 0.0276 0.99255 0.0
C1315 C 0.33303 0.05369 0.02896 0.0
C1316 C 0.36347 0.07129 0.03717 0.0
H1317 H 0.30909 0.02 1.00119 0.0
H1318 H 0.30839 0.0579 0.03872 0.0
S1319 S 0.45097 0.06767 1.0065 0.0
N1320 N 0.42602 0.04245 0.98859 0.0
N1321 N 0.42534 0.08182 0.02948 0.0
C1322 C 0.39453 0.066 0.02327 0.0
C1323 C 0.39495 0.04435 1.00113 0.0
C1324 C 0.20043 0.90455 0.30189 0.0
C1325 C 0.23613 0.89696 0.29829 0.0
C1326 C 0.17729 0.90774 0.28153 0.0
C1327 C 0.18832 0.90303 0.25628 0.0
H1328 H 0.19012 0.90793 0.32078 0.0
H1329 H 0.15013 0.91357 0.28591 0.0
S1330 S 0.27976 0.88373 0.23643 0.0
N1331 N 0.28213 0.88601 0.26751 0.0
N1332 N 0.23827 0.8913 0.22901 0.0
C1333 C 0.22429 0.8963 0.25226 0.0
C1334 C 0.24819 0.8934 0.27326 0.0
C1335 C 0.39507 0.93903 0.52274 0.0
C1336 C 0.36771 0.93904 0.50482 0.0
C1337 C 0.39519 0.96208 0.54351 0.0
C1338 C 0.36768 0.98616 0.54775 0.0
H1339 H 0.41616 0.92003 0.52119 0.0
H1340 H 0.41632 0.9597 0.55705 0.0
S1341 S 0.29038 0.99823 0.50577 0.0
N1342 N 0.31292 0.96628 0.49218 0.0
N1343 N 0.31302 0.00981 0.53102 0.0
C1344 C 0.34067 0.98737 0.52944 0.0
C1345 C 0.34076 0.96393 0.50806 0.0
C1346 C 0.30131 0.13539 0.79514 0.0
C1347 C 0.2794 0.10643 0.80013 0.0
C1348 C 0.32353 0.13614 0.77399 0.0
C1349 C 0.32499 0.10807 0.75664 0.0
H1350 H 0.30156 0.1577 0.80785 0.0
H1351 H 0.34031 0.15882 0.77145 0.0
S1352 S 0.27381 0.02546 0.76097 0.0
N1353 N 0.26094 0.04852 0.78574 0.0
N1354 N 0.30264 0.05024 0.74597 0.0
C1355 C 0.30271 0.07924 0.76093 0.0
C1356 C 0.28001 0.07835 0.78263 0.0
C1357 C 0.17544 0.02967 0.03222 0.0
C1358 C 0.1447 0.02465 0.04678 0.0
C1359 C 0.17593 0.05237 1.01113 0.0
C1360 C 0.14568 0.0709 1.00369 0.0
H1361 H 0.1998 0.01732 0.03788 0.0
H1362 H 0.20061 0.05702 1.00154 0.0
S1363 S 0.05748 0.06386 0.03291 0.0
N1364 N 0.08231 0.03756 0.05004 0.0
N1365 N 0.08364 0.08062 1.01124 0.0
C1366 C 0.11451 0.06478 1.01722 0.0
C1367 C 0.11389 0.04161 0.03848 0.0
C1368 C 0.81603 0.86758 0.76464 0.0
C1369 C 0.81641 0.89667 0.74832 0.0
C1370 C 0.79371 0.86621 0.7857 0.0
C1371 C 0.77103 0.89424 0.79191 0.0
H1372 H 0.8345 0.84626 0.7618 0.0
H1373 H 0.79542 0.84348 0.79788 0.0
S1374 S 0.75981 0.97542 0.75389 0.0
N1375 N 0.7901 0.95294 0.73846 0.0
N1376 N 0.74874 0.95118 0.77845 0.0
C1377 C 0.76954 0.92265 0.7748 0.0
C1378 C 0.7921 0.9237 0.75299 0.0
C1379 C 0.89177 0.07102 0.51774 0.0
C1380 C 0.8639 0.07309 0.50036 0.0
C1381 C 0.89127 0.04724 0.53795 0.0
C1382 C 0.86259 0.02458 0.54205 0.0
H1383 H 0.91368 0.08907 0.51631 0.0
H1384 H 0.91281 0.04808 0.55125 0.0
S1385 S 0.78347 0.01833 0.5012 0.0
N1386 N 0.80734 0.04948 0.48795 0.0
N1387 N 0.80625 1.00447 0.52575 0.0
C1388 C 0.83506 0.02538 0.52416 0.0
C1389 C 0.83579 0.04956 0.50337 0.0
C1390 C 0.71982 0.1303 0.25313 0.0
C1391 C 0.69431 0.10366 0.25142 0.0
C1392 C 0.7426 0.13254 0.27411 0.0
C1393 C 0.74088 0.1081 0.29408 0.0
H1394 H 0.72075 0.15074 0.23898 0.0
H1395 H 0.76101 0.15418 0.27506 0.0
S1396 S 0.67866 0.03311 0.29818 0.0
N1397 N 0.66901 0.05215 0.27114 0.0
N1398 N 0.71147 0.05603 0.3102 0.0
C1399 C 0.71622 0.08063 0.29197 0.0
C1400 C 0.69303 0.07856 0.2708 0.0
C1401 C 0.65717 0.92718 0.03044 0.0
C1402 C 0.65111 0.93741 1.00519 0.0
C1403 C 0.65358 0.95053 0.05072 0.0
C1404 C 0.64415 0.98582 0.0471 0.0
H1405 H 0.66444 0.9004 0.03487 0.0
H1406 H 0.65824 0.94067 0.06957 0.0
S1407 S 0.62738 0.02759 0.98502 0.0
N1408 N 0.63655 0.98631 0.97778 0.0
N1409 N 0.63037 0.03066 1.01604 0.0
C1410 C 0.63944 0.9972 0.02196 0.0
C1411 C 0.64283 0.97301 1.00105 0.0
C1412 C 0.82029 0.15041 0.77695 0.0
C1413 C 0.81792 0.12343 0.79502 0.0
C1414 C 0.79812 0.15153 0.75582 0.0
C1415 C 0.77257 0.12545 0.75136 0.0
H1416 H 0.84079 0.17005 0.77848 0.0
H1417 H 0.80208 0.1724 0.74227 0.0
S1418 S 0.75323 0.05079 0.79426 0.0
N1419 N 0.78601 0.07153 0.8082 0.0
N1420 N 0.74448 0.0731 0.76832 0.0
C1421 C 0.7683 0.0995 0.77018 0.0
C1422 C 0.79092 0.0986 0.79197 0.0
C1423 C 0.63766 0.04717 0.53948 0.0
C1424 C 0.65824 0.07793 0.53885 0.0
C1425 C 0.63515 0.02472 0.51814 0.0
C1426 C 0.65295 0.03234 0.49537 0.0
H1427 H 0.622 0.0414 0.556 0.0
H1428 H 0.618 1.00208 0.51913 0.0
S1429 S 0.71401 0.10693 0.48527 0.0
N1430 N 0.6992 0.11269 0.5142 0.0
N1431 N 0.69499 0.07077 0.47491 0.0
C1432 C 0.67513 0.06185 0.49521 0.0
C1433 C 0.67761 0.0845 0.51668 0.0
C1434 C 0.73088 0.92097 0.26352 0.0
C1435 C 0.73508 0.88955 0.24957 0.0
C1436 C 0.70855 0.92269 0.28477 0.0
C1437 C 0.68966 0.89302 0.29291 0.0
H1438 H 0.74336 0.94493 0.25715 0.0
H1439 H 0.70423 0.94788 0.29379 0.0
S1440 S 0.69488 0.8035 0.26542 0.0
N1441 N 0.7213 0.82722 0.2476 0.0
N1442 N 0.67896 0.83077 0.28679 0.0
C1443 C 0.69524 0.86113 0.28008 0.0
C1444 C 0.718 0.85929 0.25866 0.0
C1445 C 0.8356 0.98938 1.01612 0.0
C1446 C 0.86756 0.99464 1.00305 0.0
C1447 C 0.8335 0.96694 0.03728 0.0
C1448 C 0.86329 0.94907 0.04629 0.0
H1449 H 0.81159 1.00101 1.00908 0.0
H1450 H 0.80803 0.96179 0.04556 0.0
S1451 S 0.95384 0.95686 1.02127 0.0
N1452 N 0.93034 0.98277 1.00292 0.0
N1453 N 0.92596 0.94005 0.0418 0.0
C1454 C 0.89557 0.95562 0.03436 0.0
C1455 C 0.89784 0.97853 1.01305 0.0
C1456 C 0.72095 0.62184 0.78978 0.0
C1457 C 0.68694 0.60757 0.78723 0.0
C1458 C 0.74405 0.62428 0.76877 0.0
C1459 C 0.73389 0.61276 0.74446 0.0
H1460 H 0.72917 0.63258 0.80774 0.0
H1461 H 0.76948 0.63648 0.77136 0.0
S1462 S 0.6499 0.56865 0.72854 0.0
N1463 N 0.6462 0.57835 0.75873 0.0
N1464 N 0.689 0.58304 0.72005 0.0
C1465 C 0.70082 0.59675 0.74217 0.0
C1466 C 0.67761 0.59413 0.76328 0.0
C1467 C 0.62522 0.46513 0.99952 0.0
C1468 C 0.6474 0.49468 0.99978 0.0
C1469 C 0.62557 0.4404 1.01907 0.0
C1470 C 0.64794 0.4438 0.04013 0.0
H1471 H 0.60825 0.46021 0.98352 0.0
H1472 H 0.60849 0.41784 1.01731 0.0
S1473 S 0.70919 0.51793 0.05138 0.0
N1474 N 0.69102 0.52717 0.02389 0.0
N1475 N 0.69159 0.48045 0.06069 0.0
C1476 C 0.66931 0.47394 0.04128 0.0
C1477 C 0.66918 0.49924 1.02111 0.0
C1478 C 0.77142 0.38618 0.26682 0.0
C1479 C 0.77959 0.40235 0.2436 0.0
C1480 C 0.79378 0.3897 0.28806 0.0
C1481 C 0.82485 0.40976 0.28677 0.0
H1482 H 0.7485 0.36948 0.26824 0.0
H1483 H 0.7877 0.37519 0.30505 0.0
S1484 S 0.855 0.4616 0.23152 0.0
N1485 N 0.81887 0.44202 0.22165 0.0
N1486 N 0.86018 0.44903 0.26101 0.0
C1487 C 0.8318 0.42777 0.26409 0.0
C1488 C 0.80942 0.42398 0.24268 0.0
C1489 C 0.88785 0.5821 0.51731 0.0
C1490 C 0.86446 0.57709 0.53763 0.0
C1491 C 0.88835 0.55953 0.49632 0.0
C1492 C 0.86528 0.53075 0.49431 0.0
H1493 H 0.90559 0.60436 0.51733 0.0
H1494 H 0.90679 0.56508 0.48129 0.0
S1495 S 0.79805 0.50619 0.54201 0.0
N1496 N 0.81749 0.541 0.55438 0.0
N1497 N 0.81792 0.49869 0.51483 0.0
C1498 C 0.84215 0.52486 0.51477 0.0
C1499 C 0.84185 0.54793 0.53638 0.0
C1500 C 0.69253 0.37453 0.7683 0.0
C1501 C 0.69158 0.40223 0.75069 0.0
C1502 C 0.7162 0.3743 0.78864 0.0
C1503 C 0.74007 0.40201 0.79276 0.0
H1504 H 0.67367 0.3533 0.76695 0.0
H1505 H 0.7144 0.35292 0.80201 0.0
S1506 S 0.74992 0.48016 0.75129 0.0
N1507 N 0.71784 0.45748 0.73805 0.0
N1508 N 0.76255 0.45724 0.77611 0.0
C1509 C 0.74041 0.42935 0.77467 0.0
C1510 C 0.7163 0.42935 0.7537 0.0
C1511 C 0.89586 0.46584 0.03983 0.0
C1512 C 0.86733 0.48768 0.04634 0.0
C1513 C 0.89503 0.44404 1.0184 0.0
C1514 C 0.8659 0.44322 1.00204 0.0
H1515 H 0.91883 0.46478 0.05182 0.0
H1516 H 0.91702 0.42653 1.01512 0.0
S1517 S 0.78447 0.49543 1.00964 0.0
N1518 N 0.80895 0.50729 0.03392 0.0
N1519 N 0.80801 0.46673 0.99347 0.0
C1520 C 0.8378 0.46595 1.0075 0.0
C1521 C 0.83839 0.48806 0.0296 0.0
C1522 C 0.79866 0.5927 0.259 0.0
C1523 C 0.81969 0.6213 0.25163 0.0
C1524 C 0.77646 0.59492 0.28034 0.0
C1525 C 0.77449 0.62581 0.29515 0.0
H1526 H 0.80104 0.5678 0.24923 0.0
H1527 H 0.76222 0.57163 0.28605 0.0
S1528 S 0.82089 0.7095 0.28143 0.0
N1529 N 0.83491 0.68219 0.2594 0.0
N1530 N 0.79278 0.68687 0.29866 0.0
C1531 C 0.79381 0.65518 0.28682 0.0
C1532 C 0.81649 0.65277 0.26535 0.0
C1533 C 0.61596 0.5521 0.54062 0.0
C1534 C 0.64136 0.52538 0.54292 0.0
C1535 C 0.6167 0.57625 0.52063 0.0
C1536 C 0.64261 0.57485 0.50166 0.0
H1537 H 0.59621 0.55562 0.5551 0.0
H1538 H 0.59736 0.59714 0.52056 0.0
S1539 S 0.71376 0.50862 0.49736 0.0
N1540 N 0.6921 0.4977 0.52318 0.0
N1541 N 0.69344 0.54338 0.48578 0.0
C1542 C 0.66724 0.54738 0.50291 0.0
C1543 C 0.6667 0.52274 0.52348 0.0
C1544 C 0.27609 0.42696 0.27771 0.0
C1545 C 0.27312 0.39775 0.29402 0.0
C1546 C 0.29852 0.42629 0.25642 0.0
C1547 C 0.31869 0.39635 0.25063 0.0
H1548 H 0.26232 0.45111 0.2821 0.0
H1549 H 0.30172 0.44997 0.24541 0.0
S1550 S 0.3164 0.3113 0.28472 0.0
N1551 N 0.28923 0.33673 0.30074 0.0
N1552 N 0.33132 0.33568 0.26137 0.0
C1553 C 0.31408 0.36637 0.2658 0.0
C1554 C 0.29142 0.36701 0.2873 0.0
C1555 C 0.3372 0.55495 0.04502 0.0
C1556 C 0.35876 0.5249 0.04513 0.0
C1557 C 0.3349 0.57692 0.02386 0.0
C1558 C 0.35364 0.57002 1.00144 0.0
H1559 H 0.32257 0.56221 0.06174 0.0
H1560 H 0.31944 0.60069 0.02555 0.0
S1561 S 0.41276 0.49406 0.99103 0.0
N1562 N 0.3984 0.48863 1.02017 0.0
N1563 N 0.39373 0.53013 0.98038 0.0
C1564 C 0.37402 0.53923 1.00068 0.0
C1565 C 0.37657 0.51667 0.02245 0.0
C1566 C 0.21804 0.62833 0.75137 0.0
C1567 C 0.19265 0.60155 0.74976 0.0
C1568 C 0.24176 0.63014 0.77182 0.0
C1569 C 0.24094 0.60535 0.79161 0.0
H1570 H 0.21841 0.64904 0.7374 0.0
H1571 H 0.26023 0.65176 0.77253 0.0
S1572 S 0.17842 0.53076 0.79647 0.0
N1573 N 0.16804 0.5499 0.76961 0.0
N1574 N 0.21174 0.55338 0.80801 0.0
C1575 C 0.21607 0.57801 0.78977 0.0
C1576 C 0.19213 0.57618 0.76895 0.0
C1577 C 0.13011 0.48935 0.52298 0.0
C1578 C 0.15487 0.48766 0.54278 0.0
C1579 C 0.1316 0.46609 0.50217 0.0
C1580 C 0.15773 0.44005 0.50047 0.0
H1581 H 0.10886 0.50822 0.52389 0.0
H1582 H 0.11107 0.46725 0.48808 0.0
S1583 S 0.22898 0.42438 0.54668 0.0
N1584 N 0.20675 0.45771 0.55867 0.0
N1585 N 0.20923 0.41439 0.51994 0.0
C1586 C 0.18311 0.43873 0.51967 0.0
C1587 C 0.18183 0.46242 0.54067 0.0
C1588 C 0.28051 0.63631 0.26476 0.0
C1589 C 0.27948 0.60766 0.24784 0.0
C1590 C 0.30271 0.63603 0.28612 0.0
C1591 C 0.3241 0.60683 0.29157 0.0
H1592 H 0.26569 0.6599 0.26066 0.0
H1593 H 0.30454 0.65947 0.29765 0.0
S1594 S 0.32882 0.52406 0.25485 0.0
N1595 N 0.30008 0.54831 0.23937 0.0
N1596 N 0.34133 0.548 0.27921 0.0
C1597 C 0.32184 0.57746 0.27561 0.0
C1598 C 0.29961 0.57776 0.2539 0.0
C1599 C 0.11506 0.54934 1.00334 0.0
C1600 C 0.13935 0.52176 1.00029 0.0
C1601 C 0.11571 0.57154 0.02448 0.0
C1602 C 0.14063 0.56758 0.04396 0.0
H1603 H 0.09613 0.55487 0.98864 0.0
H1604 H 0.09749 0.59341 0.02484 0.0
S1605 S 0.2068 0.49625 0.04749 0.0
N1606 N 0.18675 0.48923 1.02031 0.0
N1607 N 0.18757 0.53095 0.06025 0.0
C1608 C 0.16299 0.53815 0.04249 0.0
C1609 C 0.16249 0.51535 1.02064 0.0
C1610 C 0.21195 0.36233 0.75173 0.0
C1611 C 0.23523 0.38972 0.74544 0.0
C1612 C 0.19104 0.36364 0.77353 0.0
C1613 C 0.19237 0.39225 0.79044 0.0
H1614 H 0.20889 0.34004 0.7392 0.0
H1615 H 0.17237 0.34261 0.7766 0.0
S1616 S 0.25073 0.46968 0.78425 0.0
N1617 N 0.25979 0.44565 0.7591 0.0
N1618 N 0.22064 0.44772 0.80022 0.0
C1619 C 0.21702 0.41884 0.78539 0.0
C1620 C 0.23837 0.41766 0.76293 0.0
C1621 C 0.34169 0.46415 0.53683 0.0
C1622 C 0.36956 0.4407 0.54135 0.0
C1623 C 0.34211 0.48706 0.51587 0.0
C1624 C 0.37052 0.48766 0.49867 0.0
H1625 H 0.31852 0.46337 0.54866 0.0
H1626 H 0.31953 0.50377 0.51273 0.0
S1627 S 0.45083 0.43254 0.5031 0.0
N1628 N 0.42719 0.42099 0.5278 0.0
N1629 N 0.42769 0.46294 0.48846 0.0
C1630 C 0.39912 0.46527 0.50374 0.0
C1631 C 0.39868 0.44212 0.525 0.0
C1632 C 0.13597 0.2623 0.3773 0.0
C1633 C 0.14018 0.25586 0.40329 0.0
C1634 C 0.12557 0.2356 0.36042 0.0
C1635 C 0.11972 0.20081 0.36846 0.0
H1636 H 0.13933 0.28863 0.36997 0.0
H1637 H 0.12156 0.24246 0.34083 0.0
S1638 S 0.12865 0.16896 0.43415 0.0
N1639 N 0.13839 0.21121 0.43604 0.0
N1640 N 0.11998 0.16111 0.40416 0.0
C1641 C 0.12505 0.19352 0.39417 0.0
C1642 C 0.1349 0.22095 0.41157 0.0
C1643 C 0.02584 0.88972 0.61071 0.0
C1644 C 0.05929 0.87892 0.61909 0.0
C1645 C 0.99919 0.90007 0.6276 0.0
C1646 C 1.00435 0.89958 0.65389 0.0
H1647 H 0.01979 0.88931 0.59076 0.0
H1648 H 0.97383 0.90714 0.61989 0.0
S1649 S 0.08775 0.8744 0.68574 0.0
N1650 N 0.09637 0.86929 0.65546 0.0
N1651 N 0.04682 0.88861 0.68735 0.0
C1652 C 0.03822 0.8899 0.66253 0.0
C1653 C 0.06548 0.87964 0.64516 0.0
C1654 C 0.37353 0.78778 0.86747 0.0
C1655 C 0.39023 0.81776 0.87739 0.0
C1656 C 0.36325 0.75958 0.8831 0.0
C1657 C 0.36939 0.76005 0.90936 0.0
H1658 H 0.36984 0.78538 0.8473 0.0
H1659 H 0.35149 0.73673 0.87432 0.0
S1660 S 0.41166 0.83364 0.94448 0.0
N1661 N 0.41194 0.84675 0.91486 0.0
N1662 N 0.39241 0.79477 0.94439 0.0
C1663 C 0.38505 0.79075 0.9195 0.0
C1664 C 0.39561 0.81922 0.90349 0.0
C1665 C 0.46368 0.11304 0.12563 0.0
C1666 C 0.44347 0.14334 0.13059 0.0
C1667 C 0.49239 0.10361 0.14123 0.0
C1668 C 0.50141 0.1236 0.16274 0.0
H1669 H 0.45838 0.09751 0.10893 0.0
H1670 H 0.50791 0.0808 0.1362 0.0
S1671 S 0.45577 0.20489 0.18407 0.0
N1672 N 0.43427 0.19295 0.15845 0.0
N1673 N 0.48668 0.17499 0.18807 0.0
C1674 C 0.48042 0.15328 0.1682 0.0
C1675 C 0.45194 0.16319 0.15206 0.0
C1676 C 0.0983 0.80136 0.14881 0.0
C1677 C 0.11988 0.81508 0.16791 0.0
C1678 C 0.10904 0.77286 0.13381 0.0
C1679 C 0.14155 0.75588 0.13758 0.0
H1680 H 0.07269 0.8128 0.14536 0.0
H1681 H 0.0912 0.76356 0.11937 0.0
S1682 S 0.20785 0.78106 0.18551 0.0
N1683 N 0.17568 0.80965 0.18977 0.0
N1684 N 0.19532 0.75507 0.16217 0.0
C1685 C 0.16342 0.76907 0.1568 0.0
C1686 C 0.15279 0.79894 0.17173 0.0
C1687 C 0.47037 0.88492 0.3806 0.0
C1688 C 0.50387 0.89666 0.38855 0.0
C1689 C 0.4442 0.87458 0.39806 0.0
C1690 C 0.45072 0.87476 0.42418 0.0
H1691 H 0.46455 0.88282 0.36069 0.0
H1692 H 0.41942 0.86465 0.391 0.0
S1693 S 0.53248 0.90523 0.45533 0.0
N1694 N 0.54054 0.90986 0.42496 0.0
N1695 N 0.49218 0.88953 0.4572 0.0
C1696 C 0.48344 0.88752 0.4324 0.0
C1697 C 0.50973 0.89871 0.41479 0.0
C1698 C 0.37449 0.25834 0.66049 0.0
C1699 C 0.36255 0.25199 0.63575 0.0
C1700 C 0.3872 0.23091 0.67585 0.0
C1701 C 0.38771 0.19571 0.66749 0.0
H1702 H 0.37582 0.28498 0.66764 0.0
H1703 H 0.39756 0.23746 0.69428 0.0
S1704 S 0.35769 0.16418 0.60505 0.0
N1705 N 0.3511 0.20708 0.60406 0.0
N1706 N 0.37398 0.15585 0.63326 0.0
C1707 C 0.37445 0.18867 0.64333 0.0
C1708 C 0.36216 0.21667 0.62741 0.0
C1709 C 0.02806 0.12048 0.93252 0.0
C1710 C 0.06062 0.13391 0.92435 0.0
C1711 C 1.0016 0.11048 0.91538 0.0
C1712 C 1.00608 0.11399 0.88911 0.0
H1713 H 0.02254 0.11862 0.9525 0.0
H1714 H 0.97685 0.1013 0.92295 0.0
S1715 S 0.08688 0.14789 0.8579 0.0
N1716 N 0.09597 0.15006 0.88828 0.0
N1717 N 0.04695 0.13119 0.85593 0.0
C1718 C 0.03913 0.12645 0.88067 0.0
C1719 C 0.06615 0.13642 0.89826 0.0
C1720 C 0.88048 0.8215 0.64783 0.0
C1721 C 0.8862 0.81473 0.6736 0.0
C1722 C 0.86983 0.79448 0.63106 0.0
C1723 C 0.8637 0.7597 0.6394 0.0
H1724 H 0.88574 0.84743 0.64036 0.0
H1725 H 0.8672 0.80079 0.61127 0.0
S1726 S 0.87208 0.7292 0.70566 0.0
N1727 N 0.88302 0.77112 0.70684 0.0
N1728 N 0.86248 0.72112 0.67589 0.0
C1729 C 0.86775 0.75325 0.66541 0.0
C1730 C 0.87913 0.78048 0.68229 0.0
C1731 C 0.01336 0.12462 0.41535 0.0
C1732 C 1.00577 0.11683 0.38997 0.0
C1733 C 0.98707 0.13617 0.43214 0.0
C1734 C 0.95175 0.14003 0.42457 0.0
H1735 H 0.04014 0.12322 0.42214 0.0
H1736 H 0.99475 0.14283 0.45121 0.0
S1737 S 0.91695 0.12075 0.36082 0.0
N1738 N 0.95937 0.11219 0.35852 0.0
N1739 N 0.91034 0.13349 0.39021 0.0
C1740 C 0.94339 0.13096 0.39961 0.0
C1741 C 0.97024 0.11954 0.38233 0.0
C1742 C 0.61755 0.23272 0.12844 0.0
C1743 C 0.64665 0.25427 0.13424 0.0
C1744 C 0.60679 0.20536 0.14442 0.0
C1745 C 0.62526 0.19733 0.16656 0.0
H1746 H 0.60185 0.23792 0.11184 0.0
H1747 H 0.58335 0.19067 0.1396 0.0
S1748 S 0.7039 0.24435 0.19033 0.0
N1749 N 0.69397 0.26513 0.16395 0.0
N1750 N 0.67458 0.21261 0.19341 0.0
C1751 C 0.65509 0.21771 0.17232 0.0
C1752 C 0.66553 0.24642 0.15635 0.0
C1753 C 0.50201 0.89144 0.91343 0.0
C1754 C 0.50935 0.89602 0.88759 0.0
C1755 C 0.52793 0.87996 0.93048 0.0
C1756 C 0.56269 0.87324 0.92272 0.0
H1757 H 0.47558 0.8952 0.92048 0.0
H1758 H 0.52042 0.87568 0.94992 0.0
S1759 S 0.59672 0.88271 0.85763 0.0
N1760 N 0.55492 0.89393 0.85539 0.0
N1761 N 0.60339 0.87305 0.88758 0.0
C1762 C 0.57092 0.87904 0.89724 0.0
C1763 C 0.54437 0.89021 0.87969 0.0
C1764 C 0.87628 0.22554 0.91033 0.0
C1765 C 0.87132 0.26048 0.90194 0.0
C1766 C 0.88527 0.19801 0.89353 0.0
C1767 C 0.89046 0.20432 0.86765 0.0
H1768 H 0.87366 0.21942 0.93016 0.0
H1769 H 0.88954 0.17192 0.90103 0.0
S1770 S 0.87937 0.29025 0.83553 0.0
N1771 N 0.87093 0.29894 0.8654 0.0
N1772 N 0.88847 0.24787 0.8343 0.0
C1773 C 0.88482 0.23883 0.85893 0.0
C1774 C 0.87508 0.26665 0.87588 0.0
C1775 C 0.54076 0.12607 0.66248 0.0
C1776 C 0.50608 0.11955 0.65406 0.0
C1777 C 0.56783 0.1362 0.64569 0.0
C1778 C 0.56118 0.1409 0.61982 0.0
H1779 H 0.54696 0.12405 0.68234 0.0
H1780 H 0.59365 0.1419 0.65319 0.0
S1781 S 0.476 0.1253 0.58757 0.0
N1782 N 0.46773 0.1168 0.61747 0.0
N1783 N 0.51787 0.13638 0.5864 0.0
C1784 C 0.52704 0.13344 0.61106 0.0
C1785 C 0.49975 0.12262 0.62799 0.0
C1786 C 0.63996 0.78378 0.36325 0.0
C1787 C 0.62526 0.81593 0.37117 0.0
C1788 C 0.65031 0.75779 0.38058 0.0
C1789 C 0.64586 0.76242 0.40676 0.0
H1790 H 0.64247 0.77812 0.34331 0.0
H1791 H 0.6604 0.73323 0.37322 0.0
S1792 S 0.60897 0.84254 0.43732 0.0
N1793 N 0.60718 0.85124 0.40688 0.0
N1794 N 0.62679 0.80311 0.43963 0.0
C1795 C 0.63228 0.79519 0.41496 0.0
C1796 C 0.62194 0.82171 0.39718 0.0
C1797 C 0.98391 0.86904 0.11839 0.0
C1798 C 0.94885 0.87642 0.1252 0.0
C1799 C 0.01249 0.88176 0.13261 0.0
C1800 C 0.0073 0.90162 0.15473 0.0
H1801 H 0.98938 0.85282 0.10205 0.0
H1802 H 0.03881 0.87438 0.12693 0.0
S1803 S 0.92091 0.92925 0.18045 0.0
N1804 N 0.91089 0.90649 0.1549 0.0
N1805 N 0.96422 0.92896 0.18228 0.0
C1806 C 0.97243 0.9098 0.16147 0.0
C1807 C 0.94337 0.89764 0.14655 0.0
C1808 C 0.62919 0.7374 0.85973 0.0
C1809 C 0.62412 0.70235 0.86753 0.0
C1810 C 0.63993 0.76391 0.87671 0.0
C1811 C 0.64542 0.75682 0.90248 0.0
H1812 H 0.6242 0.74463 0.84033 0.0
H1813 H 0.64247 0.79051 0.86972 0.0
S1814 S 0.63649 0.66902 0.93253 0.0
N1815 N 0.62639 0.66187 0.9027 0.0
N1816 N 0.64596 0.71128 0.93465 0.0
C1817 C 0.64116 0.72161 0.9104 0.0
C1818 C 0.63073 0.69454 0.89297 0.0
C1819 C 0.5556 0.34889 0.14808 0.0
C1820 C 0.56768 0.37054 0.12854 0.0
C1821 C 0.52731 0.35885 0.16342 0.0
C1822 C 0.50896 0.39064 0.1596 0.0
H1823 H 0.56781 0.32356 0.1513 0.0
H1824 H 0.51898 0.34064 0.17789 0.0
S1825 S 0.53029 0.457 0.11078 0.0
N1826 N 0.55979 0.42571 0.10633 0.0
N1827 N 0.50565 0.44409 0.1347 0.0
C1828 C 0.52097 0.41282 0.14018 0.0
C1829 C 0.55058 0.40293 0.12484 0.0
C1830 C 0.91569 0.307 0.39462 0.0
C1831 C 0.89429 0.31814 0.3746 0.0
C1832 C 0.90561 0.27925 0.41047 0.0
C1833 C 0.87413 0.26051 0.40658 0.0
H1834 H 0.94067 0.31978 0.39802 0.0
H1835 H 0.92328 0.27176 0.42552 0.0
S1836 S 0.80877 0.27894 0.35648 0.0
N1837 N 0.83977 0.30864 0.35186 0.0
N1838 N 0.82145 0.25542 0.381 0.0
C1839 C 0.85242 0.27131 0.38655 0.0
C1840 C 0.86228 0.30041 0.37078 0.0
C1841 C 0.95801 0.66824 0.64684 0.0
C1842 C 0.94593 0.64727 0.6268 0.0
C1843 C 0.98578 0.6573 0.66243 0.0
C1844 C 1.00357 0.62527 0.65829 0.0
H1845 H 0.94604 0.69361 0.65041 0.0
H1846 H 0.99413 0.67482 0.67738 0.0
S1847 S 0.98214 0.56052 0.60819 0.0
N1848 N 0.95333 0.59244 0.60392 0.0
N1849 N 0.00647 0.57245 0.63253 0.0
C1850 C 0.99163 0.60389 0.63833 0.0
C1851 C 0.96257 0.61468 0.62282 0.0
C1852 C 0.62647 0.31984 0.64949 0.0
C1853 C 0.62509 0.31385 0.67564 0.0
C1854 C 0.63637 0.29285 0.6325 0.0
C1855 C 0.64604 0.25893 0.64094 0.0
H1856 H 0.61824 0.34498 0.642 0.0
H1857 H 0.63565 0.29846 0.61251 0.0
S1858 S 0.64984 0.23099 0.70796 0.0
N1859 N 0.63622 0.27213 0.70925 0.0
N1860 N 0.65547 0.22217 0.67776 0.0
C1861 C 0.64643 0.25339 0.6672 0.0
C1862 C 0.63579 0.28058 0.68437 0.0
C1863 C 0.9463 0.37871 0.89686 0.0
C1864 C 0.95221 0.37711 0.92299 0.0
C1865 C 0.97363 0.3878 0.88 0.0
C1866 C 0.0078 0.39629 0.8886 0.0
H1867 H 0.921 0.37111 0.88928 0.0
H1868 H 0.9681 0.38725 0.85999 0.0
S1869 S 0.03561 0.39902 0.95571 0.0
N1870 N 0.99405 0.3868 0.9568 0.0
N1871 N 0.04471 0.40446 0.92556 0.0
C1872 C 0.01326 0.39653 0.91487 0.0
C1873 C 0.9857 0.38677 0.93189 0.0
C1874 C 0.89959 0.73525 0.1291 0.0
C1875 C 0.8701 0.75596 0.13545 0.0
C1876 C 0.91095 0.7074 0.14448 0.0
C1877 C 0.8927 0.69809 0.16649 0.0
H1878 H 0.915 0.74141 0.11252 0.0
H1879 H 0.93452 0.69321 0.13921 0.0
S1880 S 0.81336 0.74271 0.19152 0.0
N1881 N 0.82279 0.76474 0.16557 0.0
N1882 N 0.84325 0.71138 0.1938 0.0
C1883 C 0.86257 0.71771 0.17279 0.0
C1884 C 0.85154 0.74688 0.15748 0.0
C1885 C 0.56693 0.63936 0.40071 0.0
C1886 C 0.5597 0.64309 0.42662 0.0
C1887 C 0.54035 0.62954 0.38339 0.0
C1888 C 0.5056 0.62228 0.39129 0.0
H1889 H 0.59288 0.64547 0.39361 0.0
H1890 H 0.54704 0.62811 0.36358 0.0
S1891 S 0.47387 0.62598 0.45753 0.0
N1892 N 0.51562 0.63732 0.45941 0.0
N1893 N 0.46641 0.6183 0.42739 0.0
C1894 C 0.49863 0.62462 0.41735 0.0
C1895 C 0.52542 0.63517 0.43481 0.0
C1896 C 0.35853 0.25434 0.16042 0.0
C1897 C 0.36381 0.25866 0.13432 0.0
C1898 C 0.36849 0.2804 0.17786 0.0
C1899 C 0.38369 0.31239 0.17018 0.0
H1900 H 0.34806 0.22992 0.16768 0.0
H1901 H 0.3653 0.27488 0.19776 0.0
S1902 S 0.40236 0.33814 0.10426 0.0
N1903 N 0.38435 0.29881 0.10171 0.0
N1904 N 0.40315 0.34721 0.13469 0.0
C1905 C 0.38786 0.3179 0.14421 0.0
C1906 C 0.3779 0.29124 0.12629 0.0
C1907 C 0.51403 0.62356 0.91658 0.0
C1908 C 0.50716 0.6182 0.89073 0.0
C1909 C 0.48729 0.63347 0.93362 0.0
C1910 C 0.45214 0.63797 0.92585 0.0
H1911 H 0.5406 0.62129 0.92368 0.0
H1912 H 0.49442 0.63818 0.95309 0.0
S1913 S 0.41916 0.62568 0.86068 0.0
N1914 N 0.46159 0.61715 0.85853 0.0
N1915 N 0.4118 0.63532 0.89058 0.0
C1916 C 0.44455 0.63163 0.90031 0.0
C1917 C 0.47186 0.62193 0.88281 0.0
C1918 C 0.15422 0.75447 0.65778 0.0
C1919 C 0.14587 0.7521 0.63197 0.0
C1920 C 0.14575 0.72743 0.6747 0.0
C1921 C 0.12908 0.69628 0.66676 0.0
H1922 H 0.16577 0.77822 0.66539 0.0
H1923 H 0.15088 0.73173 0.69456 0.0
S1924 S 0.10468 0.67438 0.60107 0.0
N1925 N 0.12219 0.71401 0.59904 0.0
N1926 N 0.10675 0.66333 0.63112 0.0
C1927 C 0.12264 0.69223 0.64089 0.0
C1928 C 0.13088 0.72007 0.62348 0.0
C1929 C 1.00386 0.40554 0.41255 0.0
C1930 C 0.00815 0.40127 0.3863 0.0
C1931 C 0.02975 0.39445 0.42977 0.0
C1932 C 0.06147 0.37903 0.42169 0.0
H1933 H 0.97967 0.41631 0.42002 0.0
H1934 H 0.02446 0.39718 0.44975 0.0
S1935 S 0.08631 0.36111 0.35539 0.0
N1936 N 0.04761 0.38044 0.35327 0.0
N1937 N 0.0954 0.35934 0.38577 0.0
C1938 C 0.06667 0.37536 0.39563 0.0
C1939 C 0.04031 0.38656 0.37796 0.0
C1940 C 0.372 0.76085 0.38038 0.0
C1941 C 0.36812 0.75406 0.4063 0.0
C1942 C 0.38267 0.73443 0.36341 0.0
C1943 C 0.38925 0.69969 0.37134 0.0
H1944 H 0.36839 0.78723 0.37321 0.0
H1945 H 0.38658 0.74156 0.34385 0.0
S1946 S 0.38029 0.66683 0.4367 0.0
N1947 N 0.37005 0.70894 0.43881 0.0
N1948 N 0.38924 0.65945 0.40669 0.0
C1949 C 0.38382 0.69194 0.39691 0.0
C1950 C 0.37354 0.71904 0.4144 0.0
C1951 C 0.02655 0.63232 0.11257 0.0
C1952 C 0.06155 0.63735 0.12046 0.0
C1953 C 0.99996 0.6219 0.12945 0.0
C1954 C 0.00683 0.61661 0.15526 0.0
H1955 H 0.01938 0.63711 0.09312 0.0
H1956 H 0.97345 0.61942 0.12228 0.0
S1957 S 0.09451 0.62501 0.18557 0.0
N1958 N 0.10192 0.63487 0.15573 0.0
N1959 N 0.05216 0.61598 0.18761 0.0
C1960 C 0.042 0.6207 0.16332 0.0
C1961 C 0.06924 0.63082 0.14594 0.0
C1962 C 0.13352 0.27615 0.86263 0.0
C1963 C 0.12517 0.31045 0.87072 0.0
C1964 C 0.14296 0.24952 0.87973 0.0
C1965 C 0.14374 0.25557 0.90594 0.0
H1966 H 0.13199 0.26951 0.84279 0.0
H1967 H 0.14815 0.2235 0.8723 0.0
S1968 S 0.1248 0.34129 0.937 0.0
N1969 N 0.11935 0.34939 0.90668 0.0
N1970 N 0.13631 0.29952 0.93899 0.0
C1971 C 0.13623 0.29014 0.91428 0.0
C1972 C 0.12721 0.31748 0.89668 0.0
C1973 C 0.48399 0.35794 0.66349 0.0
C1974 C 0.50291 0.38882 0.65775 0.0
C1975 C 0.45548 0.34662 0.64873 0.0
C1976 C 0.44369 0.36613 0.62795 0.0
H1977 H 0.49184 0.34167 0.67924 0.0
H1978 H 0.44263 0.32214 0.65358 0.0
S1979 S 0.48331 0.44905 0.60469 0.0
N1980 N 0.50758 0.43865 0.6294 0.0
N1981 N 0.45311 0.41804 0.60224 0.0
C1982 C 0.46175 0.39743 0.62215 0.0
C1983 C 0.49157 0.40854 0.63684 0.0
C1984 C 0.12787 0.02286 0.27953 0.0
C1985 C 0.0964 0.02935 0.29263 0.0
C1986 C 0.12874 1.00404 0.25691 0.0
C1987 C 0.09826 0.98964 0.24598 0.0
H1988 H 0.15267 0.03219 0.28697 0.0
H1989 H 0.1542 1.00017 0.24823 0.0
S1990 S 0.00835 0.99867 0.27228 0.0
N1991 N 0.03326 0.02009 0.29272 0.0
N1992 N 0.03494 0.98371 0.25004 0.0
C1993 C 0.06619 0.99594 0.25859 0.0
C1994 C 0.06524 0.01601 0.28185 0.0
C1995 C 0.27284 0.85656 0.54715 0.0
C1996 C 0.24042 0.83857 0.54839 0.0
C1997 C 0.29326 0.85722 0.52499 0.0
C1998 C 0.28297 0.83898 0.50314 0.0
H1999 H 0.28193 0.87175 0.56314 0.0
H2000 H 0.31668 0.8733 0.52475 0.0
S2001 S 0.20212 0.7857 0.49641 0.0
N2002 N 0.20015 0.80067 0.52565 0.0
N2003 N 0.23882 0.80143 0.48428 0.0
C2004 C 0.25147 0.81974 0.50428 0.0
C2005 C 0.23024 0.81956 0.52679 0.0
C2006 C 0.42898 0.02566 0.79817 0.0
C2007 C 0.43426 0.98887 0.79772 0.0
C2008 C 0.42754 0.04579 0.77584 0.0
C2009 C 0.43118 0.03003 0.75197 0.0
H2010 H 0.42423 0.03891 0.81593 0.0
H2011 H 0.42139 0.07351 0.77724 0.0
S2012 S 0.44868 0.93571 0.7399 0.0
N2013 N 0.44606 0.93838 0.77093 0.0
N2014 N 0.44236 0.97593 0.72923 0.0
C2015 C 0.43811 0.99373 0.75123 0.0
C2016 C 0.44005 0.97327 0.77396 0.0
C2017 C 0.22202 0.16806 1.0176 0.0
C2018 C 0.23711 0.17644 0.99417 0.0
C2019 C 0.24252 0.16604 0.03975 0.0
C2020 C 0.27895 0.1731 0.03963 0.0
H2021 H 0.19466 0.16064 1.01855 0.0
H2022 H 0.22992 0.15757 0.05701 0.0
S2023 S 0.331 0.1971 0.98318 0.0
N2024 N 0.29067 0.19238 0.9723 0.0
N2025 N 0.32882 0.18942 1.01378 0.0
C2026 C 0.29402 0.18292 1.01649 0.0
C2027 C 0.27325 0.1843 0.99386 0.0
C2028 C 0.87695 0.0177 0.78407 0.0
C2029 C 0.90829 0.02783 0.79616 0.0
C2030 C 0.87691 0.99863 0.76148 0.0
C2031 C 0.90819 0.98805 0.74949 0.0
H2032 H 0.85172 0.02476 0.79208 0.0
H2033 H 0.85167 0.99211 0.75332 0.0
S2034 S 0.99798 0.00724 0.77297 0.0
N2035 N 0.97203 0.02539 0.79436 0.0
N2036 N 0.97194 0.98946 0.75151 0.0
C2037 C 0.94003 0.99767 0.76125 0.0
C2038 C 0.94008 0.01759 0.78455 0.0
C2039 C 0.76655 0.14465 0.5412 0.0
C2040 C 0.74135 0.17069 0.5471 0.0
C2041 C 0.78634 0.14555 0.51893 0.0
C2042 C 0.78287 0.17294 0.50146 0.0
H2043 H 0.77003 0.12209 0.55334 0.0
H2044 H 0.80344 0.12356 0.51487 0.0
S2045 S 0.72383 0.24987 0.50842 0.0
N2046 N 0.71647 0.22656 0.53415 0.0
N2047 N 0.75385 0.22817 0.4921 0.0
C2048 C 0.75948 0.20039 0.50756 0.0
C2049 C 0.73882 0.19935 0.53041 0.0
C2050 C 0.57712 0.0433 0.27156 0.0
C2051 C 0.58828 0.02794 0.24873 0.0
C2052 C 0.57608 0.02373 0.29429 0.0
C2053 C 0.58511 0.98768 0.29512 0.0
H2054 H 0.57125 0.07109 0.27224 0.0
H2055 H 0.56913 0.03726 0.31156 0.0
S2056 S 0.61575 0.93502 0.24034 0.0
N2057 N 0.60832 0.97435 0.22846 0.0
N2058 N 0.60553 0.93799 0.27049 0.0
C2059 C 0.59506 0.97193 0.27216 0.0
C2060 C 0.59684 0.99191 0.24923 0.0
C2061 C 0.74242 0.88075 1.01218 0.0
C2062 C 0.73317 0.84926 0.99992 0.0
C2063 C 0.76271 0.88119 0.03409 0.0
C2064 C 0.77548 0.85018 0.04523 0.0
H2065 H 0.73417 0.90585 1.00461 0.0
H2066 H 0.76879 0.9066 0.04222 0.0
S2067 S 0.75767 0.75999 0.02173 0.0
N2068 N 0.73738 0.78556 1.00118 0.0
N2069 N 0.77605 0.78638 0.04275 0.0
C2070 C 0.76611 0.81811 0.0336 0.0
C2071 C 0.74476 0.81764 1.01101 0.0
C2072 C 0.62623 0.50705 0.78722 0.0
C2073 C 0.59651 0.52468 0.79689 0.0
C2074 C 0.62516 0.48774 0.76478 0.0
C2075 C 0.59419 0.48418 0.75068 0.0
H2076 H 0.65139 0.50895 0.79665 0.0
H2077 H 0.64941 0.47618 0.75806 0.0
S2078 S 0.5077 0.52201 0.76818 0.0
N2079 N 0.53403 0.53507 0.79115 0.0
N2080 N 0.53209 0.49854 0.74858 0.0
C2081 C 0.56361 0.50021 0.76041 0.0
C2082 C 0.56475 0.52048 0.78352 0.0
C2083 C 0.79246 0.3408 1.0213 0.0
C2084 C 0.77734 0.34225 0.99713 0.0
C2085 C 0.77143 0.34027 0.04326 0.0
C2086 C 0.7344 0.34058 0.04198 0.0
H2087 H 0.82062 0.34284 0.02338 0.0
H2088 H 0.78429 0.34151 0.06145 0.0
S2089 S 0.68202 0.34528 0.98321 0.0
N2090 N 0.72312 0.3445 0.97331 0.0
N2091 N 0.68388 0.34272 1.01424 0.0
C2092 C 0.71908 0.34081 1.01788 0.0
C2093 C 0.74046 0.34191 0.99559 0.0
C2094 C 0.89264 0.53913 0.27018 0.0
C2095 C 0.91893 0.53471 0.25191 0.0
C2096 C 0.89256 0.51989 0.29268 0.0
C2097 C 0.91844 0.49441 0.29807 0.0
H2098 H 0.87084 0.55687 0.26668 0.0
H2099 H 0.87084 0.52414 0.30551 0.0
S2100 S 0.99445 0.47355 0.2569 0.0
N2101 N 0.97273 0.50396 0.24105 0.0
N2102 N 0.97258 0.46741 0.28345 0.0
C2103 C 0.9459 0.49063 0.28044 0.0
C2104 C 0.94614 0.51075 0.25735 0.0
C2105 C 0.72562 0.64688 0.51911 0.0
C2106 C 0.72987 0.67359 0.50116 0.0
C2107 C 0.74568 0.64593 0.54125 0.0
C2108 C 0.7717 0.67131 0.5466 0.0
H2109 H 0.70762 0.62542 0.51552 0.0
H2110 H 0.74159 0.62392 0.55382 0.0
S2111 S 0.79258 0.74785 0.5061 0.0
N2112 N 0.76121 0.72707 0.4905 0.0
N2113 N 0.79913 0.72531 0.53228 0.0
C2114 C 0.77526 0.6992 0.52935 0.0
C2115 C 0.7544 0.70028 0.50662 0.0
C2116 C 0.4307 0.54187 0.27019 0.0
C2117 C 0.42442 0.52604 0.29372 0.0
C2118 C 0.4313 0.52181 0.24765 0.0
C2119 C 0.42624 0.48496 0.24763 0.0
H2120 H 0.43273 0.57015 0.2689 0.0
H2121 H 0.43445 0.53553 0.22993 0.0
S2122 S 0.40877 0.43109 0.3045 0.0
N2123 N 0.41298 0.47139 0.31557 0.0
N2124 N 0.41519 0.43398 0.27381 0.0
C2125 C 0.42129 0.46887 0.27123 0.0
C2126 C 0.42001 0.48931 0.29403 0.0
C2127 C 0.26983 0.69281 1.01104 0.0
C2128 C 0.27373 0.66202 0.9963 0.0
C2129 C 0.24911 0.69297 0.03349 0.0
C2130 C 0.23191 0.66226 0.04206 0.0
H2131 H 0.28289 0.71675 1.0053 0.0
H2132 H 0.24767 0.71679 0.04463 0.0
S2133 S 0.23329 0.57517 1.01037 0.0
N2134 N 0.25754 0.60038 0.99226 0.0
N2135 N 0.22011 0.60081 0.03354 0.0
C2136 C 0.23538 0.63185 0.0272 0.0
C2137 C 0.2558 0.6317 1.00464 0.0
C2138 C 0.09323 0.46719 0.77001 0.0
C2139 C 0.09071 0.48271 0.79398 0.0
C2140 C 0.09139 0.48753 0.74785 0.0
C2141 C 0.0876 0.52454 0.74847 0.0
H2142 H 0.0988 0.43942 0.76828 0.0
H2143 H 0.09463 0.47411 0.72998 0.0
S2144 S 0.08025 0.57772 0.80684 0.0
N2145 N 0.08395 0.53706 0.81718 0.0
N2146 N 0.08106 0.57538 0.77575 0.0
C2147 C 0.08415 0.54021 0.7724 0.0
C2148 C 0.08581 0.51933 0.79501 0.0
C2149 C 0.22769 0.3242 0.51287 0.0
C2150 C 0.24036 0.33997 0.49056 0.0
C2151 C 0.24756 0.32448 0.53557 0.0
C2152 C 0.28099 0.3405 0.53696 0.0
H2153 H 0.20189 0.31245 0.51303 0.0
H2154 H 0.236 0.31338 0.55242 0.0
S2155 S 0.32574 0.38679 0.48452 0.0
N2156 N 0.2889 0.37236 0.4719 0.0
N2157 N 0.32493 0.37339 0.51404 0.0
C2158 C 0.29384 0.35605 0.5148 0.0
C2159 C 0.27401 0.35554 0.4918 0.0
C2160 C 0.08129 0.21426 0.14071 0.0
C2161 C 0.09279 0.18833 0.12365 0.0
C2162 C 0.0736 0.20595 0.16585 0.0
C2163 C 0.07672 0.17132 0.17473 0.0
H2164 H 0.07815 0.2412 0.13457 0.0
H2165 H 0.06437 0.2266 0.17827 0.0
S2166 S 0.10674 0.09398 0.13803 0.0
N2167 N 0.10751 0.12667 0.11762 0.0
N2168 N 0.09324 0.11119 0.16492 0.0
C2169 C 0.0887 0.14526 0.15803 0.0
C2170 C 0.09675 0.15373 0.13249 0.0
C2171 C 0.12255 0.82947 0.40078 0.0
C2172 C 0.09684 0.81538 0.4169 0.0
C2173 C 0.11491 0.83699 0.37547 0.0
C2174 C 0.08124 0.83082 0.36543 0.0
H2175 H 0.1488 0.83453 0.40774 0.0
H2176 H 0.13559 0.84742 0.36363 0.0
S2177 S 1.00386 0.79718 0.40045 0.0
N2178 N 0.03587 0.79744 0.42141 0.0
N2179 N 0.02149 0.81171 0.37403 0.0
C2180 C 0.0552 0.81722 0.38149 0.0
C2181 C 0.06299 0.80948 0.40716 0.0
C2182 C 0.41398 0.81017 0.66608 0.0
C2183 C 0.44456 0.82759 0.67421 0.0
C2184 C 0.4072 0.80484 0.64043 0.0
C2185 C 0.43088 0.81644 0.62192 0.0
H2186 H 0.39521 0.80026 0.67966 0.0
H2187 H 0.38338 0.79122 0.63503 0.0
S2188 S 0.51385 0.8649 0.63298 0.0
N2189 N 0.49803 0.85773 0.6615 0.0
N2190 N 0.48556 0.84689 0.61323 0.0
C2191 C 0.46154 0.83385 0.62968 0.0
C2192 C 0.46832 0.83962 0.65582 0.0
C2193 C 0.46045 0.19409 0.88422 0.0
C2194 C 0.43803 0.17181 0.87044 0.0
C2195 C 0.45565 0.19964 0.91011 0.0
C2196 C 0.4283 0.18305 0.92336 0.0
H2197 H 0.48175 0.2077 0.87487 0.0
H2198 H 0.4738 0.21682 0.91989 0.0
S2199 S 0.3621 0.12228 0.89615 0.0
N2200 N 0.38751 0.13276 0.87208 0.0
N2201 N 0.37801 0.14383 0.92066 0.0
C2202 C 0.40558 0.16075 0.90985 0.0
C2203 C 0.41048 0.15507 0.88342 0.0
C2204 C 0.90868 0.86399 0.88398 0.0
C2205 C 0.93873 0.85065 0.87179 0.0
C2206 C 0.90244 0.85743 0.90961 0.0
C2207 C 0.92597 0.83722 0.92397 0.0
H2208 H 0.88959 0.87923 0.87354 0.0
H2209 H 0.87875 0.8678 0.91815 0.0
S2210 S 0.01015 0.79912 0.90164 0.0
N2211 N 0.99336 0.81826 0.87649 0.0
N2212 N 0.98155 0.8058 0.92455 0.0
C2213 C 0.95641 0.82428 0.91214 0.0
C2214 C 0.9628 0.831 0.88609 0.0
C2215 C 0.93367 0.20331 0.6651 0.0
C2216 C 0.9275 0.16931 0.67439 0.0
C2217 C 0.92637 0.21183 0.63995 0.0
C2218 C 0.91231 0.18677 0.62321 0.0
H2219 H 0.94505 0.22324 0.6772 0.0
H2220 H 0.9319 0.23826 0.63354 0.0
S2221 S 0.88974 0.09442 0.63869 0.0
N2222 N 0.90511 0.11084 0.66532 0.0
N2223 N 0.89181 0.12665 0.61796 0.0
C2224 C 0.90523 0.15288 0.63246 0.0
C2225 C 0.91279 0.14418 0.65805 0.0
C2226 C 0.62027 0.22507 0.40382 0.0
C2227 C 0.61981 0.19815 0.42195 0.0
C2228 C 0.61297 0.2181 0.37841 0.0
C2229 C 0.60489 0.18392 0.37005 0.0
H2230 H 0.6257 0.25191 0.40941 0.0
H2231 H 0.61312 0.2398 0.36523 0.0
S2232 S 0.59993 0.10413 0.40987 0.0
N2233 N 0.61067 0.13584 0.4297 0.0
N2234 N 0.59704 0.1228 0.3819 0.0
C2235 C 0.60526 0.15656 0.38782 0.0
C2236 C 0.61269 0.16365 0.41376 0.0
C2237 C 0.60289 0.79599 0.1395 0.0
C2238 C 0.60579 0.82246 0.1211 0.0
C2239 C 0.59494 0.80417 0.16466 0.0
C2240 C 0.58915 0.83909 0.17233 0.0
H2241 H 0.6065 0.76867 0.13435 0.0
H2242 H 0.5923 0.78291 0.17807 0.0
S2243 S 0.59484 0.9182 0.13194 0.0
N2244 N 0.60306 0.88518 0.11258 0.0
N2245 N 0.5883 0.90044 0.15991 0.0
C2246 C 0.59269 0.86586 0.15431 0.0
C2247 C 0.60103 0.85759 0.12872 0.0
C2248 C 0.59051 0.65932 0.66054 0.0
C2249 C 0.56825 0.68124 0.67475 0.0
C2250 C 0.59816 0.66666 0.63526 0.0
C2251 C 0.58393 0.69627 0.62313 0.0
H2252 H 0.60191 0.63607 0.66897 0.0
H2253 H 0.61527 0.64885 0.62508 0.0
S2254 S 0.52545 0.76295 0.6523 0.0
N2255 N 0.53277 0.73435 0.67505 0.0
N2256 N 0.54728 0.74827 0.62752 0.0
C2257 C 0.5616 0.71845 0.6371 0.0
C2258 C 0.55375 0.71092 0.66289 0.0
C2259 C 0.54616 0.35685 0.89102 0.0
C2260 C 0.57321 0.35305 0.87315 0.0
C2261 C 0.55205 0.35012 0.91659 0.0
C2262 C 0.58514 0.33906 0.9252 0.0
H2263 H 0.52016 0.36504 0.88518 0.0
H2264 H 0.53034 0.35288 0.92965 0.0
S2265 S 0.66508 0.32635 0.88634 0.0
N2266 N 0.63456 0.33824 0.86597 0.0
N2267 N 0.64569 0.32596 0.91419 0.0
C2268 C 0.6126 0.33574 0.90767 0.0
C2269 C 0.60665 0.34273 0.88161 0.0
C2270 C 0.92627 0.35826 0.12912 0.0
C2271 C 0.90692 0.32836 0.12178 0.0
C2272 C 0.9332 0.3654 0.15464 0.0
C2273 C 0.92115 0.34284 0.17373 0.0
H2274 H 0.93715 0.37564 0.11499 0.0
H2275 H 0.94914 0.38803 0.1594 0.0
S2276 S 0.86513 0.26411 0.16491 0.0
N2277 N 0.87267 0.27827 0.13602 0.0
N2278 N 0.88612 0.29145 0.18382 0.0
C2279 C 0.90049 0.31382 0.16675 0.0
C2280 C 0.89329 0.30664 0.14085 0.0
C2281 C 0.92481 0.70866 0.38021 0.0
C2282 C 0.92774 0.67417 0.37082 0.0
C2283 C 0.91963 0.71518 0.406 0.0
C2284 C 0.91673 0.68747 0.42343 0.0
H2285 H 0.92732 0.73084 0.36758 0.0
H2286 H 0.9179 0.74219 0.41235 0.0
S2287 S 0.92167 0.5923 0.4084 0.0
N2288 N 0.92654 0.61193 0.38089 0.0
N2289 N 0.91699 0.62412 0.42934 0.0
C2290 C 0.91905 0.65282 0.41423 0.0
C2291 C 0.92458 0.6462 0.38797 0.0
C2292 C 0.41779 0.35461 0.38695 0.0
C2293 C 0.44945 0.34552 0.37491 0.0
C2294 C 0.41272 0.34818 0.41269 0.0
C2295 C 0.43904 0.3322 0.42731 0.0
H2296 H 0.39663 0.36653 0.37634 0.0
H2297 H 0.38764 0.35493 0.42105 0.0
S2298 S 0.52721 0.30451 0.40507 0.0
N2299 N 0.50776 0.32026 0.37969 0.0
N2300 N 0.49849 0.30892 0.42818 0.0
C2301 C 0.47112 0.32372 0.41565 0.0
C2302 C 0.47629 0.33027 0.38945 0.0
C2303 C 0.42666 0.64164 0.15708 0.0
C2304 C 0.45206 0.66054 0.17081 0.0
C2305 C 0.41938 0.64963 0.13181 0.0
C2306 C 0.43703 0.67702 0.1193 0.0
H2307 H 0.41205 0.62065 0.16601 0.0
H2308 H 0.39904 0.63488 0.12222 0.0
S2309 S 0.50687 0.73365 0.14633 0.0
N2310 N 0.49536 0.70756 0.16973 0.0
N2311 N 0.48225 0.72191 0.12214 0.0
C2312 C 0.46309 0.69556 0.13258 0.0
C2313 C 0.47051 0.68745 0.15831 0.0
C2314 C 0.05581 0.70048 0.88499 0.0
C2315 C 0.07085 0.67199 0.87199 0.0
C2316 C 0.06307 0.70623 0.91054 0.0
C2317 C 0.0855 0.68361 0.92396 0.0
H2318 H 0.03923 0.71906 0.87514 0.0
H2319 H 0.05189 0.72913 0.91966 0.0
S2320 S 0.12795 0.60291 0.89911 0.0
N2321 N 0.10685 0.61946 0.87468 0.0
N2322 N 0.12015 0.62992 0.92286 0.0
C2323 C 0.09955 0.65425 0.91137 0.0
C2324 C 0.0923 0.64852 0.88534 0.0
C2325 C 0.10432 0.31017 0.66659 0.0
C2326 C 0.09397 0.34429 0.67361 0.0
C2327 C 0.11221 0.30188 0.64145 0.0
C2328 C 0.11044 0.32748 0.62237 0.0
H2329 H 0.10512 0.28939 0.6805 0.0
H2330 H 0.11916 0.27503 0.63681 0.0
S2331 S 0.0874 0.42149 0.63133 0.0
N2332 N 0.08455 0.4044 0.65984 0.0
N2333 N 0.09904 0.38886 0.61254 0.0
C2334 C 0.10148 0.36207 0.62934 0.0
C2335 C 0.09325 0.37043 0.65494 0.0
loop_
_geom_bond_atom_site_label_1
_geom_bond_atom_site_label_2
_geom_bond_distance
_geom_bond_site_symmetry_2
_ccdc_geom_bond_type
Nd0 C2 2.836 . S
Nd0 O20 2.500 . S
Nd0 O21 2.492 . S
Nd0 O22 2.487 . S
Nd0 O23 2.682 . S
Nd0 O24 2.410 . S
Nd0 O29 2.414 . S
Nd0 O31 2.424 . S
Nd1 C11 2.836 . S
Nd1 O23 2.414 . S
Nd1 O25 2.424 . S
Nd1 O26 2.500 . S
Nd1 O27 2.492 . S
Nd1 O28 2.487 . S
Nd1 O29 2.682 . S
Nd1 O30 2.410 . S
C2 Nd0 2.836 . S
C2 C3 1.498 . S
C2 O20 1.258 . S
C2 O21 1.239 . S
C3 C2 1.498 . S
C3 C4 1.366 . S
C3 C8 1.407 . S
C4 C3 1.366 . S
C4 C5 1.392 . S
C4 H32 0.930 . S
C5 C4 1.392 . S
C5 C6 1.398 . S
C5 H33 0.929 . S
C6 C5 1.398 . S
C6 C7 1.352 . S
C7 C6 1.352 . S
C7 C8 1.384 . S
C7 H34 0.930 . S
C8 C3 1.407 . S
C8 C7 1.384 . S
C8 H35 0.929 . S
C9 O22 1.241 . S
C9 O23 1.273 . S
C10 O24 1.251 . S
C10 O25 1.268 . S
C11 Nd1 2.836 . S
C11 C12 1.498 . S
C11 O26 1.258 . S
C11 O27 1.239 . S
C12 C11 1.498 . S
C12 C13 1.366 . S
C12 C17 1.407 1_545 S
C13 C12 1.366 . S
C13 C14 1.392 . S
C13 H36 0.930 . S
C14 C13 1.392 . S
C14 C15 1.398 . S
C14 H37 0.929 . S
C15 C14 1.398 . S
C15 C16 1.352 1_545 S
C16 C15 1.352 1_565 S
C16 C17 1.384 . S
C16 H38 0.930 . S
C17 C12 1.407 1_565 S
C17 C16 1.384 . S
C17 H39 0.929 . S
C18 O28 1.241 . S
C18 O29 1.273 . S
C19 O30 1.251 . S
C19 O31 1.268 . S
O20 Nd0 2.500 . S
O20 C2 1.258 . S
O21 Nd0 2.492 . S
O21 C2 1.239 . S
O22 Nd0 2.487 . S
O22 C9 1.241 . S
O23 Nd0 2.682 . S
O23 Nd1 2.414 . S
O23 C9 1.273 . S
O24 Nd0 2.410 . S
O24 C10 1.251 . S
O25 Nd1 2.424 . S
O25 C10 1.268 . S
O26 Nd1 2.500 . S
O26 C11 1.258 . S
O27 Nd1 2.492 . S
O27 C11 1.239 . S
O28 Nd1 2.487 . S
O28 C18 1.241 . S
O29 Nd0 2.414 . S
O29 Nd1 2.682 . S
O29 C18 1.273 . S
O30 Nd1 2.410 . S
O30 C19 1.251 . S
O31 Nd0 2.424 . S
O31 C19 1.268 . S
H32 C4 0.930 . S
H33 C5 0.929 . S
H34 C7 0.930 . S
H35 C8 0.929 . S
H36 C13 0.930 . S
H37 C14 0.929 . S
H38 C16 0.930 . S
H39 C17 0.929 . S
Nd40 C42 2.836 . S
Nd40 O60 2.500 . S
Nd40 O61 2.492 . S
Nd40 O62 2.487 . S
Nd40 O63 2.682 . S
Nd40 O64 2.410 . S
Nd40 O69 2.414 . S
Nd40 O71 2.424 . S
Nd41 C51 2.836 . S
Nd41 O63 2.414 . S
Nd41 O65 2.424 . S
Nd41 O66 2.500 . S
Nd41 O67 2.492 . S
Nd41 O68 2.487 . S
Nd41 O69 2.682 . S
Nd41 O70 2.410 . S
C42 Nd40 2.836 . S
C42 C43 1.498 . S
C42 O60 1.258 . S
C42 O61 1.239 . S
C43 C42 1.498 . S
C43 C44 1.366 . S
C43 C48 1.407 . S
C44 C43 1.366 . S
C44 C45 1.392 . S
C44 H72 0.930 . S
C45 C44 1.392 . S
C45 C46 1.398 . S
C45 H73 0.929 . S
C46 C45 1.398 . S
C46 C47 1.352 . S
C47 C46 1.352 . S
C47 C48 1.384 . S
C47 H74 0.930 . S
C48 C43 1.407 . S
C48 C47 1.384 . S
C48 H75 0.929 . S
C49 O62 1.241 . S
C49 O63 1.273 . S
C50 O64 1.251 . S
C50 O65 1.268 . S
C51 Nd41 2.836 . S
C51 C52 1.498 . S
C51 O66 1.258 . S
C51 O67 1.239 . S
C52 C51 1.498 . S
C52 C53 1.366 . S
C52 C57 1.407 . S
C53 C52 1.366 . S
C53 C54 1.392 . S
C53 H76 0.930 . S
C54 C53 1.392 . S
C54 C55 1.398 . S
C54 H77 0.929 . S
C55 C54 1.398 . S
C55 C56 1.352 . S
C56 C55 1.352 . S
C56 C57 1.384 . S
C56 H78 0.930 . S
C57 C52 1.407 . S
C57 C56 1.384 . S
C57 H79 0.929 . S
C58 O68 1.241 . S
C58 O69 1.273 . S
C59 O70 1.251 . S
C59 O71 1.268 . S
O60 Nd40 2.500 . S
O60 C42 1.258 . S
O61 Nd40 2.492 . S
O61 C42 1.239 . S
O62 Nd40 2.487 . S
O62 C49 1.241 . S
O63 Nd40 2.682 . S
O63 Nd41 2.414 . S
O63 C49 1.273 . S
O64 Nd40 2.410 . S
O64 C50 1.251 . S
O65 Nd41 2.424 . S
O65 C50 1.268 . S
O66 Nd41 2.500 . S
O66 C51 1.258 . S
O67 Nd41 2.492 . S
O67 C51 1.239 . S
O68 Nd41 2.487 . S
O68 C58 1.241 . S
O69 Nd40 2.414 . S
O69 Nd41 2.682 . S
O69 C58 1.273 . S
O70 Nd41 2.410 . S
O70 C59 1.251 . S
O71 Nd40 2.424 . S
O71 C59 1.268 . S
H72 C44 0.930 . S
H73 C45 0.929 . S
H74 C47 0.930 . S
H75 C48 0.929 . S
H76 C53 0.930 . S
H77 C54 0.929 . S
H78 C56 0.930 . S
H79 C57 0.929 . S
Nd80 C82 2.836 . S
Nd80 O100 2.500 . S
Nd80 O101 2.492 . S
Nd80 O102 2.487 . S
Nd80 O103 2.682 . S
Nd80 O104 2.410 . S
Nd80 O109 2.414 . S
Nd80 O111 2.424 . S
Nd81 C91 2.836 . S
Nd81 O103 2.414 . S
Nd81 O105 2.424 . S
Nd81 O106 2.500 . S
Nd81 O107 2.492 . S
Nd81 O108 2.487 . S
Nd81 O109 2.682 . S
Nd81 O110 2.410 . S
C82 Nd80 2.836 . S
C82 C83 1.498 . S
C82 O100 1.258 . S
C82 O101 1.239 . S
C83 C82 1.498 . S
C83 C84 1.366 . S
C83 C88 1.407 . S
C84 C83 1.366 . S
C84 C85 1.392 . S
C84 H112 0.930 . S
C85 C84 1.392 . S
C85 C86 1.398 . S
C85 H113 0.929 . S
C86 C85 1.398 . S
C86 C87 1.352 . S
C87 C86 1.352 . S
C87 C88 1.384 . S
C87 H114 0.930 . S
C88 C83 1.407 . S
C88 C87 1.384 . S
C88 H115 0.929 . S
C89 O102 1.241 . S
C89 O103 1.273 . S
C90 O104 1.251 . S
C90 O105 1.268 . S
C91 Nd81 2.836 . S
C91 C92 1.498 . S
C91 O106 1.258 . S
C91 O107 1.239 . S
C92 C91 1.498 . S
C92 C93 1.366 . S
C92 C97 1.407 1_565 S
C93 C92 1.366 . S
C93 C94 1.392 . S
C93 H116 0.930 . S
C94 C93 1.392 . S
C94 C95 1.398 . S
C94 H117 0.929 . S
C95 C94 1.398 . S
C95 C96 1.352 1_565 S
C96 C95 1.352 1_545 S
C96 C97 1.384 . S
C96 H118 0.930 . S
C97 C92 1.407 1_545 S
C97 C96 1.384 . S
C97 H119 0.929 . S
C98 O108 1.241 . S
C98 O109 1.273 . S
C99 O110 1.251 . S
C99 O111 1.268 . S
O100 Nd80 2.500 . S
O100 C82 1.258 . S
O101 Nd80 2.492 . S
O101 C82 1.239 . S
O102 Nd80 2.487 . S
O102 C89 1.241 . S
O103 Nd80 2.682 . S
O103 Nd81 2.414 . S
O103 C89 1.273 . S
O104 Nd80 2.410 . S
O104 C90 1.251 . S
O105 Nd81 2.424 . S
O105 C90 1.268 . S
O106 Nd81 2.500 . S
O106 C91 1.258 . S
O107 Nd81 2.492 . S
O107 C91 1.239 . S
O108 Nd81 2.487 . S
O108 C98 1.241 . S
O109 Nd80 2.414 . S
O109 Nd81 2.682 . S
O109 C98 1.273 . S
O110 Nd81 2.410 . S
O110 C99 1.251 . S
O111 Nd80 2.424 . S
O111 C99 1.268 . S
H112 C84 0.930 . S
H113 C85 0.929 . S
H114 C87 0.930 . S
H115 C88 0.929 . S
H116 C93 0.930 . S
H117 C94 0.929 . S
H118 C96 0.930 . S
H119 C97 0.929 . S
Nd120 C122 2.836 1_554 S
Nd120 O140 2.452 1_554 S
Nd120 O141 2.492 . S
Nd120 O142 2.487 . S
Nd120 O143 2.682 . S
Nd120 O144 2.410 . S
Nd120 O149 2.414 . S
Nd120 O151 2.424 . S
Nd121 C131 2.836 . S
Nd121 O143 2.414 . S
Nd121 O145 2.424 . S
Nd121 O146 2.500 . S
Nd121 O147 2.492 . S
Nd121 O148 2.487 . S
Nd121 O149 2.682 . S
Nd121 O150 2.410 . S
C122 Nd120 2.836 1_556 S
C122 C123 1.498 . S
C122 O140 1.265 . S
C122 O141 1.239 1_556 S
C123 C122 1.498 . S
C123 C124 1.366 . S
C123 C128 1.407 . S
C124 C123 1.366 . S
C124 C125 1.392 . S
C124 H152 0.930 . S
C125 C124 1.392 . S
C125 C126 1.398 . S
C125 H153 0.929 . S
C126 C125 1.398 . S
C126 C127 1.352 . S
C127 C126 1.352 . S
C127 C128 1.384 . S
C127 H154 0.930 . S
C128 C123 1.407 . S
C128 C127 1.384 . S
C128 H155 0.929 . S
C129 O142 1.241 . S
C129 O143 1.273 . S
C130 O144 1.251 . S
C130 O145 1.268 . S
C131 Nd121 2.836 . S
C131 C132 1.498 . S
C131 O146 1.258 . S
C131 O147 1.239 . S
C132 C131 1.498 . S
C132 C133 1.366 . S
C132 C137 1.407 . S
C133 C132 1.366 . S
C133 C134 1.392 . S
C133 H156 0.930 . S
C134 C133 1.392 . S
C134 C135 1.398 . S
C134 H157 0.929 . S
C135 C134 1.398 . S
C135 C136 1.352 . S
C136 C135 1.352 . S
C136 C137 1.384 . S
C136 H158 0.930 . S
C137 C132 1.407 . S
C137 C136 1.384 . S
C137 H159 0.929 . S
C138 O148 1.241 . S
C138 O149 1.273 . S
C139 O150 1.251 . S
C139 O151 1.268 . S
O140 Nd120 2.452 1_556 S
O140 C122 1.265 . S
O141 Nd120 2.492 . S
O141 C122 1.239 1_554 S
O142 Nd120 2.487 . S
O142 C129 1.241 . S
O143 Nd120 2.682 . S
O143 Nd121 2.414 . S
O143 C129 1.273 . S
O144 Nd120 2.410 . S
O144 C130 1.251 . S
O145 Nd121 2.424 . S
O145 C130 1.268 . S
O146 Nd121 2.500 . S
O146 C131 1.258 . S
O147 Nd121 2.492 . S
O147 C131 1.239 . S
O148 Nd121 2.487 . S
O148 C138 1.241 . S
O149 Nd120 2.414 . S
O149 Nd121 2.682 . S
O149 C138 1.273 . S
O150 Nd121 2.410 . S
O150 C139 1.251 . S
O151 Nd120 2.424 . S
O151 C139 1.268 . S
H152 C124 0.930 . S
H153 C125 0.929 . S
H154 C127 0.930 . S
H155 C128 0.929 . S
H156 C133 0.930 . S
H157 C134 0.929 . S
H158 C136 0.930 . S
H159 C137 0.929 . S
Nd160 C162 2.836 . S
Nd160 O180 2.500 . S
Nd160 O181 2.492 . S
Nd160 O182 2.487 . S
Nd160 O183 2.682 . S
Nd160 O184 2.410 . S
Nd160 O189 2.414 . S
Nd160 O191 2.424 . S
Nd161 C171 2.836 . S
Nd161 O183 2.414 . S
Nd161 O185 2.424 . S
Nd161 O186 2.500 . S
Nd161 O187 2.492 . S
Nd161 O188 2.487 . S
Nd161 O189 2.682 . S
Nd161 O190 2.410 . S
C162 Nd160 2.836 . S
C162 C163 1.498 . S
C162 O180 1.258 . S
C162 O181 1.239 . S
C163 C162 1.498 . S
C163 C164 1.366 . S
C163 C168 1.407 . S
C164 C163 1.366 . S
C164 C165 1.392 . S
C164 H192 0.930 . S
C165 C164 1.392 . S
C165 C166 1.398 . S
C165 H193 0.929 . S
C166 C165 1.398 . S
C166 C167 1.352 . S
C167 C166 1.352 . S
C167 C168 1.384 . S
C167 H194 0.930 . S
C168 C163 1.407 . S
C168 C167 1.384 . S
C168 H195 0.929 . S
C169 O182 1.241 . S
C169 O183 1.273 . S
C170 O184 1.251 . S
C170 O185 1.268 . S
C171 Nd161 2.836 . S
C171 C172 1.498 . S
C171 O186 1.258 . S
C171 O187 1.239 . S
C172 C171 1.498 . S
C172 C173 1.366 . S
C172 C177 1.407 1_565 S
C173 C172 1.366 . S
C173 C174 1.392 . S
C173 H196 0.930 . S
C174 C173 1.392 . S
C174 C175 1.398 . S
C174 H197 0.929 . S
C175 C174 1.398 . S
C175 C176 1.352 1_565 S
C176 C175 1.352 1_545 S
C176 C177 1.384 . S
C176 H198 0.930 . S
C177 C172 1.407 1_545 S
C177 C176 1.384 . S
C177 H199 0.929 . S
C178 O188 1.241 . S
C178 O189 1.273 . S
C179 O190 1.251 . S
C179 O191 1.268 . S
O180 Nd160 2.500 . S
O180 C162 1.258 . S
O181 Nd160 2.492 . S
O181 C162 1.239 . S
O182 Nd160 2.487 . S
O182 C169 1.241 . S
O183 Nd160 2.682 . S
O183 Nd161 2.414 . S
O183 C169 1.273 . S
O184 Nd160 2.410 . S
O184 C170 1.251 . S
O185 Nd161 2.424 . S
O185 C170 1.268 . S
O186 Nd161 2.500 . S
O186 C171 1.258 . S
O187 Nd161 2.492 . S
O187 C171 1.239 . S
O188 Nd161 2.487 . S
O188 C178 1.241 . S
O189 Nd160 2.414 . S
O189 Nd161 2.682 . S
O189 C178 1.273 . S
O190 Nd161 2.410 . S
O190 C179 1.251 . S
O191 Nd160 2.424 . S
O191 C179 1.268 . S
H192 C164 0.930 . S
H193 C165 0.929 . S
H194 C167 0.930 . S
H195 C168 0.929 . S
H196 C173 0.930 . S
H197 C174 0.929 . S
H198 C176 0.930 . S
H199 C177 0.929 . S
Nd200 C202 2.836 . S
Nd200 O220 2.500 . S
Nd200 O221 2.492 . S
Nd200 O222 2.487 . S
Nd200 O223 2.682 . S
Nd200 O224 2.410 . S
Nd200 O229 2.414 . S
Nd200 O231 2.424 . S
Nd201 C211 2.836 . S
Nd201 O223 2.414 . S
Nd201 O225 2.424 . S
Nd201 O226 2.500 . S
Nd201 O227 2.492 . S
Nd201 O228 2.487 . S
Nd201 O229 2.682 . S
Nd201 O230 2.410 . S
C202 Nd200 2.836 . S
C202 C203 1.498 . S
C202 O220 1.258 . S
C202 O221 1.239 . S
C203 C202 1.498 . S
C203 C204 1.366 . S
C203 C208 1.407 . S
C204 C203 1.366 . S
C204 C205 1.392 . S
C204 H232 0.930 . S
C205 C204 1.392 . S
C205 C206 1.398 . S
C205 H233 0.929 . S
C206 C205 1.398 . S
C206 C207 1.352 . S
C207 C206 1.352 . S
C207 C208 1.384 . S
C207 H234 0.930 . S
C208 C203 1.407 . S
C208 C207 1.384 . S
C208 H235 0.929 . S
C209 O222 1.241 . S
C209 O223 1.273 . S
C210 O224 1.251 . S
C210 O225 1.268 . S
C211 Nd201 2.836 . S
C211 C212 1.498 . S
C211 O226 1.258 . S
C211 O227 1.239 . S
C212 C211 1.498 . S
C212 C213 1.366 . S
C212 C217 1.407 . S
C213 C212 1.366 . S
C213 C214 1.392 . S
C213 H236 0.930 . S
C214 C213 1.392 . S
C214 C215 1.398 . S
C214 H237 0.929 . S
C215 C214 1.398 . S
C215 C216 1.352 . S
C216 C215 1.352 . S
C216 C217 1.384 . S
C216 H238 0.930 . S
C217 C212 1.407 . S
C217 C216 1.384 . S
C217 H239 0.929 . S
C218 O228 1.241 . S
C218 O229 1.273 . S
C219 O230 1.251 . S
C219 O231 1.268 . S
O220 Nd200 2.500 . S
O220 C202 1.258 . S
O221 Nd200 2.492 . S
O221 C202 1.239 . S
O222 Nd200 2.487 . S
O222 C209 1.241 . S
O223 Nd200 2.682 . S
O223 Nd201 2.414 . S
O223 C209 1.273 . S
O224 Nd200 2.410 . S
O224 C210 1.251 . S
O225 Nd201 2.424 . S
O225 C210 1.268 . S
O226 Nd201 2.500 . S
O226 C211 1.258 . S
O227 Nd201 2.492 . S
O227 C211 1.239 . S
O228 Nd201 2.487 . S
O228 C218 1.241 . S
O229 Nd200 2.414 . S
O229 Nd201 2.682 . S
O229 C218 1.273 . S
O230 Nd201 2.410 . S
O230 C219 1.251 . S
O231 Nd200 2.424 . S
O231 C219 1.268 . S
H232 C204 0.930 . S
H233 C205 0.929 . S
H234 C207 0.930 . S
H235 C208 0.929 . S
H236 C213 0.930 . S
H237 C214 0.929 . S
H238 C216 0.930 . S
H239 C217 0.929 . S
Nd240 C242 2.836 . S
Nd240 O260 2.500 . S
Nd240 O261 2.492 . S
Nd240 O262 2.487 . S
Nd240 O263 2.682 . S
Nd240 O264 2.410 . S
Nd240 O269 2.414 . S
Nd240 O271 2.424 . S
Nd241 C251 2.836 . S
Nd241 O263 2.414 . S
Nd241 O265 2.424 . S
Nd241 O266 2.500 . S
Nd241 O267 2.492 . S
Nd241 O268 2.487 . S
Nd241 O269 2.682 . S
Nd241 O270 2.410 . S
C242 Nd240 2.836 . S
C242 C243 1.498 . S
C242 O260 1.258 . S
C242 O261 1.239 . S
C243 C242 1.498 . S
C243 C244 1.366 . S
C243 C248 1.407 . S
C244 C243 1.366 . S
C244 C245 1.392 . S
C244 H272 0.930 . S
C245 C244 1.392 . S
C245 C246 1.398 . S
C245 H273 0.929 . S
C246 C245 1.398 . S
C246 C247 1.352 . S
C247 C246 1.352 . S
C247 C248 1.384 . S
C247 H274 0.930 . S
C248 C243 1.407 . S
C248 C247 1.384 . S
C248 H275 0.929 . S
C249 O262 1.241 . S
C249 O263 1.273 . S
C250 O264 1.251 . S
C250 O265 1.268 . S
C251 Nd241 2.836 . S
C251 C252 1.498 . S
C251 O266 1.258 . S
C251 O267 1.239 . S
C252 C251 1.498 . S
C252 C253 1.366 . S
C252 C257 1.407 1_545 S
C253 C252 1.366 . S
C253 C254 1.392 . S
C253 H276 0.930 . S
C254 C253 1.392 . S
C254 C255 1.398 . S
C254 H277 0.929 . S
C255 C254 1.398 . S
C255 C256 1.352 1_545 S
C256 C255 1.352 1_565 S
C256 C257 1.384 . S
C256 H278 0.930 . S
C257 C252 1.407 1_565 S
C257 C256 1.384 . S
C257 H279 0.929 . S
C258 O268 1.241 . S
C258 O269 1.273 . S
C259 O270 1.251 . S
C259 O271 1.268 . S
O260 Nd240 2.500 . S
O260 C242 1.258 . S
O261 Nd240 2.492 . S
O261 C242 1.239 . S
O262 Nd240 2.487 . S
O262 C249 1.241 . S
O263 Nd240 2.682 . S
O263 Nd241 2.414 . S
O263 C249 1.273 . S
O264 Nd240 2.410 . S
O264 C250 1.251 . S
O265 Nd241 2.424 . S
O265 C250 1.268 . S
O266 Nd241 2.500 . S
O266 C251 1.258 . S
O267 Nd241 2.492 . S
O267 C251 1.239 . S
O268 Nd241 2.487 . S
O268 C258 1.241 . S
O269 Nd240 2.414 . S
O269 Nd241 2.682 . S
O269 C258 1.273 . S
O270 Nd241 2.410 . S
O270 C259 1.251 . S
O271 Nd240 2.424 . S
O271 C259 1.268 . S
H272 C244 0.930 . S
H273 C245 0.929 . S
H274 C247 0.930 . S
H275 C248 0.929 . S
H276 C253 0.930 . S
H277 C254 0.929 . S
H278 C256 0.930 . S
H279 C257 0.929 . S
Nd280 C282 2.836 1_556 S
Nd280 O300 2.452 1_556 S
Nd280 O301 2.492 . S
Nd280 O302 2.487 . S
Nd280 O303 2.682 . S
Nd280 O304 2.410 . S
Nd280 O309 2.414 . S
Nd280 O311 2.424 . S
Nd281 C291 2.836 . S
Nd281 O303 2.414 . S
Nd281 O305 2.424 . S
Nd281 O306 2.500 . S
Nd281 O307 2.492 . S
Nd281 O308 2.487 . S
Nd281 O309 2.682 . S
Nd281 O310 2.410 . S
C282 Nd280 2.836 1_554 S
C282 C283 1.498 . S
C282 O300 1.265 . S
C282 O301 1.239 1_554 S
C283 C282 1.498 . S
C283 C284 1.366 . S
C283 C288 1.407 . S
C284 C283 1.366 . S
C284 C285 1.392 . S
C284 H312 0.930 . S
C285 C284 1.392 . S
C285 C286 1.398 . S
C285 H313 0.929 . S
C286 C285 1.398 . S
C286 C287 1.352 . S
C287 C286 1.352 . S
C287 C288 1.384 . S
C287 H314 0.930 . S
C288 C283 1.407 . S
C288 C287 1.384 . S
C288 H315 0.929 . S
C289 O302 1.241 . S
C289 O303 1.273 . S
C290 O304 1.251 . S
C290 O305 1.268 . S
C291 Nd281 2.836 . S
C291 C292 1.498 . S
C291 O306 1.258 . S
C291 O307 1.239 . S
C292 C291 1.498 . S
C292 C293 1.366 . S
C292 C297 1.407 . S
C293 C292 1.366 . S
C293 C294 1.392 . S
C293 H316 0.930 . S
C294 C293 1.392 . S
C294 C295 1.398 . S
C294 H317 0.929 . S
C295 C294 1.398 . S
C295 C296 1.352 . S
C296 C295 1.352 . S
C296 C297 1.384 . S
C296 H318 0.930 . S
C297 C292 1.407 . S
C297 C296 1.384 . S
C297 H319 0.929 . S
C298 O308 1.241 . S
C298 O309 1.273 . S
C299 O310 1.251 . S
C299 O311 1.268 . S
O300 Nd280 2.452 1_554 S
O300 C282 1.265 . S
O301 Nd280 2.492 . S
O301 C282 1.239 1_556 S
O302 Nd280 2.487 . S
O302 C289 1.241 . S
O303 Nd280 2.682 . S
O303 Nd281 2.414 . S
O303 C289 1.273 . S
O304 Nd280 2.410 . S
O304 C290 1.251 . S
O305 Nd281 2.424 . S
O305 C290 1.268 . S
O306 Nd281 2.500 . S
O306 C291 1.258 . S
O307 Nd281 2.492 . S
O307 C291 1.239 . S
O308 Nd281 2.487 . S
O308 C298 1.241 . S
O309 Nd280 2.414 . S
O309 Nd281 2.682 . S
O309 C298 1.273 . S
O310 Nd281 2.410 . S
O310 C299 1.251 . S
O311 Nd280 2.424 . S
O311 C299 1.268 . S
H312 C284 0.930 . S
H313 C285 0.929 . S
H314 C287 0.930 . S
H315 C288 0.929 . S
H316 C293 0.930 . S
H317 C294 0.929 . S
H318 C296 0.930 . S
H319 C297 0.929 . S
Nd320 C322 2.836 . S
Nd320 O340 2.500 . S
Nd320 O341 2.492 . S
Nd320 O342 2.487 . S
Nd320 O343 2.682 . S
Nd320 O344 2.410 . S
Nd320 O349 2.414 . S
Nd320 O351 2.424 . S
Nd321 C331 2.836 . S
Nd321 O343 2.414 . S
Nd321 O345 2.424 . S
Nd321 O346 2.500 . S
Nd321 O347 2.492 . S
Nd321 O348 2.487 . S
Nd321 O349 2.682 . S
Nd321 O350 2.410 . S
C322 Nd320 2.836 . S
C322 C323 1.498 . S
C322 O340 1.258 . S
C322 O341 1.239 . S
C323 C322 1.498 . S
C323 C324 1.366 . S
C323 C328 1.407 1_565 S
C324 C323 1.366 . S
C324 C325 1.392 . S
C324 H352 0.930 . S
C325 C324 1.392 . S
C325 C326 1.398 . S
C325 H353 0.929 . S
C326 C325 1.398 . S
C326 C327 1.352 1_565 S
C327 C326 1.352 1_545 S
C327 C328 1.384 . S
C327 H354 0.930 . S
C328 C323 1.407 1_545 S
C328 C327 1.384 . S
C328 H355 0.929 . S
C329 O342 1.241 . S
C329 O343 1.273 . S
C330 O344 1.251 . S
C330 O345 1.268 . S
C331 Nd321 2.836 . S
C331 C332 1.498 . S
C331 O346 1.258 . S
C331 O347 1.239 . S
C332 C331 1.498 . S
C332 C333 1.366 . S
C332 C337 1.407 . S
C333 C332 1.366 . S
C333 C334 1.392 . S
C333 H356 0.930 . S
C334 C333 1.392 . S
C334 C335 1.398 . S
C334 H357 0.929 . S
C335 C334 1.398 . S
C335 C336 1.352 . S
C336 C335 1.352 . S
C336 C337 1.384 . S
C336 H358 0.930 . S
C337 C332 1.407 . S
C337 C336 1.384 . S
C337 H359 0.929 . S
C338 O348 1.241 . S
C338 O349 1.273 . S
C339 O350 1.251 . S
C339 O351 1.268 . S
O340 Nd320 2.500 . S
O340 C322 1.258 . S
O341 Nd320 2.492 . S
O341 C322 1.239 . S
O342 Nd320 2.487 . S
O342 C329 1.241 . S
O343 Nd320 2.682 . S
O343 Nd321 2.414 . S
O343 C329 1.273 . S
O344 Nd320 2.410 . S
O344 C330 1.251 . S
O345 Nd321 2.424 . S
O345 C330 1.268 . S
O346 Nd321 2.500 . S
O346 C331 1.258 . S
O347 Nd321 2.492 . S
O347 C331 1.239 . S
O348 Nd321 2.487 . S
O348 C338 1.241 . S
O349 Nd320 2.414 . S
O349 Nd321 2.682 . S
O349 C338 1.273 . S
O350 Nd321 2.410 . S
O350 C339 1.251 . S
O351 Nd320 2.424 . S
O351 C339 1.268 . S
H352 C324 0.930 . S
H353 C325 0.929 . S
H354 C327 0.930 . S
H355 C328 0.929 . S
H356 C333 0.930 . S
H357 C334 0.929 . S
H358 C336 0.930 . S
H359 C337 0.929 . S
Nd360 C362 2.836 . S
Nd360 O380 2.500 . S
Nd360 O381 2.492 . S
Nd360 O382 2.487 . S
Nd360 O383 2.682 . S
Nd360 O384 2.410 . S
Nd360 O389 2.414 . S
Nd360 O391 2.424 . S
Nd361 C371 2.836 . S
Nd361 O383 2.414 . S
Nd361 O385 2.424 . S
Nd361 O386 2.500 . S
Nd361 O387 2.492 . S
Nd361 O388 2.487 . S
Nd361 O389 2.682 . S
Nd361 O390 2.410 . S
C362 Nd360 2.836 . S
C362 C363 1.498 . S
C362 O380 1.258 . S
C362 O381 1.239 . S
C363 C362 1.498 . S
C363 C364 1.366 . S
C363 C368 1.407 . S
C364 C363 1.366 . S
C364 C365 1.392 . S
C364 H392 0.930 . S
C365 C364 1.392 . S
C365 C366 1.398 . S
C365 H393 0.929 . S
C366 C365 1.398 . S
C366 C367 1.352 . S
C367 C366 1.352 . S
C367 C368 1.384 . S
C367 H394 0.930 . S
C368 C363 1.407 . S
C368 C367 1.384 . S
C368 H395 0.929 . S
C369 O382 1.241 . S
C369 O383 1.273 . S
C370 O384 1.251 . S
C370 O385 1.268 . S
C371 Nd361 2.836 . S
C371 C372 1.498 . S
C371 O386 1.258 . S
C371 O387 1.239 . S
C372 C371 1.498 . S
C372 C373 1.366 . S
C372 C377 1.407 . S
C373 C372 1.366 . S
C373 C374 1.392 . S
C373 H396 0.930 . S
C374 C373 1.392 . S
C374 C375 1.398 . S
C374 H397 0.929 . S
C375 C374 1.398 . S
C375 C376 1.352 . S
C376 C375 1.352 . S
C376 C377 1.384 . S
C376 H398 0.930 . S
C377 C372 1.407 . S
C377 C376 1.384 . S
C377 H399 0.929 . S
C378 O388 1.241 . S
C378 O389 1.273 . S
C379 O390 1.251 . S
C379 O391 1.268 . S
O380 Nd360 2.500 . S
O380 C362 1.258 . S
O381 Nd360 2.492 . S
O381 C362 1.239 . S
O382 Nd360 2.487 . S
O382 C369 1.241 . S
O383 Nd360 2.682 . S
O383 Nd361 2.414 . S
O383 C369 1.273 . S
O384 Nd360 2.410 . S
O384 C370 1.251 . S
O385 Nd361 2.424 . S
O385 C370 1.268 . S
O386 Nd361 2.500 . S
O386 C371 1.258 . S
O387 Nd361 2.492 . S
O387 C371 1.239 . S
O388 Nd361 2.487 . S
O388 C378 1.241 . S
O389 Nd360 2.414 . S
O389 Nd361 2.682 . S
O389 C378 1.273 . S
O390 Nd361 2.410 . S
O390 C379 1.251 . S
O391 Nd360 2.424 . S
O391 C379 1.268 . S
H392 C364 0.930 . S
H393 C365 0.929 . S
H394 C367 0.930 . S
H395 C368 0.929 . S
H396 C373 0.930 . S
H397 C374 0.929 . S
H398 C376 0.930 . S
H399 C377 0.929 . S
Nd400 C402 2.836 . S
Nd400 O420 2.500 . S
Nd400 O421 2.492 . S
Nd400 O422 2.487 . S
Nd400 O423 2.682 . S
Nd400 O424 2.410 . S
Nd400 O429 2.414 . S
Nd400 O431 2.424 . S
Nd401 C411 2.836 . S
Nd401 O423 2.414 . S
Nd401 O425 2.424 . S
Nd401 O426 2.500 . S
Nd401 O427 2.492 . S
Nd401 O428 2.487 . S
Nd401 O429 2.682 . S
Nd401 O430 2.410 . S
C402 Nd400 2.836 . S
C402 C403 1.498 . S
C402 O420 1.258 . S
C402 O421 1.239 . S
C403 C402 1.498 . S
C403 C404 1.366 . S
C403 C408 1.407 1_545 S
C404 C403 1.366 . S
C404 C405 1.392 . S
C404 H432 0.930 . S
C405 C404 1.392 . S
C405 C406 1.398 . S
C405 H433 0.929 . S
C406 C405 1.398 . S
C406 C407 1.352 1_545 S
C407 C406 1.352 1_565 S
C407 C408 1.384 . S
C407 H434 0.930 . S
C408 C403 1.407 1_565 S
C408 C407 1.384 . S
C408 H435 0.929 . S
C409 O422 1.241 . S
C409 O423 1.273 . S
C410 O424 1.251 . S
C410 O425 1.268 . S
C411 Nd401 2.836 . S
C411 C412 1.498 . S
C411 O426 1.258 . S
C411 O427 1.239 . S
C412 C411 1.498 . S
C412 C413 1.366 . S
C412 C417 1.407 . S
C413 C412 1.366 . S
C413 C414 1.392 . S
C413 H436 0.930 . S
C414 C413 1.392 . S
C414 C415 1.398 . S
C414 H437 0.929 . S
C415 C414 1.398 . S
C415 C416 1.352 . S
C416 C415 1.352 . S
C416 C417 1.384 . S
C416 H438 0.930 . S
C417 C412 1.407 . S
C417 C416 1.384 . S
C417 H439 0.929 . S
C418 O428 1.241 . S
C418 O429 1.273 . S
C419 O430 1.251 . S
C419 O431 1.268 . S
O420 Nd400 2.500 . S
O420 C402 1.258 . S
O421 Nd400 2.492 . S
O421 C402 1.239 . S
O422 Nd400 2.487 . S
O422 C409 1.241 . S
O423 Nd400 2.682 . S
O423 Nd401 2.414 . S
O423 C409 1.273 . S
O424 Nd400 2.410 . S
O424 C410 1.251 . S
O425 Nd401 2.424 . S
O425 C410 1.268 . S
O426 Nd401 2.500 . S
O426 C411 1.258 . S
O427 Nd401 2.492 . S
O427 C411 1.239 . S
O428 Nd401 2.487 . S
O428 C418 1.241 . S
O429 Nd400 2.414 . S
O429 Nd401 2.682 . S
O429 C418 1.273 . S
O430 Nd401 2.410 . S
O430 C419 1.251 . S
O431 Nd400 2.424 . S
O431 C419 1.268 . S
H432 C404 0.930 . S
H433 C405 0.929 . S
H434 C407 0.930 . S
H435 C408 0.929 . S
H436 C413 0.930 . S
H437 C414 0.929 . S
H438 C416 0.930 . S
H439 C417 0.929 . S
Nd440 C442 2.836 . S
Nd440 O460 2.500 . S
Nd440 O461 2.492 . S
Nd440 O462 2.487 . S
Nd440 O463 2.682 . S
Nd440 O464 2.410 . S
Nd440 O469 2.414 . S
Nd440 O471 2.424 . S
Nd441 C451 2.836 1_556 S
Nd441 O463 2.414 . S
Nd441 O465 2.424 . S
Nd441 O466 2.451 1_556 S
Nd441 O467 2.492 . S
Nd441 O468 2.487 . S
Nd441 O469 2.682 . S
Nd441 O470 2.410 . S
C442 Nd440 2.836 . S
C442 C443 1.498 . S
C442 O460 1.258 . S
C442 O461 1.239 . S
C443 C442 1.498 . S
C443 C444 1.366 . S
C443 C448 1.407 . S
C444 C443 1.366 . S
C444 C445 1.392 . S
C444 H472 0.930 . S
C445 C444 1.392 . S
C445 C446 1.398 . S
C445 H473 0.929 . S
C446 C445 1.398 . S
C446 C447 1.352 . S
C447 C446 1.352 . S
C447 C448 1.384 . S
C447 H474 0.930 . S
C448 C443 1.407 . S
C448 C447 1.384 . S
C448 H475 0.929 . S
C449 O462 1.241 . S
C449 O463 1.273 . S
C450 O464 1.251 . S
C450 O465 1.268 . S
C451 Nd441 2.836 1_554 S
C451 C452 1.498 . S
C451 O466 1.265 . S
C451 O467 1.239 1_554 S
C452 C451 1.498 . S
C452 C453 1.366 . S
C452 C457 1.407 . S
C453 C452 1.366 . S
C453 C454 1.392 . S
C453 H476 0.930 . S
C454 C453 1.392 . S
C454 C455 1.398 . S
C454 H477 0.929 . S
C455 C454 1.398 . S
C455 C456 1.352 . S
C456 C455 1.352 . S
C456 C457 1.384 . S
C456 H478 0.930 . S
C457 C452 1.407 . S
C457 C456 1.384 . S
C457 H479 0.929 . S
C458 O468 1.241 . S
C458 O469 1.273 . S
C459 O470 1.251 . S
C459 O471 1.268 . S
O460 Nd440 2.500 . S
O460 C442 1.258 . S
O461 Nd440 2.492 . S
O461 C442 1.239 . S
O462 Nd440 2.487 . S
O462 C449 1.241 . S
O463 Nd440 2.682 . S
O463 Nd441 2.414 . S
O463 C449 1.273 . S
O464 Nd440 2.410 . S
O464 C450 1.251 . S
O465 Nd441 2.424 . S
O465 C450 1.268 . S
O466 Nd441 2.451 1_554 S
O466 C451 1.265 . S
O467 Nd441 2.492 . S
O467 C451 1.239 1_556 S
O468 Nd441 2.487 . S
O468 C458 1.241 . S
O469 Nd440 2.414 . S
O469 Nd441 2.682 . S
O469 C458 1.273 . S
O470 Nd441 2.410 . S
O470 C459 1.251 . S
O471 Nd440 2.424 . S
O471 C459 1.268 . S
H472 C444 0.930 . S
H473 C445 0.929 . S
H474 C447 0.930 . S
H475 C448 0.929 . S
H476 C453 0.930 . S
H477 C454 0.929 . S
H478 C456 0.930 . S
H479 C457 0.929 . S
Nd480 C482 2.836 . S
Nd480 O500 2.500 . S
Nd480 O501 2.492 . S
Nd480 O502 2.487 . S
Nd480 O503 2.682 . S
Nd480 O504 2.410 . S
Nd480 O509 2.414 . S
Nd480 O511 2.424 . S
Nd481 C491 2.836 . S
Nd481 O503 2.414 . S
Nd481 O505 2.424 . S
Nd481 O506 2.500 . S
Nd481 O507 2.492 . S
Nd481 O508 2.487 . S
Nd481 O509 2.682 . S
Nd481 O510 2.410 . S
C482 Nd480 2.836 . S
C482 C483 1.498 . S
C482 O500 1.258 . S
C482 O501 1.239 . S
C483 C482 1.498 . S
C483 C484 1.366 . S
C483 C488 1.407 1_545 S
C484 C483 1.366 . S
C484 C485 1.392 . S
C484 H512 0.930 . S
C485 C484 1.392 . S
C485 C486 1.398 . S
C485 H513 0.929 . S
C486 C485 1.398 . S
C486 C487 1.352 1_545 S
C487 C486 1.352 1_565 S
C487 C488 1.384 . S
C487 H514 0.930 . S
C488 C483 1.407 1_565 S
C488 C487 1.384 . S
C488 H515 0.929 . S
C489 O502 1.241 . S
C489 O503 1.273 . S
C490 O504 1.251 . S
C490 O505 1.268 . S
C491 Nd481 2.836 . S
C491 C492 1.498 . S
C491 O506 1.258 . S
C491 O507 1.239 . S
C492 C491 1.498 . S
C492 C493 1.366 . S
C492 C497 1.407 . S
C493 C492 1.366 . S
C493 C494 1.392 . S
C493 H516 0.930 . S
C494 C493 1.392 . S
C494 C495 1.398 . S
C494 H517 0.929 . S
C495 C494 1.398 . S
C495 C496 1.352 . S
C496 C495 1.352 . S
C496 C497 1.384 . S
C496 H518 0.930 . S
C497 C492 1.407 . S
C497 C496 1.384 . S
C497 H519 0.929 . S
C498 O508 1.241 . S
C498 O509 1.273 . S
C499 O510 1.251 . S
C499 O511 1.268 . S
O500 Nd480 2.500 . S
O500 C482 1.258 . S
O501 Nd480 2.492 . S
O501 C482 1.239 . S
O502 Nd480 2.487 . S
O502 C489 1.241 . S
O503 Nd480 2.682 . S
O503 Nd481 2.414 . S
O503 C489 1.273 . S
O504 Nd480 2.410 . S
O504 C490 1.251 . S
O505 Nd481 2.424 . S
O505 C490 1.268 . S
O506 Nd481 2.500 . S
O506 C491 1.258 . S
O507 Nd481 2.492 . S
O507 C491 1.239 . S
O508 Nd481 2.487 . S
O508 C498 1.241 . S
O509 Nd480 2.414 . S
O509 Nd481 2.682 . S
O509 C498 1.273 . S
O510 Nd481 2.410 . S
O510 C499 1.251 . S
O511 Nd480 2.424 . S
O511 C499 1.268 . S
H512 C484 0.930 . S
H513 C485 0.929 . S
H514 C487 0.930 . S
H515 C488 0.929 . S
H516 C493 0.930 . S
H517 C494 0.929 . S
H518 C496 0.930 . S
H519 C497 0.929 . S
Nd520 C522 2.836 . S
Nd520 O540 2.500 . S
Nd520 O541 2.492 . S
Nd520 O542 2.487 . S
Nd520 O543 2.682 . S
Nd520 O544 2.410 . S
Nd520 O549 2.414 . S
Nd520 O551 2.424 . S
Nd521 C531 2.836 . S
Nd521 O543 2.414 . S
Nd521 O545 2.424 . S
Nd521 O546 2.500 . S
Nd521 O547 2.492 . S
Nd521 O548 2.487 . S
Nd521 O549 2.682 . S
Nd521 O550 2.410 . S
C522 Nd520 2.836 . S
C522 C523 1.498 . S
C522 O540 1.258 . S
C522 O541 1.239 . S
C523 C522 1.498 . S
C523 C524 1.366 . S
C523 C528 1.407 . S
C524 C523 1.366 . S
C524 C525 1.392 . S
C524 H552 0.930 . S
C525 C524 1.392 . S
C525 C526 1.398 . S
C525 H553 0.929 . S
C526 C525 1.398 . S
C526 C527 1.352 . S
C527 C526 1.352 . S
C527 C528 1.384 . S
C527 H554 0.930 . S
C528 C523 1.407 . S
C528 C527 1.384 . S
C528 H555 0.929 . S
C529 O542 1.241 . S
C529 O543 1.273 . S
C530 O544 1.251 . S
C530 O545 1.268 . S
C531 Nd521 2.836 . S
C531 C532 1.498 . S
C531 O546 1.258 . S
C531 O547 1.239 . S
C532 C531 1.498 . S
C532 C533 1.366 . S
C532 C537 1.407 . S
C533 C532 1.366 . S
C533 C534 1.392 . S
C533 H556 0.930 . S
C534 C533 1.392 . S
C534 C535 1.398 . S
C534 H557 0.929 . S
C535 C534 1.398 . S
C535 C536 1.352 . S
C536 C535 1.352 . S
C536 C537 1.384 . S
C536 H558 0.930 . S
C537 C532 1.407 . S
C537 C536 1.384 . S
C537 H559 0.929 . S
C538 O548 1.241 . S
C538 O549 1.273 . S
C539 O550 1.251 . S
C539 O551 1.268 . S
O540 Nd520 2.500 . S
O540 C522 1.258 . S
O541 Nd520 2.492 . S
O541 C522 1.239 . S
O542 Nd520 2.487 . S
O542 C529 1.241 . S
O543 Nd520 2.682 . S
O543 Nd521 2.414 . S
O543 C529 1.273 . S
O544 Nd520 2.410 . S
O544 C530 1.251 . S
O545 Nd521 2.424 . S
O545 C530 1.268 . S
O546 Nd521 2.500 . S
O546 C531 1.258 . S
O547 Nd521 2.492 . S
O547 C531 1.239 . S
O548 Nd521 2.487 . S
O548 C538 1.241 . S
O549 Nd520 2.414 . S
O549 Nd521 2.682 . S
O549 C538 1.273 . S
O550 Nd521 2.410 . S
O550 C539 1.251 . S
O551 Nd520 2.424 . S
O551 C539 1.268 . S
H552 C524 0.930 . S
H553 C525 0.929 . S
H554 C527 0.930 . S
H555 C528 0.929 . S
H556 C533 0.930 . S
H557 C534 0.929 . S
H558 C536 0.930 . S
H559 C537 0.929 . S
Nd560 C562 2.836 . S
Nd560 O580 2.500 . S
Nd560 O581 2.492 . S
Nd560 O582 2.487 . S
Nd560 O583 2.682 . S
Nd560 O584 2.410 . S
Nd560 O589 2.414 . S
Nd560 O591 2.424 . S
Nd561 C571 2.836 . S
Nd561 O583 2.414 . S
Nd561 O585 2.424 . S
Nd561 O586 2.500 . S
Nd561 O587 2.492 . S
Nd561 O588 2.487 . S
Nd561 O589 2.682 . S
Nd561 O590 2.410 . S
C562 Nd560 2.836 . S
C562 C563 1.498 . S
C562 O580 1.258 . S
C562 O581 1.239 . S
C563 C562 1.498 . S
C563 C564 1.366 . S
C563 C568 1.407 1_565 S
C564 C563 1.366 . S
C564 C565 1.392 . S
C564 H592 0.930 . S
C565 C564 1.392 . S
C565 C566 1.398 . S
C565 H593 0.929 . S
C566 C565 1.398 . S
C566 C567 1.352 1_565 S
C567 C566 1.352 1_545 S
C567 C568 1.384 . S
C567 H594 0.930 . S
C568 C563 1.407 1_545 S
C568 C567 1.384 . S
C568 H595 0.929 . S
C569 O582 1.241 . S
C569 O583 1.273 . S
C570 O584 1.251 . S
C570 O585 1.268 . S
C571 Nd561 2.836 . S
C571 C572 1.498 . S
C571 O586 1.258 . S
C571 O587 1.239 . S
C572 C571 1.498 . S
C572 C573 1.366 . S
C572 C577 1.407 . S
C573 C572 1.366 . S
C573 C574 1.392 . S
C573 H596 0.930 . S
C574 C573 1.392 . S
C574 C575 1.398 . S
C574 H597 0.929 . S
C575 C574 1.398 . S
C575 C576 1.352 . S
C576 C575 1.352 . S
C576 C577 1.384 . S
C576 H598 0.930 . S
C577 C572 1.407 . S
C577 C576 1.384 . S
C577 H599 0.929 . S
C578 O588 1.241 . S
C578 O589 1.273 . S
C579 O590 1.251 . S
C579 O591 1.268 . S
O580 Nd560 2.500 . S
O580 C562 1.258 . S
O581 Nd560 2.492 . S
O581 C562 1.239 . S
O582 Nd560 2.487 . S
O582 C569 1.241 . S
O583 Nd560 2.682 . S
O583 Nd561 2.414 . S
O583 C569 1.273 . S
O584 Nd560 2.410 . S
O584 C570 1.251 . S
O585 Nd561 2.424 . S
O585 C570 1.268 . S
O586 Nd561 2.500 . S
O586 C571 1.258 . S
O587 Nd561 2.492 . S
O587 C571 1.239 . S
O588 Nd561 2.487 . S
O588 C578 1.241 . S
O589 Nd560 2.414 . S
O589 Nd561 2.682 . S
O589 C578 1.273 . S
O590 Nd561 2.410 . S
O590 C579 1.251 . S
O591 Nd560 2.424 . S
O591 C579 1.268 . S
H592 C564 0.930 . S
H593 C565 0.929 . S
H594 C567 0.930 . S
H595 C568 0.929 . S
H596 C573 0.930 . S
H597 C574 0.929 . S
H598 C576 0.930 . S
H599 C577 0.929 . S
Nd600 C602 2.836 . S
Nd600 O620 2.500 . S
Nd600 O621 2.492 . S
Nd600 O622 2.487 . S
Nd600 O623 2.682 . S
Nd600 O624 2.410 . S
Nd600 O629 2.414 . S
Nd600 O631 2.424 . S
Nd601 C611 2.836 1_554 S
Nd601 O623 2.414 . S
Nd601 O625 2.424 . S
Nd601 O626 2.451 1_554 S
Nd601 O627 2.492 . S
Nd601 O628 2.487 . S
Nd601 O629 2.682 . S
Nd601 O630 2.410 . S
C602 Nd600 2.836 . S
C602 C603 1.498 . S
C602 O620 1.258 . S
C602 O621 1.239 . S
C603 C602 1.498 . S
C603 C604 1.366 . S
C603 C608 1.407 . S
C604 C603 1.366 . S
C604 C605 1.392 . S
C604 H632 0.930 . S
C605 C604 1.392 . S
C605 C606 1.398 . S
C605 H633 0.929 . S
C606 C605 1.398 . S
C606 C607 1.352 . S
C607 C606 1.352 . S
C607 C608 1.384 . S
C607 H634 0.930 . S
C608 C603 1.407 . S
C608 C607 1.384 . S
C608 H635 0.929 . S
C609 O622 1.241 . S
C609 O623 1.273 . S
C610 O624 1.251 . S
C610 O625 1.268 . S
C611 Nd601 2.836 1_556 S
C611 C612 1.498 . S
C611 O626 1.265 . S
C611 O627 1.239 1_556 S
C612 C611 1.498 . S
C612 C613 1.366 . S
C612 C617 1.407 . S
C613 C612 1.366 . S
C613 C614 1.392 . S
C613 H636 0.930 . S
C614 C613 1.392 . S
C614 C615 1.398 . S
C614 H637 0.929 . S
C615 C614 1.398 . S
C615 C616 1.352 . S
C616 C615 1.352 . S
C616 C617 1.384 . S
C616 H638 0.930 . S
C617 C612 1.407 . S
C617 C616 1.384 . S
C617 H639 0.929 . S
C618 O628 1.241 . S
C618 O629 1.273 . S
C619 O630 1.251 . S
C619 O631 1.268 . S
O620 Nd600 2.500 . S
O620 C602 1.258 . S
O621 Nd600 2.492 . S
O621 C602 1.239 . S
O622 Nd600 2.487 . S
O622 C609 1.241 . S
O623 Nd600 2.682 . S
O623 Nd601 2.414 . S
O623 C609 1.273 . S
O624 Nd600 2.410 . S
O624 C610 1.251 . S
O625 Nd601 2.424 . S
O625 C610 1.268 . S
O626 Nd601 2.451 1_556 S
O626 C611 1.265 . S
O627 Nd601 2.492 . S
O627 C611 1.239 1_554 S
O628 Nd601 2.487 . S
O628 C618 1.241 . S
O629 Nd600 2.414 . S
O629 Nd601 2.682 . S
O629 C618 1.273 . S
O630 Nd601 2.410 . S
O630 C619 1.251 . S
O631 Nd600 2.424 . S
O631 C619 1.268 . S
H632 C604 0.930 . S
H633 C605 0.929 . S
H634 C607 0.930 . S
H635 C608 0.929 . S
H636 C613 0.930 . S
H637 C614 0.929 . S
H638 C616 0.930 . S
H639 C617 0.929 . S
Nd640 C642 2.836 . S
Nd640 O660 2.500 . S
Nd640 O661 2.492 . S
Nd640 O662 2.487 . S
Nd640 O663 2.682 . S
Nd640 O664 2.410 . S
Nd640 O669 2.414 . S
Nd640 O671 2.424 . S
Nd641 C651 2.836 . S
Nd641 O663 2.414 . S
Nd641 O665 2.424 . S
Nd641 O666 2.500 . S
Nd641 O667 2.492 . S
Nd641 O668 2.487 . S
Nd641 O669 2.682 . S
Nd641 O670 2.410 . S
C642 Nd640 2.836 . S
C642 C643 1.498 . S
C642 O660 1.258 . S
C642 O661 1.239 . S
C643 C642 1.498 . S
C643 C644 1.366 . S
C643 C648 1.407 . S
C644 C643 1.366 . S
C644 C645 1.392 . S
C644 H672 0.930 . S
C645 C644 1.392 . S
C645 C646 1.398 . S
C645 H673 0.929 . S
C646 C645 1.398 . S
C646 C647 1.352 . S
C647 C646 1.352 . S
C647 C648 1.384 . S
C647 H674 0.930 . S
C648 C643 1.407 . S
C648 C647 1.384 . S
C648 H675 0.929 . S
C649 O662 1.241 . S
C649 O663 1.273 . S
C650 O664 1.251 . S
C650 O665 1.268 . S
C651 Nd641 2.836 . S
C651 C652 1.498 . S
C651 O666 1.258 . S
C651 O667 1.239 . S
C652 C651 1.498 . S
C652 C653 1.366 . S
C652 C657 1.407 . S
C653 C652 1.366 . S
C653 C654 1.392 . S
C653 H676 0.930 . S
C654 C653 1.392 . S
C654 C655 1.398 . S
C654 H677 0.929 . S
C655 C654 1.398 . S
C655 C656 1.352 . S
C656 C655 1.352 . S
C656 C657 1.384 . S
C656 H678 0.930 . S
C657 C652 1.407 . S
C657 C656 1.384 . S
C657 H679 0.929 . S
C658 O668 1.241 . S
C658 O669 1.273 . S
C659 O670 1.251 . S
C659 O671 1.268 . S
O660 Nd640 2.500 . S
O660 C642 1.258 . S
O661 Nd640 2.492 . S
O661 C642 1.239 . S
O662 Nd640 2.487 . S
O662 C649 1.241 . S
O663 Nd640 2.682 . S
O663 Nd641 2.414 . S
O663 C649 1.273 . S
O664 Nd640 2.410 . S
O664 C650 1.251 . S
O665 Nd641 2.424 . S
O665 C650 1.268 . S
O666 Nd641 2.500 . S
O666 C651 1.258 . S
O667 Nd641 2.492 . S
O667 C651 1.239 . S
O668 Nd641 2.487 . S
O668 C658 1.241 . S
O669 Nd640 2.414 . S
O669 Nd641 2.682 . S
O669 C658 1.273 . S
O670 Nd641 2.410 . S
O670 C659 1.251 . S
O671 Nd640 2.424 . S
O671 C659 1.268 . S
H672 C644 0.930 . S
H673 C645 0.929 . S
H674 C647 0.930 . S
H675 C648 0.929 . S
H676 C653 0.930 . S
H677 C654 0.929 . S
H678 C656 0.930 . S
H679 C657 0.929 . S
Nd680 C682 2.836 1_554 S
Nd680 O700 2.452 1_554 S
Nd680 O701 2.492 . S
Nd680 O702 2.487 . S
Nd680 O703 2.682 . S
Nd680 O704 2.410 . S
Nd680 O709 2.414 . S
Nd680 O711 2.424 . S
Nd681 C691 2.836 . S
Nd681 O703 2.414 . S
Nd681 O705 2.424 . S
Nd681 O706 2.500 . S
Nd681 O707 2.492 . S
Nd681 O708 2.487 . S
Nd681 O709 2.682 . S
Nd681 O710 2.410 . S
C682 Nd680 2.836 1_556 S
C682 C683 1.498 . S
C682 O700 1.265 . S
C682 O701 1.239 1_556 S
C683 C682 1.498 . S
C683 C684 1.366 . S
C683 C688 1.407 . S
C684 C683 1.366 . S
C684 C685 1.392 . S
C684 H712 0.930 . S
C685 C684 1.392 . S
C685 C686 1.398 . S
C685 H713 0.929 . S
C686 C685 1.398 . S
C686 C687 1.352 . S
C687 C686 1.352 . S
C687 C688 1.384 . S
C687 H714 0.930 . S
C688 C683 1.407 . S
C688 C687 1.384 . S
C688 H715 0.929 . S
C689 O702 1.241 . S
C689 O703 1.273 . S
C690 O704 1.251 . S
C690 O705 1.268 . S
C691 Nd681 2.836 . S
C691 C692 1.498 . S
C691 O706 1.258 . S
C691 O707 1.239 . S
C692 C691 1.498 . S
C692 C693 1.366 . S
C692 C697 1.407 . S
C693 C692 1.366 . S
C693 C694 1.392 . S
C693 H716 0.930 . S
C694 C693 1.392 . S
C694 C695 1.398 . S
C694 H717 0.929 . S
C695 C694 1.398 . S
C695 C696 1.352 . S
C696 C695 1.352 . S
C696 C697 1.384 . S
C696 H718 0.930 . S
C697 C692 1.407 . S
C697 C696 1.384 . S
C697 H719 0.929 . S
C698 O708 1.241 . S
C698 O709 1.273 . S
C699 O710 1.251 . S
C699 O711 1.268 . S
O700 Nd680 2.452 1_556 S
O700 C682 1.265 . S
O701 Nd680 2.492 . S
O701 C682 1.239 1_554 S
O702 Nd680 2.487 . S
O702 C689 1.241 . S
O703 Nd680 2.682 . S
O703 Nd681 2.414 . S
O703 C689 1.273 . S
O704 Nd680 2.410 . S
O704 C690 1.251 . S
O705 Nd681 2.424 . S
O705 C690 1.268 . S
O706 Nd681 2.500 . S
O706 C691 1.258 . S
O707 Nd681 2.492 . S
O707 C691 1.239 . S
O708 Nd681 2.487 . S
O708 C698 1.241 . S
O709 Nd680 2.414 . S
O709 Nd681 2.682 . S
O709 C698 1.273 . S
O710 Nd681 2.410 . S
O710 C699 1.251 . S
O711 Nd680 2.424 . S
O711 C699 1.268 . S
H712 C684 0.930 . S
H713 C685 0.929 . S
H714 C687 0.930 . S
H715 C688 0.929 . S
H716 C693 0.930 . S
H717 C694 0.929 . S
H718 C696 0.930 . S
H719 C697 0.929 . S
Nd720 C722 2.836 . S
Nd720 O740 2.500 . S
Nd720 O741 2.492 . S
Nd720 O742 2.487 . S
Nd720 O743 2.682 . S
Nd720 O744 2.410 . S
Nd720 O749 2.414 . S
Nd720 O751 2.424 . S
Nd721 C731 2.836 . S
Nd721 O743 2.414 . S
Nd721 O745 2.424 . S
Nd721 O746 2.500 . S
Nd721 O747 2.492 . S
Nd721 O748 2.487 . S
Nd721 O749 2.682 . S
Nd721 O750 2.410 . S
C722 Nd720 2.836 . S
C722 C723 1.498 . S
C722 O740 1.258 . S
C722 O741 1.239 . S
C723 C722 1.498 . S
C723 C724 1.366 . S
C723 C728 1.407 . S
C724 C723 1.366 . S
C724 C725 1.392 . S
C724 H752 0.930 . S
C725 C724 1.392 . S
C725 C726 1.398 . S
C725 H753 0.929 . S
C726 C725 1.398 . S
C726 C727 1.352 . S
C727 C726 1.352 . S
C727 C728 1.384 . S
C727 H754 0.930 . S
C728 C723 1.407 . S
C728 C727 1.384 . S
C728 H755 0.929 . S
C729 O742 1.241 . S
C729 O743 1.273 . S
C730 O744 1.251 . S
C730 O745 1.268 . S
C731 Nd721 2.836 . S
C731 C732 1.498 . S
C731 O746 1.258 . S
C731 O747 1.239 . S
C732 C731 1.498 . S
C732 C733 1.366 . S
C732 C737 1.407 . S
C733 C732 1.366 . S
C733 C734 1.392 . S
C733 H756 0.930 . S
C734 C733 1.392 . S
C734 C735 1.398 . S
C734 H757 0.929 . S
C735 C734 1.398 . S
C735 C736 1.352 . S
C736 C735 1.352 . S
C736 C737 1.384 . S
C736 H758 0.930 . S
C737 C732 1.407 . S
C737 C736 1.384 . S
C737 H759 0.929 . S
C738 O748 1.241 . S
C738 O749 1.273 . S
C739 O750 1.251 . S
C739 O751 1.268 . S
O740 Nd720 2.500 . S
O740 C722 1.258 . S
O741 Nd720 2.492 . S
O741 C722 1.239 . S
O742 Nd720 2.487 . S
O742 C729 1.241 . S
O743 Nd720 2.682 . S
O743 Nd721 2.414 . S
O743 C729 1.273 . S
O744 Nd720 2.410 . S
O744 C730 1.251 . S
O745 Nd721 2.424 . S
O745 C730 1.268 . S
O746 Nd721 2.500 . S
O746 C731 1.258 . S
O747 Nd721 2.492 . S
O747 C731 1.239 . S
O748 Nd721 2.487 . S
O748 C738 1.241 . S
O749 Nd720 2.414 . S
O749 Nd721 2.682 . S
O749 C738 1.273 . S
O750 Nd721 2.410 . S
O750 C739 1.251 . S
O751 Nd720 2.424 . S
O751 C739 1.268 . S
H752 C724 0.930 . S
H753 C725 0.929 . S
H754 C727 0.930 . S
H755 C728 0.929 . S
H756 C733 0.930 . S
H757 C734 0.929 . S
H758 C736 0.930 . S
H759 C737 0.929 . S
Nd760 C762 2.836 . S
Nd760 O780 2.500 . S
Nd760 O781 2.492 . S
Nd760 O782 2.487 . S
Nd760 O783 2.682 . S
Nd760 O784 2.410 . S
Nd760 O789 2.414 . S
Nd760 O791 2.424 . S
Nd761 C771 2.836 . S
Nd761 O783 2.414 . S
Nd761 O785 2.424 . S
Nd761 O786 2.500 . S
Nd761 O787 2.492 . S
Nd761 O788 2.487 . S
Nd761 O789 2.682 . S
Nd761 O790 2.410 . S
C762 Nd760 2.836 . S
C762 C763 1.498 . S
C762 O780 1.258 . S
C762 O781 1.239 . S
C763 C762 1.498 . S
C763 C764 1.366 . S
C763 C768 1.407 . S
C764 C763 1.366 . S
C764 C765 1.392 . S
C764 H792 0.930 . S
C765 C764 1.392 . S
C765 C766 1.398 . S
C765 H793 0.929 . S
C766 C765 1.398 . S
C766 C767 1.352 . S
C767 C766 1.352 . S
C767 C768 1.384 . S
C767 H794 0.930 . S
C768 C763 1.407 . S
C768 C767 1.384 . S
C768 H795 0.929 . S
C769 O782 1.241 . S
C769 O783 1.273 . S
C770 O784 1.251 . S
C770 O785 1.268 . S
C771 Nd761 2.836 . S
C771 C772 1.498 . S
C771 O786 1.258 . S
C771 O787 1.239 . S
C772 C771 1.498 . S
C772 C773 1.366 . S
C772 C777 1.407 . S
C773 C772 1.366 . S
C773 C774 1.392 . S
C773 H796 0.930 . S
C774 C773 1.392 . S
C774 C775 1.398 . S
C774 H797 0.929 . S
C775 C774 1.398 . S
C775 C776 1.352 . S
C776 C775 1.352 . S
C776 C777 1.384 . S
C776 H798 0.930 . S
C777 C772 1.407 . S
C777 C776 1.384 . S
C777 H799 0.929 . S
C778 O788 1.241 . S
C778 O789 1.273 . S
C779 O790 1.251 . S
C779 O791 1.268 . S
O780 Nd760 2.500 . S
O780 C762 1.258 . S
O781 Nd760 2.492 . S
O781 C762 1.239 . S
O782 Nd760 2.487 . S
O782 C769 1.241 . S
O783 Nd760 2.682 . S
O783 Nd761 2.414 . S
O783 C769 1.273 . S
O784 Nd760 2.410 . S
O784 C770 1.251 . S
O785 Nd761 2.424 . S
O785 C770 1.268 . S
O786 Nd761 2.500 . S
O786 C771 1.258 . S
O787 Nd761 2.492 . S
O787 C771 1.239 . S
O788 Nd761 2.487 . S
O788 C778 1.241 . S
O789 Nd760 2.414 . S
O789 Nd761 2.682 . S
O789 C778 1.273 . S
O790 Nd761 2.410 . S
O790 C779 1.251 . S
O791 Nd760 2.424 . S
O791 C779 1.268 . S
H792 C764 0.930 . S
H793 C765 0.929 . S
H794 C767 0.930 . S
H795 C768 0.929 . S
H796 C773 0.930 . S
H797 C774 0.929 . S
H798 C776 0.930 . S
H799 C777 0.929 . S
Nd800 C802 2.836 . S
Nd800 O820 2.500 . S
Nd800 O821 2.492 . S
Nd800 O822 2.487 . S
Nd800 O823 2.682 . S
Nd800 O824 2.410 . S
Nd800 O829 2.414 . S
Nd800 O831 2.424 . S
Nd801 C811 2.836 . S
Nd801 O823 2.414 . S
Nd801 O825 2.424 . S
Nd801 O826 2.500 . S
Nd801 O827 2.492 . S
Nd801 O828 2.487 . S
Nd801 O829 2.682 . S
Nd801 O830 2.410 . S
C802 Nd800 2.836 . S
C802 C803 1.498 . S
C802 O820 1.258 . S
C802 O821 1.239 . S
C803 C802 1.498 . S
C803 C804 1.366 . S
C803 C808 1.407 . S
C804 C803 1.366 . S
C804 C805 1.392 . S
C804 H832 0.930 . S
C805 C804 1.392 . S
C805 C806 1.398 . S
C805 H833 0.929 . S
C806 C805 1.398 . S
C806 C807 1.352 . S
C807 C806 1.352 . S
C807 C808 1.384 . S
C807 H834 0.930 . S
C808 C803 1.407 . S
C808 C807 1.384 . S
C808 H835 0.929 . S
C809 O822 1.241 . S
C809 O823 1.273 . S
C810 O824 1.251 . S
C810 O825 1.268 . S
C811 Nd801 2.836 . S
C811 C812 1.498 . S
C811 O826 1.258 . S
C811 O827 1.239 . S
C812 C811 1.498 . S
C812 C813 1.366 . S
C812 C817 1.407 . S
C813 C812 1.366 . S
C813 C814 1.392 . S
C813 H836 0.930 . S
C814 C813 1.392 . S
C814 C815 1.398 . S
C814 H837 0.929 . S
C815 C814 1.398 . S
C815 C816 1.352 . S
C816 C815 1.352 . S
C816 C817 1.384 . S
C816 H838 0.930 . S
C817 C812 1.407 . S
C817 C816 1.384 . S
C817 H839 0.929 . S
C818 O828 1.241 . S
C818 O829 1.273 . S
C819 O830 1.251 . S
C819 O831 1.268 . S
O820 Nd800 2.500 . S
O820 C802 1.258 . S
O821 Nd800 2.492 . S
O821 C802 1.239 . S
O822 Nd800 2.487 . S
O822 C809 1.241 . S
O823 Nd800 2.682 . S
O823 Nd801 2.414 . S
O823 C809 1.273 . S
O824 Nd800 2.410 . S
O824 C810 1.251 . S
O825 Nd801 2.424 . S
O825 C810 1.268 . S
O826 Nd801 2.500 . S
O826 C811 1.258 . S
O827 Nd801 2.492 . S
O827 C811 1.239 . S
O828 Nd801 2.487 . S
O828 C818 1.241 . S
O829 Nd800 2.414 . S
O829 Nd801 2.682 . S
O829 C818 1.273 . S
O830 Nd801 2.410 . S
O830 C819 1.251 . S
O831 Nd800 2.424 . S
O831 C819 1.268 . S
H832 C804 0.930 . S
H833 C805 0.929 . S
H834 C807 0.930 . S
H835 C808 0.929 . S
H836 C813 0.930 . S
H837 C814 0.929 . S
H838 C816 0.930 . S
H839 C817 0.929 . S
Nd840 C842 2.836 1_556 S
Nd840 O860 2.452 1_556 S
Nd840 O861 2.492 . S
Nd840 O862 2.487 . S
Nd840 O863 2.682 . S
Nd840 O864 2.410 . S
Nd840 O869 2.414 . S
Nd840 O871 2.424 . S
Nd841 C851 2.836 . S
Nd841 O863 2.414 . S
Nd841 O865 2.424 . S
Nd841 O866 2.500 . S
Nd841 O867 2.492 . S
Nd841 O868 2.487 . S
Nd841 O869 2.682 . S
Nd841 O870 2.410 . S
C842 Nd840 2.836 1_554 S
C842 C843 1.498 . S
C842 O860 1.265 . S
C842 O861 1.239 1_554 S
C843 C842 1.498 . S
C843 C844 1.366 . S
C843 C848 1.407 . S
C844 C843 1.366 . S
C844 C845 1.392 . S
C844 H872 0.930 . S
C845 C844 1.392 . S
C845 C846 1.398 . S
C845 H873 0.929 . S
C846 C845 1.398 . S
C846 C847 1.352 . S
C847 C846 1.352 . S
C847 C848 1.384 . S
C847 H874 0.930 . S
C848 C843 1.407 . S
C848 C847 1.384 . S
C848 H875 0.929 . S
C849 O862 1.241 . S
C849 O863 1.273 . S
C850 O864 1.251 . S
C850 O865 1.268 . S
C851 Nd841 2.836 . S
C851 C852 1.498 . S
C851 O866 1.258 . S
C851 O867 1.239 . S
C852 C851 1.498 . S
C852 C853 1.366 . S
C852 C857 1.407 . S
C853 C852 1.366 . S
C853 C854 1.392 . S
C853 H876 0.930 . S
C854 C853 1.392 . S
C854 C855 1.398 . S
C854 H877 0.929 . S
C855 C854 1.398 . S
C855 C856 1.352 . S
C856 C855 1.352 . S
C856 C857 1.384 . S
C856 H878 0.930 . S
C857 C852 1.407 . S
C857 C856 1.384 . S
C857 H879 0.929 . S
C858 O868 1.241 . S
C858 O869 1.273 . S
C859 O870 1.251 . S
C859 O871 1.268 . S
O860 Nd840 2.452 1_554 S
O860 C842 1.265 . S
O861 Nd840 2.492 . S
O861 C842 1.239 1_556 S
O862 Nd840 2.487 . S
O862 C849 1.241 . S
O863 Nd840 2.682 . S
O863 Nd841 2.414 . S
O863 C849 1.273 . S
O864 Nd840 2.410 . S
O864 C850 1.251 . S
O865 Nd841 2.424 . S
O865 C850 1.268 . S
O866 Nd841 2.500 . S
O866 C851 1.258 . S
O867 Nd841 2.492 . S
O867 C851 1.239 . S
O868 Nd841 2.487 . S
O868 C858 1.241 . S
O869 Nd840 2.414 . S
O869 Nd841 2.682 . S
O869 C858 1.273 . S
O870 Nd841 2.410 . S
O870 C859 1.251 . S
O871 Nd840 2.424 . S
O871 C859 1.268 . S
H872 C844 0.930 . S
H873 C845 0.929 . S
H874 C847 0.930 . S
H875 C848 0.929 . S
H876 C853 0.930 . S
H877 C854 0.929 . S
H878 C856 0.930 . S
H879 C857 0.929 . S
Nd880 C882 2.836 . S
Nd880 O900 2.500 . S
Nd880 O901 2.492 . S
Nd880 O902 2.487 . S
Nd880 O903 2.682 . S
Nd880 O904 2.410 . S
Nd880 O909 2.414 . S
Nd880 O911 2.424 . S
Nd881 C891 2.836 . S
Nd881 O903 2.414 . S
Nd881 O905 2.424 . S
Nd881 O906 2.500 . S
Nd881 O907 2.492 . S
Nd881 O908 2.487 . S
Nd881 O909 2.682 . S
Nd881 O910 2.410 . S
C882 Nd880 2.836 . S
C882 C883 1.498 . S
C882 O900 1.258 . S
C882 O901 1.239 . S
C883 C882 1.498 . S
C883 C884 1.366 . S
C883 C888 1.407 . S
C884 C883 1.366 . S
C884 C885 1.392 . S
C884 H912 0.930 . S
C885 C884 1.392 . S
C885 C886 1.398 . S
C885 H913 0.929 . S
C886 C885 1.398 . S
C886 C887 1.352 . S
C887 C886 1.352 . S
C887 C888 1.384 . S
C887 H914 0.930 . S
C888 C883 1.407 . S
C888 C887 1.384 . S
C888 H915 0.929 . S
C889 O902 1.241 . S
C889 O903 1.273 . S
C890 O904 1.251 . S
C890 O905 1.268 . S
C891 Nd881 2.836 . S
C891 C892 1.498 . S
C891 O906 1.258 . S
C891 O907 1.239 . S
C892 C891 1.498 . S
C892 C893 1.366 . S
C892 C897 1.407 . S
C893 C892 1.366 . S
C893 C894 1.392 . S
C893 H916 0.930 . S
C894 C893 1.392 . S
C894 C895 1.398 . S
C894 H917 0.929 . S
C895 C894 1.398 . S
C895 C896 1.352 . S
C896 C895 1.352 . S
C896 C897 1.384 . S
C896 H918 0.930 . S
C897 C892 1.407 . S
C897 C896 1.384 . S
C897 H919 0.929 . S
C898 O908 1.241 . S
C898 O909 1.273 . S
C899 O910 1.251 . S
C899 O911 1.268 . S
O900 Nd880 2.500 . S
O900 C882 1.258 . S
O901 Nd880 2.492 . S
O901 C882 1.239 . S
O902 Nd880 2.487 . S
O902 C889 1.241 . S
O903 Nd880 2.682 . S
O903 Nd881 2.414 . S
O903 C889 1.273 . S
O904 Nd880 2.410 . S
O904 C890 1.251 . S
O905 Nd881 2.424 . S
O905 C890 1.268 . S
O906 Nd881 2.500 . S
O906 C891 1.258 . S
O907 Nd881 2.492 . S
O907 C891 1.239 . S
O908 Nd881 2.487 . S
O908 C898 1.241 . S
O909 Nd880 2.414 . S
O909 Nd881 2.682 . S
O909 C898 1.273 . S
O910 Nd881 2.410 . S
O910 C899 1.251 . S
O911 Nd880 2.424 . S
O911 C899 1.268 . S
H912 C884 0.930 . S
H913 C885 0.929 . S
H914 C887 0.930 . S
H915 C888 0.929 . S
H916 C893 0.930 . S
H917 C894 0.929 . S
H918 C896 0.930 . S
H919 C897 0.929 . S
Nd920 C922 2.836 . S
Nd920 O940 2.500 . S
Nd920 O941 2.492 . S
Nd920 O942 2.487 . S
Nd920 O943 2.682 . S
Nd920 O944 2.410 . S
Nd920 O949 2.414 . S
Nd920 O951 2.424 . S
Nd921 C931 2.836 . S
Nd921 O943 2.414 . S
Nd921 O945 2.424 . S
Nd921 O946 2.500 . S
Nd921 O947 2.492 . S
Nd921 O948 2.487 . S
Nd921 O949 2.682 . S
Nd921 O950 2.410 . S
C922 Nd920 2.836 . S
C922 C923 1.498 . S
C922 O940 1.258 . S
C922 O941 1.239 . S
C923 C922 1.498 . S
C923 C924 1.366 . S
C923 C928 1.407 . S
C924 C923 1.366 . S
C924 C925 1.392 . S
C924 H952 0.930 . S
C925 C924 1.392 . S
C925 C926 1.398 . S
C925 H953 0.929 . S
C926 C925 1.398 . S
C926 C927 1.352 . S
C927 C926 1.352 . S
C927 C928 1.384 . S
C927 H954 0.930 . S
C928 C923 1.407 . S
C928 C927 1.384 . S
C928 H955 0.929 . S
C929 O942 1.241 . S
C929 O943 1.273 . S
C930 O944 1.251 . S
C930 O945 1.268 . S
C931 Nd921 2.836 . S
C931 C932 1.498 . S
C931 O946 1.258 . S
C931 O947 1.239 . S
C932 C931 1.498 . S
C932 C933 1.366 . S
C932 C937 1.407 . S
C933 C932 1.366 . S
C933 C934 1.392 . S
C933 H956 0.930 . S
C934 C933 1.392 . S
C934 C935 1.398 . S
C934 H957 0.929 . S
C935 C934 1.398 . S
C935 C936 1.352 . S
C936 C935 1.352 . S
C936 C937 1.384 . S
C936 H958 0.930 . S
C937 C932 1.407 . S
C937 C936 1.384 . S
C937 H959 0.929 . S
C938 O948 1.241 . S
C938 O949 1.273 . S
C939 O950 1.251 . S
C939 O951 1.268 . S
O940 Nd920 2.500 . S
O940 C922 1.258 . S
O941 Nd920 2.492 . S
O941 C922 1.239 . S
O942 Nd920 2.487 . S
O942 C929 1.241 . S
O943 Nd920 2.682 . S
O943 Nd921 2.414 . S
O943 C929 1.273 . S
O944 Nd920 2.410 . S
O944 C930 1.251 . S
O945 Nd921 2.424 . S
O945 C930 1.268 . S
O946 Nd921 2.500 . S
O946 C931 1.258 . S
O947 Nd921 2.492 . S
O947 C931 1.239 . S
O948 Nd921 2.487 . S
O948 C938 1.241 . S
O949 Nd920 2.414 . S
O949 Nd921 2.682 . S
O949 C938 1.273 . S
O950 Nd921 2.410 . S
O950 C939 1.251 . S
O951 Nd920 2.424 . S
O951 C939 1.268 . S
H952 C924 0.930 . S
H953 C925 0.929 . S
H954 C927 0.930 . S
H955 C928 0.929 . S
H956 C933 0.930 . S
H957 C934 0.929 . S
H958 C936 0.930 . S
H959 C937 0.929 . S
Nd960 C962 2.836 . S
Nd960 O980 2.500 . S
Nd960 O981 2.492 . S
Nd960 O982 2.487 . S
Nd960 O983 2.682 . S
Nd960 O984 2.410 . S
Nd960 O989 2.414 . S
Nd960 O991 2.424 . S
Nd961 C971 2.836 . S
Nd961 O983 2.414 . S
Nd961 O985 2.424 . S
Nd961 O986 2.500 . S
Nd961 O987 2.492 . S
Nd961 O988 2.487 . S
Nd961 O989 2.682 . S
Nd961 O990 2.410 . S
C962 Nd960 2.836 . S
C962 C963 1.498 . S
C962 O980 1.258 . S
C962 O981 1.239 . S
C963 C962 1.498 . S
C963 C964 1.366 . S
C963 C968 1.407 . S
C964 C963 1.366 . S
C964 C965 1.392 . S
C964 H992 0.930 . S
C965 C964 1.392 . S
C965 C966 1.398 . S
C965 H993 0.929 . S
C966 C965 1.398 . S
C966 C967 1.352 . S
C967 C966 1.352 . S
C967 C968 1.384 . S
C967 H994 0.930 . S
C968 C963 1.407 . S
C968 C967 1.384 . S
C968 H995 0.929 . S
C969 O982 1.241 . S
C969 O983 1.273 . S
C970 O984 1.251 . S
C970 O985 1.268 . S
C971 Nd961 2.836 . S
C971 C972 1.498 . S
C971 O986 1.258 . S
C971 O987 1.239 . S
C972 C971 1.498 . S
C972 C973 1.366 . S
C972 C977 1.407 . S
C973 C972 1.366 . S
C973 C974 1.392 . S
C973 H996 0.930 . S
C974 C973 1.392 . S
C974 C975 1.398 . S
C974 H997 0.929 . S
C975 C974 1.398 . S
C975 C976 1.352 . S
C976 C975 1.352 . S
C976 C977 1.384 . S
C976 H998 0.930 . S
C977 C972 1.407 . S
C977 C976 1.384 . S
C977 H999 0.929 . S
C978 O988 1.241 . S
C978 O989 1.273 . S
C979 O990 1.251 . S
C979 O991 1.268 . S
O980 Nd960 2.500 . S
O980 C962 1.258 . S
O981 Nd960 2.492 . S
O981 C962 1.239 . S
O982 Nd960 2.487 . S
O982 C969 1.241 . S
O983 Nd960 2.682 . S
O983 Nd961 2.414 . S
O983 C969 1.273 . S
O984 Nd960 2.410 . S
O984 C970 1.251 . S
O985 Nd961 2.424 . S
O985 C970 1.268 . S
O986 Nd961 2.500 . S
O986 C971 1.258 . S
O987 Nd961 2.492 . S
O987 C971 1.239 . S
O988 Nd961 2.487 . S
O988 C978 1.241 . S
O989 Nd960 2.414 . S
O989 Nd961 2.682 . S
O989 C978 1.273 . S
O990 Nd961 2.410 . S
O990 C979 1.251 . S
O991 Nd960 2.424 . S
O991 C979 1.268 . S
H992 C964 0.930 . S
H993 C965 0.929 . S
H994 C967 0.930 . S
H995 C968 0.929 . S
H996 C973 0.930 . S
H997 C974 0.929 . S
H998 C976 0.930 . S
H999 C977 0.929 . S
Nd1000 C1002 2.836 . S
Nd1000 O1020 2.500 . S
Nd1000 O1021 2.492 . S
Nd1000 O1022 2.487 . S
Nd1000 O1023 2.682 . S
Nd1000 O1024 2.410 . S
Nd1000 O1029 2.414 . S
Nd1000 O1031 2.424 . S
Nd1001 C1011 2.836 1_556 S
Nd1001 O1023 2.414 . S
Nd1001 O1025 2.424 . S
Nd1001 O1026 2.451 1_556 S
Nd1001 O1027 2.492 . S
Nd1001 O1028 2.487 . S
Nd1001 O1029 2.682 . S
Nd1001 O1030 2.410 . S
C1002 Nd1000 2.836 . S
C1002 C1003 1.498 . S
C1002 O1020 1.258 . S
C1002 O1021 1.239 . S
C1003 C1002 1.498 . S
C1003 C1004 1.366 . S
C1003 C1008 1.407 . S
C1004 C1003 1.366 . S
C1004 C1005 1.392 . S
C1004 H1032 0.930 . S
C1005 C1004 1.392 . S
C1005 C1006 1.398 . S
C1005 H1033 0.929 . S
C1006 C1005 1.398 . S
C1006 C1007 1.352 . S
C1007 C1006 1.352 . S
C1007 C1008 1.384 . S
C1007 H1034 0.930 . S
C1008 C1003 1.407 . S
C1008 C1007 1.384 . S
C1008 H1035 0.929 . S
C1009 O1022 1.241 . S
C1009 O1023 1.273 . S
C1010 O1024 1.251 . S
C1010 O1025 1.268 . S
C1011 Nd1001 2.836 1_554 S
C1011 C1012 1.498 . S
C1011 O1026 1.265 . S
C1011 O1027 1.239 1_554 S
C1012 C1011 1.498 . S
C1012 C1013 1.366 . S
C1012 C1017 1.407 . S
C1013 C1012 1.366 . S
C1013 C1014 1.392 . S
C1013 H1036 0.930 . S
C1014 C1013 1.392 . S
C1014 C1015 1.398 . S
C1014 H1037 0.929 . S
C1015 C1014 1.398 . S
C1015 C1016 1.352 . S
C1016 C1015 1.352 . S
C1016 C1017 1.384 . S
C1016 H1038 0.930 . S
C1017 C1012 1.407 . S
C1017 C1016 1.384 . S
C1017 H1039 0.929 . S
C1018 O1028 1.241 . S
C1018 O1029 1.273 . S
C1019 O1030 1.251 . S
C1019 O1031 1.268 . S
O1020 Nd1000 2.500 . S
O1020 C1002 1.258 . S
O1021 Nd1000 2.492 . S
O1021 C1002 1.239 . S
O1022 Nd1000 2.487 . S
O1022 C1009 1.241 . S
O1023 Nd1000 2.682 . S
O1023 Nd1001 2.414 . S
O1023 C1009 1.273 . S
O1024 Nd1000 2.410 . S
O1024 C1010 1.251 . S
O1025 Nd1001 2.424 . S
O1025 C1010 1.268 . S
O1026 Nd1001 2.451 1_554 S
O1026 C1011 1.265 . S
O1027 Nd1001 2.492 . S
O1027 C1011 1.239 1_556 S
O1028 Nd1001 2.487 . S
O1028 C1018 1.241 . S
O1029 Nd1000 2.414 . S
O1029 Nd1001 2.682 . S
O1029 C1018 1.273 . S
O1030 Nd1001 2.410 . S
O1030 C1019 1.251 . S
O1031 Nd1000 2.424 . S
O1031 C1019 1.268 . S
H1032 C1004 0.930 . S
H1033 C1005 0.929 . S
H1034 C1007 0.930 . S
H1035 C1008 0.929 . S
H1036 C1013 0.930 . S
H1037 C1014 0.929 . S
H1038 C1016 0.930 . S
H1039 C1017 0.929 . S
Nd1040 C1042 2.836 . S
Nd1040 O1060 2.500 . S
Nd1040 O1061 2.492 . S
Nd1040 O1062 2.487 . S
Nd1040 O1063 2.682 . S
Nd1040 O1064 2.410 . S
Nd1040 O1069 2.414 . S
Nd1040 O1071 2.424 . S
Nd1041 C1051 2.836 . S
Nd1041 O1063 2.414 . S
Nd1041 O1065 2.424 . S
Nd1041 O1066 2.500 . S
Nd1041 O1067 2.492 . S
Nd1041 O1068 2.487 . S
Nd1041 O1069 2.682 . S
Nd1041 O1070 2.410 . S
C1042 Nd1040 2.836 . S
C1042 C1043 1.498 . S
C1042 O1060 1.258 . S
C1042 O1061 1.239 . S
C1043 C1042 1.498 . S
C1043 C1044 1.366 . S
C1043 C1048 1.407 . S
C1044 C1043 1.366 . S
C1044 C1045 1.392 . S
C1044 H1072 0.930 . S
C1045 C1044 1.392 . S
C1045 C1046 1.398 . S
C1045 H1073 0.929 . S
C1046 C1045 1.398 . S
C1046 C1047 1.352 . S
C1047 C1046 1.352 . S
C1047 C1048 1.384 . S
C1047 H1074 0.930 . S
C1048 C1043 1.407 . S
C1048 C1047 1.384 . S
C1048 H1075 0.929 . S
C1049 O1062 1.241 . S
C1049 O1063 1.273 . S
C1050 O1064 1.251 . S
C1050 O1065 1.268 . S
C1051 Nd1041 2.836 . S
C1051 C1052 1.498 . S
C1051 O1066 1.258 . S
C1051 O1067 1.239 . S
C1052 C1051 1.498 . S
C1052 C1053 1.366 . S
C1052 C1057 1.407 . S
C1053 C1052 1.366 . S
C1053 C1054 1.392 . S
C1053 H1076 0.930 . S
C1054 C1053 1.392 . S
C1054 C1055 1.398 . S
C1054 H1077 0.929 . S
C1055 C1054 1.398 . S
C1055 C1056 1.352 . S
C1056 C1055 1.352 . S
C1056 C1057 1.384 . S
C1056 H1078 0.930 . S
C1057 C1052 1.407 . S
C1057 C1056 1.384 . S
C1057 H1079 0.929 . S
C1058 O1068 1.241 . S
C1058 O1069 1.273 . S
C1059 O1070 1.251 . S
C1059 O1071 1.268 . S
O1060 Nd1040 2.500 . S
O1060 C1042 1.258 . S
O1061 Nd1040 2.492 . S
O1061 C1042 1.239 . S
O1062 Nd1040 2.487 . S
O1062 C1049 1.241 . S
O1063 Nd1040 2.682 . S
O1063 Nd1041 2.414 . S
O1063 C1049 1.273 . S
O1064 Nd1040 2.410 . S
O1064 C1050 1.251 . S
O1065 Nd1041 2.424 . S
O1065 C1050 1.268 . S
O1066 Nd1041 2.500 . S
O1066 C1051 1.258 . S
O1067 Nd1041 2.492 . S
O1067 C1051 1.239 . S
O1068 Nd1041 2.487 . S
O1068 C1058 1.241 . S
O1069 Nd1040 2.414 . S
O1069 Nd1041 2.682 . S
O1069 C1058 1.273 . S
O1070 Nd1041 2.410 . S
O1070 C1059 1.251 . S
O1071 Nd1040 2.424 . S
O1071 C1059 1.268 . S
H1072 C1044 0.930 . S
H1073 C1045 0.929 . S
H1074 C1047 0.930 . S
H1075 C1048 0.929 . S
H1076 C1053 0.930 . S
H1077 C1054 0.929 . S
H1078 C1056 0.930 . S
H1079 C1057 0.929 . S
Nd1080 C1082 2.836 . S
Nd1080 O1100 2.500 . S
Nd1080 O1101 2.492 . S
Nd1080 O1102 2.487 . S
Nd1080 O1103 2.682 . S
Nd1080 O1104 2.410 . S
Nd1080 O1109 2.414 . S
Nd1080 O1111 2.424 . S
Nd1081 C1091 2.836 . S
Nd1081 O1103 2.414 . S
Nd1081 O1105 2.424 . S
Nd1081 O1106 2.500 . S
Nd1081 O1107 2.492 . S
Nd1081 O1108 2.487 . S
Nd1081 O1109 2.682 . S
Nd1081 O1110 2.410 . S
C1082 Nd1080 2.836 . S
C1082 C1083 1.498 . S
C1082 O1100 1.258 . S
C1082 O1101 1.239 . S
C1083 C1082 1.498 . S
C1083 C1084 1.366 . S
C1083 C1088 1.407 . S
C1084 C1083 1.366 . S
C1084 C1085 1.392 . S
C1084 H1112 0.930 . S
C1085 C1084 1.392 . S
C1085 C1086 1.398 . S
C1085 H1113 0.929 . S
C1086 C1085 1.398 . S
C1086 C1087 1.352 . S
C1087 C1086 1.352 . S
C1087 C1088 1.384 . S
C1087 H1114 0.930 . S
C1088 C1083 1.407 . S
C1088 C1087 1.384 . S
C1088 H1115 0.929 . S
C1089 O1102 1.241 . S
C1089 O1103 1.273 . S
C1090 O1104 1.251 . S
C1090 O1105 1.268 . S
C1091 Nd1081 2.836 . S
C1091 C1092 1.498 . S
C1091 O1106 1.258 . S
C1091 O1107 1.239 . S
C1092 C1091 1.498 . S
C1092 C1093 1.366 . S
C1092 C1097 1.407 . S
C1093 C1092 1.366 . S
C1093 C1094 1.392 . S
C1093 H1116 0.930 . S
C1094 C1093 1.392 . S
C1094 C1095 1.398 . S
C1094 H1117 0.929 . S
C1095 C1094 1.398 . S
C1095 C1096 1.352 . S
C1096 C1095 1.352 . S
C1096 C1097 1.384 . S
C1096 H1118 0.930 . S
C1097 C1092 1.407 . S
C1097 C1096 1.384 . S
C1097 H1119 0.929 . S
C1098 O1108 1.241 . S
C1098 O1109 1.273 . S
C1099 O1110 1.251 . S
C1099 O1111 1.268 . S
O1100 Nd1080 2.500 . S
O1100 C1082 1.258 . S
O1101 Nd1080 2.492 . S
O1101 C1082 1.239 . S
O1102 Nd1080 2.487 . S
O1102 C1089 1.241 . S
O1103 Nd1080 2.682 . S
O1103 Nd1081 2.414 . S
O1103 C1089 1.273 . S
O1104 Nd1080 2.410 . S
O1104 C1090 1.251 . S
O1105 Nd1081 2.424 . S
O1105 C1090 1.268 . S
O1106 Nd1081 2.500 . S
O1106 C1091 1.258 . S
O1107 Nd1081 2.492 . S
O1107 C1091 1.239 . S
O1108 Nd1081 2.487 . S
O1108 C1098 1.241 . S
O1109 Nd1080 2.414 . S
O1109 Nd1081 2.682 . S
O1109 C1098 1.273 . S
O1110 Nd1081 2.410 . S
O1110 C1099 1.251 . S
O1111 Nd1080 2.424 . S
O1111 C1099 1.268 . S
H1112 C1084 0.930 . S
H1113 C1085 0.929 . S
H1114 C1087 0.930 . S
H1115 C1088 0.929 . S
H1116 C1093 0.930 . S
H1117 C1094 0.929 . S
H1118 C1096 0.930 . S
H1119 C1097 0.929 . S
Nd1120 C1122 2.836 . S
Nd1120 O1140 2.500 . S
Nd1120 O1141 2.492 . S
Nd1120 O1142 2.487 . S
Nd1120 O1143 2.682 . S
Nd1120 O1144 2.410 . S
Nd1120 O1149 2.414 . S
Nd1120 O1151 2.424 . S
Nd1121 C1131 2.836 . S
Nd1121 O1143 2.414 . S
Nd1121 O1145 2.424 . S
Nd1121 O1146 2.500 . S
Nd1121 O1147 2.492 . S
Nd1121 O1148 2.487 . S
Nd1121 O1149 2.682 . S
Nd1121 O1150 2.410 . S
C1122 Nd1120 2.836 . S
C1122 C1123 1.498 . S
C1122 O1140 1.258 . S
C1122 O1141 1.239 . S
C1123 C1122 1.498 . S
C1123 C1124 1.366 . S
C1123 C1128 1.407 . S
C1124 C1123 1.366 . S
C1124 C1125 1.392 . S
C1124 H1152 0.930 . S
C1125 C1124 1.392 . S
C1125 C1126 1.398 . S
C1125 H1153 0.929 . S
C1126 C1125 1.398 . S
C1126 C1127 1.352 . S
C1127 C1126 1.352 . S
C1127 C1128 1.384 . S
C1127 H1154 0.930 . S
C1128 C1123 1.407 . S
C1128 C1127 1.384 . S
C1128 H1155 0.929 . S
C1129 O1142 1.241 . S
C1129 O1143 1.273 . S
C1130 O1144 1.251 . S
C1130 O1145 1.268 . S
C1131 Nd1121 2.836 . S
C1131 C1132 1.498 . S
C1131 O1146 1.258 . S
C1131 O1147 1.239 . S
C1132 C1131 1.498 . S
C1132 C1133 1.366 . S
C1132 C1137 1.407 . S
C1133 C1132 1.366 . S
C1133 C1134 1.392 . S
C1133 H1156 0.930 . S
C1134 C1133 1.392 . S
C1134 C1135 1.398 . S
C1134 H1157 0.929 . S
C1135 C1134 1.398 . S
C1135 C1136 1.352 . S
C1136 C1135 1.352 . S
C1136 C1137 1.384 . S
C1136 H1158 0.930 . S
C1137 C1132 1.407 . S
C1137 C1136 1.384 . S
C1137 H1159 0.929 . S
C1138 O1148 1.241 . S
C1138 O1149 1.273 . S
C1139 O1150 1.251 . S
C1139 O1151 1.268 . S
O1140 Nd1120 2.500 . S
O1140 C1122 1.258 . S
O1141 Nd1120 2.492 . S
O1141 C1122 1.239 . S
O1142 Nd1120 2.487 . S
O1142 C1129 1.241 . S
O1143 Nd1120 2.682 . S
O1143 Nd1121 2.414 . S
O1143 C1129 1.273 . S
O1144 Nd1120 2.410 . S
O1144 C1130 1.251 . S
O1145 Nd1121 2.424 . S
O1145 C1130 1.268 . S
O1146 Nd1121 2.500 . S
O1146 C1131 1.258 . S
O1147 Nd1121 2.492 . S
O1147 C1131 1.239 . S
O1148 Nd1121 2.487 . S
O1148 C1138 1.241 . S
O1149 Nd1120 2.414 . S
O1149 Nd1121 2.682 . S
O1149 C1138 1.273 . S
O1150 Nd1121 2.410 . S
O1150 C1139 1.251 . S
O1151 Nd1120 2.424 . S
O1151 C1139 1.268 . S
H1152 C1124 0.930 . S
H1153 C1125 0.929 . S
H1154 C1127 0.930 . S
H1155 C1128 0.929 . S
H1156 C1133 0.930 . S
H1157 C1134 0.929 . S
H1158 C1136 0.930 . S
H1159 C1137 0.929 . S
Nd1160 C1162 2.836 . S
Nd1160 O1180 2.500 . S
Nd1160 O1181 2.492 . S
Nd1160 O1182 2.487 . S
Nd1160 O1183 2.682 . S
Nd1160 O1184 2.410 . S
Nd1160 O1189 2.414 . S
Nd1160 O1191 2.424 . S
Nd1161 C1171 2.836 1_554 S
Nd1161 O1183 2.414 . S
Nd1161 O1185 2.424 . S
Nd1161 O1186 2.451 1_554 S
Nd1161 O1187 2.492 . S
Nd1161 O1188 2.487 . S
Nd1161 O1189 2.682 . S
Nd1161 O1190 2.410 . S
C1162 Nd1160 2.836 . S
C1162 C1163 1.498 . S
C1162 O1180 1.258 . S
C1162 O1181 1.239 . S
C1163 C1162 1.498 . S
C1163 C1164 1.366 . S
C1163 C1168 1.407 . S
C1164 C1163 1.366 . S
C1164 C1165 1.392 . S
C1164 H1192 0.930 . S
C1165 C1164 1.392 . S
C1165 C1166 1.398 . S
C1165 H1193 0.929 . S
C1166 C1165 1.398 . S
C1166 C1167 1.352 . S
C1167 C1166 1.352 . S
C1167 C1168 1.384 . S
C1167 H1194 0.930 . S
C1168 C1163 1.407 . S
C1168 C1167 1.384 . S
C1168 H1195 0.929 . S
C1169 O1182 1.241 . S
C1169 O1183 1.273 . S
C1170 O1184 1.251 . S
C1170 O1185 1.268 . S
C1171 Nd1161 2.836 1_556 S
C1171 C1172 1.498 . S
C1171 O1186 1.265 . S
C1171 O1187 1.239 1_556 S
C1172 C1171 1.498 . S
C1172 C1173 1.366 . S
C1172 C1177 1.407 . S
C1173 C1172 1.366 . S
C1173 C1174 1.392 . S
C1173 H1196 0.930 . S
C1174 C1173 1.392 . S
C1174 C1175 1.398 . S
C1174 H1197 0.929 . S
C1175 C1174 1.398 . S
C1175 C1176 1.352 . S
C1176 C1175 1.352 . S
C1176 C1177 1.384 . S
C1176 H1198 0.930 . S
C1177 C1172 1.407 . S
C1177 C1176 1.384 . S
C1177 H1199 0.929 . S
C1178 O1188 1.241 . S
C1178 O1189 1.273 . S
C1179 O1190 1.251 . S
C1179 O1191 1.268 . S
O1180 Nd1160 2.500 . S
O1180 C1162 1.258 . S
O1181 Nd1160 2.492 . S
O1181 C1162 1.239 . S
O1182 Nd1160 2.487 . S
O1182 C1169 1.241 . S
O1183 Nd1160 2.682 . S
O1183 Nd1161 2.414 . S
O1183 C1169 1.273 . S
O1184 Nd1160 2.410 . S
O1184 C1170 1.251 . S
O1185 Nd1161 2.424 . S
O1185 C1170 1.268 . S
O1186 Nd1161 2.451 1_556 S
O1186 C1171 1.265 . S
O1187 Nd1161 2.492 . S
O1187 C1171 1.239 1_554 S
O1188 Nd1161 2.487 . S
O1188 C1178 1.241 . S
O1189 Nd1160 2.414 . S
O1189 Nd1161 2.682 . S
O1189 C1178 1.273 . S
O1190 Nd1161 2.410 . S
O1190 C1179 1.251 . S
O1191 Nd1160 2.424 . S
O1191 C1179 1.268 . S
H1192 C1164 0.930 . S
H1193 C1165 0.929 . S
H1194 C1167 0.930 . S
H1195 C1168 0.929 . S
H1196 C1173 0.930 . S
H1197 C1174 0.929 . S
H1198 C1176 0.930 . S
H1199 C1177 0.929 . S
Nd1200 C1202 2.836 . S
Nd1200 O1220 2.500 . S
Nd1200 O1221 2.492 . S
Nd1200 O1222 2.487 . S
Nd1200 O1223 2.682 . S
Nd1200 O1224 2.410 . S
Nd1200 O1229 2.414 . S
Nd1200 O1231 2.424 . S
Nd1201 C1211 2.836 . S
Nd1201 O1223 2.414 . S
Nd1201 O1225 2.424 . S
Nd1201 O1226 2.500 . S
Nd1201 O1227 2.492 . S
Nd1201 O1228 2.487 . S
Nd1201 O1229 2.682 . S
Nd1201 O1230 2.410 . S
C1202 Nd1200 2.836 . S
C1202 C1203 1.498 . S
C1202 O1220 1.258 . S
C1202 O1221 1.239 . S
C1203 C1202 1.498 . S
C1203 C1204 1.366 . S
C1203 C1208 1.407 . S
C1204 C1203 1.366 . S
C1204 C1205 1.392 . S
C1204 H1232 0.930 . S
C1205 C1204 1.392 . S
C1205 C1206 1.398 . S
C1205 H1233 0.929 . S
C1206 C1205 1.398 . S
C1206 C1207 1.352 . S
C1207 C1206 1.352 . S
C1207 C1208 1.384 . S
C1207 H1234 0.930 . S
C1208 C1203 1.407 . S
C1208 C1207 1.384 . S
C1208 H1235 0.929 . S
C1209 O1222 1.241 . S
C1209 O1223 1.273 . S
C1210 O1224 1.251 . S
C1210 O1225 1.268 . S
C1211 Nd1201 2.836 . S
C1211 C1212 1.498 . S
C1211 O1226 1.258 . S
C1211 O1227 1.239 . S
C1212 C1211 1.498 . S
C1212 C1213 1.366 . S
C1212 C1217 1.407 . S
C1213 C1212 1.366 . S
C1213 C1214 1.392 . S
C1213 H1236 0.930 . S
C1214 C1213 1.392 . S
C1214 C1215 1.398 . S
C1214 H1237 0.929 . S
C1215 C1214 1.398 . S
C1215 C1216 1.352 . S
C1216 C1215 1.352 . S
C1216 C1217 1.384 . S
C1216 H1238 0.930 . S
C1217 C1212 1.407 . S
C1217 C1216 1.384 . S
C1217 H1239 0.929 . S
C1218 O1228 1.241 . S
C1218 O1229 1.273 . S
C1219 O1230 1.251 . S
C1219 O1231 1.268 . S
O1220 Nd1200 2.500 . S
O1220 C1202 1.258 . S
O1221 Nd1200 2.492 . S
O1221 C1202 1.239 . S
O1222 Nd1200 2.487 . S
O1222 C1209 1.241 . S
O1223 Nd1200 2.682 . S
O1223 Nd1201 2.414 . S
O1223 C1209 1.273 . S
O1224 Nd1200 2.410 . S
O1224 C1210 1.251 . S
O1225 Nd1201 2.424 . S
O1225 C1210 1.268 . S
O1226 Nd1201 2.500 . S
O1226 C1211 1.258 . S
O1227 Nd1201 2.492 . S
O1227 C1211 1.239 . S
O1228 Nd1201 2.487 . S
O1228 C1218 1.241 . S
O1229 Nd1200 2.414 . S
O1229 Nd1201 2.682 . S
O1229 C1218 1.273 . S
O1230 Nd1201 2.410 . S
O1230 C1219 1.251 . S
O1231 Nd1200 2.424 . S
O1231 C1219 1.268 . S
H1232 C1204 0.930 . S
H1233 C1205 0.929 . S
H1234 C1207 0.930 . S
H1235 C1208 0.929 . S
H1236 C1213 0.930 . S
H1237 C1214 0.929 . S
H1238 C1216 0.930 . S
H1239 C1217 0.929 . S
Nd1240 C1242 2.836 . S
Nd1240 O1260 2.500 . S
Nd1240 O1261 2.492 . S
Nd1240 O1262 2.487 . S
Nd1240 O1263 2.682 . S
Nd1240 O1264 2.410 . S
Nd1240 O1269 2.414 . S
Nd1240 O1271 2.424 . S
Nd1241 C1251 2.836 . S
Nd1241 O1263 2.414 . S
Nd1241 O1265 2.424 . S
Nd1241 O1266 2.500 . S
Nd1241 O1267 2.492 . S
Nd1241 O1268 2.487 . S
Nd1241 O1269 2.682 . S
Nd1241 O1270 2.410 . S
C1242 Nd1240 2.836 . S
C1242 C1243 1.498 . S
C1242 O1260 1.258 . S
C1242 O1261 1.239 . S
C1243 C1242 1.498 . S
C1243 C1244 1.366 . S
C1243 C1248 1.407 . S
C1244 C1243 1.366 . S
C1244 C1245 1.392 . S
C1244 H1272 0.930 . S
C1245 C1244 1.392 . S
C1245 C1246 1.398 . S
C1245 H1273 0.929 . S
C1246 C1245 1.398 . S
C1246 C1247 1.352 . S
C1247 C1246 1.352 . S
C1247 C1248 1.384 . S
C1247 H1274 0.930 . S
C1248 C1243 1.407 . S
C1248 C1247 1.384 . S
C1248 H1275 0.929 . S
C1249 O1262 1.241 . S
C1249 O1263 1.273 . S
C1250 O1264 1.251 . S
C1250 O1265 1.268 . S
C1251 Nd1241 2.836 . S
C1251 C1252 1.498 . S
C1251 O1266 1.258 . S
C1251 O1267 1.239 . S
C1252 C1251 1.498 . S
C1252 C1253 1.366 . S
C1252 C1257 1.407 . S
C1253 C1252 1.366 . S
C1253 C1254 1.392 . S
C1253 H1276 0.930 . S
C1254 C1253 1.392 . S
C1254 C1255 1.398 . S
C1254 H1277 0.929 . S
C1255 C1254 1.398 . S
C1255 C1256 1.352 . S
C1256 C1255 1.352 . S
C1256 C1257 1.384 . S
C1256 H1278 0.930 . S
C1257 C1252 1.407 . S
C1257 C1256 1.384 . S
C1257 H1279 0.929 . S
C1258 O1268 1.241 . S
C1258 O1269 1.273 . S
C1259 O1270 1.251 . S
C1259 O1271 1.268 . S
O1260 Nd1240 2.500 . S
O1260 C1242 1.258 . S
O1261 Nd1240 2.492 . S
O1261 C1242 1.239 . S
O1262 Nd1240 2.487 . S
O1262 C1249 1.241 . S
O1263 Nd1240 2.682 . S
O1263 Nd1241 2.414 . S
O1263 C1249 1.273 . S
O1264 Nd1240 2.410 . S
O1264 C1250 1.251 . S
O1265 Nd1241 2.424 . S
O1265 C1250 1.268 . S
O1266 Nd1241 2.500 . S
O1266 C1251 1.258 . S
O1267 Nd1241 2.492 . S
O1267 C1251 1.239 . S
O1268 Nd1241 2.487 . S
O1268 C1258 1.241 . S
O1269 Nd1240 2.414 . S
O1269 Nd1241 2.682 . S
O1269 C1258 1.273 . S
O1270 Nd1241 2.410 . S
O1270 C1259 1.251 . S
O1271 Nd1240 2.424 . S
O1271 C1259 1.268 . S
H1272 C1244 0.930 . S
H1273 C1245 0.929 . S
H1274 C1247 0.930 . S
H1275 C1248 0.929 . S
H1276 C1253 0.930 . S
H1277 C1254 0.929 . S
H1278 C1256 0.930 . S
H1279 C1257 0.929 . S
C1280 C1281 1.369 . S
C1280 C1282 1.419 . S
C1280 H1284 0.930 . S
C1281 C1280 1.369 . S
C1281 C1290 1.429 . S
C1282 C1280 1.419 . S
C1282 C1283 1.363 . S
C1282 H1285 0.929 . S
C1283 C1282 1.363 . S
C1283 C1289 1.428 . S
H1284 C1280 0.930 . S
H1285 C1282 0.929 . S
S1286 N1287 1.613 . S
S1286 N1288 1.610 . S
N1287 S1286 1.613 . S
N1287 C1290 1.350 . S
N1288 S1286 1.610 . S
N1288 C1289 1.351 . S
C1289 C1283 1.428 . S
C1289 N1288 1.351 . S
C1289 C1290 1.434 . S
C1290 C1281 1.429 . S
C1290 N1287 1.350 . S
C1290 C1289 1.434 . S
C1291 C1292 1.369 . S
C1291 C1293 1.419 . S
C1291 H1295 0.930 . S
C1292 C1291 1.369 . S
C1292 C1301 1.429 . S
C1293 C1291 1.419 . S
C1293 C1294 1.363 . S
C1293 H1296 0.929 . S
C1294 C1293 1.363 . S
C1294 C1300 1.428 . S
H1295 C1291 0.930 . S
H1296 C1293 0.929 . S
S1297 N1298 1.613 . S
S1297 N1299 1.610 . S
N1298 S1297 1.613 . S
N1298 C1301 1.350 . S
N1299 S1297 1.610 . S
N1299 C1300 1.351 . S
C1300 C1294 1.428 . S
C1300 N1299 1.351 . S
C1300 C1301 1.434 . S
C1301 C1292 1.429 . S
C1301 N1298 1.350 . S
C1301 C1300 1.434 . S
C1302 C1303 1.369 . S
C1302 C1304 1.419 . S
C1302 H1306 0.930 . S
C1303 C1302 1.369 . S
C1303 C1312 1.429 . S
C1304 C1302 1.419 . S
C1304 C1305 1.363 . S
C1304 H1307 0.929 . S
C1305 C1304 1.363 . S
C1305 C1311 1.428 . S
H1306 C1302 0.930 . S
H1307 C1304 0.929 . S
S1308 N1309 1.613 . S
S1308 N1310 1.610 . S
N1309 S1308 1.613 . S
N1309 C1312 1.350 . S
N1310 S1308 1.610 . S
N1310 C1311 1.351 . S
C1311 C1305 1.428 . S
C1311 N1310 1.351 . S
C1311 C1312 1.434 . S
C1312 C1303 1.429 . S
C1312 N1309 1.350 . S
C1312 C1311 1.434 . S
C1313 C1314 1.369 . S
C1313 C1315 1.419 . S
C1313 H1317 0.930 . S
C1314 C1313 1.369 . S
C1314 C1323 1.429 1_556 S
C1315 C1313 1.419 . S
C1315 C1316 1.363 1_556 S
C1315 H1318 0.929 . S
C1316 C1315 1.363 1_554 S
C1316 C1322 1.428 . S
H1317 C1313 0.930 . S
H1318 C1315 0.929 . S
S1319 N1320 1.613 . S
S1319 N1321 1.610 . S
N1320 S1319 1.613 . S
N1320 C1323 1.350 . S
N1321 S1319 1.610 . S
N1321 C1322 1.351 . S
C1322 C1316 1.428 . S
C1322 N1321 1.351 . S
C1322 C1323 1.434 . S
C1323 C1314 1.429 1_554 S
C1323 N1320 1.350 . S
C1323 C1322 1.434 . S
C1324 C1325 1.369 . S
C1324 C1326 1.419 . S
C1324 H1328 0.930 . S
C1325 C1324 1.369 . S
C1325 C1334 1.429 . S
C1326 C1324 1.419 . S
C1326 C1327 1.363 . S
C1326 H1329 0.929 . S
C1327 C1326 1.363 . S
C1327 C1333 1.428 . S
H1328 C1324 0.930 . S
H1329 C1326 0.929 . S
S1330 N1331 1.613 . S
S1330 N1332 1.610 . S
N1331 S1330 1.613 . S
N1331 C1334 1.350 . S
N1332 S1330 1.610 . S
N1332 C1333 1.351 . S
C1333 C1327 1.428 . S
C1333 N1332 1.351 . S
C1333 C1334 1.434 . S
C1334 C1325 1.429 . S
C1334 N1331 1.350 . S
C1334 C1333 1.434 . S
C1335 C1336 1.369 . S
C1335 C1337 1.419 . S
C1335 H1339 0.930 . S
C1336 C1335 1.369 . S
C1336 C1345 1.429 . S
C1337 C1335 1.419 . S
C1337 C1338 1.363 . S
C1337 H1340 0.929 . S
C1338 C1337 1.363 . S
C1338 C1344 1.428 . S
H1339 C1335 0.930 . S
H1340 C1337 0.929 . S
S1341 N1342 1.613 . S
S1341 N1343 1.610 . S
N1342 S1341 1.613 . S
N1342 C1345 1.350 . S
N1343 S1341 1.610 . S
N1343 C1344 1.351 . S
C1344 C1338 1.428 . S
C1344 N1343 1.351 . S
C1344 C1345 1.434 . S
C1345 C1336 1.429 . S
C1345 N1342 1.350 . S
C1345 C1344 1.434 . S
C1346 C1347 1.369 . S
C1346 C1348 1.419 . S
C1346 H1350 0.930 . S
C1347 C1346 1.369 . S
C1347 C1356 1.429 . S
C1348 C1346 1.419 . S
C1348 C1349 1.363 . S
C1348 H1351 0.929 . S
C1349 C1348 1.363 . S
C1349 C1355 1.428 . S
H1350 C1346 0.930 . S
H1351 C1348 0.929 . S
S1352 N1353 1.613 . S
S1352 N1354 1.610 . S
N1353 S1352 1.613 . S
N1353 C1356 1.350 . S
N1354 S1352 1.610 . S
N1354 C1355 1.351 . S
C1355 C1349 1.428 . S
C1355 N1354 1.351 . S
C1355 C1356 1.434 . S
C1356 C1347 1.429 . S
C1356 N1353 1.350 . S
C1356 C1355 1.434 . S
C1357 C1358 1.369 . S
C1357 C1359 1.419 1_554 S
C1357 H1361 0.930 . S
C1358 C1357 1.369 . S
C1358 C1367 1.429 . S
C1359 C1357 1.419 1_556 S
C1359 C1360 1.363 . S
C1359 H1362 0.929 . S
C1360 C1359 1.363 . S
C1360 C1366 1.428 . S
H1361 C1357 0.930 . S
H1362 C1359 0.929 . S
S1363 N1364 1.620 . S
S1363 N1365 1.605 1_554 S
N1364 S1363 1.620 . S
N1364 C1367 1.350 . S
N1365 S1363 1.605 1_556 S
N1365 C1366 1.351 . S
C1366 C1360 1.428 . S
C1366 N1365 1.351 . S
C1366 C1367 1.434 1_556 S
C1367 C1358 1.429 . S
C1367 N1364 1.350 . S
C1367 C1366 1.434 1_554 S
C1368 C1369 1.369 . S
C1368 C1370 1.419 . S
C1368 H1372 0.930 . S
C1369 C1368 1.369 . S
C1369 C1378 1.429 . S
C1370 C1368 1.419 . S
C1370 C1371 1.363 . S
C1370 H1373 0.929 . S
C1371 C1370 1.363 . S
C1371 C1377 1.428 . S
H1372 C1368 0.930 . S
H1373 C1370 0.929 . S
S1374 N1375 1.613 . S
S1374 N1376 1.610 . S
N1375 S1374 1.613 . S
N1375 C1378 1.350 . S
N1376 S1374 1.610 . S
N1376 C1377 1.351 . S
C1377 C1371 1.428 . S
C1377 N1376 1.351 . S
C1377 C1378 1.434 . S
C1378 C1369 1.429 . S
C1378 N1375 1.350 . S
C1378 C1377 1.434 . S
C1379 C1380 1.369 . S
C1379 C1381 1.419 . S
C1379 H1383 0.930 . S
C1380 C1379 1.369 . S
C1380 C1389 1.429 . S
C1381 C1379 1.419 . S
C1381 C1382 1.363 . S
C1381 H1384 0.929 . S
C1382 C1381 1.363 . S
C1382 C1388 1.428 . S
H1383 C1379 0.930 . S
H1384 C1381 0.929 . S
S1385 N1386 1.613 . S
S1385 N1387 1.607 1_545 S
N1386 S1385 1.613 . S
N1386 C1389 1.350 . S
N1387 S1385 1.607 1_565 S
N1387 C1388 1.339 1_565 S
C1388 C1382 1.428 . S
C1388 N1387 1.339 1_545 S
C1388 C1389 1.434 . S
C1389 C1380 1.429 . S
C1389 N1386 1.350 . S
C1389 C1388 1.434 . S
C1390 C1391 1.369 . S
C1390 C1392 1.419 . S
C1390 H1394 0.930 . S
C1391 C1390 1.369 . S
C1391 C1400 1.429 . S
C1392 C1390 1.419 . S
C1392 C1393 1.363 . S
C1392 H1395 0.929 . S
C1393 C1392 1.363 . S
C1393 C1399 1.428 . S
H1394 C1390 0.930 . S
H1395 C1392 0.929 . S
S1396 N1397 1.613 . S
S1396 N1398 1.610 . S
N1397 S1396 1.613 . S
N1397 C1400 1.350 . S
N1398 S1396 1.610 . S
N1398 C1399 1.351 . S
C1399 C1393 1.428 . S
C1399 N1398 1.351 . S
C1399 C1400 1.434 . S
C1400 C1391 1.429 . S
C1400 N1397 1.350 . S
C1400 C1399 1.434 . S
C1401 C1402 1.369 1_554 S
C1401 C1403 1.419 . S
C1401 H1405 0.930 . S
C1402 C1401 1.369 1_556 S
C1402 C1411 1.429 . S
C1403 C1401 1.419 . S
C1403 C1404 1.363 . S
C1403 H1406 0.929 . S
C1404 C1403 1.363 . S
C1404 C1410 1.428 1_554 S
H1405 C1401 0.930 . S
H1406 C1403 0.929 . S
S1407 N1408 1.613 . S
S1407 N1409 1.610 1_565 S
N1408 S1407 1.613 . S
N1408 C1411 1.350 . S
N1409 S1407 1.610 1_545 S
N1409 C1410 1.351 1_545 S
C1410 C1404 1.428 1_556 S
C1410 N1409 1.351 1_565 S
C1410 C1411 1.434 . S
C1411 C1402 1.429 . S
C1411 N1408 1.350 . S
C1411 C1410 1.434 . S
C1412 C1413 1.369 . S
C1412 C1414 1.419 . S
C1412 H1416 0.930 . S
C1413 C1412 1.369 . S
C1413 C1422 1.429 . S
C1414 C1412 1.419 . S
C1414 C1415 1.363 . S
C1414 H1417 0.929 . S
C1415 C1414 1.363 . S
C1415 C1421 1.428 . S
H1416 C1412 0.930 . S
H1417 C1414 0.929 . S
S1418 N1419 1.613 . S
S1418 N1420 1.610 . S
N1419 S1418 1.613 . S
N1419 C1422 1.350 . S
N1420 S1418 1.610 . S
N1420 C1421 1.351 . S
C1421 C1415 1.428 . S
C1421 N1420 1.351 . S
C1421 C1422 1.434 . S
C1422 C1413 1.429 . S
C1422 N1419 1.350 . S
C1422 C1421 1.434 . S
C1423 C1424 1.369 . S
C1423 C1425 1.419 . S
C1423 H1427 0.930 . S
C1424 C1423 1.369 . S
C1424 C1433 1.429 . S
C1425 C1423 1.419 . S
C1425 C1426 1.363 . S
C1425 H1428 0.929 . S
C1426 C1425 1.363 . S
C1426 C1432 1.428 . S
H1427 C1423 0.930 . S
H1428 C1425 0.929 . S
S1429 N1430 1.613 . S
S1429 N1431 1.610 . S
N1430 S1429 1.613 . S
N1430 C1433 1.350 . S
N1431 S1429 1.610 . S
N1431 C1432 1.351 . S
C1432 C1426 1.428 . S
C1432 N1431 1.351 . S
C1432 C1433 1.434 . S
C1433 C1424 1.429 . S
C1433 N1430 1.350 . S
C1433 C1432 1.434 . S
C1434 C1435 1.369 . S
C1434 C1436 1.419 . S
C1434 H1438 0.930 . S
C1435 C1434 1.369 . S
C1435 C1444 1.429 . S
C1436 C1434 1.419 . S
C1436 C1437 1.363 . S
C1436 H1439 0.929 . S
C1437 C1436 1.363 . S
C1437 C1443 1.428 . S
H1438 C1434 0.930 . S
H1439 C1436 0.929 . S
S1440 N1441 1.613 . S
S1440 N1442 1.610 . S
N1441 S1440 1.613 . S
N1441 C1444 1.350 . S
N1442 S1440 1.610 . S
N1442 C1443 1.351 . S
C1443 C1437 1.428 . S
C1443 N1442 1.351 . S
C1443 C1444 1.434 . S
C1444 C1435 1.429 . S
C1444 N1441 1.350 . S
C1444 C1443 1.434 . S
C1445 C1446 1.369 . S
C1445 C1447 1.419 1_556 S
C1445 H1449 0.930 . S
C1446 C1445 1.369 . S
C1446 C1455 1.429 . S
C1447 C1445 1.419 1_554 S
C1447 C1448 1.363 . S
C1447 H1450 0.929 . S
C1448 C1447 1.363 . S
C1448 C1454 1.428 1_554 S
H1449 C1445 0.930 . S
H1450 C1447 0.929 . S
S1451 N1452 1.613 . S
S1451 N1453 1.610 . S
N1452 S1451 1.613 . S
N1452 C1455 1.350 . S
N1453 S1451 1.610 . S
N1453 C1454 1.351 . S
C1454 C1448 1.428 1_556 S
C1454 N1453 1.351 . S
C1454 C1455 1.434 . S
C1455 C1446 1.429 . S
C1455 N1452 1.350 . S
C1455 C1454 1.434 . S
C1456 C1457 1.369 . S
C1456 C1458 1.419 . S
C1456 H1460 0.930 . S
C1457 C1456 1.369 . S
C1457 C1466 1.429 . S
C1458 C1456 1.419 . S
C1458 C1459 1.363 . S
C1458 H1461 0.929 . S
C1459 C1458 1.363 . S
C1459 C1465 1.428 . S
H1460 C1456 0.930 . S
H1461 C1458 0.929 . S
S1462 N1463 1.613 . S
S1462 N1464 1.610 . S
N1463 S1462 1.613 . S
N1463 C1466 1.350 . S
N1464 S1462 1.610 . S
N1464 C1465 1.351 . S
C1465 C1459 1.428 . S
C1465 N1464 1.351 . S
C1465 C1466 1.434 . S
C1466 C1457 1.429 . S
C1466 N1463 1.350 . S
C1466 C1465 1.434 . S
C1467 C1468 1.369 . S
C1467 C1469 1.419 . S
C1467 H1471 0.930 . S
C1468 C1467 1.369 . S
C1468 C1477 1.429 1_556 S
C1469 C1467 1.419 . S
C1469 C1470 1.363 1_556 S
C1469 H1472 0.929 . S
C1470 C1469 1.363 1_554 S
C1470 C1476 1.428 . S
H1471 C1467 0.930 . S
H1472 C1469 0.929 . S
S1473 N1474 1.613 . S
S1473 N1475 1.610 . S
N1474 S1473 1.613 . S
N1474 C1477 1.350 . S
N1475 S1473 1.610 . S
N1475 C1476 1.351 . S
C1476 C1470 1.428 . S
C1476 N1475 1.351 . S
C1476 C1477 1.434 . S
C1477 C1468 1.429 1_554 S
C1477 N1474 1.350 . S
C1477 C1476 1.434 . S
C1478 C1479 1.369 . S
C1478 C1480 1.419 . S
C1478 H1482 0.930 . S
C1479 C1478 1.369 . S
C1479 C1488 1.429 . S
C1480 C1478 1.419 . S
C1480 C1481 1.363 . S
C1480 H1483 0.929 . S
C1481 C1480 1.363 . S
C1481 C1487 1.428 . S
H1482 C1478 0.930 . S
H1483 C1480 0.929 . S
S1484 N1485 1.613 . S
S1484 N1486 1.610 . S
N1485 S1484 1.613 . S
N1485 C1488 1.350 . S
N1486 S1484 1.610 . S
N1486 C1487 1.351 . S
C1487 C1481 1.428 . S
C1487 N1486 1.351 . S
C1487 C1488 1.434 . S
C1488 C1479 1.429 . S
C1488 N1485 1.350 . S
C1488 C1487 1.434 . S
C1489 C1490 1.369 . S
C1489 C1491 1.419 . S
C1489 H1493 0.930 . S
C1490 C1489 1.369 . S
C1490 C1499 1.429 . S
C1491 C1489 1.419 . S
C1491 C1492 1.363 . S
C1491 H1494 0.929 . S
C1492 C1491 1.363 . S
C1492 C1498 1.428 . S
H1493 C1489 0.930 . S
H1494 C1491 0.929 . S
S1495 N1496 1.613 . S
S1495 N1497 1.610 . S
N1496 S1495 1.613 . S
N1496 C1499 1.350 . S
N1497 S1495 1.610 . S
N1497 C1498 1.351 . S
C1498 C1492 1.428 . S
C1498 N1497 1.351 . S
C1498 C1499 1.434 . S
C1499 C1490 1.429 . S
C1499 N1496 1.350 . S
C1499 C1498 1.434 . S
C1500 C1501 1.369 . S
C1500 C1502 1.419 . S
C1500 H1504 0.930 . S
C1501 C1500 1.369 . S
C1501 C1510 1.429 . S
C1502 C1500 1.419 . S
C1502 C1503 1.363 . S
C1502 H1505 0.929 . S
C1503 C1502 1.363 . S
C1503 C1509 1.428 . S
H1504 C1500 0.930 . S
H1505 C1502 0.929 . S
S1506 N1507 1.613 . S
S1506 N1508 1.610 . S
N1507 S1506 1.613 . S
N1507 C1510 1.350 . S
N1508 S1506 1.610 . S
N1508 C1509 1.351 . S
C1509 C1503 1.428 . S
C1509 N1508 1.351 . S
C1509 C1510 1.434 . S
C1510 C1501 1.429 . S
C1510 N1507 1.350 . S
C1510 C1509 1.434 . S
C1511 C1512 1.369 . S
C1511 C1513 1.419 . S
C1511 H1515 0.930 . S
C1512 C1511 1.369 . S
C1512 C1521 1.429 1_554 S
C1513 C1511 1.419 . S
C1513 C1514 1.363 1_554 S
C1513 H1516 0.929 . S
C1514 C1513 1.363 1_556 S
C1514 C1520 1.428 . S
H1515 C1511 0.930 . S
H1516 C1513 0.929 . S
S1517 N1518 1.613 . S
S1517 N1519 1.610 . S
N1518 S1517 1.613 . S
N1518 C1521 1.350 . S
N1519 S1517 1.610 . S
N1519 C1520 1.351 . S
C1520 C1514 1.428 . S
C1520 N1519 1.351 . S
C1520 C1521 1.434 . S
C1521 C1512 1.429 1_556 S
C1521 N1518 1.350 . S
C1521 C1520 1.434 . S
C1522 C1523 1.369 . S
C1522 C1524 1.419 . S
C1522 H1526 0.930 . S
C1523 C1522 1.369 . S
C1523 C1532 1.429 . S
C1524 C1522 1.419 . S
C1524 C1525 1.363 . S
C1524 H1527 0.929 . S
C1525 C1524 1.363 . S
C1525 C1531 1.428 . S
H1526 C1522 0.930 . S
H1527 C1524 0.929 . S
S1528 N1529 1.613 . S
S1528 N1530 1.610 . S
N1529 S1528 1.613 . S
N1529 C1532 1.350 . S
N1530 S1528 1.610 . S
N1530 C1531 1.351 . S
C1531 C1525 1.428 . S
C1531 N1530 1.351 . S
C1531 C1532 1.434 . S
C1532 C1523 1.429 . S
C1532 N1529 1.350 . S
C1532 C1531 1.434 . S
C1533 C1534 1.369 . S
C1533 C1535 1.419 . S
C1533 H1537 0.930 . S
C1534 C1533 1.369 . S
C1534 C1543 1.429 . S
C1535 C1533 1.419 . S
C1535 C1536 1.363 . S
C1535 H1538 0.929 . S
C1536 C1535 1.363 . S
C1536 C1542 1.428 . S
H1537 C1533 0.930 . S
H1538 C1535 0.929 . S
S1539 N1540 1.613 . S
S1539 N1541 1.610 . S
N1540 S1539 1.613 . S
N1540 C1543 1.350 . S
N1541 S1539 1.610 . S
N1541 C1542 1.351 . S
C1542 C1536 1.428 . S
C1542 N1541 1.351 . S
C1542 C1543 1.434 . S
C1543 C1534 1.429 . S
C1543 N1540 1.350 . S
C1543 C1542 1.434 . S
C1544 C1545 1.369 . S
C1544 C1546 1.419 . S
C1544 H1548 0.930 . S
C1545 C1544 1.369 . S
C1545 C1554 1.429 . S
C1546 C1544 1.419 . S
C1546 C1547 1.363 . S
C1546 H1549 0.929 . S
C1547 C1546 1.363 . S
C1547 C1553 1.428 . S
H1548 C1544 0.930 . S
H1549 C1546 0.929 . S
S1550 N1551 1.613 . S
S1550 N1552 1.610 . S
N1551 S1550 1.613 . S
N1551 C1554 1.350 . S
N1552 S1550 1.610 . S
N1552 C1553 1.351 . S
C1553 C1547 1.428 . S
C1553 N1552 1.351 . S
C1553 C1554 1.434 . S
C1554 C1545 1.429 . S
C1554 N1551 1.350 . S
C1554 C1553 1.434 . S
C1555 C1556 1.369 . S
C1555 C1557 1.419 . S
C1555 H1559 0.930 . S
C1556 C1555 1.369 . S
C1556 C1565 1.429 1_554 S
C1557 C1555 1.419 . S
C1557 C1558 1.363 1_554 S
C1557 H1560 0.929 . S
C1558 C1557 1.363 1_556 S
C1558 C1564 1.428 . S
H1559 C1555 0.930 . S
H1560 C1557 0.929 . S
S1561 N1562 1.613 . S
S1561 N1563 1.610 . S
N1562 S1561 1.613 . S
N1562 C1565 1.350 . S
N1563 S1561 1.610 . S
N1563 C1564 1.351 . S
C1564 C1558 1.428 . S
C1564 N1563 1.351 . S
C1564 C1565 1.434 . S
C1565 C1556 1.429 1_556 S
C1565 N1562 1.350 . S
C1565 C1564 1.434 . S
C1566 C1567 1.369 . S
C1566 C1568 1.419 . S
C1566 H1570 0.930 . S
C1567 C1566 1.369 . S
C1567 C1576 1.429 . S
C1568 C1566 1.419 . S
C1568 C1569 1.363 . S
C1568 H1571 0.929 . S
C1569 C1568 1.363 . S
C1569 C1575 1.428 . S
H1570 C1566 0.930 . S
H1571 C1568 0.929 . S
S1572 N1573 1.613 . S
S1572 N1574 1.610 . S
N1573 S1572 1.613 . S
N1573 C1576 1.350 . S
N1574 S1572 1.610 . S
N1574 C1575 1.351 . S
C1575 C1569 1.428 . S
C1575 N1574 1.351 . S
C1575 C1576 1.434 . S
C1576 C1567 1.429 . S
C1576 N1573 1.350 . S
C1576 C1575 1.434 . S
C1577 C1578 1.369 . S
C1577 C1579 1.419 . S
C1577 H1581 0.930 . S
C1578 C1577 1.369 . S
C1578 C1587 1.429 . S
C1579 C1577 1.419 . S
C1579 C1580 1.363 . S
C1579 H1582 0.929 . S
C1580 C1579 1.363 . S
C1580 C1586 1.428 . S
H1581 C1577 0.930 . S
H1582 C1579 0.929 . S
S1583 N1584 1.613 . S
S1583 N1585 1.610 . S
N1584 S1583 1.613 . S
N1584 C1587 1.350 . S
N1585 S1583 1.610 . S
N1585 C1586 1.351 . S
C1586 C1580 1.428 . S
C1586 N1585 1.351 . S
C1586 C1587 1.434 . S
C1587 C1578 1.429 . S
C1587 N1584 1.350 . S
C1587 C1586 1.434 . S
C1588 C1589 1.369 . S
C1588 C1590 1.419 . S
C1588 H1592 0.930 . S
C1589 C1588 1.369 . S
C1589 C1598 1.429 . S
C1590 C1588 1.419 . S
C1590 C1591 1.363 . S
C1590 H1593 0.929 . S
C1591 C1590 1.363 . S
C1591 C1597 1.428 . S
H1592 C1588 0.930 . S
H1593 C1590 0.929 . S
S1594 N1595 1.613 . S
S1594 N1596 1.610 . S
N1595 S1594 1.613 . S
N1595 C1598 1.350 . S
N1596 S1594 1.610 . S
N1596 C1597 1.351 . S
C1597 C1591 1.428 . S
C1597 N1596 1.351 . S
C1597 C1598 1.434 . S
C1598 C1589 1.429 . S
C1598 N1595 1.350 . S
C1598 C1597 1.434 . S
C1599 C1600 1.369 . S
C1599 C1601 1.419 1_556 S
C1599 H1603 0.930 . S
C1600 C1599 1.369 . S
C1600 C1609 1.429 . S
C1601 C1599 1.419 1_554 S
C1601 C1602 1.363 . S
C1601 H1604 0.929 . S
C1602 C1601 1.363 . S
C1602 C1608 1.428 . S
H1603 C1599 0.930 . S
H1604 C1601 0.929 . S
S1605 N1606 1.613 1_554 S
S1605 N1607 1.610 . S
N1606 S1605 1.613 1_556 S
N1606 C1609 1.350 . S
N1607 S1605 1.610 . S
N1607 C1608 1.351 . S
C1608 C1602 1.428 . S
C1608 N1607 1.351 . S
C1608 C1609 1.434 1_554 S
C1609 C1600 1.429 . S
C1609 N1606 1.350 . S
C1609 C1608 1.434 1_556 S
C1610 C1611 1.369 . S
C1610 C1612 1.419 . S
C1610 H1614 0.930 . S
C1611 C1610 1.369 . S
C1611 C1620 1.429 . S
C1612 C1610 1.419 . S
C1612 C1613 1.363 . S
C1612 H1615 0.929 . S
C1613 C1612 1.363 . S
C1613 C1619 1.428 . S
H1614 C1610 0.930 . S
H1615 C1612 0.929 . S
S1616 N1617 1.613 . S
S1616 N1618 1.610 . S
N1617 S1616 1.613 . S
N1617 C1620 1.350 . S
N1618 S1616 1.610 . S
N1618 C1619 1.351 . S
C1619 C1613 1.428 . S
C1619 N1618 1.351 . S
C1619 C1620 1.434 . S
C1620 C1611 1.429 . S
C1620 N1617 1.350 . S
C1620 C1619 1.434 . S
C1621 C1622 1.369 . S
C1621 C1623 1.419 . S
C1621 H1625 0.930 . S
C1622 C1621 1.369 . S
C1622 C1631 1.429 . S
C1623 C1621 1.419 . S
C1623 C1624 1.363 . S
C1623 H1626 0.929 . S
C1624 C1623 1.363 . S
C1624 C1630 1.428 . S
H1625 C1621 0.930 . S
H1626 C1623 0.929 . S
S1627 N1628 1.613 . S
S1627 N1629 1.610 . S
N1628 S1627 1.613 . S
N1628 C1631 1.350 . S
N1629 S1627 1.610 . S
N1629 C1630 1.351 . S
C1630 C1624 1.428 . S
C1630 N1629 1.351 . S
C1630 C1631 1.434 . S
C1631 C1622 1.429 . S
C1631 N1628 1.350 . S
C1631 C1630 1.434 . S
C1632 C1633 1.369 . S
C1632 C1634 1.419 . S
C1632 H1636 0.930 . S
C1633 C1632 1.369 . S
C1633 C1642 1.429 . S
C1634 C1632 1.419 . S
C1634 C1635 1.363 . S
C1634 H1637 0.929 . S
C1635 C1634 1.363 . S
C1635 C1641 1.428 . S
H1636 C1632 0.930 . S
H1637 C1634 0.929 . S
S1638 N1639 1.613 . S
S1638 N1640 1.610 . S
N1639 S1638 1.613 . S
N1639 C1642 1.350 . S
N1640 S1638 1.610 . S
N1640 C1641 1.351 . S
C1641 C1635 1.428 . S
C1641 N1640 1.351 . S
C1641 C1642 1.434 . S
C1642 C1633 1.429 . S
C1642 N1639 1.350 . S
C1642 C1641 1.434 . S
C1643 C1644 1.369 . S
C1643 C1645 1.419 . S
C1643 H1647 0.930 . S
C1644 C1643 1.369 . S
C1644 C1653 1.429 . S
C1645 C1643 1.419 . S
C1645 C1646 1.363 . S
C1645 H1648 0.929 . S
C1646 C1645 1.363 . S
C1646 C1652 1.428 . S
H1647 C1643 0.930 . S
H1648 C1645 0.929 . S
S1649 N1650 1.613 . S
S1649 N1651 1.610 . S
N1650 S1649 1.613 . S
N1650 C1653 1.350 . S
N1651 S1649 1.610 . S
N1651 C1652 1.351 . S
C1652 C1646 1.428 . S
C1652 N1651 1.351 . S
C1652 C1653 1.434 . S
C1653 C1644 1.429 . S
C1653 N1650 1.350 . S
C1653 C1652 1.434 . S
C1654 C1655 1.369 . S
C1654 C1656 1.419 . S
C1654 H1658 0.930 . S
C1655 C1654 1.369 . S
C1655 C1664 1.429 . S
C1656 C1654 1.419 . S
C1656 C1657 1.363 . S
C1656 H1659 0.929 . S
C1657 C1656 1.363 . S
C1657 C1663 1.428 . S
H1658 C1654 0.930 . S
H1659 C1656 0.929 . S
S1660 N1661 1.613 . S
S1660 N1662 1.610 . S
N1661 S1660 1.613 . S
N1661 C1664 1.350 . S
N1662 S1660 1.610 . S
N1662 C1663 1.351 . S
C1663 C1657 1.428 . S
C1663 N1662 1.351 . S
C1663 C1664 1.434 . S
C1664 C1655 1.429 . S
C1664 N1661 1.350 . S
C1664 C1663 1.434 . S
C1665 C1666 1.369 . S
C1665 C1667 1.419 . S
C1665 H1669 0.930 . S
C1666 C1665 1.369 . S
C1666 C1675 1.429 . S
C1667 C1665 1.419 . S
C1667 C1668 1.363 . S
C1667 H1670 0.929 . S
C1668 C1667 1.363 . S
C1668 C1674 1.428 . S
H1669 C1665 0.930 . S
H1670 C1667 0.929 . S
S1671 N1672 1.613 . S
S1671 N1673 1.610 . S
N1672 S1671 1.613 . S
N1672 C1675 1.350 . S
N1673 S1671 1.610 . S
N1673 C1674 1.351 . S
C1674 C1668 1.428 . S
C1674 N1673 1.351 . S
C1674 C1675 1.434 . S
C1675 C1666 1.429 . S
C1675 N1672 1.350 . S
C1675 C1674 1.434 . S
C1676 C1677 1.369 . S
C1676 C1678 1.419 . S
C1676 H1680 0.930 . S
C1677 C1676 1.369 . S
C1677 C1686 1.429 . S
C1678 C1676 1.419 . S
C1678 C1679 1.363 . S
C1678 H1681 0.929 . S
C1679 C1678 1.363 . S
C1679 C1685 1.428 . S
H1680 C1676 0.930 . S
H1681 C1678 0.929 . S
S1682 N1683 1.613 . S
S1682 N1684 1.610 . S
N1683 S1682 1.613 . S
N1683 C1686 1.350 . S
N1684 S1682 1.610 . S
N1684 C1685 1.351 . S
C1685 C1679 1.428 . S
C1685 N1684 1.351 . S
C1685 C1686 1.434 . S
C1686 C1677 1.429 . S
C1686 N1683 1.350 . S
C1686 C1685 1.434 . S
C1687 C1688 1.369 . S
C1687 C1689 1.419 . S
C1687 H1691 0.930 . S
C1688 C1687 1.369 . S
C1688 C1697 1.429 . S
C1689 C1687 1.419 . S
C1689 C1690 1.363 . S
C1689 H1692 0.929 . S
C1690 C1689 1.363 . S
C1690 C1696 1.428 . S
H1691 C1687 0.930 . S
H1692 C1689 0.929 . S
S1693 N1694 1.613 . S
S1693 N1695 1.610 . S
N1694 S1693 1.613 . S
N1694 C1697 1.350 . S
N1695 S1693 1.610 . S
N1695 C1696 1.351 . S
C1696 C1690 1.428 . S
C1696 N1695 1.351 . S
C1696 C1697 1.434 . S
C1697 C1688 1.429 . S
C1697 N1694 1.350 . S
C1697 C1696 1.434 . S
C1698 C1699 1.369 . S
C1698 C1700 1.419 . S
C1698 H1702 0.930 . S
C1699 C1698 1.369 . S
C1699 C1708 1.429 . S
C1700 C1698 1.419 . S
C1700 C1701 1.363 . S
C1700 H1703 0.929 . S
C1701 C1700 1.363 . S
C1701 C1707 1.428 . S
H1702 C1698 0.930 . S
H1703 C1700 0.929 . S
S1704 N1705 1.613 . S
S1704 N1706 1.610 . S
N1705 S1704 1.613 . S
N1705 C1708 1.350 . S
N1706 S1704 1.610 . S
N1706 C1707 1.351 . S
C1707 C1701 1.428 . S
C1707 N1706 1.351 . S
C1707 C1708 1.434 . S
C1708 C1699 1.429 . S
C1708 N1705 1.350 . S
C1708 C1707 1.434 . S
C1709 C1710 1.369 . S
C1709 C1711 1.419 . S
C1709 H1713 0.930 . S
C1710 C1709 1.369 . S
C1710 C1719 1.429 . S
C1711 C1709 1.419 . S
C1711 C1712 1.363 . S
C1711 H1714 0.929 1_455 S
C1712 C1711 1.363 . S
C1712 C1718 1.428 . S
H1713 C1709 0.930 . S
H1714 C1711 0.929 1_655 S
S1715 N1716 1.613 . S
S1715 N1717 1.610 . S
N1716 S1715 1.613 . S
N1716 C1719 1.350 . S
N1717 S1715 1.610 . S
N1717 C1718 1.351 . S
C1718 C1712 1.428 . S
C1718 N1717 1.351 . S
C1718 C1719 1.434 . S
C1719 C1710 1.429 . S
C1719 N1716 1.350 . S
C1719 C1718 1.434 . S
C1720 C1721 1.369 . S
C1720 C1722 1.419 . S
C1720 H1724 0.930 . S
C1721 C1720 1.369 . S
C1721 C1730 1.429 . S
C1722 C1720 1.419 . S
C1722 C1723 1.363 . S
C1722 H1725 0.929 . S
C1723 C1722 1.363 . S
C1723 C1729 1.428 . S
H1724 C1720 0.930 . S
H1725 C1722 0.929 . S
S1726 N1727 1.613 . S
S1726 N1728 1.610 . S
N1727 S1726 1.613 . S
N1727 C1730 1.350 . S
N1728 S1726 1.610 . S
N1728 C1729 1.351 . S
C1729 C1723 1.428 . S
C1729 N1728 1.351 . S
C1729 C1730 1.434 . S
C1730 C1721 1.429 . S
C1730 N1727 1.350 . S
C1730 C1729 1.434 . S
C1731 C1732 1.369 . S
C1731 C1733 1.419 . S
C1731 H1735 0.930 1_655 S
C1732 C1731 1.369 . S
C1732 C1741 1.429 . S
C1733 C1731 1.419 . S
C1733 C1734 1.363 . S
C1733 H1736 0.929 . S
C1734 C1733 1.363 . S
C1734 C1740 1.428 . S
H1735 C1731 0.930 1_455 S
H1736 C1733 0.929 . S
S1737 N1738 1.613 . S
S1737 N1739 1.610 . S
N1738 S1737 1.613 . S
N1738 C1741 1.350 . S
N1739 S1737 1.610 . S
N1739 C1740 1.351 . S
C1740 C1734 1.428 . S
C1740 N1739 1.351 . S
C1740 C1741 1.434 . S
C1741 C1732 1.429 . S
C1741 N1738 1.350 . S
C1741 C1740 1.434 . S
C1742 C1743 1.369 . S
C1742 C1744 1.419 . S
C1742 H1746 0.930 . S
C1743 C1742 1.369 . S
C1743 C1752 1.429 . S
C1744 C1742 1.419 . S
C1744 C1745 1.363 . S
C1744 H1747 0.929 . S
C1745 C1744 1.363 . S
C1745 C1751 1.428 . S
H1746 C1742 0.930 . S
H1747 C1744 0.929 . S
S1748 N1749 1.613 . S
S1748 N1750 1.610 . S
N1749 S1748 1.613 . S
N1749 C1752 1.350 . S
N1750 S1748 1.610 . S
N1750 C1751 1.351 . S
C1751 C1745 1.428 . S
C1751 N1750 1.351 . S
C1751 C1752 1.434 . S
C1752 C1743 1.429 . S
C1752 N1749 1.350 . S
C1752 C1751 1.434 . S
C1753 C1754 1.369 . S
C1753 C1755 1.419 . S
C1753 H1757 0.930 . S
C1754 C1753 1.369 . S
C1754 C1763 1.429 . S
C1755 C1753 1.419 . S
C1755 C1756 1.363 . S
C1755 H1758 0.929 . S
C1756 C1755 1.363 . S
C1756 C1762 1.428 . S
H1757 C1753 0.930 . S
H1758 C1755 0.929 . S
S1759 N1760 1.613 . S
S1759 N1761 1.610 . S
N1760 S1759 1.613 . S
N1760 C1763 1.350 . S
N1761 S1759 1.610 . S
N1761 C1762 1.351 . S
C1762 C1756 1.428 . S
C1762 N1761 1.351 . S
C1762 C1763 1.434 . S
C1763 C1754 1.429 . S
C1763 N1760 1.350 . S
C1763 C1762 1.434 . S
C1764 C1765 1.369 . S
C1764 C1766 1.419 . S
C1764 H1768 0.930 . S
C1765 C1764 1.369 . S
C1765 C1774 1.429 . S
C1766 C1764 1.419 . S
C1766 C1767 1.363 . S
C1766 H1769 0.929 . S
C1767 C1766 1.363 . S
C1767 C1773 1.428 . S
H1768 C1764 0.930 . S
H1769 C1766 0.929 . S
S1770 N1771 1.613 . S
S1770 N1772 1.610 . S
N1771 S1770 1.613 . S
N1771 C1774 1.350 . S
N1772 S1770 1.610 . S
N1772 C1773 1.351 . S
C1773 C1767 1.428 . S
C1773 N1772 1.351 . S
C1773 C1774 1.434 . S
C1774 C1765 1.429 . S
C1774 N1771 1.350 . S
C1774 C1773 1.434 . S
C1775 C1776 1.369 . S
C1775 C1777 1.419 . S
C1775 H1779 0.930 . S
C1776 C1775 1.369 . S
C1776 C1785 1.429 . S
C1777 C1775 1.419 . S
C1777 C1778 1.363 . S
C1777 H1780 0.929 . S
C1778 C1777 1.363 . S
C1778 C1784 1.428 . S
H1779 C1775 0.930 . S
H1780 C1777 0.929 . S
S1781 N1782 1.613 . S
S1781 N1783 1.610 . S
N1782 S1781 1.613 . S
N1782 C1785 1.350 . S
N1783 S1781 1.610 . S
N1783 C1784 1.351 . S
C1784 C1778 1.428 . S
C1784 N1783 1.351 . S
C1784 C1785 1.434 . S
C1785 C1776 1.429 . S
C1785 N1782 1.350 . S
C1785 C1784 1.434 . S
C1786 C1787 1.369 . S
C1786 C1788 1.419 . S
C1786 H1790 0.930 . S
C1787 C1786 1.369 . S
C1787 C1796 1.429 . S
C1788 C1786 1.419 . S
C1788 C1789 1.363 . S
C1788 H1791 0.929 . S
C1789 C1788 1.363 . S
C1789 C1795 1.428 . S
H1790 C1786 0.930 . S
H1791 C1788 0.929 . S
S1792 N1793 1.613 . S
S1792 N1794 1.610 . S
N1793 S1792 1.613 . S
N1793 C1796 1.350 . S
N1794 S1792 1.610 . S
N1794 C1795 1.351 . S
C1795 C1789 1.428 . S
C1795 N1794 1.351 . S
C1795 C1796 1.434 . S
C1796 C1787 1.429 . S
C1796 N1793 1.350 . S
C1796 C1795 1.434 . S
C1797 C1798 1.369 . S
C1797 C1799 1.419 . S
C1797 H1801 0.930 . S
C1798 C1797 1.369 . S
C1798 C1807 1.429 . S
C1799 C1797 1.419 . S
C1799 C1800 1.363 . S
C1799 H1802 0.929 1_655 S
C1800 C1799 1.363 . S
C1800 C1806 1.428 . S
H1801 C1797 0.930 . S
H1802 C1799 0.929 1_455 S
S1803 N1804 1.613 . S
S1803 N1805 1.610 . S
N1804 S1803 1.613 . S
N1804 C1807 1.350 . S
N1805 S1803 1.610 . S
N1805 C1806 1.351 . S
C1806 C1800 1.428 . S
C1806 N1805 1.351 . S
C1806 C1807 1.434 . S
C1807 C1798 1.429 . S
C1807 N1804 1.350 . S
C1807 C1806 1.434 . S
C1808 C1809 1.369 . S
C1808 C1810 1.419 . S
C1808 H1812 0.930 . S
C1809 C1808 1.369 . S
C1809 C1818 1.429 . S
C1810 C1808 1.419 . S
C1810 C1811 1.363 . S
C1810 H1813 0.929 . S
C1811 C1810 1.363 . S
C1811 C1817 1.428 . S
H1812 C1808 0.930 . S
H1813 C1810 0.929 . S
S1814 N1815 1.613 . S
S1814 N1816 1.610 . S
N1815 S1814 1.613 . S
N1815 C1818 1.350 . S
N1816 S1814 1.610 . S
N1816 C1817 1.351 . S
C1817 C1811 1.428 . S
C1817 N1816 1.351 . S
C1817 C1818 1.434 . S
C1818 C1809 1.429 . S
C1818 N1815 1.350 . S
C1818 C1817 1.434 . S
C1819 C1820 1.369 . S
C1819 C1821 1.419 . S
C1819 H1823 0.930 . S
C1820 C1819 1.369 . S
C1820 C1829 1.429 . S
C1821 C1819 1.419 . S
C1821 C1822 1.363 . S
C1821 H1824 0.929 . S
C1822 C1821 1.363 . S
C1822 C1828 1.428 . S
H1823 C1819 0.930 . S
H1824 C1821 0.929 . S
S1825 N1826 1.613 . S
S1825 N1827 1.610 . S
N1826 S1825 1.613 . S
N1826 C1829 1.350 . S
N1827 S1825 1.610 . S
N1827 C1828 1.351 . S
C1828 C1822 1.428 . S
C1828 N1827 1.351 . S
C1828 C1829 1.434 . S
C1829 C1820 1.429 . S
C1829 N1826 1.350 . S
C1829 C1828 1.434 . S
C1830 C1831 1.369 . S
C1830 C1832 1.419 . S
C1830 H1834 0.930 . S
C1831 C1830 1.369 . S
C1831 C1840 1.429 . S
C1832 C1830 1.419 . S
C1832 C1833 1.363 . S
C1832 H1835 0.929 . S
C1833 C1832 1.363 . S
C1833 C1839 1.428 . S
H1834 C1830 0.930 . S
H1835 C1832 0.929 . S
S1836 N1837 1.613 . S
S1836 N1838 1.610 . S
N1837 S1836 1.613 . S
N1837 C1840 1.350 . S
N1838 S1836 1.610 . S
N1838 C1839 1.351 . S
C1839 C1833 1.428 . S
C1839 N1838 1.351 . S
C1839 C1840 1.434 . S
C1840 C1831 1.429 . S
C1840 N1837 1.350 . S
C1840 C1839 1.434 . S
C1841 C1842 1.369 . S
C1841 C1843 1.419 . S
C1841 H1845 0.930 . S
C1842 C1841 1.369 . S
C1842 C1851 1.429 . S
C1843 C1841 1.419 . S
C1843 C1844 1.363 . S
C1843 H1846 0.929 1_655 S
C1844 C1843 1.363 . S
C1844 C1850 1.428 . S
H1845 C1841 0.930 . S
H1846 C1843 0.929 1_455 S
S1847 N1848 1.613 . S
S1847 N1849 1.610 . S
N1848 S1847 1.613 . S
N1848 C1851 1.350 . S
N1849 S1847 1.610 . S
N1849 C1850 1.351 . S
C1850 C1844 1.428 . S
C1850 N1849 1.351 . S
C1850 C1851 1.434 . S
C1851 C1842 1.429 . S
C1851 N1848 1.350 . S
C1851 C1850 1.434 . S
C1852 C1853 1.369 . S
C1852 C1854 1.419 . S
C1852 H1856 0.930 . S
C1853 C1852 1.369 . S
C1853 C1862 1.429 . S
C1854 C1852 1.419 . S
C1854 C1855 1.363 . S
C1854 H1857 0.929 . S
C1855 C1854 1.363 . S
C1855 C1861 1.428 . S
H1856 C1852 0.930 . S
H1857 C1854 0.929 . S
S1858 N1859 1.613 . S
S1858 N1860 1.610 . S
N1859 S1858 1.613 . S
N1859 C1862 1.350 . S
N1860 S1858 1.610 . S
N1860 C1861 1.351 . S
C1861 C1855 1.428 . S
C1861 N1860 1.351 . S
C1861 C1862 1.434 . S
C1862 C1853 1.429 . S
C1862 N1859 1.350 . S
C1862 C1861 1.434 . S
C1863 C1864 1.369 . S
C1863 C1865 1.419 . S
C1863 H1867 0.930 . S
C1864 C1863 1.369 . S
C1864 C1873 1.429 . S
C1865 C1863 1.419 . S
C1865 C1866 1.363 . S
C1865 H1868 0.929 . S
C1866 C1865 1.363 . S
C1866 C1872 1.428 1_655 S
H1867 C1863 0.930 . S
H1868 C1865 0.929 . S
S1869 N1870 1.613 1_455 S
S1869 N1871 1.610 . S
N1870 S1869 1.613 1_655 S
N1870 C1873 1.350 . S
N1871 S1869 1.610 . S
N1871 C1872 1.351 . S
C1872 C1866 1.428 1_455 S
C1872 N1871 1.351 . S
C1872 C1873 1.434 1_455 S
C1873 C1864 1.429 . S
C1873 N1870 1.350 . S
C1873 C1872 1.434 1_655 S
C1874 C1875 1.369 . S
C1874 C1876 1.419 . S
C1874 H1878 0.930 . S
C1875 C1874 1.369 . S
C1875 C1884 1.429 . S
C1876 C1874 1.419 . S
C1876 C1877 1.363 . S
C1876 H1879 0.929 . S
C1877 C1876 1.363 . S
C1877 C1883 1.428 . S
H1878 C1874 0.930 . S
H1879 C1876 0.929 . S
S1880 N1881 1.613 . S
S1880 N1882 1.610 . S
N1881 S1880 1.613 . S
N1881 C1884 1.350 . S
N1882 S1880 1.610 . S
N1882 C1883 1.351 . S
C1883 C1877 1.428 . S
C1883 N1882 1.351 . S
C1883 C1884 1.434 . S
C1884 C1875 1.429 . S
C1884 N1881 1.350 . S
C1884 C1883 1.434 . S
C1885 C1886 1.369 . S
C1885 C1887 1.419 . S
C1885 H1889 0.930 . S
C1886 C1885 1.369 . S
C1886 C1895 1.429 . S
C1887 C1885 1.419 . S
C1887 C1888 1.363 . S
C1887 H1890 0.929 . S
C1888 C1887 1.363 . S
C1888 C1894 1.428 . S
H1889 C1885 0.930 . S
H1890 C1887 0.929 . S
S1891 N1892 1.613 . S
S1891 N1893 1.610 . S
N1892 S1891 1.613 . S
N1892 C1895 1.350 . S
N1893 S1891 1.610 . S
N1893 C1894 1.351 . S
C1894 C1888 1.428 . S
C1894 N1893 1.351 . S
C1894 C1895 1.434 . S
C1895 C1886 1.429 . S
C1895 N1892 1.350 . S
C1895 C1894 1.434 . S
C1896 C1897 1.369 . S
C1896 C1898 1.419 . S
C1896 H1900 0.930 . S
C1897 C1896 1.369 . S
C1897 C1906 1.429 . S
C1898 C1896 1.419 . S
C1898 C1899 1.363 . S
C1898 H1901 0.929 . S
C1899 C1898 1.363 . S
C1899 C1905 1.428 . S
H1900 C1896 0.930 . S
H1901 C1898 0.929 . S
S1902 N1903 1.613 . S
S1902 N1904 1.610 . S
N1903 S1902 1.613 . S
N1903 C1906 1.350 . S
N1904 S1902 1.610 . S
N1904 C1905 1.351 . S
C1905 C1899 1.428 . S
C1905 N1904 1.351 . S
C1905 C1906 1.434 . S
C1906 C1897 1.429 . S
C1906 N1903 1.350 . S
C1906 C1905 1.434 . S
C1907 C1908 1.369 . S
C1907 C1909 1.419 . S
C1907 H1911 0.930 . S
C1908 C1907 1.369 . S
C1908 C1917 1.429 . S
C1909 C1907 1.419 . S
C1909 C1910 1.363 . S
C1909 H1912 0.929 . S
C1910 C1909 1.363 . S
C1910 C1916 1.428 . S
H1911 C1907 0.930 . S
H1912 C1909 0.929 . S
S1913 N1914 1.613 . S
S1913 N1915 1.610 . S
N1914 S1913 1.613 . S
N1914 C1917 1.350 . S
N1915 S1913 1.610 . S
N1915 C1916 1.351 . S
C1916 C1910 1.428 . S
C1916 N1915 1.351 . S
C1916 C1917 1.434 . S
C1917 C1908 1.429 . S
C1917 N1914 1.350 . S
C1917 C1916 1.434 . S
C1918 C1919 1.369 . S
C1918 C1920 1.419 . S
C1918 H1922 0.930 . S
C1919 C1918 1.369 . S
C1919 C1928 1.429 . S
C1920 C1918 1.419 . S
C1920 C1921 1.363 . S
C1920 H1923 0.929 . S
C1921 C1920 1.363 . S
C1921 C1927 1.428 . S
H1922 C1918 0.930 . S
H1923 C1920 0.929 . S
S1924 N1925 1.613 . S
S1924 N1926 1.610 . S
N1925 S1924 1.613 . S
N1925 C1928 1.350 . S
N1926 S1924 1.610 . S
N1926 C1927 1.351 . S
C1927 C1921 1.428 . S
C1927 N1926 1.351 . S
C1927 C1928 1.434 . S
C1928 C1919 1.429 . S
C1928 N1925 1.350 . S
C1928 C1927 1.434 . S
C1929 C1930 1.369 . S
C1929 C1931 1.419 . S
C1929 H1933 0.930 1_455 S
C1930 C1929 1.369 . S
C1930 C1939 1.429 . S
C1931 C1929 1.419 . S
C1931 C1932 1.363 . S
C1931 H1934 0.929 . S
C1932 C1931 1.363 . S
C1932 C1938 1.428 . S
H1933 C1929 0.930 1_655 S
H1934 C1931 0.929 . S
S1935 N1936 1.613 . S
S1935 N1937 1.610 . S
N1936 S1935 1.613 . S
N1936 C1939 1.350 . S
N1937 S1935 1.610 . S
N1937 C1938 1.351 . S
C1938 C1932 1.428 . S
C1938 N1937 1.351 . S
C1938 C1939 1.434 . S
C1939 C1930 1.429 . S
C1939 N1936 1.350 . S
C1939 C1938 1.434 . S
C1940 C1941 1.369 . S
C1940 C1942 1.419 . S
C1940 H1944 0.930 . S
C1941 C1940 1.369 . S
C1941 C1950 1.429 . S
C1942 C1940 1.419 . S
C1942 C1943 1.363 . S
C1942 H1945 0.929 . S
C1943 C1942 1.363 . S
C1943 C1949 1.428 . S
H1944 C1940 0.930 . S
H1945 C1942 0.929 . S
S1946 N1947 1.613 . S
S1946 N1948 1.610 . S
N1947 S1946 1.613 . S
N1947 C1950 1.350 . S
N1948 S1946 1.610 . S
N1948 C1949 1.351 . S
C1949 C1943 1.428 . S
C1949 N1948 1.351 . S
C1949 C1950 1.434 . S
C1950 C1941 1.429 . S
C1950 N1947 1.350 . S
C1950 C1949 1.434 . S
C1951 C1952 1.369 . S
C1951 C1953 1.430 . S
C1951 H1955 0.930 . S
C1952 C1951 1.369 . S
C1952 C1961 1.429 . S
C1953 C1951 1.430 . S
C1953 C1954 1.367 . S
C1953 H1956 0.913 1_455 S
C1954 C1953 1.367 . S
C1954 C1960 1.428 . S
H1955 C1951 0.930 . S
H1956 C1953 0.913 1_655 S
S1957 N1958 1.613 . S
S1957 N1959 1.610 . S
N1958 S1957 1.613 . S
N1958 C1961 1.350 . S
N1959 S1957 1.610 . S
N1959 C1960 1.351 . S
C1960 C1954 1.428 . S
C1960 N1959 1.351 . S
C1960 C1961 1.434 . S
C1961 C1952 1.429 . S
C1961 N1958 1.350 . S
C1961 C1960 1.434 . S
C1962 C1963 1.369 . S
C1962 C1964 1.419 . S
C1962 H1966 0.930 . S
C1963 C1962 1.369 . S
C1963 C1972 1.429 . S
C1964 C1962 1.419 . S
C1964 C1965 1.363 . S
C1964 H1967 0.929 . S
C1965 C1964 1.363 . S
C1965 C1971 1.428 . S
H1966 C1962 0.930 . S
H1967 C1964 0.929 . S
S1968 N1969 1.613 . S
S1968 N1970 1.610 . S
N1969 S1968 1.613 . S
N1969 C1972 1.350 . S
N1970 S1968 1.610 . S
N1970 C1971 1.351 . S
C1971 C1965 1.428 . S
C1971 N1970 1.351 . S
C1971 C1972 1.434 . S
C1972 C1963 1.429 . S
C1972 N1969 1.350 . S
C1972 C1971 1.434 . S
C1973 C1974 1.369 . S
C1973 C1975 1.419 . S
C1973 H1977 0.930 . S
C1974 C1973 1.369 . S
C1974 C1983 1.429 . S
C1975 C1973 1.419 . S
C1975 C1976 1.363 . S
C1975 H1978 0.929 . S
C1976 C1975 1.363 . S
C1976 C1982 1.428 . S
H1977 C1973 0.930 . S
H1978 C1975 0.929 . S
S1979 N1980 1.613 . S
S1979 N1981 1.610 . S
N1980 S1979 1.613 . S
N1980 C1983 1.350 . S
N1981 S1979 1.610 . S
N1981 C1982 1.351 . S
C1982 C1976 1.428 . S
C1982 N1981 1.351 . S
C1982 C1983 1.434 . S
C1983 C1974 1.429 . S
C1983 N1980 1.350 . S
C1983 C1982 1.434 . S
C1984 C1985 1.369 . S
C1984 C1986 1.419 . S
C1984 H1988 0.930 . S
C1985 C1984 1.369 . S
C1985 C1994 1.429 1_545 S
C1986 C1984 1.419 . S
C1986 C1987 1.363 1_545 S
C1986 H1989 0.929 . S
C1987 C1986 1.363 1_565 S
C1987 C1993 1.428 . S
H1988 C1984 0.930 . S
H1989 C1986 0.929 . S
S1990 N1991 1.613 1_655 S
S1990 N1992 1.610 1_655 S
N1991 S1990 1.613 1_455 S
N1991 C1994 1.350 . S
N1992 S1990 1.610 1_455 S
N1992 C1993 1.351 . S
C1993 C1987 1.428 . S
C1993 N1992 1.351 . S
C1993 C1994 1.434 . S
C1994 C1985 1.429 1_565 S
C1994 N1991 1.350 . S
C1994 C1993 1.434 . S
C1995 C1996 1.369 . S
C1995 C1997 1.419 . S
C1995 H1999 0.930 . S
C1996 C1995 1.369 . S
C1996 C2005 1.429 . S
C1997 C1995 1.419 . S
C1997 C1998 1.363 . S
C1997 H2000 0.929 . S
C1998 C1997 1.363 . S
C1998 C2004 1.428 . S
H1999 C1995 0.930 . S
H2000 C1997 0.929 . S
S2001 N2002 1.613 . S
S2001 N2003 1.610 . S
N2002 S2001 1.613 . S
N2002 C2005 1.350 . S
N2003 S2001 1.610 . S
N2003 C2004 1.351 . S
C2004 C1998 1.428 . S
C2004 N2003 1.351 . S
C2004 C2005 1.434 . S
C2005 C1996 1.429 . S
C2005 N2002 1.350 . S
C2005 C2004 1.434 . S
C2006 C2007 1.369 1_545 S
C2006 C2008 1.419 . S
C2006 H2010 0.930 . S
C2007 C2006 1.369 1_565 S
C2007 C2016 1.429 . S
C2008 C2006 1.419 . S
C2008 C2009 1.363 . S
C2008 H2011 0.929 . S
C2009 C2008 1.363 . S
C2009 C2015 1.428 1_545 S
H2010 C2006 0.930 . S
H2011 C2008 0.929 . S
S2012 N2013 1.613 . S
S2012 N2014 1.610 . S
N2013 S2012 1.613 . S
N2013 C2016 1.350 . S
N2014 S2012 1.610 . S
N2014 C2015 1.351 . S
C2015 C2009 1.428 1_565 S
C2015 N2014 1.351 . S
C2015 C2016 1.434 . S
C2016 C2007 1.429 . S
C2016 N2013 1.350 . S
C2016 C2015 1.434 . S
C2017 C2018 1.369 . S
C2017 C2019 1.419 1_556 S
C2017 H2021 0.930 . S
C2018 C2017 1.369 . S
C2018 C2027 1.429 . S
C2019 C2017 1.419 1_554 S
C2019 C2020 1.363 . S
C2019 H2022 0.929 . S
C2020 C2019 1.363 . S
C2020 C2026 1.450 . S
H2021 C2017 0.930 . S
H2022 C2019 0.929 . S
S2023 N2024 1.613 . S
S2023 N2025 1.610 . S
N2024 S2023 1.613 . S
N2024 C2027 1.350 . S
N2025 S2023 1.610 . S
N2025 C2026 1.349 1_556 S
C2026 C2020 1.450 . S
C2026 N2025 1.349 1_554 S
C2026 C2027 1.412 1_554 S
C2027 C2018 1.429 . S
C2027 N2024 1.350 . S
C2027 C2026 1.412 1_556 S
C2028 C2029 1.369 1_565 S
C2028 C2030 1.419 . S
C2028 H2032 0.930 . S
C2029 C2028 1.369 1_545 S
C2029 C2038 1.429 . S
C2030 C2028 1.419 . S
C2030 C2031 1.363 . S
C2030 H2033 0.929 . S
C2031 C2030 1.363 . S
C2031 C2037 1.428 1_565 S
H2032 C2028 0.930 . S
H2033 C2030 0.929 . S
S2034 N2035 1.613 . S
S2034 N2036 1.610 . S
N2035 S2034 1.613 . S
N2035 C2038 1.350 . S
N2036 S2034 1.610 . S
N2036 C2037 1.351 . S
C2037 C2031 1.428 1_545 S
C2037 N2036 1.351 . S
C2037 C2038 1.434 . S
C2038 C2029 1.429 . S
C2038 N2035 1.350 . S
C2038 C2037 1.434 . S
C2039 C2040 1.369 . S
C2039 C2041 1.419 . S
C2039 H2043 0.930 . S
C2040 C2039 1.369 . S
C2040 C2049 1.429 . S
C2041 C2039 1.419 . S
C2041 C2042 1.363 . S
C2041 H2044 0.929 . S
C2042 C2041 1.363 . S
C2042 C2048 1.428 . S
H2043 C2039 0.930 . S
H2044 C2041 0.929 . S
S2045 N2046 1.613 . S
S2045 N2047 1.610 . S
N2046 S2045 1.613 . S
N2046 C2049 1.350 . S
N2047 S2045 1.610 . S
N2047 C2048 1.351 . S
C2048 C2042 1.428 . S
C2048 N2047 1.351 . S
C2048 C2049 1.434 . S
C2049 C2040 1.429 . S
C2049 N2046 1.350 . S
C2049 C2048 1.434 . S
C2050 C2051 1.369 . S
C2050 C2052 1.419 . S
C2050 H2054 0.930 . S
C2051 C2050 1.369 . S
C2051 C2060 1.429 1_545 S
C2052 C2050 1.419 . S
C2052 C2053 1.363 1_545 S
C2052 H2055 0.929 . S
C2053 C2052 1.363 1_565 S
C2053 C2059 1.428 . S
H2054 C2050 0.930 . S
H2055 C2052 0.929 . S
S2056 N2057 1.613 . S
S2056 N2058 1.610 . S
N2057 S2056 1.613 . S
N2057 C2060 1.350 . S
N2058 S2056 1.610 . S
N2058 C2059 1.351 . S
C2059 C2053 1.428 . S
C2059 N2058 1.351 . S
C2059 C2060 1.434 . S
C2060 C2051 1.429 1_565 S
C2060 N2057 1.350 . S
C2060 C2059 1.434 . S
C2061 C2062 1.369 . S
C2061 C2063 1.419 1_556 S
C2061 H2065 0.930 . S
C2062 C2061 1.369 . S
C2062 C2071 1.429 . S
C2063 C2061 1.419 1_554 S
C2063 C2064 1.363 . S
C2063 H2066 0.929 . S
C2064 C2063 1.363 . S
C2064 C2070 1.428 . S
H2065 C2061 0.930 . S
H2066 C2063 0.929 . S
S2067 N2068 1.613 1_554 S
S2067 N2069 1.610 . S
N2068 S2067 1.613 1_556 S
N2068 C2071 1.350 . S
N2069 S2067 1.610 . S
N2069 C2070 1.351 . S
C2070 C2064 1.428 . S
C2070 N2069 1.351 . S
C2070 C2071 1.434 1_554 S
C2071 C2062 1.429 . S
C2071 N2068 1.350 . S
C2071 C2070 1.434 1_556 S
C2072 C2073 1.369 . S
C2072 C2074 1.419 . S
C2072 H2076 0.930 . S
C2073 C2072 1.369 . S
C2073 C2082 1.429 . S
C2074 C2072 1.419 . S
C2074 C2075 1.363 . S
C2074 H2077 0.929 . S
C2075 C2074 1.363 . S
C2075 C2081 1.428 . S
H2076 C2072 0.930 . S
H2077 C2074 0.929 . S
S2078 N2079 1.613 . S
S2078 N2080 1.610 . S
N2079 S2078 1.613 . S
N2079 C2082 1.350 . S
N2080 S2078 1.610 . S
N2080 C2081 1.351 . S
C2081 C2075 1.428 . S
C2081 N2080 1.351 . S
C2081 C2082 1.434 . S
C2082 C2073 1.429 . S
C2082 N2079 1.350 . S
C2082 C2081 1.434 . S
C2083 C2084 1.369 . S
C2083 C2085 1.419 1_556 S
C2083 H2087 0.930 . S
C2084 C2083 1.369 . S
C2084 C2093 1.429 . S
C2085 C2083 1.419 1_554 S
C2085 C2086 1.363 . S
C2085 H2088 0.929 . S
C2086 C2085 1.363 . S
C2086 C2092 1.428 . S
H2087 C2083 0.930 . S
H2088 C2085 0.929 . S
S2089 N2090 1.613 . S
S2089 N2091 1.610 1_556 S
N2090 S2089 1.613 . S
N2090 C2093 1.350 . S
N2091 S2089 1.610 1_554 S
N2091 C2092 1.351 . S
C2092 C2086 1.428 . S
C2092 N2091 1.351 . S
C2092 C2093 1.434 1_554 S
C2093 C2084 1.429 . S
C2093 N2090 1.350 . S
C2093 C2092 1.434 1_556 S
C2094 C2095 1.369 . S
C2094 C2096 1.419 . S
C2094 H2098 0.930 . S
C2095 C2094 1.369 . S
C2095 C2104 1.429 . S
C2096 C2094 1.419 . S
C2096 C2097 1.363 . S
C2096 H2099 0.929 . S
C2097 C2096 1.363 . S
C2097 C2103 1.428 . S
H2098 C2094 0.930 . S
H2099 C2096 0.929 . S
S2100 N2101 1.613 1_455 S
S2100 N2102 1.610 1_455 S
N2101 S2100 1.613 1_655 S
N2101 C2104 1.350 . S
N2102 S2100 1.610 1_655 S
N2102 C2103 1.351 . S
C2103 C2097 1.428 . S
C2103 N2102 1.351 . S
C2103 C2104 1.434 . S
C2104 C2095 1.429 . S
C2104 N2101 1.350 . S
C2104 C2103 1.434 . S
C2105 C2106 1.369 . S
C2105 C2107 1.419 . S
C2105 H2109 0.930 . S
C2106 C2105 1.369 . S
C2106 C2115 1.429 . S
C2107 C2105 1.419 . S
C2107 C2108 1.363 . S
C2107 H2110 0.929 . S
C2108 C2107 1.363 . S
C2108 C2114 1.428 . S
H2109 C2105 0.930 . S
H2110 C2107 0.929 . S
S2111 N2112 1.613 . S
S2111 N2113 1.610 . S
N2112 S2111 1.613 . S
N2112 C2115 1.350 . S
N2113 S2111 1.610 . S
N2113 C2114 1.351 . S
C2114 C2108 1.428 . S
C2114 N2113 1.351 . S
C2114 C2115 1.434 . S
C2115 C2106 1.429 . S
C2115 N2112 1.350 . S
C2115 C2114 1.434 . S
C2116 C2117 1.369 . S
C2116 C2118 1.419 . S
C2116 H2120 0.930 . S
C2117 C2116 1.369 . S
C2117 C2126 1.429 . S
C2118 C2116 1.419 . S
C2118 C2119 1.363 . S
C2118 H2121 0.929 . S
C2119 C2118 1.363 . S
C2119 C2125 1.428 . S
H2120 C2116 0.930 . S
H2121 C2118 0.929 . S
S2122 N2123 1.613 . S
S2122 N2124 1.610 . S
N2123 S2122 1.613 . S
N2123 C2126 1.350 . S
N2124 S2122 1.610 . S
N2124 C2125 1.351 . S
C2125 C2119 1.428 . S
C2125 N2124 1.351 . S
C2125 C2126 1.434 . S
C2126 C2117 1.429 . S
C2126 N2123 1.350 . S
C2126 C2125 1.434 . S
C2127 C2128 1.369 . S
C2127 C2129 1.419 1_556 S
C2127 H2131 0.930 . S
C2128 C2127 1.369 . S
C2128 C2137 1.429 . S
C2129 C2127 1.419 1_554 S
C2129 C2130 1.363 . S
C2129 H2132 0.929 . S
C2130 C2129 1.363 . S
C2130 C2136 1.428 . S
H2131 C2127 0.930 . S
H2132 C2129 0.929 . S
S2133 N2134 1.613 1_554 S
S2133 N2135 1.610 . S
N2134 S2133 1.613 1_556 S
N2134 C2137 1.350 . S
N2135 S2133 1.610 . S
N2135 C2136 1.351 . S
C2136 C2130 1.428 . S
C2136 N2135 1.351 . S
C2136 C2137 1.434 1_554 S
C2137 C2128 1.429 . S
C2137 N2134 1.350 . S
C2137 C2136 1.434 1_556 S
C2138 C2139 1.369 . S
C2138 C2140 1.419 . S
C2138 H2142 0.930 . S
C2139 C2138 1.369 . S
C2139 C2148 1.429 . S
C2140 C2138 1.419 . S
C2140 C2141 1.363 . S
C2140 H2143 0.929 . S
C2141 C2140 1.363 . S
C2141 C2147 1.428 . S
H2142 C2138 0.930 . S
H2143 C2140 0.929 . S
S2144 N2145 1.613 . S
S2144 N2146 1.610 . S
N2145 S2144 1.613 . S
N2145 C2148 1.350 . S
N2146 S2144 1.610 . S
N2146 C2147 1.351 . S
C2147 C2141 1.428 . S
C2147 N2146 1.351 . S
C2147 C2148 1.434 . S
C2148 C2139 1.429 . S
C2148 N2145 1.350 . S
C2148 C2147 1.434 . S
C2149 C2150 1.369 . S
C2149 C2151 1.419 . S
C2149 H2153 0.930 . S
C2150 C2149 1.369 . S
C2150 C2159 1.429 . S
C2151 C2149 1.419 . S
C2151 C2152 1.363 . S
C2151 H2154 0.929 . S
C2152 C2151 1.363 . S
C2152 C2158 1.428 . S
H2153 C2149 0.930 . S
H2154 C2151 0.929 . S
S2155 N2156 1.613 . S
S2155 N2157 1.610 . S
N2156 S2155 1.613 . S
N2156 C2159 1.350 . S
N2157 S2155 1.610 . S
N2157 C2158 1.351 . S
C2158 C2152 1.428 . S
C2158 N2157 1.351 . S
C2158 C2159 1.434 . S
C2159 C2150 1.429 . S
C2159 N2156 1.350 . S
C2159 C2158 1.434 . S
C2160 C2161 1.369 . S
C2160 C2162 1.419 . S
C2160 H2164 0.930 . S
C2161 C2160 1.369 . S
C2161 C2170 1.429 . S
C2162 C2160 1.419 . S
C2162 C2163 1.363 . S
C2162 H2165 0.929 . S
C2163 C2162 1.363 . S
C2163 C2169 1.428 . S
H2164 C2160 0.930 . S
H2165 C2162 0.929 . S
S2166 N2167 1.613 . S
S2166 N2168 1.610 . S
N2167 S2166 1.613 . S
N2167 C2170 1.350 . S
N2168 S2166 1.610 . S
N2168 C2169 1.351 . S
C2169 C2163 1.428 . S
C2169 N2168 1.351 . S
C2169 C2170 1.434 . S
C2170 C2161 1.429 . S
C2170 N2167 1.350 . S
C2170 C2169 1.434 . S
C2171 C2172 1.369 . S
C2171 C2173 1.419 . S
C2171 H2175 0.930 . S
C2172 C2171 1.369 . S
C2172 C2181 1.429 . S
C2173 C2171 1.419 . S
C2173 C2174 1.363 . S
C2173 H2176 0.929 . S
C2174 C2173 1.363 . S
C2174 C2180 1.428 . S
H2175 C2171 0.930 . S
H2176 C2173 0.929 . S
S2177 N2178 1.613 1_655 S
S2177 N2179 1.610 1_655 S
N2178 S2177 1.613 1_455 S
N2178 C2181 1.350 . S
N2179 S2177 1.610 1_455 S
N2179 C2180 1.351 . S
C2180 C2174 1.428 . S
C2180 N2179 1.351 . S
C2180 C2181 1.434 . S
C2181 C2172 1.429 . S
C2181 N2178 1.350 . S
C2181 C2180 1.434 . S
C2182 C2183 1.369 . S
C2182 C2184 1.419 . S
C2182 H2186 0.930 . S
C2183 C2182 1.369 . S
C2183 C2192 1.429 . S
C2184 C2182 1.419 . S
C2184 C2185 1.363 . S
C2184 H2187 0.929 . S
C2185 C2184 1.363 . S
C2185 C2191 1.428 . S
H2186 C2182 0.930 . S
H2187 C2184 0.929 . S
S2188 N2189 1.613 . S
S2188 N2190 1.610 . S
N2189 S2188 1.613 . S
N2189 C2192 1.350 . S
N2190 S2188 1.610 . S
N2190 C2191 1.351 . S
C2191 C2185 1.428 . S
C2191 N2190 1.351 . S
C2191 C2192 1.434 . S
C2192 C2183 1.429 . S
C2192 N2189 1.350 . S
C2192 C2191 1.434 . S
C2193 C2194 1.369 . S
C2193 C2195 1.419 . S
C2193 H2197 0.930 . S
C2194 C2193 1.369 . S
C2194 C2203 1.429 . S
C2195 C2193 1.419 . S
C2195 C2196 1.363 . S
C2195 H2198 0.929 . S
C2196 C2195 1.363 . S
C2196 C2202 1.428 . S
H2197 C2193 0.930 . S
H2198 C2195 0.929 . S
S2199 N2200 1.613 . S
S2199 N2201 1.610 . S
N2200 S2199 1.613 . S
N2200 C2203 1.350 . S
N2201 S2199 1.610 . S
N2201 C2202 1.351 . S
C2202 C2196 1.428 . S
C2202 N2201 1.351 . S
C2202 C2203 1.434 . S
C2203 C2194 1.429 . S
C2203 N2200 1.350 . S
C2203 C2202 1.434 . S
C2204 C2205 1.369 . S
C2204 C2206 1.419 . S
C2204 H2208 0.930 . S
C2205 C2204 1.369 . S
C2205 C2214 1.429 . S
C2206 C2204 1.419 . S
C2206 C2207 1.363 . S
C2206 H2209 0.929 . S
C2207 C2206 1.363 . S
C2207 C2213 1.428 . S
H2208 C2204 0.930 . S
H2209 C2206 0.929 . S
S2210 N2211 1.613 1_455 S
S2210 N2212 1.610 . S
N2211 S2210 1.613 1_655 S
N2211 C2214 1.350 . S
N2212 S2210 1.610 . S
N2212 C2213 1.351 1_455 S
C2213 C2207 1.428 . S
C2213 N2212 1.351 1_655 S
C2213 C2214 1.434 . S
C2214 C2205 1.429 . S
C2214 N2211 1.350 . S
C2214 C2213 1.434 . S
C2215 C2216 1.369 . S
C2215 C2217 1.419 . S
C2215 H2219 0.930 . S
C2216 C2215 1.369 . S
C2216 C2225 1.429 . S
C2217 C2215 1.419 . S
C2217 C2218 1.363 . S
C2217 H2220 0.929 . S
C2218 C2217 1.363 . S
C2218 C2224 1.428 . S
H2219 C2215 0.930 . S
H2220 C2217 0.929 . S
S2221 N2222 1.613 . S
S2221 N2223 1.610 . S
N2222 S2221 1.613 . S
N2222 C2225 1.350 . S
N2223 S2221 1.610 . S
N2223 C2224 1.351 . S
C2224 C2218 1.428 . S
C2224 N2223 1.351 . S
C2224 C2225 1.434 . S
C2225 C2216 1.429 . S
C2225 N2222 1.350 . S
C2225 C2224 1.434 . S
C2226 C2227 1.369 . S
C2226 C2228 1.419 . S
C2226 H2230 0.930 . S
C2227 C2226 1.369 . S
C2227 C2236 1.429 . S
C2228 C2226 1.419 . S
C2228 C2229 1.363 . S
C2228 H2231 0.929 . S
C2229 C2228 1.363 . S
C2229 C2235 1.428 . S
H2230 C2226 0.930 . S
H2231 C2228 0.929 . S
S2232 N2233 1.613 . S
S2232 N2234 1.610 . S
N2233 S2232 1.613 . S
N2233 C2236 1.350 . S
N2234 S2232 1.610 . S
N2234 C2235 1.351 . S
C2235 C2229 1.428 . S
C2235 N2234 1.351 . S
C2235 C2236 1.434 . S
C2236 C2227 1.429 . S
C2236 N2233 1.350 . S
C2236 C2235 1.434 . S
C2237 C2238 1.369 . S
C2237 C2239 1.419 . S
C2237 H2241 0.930 . S
C2238 C2237 1.369 . S
C2238 C2247 1.429 . S
C2239 C2237 1.419 . S
C2239 C2240 1.363 . S
C2239 H2242 0.929 . S
C2240 C2239 1.363 . S
C2240 C2246 1.428 . S
H2241 C2237 0.930 . S
H2242 C2239 0.929 . S
S2243 N2244 1.613 . S
S2243 N2245 1.610 . S
N2244 S2243 1.613 . S
N2244 C2247 1.350 . S
N2245 S2243 1.610 . S
N2245 C2246 1.351 . S
C2246 C2240 1.428 . S
C2246 N2245 1.351 . S
C2246 C2247 1.434 . S
C2247 C2238 1.429 . S
C2247 N2244 1.350 . S
C2247 C2246 1.434 . S
C2248 C2249 1.369 . S
C2248 C2250 1.419 . S
C2248 H2252 0.930 . S
C2249 C2248 1.369 . S
C2249 C2258 1.429 . S
C2250 C2248 1.419 . S
C2250 C2251 1.363 . S
C2250 H2253 0.929 . S
C2251 C2250 1.363 . S
C2251 C2257 1.428 . S
H2252 C2248 0.930 . S
H2253 C2250 0.929 . S
S2254 N2255 1.613 . S
S2254 N2256 1.610 . S
N2255 S2254 1.613 . S
N2255 C2258 1.350 . S
N2256 S2254 1.610 . S
N2256 C2257 1.351 . S
C2257 C2251 1.428 . S
C2257 N2256 1.351 . S
C2257 C2258 1.434 . S
C2258 C2249 1.429 . S
C2258 N2255 1.350 . S
C2258 C2257 1.434 . S
C2259 C2260 1.369 . S
C2259 C2261 1.419 . S
C2259 H2263 0.930 . S
C2260 C2259 1.369 . S
C2260 C2269 1.429 . S
C2261 C2259 1.419 . S
C2261 C2262 1.363 . S
C2261 H2264 0.929 . S
C2262 C2261 1.363 . S
C2262 C2268 1.428 . S
H2263 C2259 0.930 . S
H2264 C2261 0.929 . S
S2265 N2266 1.613 . S
S2265 N2267 1.610 . S
N2266 S2265 1.613 . S
N2266 C2269 1.350 . S
N2267 S2265 1.610 . S
N2267 C2268 1.351 . S
C2268 C2262 1.428 . S
C2268 N2267 1.351 . S
C2268 C2269 1.434 . S
C2269 C2260 1.429 . S
C2269 N2266 1.350 . S
C2269 C2268 1.434 . S
C2270 C2271 1.369 . S
C2270 C2272 1.419 . S
C2270 H2274 0.930 . S
C2271 C2270 1.369 . S
C2271 C2280 1.429 . S
C2272 C2270 1.419 . S
C2272 C2273 1.363 . S
C2272 H2275 0.929 . S
C2273 C2272 1.363 . S
C2273 C2279 1.428 . S
H2274 C2270 0.930 . S
H2275 C2272 0.929 . S
S2276 N2277 1.613 . S
S2276 N2278 1.610 . S
N2277 S2276 1.613 . S
N2277 C2280 1.350 . S
N2278 S2276 1.610 . S
N2278 C2279 1.351 . S
C2279 C2273 1.428 . S
C2279 N2278 1.351 . S
C2279 C2280 1.434 . S
C2280 C2271 1.429 . S
C2280 N2277 1.350 . S
C2280 C2279 1.434 . S
C2281 C2282 1.369 . S
C2281 C2283 1.419 . S
C2281 H2285 0.930 . S
C2282 C2281 1.369 . S
C2282 C2291 1.429 . S
C2283 C2281 1.419 . S
C2283 C2284 1.363 . S
C2283 H2286 0.929 . S
C2284 C2283 1.363 . S
C2284 C2290 1.428 . S
H2285 C2281 0.930 . S
H2286 C2283 0.929 . S
S2287 N2288 1.613 . S
S2287 N2289 1.610 . S
N2288 S2287 1.613 . S
N2288 C2291 1.350 . S
N2289 S2287 1.610 . S
N2289 C2290 1.351 . S
C2290 C2284 1.428 . S
C2290 N2289 1.351 . S
C2290 C2291 1.434 . S
C2291 C2282 1.429 . S
C2291 N2288 1.350 . S
C2291 C2290 1.434 . S
C2292 C2293 1.369 . S
C2292 C2294 1.419 . S
C2292 H2296 0.930 . S
C2293 C2292 1.369 . S
C2293 C2302 1.429 . S
C2294 C2292 1.419 . S
C2294 C2295 1.363 . S
C2294 H2297 0.929 . S
C2295 C2294 1.363 . S
C2295 C2301 1.428 . S
H2296 C2292 0.930 . S
H2297 C2294 0.929 . S
S2298 N2299 1.613 . S
S2298 N2300 1.610 . S
N2299 S2298 1.613 . S
N2299 C2302 1.350 . S
N2300 S2298 1.610 . S
N2300 C2301 1.351 . S
C2301 C2295 1.428 . S
C2301 N2300 1.351 . S
C2301 C2302 1.434 . S
C2302 C2293 1.429 . S
C2302 N2299 1.350 . S
C2302 C2301 1.434 . S
C2303 C2304 1.369 . S
C2303 C2305 1.419 . S
C2303 H2307 0.930 . S
C2304 C2303 1.369 . S
C2304 C2313 1.429 . S
C2305 C2303 1.419 . S
C2305 C2306 1.363 . S
C2305 H2308 0.929 . S
C2306 C2305 1.363 . S
C2306 C2312 1.428 . S
H2307 C2303 0.930 . S
H2308 C2305 0.929 . S
S2309 N2310 1.613 . S
S2309 N2311 1.610 . S
N2310 S2309 1.613 . S
N2310 C2313 1.350 . S
N2311 S2309 1.610 . S
N2311 C2312 1.351 . S
C2312 C2306 1.428 . S
C2312 N2311 1.351 . S
C2312 C2313 1.434 . S
C2313 C2304 1.429 . S
C2313 N2310 1.350 . S
C2313 C2312 1.434 . S
C2314 C2315 1.369 . S
C2314 C2316 1.419 . S
C2314 H2318 0.930 . S
C2315 C2314 1.369 . S
C2315 C2324 1.429 . S
C2316 C2314 1.419 . S
C2316 C2317 1.363 . S
C2316 H2319 0.929 . S
C2317 C2316 1.363 . S
C2317 C2323 1.428 . S
H2318 C2314 0.930 . S
H2319 C2316 0.929 . S
S2320 N2321 1.613 . S
S2320 N2322 1.610 . S
N2321 S2320 1.613 . S
N2321 C2324 1.350 . S
N2322 S2320 1.610 . S
N2322 C2323 1.351 . S
C2323 C2317 1.428 . S
C2323 N2322 1.351 . S
C2323 C2324 1.434 . S
C2324 C2315 1.429 . S
C2324 N2321 1.350 . S
C2324 C2323 1.434 . S
C2325 C2326 1.369 . S
C2325 C2327 1.419 . S
C2325 H2329 0.930 . S
C2326 C2325 1.369 . S
C2326 C2335 1.429 . S
C2327 C2325 1.419 . S
C2327 C2328 1.363 . S
C2327 H2330 0.929 . S
C2328 C2327 1.363 . S
C2328 C2334 1.428 . S
H2329 C2325 0.930 . S
H2330 C2327 0.929 . S
S2331 N2332 1.613 . S
S2331 N2333 1.610 . S
N2332 S2331 1.613 . S
N2332 C2335 1.350 . S
N2333 S2331 1.610 . S
N2333 C2334 1.351 . S
C2334 C2328 1.428 . S
C2334 N2333 1.351 . S
C2334 C2335 1.434 . S
C2335 C2326 1.429 . S
C2335 N2332 1.350 . S
C2335 C2334 1.434 . S
C1281 C10 1.918 . S
C1283 C135 1.867 . S
C1292 C15 1.866 1_565 S
C1294 C50 1.918 . S
C1303 C90 1.912 . S
C1305 C55 1.873 . S
C1314 C95 1.875 1_545 S
C1316 C130 1.913 . S
C1325 C215 1.874 . S
C1327 C170 1.913 . S
C1336 C210 1.918 . S
C1338 C255 1.868 1_565 S
C1347 C295 1.867 . S
C1349 C250 1.918 . S
C1358 C175 1.873 1_545 S
C1360 C290 1.913 . S
C1369 C339 1.918 . S
C1371 C446 1.869 . S
C1380 C379 1.914 . S
C1382 C326 1.873 1_545 S
C1391 C419 1.918 . S
C1393 C366 1.868 . S
C1402 C459 1.915 . S
C1404 C406 1.873 1_565 S
C1413 C499 1.917 . S
C1415 C526 1.870 . S
C1424 C539 1.917 . S
C1426 C566 1.867 1_545 S
C1435 C606 1.868 . S
C1437 C579 1.916 . S
C1446 C486 1.869 1_565 S
C1448 C619 1.915 . S
C1457 C650 1.918 . S
C1459 C775 1.867 . S
C1468 C655 1.872 . S
C1470 C690 1.915 . S
C1479 C695 1.867 . S
C1481 C730 1.916 . S
C1490 C770 1.915 . S
C1492 C735 1.872 . S
C1501 C810 1.912 . S
C1503 C855 1.873 . S
C1512 C895 1.870 . S
C1514 C850 1.916 . S
C1523 C890 1.915 . S
C1525 C935 1.869 . S
C1534 C815 1.866 . S
C1536 C930 1.918 . S
C1545 C1086 1.866 . S
C1547 C979 1.917 . S
C1556 C966 1.874 . S
C1558 C1019 1.913 . S
C1567 C1059 1.918 . S
C1569 C1006 1.868 . S
C1578 C1046 1.869 . S
C1580 C1099 1.918 . S
C1589 C1166 1.866 . S
C1591 C1139 1.918 . S
C1600 C1206 1.871 . S
C1602 C1179 1.916 . S
C1611 C1246 1.873 . S
C1613 C1219 1.915 . S
C1622 C1259 1.913 . S
C1624 C1126 1.874 . S
C1633 C1090 1.702 . S
C1635 C9 1.729 . S
C1644 C49 1.728 . S
C1646 C330 1.697 1_455 S
C1655 C89 1.731 . S
C1657 C1010 1.701 . S
C1666 C129 1.727 . S
C1668 C410 1.698 . S
C1677 C169 1.728 . S
C1679 C1170 1.703 . S
C1688 C570 1.699 . S
C1690 C209 1.726 . S
C1699 C1250 1.703 . S
C1701 C249 1.729 . S
C1710 C289 1.730 . S
C1712 C490 1.697 1_455 S
C1721 C338 1.726 . S
C1723 C779 1.700 . S
C1732 C19 1.696 1_655 S
C1734 C378 1.729 . S
C1743 C699 1.702 . S
C1745 C418 1.729 . S
C1754 C99 1.697 . S
C1756 C458 1.730 . S
C1765 C859 1.701 . S
C1767 C498 1.727 . S
C1776 C259 1.701 . S
C1778 C538 1.725 . S
C1787 C578 1.731 . S
C1789 C939 1.700 . S
C1798 C618 1.728 . S
C1800 C179 1.701 1_655 S
C1809 C649 1.730 . S
C1811 C450 1.698 . S
C1820 C689 1.728 . S
C1822 C970 1.702 . S
C1831 C729 1.730 . S
C1833 C370 1.701 . S
C1842 C769 1.728 . S
C1844 C1050 1.701 1_655 S
C1853 C809 1.727 . S
C1855 C530 1.703 . S
C1864 C849 1.725 . S
C1866 C1210 1.700 1_655 S
C1875 C610 1.704 . S
C1877 C889 1.728 . S
C1886 C929 1.726 . S
C1888 C1130 1.702 . S
C1897 C139 1.700 . S
C1899 C978 1.730 . S
C1908 C659 1.697 . S
C1910 C1018 1.728 . S
C1919 C59 1.697 . S
C1921 C1058 1.729 . S
C1930 C739 1.696 1_455 S
C1932 C1098 1.729 . S
C1941 C219 1.697 . S
C1943 C1138 1.730 . S
C1952 C1178 1.729 . S
C1954 C899 1.700 1_455 S
C1963 C1218 1.731 . S
C1965 C299 1.699 . S
C1974 C819 1.700 . S
C1976 C1258 1.728 . S
C1985 C18 1.526 . S
C1987 C178 1.526 . S
C1996 C58 1.524 . S
C1998 C218 1.524 . S
C2007 C98 1.525 . S
C2009 C258 1.525 . S
C2018 C298 1.522 . S
C2020 C138 1.522 . S
C2029 C489 1.524 . S
C2031 C329 1.525 . S
C2040 C529 1.526 . S
C2042 C369 1.526 . S
C2051 C409 1.524 . S
C2053 C569 1.524 . S
C2062 C449 1.525 . S
C2064 C609 1.525 . S
C2073 C658 1.528 . S
C2075 C818 1.527 . S
C2084 C858 1.520 . S
C2086 C698 1.521 . S
C2095 C898 1.527 . S
C2097 C738 1.527 . S
C2106 C938 1.524 . S
C2108 C778 1.524 . S
C2117 C1129 1.525 . S
C2119 C969 1.524 . S
C2128 C1009 1.519 . S
C2130 C1169 1.520 . S
C2139 C1209 1.524 . S
C2141 C1049 1.523 . S
C2150 C1089 1.522 . S
C2152 C1249 1.522 . S
C2161 C286 1.413 . S
C2163 C6 1.406 . S
C2172 C46 1.411 . S
C2174 C166 1.413 . S
C2183 C86 1.404 . S
C2185 C206 1.414 . S
C2194 C246 1.405 . S
C2196 C126 1.413 . S
C2205 C335 1.410 . S
C2207 C615 1.413 . S
C2216 C495 1.406 . S
C2218 C375 1.411 . S
C2227 C535 1.411 . S
C2229 C415 1.407 . S
C2238 C455 1.409 . S
C2240 C575 1.408 . S
C2249 C646 1.415 . S
C2251 C926 1.409 . S
C2260 C806 1.411 . S
C2262 C686 1.407 . S
C2271 C846 1.407 . S
C2273 C726 1.415 . S
C2282 C886 1.410 . S
C2284 C766 1.408 . S
C2293 C975 1.407 . S
C2295 C1255 1.415 . S
C2304 C1135 1.408 . S
C2306 C1015 1.415 . S
C2315 C1055 1.404 . S
C2317 C1175 1.413 . S
C2326 C1215 1.406 . S
C2328 C1095 1.411 . S
