# Generated by pormake.
# Topology lcs, (4)-cn, num edge types: 1
# Building blocks:
#     Node 0, Type 0, BuildingBlock: QUQFOY_clean_sbu_1, # of connection points: 4
#     Node 1, Type 0, BuildingBlock: QUQFOY_clean_sbu_1, # of connection points: 4
#     Node 2, Type 0, BuildingBlock: QUQFOY_clean_sbu_1, # of connection points: 4
#     Node 3, Type 0, BuildingBlock: QUQFOY_clean_sbu_1, # of connection points: 4
#     Node 4, Type 0, BuildingBlock: QUQFOY_clean_sbu_1, # of connection points: 4
#     Node 5, Type 0, BuildingBlock: QUQFOY_clean_sbu_1, # of connection points: 4
#     Node 6, Type 0, BuildingBlock: QUQFOY_clean_sbu_1, # of connection points: 4
#     Node 7, Type 0, BuildingBlock: QUQFOY_clean_sbu_1, # of connection points: 4
#     Node 8, Type 0, BuildingBlock: QUQFOY_clean_sbu_1, # of connection points: 4
#     Node 9, Type 0, BuildingBlock: QUQFOY_clean_sbu_1, # of connection points: 4
#     Node 10, Type 0, BuildingBlock: QUQFOY_clean_sbu_1, # of connection points: 4
#     Node 11, Type 0, BuildingBlock: QUQFOY_clean_sbu_1, # of connection points: 4
#     Node 12, Type 0, BuildingBlock: QUQFOY_clean_sbu_1, # of connection points: 4
#     Node 13, Type 0, BuildingBlock: QUQFOY_clean_sbu_1, # of connection points: 4
#     Node 14, Type 0, BuildingBlock: QUQFOY_clean_sbu_1, # of connection points: 4
#     Node 15, Type 0, BuildingBlock: QUQFOY_clean_sbu_1, # of connection points: 4
#     Node 16, Type 0, BuildingBlock: QUQFOY_clean_sbu_1, # of connection points: 4
#     Node 17, Type 0, BuildingBlock: QUQFOY_clean_sbu_1, # of connection points: 4
#     Node 18, Type 0, BuildingBlock: QUQFOY_clean_sbu_1, # of connection points: 4
#     Node 19, Type 0, BuildingBlock: QUQFOY_clean_sbu_1, # of connection points: 4
#     Node 20, Type 0, BuildingBlock: QUQFOY_clean_sbu_1, # of connection points: 4
#     Node 21, Type 0, BuildingBlock: QUQFOY_clean_sbu_1, # of connection points: 4
#     Node 22, Type 0, BuildingBlock: QUQFOY_clean_sbu_1, # of connection points: 4
#     Node 23, Type 0, BuildingBlock: QUQFOY_clean_sbu_1, # of connection points: 4
#     Edge 24, Type (0, 0), BuildingBlock: OJICUG_clean_linker_0, # of connection points: 2
#     Edge 25, Type (0, 0), BuildingBlock: OJICUG_clean_linker_0, # of connection points: 2
#     Edge 26, Type (0, 0), BuildingBlock: OJICUG_clean_linker_0, # of connection points: 2
#     Edge 27, Type (0, 0), BuildingBlock: OJICUG_clean_linker_0, # of connection points: 2
#     Edge 28, Type (0, 0), BuildingBlock: OJICUG_clean_linker_0, # of connection points: 2
#     Edge 29, Type (0, 0), BuildingBlock: OJICUG_clean_linker_0, # of connection points: 2
#     Edge 30, Type (0, 0), BuildingBlock: OJICUG_clean_linker_0, # of connection points: 2
#     Edge 31, Type (0, 0), BuildingBlock: OJICUG_clean_linker_0, # of connection points: 2
#     Edge 32, Type (0, 0), BuildingBlock: OJICUG_clean_linker_0, # of connection points: 2
#     Edge 33, Type (0, 0), BuildingBlock: OJICUG_clean_linker_0, # of connection points: 2
#     Edge 34, Type (0, 0), BuildingBlock: OJICUG_clean_linker_0, # of connection points: 2
#     Edge 35, Type (0, 0), BuildingBlock: OJICUG_clean_linker_0, # of connection points: 2
#     Edge 36, Type (0, 0), BuildingBlock: OJICUG_clean_linker_0, # of connection points: 2
#     Edge 37, Type (0, 0), BuildingBlock: OJICUG_clean_linker_0, # of connection points: 2
#     Edge 38, Type (0, 0), BuildingBlock: OJICUG_clean_linker_0, # of connection points: 2
#     Edge 39, Type (0, 0), BuildingBlock: OJICUG_clean_linker_0, # of connection points: 2
#     Edge 40, Type (0, 0), BuildingBlock: OJICUG_clean_linker_0, # of connection points: 2
#     Edge 41, Type (0, 0), BuildingBlock: OJICUG_clean_linker_0, # of connection points: 2
#     Edge 42, Type (0, 0), BuildingBlock: OJICUG_clean_linker_0, # of connection points: 2
#     Edge 43, Type (0, 0), BuildingBlock: OJICUG_clean_linker_0, # of connection points: 2
#     Edge 44, Type (0, 0), BuildingBlock: OJICUG_clean_linker_0, # of connection points: 2
#     Edge 45, Type (0, 0), BuildingBlock: OJICUG_clean_linker_0, # of connection points: 2
#     Edge 46, Type (0, 0), BuildingBlock: OJICUG_clean_linker_0, # of connection points: 2
#     Edge 47, Type (0, 0), BuildingBlock: OJICUG_clean_linker_0, # of connection points: 2
#     Edge 48, Type (0, 0), BuildingBlock: OJICUG_clean_linker_0, # of connection points: 2
#     Edge 49, Type (0, 0), BuildingBlock: OJICUG_clean_linker_0, # of connection points: 2
#     Edge 50, Type (0, 0), BuildingBlock: OJICUG_clean_linker_0, # of connection points: 2
#     Edge 51, Type (0, 0), BuildingBlock: OJICUG_clean_linker_0, # of connection points: 2
#     Edge 52, Type (0, 0), BuildingBlock: OJICUG_clean_linker_0, # of connection points: 2
#     Edge 53, Type (0, 0), BuildingBlock: OJICUG_clean_linker_0, # of connection points: 2
#     Edge 54, Type (0, 0), BuildingBlock: OJICUG_clean_linker_0, # of connection points: 2
#     Edge 55, Type (0, 0), BuildingBlock: OJICUG_clean_linker_0, # of connection points: 2
#     Edge 56, Type (0, 0), BuildingBlock: OJICUG_clean_linker_0, # of connection points: 2
#     Edge 57, Type (0, 0), BuildingBlock: OJICUG_clean_linker_0, # of connection points: 2
#     Edge 58, Type (0, 0), BuildingBlock: OJICUG_clean_linker_0, # of connection points: 2
#     Edge 59, Type (0, 0), BuildingBlock: OJICUG_clean_linker_0, # of connection points: 2
#     Edge 60, Type (0, 0), BuildingBlock: OJICUG_clean_linker_0, # of connection points: 2
#     Edge 61, Type (0, 0), BuildingBlock: OJICUG_clean_linker_0, # of connection points: 2
#     Edge 62, Type (0, 0), BuildingBlock: OJICUG_clean_linker_0, # of connection points: 2
#     Edge 63, Type (0, 0), BuildingBlock: OJICUG_clean_linker_0, # of connection points: 2
#     Edge 64, Type (0, 0), BuildingBlock: OJICUG_clean_linker_0, # of connection points: 2
#     Edge 65, Type (0, 0), BuildingBlock: OJICUG_clean_linker_0, # of connection points: 2
#     Edge 66, Type (0, 0), BuildingBlock: OJICUG_clean_linker_0, # of connection points: 2
#     Edge 67, Type (0, 0), BuildingBlock: OJICUG_clean_linker_0, # of connection points: 2
#     Edge 68, Type (0, 0), BuildingBlock: OJICUG_clean_linker_0, # of connection points: 2
#     Edge 69, Type (0, 0), BuildingBlock: OJICUG_clean_linker_0, # of connection points: 2
#     Edge 70, Type (0, 0), BuildingBlock: OJICUG_clean_linker_0, # of connection points: 2
#     Edge 71, Type (0, 0), BuildingBlock: OJICUG_clean_linker_0, # of connection points: 2
# Relax obj value: 0.068
# Max RMSD: 0.118
# Mean RMSD: 0.112
data_MOF--net-lcs--node1-QUQFOY_clean_sbu_1--edge1-OJICUG_clean_linker_0
_symmetry_space_group_name_H-M    P1
_symmetry_Int_Tables_number       1
_symmetry_cell_setting            triclinic
loop_
_symmetry_equiv_pos_as_xyz
'x, y, z'
_cell_length_a     37.693727
_cell_length_b     37.691332
_cell_length_c     37.689732
_cell_angle_alpha  92.777409
_cell_angle_beta   92.782679
_cell_angle_gamma 92.785103
loop_
_atom_site_label
_atom_site_type_symbol
_atom_site_fract_x
_atom_site_fract_y
_atom_site_fract_z
_atom_type_partial_charge
O0 O 0.08308 0.25869 0.38198 0.0
Cd1 Cd 0.04253 0.26993 0.34658 0.0
Cd2 Cd 1.0029 0.26203 0.40416 0.0
O3 O 0.0527 0.26163 0.43057 0.0
O4 O 0.06459 0.29614 0.30793 0.0
O5 O 0.02678 0.31982 0.34436 0.0
C6 C 0.04768 0.32339 0.3184 0.0
C7 C 0.95539 0.29075 0.42938 0.0
C8 C 0.08189 0.25755 0.41553 0.0
C9 C 0.99277 0.20713 0.34229 0.0
O10 O 0.9865 0.21641 0.37415 0.0
O11 O 0.01323 0.2264 0.32453 0.0
O12 O 0.96782 0.26258 0.44224 0.0
O13 O 0.97118 0.304 0.403 0.0
O14 O 0.0759 0.72114 0.64424 0.0
Cd15 Cd 0.03791 0.74059 0.6763 0.0
Cd16 Cd 0.01987 0.77415 0.61517 0.0
O17 O 0.06107 0.74666 0.59449 0.0
O18 O 0.03491 0.70691 0.71547 0.0
O19 O 0.99011 0.71498 0.67693 0.0
C20 C 1.0027 0.69861 0.70377 0.0
C21 C 0.96446 0.77644 0.58534 0.0
C22 C 0.08106 0.72668 0.61186 0.0
C23 C 0.04278 0.81989 0.68122 0.0
O24 O 0.03295 0.81808 0.64845 0.0
O25 O 0.04641 0.79179 0.69813 0.0
O26 O 0.99217 0.79345 0.57471 0.0
O27 O 0.96872 0.75623 0.61182 0.0
O28 O 0.58376 0.75851 0.88204 0.0
Cd29 Cd 0.54322 0.76962 0.84658 0.0
Cd30 Cd 0.50355 0.76191 0.90417 0.0
O31 O 0.55335 0.76161 0.93061 0.0
O32 O 0.56525 0.79581 0.80789 0.0
O33 O 0.52738 0.81947 0.84428 0.0
C34 C 0.54828 0.82304 0.81832 0.0
C35 C 0.456 0.79065 0.92929 0.0
C36 C 0.58255 0.75748 0.9156 0.0
C37 C 0.49347 0.70683 0.84244 0.0
O38 O 0.48719 0.71621 0.87427 0.0
O39 O 0.51394 0.72603 0.82463 0.0
O40 O 0.46846 0.76252 0.94223 0.0
O41 O 0.47179 0.80385 0.90289 0.0
O42 O 0.57602 0.22114 0.14423 0.0
Cd43 Cd 0.53812 0.24057 0.1764 0.0
Cd44 Cd 0.51989 0.27415 0.11535 0.0
O45 O 0.56104 0.24668 0.09454 0.0
O46 O 0.53512 0.20683 0.21553 0.0
O47 O 0.4903 0.21501 0.17706 0.0
C48 C 0.5029 0.19858 0.20386 0.0
C49 C 0.46444 0.27648 0.08562 0.0
C50 C 0.58109 0.2267 0.11184 0.0
C51 C 0.54297 0.31986 0.18137 0.0
O52 O 0.53304 0.31806 0.14862 0.0
O53 O 0.54666 0.29176 0.19825 0.0
O54 O 0.49212 0.2935 0.07495 0.0
O55 O 0.46873 0.25624 0.11207 0.0
O56 O 0.0596 0.70428 0.12854 0.0
Cd57 Cd 0.04019 0.74212 0.09627 0.0
Cd58 Cd 1.00654 0.76044 0.15731 0.0
O59 O 0.03398 0.7193 0.17818 0.0
O60 O 0.07393 0.74501 0.05714 0.0
O61 O 0.06576 0.78993 0.0955 0.0
C62 C 0.08218 0.77727 0.06873 0.0
C63 C 1.00406 0.81585 0.18709 0.0
C64 C 0.05399 0.69924 0.16093 0.0
C65 C 0.9609 0.73729 0.09125 0.0
O66 O 0.96268 0.74727 0.12397 0.0
O67 O 0.98901 0.73354 0.0744 0.0
O68 O 0.98707 0.78811 0.19769 0.0
O69 O 0.02436 0.81163 0.16069 0.0
O70 O 0.52136 0.69683 0.3904 0.0
Cd71 Cd 0.51017 0.73732 0.42589 0.0
Cd72 Cd 0.518 0.77708 0.36833 0.0
O73 O 0.51841 0.72731 0.34187 0.0
O74 O 0.48405 0.71517 0.46456 0.0
O75 O 0.46028 0.75306 0.42825 0.0
C76 C 0.45678 0.73211 0.45419 0.0
C77 C 0.48933 0.82463 0.34311 0.0
C78 C 0.5225 0.69809 0.35686 0.0
C79 C 0.57294 0.78712 0.43019 0.0
O80 O 0.56362 0.79345 0.39836 0.0
O81 O 0.55372 0.7666 0.44793 0.0
O82 O 0.51751 0.81219 0.33027 0.0
O83 O 0.47604 0.80883 0.36946 0.0
O84 O 0.55903 0.20396 0.62814 0.0
Cd85 Cd 0.53962 0.24191 0.59601 0.0
Cd86 Cd 0.50596 0.26003 0.65706 0.0
O87 O 0.53339 0.21882 0.67781 0.0
O88 O 0.57337 0.24496 0.5569 0.0
O89 O 0.56517 0.28975 0.59541 0.0
C90 C 0.58161 0.27718 0.56861 0.0
C91 C 0.5036 0.3154 0.68695 0.0
C92 C 0.55341 0.19882 0.66051 0.0
C93 C 0.46033 0.23708 0.59094 0.0
O94 O 0.46209 0.24697 0.62369 0.0
O95 O 0.48845 0.23339 0.57409 0.0
O96 O 0.48655 0.28767 0.6975 0.0
O97 O 0.52386 0.31119 0.66052 0.0
O98 O 0.02142 0.19693 0.89031 0.0
Cd99 Cd 0.0102 0.23741 0.92581 0.0
Cd100 Cd 0.01814 0.2772 0.86831 0.0
O101 O 0.01855 0.22745 0.8418 0.0
O102 O 0.984 0.21526 0.96442 0.0
O103 O 0.96033 0.25318 0.92809 0.0
C104 C 0.95676 0.23222 0.95401 0.0
C105 C 0.98945 0.32477 0.84315 0.0
C106 C 0.0226 0.19821 0.85677 0.0
C107 C 0.07301 0.28718 0.93023 0.0
O108 O 0.06374 0.29354 0.89839 0.0
O109 O 0.05374 0.26665 0.94792 0.0
O110 O 0.01764 0.31236 0.8303 0.0
O111 O 0.97617 0.30892 0.86948 0.0
O112 O 0.38708 0.08114 0.2558 0.0
Cd113 Cd 0.35163 0.04059 0.26693 0.0
Cd114 Cd 0.40922 1.00093 0.25916 0.0
O115 O 0.43565 0.05073 0.25884 0.0
O116 O 0.31293 0.06263 0.29306 0.0
O117 O 0.34929 0.02478 0.31679 0.0
C118 C 0.32333 0.04569 0.32032 0.0
C119 C 0.43434 0.95338 0.28792 0.0
C120 C 0.42063 0.07993 0.25474 0.0
C121 C 0.34747 0.99085 0.20411 0.0
O122 O 0.3793 0.98457 0.21347 0.0
O123 O 0.32967 0.01131 0.22333 0.0
O124 O 0.44727 0.96583 0.25978 0.0
O125 O 0.40794 0.96918 0.30112 0.0
O126 O 0.22314 0.14685 0.57072 0.0
Cd127 Cd 0.24256 0.17898 0.53277 0.0
Cd128 Cd 0.27616 0.1179 0.51463 0.0
O129 O 0.24869 0.09714 0.55581 0.0
O130 O 0.20885 0.21813 0.52984 0.0
O131 O 0.21694 0.17967 0.48498 0.0
C132 C 0.20055 0.20648 0.49761 0.0
C133 C 0.27853 0.08808 0.45922 0.0
C134 C 0.22871 0.11447 0.57583 0.0
C135 C 0.32185 0.18396 0.53763 0.0
O136 O 0.32005 0.15121 0.52775 0.0
O137 O 0.29375 0.20085 0.5413 0.0
O138 O 0.29554 0.07747 0.48695 0.0
O139 O 0.25828 0.11453 0.46346 0.0
O140 O 0.13319 0.05707 0.70128 0.0
Cd141 Cd 0.10103 0.03768 0.73921 0.0
Cd142 Cd 0.16207 1.00401 0.75739 0.0
O143 O 0.18284 0.03143 0.71618 0.0
O144 O 0.06194 0.07145 0.74221 0.0
O145 O 0.1004 0.06325 0.78704 0.0
C146 C 0.07362 0.07969 0.77444 0.0
C147 C 0.19197 1.00157 0.81275 0.0
C148 C 0.16556 0.05145 0.69616 0.0
C149 C 0.09596 0.95839 0.73439 0.0
O150 O 0.1287 0.96016 0.74431 0.0
O151 O 0.07911 0.98652 0.73067 0.0
O152 O 0.2025 0.98455 0.78501 0.0
O153 O 0.16556 0.02187 0.80857 0.0
O154 O 0.19941 0.89299 0.01625 0.0
Cd155 Cd 0.23989 0.92847 0.005 0.0
Cd156 Cd 0.27965 0.87093 0.01292 0.0
O157 O 0.22988 0.84445 0.01336 0.0
O158 O 0.21771 0.96711 0.97887 0.0
O159 O 0.25559 0.93081 0.95509 0.0
C160 C 0.23463 0.95673 0.95158 0.0
C161 C 0.3272 0.84574 0.98425 0.0
C162 C 0.20067 0.85945 0.01743 0.0
C163 C 0.28968 0.93285 0.06779 0.0
O164 O 0.29601 0.901 0.05851 0.0
O165 O 0.26917 0.95056 0.04853 0.0
O166 O 0.31477 0.8329 0.01244 0.0
O167 O 0.31138 0.87207 0.97095 0.0
O168 O 0.26076 0.38467 0.07879 0.0
Cd169 Cd 0.27197 0.34924 0.03826 0.0
Cd170 Cd 0.26423 0.40682 0.99858 0.0
O171 O 0.26383 0.43324 0.04838 0.0
O172 O 0.29819 0.31058 0.06029 0.0
O173 O 0.32184 0.34703 0.02245 0.0
C174 C 0.32542 0.32106 0.04335 0.0
C175 C 0.293 0.432 0.95107 0.0
C176 C 0.2597 0.41822 0.07758 0.0
C177 C 0.20923 0.34502 0.98843 0.0
O178 O 0.21858 0.37686 0.98215 0.0
O179 O 0.22843 0.32724 0.00892 0.0
O180 O 0.26484 0.4449 0.9635 0.0
O181 O 0.30621 0.4056 0.96687 0.0
O182 O 0.70634 0.13112 0.05417 0.0
Cd183 Cd 0.74423 0.09895 0.03471 0.0
Cd184 Cd 0.7624 0.16001 1.00108 0.0
O185 O 0.72125 0.1808 0.02856 0.0
O186 O 0.74719 0.0598 0.06843 0.0
O187 O 0.79205 0.09824 0.06027 0.0
C188 C 0.77943 0.07144 0.07668 0.0
C189 C 0.81782 0.1898 0.9987 0.0
C190 C 0.70124 0.1635 0.04858 0.0
C191 C 0.73934 0.09395 0.95541 0.0
O192 O 0.74927 0.1267 0.95719 0.0
O193 O 0.73566 0.07708 0.98353 0.0
O194 O 0.79011 0.20042 0.98168 0.0
O195 O 0.81357 0.16336 0.01895 0.0
O196 O 0.14928 0.57378 0.21871 0.0
Cd197 Cd 0.18131 0.53576 0.23814 0.0
Cd198 Cd 0.12019 0.51774 0.2717 0.0
O199 O 0.09954 0.55898 0.24425 0.0
O200 O 0.22046 0.53271 0.20445 0.0
O201 O 0.18187 0.48795 0.21253 0.0
C202 C 0.20872 0.50051 0.19615 0.0
C203 C 0.09029 0.46236 0.27394 0.0
C204 C 0.11691 0.57897 0.22427 0.0
C205 C 0.18625 0.54055 0.31745 0.0
O206 O 0.15348 0.53074 0.31563 0.0
O207 O 0.20315 0.54421 0.28935 0.0
O208 O 0.0797 0.49006 0.29099 0.0
O209 O 0.11676 0.4666 0.25373 0.0
O210 O 0.76092 0.88473 0.57834 0.0
Cd211 Cd 0.77208 0.84928 0.53781 0.0
Cd212 Cd 0.76423 0.90684 0.49811 0.0
O213 O 0.76389 0.93329 0.5479 0.0
O214 O 0.79827 0.81062 0.55988 0.0
O215 O 0.82194 0.847 0.52199 0.0
C216 C 0.82551 0.82105 0.54292 0.0
C217 C 0.79291 0.93201 0.45054 0.0
C218 C 0.75981 0.91828 0.57711 0.0
C219 C 0.70926 0.84501 0.48808 0.0
O220 O 0.71858 0.87685 0.48177 0.0
O221 O 0.72851 0.82725 0.50855 0.0
O222 O 0.76476 0.94489 0.463 0.0
O223 O 0.80617 0.90564 0.46634 0.0
O224 O 0.89522 0.0192 0.19399 0.0
Cd225 Cd 0.93068 0.00805 0.23452 0.0
Cd226 Cd 0.87311 0.01584 0.27422 0.0
O227 O 0.84667 0.01623 0.22443 0.0
O228 O 0.96939 0.98194 0.21244 0.0
O229 O 0.93306 0.95818 0.25031 0.0
C230 C 0.95901 0.95468 0.22939 0.0
C231 C 0.84794 0.98711 0.32176 0.0
C232 C 0.86167 0.02031 0.19522 0.0
C233 C 0.9349 0.07085 0.2843 0.0
O234 O 0.90307 0.0615 0.29061 0.0
O235 O 0.95266 0.05163 0.2638 0.0
O236 O 0.83505 0.01527 0.30932 0.0
O237 O 0.87432 0.97388 0.30596 0.0
O238 O 0.2064 0.63096 0.55463 0.0
Cd239 Cd 0.24428 0.59873 0.53525 0.0
Cd240 Cd 0.26257 0.65974 0.50158 0.0
O241 O 0.22139 0.68058 0.52897 0.0
O242 O 0.24724 0.55964 0.56905 0.0
O243 O 0.2921 0.59806 0.56081 0.0
C244 C 0.27948 0.57129 0.57727 0.0
C245 C 0.31796 0.68959 0.49911 0.0
C246 C 0.20133 0.66333 0.54899 0.0
C247 C 0.23948 0.59364 0.45597 0.0
O248 O 0.24946 0.62637 0.45773 0.0
O249 O 0.23572 0.5768 0.48409 0.0
O250 O 0.29022 0.70013 0.48208 0.0
O251 O 0.31375 0.66319 0.51942 0.0
O252 O 0.39534 0.51901 0.69448 0.0
Cd253 Cd 0.43085 0.50775 0.73493 0.0
Cd254 Cd 0.37337 0.5157 0.77476 0.0
O255 O 0.34685 0.51614 0.72501 0.0
O256 O 0.46943 0.48157 0.71273 0.0
O257 O 0.43313 0.45785 0.75065 0.0
C258 C 0.45903 0.4543 0.72967 0.0
C259 C 0.34818 0.48705 0.82234 0.0
C260 C 0.36181 0.52019 0.69577 0.0
C261 C 0.43532 0.57054 0.78472 0.0
O262 O 0.40349 0.56128 0.79108 0.0
O263 O 0.453 0.55127 0.76419 0.0
O264 O 0.33537 0.51525 0.80992 0.0
O265 O 0.37449 0.47373 0.8065 0.0
O266 O 0.64905 0.0736 0.71814 0.0
Cd267 Cd 0.68126 0.03574 0.73762 0.0
Cd268 Cd 0.62021 0.01749 0.77121 0.0
O269 O 0.59938 0.05861 0.74371 0.0
O270 O 0.7204 0.03277 0.7039 0.0
O271 O 0.68198 0.98791 0.71209 0.0
C272 C 0.70877 1.00053 0.69566 0.0
C273 C 0.5905 0.96202 0.77358 0.0
C274 C 0.61666 0.07865 0.7237 0.0
C275 C 0.68622 0.04065 0.81691 0.0
O276 O 0.65348 0.03068 0.81512 0.0
O277 O 0.70309 0.04434 0.78881 0.0
O278 O 0.57983 0.98972 0.79058 0.0
O279 O 0.61695 0.96631 0.75334 0.0
O280 O 0.72362 0.64709 0.0712 0.0
Cd281 Cd 0.74308 0.67919 0.03325 0.0
Cd282 Cd 0.77663 0.6181 0.01511 0.0
O283 O 0.74915 0.59737 0.0563 0.0
O284 O 0.70938 0.71834 0.03019 0.0
O285 O 0.71753 0.6798 0.98541 0.0
C286 C 0.70112 0.70663 0.99797 0.0
C287 C 0.77891 0.5883 0.95969 0.0
C288 C 0.72917 0.6147 0.07631 0.0
C289 C 0.82238 0.68413 0.0381 0.0
O290 O 0.82056 0.65137 0.02821 0.0
O291 O 0.79429 0.70103 0.04177 0.0
O292 O 0.79594 0.57766 0.98739 0.0
O293 O 0.7587 0.61477 0.96396 0.0
O294 O 0.88696 0.58123 0.75595 0.0
Cd295 Cd 0.85154 0.5407 0.76721 0.0
Cd296 Cd 0.9091 0.50102 0.75935 0.0
O297 O 0.93552 0.55082 0.75893 0.0
O298 O 0.81291 0.56277 0.79344 0.0
O299 O 0.84934 0.52493 0.8171 0.0
C300 C 0.82339 0.54584 0.82068 0.0
C301 C 0.93431 0.4535 0.78806 0.0
C302 C 0.9205 0.58001 0.75483 0.0
C303 C 0.84721 0.4909 0.70444 0.0
O304 O 0.87907 0.48462 0.71373 0.0
O305 O 0.82947 0.51138 0.7237 0.0
O306 O 0.94716 0.46593 0.75988 0.0
O307 O 0.90794 0.46929 0.80132 0.0
O308 O 0.69891 0.39311 0.51659 0.0
Cd309 Cd 0.73941 0.42859 0.50542 0.0
Cd310 Cd 0.77916 0.37105 0.51325 0.0
O311 O 0.72938 0.34458 0.51363 0.0
O312 O 0.71733 0.46725 0.47925 0.0
O313 O 0.75522 0.43091 0.45556 0.0
C314 C 0.7343 0.45685 0.452 0.0
C315 C 0.8267 0.34588 0.48453 0.0
C316 C 0.70016 0.35956 0.5177 0.0
C317 C 0.78919 0.43288 0.56822 0.0
O318 O 0.79553 0.40105 0.55889 0.0
O319 O 0.76868 0.45062 0.54899 0.0
O320 O 0.81427 0.333 0.51271 0.0
O321 O 0.81089 0.37224 0.47128 0.0
O322 O 0.63343 0.55714 0.20151 0.0
Cd323 Cd 0.60121 0.53768 0.23937 0.0
Cd324 Cd 0.66224 0.50405 0.25763 0.0
O325 O 0.68308 0.53152 0.21649 0.0
O326 O 0.56207 0.5714 0.24232 0.0
O327 O 0.60047 0.56321 0.2872 0.0
C328 C 0.57369 0.57963 0.27457 0.0
C329 C 0.69199 0.50165 0.31307 0.0
C330 C 0.66582 0.55154 0.19646 0.0
C331 C 0.5962 0.45838 0.23451 0.0
O332 O 0.62893 0.46016 0.24448 0.0
O333 O 0.57934 0.48649 0.23078 0.0
O334 O 0.70262 0.48464 0.28536 0.0
O335 O 0.66557 0.52191 0.30881 0.0
C336 C 0.08957 0.39594 0.2656 0.0
C337 C 0.07505 0.42647 0.28063 0.0
H338 H 0.0921 0.33935 0.26556 0.0
C339 C 0.04847 0.42237 0.30528 0.0
H340 H 0.11001 0.39815 0.24648 0.0
C341 C 0.03826 0.38866 0.31633 0.0
C342 C 0.05438 0.35832 0.30292 0.0
H343 H 0.03662 0.44534 0.31728 0.0
H344 H 0.0188 0.38657 0.33644 0.0
C345 C 0.07933 0.36221 0.27662 0.0
C346 C 0.89804 0.76819 0.58474 0.0
C347 C 0.92857 0.78316 0.57016 0.0
H348 H 0.84147 0.76822 0.58736 0.0
C349 C 0.92446 0.80781 0.54357 0.0
H350 H 0.90026 0.74908 0.60519 0.0
C351 C 0.89075 0.81889 0.53341 0.0
C352 C 0.86043 0.80553 0.54958 0.0
H353 H 0.94743 0.81977 0.53167 0.0
H354 H 0.88866 0.83899 0.51393 0.0
C355 C 0.86432 0.77924 0.57455 0.0
C356 C 0.48006 0.62185 0.78459 0.0
C357 C 0.45092 0.60496 0.79991 0.0
H358 H 0.51594 0.66777 0.78556 0.0
C359 C 0.43559 0.62209 0.8289 0.0
H360 H 0.49221 0.60941 0.76202 0.0
C361 C 0.44926 0.65532 0.84247 0.0
C362 C 0.47821 0.67237 0.82699 0.0
H363 H 0.41306 0.60977 0.84123 0.0
H364 H 0.43703 0.66772 0.86502 0.0
C365 C 0.4934 0.65539 0.79783 0.0
C366 C 0.62625 0.22497 0.06498 0.0
C367 C 0.61135 0.21043 0.09487 0.0
H368 H 0.66699 0.222 0.02726 0.0
C369 C 0.62656 0.18079 0.10955 0.0
H370 H 0.61525 0.24799 0.05327 0.0
C371 C 0.65582 0.1658 0.09454 0.0
C372 C 0.67098 0.18045 0.06487 0.0
H373 H 0.61571 0.16897 0.13258 0.0
H374 H 0.66671 0.1428 0.10639 0.0
C375 C 0.65603 0.21031 0.0503 0.0
C376 C 0.07019 0.62427 0.22249 0.0
C377 C 0.10006 0.60929 0.20798 0.0
H378 H 0.03256 0.66509 0.21945 0.0
C379 C 0.1148 0.62446 0.17836 0.0
H380 H 0.05843 0.6133 0.2455 0.0
C381 C 0.09988 0.65375 0.16333 0.0
C382 C 0.07022 0.66898 0.17794 0.0
H383 H 0.13781 0.61355 0.16656 0.0
H384 H 0.11177 0.6646 0.14033 0.0
C385 C 0.0556 0.65408 0.2078 0.0
C386 C 0.62433 0.78706 0.47484 0.0
C387 C 0.60738 0.80235 0.44571 0.0
H388 H 0.6703 0.78811 0.51065 0.0
C389 C 0.62446 0.83132 0.43032 0.0
H390 H 0.61194 0.76449 0.48704 0.0
C391 C 0.6577 0.84494 0.44393 0.0
C392 C 0.67481 0.82951 0.47286 0.0
H393 H 0.61209 0.84363 0.4078 0.0
H394 H 0.67005 0.86749 0.43165 0.0
C395 C 0.65789 0.80034 0.48812 0.0
C396 C 0.51185 0.38183 0.68767 0.0
C397 C 0.49686 0.35127 0.70219 0.0
H398 H 0.51183 0.43842 0.68517 0.0
C399 C 0.47222 0.35532 0.72878 0.0
H400 H 0.53095 0.37966 0.66722 0.0
C401 C 0.46115 0.38902 0.73902 0.0
C402 C 0.47452 0.41938 0.72292 0.0
H403 H 0.46025 0.33233 0.74063 0.0
H404 H 0.44105 0.39107 0.7585 0.0
C405 C 0.5008 0.41553 0.69794 0.0
C406 C 0.91796 0.20057 0.99581 0.0
C407 C 0.92184 0.22554 0.96953 0.0
H408 H 0.88204 0.16993 0.02601 0.0
C409 C 0.89151 0.24171 0.95618 0.0
H410 H 0.94082 0.18776 0.00683 0.0
C411 C 0.85781 0.23154 0.96728 0.0
C412 C 0.85371 0.20497 0.99194 0.0
H413 H 0.89359 0.26118 0.93607 0.0
H414 H 0.83484 0.24345 0.95533 0.0
C415 C 0.88425 0.19038 0.00689 0.0
C416 C 0.27036 0.08748 0.39279 0.0
C417 C 0.2853 0.0729 0.42334 0.0
H418 H 0.27046 0.0901 0.33621 0.0
C419 C 0.30996 0.04634 0.41926 0.0
H420 H 0.25124 0.10792 0.39498 0.0
C421 C 0.32109 0.03618 0.38557 0.0
C422 C 0.30776 0.05234 0.35522 0.0
H423 H 0.3219 0.03444 0.44224 0.0
H424 H 0.34121 0.01671 0.3835 0.0
C425 C 0.28146 0.07729 0.35908 0.0
C426 C 0.21234 0.05307 0.65091 0.0
C427 C 0.1825 0.06768 0.66585 0.0
H428 H 0.24999 0.05596 0.6101 0.0
C429 C 0.16785 0.09732 0.65064 0.0
H430 H 0.22402 0.03005 0.66191 0.0
C431 C 0.18282 0.11226 0.62134 0.0
C432 C 0.21244 0.09756 0.60613 0.0
H433 H 0.14485 0.10919 0.66152 0.0
H434 H 0.17099 0.13527 0.61044 0.0
C435 C 0.22698 0.06769 0.62108 0.0
C436 C 0.19268 0.00971 0.8792 0.0
C437 C 0.2072 0.99477 0.84861 0.0
H438 H 0.19018 0.00959 0.93578 0.0
C439 C 0.23377 0.9701 0.85263 0.0
H440 H 0.17225 0.02884 0.87705 0.0
C441 C 0.24399 0.95896 0.88631 0.0
C442 C 0.22789 0.97229 0.91669 0.0
H443 H 0.24561 0.95816 0.82963 0.0
H444 H 0.26345 0.93884 0.88833 0.0
C445 C 0.20293 0.99859 0.91288 0.0
C446 C 0.33387 0.93305 0.11933 0.0
C447 C 0.30489 0.9484 0.10222 0.0
H448 H 0.37001 0.93444 0.16494 0.0
C449 C 0.28958 0.97754 0.11914 0.0
H450 H 0.34619 0.91053 0.10698 0.0
C451 C 0.30284 0.99084 0.15269 0.0
C452 C 0.332 0.97562 0.16965 0.0
H453 H 0.26701 0.98971 0.10672 0.0
H454 H 0.29059 0.01338 0.16509 0.0
C455 C 0.34746 0.94669 0.15256 0.0
C456 C 0.36429 0.27927 0.07494 0.0
C457 C 0.36036 0.30556 0.04998 0.0
H458 H 0.40026 0.2491 0.10554 0.0
C459 C 0.39066 0.31894 0.03379 0.0
H460 H 0.34145 0.26823 0.08777 0.0
C461 C 0.42438 0.30786 0.04392 0.0
C462 C 0.42852 0.2832 0.07049 0.0
H463 H 0.38854 0.33905 0.01432 0.0
H464 H 0.44733 0.31984 0.032 0.0
C465 C 0.39802 0.26822 0.0851 0.0
C466 C 0.97253 0.85577 0.22879 0.0
C467 C 0.99722 0.85173 0.20224 0.0
H468 H 0.94121 0.89148 0.25838 0.0
C469 C 0.01212 0.88229 0.18765 0.0
H470 H 0.96062 0.83278 0.24069 0.0
C471 C 1.00095 0.91598 0.19781 0.0
C472 C 0.97463 0.9198 0.22275 0.0
H473 H 0.03125 0.88012 0.16722 0.0
H474 H 0.01192 0.93886 0.185 0.0
C475 C 0.96134 0.88945 0.23892 0.0
C476 C 0.15581 0.66573 0.59484 0.0
C477 C 0.17105 0.68033 0.56519 0.0
H478 H 0.1156 0.66895 0.63276 0.0
C479 C 0.15616 0.71018 0.55054 0.0
H480 H 0.16665 0.64273 0.60674 0.0
C481 C 0.12635 0.72487 0.56512 0.0
C482 C 0.11136 0.71037 0.595 0.0
H483 H 0.16718 0.72183 0.52751 0.0
H484 H 0.11539 0.74788 0.55336 0.0
C485 C 0.12652 0.68075 0.60975 0.0
C486 C 0.94435 0.66743 0.7143 0.0
C487 C 0.9815 0.66995 0.7196 0.0
H488 H 0.89596 0.6375 0.72204 0.0
C489 C 0.99839 0.64381 0.7387 0.0
H490 H 0.9306 0.68723 0.6998 0.0
C491 C 0.97861 0.6149 0.75097 0.0
C492 C 0.94148 0.61202 0.74506 0.0
H493 H 0.02705 0.64502 0.7431 0.0
H494 H 0.99243 0.59458 0.76463 0.0
C495 C 0.92452 0.63899 0.72723 0.0
C496 C 0.14573 0.24137 0.49337 0.0
C497 C 0.17187 0.22231 0.47644 0.0
H498 H 0.09648 0.26726 0.48747 0.0
C499 C 0.16934 0.21706 0.43928 0.0
H500 H 0.14695 0.24573 0.52204 0.0
C501 C 0.14089 0.22999 0.41949 0.0
C502 C 0.11391 0.24778 0.43648 0.0
H503 H 0.18915 0.2026 0.42551 0.0
H504 H 0.13939 0.22485 0.39091 0.0
C505 C 0.11681 0.25365 0.47362 0.0
C506 C 0.59205 0.3925 0.23932 0.0
C507 C 0.57874 0.42316 0.22481 0.0
H508 H 0.59048 0.33556 0.23745 0.0
C509 C 0.55087 0.41952 0.19862 0.0
H510 H 0.61339 0.39461 0.25974 0.0
C511 C 0.53823 0.38575 0.18545 0.0
C512 C 0.55268 0.35509 0.19881 0.0
H513 H 0.54016 0.44269 0.18695 0.0
H514 H 0.51782 0.38364 0.16408 0.0
C515 C 0.57885 0.35874 0.2267 0.0
C516 C 0.37591 0.80298 0.98479 0.0
C517 C 0.35968 0.83159 0.96915 0.0
H518 H 0.41886 0.76805 0.98483 0.0
C519 C 0.37577 0.84723 0.94039 0.0
H520 H 0.36442 0.79035 0.00707 0.0
C521 C 0.4074 0.83445 0.92764 0.0
C522 C 0.42353 0.80578 0.9434 0.0
H523 H 0.36407 0.86946 0.92788 0.0
H524 H 0.41906 0.84687 0.90534 0.0
C525 C 0.40734 0.79026 0.97211 0.0
C526 C 0.93278 0.40492 0.83191 0.0
C527 C 0.94847 0.42105 0.8032 0.0
H528 H 0.9331 0.36161 0.86695 0.0
C529 C 0.97716 0.40487 0.78765 0.0
H530 H 0.91049 0.41657 0.84435 0.0
C531 C 0.98989 0.37346 0.80036 0.0
C532 C 0.97431 0.35723 0.82902 0.0
H533 H 0.98984 0.4164 0.76541 0.0
H534 H 0.01216 0.36198 0.78771 0.0
C535 C 0.94557 0.3733 0.84469 0.0
C536 C 0.38773 0.18807 0.53289 0.0
C537 C 0.35706 0.20142 0.54734 0.0
H538 H 0.44467 0.18957 0.53485 0.0
C539 C 0.3607 0.2293 0.57352 0.0
H540 H 0.38563 0.16671 0.51248 0.0
C541 C 0.39447 0.24191 0.58674 0.0
C542 C 0.42513 0.22741 0.57344 0.0
H543 H 0.33752 0.24004 0.58514 0.0
H544 H 0.39657 0.26232 0.6081 0.0
C545 C 0.42149 0.20124 0.54555 0.0
C546 C 0.55007 0.6391 0.35279 0.0
C547 C 0.53228 0.66611 0.33584 0.0
H548 H 0.57748 0.59086 0.34669 0.0
C549 C 0.52645 0.6633 0.2987 0.0
H550 H 0.55518 0.64053 0.38137 0.0
C551 C 0.53876 0.63442 0.2789 0.0
C552 C 0.55782 0.60825 0.29579 0.0
H553 H 0.51284 0.68365 0.28489 0.0
H554 H 0.53443 0.63327 0.25023 0.0
C555 C 0.56303 0.6107 0.33295 0.0
C556 C 0.13699 0.78153 0.03382 0.0
C557 C 0.11082 0.79845 0.05284 0.0
H558 H 0.18622 0.78747 0.0079 0.0
C559 C 0.11327 0.83561 0.05799 0.0
H560 H 0.13583 0.75286 0.02953 0.0
C561 C 0.14167 0.85543 0.045 0.0
C562 C 0.16869 0.83845 0.02725 0.0
H563 H 0.09343 0.84938 0.07242 0.0
H564 H 0.14311 0.88402 0.05007 0.0
C565 C 0.16587 0.8013 0.02148 0.0
C566 C 0.75593 0.97642 0.61195 0.0
C567 C 0.75007 0.93928 0.60911 0.0
H568 H 0.74802 0.02487 0.64202 0.0
C569 C 0.7323 0.92232 0.63613 0.0
H570 H 0.76954 0.99023 0.59159 0.0
C571 C 0.71938 0.94216 0.66456 0.0
C572 C 0.72461 0.97932 0.66702 0.0
H573 H 0.72716 0.89375 0.63468 0.0
H574 H 0.70493 0.92842 0.6844 0.0
C575 C 0.74366 0.99621 0.64085 0.0
C576 C 0.84951 0.94326 0.37033 0.0
C577 C 0.83381 0.97197 0.35422 0.0
H578 H 0.84922 0.90821 0.41363 0.0
C579 C 0.80514 0.98753 0.37043 0.0
H580 H 0.87179 0.93081 0.35865 0.0
C581 C 0.79244 0.97481 0.40186 0.0
C582 C 0.80803 0.94615 0.41806 0.0
H583 H 0.79246 0.00977 0.35893 0.0
H584 H 0.77019 0.98747 0.41337 0.0
C585 C 0.83674 0.93047 0.40196 0.0
C586 C 0.78375 0.03651 0.13148 0.0
C587 C 0.80064 0.05558 0.10532 0.0
H588 H 0.78973 0.0106 0.18072 0.0
C589 C 0.83779 0.06081 0.10779 0.0
H590 H 0.75509 0.03216 0.13031 0.0
C591 C 0.85763 0.04787 0.13621 0.0
C592 C 0.84067 0.03007 0.16322 0.0
H593 H 0.85154 0.07528 0.08797 0.0
H594 H 0.8862 0.05301 0.13767 0.0
C595 C 0.80354 0.02422 0.16038 0.0
C596 C 0.69032 0.03592 0.8828 0.0
C597 C 0.70366 0.05039 0.85213 0.0
H598 H 0.69185 0.03785 0.93975 0.0
C599 C 0.73151 0.07659 0.85577 0.0
H600 H 0.66898 0.01549 0.8807 0.0
C601 C 0.74413 0.08981 0.88953 0.0
C602 C 0.72965 0.07647 0.9202 0.0
H603 H 0.74223 0.08823 0.83258 0.0
H604 H 0.76452 0.11118 0.89163 0.0
C605 C 0.70349 0.04858 0.91657 0.0
C606 C 0.61741 0.75375 0.97375 0.0
C607 C 0.61456 0.74778 0.93662 0.0
H608 H 0.64751 0.74596 0.02223 0.0
C609 C 0.64156 0.72996 0.9197 0.0
H610 H 0.59707 0.76739 0.98753 0.0
C611 C 0.66999 0.71708 0.93957 0.0
C612 C 0.67248 0.72242 0.97672 0.0
H613 H 0.64009 0.72474 0.89114 0.0
H614 H 0.68981 0.70258 0.92586 0.0
C615 C 0.64632 0.74152 0.99357 0.0
C616 C 0.06305 0.11079 0.83283 0.0
C617 C 0.05781 0.10835 0.79567 0.0
H618 H 0.05527 0.14063 0.88126 0.0
C619 C 0.03877 0.13454 0.77879 0.0
H620 H 0.0775 0.09094 0.84656 0.0
C621 C 0.02651 0.16343 0.79861 0.0
C622 C 0.03236 0.16624 0.83575 0.0
H623 H 0.03442 0.13339 0.75013 0.0
H624 H 0.01291 0.1838 0.78481 0.0
C625 C 0.05013 0.1392 0.85268 0.0
C626 C 0.90684 0.33462 0.42785 0.0
C627 C 0.92294 0.3059 0.44354 0.0
H628 H 0.86356 0.36969 0.4282 0.0
C629 C 0.90676 0.29033 0.47222 0.0
H630 H 0.91851 0.34707 0.40557 0.0
C631 C 0.87535 0.30306 0.48496 0.0
C632 C 0.85915 0.33173 0.46939 0.0
H633 H 0.91826 0.26808 0.48489 0.0
H634 H 0.86386 0.2904 0.50722 0.0
C635 C 0.87524 0.34741 0.44066 0.0
C636 C 0.59001 0.8956 0.7654 0.0
C637 C 0.57538 0.92611 0.78034 0.0
H638 H 0.59271 0.83903 0.76548 0.0
C639 C 0.54881 0.92198 0.80499 0.0
H640 H 0.61046 0.89783 0.74629 0.0
C641 C 0.53869 0.88827 0.8161 0.0
C642 C 0.5549 0.85796 0.80277 0.0
H643 H 0.53687 0.94494 0.81694 0.0
H644 H 0.51922 0.88617 0.83621 0.0
C645 C 0.57986 0.86187 0.77648 0.0
C646 C 0.99279 0.1558 0.29757 0.0
C647 C 0.97754 0.1727 0.32675 0.0
H648 H 0.99172 0.10988 0.26169 0.0
C649 C 0.9486 0.15557 0.34216 0.0
H650 H 0.01533 0.16823 0.28535 0.0
C651 C 0.93499 0.12235 0.32852 0.0
C652 C 0.95039 0.10529 0.29954 0.0
H653 H 0.93633 0.16791 0.36471 0.0
H654 H 0.91248 0.10996 0.34081 0.0
C655 C 0.97952 0.12226 0.28427 0.0
C656 C 0.61434 0.1241 0.67777 0.0
C657 C 0.59968 0.1089 0.70741 0.0
H658 H 0.61118 0.16426 0.63977 0.0
C659 C 0.5698 0.1238 0.72196 0.0
H660 H 0.63737 0.11325 0.66594 0.0
C661 C 0.55512 0.15359 0.7073 0.0
C662 C 0.56969 0.16854 0.67744 0.0
H663 H 0.5581 0.11281 0.74499 0.0
H664 H 0.53209 0.16455 0.719 0.0
C665 C 0.59934 0.15337 0.66278 0.0
C666 C 0.15784 0.30036 0.98834 0.0
C667 C 0.1748 0.32953 0.97314 0.0
H668 H 0.11188 0.26451 0.98714 0.0
C669 C 0.15776 0.34498 0.94417 0.0
H670 H 0.17021 0.28811 0.01089 0.0
C671 C 0.12455 0.33137 0.93048 0.0
C672 C 0.10742 0.30239 0.94582 0.0
H673 H 0.17015 0.36753 0.93193 0.0
H674 H 0.11222 0.34369 0.90794 0.0
C675 C 0.12431 0.28709 0.97498 0.0
C676 C 0.41808 0.70045 0.49608 0.0
C677 C 0.42189 0.72541 0.46977 0.0
H678 H 0.38224 0.6698 0.52635 0.0
C679 C 0.39153 0.74153 0.45645 0.0
H680 H 0.44097 0.68768 0.50707 0.0
C681 C 0.35785 0.73134 0.46761 0.0
C682 C 0.35382 0.70478 0.49229 0.0
H683 H 0.39355 0.76099 0.43633 0.0
H684 H 0.33485 0.74322 0.45568 0.0
C685 C 0.38439 0.69024 0.50722 0.0
C686 C 0.82131 0.53637 0.88594 0.0
C687 C 0.80791 0.55252 0.85562 0.0
H688 H 0.82225 0.53465 0.94262 0.0
C689 C 0.78163 0.57749 0.85953 0.0
H690 H 0.84141 0.5169 0.88384 0.0
C691 C 0.77061 0.58769 0.89327 0.0
C692 C 0.78561 0.57312 0.92379 0.0
H693 H 0.77058 0.59029 0.83668 0.0
H694 H 0.7515 0.60814 0.89549 0.0
C695 C 0.81026 0.54654 0.91967 0.0
C696 C 0.71268 0.55323 0.1513 0.0
C697 C 0.68281 0.56782 0.16621 0.0
H698 H 0.75039 0.55616 0.11055 0.0
C699 C 0.6682 0.59749 0.15102 0.0
H700 H 0.72434 0.53019 0.16228 0.0
C701 C 0.68323 0.61248 0.12177 0.0
C702 C 0.71286 0.59778 0.10659 0.0
H703 H 0.64519 0.60935 0.16188 0.0
H704 H 0.67143 0.63551 0.11088 0.0
C705 C 0.72738 0.56788 0.12152 0.0
C706 C 0.74384 0.45908 0.38677 0.0
C707 C 0.72765 0.4724 0.41709 0.0
H708 H 0.74562 0.45827 0.3301 0.0
C709 C 0.7027 0.4987 0.41321 0.0
H710 H 0.76331 0.43897 0.38885 0.0
C711 C 0.69254 0.50981 0.3795 0.0
C712 C 0.70714 0.49487 0.34897 0.0
H713 H 0.68987 0.5097 0.43608 0.0
H714 H 0.67209 0.52892 0.37729 0.0
C715 C 0.73371 0.47021 0.35307 0.0
C716 C 0.84707 0.44668 0.65293 0.0
C717 C 0.83167 0.47564 0.67003 0.0
H718 H 0.84571 0.41051 0.60735 0.0
C719 C 0.80249 0.49087 0.65312 0.0
H720 H 0.86963 0.43442 0.66528 0.0
C721 C 0.78917 0.47756 0.61958 0.0
C722 C 0.80444 0.44841 0.60265 0.0
H723 H 0.79027 0.51342 0.66552 0.0
H724 H 0.7666 0.48975 0.6072 0.0
C725 C 0.83342 0.43304 0.61972 0.0
C726 C 0.47876 0.11481 0.25095 0.0
C727 C 0.44163 0.11195 0.24504 0.0
H728 H 0.52721 0.14493 0.24311 0.0
C729 C 0.42469 0.13897 0.22725 0.0
H730 H 0.49257 0.09446 0.26456 0.0
C731 C 0.44453 0.16742 0.21437 0.0
C732 C 0.48168 0.16991 0.21966 0.0
H733 H 0.39612 0.1375 0.22207 0.0
H734 H 0.43079 0.18725 0.19991 0.0
C735 C 0.49856 0.14374 0.23872 0.0
C736 C 0.07856 0.85876 0.72662 0.0
C737 C 0.05245 0.85511 0.69867 0.0
H738 H 0.11305 0.89464 0.75971 0.0
C739 C 0.03802 0.88577 0.68527 0.0
H740 H 0.09016 0.83559 0.73739 0.0
C741 C 0.05065 0.91954 0.69846 0.0
C742 C 0.07847 0.92319 0.7247 0.0
H743 H 0.01767 0.88366 0.66386 0.0
H744 H 0.03998 0.94272 0.68676 0.0
C745 C 0.09174 0.89253 0.73925 0.0
C746 C 0.48984 0.8733 0.3003 0.0
C747 C 0.47422 0.85709 0.32894 0.0
H748 H 0.48986 0.91623 0.26533 0.0
C749 C 0.44547 0.87319 0.34458 0.0
H750 H 0.51211 0.8618 0.28767 0.0
C751 C 0.43271 0.90481 0.33177 0.0
C752 C 0.44845 0.92092 0.30308 0.0
H753 H 0.43298 0.86152 0.36683 0.0
H754 H 0.41042 0.91649 0.34419 0.0
C755 C 0.47715 0.90472 0.28756 0.0
C756 C 0.88825 0.68817 0.03333 0.0
C757 C 0.8576 0.70157 0.04777 0.0
H758 H 0.9452 0.68966 0.03527 0.0
C759 C 0.86127 0.7295 0.07389 0.0
H760 H 0.88614 0.66678 0.01297 0.0
C761 C 0.89504 0.74213 0.08707 0.0
C762 C 0.92569 0.72759 0.07378 0.0
H763 H 0.8381 0.74028 0.08551 0.0
H764 H 0.89715 0.76258 0.10839 0.0
C765 C 0.92203 0.70135 0.04596 0.0
C766 C 0.63645 0.28157 0.53375 0.0
C767 C 0.61027 0.29843 0.55282 0.0
H768 H 0.6857 0.28762 0.5079 0.0
C769 C 0.61273 0.33558 0.55812 0.0
H770 H 0.63528 0.25292 0.52935 0.0
C771 C 0.64115 0.35545 0.54523 0.0
C772 C 0.66817 0.33853 0.52743 0.0
H773 H 0.59288 0.34929 0.57258 0.0
H774 H 0.64259 0.38402 0.55041 0.0
C775 C 0.66535 0.3014 0.52152 0.0
C776 C 0.23207 0.42228 0.13655 0.0
C777 C 0.24994 0.43922 0.10958 0.0
H778 H 0.20465 0.42841 0.18478 0.0
C779 C 0.25591 0.47634 0.11246 0.0
H780 H 0.22685 0.39372 0.13506 0.0
C781 C 0.24366 0.49615 0.14137 0.0
C782 C 0.22452 0.47928 0.16749 0.0
H783 H 0.26959 0.49014 0.09215 0.0
H784 H 0.2481 0.5248 0.14258 0.0
C785 C 0.21917 0.44213 0.16498 0.0
C786 C 0.34965 0.44317 0.87089 0.0
C787 C 0.33403 0.47194 0.85481 0.0
H788 H 0.34925 0.40808 0.91416 0.0
C789 C 0.30541 0.48757 0.87104 0.0
H790 H 0.37188 0.43066 0.85919 0.0
C791 C 0.29267 0.47486 0.90245 0.0
C792 C 0.30817 0.44614 0.91863 0.0
H793 H 0.29279 0.50986 0.85955 0.0
H794 H 0.27045 0.48758 0.91397 0.0
C795 C 0.33684 0.43039 0.9025 0.0
C796 C 0.28383 0.53644 0.63213 0.0
C797 C 0.30071 0.55547 0.60593 0.0
H798 H 0.28984 0.51057 0.68138 0.0
C799 C 0.33786 0.56068 0.60835 0.0
H800 H 0.25516 0.53211 0.63098 0.0
C801 C 0.35772 0.54774 0.63676 0.0
C802 C 0.34078 0.52998 0.6638 0.0
H803 H 0.35159 0.57511 0.5885 0.0
H804 H 0.38629 0.55286 0.63818 0.0
C805 C 0.30364 0.52416 0.66101 0.0
C806 C 0.1903 0.53577 0.38333 0.0
C807 C 0.20372 0.55019 0.35267 0.0
H808 H 0.19179 0.53771 0.44028 0.0
C809 C 0.2317 0.57626 0.35633 0.0
H810 H 0.16886 0.51544 0.38121 0.0
C811 C 0.24435 0.58942 0.3901 0.0
C812 C 0.22978 0.57616 0.42076 0.0
H813 H 0.2425 0.58785 0.33316 0.0
H814 H 0.26483 0.6107 0.39222 0.0
C815 C 0.2035 0.54837 0.4171 0.0
loop_
_geom_bond_atom_site_label_1
_geom_bond_atom_site_label_2
_geom_bond_distance
_geom_bond_site_symmetry_2
_ccdc_geom_bond_type
O0 Cd1 2.223 . S
O0 C8 1.315 . S
Cd1 O0 2.223 . S
Cd1 O4 2.297 . S
Cd1 O5 2.439 . S
Cd1 O11 2.240 1_455 S
Cd2 O3 2.240 1_655 S
Cd2 O10 2.223 . S
Cd2 O12 2.297 . S
Cd2 O13 2.439 . S
O3 Cd2 2.240 1_455 S
O3 C8 1.279 . S
O4 Cd1 2.297 . S
O4 C6 1.247 . S
O5 Cd1 2.439 . S
O5 C6 1.208 . S
C6 O4 1.247 . S
C6 O5 1.208 . S
C7 O12 1.247 . S
C7 O13 1.208 . S
C8 O0 1.315 . S
C8 O3 1.279 . S
C9 O10 1.315 . S
C9 O11 1.279 . S
O10 Cd2 2.223 . S
O10 C9 1.315 . S
O11 Cd1 2.240 1_655 S
O11 C9 1.279 . S
O12 Cd2 2.297 . S
O12 C7 1.247 . S
O13 Cd2 2.439 . S
O13 C7 1.208 . S
O14 Cd15 2.223 . S
O14 C22 1.315 . S
Cd15 O14 2.223 . S
Cd15 O18 2.297 . S
Cd15 O19 2.439 1_455 S
Cd15 O25 2.240 . S
Cd16 O17 2.240 . S
Cd16 O24 2.223 . S
Cd16 O26 2.297 1_455 S
Cd16 O27 2.439 1_455 S
O17 Cd16 2.240 . S
O17 C22 1.279 . S
O18 Cd15 2.297 . S
O18 C20 1.247 1_455 S
O19 Cd15 2.439 1_655 S
O19 C20 1.208 . S
C20 O18 1.247 1_655 S
C20 O19 1.208 . S
C21 O26 1.247 . S
C21 O27 1.208 . S
C22 O14 1.315 . S
C22 O17 1.279 . S
C23 O24 1.315 . S
C23 O25 1.279 . S
O24 Cd16 2.223 . S
O24 C23 1.315 . S
O25 Cd15 2.240 . S
O25 C23 1.279 . S
O26 Cd16 2.297 1_655 S
O26 C21 1.247 . S
O27 Cd16 2.439 1_655 S
O27 C21 1.208 . S
O28 Cd29 2.223 . S
O28 C36 1.315 . S
Cd29 O28 2.223 . S
Cd29 O32 2.297 . S
Cd29 O33 2.439 . S
Cd29 O39 2.240 . S
Cd30 O31 2.240 . S
Cd30 O38 2.223 . S
Cd30 O40 2.297 . S
Cd30 O41 2.439 . S
O31 Cd30 2.240 . S
O31 C36 1.279 . S
O32 Cd29 2.297 . S
O32 C34 1.247 . S
O33 Cd29 2.439 . S
O33 C34 1.208 . S
C34 O32 1.247 . S
C34 O33 1.208 . S
C35 O40 1.247 . S
C35 O41 1.208 . S
C36 O28 1.315 . S
C36 O31 1.279 . S
C37 O38 1.315 . S
C37 O39 1.279 . S
O38 Cd30 2.223 . S
O38 C37 1.315 . S
O39 Cd29 2.240 . S
O39 C37 1.279 . S
O40 Cd30 2.297 . S
O40 C35 1.247 . S
O41 Cd30 2.439 . S
O41 C35 1.208 . S
O42 Cd43 2.223 . S
O42 C50 1.315 . S
Cd43 O42 2.223 . S
Cd43 O46 2.297 . S
Cd43 O47 2.439 . S
Cd43 O53 2.240 . S
Cd44 O45 2.240 . S
Cd44 O52 2.223 . S
Cd44 O54 2.297 . S
Cd44 O55 2.439 . S
O45 Cd44 2.240 . S
O45 C50 1.279 . S
O46 Cd43 2.297 . S
O46 C48 1.247 . S
O47 Cd43 2.439 . S
O47 C48 1.208 . S
C48 O46 1.247 . S
C48 O47 1.208 . S
C49 O54 1.247 . S
C49 O55 1.208 . S
C50 O42 1.315 . S
C50 O45 1.279 . S
C51 O52 1.315 . S
C51 O53 1.279 . S
O52 Cd44 2.223 . S
O52 C51 1.315 . S
O53 Cd43 2.240 . S
O53 C51 1.279 . S
O54 Cd44 2.297 . S
O54 C49 1.247 . S
O55 Cd44 2.439 . S
O55 C49 1.208 . S
O56 Cd57 2.223 . S
O56 C64 1.315 . S
Cd57 O56 2.223 . S
Cd57 O60 2.297 . S
Cd57 O61 2.439 . S
Cd57 O67 2.240 1_455 S
Cd58 O59 2.240 1_655 S
Cd58 O66 2.223 . S
Cd58 O68 2.297 . S
Cd58 O69 2.439 . S
O59 Cd58 2.240 1_455 S
O59 C64 1.279 . S
O60 Cd57 2.297 . S
O60 C62 1.247 . S
O61 Cd57 2.439 . S
O61 C62 1.208 . S
C62 O60 1.247 . S
C62 O61 1.208 . S
C63 O68 1.247 . S
C63 O69 1.208 . S
C64 O56 1.315 . S
C64 O59 1.279 . S
C65 O66 1.315 . S
C65 O67 1.279 . S
O66 Cd58 2.223 . S
O66 C65 1.315 . S
O67 Cd57 2.240 1_655 S
O67 C65 1.279 . S
O68 Cd58 2.297 . S
O68 C63 1.247 . S
O69 Cd58 2.439 . S
O69 C63 1.208 . S
O70 Cd71 2.223 . S
O70 C78 1.315 . S
Cd71 O70 2.223 . S
Cd71 O74 2.297 . S
Cd71 O75 2.439 . S
Cd71 O81 2.240 . S
Cd72 O73 2.240 . S
Cd72 O80 2.223 . S
Cd72 O82 2.297 . S
Cd72 O83 2.439 . S
O73 Cd72 2.240 . S
O73 C78 1.279 . S
O74 Cd71 2.297 . S
O74 C76 1.247 . S
O75 Cd71 2.439 . S
O75 C76 1.208 . S
C76 O74 1.247 . S
C76 O75 1.208 . S
C77 O82 1.247 . S
C77 O83 1.208 . S
C78 O70 1.315 . S
C78 O73 1.279 . S
C79 O80 1.315 . S
C79 O81 1.279 . S
O80 Cd72 2.223 . S
O80 C79 1.315 . S
O81 Cd71 2.240 . S
O81 C79 1.279 . S
O82 Cd72 2.297 . S
O82 C77 1.247 . S
O83 Cd72 2.439 . S
O83 C77 1.208 . S
O84 Cd85 2.223 . S
O84 C92 1.315 . S
Cd85 O84 2.223 . S
Cd85 O88 2.297 . S
Cd85 O89 2.439 . S
Cd85 O95 2.240 . S
Cd86 O87 2.240 . S
Cd86 O94 2.223 . S
Cd86 O96 2.297 . S
Cd86 O97 2.439 . S
O87 Cd86 2.240 . S
O87 C92 1.279 . S
O88 Cd85 2.297 . S
O88 C90 1.247 . S
O89 Cd85 2.439 . S
O89 C90 1.208 . S
C90 O88 1.247 . S
C90 O89 1.208 . S
C91 O96 1.247 . S
C91 O97 1.208 . S
C92 O84 1.315 . S
C92 O87 1.279 . S
C93 O94 1.315 . S
C93 O95 1.279 . S
O94 Cd86 2.223 . S
O94 C93 1.315 . S
O95 Cd85 2.240 . S
O95 C93 1.279 . S
O96 Cd86 2.297 . S
O96 C91 1.247 . S
O97 Cd86 2.439 . S
O97 C91 1.208 . S
O98 Cd99 2.223 . S
O98 C106 1.315 . S
Cd99 O98 2.223 . S
Cd99 O102 2.297 1_455 S
Cd99 O103 2.439 1_455 S
Cd99 O109 2.240 . S
Cd100 O101 2.240 . S
Cd100 O108 2.223 . S
Cd100 O110 2.297 . S
Cd100 O111 2.439 1_455 S
O101 Cd100 2.240 . S
O101 C106 1.279 . S
O102 Cd99 2.297 1_655 S
O102 C104 1.247 . S
O103 Cd99 2.439 1_655 S
O103 C104 1.208 . S
C104 O102 1.247 . S
C104 O103 1.208 . S
C105 O110 1.247 1_655 S
C105 O111 1.208 . S
C106 O98 1.315 . S
C106 O101 1.279 . S
C107 O108 1.315 . S
C107 O109 1.279 . S
O108 Cd100 2.223 . S
O108 C107 1.315 . S
O109 Cd99 2.240 . S
O109 C107 1.279 . S
O110 Cd100 2.297 . S
O110 C105 1.247 1_455 S
O111 Cd100 2.439 1_655 S
O111 C105 1.208 . S
O112 Cd113 2.223 . S
O112 C120 1.315 . S
Cd113 O112 2.223 . S
Cd113 O116 2.297 . S
Cd113 O117 2.439 . S
Cd113 O123 2.240 1_545 S
Cd114 O115 2.240 1_565 S
Cd114 O122 2.223 . S
Cd114 O124 2.297 . S
Cd114 O125 2.439 . S
O115 Cd114 2.240 1_545 S
O115 C120 1.279 . S
O116 Cd113 2.297 . S
O116 C118 1.247 . S
O117 Cd113 2.439 . S
O117 C118 1.208 . S
C118 O116 1.247 . S
C118 O117 1.208 . S
C119 O124 1.247 . S
C119 O125 1.208 . S
C120 O112 1.315 . S
C120 O115 1.279 . S
C121 O122 1.315 . S
C121 O123 1.279 . S
O122 Cd114 2.223 . S
O122 C121 1.315 . S
O123 Cd113 2.240 1_565 S
O123 C121 1.279 . S
O124 Cd114 2.297 . S
O124 C119 1.247 . S
O125 Cd114 2.439 . S
O125 C119 1.208 . S
O126 Cd127 2.223 . S
O126 C134 1.315 . S
Cd127 O126 2.223 . S
Cd127 O130 2.297 . S
Cd127 O131 2.439 . S
Cd127 O137 2.240 . S
Cd128 O129 2.240 . S
Cd128 O136 2.223 . S
Cd128 O138 2.297 . S
Cd128 O139 2.439 . S
O129 Cd128 2.240 . S
O129 C134 1.279 . S
O130 Cd127 2.297 . S
O130 C132 1.247 . S
O131 Cd127 2.439 . S
O131 C132 1.208 . S
C132 O130 1.247 . S
C132 O131 1.208 . S
C133 O138 1.247 . S
C133 O139 1.208 . S
C134 O126 1.315 . S
C134 O129 1.279 . S
C135 O136 1.315 . S
C135 O137 1.279 . S
O136 Cd128 2.223 . S
O136 C135 1.315 . S
O137 Cd127 2.240 . S
O137 C135 1.279 . S
O138 Cd128 2.297 . S
O138 C133 1.247 . S
O139 Cd128 2.439 . S
O139 C133 1.208 . S
O140 Cd141 2.223 . S
O140 C148 1.315 . S
Cd141 O140 2.223 . S
Cd141 O144 2.297 . S
Cd141 O145 2.439 . S
Cd141 O151 2.240 1_545 S
Cd142 O143 2.240 1_565 S
Cd142 O150 2.223 . S
Cd142 O152 2.297 . S
Cd142 O153 2.439 . S
O143 Cd142 2.240 1_545 S
O143 C148 1.279 . S
O144 Cd141 2.297 . S
O144 C146 1.247 . S
O145 Cd141 2.439 . S
O145 C146 1.208 . S
C146 O144 1.247 . S
C146 O145 1.208 . S
C147 O152 1.247 . S
C147 O153 1.208 . S
C148 O140 1.315 . S
C148 O143 1.279 . S
C149 O150 1.315 . S
C149 O151 1.279 . S
O150 Cd142 2.223 . S
O150 C149 1.315 . S
O151 Cd141 2.240 1_565 S
O151 C149 1.279 . S
O152 Cd142 2.297 . S
O152 C147 1.247 . S
O153 Cd142 2.439 . S
O153 C147 1.208 . S
O154 Cd155 2.223 . S
O154 C162 1.315 . S
Cd155 O154 2.223 . S
Cd155 O158 2.297 1_554 S
Cd155 O159 2.439 1_554 S
Cd155 O165 2.240 . S
Cd156 O157 2.240 . S
Cd156 O164 2.223 . S
Cd156 O166 2.297 . S
Cd156 O167 2.439 1_554 S
O157 Cd156 2.240 . S
O157 C162 1.279 . S
O158 Cd155 2.297 1_556 S
O158 C160 1.247 . S
O159 Cd155 2.439 1_556 S
O159 C160 1.208 . S
C160 O158 1.247 . S
C160 O159 1.208 . S
C161 O166 1.247 1_556 S
C161 O167 1.208 . S
C162 O154 1.315 . S
C162 O157 1.279 . S
C163 O164 1.315 . S
C163 O165 1.279 . S
O164 Cd156 2.223 . S
O164 C163 1.315 . S
O165 Cd155 2.240 . S
O165 C163 1.279 . S
O166 Cd156 2.297 . S
O166 C161 1.247 1_554 S
O167 Cd156 2.439 1_556 S
O167 C161 1.208 . S
O168 Cd169 2.223 . S
O168 C176 1.315 . S
Cd169 O168 2.223 . S
Cd169 O172 2.297 . S
Cd169 O173 2.439 . S
Cd169 O179 2.240 1_554 S
Cd170 O171 2.240 1_556 S
Cd170 O178 2.223 . S
Cd170 O180 2.297 . S
Cd170 O181 2.439 . S
O171 Cd170 2.240 1_554 S
O171 C176 1.279 . S
O172 Cd169 2.297 . S
O172 C174 1.247 . S
O173 Cd169 2.439 . S
O173 C174 1.208 . S
C174 O172 1.247 . S
C174 O173 1.208 . S
C175 O180 1.247 . S
C175 O181 1.208 . S
C176 O168 1.315 . S
C176 O171 1.279 . S
C177 O178 1.315 . S
C177 O179 1.279 . S
O178 Cd170 2.223 . S
O178 C177 1.315 . S
O179 Cd169 2.240 1_556 S
O179 C177 1.279 . S
O180 Cd170 2.297 . S
O180 C175 1.247 . S
O181 Cd170 2.439 . S
O181 C175 1.208 . S
O182 Cd183 2.223 . S
O182 C190 1.315 . S
Cd183 O182 2.223 . S
Cd183 O186 2.297 . S
Cd183 O187 2.439 . S
Cd183 O193 2.240 1_554 S
Cd184 O185 2.240 1_556 S
Cd184 O192 2.223 . S
Cd184 O194 2.297 . S
Cd184 O195 2.439 . S
O185 Cd184 2.240 1_554 S
O185 C190 1.279 . S
O186 Cd183 2.297 . S
O186 C188 1.247 . S
O187 Cd183 2.439 . S
O187 C188 1.208 . S
C188 O186 1.247 . S
C188 O187 1.208 . S
C189 O194 1.247 . S
C189 O195 1.208 . S
C190 O182 1.315 . S
C190 O185 1.279 . S
C191 O192 1.315 . S
C191 O193 1.279 . S
O192 Cd184 2.223 . S
O192 C191 1.315 . S
O193 Cd183 2.240 1_556 S
O193 C191 1.279 . S
O194 Cd184 2.297 . S
O194 C189 1.247 . S
O195 Cd184 2.439 . S
O195 C189 1.208 . S
O196 Cd197 2.223 . S
O196 C204 1.315 . S
Cd197 O196 2.223 . S
Cd197 O200 2.297 . S
Cd197 O201 2.439 . S
Cd197 O207 2.240 . S
Cd198 O199 2.240 . S
Cd198 O206 2.223 . S
Cd198 O208 2.297 . S
Cd198 O209 2.439 . S
O199 Cd198 2.240 . S
O199 C204 1.279 . S
O200 Cd197 2.297 . S
O200 C202 1.247 . S
O201 Cd197 2.439 . S
O201 C202 1.208 . S
C202 O200 1.247 . S
C202 O201 1.208 . S
C203 O208 1.247 . S
C203 O209 1.208 . S
C204 O196 1.315 . S
C204 O199 1.279 . S
C205 O206 1.315 . S
C205 O207 1.279 . S
O206 Cd198 2.223 . S
O206 C205 1.315 . S
O207 Cd197 2.240 . S
O207 C205 1.279 . S
O208 Cd198 2.297 . S
O208 C203 1.247 . S
O209 Cd198 2.439 . S
O209 C203 1.208 . S
O210 Cd211 2.223 . S
O210 C218 1.315 . S
Cd211 O210 2.223 . S
Cd211 O214 2.297 . S
Cd211 O215 2.439 . S
Cd211 O221 2.240 . S
Cd212 O213 2.240 . S
Cd212 O220 2.223 . S
Cd212 O222 2.297 . S
Cd212 O223 2.439 . S
O213 Cd212 2.240 . S
O213 C218 1.279 . S
O214 Cd211 2.297 . S
O214 C216 1.247 . S
O215 Cd211 2.439 . S
O215 C216 1.208 . S
C216 O214 1.247 . S
C216 O215 1.208 . S
C217 O222 1.247 . S
C217 O223 1.208 . S
C218 O210 1.315 . S
C218 O213 1.279 . S
C219 O220 1.315 . S
C219 O221 1.279 . S
O220 Cd212 2.223 . S
O220 C219 1.315 . S
O221 Cd211 2.240 . S
O221 C219 1.279 . S
O222 Cd212 2.297 . S
O222 C217 1.247 . S
O223 Cd212 2.439 . S
O223 C217 1.208 . S
O224 Cd225 2.223 . S
O224 C232 1.315 . S
Cd225 O224 2.223 . S
Cd225 O228 2.297 1_545 S
Cd225 O229 2.439 1_545 S
Cd225 O235 2.240 . S
Cd226 O227 2.240 . S
Cd226 O234 2.223 . S
Cd226 O236 2.297 . S
Cd226 O237 2.439 1_545 S
O227 Cd226 2.240 . S
O227 C232 1.279 . S
O228 Cd225 2.297 1_565 S
O228 C230 1.247 . S
O229 Cd225 2.439 1_565 S
O229 C230 1.208 . S
C230 O228 1.247 . S
C230 O229 1.208 . S
C231 O236 1.247 1_565 S
C231 O237 1.208 . S
C232 O224 1.315 . S
C232 O227 1.279 . S
C233 O234 1.315 . S
C233 O235 1.279 . S
O234 Cd226 2.223 . S
O234 C233 1.315 . S
O235 Cd225 2.240 . S
O235 C233 1.279 . S
O236 Cd226 2.297 . S
O236 C231 1.247 1_545 S
O237 Cd226 2.439 1_565 S
O237 C231 1.208 . S
O238 Cd239 2.223 . S
O238 C246 1.315 . S
Cd239 O238 2.223 . S
Cd239 O242 2.297 . S
Cd239 O243 2.439 . S
Cd239 O249 2.240 . S
Cd240 O241 2.240 . S
Cd240 O248 2.223 . S
Cd240 O250 2.297 . S
Cd240 O251 2.439 . S
O241 Cd240 2.240 . S
O241 C246 1.279 . S
O242 Cd239 2.297 . S
O242 C244 1.247 . S
O243 Cd239 2.439 . S
O243 C244 1.208 . S
C244 O242 1.247 . S
C244 O243 1.208 . S
C245 O250 1.247 . S
C245 O251 1.208 . S
C246 O238 1.315 . S
C246 O241 1.279 . S
C247 O248 1.315 . S
C247 O249 1.279 . S
O248 Cd240 2.223 . S
O248 C247 1.315 . S
O249 Cd239 2.240 . S
O249 C247 1.279 . S
O250 Cd240 2.297 . S
O250 C245 1.247 . S
O251 Cd240 2.439 . S
O251 C245 1.208 . S
O252 Cd253 2.223 . S
O252 C260 1.315 . S
Cd253 O252 2.223 . S
Cd253 O256 2.297 . S
Cd253 O257 2.439 . S
Cd253 O263 2.240 . S
Cd254 O255 2.240 . S
Cd254 O262 2.223 . S
Cd254 O264 2.297 . S
Cd254 O265 2.439 . S
O255 Cd254 2.240 . S
O255 C260 1.279 . S
O256 Cd253 2.297 . S
O256 C258 1.247 . S
O257 Cd253 2.439 . S
O257 C258 1.208 . S
C258 O256 1.247 . S
C258 O257 1.208 . S
C259 O264 1.247 . S
C259 O265 1.208 . S
C260 O252 1.315 . S
C260 O255 1.279 . S
C261 O262 1.315 . S
C261 O263 1.279 . S
O262 Cd254 2.223 . S
O262 C261 1.315 . S
O263 Cd253 2.240 . S
O263 C261 1.279 . S
O264 Cd254 2.297 . S
O264 C259 1.247 . S
O265 Cd254 2.439 . S
O265 C259 1.208 . S
O266 Cd267 2.223 . S
O266 C274 1.315 . S
Cd267 O266 2.223 . S
Cd267 O270 2.297 . S
Cd267 O271 2.439 1_545 S
Cd267 O277 2.240 . S
Cd268 O269 2.240 . S
Cd268 O276 2.223 . S
Cd268 O278 2.297 1_545 S
Cd268 O279 2.439 1_545 S
O269 Cd268 2.240 . S
O269 C274 1.279 . S
O270 Cd267 2.297 . S
O270 C272 1.247 1_545 S
O271 Cd267 2.439 1_565 S
O271 C272 1.208 . S
C272 O270 1.247 1_565 S
C272 O271 1.208 . S
C273 O278 1.247 . S
C273 O279 1.208 . S
C274 O266 1.315 . S
C274 O269 1.279 . S
C275 O276 1.315 . S
C275 O277 1.279 . S
O276 Cd268 2.223 . S
O276 C275 1.315 . S
O277 Cd267 2.240 . S
O277 C275 1.279 . S
O278 Cd268 2.297 1_565 S
O278 C273 1.247 . S
O279 Cd268 2.439 1_565 S
O279 C273 1.208 . S
O280 Cd281 2.223 . S
O280 C288 1.315 . S
Cd281 O280 2.223 . S
Cd281 O284 2.297 . S
Cd281 O285 2.439 1_554 S
Cd281 O291 2.240 . S
Cd282 O283 2.240 . S
Cd282 O290 2.223 . S
Cd282 O292 2.297 1_554 S
Cd282 O293 2.439 1_554 S
O283 Cd282 2.240 . S
O283 C288 1.279 . S
O284 Cd281 2.297 . S
O284 C286 1.247 1_554 S
O285 Cd281 2.439 1_556 S
O285 C286 1.208 . S
C286 O284 1.247 1_556 S
C286 O285 1.208 . S
C287 O292 1.247 . S
C287 O293 1.208 . S
C288 O280 1.315 . S
C288 O283 1.279 . S
C289 O290 1.315 . S
C289 O291 1.279 . S
O290 Cd282 2.223 . S
O290 C289 1.315 . S
O291 Cd281 2.240 . S
O291 C289 1.279 . S
O292 Cd282 2.297 1_556 S
O292 C287 1.247 . S
O293 Cd282 2.439 1_556 S
O293 C287 1.208 . S
O294 Cd295 2.223 . S
O294 C302 1.315 . S
Cd295 O294 2.223 . S
Cd295 O298 2.297 . S
Cd295 O299 2.439 . S
Cd295 O305 2.240 . S
Cd296 O297 2.240 . S
Cd296 O304 2.223 . S
Cd296 O306 2.297 . S
Cd296 O307 2.439 . S
O297 Cd296 2.240 . S
O297 C302 1.279 . S
O298 Cd295 2.297 . S
O298 C300 1.247 . S
O299 Cd295 2.439 . S
O299 C300 1.208 . S
C300 O298 1.247 . S
C300 O299 1.208 . S
C301 O306 1.247 . S
C301 O307 1.208 . S
C302 O294 1.315 . S
C302 O297 1.279 . S
C303 O304 1.315 . S
C303 O305 1.279 . S
O304 Cd296 2.223 . S
O304 C303 1.315 . S
O305 Cd295 2.240 . S
O305 C303 1.279 . S
O306 Cd296 2.297 . S
O306 C301 1.247 . S
O307 Cd296 2.439 . S
O307 C301 1.208 . S
O308 Cd309 2.223 . S
O308 C316 1.315 . S
Cd309 O308 2.223 . S
Cd309 O312 2.297 . S
Cd309 O313 2.439 . S
Cd309 O319 2.240 . S
Cd310 O311 2.240 . S
Cd310 O318 2.223 . S
Cd310 O320 2.297 . S
Cd310 O321 2.439 . S
O311 Cd310 2.240 . S
O311 C316 1.279 . S
O312 Cd309 2.297 . S
O312 C314 1.247 . S
O313 Cd309 2.439 . S
O313 C314 1.208 . S
C314 O312 1.247 . S
C314 O313 1.208 . S
C315 O320 1.247 . S
C315 O321 1.208 . S
C316 O308 1.315 . S
C316 O311 1.279 . S
C317 O318 1.315 . S
C317 O319 1.279 . S
O318 Cd310 2.223 . S
O318 C317 1.315 . S
O319 Cd309 2.240 . S
O319 C317 1.279 . S
O320 Cd310 2.297 . S
O320 C315 1.247 . S
O321 Cd310 2.439 . S
O321 C315 1.208 . S
O322 Cd323 2.223 . S
O322 C330 1.315 . S
Cd323 O322 2.223 . S
Cd323 O326 2.297 . S
Cd323 O327 2.439 . S
Cd323 O333 2.240 . S
Cd324 O325 2.240 . S
Cd324 O332 2.223 . S
Cd324 O334 2.297 . S
Cd324 O335 2.439 . S
O325 Cd324 2.240 . S
O325 C330 1.279 . S
O326 Cd323 2.297 . S
O326 C328 1.247 . S
O327 Cd323 2.439 . S
O327 C328 1.208 . S
C328 O326 1.247 . S
C328 O327 1.208 . S
C329 O334 1.247 . S
C329 O335 1.208 . S
C330 O322 1.315 . S
C330 O325 1.279 . S
C331 O332 1.315 . S
C331 O333 1.279 . S
O332 Cd324 2.223 . S
O332 C331 1.315 . S
O333 Cd323 2.240 . S
O333 C331 1.279 . S
O334 Cd324 2.297 . S
O334 C329 1.247 . S
O335 Cd324 2.439 . S
O335 C329 1.208 . S
C336 C337 1.387 . S
C336 H340 0.950 . S
C336 C345 1.390 . S
C337 C336 1.387 . S
C337 C339 1.387 . S
H338 C345 0.950 . S
C339 C337 1.387 . S
C339 C341 1.390 . S
C339 H343 0.950 . S
H340 C336 0.950 . S
C341 C339 1.390 . S
C341 C342 1.387 . S
C341 H344 0.950 . S
C342 C341 1.387 . S
C342 C345 1.387 . S
H343 C339 0.950 . S
H344 C341 0.950 . S
C345 C336 1.390 . S
C345 H338 0.950 . S
C345 C342 1.387 . S
C346 C347 1.387 . S
C346 H350 0.950 . S
C346 C355 1.390 . S
C347 C346 1.387 . S
C347 C349 1.387 . S
H348 C355 0.950 . S
C349 C347 1.387 . S
C349 C351 1.390 . S
C349 H353 0.950 . S
H350 C346 0.950 . S
C351 C349 1.390 . S
C351 C352 1.387 . S
C351 H354 0.950 . S
C352 C351 1.387 . S
C352 C355 1.387 . S
H353 C349 0.950 . S
H354 C351 0.950 . S
C355 C346 1.390 . S
C355 H348 0.950 . S
C355 C352 1.387 . S
C356 C357 1.387 . S
C356 H360 0.950 . S
C356 C365 1.390 . S
C357 C356 1.387 . S
C357 C359 1.387 . S
H358 C365 0.950 . S
C359 C357 1.387 . S
C359 C361 1.390 . S
C359 H363 0.950 . S
H360 C356 0.950 . S
C361 C359 1.390 . S
C361 C362 1.387 . S
C361 H364 0.950 . S
C362 C361 1.387 . S
C362 C365 1.387 . S
H363 C359 0.950 . S
H364 C361 0.950 . S
C365 C356 1.390 . S
C365 H358 0.950 . S
C365 C362 1.387 . S
C366 C367 1.387 . S
C366 H370 0.950 . S
C366 C375 1.390 . S
C367 C366 1.387 . S
C367 C369 1.387 . S
H368 C375 0.950 . S
C369 C367 1.387 . S
C369 C371 1.390 . S
C369 H373 0.950 . S
H370 C366 0.950 . S
C371 C369 1.390 . S
C371 C372 1.387 . S
C371 H374 0.950 . S
C372 C371 1.387 . S
C372 C375 1.387 . S
H373 C369 0.950 . S
H374 C371 0.950 . S
C375 C366 1.390 . S
C375 H368 0.950 . S
C375 C372 1.387 . S
C376 C377 1.387 . S
C376 H380 0.950 . S
C376 C385 1.390 . S
C377 C376 1.387 . S
C377 C379 1.387 . S
H378 C385 0.950 . S
C379 C377 1.387 . S
C379 C381 1.390 . S
C379 H383 0.950 . S
H380 C376 0.950 . S
C381 C379 1.390 . S
C381 C382 1.387 . S
C381 H384 0.950 . S
C382 C381 1.387 . S
C382 C385 1.387 . S
H383 C379 0.950 . S
H384 C381 0.950 . S
C385 C376 1.390 . S
C385 H378 0.950 . S
C385 C382 1.387 . S
C386 C387 1.387 . S
C386 H390 0.950 . S
C386 C395 1.390 . S
C387 C386 1.387 . S
C387 C389 1.387 . S
H388 C395 0.950 . S
C389 C387 1.387 . S
C389 C391 1.390 . S
C389 H393 0.950 . S
H390 C386 0.950 . S
C391 C389 1.390 . S
C391 C392 1.387 . S
C391 H394 0.950 . S
C392 C391 1.387 . S
C392 C395 1.387 . S
H393 C389 0.950 . S
H394 C391 0.950 . S
C395 C386 1.390 . S
C395 H388 0.950 . S
C395 C392 1.387 . S
C396 C397 1.387 . S
C396 H400 0.950 . S
C396 C405 1.390 . S
C397 C396 1.387 . S
C397 C399 1.387 . S
H398 C405 0.950 . S
C399 C397 1.387 . S
C399 C401 1.390 . S
C399 H403 0.950 . S
H400 C396 0.950 . S
C401 C399 1.390 . S
C401 C402 1.387 . S
C401 H404 0.950 . S
C402 C401 1.387 . S
C402 C405 1.387 . S
H403 C399 0.950 . S
H404 C401 0.950 . S
C405 C396 1.390 . S
C405 H398 0.950 . S
C405 C402 1.387 . S
C406 C407 1.387 . S
C406 H410 0.950 . S
C406 C415 1.390 . S
C407 C406 1.387 . S
C407 C409 1.387 . S
H408 C415 0.950 . S
C409 C407 1.387 . S
C409 C411 1.390 . S
C409 H413 0.950 . S
H410 C406 0.950 . S
C411 C409 1.390 . S
C411 C412 1.387 . S
C411 H414 0.950 . S
C412 C411 1.387 . S
C412 C415 1.387 . S
H413 C409 0.950 . S
H414 C411 0.950 . S
C415 C406 1.390 . S
C415 H408 0.950 . S
C415 C412 1.387 . S
C416 C417 1.387 . S
C416 H420 0.950 . S
C416 C425 1.390 . S
C417 C416 1.387 . S
C417 C419 1.387 . S
H418 C425 0.950 . S
C419 C417 1.387 . S
C419 C421 1.390 . S
C419 H423 0.950 . S
H420 C416 0.950 . S
C421 C419 1.390 . S
C421 C422 1.387 . S
C421 H424 0.950 . S
C422 C421 1.387 . S
C422 C425 1.387 . S
H423 C419 0.950 . S
H424 C421 0.950 . S
C425 C416 1.390 . S
C425 H418 0.950 . S
C425 C422 1.387 . S
C426 C427 1.387 . S
C426 H430 0.950 . S
C426 C435 1.390 . S
C427 C426 1.387 . S
C427 C429 1.387 . S
H428 C435 0.950 . S
C429 C427 1.387 . S
C429 C431 1.390 . S
C429 H433 0.950 . S
H430 C426 0.950 . S
C431 C429 1.390 . S
C431 C432 1.387 . S
C431 H434 0.950 . S
C432 C431 1.387 . S
C432 C435 1.387 . S
H433 C429 0.950 . S
H434 C431 0.950 . S
C435 C426 1.390 . S
C435 H428 0.950 . S
C435 C432 1.387 . S
C436 C437 1.387 . S
C436 H440 0.950 . S
C436 C445 1.390 . S
C437 C436 1.387 . S
C437 C439 1.387 . S
H438 C445 0.950 . S
C439 C437 1.387 . S
C439 C441 1.390 . S
C439 H443 0.950 . S
H440 C436 0.950 . S
C441 C439 1.390 . S
C441 C442 1.387 . S
C441 H444 0.950 . S
C442 C441 1.387 . S
C442 C445 1.387 . S
H443 C439 0.950 . S
H444 C441 0.950 . S
C445 C436 1.390 . S
C445 H438 0.950 . S
C445 C442 1.387 . S
C446 C447 1.387 . S
C446 H450 0.950 . S
C446 C455 1.390 . S
C447 C446 1.387 . S
C447 C449 1.387 . S
H448 C455 0.950 . S
C449 C447 1.387 . S
C449 C451 1.390 . S
C449 H453 0.950 . S
H450 C446 0.950 . S
C451 C449 1.390 . S
C451 C452 1.387 . S
C451 H454 0.950 . S
C452 C451 1.387 . S
C452 C455 1.387 . S
H453 C449 0.950 . S
H454 C451 0.950 . S
C455 C446 1.390 . S
C455 H448 0.950 . S
C455 C452 1.387 . S
C456 C457 1.387 . S
C456 H460 0.950 . S
C456 C465 1.390 . S
C457 C456 1.387 . S
C457 C459 1.387 . S
H458 C465 0.950 . S
C459 C457 1.387 . S
C459 C461 1.390 . S
C459 H463 0.950 . S
H460 C456 0.950 . S
C461 C459 1.390 . S
C461 C462 1.387 . S
C461 H464 0.950 . S
C462 C461 1.387 . S
C462 C465 1.387 . S
H463 C459 0.950 . S
H464 C461 0.950 . S
C465 C456 1.390 . S
C465 H458 0.950 . S
C465 C462 1.387 . S
C466 C467 1.387 . S
C466 H470 0.950 . S
C466 C475 1.390 . S
C467 C466 1.387 . S
C467 C469 1.387 . S
H468 C475 0.950 . S
C469 C467 1.387 . S
C469 C471 1.390 . S
C469 H473 0.950 . S
H470 C466 0.950 . S
C471 C469 1.390 . S
C471 C472 1.387 . S
C471 H474 0.950 . S
C472 C471 1.387 . S
C472 C475 1.387 . S
H473 C469 0.950 . S
H474 C471 0.950 . S
C475 C466 1.390 . S
C475 H468 0.950 . S
C475 C472 1.387 . S
C476 C477 1.387 . S
C476 H480 0.950 . S
C476 C485 1.390 . S
C477 C476 1.387 . S
C477 C479 1.387 . S
H478 C485 0.950 . S
C479 C477 1.387 . S
C479 C481 1.390 . S
C479 H483 0.950 . S
H480 C476 0.950 . S
C481 C479 1.390 . S
C481 C482 1.387 . S
C481 H484 0.950 . S
C482 C481 1.387 . S
C482 C485 1.387 . S
H483 C479 0.950 . S
H484 C481 0.950 . S
C485 C476 1.390 . S
C485 H478 0.950 . S
C485 C482 1.387 . S
C486 C487 1.387 . S
C486 H490 0.950 . S
C486 C495 1.390 . S
C487 C486 1.387 . S
C487 C489 1.387 . S
H488 C495 0.950 . S
C489 C487 1.387 . S
C489 C491 1.390 . S
C489 H493 0.950 . S
H490 C486 0.950 . S
C491 C489 1.390 . S
C491 C492 1.387 . S
C491 H494 0.950 . S
C492 C491 1.387 . S
C492 C495 1.387 . S
H493 C489 0.950 . S
H494 C491 0.950 . S
C495 C486 1.390 . S
C495 H488 0.950 . S
C495 C492 1.387 . S
C496 C497 1.387 . S
C496 H500 0.950 . S
C496 C505 1.390 . S
C497 C496 1.387 . S
C497 C499 1.387 . S
H498 C505 0.950 . S
C499 C497 1.387 . S
C499 C501 1.390 . S
C499 H503 0.950 . S
H500 C496 0.950 . S
C501 C499 1.390 . S
C501 C502 1.387 . S
C501 H504 0.950 . S
C502 C501 1.387 . S
C502 C505 1.387 . S
H503 C499 0.950 . S
H504 C501 0.950 . S
C505 C496 1.390 . S
C505 H498 0.950 . S
C505 C502 1.387 . S
C506 C507 1.387 . S
C506 H510 0.950 . S
C506 C515 1.390 . S
C507 C506 1.387 . S
C507 C509 1.387 . S
H508 C515 0.950 . S
C509 C507 1.387 . S
C509 C511 1.390 . S
C509 H513 0.950 . S
H510 C506 0.950 . S
C511 C509 1.390 . S
C511 C512 1.387 . S
C511 H514 0.950 . S
C512 C511 1.387 . S
C512 C515 1.387 . S
H513 C509 0.950 . S
H514 C511 0.950 . S
C515 C506 1.390 . S
C515 H508 0.950 . S
C515 C512 1.387 . S
C516 C517 1.387 . S
C516 H520 0.950 1_556 S
C516 C525 1.390 . S
C517 C516 1.387 . S
C517 C519 1.387 . S
H518 C525 0.950 . S
C519 C517 1.387 . S
C519 C521 1.390 . S
C519 H523 0.950 . S
H520 C516 0.950 1_554 S
C521 C519 1.390 . S
C521 C522 1.387 . S
C521 H524 0.950 . S
C522 C521 1.387 . S
C522 C525 1.387 . S
H523 C519 0.950 . S
H524 C521 0.950 . S
C525 C516 1.390 . S
C525 H518 0.950 . S
C525 C522 1.387 . S
C526 C527 1.387 . S
C526 H530 0.950 . S
C526 C535 1.390 . S
C527 C526 1.387 . S
C527 C529 1.387 . S
H528 C535 0.950 . S
C529 C527 1.387 . S
C529 C531 1.390 . S
C529 H533 0.950 . S
H530 C526 0.950 . S
C531 C529 1.390 . S
C531 C532 1.387 . S
C531 H534 0.950 1_655 S
C532 C531 1.387 . S
C532 C535 1.387 . S
H533 C529 0.950 . S
H534 C531 0.950 1_455 S
C535 C526 1.390 . S
C535 H528 0.950 . S
C535 C532 1.387 . S
C536 C537 1.387 . S
C536 H540 0.950 . S
C536 C545 1.390 . S
C537 C536 1.387 . S
C537 C539 1.387 . S
H538 C545 0.950 . S
C539 C537 1.387 . S
C539 C541 1.390 . S
C539 H543 0.950 . S
H540 C536 0.950 . S
C541 C539 1.390 . S
C541 C542 1.387 . S
C541 H544 0.950 . S
C542 C541 1.387 . S
C542 C545 1.387 . S
H543 C539 0.950 . S
H544 C541 0.950 . S
C545 C536 1.390 . S
C545 H538 0.950 . S
C545 C542 1.387 . S
C546 C547 1.387 . S
C546 H550 0.950 . S
C546 C555 1.390 . S
C547 C546 1.387 . S
C547 C549 1.387 . S
H548 C555 0.950 . S
C549 C547 1.387 . S
C549 C551 1.390 . S
C549 H553 0.950 . S
H550 C546 0.950 . S
C551 C549 1.390 . S
C551 C552 1.387 . S
C551 H554 0.950 . S
C552 C551 1.387 . S
C552 C555 1.387 . S
H553 C549 0.950 . S
H554 C551 0.950 . S
C555 C546 1.390 . S
C555 H548 0.950 . S
C555 C552 1.387 . S
C556 C557 1.387 . S
C556 H560 0.950 . S
C556 C565 1.390 . S
C557 C556 1.387 . S
C557 C559 1.387 . S
H558 C565 0.950 . S
C559 C557 1.387 . S
C559 C561 1.390 . S
C559 H563 0.950 . S
H560 C556 0.950 . S
C561 C559 1.390 . S
C561 C562 1.387 . S
C561 H564 0.950 . S
C562 C561 1.387 . S
C562 C565 1.387 . S
H563 C559 0.950 . S
H564 C561 0.950 . S
C565 C556 1.390 . S
C565 H558 0.950 . S
C565 C562 1.387 . S
C566 C567 1.387 . S
C566 H570 0.950 . S
C566 C575 1.390 . S
C567 C566 1.387 . S
C567 C569 1.387 . S
H568 C575 0.950 1_545 S
C569 C567 1.387 . S
C569 C571 1.390 . S
C569 H573 0.950 . S
H570 C566 0.950 . S
C571 C569 1.390 . S
C571 C572 1.387 . S
C571 H574 0.950 . S
C572 C571 1.387 . S
C572 C575 1.387 . S
H573 C569 0.950 . S
H574 C571 0.950 . S
C575 C566 1.390 . S
C575 H568 0.950 1_565 S
C575 C572 1.387 . S
C576 C577 1.387 . S
C576 H580 0.950 . S
C576 C585 1.390 . S
C577 C576 1.387 . S
C577 C579 1.387 . S
H578 C585 0.950 . S
C579 C577 1.387 . S
C579 C581 1.390 . S
C579 H583 0.950 1_565 S
H580 C576 0.950 . S
C581 C579 1.390 . S
C581 C582 1.387 . S
C581 H584 0.950 . S
C582 C581 1.387 . S
C582 C585 1.387 . S
H583 C579 0.950 1_545 S
H584 C581 0.950 . S
C585 C576 1.390 . S
C585 H578 0.950 . S
C585 C582 1.387 . S
C586 C587 1.387 . S
C586 H590 0.950 . S
C586 C595 1.390 . S
C587 C586 1.387 . S
C587 C589 1.387 . S
H588 C595 0.950 . S
C589 C587 1.387 . S
C589 C591 1.390 . S
C589 H593 0.950 . S
H590 C586 0.950 . S
C591 C589 1.390 . S
C591 C592 1.387 . S
C591 H594 0.950 . S
C592 C591 1.387 . S
C592 C595 1.387 . S
H593 C589 0.950 . S
H594 C591 0.950 . S
C595 C586 1.390 . S
C595 H588 0.950 . S
C595 C592 1.387 . S
C596 C597 1.387 . S
C596 H600 0.950 . S
C596 C605 1.390 . S
C597 C596 1.387 . S
C597 C599 1.387 . S
H598 C605 0.950 . S
C599 C597 1.387 . S
C599 C601 1.390 . S
C599 H603 0.950 . S
H600 C596 0.950 . S
C601 C599 1.390 . S
C601 C602 1.387 . S
C601 H604 0.950 . S
C602 C601 1.387 . S
C602 C605 1.387 . S
H603 C599 0.950 . S
H604 C601 0.950 . S
C605 C596 1.390 . S
C605 H598 0.950 . S
C605 C602 1.387 . S
C606 C607 1.387 . S
C606 H610 0.950 . S
C606 C615 1.390 . S
C607 C606 1.387 . S
C607 C609 1.387 . S
H608 C615 0.950 . S
C609 C607 1.387 . S
C609 C611 1.390 . S
C609 H613 0.950 . S
H610 C606 0.950 . S
C611 C609 1.390 . S
C611 C612 1.387 . S
C611 H614 0.950 . S
C612 C611 1.387 . S
C612 C615 1.387 . S
H613 C609 0.950 . S
H614 C611 0.950 . S
C615 C606 1.390 . S
C615 H608 0.950 . S
C615 C612 1.387 . S
C616 C617 1.387 . S
C616 H620 0.950 . S
C616 C625 1.390 . S
C617 C616 1.387 . S
C617 C619 1.387 . S
H618 C625 0.950 . S
C619 C617 1.387 . S
C619 C621 1.390 . S
C619 H623 0.950 . S
H620 C616 0.950 . S
C621 C619 1.390 . S
C621 C622 1.387 . S
C621 H624 0.950 . S
C622 C621 1.387 . S
C622 C625 1.387 . S
H623 C619 0.950 . S
H624 C621 0.950 . S
C625 C616 1.390 . S
C625 H618 0.950 . S
C625 C622 1.387 . S
C626 C627 1.387 . S
C626 H630 0.950 . S
C626 C635 1.390 . S
C627 C626 1.387 . S
C627 C629 1.387 . S
H628 C635 0.950 . S
C629 C627 1.387 . S
C629 C631 1.390 . S
C629 H633 0.950 . S
H630 C626 0.950 . S
C631 C629 1.390 . S
C631 C632 1.387 . S
C631 H634 0.950 . S
C632 C631 1.387 . S
C632 C635 1.387 . S
H633 C629 0.950 . S
H634 C631 0.950 . S
C635 C626 1.390 . S
C635 H628 0.950 . S
C635 C632 1.387 . S
C636 C637 1.387 . S
C636 H640 0.950 . S
C636 C645 1.390 . S
C637 C636 1.387 . S
C637 C639 1.387 . S
H638 C645 0.950 . S
C639 C637 1.387 . S
C639 C641 1.390 . S
C639 H643 0.950 . S
H640 C636 0.950 . S
C641 C639 1.390 . S
C641 C642 1.387 . S
C641 H644 0.950 . S
C642 C641 1.387 . S
C642 C645 1.387 . S
H643 C639 0.950 . S
H644 C641 0.950 . S
C645 C636 1.390 . S
C645 H638 0.950 . S
C645 C642 1.387 . S
C646 C647 1.387 . S
C646 H650 0.950 . S
C646 C655 1.390 . S
C647 C646 1.387 . S
C647 C649 1.387 . S
H648 C655 0.950 . S
C649 C647 1.387 . S
C649 C651 1.390 . S
C649 H653 0.950 . S
H650 C646 0.950 . S
C651 C649 1.390 . S
C651 C652 1.387 . S
C651 H654 0.950 . S
C652 C651 1.387 . S
C652 C655 1.387 . S
H653 C649 0.950 . S
H654 C651 0.950 . S
C655 C646 1.390 . S
C655 H648 0.950 . S
C655 C652 1.387 . S
C656 C657 1.387 . S
C656 H660 0.950 . S
C656 C665 1.390 . S
C657 C656 1.387 . S
C657 C659 1.387 . S
H658 C665 0.950 . S
C659 C657 1.387 . S
C659 C661 1.390 . S
C659 H663 0.950 . S
H660 C656 0.950 . S
C661 C659 1.390 . S
C661 C662 1.387 . S
C661 H664 0.950 . S
C662 C661 1.387 . S
C662 C665 1.387 . S
H663 C659 0.950 . S
H664 C661 0.950 . S
C665 C656 1.390 . S
C665 H658 0.950 . S
C665 C662 1.387 . S
C666 C667 1.387 . S
C666 H670 0.950 . S
C666 C675 1.390 . S
C667 C666 1.387 . S
C667 C669 1.387 . S
H668 C675 0.950 . S
C669 C667 1.387 . S
C669 C671 1.390 . S
C669 H673 0.950 . S
H670 C666 0.950 . S
C671 C669 1.390 . S
C671 C672 1.387 . S
C671 H674 0.950 . S
C672 C671 1.387 . S
C672 C675 1.387 . S
H673 C669 0.950 . S
H674 C671 0.950 . S
C675 C666 1.390 . S
C675 H668 0.950 . S
C675 C672 1.387 . S
C676 C677 1.387 . S
C676 H680 0.950 . S
C676 C685 1.390 . S
C677 C676 1.387 . S
C677 C679 1.387 . S
H678 C685 0.950 . S
C679 C677 1.387 . S
C679 C681 1.390 . S
C679 H683 0.950 . S
H680 C676 0.950 . S
C681 C679 1.390 . S
C681 C682 1.387 . S
C681 H684 0.950 . S
C682 C681 1.387 . S
C682 C685 1.387 . S
H683 C679 0.950 . S
H684 C681 0.950 . S
C685 C676 1.390 . S
C685 H678 0.950 . S
C685 C682 1.387 . S
C686 C687 1.387 . S
C686 H690 0.950 . S
C686 C695 1.390 . S
C687 C686 1.387 . S
C687 C689 1.387 . S
H688 C695 0.950 . S
C689 C687 1.387 . S
C689 C691 1.390 . S
C689 H693 0.950 . S
H690 C686 0.950 . S
C691 C689 1.390 . S
C691 C692 1.387 . S
C691 H694 0.950 . S
C692 C691 1.387 . S
C692 C695 1.387 . S
H693 C689 0.950 . S
H694 C691 0.950 . S
C695 C686 1.390 . S
C695 H688 0.950 . S
C695 C692 1.387 . S
C696 C697 1.387 . S
C696 H700 0.950 . S
C696 C705 1.390 . S
C697 C696 1.387 . S
C697 C699 1.387 . S
H698 C705 0.950 . S
C699 C697 1.387 . S
C699 C701 1.390 . S
C699 H703 0.950 . S
H700 C696 0.950 . S
C701 C699 1.390 . S
C701 C702 1.387 . S
C701 H704 0.950 . S
C702 C701 1.387 . S
C702 C705 1.387 . S
H703 C699 0.950 . S
H704 C701 0.950 . S
C705 C696 1.390 . S
C705 H698 0.950 . S
C705 C702 1.387 . S
C706 C707 1.387 . S
C706 H710 0.950 . S
C706 C715 1.390 . S
C707 C706 1.387 . S
C707 C709 1.387 . S
H708 C715 0.950 . S
C709 C707 1.387 . S
C709 C711 1.390 . S
C709 H713 0.950 . S
H710 C706 0.950 . S
C711 C709 1.390 . S
C711 C712 1.387 . S
C711 H714 0.950 . S
C712 C711 1.387 . S
C712 C715 1.387 . S
H713 C709 0.950 . S
H714 C711 0.950 . S
C715 C706 1.390 . S
C715 H708 0.950 . S
C715 C712 1.387 . S
C716 C717 1.387 . S
C716 H720 0.950 . S
C716 C725 1.390 . S
C717 C716 1.387 . S
C717 C719 1.387 . S
H718 C725 0.950 . S
C719 C717 1.387 . S
C719 C721 1.390 . S
C719 H723 0.950 . S
H720 C716 0.950 . S
C721 C719 1.390 . S
C721 C722 1.387 . S
C721 H724 0.950 . S
C722 C721 1.387 . S
C722 C725 1.387 . S
H723 C719 0.950 . S
H724 C721 0.950 . S
C725 C716 1.390 . S
C725 H718 0.950 . S
C725 C722 1.387 . S
C726 C727 1.387 . S
C726 H730 0.950 . S
C726 C735 1.390 . S
C727 C726 1.387 . S
C727 C729 1.387 . S
H728 C735 0.950 . S
C729 C727 1.387 . S
C729 C731 1.390 . S
C729 H733 0.950 . S
H730 C726 0.950 . S
C731 C729 1.390 . S
C731 C732 1.387 . S
C731 H734 0.950 . S
C732 C731 1.387 . S
C732 C735 1.387 . S
H733 C729 0.950 . S
H734 C731 0.950 . S
C735 C726 1.390 . S
C735 H728 0.950 . S
C735 C732 1.387 . S
C736 C737 1.387 . S
C736 H740 0.950 . S
C736 C745 1.390 . S
C737 C736 1.387 . S
C737 C739 1.387 . S
H738 C745 0.950 . S
C739 C737 1.387 . S
C739 C741 1.390 . S
C739 H743 0.950 . S
H740 C736 0.950 . S
C741 C739 1.390 . S
C741 C742 1.387 . S
C741 H744 0.950 . S
C742 C741 1.387 . S
C742 C745 1.387 . S
H743 C739 0.950 . S
H744 C741 0.950 . S
C745 C736 1.390 . S
C745 H738 0.950 . S
C745 C742 1.387 . S
C746 C747 1.387 . S
C746 H750 0.950 . S
C746 C755 1.390 . S
C747 C746 1.387 . S
C747 C749 1.387 . S
H748 C755 0.950 . S
C749 C747 1.387 . S
C749 C751 1.390 . S
C749 H753 0.950 . S
H750 C746 0.950 . S
C751 C749 1.390 . S
C751 C752 1.387 . S
C751 H754 0.950 . S
C752 C751 1.387 . S
C752 C755 1.387 . S
H753 C749 0.950 . S
H754 C751 0.950 . S
C755 C746 1.390 . S
C755 H748 0.950 . S
C755 C752 1.387 . S
C756 C757 1.387 . S
C756 H760 0.950 . S
C756 C765 1.390 . S
C757 C756 1.387 . S
C757 C759 1.387 . S
H758 C765 0.950 . S
C759 C757 1.387 . S
C759 C761 1.390 . S
C759 H763 0.950 . S
H760 C756 0.950 . S
C761 C759 1.390 . S
C761 C762 1.387 . S
C761 H764 0.950 . S
C762 C761 1.387 . S
C762 C765 1.387 . S
H763 C759 0.950 . S
H764 C761 0.950 . S
C765 C756 1.390 . S
C765 H758 0.950 . S
C765 C762 1.387 . S
C766 C767 1.387 . S
C766 H770 0.950 . S
C766 C775 1.390 . S
C767 C766 1.387 . S
C767 C769 1.387 . S
H768 C775 0.950 . S
C769 C767 1.387 . S
C769 C771 1.390 . S
C769 H773 0.950 . S
H770 C766 0.950 . S
C771 C769 1.390 . S
C771 C772 1.387 . S
C771 H774 0.950 . S
C772 C771 1.387 . S
C772 C775 1.387 . S
H773 C769 0.950 . S
H774 C771 0.950 . S
C775 C766 1.390 . S
C775 H768 0.950 . S
C775 C772 1.387 . S
C776 C777 1.387 . S
C776 H780 0.950 . S
C776 C785 1.390 . S
C777 C776 1.387 . S
C777 C779 1.387 . S
H778 C785 0.950 . S
C779 C777 1.387 . S
C779 C781 1.390 . S
C779 H783 0.950 . S
H780 C776 0.950 . S
C781 C779 1.390 . S
C781 C782 1.387 . S
C781 H784 0.950 . S
C782 C781 1.387 . S
C782 C785 1.387 . S
H783 C779 0.950 . S
H784 C781 0.950 . S
C785 C776 1.390 . S
C785 H778 0.950 . S
C785 C782 1.387 . S
C786 C787 1.387 . S
C786 H790 0.950 . S
C786 C795 1.390 . S
C787 C786 1.387 . S
C787 C789 1.387 . S
H788 C795 0.950 . S
C789 C787 1.387 . S
C789 C791 1.390 . S
C789 H793 0.950 . S
H790 C786 0.950 . S
C791 C789 1.390 . S
C791 C792 1.387 . S
C791 H794 0.950 . S
C792 C791 1.387 . S
C792 C795 1.387 . S
H793 C789 0.950 . S
H794 C791 0.950 . S
C795 C786 1.390 . S
C795 H788 0.950 . S
C795 C792 1.387 . S
C796 C797 1.387 . S
C796 H800 0.950 . S
C796 C805 1.390 . S
C797 C796 1.387 . S
C797 C799 1.387 . S
H798 C805 0.950 . S
C799 C797 1.387 . S
C799 C801 1.390 . S
C799 H803 0.950 . S
H800 C796 0.950 . S
C801 C799 1.390 . S
C801 C802 1.387 . S
C801 H804 0.950 . S
C802 C801 1.387 . S
C802 C805 1.387 . S
H803 C799 0.950 . S
H804 C801 0.950 . S
C805 C796 1.390 . S
C805 H798 0.950 . S
C805 C802 1.387 . S
C806 C807 1.387 . S
C806 H810 0.950 . S
C806 C815 1.390 . S
C807 C806 1.387 . S
C807 C809 1.387 . S
H808 C815 0.950 . S
C809 C807 1.387 . S
C809 C811 1.390 . S
C809 H813 0.950 . S
H810 C806 0.950 . S
C811 C809 1.390 . S
C811 C812 1.387 . S
C811 H814 0.950 . S
C812 C811 1.387 . S
C812 C815 1.387 . S
H813 C809 0.950 . S
H814 C811 0.950 . S
C815 C806 1.390 . S
C815 H808 0.950 . S
C815 C812 1.387 . S
C337 C203 1.490 . S
C342 C6 1.458 . S
C347 C21 1.492 . S
C352 C216 1.460 . S
C357 C261 1.682 . S
C362 C37 1.683 . S
C367 C50 2.018 . S
C372 C190 2.018 . S
C377 C204 2.018 . S
C382 C64 2.018 . S
C387 C79 1.684 . S
C392 C219 1.682 . S
C397 C91 1.491 . S
C402 C258 1.460 . S
C407 C104 1.458 . S
C412 C189 1.490 . S
C417 C133 1.492 . S
C422 C118 1.460 . S
C427 C148 2.018 . S
C432 C134 2.019 . S
C437 C147 1.491 . S
C442 C160 1.460 . S
C447 C163 1.683 . S
C452 C121 1.684 . S
C457 C174 1.458 . S
C462 C49 1.490 . S
C467 C63 1.490 . S
C472 C230 1.457 . S
C477 C246 2.019 . S
C482 C22 2.018 . S
C487 C20 1.571 . S
C492 C302 1.599 . S
C497 C132 1.572 . S
C502 C8 1.599 . S
C507 C331 1.688 . S
C512 C51 1.689 . S
C517 C161 1.044 . S
C522 C35 1.044 . S
C527 C301 1.043 . S
C532 C105 1.042 . S
C537 C135 1.687 . S
C542 C93 1.687 . S
C547 C78 1.599 . S
C552 C328 1.571 . S
C557 C62 1.572 . S
C562 C162 1.599 . S
C567 C218 1.599 . S
C572 C272 1.573 . S
C577 C231 1.042 . S
C582 C217 1.044 . S
C587 C188 1.573 . S
C592 C232 1.599 . S
C597 C275 1.687 . S
C602 C191 1.688 . S
C607 C36 1.599 . S
C612 C286 1.572 . S
C617 C146 1.570 . S
C622 C106 1.599 . S
C627 C7 1.042 . S
C632 C315 1.043 . S
C637 C273 1.491 . S
C642 C34 1.460 . S
C647 C9 1.684 . S
C652 C233 1.682 . S
C657 C274 2.018 . S
C662 C92 2.019 . S
C667 C177 1.682 . S
C672 C107 1.683 . S
C677 C76 1.460 . S
C682 C245 1.492 . S
C687 C300 1.457 . S
C692 C287 1.491 . S
C697 C330 2.019 . S
C702 C288 2.018 . S
C707 C314 1.458 . S
C712 C329 1.491 . S
C717 C303 1.683 . S
C722 C317 1.684 . S
C727 C120 1.600 . S
C732 C48 1.572 . S
C737 C23 1.686 . S
C742 C149 1.686 . S
C747 C77 1.043 . S
C752 C119 1.045 . S
C757 C289 1.688 . S
C762 C65 1.688 . S
C767 C90 1.572 . S
C772 C316 1.599 . S
C777 C176 1.600 . S
C782 C202 1.571 . S
C787 C259 1.042 . S
C792 C175 1.044 . S
C797 C244 1.572 . S
C802 C260 1.600 . S
C807 C205 1.687 . S
C812 C247 1.687 . S
