# Generated by pormake.
# Topology umr, (4)-cn, num edge types: 1
# Building blocks:
#     Node 0, Type 0, BuildingBlock: NAHDIM_clean_sbu_0, # of connection points: 4
#     Node 1, Type 0, BuildingBlock: NAHDIM_clean_sbu_0, # of connection points: 4
#     Node 2, Type 0, BuildingBlock: NAHDIM_clean_sbu_0, # of connection points: 4
#     Node 3, Type 0, BuildingBlock: NAHDIM_clean_sbu_0, # of connection points: 4
#     Node 4, Type 0, BuildingBlock: NAHDIM_clean_sbu_0, # of connection points: 4
#     Node 5, Type 0, BuildingBlock: NAHDIM_clean_sbu_0, # of connection points: 4
#     Node 6, Type 0, BuildingBlock: NAHDIM_clean_sbu_0, # of connection points: 4
#     Node 7, Type 0, BuildingBlock: NAHDIM_clean_sbu_0, # of connection points: 4
#     Node 8, Type 0, BuildingBlock: NAHDIM_clean_sbu_0, # of connection points: 4
#     Node 9, Type 0, BuildingBlock: NAHDIM_clean_sbu_0, # of connection points: 4
#     Node 10, Type 0, BuildingBlock: NAHDIM_clean_sbu_0, # of connection points: 4
#     Node 11, Type 0, BuildingBlock: NAHDIM_clean_sbu_0, # of connection points: 4
#     Node 12, Type 0, BuildingBlock: NAHDIM_clean_sbu_0, # of connection points: 4
#     Node 13, Type 0, BuildingBlock: NAHDIM_clean_sbu_0, # of connection points: 4
#     Node 14, Type 0, BuildingBlock: NAHDIM_clean_sbu_0, # of connection points: 4
#     Node 15, Type 0, BuildingBlock: NAHDIM_clean_sbu_0, # of connection points: 4
#     Node 16, Type 0, BuildingBlock: NAHDIM_clean_sbu_0, # of connection points: 4
#     Node 17, Type 0, BuildingBlock: NAHDIM_clean_sbu_0, # of connection points: 4
#     Node 18, Type 0, BuildingBlock: NAHDIM_clean_sbu_0, # of connection points: 4
#     Node 19, Type 0, BuildingBlock: NAHDIM_clean_sbu_0, # of connection points: 4
#     Node 20, Type 0, BuildingBlock: NAHDIM_clean_sbu_0, # of connection points: 4
#     Node 21, Type 0, BuildingBlock: NAHDIM_clean_sbu_0, # of connection points: 4
#     Node 22, Type 0, BuildingBlock: NAHDIM_clean_sbu_0, # of connection points: 4
#     Node 23, Type 0, BuildingBlock: NAHDIM_clean_sbu_0, # of connection points: 4
#     Node 24, Type 0, BuildingBlock: NAHDIM_clean_sbu_0, # of connection points: 4
#     Node 25, Type 0, BuildingBlock: NAHDIM_clean_sbu_0, # of connection points: 4
#     Node 26, Type 0, BuildingBlock: NAHDIM_clean_sbu_0, # of connection points: 4
#     Node 27, Type 0, BuildingBlock: NAHDIM_clean_sbu_0, # of connection points: 4
#     Node 28, Type 0, BuildingBlock: NAHDIM_clean_sbu_0, # of connection points: 4
#     Node 29, Type 0, BuildingBlock: NAHDIM_clean_sbu_0, # of connection points: 4
#     Node 30, Type 0, BuildingBlock: NAHDIM_clean_sbu_0, # of connection points: 4
#     Node 31, Type 0, BuildingBlock: NAHDIM_clean_sbu_0, # of connection points: 4
#     Edge 32, Type (0, 0), BuildingBlock: AJUNOK_clean_linker_0, # of connection points: 2
#     Edge 33, Type (0, 0), BuildingBlock: AJUNOK_clean_linker_0, # of connection points: 2
#     Edge 34, Type (0, 0), BuildingBlock: AJUNOK_clean_linker_0, # of connection points: 2
#     Edge 35, Type (0, 0), BuildingBlock: AJUNOK_clean_linker_0, # of connection points: 2
#     Edge 36, Type (0, 0), BuildingBlock: AJUNOK_clean_linker_0, # of connection points: 2
#     Edge 37, Type (0, 0), BuildingBlock: AJUNOK_clean_linker_0, # of connection points: 2
#     Edge 38, Type (0, 0), BuildingBlock: AJUNOK_clean_linker_0, # of connection points: 2
#     Edge 39, Type (0, 0), BuildingBlock: AJUNOK_clean_linker_0, # of connection points: 2
#     Edge 40, Type (0, 0), BuildingBlock: AJUNOK_clean_linker_0, # of connection points: 2
#     Edge 41, Type (0, 0), BuildingBlock: AJUNOK_clean_linker_0, # of connection points: 2
#     Edge 42, Type (0, 0), BuildingBlock: AJUNOK_clean_linker_0, # of connection points: 2
#     Edge 43, Type (0, 0), BuildingBlock: AJUNOK_clean_linker_0, # of connection points: 2
#     Edge 44, Type (0, 0), BuildingBlock: AJUNOK_clean_linker_0, # of connection points: 2
#     Edge 45, Type (0, 0), BuildingBlock: AJUNOK_clean_linker_0, # of connection points: 2
#     Edge 46, Type (0, 0), BuildingBlock: AJUNOK_clean_linker_0, # of connection points: 2
#     Edge 47, Type (0, 0), BuildingBlock: AJUNOK_clean_linker_0, # of connection points: 2
#     Edge 48, Type (0, 0), BuildingBlock: AJUNOK_clean_linker_0, # of connection points: 2
#     Edge 49, Type (0, 0), BuildingBlock: AJUNOK_clean_linker_0, # of connection points: 2
#     Edge 50, Type (0, 0), BuildingBlock: AJUNOK_clean_linker_0, # of connection points: 2
#     Edge 51, Type (0, 0), BuildingBlock: AJUNOK_clean_linker_0, # of connection points: 2
#     Edge 52, Type (0, 0), BuildingBlock: AJUNOK_clean_linker_0, # of connection points: 2
#     Edge 53, Type (0, 0), BuildingBlock: AJUNOK_clean_linker_0, # of connection points: 2
#     Edge 54, Type (0, 0), BuildingBlock: AJUNOK_clean_linker_0, # of connection points: 2
#     Edge 55, Type (0, 0), BuildingBlock: AJUNOK_clean_linker_0, # of connection points: 2
#     Edge 56, Type (0, 0), BuildingBlock: AJUNOK_clean_linker_0, # of connection points: 2
#     Edge 57, Type (0, 0), BuildingBlock: AJUNOK_clean_linker_0, # of connection points: 2
#     Edge 58, Type (0, 0), BuildingBlock: AJUNOK_clean_linker_0, # of connection points: 2
#     Edge 59, Type (0, 0), BuildingBlock: AJUNOK_clean_linker_0, # of connection points: 2
#     Edge 60, Type (0, 0), BuildingBlock: AJUNOK_clean_linker_0, # of connection points: 2
#     Edge 61, Type (0, 0), BuildingBlock: AJUNOK_clean_linker_0, # of connection points: 2
#     Edge 62, Type (0, 0), BuildingBlock: AJUNOK_clean_linker_0, # of connection points: 2
#     Edge 63, Type (0, 0), BuildingBlock: AJUNOK_clean_linker_0, # of connection points: 2
#     Edge 64, Type (0, 0), BuildingBlock: AJUNOK_clean_linker_0, # of connection points: 2
#     Edge 65, Type (0, 0), BuildingBlock: AJUNOK_clean_linker_0, # of connection points: 2
#     Edge 66, Type (0, 0), BuildingBlock: AJUNOK_clean_linker_0, # of connection points: 2
#     Edge 67, Type (0, 0), BuildingBlock: AJUNOK_clean_linker_0, # of connection points: 2
#     Edge 68, Type (0, 0), BuildingBlock: AJUNOK_clean_linker_0, # of connection points: 2
#     Edge 69, Type (0, 0), BuildingBlock: AJUNOK_clean_linker_0, # of connection points: 2
#     Edge 70, Type (0, 0), BuildingBlock: AJUNOK_clean_linker_0, # of connection points: 2
#     Edge 71, Type (0, 0), BuildingBlock: AJUNOK_clean_linker_0, # of connection points: 2
#     Edge 72, Type (0, 0), BuildingBlock: AJUNOK_clean_linker_0, # of connection points: 2
#     Edge 73, Type (0, 0), BuildingBlock: AJUNOK_clean_linker_0, # of connection points: 2
#     Edge 74, Type (0, 0), BuildingBlock: AJUNOK_clean_linker_0, # of connection points: 2
#     Edge 75, Type (0, 0), BuildingBlock: AJUNOK_clean_linker_0, # of connection points: 2
#     Edge 76, Type (0, 0), BuildingBlock: AJUNOK_clean_linker_0, # of connection points: 2
#     Edge 77, Type (0, 0), BuildingBlock: AJUNOK_clean_linker_0, # of connection points: 2
#     Edge 78, Type (0, 0), BuildingBlock: AJUNOK_clean_linker_0, # of connection points: 2
#     Edge 79, Type (0, 0), BuildingBlock: AJUNOK_clean_linker_0, # of connection points: 2
#     Edge 80, Type (0, 0), BuildingBlock: AJUNOK_clean_linker_0, # of connection points: 2
#     Edge 81, Type (0, 0), BuildingBlock: AJUNOK_clean_linker_0, # of connection points: 2
#     Edge 82, Type (0, 0), BuildingBlock: AJUNOK_clean_linker_0, # of connection points: 2
#     Edge 83, Type (0, 0), BuildingBlock: AJUNOK_clean_linker_0, # of connection points: 2
#     Edge 84, Type (0, 0), BuildingBlock: AJUNOK_clean_linker_0, # of connection points: 2
#     Edge 85, Type (0, 0), BuildingBlock: AJUNOK_clean_linker_0, # of connection points: 2
#     Edge 86, Type (0, 0), BuildingBlock: AJUNOK_clean_linker_0, # of connection points: 2
#     Edge 87, Type (0, 0), BuildingBlock: AJUNOK_clean_linker_0, # of connection points: 2
#     Edge 88, Type (0, 0), BuildingBlock: AJUNOK_clean_linker_0, # of connection points: 2
#     Edge 89, Type (0, 0), BuildingBlock: AJUNOK_clean_linker_0, # of connection points: 2
#     Edge 90, Type (0, 0), BuildingBlock: AJUNOK_clean_linker_0, # of connection points: 2
#     Edge 91, Type (0, 0), BuildingBlock: AJUNOK_clean_linker_0, # of connection points: 2
#     Edge 92, Type (0, 0), BuildingBlock: AJUNOK_clean_linker_0, # of connection points: 2
#     Edge 93, Type (0, 0), BuildingBlock: AJUNOK_clean_linker_0, # of connection points: 2
#     Edge 94, Type (0, 0), BuildingBlock: AJUNOK_clean_linker_0, # of connection points: 2
#     Edge 95, Type (0, 0), BuildingBlock: AJUNOK_clean_linker_0, # of connection points: 2
# Relax obj value: 0.121
# Max RMSD: 0.119
# Mean RMSD: 0.119
data_MOF--net-umr--node1-NAHDIM_clean_sbu_0--edge1-AJUNOK_clean_linker_0
_symmetry_space_group_name_H-M    P1
_symmetry_Int_Tables_number       1
_symmetry_cell_setting            triclinic
loop_
_symmetry_equiv_pos_as_xyz
'x, y, z'
_cell_length_a     65.70863
_cell_length_b     65.773025
_cell_length_c     17.658324
_cell_angle_alpha  89.969066
_cell_angle_beta   90.039722
_cell_angle_gamma 90.006732
loop_
_atom_site_label
_atom_site_type_symbol
_atom_site_fract_x
_atom_site_fract_y
_atom_site_fract_z
_atom_type_partial_charge
C0 C 0.1217 0.31718 0.13052 0.0
O1 O 0.11565 0.29816 0.13466 0.0
O2 O 0.15571 0.28341 0.00266 0.0
Zn3 Zn 0.1586 0.29673 0.10468 0.0
O4 O 0.1518 0.27747 0.18926 0.0
C5 C 0.19717 0.31271 0.05909 0.0
O6 O 0.18682 0.31696 0.99739 0.0
O7 O 0.1402 0.32083 0.11485 0.0
C8 C 0.16351 0.26291 0.20729 0.0
O9 O 0.18016 0.25998 0.16757 0.0
C10 C 0.1454 0.26744 0.98985 0.0
O11 O 0.13491 0.25927 0.04534 0.0
O12 O 0.18789 0.30479 0.11487 0.0
C13 C 0.9304 0.88495 0.37425 0.0
O14 O 0.94848 0.88132 0.40296 0.0
O15 O 0.96849 0.92139 0.26073 0.0
Zn16 Zn 0.94833 0.92402 0.34556 0.0
O17 O 0.9631 0.92349 0.44554 0.0
C18 C 0.93537 0.96563 0.37679 0.0
O19 O 0.94261 0.96216 0.44492 0.0
O20 O 0.92695 0.90216 0.34414 0.0
C21 C 0.98004 0.91445 0.45376 0.0
O22 O 0.98824 0.90527 0.39519 0.0
C23 C 0.97273 0.90597 0.22053 0.0
O24 O 0.96338 0.88867 0.23366 0.0
O25 O 0.93542 0.9513 0.32858 0.0
C26 C 0.37 0.67181 0.65282 0.0
O27 O 0.37457 0.69087 0.66719 0.0
O28 O 0.33557 0.70745 0.53316 0.0
Zn29 Zn 0.33245 0.69096 0.6281 0.0
O30 O 0.33647 0.7079 0.72211 0.0
C31 C 0.29205 0.69822 0.61414 0.0
O32 O 0.3007 0.71609 0.62254 0.0
O33 O 0.352 0.66751 0.63183 0.0
C34 C 0.34089 0.72671 0.72247 0.0
O35 O 0.34292 0.73638 0.65782 0.0
C36 C 0.34997 0.71519 0.49519 0.0
O37 O 0.36884 0.71317 0.51873 0.0
O38 O 0.30308 0.68243 0.62101 0.0
C39 C 0.56558 0.11596 0.83873 0.0
O40 O 0.54628 0.12074 0.84559 0.0
O41 O 0.53218 0.08326 0.70314 0.0
Zn42 Zn 0.54605 0.07961 0.80388 0.0
O43 O 0.52753 0.08544 0.8925 0.0
C44 C 0.53858 0.03862 0.79823 0.0
O45 O 0.52049 0.04704 0.79395 0.0
O46 O 0.57014 0.09819 0.81606 0.0
C47 C 0.50828 0.08708 0.89433 0.0
O48 O 0.49758 0.08374 0.83273 0.0
C49 C 0.52114 0.09773 0.67906 0.0
O50 O 0.51805 0.11364 0.72245 0.0
O51 O 0.55398 0.0501 0.80636 0.0
C52 C 0.13002 0.67438 0.46641 0.0
O53 O 0.12574 0.69389 0.46719 0.0
O54 O 0.16145 0.71255 0.5533 0.0
Zn55 Zn 0.16857 0.69176 0.47459 0.0
O56 O 0.16777 0.70533 0.37242 0.0
C57 C 0.20906 0.69847 0.49857 0.0
O58 O 0.20151 0.71622 0.47905 0.0
O59 O 0.14849 0.66893 0.47258 0.0
C60 C 0.15984 0.72281 0.36386 0.0
O61 O 0.15214 0.73225 0.42268 0.0
C62 C 0.16767 0.71084 0.621 0.0
O63 O 0.17668 0.69391 0.64196 0.0
O64 O 0.1973 0.68313 0.49786 0.0
C65 C 0.56948 0.87799 0.64751 0.0
O66 O 0.55024 0.87253 0.6484 0.0
O67 O 0.5386 0.90246 0.80432 0.0
Zn68 Zn 0.55052 0.91231 0.70618 0.0
O69 O 0.52915 0.911 0.62538 0.0
C70 C 0.5414 0.95156 0.74267 0.0
O71 O 0.5241 0.94163 0.74774 0.0
O72 O 0.57423 0.89541 0.67302 0.0
C73 C 0.53203 0.91914 0.56121 0.0
O74 O 0.54941 0.92836 0.54805 0.0
C75 C 0.52044 0.89585 0.80737 0.0
O76 O 0.51057 0.8925 0.74394 0.0
O77 O 0.5572 0.94181 0.72256 0.0
C78 C 0.35833 0.31509 0.90158 0.0
O79 O 0.36121 0.29533 0.90084 0.0
O80 O 0.33156 0.28562 0.05 0.0
Zn81 Zn 0.32178 0.29999 0.95605 0.0
O82 O 0.32075 0.2802 0.86979 0.0
C83 C 0.28538 0.30965 0.04009 0.0
O84 O 0.29669 0.30379 0.09737 0.0
O85 O 0.34149 0.32187 0.9264 0.0
C86 C 0.31167 0.28457 0.8085 0.0
O87 O 0.30237 0.30218 0.80263 0.0
C88 C 0.33043 0.26639 0.05476 0.0
O89 O 0.32428 0.25601 0.99552 0.0
O90 O 0.29326 0.31036 0.97433 0.0
C91 C 0.93089 0.11315 0.1052 0.0
O92 O 0.95029 0.11592 0.09036 0.0
O93 O 0.96647 0.08409 0.23788 0.0
Zn94 Zn 0.94713 0.0759 0.15511 0.0
O95 O 0.96307 0.07261 0.05915 0.0
C96 C 0.93073 0.04755 0.25849 0.0
O97 O 0.93117 0.06387 0.30128 0.0
O98 O 0.92542 0.09672 0.13706 0.0
C99 C 0.95959 0.05896 0.01003 0.0
O100 O 0.94454 0.04617 0.02111 0.0
C101 C 0.98405 0.07602 0.23721 0.0
O102 O 0.98935 0.06465 0.17937 0.0
O103 O 0.93556 0.04918 0.18902 0.0
C104 C 0.87119 0.68431 0.84081 0.0
O105 O 0.87485 0.70309 0.81944 0.0
O106 O 0.84597 0.72105 0.98201 0.0
Zn107 Zn 0.83615 0.70407 0.89466 0.0
O108 O 0.83476 0.72119 0.80077 0.0
C109 C 0.79669 0.71 0.94195 0.0
O110 O 0.80456 0.72836 0.9411 0.0
O111 O 0.85482 0.68056 0.8764 0.0
C112 C 0.82416 0.71565 0.74434 0.0
O113 O 0.8141 0.69842 0.74819 0.0
C114 C 0.85199 0.7393 0.97435 0.0
O115 O 0.85402 0.74682 0.90587 0.0
O116 O 0.8078 0.69517 0.92156 0.0
C117 C 0.06185 0.10437 0.64683 0.0
O118 O 0.04215 0.10747 0.64165 0.0
O119 O 0.02837 0.06763 0.74504 0.0
Zn120 Zn 0.04713 0.06434 0.65663 0.0
O121 O 0.02999 0.06685 0.56337 0.0
C122 C 0.06582 0.03078 0.72903 0.0
O123 O 0.06558 0.04388 0.78514 0.0
O124 O 0.06824 0.08629 0.65553 0.0
C125 C 0.03727 0.07126 0.49888 0.0
O126 O 0.05705 0.07324 0.49113 0.0
C127 C 0.01402 0.05474 0.7502 0.0
O128 O 0.01244 0.04061 0.69796 0.0
O129 O 0.05951 0.03651 0.66436 0.0
C130 C 0.62642 0.31614 0.40951 0.0
O131 O 0.62247 0.29658 0.40731 0.0
O132 O 0.66405 0.28511 0.53477 0.0
Zn133 Zn 0.66492 0.29922 0.43328 0.0
O134 O 0.65869 0.28011 0.34764 0.0
C135 C 0.70361 0.31571 0.47547 0.0
O136 O 0.69492 0.31613 0.54246 0.0
O137 O 0.64446 0.3218 0.42473 0.0
C138 C 0.66621 0.26259 0.33692 0.0
O139 O 0.67947 0.25538 0.38576 0.0
C140 C 0.65303 0.26991 0.55174 0.0
O141 O 0.64026 0.26274 0.50115 0.0
O142 O 0.69331 0.30971 0.41881 0.0
C143 C 0.4327 0.88428 0.20411 0.0
O144 O 0.45241 0.88107 0.20154 0.0
O145 O 0.46829 0.92359 0.2747 0.0
Zn146 Zn 0.44757 0.92401 0.19144 0.0
O147 O 0.46193 0.91779 0.09367 0.0
C148 C 0.42991 0.96013 0.25022 0.0
O149 O 0.43036 0.94911 0.31223 0.0
O150 O 0.42628 0.9025 0.20439 0.0
C151 C 0.47944 0.90954 0.09298 0.0
O152 O 0.48887 0.90602 0.15726 0.0
C153 C 0.46637 0.91571 0.33982 0.0
O154 O 0.44916 0.90676 0.35792 0.0
O155 O 0.43563 0.95208 0.18836 0.0
C156 C 0.86733 0.32578 0.50773 0.0
O157 O 0.87402 0.3071 0.49924 0.0
O158 O 0.83377 0.29073 0.39249 0.0
Zn159 Zn 0.83092 0.30411 0.49459 0.0
O160 O 0.83951 0.2855 0.57918 0.0
C161 C 0.7916 0.31825 0.45192 0.0
O162 O 0.80127 0.32168 0.38812 0.0
O163 O 0.84831 0.32898 0.50357 0.0
C164 C 0.83159 0.26831 0.59324 0.0
O165 O 0.81693 0.26159 0.54923 0.0
C166 C 0.84555 0.27596 0.37756 0.0
O167 O 0.85756 0.26892 0.43094 0.0
O168 O 0.8015 0.31127 0.50802 0.0
C169 C 0.41991 0.12319 0.33585 0.0
O170 O 0.43885 0.1296 0.33445 0.0
O171 O 0.45249 0.091 0.19789 0.0
Zn172 Zn 0.44041 0.08697 0.30166 0.0
O173 O 0.46041 0.09386 0.38384 0.0
C174 C 0.42554 0.04814 0.25416 0.0
O175 O 0.42235 0.05821 0.19097 0.0
O176 O 0.41623 0.10479 0.31891 0.0
C177 C 0.47531 0.08265 0.40234 0.0
O178 O 0.47845 0.0657 0.36482 0.0
C179 C 0.46938 0.09984 0.18612 0.0
O180 O 0.47903 0.10806 0.24359 0.0
O181 O 0.43269 0.05757 0.31105 0.0
C182 C 0.63416 0.67335 0.03182 0.0
O183 O 0.62808 0.69238 0.03123 0.0
O184 O 0.66736 0.70828 0.90877 0.0
Zn185 Zn 0.67026 0.69464 0.01037 0.0
O186 O 0.6628 0.71274 0.09865 0.0
C187 C 0.71068 0.70459 0.01316 0.0
O188 O 0.70109 0.72211 0.01254 0.0
O189 O 0.65285 0.66962 0.01971 0.0
C190 C 0.66032 0.73189 0.10042 0.0
O191 O 0.66306 0.74264 0.03856 0.0
C192 C 0.65362 0.71945 0.88014 0.0
O193 O 0.6371 0.72339 0.91931 0.0
O194 O 0.70019 0.68838 0.01623 0.0
C195 C 0.07418 0.86946 0.86254 0.0
O196 O 0.0549 0.86417 0.862 0.0
O197 O 0.03935 0.90269 0.74884 0.0
Zn198 Zn 0.05544 0.90754 0.8438 0.0
O199 O 0.03676 0.90322 0.93276 0.0
C200 C 0.07116 0.94376 0.77665 0.0
O201 O 0.07249 0.9316 0.71786 0.0
O202 O 0.0787 0.88807 0.85324 0.0
C203 C 0.03083 0.91767 0.97496 0.0
O204 O 0.03726 0.9362 0.96085 0.0
C205 C 0.02371 0.91387 0.74085 0.0
O206 O 0.01916 0.92682 0.79483 0.0
O207 O 0.06516 0.9365 0.83949 0.0
C208 C 0.62872 0.82011 0.53138 0.0
O209 O 0.62278 0.80116 0.523 0.0
O210 O 0.66099 0.78768 0.40371 0.0
Zn211 Zn 0.66568 0.80034 0.50623 0.0
O212 O 0.65951 0.78054 0.59004 0.0
C213 C 0.70434 0.81509 0.45462 0.0
O214 O 0.69409 0.81738 0.39126 0.0
O215 O 0.64744 0.82427 0.52282 0.0
C216 C 0.67081 0.76543 0.60525 0.0
O217 O 0.68706 0.76224 0.56361 0.0
C218 C 0.65168 0.77095 0.39391 0.0
O219 O 0.64364 0.76175 0.45273 0.0
O220 O 0.6951 0.80851 0.51288 0.0
C221 C 0.42086 0.37153 0.79928 0.0
O222 O 0.43962 0.36541 0.78733 0.0
O223 O 0.4536 0.40329 0.67798 0.0
Zn224 Zn 0.44165 0.408 0.78148 0.0
O225 O 0.46158 0.40073 0.86376 0.0
C226 C 0.42922 0.4471 0.72907 0.0
O227 O 0.42617 0.43664 0.66677 0.0
O228 O 0.41713 0.39046 0.79724 0.0
C229 C 0.47575 0.41259 0.88465 0.0
O230 O 0.47784 0.43019 0.85025 0.0
C231 C 0.47139 0.39646 0.66632 0.0
O232 O 0.48253 0.39082 0.72443 0.0
O233 O 0.43488 0.43775 0.78848 0.0
C234 C 0.87349 0.17613 0.01504 0.0
O235 O 0.88027 0.19487 0.0098 0.0
O236 O 0.839 0.20993 0.89067 0.0
Zn237 Zn 0.83678 0.19739 0.99435 0.0
O238 O 0.84463 0.21701 0.07666 0.0
C239 C 0.79692 0.18261 0.95585 0.0
O240 O 0.80601 0.17777 0.89213 0.0
O241 O 0.85458 0.17288 0.00632 0.0
C242 C 0.83364 0.23213 0.09448 0.0
O243 O 0.81708 0.23578 0.05501 0.0
C244 C 0.84908 0.22589 0.87546 0.0
O245 O 0.85994 0.23445 0.92914 0.0
O246 O 0.80742 0.19028 0.00914 0.0
C247 C 0.06868 0.61551 0.37506 0.0
O248 O 0.04913 0.61969 0.37564 0.0
O249 O 0.03845 0.5875 0.22655 0.0
Zn250 Zn 0.05264 0.5784 0.32175 0.0
O251 O 0.03181 0.57668 0.40417 0.0
C252 C 0.06729 0.54355 0.23955 0.0
O253 O 0.06533 0.55582 0.18132 0.0
O254 O 0.07439 0.59814 0.35187 0.0
C255 C 0.03595 0.5786 0.47397 0.0
O256 O 0.05498 0.58118 0.49472 0.0
C257 C 0.02031 0.59422 0.2279 0.0
O258 O 0.0112 0.59675 0.29335 0.0
O259 O 0.06374 0.55033 0.30562 0.0
C260 C 0.62924 0.17331 0.92192 0.0
O261 O 0.62488 0.19262 0.93171 0.0
O262 O 0.66244 0.20425 0.03839 0.0
Zn263 Zn 0.66696 0.19136 0.93601 0.0
O264 O 0.66041 0.21057 0.85055 0.0
C265 C 0.70914 0.19148 0.97226 0.0
O266 O 0.7026 0.20564 0.0186 0.0
O267 O 0.64779 0.1679 0.92319 0.0
C268 C 0.67048 0.22626 0.83194 0.0
O269 O 0.68661 0.23127 0.87176 0.0
C270 C 0.65349 0.22108 0.04994 0.0
O271 O 0.64526 0.23073 0.99247 0.0
O272 O 0.69642 0.18263 0.92906 0.0
C273 C 0.06218 0.38111 0.18325 0.0
O274 O 0.04281 0.37614 0.18133 0.0
O275 O 0.02492 0.41953 0.26143 0.0
Zn276 Zn 0.04424 0.41977 0.17369 0.0
O277 O 0.02901 0.41204 0.07961 0.0
C278 C 0.06547 0.45591 0.21572 0.0
O279 O 0.07018 0.44466 0.27467 0.0
O280 O 0.06694 0.3998 0.18504 0.0
C281 C 0.01136 0.40415 0.08116 0.0
O282 O 0.00207 0.40164 0.14632 0.0
C283 C 0.02907 0.4146 0.32918 0.0
O284 O 0.04759 0.40858 0.34601 0.0
O285 O 0.05492 0.44812 0.16291 0.0
C286 C 0.86843 0.82194 0.39785 0.0
O287 O 0.87437 0.80298 0.40575 0.0
O288 O 0.83372 0.78377 0.47681 0.0
Zn289 Zn 0.83031 0.80206 0.38674 0.0
O290 O 0.83623 0.78549 0.2939 0.0
C291 C 0.79273 0.8159 0.44781 0.0
O292 O 0.80391 0.81623 0.50948 0.0
O293 O 0.84955 0.82565 0.39118 0.0
C294 C 0.84496 0.7926 0.2354 0.0
O295 O 0.85005 0.8119 0.23386 0.0
C296 C 0.82199 0.76842 0.47928 0.0
O297 O 0.80914 0.76554 0.42328 0.0
O298 O 0.80113 0.81123 0.38536 0.0
C299 C 0.43382 0.61106 0.68662 0.0
O300 O 0.4528 0.61712 0.68016 0.0
O301 O 0.47312 0.57424 0.77002 0.0
Zn302 Zn 0.45373 0.57298 0.68228 0.0
O303 O 0.46883 0.58076 0.58752 0.0
C304 C 0.4373 0.53503 0.73196 0.0
O305 O 0.43667 0.54487 0.79664 0.0
O306 O 0.43022 0.59216 0.69263 0.0
C307 C 0.48672 0.58815 0.58889 0.0
O308 O 0.49619 0.59017 0.65395 0.0
C309 C 0.46975 0.58149 0.83539 0.0
O310 O 0.4518 0.58929 0.8505 0.0
O311 O 0.44372 0.54424 0.67339 0.0
C312 C 0.35718 0.17941 0.43683 0.0
O313 O 0.3614 0.19893 0.43534 0.0
O314 O 0.3223 0.2144 0.54454 0.0
Zn315 Zn 0.3181 0.19586 0.45566 0.0
O316 O 0.32054 0.21135 0.35815 0.0
C317 C 0.28296 0.1784 0.52644 0.0
O318 O 0.29459 0.17968 0.58683 0.0
O319 O 0.33904 0.1739 0.45044 0.0
C320 C 0.3295 0.22836 0.35089 0.0
O321 O 0.33679 0.23762 0.41095 0.0
C322 C 0.30922 0.22838 0.55399 0.0
O323 O 0.29434 0.23017 0.50465 0.0
O324 O 0.29007 0.18396 0.46284 0.0
C325 C 0.57517 0.61375 0.13707 0.0
O326 O 0.55597 0.61933 0.13951 0.0
O327 O 0.54589 0.59059 0.30004 0.0
Zn328 Zn 0.55612 0.57997 0.20011 0.0
O329 O 0.53336 0.58182 0.12439 0.0
C330 C 0.5465 0.54156 0.24543 0.0
O331 O 0.52989 0.55236 0.25506 0.0
O332 O 0.57992 0.59629 0.16233 0.0
C333 C 0.53556 0.57629 0.05615 0.0
O334 O 0.55326 0.56906 0.03442 0.0
C335 C 0.52893 0.59979 0.3046 0.0
O336 O 0.51963 0.60524 0.24201 0.0
O337 O 0.56203 0.55027 0.2172 0.0
C338 C 0.13808 0.81185 0.94205 0.0
O339 O 0.13463 0.79224 0.94755 0.0
O340 O 0.17053 0.78283 0.07464 0.0
Zn341 Zn 0.17719 0.79724 0.97705 0.0
O342 O 0.17706 0.77635 0.89457 0.0
C343 C 0.21349 0.81289 0.04779 0.0
O344 O 0.20255 0.81075 0.10953 0.0
O345 O 0.15601 0.81836 0.95413 0.0
C346 C 0.1719 0.77982 0.82654 0.0
O347 O 0.16729 0.79847 0.80624 0.0
C348 C 0.16419 0.76456 0.07486 0.0
O349 O 0.16079 0.75535 0.01017 0.0
O350 O 0.20541 0.8089 0.98409 0.0
C351 C 0.92517 0.38507 0.62291 0.0
O352 O 0.9444 0.37967 0.62572 0.0
O353 O 0.95302 0.40515 0.79218 0.0
Zn354 Zn 0.94346 0.41784 0.69499 0.0
O355 O 0.96662 0.41744 0.62099 0.0
C356 C 0.95236 0.45509 0.75437 0.0
O357 O 0.96897 0.44423 0.76331 0.0
O358 O 0.92006 0.40207 0.65136 0.0
C359 C 0.96408 0.42197 0.55186 0.0
O360 O 0.9459 0.4276 0.52885 0.0
C361 C 0.96964 0.39533 0.79542 0.0
O362 O 0.97904 0.39071 0.73217 0.0
O363 O 0.9373 0.44704 0.72041 0.0
C364 C 0.37555 0.81793 0.15673 0.0
O365 O 0.38108 0.79877 0.16088 0.0
O366 O 0.34343 0.78511 0.02464 0.0
Zn367 Zn 0.33863 0.79825 0.12622 0.0
O368 O 0.34417 0.77865 0.21136 0.0
C369 C 0.30155 0.8148 0.06952 0.0
O370 O 0.31332 0.81823 0.01083 0.0
O371 O 0.35721 0.82204 0.14001 0.0
C372 C 0.33076 0.76628 0.23486 0.0
O373 O 0.31284 0.76612 0.20181 0.0
C374 C 0.34695 0.76626 0.01651 0.0
O375 O 0.34884 0.75479 0.07703 0.0
O376 O 0.30934 0.807 0.1287 0.0
C377 C 0.93055 0.61956 0.80381 0.0
O378 O 0.94989 0.62396 0.79451 0.0
O379 O 0.96999 0.58572 0.75271 0.0
Zn380 Zn 0.94854 0.58164 0.8317 0.0
O381 O 0.9612 0.58656 0.93377 0.0
C382 C 0.95432 0.54025 0.83982 0.0
O383 O 0.97182 0.54788 0.86187 0.0
O384 O 0.92561 0.60131 0.81843 0.0
C385 C 0.97793 0.59611 0.9402 0.0
O386 O 0.98699 0.6031 0.87926 0.0
C387 C 0.96859 0.57774 0.68758 0.0
O388 O 0.95193 0.56781 0.66945 0.0
O389 O 0.93991 0.55241 0.8239 0.0
C390 C 0.12075 0.17004 0.61545 0.0
O391 O 0.11553 0.18923 0.62228 0.0
O392 O 0.1583 0.20409 0.50784 0.0
Zn393 Zn 0.15901 0.18905 0.6068 0.0
O394 O 0.15198 0.207 0.69507 0.0
C395 C 0.1955 0.1714 0.55715 0.0
O396 O 0.18352 0.16768 0.49919 0.0
O397 O 0.13943 0.16572 0.60611 0.0
C398 C 0.15903 0.22474 0.70539 0.0
O399 O 0.17181 0.23232 0.65559 0.0
C400 C 0.14718 0.21886 0.48734 0.0
O401 O 0.13321 0.22579 0.53386 0.0
O402 O 0.18784 0.17943 0.61606 0.0
C403 C 0.56567 0.37569 0.31734 0.0
O404 O 0.54623 0.37197 0.3275 0.0
O405 O 0.53312 0.41104 0.18429 0.0
Zn406 Zn 0.54793 0.41332 0.28397 0.0
O407 O 0.52941 0.40841 0.37331 0.0
C408 C 0.54215 0.4545 0.29355 0.0
O409 O 0.52374 0.44675 0.29574 0.0
O410 O 0.57097 0.39326 0.29443 0.0
C411 C 0.51027 0.40566 0.37252 0.0
O412 O 0.5004 0.40633 0.30788 0.0
C413 C 0.5242 0.39594 0.15419 0.0
O414 O 0.52423 0.37834 0.18933 0.0
O415 O 0.55724 0.44247 0.28881 0.0
C416 C 0.25126 0.31922 0.98805 0.0
C417 C 0.26316 0.31282 0.04991 0.0
C418 C 0.22999 0.32003 0.99276 0.0
C419 C 0.2197 0.31438 0.05944 0.0
H420 H 0.25835 0.32312 0.9346 0.0
H421 H 0.22157 0.32447 0.94267 0.0
S422 S 0.2438 0.29819 0.24008 0.0
N423 N 0.26307 0.30204 0.18195 0.0
N424 N 0.22316 0.30354 0.19067 0.0
C425 C 0.23144 0.30887 0.12296 0.0
C426 C 0.25313 0.30809 0.11825 0.0
C427 C 0.9266 0.99032 0.2742 0.0
C428 C 0.93066 0.98664 0.35136 0.0
C429 C 0.92556 0.01012 0.24543 0.0
C430 C 0.92833 0.0271 0.29266 0.0
H431 H 0.92513 0.97783 0.23464 0.0
H432 H 0.9233 0.01209 0.18508 0.0
S433 S 0.93679 0.02591 0.50071 0.0
N434 N 0.93554 0.00176 0.47587 0.0
N435 N 0.93346 0.03899 0.42188 0.0
C436 C 0.93098 0.02372 0.37086 0.0
C437 C 0.93218 0.00349 0.40017 0.0
C438 C 0.24128 0.7154 0.53646 0.0
C439 C 0.23022 0.69727 0.52743 0.0
C440 C 0.26097 0.71538 0.56587 0.0
C441 C 0.27069 0.6972 0.58728 0.0
H442 H 0.23469 0.72993 0.52111 0.0
H443 H 0.26869 0.72987 0.57089 0.0
S444 S 0.24852 0.6454 0.57514 0.0
N445 N 0.23041 0.66047 0.54255 0.0
N446 N 0.26776 0.66043 0.59742 0.0
C447 C 0.25991 0.67885 0.57857 0.0
C448 C 0.23963 0.67889 0.54879 0.0
C449 C 0.52286 0.00434 0.79191 0.0
C450 C 0.54054 0.01634 0.78877 0.0
C451 C 0.52351 0.98348 0.77777 0.0
C452 C 0.54186 0.97363 0.75951 0.0
H453 H 0.50823 0.0111 0.80471 0.0
H454 H 0.50933 0.97512 0.78038 0.0
S455 S 0.59272 -0.00204 0.74648 0.0
N456 N 0.57716 0.01679 0.76816 0.0
N457 N 0.57839 0.97738 0.74128 0.0
C458 C 0.55981 0.98532 0.75759 0.0
C459 C 0.55915 0.0067 0.7724 0.0
C460 C 0.74388 0.72256 0.01252 0.0
C461 C 0.73302 0.70434 0.0026 0.0
C462 C 0.7645 0.72395 0.99437 0.0
C463 C 0.77522 0.70718 0.96533 0.0
H464 H 0.73632 0.73611 0.0331 0.0
H465 H 0.77194 0.73849 0.00208 0.0
S466 S 0.75417 0.65552 0.9328 0.0
N467 N 0.7347 0.66879 0.96519 0.0
N468 N 0.77367 0.67137 0.93093 0.0
C469 C 0.76479 0.68858 0.95772 0.0
C470 C 0.74366 0.68716 0.97646 0.0
C471 C 0.07269 0.97437 0.69304 0.0
C472 C 0.07309 0.96606 0.76649 0.0
C473 C 0.07128 0.99539 0.68151 0.0
C474 C 0.07038 0.00899 0.74291 0.0
H475 H 0.07253 0.96457 0.64379 0.0
H476 H 0.07021 0.00094 0.62386 0.0
S477 S 0.07358 0.99512 0.94664 0.0
N478 N 0.07441 0.97316 0.90157 0.0
N479 N 0.07191 0.01267 0.88009 0.0
C480 C 0.07208 0.00097 0.81668 0.0
C481 C 0.07337 0.97951 0.82839 0.0
C482 C 0.7382 0.31842 0.53312 0.0
C483 C 0.7258 0.31917 0.46822 0.0
C484 C 0.75945 0.31887 0.52737 0.0
C485 C 0.76916 0.3203 0.45656 0.0
H486 H 0.73153 0.31662 0.58881 0.0
H487 H 0.76831 0.31755 0.5789 0.0
S488 S 0.74351 0.32504 0.26981 0.0
N489 N 0.7247 0.32309 0.33127 0.0
N490 N 0.76462 0.3241 0.32038 0.0
C491 C 0.75691 0.32221 0.39145 0.0
C492 C 0.73524 0.32159 0.39729 0.0
C493 C 0.42422 0.99355 0.18607 0.0
C494 C 0.42576 0.98228 0.25362 0.0
C495 C 0.4231 0.01481 0.18704 0.0
C496 C 0.42368 0.02569 0.25558 0.0
H497 H 0.42451 0.98595 0.13166 0.0
H498 H 0.42268 0.02276 0.13332 0.0
S499 S 0.42519 0.00344 0.44873 0.0
N500 N 0.42592 0.98362 0.39151 0.0
N501 N 0.42399 0.02357 0.3931 0.0
C502 C 0.4241 0.01461 0.32373 0.0
C503 C 0.42507 0.99292 0.32283 0.0
C504 C 0.73745 0.81906 0.38658 0.0
C505 C 0.72676 0.81776 0.45543 0.0
C506 C 0.75877 0.81921 0.3849 0.0
C507 C 0.77029 0.81824 0.45203 0.0
H508 H 0.72936 0.81923 0.33312 0.0
H509 H 0.76624 0.81957 0.33025 0.0
S510 S 0.74961 0.81677 0.6478 0.0
N511 N 0.72927 0.81701 0.59289 0.0
N512 N 0.7693 0.81742 0.5899 0.0
C513 C 0.75978 0.81798 0.52156 0.0
C514 C 0.73804 0.81768 0.52321 0.0
C515 C 0.43018 0.48051 0.79657 0.0
C516 C 0.42871 0.46966 0.72811 0.0
C517 C 0.4321 0.50171 0.79723 0.0
C518 C 0.43284 0.51294 0.72943 0.0
H519 H 0.43036 0.47254 0.85027 0.0
H520 H 0.43376 0.50924 0.85143 0.0
S521 S 0.42784 0.49209 0.53493 0.0
N522 N 0.42672 0.47196 0.59061 0.0
N523 N 0.43048 0.51179 0.59199 0.0
C524 C 0.43053 0.50241 0.66062 0.0
C525 C 0.42841 0.48079 0.65992 0.0
C526 C 0.74388 0.19402 0.02766 0.0
C527 C 0.73118 0.18684 0.96935 0.0
C528 C 0.76499 0.1917 0.02425 0.0
C529 C 0.7744 0.18222 0.96201 0.0
H530 H 0.73753 0.20191 0.07602 0.0
H531 H 0.77401 0.19805 0.06985 0.0
S532 S 0.7479 0.15912 0.79728 0.0
N533 N 0.7294 0.16857 0.84977 0.0
N534 N 0.76921 0.16426 0.84297 0.0
C535 C 0.76184 0.17414 0.90472 0.0
C536 C 0.74022 0.17642 0.90848 0.0
C537 C 0.07405 0.48774 0.28572 0.0
C538 C 0.06932 0.4781 0.21683 0.0
C539 C 0.07442 0.50896 0.29151 0.0
C540 C 0.07027 0.52141 0.2285 0.0
H541 H 0.0765 0.4789 0.33667 0.0
H542 H 0.07725 0.51563 0.34662 0.0
S543 S 0.05991 0.50365 0.03254 0.0
N544 N 0.06251 0.48257 0.08237 0.0
N545 N 0.06334 0.52247 0.09304 0.0
C546 C 0.06697 0.51197 0.15798 0.0
C547 C 0.06643 0.49032 0.15224 0.0
C548 C 0.25162 0.1748 0.60538 0.0
C549 C 0.26107 0.17344 0.53408 0.0
C550 C 0.23047 0.17311 0.61283 0.0
C551 C 0.21792 0.16978 0.54939 0.0
H552 H 0.2605 0.17814 0.65558 0.0
H553 H 0.22387 0.17513 0.66852 0.0
S554 S 0.23545 0.16243 0.3512 0.0
N555 N 0.2565 0.16667 0.39973 0.0
N556 N 0.21679 0.1633 0.4136 0.0
C557 C 0.22731 0.16708 0.47837 0.0
C558 C 0.24886 0.16898 0.47074 0.0
C559 C 0.56102 0.48555 0.25027 0.0
C560 C 0.54468 0.4768 0.29007 0.0
C561 C 0.56192 0.50664 0.23778 0.0
C562 C 0.54653 0.51963 0.26495 0.0
H563 H 0.57273 0.47599 0.22585 0.0
H564 H 0.57437 0.51267 0.20451 0.0
S565 S 0.50222 0.50438 0.38279 0.0
N566 N 0.51401 0.48285 0.36349 0.0
N567 N 0.5157 0.52231 0.34091 0.0
C568 C 0.53077 0.5111 0.30865 0.0
C569 C 0.52984 0.48972 0.32098 0.0
C570 C 0.26693 0.8142 0.12835 0.0
C571 C 0.27914 0.81738 0.06396 0.0
C572 C 0.24567 0.81388 0.1232 0.0
C573 C 0.23571 0.81656 0.0533 0.0
H574 H 0.27383 0.81128 0.18303 0.0
H575 H 0.23705 0.81061 0.17403 0.0
S576 S 0.26048 0.82784 0.86908 0.0
N577 N 0.27957 0.82515 0.92906 0.0
N578 N 0.23961 0.82441 0.91945 0.0
C579 C 0.24766 0.82088 0.98917 0.0
C580 C 0.26935 0.82134 0.99447 0.0
C581 C 0.93717 0.49011 0.75419 0.0
C582 C 0.95173 0.47633 0.78216 0.0
C583 C 0.93753 0.51067 0.77546 0.0
C584 C 0.95246 0.51815 0.82547 0.0
H585 H 0.92581 0.48515 0.71372 0.0
H586 H 0.9265 0.52089 0.75035 0.0
S587 S 0.99219 0.48771 0.92308 0.0
N588 N 0.98018 0.47124 0.86859 0.0
N589 N 0.98085 0.50974 0.90821 0.0
C590 C 0.96643 0.5043 0.85678 0.0
C591 C 0.96607 0.48343 0.83522 0.0
C592 C 0.16116 0.26444 0.86127 0.0
C593 C 0.14711 0.25717 0.91515 0.0
C594 C 0.1645 0.25416 0.79294 0.0
C595 C 0.15395 0.23616 0.77544 0.0
H596 H 0.17009 0.27795 0.87254 0.0
H597 H 0.17584 0.26017 0.75445 0.0
S598 S 0.11397 0.2118 0.89354 0.0
N599 N 0.12147 0.2316 0.94368 0.0
N600 N 0.12769 0.2123 0.81532 0.0
C601 C 0.13924 0.22914 0.82738 0.0
C602 C 0.13584 0.23963 0.89712 0.0
C603 C 0.00943 0.93032 0.08172 0.0
C604 C 0.01637 0.91387 0.03796 0.0
C605 C 0.99549 0.92748 0.14056 0.0
C606 C 0.98779 0.90807 0.15836 0.0
H607 H 0.01469 0.94562 0.07037 0.0
H608 H 0.99062 0.94077 0.17192 0.0
S609 S 0.00151 0.85974 0.06258 0.0
N610 N 0.0148 0.87727 0.01754 0.0
N611 N 0.98852 0.87198 0.12829 0.0
C612 C 0.99471 0.8914 0.11559 0.0
C613 C 0.009 0.89429 0.05547 0.0
C614 C 0.35994 0.73942 0.39187 0.0
C615 C 0.345 0.7273 0.42658 0.0
C616 C 0.35523 0.75179 0.32958 0.0
C617 C 0.33539 0.75248 0.29918 0.0
H618 H 0.37536 0.73966 0.41365 0.0
H619 H 0.36725 0.76101 0.30551 0.0
S620 S 0.29082 0.72292 0.36719 0.0
N621 N 0.30958 0.71623 0.42408 0.0
N622 N 0.3008 0.73943 0.30748 0.0
C623 C 0.32038 0.74011 0.33236 0.0
C624 C 0.32515 0.72755 0.39588 0.0
C625 C 0.51346 0.07755 0.56252 0.0
C626 C 0.51047 0.09538 0.60536 0.0
C627 C 0.50247 0.07389 0.49599 0.0
C628 C 0.48797 0.08787 0.46928 0.0
H629 H 0.52409 0.066 0.5812 0.0
H630 H 0.50507 0.05971 0.4664 0.0
S631 S 0.4755 0.13777 0.55655 0.0
N632 N 0.49276 0.1278 0.61346 0.0
N633 N 0.47211 0.12096 0.48832 0.0
C634 C 0.48533 0.10615 0.50987 0.0
C635 C 0.49656 0.10989 0.57783 0.0
C636 C 0.17351 0.74263 0.79848 0.0
C637 C 0.17023 0.76263 0.77262 0.0
C638 C 0.17213 0.72599 0.74945 0.0
C639 C 0.16734 0.72861 0.67251 0.0
H640 H 0.17728 0.7397 0.8572 0.0
H641 H 0.17502 0.71095 0.77212 0.0
S642 S 0.15734 0.77784 0.57584 0.0
N643 N 0.1619 0.7841 0.66471 0.0
N644 N 0.15927 0.75285 0.57251 0.0
C645 C 0.16376 0.74851 0.64589 0.0
C646 C 0.16524 0.7655 0.6959 0.0
C647 C 0.51062 0.90249 0.01707 0.0
C648 C 0.48932 0.90418 0.02061 0.0
C649 C 0.52051 0.89878 0.94829 0.0
C650 C 0.50947 0.89636 0.88056 0.0
H651 H 0.51981 0.90473 0.06732 0.0
H652 H 0.53699 0.89838 0.948 0.0
S653 S 0.45314 0.897 0.86143 0.0
N654 N 0.45733 0.90148 0.95206 0.0
N655 N 0.47584 0.8943 0.82275 0.0
C656 C 0.48805 0.8969 0.88415 0.0
C657 C 0.478 0.90092 0.95414 0.0
C658 C 0.33368 0.26797 0.19587 0.0
C659 C 0.33275 0.25624 0.12921 0.0
C660 C 0.33319 0.25881 0.2675 0.0
C661 C 0.33162 0.2376 0.27509 0.0
H662 H 0.33409 0.28442 0.19298 0.0
H663 H 0.33333 0.26847 0.31718 0.0
S664 S 0.3319 0.19985 0.119 0.0
N665 N 0.33253 0.22211 0.07587 0.0
N666 N 0.33142 0.20496 0.21047 0.0
C667 C 0.33176 0.22563 0.20916 0.0
C668 C 0.3324 0.23493 0.13624 0.0
C669 C 0.03132 0.07244 0.35915 0.0
C670 C 0.02355 0.07393 0.43311 0.0
C671 C 0.01848 0.07374 0.296 0.0
C672 C 0.99744 0.07699 0.30435 0.0
H673 H 0.04738 0.06966 0.34985 0.0
H674 H 0.02506 0.07192 0.24017 0.0
S675 S 0.96957 0.08304 0.48568 0.0
N676 N 0.9935 0.07958 0.51105 0.0
N677 N 0.96946 0.08231 0.39225 0.0
C678 C 0.98954 0.07923 0.37785 0.0
C679 C 0.00257 0.0776 0.44225 0.0
C680 C 0.84571 0.7455 0.11179 0.0
C681 C 0.85284 0.75276 0.04167 0.0
C682 C 0.84366 0.75842 0.17415 0.0
C683 C 0.84872 0.77917 0.16937 0.0
H684 H 0.84099 0.72982 0.11828 0.0
H685 H 0.83763 0.75208 0.22613 0.0
S686 S 0.87014 0.8054 0.00093 0.0
N687 N 0.86647 0.78176 0.97266 0.0
N688 N 0.86267 0.80609 0.09012 0.0
C689 C 0.85679 0.78648 0.10065 0.0
C690 C 0.85884 0.77327 0.03683 0.0
C691 C 0.98857 0.0718 0.93203 0.0
C692 C 0.97283 0.05752 0.9422 0.0
C693 C 0.00165 0.0708 0.86973 0.0
C694 C -0.00039 0.05548 0.81476 0.0
H695 H 0.99093 0.0839 0.97268 0.0
H696 H 0.01353 0.08216 0.86502 0.0
S697 S 0.96078 0.01438 0.81415 0.0
N698 N 0.95585 0.02759 0.89144 0.0
N699 N 0.98046 0.02569 0.7742 0.0
C700 C 0.98386 0.04113 0.82377 0.0
C701 C 0.97049 0.04216 0.88745 0.0
C702 C 0.67283 0.26472 0.67147 0.0
C703 C 0.6561 0.25944 0.6255 0.0
C704 C 0.67707 0.25422 0.73873 0.0
C705 C 0.66474 0.23801 0.76317 0.0
H706 H 0.68309 0.2768 0.65467 0.0
H707 H 0.69037 0.25866 0.77096 0.0
S708 S 0.61802 0.21923 0.66695 0.0
N709 N 0.62641 0.23767 0.61172 0.0
N710 N 0.63427 0.21798 0.73811 0.0
C711 C 0.64754 0.233 0.71912 0.0
C712 C 0.64326 0.24368 0.65038 0.0
C713 C 0.48121 0.90822 0.46727 0.0
C714 C 0.48343 0.91673 0.39472 0.0
C715 C 0.49702 0.90904 0.52035 0.0
C716 C 0.51574 0.91841 0.50311 0.0
H717 H 0.46712 0.90087 0.48358 0.0
H718 H 0.49445 0.90229 0.57546 0.0
S719 S 0.52951 0.94286 0.32061 0.0
N720 N 0.50599 0.93475 0.30806 0.0
N721 N 0.53565 0.93626 0.40783 0.0
C722 C 0.51823 0.92693 0.43067 0.0
C723 C 0.50212 0.9261 0.37648 0.0
C724 C 0.82524 0.26015 0.18499 0.0
C725 C 0.83831 0.24425 0.16335 0.0
C726 C 0.82811 0.27067 0.2531 0.0
C727 C 0.84413 0.2657 0.3028 0.0
H728 H 0.81235 0.26427 0.14994 0.0
H729 H 0.81727 0.28244 0.26767 0.0
S730 S 0.88384 0.22654 0.26971 0.0
N731 N 0.86883 0.22497 0.19496 0.0
N732 N 0.87412 0.2447 0.32306 0.0
C733 C 0.85781 0.25036 0.28063 0.0
C734 C 0.85494 0.23967 0.21096 0.0
C735 C 0.4686 0.08899 0.05012 0.0
C736 C 0.47896 0.09868 0.11004 0.0
C737 C 0.47795 0.08585 0.97974 0.0
C738 C 0.49809 0.09209 0.9667 0.0
H739 H 0.45327 0.08333 0.05795 0.0
H740 H 0.46953 0.07788 0.93613 0.0
S741 S 0.53122 0.12018 0.1012 0.0
N742 N 0.51002 0.11602 0.14891 0.0
N743 N 0.52757 0.10994 0.01698 0.0
C744 C 0.50837 0.10252 0.02485 0.0
C745 C 0.49881 0.10588 0.09634 0.0
C746 C 0.64427 0.74509 0.78097 0.0
C747 C 0.65743 0.72966 0.80635 0.0
C748 C 0.64852 0.75621 0.71511 0.0
C749 C 0.66609 0.75236 0.67165 0.0
H750 H 0.6308 0.74901 0.81313 0.0
H751 H 0.63807 0.7682 0.69905 0.0
S752 S 0.70476 0.71248 0.71025 0.0
N753 N 0.68826 0.71029 0.78015 0.0
N754 N 0.69619 0.73119 0.65673 0.0
C755 C 0.67902 0.73649 0.69487 0.0
C756 C 0.67472 0.72516 0.76204 0.0
C757 C 0.00919 0.90393 0.53614 0.0
C758 C 0.99044 0.91408 0.52839 0.0
C759 C 0.01961 0.90358 0.60535 0.0
C760 C 0.01176 0.91345 0.66966 0.0
H761 H 0.01604 0.89627 0.48823 0.0
H762 H 0.03413 0.8958 0.60792 0.0
S763 S 0.96271 0.94137 0.68092 0.0
N764 N 0.96407 0.93365 0.59217 0.0
N765 N 0.98366 0.93303 0.72205 0.0
C766 C 0.99285 0.92337 0.66321 0.0
C767 C 0.98219 0.92368 0.59271 0.0
C768 C 0.65944 0.77187 0.2551 0.0
C769 C 0.65173 0.76119 0.31807 0.0
C770 C 0.66147 0.76252 0.1842 0.0
C771 C 0.65607 0.74204 0.17359 0.0
H772 H 0.66438 0.78751 0.26078 0.0
H773 H 0.66797 0.77123 0.13812 0.0
S774 S 0.63334 0.70776 0.31771 0.0
N775 N 0.6373 0.72931 0.36329 0.0
N776 N 0.64126 0.71174 0.23028 0.0
C777 C 0.64761 0.73138 0.23512 0.0
C778 C 0.64538 0.74094 0.30723 0.0
C779 C 0.50125 0.39347 0.5796 0.0
C780 C 0.48033 0.39715 0.58918 0.0
C781 C 0.51063 0.39595 0.50909 0.0
C782 C 0.49947 0.40204 0.44491 0.0
H783 H 0.51067 0.38914 0.62732 0.0
H784 H 0.52686 0.39324 0.50519 0.0
S785 S 0.44401 0.41253 0.43817 0.0
N786 N 0.44849 0.40641 0.5273 0.0
N787 N 0.46618 0.41095 0.39466 0.0
C788 C 0.47841 0.40511 0.45285 0.0
C789 C 0.46883 0.40271 0.52496 0.0
C790 C 0.82698 0.23916 0.68284 0.0
C791 C 0.83773 0.25678 0.66195 0.0
C792 C 0.83125 0.22893 0.75061 0.0
C793 C 0.84646 0.23589 0.8006 0.0
H794 H 0.81476 0.23344 0.64758 0.0
H795 H 0.8221 0.21577 0.76475 0.0
S796 S 0.88055 0.2801 0.76883 0.0
N797 N 0.86543 0.27986 0.6942 0.0
N798 N 0.87337 0.26066 0.82157 0.0
C799 C 0.85793 0.25299 0.77899 0.0
C800 C 0.85361 0.26342 0.70977 0.0
C801 C 0.01971 0.59848 0.08745 0.0
C802 C 0.00899 0.59689 0.15615 0.0
C803 C 0.00946 0.599 0.01796 0.0
C804 C 0.98813 0.5976 0.0145 0.0
H805 H 0.03619 0.59897 0.08717 0.0
H806 H 0.0184 0.59977 0.96651 0.0
S807 S 0.95281 0.59459 0.17786 0.0
N808 N 0.9757 0.5951 0.21641 0.0
N809 N 0.95651 0.59576 0.08551 0.0
C810 C 0.97716 0.59664 0.08268 0.0
C811 C 0.98757 0.59641 0.15359 0.0
C812 C 0.67209 0.2335 0.24819 0.0
C813 C 0.66119 0.2512 0.26673 0.0
C814 C 0.66895 0.22347 0.17919 0.0
C815 C 0.6548 0.23076 0.12566 0.0
H816 H 0.68359 0.22759 0.28627 0.0
H817 H 0.6782 0.21026 0.16687 0.0
S818 S 0.62051 0.27511 0.15032 0.0
N819 N 0.63427 0.27457 0.22852 0.0
N820 N 0.62852 0.25577 0.09877 0.0
C821 C 0.64312 0.24791 0.14482 0.0
C822 C 0.64626 0.2581 0.2153 0.0
C823 C 0.97791 0.42506 0.42074 0.0
C824 C 0.98112 0.42014 0.49726 0.0
C825 C 0.99349 0.42314 0.36731 0.0
C826 C 0.01301 0.41621 0.38796 0.0
H827 H 0.9632 0.43041 0.4015 0.0
H828 H 0.9901 0.42715 0.30917 0.0
S829 S 0.02946 0.4013 0.58143 0.0
N830 N 0.00542 0.40803 0.59137 0.0
N831 N 0.0347 0.40441 0.49075 0.0
C832 C 0.0165 0.41125 0.46439 0.0
C833 C 0.00059 0.41322 0.51905 0.0
C834 C 0.83616 0.74564 0.66971 0.0
C835 C 0.82333 0.72856 0.67552 0.0
C836 C 0.8357 0.75828 0.60594 0.0
C837 C 0.82236 0.75444 0.54527 0.0
H838 H 0.84671 0.74935 0.71478 0.0
H839 H 0.84588 0.77124 0.60459 0.0
S840 S 0.78547 0.71173 0.5324 0.0
N841 N 0.79681 0.70849 0.61495 0.0
N842 N 0.79592 0.73224 0.49512 0.0
C843 C 0.80945 0.73738 0.55015 0.0
C844 C 0.80994 0.72446 0.61519 0.0
C845 C 0.52116 0.57165 0.92638 0.0
C846 C 0.51844 0.578 0.00165 0.0
C847 C 0.50536 0.57295 0.87348 0.0
C848 C 0.48609 0.58069 0.89341 0.0
H849 H 0.53563 0.56554 0.90778 0.0
H850 H 0.50836 0.56779 0.81635 0.0
S851 S 0.47097 0.59953 0.08343 0.0
N852 N 0.49491 0.59244 0.09369 0.0
N853 N 0.46521 0.59491 0.99408 0.0
C854 C 0.48313 0.5872 0.96847 0.0
C855 C 0.49927 0.58585 0.02261 0.0
C856 C 0.29779 0.25969 0.62171 0.0
C857 C 0.31048 0.24246 0.61933 0.0
C858 C 0.29838 0.27323 0.68283 0.0
C859 C 0.31156 0.27001 0.74446 0.0
H860 H 0.2873 0.26285 0.57586 0.0
H861 H 0.28827 0.28623 0.68184 0.0
S862 S 0.34802 0.22721 0.76609 0.0
N863 N 0.33674 0.22296 0.68407 0.0
N864 N 0.3378 0.24834 0.79911 0.0
C865 C 0.32437 0.25284 0.74293 0.0
C866 C 0.32386 0.23911 0.68035 0.0
C867 C 0.51853 0.59293 0.51395 0.0
C868 C 0.49717 0.59346 0.51754 0.0
C869 C 0.52876 0.59602 0.44535 0.0
C870 C 0.51803 0.60007 0.378 0.0
H871 H 0.52742 0.58927 0.56382 0.0
H872 H 0.54519 0.5946 0.44478 0.0
S873 S 0.46196 0.60558 0.35951 0.0
N874 N 0.46565 0.60005 0.44966 0.0
N875 N 0.48482 0.60614 0.32083 0.0
C876 C 0.49669 0.60186 0.38185 0.0
C877 C 0.48627 0.59843 0.45156 0.0
C878 C 0.15974 0.75428 0.28532 0.0
C879 C 0.16006 0.73293 0.28929 0.0
C880 C 0.16084 0.76436 0.21565 0.0
C881 C 0.16195 0.75347 0.14724 0.0
H882 H 0.15911 0.76332 0.33654 0.0
H883 H 0.16091 0.78083 0.21553 0.0
S884 S 0.16207 0.69725 0.12688 0.0
N885 N 0.16086 0.70116 0.2191 0.0
N886 N 0.16263 0.72005 0.08783 0.0
C887 C 0.16173 0.73207 0.15034 0.0
C888 C 0.16089 0.72182 0.22145 0.0
C889 C 0.96946 0.3973 0.93655 0.0
C890 C 0.98029 0.39374 0.86907 0.0
C891 C 0.97958 0.39973 0.00574 0.0
C892 C 0.00092 0.39899 0.00973 0.0
H893 H 0.95306 0.399 0.93559 0.0
H894 H 0.97066 0.40319 0.05568 0.0
S895 S 0.03628 0.38742 0.85186 0.0
N896 N 0.01351 0.38748 0.81238 0.0
N897 N 0.03248 0.39235 0.94239 0.0
C898 C 0.01188 0.39426 0.94375 0.0
C899 C 0.00157 0.3915 0.87342 0.0
C900 C 0.34763 0.73558 0.93319 0.0
C901 C 0.34686 0.75688 0.94005 0.0
C902 C 0.34592 0.72607 0.8626 0.0
C903 C 0.34352 0.73744 0.79565 0.0
H904 H 0.34915 0.72604 0.9829 0.0
H905 H 0.34636 0.70962 0.86076 0.0
S906 S 0.34141 0.79373 0.78171 0.0
N907 N 0.34414 0.78915 0.87307 0.0
N908 N 0.34103 0.77124 0.74032 0.0
C909 C 0.34326 0.75878 0.80122 0.0
C910 C 0.34489 0.7685 0.87335 0.0
C911 C 0.98321 0.57287 0.55845 0.0
C912 C 0.986 0.57853 0.63446 0.0
C913 C -0.00054 0.57294 0.5073 0.0
C914 C 0.01923 0.5785 0.53019 0.0
H915 H 0.96833 0.56838 0.53797 0.0
H916 H 0.99644 0.56849 0.44932 0.0
S917 S 0.03473 0.59446 0.72347 0.0
N918 N 0.01013 0.58981 0.73047 0.0
N919 N 0.04067 0.58987 0.63431 0.0
C920 C 0.02228 0.58417 0.60614 0.0
C921 C 0.00567 0.58423 0.65823 0.0
C922 C 0.1423 0.25551 0.32184 0.0
C923 C 0.15905 0.2505 0.27559 0.0
C924 C 0.13839 0.24499 0.38932 0.0
C925 C 0.15098 0.22895 0.41335 0.0
H926 H 0.13228 0.26792 0.30668 0.0
H927 H 0.1255 0.24969 0.4233 0.0
S928 S 0.19627 0.20907 0.31093 0.0
N929 N 0.1879 0.22785 0.25733 0.0
N930 N 0.18058 0.20806 0.38373 0.0
C931 C 0.1675 0.2234 0.36662 0.0
C932 C 0.17151 0.23418 0.29796 0.0
C933 C 0.51377 0.41788 0.04521 0.0
C934 C 0.51272 0.39896 0.0825 0.0
C935 C 0.50217 0.4219 0.98042 0.0
C936 C 0.48892 0.40723 0.95006 0.0
H937 H 0.52342 0.42991 0.06678 0.0
H938 H 0.50332 0.43685 0.95501 0.0
S939 S 0.48146 0.35472 0.02287 0.0
N940 N 0.49804 0.36498 0.08179 0.0
N941 N 0.47621 0.37254 0.95997 0.0
C942 C 0.48813 0.388 0.9853 0.0
C943 C 0.50003 0.38387 0.05139 0.0
C944 C 0.08638 0.32936 0.15563 0.0
C945 C 0.10714 0.33388 0.14581 0.0
C946 C 0.07212 0.34468 0.16963 0.0
C947 C 0.07799 0.36521 0.17463 0.0
H948 H 0.08096 0.31384 0.15171 0.0
H949 H 0.0563 0.34034 0.17555 0.0
S950 S 0.13069 0.38514 0.15702 0.0
N951 N 0.13302 0.36038 0.14476 0.0
N952 N 0.10621 0.38921 0.17127 0.0
C953 C 0.09878 0.36996 0.16659 0.0
C954 C 0.11334 0.35431 0.15202 0.0
C955 C 0.90416 0.83448 0.41037 0.0
C956 C 0.88369 0.83849 0.39243 0.0
C957 C 0.91908 0.84958 0.40408 0.0
C958 C 0.9142 0.8693 0.37904 0.0
H959 H 0.90877 0.81954 0.42965 0.0
H960 H 0.9346 0.84566 0.41879 0.0
S961 S 0.86279 0.8877 0.32428 0.0
N962 N 0.85927 0.8637 0.34824 0.0
N963 N 0.88732 0.89205 0.33613 0.0
C964 C 0.89377 0.87355 0.36068 0.0
C965 C 0.87853 0.85817 0.36754 0.0
C966 C 0.40614 0.66149 0.673 0.0
C967 C 0.3857 0.65581 0.66216 0.0
C968 C 0.42145 0.64691 0.68199 0.0
C969 C 0.41698 0.626 0.6811 0.0
H970 H 0.41048 0.67737 0.67386 0.0
H971 H 0.43696 0.65215 0.68933 0.0
S972 S 0.36574 0.60301 0.65678 0.0
N973 N 0.36169 0.62775 0.65251 0.0
N974 N 0.39047 0.6003 0.6698 0.0
C975 C 0.39654 0.62005 0.67141 0.0
C976 C 0.38093 0.63495 0.66172 0.0
C977 C 0.61763 0.13968 0.87128 0.0
C978 C 0.61288 0.15857 0.90419 0.0
C979 C 0.60227 0.12602 0.84998 0.0
C980 C 0.58158 0.1307 0.86101 0.0
H981 H 0.63332 0.13551 0.86062 0.0
H982 H 0.60669 0.11173 0.82429 0.0
S983 S 0.56115 0.17767 0.95002 0.0
N984 N 0.58605 0.18086 0.95011 0.0
N985 N 0.55725 0.1553 0.91043 0.0
C986 C 0.57666 0.14941 0.89528 0.0
C987 C 0.59229 0.1633 0.9168 0.0
C988 C 0.10465 0.6255 0.40283 0.0
C989 C 0.08383 0.63057 0.40202 0.0
C990 C 0.1194 0.63953 0.42613 0.0
C991 C 0.11396 0.65926 0.44923 0.0
H992 H 0.1097 0.61062 0.38452 0.0
H993 H 0.13523 0.63498 0.42414 0.0
S994 S 0.06144 0.6798 0.46286 0.0
N995 N 0.05846 0.65647 0.4303 0.0
N996 N 0.0862 0.68283 0.47386 0.0
C997 C 0.09317 0.66439 0.45073 0.0
C998 C 0.07812 0.65007 0.42719 0.0
C999 C 0.59338 0.83049 0.56512 0.0
C1000 C 0.61402 0.83574 0.55715 0.0
C1001 C 0.57921 0.8443 0.59398 0.0
C1002 C 0.58504 0.86399 0.61637 0.0
H1003 H 0.58805 0.81546 0.54971 0.0
H1004 H 0.56356 0.83934 0.59935 0.0
S1005 S 0.63712 0.8857 0.60457 0.0
N1006 N 0.63954 0.8623 0.5721 0.0
N1007 N 0.61284 0.8883 0.62651 0.0
C1008 C 0.60557 0.86963 0.60764 0.0
C1009 C 0.62006 0.85552 0.57792 0.0
C1010 C 0.386 0.36381 0.84873 0.0
C1011 C 0.40483 0.35679 0.82117 0.0
C1012 C 0.37106 0.35024 0.87431 0.0
C1013 C 0.3743 0.3291 0.87317 0.0
H1014 H 0.38284 0.37995 0.85186 0.0
H1015 H 0.35691 0.35645 0.89566 0.0
S1016 S 0.42061 0.3028 0.80243 0.0
N1017 N 0.42558 0.32721 0.79147 0.0
N1018 N 0.39758 0.30174 0.83936 0.0
C1019 C 0.39292 0.32184 0.84427 0.0
C1020 C 0.40814 0.33567 0.81833 0.0
C1021 C 0.9087 0.16301 0.03573 0.0
C1022 C 0.88759 0.15945 0.03598 0.0
C1023 C 0.92248 0.14796 0.05825 0.0
C1024 C 0.91575 0.12873 0.08261 0.0
H1025 H 0.91472 0.1776 0.01809 0.0
H1026 H 0.93857 0.15154 0.05696 0.0
S1027 S 0.86199 0.1115 0.09346 0.0
N1028 N 0.86057 0.13511 0.06212 0.0
N1029 N 0.88649 0.10683 0.10485 0.0
C1030 C 0.89467 0.12489 0.083 0.0
C1031 C 0.8806 0.14021 0.05948 0.0
C1032 C 0.88179 0.64786 0.84881 0.0
C1033 C 0.88612 0.66789 0.82587 0.0
C1034 C 0.89597 0.6322 0.83901 0.0
C1035 C 0.91511 0.63595 0.80625 0.0
H1036 H 0.86743 0.64422 0.87574 0.0
H1037 H 0.89205 0.61715 0.85931 0.0
S1038 S 0.93342 0.68536 0.73065 0.0
N1039 N 0.91055 0.69034 0.76444 0.0
N1040 N 0.93719 0.66091 0.74634 0.0
C1041 C 0.91942 0.65575 0.78072 0.0
C1042 C 0.90494 0.67171 0.79043 0.0
C1043 C 0.11157 0.13323 0.62551 0.0
C1044 C 0.10533 0.15368 0.62227 0.0
C1045 C 0.09743 0.11747 0.63404 0.0
C1046 C 0.07644 0.12147 0.63929 0.0
H1047 H 0.12754 0.1293 0.62198 0.0
H1048 H 0.10307 0.102 0.63616 0.0
S1049 S 0.05206 0.17241 0.63327 0.0
N1050 N 0.07662 0.17709 0.62459 0.0
N1051 N 0.05008 0.14748 0.64047 0.0
C1052 C 0.06994 0.14185 0.63584 0.0
C1053 C 0.08437 0.15793 0.62738 0.0
C1054 C 0.60145 0.36578 0.34988 0.0
C1055 C 0.58101 0.36018 0.33856 0.0
C1056 C 0.61595 0.35155 0.37421 0.0
C1057 C 0.61061 0.33113 0.38757 0.0
H1058 H 0.60628 0.38134 0.34091 0.0
H1059 H 0.6315 0.35662 0.38192 0.0
S1060 S 0.55912 0.30856 0.3647 0.0
N1061 N 0.55622 0.33269 0.34148 0.0
N1062 N 0.58337 0.30603 0.38707 0.0
C1063 C 0.59022 0.32531 0.37601 0.0
C1064 C 0.57547 0.3398 0.35152 0.0
C1065 C 0.38394 0.85488 0.16922 0.0
C1066 C 0.39033 0.83446 0.17209 0.0
C1067 C 0.3976 0.87085 0.18199 0.0
C1068 C 0.41825 0.86708 0.19785 0.0
H1069 H 0.36827 0.85864 0.15627 0.0
H1070 H 0.39196 0.88628 0.17768 0.0
S1071 S 0.44257 0.81634 0.21634 0.0
N1072 N 0.41861 0.81135 0.19534 0.0
N1073 N 0.44425 0.84135 0.21926 0.0
C1074 C 0.42477 0.84673 0.20273 0.0
C1075 C 0.41084 0.83045 0.18985 0.0
C1076 C 0.91644 0.35208 0.56171 0.0
C1077 C 0.90997 0.3711 0.58912 0.0
C1078 C 0.90258 0.33791 0.53322 0.0
C1079 C 0.88161 0.34211 0.53066 0.0
H1080 H 0.93236 0.34784 0.5634 0.0
H1081 H 0.9084 0.32336 0.51443 0.0
S1082 S 0.85681 0.39024 0.59054 0.0
N1083 N 0.88122 0.39384 0.6083 0.0
N1084 N 0.85508 0.36715 0.55453 0.0
C1085 C 0.87493 0.36135 0.55536 0.0
C1086 C 0.88911 0.37583 0.5847 0.0
C1087 C 0.39292 0.171 0.40099 0.0
C1088 C 0.37289 0.16439 0.41463 0.0
C1089 C 0.40789 0.15758 0.37516 0.0
C1090 C 0.40347 0.13698 0.36154 0.0
H1091 H 0.39713 0.18675 0.40975 0.0
H1092 H 0.42305 0.16351 0.36554 0.0
S1093 S 0.35344 0.11177 0.38975 0.0
N1094 N 0.34947 0.13569 0.4137 0.0
N1095 N 0.37762 0.11046 0.36493 0.0
C1096 C 0.38353 0.13006 0.37546 0.0
C1097 C 0.36827 0.14375 0.40217 0.0
C1098 C 0.5988 0.66186 0.05864 0.0
C1099 C 0.61961 0.6571 0.05312 0.0
C1100 C 0.58467 0.64762 0.08469 0.0
C1101 C 0.59069 0.62796 0.10674 0.0
H1102 H 0.59331 0.67686 0.04369 0.0
H1103 H 0.5689 0.65227 0.08854 0.0
S1104 S 0.64329 0.60739 0.09992 0.0
N1105 N 0.64553 0.63101 0.06929 0.0
N1106 N 0.61888 0.60415 0.11853 0.0
C1107 C 0.6114 0.62275 0.09985 0.0
C1108 C 0.62586 0.63731 0.07289 0.0
C1109 C 0.11026 0.86087 0.89481 0.0
C1110 C 0.09028 0.85431 0.87946 0.0
C1111 C 0.12556 0.84704 0.91484 0.0
C1112 C 0.12156 0.82607 0.92015 0.0
H1113 H 0.11411 0.87686 0.89249 0.0
H1114 H 0.14062 0.85294 0.92667 0.0
S1115 S 0.07198 0.80088 0.88173 0.0
N1116 N 0.06749 0.8253 0.86827 0.0
N1117 N 0.0962 0.79933 0.90575 0.0
C1118 C 0.10172 0.81924 0.90362 0.0
C1119 C 0.08612 0.83335 0.88333 0.0
loop_
_geom_bond_atom_site_label_1
_geom_bond_atom_site_label_2
_geom_bond_distance
_geom_bond_site_symmetry_2
_ccdc_geom_bond_type
C0 O1 1.160 . S
C0 O7 1.185 . S
O1 C0 1.160 . S
O2 Zn3 1.899 1_556 S
O2 C10 1.284 . S
Zn3 O2 1.899 1_554 S
Zn3 O4 2.032 . S
Zn3 O7 2.086 . S
Zn3 O12 1.977 . S
O4 Zn3 2.032 . S
O4 C8 1.278 . S
C5 O6 1.203 1_554 S
C5 O12 1.267 . S
O6 C5 1.203 1_556 S
O7 C0 1.185 . S
O7 Zn3 2.086 . S
C8 O4 1.278 . S
C8 O9 1.211 . S
O9 C8 1.211 . S
C10 O2 1.284 . S
C10 O11 1.273 . S
O11 C10 1.273 . S
O12 Zn3 1.977 . S
O12 C5 1.267 . S
C13 O14 1.160 . S
C13 O20 1.185 . S
O14 C13 1.160 . S
O15 Zn16 1.899 . S
O15 C23 1.284 . S
Zn16 O15 1.899 . S
Zn16 O17 2.032 . S
Zn16 O20 2.086 . S
Zn16 O25 1.977 . S
O17 Zn16 2.032 . S
O17 C21 1.278 . S
C18 O19 1.203 . S
C18 O25 1.267 . S
O19 C18 1.203 . S
O20 C13 1.185 . S
O20 Zn16 2.086 . S
C21 O17 1.278 . S
C21 O22 1.211 . S
O22 C21 1.211 . S
C23 O15 1.284 . S
C23 O24 1.273 . S
O24 C23 1.273 . S
O25 Zn16 1.977 . S
O25 C18 1.267 . S
C26 O27 1.160 . S
C26 O33 1.185 . S
O27 C26 1.160 . S
O28 Zn29 1.899 . S
O28 C36 1.284 . S
Zn29 O28 1.899 . S
Zn29 O30 2.032 . S
Zn29 O33 2.086 . S
Zn29 O38 1.977 . S
O30 Zn29 2.032 . S
O30 C34 1.278 . S
C31 O32 1.203 . S
C31 O38 1.267 . S
O32 C31 1.203 . S
O33 C26 1.185 . S
O33 Zn29 2.086 . S
C34 O30 1.278 . S
C34 O35 1.211 . S
O35 C34 1.211 . S
C36 O28 1.284 . S
C36 O37 1.273 . S
O37 C36 1.273 . S
O38 Zn29 1.977 . S
O38 C31 1.267 . S
C39 O40 1.160 . S
C39 O46 1.185 . S
O40 C39 1.160 . S
O41 Zn42 1.899 . S
O41 C49 1.284 . S
Zn42 O41 1.899 . S
Zn42 O43 2.032 . S
Zn42 O46 2.086 . S
Zn42 O51 1.977 . S
O43 Zn42 2.032 . S
O43 C47 1.278 . S
C44 O45 1.203 . S
C44 O51 1.267 . S
O45 C44 1.203 . S
O46 C39 1.185 . S
O46 Zn42 2.086 . S
C47 O43 1.278 . S
C47 O48 1.211 . S
O48 C47 1.211 . S
C49 O41 1.284 . S
C49 O50 1.273 . S
O50 C49 1.273 . S
O51 Zn42 1.977 . S
O51 C44 1.267 . S
C52 O53 1.160 . S
C52 O59 1.185 . S
O53 C52 1.160 . S
O54 Zn55 1.899 . S
O54 C62 1.284 . S
Zn55 O54 1.899 . S
Zn55 O56 2.032 . S
Zn55 O59 2.086 . S
Zn55 O64 1.977 . S
O56 Zn55 2.032 . S
O56 C60 1.278 . S
C57 O58 1.203 . S
C57 O64 1.267 . S
O58 C57 1.203 . S
O59 C52 1.185 . S
O59 Zn55 2.086 . S
C60 O56 1.278 . S
C60 O61 1.211 . S
O61 C60 1.211 . S
C62 O54 1.284 . S
C62 O63 1.273 . S
O63 C62 1.273 . S
O64 Zn55 1.977 . S
O64 C57 1.267 . S
C65 O66 1.160 . S
C65 O72 1.185 . S
O66 C65 1.160 . S
O67 Zn68 1.899 . S
O67 C75 1.284 . S
Zn68 O67 1.899 . S
Zn68 O69 2.032 . S
Zn68 O72 2.086 . S
Zn68 O77 1.977 . S
O69 Zn68 2.032 . S
O69 C73 1.278 . S
C70 O71 1.203 . S
C70 O77 1.267 . S
O71 C70 1.203 . S
O72 C65 1.185 . S
O72 Zn68 2.086 . S
C73 O69 1.278 . S
C73 O74 1.211 . S
O74 C73 1.211 . S
C75 O67 1.284 . S
C75 O76 1.273 . S
O76 C75 1.273 . S
O77 Zn68 1.977 . S
O77 C70 1.267 . S
C78 O79 1.160 . S
C78 O85 1.185 . S
O79 C78 1.160 . S
O80 Zn81 1.899 1_554 S
O80 C88 1.284 . S
Zn81 O80 1.899 1_556 S
Zn81 O82 2.032 . S
Zn81 O85 2.086 . S
Zn81 O90 1.977 . S
O82 Zn81 2.032 . S
O82 C86 1.278 . S
C83 O84 1.203 1_556 S
C83 O90 1.267 . S
O84 C83 1.203 1_554 S
O85 C78 1.185 . S
O85 Zn81 2.086 . S
C86 O82 1.278 . S
C86 O87 1.211 . S
O87 C86 1.211 . S
C88 O80 1.284 . S
C88 O89 1.273 . S
O89 C88 1.273 . S
O90 Zn81 1.977 . S
O90 C83 1.267 . S
C91 O92 1.160 . S
C91 O98 1.185 . S
O92 C91 1.160 . S
O93 Zn94 1.899 . S
O93 C101 1.284 . S
Zn94 O93 1.899 . S
Zn94 O95 2.032 . S
Zn94 O98 2.086 . S
Zn94 O103 1.977 . S
O95 Zn94 2.032 . S
O95 C99 1.278 . S
C96 O97 1.203 . S
C96 O103 1.267 . S
O97 C96 1.203 . S
O98 C91 1.185 . S
O98 Zn94 2.086 . S
C99 O95 1.278 . S
C99 O100 1.211 . S
O100 C99 1.211 . S
C101 O93 1.284 . S
C101 O102 1.273 . S
O102 C101 1.273 . S
O103 Zn94 1.977 . S
O103 C96 1.267 . S
C104 O105 1.160 . S
C104 O111 1.185 . S
O105 C104 1.160 . S
O106 Zn107 1.899 1_554 S
O106 C114 1.284 . S
Zn107 O106 1.899 1_556 S
Zn107 O108 2.032 . S
Zn107 O111 2.086 . S
Zn107 O116 1.977 . S
O108 Zn107 2.032 . S
O108 C112 1.278 . S
C109 O110 1.203 1_556 S
C109 O116 1.267 . S
O110 C109 1.203 1_554 S
O111 C104 1.185 . S
O111 Zn107 2.086 . S
C112 O108 1.278 . S
C112 O113 1.211 . S
O113 C112 1.211 . S
C114 O106 1.284 . S
C114 O115 1.273 . S
O115 C114 1.273 . S
O116 Zn107 1.977 . S
O116 C109 1.267 . S
C117 O118 1.160 . S
C117 O124 1.185 . S
O118 C117 1.160 . S
O119 Zn120 1.899 . S
O119 C127 1.284 . S
Zn120 O119 1.899 . S
Zn120 O121 2.032 . S
Zn120 O124 2.086 . S
Zn120 O129 1.977 . S
O121 Zn120 2.032 . S
O121 C125 1.278 . S
C122 O123 1.203 . S
C122 O129 1.267 . S
O123 C122 1.203 . S
O124 C117 1.185 . S
O124 Zn120 2.086 . S
C125 O121 1.278 . S
C125 O126 1.211 . S
O126 C125 1.211 . S
C127 O119 1.284 . S
C127 O128 1.273 . S
O128 C127 1.273 . S
O129 Zn120 1.977 . S
O129 C122 1.267 . S
C130 O131 1.160 . S
C130 O137 1.185 . S
O131 C130 1.160 . S
O132 Zn133 1.899 . S
O132 C140 1.284 . S
Zn133 O132 1.899 . S
Zn133 O134 2.032 . S
Zn133 O137 2.086 . S
Zn133 O142 1.977 . S
O134 Zn133 2.032 . S
O134 C138 1.278 . S
C135 O136 1.203 . S
C135 O142 1.267 . S
O136 C135 1.203 . S
O137 C130 1.185 . S
O137 Zn133 2.086 . S
C138 O134 1.278 . S
C138 O139 1.211 . S
O139 C138 1.211 . S
C140 O132 1.284 . S
C140 O141 1.273 . S
O141 C140 1.273 . S
O142 Zn133 1.977 . S
O142 C135 1.267 . S
C143 O144 1.160 . S
C143 O150 1.185 . S
O144 C143 1.160 . S
O145 Zn146 1.899 . S
O145 C153 1.284 . S
Zn146 O145 1.899 . S
Zn146 O147 2.032 . S
Zn146 O150 2.086 . S
Zn146 O155 1.977 . S
O147 Zn146 2.032 . S
O147 C151 1.278 . S
C148 O149 1.203 . S
C148 O155 1.267 . S
O149 C148 1.203 . S
O150 C143 1.185 . S
O150 Zn146 2.086 . S
C151 O147 1.278 . S
C151 O152 1.211 . S
O152 C151 1.211 . S
C153 O145 1.284 . S
C153 O154 1.273 . S
O154 C153 1.273 . S
O155 Zn146 1.977 . S
O155 C148 1.267 . S
C156 O157 1.160 . S
C156 O163 1.185 . S
O157 C156 1.160 . S
O158 Zn159 1.899 . S
O158 C166 1.284 . S
Zn159 O158 1.899 . S
Zn159 O160 2.032 . S
Zn159 O163 2.086 . S
Zn159 O168 1.977 . S
O160 Zn159 2.032 . S
O160 C164 1.278 . S
C161 O162 1.203 . S
C161 O168 1.267 . S
O162 C161 1.203 . S
O163 C156 1.185 . S
O163 Zn159 2.086 . S
C164 O160 1.278 . S
C164 O165 1.211 . S
O165 C164 1.211 . S
C166 O158 1.284 . S
C166 O167 1.273 . S
O167 C166 1.273 . S
O168 Zn159 1.977 . S
O168 C161 1.267 . S
C169 O170 1.160 . S
C169 O176 1.185 . S
O170 C169 1.160 . S
O171 Zn172 1.899 . S
O171 C179 1.284 . S
Zn172 O171 1.899 . S
Zn172 O173 2.032 . S
Zn172 O176 2.086 . S
Zn172 O181 1.977 . S
O173 Zn172 2.032 . S
O173 C177 1.278 . S
C174 O175 1.203 . S
C174 O181 1.267 . S
O175 C174 1.203 . S
O176 C169 1.185 . S
O176 Zn172 2.086 . S
C177 O173 1.278 . S
C177 O178 1.211 . S
O178 C177 1.211 . S
C179 O171 1.284 . S
C179 O180 1.273 . S
O180 C179 1.273 . S
O181 Zn172 1.977 . S
O181 C174 1.267 . S
C182 O183 1.160 . S
C182 O189 1.185 . S
O183 C182 1.160 . S
O184 Zn185 1.899 1_556 S
O184 C192 1.284 . S
Zn185 O184 1.899 1_554 S
Zn185 O186 2.032 . S
Zn185 O189 2.086 . S
Zn185 O194 1.977 . S
O186 Zn185 2.032 . S
O186 C190 1.278 . S
C187 O188 1.203 1_554 S
C187 O194 1.267 . S
O188 C187 1.203 1_556 S
O189 C182 1.185 . S
O189 Zn185 2.086 . S
C190 O186 1.278 . S
C190 O191 1.211 . S
O191 C190 1.211 . S
C192 O184 1.284 . S
C192 O193 1.273 . S
O193 C192 1.273 . S
O194 Zn185 1.977 . S
O194 C187 1.267 . S
C195 O196 1.160 . S
C195 O202 1.185 . S
O196 C195 1.160 . S
O197 Zn198 1.899 . S
O197 C205 1.284 . S
Zn198 O197 1.899 . S
Zn198 O199 2.032 . S
Zn198 O202 2.086 . S
Zn198 O207 1.977 . S
O199 Zn198 2.032 . S
O199 C203 1.278 . S
C200 O201 1.203 . S
C200 O207 1.267 . S
O201 C200 1.203 . S
O202 C195 1.185 . S
O202 Zn198 2.086 . S
C203 O199 1.278 . S
C203 O204 1.211 . S
O204 C203 1.211 . S
C205 O197 1.284 . S
C205 O206 1.273 . S
O206 C205 1.273 . S
O207 Zn198 1.977 . S
O207 C200 1.267 . S
C208 O209 1.160 . S
C208 O215 1.185 . S
O209 C208 1.160 . S
O210 Zn211 1.899 . S
O210 C218 1.284 . S
Zn211 O210 1.899 . S
Zn211 O212 2.032 . S
Zn211 O215 2.086 . S
Zn211 O220 1.977 . S
O212 Zn211 2.032 . S
O212 C216 1.278 . S
C213 O214 1.203 . S
C213 O220 1.267 . S
O214 C213 1.203 . S
O215 C208 1.185 . S
O215 Zn211 2.086 . S
C216 O212 1.278 . S
C216 O217 1.211 . S
O217 C216 1.211 . S
C218 O210 1.284 . S
C218 O219 1.273 . S
O219 C218 1.273 . S
O220 Zn211 1.977 . S
O220 C213 1.267 . S
C221 O222 1.160 . S
C221 O228 1.185 . S
O222 C221 1.160 . S
O223 Zn224 1.899 . S
O223 C231 1.284 . S
Zn224 O223 1.899 . S
Zn224 O225 2.032 . S
Zn224 O228 2.086 . S
Zn224 O233 1.977 . S
O225 Zn224 2.032 . S
O225 C229 1.278 . S
C226 O227 1.203 . S
C226 O233 1.267 . S
O227 C226 1.203 . S
O228 C221 1.185 . S
O228 Zn224 2.086 . S
C229 O225 1.278 . S
C229 O230 1.211 . S
O230 C229 1.211 . S
C231 O223 1.284 . S
C231 O232 1.273 . S
O232 C231 1.273 . S
O233 Zn224 1.977 . S
O233 C226 1.267 . S
C234 O235 1.160 . S
C234 O241 1.185 . S
O235 C234 1.160 . S
O236 Zn237 1.899 1_556 S
O236 C244 1.284 . S
Zn237 O236 1.899 1_554 S
Zn237 O238 2.032 . S
Zn237 O241 2.086 . S
Zn237 O246 1.977 . S
O238 Zn237 2.032 . S
O238 C242 1.278 . S
C239 O240 1.203 1_554 S
C239 O246 1.267 . S
O240 C239 1.203 1_556 S
O241 C234 1.185 . S
O241 Zn237 2.086 . S
C242 O238 1.278 . S
C242 O243 1.211 . S
O243 C242 1.211 . S
C244 O236 1.284 . S
C244 O245 1.273 . S
O245 C244 1.273 . S
O246 Zn237 1.977 . S
O246 C239 1.267 . S
C247 O248 1.160 . S
C247 O254 1.185 . S
O248 C247 1.160 . S
O249 Zn250 1.899 . S
O249 C257 1.284 . S
Zn250 O249 1.899 . S
Zn250 O251 2.032 . S
Zn250 O254 2.086 . S
Zn250 O259 1.977 . S
O251 Zn250 2.032 . S
O251 C255 1.278 . S
C252 O253 1.203 . S
C252 O259 1.267 . S
O253 C252 1.203 . S
O254 C247 1.185 . S
O254 Zn250 2.086 . S
C255 O251 1.278 . S
C255 O256 1.211 . S
O256 C255 1.211 . S
C257 O249 1.284 . S
C257 O258 1.273 . S
O258 C257 1.273 . S
O259 Zn250 1.977 . S
O259 C252 1.267 . S
C260 O261 1.160 . S
C260 O267 1.185 . S
O261 C260 1.160 . S
O262 Zn263 1.899 1_554 S
O262 C270 1.284 . S
Zn263 O262 1.899 1_556 S
Zn263 O264 2.032 . S
Zn263 O267 2.086 . S
Zn263 O272 1.977 . S
O264 Zn263 2.032 . S
O264 C268 1.278 . S
C265 O266 1.203 1_556 S
C265 O272 1.267 . S
O266 C265 1.203 1_554 S
O267 C260 1.185 . S
O267 Zn263 2.086 . S
C268 O264 1.278 . S
C268 O269 1.211 . S
O269 C268 1.211 . S
C270 O262 1.284 . S
C270 O271 1.273 . S
O271 C270 1.273 . S
O272 Zn263 1.977 . S
O272 C265 1.267 . S
C273 O274 1.160 . S
C273 O280 1.185 . S
O274 C273 1.160 . S
O275 Zn276 1.899 . S
O275 C283 1.284 . S
Zn276 O275 1.899 . S
Zn276 O277 2.032 . S
Zn276 O280 2.086 . S
Zn276 O285 1.977 . S
O277 Zn276 2.032 . S
O277 C281 1.278 . S
C278 O279 1.203 . S
C278 O285 1.267 . S
O279 C278 1.203 . S
O280 C273 1.185 . S
O280 Zn276 2.086 . S
C281 O277 1.278 . S
C281 O282 1.211 . S
O282 C281 1.211 . S
C283 O275 1.284 . S
C283 O284 1.273 . S
O284 C283 1.273 . S
O285 Zn276 1.977 . S
O285 C278 1.267 . S
C286 O287 1.160 . S
C286 O293 1.185 . S
O287 C286 1.160 . S
O288 Zn289 1.899 . S
O288 C296 1.284 . S
Zn289 O288 1.899 . S
Zn289 O290 2.032 . S
Zn289 O293 2.086 . S
Zn289 O298 1.977 . S
O290 Zn289 2.032 . S
O290 C294 1.278 . S
C291 O292 1.203 . S
C291 O298 1.267 . S
O292 C291 1.203 . S
O293 C286 1.185 . S
O293 Zn289 2.086 . S
C294 O290 1.278 . S
C294 O295 1.211 . S
O295 C294 1.211 . S
C296 O288 1.284 . S
C296 O297 1.273 . S
O297 C296 1.273 . S
O298 Zn289 1.977 . S
O298 C291 1.267 . S
C299 O300 1.160 . S
C299 O306 1.185 . S
O300 C299 1.160 . S
O301 Zn302 1.899 . S
O301 C309 1.284 . S
Zn302 O301 1.899 . S
Zn302 O303 2.032 . S
Zn302 O306 2.086 . S
Zn302 O311 1.977 . S
O303 Zn302 2.032 . S
O303 C307 1.278 . S
C304 O305 1.203 . S
C304 O311 1.267 . S
O305 C304 1.203 . S
O306 C299 1.185 . S
O306 Zn302 2.086 . S
C307 O303 1.278 . S
C307 O308 1.211 . S
O308 C307 1.211 . S
C309 O301 1.284 . S
C309 O310 1.273 . S
O310 C309 1.273 . S
O311 Zn302 1.977 . S
O311 C304 1.267 . S
C312 O313 1.160 . S
C312 O319 1.185 . S
O313 C312 1.160 . S
O314 Zn315 1.899 . S
O314 C322 1.284 . S
Zn315 O314 1.899 . S
Zn315 O316 2.032 . S
Zn315 O319 2.086 . S
Zn315 O324 1.977 . S
O316 Zn315 2.032 . S
O316 C320 1.278 . S
C317 O318 1.203 . S
C317 O324 1.267 . S
O318 C317 1.203 . S
O319 C312 1.185 . S
O319 Zn315 2.086 . S
C320 O316 1.278 . S
C320 O321 1.211 . S
O321 C320 1.211 . S
C322 O314 1.284 . S
C322 O323 1.273 . S
O323 C322 1.273 . S
O324 Zn315 1.977 . S
O324 C317 1.267 . S
C325 O326 1.160 . S
C325 O332 1.185 . S
O326 C325 1.160 . S
O327 Zn328 1.899 . S
O327 C335 1.284 . S
Zn328 O327 1.899 . S
Zn328 O329 2.032 . S
Zn328 O332 2.086 . S
Zn328 O337 1.977 . S
O329 Zn328 2.032 . S
O329 C333 1.278 . S
C330 O331 1.203 . S
C330 O337 1.267 . S
O331 C330 1.203 . S
O332 C325 1.185 . S
O332 Zn328 2.086 . S
C333 O329 1.278 . S
C333 O334 1.211 . S
O334 C333 1.211 . S
C335 O327 1.284 . S
C335 O336 1.273 . S
O336 C335 1.273 . S
O337 Zn328 1.977 . S
O337 C330 1.267 . S
C338 O339 1.160 . S
C338 O345 1.185 . S
O339 C338 1.160 . S
O340 Zn341 1.899 1_554 S
O340 C348 1.284 . S
Zn341 O340 1.899 1_556 S
Zn341 O342 2.032 . S
Zn341 O345 2.086 . S
Zn341 O350 1.977 . S
O342 Zn341 2.032 . S
O342 C346 1.278 . S
C343 O344 1.203 1_556 S
C343 O350 1.267 . S
O344 C343 1.203 1_554 S
O345 C338 1.185 . S
O345 Zn341 2.086 . S
C346 O342 1.278 . S
C346 O347 1.211 . S
O347 C346 1.211 . S
C348 O340 1.284 . S
C348 O349 1.273 . S
O349 C348 1.273 . S
O350 Zn341 1.977 . S
O350 C343 1.267 . S
C351 O352 1.160 . S
C351 O358 1.185 . S
O352 C351 1.160 . S
O353 Zn354 1.899 . S
O353 C361 1.284 . S
Zn354 O353 1.899 . S
Zn354 O355 2.032 . S
Zn354 O358 2.086 . S
Zn354 O363 1.977 . S
O355 Zn354 2.032 . S
O355 C359 1.278 . S
C356 O357 1.203 . S
C356 O363 1.267 . S
O357 C356 1.203 . S
O358 C351 1.185 . S
O358 Zn354 2.086 . S
C359 O355 1.278 . S
C359 O360 1.211 . S
O360 C359 1.211 . S
C361 O353 1.284 . S
C361 O362 1.273 . S
O362 C361 1.273 . S
O363 Zn354 1.977 . S
O363 C356 1.267 . S
C364 O365 1.160 . S
C364 O371 1.185 . S
O365 C364 1.160 . S
O366 Zn367 1.899 1_556 S
O366 C374 1.284 . S
Zn367 O366 1.899 1_554 S
Zn367 O368 2.032 . S
Zn367 O371 2.086 . S
Zn367 O376 1.977 . S
O368 Zn367 2.032 . S
O368 C372 1.278 . S
C369 O370 1.203 1_554 S
C369 O376 1.267 . S
O370 C369 1.203 1_556 S
O371 C364 1.185 . S
O371 Zn367 2.086 . S
C372 O368 1.278 . S
C372 O373 1.211 . S
O373 C372 1.211 . S
C374 O366 1.284 . S
C374 O375 1.273 . S
O375 C374 1.273 . S
O376 Zn367 1.977 . S
O376 C369 1.267 . S
C377 O378 1.160 . S
C377 O384 1.185 . S
O378 C377 1.160 . S
O379 Zn380 1.899 . S
O379 C387 1.284 . S
Zn380 O379 1.899 . S
Zn380 O381 2.032 . S
Zn380 O384 2.086 . S
Zn380 O389 1.977 . S
O381 Zn380 2.032 . S
O381 C385 1.278 . S
C382 O383 1.203 . S
C382 O389 1.267 . S
O383 C382 1.203 . S
O384 C377 1.185 . S
O384 Zn380 2.086 . S
C385 O381 1.278 . S
C385 O386 1.211 . S
O386 C385 1.211 . S
C387 O379 1.284 . S
C387 O388 1.273 . S
O388 C387 1.273 . S
O389 Zn380 1.977 . S
O389 C382 1.267 . S
C390 O391 1.160 . S
C390 O397 1.185 . S
O391 C390 1.160 . S
O392 Zn393 1.899 . S
O392 C400 1.284 . S
Zn393 O392 1.899 . S
Zn393 O394 2.032 . S
Zn393 O397 2.086 . S
Zn393 O402 1.977 . S
O394 Zn393 2.032 . S
O394 C398 1.278 . S
C395 O396 1.203 . S
C395 O402 1.267 . S
O396 C395 1.203 . S
O397 C390 1.185 . S
O397 Zn393 2.086 . S
C398 O394 1.278 . S
C398 O399 1.211 . S
O399 C398 1.211 . S
C400 O392 1.284 . S
C400 O401 1.273 . S
O401 C400 1.273 . S
O402 Zn393 1.977 . S
O402 C395 1.267 . S
C403 O404 1.160 . S
C403 O410 1.185 . S
O404 C403 1.160 . S
O405 Zn406 1.899 . S
O405 C413 1.284 . S
Zn406 O405 1.899 . S
Zn406 O407 2.032 . S
Zn406 O410 2.086 . S
Zn406 O415 1.977 . S
O407 Zn406 2.032 . S
O407 C411 1.278 . S
C408 O409 1.203 . S
C408 O415 1.267 . S
O409 C408 1.203 . S
O410 C403 1.185 . S
O410 Zn406 2.086 . S
C411 O407 1.278 . S
C411 O412 1.211 . S
O412 C411 1.211 . S
C413 O405 1.284 . S
C413 O414 1.273 . S
O414 C413 1.273 . S
O415 Zn406 1.977 . S
O415 C408 1.267 . S
C416 C417 1.369 . S
C416 C418 1.419 . S
C416 H420 0.930 . S
C417 C416 1.369 . S
C417 C426 1.429 1_556 S
C418 C416 1.419 . S
C418 C419 1.363 1_556 S
C418 H421 0.929 . S
C419 C418 1.363 1_554 S
C419 C425 1.428 . S
H420 C416 0.930 . S
H421 C418 0.929 . S
S422 N423 1.613 . S
S422 N424 1.610 . S
N423 S422 1.613 . S
N423 C426 1.350 . S
N424 S422 1.610 . S
N424 C425 1.351 . S
C425 C419 1.428 . S
C425 N424 1.351 . S
C425 C426 1.434 . S
C426 C417 1.429 1_554 S
C426 N423 1.350 . S
C426 C425 1.434 . S
C427 C428 1.369 . S
C427 C429 1.419 1_565 S
C427 H431 0.930 . S
C428 C427 1.369 . S
C428 C437 1.429 . S
C429 C427 1.419 1_545 S
C429 C430 1.363 . S
C429 H432 0.929 . S
C430 C429 1.363 . S
C430 C436 1.428 . S
H431 C427 0.930 . S
H432 C429 0.929 . S
S433 N434 1.613 . S
S433 N435 1.610 1_565 S
N434 S433 1.613 . S
N434 C437 1.350 . S
N435 S433 1.610 1_545 S
N435 C436 1.351 . S
C436 C430 1.428 . S
C436 N435 1.351 . S
C436 C437 1.434 1_545 S
C437 C428 1.429 . S
C437 N434 1.350 . S
C437 C436 1.434 1_565 S
C438 C439 1.369 . S
C438 C440 1.419 . S
C438 H442 0.930 . S
C439 C438 1.369 . S
C439 C448 1.429 . S
C440 C438 1.419 . S
C440 C441 1.363 . S
C440 H443 0.929 . S
C441 C440 1.363 . S
C441 C447 1.428 . S
H442 C438 0.930 . S
H443 C440 0.929 . S
S444 N445 1.613 . S
S444 N446 1.610 . S
N445 S444 1.613 . S
N445 C448 1.350 . S
N446 S444 1.610 . S
N446 C447 1.351 . S
C447 C441 1.428 . S
C447 N446 1.351 . S
C447 C448 1.434 . S
C448 C439 1.429 . S
C448 N445 1.350 . S
C448 C447 1.434 . S
C449 C450 1.369 . S
C449 C451 1.419 1_545 S
C449 H453 0.930 . S
C450 C449 1.369 . S
C450 C459 1.429 . S
C451 C449 1.419 1_565 S
C451 C452 1.363 . S
C451 H454 0.929 . S
C452 C451 1.363 . S
C452 C458 1.428 . S
H453 C449 0.930 . S
H454 C451 0.929 . S
S455 N456 1.617 . S
S455 N457 1.606 1_545 S
N456 S455 1.617 . S
N456 C459 1.350 . S
N457 S455 1.606 1_565 S
N457 C458 1.351 . S
C458 C452 1.428 . S
C458 N457 1.351 . S
C458 C459 1.434 1_565 S
C459 C450 1.429 . S
C459 N456 1.350 . S
C459 C458 1.434 1_545 S
C460 C461 1.369 . S
C460 C462 1.419 . S
C460 H464 0.930 . S
C461 C460 1.369 . S
C461 C470 1.429 1_554 S
C462 C460 1.419 . S
C462 C463 1.363 1_554 S
C462 H465 0.929 . S
C463 C462 1.363 1_556 S
C463 C469 1.428 . S
H464 C460 0.930 . S
H465 C462 0.929 . S
S466 N467 1.613 . S
S466 N468 1.610 . S
N467 S466 1.613 . S
N467 C470 1.350 . S
N468 S466 1.610 . S
N468 C469 1.351 . S
C469 C463 1.428 . S
C469 N468 1.351 . S
C469 C470 1.434 . S
C470 C461 1.429 1_556 S
C470 N467 1.350 . S
C470 C469 1.434 . S
C471 C472 1.369 . S
C471 C473 1.419 1_565 S
C471 H475 0.930 . S
C472 C471 1.369 . S
C472 C481 1.429 . S
C473 C471 1.419 1_545 S
C473 C474 1.363 . S
C473 H476 0.929 . S
C474 C473 1.363 . S
C474 C480 1.428 . S
H475 C471 0.930 . S
H476 C473 0.929 . S
S477 N478 1.613 1_545 S
S477 N479 1.610 . S
N478 S477 1.613 1_565 S
N478 C481 1.350 . S
N479 S477 1.610 . S
N479 C480 1.351 . S
C480 C474 1.428 . S
C480 N479 1.351 . S
C480 C481 1.434 1_545 S
C481 C472 1.429 . S
C481 N478 1.350 . S
C481 C480 1.434 1_565 S
C482 C483 1.369 . S
C482 C484 1.419 . S
C482 H486 0.930 . S
C483 C482 1.369 . S
C483 C492 1.429 . S
C484 C482 1.419 . S
C484 C485 1.363 . S
C484 H487 0.929 . S
C485 C484 1.363 . S
C485 C491 1.428 . S
H486 C482 0.930 . S
H487 C484 0.929 . S
S488 N489 1.613 . S
S488 N490 1.610 . S
N489 S488 1.613 . S
N489 C492 1.350 . S
N490 S488 1.610 . S
N490 C491 1.351 . S
C491 C485 1.428 . S
C491 N490 1.351 . S
C491 C492 1.434 . S
C492 C483 1.429 . S
C492 N489 1.350 . S
C492 C491 1.434 . S
C493 C494 1.369 . S
C493 C495 1.419 1_565 S
C493 H497 0.930 . S
C494 C493 1.369 . S
C494 C503 1.429 . S
C495 C493 1.419 1_545 S
C495 C496 1.363 . S
C495 H498 0.929 . S
C496 C495 1.363 . S
C496 C502 1.428 . S
H497 C493 0.930 . S
H498 C495 0.929 . S
S499 N500 1.613 . S
S499 N501 1.610 1_565 S
N500 S499 1.613 . S
N500 C503 1.350 . S
N501 S499 1.610 1_545 S
N501 C502 1.351 . S
C502 C496 1.428 . S
C502 N501 1.351 . S
C502 C503 1.434 1_545 S
C503 C494 1.429 . S
C503 N500 1.350 . S
C503 C502 1.434 1_565 S
C504 C505 1.369 . S
C504 C506 1.419 . S
C504 H508 0.930 . S
C505 C504 1.369 . S
C505 C514 1.429 . S
C506 C504 1.419 . S
C506 C507 1.363 . S
C506 H509 0.929 . S
C507 C506 1.363 . S
C507 C513 1.428 . S
H508 C504 0.930 . S
H509 C506 0.929 . S
S510 N511 1.613 . S
S510 N512 1.610 . S
N511 S510 1.613 . S
N511 C514 1.350 . S
N512 S510 1.610 . S
N512 C513 1.351 . S
C513 C507 1.428 . S
C513 N512 1.351 . S
C513 C514 1.434 . S
C514 C505 1.429 . S
C514 N511 1.350 . S
C514 C513 1.434 . S
C515 C516 1.369 . S
C515 C517 1.419 . S
C515 H519 0.930 . S
C516 C515 1.369 . S
C516 C525 1.429 . S
C517 C515 1.419 . S
C517 C518 1.363 . S
C517 H520 0.929 . S
C518 C517 1.363 . S
C518 C524 1.428 . S
H519 C515 0.930 . S
H520 C517 0.929 . S
S521 N522 1.613 . S
S521 N523 1.610 . S
N522 S521 1.613 . S
N522 C525 1.350 . S
N523 S521 1.610 . S
N523 C524 1.351 . S
C524 C518 1.428 . S
C524 N523 1.351 . S
C524 C525 1.434 . S
C525 C516 1.429 . S
C525 N522 1.350 . S
C525 C524 1.434 . S
C526 C527 1.369 1_554 S
C526 C528 1.419 . S
C526 H530 0.930 . S
C527 C526 1.369 1_556 S
C527 C536 1.429 . S
C528 C526 1.419 . S
C528 C529 1.363 . S
C528 H531 0.929 . S
C529 C528 1.363 . S
C529 C535 1.428 1_554 S
H530 C526 0.930 . S
H531 C528 0.929 . S
S532 N533 1.613 . S
S532 N534 1.610 . S
N533 S532 1.613 . S
N533 C536 1.350 . S
N534 S532 1.610 . S
N534 C535 1.351 . S
C535 C529 1.428 1_556 S
C535 N534 1.351 . S
C535 C536 1.434 . S
C536 C527 1.429 . S
C536 N533 1.350 . S
C536 C535 1.434 . S
C537 C538 1.369 . S
C537 C539 1.419 . S
C537 H541 0.930 . S
C538 C537 1.369 . S
C538 C547 1.429 . S
C539 C537 1.419 . S
C539 C540 1.363 . S
C539 H542 0.929 . S
C540 C539 1.363 . S
C540 C546 1.428 . S
H541 C537 0.930 . S
H542 C539 0.929 . S
S543 N544 1.613 . S
S543 N545 1.610 . S
N544 S543 1.613 . S
N544 C547 1.350 . S
N545 S543 1.610 . S
N545 C546 1.351 . S
C546 C540 1.428 . S
C546 N545 1.351 . S
C546 C547 1.434 . S
C547 C538 1.429 . S
C547 N544 1.350 . S
C547 C546 1.434 . S
C548 C549 1.369 . S
C548 C550 1.419 . S
C548 H552 0.930 . S
C549 C548 1.369 . S
C549 C558 1.429 . S
C550 C548 1.419 . S
C550 C551 1.363 . S
C550 H553 0.929 . S
C551 C550 1.363 . S
C551 C557 1.428 . S
H552 C548 0.930 . S
H553 C550 0.929 . S
S554 N555 1.613 . S
S554 N556 1.610 . S
N555 S554 1.613 . S
N555 C558 1.350 . S
N556 S554 1.610 . S
N556 C557 1.351 . S
C557 C551 1.428 . S
C557 N556 1.351 . S
C557 C558 1.434 . S
C558 C549 1.429 . S
C558 N555 1.350 . S
C558 C557 1.434 . S
C559 C560 1.369 . S
C559 C561 1.419 . S
C559 H563 0.930 . S
C560 C559 1.369 . S
C560 C569 1.429 . S
C561 C559 1.419 . S
C561 C562 1.363 . S
C561 H564 0.929 . S
C562 C561 1.363 . S
C562 C568 1.428 . S
H563 C559 0.930 . S
H564 C561 0.929 . S
S565 N566 1.613 . S
S565 N567 1.610 . S
N566 S565 1.613 . S
N566 C569 1.350 . S
N567 S565 1.610 . S
N567 C568 1.351 . S
C568 C562 1.428 . S
C568 N567 1.351 . S
C568 C569 1.434 . S
C569 C560 1.429 . S
C569 N566 1.350 . S
C569 C568 1.434 . S
C570 C571 1.369 . S
C570 C572 1.419 . S
C570 H574 0.930 . S
C571 C570 1.369 . S
C571 C580 1.429 1_554 S
C572 C570 1.419 . S
C572 C573 1.363 1_554 S
C572 H575 0.929 . S
C573 C572 1.363 1_556 S
C573 C579 1.428 . S
H574 C570 0.930 . S
H575 C572 0.929 . S
S576 N577 1.613 . S
S576 N578 1.610 . S
N577 S576 1.613 . S
N577 C580 1.350 . S
N578 S576 1.610 . S
N578 C579 1.351 . S
C579 C573 1.428 . S
C579 N578 1.351 . S
C579 C580 1.434 . S
C580 C571 1.429 1_556 S
C580 N577 1.350 . S
C580 C579 1.434 . S
C581 C582 1.369 . S
C581 C583 1.419 . S
C581 H585 0.930 . S
C582 C581 1.369 . S
C582 C591 1.429 . S
C583 C581 1.419 . S
C583 C584 1.363 . S
C583 H586 0.929 . S
C584 C583 1.363 . S
C584 C590 1.428 . S
H585 C581 0.930 . S
H586 C583 0.929 . S
S587 N588 1.613 . S
S587 N589 1.610 . S
N588 S587 1.613 . S
N588 C591 1.350 . S
N589 S587 1.610 . S
N589 C590 1.351 . S
C590 C584 1.428 . S
C590 N589 1.351 . S
C590 C591 1.434 . S
C591 C582 1.429 . S
C591 N588 1.350 . S
C591 C590 1.434 . S
C592 C593 1.369 . S
C592 C594 1.419 . S
C592 H596 0.930 . S
C593 C592 1.369 . S
C593 C602 1.429 . S
C594 C592 1.419 . S
C594 C595 1.363 . S
C594 H597 0.929 . S
C595 C594 1.363 . S
C595 C601 1.428 . S
H596 C592 0.930 . S
H597 C594 0.929 . S
S598 N599 1.613 . S
S598 N600 1.610 . S
N599 S598 1.613 . S
N599 C602 1.350 . S
N600 S598 1.610 . S
N600 C601 1.351 . S
C601 C595 1.428 . S
C601 N600 1.351 . S
C601 C602 1.434 . S
C602 C593 1.429 . S
C602 N599 1.350 . S
C602 C601 1.434 . S
C603 C604 1.369 1_655 S
C603 C605 1.419 1_556 S
C603 H607 0.930 . S
C604 C603 1.369 1_455 S
C604 C613 1.429 1_556 S
C605 C603 1.419 1_554 S
C605 C606 1.363 . S
C605 H608 0.929 . S
C606 C605 1.363 . S
C606 C612 1.428 1_655 S
H607 C603 0.930 . S
H608 C605 0.929 . S
S609 N610 1.613 . S
S609 N611 1.610 . S
N610 S609 1.613 . S
N610 C613 1.350 . S
N611 S609 1.610 . S
N611 C612 1.351 . S
C612 C606 1.428 1_455 S
C612 N611 1.351 . S
C612 C613 1.434 . S
C613 C604 1.429 1_554 S
C613 N610 1.350 . S
C613 C612 1.434 . S
C614 C615 1.369 . S
C614 C616 1.419 . S
C614 H618 0.930 . S
C615 C614 1.369 . S
C615 C624 1.429 . S
C616 C614 1.419 . S
C616 C617 1.363 . S
C616 H619 0.929 . S
C617 C616 1.363 . S
C617 C623 1.428 . S
H618 C614 0.930 . S
H619 C616 0.929 . S
S620 N621 1.613 . S
S620 N622 1.610 . S
N621 S620 1.613 . S
N621 C624 1.350 . S
N622 S620 1.610 . S
N622 C623 1.351 . S
C623 C617 1.428 . S
C623 N622 1.351 . S
C623 C624 1.434 . S
C624 C615 1.429 . S
C624 N621 1.350 . S
C624 C623 1.434 . S
C625 C626 1.369 . S
C625 C627 1.419 . S
C625 H629 0.930 . S
C626 C625 1.369 . S
C626 C635 1.429 . S
C627 C625 1.419 . S
C627 C628 1.363 . S
C627 H630 0.929 . S
C628 C627 1.363 . S
C628 C634 1.428 . S
H629 C625 0.930 . S
H630 C627 0.929 . S
S631 N632 1.613 . S
S631 N633 1.610 . S
N632 S631 1.613 . S
N632 C635 1.350 . S
N633 S631 1.610 . S
N633 C634 1.351 . S
C634 C628 1.428 . S
C634 N633 1.351 . S
C634 C635 1.434 . S
C635 C626 1.429 . S
C635 N632 1.350 . S
C635 C634 1.434 . S
C636 C637 1.369 . S
C636 C638 1.419 . S
C636 H640 0.930 . S
C637 C636 1.369 . S
C637 C646 1.429 . S
C638 C636 1.419 . S
C638 C639 1.363 . S
C638 H641 0.929 . S
C639 C638 1.363 . S
C639 C645 1.428 . S
H640 C636 0.930 . S
H641 C638 0.929 . S
S642 N643 1.613 . S
S642 N644 1.610 . S
N643 S642 1.613 . S
N643 C646 1.350 . S
N644 S642 1.610 . S
N644 C645 1.351 . S
C645 C639 1.428 . S
C645 N644 1.351 . S
C645 C646 1.434 . S
C646 C637 1.429 . S
C646 N643 1.350 . S
C646 C645 1.434 . S
C647 C648 1.369 . S
C647 C649 1.419 1_554 S
C647 H651 0.930 . S
C648 C647 1.369 . S
C648 C657 1.429 1_554 S
C649 C647 1.419 1_556 S
C649 C650 1.363 . S
C649 H652 0.929 . S
C650 C649 1.363 . S
C650 C656 1.428 . S
H651 C647 0.930 . S
H652 C649 0.929 . S
S653 N654 1.613 . S
S653 N655 1.610 . S
N654 S653 1.613 . S
N654 C657 1.350 . S
N655 S653 1.610 . S
N655 C656 1.351 . S
C656 C650 1.428 . S
C656 N655 1.351 . S
C656 C657 1.434 . S
C657 C648 1.429 1_556 S
C657 N654 1.350 . S
C657 C656 1.434 . S
C658 C659 1.369 . S
C658 C660 1.419 . S
C658 H662 0.930 . S
C659 C658 1.369 . S
C659 C668 1.429 . S
C660 C658 1.419 . S
C660 C661 1.363 . S
C660 H663 0.929 . S
C661 C660 1.363 . S
C661 C667 1.428 . S
H662 C658 0.930 . S
H663 C660 0.929 . S
S664 N665 1.613 . S
S664 N666 1.610 . S
N665 S664 1.613 . S
N665 C668 1.350 . S
N666 S664 1.610 . S
N666 C667 1.351 . S
C667 C661 1.428 . S
C667 N666 1.351 . S
C667 C668 1.434 . S
C668 C659 1.429 . S
C668 N665 1.350 . S
C668 C667 1.434 . S
C669 C670 1.369 . S
C669 C671 1.419 1_455 S
C669 H673 0.930 . S
C670 C669 1.369 . S
C670 C679 1.415 1_455 S
C671 C669 1.419 1_655 S
C671 C672 1.363 . S
C671 H674 0.929 . S
C672 C671 1.363 . S
C672 C678 1.428 . S
H673 C669 0.930 . S
H674 C671 0.929 . S
S675 N676 1.613 . S
S675 N677 1.610 . S
N676 S675 1.613 . S
N676 C679 1.353 . S
N677 S675 1.610 . S
N677 C678 1.351 . S
C678 C672 1.428 . S
C678 N677 1.351 . S
C678 C679 1.448 . S
C679 C670 1.415 1_655 S
C679 N676 1.353 . S
C679 C678 1.448 . S
C680 C681 1.369 . S
C680 C682 1.419 . S
C680 H684 0.930 . S
C681 C680 1.369 . S
C681 C690 1.429 . S
C682 C680 1.419 . S
C682 C683 1.363 . S
C682 H685 0.929 . S
C683 C682 1.363 . S
C683 C689 1.428 . S
H684 C680 0.930 . S
H685 C682 0.929 . S
S686 N687 1.613 . S
S686 N688 1.610 . S
N687 S686 1.613 . S
N687 C690 1.350 . S
N688 S686 1.610 . S
N688 C689 1.351 . S
C689 C683 1.428 . S
C689 N688 1.351 . S
C689 C690 1.434 . S
C690 C681 1.429 . S
C690 N687 1.350 . S
C690 C689 1.434 . S
C691 C692 1.369 1_556 S
C691 C693 1.419 1_655 S
C691 H695 0.930 1_556 S
C692 C691 1.369 1_554 S
C692 C701 1.429 1_554 S
C693 C691 1.419 1_455 S
C693 C694 1.363 . S
C693 H696 0.929 . S
C694 C693 1.363 . S
C694 C700 1.428 . S
H695 C691 0.930 1_554 S
H696 C693 0.929 . S
S697 N698 1.613 . S
S697 N699 1.610 1_655 S
N698 S697 1.613 . S
N698 C701 1.350 . S
N699 S697 1.610 1_455 S
N699 C700 1.351 . S
C700 C694 1.428 . S
C700 N699 1.351 . S
C700 C701 1.434 1_455 S
C701 C692 1.429 1_556 S
C701 N698 1.350 . S
C701 C700 1.434 1_655 S
C702 C703 1.369 . S
C702 C704 1.419 . S
C702 H706 0.930 . S
C703 C702 1.369 . S
C703 C712 1.429 . S
C704 C702 1.419 . S
C704 C705 1.363 . S
C704 H707 0.929 . S
C705 C704 1.363 . S
C705 C711 1.428 . S
H706 C702 0.930 . S
H707 C704 0.929 . S
S708 N709 1.613 . S
S708 N710 1.610 . S
N709 S708 1.613 . S
N709 C712 1.350 . S
N710 S708 1.610 . S
N710 C711 1.351 . S
C711 C705 1.428 . S
C711 N710 1.351 . S
C711 C712 1.434 . S
C712 C703 1.429 . S
C712 N709 1.350 . S
C712 C711 1.434 . S
C713 C714 1.369 . S
C713 C715 1.419 . S
C713 H717 0.930 . S
C714 C713 1.369 . S
C714 C723 1.429 . S
C715 C713 1.419 . S
C715 C716 1.363 . S
C715 H718 0.929 . S
C716 C715 1.363 . S
C716 C722 1.428 . S
H717 C713 0.930 . S
H718 C715 0.929 . S
S719 N720 1.613 . S
S719 N721 1.610 . S
N720 S719 1.613 . S
N720 C723 1.350 . S
N721 S719 1.610 . S
N721 C722 1.351 . S
C722 C716 1.428 . S
C722 N721 1.351 . S
C722 C723 1.434 . S
C723 C714 1.429 . S
C723 N720 1.350 . S
C723 C722 1.434 . S
C724 C725 1.369 . S
C724 C726 1.419 . S
C724 H728 0.930 . S
C725 C724 1.369 . S
C725 C734 1.429 . S
C726 C724 1.419 . S
C726 C727 1.363 . S
C726 H729 0.929 . S
C727 C726 1.363 . S
C727 C733 1.428 . S
H728 C724 0.930 . S
H729 C726 0.929 . S
S730 N731 1.613 . S
S730 N732 1.610 . S
N731 S730 1.613 . S
N731 C734 1.350 . S
N732 S730 1.610 . S
N732 C733 1.351 . S
C733 C727 1.428 . S
C733 N732 1.351 . S
C733 C734 1.434 . S
C734 C725 1.429 . S
C734 N731 1.350 . S
C734 C733 1.434 . S
C735 C736 1.369 . S
C735 C737 1.419 . S
C735 H739 0.930 . S
C736 C735 1.369 . S
C736 C745 1.429 . S
C737 C735 1.419 . S
C737 C738 1.363 1_554 S
C737 H740 0.929 1_554 S
C738 C737 1.363 1_556 S
C738 C744 1.428 1_556 S
H739 C735 0.930 . S
H740 C737 0.929 1_556 S
S741 N742 1.613 . S
S741 N743 1.610 . S
N742 S741 1.613 . S
N742 C745 1.350 . S
N743 S741 1.610 . S
N743 C744 1.351 . S
C744 C738 1.428 1_554 S
C744 N743 1.351 . S
C744 C745 1.434 . S
C745 C736 1.429 . S
C745 N742 1.350 . S
C745 C744 1.434 . S
C746 C747 1.369 . S
C746 C748 1.419 . S
C746 H750 0.930 . S
C747 C746 1.369 . S
C747 C756 1.429 . S
C748 C746 1.419 . S
C748 C749 1.363 . S
C748 H751 0.929 . S
C749 C748 1.363 . S
C749 C755 1.428 . S
H750 C746 0.930 . S
H751 C748 0.929 . S
S752 N753 1.613 . S
S752 N754 1.610 . S
N753 S752 1.613 . S
N753 C756 1.350 . S
N754 S752 1.610 . S
N754 C755 1.351 . S
C755 C749 1.428 . S
C755 N754 1.351 . S
C755 C756 1.434 . S
C756 C747 1.429 . S
C756 N753 1.350 . S
C756 C755 1.434 . S
C757 C758 1.369 1_455 S
C757 C759 1.419 . S
C757 H761 0.930 . S
C758 C757 1.369 1_655 S
C758 C767 1.429 . S
C759 C757 1.419 . S
C759 C760 1.363 . S
C759 H762 0.929 . S
C760 C759 1.363 . S
C760 C766 1.428 1_455 S
H761 C757 0.930 . S
H762 C759 0.929 . S
S763 N764 1.613 . S
S763 N765 1.610 . S
N764 S763 1.613 . S
N764 C767 1.350 . S
N765 S763 1.610 . S
N765 C766 1.351 . S
C766 C760 1.428 1_655 S
C766 N765 1.351 . S
C766 C767 1.434 . S
C767 C758 1.429 . S
C767 N764 1.350 . S
C767 C766 1.434 . S
C768 C769 1.369 . S
C768 C770 1.419 . S
C768 H772 0.930 . S
C769 C768 1.369 . S
C769 C778 1.429 . S
C770 C768 1.419 . S
C770 C771 1.363 . S
C770 H773 0.929 . S
C771 C770 1.363 . S
C771 C777 1.428 . S
H772 C768 0.930 . S
H773 C770 0.929 . S
S774 N775 1.613 . S
S774 N776 1.610 . S
N775 S774 1.613 . S
N775 C778 1.350 . S
N776 S774 1.610 . S
N776 C777 1.351 . S
C777 C771 1.428 . S
C777 N776 1.351 . S
C777 C778 1.434 . S
C778 C769 1.429 . S
C778 N775 1.350 . S
C778 C777 1.434 . S
C779 C780 1.369 . S
C779 C781 1.419 . S
C779 H783 0.930 . S
C780 C779 1.369 . S
C780 C789 1.429 . S
C781 C779 1.419 . S
C781 C782 1.363 . S
C781 H784 0.929 . S
C782 C781 1.363 . S
C782 C788 1.428 . S
H783 C779 0.930 . S
H784 C781 0.929 . S
S785 N786 1.613 . S
S785 N787 1.610 . S
N786 S785 1.613 . S
N786 C789 1.350 . S
N787 S785 1.610 . S
N787 C788 1.351 . S
C788 C782 1.428 . S
C788 N787 1.351 . S
C788 C789 1.434 . S
C789 C780 1.429 . S
C789 N786 1.350 . S
C789 C788 1.434 . S
C790 C791 1.369 . S
C790 C792 1.419 . S
C790 H794 0.930 . S
C791 C790 1.369 . S
C791 C800 1.429 . S
C792 C790 1.419 . S
C792 C793 1.363 . S
C792 H795 0.929 . S
C793 C792 1.363 . S
C793 C799 1.428 . S
H794 C790 0.930 . S
H795 C792 0.929 . S
S796 N797 1.613 . S
S796 N798 1.610 . S
N797 S796 1.613 . S
N797 C800 1.350 . S
N798 S796 1.610 . S
N798 C799 1.351 . S
C799 C793 1.428 . S
C799 N798 1.351 . S
C799 C800 1.434 . S
C800 C791 1.429 . S
C800 N797 1.350 . S
C800 C799 1.434 . S
C801 C802 1.369 . S
C801 C803 1.419 1_554 S
C801 H805 0.930 . S
C802 C801 1.369 . S
C802 C811 1.429 1_455 S
C803 C801 1.419 1_556 S
C803 C804 1.363 1_455 S
C803 H806 0.929 . S
C804 C803 1.363 1_655 S
C804 C810 1.428 1_556 S
H805 C801 0.930 . S
H806 C803 0.929 . S
S807 N808 1.613 . S
S807 N809 1.610 . S
N808 S807 1.613 . S
N808 C811 1.350 . S
N809 S807 1.610 . S
N809 C810 1.351 . S
C810 C804 1.428 1_554 S
C810 N809 1.351 . S
C810 C811 1.434 . S
C811 C802 1.429 1_655 S
C811 N808 1.350 . S
C811 C810 1.434 . S
C812 C813 1.369 . S
C812 C814 1.419 . S
C812 H816 0.930 . S
C813 C812 1.369 . S
C813 C822 1.429 . S
C814 C812 1.419 . S
C814 C815 1.363 . S
C814 H817 0.929 . S
C815 C814 1.363 . S
C815 C821 1.428 . S
H816 C812 0.930 . S
H817 C814 0.929 . S
S818 N819 1.613 . S
S818 N820 1.610 . S
N819 S818 1.613 . S
N819 C822 1.350 . S
N820 S818 1.610 . S
N820 C821 1.351 . S
C821 C815 1.428 . S
C821 N820 1.351 . S
C821 C822 1.434 . S
C822 C813 1.429 . S
C822 N819 1.350 . S
C822 C821 1.434 . S
C823 C824 1.369 1_455 S
C823 C825 1.419 . S
C823 H827 0.930 . S
C824 C823 1.369 1_655 S
C824 C833 1.429 . S
C825 C823 1.419 . S
C825 C826 1.363 . S
C825 H828 0.929 . S
C826 C825 1.363 . S
C826 C832 1.428 1_455 S
H827 C823 0.930 . S
H828 C825 0.929 . S
S829 N830 1.613 . S
S829 N831 1.610 . S
N830 S829 1.613 . S
N830 C833 1.350 . S
N831 S829 1.610 . S
N831 C832 1.351 . S
C832 C826 1.428 1_655 S
C832 N831 1.351 . S
C832 C833 1.434 . S
C833 C824 1.429 . S
C833 N830 1.350 . S
C833 C832 1.434 . S
C834 C835 1.369 . S
C834 C836 1.419 . S
C834 H838 0.930 . S
C835 C834 1.369 . S
C835 C844 1.429 . S
C836 C834 1.419 . S
C836 C837 1.363 . S
C836 H839 0.929 . S
C837 C836 1.363 . S
C837 C843 1.428 . S
H838 C834 0.930 . S
H839 C836 0.929 . S
S840 N841 1.613 . S
S840 N842 1.610 . S
N841 S840 1.613 . S
N841 C844 1.350 . S
N842 S840 1.610 . S
N842 C843 1.351 . S
C843 C837 1.428 . S
C843 N842 1.351 . S
C843 C844 1.434 . S
C844 C835 1.429 . S
C844 N841 1.350 . S
C844 C843 1.434 . S
C845 C846 1.369 1_556 S
C845 C847 1.419 . S
C845 H849 0.930 . S
C846 C845 1.369 1_554 S
C846 C855 1.429 1_554 S
C847 C845 1.419 . S
C847 C848 1.363 . S
C847 H850 0.929 . S
C848 C847 1.363 . S
C848 C854 1.428 . S
H849 C845 0.930 . S
H850 C847 0.929 . S
S851 N852 1.613 1_556 S
S851 N853 1.610 . S
N852 S851 1.613 1_554 S
N852 C855 1.350 1_554 S
N853 S851 1.610 . S
N853 C854 1.351 . S
C854 C848 1.428 . S
C854 N853 1.351 . S
C854 C855 1.434 . S
C855 C846 1.429 1_556 S
C855 N852 1.350 1_556 S
C855 C854 1.434 . S
C856 C857 1.369 . S
C856 C858 1.419 . S
C856 H860 0.930 . S
C857 C856 1.369 . S
C857 C866 1.429 . S
C858 C856 1.419 . S
C858 C859 1.363 . S
C858 H861 0.929 . S
C859 C858 1.363 . S
C859 C865 1.428 . S
H860 C856 0.930 . S
H861 C858 0.929 . S
S862 N863 1.613 . S
S862 N864 1.610 . S
N863 S862 1.613 . S
N863 C866 1.350 . S
N864 S862 1.610 . S
N864 C865 1.351 . S
C865 C859 1.428 . S
C865 N864 1.351 . S
C865 C866 1.434 . S
C866 C857 1.429 . S
C866 N863 1.350 . S
C866 C865 1.434 . S
C867 C868 1.369 . S
C867 C869 1.419 . S
C867 H871 0.930 . S
C868 C867 1.369 . S
C868 C877 1.429 . S
C869 C867 1.419 . S
C869 C870 1.363 . S
C869 H872 0.929 . S
C870 C869 1.363 . S
C870 C876 1.428 . S
H871 C867 0.930 . S
H872 C869 0.929 . S
S873 N874 1.613 . S
S873 N875 1.610 . S
N874 S873 1.613 . S
N874 C877 1.350 . S
N875 S873 1.610 . S
N875 C876 1.351 . S
C876 C870 1.428 . S
C876 N875 1.351 . S
C876 C877 1.434 . S
C877 C868 1.429 . S
C877 N874 1.350 . S
C877 C876 1.434 . S
C878 C879 1.369 . S
C878 C880 1.419 . S
C878 H882 0.930 . S
C879 C878 1.369 . S
C879 C888 1.429 . S
C880 C878 1.419 . S
C880 C881 1.363 . S
C880 H883 0.929 . S
C881 C880 1.363 . S
C881 C887 1.428 . S
H882 C878 0.930 . S
H883 C880 0.929 . S
S884 N885 1.613 . S
S884 N886 1.610 . S
N885 S884 1.613 . S
N885 C888 1.350 . S
N886 S884 1.610 . S
N886 C887 1.351 . S
C887 C881 1.428 . S
C887 N886 1.351 . S
C887 C888 1.434 . S
C888 C879 1.429 . S
C888 N885 1.350 . S
C888 C887 1.434 . S
C889 C890 1.369 . S
C889 C891 1.419 1_556 S
C889 H893 0.930 . S
C890 C889 1.369 . S
C890 C899 1.429 1_655 S
C891 C889 1.419 1_554 S
C891 C892 1.363 1_655 S
C891 H894 0.929 . S
C892 C891 1.363 1_455 S
C892 C898 1.428 1_554 S
H893 C889 0.930 . S
H894 C891 0.929 . S
S895 N896 1.613 . S
S895 N897 1.610 . S
N896 S895 1.613 . S
N896 C899 1.350 . S
N897 S895 1.610 . S
N897 C898 1.351 . S
C898 C892 1.428 1_556 S
C898 N897 1.351 . S
C898 C899 1.434 . S
C899 C890 1.429 1_455 S
C899 N896 1.350 . S
C899 C898 1.434 . S
C900 C901 1.369 . S
C900 C902 1.419 . S
C900 H904 0.930 . S
C901 C900 1.369 . S
C901 C910 1.429 . S
C902 C900 1.419 . S
C902 C903 1.363 . S
C902 H905 0.929 . S
C903 C902 1.363 . S
C903 C909 1.428 . S
H904 C900 0.930 . S
H905 C902 0.929 . S
S906 N907 1.613 . S
S906 N908 1.610 . S
N907 S906 1.613 . S
N907 C910 1.350 . S
N908 S906 1.610 . S
N908 C909 1.351 . S
C909 C903 1.428 . S
C909 N908 1.351 . S
C909 C910 1.434 . S
C910 C901 1.429 . S
C910 N907 1.350 . S
C910 C909 1.434 . S
C911 C912 1.369 . S
C911 C913 1.419 1_655 S
C911 H915 0.930 . S
C912 C911 1.369 . S
C912 C921 1.429 . S
C913 C911 1.419 1_455 S
C913 C914 1.363 . S
C913 H916 0.929 . S
C914 C913 1.363 . S
C914 C920 1.428 . S
H915 C911 0.930 . S
H916 C913 0.929 . S
S917 N918 1.613 1_455 S
S917 N919 1.610 . S
N918 S917 1.613 1_655 S
N918 C921 1.350 . S
N919 S917 1.610 . S
N919 C920 1.351 . S
C920 C914 1.428 . S
C920 N919 1.351 . S
C920 C921 1.434 1_455 S
C921 C912 1.429 . S
C921 N918 1.350 . S
C921 C920 1.434 1_655 S
C922 C923 1.369 . S
C922 C924 1.419 . S
C922 H926 0.930 . S
C923 C922 1.369 . S
C923 C932 1.429 . S
C924 C922 1.419 . S
C924 C925 1.363 . S
C924 H927 0.929 . S
C925 C924 1.363 . S
C925 C931 1.428 . S
H926 C922 0.930 . S
H927 C924 0.929 . S
S928 N929 1.613 . S
S928 N930 1.610 . S
N929 S928 1.613 . S
N929 C932 1.350 . S
N930 S928 1.610 . S
N930 C931 1.351 . S
C931 C925 1.428 . S
C931 N930 1.351 . S
C931 C932 1.434 . S
C932 C923 1.429 . S
C932 N929 1.350 . S
C932 C931 1.434 . S
C933 C934 1.369 . S
C933 C935 1.419 . S
C933 H937 0.930 . S
C934 C933 1.369 . S
C934 C943 1.429 . S
C935 C933 1.419 . S
C935 C936 1.363 1_554 S
C935 H938 0.929 1_554 S
C936 C935 1.363 1_556 S
C936 C942 1.428 1_556 S
H937 C933 0.930 . S
H938 C935 0.929 1_556 S
S939 N940 1.613 . S
S939 N941 1.610 . S
N940 S939 1.613 . S
N940 C943 1.350 . S
N941 S939 1.610 . S
N941 C942 1.351 . S
C942 C936 1.428 1_554 S
C942 N941 1.351 . S
C942 C943 1.434 . S
C943 C934 1.429 . S
C943 N940 1.350 . S
C943 C942 1.434 . S
C944 C945 1.369 . S
C944 C946 1.419 . S
C944 H948 0.930 . S
C945 C944 1.369 . S
C945 C954 1.429 . S
C946 C944 1.419 . S
C946 C947 1.363 . S
C946 H949 0.929 . S
C947 C946 1.363 . S
C947 C953 1.428 . S
H948 C944 0.930 . S
H949 C946 0.929 . S
S950 N951 1.613 . S
S950 N952 1.610 . S
N951 S950 1.613 . S
N951 C954 1.350 . S
N952 S950 1.610 . S
N952 C953 1.351 . S
C953 C947 1.428 . S
C953 N952 1.351 . S
C953 C954 1.434 . S
C954 C945 1.429 . S
C954 N951 1.350 . S
C954 C953 1.434 . S
C955 C956 1.369 . S
C955 C957 1.419 . S
C955 H959 0.930 . S
C956 C955 1.369 . S
C956 C965 1.429 . S
C957 C955 1.419 . S
C957 C958 1.363 . S
C957 H960 0.929 . S
C958 C957 1.363 . S
C958 C964 1.428 . S
H959 C955 0.930 . S
H960 C957 0.929 . S
S961 N962 1.613 . S
S961 N963 1.610 . S
N962 S961 1.613 . S
N962 C965 1.350 . S
N963 S961 1.610 . S
N963 C964 1.351 . S
C964 C958 1.428 . S
C964 N963 1.351 . S
C964 C965 1.434 . S
C965 C956 1.429 . S
C965 N962 1.350 . S
C965 C964 1.434 . S
C966 C967 1.369 . S
C966 C968 1.419 . S
C966 H970 0.930 . S
C967 C966 1.369 . S
C967 C976 1.429 . S
C968 C966 1.419 . S
C968 C969 1.363 . S
C968 H971 0.929 . S
C969 C968 1.363 . S
C969 C975 1.428 . S
H970 C966 0.930 . S
H971 C968 0.929 . S
S972 N973 1.613 . S
S972 N974 1.610 . S
N973 S972 1.613 . S
N973 C976 1.350 . S
N974 S972 1.610 . S
N974 C975 1.351 . S
C975 C969 1.428 . S
C975 N974 1.351 . S
C975 C976 1.434 . S
C976 C967 1.429 . S
C976 N973 1.350 . S
C976 C975 1.434 . S
C977 C978 1.369 . S
C977 C979 1.419 . S
C977 H981 0.930 . S
C978 C977 1.369 . S
C978 C987 1.429 . S
C979 C977 1.419 . S
C979 C980 1.363 . S
C979 H982 0.929 . S
C980 C979 1.363 . S
C980 C986 1.428 . S
H981 C977 0.930 . S
H982 C979 0.929 . S
S983 N984 1.613 . S
S983 N985 1.610 . S
N984 S983 1.613 . S
N984 C987 1.350 . S
N985 S983 1.610 . S
N985 C986 1.351 . S
C986 C980 1.428 . S
C986 N985 1.351 . S
C986 C987 1.434 . S
C987 C978 1.429 . S
C987 N984 1.350 . S
C987 C986 1.434 . S
C988 C989 1.369 . S
C988 C990 1.419 . S
C988 H992 0.930 . S
C989 C988 1.369 . S
C989 C998 1.429 . S
C990 C988 1.419 . S
C990 C991 1.363 . S
C990 H993 0.929 . S
C991 C990 1.363 . S
C991 C997 1.428 . S
H992 C988 0.930 . S
H993 C990 0.929 . S
S994 N995 1.613 . S
S994 N996 1.610 . S
N995 S994 1.613 . S
N995 C998 1.350 . S
N996 S994 1.610 . S
N996 C997 1.351 . S
C997 C991 1.428 . S
C997 N996 1.351 . S
C997 C998 1.434 . S
C998 C989 1.429 . S
C998 N995 1.350 . S
C998 C997 1.434 . S
C999 C1000 1.369 . S
C999 C1001 1.419 . S
C999 H1003 0.930 . S
C1000 C999 1.369 . S
C1000 C1009 1.429 . S
C1001 C999 1.419 . S
C1001 C1002 1.363 . S
C1001 H1004 0.929 . S
C1002 C1001 1.363 . S
C1002 C1008 1.428 . S
H1003 C999 0.930 . S
H1004 C1001 0.929 . S
S1005 N1006 1.613 . S
S1005 N1007 1.610 . S
N1006 S1005 1.613 . S
N1006 C1009 1.350 . S
N1007 S1005 1.610 . S
N1007 C1008 1.351 . S
C1008 C1002 1.428 . S
C1008 N1007 1.351 . S
C1008 C1009 1.434 . S
C1009 C1000 1.429 . S
C1009 N1006 1.350 . S
C1009 C1008 1.434 . S
C1010 C1011 1.369 . S
C1010 C1012 1.419 . S
C1010 H1014 0.930 . S
C1011 C1010 1.369 . S
C1011 C1020 1.429 . S
C1012 C1010 1.419 . S
C1012 C1013 1.363 . S
C1012 H1015 0.929 . S
C1013 C1012 1.363 . S
C1013 C1019 1.428 . S
H1014 C1010 0.930 . S
H1015 C1012 0.929 . S
S1016 N1017 1.613 . S
S1016 N1018 1.610 . S
N1017 S1016 1.613 . S
N1017 C1020 1.350 . S
N1018 S1016 1.610 . S
N1018 C1019 1.351 . S
C1019 C1013 1.428 . S
C1019 N1018 1.351 . S
C1019 C1020 1.434 . S
C1020 C1011 1.429 . S
C1020 N1017 1.350 . S
C1020 C1019 1.434 . S
C1021 C1022 1.369 . S
C1021 C1023 1.419 . S
C1021 H1025 0.930 . S
C1022 C1021 1.369 . S
C1022 C1031 1.429 . S
C1023 C1021 1.419 . S
C1023 C1024 1.363 . S
C1023 H1026 0.929 . S
C1024 C1023 1.363 . S
C1024 C1030 1.428 . S
H1025 C1021 0.930 . S
H1026 C1023 0.929 . S
S1027 N1028 1.613 . S
S1027 N1029 1.610 . S
N1028 S1027 1.613 . S
N1028 C1031 1.350 . S
N1029 S1027 1.610 . S
N1029 C1030 1.351 . S
C1030 C1024 1.428 . S
C1030 N1029 1.351 . S
C1030 C1031 1.434 . S
C1031 C1022 1.429 . S
C1031 N1028 1.350 . S
C1031 C1030 1.434 . S
C1032 C1033 1.369 . S
C1032 C1034 1.419 . S
C1032 H1036 0.930 . S
C1033 C1032 1.369 . S
C1033 C1042 1.429 . S
C1034 C1032 1.419 . S
C1034 C1035 1.363 . S
C1034 H1037 0.929 . S
C1035 C1034 1.363 . S
C1035 C1041 1.428 . S
H1036 C1032 0.930 . S
H1037 C1034 0.929 . S
S1038 N1039 1.613 . S
S1038 N1040 1.610 . S
N1039 S1038 1.613 . S
N1039 C1042 1.350 . S
N1040 S1038 1.610 . S
N1040 C1041 1.351 . S
C1041 C1035 1.428 . S
C1041 N1040 1.351 . S
C1041 C1042 1.434 . S
C1042 C1033 1.429 . S
C1042 N1039 1.350 . S
C1042 C1041 1.434 . S
C1043 C1044 1.369 . S
C1043 C1045 1.419 . S
C1043 H1047 0.930 . S
C1044 C1043 1.369 . S
C1044 C1053 1.429 . S
C1045 C1043 1.419 . S
C1045 C1046 1.363 . S
C1045 H1048 0.929 . S
C1046 C1045 1.363 . S
C1046 C1052 1.428 . S
H1047 C1043 0.930 . S
H1048 C1045 0.929 . S
S1049 N1050 1.613 . S
S1049 N1051 1.610 . S
N1050 S1049 1.613 . S
N1050 C1053 1.350 . S
N1051 S1049 1.610 . S
N1051 C1052 1.351 . S
C1052 C1046 1.428 . S
C1052 N1051 1.351 . S
C1052 C1053 1.434 . S
C1053 C1044 1.429 . S
C1053 N1050 1.350 . S
C1053 C1052 1.434 . S
C1054 C1055 1.369 . S
C1054 C1056 1.419 . S
C1054 H1058 0.930 . S
C1055 C1054 1.369 . S
C1055 C1064 1.429 . S
C1056 C1054 1.419 . S
C1056 C1057 1.363 . S
C1056 H1059 0.929 . S
C1057 C1056 1.363 . S
C1057 C1063 1.428 . S
H1058 C1054 0.930 . S
H1059 C1056 0.929 . S
S1060 N1061 1.613 . S
S1060 N1062 1.610 . S
N1061 S1060 1.613 . S
N1061 C1064 1.350 . S
N1062 S1060 1.610 . S
N1062 C1063 1.351 . S
C1063 C1057 1.428 . S
C1063 N1062 1.351 . S
C1063 C1064 1.434 . S
C1064 C1055 1.429 . S
C1064 N1061 1.350 . S
C1064 C1063 1.434 . S
C1065 C1066 1.369 . S
C1065 C1067 1.419 . S
C1065 H1069 0.930 . S
C1066 C1065 1.369 . S
C1066 C1075 1.429 . S
C1067 C1065 1.419 . S
C1067 C1068 1.363 . S
C1067 H1070 0.929 . S
C1068 C1067 1.363 . S
C1068 C1074 1.428 . S
H1069 C1065 0.930 . S
H1070 C1067 0.929 . S
S1071 N1072 1.613 . S
S1071 N1073 1.610 1_556 S
N1072 S1071 1.613 . S
N1072 C1075 1.350 1_556 S
N1073 S1071 1.610 1_554 S
N1073 C1074 1.351 . S
C1074 C1068 1.428 . S
C1074 N1073 1.351 . S
C1074 C1075 1.434 . S
C1075 C1066 1.429 . S
C1075 N1072 1.350 1_554 S
C1075 C1074 1.434 . S
C1076 C1077 1.369 . S
C1076 C1078 1.419 . S
C1076 H1080 0.930 . S
C1077 C1076 1.369 . S
C1077 C1086 1.429 . S
C1078 C1076 1.419 . S
C1078 C1079 1.363 . S
C1078 H1081 0.929 . S
C1079 C1078 1.363 . S
C1079 C1085 1.428 . S
H1080 C1076 0.930 . S
H1081 C1078 0.929 . S
S1082 N1083 1.613 . S
S1082 N1084 1.610 . S
N1083 S1082 1.613 . S
N1083 C1086 1.350 . S
N1084 S1082 1.610 . S
N1084 C1085 1.351 . S
C1085 C1079 1.428 . S
C1085 N1084 1.351 . S
C1085 C1086 1.434 . S
C1086 C1077 1.429 . S
C1086 N1083 1.350 . S
C1086 C1085 1.434 . S
C1087 C1088 1.369 . S
C1087 C1089 1.419 . S
C1087 H1091 0.930 . S
C1088 C1087 1.369 . S
C1088 C1097 1.429 . S
C1089 C1087 1.419 . S
C1089 C1090 1.363 . S
C1089 H1092 0.929 . S
C1090 C1089 1.363 . S
C1090 C1096 1.428 . S
H1091 C1087 0.930 . S
H1092 C1089 0.929 . S
S1093 N1094 1.613 . S
S1093 N1095 1.610 . S
N1094 S1093 1.613 . S
N1094 C1097 1.350 . S
N1095 S1093 1.610 . S
N1095 C1096 1.351 . S
C1096 C1090 1.428 . S
C1096 N1095 1.351 . S
C1096 C1097 1.434 . S
C1097 C1088 1.429 . S
C1097 N1094 1.350 . S
C1097 C1096 1.434 . S
C1098 C1099 1.369 . S
C1098 C1100 1.419 . S
C1098 H1102 0.930 . S
C1099 C1098 1.369 . S
C1099 C1108 1.429 . S
C1100 C1098 1.419 . S
C1100 C1101 1.363 . S
C1100 H1103 0.929 . S
C1101 C1100 1.363 . S
C1101 C1107 1.428 . S
H1102 C1098 0.930 . S
H1103 C1100 0.929 . S
S1104 N1105 1.613 . S
S1104 N1106 1.610 . S
N1105 S1104 1.613 . S
N1105 C1108 1.350 . S
N1106 S1104 1.610 . S
N1106 C1107 1.351 . S
C1107 C1101 1.428 . S
C1107 N1106 1.351 . S
C1107 C1108 1.434 . S
C1108 C1099 1.429 . S
C1108 N1105 1.350 . S
C1108 C1107 1.434 . S
C1109 C1110 1.369 . S
C1109 C1111 1.419 . S
C1109 H1113 0.930 . S
C1110 C1109 1.369 . S
C1110 C1119 1.429 . S
C1111 C1109 1.419 . S
C1111 C1112 1.363 . S
C1111 H1114 0.929 . S
C1112 C1111 1.363 . S
C1112 C1118 1.428 . S
H1113 C1109 0.930 . S
H1114 C1111 0.929 . S
S1115 N1116 1.613 . S
S1115 N1117 1.610 . S
N1116 S1115 1.613 . S
N1116 C1119 1.350 . S
N1117 S1115 1.610 . S
N1117 C1118 1.351 . S
C1118 C1112 1.428 . S
C1118 N1117 1.351 . S
C1118 C1119 1.434 . S
C1119 C1110 1.429 . S
C1119 N1116 1.350 . S
C1119 C1118 1.434 . S
C417 C83 1.326 . S
C419 C5 1.329 . S
C428 C18 1.328 . S
C430 C96 1.328 . S
C439 C57 1.333 . S
C441 C31 1.336 . S
C450 C44 1.335 . S
C452 C70 1.336 . S
C461 C187 1.337 . S
C463 C109 1.336 . S
C472 C200 1.331 . S
C474 C122 1.328 . S
C483 C135 1.330 . S
C485 C161 1.328 . S
C494 C148 1.336 . S
C496 C174 1.336 . S
C505 C213 1.338 . S
C507 C291 1.334 . S
C516 C226 1.327 . S
C518 C304 1.328 . S
C527 C265 1.338 . S
C529 C239 1.334 . S
C538 C278 1.335 . S
C540 C252 1.329 . S
C549 C317 1.332 . S
C551 C395 1.328 . S
C560 C408 1.327 . S
C562 C330 1.331 . S
C571 C369 1.331 . S
C573 C343 1.335 . S
C582 C356 1.327 . S
C584 C382 1.332 . S
C593 C10 1.386 . S
C595 C398 1.396 . S
C604 C203 1.399 . S
C606 C23 1.389 . S
C615 C36 1.390 . S
C617 C372 1.394 . S
C626 C49 1.389 . S
C628 C177 1.398 . S
C637 C346 1.393 . S
C639 C62 1.387 . S
C648 C151 1.398 . S
C650 C75 1.388 . S
C659 C88 1.390 . S
C661 C320 1.399 . S
C670 C125 1.398 . S
C672 C101 1.392 . S
C681 C114 1.386 . S
C683 C294 1.395 . S
C692 C99 1.393 . S
C694 C127 1.387 . S
C703 C140 1.387 . S
C705 C268 1.397 . S
C714 C153 1.386 . S
C716 C73 1.395 . S
C725 C242 1.398 . S
C727 C166 1.389 . S
C736 C179 1.392 . S
C738 C47 1.399 . S
C747 C192 1.392 . S
C749 C216 1.396 . S
C758 C21 1.395 . S
C760 C205 1.387 . S
C769 C218 1.386 . S
C771 C190 1.396 . S
C780 C231 1.393 . S
C782 C411 1.397 . S
C791 C164 1.399 . S
C793 C244 1.389 . S
C802 C257 1.386 . S
C804 C385 1.397 . S
C813 C138 1.399 . S
C815 C270 1.390 . S
C824 C359 1.399 . S
C826 C283 1.390 . S
C835 C112 1.394 . S
C837 C296 1.386 . S
C846 C333 1.399 . S
C848 C309 1.392 . S
C857 C322 1.393 . S
C859 C86 1.397 . S
C868 C307 1.399 . S
C870 C335 1.390 . S
C879 C60 1.397 . S
C881 C348 1.388 . S
C890 C361 1.390 . S
C892 C281 1.399 . S
C901 C374 1.391 . S
C903 C34 1.396 . S
C912 C387 1.386 . S
C914 C255 1.394 . S
C923 C8 1.399 . S
C925 C400 1.392 . S
C934 C413 1.392 . S
C936 C229 1.399 . S
C945 C0 1.289 . S
C947 C273 1.287 . S
C956 C286 1.289 . S
C958 C13 1.287 . S
C967 C26 1.291 . S
C969 C299 1.290 . S
C978 C260 1.285 . S
C980 C39 1.286 . S
C989 C247 1.286 . S
C991 C52 1.287 . S
C1000 C208 1.291 . S
C1002 C65 1.290 . S
C1011 C221 1.286 . S
C1013 C78 1.286 . S
C1022 C234 1.290 . S
C1024 C91 1.289 . S
C1033 C104 1.288 . S
C1035 C377 1.286 . S
C1044 C390 1.286 . S
C1046 C117 1.287 . S
C1055 C403 1.287 . S
C1057 C130 1.286 . S
C1066 C364 1.286 . S
C1068 C143 1.287 . S
C1077 C351 1.291 . S
C1079 C156 1.290 . S
C1088 C312 1.291 . S
C1090 C169 1.290 . S
C1099 C182 1.291 . S
C1101 C325 1.290 . S
C1110 C195 1.285 . S
C1112 C338 1.287 . S
