# Generated by pormake.
# Topology uox, (4)-cn, num edge types: 1
# Building blocks:
#     Node 0, Type 0, BuildingBlock: QUQFOY_clean_sbu_3, # of connection points: 4
#     Node 1, Type 0, BuildingBlock: QUQFOY_clean_sbu_3, # of connection points: 4
#     Node 2, Type 0, BuildingBlock: QUQFOY_clean_sbu_3, # of connection points: 4
#     Node 3, Type 0, BuildingBlock: QUQFOY_clean_sbu_3, # of connection points: 4
#     Node 4, Type 0, BuildingBlock: QUQFOY_clean_sbu_3, # of connection points: 4
#     Node 5, Type 0, BuildingBlock: QUQFOY_clean_sbu_3, # of connection points: 4
#     Node 6, Type 0, BuildingBlock: QUQFOY_clean_sbu_3, # of connection points: 4
#     Node 7, Type 0, BuildingBlock: QUQFOY_clean_sbu_3, # of connection points: 4
#     Node 8, Type 0, BuildingBlock: QUQFOY_clean_sbu_3, # of connection points: 4
#     Node 9, Type 0, BuildingBlock: QUQFOY_clean_sbu_3, # of connection points: 4
#     Node 10, Type 0, BuildingBlock: QUQFOY_clean_sbu_3, # of connection points: 4
#     Node 11, Type 0, BuildingBlock: QUQFOY_clean_sbu_3, # of connection points: 4
#     Node 12, Type 0, BuildingBlock: QUQFOY_clean_sbu_3, # of connection points: 4
#     Node 13, Type 0, BuildingBlock: QUQFOY_clean_sbu_3, # of connection points: 4
#     Node 14, Type 0, BuildingBlock: QUQFOY_clean_sbu_3, # of connection points: 4
#     Node 15, Type 0, BuildingBlock: QUQFOY_clean_sbu_3, # of connection points: 4
#     Node 16, Type 0, BuildingBlock: QUQFOY_clean_sbu_3, # of connection points: 4
#     Node 17, Type 0, BuildingBlock: QUQFOY_clean_sbu_3, # of connection points: 4
#     Node 18, Type 0, BuildingBlock: QUQFOY_clean_sbu_3, # of connection points: 4
#     Node 19, Type 0, BuildingBlock: QUQFOY_clean_sbu_3, # of connection points: 4
#     Node 20, Type 0, BuildingBlock: QUQFOY_clean_sbu_3, # of connection points: 4
#     Node 21, Type 0, BuildingBlock: QUQFOY_clean_sbu_3, # of connection points: 4
#     Node 22, Type 0, BuildingBlock: QUQFOY_clean_sbu_3, # of connection points: 4
#     Node 23, Type 0, BuildingBlock: QUQFOY_clean_sbu_3, # of connection points: 4
#     Node 24, Type 0, BuildingBlock: QUQFOY_clean_sbu_3, # of connection points: 4
#     Node 25, Type 0, BuildingBlock: QUQFOY_clean_sbu_3, # of connection points: 4
#     Node 26, Type 0, BuildingBlock: QUQFOY_clean_sbu_3, # of connection points: 4
#     Node 27, Type 0, BuildingBlock: QUQFOY_clean_sbu_3, # of connection points: 4
#     Node 28, Type 0, BuildingBlock: QUQFOY_clean_sbu_3, # of connection points: 4
#     Node 29, Type 0, BuildingBlock: QUQFOY_clean_sbu_3, # of connection points: 4
#     Node 30, Type 0, BuildingBlock: QUQFOY_clean_sbu_3, # of connection points: 4
#     Node 31, Type 0, BuildingBlock: QUQFOY_clean_sbu_3, # of connection points: 4
#     Edge 32, Type (0, 0), BuildingBlock: EZIPEK_clean_linker_0, # of connection points: 2
#     Edge 33, Type (0, 0), BuildingBlock: EZIPEK_clean_linker_0, # of connection points: 2
#     Edge 34, Type (0, 0), BuildingBlock: EZIPEK_clean_linker_0, # of connection points: 2
#     Edge 35, Type (0, 0), BuildingBlock: EZIPEK_clean_linker_0, # of connection points: 2
#     Edge 36, Type (0, 0), BuildingBlock: EZIPEK_clean_linker_0, # of connection points: 2
#     Edge 37, Type (0, 0), BuildingBlock: EZIPEK_clean_linker_0, # of connection points: 2
#     Edge 38, Type (0, 0), BuildingBlock: EZIPEK_clean_linker_0, # of connection points: 2
#     Edge 39, Type (0, 0), BuildingBlock: EZIPEK_clean_linker_0, # of connection points: 2
#     Edge 40, Type (0, 0), BuildingBlock: EZIPEK_clean_linker_0, # of connection points: 2
#     Edge 41, Type (0, 0), BuildingBlock: EZIPEK_clean_linker_0, # of connection points: 2
#     Edge 42, Type (0, 0), BuildingBlock: EZIPEK_clean_linker_0, # of connection points: 2
#     Edge 43, Type (0, 0), BuildingBlock: EZIPEK_clean_linker_0, # of connection points: 2
#     Edge 44, Type (0, 0), BuildingBlock: EZIPEK_clean_linker_0, # of connection points: 2
#     Edge 45, Type (0, 0), BuildingBlock: EZIPEK_clean_linker_0, # of connection points: 2
#     Edge 46, Type (0, 0), BuildingBlock: EZIPEK_clean_linker_0, # of connection points: 2
#     Edge 47, Type (0, 0), BuildingBlock: EZIPEK_clean_linker_0, # of connection points: 2
#     Edge 48, Type (0, 0), BuildingBlock: EZIPEK_clean_linker_0, # of connection points: 2
#     Edge 49, Type (0, 0), BuildingBlock: EZIPEK_clean_linker_0, # of connection points: 2
#     Edge 50, Type (0, 0), BuildingBlock: EZIPEK_clean_linker_0, # of connection points: 2
#     Edge 51, Type (0, 0), BuildingBlock: EZIPEK_clean_linker_0, # of connection points: 2
#     Edge 52, Type (0, 0), BuildingBlock: EZIPEK_clean_linker_0, # of connection points: 2
#     Edge 53, Type (0, 0), BuildingBlock: EZIPEK_clean_linker_0, # of connection points: 2
#     Edge 54, Type (0, 0), BuildingBlock: EZIPEK_clean_linker_0, # of connection points: 2
#     Edge 55, Type (0, 0), BuildingBlock: EZIPEK_clean_linker_0, # of connection points: 2
#     Edge 56, Type (0, 0), BuildingBlock: EZIPEK_clean_linker_0, # of connection points: 2
#     Edge 57, Type (0, 0), BuildingBlock: EZIPEK_clean_linker_0, # of connection points: 2
#     Edge 58, Type (0, 0), BuildingBlock: EZIPEK_clean_linker_0, # of connection points: 2
#     Edge 59, Type (0, 0), BuildingBlock: EZIPEK_clean_linker_0, # of connection points: 2
#     Edge 60, Type (0, 0), BuildingBlock: EZIPEK_clean_linker_0, # of connection points: 2
#     Edge 61, Type (0, 0), BuildingBlock: EZIPEK_clean_linker_0, # of connection points: 2
#     Edge 62, Type (0, 0), BuildingBlock: EZIPEK_clean_linker_0, # of connection points: 2
#     Edge 63, Type (0, 0), BuildingBlock: EZIPEK_clean_linker_0, # of connection points: 2
#     Edge 64, Type (0, 0), BuildingBlock: EZIPEK_clean_linker_0, # of connection points: 2
#     Edge 65, Type (0, 0), BuildingBlock: EZIPEK_clean_linker_0, # of connection points: 2
#     Edge 66, Type (0, 0), BuildingBlock: EZIPEK_clean_linker_0, # of connection points: 2
#     Edge 67, Type (0, 0), BuildingBlock: EZIPEK_clean_linker_0, # of connection points: 2
#     Edge 68, Type (0, 0), BuildingBlock: EZIPEK_clean_linker_0, # of connection points: 2
#     Edge 69, Type (0, 0), BuildingBlock: EZIPEK_clean_linker_0, # of connection points: 2
#     Edge 70, Type (0, 0), BuildingBlock: EZIPEK_clean_linker_0, # of connection points: 2
#     Edge 71, Type (0, 0), BuildingBlock: EZIPEK_clean_linker_0, # of connection points: 2
#     Edge 72, Type (0, 0), BuildingBlock: EZIPEK_clean_linker_0, # of connection points: 2
#     Edge 73, Type (0, 0), BuildingBlock: EZIPEK_clean_linker_0, # of connection points: 2
#     Edge 74, Type (0, 0), BuildingBlock: EZIPEK_clean_linker_0, # of connection points: 2
#     Edge 75, Type (0, 0), BuildingBlock: EZIPEK_clean_linker_0, # of connection points: 2
#     Edge 76, Type (0, 0), BuildingBlock: EZIPEK_clean_linker_0, # of connection points: 2
#     Edge 77, Type (0, 0), BuildingBlock: EZIPEK_clean_linker_0, # of connection points: 2
#     Edge 78, Type (0, 0), BuildingBlock: EZIPEK_clean_linker_0, # of connection points: 2
#     Edge 79, Type (0, 0), BuildingBlock: EZIPEK_clean_linker_0, # of connection points: 2
#     Edge 80, Type (0, 0), BuildingBlock: EZIPEK_clean_linker_0, # of connection points: 2
#     Edge 81, Type (0, 0), BuildingBlock: EZIPEK_clean_linker_0, # of connection points: 2
#     Edge 82, Type (0, 0), BuildingBlock: EZIPEK_clean_linker_0, # of connection points: 2
#     Edge 83, Type (0, 0), BuildingBlock: EZIPEK_clean_linker_0, # of connection points: 2
#     Edge 84, Type (0, 0), BuildingBlock: EZIPEK_clean_linker_0, # of connection points: 2
#     Edge 85, Type (0, 0), BuildingBlock: EZIPEK_clean_linker_0, # of connection points: 2
#     Edge 86, Type (0, 0), BuildingBlock: EZIPEK_clean_linker_0, # of connection points: 2
#     Edge 87, Type (0, 0), BuildingBlock: EZIPEK_clean_linker_0, # of connection points: 2
#     Edge 88, Type (0, 0), BuildingBlock: EZIPEK_clean_linker_0, # of connection points: 2
#     Edge 89, Type (0, 0), BuildingBlock: EZIPEK_clean_linker_0, # of connection points: 2
#     Edge 90, Type (0, 0), BuildingBlock: EZIPEK_clean_linker_0, # of connection points: 2
#     Edge 91, Type (0, 0), BuildingBlock: EZIPEK_clean_linker_0, # of connection points: 2
#     Edge 92, Type (0, 0), BuildingBlock: EZIPEK_clean_linker_0, # of connection points: 2
#     Edge 93, Type (0, 0), BuildingBlock: EZIPEK_clean_linker_0, # of connection points: 2
#     Edge 94, Type (0, 0), BuildingBlock: EZIPEK_clean_linker_0, # of connection points: 2
#     Edge 95, Type (0, 0), BuildingBlock: EZIPEK_clean_linker_0, # of connection points: 2
# Relax obj value: 0.058
# Max RMSD: 0.086
# Mean RMSD: 0.086
data_MOF--net-uox--node1-QUQFOY_clean_sbu_3--edge1-EZIPEK_clean_linker_0
_symmetry_space_group_name_H-M    P1
_symmetry_Int_Tables_number       1
_symmetry_cell_setting            triclinic
loop_
_symmetry_equiv_pos_as_xyz
'x, y, z'
_cell_length_a     35.287516
_cell_length_b     35.052233
_cell_length_c     60.814865
_cell_angle_alpha  89.877635
_cell_angle_beta   90.039879
_cell_angle_gamma 89.678369
loop_
_atom_site_label
_atom_site_type_symbol
_atom_site_fract_x
_atom_site_fract_y
_atom_site_fract_z
_atom_type_partial_charge
C0 C 0.49288 0.04065 0.10761 0.0
O1 O 0.47571 0.02784 0.09083 0.0
Cd2 Cd 0.41081 0.00642 0.09101 0.0
O3 O 0.47754 0.04001 0.12655 0.0
Cd4 Cd 0.41765 0.01857 0.14331 0.0
C5 C 0.3693 0.08545 0.1139 0.0
O6 O 0.40298 0.9627 0.12082 0.0
O7 O 0.3589 0.98392 0.14232 0.0
O8 O 0.44661 -0.01215 0.17531 0.0
C9 C 0.36986 0.95897 0.12866 0.0
O10 O 0.37305 0.06429 0.09703 0.0
C11 C 0.42947 0.00896 0.1891 0.0
O12 O 0.38428 0.07659 0.13227 0.0
O13 O 0.40896 0.03581 0.18151 0.0
C14 C 0.18119 0.24474 0.36206 0.0
O15 O 0.19426 0.22781 0.34522 0.0
Cd16 Cd 0.21827 0.16316 0.34512 0.0
O17 O 0.18288 0.22942 0.38104 0.0
Cd18 Cd 0.207 0.16995 0.39786 0.0
C19 C 0.14206 0.11892 0.36881 0.0
O20 O 0.26245 0.15715 0.37473 0.0
O21 O 0.24519 0.11269 0.39718 0.0
O22 O 0.23587 0.20022 0.42992 0.0
C23 C 0.26835 0.12418 0.38274 0.0
O24 O 0.16232 0.12358 0.3517 0.0
C25 C 0.2155 0.18224 0.44365 0.0
O26 O 0.15081 0.13406 0.38712 0.0
O27 O 0.18996 0.1606 0.43599 0.0
C28 C 0.96481 0.93967 0.60883 0.0
O29 O -0.01774 0.95266 0.59217 0.0
Cd30 Cd 0.04593 0.9782 0.59327 0.0
O31 O 0.9793 0.94111 0.62796 0.0
Cd32 Cd 0.03676 0.96444 0.64622 0.0
C33 C 0.08838 0.89996 0.61676 0.0
O34 O 0.05146 0.02051 0.62384 0.0
O35 O 0.09348 0.00205 0.64753 0.0
O36 O -0.00096 -0.01064 0.67668 0.0
C37 C 0.08384 0.02529 0.63254 0.0
O38 O 0.08532 0.92189 0.60011 0.0
C39 C 0.01831 0.97207 0.69134 0.0
O40 O 0.07193 0.90748 0.6349 0.0
O41 O 0.04461 0.9499 0.68486 0.0
C42 C 0.29133 0.71924 0.86908 0.0
O43 O 0.28388 0.73631 0.85112 0.0
Cd44 Cd 0.25683 0.79969 0.84804 0.0
O45 O 0.2843 0.73484 0.88752 0.0
Cd46 Cd 0.25959 0.79666 0.90048 0.0
C47 C 0.3278 0.84774 0.87338 0.0
O48 O 0.20692 0.80633 0.87459 0.0
O49 O 0.22102 0.8532 0.89609 0.0
O50 O 0.22733 0.76741 0.93187 0.0
C51 C 0.19935 0.83967 0.88148 0.0
O52 O 0.30942 0.84278 0.85561 0.0
C53 C 0.24547 0.78649 0.94611 0.0
O54 O 0.31739 0.83214 0.89132 0.0
O55 O 0.27078 0.80909 0.93912 0.0
C56 C 0.49655 0.92237 0.3569 0.0
O57 O 0.48024 0.92869 0.37516 0.0
Cd58 Cd 0.41787 0.95711 0.37947 0.0
O59 O 0.48052 0.93101 0.33882 0.0
Cd60 Cd 0.41852 0.95626 0.32725 0.0
C61 C 0.36839 0.887 0.35442 0.0
O62 O 0.40911 0.00862 0.3537 0.0
O63 O 0.36262 -0.00528 0.33199 0.0
O64 O 0.44661 -0.00996 0.29612 0.0
C65 C 0.37583 0.01611 0.34687 0.0
O66 O 0.37429 0.90498 0.37224 0.0
C67 C 0.42776 0.97195 0.28177 0.0
O68 O 0.38304 0.89794 0.33632 0.0
O69 O 0.40565 0.94601 0.28856 0.0
C70 C 0.28935 0.24646 0.61515 0.0
O71 O 0.28199 0.22845 0.63277 0.0
Cd72 Cd 0.25516 0.1651 0.6346 0.0
O73 O 0.28306 0.2317 0.59642 0.0
Cd74 Cd 0.26049 0.17007 0.58253 0.0
C75 C 0.32766 0.11782 0.61014 0.0
O76 O 0.20649 0.15949 0.60721 0.0
O77 O 0.22229 0.11347 0.58537 0.0
O78 O 0.22903 0.1995 0.55083 0.0
C79 C 0.19959 0.1265 0.59966 0.0
O80 O 0.30807 0.12175 0.62754 0.0
C81 C 0.24845 0.18111 0.53679 0.0
O82 O 0.31841 0.13456 0.59229 0.0
O83 O 0.27425 0.15903 0.54405 0.0
C84 C 0.97318 0.03456 0.86693 0.0
O85 O -0.00838 0.02334 0.88372 0.0
Cd86 Cd 0.05543 -0.00193 0.88225 0.0
O87 O -0.01343 0.0309 0.84763 0.0
Cd88 Cd 0.04335 0.00559 0.8292 0.0
C89 C 0.09485 0.07415 0.85536 0.0
O90 O 0.05753 0.95164 0.85343 0.0
O91 O 0.099 0.96511 0.82852 0.0
O92 O 0.00344 0.97988 0.79989 0.0
C93 C 0.08908 0.94398 0.8444 0.0
O94 O 0.09279 0.05451 0.87296 0.0
C95 C 0.0224 -0.00451 0.78459 0.0
O96 O 0.0783 0.06375 0.83776 0.0
O97 O 0.04985 0.01666 0.79017 0.0
C98 C 0.18123 0.72353 0.12164 0.0
O99 O 0.19258 0.74213 0.13828 0.0
Cd100 Cd 0.21531 0.80701 0.13753 0.0
O101 O 0.18266 0.7377 0.10237 0.0
Cd102 Cd 0.20295 0.79782 0.08492 0.0
C103 C 0.13773 0.84904 0.11396 0.0
O104 O 0.25823 0.81352 0.10743 0.0
O105 O 0.23776 0.85673 0.08488 0.0
O106 O 0.23308 0.76863 0.05283 0.0
C107 C 0.26204 0.84652 0.09909 0.0
O108 O 0.1589 0.84602 0.13085 0.0
C109 C 0.2113 0.78515 0.0391 0.0
O110 O 0.14596 0.83263 0.09592 0.0
O111 O 0.18445 0.80537 0.04678 0.0
C112 C 0.46789 0.93203 0.86941 0.0
O113 O 0.48441 0.94265 0.88685 0.0
Cd114 Cd 0.54841 0.96478 0.88665 0.0
O115 O 0.48391 0.93527 0.85076 0.0
Cd116 Cd 0.54482 0.96027 0.83653 0.0
C117 C 0.59283 0.88985 0.86226 0.0
O118 O 0.55721 0.0157 0.86046 0.0
O119 O 0.60439 -0.00705 0.84183 0.0
O120 O 0.51643 -0.00655 0.80479 0.0
C121 C 0.59123 0.01915 0.85398 0.0
O122 O 0.58854 0.9089 0.87987 0.0
C123 C 0.53526 0.97455 0.79069 0.0
O124 O 0.57784 0.9007 0.84428 0.0
O125 O 0.55722 0.9486 0.7979 0.0
C126 C 0.78845 0.72688 0.61084 0.0
O127 O 0.7781 0.74456 0.62805 0.0
Cd128 Cd 0.75362 0.80885 0.6289 0.0
O129 O 0.78444 0.74167 0.59181 0.0
Cd130 Cd 0.75931 0.80161 0.57559 0.0
C131 C 0.82621 0.85403 0.6021 0.0
O132 O 0.70662 0.81313 0.6008 0.0
O133 O 0.72003 0.85852 0.5781 0.0
O134 O 0.72776 0.77201 0.54404 0.0
C135 C 0.69901 0.84613 0.59338 0.0
O136 O 0.80793 0.84918 0.61992 0.0
C137 C 0.7478 0.78938 0.52988 0.0
O138 O 0.81594 0.83836 0.58422 0.0
O139 O 0.77397 0.81073 0.53706 0.0
C140 C 0.00146 0.03575 0.36396 0.0
O141 O -0.01259 0.02352 0.38179 0.0
Cd142 Cd 0.92427 -0.00123 0.3837 0.0
O143 O -0.01672 0.03314 0.34594 0.0
Cd144 Cd 0.92168 0.00755 0.33327 0.0
C145 C 0.87497 0.07403 0.36292 0.0
O146 O 0.91341 0.95001 0.35652 0.0
O147 O 0.86445 0.97123 0.3387 0.0
O148 O 0.95185 0.98108 0.30029 0.0
C149 C 0.87916 0.9455 0.35065 0.0
O150 O 0.88157 0.05345 0.37976 0.0
C151 C 0.9295 -0.00228 0.28693 0.0
O152 O 0.88831 0.06539 0.34415 0.0
O153 O 0.90437 0.01954 0.29507 0.0
C154 C 0.67179 0.25443 0.11039 0.0
O155 O 0.67864 0.2376 0.12845 0.0
Cd156 Cd 0.7029 0.17376 0.13041 0.0
O157 O 0.67837 0.23808 0.0921 0.0
Cd158 Cd 0.70264 0.17508 0.08005 0.0
C159 C 0.63257 0.12554 0.10519 0.0
O160 O 0.75608 0.16623 0.10576 0.0
O161 O 0.73857 0.11717 0.08689 0.0
O162 O 0.73628 0.20131 0.04808 0.0
C163 C 0.76237 0.1321 0.09982 0.0
O164 O 0.64988 0.13099 0.12326 0.0
C165 C 0.71751 0.18219 0.03414 0.0
O166 O 0.64439 0.1404 0.0874 0.0
O167 O 0.69155 0.16081 0.04152 0.0
C168 C 0.4681 0.03314 0.61632 0.0
O169 O 0.48473 0.02148 0.59906 0.0
Cd170 Cd 0.5485 -0.00393 0.59744 0.0
O171 O 0.48414 0.03142 0.63506 0.0
Cd172 Cd 0.54519 0.00939 0.6506 0.0
C173 C 0.59355 0.07344 0.6189 0.0
O174 O 0.55759 0.9536 0.62767 0.0
O175 O 0.60317 0.97191 0.64876 0.0
O176 O 0.51788 0.98131 0.68387 0.0
C177 C 0.5913 0.94867 0.63443 0.0
O178 O 0.58898 0.0516 0.60241 0.0
C179 C 0.53558 0.00319 0.69692 0.0
O180 O 0.57888 0.06593 0.63754 0.0
O181 O 0.55621 0.02884 0.68838 0.0
C182 C 0.67644 0.71178 0.36118 0.0
O183 O 0.69649 0.72165 0.34488 0.0
Cd184 Cd 0.71415 0.78742 0.34224 0.0
O185 O 0.67344 0.73397 0.37764 0.0
Cd186 Cd 0.70386 0.79376 0.39048 0.0
C187 C 0.63776 0.83866 0.36127 0.0
O188 O 0.76259 0.80106 0.36877 0.0
O189 O 0.73844 0.85201 0.38334 0.0
O190 O 0.73353 0.76536 0.42313 0.0
C191 C 0.7659 0.83616 0.37344 0.0
O192 O 0.65695 0.8282 0.34458 0.0
C193 C 0.71549 0.78633 0.43658 0.0
O194 O 0.64773 0.82916 0.38058 0.0
O195 O 0.69132 0.80948 0.42861 0.0
C196 C -0.00388 0.932 0.11674 0.0
O197 O -0.01809 0.94232 0.09852 0.0
Cd198 Cd 0.91853 0.96639 0.09603 0.0
O199 O 0.97785 0.93627 0.13461 0.0
Cd200 Cd 0.91585 0.9616 0.14686 0.0
C201 C 0.87159 0.89173 0.11877 0.0
O202 O 0.90768 0.01705 0.12217 0.0
O203 O 0.85857 -0.00187 0.14042 0.0
O204 O 0.94668 -0.00981 0.17893 0.0
C205 C 0.87342 0.02257 0.12777 0.0
O206 O 0.87832 0.91077 0.10139 0.0
C207 C 0.92529 0.97401 0.19286 0.0
O208 O 0.88375 0.90251 0.13743 0.0
O209 O 0.89995 0.95192 0.18543 0.0
C210 C 0.79276 0.2511 0.86297 0.0
O211 O 0.78583 0.2333 0.8453 0.0
Cd212 Cd 0.76254 0.16912 0.84492 0.0
O213 O 0.78704 0.23554 0.88161 0.0
Cd214 Cd 0.76479 0.17287 0.89503 0.0
C215 C 0.83481 0.12277 0.8701 0.0
O216 O 0.71045 0.16196 0.87029 0.0
O217 O 0.73025 0.11403 0.8897 0.0
O218 O 0.73148 0.19998 0.9269 0.0
C219 C 0.70534 0.12807 0.87701 0.0
O220 O 0.81619 0.12655 0.8523 0.0
C221 C 0.75093 0.18147 0.94095 0.0
O222 O 0.82399 0.13908 0.88768 0.0
O223 O 0.77723 0.16018 0.93365 0.0
C224 C -0.00631 0.54324 0.60773 0.0
O225 O 0.97809 0.53279 0.58997 0.0
Cd226 Cd 0.91443 0.5091 0.58994 0.0
O227 O 0.97707 0.53908 0.62611 0.0
Cd228 Cd 0.91742 0.51191 0.64018 0.0
C229 C 0.86916 0.58302 0.61511 0.0
O230 O 0.90727 0.45688 0.61565 0.0
O231 O 0.8598 0.476 0.63539 0.0
O232 O 0.95236 0.48191 0.67058 0.0
C233 C 0.87376 0.45129 0.62252 0.0
O234 O 0.87406 0.56469 0.59729 0.0
C235 C 0.93173 0.49668 0.68543 0.0
O236 O 0.8835 0.57123 0.63309 0.0
O237 O 0.9053 0.51895 0.67923 0.0
C238 C 0.67652 0.74809 0.8652 0.0
O239 O 0.68564 0.73192 0.84728 0.0
Cd240 Cd 0.7123 0.6686 0.84391 0.0
O241 O 0.68172 0.73174 0.88368 0.0
Cd242 Cd 0.70651 0.6703 0.89738 0.0
C243 C 0.63949 0.62128 0.86852 0.0
O244 O 0.75926 0.66038 0.8719 0.0
O245 O 0.74495 0.61359 0.8935 0.0
O246 O 0.73776 0.6981 0.92944 0.0
C247 C 0.76625 0.62672 0.87857 0.0
O248 O 0.65843 0.62709 0.85103 0.0
C249 C 0.71849 0.6791 0.94325 0.0
O250 O 0.64944 0.63542 0.8869 0.0
O251 O 0.69286 0.65743 0.93571 0.0
C252 C 0.47115 0.44396 0.11091 0.0
O253 O 0.48915 0.45837 0.09486 0.0
Cd254 Cd 0.55376 0.48064 0.0962 0.0
O255 O 0.48544 0.44291 0.13016 0.0
Cd256 Cd 0.54477 0.46265 0.14872 0.0
C257 C 0.59447 0.39944 0.11716 0.0
O258 O 0.56101 0.51988 0.12778 0.0
O259 O 0.60389 0.49719 0.14961 0.0
O260 O 0.51565 0.48993 0.1817 0.0
C261 C 0.59413 0.52248 0.13579 0.0
O262 O 0.59159 0.42256 0.10104 0.0
C263 C 0.5317 0.46656 0.19478 0.0
O264 O 0.57864 0.40616 0.13558 0.0
O265 O 0.55173 0.44021 0.1863 0.0
C266 C 0.78703 0.21294 0.36754 0.0
O267 O 0.77688 0.2274 0.34932 0.0
Cd268 Cd 0.75044 0.29033 0.34633 0.0
O269 O 0.78167 0.23065 0.38552 0.0
Cd270 Cd 0.75423 0.29259 0.39686 0.0
C271 C 0.82246 0.33978 0.3692 0.0
O272 O 0.69922 0.29949 0.37205 0.0
O273 O 0.71776 0.34983 0.38952 0.0
O274 O 0.72286 0.26643 0.42954 0.0
C275 C 0.69324 0.33397 0.37744 0.0
O276 O 0.80371 0.33353 0.35171 0.0
C277 C 0.74095 0.28727 0.44296 0.0
O278 O 0.81207 0.32618 0.3876 0.0
O279 O 0.76561 0.30956 0.43498 0.0
C280 C -0.00671 0.43513 0.8604 0.0
O281 O 0.97676 0.44882 0.8772 0.0
Cd282 Cd 0.91281 0.47405 0.87726 0.0
O283 O 0.97773 0.43622 0.84151 0.0
Cd284 Cd 0.91866 0.45985 0.82426 0.0
C285 C 0.86918 0.39584 0.85506 0.0
O286 O 0.90648 0.51626 0.84675 0.0
O287 O 0.86203 0.49902 0.82452 0.0
O288 O 0.95455 0.48432 0.79304 0.0
C289 C 0.87348 0.52203 0.83907 0.0
O290 O 0.87307 0.41801 0.87147 0.0
C291 C 0.93413 0.46789 0.77872 0.0
O292 O 0.88451 0.40308 0.83655 0.0
O293 O 0.90796 0.44623 0.78565 0.0
C294 C 0.79585 0.74633 0.11366 0.0
O295 O 0.79079 0.72807 0.13148 0.0
Cd296 Cd 0.76504 0.66452 0.13447 0.0
O297 O 0.78786 0.73149 0.09516 0.0
Cd298 Cd 0.76672 0.66877 0.08202 0.0
C299 C 0.83739 0.61964 0.10864 0.0
O300 O 0.71491 0.65759 0.10811 0.0
O301 O 0.72951 0.61154 0.08606 0.0
O302 O 0.73365 0.69651 0.05033 0.0
C303 C 0.7079 0.62437 0.10096 0.0
O304 O 0.81871 0.62295 0.12642 0.0
C305 C 0.75301 0.67808 0.03627 0.0
O306 O 0.8263 0.6356 0.09091 0.0
O307 O 0.77933 0.65662 0.04349 0.0
C308 C 0.4607 0.53671 0.36571 0.0
O309 O 0.47952 0.53063 0.38314 0.0
Cd310 Cd 0.54113 0.50055 0.38319 0.0
O311 O 0.47435 0.52846 0.34698 0.0
Cd312 Cd 0.53635 0.50469 0.3349 0.0
C313 C 0.5883 0.57169 0.36051 0.0
O314 O 0.5456 0.44759 0.35834 0.0
O315 O 0.5946 0.46903 0.34106 0.0
O316 O 0.50842 0.47463 0.30229 0.0
C317 C 0.57973 0.44268 0.35238 0.0
O318 O 0.59012 0.54782 0.37624 0.0
C319 C 0.52925 0.49249 0.28876 0.0
O320 O 0.56593 0.56571 0.34448 0.0
O321 O 0.55236 0.51647 0.29665 0.0
C322 C 0.67366 0.21642 0.61302 0.0
O323 O 0.68224 0.23228 0.63107 0.0
Cd324 Cd 0.70736 0.29587 0.63304 0.0
O325 O 0.67876 0.23361 0.59482 0.0
Cd326 Cd 0.70105 0.29699 0.58294 0.0
C327 C 0.63358 0.34509 0.61177 0.0
O328 O 0.75733 0.30586 0.60641 0.0
O329 O 0.73622 0.35506 0.5885 0.0
O330 O 0.73232 0.2714 0.55014 0.0
C331 C 0.76197 0.3402 0.6003 0.0
O332 O 0.65336 0.33921 0.62895 0.0
C333 C 0.71187 0.29006 0.53666 0.0
O334 O 0.6431 0.33073 0.59337 0.0
O335 O 0.68597 0.3111 0.54467 0.0
C336 C 0.96435 0.42067 0.36753 0.0
O337 O 0.98 0.42966 0.38554 0.0
Cd338 Cd 0.04357 0.45371 0.38641 0.0
O339 O 0.98108 0.42616 0.34927 0.0
Cd340 Cd 0.04111 0.45429 0.33613 0.0
C341 C 0.09229 0.38362 0.35972 0.0
O342 O 0.04944 0.50794 0.36203 0.0
O343 O 0.09731 0.49209 0.34172 0.0
O344 O 0.00724 0.48506 0.30547 0.0
C345 C 0.08272 0.51513 0.35534 0.0
O346 O 0.0861 0.40012 0.37801 0.0
C347 C 0.02831 0.4704 0.29078 0.0
O348 O 0.07775 0.3963 0.34201 0.0
O349 O 0.05445 0.44799 0.29719 0.0
C350 C 0.29288 0.23117 0.10778 0.0
O351 O 0.28396 0.24813 0.12549 0.0
Cd352 Cd 0.25912 0.31217 0.12768 0.0
O353 O 0.28835 0.24715 0.0891 0.0
Cd354 Cd 0.26418 0.30835 0.07409 0.0
C355 C 0.33119 0.36009 0.10197 0.0
O356 O 0.2116 0.31651 0.09969 0.0
O357 O 0.22245 0.36328 0.07744 0.0
O358 O 0.23326 0.27874 0.04237 0.0
C359 C 0.20233 0.34933 0.09268 0.0
O360 O 0.31338 0.35335 0.11976 0.0
C361 C 0.25268 0.29678 0.02822 0.0
O362 O 0.32011 0.34627 0.08371 0.0
O363 O 0.27823 0.31888 0.03542 0.0
C364 C 0.49958 0.5371 0.8641 0.0
O365 O 0.48466 0.52512 0.88175 0.0
Cd366 Cd 0.42141 0.50034 0.88271 0.0
O367 O 0.48212 0.53463 0.84585 0.0
Cd368 Cd 0.42041 0.51057 0.83283 0.0
C369 C 0.37348 0.57666 0.86252 0.0
O370 O 0.41072 0.45237 0.85506 0.0
O371 O 0.36182 0.47664 0.83851 0.0
O372 O 0.44612 0.48083 0.79952 0.0
C373 C 0.37622 0.44929 0.84937 0.0
O374 O 0.37873 0.55506 0.8791 0.0
C375 C 0.42662 0.50132 0.78644 0.0
O376 O 0.3879 0.56876 0.84392 0.0
O377 O 0.40546 0.52673 0.79492 0.0
C378 C 0.17056 0.75726 0.61177 0.0
O379 O 0.17772 0.74058 0.62984 0.0
Cd380 Cd 0.20347 0.67709 0.63196 0.0
O381 O 0.1775 0.741 0.59352 0.0
Cd382 Cd 0.20179 0.67804 0.58181 0.0
C383 C 0.13228 0.62944 0.60779 0.0
O384 O 0.25597 0.66784 0.60702 0.0
O385 O 0.23601 0.61912 0.58866 0.0
O386 O 0.23467 0.70363 0.54935 0.0
C387 C 0.26082 0.63338 0.60121 0.0
O388 O 0.15107 0.63337 0.62548 0.0
C389 C 0.21536 0.68439 0.5357 0.0
O390 O 0.14261 0.64551 0.59004 0.0
O391 O 0.18964 0.66314 0.54349 0.0
C392 C 0.98042 0.5399 0.11503 0.0
O393 O -0.00049 0.5302 0.09822 0.0
Cd394 Cd 0.06307 0.50485 0.09917 0.0
O395 O -0.00658 0.53553 0.13443 0.0
Cd396 Cd 0.05108 0.5106 0.15274 0.0
C397 C 0.10399 0.57902 0.12695 0.0
O398 O 0.06333 0.45793 0.12772 0.0
O399 O 0.1057 0.46768 0.15255 0.0
O400 O 0.01241 0.48476 0.18261 0.0
C401 C 0.09478 0.44837 0.13618 0.0
O402 O 0.10117 0.56035 0.10908 0.0
C403 C 0.03217 0.49989 0.19772 0.0
O404 O 0.08753 0.56803 0.14448 0.0
O405 O 0.05945 0.52103 0.19182 0.0
C406 C 0.17099 0.2195 0.85845 0.0
O407 O 0.17961 0.23605 0.8406 0.0
Cd408 Cd 0.20423 0.2996 0.83918 0.0
O409 O 0.17622 0.23566 0.87692 0.0
Cd410 Cd 0.20168 0.29762 0.8895 0.0
C411 C 0.13267 0.34806 0.8637 0.0
O412 O 0.2562 0.30657 0.86466 0.0
O413 O 0.23717 0.35547 0.88342 0.0
O414 O 0.23523 0.27065 0.92144 0.0
C415 C 0.2619 0.34052 0.87101 0.0
O416 O 0.15074 0.34262 0.84588 0.0
C417 C 0.21693 0.29045 0.93536 0.0
O418 O 0.14374 0.33299 0.88164 0.0
O419 O 0.19086 0.31205 0.92801 0.0
C420 C 0.4934 0.43099 0.61519 0.0
O421 O 0.47845 0.44271 0.59744 0.0
Cd422 Cd 0.41421 0.46449 0.59635 0.0
O423 O 0.47583 0.43381 0.6334 0.0
Cd424 Cd 0.41444 0.46027 0.64669 0.0
C425 C 0.36799 0.39017 0.6204 0.0
O426 O 0.4043 0.51566 0.62216 0.0
O427 O 0.35594 0.49558 0.64063 0.0
O428 O 0.44214 0.49255 0.67868 0.0
C429 C 0.37017 0.52066 0.62814 0.0
O430 O 0.37469 0.4083 0.60269 0.0
C431 C 0.42327 0.47349 0.69264 0.0
O432 O 0.38072 0.40163 0.63876 0.0
O433 O 0.40129 0.44803 0.68523 0.0
C434 C 0.2826 0.7475 0.36121 0.0
O435 O 0.27021 0.73085 0.34421 0.0
Cd436 Cd 0.24613 0.66747 0.34572 0.0
O437 O 0.27978 0.73216 0.38014 0.0
Cd438 Cd 0.2533 0.67226 0.39567 0.0
C439 C 0.32033 0.62119 0.36941 0.0
O440 O 0.19647 0.66205 0.37279 0.0
O441 O 0.21795 0.61349 0.39094 0.0
O442 O 0.22341 0.70137 0.42817 0.0
C443 C 0.19181 0.62795 0.37925 0.0
O444 O 0.30089 0.62575 0.35198 0.0
C445 C 0.24312 0.68227 0.44184 0.0
O446 O 0.31068 0.63686 0.38737 0.0
O447 O 0.26806 0.65992 0.43403 0.0
C448 C 0.46404 0.98344 0.2467 0.0
C449 C 0.42905 0.98252 0.25821 0.0
C450 C 0.39481 -0.00507 0.22399 0.0
C451 C 0.4298 0.0001 0.2129 0.0
N452 N 0.49785 0.00588 0.21452 0.0
N453 N 0.36205 -0.00273 0.25877 0.0
C454 C 0.46454 -0.00379 0.22447 0.0
C455 C 0.39468 -0.00885 0.24715 0.0
N456 N 0.49648 0.97068 0.25664 0.0
N457 N 0.36177 -0.00837 0.21239 0.0
H458 H 0.36086 -0.00363 0.2759 0.0
H459 H 0.33716 0.0074 0.25154 0.0
H460 H 0.36051 -0.00775 0.19527 0.0
H461 H 0.33618 0.98397 0.21968 0.0
H462 H 0.52199 0.96698 0.24828 0.0
H463 H 0.49715 0.96042 0.27274 0.0
H464 H 0.52358 0.00731 0.22288 0.0
H465 H 0.49924 0.01595 0.1984 0.0
C466 C 0.23748 0.21758 0.50153 0.0
C467 C 0.23922 0.18233 0.51306 0.0
C468 C 0.22996 0.14776 0.47866 0.0
C469 C 0.22382 0.18285 0.4675 0.0
N470 N 0.21532 0.25116 0.46903 0.0
N471 N 0.22694 0.11452 0.51336 0.0
C472 C 0.22581 0.21786 0.47911 0.0
C473 C 0.23251 0.14758 0.50186 0.0
N474 N 0.24836 0.25051 0.51166 0.0
N475 N 0.23522 0.11469 0.46712 0.0
H476 H 0.22676 0.11323 0.53049 0.0
H477 H 0.21822 0.08927 0.50594 0.0
H478 H 0.2356 0.11355 0.44999 0.0
H479 H 0.24353 0.08915 0.47454 0.0
H480 H 0.25139 0.27635 0.50337 0.0
H481 H 0.25775 0.25135 0.52791 0.0
H482 H 0.2125 0.27695 0.47737 0.0
H483 H 0.20602 0.25238 0.45276 0.0
C484 C 0.01003 0.02108 0.74696 0.0
C485 C 0.01385 -0.01094 0.76107 0.0
C486 C 0.00835 0.94666 0.72929 0.0
C487 C 0.01202 0.97856 0.7151 0.0
N488 N 0.0214 0.04657 0.71068 0.0
N489 N 0.02099 0.92073 0.76542 0.0
C490 C 0.01369 0.01602 0.72393 0.0
C491 C 0.01365 0.95156 0.75225 0.0
N492 N 0.00251 0.05628 0.75559 0.0
N493 N -0.00066 0.91178 0.72083 0.0
H494 H 0.02602 0.92276 0.78225 0.0
H495 H 0.02543 0.89334 0.75928 0.0
H496 H -0.00555 0.90746 0.7041 0.0
H497 H -0.00721 0.88827 0.7306 0.0
H498 H -0.0041 0.08001 0.74594 0.0
H499 H -0.00118 0.06078 0.77241 0.0
H500 H 0.02712 0.07369 0.71678 0.0
H501 H 0.02568 0.04444 0.69378 0.0
C502 C 0.23538 0.75006 0.98142 0.0
C503 C 0.23547 0.78517 0.96973 0.0
C504 C 0.22361 0.81982 0.00389 0.0
C505 C 0.21941 0.78465 0.01521 0.0
N506 N 0.21476 0.71604 0.01402 0.0
N507 N 0.21973 0.85237 0.96895 0.0
C508 C 0.22347 0.74961 0.00378 0.0
C509 C 0.22667 0.81975 0.9807 0.0
N510 N 0.24811 0.71747 0.97151 0.0
N511 N 0.22667 0.85328 0.01527 0.0
H512 H 0.22008 0.85339 0.95181 0.0
H513 H 0.20947 0.87735 0.97613 0.0
H514 H 0.22652 0.85475 0.03239 0.0
H515 H 0.23364 0.87908 0.00778 0.0
H516 H 0.25242 0.69191 0.97994 0.0
H517 H 0.25766 0.71676 0.95529 0.0
H518 H 0.21347 0.69001 0.00582 0.0
H519 H 0.20539 0.71468 0.03026 0.0
C520 C 0.56892 -0.00842 0.75597 0.0
C521 C 0.5343 0.98409 0.76695 0.0
C522 C 0.49974 -0.00503 0.73246 0.0
C523 C 0.53478 -0.00285 0.72106 0.0
N524 N 0.60289 -0.01138 0.72161 0.0
N525 N 0.46689 0.97309 0.76509 0.0
C526 C 0.56946 -0.0069 0.7327 0.0
C527 C 0.49963 0.9844 0.75508 0.0
N528 N 0.60115 -0.00139 0.76775 0.0
N529 N 0.46671 0.00425 0.72194 0.0
H530 H 0.46571 0.96464 0.78152 0.0
H531 H 0.44161 0.96886 0.7566 0.0
H532 H 0.46575 0.01296 0.70554 0.0
H533 H 0.44082 0.0069 0.73002 0.0
H534 H 0.6262 0.00797 0.7605 0.0
H535 H 0.60177 -0.00073 0.78489 0.0
H536 H 0.62831 0.98168 0.72942 0.0
H537 H 0.60468 -0.01246 0.70451 0.0
C538 C 0.72398 0.7517 0.47268 0.0
C539 C 0.72427 0.7862 0.4604 0.0
C540 C 0.73472 0.82236 0.49416 0.0
C541 C 0.73911 0.78774 0.50606 0.0
N542 N 0.7447 0.71904 0.50577 0.0
N543 N 0.74001 0.85323 0.45882 0.0
C544 C 0.73559 0.75219 0.4951 0.0
C545 C 0.73254 0.82124 0.47094 0.0
N546 N 0.71128 0.71879 0.46326 0.0
N547 N 0.7308 0.8563 0.50498 0.0
H548 H 0.7406 0.85344 0.44168 0.0
H549 H 0.74985 0.87844 0.4658 0.0
H550 H 0.73008 0.85845 0.52208 0.0
H551 H 0.72386 0.88174 0.497 0.0
H552 H 0.70683 0.69375 0.47213 0.0
H553 H 0.70174 0.71742 0.44705 0.0
H554 H 0.74635 0.69273 0.49788 0.0
H555 H 0.75417 0.71827 0.52201 0.0
C556 C 0.93347 0.02337 0.24846 0.0
C557 C 0.93182 -0.00851 0.26284 0.0
C558 C 0.93361 0.94855 0.2311 0.0
C559 C 0.92955 0.98037 0.21682 0.0
N560 N 0.91938 0.04817 0.2122 0.0
N561 N 0.92372 0.92349 0.26768 0.0
C562 C 0.928 0.0179 0.22554 0.0
C563 C 0.93033 0.95393 0.25415 0.0
N564 N 0.94142 0.05876 0.2566 0.0
N565 N 0.94175 0.9133 0.2227 0.0
H566 H 0.92011 0.92601 0.28461 0.0
H567 H 0.91815 0.89617 0.26183 0.0
H568 H 0.94542 0.90834 0.20593 0.0
H569 H 0.94879 0.88989 0.23251 0.0
H570 H 0.94669 0.08232 0.2466 0.0
H571 H 0.94669 0.06375 0.27322 0.0
H572 H 0.91379 0.07547 0.21818 0.0
H573 H 0.9142 0.04548 0.19541 0.0
C574 C 0.73603 0.14755 0.9761 0.0
C575 C 0.74189 0.18241 0.96473 0.0
C576 C 0.72811 0.21777 -0.00141 0.0
C577 C 0.72677 0.18278 0.01037 0.0
N578 N 0.73895 0.11484 0.01104 0.0
N579 N 0.75031 0.2507 0.96602 0.0
C580 C 0.73344 0.14777 -0.00067 0.0
C581 C 0.73978 0.21761 0.97619 0.0
N582 N 0.7312 0.11433 0.9647 0.0
N583 N 0.7168 0.25093 0.00844 0.0
H584 H 0.75976 0.25169 0.94979 0.0
H585 H 0.75308 0.27653 0.97429 0.0
H586 H 0.70728 0.25216 0.02466 0.0
H587 H 0.71344 0.27655 -7e-05 0.0
H588 H 0.72309 0.0889 0.9722 0.0
H589 H 0.73109 0.11301 0.94757 0.0
H590 H 0.74763 0.08934 0.00378 0.0
H591 H 0.73904 0.11388 0.02818 0.0
C592 C 0.94145 0.51977 0.72382 0.0
C593 C 0.9379 0.48872 0.7091 0.0
C594 C 0.94184 0.44418 0.74014 0.0
C595 C 0.93882 0.47532 0.7549 0.0
N596 N 0.92945 0.54312 0.76049 0.0
N597 N 0.92987 0.42097 0.70338 0.0
C598 C 0.93731 0.51331 0.74672 0.0
C599 C 0.93717 0.45071 0.71723 0.0
N600 N 0.94953 0.55537 0.71597 0.0
N601 N 0.94998 0.40849 0.74798 0.0
H602 H 0.92561 0.42432 0.68654 0.0
H603 H 0.92472 0.39332 0.7089 0.0
H604 H 0.95444 0.40287 0.76463 0.0
H605 H 0.95617 0.3854 0.7378 0.0
H606 H 0.95608 0.57829 0.72614 0.0
H607 H 0.95373 0.56099 0.69929 0.0
H608 H 0.92394 0.5707 0.75485 0.0
H609 H 0.92463 0.53992 0.77728 0.0
C610 C 0.74115 0.71434 0.00106 0.0
C611 C 0.74359 0.6791 0.01254 0.0
C612 C 0.73438 0.64453 0.97809 0.0
C613 C 0.72746 0.67958 0.96704 0.0
N614 N 0.71755 0.74771 0.96886 0.0
N615 N 0.73286 0.61101 0.01276 0.0
C616 C 0.729 0.71454 0.97874 0.0
C617 C 0.73745 0.64426 0.00129 0.0
N618 N 0.75182 0.74741 0.01112 0.0
N619 N 0.7398 0.61163 0.96643 0.0
H620 H 0.73312 0.60961 0.02989 0.0
H621 H 0.72455 0.5856 0.00536 0.0
H622 H 0.73962 0.61063 0.94929 0.0
H623 H 0.7487 0.58616 0.97369 0.0
H624 H 0.75433 0.77329 0.00281 0.0
H625 H 0.76164 0.74836 0.02729 0.0
H626 H 0.71439 0.77334 0.97732 0.0
H627 H 0.70772 0.74891 0.95269 0.0
C628 C 0.56337 0.47454 0.25429 0.0
C629 C 0.52881 0.48396 0.2649 0.0
C630 C 0.49502 0.47614 0.22993 0.0
C631 C 0.53028 0.47193 0.21895 0.0
N632 N 0.5987 0.47642 0.22039 0.0
N633 N 0.46223 0.49961 0.26223 0.0
C634 C 0.56469 0.4736 0.23103 0.0
C635 C 0.49465 0.48625 0.2526 0.0
N636 N 0.59474 0.46511 0.2664 0.0
N637 N 0.46196 0.46926 0.21896 0.0
H638 H 0.46091 0.50798 0.27865 0.0
H639 H 0.43756 0.50568 0.25344 0.0
H640 H 0.46115 0.46098 0.20251 0.0
H641 H 0.43567 0.46815 0.22672 0.0
H642 H 0.61952 0.45435 0.25938 0.0
H643 H 0.5947 0.46392 0.28354 0.0
H644 H 0.62411 0.48159 0.22857 0.0
H645 H 0.60119 0.47799 0.20333 0.0
C646 C 0.72324 0.32346 0.5008 0.0
C647 C 0.71899 0.28883 0.51265 0.0
C648 C 0.73256 0.25272 0.47904 0.0
C649 C 0.73243 0.28729 0.46683 0.0
N650 N 0.71779 0.35472 0.46551 0.0
N651 N 0.71189 0.22032 0.51209 0.0
C652 C 0.72492 0.32246 0.47753 0.0
C653 C 0.72149 0.25333 0.50151 0.0
N654 N 0.72753 0.35723 0.51171 0.0
N655 N 0.74474 0.21957 0.46952 0.0
H656 H 0.70256 0.21963 0.52835 0.0
H657 H 0.70953 0.1942 0.50408 0.0
H658 H 0.75405 0.21802 0.45327 0.0
H659 H 0.74912 0.19442 0.47834 0.0
H660 H 0.73449 0.38263 0.50378 0.0
H661 H 0.72837 0.35923 0.52881 0.0
H662 H 0.70852 0.38018 0.47258 0.0
H663 H 0.71694 0.35502 0.44837 0.0
C664 C 0.02459 0.51665 0.25904 0.0
C665 C 0.02303 0.47861 0.26708 0.0
C666 C 0.02528 0.45418 0.22941 0.0
C667 C 0.02508 0.49222 0.22132 0.0
N668 N 0.01431 0.55915 0.22811 0.0
N669 N 0.01091 0.41216 0.25989 0.0
C670 C 0.02146 0.52332 0.23606 0.0
C671 C 0.01983 0.44768 0.25222 0.0
N672 N 0.0313 0.54624 0.2731 0.0
N673 N 0.03312 0.4243 0.21569 0.0
H674 H 0.0058 0.40657 0.27649 0.0
H675 H 0.00459 0.38935 0.24959 0.0
H676 H 0.03852 0.42752 0.19895 0.0
H677 H 0.03781 0.39658 0.22131 0.0
H678 H 0.03711 0.57385 0.26775 0.0
H679 H 0.0343 0.54279 0.29002 0.0
H680 H 0.00777 0.58228 0.23818 0.0
H681 H 0.011 0.56488 0.21138 0.0
C682 C 0.23823 0.32859 -0.00777 0.0
C683 C 0.24415 0.29445 0.00438 0.0
C684 C 0.22933 0.25695 0.97147 0.0
C685 C 0.22749 0.29114 0.95894 0.0
N686 N 0.24058 0.35864 0.95651 0.0
N687 N 0.25269 0.22604 0.00452 0.0
C688 C 0.235 0.32673 0.96905 0.0
C689 C 0.24176 0.25851 -0.00628 0.0
N690 N 0.23375 0.36271 0.0028 0.0
N691 N 0.21781 0.22326 0.96246 0.0
H692 H 0.2629 0.22611 0.02062 0.0
H693 H 0.25515 0.19962 -0.00317 0.0
H694 H 0.20792 0.22104 0.94636 0.0
H695 H 0.21479 0.19826 0.97157 0.0
H696 H 0.22562 0.38768 -0.00529 0.0
H697 H 0.23387 0.36538 0.01987 0.0
H698 H 0.24983 0.38441 0.96307 0.0
H699 H 0.24021 0.35834 0.93936 0.0
C700 C 0.39135 0.48913 0.75145 0.0
C701 C 0.42644 0.49435 0.76241 0.0
C702 C 0.46014 0.48254 0.7278 0.0
C703 C 0.42491 0.48181 0.71651 0.0
N704 N 0.35748 0.49437 0.71707 0.0
N705 N 0.49415 0.5033 0.76022 0.0
C706 C 0.39062 0.48799 0.72818 0.0
C707 C 0.4609 0.49309 0.75038 0.0
N708 N 0.35884 0.4834 0.7632 0.0
N709 N 0.49267 0.47164 0.71731 0.0
H710 H 0.49577 0.51207 0.77657 0.0
H711 H 0.51942 0.50664 0.75161 0.0
H712 H 0.49325 0.46282 0.70096 0.0
H713 H 0.51844 0.46784 0.72542 0.0
H714 H 0.33329 0.47569 0.75588 0.0
H715 H 0.35819 0.48207 0.78033 0.0
H716 H 0.33248 0.50271 0.72487 0.0
H717 H 0.35585 0.49563 0.69996 0.0
C718 C 0.2247 0.71956 0.49985 0.0
C719 C 0.22365 0.68472 0.5118 0.0
C720 C 0.2302 0.64901 0.47749 0.0
C721 C 0.23575 0.68365 0.46584 0.0
N722 N 0.24538 0.75179 0.46671 0.0
N723 N 0.23529 0.6167 0.51247 0.0
C724 C 0.23496 0.71899 0.47722 0.0
C725 C 0.22927 0.64954 0.50077 0.0
N726 N 0.21442 0.75298 0.50978 0.0
N727 N 0.22398 0.61574 0.46639 0.0
H728 H 0.23662 0.61598 0.52961 0.0
H729 H 0.2432 0.59104 0.50513 0.0
H730 H 0.22239 0.61421 0.44929 0.0
H731 H 0.21611 0.59051 0.47422 0.0
H732 H 0.21086 0.77852 0.50122 0.0
H733 H 0.20592 0.75455 0.52617 0.0
H734 H 0.24907 0.77765 0.47484 0.0
H735 H 0.25389 0.75247 0.4503 0.0
C736 C 0.35447 0.89077 0.11899 0.0
C737 C 0.34328 0.92968 0.12049 0.0
C738 C 0.27806 0.91197 0.11218 0.0
C739 C 0.29007 0.87417 0.10753 0.0
N740 N 0.34172 0.8294 0.10249 0.0
N741 N 0.29622 0.9781 0.11211 0.0
C742 C 0.32887 0.86394 0.10982 0.0
C743 C 0.30559 0.94058 0.11521 0.0
N744 N 0.38871 0.879 0.12712 0.0
N745 N 0.24045 0.92043 0.11469 0.0
H746 H 0.3161 -1e-05 0.11252 0.0
H747 H 0.26967 -0.01314 0.10644 0.0
H748 H 0.21934 0.89974 0.11431 0.0
H749 H 0.2308 0.94709 0.1199 0.0
H750 H 0.39643 0.85033 0.12837 0.0
H751 H 0.40783 0.89739 0.13464 0.0
H752 H 0.37041 0.8223 0.10178 0.0
H753 H 0.3242 0.80931 0.09509 0.0
C754 C 0.33523 0.10872 0.37056 0.0
C755 C 0.29683 0.09762 0.37335 0.0
C756 C 0.31387 0.03216 0.36403 0.0
C757 C 0.35065 0.04408 0.35792 0.0
N758 N 0.39507 0.09541 0.35246 0.0
N759 N 0.24825 0.05064 0.36641 0.0
C760 C 0.36116 0.08287 0.36043 0.0
C761 C 0.28571 0.05985 0.36829 0.0
N762 N 0.34732 0.14316 0.37825 0.0
N763 N 0.30612 -0.0057 0.36657 0.0
H764 H 0.2265 0.07081 0.36753 0.0
H765 H 0.23917 0.02403 0.36098 0.0
H766 H 0.32708 0.97335 0.36523 0.0
H767 H 0.28041 0.98441 0.37273 0.0
H768 H 0.37576 0.15096 0.37859 0.0
H769 H 0.32946 0.16251 0.38617 0.0
H770 H 0.40231 0.12417 0.35178 0.0
H771 H 0.41466 0.07746 0.34483 0.0
C772 C 0.1036 0.09102 0.62003 0.0
C773 C 0.11217 0.05175 0.62318 0.0
C774 C 0.17867 0.06394 0.61487 0.0
C775 C 0.16947 0.10198 0.6089 0.0
N776 N 0.1214 0.14995 0.60201 0.0
N777 N 0.15591 -0.00058 0.61709 0.0
C778 C 0.13141 0.11517 0.61045 0.0
C779 C 0.14915 0.03775 0.61869 0.0
N780 N 0.06964 0.1056 0.62689 0.0
N781 N 0.21559 0.05308 0.61784 0.0
H782 H 0.13451 0.97912 0.61817 0.0
H783 H 0.18186 -0.01183 0.61198 0.0
H784 H 0.23809 0.07214 0.61674 0.0
H785 H 0.22334 0.02639 0.62402 0.0
H786 H 0.0636 0.13473 0.62706 0.0
H787 H 0.04875 0.08901 0.63426 0.0
H788 H 0.09336 0.15915 0.60069 0.0
H789 H 0.14068 0.16818 0.59445 0.0
C790 C 0.10583 0.87818 0.85849 0.0
C791 C 0.11635 0.91654 0.85422 0.0
C792 C 0.18201 0.90114 0.86342 0.0
C793 C 0.17081 0.86446 0.87062 0.0
N794 N 0.12069 0.81961 0.87805 0.0
N795 N 0.16263 0.96659 0.85863 0.0
C796 C 0.13231 0.85323 0.86895 0.0
C797 C 0.15394 0.92865 0.85838 0.0
N798 N 0.07122 0.86515 0.85191 0.0
N799 N 0.21948 0.90936 0.86056 0.0
H800 H 0.14227 -0.01203 0.85663 0.0
H801 H 0.18902 0.97677 0.8635 0.0
H802 H 0.24084 0.88902 0.86269 0.0
H803 H 0.22882 0.93477 0.85352 0.0
H804 H 0.06365 0.83649 0.85257 0.0
H805 H 0.05129 0.88238 0.84395 0.0
H806 H 0.09229 0.81199 0.87936 0.0
H807 H 0.13913 0.80073 0.88597 0.0
C808 C 0.64912 0.08953 0.88769 0.0
C809 C 0.67171 0.10549 0.87078 0.0
C810 C 0.63296 0.07316 0.84318 0.0
C811 C 0.61523 0.05195 0.86014 0.0
N812 N 0.60924 0.0372 0.89884 0.0
N813 N 0.6877 0.10964 0.83221 0.0
C814 C 0.62362 0.05969 0.88253 0.0
C815 C 0.66406 0.097 0.8484 0.0
N816 N 0.65163 0.10335 0.90865 0.0
N817 N 0.61964 0.07092 0.8221 0.0
H818 H 0.71111 0.12673 0.83526 0.0
H819 H 0.68596 0.10052 0.81595 0.0
H820 H 0.59636 0.05429 0.81779 0.0
H821 H 0.62908 0.08847 0.80942 0.0
H822 H 0.63323 0.09538 0.92121 0.0
H823 H 0.66952 0.12575 0.91293 0.0
H824 H 0.61811 0.03875 0.91515 0.0
H825 H 0.59078 0.0148 0.89588 0.0
C826 C 0.65385 0.9356 0.61652 0.0
C827 C 0.61788 0.92208 0.62334 0.0
C828 C 0.63352 0.85908 0.60832 0.0
C829 C 0.67114 0.87152 0.60431 0.0
N830 N 0.71943 0.91898 0.61069 0.0
N831 N 0.57591 0.86881 0.62924 0.0
C832 C 0.68204 0.90902 0.61017 0.0
C833 C 0.60828 0.88318 0.6202 0.0
N834 N 0.66075 0.97385 0.61506 0.0
N835 N 0.62137 0.82502 0.60009 0.0
H836 H 0.55706 0.88527 0.63846 0.0
H837 H 0.56961 0.8398 0.62935 0.0
H838 H 0.63865 0.80691 0.59088 0.0
H839 H 0.59315 0.81648 0.60062 0.0
H840 H 0.68556 0.98483 0.6083 0.0
H841 H 0.64007 -0.00543 0.61799 0.0
H842 H 0.72871 0.9451 0.61676 0.0
H843 H 0.74138 0.89966 0.60767 0.0
C844 C 0.81982 0.87722 0.3849 0.0
C845 C 0.80013 0.8583 0.36781 0.0
C846 C 0.84173 0.8881 0.3406 0.0
C847 C 0.85648 0.91201 0.35726 0.0
N848 N 0.85761 0.9316 0.3953 0.0
N849 N 0.79021 0.8476 0.32899 0.0
C850 C 0.84547 0.90685 0.37951 0.0
C851 C 0.81086 0.86371 0.34553 0.0
N852 N 0.8143 0.86645 0.40627 0.0
N853 N 0.85753 0.88858 0.32009 0.0
H854 H 0.76725 0.82974 0.3318 0.0
H855 H 0.79396 0.85428 0.31244 0.0
H856 H 0.88047 0.90593 0.3161 0.0
H857 H 0.85051 0.86925 0.30778 0.0
H858 H 0.83048 0.87666 0.41931 0.0
H859 H 0.79613 0.84435 0.41073 0.0
H860 H 0.84682 0.93208 0.41123 0.0
H861 H 0.87645 0.95361 0.39207 0.0
C862 C 0.80302 0.10369 0.12995 0.0
C863 C 0.79598 0.11011 0.10724 0.0
C864 C 0.84364 0.06203 0.09754 0.0
C865 C 0.85108 0.056 0.12023 0.0
N866 N 0.84638 0.07891 0.15746 0.0
N867 N 0.81753 0.10428 0.06977 0.0
C868 C 0.83354 0.07949 0.13625 0.0
C869 C 0.81896 0.09215 0.09115 0.0
N870 N 0.77929 0.11852 0.14551 0.0
N871 N 0.85805 0.03769 0.08214 0.0
H872 H 0.80035 0.12693 0.06463 0.0
H873 H 0.83622 0.09468 0.05771 0.0
H874 H 0.87594 0.01504 0.08603 0.0
H875 H 0.84974 0.03808 0.06569 0.0
H876 H 0.78054 0.1109 0.16206 0.0
H877 H 0.75632 0.13604 0.14174 0.0
H878 H 0.83714 0.09805 0.16942 0.0
H879 H 0.86918 0.06192 0.1625 0.0
C880 C 0.81691 0.37997 0.58896 0.0
C881 C 0.79603 0.36248 0.60612 0.0
C882 C 0.83589 0.39449 0.63328 0.0
C883 C 0.85138 0.41739 0.61631 0.0
N884 N 0.85452 0.43402 0.57776 0.0
N885 N 0.78354 0.35523 0.64498 0.0
C886 C 0.84184 0.41036 0.59401 0.0
C887 C 0.80529 0.36978 0.62842 0.0
N888 N 0.81322 0.36713 0.56785 0.0
N889 N 0.8508 0.3961 0.65401 0.0
H890 H 0.76067 0.33726 0.64225 0.0
H891 H 0.78631 0.36342 0.66135 0.0
H892 H 0.87372 0.41347 0.65798 0.0
H893 H 0.84313 0.37746 0.66658 0.0
H894 H 0.83035 0.37632 0.55497 0.0
H895 H 0.79571 0.34436 0.56367 0.0
H896 H 0.84467 0.43295 0.56162 0.0
H897 H 0.87266 0.45673 0.58065 0.0
C898 C 0.81005 0.537 0.85535 0.0
C899 C 0.8468 0.54949 0.84935 0.0
C900 C 0.83189 0.61301 0.86391 0.0
C901 C 0.79381 0.60147 0.8673 0.0
N902 N 0.74464 0.55549 0.85979 0.0
N903 N 0.89041 0.60162 0.8441 0.0
C904 C 0.78225 0.56435 0.86108 0.0
C905 C 0.85718 0.58818 0.85254 0.0
N906 N 0.80201 0.49895 0.8567 0.0
N907 N 0.84444 0.64681 0.87228 0.0
H908 H 0.90934 0.58455 0.8353 0.0
H909 H 0.89745 0.63044 0.84404 0.0
H910 H 0.82711 0.66547 0.88108 0.0
H911 H 0.87288 0.65464 0.87224 0.0
H912 H 0.77645 0.48874 0.8629 0.0
H913 H 0.82226 0.47762 0.85428 0.0
H914 H 0.73499 0.52966 0.85349 0.0
H915 H 0.72311 0.57546 0.86241 0.0
C916 C 0.68824 0.56151 0.11645 0.0
C917 C 0.67864 0.5997 0.11102 0.0
C918 C 0.61402 0.58871 0.12434 0.0
C919 C 0.62251 0.54925 0.12668 0.0
N920 N 0.66542 0.49701 0.11854 0.0
N921 N 0.63005 0.64788 0.10605 0.0
C922 C 0.65898 0.53526 0.12092 0.0
C923 C 0.64087 0.61297 0.11396 0.0
N924 N 0.72532 0.55047 0.1182 0.0
N925 N 0.58108 0.60339 0.13266 0.0
H926 H 0.64844 0.66613 0.0978 0.0
H927 H 0.60192 0.65711 0.10579 0.0
H928 H 0.56108 0.5868 0.14084 0.0
H929 H 0.57539 0.63255 0.13332 0.0
H930 H 0.7335 0.52361 0.12395 0.0
H931 H 0.74775 0.5695 0.11658 0.0
H932 H 0.69087 0.48596 0.11254 0.0
H933 H 0.64405 0.47671 0.11984 0.0
C934 C 0.63506 0.37072 0.38704 0.0
C935 C 0.65891 0.35524 0.37055 0.0
C936 C 0.62136 0.38788 0.34228 0.0
C937 C 0.60251 0.4089 0.35894 0.0
N938 N 0.5931 0.42214 0.3976 0.0
N939 N 0.67657 0.35063 0.33228 0.0
C940 C 0.60926 0.40042 0.38147 0.0
C941 C 0.65222 0.36369 0.34805 0.0
N942 N 0.63688 0.35666 0.40801 0.0
N943 N 0.60937 0.39077 0.32095 0.0
H944 H 0.69946 0.3328 0.33577 0.0
H945 H 0.67574 0.35973 0.31598 0.0
H946 H 0.58632 0.40775 0.31627 0.0
H947 H 0.61962 0.37349 0.30835 0.0
H948 H 0.61767 0.36413 0.42029 0.0
H949 H 0.65524 0.33456 0.41255 0.0
H950 H 0.60089 0.42031 0.41409 0.0
H951 H 0.57385 0.444 0.39444 0.0
C952 C 0.11415 0.55484 0.3846 0.0
C953 C 0.1039 0.54937 0.36228 0.0
C954 C 0.14793 0.5993 0.35086 0.0
C955 C 0.15814 0.60503 0.37323 0.0
N956 N 0.14249 0.59681 0.41154 0.0
N957 N 0.10178 0.57404 0.32532 0.0
C958 C 0.13843 0.58553 0.39016 0.0
C959 C 0.11777 0.57422 0.3458 0.0
N960 N 0.10269 0.52955 0.40034 0.0
N961 N 0.16842 0.61559 0.33432 0.0
H962 H 0.07915 0.55637 0.32124 0.0
H963 H 0.10815 0.59408 0.31322 0.0
H964 H 0.19087 0.63397 0.33704 0.0
H965 H 0.16508 0.60842 0.31782 0.0
H966 H 0.11315 0.52955 0.41636 0.0
H967 H 0.08487 0.50672 0.39703 0.0
H968 H 0.12617 0.58601 0.42436 0.0
H969 H 0.15931 0.61988 0.41611 0.0
C970 C 0.13654 0.36114 0.10741 0.0
C971 C 0.1745 0.37339 0.1045 0.0
C972 C 0.1581 0.43594 0.11932 0.0
C973 C 0.12141 0.42254 0.12465 0.0
N974 N 0.07718 0.3704 0.12683 0.0
N975 N 0.22347 0.41864 0.11349 0.0
C976 C 0.11092 0.38454 0.11953 0.0
C977 C 0.18591 0.4097 0.11215 0.0
N978 N 0.12459 0.32798 0.09796 0.0
N979 N 0.16602 0.47402 0.12005 0.0
H980 H 0.24494 0.39926 0.10961 0.0
H981 H 0.23324 0.44351 0.1209 0.0
H982 H 0.14568 0.49463 0.12387 0.0
H983 H 0.1914 0.48539 0.11431 0.0
H984 H 0.0963 0.31969 0.09757 0.0
H985 H 0.14246 0.31025 0.08887 0.0
H986 H 0.06982 0.34176 0.12558 0.0
H987 H 0.05782 0.38664 0.13584 0.0
C988 C 0.34549 0.40605 0.87726 0.0
C989 C 0.35296 0.41565 0.85499 0.0
C990 C 0.30348 0.37183 0.84269 0.0
C991 C 0.29622 0.36209 0.86494 0.0
N992 N 0.3171 0.36117 0.90267 0.0
N993 N 0.34706 0.4 0.81657 0.0
C994 C 0.31954 0.37637 0.88199 0.0
C995 C 0.33452 0.39594 0.83772 0.0
N996 N 0.36115 0.42674 0.89392 0.0
N997 N 0.2795 0.36007 0.82644 0.0
H998 H 0.37019 0.41701 0.81245 0.0
H999 H 0.33712 0.38364 0.80353 0.0
H1000 H 0.25642 0.34242 0.82934 0.0
H1001 H 0.28079 0.37015 0.81034 0.0
H1002 H 0.35297 0.42407 0.9103 0.0
H1003 H 0.3803 0.44869 0.89129 0.0
H1004 H 0.33589 0.36781 0.9153 0.0
H1005 H 0.29869 0.33898 0.90659 0.0
C1006 C 0.33969 0.56055 0.59837 0.0
C1007 C 0.34731 0.55404 0.62099 0.0
C1008 C 0.30063 0.60295 0.63109 0.0
C1009 C 0.29376 0.61012 0.60843 0.0
N1010 N 0.31454 0.60388 0.57085 0.0
N1011 N 0.34308 0.57605 0.65844 0.0
C1012 C 0.3159 0.59153 0.59218 0.0
C1013 C 0.33036 0.57757 0.63722 0.0
N1014 N 0.35303 0.53586 0.58281 0.0
N1015 N 0.27748 0.61837 0.64675 0.0
H1016 H 0.36524 0.55817 0.66343 0.0
H1017 H 0.33439 0.59516 0.67055 0.0
H1018 H 0.25526 0.6369 0.64309 0.0
H1019 H 0.2784 0.61037 0.66325 0.0
H1020 H 0.34461 0.53676 0.5664 0.0
H1021 H 0.36991 0.51234 0.58658 0.0
H1022 H 0.33275 0.59381 0.55867 0.0
H1023 H 0.29796 0.62707 0.56584 0.0
C1024 C 0.36772 0.15358 0.10186 0.0
C1025 C 0.34905 0.12225 0.1118 0.0
C1026 C 0.29203 0.16141 0.11726 0.0
C1027 C 0.31184 0.19348 0.10896 0.0
N1028 N 0.37041 0.22205 0.097 0.0
N1029 N 0.29529 0.0964 0.13105 0.0
C1030 C 0.35015 0.19007 0.10211 0.0
C1031 C 0.31172 0.1262 0.12017 0.0
N1032 N 0.40229 0.14842 0.09214 0.0
N1033 N 0.25408 0.1643 0.12153 0.0
H1034 H 0.30822 0.06968 0.13261 0.0
H1035 H 0.26996 0.09869 0.13972 0.0
H1036 H 0.23878 0.18961 0.11948 0.0
H1037 H 0.23705 0.1411 0.12543 0.0
H1038 H 0.4153 0.1689 0.08233 0.0
H1039 H 0.41692 0.12254 0.09256 0.0
H1040 H 0.39954 0.222 0.09431 0.0
H1041 H 0.35878 0.24941 0.0974 0.0
C1042 C 0.10559 0.05828 0.37352 0.0
C1043 C 0.10643 0.09719 0.36709 0.0
C1044 C 0.03819 0.09617 0.35966 0.0
C1045 C 0.03784 0.05651 0.36449 0.0
N1046 N 0.07156 -0.00172 0.37284 0.0
N1047 N 0.07538 0.15228 0.35135 0.0
C1048 C 0.07166 0.03711 0.3706 0.0
C1049 C 0.07328 0.11581 0.35927 0.0
N1050 N 0.13704 0.0418 0.38273 0.0
N1051 N 0.00479 0.11551 0.35661 0.0
H1052 H 0.10022 0.16822 0.35177 0.0
H1053 H 0.05334 0.16584 0.34299 0.0
H1054 H 0.97836 0.10238 0.35697 0.0
H1055 H 0.00285 0.14511 0.35557 0.0
H1056 H 0.13713 0.01488 0.38997 0.0
H1057 H 0.16266 0.05618 0.38453 0.0
H1058 H 0.09599 0.98191 0.37501 0.0
H1059 H 0.04724 0.98191 0.37072 0.0
C1060 C 0.1458 0.86029 0.62555 0.0
C1061 C 0.11037 0.86417 0.61468 0.0
C1062 C 0.11408 0.7978 0.60234 0.0
C1063 C 0.15065 0.79456 0.612 0.0
N1064 N 0.20433 0.82417 0.62938 0.0
N1065 N 0.06337 0.8392 0.58975 0.0
C1066 C 0.16735 0.82621 0.62273 0.0
C1067 C 0.09543 0.83377 0.60205 0.0
N1068 N 0.15874 0.8891 0.63864 0.0
N1069 N 0.0961 0.76604 0.5946 0.0
H1070 H 0.04768 0.86448 0.58984 0.0
H1071 H 0.0538 0.81966 0.57816 0.0
H1072 H 0.10839 0.73896 0.59458 0.0
H1073 H 0.0677 0.76575 0.58995 0.0
H1074 H 0.18204 0.88635 0.64904 0.0
H1075 H 0.14479 0.91528 0.64016 0.0
H1076 H 0.21946 0.84743 0.63526 0.0
H1077 H 0.22112 0.79987 0.62722 0.0
C1078 C 0.39725 0.92938 0.86489 0.0
C1079 C 0.43169 0.9113 0.87106 0.0
C1080 C 0.39835 0.85111 0.87707 0.0
C1081 C 0.36341 0.86991 0.8728 0.0
N1082 N 0.32855 0.9281 0.86599 0.0
N1083 N 0.46483 0.85673 0.8862 0.0
C1084 C 0.36254 0.9094 0.86755 0.0
C1085 C 0.43213 0.87275 0.87824 0.0
N1086 N 0.39778 0.96549 0.85637 0.0
N1087 N 0.39958 0.81223 0.87874 0.0
H1088 H 0.49067 0.87097 0.88653 0.0
H1089 H 0.4658 0.83028 0.89402 0.0
H1090 H 0.37558 0.79532 0.87717 0.0
H1091 H 0.42465 0.79646 0.87944 0.0
H1092 H 0.37424 0.97865 0.84925 0.0
H1093 H 0.42251 0.98152 0.8551 0.0
H1094 H 0.32595 0.95758 0.86441 0.0
H1095 H 0.30268 0.91444 0.86821 0.0
C1096 C 0.2875 0.81834 0.36592 0.0
C1097 C 0.30374 0.7835 0.35871 0.0
C1098 C 0.3629 0.81621 0.34957 0.0
C1099 C 0.34567 0.85157 0.35511 0.0
N1100 N 0.28947 0.88736 0.36452 0.0
N1101 N 0.35456 0.74964 0.34043 0.0
C1102 C 0.30737 0.85295 0.36225 0.0
C1103 C 0.34065 0.78261 0.3494 0.0
N1104 N 0.25316 0.81837 0.37631 0.0
N1105 N 0.40105 0.81431 0.34574 0.0
H1106 H 0.34006 0.72384 0.34082 0.0
H1107 H 0.37931 0.74845 0.33113 0.0
H1108 H 0.41858 0.8381 0.34628 0.0
H1109 H 0.41601 0.78879 0.34411 0.0
H1110 H 0.24191 0.84217 0.38425 0.0
H1111 H 0.23689 0.79385 0.37828 0.0
H1112 H 0.26058 0.89035 0.36757 0.0
H1113 H 0.30283 0.91311 0.36118 0.0
C1114 C 0.39837 0.1155 0.61192 0.0
C1115 C 0.36344 0.09573 0.61119 0.0
C1116 C 0.39698 0.03454 0.6151 0.0
C1117 C 0.43192 0.05423 0.61422 0.0
N1118 N 0.46676 0.11252 0.60879 0.0
N1119 N 0.32889 0.03675 0.60923 0.0
C1120 C 0.43285 0.09447 0.61169 0.0
C1121 C 0.36254 0.05527 0.61202 0.0
N1122 N 0.39852 0.15437 0.61387 0.0
N1123 N 0.39678 -0.00377 0.61937 0.0
H1124 H 0.30324 0.05114 0.60699 0.0
H1125 H 0.32663 0.00732 0.60745 0.0
H1126 H 0.42159 0.98017 0.62115 0.0
H1127 H 0.37229 0.98081 0.6226 0.0
H1128 H 0.42282 0.17023 0.61687 0.0
H1129 H 0.37377 0.17069 0.61442 0.0
H1130 H 0.46912 0.14104 0.60421 0.0
H1131 H 0.49277 0.0983 0.60943 0.0
C1132 C 0.15429 0.11245 0.85979 0.0
C1133 C 0.11465 0.11125 0.85586 0.0
C1134 C 0.11269 0.18092 0.85219 0.0
C1135 C 0.15177 0.18223 0.85767 0.0
N1136 N 0.20905 0.15053 0.86948 0.0
N1137 N 0.05471 0.1442 0.85214 0.0
C1138 C 0.17235 0.14834 0.86237 0.0
C1139 C 0.09344 0.14545 0.85299 0.0
N1140 N 0.1749 0.07931 0.86012 0.0
N1141 N 0.094 0.21359 0.84613 0.0
H1142 H 0.03942 0.11885 0.85277 0.0
H1143 H 0.03742 0.16833 0.85268 0.0
H1144 H 0.10647 0.24049 0.84644 0.0
H1145 H 0.06686 0.21386 0.83939 0.0
H1146 H 0.20437 0.07831 0.86058 0.0
H1147 H 0.16263 0.05258 0.85807 0.0
H1148 H 0.22427 0.12729 0.87558 0.0
H1149 H 0.22362 0.17626 0.87072 0.0
C1150 C 0.07031 0.85462 0.12604 0.0
C1151 C 0.10212 0.87113 0.11554 0.0
C1152 C 0.06576 0.92968 0.10851 0.0
C1153 C 0.03294 0.91164 0.11697 0.0
N1154 N 0.00217 0.85453 0.13017 0.0
N1155 N 0.12995 0.9225 0.09477 0.0
C1156 C 0.03472 0.87352 0.12491 0.0
C1157 C 0.09978 0.90813 0.10613 0.0
N1158 N 0.07412 0.82087 0.13715 0.0
N1159 N 0.06478 0.96776 0.10359 0.0
H1160 H 0.15586 0.90821 0.09348 0.0
H1161 H 0.12859 0.94737 0.0854 0.0
H1162 H 0.0405 0.98454 0.10548 0.0
H1163 H 0.08869 0.98351 0.0995 0.0
H1164 H 0.05311 0.80966 0.14726 0.0
H1165 H 0.09943 0.80548 0.13771 0.0
H1166 H 0.00133 0.8254 0.13352 0.0
H1167 H 0.97529 0.86689 0.12926 0.0
C1168 C 0.67506 0.81925 0.86091 0.0
C1169 C 0.65546 0.78459 0.8645 0.0
C1170 C 0.59466 0.81879 0.8648 0.0
C1171 C 0.61446 0.85372 0.86286 0.0
N1172 N 0.67307 0.88856 0.86118 0.0
N1173 N 0.59752 0.75095 0.87247 0.0
C1174 C 0.6546 0.85435 0.86152 0.0
C1175 C 0.61549 0.78425 0.86723 0.0
N1176 N 0.7131 0.81846 0.85664 0.0
N1177 N 0.55592 0.81862 0.86381 0.0
H1178 H 0.61147 0.72472 0.87358 0.0
H1179 H 0.56922 0.74949 0.8772 0.0
H1180 H 0.53967 0.84346 0.86248 0.0
H1181 H 0.53983 0.79392 0.86264 0.0
H1182 H 0.72846 0.84212 0.85152 0.0
H1183 H 0.72914 0.79337 0.85691 0.0
H1184 H 0.70231 0.89126 0.8626 0.0
H1185 H 0.65889 0.91476 0.86081 0.0
C1186 C 0.93029 0.8778 0.6091 0.0
C1187 C 0.92946 0.9179 0.60575 0.0
C1188 C 0.8616 0.91526 0.59714 0.0
C1189 C 0.86183 0.87589 0.60261 0.0
N1190 N 0.89494 0.81969 0.61534 0.0
N1191 N 0.89462 0.97587 0.5985 0.0
C1192 C 0.89581 0.85715 0.609 0.0
C1193 C 0.89522 0.93695 0.60012 0.0
N1194 N 0.96429 0.85928 0.61159 0.0
N1195 N 0.82934 0.93168 0.58888 0.0
H1196 H 0.91883 -0.0075 0.60035 0.0
H1197 H 0.86991 -0.00804 0.59681 0.0
H1198 H 0.80406 0.91674 0.58699 0.0
H1199 H 0.82817 0.95919 0.58245 0.0
H1200 H 0.96729 0.82973 0.61159 0.0
H1201 H -0.00979 0.87339 0.61187 0.0
H1202 H 0.91759 0.80562 0.62282 0.0
H1203 H 0.87061 0.80306 0.61432 0.0
C1204 C 0.79122 0.14266 0.36046 0.0
C1205 C 0.80875 0.17677 0.36759 0.0
C1206 C 0.86827 0.14217 0.37425 0.0
C1207 C 0.85176 0.10893 0.3652 0.0
N1208 N 0.79905 0.07742 0.34787 0.0
N1209 N 0.86524 0.21089 0.37806 0.0
C1210 C 0.81364 0.10914 0.35775 0.0
C1211 C 0.84757 0.17703 0.3738 0.0
N1212 N 0.75292 0.14206 0.35703 0.0
N1213 N 0.90375 0.14042 0.3833 0.0
H1214 H 0.8513 0.23719 0.37779 0.0
H1215 H 0.89441 0.21347 0.38008 0.0
H1216 H 0.92051 0.11582 0.38309 0.0
H1217 H 0.91557 0.16245 0.39242 0.0
H1218 H 0.73768 0.11728 0.35402 0.0
H1219 H 0.73567 0.16609 0.359 0.0
H1220 H 0.77307 0.07708 0.33977 0.0
H1221 H 0.81399 0.05176 0.34658 0.0
C1222 C 0.59777 0.06439 0.11249 0.0
C1223 C 0.59735 0.10276 0.10494 0.0
C1224 C 0.53039 0.09685 0.09496 0.0
C1225 C 0.52963 0.06024 0.10497 0.0
N1226 N 0.56142 0.0099 0.12494 0.0
N1227 N 0.56166 0.15791 0.09284 0.0
C1228 C 0.563 0.04424 0.11429 0.0
C1229 C 0.56329 0.11959 0.09705 0.0
N1230 N 0.63153 0.04671 0.11704 0.0
N1231 N 0.49966 0.11011 0.0835 0.0
H1232 H 0.58474 0.17594 0.0949 0.0
H1233 H 0.53655 0.17258 0.08949 0.0
H1234 H 0.47453 0.09496 0.08197 0.0
H1235 H 0.50022 0.13468 0.07384 0.0
H1236 H 0.63404 0.01769 0.12045 0.0
H1237 H 0.65762 0.06029 0.11547 0.0
H1238 H 0.5836 -0.00107 0.13436 0.0
H1239 H 0.53702 -0.00675 0.12537 0.0
C1240 C 0.672 0.14717 0.62371 0.0
C1241 C 0.65443 0.17893 0.61328 0.0
C1242 C 0.5998 0.13937 0.60357 0.0
C1243 C 0.61539 0.109 0.61617 0.0
N1244 N 0.66491 0.08403 0.63958 0.0
N1245 N 0.59884 0.20718 0.59642 0.0
C1246 C 0.65107 0.11295 0.62669 0.0
C1247 C 0.61772 0.17549 0.60386 0.0
N1248 N 0.7092 0.14923 0.62989 0.0
N1249 N 0.56776 0.13385 0.59134 0.0
H1250 H 0.61045 0.2344 0.59652 0.0
H1251 H 0.57033 0.20723 0.592 0.0
H1252 H 0.55258 0.10846 0.59138 0.0
H1253 H 0.55781 0.15344 0.57977 0.0
H1254 H 0.72485 0.12592 0.63553 0.0
H1255 H 0.7256 0.17355 0.6275 0.0
H1256 H 0.6884 0.08686 0.6498 0.0
H1257 H 0.65162 0.05765 0.64105 0.0
C1258 C 0.56613 0.91959 0.36563 0.0
C1259 C 0.53351 0.90203 0.35657 0.0
C1260 C 0.56974 0.84309 0.34999 0.0
C1261 C 0.60258 0.86114 0.35832 0.0
N1262 N 0.63444 0.91771 0.37073 0.0
N1263 N 0.50501 0.84918 0.33722 0.0
C1264 C 0.60145 0.89975 0.36523 0.0
C1265 C 0.53564 0.86452 0.34771 0.0
N1266 N 0.56327 0.95515 0.37472 0.0
N1267 N 0.57062 0.80488 0.3454 0.0
H1268 H 0.47862 0.86251 0.33644 0.0
H1269 H 0.50624 0.82421 0.32801 0.0
H1270 H 0.59513 0.78823 0.34661 0.0
H1271 H 0.54661 0.78884 0.34197 0.0
H1272 H 0.58461 0.9677 0.38399 0.0
H1273 H 0.53863 0.97167 0.37392 0.0
H1274 H 0.63642 0.94682 0.3738 0.0
H1275 H 0.66075 0.90398 0.37053 0.0
C1276 C 0.85113 0.78832 0.10496 0.0
C1277 C 0.81442 0.7841 0.1143 0.0
C1278 C 0.814 0.85165 0.12497 0.0
C1279 C 0.85159 0.85499 0.117 0.0
N1280 N 0.9082 0.82623 0.10211 0.0
N1281 N 0.76151 0.81027 0.13447 0.0
C1282 C 0.87069 0.82332 0.10758 0.0
C1283 C 0.79607 0.81536 0.12475 0.0
N1284 N 0.86743 0.75886 0.09358 0.0
N1285 N 0.79505 0.88355 0.13196 0.0
H1286 H 0.7462 0.785 0.13324 0.0
H1287 H 0.74865 0.83033 0.14465 0.0
H1288 H 0.80747 0.91048 0.13243 0.0
H1289 H 0.76634 0.88413 0.13583 0.0
H1290 H 0.8916 0.76174 0.08394 0.0
H1291 H 0.85576 0.73171 0.09261 0.0
H1292 H 0.92524 0.80306 0.09786 0.0
H1293 H 0.9234 0.85155 0.10336 0.0
C1294 C 0.90242 0.03848 0.86397 0.0
C1295 C 0.93726 0.05579 0.86974 0.0
C1296 C 0.90516 0.1173 0.87478 0.0
C1297 C 0.86996 0.09954 0.8703 0.0
N1298 N 0.83375 0.04226 0.86454 0.0
N1299 N 0.97163 0.10981 0.88391 0.0
C1300 C 0.86819 0.05982 0.86594 0.0
C1301 C 0.93851 0.09458 0.87631 0.0
N1302 N 0.90217 0.00182 0.85633 0.0
N1303 N 0.90706 0.15616 0.8763 0.0
H1304 H -0.00286 0.0947 0.88442 0.0
H1305 H 0.97335 0.13654 0.89128 0.0
H1306 H 0.88338 0.17384 0.87482 0.0
H1307 H 0.93237 0.17123 0.87704 0.0
H1308 H 0.87846 -0.01092 0.84936 0.0
H1309 H 0.92644 0.9847 0.85579 0.0
H1310 H 0.83049 0.01281 0.86368 0.0
H1311 H 0.80808 0.05691 0.86611 0.0
C1312 C 0.84526 0.68828 0.62198 0.0
C1313 C 0.80811 0.68963 0.61298 0.0
C1314 C 0.80945 0.62024 0.60777 0.0
C1315 C 0.84786 0.61953 0.61473 0.0
N1316 N 0.90451 0.6535 0.62499 0.0
N1317 N 0.75569 0.65805 0.59539 0.0
C1318 C 0.86631 0.65368 0.62105 0.0
C1319 C 0.7905 0.65593 0.60522 0.0
N1320 N 0.86057 0.72006 0.63141 0.0
N1321 N 0.79061 0.58671 0.60455 0.0
H1322 H 0.73987 0.68323 0.59447 0.0
H1323 H 0.7434 0.63541 0.58699 0.0
H1324 H 0.80337 0.56003 0.60663 0.0
H1325 H 0.76157 0.58511 0.60172 0.0
H1326 H 0.88548 0.7196 0.6406 0.0
H1327 H 0.84711 0.74657 0.63151 0.0
H1328 H 0.92043 0.67818 0.62698 0.0
H1329 H 0.9212 0.62892 0.62433 0.0
C1330 C 0.6033 0.56079 0.87437 0.0
C1331 C 0.60401 0.59932 0.86719 0.0
C1332 C 0.53586 0.59763 0.85976 0.0
C1333 C 0.53571 0.55817 0.8651 0.0
N1334 N 0.56956 0.5006 0.8747 0.0
N1335 N 0.57282 0.65317 0.85007 0.0
C1336 C 0.5695 0.53928 0.87174 0.0
C1337 C 0.57085 0.61732 0.85891 0.0
N1338 N 0.63483 0.54493 0.88385 0.0
N1339 N 0.50237 0.61678 0.85662 0.0
H1340 H 0.59766 0.66915 0.84979 0.0
H1341 H 0.5506 0.666 0.84148 0.0
H1342 H 0.47595 0.60367 0.85752 0.0
H1343 H 0.50042 0.64632 0.85517 0.0
H1344 H 0.63499 0.51845 0.89163 0.0
H1345 H 0.6605 0.55935 0.88521 0.0
H1346 H 0.59403 0.48448 0.87728 0.0
H1347 H 0.54533 0.48401 0.87283 0.0
C1348 C 0.65112 0.35798 0.12475 0.0
C1349 C 0.61559 0.36331 0.11421 0.0
C1350 C 0.61682 0.2972 0.10127 0.0
C1351 C 0.65337 0.29245 0.11072 0.0
N1352 N 0.70853 0.31987 0.12776 0.0
N1353 N 0.56743 0.34068 0.08931 0.0
C1354 C 0.67145 0.3233 0.12147 0.0
C1355 C 0.59946 0.33381 0.10137 0.0
N1356 N 0.66528 0.38595 0.13801 0.0
N1357 N 0.59761 0.26629 0.09342 0.0
H1358 H 0.55281 0.36654 0.08971 0.0
H1359 H 0.55693 0.32181 0.07761 0.0
H1360 H 0.60892 0.23879 0.09328 0.0
H1361 H 0.56919 0.26712 0.08883 0.0
H1362 H 0.68872 0.38211 0.1482 0.0
H1363 H 0.65221 0.4125 0.1399 0.0
H1364 H 0.72457 0.34248 0.13365 0.0
H1365 H 0.72444 0.29509 0.12525 0.0
C1366 C 0.89122 0.34279 0.35991 0.0
C1367 C 0.85822 0.36127 0.36799 0.0
C1368 C 0.89419 0.41994 0.37423 0.0
C1369 C 0.92771 0.40047 0.36778 0.0
N1370 N 0.95977 0.34182 0.35836 0.0
N1371 N 0.82809 0.41561 0.38498 0.0
C1372 C 0.92666 0.3615 0.36155 0.0
C1373 C 0.85965 0.39934 0.37583 0.0
N1374 N 0.88869 0.30734 0.35067 0.0
N1375 N 0.89518 0.45835 0.37806 0.0
H1376 H 0.80185 0.40204 0.38544 0.0
H1377 H 0.82829 0.44153 0.39329 0.0
H1378 H 0.92005 0.47423 0.37711 0.0
H1379 H 0.87111 0.47509 0.38054 0.0
H1380 H 0.91086 0.29429 0.3422 0.0
H1381 H 0.86356 0.29187 0.35003 0.0
H1382 H 0.96123 0.31241 0.35613 0.0
H1383 H -0.01368 0.35437 0.35999 0.0
C1384 C 0.86486 0.33006 0.87083 0.0
C1385 C 0.8484 0.35966 0.85798 0.0
C1386 C 0.79284 0.3197 0.8509 0.0
C1387 C 0.81115 0.28891 0.86186 0.0
N1388 N 0.86742 0.26255 0.87887 0.0
N1389 N 0.7983 0.3825 0.8343 0.0
C1390 C 0.84781 0.29353 0.87107 0.0
C1391 C 0.81285 0.35439 0.84751 0.0
N1392 N 0.89688 0.33676 0.88286 0.0
N1393 N 0.75582 0.31627 0.84457 0.0
H1394 H 0.81101 0.40912 0.83249 0.0
H1395 H 0.77484 0.3788 0.82416 0.0
H1396 H 0.74019 0.29148 0.84712 0.0
H1397 H 0.73956 0.33883 0.83853 0.0
H1398 H 0.90748 0.31785 0.8946 0.0
H1399 H 0.91135 0.36252 0.88241 0.0
H1400 H 0.89594 0.26329 0.88324 0.0
H1401 H 0.85638 0.23507 0.87911 0.0
C1402 C 0.90942 0.53943 0.11561 0.0
C1403 C 0.94365 0.55952 0.11206 0.0
C1404 C 0.90824 0.61916 0.10681 0.0
C1405 C 0.87386 0.59868 0.109 0.0
N1406 N 0.84093 0.53885 0.11189 0.0
N1407 N 0.97621 0.61692 0.10119 0.0
C1408 C 0.87421 0.55862 0.11243 0.0
C1409 C 0.94319 0.59889 0.10658 0.0
N1410 N 0.91064 0.50219 0.12233 0.0
N1411 N 0.90757 0.65817 0.10619 0.0
H1412 H 0.00267 0.60356 0.10178 0.0
H1413 H 0.97722 0.64434 0.09462 0.0
H1414 H 0.88255 0.67407 0.1067 0.0
H1415 H 0.93174 0.67498 0.1071 0.0
H1416 H 0.88697 0.4872 0.12766 0.0
H1417 H 0.93589 0.48679 0.12388 0.0
H1418 H 0.83942 0.5092 0.11205 0.0
H1419 H 0.81471 0.55204 0.10941 0.0
C1420 C 0.62144 0.62513 0.38091 0.0
C1421 C 0.61226 0.60667 0.36079 0.0
C1422 C 0.64069 0.66 0.34091 0.0
C1423 C 0.65547 0.67489 0.36089 0.0
N1424 N 0.669 0.66234 0.39936 0.0
N1425 N 0.62598 0.60187 0.32178 0.0
C1426 C 0.64873 0.65465 0.38077 0.0
C1427 C 0.62581 0.62257 0.34079 0.0
N1428 N 0.60295 0.61643 0.39998 0.0
N1429 N 0.63852 0.6818 0.3223 0.0
H1430 H 0.61897 0.57305 0.32122 0.0
H1431 H 0.63809 0.61209 0.30729 0.0
H1432 H 0.64479 0.71079 0.32196 0.0
H1433 H 0.62537 0.6722 0.30799 0.0
H1434 H 0.60736 0.63153 0.41451 0.0
H1435 H 0.57983 0.59814 0.40068 0.0
H1436 H 0.66636 0.64616 0.41369 0.0
H1437 H 0.69178 0.68115 0.3996 0.0
C1438 C 0.56332 0.3497 0.60724 0.0
C1439 C 0.59784 0.36728 0.61333 0.0
C1440 C 0.56331 0.42604 0.62266 0.0
C1441 C 0.52961 0.40964 0.61429 0.0
N1442 N 0.49838 0.35788 0.59545 0.0
N1443 N 0.63202 0.42383 0.62384 0.0
C1444 C 0.52992 0.37214 0.60553 0.0
C1445 C 0.59824 0.40589 0.62037 0.0
N1446 N 0.56201 0.31108 0.60425 0.0
N1447 N 0.56194 0.46082 0.63276 0.0
H1448 H 0.65818 0.4102 0.62201 0.0
H1449 H 0.63435 0.45299 0.62672 0.0
H1450 H 0.53721 0.47716 0.63377 0.0
H1451 H 0.58464 0.47233 0.6414 0.0
H1452 H 0.53692 0.29603 0.60209 0.0
H1453 H 0.5856 0.29344 0.60632 0.0
H1454 H 0.49843 0.3325 0.58657 0.0
H1455 H 0.4728 0.37273 0.59439 0.0
C1456 C 0.10095 0.31434 0.35055 0.0
C1457 C 0.11615 0.34869 0.35909 0.0
C1458 C 0.17489 0.31504 0.36911 0.0
C1459 C 0.16041 0.28128 0.35949 0.0
N1460 N 0.11254 0.2502 0.33751 0.0
N1461 N 0.17018 0.38388 0.37219 0.0
C1462 C 0.12447 0.28147 0.34895 0.0
C1463 C 0.15387 0.34966 0.36722 0.0
N1464 N 0.06336 0.31236 0.34519 0.0
N1465 N 0.20866 0.31398 0.38014 0.0
H1466 H 0.15602 0.40992 0.37047 0.0
H1467 H 0.19874 0.38693 0.37605 0.0
H1468 H 0.22607 0.28984 0.38059 0.0
H1469 H 0.21845 0.3363 0.38984 0.0
H1470 H 0.04954 0.28696 0.34157 0.0
H1471 H 0.04492 0.33554 0.34623 0.0
H1472 H 0.08883 0.2504 0.32731 0.0
H1473 H 0.12779 0.22474 0.33672 0.0
C1474 C 0.36585 0.42024 0.11195 0.0
C1475 C 0.3665 0.38296 0.10281 0.0
C1476 C 0.43448 0.38929 0.09535 0.0
C1477 C 0.43463 0.4245 0.10687 0.0
N1478 N 0.40144 0.47242 0.12785 0.0
N1479 N 0.40274 0.32932 0.08918 0.0
C1480 C 0.40058 0.43962 0.11573 0.0
C1481 C 0.4011 0.36686 0.09521 0.0
N1482 N 0.33195 0.4378 0.11611 0.0
N1483 N 0.4663 0.377 0.08462 0.0
H1484 H 0.37927 0.31148 0.08921 0.0
H1485 H 0.42799 0.31475 0.08613 0.0
H1486 H 0.49194 0.39149 0.08504 0.0
H1487 H 0.46651 0.354 0.0738 0.0
H1488 H 0.32937 0.4663 0.12068 0.0
H1489 H 0.30601 0.42491 0.11294 0.0
H1490 H 0.37852 0.48235 0.13701 0.0
H1491 H 0.4259 0.48865 0.12982 0.0
C1492 C 0.29417 0.65037 0.85797 0.0
C1493 C 0.31129 0.68193 0.86855 0.0
C1494 C 0.36725 0.64281 0.87738 0.0
C1495 C 0.35154 0.61239 0.8651 0.0
N1496 N 0.30179 0.58725 0.84219 0.0
N1497 N 0.36592 0.71015 0.88598 0.0
C1498 C 0.3155 0.61622 0.8549 0.0
C1499 C 0.34817 0.67859 0.87783 0.0
N1500 N 0.25696 0.65255 0.85175 0.0
N1501 N 0.4006 0.63761 0.88852 0.0
H1502 H 0.35298 0.73682 0.88697 0.0
H1503 H 0.39447 0.71082 0.89027 0.0
H1504 H 0.4171 0.61294 0.88732 0.0
H1505 H 0.41095 0.6568 0.90008 0.0
H1506 H 0.24151 0.62939 0.84603 0.0
H1507 H 0.24034 0.6769 0.85409 0.0
H1508 H 0.27804 0.58994 0.83213 0.0
H1509 H 0.31541 0.5609 0.84068 0.0
C1510 C 0.06456 0.54543 0.61005 0.0
C1511 C 0.02951 0.56464 0.60694 0.0
C1512 C 0.0617 0.62631 0.6066 0.0
C1513 C 0.09702 0.607 0.60797 0.0
N1514 N 0.13322 0.54847 0.60813 0.0
N1515 N -0.0055 0.62231 0.59883 0.0
C1516 C 0.09882 0.56658 0.60896 0.0
C1517 C 0.02803 0.60481 0.60415 0.0
N1518 N 0.06498 0.50715 0.61441 0.0
N1519 N 0.06026 0.66515 0.60856 0.0
H1520 H 0.96908 0.60755 0.59716 0.0
H1521 H -0.00768 0.6509 0.5943 0.0
H1522 H 0.08439 0.68175 0.61078 0.0
H1523 H 0.03514 0.68065 0.61003 0.0
H1524 H 0.08914 0.49216 0.61924 0.0
H1525 H 0.04046 0.49065 0.61455 0.0
H1526 H 0.13639 0.51909 0.6064 0.0
H1527 H 0.15886 0.56311 0.60758 0.0
C1528 C 0.10502 0.64992 0.13199 0.0
C1529 C 0.12472 0.61565 0.12689 0.0
C1530 C 0.1819 0.65226 0.11817 0.0
C1531 C 0.16294 0.68609 0.12478 0.0
N1532 N 0.10889 0.71669 0.1417 0.0
N1533 N 0.1836 0.58315 0.1191 0.0
C1534 C 0.12533 0.68471 0.13299 0.0
C1535 C 0.16367 0.61651 0.12104 0.0
N1536 N 0.06649 0.6497 0.13454 0.0
N1537 N 0.21718 0.65435 0.10898 0.0
H1538 H 0.17131 0.55655 0.12155 0.0
H1539 H 0.21287 0.58183 0.11708 0.0
H1540 H 0.23222 0.6798 0.10772 0.0
H1541 H 0.23061 0.63134 0.10141 0.0
H1542 H 0.0501 0.6744 0.13571 0.0
H1543 H 0.0502 0.62506 0.13339 0.0
H1544 H 0.08325 0.7164 0.15017 0.0
H1545 H 0.1223 0.74305 0.14211 0.0
C1546 C 0.06302 0.35442 0.87059 0.0
C1547 C 0.09742 0.37115 0.86348 0.0
C1548 C 0.06353 0.4304 0.85426 0.0
C1549 C 0.02978 0.41455 0.86293 0.0
N1550 N -0.00125 0.36428 0.88318 0.0
N1551 N 0.13213 0.42712 0.85244 0.0
C1552 C 0.03003 0.3775 0.87241 0.0
C1553 C 0.09819 0.40974 0.85633 0.0
N1554 N 0.06127 0.31597 0.8744 0.0
N1555 N 0.06241 0.46508 0.84395 0.0
H1556 H 0.15814 0.41314 0.85419 0.0
H1557 H 0.13482 0.45622 0.84939 0.0
H1558 H 0.03801 0.48199 0.84326 0.0
H1559 H 0.08498 0.47607 0.83497 0.0
H1560 H 0.03602 0.30151 0.87718 0.0
H1561 H 0.08448 0.2977 0.87264 0.0
H1562 H -0.00131 0.33927 0.89245 0.0
H1563 H 0.97374 0.37994 0.88452 0.0
C1564 C 0.34766 0.28573 0.60999 0.0
C1565 C 0.30897 0.28359 0.61634 0.0
C1566 C 0.30835 0.35221 0.62434 0.0
C1567 C 0.34758 0.35359 0.61937 0.0
N1568 N 0.40638 0.32111 0.61164 0.0
N1569 N 0.25305 0.31319 0.6316 0.0
C1570 C 0.36774 0.32019 0.61331 0.0
C1571 C 0.28949 0.31639 0.62421 0.0
N1572 N 0.36525 0.2549 0.60064 0.0
N1573 N 0.28903 0.38533 0.62857 0.0
H1574 H 0.23768 0.28792 0.63061 0.0
H1575 H 0.23864 0.33485 0.63983 0.0
H1576 H 0.30222 0.41187 0.62923 0.0
H1577 H 0.2597 0.38705 0.63002 0.0
H1578 H 0.39182 0.25615 0.59326 0.0
H1579 H 0.35233 0.22847 0.59879 0.0
H1580 H 0.42326 0.29691 0.60966 0.0
H1581 H 0.42204 0.3458 0.61428 0.0
C1582 C 0.4245 0.59765 0.36198 0.0
C1583 C 0.42462 0.55803 0.36688 0.0
C1584 C 0.35578 0.55933 0.37217 0.0
C1585 C 0.35607 0.59931 0.36851 0.0
N1586 N 0.3904 0.65787 0.36321 0.0
N1587 N 0.39224 0.50151 0.37909 0.0
C1588 C 0.39037 0.61887 0.3643 0.0
C1589 C 0.39076 0.53894 0.37273 0.0
N1590 N 0.45699 0.6149 0.35487 0.0
N1591 N 0.32199 0.54091 0.37468 0.0
H1592 H 0.41723 0.48547 0.37896 0.0
H1593 H 0.36939 0.4869 0.38579 0.0
H1594 H 0.29596 0.5552 0.37493 0.0
H1595 H 0.31931 0.51137 0.37511 0.0
H1596 H 0.45778 0.64243 0.34844 0.0
H1597 H 0.48313 0.60094 0.35409 0.0
H1598 H 0.41491 0.67422 0.36261 0.0
H1599 H 0.36583 0.67434 0.36459 0.0
loop_
_geom_bond_atom_site_label_1
_geom_bond_atom_site_label_2
_geom_bond_distance
_geom_bond_site_symmetry_2
_ccdc_geom_bond_type
C0 O1 1.306 . S
C0 O3 1.160 . S
O1 C0 1.306 . S
O1 Cd2 2.228 . S
Cd2 O1 2.228 . S
Cd2 O6 2.273 . S
Cd2 O10 2.277 . S
O3 C0 1.160 . S
O3 Cd4 2.203 . S
Cd4 O3 2.203 . S
Cd4 O6 2.411 . S
Cd4 O7 2.333 . S
Cd4 O8 2.352 . S
Cd4 O12 2.277 . S
Cd4 O13 2.356 . S
C5 O10 1.209 . S
C5 O12 1.226 . S
O6 Cd2 2.273 . S
O6 Cd4 2.411 . S
O6 C9 1.320 1_545 S
O7 Cd4 2.333 . S
O7 C9 1.214 1_545 S
O8 Cd4 2.352 . S
O8 C11 1.258 . S
C9 O6 1.320 1_565 S
C9 O7 1.214 1_565 S
O10 Cd2 2.277 . S
O10 C5 1.209 . S
C11 O8 1.258 . S
C11 O13 1.282 . S
O12 Cd4 2.277 . S
O12 C5 1.226 . S
O13 Cd4 2.356 . S
O13 C11 1.282 . S
C14 O15 1.306 . S
C14 O17 1.160 . S
O15 C14 1.306 . S
O15 Cd16 2.228 . S
Cd16 O15 2.228 . S
Cd16 O20 2.273 . S
Cd16 O24 2.277 . S
O17 C14 1.160 . S
O17 Cd18 2.203 . S
Cd18 O17 2.203 . S
Cd18 O20 2.411 . S
Cd18 O21 2.333 . S
Cd18 O22 2.352 . S
Cd18 O26 2.277 . S
Cd18 O27 2.356 . S
C19 O24 1.209 . S
C19 O26 1.226 . S
O20 Cd16 2.273 . S
O20 Cd18 2.411 . S
O20 C23 1.320 . S
O21 Cd18 2.333 . S
O21 C23 1.214 . S
O22 Cd18 2.352 . S
O22 C25 1.258 . S
C23 O20 1.320 . S
C23 O21 1.214 . S
O24 Cd16 2.277 . S
O24 C19 1.209 . S
C25 O22 1.258 . S
C25 O27 1.282 . S
O26 Cd18 2.277 . S
O26 C19 1.226 . S
O27 Cd18 2.356 . S
O27 C25 1.282 . S
C28 O29 1.306 . S
C28 O31 1.160 . S
O29 C28 1.306 . S
O29 Cd30 2.228 . S
Cd30 O29 2.228 . S
Cd30 O34 2.273 . S
Cd30 O38 2.277 . S
O31 C28 1.160 . S
O31 Cd32 2.203 . S
Cd32 O31 2.203 . S
Cd32 O34 2.411 . S
Cd32 O35 2.333 . S
Cd32 O36 2.352 . S
Cd32 O40 2.277 . S
Cd32 O41 2.356 . S
C33 O38 1.209 . S
C33 O40 1.226 . S
O34 Cd30 2.273 . S
O34 Cd32 2.411 . S
O34 C37 1.320 1_565 S
O35 Cd32 2.333 . S
O35 C37 1.214 1_565 S
O36 Cd32 2.352 . S
O36 C39 1.258 . S
C37 O34 1.320 1_545 S
C37 O35 1.214 1_545 S
O38 Cd30 2.277 . S
O38 C33 1.209 . S
C39 O36 1.258 . S
C39 O41 1.282 . S
O40 Cd32 2.277 . S
O40 C33 1.226 . S
O41 Cd32 2.356 . S
O41 C39 1.282 . S
C42 O43 1.306 . S
C42 O45 1.160 . S
O43 C42 1.306 . S
O43 Cd44 2.228 . S
Cd44 O43 2.228 . S
Cd44 O48 2.273 . S
Cd44 O52 2.277 . S
O45 C42 1.160 . S
O45 Cd46 2.203 . S
Cd46 O45 2.203 . S
Cd46 O48 2.411 . S
Cd46 O49 2.333 . S
Cd46 O50 2.352 . S
Cd46 O54 2.277 . S
Cd46 O55 2.356 . S
C47 O52 1.209 . S
C47 O54 1.226 . S
O48 Cd44 2.273 . S
O48 Cd46 2.411 . S
O48 C51 1.320 . S
O49 Cd46 2.333 . S
O49 C51 1.214 . S
O50 Cd46 2.352 . S
O50 C53 1.258 . S
C51 O48 1.320 . S
C51 O49 1.214 . S
O52 Cd44 2.277 . S
O52 C47 1.209 . S
C53 O50 1.258 . S
C53 O55 1.282 . S
O54 Cd46 2.277 . S
O54 C47 1.226 . S
O55 Cd46 2.356 . S
O55 C53 1.282 . S
C56 O57 1.306 . S
C56 O59 1.160 . S
O57 C56 1.306 . S
O57 Cd58 2.228 . S
Cd58 O57 2.228 . S
Cd58 O62 2.273 . S
Cd58 O66 2.277 . S
O59 C56 1.160 . S
O59 Cd60 2.203 . S
Cd60 O59 2.203 . S
Cd60 O62 2.411 . S
Cd60 O63 2.333 . S
Cd60 O64 2.352 . S
Cd60 O68 2.277 . S
Cd60 O69 2.356 . S
C61 O66 1.209 . S
C61 O68 1.226 . S
O62 Cd58 2.273 . S
O62 Cd60 2.411 . S
O62 C65 1.320 1_565 S
O63 Cd60 2.333 . S
O63 C65 1.214 1_565 S
O64 Cd60 2.352 . S
O64 C67 1.258 . S
C65 O62 1.320 1_545 S
C65 O63 1.214 1_545 S
O66 Cd58 2.277 . S
O66 C61 1.209 . S
C67 O64 1.258 . S
C67 O69 1.282 . S
O68 Cd60 2.277 . S
O68 C61 1.226 . S
O69 Cd60 2.356 . S
O69 C67 1.282 . S
C70 O71 1.306 . S
C70 O73 1.160 . S
O71 C70 1.306 . S
O71 Cd72 2.228 . S
Cd72 O71 2.228 . S
Cd72 O76 2.273 . S
Cd72 O80 2.277 . S
O73 C70 1.160 . S
O73 Cd74 2.203 . S
Cd74 O73 2.203 . S
Cd74 O76 2.411 . S
Cd74 O77 2.333 . S
Cd74 O78 2.352 . S
Cd74 O82 2.277 . S
Cd74 O83 2.356 . S
C75 O80 1.209 . S
C75 O82 1.226 . S
O76 Cd72 2.273 . S
O76 Cd74 2.411 . S
O76 C79 1.320 . S
O77 Cd74 2.333 . S
O77 C79 1.214 . S
O78 Cd74 2.352 . S
O78 C81 1.258 . S
C79 O76 1.320 . S
C79 O77 1.214 . S
O80 Cd72 2.277 . S
O80 C75 1.209 . S
C81 O78 1.258 . S
C81 O83 1.282 . S
O82 Cd74 2.277 . S
O82 C75 1.226 . S
O83 Cd74 2.356 . S
O83 C81 1.282 . S
C84 O85 1.306 . S
C84 O87 1.160 . S
O85 C84 1.306 . S
O85 Cd86 2.228 . S
Cd86 O85 2.228 . S
Cd86 O90 2.273 . S
Cd86 O94 2.277 . S
O87 C84 1.160 . S
O87 Cd88 2.203 . S
Cd88 O87 2.203 . S
Cd88 O90 2.411 . S
Cd88 O91 2.333 . S
Cd88 O92 2.352 . S
Cd88 O96 2.277 . S
Cd88 O97 2.356 . S
C89 O94 1.209 . S
C89 O96 1.226 . S
O90 Cd86 2.273 . S
O90 Cd88 2.411 . S
O90 C93 1.320 1_545 S
O91 Cd88 2.333 . S
O91 C93 1.214 1_545 S
O92 Cd88 2.352 . S
O92 C95 1.258 . S
C93 O90 1.320 1_565 S
C93 O91 1.214 1_565 S
O94 Cd86 2.277 . S
O94 C89 1.209 . S
C95 O92 1.258 . S
C95 O97 1.282 . S
O96 Cd88 2.277 . S
O96 C89 1.226 . S
O97 Cd88 2.356 . S
O97 C95 1.282 . S
C98 O99 1.306 . S
C98 O101 1.160 . S
O99 C98 1.306 . S
O99 Cd100 2.228 . S
Cd100 O99 2.228 . S
Cd100 O104 2.273 . S
Cd100 O108 2.277 . S
O101 C98 1.160 . S
O101 Cd102 2.203 . S
Cd102 O101 2.203 . S
Cd102 O104 2.411 . S
Cd102 O105 2.333 . S
Cd102 O106 2.352 . S
Cd102 O110 2.277 . S
Cd102 O111 2.356 . S
C103 O108 1.209 . S
C103 O110 1.226 . S
O104 Cd100 2.273 . S
O104 Cd102 2.411 . S
O104 C107 1.320 . S
O105 Cd102 2.333 . S
O105 C107 1.214 . S
O106 Cd102 2.352 . S
O106 C109 1.258 . S
C107 O104 1.320 . S
C107 O105 1.214 . S
O108 Cd100 2.277 . S
O108 C103 1.209 . S
C109 O106 1.258 . S
C109 O111 1.282 . S
O110 Cd102 2.277 . S
O110 C103 1.226 . S
O111 Cd102 2.356 . S
O111 C109 1.282 . S
C112 O113 1.306 . S
C112 O115 1.160 . S
O113 C112 1.306 . S
O113 Cd114 2.228 . S
Cd114 O113 2.228 . S
Cd114 O118 2.273 . S
Cd114 O122 2.277 . S
O115 C112 1.160 . S
O115 Cd116 2.203 . S
Cd116 O115 2.203 . S
Cd116 O118 2.411 . S
Cd116 O119 2.333 . S
Cd116 O120 2.352 . S
Cd116 O124 2.277 . S
Cd116 O125 2.356 . S
C117 O122 1.209 . S
C117 O124 1.226 . S
O118 Cd114 2.273 . S
O118 Cd116 2.411 . S
O118 C121 1.320 1_565 S
O119 Cd116 2.333 . S
O119 C121 1.214 1_565 S
O120 Cd116 2.352 . S
O120 C123 1.258 . S
C121 O118 1.320 1_545 S
C121 O119 1.214 1_545 S
O122 Cd114 2.277 . S
O122 C117 1.209 . S
C123 O120 1.258 . S
C123 O125 1.282 . S
O124 Cd116 2.277 . S
O124 C117 1.226 . S
O125 Cd116 2.356 . S
O125 C123 1.282 . S
C126 O127 1.306 . S
C126 O129 1.160 . S
O127 C126 1.306 . S
O127 Cd128 2.228 . S
Cd128 O127 2.228 . S
Cd128 O132 2.273 . S
Cd128 O136 2.277 . S
O129 C126 1.160 . S
O129 Cd130 2.203 . S
Cd130 O129 2.203 . S
Cd130 O132 2.411 . S
Cd130 O133 2.333 . S
Cd130 O134 2.352 . S
Cd130 O138 2.277 . S
Cd130 O139 2.356 . S
C131 O136 1.209 . S
C131 O138 1.226 . S
O132 Cd128 2.273 . S
O132 Cd130 2.411 . S
O132 C135 1.320 . S
O133 Cd130 2.333 . S
O133 C135 1.214 . S
O134 Cd130 2.352 . S
O134 C137 1.258 . S
C135 O132 1.320 . S
C135 O133 1.214 . S
O136 Cd128 2.277 . S
O136 C131 1.209 . S
C137 O134 1.258 . S
C137 O139 1.282 . S
O138 Cd130 2.277 . S
O138 C131 1.226 . S
O139 Cd130 2.356 . S
O139 C137 1.282 . S
C140 O141 1.306 . S
C140 O143 1.160 . S
O141 C140 1.306 . S
O141 Cd142 2.228 . S
Cd142 O141 2.228 . S
Cd142 O146 2.273 . S
Cd142 O150 2.277 . S
O143 C140 1.160 . S
O143 Cd144 2.203 . S
Cd144 O143 2.203 . S
Cd144 O146 2.411 . S
Cd144 O147 2.333 . S
Cd144 O148 2.352 . S
Cd144 O152 2.277 . S
Cd144 O153 2.356 . S
C145 O150 1.209 . S
C145 O152 1.226 . S
O146 Cd142 2.273 . S
O146 Cd144 2.411 . S
O146 C149 1.320 1_545 S
O147 Cd144 2.333 . S
O147 C149 1.214 1_545 S
O148 Cd144 2.352 . S
O148 C151 1.258 . S
C149 O146 1.320 1_565 S
C149 O147 1.214 1_565 S
O150 Cd142 2.277 . S
O150 C145 1.209 . S
C151 O148 1.258 . S
C151 O153 1.282 . S
O152 Cd144 2.277 . S
O152 C145 1.226 . S
O153 Cd144 2.356 . S
O153 C151 1.282 . S
C154 O155 1.306 . S
C154 O157 1.160 . S
O155 C154 1.306 . S
O155 Cd156 2.228 . S
Cd156 O155 2.228 . S
Cd156 O160 2.273 . S
Cd156 O164 2.277 . S
O157 C154 1.160 . S
O157 Cd158 2.203 . S
Cd158 O157 2.203 . S
Cd158 O160 2.411 . S
Cd158 O161 2.333 . S
Cd158 O162 2.352 . S
Cd158 O166 2.277 . S
Cd158 O167 2.356 . S
C159 O164 1.209 . S
C159 O166 1.226 . S
O160 Cd156 2.273 . S
O160 Cd158 2.411 . S
O160 C163 1.320 . S
O161 Cd158 2.333 . S
O161 C163 1.214 . S
O162 Cd158 2.352 . S
O162 C165 1.258 . S
C163 O160 1.320 . S
C163 O161 1.214 . S
O164 Cd156 2.277 . S
O164 C159 1.209 . S
C165 O162 1.258 . S
C165 O167 1.282 . S
O166 Cd158 2.277 . S
O166 C159 1.226 . S
O167 Cd158 2.356 . S
O167 C165 1.282 . S
C168 O169 1.306 . S
C168 O171 1.160 . S
O169 C168 1.306 . S
O169 Cd170 2.228 . S
Cd170 O169 2.228 . S
Cd170 O174 2.273 . S
Cd170 O178 2.277 . S
O171 C168 1.160 . S
O171 Cd172 2.203 . S
Cd172 O171 2.203 . S
Cd172 O174 2.411 . S
Cd172 O175 2.333 . S
Cd172 O176 2.352 . S
Cd172 O180 2.277 . S
Cd172 O181 2.356 . S
C173 O178 1.209 . S
C173 O180 1.226 . S
O174 Cd170 2.273 . S
O174 Cd172 2.411 . S
O174 C177 1.320 1_545 S
O175 Cd172 2.333 . S
O175 C177 1.214 1_545 S
O176 Cd172 2.352 . S
O176 C179 1.258 . S
C177 O174 1.320 1_565 S
C177 O175 1.214 1_565 S
O178 Cd170 2.277 . S
O178 C173 1.209 . S
C179 O176 1.258 . S
C179 O181 1.282 . S
O180 Cd172 2.277 . S
O180 C173 1.226 . S
O181 Cd172 2.356 . S
O181 C179 1.282 . S
C182 O183 1.306 . S
C182 O185 1.160 . S
O183 C182 1.306 . S
O183 Cd184 2.228 . S
Cd184 O183 2.228 . S
Cd184 O188 2.273 . S
Cd184 O192 2.277 . S
O185 C182 1.160 . S
O185 Cd186 2.203 . S
Cd186 O185 2.203 . S
Cd186 O188 2.411 . S
Cd186 O189 2.333 . S
Cd186 O190 2.352 . S
Cd186 O194 2.277 . S
Cd186 O195 2.356 . S
C187 O192 1.209 . S
C187 O194 1.226 . S
O188 Cd184 2.273 . S
O188 Cd186 2.411 . S
O188 C191 1.320 . S
O189 Cd186 2.333 . S
O189 C191 1.214 . S
O190 Cd186 2.352 . S
O190 C193 1.258 . S
C191 O188 1.320 . S
C191 O189 1.214 . S
O192 Cd184 2.277 . S
O192 C187 1.209 . S
C193 O190 1.258 . S
C193 O195 1.282 . S
O194 Cd186 2.277 . S
O194 C187 1.226 . S
O195 Cd186 2.356 . S
O195 C193 1.282 . S
C196 O197 1.306 . S
C196 O199 1.160 . S
O197 C196 1.306 . S
O197 Cd198 2.228 . S
Cd198 O197 2.228 . S
Cd198 O202 2.273 . S
Cd198 O206 2.277 . S
O199 C196 1.160 . S
O199 Cd200 2.203 . S
Cd200 O199 2.203 . S
Cd200 O202 2.411 . S
Cd200 O203 2.333 . S
Cd200 O204 2.352 . S
Cd200 O208 2.277 . S
Cd200 O209 2.356 . S
C201 O206 1.209 . S
C201 O208 1.226 . S
O202 Cd198 2.273 . S
O202 Cd200 2.411 . S
O202 C205 1.320 1_565 S
O203 Cd200 2.333 . S
O203 C205 1.214 1_565 S
O204 Cd200 2.352 . S
O204 C207 1.258 . S
C205 O202 1.320 1_545 S
C205 O203 1.214 1_545 S
O206 Cd198 2.277 . S
O206 C201 1.209 . S
C207 O204 1.258 . S
C207 O209 1.282 . S
O208 Cd200 2.277 . S
O208 C201 1.226 . S
O209 Cd200 2.356 . S
O209 C207 1.282 . S
C210 O211 1.306 . S
C210 O213 1.160 . S
O211 C210 1.306 . S
O211 Cd212 2.228 . S
Cd212 O211 2.228 . S
Cd212 O216 2.273 . S
Cd212 O220 2.277 . S
O213 C210 1.160 . S
O213 Cd214 2.203 . S
Cd214 O213 2.203 . S
Cd214 O216 2.411 . S
Cd214 O217 2.333 . S
Cd214 O218 2.352 . S
Cd214 O222 2.277 . S
Cd214 O223 2.356 . S
C215 O220 1.209 . S
C215 O222 1.226 . S
O216 Cd212 2.273 . S
O216 Cd214 2.411 . S
O216 C219 1.320 . S
O217 Cd214 2.333 . S
O217 C219 1.214 . S
O218 Cd214 2.352 . S
O218 C221 1.258 . S
C219 O216 1.320 . S
C219 O217 1.214 . S
O220 Cd212 2.277 . S
O220 C215 1.209 . S
C221 O218 1.258 . S
C221 O223 1.282 . S
O222 Cd214 2.277 . S
O222 C215 1.226 . S
O223 Cd214 2.356 . S
O223 C221 1.282 . S
C224 O225 1.306 . S
C224 O227 1.160 . S
O225 C224 1.306 . S
O225 Cd226 2.228 . S
Cd226 O225 2.228 . S
Cd226 O230 2.273 . S
Cd226 O234 2.277 . S
O227 C224 1.160 . S
O227 Cd228 2.203 . S
Cd228 O227 2.203 . S
Cd228 O230 2.411 . S
Cd228 O231 2.333 . S
Cd228 O232 2.352 . S
Cd228 O236 2.277 . S
Cd228 O237 2.356 . S
C229 O234 1.209 . S
C229 O236 1.226 . S
O230 Cd226 2.273 . S
O230 Cd228 2.411 . S
O230 C233 1.320 . S
O231 Cd228 2.333 . S
O231 C233 1.214 . S
O232 Cd228 2.352 . S
O232 C235 1.258 . S
C233 O230 1.320 . S
C233 O231 1.214 . S
O234 Cd226 2.277 . S
O234 C229 1.209 . S
C235 O232 1.258 . S
C235 O237 1.282 . S
O236 Cd228 2.277 . S
O236 C229 1.226 . S
O237 Cd228 2.356 . S
O237 C235 1.282 . S
C238 O239 1.306 . S
C238 O241 1.160 . S
O239 C238 1.306 . S
O239 Cd240 2.228 . S
Cd240 O239 2.228 . S
Cd240 O244 2.273 . S
Cd240 O248 2.277 . S
O241 C238 1.160 . S
O241 Cd242 2.203 . S
Cd242 O241 2.203 . S
Cd242 O244 2.411 . S
Cd242 O245 2.333 . S
Cd242 O246 2.352 . S
Cd242 O250 2.277 . S
Cd242 O251 2.356 . S
C243 O248 1.209 . S
C243 O250 1.226 . S
O244 Cd240 2.273 . S
O244 Cd242 2.411 . S
O244 C247 1.320 . S
O245 Cd242 2.333 . S
O245 C247 1.214 . S
O246 Cd242 2.352 . S
O246 C249 1.258 . S
C247 O244 1.320 . S
C247 O245 1.214 . S
O248 Cd240 2.277 . S
O248 C243 1.209 . S
C249 O246 1.258 . S
C249 O251 1.282 . S
O250 Cd242 2.277 . S
O250 C243 1.226 . S
O251 Cd242 2.356 . S
O251 C249 1.282 . S
C252 O253 1.306 . S
C252 O255 1.160 . S
O253 C252 1.306 . S
O253 Cd254 2.228 . S
Cd254 O253 2.228 . S
Cd254 O258 2.273 . S
Cd254 O262 2.277 . S
O255 C252 1.160 . S
O255 Cd256 2.203 . S
Cd256 O255 2.203 . S
Cd256 O258 2.411 . S
Cd256 O259 2.333 . S
Cd256 O260 2.352 . S
Cd256 O264 2.277 . S
Cd256 O265 2.356 . S
C257 O262 1.209 . S
C257 O264 1.226 . S
O258 Cd254 2.273 . S
O258 Cd256 2.411 . S
O258 C261 1.320 . S
O259 Cd256 2.333 . S
O259 C261 1.214 . S
O260 Cd256 2.352 . S
O260 C263 1.258 . S
C261 O258 1.320 . S
C261 O259 1.214 . S
O262 Cd254 2.277 . S
O262 C257 1.209 . S
C263 O260 1.258 . S
C263 O265 1.282 . S
O264 Cd256 2.277 . S
O264 C257 1.226 . S
O265 Cd256 2.356 . S
O265 C263 1.282 . S
C266 O267 1.306 . S
C266 O269 1.160 . S
O267 C266 1.306 . S
O267 Cd268 2.228 . S
Cd268 O267 2.228 . S
Cd268 O272 2.273 . S
Cd268 O276 2.277 . S
O269 C266 1.160 . S
O269 Cd270 2.203 . S
Cd270 O269 2.203 . S
Cd270 O272 2.411 . S
Cd270 O273 2.333 . S
Cd270 O274 2.352 . S
Cd270 O278 2.277 . S
Cd270 O279 2.356 . S
C271 O276 1.209 . S
C271 O278 1.226 . S
O272 Cd268 2.273 . S
O272 Cd270 2.411 . S
O272 C275 1.320 . S
O273 Cd270 2.333 . S
O273 C275 1.214 . S
O274 Cd270 2.352 . S
O274 C277 1.258 . S
C275 O272 1.320 . S
C275 O273 1.214 . S
O276 Cd268 2.277 . S
O276 C271 1.209 . S
C277 O274 1.258 . S
C277 O279 1.282 . S
O278 Cd270 2.277 . S
O278 C271 1.226 . S
O279 Cd270 2.356 . S
O279 C277 1.282 . S
C280 O281 1.306 . S
C280 O283 1.160 . S
O281 C280 1.306 . S
O281 Cd282 2.228 . S
Cd282 O281 2.228 . S
Cd282 O286 2.273 . S
Cd282 O290 2.277 . S
O283 C280 1.160 . S
O283 Cd284 2.203 . S
Cd284 O283 2.203 . S
Cd284 O286 2.411 . S
Cd284 O287 2.333 . S
Cd284 O288 2.352 . S
Cd284 O292 2.277 . S
Cd284 O293 2.356 . S
C285 O290 1.209 . S
C285 O292 1.226 . S
O286 Cd282 2.273 . S
O286 Cd284 2.411 . S
O286 C289 1.320 . S
O287 Cd284 2.333 . S
O287 C289 1.214 . S
O288 Cd284 2.352 . S
O288 C291 1.258 . S
C289 O286 1.320 . S
C289 O287 1.214 . S
O290 Cd282 2.277 . S
O290 C285 1.209 . S
C291 O288 1.258 . S
C291 O293 1.282 . S
O292 Cd284 2.277 . S
O292 C285 1.226 . S
O293 Cd284 2.356 . S
O293 C291 1.282 . S
C294 O295 1.306 . S
C294 O297 1.160 . S
O295 C294 1.306 . S
O295 Cd296 2.228 . S
Cd296 O295 2.228 . S
Cd296 O300 2.273 . S
Cd296 O304 2.277 . S
O297 C294 1.160 . S
O297 Cd298 2.203 . S
Cd298 O297 2.203 . S
Cd298 O300 2.411 . S
Cd298 O301 2.333 . S
Cd298 O302 2.352 . S
Cd298 O306 2.277 . S
Cd298 O307 2.356 . S
C299 O304 1.209 . S
C299 O306 1.226 . S
O300 Cd296 2.273 . S
O300 Cd298 2.411 . S
O300 C303 1.320 . S
O301 Cd298 2.333 . S
O301 C303 1.214 . S
O302 Cd298 2.352 . S
O302 C305 1.258 . S
C303 O300 1.320 . S
C303 O301 1.214 . S
O304 Cd296 2.277 . S
O304 C299 1.209 . S
C305 O302 1.258 . S
C305 O307 1.282 . S
O306 Cd298 2.277 . S
O306 C299 1.226 . S
O307 Cd298 2.356 . S
O307 C305 1.282 . S
C308 O309 1.306 . S
C308 O311 1.160 . S
O309 C308 1.306 . S
O309 Cd310 2.228 . S
Cd310 O309 2.228 . S
Cd310 O314 2.273 . S
Cd310 O318 2.277 . S
O311 C308 1.160 . S
O311 Cd312 2.203 . S
Cd312 O311 2.203 . S
Cd312 O314 2.411 . S
Cd312 O315 2.333 . S
Cd312 O316 2.352 . S
Cd312 O320 2.277 . S
Cd312 O321 2.356 . S
C313 O318 1.209 . S
C313 O320 1.226 . S
O314 Cd310 2.273 . S
O314 Cd312 2.411 . S
O314 C317 1.320 . S
O315 Cd312 2.333 . S
O315 C317 1.214 . S
O316 Cd312 2.352 . S
O316 C319 1.258 . S
C317 O314 1.320 . S
C317 O315 1.214 . S
O318 Cd310 2.277 . S
O318 C313 1.209 . S
C319 O316 1.258 . S
C319 O321 1.282 . S
O320 Cd312 2.277 . S
O320 C313 1.226 . S
O321 Cd312 2.356 . S
O321 C319 1.282 . S
C322 O323 1.306 . S
C322 O325 1.160 . S
O323 C322 1.306 . S
O323 Cd324 2.228 . S
Cd324 O323 2.228 . S
Cd324 O328 2.273 . S
Cd324 O332 2.277 . S
O325 C322 1.160 . S
O325 Cd326 2.203 . S
Cd326 O325 2.203 . S
Cd326 O328 2.411 . S
Cd326 O329 2.333 . S
Cd326 O330 2.352 . S
Cd326 O334 2.277 . S
Cd326 O335 2.356 . S
C327 O332 1.209 . S
C327 O334 1.226 . S
O328 Cd324 2.273 . S
O328 Cd326 2.411 . S
O328 C331 1.320 . S
O329 Cd326 2.333 . S
O329 C331 1.214 . S
O330 Cd326 2.352 . S
O330 C333 1.258 . S
C331 O328 1.320 . S
C331 O329 1.214 . S
O332 Cd324 2.277 . S
O332 C327 1.209 . S
C333 O330 1.258 . S
C333 O335 1.282 . S
O334 Cd326 2.277 . S
O334 C327 1.226 . S
O335 Cd326 2.356 . S
O335 C333 1.282 . S
C336 O337 1.306 . S
C336 O339 1.160 . S
O337 C336 1.306 . S
O337 Cd338 2.228 . S
Cd338 O337 2.228 . S
Cd338 O342 2.273 . S
Cd338 O346 2.277 . S
O339 C336 1.160 . S
O339 Cd340 2.203 . S
Cd340 O339 2.203 . S
Cd340 O342 2.411 . S
Cd340 O343 2.333 . S
Cd340 O344 2.352 . S
Cd340 O348 2.277 . S
Cd340 O349 2.356 . S
C341 O346 1.209 . S
C341 O348 1.226 . S
O342 Cd338 2.273 . S
O342 Cd340 2.411 . S
O342 C345 1.320 . S
O343 Cd340 2.333 . S
O343 C345 1.214 . S
O344 Cd340 2.352 . S
O344 C347 1.258 . S
C345 O342 1.320 . S
C345 O343 1.214 . S
O346 Cd338 2.277 . S
O346 C341 1.209 . S
C347 O344 1.258 . S
C347 O349 1.282 . S
O348 Cd340 2.277 . S
O348 C341 1.226 . S
O349 Cd340 2.356 . S
O349 C347 1.282 . S
C350 O351 1.306 . S
C350 O353 1.160 . S
O351 C350 1.306 . S
O351 Cd352 2.228 . S
Cd352 O351 2.228 . S
Cd352 O356 2.273 . S
Cd352 O360 2.277 . S
O353 C350 1.160 . S
O353 Cd354 2.203 . S
Cd354 O353 2.203 . S
Cd354 O356 2.411 . S
Cd354 O357 2.333 . S
Cd354 O358 2.352 . S
Cd354 O362 2.277 . S
Cd354 O363 2.356 . S
C355 O360 1.209 . S
C355 O362 1.226 . S
O356 Cd352 2.273 . S
O356 Cd354 2.411 . S
O356 C359 1.320 . S
O357 Cd354 2.333 . S
O357 C359 1.214 . S
O358 Cd354 2.352 . S
O358 C361 1.258 . S
C359 O356 1.320 . S
C359 O357 1.214 . S
O360 Cd352 2.277 . S
O360 C355 1.209 . S
C361 O358 1.258 . S
C361 O363 1.282 . S
O362 Cd354 2.277 . S
O362 C355 1.226 . S
O363 Cd354 2.356 . S
O363 C361 1.282 . S
C364 O365 1.306 . S
C364 O367 1.160 . S
O365 C364 1.306 . S
O365 Cd366 2.228 . S
Cd366 O365 2.228 . S
Cd366 O370 2.273 . S
Cd366 O374 2.277 . S
O367 C364 1.160 . S
O367 Cd368 2.203 . S
Cd368 O367 2.203 . S
Cd368 O370 2.411 . S
Cd368 O371 2.333 . S
Cd368 O372 2.352 . S
Cd368 O376 2.277 . S
Cd368 O377 2.356 . S
C369 O374 1.209 . S
C369 O376 1.226 . S
O370 Cd366 2.273 . S
O370 Cd368 2.411 . S
O370 C373 1.320 . S
O371 Cd368 2.333 . S
O371 C373 1.214 . S
O372 Cd368 2.352 . S
O372 C375 1.258 . S
C373 O370 1.320 . S
C373 O371 1.214 . S
O374 Cd366 2.277 . S
O374 C369 1.209 . S
C375 O372 1.258 . S
C375 O377 1.282 . S
O376 Cd368 2.277 . S
O376 C369 1.226 . S
O377 Cd368 2.356 . S
O377 C375 1.282 . S
C378 O379 1.306 . S
C378 O381 1.160 . S
O379 C378 1.306 . S
O379 Cd380 2.228 . S
Cd380 O379 2.228 . S
Cd380 O384 2.273 . S
Cd380 O388 2.277 . S
O381 C378 1.160 . S
O381 Cd382 2.203 . S
Cd382 O381 2.203 . S
Cd382 O384 2.411 . S
Cd382 O385 2.333 . S
Cd382 O386 2.352 . S
Cd382 O390 2.277 . S
Cd382 O391 2.356 . S
C383 O388 1.209 . S
C383 O390 1.226 . S
O384 Cd380 2.273 . S
O384 Cd382 2.411 . S
O384 C387 1.320 . S
O385 Cd382 2.333 . S
O385 C387 1.214 . S
O386 Cd382 2.352 . S
O386 C389 1.258 . S
C387 O384 1.320 . S
C387 O385 1.214 . S
O388 Cd380 2.277 . S
O388 C383 1.209 . S
C389 O386 1.258 . S
C389 O391 1.282 . S
O390 Cd382 2.277 . S
O390 C383 1.226 . S
O391 Cd382 2.356 . S
O391 C389 1.282 . S
C392 O393 1.306 . S
C392 O395 1.160 . S
O393 C392 1.306 . S
O393 Cd394 2.228 . S
Cd394 O393 2.228 . S
Cd394 O398 2.273 . S
Cd394 O402 2.277 . S
O395 C392 1.160 . S
O395 Cd396 2.203 . S
Cd396 O395 2.203 . S
Cd396 O398 2.411 . S
Cd396 O399 2.333 . S
Cd396 O400 2.352 . S
Cd396 O404 2.277 . S
Cd396 O405 2.356 . S
C397 O402 1.209 . S
C397 O404 1.226 . S
O398 Cd394 2.273 . S
O398 Cd396 2.411 . S
O398 C401 1.320 . S
O399 Cd396 2.333 . S
O399 C401 1.214 . S
O400 Cd396 2.352 . S
O400 C403 1.258 . S
C401 O398 1.320 . S
C401 O399 1.214 . S
O402 Cd394 2.277 . S
O402 C397 1.209 . S
C403 O400 1.258 . S
C403 O405 1.282 . S
O404 Cd396 2.277 . S
O404 C397 1.226 . S
O405 Cd396 2.356 . S
O405 C403 1.282 . S
C406 O407 1.306 . S
C406 O409 1.160 . S
O407 C406 1.306 . S
O407 Cd408 2.228 . S
Cd408 O407 2.228 . S
Cd408 O412 2.273 . S
Cd408 O416 2.277 . S
O409 C406 1.160 . S
O409 Cd410 2.203 . S
Cd410 O409 2.203 . S
Cd410 O412 2.411 . S
Cd410 O413 2.333 . S
Cd410 O414 2.352 . S
Cd410 O418 2.277 . S
Cd410 O419 2.356 . S
C411 O416 1.209 . S
C411 O418 1.226 . S
O412 Cd408 2.273 . S
O412 Cd410 2.411 . S
O412 C415 1.320 . S
O413 Cd410 2.333 . S
O413 C415 1.214 . S
O414 Cd410 2.352 . S
O414 C417 1.258 . S
C415 O412 1.320 . S
C415 O413 1.214 . S
O416 Cd408 2.277 . S
O416 C411 1.209 . S
C417 O414 1.258 . S
C417 O419 1.282 . S
O418 Cd410 2.277 . S
O418 C411 1.226 . S
O419 Cd410 2.356 . S
O419 C417 1.282 . S
C420 O421 1.306 . S
C420 O423 1.160 . S
O421 C420 1.306 . S
O421 Cd422 2.228 . S
Cd422 O421 2.228 . S
Cd422 O426 2.273 . S
Cd422 O430 2.277 . S
O423 C420 1.160 . S
O423 Cd424 2.203 . S
Cd424 O423 2.203 . S
Cd424 O426 2.411 . S
Cd424 O427 2.333 . S
Cd424 O428 2.352 . S
Cd424 O432 2.277 . S
Cd424 O433 2.356 . S
C425 O430 1.209 . S
C425 O432 1.226 . S
O426 Cd422 2.273 . S
O426 Cd424 2.411 . S
O426 C429 1.320 . S
O427 Cd424 2.333 . S
O427 C429 1.214 . S
O428 Cd424 2.352 . S
O428 C431 1.258 . S
C429 O426 1.320 . S
C429 O427 1.214 . S
O430 Cd422 2.277 . S
O430 C425 1.209 . S
C431 O428 1.258 . S
C431 O433 1.282 . S
O432 Cd424 2.277 . S
O432 C425 1.226 . S
O433 Cd424 2.356 . S
O433 C431 1.282 . S
C434 O435 1.306 . S
C434 O437 1.160 . S
O435 C434 1.306 . S
O435 Cd436 2.228 . S
Cd436 O435 2.228 . S
Cd436 O440 2.273 . S
Cd436 O444 2.277 . S
O437 C434 1.160 . S
O437 Cd438 2.203 . S
Cd438 O437 2.203 . S
Cd438 O440 2.411 . S
Cd438 O441 2.333 . S
Cd438 O442 2.352 . S
Cd438 O446 2.277 . S
Cd438 O447 2.356 . S
C439 O444 1.209 . S
C439 O446 1.226 . S
O440 Cd436 2.273 . S
O440 Cd438 2.411 . S
O440 C443 1.320 . S
O441 Cd438 2.333 . S
O441 C443 1.214 . S
O442 Cd438 2.352 . S
O442 C445 1.258 . S
C443 O440 1.320 . S
C443 O441 1.214 . S
O444 Cd436 2.277 . S
O444 C439 1.209 . S
C445 O442 1.258 . S
C445 O447 1.282 . S
O446 Cd438 2.277 . S
O446 C439 1.226 . S
O447 Cd438 2.356 . S
O447 C445 1.282 . S
C448 C449 1.363 . S
C448 C454 1.379 . S
C448 N456 1.356 . S
C449 C448 1.363 . S
C449 C455 1.363 1_565 S
C450 C451 1.363 . S
C450 C455 1.379 . S
C450 N457 1.356 . S
C451 C450 1.363 . S
C451 C454 1.363 1_545 S
N452 C454 1.356 . S
N452 H464 0.984 . S
N452 H465 0.985 . S
N453 C455 1.356 . S
N453 H458 0.984 . S
N453 H459 0.985 . S
C454 C448 1.379 . S
C454 C451 1.363 1_565 S
C454 N452 1.356 . S
C455 C449 1.363 1_545 S
C455 C450 1.379 . S
C455 N453 1.356 . S
N456 C448 1.356 . S
N456 H462 0.984 . S
N456 H463 0.984 . S
N457 C450 1.356 . S
N457 H460 0.984 . S
N457 H461 0.985 . S
H458 N453 0.984 . S
H459 N453 0.985 . S
H460 N457 0.984 . S
H461 N457 0.985 . S
H462 N456 0.984 . S
H463 N456 0.984 . S
H464 N452 0.984 . S
H465 N452 0.985 . S
C466 C467 1.363 . S
C466 C472 1.379 . S
C466 N474 1.356 . S
C467 C466 1.363 . S
C467 C473 1.363 . S
C468 C469 1.363 . S
C468 C473 1.379 . S
C468 N475 1.356 . S
C469 C468 1.363 . S
C469 C472 1.363 . S
N470 C472 1.356 . S
N470 H482 0.984 . S
N470 H483 0.985 . S
N471 C473 1.356 . S
N471 H476 0.984 . S
N471 H477 0.985 . S
C472 C466 1.379 . S
C472 C469 1.363 . S
C472 N470 1.356 . S
C473 C467 1.363 . S
C473 C468 1.379 . S
C473 N471 1.356 . S
N474 C466 1.356 . S
N474 H480 0.984 . S
N474 H481 0.984 . S
N475 C468 1.356 . S
N475 H478 0.984 . S
N475 H479 0.985 . S
H476 N471 0.984 . S
H477 N471 0.985 . S
H478 N475 0.984 . S
H479 N475 0.985 . S
H480 N474 0.984 . S
H481 N474 0.984 . S
H482 N470 0.984 . S
H483 N470 0.985 . S
C484 C485 1.363 . S
C484 C490 1.379 . S
C484 N492 1.356 . S
C485 C484 1.363 . S
C485 C491 1.363 1_545 S
C486 C487 1.363 . S
C486 C491 1.379 . S
C486 N493 1.356 . S
C487 C486 1.363 . S
C487 C490 1.363 1_565 S
N488 C490 1.356 . S
N488 H500 0.984 . S
N488 H501 0.985 . S
N489 C491 1.356 . S
N489 H494 0.984 . S
N489 H495 0.985 . S
C490 C484 1.379 . S
C490 C487 1.363 1_545 S
C490 N488 1.356 . S
C491 C485 1.363 1_565 S
C491 C486 1.379 . S
C491 N489 1.356 . S
N492 C484 1.356 . S
N492 H498 0.984 . S
N492 H499 0.984 . S
N493 C486 1.356 . S
N493 H496 0.984 . S
N493 H497 0.985 . S
H494 N489 0.984 . S
H495 N489 0.985 . S
H496 N493 0.984 . S
H497 N493 0.985 . S
H498 N492 0.984 . S
H499 N492 0.984 . S
H500 N488 0.984 . S
H501 N488 0.985 . S
C502 C503 1.363 . S
C502 C508 1.379 1_556 S
C502 N510 1.356 . S
C503 C502 1.363 . S
C503 C509 1.363 . S
C504 C505 1.363 . S
C504 C509 1.379 1_554 S
C504 N511 1.356 . S
C505 C504 1.363 . S
C505 C508 1.363 . S
N506 C508 1.356 . S
N506 H518 0.984 . S
N506 H519 0.985 . S
N507 C509 1.356 . S
N507 H512 0.984 . S
N507 H513 0.985 . S
C508 C502 1.379 1_554 S
C508 C505 1.363 . S
C508 N506 1.356 . S
C509 C503 1.363 . S
C509 C504 1.379 1_556 S
C509 N507 1.356 . S
N510 C502 1.356 . S
N510 H516 0.984 . S
N510 H517 0.984 . S
N511 C504 1.356 . S
N511 H514 0.984 . S
N511 H515 0.985 . S
H512 N507 0.984 . S
H513 N507 0.985 . S
H514 N511 0.984 . S
H515 N511 0.985 . S
H516 N510 0.984 . S
H517 N510 0.984 . S
H518 N506 0.984 . S
H519 N506 0.985 . S
C520 C521 1.363 . S
C520 C526 1.379 . S
C520 N528 1.356 . S
C521 C520 1.363 . S
C521 C527 1.363 1_565 S
C522 C523 1.363 . S
C522 C527 1.379 . S
C522 N529 1.356 . S
C523 C522 1.363 . S
C523 C526 1.363 1_545 S
N524 C526 1.356 . S
N524 H536 0.984 . S
N524 H537 0.985 . S
N525 C527 1.356 . S
N525 H530 0.984 . S
N525 H531 0.985 . S
C526 C520 1.379 . S
C526 C523 1.363 1_565 S
C526 N524 1.356 . S
C527 C521 1.363 1_545 S
C527 C522 1.379 . S
C527 N525 1.356 . S
N528 C520 1.356 . S
N528 H534 0.984 . S
N528 H535 0.984 . S
N529 C522 1.356 . S
N529 H532 0.984 . S
N529 H533 0.985 . S
H530 N525 0.984 . S
H531 N525 0.985 . S
H532 N529 0.984 . S
H533 N529 0.985 . S
H534 N528 0.984 . S
H535 N528 0.984 . S
H536 N524 0.984 . S
H537 N524 0.985 . S
C538 C539 1.363 . S
C538 C544 1.379 . S
C538 N546 1.356 . S
C539 C538 1.363 . S
C539 C545 1.363 . S
C540 C541 1.363 . S
C540 C545 1.379 . S
C540 N547 1.356 . S
C541 C540 1.363 . S
C541 C544 1.363 . S
N542 C544 1.356 . S
N542 H554 0.984 . S
N542 H555 0.985 . S
N543 C545 1.356 . S
N543 H548 0.984 . S
N543 H549 0.985 . S
C544 C538 1.379 . S
C544 C541 1.363 . S
C544 N542 1.356 . S
C545 C539 1.363 . S
C545 C540 1.379 . S
C545 N543 1.356 . S
N546 C538 1.356 . S
N546 H552 0.984 . S
N546 H553 0.984 . S
N547 C540 1.356 . S
N547 H550 0.984 . S
N547 H551 0.985 . S
H548 N543 0.984 . S
H549 N543 0.985 . S
H550 N547 0.984 . S
H551 N547 0.985 . S
H552 N546 0.984 . S
H553 N546 0.984 . S
H554 N542 0.984 . S
H555 N542 0.985 . S
C556 C557 1.363 . S
C556 C562 1.379 . S
C556 N564 1.356 . S
C557 C556 1.363 . S
C557 C563 1.363 1_545 S
C558 C559 1.363 . S
C558 C563 1.379 . S
C558 N565 1.356 . S
C559 C558 1.363 . S
C559 C562 1.363 1_565 S
N560 C562 1.356 . S
N560 H572 0.984 . S
N560 H573 0.985 . S
N561 C563 1.356 . S
N561 H566 0.984 . S
N561 H567 0.985 . S
C562 C556 1.379 . S
C562 C559 1.363 1_545 S
C562 N560 1.356 . S
C563 C557 1.363 1_565 S
C563 C558 1.379 . S
C563 N561 1.356 . S
N564 C556 1.356 . S
N564 H570 0.984 . S
N564 H571 0.984 . S
N565 C558 1.356 . S
N565 H568 0.984 . S
N565 H569 0.985 . S
H566 N561 0.984 . S
H567 N561 0.985 . S
H568 N565 0.984 . S
H569 N565 0.985 . S
H570 N564 0.984 . S
H571 N564 0.984 . S
H572 N560 0.984 . S
H573 N560 0.985 . S
C574 C575 1.363 . S
C574 C580 1.379 1_556 S
C574 N582 1.356 . S
C575 C574 1.363 . S
C575 C581 1.363 . S
C576 C577 1.363 . S
C576 C581 1.379 1_554 S
C576 N583 1.356 . S
C577 C576 1.363 . S
C577 C580 1.363 . S
N578 C580 1.356 . S
N578 H590 0.984 . S
N578 H591 0.985 . S
N579 C581 1.356 . S
N579 H584 0.984 . S
N579 H585 0.985 . S
C580 C574 1.379 1_554 S
C580 C577 1.363 . S
C580 N578 1.356 . S
C581 C575 1.363 . S
C581 C576 1.379 1_556 S
C581 N579 1.356 . S
N582 C574 1.356 . S
N582 H588 0.984 . S
N582 H589 0.984 . S
N583 C576 1.356 . S
N583 H586 0.984 . S
N583 H587 0.985 . S
H584 N579 0.984 . S
H585 N579 0.985 . S
H586 N583 0.984 . S
H587 N583 0.985 . S
H588 N582 0.984 . S
H589 N582 0.984 . S
H590 N578 0.984 . S
H591 N578 0.985 . S
C592 C593 1.363 . S
C592 C598 1.379 . S
C592 N600 1.356 . S
C593 C592 1.363 . S
C593 C599 1.363 . S
C594 C595 1.363 . S
C594 C599 1.379 . S
C594 N601 1.356 . S
C595 C594 1.363 . S
C595 C598 1.363 . S
N596 C598 1.356 . S
N596 H608 0.984 . S
N596 H609 0.985 . S
N597 C599 1.356 . S
N597 H602 0.984 . S
N597 H603 0.985 . S
C598 C592 1.379 . S
C598 C595 1.363 . S
C598 N596 1.356 . S
C599 C593 1.363 . S
C599 C594 1.379 . S
C599 N597 1.356 . S
N600 C592 1.356 . S
N600 H606 0.984 . S
N600 H607 0.984 . S
N601 C594 1.356 . S
N601 H604 0.984 . S
N601 H605 0.985 . S
H602 N597 0.984 . S
H603 N597 0.985 . S
H604 N601 0.984 . S
H605 N601 0.985 . S
H606 N600 0.984 . S
H607 N600 0.984 . S
H608 N596 0.984 . S
H609 N596 0.985 . S
C610 C611 1.363 . S
C610 C616 1.379 1_554 S
C610 N618 1.356 . S
C611 C610 1.363 . S
C611 C617 1.363 . S
C612 C613 1.363 . S
C612 C617 1.379 1_556 S
C612 N619 1.356 . S
C613 C612 1.363 . S
C613 C616 1.363 . S
N614 C616 1.356 . S
N614 H626 0.984 . S
N614 H627 0.985 . S
N615 C617 1.356 . S
N615 H620 0.984 . S
N615 H621 0.985 . S
C616 C610 1.379 1_556 S
C616 C613 1.363 . S
C616 N614 1.356 . S
C617 C611 1.363 . S
C617 C612 1.379 1_554 S
C617 N615 1.356 . S
N618 C610 1.356 . S
N618 H624 0.984 . S
N618 H625 0.984 . S
N619 C612 1.356 . S
N619 H622 0.984 . S
N619 H623 0.985 . S
H620 N615 0.984 . S
H621 N615 0.985 . S
H622 N619 0.984 . S
H623 N619 0.985 . S
H624 N618 0.984 . S
H625 N618 0.984 . S
H626 N614 0.984 . S
H627 N614 0.985 . S
C628 C629 1.363 . S
C628 C634 1.379 . S
C628 N636 1.356 . S
C629 C628 1.363 . S
C629 C635 1.363 . S
C630 C631 1.363 . S
C630 C635 1.379 . S
C630 N637 1.356 . S
C631 C630 1.363 . S
C631 C634 1.363 . S
N632 C634 1.356 . S
N632 H644 0.984 . S
N632 H645 0.985 . S
N633 C635 1.356 . S
N633 H638 0.984 . S
N633 H639 0.985 . S
C634 C628 1.379 . S
C634 C631 1.363 . S
C634 N632 1.356 . S
C635 C629 1.363 . S
C635 C630 1.379 . S
C635 N633 1.356 . S
N636 C628 1.356 . S
N636 H642 0.984 . S
N636 H643 0.984 . S
N637 C630 1.356 . S
N637 H640 0.984 . S
N637 H641 0.985 . S
H638 N633 0.984 . S
H639 N633 0.985 . S
H640 N637 0.984 . S
H641 N637 0.985 . S
H642 N636 0.984 . S
H643 N636 0.984 . S
H644 N632 0.984 . S
H645 N632 0.985 . S
C646 C647 1.363 . S
C646 C652 1.379 . S
C646 N654 1.356 . S
C647 C646 1.363 . S
C647 C653 1.363 . S
C648 C649 1.363 . S
C648 C653 1.379 . S
C648 N655 1.356 . S
C649 C648 1.363 . S
C649 C652 1.363 . S
N650 C652 1.356 . S
N650 H662 0.984 . S
N650 H663 0.985 . S
N651 C653 1.356 . S
N651 H656 0.984 . S
N651 H657 0.985 . S
C652 C646 1.379 . S
C652 C649 1.363 . S
C652 N650 1.356 . S
C653 C647 1.363 . S
C653 C648 1.379 . S
C653 N651 1.356 . S
N654 C646 1.356 . S
N654 H660 0.984 . S
N654 H661 0.984 . S
N655 C648 1.356 . S
N655 H658 0.984 . S
N655 H659 0.985 . S
H656 N651 0.984 . S
H657 N651 0.985 . S
H658 N655 0.984 . S
H659 N655 0.985 . S
H660 N654 0.984 . S
H661 N654 0.984 . S
H662 N650 0.984 . S
H663 N650 0.985 . S
C664 C665 1.363 . S
C664 C670 1.379 . S
C664 N672 1.356 . S
C665 C664 1.363 . S
C665 C671 1.363 . S
C666 C667 1.363 . S
C666 C671 1.379 . S
C666 N673 1.356 . S
C667 C666 1.363 . S
C667 C670 1.363 . S
N668 C670 1.356 . S
N668 H680 0.984 . S
N668 H681 0.985 . S
N669 C671 1.356 . S
N669 H674 0.984 . S
N669 H675 0.985 . S
C670 C664 1.379 . S
C670 C667 1.363 . S
C670 N668 1.356 . S
C671 C665 1.363 . S
C671 C666 1.379 . S
C671 N669 1.356 . S
N672 C664 1.356 . S
N672 H678 0.984 . S
N672 H679 0.984 . S
N673 C666 1.356 . S
N673 H676 0.984 . S
N673 H677 0.985 . S
H674 N669 0.984 . S
H675 N669 0.985 . S
H676 N673 0.984 . S
H677 N673 0.985 . S
H678 N672 0.984 . S
H679 N672 0.984 . S
H680 N668 0.984 . S
H681 N668 0.985 . S
C682 C683 1.363 . S
C682 C688 1.379 1_554 S
C682 N690 1.356 . S
C683 C682 1.363 . S
C683 C689 1.363 . S
C684 C685 1.363 . S
C684 C689 1.379 1_556 S
C684 N691 1.356 . S
C685 C684 1.363 . S
C685 C688 1.363 . S
N686 C688 1.356 . S
N686 H698 0.984 . S
N686 H699 0.985 . S
N687 C689 1.356 . S
N687 H692 0.984 . S
N687 H693 0.985 . S
C688 C682 1.379 1_556 S
C688 C685 1.363 . S
C688 N686 1.356 . S
C689 C683 1.363 . S
C689 C684 1.379 1_554 S
C689 N687 1.356 . S
N690 C682 1.356 . S
N690 H696 0.984 . S
N690 H697 0.984 . S
N691 C684 1.356 . S
N691 H694 0.984 . S
N691 H695 0.985 . S
H692 N687 0.984 . S
H693 N687 0.985 . S
H694 N691 0.984 . S
H695 N691 0.985 . S
H696 N690 0.984 . S
H697 N690 0.984 . S
H698 N686 0.984 . S
H699 N686 0.985 . S
C700 C701 1.363 . S
C700 C706 1.379 . S
C700 N708 1.356 . S
C701 C700 1.363 . S
C701 C707 1.363 . S
C702 C703 1.363 . S
C702 C707 1.379 . S
C702 N709 1.356 . S
C703 C702 1.363 . S
C703 C706 1.363 . S
N704 C706 1.356 . S
N704 H716 0.984 . S
N704 H717 0.985 . S
N705 C707 1.356 . S
N705 H710 0.984 . S
N705 H711 0.985 . S
C706 C700 1.379 . S
C706 C703 1.363 . S
C706 N704 1.356 . S
C707 C701 1.363 . S
C707 C702 1.379 . S
C707 N705 1.356 . S
N708 C700 1.356 . S
N708 H714 0.984 . S
N708 H715 0.984 . S
N709 C702 1.356 . S
N709 H712 0.984 . S
N709 H713 0.985 . S
H710 N705 0.984 . S
H711 N705 0.985 . S
H712 N709 0.984 . S
H713 N709 0.985 . S
H714 N708 0.984 . S
H715 N708 0.984 . S
H716 N704 0.984 . S
H717 N704 0.985 . S
C718 C719 1.363 . S
C718 C724 1.379 . S
C718 N726 1.356 . S
C719 C718 1.363 . S
C719 C725 1.363 . S
C720 C721 1.363 . S
C720 C725 1.379 . S
C720 N727 1.356 . S
C721 C720 1.363 . S
C721 C724 1.363 . S
N722 C724 1.356 . S
N722 H734 0.984 . S
N722 H735 0.985 . S
N723 C725 1.356 . S
N723 H728 0.984 . S
N723 H729 0.985 . S
C724 C718 1.379 . S
C724 C721 1.363 . S
C724 N722 1.356 . S
C725 C719 1.363 . S
C725 C720 1.379 . S
C725 N723 1.356 . S
N726 C718 1.356 . S
N726 H732 0.984 . S
N726 H733 0.984 . S
N727 C720 1.356 . S
N727 H730 0.984 . S
N727 H731 0.985 . S
H728 N723 0.984 . S
H729 N723 0.985 . S
H730 N727 0.984 . S
H731 N727 0.985 . S
H732 N726 0.984 . S
H733 N726 0.984 . S
H734 N722 0.984 . S
H735 N722 0.985 . S
C736 C737 1.363 . S
C736 C742 1.379 . S
C736 N744 1.356 . S
C737 C736 1.363 . S
C737 C743 1.363 . S
C738 C739 1.363 . S
C738 C743 1.379 . S
C738 N745 1.356 . S
C739 C738 1.363 . S
C739 C742 1.363 . S
N740 C742 1.356 . S
N740 H752 0.984 . S
N740 H753 0.985 . S
N741 C743 1.356 1_545 S
N741 H746 0.984 . S
N741 H747 0.985 . S
C742 C736 1.379 . S
C742 C739 1.363 . S
C742 N740 1.356 . S
C743 C737 1.363 . S
C743 C738 1.379 . S
C743 N741 1.356 1_565 S
N744 C736 1.356 . S
N744 H750 0.984 . S
N744 H751 0.984 . S
N745 C738 1.356 . S
N745 H748 0.984 . S
N745 H749 0.985 . S
H746 N741 0.984 . S
H747 N741 0.985 . S
H748 N745 0.984 . S
H749 N745 0.985 . S
H750 N744 0.984 . S
H751 N744 0.984 . S
H752 N740 0.984 . S
H753 N740 0.985 . S
C754 C755 1.363 . S
C754 C760 1.379 . S
C754 N762 1.356 . S
C755 C754 1.363 . S
C755 C761 1.363 . S
C756 C757 1.363 . S
C756 C761 1.379 . S
C756 N763 1.356 1_545 S
C757 C756 1.363 . S
C757 C760 1.363 . S
N758 C760 1.356 . S
N758 H770 0.984 . S
N758 H771 0.985 . S
N759 C761 1.356 . S
N759 H764 0.984 . S
N759 H765 0.985 . S
C760 C754 1.379 . S
C760 C757 1.363 . S
C760 N758 1.356 . S
C761 C755 1.363 . S
C761 C756 1.379 . S
C761 N759 1.356 . S
N762 C754 1.356 . S
N762 H768 0.984 . S
N762 H769 0.984 . S
N763 C756 1.356 1_565 S
N763 H766 0.984 . S
N763 H767 0.985 . S
H764 N759 0.984 . S
H765 N759 0.985 . S
H766 N763 0.984 . S
H767 N763 0.985 . S
H768 N762 0.984 . S
H769 N762 0.984 . S
H770 N758 0.984 . S
H771 N758 0.985 . S
C772 C773 1.363 . S
C772 C778 1.379 . S
C772 N780 1.356 . S
C773 C772 1.363 . S
C773 C779 1.363 . S
C774 C775 1.363 . S
C774 C779 1.379 . S
C774 N781 1.356 . S
C775 C774 1.363 . S
C775 C778 1.363 . S
N776 C778 1.356 . S
N776 H788 0.984 . S
N776 H789 0.985 . S
N777 C779 1.356 1_565 S
N777 H782 0.984 . S
N777 H783 0.985 . S
C778 C772 1.379 . S
C778 C775 1.363 . S
C778 N776 1.356 . S
C779 C773 1.363 . S
C779 C774 1.379 . S
C779 N777 1.356 1_545 S
N780 C772 1.356 . S
N780 H786 0.984 . S
N780 H787 0.984 . S
N781 C774 1.356 . S
N781 H784 0.984 . S
N781 H785 0.985 . S
H782 N777 0.984 . S
H783 N777 0.985 . S
H784 N781 0.984 . S
H785 N781 0.985 . S
H786 N780 0.984 . S
H787 N780 0.984 . S
H788 N776 0.984 . S
H789 N776 0.985 . S
C790 C791 1.363 . S
C790 C796 1.379 . S
C790 N798 1.356 . S
C791 C790 1.363 . S
C791 C797 1.363 . S
C792 C793 1.363 . S
C792 C797 1.379 . S
C792 N799 1.356 . S
C793 C792 1.363 . S
C793 C796 1.363 . S
N794 C796 1.356 . S
N794 H806 0.984 . S
N794 H807 0.985 . S
N795 C797 1.356 1_545 S
N795 H800 0.984 . S
N795 H801 0.985 . S
C796 C790 1.379 . S
C796 C793 1.363 . S
C796 N794 1.356 . S
C797 C791 1.363 . S
C797 C792 1.379 . S
C797 N795 1.356 1_565 S
N798 C790 1.356 . S
N798 H804 0.984 . S
N798 H805 0.984 . S
N799 C792 1.356 . S
N799 H802 0.984 . S
N799 H803 0.985 . S
H800 N795 0.984 . S
H801 N795 0.985 . S
H802 N799 0.984 . S
H803 N799 0.985 . S
H804 N798 0.984 . S
H805 N798 0.984 . S
H806 N794 0.984 . S
H807 N794 0.985 . S
C808 C809 1.363 . S
C808 C814 1.379 . S
C808 N816 1.356 . S
C809 C808 1.363 . S
C809 C815 1.363 . S
C810 C811 1.363 . S
C810 C815 1.379 . S
C810 N817 1.356 . S
C811 C810 1.363 . S
C811 C814 1.363 . S
N812 C814 1.356 . S
N812 H824 0.984 1_545 S
N812 H825 0.985 1_545 S
N813 C815 1.356 . S
N813 H818 0.984 . S
N813 H819 0.985 . S
C814 C808 1.379 . S
C814 C811 1.363 . S
C814 N812 1.356 . S
C815 C809 1.363 . S
C815 C810 1.379 . S
C815 N813 1.356 . S
N816 C808 1.356 . S
N816 H822 0.984 . S
N816 H823 0.984 . S
N817 C810 1.356 . S
N817 H820 0.984 . S
N817 H821 0.985 . S
H818 N813 0.984 . S
H819 N813 0.985 . S
H820 N817 0.984 . S
H821 N817 0.985 . S
H822 N816 0.984 . S
H823 N816 0.984 . S
H824 N812 0.984 1_565 S
H825 N812 0.985 1_565 S
C826 C827 1.363 . S
C826 C832 1.379 . S
C826 N834 1.356 1_565 S
C827 C826 1.363 . S
C827 C833 1.363 . S
C828 C829 1.363 . S
C828 C833 1.379 . S
C828 N835 1.356 . S
C829 C828 1.363 . S
C829 C832 1.363 . S
N830 C832 1.356 . S
N830 H842 0.984 . S
N830 H843 0.985 . S
N831 C833 1.356 . S
N831 H836 0.984 . S
N831 H837 0.985 . S
C832 C826 1.379 . S
C832 C829 1.363 . S
C832 N830 1.356 . S
C833 C827 1.363 . S
C833 C828 1.379 . S
C833 N831 1.356 . S
N834 C826 1.356 1_545 S
N834 H840 0.984 . S
N834 H841 0.984 . S
N835 C828 1.356 . S
N835 H838 0.984 . S
N835 H839 0.985 . S
H836 N831 0.984 . S
H837 N831 0.985 . S
H838 N835 0.984 . S
H839 N835 0.985 . S
H840 N834 0.984 . S
H841 N834 0.984 . S
H842 N830 0.984 . S
H843 N830 0.985 . S
C844 C845 1.363 . S
C844 C850 1.379 . S
C844 N852 1.356 . S
C845 C844 1.363 . S
C845 C851 1.363 . S
C846 C847 1.363 . S
C846 C851 1.379 . S
C846 N853 1.356 . S
C847 C846 1.363 . S
C847 C850 1.363 . S
N848 C850 1.356 1_545 S
N848 H860 0.984 . S
N848 H861 0.985 . S
N849 C851 1.356 . S
N849 H854 0.984 . S
N849 H855 0.985 . S
C850 C844 1.379 . S
C850 C847 1.363 . S
C850 N848 1.356 1_565 S
C851 C845 1.363 . S
C851 C846 1.379 . S
C851 N849 1.356 . S
N852 C844 1.356 . S
N852 H858 0.984 . S
N852 H859 0.984 . S
N853 C846 1.356 . S
N853 H856 0.984 . S
N853 H857 0.985 . S
H854 N849 0.984 . S
H855 N849 0.985 . S
H856 N853 0.984 . S
H857 N853 0.985 . S
H858 N852 0.984 . S
H859 N852 0.984 . S
H860 N848 0.984 . S
H861 N848 0.985 . S
C862 C863 1.363 . S
C862 C868 1.379 . S
C862 N870 1.356 . S
C863 C862 1.363 . S
C863 C869 1.363 . S
C864 C865 1.363 . S
C864 C869 1.379 . S
C864 N871 1.356 1_545 S
C865 C864 1.363 . S
C865 C868 1.363 . S
N866 C868 1.356 . S
N866 H878 0.984 . S
N866 H879 0.985 . S
N867 C869 1.356 . S
N867 H872 0.984 . S
N867 H873 0.985 . S
C868 C862 1.379 . S
C868 C865 1.363 . S
C868 N866 1.356 . S
C869 C863 1.363 . S
C869 C864 1.379 . S
C869 N867 1.356 . S
N870 C862 1.356 . S
N870 H876 0.984 . S
N870 H877 0.984 . S
N871 C864 1.356 1_565 S
N871 H874 0.984 . S
N871 H875 0.985 . S
H872 N867 0.984 . S
H873 N867 0.985 . S
H874 N871 0.984 . S
H875 N871 0.985 . S
H876 N870 0.984 . S
H877 N870 0.984 . S
H878 N866 0.984 . S
H879 N866 0.985 . S
C880 C881 1.363 . S
C880 C886 1.379 . S
C880 N888 1.356 . S
C881 C880 1.363 . S
C881 C887 1.363 . S
C882 C883 1.363 . S
C882 C887 1.379 . S
C882 N889 1.356 . S
C883 C882 1.363 . S
C883 C886 1.363 . S
N884 C886 1.356 . S
N884 H896 0.984 . S
N884 H897 0.985 . S
N885 C887 1.356 . S
N885 H890 0.984 . S
N885 H891 0.985 . S
C886 C880 1.379 . S
C886 C883 1.363 . S
C886 N884 1.356 . S
C887 C881 1.363 . S
C887 C882 1.379 . S
C887 N885 1.356 . S
N888 C880 1.356 . S
N888 H894 0.984 . S
N888 H895 0.984 . S
N889 C882 1.356 . S
N889 H892 0.984 . S
N889 H893 0.985 . S
H890 N885 0.984 . S
H891 N885 0.985 . S
H892 N889 0.984 . S
H893 N889 0.985 . S
H894 N888 0.984 . S
H895 N888 0.984 . S
H896 N884 0.984 . S
H897 N884 0.985 . S
C898 C899 1.363 . S
C898 C904 1.379 . S
C898 N906 1.356 . S
C899 C898 1.363 . S
C899 C905 1.363 . S
C900 C901 1.363 . S
C900 C905 1.379 . S
C900 N907 1.356 . S
C901 C900 1.363 . S
C901 C904 1.363 . S
N902 C904 1.356 . S
N902 H914 0.984 . S
N902 H915 0.985 . S
N903 C905 1.356 . S
N903 H908 0.984 . S
N903 H909 0.985 . S
C904 C898 1.379 . S
C904 C901 1.363 . S
C904 N902 1.356 . S
C905 C899 1.363 . S
C905 C900 1.379 . S
C905 N903 1.356 . S
N906 C898 1.356 . S
N906 H912 0.984 . S
N906 H913 0.984 . S
N907 C900 1.356 . S
N907 H910 0.984 . S
N907 H911 0.985 . S
H908 N903 0.984 . S
H909 N903 0.985 . S
H910 N907 0.984 . S
H911 N907 0.985 . S
H912 N906 0.984 . S
H913 N906 0.984 . S
H914 N902 0.984 . S
H915 N902 0.985 . S
C916 C917 1.363 . S
C916 C922 1.379 . S
C916 N924 1.356 . S
C917 C916 1.363 . S
C917 C923 1.363 . S
C918 C919 1.363 . S
C918 C923 1.379 . S
C918 N925 1.356 . S
C919 C918 1.363 . S
C919 C922 1.363 . S
N920 C922 1.356 . S
N920 H932 0.984 . S
N920 H933 0.985 . S
N921 C923 1.356 . S
N921 H926 0.984 . S
N921 H927 0.985 . S
C922 C916 1.379 . S
C922 C919 1.363 . S
C922 N920 1.356 . S
C923 C917 1.363 . S
C923 C918 1.379 . S
C923 N921 1.356 . S
N924 C916 1.356 . S
N924 H930 0.984 . S
N924 H931 0.984 . S
N925 C918 1.356 . S
N925 H928 0.984 . S
N925 H929 0.985 . S
H926 N921 0.984 . S
H927 N921 0.985 . S
H928 N925 0.984 . S
H929 N925 0.985 . S
H930 N924 0.984 . S
H931 N924 0.984 . S
H932 N920 0.984 . S
H933 N920 0.985 . S
C934 C935 1.363 . S
C934 C940 1.379 . S
C934 N942 1.356 . S
C935 C934 1.363 . S
C935 C941 1.363 . S
C936 C937 1.363 . S
C936 C941 1.379 . S
C936 N943 1.356 . S
C937 C936 1.363 . S
C937 C940 1.363 . S
N938 C940 1.356 . S
N938 H950 0.984 . S
N938 H951 0.985 . S
N939 C941 1.356 . S
N939 H944 0.984 . S
N939 H945 0.985 . S
C940 C934 1.379 . S
C940 C937 1.363 . S
C940 N938 1.356 . S
C941 C935 1.363 . S
C941 C936 1.379 . S
C941 N939 1.356 . S
N942 C934 1.356 . S
N942 H948 0.984 . S
N942 H949 0.984 . S
N943 C936 1.356 . S
N943 H946 0.984 . S
N943 H947 0.985 . S
H944 N939 0.984 . S
H945 N939 0.985 . S
H946 N943 0.984 . S
H947 N943 0.985 . S
H948 N942 0.984 . S
H949 N942 0.984 . S
H950 N938 0.984 . S
H951 N938 0.985 . S
C952 C953 1.363 . S
C952 C958 1.379 . S
C952 N960 1.356 . S
C953 C952 1.363 . S
C953 C959 1.363 . S
C954 C955 1.363 . S
C954 C959 1.379 . S
C954 N961 1.356 . S
C955 C954 1.363 . S
C955 C958 1.363 . S
N956 C958 1.356 . S
N956 H968 0.984 . S
N956 H969 0.985 . S
N957 C959 1.356 . S
N957 H962 0.984 . S
N957 H963 0.985 . S
C958 C952 1.379 . S
C958 C955 1.363 . S
C958 N956 1.356 . S
C959 C953 1.363 . S
C959 C954 1.379 . S
C959 N957 1.356 . S
N960 C952 1.356 . S
N960 H966 0.984 . S
N960 H967 0.984 . S
N961 C954 1.356 . S
N961 H964 0.984 . S
N961 H965 0.985 . S
H962 N957 0.984 . S
H963 N957 0.985 . S
H964 N961 0.984 . S
H965 N961 0.985 . S
H966 N960 0.984 . S
H967 N960 0.984 . S
H968 N956 0.984 . S
H969 N956 0.985 . S
C970 C971 1.363 . S
C970 C976 1.379 . S
C970 N978 1.356 . S
C971 C970 1.363 . S
C971 C977 1.363 . S
C972 C973 1.363 . S
C972 C977 1.379 . S
C972 N979 1.356 . S
C973 C972 1.363 . S
C973 C976 1.363 . S
N974 C976 1.356 . S
N974 H986 0.984 . S
N974 H987 0.985 . S
N975 C977 1.356 . S
N975 H980 0.984 . S
N975 H981 0.985 . S
C976 C970 1.379 . S
C976 C973 1.363 . S
C976 N974 1.356 . S
C977 C971 1.363 . S
C977 C972 1.379 . S
C977 N975 1.356 . S
N978 C970 1.356 . S
N978 H984 0.984 . S
N978 H985 0.984 . S
N979 C972 1.356 . S
N979 H982 0.984 . S
N979 H983 0.985 . S
H980 N975 0.984 . S
H981 N975 0.985 . S
H982 N979 0.984 . S
H983 N979 0.985 . S
H984 N978 0.984 . S
H985 N978 0.984 . S
H986 N974 0.984 . S
H987 N974 0.985 . S
C988 C989 1.363 . S
C988 C994 1.379 . S
C988 N996 1.356 . S
C989 C988 1.363 . S
C989 C995 1.363 . S
C990 C991 1.363 . S
C990 C995 1.379 . S
C990 N997 1.356 . S
C991 C990 1.363 . S
C991 C994 1.363 . S
N992 C994 1.356 . S
N992 H1004 0.984 . S
N992 H1005 0.985 . S
N993 C995 1.356 . S
N993 H998 0.984 . S
N993 H999 0.985 . S
C994 C988 1.379 . S
C994 C991 1.363 . S
C994 N992 1.356 . S
C995 C989 1.363 . S
C995 C990 1.379 . S
C995 N993 1.356 . S
N996 C988 1.356 . S
N996 H1002 0.984 . S
N996 H1003 0.984 . S
N997 C990 1.356 . S
N997 H1000 0.984 . S
N997 H1001 0.985 . S
H998 N993 0.984 . S
H999 N993 0.985 . S
H1000 N997 0.984 . S
H1001 N997 0.985 . S
H1002 N996 0.984 . S
H1003 N996 0.984 . S
H1004 N992 0.984 . S
H1005 N992 0.985 . S
C1006 C1007 1.363 . S
C1006 C1012 1.379 . S
C1006 N1014 1.356 . S
C1007 C1006 1.363 . S
C1007 C1013 1.363 . S
C1008 C1009 1.363 . S
C1008 C1013 1.379 . S
C1008 N1015 1.356 . S
C1009 C1008 1.363 . S
C1009 C1012 1.363 . S
N1010 C1012 1.356 . S
N1010 H1022 0.984 . S
N1010 H1023 0.985 . S
N1011 C1013 1.356 . S
N1011 H1016 0.984 . S
N1011 H1017 0.985 . S
C1012 C1006 1.379 . S
C1012 C1009 1.363 . S
C1012 N1010 1.356 . S
C1013 C1007 1.363 . S
C1013 C1008 1.379 . S
C1013 N1011 1.356 . S
N1014 C1006 1.356 . S
N1014 H1020 0.984 . S
N1014 H1021 0.984 . S
N1015 C1008 1.356 . S
N1015 H1018 0.984 . S
N1015 H1019 0.985 . S
H1016 N1011 0.984 . S
H1017 N1011 0.985 . S
H1018 N1015 0.984 . S
H1019 N1015 0.985 . S
H1020 N1014 0.984 . S
H1021 N1014 0.984 . S
H1022 N1010 0.984 . S
H1023 N1010 0.985 . S
C1024 C1025 1.363 . S
C1024 C1030 1.379 . S
C1024 N1032 1.356 . S
C1025 C1024 1.363 . S
C1025 C1031 1.363 . S
C1026 C1027 1.363 . S
C1026 C1031 1.379 . S
C1026 N1033 1.356 . S
C1027 C1026 1.363 . S
C1027 C1030 1.363 . S
N1028 C1030 1.356 . S
N1028 H1040 0.984 . S
N1028 H1041 0.985 . S
N1029 C1031 1.356 . S
N1029 H1034 0.984 . S
N1029 H1035 0.985 . S
C1030 C1024 1.379 . S
C1030 C1027 1.363 . S
C1030 N1028 1.356 . S
C1031 C1025 1.363 . S
C1031 C1026 1.379 . S
C1031 N1029 1.356 . S
N1032 C1024 1.356 . S
N1032 H1038 0.984 . S
N1032 H1039 0.984 . S
N1033 C1026 1.356 . S
N1033 H1036 0.984 . S
N1033 H1037 0.985 . S
H1034 N1029 0.984 . S
H1035 N1029 0.985 . S
H1036 N1033 0.984 . S
H1037 N1033 0.985 . S
H1038 N1032 0.984 . S
H1039 N1032 0.984 . S
H1040 N1028 0.984 . S
H1041 N1028 0.985 . S
C1042 C1043 1.363 . S
C1042 C1048 1.379 . S
C1042 N1050 1.356 . S
C1043 C1042 1.363 . S
C1043 C1049 1.363 . S
C1044 C1045 1.363 . S
C1044 C1049 1.379 . S
C1044 N1051 1.356 . S
C1045 C1044 1.363 . S
C1045 C1048 1.363 . S
N1046 C1048 1.356 . S
N1046 H1058 0.984 . S
N1046 H1059 0.985 1_455 S
N1047 C1049 1.356 . S
N1047 H1052 0.984 . S
N1047 H1053 0.985 . S
C1048 C1042 1.379 . S
C1048 C1045 1.363 . S
C1048 N1046 1.356 . S
C1049 C1043 1.363 . S
C1049 C1044 1.379 . S
C1049 N1047 1.356 . S
N1050 C1042 1.356 . S
N1050 H1056 0.984 . S
N1050 H1057 0.984 . S
N1051 C1044 1.356 . S
N1051 H1054 0.984 1_455 S
N1051 H1055 0.985 . S
H1052 N1047 0.984 . S
H1053 N1047 0.985 . S
H1054 N1051 0.984 1_655 S
H1055 N1051 0.985 . S
H1056 N1050 0.984 . S
H1057 N1050 0.984 . S
H1058 N1046 0.984 . S
H1059 N1046 0.985 1_655 S
C1060 C1061 1.363 . S
C1060 C1066 1.379 . S
C1060 N1068 1.356 . S
C1061 C1060 1.363 . S
C1061 C1067 1.363 . S
C1062 C1063 1.363 . S
C1062 C1067 1.379 . S
C1062 N1069 1.356 . S
C1063 C1062 1.363 . S
C1063 C1066 1.363 . S
N1064 C1066 1.356 . S
N1064 H1076 0.984 . S
N1064 H1077 0.985 . S
N1065 C1067 1.356 . S
N1065 H1070 0.984 . S
N1065 H1071 0.985 . S
C1066 C1060 1.379 . S
C1066 C1063 1.363 . S
C1066 N1064 1.356 . S
C1067 C1061 1.363 . S
C1067 C1062 1.379 . S
C1067 N1065 1.356 . S
N1068 C1060 1.356 . S
N1068 H1074 0.984 . S
N1068 H1075 0.984 . S
N1069 C1062 1.356 . S
N1069 H1072 0.984 . S
N1069 H1073 0.985 . S
H1070 N1065 0.984 . S
H1071 N1065 0.985 . S
H1072 N1069 0.984 . S
H1073 N1069 0.985 . S
H1074 N1068 0.984 . S
H1075 N1068 0.984 . S
H1076 N1064 0.984 . S
H1077 N1064 0.985 . S
C1078 C1079 1.363 . S
C1078 C1084 1.379 . S
C1078 N1086 1.356 . S
C1079 C1078 1.363 . S
C1079 C1085 1.363 . S
C1080 C1081 1.363 . S
C1080 C1085 1.379 . S
C1080 N1087 1.356 . S
C1081 C1080 1.363 . S
C1081 C1084 1.363 . S
N1082 C1084 1.356 . S
N1082 H1094 0.984 . S
N1082 H1095 0.985 . S
N1083 C1085 1.356 . S
N1083 H1088 0.984 . S
N1083 H1089 0.985 . S
C1084 C1078 1.379 . S
C1084 C1081 1.363 . S
C1084 N1082 1.356 . S
C1085 C1079 1.363 . S
C1085 C1080 1.379 . S
C1085 N1083 1.356 . S
N1086 C1078 1.356 . S
N1086 H1092 0.976 1_565 S
N1086 H1093 0.984 . S
N1087 C1080 1.356 . S
N1087 H1090 0.984 . S
N1087 H1091 0.985 . S
H1088 N1083 0.984 . S
H1089 N1083 0.985 . S
H1090 N1087 0.984 . S
H1091 N1087 0.985 . S
H1092 N1086 0.976 1_545 S
H1093 N1086 0.984 . S
H1094 N1082 0.984 . S
H1095 N1082 0.985 . S
C1096 C1097 1.363 . S
C1096 C1102 1.379 . S
C1096 N1104 1.356 . S
C1097 C1096 1.363 . S
C1097 C1103 1.363 . S
C1098 C1099 1.363 . S
C1098 C1103 1.379 . S
C1098 N1105 1.356 . S
C1099 C1098 1.363 . S
C1099 C1102 1.363 . S
N1100 C1102 1.356 . S
N1100 H1112 0.984 . S
N1100 H1113 0.985 . S
N1101 C1103 1.356 . S
N1101 H1106 0.984 . S
N1101 H1107 0.985 . S
C1102 C1096 1.379 . S
C1102 C1099 1.363 . S
C1102 N1100 1.356 . S
C1103 C1097 1.363 . S
C1103 C1098 1.379 . S
C1103 N1101 1.356 . S
N1104 C1096 1.356 . S
N1104 H1110 0.984 . S
N1104 H1111 0.984 . S
N1105 C1098 1.356 . S
N1105 H1108 0.984 . S
N1105 H1109 0.985 . S
H1106 N1101 0.984 . S
H1107 N1101 0.985 . S
H1108 N1105 0.984 . S
H1109 N1105 0.985 . S
H1110 N1104 0.984 . S
H1111 N1104 0.984 . S
H1112 N1100 0.984 . S
H1113 N1100 0.985 . S
C1114 C1115 1.363 . S
C1114 C1120 1.379 . S
C1114 N1122 1.356 . S
C1115 C1114 1.363 . S
C1115 C1121 1.363 . S
C1116 C1117 1.363 . S
C1116 C1121 1.379 . S
C1116 N1123 1.356 . S
C1117 C1116 1.363 . S
C1117 C1120 1.363 . S
N1118 C1120 1.356 . S
N1118 H1130 0.984 . S
N1118 H1131 0.985 . S
N1119 C1121 1.356 . S
N1119 H1124 0.984 . S
N1119 H1125 0.985 . S
C1120 C1114 1.379 . S
C1120 C1117 1.363 . S
C1120 N1118 1.356 . S
C1121 C1115 1.363 . S
C1121 C1116 1.379 . S
C1121 N1119 1.356 . S
N1122 C1114 1.356 . S
N1122 H1128 0.984 . S
N1122 H1129 0.984 . S
N1123 C1116 1.356 . S
N1123 H1126 0.984 . S
N1123 H1127 0.979 1_545 S
H1124 N1119 0.984 . S
H1125 N1119 0.985 . S
H1126 N1123 0.984 . S
H1127 N1123 0.979 1_565 S
H1128 N1122 0.984 . S
H1129 N1122 0.984 . S
H1130 N1118 0.984 . S
H1131 N1118 0.985 . S
C1132 C1133 1.363 . S
C1132 C1138 1.379 . S
C1132 N1140 1.356 . S
C1133 C1132 1.363 . S
C1133 C1139 1.363 . S
C1134 C1135 1.363 . S
C1134 C1139 1.379 . S
C1134 N1141 1.356 . S
C1135 C1134 1.363 . S
C1135 C1138 1.363 . S
N1136 C1138 1.356 . S
N1136 H1148 0.984 . S
N1136 H1149 0.985 . S
N1137 C1139 1.356 . S
N1137 H1142 0.984 . S
N1137 H1143 0.985 . S
C1138 C1132 1.379 . S
C1138 C1135 1.363 . S
C1138 N1136 1.356 . S
C1139 C1133 1.363 . S
C1139 C1134 1.379 . S
C1139 N1137 1.356 . S
N1140 C1132 1.356 . S
N1140 H1146 0.984 . S
N1140 H1147 0.984 . S
N1141 C1134 1.356 . S
N1141 H1144 0.984 . S
N1141 H1145 0.985 . S
H1142 N1137 0.984 . S
H1143 N1137 0.985 . S
H1144 N1141 0.984 . S
H1145 N1141 0.985 . S
H1146 N1140 0.984 . S
H1147 N1140 0.984 . S
H1148 N1136 0.984 . S
H1149 N1136 0.985 . S
C1150 C1151 1.363 . S
C1150 C1156 1.379 . S
C1150 N1158 1.356 . S
C1151 C1150 1.363 . S
C1151 C1157 1.363 . S
C1152 C1153 1.363 . S
C1152 C1157 1.379 . S
C1152 N1159 1.356 . S
C1153 C1152 1.363 . S
C1153 C1156 1.363 . S
N1154 C1156 1.356 . S
N1154 H1166 0.984 . S
N1154 H1167 0.985 1_455 S
N1155 C1157 1.356 . S
N1155 H1160 0.984 . S
N1155 H1161 0.985 . S
C1156 C1150 1.379 . S
C1156 C1153 1.363 . S
C1156 N1154 1.356 . S
C1157 C1151 1.363 . S
C1157 C1152 1.379 . S
C1157 N1155 1.356 . S
N1158 C1150 1.356 . S
N1158 H1164 0.984 . S
N1158 H1165 0.984 . S
N1159 C1152 1.356 . S
N1159 H1162 0.984 1_455 S
N1159 H1163 0.985 . S
H1160 N1155 0.984 . S
H1161 N1155 0.985 . S
H1162 N1159 0.984 1_655 S
H1163 N1159 0.985 . S
H1164 N1158 0.984 . S
H1165 N1158 0.984 . S
H1166 N1154 0.984 . S
H1167 N1154 0.985 1_655 S
C1168 C1169 1.363 . S
C1168 C1174 1.379 . S
C1168 N1176 1.356 . S
C1169 C1168 1.363 . S
C1169 C1175 1.363 . S
C1170 C1171 1.363 . S
C1170 C1175 1.379 . S
C1170 N1177 1.356 . S
C1171 C1170 1.363 . S
C1171 C1174 1.363 . S
N1172 C1174 1.356 . S
N1172 H1184 0.984 . S
N1172 H1185 0.985 . S
N1173 C1175 1.356 . S
N1173 H1178 0.984 . S
N1173 H1179 0.985 . S
C1174 C1168 1.379 . S
C1174 C1171 1.363 . S
C1174 N1172 1.356 . S
C1175 C1169 1.363 . S
C1175 C1170 1.379 . S
C1175 N1173 1.356 . S
N1176 C1168 1.356 . S
N1176 H1182 0.984 . S
N1176 H1183 0.984 . S
N1177 C1170 1.356 . S
N1177 H1180 0.984 . S
N1177 H1181 0.985 . S
H1178 N1173 0.984 . S
H1179 N1173 0.985 . S
H1180 N1177 0.984 . S
H1181 N1177 0.985 . S
H1182 N1176 0.984 . S
H1183 N1176 0.984 . S
H1184 N1172 0.984 . S
H1185 N1172 0.985 . S
C1186 C1187 1.363 . S
C1186 C1192 1.379 . S
C1186 N1194 1.356 1_655 S
C1187 C1186 1.363 . S
C1187 C1193 1.363 . S
C1188 C1189 1.363 . S
C1188 C1193 1.379 . S
C1188 N1195 1.356 . S
C1189 C1188 1.363 . S
C1189 C1192 1.363 . S
N1190 C1192 1.356 . S
N1190 H1202 0.984 . S
N1190 H1203 0.985 . S
N1191 C1193 1.356 . S
N1191 H1196 0.984 . S
N1191 H1197 0.985 1_565 S
C1192 C1186 1.379 . S
C1192 C1189 1.363 . S
C1192 N1190 1.356 . S
C1193 C1187 1.363 . S
C1193 C1188 1.379 . S
C1193 N1191 1.356 . S
N1194 C1186 1.356 1_455 S
N1194 H1200 0.984 . S
N1194 H1201 0.984 . S
N1195 C1188 1.356 . S
N1195 H1198 0.984 . S
N1195 H1199 0.985 . S
H1196 N1191 0.984 . S
H1197 N1191 0.985 1_545 S
H1198 N1195 0.984 . S
H1199 N1195 0.985 . S
H1200 N1194 0.984 . S
H1201 N1194 0.984 . S
H1202 N1190 0.984 . S
H1203 N1190 0.985 . S
C1204 C1205 1.363 . S
C1204 C1210 1.379 . S
C1204 N1212 1.356 . S
C1205 C1204 1.363 . S
C1205 C1211 1.363 . S
C1206 C1207 1.363 . S
C1206 C1211 1.379 . S
C1206 N1213 1.356 . S
C1207 C1206 1.363 . S
C1207 C1210 1.363 . S
N1208 C1210 1.356 . S
N1208 H1220 0.984 . S
N1208 H1221 0.985 . S
N1209 C1211 1.356 . S
N1209 H1214 0.984 . S
N1209 H1215 0.985 . S
C1210 C1204 1.379 . S
C1210 C1207 1.363 . S
C1210 N1208 1.356 . S
C1211 C1205 1.363 . S
C1211 C1206 1.379 . S
C1211 N1209 1.356 . S
N1212 C1204 1.356 . S
N1212 H1218 0.984 . S
N1212 H1219 0.984 . S
N1213 C1206 1.356 . S
N1213 H1216 0.984 . S
N1213 H1217 0.985 . S
H1214 N1209 0.984 . S
H1215 N1209 0.985 . S
H1216 N1213 0.984 . S
H1217 N1213 0.985 . S
H1218 N1212 0.984 . S
H1219 N1212 0.984 . S
H1220 N1208 0.984 . S
H1221 N1208 0.985 . S
C1222 C1223 1.363 . S
C1222 C1228 1.379 . S
C1222 N1230 1.356 . S
C1223 C1222 1.363 . S
C1223 C1229 1.363 . S
C1224 C1225 1.363 . S
C1224 C1229 1.379 . S
C1224 N1231 1.356 . S
C1225 C1224 1.363 . S
C1225 C1228 1.363 . S
N1226 C1228 1.356 . S
N1226 H1238 0.984 . S
N1226 H1239 0.985 . S
N1227 C1229 1.356 . S
N1227 H1232 0.984 . S
N1227 H1233 0.985 . S
C1228 C1222 1.379 . S
C1228 C1225 1.363 . S
C1228 N1226 1.356 . S
C1229 C1223 1.363 . S
C1229 C1224 1.379 . S
C1229 N1227 1.356 . S
N1230 C1222 1.356 . S
N1230 H1236 0.984 . S
N1230 H1237 0.984 . S
N1231 C1224 1.356 . S
N1231 H1234 0.984 . S
N1231 H1235 0.985 . S
H1232 N1227 0.984 . S
H1233 N1227 0.985 . S
H1234 N1231 0.984 . S
H1235 N1231 0.985 . S
H1236 N1230 0.984 . S
H1237 N1230 0.984 . S
H1238 N1226 0.984 . S
H1239 N1226 0.985 . S
C1240 C1241 1.363 . S
C1240 C1246 1.379 . S
C1240 N1248 1.356 . S
C1241 C1240 1.363 . S
C1241 C1247 1.363 . S
C1242 C1243 1.363 . S
C1242 C1247 1.379 . S
C1242 N1249 1.356 . S
C1243 C1242 1.363 . S
C1243 C1246 1.363 . S
N1244 C1246 1.356 . S
N1244 H1256 0.984 . S
N1244 H1257 0.985 . S
N1245 C1247 1.356 . S
N1245 H1250 0.984 . S
N1245 H1251 0.985 . S
C1246 C1240 1.379 . S
C1246 C1243 1.363 . S
C1246 N1244 1.356 . S
C1247 C1241 1.363 . S
C1247 C1242 1.379 . S
C1247 N1245 1.356 . S
N1248 C1240 1.356 . S
N1248 H1254 0.984 . S
N1248 H1255 0.984 . S
N1249 C1242 1.356 . S
N1249 H1252 0.984 . S
N1249 H1253 0.985 . S
H1250 N1245 0.984 . S
H1251 N1245 0.985 . S
H1252 N1249 0.984 . S
H1253 N1249 0.985 . S
H1254 N1248 0.984 . S
H1255 N1248 0.984 . S
H1256 N1244 0.984 . S
H1257 N1244 0.985 . S
C1258 C1259 1.363 . S
C1258 C1264 1.379 . S
C1258 N1266 1.356 . S
C1259 C1258 1.363 . S
C1259 C1265 1.363 . S
C1260 C1261 1.363 . S
C1260 C1265 1.379 . S
C1260 N1267 1.356 . S
C1261 C1260 1.363 . S
C1261 C1264 1.363 . S
N1262 C1264 1.356 . S
N1262 H1274 0.984 . S
N1262 H1275 0.985 . S
N1263 C1265 1.356 . S
N1263 H1268 0.984 . S
N1263 H1269 0.985 . S
C1264 C1258 1.379 . S
C1264 C1261 1.363 . S
C1264 N1262 1.356 . S
C1265 C1259 1.363 . S
C1265 C1260 1.379 . S
C1265 N1263 1.356 . S
N1266 C1258 1.356 . S
N1266 H1272 0.984 . S
N1266 H1273 0.984 . S
N1267 C1260 1.356 . S
N1267 H1270 0.984 . S
N1267 H1271 0.985 . S
H1268 N1263 0.984 . S
H1269 N1263 0.985 . S
H1270 N1267 0.984 . S
H1271 N1267 0.985 . S
H1272 N1266 0.984 . S
H1273 N1266 0.984 . S
H1274 N1262 0.984 . S
H1275 N1262 0.985 . S
C1276 C1277 1.363 . S
C1276 C1282 1.379 . S
C1276 N1284 1.356 . S
C1277 C1276 1.363 . S
C1277 C1283 1.363 . S
C1278 C1279 1.363 . S
C1278 C1283 1.379 . S
C1278 N1285 1.356 . S
C1279 C1278 1.363 . S
C1279 C1282 1.363 . S
N1280 C1282 1.356 . S
N1280 H1292 0.984 . S
N1280 H1293 0.985 . S
N1281 C1283 1.356 . S
N1281 H1286 0.984 . S
N1281 H1287 0.985 . S
C1282 C1276 1.379 . S
C1282 C1279 1.363 . S
C1282 N1280 1.356 . S
C1283 C1277 1.363 . S
C1283 C1278 1.379 . S
C1283 N1281 1.356 . S
N1284 C1276 1.356 . S
N1284 H1290 0.984 . S
N1284 H1291 0.984 . S
N1285 C1278 1.356 . S
N1285 H1288 0.984 . S
N1285 H1289 0.985 . S
H1286 N1281 0.984 . S
H1287 N1281 0.985 . S
H1288 N1285 0.984 . S
H1289 N1285 0.985 . S
H1290 N1284 0.984 . S
H1291 N1284 0.984 . S
H1292 N1280 0.984 . S
H1293 N1280 0.985 . S
C1294 C1295 1.363 . S
C1294 C1300 1.379 . S
C1294 N1302 1.356 . S
C1295 C1294 1.363 . S
C1295 C1301 1.363 . S
C1296 C1297 1.363 . S
C1296 C1301 1.379 . S
C1296 N1303 1.356 . S
C1297 C1296 1.363 . S
C1297 C1300 1.363 . S
N1298 C1300 1.356 . S
N1298 H1310 0.984 . S
N1298 H1311 0.985 . S
N1299 C1301 1.356 1_455 S
N1299 H1304 0.984 . S
N1299 H1305 0.985 . S
C1300 C1294 1.379 . S
C1300 C1297 1.363 . S
C1300 N1298 1.356 . S
C1301 C1295 1.363 . S
C1301 C1296 1.379 . S
C1301 N1299 1.356 1_655 S
N1302 C1294 1.356 . S
N1302 H1308 0.984 1_545 S
N1302 H1309 0.984 . S
N1303 C1296 1.356 . S
N1303 H1306 0.984 . S
N1303 H1307 0.985 . S
H1304 N1299 0.984 . S
H1305 N1299 0.985 . S
H1306 N1303 0.984 . S
H1307 N1303 0.985 . S
H1308 N1302 0.984 1_565 S
H1309 N1302 0.984 . S
H1310 N1298 0.984 . S
H1311 N1298 0.985 . S
C1312 C1313 1.363 . S
C1312 C1318 1.379 . S
C1312 N1320 1.356 . S
C1313 C1312 1.363 . S
C1313 C1319 1.363 . S
C1314 C1315 1.363 . S
C1314 C1319 1.379 . S
C1314 N1321 1.356 . S
C1315 C1314 1.363 . S
C1315 C1318 1.363 . S
N1316 C1318 1.356 . S
N1316 H1328 0.984 . S
N1316 H1329 0.985 . S
N1317 C1319 1.356 . S
N1317 H1322 0.984 . S
N1317 H1323 0.985 . S
C1318 C1312 1.379 . S
C1318 C1315 1.363 . S
C1318 N1316 1.356 . S
C1319 C1313 1.363 . S
C1319 C1314 1.379 . S
C1319 N1317 1.356 . S
N1320 C1312 1.356 . S
N1320 H1326 0.984 . S
N1320 H1327 0.984 . S
N1321 C1314 1.356 . S
N1321 H1324 0.984 . S
N1321 H1325 0.985 . S
H1322 N1317 0.984 . S
H1323 N1317 0.985 . S
H1324 N1321 0.984 . S
H1325 N1321 0.985 . S
H1326 N1320 0.984 . S
H1327 N1320 0.984 . S
H1328 N1316 0.984 . S
H1329 N1316 0.985 . S
C1330 C1331 1.363 . S
C1330 C1336 1.379 . S
C1330 N1338 1.356 . S
C1331 C1330 1.363 . S
C1331 C1337 1.363 . S
C1332 C1333 1.363 . S
C1332 C1337 1.379 . S
C1332 N1339 1.356 . S
C1333 C1332 1.363 . S
C1333 C1336 1.363 . S
N1334 C1336 1.356 . S
N1334 H1346 0.984 . S
N1334 H1347 0.985 . S
N1335 C1337 1.356 . S
N1335 H1340 0.984 . S
N1335 H1341 0.985 . S
C1336 C1330 1.379 . S
C1336 C1333 1.363 . S
C1336 N1334 1.356 . S
C1337 C1331 1.363 . S
C1337 C1332 1.379 . S
C1337 N1335 1.356 . S
N1338 C1330 1.356 . S
N1338 H1344 0.984 . S
N1338 H1345 0.984 . S
N1339 C1332 1.356 . S
N1339 H1342 0.984 . S
N1339 H1343 0.985 . S
H1340 N1335 0.984 . S
H1341 N1335 0.985 . S
H1342 N1339 0.984 . S
H1343 N1339 0.985 . S
H1344 N1338 0.984 . S
H1345 N1338 0.984 . S
H1346 N1334 0.984 . S
H1347 N1334 0.985 . S
C1348 C1349 1.363 . S
C1348 C1354 1.379 . S
C1348 N1356 1.356 . S
C1349 C1348 1.363 . S
C1349 C1355 1.363 . S
C1350 C1351 1.363 . S
C1350 C1355 1.379 . S
C1350 N1357 1.356 . S
C1351 C1350 1.363 . S
C1351 C1354 1.363 . S
N1352 C1354 1.356 . S
N1352 H1364 0.984 . S
N1352 H1365 0.985 . S
N1353 C1355 1.356 . S
N1353 H1358 0.984 . S
N1353 H1359 0.985 . S
C1354 C1348 1.379 . S
C1354 C1351 1.363 . S
C1354 N1352 1.356 . S
C1355 C1349 1.363 . S
C1355 C1350 1.379 . S
C1355 N1353 1.356 . S
N1356 C1348 1.356 . S
N1356 H1362 0.984 . S
N1356 H1363 0.984 . S
N1357 C1350 1.356 . S
N1357 H1360 0.984 . S
N1357 H1361 0.985 . S
H1358 N1353 0.984 . S
H1359 N1353 0.985 . S
H1360 N1357 0.984 . S
H1361 N1357 0.985 . S
H1362 N1356 0.984 . S
H1363 N1356 0.984 . S
H1364 N1352 0.984 . S
H1365 N1352 0.985 . S
C1366 C1367 1.363 . S
C1366 C1372 1.379 . S
C1366 N1374 1.356 . S
C1367 C1366 1.363 . S
C1367 C1373 1.363 . S
C1368 C1369 1.363 . S
C1368 C1373 1.379 . S
C1368 N1375 1.356 . S
C1369 C1368 1.363 . S
C1369 C1372 1.363 . S
N1370 C1372 1.356 . S
N1370 H1382 0.984 . S
N1370 H1383 0.985 1_655 S
N1371 C1373 1.356 . S
N1371 H1376 0.984 . S
N1371 H1377 0.985 . S
C1372 C1366 1.379 . S
C1372 C1369 1.363 . S
C1372 N1370 1.356 . S
C1373 C1367 1.363 . S
C1373 C1368 1.379 . S
C1373 N1371 1.356 . S
N1374 C1366 1.356 . S
N1374 H1380 0.984 . S
N1374 H1381 0.984 . S
N1375 C1368 1.356 . S
N1375 H1378 0.968 1_655 S
N1375 H1379 0.985 . S
H1376 N1371 0.984 . S
H1377 N1371 0.985 . S
H1378 N1375 0.968 1_455 S
H1379 N1375 0.985 . S
H1380 N1374 0.984 . S
H1381 N1374 0.984 . S
H1382 N1370 0.984 . S
H1383 N1370 0.985 1_455 S
C1384 C1385 1.363 . S
C1384 C1390 1.379 . S
C1384 N1392 1.356 . S
C1385 C1384 1.363 . S
C1385 C1391 1.363 . S
C1386 C1387 1.363 . S
C1386 C1391 1.379 . S
C1386 N1393 1.356 . S
C1387 C1386 1.363 . S
C1387 C1390 1.363 . S
N1388 C1390 1.356 . S
N1388 H1400 0.984 . S
N1388 H1401 0.985 . S
N1389 C1391 1.356 . S
N1389 H1394 0.984 . S
N1389 H1395 0.985 . S
C1390 C1384 1.379 . S
C1390 C1387 1.363 . S
C1390 N1388 1.356 . S
C1391 C1385 1.363 . S
C1391 C1386 1.379 . S
C1391 N1389 1.356 . S
N1392 C1384 1.356 . S
N1392 H1398 0.984 . S
N1392 H1399 0.984 . S
N1393 C1386 1.356 . S
N1393 H1396 0.984 . S
N1393 H1397 0.985 . S
H1394 N1389 0.984 . S
H1395 N1389 0.985 . S
H1396 N1393 0.984 . S
H1397 N1393 0.985 . S
H1398 N1392 0.984 . S
H1399 N1392 0.984 . S
H1400 N1388 0.984 . S
H1401 N1388 0.985 . S
C1402 C1403 1.363 . S
C1402 C1408 1.379 . S
C1402 N1410 1.356 . S
C1403 C1402 1.363 . S
C1403 C1409 1.363 . S
C1404 C1405 1.363 . S
C1404 C1409 1.379 . S
C1404 N1411 1.356 . S
C1405 C1404 1.363 . S
C1405 C1408 1.363 . S
N1406 C1408 1.356 . S
N1406 H1418 0.984 . S
N1406 H1419 0.985 . S
N1407 C1409 1.356 1_455 S
N1407 H1412 0.984 . S
N1407 H1413 0.985 . S
C1408 C1402 1.379 . S
C1408 C1405 1.363 . S
C1408 N1406 1.356 . S
C1409 C1403 1.363 . S
C1409 C1404 1.379 . S
C1409 N1407 1.356 1_655 S
N1410 C1402 1.356 . S
N1410 H1416 0.984 . S
N1410 H1417 0.984 . S
N1411 C1404 1.356 . S
N1411 H1414 0.984 . S
N1411 H1415 0.985 . S
H1412 N1407 0.984 . S
H1413 N1407 0.985 . S
H1414 N1411 0.984 . S
H1415 N1411 0.985 . S
H1416 N1410 0.984 . S
H1417 N1410 0.984 . S
H1418 N1406 0.984 . S
H1419 N1406 0.985 . S
C1420 C1421 1.363 . S
C1420 C1426 1.379 . S
C1420 N1428 1.356 . S
C1421 C1420 1.363 . S
C1421 C1427 1.363 . S
C1422 C1423 1.363 . S
C1422 C1427 1.379 . S
C1422 N1429 1.356 . S
C1423 C1422 1.363 . S
C1423 C1426 1.363 . S
N1424 C1426 1.356 . S
N1424 H1436 0.984 . S
N1424 H1437 0.985 . S
N1425 C1427 1.356 . S
N1425 H1430 0.984 . S
N1425 H1431 0.985 . S
C1426 C1420 1.379 . S
C1426 C1423 1.363 . S
C1426 N1424 1.356 . S
C1427 C1421 1.363 . S
C1427 C1422 1.379 . S
C1427 N1425 1.356 . S
N1428 C1420 1.356 . S
N1428 H1434 0.984 . S
N1428 H1435 0.984 . S
N1429 C1422 1.356 . S
N1429 H1432 0.984 . S
N1429 H1433 0.985 . S
H1430 N1425 0.984 . S
H1431 N1425 0.985 . S
H1432 N1429 0.984 . S
H1433 N1429 0.985 . S
H1434 N1428 0.984 . S
H1435 N1428 0.984 . S
H1436 N1424 0.984 . S
H1437 N1424 0.985 . S
C1438 C1439 1.363 . S
C1438 C1444 1.379 . S
C1438 N1446 1.356 . S
C1439 C1438 1.363 . S
C1439 C1445 1.363 . S
C1440 C1441 1.363 . S
C1440 C1445 1.379 . S
C1440 N1447 1.356 . S
C1441 C1440 1.363 . S
C1441 C1444 1.363 . S
N1442 C1444 1.356 . S
N1442 H1454 0.984 . S
N1442 H1455 0.985 . S
N1443 C1445 1.356 . S
N1443 H1448 0.984 . S
N1443 H1449 0.985 . S
C1444 C1438 1.379 . S
C1444 C1441 1.363 . S
C1444 N1442 1.356 . S
C1445 C1439 1.363 . S
C1445 C1440 1.379 . S
C1445 N1443 1.356 . S
N1446 C1438 1.356 . S
N1446 H1452 0.984 . S
N1446 H1453 0.984 . S
N1447 C1440 1.356 . S
N1447 H1450 0.984 . S
N1447 H1451 0.985 . S
H1448 N1443 0.984 . S
H1449 N1443 0.985 . S
H1450 N1447 0.984 . S
H1451 N1447 0.985 . S
H1452 N1446 0.984 . S
H1453 N1446 0.984 . S
H1454 N1442 0.984 . S
H1455 N1442 0.985 . S
C1456 C1457 1.363 . S
C1456 C1462 1.379 . S
C1456 N1464 1.356 . S
C1457 C1456 1.363 . S
C1457 C1463 1.363 . S
C1458 C1459 1.363 . S
C1458 C1463 1.379 . S
C1458 N1465 1.356 . S
C1459 C1458 1.363 . S
C1459 C1462 1.363 . S
N1460 C1462 1.356 . S
N1460 H1472 0.984 . S
N1460 H1473 0.985 . S
N1461 C1463 1.356 . S
N1461 H1466 0.984 . S
N1461 H1467 0.985 . S
C1462 C1456 1.379 . S
C1462 C1459 1.363 . S
C1462 N1460 1.356 . S
C1463 C1457 1.363 . S
C1463 C1458 1.379 . S
C1463 N1461 1.356 . S
N1464 C1456 1.356 . S
N1464 H1470 0.984 . S
N1464 H1471 0.984 . S
N1465 C1458 1.356 . S
N1465 H1468 0.984 . S
N1465 H1469 0.985 . S
H1466 N1461 0.984 . S
H1467 N1461 0.985 . S
H1468 N1465 0.984 . S
H1469 N1465 0.985 . S
H1470 N1464 0.984 . S
H1471 N1464 0.984 . S
H1472 N1460 0.984 . S
H1473 N1460 0.985 . S
C1474 C1475 1.363 . S
C1474 C1480 1.379 . S
C1474 N1482 1.356 . S
C1475 C1474 1.363 . S
C1475 C1481 1.363 . S
C1476 C1477 1.363 . S
C1476 C1481 1.379 . S
C1476 N1483 1.356 . S
C1477 C1476 1.363 . S
C1477 C1480 1.363 . S
N1478 C1480 1.356 . S
N1478 H1490 0.984 . S
N1478 H1491 0.985 . S
N1479 C1481 1.356 . S
N1479 H1484 0.984 . S
N1479 H1485 0.985 . S
C1480 C1474 1.379 . S
C1480 C1477 1.363 . S
C1480 N1478 1.356 . S
C1481 C1475 1.363 . S
C1481 C1476 1.379 . S
C1481 N1479 1.356 . S
N1482 C1474 1.356 . S
N1482 H1488 0.984 . S
N1482 H1489 0.984 . S
N1483 C1476 1.356 . S
N1483 H1486 0.984 . S
N1483 H1487 0.985 . S
H1484 N1479 0.984 . S
H1485 N1479 0.985 . S
H1486 N1483 0.984 . S
H1487 N1483 0.985 . S
H1488 N1482 0.984 . S
H1489 N1482 0.984 . S
H1490 N1478 0.984 . S
H1491 N1478 0.985 . S
C1492 C1493 1.363 . S
C1492 C1498 1.379 . S
C1492 N1500 1.356 . S
C1493 C1492 1.363 . S
C1493 C1499 1.363 . S
C1494 C1495 1.363 . S
C1494 C1499 1.379 . S
C1494 N1501 1.356 . S
C1495 C1494 1.363 . S
C1495 C1498 1.363 . S
N1496 C1498 1.356 . S
N1496 H1508 0.984 . S
N1496 H1509 0.985 . S
N1497 C1499 1.356 . S
N1497 H1502 0.984 . S
N1497 H1503 0.985 . S
C1498 C1492 1.379 . S
C1498 C1495 1.363 . S
C1498 N1496 1.356 . S
C1499 C1493 1.363 . S
C1499 C1494 1.379 . S
C1499 N1497 1.356 . S
N1500 C1492 1.356 . S
N1500 H1506 0.984 . S
N1500 H1507 0.984 . S
N1501 C1494 1.356 . S
N1501 H1504 0.984 . S
N1501 H1505 0.985 . S
H1502 N1497 0.984 . S
H1503 N1497 0.985 . S
H1504 N1501 0.984 . S
H1505 N1501 0.985 . S
H1506 N1500 0.984 . S
H1507 N1500 0.984 . S
H1508 N1496 0.984 . S
H1509 N1496 0.985 . S
C1510 C1511 1.363 . S
C1510 C1516 1.379 . S
C1510 N1518 1.356 . S
C1511 C1510 1.363 . S
C1511 C1517 1.363 . S
C1512 C1513 1.363 . S
C1512 C1517 1.379 . S
C1512 N1519 1.356 . S
C1513 C1512 1.363 . S
C1513 C1516 1.363 . S
N1514 C1516 1.356 . S
N1514 H1526 0.984 . S
N1514 H1527 0.985 . S
N1515 C1517 1.356 . S
N1515 H1520 0.984 1_455 S
N1515 H1521 0.985 . S
C1516 C1510 1.379 . S
C1516 C1513 1.363 . S
C1516 N1514 1.356 . S
C1517 C1511 1.363 . S
C1517 C1512 1.379 . S
C1517 N1515 1.356 . S
N1518 C1510 1.356 . S
N1518 H1524 0.984 . S
N1518 H1525 0.997 . S
N1519 C1512 1.356 . S
N1519 H1522 0.984 . S
N1519 H1523 0.985 . S
H1520 N1515 0.984 1_655 S
H1521 N1515 0.985 . S
H1522 N1519 0.984 . S
H1523 N1519 0.985 . S
H1524 N1518 0.984 . S
H1525 N1518 0.997 . S
H1526 N1514 0.984 . S
H1527 N1514 0.985 . S
C1528 C1529 1.363 . S
C1528 C1534 1.379 . S
C1528 N1536 1.356 . S
C1529 C1528 1.363 . S
C1529 C1535 1.363 . S
C1530 C1531 1.363 . S
C1530 C1535 1.379 . S
C1530 N1537 1.356 . S
C1531 C1530 1.363 . S
C1531 C1534 1.363 . S
N1532 C1534 1.356 . S
N1532 H1544 0.984 . S
N1532 H1545 0.985 . S
N1533 C1535 1.356 . S
N1533 H1538 0.984 . S
N1533 H1539 0.985 . S
C1534 C1528 1.379 . S
C1534 C1531 1.363 . S
C1534 N1532 1.356 . S
C1535 C1529 1.363 . S
C1535 C1530 1.379 . S
C1535 N1533 1.356 . S
N1536 C1528 1.356 . S
N1536 H1542 0.984 . S
N1536 H1543 0.984 . S
N1537 C1530 1.356 . S
N1537 H1540 0.984 . S
N1537 H1541 0.985 . S
H1538 N1533 0.984 . S
H1539 N1533 0.985 . S
H1540 N1537 0.984 . S
H1541 N1537 0.985 . S
H1542 N1536 0.984 . S
H1543 N1536 0.984 . S
H1544 N1532 0.984 . S
H1545 N1532 0.985 . S
C1546 C1547 1.363 . S
C1546 C1552 1.379 . S
C1546 N1554 1.356 . S
C1547 C1546 1.363 . S
C1547 C1553 1.363 . S
C1548 C1549 1.363 . S
C1548 C1553 1.379 . S
C1548 N1555 1.356 . S
C1549 C1548 1.363 . S
C1549 C1552 1.363 . S
N1550 C1552 1.356 1_655 S
N1550 H1562 0.984 . S
N1550 H1563 0.985 . S
N1551 C1553 1.356 . S
N1551 H1556 0.984 . S
N1551 H1557 0.985 . S
C1552 C1546 1.379 . S
C1552 C1549 1.363 . S
C1552 N1550 1.356 1_455 S
C1553 C1547 1.363 . S
C1553 C1548 1.379 . S
C1553 N1551 1.356 . S
N1554 C1546 1.356 . S
N1554 H1560 0.984 . S
N1554 H1561 0.984 . S
N1555 C1548 1.356 . S
N1555 H1558 0.984 . S
N1555 H1559 0.985 . S
H1556 N1551 0.984 . S
H1557 N1551 0.985 . S
H1558 N1555 0.984 . S
H1559 N1555 0.985 . S
H1560 N1554 0.984 . S
H1561 N1554 0.984 . S
H1562 N1550 0.984 . S
H1563 N1550 0.985 . S
C1564 C1565 1.363 . S
C1564 C1570 1.379 . S
C1564 N1572 1.356 . S
C1565 C1564 1.363 . S
C1565 C1571 1.363 . S
C1566 C1567 1.363 . S
C1566 C1571 1.379 . S
C1566 N1573 1.356 . S
C1567 C1566 1.363 . S
C1567 C1570 1.363 . S
N1568 C1570 1.356 . S
N1568 H1580 0.984 . S
N1568 H1581 0.985 . S
N1569 C1571 1.356 . S
N1569 H1574 0.984 . S
N1569 H1575 0.985 . S
C1570 C1564 1.379 . S
C1570 C1567 1.363 . S
C1570 N1568 1.356 . S
C1571 C1565 1.363 . S
C1571 C1566 1.379 . S
C1571 N1569 1.356 . S
N1572 C1564 1.356 . S
N1572 H1578 0.984 . S
N1572 H1579 0.984 . S
N1573 C1566 1.356 . S
N1573 H1576 0.984 . S
N1573 H1577 0.985 . S
H1574 N1569 0.984 . S
H1575 N1569 0.985 . S
H1576 N1573 0.984 . S
H1577 N1573 0.985 . S
H1578 N1572 0.984 . S
H1579 N1572 0.984 . S
H1580 N1568 0.984 . S
H1581 N1568 0.985 . S
C1582 C1583 1.363 . S
C1582 C1588 1.379 . S
C1582 N1590 1.356 . S
C1583 C1582 1.363 . S
C1583 C1589 1.363 . S
C1584 C1585 1.363 . S
C1584 C1589 1.379 . S
C1584 N1591 1.356 . S
C1585 C1584 1.363 . S
C1585 C1588 1.363 . S
N1586 C1588 1.356 . S
N1586 H1598 0.984 . S
N1586 H1599 0.985 . S
N1587 C1589 1.356 . S
N1587 H1592 0.984 . S
N1587 H1593 0.985 . S
C1588 C1582 1.379 . S
C1588 C1585 1.363 . S
C1588 N1586 1.356 . S
C1589 C1583 1.363 . S
C1589 C1584 1.379 . S
C1589 N1587 1.356 . S
N1590 C1582 1.356 . S
N1590 H1596 0.984 . S
N1590 H1597 0.984 . S
N1591 C1584 1.356 . S
N1591 H1594 0.984 . S
N1591 H1595 0.985 . S
H1592 N1587 0.984 . S
H1593 N1587 0.985 . S
H1594 N1591 0.984 . S
H1595 N1591 0.985 . S
H1596 N1590 0.984 . S
H1597 N1590 0.984 . S
H1598 N1586 0.984 . S
H1599 N1586 0.985 . S
C449 C67 1.514 . S
C451 C11 1.514 . S
C467 C81 1.514 . S
C469 C25 1.514 . S
C485 C95 1.514 . S
C487 C39 1.514 . S
C503 C53 1.514 . S
C505 C109 1.514 . S
C521 C123 1.514 . S
C523 C179 1.514 . S
C539 C193 1.514 . S
C541 C137 1.514 . S
C557 C151 1.514 . S
C559 C207 1.514 . S
C575 C221 1.514 . S
C577 C165 1.514 . S
C593 C235 1.514 . S
C595 C291 1.514 . S
C611 C305 1.514 . S
C613 C249 1.514 . S
C629 C319 1.514 . S
C631 C263 1.514 . S
C647 C333 1.514 . S
C649 C277 1.514 . S
C665 C347 1.514 . S
C667 C403 1.514 . S
C683 C361 1.514 . S
C685 C417 1.514 . S
C701 C375 1.514 . S
C703 C431 1.514 . S
C719 C389 1.514 . S
C721 C445 1.514 . S
C737 C9 1.337 . S
C739 C107 1.337 . S
C755 C23 1.337 . S
C757 C65 1.337 . S
C773 C37 1.337 . S
C775 C79 1.337 . S
C791 C93 1.337 . S
C793 C51 1.337 . S
C809 C219 1.337 . S
C811 C121 1.337 . S
C827 C177 1.337 . S
C829 C135 1.337 . S
C845 C191 1.337 . S
C847 C149 1.337 . S
C863 C163 1.337 . S
C865 C205 1.337 . S
C881 C331 1.337 . S
C883 C233 1.337 . S
C899 C289 1.337 . S
C901 C247 1.337 . S
C917 C303 1.337 . S
C919 C261 1.337 . S
C935 C275 1.337 . S
C937 C317 1.337 . S
C953 C345 1.337 . S
C955 C443 1.337 . S
C971 C359 1.337 . S
C973 C401 1.337 . S
C989 C373 1.337 . S
C991 C415 1.337 . S
C1007 C429 1.337 . S
C1009 C387 1.337 . S
C1025 C5 1.484 . S
C1027 C350 1.465 . S
C1043 C19 1.484 . S
C1045 C140 1.465 1_455 S
C1061 C33 1.484 . S
C1063 C378 1.465 . S
C1079 C112 1.465 . S
C1081 C47 1.484 . S
C1097 C434 1.465 . S
C1099 C61 1.484 . S
C1115 C75 1.484 . S
C1117 C168 1.465 . S
C1133 C89 1.484 . S
C1135 C406 1.465 . S
C1151 C103 1.484 . S
C1153 C196 1.465 1_455 S
C1169 C238 1.465 . S
C1171 C117 1.484 . S
C1187 C28 1.465 1_655 S
C1189 C131 1.484 . S
C1205 C266 1.465 . S
C1207 C145 1.484 . S
C1223 C159 1.484 . S
C1225 C0 1.465 . S
C1241 C322 1.465 . S
C1243 C173 1.484 . S
C1259 C56 1.465 . S
C1261 C187 1.484 . S
C1277 C294 1.465 . S
C1279 C201 1.484 . S
C1295 C84 1.465 1_655 S
C1297 C215 1.484 . S
C1313 C126 1.465 . S
C1315 C229 1.484 . S
C1331 C243 1.484 . S
C1333 C364 1.465 . S
C1349 C257 1.484 . S
C1351 C154 1.465 . S
C1367 C271 1.484 . S
C1369 C336 1.465 1_655 S
C1385 C285 1.484 . S
C1387 C210 1.465 . S
C1403 C392 1.465 1_655 S
C1405 C299 1.484 . S
C1421 C313 1.484 . S
C1423 C182 1.465 . S
C1439 C327 1.484 . S
C1441 C420 1.465 . S
C1457 C341 1.484 . S
C1459 C14 1.465 . S
C1475 C355 1.484 . S
C1477 C252 1.465 . S
C1493 C42 1.465 . S
C1495 C369 1.484 . S
C1511 C224 1.465 1_455 S
C1513 C383 1.484 . S
C1529 C397 1.484 . S
C1531 C98 1.465 . S
C1547 C411 1.484 . S
C1549 C280 1.465 1_455 S
C1565 C70 1.465 . S
C1567 C425 1.484 . S
C1583 C308 1.465 . S
C1585 C439 1.484 . S
