# Generated by pormake.
# Topology umm, (4)-cn, num edge types: 1
# Building blocks:
#     Node 0, Type 0, BuildingBlock: KOZSID_clean_sbu_0, # of connection points: 4
#     Node 1, Type 0, BuildingBlock: KOZSID_clean_sbu_0, # of connection points: 4
#     Node 2, Type 0, BuildingBlock: KOZSID_clean_sbu_0, # of connection points: 4
#     Node 3, Type 0, BuildingBlock: KOZSID_clean_sbu_0, # of connection points: 4
#     Node 4, Type 0, BuildingBlock: KOZSID_clean_sbu_0, # of connection points: 4
#     Node 5, Type 0, BuildingBlock: KOZSID_clean_sbu_0, # of connection points: 4
#     Node 6, Type 0, BuildingBlock: KOZSID_clean_sbu_0, # of connection points: 4
#     Node 7, Type 0, BuildingBlock: KOZSID_clean_sbu_0, # of connection points: 4
#     Node 8, Type 0, BuildingBlock: KOZSID_clean_sbu_0, # of connection points: 4
#     Node 9, Type 0, BuildingBlock: KOZSID_clean_sbu_0, # of connection points: 4
#     Node 10, Type 0, BuildingBlock: KOZSID_clean_sbu_0, # of connection points: 4
#     Node 11, Type 0, BuildingBlock: KOZSID_clean_sbu_0, # of connection points: 4
#     Edge 12, Type (0, 0), BuildingBlock: AJUNOK_clean_linker_0, # of connection points: 2
#     Edge 13, Type (0, 0), BuildingBlock: AJUNOK_clean_linker_0, # of connection points: 2
#     Edge 14, Type (0, 0), BuildingBlock: AJUNOK_clean_linker_0, # of connection points: 2
#     Edge 15, Type (0, 0), BuildingBlock: AJUNOK_clean_linker_0, # of connection points: 2
#     Edge 16, Type (0, 0), BuildingBlock: AJUNOK_clean_linker_0, # of connection points: 2
#     Edge 17, Type (0, 0), BuildingBlock: AJUNOK_clean_linker_0, # of connection points: 2
#     Edge 18, Type (0, 0), BuildingBlock: AJUNOK_clean_linker_0, # of connection points: 2
#     Edge 19, Type (0, 0), BuildingBlock: AJUNOK_clean_linker_0, # of connection points: 2
#     Edge 20, Type (0, 0), BuildingBlock: AJUNOK_clean_linker_0, # of connection points: 2
#     Edge 21, Type (0, 0), BuildingBlock: AJUNOK_clean_linker_0, # of connection points: 2
#     Edge 22, Type (0, 0), BuildingBlock: AJUNOK_clean_linker_0, # of connection points: 2
#     Edge 23, Type (0, 0), BuildingBlock: AJUNOK_clean_linker_0, # of connection points: 2
#     Edge 24, Type (0, 0), BuildingBlock: AJUNOK_clean_linker_0, # of connection points: 2
#     Edge 25, Type (0, 0), BuildingBlock: AJUNOK_clean_linker_0, # of connection points: 2
#     Edge 26, Type (0, 0), BuildingBlock: AJUNOK_clean_linker_0, # of connection points: 2
#     Edge 27, Type (0, 0), BuildingBlock: AJUNOK_clean_linker_0, # of connection points: 2
#     Edge 28, Type (0, 0), BuildingBlock: AJUNOK_clean_linker_0, # of connection points: 2
#     Edge 29, Type (0, 0), BuildingBlock: AJUNOK_clean_linker_0, # of connection points: 2
#     Edge 30, Type (0, 0), BuildingBlock: AJUNOK_clean_linker_0, # of connection points: 2
#     Edge 31, Type (0, 0), BuildingBlock: AJUNOK_clean_linker_0, # of connection points: 2
#     Edge 32, Type (0, 0), BuildingBlock: AJUNOK_clean_linker_0, # of connection points: 2
#     Edge 33, Type (0, 0), BuildingBlock: AJUNOK_clean_linker_0, # of connection points: 2
#     Edge 34, Type (0, 0), BuildingBlock: AJUNOK_clean_linker_0, # of connection points: 2
#     Edge 35, Type (0, 0), BuildingBlock: AJUNOK_clean_linker_0, # of connection points: 2
# Relax obj value: 0.061
# Max RMSD: 0.163
# Mean RMSD: 0.163
data_MOF--net-umm--node1-KOZSID_clean_sbu_0--edge1-AJUNOK_clean_linker_0
_symmetry_space_group_name_H-M    P1
_symmetry_Int_Tables_number       1
_symmetry_cell_setting            triclinic
loop_
_symmetry_equiv_pos_as_xyz
'x, y, z'
_cell_length_a     46.710681
_cell_length_b     46.658235
_cell_length_c     30.155135
_cell_angle_alpha  89.931333
_cell_angle_beta   89.966131
_cell_angle_gamma 120.02159
loop_
_atom_site_label
_atom_site_type_symbol
_atom_site_fract_x
_atom_site_fract_y
_atom_site_fract_z
_atom_type_partial_charge
C0 C 0.3477 0.55805 0.08743 0.0
C1 C 0.31412 0.53507 0.08827 0.0
C2 C 0.31106 0.50644 0.10557 0.0
C3 C 0.3428 0.5135 0.11424 0.0
N4 N 0.36554 0.54477 0.10355 0.0
Co5 Co 0.41403 0.56503 0.10996 0.0
N6 N 0.41093 0.52104 0.11138 0.0
C7 C 0.38337 0.49202 0.12005 0.0
C8 C 0.38864 0.4656 0.11951 0.0
C9 C 0.42164 0.47887 0.1104 0.0
C10 C 0.43475 0.51282 0.10593 0.0
N11 N 0.4625 0.58525 0.11746 0.0
C12 C 0.48215 0.57167 0.11284 0.0
C13 C 0.51468 0.59465 0.12314 0.0
C14 C 0.51513 0.62332 0.13509 0.0
C15 C 0.48296 0.61639 0.13144 0.0
N16 N 0.41654 0.60873 0.10743 0.0
C17 C 0.44187 0.63754 0.12176 0.0
C18 C 0.43682 0.66376 0.114 0.0
C19 C 0.40642 0.65041 0.09356 0.0
C20 C 0.39462 0.61673 0.08993 0.0
N21 N 0.40982 0.56441 0.17495 0.0
C22 C 0.4193 0.57896 0.26594 0.0
C23 C 0.39877 0.5867 0.24079 0.0
C24 C 0.39408 0.57891 0.19539 0.0
C25 C 0.43196 0.56072 0.24547 0.0
C26 C 0.42715 0.55391 0.20021 0.0
N27 N 0.41954 0.56691 0.04565 0.0
C28 C 0.44999 0.59835 0.98184 0.0
C29 C 0.42829 0.57306 0.95385 0.0
C30 C 0.4021 0.54431 0.97249 0.0
C31 C 0.39836 0.54156 1.01874 0.0
C32 C 0.44503 0.59495 0.02737 0.0
H33 H 0.37826 0.51923 0.03275 0.0
H34 H 0.46172 0.61545 0.0477 0.0
H35 H 0.37935 0.58638 0.17633 0.0
H36 H 0.43934 0.54192 0.18536 0.0
C37 C 0.35252 0.4901 0.12273 0.0
C38 C 0.36186 0.59244 0.07241 0.0
C39 C 0.47034 0.53662 0.1022 0.0
C40 C 0.47188 0.63945 0.13395 0.0
H41 H 0.294 0.53845 0.07707 0.0
H42 H 0.28854 0.48281 0.1089 0.0
H43 H 0.37056 0.43971 0.12427 0.0
H44 H 0.4347 0.4652 0.10843 0.0
H45 H 0.53579 0.59098 0.12255 0.0
H46 H 0.53654 0.64667 0.14406 0.0
H47 H 0.45381 0.68969 0.12044 0.0
H48 H 0.39434 0.66381 0.08256 0.0
H49 H 0.3878 0.60014 0.25546 0.0
H50 H 0.44672 0.55284 0.26393 0.0
H51 H 0.47026 0.62105 0.9685 0.0
H52 H 0.38483 0.52423 0.95156 0.0
C53 C 0.80042 0.34091 0.42007 0.0
C54 C 0.79079 0.30751 0.41997 0.0
C55 C 0.81677 0.30513 0.43691 0.0
C56 C 0.84078 0.33707 0.44622 0.0
N57 N 0.83149 0.35933 0.43619 0.0
Co58 Co 0.85878 0.40793 0.44368 0.0
N59 N 0.9003 0.40604 0.44505 0.0
C60 C 0.90244 0.37881 0.45336 0.0
C61 C 0.93437 0.38489 0.45329 0.0
C62 C 0.95357 0.41809 0.44483 0.0
C63 C 0.93217 0.43049 0.44014 0.0
N64 N 0.88614 0.4565 0.4521 0.0
C65 C 0.9193 0.4769 0.44751 0.0
C66 C 0.92796 0.50928 0.45756 0.0
C67 C 0.89932 0.50881 0.46958 0.0
C68 C 0.8747 0.47632 0.4661 0.0
N69 N 0.81698 0.40924 0.44135 0.0
C70 C 0.81279 0.43404 0.45618 0.0
C71 C 0.78122 0.42819 0.44889 0.0
C72 C 0.7647 0.39781 0.42827 0.0
C73 C 0.78717 0.38682 0.42403 0.0
N74 N 0.85483 0.40286 0.50862 0.0
C75 C 0.8491 0.40742 0.60079 0.0
C76 C 0.82107 0.38817 0.57469 0.0
C77 C 0.82453 0.38574 0.52875 0.0
C78 C 0.88006 0.42292 0.58008 0.0
C79 C 0.88239 0.42041 0.53428 0.0
N80 N 0.86277 0.41427 0.37943 0.0
C81 C 0.86167 0.44529 0.31641 0.0
C82 C 0.86718 0.42511 0.28763 0.0
C83 C 0.8706 0.39924 0.30592 0.0
C84 C 0.86856 0.39439 0.35206 0.0
C85 C 0.85928 0.43933 0.36173 0.0
H86 H 0.87135 0.3745 0.3656 0.0
H87 H 0.85442 0.45515 0.38242 0.0
H88 H 0.80253 0.37114 0.50928 0.0
H89 H 0.90655 0.43419 0.51952 0.0
C90 C 0.87396 0.34753 0.45515 0.0
C91 C 0.77922 0.35423 0.40627 0.0
C92 C 0.94324 0.46598 0.43673 0.0
C93 C 0.84042 0.46437 0.46857 0.0
H94 H 0.76763 0.28702 0.40851 0.0
H95 H 0.81857 0.28296 0.43973 0.0
H96 H 0.9427 0.36722 0.45793 0.0
H97 H 0.98031 0.43172 0.44343 0.0
H98 H 0.95239 0.53094 0.45659 0.0
H99 H 0.89669 0.52987 0.47832 0.0
H100 H 0.77171 0.44464 0.45584 0.0
H101 H 0.73916 0.38518 0.41762 0.0
H102 H 0.79668 0.37547 0.58957 0.0
H103 H 0.90235 0.4382 0.59893 0.0
H104 H 0.85922 0.46578 0.30403 0.0
H105 H 0.87427 0.38257 0.28488 0.0
C106 C 0.4691 0.79419 0.75364 0.0
C107 C 0.49267 0.78433 0.7532 0.0
C108 C 0.52122 0.81026 0.76976 0.0
C109 C 0.51364 0.83449 0.77913 0.0
N110 N 0.4821 0.82539 0.76948 0.0
Co111 Co 0.4613 0.85315 0.7768 0.0
N112 N 0.50497 0.89445 0.77795 0.0
C113 C 0.53425 0.89635 0.78578 0.0
C114 C 0.56035 0.9282 0.78481 0.0
C115 C 0.54662 0.9476 0.77628 0.0
C116 C 0.51272 0.92641 0.77265 0.0
N117 N 0.44061 0.88095 0.78506 0.0
C118 C 0.45375 0.91418 0.78047 0.0
C119 C 0.43061 0.92337 0.79146 0.0
C120 C 0.40224 0.89491 0.80365 0.0
C121 C 0.40953 0.86991 0.79953 0.0
N122 N 0.4179 0.81159 0.77468 0.0
C123 C 0.38908 0.80779 0.78961 0.0
C124 C 0.3631 0.77627 0.78262 0.0
C125 C 0.3766 0.75937 0.76215 0.0
C126 C 0.41013 0.78158 0.75768 0.0
N127 N 0.46234 0.84929 0.84171 0.0
C128 C 0.44913 0.8434 0.93331 0.0
C129 C 0.44126 0.81539 0.90742 0.0
C130 C 0.44854 0.81893 0.86185 0.0
C131 C 0.46614 0.87449 0.91278 0.0
C132 C 0.47241 0.8769 0.86729 0.0
N133 N 0.45902 0.85704 0.71258 0.0
C134 C 0.42735 0.85662 0.64952 0.0
C135 C 0.45307 0.86189 0.62112 0.0
C136 C 0.48195 0.86449 0.63916 0.0
C137 C 0.4846 0.86237 0.68525 0.0
C138 C 0.43069 0.85402 0.69486 0.0
H139 H 0.50711 0.86485 0.69881 0.0
H140 H 0.41002 0.84928 0.71552 0.0
H141 H 0.44122 0.7969 0.84248 0.0
H142 H 0.48368 0.90116 0.85257 0.0
C143 C 0.53668 0.86768 0.78762 0.0
C144 C 0.43446 0.77312 0.74026 0.0
C145 C 0.48859 0.93778 0.76937 0.0
C146 C 0.38684 0.83567 0.80213 0.0
H147 H 0.48978 0.76108 0.7417 0.0
H148 H 0.54512 0.81189 0.7722 0.0
H149 H 0.58635 0.93632 0.78871 0.0
H150 H 0.55999 0.97434 0.77394 0.0
H151 H 0.43402 0.94808 0.79117 0.0
H152 H 0.37885 0.89265 0.81311 0.0
H153 H 0.33722 0.76701 0.78979 0.0
H154 H 0.36342 0.73373 0.75183 0.0
H155 H 0.42806 0.79077 0.92158 0.0
H156 H 0.47354 0.89694 0.93146 0.0
H157 H 0.40445 0.85389 0.63664 0.0
H158 H 0.50228 0.86839 0.61788 0.0
C159 C 0.68819 0.47061 0.08717 0.0
C160 C 0.72116 0.49538 0.08564 0.0
C161 C 0.72244 0.52365 0.10099 0.0
C162 C 0.69031 0.5147 0.11075 0.0
N163 N 0.66893 0.48258 0.10249 0.0
Co164 Co 0.62031 0.45979 0.11035 0.0
N165 N 0.62038 0.50242 0.11049 0.0
C166 C 0.64693 0.53247 0.11788 0.0
C167 C 0.63967 0.55755 0.11645 0.0
C168 C 0.60643 0.54231 0.10812 0.0
C169 C 0.59517 0.5086 0.10501 0.0
N170 N 0.57167 0.43698 0.11804 0.0
C171 C 0.55039 0.44863 0.11287 0.0
C172 C 0.51839 0.42436 0.12356 0.0
C173 C 0.51992 0.39684 0.13626 0.0
C174 C 0.55267 0.40571 0.13263 0.0
N175 N 0.62098 0.41751 0.11071 0.0
C176 C 0.597 0.38846 0.12687 0.0
C177 C 0.60417 0.36343 0.12149 0.0
C178 C 0.63453 0.37779 0.10078 0.0
C179 C 0.64418 0.41084 0.09454 0.0
N180 N 0.62517 0.46207 0.17529 0.0
C181 C 0.61578 0.44753 0.26631 0.0
C182 C 0.63803 0.44189 0.24176 0.0
C183 C 0.64275 0.44979 0.19636 0.0
C184 C 0.60153 0.46416 0.24535 0.0
C185 C 0.60625 0.47089 0.20005 0.0
N186 N 0.6139 0.45624 0.04593 0.0
C187 C 0.58777 0.42131 0.98288 0.0
C188 C 0.59767 0.44879 0.95521 0.0
C189 C 0.61773 0.48036 0.97391 0.0
C190 C 0.62632 0.48344 1.01899 0.0
C191 C 0.5946 0.42555 0.02792 0.0
H192 H 0.64228 0.50788 0.03215 0.0
H193 H 0.58365 0.40362 0.04799 0.0
H194 H 0.65887 0.44389 0.17777 0.0
H195 H 0.59264 0.48124 0.18476 0.0
C196 C 0.67872 0.53661 0.11902 0.0
C197 C 0.67609 0.43581 0.07563 0.0
C198 C 0.56008 0.48317 0.10183 0.0
C199 C 0.56592 0.3846 0.13751 0.0
H200 H 0.74209 0.49344 0.07432 0.0
H201 H 0.744 0.54816 0.10255 0.0
H202 H 0.65665 0.58385 0.11977 0.0
H203 H 0.59204 0.55459 0.10547 0.0
H204 H 0.49638 0.42652 0.12298 0.0
H205 H 0.49948 0.37304 0.14613 0.0
H206 H 0.58849 0.33749 0.12949 0.0
H207 H 0.64797 0.36545 0.09118 0.0
H208 H 0.65035 0.42988 0.25682 0.0
H209 H 0.58554 0.47067 0.26338 0.0
H210 H 0.5746 0.39626 0.97038 0.0
H211 H 0.62655 0.50262 0.95427 0.0
C212 C 0.23046 0.67945 0.41879 0.0
C213 C 0.24043 0.71292 0.41733 0.0
C214 C 0.21456 0.7159 0.43325 0.0
C215 C 0.19025 0.68424 0.44329 0.0
N216 N 0.19923 0.66153 0.43467 0.0
Co217 Co 0.17135 0.61306 0.4436 0.0
N218 N 0.13018 0.61564 0.44423 0.0
C219 C 0.12842 0.64327 0.45062 0.0
C220 C 0.09667 0.63769 0.44916 0.0
C221 C 0.07717 0.6044 0.44184 0.0
C222 C 0.0982 0.59142 0.43951 0.0
N223 N 0.14338 0.5647 0.45371 0.0
C224 C 0.11017 0.54462 0.44943 0.0
C225 C 0.10089 0.51244 0.46163 0.0
C226 C 0.12928 0.51262 0.47422 0.0
C227 C 0.15433 0.54482 0.46915 0.0
N228 N 0.21273 0.61093 0.44183 0.0
C229 C 0.21639 0.586 0.45761 0.0
C230 C 0.24781 0.59128 0.45082 0.0
C231 C 0.26482 0.62143 0.42958 0.0
C232 C 0.24278 0.63288 0.4245 0.0
N233 N 0.17552 0.61912 0.50835 0.0
C234 C 0.18198 0.61222 0.59991 0.0
C235 C 0.20981 0.6321 0.57353 0.0
C236 C 0.20599 0.63566 0.528 0.0
C237 C 0.15078 0.59838 0.57993 0.0
C238 C 0.14809 0.60206 0.53444 0.0
N239 N 0.16727 0.60569 0.37954 0.0
C240 C 0.16743 0.57295 0.31817 0.0
C241 C 0.16529 0.59452 0.28801 0.0
C242 C 0.16272 0.62126 0.30482 0.0
C243 C 0.16349 0.62627 0.35085 0.0
C244 C 0.16914 0.57934 0.36327 0.0
H245 H 0.16158 0.64694 0.36323 0.0
H246 H 0.1724 0.5629 0.38489 0.0
H247 H 0.22791 0.65008 0.50824 0.0
H248 H 0.12374 0.58916 0.52011 0.0
C249 C 0.15713 0.67435 0.45157 0.0
C250 C 0.25149 0.66562 0.40631 0.0
C251 C 0.08669 0.55579 0.43749 0.0
C252 C 0.18852 0.55623 0.4713 0.0
H253 H 0.26374 0.73309 0.40557 0.0
H254 H 0.21303 0.73827 0.43486 0.0
H255 H 0.0887 0.65577 0.45185 0.0
H256 H 0.05049 0.59116 0.43927 0.0
H257 H 0.07616 0.49117 0.46181 0.0
H258 H 0.13146 0.49155 0.48446 0.0
H259 H 0.25696 0.57467 0.45876 0.0
H260 H 0.29044 0.63367 0.41924 0.0
H261 H 0.2345 0.64336 0.58723 0.0
H262 H 0.12846 0.58357 0.59903 0.0
H263 H 0.16802 0.55118 0.30713 0.0
H264 H 0.16071 0.63845 0.28267 0.0
C265 C 0.5588 0.22354 0.75417 0.0
C266 C 0.53482 0.23283 0.7543 0.0
C267 C 0.50663 0.20659 0.77131 0.0
C268 C 0.51485 0.18276 0.7804 0.0
N269 N 0.54645 0.19243 0.77016 0.0
Co270 Co 0.56815 0.16549 0.77692 0.0
N271 N 0.52495 0.12368 0.77819 0.0
C272 C 0.49545 0.12112 0.78668 0.0
C273 C 0.46979 0.08904 0.78617 0.0
C274 C 0.48406 0.07019 0.77724 0.0
C275 C 0.51782 0.09193 0.77283 0.0
N276 N 0.58975 0.13847 0.78466 0.0
C277 C 0.57723 0.10536 0.77983 0.0
C278 C 0.601 0.09684 0.78998 0.0
C279 C 0.62906 0.12557 0.80209 0.0
C280 C 0.62101 0.15008 0.79868 0.0
N281 N 0.61104 0.20755 0.77467 0.0
C282 C 0.64018 0.21198 0.78917 0.0
C283 C 0.6657 0.24368 0.7816 0.0
C284 C 0.65154 0.26 0.76116 0.0
C285 C 0.61812 0.23729 0.7573 0.0
N286 N 0.56712 0.16898 0.84187 0.0
C287 C 0.57776 0.17456 0.9339 0.0
C288 C 0.58602 0.2026 0.90794 0.0
C289 C 0.57997 0.19921 0.86208 0.0
C290 C 0.5626 0.14362 0.91317 0.0
C291 C 0.55755 0.14136 0.86739 0.0
N292 N 0.57048 0.16212 0.7126 0.0
C293 C 0.60288 0.16461 0.64925 0.0
C294 C 0.57735 0.1597 0.62061 0.0
C295 C 0.54797 0.15584 0.63912 0.0
C296 C 0.54493 0.15685 0.68535 0.0
C297 C 0.59909 0.16601 0.69468 0.0
H298 H 0.5222 0.15376 0.69906 0.0
H299 H 0.6197 0.17053 0.71525 0.0
H300 H 0.587 0.22122 0.84271 0.0
H301 H 0.54738 0.11726 0.85253 0.0
C302 C 0.49235 0.1494 0.78898 0.0
C303 C 0.59319 0.24491 0.73993 0.0
C304 C 0.54246 0.08124 0.76913 0.0
C305 C 0.64316 0.18444 0.80132 0.0
H306 H 0.53718 0.25588 0.7428 0.0
H307 H 0.48255 0.20447 0.77418 0.0
H308 H 0.44374 0.0804 0.79077 0.0
H309 H 0.47116 0.04345 0.7753 0.0
H310 H 0.59824 0.07239 0.78915 0.0
H311 H 0.65276 0.12834 0.81096 0.0
H312 H 0.69172 0.25339 0.78821 0.0
H313 H 0.66424 0.28556 0.75035 0.0
H314 H 0.59744 0.22696 0.92285 0.0
H315 H 0.55598 0.12133 0.93193 0.0
H316 H 0.62586 0.16734 0.63668 0.0
H317 H 0.52775 0.15259 0.61818 0.0
C318 C 0.47003 0.68032 0.63209 0.0
C319 C 0.49359 0.71378 0.63292 0.0
C320 C 0.5223 0.71656 0.61667 0.0
C321 C 0.5148 0.68479 0.6071 0.0
N322 N 0.48318 0.66225 0.61633 0.0
Co323 Co 0.46244 0.61371 0.6087 0.0
N324 N 0.50612 0.61613 0.60834 0.0
C325 C 0.53543 0.64358 0.60063 0.0
C326 C 0.56152 0.63785 0.60147 0.0
C327 C 0.54774 0.60466 0.60977 0.0
C328 C 0.51384 0.59191 0.61358 0.0
N329 N 0.44185 0.5652 0.60016 0.0
C330 C 0.45492 0.54509 0.60511 0.0
C331 C 0.43166 0.51267 0.59454 0.0
C332 C 0.40344 0.51279 0.5819 0.0
C333 C 0.41084 0.54514 0.58549 0.0
N334 N 0.41905 0.61182 0.60994 0.0
C335 C 0.39038 0.58683 0.59465 0.0
C336 C 0.36431 0.59223 0.6015 0.0
C337 C 0.37762 0.62251 0.62229 0.0
C338 C 0.41111 0.63389 0.62707 0.0
N339 N 0.46428 0.619 0.54384 0.0
C340 C 0.45442 0.61465 0.45167 0.0
C341 C 0.44562 0.63394 0.47769 0.0
C342 C 0.45128 0.63625 0.52361 0.0
C343 C 0.46979 0.59908 0.47244 0.0
C344 C 0.47448 0.60154 0.51829 0.0
N345 N 0.45931 0.6073 0.6729 0.0
C346 C 0.42582 0.57713 0.73547 0.0
C347 C 0.45064 0.59814 0.76467 0.0
C348 C 0.48054 0.62338 0.74696 0.0
C349 C 0.4844 0.62754 0.7008 0.0
C350 C 0.43051 0.58225 0.69009 0.0
H351 H 0.50737 0.64724 0.68764 0.0
H352 H 0.4104 0.56597 0.66896 0.0
H353 H 0.44378 0.6508 0.54302 0.0
H354 H 0.48484 0.58778 0.53319 0.0
C355 C 0.53789 0.6747 0.59881 0.0
C356 C 0.43526 0.66655 0.64506 0.0
C357 C 0.48971 0.55634 0.61661 0.0
C358 C 0.38823 0.55671 0.5824 0.0
H359 H 0.49063 0.73407 0.64452 0.0
H360 H 0.54622 0.73887 0.61459 0.0
H361 H 0.58751 0.65576 0.59747 0.0
H362 H 0.56108 0.59128 0.61171 0.0
H363 H 0.43481 0.49122 0.59555 0.0
H364 H 0.38002 0.4916 0.5726 0.0
H365 H 0.33849 0.57554 0.59417 0.0
H366 H 0.36432 0.63482 0.63271 0.0
H367 H 0.43403 0.6467 0.46276 0.0
H368 H 0.47682 0.58378 0.45365 0.0
H369 H 0.40277 0.55668 0.74756 0.0
H370 H 0.50049 0.64002 0.76854 0.0
C371 C 0.8034 0.46782 0.96561 0.0
C372 C 0.79398 0.49173 0.96535 0.0
C373 C 0.82009 0.51994 0.94814 0.0
C374 C 0.84394 0.51178 0.93902 0.0
N375 N 0.83441 0.4802 0.9494 0.0
Co376 Co 0.86135 0.45853 0.9424 0.0
N377 N 0.90305 0.50182 0.94073 0.0
C378 C 0.90551 0.53132 0.93226 0.0
C379 C 0.93754 0.55705 0.93268 0.0
C380 C 0.95644 0.54282 0.94153 0.0
C381 C 0.93479 0.50902 0.94598 0.0
N382 N 0.88835 0.43697 0.93438 0.0
C383 C 0.92145 0.44958 0.93884 0.0
C384 C 0.92999 0.42586 0.92833 0.0
C385 C 0.90125 0.39773 0.91642 0.0
C386 C 0.87673 0.40568 0.92031 0.0
N387 N 0.81938 0.41555 0.94511 0.0
C388 C 0.81493 0.3864 0.93051 0.0
C389 C 0.78325 0.36085 0.93804 0.0
C390 C 0.76698 0.37501 0.95857 0.0
C391 C 0.78968 0.40847 0.9625 0.0
N392 N 0.8575 0.4593 0.87742 0.0
C393 C 0.85146 0.44421 0.78649 0.0
C394 C 0.8236 0.43752 0.81195 0.0
C395 C 0.8272 0.44557 0.8573 0.0
C396 C 0.88257 0.46179 0.80661 0.0
C397 C 0.88504 0.46888 0.85184 0.0
N398 N 0.86523 0.45644 1.00668 0.0
C399 C 0.86434 0.42469 0.07009 0.0
C400 C 0.87006 0.45066 0.09824 0.0
C401 C 0.87311 0.47972 0.0799 0.0
C402 C 0.871 0.48227 0.03376 0.0
C403 C 0.86174 0.42794 1.02472 0.0
H404 H 0.87383 0.50491 1.01996 0.0
H405 H 0.85662 0.40706 1.00429 0.0
H406 H 0.80525 0.43887 0.87659 0.0
H407 H 0.90929 0.48027 0.86643 0.0
C408 C 0.87721 0.53436 0.93016 0.0
C409 C 0.78212 0.43342 0.98001 0.0
C410 C 0.94551 0.48438 0.94962 0.0
C411 C 0.84239 0.38346 0.91799 0.0
H412 H 0.77089 0.48924 0.97681 0.0
H413 H 0.8221 0.544 0.94511 0.0
H414 H 0.94612 0.58312 0.92811 0.0
H415 H 0.98316 0.55577 0.94342 0.0
H416 H 0.95444 0.4287 0.92879 0.0
H417 H 0.8985 0.37404 0.90736 0.0
H418 H 0.77352 0.33483 0.93127 0.0
H419 H 0.74144 0.3623 0.96933 0.0
H420 H 0.79908 0.42465 0.79759 0.0
H421 H 0.90495 0.4689 0.78791 0.0
H422 H 0.86123 0.40165 0.08319 0.0
H423 H 0.87733 0.50025 0.10097 0.0
C424 C 0.34567 0.79468 0.29927 0.0
C425 C 0.3123 0.785 0.29986 0.0
C426 C 0.30979 0.81101 0.28322 0.0
C427 C 0.34161 0.83513 0.27367 0.0
N428 N 0.36396 0.82589 0.2833 0.0
Co429 Co 0.41253 0.8535 0.27582 0.0
N430 N 0.41036 0.89493 0.27436 0.0
C431 C 0.38305 0.89694 0.26645 0.0
C432 C 0.38891 0.92884 0.26704 0.0
C433 C 0.42205 0.94816 0.27541 0.0
C434 C 0.43465 0.92687 0.27934 0.0
N435 N 0.46106 0.88119 0.2675 0.0
C436 C 0.48123 0.9144 0.27197 0.0
C437 C 0.51354 0.92346 0.26105 0.0
C438 C 0.51334 0.89494 0.24901 0.0
C439 C 0.48102 0.87003 0.25314 0.0
N440 N 0.41421 0.81185 0.27809 0.0
C441 C 0.43917 0.80795 0.26318 0.0
C442 C 0.43355 0.7764 0.27032 0.0
C443 C 0.40315 0.75958 0.29087 0.0
C444 C 0.39191 0.78186 0.29522 0.0
N445 N 0.40758 0.84957 0.21097 0.0
C446 C 0.41303 0.84309 0.11924 0.0
C447 C 0.39298 0.81534 0.14555 0.0
C448 C 0.39023 0.81916 0.19125 0.0
C449 C 0.42833 0.87429 0.13934 0.0
C450 C 0.42536 0.87699 0.18501 0.0
N451 N 0.41861 0.8573 0.34004 0.0
C452 C 0.44897 0.85542 0.40321 0.0
C453 C 0.4284 0.86042 0.4319 0.0
C454 C 0.40273 0.86404 0.41354 0.0
C455 C 0.39839 0.86264 0.36737 0.0
C456 C 0.44357 0.85374 0.35781 0.0
H457 H 0.37859 0.86548 0.35377 0.0
H458 H 0.45966 0.84928 0.33712 0.0
H459 H 0.37531 0.79731 0.21095 0.0
H460 H 0.43905 0.90126 0.19949 0.0
C461 C 0.3519 0.86834 0.26491 0.0
C462 C 0.35913 0.77346 0.31262 0.0
C463 C 0.47012 0.93813 0.28279 0.0
C464 C 0.46935 0.83577 0.25062 0.0
H465 H 0.29188 0.76181 0.31152 0.0
H466 H 0.28759 0.81277 0.28083 0.0
H467 H 0.37111 0.93704 0.263 0.0
H468 H 0.4355 0.9749 0.27748 0.0
H469 H 0.5349 0.94813 0.26127 0.0
H470 H 0.53444 0.89258 0.23962 0.0
H471 H 0.45013 0.76708 0.26322 0.0
H472 H 0.39064 0.73394 0.30132 0.0
H473 H 0.38005 0.79082 0.1311 0.0
H474 H 0.44389 0.89643 0.12024 0.0
H475 H 0.4693 0.85285 0.41573 0.0
H476 H 0.38583 0.86739 0.43457 0.0
C477 C 0.55769 0.33915 0.62967 0.0
C478 C 0.53333 0.30597 0.62924 0.0
C479 C 0.50545 0.30457 0.61223 0.0
C480 C 0.51419 0.33683 0.60347 0.0
N481 N 0.54582 0.35841 0.61392 0.0
Co482 Co 0.56812 0.40724 0.60805 0.0
N483 N 0.52519 0.4064 0.60498 0.0
C484 C 0.49571 0.37968 0.59554 0.0
C485 C 0.47021 0.38627 0.59588 0.0
C486 C 0.48454 0.41927 0.60565 0.0
C487 C 0.51822 0.4311 0.61047 0.0
N488 N 0.5904 0.45608 0.60258 0.0
C489 C 0.57808 0.47683 0.60781 0.0
C490 C 0.60237 0.50933 0.5996 0.0
C491 C 0.63061 0.50869 0.58852 0.0
C492 C 0.62212 0.47594 0.59052 0.0
N493 N 0.61072 0.40737 0.61031 0.0
C494 C 0.64011 0.43212 0.59632 0.0
C495 C 0.66527 0.42531 0.60291 0.0
C496 C 0.65063 0.39436 0.62211 0.0
C497 C 0.61731 0.38404 0.62632 0.0
N498 N 0.56829 0.40386 0.54304 0.0
C499 C 0.57976 0.4096 0.45125 0.0
C500 C 0.58679 0.38881 0.47687 0.0
C501 C 0.5803 0.3858 0.52264 0.0
C502 C 0.56548 0.42615 0.47211 0.0
C503 C 0.56008 0.42308 0.51779 0.0
N504 N 0.56903 0.41196 0.67269 0.0
C505 C 0.60108 0.43597 0.73863 0.0
C506 C 0.57246 0.42396 0.76466 0.0
C507 C 0.54182 0.40542 0.74294 0.0
C508 C 0.54075 0.3986 0.69748 0.0
C509 C 0.59879 0.43099 0.6931 0.0
H510 H 0.51695 0.38328 0.6823 0.0
H511 H 0.62147 0.44307 0.6746 0.0
H512 H 0.58625 0.36992 0.54178 0.0
H513 H 0.55061 0.43757 0.53279 0.0
C514 C 0.49223 0.34812 0.59393 0.0
C515 C 0.59211 0.35144 0.64323 0.0
C516 C 0.543 0.46625 0.61614 0.0
C517 C 0.64381 0.46331 0.58665 0.0
H518 H 0.53533 0.28498 0.64028 0.0
H519 H 0.48125 0.28278 0.60884 0.0
H520 H 0.44414 0.36895 0.59118 0.0
H521 H 0.47165 0.43306 0.60844 0.0
H522 H 0.59975 0.53109 0.60073 0.0
H523 H 0.65461 0.52971 0.5808 0.0
H524 H 0.69138 0.44154 0.5967 0.0
H525 H 0.66297 0.38099 0.63206 0.0
H526 H 0.59752 0.37529 0.46174 0.0
H527 H 0.55975 0.44252 0.45347 0.0
H528 H 0.62556 0.44963 0.75288 0.0
H529 H 0.5186 0.39664 0.76002 0.0
C530 C 0.23153 0.55508 0.96456 0.0
C531 C 0.24048 0.5308 0.96531 0.0
C532 C 0.2143 0.5026 0.94853 0.0
C533 C 0.19069 0.51094 0.93895 0.0
N534 N 0.20036 0.54264 0.94876 0.0
Co535 Co 0.17309 0.56409 0.94222 0.0
N536 N 0.13145 0.52068 0.94024 0.0
C537 C 0.12913 0.49127 0.93175 0.0
C538 C 0.09718 0.4654 0.93226 0.0
C539 C 0.07813 0.47942 0.94121 0.0
C540 C 0.09963 0.51325 0.94554 0.0
N541 N 0.14577 0.58544 0.93488 0.0
C542 C 0.11263 0.5726 0.93949 0.0
C543 C 0.10386 0.59621 0.92935 0.0
C544 C 0.13249 0.62456 0.91768 0.0
C545 C 0.15717 0.6168 0.92124 0.0
N546 N 0.21492 0.60724 0.94498 0.0
C547 C 0.21904 0.63639 0.93079 0.0
C548 C 0.25066 0.66209 0.93778 0.0
C549 C 0.26734 0.64807 0.95744 0.0
C550 C 0.24491 0.61452 0.96145 0.0
N551 N 0.17703 0.56376 0.87726 0.0
C552 C 0.18332 0.5761 0.78554 0.0
C553 C 0.21108 0.58355 0.81156 0.0
C554 C 0.20734 0.57678 0.85726 0.0
C555 C 0.15223 0.56036 0.80595 0.0
C556 C 0.14962 0.55449 0.85158 0.0
N557 N 0.16913 0.56559 1.00655 0.0
C558 C 0.1704 0.59676 0.07071 0.0
C559 C 0.16459 0.57043 0.09838 0.0
C560 C 0.16091 0.54136 0.07929 0.0
C561 C 0.16303 0.53935 0.03309 0.0
C562 C 0.17282 0.59396 1.02518 0.0
H563 H 0.15992 0.51677 1.01881 0.0
H564 H 0.17799 0.61506 1.00512 0.0
H565 H 0.22918 0.58344 0.87672 0.0
H566 H 0.12543 0.544 0.86626 0.0
C567 C 0.15748 0.48839 0.93004 0.0
C568 C 0.25336 0.58982 0.97758 0.0
C569 C 0.08868 0.53767 0.94969 0.0
C570 C 0.19142 0.63919 0.91879 0.0
H571 H 0.26321 0.5328 0.97729 0.0
H572 H 0.21204 0.4784 0.94618 0.0
H573 H 0.08877 0.43935 0.92788 0.0
H574 H 0.05142 0.4663 0.94344 0.0
H575 H 0.0793 0.59312 0.92983 0.0
H576 H 0.13508 0.64824 0.90888 0.0
H577 H 0.26016 0.6881 0.93108 0.0
H578 H 0.29304 0.66093 0.96743 0.0
H579 H 0.23551 0.59502 0.79687 0.0
H580 H 0.13009 0.55401 0.78713 0.0
H581 H 0.1738 0.61976 0.08429 0.0
H582 H 0.15632 0.52042 0.09983 0.0
C583 C 0.68542 0.22468 0.29822 0.0
C584 C 0.71869 0.23396 0.29876 0.0
C585 C 0.72082 0.20766 0.28255 0.0
C586 C 0.68888 0.18375 0.2733 0.0
N587 N 0.66682 0.19342 0.28267 0.0
Co588 Co 0.61819 0.16615 0.27573 0.0
N589 N 0.61982 0.12442 0.2754 0.0
C590 C 0.64693 0.122 0.26767 0.0
C591 C 0.64071 0.08998 0.2688 0.0
C592 C 0.60754 0.07101 0.2773 0.0
C593 C 0.59529 0.0926 0.28087 0.0
N594 N 0.56961 0.13886 0.26774 0.0
C595 C 0.54915 0.1057 0.27248 0.0
C596 C 0.51691 0.09701 0.26173 0.0
C597 C 0.51749 0.12566 0.24929 0.0
C598 C 0.54993 0.15029 0.25315 0.0
N599 N 0.61709 0.20813 0.27718 0.0
C600 C 0.59232 0.21229 0.26222 0.0
C601 C 0.59829 0.24399 0.26898 0.0
C602 C 0.62871 0.26062 0.28939 0.0
C603 C 0.63962 0.23809 0.29403 0.0
N604 N 0.62282 0.1693 0.21071 0.0
C605 C 0.61337 0.17407 0.11957 0.0
C606 C 0.63434 0.20238 0.14437 0.0
C607 C 0.63904 0.19941 0.18984 0.0
C608 C 0.60035 0.14321 0.14044 0.0
C609 C 0.60512 0.14136 0.18577 0.0
N610 N 0.61219 0.16294 0.34 0.0
C611 C 0.58121 0.16428 0.40288 0.0
C612 C 0.60132 0.15867 0.43145 0.0
C613 C 0.62739 0.15558 0.41361 0.0
C614 C 0.6322 0.15743 0.36751 0.0
C615 C 0.58718 0.16657 0.35755 0.0
H616 H 0.65202 0.15452 0.3541 0.0
H617 H 0.57145 0.17148 0.33675 0.0
H618 H 0.65413 0.22167 0.20861 0.0
H619 H 0.59253 0.11725 0.20091 0.0
C620 C 0.67822 0.15037 0.26541 0.0
C621 C 0.67231 0.24621 0.31145 0.0
C622 C 0.55986 0.08168 0.28367 0.0
C623 C 0.56197 0.1846 0.25009 0.0
H624 H 0.73929 0.25704 0.31025 0.0
H625 H 0.74282 0.20554 0.28038 0.0
H626 H 0.65828 0.08147 0.26483 0.0
H627 H 0.59381 0.04427 0.27947 0.0
H628 H 0.49532 0.07249 0.26234 0.0
H629 H 0.49657 0.12828 0.23984 0.0
H630 H 0.58191 0.25353 0.26178 0.0
H631 H 0.64145 0.28629 0.29958 0.0
H632 H 0.64563 0.22674 0.12941 0.0
H633 H 0.58531 0.1205 0.12226 0.0
H634 H 0.56124 0.16742 0.4156 0.0
H635 H 0.64358 0.15144 0.43503 0.0
C636 C 0.40498 0.5872 0.34404 0.0
C637 C 0.42887 0.59085 0.31254 0.0
C638 C 0.41359 0.59623 0.38871 0.0
C639 C 0.44639 0.6092 0.40349 0.0
H640 H 0.37928 0.57629 0.33446 0.0
H641 H 0.39424 0.59188 0.41217 0.0
S642 S 0.51898 0.62825 0.33329 0.0
N643 N 0.48741 0.61193 0.29866 0.0
N644 N 0.50324 0.62813 0.38237 0.0
C645 C 0.47067 0.61435 0.37199 0.0
C646 C 0.46202 0.60541 0.32664 0.0
C647 C 0.82752 0.42666 0.66394 0.0
C648 C 0.84661 0.41287 0.64902 0.0
C649 C 0.82845 0.43603 0.70859 0.0
C650 C 0.84849 0.43191 0.73994 0.0
H651 H 0.8128 0.43146 0.64058 0.0
H652 H 0.81428 0.44761 0.71826 0.0
S653 S 0.89916 0.39228 0.71882 0.0
N654 N 0.88352 0.39266 0.66989 0.0
N655 N 0.88479 0.40942 0.75354 0.0
C656 C 0.86624 0.41647 0.72572 0.0
C657 C 0.86544 0.4072 0.6804 0.0
C658 C 0.42485 0.86043 0.9953 0.0
C659 C 0.43808 0.84076 0.98053 0.0
C660 C 0.41589 0.86023 0.03977 0.0
C661 C 0.41933 0.84004 0.07145 0.0
H662 H 0.42155 0.8764 0.97231 0.0
H663 H 0.40645 0.87629 0.04954 0.0
S664 S 0.45256 0.78379 0.05068 0.0
N665 N 0.45413 0.80045 1.00173 0.0
N666 N 0.4367 0.79967 0.08514 0.0
C667 C 0.43167 0.81956 0.05714 0.0
C668 C 0.44112 0.81997 1.01179 0.0
C669 C 0.63003 0.43934 0.34451 0.0
C670 C 0.60607 0.43505 0.31274 0.0
C671 C 0.62121 0.42964 0.389 0.0
C672 C 0.58816 0.4154 0.40329 0.0
H673 H 0.6559 0.45127 0.3353 0.0
H674 H 0.64052 0.4345 0.41272 0.0
S675 S 0.51549 0.39439 0.33251 0.0
N676 N 0.54728 0.41189 0.2982 0.0
N677 N 0.53117 0.39481 0.38172 0.0
C678 C 0.56388 0.40965 0.37161 0.0
C679 C 0.57271 0.41915 0.32642 0.0
C680 C 0.16513 0.57082 0.66193 0.0
C681 C 0.1849 0.60372 0.64701 0.0
C682 C 0.16563 0.56198 0.70629 0.0
C683 C 0.18621 0.58551 0.73775 0.0
H684 H 0.14885 0.55163 0.63914 0.0
H685 H 0.14945 0.53649 0.71619 0.0
S686 S 0.243 0.67491 0.71647 0.0
N687 N 0.22583 0.65995 0.66779 0.0
N688 N 0.22713 0.64313 0.751 0.0
C689 C 0.20682 0.6183 0.72324 0.0
C690 C 0.20613 0.62743 0.67799 0.0
C691 C 0.62753 0.19654 0.04127 0.0
C692 C 0.6037 0.17631 0.07293 0.0
C693 C 0.6188 0.19697 0.99663 0.0
C694 C 0.58595 0.17715 0.98203 0.0
H695 H 0.65326 0.21132 0.05071 0.0
H696 H 0.63809 0.21196 0.97307 0.0
S697 S 0.51349 0.12364 0.05257 0.0
N698 N 0.54515 0.13892 0.08707 0.0
N699 N 0.52915 0.13922 1.00341 0.0
C700 C 0.56175 0.15802 1.01365 0.0
C701 C 0.5705 0.15775 0.05897 0.0
C702 C 0.33684 0.59669 1.00088 0.0
C703 C 0.34027 0.6019 0.04698 0.0
C704 C 0.31038 0.59609 0.97763 0.0
C705 C 0.28576 0.59963 0.99988 0.0
H706 H 0.35355 0.59097 0.98314 0.0
H707 H 0.30772 0.59023 0.94258 0.0
S708 S 0.28585 0.61822 0.11923 0.0
N709 N 0.31899 0.6145 0.11301 0.0
N710 N 0.26875 0.6123 0.06965 0.0
C711 C 0.29036 0.60739 0.04525 0.0
C712 C 0.31763 0.60861 0.06877 0.0
C713 C 0.74733 0.33069 0.33572 0.0
C714 C 0.74757 0.33191 0.38235 0.0
C715 C 0.72116 0.30441 0.31249 0.0
C716 C 0.69458 0.27806 0.33511 0.0
H717 H 0.7685 0.34905 0.31721 0.0
H718 H 0.72295 0.3034 0.27677 0.0
S719 S 0.68215 0.27104 0.45681 0.0
N720 N 0.71754 0.30594 0.45 0.0
N721 N 0.669 0.25624 0.40653 0.0
C722 C 0.69354 0.28013 0.38149 0.0
C723 C 0.71989 0.30709 0.40507 0.0
C724 C 0.42433 0.74045 0.67007 0.0
C725 C 0.42467 0.74122 0.71672 0.0
C726 C 0.42432 0.71428 0.64669 0.0
C727 C 0.42522 0.68823 0.66917 0.0
H728 H 0.42632 0.7613 0.65157 0.0
H729 H 0.42626 0.71574 0.61086 0.0
S730 S 0.42349 0.67724 0.79096 0.0
N731 N 0.42297 0.71216 0.78437 0.0
N732 N 0.42396 0.66366 0.74053 0.0
C733 C 0.42334 0.68763 0.71565 0.0
C734 C 0.42283 0.71396 0.73942 0.0
C735 C 0.72557 0.42762 0.07446 0.0
C736 C 0.69861 0.4266 0.05206 0.0
C737 C 0.75136 0.42691 0.05105 0.0
C738 C 0.75083 0.42459 1.0045 0.0
H739 H 0.72784 0.43129 0.11003 0.0
H740 H 0.77281 0.43025 0.06925 0.0
S741 S 0.68444 0.41829 0.93079 0.0
N742 N 0.67198 0.42105 0.9811 0.0
N743 N 0.71992 0.41897 0.93727 0.0
C744 C 0.72288 0.4212 0.98211 0.0
C745 C 0.69688 0.42235 1.00587 0.0
C746 C 0.2848 0.68848 0.33653 0.0
C747 C 0.28366 0.68765 0.38318 0.0
C748 C 0.31116 0.71482 0.31352 0.0
C749 C 0.33705 0.74157 0.33637 0.0
H750 H 0.26408 0.66983 0.31774 0.0
H751 H 0.30999 0.71559 0.27769 0.0
S752 S 0.34705 0.74987 0.4583 0.0
N753 N 0.31217 0.71452 0.45121 0.0
N754 N 0.36105 0.76429 0.40806 0.0
C755 C 0.33727 0.7399 0.38285 0.0
C756 C 0.31073 0.71289 0.40624 0.0
C757 C 0.60354 0.30337 0.73705 0.0
C758 C 0.60209 0.27607 0.71495 0.0
C759 C 0.60281 0.32909 0.71337 0.0
C760 C 0.60099 0.32861 0.66678 0.0
H761 H 0.60282 0.30362 0.77295 0.0
H762 H 0.60166 0.34845 0.73172 0.0
S763 S 0.60013 0.26453 0.59329 0.0
N764 N 0.60116 0.25141 0.64388 0.0
N765 N 0.60067 0.30001 0.59942 0.0
C766 C 0.60202 0.30272 0.64431 0.0
C767 C 0.60236 0.2764 0.6684 0.0
C768 C 0.50273 0.51438 0.06242 0.0
C769 C 0.49378 0.52351 0.1023 0.0
C770 C 0.52335 0.50031 0.0624 0.0
C771 C 0.53514 0.49437 0.10231 0.0
H772 H 0.49383 0.51826 0.0311 0.0
H773 H 0.53044 0.49439 0.03102 0.0
S774 S 0.51815 0.51309 0.21546 0.0
N775 N 0.49779 0.52506 0.18258 0.0
N776 N 0.53626 0.4986 0.18255 0.0
C777 C 0.52596 0.50301 0.14231 0.0
C778 C 0.50531 0.51753 0.14231 0.0
C779 C 0.9965 0.50631 0.47467 0.0
C780 C 0.97971 0.49008 0.43563 0.0
C781 C 0.0311 0.52687 0.47523 0.0
C782 C 0.05024 0.53183 0.43684 0.0
H783 H 0.98277 0.50278 0.5051 0.0
H784 H 0.04303 0.53922 0.50581 0.0
S785 S 0.01852 0.49393 0.32689 0.0
N786 N 0.98502 0.47948 0.35816 0.0
N787 N 0.04998 0.51831 0.35918 0.0
C788 C 0.03386 0.51542 0.39787 0.0
C789 C 0.99864 0.49448 0.39729 0.0
C790 C 0.52019 0.02652 0.72957 0.0
C791 C 0.53036 0.04484 0.76922 0.0
C792 C 0.5061 0.9918 0.72974 0.0
C793 C 0.5012 0.97426 0.76965 0.0
H794 H 0.52304 0.03913 0.6983 0.0
H795 H 0.49907 0.97858 0.69853 0.0
S796 S 0.52256 1.01052 0.88232 0.0
N797 N 0.53384 0.04274 0.84934 0.0
N798 N 0.50736 0.97774 0.84967 0.0
C799 C 0.51097 0.9923 0.80943 0.0
C800 C 0.5255 0.02751 0.80922 0.0
C801 C 0.50472 0.51774 0.57813 0.0
C802 C 0.50247 0.53257 0.61761 0.0
C803 C 0.5189 0.4973 0.57767 0.0
C804 C 0.53142 0.49096 0.61666 0.0
H805 H 0.49564 0.52219 0.54733 0.0
H806 H 0.51965 0.4859 0.54674 0.0
S807 S 0.53296 0.52507 0.72801 0.0
N808 N 0.51523 0.54062 0.69617 0.0
N809 N 0.54142 0.5018 0.69539 0.0
C810 C 0.52987 0.50608 0.65609 0.0
C811 C 0.51553 0.52699 0.65653 0.0
C812 C 0.03469 0.51994 0.98927 0.0
C813 C 0.05232 0.52544 0.94934 0.0
C814 C 1.00002 0.50596 0.98934 0.0
C815 C 0.98186 0.4965 0.94955 0.0
H816 H 0.04778 0.52636 1.02057 0.0
H817 H 0.98733 0.5026 1.02064 0.0
S818 S 0.01644 0.50591 0.83637 0.0
N819 N 0.04908 0.52053 0.86917 0.0
N820 N 0.98418 0.49423 0.86932 0.0
C821 C 0.99927 0.50195 0.90953 0.0
C822 C 0.03443 0.51637 0.90943 0.0
C823 C 0.50641 0.99201 0.32265 0.0
C824 C 0.49411 0.97462 0.28265 0.0
C825 C 0.5271 0.02673 0.32296 0.0
C826 C 0.53569 0.04522 0.28334 0.0
H827 H 0.49987 0.97869 0.35385 0.0
H828 H 0.53654 0.03922 0.35433 0.0
S829 S 0.51009 0.01134 0.17001 0.0
N830 N 0.49217 0.97844 0.20257 0.0
N831 N 0.53082 0.04341 0.20315 0.0
C832 C 0.52356 0.02803 0.24324 0.0
C833 C 0.5028 0.99282 0.2429 0.0
C834 C 0.46868 0.59131 0.84034 0.0
C835 C 0.44501 0.59286 0.81321 0.0
C836 C 0.46275 0.5841 0.88573 0.0
C837 C 0.43285 0.57789 0.90539 0.0
H838 H 0.49169 0.59517 0.82628 0.0
H839 H 0.48165 0.58332 0.90565 0.0
S840 S 0.36433 0.58217 0.85016 0.0
N841 N 0.39152 0.58999 0.81024 0.0
N842 N 0.38034 0.57581 0.89536 0.0
C843 C 0.40924 0.57984 0.87895 0.0
C844 C 0.41535 0.58751 0.83291 0.0
C845 C 0.84564 0.43879 0.21941 0.0
C846 C 0.86857 0.43129 0.23898 0.0
C847 C 0.84707 0.4463 0.17417 0.0
C848 C 0.87123 0.44621 0.14664 0.0
H849 H 0.82613 0.43853 0.23915 0.0
H850 H 0.82861 0.45133 0.16038 0.0
S851 S 0.93784 0.42972 0.18093 0.0
N852 N 0.9171 0.42576 0.22709 0.0
N853 N 0.91897 0.43874 0.14164 0.0
C854 C 0.89432 0.43885 0.16548 0.0
C855 C 0.89315 0.43159 0.21169 0.0
C856 C 0.44831 0.83892 0.54516 0.0
C857 C 0.44859 0.86321 0.5728 0.0
C858 C 0.44099 0.83783 0.49993 0.0
C859 C 0.43408 0.86125 0.48054 0.0
H860 H 0.45296 0.82014 0.55884 0.0
H861 H 0.44051 0.81828 0.48002 0.0
S862 S 0.43347 0.93089 0.53894 0.0
N863 N 0.44199 0.91151 0.5781 0.0
N864 N 0.4293 0.91023 0.49268 0.0
C865 C 0.43464 0.88589 0.50795 0.0
C866 C 0.44173 0.88673 0.55413 0.0
C867 C 0.60341 0.46039 0.82969 0.0
C868 C 0.57564 0.43132 0.81359 0.0
C869 C 0.60997 0.46616 0.87508 0.0
C870 C 0.58817 0.44413 0.9071 0.0
H871 H 0.621 0.47888 0.80715 0.0
H872 H 0.63298 0.4877 0.88476 0.0
S873 S 0.50776 0.36808 0.88376 0.0
N874 N 0.52457 0.38143 0.83452 0.0
N875 N 0.534 0.39534 0.91932 0.0
C876 C 0.55842 0.41679 0.89173 0.0
C877 C 0.55276 0.40974 0.84532 0.0
C878 C 0.14253 0.58455 0.16547 0.0
C879 C 0.16375 0.57445 0.147 0.0
C880 C 0.14333 0.59132 0.21094 0.0
C881 C 0.1657 0.58866 0.2395 0.0
H882 H 0.12517 0.58723 0.14453 0.0
H883 H 0.12605 0.59832 0.22384 0.0
S884 S 0.22834 0.56572 0.20642 0.0
N885 N 0.20838 0.56315 0.16009 0.0
N886 N 0.21115 0.57728 0.24503 0.0
C887 C 0.18752 0.57919 0.22105 0.0
C888 C 0.1862 0.57169 0.17498 0.0
C889 C 0.61287 0.1823 0.55279 0.0
C890 C 0.58231 0.15911 0.57192 0.0
C891 C 0.61931 0.18121 0.50763 0.0
C892 C 0.59525 0.15729 0.47972 0.0
H893 H 0.632 0.20161 0.57286 0.0
H894 H 0.64298 0.19965 0.49424 0.0
S895 S 0.51186 0.09031 0.51273 0.0
N896 N 0.52829 0.11065 0.55919 0.0
N897 N 0.54005 0.10957 0.47384 0.0
C898 C 0.56462 0.13404 0.49808 0.0
C899 C 0.55819 0.13479 0.54423 0.0
loop_
_geom_bond_atom_site_label_1
_geom_bond_atom_site_label_2
_geom_bond_distance
_geom_bond_site_symmetry_2
_ccdc_geom_bond_type
C0 C1 1.443 . S
C0 N4 1.376 . S
C0 C38 1.389 . S
C1 C0 1.443 . S
C1 C2 1.340 . S
C1 H41 0.951 . S
C2 C1 1.340 . S
C2 C3 1.439 . S
C2 H42 0.950 . S
C3 C2 1.439 . S
C3 N4 1.374 . S
C3 C37 1.395 . S
N4 C0 1.376 . S
N4 C3 1.374 . S
N4 Co5 2.008 . S
Co5 N4 2.008 . S
Co5 N6 1.995 . S
Co5 N11 2.008 . S
Co5 N16 1.995 . S
Co5 N21 2.282 . S
Co5 N27 2.282 . S
N6 Co5 1.995 . S
N6 C7 1.376 . S
N6 C10 1.383 . S
C7 N6 1.376 . S
C7 C8 1.446 . S
C7 C37 1.391 . S
C8 C7 1.446 . S
C8 C9 1.339 . S
C8 H43 0.949 . S
C9 C8 1.339 . S
C9 C10 1.439 . S
C9 H44 0.950 . S
C10 N6 1.383 . S
C10 C9 1.439 . S
C10 C39 1.392 . S
N11 Co5 2.008 . S
N11 C12 1.376 . S
N11 C15 1.374 . S
C12 N11 1.376 . S
C12 C13 1.443 . S
C12 C39 1.389 . S
C13 C12 1.443 . S
C13 C14 1.340 . S
C13 H45 0.951 . S
C14 C13 1.340 . S
C14 C15 1.439 . S
C14 H46 0.950 . S
C15 N11 1.374 . S
C15 C14 1.439 . S
C15 C40 1.395 . S
N16 Co5 1.995 . S
N16 C17 1.376 . S
N16 C20 1.383 . S
C17 N16 1.376 . S
C17 C18 1.446 . S
C17 C40 1.391 . S
C18 C17 1.446 . S
C18 C19 1.339 . S
C18 H47 0.949 . S
C19 C18 1.339 . S
C19 C20 1.439 . S
C19 H48 0.950 . S
C20 N16 1.383 . S
C20 C19 1.439 . S
C20 C38 1.392 . S
N21 Co5 2.282 . S
N21 C24 1.332 . S
N21 C26 1.332 . S
C22 C23 1.386 . S
C22 C25 1.388 . S
C23 C22 1.386 . S
C23 C24 1.382 . S
C23 H49 0.950 . S
C24 N21 1.332 . S
C24 C23 1.382 . S
C24 H35 0.952 . S
C25 C22 1.388 . S
C25 C26 1.382 . S
C25 H50 0.950 . S
C26 N21 1.332 . S
C26 C25 1.382 . S
C26 H36 0.948 . S
N27 Co5 2.282 . S
N27 C31 1.332 1_554 S
N27 C32 1.332 1_554 S
C28 C29 1.388 . S
C28 C32 1.382 . S
C28 H51 0.950 . S
C29 C28 1.388 . S
C29 C30 1.386 . S
C30 C29 1.386 . S
C30 C31 1.382 . S
C30 H52 0.950 . S
C31 N27 1.332 1_556 S
C31 C30 1.382 . S
C31 H33 0.965 . S
C32 N27 1.332 1_556 S
C32 C28 1.382 . S
C32 H34 0.939 1_556 S
H33 C31 0.965 . S
H34 C32 0.939 1_554 S
H35 C24 0.952 . S
H36 C26 0.948 . S
C37 C3 1.395 . S
C37 C7 1.391 . S
C38 C0 1.389 . S
C38 C20 1.392 . S
C39 C10 1.392 . S
C39 C12 1.389 . S
C40 C15 1.395 . S
C40 C17 1.391 . S
H41 C1 0.951 . S
H42 C2 0.950 . S
H43 C8 0.949 . S
H44 C9 0.950 . S
H45 C13 0.951 . S
H46 C14 0.950 . S
H47 C18 0.949 . S
H48 C19 0.950 . S
H49 C23 0.950 . S
H50 C25 0.950 . S
H51 C28 0.950 . S
H52 C30 0.950 . S
C53 C54 1.443 . S
C53 N57 1.376 . S
C53 C91 1.389 . S
C54 C53 1.443 . S
C54 C55 1.340 . S
C54 H94 0.951 . S
C55 C54 1.340 . S
C55 C56 1.439 . S
C55 H95 0.950 . S
C56 C55 1.439 . S
C56 N57 1.374 . S
C56 C90 1.395 . S
N57 C53 1.376 . S
N57 C56 1.374 . S
N57 Co58 2.008 . S
Co58 N57 2.008 . S
Co58 N59 1.995 . S
Co58 N64 2.008 . S
Co58 N69 1.995 . S
Co58 N74 2.282 . S
Co58 N80 2.282 . S
N59 Co58 1.995 . S
N59 C60 1.376 . S
N59 C63 1.383 . S
C60 N59 1.376 . S
C60 C61 1.446 . S
C60 C90 1.391 . S
C61 C60 1.446 . S
C61 C62 1.339 . S
C61 H96 0.949 . S
C62 C61 1.339 . S
C62 C63 1.439 . S
C62 H97 0.950 . S
C63 N59 1.383 . S
C63 C62 1.439 . S
C63 C92 1.392 . S
N64 Co58 2.008 . S
N64 C65 1.376 . S
N64 C68 1.374 . S
C65 N64 1.376 . S
C65 C66 1.443 . S
C65 C92 1.389 . S
C66 C65 1.443 . S
C66 C67 1.340 . S
C66 H98 0.951 . S
C67 C66 1.340 . S
C67 C68 1.439 . S
C67 H99 0.950 . S
C68 N64 1.374 . S
C68 C67 1.439 . S
C68 C93 1.395 . S
N69 Co58 1.995 . S
N69 C70 1.376 . S
N69 C73 1.383 . S
C70 N69 1.376 . S
C70 C71 1.446 . S
C70 C93 1.391 . S
C71 C70 1.446 . S
C71 C72 1.339 . S
C71 H100 0.949 . S
C72 C71 1.339 . S
C72 C73 1.439 . S
C72 H101 0.950 . S
C73 N69 1.383 . S
C73 C72 1.439 . S
C73 C91 1.392 . S
N74 Co58 2.282 . S
N74 C77 1.332 . S
N74 C79 1.332 . S
C75 C76 1.386 . S
C75 C78 1.388 . S
C76 C75 1.386 . S
C76 C77 1.382 . S
C76 H102 0.950 . S
C77 N74 1.332 . S
C77 C76 1.382 . S
C77 H88 0.952 . S
C78 C75 1.388 . S
C78 C79 1.382 . S
C78 H103 0.950 . S
C79 N74 1.332 . S
C79 C78 1.382 . S
C79 H89 0.948 . S
N80 Co58 2.282 . S
N80 C84 1.332 . S
N80 C85 1.332 . S
C81 C82 1.388 . S
C81 C85 1.382 . S
C81 H104 0.950 . S
C82 C81 1.388 . S
C82 C83 1.386 . S
C83 C82 1.386 . S
C83 C84 1.382 . S
C83 H105 0.950 . S
C84 N80 1.332 . S
C84 C83 1.382 . S
C84 H86 0.952 . S
C85 N80 1.332 . S
C85 C81 1.382 . S
C85 H87 0.948 . S
H86 C84 0.952 . S
H87 C85 0.948 . S
H88 C77 0.952 . S
H89 C79 0.948 . S
C90 C56 1.395 . S
C90 C60 1.391 . S
C91 C53 1.389 . S
C91 C73 1.392 . S
C92 C63 1.392 . S
C92 C65 1.389 . S
C93 C68 1.395 . S
C93 C70 1.391 . S
H94 C54 0.951 . S
H95 C55 0.950 . S
H96 C61 0.949 . S
H97 C62 0.950 . S
H98 C66 0.951 . S
H99 C67 0.950 . S
H100 C71 0.949 . S
H101 C72 0.950 . S
H102 C76 0.950 . S
H103 C78 0.950 . S
H104 C81 0.950 . S
H105 C83 0.950 . S
C106 C107 1.443 . S
C106 N110 1.376 . S
C106 C144 1.389 . S
C107 C106 1.443 . S
C107 C108 1.340 . S
C107 H147 0.951 . S
C108 C107 1.340 . S
C108 C109 1.439 . S
C108 H148 0.950 . S
C109 C108 1.439 . S
C109 N110 1.374 . S
C109 C143 1.395 . S
N110 C106 1.376 . S
N110 C109 1.374 . S
N110 Co111 2.008 . S
Co111 N110 2.008 . S
Co111 N112 1.995 . S
Co111 N117 2.008 . S
Co111 N122 1.995 . S
Co111 N127 2.282 . S
Co111 N133 2.282 . S
N112 Co111 1.995 . S
N112 C113 1.376 . S
N112 C116 1.383 . S
C113 N112 1.376 . S
C113 C114 1.446 . S
C113 C143 1.391 . S
C114 C113 1.446 . S
C114 C115 1.339 . S
C114 H149 0.949 . S
C115 C114 1.339 . S
C115 C116 1.439 . S
C115 H150 0.950 . S
C116 N112 1.383 . S
C116 C115 1.439 . S
C116 C145 1.392 . S
N117 Co111 2.008 . S
N117 C118 1.376 . S
N117 C121 1.374 . S
C118 N117 1.376 . S
C118 C119 1.443 . S
C118 C145 1.389 . S
C119 C118 1.443 . S
C119 C120 1.340 . S
C119 H151 0.951 . S
C120 C119 1.340 . S
C120 C121 1.439 . S
C120 H152 0.950 . S
C121 N117 1.374 . S
C121 C120 1.439 . S
C121 C146 1.395 . S
N122 Co111 1.995 . S
N122 C123 1.376 . S
N122 C126 1.383 . S
C123 N122 1.376 . S
C123 C124 1.446 . S
C123 C146 1.391 . S
C124 C123 1.446 . S
C124 C125 1.339 . S
C124 H153 0.949 . S
C125 C124 1.339 . S
C125 C126 1.439 . S
C125 H154 0.950 . S
C126 N122 1.383 . S
C126 C125 1.439 . S
C126 C144 1.392 . S
N127 Co111 2.282 . S
N127 C130 1.332 . S
N127 C132 1.332 . S
C128 C129 1.386 . S
C128 C131 1.388 . S
C129 C128 1.386 . S
C129 C130 1.382 . S
C129 H155 0.950 . S
C130 N127 1.332 . S
C130 C129 1.382 . S
C130 H141 0.952 . S
C131 C128 1.388 . S
C131 C132 1.382 . S
C131 H156 0.950 . S
C132 N127 1.332 . S
C132 C131 1.382 . S
C132 H142 0.948 . S
N133 Co111 2.282 . S
N133 C137 1.332 . S
N133 C138 1.332 . S
C134 C135 1.388 . S
C134 C138 1.382 . S
C134 H157 0.950 . S
C135 C134 1.388 . S
C135 C136 1.386 . S
C136 C135 1.386 . S
C136 C137 1.382 . S
C136 H158 0.950 . S
C137 N133 1.332 . S
C137 C136 1.382 . S
C137 H139 0.952 . S
C138 N133 1.332 . S
C138 C134 1.382 . S
C138 H140 0.948 . S
H139 C137 0.952 . S
H140 C138 0.948 . S
H141 C130 0.952 . S
H142 C132 0.948 . S
C143 C109 1.395 . S
C143 C113 1.391 . S
C144 C106 1.389 . S
C144 C126 1.392 . S
C145 C116 1.392 . S
C145 C118 1.389 . S
C146 C121 1.395 . S
C146 C123 1.391 . S
H147 C107 0.951 . S
H148 C108 0.950 . S
H149 C114 0.949 . S
H150 C115 0.950 . S
H151 C119 0.951 . S
H152 C120 0.950 . S
H153 C124 0.949 . S
H154 C125 0.950 . S
H155 C129 0.950 . S
H156 C131 0.950 . S
H157 C134 0.950 . S
H158 C136 0.950 . S
C159 C160 1.443 . S
C159 N163 1.376 . S
C159 C197 1.389 . S
C160 C159 1.443 . S
C160 C161 1.340 . S
C160 H200 0.951 . S
C161 C160 1.340 . S
C161 C162 1.439 . S
C161 H201 0.950 . S
C162 C161 1.439 . S
C162 N163 1.374 . S
C162 C196 1.395 . S
N163 C159 1.376 . S
N163 C162 1.374 . S
N163 Co164 2.008 . S
Co164 N163 2.008 . S
Co164 N165 1.995 . S
Co164 N170 2.008 . S
Co164 N175 1.995 . S
Co164 N180 2.282 . S
Co164 N186 2.282 . S
N165 Co164 1.995 . S
N165 C166 1.376 . S
N165 C169 1.383 . S
C166 N165 1.376 . S
C166 C167 1.446 . S
C166 C196 1.391 . S
C167 C166 1.446 . S
C167 C168 1.339 . S
C167 H202 0.949 . S
C168 C167 1.339 . S
C168 C169 1.439 . S
C168 H203 0.950 . S
C169 N165 1.383 . S
C169 C168 1.439 . S
C169 C198 1.392 . S
N170 Co164 2.008 . S
N170 C171 1.376 . S
N170 C174 1.374 . S
C171 N170 1.376 . S
C171 C172 1.443 . S
C171 C198 1.389 . S
C172 C171 1.443 . S
C172 C173 1.340 . S
C172 H204 0.951 . S
C173 C172 1.340 . S
C173 C174 1.439 . S
C173 H205 0.950 . S
C174 N170 1.374 . S
C174 C173 1.439 . S
C174 C199 1.395 . S
N175 Co164 1.995 . S
N175 C176 1.376 . S
N175 C179 1.383 . S
C176 N175 1.376 . S
C176 C177 1.446 . S
C176 C199 1.391 . S
C177 C176 1.446 . S
C177 C178 1.339 . S
C177 H206 0.949 . S
C178 C177 1.339 . S
C178 C179 1.439 . S
C178 H207 0.950 . S
C179 N175 1.383 . S
C179 C178 1.439 . S
C179 C197 1.392 . S
N180 Co164 2.282 . S
N180 C183 1.332 . S
N180 C185 1.332 . S
C181 C182 1.386 . S
C181 C184 1.388 . S
C182 C181 1.386 . S
C182 C183 1.382 . S
C182 H208 0.950 . S
C183 N180 1.332 . S
C183 C182 1.382 . S
C183 H194 0.952 . S
C184 C181 1.388 . S
C184 C185 1.382 . S
C184 H209 0.950 . S
C185 N180 1.332 . S
C185 C184 1.382 . S
C185 H195 0.948 . S
N186 Co164 2.282 . S
N186 C190 1.332 1_554 S
N186 C191 1.332 1_554 S
C187 C188 1.388 . S
C187 C191 1.382 . S
C187 H210 0.950 . S
C188 C187 1.388 . S
C188 C189 1.386 . S
C189 C188 1.386 . S
C189 C190 1.382 . S
C189 H211 0.950 . S
C190 N186 1.332 1_556 S
C190 C189 1.382 . S
C190 H192 0.966 . S
C191 N186 1.332 1_556 S
C191 C187 1.382 . S
C191 H193 0.939 1_556 S
H192 C190 0.966 . S
H193 C191 0.939 1_554 S
H194 C183 0.952 . S
H195 C185 0.948 . S
C196 C162 1.395 . S
C196 C166 1.391 . S
C197 C159 1.389 . S
C197 C179 1.392 . S
C198 C169 1.392 . S
C198 C171 1.389 . S
C199 C174 1.395 . S
C199 C176 1.391 . S
H200 C160 0.951 . S
H201 C161 0.950 . S
H202 C167 0.949 . S
H203 C168 0.950 . S
H204 C172 0.951 . S
H205 C173 0.950 . S
H206 C177 0.949 . S
H207 C178 0.950 . S
H208 C182 0.950 . S
H209 C184 0.950 . S
H210 C187 0.950 . S
H211 C189 0.950 . S
C212 C213 1.443 . S
C212 N216 1.376 . S
C212 C250 1.389 . S
C213 C212 1.443 . S
C213 C214 1.340 . S
C213 H253 0.951 . S
C214 C213 1.340 . S
C214 C215 1.439 . S
C214 H254 0.950 . S
C215 C214 1.439 . S
C215 N216 1.374 . S
C215 C249 1.395 . S
N216 C212 1.376 . S
N216 C215 1.374 . S
N216 Co217 2.008 . S
Co217 N216 2.008 . S
Co217 N218 1.995 . S
Co217 N223 2.008 . S
Co217 N228 1.995 . S
Co217 N233 2.282 . S
Co217 N239 2.282 . S
N218 Co217 1.995 . S
N218 C219 1.376 . S
N218 C222 1.383 . S
C219 N218 1.376 . S
C219 C220 1.446 . S
C219 C249 1.391 . S
C220 C219 1.446 . S
C220 C221 1.339 . S
C220 H255 0.949 . S
C221 C220 1.339 . S
C221 C222 1.439 . S
C221 H256 0.950 . S
C222 N218 1.383 . S
C222 C221 1.439 . S
C222 C251 1.392 . S
N223 Co217 2.008 . S
N223 C224 1.376 . S
N223 C227 1.374 . S
C224 N223 1.376 . S
C224 C225 1.443 . S
C224 C251 1.389 . S
C225 C224 1.443 . S
C225 C226 1.340 . S
C225 H257 0.951 . S
C226 C225 1.340 . S
C226 C227 1.439 . S
C226 H258 0.950 . S
C227 N223 1.374 . S
C227 C226 1.439 . S
C227 C252 1.395 . S
N228 Co217 1.995 . S
N228 C229 1.376 . S
N228 C232 1.383 . S
C229 N228 1.376 . S
C229 C230 1.446 . S
C229 C252 1.391 . S
C230 C229 1.446 . S
C230 C231 1.339 . S
C230 H259 0.949 . S
C231 C230 1.339 . S
C231 C232 1.439 . S
C231 H260 0.950 . S
C232 N228 1.383 . S
C232 C231 1.439 . S
C232 C250 1.392 . S
N233 Co217 2.282 . S
N233 C236 1.332 . S
N233 C238 1.332 . S
C234 C235 1.386 . S
C234 C237 1.388 . S
C235 C234 1.386 . S
C235 C236 1.382 . S
C235 H261 0.950 . S
C236 N233 1.332 . S
C236 C235 1.382 . S
C236 H247 0.952 . S
C237 C234 1.388 . S
C237 C238 1.382 . S
C237 H262 0.950 . S
C238 N233 1.332 . S
C238 C237 1.382 . S
C238 H248 0.948 . S
N239 Co217 2.282 . S
N239 C243 1.332 . S
N239 C244 1.332 . S
C240 C241 1.388 . S
C240 C244 1.382 . S
C240 H263 0.950 . S
C241 C240 1.388 . S
C241 C242 1.386 . S
C242 C241 1.386 . S
C242 C243 1.382 . S
C242 H264 0.950 . S
C243 N239 1.332 . S
C243 C242 1.382 . S
C243 H245 0.952 . S
C244 N239 1.332 . S
C244 C240 1.382 . S
C244 H246 0.948 . S
H245 C243 0.952 . S
H246 C244 0.948 . S
H247 C236 0.952 . S
H248 C238 0.948 . S
C249 C215 1.395 . S
C249 C219 1.391 . S
C250 C212 1.389 . S
C250 C232 1.392 . S
C251 C222 1.392 . S
C251 C224 1.389 . S
C252 C227 1.395 . S
C252 C229 1.391 . S
H253 C213 0.951 . S
H254 C214 0.950 . S
H255 C220 0.949 . S
H256 C221 0.950 . S
H257 C225 0.951 . S
H258 C226 0.950 . S
H259 C230 0.949 . S
H260 C231 0.950 . S
H261 C235 0.950 . S
H262 C237 0.950 . S
H263 C240 0.950 . S
H264 C242 0.950 . S
C265 C266 1.443 . S
C265 N269 1.376 . S
C265 C303 1.389 . S
C266 C265 1.443 . S
C266 C267 1.340 . S
C266 H306 0.951 . S
C267 C266 1.340 . S
C267 C268 1.439 . S
C267 H307 0.950 . S
C268 C267 1.439 . S
C268 N269 1.374 . S
C268 C302 1.395 . S
N269 C265 1.376 . S
N269 C268 1.374 . S
N269 Co270 2.008 . S
Co270 N269 2.008 . S
Co270 N271 1.995 . S
Co270 N276 2.008 . S
Co270 N281 1.995 . S
Co270 N286 2.282 . S
Co270 N292 2.282 . S
N271 Co270 1.995 . S
N271 C272 1.376 . S
N271 C275 1.383 . S
C272 N271 1.376 . S
C272 C273 1.446 . S
C272 C302 1.391 . S
C273 C272 1.446 . S
C273 C274 1.339 . S
C273 H308 0.949 . S
C274 C273 1.339 . S
C274 C275 1.439 . S
C274 H309 0.950 . S
C275 N271 1.383 . S
C275 C274 1.439 . S
C275 C304 1.392 . S
N276 Co270 2.008 . S
N276 C277 1.376 . S
N276 C280 1.374 . S
C277 N276 1.376 . S
C277 C278 1.443 . S
C277 C304 1.389 . S
C278 C277 1.443 . S
C278 C279 1.340 . S
C278 H310 0.951 . S
C279 C278 1.340 . S
C279 C280 1.439 . S
C279 H311 0.950 . S
C280 N276 1.374 . S
C280 C279 1.439 . S
C280 C305 1.395 . S
N281 Co270 1.995 . S
N281 C282 1.376 . S
N281 C285 1.383 . S
C282 N281 1.376 . S
C282 C283 1.446 . S
C282 C305 1.391 . S
C283 C282 1.446 . S
C283 C284 1.339 . S
C283 H312 0.949 . S
C284 C283 1.339 . S
C284 C285 1.439 . S
C284 H313 0.950 . S
C285 N281 1.383 . S
C285 C284 1.439 . S
C285 C303 1.392 . S
N286 Co270 2.282 . S
N286 C289 1.332 . S
N286 C291 1.332 . S
C287 C288 1.386 . S
C287 C290 1.388 . S
C288 C287 1.386 . S
C288 C289 1.382 . S
C288 H314 0.950 . S
C289 N286 1.332 . S
C289 C288 1.382 . S
C289 H300 0.952 . S
C290 C287 1.388 . S
C290 C291 1.382 . S
C290 H315 0.950 . S
C291 N286 1.332 . S
C291 C290 1.382 . S
C291 H301 0.948 . S
N292 Co270 2.282 . S
N292 C296 1.332 . S
N292 C297 1.332 . S
C293 C294 1.388 . S
C293 C297 1.382 . S
C293 H316 0.950 . S
C294 C293 1.388 . S
C294 C295 1.386 . S
C295 C294 1.386 . S
C295 C296 1.382 . S
C295 H317 0.950 . S
C296 N292 1.332 . S
C296 C295 1.382 . S
C296 H298 0.952 . S
C297 N292 1.332 . S
C297 C293 1.382 . S
C297 H299 0.948 . S
H298 C296 0.952 . S
H299 C297 0.948 . S
H300 C289 0.952 . S
H301 C291 0.948 . S
C302 C268 1.395 . S
C302 C272 1.391 . S
C303 C265 1.389 . S
C303 C285 1.392 . S
C304 C275 1.392 . S
C304 C277 1.389 . S
C305 C280 1.395 . S
C305 C282 1.391 . S
H306 C266 0.951 . S
H307 C267 0.950 . S
H308 C273 0.949 . S
H309 C274 0.950 . S
H310 C278 0.951 . S
H311 C279 0.950 . S
H312 C283 0.949 . S
H313 C284 0.950 . S
H314 C288 0.950 . S
H315 C290 0.950 . S
H316 C293 0.950 . S
H317 C295 0.950 . S
C318 C319 1.443 . S
C318 N322 1.376 . S
C318 C356 1.389 . S
C319 C318 1.443 . S
C319 C320 1.340 . S
C319 H359 0.951 . S
C320 C319 1.340 . S
C320 C321 1.439 . S
C320 H360 0.950 . S
C321 C320 1.439 . S
C321 N322 1.374 . S
C321 C355 1.395 . S
N322 C318 1.376 . S
N322 C321 1.374 . S
N322 Co323 2.008 . S
Co323 N322 2.008 . S
Co323 N324 1.995 . S
Co323 N329 2.008 . S
Co323 N334 1.995 . S
Co323 N339 2.282 . S
Co323 N345 2.282 . S
N324 Co323 1.995 . S
N324 C325 1.376 . S
N324 C328 1.383 . S
C325 N324 1.376 . S
C325 C326 1.446 . S
C325 C355 1.391 . S
C326 C325 1.446 . S
C326 C327 1.339 . S
C326 H361 0.949 . S
C327 C326 1.339 . S
C327 C328 1.439 . S
C327 H362 0.950 . S
C328 N324 1.383 . S
C328 C327 1.439 . S
C328 C357 1.392 . S
N329 Co323 2.008 . S
N329 C330 1.376 . S
N329 C333 1.374 . S
C330 N329 1.376 . S
C330 C331 1.443 . S
C330 C357 1.389 . S
C331 C330 1.443 . S
C331 C332 1.340 . S
C331 H363 0.951 . S
C332 C331 1.340 . S
C332 C333 1.439 . S
C332 H364 0.950 . S
C333 N329 1.374 . S
C333 C332 1.439 . S
C333 C358 1.395 . S
N334 Co323 1.995 . S
N334 C335 1.376 . S
N334 C338 1.383 . S
C335 N334 1.376 . S
C335 C336 1.446 . S
C335 C358 1.391 . S
C336 C335 1.446 . S
C336 C337 1.339 . S
C336 H365 0.949 . S
C337 C336 1.339 . S
C337 C338 1.439 . S
C337 H366 0.950 . S
C338 N334 1.383 . S
C338 C337 1.439 . S
C338 C356 1.392 . S
N339 Co323 2.282 . S
N339 C342 1.332 . S
N339 C344 1.332 . S
C340 C341 1.386 . S
C340 C343 1.388 . S
C341 C340 1.386 . S
C341 C342 1.382 . S
C341 H367 0.950 . S
C342 N339 1.332 . S
C342 C341 1.382 . S
C342 H353 0.952 . S
C343 C340 1.388 . S
C343 C344 1.382 . S
C343 H368 0.950 . S
C344 N339 1.332 . S
C344 C343 1.382 . S
C344 H354 0.948 . S
N345 Co323 2.282 . S
N345 C349 1.332 . S
N345 C350 1.332 . S
C346 C347 1.388 . S
C346 C350 1.382 . S
C346 H369 0.950 . S
C347 C346 1.388 . S
C347 C348 1.386 . S
C348 C347 1.386 . S
C348 C349 1.382 . S
C348 H370 0.950 . S
C349 N345 1.332 . S
C349 C348 1.382 . S
C349 H351 0.952 . S
C350 N345 1.332 . S
C350 C346 1.382 . S
C350 H352 0.948 . S
H351 C349 0.952 . S
H352 C350 0.948 . S
H353 C342 0.952 . S
H354 C344 0.948 . S
C355 C321 1.395 . S
C355 C325 1.391 . S
C356 C318 1.389 . S
C356 C338 1.392 . S
C357 C328 1.392 . S
C357 C330 1.389 . S
C358 C333 1.395 . S
C358 C335 1.391 . S
H359 C319 0.951 . S
H360 C320 0.950 . S
H361 C326 0.949 . S
H362 C327 0.950 . S
H363 C331 0.951 . S
H364 C332 0.950 . S
H365 C336 0.949 . S
H366 C337 0.950 . S
H367 C341 0.950 . S
H368 C343 0.950 . S
H369 C346 0.950 . S
H370 C348 0.950 . S
C371 C372 1.443 . S
C371 N375 1.376 . S
C371 C409 1.389 . S
C372 C371 1.443 . S
C372 C373 1.340 . S
C372 H412 0.951 . S
C373 C372 1.340 . S
C373 C374 1.439 . S
C373 H413 0.950 . S
C374 C373 1.439 . S
C374 N375 1.374 . S
C374 C408 1.395 . S
N375 C371 1.376 . S
N375 C374 1.374 . S
N375 Co376 2.008 . S
Co376 N375 2.008 . S
Co376 N377 1.995 . S
Co376 N382 2.008 . S
Co376 N387 1.995 . S
Co376 N392 2.282 . S
Co376 N398 2.282 . S
N377 Co376 1.995 . S
N377 C378 1.376 . S
N377 C381 1.383 . S
C378 N377 1.376 . S
C378 C379 1.446 . S
C378 C408 1.391 . S
C379 C378 1.446 . S
C379 C380 1.339 . S
C379 H414 0.949 . S
C380 C379 1.339 . S
C380 C381 1.439 . S
C380 H415 0.950 . S
C381 N377 1.383 . S
C381 C380 1.439 . S
C381 C410 1.392 . S
N382 Co376 2.008 . S
N382 C383 1.376 . S
N382 C386 1.374 . S
C383 N382 1.376 . S
C383 C384 1.443 . S
C383 C410 1.389 . S
C384 C383 1.443 . S
C384 C385 1.340 . S
C384 H416 0.951 . S
C385 C384 1.340 . S
C385 C386 1.439 . S
C385 H417 0.950 . S
C386 N382 1.374 . S
C386 C385 1.439 . S
C386 C411 1.395 . S
N387 Co376 1.995 . S
N387 C388 1.376 . S
N387 C391 1.383 . S
C388 N387 1.376 . S
C388 C389 1.446 . S
C388 C411 1.391 . S
C389 C388 1.446 . S
C389 C390 1.339 . S
C389 H418 0.949 . S
C390 C389 1.339 . S
C390 C391 1.439 . S
C390 H419 0.950 . S
C391 N387 1.383 . S
C391 C390 1.439 . S
C391 C409 1.392 . S
N392 Co376 2.282 . S
N392 C395 1.332 . S
N392 C397 1.332 . S
C393 C394 1.386 . S
C393 C396 1.388 . S
C394 C393 1.386 . S
C394 C395 1.382 . S
C394 H420 0.950 . S
C395 N392 1.332 . S
C395 C394 1.382 . S
C395 H406 0.952 . S
C396 C393 1.388 . S
C396 C397 1.382 . S
C396 H421 0.950 . S
C397 N392 1.332 . S
C397 C396 1.382 . S
C397 H407 0.948 . S
N398 Co376 2.282 . S
N398 C402 1.332 1_556 S
N398 C403 1.332 1_556 S
C399 C400 1.388 . S
C399 C403 1.382 . S
C399 H422 0.950 . S
C400 C399 1.388 . S
C400 C401 1.386 . S
C401 C400 1.386 . S
C401 C402 1.382 . S
C401 H423 0.950 . S
C402 N398 1.332 1_554 S
C402 C401 1.382 . S
C402 H404 0.966 . S
C403 N398 1.332 1_554 S
C403 C399 1.382 . S
C403 H405 0.939 1_554 S
H404 C402 0.966 . S
H405 C403 0.939 1_556 S
H406 C395 0.952 . S
H407 C397 0.948 . S
C408 C374 1.395 . S
C408 C378 1.391 . S
C409 C371 1.389 . S
C409 C391 1.392 . S
C410 C381 1.392 . S
C410 C383 1.389 . S
C411 C386 1.395 . S
C411 C388 1.391 . S
H412 C372 0.951 . S
H413 C373 0.950 . S
H414 C379 0.949 . S
H415 C380 0.950 . S
H416 C384 0.951 . S
H417 C385 0.950 . S
H418 C389 0.949 . S
H419 C390 0.950 . S
H420 C394 0.950 . S
H421 C396 0.950 . S
H422 C399 0.950 . S
H423 C401 0.950 . S
C424 C425 1.443 . S
C424 N428 1.376 . S
C424 C462 1.389 . S
C425 C424 1.443 . S
C425 C426 1.340 . S
C425 H465 0.951 . S
C426 C425 1.340 . S
C426 C427 1.439 . S
C426 H466 0.950 . S
C427 C426 1.439 . S
C427 N428 1.374 . S
C427 C461 1.395 . S
N428 C424 1.376 . S
N428 C427 1.374 . S
N428 Co429 2.008 . S
Co429 N428 2.008 . S
Co429 N430 1.995 . S
Co429 N435 2.008 . S
Co429 N440 1.995 . S
Co429 N445 2.282 . S
Co429 N451 2.282 . S
N430 Co429 1.995 . S
N430 C431 1.376 . S
N430 C434 1.383 . S
C431 N430 1.376 . S
C431 C432 1.446 . S
C431 C461 1.391 . S
C432 C431 1.446 . S
C432 C433 1.339 . S
C432 H467 0.949 . S
C433 C432 1.339 . S
C433 C434 1.439 . S
C433 H468 0.950 . S
C434 N430 1.383 . S
C434 C433 1.439 . S
C434 C463 1.392 . S
N435 Co429 2.008 . S
N435 C436 1.376 . S
N435 C439 1.374 . S
C436 N435 1.376 . S
C436 C437 1.443 . S
C436 C463 1.389 . S
C437 C436 1.443 . S
C437 C438 1.340 . S
C437 H469 0.951 . S
C438 C437 1.340 . S
C438 C439 1.439 . S
C438 H470 0.950 . S
C439 N435 1.374 . S
C439 C438 1.439 . S
C439 C464 1.395 . S
N440 Co429 1.995 . S
N440 C441 1.376 . S
N440 C444 1.383 . S
C441 N440 1.376 . S
C441 C442 1.446 . S
C441 C464 1.391 . S
C442 C441 1.446 . S
C442 C443 1.339 . S
C442 H471 0.949 . S
C443 C442 1.339 . S
C443 C444 1.439 . S
C443 H472 0.950 . S
C444 N440 1.383 . S
C444 C443 1.439 . S
C444 C462 1.392 . S
N445 Co429 2.282 . S
N445 C448 1.332 . S
N445 C450 1.332 . S
C446 C447 1.386 . S
C446 C449 1.388 . S
C447 C446 1.386 . S
C447 C448 1.382 . S
C447 H473 0.950 . S
C448 N445 1.332 . S
C448 C447 1.382 . S
C448 H459 0.952 . S
C449 C446 1.388 . S
C449 C450 1.382 . S
C449 H474 0.950 . S
C450 N445 1.332 . S
C450 C449 1.382 . S
C450 H460 0.948 . S
N451 Co429 2.282 . S
N451 C455 1.332 . S
N451 C456 1.332 . S
C452 C453 1.388 . S
C452 C456 1.382 . S
C452 H475 0.950 . S
C453 C452 1.388 . S
C453 C454 1.386 . S
C454 C453 1.386 . S
C454 C455 1.382 . S
C454 H476 0.950 . S
C455 N451 1.332 . S
C455 C454 1.382 . S
C455 H457 0.952 . S
C456 N451 1.332 . S
C456 C452 1.382 . S
C456 H458 0.948 . S
H457 C455 0.952 . S
H458 C456 0.948 . S
H459 C448 0.952 . S
H460 C450 0.948 . S
C461 C427 1.395 . S
C461 C431 1.391 . S
C462 C424 1.389 . S
C462 C444 1.392 . S
C463 C434 1.392 . S
C463 C436 1.389 . S
C464 C439 1.395 . S
C464 C441 1.391 . S
H465 C425 0.951 . S
H466 C426 0.950 . S
H467 C432 0.949 . S
H468 C433 0.950 . S
H469 C437 0.951 . S
H470 C438 0.950 . S
H471 C442 0.949 . S
H472 C443 0.950 . S
H473 C447 0.950 . S
H474 C449 0.950 . S
H475 C452 0.950 . S
H476 C454 0.950 . S
C477 C478 1.443 . S
C477 N481 1.376 . S
C477 C515 1.389 . S
C478 C477 1.443 . S
C478 C479 1.340 . S
C478 H518 0.951 . S
C479 C478 1.340 . S
C479 C480 1.439 . S
C479 H519 0.950 . S
C480 C479 1.439 . S
C480 N481 1.374 . S
C480 C514 1.395 . S
N481 C477 1.376 . S
N481 C480 1.374 . S
N481 Co482 2.008 . S
Co482 N481 2.008 . S
Co482 N483 1.995 . S
Co482 N488 2.008 . S
Co482 N493 1.995 . S
Co482 N498 2.282 . S
Co482 N504 2.282 . S
N483 Co482 1.995 . S
N483 C484 1.376 . S
N483 C487 1.383 . S
C484 N483 1.376 . S
C484 C485 1.446 . S
C484 C514 1.391 . S
C485 C484 1.446 . S
C485 C486 1.339 . S
C485 H520 0.949 . S
C486 C485 1.339 . S
C486 C487 1.439 . S
C486 H521 0.950 . S
C487 N483 1.383 . S
C487 C486 1.439 . S
C487 C516 1.392 . S
N488 Co482 2.008 . S
N488 C489 1.376 . S
N488 C492 1.374 . S
C489 N488 1.376 . S
C489 C490 1.443 . S
C489 C516 1.389 . S
C490 C489 1.443 . S
C490 C491 1.340 . S
C490 H522 0.951 . S
C491 C490 1.340 . S
C491 C492 1.439 . S
C491 H523 0.950 . S
C492 N488 1.374 . S
C492 C491 1.439 . S
C492 C517 1.395 . S
N493 Co482 1.995 . S
N493 C494 1.376 . S
N493 C497 1.383 . S
C494 N493 1.376 . S
C494 C495 1.446 . S
C494 C517 1.391 . S
C495 C494 1.446 . S
C495 C496 1.339 . S
C495 H524 0.949 . S
C496 C495 1.339 . S
C496 C497 1.439 . S
C496 H525 0.950 . S
C497 N493 1.383 . S
C497 C496 1.439 . S
C497 C515 1.392 . S
N498 Co482 2.282 . S
N498 C501 1.332 . S
N498 C503 1.332 . S
C499 C500 1.386 . S
C499 C502 1.388 . S
C500 C499 1.386 . S
C500 C501 1.382 . S
C500 H526 0.950 . S
C501 N498 1.332 . S
C501 C500 1.382 . S
C501 H512 0.952 . S
C502 C499 1.388 . S
C502 C503 1.382 . S
C502 H527 0.950 . S
C503 N498 1.332 . S
C503 C502 1.382 . S
C503 H513 0.948 . S
N504 Co482 2.282 . S
N504 C508 1.332 . S
N504 C509 1.332 . S
C505 C506 1.388 . S
C505 C509 1.382 . S
C505 H528 0.950 . S
C506 C505 1.388 . S
C506 C507 1.386 . S
C507 C506 1.386 . S
C507 C508 1.382 . S
C507 H529 0.950 . S
C508 N504 1.332 . S
C508 C507 1.382 . S
C508 H510 0.952 . S
C509 N504 1.332 . S
C509 C505 1.382 . S
C509 H511 0.948 . S
H510 C508 0.952 . S
H511 C509 0.948 . S
H512 C501 0.952 . S
H513 C503 0.948 . S
C514 C480 1.395 . S
C514 C484 1.391 . S
C515 C477 1.389 . S
C515 C497 1.392 . S
C516 C487 1.392 . S
C516 C489 1.389 . S
C517 C492 1.395 . S
C517 C494 1.391 . S
H518 C478 0.951 . S
H519 C479 0.950 . S
H520 C485 0.949 . S
H521 C486 0.950 . S
H522 C490 0.951 . S
H523 C491 0.950 . S
H524 C495 0.949 . S
H525 C496 0.950 . S
H526 C500 0.950 . S
H527 C502 0.950 . S
H528 C505 0.950 . S
H529 C507 0.950 . S
C530 C531 1.443 . S
C530 N534 1.376 . S
C530 C568 1.389 . S
C531 C530 1.443 . S
C531 C532 1.340 . S
C531 H571 0.951 . S
C532 C531 1.340 . S
C532 C533 1.439 . S
C532 H572 0.950 . S
C533 C532 1.439 . S
C533 N534 1.374 . S
C533 C567 1.395 . S
N534 C530 1.376 . S
N534 C533 1.374 . S
N534 Co535 2.008 . S
Co535 N534 2.008 . S
Co535 N536 1.995 . S
Co535 N541 2.008 . S
Co535 N546 1.995 . S
Co535 N551 2.282 . S
Co535 N557 2.282 . S
N536 Co535 1.995 . S
N536 C537 1.376 . S
N536 C540 1.383 . S
C537 N536 1.376 . S
C537 C538 1.446 . S
C537 C567 1.391 . S
C538 C537 1.446 . S
C538 C539 1.339 . S
C538 H573 0.949 . S
C539 C538 1.339 . S
C539 C540 1.439 . S
C539 H574 0.950 . S
C540 N536 1.383 . S
C540 C539 1.439 . S
C540 C569 1.392 . S
N541 Co535 2.008 . S
N541 C542 1.376 . S
N541 C545 1.374 . S
C542 N541 1.376 . S
C542 C543 1.443 . S
C542 C569 1.389 . S
C543 C542 1.443 . S
C543 C544 1.340 . S
C543 H575 0.951 . S
C544 C543 1.340 . S
C544 C545 1.439 . S
C544 H576 0.950 . S
C545 N541 1.374 . S
C545 C544 1.439 . S
C545 C570 1.395 . S
N546 Co535 1.995 . S
N546 C547 1.376 . S
N546 C550 1.383 . S
C547 N546 1.376 . S
C547 C548 1.446 . S
C547 C570 1.391 . S
C548 C547 1.446 . S
C548 C549 1.339 . S
C548 H577 0.949 . S
C549 C548 1.339 . S
C549 C550 1.439 . S
C549 H578 0.950 . S
C550 N546 1.383 . S
C550 C549 1.439 . S
C550 C568 1.392 . S
N551 Co535 2.282 . S
N551 C554 1.332 . S
N551 C556 1.332 . S
C552 C553 1.386 . S
C552 C555 1.388 . S
C553 C552 1.386 . S
C553 C554 1.382 . S
C553 H579 0.950 . S
C554 N551 1.332 . S
C554 C553 1.382 . S
C554 H565 0.952 . S
C555 C552 1.388 . S
C555 C556 1.382 . S
C555 H580 0.950 . S
C556 N551 1.332 . S
C556 C555 1.382 . S
C556 H566 0.948 . S
N557 Co535 2.282 . S
N557 C561 1.332 1_556 S
N557 C562 1.332 1_556 S
C558 C559 1.388 . S
C558 C562 1.382 . S
C558 H581 0.950 . S
C559 C558 1.388 . S
C559 C560 1.386 . S
C560 C559 1.386 . S
C560 C561 1.382 . S
C560 H582 0.950 . S
C561 N557 1.332 1_554 S
C561 C560 1.382 . S
C561 H563 0.966 . S
C562 N557 1.332 1_554 S
C562 C558 1.382 . S
C562 H564 0.939 1_554 S
H563 C561 0.966 . S
H564 C562 0.939 1_556 S
H565 C554 0.952 . S
H566 C556 0.948 . S
C567 C533 1.395 . S
C567 C537 1.391 . S
C568 C530 1.389 . S
C568 C550 1.392 . S
C569 C540 1.392 . S
C569 C542 1.389 . S
C570 C545 1.395 . S
C570 C547 1.391 . S
H571 C531 0.951 . S
H572 C532 0.950 . S
H573 C538 0.949 . S
H574 C539 0.950 . S
H575 C543 0.951 . S
H576 C544 0.950 . S
H577 C548 0.949 . S
H578 C549 0.950 . S
H579 C553 0.950 . S
H580 C555 0.950 . S
H581 C558 0.950 . S
H582 C560 0.950 . S
C583 C584 1.443 . S
C583 N587 1.376 . S
C583 C621 1.389 . S
C584 C583 1.443 . S
C584 C585 1.340 . S
C584 H624 0.951 . S
C585 C584 1.340 . S
C585 C586 1.439 . S
C585 H625 0.950 . S
C586 C585 1.439 . S
C586 N587 1.374 . S
C586 C620 1.395 . S
N587 C583 1.376 . S
N587 C586 1.374 . S
N587 Co588 2.008 . S
Co588 N587 2.008 . S
Co588 N589 1.995 . S
Co588 N594 2.008 . S
Co588 N599 1.995 . S
Co588 N604 2.282 . S
Co588 N610 2.282 . S
N589 Co588 1.995 . S
N589 C590 1.376 . S
N589 C593 1.383 . S
C590 N589 1.376 . S
C590 C591 1.446 . S
C590 C620 1.391 . S
C591 C590 1.446 . S
C591 C592 1.339 . S
C591 H626 0.949 . S
C592 C591 1.339 . S
C592 C593 1.439 . S
C592 H627 0.950 . S
C593 N589 1.383 . S
C593 C592 1.439 . S
C593 C622 1.392 . S
N594 Co588 2.008 . S
N594 C595 1.376 . S
N594 C598 1.374 . S
C595 N594 1.376 . S
C595 C596 1.443 . S
C595 C622 1.389 . S
C596 C595 1.443 . S
C596 C597 1.340 . S
C596 H628 0.951 . S
C597 C596 1.340 . S
C597 C598 1.439 . S
C597 H629 0.950 . S
C598 N594 1.374 . S
C598 C597 1.439 . S
C598 C623 1.395 . S
N599 Co588 1.995 . S
N599 C600 1.376 . S
N599 C603 1.383 . S
C600 N599 1.376 . S
C600 C601 1.446 . S
C600 C623 1.391 . S
C601 C600 1.446 . S
C601 C602 1.339 . S
C601 H630 0.949 . S
C602 C601 1.339 . S
C602 C603 1.439 . S
C602 H631 0.950 . S
C603 N599 1.383 . S
C603 C602 1.439 . S
C603 C621 1.392 . S
N604 Co588 2.282 . S
N604 C607 1.332 . S
N604 C609 1.332 . S
C605 C606 1.386 . S
C605 C608 1.388 . S
C606 C605 1.386 . S
C606 C607 1.382 . S
C606 H632 0.950 . S
C607 N604 1.332 . S
C607 C606 1.382 . S
C607 H618 0.952 . S
C608 C605 1.388 . S
C608 C609 1.382 . S
C608 H633 0.950 . S
C609 N604 1.332 . S
C609 C608 1.382 . S
C609 H619 0.948 . S
N610 Co588 2.282 . S
N610 C614 1.332 . S
N610 C615 1.332 . S
C611 C612 1.388 . S
C611 C615 1.382 . S
C611 H634 0.950 . S
C612 C611 1.388 . S
C612 C613 1.386 . S
C613 C612 1.386 . S
C613 C614 1.382 . S
C613 H635 0.950 . S
C614 N610 1.332 . S
C614 C613 1.382 . S
C614 H616 0.952 . S
C615 N610 1.332 . S
C615 C611 1.382 . S
C615 H617 0.948 . S
H616 C614 0.952 . S
H617 C615 0.948 . S
H618 C607 0.952 . S
H619 C609 0.948 . S
C620 C586 1.395 . S
C620 C590 1.391 . S
C621 C583 1.389 . S
C621 C603 1.392 . S
C622 C593 1.392 . S
C622 C595 1.389 . S
C623 C598 1.395 . S
C623 C600 1.391 . S
H624 C584 0.951 . S
H625 C585 0.950 . S
H626 C591 0.949 . S
H627 C592 0.950 . S
H628 C596 0.951 . S
H629 C597 0.950 . S
H630 C601 0.949 . S
H631 C602 0.950 . S
H632 C606 0.950 . S
H633 C608 0.950 . S
H634 C611 0.950 . S
H635 C613 0.950 . S
C636 C637 1.369 . S
C636 C638 1.419 . S
C636 H640 0.930 . S
C637 C636 1.369 . S
C637 C646 1.429 . S
C638 C636 1.419 . S
C638 C639 1.363 . S
C638 H641 0.929 . S
C639 C638 1.363 . S
C639 C645 1.428 . S
H640 C636 0.930 . S
H641 C638 0.929 . S
S642 N643 1.613 . S
S642 N644 1.610 . S
N643 S642 1.613 . S
N643 C646 1.350 . S
N644 S642 1.610 . S
N644 C645 1.351 . S
C645 C639 1.428 . S
C645 N644 1.351 . S
C645 C646 1.434 . S
C646 C637 1.429 . S
C646 N643 1.350 . S
C646 C645 1.434 . S
C647 C648 1.369 . S
C647 C649 1.419 . S
C647 H651 0.930 . S
C648 C647 1.369 . S
C648 C657 1.429 . S
C649 C647 1.419 . S
C649 C650 1.363 . S
C649 H652 0.929 . S
C650 C649 1.363 . S
C650 C656 1.428 . S
H651 C647 0.930 . S
H652 C649 0.929 . S
S653 N654 1.613 . S
S653 N655 1.610 . S
N654 S653 1.613 . S
N654 C657 1.350 . S
N655 S653 1.610 . S
N655 C656 1.351 . S
C656 C650 1.428 . S
C656 N655 1.351 . S
C656 C657 1.434 . S
C657 C648 1.429 . S
C657 N654 1.350 . S
C657 C656 1.434 . S
C658 C659 1.369 . S
C658 C660 1.419 1_556 S
C658 H662 0.930 . S
C659 C658 1.369 . S
C659 C668 1.429 . S
C660 C658 1.419 1_554 S
C660 C661 1.363 . S
C660 H663 0.929 . S
C661 C660 1.363 . S
C661 C667 1.428 . S
H662 C658 0.930 . S
H663 C660 0.929 . S
S664 N665 1.613 1_554 S
S664 N666 1.610 . S
N665 S664 1.613 1_556 S
N665 C668 1.350 . S
N666 S664 1.610 . S
N666 C667 1.351 . S
C667 C661 1.428 . S
C667 N666 1.351 . S
C667 C668 1.434 1_554 S
C668 C659 1.429 . S
C668 N665 1.350 . S
C668 C667 1.434 1_556 S
C669 C670 1.369 . S
C669 C671 1.419 . S
C669 H673 0.930 . S
C670 C669 1.369 . S
C670 C679 1.429 . S
C671 C669 1.419 . S
C671 C672 1.363 . S
C671 H674 0.929 . S
C672 C671 1.363 . S
C672 C678 1.428 . S
H673 C669 0.930 . S
H674 C671 0.929 . S
S675 N676 1.613 . S
S675 N677 1.610 . S
N676 S675 1.613 . S
N676 C679 1.350 . S
N677 S675 1.610 . S
N677 C678 1.351 . S
C678 C672 1.428 . S
C678 N677 1.351 . S
C678 C679 1.434 . S
C679 C670 1.429 . S
C679 N676 1.350 . S
C679 C678 1.434 . S
C680 C681 1.369 . S
C680 C682 1.419 . S
C680 H684 0.930 . S
C681 C680 1.369 . S
C681 C690 1.429 . S
C682 C680 1.419 . S
C682 C683 1.363 . S
C682 H685 0.929 . S
C683 C682 1.363 . S
C683 C689 1.428 . S
H684 C680 0.930 . S
H685 C682 0.929 . S
S686 N687 1.613 . S
S686 N688 1.610 . S
N687 S686 1.613 . S
N687 C690 1.350 . S
N688 S686 1.610 . S
N688 C689 1.351 . S
C689 C683 1.428 . S
C689 N688 1.351 . S
C689 C690 1.434 . S
C690 C681 1.429 . S
C690 N687 1.350 . S
C690 C689 1.434 . S
C691 C692 1.369 . S
C691 C693 1.419 1_554 S
C691 H695 0.930 . S
C692 C691 1.369 . S
C692 C701 1.429 . S
C693 C691 1.419 1_556 S
C693 C694 1.363 . S
C693 H696 0.929 . S
C694 C693 1.363 . S
C694 C700 1.428 . S
H695 C691 0.930 . S
H696 C693 0.929 . S
S697 N698 1.613 . S
S697 N699 1.610 1_554 S
N698 S697 1.613 . S
N698 C701 1.350 . S
N699 S697 1.610 1_556 S
N699 C700 1.351 . S
C700 C694 1.428 . S
C700 N699 1.351 . S
C700 C701 1.434 1_556 S
C701 C692 1.429 . S
C701 N698 1.350 . S
C701 C700 1.434 1_554 S
C702 C703 1.369 1_556 S
C702 C704 1.419 . S
C702 H706 0.930 . S
C703 C702 1.369 1_554 S
C703 C712 1.429 . S
C704 C702 1.419 . S
C704 C705 1.363 . S
C704 H707 0.929 . S
C705 C704 1.363 . S
C705 C711 1.428 1_556 S
H706 C702 0.930 . S
H707 C704 0.929 . S
S708 N709 1.613 . S
S708 N710 1.610 . S
N709 S708 1.613 . S
N709 C712 1.350 . S
N710 S708 1.610 . S
N710 C711 1.351 . S
C711 C705 1.428 1_554 S
C711 N710 1.351 . S
C711 C712 1.434 . S
C712 C703 1.429 . S
C712 N709 1.350 . S
C712 C711 1.434 . S
C713 C714 1.369 . S
C713 C715 1.419 . S
C713 H717 0.930 . S
C714 C713 1.369 . S
C714 C723 1.429 . S
C715 C713 1.419 . S
C715 C716 1.363 . S
C715 H718 0.929 . S
C716 C715 1.363 . S
C716 C722 1.428 . S
H717 C713 0.930 . S
H718 C715 0.929 . S
S719 N720 1.613 . S
S719 N721 1.610 . S
N720 S719 1.613 . S
N720 C723 1.350 . S
N721 S719 1.610 . S
N721 C722 1.351 . S
C722 C716 1.428 . S
C722 N721 1.351 . S
C722 C723 1.434 . S
C723 C714 1.429 . S
C723 N720 1.350 . S
C723 C722 1.434 . S
C724 C725 1.369 . S
C724 C726 1.419 . S
C724 H728 0.930 . S
C725 C724 1.369 . S
C725 C734 1.429 . S
C726 C724 1.419 . S
C726 C727 1.363 . S
C726 H729 0.929 . S
C727 C726 1.363 . S
C727 C733 1.428 . S
H728 C724 0.930 . S
H729 C726 0.929 . S
S730 N731 1.613 . S
S730 N732 1.610 . S
N731 S730 1.613 . S
N731 C734 1.350 . S
N732 S730 1.610 . S
N732 C733 1.351 . S
C733 C727 1.428 . S
C733 N732 1.351 . S
C733 C734 1.434 . S
C734 C725 1.429 . S
C734 N731 1.350 . S
C734 C733 1.434 . S
C735 C736 1.369 . S
C735 C737 1.419 . S
C735 H739 0.930 . S
C736 C735 1.369 . S
C736 C745 1.429 1_554 S
C737 C735 1.419 . S
C737 C738 1.363 1_554 S
C737 H740 0.929 . S
C738 C737 1.363 1_556 S
C738 C744 1.428 . S
H739 C735 0.930 . S
H740 C737 0.929 . S
S741 N742 1.613 . S
S741 N743 1.610 . S
N742 S741 1.613 . S
N742 C745 1.350 . S
N743 S741 1.610 . S
N743 C744 1.351 . S
C744 C738 1.428 . S
C744 N743 1.351 . S
C744 C745 1.434 . S
C745 C736 1.429 1_556 S
C745 N742 1.350 . S
C745 C744 1.434 . S
C746 C747 1.369 . S
C746 C748 1.419 . S
C746 H750 0.930 . S
C747 C746 1.369 . S
C747 C756 1.429 . S
C748 C746 1.419 . S
C748 C749 1.363 . S
C748 H751 0.929 . S
C749 C748 1.363 . S
C749 C755 1.428 . S
H750 C746 0.930 . S
H751 C748 0.929 . S
S752 N753 1.613 . S
S752 N754 1.610 . S
N753 S752 1.613 . S
N753 C756 1.350 . S
N754 S752 1.610 . S
N754 C755 1.351 . S
C755 C749 1.428 . S
C755 N754 1.351 . S
C755 C756 1.434 . S
C756 C747 1.429 . S
C756 N753 1.350 . S
C756 C755 1.434 . S
C757 C758 1.369 . S
C757 C759 1.419 . S
C757 H761 0.930 . S
C758 C757 1.369 . S
C758 C767 1.429 . S
C759 C757 1.419 . S
C759 C760 1.363 . S
C759 H762 0.929 . S
C760 C759 1.363 . S
C760 C766 1.428 . S
H761 C757 0.930 . S
H762 C759 0.929 . S
S763 N764 1.613 . S
S763 N765 1.610 . S
N764 S763 1.613 . S
N764 C767 1.350 . S
N765 S763 1.610 . S
N765 C766 1.351 . S
C766 C760 1.428 . S
C766 N765 1.351 . S
C766 C767 1.434 . S
C767 C758 1.429 . S
C767 N764 1.350 . S
C767 C766 1.434 . S
C768 C769 1.369 . S
C768 C770 1.419 . S
C768 H772 0.930 . S
C769 C768 1.369 . S
C769 C778 1.429 . S
C770 C768 1.419 . S
C770 C771 1.363 . S
C770 H773 0.929 . S
C771 C770 1.363 . S
C771 C777 1.428 . S
H772 C768 0.930 . S
H773 C770 0.929 . S
S774 N775 1.613 . S
S774 N776 1.610 . S
N775 S774 1.613 . S
N775 C778 1.350 . S
N776 S774 1.610 . S
N776 C777 1.351 . S
C777 C771 1.428 . S
C777 N776 1.351 . S
C777 C778 1.434 . S
C778 C769 1.429 . S
C778 N775 1.350 . S
C778 C777 1.434 . S
C779 C780 1.369 . S
C779 C781 1.419 1_655 S
C779 H783 0.930 . S
C780 C779 1.369 . S
C780 C789 1.429 . S
C781 C779 1.419 1_455 S
C781 C782 1.363 . S
C781 H784 0.929 . S
C782 C781 1.363 . S
C782 C788 1.428 . S
H783 C779 0.930 . S
H784 C781 0.929 . S
S785 N786 1.613 . S
S785 N787 1.610 1_655 S
N786 S785 1.613 . S
N786 C789 1.350 . S
N787 S785 1.610 1_455 S
N787 C788 1.351 . S
C788 C782 1.428 . S
C788 N787 1.351 . S
C788 C789 1.434 1_455 S
C789 C780 1.429 . S
C789 N786 1.350 . S
C789 C788 1.434 1_655 S
C790 C791 1.369 . S
C790 C792 1.419 1_545 S
C790 H794 0.930 . S
C791 C790 1.369 . S
C791 C800 1.429 . S
C792 C790 1.419 1_565 S
C792 C793 1.363 . S
C792 H795 0.929 . S
C793 C792 1.363 . S
C793 C799 1.428 . S
H794 C790 0.930 . S
H795 C792 0.929 . S
S796 N797 1.613 1_565 S
S796 N798 1.610 . S
N797 S796 1.613 1_545 S
N797 C800 1.350 . S
N798 S796 1.610 . S
N798 C799 1.351 . S
C799 C793 1.428 . S
C799 N798 1.351 . S
C799 C800 1.434 1_565 S
C800 C791 1.429 . S
C800 N797 1.350 . S
C800 C799 1.434 1_545 S
C801 C802 1.369 . S
C801 C803 1.419 . S
C801 H805 0.930 . S
C802 C801 1.369 . S
C802 C811 1.429 . S
C803 C801 1.419 . S
C803 C804 1.363 . S
C803 H806 0.929 . S
C804 C803 1.363 . S
C804 C810 1.428 . S
H805 C801 0.930 . S
H806 C803 0.929 . S
S807 N808 1.613 . S
S807 N809 1.610 . S
N808 S807 1.613 . S
N808 C811 1.350 . S
N809 S807 1.610 . S
N809 C810 1.351 . S
C810 C804 1.428 . S
C810 N809 1.351 . S
C810 C811 1.434 . S
C811 C802 1.429 . S
C811 N808 1.350 . S
C811 C810 1.434 . S
C812 C813 1.369 . S
C812 C814 1.419 1_455 S
C812 H816 0.930 . S
C813 C812 1.369 . S
C813 C822 1.429 . S
C814 C812 1.419 1_655 S
C814 C815 1.363 . S
C814 H817 0.929 . S
C815 C814 1.363 . S
C815 C821 1.428 . S
H816 C812 0.930 . S
H817 C814 0.929 . S
S818 N819 1.613 . S
S818 N820 1.610 1_455 S
N819 S818 1.613 . S
N819 C822 1.350 . S
N820 S818 1.610 1_655 S
N820 C821 1.351 . S
C821 C815 1.428 . S
C821 N820 1.351 . S
C821 C822 1.434 1_655 S
C822 C813 1.429 . S
C822 N819 1.350 . S
C822 C821 1.434 1_455 S
C823 C824 1.369 . S
C823 C825 1.419 1_565 S
C823 H827 0.930 . S
C824 C823 1.369 . S
C824 C833 1.429 . S
C825 C823 1.419 1_545 S
C825 C826 1.363 . S
C825 H828 0.929 . S
C826 C825 1.363 . S
C826 C832 1.428 . S
H827 C823 0.930 . S
H828 C825 0.929 . S
S829 N830 1.613 . S
S829 N831 1.610 1_565 S
N830 S829 1.613 . S
N830 C833 1.350 . S
N831 S829 1.610 1_545 S
N831 C832 1.351 . S
C832 C826 1.428 . S
C832 N831 1.351 . S
C832 C833 1.434 1_545 S
C833 C824 1.429 . S
C833 N830 1.350 . S
C833 C832 1.434 1_565 S
C834 C835 1.369 . S
C834 C836 1.419 . S
C834 H838 0.930 . S
C835 C834 1.369 . S
C835 C844 1.429 . S
C836 C834 1.419 . S
C836 C837 1.363 . S
C836 H839 0.929 . S
C837 C836 1.363 . S
C837 C843 1.428 . S
H838 C834 0.930 . S
H839 C836 0.929 . S
S840 N841 1.613 . S
S840 N842 1.610 . S
N841 S840 1.613 . S
N841 C844 1.350 . S
N842 S840 1.610 . S
N842 C843 1.351 . S
C843 C837 1.428 . S
C843 N842 1.351 . S
C843 C844 1.434 . S
C844 C835 1.429 . S
C844 N841 1.350 . S
C844 C843 1.434 . S
C845 C846 1.369 . S
C845 C847 1.419 . S
C845 H849 0.930 . S
C846 C845 1.369 . S
C846 C855 1.429 . S
C847 C845 1.419 . S
C847 C848 1.363 . S
C847 H850 0.929 . S
C848 C847 1.363 . S
C848 C854 1.428 . S
H849 C845 0.930 . S
H850 C847 0.929 . S
S851 N852 1.613 . S
S851 N853 1.610 . S
N852 S851 1.613 . S
N852 C855 1.350 . S
N853 S851 1.610 . S
N853 C854 1.351 . S
C854 C848 1.428 . S
C854 N853 1.351 . S
C854 C855 1.434 . S
C855 C846 1.429 . S
C855 N852 1.350 . S
C855 C854 1.434 . S
C856 C857 1.369 . S
C856 C858 1.419 . S
C856 H860 0.930 . S
C857 C856 1.369 . S
C857 C866 1.429 . S
C858 C856 1.419 . S
C858 C859 1.363 . S
C858 H861 0.929 . S
C859 C858 1.363 . S
C859 C865 1.428 . S
H860 C856 0.930 . S
H861 C858 0.929 . S
S862 N863 1.613 . S
S862 N864 1.610 . S
N863 S862 1.613 . S
N863 C866 1.350 . S
N864 S862 1.610 . S
N864 C865 1.351 . S
C865 C859 1.428 . S
C865 N864 1.351 . S
C865 C866 1.434 . S
C866 C857 1.429 . S
C866 N863 1.350 . S
C866 C865 1.434 . S
C867 C868 1.369 . S
C867 C869 1.419 . S
C867 H871 0.930 . S
C868 C867 1.369 . S
C868 C877 1.429 . S
C869 C867 1.419 . S
C869 C870 1.363 . S
C869 H872 0.929 . S
C870 C869 1.363 . S
C870 C876 1.428 . S
H871 C867 0.930 . S
H872 C869 0.929 . S
S873 N874 1.613 . S
S873 N875 1.610 . S
N874 S873 1.613 . S
N874 C877 1.350 . S
N875 S873 1.610 . S
N875 C876 1.351 . S
C876 C870 1.428 . S
C876 N875 1.351 . S
C876 C877 1.434 . S
C877 C868 1.429 . S
C877 N874 1.350 . S
C877 C876 1.434 . S
C878 C879 1.369 . S
C878 C880 1.419 . S
C878 H882 0.930 . S
C879 C878 1.369 . S
C879 C888 1.429 . S
C880 C878 1.419 . S
C880 C881 1.363 . S
C880 H883 0.929 . S
C881 C880 1.363 . S
C881 C887 1.428 . S
H882 C878 0.930 . S
H883 C880 0.929 . S
S884 N885 1.613 . S
S884 N886 1.610 . S
N885 S884 1.613 . S
N885 C888 1.350 . S
N886 S884 1.610 . S
N886 C887 1.351 . S
C887 C881 1.428 . S
C887 N886 1.351 . S
C887 C888 1.434 . S
C888 C879 1.429 . S
C888 N885 1.350 . S
C888 C887 1.434 . S
C889 C890 1.369 . S
C889 C891 1.419 . S
C889 H893 0.930 . S
C890 C889 1.369 . S
C890 C899 1.429 . S
C891 C889 1.419 . S
C891 C892 1.363 . S
C891 H894 0.929 . S
C892 C891 1.363 . S
C892 C898 1.428 . S
H893 C889 0.930 . S
H894 C891 0.929 . S
S895 N896 1.613 . S
S895 N897 1.610 . S
N896 S895 1.613 . S
N896 C899 1.350 . S
N897 S895 1.610 . S
N897 C898 1.351 . S
C898 C892 1.428 . S
C898 N897 1.351 . S
C898 C899 1.434 . S
C899 C890 1.429 . S
C899 N896 1.350 . S
C899 C898 1.434 . S
C637 C22 1.630 . S
C639 C340 1.632 . S
C648 C75 1.632 . S
C650 C393 1.630 . S
C659 C128 1.631 . S
C661 C446 1.630 . S
C670 C181 1.630 . S
C672 C499 1.632 . S
C681 C234 1.630 . S
C683 C552 1.631 . S
C692 C605 1.632 . S
C694 C287 1.632 . S
C703 C38 1.846 . S
C705 C568 1.843 . S
C714 C91 1.846 . S
C716 C621 1.844 . S
C725 C144 1.845 . S
C727 C356 1.842 . S
C736 C197 1.845 . S
C738 C409 1.846 . S
C747 C250 1.846 . S
C749 C462 1.843 . S
C758 C303 1.844 . S
C760 C515 1.846 . S
C769 C39 1.925 . S
C771 C198 1.920 . S
C780 C92 1.918 . S
C782 C251 1.924 . S
C791 C304 1.925 . S
C793 C145 1.920 . S
C802 C357 1.918 . S
C804 C516 1.922 . S
C813 C569 1.924 . S
C815 C410 1.923 . S
C824 C463 1.920 . S
C826 C622 1.924 . S
C835 C347 1.341 . S
C837 C29 1.339 . S
C846 C82 1.339 . S
C848 C400 1.338 . S
C857 C135 1.337 . S
C859 C453 1.340 . S
C868 C506 1.341 . S
C870 C188 1.337 . S
C879 C559 1.343 . S
C881 C241 1.338 . S
C890 C294 1.338 . S
C892 C612 1.339 . S
