# Generated by pormake.
# Topology ume, (4)-cn, num edge types: 1
# Building blocks:
#     Node 0, Type 0, BuildingBlock: KOZSID_clean_sbu_0, # of connection points: 4
#     Node 1, Type 0, BuildingBlock: KOZSID_clean_sbu_0, # of connection points: 4
#     Node 2, Type 0, BuildingBlock: KOZSID_clean_sbu_0, # of connection points: 4
#     Node 3, Type 0, BuildingBlock: KOZSID_clean_sbu_0, # of connection points: 4
#     Node 4, Type 0, BuildingBlock: KOZSID_clean_sbu_0, # of connection points: 4
#     Node 5, Type 0, BuildingBlock: KOZSID_clean_sbu_0, # of connection points: 4
#     Node 6, Type 0, BuildingBlock: KOZSID_clean_sbu_0, # of connection points: 4
#     Node 7, Type 0, BuildingBlock: KOZSID_clean_sbu_0, # of connection points: 4
#     Node 8, Type 0, BuildingBlock: KOZSID_clean_sbu_0, # of connection points: 4
#     Node 9, Type 0, BuildingBlock: KOZSID_clean_sbu_0, # of connection points: 4
#     Node 10, Type 0, BuildingBlock: KOZSID_clean_sbu_0, # of connection points: 4
#     Node 11, Type 0, BuildingBlock: KOZSID_clean_sbu_0, # of connection points: 4
#     Node 12, Type 0, BuildingBlock: KOZSID_clean_sbu_0, # of connection points: 4
#     Node 13, Type 0, BuildingBlock: KOZSID_clean_sbu_0, # of connection points: 4
#     Node 14, Type 0, BuildingBlock: KOZSID_clean_sbu_0, # of connection points: 4
#     Node 15, Type 0, BuildingBlock: KOZSID_clean_sbu_0, # of connection points: 4
#     Edge 16, Type (0, 0), BuildingBlock: MIFKUJ_clean_linker_0, # of connection points: 2
#     Edge 17, Type (0, 0), BuildingBlock: MIFKUJ_clean_linker_0, # of connection points: 2
#     Edge 18, Type (0, 0), BuildingBlock: MIFKUJ_clean_linker_0, # of connection points: 2
#     Edge 19, Type (0, 0), BuildingBlock: MIFKUJ_clean_linker_0, # of connection points: 2
#     Edge 20, Type (0, 0), BuildingBlock: MIFKUJ_clean_linker_0, # of connection points: 2
#     Edge 21, Type (0, 0), BuildingBlock: MIFKUJ_clean_linker_0, # of connection points: 2
#     Edge 22, Type (0, 0), BuildingBlock: MIFKUJ_clean_linker_0, # of connection points: 2
#     Edge 23, Type (0, 0), BuildingBlock: MIFKUJ_clean_linker_0, # of connection points: 2
#     Edge 24, Type (0, 0), BuildingBlock: MIFKUJ_clean_linker_0, # of connection points: 2
#     Edge 25, Type (0, 0), BuildingBlock: MIFKUJ_clean_linker_0, # of connection points: 2
#     Edge 26, Type (0, 0), BuildingBlock: MIFKUJ_clean_linker_0, # of connection points: 2
#     Edge 27, Type (0, 0), BuildingBlock: MIFKUJ_clean_linker_0, # of connection points: 2
#     Edge 28, Type (0, 0), BuildingBlock: MIFKUJ_clean_linker_0, # of connection points: 2
#     Edge 29, Type (0, 0), BuildingBlock: MIFKUJ_clean_linker_0, # of connection points: 2
#     Edge 30, Type (0, 0), BuildingBlock: MIFKUJ_clean_linker_0, # of connection points: 2
#     Edge 31, Type (0, 0), BuildingBlock: MIFKUJ_clean_linker_0, # of connection points: 2
#     Edge 32, Type (0, 0), BuildingBlock: MIFKUJ_clean_linker_0, # of connection points: 2
#     Edge 33, Type (0, 0), BuildingBlock: MIFKUJ_clean_linker_0, # of connection points: 2
#     Edge 34, Type (0, 0), BuildingBlock: MIFKUJ_clean_linker_0, # of connection points: 2
#     Edge 35, Type (0, 0), BuildingBlock: MIFKUJ_clean_linker_0, # of connection points: 2
#     Edge 36, Type (0, 0), BuildingBlock: MIFKUJ_clean_linker_0, # of connection points: 2
#     Edge 37, Type (0, 0), BuildingBlock: MIFKUJ_clean_linker_0, # of connection points: 2
#     Edge 38, Type (0, 0), BuildingBlock: MIFKUJ_clean_linker_0, # of connection points: 2
#     Edge 39, Type (0, 0), BuildingBlock: MIFKUJ_clean_linker_0, # of connection points: 2
#     Edge 40, Type (0, 0), BuildingBlock: MIFKUJ_clean_linker_0, # of connection points: 2
#     Edge 41, Type (0, 0), BuildingBlock: MIFKUJ_clean_linker_0, # of connection points: 2
#     Edge 42, Type (0, 0), BuildingBlock: MIFKUJ_clean_linker_0, # of connection points: 2
#     Edge 43, Type (0, 0), BuildingBlock: MIFKUJ_clean_linker_0, # of connection points: 2
#     Edge 44, Type (0, 0), BuildingBlock: MIFKUJ_clean_linker_0, # of connection points: 2
#     Edge 45, Type (0, 0), BuildingBlock: MIFKUJ_clean_linker_0, # of connection points: 2
#     Edge 46, Type (0, 0), BuildingBlock: MIFKUJ_clean_linker_0, # of connection points: 2
#     Edge 47, Type (0, 0), BuildingBlock: MIFKUJ_clean_linker_0, # of connection points: 2
# Relax obj value: 0.054
# Max RMSD: 0.237
# Mean RMSD: 0.213
data_MOF--net-ume--node1-KOZSID_clean_sbu_0--edge1-MIFKUJ_clean_linker_0
_symmetry_space_group_name_H-M    P1
_symmetry_Int_Tables_number       1
_symmetry_cell_setting            triclinic
loop_
_symmetry_equiv_pos_as_xyz
'x, y, z'
_cell_length_a     41.11015
_cell_length_b     47.105427
_cell_length_c     167.6462
_cell_angle_alpha  89.890287
_cell_angle_beta   89.905535
_cell_angle_gamma 90.021598
loop_
_atom_site_label
_atom_site_type_symbol
_atom_site_fract_x
_atom_site_fract_y
_atom_site_fract_z
_atom_type_partial_charge
C0 C 0.32166 0.0796 0.31427 0.0
C1 C 0.33584 0.10578 0.31579 0.0
C2 C 0.31388 0.12606 0.31338 0.0
C3 C 0.28755 0.11124 0.31054 0.0
N4 N 0.29153 0.08295 0.3111 0.0
Co5 Co 0.26003 0.05411 0.30729 0.0
N6 N 0.22366 0.08185 0.30693 0.0
C7 C 0.22689 0.11025 0.30678 0.0
C8 C 0.19736 0.12398 0.30662 0.0
C9 C 0.17424 0.10284 0.30665 0.0
C10 C 0.19095 0.0773 0.30684 0.0
N11 N 0.22846 0.02531 0.30343 0.0
C12 C 0.19545 0.02543 0.30359 0.0
C13 C 0.18299 1.00062 0.30033 0.0
C14 C 0.20913 0.9846 0.29801 0.0
C15 C 0.23601 1.00037 0.29999 0.0
N16 N 0.29573 0.02582 0.30763 0.0
C17 C 0.29598 1.00061 0.30385 0.0
C18 C 0.32394 0.98543 0.30512 0.0
C19 C 0.34262 1.00227 0.30993 0.0
C20 C 0.32494 0.02694 0.31133 0.0
N21 N 0.24921 0.04529 0.31855 0.0
C22 C 0.24706 0.03599 0.33525 0.0
C23 C 0.24963 0.01316 0.32987 0.0
C24 C 0.25068 0.01825 0.32156 0.0
C25 C 0.2434 0.06322 0.33199 0.0
C26 C 0.24438 0.06736 0.32372 0.0
N27 N 0.27252 0.06426 0.29613 0.0
C28 C 0.31551 0.07976 0.28719 0.0
C29 C 0.29317 0.08852 0.28139 0.0
C30 C 0.25999 0.08322 0.28298 0.0
C31 C 0.25018 0.07119 0.29037 0.0
C32 C 0.30489 0.0677 0.29438 0.0
H33 H 0.22452 0.06841 0.29154 0.0
H34 H 0.3233 0.06233 0.29867 0.0
H35 H 0.25405 1.00046 0.31759 0.0
H36 H 0.24277 0.08883 0.32156 0.0
C37 C 0.25734 0.12275 0.30829 0.0
C38 C 0.33845 0.05218 0.31527 0.0
C39 C 0.17531 0.04914 0.30641 0.0
C40 C 0.26793 0.99027 0.30017 0.0
H41 H 0.35971 0.10976 0.31825 0.0
H42 H 0.31655 0.14886 0.31383 0.0
H43 H 0.19307 0.14664 0.30682 0.0
H44 H 0.14814 0.10581 0.30654 0.0
H45 H 0.15773 0.99459 0.29974 0.0
H46 H 0.20857 0.96338 0.29555 0.0
H47 H 0.32979 0.96439 0.30298 0.0
H48 H 0.36686 0.99726 0.31198 0.0
H49 H 0.25229 0.99165 0.33206 0.0
H50 H 0.24045 0.08153 0.33582 0.0
H51 H 0.34139 0.08257 0.28624 0.0
H52 H 0.24162 0.08935 0.27869 0.0
C53 C 0.95915 0.77397 0.54803 0.0
C54 C 0.98463 0.77353 0.54259 0.0
C55 C 0.01045 0.76056 0.54635 0.0
C56 C 0.99964 0.75399 0.5539 0.0
N57 N 0.96867 0.76207 0.55508 0.0
Co58 Co 0.94485 0.75958 0.56539 0.0
N59 N 0.98527 0.75509 0.57175 0.0
C60 C 0.01422 0.74704 0.56875 0.0
C61 C 0.03777 0.7447 0.57452 0.0
C62 C 0.02252 0.75131 0.58158 0.0
C63 C 0.99033 0.75728 0.57975 0.0
N64 N 0.9203 0.75783 0.5756 0.0
C65 C 0.93059 0.7607 0.58326 0.0
C66 C 0.90492 0.75685 0.58856 0.0
C67 C 0.8779 0.75108 0.58407 0.0
C68 C 0.88842 0.75169 0.5763 0.0
N69 N 0.90439 0.76342 0.55907 0.0
C70 C 0.87451 0.75554 0.56148 0.0
C71 C 0.85113 0.76015 0.55578 0.0
C72 C 0.86736 0.77176 0.5494 0.0
C73 C 0.89982 0.7738 0.5516 0.0
N74 N 0.94295 0.71754 0.56445 0.0
C75 C 0.95465 0.65828 0.563 0.0
C76 C 0.95406 0.67178 0.57047 0.0
C77 C 0.94837 0.70105 0.57105 0.0
C78 C 0.94683 0.67512 0.55631 0.0
C79 C 0.94083 0.70449 0.55717 0.0
N80 N 0.94846 0.8011 0.5663 0.0
C81 C 0.9258 0.84819 0.56776 0.0
C82 C 0.95655 0.86053 0.56639 0.0
C83 C 0.98297 0.84229 0.56525 0.0
C84 C 0.97844 0.81306 0.56519 0.0
C85 C 0.92227 0.81836 0.56768 0.0
H86 H 0.9995 0.80018 0.56409 0.0
H87 H 0.89844 0.80927 0.56862 0.0
H88 H 0.94992 0.71043 0.57689 0.0
H89 H 0.93592 0.71685 0.55187 0.0
C90 C 0.01924 0.74628 0.56043 0.0
C91 C 0.92577 0.78454 0.54634 0.0
C92 C 0.96481 0.76302 0.58577 0.0
C93 C 0.8686 0.74974 0.56954 0.0
H94 H 0.98498 0.78206 0.53661 0.0
H95 H 0.0348 0.75791 0.544 0.0
H96 H 0.06322 0.73966 0.57368 0.0
H97 H 0.03376 0.75148 0.58741 0.0
H98 H 0.90577 0.75723 0.59501 0.0
H99 H 0.85345 0.74723 0.58622 0.0
H100 H 0.82516 0.75687 0.55633 0.0
H101 H 0.85651 0.77816 0.5438 0.0
H102 H 0.95865 0.65998 0.5759 0.0
H103 H 0.94664 0.66605 0.55039 0.0
H104 H 0.9046 0.86139 0.5687 0.0
H105 H 0.00735 0.85049 0.56441 0.0
C106 C 0.18686 0.43742 0.81327 0.0
C107 C 0.17226 0.41135 0.81472 0.0
C108 C 0.19414 0.39091 0.81239 0.0
C109 C 0.22084 0.40555 0.80965 0.0
N110 N 0.21719 0.43388 0.81021 0.0
Co111 Co 0.24917 0.4625 0.80647 0.0
N112 N 0.28515 0.43435 0.80609 0.0
C113 C 0.28158 0.40599 0.80595 0.0
C114 C 0.31092 0.39196 0.80577 0.0
C115 C 0.3343 0.41288 0.80577 0.0
C116 C 0.31791 0.43857 0.80597 0.0
N117 N 0.28115 0.49109 0.80264 0.0
C118 C 0.31412 0.49057 0.80275 0.0
C119 C 0.32697 0.51531 0.7995 0.0
C120 C 0.30111 0.53169 0.79721 0.0
C121 C 0.27403 0.5162 0.79922 0.0
N122 N 0.21396 0.49124 0.80685 0.0
C123 C 0.21421 0.51665 0.80314 0.0
C124 C 0.1866 0.53222 0.80448 0.0
C125 C 0.1676 0.51542 0.80923 0.0
C126 C 0.18469 0.49036 0.81053 0.0
N127 N 0.25988 0.47087 0.81776 0.0
C128 C 0.26176 0.47959 0.83449 0.0
C129 C 0.25936 0.5026 0.82914 0.0
C130 C 0.25852 0.4978 0.82082 0.0
C131 C 0.26539 0.45246 0.83118 0.0
C132 C 0.26446 0.44861 0.8229 0.0
N133 N 0.23679 0.45282 0.79529 0.0
C134 C 0.19362 0.43955 0.78617 0.0
C135 C 0.21583 0.43003 0.78041 0.0
C136 C 0.24917 0.43318 0.78223 0.0
C137 C 0.25909 0.44483 0.78963 0.0
C138 C 0.20439 0.4507 0.79344 0.0
H139 H 0.2848 0.44657 0.79086 0.0
H140 H 0.186 0.45642 0.7977 0.0
H141 H 0.25537 0.51576 0.81688 0.0
H142 H 0.26595 0.4272 0.82071 0.0
C143 C 0.25095 0.39376 0.80743 0.0
C144 C 0.17026 0.46493 0.8142 0.0
C145 C 0.33387 0.46656 0.8055 0.0
C146 C 0.24235 0.52674 0.79944 0.0
H147 H 0.14815 0.40755 0.81709 0.0
H148 H 0.19113 0.36813 0.8128 0.0
H149 H 0.31492 0.36926 0.80595 0.0
H150 H 0.36036 0.40965 0.80563 0.0
H151 H 0.35233 0.52104 0.79887 0.0
H152 H 0.30199 0.55295 0.79476 0.0
H153 H 0.18116 0.55344 0.80238 0.0
H154 H 0.14341 0.52066 0.81127 0.0
H155 H 0.25671 0.52405 0.83135 0.0
H156 H 0.2683 0.43399 0.83496 0.0
H157 H 0.16768 0.43738 0.78524 0.0
H158 H 0.26754 0.4266 0.77798 0.0
C159 C 0.54775 0.74671 0.04843 0.0
C160 C 0.52365 0.74911 0.0427 0.0
C161 C 0.49755 0.76212 0.04634 0.0
C162 C 0.50708 0.76705 0.05407 0.0
N163 N 0.53749 0.75792 0.0555 0.0
Co164 Co 0.56016 0.7599 0.06593 0.0
N165 N 0.51904 0.76513 0.07201 0.0
C166 C 0.49069 0.77379 0.06882 0.0
C167 C 0.4665 0.77656 0.07443 0.0
C168 C 0.48067 0.76957 0.08159 0.0
C169 C 0.5129 0.76296 0.07998 0.0
N170 N 0.58342 0.76123 0.07632 0.0
C171 C 0.57205 0.75862 0.0839 0.0
C172 C 0.59711 0.76183 0.08938 0.0
C173 C 0.62489 0.76683 0.08508 0.0
C174 C 0.61538 0.76645 0.07725 0.0
N175 N 0.60137 0.75518 0.05986 0.0
C176 C 0.63133 0.76136 0.06258 0.0
C177 C 0.65543 0.75479 0.05722 0.0
C178 C 0.6397 0.74379 0.05073 0.0
C179 C 0.60664 0.74451 0.05245 0.0
N180 N 0.56323 0.80188 0.06495 0.0
C181 C 0.55369 0.86132 0.0633 0.0
C182 C 0.55224 0.84795 0.07078 0.0
C183 C 0.55702 0.81855 0.07147 0.0
C184 C 0.56185 0.84425 0.05671 0.0
C185 C 0.5669 0.81479 0.05767 0.0
N186 N 0.55542 0.71846 0.06687 0.0
C187 C 0.57679 0.67106 0.06867 0.0
C188 C 0.54599 0.65915 0.06714 0.0
C189 C 0.52015 0.6778 0.06571 0.0
C190 C 0.52536 0.70698 0.06555 0.0
C191 C 0.58098 0.7008 0.06852 0.0
H192 H 0.50478 0.72021 0.06424 0.0
H193 H 0.60486 0.70949 0.06962 0.0
H194 H 0.55399 0.80923 0.07729 0.0
H195 H 0.57249 0.80229 0.05246 0.0
C196 C 0.4868 0.775 0.06047 0.0
C197 C 0.58089 0.73574 0.04686 0.0
C198 C 0.53751 0.75673 0.08617 0.0
C199 C 0.63622 0.7672 0.07065 0.0
H200 H 0.52488 0.74221 0.03655 0.0
H201 H 0.47396 0.76631 0.04373 0.0
H202 H 0.44132 0.78221 0.07342 0.0
H203 H 0.46874 0.76964 0.08735 0.0
H204 H 0.59541 0.76136 0.09582 0.0
H205 H 0.6492 0.76985 0.0874 0.0
H206 H 0.68146 0.75613 0.05812 0.0
H207 H 0.65146 0.73574 0.04542 0.0
H208 H 0.5459 0.85985 0.07608 0.0
H209 H 0.56399 0.85348 0.05081 0.0
H210 H 0.5976 0.65759 0.06982 0.0
H211 H 0.4957 0.67001 0.06473 0.0
C212 C 0.32028 0.43832 0.94272 0.0
C213 C 0.33495 0.41228 0.9413 0.0
C214 C 0.31306 0.39179 0.94361 0.0
C215 C 0.2863 0.40635 0.94632 0.0
N216 N 0.2899 0.4347 0.94575 0.0
Co217 Co 0.25783 0.46317 0.9495 0.0
N218 N 0.22186 0.43493 0.94991 0.0
C219 C 0.22551 0.40657 0.95 0.0
C220 C 0.19621 0.39248 0.95004 0.0
C221 C 0.17276 0.41332 0.94999 0.0
C222 C 0.18906 0.43909 0.94995 0.0
N223 N 0.22577 0.49159 0.95334 0.0
C224 C 0.1928 0.49095 0.95322 0.0
C225 C 0.17983 0.51523 0.95666 0.0
C226 C 0.20564 0.53169 0.95895 0.0
C227 C 0.23282 0.51655 0.95681 0.0
N228 N 0.29297 0.49204 0.94908 0.0
C229 C 0.29252 0.51754 0.95271 0.0
C230 C 0.31989 0.53335 0.95126 0.0
C231 C 0.339 0.51664 0.94651 0.0
C232 C 0.32223 0.49131 0.94537 0.0
N233 N 0.24689 0.47162 0.93823 0.0
C234 C 0.24231 0.48092 0.92151 0.0
C235 C 0.24543 0.50372 0.9269 0.0
C236 C 0.24749 0.49865 0.9352 0.0
C237 C 0.24027 0.45357 0.92481 0.0
C238 C 0.24244 0.44945 0.93307 0.0
N239 N 0.27038 0.45342 0.96068 0.0
C240 C 0.31369 0.44028 0.96981 0.0
C241 C 0.29157 0.43071 0.9756 0.0
C242 C 0.25821 0.43376 0.97379 0.0
C243 C 0.24817 0.44533 0.96637 0.0
C244 C 0.30279 0.45141 0.96253 0.0
H245 H 0.22244 0.44697 0.96515 0.0
H246 H 0.32113 0.45724 0.95826 0.0
H247 H 0.25056 0.51654 0.93915 0.0
H248 H 0.2419 0.42794 0.93523 0.0
C249 C 0.25618 0.39449 0.94852 0.0
C250 C 0.33699 0.46583 0.94184 0.0
C251 C 0.1731 0.46716 0.95031 0.0
C252 C 0.26441 0.52735 0.9565 0.0
H253 H 0.35914 0.40853 0.93897 0.0
H254 H 0.31612 0.36901 0.94323 0.0
H255 H 0.19228 0.36978 0.94974 0.0
H256 H 0.14674 0.4099 0.94993 0.0
H257 H 0.1544 0.52051 0.95743 0.0
H258 H 0.20464 0.55276 0.9615 0.0
H259 H 0.32508 0.5547 0.95327 0.0
H260 H 0.363 0.52217 0.94434 0.0
H261 H 0.24656 0.52537 0.92474 0.0
H262 H 0.23833 0.43504 0.92104 0.0
H263 H 0.33964 0.43822 0.97072 0.0
H264 H 0.23988 0.42718 0.97805 0.0
C265 C 0.54878 0.77389 0.2104 0.0
C266 C 0.52481 0.77103 0.21617 0.0
C267 C 0.49878 0.75795 0.21255 0.0
C268 C 0.50823 0.75346 0.20477 0.0
N269 N 0.53851 0.76293 0.20332 0.0
Co270 Co 0.56102 0.76151 0.19283 0.0
N271 N 0.51981 0.75612 0.18682 0.0
C272 C 0.49163 0.74708 0.19005 0.0
C273 C 0.46746 0.74386 0.18448 0.0
C274 C 0.48145 0.75095 0.17729 0.0
C275 C 0.51351 0.75818 0.17887 0.0
N276 N 0.5841 0.76074 0.18238 0.0
C277 C 0.57252 0.76342 0.17483 0.0
C278 C 0.59764 0.76167 0.16929 0.0
C279 C 0.62564 0.75714 0.17351 0.0
C280 C 0.61623 0.75653 0.18137 0.0
N281 N 0.60232 0.76648 0.19884 0.0
C282 C 0.63234 0.76098 0.19603 0.0
C283 C 0.65643 0.76757 0.20138 0.0
C284 C 0.64064 0.77788 0.20796 0.0
C285 C 0.60756 0.77679 0.2063 0.0
N286 N 0.5646 0.71953 0.19369 0.0
C287 C 0.55563 0.65996 0.19516 0.0
C288 C 0.55414 0.6736 0.18772 0.0
C289 C 0.55862 0.70305 0.18712 0.0
C290 C 0.56356 0.67685 0.2018 0.0
C291 C 0.56835 0.70638 0.20093 0.0
N292 N 0.55581 0.80293 0.19198 0.0
C293 C 0.57646 0.85042 0.18985 0.0
C294 C 0.54566 0.86213 0.19151 0.0
C295 C 0.5202 0.84333 0.19322 0.0
C296 C 0.52575 0.8142 0.19346 0.0
C297 C 0.58102 0.82075 0.19012 0.0
H298 H 0.50543 0.8008 0.19491 0.0
H299 H 0.60489 0.81224 0.18891 0.0
H300 H 0.55553 0.71254 0.18133 0.0
H301 H 0.5738 0.71872 0.20618 0.0
C302 C 0.48792 0.74555 0.1984 0.0
C303 C 0.58181 0.78502 0.21196 0.0
C304 C 0.53791 0.76434 0.17262 0.0
C305 C 0.63719 0.75585 0.18792 0.0
H306 H 0.52609 0.77763 0.22234 0.0
H307 H 0.47531 0.75342 0.21519 0.0
H308 H 0.44245 0.73767 0.18552 0.0
H309 H 0.46962 0.75041 0.17153 0.0
H310 H 0.59586 0.76294 0.16286 0.0
H311 H 0.65004 0.75519 0.17114 0.0
H312 H 0.68246 0.76673 0.20042 0.0
H313 H 0.65235 0.78578 0.21328 0.0
H314 H 0.54799 0.66184 0.18239 0.0
H315 H 0.56572 0.66739 0.20767 0.0
H316 H 0.59698 0.86402 0.18849 0.0
H317 H 0.49577 0.85099 0.19433 0.0
C318 C 0.18624 0.07922 0.44284 0.0
C319 C 0.17247 0.1055 0.44123 0.0
C320 C 0.19456 0.12562 0.44365 0.0
C321 C 0.22055 0.1106 0.44661 0.0
N322 N 0.21626 0.08234 0.4461 0.0
Co323 Co 0.24722 0.05328 0.45006 0.0
N324 N 0.28392 0.08071 0.45049 0.0
C325 C 0.28098 0.10914 0.45057 0.0
C326 C 0.31061 0.12267 0.45083 0.0
C327 C 0.33351 0.10137 0.45094 0.0
C328 C 0.31658 0.07593 0.45072 0.0
N329 N 0.27827 0.02423 0.45407 0.0
C330 C 0.31131 0.024 0.45401 0.0
C331 C 0.32315 0.99877 0.45718 0.0
C332 C 0.29668 0.98304 0.45944 0.0
C333 C 0.27019 0.99927 0.45746 0.0
N334 N 0.21115 0.02531 0.44967 0.0
C335 C 0.21038 1.00016 0.4535 0.0
C336 C 0.18231 0.9852 0.45218 0.0
C337 C 0.16407 1.00211 0.44728 0.0
C338 C 0.18213 0.02663 0.44589 0.0
N339 N 0.25853 0.04427 0.43885 0.0
C340 C 0.26341 0.03468 0.42218 0.0
C341 C 0.25896 0.01205 0.42759 0.0
C342 C 0.25678 0.01725 0.43588 0.0
C343 C 0.26661 0.06196 0.42543 0.0
C344 C 0.26427 0.06622 0.43368 0.0
N345 N 0.23433 0.06363 0.46116 0.0
C346 C 0.19123 0.07985 0.46995 0.0
C347 C 0.21348 0.08812 0.47582 0.0
C348 C 0.2466 0.08224 0.47435 0.0
C349 C 0.25651 0.07012 0.46699 0.0
C350 C 0.20195 0.06761 0.4628 0.0
H351 H 0.28217 0.06691 0.46591 0.0
H352 H 0.18366 0.06252 0.45846 0.0
H353 H 0.25264 0.99954 0.43985 0.0
H354 H 0.26566 0.08772 0.4358 0.0
C355 C 0.25077 0.12187 0.44894 0.0
C356 C 0.16914 0.05194 0.44186 0.0
C357 C 0.332 0.04771 0.45135 0.0
C358 C 0.23815 0.98955 0.45723 0.0
H359 H 0.14878 0.10966 0.43868 0.0
H360 H 0.19219 0.14844 0.44316 0.0
H361 H 0.31515 0.1453 0.45063 0.0
H362 H 0.35962 0.10419 0.45119 0.0
H363 H 0.34821 0.99213 0.45775 0.0
H364 H 0.29676 0.96169 0.46183 0.0
H365 H 0.17616 0.96421 0.45435 0.0
H366 H 0.1399 0.99715 0.44516 0.0
H367 H 0.25689 0.99044 0.42546 0.0
H368 H 0.26958 0.08038 0.42163 0.0
H369 H 0.16539 0.08317 0.47081 0.0
H370 H 0.26486 0.08798 0.4787 0.0
C371 C 0.95973 0.74343 0.71024 0.0
C372 C 0.98479 0.74508 0.71574 0.0
C373 C 0.01047 0.75819 0.71194 0.0
C374 C 0.99989 0.76374 0.70432 0.0
N375 N 0.96921 0.75489 0.70312 0.0
Co376 Co 0.94543 0.75695 0.69281 0.0
N377 N 0.98588 0.7621 0.68646 0.0
C378 C 0.0146 0.77068 0.68947 0.0
C379 C 0.03809 0.77378 0.68369 0.0
C380 C 0.02304 0.76711 0.67661 0.0
C381 C 0.99109 0.76021 0.67845 0.0
N382 N 0.92098 0.75838 0.68259 0.0
C383 C 0.93147 0.75582 0.67494 0.0
C384 C 0.90563 0.75816 0.66964 0.0
C385 C 0.87833 0.76306 0.67412 0.0
C386 C 0.88883 0.76325 0.68188 0.0
N387 N 0.90494 0.75225 0.69915 0.0
C388 C 0.87478 0.75899 0.69671 0.0
C389 C 0.85142 0.75343 0.70237 0.0
C390 C 0.86794 0.7424 0.70876 0.0
C391 C 0.90055 0.74169 0.70662 0.0
N392 N 0.94258 0.79893 0.69378 0.0
C393 C 0.95215 0.85841 0.69527 0.0
C394 C 0.95284 0.84498 0.68781 0.0
C395 C 0.94803 0.81558 0.6872 0.0
C396 C 0.94478 0.84134 0.70195 0.0
C397 C 0.93973 0.81185 0.70106 0.0
N398 N 0.9499 0.71551 0.69186 0.0
C399 C 0.92819 0.66825 0.69005 0.0
C400 C 0.95909 0.65622 0.69138 0.0
C401 C 0.98512 0.67474 0.69272 0.0
C402 C 0.98003 0.70392 0.69299 0.0
C403 C 0.92412 0.69798 0.69032 0.0
H404 H 1.00078 0.71706 0.69421 0.0
H405 H 0.90018 0.70677 0.68937 0.0
H406 H 0.9504 0.80626 0.68137 0.0
H407 H 0.93476 0.79936 0.70633 0.0
C408 C 0.01945 0.7717 0.69778 0.0
C409 C 0.92676 0.73214 0.71194 0.0
C410 C 0.96577 0.75458 0.67241 0.0
C411 C 0.86882 0.76445 0.68864 0.0
H412 H 0.98474 0.7374 0.72183 0.0
H413 H 0.03454 0.76181 0.71434 0.0
H414 H 0.06333 0.77958 0.68452 0.0
H415 H 0.03414 0.7677 0.67075 0.0
H416 H 0.90647 0.75709 0.66319 0.0
H417 H 0.85368 0.7656 0.67198 0.0
H418 H 0.82533 0.75565 0.70177 0.0
H419 H 0.8572 0.73546 0.71433 0.0
H420 H 0.95857 0.85685 0.68245 0.0
H421 H 0.94324 0.8506 0.70784 0.0
H422 H 0.90724 0.65487 0.68898 0.0
H423 H 0.00961 0.66685 0.69356 0.0
C424 C 0.82388 0.58248 0.81174 0.0
C425 C 0.83677 0.60662 0.81526 0.0
C426 C 0.81096 0.62221 0.818 0.0
C427 C 0.78385 0.60683 0.81598 0.0
N428 N 0.79083 0.58263 0.81208 0.0
Co429 Co 0.75849 0.55408 0.80828 0.0
N430 N 0.72081 0.58033 0.8101 0.0
C431 C 0.722 0.60488 0.81421 0.0
C432 C 0.69237 0.61806 0.81488 0.0
C433 C 0.67083 0.60052 0.8111 0.0
C434 C 0.68855 0.57745 0.80835 0.0
N435 N 0.72609 0.52527 0.80452 0.0
C436 C 0.69351 0.52723 0.80318 0.0
C437 C 0.68052 0.50115 0.80097 0.0
C438 C 0.70545 0.48213 0.80104 0.0
C439 C 0.73216 0.4975 0.80327 0.0
N440 N 0.79566 0.52754 0.80649 0.0
C441 C 0.79343 0.49942 0.80511 0.0
C442 C 0.82283 0.4864 0.80402 0.0
C443 C 0.84525 0.5075 0.80481 0.0
C444 C 0.82816 0.53239 0.80636 0.0
N445 N 0.75422 0.54009 0.81945 0.0
C446 C 0.75025 0.53026 0.83613 0.0
C447 C 0.78028 0.53137 0.83218 0.0
C448 C 0.78172 0.53627 0.82394 0.0
C449 C 0.72209 0.53273 0.83143 0.0
C450 C 0.72458 0.53724 0.82312 0.0
N451 N 0.76435 0.56914 0.79724 0.0
C452 C 0.78544 0.56332 0.78378 0.0
C453 C 0.78778 0.59294 0.78265 0.0
C454 C 0.77583 0.61005 0.78886 0.0
C455 C 0.76437 0.5979 0.796 0.0
C456 C 0.77356 0.55195 0.79104 0.0
H457 H 0.75692 0.61215 0.80066 0.0
H458 H 0.77324 0.5292 0.79174 0.0
H459 H 0.80547 0.53812 0.82131 0.0
H460 H 0.70242 0.53924 0.81977 0.0
C461 C 0.75165 0.61567 0.81692 0.0
C462 C 0.84392 0.55908 0.80868 0.0
C463 C 0.67317 0.55212 0.80487 0.0
C464 C 0.76347 0.48673 0.80384 0.0
H465 H 0.86219 0.61218 0.81587 0.0
H466 H 0.81187 0.64257 0.82097 0.0
H467 H 0.68704 0.63803 0.81778 0.0
H468 H 0.64486 0.60388 0.81062 0.0
H469 H 0.65542 0.49599 0.79971 0.0
H470 H 0.70422 0.45971 0.79966 0.0
H471 H 0.82738 0.46433 0.80263 0.0
H472 H 0.87127 0.50459 0.80444 0.0
H473 H 0.80284 0.52975 0.83548 0.0
H474 H 0.6982 0.53144 0.83414 0.0
H475 H 0.79399 0.54885 0.77923 0.0
H476 H 0.77577 0.63294 0.78831 0.0
C477 C 0.45827 0.27486 0.04756 0.0
C478 C 0.4834 0.27364 0.04204 0.0
C479 C 0.50932 0.26091 0.04582 0.0
C480 C 0.4988 0.25515 0.05345 0.0
N481 N 0.46795 0.26351 0.05467 0.0
Co482 Co 0.44416 0.26112 0.06498 0.0
N483 N 0.48465 0.2566 0.07131 0.0
C484 C 0.51352 0.24839 0.0683 0.0
C485 C 0.537 0.24564 0.07408 0.0
C486 C 0.52179 0.25217 0.08115 0.0
C487 C 0.48974 0.25864 0.07931 0.0
N488 N 0.41966 0.25946 0.07521 0.0
C489 C 0.43005 0.26235 0.08285 0.0
C490 C 0.40428 0.25943 0.08817 0.0
C491 C 0.37713 0.25392 0.08371 0.0
C492 C 0.38765 0.25392 0.07594 0.0
N493 N 0.40363 0.2651 0.05867 0.0
C494 C 0.37362 0.25776 0.06112 0.0
C495 C 0.35019 0.26281 0.05546 0.0
C496 C 0.36649 0.27414 0.04906 0.0
C497 C 0.39905 0.27551 0.0512 0.0
N498 N 0.44219 0.21904 0.06407 0.0
C499 C 0.45443 0.15978 0.0628 0.0
C500 C 0.45314 0.17348 0.07023 0.0
C501 C 0.44725 0.20272 0.07073 0.0
C502 C 0.4469 0.17639 0.05604 0.0
C503 C 0.44059 0.20577 0.05681 0.0
N504 N 0.44788 0.30262 0.06594 0.0
C505 C 0.42571 0.34939 0.06833 0.0
C506 C 0.45677 0.36161 0.0675 0.0
C507 C 0.48286 0.34371 0.06573 0.0
C508 C 0.47792 0.31463 0.06493 0.0
C509 C 0.42183 0.31974 0.0676 0.0
H510 H 0.49875 0.30188 0.06348 0.0
H511 H 0.39794 0.31064 0.0684 0.0
H512 H 0.44845 0.21221 0.07655 0.0
H513 H 0.43591 0.21795 0.05147 0.0
C514 C 0.51847 0.24746 0.05998 0.0
C515 C 0.42506 0.2856 0.04588 0.0
C516 C 0.46431 0.26423 0.08535 0.0
C517 C 0.36772 0.25222 0.06919 0.0
H518 H 0.48324 0.28135 0.03596 0.0
H519 H 0.53347 0.25768 0.04341 0.0
H520 H 0.56235 0.24019 0.07324 0.0
H521 H 0.53285 0.25182 0.08701 0.0
H522 H 0.40513 0.26044 0.09461 0.0
H523 H 0.35257 0.2508 0.08587 0.0
H524 H 0.32416 0.26006 0.05607 0.0
H525 H 0.35564 0.28082 0.04349 0.0
H526 H 0.45739 0.16188 0.07571 0.0
H527 H 0.44721 0.16715 0.05014 0.0
H528 H 0.4048 0.36251 0.06968 0.0
H529 H 0.50713 0.35218 0.06489 0.0
C530 C 0.68606 0.94015 0.31444 0.0
C531 C 0.67155 0.91419 0.3161 0.0
C532 C 0.69324 0.89357 0.31379 0.0
C533 C 0.71981 0.90796 0.31088 0.0
N534 N 0.71623 0.93632 0.3113 0.0
Co535 Co 0.74855 0.96463 0.30757 0.0
N536 N 0.7845 0.93641 0.3074 0.0
C537 C 0.78078 0.90805 0.30736 0.0
C538 C 0.81005 0.89391 0.3073 0.0
C539 C 0.83355 0.91473 0.30729 0.0
C540 C 0.81731 0.94051 0.30736 0.0
N541 N 0.78087 0.99296 0.30373 0.0
C542 C 0.81387 0.99244 0.30396 0.0
C543 C 0.82686 0.0172 0.30076 0.0
C544 C 0.80112 0.03349 0.29833 0.0
C545 C 0.77392 0.01798 0.30023 0.0
N546 N 0.71335 0.99342 0.30774 0.0
C547 C 0.71369 0.01847 0.30385 0.0
C548 C 0.68586 0.03398 0.30495 0.0
C549 C 0.66667 0.01756 0.30978 0.0
C550 C 0.68392 0.9928 0.31137 0.0
N551 N 0.75878 0.97346 0.31884 0.0
C552 C 0.76062 0.9829 0.33553 0.0
C553 C 0.75852 1.00571 0.3301 0.0
C554 C 0.75764 1.00055 0.3218 0.0
C555 C 0.76389 0.9556 0.33232 0.0
C556 C 0.76301 0.95139 0.32406 0.0
N557 N 0.73667 0.95446 0.29638 0.0
C558 C 0.69388 0.94184 0.28706 0.0
C559 C 0.71631 0.93122 0.28152 0.0
C560 C 0.74952 0.93342 0.28351 0.0
C561 C 0.75919 0.94549 0.29088 0.0
C562 C 0.70436 0.95295 0.29437 0.0
H563 H 0.78483 0.94674 0.29222 0.0
H564 H 0.68577 0.95919 0.29852 0.0
H565 H 0.75471 0.01834 0.31779 0.0
H566 H 0.7643 0.92988 0.32196 0.0
C567 C 0.75 0.89601 0.30879 0.0
C568 C 0.66986 0.9679 0.31541 0.0
C569 C 0.83354 0.96841 0.30678 0.0
C570 C 0.74215 0.0284 0.30025 0.0
H571 H 0.64774 0.91053 0.31867 0.0
H572 H 0.69031 0.87083 0.31439 0.0
H573 H 0.81392 0.87121 0.30757 0.0
H574 H 0.85959 0.91139 0.30722 0.0
H575 H 0.85222 0.02306 0.30025 0.0
H576 H 0.80211 0.05471 0.29586 0.0
H577 H 0.68045 0.055 0.30269 0.0
H578 H 0.64244 0.02298 0.31174 0.0
H579 H 0.75616 0.02727 0.33225 0.0
H580 H 0.76649 0.93728 0.33618 0.0
H581 H 0.668 0.94048 0.28591 0.0
H582 H 0.76794 0.92582 0.27942 0.0
C583 C 0.0449 0.24316 0.54753 0.0
C584 C 0.0195 0.24368 0.5421 0.0
C585 C 0.99363 0.25657 0.54586 0.0
C586 C 0.00437 0.26305 0.55341 0.0
N587 N 0.03534 0.25496 0.55459 0.0
Co588 Co 0.05923 0.2578 0.56485 0.0
N589 N 0.01883 0.26236 0.57123 0.0
C590 C 0.98982 0.27024 0.56825 0.0
C591 C 0.96629 0.2725 0.57405 0.0
C592 C 0.98161 0.26599 0.58111 0.0
C593 C 0.01382 0.26013 0.57924 0.0
N594 N 0.08383 0.25997 0.57502 0.0
C595 C 0.07359 0.25715 0.58269 0.0
C596 C 0.09924 0.26127 0.58795 0.0
C597 C 0.12619 0.26714 0.58342 0.0
C598 C 0.11566 0.26631 0.57566 0.0
N599 N 0.09968 0.2538 0.5585 0.0
C600 C 0.12956 0.26179 0.56085 0.0
C601 C 0.15293 0.25702 0.55514 0.0
C602 C 0.1367 0.24522 0.54882 0.0
C603 C 0.10424 0.24325 0.55106 0.0
N604 N 0.06106 0.29979 0.56376 0.0
C605 C 0.0512 0.35923 0.56219 0.0
C606 C 0.05059 0.34581 0.56967 0.0
C607 C 0.0555 0.31644 0.57032 0.0
C608 C 0.05842 0.34215 0.55553 0.0
C609 C 0.06359 0.31267 0.55645 0.0
N610 N 0.05575 0.21632 0.56596 0.0
C611 C 0.0783 0.16965 0.56831 0.0
C612 C 0.0473 0.15729 0.56755 0.0
C613 C 0.02103 0.17508 0.56587 0.0
C614 C 0.02575 0.20418 0.56505 0.0
C615 C 0.08196 0.19934 0.56757 0.0
H616 H 0.0048 0.21682 0.56364 0.0
H617 H 0.10582 0.20856 0.56831 0.0
H618 H 0.05324 0.30714 0.57616 0.0
H619 H 0.06853 0.30016 0.55119 0.0
C620 C 0.98475 0.27084 0.55994 0.0
C621 C 0.07825 0.2326 0.54584 0.0
C622 C 0.03942 0.25442 0.58523 0.0
C623 C 0.13548 0.268 0.56888 0.0
H624 H 0.01931 0.23531 0.5361 0.0
H625 H 0.96932 0.25931 0.54351 0.0
H626 H 0.94079 0.2774 0.57323 0.0
H627 H 0.97041 0.26577 0.58695 0.0
H628 H 0.09841 0.26094 0.5944 0.0
H629 H 0.15063 0.27111 0.58554 0.0
H630 H 0.17889 0.26039 0.55565 0.0
H631 H 0.14753 0.23872 0.54323 0.0
H632 H 0.0449 0.35768 0.57502 0.0
H633 H 0.05981 0.3514 0.54962 0.0
H634 H 0.09934 0.15661 0.56959 0.0
H635 H 0.99679 0.1665 0.56507 0.0
C636 C 0.82147 0.94086 0.44324 0.0
C637 C 0.83581 0.91479 0.44168 0.0
C638 C 0.81399 0.89434 0.44407 0.0
C639 C 0.78757 0.90897 0.44695 0.0
N640 N 0.79136 0.93729 0.44643 0.0
Co641 Co 0.75978 0.96586 0.45035 0.0
N642 N 0.72361 0.9379 0.45077 0.0
C643 C 0.727 0.90952 0.45086 0.0
C644 C 0.69754 0.89565 0.45104 0.0
C645 C 0.6743 0.91669 0.45107 0.0
C646 C 0.69087 0.94231 0.4509 0.0
N647 N 0.72812 0.99439 0.45433 0.0
C648 C 0.69513 0.99409 0.45422 0.0
C649 C 0.68252 0.01861 0.4576 0.0
C650 C 0.70858 0.03472 0.45992 0.0
C651 C 0.73554 0.01924 0.45783 0.0
N652 N 0.79524 0.9944 0.44997 0.0
C653 C 0.79533 0.0196 0.45376 0.0
C654 C 0.82298 0.03512 0.45237 0.0
C655 C 0.84166 0.01853 0.44749 0.0
C656 C 0.82433 0.99358 0.44619 0.0
N657 N 0.74854 0.97481 0.43914 0.0
C658 C 0.74353 0.98458 0.42246 0.0
C659 C 0.74755 1.00719 0.42788 0.0
C660 C 0.74977 1.00189 0.43616 0.0
C661 C 0.74082 0.95721 0.42572 0.0
C662 C 0.74327 0.95285 0.43396 0.0
N663 N 0.7726 0.9556 0.46148 0.0
C664 C 0.81585 0.94026 0.47033 0.0
C665 C 0.79366 0.93133 0.47617 0.0
C666 C 0.76042 0.93644 0.47464 0.0
C667 C 0.75042 0.94848 0.46727 0.0
C668 C 0.80503 0.95232 0.46317 0.0
H669 H 0.72472 0.95113 0.46616 0.0
H670 H 0.82332 0.95788 0.45885 0.0
H671 H 0.7535 0.01961 0.44013 0.0
H672 H 0.7423 0.9313 0.43608 0.0
C673 C 0.75749 0.89723 0.44927 0.0
C674 C 0.83817 0.96838 0.4423 0.0
C675 C 0.67516 0.97042 0.45133 0.0
C676 C 0.76734 0.02961 0.45757 0.0
H677 H 0.85974 0.91099 0.4392 0.0
H678 H 0.81683 0.87156 0.44361 0.0
H679 H 0.69336 0.87299 0.4508 0.0
H680 H 0.64821 0.91359 0.45119 0.0
H681 H 0.65718 0.02434 0.45829 0.0
H682 H 0.7079 0.05582 0.46246 0.0
H683 H 0.82857 0.05626 0.45449 0.0
H684 H 0.86566 0.02393 0.4453 0.0
H685 H 0.74924 0.02884 0.42575 0.0
H686 H 0.73818 0.93883 0.42191 0.0
H687 H 0.84176 0.93762 0.47123 0.0
H688 H 0.74215 0.93017 0.47895 0.0
C689 C 0.04608 0.27255 0.70948 0.0
C690 C 0.02103 0.27136 0.71502 0.0
C691 C 0.99507 0.25858 0.71128 0.0
C692 C 0.0055 0.25275 0.70366 0.0
N693 N 0.03635 0.26111 0.70241 0.0
Co694 Co 0.0601 0.25853 0.6921 0.0
N695 N 0.01955 0.25397 0.6858 0.0
C696 C 0.99067 0.24582 0.68884 0.0
C697 C 0.96711 0.24313 0.68308 0.0
C698 C 0.98228 0.24964 0.67599 0.0
C699 C 0.01437 0.25603 0.6778 0.0
N700 N 0.08451 0.25664 0.68187 0.0
C701 C 0.07405 0.25945 0.67423 0.0
C702 C 0.09974 0.25637 0.6689 0.0
C703 C 0.12692 0.25086 0.67336 0.0
C704 C 0.1165 0.25103 0.68114 0.0
N705 N 0.10068 0.26258 0.69839 0.0
C706 C 0.13069 0.25528 0.69594 0.0
C707 C 0.15417 0.26064 0.70156 0.0
C708 C 0.13789 0.27212 0.70793 0.0
C709 C 0.10529 0.27325 0.70581 0.0
N710 N 0.062 0.2165 0.69313 0.0
C711 C 0.05007 0.15726 0.69462 0.0
C712 C 0.05086 0.17075 0.68715 0.0
C713 C 0.05664 0.2 0.68654 0.0
C714 C 0.05787 0.17407 0.7013 0.0
C715 C 0.06401 0.20344 0.70042 0.0
N716 N 0.05653 0.30001 0.69105 0.0
C717 C 0.07915 0.34672 0.68877 0.0
C718 C 0.0482 0.35909 0.68959 0.0
C719 C 0.02188 0.34128 0.69126 0.0
C720 C 0.02655 0.31214 0.69202 0.0
C721 C 0.08275 0.31703 0.68944 0.0
H722 H 0.0056 0.29944 0.69344 0.0
H723 H 0.10659 0.30784 0.68866 0.0
H724 H 0.05516 0.20936 0.68069 0.0
H725 H 0.06892 0.2158 0.70571 0.0
C726 C 0.98577 0.24498 0.69716 0.0
C727 C 0.07926 0.28339 0.71111 0.0
C728 C 0.03977 0.26155 0.67175 0.0
C729 C 0.13651 0.24953 0.68788 0.0
H730 H 0.02129 0.27912 0.72109 0.0
H731 H 0.97095 0.25535 0.71372 0.0
H732 H 0.94175 0.23777 0.68394 0.0
H733 H 0.97115 0.24935 0.67015 0.0
H734 H 0.09882 0.2573 0.66246 0.0
H735 H 0.15145 0.24768 0.67118 0.0
H736 H 0.18021 0.25802 0.70095 0.0
H737 H 0.14877 0.27908 0.71347 0.0
H738 H 0.04635 0.15897 0.68172 0.0
H739 H 0.05794 0.165 0.70724 0.0
H740 H 0.10022 0.35977 0.68749 0.0
H741 H 0.99767 0.34988 0.69209 0.0
C742 C 0.68498 0.57716 0.94444 0.0
C743 C 0.66937 0.60283 0.94307 0.0
C744 C 0.69054 0.62385 0.94538 0.0
C745 C 0.71785 0.60995 0.94804 0.0
N746 N 0.71521 0.58155 0.94745 0.0
Co747 Co 0.74827 0.55386 0.9511 0.0
N748 N 0.78335 0.5829 0.95136 0.0
C749 C 0.77887 0.61116 0.95146 0.0
C750 C 0.80777 0.62588 0.95135 0.0
C751 C 0.83182 0.60555 0.95119 0.0
C752 C 0.81625 0.57944 0.95123 0.0
N753 N 0.78126 0.52622 0.95488 0.0
C754 C 0.81417 0.52756 0.95461 0.0
C755 C 0.82803 0.50364 0.95805 0.0
C756 C 0.80282 0.48666 0.96049 0.0
C757 C 0.77508 0.50117 0.95844 0.0
N758 N 0.71411 0.52413 0.95077 0.0
C759 C 0.71533 0.49874 0.95447 0.0
C760 C 0.68841 0.4823 0.95309 0.0
C761 C 0.66881 0.49848 0.94831 0.0
C762 C 0.68488 0.52412 0.94706 0.0
N763 N 0.75908 0.54576 0.93981 0.0
C764 C 0.76118 0.53697 0.92312 0.0
C765 C 0.76039 0.5139 0.92847 0.0
C766 C 0.75931 0.51875 0.93679 0.0
C767 C 0.76312 0.56426 0.92638 0.0
C768 C 0.76221 0.56815 0.93465 0.0
N769 N 0.7357 0.56337 0.9623 0.0
C770 C 0.6919 0.57515 0.97144 0.0
C771 C 0.71329 0.58797 0.97687 0.0
C772 C 0.74679 0.58622 0.97502 0.0
C773 C 0.75744 0.57365 0.96779 0.0
C774 C 0.70332 0.5635 0.96429 0.0
H775 H 0.78319 0.57336 0.9665 0.0
H776 H 0.68525 0.55581 0.96021 0.0
H777 H 0.75731 0.50073 0.94076 0.0
H778 H 0.76251 0.58961 0.93682 0.0
C779 C 0.74771 0.62255 0.95013 0.0
C780 C 0.66955 0.54917 0.94341 0.0
C781 C 0.83295 0.55167 0.95152 0.0
C782 C 0.7438 0.48963 0.95823 0.0
H783 H 0.64511 0.60597 0.94074 0.0
H784 H 0.68671 0.64654 0.94499 0.0
H785 H 0.81103 0.64866 0.95103 0.0
H786 H 0.85773 0.6095 0.95101 0.0
H787 H 0.85364 0.49891 0.9587 0.0
H788 H 0.80456 0.46564 0.96307 0.0
H789 H 0.68385 0.46089 0.95516 0.0
H790 H 0.64497 0.49237 0.94618 0.0
H791 H 0.75913 0.49235 0.92627 0.0
H792 H 0.76467 0.58277 0.92256 0.0
H793 H 0.666 0.5745 0.97257 0.0
H794 H 0.76475 0.59542 0.97895 0.0
C795 C 0.46034 0.24452 0.20955 0.0
C796 C 0.48566 0.24429 0.21501 0.0
C797 C 0.51201 0.25664 0.21128 0.0
C798 C 0.50162 0.26355 0.20373 0.0
N799 N 0.47042 0.25624 0.20251 0.0
Co800 Co 0.44689 0.25966 0.19221 0.0
N801 N 0.48759 0.26327 0.18589 0.0
C802 C 0.51674 0.27051 0.18891 0.0
C803 C 0.54048 0.27231 0.18315 0.0
C804 C 0.52515 0.26616 0.17607 0.0
C805 C 0.49275 0.26097 0.17789 0.0
N806 N 0.42264 0.26235 0.182 0.0
C807 C 0.43301 0.2593 0.17435 0.0
C808 C 0.40767 0.26405 0.16903 0.0
C809 C 0.38078 0.27054 0.17351 0.0
C810 C 0.39104 0.26944 0.18129 0.0
N811 N 0.40619 0.25665 0.19851 0.0
C812 C 0.37663 0.26532 0.1961 0.0
C813 C 0.35296 0.26101 0.20176 0.0
C814 C 0.36865 0.24878 0.20812 0.0
C815 C 0.4011 0.24612 0.20594 0.0
N816 N 0.4464 0.3017 0.19324 0.0
C817 C 0.45897 0.36084 0.19471 0.0
C818 C 0.45846 0.34736 0.18725 0.0
C819 C 0.45236 0.31816 0.18665 0.0
C820 C 0.45078 0.34405 0.2014 0.0
C821 C 0.44438 0.31473 0.20053 0.0
N822 N 0.44903 0.21811 0.19116 0.0
C823 C 0.42486 0.17198 0.18895 0.0
C824 C 0.45543 0.15889 0.18972 0.0
C825 C 0.48234 0.17601 0.19133 0.0
C826 C 0.47862 0.20523 0.19209 0.0
C827 C 0.42224 0.20176 0.18961 0.0
H828 H 0.5 0.21737 0.19346 0.0
H829 H 0.39869 0.21156 0.18886 0.0
H830 H 0.45393 0.30882 0.18081 0.0
H831 H 0.43912 0.30239 0.20581 0.0
C832 C 0.52163 0.27094 0.19723 0.0
C833 C 0.42661 0.23474 0.2112 0.0
C834 C 0.46717 0.25582 0.17187 0.0
C835 C 0.37112 0.27162 0.18805 0.0
H836 H 0.48552 0.23573 0.22099 0.0
H837 H 0.53636 0.2587 0.21366 0.0
H838 H 0.56609 0.27666 0.18401 0.0
H839 H 0.53648 0.26575 0.17025 0.0
H840 H 0.4087 0.26373 0.16258 0.0
H841 H 0.35655 0.27513 0.17135 0.0
H842 H 0.32712 0.26491 0.2012 0.0
H843 H 0.35747 0.24242 0.21369 0.0
H844 H 0.46335 0.35912 0.18183 0.0
H845 H 0.45055 0.35311 0.20732 0.0
H846 H 0.40339 0.15943 0.18772 0.0
H847 H 0.50628 0.1668 0.1921 0.0
H848 H 0.87209 0.97521 0.31997 0.0
H849 H 0.93009 0.98777 0.3204 0.0
H850 H 0.9345 0.98359 0.29471 0.0
H851 H 0.87692 0.96989 0.29436 0.0
H852 H 0.98905 0.9653 0.29992 0.0
H853 H 0.92676 0.04829 0.306 0.0
H854 H 0.88629 0.07686 0.31331 0.0
H855 H 0.94093 0.06663 0.33493 0.0
H856 H 0.9815 0.03761 0.32778 0.0
H857 H 0.1313 0.04911 0.29416 0.0
H858 H 0.0737 0.03517 0.29462 0.0
H859 H 0.07995 0.0255 0.32014 0.0
H860 H 0.13776 0.03924 0.31965 0.0
H861 H 0.02086 0.05059 0.31537 0.0
H862 H 0.08432 0.96831 0.30859 0.0
H863 H 0.12477 0.94171 0.30071 0.0
H864 H 0.0672 0.95329 0.27961 0.0
H865 H 0.02662 0.98036 0.28734 0.0
C866 C 0.88571 0.97637 0.31444 0.0
C867 C 0.86996 0.97151 0.30714 0.0
C868 C 0.91885 0.98397 0.31467 0.0
C869 C 0.937 0.9875 0.30757 0.0
C870 C 0.92145 0.98127 0.3003 0.0
C871 C 0.88846 0.97334 0.30008 0.0
C872 C 0.97164 0.9984 0.30768 0.0
C873 C 0.99572 0.98415 0.30324 0.0
C874 C 0.98113 0.02285 0.31207 0.0
C875 C 0.95699 0.04054 0.31637 0.0
C876 C 0.93005 0.052 0.31233 0.0
C877 C 0.90709 0.06827 0.31644 0.0
C878 C 0.911 0.0735 0.32458 0.0
C879 C 0.93792 0.06253 0.32863 0.0
C880 C 0.9609 0.04617 0.32455 0.0
C881 C 0.12015 0.04455 0.29988 0.0
C882 C 0.13899 0.04543 0.30688 0.0
C883 C 0.08726 0.03634 0.30014 0.0
C884 C 0.07226 0.02886 0.30741 0.0
C885 C 0.09073 0.03108 0.31445 0.0
C886 C 0.12377 0.03905 0.31418 0.0
C887 C 0.03794 0.01753 0.30759 0.0
C888 C 0.01403 0.03171 0.31208 0.0
C889 C 0.0285 0.99326 0.30316 0.0
C890 C 0.05257 0.97657 0.29853 0.0
C891 C 0.08038 0.96533 0.30226 0.0
C892 C 0.10331 0.95015 0.29782 0.0
C893 C 0.09859 0.94586 0.28966 0.0
C894 C 0.07085 0.95666 0.28593 0.0
C895 C 0.04785 0.9719 0.29033 0.0
H896 H 0.1164 0.93414 0.28623 0.0
H897 H 0.8932 0.08611 0.32776 0.0
H898 H 0.93406 0.61752 0.55209 0.0
H899 H 0.95091 0.56785 0.55105 0.0
H900 H 0.01366 0.57841 0.5714 0.0
H901 H 0.99855 0.62822 0.57219 0.0
H902 H 0.04436 0.54784 0.56141 0.0
H903 H 0.93541 0.54255 0.57177 0.0
H904 H 0.87625 0.55125 0.57193 0.0
H905 H 0.86636 0.50766 0.5496 0.0
H906 H 0.92555 0.499 0.54925 0.0
H907 H 0.06837 0.40311 0.57223 0.0
H908 H 0.05223 0.45295 0.57159 0.0
H909 H 0.99979 0.43681 0.54983 0.0
H910 H 0.0153 0.38657 0.55054 0.0
H911 H 0.96381 0.46977 0.55962 0.0
H912 H 0.07328 0.47292 0.54986 0.0
H913 H 0.13232 0.46373 0.5501 0.0
H914 H 0.14099 0.51112 0.57185 0.0
H915 H 0.0819 0.52028 0.57179 0.0
C916 C 0.95167 0.60947 0.55632 0.0
C917 C 0.96446 0.62735 0.56229 0.0
C918 C 0.96105 0.58072 0.55577 0.0
C919 C 0.98328 0.56875 0.56123 0.0
C920 C 0.99638 0.58667 0.56711 0.0
C921 C 0.98726 0.61536 0.56762 0.0
C922 C 0.99327 0.53786 0.56084 0.0
C923 C 0.02658 0.53087 0.56111 0.0
C924 C 0.9705 0.51525 0.56025 0.0
C925 C 0.93494 0.52041 0.56044 0.0
C926 C 0.92064 0.53501 0.56687 0.0
C927 C 0.88711 0.5399 0.56699 0.0
C928 C 0.86758 0.53009 0.56077 0.0
C929 C 0.88153 0.5153 0.55441 0.0
C930 C 0.91506 0.51037 0.55424 0.0
C931 C 0.05336 0.41001 0.5673 0.0
C932 C 0.04324 0.39045 0.56144 0.0
C933 C 0.04431 0.43877 0.5669 0.0
C934 C 0.02488 0.44908 0.56062 0.0
C935 C 0.0148 0.42966 0.55474 0.0
C936 C 0.02401 0.40085 0.55511 0.0
C937 C 0.01477 0.47988 0.5603 0.0
C938 C 0.98151 0.48682 0.55988 0.0
C939 C 0.03756 0.50245 0.56082 0.0
C940 C 0.07311 0.49708 0.56085 0.0
C941 C 0.08774 0.48121 0.55472 0.0
C942 C 0.12122 0.47603 0.55482 0.0
C943 C 0.14038 0.48678 0.56099 0.0
C944 C 0.12611 0.50279 0.56707 0.0
C945 C 0.09263 0.50801 0.567 0.0
H946 H 0.16629 0.48274 0.56106 0.0
H947 H 0.84162 0.5339 0.56088 0.0
H948 H 0.6312 0.54683 0.79226 0.0
H949 H 0.57392 0.53225 0.79259 0.0
H950 H 0.57604 0.53273 0.81832 0.0
H951 H 0.63369 0.54642 0.81794 0.0
H952 H 0.54664 0.48709 0.8139 0.0
H953 H 0.53376 0.58425 0.80658 0.0
H954 H 0.54295 0.62804 0.79881 0.0
H955 H 0.50719 0.58704 0.77772 0.0
H956 H 0.49821 0.54284 0.78534 0.0
H957 H 0.37184 0.47788 0.81849 0.0
H958 H 0.42951 0.49195 0.81862 0.0
H959 H 0.4346 0.47941 0.79318 0.0
H960 H 0.3771 0.46498 0.7931 0.0
H961 H 0.45965 0.53157 0.79769 0.0
H962 H 0.47248 0.43411 0.80554 0.0
H963 H 0.46218 0.39159 0.81377 0.0
H964 H 0.49671 0.43543 0.83453 0.0
H965 H 0.50678 0.47839 0.82645 0.0
C966 C 0.61915 0.54443 0.79798 0.0
C967 C 0.63681 0.5482 0.80507 0.0
C968 C 0.58633 0.53605 0.79818 0.0
C969 C 0.57009 0.53153 0.80549 0.0
C970 C 0.58767 0.53598 0.81259 0.0
C971 C 0.62057 0.54417 0.81238 0.0
C972 C 0.5354 0.52106 0.80572 0.0
C973 C 0.52761 0.4972 0.81044 0.0
C974 C 0.51025 0.53362 0.80112 0.0
C975 C 0.51562 0.56014 0.79651 0.0
C976 C 0.5281 0.5845 0.80027 0.0
C977 C 0.53323 0.6094 0.7959 0.0
C978 C 0.52574 0.6103 0.78777 0.0
C979 C 0.51303 0.5863 0.78401 0.0
C980 C 0.50789 0.56132 0.78835 0.0
C981 C 0.3856 0.47738 0.81298 0.0
C982 C 0.37016 0.46992 0.80581 0.0
C983 C 0.41852 0.4856 0.81304 0.0
C984 C 0.43666 0.48684 0.80591 0.0
C985 C 0.42132 0.47872 0.79877 0.0
C986 C 0.38855 0.47017 0.79873 0.0
C987 C 0.47109 0.49768 0.80583 0.0
C988 C 0.47877 0.52158 0.80115 0.0
C989 C 0.49601 0.48538 0.81054 0.0
C990 C 0.49006 0.45956 0.8154 0.0
C991 C 0.47761 0.43477 0.81188 0.0
C992 C 0.47186 0.41057 0.81651 0.0
C993 C 0.4787 0.41083 0.82467 0.0
C994 C 0.49138 0.43528 0.82821 0.0
C995 C 0.49713 0.45955 0.8236 0.0
H996 H 0.47425 0.39207 0.82825 0.0
H997 H 0.52972 0.62961 0.7844 0.0
H998 H 0.49759 0.13037 0.07237 0.0
H999 H 0.51349 0.08081 0.0718 0.0
H1000 H 0.45318 0.0688 0.05107 0.0
H1001 H 0.43536 0.11836 0.0519 0.0
H1002 H 0.44742 0.02388 0.06 0.0
H1003 H 0.54029 0.07404 0.05034 0.0
H1004 H 0.58388 0.11001 0.05042 0.0
H1005 H 0.62219 0.07441 0.07205 0.0
H1006 H 0.57855 0.03844 0.07215 0.0
H1007 H 0.51883 0.88812 0.05137 0.0
H1008 H 0.50271 0.93814 0.0505 0.0
H1009 H 0.55293 0.95538 0.0725 0.0
H1010 H 0.56958 0.90561 0.07334 0.0
H1011 H 0.56391 0.99748 0.06197 0.0
H1012 H 0.46899 0.9482 0.07165 0.0
H1013 H 0.42561 0.91207 0.07122 0.0
H1014 H 0.39177 0.94596 0.04893 0.0
H1015 H 0.43526 0.98207 0.04918 0.0
C1016 C 0.48709 0.11732 0.06773 0.0
C1017 C 0.46476 0.12892 0.06222 0.0
C1018 C 0.49679 0.08877 0.06733 0.0
C1019 C 0.48521 0.07069 0.0613 0.0
C1020 C 0.4628 0.08205 0.05579 0.0
C1021 C 0.4528 0.11068 0.05622 0.0
C1022 C 0.49628 0.04009 0.06084 0.0
C1023 C 0.47297 0.01826 0.0603 0.0
C1024 C 0.5296 0.03218 0.06134 0.0
C1025 C 0.55598 0.05369 0.06129 0.0
C1026 C 0.55788 0.07399 0.05514 0.0
C1027 C 0.58262 0.09437 0.05515 0.0
C1028 C 0.60575 0.09453 0.06125 0.0
C1029 C 0.60424 0.07427 0.06734 0.0
C1030 C 0.57953 0.05387 0.06736 0.0
C1031 C 0.52684 0.90257 0.05599 0.0
C1032 C 0.54551 0.89247 0.06245 0.0
C1033 C 0.51726 0.93126 0.05552 0.0
C1034 C 0.5261 0.95081 0.06149 0.0
C1035 C 0.54552 0.94095 0.06782 0.0
C1036 C 0.5549 0.91227 0.06832 0.0
C1037 C 0.51505 0.98138 0.06122 0.0
C1038 C 0.53838 1.00317 0.06163 0.0
C1039 C 0.48182 0.98923 0.06052 0.0
C1040 C 0.45559 0.96763 0.06039 0.0
C1041 C 0.45245 0.94781 0.06663 0.0
C1042 C 0.42782 0.92735 0.06642 0.0
C1043 C 0.406 0.92667 0.06004 0.0
C1044 C 0.40872 0.94649 0.05386 0.0
C1045 C 0.43334 0.96696 0.05403 0.0
H1046 H 0.38694 0.91082 0.0599 0.0
H1047 H 0.62487 0.11033 0.06125 0.0
H1048 H 0.14176 0.49916 0.93917 0.0
H1049 H 0.08438 0.51341 0.93892 0.0
H1050 H 0.06581 0.46136 0.95961 0.0
H1051 H 0.1233 0.44696 0.95981 0.0
H1052 H 0.01489 0.45821 0.94981 0.0
H1053 H 0.07706 0.53366 0.96107 0.0
H1054 H 0.12125 0.56902 0.96158 0.0
H1055 H 0.08379 0.60949 0.94055 0.0
H1056 H 0.03962 0.57411 0.93984 0.0
H1057 H 0.88354 0.57219 0.96064 0.0
H1058 H 0.94108 0.55806 0.96005 0.0
H1059 H 0.92082 0.50661 0.9394 0.0
H1060 H 0.86339 0.52051 0.94007 0.0
H1061 H 0.99121 0.5615 0.95 0.0
H1062 H 0.96564 0.44613 0.93987 0.0
H1063 H 0.92158 0.41066 0.94074 0.0
H1064 H 0.88596 0.44999 0.96212 0.0
H1065 H 0.93004 0.48544 0.96144 0.0
C1066 C 0.12522 0.49022 0.94355 0.0
C1067 C 0.13699 0.47144 0.9494 0.0
C1068 C 0.09241 0.49863 0.94346 0.0
C1069 C 0.07045 0.48887 0.94931 0.0
C1070 C 0.08196 0.46925 0.955 0.0
C1071 C 0.11485 0.4608 0.95509 0.0
C1072 C 0.03605 0.50001 0.94968 0.0
C1073 C 0.00983 0.48081 0.94981 0.0
C1074 C 0.02895 0.52953 0.9499 0.0
C1075 C 0.05519 0.55108 0.95036 0.0
C1076 C 0.07835 0.55001 0.95653 0.0
C1077 C 0.10339 0.57006 0.95685 0.0
C1078 C 0.10537 0.59145 0.95109 0.0
C1079 C 0.08225 0.59289 0.945 0.0
C1080 C 0.05719 0.57285 0.94464 0.0
C1081 C 0.89161 0.55856 0.95584 0.0
C1082 C 0.86899 0.54794 0.9503 0.0
C1083 C 0.92454 0.55026 0.95553 0.0
C1084 C 0.93561 0.53084 0.94974 0.0
C1085 C 0.91315 0.52121 0.94401 0.0
C1086 C 0.88031 0.52944 0.94434 0.0
C1087 C 0.97004 0.51971 0.94989 0.0
C1088 C 0.99627 0.53891 0.94992 0.0
C1089 C 0.97716 0.49018 0.94999 0.0
C1090 C 0.95098 0.46859 0.95056 0.0
C1091 C 0.9485 0.44711 0.94478 0.0
C1092 C 0.9235 0.42703 0.94523 0.0
C1093 C 0.90093 0.42813 0.95147 0.0
C1094 C 0.9034 0.44922 0.95728 0.0
C1095 C 0.92837 0.46932 0.95686 0.0
H1096 H 0.88156 0.4126 0.9518 0.0
H1097 H 0.12479 0.60694 0.95135 0.0
H1098 H 0.43828 0.40182 0.20557 0.0
H1099 H 0.45519 0.45151 0.20654 0.0
H1100 H 0.51863 0.4404 0.18629 0.0
H1101 H 0.50345 0.39059 0.18558 0.0
H1102 H 0.54898 0.47136 0.19619 0.0
H1103 H 0.4404 0.4762 0.18573 0.0
H1104 H 0.38126 0.46742 0.18551 0.0
H1105 H 0.37053 0.51163 0.20773 0.0
H1106 H 0.4297 0.52036 0.20814 0.0
H1107 H 0.57227 0.61618 0.18502 0.0
H1108 H 0.55627 0.56625 0.18573 0.0
H1109 H 0.50477 0.58231 0.20766 0.0
H1110 H 0.52032 0.63256 0.20693 0.0
H1111 H 0.4683 0.54935 0.19778 0.0
H1112 H 0.57765 0.5466 0.20758 0.0
H1113 H 0.63667 0.55591 0.20732 0.0
H1114 H 0.64568 0.50806 0.18565 0.0
H1115 H 0.58661 0.49878 0.18573 0.0
C1116 C 0.45607 0.40975 0.20135 0.0
C1117 C 0.469 0.39173 0.19542 0.0
C1118 C 0.46549 0.43851 0.20185 0.0
C1119 C 0.4879 0.45034 0.19639 0.0
C1120 C 0.5012 0.43226 0.19057 0.0
C1121 C 0.49203 0.40356 0.1901 0.0
C1122 C 0.49787 0.48127 0.19672 0.0
C1123 C 0.53117 0.48831 0.19644 0.0
C1124 C 0.47505 0.50386 0.19724 0.0
C1125 C 0.43951 0.49865 0.19701 0.0
C1126 C 0.42545 0.48386 0.1906 0.0
C1127 C 0.39193 0.47893 0.19044 0.0
C1128 C 0.37216 0.48889 0.19662 0.0
C1129 C 0.38587 0.50388 0.20296 0.0
C1130 C 0.4194 0.50884 0.20316 0.0
C1131 C 0.55754 0.60921 0.19001 0.0
C1132 C 0.54772 0.62873 0.19592 0.0
C1133 C 0.54854 0.58043 0.19044 0.0
C1134 C 0.52938 0.5701 0.19678 0.0
C1135 C 0.51956 0.58949 0.2027 0.0
C1136 C 0.52879 0.61829 0.20231 0.0
C1137 C 0.51929 0.53929 0.19714 0.0
C1138 C 0.48603 0.53232 0.19756 0.0
C1139 C 0.54211 0.51676 0.19667 0.0
C1140 C 0.57765 0.52221 0.19662 0.0
C1141 C 0.59217 0.53824 0.20273 0.0
C1142 C 0.62564 0.54348 0.20262 0.0
C1143 C 0.6449 0.53264 0.19646 0.0
C1144 C 0.63073 0.51647 0.19041 0.0
C1145 C 0.59726 0.51119 0.19049 0.0
H1146 H 0.67081 0.53672 0.19639 0.0
H1147 H 0.34621 0.48505 0.19648 0.0
H1148 H 0.37349 0.03983 0.46395 0.0
H1149 H 0.43106 0.02681 0.4636 0.0
H1150 H 0.43096 0.03501 0.43796 0.0
H1151 H 0.3726 0.04652 0.43833 0.0
H1152 H 0.46353 0.99079 0.44111 0.0
H1153 H 0.47031 0.08424 0.4518 0.0
H1154 H 0.45772 0.12394 0.46086 0.0
H1155 H 0.49191 0.07512 0.48081 0.0
H1156 H 0.5043 0.03497 0.47188 0.0
H1157 H 0.63919 0.98673 0.4384 0.0
H1158 H 0.58134 1.00007 0.43803 0.0
H1159 H 0.57208 0.97828 0.46292 0.0
H1160 H 0.62988 0.96478 0.46324 0.0
H1161 H 0.54525 0.03034 0.45975 0.0
H1162 H 0.53836 0.93673 0.44836 0.0
H1163 H 0.55234 0.89896 0.43878 0.0
H1164 H 0.52012 0.95152 0.41939 0.0
H1165 H 0.50637 0.98978 0.42885 0.0
C1166 C 0.3859 0.03917 0.45824 0.0
C1167 C 0.36844 0.04413 0.45117 0.0
C1168 C 0.41903 0.03184 0.45804 0.0
C1169 C 0.43612 0.03011 0.45075 0.0
C1170 C 0.41877 0.03601 0.44368 0.0
C1171 C 0.38539 0.04291 0.44389 0.0
C1172 C 0.4715 0.02114 0.45051 0.0
C1173 C 0.48138 0.9999 0.44511 0.0
C1174 C 0.49528 0.03237 0.45579 0.0
C1175 C 0.48796 0.0565 0.46117 0.0
C1176 C 0.47494 0.0819 0.45812 0.0
C1177 C 0.46786 0.10449 0.46324 0.0
C1178 C 0.47394 0.10203 0.47141 0.0
C1179 C 0.48718 0.07699 0.47448 0.0
C1180 C 0.49427 0.05431 0.46939 0.0
C1181 C 0.62453 0.98414 0.44373 0.0
C1182 C 0.63889 0.97419 0.45081 0.0
C1183 C 0.59145 0.9919 0.44353 0.0
C1184 C 0.57194 0.99017 0.45044 0.0
C1185 C 0.58633 0.97987 0.4575 0.0
C1186 C 0.61931 0.97186 0.45767 0.0
C1187 C 0.53701 1.00001 0.4504 0.0
C1188 C 0.5273 0.02139 0.45574 0.0
C1189 C 0.51356 0.98926 0.44499 0.0
C1190 C 0.52164 0.96622 0.43931 0.0
C1191 C 0.5345 0.94032 0.44205 0.0
C1192 C 0.54234 0.91881 0.43664 0.0
C1193 C 0.5372 0.92287 0.42848 0.0
C1194 C 0.52413 0.94842 0.42571 0.0
C1195 C 0.51628 0.97002 0.43109 0.0
H1196 H 0.54329 0.90619 0.42431 0.0
H1197 H 0.46844 0.11954 0.47535 0.0
H1198 H 0.07003 0.11636 0.70561 0.0
H1199 H 0.05292 0.06672 0.70664 0.0
H1200 H 0.99097 0.07764 0.68615 0.0
H1201 H 0.00627 0.1274 0.68538 0.0
H1202 H 0.9598 0.04702 0.69601 0.0
H1203 H 0.06933 0.04157 0.68601 0.0
H1204 H 0.12852 0.05013 0.68605 0.0
H1205 H 0.13693 1.00628 0.70843 0.0
H1206 H 0.07769 0.99776 0.70857 0.0
H1207 H 0.93567 0.90242 0.68515 0.0
H1208 H 0.95201 0.95221 0.68581 0.0
H1209 H 0.00339 0.93577 0.70772 0.0
H1210 H 0.98771 0.88559 0.707 0.0
H1211 H 0.03994 0.96873 0.69806 0.0
H1212 H 0.92987 0.97204 0.70744 0.0
H1213 H 0.87082 0.96301 0.70698 0.0
H1214 H 0.86369 0.01069 0.6852 0.0
H1215 H 0.9228 0.01969 0.68547 0.0
C1216 C 0.05254 0.10839 0.70135 0.0
C1217 C 0.04005 0.12636 0.69534 0.0
C1218 C 0.04301 0.07966 0.70189 0.0
C1219 C 0.02095 0.06779 0.69638 0.0
C1220 C 0.00812 0.08581 0.69047 0.0
C1221 C 0.01737 0.11448 0.68997 0.0
C1222 C 0.01081 0.03691 0.69675 0.0
C1223 C 0.9775 0.03 0.69636 0.0
C1224 C 0.03346 0.01424 0.69741 0.0
C1225 C 0.06905 0.01931 0.69734 0.0
C1226 C 0.08377 0.03394 0.69096 0.0
C1227 C 0.11733 0.03875 0.69095 0.0
C1228 C 0.13646 0.02883 0.69725 0.0
C1229 C 0.12207 0.014 0.70356 0.0
C1230 C 0.08852 1.00915 0.70361 0.0
C1231 C 0.95049 0.90924 0.69012 0.0
C1232 C 0.96024 0.88961 0.69602 0.0
C1233 C 0.95965 0.93798 0.69053 0.0
C1234 C 0.97883 0.94819 0.69686 0.0
C1235 C 0.98857 0.9287 0.70277 0.0
C1236 C 0.97926 0.89992 0.70239 0.0
C1237 C 0.98905 0.97897 0.6972 0.0
C1238 C 0.02231 0.98582 0.69773 0.0
C1239 C 0.96639 1.0016 0.6966 0.0
C1240 C 0.93082 0.99632 0.69644 0.0
C1241 C 0.91576 0.98042 0.70252 0.0
C1242 C 0.88226 0.97534 0.7023 0.0
C1243 C 0.86353 0.98621 0.69606 0.0
C1244 C 0.87824 1.00225 0.69003 0.0
C1245 C 0.91173 1.00738 0.69022 0.0
H1246 H 0.8376 0.98225 0.6959 0.0
H1247 H 0.16244 0.03257 0.69723 0.0
H1248 H 0.61642 0.94573 0.30806 0.0
H1249 H 0.55957 0.95988 0.31013 0.0
H1250 H 0.58857 0.01206 0.32998 0.0
H1251 H 0.64537 0.9973 0.32804 0.0
H1252 H 0.51415 0.96031 0.32399 0.0
H1253 H 0.55873 0.07295 0.32611 0.0
H1254 H 0.60319 0.10373 0.32119 0.0
H1255 H 0.60699 0.05627 0.29936 0.0
H1256 H 0.56296 0.02499 0.30423 0.0
H1257 H 0.36538 0.03399 0.32926 0.0
H1258 H 0.42251 0.02084 0.33147 0.0
H1259 H 0.44661 0.05123 0.30788 0.0
H1260 H 0.38995 0.06543 0.30587 0.0
H1261 H 0.49543 0.06131 0.31684 0.0
H1262 H 0.42882 0.97754 0.31246 0.0
H1263 H 0.38362 0.94463 0.31542 0.0
H1264 H 0.42151 0.93085 0.33897 0.0
H1265 H 0.46686 0.96375 0.33614 0.0
C1266 C 0.61041 0.95915 0.31309 0.0
C1267 C 0.63516 0.97001 0.31799 0.0
C1268 C 0.57799 0.96745 0.31422 0.0
C1269 C 0.56986 0.98716 0.32017 0.0
C1270 C 0.5943 0.99684 0.32535 0.0
C1271 C 0.62664 0.9882 0.3243 0.0
C1272 C 0.53661 0.99963 0.32046 0.0
C1273 C 0.51001 0.98246 0.32252 0.0
C1274 C 0.53107 0.02831 0.31839 0.0
C1275 C 0.55778 0.0467 0.31553 0.0
C1276 C 0.56914 0.06913 0.32027 0.0
C1277 C 0.59429 0.08659 0.3175 0.0
C1278 C 0.6079 0.08196 0.30997 0.0
C1279 C 0.59641 0.05985 0.30519 0.0
C1280 C 0.57157 0.04213 0.30797 0.0
C1281 C 0.38326 0.03879 0.3247 0.0
C1282 C 0.37354 0.05109 0.31746 0.0
C1283 C 0.41578 0.03085 0.3259 0.0
C1284 C 0.43895 0.03433 0.31977 0.0
C1285 C 0.42942 0.04822 0.31271 0.0
C1286 C 0.39708 0.05653 0.31157 0.0
C1287 C 0.47246 0.02211 0.32042 0.0
C1288 C 0.49932 0.0393 0.3185 0.0
C1289 C 0.47804 0.9932 0.32245 0.0
C1290 C 0.45099 0.97327 0.32412 0.0
C1291 C 0.42741 0.96756 0.31827 0.0
C1292 C 0.40179 0.9489 0.31993 0.0
C1293 C 0.39962 0.93575 0.32739 0.0
C1294 C 0.42318 0.94109 0.3332 0.0
C1295 C 0.44887 0.95969 0.33157 0.0
H1296 H 0.37974 0.92137 0.32866 0.0
H1297 H 0.62735 0.09549 0.30783 0.0
H1298 H 0.92969 0.90232 0.57592 0.0
H1299 H 0.94428 0.95292 0.57627 0.0
H1300 H 0.01123 0.94025 0.55679 0.0
H1301 H 0.99614 0.89026 0.55622 0.0
H1302 H 0.03951 0.96883 0.56961 0.0
H1303 H 0.94349 0.97409 0.55339 0.0
H1304 H 0.88572 0.96595 0.55023 0.0
H1305 H 0.85728 0.01501 0.57064 0.0
H1306 H 0.91496 0.02302 0.57402 0.0
H1307 H 0.07925 0.11322 0.56019 0.0
H1308 H 0.06377 0.06288 0.5602 0.0
H1309 H 0.9862 0.08093 0.57681 0.0
H1310 H 1.00111 0.13114 0.57663 0.0
H1311 H 0.96312 0.04906 0.56571 0.0
H1312 H 0.05844 0.04405 0.58208 0.0
H1313 H 0.11604 0.0515 0.58559 0.0
H1314 H 0.14567 1.0017 0.56542 0.0
H1315 H 0.08822 0.99426 0.56173 0.0
C1316 C 0.94703 0.91041 0.57162 0.0
C1317 C 0.96205 0.89197 0.56613 0.0
C1318 C 0.95553 0.93933 0.57185 0.0
C1319 C 0.97919 0.95036 0.56662 0.0
C1320 C 0.99331 0.93221 0.56097 0.0
C1321 C 0.98464 0.90353 0.56068 0.0
C1322 C 0.98999 0.98059 0.56709 0.0
C1323 C 0.02288 0.9864 0.56868 0.0
C1324 C 0.96823 1.00355 0.56605 0.0
C1325 C 0.93355 0.99889 0.56401 0.0
C1326 C 0.92493 0.98293 0.55725 0.0
C1327 C 0.8922 0.97838 0.55541 0.0
C1328 C 0.86784 0.9899 0.56023 0.0
C1329 C 0.87618 1.00606 0.56691 0.0
C1330 C 0.90889 0.01061 0.56879 0.0
C1331 C 0.05932 0.10629 0.56396 0.0
C1332 C 0.04142 0.12616 0.56841 0.0
C1333 C 0.05039 0.07748 0.56396 0.0
C1334 C 0.02375 0.06784 0.56853 0.0
C1335 C 0.00663 0.08765 0.57318 0.0
C1336 C 0.0153 0.11638 0.5731 0.0
C1337 C 0.01279 0.0375 0.56827 0.0
C1338 C 0.97983 0.0316 0.56669 0.0
C1339 C 0.03448 0.01443 0.56937 0.0
C1340 C 0.06904 0.01884 0.57158 0.0
C1341 C 0.07725 0.03487 0.57836 0.0
C1342 C 0.10987 0.03906 0.58039 0.0
C1343 C 0.1345 0.02715 0.57572 0.0
C1344 C 0.12656 0.01095 0.56902 0.0
C1345 C 0.09398 1.00672 0.56696 0.0
H1346 H 0.15974 0.03041 0.5773 0.0
H1347 H 0.84251 0.98637 0.55879 0.0
H1348 H 0.12214 0.45249 0.80383 0.0
H1349 H 0.0659 0.46908 0.80453 0.0
H1350 H 0.08211 0.49814 0.82861 0.0
H1351 H 0.13907 0.48273 0.8277 0.0
H1352 H 0.01345 0.46145 0.81215 0.0
H1353 H 0.04009 0.55562 0.83265 0.0
H1354 H 0.08548 0.58694 0.83658 0.0
H1355 H 0.13029 0.57492 0.81368 0.0
H1356 H 0.08517 0.54349 0.80963 0.0
H1357 H 0.87289 0.55511 0.82322 0.0
H1358 H 0.92893 0.53969 0.82592 0.0
H1359 H 0.94973 0.54147 0.80072 0.0
H1360 H 0.89403 0.55779 0.79803 0.0
H1361 H 0.99771 0.56276 0.81928 0.0
H1362 H 0.97379 0.46972 0.79857 0.0
H1363 H 0.92849 0.43962 0.7939 0.0
H1364 H 0.87886 0.45163 0.8162 0.0
H1365 H 0.92388 0.48174 0.82099 0.0
C1366 C 0.11327 0.46152 0.80936 0.0
C1367 C 0.13466 0.46608 0.81575 0.0
C1368 C 0.0812 0.47127 0.80974 0.0
C1369 C 0.06979 0.48564 0.81654 0.0
C1370 C 0.09046 0.48793 0.8232 0.0
C1371 C 0.1228 0.47858 0.82276 0.0
C1372 C 0.03705 0.49943 0.81639 0.0
C1373 C 0.01024 0.48363 0.81369 0.0
C1374 C 0.03227 0.52834 0.81851 0.0
C1375 C 0.05953 0.547 0.82089 0.0
C1376 C 0.05967 0.55967 0.82847 0.0
C1377 C 0.08535 0.57739 0.83072 0.0
C1378 C 0.11083 0.5828 0.8254 0.0
C1379 C 0.11063 0.57058 0.81781 0.0
C1380 C 0.08508 0.55274 0.81555 0.0
C1381 C 0.88993 0.55345 0.81831 0.0
C1382 C 0.87942 0.5579 0.81043 0.0
C1383 C 0.92176 0.5444 0.81984 0.0
C1384 C 0.94326 0.53919 0.81351 0.0
C1385 C 0.93343 0.54537 0.80568 0.0
C1386 C 0.90181 0.55492 0.80415 0.0
C1387 C 0.97479 0.5248 0.81495 0.0
C1388 C 1.00114 0.54051 0.81785 0.0
C1389 C 0.9793 0.49594 0.81295 0.0
C1390 C 0.95201 0.47814 0.8101 0.0
C1391 C 0.95318 0.46592 0.80247 0.0
C1392 C 0.92757 0.44887 0.7998 0.0
C1393 C 0.90082 0.44372 0.80475 0.0
C1394 C 0.8996 0.45564 0.81237 0.0
C1395 C 0.92505 0.47283 0.81505 0.0
H1396 H 0.88103 0.4305 0.80268 0.0
H1397 H 0.13068 0.59654 0.82715 0.0
H1398 H 0.57237 0.61717 0.07673 0.0
H1399 H 0.558 0.56655 0.07705 0.0
H1400 H 0.49086 0.57951 0.05767 0.0
H1401 H 0.50581 0.62951 0.0571 0.0
H1402 H 0.46306 0.54984 0.07044 0.0
H1403 H 0.55919 0.54678 0.05409 0.0
H1404 H 0.61685 0.55593 0.05095 0.0
H1405 H 0.64593 0.50597 0.07116 0.0
H1406 H 0.58836 0.49692 0.07451 0.0
H1407 H 0.42459 0.40613 0.0604 0.0
H1408 H 0.43982 0.45651 0.06061 0.0
H1409 H 0.5182 0.4375 0.07686 0.0
H1410 H 0.50357 0.38724 0.07646 0.0
H1411 H 0.54061 0.4708 0.06604 0.0
H1412 H 0.44545 0.47337 0.08255 0.0
H1413 H 0.38803 0.46499 0.08612 0.0
H1414 H 0.35733 0.51616 0.06629 0.0
H1415 H 0.4146 0.52456 0.06254 0.0
C1416 C 0.55498 0.60918 0.07245 0.0
C1417 C 0.53997 0.62773 0.06697 0.0
C1418 C 0.54662 0.58023 0.07266 0.0
C1419 C 0.52304 0.56923 0.06743 0.0
C1420 C 0.50873 0.58751 0.06184 0.0
C1421 C 0.51729 0.61623 0.06156 0.0
C1422 C 0.51273 0.53884 0.0678 0.0
C1423 C 0.47994 0.53253 0.06941 0.0
C1424 C 0.53483 0.51621 0.06664 0.0
C1425 C 0.56945 0.52144 0.0646 0.0
C1426 C 0.57786 0.53795 0.05791 0.0
C1427 C 0.61053 0.54309 0.05608 0.0
C1428 C 0.63504 0.53161 0.06087 0.0
C1429 C 0.62692 0.5149 0.06747 0.0
C1430 C 0.59427 0.50975 0.06933 0.0
C1431 C 0.44468 0.41284 0.06412 0.0
C1432 C 0.46285 0.39269 0.06841 0.0
C1433 C 0.45346 0.44168 0.06424 0.0
C1434 C 0.48019 0.4511 0.06879 0.0
C1435 C 0.49767 0.43098 0.07325 0.0
C1436 C 0.48918 0.40221 0.07305 0.0
C1437 C 0.49077 0.48158 0.0687 0.0
C1438 C 0.52364 0.48799 0.06713 0.0
C1439 C 0.46877 0.50432 0.06997 0.0
C1440 C 0.43431 0.49936 0.07222 0.0
C1441 C 0.42645 0.48267 0.07891 0.0
C1442 C 0.39393 0.47794 0.08098 0.0
C1443 C 0.36905 0.48998 0.07642 0.0
C1444 C 0.37663 0.50683 0.06981 0.0
C1445 C 0.40912 0.5116 0.06771 0.0
H1446 H 0.34388 0.48629 0.07803 0.0
H1447 H 0.66032 0.53561 0.05944 0.0
H1448 H 0.36957 0.4758 0.92785 0.0
H1449 H 0.42768 0.48719 0.92633 0.0
H1450 H 0.44134 0.47344 0.95159 0.0
H1451 H 0.38415 0.4605 0.95292 0.0
H1452 H 0.46006 0.52862 0.93148 0.0
H1453 H 0.51633 0.45935 0.95696 0.0
H1454 H 0.50972 0.41141 0.96267 0.0
H1455 H 0.4686 0.38203 0.94066 0.0
H1456 H 0.47538 0.42967 0.93477 0.0
H1457 H 0.61967 0.55542 0.9538 0.0
H1458 H 0.56314 0.54005 0.95193 0.0
H1459 H 0.5836 0.52097 0.92729 0.0
H1460 H 0.64066 0.53559 0.92924 0.0
H1461 H 0.55059 0.47934 0.94526 0.0
H1462 H 0.50185 0.5424 0.91887 0.0
H1463 H 0.51006 0.58851 0.91215 0.0
H1464 H 0.53844 0.62613 0.93439 0.0
H1465 H 0.52991 0.58039 0.94126 0.0
C1466 C 0.38548 0.47414 0.93297 0.0
C1467 C 0.37277 0.46671 0.94046 0.0
C1468 C 0.41855 0.48101 0.93214 0.0
C1469 C 0.43934 0.48095 0.93882 0.0
C1470 C 0.42645 0.47286 0.94627 0.0
C1471 C 0.39369 0.46545 0.94705 0.0
C1472 C 0.47369 0.49134 0.9382 0.0
C1473 C 0.47987 0.51742 0.93436 0.0
C1474 C 0.4999 0.47705 0.94198 0.0
C1475 C 0.49616 0.44818 0.94544 0.0
C1476 C 0.50606 0.44263 0.95332 0.0
C1477 C 0.50224 0.41551 0.95659 0.0
C1478 C 0.48867 0.39371 0.95204 0.0
C1479 C 0.479 0.39896 0.94419 0.0
C1480 C 0.4828 0.42603 0.94088 0.0
C1481 C 0.61176 0.54879 0.94793 0.0
C1482 C 0.63419 0.54705 0.94162 0.0
C1483 C 0.57965 0.53976 0.94688 0.0
C1484 C 0.56925 0.52934 0.93948 0.0
C1485 C 0.59115 0.52909 0.93303 0.0
C1486 C 0.62355 0.53766 0.93412 0.0
C1487 C 0.53633 0.51661 0.93874 0.0
C1488 C 0.53063 0.49012 0.9423 0.0
C1489 C 0.51085 0.53015 0.93457 0.0
C1490 C 0.5157 0.55787 0.93055 0.0
C1491 C 0.50979 0.56054 0.92233 0.0
C1492 C 0.51448 0.58661 0.91849 0.0
C1493 C 0.52491 0.61021 0.92283 0.0
C1494 C 0.53054 0.6078 0.93103 0.0
C1495 C 0.52585 0.58179 0.93489 0.0
H1496 H 0.52854 0.63037 0.91986 0.0
H1497 H 0.4857 0.37275 0.95459 0.0
H1498 H 0.50669 0.89242 0.20169 0.0
H1499 H 0.49101 0.94222 0.20085 0.0
H1500 H 0.55483 0.95363 0.18068 0.0
H1501 H 0.57009 0.90325 0.18133 0.0
H1502 H 0.5577 0.99859 0.19197 0.0
H1503 H 0.47657 0.94713 0.17729 0.0
H1504 H 0.43548 0.90966 0.17532 0.0
H1505 H 0.37955 0.94243 0.1949 0.0
H1506 H 0.42059 0.97986 0.19706 0.0
H1507 H 0.49842 0.13182 0.18002 0.0
H1508 H 0.51279 0.0815 0.17995 0.0
H1509 H 0.43937 0.06505 0.19779 0.0
H1510 H 0.42432 0.1156 0.1977 0.0
H1511 H 0.44144 0.02221 0.18755 0.0
H1512 H 0.52109 0.07238 0.20266 0.0
H1513 H 0.56194 0.1095 0.20532 0.0
H1514 H 0.62049 0.07894 0.18592 0.0
H1515 H 0.57972 0.04187 0.18307 0.0
C1516 C 0.51733 0.90535 0.19702 0.0
C1517 C 0.53928 0.89348 0.19148 0.0
C1518 C 0.50837 0.93394 0.19657 0.0
C1519 C 0.52125 0.95163 0.19062 0.0
C1520 C 0.5444 0.94036 0.18531 0.0
C1521 C 0.55324 0.91155 0.18571 0.0
C1522 C 0.5099 0.98165 0.18989 0.0
C1523 C 0.53239 1.00376 0.19087 0.0
C1524 C 0.47665 0.98848 0.18871 0.0
C1525 C 0.45181 0.96614 0.18738 0.0
C1526 C 0.45564 0.94621 0.18121 0.0
C1527 C 0.43234 0.925 0.18006 0.0
C1528 C 0.40496 0.92362 0.18499 0.0
C1529 C 0.40079 0.9435 0.19108 0.0
C1530 C 0.42405 0.96473 0.19227 0.0
C1531 C 0.48501 0.11739 0.18384 0.0
C1532 C 0.46032 0.12768 0.18889 0.0
C1533 C 0.49341 0.08862 0.18385 0.0
C1534 C 0.47781 0.06941 0.18901 0.0
C1535 C 0.45197 0.07938 0.19378 0.0
C1536 C 0.44326 0.10825 0.19371 0.0
C1537 C 0.48928 0.0393 0.1896 0.0
C1538 C 0.4668 0.01712 0.18862 0.0
C1539 C 0.5225 0.03239 0.19087 0.0
C1540 C 0.54719 0.05452 0.1926 0.0
C1541 C 0.54257 0.0737 0.19893 0.0
C1542 C 0.56572 0.09471 0.20047 0.0
C1543 C 0.59375 0.09662 0.19578 0.0
C1544 C 0.59873 0.07746 0.18954 0.0
C1545 C 0.57562 0.05643 0.18796 0.0
H1546 H 0.61165 0.1129 0.19698 0.0
H1547 H 0.38695 0.90718 0.18409 0.0
H1548 H 0.8666 0.9831 0.42813 0.0
H1549 H 0.92406 0.99546 0.42594 0.0
H1550 H 0.9452 0.97262 0.45035 0.0
H1551 H 0.88847 0.95894 0.45232 0.0
H1552 H 0.95725 0.0354 0.43178 0.0
H1553 H 0.02237 0.95782 0.45379 0.0
H1554 H 0.01791 0.90805 0.45825 0.0
H1555 H 0.9697 0.88614 0.43641 0.0
H1556 H 0.97427 0.93568 0.43176 0.0
H1557 H 0.11762 0.06739 0.45096 0.0
H1558 H 0.0608 0.0529 0.44909 0.0
H1559 H 0.08523 0.01755 0.42616 0.0
H1560 H 0.14243 0.03148 0.42813 0.0
H1561 H 0.05261 0.98209 0.44197 0.0
H1562 H 1.00247 0.0519 0.41837 0.0
H1563 H 0.00836 0.10003 0.41268 0.0
H1564 H 0.02834 0.13337 0.43599 0.0
H1565 H 0.02205 0.08552 0.44181 0.0
C1566 C 0.88398 0.97964 0.43288 0.0
C1567 C 0.87348 0.96944 0.44032 0.0
C1568 C 0.91669 0.98707 0.43168 0.0
C1569 C 0.93938 0.9848 0.43794 0.0
C1570 C 0.92876 0.97386 0.44532 0.0
C1571 C 0.89629 0.96597 0.44646 0.0
C1572 C 0.97335 0.99588 0.43702 0.0
C1573 C 0.97801 0.0234 0.43392 0.0
C1574 C 1.00088 0.98053 0.43976 0.0
C1575 C 0.99846 0.95055 0.44245 0.0
C1576 C 0.01099 0.94236 0.44991 0.0
C1577 C 0.0084 0.91419 0.45248 0.0
C1578 C 0.99346 0.89396 0.44762 0.0
C1579 C 0.98117 0.90185 0.44017 0.0
C1580 C 0.98372 0.92998 0.43758 0.0
C1581 C 0.11052 0.05763 0.44538 0.0
C1582 C 0.13412 0.05109 0.4396 0.0
C1583 C 0.07817 0.04916 0.44434 0.0
C1584 C 0.06876 0.03442 0.43745 0.0
C1585 C 0.09195 0.02923 0.43147 0.0
C1586 C 0.12446 0.03742 0.43255 0.0
C1587 C 0.03584 0.02153 0.437 0.0
C1588 C 0.03162 0.9937 0.43979 0.0
C1589 C 0.00887 0.03631 0.43388 0.0
C1590 C 0.01232 0.06515 0.43049 0.0
C1591 C 0.00812 0.06954 0.42227 0.0
C1592 C 0.01148 0.09676 0.41903 0.0
C1593 C 0.01889 0.11973 0.42397 0.0
C1594 C 0.02279 0.11554 0.43217 0.0
C1595 C 0.01941 0.08837 0.43544 0.0
H1596 H 0.02149 0.14078 0.42145 0.0
H1597 H 0.99145 0.87217 0.44962 0.0
H1598 H 1.00215 0.3858 0.68063 0.0
H1599 H 0.98761 0.43615 0.68063 0.0
H1600 H 0.0658 0.45334 0.69704 0.0
H1601 H 0.0805 0.4027 0.69704 0.0
H1602 H 0.00657 0.47674 0.70187 0.0
H1603 H 0.07184 0.47499 0.67807 0.0
H1604 H 0.08862 0.45754 0.66484 0.0
H1605 H 0.99433 0.47775 0.65542 0.0
H1606 H 0.97683 0.49496 0.66864 0.0
H1607 H 0.99972 0.62606 0.70118 0.0
H1608 H 0.01452 0.57625 0.70043 0.0
H1609 H 0.94579 0.56413 0.68132 0.0
H1610 H 0.93222 0.61486 0.68171 0.0
H1611 H 0.99927 0.53749 0.67774 0.0
H1612 H 0.93289 0.5389 0.70106 0.0
H1613 H 0.91384 0.55542 0.71421 0.0
H1614 H 0.00637 0.53442 0.72449 0.0
H1615 H 0.02616 0.51813 0.71137 0.0
C1616 C 0.01653 0.40037 0.68416 0.0
C1617 C 0.04251 0.39027 0.68883 0.0
C1618 C 0.00823 0.42919 0.68414 0.0
C1619 C 0.02559 0.44866 0.68883 0.0
C1620 C 0.05203 0.43875 0.69338 0.0
C1621 C 0.0606 0.40987 0.69332 0.0
C1622 C 0.01511 0.479 0.68923 0.0
C1623 C 0.00547 0.49018 0.69662 0.0
C1624 C 0.01241 0.49625 0.68233 0.0
C1625 C 0.02293 0.48602 0.67437 0.0
C1626 C 0.05459 0.4755 0.6732 0.0
C1627 C 0.06425 0.46569 0.66569 0.0
C1628 C 0.04253 0.46647 0.6593 0.0
C1629 C 0.01112 0.47713 0.66039 0.0
C1630 C 1.00133 0.48694 0.66788 0.0
C1631 C 0.98778 0.61297 0.69676 0.0
C1632 C 0.96497 0.62479 0.69144 0.0
C1633 C 0.99601 0.58421 0.69642 0.0
C1634 C 0.98109 0.56606 0.69088 0.0
C1635 C 0.95771 0.57757 0.68566 0.0
C1636 C 0.94967 0.60658 0.68595 0.0
C1637 C 0.99085 0.53544 0.69042 0.0
C1638 C 1.0003 0.52413 0.68301 0.0
C1639 C 0.99297 0.51791 0.6973 0.0
C1640 C 0.98109 0.52751 0.70521 0.0
C1641 C 0.94926 0.53798 0.70611 0.0
C1642 C 0.93831 0.54728 0.71356 0.0
C1643 C 0.95891 0.54603 0.72018 0.0
C1644 C 0.99046 0.5354 0.71936 0.0
C1645 C 1.00154 0.52609 0.71192 0.0
H1646 H 0.9504 0.55325 0.72594 0.0
H1647 H 0.05005 0.45887 0.65349 0.0
H1648 H 0.21943 0.99448 0.34488 0.0
H1649 H 0.22249 0.99011 0.35949 0.0
H1650 H 0.28337 0.06452 0.36042 0.0
H1651 H 0.28067 0.06881 0.34592 0.0
H1652 H 0.30663 0.02396 0.37025 0.0
H1653 H 0.20213 0.06707 0.36535 0.0
H1654 H 0.14722 0.07 0.35951 0.0
H1655 H 0.1206 0.99203 0.37112 0.0
H1656 H 0.17554 0.98844 0.37695 0.0
H1657 H 0.29887 0.06389 0.41079 0.0
H1658 H 0.29576 0.06052 0.39635 0.0
H1659 H 0.22676 0.99198 0.39847 0.0
H1660 H 0.22831 0.99637 0.41303 0.0
H1661 H 0.20723 0.02492 0.38704 0.0
H1662 H 0.31002 0.98251 0.39257 0.0
H1663 H 0.36491 0.97859 0.39838 0.0
H1664 H 0.39514 0.05299 0.38551 0.0
H1665 H 0.34029 0.05758 0.3797 0.0
C1666 C 0.23363 0.00981 0.34819 0.0
C1667 C 0.24951 0.03218 0.34416 0.0
C1668 C 0.23519 1.00741 0.35658 0.0
C1669 C 0.25291 0.02716 0.36116 0.0
C1670 C 0.26942 0.04902 0.35711 0.0
C1671 C 0.26762 0.05157 0.34877 0.0
C1672 C 0.25434 0.02543 0.37013 0.0
C1673 C 0.28486 0.02441 0.37391 0.0
C1674 C 0.22606 0.02516 0.375 0.0
C1675 C 0.19305 0.02732 0.37151 0.0
C1676 C 0.18465 0.05042 0.36661 0.0
C1677 C 0.15351 0.05223 0.36331 0.0
C1678 C 0.13047 0.03117 0.36492 0.0
C1679 C 0.1385 1.0083 0.36986 0.0
C1680 C 0.16962 1.00637 0.37317 0.0
C1681 C 0.28278 0.04815 0.40825 0.0
C1682 C 0.26372 0.03052 0.41322 0.0
C1683 C 0.28137 0.04597 0.3999 0.0
C1684 C 0.26137 0.02569 0.39618 0.0
C1685 C 0.24254 1.0078 0.40111 0.0
C1686 C 0.24374 0.01012 0.40949 0.0
C1687 C 0.25962 0.02379 0.38719 0.0
C1688 C 0.22905 0.02417 0.3834 0.0
C1689 C 0.28789 0.02325 0.3823 0.0
C1690 C 0.32095 0.02051 0.38575 0.0
C1691 C 0.32831 0.99814 0.39102 0.0
C1692 C 0.35943 0.99579 0.3943 0.0
C1693 C 0.38348 0.01557 0.39233 0.0
C1694 C 0.37648 0.0377 0.38704 0.0
C1695 C 0.34539 0.04017 0.38374 0.0
H1696 H 0.40755 0.01371 0.39488 0.0
H1697 H 0.10637 0.0326 0.36236 0.0
H1698 H 0.95767 0.80685 0.59634 0.0
H1699 H 0.96271 0.8056 0.61094 0.0
H1700 H 0.99145 0.71768 0.60976 0.0
H1701 H 0.98608 0.71898 0.59516 0.0
H1702 H 0.94682 0.72466 0.6212 0.0
H1703 H 0.04648 0.77186 0.61431 0.0
H1704 H 0.0804 0.80848 0.60784 0.0
H1705 H 0.03049 0.87354 0.62094 0.0
H1706 H 0.99595 0.83733 0.6274 0.0
H1707 H 0.98466 0.71146 0.66243 0.0
H1708 H 0.99013 0.71283 0.64782 0.0
H1709 H 0.96729 0.80222 0.64797 0.0
H1710 H 0.96286 0.80085 0.66257 0.0
H1711 H 0.01096 0.79376 0.63698 0.0
H1712 H 0.91003 0.74843 0.64341 0.0
H1713 H 0.87456 0.71299 0.64989 0.0
H1714 H 0.92434 0.64594 0.63758 0.0
H1715 H 0.9605 0.68097 0.63112 0.0
C1716 C 0.96575 0.78746 0.5992 0.0
C1717 C 0.97224 0.76322 0.59457 0.0
C1718 C 0.96859 0.7867 0.60756 0.0
C1719 C 0.97785 0.7616 0.61155 0.0
C1720 C 0.98443 0.73738 0.6069 0.0
C1721 C 0.9817 0.73819 0.59853 0.0
C1722 C 0.97948 0.76032 0.62054 0.0
C1723 C 0.96132 0.73952 0.62462 0.0
C1724 C 0.99756 0.78009 0.62513 0.0
C1725 C 0.01844 0.80189 0.62129 0.0
C1726 C 0.04258 0.79399 0.61577 0.0
C1727 C 0.06194 0.81468 0.61211 0.0
C1728 C 0.05755 0.84332 0.61397 0.0
C1729 C 0.03385 0.85134 0.6195 0.0
C1730 C 0.01439 0.83074 0.62317 0.0
C1731 C 0.98144 0.73146 0.65933 0.0
C1732 C 0.97344 0.75605 0.66364 0.0
C1733 C 0.9842 0.73223 0.65096 0.0
C1734 C 0.97848 0.75754 0.64666 0.0
C1735 C 0.97178 0.78236 0.65104 0.0
C1736 C 0.96927 0.78161 0.65941 0.0
C1737 C 0.97833 0.75806 0.63764 0.0
C1738 C 0.99663 0.77878 0.63355 0.0
C1739 C 0.96011 0.73838 0.63305 0.0
C1740 C 0.93818 0.7173 0.63685 0.0
C1741 C 0.91355 0.72611 0.64213 0.0
C1742 C 0.89332 0.7061 0.64579 0.0
C1743 C 0.89724 0.67722 0.64416 0.0
C1744 C 0.92137 0.66831 0.63885 0.0
C1745 C 0.94173 0.68823 0.63518 0.0
H1746 H 0.88155 0.66176 0.64701 0.0
H1747 H 0.07257 0.85931 0.61113 0.0
H1748 H 0.22993 0.4453 0.84525 0.0
H1749 H 0.2267 0.4495 0.85972 0.0
H1750 H 0.28356 0.5263 0.85874 0.0
H1751 H 0.28749 0.52188 0.84415 0.0
H1752 H 0.30384 0.49204 0.87101 0.0
H1753 H 0.20143 0.52855 0.8622 0.0
H1754 H 0.14993 0.52814 0.85468 0.0
H1755 H 0.11981 0.45286 0.86715 0.0
H1756 H 0.17135 0.45258 0.87466 0.0
H1757 H 0.2756 0.52072 0.91238 0.0
H1758 H 0.27792 0.52493 0.89783 0.0
H1759 H 0.21269 0.45373 0.89561 0.0
H1760 H 0.20879 0.45043 0.91008 0.0
H1761 H 0.19706 0.4895 0.8848 0.0
H1762 H 0.30001 0.45026 0.89281 0.0
H1763 H 0.35183 0.44889 0.9002 0.0
H1764 H 0.38119 0.52724 0.8892 0.0
H1765 H 0.32933 0.52925 0.88183 0.0
C1766 C 0.24204 0.46304 0.84807 0.0
C1767 C 0.25918 0.48314 0.84343 0.0
C1768 C 0.23987 0.46557 0.8564 0.0
C1769 C 0.2546 0.48837 0.86042 0.0
C1770 C 0.27186 0.50849 0.85584 0.0
C1771 C 0.2739 0.50606 0.84746 0.0
C1772 C 0.25197 0.49086 0.86938 0.0
C1773 C 0.28044 0.49199 0.87401 0.0
C1774 C 0.22156 0.49016 0.8734 0.0
C1775 C 0.19038 0.49043 0.86895 0.0
C1776 C 0.18392 0.5118 0.8633 0.0
C1777 C 0.1547 0.5117 0.85904 0.0
C1778 C 0.13164 0.49045 0.86042 0.0
C1779 C 0.13771 0.4693 0.86608 0.0
C1780 C 0.16691 0.46928 0.87035 0.0
C1781 C 0.26127 0.5062 0.90882 0.0
C1782 C 0.24226 0.485 0.91254 0.0
C1783 C 0.26301 0.50838 0.90044 0.0
C1784 C 0.24609 0.48925 0.89549 0.0
C1785 C 0.22629 0.46871 0.89919 0.0
C1786 C 0.22436 0.46665 0.90755 0.0
C1787 C 0.24898 0.49026 0.88649 0.0
C1788 C 0.22051 0.48976 0.88183 0.0
C1789 C 0.27941 0.49131 0.88245 0.0
C1790 C 0.31065 0.49006 0.88684 0.0
C1791 C 0.31743 0.46729 0.89201 0.0
C1792 C 0.34682 0.46639 0.89619 0.0
C1793 C 0.36975 0.48801 0.89519 0.0
C1794 C 0.36338 0.51053 0.88998 0.0
C1795 C 0.334 0.51156 0.8858 0.0
H1796 H 0.39248 0.48728 0.89843 0.0
H1797 H 0.10905 0.49041 0.85712 0.0
H1798 H 0.54193 0.71241 0.09668 0.0
H1799 H 0.53649 0.71357 0.11127 0.0
H1800 H 0.51119 0.80231 0.11008 0.0
H1801 H 0.51693 0.80107 0.09548 0.0
H1802 H 0.55592 0.79373 0.12144 0.0
H1803 H 0.4541 0.7499 0.11474 0.0
H1804 H 0.4186 0.71441 0.10836 0.0
H1805 H 0.46592 0.64774 0.12142 0.0
H1806 H 0.50203 0.68279 0.12781 0.0
H1807 H 0.52015 0.80802 0.1627 0.0
H1808 H 0.51383 0.80684 0.14812 0.0
H1809 H 0.5325 0.71671 0.14828 0.0
H1810 H 0.53774 0.71793 0.16287 0.0
H1811 H 0.48902 0.72674 0.13737 0.0
H1812 H 0.59204 0.76834 0.14358 0.0
H1813 H 0.62931 0.80235 0.14999 0.0
H1814 H 0.58262 0.87134 0.13776 0.0
H1815 H 0.54468 0.83775 0.13138 0.0
C1816 C 0.53442 0.73195 0.09953 0.0
C1817 C 0.52907 0.75646 0.09491 0.0
C1818 C 0.53138 0.73267 0.1079 0.0
C1819 C 0.52308 0.75799 0.11188 0.0
C1820 C 0.51747 0.78245 0.10723 0.0
C1821 C 0.52039 0.78168 0.09886 0.0
C1822 C 0.52162 0.75926 0.12086 0.0
C1823 C 0.54082 0.77937 0.1249 0.0
C1824 C 0.50278 0.74005 0.12549 0.0
C1825 C 0.48096 0.71896 0.1217 0.0
C1826 C 0.4571 0.72765 0.11621 0.0
C1827 C 0.43684 0.70761 0.1126 0.0
C1828 C 0.44005 0.67883 0.11447 0.0
C1829 C 0.46348 0.67003 0.11997 0.0
C1830 C 0.48382 0.68998 0.1236 0.0
C1831 C 0.52218 0.78791 0.15961 0.0
C1832 C 0.52921 0.76305 0.16392 0.0
C1833 C 0.51895 0.78723 0.15126 0.0
C1834 C 0.52332 0.76175 0.14697 0.0
C1835 C 0.52903 0.7367 0.15135 0.0
C1836 C 0.53197 0.73736 0.15971 0.0
C1837 C 0.52325 0.76129 0.13796 0.0
C1838 C 0.50394 0.74126 0.13392 0.0
C1839 C 0.54228 0.78035 0.13332 0.0
C1840 C 0.56531 0.80056 0.13706 0.0
C1841 C 0.58959 0.79078 0.1423 0.0
C1842 C 0.61084 0.80998 0.14592 0.0
C1843 C 0.60829 0.839 0.14429 0.0
C1844 C 0.58453 0.84886 0.13902 0.0
C1845 C 0.56315 0.82975 0.1354 0.0
H1846 H 0.62477 0.85383 0.14711 0.0
H1847 H 0.42435 0.66335 0.11166 0.0
H1848 H 0.70965 0.55809 0.84664 0.0
H1849 H 0.71038 0.55686 0.86125 0.0
H1850 H 0.78871 0.49614 0.86067 0.0
H1851 H 0.78785 0.497 0.84606 0.0
H1852 H 0.74428 0.48243 0.87232 0.0
H1853 H 0.80399 0.56556 0.86437 0.0
H1854 H 0.81232 0.61097 0.85731 0.0
H1855 H 0.73176 0.64754 0.86998 0.0
H1856 H 0.72266 0.60219 0.87703 0.0
H1857 H 0.7922 0.49801 0.91335 0.0
H1858 H 0.78984 0.4946 0.89874 0.0
H1859 H 0.72142 0.56396 0.89813 0.0
H1860 H 0.72435 0.5678 0.91262 0.0
H1861 H 0.76191 0.57254 0.88693 0.0
H1862 H 0.70086 0.49026 0.89476 0.0
H1863 H 0.69079 0.44492 0.90172 0.0
H1864 H 0.77111 0.40684 0.88932 0.0
H1865 H 0.78193 0.45209 0.88236 0.0
C1866 C 0.72674 0.54413 0.8496 0.0
C1867 C 0.74879 0.52775 0.8451 0.0
C1868 C 0.72733 0.54363 0.85799 0.0
C1869 C 0.7499 0.52666 0.86215 0.0
C1870 C 0.77113 0.50952 0.85767 0.0
C1871 C 0.77074 0.51019 0.84928 0.0
C1872 C 0.75202 0.52742 0.87111 0.0
C1873 C 0.7485 0.50211 0.8755 0.0
C1874 C 0.75689 0.55306 0.87536 0.0
C1875 C 0.76245 0.58039 0.87117 0.0
C1876 C 0.7879 0.58322 0.86561 0.0
C1877 C 0.79278 0.60895 0.86161 0.0
C1878 C 0.77253 0.6321 0.86318 0.0
C1879 C 0.7474 0.62958 0.86876 0.0
C1880 C 0.74238 0.60387 0.87276 0.0
C1881 C 0.77645 0.51236 0.9101 0.0
C1882 C 0.75867 0.53331 0.91421 0.0
C1883 C 0.77501 0.51037 0.90171 0.0
C1884 C 0.75522 0.52889 0.89721 0.0
C1885 C 0.73711 0.54948 0.90135 0.0
C1886 C 0.73883 0.55167 0.90969 0.0
C1887 C 0.75377 0.52755 0.88821 0.0
C1888 C 0.75756 0.5528 0.88378 0.0
C1889 C 0.74887 0.50187 0.88394 0.0
C1890 C 0.74241 0.47464 0.88811 0.0
C1891 C 0.71653 0.47228 0.89356 0.0
C1892 C 0.71066 0.44658 0.8975 0.0
C1893 C 0.73036 0.42303 0.89598 0.0
C1894 C 0.75591 0.42511 0.8905 0.0
C1895 C 0.76191 0.45077 0.88656 0.0
H1896 H 0.72577 0.40316 0.89903 0.0
H1897 H 0.77635 0.65201 0.86009 0.0
H1898 H 0.48868 0.29962 0.16246 0.0
H1899 H 0.49339 0.30085 0.14785 0.0
H1900 H 0.46521 0.21277 0.14678 0.0
H1901 H 0.4606 0.21161 0.16142 0.0
H1902 H 0.51387 0.22468 0.13587 0.0
H1903 H 0.4107 0.26434 0.14331 0.0
H1904 H 0.37456 0.29707 0.15059 0.0
H1905 H 0.42071 0.36837 0.13927 0.0
H1906 H 0.45758 0.33606 0.13203 0.0
H1907 H 0.46476 0.21772 0.09508 0.0
H1908 H 0.46975 0.21613 0.10965 0.0
H1909 H 0.48508 0.30674 0.11003 0.0
H1910 H 0.47897 0.30825 0.09543 0.0
H1911 H 0.44512 0.29421 0.1214 0.0
H1912 H 0.54776 0.25507 0.11373 0.0
H1913 H 0.58499 0.2227 0.10664 0.0
H1914 H 0.54129 0.15116 0.11842 0.0
H1915 H 0.50346 0.18308 0.12549 0.0
C1916 C 0.48425 0.28037 0.15911 0.0
C1917 C 0.47481 0.25538 0.16309 0.0
C1918 C 0.48663 0.28113 0.15074 0.0
C1919 C 0.47941 0.25696 0.14613 0.0
C1920 C 0.47104 0.23171 0.15015 0.0
C1921 C 0.46847 0.23101 0.15852 0.0
C1922 C 0.47899 0.25839 0.13715 0.0
C1923 C 0.49858 0.2397 0.13271 0.0
C1924 C 0.45963 0.27835 0.13295 0.0
C1925 C 0.43712 0.29779 0.13719 0.0
C1926 C 0.4133 0.28701 0.14241 0.0
C1927 C 0.39267 0.30548 0.14653 0.0
C1928 C 0.39538 0.33479 0.14541 0.0
C1929 C 0.41867 0.34566 0.14014 0.0
C1930 C 0.43944 0.32728 0.13603 0.0
C1931 C 0.4698 0.23718 0.09828 0.0
C1932 C 0.47195 0.26305 0.09411 0.0
C1933 C 0.4727 0.23631 0.10664 0.0
C1934 C 0.47829 0.26127 0.11106 0.0
C1935 C 0.48087 0.28711 0.10684 0.0
C1936 C 0.47768 0.28798 0.09848 0.0
C1937 C 0.48014 0.26053 0.12006 0.0
C1938 C 0.46065 0.27929 0.12453 0.0
C1939 C 0.49972 0.2407 0.12428 0.0
C1940 C 0.52258 0.22146 0.12008 0.0
C1941 C 0.54594 0.23242 0.11477 0.0
C1942 C 0.56717 0.21415 0.11076 0.0
C1943 C 0.56546 0.18489 0.11207 0.0
C1944 C 0.54256 0.17383 0.1174 0.0
C1945 C 0.52124 0.192 0.12142 0.0
H1946 H 0.58191 0.17078 0.10896 0.0
H1947 H 0.37939 0.34906 0.1486 0.0
H1948 H 0.72718 0.95006 0.34631 0.0
H1949 H 0.72431 0.95458 0.36079 0.0
H1950 H 0.78485 0.02919 0.35968 0.0
H1951 H 0.78824 0.02451 0.34508 0.0
H1952 H 0.80383 0.99343 0.37192 0.0
H1953 H 0.70371 0.03506 0.36329 0.0
H1954 H 0.65208 0.03723 0.35585 0.0
H1955 H 0.61748 0.96345 0.36833 0.0
H1956 H 0.66911 0.96058 0.37576 0.0
H1957 H 0.77846 0.02317 0.41332 0.0
H1958 H 0.78054 0.02745 0.39877 0.0
H1959 H 0.71143 0.95906 0.39663 0.0
H1960 H 0.70797 0.95565 0.41111 0.0
H1961 H 0.69744 0.99603 0.38588 0.0
H1962 H 0.79762 0.95147 0.39367 0.0
H1963 H 0.84944 0.94716 0.40097 0.0
H1964 H 0.88405 0.02394 0.39002 0.0
H1965 H 0.83222 0.02891 0.38273 0.0
C1966 C 0.74011 0.96741 0.34911 0.0
C1967 C 0.75813 0.98682 0.34445 0.0
C1968 C 0.73819 0.97011 0.35744 0.0
C1969 C 0.75414 0.99236 0.36142 0.0
C1970 C 0.77224 0.01182 0.35681 0.0
C1971 C 0.77397 0.00925 0.34843 0.0
C1972 C 0.75192 0.99492 0.37037 0.0
C1973 C 0.78056 0.99453 0.37496 0.0
C1974 C 0.72162 0.99565 0.37444 0.0
C1975 C 0.6904 0.99748 0.37004 0.0
C1976 C 0.68518 0.01918 0.36441 0.0
C1977 C 0.6559 0.02055 0.3602 0.0
C1978 C 0.63154 1.00046 0.3616 0.0
C1979 C 0.63638 0.97899 0.36724 0.0
C1980 C 0.66564 0.9775 0.37146 0.0
C1981 C 0.76325 0.00931 0.40978 0.0
C1982 C 0.74328 0.98884 0.41351 0.0
C1983 C 0.76482 0.01152 0.4014 0.0
C1984 C 0.74669 0.99318 0.39647 0.0
C1985 C 0.72594 0.97341 0.40019 0.0
C1986 C 0.72424 0.97129 0.40855 0.0
C1987 C 0.74937 0.99417 0.38747 0.0
C1988 C 0.72077 0.99518 0.38287 0.0
C1989 C 0.77971 0.99374 0.38339 0.0
C1990 C 0.81091 0.99073 0.38773 0.0
C1991 C 0.81619 0.96754 0.39287 0.0
C1992 C 0.84557 0.96497 0.39699 0.0
C1993 C 0.86998 0.98531 0.39598 0.0
C1994 C 0.86509 1.00823 0.39081 0.0
C1995 C 0.83573 0.01093 0.38668 0.0
H1996 H 0.89271 0.98328 0.39918 0.0
H1997 H 0.6089 1.00155 0.35833 0.0
H1998 H 0.03867 0.21493 0.66212 0.0
H1999 H 0.03395 0.21334 0.64752 0.0
H2000 H 0.02018 0.30406 0.64697 0.0
H2001 H 0.02508 0.30556 0.66162 0.0
H2002 H 0.97973 0.27619 0.63605 0.0
H2003 H 0.09308 0.27718 0.64284 0.0
H2004 H 0.14224 0.26048 0.64982 0.0
H2005 H 0.13274 0.17879 0.63874 0.0
H2006 H 0.08321 0.19489 0.63178 0.0
H2007 H 0.01818 0.29799 0.59474 0.0
H2008 H 0.01384 0.29883 0.60934 0.0
H2009 H 0.04179 0.21061 0.61024 0.0
H2010 H 0.0468 0.21012 0.59564 0.0
H2011 H 0.07392 0.23733 0.62112 0.0
H2012 H 0.96115 0.2357 0.6142 0.0
H2013 H 0.91118 0.25145 0.60739 0.0
H2014 H 0.9184 0.33287 0.61873 0.0
H2015 H 0.96871 0.31774 0.62552 0.0
C2016 C 0.03403 0.23443 0.65888 0.0
C2017 C 0.03204 0.26035 0.663 0.0
C2018 C 0.03157 0.23357 0.65052 0.0
C2019 C 0.02704 0.25862 0.64606 0.0
C2020 C 0.02365 0.28441 0.65023 0.0
C2021 C 0.02638 0.28529 0.6586 0.0
C2022 C 0.02751 0.25799 0.63708 0.0
C2023 C 1.00049 0.26801 0.63279 0.0
C2024 C 0.05423 0.24677 0.63275 0.0
C2025 C 0.08426 0.23716 0.63684 0.0
C2026 C 0.10135 0.25559 0.64193 0.0
C2027 C 0.1293 0.24625 0.64588 0.0
C2028 C 0.14056 0.21857 0.64474 0.0
C2029 C 0.12396 0.20021 0.63963 0.0
C2030 C 0.09596 0.20944 0.63567 0.0
C2031 C 0.0226 0.27862 0.59806 0.0
C2032 C 0.03206 0.25379 0.59402 0.0
C2033 C 0.02019 0.27908 0.60643 0.0
C2034 C 0.02703 0.25467 0.61101 0.0
C2035 C 0.03623 0.22978 0.60694 0.0
C2036 C 0.0388 0.22938 0.59857 0.0
C2037 C 0.02597 0.25536 0.62002 0.0
C2038 C 0.05302 0.24543 0.62434 0.0
C2039 C 0.99918 0.26654 0.62436 0.0
C2040 C 0.96888 0.27567 0.62031 0.0
C2041 C 0.95222 0.25704 0.6152 0.0
C2042 C 0.92382 0.26584 0.61135 0.0
C2043 C 0.91167 0.29317 0.61261 0.0
C2044 C 0.92787 0.31172 0.61775 0.0
C2045 C 0.95631 0.30303 0.62161 0.0
H2046 H 0.88967 0.29994 0.60963 0.0
H2047 H 0.16218 0.21136 0.64781 0.0
H2048 H 0.33969 0.13023 0.28027 0.0
H2049 H 0.36156 0.15357 0.26839 0.0
H2050 H 0.29629 0.10523 0.25362 0.0
H2051 H 0.27414 0.0816 0.26559 0.0
H2052 H 0.35993 0.10699 0.2473 0.0
H2053 H 0.28169 0.17446 0.25691 0.0
H2054 H 0.25559 0.20517 0.26695 0.0
H2055 H 0.3452 0.25059 0.27013 0.0
H2056 H 0.37198 0.21987 0.26019 0.0
H2057 H 0.39171 0.18547 0.21159 0.0
H2058 H 0.36843 0.16066 0.22308 0.0
H2059 H 0.41454 0.22058 0.23887 0.0
H2060 H 0.43557 0.2467 0.2273 0.0
H2061 H 0.35954 0.21184 0.24464 0.0
H2062 H 0.43917 0.14492 0.23567 0.0
H2063 H 0.46728 0.11442 0.2259 0.0
H2064 H 0.37899 0.06779 0.22198 0.0
H2065 H 0.35024 0.09826 0.23165 0.0
C2066 C 0.32988 0.12442 0.27451 0.0
C2067 C 0.30506 0.10378 0.27397 0.0
C2068 C 0.34239 0.138 0.26768 0.0
C2069 C 0.33072 0.13143 0.26002 0.0
C2070 C 0.30591 0.11083 0.25942 0.0
C2071 C 0.29302 0.09743 0.2663 0.0
C2072 C 0.34456 0.1461 0.25271 0.0
C2073 C 0.3594 0.12991 0.24667 0.0
C2074 C 0.345 0.17611 0.25191 0.0
C2075 C 0.32891 0.19469 0.25785 0.0
C2076 C 0.2959 0.19086 0.25979 0.0
C2077 C 0.28097 0.20829 0.26546 0.0
C2078 C 0.29875 0.22977 0.26919 0.0
C2079 C 0.33147 0.23392 0.26724 0.0
C2080 C 0.34653 0.21652 0.26159 0.0
C2081 C 0.39734 0.1931 0.21752 0.0
C2082 C 0.41661 0.21761 0.21847 0.0
C2083 C 0.38408 0.17872 0.22415 0.0
C2084 C 0.39014 0.18795 0.23201 0.0
C2085 C 0.40949 0.2125 0.23295 0.0
C2086 C 0.42223 0.22723 0.2263 0.0
C2087 C 0.37536 0.17282 0.23919 0.0
C2088 C 0.36025 0.18892 0.24523 0.0
C2089 C 0.37513 0.14272 0.24004 0.0
C2090 C 0.39248 0.12405 0.23433 0.0
C2091 C 0.42571 0.12825 0.2327 0.0
C2092 C 0.44176 0.11096 0.22718 0.0
C2093 C 0.42491 0.08924 0.2233 0.0
C2094 C 0.392 0.08466 0.22497 0.0
C2095 C 0.37583 0.10191 0.23048 0.0
H2096 H 0.43736 0.07592 0.21902 0.0
H2097 H 0.28714 0.24325 0.27357 0.0
H2098 H 0.84092 0.89023 0.47725 0.0
H2099 H 0.86288 0.86693 0.48911 0.0
H2100 H 0.7965 0.91413 0.50391 0.0
H2101 H 0.77429 0.93774 0.49198 0.0
H2102 H 0.85967 0.91297 0.51033 0.0
H2103 H 0.78314 0.84465 0.50042 0.0
H2104 H 0.75807 0.81384 0.49027 0.0
H2105 H 0.84864 0.76983 0.48717 0.0
H2106 H 0.8744 0.80065 0.49723 0.0
H2107 H 0.89144 0.83408 0.54596 0.0
H2108 H 0.86852 0.85905 0.53449 0.0
H2109 H 0.91505 0.79936 0.51867 0.0
H2110 H 0.93536 0.77289 0.53022 0.0
H2111 H 0.86098 0.80807 0.51276 0.0
H2112 H 0.93877 0.87589 0.52229 0.0
H2113 H 0.96534 0.90677 0.53221 0.0
H2114 H 0.87594 0.95232 0.5356 0.0
H2115 H 0.84869 0.9214 0.52582 0.0
C2116 C 0.8309 0.89582 0.48302 0.0
C2117 C 0.80573 0.91613 0.48358 0.0
C2118 C 0.84346 0.88225 0.48984 0.0
C2119 C 0.83149 0.88849 0.4975 0.0
C2120 C 0.80636 0.90879 0.49811 0.0
C2121 C 0.79344 0.92217 0.49125 0.0
C2122 C 0.84531 0.87381 0.5048 0.0
C2123 C 0.85955 0.89003 0.51091 0.0
C2124 C 0.84624 0.84379 0.50555 0.0
C2125 C 0.83077 0.82514 0.49953 0.0
C2126 C 0.79778 0.82855 0.49753 0.0
C2127 C 0.78343 0.81106 0.4918 0.0
C2128 C 0.80177 0.78994 0.48806 0.0
C2129 C 0.83448 0.78622 0.49006 0.0
C2130 C 0.84895 0.80368 0.49578 0.0
C2131 C 0.89724 0.82653 0.54002 0.0
C2132 C 0.91637 0.80193 0.53908 0.0
C2133 C 0.88422 0.84103 0.5334 0.0
C2134 C 0.8905 0.83195 0.52553 0.0
C2135 C 0.90982 0.80737 0.52459 0.0
C2136 C 0.9222 0.79245 0.53124 0.0
C2137 C 0.87587 0.84714 0.51835 0.0
C2138 C 0.86136 0.83101 0.51223 0.0
C2139 C 0.87512 0.87727 0.51756 0.0
C2140 C 0.8916 0.89613 0.52337 0.0
C2141 C 0.92473 0.89238 0.52519 0.0
C2142 C 0.93991 0.90989 0.53079 0.0
C2143 C 0.92231 0.93142 0.53456 0.0
C2144 C 0.88953 0.93558 0.5327 0.0
C2145 C 0.87421 0.91807 0.52713 0.0
H2146 H 0.93409 0.94493 0.5389 0.0
H2147 H 0.79062 0.77641 0.48363 0.0
H2148 H 0.10613 0.33627 0.71186 0.0
H2149 H 0.12868 0.36099 0.72348 0.0
H2150 H 0.09829 0.29184 0.73863 0.0
H2151 H 0.0757 0.26715 0.72698 0.0
H2152 H 0.08907 0.34072 0.74637 0.0
H2153 H 0.17769 0.29918 0.7322 0.0
H2154 H 0.21177 0.2892 0.72042 0.0
H2155 H 0.23535 0.37773 0.71837 0.0
H2156 H 0.20092 0.38833 0.73006 0.0
H2157 H 0.24172 0.38455 0.77197 0.0
H2158 H 0.21863 0.35989 0.7604 0.0
H2159 H 0.13899 0.41927 0.75994 0.0
H2160 H 0.16188 0.444 0.7714 0.0
H2161 H 0.20433 0.37176 0.74529 0.0
H2162 H 0.0691 0.38728 0.75403 0.0
H2163 H 0.03584 0.39314 0.76618 0.0
H2164 H 0.10809 0.34911 0.77992 0.0
H2165 H 0.14155 0.34264 0.76784 0.0
C2166 C 0.10369 0.32661 0.7177 0.0
C2167 C 0.08841 0.29998 0.71848 0.0
C2168 C 0.11691 0.34065 0.72436 0.0
C2169 C 0.11573 0.32834 0.73202 0.0
C2170 C 0.09959 0.30206 0.73285 0.0
C2171 C 0.08637 0.28797 0.72617 0.0
C2172 C 0.13213 0.3424 0.73907 0.0
C2173 C 0.11423 0.34758 0.74609 0.0
C2174 C 0.16532 0.35093 0.73891 0.0
C2175 C 0.1865 0.34458 0.73197 0.0
C2176 C 0.18999 0.31655 0.72921 0.0
C2177 C 0.20938 0.31078 0.72255 0.0
C2178 C 0.22567 0.33282 0.71864 0.0
C2179 C 0.22269 0.36068 0.7214 0.0
C2180 C 0.20325 0.36658 0.72805 0.0
C2181 C 0.21952 0.39266 0.76936 0.0
C2182 C 0.20366 0.41626 0.77279 0.0
C2183 C 0.20617 0.37838 0.76272 0.0
C2184 C 0.17648 0.38713 0.7593 0.0
C2185 C 0.16138 0.41137 0.76251 0.0
C2186 C 0.17463 0.4256 0.76913 0.0
C2187 C 0.16097 0.37085 0.7525 0.0
C2188 C 0.1791 0.36512 0.74555 0.0
C2189 C 0.12814 0.36136 0.75276 0.0
C2190 C 0.10796 0.36474 0.76004 0.0
C2191 C 0.07781 0.37875 0.75964 0.0
C2192 C 0.05894 0.38219 0.76652 0.0
C2193 C 0.06989 0.37158 0.77382 0.0
C2194 C 0.09968 0.3574 0.77427 0.0
C2195 C 0.11862 0.35387 0.76741 0.0
H2196 H 0.05526 0.3743 0.77914 0.0
H2197 H 0.24066 0.32831 0.71348 0.0
H2198 H 0.65429 0.61578 0.97865 0.0
H2199 H 0.6317 0.63898 0.99028 0.0
H2200 H 0.71972 0.62202 1.00336 0.0
H2201 H 0.74183 0.5965 0.99183 0.0
H2202 H 0.67281 0.61626 1.01329 0.0
H2203 H 0.69771 0.69092 0.99507 0.0
H2204 H 0.69759 0.71676 0.98226 0.0
H2205 H 0.5935 0.72344 0.98327 0.0
H2206 H 0.59296 0.69732 0.99604 0.0
H2207 H 0.61428 0.75815 0.03411 0.0
H2208 H 0.63661 0.73325 0.02252 0.0
H2209 H 0.58917 0.65618 0.03022 0.0
H2210 H 0.56843 0.68096 0.04209 0.0
H2211 H 0.61892 0.70972 1.01009 0.0
H2212 H 0.62862 0.59703 0.02376 0.0
H2213 H 0.63517 0.57446 0.03695 0.0
H2214 H 0.68191 0.64958 0.04579 0.0
H2215 H 0.67611 0.67243 0.03262 0.0
C2216 C 0.66895 0.61625 0.984 0.0
C2217 C 0.70013 0.60357 0.98415 0.0
C2218 C 0.65599 0.63025 0.99069 0.0
C2219 C 0.67393 0.63306 0.99779 0.0
C2220 C 0.70508 0.62046 0.99801 0.0
C2221 C 0.71797 0.60601 0.99132 0.0
C2222 C 0.66006 0.64903 1.00489 0.0
C2223 C 0.66106 0.6367 1.01255 0.0
C2224 C 0.64507 0.67612 1.00414 0.0
C2225 C 0.64529 0.69195 0.99648 0.0
C2226 C 0.67478 0.69775 0.99253 0.0
C2227 C 0.67483 0.71247 0.98528 0.0
C2228 C 0.64555 0.72168 0.98195 0.0
C2229 C 0.61616 0.71627 0.98586 0.0
C2230 C 0.61597 0.70153 0.99311 0.0
C2231 C 0.6085 0.7359 0.03331 0.0
C2232 C 0.58991 0.72148 0.0391 0.0
C2233 C 0.62129 0.72156 0.02664 0.0
C2234 C 0.61556 0.69234 0.02546 0.0
C2235 C 0.59517 0.67837 0.03102 0.0
C2236 C 0.58281 0.69266 0.03777 0.0
C2237 C 0.6312 0.67681 0.0185 0.0
C2238 C 0.63058 0.68924 1.01085 0.0
C2239 C 0.64739 0.65025 0.01932 0.0
C2240 C 0.6516 0.63653 0.02722 0.0
C2241 C 0.64043 0.60868 0.02851 0.0
C2242 C 0.64399 0.59585 0.03598 0.0
C2243 C 0.65882 0.61062 0.04222 0.0
C2244 C 0.67032 0.6382 0.04097 0.0
C2245 C 0.6669 0.6511 0.0335 0.0
H2246 H 0.66148 0.60066 0.048 0.0
H2247 H 0.64564 0.73306 0.97633 0.0
H2248 H 0.42946 0.26963 0.02999 0.0
H2249 H 0.40764 0.29446 0.01826 0.0
H2250 H 0.37497 0.36281 0.03334 0.0
H2251 H 0.39685 0.33796 0.04504 0.0
H2252 H 0.32825 0.35086 0.02328 0.0
H2253 H 0.44232 0.36893 0.02034 0.0
H2254 H 0.50043 0.35647 0.01927 0.0
H2255 H 0.48082 0.30738 0.99826 0.0
H2256 H 0.42249 0.31922 0.99927 0.0
H2257 H 0.3462 0.44437 0.98443 0.0
H2258 H 0.36864 0.42039 0.99609 0.0
H2259 H 0.28804 0.36192 0.99606 0.0
H2260 H 0.26545 0.38576 0.98429 0.0
H2261 H 0.3919 0.36972 0.99869 0.0
H2262 H 0.27399 0.33706 1.0151 0.0
H2263 H 0.21742 0.3536 1.01672 0.0
H2264 H 0.24736 0.4391 1.01165 0.0
H2265 H 0.30414 0.42313 1.0101 0.0
C2266 C 0.41852 0.29035 0.03077 0.0
C2267 C 0.41587 0.30216 0.03846 0.0
C2268 C 0.40571 0.30453 0.02404 0.0
C2269 C 0.38966 0.3309 0.02479 0.0
C2270 C 0.3871 0.34263 0.03249 0.0
C2271 C 0.39996 0.32851 0.0392 0.0
C2272 C 0.37501 0.34598 1.01764 0.0
C2273 C 0.34226 0.35482 0.0179 0.0
C2274 C 0.39295 0.35178 1.01057 0.0
C2275 C 0.428 0.34473 1.00993 0.0
C2276 C 0.45037 0.3553 1.01553 0.0
C2277 C 0.48335 0.34838 1.01493 0.0
C2278 C 0.4943 0.33108 1.00872 0.0
C2279 C 0.4723 0.32074 1.00308 0.0
C2280 C 0.43928 0.32757 1.00366 0.0
C2281 C 0.33312 0.42632 0.98684 0.0
C2282 C 0.30384 0.41713 0.98326 0.0
C2283 C 0.34612 0.41254 0.99358 0.0
C2284 C 0.3303 0.38913 0.99709 0.0
C2285 C 0.3008 0.38008 0.99362 0.0
C2286 C 0.28773 0.3939 0.98685 0.0
C2287 C 0.34499 0.37428 1.00428 0.0
C2288 C 0.37778 0.36554 1.00404 0.0
C2289 C 0.32722 0.36894 1.01141 0.0
C2290 C 0.29323 0.37882 1.01239 0.0
C2291 C 0.2685 0.35939 1.01435 0.0
C2292 C 0.2364 0.36867 1.01526 0.0
C2293 C 0.22878 0.39737 1.01426 0.0
C2294 C 0.25327 0.41687 1.01239 0.0
C2295 C 0.2854 0.4077 1.01148 0.0
H2296 H 0.20392 0.4045 1.01496 0.0
H2297 H 0.51984 0.32575 1.00826 0.0
H2298 H 0.66953 0.95026 0.27108 0.0
H2299 H 0.64665 0.92627 0.25947 0.0
H2300 H 0.71152 0.85564 0.26329 0.0
H2301 H 0.73551 0.88037 0.27475 0.0
H2302 H 0.70604 0.8606 0.24833 0.0
H2303 H 0.62454 0.85708 0.26861 0.0
H2304 H 0.58726 0.87577 0.27888 0.0
H2305 H 0.5389 0.92645 0.26119 0.0
H2306 H 0.57619 0.90834 0.25084 0.0
H2307 H 0.61534 0.76244 0.22465 0.0
H2308 H 0.63712 0.78723 0.23637 0.0
H2309 H 0.59051 0.86446 0.22866 0.0
H2310 H 0.56923 0.83966 0.21682 0.0
H2311 H 0.58608 0.85553 0.24549 0.0
H2312 H 0.6688 0.85586 0.22514 0.0
H2313 H 0.7046 0.83315 0.21522 0.0
H2314 H 0.74965 0.78387 0.23373 0.0
H2315 H 0.71364 0.8059 0.24375 0.0
C2316 C 0.67911 0.92966 0.26944 0.0
C2317 C 0.70438 0.91731 0.27394 0.0
C2318 C 0.66571 0.91571 0.26279 0.0
C2319 C 0.67637 0.88844 0.2605 0.0
C2320 C 0.7024 0.87647 0.26484 0.0
C2321 C 0.71627 0.89071 0.27143 0.0
C2322 C 0.66033 0.87253 0.25367 0.0
C2323 C 0.67979 0.85928 0.24782 0.0
C2324 C 0.62592 0.87071 0.25277 0.0
C2325 C 0.60337 0.88157 0.25897 0.0
C2326 C 0.60609 0.87235 0.26692 0.0
C2327 C 0.58494 0.88282 0.27276 0.0
C2328 C 0.56078 0.90234 0.27069 0.0
C2329 C 0.55766 0.91136 0.26278 0.0
C2330 C 0.57878 0.90099 0.25693 0.0
C2331 C 0.60943 0.78463 0.22551 0.0
C2332 C 0.59075 0.79911 0.21975 0.0
C2333 C 0.62204 0.79888 0.2322 0.0
C2334 C 0.616 0.82799 0.23342 0.0
C2335 C 0.59577 0.8421 0.2279 0.0
C2336 C 0.58348 0.82788 0.22113 0.0
C2337 C 0.63182 0.8438 0.24023 0.0
C2338 C 0.61232 0.85696 0.24605 0.0
C2339 C 0.66611 0.84511 0.24118 0.0
C2340 C 0.68831 0.83235 0.23519 0.0
C2341 C 0.68619 0.84005 0.22709 0.0
C2342 C 0.70653 0.82731 0.22145 0.0
C2343 C 0.72934 0.80704 0.22384 0.0
C2344 C 0.73194 0.79955 0.23189 0.0
C2345 C 0.71157 0.81217 0.23755 0.0
H2346 H 0.74505 0.79718 0.21946 0.0
H2347 H 0.54444 0.91043 0.27521 0.0
H2348 H 0.23029 0.07968 0.4917 0.0
H2349 H 0.20755 0.10316 0.50358 0.0
H2350 H 0.1469 0.15503 0.48853 0.0
H2351 H 0.16926 0.13164 0.47671 0.0
H2352 H 0.17471 0.18669 0.50063 0.0
H2353 H 0.1153 0.09858 0.49837 0.0
H2354 H 0.10992 0.04653 0.49754 0.0
H2355 H 0.15686 0.03762 0.52027 0.0
H2356 H 0.16293 0.08964 0.52118 0.0
H2357 H 0.06989 0.24602 0.52981 0.0
H2358 H 0.09108 0.22076 0.51815 0.0
H2359 H 0.13388 0.15782 0.53363 0.0
H2360 H 0.11058 0.18204 0.54523 0.0
H2361 H 0.11664 0.13117 0.52138 0.0
H2362 H 0.17738 0.21685 0.52412 0.0
H2363 H 0.18619 0.26844 0.52536 0.0
H2364 H 0.14253 0.28172 0.5024 0.0
H2365 H 0.13302 0.23022 0.50108 0.0
C2366 C 0.2123 0.09623 0.49091 0.0
C2367 C 0.20157 0.10349 0.48319 0.0
C2368 C 0.19908 0.10958 0.49774 0.0
C2369 C 0.17509 0.13088 0.49704 0.0
C2370 C 0.16518 0.13871 0.48932 0.0
C2371 C 0.17796 0.12513 0.48253 0.0
C2372 C 0.15991 0.14484 0.50427 0.0
C2373 C 0.16173 0.17452 0.50512 0.0
C2374 C 0.14364 0.12921 0.51033 0.0
C2375 C 0.13987 0.09797 0.5098 0.0
C2376 C 0.12471 0.08551 0.50316 0.0
C2377 C 0.12149 0.05602 0.50268 0.0
C2378 C 0.13312 0.03877 0.50883 0.0
C2379 C 0.14791 0.051 0.5155 0.0
C2380 C 0.15123 0.08048 0.516 0.0
C2381 C 0.08274 0.22622 0.53072 0.0
C2382 C 0.08765 0.21572 0.5385 0.0
C2383 C 0.09568 0.21203 0.52402 0.0
C2384 C 0.115 0.1874 0.52488 0.0
C2385 C 0.11924 0.17662 0.53266 0.0
C2386 C 0.10583 0.19053 0.53934 0.0
C2387 C 0.13127 0.17323 0.51777 0.0
C2388 C 0.12968 0.14346 0.51693 0.0
C2389 C 0.14834 0.18876 0.51179 0.0
C2390 C 0.1542 0.21971 0.51254 0.0
C2391 C 0.16948 0.23079 0.51936 0.0
C2392 C 0.17461 0.26001 0.52007 0.0
C2393 C 0.16486 0.27835 0.51397 0.0
C2394 C 0.15003 0.26749 0.50713 0.0
C2395 C 0.14477 0.23829 0.50639 0.0
H2396 H 0.16886 0.30097 0.51453 0.0
H2397 H 0.1306 0.01594 0.50845 0.0
H2398 H 0.93035 0.74907 0.72774 0.0
H2399 H 0.90908 0.72443 0.73957 0.0
H2400 H 0.87892 0.65437 0.72482 0.0
H2401 H 0.90018 0.67911 0.713 0.0
H2402 H 0.83149 0.66634 0.73476 0.0
H2403 H 0.94573 0.65069 0.73819 0.0
H2404 H 0.00346 0.66429 0.73931 0.0
H2405 H 0.98143 0.71539 0.75981 0.0
H2406 H 0.92345 0.7024 0.75874 0.0
H2407 H 0.78805 0.5734 0.76696 0.0
H2408 H 0.81347 0.59491 0.7552 0.0
H2409 H 0.84773 0.66441 0.76959 0.0
H2410 H 0.82378 0.64248 0.7814 0.0
H2411 H 0.89377 0.65181 0.75972 0.0
H2412 H 0.77966 0.66879 0.75613 0.0
H2413 H 0.72166 0.65608 0.75496 0.0
H2414 H 0.7432 0.60333 0.73477 0.0
H2415 H 0.80142 0.61546 0.73588 0.0
C2416 C 0.92009 0.72804 0.72705 0.0
C2417 C 0.91792 0.71575 0.71942 0.0
C2418 C 0.90764 0.71394 0.73384 0.0
C2419 C 0.89249 0.68712 0.73322 0.0
C2420 C 0.89043 0.67488 0.72557 0.0
C2421 C 0.9029 0.68895 0.7188 0.0
C2422 C 0.87791 0.67228 0.74044 0.0
C2423 C 0.8454 0.66283 0.74016 0.0
C2424 C 0.89534 0.66805 0.74765 0.0
C2425 C 0.9302 0.67578 0.74834 0.0
C2426 C 0.95315 0.66499 0.7429 0.0
C2427 C 0.98593 0.67257 0.74353 0.0
C2428 C 0.99609 0.69075 0.74962 0.0
C2429 C 0.97351 0.70134 0.75509 0.0
C2430 C 0.94069 0.69386 0.75448 0.0
C2431 C 0.80117 0.59315 0.76768 0.0
C2432 C 0.80325 0.60609 0.77526 0.0
C2433 C 0.81552 0.60572 0.76087 0.0
C2434 C 0.83233 0.63181 0.76135 0.0
C2435 C 0.83491 0.64447 0.76893 0.0
C2436 C 0.82068 0.63192 0.77573 0.0
C2437 C 0.84729 0.6459 0.75405 0.0
C2438 C 0.87987 0.65524 0.75431 0.0
C2439 C 0.82989 0.65011 0.74683 0.0
C2440 C 0.79493 0.64279 0.74614 0.0
C2441 C 0.77206 0.65431 0.75148 0.0
C2442 C 0.73914 0.64724 0.75082 0.0
C2443 C 0.72876 0.62885 0.74481 0.0
C2444 C 0.75128 0.61754 0.73943 0.0
C2445 C 0.78423 0.62452 0.74007 0.0
H2446 H 0.70327 0.6234 0.74431 0.0
H2447 H 0.02148 0.69659 0.75009 0.0
loop_
_geom_bond_atom_site_label_1
_geom_bond_atom_site_label_2
_geom_bond_distance
_geom_bond_site_symmetry_2
_ccdc_geom_bond_type
C0 C1 1.443 . S
C0 N4 1.376 . S
C0 C38 1.389 . S
C1 C0 1.443 . S
C1 C2 1.340 . S
C1 H41 0.951 . S
C2 C1 1.340 . S
C2 C3 1.439 . S
C2 H42 0.950 . S
C3 C2 1.439 . S
C3 N4 1.374 . S
C3 C37 1.395 . S
N4 C0 1.376 . S
N4 C3 1.374 . S
N4 Co5 2.008 . S
Co5 N4 2.008 . S
Co5 N6 1.995 . S
Co5 N11 2.008 . S
Co5 N16 1.995 . S
Co5 N21 2.282 . S
Co5 N27 2.282 . S
N6 Co5 1.995 . S
N6 C7 1.376 . S
N6 C10 1.383 . S
C7 N6 1.376 . S
C7 C8 1.446 . S
C7 C37 1.391 . S
C8 C7 1.446 . S
C8 C9 1.339 . S
C8 H43 0.949 . S
C9 C8 1.339 . S
C9 C10 1.439 . S
C9 H44 0.950 . S
C10 N6 1.383 . S
C10 C9 1.439 . S
C10 C39 1.392 . S
N11 Co5 2.008 . S
N11 C12 1.376 . S
N11 C15 1.374 1_545 S
C12 N11 1.376 . S
C12 C13 1.443 . S
C12 C39 1.389 . S
C13 C12 1.443 . S
C13 C14 1.340 1_545 S
C13 H45 0.951 . S
C14 C13 1.340 1_565 S
C14 C15 1.439 . S
C14 H46 0.950 . S
C15 N11 1.374 1_565 S
C15 C14 1.439 . S
C15 C40 1.395 . S
N16 Co5 1.995 . S
N16 C17 1.376 1_545 S
N16 C20 1.383 . S
C17 N16 1.376 1_565 S
C17 C18 1.446 . S
C17 C40 1.391 . S
C18 C17 1.446 . S
C18 C19 1.339 1_565 S
C18 H47 0.949 . S
C19 C18 1.339 1_545 S
C19 C20 1.439 . S
C19 H48 0.946 1_545 S
C20 N16 1.383 . S
C20 C19 1.439 . S
C20 C38 1.392 . S
N21 Co5 2.282 . S
N21 C24 1.332 . S
N21 C26 1.332 . S
C22 C23 1.386 . S
C22 C25 1.388 . S
C23 C22 1.386 . S
C23 C24 1.382 . S
C23 H49 0.950 1_545 S
C24 N21 1.332 . S
C24 C23 1.382 . S
C24 H35 0.952 . S
C25 C22 1.388 . S
C25 C26 1.382 . S
C25 H50 0.950 . S
C26 N21 1.332 . S
C26 C25 1.382 . S
C26 H36 0.948 . S
N27 Co5 2.282 . S
N27 C31 1.332 . S
N27 C32 1.332 . S
C28 C29 1.388 . S
C28 C32 1.382 . S
C28 H51 0.950 . S
C29 C28 1.388 . S
C29 C30 1.386 . S
C30 C29 1.386 . S
C30 C31 1.382 . S
C30 H52 0.950 . S
C31 N27 1.332 . S
C31 C30 1.382 . S
C31 H33 0.952 . S
C32 N27 1.332 . S
C32 C28 1.382 . S
C32 H34 0.948 . S
H33 C31 0.952 . S
H34 C32 0.948 . S
H35 C24 0.952 . S
H36 C26 0.948 . S
C37 C3 1.395 . S
C37 C7 1.391 . S
C38 C0 1.389 . S
C38 C20 1.392 . S
C39 C10 1.392 . S
C39 C12 1.389 . S
C40 C15 1.395 . S
C40 C17 1.391 . S
H41 C1 0.951 . S
H42 C2 0.950 . S
H43 C8 0.949 . S
H44 C9 0.950 . S
H45 C13 0.951 . S
H46 C14 0.950 . S
H47 C18 0.949 . S
H48 C19 0.946 1_565 S
H49 C23 0.950 1_565 S
H50 C25 0.950 . S
H51 C28 0.950 . S
H52 C30 0.950 . S
C53 C54 1.443 . S
C53 N57 1.376 . S
C53 C91 1.389 . S
C54 C53 1.443 . S
C54 C55 1.340 1_655 S
C54 H94 0.951 . S
C55 C54 1.340 1_455 S
C55 C56 1.439 . S
C55 H95 0.950 . S
C56 C55 1.439 . S
C56 N57 1.374 1_455 S
C56 C90 1.395 . S
N57 C53 1.376 . S
N57 C56 1.374 1_655 S
N57 Co58 2.008 . S
Co58 N57 2.008 . S
Co58 N59 1.995 . S
Co58 N64 2.008 . S
Co58 N69 1.995 . S
Co58 N74 2.282 . S
Co58 N80 2.282 . S
N59 Co58 1.995 . S
N59 C60 1.376 1_655 S
N59 C63 1.383 . S
C60 N59 1.376 1_455 S
C60 C61 1.446 . S
C60 C90 1.391 . S
C61 C60 1.446 . S
C61 C62 1.339 . S
C61 H96 0.949 . S
C62 C61 1.339 . S
C62 C63 1.439 1_455 S
C62 H97 0.950 . S
C63 N59 1.383 . S
C63 C62 1.439 1_655 S
C63 C92 1.392 . S
N64 Co58 2.008 . S
N64 C65 1.376 . S
N64 C68 1.374 . S
C65 N64 1.376 . S
C65 C66 1.443 . S
C65 C92 1.389 . S
C66 C65 1.443 . S
C66 C67 1.340 . S
C66 H98 0.951 . S
C67 C66 1.340 . S
C67 C68 1.439 . S
C67 H99 0.950 . S
C68 N64 1.374 . S
C68 C67 1.439 . S
C68 C93 1.395 . S
N69 Co58 1.995 . S
N69 C70 1.376 . S
N69 C73 1.383 . S
C70 N69 1.376 . S
C70 C71 1.446 . S
C70 C93 1.391 . S
C71 C70 1.446 . S
C71 C72 1.339 . S
C71 H100 0.949 . S
C72 C71 1.339 . S
C72 C73 1.439 . S
C72 H101 0.950 . S
C73 N69 1.383 . S
C73 C72 1.439 . S
C73 C91 1.392 . S
N74 Co58 2.282 . S
N74 C77 1.332 . S
N74 C79 1.332 . S
C75 C76 1.386 . S
C75 C78 1.388 . S
C76 C75 1.386 . S
C76 C77 1.382 . S
C76 H102 0.950 . S
C77 N74 1.332 . S
C77 C76 1.382 . S
C77 H88 0.952 . S
C78 C75 1.388 . S
C78 C79 1.382 . S
C78 H103 0.944 1_655 S
C79 N74 1.332 . S
C79 C78 1.382 . S
C79 H89 0.946 1_655 S
N80 Co58 2.282 . S
N80 C84 1.332 . S
N80 C85 1.332 . S
C81 C82 1.388 . S
C81 C85 1.382 . S
C81 H104 0.950 . S
C82 C81 1.388 . S
C82 C83 1.386 . S
C83 C82 1.386 . S
C83 C84 1.382 . S
C83 H105 0.950 1_655 S
C84 N80 1.332 . S
C84 C83 1.382 . S
C84 H86 0.952 . S
C85 N80 1.332 . S
C85 C81 1.382 . S
C85 H87 0.948 . S
H86 C84 0.952 . S
H87 C85 0.948 . S
H88 C77 0.952 . S
H89 C79 0.946 1_455 S
C90 C56 1.395 . S
C90 C60 1.391 . S
C91 C53 1.389 . S
C91 C73 1.392 . S
C92 C63 1.392 . S
C92 C65 1.389 . S
C93 C68 1.395 . S
C93 C70 1.391 . S
H94 C54 0.951 . S
H95 C55 0.950 . S
H96 C61 0.949 . S
H97 C62 0.950 . S
H98 C66 0.951 . S
H99 C67 0.950 . S
H100 C71 0.949 . S
H101 C72 0.950 . S
H102 C76 0.950 . S
H103 C78 0.944 1_455 S
H104 C81 0.950 . S
H105 C83 0.950 1_455 S
C106 C107 1.443 . S
C106 N110 1.376 . S
C106 C144 1.389 . S
C107 C106 1.443 . S
C107 C108 1.340 . S
C107 H147 0.951 . S
C108 C107 1.340 . S
C108 C109 1.439 . S
C108 H148 0.950 . S
C109 C108 1.439 . S
C109 N110 1.374 . S
C109 C143 1.395 . S
N110 C106 1.376 . S
N110 C109 1.374 . S
N110 Co111 2.008 . S
Co111 N110 2.008 . S
Co111 N112 1.995 . S
Co111 N117 2.008 . S
Co111 N122 1.995 . S
Co111 N127 2.282 . S
Co111 N133 2.282 . S
N112 Co111 1.995 . S
N112 C113 1.376 . S
N112 C116 1.383 . S
C113 N112 1.376 . S
C113 C114 1.446 . S
C113 C143 1.391 . S
C114 C113 1.446 . S
C114 C115 1.339 . S
C114 H149 0.949 . S
C115 C114 1.339 . S
C115 C116 1.439 . S
C115 H150 0.950 . S
C116 N112 1.383 . S
C116 C115 1.439 . S
C116 C145 1.392 . S
N117 Co111 2.008 . S
N117 C118 1.376 . S
N117 C121 1.374 . S
C118 N117 1.376 . S
C118 C119 1.443 . S
C118 C145 1.389 . S
C119 C118 1.443 . S
C119 C120 1.340 . S
C119 H151 0.951 . S
C120 C119 1.340 . S
C120 C121 1.439 . S
C120 H152 0.950 . S
C121 N117 1.374 . S
C121 C120 1.439 . S
C121 C146 1.395 . S
N122 Co111 1.995 . S
N122 C123 1.376 . S
N122 C126 1.383 . S
C123 N122 1.376 . S
C123 C124 1.446 . S
C123 C146 1.391 . S
C124 C123 1.446 . S
C124 C125 1.339 . S
C124 H153 0.949 . S
C125 C124 1.339 . S
C125 C126 1.439 . S
C125 H154 0.950 . S
C126 N122 1.383 . S
C126 C125 1.439 . S
C126 C144 1.392 . S
N127 Co111 2.282 . S
N127 C130 1.332 . S
N127 C132 1.332 . S
C128 C129 1.386 . S
C128 C131 1.388 . S
C129 C128 1.386 . S
C129 C130 1.382 . S
C129 H155 0.950 . S
C130 N127 1.332 . S
C130 C129 1.382 . S
C130 H141 0.952 . S
C131 C128 1.388 . S
C131 C132 1.382 . S
C131 H156 0.950 . S
C132 N127 1.332 . S
C132 C131 1.382 . S
C132 H142 0.948 . S
N133 Co111 2.282 . S
N133 C137 1.332 . S
N133 C138 1.332 . S
C134 C135 1.388 . S
C134 C138 1.382 . S
C134 H157 0.950 . S
C135 C134 1.388 . S
C135 C136 1.386 . S
C136 C135 1.386 . S
C136 C137 1.382 . S
C136 H158 0.950 . S
C137 N133 1.332 . S
C137 C136 1.382 . S
C137 H139 0.952 . S
C138 N133 1.332 . S
C138 C134 1.382 . S
C138 H140 0.948 . S
H139 C137 0.952 . S
H140 C138 0.948 . S
H141 C130 0.952 . S
H142 C132 0.948 . S
C143 C109 1.395 . S
C143 C113 1.391 . S
C144 C106 1.389 . S
C144 C126 1.392 . S
C145 C116 1.392 . S
C145 C118 1.389 . S
C146 C121 1.395 . S
C146 C123 1.391 . S
H147 C107 0.951 . S
H148 C108 0.950 . S
H149 C114 0.949 . S
H150 C115 0.950 . S
H151 C119 0.951 . S
H152 C120 0.950 . S
H153 C124 0.949 . S
H154 C125 0.950 . S
H155 C129 0.950 . S
H156 C131 0.950 . S
H157 C134 0.950 . S
H158 C136 0.950 . S
C159 C160 1.443 . S
C159 N163 1.376 . S
C159 C197 1.389 . S
C160 C159 1.443 . S
C160 C161 1.340 . S
C160 H200 0.951 . S
C161 C160 1.340 . S
C161 C162 1.439 . S
C161 H201 0.950 . S
C162 C161 1.439 . S
C162 N163 1.374 . S
C162 C196 1.395 . S
N163 C159 1.376 . S
N163 C162 1.374 . S
N163 Co164 2.008 . S
Co164 N163 2.008 . S
Co164 N165 1.995 . S
Co164 N170 2.008 . S
Co164 N175 1.995 . S
Co164 N180 2.282 . S
Co164 N186 2.282 . S
N165 Co164 1.995 . S
N165 C166 1.376 . S
N165 C169 1.383 . S
C166 N165 1.376 . S
C166 C167 1.446 . S
C166 C196 1.391 . S
C167 C166 1.446 . S
C167 C168 1.339 . S
C167 H202 0.949 . S
C168 C167 1.339 . S
C168 C169 1.439 . S
C168 H203 0.950 . S
C169 N165 1.383 . S
C169 C168 1.439 . S
C169 C198 1.392 . S
N170 Co164 2.008 . S
N170 C171 1.376 . S
N170 C174 1.374 . S
C171 N170 1.376 . S
C171 C172 1.443 . S
C171 C198 1.389 . S
C172 C171 1.443 . S
C172 C173 1.340 . S
C172 H204 0.951 . S
C173 C172 1.340 . S
C173 C174 1.439 . S
C173 H205 0.950 . S
C174 N170 1.374 . S
C174 C173 1.439 . S
C174 C199 1.395 . S
N175 Co164 1.995 . S
N175 C176 1.376 . S
N175 C179 1.383 . S
C176 N175 1.376 . S
C176 C177 1.446 . S
C176 C199 1.391 . S
C177 C176 1.446 . S
C177 C178 1.339 . S
C177 H206 0.949 . S
C178 C177 1.339 . S
C178 C179 1.439 . S
C178 H207 0.950 . S
C179 N175 1.383 . S
C179 C178 1.439 . S
C179 C197 1.392 . S
N180 Co164 2.282 . S
N180 C183 1.332 . S
N180 C185 1.332 . S
C181 C182 1.386 . S
C181 C184 1.388 . S
C182 C181 1.386 . S
C182 C183 1.382 . S
C182 H208 0.950 . S
C183 N180 1.332 . S
C183 C182 1.382 . S
C183 H194 0.952 . S
C184 C181 1.388 . S
C184 C185 1.382 . S
C184 H209 0.950 . S
C185 N180 1.332 . S
C185 C184 1.382 . S
C185 H195 0.948 . S
N186 Co164 2.282 . S
N186 C190 1.332 . S
N186 C191 1.332 . S
C187 C188 1.388 . S
C187 C191 1.382 . S
C187 H210 0.950 . S
C188 C187 1.388 . S
C188 C189 1.386 . S
C189 C188 1.386 . S
C189 C190 1.382 . S
C189 H211 0.950 . S
C190 N186 1.332 . S
C190 C189 1.382 . S
C190 H192 0.952 . S
C191 N186 1.332 . S
C191 C187 1.382 . S
C191 H193 0.948 . S
H192 C190 0.952 . S
H193 C191 0.948 . S
H194 C183 0.952 . S
H195 C185 0.948 . S
C196 C162 1.395 . S
C196 C166 1.391 . S
C197 C159 1.389 . S
C197 C179 1.392 . S
C198 C169 1.392 . S
C198 C171 1.389 . S
C199 C174 1.395 . S
C199 C176 1.391 . S
H200 C160 0.951 . S
H201 C161 0.950 . S
H202 C167 0.949 . S
H203 C168 0.950 . S
H204 C172 0.951 . S
H205 C173 0.950 . S
H206 C177 0.949 . S
H207 C178 0.950 . S
H208 C182 0.950 . S
H209 C184 0.950 . S
H210 C187 0.950 . S
H211 C189 0.950 . S
C212 C213 1.443 . S
C212 N216 1.376 . S
C212 C250 1.389 . S
C213 C212 1.443 . S
C213 C214 1.340 . S
C213 H253 0.951 . S
C214 C213 1.340 . S
C214 C215 1.439 . S
C214 H254 0.950 . S
C215 C214 1.439 . S
C215 N216 1.374 . S
C215 C249 1.395 . S
N216 C212 1.376 . S
N216 C215 1.374 . S
N216 Co217 2.008 . S
Co217 N216 2.008 . S
Co217 N218 1.995 . S
Co217 N223 2.008 . S
Co217 N228 1.995 . S
Co217 N233 2.282 . S
Co217 N239 2.282 . S
N218 Co217 1.995 . S
N218 C219 1.376 . S
N218 C222 1.383 . S
C219 N218 1.376 . S
C219 C220 1.446 . S
C219 C249 1.391 . S
C220 C219 1.446 . S
C220 C221 1.339 . S
C220 H255 0.949 . S
C221 C220 1.339 . S
C221 C222 1.439 . S
C221 H256 0.950 . S
C222 N218 1.383 . S
C222 C221 1.439 . S
C222 C251 1.392 . S
N223 Co217 2.008 . S
N223 C224 1.376 . S
N223 C227 1.374 . S
C224 N223 1.376 . S
C224 C225 1.443 . S
C224 C251 1.389 . S
C225 C224 1.443 . S
C225 C226 1.340 . S
C225 H257 0.951 . S
C226 C225 1.340 . S
C226 C227 1.439 . S
C226 H258 0.950 . S
C227 N223 1.374 . S
C227 C226 1.439 . S
C227 C252 1.395 . S
N228 Co217 1.995 . S
N228 C229 1.376 . S
N228 C232 1.383 . S
C229 N228 1.376 . S
C229 C230 1.446 . S
C229 C252 1.391 . S
C230 C229 1.446 . S
C230 C231 1.339 . S
C230 H259 0.949 . S
C231 C230 1.339 . S
C231 C232 1.439 . S
C231 H260 0.950 . S
C232 N228 1.383 . S
C232 C231 1.439 . S
C232 C250 1.392 . S
N233 Co217 2.282 . S
N233 C236 1.332 . S
N233 C238 1.332 . S
C234 C235 1.386 . S
C234 C237 1.388 . S
C235 C234 1.386 . S
C235 C236 1.382 . S
C235 H261 0.950 . S
C236 N233 1.332 . S
C236 C235 1.382 . S
C236 H247 0.952 . S
C237 C234 1.388 . S
C237 C238 1.382 . S
C237 H262 0.950 . S
C238 N233 1.332 . S
C238 C237 1.382 . S
C238 H248 0.948 . S
N239 Co217 2.282 . S
N239 C243 1.332 . S
N239 C244 1.332 . S
C240 C241 1.388 . S
C240 C244 1.382 . S
C240 H263 0.950 . S
C241 C240 1.388 . S
C241 C242 1.386 . S
C242 C241 1.386 . S
C242 C243 1.382 . S
C242 H264 0.950 . S
C243 N239 1.332 . S
C243 C242 1.382 . S
C243 H245 0.952 . S
C244 N239 1.332 . S
C244 C240 1.382 . S
C244 H246 0.948 . S
H245 C243 0.952 . S
H246 C244 0.948 . S
H247 C236 0.952 . S
H248 C238 0.948 . S
C249 C215 1.395 . S
C249 C219 1.391 . S
C250 C212 1.389 . S
C250 C232 1.392 . S
C251 C222 1.392 . S
C251 C224 1.389 . S
C252 C227 1.395 . S
C252 C229 1.391 . S
H253 C213 0.951 . S
H254 C214 0.950 . S
H255 C220 0.949 . S
H256 C221 0.950 . S
H257 C225 0.951 . S
H258 C226 0.950 . S
H259 C230 0.949 . S
H260 C231 0.950 . S
H261 C235 0.950 . S
H262 C237 0.950 . S
H263 C240 0.950 . S
H264 C242 0.950 . S
C265 C266 1.443 . S
C265 N269 1.376 . S
C265 C303 1.389 . S
C266 C265 1.443 . S
C266 C267 1.340 . S
C266 H306 0.951 . S
C267 C266 1.340 . S
C267 C268 1.439 . S
C267 H307 0.950 . S
C268 C267 1.439 . S
C268 N269 1.374 . S
C268 C302 1.395 . S
N269 C265 1.376 . S
N269 C268 1.374 . S
N269 Co270 2.008 . S
Co270 N269 2.008 . S
Co270 N271 1.995 . S
Co270 N276 2.008 . S
Co270 N281 1.995 . S
Co270 N286 2.282 . S
Co270 N292 2.282 . S
N271 Co270 1.995 . S
N271 C272 1.376 . S
N271 C275 1.383 . S
C272 N271 1.376 . S
C272 C273 1.446 . S
C272 C302 1.391 . S
C273 C272 1.446 . S
C273 C274 1.339 . S
C273 H308 0.949 . S
C274 C273 1.339 . S
C274 C275 1.439 . S
C274 H309 0.950 . S
C275 N271 1.383 . S
C275 C274 1.439 . S
C275 C304 1.392 . S
N276 Co270 2.008 . S
N276 C277 1.376 . S
N276 C280 1.374 . S
C277 N276 1.376 . S
C277 C278 1.443 . S
C277 C304 1.389 . S
C278 C277 1.443 . S
C278 C279 1.340 . S
C278 H310 0.951 . S
C279 C278 1.340 . S
C279 C280 1.439 . S
C279 H311 0.950 . S
C280 N276 1.374 . S
C280 C279 1.439 . S
C280 C305 1.395 . S
N281 Co270 1.995 . S
N281 C282 1.376 . S
N281 C285 1.383 . S
C282 N281 1.376 . S
C282 C283 1.446 . S
C282 C305 1.391 . S
C283 C282 1.446 . S
C283 C284 1.339 . S
C283 H312 0.949 . S
C284 C283 1.339 . S
C284 C285 1.439 . S
C284 H313 0.950 . S
C285 N281 1.383 . S
C285 C284 1.439 . S
C285 C303 1.392 . S
N286 Co270 2.282 . S
N286 C289 1.332 . S
N286 C291 1.332 . S
C287 C288 1.386 . S
C287 C290 1.388 . S
C288 C287 1.386 . S
C288 C289 1.382 . S
C288 H314 0.950 . S
C289 N286 1.332 . S
C289 C288 1.382 . S
C289 H300 0.952 . S
C290 C287 1.388 . S
C290 C291 1.382 . S
C290 H315 0.950 . S
C291 N286 1.332 . S
C291 C290 1.382 . S
C291 H301 0.948 . S
N292 Co270 2.282 . S
N292 C296 1.332 . S
N292 C297 1.332 . S
C293 C294 1.388 . S
C293 C297 1.382 . S
C293 H316 0.950 . S
C294 C293 1.388 . S
C294 C295 1.386 . S
C295 C294 1.386 . S
C295 C296 1.382 . S
C295 H317 0.950 . S
C296 N292 1.332 . S
C296 C295 1.382 . S
C296 H298 0.952 . S
C297 N292 1.332 . S
C297 C293 1.382 . S
C297 H299 0.948 . S
H298 C296 0.952 . S
H299 C297 0.948 . S
H300 C289 0.952 . S
H301 C291 0.948 . S
C302 C268 1.395 . S
C302 C272 1.391 . S
C303 C265 1.389 . S
C303 C285 1.392 . S
C304 C275 1.392 . S
C304 C277 1.389 . S
C305 C280 1.395 . S
C305 C282 1.391 . S
H306 C266 0.951 . S
H307 C267 0.950 . S
H308 C273 0.949 . S
H309 C274 0.950 . S
H310 C278 0.951 . S
H311 C279 0.950 . S
H312 C283 0.949 . S
H313 C284 0.950 . S
H314 C288 0.950 . S
H315 C290 0.950 . S
H316 C293 0.950 . S
H317 C295 0.950 . S
C318 C319 1.443 . S
C318 N322 1.376 . S
C318 C356 1.389 . S
C319 C318 1.443 . S
C319 C320 1.340 . S
C319 H359 0.951 . S
C320 C319 1.340 . S
C320 C321 1.439 . S
C320 H360 0.950 . S
C321 C320 1.439 . S
C321 N322 1.374 . S
C321 C355 1.395 . S
N322 C318 1.376 . S
N322 C321 1.374 . S
N322 Co323 2.008 . S
Co323 N322 2.008 . S
Co323 N324 1.995 . S
Co323 N329 2.008 . S
Co323 N334 1.995 . S
Co323 N339 2.282 . S
Co323 N345 2.282 . S
N324 Co323 1.995 . S
N324 C325 1.376 . S
N324 C328 1.383 . S
C325 N324 1.376 . S
C325 C326 1.446 . S
C325 C355 1.391 . S
C326 C325 1.446 . S
C326 C327 1.339 . S
C326 H361 0.949 . S
C327 C326 1.339 . S
C327 C328 1.439 . S
C327 H362 0.950 . S
C328 N324 1.383 . S
C328 C327 1.439 . S
C328 C357 1.392 . S
N329 Co323 2.008 . S
N329 C330 1.376 . S
N329 C333 1.374 1_545 S
C330 N329 1.376 . S
C330 C331 1.443 . S
C330 C357 1.389 . S
C331 C330 1.443 . S
C331 C332 1.340 1_545 S
C331 H363 0.951 . S
C332 C331 1.340 1_565 S
C332 C333 1.439 . S
C332 H364 0.950 . S
C333 N329 1.374 1_565 S
C333 C332 1.439 . S
C333 C358 1.395 . S
N334 Co323 1.995 . S
N334 C335 1.376 1_545 S
N334 C338 1.383 . S
C335 N334 1.376 1_565 S
C335 C336 1.446 . S
C335 C358 1.391 . S
C336 C335 1.446 . S
C336 C337 1.339 1_565 S
C336 H365 0.949 . S
C337 C336 1.339 1_545 S
C337 C338 1.439 . S
C337 H366 0.946 1_545 S
C338 N334 1.383 . S
C338 C337 1.439 . S
C338 C356 1.392 . S
N339 Co323 2.282 . S
N339 C342 1.332 . S
N339 C344 1.332 . S
C340 C341 1.386 . S
C340 C343 1.388 . S
C341 C340 1.386 . S
C341 C342 1.382 . S
C341 H367 0.950 1_545 S
C342 N339 1.332 . S
C342 C341 1.382 . S
C342 H353 0.952 . S
C343 C340 1.388 . S
C343 C344 1.382 . S
C343 H368 0.950 . S
C344 N339 1.332 . S
C344 C343 1.382 . S
C344 H354 0.948 . S
N345 Co323 2.282 . S
N345 C349 1.332 . S
N345 C350 1.332 . S
C346 C347 1.388 . S
C346 C350 1.382 . S
C346 H369 0.950 . S
C347 C346 1.388 . S
C347 C348 1.386 . S
C348 C347 1.386 . S
C348 C349 1.382 . S
C348 H370 0.950 . S
C349 N345 1.332 . S
C349 C348 1.382 . S
C349 H351 0.952 . S
C350 N345 1.332 . S
C350 C346 1.382 . S
C350 H352 0.948 . S
H351 C349 0.952 . S
H352 C350 0.948 . S
H353 C342 0.952 . S
H354 C344 0.948 . S
C355 C321 1.395 . S
C355 C325 1.391 . S
C356 C318 1.389 . S
C356 C338 1.392 . S
C357 C328 1.392 . S
C357 C330 1.389 . S
C358 C333 1.395 . S
C358 C335 1.391 . S
H359 C319 0.951 . S
H360 C320 0.950 . S
H361 C326 0.949 . S
H362 C327 0.950 . S
H363 C331 0.951 . S
H364 C332 0.950 . S
H365 C336 0.949 . S
H366 C337 0.946 1_565 S
H367 C341 0.950 1_565 S
H368 C343 0.950 . S
H369 C346 0.950 . S
H370 C348 0.950 . S
C371 C372 1.443 . S
C371 N375 1.376 . S
C371 C409 1.389 . S
C372 C371 1.443 . S
C372 C373 1.340 1_655 S
C372 H412 0.951 . S
C373 C372 1.340 1_455 S
C373 C374 1.439 . S
C373 H413 0.950 . S
C374 C373 1.439 . S
C374 N375 1.374 1_455 S
C374 C408 1.395 . S
N375 C371 1.376 . S
N375 C374 1.374 1_655 S
N375 Co376 2.008 . S
Co376 N375 2.008 . S
Co376 N377 1.995 . S
Co376 N382 2.008 . S
Co376 N387 1.995 . S
Co376 N392 2.282 . S
Co376 N398 2.282 . S
N377 Co376 1.995 . S
N377 C378 1.376 1_655 S
N377 C381 1.383 . S
C378 N377 1.376 1_455 S
C378 C379 1.446 . S
C378 C408 1.391 . S
C379 C378 1.446 . S
C379 C380 1.339 . S
C379 H414 0.949 . S
C380 C379 1.339 . S
C380 C381 1.439 1_455 S
C380 H415 0.950 . S
C381 N377 1.383 . S
C381 C380 1.439 1_655 S
C381 C410 1.392 . S
N382 Co376 2.008 . S
N382 C383 1.376 . S
N382 C386 1.374 . S
C383 N382 1.376 . S
C383 C384 1.443 . S
C383 C410 1.389 . S
C384 C383 1.443 . S
C384 C385 1.340 . S
C384 H416 0.951 . S
C385 C384 1.340 . S
C385 C386 1.439 . S
C385 H417 0.950 . S
C386 N382 1.374 . S
C386 C385 1.439 . S
C386 C411 1.395 . S
N387 Co376 1.995 . S
N387 C388 1.376 . S
N387 C391 1.383 . S
C388 N387 1.376 . S
C388 C389 1.446 . S
C388 C411 1.391 . S
C389 C388 1.446 . S
C389 C390 1.339 . S
C389 H418 0.949 . S
C390 C389 1.339 . S
C390 C391 1.439 . S
C390 H419 0.950 . S
C391 N387 1.383 . S
C391 C390 1.439 . S
C391 C409 1.392 . S
N392 Co376 2.282 . S
N392 C395 1.332 . S
N392 C397 1.332 . S
C393 C394 1.386 . S
C393 C396 1.388 . S
C394 C393 1.386 . S
C394 C395 1.382 . S
C394 H420 0.950 . S
C395 N392 1.332 . S
C395 C394 1.382 . S
C395 H406 0.952 . S
C396 C393 1.388 . S
C396 C397 1.382 . S
C396 H421 0.940 1_655 S
C397 N392 1.332 . S
C397 C396 1.382 . S
C397 H407 0.942 1_655 S
N398 Co376 2.282 . S
N398 C402 1.332 . S
N398 C403 1.332 . S
C399 C400 1.388 . S
C399 C403 1.382 . S
C399 H422 0.950 . S
C400 C399 1.388 . S
C400 C401 1.386 . S
C401 C400 1.386 . S
C401 C402 1.382 . S
C401 H423 0.950 1_655 S
C402 N398 1.332 . S
C402 C401 1.382 . S
C402 H404 0.952 . S
C403 N398 1.332 . S
C403 C399 1.382 . S
C403 H405 0.948 . S
H404 C402 0.952 . S
H405 C403 0.948 . S
H406 C395 0.952 . S
H407 C397 0.942 1_455 S
C408 C374 1.395 . S
C408 C378 1.391 . S
C409 C371 1.389 . S
C409 C391 1.392 . S
C410 C381 1.392 . S
C410 C383 1.389 . S
C411 C386 1.395 . S
C411 C388 1.391 . S
H412 C372 0.951 . S
H413 C373 0.950 . S
H414 C379 0.949 . S
H415 C380 0.950 . S
H416 C384 0.951 . S
H417 C385 0.950 . S
H418 C389 0.949 . S
H419 C390 0.950 . S
H420 C394 0.950 . S
H421 C396 0.940 1_455 S
H422 C399 0.950 . S
H423 C401 0.950 1_455 S
C424 C425 1.443 . S
C424 N428 1.376 . S
C424 C462 1.389 . S
C425 C424 1.443 . S
C425 C426 1.340 . S
C425 H465 0.951 . S
C426 C425 1.340 . S
C426 C427 1.439 . S
C426 H466 0.950 . S
C427 C426 1.439 . S
C427 N428 1.374 . S
C427 C461 1.395 . S
N428 C424 1.376 . S
N428 C427 1.374 . S
N428 Co429 2.008 . S
Co429 N428 2.008 . S
Co429 N430 1.995 . S
Co429 N435 2.008 . S
Co429 N440 1.995 . S
Co429 N445 2.282 . S
Co429 N451 2.282 . S
N430 Co429 1.995 . S
N430 C431 1.376 . S
N430 C434 1.383 . S
C431 N430 1.376 . S
C431 C432 1.446 . S
C431 C461 1.391 . S
C432 C431 1.446 . S
C432 C433 1.339 . S
C432 H467 0.949 . S
C433 C432 1.339 . S
C433 C434 1.439 . S
C433 H468 0.950 . S
C434 N430 1.383 . S
C434 C433 1.439 . S
C434 C463 1.392 . S
N435 Co429 2.008 . S
N435 C436 1.376 . S
N435 C439 1.374 . S
C436 N435 1.376 . S
C436 C437 1.443 . S
C436 C463 1.389 . S
C437 C436 1.443 . S
C437 C438 1.340 . S
C437 H469 0.951 . S
C438 C437 1.340 . S
C438 C439 1.439 . S
C438 H470 0.950 . S
C439 N435 1.374 . S
C439 C438 1.439 . S
C439 C464 1.395 . S
N440 Co429 1.995 . S
N440 C441 1.376 . S
N440 C444 1.383 . S
C441 N440 1.376 . S
C441 C442 1.446 . S
C441 C464 1.391 . S
C442 C441 1.446 . S
C442 C443 1.339 . S
C442 H471 0.949 . S
C443 C442 1.339 . S
C443 C444 1.439 . S
C443 H472 0.950 . S
C444 N440 1.383 . S
C444 C443 1.439 . S
C444 C462 1.392 . S
N445 Co429 2.282 . S
N445 C448 1.332 . S
N445 C450 1.332 . S
C446 C447 1.386 . S
C446 C449 1.388 . S
C447 C446 1.386 . S
C447 C448 1.382 . S
C447 H473 0.950 . S
C448 N445 1.332 . S
C448 C447 1.382 . S
C448 H459 0.952 . S
C449 C446 1.388 . S
C449 C450 1.382 . S
C449 H474 0.950 . S
C450 N445 1.332 . S
C450 C449 1.382 . S
C450 H460 0.948 . S
N451 Co429 2.282 . S
N451 C455 1.332 . S
N451 C456 1.332 . S
C452 C453 1.388 . S
C452 C456 1.382 . S
C452 H475 0.950 . S
C453 C452 1.388 . S
C453 C454 1.386 . S
C454 C453 1.386 . S
C454 C455 1.382 . S
C454 H476 0.950 . S
C455 N451 1.332 . S
C455 C454 1.382 . S
C455 H457 0.952 . S
C456 N451 1.332 . S
C456 C452 1.382 . S
C456 H458 0.948 . S
H457 C455 0.952 . S
H458 C456 0.948 . S
H459 C448 0.952 . S
H460 C450 0.948 . S
C461 C427 1.395 . S
C461 C431 1.391 . S
C462 C424 1.389 . S
C462 C444 1.392 . S
C463 C434 1.392 . S
C463 C436 1.389 . S
C464 C439 1.395 . S
C464 C441 1.391 . S
H465 C425 0.951 . S
H466 C426 0.950 . S
H467 C432 0.949 . S
H468 C433 0.950 . S
H469 C437 0.951 . S
H470 C438 0.950 . S
H471 C442 0.949 . S
H472 C443 0.950 . S
H473 C447 0.950 . S
H474 C449 0.950 . S
H475 C452 0.950 . S
H476 C454 0.950 . S
C477 C478 1.443 . S
C477 N481 1.376 . S
C477 C515 1.389 . S
C478 C477 1.443 . S
C478 C479 1.340 . S
C478 H518 0.951 . S
C479 C478 1.340 . S
C479 C480 1.439 . S
C479 H519 0.950 . S
C480 C479 1.439 . S
C480 N481 1.374 . S
C480 C514 1.395 . S
N481 C477 1.376 . S
N481 C480 1.374 . S
N481 Co482 2.008 . S
Co482 N481 2.008 . S
Co482 N483 1.995 . S
Co482 N488 2.008 . S
Co482 N493 1.995 . S
Co482 N498 2.282 . S
Co482 N504 2.282 . S
N483 Co482 1.995 . S
N483 C484 1.376 . S
N483 C487 1.383 . S
C484 N483 1.376 . S
C484 C485 1.446 . S
C484 C514 1.391 . S
C485 C484 1.446 . S
C485 C486 1.339 . S
C485 H520 0.949 . S
C486 C485 1.339 . S
C486 C487 1.439 . S
C486 H521 0.950 . S
C487 N483 1.383 . S
C487 C486 1.439 . S
C487 C516 1.392 . S
N488 Co482 2.008 . S
N488 C489 1.376 . S
N488 C492 1.374 . S
C489 N488 1.376 . S
C489 C490 1.443 . S
C489 C516 1.389 . S
C490 C489 1.443 . S
C490 C491 1.340 . S
C490 H522 0.951 . S
C491 C490 1.340 . S
C491 C492 1.439 . S
C491 H523 0.950 . S
C492 N488 1.374 . S
C492 C491 1.439 . S
C492 C517 1.395 . S
N493 Co482 1.995 . S
N493 C494 1.376 . S
N493 C497 1.383 . S
C494 N493 1.376 . S
C494 C495 1.446 . S
C494 C517 1.391 . S
C495 C494 1.446 . S
C495 C496 1.339 . S
C495 H524 0.949 . S
C496 C495 1.339 . S
C496 C497 1.439 . S
C496 H525 0.950 . S
C497 N493 1.383 . S
C497 C496 1.439 . S
C497 C515 1.392 . S
N498 Co482 2.282 . S
N498 C501 1.332 . S
N498 C503 1.332 . S
C499 C500 1.386 . S
C499 C502 1.388 . S
C500 C499 1.386 . S
C500 C501 1.382 . S
C500 H526 0.950 . S
C501 N498 1.332 . S
C501 C500 1.382 . S
C501 H512 0.952 . S
C502 C499 1.388 . S
C502 C503 1.382 . S
C502 H527 0.950 . S
C503 N498 1.332 . S
C503 C502 1.382 . S
C503 H513 0.948 . S
N504 Co482 2.282 . S
N504 C508 1.332 . S
N504 C509 1.332 . S
C505 C506 1.388 . S
C505 C509 1.382 . S
C505 H528 0.950 . S
C506 C505 1.388 . S
C506 C507 1.386 . S
C507 C506 1.386 . S
C507 C508 1.382 . S
C507 H529 0.950 . S
C508 N504 1.332 . S
C508 C507 1.382 . S
C508 H510 0.952 . S
C509 N504 1.332 . S
C509 C505 1.382 . S
C509 H511 0.948 . S
H510 C508 0.952 . S
H511 C509 0.948 . S
H512 C501 0.952 . S
H513 C503 0.948 . S
C514 C480 1.395 . S
C514 C484 1.391 . S
C515 C477 1.389 . S
C515 C497 1.392 . S
C516 C487 1.392 . S
C516 C489 1.389 . S
C517 C492 1.395 . S
C517 C494 1.391 . S
H518 C478 0.951 . S
H519 C479 0.950 . S
H520 C485 0.949 . S
H521 C486 0.950 . S
H522 C490 0.951 . S
H523 C491 0.950 . S
H524 C495 0.949 . S
H525 C496 0.950 . S
H526 C500 0.950 . S
H527 C502 0.950 . S
H528 C505 0.950 . S
H529 C507 0.950 . S
C530 C531 1.443 . S
C530 N534 1.376 . S
C530 C568 1.389 . S
C531 C530 1.443 . S
C531 C532 1.340 . S
C531 H571 0.951 . S
C532 C531 1.340 . S
C532 C533 1.439 . S
C532 H572 0.950 . S
C533 C532 1.439 . S
C533 N534 1.374 . S
C533 C567 1.395 . S
N534 C530 1.376 . S
N534 C533 1.374 . S
N534 Co535 2.008 . S
Co535 N534 2.008 . S
Co535 N536 1.995 . S
Co535 N541 2.008 . S
Co535 N546 1.995 . S
Co535 N551 2.282 . S
Co535 N557 2.282 . S
N536 Co535 1.995 . S
N536 C537 1.376 . S
N536 C540 1.383 . S
C537 N536 1.376 . S
C537 C538 1.446 . S
C537 C567 1.391 . S
C538 C537 1.446 . S
C538 C539 1.339 . S
C538 H573 0.949 . S
C539 C538 1.339 . S
C539 C540 1.439 . S
C539 H574 0.950 . S
C540 N536 1.383 . S
C540 C539 1.439 . S
C540 C569 1.392 . S
N541 Co535 2.008 . S
N541 C542 1.376 . S
N541 C545 1.374 1_565 S
C542 N541 1.376 . S
C542 C543 1.443 . S
C542 C569 1.389 . S
C543 C542 1.443 . S
C543 C544 1.340 1_565 S
C543 H575 0.951 . S
C544 C543 1.340 1_545 S
C544 C545 1.439 . S
C544 H576 0.950 . S
C545 N541 1.374 1_545 S
C545 C544 1.439 . S
C545 C570 1.395 . S
N546 Co535 1.995 . S
N546 C547 1.376 1_565 S
N546 C550 1.383 . S
C547 N546 1.376 1_545 S
C547 C548 1.446 . S
C547 C570 1.391 . S
C548 C547 1.446 . S
C548 C549 1.339 1_545 S
C548 H577 0.949 . S
C549 C548 1.339 1_565 S
C549 C550 1.439 . S
C549 H578 0.946 1_565 S
C550 N546 1.383 . S
C550 C549 1.439 . S
C550 C568 1.392 . S
N551 Co535 2.282 . S
N551 C554 1.332 . S
N551 C556 1.332 . S
C552 C553 1.386 . S
C552 C555 1.388 . S
C553 C552 1.386 . S
C553 C554 1.382 . S
C553 H579 0.950 1_565 S
C554 N551 1.332 . S
C554 C553 1.382 . S
C554 H565 0.952 . S
C555 C552 1.388 . S
C555 C556 1.382 . S
C555 H580 0.950 . S
C556 N551 1.332 . S
C556 C555 1.382 . S
C556 H566 0.948 . S
N557 Co535 2.282 . S
N557 C561 1.332 . S
N557 C562 1.332 . S
C558 C559 1.388 . S
C558 C562 1.382 . S
C558 H581 0.950 . S
C559 C558 1.388 . S
C559 C560 1.386 . S
C560 C559 1.386 . S
C560 C561 1.382 . S
C560 H582 0.950 . S
C561 N557 1.332 . S
C561 C560 1.382 . S
C561 H563 0.952 . S
C562 N557 1.332 . S
C562 C558 1.382 . S
C562 H564 0.948 . S
H563 C561 0.952 . S
H564 C562 0.948 . S
H565 C554 0.952 . S
H566 C556 0.948 . S
C567 C533 1.395 . S
C567 C537 1.391 . S
C568 C530 1.389 . S
C568 C550 1.392 . S
C569 C540 1.392 . S
C569 C542 1.389 . S
C570 C545 1.395 . S
C570 C547 1.391 . S
H571 C531 0.951 . S
H572 C532 0.950 . S
H573 C538 0.949 . S
H574 C539 0.950 . S
H575 C543 0.951 . S
H576 C544 0.950 . S
H577 C548 0.949 . S
H578 C549 0.946 1_545 S
H579 C553 0.950 1_545 S
H580 C555 0.950 . S
H581 C558 0.950 . S
H582 C560 0.950 . S
C583 C584 1.443 . S
C583 N587 1.376 . S
C583 C621 1.389 . S
C584 C583 1.443 . S
C584 C585 1.340 1_455 S
C584 H624 0.951 . S
C585 C584 1.340 1_655 S
C585 C586 1.439 . S
C585 H625 0.950 . S
C586 C585 1.439 . S
C586 N587 1.374 1_655 S
C586 C620 1.395 . S
N587 C583 1.376 . S
N587 C586 1.374 1_455 S
N587 Co588 2.008 . S
Co588 N587 2.008 . S
Co588 N589 1.995 . S
Co588 N594 2.008 . S
Co588 N599 1.995 . S
Co588 N604 2.282 . S
Co588 N610 2.282 . S
N589 Co588 1.995 . S
N589 C590 1.376 1_455 S
N589 C593 1.383 . S
C590 N589 1.376 1_655 S
C590 C591 1.446 . S
C590 C620 1.391 . S
C591 C590 1.446 . S
C591 C592 1.339 . S
C591 H626 0.949 . S
C592 C591 1.339 . S
C592 C593 1.439 1_655 S
C592 H627 0.950 . S
C593 N589 1.383 . S
C593 C592 1.439 1_455 S
C593 C622 1.392 . S
N594 Co588 2.008 . S
N594 C595 1.376 . S
N594 C598 1.374 . S
C595 N594 1.376 . S
C595 C596 1.443 . S
C595 C622 1.389 . S
C596 C595 1.443 . S
C596 C597 1.340 . S
C596 H628 0.951 . S
C597 C596 1.340 . S
C597 C598 1.439 . S
C597 H629 0.950 . S
C598 N594 1.374 . S
C598 C597 1.439 . S
C598 C623 1.395 . S
N599 Co588 1.995 . S
N599 C600 1.376 . S
N599 C603 1.383 . S
C600 N599 1.376 . S
C600 C601 1.446 . S
C600 C623 1.391 . S
C601 C600 1.446 . S
C601 C602 1.339 . S
C601 H630 0.949 . S
C602 C601 1.339 . S
C602 C603 1.439 . S
C602 H631 0.950 . S
C603 N599 1.383 . S
C603 C602 1.439 . S
C603 C621 1.392 . S
N604 Co588 2.282 . S
N604 C607 1.332 . S
N604 C609 1.332 . S
C605 C606 1.386 . S
C605 C608 1.388 . S
C606 C605 1.386 . S
C606 C607 1.382 . S
C606 H632 0.950 . S
C607 N604 1.332 . S
C607 C606 1.382 . S
C607 H618 0.952 . S
C608 C605 1.388 . S
C608 C609 1.382 . S
C608 H633 0.949 1_455 S
C609 N604 1.332 . S
C609 C608 1.382 . S
C609 H619 0.951 1_455 S
N610 Co588 2.282 . S
N610 C614 1.332 . S
N610 C615 1.332 . S
C611 C612 1.388 . S
C611 C615 1.382 . S
C611 H634 0.950 . S
C612 C611 1.388 . S
C612 C613 1.386 . S
C613 C612 1.386 . S
C613 C614 1.382 . S
C613 H635 0.950 1_455 S
C614 N610 1.332 . S
C614 C613 1.382 . S
C614 H616 0.952 . S
C615 N610 1.332 . S
C615 C611 1.382 . S
C615 H617 0.948 . S
H616 C614 0.952 . S
H617 C615 0.948 . S
H618 C607 0.952 . S
H619 C609 0.951 1_655 S
C620 C586 1.395 . S
C620 C590 1.391 . S
C621 C583 1.389 . S
C621 C603 1.392 . S
C622 C593 1.392 . S
C622 C595 1.389 . S
C623 C598 1.395 . S
C623 C600 1.391 . S
H624 C584 0.951 . S
H625 C585 0.950 . S
H626 C591 0.949 . S
H627 C592 0.950 . S
H628 C596 0.951 . S
H629 C597 0.950 . S
H630 C601 0.949 . S
H631 C602 0.950 . S
H632 C606 0.950 . S
H633 C608 0.949 1_655 S
H634 C611 0.950 . S
H635 C613 0.950 1_655 S
C636 C637 1.443 . S
C636 N640 1.376 . S
C636 C674 1.389 . S
C637 C636 1.443 . S
C637 C638 1.340 . S
C637 H677 0.951 . S
C638 C637 1.340 . S
C638 C639 1.439 . S
C638 H678 0.950 . S
C639 C638 1.439 . S
C639 N640 1.374 . S
C639 C673 1.395 . S
N640 C636 1.376 . S
N640 C639 1.374 . S
N640 Co641 2.008 . S
Co641 N640 2.008 . S
Co641 N642 1.995 . S
Co641 N647 2.008 . S
Co641 N652 1.995 . S
Co641 N657 2.282 . S
Co641 N663 2.282 . S
N642 Co641 1.995 . S
N642 C643 1.376 . S
N642 C646 1.383 . S
C643 N642 1.376 . S
C643 C644 1.446 . S
C643 C673 1.391 . S
C644 C643 1.446 . S
C644 C645 1.339 . S
C644 H679 0.949 . S
C645 C644 1.339 . S
C645 C646 1.439 . S
C645 H680 0.950 . S
C646 N642 1.383 . S
C646 C645 1.439 . S
C646 C675 1.392 . S
N647 Co641 2.008 . S
N647 C648 1.376 . S
N647 C651 1.374 1_565 S
C648 N647 1.376 . S
C648 C649 1.443 . S
C648 C675 1.389 . S
C649 C648 1.443 . S
C649 C650 1.340 1_565 S
C649 H681 0.951 . S
C650 C649 1.340 1_545 S
C650 C651 1.439 . S
C650 H682 0.950 . S
C651 N647 1.374 1_545 S
C651 C650 1.439 . S
C651 C676 1.395 . S
N652 Co641 1.995 . S
N652 C653 1.376 1_565 S
N652 C656 1.383 . S
C653 N652 1.376 1_545 S
C653 C654 1.446 . S
C653 C676 1.391 . S
C654 C653 1.446 . S
C654 C655 1.339 1_545 S
C654 H683 0.949 . S
C655 C654 1.339 1_565 S
C655 C656 1.439 . S
C655 H684 0.946 1_565 S
C656 N652 1.383 . S
C656 C655 1.439 . S
C656 C674 1.392 . S
N657 Co641 2.282 . S
N657 C660 1.332 . S
N657 C662 1.332 . S
C658 C659 1.386 . S
C658 C661 1.388 . S
C659 C658 1.386 . S
C659 C660 1.382 . S
C659 H685 0.950 1_565 S
C660 N657 1.332 . S
C660 C659 1.382 . S
C660 H671 0.952 . S
C661 C658 1.388 . S
C661 C662 1.382 . S
C661 H686 0.950 . S
C662 N657 1.332 . S
C662 C661 1.382 . S
C662 H672 0.948 . S
N663 Co641 2.282 . S
N663 C667 1.332 . S
N663 C668 1.332 . S
C664 C665 1.388 . S
C664 C668 1.382 . S
C664 H687 0.950 . S
C665 C664 1.388 . S
C665 C666 1.386 . S
C666 C665 1.386 . S
C666 C667 1.382 . S
C666 H688 0.950 . S
C667 N663 1.332 . S
C667 C666 1.382 . S
C667 H669 0.952 . S
C668 N663 1.332 . S
C668 C664 1.382 . S
C668 H670 0.948 . S
H669 C667 0.952 . S
H670 C668 0.948 . S
H671 C660 0.952 . S
H672 C662 0.948 . S
C673 C639 1.395 . S
C673 C643 1.391 . S
C674 C636 1.389 . S
C674 C656 1.392 . S
C675 C646 1.392 . S
C675 C648 1.389 . S
C676 C651 1.395 . S
C676 C653 1.391 . S
H677 C637 0.951 . S
H678 C638 0.950 . S
H679 C644 0.949 . S
H680 C645 0.950 . S
H681 C649 0.951 . S
H682 C650 0.950 . S
H683 C654 0.949 . S
H684 C655 0.946 1_545 S
H685 C659 0.950 1_545 S
H686 C661 0.950 . S
H687 C664 0.950 . S
H688 C666 0.950 . S
C689 C690 1.443 . S
C689 N693 1.376 . S
C689 C727 1.389 . S
C690 C689 1.443 . S
C690 C691 1.340 1_455 S
C690 H730 0.951 . S
C691 C690 1.340 1_655 S
C691 C692 1.439 . S
C691 H731 0.950 . S
C692 C691 1.439 . S
C692 N693 1.374 1_655 S
C692 C726 1.395 . S
N693 C689 1.376 . S
N693 C692 1.374 1_455 S
N693 Co694 2.008 . S
Co694 N693 2.008 . S
Co694 N695 1.995 . S
Co694 N700 2.008 . S
Co694 N705 1.995 . S
Co694 N710 2.282 . S
Co694 N716 2.282 . S
N695 Co694 1.995 . S
N695 C696 1.376 1_455 S
N695 C699 1.383 . S
C696 N695 1.376 1_655 S
C696 C697 1.446 . S
C696 C726 1.391 . S
C697 C696 1.446 . S
C697 C698 1.339 . S
C697 H732 0.949 . S
C698 C697 1.339 . S
C698 C699 1.439 1_655 S
C698 H733 0.950 . S
C699 N695 1.383 . S
C699 C698 1.439 1_455 S
C699 C728 1.392 . S
N700 Co694 2.008 . S
N700 C701 1.376 . S
N700 C704 1.374 . S
C701 N700 1.376 . S
C701 C702 1.443 . S
C701 C728 1.389 . S
C702 C701 1.443 . S
C702 C703 1.340 . S
C702 H734 0.951 . S
C703 C702 1.340 . S
C703 C704 1.439 . S
C703 H735 0.950 . S
C704 N700 1.374 . S
C704 C703 1.439 . S
C704 C729 1.395 . S
N705 Co694 1.995 . S
N705 C706 1.376 . S
N705 C709 1.383 . S
C706 N705 1.376 . S
C706 C707 1.446 . S
C706 C729 1.391 . S
C707 C706 1.446 . S
C707 C708 1.339 . S
C707 H736 0.949 . S
C708 C707 1.339 . S
C708 C709 1.439 . S
C708 H737 0.950 . S
C709 N705 1.383 . S
C709 C708 1.439 . S
C709 C727 1.392 . S
N710 Co694 2.282 . S
N710 C713 1.332 . S
N710 C715 1.332 . S
C711 C712 1.386 . S
C711 C714 1.388 . S
C712 C711 1.386 . S
C712 C713 1.382 . S
C712 H738 0.950 . S
C713 N710 1.332 . S
C713 C712 1.382 . S
C713 H724 0.952 . S
C714 C711 1.388 . S
C714 C715 1.382 . S
C714 H739 0.945 1_455 S
C715 N710 1.332 . S
C715 C714 1.382 . S
C715 H725 0.947 1_455 S
N716 Co694 2.282 . S
N716 C720 1.332 . S
N716 C721 1.332 . S
C717 C718 1.388 . S
C717 C721 1.382 . S
C717 H740 0.950 . S
C718 C717 1.388 . S
C718 C719 1.386 . S
C719 C718 1.386 . S
C719 C720 1.382 . S
C719 H741 0.950 1_455 S
C720 N716 1.332 . S
C720 C719 1.382 . S
C720 H722 0.952 . S
C721 N716 1.332 . S
C721 C717 1.382 . S
C721 H723 0.948 . S
H722 C720 0.952 . S
H723 C721 0.948 . S
H724 C713 0.952 . S
H725 C715 0.947 1_655 S
C726 C692 1.395 . S
C726 C696 1.391 . S
C727 C689 1.389 . S
C727 C709 1.392 . S
C728 C699 1.392 . S
C728 C701 1.389 . S
C729 C704 1.395 . S
C729 C706 1.391 . S
H730 C690 0.951 . S
H731 C691 0.950 . S
H732 C697 0.949 . S
H733 C698 0.950 . S
H734 C702 0.951 . S
H735 C703 0.950 . S
H736 C707 0.949 . S
H737 C708 0.950 . S
H738 C712 0.950 . S
H739 C714 0.945 1_655 S
H740 C717 0.950 . S
H741 C719 0.950 1_655 S
C742 C743 1.443 . S
C742 N746 1.376 . S
C742 C780 1.389 . S
C743 C742 1.443 . S
C743 C744 1.340 . S
C743 H783 0.951 . S
C744 C743 1.340 . S
C744 C745 1.439 . S
C744 H784 0.950 . S
C745 C744 1.439 . S
C745 N746 1.374 . S
C745 C779 1.395 . S
N746 C742 1.376 . S
N746 C745 1.374 . S
N746 Co747 2.008 . S
Co747 N746 2.008 . S
Co747 N748 1.995 . S
Co747 N753 2.008 . S
Co747 N758 1.995 . S
Co747 N763 2.282 . S
Co747 N769 2.282 . S
N748 Co747 1.995 . S
N748 C749 1.376 . S
N748 C752 1.383 . S
C749 N748 1.376 . S
C749 C750 1.446 . S
C749 C779 1.391 . S
C750 C749 1.446 . S
C750 C751 1.339 . S
C750 H785 0.949 . S
C751 C750 1.339 . S
C751 C752 1.439 . S
C751 H786 0.950 . S
C752 N748 1.383 . S
C752 C751 1.439 . S
C752 C781 1.392 . S
N753 Co747 2.008 . S
N753 C754 1.376 . S
N753 C757 1.374 . S
C754 N753 1.376 . S
C754 C755 1.443 . S
C754 C781 1.389 . S
C755 C754 1.443 . S
C755 C756 1.340 . S
C755 H787 0.951 . S
C756 C755 1.340 . S
C756 C757 1.439 . S
C756 H788 0.950 . S
C757 N753 1.374 . S
C757 C756 1.439 . S
C757 C782 1.395 . S
N758 Co747 1.995 . S
N758 C759 1.376 . S
N758 C762 1.383 . S
C759 N758 1.376 . S
C759 C760 1.446 . S
C759 C782 1.391 . S
C760 C759 1.446 . S
C760 C761 1.339 . S
C760 H789 0.949 . S
C761 C760 1.339 . S
C761 C762 1.439 . S
C761 H790 0.950 . S
C762 N758 1.383 . S
C762 C761 1.439 . S
C762 C780 1.392 . S
N763 Co747 2.282 . S
N763 C766 1.332 . S
N763 C768 1.332 . S
C764 C765 1.386 . S
C764 C767 1.388 . S
C765 C764 1.386 . S
C765 C766 1.382 . S
C765 H791 0.950 . S
C766 N763 1.332 . S
C766 C765 1.382 . S
C766 H777 0.952 . S
C767 C764 1.388 . S
C767 C768 1.382 . S
C767 H792 0.950 . S
C768 N763 1.332 . S
C768 C767 1.382 . S
C768 H778 0.948 . S
N769 Co747 2.282 . S
N769 C773 1.332 . S
N769 C774 1.332 . S
C770 C771 1.388 . S
C770 C774 1.382 . S
C770 H793 0.950 . S
C771 C770 1.388 . S
C771 C772 1.386 . S
C772 C771 1.386 . S
C772 C773 1.382 . S
C772 H794 0.950 . S
C773 N769 1.332 . S
C773 C772 1.382 . S
C773 H775 0.952 . S
C774 N769 1.332 . S
C774 C770 1.382 . S
C774 H776 0.948 . S
H775 C773 0.952 . S
H776 C774 0.948 . S
H777 C766 0.952 . S
H778 C768 0.948 . S
C779 C745 1.395 . S
C779 C749 1.391 . S
C780 C742 1.389 . S
C780 C762 1.392 . S
C781 C752 1.392 . S
C781 C754 1.389 . S
C782 C757 1.395 . S
C782 C759 1.391 . S
H783 C743 0.951 . S
H784 C744 0.950 . S
H785 C750 0.949 . S
H786 C751 0.950 . S
H787 C755 0.951 . S
H788 C756 0.950 . S
H789 C760 0.949 . S
H790 C761 0.950 . S
H791 C765 0.950 . S
H792 C767 0.950 . S
H793 C770 0.950 . S
H794 C772 0.950 . S
C795 C796 1.443 . S
C795 N799 1.376 . S
C795 C833 1.389 . S
C796 C795 1.443 . S
C796 C797 1.340 . S
C796 H836 0.951 . S
C797 C796 1.340 . S
C797 C798 1.439 . S
C797 H837 0.950 . S
C798 C797 1.439 . S
C798 N799 1.374 . S
C798 C832 1.395 . S
N799 C795 1.376 . S
N799 C798 1.374 . S
N799 Co800 2.008 . S
Co800 N799 2.008 . S
Co800 N801 1.995 . S
Co800 N806 2.008 . S
Co800 N811 1.995 . S
Co800 N816 2.282 . S
Co800 N822 2.282 . S
N801 Co800 1.995 . S
N801 C802 1.376 . S
N801 C805 1.383 . S
C802 N801 1.376 . S
C802 C803 1.446 . S
C802 C832 1.391 . S
C803 C802 1.446 . S
C803 C804 1.339 . S
C803 H838 0.949 . S
C804 C803 1.339 . S
C804 C805 1.439 . S
C804 H839 0.950 . S
C805 N801 1.383 . S
C805 C804 1.439 . S
C805 C834 1.392 . S
N806 Co800 2.008 . S
N806 C807 1.376 . S
N806 C810 1.374 . S
C807 N806 1.376 . S
C807 C808 1.443 . S
C807 C834 1.389 . S
C808 C807 1.443 . S
C808 C809 1.340 . S
C808 H840 0.951 . S
C809 C808 1.340 . S
C809 C810 1.439 . S
C809 H841 0.950 . S
C810 N806 1.374 . S
C810 C809 1.439 . S
C810 C835 1.395 . S
N811 Co800 1.995 . S
N811 C812 1.376 . S
N811 C815 1.383 . S
C812 N811 1.376 . S
C812 C813 1.446 . S
C812 C835 1.391 . S
C813 C812 1.446 . S
C813 C814 1.339 . S
C813 H842 0.949 . S
C814 C813 1.339 . S
C814 C815 1.439 . S
C814 H843 0.950 . S
C815 N811 1.383 . S
C815 C814 1.439 . S
C815 C833 1.392 . S
N816 Co800 2.282 . S
N816 C819 1.332 . S
N816 C821 1.332 . S
C817 C818 1.386 . S
C817 C820 1.388 . S
C818 C817 1.386 . S
C818 C819 1.382 . S
C818 H844 0.950 . S
C819 N816 1.332 . S
C819 C818 1.382 . S
C819 H830 0.952 . S
C820 C817 1.388 . S
C820 C821 1.382 . S
C820 H845 0.950 . S
C821 N816 1.332 . S
C821 C820 1.382 . S
C821 H831 0.948 . S
N822 Co800 2.282 . S
N822 C826 1.332 . S
N822 C827 1.332 . S
C823 C824 1.388 . S
C823 C827 1.382 . S
C823 H846 0.950 . S
C824 C823 1.388 . S
C824 C825 1.386 . S
C825 C824 1.386 . S
C825 C826 1.382 . S
C825 H847 0.950 . S
C826 N822 1.332 . S
C826 C825 1.382 . S
C826 H828 0.952 . S
C827 N822 1.332 . S
C827 C823 1.382 . S
C827 H829 0.948 . S
H828 C826 0.952 . S
H829 C827 0.948 . S
H830 C819 0.952 . S
H831 C821 0.948 . S
C832 C798 1.395 . S
C832 C802 1.391 . S
C833 C795 1.389 . S
C833 C815 1.392 . S
C834 C805 1.392 . S
C834 C807 1.389 . S
C835 C810 1.395 . S
C835 C812 1.391 . S
H836 C796 0.951 . S
H837 C797 0.950 . S
H838 C803 0.949 . S
H839 C804 0.950 . S
H840 C808 0.951 . S
H841 C809 0.950 . S
H842 C813 0.949 . S
H843 C814 0.950 . S
H844 C818 0.950 . S
H845 C820 0.950 . S
H846 C823 0.950 . S
H847 C825 0.950 . S
H848 C866 0.951 . S
H849 C868 0.951 . S
H850 C870 0.950 1_545 S
H851 C871 0.950 . S
H852 C873 0.950 . S
H853 C876 0.950 . S
H854 C877 0.950 . S
H855 C879 0.950 . S
H856 C880 0.979 . S
H857 C881 0.951 . S
H858 C883 0.951 . S
H859 C885 0.950 1_565 S
H860 C886 0.950 . S
H861 C888 0.950 . S
H862 C891 0.950 . S
H863 C892 0.950 . S
H864 C894 0.950 . S
H865 C895 0.950 . S
C866 H848 0.951 . S
C866 C867 1.366 . S
C866 C868 1.388 . S
C867 C866 1.366 . S
C867 C871 1.385 . S
C868 H849 0.951 . S
C868 C866 1.388 . S
C868 C869 1.366 . S
C869 C868 1.366 . S
C869 C870 1.414 . S
C869 C872 1.499 . S
C870 H850 0.950 1_565 S
C870 C869 1.414 . S
C870 C871 1.374 . S
C871 H851 0.950 . S
C871 C867 1.385 . S
C871 C870 1.374 . S
C872 C869 1.499 . S
C872 C873 1.373 . S
C872 C874 1.389 . S
C873 H852 0.950 . S
C873 C872 1.373 . S
C873 C889 1.377 1_665 S
C874 C872 1.389 . S
C874 C875 1.525 1_565 S
C874 C888 1.377 1_665 S
C875 C874 1.525 1_545 S
C875 C876 1.397 . S
C875 C880 1.363 1_545 S
C876 H853 0.950 . S
C876 C875 1.397 . S
C876 C877 1.334 . S
C877 H854 0.950 . S
C877 C876 1.334 . S
C877 C878 1.287 . S
C878 C877 1.287 . S
C878 C879 1.524 1_545 S
C878 H897 0.913 . S
C879 H855 0.950 . S
C879 C878 1.524 1_565 S
C879 C880 1.415 . S
C880 H856 0.979 . S
C880 C875 1.363 1_565 S
C880 C879 1.415 . S
C881 H857 0.951 . S
C881 C882 1.366 . S
C881 C883 1.388 . S
C882 C881 1.366 . S
C882 C886 1.385 . S
C883 H858 0.951 . S
C883 C881 1.388 . S
C883 C884 1.366 . S
C884 C883 1.366 . S
C884 C885 1.414 . S
C884 C887 1.499 . S
C885 H859 0.950 1_545 S
C885 C884 1.414 . S
C885 C886 1.374 . S
C886 H860 0.950 . S
C886 C882 1.385 . S
C886 C885 1.374 . S
C887 C884 1.499 . S
C887 C888 1.373 . S
C887 C889 1.389 . S
C888 H861 0.950 . S
C888 C874 1.377 1_445 S
C888 C887 1.373 . S
C889 C873 1.377 1_445 S
C889 C887 1.389 . S
C889 C890 1.525 1_545 S
C890 C889 1.525 1_565 S
C890 C891 1.397 . S
C890 C895 1.363 1_565 S
C891 H862 0.950 . S
C891 C890 1.397 . S
C891 C892 1.334 . S
C892 H863 0.950 . S
C892 C891 1.334 . S
C892 C893 1.287 . S
C893 C892 1.287 . S
C893 C894 1.524 1_565 S
C893 H896 0.999 . S
C894 H864 0.950 . S
C894 C893 1.524 1_545 S
C894 C895 1.415 . S
C895 H865 0.950 . S
C895 C890 1.363 1_545 S
C895 C894 1.415 . S
H896 C893 0.999 . S
H897 C878 0.913 . S
H898 C916 0.951 . S
H899 C918 0.951 . S
H900 C920 0.950 1_455 S
H901 C921 0.950 . S
H902 C923 0.950 . S
H903 C926 0.950 . S
H904 C927 0.950 . S
H905 C929 0.950 . S
H906 C930 0.950 . S
H907 C931 0.951 . S
H908 C933 0.951 . S
H909 C935 0.950 1_655 S
H910 C936 0.950 . S
H911 C938 0.950 . S
H912 C941 0.950 . S
H913 C942 0.950 . S
H914 C944 0.950 . S
H915 C945 0.950 . S
C916 H898 0.951 . S
C916 C917 1.366 . S
C916 C918 1.388 . S
C917 C916 1.366 . S
C917 C921 1.385 . S
C918 H899 0.951 . S
C918 C916 1.388 . S
C918 C919 1.366 . S
C919 C918 1.366 . S
C919 C920 1.414 . S
C919 C922 1.499 . S
C920 H900 0.950 1_655 S
C920 C919 1.414 . S
C920 C921 1.374 . S
C921 H901 0.950 . S
C921 C917 1.385 . S
C921 C920 1.374 . S
C922 C919 1.499 . S
C922 C923 1.373 1_655 S
C922 C924 1.389 . S
C923 H902 0.950 . S
C923 C922 1.373 1_455 S
C923 C939 1.377 . S
C924 C922 1.389 . S
C924 C925 1.524 . S
C924 C938 1.377 . S
C925 C924 1.524 . S
C925 C926 1.397 . S
C925 C930 1.363 . S
C926 H903 0.950 . S
C926 C925 1.397 . S
C926 C927 1.334 . S
C927 H904 0.950 . S
C927 C926 1.334 . S
C927 C928 1.287 . S
C928 C927 1.287 . S
C928 C929 1.524 . S
C928 H947 0.913 . S
C929 H905 0.950 . S
C929 C928 1.524 . S
C929 C930 1.415 . S
C930 H906 0.950 . S
C930 C925 1.363 . S
C930 C929 1.415 . S
C931 H907 0.951 . S
C931 C932 1.366 . S
C931 C933 1.388 . S
C932 C931 1.366 . S
C932 C936 1.385 . S
C933 H908 0.951 . S
C933 C931 1.388 . S
C933 C934 1.366 . S
C934 C933 1.366 . S
C934 C935 1.414 . S
C934 C937 1.499 . S
C935 H909 0.950 1_455 S
C935 C934 1.414 . S
C935 C936 1.374 . S
C936 H910 0.950 . S
C936 C932 1.385 . S
C936 C935 1.374 . S
C937 C934 1.499 . S
C937 C938 1.373 1_455 S
C937 C939 1.389 . S
C938 H911 0.950 . S
C938 C924 1.377 . S
C938 C937 1.373 1_655 S
C939 C923 1.377 . S
C939 C937 1.389 . S
C939 C940 1.524 . S
C940 C939 1.524 . S
C940 C941 1.397 . S
C940 C945 1.363 . S
C941 H912 0.950 . S
C941 C940 1.397 . S
C941 C942 1.334 . S
C942 H913 0.950 . S
C942 C941 1.334 . S
C942 C943 1.287 . S
C943 C942 1.287 . S
C943 C944 1.524 . S
C943 H946 0.999 . S
C944 H914 0.950 . S
C944 C943 1.524 . S
C944 C945 1.415 . S
C945 H915 0.950 . S
C945 C940 1.363 . S
C945 C944 1.415 . S
H946 C943 0.999 . S
H947 C928 0.913 . S
H948 C966 0.951 . S
H949 C968 0.951 . S
H950 C970 0.950 . S
H951 C971 0.950 . S
H952 C973 0.950 . S
H953 C976 0.950 . S
H954 C977 0.950 . S
H955 C979 0.950 . S
H956 C980 0.950 . S
H957 C981 0.951 . S
H958 C983 0.951 . S
H959 C985 0.950 . S
H960 C986 0.950 . S
H961 C988 0.950 . S
H962 C991 0.950 . S
H963 C992 0.950 . S
H964 C994 0.950 . S
H965 C995 0.950 . S
C966 H948 0.951 . S
C966 C967 1.366 . S
C966 C968 1.388 . S
C967 C966 1.366 . S
C967 C971 1.385 . S
C968 H949 0.951 . S
C968 C966 1.388 . S
C968 C969 1.366 . S
C969 C968 1.366 . S
C969 C970 1.414 . S
C969 C972 1.499 . S
C970 H950 0.950 . S
C970 C969 1.414 . S
C970 C971 1.374 . S
C971 H951 0.950 . S
C971 C967 1.385 . S
C971 C970 1.374 . S
C972 C969 1.499 . S
C972 C973 1.373 . S
C972 C974 1.389 . S
C973 H952 0.950 . S
C973 C972 1.373 . S
C973 C989 1.377 . S
C974 C972 1.389 . S
C974 C975 1.524 . S
C974 C988 1.377 . S
C975 C974 1.524 . S
C975 C976 1.397 . S
C975 C980 1.363 . S
C976 H953 0.950 . S
C976 C975 1.397 . S
C976 C977 1.334 . S
C977 H954 0.950 . S
C977 C976 1.334 . S
C977 C978 1.287 . S
C978 C977 1.287 . S
C978 C979 1.524 . S
C978 H997 0.913 . S
C979 H955 0.950 . S
C979 C978 1.524 . S
C979 C980 1.415 . S
C980 H956 0.950 . S
C980 C975 1.363 . S
C980 C979 1.415 . S
C981 H957 0.951 . S
C981 C982 1.366 . S
C981 C983 1.388 . S
C982 C981 1.366 . S
C982 C986 1.385 . S
C983 H958 0.951 . S
C983 C981 1.388 . S
C983 C984 1.366 . S
C984 C983 1.366 . S
C984 C985 1.414 . S
C984 C987 1.499 . S
C985 H959 0.950 . S
C985 C984 1.414 . S
C985 C986 1.374 . S
C986 H960 0.950 . S
C986 C982 1.385 . S
C986 C985 1.374 . S
C987 C984 1.499 . S
C987 C988 1.373 . S
C987 C989 1.389 . S
C988 H961 0.950 . S
C988 C974 1.377 . S
C988 C987 1.373 . S
C989 C973 1.377 . S
C989 C987 1.389 . S
C989 C990 1.524 . S
C990 C989 1.524 . S
C990 C991 1.397 . S
C990 C995 1.363 . S
C991 H962 0.950 . S
C991 C990 1.397 . S
C991 C992 1.334 . S
C992 H963 0.950 . S
C992 C991 1.334 . S
C992 C993 1.287 . S
C993 C992 1.287 . S
C993 C994 1.524 . S
C993 H996 0.999 . S
C994 H964 0.950 . S
C994 C993 1.524 . S
C994 C995 1.415 . S
C995 H965 0.950 . S
C995 C990 1.363 . S
C995 C994 1.415 . S
H996 C993 0.999 . S
H997 C978 0.913 . S
H998 C1016 0.951 . S
H999 C1018 0.951 . S
H1000 C1020 0.950 . S
H1001 C1021 0.950 . S
H1002 C1023 0.950 . S
H1003 C1026 0.950 . S
H1004 C1027 0.950 . S
H1005 C1029 0.950 . S
H1006 C1030 0.950 . S
H1007 C1031 0.951 . S
H1008 C1033 0.951 . S
H1009 C1035 0.950 . S
H1010 C1036 0.950 . S
H1011 C1038 0.950 . S
H1012 C1041 0.950 . S
H1013 C1042 0.950 . S
H1014 C1044 0.950 . S
H1015 C1045 0.950 . S
C1016 H998 0.951 . S
C1016 C1017 1.366 . S
C1016 C1018 1.388 . S
C1017 C1016 1.366 . S
C1017 C1021 1.385 . S
C1018 H999 0.951 . S
C1018 C1016 1.388 . S
C1018 C1019 1.366 . S
C1019 C1018 1.366 . S
C1019 C1020 1.414 . S
C1019 C1022 1.499 . S
C1020 H1000 0.950 . S
C1020 C1019 1.414 . S
C1020 C1021 1.374 . S
C1021 H1001 0.950 . S
C1021 C1017 1.385 . S
C1021 C1020 1.374 . S
C1022 C1019 1.499 . S
C1022 C1023 1.373 . S
C1022 C1024 1.389 . S
C1023 H1002 0.950 . S
C1023 C1022 1.373 . S
C1023 C1039 1.377 1_545 S
C1024 C1022 1.389 . S
C1024 C1025 1.524 . S
C1024 C1038 1.377 1_545 S
C1025 C1024 1.524 . S
C1025 C1026 1.397 . S
C1025 C1030 1.363 . S
C1026 H1003 0.950 . S
C1026 C1025 1.397 . S
C1026 C1027 1.334 . S
C1027 H1004 0.950 . S
C1027 C1026 1.334 . S
C1027 C1028 1.287 . S
C1028 C1027 1.287 . S
C1028 C1029 1.524 . S
C1028 H1047 0.913 . S
C1029 H1005 0.950 . S
C1029 C1028 1.524 . S
C1029 C1030 1.415 . S
C1030 H1006 0.950 . S
C1030 C1025 1.363 . S
C1030 C1029 1.415 . S
C1031 H1007 0.951 . S
C1031 C1032 1.366 . S
C1031 C1033 1.388 . S
C1032 C1031 1.366 . S
C1032 C1036 1.385 . S
C1033 H1008 0.951 . S
C1033 C1031 1.388 . S
C1033 C1034 1.366 . S
C1034 C1033 1.366 . S
C1034 C1035 1.414 . S
C1034 C1037 1.499 . S
C1035 H1009 0.950 . S
C1035 C1034 1.414 . S
C1035 C1036 1.374 . S
C1036 H1010 0.950 . S
C1036 C1032 1.385 . S
C1036 C1035 1.374 . S
C1037 C1034 1.499 . S
C1037 C1038 1.373 . S
C1037 C1039 1.389 . S
C1038 H1011 0.950 . S
C1038 C1024 1.377 1_565 S
C1038 C1037 1.373 . S
C1039 C1023 1.377 1_565 S
C1039 C1037 1.389 . S
C1039 C1040 1.524 . S
C1040 C1039 1.524 . S
C1040 C1041 1.397 . S
C1040 C1045 1.363 . S
C1041 H1012 0.950 . S
C1041 C1040 1.397 . S
C1041 C1042 1.334 . S
C1042 H1013 0.950 . S
C1042 C1041 1.334 . S
C1042 C1043 1.287 . S
C1043 C1042 1.287 . S
C1043 C1044 1.524 . S
C1043 H1046 0.999 . S
C1044 H1014 0.950 . S
C1044 C1043 1.524 . S
C1044 C1045 1.415 . S
C1045 H1015 0.950 . S
C1045 C1040 1.363 . S
C1045 C1044 1.415 . S
H1046 C1043 0.999 . S
H1047 C1028 0.913 . S
H1048 C1066 0.951 . S
H1049 C1068 0.951 . S
H1050 C1070 0.950 . S
H1051 C1071 0.950 . S
H1052 C1073 0.950 . S
H1053 C1076 0.950 . S
H1054 C1077 0.950 . S
H1055 C1079 0.950 . S
H1056 C1080 0.950 . S
H1057 C1081 0.951 . S
H1058 C1083 0.951 . S
H1059 C1085 0.950 . S
H1060 C1086 0.950 . S
H1061 C1088 0.950 . S
H1062 C1091 0.950 . S
H1063 C1092 0.950 . S
H1064 C1094 0.950 . S
H1065 C1095 0.950 . S
C1066 H1048 0.951 . S
C1066 C1067 1.366 . S
C1066 C1068 1.388 . S
C1067 C1066 1.366 . S
C1067 C1071 1.385 . S
C1068 H1049 0.951 . S
C1068 C1066 1.388 . S
C1068 C1069 1.366 . S
C1069 C1068 1.366 . S
C1069 C1070 1.414 . S
C1069 C1072 1.499 . S
C1070 H1050 0.950 . S
C1070 C1069 1.414 . S
C1070 C1071 1.374 . S
C1071 H1051 0.950 . S
C1071 C1067 1.385 . S
C1071 C1070 1.374 . S
C1072 C1069 1.499 . S
C1072 C1073 1.373 . S
C1072 C1074 1.389 . S
C1073 H1052 0.950 . S
C1073 C1072 1.373 . S
C1073 C1089 1.377 1_455 S
C1074 C1072 1.389 . S
C1074 C1075 1.524 . S
C1074 C1088 1.377 1_455 S
C1075 C1074 1.524 . S
C1075 C1076 1.397 . S
C1075 C1080 1.363 . S
C1076 H1053 0.950 . S
C1076 C1075 1.397 . S
C1076 C1077 1.334 . S
C1077 H1054 0.950 . S
C1077 C1076 1.334 . S
C1077 C1078 1.287 . S
C1078 C1077 1.287 . S
C1078 C1079 1.524 . S
C1078 H1097 0.913 . S
C1079 H1055 0.950 . S
C1079 C1078 1.524 . S
C1079 C1080 1.415 . S
C1080 H1056 0.950 . S
C1080 C1075 1.363 . S
C1080 C1079 1.415 . S
C1081 H1057 0.951 . S
C1081 C1082 1.366 . S
C1081 C1083 1.388 . S
C1082 C1081 1.366 . S
C1082 C1086 1.385 . S
C1083 H1058 0.951 . S
C1083 C1081 1.388 . S
C1083 C1084 1.366 . S
C1084 C1083 1.366 . S
C1084 C1085 1.414 . S
C1084 C1087 1.499 . S
C1085 H1059 0.950 . S
C1085 C1084 1.414 . S
C1085 C1086 1.374 . S
C1086 H1060 0.950 . S
C1086 C1082 1.385 . S
C1086 C1085 1.374 . S
C1087 C1084 1.499 . S
C1087 C1088 1.373 . S
C1087 C1089 1.389 . S
C1088 H1061 0.950 . S
C1088 C1074 1.377 1_655 S
C1088 C1087 1.373 . S
C1089 C1073 1.377 1_655 S
C1089 C1087 1.389 . S
C1089 C1090 1.524 . S
C1090 C1089 1.524 . S
C1090 C1091 1.397 . S
C1090 C1095 1.363 . S
C1091 H1062 0.950 . S
C1091 C1090 1.397 . S
C1091 C1092 1.334 . S
C1092 H1063 0.950 . S
C1092 C1091 1.334 . S
C1092 C1093 1.287 . S
C1093 C1092 1.287 . S
C1093 C1094 1.524 . S
C1093 H1096 0.999 . S
C1094 H1064 0.950 . S
C1094 C1093 1.524 . S
C1094 C1095 1.415 . S
C1095 H1065 0.950 . S
C1095 C1090 1.363 . S
C1095 C1094 1.415 . S
H1096 C1093 0.999 . S
H1097 C1078 0.913 . S
H1098 C1116 0.951 . S
H1099 C1118 0.951 . S
H1100 C1120 0.950 . S
H1101 C1121 0.950 . S
H1102 C1123 0.950 . S
H1103 C1126 0.950 . S
H1104 C1127 0.950 . S
H1105 C1129 0.950 . S
H1106 C1130 0.950 . S
H1107 C1131 0.951 . S
H1108 C1133 0.951 . S
H1109 C1135 0.950 . S
H1110 C1136 0.950 . S
H1111 C1138 0.950 . S
H1112 C1141 0.950 . S
H1113 C1142 0.950 . S
H1114 C1144 0.950 . S
H1115 C1145 0.950 . S
C1116 H1098 0.951 . S
C1116 C1117 1.366 . S
C1116 C1118 1.388 . S
C1117 C1116 1.366 . S
C1117 C1121 1.385 . S
C1118 H1099 0.951 . S
C1118 C1116 1.388 . S
C1118 C1119 1.366 . S
C1119 C1118 1.366 . S
C1119 C1120 1.414 . S
C1119 C1122 1.499 . S
C1120 H1100 0.950 . S
C1120 C1119 1.414 . S
C1120 C1121 1.374 . S
C1121 H1101 0.950 . S
C1121 C1117 1.385 . S
C1121 C1120 1.374 . S
C1122 C1119 1.499 . S
C1122 C1123 1.373 . S
C1122 C1124 1.389 . S
C1123 H1102 0.950 . S
C1123 C1122 1.373 . S
C1123 C1139 1.377 . S
C1124 C1122 1.389 . S
C1124 C1125 1.524 . S
C1124 C1138 1.377 . S
C1125 C1124 1.524 . S
C1125 C1126 1.397 . S
C1125 C1130 1.363 . S
C1126 H1103 0.950 . S
C1126 C1125 1.397 . S
C1126 C1127 1.334 . S
C1127 H1104 0.950 . S
C1127 C1126 1.334 . S
C1127 C1128 1.287 . S
C1128 C1127 1.287 . S
C1128 C1129 1.524 . S
C1128 H1147 0.913 . S
C1129 H1105 0.950 . S
C1129 C1128 1.524 . S
C1129 C1130 1.415 . S
C1130 H1106 0.950 . S
C1130 C1125 1.363 . S
C1130 C1129 1.415 . S
C1131 H1107 0.951 . S
C1131 C1132 1.366 . S
C1131 C1133 1.388 . S
C1132 C1131 1.366 . S
C1132 C1136 1.385 . S
C1133 H1108 0.951 . S
C1133 C1131 1.388 . S
C1133 C1134 1.366 . S
C1134 C1133 1.366 . S
C1134 C1135 1.414 . S
C1134 C1137 1.499 . S
C1135 H1109 0.950 . S
C1135 C1134 1.414 . S
C1135 C1136 1.374 . S
C1136 H1110 0.950 . S
C1136 C1132 1.385 . S
C1136 C1135 1.374 . S
C1137 C1134 1.499 . S
C1137 C1138 1.373 . S
C1137 C1139 1.389 . S
C1138 H1111 0.950 . S
C1138 C1124 1.377 . S
C1138 C1137 1.373 . S
C1139 C1123 1.377 . S
C1139 C1137 1.389 . S
C1139 C1140 1.524 . S
C1140 C1139 1.524 . S
C1140 C1141 1.397 . S
C1140 C1145 1.363 . S
C1141 H1112 0.950 . S
C1141 C1140 1.397 . S
C1141 C1142 1.334 . S
C1142 H1113 0.950 . S
C1142 C1141 1.334 . S
C1142 C1143 1.287 . S
C1143 C1142 1.287 . S
C1143 C1144 1.524 . S
C1143 H1146 0.999 . S
C1144 H1114 0.950 . S
C1144 C1143 1.524 . S
C1144 C1145 1.415 . S
C1145 H1115 0.950 . S
C1145 C1140 1.363 . S
C1145 C1144 1.415 . S
H1146 C1143 0.999 . S
H1147 C1128 0.913 . S
H1148 C1166 0.951 . S
H1149 C1168 0.951 1_565 S
H1150 C1170 0.950 . S
H1151 C1171 0.950 . S
H1152 C1173 0.950 . S
H1153 C1176 0.950 . S
H1154 C1177 0.950 . S
H1155 C1179 0.950 . S
H1156 C1180 0.950 . S
H1157 C1181 0.951 . S
H1158 C1183 0.951 1_545 S
H1159 C1185 0.950 . S
H1160 C1186 0.950 . S
H1161 C1188 0.950 . S
H1162 C1191 0.950 . S
H1163 C1192 0.950 . S
H1164 C1194 0.950 . S
H1165 C1195 0.950 . S
C1166 H1148 0.951 . S
C1166 C1167 1.366 . S
C1166 C1168 1.388 . S
C1167 C1166 1.366 . S
C1167 C1171 1.385 . S
C1168 H1149 0.951 1_545 S
C1168 C1166 1.388 . S
C1168 C1169 1.366 . S
C1169 C1168 1.366 . S
C1169 C1170 1.414 . S
C1169 C1172 1.499 . S
C1170 H1150 0.950 . S
C1170 C1169 1.414 . S
C1170 C1171 1.374 . S
C1171 H1151 0.950 . S
C1171 C1167 1.385 . S
C1171 C1170 1.374 . S
C1172 C1169 1.499 . S
C1172 C1173 1.373 . S
C1172 C1174 1.389 1_545 S
C1173 H1152 0.950 . S
C1173 C1172 1.373 . S
C1173 C1189 1.377 . S
C1174 C1172 1.389 1_565 S
C1174 C1175 1.524 . S
C1174 C1188 1.377 . S
C1175 C1174 1.524 . S
C1175 C1176 1.397 1_565 S
C1175 C1180 1.363 . S
C1176 H1153 0.950 . S
C1176 C1175 1.397 1_545 S
C1176 C1177 1.334 . S
C1177 H1154 0.950 . S
C1177 C1176 1.334 . S
C1177 C1178 1.287 1_545 S
C1178 C1177 1.287 1_565 S
C1178 C1179 1.524 . S
C1178 H1197 0.913 . S
C1179 H1155 0.950 . S
C1179 C1178 1.524 . S
C1179 C1180 1.415 . S
C1180 H1156 0.950 . S
C1180 C1175 1.363 . S
C1180 C1179 1.415 . S
C1181 H1157 0.951 . S
C1181 C1182 1.366 . S
C1181 C1183 1.388 . S
C1182 C1181 1.366 . S
C1182 C1186 1.385 . S
C1183 H1158 0.951 1_565 S
C1183 C1181 1.388 . S
C1183 C1184 1.366 . S
C1184 C1183 1.366 . S
C1184 C1185 1.414 . S
C1184 C1187 1.499 . S
C1185 H1159 0.950 . S
C1185 C1184 1.414 . S
C1185 C1186 1.374 . S
C1186 H1160 0.950 . S
C1186 C1182 1.385 . S
C1186 C1185 1.374 . S
C1187 C1184 1.499 . S
C1187 C1188 1.373 . S
C1187 C1189 1.389 1_565 S
C1188 H1161 0.950 . S
C1188 C1174 1.377 . S
C1188 C1187 1.373 . S
C1189 C1173 1.377 . S
C1189 C1187 1.389 1_545 S
C1189 C1190 1.524 . S
C1190 C1189 1.524 . S
C1190 C1191 1.397 1_545 S
C1190 C1195 1.363 . S
C1191 H1162 0.950 . S
C1191 C1190 1.397 1_565 S
C1191 C1192 1.334 . S
C1192 H1163 0.950 . S
C1192 C1191 1.334 . S
C1192 C1193 1.287 1_565 S
C1193 C1192 1.287 1_545 S
C1193 C1194 1.524 . S
C1193 H1196 0.999 . S
C1194 H1164 0.950 . S
C1194 C1193 1.524 . S
C1194 C1195 1.415 . S
C1195 H1165 0.950 . S
C1195 C1190 1.363 . S
C1195 C1194 1.415 . S
H1196 C1193 0.999 . S
H1197 C1178 0.913 . S
H1198 C1216 0.951 . S
H1199 C1218 0.951 . S
H1200 C1220 0.950 . S
H1201 C1221 0.950 . S
H1202 C1223 0.950 . S
H1203 C1226 0.950 . S
H1204 C1227 0.950 . S
H1205 C1229 0.950 . S
H1206 C1230 0.950 1_565 S
H1207 C1231 0.951 . S
H1208 C1233 0.951 . S
H1209 C1235 0.950 . S
H1210 C1236 0.950 . S
H1211 C1238 0.950 . S
H1212 C1241 0.950 . S
H1213 C1242 0.950 . S
H1214 C1244 0.950 . S
H1215 C1245 0.950 1_545 S
C1216 H1198 0.951 . S
C1216 C1217 1.366 . S
C1216 C1218 1.388 . S
C1217 C1216 1.366 . S
C1217 C1221 1.385 . S
C1218 H1199 0.951 . S
C1218 C1216 1.388 . S
C1218 C1219 1.366 . S
C1219 C1218 1.366 . S
C1219 C1220 1.414 . S
C1219 C1222 1.499 . S
C1220 H1200 0.950 . S
C1220 C1219 1.414 . S
C1220 C1221 1.374 . S
C1221 H1201 0.950 . S
C1221 C1217 1.385 . S
C1221 C1220 1.374 . S
C1222 C1219 1.499 . S
C1222 C1223 1.373 1_455 S
C1222 C1224 1.389 . S
C1223 H1202 0.950 . S
C1223 C1222 1.373 1_655 S
C1223 C1239 1.377 1_545 S
C1224 C1222 1.389 . S
C1224 C1225 1.524 . S
C1224 C1238 1.377 1_545 S
C1225 C1224 1.524 . S
C1225 C1226 1.397 . S
C1225 C1230 1.363 . S
C1226 H1203 0.950 . S
C1226 C1225 1.397 . S
C1226 C1227 1.334 . S
C1227 H1204 0.950 . S
C1227 C1226 1.334 . S
C1227 C1228 1.287 . S
C1228 C1227 1.287 . S
C1228 C1229 1.524 . S
C1228 H1247 0.913 . S
C1229 H1205 0.950 . S
C1229 C1228 1.524 . S
C1229 C1230 1.415 . S
C1230 H1206 0.950 1_545 S
C1230 C1225 1.363 . S
C1230 C1229 1.415 . S
C1231 H1207 0.951 . S
C1231 C1232 1.366 . S
C1231 C1233 1.388 . S
C1232 C1231 1.366 . S
C1232 C1236 1.385 . S
C1233 H1208 0.951 . S
C1233 C1231 1.388 . S
C1233 C1234 1.366 . S
C1234 C1233 1.366 . S
C1234 C1235 1.414 . S
C1234 C1237 1.499 . S
C1235 H1209 0.950 . S
C1235 C1234 1.414 . S
C1235 C1236 1.374 . S
C1236 H1210 0.950 . S
C1236 C1232 1.385 . S
C1236 C1235 1.374 . S
C1237 C1234 1.499 . S
C1237 C1238 1.373 1_655 S
C1237 C1239 1.389 . S
C1238 H1211 0.950 . S
C1238 C1224 1.377 1_565 S
C1238 C1237 1.373 1_455 S
C1239 C1223 1.377 1_565 S
C1239 C1237 1.389 . S
C1239 C1240 1.524 . S
C1240 C1239 1.524 . S
C1240 C1241 1.397 . S
C1240 C1245 1.363 . S
C1241 H1212 0.950 . S
C1241 C1240 1.397 . S
C1241 C1242 1.334 . S
C1242 H1213 0.950 . S
C1242 C1241 1.334 . S
C1242 C1243 1.287 . S
C1243 C1242 1.287 . S
C1243 C1244 1.524 . S
C1243 H1246 0.999 . S
C1244 H1214 0.950 . S
C1244 C1243 1.524 . S
C1244 C1245 1.415 . S
C1245 H1215 0.950 1_565 S
C1245 C1240 1.363 . S
C1245 C1244 1.415 . S
H1246 C1243 0.999 . S
H1247 C1228 0.913 . S
H1248 C1266 0.951 . S
H1249 C1268 0.951 . S
H1250 C1270 0.950 1_545 S
H1251 C1271 0.950 . S
H1252 C1273 0.950 . S
H1253 C1276 0.950 1_545 S
H1254 C1277 0.950 1_545 S
H1255 C1279 0.950 . S
H1256 C1280 0.950 . S
H1257 C1281 0.951 . S
H1258 C1283 0.951 . S
H1259 C1285 0.950 1_565 S
H1260 C1286 0.950 . S
H1261 C1288 0.950 . S
H1262 C1291 0.950 1_565 S
H1263 C1292 0.950 1_565 S
H1264 C1294 0.950 . S
H1265 C1295 0.950 . S
C1266 H1248 0.951 . S
C1266 C1267 1.366 . S
C1266 C1268 1.388 . S
C1267 C1266 1.366 . S
C1267 C1271 1.385 . S
C1268 H1249 0.951 . S
C1268 C1266 1.388 . S
C1268 C1269 1.366 . S
C1269 C1268 1.366 . S
C1269 C1270 1.414 . S
C1269 C1272 1.499 . S
C1270 H1250 0.950 1_565 S
C1270 C1269 1.414 . S
C1270 C1271 1.374 . S
C1271 H1251 0.950 . S
C1271 C1267 1.385 . S
C1271 C1270 1.374 . S
C1272 C1269 1.499 . S
C1272 C1273 1.373 . S
C1272 C1274 1.389 . S
C1273 H1252 0.950 . S
C1273 C1272 1.373 . S
C1273 C1289 1.377 1_565 S
C1274 C1272 1.389 . S
C1274 C1275 1.524 . S
C1274 C1288 1.377 1_565 S
C1275 C1274 1.524 . S
C1275 C1276 1.397 . S
C1275 C1280 1.363 . S
C1276 H1253 0.950 1_565 S
C1276 C1275 1.397 . S
C1276 C1277 1.334 . S
C1277 H1254 0.950 1_565 S
C1277 C1276 1.334 . S
C1277 C1278 1.287 . S
C1278 C1277 1.287 . S
C1278 C1279 1.524 . S
C1278 H1297 0.913 . S
C1279 H1255 0.950 . S
C1279 C1278 1.524 . S
C1279 C1280 1.415 . S
C1280 H1256 0.950 . S
C1280 C1275 1.363 . S
C1280 C1279 1.415 . S
C1281 H1257 0.951 . S
C1281 C1282 1.366 . S
C1281 C1283 1.388 . S
C1282 C1281 1.366 . S
C1282 C1286 1.385 . S
C1283 H1258 0.951 . S
C1283 C1281 1.388 . S
C1283 C1284 1.366 . S
C1284 C1283 1.366 . S
C1284 C1285 1.414 . S
C1284 C1287 1.499 . S
C1285 H1259 0.950 1_545 S
C1285 C1284 1.414 . S
C1285 C1286 1.374 . S
C1286 H1260 0.950 . S
C1286 C1282 1.385 . S
C1286 C1285 1.374 . S
C1287 C1284 1.499 . S
C1287 C1288 1.373 . S
C1287 C1289 1.389 . S
C1288 H1261 0.950 . S
C1288 C1274 1.377 1_545 S
C1288 C1287 1.373 . S
C1289 C1273 1.377 1_545 S
C1289 C1287 1.389 . S
C1289 C1290 1.524 . S
C1290 C1289 1.524 . S
C1290 C1291 1.397 . S
C1290 C1295 1.363 . S
C1291 H1262 0.950 1_545 S
C1291 C1290 1.397 . S
C1291 C1292 1.334 . S
C1292 H1263 0.950 1_545 S
C1292 C1291 1.334 . S
C1292 C1293 1.287 . S
C1293 C1292 1.287 . S
C1293 C1294 1.524 . S
C1293 H1296 0.999 . S
C1294 H1264 0.950 . S
C1294 C1293 1.524 . S
C1294 C1295 1.415 . S
C1295 H1265 0.950 . S
C1295 C1290 1.363 . S
C1295 C1294 1.415 . S
H1296 C1293 0.999 . S
H1297 C1278 0.913 . S
H1298 C1316 0.951 . S
H1299 C1318 0.951 . S
H1300 C1320 0.950 1_455 S
H1301 C1321 0.950 . S
H1302 C1323 0.950 . S
H1303 C1326 0.950 . S
H1304 C1327 0.950 . S
H1305 C1329 0.950 . S
H1306 C1330 0.950 . S
H1307 C1331 0.951 . S
H1308 C1333 0.951 . S
H1309 C1335 0.950 1_655 S
H1310 C1336 0.950 . S
H1311 C1338 0.950 . S
H1312 C1341 0.950 . S
H1313 C1342 0.950 . S
H1314 C1344 0.950 . S
H1315 C1345 0.950 . S
C1316 H1298 0.951 . S
C1316 C1317 1.366 . S
C1316 C1318 1.388 . S
C1317 C1316 1.366 . S
C1317 C1321 1.385 . S
C1318 H1299 0.951 . S
C1318 C1316 1.388 . S
C1318 C1319 1.366 . S
C1319 C1318 1.366 . S
C1319 C1320 1.414 . S
C1319 C1322 1.499 . S
C1320 H1300 0.950 1_655 S
C1320 C1319 1.414 . S
C1320 C1321 1.374 . S
C1321 H1301 0.950 . S
C1321 C1317 1.385 . S
C1321 C1320 1.374 . S
C1322 C1319 1.499 . S
C1322 C1323 1.373 1_655 S
C1322 C1324 1.389 . S
C1323 H1302 0.950 . S
C1323 C1322 1.373 1_455 S
C1323 C1339 1.377 1_565 S
C1324 C1322 1.389 . S
C1324 C1325 1.524 . S
C1324 C1338 1.377 1_565 S
C1325 C1324 1.524 . S
C1325 C1326 1.397 . S
C1325 C1330 1.363 1_565 S
C1326 H1303 0.950 . S
C1326 C1325 1.397 . S
C1326 C1327 1.334 . S
C1327 H1304 0.950 . S
C1327 C1326 1.334 . S
C1327 C1328 1.287 . S
C1328 C1327 1.287 . S
C1328 C1329 1.524 1_565 S
C1328 H1347 0.913 . S
C1329 H1305 0.950 . S
C1329 C1328 1.524 1_545 S
C1329 C1330 1.415 . S
C1330 H1306 0.950 . S
C1330 C1325 1.363 1_545 S
C1330 C1329 1.415 . S
C1331 H1307 0.951 . S
C1331 C1332 1.366 . S
C1331 C1333 1.388 . S
C1332 C1331 1.366 . S
C1332 C1336 1.385 . S
C1333 H1308 0.951 . S
C1333 C1331 1.388 . S
C1333 C1334 1.366 . S
C1334 C1333 1.366 . S
C1334 C1335 1.414 . S
C1334 C1337 1.499 . S
C1335 H1309 0.950 1_455 S
C1335 C1334 1.414 . S
C1335 C1336 1.374 . S
C1336 H1310 0.950 . S
C1336 C1332 1.385 . S
C1336 C1335 1.374 . S
C1337 C1334 1.499 . S
C1337 C1338 1.373 1_455 S
C1337 C1339 1.389 . S
C1338 H1311 0.950 . S
C1338 C1324 1.377 1_545 S
C1338 C1337 1.373 1_655 S
C1339 C1323 1.377 1_545 S
C1339 C1337 1.389 . S
C1339 C1340 1.524 . S
C1340 C1339 1.524 . S
C1340 C1341 1.397 . S
C1340 C1345 1.363 1_545 S
C1341 H1312 0.950 . S
C1341 C1340 1.397 . S
C1341 C1342 1.334 . S
C1342 H1313 0.950 . S
C1342 C1341 1.334 . S
C1342 C1343 1.287 . S
C1343 C1342 1.287 . S
C1343 C1344 1.524 1_545 S
C1343 H1346 0.999 . S
C1344 H1314 0.950 . S
C1344 C1343 1.524 1_565 S
C1344 C1345 1.415 . S
C1345 H1315 0.950 . S
C1345 C1340 1.363 1_565 S
C1345 C1344 1.415 . S
H1346 C1343 0.999 . S
H1347 C1328 0.913 . S
H1348 C1366 0.951 . S
H1349 C1368 0.951 . S
H1350 C1370 0.950 . S
H1351 C1371 0.950 . S
H1352 C1373 0.950 . S
H1353 C1376 0.950 . S
H1354 C1377 0.950 . S
H1355 C1379 0.950 . S
H1356 C1380 0.950 . S
H1357 C1381 0.951 . S
H1358 C1383 0.951 . S
H1359 C1385 0.950 . S
H1360 C1386 0.950 . S
H1361 C1388 0.950 . S
H1362 C1391 0.950 . S
H1363 C1392 0.950 . S
H1364 C1394 0.950 . S
H1365 C1395 0.950 . S
C1366 H1348 0.951 . S
C1366 C1367 1.366 . S
C1366 C1368 1.388 . S
C1367 C1366 1.366 . S
C1367 C1371 1.385 . S
C1368 H1349 0.951 . S
C1368 C1366 1.388 . S
C1368 C1369 1.366 . S
C1369 C1368 1.366 . S
C1369 C1370 1.414 . S
C1369 C1372 1.499 . S
C1370 H1350 0.950 . S
C1370 C1369 1.414 . S
C1370 C1371 1.374 . S
C1371 H1351 0.950 . S
C1371 C1367 1.385 . S
C1371 C1370 1.374 . S
C1372 C1369 1.499 . S
C1372 C1373 1.373 . S
C1372 C1374 1.389 . S
C1373 H1352 0.950 . S
C1373 C1372 1.373 . S
C1373 C1389 1.377 1_455 S
C1374 C1372 1.389 . S
C1374 C1375 1.524 . S
C1374 C1388 1.377 1_455 S
C1375 C1374 1.524 . S
C1375 C1376 1.397 . S
C1375 C1380 1.363 . S
C1376 H1353 0.950 . S
C1376 C1375 1.397 . S
C1376 C1377 1.334 . S
C1377 H1354 0.950 . S
C1377 C1376 1.334 . S
C1377 C1378 1.287 . S
C1378 C1377 1.287 . S
C1378 C1379 1.524 . S
C1378 H1397 0.913 . S
C1379 H1355 0.950 . S
C1379 C1378 1.524 . S
C1379 C1380 1.415 . S
C1380 H1356 0.950 . S
C1380 C1375 1.363 . S
C1380 C1379 1.415 . S
C1381 H1357 0.951 . S
C1381 C1382 1.366 . S
C1381 C1383 1.388 . S
C1382 C1381 1.366 . S
C1382 C1386 1.385 . S
C1383 H1358 0.951 . S
C1383 C1381 1.388 . S
C1383 C1384 1.366 . S
C1384 C1383 1.366 . S
C1384 C1385 1.414 . S
C1384 C1387 1.499 . S
C1385 H1359 0.950 . S
C1385 C1384 1.414 . S
C1385 C1386 1.374 . S
C1386 H1360 0.950 . S
C1386 C1382 1.385 . S
C1386 C1385 1.374 . S
C1387 C1384 1.499 . S
C1387 C1388 1.373 . S
C1387 C1389 1.389 . S
C1388 H1361 0.950 . S
C1388 C1374 1.377 1_655 S
C1388 C1387 1.373 . S
C1389 C1373 1.377 1_655 S
C1389 C1387 1.389 . S
C1389 C1390 1.524 . S
C1390 C1389 1.524 . S
C1390 C1391 1.397 . S
C1390 C1395 1.363 . S
C1391 H1362 0.950 . S
C1391 C1390 1.397 . S
C1391 C1392 1.334 . S
C1392 H1363 0.950 . S
C1392 C1391 1.334 . S
C1392 C1393 1.287 . S
C1393 C1392 1.287 . S
C1393 C1394 1.524 . S
C1393 H1396 0.999 . S
C1394 H1364 0.950 . S
C1394 C1393 1.524 . S
C1394 C1395 1.415 . S
C1395 H1365 0.950 . S
C1395 C1390 1.363 . S
C1395 C1394 1.415 . S
H1396 C1393 0.999 . S
H1397 C1378 0.913 . S
H1398 C1416 0.951 . S
H1399 C1418 0.951 . S
H1400 C1420 0.950 . S
H1401 C1421 0.950 . S
H1402 C1423 0.950 . S
H1403 C1426 0.950 . S
H1404 C1427 0.950 . S
H1405 C1429 0.950 . S
H1406 C1430 0.950 . S
H1407 C1431 0.951 . S
H1408 C1433 0.951 . S
H1409 C1435 0.950 . S
H1410 C1436 0.950 . S
H1411 C1438 0.950 . S
H1412 C1441 0.950 . S
H1413 C1442 0.950 . S
H1414 C1444 0.950 . S
H1415 C1445 0.950 . S
C1416 H1398 0.951 . S
C1416 C1417 1.366 . S
C1416 C1418 1.388 . S
C1417 C1416 1.366 . S
C1417 C1421 1.385 . S
C1418 H1399 0.951 . S
C1418 C1416 1.388 . S
C1418 C1419 1.366 . S
C1419 C1418 1.366 . S
C1419 C1420 1.414 . S
C1419 C1422 1.499 . S
C1420 H1400 0.950 . S
C1420 C1419 1.414 . S
C1420 C1421 1.374 . S
C1421 H1401 0.950 . S
C1421 C1417 1.385 . S
C1421 C1420 1.374 . S
C1422 C1419 1.499 . S
C1422 C1423 1.373 . S
C1422 C1424 1.389 . S
C1423 H1402 0.950 . S
C1423 C1422 1.373 . S
C1423 C1439 1.377 . S
C1424 C1422 1.389 . S
C1424 C1425 1.524 . S
C1424 C1438 1.377 . S
C1425 C1424 1.524 . S
C1425 C1426 1.397 . S
C1425 C1430 1.363 . S
C1426 H1403 0.950 . S
C1426 C1425 1.397 . S
C1426 C1427 1.334 . S
C1427 H1404 0.950 . S
C1427 C1426 1.334 . S
C1427 C1428 1.287 . S
C1428 C1427 1.287 . S
C1428 C1429 1.524 . S
C1428 H1447 0.913 . S
C1429 H1405 0.950 . S
C1429 C1428 1.524 . S
C1429 C1430 1.415 . S
C1430 H1406 0.950 . S
C1430 C1425 1.363 . S
C1430 C1429 1.415 . S
C1431 H1407 0.951 . S
C1431 C1432 1.366 . S
C1431 C1433 1.388 . S
C1432 C1431 1.366 . S
C1432 C1436 1.385 . S
C1433 H1408 0.951 . S
C1433 C1431 1.388 . S
C1433 C1434 1.366 . S
C1434 C1433 1.366 . S
C1434 C1435 1.414 . S
C1434 C1437 1.499 . S
C1435 H1409 0.950 . S
C1435 C1434 1.414 . S
C1435 C1436 1.374 . S
C1436 H1410 0.950 . S
C1436 C1432 1.385 . S
C1436 C1435 1.374 . S
C1437 C1434 1.499 . S
C1437 C1438 1.373 . S
C1437 C1439 1.389 . S
C1438 H1411 0.950 . S
C1438 C1424 1.377 . S
C1438 C1437 1.373 . S
C1439 C1423 1.377 . S
C1439 C1437 1.389 . S
C1439 C1440 1.524 . S
C1440 C1439 1.524 . S
C1440 C1441 1.397 . S
C1440 C1445 1.363 . S
C1441 H1412 0.950 . S
C1441 C1440 1.397 . S
C1441 C1442 1.334 . S
C1442 H1413 0.950 . S
C1442 C1441 1.334 . S
C1442 C1443 1.287 . S
C1443 C1442 1.287 . S
C1443 C1444 1.524 . S
C1443 H1446 0.999 . S
C1444 H1414 0.950 . S
C1444 C1443 1.524 . S
C1444 C1445 1.415 . S
C1445 H1415 0.950 . S
C1445 C1440 1.363 . S
C1445 C1444 1.415 . S
H1446 C1443 0.999 . S
H1447 C1428 0.913 . S
H1448 C1466 0.951 . S
H1449 C1468 0.951 . S
H1450 C1470 0.950 . S
H1451 C1471 0.950 . S
H1452 C1473 0.950 . S
H1453 C1476 0.950 . S
H1454 C1477 0.950 . S
H1455 C1479 0.950 . S
H1456 C1480 0.950 . S
H1457 C1481 0.951 . S
H1458 C1483 0.951 . S
H1459 C1485 0.950 . S
H1460 C1486 0.950 . S
H1461 C1488 0.950 . S
H1462 C1491 0.950 . S
H1463 C1492 0.950 . S
H1464 C1494 0.950 . S
H1465 C1495 0.950 . S
C1466 H1448 0.951 . S
C1466 C1467 1.366 . S
C1466 C1468 1.388 . S
C1467 C1466 1.366 . S
C1467 C1471 1.385 . S
C1468 H1449 0.951 . S
C1468 C1466 1.388 . S
C1468 C1469 1.366 . S
C1469 C1468 1.366 . S
C1469 C1470 1.414 . S
C1469 C1472 1.499 . S
C1470 H1450 0.950 . S
C1470 C1469 1.414 . S
C1470 C1471 1.374 . S
C1471 H1451 0.950 . S
C1471 C1467 1.385 . S
C1471 C1470 1.374 . S
C1472 C1469 1.499 . S
C1472 C1473 1.373 . S
C1472 C1474 1.389 . S
C1473 H1452 0.950 . S
C1473 C1472 1.373 . S
C1473 C1489 1.377 . S
C1474 C1472 1.389 . S
C1474 C1475 1.524 . S
C1474 C1488 1.377 . S
C1475 C1474 1.524 . S
C1475 C1476 1.397 . S
C1475 C1480 1.363 . S
C1476 H1453 0.950 . S
C1476 C1475 1.397 . S
C1476 C1477 1.334 . S
C1477 H1454 0.950 . S
C1477 C1476 1.334 . S
C1477 C1478 1.287 . S
C1478 C1477 1.287 . S
C1478 C1479 1.524 . S
C1478 H1497 0.913 . S
C1479 H1455 0.950 . S
C1479 C1478 1.524 . S
C1479 C1480 1.415 . S
C1480 H1456 0.950 . S
C1480 C1475 1.363 . S
C1480 C1479 1.415 . S
C1481 H1457 0.951 . S
C1481 C1482 1.366 . S
C1481 C1483 1.388 . S
C1482 C1481 1.366 . S
C1482 C1486 1.385 . S
C1483 H1458 0.951 . S
C1483 C1481 1.388 . S
C1483 C1484 1.366 . S
C1484 C1483 1.366 . S
C1484 C1485 1.414 . S
C1484 C1487 1.499 . S
C1485 H1459 0.950 . S
C1485 C1484 1.414 . S
C1485 C1486 1.374 . S
C1486 H1460 0.950 . S
C1486 C1482 1.385 . S
C1486 C1485 1.374 . S
C1487 C1484 1.499 . S
C1487 C1488 1.373 . S
C1487 C1489 1.389 . S
C1488 H1461 0.950 . S
C1488 C1474 1.377 . S
C1488 C1487 1.373 . S
C1489 C1473 1.377 . S
C1489 C1487 1.389 . S
C1489 C1490 1.524 . S
C1490 C1489 1.524 . S
C1490 C1491 1.397 . S
C1490 C1495 1.363 . S
C1491 H1462 0.950 . S
C1491 C1490 1.397 . S
C1491 C1492 1.334 . S
C1492 H1463 0.950 . S
C1492 C1491 1.334 . S
C1492 C1493 1.287 . S
C1493 C1492 1.287 . S
C1493 C1494 1.524 . S
C1493 H1496 0.999 . S
C1494 H1464 0.950 . S
C1494 C1493 1.524 . S
C1494 C1495 1.415 . S
C1495 H1465 0.950 . S
C1495 C1490 1.363 . S
C1495 C1494 1.415 . S
H1496 C1493 0.999 . S
H1497 C1478 0.913 . S
H1498 C1516 0.951 . S
H1499 C1518 0.951 . S
H1500 C1520 0.950 . S
H1501 C1521 0.950 . S
H1502 C1523 0.950 . S
H1503 C1526 0.950 . S
H1504 C1527 0.950 . S
H1505 C1529 0.950 . S
H1506 C1530 0.950 . S
H1507 C1531 0.951 . S
H1508 C1533 0.951 . S
H1509 C1535 0.950 . S
H1510 C1536 0.950 . S
H1511 C1538 0.950 . S
H1512 C1541 0.950 . S
H1513 C1542 0.950 . S
H1514 C1544 0.950 . S
H1515 C1545 0.950 . S
C1516 H1498 0.951 . S
C1516 C1517 1.366 . S
C1516 C1518 1.388 . S
C1517 C1516 1.366 . S
C1517 C1521 1.385 . S
C1518 H1499 0.951 . S
C1518 C1516 1.388 . S
C1518 C1519 1.366 . S
C1519 C1518 1.366 . S
C1519 C1520 1.414 . S
C1519 C1522 1.499 . S
C1520 H1500 0.950 . S
C1520 C1519 1.414 . S
C1520 C1521 1.374 . S
C1521 H1501 0.950 . S
C1521 C1517 1.385 . S
C1521 C1520 1.374 . S
C1522 C1519 1.499 . S
C1522 C1523 1.373 . S
C1522 C1524 1.389 . S
C1523 H1502 0.950 . S
C1523 C1522 1.373 . S
C1523 C1539 1.377 1_565 S
C1524 C1522 1.389 . S
C1524 C1525 1.524 . S
C1524 C1538 1.377 1_565 S
C1525 C1524 1.524 . S
C1525 C1526 1.397 . S
C1525 C1530 1.363 . S
C1526 H1503 0.950 . S
C1526 C1525 1.397 . S
C1526 C1527 1.334 . S
C1527 H1504 0.950 . S
C1527 C1526 1.334 . S
C1527 C1528 1.287 . S
C1528 C1527 1.287 . S
C1528 C1529 1.524 . S
C1528 H1547 0.913 . S
C1529 H1505 0.950 . S
C1529 C1528 1.524 . S
C1529 C1530 1.415 . S
C1530 H1506 0.950 . S
C1530 C1525 1.363 . S
C1530 C1529 1.415 . S
C1531 H1507 0.951 . S
C1531 C1532 1.366 . S
C1531 C1533 1.388 . S
C1532 C1531 1.366 . S
C1532 C1536 1.385 . S
C1533 H1508 0.951 . S
C1533 C1531 1.388 . S
C1533 C1534 1.366 . S
C1534 C1533 1.366 . S
C1534 C1535 1.414 . S
C1534 C1537 1.499 . S
C1535 H1509 0.950 . S
C1535 C1534 1.414 . S
C1535 C1536 1.374 . S
C1536 H1510 0.950 . S
C1536 C1532 1.385 . S
C1536 C1535 1.374 . S
C1537 C1534 1.499 . S
C1537 C1538 1.373 . S
C1537 C1539 1.389 . S
C1538 H1511 0.950 . S
C1538 C1524 1.377 1_545 S
C1538 C1537 1.373 . S
C1539 C1523 1.377 1_545 S
C1539 C1537 1.389 . S
C1539 C1540 1.524 . S
C1540 C1539 1.524 . S
C1540 C1541 1.397 . S
C1540 C1545 1.363 . S
C1541 H1512 0.950 . S
C1541 C1540 1.397 . S
C1541 C1542 1.334 . S
C1542 H1513 0.950 . S
C1542 C1541 1.334 . S
C1542 C1543 1.287 . S
C1543 C1542 1.287 . S
C1543 C1544 1.524 . S
C1543 H1546 0.999 . S
C1544 H1514 0.950 . S
C1544 C1543 1.524 . S
C1544 C1545 1.415 . S
C1545 H1515 0.950 . S
C1545 C1540 1.363 . S
C1545 C1544 1.415 . S
H1546 C1543 0.999 . S
H1547 C1528 0.913 . S
H1548 C1566 0.951 . S
H1549 C1568 0.951 . S
H1550 C1570 0.950 1_545 S
H1551 C1571 0.950 . S
H1552 C1573 0.950 . S
H1553 C1576 0.950 . S
H1554 C1577 0.950 . S
H1555 C1579 0.950 . S
H1556 C1580 0.950 . S
H1557 C1581 0.951 . S
H1558 C1583 0.951 . S
H1559 C1585 0.950 1_565 S
H1560 C1586 0.950 . S
H1561 C1588 0.950 . S
H1562 C1591 0.950 . S
H1563 C1592 0.950 . S
H1564 C1594 0.950 . S
H1565 C1595 0.950 . S
C1566 H1548 0.951 . S
C1566 C1567 1.366 . S
C1566 C1568 1.388 . S
C1567 C1566 1.366 . S
C1567 C1571 1.385 . S
C1568 H1549 0.951 . S
C1568 C1566 1.388 . S
C1568 C1569 1.366 . S
C1569 C1568 1.366 . S
C1569 C1570 1.414 . S
C1569 C1572 1.499 . S
C1570 H1550 0.950 1_565 S
C1570 C1569 1.414 . S
C1570 C1571 1.374 . S
C1571 H1551 0.950 . S
C1571 C1567 1.385 . S
C1571 C1570 1.374 . S
C1572 C1569 1.499 . S
C1572 C1573 1.373 1_565 S
C1572 C1574 1.389 . S
C1573 H1552 0.950 . S
C1573 C1572 1.373 1_545 S
C1573 C1589 1.377 1_655 S
C1574 C1572 1.389 . S
C1574 C1575 1.524 . S
C1574 C1588 1.377 1_655 S
C1575 C1574 1.524 . S
C1575 C1576 1.397 . S
C1575 C1580 1.363 1_655 S
C1576 H1553 0.950 . S
C1576 C1575 1.397 . S
C1576 C1577 1.334 . S
C1577 H1554 0.950 . S
C1577 C1576 1.334 . S
C1577 C1578 1.287 . S
C1578 C1577 1.287 . S
C1578 C1579 1.524 1_655 S
C1578 H1597 0.913 . S
C1579 H1555 0.950 . S
C1579 C1578 1.524 1_455 S
C1579 C1580 1.415 . S
C1580 H1556 0.950 . S
C1580 C1575 1.363 1_455 S
C1580 C1579 1.415 . S
C1581 H1557 0.951 . S
C1581 C1582 1.366 . S
C1581 C1583 1.388 . S
C1582 C1581 1.366 . S
C1582 C1586 1.385 . S
C1583 H1558 0.951 . S
C1583 C1581 1.388 . S
C1583 C1584 1.366 . S
C1584 C1583 1.366 . S
C1584 C1585 1.414 . S
C1584 C1587 1.499 . S
C1585 H1559 0.950 1_545 S
C1585 C1584 1.414 . S
C1585 C1586 1.374 . S
C1586 H1560 0.950 . S
C1586 C1582 1.385 . S
C1586 C1585 1.374 . S
C1587 C1584 1.499 . S
C1587 C1588 1.373 1_545 S
C1587 C1589 1.389 . S
C1588 H1561 0.950 . S
C1588 C1574 1.377 1_455 S
C1588 C1587 1.373 1_565 S
C1589 C1573 1.377 1_455 S
C1589 C1587 1.389 . S
C1589 C1590 1.524 . S
C1590 C1589 1.524 . S
C1590 C1591 1.397 . S
C1590 C1595 1.363 1_455 S
C1591 H1562 0.950 . S
C1591 C1590 1.397 . S
C1591 C1592 1.334 . S
C1592 H1563 0.950 . S
C1592 C1591 1.334 . S
C1592 C1593 1.287 . S
C1593 C1592 1.287 . S
C1593 C1594 1.524 1_455 S
C1593 H1596 0.999 . S
C1594 H1564 0.950 . S
C1594 C1593 1.524 1_655 S
C1594 C1595 1.415 . S
C1595 H1565 0.950 . S
C1595 C1590 1.363 1_655 S
C1595 C1594 1.415 . S
H1596 C1593 0.999 . S
H1597 C1578 0.913 . S
H1598 C1616 0.951 1_655 S
H1599 C1618 0.951 1_655 S
H1600 C1620 0.950 . S
H1601 C1621 0.950 . S
H1602 C1623 0.950 . S
H1603 C1626 0.950 . S
H1604 C1627 0.950 . S
H1605 C1629 0.950 . S
H1606 C1630 0.950 . S
H1607 C1631 0.951 1_455 S
H1608 C1633 0.951 1_455 S
H1609 C1635 0.950 . S
H1610 C1636 0.950 . S
H1611 C1638 0.950 . S
H1612 C1641 0.950 . S
H1613 C1642 0.950 . S
H1614 C1644 0.950 . S
H1615 C1645 0.950 . S
C1616 H1598 0.951 1_455 S
C1616 C1617 1.366 . S
C1616 C1618 1.388 . S
C1617 C1616 1.366 . S
C1617 C1621 1.385 . S
C1618 H1599 0.951 1_455 S
C1618 C1616 1.388 . S
C1618 C1619 1.366 . S
C1619 C1618 1.366 . S
C1619 C1620 1.414 . S
C1619 C1622 1.499 . S
C1620 H1600 0.950 . S
C1620 C1619 1.414 . S
C1620 C1621 1.374 . S
C1621 H1601 0.950 . S
C1621 C1617 1.385 . S
C1621 C1620 1.374 . S
C1622 C1619 1.499 . S
C1622 C1623 1.373 . S
C1622 C1624 1.389 1_455 S
C1623 H1602 0.950 . S
C1623 C1622 1.373 . S
C1623 C1639 1.377 . S
C1624 C1622 1.389 1_655 S
C1624 C1625 1.524 . S
C1624 C1638 1.377 . S
C1625 C1624 1.524 . S
C1625 C1626 1.397 1_655 S
C1625 C1630 1.363 . S
C1626 H1603 0.950 . S
C1626 C1625 1.397 1_455 S
C1626 C1627 1.334 . S
C1627 H1604 0.950 . S
C1627 C1626 1.334 . S
C1627 C1628 1.287 1_455 S
C1628 C1627 1.287 1_655 S
C1628 C1629 1.524 . S
C1628 H1647 0.913 . S
C1629 H1605 0.950 . S
C1629 C1628 1.524 . S
C1629 C1630 1.415 . S
C1630 H1606 0.950 . S
C1630 C1625 1.363 . S
C1630 C1629 1.415 . S
C1631 H1607 0.951 1_655 S
C1631 C1632 1.366 . S
C1631 C1633 1.388 . S
C1632 C1631 1.366 . S
C1632 C1636 1.385 . S
C1633 H1608 0.951 1_655 S
C1633 C1631 1.388 . S
C1633 C1634 1.366 . S
C1634 C1633 1.366 . S
C1634 C1635 1.414 . S
C1634 C1637 1.499 . S
C1635 H1609 0.950 . S
C1635 C1634 1.414 . S
C1635 C1636 1.374 . S
C1636 H1610 0.950 . S
C1636 C1632 1.385 . S
C1636 C1635 1.374 . S
C1637 C1634 1.499 . S
C1637 C1638 1.373 . S
C1637 C1639 1.389 1_655 S
C1638 H1611 0.950 . S
C1638 C1624 1.377 . S
C1638 C1637 1.373 . S
C1639 C1623 1.377 . S
C1639 C1637 1.389 1_455 S
C1639 C1640 1.524 . S
C1640 C1639 1.524 . S
C1640 C1641 1.397 1_455 S
C1640 C1645 1.363 . S
C1641 H1612 0.950 . S
C1641 C1640 1.397 1_655 S
C1641 C1642 1.334 . S
C1642 H1613 0.950 . S
C1642 C1641 1.334 . S
C1642 C1643 1.287 1_655 S
C1643 C1642 1.287 1_455 S
C1643 C1644 1.524 . S
C1643 H1646 0.999 . S
C1644 H1614 0.950 . S
C1644 C1643 1.524 . S
C1644 C1645 1.415 . S
C1645 H1615 0.950 . S
C1645 C1640 1.363 . S
C1645 C1644 1.415 . S
H1646 C1643 0.999 . S
H1647 C1628 0.913 . S
H1648 C1666 0.951 . S
H1649 C1668 0.951 . S
H1650 C1670 0.950 . S
H1651 C1671 0.950 . S
H1652 C1673 0.950 . S
H1653 C1676 0.950 . S
H1654 C1677 0.950 . S
H1655 C1679 0.950 . S
H1656 C1680 0.950 . S
H1657 C1681 0.951 . S
H1658 C1683 0.951 . S
H1659 C1685 0.950 . S
H1660 C1686 0.950 . S
H1661 C1688 0.950 . S
H1662 C1691 0.950 . S
H1663 C1692 0.950 . S
H1664 C1694 0.950 . S
H1665 C1695 0.950 1_545 S
C1666 H1648 0.951 . S
C1666 C1667 1.366 . S
C1666 C1668 1.388 . S
C1667 C1666 1.366 . S
C1667 C1671 1.385 . S
C1668 H1649 0.951 . S
C1668 C1666 1.388 . S
C1668 C1669 1.366 . S
C1669 C1668 1.366 . S
C1669 C1670 1.414 . S
C1669 C1672 1.499 . S
C1670 H1650 0.950 . S
C1670 C1669 1.414 . S
C1670 C1671 1.374 . S
C1671 H1651 0.950 . S
C1671 C1667 1.385 . S
C1671 C1670 1.374 . S
C1672 C1669 1.499 . S
C1672 C1673 1.373 . S
C1672 C1674 1.389 . S
C1673 H1652 0.950 . S
C1673 C1672 1.373 . S
C1673 C1689 1.377 . S
C1674 C1672 1.389 . S
C1674 C1675 1.524 . S
C1674 C1688 1.377 . S
C1675 C1674 1.524 . S
C1675 C1676 1.397 . S
C1675 C1680 1.363 . S
C1676 H1653 0.950 . S
C1676 C1675 1.397 . S
C1676 C1677 1.334 . S
C1677 H1654 0.950 . S
C1677 C1676 1.334 . S
C1677 C1678 1.287 . S
C1678 C1677 1.287 . S
C1678 C1679 1.524 . S
C1678 H1697 0.913 . S
C1679 H1655 0.950 . S
C1679 C1678 1.524 . S
C1679 C1680 1.415 . S
C1680 H1656 0.950 . S
C1680 C1675 1.363 . S
C1680 C1679 1.415 . S
C1681 H1657 0.951 . S
C1681 C1682 1.366 . S
C1681 C1683 1.388 . S
C1682 C1681 1.366 . S
C1682 C1686 1.385 . S
C1683 H1658 0.951 . S
C1683 C1681 1.388 . S
C1683 C1684 1.366 . S
C1684 C1683 1.366 . S
C1684 C1685 1.414 . S
C1684 C1687 1.499 . S
C1685 H1659 0.950 . S
C1685 C1684 1.414 . S
C1685 C1686 1.374 . S
C1686 H1660 0.950 . S
C1686 C1682 1.385 . S
C1686 C1685 1.374 . S
C1687 C1684 1.499 . S
C1687 C1688 1.373 . S
C1687 C1689 1.389 . S
C1688 H1661 0.950 . S
C1688 C1674 1.377 . S
C1688 C1687 1.373 . S
C1689 C1673 1.377 . S
C1689 C1687 1.389 . S
C1689 C1690 1.524 1_545 S
C1690 C1689 1.524 1_565 S
C1690 C1691 1.397 . S
C1690 C1695 1.363 . S
C1691 H1662 0.950 . S
C1691 C1690 1.397 . S
C1691 C1692 1.334 . S
C1692 H1663 0.950 . S
C1692 C1691 1.334 . S
C1692 C1693 1.287 . S
C1693 C1692 1.287 . S
C1693 C1694 1.524 . S
C1693 H1696 0.999 . S
C1694 H1664 0.950 . S
C1694 C1693 1.524 . S
C1694 C1695 1.415 . S
C1695 H1665 0.950 1_565 S
C1695 C1690 1.363 . S
C1695 C1694 1.415 . S
H1696 C1693 0.999 . S
H1697 C1678 0.913 . S
H1698 C1716 0.951 . S
H1699 C1718 0.951 . S
H1700 C1720 0.950 . S
H1701 C1721 0.950 . S
H1702 C1723 0.950 . S
H1703 C1726 0.950 . S
H1704 C1727 0.950 . S
H1705 C1729 0.950 1_655 S
H1706 C1730 0.950 . S
H1707 C1731 0.951 . S
H1708 C1733 0.951 . S
H1709 C1735 0.950 . S
H1710 C1736 0.950 . S
H1711 C1738 0.950 . S
H1712 C1741 0.950 . S
H1713 C1742 0.950 . S
H1714 C1744 0.950 . S
H1715 C1745 0.950 . S
C1716 H1698 0.951 . S
C1716 C1717 1.366 . S
C1716 C1718 1.388 . S
C1717 C1716 1.366 . S
C1717 C1721 1.385 . S
C1718 H1699 0.951 . S
C1718 C1716 1.388 . S
C1718 C1719 1.366 . S
C1719 C1718 1.366 . S
C1719 C1720 1.414 . S
C1719 C1722 1.499 . S
C1720 H1700 0.950 . S
C1720 C1719 1.414 . S
C1720 C1721 1.374 . S
C1721 H1701 0.950 . S
C1721 C1717 1.385 . S
C1721 C1720 1.374 . S
C1722 C1719 1.499 . S
C1722 C1723 1.373 . S
C1722 C1724 1.389 . S
C1723 H1702 0.950 . S
C1723 C1722 1.373 . S
C1723 C1739 1.377 . S
C1724 C1722 1.389 . S
C1724 C1725 1.524 . S
C1724 C1738 1.377 . S
C1725 C1724 1.524 . S
C1725 C1726 1.397 1_655 S
C1725 C1730 1.363 . S
C1726 H1703 0.950 . S
C1726 C1725 1.397 1_455 S
C1726 C1727 1.334 . S
C1727 H1704 0.950 . S
C1727 C1726 1.334 . S
C1727 C1728 1.287 . S
C1728 C1727 1.287 . S
C1728 C1729 1.524 . S
C1728 H1747 0.913 . S
C1729 H1705 0.950 1_455 S
C1729 C1728 1.524 . S
C1729 C1730 1.415 1_455 S
C1730 H1706 0.950 . S
C1730 C1725 1.363 . S
C1730 C1729 1.415 1_655 S
C1731 H1707 0.951 . S
C1731 C1732 1.366 . S
C1731 C1733 1.388 . S
C1732 C1731 1.366 . S
C1732 C1736 1.385 . S
C1733 H1708 0.951 . S
C1733 C1731 1.388 . S
C1733 C1734 1.366 . S
C1734 C1733 1.366 . S
C1734 C1735 1.414 . S
C1734 C1737 1.499 . S
C1735 H1709 0.950 . S
C1735 C1734 1.414 . S
C1735 C1736 1.374 . S
C1736 H1710 0.950 . S
C1736 C1732 1.385 . S
C1736 C1735 1.374 . S
C1737 C1734 1.499 . S
C1737 C1738 1.373 . S
C1737 C1739 1.389 . S
C1738 H1711 0.950 . S
C1738 C1724 1.377 . S
C1738 C1737 1.373 . S
C1739 C1723 1.377 . S
C1739 C1737 1.389 . S
C1739 C1740 1.524 . S
C1740 C1739 1.524 . S
C1740 C1741 1.397 . S
C1740 C1745 1.363 . S
C1741 H1712 0.950 . S
C1741 C1740 1.397 . S
C1741 C1742 1.334 . S
C1742 H1713 0.950 . S
C1742 C1741 1.334 . S
C1742 C1743 1.287 . S
C1743 C1742 1.287 . S
C1743 C1744 1.524 . S
C1743 H1746 0.999 . S
C1744 H1714 0.950 . S
C1744 C1743 1.524 . S
C1744 C1745 1.415 . S
C1745 H1715 0.950 . S
C1745 C1740 1.363 . S
C1745 C1744 1.415 . S
H1746 C1743 0.999 . S
H1747 C1728 0.913 . S
H1748 C1766 0.951 . S
H1749 C1768 0.951 . S
H1750 C1770 0.950 . S
H1751 C1771 0.950 . S
H1752 C1773 0.950 . S
H1753 C1776 0.950 . S
H1754 C1777 0.950 . S
H1755 C1779 0.950 . S
H1756 C1780 0.950 . S
H1757 C1781 0.951 . S
H1758 C1783 0.951 . S
H1759 C1785 0.950 . S
H1760 C1786 0.950 . S
H1761 C1788 0.950 . S
H1762 C1791 0.950 . S
H1763 C1792 0.950 . S
H1764 C1794 0.950 . S
H1765 C1795 0.950 . S
C1766 H1748 0.951 . S
C1766 C1767 1.366 . S
C1766 C1768 1.388 . S
C1767 C1766 1.366 . S
C1767 C1771 1.385 . S
C1768 H1749 0.951 . S
C1768 C1766 1.388 . S
C1768 C1769 1.366 . S
C1769 C1768 1.366 . S
C1769 C1770 1.414 . S
C1769 C1772 1.499 . S
C1770 H1750 0.950 . S
C1770 C1769 1.414 . S
C1770 C1771 1.374 . S
C1771 H1751 0.950 . S
C1771 C1767 1.385 . S
C1771 C1770 1.374 . S
C1772 C1769 1.499 . S
C1772 C1773 1.373 . S
C1772 C1774 1.389 . S
C1773 H1752 0.950 . S
C1773 C1772 1.373 . S
C1773 C1789 1.377 . S
C1774 C1772 1.389 . S
C1774 C1775 1.524 . S
C1774 C1788 1.377 . S
C1775 C1774 1.524 . S
C1775 C1776 1.397 . S
C1775 C1780 1.363 . S
C1776 H1753 0.950 . S
C1776 C1775 1.397 . S
C1776 C1777 1.334 . S
C1777 H1754 0.950 . S
C1777 C1776 1.334 . S
C1777 C1778 1.287 . S
C1778 C1777 1.287 . S
C1778 C1779 1.524 . S
C1778 H1797 0.913 . S
C1779 H1755 0.950 . S
C1779 C1778 1.524 . S
C1779 C1780 1.415 . S
C1780 H1756 0.950 . S
C1780 C1775 1.363 . S
C1780 C1779 1.415 . S
C1781 H1757 0.951 . S
C1781 C1782 1.366 . S
C1781 C1783 1.388 . S
C1782 C1781 1.366 . S
C1782 C1786 1.385 . S
C1783 H1758 0.951 . S
C1783 C1781 1.388 . S
C1783 C1784 1.366 . S
C1784 C1783 1.366 . S
C1784 C1785 1.414 . S
C1784 C1787 1.499 . S
C1785 H1759 0.950 . S
C1785 C1784 1.414 . S
C1785 C1786 1.374 . S
C1786 H1760 0.950 . S
C1786 C1782 1.385 . S
C1786 C1785 1.374 . S
C1787 C1784 1.499 . S
C1787 C1788 1.373 . S
C1787 C1789 1.389 . S
C1788 H1761 0.950 . S
C1788 C1774 1.377 . S
C1788 C1787 1.373 . S
C1789 C1773 1.377 . S
C1789 C1787 1.389 . S
C1789 C1790 1.524 . S
C1790 C1789 1.524 . S
C1790 C1791 1.397 . S
C1790 C1795 1.363 . S
C1791 H1762 0.950 . S
C1791 C1790 1.397 . S
C1791 C1792 1.334 . S
C1792 H1763 0.950 . S
C1792 C1791 1.334 . S
C1792 C1793 1.287 . S
C1793 C1792 1.287 . S
C1793 C1794 1.524 . S
C1793 H1796 0.999 . S
C1794 H1764 0.950 . S
C1794 C1793 1.524 . S
C1794 C1795 1.415 . S
C1795 H1765 0.950 . S
C1795 C1790 1.363 . S
C1795 C1794 1.415 . S
H1796 C1793 0.999 . S
H1797 C1778 0.913 . S
H1798 C1816 0.951 . S
H1799 C1818 0.951 . S
H1800 C1820 0.950 . S
H1801 C1821 0.950 . S
H1802 C1823 0.950 . S
H1803 C1826 0.950 . S
H1804 C1827 0.950 . S
H1805 C1829 0.950 . S
H1806 C1830 0.950 . S
H1807 C1831 0.951 . S
H1808 C1833 0.951 . S
H1809 C1835 0.950 . S
H1810 C1836 0.950 . S
H1811 C1838 0.950 . S
H1812 C1841 0.950 . S
H1813 C1842 0.950 . S
H1814 C1844 0.950 . S
H1815 C1845 0.950 . S
C1816 H1798 0.951 . S
C1816 C1817 1.366 . S
C1816 C1818 1.388 . S
C1817 C1816 1.366 . S
C1817 C1821 1.385 . S
C1818 H1799 0.951 . S
C1818 C1816 1.388 . S
C1818 C1819 1.366 . S
C1819 C1818 1.366 . S
C1819 C1820 1.414 . S
C1819 C1822 1.499 . S
C1820 H1800 0.950 . S
C1820 C1819 1.414 . S
C1820 C1821 1.374 . S
C1821 H1801 0.950 . S
C1821 C1817 1.385 . S
C1821 C1820 1.374 . S
C1822 C1819 1.499 . S
C1822 C1823 1.373 . S
C1822 C1824 1.389 . S
C1823 H1802 0.950 . S
C1823 C1822 1.373 . S
C1823 C1839 1.377 . S
C1824 C1822 1.389 . S
C1824 C1825 1.524 . S
C1824 C1838 1.377 . S
C1825 C1824 1.524 . S
C1825 C1826 1.397 . S
C1825 C1830 1.363 . S
C1826 H1803 0.950 . S
C1826 C1825 1.397 . S
C1826 C1827 1.334 . S
C1827 H1804 0.950 . S
C1827 C1826 1.334 . S
C1827 C1828 1.287 . S
C1828 C1827 1.287 . S
C1828 C1829 1.524 . S
C1828 H1847 0.913 . S
C1829 H1805 0.950 . S
C1829 C1828 1.524 . S
C1829 C1830 1.415 . S
C1830 H1806 0.950 . S
C1830 C1825 1.363 . S
C1830 C1829 1.415 . S
C1831 H1807 0.951 . S
C1831 C1832 1.366 . S
C1831 C1833 1.388 . S
C1832 C1831 1.366 . S
C1832 C1836 1.385 . S
C1833 H1808 0.951 . S
C1833 C1831 1.388 . S
C1833 C1834 1.366 . S
C1834 C1833 1.366 . S
C1834 C1835 1.414 . S
C1834 C1837 1.499 . S
C1835 H1809 0.950 . S
C1835 C1834 1.414 . S
C1835 C1836 1.374 . S
C1836 H1810 0.950 . S
C1836 C1832 1.385 . S
C1836 C1835 1.374 . S
C1837 C1834 1.499 . S
C1837 C1838 1.373 . S
C1837 C1839 1.389 . S
C1838 H1811 0.950 . S
C1838 C1824 1.377 . S
C1838 C1837 1.373 . S
C1839 C1823 1.377 . S
C1839 C1837 1.389 . S
C1839 C1840 1.524 . S
C1840 C1839 1.524 . S
C1840 C1841 1.397 . S
C1840 C1845 1.363 . S
C1841 H1812 0.950 . S
C1841 C1840 1.397 . S
C1841 C1842 1.334 . S
C1842 H1813 0.950 . S
C1842 C1841 1.334 . S
C1842 C1843 1.287 . S
C1843 C1842 1.287 . S
C1843 C1844 1.524 . S
C1843 H1846 0.999 . S
C1844 H1814 0.950 . S
C1844 C1843 1.524 . S
C1844 C1845 1.415 . S
C1845 H1815 0.950 . S
C1845 C1840 1.363 . S
C1845 C1844 1.415 . S
H1846 C1843 0.999 . S
H1847 C1828 0.913 . S
H1848 C1866 0.951 . S
H1849 C1868 0.951 . S
H1850 C1870 0.950 . S
H1851 C1871 0.950 . S
H1852 C1873 0.950 . S
H1853 C1876 0.950 . S
H1854 C1877 0.950 . S
H1855 C1879 0.950 . S
H1856 C1880 0.950 . S
H1857 C1881 0.951 . S
H1858 C1883 0.951 . S
H1859 C1885 0.950 . S
H1860 C1886 0.950 . S
H1861 C1888 0.950 . S
H1862 C1891 0.950 . S
H1863 C1892 0.950 . S
H1864 C1894 0.950 . S
H1865 C1895 0.950 . S
C1866 H1848 0.951 . S
C1866 C1867 1.366 . S
C1866 C1868 1.388 . S
C1867 C1866 1.366 . S
C1867 C1871 1.385 . S
C1868 H1849 0.951 . S
C1868 C1866 1.388 . S
C1868 C1869 1.366 . S
C1869 C1868 1.366 . S
C1869 C1870 1.414 . S
C1869 C1872 1.499 . S
C1870 H1850 0.950 . S
C1870 C1869 1.414 . S
C1870 C1871 1.374 . S
C1871 H1851 0.950 . S
C1871 C1867 1.385 . S
C1871 C1870 1.374 . S
C1872 C1869 1.499 . S
C1872 C1873 1.373 . S
C1872 C1874 1.389 . S
C1873 H1852 0.950 . S
C1873 C1872 1.373 . S
C1873 C1889 1.377 . S
C1874 C1872 1.389 . S
C1874 C1875 1.524 . S
C1874 C1888 1.377 . S
C1875 C1874 1.524 . S
C1875 C1876 1.397 . S
C1875 C1880 1.363 . S
C1876 H1853 0.950 . S
C1876 C1875 1.397 . S
C1876 C1877 1.334 . S
C1877 H1854 0.950 . S
C1877 C1876 1.334 . S
C1877 C1878 1.287 . S
C1878 C1877 1.287 . S
C1878 C1879 1.524 . S
C1878 H1897 0.913 . S
C1879 H1855 0.950 . S
C1879 C1878 1.524 . S
C1879 C1880 1.415 . S
C1880 H1856 0.950 . S
C1880 C1875 1.363 . S
C1880 C1879 1.415 . S
C1881 H1857 0.951 . S
C1881 C1882 1.366 . S
C1881 C1883 1.388 . S
C1882 C1881 1.366 . S
C1882 C1886 1.385 . S
C1883 H1858 0.951 . S
C1883 C1881 1.388 . S
C1883 C1884 1.366 . S
C1884 C1883 1.366 . S
C1884 C1885 1.414 . S
C1884 C1887 1.499 . S
C1885 H1859 0.950 . S
C1885 C1884 1.414 . S
C1885 C1886 1.374 . S
C1886 H1860 0.950 . S
C1886 C1882 1.385 . S
C1886 C1885 1.374 . S
C1887 C1884 1.499 . S
C1887 C1888 1.373 . S
C1887 C1889 1.389 . S
C1888 H1861 0.950 . S
C1888 C1874 1.377 . S
C1888 C1887 1.373 . S
C1889 C1873 1.377 . S
C1889 C1887 1.389 . S
C1889 C1890 1.524 . S
C1890 C1889 1.524 . S
C1890 C1891 1.397 . S
C1890 C1895 1.363 . S
C1891 H1862 0.950 . S
C1891 C1890 1.397 . S
C1891 C1892 1.334 . S
C1892 H1863 0.950 . S
C1892 C1891 1.334 . S
C1892 C1893 1.287 . S
C1893 C1892 1.287 . S
C1893 C1894 1.524 . S
C1893 H1896 0.999 . S
C1894 H1864 0.950 . S
C1894 C1893 1.524 . S
C1894 C1895 1.415 . S
C1895 H1865 0.950 . S
C1895 C1890 1.363 . S
C1895 C1894 1.415 . S
H1896 C1893 0.999 . S
H1897 C1878 0.913 . S
H1898 C1916 0.951 . S
H1899 C1918 0.951 . S
H1900 C1920 0.950 . S
H1901 C1921 0.950 . S
H1902 C1923 0.950 . S
H1903 C1926 0.950 . S
H1904 C1927 0.950 . S
H1905 C1929 0.950 . S
H1906 C1930 0.950 . S
H1907 C1931 0.951 . S
H1908 C1933 0.951 . S
H1909 C1935 0.950 . S
H1910 C1936 0.950 . S
H1911 C1938 0.950 . S
H1912 C1941 0.950 . S
H1913 C1942 0.950 . S
H1914 C1944 0.950 . S
H1915 C1945 0.950 . S
C1916 H1898 0.951 . S
C1916 C1917 1.366 . S
C1916 C1918 1.388 . S
C1917 C1916 1.366 . S
C1917 C1921 1.385 . S
C1918 H1899 0.951 . S
C1918 C1916 1.388 . S
C1918 C1919 1.366 . S
C1919 C1918 1.366 . S
C1919 C1920 1.414 . S
C1919 C1922 1.499 . S
C1920 H1900 0.950 . S
C1920 C1919 1.414 . S
C1920 C1921 1.374 . S
C1921 H1901 0.950 . S
C1921 C1917 1.385 . S
C1921 C1920 1.374 . S
C1922 C1919 1.499 . S
C1922 C1923 1.373 . S
C1922 C1924 1.389 . S
C1923 H1902 0.950 . S
C1923 C1922 1.373 . S
C1923 C1939 1.377 . S
C1924 C1922 1.389 . S
C1924 C1925 1.524 . S
C1924 C1938 1.377 . S
C1925 C1924 1.524 . S
C1925 C1926 1.397 . S
C1925 C1930 1.363 . S
C1926 H1903 0.950 . S
C1926 C1925 1.397 . S
C1926 C1927 1.334 . S
C1927 H1904 0.950 . S
C1927 C1926 1.334 . S
C1927 C1928 1.287 . S
C1928 C1927 1.287 . S
C1928 C1929 1.524 . S
C1928 H1947 0.913 . S
C1929 H1905 0.950 . S
C1929 C1928 1.524 . S
C1929 C1930 1.415 . S
C1930 H1906 0.950 . S
C1930 C1925 1.363 . S
C1930 C1929 1.415 . S
C1931 H1907 0.951 . S
C1931 C1932 1.366 . S
C1931 C1933 1.388 . S
C1932 C1931 1.366 . S
C1932 C1936 1.385 . S
C1933 H1908 0.951 . S
C1933 C1931 1.388 . S
C1933 C1934 1.366 . S
C1934 C1933 1.366 . S
C1934 C1935 1.414 . S
C1934 C1937 1.499 . S
C1935 H1909 0.950 . S
C1935 C1934 1.414 . S
C1935 C1936 1.374 . S
C1936 H1910 0.950 . S
C1936 C1932 1.385 . S
C1936 C1935 1.374 . S
C1937 C1934 1.499 . S
C1937 C1938 1.373 . S
C1937 C1939 1.389 . S
C1938 H1911 0.950 . S
C1938 C1924 1.377 . S
C1938 C1937 1.373 . S
C1939 C1923 1.377 . S
C1939 C1937 1.389 . S
C1939 C1940 1.524 . S
C1940 C1939 1.524 . S
C1940 C1941 1.397 . S
C1940 C1945 1.363 . S
C1941 H1912 0.950 . S
C1941 C1940 1.397 . S
C1941 C1942 1.334 . S
C1942 H1913 0.950 . S
C1942 C1941 1.334 . S
C1942 C1943 1.287 . S
C1943 C1942 1.287 . S
C1943 C1944 1.524 . S
C1943 H1946 0.999 . S
C1944 H1914 0.950 . S
C1944 C1943 1.524 . S
C1944 C1945 1.415 . S
C1945 H1915 0.950 . S
C1945 C1940 1.363 . S
C1945 C1944 1.415 . S
H1946 C1943 0.999 . S
H1947 C1928 0.913 . S
H1948 C1966 0.951 . S
H1949 C1968 0.951 . S
H1950 C1970 0.950 . S
H1951 C1971 0.950 . S
H1952 C1973 0.950 . S
H1953 C1976 0.950 . S
H1954 C1977 0.950 . S
H1955 C1979 0.950 . S
H1956 C1980 0.950 1_565 S
H1957 C1981 0.951 . S
H1958 C1983 0.951 . S
H1959 C1985 0.950 . S
H1960 C1986 0.950 . S
H1961 C1988 0.950 . S
H1962 C1991 0.950 . S
H1963 C1992 0.950 . S
H1964 C1994 0.950 . S
H1965 C1995 0.950 . S
C1966 H1948 0.951 . S
C1966 C1967 1.366 . S
C1966 C1968 1.388 . S
C1967 C1966 1.366 . S
C1967 C1971 1.385 . S
C1968 H1949 0.951 . S
C1968 C1966 1.388 . S
C1968 C1969 1.366 . S
C1969 C1968 1.366 . S
C1969 C1970 1.414 . S
C1969 C1972 1.499 . S
C1970 H1950 0.950 . S
C1970 C1969 1.414 . S
C1970 C1971 1.374 . S
C1971 H1951 0.950 . S
C1971 C1967 1.385 . S
C1971 C1970 1.374 . S
C1972 C1969 1.499 . S
C1972 C1973 1.373 . S
C1972 C1974 1.389 . S
C1973 H1952 0.950 . S
C1973 C1972 1.373 . S
C1973 C1989 1.377 . S
C1974 C1972 1.389 . S
C1974 C1975 1.524 1_565 S
C1974 C1988 1.377 . S
C1975 C1974 1.524 1_545 S
C1975 C1976 1.397 . S
C1975 C1980 1.363 . S
C1976 H1953 0.950 . S
C1976 C1975 1.397 . S
C1976 C1977 1.334 . S
C1977 H1954 0.950 . S
C1977 C1976 1.334 . S
C1977 C1978 1.287 . S
C1978 C1977 1.287 . S
C1978 C1979 1.524 . S
C1978 H1997 0.913 . S
C1979 H1955 0.950 . S
C1979 C1978 1.524 . S
C1979 C1980 1.415 . S
C1980 H1956 0.950 1_545 S
C1980 C1975 1.363 . S
C1980 C1979 1.415 . S
C1981 H1957 0.951 . S
C1981 C1982 1.366 . S
C1981 C1983 1.388 . S
C1982 C1981 1.366 . S
C1982 C1986 1.385 . S
C1983 H1958 0.951 . S
C1983 C1981 1.388 . S
C1983 C1984 1.366 . S
C1984 C1983 1.366 . S
C1984 C1985 1.414 . S
C1984 C1987 1.499 . S
C1985 H1959 0.950 . S
C1985 C1984 1.414 . S
C1985 C1986 1.374 . S
C1986 H1960 0.950 . S
C1986 C1982 1.385 . S
C1986 C1985 1.374 . S
C1987 C1984 1.499 . S
C1987 C1988 1.373 . S
C1987 C1989 1.389 . S
C1988 H1961 0.950 . S
C1988 C1974 1.377 . S
C1988 C1987 1.373 . S
C1989 C1973 1.377 . S
C1989 C1987 1.389 . S
C1989 C1990 1.524 . S
C1990 C1989 1.524 . S
C1990 C1991 1.397 . S
C1990 C1995 1.363 . S
C1991 H1962 0.950 . S
C1991 C1990 1.397 . S
C1991 C1992 1.334 . S
C1992 H1963 0.950 . S
C1992 C1991 1.334 . S
C1992 C1993 1.287 . S
C1993 C1992 1.287 . S
C1993 C1994 1.524 . S
C1993 H1996 0.999 . S
C1994 H1964 0.950 . S
C1994 C1993 1.524 . S
C1994 C1995 1.415 . S
C1995 H1965 0.950 . S
C1995 C1990 1.363 . S
C1995 C1994 1.415 . S
H1996 C1993 0.999 . S
H1997 C1978 0.913 . S
H1998 C2016 0.951 . S
H1999 C2018 0.951 . S
H2000 C2020 0.954 . S
H2001 C2021 0.959 . S
H2002 C2023 0.950 1_655 S
H2003 C2026 0.950 . S
H2004 C2027 0.950 . S
H2005 C2029 0.950 . S
H2006 C2030 0.950 . S
H2007 C2031 0.965 . S
H2008 C2033 0.950 1_655 S
H2009 C2035 0.950 . S
H2010 C2036 0.950 . S
H2011 C2038 0.950 . S
H2012 C2041 0.950 . S
H2013 C2042 0.950 . S
H2014 C2044 0.950 . S
H2015 C2045 0.950 . S
C2016 H1998 0.951 . S
C2016 C2017 1.366 . S
C2016 C2018 1.388 . S
C2017 C2016 1.366 . S
C2017 C2021 1.385 . S
C2018 H1999 0.951 . S
C2018 C2016 1.388 . S
C2018 C2019 1.366 . S
C2019 C2018 1.366 . S
C2019 C2020 1.414 . S
C2019 C2022 1.499 . S
C2020 H2000 0.954 . S
C2020 C2019 1.414 . S
C2020 C2021 1.374 . S
C2021 H2001 0.959 . S
C2021 C2017 1.385 . S
C2021 C2020 1.374 . S
C2022 C2019 1.499 . S
C2022 C2023 1.373 . S
C2022 C2024 1.389 . S
C2023 H2002 0.950 1_455 S
C2023 C2022 1.373 . S
C2023 C2039 1.377 . S
C2024 C2022 1.389 . S
C2024 C2025 1.524 . S
C2024 C2038 1.377 . S
C2025 C2024 1.524 . S
C2025 C2026 1.397 . S
C2025 C2030 1.363 . S
C2026 H2003 0.950 . S
C2026 C2025 1.397 . S
C2026 C2027 1.334 . S
C2027 H2004 0.950 . S
C2027 C2026 1.334 . S
C2027 C2028 1.287 . S
C2028 C2027 1.287 . S
C2028 C2029 1.524 . S
C2028 H2047 0.913 . S
C2029 H2005 0.950 . S
C2029 C2028 1.524 . S
C2029 C2030 1.415 . S
C2030 H2006 0.950 . S
C2030 C2025 1.363 . S
C2030 C2029 1.415 . S
C2031 H2007 0.965 . S
C2031 C2032 1.366 . S
C2031 C2033 1.388 . S
C2032 C2031 1.366 . S
C2032 C2036 1.385 . S
C2033 H2008 0.950 1_455 S
C2033 C2031 1.388 . S
C2033 C2034 1.366 . S
C2034 C2033 1.366 . S
C2034 C2035 1.414 . S
C2034 C2037 1.499 . S
C2035 H2009 0.950 . S
C2035 C2034 1.414 . S
C2035 C2036 1.374 . S
C2036 H2010 0.950 . S
C2036 C2032 1.385 . S
C2036 C2035 1.374 . S
C2037 C2034 1.499 . S
C2037 C2038 1.373 . S
C2037 C2039 1.389 . S
C2038 H2011 0.950 . S
C2038 C2024 1.377 . S
C2038 C2037 1.373 . S
C2039 C2023 1.377 . S
C2039 C2037 1.389 . S
C2039 C2040 1.524 1_455 S
C2040 C2039 1.524 1_655 S
C2040 C2041 1.397 . S
C2040 C2045 1.363 . S
C2041 H2012 0.950 . S
C2041 C2040 1.397 . S
C2041 C2042 1.334 . S
C2042 H2013 0.950 . S
C2042 C2041 1.334 . S
C2042 C2043 1.287 . S
C2043 C2042 1.287 . S
C2043 C2044 1.524 . S
C2043 H2046 0.999 . S
C2044 H2014 0.950 . S
C2044 C2043 1.524 . S
C2044 C2045 1.415 . S
C2045 H2015 0.950 . S
C2045 C2040 1.363 . S
C2045 C2044 1.415 . S
H2046 C2043 0.999 . S
H2047 C2028 0.913 . S
H2048 C2066 0.951 . S
H2049 C2068 0.951 . S
H2050 C2070 0.950 . S
H2051 C2071 0.950 . S
H2052 C2073 0.950 . S
H2053 C2076 0.950 . S
H2054 C2077 0.950 . S
H2055 C2079 0.950 . S
H2056 C2080 0.950 . S
H2057 C2081 0.951 . S
H2058 C2083 0.951 . S
H2059 C2085 0.950 . S
H2060 C2086 0.950 . S
H2061 C2088 0.950 . S
H2062 C2091 0.950 . S
H2063 C2092 0.950 . S
H2064 C2094 0.950 . S
H2065 C2095 0.950 . S
C2066 H2048 0.951 . S
C2066 C2067 1.366 . S
C2066 C2068 1.388 . S
C2067 C2066 1.366 . S
C2067 C2071 1.385 . S
C2068 H2049 0.951 . S
C2068 C2066 1.388 . S
C2068 C2069 1.366 . S
C2069 C2068 1.366 . S
C2069 C2070 1.414 . S
C2069 C2072 1.499 . S
C2070 H2050 0.950 . S
C2070 C2069 1.414 . S
C2070 C2071 1.374 . S
C2071 H2051 0.950 . S
C2071 C2067 1.385 . S
C2071 C2070 1.374 . S
C2072 C2069 1.499 . S
C2072 C2073 1.373 . S
C2072 C2074 1.389 . S
C2073 H2052 0.950 . S
C2073 C2072 1.373 . S
C2073 C2089 1.377 . S
C2074 C2072 1.389 . S
C2074 C2075 1.524 . S
C2074 C2088 1.377 . S
C2075 C2074 1.524 . S
C2075 C2076 1.397 . S
C2075 C2080 1.363 . S
C2076 H2053 0.950 . S
C2076 C2075 1.397 . S
C2076 C2077 1.334 . S
C2077 H2054 0.950 . S
C2077 C2076 1.334 . S
C2077 C2078 1.287 . S
C2078 C2077 1.287 . S
C2078 C2079 1.524 . S
C2078 H2097 0.913 . S
C2079 H2055 0.950 . S
C2079 C2078 1.524 . S
C2079 C2080 1.415 . S
C2080 H2056 0.950 . S
C2080 C2075 1.363 . S
C2080 C2079 1.415 . S
C2081 H2057 0.951 . S
C2081 C2082 1.366 . S
C2081 C2083 1.388 . S
C2082 C2081 1.366 . S
C2082 C2086 1.385 . S
C2083 H2058 0.951 . S
C2083 C2081 1.388 . S
C2083 C2084 1.366 . S
C2084 C2083 1.366 . S
C2084 C2085 1.414 . S
C2084 C2087 1.499 . S
C2085 H2059 0.950 . S
C2085 C2084 1.414 . S
C2085 C2086 1.374 . S
C2086 H2060 0.950 . S
C2086 C2082 1.385 . S
C2086 C2085 1.374 . S
C2087 C2084 1.499 . S
C2087 C2088 1.373 . S
C2087 C2089 1.389 . S
C2088 H2061 0.950 . S
C2088 C2074 1.377 . S
C2088 C2087 1.373 . S
C2089 C2073 1.377 . S
C2089 C2087 1.389 . S
C2089 C2090 1.524 . S
C2090 C2089 1.524 . S
C2090 C2091 1.397 . S
C2090 C2095 1.363 . S
C2091 H2062 0.950 . S
C2091 C2090 1.397 . S
C2091 C2092 1.334 . S
C2092 H2063 0.950 . S
C2092 C2091 1.334 . S
C2092 C2093 1.287 . S
C2093 C2092 1.287 . S
C2093 C2094 1.524 . S
C2093 H2096 0.999 . S
C2094 H2064 0.950 . S
C2094 C2093 1.524 . S
C2094 C2095 1.415 . S
C2095 H2065 0.950 . S
C2095 C2090 1.363 . S
C2095 C2094 1.415 . S
H2096 C2093 0.999 . S
H2097 C2078 0.913 . S
H2098 C2116 0.951 . S
H2099 C2118 0.951 . S
H2100 C2120 0.950 . S
H2101 C2121 0.950 . S
H2102 C2123 0.950 . S
H2103 C2126 0.950 . S
H2104 C2127 0.950 . S
H2105 C2129 0.950 . S
H2106 C2130 0.950 . S
H2107 C2131 0.951 . S
H2108 C2133 0.951 . S
H2109 C2135 0.950 . S
H2110 C2136 0.950 . S
H2111 C2138 0.950 . S
H2112 C2141 0.950 . S
H2113 C2142 0.950 . S
H2114 C2144 0.950 . S
H2115 C2145 0.950 . S
C2116 H2098 0.951 . S
C2116 C2117 1.366 . S
C2116 C2118 1.388 . S
C2117 C2116 1.366 . S
C2117 C2121 1.385 . S
C2118 H2099 0.951 . S
C2118 C2116 1.388 . S
C2118 C2119 1.366 . S
C2119 C2118 1.366 . S
C2119 C2120 1.414 . S
C2119 C2122 1.499 . S
C2120 H2100 0.950 . S
C2120 C2119 1.414 . S
C2120 C2121 1.374 . S
C2121 H2101 0.950 . S
C2121 C2117 1.385 . S
C2121 C2120 1.374 . S
C2122 C2119 1.499 . S
C2122 C2123 1.373 . S
C2122 C2124 1.389 . S
C2123 H2102 0.950 . S
C2123 C2122 1.373 . S
C2123 C2139 1.377 . S
C2124 C2122 1.389 . S
C2124 C2125 1.524 . S
C2124 C2138 1.377 . S
C2125 C2124 1.524 . S
C2125 C2126 1.397 . S
C2125 C2130 1.363 . S
C2126 H2103 0.950 . S
C2126 C2125 1.397 . S
C2126 C2127 1.334 . S
C2127 H2104 0.950 . S
C2127 C2126 1.334 . S
C2127 C2128 1.287 . S
C2128 C2127 1.287 . S
C2128 C2129 1.524 . S
C2128 H2147 0.913 . S
C2129 H2105 0.950 . S
C2129 C2128 1.524 . S
C2129 C2130 1.415 . S
C2130 H2106 0.950 . S
C2130 C2125 1.363 . S
C2130 C2129 1.415 . S
C2131 H2107 0.951 . S
C2131 C2132 1.366 . S
C2131 C2133 1.388 . S
C2132 C2131 1.366 . S
C2132 C2136 1.385 . S
C2133 H2108 0.951 . S
C2133 C2131 1.388 . S
C2133 C2134 1.366 . S
C2134 C2133 1.366 . S
C2134 C2135 1.414 . S
C2134 C2137 1.499 . S
C2135 H2109 0.950 . S
C2135 C2134 1.414 . S
C2135 C2136 1.374 . S
C2136 H2110 0.950 . S
C2136 C2132 1.385 . S
C2136 C2135 1.374 . S
C2137 C2134 1.499 . S
C2137 C2138 1.373 . S
C2137 C2139 1.389 . S
C2138 H2111 0.950 . S
C2138 C2124 1.377 . S
C2138 C2137 1.373 . S
C2139 C2123 1.377 . S
C2139 C2137 1.389 . S
C2139 C2140 1.524 . S
C2140 C2139 1.524 . S
C2140 C2141 1.397 . S
C2140 C2145 1.363 . S
C2141 H2112 0.950 . S
C2141 C2140 1.397 . S
C2141 C2142 1.334 . S
C2142 H2113 0.950 . S
C2142 C2141 1.334 . S
C2142 C2143 1.287 . S
C2143 C2142 1.287 . S
C2143 C2144 1.524 . S
C2143 H2146 0.999 . S
C2144 H2114 0.950 . S
C2144 C2143 1.524 . S
C2144 C2145 1.415 . S
C2145 H2115 0.950 . S
C2145 C2140 1.363 . S
C2145 C2144 1.415 . S
H2146 C2143 0.999 . S
H2147 C2128 0.913 . S
H2148 C2166 0.951 . S
H2149 C2168 0.951 . S
H2150 C2170 0.950 . S
H2151 C2171 0.950 . S
H2152 C2173 0.950 . S
H2153 C2176 0.950 . S
H2154 C2177 0.950 . S
H2155 C2179 0.950 . S
H2156 C2180 0.950 . S
H2157 C2181 0.951 . S
H2158 C2183 0.951 . S
H2159 C2185 0.950 . S
H2160 C2186 0.950 . S
H2161 C2188 0.950 . S
H2162 C2191 0.950 . S
H2163 C2192 0.950 . S
H2164 C2194 0.950 . S
H2165 C2195 0.950 . S
C2166 H2148 0.951 . S
C2166 C2167 1.366 . S
C2166 C2168 1.388 . S
C2167 C2166 1.366 . S
C2167 C2171 1.385 . S
C2168 H2149 0.951 . S
C2168 C2166 1.388 . S
C2168 C2169 1.366 . S
C2169 C2168 1.366 . S
C2169 C2170 1.414 . S
C2169 C2172 1.499 . S
C2170 H2150 0.950 . S
C2170 C2169 1.414 . S
C2170 C2171 1.374 . S
C2171 H2151 0.950 . S
C2171 C2167 1.385 . S
C2171 C2170 1.374 . S
C2172 C2169 1.499 . S
C2172 C2173 1.373 . S
C2172 C2174 1.389 . S
C2173 H2152 0.950 . S
C2173 C2172 1.373 . S
C2173 C2189 1.377 . S
C2174 C2172 1.389 . S
C2174 C2175 1.524 . S
C2174 C2188 1.377 . S
C2175 C2174 1.524 . S
C2175 C2176 1.397 . S
C2175 C2180 1.363 . S
C2176 H2153 0.950 . S
C2176 C2175 1.397 . S
C2176 C2177 1.334 . S
C2177 H2154 0.950 . S
C2177 C2176 1.334 . S
C2177 C2178 1.287 . S
C2178 C2177 1.287 . S
C2178 C2179 1.524 . S
C2178 H2197 0.913 . S
C2179 H2155 0.950 . S
C2179 C2178 1.524 . S
C2179 C2180 1.415 . S
C2180 H2156 0.950 . S
C2180 C2175 1.363 . S
C2180 C2179 1.415 . S
C2181 H2157 0.951 . S
C2181 C2182 1.366 . S
C2181 C2183 1.388 . S
C2182 C2181 1.366 . S
C2182 C2186 1.385 . S
C2183 H2158 0.951 . S
C2183 C2181 1.388 . S
C2183 C2184 1.366 . S
C2184 C2183 1.366 . S
C2184 C2185 1.414 . S
C2184 C2187 1.499 . S
C2185 H2159 0.950 . S
C2185 C2184 1.414 . S
C2185 C2186 1.374 . S
C2186 H2160 0.950 . S
C2186 C2182 1.385 . S
C2186 C2185 1.374 . S
C2187 C2184 1.499 . S
C2187 C2188 1.373 . S
C2187 C2189 1.389 . S
C2188 H2161 0.950 . S
C2188 C2174 1.377 . S
C2188 C2187 1.373 . S
C2189 C2173 1.377 . S
C2189 C2187 1.389 . S
C2189 C2190 1.524 . S
C2190 C2189 1.524 . S
C2190 C2191 1.397 . S
C2190 C2195 1.363 . S
C2191 H2162 0.950 . S
C2191 C2190 1.397 . S
C2191 C2192 1.334 . S
C2192 H2163 0.950 . S
C2192 C2191 1.334 . S
C2192 C2193 1.287 . S
C2193 C2192 1.287 . S
C2193 C2194 1.524 . S
C2193 H2196 0.999 . S
C2194 H2164 0.950 . S
C2194 C2193 1.524 . S
C2194 C2195 1.415 . S
C2195 H2165 0.950 . S
C2195 C2190 1.363 . S
C2195 C2194 1.415 . S
H2196 C2193 0.999 . S
H2197 C2178 0.913 . S
H2198 C2216 0.951 . S
H2199 C2218 0.951 . S
H2200 C2220 0.950 . S
H2201 C2221 0.950 . S
H2202 C2223 0.950 . S
H2203 C2226 0.950 . S
H2204 C2227 0.950 . S
H2205 C2229 0.950 . S
H2206 C2230 0.950 . S
H2207 C2231 0.951 . S
H2208 C2233 0.951 . S
H2209 C2235 0.950 . S
H2210 C2236 0.950 . S
H2211 C2238 0.950 . S
H2212 C2241 0.950 . S
H2213 C2242 0.950 . S
H2214 C2244 0.950 . S
H2215 C2245 0.950 . S
C2216 H2198 0.951 . S
C2216 C2217 1.366 . S
C2216 C2218 1.388 . S
C2217 C2216 1.366 . S
C2217 C2221 1.385 . S
C2218 H2199 0.951 . S
C2218 C2216 1.388 . S
C2218 C2219 1.366 . S
C2219 C2218 1.366 . S
C2219 C2220 1.414 . S
C2219 C2222 1.499 . S
C2220 H2200 0.950 . S
C2220 C2219 1.414 . S
C2220 C2221 1.374 . S
C2221 H2201 0.950 . S
C2221 C2217 1.385 . S
C2221 C2220 1.374 . S
C2222 C2219 1.499 . S
C2222 C2223 1.373 . S
C2222 C2224 1.389 . S
C2223 H2202 0.950 . S
C2223 C2222 1.373 . S
C2223 C2239 1.377 1_556 S
C2224 C2222 1.389 . S
C2224 C2225 1.524 . S
C2224 C2238 1.377 . S
C2225 C2224 1.524 . S
C2225 C2226 1.397 . S
C2225 C2230 1.363 . S
C2226 H2203 0.950 . S
C2226 C2225 1.397 . S
C2226 C2227 1.334 . S
C2227 H2204 0.950 . S
C2227 C2226 1.334 . S
C2227 C2228 1.287 . S
C2228 C2227 1.287 . S
C2228 C2229 1.524 . S
C2228 H2247 0.913 . S
C2229 H2205 0.950 . S
C2229 C2228 1.524 . S
C2229 C2230 1.415 . S
C2230 H2206 0.950 . S
C2230 C2225 1.363 . S
C2230 C2229 1.415 . S
C2231 H2207 0.951 . S
C2231 C2232 1.366 . S
C2231 C2233 1.388 . S
C2232 C2231 1.366 . S
C2232 C2236 1.385 . S
C2233 H2208 0.951 . S
C2233 C2231 1.388 . S
C2233 C2234 1.366 . S
C2234 C2233 1.366 . S
C2234 C2235 1.414 . S
C2234 C2237 1.499 . S
C2235 H2209 0.950 . S
C2235 C2234 1.414 . S
C2235 C2236 1.374 . S
C2236 H2210 0.950 . S
C2236 C2232 1.385 . S
C2236 C2235 1.374 . S
C2237 C2234 1.499 . S
C2237 C2238 1.373 1_554 S
C2237 C2239 1.389 . S
C2238 H2211 0.950 . S
C2238 C2224 1.377 . S
C2238 C2237 1.373 1_556 S
C2239 C2223 1.377 1_554 S
C2239 C2237 1.389 . S
C2239 C2240 1.524 . S
C2240 C2239 1.524 . S
C2240 C2241 1.397 . S
C2240 C2245 1.363 . S
C2241 H2212 0.950 . S
C2241 C2240 1.397 . S
C2241 C2242 1.334 . S
C2242 H2213 0.950 . S
C2242 C2241 1.334 . S
C2242 C2243 1.287 . S
C2243 C2242 1.287 . S
C2243 C2244 1.524 . S
C2243 H2246 0.999 . S
C2244 H2214 0.950 . S
C2244 C2243 1.524 . S
C2244 C2245 1.415 . S
C2245 H2215 0.950 . S
C2245 C2240 1.363 . S
C2245 C2244 1.415 . S
H2246 C2243 0.999 . S
H2247 C2228 0.913 . S
H2248 C2266 0.951 . S
H2249 C2268 0.951 . S
H2250 C2270 0.950 . S
H2251 C2271 0.950 . S
H2252 C2273 0.950 . S
H2253 C2276 0.950 1_554 S
H2254 C2277 0.950 1_554 S
H2255 C2279 0.950 . S
H2256 C2280 0.950 . S
H2257 C2281 0.951 . S
H2258 C2283 0.951 . S
H2259 C2285 0.950 . S
H2260 C2286 0.950 . S
H2261 C2288 0.950 . S
H2262 C2291 0.950 . S
H2263 C2292 0.950 . S
H2264 C2294 0.950 . S
H2265 C2295 0.950 . S
C2266 H2248 0.951 . S
C2266 C2267 1.366 . S
C2266 C2268 1.388 . S
C2267 C2266 1.366 . S
C2267 C2271 1.385 . S
C2268 H2249 0.951 . S
C2268 C2266 1.388 . S
C2268 C2269 1.366 . S
C2269 C2268 1.366 . S
C2269 C2270 1.414 . S
C2269 C2272 1.499 . S
C2270 H2250 0.950 . S
C2270 C2269 1.414 . S
C2270 C2271 1.374 . S
C2271 H2251 0.950 . S
C2271 C2267 1.385 . S
C2271 C2270 1.374 . S
C2272 C2269 1.499 . S
C2272 C2273 1.373 . S
C2272 C2274 1.389 1_554 S
C2273 H2252 0.950 . S
C2273 C2272 1.373 . S
C2273 C2289 1.377 1_554 S
C2274 C2272 1.389 1_556 S
C2274 C2275 1.524 . S
C2274 C2288 1.377 . S
C2275 C2274 1.524 . S
C2275 C2276 1.397 . S
C2275 C2280 1.363 . S
C2276 H2253 0.950 1_556 S
C2276 C2275 1.397 . S
C2276 C2277 1.334 . S
C2277 H2254 0.950 1_556 S
C2277 C2276 1.334 . S
C2277 C2278 1.287 . S
C2278 C2277 1.287 . S
C2278 C2279 1.524 . S
C2278 H2297 0.913 . S
C2279 H2255 0.950 . S
C2279 C2278 1.524 . S
C2279 C2280 1.415 . S
C2280 H2256 0.950 . S
C2280 C2275 1.363 . S
C2280 C2279 1.415 . S
C2281 H2257 0.951 . S
C2281 C2282 1.366 . S
C2281 C2283 1.388 . S
C2282 C2281 1.366 . S
C2282 C2286 1.385 . S
C2283 H2258 0.951 . S
C2283 C2281 1.388 . S
C2283 C2284 1.366 . S
C2284 C2283 1.366 . S
C2284 C2285 1.414 . S
C2284 C2287 1.499 . S
C2285 H2259 0.950 . S
C2285 C2284 1.414 . S
C2285 C2286 1.374 . S
C2286 H2260 0.950 . S
C2286 C2282 1.385 . S
C2286 C2285 1.374 . S
C2287 C2284 1.499 . S
C2287 C2288 1.373 . S
C2287 C2289 1.389 . S
C2288 H2261 0.950 . S
C2288 C2274 1.377 . S
C2288 C2287 1.373 . S
C2289 C2273 1.377 1_556 S
C2289 C2287 1.389 . S
C2289 C2290 1.524 . S
C2290 C2289 1.524 . S
C2290 C2291 1.397 . S
C2290 C2295 1.363 1_556 S
C2291 H2262 0.950 . S
C2291 C2290 1.397 . S
C2291 C2292 1.334 . S
C2292 H2263 0.950 . S
C2292 C2291 1.334 . S
C2292 C2293 1.287 . S
C2293 C2292 1.287 . S
C2293 C2294 1.524 1_556 S
C2293 H2296 1.001 . S
C2294 H2264 0.950 . S
C2294 C2293 1.524 1_554 S
C2294 C2295 1.415 . S
C2295 H2265 0.950 . S
C2295 C2290 1.363 1_554 S
C2295 C2294 1.415 . S
H2296 C2293 1.001 . S
H2297 C2278 0.913 . S
H2298 C2316 0.951 . S
H2299 C2318 0.951 . S
H2300 C2320 0.950 . S
H2301 C2321 0.950 . S
H2302 C2323 0.950 . S
H2303 C2326 0.950 . S
H2304 C2327 0.950 . S
H2305 C2329 0.950 . S
H2306 C2330 0.950 . S
H2307 C2331 0.951 . S
H2308 C2333 0.951 . S
H2309 C2335 0.950 . S
H2310 C2336 0.950 . S
H2311 C2338 0.950 . S
H2312 C2341 0.950 . S
H2313 C2342 0.950 . S
H2314 C2344 0.950 . S
H2315 C2345 0.950 . S
C2316 H2298 0.951 . S
C2316 C2317 1.366 . S
C2316 C2318 1.388 . S
C2317 C2316 1.366 . S
C2317 C2321 1.385 . S
C2318 H2299 0.951 . S
C2318 C2316 1.388 . S
C2318 C2319 1.366 . S
C2319 C2318 1.366 . S
C2319 C2320 1.414 . S
C2319 C2322 1.499 . S
C2320 H2300 0.950 . S
C2320 C2319 1.414 . S
C2320 C2321 1.374 . S
C2321 H2301 0.950 . S
C2321 C2317 1.385 . S
C2321 C2320 1.374 . S
C2322 C2319 1.499 . S
C2322 C2323 1.373 . S
C2322 C2324 1.389 . S
C2323 H2302 0.950 . S
C2323 C2322 1.373 . S
C2323 C2339 1.377 . S
C2324 C2322 1.389 . S
C2324 C2325 1.524 . S
C2324 C2338 1.377 . S
C2325 C2324 1.524 . S
C2325 C2326 1.397 . S
C2325 C2330 1.363 . S
C2326 H2303 0.950 . S
C2326 C2325 1.397 . S
C2326 C2327 1.334 . S
C2327 H2304 0.950 . S
C2327 C2326 1.334 . S
C2327 C2328 1.287 . S
C2328 C2327 1.287 . S
C2328 C2329 1.524 . S
C2328 H2347 0.913 . S
C2329 H2305 0.950 . S
C2329 C2328 1.524 . S
C2329 C2330 1.415 . S
C2330 H2306 0.950 . S
C2330 C2325 1.363 . S
C2330 C2329 1.415 . S
C2331 H2307 0.951 . S
C2331 C2332 1.366 . S
C2331 C2333 1.388 . S
C2332 C2331 1.366 . S
C2332 C2336 1.385 . S
C2333 H2308 0.951 . S
C2333 C2331 1.388 . S
C2333 C2334 1.366 . S
C2334 C2333 1.366 . S
C2334 C2335 1.414 . S
C2334 C2337 1.499 . S
C2335 H2309 0.950 . S
C2335 C2334 1.414 . S
C2335 C2336 1.374 . S
C2336 H2310 0.950 . S
C2336 C2332 1.385 . S
C2336 C2335 1.374 . S
C2337 C2334 1.499 . S
C2337 C2338 1.373 . S
C2337 C2339 1.389 . S
C2338 H2311 0.950 . S
C2338 C2324 1.377 . S
C2338 C2337 1.373 . S
C2339 C2323 1.377 . S
C2339 C2337 1.389 . S
C2339 C2340 1.524 . S
C2340 C2339 1.524 . S
C2340 C2341 1.397 . S
C2340 C2345 1.363 . S
C2341 H2312 0.950 . S
C2341 C2340 1.397 . S
C2341 C2342 1.334 . S
C2342 H2313 0.950 . S
C2342 C2341 1.334 . S
C2342 C2343 1.287 . S
C2343 C2342 1.287 . S
C2343 C2344 1.524 . S
C2343 H2346 0.999 . S
C2344 H2314 0.950 . S
C2344 C2343 1.524 . S
C2344 C2345 1.415 . S
C2345 H2315 0.950 . S
C2345 C2340 1.363 . S
C2345 C2344 1.415 . S
H2346 C2343 0.999 . S
H2347 C2328 0.913 . S
H2348 C2366 0.951 . S
H2349 C2368 0.951 . S
H2350 C2370 0.950 . S
H2351 C2371 0.950 . S
H2352 C2373 0.950 . S
H2353 C2376 0.950 . S
H2354 C2377 0.950 . S
H2355 C2379 0.950 . S
H2356 C2380 0.950 . S
H2357 C2381 0.951 . S
H2358 C2383 0.951 . S
H2359 C2385 0.950 . S
H2360 C2386 0.950 . S
H2361 C2388 0.950 . S
H2362 C2391 0.950 . S
H2363 C2392 0.950 . S
H2364 C2394 0.950 . S
H2365 C2395 0.950 . S
C2366 H2348 0.951 . S
C2366 C2367 1.366 . S
C2366 C2368 1.388 . S
C2367 C2366 1.366 . S
C2367 C2371 1.385 . S
C2368 H2349 0.951 . S
C2368 C2366 1.388 . S
C2368 C2369 1.366 . S
C2369 C2368 1.366 . S
C2369 C2370 1.414 . S
C2369 C2372 1.499 . S
C2370 H2350 0.950 . S
C2370 C2369 1.414 . S
C2370 C2371 1.374 . S
C2371 H2351 0.950 . S
C2371 C2367 1.385 . S
C2371 C2370 1.374 . S
C2372 C2369 1.499 . S
C2372 C2373 1.373 . S
C2372 C2374 1.389 . S
C2373 H2352 0.950 . S
C2373 C2372 1.373 . S
C2373 C2389 1.377 . S
C2374 C2372 1.389 . S
C2374 C2375 1.524 . S
C2374 C2388 1.377 . S
C2375 C2374 1.524 . S
C2375 C2376 1.397 . S
C2375 C2380 1.363 . S
C2376 H2353 0.950 . S
C2376 C2375 1.397 . S
C2376 C2377 1.334 . S
C2377 H2354 0.950 . S
C2377 C2376 1.334 . S
C2377 C2378 1.287 . S
C2378 C2377 1.287 . S
C2378 C2379 1.524 . S
C2378 H2397 0.913 . S
C2379 H2355 0.950 . S
C2379 C2378 1.524 . S
C2379 C2380 1.415 . S
C2380 H2356 0.950 . S
C2380 C2375 1.363 . S
C2380 C2379 1.415 . S
C2381 H2357 0.951 . S
C2381 C2382 1.366 . S
C2381 C2383 1.388 . S
C2382 C2381 1.366 . S
C2382 C2386 1.385 . S
C2383 H2358 0.951 . S
C2383 C2381 1.388 . S
C2383 C2384 1.366 . S
C2384 C2383 1.366 . S
C2384 C2385 1.414 . S
C2384 C2387 1.499 . S
C2385 H2359 0.950 . S
C2385 C2384 1.414 . S
C2385 C2386 1.374 . S
C2386 H2360 0.950 . S
C2386 C2382 1.385 . S
C2386 C2385 1.374 . S
C2387 C2384 1.499 . S
C2387 C2388 1.373 . S
C2387 C2389 1.389 . S
C2388 H2361 0.950 . S
C2388 C2374 1.377 . S
C2388 C2387 1.373 . S
C2389 C2373 1.377 . S
C2389 C2387 1.389 . S
C2389 C2390 1.524 . S
C2390 C2389 1.524 . S
C2390 C2391 1.397 . S
C2390 C2395 1.363 . S
C2391 H2362 0.950 . S
C2391 C2390 1.397 . S
C2391 C2392 1.334 . S
C2392 H2363 0.950 . S
C2392 C2391 1.334 . S
C2392 C2393 1.287 . S
C2393 C2392 1.287 . S
C2393 C2394 1.524 . S
C2393 H2396 0.999 . S
C2394 H2364 0.950 . S
C2394 C2393 1.524 . S
C2394 C2395 1.415 . S
C2395 H2365 0.950 . S
C2395 C2390 1.363 . S
C2395 C2394 1.415 . S
H2396 C2393 0.999 . S
H2397 C2378 0.913 . S
H2398 C2416 0.951 . S
H2399 C2418 0.951 . S
H2400 C2420 0.950 . S
H2401 C2421 0.950 . S
H2402 C2423 0.950 . S
H2403 C2426 0.950 . S
H2404 C2427 0.950 1_455 S
H2405 C2429 0.950 . S
H2406 C2430 0.950 . S
H2407 C2431 0.951 . S
H2408 C2433 0.951 . S
H2409 C2435 0.950 . S
H2410 C2436 0.950 . S
H2411 C2438 0.950 . S
H2412 C2441 0.950 . S
H2413 C2442 0.950 . S
H2414 C2444 0.950 . S
H2415 C2445 0.950 . S
C2416 H2398 0.951 . S
C2416 C2417 1.366 . S
C2416 C2418 1.388 . S
C2417 C2416 1.366 . S
C2417 C2421 1.385 . S
C2418 H2399 0.951 . S
C2418 C2416 1.388 . S
C2418 C2419 1.366 . S
C2419 C2418 1.366 . S
C2419 C2420 1.414 . S
C2419 C2422 1.499 . S
C2420 H2400 0.950 . S
C2420 C2419 1.414 . S
C2420 C2421 1.374 . S
C2421 H2401 0.950 . S
C2421 C2417 1.385 . S
C2421 C2420 1.374 . S
C2422 C2419 1.499 . S
C2422 C2423 1.373 . S
C2422 C2424 1.389 . S
C2423 H2402 0.950 . S
C2423 C2422 1.373 . S
C2423 C2439 1.377 . S
C2424 C2422 1.389 . S
C2424 C2425 1.524 . S
C2424 C2438 1.377 . S
C2425 C2424 1.524 . S
C2425 C2426 1.397 . S
C2425 C2430 1.363 . S
C2426 H2403 0.950 . S
C2426 C2425 1.397 . S
C2426 C2427 1.334 . S
C2427 H2404 0.950 1_655 S
C2427 C2426 1.334 . S
C2427 C2428 1.287 1_655 S
C2428 C2427 1.287 1_455 S
C2428 C2429 1.524 1_455 S
C2428 H2447 0.913 . S
C2429 H2405 0.950 . S
C2429 C2428 1.524 1_655 S
C2429 C2430 1.415 . S
C2430 H2406 0.950 . S
C2430 C2425 1.363 . S
C2430 C2429 1.415 . S
C2431 H2407 0.951 . S
C2431 C2432 1.366 . S
C2431 C2433 1.388 . S
C2432 C2431 1.366 . S
C2432 C2436 1.385 . S
C2433 H2408 0.951 . S
C2433 C2431 1.388 . S
C2433 C2434 1.366 . S
C2434 C2433 1.366 . S
C2434 C2435 1.414 . S
C2434 C2437 1.499 . S
C2435 H2409 0.950 . S
C2435 C2434 1.414 . S
C2435 C2436 1.374 . S
C2436 H2410 0.950 . S
C2436 C2432 1.385 . S
C2436 C2435 1.374 . S
C2437 C2434 1.499 . S
C2437 C2438 1.373 . S
C2437 C2439 1.389 . S
C2438 H2411 0.950 . S
C2438 C2424 1.377 . S
C2438 C2437 1.373 . S
C2439 C2423 1.377 . S
C2439 C2437 1.389 . S
C2439 C2440 1.524 . S
C2440 C2439 1.524 . S
C2440 C2441 1.397 . S
C2440 C2445 1.363 . S
C2441 H2412 0.950 . S
C2441 C2440 1.397 . S
C2441 C2442 1.334 . S
C2442 H2413 0.950 . S
C2442 C2441 1.334 . S
C2442 C2443 1.287 . S
C2443 C2442 1.287 . S
C2443 C2444 1.524 . S
C2443 H2446 0.999 . S
C2444 H2414 0.950 . S
C2444 C2443 1.524 . S
C2444 C2445 1.415 . S
C2445 H2415 0.950 . S
C2445 C2440 1.363 . S
C2445 C2444 1.415 . S
H2446 C2443 0.999 . S
H2447 C2428 0.913 . S
C867 C569 2.487 . S
C882 C39 2.487 . S
C917 C75 2.266 . S
C932 C605 2.266 . S
C967 C463 2.488 . S
C982 C145 2.488 . S
C1017 C499 2.266 . S
C1032 C181 2.266 . S
C1067 C251 2.489 . S
C1082 C781 2.488 . S
C1117 C817 2.264 . S
C1132 C287 2.264 . S
C1167 C357 2.489 . S
C1182 C675 2.488 . S
C1217 C711 2.264 . S
C1232 C393 2.264 . S
C1267 C568 1.086 . S
C1282 C38 1.086 . S
C1317 C82 0.844 . S
C1332 C612 0.844 . S
C1367 C144 1.087 . S
C1382 C462 1.087 . S
C1417 C188 0.844 . S
C1432 C506 0.844 . S
C1467 C250 1.087 . S
C1482 C780 1.087 . S
C1517 C294 0.844 . S
C1532 C824 0.844 . S
C1567 C674 1.086 . S
C1582 C356 1.086 . S
C1617 C718 0.844 . S
C1632 C400 0.844 . S
C1667 C22 1.924 . S
C1682 C340 1.923 . S
C1717 C92 1.839 . S
C1732 C410 1.840 . S
C1767 C128 1.924 . S
C1782 C234 1.924 . S
C1817 C198 1.839 . S
C1832 C304 1.840 . S
C1867 C446 1.924 . S
C1882 C764 1.924 . S
C1917 C834 1.839 . S
C1932 C516 1.839 . S
C1967 C552 1.924 . S
C1982 C658 1.924 . S
C2017 C728 1.840 . S
C2032 C622 1.839 . S
C2067 C29 1.919 . S
C2082 C833 1.924 . S
C2117 C665 1.919 . S
C2132 C91 1.924 . S
C2167 C727 1.924 . S
C2182 C135 1.918 . S
C2217 C771 1.919 . S
C2232 C197 1.924 . S
C2267 C515 1.923 . S
C2282 C241 1.918 . S
C2317 C559 1.919 . S
C2332 C303 1.924 . S
C2367 C347 1.918 . S
C2382 C621 1.923 . S
C2417 C409 1.923 . S
C2432 C453 1.918 . S
