# Generated by pormake.
# Topology acs-f, (3)-cn, num edge types: 1
# Building blocks:
#     Node 0, Type 0, BuildingBlock: OLANEW_clean_sbu_2, # of connection points: 3
#     Node 1, Type 0, BuildingBlock: OLANEW_clean_sbu_2, # of connection points: 3
#     Node 2, Type 0, BuildingBlock: OLANEW_clean_sbu_2, # of connection points: 3
#     Node 3, Type 0, BuildingBlock: OLANEW_clean_sbu_2, # of connection points: 3
#     Node 4, Type 0, BuildingBlock: OLANEW_clean_sbu_2, # of connection points: 3
#     Node 5, Type 0, BuildingBlock: OLANEW_clean_sbu_2, # of connection points: 3
#     Node 6, Type 0, BuildingBlock: OLANEW_clean_sbu_2, # of connection points: 3
#     Node 7, Type 0, BuildingBlock: OLANEW_clean_sbu_2, # of connection points: 3
#     Node 8, Type 0, BuildingBlock: OLANEW_clean_sbu_2, # of connection points: 3
#     Node 9, Type 0, BuildingBlock: OLANEW_clean_sbu_2, # of connection points: 3
#     Node 10, Type 0, BuildingBlock: OLANEW_clean_sbu_2, # of connection points: 3
#     Node 11, Type 0, BuildingBlock: OLANEW_clean_sbu_2, # of connection points: 3
#     Edge 12, Type (0, 0), BuildingBlock: CIFDUS_clean_linker_0, # of connection points: 2
#     Edge 13, Type (0, 0), BuildingBlock: CIFDUS_clean_linker_0, # of connection points: 2
#     Edge 14, Type (0, 0), BuildingBlock: CIFDUS_clean_linker_0, # of connection points: 2
#     Edge 15, Type (0, 0), BuildingBlock: CIFDUS_clean_linker_0, # of connection points: 2
#     Edge 16, Type (0, 0), BuildingBlock: CIFDUS_clean_linker_0, # of connection points: 2
#     Edge 17, Type (0, 0), BuildingBlock: CIFDUS_clean_linker_0, # of connection points: 2
#     Edge 18, Type (0, 0), BuildingBlock: CIFDUS_clean_linker_0, # of connection points: 2
#     Edge 19, Type (0, 0), BuildingBlock: CIFDUS_clean_linker_0, # of connection points: 2
#     Edge 20, Type (0, 0), BuildingBlock: CIFDUS_clean_linker_0, # of connection points: 2
#     Edge 21, Type (0, 0), BuildingBlock: CIFDUS_clean_linker_0, # of connection points: 2
#     Edge 22, Type (0, 0), BuildingBlock: CIFDUS_clean_linker_0, # of connection points: 2
#     Edge 23, Type (0, 0), BuildingBlock: CIFDUS_clean_linker_0, # of connection points: 2
#     Edge 24, Type (0, 0), BuildingBlock: CIFDUS_clean_linker_0, # of connection points: 2
#     Edge 25, Type (0, 0), BuildingBlock: CIFDUS_clean_linker_0, # of connection points: 2
#     Edge 26, Type (0, 0), BuildingBlock: CIFDUS_clean_linker_0, # of connection points: 2
#     Edge 27, Type (0, 0), BuildingBlock: CIFDUS_clean_linker_0, # of connection points: 2
#     Edge 28, Type (0, 0), BuildingBlock: CIFDUS_clean_linker_0, # of connection points: 2
#     Edge 29, Type (0, 0), BuildingBlock: CIFDUS_clean_linker_0, # of connection points: 2
# Relax obj value: 0.056
# Max RMSD: 0.035
# Mean RMSD: 0.035
data_MOF--net-acs-f--node1-OLANEW_clean_sbu_2--edge1-CIFDUS_clean_linker_0
_symmetry_space_group_name_H-M    P1
_symmetry_Int_Tables_number       1
_symmetry_cell_setting            triclinic
loop_
_symmetry_equiv_pos_as_xyz
'x, y, z'
_cell_length_a     33.266073
_cell_length_b     33.24917
_cell_length_c     45.243645
_cell_angle_alpha  90.019647
_cell_angle_beta   89.978754
_cell_angle_gamma 119.94298
loop_
_atom_site_label
_atom_site_type_symbol
_atom_site_fract_x
_atom_site_fract_y
_atom_site_fract_z
_atom_type_partial_charge
O0 O 0.88934 0.40006 0.1535 0.0
Cd1 Cd 0.87697 0.36261 0.10523 0.0
O2 O 0.95787 0.40616 0.15534 0.0
Cd3 Cd 0.02358 0.41919 0.17469 0.0
O4 O 0.09038 0.4278 0.1883 0.0
C5 C 0.10242 0.43295 0.21531 0.0
O6 O 0.07415 0.43355 0.23537 0.0
C7 C 0.927 0.41267 0.16738 0.0
C8 C 0.92239 0.42497 0.05927 0.0
O9 O 0.88082 0.41366 0.0666 0.0
O10 O 0.94259 0.40707 0.07389 0.0
O11 O 0.5489 0.49129 0.13576 0.0
Cd12 Cd 0.5672 0.52637 0.08661 0.0
O13 O 0.55204 0.55528 0.15082 0.0
Cd14 Cd 0.55451 0.60631 0.18242 0.0
O15 O 0.55637 0.66186 0.20915 0.0
C16 C 0.563 0.66387 0.2369 0.0
O17 O 0.56864 0.6316 0.24977 0.0
C18 C 0.54623 0.5153 0.15672 0.0
C19 C 0.50788 0.47123 0.04165 0.0
O20 O 0.54442 0.4694 0.04824 0.0
O21 O 0.49891 0.49842 0.05679 0.0
O22 O 0.50389 0.08191 0.16138 0.0
Cd23 Cd 0.47829 0.08924 0.11211 0.0
O24 O 0.43677 0.01826 0.16576 0.0
Cd25 Cd 0.38085 0.95934 0.18919 0.0
O26 O 0.32288 0.90124 0.21159 0.0
C27 C 0.31802 0.90251 0.23937 0.0
O28 O 0.34855 0.93901 0.25425 0.0
C29 C 0.4759 0.04717 0.1768 0.0
C30 C 0.52854 0.07859 0.06647 0.0
O31 O 0.53981 0.11896 0.07645 0.0
O32 O 0.49391 0.0433 0.07835 0.0
O33 O 0.57345 0.09513 0.36119 0.0
Cd34 Cd 0.60014 0.08967 0.41052 0.0
O35 O 0.57168 0.03018 0.35011 0.0
Cd36 Cd 0.56626 0.9749 0.32113 0.0
O37 O 0.56181 0.91764 0.29489 0.0
C38 C 0.56773 0.88675 0.30739 0.0
O39 O 0.57638 0.8901 0.33589 0.0
C40 C 0.56587 0.06373 0.34238 0.0
C41 C 0.53018 0.05404 0.45312 0.0
O42 O 0.55451 0.09786 0.44854 0.0
O43 O 0.53853 0.0271 0.43724 0.0
O44 O 0.88201 0.47585 0.34948 0.0
Cd45 Cd 0.88533 0.51156 0.39733 0.0
O46 O 0.94605 0.53856 0.3367 0.0
Cd47 Cd 0.00117 0.58728 0.3073 0.0
O48 O 0.06015 0.64178 0.28325 0.0
C49 C 0.08998 0.67704 0.29754 0.0
O50 O 0.08419 0.67925 0.32611 0.0
C51 C 0.9131 0.4982 0.3302 0.0
C52 C 0.94834 0.50868 0.43669 0.0
O53 O 0.90593 0.47593 0.43594 0.0
O54 O 0.96103 0.54254 0.41857 0.0
O55 O 0.52216 0.43324 0.33754 0.0
Cd56 Cd 0.50676 0.39886 0.38684 0.0
O57 O 0.45809 0.43594 0.34219 0.0
Cd58 Cd 0.40011 0.44431 0.32733 0.0
O59 O 0.33827 0.44702 0.31451 0.0
C60 C 0.32844 0.44696 0.28737 0.0
O61 O 0.35638 0.44591 0.26724 0.0
C62 C 0.49307 0.44333 0.3267 0.0
C63 C 0.53572 0.46453 0.43197 0.0
O64 O 0.5618 0.44882 0.42297 0.0
O65 O 0.49621 0.44947 0.41945 0.0
O66 O 0.12026 0.60996 0.83632 0.0
Cd67 Cd 0.12615 0.65134 0.88225 0.0
O68 O 0.06723 0.62548 0.82053 0.0
Cd69 Cd 0.02023 0.62861 0.78794 0.0
O70 O 0.96916 0.63521 0.7612 0.0
C71 C 0.9392 0.60118 0.7461 0.0
O72 O 0.94002 0.56207 0.74618 0.0
C73 C 0.09206 0.60678 0.81628 0.0
C74 C 0.08171 0.59131 0.92946 0.0
O75 O 0.06009 0.60578 0.91309 0.0
O76 O 0.1243 0.60512 0.9234 0.0
O77 O 0.36213 0.42254 0.81294 0.0
Cd78 Cd 0.31181 0.35363 0.84207 0.0
O79 O 0.32785 0.39973 0.76968 0.0
Cd80 Cd 0.28111 0.3286 0.78397 0.0
O81 O 0.2596 0.25544 0.77772 0.0
C82 C 0.25568 0.24165 0.75111 0.0
O83 O 0.26191 0.27095 0.72972 0.0
C84 C 0.35929 0.4308 0.78582 0.0
C85 C 0.34504 0.37317 0.89998 0.0
O86 O 0.35963 0.35376 0.88177 0.0
O87 O 0.31348 0.38172 0.89111 0.0
O88 O 0.57886 0.95775 0.84072 0.0
Cd89 Cd 0.64792 0.98729 0.87171 0.0
O90 O 0.61402 0.9696 0.79777 0.0
Cd91 Cd 0.68424 0.00653 0.81569 0.0
O92 O 0.75398 0.06624 0.81096 0.0
C93 C 0.75575 0.10291 0.80112 0.0
O94 O 0.71664 0.10256 0.79623 0.0
C95 C 0.57691 0.95471 0.8127 0.0
C96 C 0.62367 0.00341 0.92766 0.0
O97 O 0.64197 0.03602 0.90845 0.0
O98 O 0.61825 0.96363 0.9207 0.0
O99 O 0.3783 0.94002 0.6811 0.0
Cd100 Cd 0.32683 0.95566 0.65091 0.0
O101 O 0.34148 0.92698 0.72353 0.0
Cd102 Cd 0.29288 0.94813 0.70769 0.0
O103 O 0.26786 0.99718 0.71317 0.0
C104 C 0.26134 0.0056 0.73961 0.0
O105 O 0.26715 0.98254 0.7612 0.0
C106 C 0.37456 0.92904 0.70828 0.0
C107 C 0.37227 0.9919 0.59734 0.0
O108 O 0.34618 0.94805 0.60098 0.0
O109 O 0.37565 0.01871 0.61873 0.0
O110 O 0.15637 0.5112 0.65135 0.0
Cd111 Cd 0.155 0.47139 0.60562 0.0
O112 O 0.08816 0.45263 0.66284 0.0
Cd113 Cd 0.0293 0.41172 0.69221 0.0
O114 O 0.96791 0.36165 0.71668 0.0
C115 C 0.9688 0.32965 0.73154 0.0
O116 O 0.00745 0.32803 0.73255 0.0
C117 C 0.1224 0.49224 0.66919 0.0
C118 C 0.09313 0.47177 0.56417 0.0
O119 O 0.13558 0.50442 0.56483 0.0
O120 O 0.07993 0.43901 0.58319 0.0
O121 O 0.56651 0.62051 0.65945 0.0
Cd122 Cd 0.63774 0.66516 0.63104 0.0
O123 O 0.59865 0.64236 0.70331 0.0
Cd124 Cd 0.6697 0.67838 0.68669 0.0
O125 O 0.739 0.68695 0.69043 0.0
C126 C 0.74243 0.65081 0.68715 0.0
O127 O 0.7053 0.61176 0.67959 0.0
C128 C 0.5627 0.61976 0.68742 0.0
C129 C 0.62782 0.61877 0.57787 0.0
O130 O 0.64853 0.61291 0.59992 0.0
O131 O 0.61298 0.64748 0.58075 0.0
H132 H 0.29586 0.44329 0.23171 0.0
H133 H 0.26392 0.44963 0.3235 0.0
H134 H 0.19179 0.4468 0.30929 0.0
H135 H 0.13697 0.44097 0.27091 0.0
H136 H 0.16872 0.43395 0.17915 0.0
H137 H 0.24168 0.43868 0.19332 0.0
C138 C 0.27323 0.44419 0.24863 0.0
C139 C 0.28533 0.44657 0.27862 0.0
C140 C 0.23166 0.44235 0.24033 0.0
C141 C 0.2555 0.44773 0.30023 0.0
C142 C 0.21418 0.44609 0.29214 0.0
C143 C 0.15988 0.4406 0.25399 0.0
C144 C 0.14724 0.43701 0.22402 0.0
C145 C 0.20179 0.44315 0.26227 0.0
C146 C 0.17744 0.4366 0.2024 0.0
C147 C 0.21924 0.4393 0.21047 0.0
H148 H 0.55124 0.73452 0.21699 0.0
H149 H 0.57905 0.68006 0.29616 0.0
H150 H 0.5829 0.74409 0.32488 0.0
H151 H 0.57869 0.81567 0.3275 0.0
H152 H 0.55073 0.8699 0.24827 0.0
H153 H 0.54663 0.80574 0.21965 0.0
C154 C 0.55812 0.73657 0.24054 0.0
C155 C 0.56487 0.70248 0.25437 0.0
C156 C 0.56028 0.77346 0.25693 0.0
C157 C 0.5737 0.70576 0.28492 0.0
C158 C 0.57593 0.7424 0.30138 0.0
C159 C 0.57167 0.81349 0.30398 0.0
C160 C 0.56507 0.84764 0.29009 0.0
C161 C 0.56933 0.77647 0.28761 0.0
C162 C 0.55599 0.84418 0.25957 0.0
C163 C 0.55363 0.80747 0.24315 0.0
H164 H 0.15886 0.75648 0.32183 0.0
H165 H 0.11219 0.6833 0.23887 0.0
H166 H 0.17869 0.74637 0.21368 0.0
H167 H 0.2498 0.82242 0.21511 0.0
H168 H 0.29641 0.89555 0.29809 0.0
H169 H 0.23018 0.83227 0.32331 0.0
C170 C 0.16319 0.75425 0.29824 0.0
C171 C 0.1305 0.71518 0.28229 0.0
C172 C 0.20151 0.79064 0.28386 0.0
C173 C 0.13676 0.71295 0.25172 0.0
C174 C 0.1748 0.74901 0.23727 0.0
C175 C 0.24555 0.82455 0.23872 0.0
C176 C 0.27808 0.86375 0.25465 0.0
C177 C 0.20735 0.78804 0.25311 0.0
C178 C 0.27196 0.86583 0.28525 0.0
C179 C 0.23405 0.82965 0.29972 0.0
H180 H 0.75916 0.57878 0.68451 0.0
H181 H 0.82289 0.72346 0.70864 0.0
H182 H 0.89064 0.72148 0.72748 0.0
H183 H 0.92927 0.6773 0.74031 0.0
H184 H 0.86498 0.53238 0.71668 0.0
H185 H 0.8001 0.536 0.69435 0.0
C186 C 0.78803 0.61005 0.69362 0.0
C187 C 0.78569 0.65109 0.69538 0.0
C188 C 0.82668 0.60856 0.70471 0.0
C189 C 0.82362 0.69132 0.7071 0.0
C190 C 0.86236 0.6902 0.71798 0.0
C191 C 0.90124 0.64655 0.73011 0.0
C192 C 0.90185 0.60452 0.73045 0.0
C193 C 0.86385 0.64878 0.71743 0.0
C194 C 0.86537 0.56515 0.71688 0.0
C195 C 0.82817 0.56715 0.70413 0.0
H196 H 0.24711 0.17491 0.78974 0.0
H197 H 0.25088 0.2045 0.69654 0.0
H198 H 0.24943 0.13226 0.68466 0.0
H199 H 0.25321 0.06372 0.70071 0.0
H200 H 0.25053 0.03468 0.79392 0.0
H201 H 0.24504 0.10334 0.80569 0.0
C202 C 0.24712 0.16535 0.76682 0.0
C203 C 0.24956 0.19538 0.74411 0.0
C204 C 0.24673 0.1239 0.76009 0.0
C205 C 0.24929 0.18225 0.71452 0.0
C206 C 0.24855 0.14093 0.70766 0.0
C207 C 0.25092 0.0721 0.72359 0.0
C208 C 0.25274 0.04427 0.74637 0.0
C209 C 0.24822 0.11195 0.73027 0.0
C210 C 0.24949 0.05558 0.7759 0.0
C211 C 0.24643 0.09494 0.7827 0.0
H212 H 0.95779 0.25405 0.76192 0.0
H213 H 0.88351 0.32275 0.73321 0.0
H214 H 0.81179 0.25993 0.75379 0.0
H215 H 0.76937 0.1838 0.77753 0.0
H216 H 0.84288 0.11402 0.80555 0.0
H217 H 0.91576 0.17922 0.78783 0.0
C218 C 0.926 0.25547 0.76032 0.0
C219 C 0.92606 0.29298 0.74584 0.0
C220 C 0.8847 0.219 0.77201 0.0
C221 C 0.88451 0.29426 0.74409 0.0
C222 C 0.84341 0.2583 0.75585 0.0
C223 C 0.80134 0.1829 0.77999 0.0
C224 C 0.80055 0.14389 0.7927 0.0
C225 C 0.84299 0.22024 0.76949 0.0
C226 C 0.84242 0.14351 0.79577 0.0
C227 C 0.88412 0.18076 0.78559 0.0
H228 H 0.01034 0.45643 0.03944 0.0
H229 H 0.88748 0.46592 0.02309 0.0
H230 H 0.92581 0.51796 0.98151 0.0
H231 H 0.994 0.56047 0.94959 0.0
H232 H 0.11701 0.55135 0.96614 0.0
H233 H 0.07875 0.49946 0.00779 0.0
C234 C 0.99194 0.46991 0.02682 0.0
C235 C 0.94608 0.45722 0.0344 0.0
C236 C 0.01417 0.49986 0.00292 0.0
C237 C 0.9228 0.4751 0.01779 0.0
C238 C 0.94468 0.50485 0.99396 0.0
C239 C 0.01246 0.54712 0.96228 0.0
C240 C 0.0583 0.55977 0.95469 0.0
C241 C 0.99031 0.51739 0.98629 0.0
C242 C 0.08171 0.54222 0.97146 0.0
C243 C 0.05986 0.51251 0.99531 0.0
H244 H 0.41482 0.36345 0.92386 0.0
H245 H 0.32341 0.41747 0.9426 0.0
H246 H 0.36392 0.45 0.98909 0.0
H247 H 0.42872 0.46797 0.02263 0.0
H248 H 0.52089 0.415 0.00353 0.0
H249 H 0.47644 0.37701 0.9591 0.0
C250 C 0.4034 0.3819 0.93824 0.0
C251 C 0.36632 0.38826 0.92961 0.0
C252 C 0.42718 0.40099 0.96482 0.0
C253 C 0.35194 0.41217 0.94861 0.0
C254 C 0.37517 0.43092 0.97519 0.0
C255 C 0.43888 0.44778 0.00891 0.0
C256 C 0.47833 0.44469 0.0163 0.0
C257 C 0.41339 0.42631 0.98324 0.0
C258 C 0.4908 0.41815 0.99832 0.0
C259 C 0.46544 0.39645 0.97286 0.0
H260 H 0.52271 0.99868 0.04665 0.0
H261 H 0.59078 0.14595 0.02962 0.0
H262 H 0.62803 0.13603 0.98589 0.0
H263 H 0.63803 0.08497 0.95104 0.0
H264 H 0.57089 0.93787 0.96861 0.0
H265 H 0.53687 0.94841 0.01367 0.0
C266 C 0.54588 0.02865 0.03346 0.0
C267 C 0.55363 0.07291 0.04125 0.0
C268 C 0.56732 0.02274 0.0084 0.0
C269 C 0.58414 0.11146 0.0241 0.0
C270 C 0.60539 0.10582 0.99903 0.0
C271 C 0.61624 0.05526 0.96484 0.0
C272 C 0.60677 0.01067 0.95633 0.0
C273 C 0.59675 0.06154 0.99076 0.0
C274 C 0.57873 0.97259 0.9746 0.0
C275 C 0.55911 0.97854 0.00035 0.0
H276 H 0.38166 0.94355 0.55199 0.0
H277 H 0.42544 0.08294 0.58142 0.0
H278 H 0.47617 0.11443 0.53843 0.0
H279 H 0.51146 0.10246 0.49405 0.0
H280 H 0.46946 0.96302 0.46557 0.0
H281 H 0.41458 0.93156 0.50655 0.0
C282 C 0.40193 0.98082 0.54887 0.0
C283 C 0.39983 0.01082 0.56997 0.0
C284 C 0.43159 0.99872 0.52434 0.0
C285 C 0.42647 0.05904 0.56559 0.0
C286 C 0.45557 0.0771 0.54102 0.0
C287 C 0.49005 0.06518 0.49665 0.0
C288 C 0.49476 0.03517 0.47682 0.0
C289 C 0.45894 0.04728 0.5205 0.0
C290 C 0.46673 0.98695 0.48057 0.0
C291 C 0.43532 0.96889 0.50402 0.0
H292 H 0.11121 0.53554 0.52098 0.0
H293 H 0.00125 0.40787 0.55758 0.0
H294 H 0.94706 0.40769 0.52115 0.0
H295 H 0.93069 0.44397 0.47913 0.0
H296 H 0.04055 0.57182 0.44266 0.0
H297 H 0.09494 0.57158 0.47877 0.0
C298 C 0.0754 0.50765 0.521 0.0
C299 C 0.06036 0.4718 0.54202 0.0
C300 C 0.04437 0.50774 0.49999 0.0
C301 C 0.01381 0.43593 0.54169 0.0
C302 C 0.98276 0.43577 0.52084 0.0
C303 C 0.96655 0.47174 0.47901 0.0
C304 C 0.98147 0.50785 0.4582 0.0
C305 C 0.99764 0.47151 0.49991 0.0
C306 C 0.02808 0.54358 0.45842 0.0
C307 C 0.05924 0.54351 0.47909 0.0
H308 H 0.60482 0.48583 0.47167 0.0
H309 H 0.49852 0.51819 0.44782 0.0
H310 H 0.51982 0.57115 0.4898 0.0
H311 H 0.56629 0.60568 0.53443 0.0
H312 H 0.66955 0.56999 0.56001 0.0
H313 H 0.65196 0.52111 0.51612 0.0
C314 C 0.58656 0.50475 0.47553 0.0
C315 C 0.55015 0.49809 0.45665 0.0
C316 C 0.59837 0.53445 0.50006 0.0
C317 C 0.52657 0.52256 0.46209 0.0
C318 C 0.53874 0.55288 0.48607 0.0
C319 C 0.58527 0.58757 0.53026 0.0
C320 C 0.61924 0.59153 0.55041 0.0
C321 C 0.57426 0.55874 0.50536 0.0
C322 C 0.64318 0.56744 0.54486 0.0
C323 C 0.63313 0.53947 0.51978 0.0
H324 H 0.98263 0.51235 0.29183 0.0
H325 H 0.83387 0.43683 0.3022 0.0
H326 H 0.82523 0.40342 0.253 0.0
H327 H 0.85962 0.39664 0.20674 0.0
H328 H 0.008 0.47518 0.19503 0.0
H329 H 0.01715 0.50689 0.24485 0.0
C330 C 0.94832 0.48956 0.28306 0.0
C331 C 0.90892 0.47806 0.30041 0.0
C332 C 0.94355 0.4707 0.25459 0.0
C333 C 0.86477 0.44646 0.28925 0.0
C334 C 0.85976 0.42742 0.26108 0.0
C335 C 0.89398 0.42075 0.21507 0.0
C336 C 0.93315 0.43258 0.19743 0.0
C337 C 0.89887 0.43948 0.24351 0.0
C338 C 0.9774 0.46398 0.20851 0.0
C339 C 0.9826 0.48267 0.2369 0.0
H340 H 0.53375 0.42451 0.28127 0.0
H341 H 0.46764 0.50371 0.30384 0.0
H342 H 0.4764 0.53149 0.25297 0.0
H343 H 0.50253 0.53272 0.20191 0.0
H344 H 0.57177 0.45621 0.18001 0.0
H345 H 0.56143 0.42725 0.23064 0.0
C346 C 0.52135 0.44793 0.27504 0.0
C347 C 0.49906 0.46112 0.29612 0.0
C348 C 0.52706 0.4642 0.24586 0.0
C349 C 0.4833 0.4916 0.2878 0.0
C350 C 0.48883 0.50796 0.25877 0.0
C351 C 0.51641 0.51072 0.20838 0.0
C352 C 0.53892 0.49761 0.18739 0.0
C353 C 0.51062 0.49444 0.2376 0.0
C354 C 0.5545 0.467 0.19579 0.0
C355 C 0.54875 0.45054 0.22475 0.0
H356 H 0.52966 0.11581 0.2149 0.0
H357 H 0.45152 0.96675 0.20686 0.0
H358 H 0.47094 0.95855 0.25772 0.0
H359 H 0.51004 0.99399 0.30464 0.0
H360 H 0.59049 0.14306 0.31202 0.0
H361 H 0.56985 0.15111 0.26143 0.0
C362 C 0.51697 0.08154 0.2243 0.0
C363 C 0.48825 0.04195 0.20739 0.0
C364 C 0.52878 0.07714 0.25343 0.0
C365 C 0.47218 0.99777 0.21977 0.0
C366 C 0.48378 0.99306 0.24875 0.0
C367 C 0.52395 0.02816 0.29494 0.0
C368 C 0.55267 0.06782 0.3118 0.0
C369 C 0.51204 0.03252 0.2658 0.0
C370 C 0.5685 0.11197 0.29941 0.0
C371 C 0.55684 0.11661 0.27047 0.0
H372 H 0.16259 0.60475 0.78817 0.0
H373 H 0.01557 0.5537 0.78227 0.0
H374 H 0.0118 0.51363 0.73613 0.0
H375 H 0.05068 0.49337 0.69732 0.0
H376 H 0.19787 0.54522 0.70313 0.0
H377 H 0.20138 0.58493 0.74937 0.0
C378 C 0.12975 0.58482 0.77674 0.0
C379 C 0.08957 0.58279 0.78829 0.0
C380 C 0.12792 0.56192 0.75029 0.0
C381 C 0.04722 0.5569 0.77334 0.0
C382 C 0.04497 0.53358 0.74713 0.0
C383 C 0.0833 0.51267 0.70902 0.0
C384 C 0.12379 0.51564 0.69722 0.0
C385 C 0.08512 0.53584 0.7354 0.0
C386 C 0.16622 0.54229 0.71193 0.0
C387 C 0.16824 0.56493 0.73835 0.0
H388 H 0.54293 0.60863 0.74623 0.0
H389 H 0.48039 0.56061 0.66038 0.0
H390 H 0.40938 0.50084 0.68364 0.0
H391 H 0.36866 0.45664 0.72793 0.0
H392 H 0.4323 0.50353 0.81364 0.0
H393 H 0.4989 0.56954 0.79079 0.0
C394 C 0.51357 0.58556 0.73257 0.0
C395 C 0.51734 0.58874 0.70157 0.0
C396 C 0.47307 0.55074 0.74605 0.0
C397 C 0.47869 0.55878 0.68428 0.0
C398 C 0.43804 0.52443 0.69756 0.0
C399 C 0.39673 0.48166 0.74169 0.0
C400 C 0.39569 0.47465 0.77243 0.0
C401 C 0.43539 0.51921 0.72838 0.0
C402 C 0.43229 0.50771 0.7899 0.0
C403 C 0.47052 0.54548 0.77685 0.0
H404 H 0.56078 0.94577 0.75343 0.0
H405 H 0.49202 0.92721 0.83745 0.0
H406 H 0.42108 0.91208 0.81216 0.0
H407 H 0.38167 0.91315 0.7666 0.0
H408 H 0.45135 0.93398 0.6827 0.0
H409 H 0.51849 0.93855 0.70759 0.0
C410 C 0.53012 0.93777 0.76625 0.0
C411 C 0.53205 0.93834 0.79733 0.0
C412 C 0.48961 0.92983 0.75159 0.0
C413 C 0.49175 0.92742 0.81352 0.0
C414 C 0.45113 0.91888 0.79907 0.0
C415 C 0.41121 0.91796 0.75367 0.0
C416 C 0.41164 0.92389 0.72285 0.0
C417 C 0.45013 0.92139 0.76816 0.0
C418 C 0.45015 0.92972 0.70648 0.0
C419 C 0.4887 0.93249 0.7207 0.0
loop_
_geom_bond_atom_site_label_1
_geom_bond_atom_site_label_2
_geom_bond_distance
_geom_bond_site_symmetry_2
_ccdc_geom_bond_type
O0 Cd1 2.300 1_655 S
O0 C7 1.275 . S
Cd1 O0 2.300 1_455 S
Cd1 O9 2.381 1_455 S
Cd1 O10 2.378 . S
O2 Cd3 2.385 . S
O2 C7 1.255 1_455 S
Cd3 O2 2.385 . S
Cd3 O4 2.317 . S
O4 Cd3 2.317 . S
O4 C5 1.232 . S
C5 O4 1.232 . S
C5 O6 1.218 . S
O6 C5 1.218 . S
C7 O0 1.275 . S
C7 O2 1.255 1_655 S
C8 O9 1.258 . S
C8 O10 1.256 1_655 S
O9 Cd1 2.381 1_655 S
O9 C8 1.258 . S
O10 Cd1 2.378 . S
O10 C8 1.256 1_455 S
O11 Cd12 2.300 . S
O11 C18 1.275 . S
Cd12 O11 2.300 . S
Cd12 O20 2.381 . S
Cd12 O21 2.378 . S
O13 Cd14 2.385 . S
O13 C18 1.255 . S
Cd14 O13 2.385 . S
Cd14 O15 2.317 . S
O15 Cd14 2.317 . S
O15 C16 1.232 . S
C16 O15 1.232 . S
C16 O17 1.218 . S
O17 C16 1.218 . S
C18 O11 1.275 . S
C18 O13 1.255 . S
C19 O20 1.258 . S
C19 O21 1.256 . S
O20 Cd12 2.381 . S
O20 C19 1.258 . S
O21 Cd12 2.378 . S
O21 C19 1.256 . S
O22 Cd23 2.300 1_545 S
O22 C29 1.275 . S
Cd23 O22 2.300 1_565 S
Cd23 O31 2.381 1_565 S
Cd23 O32 2.378 . S
O24 Cd25 2.385 . S
O24 C29 1.255 1_565 S
Cd25 O24 2.385 . S
Cd25 O26 2.317 . S
O26 Cd25 2.317 . S
O26 C27 1.232 . S
C27 O26 1.232 . S
C27 O28 1.218 . S
O28 C27 1.218 . S
C29 O22 1.275 . S
C29 O24 1.255 1_545 S
C30 O31 1.258 . S
C30 O32 1.256 1_545 S
O31 Cd23 2.381 1_545 S
O31 C30 1.258 . S
O32 Cd23 2.378 . S
O32 C30 1.256 1_565 S
O33 Cd34 2.300 1_545 S
O33 C40 1.275 . S
Cd34 O33 2.300 1_565 S
Cd34 O42 2.381 1_565 S
Cd34 O43 2.378 . S
O35 Cd36 2.385 . S
O35 C40 1.255 1_565 S
Cd36 O35 2.385 . S
Cd36 O37 2.317 . S
O37 Cd36 2.317 . S
O37 C38 1.232 . S
C38 O37 1.232 . S
C38 O39 1.218 . S
O39 C38 1.218 . S
C40 O33 1.275 . S
C40 O35 1.255 1_545 S
C41 O42 1.258 . S
C41 O43 1.256 1_545 S
O42 Cd34 2.381 1_545 S
O42 C41 1.258 . S
O43 Cd34 2.378 . S
O43 C41 1.256 1_565 S
O44 Cd45 2.300 1_655 S
O44 C51 1.275 . S
Cd45 O44 2.300 1_455 S
Cd45 O53 2.381 1_455 S
Cd45 O54 2.378 . S
O46 Cd47 2.385 . S
O46 C51 1.255 1_455 S
Cd47 O46 2.385 . S
Cd47 O48 2.317 . S
O48 Cd47 2.317 . S
O48 C49 1.232 . S
C49 O48 1.232 . S
C49 O50 1.218 . S
O50 C49 1.218 . S
C51 O44 1.275 . S
C51 O46 1.255 1_655 S
C52 O53 1.258 . S
C52 O54 1.256 1_655 S
O53 Cd45 2.381 1_655 S
O53 C52 1.258 . S
O54 Cd45 2.378 . S
O54 C52 1.256 1_455 S
O55 Cd56 2.300 . S
O55 C62 1.275 . S
Cd56 O55 2.300 . S
Cd56 O64 2.381 . S
Cd56 O65 2.378 . S
O57 Cd58 2.385 . S
O57 C62 1.255 . S
Cd58 O57 2.385 . S
Cd58 O59 2.317 . S
O59 Cd58 2.317 . S
O59 C60 1.232 . S
C60 O59 1.232 . S
C60 O61 1.218 . S
O61 C60 1.218 . S
C62 O55 1.275 . S
C62 O57 1.255 . S
C63 O64 1.258 . S
C63 O65 1.256 . S
O64 Cd56 2.381 . S
O64 C63 1.258 . S
O65 Cd56 2.378 . S
O65 C63 1.256 . S
O66 Cd67 2.300 . S
O66 C73 1.275 . S
Cd67 O66 2.300 . S
Cd67 O75 2.381 . S
Cd67 O76 2.378 . S
O68 Cd69 2.385 . S
O68 C73 1.255 . S
Cd69 O68 2.385 . S
Cd69 O70 2.317 1_455 S
O70 Cd69 2.317 1_655 S
O70 C71 1.232 . S
C71 O70 1.232 . S
C71 O72 1.218 . S
O72 C71 1.218 . S
C73 O66 1.275 . S
C73 O68 1.255 . S
C74 O75 1.258 . S
C74 O76 1.256 . S
O75 Cd67 2.381 . S
O75 C74 1.258 . S
O76 Cd67 2.378 . S
O76 C74 1.256 . S
O77 Cd78 2.300 . S
O77 C84 1.275 . S
Cd78 O77 2.300 . S
Cd78 O86 2.381 . S
Cd78 O87 2.378 . S
O79 Cd80 2.385 . S
O79 C84 1.255 . S
Cd80 O79 2.385 . S
Cd80 O81 2.317 . S
O81 Cd80 2.317 . S
O81 C82 1.232 . S
C82 O81 1.232 . S
C82 O83 1.218 . S
O83 C82 1.218 . S
C84 O77 1.275 . S
C84 O79 1.255 . S
C85 O86 1.258 . S
C85 O87 1.256 . S
O86 Cd78 2.381 . S
O86 C85 1.258 . S
O87 Cd78 2.378 . S
O87 C85 1.256 . S
O88 Cd89 2.300 . S
O88 C95 1.275 . S
Cd89 O88 2.300 . S
Cd89 O97 2.381 . S
Cd89 O98 2.378 . S
O90 Cd91 2.385 . S
O90 C95 1.255 . S
Cd91 O90 2.385 . S
Cd91 O92 2.317 1_565 S
O92 Cd91 2.317 1_545 S
O92 C93 1.232 . S
C93 O92 1.232 . S
C93 O94 1.218 . S
O94 C93 1.218 . S
C95 O88 1.275 . S
C95 O90 1.255 . S
C96 O97 1.258 . S
C96 O98 1.256 . S
O97 Cd89 2.381 . S
O97 C96 1.258 . S
O98 Cd89 2.378 . S
O98 C96 1.256 . S
O99 Cd100 2.300 . S
O99 C106 1.275 . S
Cd100 O99 2.300 . S
Cd100 O108 2.381 . S
Cd100 O109 2.378 . S
O101 Cd102 2.385 . S
O101 C106 1.255 . S
Cd102 O101 2.385 . S
Cd102 O103 2.317 1_565 S
O103 Cd102 2.317 1_545 S
O103 C104 1.232 . S
C104 O103 1.232 . S
C104 O105 1.218 . S
O105 C104 1.218 . S
C106 O99 1.275 . S
C106 O101 1.255 . S
C107 O108 1.258 . S
C107 O109 1.256 . S
O108 Cd100 2.381 . S
O108 C107 1.258 . S
O109 Cd100 2.378 . S
O109 C107 1.256 . S
O110 Cd111 2.300 . S
O110 C117 1.275 . S
Cd111 O110 2.300 . S
Cd111 O119 2.381 . S
Cd111 O120 2.378 . S
O112 Cd113 2.385 . S
O112 C117 1.255 . S
Cd113 O112 2.385 . S
Cd113 O114 2.317 1_455 S
O114 Cd113 2.317 1_655 S
O114 C115 1.232 . S
C115 O114 1.232 . S
C115 O116 1.218 . S
O116 C115 1.218 . S
C117 O110 1.275 . S
C117 O112 1.255 . S
C118 O119 1.258 . S
C118 O120 1.256 . S
O119 Cd111 2.381 . S
O119 C118 1.258 . S
O120 Cd111 2.378 . S
O120 C118 1.256 . S
O121 Cd122 2.300 . S
O121 C128 1.275 . S
Cd122 O121 2.300 . S
Cd122 O130 2.381 . S
Cd122 O131 2.378 . S
O123 Cd124 2.385 . S
O123 C128 1.255 . S
Cd124 O123 2.385 . S
Cd124 O125 2.317 . S
O125 Cd124 2.317 . S
O125 C126 1.232 . S
C126 O125 1.232 . S
C126 O127 1.218 . S
O127 C126 1.218 . S
C128 O121 1.275 . S
C128 O123 1.255 . S
C129 O130 1.258 . S
C129 O131 1.256 . S
O130 Cd122 2.381 . S
O130 C129 1.258 . S
O131 Cd122 2.378 . S
O131 C129 1.256 . S
H132 C138 0.930 . S
H133 C141 0.930 . S
H134 C142 0.930 . S
H135 C143 0.930 . S
H136 C146 0.930 . S
H137 C147 0.930 . S
C138 H132 0.930 . S
C138 C139 1.355 . S
C138 C140 1.415 . S
C139 C138 1.355 . S
C139 C141 1.419 . S
C140 C138 1.415 . S
C140 C145 1.425 . S
C140 C147 1.409 . S
C141 H133 0.930 . S
C141 C139 1.419 . S
C141 C142 1.362 . S
C142 H134 0.930 . S
C142 C141 1.362 . S
C142 C145 1.409 . S
C143 H135 0.930 . S
C143 C144 1.355 . S
C143 C145 1.415 . S
C144 C143 1.355 . S
C144 C146 1.419 . S
C145 C140 1.425 . S
C145 C142 1.409 . S
C145 C143 1.415 . S
C146 H136 0.930 . S
C146 C144 1.419 . S
C146 C147 1.362 . S
C147 H137 0.930 . S
C147 C140 1.409 . S
C147 C146 1.362 . S
H148 C154 0.930 . S
H149 C157 0.930 . S
H150 C158 0.930 . S
H151 C159 0.930 . S
H152 C162 0.930 . S
H153 C163 0.930 . S
C154 H148 0.930 . S
C154 C155 1.355 . S
C154 C156 1.415 . S
C155 C154 1.355 . S
C155 C157 1.419 . S
C156 C154 1.415 . S
C156 C161 1.425 . S
C156 C163 1.409 . S
C157 H149 0.930 . S
C157 C155 1.419 . S
C157 C158 1.362 . S
C158 H150 0.930 . S
C158 C157 1.362 . S
C158 C161 1.409 . S
C159 H151 0.930 . S
C159 C160 1.355 . S
C159 C161 1.415 . S
C160 C159 1.355 . S
C160 C162 1.419 . S
C161 C156 1.425 . S
C161 C158 1.409 . S
C161 C159 1.415 . S
C162 H152 0.930 . S
C162 C160 1.419 . S
C162 C163 1.362 . S
C163 H153 0.930 . S
C163 C156 1.409 . S
C163 C162 1.362 . S
H164 C170 0.930 . S
H165 C173 0.930 . S
H166 C174 0.930 . S
H167 C175 0.930 . S
H168 C178 0.930 . S
H169 C179 0.930 . S
C170 H164 0.930 . S
C170 C171 1.355 . S
C170 C172 1.415 . S
C171 C170 1.355 . S
C171 C173 1.419 . S
C172 C170 1.415 . S
C172 C177 1.425 . S
C172 C179 1.409 . S
C173 H165 0.930 . S
C173 C171 1.419 . S
C173 C174 1.362 . S
C174 H166 0.930 . S
C174 C173 1.362 . S
C174 C177 1.409 . S
C175 H167 0.930 . S
C175 C176 1.355 . S
C175 C177 1.415 . S
C176 C175 1.355 . S
C176 C178 1.419 . S
C177 C172 1.425 . S
C177 C174 1.409 . S
C177 C175 1.415 . S
C178 H168 0.930 . S
C178 C176 1.419 . S
C178 C179 1.362 . S
C179 H169 0.930 . S
C179 C172 1.409 . S
C179 C178 1.362 . S
H180 C186 0.930 . S
H181 C189 0.930 . S
H182 C190 0.930 . S
H183 C191 0.930 . S
H184 C194 0.930 . S
H185 C195 0.930 . S
C186 H180 0.930 . S
C186 C187 1.355 . S
C186 C188 1.415 . S
C187 C186 1.355 . S
C187 C189 1.419 . S
C188 C186 1.415 . S
C188 C193 1.425 . S
C188 C195 1.409 . S
C189 H181 0.930 . S
C189 C187 1.419 . S
C189 C190 1.362 . S
C190 H182 0.930 . S
C190 C189 1.362 . S
C190 C193 1.409 . S
C191 H183 0.930 . S
C191 C192 1.355 . S
C191 C193 1.415 . S
C192 C191 1.355 . S
C192 C194 1.419 . S
C193 C188 1.425 . S
C193 C190 1.409 . S
C193 C191 1.415 . S
C194 H184 0.930 . S
C194 C192 1.419 . S
C194 C195 1.362 . S
C195 H185 0.930 . S
C195 C188 1.409 . S
C195 C194 1.362 . S
H196 C202 0.930 . S
H197 C205 0.930 . S
H198 C206 0.930 . S
H199 C207 0.930 . S
H200 C210 0.930 . S
H201 C211 0.930 . S
C202 H196 0.930 . S
C202 C203 1.355 . S
C202 C204 1.415 . S
C203 C202 1.355 . S
C203 C205 1.419 . S
C204 C202 1.415 . S
C204 C209 1.425 . S
C204 C211 1.409 . S
C205 H197 0.930 . S
C205 C203 1.419 . S
C205 C206 1.362 . S
C206 H198 0.930 . S
C206 C205 1.362 . S
C206 C209 1.409 . S
C207 H199 0.930 . S
C207 C208 1.355 . S
C207 C209 1.415 . S
C208 C207 1.355 . S
C208 C210 1.419 . S
C209 C204 1.425 . S
C209 C206 1.409 . S
C209 C207 1.415 . S
C210 H200 0.930 . S
C210 C208 1.419 . S
C210 C211 1.362 . S
C211 H201 0.930 . S
C211 C204 1.409 . S
C211 C210 1.362 . S
H212 C218 0.930 . S
H213 C221 0.930 . S
H214 C222 0.930 . S
H215 C223 0.930 . S
H216 C226 0.930 . S
H217 C227 0.930 . S
C218 H212 0.930 . S
C218 C219 1.355 . S
C218 C220 1.415 . S
C219 C218 1.355 . S
C219 C221 1.419 . S
C220 C218 1.415 . S
C220 C225 1.425 . S
C220 C227 1.409 . S
C221 H213 0.930 . S
C221 C219 1.419 . S
C221 C222 1.362 . S
C222 H214 0.930 . S
C222 C221 1.362 . S
C222 C225 1.409 . S
C223 H215 0.930 . S
C223 C224 1.355 . S
C223 C225 1.415 . S
C224 C223 1.355 . S
C224 C226 1.419 . S
C225 C220 1.425 . S
C225 C222 1.409 . S
C225 C223 1.415 . S
C226 H216 0.930 . S
C226 C224 1.419 . S
C226 C227 1.362 . S
C227 H217 0.930 . S
C227 C220 1.409 . S
C227 C226 1.362 . S
H228 C234 0.928 1_455 S
H229 C237 0.930 . S
H230 C238 0.930 . S
H231 C239 0.928 1_655 S
H232 C242 0.930 . S
H233 C243 0.930 . S
C234 H228 0.928 1_655 S
C234 C235 1.355 . S
C234 C236 1.415 1_654 S
C235 C234 1.355 . S
C235 C237 1.419 . S
C236 C234 1.415 1_456 S
C236 C241 1.425 1_456 S
C236 C243 1.409 . S
C237 H229 0.930 . S
C237 C235 1.419 . S
C237 C238 1.362 . S
C238 H230 0.930 . S
C238 C237 1.362 . S
C238 C241 1.409 . S
C239 H231 0.928 1_455 S
C239 C240 1.355 . S
C239 C241 1.415 1_456 S
C240 C239 1.355 . S
C240 C242 1.419 . S
C241 C236 1.425 1_654 S
C241 C238 1.409 . S
C241 C239 1.415 1_654 S
C242 H232 0.930 . S
C242 C240 1.419 . S
C242 C243 1.362 . S
C243 H233 0.930 . S
C243 C236 1.409 . S
C243 C242 1.362 . S
H244 C250 0.930 . S
H245 C253 0.930 . S
H246 C254 0.930 . S
H247 C255 0.930 . S
H248 C258 0.930 . S
H249 C259 0.930 . S
C250 H244 0.930 . S
C250 C251 1.355 . S
C250 C252 1.415 . S
C251 C250 1.355 . S
C251 C253 1.419 . S
C252 C250 1.415 . S
C252 C257 1.425 1_556 S
C252 C259 1.409 . S
C253 H245 0.930 . S
C253 C251 1.419 . S
C253 C254 1.362 1_556 S
C254 H246 0.930 . S
C254 C253 1.362 1_554 S
C254 C257 1.409 . S
C255 H247 0.930 . S
C255 C256 1.355 . S
C255 C257 1.415 . S
C256 C255 1.355 . S
C256 C258 1.419 . S
C257 C252 1.425 1_554 S
C257 C254 1.409 . S
C257 C255 1.415 . S
C258 H248 0.930 . S
C258 C256 1.419 . S
C258 C259 1.362 1_554 S
C259 H249 0.930 . S
C259 C252 1.409 . S
C259 C258 1.362 1_556 S
H260 C266 0.924 1_565 S
H261 C269 0.930 . S
H262 C270 0.930 . S
H263 C271 0.924 1_545 S
H264 C274 0.930 . S
H265 C275 0.930 . S
C266 H260 0.924 1_545 S
C266 C267 1.365 . S
C266 C268 1.410 1_545 S
C267 C266 1.365 . S
C267 C269 1.419 . S
C268 C266 1.410 1_565 S
C268 C273 1.425 1_564 S
C268 C275 1.409 . S
C269 H261 0.930 . S
C269 C267 1.419 . S
C269 C270 1.362 1_554 S
C270 H262 0.930 . S
C270 C269 1.362 1_556 S
C270 C273 1.409 . S
C271 H263 0.924 1_565 S
C271 C272 1.365 . S
C271 C273 1.410 1_565 S
C272 C271 1.365 . S
C272 C274 1.419 . S
C273 C268 1.425 1_546 S
C273 C270 1.409 . S
C273 C271 1.410 1_545 S
C274 H264 0.930 . S
C274 C272 1.419 . S
C274 C275 1.362 1_556 S
C275 H265 0.930 . S
C275 C268 1.409 . S
C275 C274 1.362 1_554 S
H276 C282 0.930 . S
H277 C285 0.930 . S
H278 C286 0.930 . S
H279 C287 0.930 . S
H280 C290 0.930 . S
H281 C291 0.930 . S
C282 H276 0.930 . S
C282 C283 1.355 . S
C282 C284 1.415 . S
C283 C282 1.355 . S
C283 C285 1.419 1_565 S
C284 C282 1.415 . S
C284 C289 1.425 1_565 S
C284 C291 1.409 . S
C285 H277 0.930 . S
C285 C283 1.419 1_545 S
C285 C286 1.362 . S
C286 H278 0.930 . S
C286 C285 1.362 . S
C286 C289 1.409 . S
C287 H279 0.930 . S
C287 C288 1.355 . S
C287 C289 1.415 . S
C288 C287 1.355 . S
C288 C290 1.419 1_545 S
C289 C284 1.425 1_545 S
C289 C286 1.409 . S
C289 C287 1.415 . S
C290 H280 0.930 . S
C290 C288 1.419 1_565 S
C290 C291 1.362 . S
C291 H281 0.930 . S
C291 C284 1.409 . S
C291 C290 1.362 . S
H292 C298 0.930 . S
H293 C301 0.930 . S
H294 C302 0.930 . S
H295 C303 0.930 . S
H296 C306 0.930 . S
H297 C307 0.930 . S
C298 H292 0.930 . S
C298 C299 1.355 . S
C298 C300 1.415 . S
C299 C298 1.355 . S
C299 C301 1.419 1_455 S
C300 C298 1.415 . S
C300 C305 1.425 1_455 S
C300 C307 1.409 . S
C301 H293 0.930 . S
C301 C299 1.419 1_655 S
C301 C302 1.362 . S
C302 H294 0.930 . S
C302 C301 1.362 . S
C302 C305 1.409 . S
C303 H295 0.930 . S
C303 C304 1.355 . S
C303 C305 1.415 . S
C304 C303 1.355 . S
C304 C306 1.419 1_655 S
C305 C300 1.425 1_655 S
C305 C302 1.409 . S
C305 C303 1.415 . S
C306 H296 0.930 . S
C306 C304 1.419 1_455 S
C306 C307 1.362 . S
C307 H297 0.930 . S
C307 C300 1.409 . S
C307 C306 1.362 . S
H308 C314 0.930 . S
H309 C317 0.930 . S
H310 C318 0.930 . S
H311 C319 0.930 . S
H312 C322 0.930 . S
H313 C323 0.930 . S
C314 H308 0.930 . S
C314 C315 1.355 . S
C314 C316 1.415 . S
C315 C314 1.355 . S
C315 C317 1.419 . S
C316 C314 1.415 . S
C316 C321 1.425 . S
C316 C323 1.409 . S
C317 H309 0.930 . S
C317 C315 1.419 . S
C317 C318 1.362 . S
C318 H310 0.930 . S
C318 C317 1.362 . S
C318 C321 1.409 . S
C319 H311 0.930 . S
C319 C320 1.355 . S
C319 C321 1.415 . S
C320 C319 1.355 . S
C320 C322 1.419 . S
C321 C316 1.425 . S
C321 C318 1.409 . S
C321 C319 1.415 . S
C322 H312 0.930 . S
C322 C320 1.419 . S
C322 C323 1.362 . S
C323 H313 0.930 . S
C323 C316 1.409 . S
C323 C322 1.362 . S
H324 C330 0.930 . S
H325 C333 0.930 . S
H326 C334 0.930 . S
H327 C335 0.930 . S
H328 C338 0.930 . S
H329 C339 0.930 . S
C330 H324 0.930 . S
C330 C331 1.355 1_455 S
C330 C332 1.415 . S
C331 C330 1.355 1_655 S
C331 C333 1.419 . S
C332 C330 1.415 . S
C332 C337 1.425 1_455 S
C332 C339 1.409 . S
C333 H325 0.930 . S
C333 C331 1.419 . S
C333 C334 1.362 . S
C334 H326 0.930 . S
C334 C333 1.362 . S
C334 C337 1.409 . S
C335 H327 0.930 . S
C335 C336 1.355 . S
C335 C337 1.415 . S
C336 C335 1.355 . S
C336 C338 1.419 1_655 S
C337 C332 1.425 1_655 S
C337 C334 1.409 . S
C337 C335 1.415 . S
C338 H328 0.930 . S
C338 C336 1.419 1_455 S
C338 C339 1.362 . S
C339 H329 0.930 . S
C339 C332 1.409 . S
C339 C338 1.362 . S
H340 C346 0.930 . S
H341 C349 0.930 . S
H342 C350 0.930 . S
H343 C351 0.930 . S
H344 C354 0.930 . S
H345 C355 0.930 . S
C346 H340 0.930 . S
C346 C347 1.355 . S
C346 C348 1.415 . S
C347 C346 1.355 . S
C347 C349 1.419 . S
C348 C346 1.415 . S
C348 C353 1.425 . S
C348 C355 1.409 . S
C349 H341 0.930 . S
C349 C347 1.419 . S
C349 C350 1.362 . S
C350 H342 0.930 . S
C350 C349 1.362 . S
C350 C353 1.409 . S
C351 H343 0.930 . S
C351 C352 1.355 . S
C351 C353 1.415 . S
C352 C351 1.355 . S
C352 C354 1.419 . S
C353 C348 1.425 . S
C353 C350 1.409 . S
C353 C351 1.415 . S
C354 H344 0.930 . S
C354 C352 1.419 . S
C354 C355 1.362 . S
C355 H345 0.930 . S
C355 C348 1.409 . S
C355 C354 1.362 . S
H356 C362 0.930 . S
H357 C365 0.930 . S
H358 C366 0.930 . S
H359 C367 0.930 1_565 S
H360 C370 0.930 . S
H361 C371 0.930 . S
C362 H356 0.930 . S
C362 C363 1.355 . S
C362 C364 1.415 . S
C363 C362 1.355 . S
C363 C365 1.419 1_545 S
C364 C362 1.415 . S
C364 C369 1.425 . S
C364 C371 1.409 . S
C365 H357 0.930 . S
C365 C363 1.419 1_565 S
C365 C366 1.362 . S
C366 H358 0.930 . S
C366 C365 1.362 . S
C366 C369 1.409 1_565 S
C367 H359 0.930 1_545 S
C367 C368 1.355 . S
C367 C369 1.415 . S
C368 C367 1.355 . S
C368 C370 1.419 . S
C369 C364 1.425 . S
C369 C366 1.409 1_545 S
C369 C367 1.415 . S
C370 H360 0.930 . S
C370 C368 1.419 . S
C370 C371 1.362 . S
C371 H361 0.930 . S
C371 C364 1.409 . S
C371 C370 1.362 . S
H372 C378 0.930 . S
H373 C381 0.930 . S
H374 C382 0.930 . S
H375 C383 0.930 . S
H376 C386 0.930 . S
H377 C387 0.930 . S
C378 H372 0.930 . S
C378 C379 1.355 . S
C378 C380 1.415 . S
C379 C378 1.355 . S
C379 C381 1.419 1_455 S
C380 C378 1.415 . S
C380 C385 1.425 1_455 S
C380 C387 1.409 . S
C381 H373 0.930 . S
C381 C379 1.419 1_655 S
C381 C382 1.362 . S
C382 H374 0.930 . S
C382 C381 1.362 . S
C382 C385 1.409 . S
C383 H375 0.930 . S
C383 C384 1.355 1_655 S
C383 C385 1.415 . S
C384 C383 1.355 1_455 S
C384 C386 1.419 . S
C385 C380 1.425 1_655 S
C385 C382 1.409 . S
C385 C383 1.415 . S
C386 H376 0.930 . S
C386 C384 1.419 . S
C386 C387 1.362 . S
C387 H377 0.930 . S
C387 C380 1.409 . S
C387 C386 1.362 . S
H388 C394 0.930 . S
H389 C397 0.930 . S
H390 C398 0.930 . S
H391 C399 0.930 . S
H392 C402 0.930 . S
H393 C403 0.930 . S
C394 H388 0.930 . S
C394 C395 1.355 . S
C394 C396 1.415 . S
C395 C394 1.355 . S
C395 C397 1.419 . S
C396 C394 1.415 . S
C396 C401 1.425 . S
C396 C403 1.409 . S
C397 H389 0.930 . S
C397 C395 1.419 . S
C397 C398 1.362 . S
C398 H390 0.930 . S
C398 C397 1.362 . S
C398 C401 1.409 . S
C399 H391 0.930 . S
C399 C400 1.355 . S
C399 C401 1.415 . S
C400 C399 1.355 . S
C400 C402 1.419 . S
C401 C396 1.425 . S
C401 C398 1.409 . S
C401 C399 1.415 . S
C402 H392 0.930 . S
C402 C400 1.419 . S
C402 C403 1.362 . S
C403 H393 0.930 . S
C403 C396 1.409 . S
C403 C402 1.362 . S
H404 C410 0.930 . S
H405 C413 0.930 . S
H406 C414 0.930 . S
H407 C415 0.930 1_545 S
H408 C418 0.930 . S
H409 C419 0.930 . S
C410 H404 0.930 . S
C410 C411 1.355 . S
C410 C412 1.415 . S
C411 C410 1.355 . S
C411 C413 1.419 1_565 S
C412 C410 1.415 . S
C412 C417 1.425 . S
C412 C419 1.409 . S
C413 H405 0.930 . S
C413 C411 1.419 1_545 S
C413 C414 1.362 . S
C414 H406 0.930 . S
C414 C413 1.362 . S
C414 C417 1.409 1_545 S
C415 H407 0.930 1_565 S
C415 C416 1.355 . S
C415 C417 1.415 . S
C416 C415 1.355 . S
C416 C418 1.419 . S
C417 C412 1.425 . S
C417 C414 1.409 1_565 S
C417 C415 1.415 . S
C418 H408 0.930 . S
C418 C416 1.419 . S
C418 C419 1.362 . S
C419 H409 0.930 . S
C419 C412 1.409 . S
C419 C418 1.362 . S
C139 C60 1.447 . S
C144 C5 1.439 . S
C155 C16 1.484 . S
C160 C38 1.370 . S
C171 C49 1.395 . S
C176 C27 1.454 . S
C187 C126 1.620 . S
C192 C71 1.652 . S
C203 C82 1.637 . S
C208 C104 1.628 . S
C219 C115 1.636 . S
C224 C93 1.701 . S
C235 C8 1.851 . S
C240 C74 1.982 . S
C251 C85 2.020 . S
C256 C19 1.909 . S
C267 C30 1.926 . S
C272 C96 2.025 . S
C283 C107 2.009 . S
C288 C41 1.887 . S
C299 C118 1.993 . S
C304 C52 1.858 . S
C315 C63 1.857 . S
C320 C129 1.992 . S
C331 C51 1.151 . S
C336 C7 1.079 . S
C347 C62 1.026 . S
C352 C18 1.046 . S
C363 C29 1.112 . S
C368 C40 1.165 . S
C379 C73 1.192 . S
C384 C117 1.175 . S
C395 C128 1.156 . S
C400 C84 1.148 . S
C411 C95 1.163 . S
C416 C106 1.151 . S
