# Generated by pormake.
# Topology unx, (4)-cn, num edge types: 1
# Building blocks:
#     Node 0, Type 0, BuildingBlock: CEKHIL_clean_sbu_0, # of connection points: 4
#     Node 1, Type 0, BuildingBlock: CEKHIL_clean_sbu_0, # of connection points: 4
#     Node 2, Type 0, BuildingBlock: CEKHIL_clean_sbu_0, # of connection points: 4
#     Node 3, Type 0, BuildingBlock: CEKHIL_clean_sbu_0, # of connection points: 4
#     Node 4, Type 0, BuildingBlock: CEKHIL_clean_sbu_0, # of connection points: 4
#     Node 5, Type 0, BuildingBlock: CEKHIL_clean_sbu_0, # of connection points: 4
#     Node 6, Type 0, BuildingBlock: CEKHIL_clean_sbu_0, # of connection points: 4
#     Node 7, Type 0, BuildingBlock: CEKHIL_clean_sbu_0, # of connection points: 4
#     Node 8, Type 0, BuildingBlock: CEKHIL_clean_sbu_0, # of connection points: 4
#     Node 9, Type 0, BuildingBlock: CEKHIL_clean_sbu_0, # of connection points: 4
#     Node 10, Type 0, BuildingBlock: CEKHIL_clean_sbu_0, # of connection points: 4
#     Node 11, Type 0, BuildingBlock: CEKHIL_clean_sbu_0, # of connection points: 4
#     Node 12, Type 0, BuildingBlock: CEKHIL_clean_sbu_0, # of connection points: 4
#     Node 13, Type 0, BuildingBlock: CEKHIL_clean_sbu_0, # of connection points: 4
#     Node 14, Type 0, BuildingBlock: CEKHIL_clean_sbu_0, # of connection points: 4
#     Node 15, Type 0, BuildingBlock: CEKHIL_clean_sbu_0, # of connection points: 4
#     Node 16, Type 0, BuildingBlock: CEKHIL_clean_sbu_0, # of connection points: 4
#     Node 17, Type 0, BuildingBlock: CEKHIL_clean_sbu_0, # of connection points: 4
#     Node 18, Type 0, BuildingBlock: CEKHIL_clean_sbu_0, # of connection points: 4
#     Node 19, Type 0, BuildingBlock: CEKHIL_clean_sbu_0, # of connection points: 4
#     Node 20, Type 0, BuildingBlock: CEKHIL_clean_sbu_0, # of connection points: 4
#     Node 21, Type 0, BuildingBlock: CEKHIL_clean_sbu_0, # of connection points: 4
#     Node 22, Type 0, BuildingBlock: CEKHIL_clean_sbu_0, # of connection points: 4
#     Node 23, Type 0, BuildingBlock: CEKHIL_clean_sbu_0, # of connection points: 4
#     Node 24, Type 0, BuildingBlock: CEKHIL_clean_sbu_0, # of connection points: 4
#     Node 25, Type 0, BuildingBlock: CEKHIL_clean_sbu_0, # of connection points: 4
#     Node 26, Type 0, BuildingBlock: CEKHIL_clean_sbu_0, # of connection points: 4
#     Node 27, Type 0, BuildingBlock: CEKHIL_clean_sbu_0, # of connection points: 4
#     Node 28, Type 0, BuildingBlock: CEKHIL_clean_sbu_0, # of connection points: 4
#     Node 29, Type 0, BuildingBlock: CEKHIL_clean_sbu_0, # of connection points: 4
#     Node 30, Type 0, BuildingBlock: CEKHIL_clean_sbu_0, # of connection points: 4
#     Node 31, Type 0, BuildingBlock: CEKHIL_clean_sbu_0, # of connection points: 4
#     Node 32, Type 0, BuildingBlock: CEKHIL_clean_sbu_0, # of connection points: 4
#     Node 33, Type 0, BuildingBlock: CEKHIL_clean_sbu_0, # of connection points: 4
#     Node 34, Type 0, BuildingBlock: CEKHIL_clean_sbu_0, # of connection points: 4
#     Node 35, Type 0, BuildingBlock: CEKHIL_clean_sbu_0, # of connection points: 4
#     Node 36, Type 0, BuildingBlock: CEKHIL_clean_sbu_0, # of connection points: 4
#     Node 37, Type 0, BuildingBlock: CEKHIL_clean_sbu_0, # of connection points: 4
#     Node 38, Type 0, BuildingBlock: CEKHIL_clean_sbu_0, # of connection points: 4
#     Node 39, Type 0, BuildingBlock: CEKHIL_clean_sbu_0, # of connection points: 4
#     Node 40, Type 0, BuildingBlock: CEKHIL_clean_sbu_0, # of connection points: 4
#     Node 41, Type 0, BuildingBlock: CEKHIL_clean_sbu_0, # of connection points: 4
#     Node 42, Type 0, BuildingBlock: CEKHIL_clean_sbu_0, # of connection points: 4
#     Node 43, Type 0, BuildingBlock: CEKHIL_clean_sbu_0, # of connection points: 4
#     Node 44, Type 0, BuildingBlock: CEKHIL_clean_sbu_0, # of connection points: 4
#     Node 45, Type 0, BuildingBlock: CEKHIL_clean_sbu_0, # of connection points: 4
#     Node 46, Type 0, BuildingBlock: CEKHIL_clean_sbu_0, # of connection points: 4
#     Node 47, Type 0, BuildingBlock: CEKHIL_clean_sbu_0, # of connection points: 4
#     Edge 48, Type (0, 0), None
#     Edge 49, Type (0, 0), None
#     Edge 50, Type (0, 0), None
#     Edge 51, Type (0, 0), None
#     Edge 52, Type (0, 0), None
#     Edge 53, Type (0, 0), None
#     Edge 54, Type (0, 0), None
#     Edge 55, Type (0, 0), None
#     Edge 56, Type (0, 0), None
#     Edge 57, Type (0, 0), None
#     Edge 58, Type (0, 0), None
#     Edge 59, Type (0, 0), None
#     Edge 60, Type (0, 0), None
#     Edge 61, Type (0, 0), None
#     Edge 62, Type (0, 0), None
#     Edge 63, Type (0, 0), None
#     Edge 64, Type (0, 0), None
#     Edge 65, Type (0, 0), None
#     Edge 66, Type (0, 0), None
#     Edge 67, Type (0, 0), None
#     Edge 68, Type (0, 0), None
#     Edge 69, Type (0, 0), None
#     Edge 70, Type (0, 0), None
#     Edge 71, Type (0, 0), None
#     Edge 72, Type (0, 0), None
#     Edge 73, Type (0, 0), None
#     Edge 74, Type (0, 0), None
#     Edge 75, Type (0, 0), None
#     Edge 76, Type (0, 0), None
#     Edge 77, Type (0, 0), None
#     Edge 78, Type (0, 0), None
#     Edge 79, Type (0, 0), None
#     Edge 80, Type (0, 0), None
#     Edge 81, Type (0, 0), None
#     Edge 82, Type (0, 0), None
#     Edge 83, Type (0, 0), None
#     Edge 84, Type (0, 0), None
#     Edge 85, Type (0, 0), None
#     Edge 86, Type (0, 0), None
#     Edge 87, Type (0, 0), None
#     Edge 88, Type (0, 0), None
#     Edge 89, Type (0, 0), None
#     Edge 90, Type (0, 0), None
#     Edge 91, Type (0, 0), None
#     Edge 92, Type (0, 0), None
#     Edge 93, Type (0, 0), None
#     Edge 94, Type (0, 0), None
#     Edge 95, Type (0, 0), None
#     Edge 96, Type (0, 0), None
#     Edge 97, Type (0, 0), None
#     Edge 98, Type (0, 0), None
#     Edge 99, Type (0, 0), None
#     Edge 100, Type (0, 0), None
#     Edge 101, Type (0, 0), None
#     Edge 102, Type (0, 0), None
#     Edge 103, Type (0, 0), None
#     Edge 104, Type (0, 0), None
#     Edge 105, Type (0, 0), None
#     Edge 106, Type (0, 0), None
#     Edge 107, Type (0, 0), None
#     Edge 108, Type (0, 0), None
#     Edge 109, Type (0, 0), None
#     Edge 110, Type (0, 0), None
#     Edge 111, Type (0, 0), None
#     Edge 112, Type (0, 0), None
#     Edge 113, Type (0, 0), None
#     Edge 114, Type (0, 0), None
#     Edge 115, Type (0, 0), None
#     Edge 116, Type (0, 0), None
#     Edge 117, Type (0, 0), None
#     Edge 118, Type (0, 0), None
#     Edge 119, Type (0, 0), None
#     Edge 120, Type (0, 0), None
#     Edge 121, Type (0, 0), None
#     Edge 122, Type (0, 0), None
#     Edge 123, Type (0, 0), None
#     Edge 124, Type (0, 0), None
#     Edge 125, Type (0, 0), None
#     Edge 126, Type (0, 0), None
#     Edge 127, Type (0, 0), None
#     Edge 128, Type (0, 0), None
#     Edge 129, Type (0, 0), None
#     Edge 130, Type (0, 0), None
#     Edge 131, Type (0, 0), None
#     Edge 132, Type (0, 0), None
#     Edge 133, Type (0, 0), None
#     Edge 134, Type (0, 0), None
#     Edge 135, Type (0, 0), None
#     Edge 136, Type (0, 0), None
#     Edge 137, Type (0, 0), None
#     Edge 138, Type (0, 0), None
#     Edge 139, Type (0, 0), None
#     Edge 140, Type (0, 0), None
#     Edge 141, Type (0, 0), None
#     Edge 142, Type (0, 0), None
#     Edge 143, Type (0, 0), None
# Relax obj value: 0.545
# Max RMSD: 0.363
# Mean RMSD: 0.247
data_MOF--net-unx--node1-CEKHIL_clean_sbu_0--edge1-none
_symmetry_space_group_name_H-M    P1
_symmetry_Int_Tables_number       1
_symmetry_cell_setting            triclinic
loop_
_symmetry_equiv_pos_as_xyz
'x, y, z'
_cell_length_a     22.816804
_cell_length_b     22.282326
_cell_length_c     22.983701
_cell_angle_alpha  89.999463
_cell_angle_beta   89.999957
_cell_angle_gamma 91.421172
loop_
_atom_site_label
_atom_site_type_symbol
_atom_site_fract_x
_atom_site_fract_y
_atom_site_fract_z
_atom_type_partial_charge
Co0 Co 0.14161 0.52981 0.33859 0.0
O1 O 0.1989 0.51093 0.40036 0.0
O2 O 0.20625 0.58858 0.34223 0.0
C3 C 0.04649 0.51412 0.37544 0.0
O4 O 0.10029 0.56727 0.2713 0.0
Co5 Co 0.07128 0.43243 0.27489 0.0
O6 O 0.06794 0.49443 0.21191 0.0
C7 C 0.1944 0.43915 0.25152 0.0
C8 C 0.232 0.55496 0.37987 0.0
C9 C 0.07734 0.54955 0.22335 0.0
O10 O 0.19384 0.48564 0.28399 0.0
O11 O 0.14865 0.40616 0.24339 0.0
O12 O 0.07805 0.56199 0.38877 0.0
O13 O 0.07745 0.4727 0.35118 0.0
Co14 Co 0.68732 0.17313 0.51065 0.0
O15 O 0.76087 0.21882 0.52498 0.0
O16 O 0.67632 0.23576 0.56753 0.0
C17 C 0.7152 0.07019 0.50572 0.0
O18 O 0.60417 0.14074 0.50474 0.0
Co19 Co 0.67184 0.117 0.38969 0.0
O20 O 0.58729 0.12769 0.40951 0.0
C21 C 0.68165 0.24846 0.40045 0.0
C22 C 0.72889 0.25564 0.55499 0.0
C23 C 0.56953 0.1406 0.46057 0.0
O24 O 0.6676 0.23986 0.45356 0.0
O25 O 0.69249 0.20389 0.36699 0.0
O26 O 0.70983 0.09775 0.55533 0.0
O27 O 0.71342 0.10862 0.4634 0.0
Co28 Co 0.89103 0.95609 0.65625 0.0
O29 O 0.83073 0.01354 0.62918 0.0
O30 O 0.82031 0.9499 0.70146 0.0
C31 C 0.97995 1.00765 0.65407 0.0
O32 O 0.93492 0.88919 0.69409 0.0
Co33 Co 0.99372 0.9161 0.57203 0.0
O34 O 0.0212 0.88385 0.64847 0.0
C35 C 0.88006 0.84949 0.58091 0.0
C36 C 0.79533 0.98737 0.66652 0.0
C37 C 0.98428 0.86441 0.68604 0.0
O38 O 0.85439 0.89096 0.60854 0.0
O39 O 0.92941 0.8566 0.55531 0.0
O40 O 0.94389 0.01567 0.69741 0.0
O41 O 0.95644 0.98077 0.6104 0.0
Co42 Co 0.27684 0.94331 0.95212 0.0
O43 O 0.23501 0.86607 0.96845 0.0
O44 O 0.33009 0.87725 0.96482 0.0
C45 C 0.22626 0.02033 1.00067 0.0
O46 O 0.33393 1.01339 0.93824 0.0
Co47 Co 0.20357 0.03799 0.87567 0.0
O48 O 0.27952 0.08254 0.89145 0.0
C49 C 0.2517 0.93926 0.82948 0.0
C50 C 0.28537 0.83992 0.9668 0.0
C51 C 0.32563 0.06678 0.91862 0.0
O52 O 0.28436 0.9184 0.86855 0.0
O53 O 0.20078 0.95399 0.84514 0.0
O54 O 0.26056 0.98451 0.02934 0.0
O55 O 0.21368 0.9984 0.95029 0.0
Co56 Co 0.12631 0.44666 0.8777 0.0
O57 O 0.08417 0.52328 0.87026 0.0
O58 O 0.05853 0.453 0.9316 0.0
C59 C 0.22502 0.4725 0.87236 0.0
O60 O 0.15524 0.36004 0.89881 0.0
Co61 Co 0.18271 0.38899 0.77447 0.0
O62 O 0.1999 0.31839 0.82197 0.0
C63 C 0.065 0.36113 0.80543 0.0
C64 C 0.04425 0.50235 0.90619 0.0
C65 C 0.18104 0.31526 0.87382 0.0
O66 O 0.07168 0.41634 0.81622 0.0
O67 O 0.10671 0.33708 0.77787 0.0
O68 O 0.19528 0.48071 0.92034 0.0
O69 O 0.19211 0.4602 0.82728 0.0
Co70 Co 0.77613 0.58132 0.07493 0.0
O71 O 0.73828 0.65772 0.06271 0.0
O72 O 0.8322 0.64567 0.05222 0.0
C73 C 0.71765 0.5058 0.03259 0.0
O74 O 0.82977 0.51311 0.08178 0.0
Co75 Co 0.71177 0.49147 0.16067 0.0
O76 O 0.77637 0.44222 0.13026 0.0
C77 C 0.78321 0.58776 0.20893 0.0
C78 C 0.78948 0.68305 0.05543 0.0
C79 C 0.82004 0.45929 0.09907 0.0
O80 O 0.79756 0.60437 0.15736 0.0
O81 O 0.74056 0.55105 0.21929 0.0
O82 O 0.74905 0.54266 1.00064 0.0
O83 O 0.71023 0.52726 0.08424 0.0
Co84 Co 0.88646 1.01063 0.21667 0.0
O85 O 0.94442 0.05311 0.16684 0.0
O86 O 0.95537 0.96187 0.19955 0.0
C87 C 0.79612 0.03423 0.17553 0.0
O88 O 0.83773 0.956 0.27165 0.0
Co89 Co 0.79778 0.0927 0.28502 0.0
O90 O 0.75933 1.01236 0.29037 0.0
C91 C 0.92478 0.09148 0.31189 0.0
C92 C 0.97963 1.00871 0.17422 0.0
C93 C 0.78565 0.96276 0.29263 0.0
O94 O 0.93218 0.04206 0.2854 0.0
O95 O 0.87757 0.12051 0.30877 0.0
O96 O 0.82731 0.99159 0.15324 0.0
O97 O 0.82526 0.06622 0.21192 0.0
Co98 Co 0.1771 0.35511 0.52312 0.0
O99 O 0.25333 0.31173 0.51579 0.0
O100 O 0.17909 0.29667 0.45865 0.0
C101 C 0.2025 0.46001 0.53688 0.0
O102 O 0.09556 0.38288 0.52317 0.0
Co103 Co 0.19028 0.34303 0.60721 0.0
O104 O 0.10462 0.37013 0.61744 0.0
C105 C 0.1689 0.23886 0.58282 0.0
C106 C 0.22869 0.27658 0.47686 0.0
C107 C 0.07162 0.38073 0.57368 0.0
O108 O 0.14005 0.27929 0.5578 0.0
O109 O 0.21195 0.25605 0.61324 0.0
O110 O 0.20832 0.43148 0.48847 0.0
O111 O 0.18947 0.42658 0.58122 0.0
Co112 Co 0.24853 0.10466 0.45352 0.0
O113 O 0.28975 0.18281 0.47042 0.0
O114 O 0.1953 0.17024 0.4713 0.0
C115 C 0.30301 0.02537 0.49662 0.0
O116 O 0.19028 0.0363 0.44272 0.0
Co117 Co 0.31568 1.00751 0.37255 0.0
O118 O 0.24009 0.96414 0.39528 0.0
C119 C 0.26904 0.10915 0.33033 0.0
C120 C 0.23916 0.20847 0.47311 0.0
C121 C 0.19626 0.98213 0.42504 0.0
O122 O 0.23631 0.12963 0.36989 0.0
O123 O 0.31964 0.09387 0.34664 0.0
O124 O 0.27059 0.0605 0.52835 0.0
O125 O 0.31157 0.04874 0.44632 0.0
Co126 Co 0.38366 0.50478 0.82994 0.0
O127 O 0.32522 0.51811 0.89259 0.0
O128 O 0.31749 0.44757 0.82679 0.0
C129 C 0.47905 0.51388 0.86881 0.0
O130 O 0.42388 0.47196 0.76038 0.0
Co131 Co 0.46036 0.60266 0.77387 0.0
O132 O 0.45925 0.54676 0.70535 0.0
C133 C 0.33716 0.60596 0.75092 0.0
C134 C 0.29164 0.4772 0.86724 0.0
C135 C 0.44629 0.49163 0.71305 0.0
O136 O 0.33416 0.55667 0.7794 0.0
O137 O 0.38498 0.63619 0.74509 0.0
O138 O 0.44575 0.466 0.87756 0.0
O139 O 0.44986 0.55824 0.84762 0.0
Co140 Co 0.83682 0.8384 1.01461 0.0
O141 O 0.76656 0.78677 0.02512 0.0
O142 O 0.8513 0.77311 0.06842 0.0
C143 C 0.80394 0.93833 1.01126 0.0
O144 O 0.91662 0.87821 1.01241 0.0
Co145 Co 0.85165 0.9026 0.89586 0.0
O146 O 0.93595 0.89837 0.91888 0.0
C147 C 0.84296 0.77169 0.90186 0.0
C148 C 0.80036 0.7504 0.05357 0.0
C149 C 0.95239 0.8823 0.96953 0.0
O150 O 0.86134 0.77801 0.95395 0.0
O151 O 0.82917 0.81732 0.87119 0.0
O152 O 0.80864 0.91065 0.06113 0.0
O153 O 0.80842 0.90118 0.96872 0.0
Co154 Co 0.63442 0.0672 0.15074 0.0
O155 O 0.69836 1.01186 0.1327 0.0
O156 O 0.70079 0.0765 0.20458 0.0
C157 C 0.54658 1.01278 0.13937 0.0
O158 O 0.57554 0.12981 0.17446 0.0
Co159 Co 0.57423 0.08211 0.02824 0.0
O160 O 0.52992 0.12655 0.08721 0.0
C161 C 0.65217 0.17493 0.07936 0.0
C162 C 0.72979 0.03934 0.17178 0.0
C163 C 0.53391 0.14483 0.13982 0.0
O164 O 0.67681 0.13411 0.10857 0.0
O165 O 0.61209 0.16249 0.04208 0.0
O166 O 0.57767 1.00738 0.18672 0.0
O167 O 0.57858 0.03391 0.0975 0.0
Co168 Co 0.42928 0.28019 0.14215 0.0
O169 O 0.36886 0.24524 0.19451 0.0
O170 O 0.42271 0.32517 0.2151 0.0
C171 C 0.38759 0.27387 0.04699 0.0
O172 O 0.49538 0.32725 0.10298 0.0
Co173 Co 0.48241 0.19785 0.03961 0.0
O174 O 0.52801 0.27519 0.02508 0.0
C175 C 0.48207 0.17719 0.15679 0.0
C176 C 0.38635 0.28368 0.23412 0.0
C177 C 0.52708 0.32261 0.05684 0.0
O178 O 0.48758 0.22763 0.18133 0.0
O179 O 0.44344 0.17518 0.11711 0.0
O180 O 0.37591 0.31731 0.0829 0.0
O181 O 0.41516 0.2331 0.07298 0.0
Co182 Co 0.11805 0.80827 0.39809 0.0
O183 O 0.09216 0.73998 0.34797 0.0
O184 O 0.16774 0.79951 0.33014 0.0
C185 C 0.11668 0.78163 0.49541 0.0
O186 O 0.16191 0.88303 0.42393 0.0
Co187 Co 0.04058 0.88757 0.46888 0.0
O188 O 0.10294 0.95132 0.46179 0.0
C189 C 0.05498 0.9082 0.34824 0.0
C190 C 0.13084 0.7607 0.30998 0.0
C191 C 0.15171 0.93661 0.44002 0.0
O192 O 0.05799 0.85191 0.3522 0.0
O193 O 0.03862 0.93638 0.39336 0.0
O194 O 0.15894 0.76414 0.46105 0.0
O195 O 0.07218 0.8041 0.46799 0.0
Co196 Co 0.39042 0.328 0.63438 0.0
O197 O 0.42068 0.27982 0.69883 0.0
O198 O 0.33502 0.32339 0.69944 0.0
C199 C 0.40981 0.28175 0.5468 0.0
O200 O 0.34649 0.38234 0.5829 0.0
Co201 Co 0.47569 0.39806 0.55116 0.0
O202 O 0.4092 0.45356 0.55059 0.0
C203 C 0.4521 0.44696 0.66669 0.0
C204 C 0.37585 0.29799 0.72929 0.0
C205 C 0.35957 0.43681 0.57071 0.0
O206 O 0.42319 0.3986 0.67621 0.0
O207 O 0.47841 0.45782 0.61845 0.0
O208 O 0.36703 0.26147 0.57989 0.0
O209 O 0.44644 0.31751 0.57378 0.0
Co210 Co 0.09055 0.77674 0.894 0.0
O211 O 0.14802 0.73191 0.84801 0.0
O212 O 0.11894 0.82184 0.82581 0.0
C213 C 0.11618 0.76012 0.9923 0.0
O214 O 0.03127 0.8353 0.92431 0.0
Co215 Co 1.00149 0.71368 0.98169 0.0
O216 O 0.99381 0.79789 1.00745 0.0
C217 C 0.99017 0.69981 0.85218 0.0
C218 C 0.14584 0.77422 0.80863 0.0
C219 C 1.00014 0.84024 0.97064 0.0
O220 O 0.02847 0.74086 0.84091 0.0
O221 O 0.97969 0.68127 0.90364 0.0
O222 O 0.14416 0.79996 0.96071 0.0
O223 O 0.08187 0.72672 0.96154 0.0
Co224 Co 0.12303 0.71794 0.15019 0.0
O225 O 0.08625 0.7668 0.21098 0.0
O226 O 0.173 0.72628 0.2187 0.0
C227 C 0.11054 0.75998 0.05876 0.0
O228 O 0.17368 0.66386 0.10601 0.0
Co229 Co 0.04411 0.64412 0.06368 0.0
O230 O 0.11456 0.5942 0.06377 0.0
C231 C 0.06687 0.59593 0.17955 0.0
C232 C 0.12933 0.7506 0.24502 0.0
C233 C 0.16335 0.61159 0.08552 0.0
O234 O 0.08927 0.64711 0.19189 0.0
O235 O 0.04473 0.58342 0.12969 0.0
O236 O 0.14944 0.78305 0.09474 0.0
O237 O 0.07228 0.72501 0.08452 0.0
Co238 Co 0.59636 0.74669 0.14221 0.0
O239 O 0.65676 0.78168 0.19456 0.0
O240 O 0.60296 0.70171 0.21516 0.0
C241 C 0.63801 0.75302 0.04704 0.0
O242 O 0.53027 0.69959 0.10308 0.0
Co243 Co 0.54315 0.82896 0.03963 0.0
O244 O 0.49757 0.75161 0.02518 0.0
C245 C 0.54342 0.84963 0.15682 0.0
C246 C 0.6393 0.74323 0.23417 0.0
C247 C 0.49854 0.7042 0.05696 0.0
O248 O 0.53803 0.7992 0.1814 0.0
O249 O 0.58207 0.85158 0.11717 0.0
O250 O 0.64974 0.7096 0.08295 0.0
O251 O 0.61043 0.79378 0.07302 0.0
Co252 Co 0.38976 0.24602 0.88283 0.0
O253 O 0.40823 0.31574 0.83225 0.0
O254 O 0.33901 0.24813 0.81499 0.0
C255 C 0.39062 0.27688 0.98023 0.0
O256 O 0.35436 0.1672 0.91009 0.0
Co257 Co 0.47414 0.17595 0.95276 0.0
O258 O 0.41844 0.10577 0.95072 0.0
C259 C 0.46081 0.15153 0.83295 0.0
C260 C 0.37158 0.29087 0.79455 0.0
C261 C 0.36848 0.11542 0.92888 0.0
O262 O 0.45253 0.20729 0.83614 0.0
O263 O 0.47899 0.12544 0.8785 0.0
O264 O 0.34593 0.28771 0.94621 0.0
O265 O 0.43586 0.25673 0.95206 0.0
Co266 Co 0.43876 0.25684 0.38454 0.0
O267 O 0.38866 0.30962 0.33833 0.0
O268 O 0.40711 0.21681 0.31479 0.0
C269 C 0.41066 0.27778 0.48069 0.0
O270 O 0.49146 0.19129 0.41621 0.0
Co271 Co 0.53014 0.30681 0.47764 0.0
O272 O 0.52631 0.22185 0.50278 0.0
C273 C 0.54094 0.3278 0.34838 0.0
C274 C 0.38633 0.26802 0.29837 0.0
C275 C 0.52062 0.18203 0.46342 0.0
O276 O 0.50524 0.28564 0.33437 0.0
O277 O 0.54801 0.3451 0.40079 0.0
O278 O 0.38036 0.24062 0.44828 0.0
O279 O 0.45076 0.30573 0.45204 0.0
Co280 Co 0.13448 0.07077 0.65626 0.0
O281 O 0.19477 1.01333 0.62917 0.0
O282 O 0.2052 0.07695 0.70147 0.0
C283 C 0.04555 0.01926 0.65408 0.0
O284 O 0.09061 0.13768 0.69411 0.0
Co285 Co 0.03181 0.11081 0.57204 0.0
O286 O 1.00433 0.14304 0.64849 0.0
C287 C 0.14549 0.17737 0.5809 0.0
C288 C 0.23018 0.03948 0.66652 0.0
C289 C 0.04126 0.16247 0.68606 0.0
O290 O 0.17113 0.13591 0.60857 0.0
O291 O 0.09614 0.17027 0.5553 0.0
O292 O 0.08161 1.01119 0.6974 0.0
O293 O 0.06907 0.04612 0.6104 0.0
Co294 Co 0.74872 0.0835 0.95214 0.0
O295 O 0.79057 0.16074 0.96846 0.0
O296 O 0.69548 0.14957 0.96486 0.0
C297 C 0.79924 1.00647 1.00065 0.0
O298 O 0.69161 0.01344 0.93827 0.0
Co299 Co 0.82197 0.98882 0.87566 0.0
O300 O 0.74602 0.94429 0.89147 0.0
C301 C 0.77381 0.08756 0.82949 0.0
C302 C 0.74021 0.18689 0.96682 0.0
C303 C 0.69991 0.96005 0.91864 0.0
O304 O 0.74117 0.10842 0.86857 0.0
O305 O 0.82475 0.07282 0.84513 0.0
O306 O 0.765 0.0423 0.02937 0.0
O307 O 0.81187 0.02841 0.95028 0.0
Co308 Co 0.88397 0.49702 0.33861 0.0
O309 O 0.82671 0.5159 0.40039 0.0
O310 O 0.81934 0.43826 0.34226 0.0
C311 C 0.97911 0.51267 0.3754 0.0
O312 O 0.92527 0.45956 0.2713 0.0
Co313 Co 0.95429 0.5944 0.27489 0.0
O314 O 0.95757 0.53241 0.21188 0.0
C315 C 0.83117 0.58767 0.25155 0.0
C316 C 0.7936 0.47188 0.3799 0.0
C317 C 0.94818 0.47728 0.22333 0.0
O318 O 0.83173 0.5412 0.28404 0.0
O319 O 0.87693 0.62064 0.24334 0.0
O320 O 0.94754 0.46481 0.38877 0.0
O321 O 0.94816 0.55412 0.35118 0.0
Co322 Co 0.33823 0.85373 0.51065 0.0
O323 O 0.26469 0.80804 0.52499 0.0
O324 O 0.34924 0.79109 0.56752 0.0
C325 C 0.31036 0.95666 0.50573 0.0
O326 O 0.42139 0.88611 0.50473 0.0
Co327 Co 0.35371 0.90986 0.38969 0.0
O328 O 0.43826 0.89916 0.4095 0.0
C329 C 0.34389 0.7784 0.40044 0.0
C330 C 0.29667 0.77122 0.55499 0.0
C331 C 0.45603 0.88626 0.46057 0.0
O332 O 0.35795 0.78699 0.45355 0.0
O333 O 0.33305 0.82297 0.36699 0.0
O334 O 0.31574 0.92909 0.55533 0.0
O335 O 0.31213 0.91824 0.4634 0.0
Co336 Co 0.1391 0.01624 0.21666 0.0
O337 O 0.08114 0.97377 0.16682 0.0
O338 O 0.07018 0.065 0.19957 0.0
C339 C 0.22944 0.99267 0.17551 0.0
O340 O 0.18782 0.07085 0.27165 0.0
Co341 Co 0.22779 0.93416 0.28499 0.0
O342 O 0.26623 0.0145 0.29037 0.0
C343 C 0.10079 0.93535 0.31185 0.0
C344 C 0.04593 0.01815 0.17425 0.0
C345 C 0.23991 0.0641 0.2926 0.0
O346 O 0.09339 0.98479 0.28539 0.0
O347 O 0.148 0.90633 0.30873 0.0
O348 O 0.19825 0.03532 0.15323 0.0
O349 O 0.2003 0.96066 0.21189 0.0
Co350 Co 0.84847 0.67176 0.52312 0.0
O351 O 0.77224 0.71514 0.51578 0.0
O352 O 0.84649 0.7302 0.45865 0.0
C353 C 0.82306 0.56685 0.53688 0.0
O354 O 0.93 0.64398 0.52318 0.0
Co355 Co 0.83527 0.68383 0.60719 0.0
O356 O 0.92093 0.65674 0.61745 0.0
C357 C 0.85666 0.788 0.58283 0.0
C358 C 0.79688 0.75029 0.47685 0.0
C359 C 0.95394 0.64614 0.57369 0.0
O360 O 0.88551 0.74757 0.55781 0.0
O361 O 0.81358 0.77082 0.61323 0.0
O362 O 0.81725 0.59538 0.48847 0.0
O363 O 0.83609 0.60029 0.58122 0.0
Co364 Co 0.89927 0.58017 0.87771 0.0
O365 O 0.94142 0.50355 0.87025 0.0
O366 O 0.96704 0.57383 0.93162 0.0
C367 C 0.80057 0.55432 0.87235 0.0
O368 O 0.87034 0.66678 0.89883 0.0
Co369 Co 0.84285 0.63786 0.77448 0.0
O370 O 0.82564 0.70843 0.822 0.0
C371 C 0.96055 0.66571 0.80544 0.0
C372 C 0.98134 0.52451 0.90618 0.0
C373 C 0.8445 0.71155 0.87386 0.0
O374 O 0.95394 0.6105 0.81625 0.0
O375 O 0.91884 0.6898 0.77792 0.0
O376 O 0.8303 0.5461 0.92033 0.0
O377 O 0.83348 0.56663 0.82728 0.0
Co378 Co 0.2494 0.44546 0.07495 0.0
O379 O 0.28726 0.36908 0.06273 0.0
O380 O 0.19334 0.38112 0.05224 0.0
C381 C 0.30786 0.52101 0.03263 0.0
O382 O 0.19574 0.51366 0.08182 0.0
Co383 Co 0.31374 0.5353 0.16072 0.0
O384 O 0.24912 0.58454 0.13035 0.0
C385 C 0.24242 0.43893 0.20896 0.0
C386 C 0.23607 0.34374 0.05544 0.0
C387 C 0.20546 0.56748 0.09914 0.0
O388 O 0.22799 0.42239 0.15739 0.0
O389 O 0.28504 0.47566 0.21933 0.0
O390 O 0.27647 0.48415 1.00067 0.0
O391 O 0.31528 0.49954 0.08428 0.0
Co392 Co 0.18874 0.18841 1.01459 0.0
O393 O 0.25901 0.24004 0.02512 0.0
O394 O 0.17425 0.25368 0.06841 0.0
C395 C 0.2216 0.08848 1.01125 0.0
O396 O 0.10893 0.14861 1.01238 0.0
Co397 Co 0.1739 0.12422 0.89584 0.0
O398 O 0.08961 0.12847 0.91885 0.0
C399 C 0.1826 0.25513 0.90183 0.0
C400 C 0.2252 0.2764 0.05357 0.0
C401 C 0.07316 0.14454 0.9695 0.0
O402 O 0.16424 0.24881 0.95392 0.0
O403 O 0.19637 0.20949 0.87116 0.0
O404 O 0.2169 0.11616 0.06112 0.0
O405 O 0.21714 0.12562 0.9687 0.0
Co406 Co 0.39111 0.95969 0.15073 0.0
O407 O 0.3272 0.01506 0.1327 0.0
O408 O 0.32476 0.95041 0.20458 0.0
C409 C 0.47898 0.01399 0.13938 0.0
O410 O 0.44996 0.89703 0.17447 0.0
Co411 Co 0.45129 0.94469 0.02825 0.0
O412 O 0.49558 0.90021 0.08721 0.0
C413 C 0.37328 0.85195 0.07938 0.0
C414 C 0.29576 0.98758 0.17178 0.0
C415 C 0.49156 0.88195 0.13983 0.0
O416 O 0.34867 0.89281 0.10857 0.0
O417 O 0.41337 0.86434 0.04211 0.0
O418 O 0.4479 0.01946 0.18673 0.0
O419 O 0.44697 0.99294 0.09748 0.0
Co420 Co 0.77704 0.92221 0.45351 0.0
O421 O 0.73583 0.84406 0.4704 0.0
O422 O 0.83028 0.85663 0.47129 0.0
C423 C 0.72262 1.0015 0.49658 0.0
O424 O 0.83529 0.99057 0.44271 0.0
Co425 Co 0.70989 0.01933 0.37252 0.0
O426 O 0.78546 0.06271 0.39528 0.0
C427 C 0.75648 0.91766 0.3303 0.0
C428 C 0.78642 0.8184 0.47309 0.0
C429 C 0.8293 0.04474 0.42504 0.0
O430 O 0.78927 0.89727 0.36987 0.0
O431 O 0.70586 0.933 0.3465 0.0
O432 O 0.75499 0.96636 0.52835 0.0
O433 O 0.714 0.97813 0.4463 0.0
Co434 Co 0.64191 0.52205 0.82993 0.0
O435 O 0.70036 0.50872 0.89258 0.0
O436 O 0.7081 0.57925 0.82677 0.0
C437 C 0.54653 0.513 0.86876 0.0
O438 O 0.6017 0.55488 0.76037 0.0
Co439 Co 0.56521 0.42418 0.77386 0.0
O440 O 0.56632 0.48009 0.70534 0.0
C441 C 0.68841 0.42087 0.75092 0.0
C442 C 0.73394 0.54962 0.86722 0.0
C443 C 0.57928 0.53521 0.71304 0.0
O444 O 0.69141 0.47015 0.77939 0.0
O445 O 0.64058 0.39064 0.74508 0.0
O446 O 0.57984 0.56086 0.87755 0.0
O447 O 0.57571 0.46861 0.84761 0.0
Co448 Co 0.63515 0.69886 0.6344 0.0
O449 O 0.60488 0.74702 0.69886 0.0
O450 O 0.69054 0.70345 0.69947 0.0
C451 C 0.61576 0.74512 0.54683 0.0
O452 O 0.67907 0.64452 0.58292 0.0
Co453 Co 0.54987 0.62881 0.55116 0.0
O454 O 0.61637 0.57331 0.55059 0.0
C455 C 0.57346 0.57989 0.66669 0.0
C456 C 0.64971 0.72885 0.72932 0.0
C457 C 0.666 0.59006 0.57071 0.0
O458 O 0.60237 0.62824 0.67622 0.0
O459 O 0.54715 0.56904 0.61844 0.0
O460 O 0.65853 0.76539 0.57992 0.0
O461 O 0.57913 0.70935 0.5738 0.0
Co462 Co 0.935 0.2501 0.89398 0.0
O463 O 0.87753 0.29493 0.84799 0.0
O464 O 0.90662 0.205 0.82578 0.0
C465 C 0.90937 0.26671 0.99228 0.0
O466 O 0.99428 0.19154 0.92428 0.0
Co467 Co 0.02406 0.31316 0.98168 0.0
O468 O 0.03176 0.22895 1.00742 0.0
C469 C 0.03538 0.32703 0.85218 0.0
C470 C 0.87972 0.25263 0.8086 0.0
C471 C 0.02542 0.1866 0.97061 0.0
O472 O 0.99708 0.28599 0.84089 0.0
O473 O 0.04587 0.34558 0.90363 0.0
O474 O 0.8814 0.22687 0.96069 0.0
O475 O 0.94368 0.30012 0.96153 0.0
Co476 Co 0.90751 0.21859 0.39806 0.0
O477 O 0.9334 0.28687 0.34794 0.0
O478 O 0.85781 0.22735 0.33013 0.0
C479 C 0.90889 0.24523 0.49539 0.0
O480 O 0.86365 0.14384 0.42392 0.0
Co481 Co 0.98498 0.13928 0.46889 0.0
O482 O 0.92261 0.07555 0.4618 0.0
C483 C 0.97061 0.11866 0.34825 0.0
C484 C 0.89471 0.26615 0.30996 0.0
C485 C 0.87384 0.09025 0.44002 0.0
O486 O 0.96755 0.17494 0.35215 0.0
O487 O 0.98691 0.09046 0.39338 0.0
O488 O 0.86664 0.26272 0.46103 0.0
O489 O 0.95339 0.22275 0.46797 0.0
Co490 Co 0.93336 0.27738 0.65883 0.0
O491 O 0.88061 0.22429 0.70481 0.0
O492 O 0.89959 0.31837 0.72619 0.0
C493 C 0.90819 0.24948 0.56181 0.0
O494 O 0.98887 0.34578 0.62761 0.0
Co495 Co 0.03222 0.24121 0.57157 0.0
O496 O 1.00353 0.31713 0.53774 0.0
C497 C 0.04284 0.22732 0.69418 0.0
C498 C 0.87823 0.26687 0.74387 0.0
C499 C 1.01107 0.35622 0.57662 0.0
O500 O 0.99598 0.24961 0.71288 0.0
O501 O 0.06756 0.2541 0.65196 0.0
O502 O 0.8777 0.28685 0.59208 0.0
O503 O 0.94984 0.2273 0.5919 0.0
Co504 Co 0.58683 0.77005 0.38456 0.0
O505 O 0.63696 0.71728 0.33837 0.0
O506 O 0.6185 0.81009 0.31483 0.0
C507 C 0.61491 0.7491 0.48072 0.0
O508 O 0.53411 0.83559 0.41621 0.0
Co509 Co 0.49543 0.7201 0.47765 0.0
O510 O 0.4993 0.80505 0.5028 0.0
C511 C 0.48462 0.69912 0.34839 0.0
C512 C 0.6393 0.75889 0.29841 0.0
C513 C 0.50496 0.84486 0.46343 0.0
O514 O 0.52037 0.74124 0.33437 0.0
O515 O 0.47752 0.68184 0.40079 0.0
O516 O 0.64521 0.78627 0.44832 0.0
O517 O 0.57481 0.72116 0.45206 0.0
Co518 Co 0.6358 0.78082 0.88287 0.0
O519 O 0.61735 0.71108 0.83229 0.0
O520 O 0.68654 0.77872 0.81502 0.0
C521 C 0.63496 0.74998 0.98027 0.0
O522 O 0.67117 0.85964 0.91011 0.0
Co523 Co 0.55141 0.85088 0.95278 0.0
O524 O 0.6071 0.92106 0.95075 0.0
C525 C 0.56473 0.87527 0.83297 0.0
C526 C 0.65399 0.73596 0.79459 0.0
C527 C 0.65706 0.91141 0.9289 0.0
O528 O 0.57301 0.81952 0.83617 0.0
O529 O 0.54655 0.90137 0.87852 0.0
O530 O 0.67964 0.73915 0.94625 0.0
O531 O 0.58971 0.77011 0.95211 0.0
Co532 Co 0.6278 0.44436 0.38481 0.0
O533 O 0.58624 0.52253 0.37996 0.0
O534 O 0.55666 0.44978 0.43588 0.0
C535 C 0.72702 0.46939 0.38375 0.0
O536 O 0.65586 0.3553 0.40238 0.0
Co537 Co 0.6901 0.39163 0.28061 0.0
O538 O 0.70137 0.31672 0.32436 0.0
C539 C 0.57068 0.36456 0.30413 0.0
C540 C 0.54414 0.501 0.41302 0.0
C541 C 0.68108 0.3109 0.37555 0.0
O542 O 0.57682 0.41891 0.31856 0.0
O543 O 0.61306 0.34204 0.27634 0.0
O544 O 0.69613 0.47541 0.43145 0.0
O545 O 0.69532 0.45944 0.33764 0.0
Co546 Co 0.27373 0.60347 0.5785 0.0
O547 O 0.2341 0.67997 0.57241 0.0
O548 O 0.32571 0.66682 0.54811 0.0
C549 C 0.21026 0.52799 0.54545 0.0
O550 O 0.32865 0.53548 0.57692 0.0
Co551 Co 0.22453 0.51243 0.67184 0.0
O552 O 0.28536 0.46383 0.63323 0.0
C553 C 0.28884 0.61494 0.71009 0.0
C554 C 0.2841 0.70445 0.55734 0.0
C555 C 0.32263 0.48145 0.59499 0.0
O556 O 0.30512 0.62625 0.65782 0.0
O557 O 0.24205 0.58451 0.72086 0.0
O558 O 0.23686 0.56396 0.50856 0.0
O559 O 0.21034 0.55007 0.59738 0.0
Co560 Co 0.38536 0.02023 0.71453 0.0
O561 O 0.446 0.05364 0.66178 0.0
O562 O 0.45371 0.96867 0.70891 0.0
C563 C 0.29667 0.03599 0.66742 0.0
O564 O 0.33406 0.97386 0.77285 0.0
Co565 Co 0.29621 0.11195 0.76665 0.0
O566 O 0.2584 0.03464 0.79037 0.0
C567 C 0.42098 0.11934 0.7931 0.0
C568 C 0.47963 1.01006 0.6773 0.0
C569 C 0.28246 0.98382 0.79325 0.0
O570 O 0.42708 0.064 0.78027 0.0
O571 O 0.37609 0.14821 0.77774 0.0
O572 O 0.32833 0.99035 0.65279 0.0
O573 O 0.32518 0.07391 0.69876 0.0
Co574 Co 0.68353 0.33701 1.00126 0.0
O575 O 0.75759 0.29201 1.00082 0.0
O576 O 0.68426 0.27526 0.94102 0.0
C577 C 0.71086 0.43831 0.01911 0.0
O578 O 0.60186 0.36533 0.99891 0.0
Co579 Co 0.67277 0.35385 0.12856 0.0
O580 O 0.5979 0.38809 0.09373 0.0
C581 C 0.6696 0.23858 0.08431 0.0
C582 C 0.73178 0.25479 0.96444 0.0
C583 C 0.57277 0.36929 0.04681 0.0
O584 O 0.64719 0.27092 0.04594 0.0
O585 O 0.68907 0.26372 0.13047 0.0
O586 O 0.71685 0.41436 0.96768 0.0
O587 O 0.6964 0.39822 0.05767 0.0
Co588 Co 0.9025 0.30888 0.15016 0.0
O589 O 0.93931 0.26005 0.21097 0.0
O590 O 0.85253 0.30052 0.21867 0.0
C591 C 0.91502 0.26684 0.05874 0.0
O592 O 0.85183 0.36293 0.10597 0.0
Co593 Co 0.98142 0.38272 0.06367 0.0
O594 O 0.91094 0.43258 0.06372 0.0
C595 C 0.95862 0.43092 0.17952 0.0
C596 C 0.89622 0.27624 0.245 0.0
C597 C 0.86214 0.41517 0.08541 0.0
O598 O 0.93621 0.37974 0.19185 0.0
O599 O 0.98078 0.44342 0.12967 0.0
O600 O 0.87612 0.24375 0.09472 0.0
O601 O 0.95326 0.30183 0.0845 0.0
Co602 Co 0.0922 0.74949 0.65885 0.0
O603 O 0.14496 0.80256 0.70483 0.0
O604 O 0.12595 0.7085 0.72622 0.0
C605 C 0.11738 0.77739 0.56183 0.0
O606 O 0.03667 0.68111 0.62763 0.0
Co607 Co 0.99335 0.78568 0.57158 0.0
O608 O 0.02202 0.70975 0.53775 0.0
C609 C 0.98272 0.79956 0.69418 0.0
C610 C 0.14733 0.75998 0.74389 0.0
C611 C 0.01448 0.67065 0.57664 0.0
O612 O 0.02958 0.77729 0.71289 0.0
O613 O 0.95801 0.77277 0.65195 0.0
O614 O 0.14786 0.74 0.59211 0.0
O615 O 0.07574 0.79957 0.59191 0.0
Co616 Co 0.64015 1.0066 0.71454 0.0
O617 O 0.57952 0.97317 0.66178 0.0
O618 O 0.57179 0.05815 0.70893 0.0
C619 C 0.72884 0.99086 0.66742 0.0
O620 O 0.69145 0.05296 0.77286 0.0
Co621 Co 0.7293 0.91486 0.76665 0.0
O622 O 0.7671 0.99218 0.79038 0.0
C623 C 0.60454 0.90747 0.7931 0.0
C624 C 0.54589 0.01673 0.67734 0.0
C625 C 0.74304 0.043 0.79327 0.0
O626 O 0.59844 0.96282 0.78028 0.0
O627 O 0.64942 0.8786 0.77772 0.0
O628 O 0.69718 0.03649 0.6528 0.0
O629 O 0.70033 0.95293 0.69876 0.0
Co630 Co 0.342 0.6898 1.00138 0.0
O631 O 0.26794 0.73481 1.0008 0.0
O632 O 0.34137 0.75155 0.94113 0.0
C633 C 0.31465 0.5885 0.01916 0.0
O634 O 0.42366 0.66149 0.99917 0.0
Co635 Co 0.35248 0.67311 0.1286 0.0
O636 O 0.42759 0.63908 0.0941 0.0
C637 C 0.3558 0.78832 0.08436 0.0
C638 C 0.29382 0.77203 0.96447 0.0
C639 C 0.45273 0.65761 0.04709 0.0
O640 O 0.37829 0.7559 0.04609 0.0
O641 O 0.33616 0.76324 0.13049 0.0
O642 O 0.30874 0.61246 0.96773 0.0
O643 O 0.32903 0.62857 0.05777 0.0
Co644 Co 0.39779 0.58252 0.3848 0.0
O645 O 0.43938 0.50437 0.37994 0.0
O646 O 0.46892 0.57713 0.43587 0.0
C647 C 0.29857 0.55746 0.38373 0.0
O648 O 0.36969 0.67157 0.40237 0.0
Co649 Co 0.33549 0.63525 0.2806 0.0
O650 O 0.32419 0.71015 0.32434 0.0
C651 C 0.4549 0.66235 0.30413 0.0
C652 C 0.48147 0.52595 0.41298 0.0
C653 C 0.34447 0.71597 0.37554 0.0
O654 O 0.44877 0.608 0.31856 0.0
O655 O 0.41251 0.68487 0.27634 0.0
O656 O 0.32946 0.55144 0.43143 0.0
O657 O 0.33027 0.56743 0.33761 0.0
Co658 Co 0.75183 0.42339 0.5785 0.0
O659 O 0.79146 0.34689 0.57241 0.0
O660 O 0.69985 0.36004 0.5481 0.0
C661 C 0.81531 0.49887 0.54545 0.0
O662 O 0.69691 0.49138 0.57691 0.0
Co663 Co 0.80102 0.51441 0.67185 0.0
O664 O 0.7402 0.56302 0.63324 0.0
C665 C 0.73672 0.41189 0.71008 0.0
C666 C 0.74146 0.3224 0.55733 0.0
C667 C 0.70293 0.54541 0.59499 0.0
O668 O 0.72043 0.40059 0.65781 0.0
O669 O 0.78352 0.44231 0.72085 0.0
O670 O 0.7887 0.4629 0.50856 0.0
O671 O 0.81522 0.47679 0.59738 0.0
loop_
_geom_bond_atom_site_label_1
_geom_bond_atom_site_label_2
_geom_bond_distance
_geom_bond_site_symmetry_2
_ccdc_geom_bond_type
Co0 O1 2.216 . S
Co0 O2 2.091 . S
Co0 O4 2.004 . S
Co0 O10 2.021 . S
Co0 O12 2.137 . S
Co0 O13 2.244 . S
O1 Co0 2.216 . S
O1 C8 1.247 . S
O2 Co0 2.091 . S
O2 C8 1.261 . S
C3 O12 1.247 . S
C3 O13 1.272 . S
O4 Co0 2.004 . S
O4 C9 1.259 . S
Co5 O6 2.061 . S
Co5 O11 2.052 . S
Co5 O13 2.135 . S
O6 Co5 2.061 . S
O6 C9 1.235 . S
C7 O10 1.238 . S
C7 O11 1.241 . S
C8 O1 1.247 . S
C8 O2 1.261 . S
C9 O4 1.259 . S
C9 O6 1.235 . S
O10 Co0 2.021 . S
O10 C7 1.238 . S
O11 Co5 2.052 . S
O11 C7 1.241 . S
O12 Co0 2.137 . S
O12 C3 1.247 . S
O13 Co0 2.244 . S
O13 C3 1.272 . S
O13 Co5 2.135 . S
Co14 O15 2.216 . S
Co14 O16 2.091 . S
Co14 O18 2.004 . S
Co14 O24 2.021 . S
Co14 O26 2.137 . S
Co14 O27 2.244 . S
O15 Co14 2.216 . S
O15 C22 1.247 . S
O16 Co14 2.091 . S
O16 C22 1.261 . S
C17 O26 1.247 . S
C17 O27 1.272 . S
O18 Co14 2.004 . S
O18 C23 1.259 . S
Co19 O20 2.061 . S
Co19 O25 2.052 . S
Co19 O27 2.135 . S
O20 Co19 2.061 . S
O20 C23 1.235 . S
C21 O24 1.238 . S
C21 O25 1.241 . S
C22 O15 1.247 . S
C22 O16 1.261 . S
C23 O18 1.259 . S
C23 O20 1.235 . S
O24 Co14 2.021 . S
O24 C21 1.238 . S
O25 Co19 2.052 . S
O25 C21 1.241 . S
O26 Co14 2.137 . S
O26 C17 1.247 . S
O27 Co14 2.244 . S
O27 C17 1.272 . S
O27 Co19 2.135 . S
Co28 O29 2.216 . S
Co28 O30 2.091 . S
Co28 O32 2.004 . S
Co28 O38 2.021 . S
Co28 O40 2.137 . S
Co28 O41 2.244 . S
O29 Co28 2.216 . S
O29 C36 1.247 . S
O30 Co28 2.091 . S
O30 C36 1.261 . S
C31 O40 1.247 . S
C31 O41 1.272 . S
O32 Co28 2.004 . S
O32 C37 1.259 . S
Co33 O34 2.061 . S
Co33 O39 2.052 . S
Co33 O41 2.135 . S
O34 Co33 2.061 . S
O34 C37 1.235 . S
C35 O38 1.238 . S
C35 O39 1.241 . S
C36 O29 1.247 . S
C36 O30 1.261 . S
C37 O32 1.259 . S
C37 O34 1.235 . S
O38 Co28 2.021 . S
O38 C35 1.238 . S
O39 Co33 2.052 . S
O39 C35 1.241 . S
O40 Co28 2.137 . S
O40 C31 1.247 . S
O41 Co28 2.244 . S
O41 C31 1.272 . S
O41 Co33 2.135 . S
Co42 O43 2.216 . S
Co42 O44 2.091 . S
Co42 O46 2.004 1_565 S
Co42 O52 2.021 . S
Co42 O54 2.137 1_566 S
Co42 O55 2.244 1_565 S
O43 Co42 2.216 . S
O43 C50 1.247 . S
O44 Co42 2.091 . S
O44 C50 1.261 . S
C45 O54 1.247 1_556 S
C45 O55 1.272 . S
O46 Co42 2.004 1_545 S
O46 C51 1.259 . S
Co47 O48 2.061 . S
Co47 O53 2.052 . S
Co47 O55 2.135 . S
O48 Co47 2.061 . S
O48 C51 1.235 . S
C49 O52 1.238 . S
C49 O53 1.241 1_565 S
C50 O43 1.247 . S
C50 O44 1.261 . S
C51 O46 1.259 . S
C51 O48 1.235 . S
O52 Co42 2.021 . S
O52 C49 1.238 . S
O53 Co47 2.052 . S
O53 C49 1.241 1_545 S
O54 Co42 2.137 1_544 S
O54 C45 1.247 1_554 S
O55 Co42 2.244 1_545 S
O55 C45 1.272 . S
O55 Co47 2.135 . S
Co56 O57 2.216 . S
Co56 O58 2.091 . S
Co56 O60 2.004 . S
Co56 O66 2.021 . S
Co56 O68 2.137 . S
Co56 O69 2.244 . S
O57 Co56 2.216 . S
O57 C64 1.247 . S
O58 Co56 2.091 . S
O58 C64 1.261 . S
C59 O68 1.247 . S
C59 O69 1.272 . S
O60 Co56 2.004 . S
O60 C65 1.259 . S
Co61 O62 2.061 . S
Co61 O67 2.052 . S
Co61 O69 2.135 . S
O62 Co61 2.061 . S
O62 C65 1.235 . S
C63 O66 1.238 . S
C63 O67 1.241 . S
C64 O57 1.247 . S
C64 O58 1.261 . S
C65 O60 1.259 . S
C65 O62 1.235 . S
O66 Co56 2.021 . S
O66 C63 1.238 . S
O67 Co61 2.052 . S
O67 C63 1.241 . S
O68 Co56 2.137 . S
O68 C59 1.247 . S
O69 Co56 2.244 . S
O69 C59 1.272 . S
O69 Co61 2.135 . S
Co70 O71 2.216 . S
Co70 O72 2.091 . S
Co70 O74 2.004 . S
Co70 O80 2.021 . S
Co70 O82 2.137 1_554 S
Co70 O83 2.244 . S
O71 Co70 2.216 . S
O71 C78 1.247 . S
O72 Co70 2.091 . S
O72 C78 1.261 . S
C73 O82 1.247 1_554 S
C73 O83 1.272 . S
O74 Co70 2.004 . S
O74 C79 1.259 . S
Co75 O76 2.061 . S
Co75 O81 2.052 . S
Co75 O83 2.135 . S
O76 Co75 2.061 . S
O76 C79 1.235 . S
C77 O80 1.238 . S
C77 O81 1.241 . S
C78 O71 1.247 . S
C78 O72 1.261 . S
C79 O74 1.259 . S
C79 O76 1.235 . S
O80 Co70 2.021 . S
O80 C77 1.238 . S
O81 Co75 2.052 . S
O81 C77 1.241 . S
O82 Co70 2.137 1_556 S
O82 C73 1.247 1_556 S
O83 Co70 2.244 . S
O83 C73 1.272 . S
O83 Co75 2.135 . S
Co84 O85 2.216 1_565 S
Co84 O86 2.091 . S
Co84 O88 2.004 . S
Co84 O94 2.021 1_565 S
Co84 O96 2.137 . S
Co84 O97 2.244 1_565 S
O85 Co84 2.216 1_545 S
O85 C92 1.247 1_545 S
O86 Co84 2.091 . S
O86 C92 1.261 . S
C87 O96 1.247 1_545 S
C87 O97 1.272 . S
O88 Co84 2.004 . S
O88 C93 1.259 . S
Co89 O90 2.061 . S
Co89 O95 2.052 . S
Co89 O97 2.135 . S
O90 Co89 2.061 . S
O90 C93 1.235 1_545 S
C91 O94 1.238 . S
C91 O95 1.241 . S
C92 O85 1.247 1_565 S
C92 O86 1.261 . S
C93 O88 1.259 . S
C93 O90 1.235 1_565 S
O94 Co84 2.021 1_545 S
O94 C91 1.238 . S
O95 Co89 2.052 . S
O95 C91 1.241 . S
O96 Co84 2.137 . S
O96 C87 1.247 1_565 S
O97 Co84 2.244 1_545 S
O97 C87 1.272 . S
O97 Co89 2.135 . S
Co98 O99 2.216 . S
Co98 O100 2.091 . S
Co98 O102 2.004 . S
Co98 O108 2.021 . S
Co98 O110 2.137 . S
Co98 O111 2.244 . S
O99 Co98 2.216 . S
O99 C106 1.247 . S
O100 Co98 2.091 . S
O100 C106 1.261 . S
C101 O110 1.247 . S
C101 O111 1.272 . S
O102 Co98 2.004 . S
O102 C107 1.259 . S
Co103 O104 2.061 . S
Co103 O109 2.052 . S
Co103 O111 2.135 . S
O104 Co103 2.061 . S
O104 C107 1.235 . S
C105 O108 1.238 . S
C105 O109 1.241 . S
C106 O99 1.247 . S
C106 O100 1.261 . S
C107 O102 1.259 . S
C107 O104 1.235 . S
O108 Co98 2.021 . S
O108 C105 1.238 . S
O109 Co103 2.052 . S
O109 C105 1.241 . S
O110 Co98 2.137 . S
O110 C101 1.247 . S
O111 Co98 2.244 . S
O111 C101 1.272 . S
O111 Co103 2.135 . S
Co112 O113 2.216 . S
Co112 O114 2.091 . S
Co112 O116 2.004 1_545 S
Co112 O122 2.021 . S
Co112 O124 2.137 1_545 S
Co112 O125 2.244 1_545 S
O113 Co112 2.216 . S
O113 C120 1.247 . S
O114 Co112 2.091 . S
O114 C120 1.261 . S
C115 O124 1.247 . S
C115 O125 1.272 . S
O116 Co112 2.004 1_565 S
O116 C121 1.259 . S
Co117 O118 2.061 . S
Co117 O123 2.052 . S
Co117 O125 2.135 . S
O118 Co117 2.061 . S
O118 C121 1.235 . S
C119 O122 1.238 . S
C119 O123 1.241 1_545 S
C120 O113 1.247 . S
C120 O114 1.261 . S
C121 O116 1.259 . S
C121 O118 1.235 . S
O122 Co112 2.021 . S
O122 C119 1.238 . S
O123 Co117 2.052 . S
O123 C119 1.241 1_565 S
O124 Co112 2.137 1_565 S
O124 C115 1.247 . S
O125 Co112 2.244 1_565 S
O125 C115 1.272 . S
O125 Co117 2.135 . S
Co126 O127 2.216 . S
Co126 O128 2.091 . S
Co126 O130 2.004 . S
Co126 O136 2.021 . S
Co126 O138 2.137 . S
Co126 O139 2.244 . S
O127 Co126 2.216 . S
O127 C134 1.247 . S
O128 Co126 2.091 . S
O128 C134 1.261 . S
C129 O138 1.247 . S
C129 O139 1.272 . S
O130 Co126 2.004 . S
O130 C135 1.259 . S
Co131 O132 2.061 . S
Co131 O137 2.052 . S
Co131 O139 2.135 . S
O132 Co131 2.061 . S
O132 C135 1.235 . S
C133 O136 1.238 . S
C133 O137 1.241 . S
C134 O127 1.247 . S
C134 O128 1.261 . S
C135 O130 1.259 . S
C135 O132 1.235 . S
O136 Co126 2.021 . S
O136 C133 1.238 . S
O137 Co131 2.052 . S
O137 C133 1.241 . S
O138 Co126 2.137 . S
O138 C129 1.247 . S
O139 Co126 2.244 . S
O139 C129 1.272 . S
O139 Co131 2.135 . S
Co140 O141 2.216 . S
Co140 O142 2.091 . S
Co140 O144 2.004 . S
Co140 O150 2.021 1_554 S
Co140 O152 2.137 . S
Co140 O153 2.244 1_554 S
O141 Co140 2.216 . S
O141 C148 1.247 . S
O142 Co140 2.091 . S
O142 C148 1.261 . S
C143 O152 1.247 1_556 S
C143 O153 1.272 . S
O144 Co140 2.004 . S
O144 C149 1.259 1_554 S
Co145 O146 2.061 . S
Co145 O151 2.052 . S
Co145 O153 2.135 . S
O146 Co145 2.061 . S
O146 C149 1.235 . S
C147 O150 1.238 . S
C147 O151 1.241 . S
C148 O141 1.247 . S
C148 O142 1.261 . S
C149 O144 1.259 1_556 S
C149 O146 1.235 . S
O150 Co140 2.021 1_556 S
O150 C147 1.238 . S
O151 Co145 2.052 . S
O151 C147 1.241 . S
O152 Co140 2.137 . S
O152 C143 1.247 1_554 S
O153 Co140 2.244 1_556 S
O153 C143 1.272 . S
O153 Co145 2.135 . S
Co154 O155 2.216 . S
Co154 O156 2.091 . S
Co154 O158 2.004 . S
Co154 O164 2.021 . S
Co154 O166 2.137 . S
Co154 O167 2.244 . S
O155 Co154 2.216 . S
O155 C162 1.247 . S
O156 Co154 2.091 . S
O156 C162 1.261 . S
C157 O166 1.247 . S
C157 O167 1.272 . S
O158 Co154 2.004 . S
O158 C163 1.259 . S
Co159 O160 2.061 . S
Co159 O165 2.052 . S
Co159 O167 2.135 . S
O160 Co159 2.061 . S
O160 C163 1.235 . S
C161 O164 1.238 . S
C161 O165 1.241 . S
C162 O155 1.247 . S
C162 O156 1.261 . S
C163 O158 1.259 . S
C163 O160 1.235 . S
O164 Co154 2.021 . S
O164 C161 1.238 . S
O165 Co159 2.052 . S
O165 C161 1.241 . S
O166 Co154 2.137 . S
O166 C157 1.247 . S
O167 Co154 2.244 . S
O167 C157 1.272 . S
O167 Co159 2.135 . S
Co168 O169 2.216 . S
Co168 O170 2.091 . S
Co168 O172 2.004 . S
Co168 O178 2.021 . S
Co168 O180 2.137 . S
Co168 O181 2.244 . S
O169 Co168 2.216 . S
O169 C176 1.247 . S
O170 Co168 2.091 . S
O170 C176 1.261 . S
C171 O180 1.247 . S
C171 O181 1.272 . S
O172 Co168 2.004 . S
O172 C177 1.259 . S
Co173 O174 2.061 . S
Co173 O179 2.052 . S
Co173 O181 2.135 . S
O174 Co173 2.061 . S
O174 C177 1.235 . S
C175 O178 1.238 . S
C175 O179 1.241 . S
C176 O169 1.247 . S
C176 O170 1.261 . S
C177 O172 1.259 . S
C177 O174 1.235 . S
O178 Co168 2.021 . S
O178 C175 1.238 . S
O179 Co173 2.052 . S
O179 C175 1.241 . S
O180 Co168 2.137 . S
O180 C171 1.247 . S
O181 Co168 2.244 . S
O181 C171 1.272 . S
O181 Co173 2.135 . S
Co182 O183 2.216 . S
Co182 O184 2.091 . S
Co182 O186 2.004 . S
Co182 O192 2.021 . S
Co182 O194 2.137 . S
Co182 O195 2.244 . S
O183 Co182 2.216 . S
O183 C190 1.247 . S
O184 Co182 2.091 . S
O184 C190 1.261 . S
C185 O194 1.247 . S
C185 O195 1.272 . S
O186 Co182 2.004 . S
O186 C191 1.259 . S
Co187 O188 2.061 . S
Co187 O193 2.052 . S
Co187 O195 2.135 . S
O188 Co187 2.061 . S
O188 C191 1.235 . S
C189 O192 1.238 . S
C189 O193 1.241 . S
C190 O183 1.247 . S
C190 O184 1.261 . S
C191 O186 1.259 . S
C191 O188 1.235 . S
O192 Co182 2.021 . S
O192 C189 1.238 . S
O193 Co187 2.052 . S
O193 C189 1.241 . S
O194 Co182 2.137 . S
O194 C185 1.247 . S
O195 Co182 2.244 . S
O195 C185 1.272 . S
O195 Co187 2.135 . S
Co196 O197 2.216 . S
Co196 O198 2.091 . S
Co196 O200 2.004 . S
Co196 O206 2.021 . S
Co196 O208 2.137 . S
Co196 O209 2.244 . S
O197 Co196 2.216 . S
O197 C204 1.247 . S
O198 Co196 2.091 . S
O198 C204 1.261 . S
C199 O208 1.247 . S
C199 O209 1.272 . S
O200 Co196 2.004 . S
O200 C205 1.259 . S
Co201 O202 2.061 . S
Co201 O207 2.052 . S
Co201 O209 2.135 . S
O202 Co201 2.061 . S
O202 C205 1.235 . S
C203 O206 1.238 . S
C203 O207 1.241 . S
C204 O197 1.247 . S
C204 O198 1.261 . S
C205 O200 1.259 . S
C205 O202 1.235 . S
O206 Co196 2.021 . S
O206 C203 1.238 . S
O207 Co201 2.052 . S
O207 C203 1.241 . S
O208 Co196 2.137 . S
O208 C199 1.247 . S
O209 Co196 2.244 . S
O209 C199 1.272 . S
O209 Co201 2.135 . S
Co210 O211 2.216 . S
Co210 O212 2.091 . S
Co210 O214 2.004 1_455 S
Co210 O220 2.021 1_455 S
Co210 O222 2.137 . S
Co210 O223 2.244 . S
O211 Co210 2.216 . S
O211 C218 1.247 . S
O212 Co210 2.091 . S
O212 C218 1.261 . S
C213 O222 1.247 . S
C213 O223 1.272 . S
O214 Co210 2.004 1_655 S
O214 C219 1.259 . S
Co215 O216 2.061 . S
Co215 O221 2.052 . S
Co215 O223 2.135 1_655 S
O216 Co215 2.061 . S
O216 C219 1.235 . S
C217 O220 1.238 . S
C217 O221 1.241 . S
C218 O211 1.247 . S
C218 O212 1.261 . S
C219 O214 1.259 . S
C219 O216 1.235 . S
O220 Co210 2.021 1_655 S
O220 C217 1.238 . S
O221 Co215 2.052 . S
O221 C217 1.241 . S
O222 Co210 2.137 . S
O222 C213 1.247 . S
O223 Co210 2.244 . S
O223 C213 1.272 . S
O223 Co215 2.135 1_455 S
Co224 O225 2.216 . S
Co224 O226 2.091 . S
Co224 O228 2.004 . S
Co224 O234 2.021 . S
Co224 O236 2.137 . S
Co224 O237 2.244 . S
O225 Co224 2.216 . S
O225 C232 1.247 . S
O226 Co224 2.091 . S
O226 C232 1.261 . S
C227 O236 1.247 . S
C227 O237 1.272 . S
O228 Co224 2.004 . S
O228 C233 1.259 . S
Co229 O230 2.061 . S
Co229 O235 2.052 . S
Co229 O237 2.135 . S
O230 Co229 2.061 . S
O230 C233 1.235 . S
C231 O234 1.238 . S
C231 O235 1.241 . S
C232 O225 1.247 . S
C232 O226 1.261 . S
C233 O228 1.259 . S
C233 O230 1.235 . S
O234 Co224 2.021 . S
O234 C231 1.238 . S
O235 Co229 2.052 . S
O235 C231 1.241 . S
O236 Co224 2.137 . S
O236 C227 1.247 . S
O237 Co224 2.244 . S
O237 C227 1.272 . S
O237 Co229 2.135 . S
Co238 O239 2.216 . S
Co238 O240 2.091 . S
Co238 O242 2.004 . S
Co238 O248 2.021 . S
Co238 O250 2.137 . S
Co238 O251 2.244 . S
O239 Co238 2.216 . S
O239 C246 1.247 . S
O240 Co238 2.091 . S
O240 C246 1.261 . S
C241 O250 1.247 . S
C241 O251 1.272 . S
O242 Co238 2.004 . S
O242 C247 1.259 . S
Co243 O244 2.061 . S
Co243 O249 2.052 . S
Co243 O251 2.135 . S
O244 Co243 2.061 . S
O244 C247 1.235 . S
C245 O248 1.238 . S
C245 O249 1.241 . S
C246 O239 1.247 . S
C246 O240 1.261 . S
C247 O242 1.259 . S
C247 O244 1.235 . S
O248 Co238 2.021 . S
O248 C245 1.238 . S
O249 Co243 2.052 . S
O249 C245 1.241 . S
O250 Co238 2.137 . S
O250 C241 1.247 . S
O251 Co238 2.244 . S
O251 C241 1.272 . S
O251 Co243 2.135 . S
Co252 O253 2.216 . S
Co252 O254 2.091 . S
Co252 O256 2.004 . S
Co252 O262 2.021 . S
Co252 O264 2.137 . S
Co252 O265 2.244 . S
O253 Co252 2.216 . S
O253 C260 1.247 . S
O254 Co252 2.091 . S
O254 C260 1.261 . S
C255 O264 1.247 . S
C255 O265 1.272 . S
O256 Co252 2.004 . S
O256 C261 1.259 . S
Co257 O258 2.061 . S
Co257 O263 2.052 . S
Co257 O265 2.135 . S
O258 Co257 2.061 . S
O258 C261 1.235 . S
C259 O262 1.238 . S
C259 O263 1.241 . S
C260 O253 1.247 . S
C260 O254 1.261 . S
C261 O256 1.259 . S
C261 O258 1.235 . S
O262 Co252 2.021 . S
O262 C259 1.238 . S
O263 Co257 2.052 . S
O263 C259 1.241 . S
O264 Co252 2.137 . S
O264 C255 1.247 . S
O265 Co252 2.244 . S
O265 C255 1.272 . S
O265 Co257 2.135 . S
Co266 O267 2.216 . S
Co266 O268 2.091 . S
Co266 O270 2.004 . S
Co266 O276 2.021 . S
Co266 O278 2.137 . S
Co266 O279 2.244 . S
O267 Co266 2.216 . S
O267 C274 1.247 . S
O268 Co266 2.091 . S
O268 C274 1.261 . S
C269 O278 1.247 . S
C269 O279 1.272 . S
O270 Co266 2.004 . S
O270 C275 1.259 . S
Co271 O272 2.061 . S
Co271 O277 2.052 . S
Co271 O279 2.135 . S
O272 Co271 2.061 . S
O272 C275 1.235 . S
C273 O276 1.238 . S
C273 O277 1.241 . S
C274 O267 1.247 . S
C274 O268 1.261 . S
C275 O270 1.259 . S
C275 O272 1.235 . S
O276 Co266 2.021 . S
O276 C273 1.238 . S
O277 Co271 2.052 . S
O277 C273 1.241 . S
O278 Co266 2.137 . S
O278 C269 1.247 . S
O279 Co266 2.244 . S
O279 C269 1.272 . S
O279 Co271 2.135 . S
Co280 O281 2.216 . S
Co280 O282 2.091 . S
Co280 O284 2.004 . S
Co280 O290 2.021 . S
Co280 O292 2.137 . S
Co280 O293 2.244 . S
O281 Co280 2.216 . S
O281 C288 1.247 . S
O282 Co280 2.091 . S
O282 C288 1.261 . S
C283 O292 1.247 . S
C283 O293 1.272 . S
O284 Co280 2.004 . S
O284 C289 1.259 . S
Co285 O286 2.061 . S
Co285 O291 2.052 . S
Co285 O293 2.135 . S
O286 Co285 2.061 . S
O286 C289 1.235 . S
C287 O290 1.238 . S
C287 O291 1.241 . S
C288 O281 1.247 . S
C288 O282 1.261 . S
C289 O284 1.259 . S
C289 O286 1.235 . S
O290 Co280 2.021 . S
O290 C287 1.238 . S
O291 Co285 2.052 . S
O291 C287 1.241 . S
O292 Co280 2.137 . S
O292 C283 1.247 . S
O293 Co280 2.244 . S
O293 C283 1.272 . S
O293 Co285 2.135 . S
Co294 O295 2.216 . S
Co294 O296 2.091 . S
Co294 O298 2.004 1_545 S
Co294 O304 2.021 . S
Co294 O306 2.137 1_546 S
Co294 O307 2.244 1_545 S
O295 Co294 2.216 . S
O295 C302 1.247 . S
O296 Co294 2.091 . S
O296 C302 1.261 . S
C297 O306 1.247 1_556 S
C297 O307 1.272 . S
O298 Co294 2.004 1_565 S
O298 C303 1.259 . S
Co299 O300 2.061 . S
Co299 O305 2.052 . S
Co299 O307 2.135 . S
O300 Co299 2.061 . S
O300 C303 1.235 . S
C301 O304 1.238 . S
C301 O305 1.241 1_545 S
C302 O295 1.247 . S
C302 O296 1.261 . S
C303 O298 1.259 . S
C303 O300 1.235 . S
O304 Co294 2.021 . S
O304 C301 1.238 . S
O305 Co299 2.052 . S
O305 C301 1.241 1_565 S
O306 Co294 2.137 1_564 S
O306 C297 1.247 1_554 S
O307 Co294 2.244 1_565 S
O307 C297 1.272 . S
O307 Co299 2.135 . S
Co308 O309 2.216 . S
Co308 O310 2.091 . S
Co308 O312 2.004 . S
Co308 O318 2.021 . S
Co308 O320 2.137 . S
Co308 O321 2.244 . S
O309 Co308 2.216 . S
O309 C316 1.247 . S
O310 Co308 2.091 . S
O310 C316 1.261 . S
C311 O320 1.247 . S
C311 O321 1.272 . S
O312 Co308 2.004 . S
O312 C317 1.259 . S
Co313 O314 2.061 . S
Co313 O319 2.052 . S
Co313 O321 2.135 . S
O314 Co313 2.061 . S
O314 C317 1.235 . S
C315 O318 1.238 . S
C315 O319 1.241 . S
C316 O309 1.247 . S
C316 O310 1.261 . S
C317 O312 1.259 . S
C317 O314 1.235 . S
O318 Co308 2.021 . S
O318 C315 1.238 . S
O319 Co313 2.052 . S
O319 C315 1.241 . S
O320 Co308 2.137 . S
O320 C311 1.247 . S
O321 Co308 2.244 . S
O321 C311 1.272 . S
O321 Co313 2.135 . S
Co322 O323 2.216 . S
Co322 O324 2.091 . S
Co322 O326 2.004 . S
Co322 O332 2.021 . S
Co322 O334 2.137 . S
Co322 O335 2.244 . S
O323 Co322 2.216 . S
O323 C330 1.247 . S
O324 Co322 2.091 . S
O324 C330 1.261 . S
C325 O334 1.247 . S
C325 O335 1.272 . S
O326 Co322 2.004 . S
O326 C331 1.259 . S
Co327 O328 2.061 . S
Co327 O333 2.052 . S
Co327 O335 2.135 . S
O328 Co327 2.061 . S
O328 C331 1.235 . S
C329 O332 1.238 . S
C329 O333 1.241 . S
C330 O323 1.247 . S
C330 O324 1.261 . S
C331 O326 1.259 . S
C331 O328 1.235 . S
O332 Co322 2.021 . S
O332 C329 1.238 . S
O333 Co327 2.052 . S
O333 C329 1.241 . S
O334 Co322 2.137 . S
O334 C325 1.247 . S
O335 Co322 2.244 . S
O335 C325 1.272 . S
O335 Co327 2.135 . S
Co336 O337 2.216 1_545 S
Co336 O338 2.091 . S
Co336 O340 2.004 . S
Co336 O346 2.021 1_545 S
Co336 O348 2.137 . S
Co336 O349 2.244 1_545 S
O337 Co336 2.216 1_565 S
O337 C344 1.247 1_565 S
O338 Co336 2.091 . S
O338 C344 1.261 . S
C339 O348 1.247 1_565 S
C339 O349 1.272 . S
O340 Co336 2.004 . S
O340 C345 1.259 . S
Co341 O342 2.061 . S
Co341 O347 2.052 . S
Co341 O349 2.135 . S
O342 Co341 2.061 . S
O342 C345 1.235 1_565 S
C343 O346 1.238 . S
C343 O347 1.241 . S
C344 O337 1.247 1_545 S
C344 O338 1.261 . S
C345 O340 1.259 . S
C345 O342 1.235 1_545 S
O346 Co336 2.021 1_565 S
O346 C343 1.238 . S
O347 Co341 2.052 . S
O347 C343 1.241 . S
O348 Co336 2.137 . S
O348 C339 1.247 1_545 S
O349 Co336 2.244 1_565 S
O349 C339 1.272 . S
O349 Co341 2.135 . S
Co350 O351 2.216 . S
Co350 O352 2.091 . S
Co350 O354 2.004 . S
Co350 O360 2.021 . S
Co350 O362 2.137 . S
Co350 O363 2.244 . S
O351 Co350 2.216 . S
O351 C358 1.247 . S
O352 Co350 2.091 . S
O352 C358 1.261 . S
C353 O362 1.247 . S
C353 O363 1.272 . S
O354 Co350 2.004 . S
O354 C359 1.259 . S
Co355 O356 2.061 . S
Co355 O361 2.052 . S
Co355 O363 2.135 . S
O356 Co355 2.061 . S
O356 C359 1.235 . S
C357 O360 1.238 . S
C357 O361 1.241 . S
C358 O351 1.247 . S
C358 O352 1.261 . S
C359 O354 1.259 . S
C359 O356 1.235 . S
O360 Co350 2.021 . S
O360 C357 1.238 . S
O361 Co355 2.052 . S
O361 C357 1.241 . S
O362 Co350 2.137 . S
O362 C353 1.247 . S
O363 Co350 2.244 . S
O363 C353 1.272 . S
O363 Co355 2.135 . S
Co364 O365 2.216 . S
Co364 O366 2.091 . S
Co364 O368 2.004 . S
Co364 O374 2.021 . S
Co364 O376 2.137 . S
Co364 O377 2.244 . S
O365 Co364 2.216 . S
O365 C372 1.247 . S
O366 Co364 2.091 . S
O366 C372 1.261 . S
C367 O376 1.247 . S
C367 O377 1.272 . S
O368 Co364 2.004 . S
O368 C373 1.259 . S
Co369 O370 2.061 . S
Co369 O375 2.052 . S
Co369 O377 2.135 . S
O370 Co369 2.061 . S
O370 C373 1.235 . S
C371 O374 1.238 . S
C371 O375 1.241 . S
C372 O365 1.247 . S
C372 O366 1.261 . S
C373 O368 1.259 . S
C373 O370 1.235 . S
O374 Co364 2.021 . S
O374 C371 1.238 . S
O375 Co369 2.052 . S
O375 C371 1.241 . S
O376 Co364 2.137 . S
O376 C367 1.247 . S
O377 Co364 2.244 . S
O377 C367 1.272 . S
O377 Co369 2.135 . S
Co378 O379 2.216 . S
Co378 O380 2.091 . S
Co378 O382 2.004 . S
Co378 O388 2.021 . S
Co378 O390 2.137 1_554 S
Co378 O391 2.244 . S
O379 Co378 2.216 . S
O379 C386 1.247 . S
O380 Co378 2.091 . S
O380 C386 1.261 . S
C381 O390 1.247 1_554 S
C381 O391 1.272 . S
O382 Co378 2.004 . S
O382 C387 1.259 . S
Co383 O384 2.061 . S
Co383 O389 2.052 . S
Co383 O391 2.135 . S
O384 Co383 2.061 . S
O384 C387 1.235 . S
C385 O388 1.238 . S
C385 O389 1.241 . S
C386 O379 1.247 . S
C386 O380 1.261 . S
C387 O382 1.259 . S
C387 O384 1.235 . S
O388 Co378 2.021 . S
O388 C385 1.238 . S
O389 Co383 2.052 . S
O389 C385 1.241 . S
O390 Co378 2.137 1_556 S
O390 C381 1.247 1_556 S
O391 Co378 2.244 . S
O391 C381 1.272 . S
O391 Co383 2.135 . S
Co392 O393 2.216 . S
Co392 O394 2.091 . S
Co392 O396 2.004 . S
Co392 O402 2.021 1_554 S
Co392 O404 2.137 . S
Co392 O405 2.244 1_554 S
O393 Co392 2.216 . S
O393 C400 1.247 . S
O394 Co392 2.091 . S
O394 C400 1.261 . S
C395 O404 1.247 1_556 S
C395 O405 1.272 . S
O396 Co392 2.004 . S
O396 C401 1.259 1_554 S
Co397 O398 2.061 . S
Co397 O403 2.052 . S
Co397 O405 2.135 . S
O398 Co397 2.061 . S
O398 C401 1.235 . S
C399 O402 1.238 . S
C399 O403 1.241 . S
C400 O393 1.247 . S
C400 O394 1.261 . S
C401 O396 1.259 1_556 S
C401 O398 1.235 . S
O402 Co392 2.021 1_556 S
O402 C399 1.238 . S
O403 Co397 2.052 . S
O403 C399 1.241 . S
O404 Co392 2.137 . S
O404 C395 1.247 1_554 S
O405 Co392 2.244 1_556 S
O405 C395 1.272 . S
O405 Co397 2.135 . S
Co406 O407 2.216 . S
Co406 O408 2.091 . S
Co406 O410 2.004 . S
Co406 O416 2.021 . S
Co406 O418 2.137 . S
Co406 O419 2.244 . S
O407 Co406 2.216 . S
O407 C414 1.247 . S
O408 Co406 2.091 . S
O408 C414 1.261 . S
C409 O418 1.247 . S
C409 O419 1.272 . S
O410 Co406 2.004 . S
O410 C415 1.259 . S
Co411 O412 2.061 . S
Co411 O417 2.052 . S
Co411 O419 2.135 . S
O412 Co411 2.061 . S
O412 C415 1.235 . S
C413 O416 1.238 . S
C413 O417 1.241 . S
C414 O407 1.247 . S
C414 O408 1.261 . S
C415 O410 1.259 . S
C415 O412 1.235 . S
O416 Co406 2.021 . S
O416 C413 1.238 . S
O417 Co411 2.052 . S
O417 C413 1.241 . S
O418 Co406 2.137 . S
O418 C409 1.247 . S
O419 Co406 2.244 . S
O419 C409 1.272 . S
O419 Co411 2.135 . S
Co420 O421 2.216 . S
Co420 O422 2.091 . S
Co420 O424 2.004 1_565 S
Co420 O430 2.021 . S
Co420 O432 2.137 1_565 S
Co420 O433 2.244 1_565 S
O421 Co420 2.216 . S
O421 C428 1.247 . S
O422 Co420 2.091 . S
O422 C428 1.261 . S
C423 O432 1.247 . S
C423 O433 1.272 . S
O424 Co420 2.004 1_545 S
O424 C429 1.259 . S
Co425 O426 2.061 . S
Co425 O431 2.052 . S
Co425 O433 2.135 . S
O426 Co425 2.061 . S
O426 C429 1.235 . S
C427 O430 1.238 . S
C427 O431 1.241 1_565 S
C428 O421 1.247 . S
C428 O422 1.261 . S
C429 O424 1.259 . S
C429 O426 1.235 . S
O430 Co420 2.021 . S
O430 C427 1.238 . S
O431 Co425 2.052 . S
O431 C427 1.241 1_545 S
O432 Co420 2.137 1_545 S
O432 C423 1.247 . S
O433 Co420 2.244 1_545 S
O433 C423 1.272 . S
O433 Co425 2.135 . S
Co434 O435 2.216 . S
Co434 O436 2.091 . S
Co434 O438 2.004 . S
Co434 O444 2.021 . S
Co434 O446 2.137 . S
Co434 O447 2.244 . S
O435 Co434 2.216 . S
O435 C442 1.247 . S
O436 Co434 2.091 . S
O436 C442 1.261 . S
C437 O446 1.247 . S
C437 O447 1.272 . S
O438 Co434 2.004 . S
O438 C443 1.259 . S
Co439 O440 2.061 . S
Co439 O445 2.052 . S
Co439 O447 2.135 . S
O440 Co439 2.061 . S
O440 C443 1.235 . S
C441 O444 1.238 . S
C441 O445 1.241 . S
C442 O435 1.247 . S
C442 O436 1.261 . S
C443 O438 1.259 . S
C443 O440 1.235 . S
O444 Co434 2.021 . S
O444 C441 1.238 . S
O445 Co439 2.052 . S
O445 C441 1.241 . S
O446 Co434 2.137 . S
O446 C437 1.247 . S
O447 Co434 2.244 . S
O447 C437 1.272 . S
O447 Co439 2.135 . S
Co448 O449 2.216 . S
Co448 O450 2.091 . S
Co448 O452 2.004 . S
Co448 O458 2.021 . S
Co448 O460 2.137 . S
Co448 O461 2.244 . S
O449 Co448 2.216 . S
O449 C456 1.247 . S
O450 Co448 2.091 . S
O450 C456 1.261 . S
C451 O460 1.247 . S
C451 O461 1.272 . S
O452 Co448 2.004 . S
O452 C457 1.259 . S
Co453 O454 2.061 . S
Co453 O459 2.052 . S
Co453 O461 2.135 . S
O454 Co453 2.061 . S
O454 C457 1.235 . S
C455 O458 1.238 . S
C455 O459 1.241 . S
C456 O449 1.247 . S
C456 O450 1.261 . S
C457 O452 1.259 . S
C457 O454 1.235 . S
O458 Co448 2.021 . S
O458 C455 1.238 . S
O459 Co453 2.052 . S
O459 C455 1.241 . S
O460 Co448 2.137 . S
O460 C451 1.247 . S
O461 Co448 2.244 . S
O461 C451 1.272 . S
O461 Co453 2.135 . S
Co462 O463 2.216 . S
Co462 O464 2.091 . S
Co462 O466 2.004 1_655 S
Co462 O472 2.021 1_655 S
Co462 O474 2.137 . S
Co462 O475 2.244 . S
O463 Co462 2.216 . S
O463 C470 1.247 . S
O464 Co462 2.091 . S
O464 C470 1.261 . S
C465 O474 1.247 . S
C465 O475 1.272 . S
O466 Co462 2.004 1_455 S
O466 C471 1.259 . S
Co467 O468 2.061 . S
Co467 O473 2.052 . S
Co467 O475 2.135 1_455 S
O468 Co467 2.061 . S
O468 C471 1.235 . S
C469 O472 1.238 . S
C469 O473 1.241 . S
C470 O463 1.247 . S
C470 O464 1.261 . S
C471 O466 1.259 . S
C471 O468 1.235 . S
O472 Co462 2.021 1_455 S
O472 C469 1.238 . S
O473 Co467 2.052 . S
O473 C469 1.241 . S
O474 Co462 2.137 . S
O474 C465 1.247 . S
O475 Co462 2.244 . S
O475 C465 1.272 . S
O475 Co467 2.135 1_655 S
Co476 O477 2.216 . S
Co476 O478 2.091 . S
Co476 O480 2.004 . S
Co476 O486 2.021 . S
Co476 O488 2.137 . S
Co476 O489 2.244 . S
O477 Co476 2.216 . S
O477 C484 1.247 . S
O478 Co476 2.091 . S
O478 C484 1.261 . S
C479 O488 1.247 . S
C479 O489 1.272 . S
O480 Co476 2.004 . S
O480 C485 1.259 . S
Co481 O482 2.061 . S
Co481 O487 2.052 . S
Co481 O489 2.135 . S
O482 Co481 2.061 . S
O482 C485 1.235 . S
C483 O486 1.238 . S
C483 O487 1.241 . S
C484 O477 1.247 . S
C484 O478 1.261 . S
C485 O480 1.259 . S
C485 O482 1.235 . S
O486 Co476 2.021 . S
O486 C483 1.238 . S
O487 Co481 2.052 . S
O487 C483 1.241 . S
O488 Co476 2.137 . S
O488 C479 1.247 . S
O489 Co476 2.244 . S
O489 C479 1.272 . S
O489 Co481 2.135 . S
Co490 O491 2.216 . S
Co490 O492 2.091 . S
Co490 O494 2.004 1_655 S
Co490 O500 2.021 1_655 S
Co490 O502 2.137 . S
Co490 O503 2.244 . S
O491 Co490 2.216 . S
O491 C498 1.247 . S
O492 Co490 2.091 . S
O492 C498 1.261 . S
C493 O502 1.247 . S
C493 O503 1.272 . S
O494 Co490 2.004 1_455 S
O494 C499 1.259 . S
Co495 O496 2.061 . S
Co495 O501 2.052 . S
Co495 O503 2.135 1_455 S
O496 Co495 2.061 . S
O496 C499 1.235 . S
C497 O500 1.238 . S
C497 O501 1.241 . S
C498 O491 1.247 . S
C498 O492 1.261 . S
C499 O494 1.259 . S
C499 O496 1.235 . S
O500 Co490 2.021 1_455 S
O500 C497 1.238 . S
O501 Co495 2.052 . S
O501 C497 1.241 . S
O502 Co490 2.137 . S
O502 C493 1.247 . S
O503 Co490 2.244 . S
O503 C493 1.272 . S
O503 Co495 2.135 1_655 S
Co504 O505 2.216 . S
Co504 O506 2.091 . S
Co504 O508 2.004 . S
Co504 O514 2.021 . S
Co504 O516 2.137 . S
Co504 O517 2.244 . S
O505 Co504 2.216 . S
O505 C512 1.247 . S
O506 Co504 2.091 . S
O506 C512 1.261 . S
C507 O516 1.247 . S
C507 O517 1.272 . S
O508 Co504 2.004 . S
O508 C513 1.259 . S
Co509 O510 2.061 . S
Co509 O515 2.052 . S
Co509 O517 2.135 . S
O510 Co509 2.061 . S
O510 C513 1.235 . S
C511 O514 1.238 . S
C511 O515 1.241 . S
C512 O505 1.247 . S
C512 O506 1.261 . S
C513 O508 1.259 . S
C513 O510 1.235 . S
O514 Co504 2.021 . S
O514 C511 1.238 . S
O515 Co509 2.052 . S
O515 C511 1.241 . S
O516 Co504 2.137 . S
O516 C507 1.247 . S
O517 Co504 2.244 . S
O517 C507 1.272 . S
O517 Co509 2.135 . S
Co518 O519 2.216 . S
Co518 O520 2.091 . S
Co518 O522 2.004 . S
Co518 O528 2.021 . S
Co518 O530 2.137 . S
Co518 O531 2.244 . S
O519 Co518 2.216 . S
O519 C526 1.247 . S
O520 Co518 2.091 . S
O520 C526 1.261 . S
C521 O530 1.247 . S
C521 O531 1.272 . S
O522 Co518 2.004 . S
O522 C527 1.259 . S
Co523 O524 2.061 . S
Co523 O529 2.052 . S
Co523 O531 2.135 . S
O524 Co523 2.061 . S
O524 C527 1.235 . S
C525 O528 1.238 . S
C525 O529 1.241 . S
C526 O519 1.247 . S
C526 O520 1.261 . S
C527 O522 1.259 . S
C527 O524 1.235 . S
O528 Co518 2.021 . S
O528 C525 1.238 . S
O529 Co523 2.052 . S
O529 C525 1.241 . S
O530 Co518 2.137 . S
O530 C521 1.247 . S
O531 Co518 2.244 . S
O531 C521 1.272 . S
O531 Co523 2.135 . S
Co532 O533 2.216 . S
Co532 O534 2.091 . S
Co532 O536 2.004 . S
Co532 O542 2.021 . S
Co532 O544 2.137 . S
Co532 O545 2.244 . S
O533 Co532 2.216 . S
O533 C540 1.247 . S
O534 Co532 2.091 . S
O534 C540 1.261 . S
C535 O544 1.247 . S
C535 O545 1.272 . S
O536 Co532 2.004 . S
O536 C541 1.259 . S
Co537 O538 2.061 . S
Co537 O543 2.052 . S
Co537 O545 2.135 . S
O538 Co537 2.061 . S
O538 C541 1.235 . S
C539 O542 1.238 . S
C539 O543 1.241 . S
C540 O533 1.247 . S
C540 O534 1.261 . S
C541 O536 1.259 . S
C541 O538 1.235 . S
O542 Co532 2.021 . S
O542 C539 1.238 . S
O543 Co537 2.052 . S
O543 C539 1.241 . S
O544 Co532 2.137 . S
O544 C535 1.247 . S
O545 Co532 2.244 . S
O545 C535 1.272 . S
O545 Co537 2.135 . S
Co546 O547 2.216 . S
Co546 O548 2.091 . S
Co546 O550 2.004 . S
Co546 O556 2.021 . S
Co546 O558 2.137 . S
Co546 O559 2.244 . S
O547 Co546 2.216 . S
O547 C554 1.247 . S
O548 Co546 2.091 . S
O548 C554 1.261 . S
C549 O558 1.247 . S
C549 O559 1.272 . S
O550 Co546 2.004 . S
O550 C555 1.259 . S
Co551 O552 2.061 . S
Co551 O557 2.052 . S
Co551 O559 2.135 . S
O552 Co551 2.061 . S
O552 C555 1.235 . S
C553 O556 1.238 . S
C553 O557 1.241 . S
C554 O547 1.247 . S
C554 O548 1.261 . S
C555 O550 1.259 . S
C555 O552 1.235 . S
O556 Co546 2.021 . S
O556 C553 1.238 . S
O557 Co551 2.052 . S
O557 C553 1.241 . S
O558 Co546 2.137 . S
O558 C549 1.247 . S
O559 Co546 2.244 . S
O559 C549 1.272 . S
O559 Co551 2.135 . S
Co560 O561 2.216 1_565 S
Co560 O562 2.091 . S
Co560 O564 2.004 . S
Co560 O570 2.021 1_565 S
Co560 O572 2.137 . S
Co560 O573 2.244 1_565 S
O561 Co560 2.216 1_545 S
O561 C568 1.247 1_545 S
O562 Co560 2.091 . S
O562 C568 1.261 . S
C563 O572 1.247 . S
C563 O573 1.272 1_565 S
O564 Co560 2.004 . S
O564 C569 1.259 . S
Co565 O566 2.061 1_545 S
Co565 O571 2.052 . S
Co565 O573 2.135 . S
O566 Co565 2.061 1_565 S
O566 C569 1.235 . S
C567 O570 1.238 . S
C567 O571 1.241 . S
C568 O561 1.247 1_565 S
C568 O562 1.261 . S
C569 O564 1.259 . S
C569 O566 1.235 . S
O570 Co560 2.021 1_545 S
O570 C567 1.238 . S
O571 Co565 2.052 . S
O571 C567 1.241 . S
O572 Co560 2.137 . S
O572 C563 1.247 . S
O573 Co560 2.244 1_545 S
O573 C563 1.272 1_545 S
O573 Co565 2.135 . S
Co574 O575 2.216 . S
Co574 O576 2.091 . S
Co574 O578 2.004 . S
Co574 O584 2.021 1_556 S
Co574 O586 2.137 . S
Co574 O587 2.244 1_556 S
O575 Co574 2.216 . S
O575 C582 1.247 . S
O576 Co574 2.091 . S
O576 C582 1.261 . S
C577 O586 1.247 1_554 S
C577 O587 1.272 . S
O578 Co574 2.004 . S
O578 C583 1.259 1_556 S
Co579 O580 2.061 . S
Co579 O585 2.052 . S
Co579 O587 2.135 . S
O580 Co579 2.061 . S
O580 C583 1.235 . S
C581 O584 1.238 . S
C581 O585 1.241 . S
C582 O575 1.247 . S
C582 O576 1.261 . S
C583 O578 1.259 1_554 S
C583 O580 1.235 . S
O584 Co574 2.021 1_554 S
O584 C581 1.238 . S
O585 Co579 2.052 . S
O585 C581 1.241 . S
O586 Co574 2.137 . S
O586 C577 1.247 1_556 S
O587 Co574 2.244 1_554 S
O587 C577 1.272 . S
O587 Co579 2.135 . S
Co588 O589 2.216 . S
Co588 O590 2.091 . S
Co588 O592 2.004 . S
Co588 O598 2.021 . S
Co588 O600 2.137 . S
Co588 O601 2.244 . S
O589 Co588 2.216 . S
O589 C596 1.247 . S
O590 Co588 2.091 . S
O590 C596 1.261 . S
C591 O600 1.247 . S
C591 O601 1.272 . S
O592 Co588 2.004 . S
O592 C597 1.259 . S
Co593 O594 2.061 . S
Co593 O599 2.052 . S
Co593 O601 2.135 . S
O594 Co593 2.061 . S
O594 C597 1.235 . S
C595 O598 1.238 . S
C595 O599 1.241 . S
C596 O589 1.247 . S
C596 O590 1.261 . S
C597 O592 1.259 . S
C597 O594 1.235 . S
O598 Co588 2.021 . S
O598 C595 1.238 . S
O599 Co593 2.052 . S
O599 C595 1.241 . S
O600 Co588 2.137 . S
O600 C591 1.247 . S
O601 Co588 2.244 . S
O601 C591 1.272 . S
O601 Co593 2.135 . S
Co602 O603 2.216 . S
Co602 O604 2.091 . S
Co602 O606 2.004 1_455 S
Co602 O612 2.021 1_455 S
Co602 O614 2.137 . S
Co602 O615 2.244 . S
O603 Co602 2.216 . S
O603 C610 1.247 . S
O604 Co602 2.091 . S
O604 C610 1.261 . S
C605 O614 1.247 . S
C605 O615 1.272 . S
O606 Co602 2.004 1_655 S
O606 C611 1.259 . S
Co607 O608 2.061 . S
Co607 O613 2.052 . S
Co607 O615 2.135 1_655 S
O608 Co607 2.061 . S
O608 C611 1.235 . S
C609 O612 1.238 . S
C609 O613 1.241 . S
C610 O603 1.247 . S
C610 O604 1.261 . S
C611 O606 1.259 . S
C611 O608 1.235 . S
O612 Co602 2.021 1_655 S
O612 C609 1.238 . S
O613 Co607 2.052 . S
O613 C609 1.241 . S
O614 Co602 2.137 . S
O614 C605 1.247 . S
O615 Co602 2.244 . S
O615 C605 1.272 . S
O615 Co607 2.135 1_455 S
Co616 O617 2.216 1_545 S
Co616 O618 2.091 . S
Co616 O620 2.004 . S
Co616 O626 2.021 1_545 S
Co616 O628 2.137 . S
Co616 O629 2.244 1_545 S
O617 Co616 2.216 1_565 S
O617 C624 1.247 1_565 S
O618 Co616 2.091 . S
O618 C624 1.261 . S
C619 O628 1.247 . S
C619 O629 1.272 1_545 S
O620 Co616 2.004 . S
O620 C625 1.259 . S
Co621 O622 2.061 1_565 S
Co621 O627 2.052 . S
Co621 O629 2.135 . S
O622 Co621 2.061 1_545 S
O622 C625 1.235 . S
C623 O626 1.238 . S
C623 O627 1.241 . S
C624 O617 1.247 1_545 S
C624 O618 1.261 . S
C625 O620 1.259 . S
C625 O622 1.235 . S
O626 Co616 2.021 1_565 S
O626 C623 1.238 . S
O627 Co621 2.052 . S
O627 C623 1.241 . S
O628 Co616 2.137 . S
O628 C619 1.247 . S
O629 Co616 2.244 1_565 S
O629 C619 1.272 1_565 S
O629 Co621 2.135 . S
Co630 O631 2.216 . S
Co630 O632 2.091 . S
Co630 O634 2.004 . S
Co630 O640 2.021 1_556 S
Co630 O642 2.137 . S
Co630 O643 2.244 1_556 S
O631 Co630 2.216 . S
O631 C638 1.247 . S
O632 Co630 2.091 . S
O632 C638 1.261 . S
C633 O642 1.247 1_554 S
C633 O643 1.272 . S
O634 Co630 2.004 . S
O634 C639 1.259 1_556 S
Co635 O636 2.061 . S
Co635 O641 2.052 . S
Co635 O643 2.135 . S
O636 Co635 2.061 . S
O636 C639 1.235 . S
C637 O640 1.238 . S
C637 O641 1.241 . S
C638 O631 1.247 . S
C638 O632 1.261 . S
C639 O634 1.259 1_554 S
C639 O636 1.235 . S
O640 Co630 2.021 1_554 S
O640 C637 1.238 . S
O641 Co635 2.052 . S
O641 C637 1.241 . S
O642 Co630 2.137 . S
O642 C633 1.247 1_556 S
O643 Co630 2.244 1_554 S
O643 C633 1.272 . S
O643 Co635 2.135 . S
Co644 O645 2.216 . S
Co644 O646 2.091 . S
Co644 O648 2.004 . S
Co644 O654 2.021 . S
Co644 O656 2.137 . S
Co644 O657 2.244 . S
O645 Co644 2.216 . S
O645 C652 1.247 . S
O646 Co644 2.091 . S
O646 C652 1.261 . S
C647 O656 1.247 . S
C647 O657 1.272 . S
O648 Co644 2.004 . S
O648 C653 1.259 . S
Co649 O650 2.061 . S
Co649 O655 2.052 . S
Co649 O657 2.135 . S
O650 Co649 2.061 . S
O650 C653 1.235 . S
C651 O654 1.238 . S
C651 O655 1.241 . S
C652 O645 1.247 . S
C652 O646 1.261 . S
C653 O648 1.259 . S
C653 O650 1.235 . S
O654 Co644 2.021 . S
O654 C651 1.238 . S
O655 Co649 2.052 . S
O655 C651 1.241 . S
O656 Co644 2.137 . S
O656 C647 1.247 . S
O657 Co644 2.244 . S
O657 C647 1.272 . S
O657 Co649 2.135 . S
Co658 O659 2.216 . S
Co658 O660 2.091 . S
Co658 O662 2.004 . S
Co658 O668 2.021 . S
Co658 O670 2.137 . S
Co658 O671 2.244 . S
O659 Co658 2.216 . S
O659 C666 1.247 . S
O660 Co658 2.091 . S
O660 C666 1.261 . S
C661 O670 1.247 . S
C661 O671 1.272 . S
O662 Co658 2.004 . S
O662 C667 1.259 . S
Co663 O664 2.061 . S
Co663 O669 2.052 . S
Co663 O671 2.135 . S
O664 Co663 2.061 . S
O664 C667 1.235 . S
C665 O668 1.238 . S
C665 O669 1.241 . S
C666 O659 1.247 . S
C666 O660 1.261 . S
C667 O662 1.259 . S
C667 O664 1.235 . S
O668 Co658 2.021 . S
O668 C665 1.238 . S
O669 Co663 2.052 . S
O669 C665 1.241 . S
O670 Co658 2.137 . S
O670 C661 1.247 . S
O671 Co658 2.244 . S
O671 C661 1.272 . S
O671 Co663 2.135 . S
C385 C7 1.878 . S
C21 C541 1.006 . S
C35 C357 1.775 . S
C569 C49 1.831 . S
C399 C65 1.510 . S
C77 C315 1.878 . S
C427 C93 1.530 . S
C105 C287 1.775 . S
C499 C107 1.303 . S
C469 C63 0.623 . S
C79 C597 0.897 . S
C483 C91 1.416 . S
C121 C191 0.858 . S
C203 C135 0.776 . S
C219 C149 0.957 . S
C175 C163 0.983 . S
C189 C343 1.416 . S
C205 C555 0.580 . S
C371 C217 0.623 . S
C387 C233 0.897 . S
C245 C415 0.983 . S
C261 C51 0.591 . S
C275 C23 1.541 . S
C625 C301 1.831 . S
C653 C329 1.006 . S
C345 C119 1.530 . S
C373 C147 1.510 . S
C359 C611 1.303 . S
C471 C401 0.957 . S
C485 C429 0.858 . S
C455 C443 0.776 . S
C247 C639 1.450 . S
C513 C331 1.541 . S
C303 C527 0.591 . S
C665 C441 2.582 . S
C413 C637 1.243 . S
C133 C553 2.582 . S
C161 C581 1.243 . S
C177 C583 1.450 . S
C273 C539 1.225 . S
C259 C567 1.104 . S
C317 C595 1.273 . S
C289 C497 0.601 . S
C623 C525 1.104 . S
C651 C511 1.225 . S
C667 C457 0.580 . S
C609 C37 0.601 . S
C231 C9 1.273 . S
C8 C647 2.833 . S
C22 C666 3.166 . S
C36 C619 2.033 1_565 S
C50 C638 3.086 . S
C59 C134 2.530 . S
C78 C148 2.805 . S
C87 C162 2.753 . S
C106 C120 3.533 . S
C101 C549 3.663 . S
C64 C372 2.228 1_455 S
C73 C577 2.327 . S
C92 C344 2.924 1_665 S
C115 C325 2.135 . S
C129 C437 3.254 . S
C143 C297 3.662 . S
C409 C157 1.791 1_565 S
C176 C274 3.157 . S
C190 C232 2.205 . S
C269 C199 2.964 . S
C610 C218 3.263 . S
C213 C227 3.331 1_556 S
C512 C246 3.157 . S
C171 C255 2.562 1_554 S
C563 C288 2.033 1_565 S
C582 C302 3.086 . S
C316 C535 2.833 . S
C554 C330 3.166 . S
C339 C414 2.753 . S
C428 C358 3.533 . S
C367 C442 2.530 . S
C400 C386 2.805 . S
C381 C633 2.327 . S
C661 C353 3.663 . S
C395 C45 3.662 . S
C17 C423 2.135 . S
C526 C456 2.176 . S
C498 C470 3.263 . S
C241 C521 2.562 1_554 S
C484 C596 2.205 . S
C493 C479 3.017 . S
C204 C260 2.176 . S
C451 C507 2.964 . S
C652 C540 1.877 . S
C568 C624 2.520 1_565 S
C3 C311 3.049 1_455 S
C283 C31 2.383 1_445 S
C465 C591 3.331 1_556 S
C185 C605 3.017 . S
