# Generated by pormake.
# Topology umz, (4)-cn, num edge types: 1
# Building blocks:
#     Node 0, Type 0, BuildingBlock: QUQFOY_clean_sbu_3, # of connection points: 4
#     Node 1, Type 0, BuildingBlock: QUQFOY_clean_sbu_3, # of connection points: 4
#     Node 2, Type 0, BuildingBlock: QUQFOY_clean_sbu_3, # of connection points: 4
#     Node 3, Type 0, BuildingBlock: QUQFOY_clean_sbu_3, # of connection points: 4
#     Node 4, Type 0, BuildingBlock: QUQFOY_clean_sbu_3, # of connection points: 4
#     Node 5, Type 0, BuildingBlock: QUQFOY_clean_sbu_3, # of connection points: 4
#     Node 6, Type 0, BuildingBlock: QUQFOY_clean_sbu_3, # of connection points: 4
#     Node 7, Type 0, BuildingBlock: QUQFOY_clean_sbu_3, # of connection points: 4
#     Node 8, Type 0, BuildingBlock: QUQFOY_clean_sbu_3, # of connection points: 4
#     Node 9, Type 0, BuildingBlock: QUQFOY_clean_sbu_3, # of connection points: 4
#     Node 10, Type 0, BuildingBlock: QUQFOY_clean_sbu_3, # of connection points: 4
#     Node 11, Type 0, BuildingBlock: QUQFOY_clean_sbu_3, # of connection points: 4
#     Node 12, Type 0, BuildingBlock: QUQFOY_clean_sbu_3, # of connection points: 4
#     Node 13, Type 0, BuildingBlock: QUQFOY_clean_sbu_3, # of connection points: 4
#     Node 14, Type 0, BuildingBlock: QUQFOY_clean_sbu_3, # of connection points: 4
#     Node 15, Type 0, BuildingBlock: QUQFOY_clean_sbu_3, # of connection points: 4
#     Edge 16, Type (0, 0), BuildingBlock: UVAHIK_clean_linker_0, # of connection points: 2
#     Edge 17, Type (0, 0), BuildingBlock: UVAHIK_clean_linker_0, # of connection points: 2
#     Edge 18, Type (0, 0), BuildingBlock: UVAHIK_clean_linker_0, # of connection points: 2
#     Edge 19, Type (0, 0), BuildingBlock: UVAHIK_clean_linker_0, # of connection points: 2
#     Edge 20, Type (0, 0), BuildingBlock: UVAHIK_clean_linker_0, # of connection points: 2
#     Edge 21, Type (0, 0), BuildingBlock: UVAHIK_clean_linker_0, # of connection points: 2
#     Edge 22, Type (0, 0), BuildingBlock: UVAHIK_clean_linker_0, # of connection points: 2
#     Edge 23, Type (0, 0), BuildingBlock: UVAHIK_clean_linker_0, # of connection points: 2
#     Edge 24, Type (0, 0), BuildingBlock: UVAHIK_clean_linker_0, # of connection points: 2
#     Edge 25, Type (0, 0), BuildingBlock: UVAHIK_clean_linker_0, # of connection points: 2
#     Edge 26, Type (0, 0), BuildingBlock: UVAHIK_clean_linker_0, # of connection points: 2
#     Edge 27, Type (0, 0), BuildingBlock: UVAHIK_clean_linker_0, # of connection points: 2
#     Edge 28, Type (0, 0), BuildingBlock: UVAHIK_clean_linker_0, # of connection points: 2
#     Edge 29, Type (0, 0), BuildingBlock: UVAHIK_clean_linker_0, # of connection points: 2
#     Edge 30, Type (0, 0), BuildingBlock: UVAHIK_clean_linker_0, # of connection points: 2
#     Edge 31, Type (0, 0), BuildingBlock: UVAHIK_clean_linker_0, # of connection points: 2
#     Edge 32, Type (0, 0), BuildingBlock: UVAHIK_clean_linker_0, # of connection points: 2
#     Edge 33, Type (0, 0), BuildingBlock: UVAHIK_clean_linker_0, # of connection points: 2
#     Edge 34, Type (0, 0), BuildingBlock: UVAHIK_clean_linker_0, # of connection points: 2
#     Edge 35, Type (0, 0), BuildingBlock: UVAHIK_clean_linker_0, # of connection points: 2
#     Edge 36, Type (0, 0), BuildingBlock: UVAHIK_clean_linker_0, # of connection points: 2
#     Edge 37, Type (0, 0), BuildingBlock: UVAHIK_clean_linker_0, # of connection points: 2
#     Edge 38, Type (0, 0), BuildingBlock: UVAHIK_clean_linker_0, # of connection points: 2
#     Edge 39, Type (0, 0), BuildingBlock: UVAHIK_clean_linker_0, # of connection points: 2
#     Edge 40, Type (0, 0), BuildingBlock: UVAHIK_clean_linker_0, # of connection points: 2
#     Edge 41, Type (0, 0), BuildingBlock: UVAHIK_clean_linker_0, # of connection points: 2
#     Edge 42, Type (0, 0), BuildingBlock: UVAHIK_clean_linker_0, # of connection points: 2
#     Edge 43, Type (0, 0), BuildingBlock: UVAHIK_clean_linker_0, # of connection points: 2
#     Edge 44, Type (0, 0), BuildingBlock: UVAHIK_clean_linker_0, # of connection points: 2
#     Edge 45, Type (0, 0), BuildingBlock: UVAHIK_clean_linker_0, # of connection points: 2
#     Edge 46, Type (0, 0), BuildingBlock: UVAHIK_clean_linker_0, # of connection points: 2
#     Edge 47, Type (0, 0), BuildingBlock: UVAHIK_clean_linker_0, # of connection points: 2
# Relax obj value: 0.250
# Max RMSD: 0.160
# Mean RMSD: 0.160
data_MOF--net-umz--node1-QUQFOY_clean_sbu_3--edge1-UVAHIK_clean_linker_0
_symmetry_space_group_name_H-M    P1
_symmetry_Int_Tables_number       1
_symmetry_cell_setting            triclinic
loop_
_symmetry_equiv_pos_as_xyz
'x, y, z'
_cell_length_a     77.70573
_cell_length_b     77.366106
_cell_length_c     29.126213
_cell_angle_alpha  89.983667
_cell_angle_beta   90.057229
_cell_angle_gamma 90.054919
loop_
_atom_site_label
_atom_site_type_symbol
_atom_site_fract_x
_atom_site_fract_y
_atom_site_fract_z
_atom_type_partial_charge
C0 C 0.94138 0.59036 0.03896 0.0
O1 O 0.94313 0.57805 0.01053 0.0
Cd2 Cd 0.96863 0.5755 0.96368 0.0
O3 O 0.95189 0.60298 0.0388 0.0
Cd4 Cd 0.97671 0.61355 0.99396 0.0
C5 C -0.00052 0.5823 0.04673 0.0
O6 O 0.97387 0.60054 0.91723 0.0
O7 O -0.001 0.6098 0.93791 0.0
O8 O 0.96357 0.64125 0.97631 0.0
C9 C 0.98951 0.60344 0.90677 0.0
O10 O 0.99202 0.57189 0.01924 0.0
C11 C 0.97481 0.65027 -0.00294 0.0
O12 O -0.0042 0.59835 0.04662 0.0
O13 O 0.98677 0.64214 0.0176 0.0
C14 C 0.88866 0.97143 0.53758 0.0
O15 O 0.90023 0.97157 0.50682 0.0
Cd16 Cd 0.90466 -0.00363 0.45797 0.0
O17 O 0.87746 0.98342 0.53924 0.0
Cd18 Cd 0.86797 0.0093 0.49637 0.0
C19 C 0.90326 0.02789 0.54249 0.0
O20 O 0.87867 0.00372 0.41877 0.0
O21 O 0.87142 0.02996 0.43519 0.0
O22 O 0.83945 -0.0033 0.49279 0.0
C23 C 0.87695 0.01931 0.40565 0.0
O24 O 0.9118 0.01912 0.51326 0.0
C25 C 0.83166 0.00984 0.50858 0.0
O26 O 0.88695 0.02641 0.54535 0.0
O27 O 0.84084 0.02279 0.51971 0.0
C28 C 0.54129 0.89378 0.03694 0.0
O29 O 0.54033 0.90644 0.00929 0.0
Cd30 Cd 0.51592 0.91011 0.95874 0.0
O31 O 0.53031 0.8816 0.03482 0.0
Cd32 Cd 0.50539 0.87231 0.98858 0.0
C33 C 0.48365 0.90506 0.03859 0.0
O34 O 0.5103 0.88507 0.91244 0.0
O35 O 0.48448 0.87659 0.92906 0.0
O36 O 0.51796 0.84423 0.97347 0.0
C37 C 0.49482 0.88268 0.89954 0.0
O38 O 0.49203 0.91497 0.01169 0.0
C39 C 0.50615 0.83555 0.9929 0.0
O40 O 0.48643 0.88881 0.03907 0.0
O41 O 0.49399 0.84404 0.01142 0.0
C42 C 0.59733 0.52678 0.53592 0.0
O43 O 0.58533 0.52833 0.50658 0.0
Cd44 Cd 0.57702 0.5044 0.45821 0.0
O45 O 0.60689 0.51343 0.53583 0.0
Cd46 Cd 0.61223 0.48698 0.49058 0.0
C47 C 0.57619 0.47234 0.5414 0.0
O48 O 0.6007 0.49384 0.41427 0.0
O49 O 0.60458 0.46687 0.43101 0.0
O50 O 0.64155 0.49656 0.48024 0.0
C51 C 0.60011 0.4781 0.40163 0.0
O52 O 0.5683 0.48223 0.51339 0.0
C53 C 0.64859 0.48284 0.49508 0.0
O54 O 0.5926 0.47188 0.5425 0.0
O55 O 0.63862 0.47089 0.50903 0.0
C56 C 0.94823 0.89789 0.94536 0.0
O57 O 0.94972 0.90991 0.97483 0.0
Cd58 Cd 0.97292 0.91114 0.03028 0.0
O59 O 0.95816 0.88481 0.94678 0.0
Cd60 Cd 0.98167 0.87242 0.99311 0.0
C61 C 0.00648 0.9055 0.95409 0.0
O62 O 0.97547 0.88414 0.06926 0.0
O63 O 0.00025 0.87193 0.05937 0.0
O64 O 0.96671 0.84498 -0.00209 0.0
C65 C 0.98988 0.87958 0.08605 0.0
O66 O -0.00184 0.91516 0.98168 0.0
C67 C 0.97858 0.83615 0.97933 0.0
O68 O 0.00274 0.88952 0.94983 0.0
O69 O 0.99186 0.84432 0.96582 0.0
C70 C 0.59372 0.96134 0.45181 0.0
O71 O 0.58186 0.9604 0.48166 0.0
Cd72 Cd 0.57536 0.98474 0.53047 0.0
O73 O 0.60394 0.97421 0.45144 0.0
Cd74 Cd 0.61073 0.00035 0.49658 0.0
C75 C 0.57511 0.01703 0.44824 0.0
O76 O 0.59992 0.99376 0.57395 0.0
O77 O 0.60462 0.02058 0.55699 0.0
O78 O 0.63985 0.98968 0.50398 0.0
C79 C 0.60031 0.00947 0.58685 0.0
O80 O 0.56695 0.00749 0.47651 0.0
C81 C 0.64714 0.00333 0.48953 0.0
O82 O 0.5915 0.01661 0.44619 0.0
O83 O 0.63741 0.01569 0.47709 0.0
C84 C 0.54671 0.59193 0.95301 0.0
O85 O 0.54607 0.57944 0.98127 0.0
Cd86 Cd 0.52195 0.57555 0.03276 0.0
O87 O 0.5354 0.6038 0.95438 0.0
Cd88 Cd 0.51009 0.61269 -0.00073 0.0
C89 C 0.48927 0.57839 0.95325 0.0
O90 O 0.51554 0.60105 0.07646 0.0
O91 O 0.48953 0.60886 0.05974 0.0
O92 O 0.52178 0.6414 0.01092 0.0
C93 C 0.50006 0.60323 0.08945 0.0
O94 O 0.498 0.56919 0.98109 0.0
C95 C 0.50966 0.64935 0.99067 0.0
O96 O 0.49159 0.59469 0.95084 0.0
O97 O 0.49772 0.64017 0.97338 0.0
C98 C 0.88592 0.52216 0.45198 0.0
O99 O 0.89819 0.52309 0.48074 0.0
Cd100 Cd 0.90457 0.49957 0.53293 0.0
O101 O 0.87552 0.50945 0.45312 0.0
Cd102 Cd 0.869 0.48315 0.4974 0.0
C103 C 0.90561 0.46724 0.45148 0.0
O104 O 0.87949 0.4906 0.5742 0.0
O105 O 0.87471 0.46359 0.56004 0.0
O106 O 0.83964 0.49339 0.50007 0.0
C107 C 0.87923 0.47509 0.58864 0.0
O108 O 0.91354 0.47637 0.48117 0.0
C109 C 0.83282 0.47949 0.48568 0.0
O110 O 0.88927 0.46794 0.4476 0.0
O111 O 0.84291 0.46706 0.47616 0.0
C112 C 0.04386 0.40311 0.94882 0.0
O113 O 0.04202 0.41585 0.9759 0.0
Cd114 Cd 0.01806 0.41834 0.0286 0.0
O115 O 0.03377 0.39018 0.95133 0.0
Cd116 Cd 0.00934 0.37942 -0.00305 0.0
C117 C 0.9852 0.41173 0.9511 0.0
O118 O 0.01476 0.39241 0.07251 0.0
O119 O 0.98989 0.38046 0.06097 0.0
O120 O 0.02336 0.35168 0.00754 0.0
C121 C 7e-05 0.38816 0.08814 0.0
O122 O -0.00669 0.42189 0.97791 0.0
C123 C 0.01155 0.34284 0.98856 0.0
O124 O 0.98889 0.39568 0.94942 0.0
O125 O -0.00119 0.35112 0.97218 0.0
C126 C 0.09656 0.02079 0.44728 0.0
O127 O 0.08422 0.0212 0.47584 0.0
Cd128 Cd 0.07883 -0.00254 0.52802 0.0
O129 O 0.10755 0.00863 0.44892 0.0
Cd130 Cd 0.11475 0.98303 0.49542 0.0
C131 C 0.07967 0.96464 0.44828 0.0
O132 O 0.10369 0.98995 0.57228 0.0
O133 O 0.10882 0.9631 0.55681 0.0
O134 O 0.14365 0.99429 0.50277 0.0
C135 C 0.10442 0.97436 0.58612 0.0
O136 O 0.07114 0.97346 0.47737 0.0
C137 C 0.15121 0.98069 0.48913 0.0
O138 O 0.09594 0.96633 0.44475 0.0
O139 O 0.14172 0.96807 0.47707 0.0
C140 C 0.44554 0.09281 0.9495 0.0
O141 O 0.44619 0.08121 0.98033 0.0
Cd142 Cd 0.47044 0.07873 0.03185 0.0
O143 O 0.45655 0.10501 0.94902 0.0
Cd144 Cd 0.48088 0.1163 0.99472 0.0
C145 C 0.50294 0.08252 0.95124 0.0
O146 O 0.4758 0.10505 0.07215 0.0
O147 O 0.50155 0.11377 0.05596 0.0
O148 O 0.4671 0.14412 0.00415 0.0
C149 C 0.49117 0.10772 0.08546 0.0
O150 O 0.49449 0.07332 0.97973 0.0
C151 C 0.47889 0.15286 0.98478 0.0
O152 O 0.50015 0.09872 0.94763 0.0
O153 O 0.49163 0.14449 0.96879 0.0
C154 C 0.38988 0.46449 0.4519 0.0
O155 O 0.40217 0.46245 0.48017 0.0
Cd156 Cd 0.41029 0.48521 0.53296 0.0
O157 O 0.38041 0.47786 0.45421 0.0
Cd158 Cd 0.37571 0.50397 0.50081 0.0
C159 C 0.41279 0.51872 0.45479 0.0
O160 O 0.3862 0.49522 0.57693 0.0
O161 O 0.38231 0.52251 0.56447 0.0
O162 O 0.34602 0.49489 0.50493 0.0
C163 C 0.38649 0.51062 0.59225 0.0
O164 O 0.42025 0.50824 0.48206 0.0
C165 C 0.33962 0.5091 0.49145 0.0
O166 O 0.3964 0.51942 0.45256 0.0
O167 O 0.3501 0.5212 0.48168 0.0
C168 C 0.03928 0.09478 0.03957 0.0
O169 O 0.03705 0.08308 0.00955 0.0
Cd170 Cd 0.01163 0.08226 0.96181 0.0
O171 O 0.02932 0.10781 0.04099 0.0
Cd172 Cd 0.00498 0.12046 -0.00197 0.0
C173 C 0.98107 0.08883 0.04599 0.0
O174 O 0.0075 0.10859 0.92016 0.0
O175 O 0.98288 0.11915 0.94044 0.0
O176 O 0.01965 0.14776 0.9853 0.0
C177 C 0.9921 0.11243 0.90932 0.0
O178 O 0.98822 0.07872 0.0172 0.0
C179 C 0.00874 0.1569 0.0068 0.0
O180 O 0.98523 0.10476 0.04806 0.0
O181 O -0.00378 0.14898 0.02546 0.0
C182 C 0.38967 0.02326 0.53474 0.0
O183 O 0.40155 0.02418 0.5049 0.0
Cd184 Cd 0.4073 0.00059 0.45241 0.0
O185 O 0.37918 0.01062 0.53438 0.0
Cd186 Cd 0.37172 0.98454 0.49021 0.0
C187 C 0.40859 0.96786 0.53316 0.0
O188 O 0.38188 0.99153 0.41259 0.0
O189 O 0.37586 0.96482 0.42774 0.0
O190 O 0.34246 -0.00487 0.48822 0.0
C191 C 0.38085 0.97596 0.39873 0.0
O192 O 0.41633 0.97751 0.50428 0.0
C193 C 0.33561 0.98142 0.50378 0.0
O194 O 0.39224 0.96829 0.53714 0.0
O195 O 0.34567 0.96902 0.51389 0.0
C196 C 0.43791 0.39738 0.03469 0.0
O197 O 0.43894 0.40955 0.00553 0.0
Cd198 Cd 0.46418 0.41335 0.95828 0.0
O199 O 0.44915 0.38543 0.03522 0.0
Cd200 Cd 0.4746 0.37576 0.99163 0.0
C201 C 0.4952 0.40903 0.0425 0.0
O202 O 0.47103 0.38811 0.91454 0.0
O203 O 0.4966 0.38012 0.93496 0.0
O204 O 0.46244 0.34749 0.97583 0.0
C205 C 0.48678 0.38604 0.90395 0.0
O206 O 0.48714 0.4186 0.01407 0.0
C207 C 0.47406 0.33899 -0.00337 0.0
O208 O 0.4926 0.39275 0.04363 0.0
O209 O 0.48584 0.34768 0.01639 0.0
C210 C 0.10206 0.46936 0.53661 0.0
O211 O 0.09058 0.4681 0.5057 0.0
Cd212 Cd 0.08365 0.49219 0.45633 0.0
O213 O 0.11197 0.48247 0.53787 0.0
Cd214 Cd 0.11907 0.50888 0.49421 0.0
C215 C 0.08233 0.52396 0.54057 0.0
O216 O 0.10854 0.50236 0.41694 0.0
O217 O 0.11339 0.52918 0.43352 0.0
O218 O 0.14811 0.49822 0.48792 0.0
C219 C 0.10867 0.51808 0.40406 0.0
O220 O 0.07476 0.51431 0.51136 0.0
C221 C 0.1554 0.51172 0.50336 0.0
O222 O 0.09872 0.52418 0.54371 0.0
O223 O 0.14567 0.52407 0.51592 0.0
C224 C 0.96295 0.67791 0.96589 0.0
C225 C 0.97438 0.66935 -0.00443 0.0
C226 C 0.96313 0.69591 0.96246 0.0
C227 C 0.99068 0.73401 0.9864 0.0
H228 H 0.94796 0.75912 0.97007 0.0
C229 C 0.96375 0.80834 -0.00235 0.0
C230 C 0.97732 0.81713 0.97596 0.0
C231 C 0.96312 0.79031 -0.00247 0.0
C232 C 0.96001 0.75234 0.97495 0.0
H233 H -0.0053 0.67296 0.04572 0.0
H234 H -0.00532 0.70442 0.04082 0.0
H235 H 0.94733 0.72784 0.97781 0.0
H236 H 0.00059 0.81394 0.93585 0.0
H237 H -0.00074 0.78243 0.93455 0.0
H238 H 0.00329 0.75858 0.98542 0.0
C239 C 0.98586 0.69721 0.01927 0.0
C240 C 0.95967 0.73435 0.97881 0.0
C241 C 0.98579 0.67919 0.02238 0.0
C242 C 0.99002 0.80752 0.95306 0.0
C243 C 0.98931 0.78946 0.95263 0.0
C244 C 0.99101 0.75202 0.9829 0.0
C245 C 0.97463 0.70579 0.98896 0.0
C246 C 0.975 0.72495 0.98471 0.0
C247 C 0.97597 0.78063 0.97537 0.0
C248 C 0.97567 0.76142 0.97728 0.0
H249 H 0.95408 0.67068 0.94452 0.0
H250 H 0.95447 0.70203 0.93827 0.0
H251 H 0.00277 0.7272 0.9902 0.0
H252 H 0.95381 0.81536 0.0158 0.0
H253 H 0.9528 0.78397 0.01598 0.0
C254 C 0.67409 0.0211 0.48561 0.0
C255 C 0.66608 0.00488 0.48943 0.0
C256 C 0.69199 0.02256 0.48935 0.0
C257 C 0.72994 -0.0015 0.53345 0.0
H258 H 0.75583 0.03092 0.459 0.0
C259 C 0.8033 0.99468 0.50861 0.0
C260 C 0.81271 0.01014 0.51201 0.0
C261 C 0.78535 0.99492 0.50915 0.0
C262 C 0.74872 0.02196 0.48037 0.0
H263 H 0.67052 0.97741 0.49827 0.0
H264 H 0.70165 0.97985 0.50312 0.0
H265 H 0.72456 0.02951 0.45133 0.0
H266 H 0.81073 0.03797 0.51908 0.0
H267 H 0.7792 0.03839 0.51927 0.0
H268 H 0.7542 0.9906 0.5613 0.0
C269 C 0.69417 0.99155 0.49881 0.0
C270 C 0.73081 0.02115 0.47607 0.0
C271 C 0.67632 0.99012 0.49561 0.0
C272 C 0.8038 0.02585 0.51654 0.0
C273 C 0.7858 0.02611 0.51638 0.0
C274 C 0.74783 -0.00082 0.53733 0.0
C275 C 0.70223 0.00781 0.49653 0.0
C276 C 0.72121 0.00927 0.5022 0.0
C277 C 0.77643 0.01064 0.51248 0.0
C278 C 0.75739 0.0108 0.51054 0.0
H279 H 0.66651 0.03271 0.48107 0.0
H280 H 0.69773 0.03531 0.48781 0.0
H281 H 0.72296 0.98951 0.55501 0.0
H282 H 0.80981 0.98237 0.50512 0.0
H283 H 0.77843 0.98282 0.50573 0.0
C284 C 0.51859 0.80758 0.96604 0.0
C285 C 0.50642 0.81645 0.99274 0.0
C286 C 0.51871 0.78955 0.96478 0.0
C287 C 0.52286 0.75182 0.9882 0.0
H288 H 0.48004 0.72606 0.98935 0.0
C289 C 0.5215 0.67812 0.01343 0.0
C290 C 0.50933 0.66844 0.98865 0.0
C291 C 0.52099 0.69614 0.01297 0.0
C292 C 0.49211 0.73305 0.9885 0.0
H293 H 0.4849 0.8134 0.03935 0.0
H294 H 0.48539 0.78185 0.03818 0.0
H295 H 0.47935 0.75754 0.98978 0.0
H296 H 0.4872 0.67006 0.94347 0.0
H297 H 0.48656 0.70161 0.94172 0.0
H298 H 0.53563 0.7274 0.98545 0.0
C299 C 0.49462 0.78884 0.0174 0.0
C300 C 0.49172 0.75111 0.98943 0.0
C301 C 0.49441 0.80691 0.01836 0.0
C302 C 0.49673 0.67717 0.96302 0.0
C303 C 0.49629 0.69525 0.96229 0.0
C304 C 0.52324 0.73379 0.98695 0.0
C305 C 0.50677 0.77994 0.99053 0.0
C306 C 0.5071 0.76072 0.98944 0.0
C307 C 0.50839 0.70495 0.98741 0.0
C308 C 0.50789 0.72417 0.98734 0.0
H309 H 0.52793 0.81457 0.94558 0.0
H310 H 0.52805 0.78317 0.94306 0.0
H311 H 0.53496 0.75876 0.98872 0.0
H312 H 0.53131 0.67178 0.0338 0.0
H313 H 0.53033 0.70316 0.03338 0.0
C314 C 0.67798 0.4952 0.48492 0.0
C315 C 0.6675 0.48084 0.49434 0.0
C316 C 0.69577 0.49337 0.48151 0.0
C317 C 0.73204 0.46447 0.51117 0.0
H318 H 0.75572 0.49252 0.4206 0.0
C319 C 0.80595 0.46164 0.47892 0.0
C320 C 0.81395 0.47792 0.48117 0.0
C321 C 0.78798 0.46037 0.47725 0.0
C322 C 0.74926 0.4846 0.44599 0.0
H323 H 0.66746 0.45331 0.50816 0.0
H324 H 0.69865 0.45001 0.50134 0.0
H325 H 0.72441 0.49313 0.42443 0.0
H326 H 0.80952 0.5056 0.48223 0.0
H327 H 0.77828 0.50336 0.47837 0.0
H328 H 0.75709 0.45595 0.53242 0.0
C329 C 0.69309 0.46275 0.49723 0.0
C330 C 0.73134 0.48501 0.44844 0.0
C331 C 0.67523 0.46462 0.50103 0.0
C332 C 0.80372 0.49287 0.48062 0.0
C333 C 0.78584 0.4916 0.47817 0.0
C334 C 0.75001 0.46392 0.50835 0.0
C335 C 0.70356 0.4771 0.48694 0.0
C336 C 0.72252 0.4753 0.48181 0.0
C337 C 0.77779 0.47536 0.47687 0.0
C338 C 0.75878 0.47429 0.47643 0.0
H339 H 0.67243 0.5079 0.47998 0.0
H340 H 0.70344 0.50479 0.47476 0.0
H341 H 0.72569 0.45691 0.53746 0.0
H342 H 0.81354 0.44991 0.47945 0.0
H343 H 0.78205 0.4477 0.47612 0.0
C344 C 0.02503 0.31495 0.01256 0.0
C345 C 0.01225 0.32375 0.98773 0.0
C346 C 0.02512 0.29692 0.0144 0.0
C347 C 0.0277 0.25861 0.99484 0.0
H348 H 0.98403 0.23457 0.00361 0.0
C349 C 0.02248 0.18444 0.98088 0.0
C350 C 0.01014 0.17595 0.00796 0.0
C351 C 0.02312 0.20246 0.97939 0.0
C352 C -0.00365 0.24108 0.00172 0.0
H353 H 0.98979 0.32057 0.9443 0.0
H354 H 0.99019 0.28906 0.94645 0.0
H355 H 0.98445 0.26595 -0.00141 0.0
H356 H 0.9891 0.17967 0.05578 0.0
H357 H 0.9905 0.21116 0.05418 0.0
H358 H 0.03963 0.23378 -0.00045 0.0
C359 C -8e-05 0.29609 0.96545 0.0
C360 C -0.00342 0.25908 -0.00192 0.0
C361 C -0.00023 0.31415 0.9639 0.0
C362 C -0.00129 0.18585 0.0344 0.0
C363 C -0.00057 0.2039 0.03319 0.0
C364 C 0.02748 0.24062 -0.00119 0.0
C365 C 0.01249 0.28725 0.99114 0.0
C366 C 0.01226 0.26807 0.99449 0.0
C367 C 0.01152 0.21243 0.00524 0.0
C368 C 0.0118 0.23162 0.00218 0.0
H369 H 0.03478 0.32198 0.03151 0.0
H370 H 0.03484 0.29058 0.03505 0.0
H371 H 0.04 0.26508 0.99166 0.0
H372 H 0.03142 0.17717 0.95991 0.0
H373 H 0.03244 0.20856 0.95699 0.0
C374 C 0.30647 0.99482 0.50667 0.0
C375 C 0.31675 0.97992 0.50832 0.0
C376 C 0.28858 0.99352 0.5084 0.0
C377 C 0.25321 0.96483 0.47979 0.0
H378 H 0.22653 -0.00453 0.55729 0.0
C379 C 0.1785 0.96346 0.48534 0.0
C380 C 0.17018 0.9795 0.4895 0.0
C381 C 0.19642 0.96235 0.48937 0.0
C382 C 0.23377 0.98696 0.53502 0.0
H383 H 0.31641 0.95196 0.51348 0.0
H384 H 0.28495 0.94968 0.5157 0.0
H385 H 0.25781 -0.00444 0.5628 0.0
H386 H 0.17409 0.007 0.4994 0.0
H387 H 0.20523 0.00517 0.50493 0.0
H388 H 0.22922 0.95664 0.4508 0.0
C389 C 0.29083 0.96234 0.5133 0.0
C390 C 0.25167 0.98695 0.53844 0.0
C391 C 0.30879 0.96366 0.51228 0.0
C392 C 0.18012 0.99443 0.49644 0.0
C393 C 0.19798 0.99335 0.50003 0.0
C394 C 0.23526 0.96496 0.476 0.0
C395 C 0.28058 0.97727 0.5112 0.0
C396 C 0.26157 0.97607 0.51042 0.0
C397 C 0.20635 0.97728 0.49731 0.0
C398 C 0.22534 0.97624 0.50307 0.0
H399 H 0.31224 0.00753 0.50368 0.0
H400 H 0.28097 0.00522 0.5063 0.0
H401 H 0.26058 0.95642 0.45753 0.0
H402 H 0.17115 0.95172 0.48019 0.0
H403 H 0.20242 0.94975 0.48741 0.0
C404 C 0.49048 0.18153 0.95889 0.0
C405 C 0.47801 0.17193 0.98276 0.0
C406 C 0.48992 0.19961 0.95882 0.0
C407 C 0.46075 0.23657 0.98274 0.0
H408 H 0.50342 0.26231 0.99253 0.0
C409 C 0.48608 0.31056 0.02262 0.0
C410 C 0.47415 0.31989 -0.00383 0.0
C411 C 0.48648 0.2925 0.02071 0.0
C412 C 0.49137 0.25532 0.99026 0.0
H413 H 0.45515 0.17375 0.02519 0.0
H414 H 0.45438 0.20513 0.02593 0.0
H415 H 0.50419 0.23087 0.98952 0.0
H416 H 0.45334 0.31763 0.94685 0.0
H417 H 0.45427 0.28626 0.9427 0.0
H418 H 0.44787 0.26094 0.9852 0.0
C419 C 0.4644 0.19878 0.00641 0.0
C420 C 0.49182 0.23728 0.98781 0.0
C421 C 0.4649 0.18076 0.0062 0.0
C422 C 0.4626 0.31081 0.96794 0.0
C423 C 0.46309 0.29279 0.96573 0.0
C424 C 0.46028 0.25458 0.98551 0.0
C425 C 0.47692 0.20846 0.98286 0.0
C426 C 0.47651 0.22768 0.98413 0.0
C427 C 0.47504 0.28339 0.99203 0.0
C428 C 0.47558 0.2642 0.98933 0.0
H429 H 0.50072 0.17509 0.94039 0.0
H430 H 0.49962 0.20663 0.93975 0.0
H431 H 0.44871 0.22962 0.97932 0.0
H432 H 0.49511 0.3172 0.04481 0.0
H433 H 0.49566 0.28568 0.042 0.0
C434 C 0.31003 0.49676 0.48834 0.0
C435 C 0.3208 0.51135 0.48816 0.0
C436 C 0.29221 0.49863 0.48691 0.0
C437 C 0.25746 0.52755 0.51795 0.0
H438 H 0.23061 0.49884 0.43551 0.0
C439 C 0.18258 0.52912 0.51056 0.0
C440 C 0.17436 0.51309 0.50433 0.0
C441 C 0.20052 0.53041 0.50733 0.0
C442 C 0.23789 0.50683 0.4591 0.0
H443 H 0.32137 0.53936 0.48633 0.0
H444 H 0.28995 0.54264 0.48468 0.0
H445 H 0.26188 0.49853 0.43067 0.0
H446 H 0.17849 0.48577 0.49188 0.0
H447 H 0.20961 0.48791 0.48761 0.0
H448 H 0.23347 0.53539 0.54753 0.0
C449 C 0.29544 0.52978 0.48563 0.0
C450 C 0.25579 0.50671 0.45609 0.0
C451 C 0.31336 0.52789 0.48633 0.0
C452 C 0.18442 0.49834 0.49637 0.0
C453 C 0.20228 0.4996 0.49352 0.0
C454 C 0.23949 0.52755 0.52129 0.0
C455 C 0.28473 0.51513 0.48587 0.0
C456 C 0.26576 0.51681 0.48601 0.0
C457 C 0.21054 0.51568 0.49805 0.0
C458 C 0.22952 0.5169 0.4925 0.0
H459 H 0.31538 0.48384 0.4897 0.0
H460 H 0.28424 0.48713 0.4876 0.0
H461 H 0.26489 0.53538 0.5416 0.0
H462 H 0.17513 0.54072 0.5166 0.0
H463 H 0.20647 0.543 0.51084 0.0
C464 C 0.98734 0.58871 0.83009 0.0
C465 C -0.00295 0.59794 0.86258 0.0
C466 C -0.00488 0.58248 0.79004 0.0
C467 C 0.03448 0.58681 0.71807 0.0
H468 H 0.02454 0.53934 0.68461 0.0
C469 C 0.07945 0.54539 0.60495 0.0
C470 C 0.07174 0.53445 0.57232 0.0
C471 C 0.06932 0.55454 0.63627 0.0
C472 C 0.02729 0.55269 0.69309 0.0
H473 H 0.02237 0.60834 0.87795 0.0
H474 H 0.03589 0.59731 0.80898 0.0
H475 H 0.00818 0.55306 0.74586 0.0
H476 H 0.04727 0.52492 0.54639 0.0
H477 H 0.02972 0.54086 0.60095 0.0
H478 H 0.05396 0.58622 0.6661 0.0
C479 C 0.02226 0.59504 0.81382 0.0
C480 C 0.01787 0.56058 0.7281 0.0
C481 C 0.01451 0.60125 0.85364 0.0
C482 C 0.05368 0.53316 0.57115 0.0
C483 C 0.04359 0.54223 0.60255 0.0
C484 C 0.04395 0.57889 0.68322 0.0
C485 C 0.01274 0.58539 0.78179 0.0
C486 C 0.02153 0.57765 0.74148 0.0
C487 C 0.05129 0.55288 0.63573 0.0
C488 C 0.0406 0.56168 0.67077 0.0
H489 H 0.97384 0.58601 0.83599 0.0
H490 H 0.98739 0.57525 0.76576 0.0
H491 H 0.03742 0.60007 0.72701 0.0
H492 H 0.09331 0.54669 0.60678 0.0
H493 H 0.07563 0.56254 0.66176 0.0
C494 C 0.96576 0.06383 0.08221 0.0
C495 C 0.96809 0.08178 0.07811 0.0
C496 C 0.95405 0.05708 0.11384 0.0
C497 C 0.93144 0.0688 0.22076 0.0
H498 H 0.90515 0.02717 0.19587 0.0
C499 C 0.88227 0.04312 0.34981 0.0
C500 C 0.88392 0.02558 0.3615 0.0
C501 C 0.89067 0.04979 0.31143 0.0
C502 C 0.91247 0.03876 0.20326 0.0
H503 H 0.95953 0.10676 0.10294 0.0
H504 H 0.9388 0.09501 0.15737 0.0
H505 H 0.92327 0.03961 0.1357 0.0
H506 H 0.89487 0.00104 0.34065 0.0
H507 H 0.90961 0.01276 0.2732 0.0
H508 H 0.92066 0.06798 0.28819 0.0
C509 C 0.94633 0.08611 0.13693 0.0
C510 C 0.92288 0.04587 0.16892 0.0
C511 C 0.95816 0.09286 0.10556 0.0
C512 C 0.89339 0.01462 0.33254 0.0
C513 C 0.90178 0.02131 0.2939 0.0
C514 C 0.92096 0.06178 0.25485 0.0
C515 C 0.94429 0.06813 0.14187 0.0
C516 C 0.93257 0.06093 0.17739 0.0
C517 C 0.90086 0.03906 0.28376 0.0
C518 C 0.91143 0.04666 0.24656 0.0
H519 H 0.97325 0.05491 0.06169 0.0
H520 H 0.95301 0.04318 0.11715 0.0
H521 H 0.93899 0.08017 0.22889 0.0
H522 H 0.87491 0.05188 0.37114 0.0
H523 H 0.88949 0.06346 0.30395 0.0
C524 C 0.47116 0.88544 0.84229 0.0
C525 C 0.48843 0.88841 0.85424 0.0
C526 C 0.46444 0.89196 0.80146 0.0
C527 C 0.47122 0.92696 0.71867 0.0
H528 H 0.43555 0.90278 0.65094 0.0
C529 C 0.43702 0.95749 0.56281 0.0
C530 C 0.41894 0.95657 0.56356 0.0
C531 C 0.44686 0.94763 0.59319 0.0
C532 C 0.44547 0.90969 0.6696 0.0
H533 H 0.51241 0.9 0.8319 0.0
H534 H 0.50067 0.91131 0.75989 0.0
H535 H 0.45103 0.88786 0.71217 0.0
H536 H 0.39705 0.94417 0.59603 0.0
H537 H 0.41427 0.92696 0.64915 0.0
H538 H 0.46547 0.94886 0.67649 0.0
C539 C 0.49228 0.90411 0.7826 0.0
C540 C 0.45434 0.90117 0.70464 0.0
C541 C 0.49903 0.89756 0.82366 0.0
C542 C 0.41094 0.94521 0.59458 0.0
C543 C 0.4208 0.93527 0.62481 0.0
C544 C 0.46242 0.93545 0.68344 0.0
C545 C 0.47483 0.90158 0.77139 0.0
C546 C 0.46705 0.90983 0.73029 0.0
C547 C 0.43885 0.93656 0.62481 0.0
C548 C 0.44922 0.92701 0.6592 0.0
H549 H 0.46263 0.87842 0.86506 0.0
H550 H 0.4509 0.88999 0.79435 0.0
H551 H 0.48076 0.9341 0.73811 0.0
H552 H 0.44363 0.96605 0.53927 0.0
H553 H 0.46075 0.94875 0.59211 0.0
C554 C 0.50931 0.43516 0.07669 0.0
C555 C 0.50755 0.41707 0.07486 0.0
C556 C 0.5207 0.44285 0.10768 0.0
C557 C 0.55895 0.43407 0.17866 0.0
H558 H 0.54276 0.4727 0.25158 0.0
C559 C 0.59189 0.4551 0.34591 0.0
C560 C 0.59229 0.47271 0.35764 0.0
C561 C 0.58312 0.44952 0.30687 0.0
C562 C 0.54762 0.46215 0.23091 0.0
H563 H 0.51654 0.39288 0.10395 0.0
H564 H 0.53641 0.40634 0.15813 0.0
H565 H 0.5242 0.46045 0.19242 0.0
H566 H 0.58438 0.49839 0.33664 0.0
H567 H 0.56914 0.48862 0.26776 0.0
H568 H 0.58229 0.43563 0.21742 0.0
C569 C 0.52905 0.41454 0.13527 0.0
C570 C 0.53696 0.45509 0.19711 0.0
C571 C 0.51758 0.40684 0.10444 0.0
C572 C 0.58425 0.48473 0.32852 0.0
C573 C 0.57544 0.47912 0.28929 0.0
C574 C 0.56964 0.44117 0.2123 0.0
C575 C 0.53066 0.43263 0.13736 0.0
C576 C 0.54241 0.4408 0.17116 0.0
C577 C 0.57457 0.46141 0.27844 0.0
C578 C 0.56399 0.4551 0.23938 0.0
H579 H 0.50181 0.44344 0.05438 0.0
H580 H 0.52179 0.4568 0.10821 0.0
H581 H 0.56361 0.42325 0.15863 0.0
H582 H 0.59797 0.4455 0.3676 0.0
H583 H 0.58252 0.43578 0.29996 0.0
C584 C 0.07741 0.94831 0.37437 0.0
C585 C 0.07028 0.95297 0.41685 0.0
C586 C 0.06789 0.9385 0.34307 0.0
C587 C 0.02282 0.92592 0.31583 0.0
H588 H 0.04571 0.89504 0.23098 0.0
C589 C 0.99024 0.901 0.15022 0.0
C590 C -0.0043 0.88519 0.13179 0.0
C591 C -0.00193 0.90762 0.18975 0.0
C592 C 0.03897 0.90334 0.25486 0.0
H593 H 0.04792 0.95037 0.4608 0.0
H594 H 0.0316 0.93266 0.40715 0.0
H595 H 0.06218 0.90881 0.29132 0.0
H596 H 0.01255 0.86323 0.14173 0.0
H597 H 0.02552 0.87421 0.21199 0.0
H598 H -0.00053 0.91993 0.28031 0.0
C599 C 0.04428 0.93707 0.39713 0.0
C600 C 0.04854 0.91153 0.28909 0.0
C601 C 0.05369 0.94712 0.42808 0.0
C602 C 0.00826 0.87556 0.15508 0.0
C603 C 0.01581 0.88197 0.19508 0.0
C604 C 0.01317 0.9175 0.28201 0.0
C605 C 0.05113 0.93286 0.35387 0.0
C606 C 0.04067 0.92317 0.31955 0.0
C607 C 0.01129 0.89838 0.21205 0.0
C608 C 0.02116 0.90629 0.25059 0.0
H609 H 0.09011 0.95275 0.3646 0.0
H610 H 0.07352 0.93581 0.30986 0.0
H611 H 0.01629 0.93494 0.33825 0.0
H612 H 0.98065 0.90872 0.13262 0.0
H613 H -0.00566 0.92036 0.20135 0.0
C614 C 0.51761 0.05594 0.92183 0.0
C615 C 0.51568 0.07402 0.92097 0.0
C616 C 0.5289 0.04772 0.89167 0.0
C617 C 0.56612 0.055 0.81565 0.0
H618 H 0.54779 0.01598 0.74772 0.0
C619 C 0.59433 0.03268 0.64391 0.0
C620 C 0.59393 0.01506 0.63226 0.0
C621 C 0.5869 0.03848 0.6846 0.0
C622 C 0.55328 0.02661 0.76701 0.0
H623 H 0.52451 0.09767 0.88852 0.0
H624 H 0.54421 0.08327 0.83574 0.0
H625 H 0.53077 0.02897 0.80874 0.0
H626 H 0.5861 0.98957 0.65511 0.0
H627 H 0.57323 -0.00028 0.72686 0.0
H628 H 0.58854 0.05281 0.7735 0.0
C629 C 0.53703 0.07549 0.86001 0.0
C630 C 0.54349 0.0341 0.8019 0.0
C631 C 0.52566 0.08373 0.89005 0.0
C632 C 0.58654 0.00324 0.6631 0.0
C633 C 0.57909 0.00907 0.70401 0.0
C634 C 0.57596 0.04745 0.78094 0.0
C635 C 0.53859 0.05739 0.86013 0.0
C636 C 0.54966 0.04858 0.82596 0.0
C637 C 0.57893 0.0268 0.71481 0.0
C638 C 0.5695 0.0334 0.75553 0.0
H639 H 0.5102 0.04805 0.94532 0.0
H640 H 0.52998 0.03377 0.89287 0.0
H641 H 0.57131 0.06598 0.83416 0.0
H642 H 0.59997 0.04213 0.62094 0.0
H643 H 0.58682 0.05224 0.6914 0.0
C644 C 0.41574 0.54179 0.39463 0.0
C645 C 0.42342 0.52974 0.42436 0.0
C646 C 0.42583 0.55157 0.36454 0.0
C647 C 0.46712 0.55028 0.30408 0.0
H648 H 0.45738 0.5985 0.27887 0.0
C649 C 0.50436 0.58813 0.16502 0.0
C650 C 0.49385 0.59768 0.13507 0.0
C651 C 0.49764 0.58156 0.20609 0.0
C652 C 0.46024 0.58503 0.28545 0.0
H653 H 0.44782 0.51882 0.44647 0.0
H654 H 0.46533 0.53586 0.39397 0.0
H655 H 0.44168 0.58358 0.33964 0.0
H656 H 0.46832 0.60847 0.12553 0.0
H657 H 0.45664 0.59692 0.19632 0.0
H658 H 0.48524 0.55152 0.24896 0.0
C659 C 0.4515 0.53764 0.39372 0.0
C660 C 0.45123 0.57649 0.32021 0.0
C661 C 0.44144 0.52794 0.42393 0.0
C662 C 0.47675 0.60111 0.14778 0.0
C663 C 0.47008 0.5946 0.18866 0.0
C664 C 0.47607 0.5588 0.26918 0.0
C665 C 0.4438 0.54945 0.36342 0.0
C666 C 0.45435 0.55895 0.32931 0.0
C667 C 0.48033 0.58451 0.21796 0.0
C668 C 0.47248 0.57617 0.25884 0.0
H669 H 0.40191 0.54352 0.39409 0.0
H670 H 0.41951 0.56044 0.34122 0.0
H671 H 0.46969 0.53671 0.30999 0.0
H672 H 0.5176 0.58533 0.15617 0.0
H673 H 0.50592 0.57398 0.22821 0.0
C674 C 0.96877 0.43686 0.91926 0.0
C675 C 0.97176 0.41893 0.92047 0.0
C676 C 0.95678 0.44387 0.88878 0.0
C677 C 0.91938 0.43318 0.81614 0.0
H678 H 0.93453 0.47239 0.74361 0.0
C679 C 0.88704 0.45259 0.64636 0.0
C680 C 0.88649 0.47011 0.63369 0.0
C681 C 0.89546 0.44745 0.68638 0.0
C682 C 0.92992 0.46168 0.76416 0.0
H683 H 0.96411 0.39428 0.89136 0.0
H684 H 0.94317 0.40657 0.83803 0.0
H685 H 0.95304 0.46112 0.80403 0.0
H686 H 0.8936 0.49608 0.65422 0.0
H687 H 0.90812 0.48711 0.72482 0.0
H688 H 0.89632 0.43362 0.77596 0.0
C689 C 0.95008 0.41516 0.86092 0.0
C690 C 0.94057 0.45518 0.79871 0.0
C691 C 0.96215 0.40814 0.89127 0.0
C692 C 0.8939 0.48248 0.66297 0.0
C693 C 0.90231 0.47732 0.70322 0.0
C694 C 0.90867 0.43975 0.78175 0.0
C695 C 0.94743 0.43313 0.85897 0.0
C696 C 0.93554 0.4407 0.82457 0.0
C697 C 0.90347 0.4597 0.71491 0.0
C698 C 0.91394 0.45389 0.75479 0.0
H699 H 0.97587 0.44558 0.94137 0.0
H700 H 0.95488 0.45774 0.88842 0.0
H701 H 0.91506 0.42217 0.83601 0.0
H702 H 0.88144 0.44273 0.62459 0.0
H703 H 0.89628 0.43376 0.69389 0.0
C704 C -0.00127 0.40967 0.15204 0.0
C705 C -0.006 0.39359 0.13373 0.0
C706 C 0.99055 0.41597 0.19142 0.0
C707 C 0.94983 0.40962 0.25614 0.0
H708 H 0.97076 0.44233 0.33997 0.0
C709 C 0.90891 0.45162 0.37682 0.0
C710 C 0.91574 0.45646 0.41955 0.0
C711 C 0.91902 0.44269 0.3451 0.0
C712 C 0.96474 0.433 0.31739 0.0
H713 H 0.97818 0.37086 0.14368 0.0
H714 H 0.9647 0.38126 0.21373 0.0
H715 H 0.98837 0.4284 0.28187 0.0
H716 H 0.93827 0.45512 0.46339 0.0
H717 H 0.95567 0.4389 0.40894 0.0
H718 H 0.92638 0.41366 0.2926 0.0
C719 C 0.97403 0.38948 0.19683 0.0
C720 C 0.97482 0.42519 0.2835 0.0
C721 C 0.98188 0.38341 0.15696 0.0
C722 C 0.9327 0.4517 0.43052 0.0
C723 C 0.94272 0.44251 0.39911 0.0
C724 C 0.93984 0.41718 0.29043 0.0
C725 C 0.97775 0.40612 0.21366 0.0
C726 C 0.96745 0.41356 0.25201 0.0
C727 C 0.93611 0.4381 0.35568 0.0
C728 C 0.94707 0.42919 0.32108 0.0
H729 H 0.00797 0.4178 0.13443 0.0
H730 H -0.00632 0.42889 0.20295 0.0
H731 H 0.94354 0.40099 0.23216 0.0
H732 H 0.89594 0.45525 0.36721 0.0
H733 H 0.91354 0.43983 0.31176 0.0
C734 C 0.02947 0.90322 0.89379 0.0
C735 C 0.02001 0.91334 0.92489 0.0
C736 C 0.04123 0.91096 0.86384 0.0
C737 C 0.04899 0.95205 0.8057 0.0
H738 H 0.09295 0.93162 0.77418 0.0
C739 C 0.09147 0.98113 0.66303 0.0
C740 C 0.09825 0.96904 0.63199 0.0
C741 C 0.08429 0.97563 0.70461 0.0
C742 C 0.08068 0.93745 0.78247 0.0
H743 H 0.01602 0.93947 0.95006 0.0
H744 H 0.03647 0.95287 0.89775 0.0
H745 H 0.07583 0.91914 0.83615 0.0
H746 H 0.10345 0.9418 0.62095 0.0
H747 H 0.0907 0.93224 0.69248 0.0
H748 H 0.05341 0.96992 0.75103 0.0
C749 C 0.03467 0.939 0.8963 0.0
C750 C 0.0709 0.9303 0.81797 0.0
C751 C 0.023 0.93127 0.92637 0.0
C752 C 0.0983 0.95146 0.64406 0.0
C753 C 0.0911 0.94597 0.68538 0.0
C754 C 0.0587 0.95912 0.77001 0.0
C755 C 0.0437 0.92897 0.86424 0.0
C756 C 0.05483 0.93736 0.82943 0.0
C757 C 0.08375 0.95794 0.71586 0.0
C758 C 0.07451 0.95172 0.75738 0.0
H759 H 0.02751 0.88938 0.8918 0.0
H760 H 0.04792 0.90292 0.8392 0.0
H761 H 0.03656 0.95765 0.8134 0.0
H762 H 0.09134 0.99479 0.65477 0.0
H763 H 0.07894 0.98521 0.72764 0.0
C764 C 0.57379 0.03981 0.3869 0.0
C765 C 0.56528 0.02839 0.41679 0.0
C766 C 0.56441 0.05009 0.35632 0.0
C767 C 0.5232 0.05143 0.29522 0.0
H768 H 0.53555 0.09919 0.27173 0.0
C769 C 0.48698 0.09208 0.1602 0.0
C770 C 0.49758 0.1016 0.1304 0.0
C771 C 0.49378 0.08483 0.20033 0.0
C772 C 0.53198 0.08584 0.27775 0.0
H773 H 0.5402 0.01903 0.43843 0.0
H774 H 0.52393 0.03692 0.38504 0.0
H775 H 0.55061 0.08306 0.33153 0.0
H776 H 0.52341 0.1116 0.12026 0.0
H777 H 0.53524 0.09879 0.18943 0.0
H778 H 0.50497 0.05397 0.24061 0.0
C779 C 0.53785 0.03784 0.38509 0.0
C780 C 0.54062 0.07662 0.31197 0.0
C781 C 0.54719 0.02765 0.41581 0.0
C782 C 0.51489 0.1043 0.14243 0.0
C783 C 0.52167 0.09705 0.18237 0.0
C784 C 0.51463 0.06062 0.26084 0.0
C785 C 0.54636 0.04908 0.35482 0.0
C786 C 0.53648 0.05925 0.32062 0.0
C787 C 0.51129 0.08697 0.21141 0.0
C788 C 0.5191 0.07785 0.25121 0.0
H789 H 0.5877 0.04072 0.38677 0.0
H790 H 0.57134 0.0585 0.33303 0.0
H791 H 0.51985 0.038 0.30076 0.0
H792 H 0.47357 0.08984 0.15192 0.0
H793 H 0.48539 0.07732 0.22232 0.0
C794 C 0.40173 0.50258 0.66535 0.0
C795 C 0.39347 0.51502 0.63799 0.0
C796 C 0.40991 0.50747 0.70621 0.0
C797 C 0.4139 0.54376 0.78977 0.0
H798 H 0.46032 0.52647 0.80601 0.0
C799 C 0.46557 0.57973 0.89477 0.0
C800 C 0.47654 0.56988 0.92284 0.0
C801 C 0.4539 0.5716 0.8653 0.0
C802 C 0.44728 0.53123 0.80239 0.0
H803 H 0.38659 0.54214 0.63299 0.0
H804 H 0.40095 0.55063 0.70334 0.0
H805 H 0.44209 0.51426 0.74608 0.0
H806 H 0.48367 0.54375 0.94234 0.0
H807 H 0.46336 0.52963 0.8907 0.0
H808 H 0.41938 0.56117 0.84504 0.0
C809 C 0.40102 0.5371 0.69386 0.0
C810 C 0.4368 0.52419 0.76815 0.0
C811 C 0.3929 0.53224 0.65321 0.0
C812 C 0.47544 0.55174 0.92114 0.0
C813 C 0.46385 0.54362 0.89144 0.0
C814 C 0.42441 0.55086 0.82381 0.0
C815 C 0.40991 0.52485 0.72045 0.0
C816 C 0.42012 0.53063 0.76079 0.0
C817 C 0.45302 0.55346 0.86306 0.0
C818 C 0.44133 0.5449 0.82985 0.0
H819 H 0.40233 0.4892 0.65453 0.0
H820 H 0.41649 0.49769 0.72624 0.0
H821 H 0.40099 0.54879 0.78556 0.0
H822 H 0.46607 0.59372 0.89526 0.0
H823 H 0.44584 0.57952 0.8434 0.0
C824 C 0.90364 0.05038 0.6045 0.0
C825 C 0.91262 0.03929 0.57482 0.0
C826 C 0.91251 0.06035 0.6368 0.0
C827 C 0.95616 0.07621 0.66908 0.0
H828 H 0.93598 0.07868 0.79056 0.0
C829 C -0.00674 0.09665 0.83398 0.0
C830 C 0.98426 0.10706 0.86534 0.0
C831 C 0.98494 0.09014 0.79497 0.0
C832 C 0.94169 0.0783 0.75666 0.0
H833 H 0.93802 0.03026 0.55516 0.0
H834 H 0.95339 0.04728 0.61208 0.0
H835 H 0.92044 0.06416 0.72925 0.0
H836 H 0.95982 0.11961 0.8791 0.0
H837 H 0.94543 0.1083 0.8113 0.0
H838 H 0.97767 0.09 0.69734 0.0
C839 C 0.93953 0.04856 0.60993 0.0
C840 C 0.93276 0.07002 0.72143 0.0
C841 C 0.93068 0.0387 0.57743 0.0
C842 C 0.96707 0.11146 0.85589 0.0
C843 C 0.95879 0.10494 0.81714 0.0
C844 C 0.96517 0.08441 0.70453 0.0
C845 C 0.93055 0.05935 0.6404 0.0
C846 C 0.93987 0.06883 0.6772 0.0
C847 C 0.96749 0.09389 0.78685 0.0
C848 C 0.95801 0.08553 0.74866 0.0
H849 H 0.88974 0.05126 0.60313 0.0
H850 H 0.90521 0.06877 0.65918 0.0
H851 H 0.96192 0.07571 0.63527 0.0
H852 H 0.00652 0.09307 0.84034 0.0
H853 H 0.99194 0.08159 0.77224 0.0
C854 C 0.39799 0.98124 0.32693 0.0
C855 C 0.38774 0.97027 0.35398 0.0
C856 C 0.40646 0.97478 0.28813 0.0
C857 C 0.42399 0.93389 0.24642 0.0
H858 H 0.42888 0.95739 0.12961 0.0
C859 C 0.45994 0.90207 0.09642 0.0
C860 C 0.47094 0.91268 0.0705 0.0
C861 C 0.44842 0.90932 0.12776 0.0
C862 C 0.42776 0.95074 0.16219 0.0
H863 H 0.37734 0.94431 0.35983 0.0
H864 H 0.39198 0.93317 0.29235 0.0
H865 H 0.41099 0.97017 0.18974 0.0
H866 H 0.47826 0.93928 0.05673 0.0
H867 H 0.4585 0.95184 0.11212 0.0
H868 H 0.44101 0.91472 0.21989 0.0
C869 C 0.39376 0.94663 0.3015 0.0
C870 C 0.41749 0.95806 0.19652 0.0
C871 C 0.38533 0.95305 0.34005 0.0
C872 C 0.46994 0.93071 0.07606 0.0
C873 C 0.45851 0.93795 0.10764 0.0
C874 C 0.43431 0.92666 0.21237 0.0
C875 C 0.40482 0.95726 0.27592 0.0
C876 C 0.41547 0.94966 0.23891 0.0
C877 C 0.44773 0.92734 0.1342 0.0
C878 C 0.43632 0.93496 0.1698 0.0
H879 H 0.40007 0.99457 0.33685 0.0
H880 H 0.41494 0.98326 0.26903 0.0
H881 H 0.42296 0.92729 0.27911 0.0
H882 H 0.46027 0.88815 0.09267 0.0
H883 H 0.44007 0.90078 0.14703 0.0
C884 C 0.51155 0.38956 0.85049 0.0
C885 C 0.49403 0.39225 0.86006 0.0
C886 C 0.51903 0.39659 0.81125 0.0
C887 C 0.51365 0.43234 0.72987 0.0
H888 H 0.54983 0.40855 0.66351 0.0
C889 C 0.54794 0.46292 0.57427 0.0
C890 C 0.566 0.46165 0.57368 0.0
C891 C 0.53824 0.45337 0.60563 0.0
C892 C 0.53981 0.41538 0.68189 0.0
H893 H 0.47046 0.40394 0.83512 0.0
H894 H 0.48356 0.41616 0.76594 0.0
H895 H 0.53391 0.39333 0.72335 0.0
H896 H 0.58799 0.4491 0.60523 0.0
H897 H 0.57102 0.43247 0.66019 0.0
H898 H 0.5197 0.45445 0.68879 0.0
C899 C 0.49153 0.40876 0.78928 0.0
C900 C 0.53068 0.40667 0.71611 0.0
C901 C 0.484 0.40168 0.8287 0.0
C902 C 0.57412 0.45038 0.60474 0.0
C903 C 0.56439 0.44077 0.63604 0.0
C904 C 0.52274 0.44103 0.69555 0.0
C905 C 0.50919 0.40649 0.78049 0.0
C906 C 0.51767 0.41514 0.74099 0.0
C907 C 0.54636 0.44228 0.63705 0.0
C908 C 0.53608 0.43271 0.67164 0.0
H909 H 0.51964 0.38233 0.87394 0.0
H910 H 0.5327 0.39478 0.80594 0.0
H911 H 0.5039 0.43933 0.74885 0.0
H912 H 0.54123 0.47142 0.55076 0.0
H913 H 0.52436 0.45465 0.60522 0.0
C914 C 0.09167 0.51211 0.33243 0.0
C915 C 0.10083 0.52373 0.36036 0.0
C916 C 0.0824 0.51815 0.29444 0.0
C917 C 0.06066 0.55745 0.25585 0.0
H918 H 0.05809 0.53466 0.13754 0.0
C919 C 0.02228 0.58693 0.1064 0.0
C920 C 0.0124 0.57556 0.07952 0.0
C921 C 0.0342 0.58052 0.13803 0.0
C922 C 0.05855 0.54107 0.17055 0.0
H923 H 0.10839 0.55057 0.36876 0.0
H924 H 0.09235 0.561 0.30261 0.0
H925 H 0.07726 0.52325 0.1969 0.0
H926 H 0.0074 0.54853 0.06455 0.0
H927 H 0.02788 0.53739 0.12042 0.0
H928 H 0.04176 0.57502 0.23034 0.0
C929 C 0.09204 0.54731 0.31046 0.0
C930 C 0.06955 0.53455 0.20444 0.0
C931 C 0.10129 0.54131 0.34823 0.0
C932 C 0.01483 0.55766 0.08462 0.0
C933 C 0.02667 0.55125 0.11646 0.0
C934 C 0.04963 0.56389 0.22219 0.0
C935 C 0.08214 0.53589 0.2839 0.0
C936 C 0.07073 0.54273 0.24737 0.0
C937 C 0.03642 0.56261 0.14376 0.0
C938 C 0.04844 0.55581 0.1791 0.0
H939 H 0.09109 0.4985 0.34094 0.0
H940 H 0.07483 0.50906 0.2746 0.0
H941 H 0.06103 0.56382 0.28895 0.0
H942 H 0.02083 0.60079 0.10306 0.0
H943 H 0.0417 0.58964 0.15795 0.0
C944 C 0.89695 0.54804 0.40882 0.0
C945 C 0.88493 0.53454 0.41318 0.0
C946 C 0.89793 0.55764 0.36814 0.0
C947 C 0.89203 0.55042 0.24699 0.0
H948 H 0.9006 0.59952 0.23381 0.0
C949 C 0.91527 0.57672 0.07441 0.0
C950 C 0.92876 0.58877 0.07679 0.0
C951 C 0.90535 0.57303 0.11328 0.0
C952 C 0.89834 0.58576 0.23685 0.0
H953 H 0.8636 0.52149 0.37949 0.0
H954 H 0.86553 0.53808 0.30862 0.0
H955 H 0.89193 0.58789 0.30836 0.0
H956 H 0.94174 0.60718 0.12106 0.0
H957 H 0.92515 0.60025 0.18892 0.0
H958 H 0.89953 0.54783 0.17706 0.0
C959 C 0.87424 0.54115 0.33655 0.0
C960 C 0.89328 0.57916 0.27953 0.0
C961 C 0.87314 0.53168 0.37726 0.0
C962 C 0.93142 0.59783 0.118 0.0
C963 C 0.92177 0.5939 0.15706 0.0
C964 C 0.89736 0.55693 0.20467 0.0
C965 C 0.88701 0.55381 0.33102 0.0
C966 C 0.89034 0.56138 0.28512 0.0
C967 C 0.90898 0.58102 0.1557 0.0
C968 C 0.90094 0.57465 0.19911 0.0
H969 H 0.90617 0.55065 0.43587 0.0
H970 H 0.90795 0.5673 0.36471 0.0
H971 H 0.8901 0.53661 0.25045 0.0
H972 H 0.91276 0.56968 0.04296 0.0
H973 H 0.89527 0.56343 0.11039 0.0
C974 C 0.89967 0.94366 0.57103 0.0
C975 C 0.88942 0.95852 0.57506 0.0
C976 C 0.90238 0.93289 0.60896 0.0
C977 C 0.88902 0.92541 0.73158 0.0
H978 H 0.93632 0.91018 0.7435 0.0
C979 C 0.92518 0.91422 0.90314 0.0
C980 C 0.93648 0.90005 0.90564 0.0
C981 C 0.91629 0.91781 0.86245 0.0
C982 C 0.92298 0.91409 0.74043 0.0
H983 H 0.87332 0.97329 0.62147 0.0
H984 H 0.87859 0.9551 0.68769 0.0
H985 H 0.92668 0.92279 0.67174 0.0
H986 H 0.94637 0.87791 0.8682 0.0
H987 H 0.93105 0.88439 0.79723 0.0
H988 H 0.88587 0.91764 0.80186 0.0
C989 C 0.88421 0.95135 0.6552 0.0
C990 C 0.91738 0.92126 0.69909 0.0
C991 C 0.88125 0.9619 0.61712 0.0
C992 C 0.93786 0.88898 0.86749 0.0
C993 C 0.92914 0.8927 0.82673 0.0
C994 C 0.89474 0.91849 0.77329 0.0
C995 C 0.8952 0.93695 0.65203 0.0
C996 C 0.9004 0.92732 0.69424 0.0
C997 C 0.91866 0.90742 0.82341 0.0
C998 C 0.91185 0.91299 0.77824 0.0
H999 H 0.90598 0.94059 0.53891 0.0
H1000 H 0.91053 0.92167 0.60474 0.0
H1001 H 0.87576 0.92958 0.72898 0.0
H1002 H 0.92377 0.92296 0.93192 0.0
H1003 H 0.90835 0.92929 0.86072 0.0
C1004 C 0.55216 0.88219 0.11176 0.0
C1005 C 0.55349 0.8944 0.0761 0.0
C1006 C 0.56088 0.88471 0.15318 0.0
C1007 C 0.5659 0.90388 0.24319 0.0
H1008 H 0.61216 0.92149 0.26039 0.0
C1009 C 0.58516 0.93302 0.41641 0.0
C1010 C 0.59443 0.94858 0.41397 0.0
C1011 C 0.58377 0.9223 0.3779 0.0
C1012 C 0.59917 0.91668 0.25621 0.0
H1013 H 0.56632 0.91795 0.05453 0.0
H1014 H 0.58165 0.92224 0.12683 0.0
H1015 H 0.60348 0.91025 0.18543 0.0
H1016 H 0.61031 0.96462 0.36993 0.0
H1017 H 0.60731 0.94648 0.30267 0.0
H1018 H 0.56099 0.91131 0.31234 0.0
C1019 C 0.57377 0.91079 0.12272 0.0
C1020 C 0.59426 0.91015 0.21331 0.0
C1021 C 0.56492 0.90836 0.08136 0.0
C1022 C 0.60307 0.95271 0.37304 0.0
C1023 C 0.60144 0.94217 0.33436 0.0
C1024 C 0.57068 0.91064 0.28573 0.0
C1025 C 0.57126 0.89937 0.15965 0.0
C1026 C 0.57747 0.904 0.2062 0.0
C1027 C 0.59134 0.92707 0.33581 0.0
C1028 C 0.58726 0.91752 0.29262 0.0
H1029 H 0.54359 0.87119 0.10883 0.0
H1030 H 0.55889 0.8756 0.18093 0.0
H1031 H 0.55278 0.89947 0.23855 0.0
H1032 H 0.57854 0.92937 0.44766 0.0
H1033 H 0.57629 0.91054 0.3808 0.0
C1034 C 0.60736 0.53468 0.61471 0.0
C1035 C 0.59881 0.53936 0.57402 0.0
C1036 C 0.60617 0.54502 0.65386 0.0
C1037 C 0.5764 0.57705 0.70382 0.0
H1038 H 0.60892 0.57552 0.80484 0.0
C1039 C 0.55796 0.60402 0.87917 0.0
C1040 C 0.559 0.59149 0.9141 0.0
C1041 C 0.56677 0.60176 0.83785 0.0
C1042 C 0.59979 0.57616 0.77677 0.0
H1043 H 0.58368 0.55939 0.54121 0.0
H1044 H 0.58224 0.57786 0.60889 0.0
H1045 H 0.61746 0.56477 0.72931 0.0
H1046 H 0.57145 0.5676 0.93455 0.0
H1047 H 0.58689 0.56372 0.86236 0.0
H1048 H 0.55869 0.58822 0.75135 0.0
C1049 C 0.58928 0.56582 0.61124 0.0
C1050 C 0.60461 0.56992 0.73354 0.0
C1051 C 0.5902 0.5553 0.57226 0.0
C1052 C 0.57027 0.57744 0.90829 0.0
C1053 C 0.57919 0.57525 0.86698 0.0
C1054 C 0.5717 0.58351 0.74671 0.0
C1055 C 0.59664 0.56047 0.65313 0.0
C1056 C 0.59278 0.56977 0.69682 0.0
C1057 C 0.57694 0.58702 0.83069 0.0
C1058 C 0.58316 0.58269 0.78396 0.0
H1059 H 0.6141 0.52247 0.6173 0.0
H1060 H 0.61188 0.54029 0.68535 0.0
H1061 H 0.56676 0.57691 0.67697 0.0
H1062 H 0.54956 0.61511 0.88259 0.0
H1063 H 0.565 0.61115 0.81065 0.0
C1064 C 0.09344 0.44107 0.57207 0.0
C1065 C 0.10247 0.45677 0.57489 0.0
C1066 C 0.09149 0.43062 0.61093 0.0
C1067 C 0.10457 0.42621 0.73499 0.0
H1068 H 0.05806 0.40867 0.74708 0.0
C1069 C 0.06726 0.41853 0.90556 0.0
C1070 C 0.05625 0.40419 0.91023 0.0
C1071 C 0.07662 0.42103 0.86508 0.0
C1072 C 0.07121 0.4132 0.74404 0.0
H1073 H 0.11741 0.47329 0.62006 0.0
H1074 H 0.11343 0.45561 0.68778 0.0
H1075 H 0.06759 0.41997 0.67381 0.0
H1076 H 0.0475 0.38057 0.8773 0.0
H1077 H 0.06364 0.38513 0.80667 0.0
H1078 H 0.10755 0.42046 0.80669 0.0
C1079 C 0.10817 0.451 0.65561 0.0
C1080 C 0.07675 0.41963 0.70181 0.0
C1081 C 0.11038 0.46126 0.61663 0.0
C1082 C 0.05574 0.39183 0.87482 0.0
C1083 C 0.06495 0.39443 0.83425 0.0
C1084 C 0.09889 0.42003 0.77754 0.0
C1085 C 0.09823 0.4358 0.6537 0.0
C1086 C 0.09339 0.4266 0.69686 0.0
C1087 C 0.07503 0.40933 0.82842 0.0
C1088 C 0.08204 0.41377 0.7826 0.0
H1089 H 0.08738 0.43714 0.54023 0.0
H1090 H 0.08417 0.41876 0.60771 0.0
H1091 H 0.11759 0.43111 0.73238 0.0
H1092 H 0.06802 0.42825 0.93224 0.0
H1093 H 0.08424 0.43268 0.8614 0.0
C1094 C 0.06473 0.0794 0.07342 0.0
C1095 C 0.05185 0.09203 0.07712 0.0
C1096 C 0.07459 0.07478 0.11172 0.0
C1097 C 0.08293 0.08595 0.23573 0.0
H1098 H 0.08943 0.03642 0.24567 0.0
C1099 C 0.08511 0.04678 0.40544 0.0
C1100 C 0.09701 0.03315 0.40836 0.0
C1101 C 0.08373 0.05657 0.36519 0.0
C1102 C 0.08797 0.05032 0.2432 0.0
H1103 H 0.03986 0.11041 0.12332 0.0
H1104 H 0.05636 0.10191 0.19014 0.0
H1105 H 0.07972 0.04868 0.17359 0.0
H1106 H 0.11759 0.01989 0.37227 0.0
H1107 H 0.11493 0.0368 0.30204 0.0
H1108 H 0.09012 0.08718 0.30689 0.0
C1109 C 0.05931 0.0958 0.15767 0.0
C1110 C 0.08248 0.05742 0.20166 0.0
C1111 C 0.04972 0.10065 0.1192 0.0
C1112 C 0.10821 0.03023 0.3712 0.0
C1113 C 0.10668 0.03986 0.33086 0.0
C1114 C 0.08814 0.07877 0.27763 0.0
C1115 C 0.07152 0.08242 0.15487 0.0
C1116 C 0.07957 0.07531 0.19746 0.0
C1117 C 0.0941 0.05279 0.327 0.0
C1118 C 0.09046 0.06085 0.28187 0.0
H1119 H 0.06682 0.07267 0.0413 0.0
H1120 H 0.08421 0.06478 0.10776 0.0
H1121 H 0.0812 0.09981 0.23371 0.0
H1122 H 0.07635 0.04942 0.43347 0.0
H1123 H 0.07386 0.06642 0.36301 0.0
C1124 C 0.40153 0.04889 0.57744 0.0
C1125 C 0.38925 0.0356 0.57369 0.0
C1126 C 0.40297 0.05848 0.61802 0.0
C1127 C 0.39731 0.05181 0.73986 0.0
H1128 H 0.40694 0.10078 0.75115 0.0
C1129 C 0.41974 0.0791 0.91249 0.0
C1130 C 0.4335 0.09085 0.91038 0.0
C1131 C 0.41022 0.07516 0.87305 0.0
C1132 C 0.40438 0.08706 0.74862 0.0
H1133 H 0.36798 0.02291 0.60846 0.0
H1134 H 0.37067 0.03951 0.6791 0.0
H1135 H 0.39809 0.08893 0.67697 0.0
H1136 H 0.44745 0.10841 0.86576 0.0
H1137 H 0.43147 0.10107 0.79703 0.0
H1138 H 0.40459 0.04949 0.81011 0.0
C1139 C 0.37924 0.0424 0.6508 0.0
C1140 C 0.39923 0.08032 0.70615 0.0
C1141 C 0.3777 0.03293 0.61022 0.0
C1142 C 0.4369 0.09931 0.86865 0.0
C1143 C 0.42761 0.09515 0.82909 0.0
C1144 C 0.4027 0.05845 0.78201 0.0
C1145 C 0.39224 0.05488 0.65565 0.0
C1146 C 0.39588 0.06258 0.70126 0.0
C1147 C 0.41448 0.08262 0.83039 0.0
C1148 C 0.40661 0.07612 0.7869 0.0
H1149 H 0.41058 0.05134 0.54993 0.0
H1150 H 0.41316 0.06799 0.6209 0.0
H1151 H 0.39507 0.03803 0.73696 0.0
H1152 H 0.41667 0.07252 0.94427 0.0
H1153 H 0.39989 0.06582 0.87578 0.0
C1154 C 0.42818 0.38934 0.11357 0.0
C1155 C 0.42531 0.39856 0.07269 0.0
C1156 C 0.41873 0.3931 0.15307 0.0
C1157 C 0.39535 0.43018 0.20244 0.0
H1158 H 0.39073 0.39921 0.30644 0.0
C1159 C 0.37553 0.45608 0.37823 0.0
C1160 C 0.3877 0.45244 0.41272 0.0
C1161 C 0.37543 0.44672 0.33727 0.0
C1162 C 0.39184 0.40796 0.27755 0.0
H1163 H 0.40903 0.41765 0.03986 0.0
H1164 H 0.39195 0.42365 0.10817 0.0
H1165 H 0.39799 0.3875 0.23096 0.0
H1166 H 0.40836 0.43513 0.43261 0.0
H1167 H 0.4081 0.41872 0.36098 0.0
H1168 H 0.38939 0.45062 0.24909 0.0
C1169 C 0.40203 0.41404 0.11038 0.0
C1170 C 0.39608 0.4013 0.23432 0.0
C1171 C 0.41172 0.4105 0.07104 0.0
C1172 C 0.39888 0.43834 0.40668 0.0
C1173 C 0.39868 0.42888 0.36574 0.0
C1174 C 0.39086 0.43677 0.24535 0.0
C1175 C 0.40596 0.40598 0.1525 0.0
C1176 C 0.39844 0.4124 0.19645 0.0
C1177 C 0.38737 0.4334 0.33 0.0
C1178 C 0.38953 0.42581 0.28362 0.0
H1179 H 0.43855 0.38003 0.1161 0.0
H1180 H 0.4223 0.38667 0.18467 0.0
H1181 H 0.39734 0.43926 0.17466 0.0
H1182 H 0.3666 0.46674 0.38182 0.0
H1183 H 0.36644 0.45034 0.31048 0.0
loop_
_geom_bond_atom_site_label_1
_geom_bond_atom_site_label_2
_geom_bond_distance
_geom_bond_site_symmetry_2
_ccdc_geom_bond_type
C0 O1 1.306 . S
C0 O3 1.160 . S
O1 C0 1.306 . S
O1 Cd2 2.228 1_655 S
Cd2 O1 2.228 1_455 S
Cd2 O6 2.273 . S
Cd2 O10 2.277 . S
O3 C0 1.160 . S
O3 Cd4 2.203 1_655 S
Cd4 O3 2.203 1_455 S
Cd4 O6 2.411 . S
Cd4 O7 2.333 . S
Cd4 O8 2.388 . S
Cd4 O12 2.277 . S
Cd4 O13 2.356 . S
C5 O10 1.209 . S
C5 O12 1.226 . S
O6 Cd2 2.273 . S
O6 Cd4 2.411 . S
O6 C9 1.320 . S
O7 Cd4 2.333 . S
O7 C9 1.214 . S
O8 Cd4 2.388 . S
O8 C11 1.292 . S
C9 O6 1.320 . S
C9 O7 1.214 . S
O10 Cd2 2.277 . S
O10 C5 1.209 . S
C11 O8 1.292 . S
C11 O13 1.282 . S
O12 Cd4 2.277 . S
O12 C5 1.226 . S
O13 Cd4 2.356 . S
O13 C11 1.282 . S
C14 O15 1.306 . S
C14 O17 1.160 . S
O15 C14 1.306 . S
O15 Cd16 2.228 1_565 S
Cd16 O15 2.228 1_545 S
Cd16 O20 2.273 . S
Cd16 O24 2.277 . S
O17 C14 1.160 . S
O17 Cd18 2.203 1_565 S
Cd18 O17 2.203 1_545 S
Cd18 O20 2.411 . S
Cd18 O21 2.333 . S
Cd18 O22 2.352 . S
Cd18 O26 2.277 . S
Cd18 O27 2.356 . S
C19 O24 1.209 . S
C19 O26 1.226 . S
O20 Cd16 2.273 . S
O20 Cd18 2.411 . S
O20 C23 1.320 . S
O21 Cd18 2.333 . S
O21 C23 1.214 . S
O22 Cd18 2.352 . S
O22 C25 1.258 . S
C23 O20 1.320 . S
C23 O21 1.214 . S
O24 Cd16 2.277 . S
O24 C19 1.209 . S
C25 O22 1.258 . S
C25 O27 1.282 . S
O26 Cd18 2.277 . S
O26 C19 1.226 . S
O27 Cd18 2.356 . S
O27 C25 1.282 . S
C28 O29 1.306 . S
C28 O31 1.160 . S
O29 C28 1.306 . S
O29 Cd30 2.228 . S
Cd30 O29 2.228 . S
Cd30 O34 2.273 . S
Cd30 O38 2.277 . S
O31 C28 1.160 . S
O31 Cd32 2.203 . S
Cd32 O31 2.203 . S
Cd32 O34 2.411 . S
Cd32 O35 2.333 . S
Cd32 O36 2.352 . S
Cd32 O40 2.277 . S
Cd32 O41 2.356 . S
C33 O38 1.209 . S
C33 O40 1.226 . S
O34 Cd30 2.273 . S
O34 Cd32 2.411 . S
O34 C37 1.320 . S
O35 Cd32 2.333 . S
O35 C37 1.214 . S
O36 Cd32 2.352 . S
O36 C39 1.258 . S
C37 O34 1.320 . S
C37 O35 1.214 . S
O38 Cd30 2.277 . S
O38 C33 1.209 . S
C39 O36 1.258 . S
C39 O41 1.282 . S
O40 Cd32 2.277 . S
O40 C33 1.226 . S
O41 Cd32 2.356 . S
O41 C39 1.282 . S
C42 O43 1.306 . S
C42 O45 1.160 . S
O43 C42 1.306 . S
O43 Cd44 2.228 . S
Cd44 O43 2.228 . S
Cd44 O48 2.273 . S
Cd44 O52 2.277 . S
O45 C42 1.160 . S
O45 Cd46 2.203 . S
Cd46 O45 2.203 . S
Cd46 O48 2.411 . S
Cd46 O49 2.333 . S
Cd46 O50 2.352 . S
Cd46 O54 2.277 . S
Cd46 O55 2.356 . S
C47 O52 1.209 . S
C47 O54 1.226 . S
O48 Cd44 2.273 . S
O48 Cd46 2.411 . S
O48 C51 1.320 . S
O49 Cd46 2.333 . S
O49 C51 1.214 . S
O50 Cd46 2.352 . S
O50 C53 1.258 . S
C51 O48 1.320 . S
C51 O49 1.214 . S
O52 Cd44 2.277 . S
O52 C47 1.209 . S
C53 O50 1.258 . S
C53 O55 1.282 . S
O54 Cd46 2.277 . S
O54 C47 1.226 . S
O55 Cd46 2.356 . S
O55 C53 1.282 . S
C56 O57 1.306 . S
C56 O59 1.160 . S
O57 C56 1.306 . S
O57 Cd58 2.228 1_655 S
Cd58 O57 2.228 1_455 S
Cd58 O62 2.273 . S
Cd58 O66 2.277 . S
O59 C56 1.160 . S
O59 Cd60 2.203 1_655 S
Cd60 O59 2.203 1_455 S
Cd60 O62 2.411 . S
Cd60 O63 2.333 . S
Cd60 O64 2.352 . S
Cd60 O68 2.277 . S
Cd60 O69 2.356 . S
C61 O66 1.209 . S
C61 O68 1.226 . S
O62 Cd58 2.273 . S
O62 Cd60 2.411 . S
O62 C65 1.320 . S
O63 Cd60 2.333 . S
O63 C65 1.214 . S
O64 Cd60 2.352 . S
O64 C67 1.258 . S
C65 O62 1.320 . S
C65 O63 1.214 . S
O66 Cd58 2.277 . S
O66 C61 1.209 . S
C67 O64 1.258 . S
C67 O69 1.282 . S
O68 Cd60 2.277 . S
O68 C61 1.226 . S
O69 Cd60 2.356 . S
O69 C67 1.282 . S
C70 O71 1.306 . S
C70 O73 1.160 . S
O71 C70 1.306 . S
O71 Cd72 2.228 1_565 S
Cd72 O71 2.228 1_545 S
Cd72 O76 2.273 . S
Cd72 O80 2.277 . S
O73 C70 1.160 . S
O73 Cd74 2.203 1_565 S
Cd74 O73 2.203 1_545 S
Cd74 O76 2.411 . S
Cd74 O77 2.333 . S
Cd74 O78 2.388 . S
Cd74 O82 2.277 . S
Cd74 O83 2.356 . S
C75 O80 1.209 . S
C75 O82 1.226 . S
O76 Cd72 2.273 . S
O76 Cd74 2.411 . S
O76 C79 1.320 . S
O77 Cd74 2.333 . S
O77 C79 1.214 . S
O78 Cd74 2.388 . S
O78 C81 1.292 . S
C79 O76 1.320 . S
C79 O77 1.214 . S
O80 Cd72 2.277 . S
O80 C75 1.209 . S
C81 O78 1.292 . S
C81 O83 1.282 . S
O82 Cd74 2.277 . S
O82 C75 1.226 . S
O83 Cd74 2.356 . S
O83 C81 1.282 . S
C84 O85 1.306 . S
C84 O87 1.160 . S
O85 C84 1.306 . S
O85 Cd86 2.228 . S
Cd86 O85 2.228 . S
Cd86 O90 2.273 . S
Cd86 O94 2.277 . S
O87 C84 1.160 . S
O87 Cd88 2.203 . S
Cd88 O87 2.203 . S
Cd88 O90 2.411 . S
Cd88 O91 2.333 . S
Cd88 O92 2.352 . S
Cd88 O96 2.277 . S
Cd88 O97 2.356 . S
C89 O94 1.209 . S
C89 O96 1.226 . S
O90 Cd86 2.273 . S
O90 Cd88 2.411 . S
O90 C93 1.320 . S
O91 Cd88 2.333 . S
O91 C93 1.214 . S
O92 Cd88 2.352 . S
O92 C95 1.258 . S
C93 O90 1.320 . S
C93 O91 1.214 . S
O94 Cd86 2.277 . S
O94 C89 1.209 . S
C95 O92 1.258 . S
C95 O97 1.282 . S
O96 Cd88 2.277 . S
O96 C89 1.226 . S
O97 Cd88 2.356 . S
O97 C95 1.282 . S
C98 O99 1.306 . S
C98 O101 1.160 . S
O99 C98 1.306 . S
O99 Cd100 2.228 . S
Cd100 O99 2.228 . S
Cd100 O104 2.273 . S
Cd100 O108 2.277 . S
O101 C98 1.160 . S
O101 Cd102 2.203 . S
Cd102 O101 2.203 . S
Cd102 O104 2.411 . S
Cd102 O105 2.333 . S
Cd102 O106 2.352 . S
Cd102 O110 2.277 . S
Cd102 O111 2.356 . S
C103 O108 1.209 . S
C103 O110 1.226 . S
O104 Cd100 2.273 . S
O104 Cd102 2.411 . S
O104 C107 1.320 . S
O105 Cd102 2.333 . S
O105 C107 1.214 . S
O106 Cd102 2.352 . S
O106 C109 1.258 . S
C107 O104 1.320 . S
C107 O105 1.214 . S
O108 Cd100 2.277 . S
O108 C103 1.209 . S
C109 O106 1.258 . S
C109 O111 1.282 . S
O110 Cd102 2.277 . S
O110 C103 1.226 . S
O111 Cd102 2.356 . S
O111 C109 1.282 . S
C112 O113 1.306 . S
C112 O115 1.160 . S
O113 C112 1.306 . S
O113 Cd114 2.228 1_455 S
Cd114 O113 2.228 1_655 S
Cd114 O118 2.273 . S
Cd114 O122 2.277 . S
O115 C112 1.160 . S
O115 Cd116 2.203 1_455 S
Cd116 O115 2.203 1_655 S
Cd116 O118 2.411 . S
Cd116 O119 2.333 . S
Cd116 O120 2.388 . S
Cd116 O124 2.277 . S
Cd116 O125 2.356 . S
C117 O122 1.209 . S
C117 O124 1.226 . S
O118 Cd114 2.273 . S
O118 Cd116 2.411 . S
O118 C121 1.320 . S
O119 Cd116 2.333 . S
O119 C121 1.214 . S
O120 Cd116 2.388 . S
O120 C123 1.292 . S
C121 O118 1.320 . S
C121 O119 1.214 . S
O122 Cd114 2.277 . S
O122 C117 1.209 . S
C123 O120 1.292 . S
C123 O125 1.282 . S
O124 Cd116 2.277 . S
O124 C117 1.226 . S
O125 Cd116 2.356 . S
O125 C123 1.282 . S
C126 O127 1.306 . S
C126 O129 1.160 . S
O127 C126 1.306 . S
O127 Cd128 2.228 1_545 S
Cd128 O127 2.228 1_565 S
Cd128 O132 2.273 . S
Cd128 O136 2.277 . S
O129 C126 1.160 . S
O129 Cd130 2.203 1_545 S
Cd130 O129 2.203 1_565 S
Cd130 O132 2.411 . S
Cd130 O133 2.333 . S
Cd130 O134 2.352 . S
Cd130 O138 2.277 . S
Cd130 O139 2.356 . S
C131 O136 1.209 . S
C131 O138 1.226 . S
O132 Cd128 2.273 . S
O132 Cd130 2.411 . S
O132 C135 1.320 . S
O133 Cd130 2.333 . S
O133 C135 1.214 . S
O134 Cd130 2.352 . S
O134 C137 1.258 . S
C135 O132 1.320 . S
C135 O133 1.214 . S
O136 Cd128 2.277 . S
O136 C131 1.209 . S
C137 O134 1.258 . S
C137 O139 1.282 . S
O138 Cd130 2.277 . S
O138 C131 1.226 . S
O139 Cd130 2.356 . S
O139 C137 1.282 . S
C140 O141 1.306 . S
C140 O143 1.160 . S
O141 C140 1.306 . S
O141 Cd142 2.228 . S
Cd142 O141 2.228 . S
Cd142 O146 2.273 . S
Cd142 O150 2.277 . S
O143 C140 1.160 . S
O143 Cd144 2.203 . S
Cd144 O143 2.203 . S
Cd144 O146 2.411 . S
Cd144 O147 2.333 . S
Cd144 O148 2.352 . S
Cd144 O152 2.277 . S
Cd144 O153 2.356 . S
C145 O150 1.209 . S
C145 O152 1.226 . S
O146 Cd142 2.273 . S
O146 Cd144 2.411 . S
O146 C149 1.320 . S
O147 Cd144 2.333 . S
O147 C149 1.214 . S
O148 Cd144 2.352 . S
O148 C151 1.258 . S
C149 O146 1.320 . S
C149 O147 1.214 . S
O150 Cd142 2.277 . S
O150 C145 1.209 . S
C151 O148 1.258 . S
C151 O153 1.282 . S
O152 Cd144 2.277 . S
O152 C145 1.226 . S
O153 Cd144 2.356 . S
O153 C151 1.282 . S
C154 O155 1.306 . S
C154 O157 1.160 . S
O155 C154 1.306 . S
O155 Cd156 2.228 . S
Cd156 O155 2.228 . S
Cd156 O160 2.273 . S
Cd156 O164 2.277 . S
O157 C154 1.160 . S
O157 Cd158 2.203 . S
Cd158 O157 2.203 . S
Cd158 O160 2.411 . S
Cd158 O161 2.333 . S
Cd158 O162 2.352 . S
Cd158 O166 2.277 . S
Cd158 O167 2.356 . S
C159 O164 1.209 . S
C159 O166 1.226 . S
O160 Cd156 2.273 . S
O160 Cd158 2.411 . S
O160 C163 1.320 . S
O161 Cd158 2.333 . S
O161 C163 1.214 . S
O162 Cd158 2.352 . S
O162 C165 1.258 . S
C163 O160 1.320 . S
C163 O161 1.214 . S
O164 Cd156 2.277 . S
O164 C159 1.209 . S
C165 O162 1.258 . S
C165 O167 1.282 . S
O166 Cd158 2.277 . S
O166 C159 1.226 . S
O167 Cd158 2.356 . S
O167 C165 1.282 . S
C168 O169 1.306 . S
C168 O171 1.160 . S
O169 C168 1.306 . S
O169 Cd170 2.228 1_455 S
Cd170 O169 2.228 1_655 S
Cd170 O174 2.273 . S
Cd170 O178 2.277 . S
O171 C168 1.160 . S
O171 Cd172 2.203 1_455 S
Cd172 O171 2.203 1_655 S
Cd172 O174 2.411 . S
Cd172 O175 2.333 . S
Cd172 O176 2.352 . S
Cd172 O180 2.277 . S
Cd172 O181 2.356 . S
C173 O178 1.209 . S
C173 O180 1.226 . S
O174 Cd170 2.273 . S
O174 Cd172 2.411 . S
O174 C177 1.320 . S
O175 Cd172 2.333 . S
O175 C177 1.214 . S
O176 Cd172 2.352 . S
O176 C179 1.258 . S
C177 O174 1.320 . S
C177 O175 1.214 . S
O178 Cd170 2.277 . S
O178 C173 1.209 . S
C179 O176 1.258 . S
C179 O181 1.282 . S
O180 Cd172 2.277 . S
O180 C173 1.226 . S
O181 Cd172 2.356 . S
O181 C179 1.282 . S
C182 O183 1.306 . S
C182 O185 1.160 . S
O183 C182 1.306 . S
O183 Cd184 2.228 1_545 S
Cd184 O183 2.228 1_565 S
Cd184 O188 2.273 . S
Cd184 O192 2.277 . S
O185 C182 1.160 . S
O185 Cd186 2.203 1_545 S
Cd186 O185 2.203 1_565 S
Cd186 O188 2.411 . S
Cd186 O189 2.333 . S
Cd186 O190 2.388 . S
Cd186 O194 2.277 . S
Cd186 O195 2.356 . S
C187 O192 1.209 . S
C187 O194 1.226 . S
O188 Cd184 2.273 . S
O188 Cd186 2.411 . S
O188 C191 1.320 . S
O189 Cd186 2.333 . S
O189 C191 1.214 . S
O190 Cd186 2.388 . S
O190 C193 1.292 . S
C191 O188 1.320 . S
C191 O189 1.214 . S
O192 Cd184 2.277 . S
O192 C187 1.209 . S
C193 O190 1.292 . S
C193 O195 1.282 . S
O194 Cd186 2.277 . S
O194 C187 1.226 . S
O195 Cd186 2.356 . S
O195 C193 1.282 . S
C196 O197 1.306 . S
C196 O199 1.160 . S
O197 C196 1.306 . S
O197 Cd198 2.228 . S
Cd198 O197 2.228 . S
Cd198 O202 2.273 . S
Cd198 O206 2.277 . S
O199 C196 1.160 . S
O199 Cd200 2.203 . S
Cd200 O199 2.203 . S
Cd200 O202 2.411 . S
Cd200 O203 2.333 . S
Cd200 O204 2.352 . S
Cd200 O208 2.277 . S
Cd200 O209 2.356 . S
C201 O206 1.209 . S
C201 O208 1.226 . S
O202 Cd198 2.273 . S
O202 Cd200 2.411 . S
O202 C205 1.320 . S
O203 Cd200 2.333 . S
O203 C205 1.214 . S
O204 Cd200 2.352 . S
O204 C207 1.258 . S
C205 O202 1.320 . S
C205 O203 1.214 . S
O206 Cd198 2.277 . S
O206 C201 1.209 . S
C207 O204 1.258 . S
C207 O209 1.282 . S
O208 Cd200 2.277 . S
O208 C201 1.226 . S
O209 Cd200 2.356 . S
O209 C207 1.282 . S
C210 O211 1.306 . S
C210 O213 1.160 . S
O211 C210 1.306 . S
O211 Cd212 2.228 . S
Cd212 O211 2.228 . S
Cd212 O216 2.273 . S
Cd212 O220 2.277 . S
O213 C210 1.160 . S
O213 Cd214 2.203 . S
Cd214 O213 2.203 . S
Cd214 O216 2.411 . S
Cd214 O217 2.333 . S
Cd214 O218 2.352 . S
Cd214 O222 2.277 . S
Cd214 O223 2.356 . S
C215 O220 1.209 . S
C215 O222 1.226 . S
O216 Cd212 2.273 . S
O216 Cd214 2.411 . S
O216 C219 1.320 . S
O217 Cd214 2.333 . S
O217 C219 1.214 . S
O218 Cd214 2.352 . S
O218 C221 1.258 . S
C219 O216 1.320 . S
C219 O217 1.214 . S
O220 Cd212 2.277 . S
O220 C215 1.209 . S
C221 O218 1.258 . S
C221 O223 1.282 . S
O222 Cd214 2.277 . S
O222 C215 1.226 . S
O223 Cd214 2.356 . S
O223 C221 1.282 . S
C224 C225 1.349 1_655 S
C224 C226 1.327 . S
C224 H249 0.950 . S
C225 C224 1.349 1_455 S
C225 C241 1.349 . S
C226 C224 1.327 . S
C226 C245 1.429 1_655 S
C226 H250 0.950 1_554 S
C227 C244 1.574 . S
C227 C246 1.368 . S
C227 H251 0.949 . S
H228 C232 0.949 . S
C229 C230 1.349 . S
C229 C231 1.327 . S
C229 H252 0.950 . S
C230 C229 1.349 . S
C230 C242 1.349 1_455 S
C231 C229 1.327 . S
C231 C247 1.429 . S
C231 H253 0.950 1_556 S
C232 H228 0.949 . S
C232 C240 1.574 . S
C232 C248 1.368 1_655 S
H233 C241 0.950 . S
H234 C239 0.950 . S
H235 C240 0.949 . S
H236 C242 0.950 . S
H237 C243 0.950 . S
H238 C244 0.949 . S
C239 H234 0.950 . S
C239 C241 1.327 . S
C239 C245 1.429 . S
C240 C232 1.574 . S
C240 H235 0.949 . S
C240 C246 1.368 1_656 S
C241 C225 1.349 . S
C241 H233 0.950 . S
C241 C239 1.327 . S
C242 C230 1.349 1_655 S
C242 H236 0.950 . S
C242 C243 1.327 . S
C243 H237 0.950 . S
C243 C242 1.327 . S
C243 C247 1.429 1_655 S
C244 C227 1.574 . S
C244 H238 0.949 . S
C244 C248 1.368 1_554 S
C245 C226 1.429 1_455 S
C245 C239 1.429 . S
C245 C246 1.523 . S
C246 C227 1.368 . S
C246 C240 1.368 1_454 S
C246 C245 1.523 . S
C247 C231 1.429 . S
C247 C243 1.429 1_455 S
C247 C248 1.523 . S
C248 C232 1.368 1_455 S
C248 C244 1.368 1_556 S
C248 C247 1.523 . S
H249 C224 0.950 . S
H250 C226 0.950 1_556 S
H251 C227 0.949 . S
H252 C229 0.950 . S
H253 C231 0.950 1_554 S
C254 C255 1.349 . S
C254 C256 1.327 . S
C254 H279 0.950 . S
C255 C254 1.349 . S
C255 C271 1.349 1_545 S
C256 C254 1.327 . S
C256 C275 1.429 . S
C256 H280 0.950 . S
C257 C274 1.574 . S
C257 C276 1.368 1_565 S
C257 H281 0.949 . S
H258 C262 0.949 . S
C259 C260 1.349 1_565 S
C259 C261 1.327 . S
C259 H282 0.950 . S
C260 C259 1.349 1_545 S
C260 C272 1.349 . S
C261 C259 1.327 . S
C261 C277 1.429 1_565 S
C261 H283 0.950 . S
C262 H258 0.949 . S
C262 C270 1.574 . S
C262 C278 1.368 . S
H263 C271 0.950 . S
H264 C269 0.950 . S
H265 C270 0.949 . S
H266 C272 0.950 . S
H267 C273 0.950 . S
H268 C274 0.949 . S
C269 H264 0.950 . S
C269 C271 1.327 . S
C269 C275 1.429 1_565 S
C270 C262 1.574 . S
C270 H265 0.949 . S
C270 C276 1.368 . S
C271 C255 1.349 1_565 S
C271 H263 0.950 . S
C271 C269 1.327 . S
C272 C260 1.349 . S
C272 H266 0.950 . S
C272 C273 1.327 . S
C273 H267 0.950 . S
C273 C272 1.327 . S
C273 C277 1.429 . S
C274 C257 1.574 . S
C274 H268 0.949 . S
C274 C278 1.368 1_565 S
C275 C256 1.429 . S
C275 C269 1.429 1_545 S
C275 C276 1.523 . S
C276 C257 1.368 1_545 S
C276 C270 1.368 . S
C276 C275 1.523 . S
C277 C261 1.429 1_545 S
C277 C273 1.429 . S
C277 C278 1.523 . S
C278 C262 1.368 . S
C278 C274 1.368 1_545 S
C278 C277 1.523 . S
H279 C254 0.950 . S
H280 C256 0.950 . S
H281 C257 0.949 . S
H282 C259 0.950 . S
H283 C261 0.950 . S
C284 C285 1.349 . S
C284 C286 1.327 . S
C284 H309 0.950 . S
C285 C284 1.349 . S
C285 C301 1.349 . S
C286 C284 1.327 . S
C286 C305 1.429 . S
C286 H310 0.950 . S
C287 C304 1.574 . S
C287 C306 1.368 . S
C287 H311 0.949 . S
H288 C292 0.949 . S
C289 C290 1.349 . S
C289 C291 1.327 . S
C289 H312 0.950 . S
C290 C289 1.349 . S
C290 C302 1.349 . S
C291 C289 1.327 . S
C291 C307 1.429 . S
C291 H313 0.950 . S
C292 H288 0.949 . S
C292 C300 1.574 . S
C292 C308 1.368 . S
H293 C301 0.950 . S
H294 C299 0.950 . S
H295 C300 0.949 . S
H296 C302 0.950 . S
H297 C303 0.950 . S
H298 C304 0.949 . S
C299 H294 0.950 . S
C299 C301 1.327 . S
C299 C305 1.429 . S
C300 C292 1.574 . S
C300 H295 0.949 . S
C300 C306 1.368 1_556 S
C301 C285 1.349 . S
C301 H293 0.950 . S
C301 C299 1.327 . S
C302 C290 1.349 . S
C302 H296 0.950 . S
C302 C303 1.327 . S
C303 H297 0.950 . S
C303 C302 1.327 . S
C303 C307 1.429 . S
C304 C287 1.574 . S
C304 H298 0.949 . S
C304 C308 1.368 1_554 S
C305 C286 1.429 . S
C305 C299 1.429 . S
C305 C306 1.523 . S
C306 C287 1.368 . S
C306 C300 1.368 1_554 S
C306 C305 1.523 . S
C307 C291 1.429 . S
C307 C303 1.429 . S
C307 C308 1.523 . S
C308 C292 1.368 . S
C308 C304 1.368 1_556 S
C308 C307 1.523 . S
H309 C284 0.950 . S
H310 C286 0.950 . S
H311 C287 0.949 . S
H312 C289 0.950 . S
H313 C291 0.950 . S
C314 C315 1.349 . S
C314 C316 1.327 . S
C314 H339 0.950 . S
C315 C314 1.349 . S
C315 C331 1.349 . S
C316 C314 1.327 . S
C316 C335 1.429 . S
C316 H340 0.950 . S
C317 C334 1.574 . S
C317 C336 1.368 . S
C317 H341 0.949 . S
H318 C322 0.949 . S
C319 C320 1.349 . S
C319 C321 1.327 . S
C319 H342 0.950 . S
C320 C319 1.349 . S
C320 C332 1.349 . S
C321 C319 1.327 . S
C321 C337 1.429 . S
C321 H343 0.950 . S
C322 H318 0.949 . S
C322 C330 1.574 . S
C322 C338 1.368 . S
H323 C331 0.950 . S
H324 C329 0.950 . S
H325 C330 0.949 . S
H326 C332 0.950 . S
H327 C333 0.950 . S
H328 C334 0.949 . S
C329 H324 0.950 . S
C329 C331 1.327 . S
C329 C335 1.429 . S
C330 C322 1.574 . S
C330 H325 0.949 . S
C330 C336 1.368 . S
C331 C315 1.349 . S
C331 H323 0.950 . S
C331 C329 1.327 . S
C332 C320 1.349 . S
C332 H326 0.950 . S
C332 C333 1.327 . S
C333 H327 0.950 . S
C333 C332 1.327 . S
C333 C337 1.429 . S
C334 C317 1.574 . S
C334 H328 0.949 . S
C334 C338 1.368 . S
C335 C316 1.429 . S
C335 C329 1.429 . S
C335 C336 1.523 . S
C336 C317 1.368 . S
C336 C330 1.368 . S
C336 C335 1.523 . S
C337 C321 1.429 . S
C337 C333 1.429 . S
C337 C338 1.523 . S
C338 C322 1.368 . S
C338 C334 1.368 . S
C338 C337 1.523 . S
H339 C314 0.950 . S
H340 C316 0.950 . S
H341 C317 0.949 . S
H342 C319 0.950 . S
H343 C321 0.950 . S
C344 C345 1.349 . S
C344 C346 1.327 . S
C344 H369 0.950 . S
C345 C344 1.349 . S
C345 C361 1.349 1_655 S
C346 C344 1.327 . S
C346 C365 1.429 . S
C346 H370 0.950 1_556 S
C347 C364 1.574 . S
C347 C366 1.368 1_455 S
C347 H371 0.949 . S
H348 C352 0.949 . S
C349 C350 1.349 1_455 S
C349 C351 1.327 . S
C349 H372 0.950 . S
C350 C349 1.349 1_655 S
C350 C362 1.349 . S
C351 C349 1.327 . S
C351 C367 1.429 1_455 S
C351 H373 0.950 1_554 S
C352 H348 0.949 . S
C352 C360 1.574 . S
C352 C368 1.368 . S
H353 C361 0.950 . S
H354 C359 0.950 . S
H355 C360 0.949 . S
H356 C362 0.950 . S
H357 C363 0.950 . S
H358 C364 0.949 . S
C359 H354 0.950 . S
C359 C361 1.327 . S
C359 C365 1.429 1_455 S
C360 C352 1.574 . S
C360 H355 0.949 . S
C360 C366 1.368 1_554 S
C361 C345 1.349 1_455 S
C361 H353 0.950 . S
C361 C359 1.327 . S
C362 C350 1.349 . S
C362 H356 0.950 . S
C362 C363 1.327 . S
C363 H357 0.950 . S
C363 C362 1.327 . S
C363 C367 1.429 . S
C364 C347 1.574 . S
C364 H358 0.949 . S
C364 C368 1.368 1_456 S
C365 C346 1.429 . S
C365 C359 1.429 1_655 S
C365 C366 1.523 . S
C366 C347 1.368 1_655 S
C366 C360 1.368 1_556 S
C366 C365 1.523 . S
C367 C351 1.429 1_655 S
C367 C363 1.429 . S
C367 C368 1.523 . S
C368 C352 1.368 . S
C368 C364 1.368 1_654 S
C368 C367 1.523 . S
H369 C344 0.950 . S
H370 C346 0.950 1_554 S
H371 C347 0.949 . S
H372 C349 0.950 . S
H373 C351 0.950 1_556 S
C374 C375 1.349 1_545 S
C374 C376 1.327 . S
C374 H399 0.950 . S
C375 C374 1.349 1_565 S
C375 C391 1.349 . S
C376 C374 1.327 . S
C376 C395 1.429 1_545 S
C376 H400 0.950 . S
C377 C394 1.574 . S
C377 C396 1.368 . S
C377 H401 0.949 . S
H378 C382 0.949 . S
C379 C380 1.349 . S
C379 C381 1.327 . S
C379 H402 0.950 . S
C380 C379 1.349 . S
C380 C392 1.349 1_565 S
C381 C379 1.327 . S
C381 C397 1.429 . S
C381 H403 0.950 . S
C382 H378 0.949 . S
C382 C390 1.574 . S
C382 C398 1.368 1_545 S
H383 C391 0.950 . S
H384 C389 0.950 . S
H385 C390 0.949 . S
H386 C392 0.950 . S
H387 C393 0.950 . S
H388 C394 0.949 . S
C389 H384 0.950 . S
C389 C391 1.327 . S
C389 C395 1.429 . S
C390 C382 1.574 . S
C390 H385 0.949 . S
C390 C396 1.368 1_545 S
C391 C375 1.349 . S
C391 H383 0.950 . S
C391 C389 1.327 . S
C392 C380 1.349 1_545 S
C392 H386 0.950 . S
C392 C393 1.327 . S
C393 H387 0.950 . S
C393 C392 1.327 . S
C393 C397 1.429 1_545 S
C394 C377 1.574 . S
C394 H388 0.949 . S
C394 C398 1.368 . S
C395 C376 1.429 1_565 S
C395 C389 1.429 . S
C395 C396 1.523 . S
C396 C377 1.368 . S
C396 C390 1.368 1_565 S
C396 C395 1.523 . S
C397 C381 1.429 . S
C397 C393 1.429 1_565 S
C397 C398 1.523 . S
C398 C382 1.368 1_565 S
C398 C394 1.368 . S
C398 C397 1.523 . S
H399 C374 0.950 . S
H400 C376 0.950 . S
H401 C377 0.949 . S
H402 C379 0.950 . S
H403 C381 0.950 . S
C404 C405 1.349 . S
C404 C406 1.327 . S
C404 H429 0.950 . S
C405 C404 1.349 . S
C405 C421 1.349 . S
C406 C404 1.327 . S
C406 C425 1.429 . S
C406 H430 0.950 . S
C407 C424 1.574 . S
C407 C426 1.368 1_554 S
C407 H431 0.949 . S
H408 C412 0.949 . S
C409 C410 1.349 . S
C409 C411 1.327 . S
C409 H432 0.950 . S
C410 C409 1.349 . S
C410 C422 1.349 . S
C411 C409 1.327 . S
C411 C427 1.429 . S
C411 H433 0.950 . S
C412 H408 0.949 . S
C412 C420 1.574 . S
C412 C428 1.368 1_556 S
H413 C421 0.950 . S
H414 C419 0.950 1_554 S
H415 C420 0.949 . S
H416 C422 0.950 . S
H417 C423 0.950 1_556 S
H418 C424 0.949 . S
C419 H414 0.950 1_556 S
C419 C421 1.327 . S
C419 C425 1.429 . S
C420 C412 1.574 . S
C420 H415 0.949 . S
C420 C426 1.368 . S
C421 C405 1.349 . S
C421 H413 0.950 . S
C421 C419 1.327 . S
C422 C410 1.349 . S
C422 H416 0.950 . S
C422 C423 1.327 . S
C423 H417 0.950 1_554 S
C423 C422 1.327 . S
C423 C427 1.429 . S
C424 C407 1.574 . S
C424 H418 0.949 . S
C424 C428 1.368 . S
C425 C406 1.429 . S
C425 C419 1.429 . S
C425 C426 1.523 . S
C426 C407 1.368 1_556 S
C426 C420 1.368 . S
C426 C425 1.523 . S
C427 C411 1.429 . S
C427 C423 1.429 . S
C427 C428 1.523 . S
C428 C412 1.368 1_554 S
C428 C424 1.368 . S
C428 C427 1.523 . S
H429 C404 0.950 . S
H430 C406 0.950 . S
H431 C407 0.949 . S
H432 C409 0.950 . S
H433 C411 0.950 . S
C434 C435 1.349 . S
C434 C436 1.327 . S
C434 H459 0.950 . S
C435 C434 1.349 . S
C435 C451 1.349 . S
C436 C434 1.327 . S
C436 C455 1.429 . S
C436 H460 0.950 . S
C437 C454 1.574 . S
C437 C456 1.368 . S
C437 H461 0.949 . S
H438 C442 0.949 . S
C439 C440 1.349 . S
C439 C441 1.327 . S
C439 H462 0.950 . S
C440 C439 1.349 . S
C440 C452 1.349 . S
C441 C439 1.327 . S
C441 C457 1.429 . S
C441 H463 0.950 . S
C442 H438 0.949 . S
C442 C450 1.574 . S
C442 C458 1.368 . S
H443 C451 0.950 . S
H444 C449 0.950 . S
H445 C450 0.949 . S
H446 C452 0.950 . S
H447 C453 0.950 . S
H448 C454 0.949 . S
C449 H444 0.950 . S
C449 C451 1.327 . S
C449 C455 1.429 . S
C450 C442 1.574 . S
C450 H445 0.949 . S
C450 C456 1.368 . S
C451 C435 1.349 . S
C451 H443 0.950 . S
C451 C449 1.327 . S
C452 C440 1.349 . S
C452 H446 0.950 . S
C452 C453 1.327 . S
C453 H447 0.950 . S
C453 C452 1.327 . S
C453 C457 1.429 . S
C454 C437 1.574 . S
C454 H448 0.949 . S
C454 C458 1.368 . S
C455 C436 1.429 . S
C455 C449 1.429 . S
C455 C456 1.523 . S
C456 C437 1.368 . S
C456 C450 1.368 . S
C456 C455 1.523 . S
C457 C441 1.429 . S
C457 C453 1.429 . S
C457 C458 1.523 . S
C458 C442 1.368 . S
C458 C454 1.368 . S
C458 C457 1.523 . S
H459 C434 0.950 . S
H460 C436 0.950 . S
H461 C437 0.949 . S
H462 C439 0.950 . S
H463 C441 0.950 . S
C464 C465 1.349 . S
C464 C466 1.327 1_554 S
C464 H489 0.950 . S
C465 C464 1.349 . S
C465 C481 1.349 1_554 S
C466 C464 1.327 1_556 S
C466 C485 1.429 . S
C466 H490 0.950 . S
C467 C484 1.574 . S
C467 C486 1.368 . S
C467 H491 0.949 . S
H468 C472 0.949 . S
C469 C470 1.349 . S
C469 C471 1.327 . S
C469 H492 0.950 . S
C470 C469 1.349 . S
C470 C482 1.349 . S
C471 C469 1.327 . S
C471 C487 1.429 . S
C471 H493 0.950 . S
C472 H468 0.949 . S
C472 C480 1.574 . S
C472 C488 1.368 . S
H473 C481 0.950 . S
H474 C479 0.950 . S
H475 C480 0.949 . S
H476 C482 0.950 . S
H477 C483 0.950 . S
H478 C484 0.949 . S
C479 H474 0.950 . S
C479 C481 1.327 . S
C479 C485 1.429 . S
C480 C472 1.574 . S
C480 H475 0.949 . S
C480 C486 1.368 . S
C481 C465 1.349 1_556 S
C481 H473 0.950 . S
C481 C479 1.327 . S
C482 C470 1.349 . S
C482 H476 0.950 . S
C482 C483 1.327 . S
C483 H477 0.950 . S
C483 C482 1.327 . S
C483 C487 1.429 . S
C484 C467 1.574 . S
C484 H478 0.949 . S
C484 C488 1.368 . S
C485 C466 1.429 . S
C485 C479 1.429 . S
C485 C486 1.523 . S
C486 C467 1.368 . S
C486 C480 1.368 . S
C486 C485 1.523 . S
C487 C471 1.429 . S
C487 C483 1.429 . S
C487 C488 1.523 . S
C488 C472 1.368 . S
C488 C484 1.368 . S
C488 C487 1.523 . S
H489 C464 0.950 . S
H490 C466 0.950 . S
H491 C467 0.949 . S
H492 C469 0.950 . S
H493 C471 0.950 . S
C494 C495 1.349 . S
C494 C496 1.327 . S
C494 H519 0.950 . S
C495 C494 1.349 . S
C495 C511 1.349 . S
C496 C494 1.327 . S
C496 C515 1.429 . S
C496 H520 0.950 . S
C497 C514 1.574 . S
C497 C516 1.368 . S
C497 H521 0.949 . S
H498 C502 0.949 . S
C499 C500 1.349 . S
C499 C501 1.327 . S
C499 H522 0.950 . S
C500 C499 1.349 . S
C500 C512 1.349 . S
C501 C499 1.327 . S
C501 C517 1.429 . S
C501 H523 0.950 . S
C502 H498 0.949 . S
C502 C510 1.574 . S
C502 C518 1.368 . S
H503 C511 0.950 . S
H504 C509 0.950 . S
H505 C510 0.949 . S
H506 C512 0.950 . S
H507 C513 0.950 . S
H508 C514 0.949 . S
C509 H504 0.950 . S
C509 C511 1.327 . S
C509 C515 1.429 . S
C510 C502 1.574 . S
C510 H505 0.949 . S
C510 C516 1.368 . S
C511 C495 1.349 . S
C511 H503 0.950 . S
C511 C509 1.327 . S
C512 C500 1.349 . S
C512 H506 0.950 . S
C512 C513 1.327 . S
C513 H507 0.950 . S
C513 C512 1.327 . S
C513 C517 1.429 . S
C514 C497 1.574 . S
C514 H508 0.949 . S
C514 C518 1.368 . S
C515 C496 1.429 . S
C515 C509 1.429 . S
C515 C516 1.523 . S
C516 C497 1.368 . S
C516 C510 1.368 . S
C516 C515 1.523 . S
C517 C501 1.429 . S
C517 C513 1.429 . S
C517 C518 1.523 . S
C518 C502 1.368 . S
C518 C514 1.368 . S
C518 C517 1.523 . S
H519 C494 0.950 . S
H520 C496 0.950 . S
H521 C497 0.949 . S
H522 C499 0.950 . S
H523 C501 0.950 . S
C524 C525 1.349 1_556 S
C524 C526 1.327 . S
C524 H549 0.950 . S
C525 C524 1.349 1_554 S
C525 C541 1.349 . S
C526 C524 1.327 . S
C526 C545 1.429 . S
C526 H550 0.950 . S
C527 C544 1.574 . S
C527 C546 1.368 . S
C527 H551 0.949 . S
H528 C532 0.949 . S
C529 C530 1.349 . S
C529 C531 1.327 . S
C529 H552 0.950 . S
C530 C529 1.349 . S
C530 C542 1.349 . S
C531 C529 1.327 . S
C531 C547 1.429 . S
C531 H553 0.950 . S
C532 H528 0.949 . S
C532 C540 1.574 . S
C532 C548 1.368 . S
H533 C541 0.950 . S
H534 C539 0.950 . S
H535 C540 0.949 . S
H536 C542 0.950 . S
H537 C543 0.950 . S
H538 C544 0.949 . S
C539 H534 0.950 . S
C539 C541 1.327 1_556 S
C539 C545 1.429 . S
C540 C532 1.574 . S
C540 H535 0.949 . S
C540 C546 1.368 . S
C541 C525 1.349 . S
C541 H533 0.950 . S
C541 C539 1.327 1_554 S
C542 C530 1.349 . S
C542 H536 0.950 . S
C542 C543 1.327 . S
C543 H537 0.950 . S
C543 C542 1.327 . S
C543 C547 1.429 . S
C544 C527 1.574 . S
C544 H538 0.949 . S
C544 C548 1.368 . S
C545 C526 1.429 . S
C545 C539 1.429 . S
C545 C546 1.523 . S
C546 C527 1.368 . S
C546 C540 1.368 . S
C546 C545 1.523 . S
C547 C531 1.429 . S
C547 C543 1.429 . S
C547 C548 1.523 . S
C548 C532 1.368 . S
C548 C544 1.368 . S
C548 C547 1.523 . S
H549 C524 0.950 . S
H550 C526 0.950 . S
H551 C527 0.949 . S
H552 C529 0.950 . S
H553 C531 0.950 . S
C554 C555 1.349 . S
C554 C556 1.327 . S
C554 H579 0.950 . S
C555 C554 1.349 . S
C555 C571 1.349 . S
C556 C554 1.327 . S
C556 C575 1.429 . S
C556 H580 0.950 . S
C557 C574 1.574 . S
C557 C576 1.368 . S
C557 H581 0.949 . S
H558 C562 0.949 . S
C559 C560 1.349 . S
C559 C561 1.327 . S
C559 H582 0.950 . S
C560 C559 1.349 . S
C560 C572 1.349 . S
C561 C559 1.327 . S
C561 C577 1.429 . S
C561 H583 0.950 . S
C562 H558 0.949 . S
C562 C570 1.574 . S
C562 C578 1.368 . S
H563 C571 0.950 . S
H564 C569 0.950 . S
H565 C570 0.949 . S
H566 C572 0.950 . S
H567 C573 0.950 . S
H568 C574 0.949 . S
C569 H564 0.950 . S
C569 C571 1.327 . S
C569 C575 1.429 . S
C570 C562 1.574 . S
C570 H565 0.949 . S
C570 C576 1.368 . S
C571 C555 1.349 . S
C571 H563 0.950 . S
C571 C569 1.327 . S
C572 C560 1.349 . S
C572 H566 0.950 . S
C572 C573 1.327 . S
C573 H567 0.950 . S
C573 C572 1.327 . S
C573 C577 1.429 . S
C574 C557 1.574 . S
C574 H568 0.949 . S
C574 C578 1.368 . S
C575 C556 1.429 . S
C575 C569 1.429 . S
C575 C576 1.523 . S
C576 C557 1.368 . S
C576 C570 1.368 . S
C576 C575 1.523 . S
C577 C561 1.429 . S
C577 C573 1.429 . S
C577 C578 1.523 . S
C578 C562 1.368 . S
C578 C574 1.368 . S
C578 C577 1.523 . S
H579 C554 0.950 . S
H580 C556 0.950 . S
H581 C557 0.949 . S
H582 C559 0.950 . S
H583 C561 0.950 . S
C584 C585 1.349 . S
C584 C586 1.327 . S
C584 H609 0.950 . S
C585 C584 1.349 . S
C585 C601 1.349 . S
C586 C584 1.327 . S
C586 C605 1.429 . S
C586 H610 0.950 . S
C587 C604 1.574 . S
C587 C606 1.368 . S
C587 H611 0.949 . S
H588 C592 0.949 . S
C589 C590 1.349 1_554 S
C589 C591 1.327 . S
C589 H612 0.950 . S
C590 C589 1.349 1_556 S
C590 C602 1.349 . S
C591 C589 1.327 . S
C591 C607 1.429 . S
C591 H613 0.950 . S
C592 H588 0.949 . S
C592 C600 1.574 . S
C592 C608 1.368 . S
H593 C601 0.950 . S
H594 C599 0.950 . S
H595 C600 0.949 . S
H596 C602 0.950 . S
H597 C603 0.950 . S
H598 C604 0.949 . S
C599 H594 0.950 . S
C599 C601 1.327 . S
C599 C605 1.429 . S
C600 C592 1.574 . S
C600 H595 0.949 . S
C600 C606 1.368 . S
C601 C585 1.349 . S
C601 H593 0.950 . S
C601 C599 1.327 . S
C602 C590 1.349 . S
C602 H596 0.950 . S
C602 C603 1.327 1_556 S
C603 H597 0.950 . S
C603 C602 1.327 1_554 S
C603 C607 1.429 . S
C604 C587 1.574 . S
C604 H598 0.949 . S
C604 C608 1.368 . S
C605 C586 1.429 . S
C605 C599 1.429 . S
C605 C606 1.523 . S
C606 C587 1.368 . S
C606 C600 1.368 . S
C606 C605 1.523 . S
C607 C591 1.429 . S
C607 C603 1.429 . S
C607 C608 1.523 . S
C608 C592 1.368 . S
C608 C604 1.368 . S
C608 C607 1.523 . S
H609 C584 0.950 . S
H610 C586 0.950 . S
H611 C587 0.949 . S
H612 C589 0.950 . S
H613 C591 0.950 . S
C614 C615 1.349 . S
C614 C616 1.327 . S
C614 H639 0.950 . S
C615 C614 1.349 . S
C615 C631 1.349 . S
C616 C614 1.327 . S
C616 C635 1.429 . S
C616 H640 0.950 . S
C617 C634 1.574 . S
C617 C636 1.368 . S
C617 H641 0.949 . S
H618 C622 0.949 . S
C619 C620 1.349 . S
C619 C621 1.327 . S
C619 H642 0.950 . S
C620 C619 1.349 . S
C620 C632 1.349 . S
C621 C619 1.327 . S
C621 C637 1.429 . S
C621 H643 0.950 . S
C622 H618 0.949 . S
C622 C630 1.574 . S
C622 C638 1.368 . S
H623 C631 0.950 . S
H624 C629 0.950 . S
H625 C630 0.949 . S
H626 C632 0.950 . S
H627 C633 0.950 . S
H628 C634 0.949 . S
C629 H624 0.950 . S
C629 C631 1.327 . S
C629 C635 1.429 . S
C630 C622 1.574 . S
C630 H625 0.949 . S
C630 C636 1.368 . S
C631 C615 1.349 . S
C631 H623 0.950 . S
C631 C629 1.327 . S
C632 C620 1.349 . S
C632 H626 0.950 . S
C632 C633 1.327 . S
C633 H627 0.950 . S
C633 C632 1.327 . S
C633 C637 1.429 . S
C634 C617 1.574 . S
C634 H628 0.949 . S
C634 C638 1.368 . S
C635 C616 1.429 . S
C635 C629 1.429 . S
C635 C636 1.523 . S
C636 C617 1.368 . S
C636 C630 1.368 . S
C636 C635 1.523 . S
C637 C621 1.429 . S
C637 C633 1.429 . S
C637 C638 1.523 . S
C638 C622 1.368 . S
C638 C634 1.368 . S
C638 C637 1.523 . S
H639 C614 0.950 . S
H640 C616 0.950 . S
H641 C617 0.949 . S
H642 C619 0.950 . S
H643 C621 0.950 . S
C644 C645 1.349 . S
C644 C646 1.327 . S
C644 H669 0.950 . S
C645 C644 1.349 . S
C645 C661 1.349 . S
C646 C644 1.327 . S
C646 C665 1.429 . S
C646 H670 0.950 . S
C647 C664 1.574 . S
C647 C666 1.368 . S
C647 H671 0.949 . S
H648 C652 0.949 . S
C649 C650 1.349 1_554 S
C649 C651 1.327 . S
C649 H672 0.950 . S
C650 C649 1.349 1_556 S
C650 C662 1.349 . S
C651 C649 1.327 . S
C651 C667 1.429 . S
C651 H673 0.950 . S
C652 H648 0.949 . S
C652 C660 1.574 . S
C652 C668 1.368 . S
H653 C661 0.950 . S
H654 C659 0.950 . S
H655 C660 0.949 . S
H656 C662 0.950 . S
H657 C663 0.950 . S
H658 C664 0.949 . S
C659 H654 0.950 . S
C659 C661 1.327 . S
C659 C665 1.429 . S
C660 C652 1.574 . S
C660 H655 0.949 . S
C660 C666 1.368 . S
C661 C645 1.349 . S
C661 H653 0.950 . S
C661 C659 1.327 . S
C662 C650 1.349 . S
C662 H656 0.950 . S
C662 C663 1.327 1_556 S
C663 H657 0.950 . S
C663 C662 1.327 1_554 S
C663 C667 1.429 . S
C664 C647 1.574 . S
C664 H658 0.949 . S
C664 C668 1.368 . S
C665 C646 1.429 . S
C665 C659 1.429 . S
C665 C666 1.523 . S
C666 C647 1.368 . S
C666 C660 1.368 . S
C666 C665 1.523 . S
C667 C651 1.429 . S
C667 C663 1.429 . S
C667 C668 1.523 . S
C668 C652 1.368 . S
C668 C664 1.368 . S
C668 C667 1.523 . S
H669 C644 0.950 . S
H670 C646 0.950 . S
H671 C647 0.949 . S
H672 C649 0.950 . S
H673 C651 0.950 . S
C674 C675 1.349 . S
C674 C676 1.327 . S
C674 H699 0.950 . S
C675 C674 1.349 . S
C675 C691 1.349 . S
C676 C674 1.327 . S
C676 C695 1.429 . S
C676 H700 0.950 . S
C677 C694 1.574 . S
C677 C696 1.368 . S
C677 H701 0.949 . S
H678 C682 0.949 . S
C679 C680 1.349 . S
C679 C681 1.327 . S
C679 H702 0.950 . S
C680 C679 1.349 . S
C680 C692 1.349 . S
C681 C679 1.327 . S
C681 C697 1.429 . S
C681 H703 0.950 . S
C682 H678 0.949 . S
C682 C690 1.574 . S
C682 C698 1.368 . S
H683 C691 0.950 . S
H684 C689 0.950 . S
H685 C690 0.949 . S
H686 C692 0.950 . S
H687 C693 0.950 . S
H688 C694 0.949 . S
C689 H684 0.950 . S
C689 C691 1.327 . S
C689 C695 1.429 . S
C690 C682 1.574 . S
C690 H685 0.949 . S
C690 C696 1.368 . S
C691 C675 1.349 . S
C691 H683 0.950 . S
C691 C689 1.327 . S
C692 C680 1.349 . S
C692 H686 0.950 . S
C692 C693 1.327 . S
C693 H687 0.950 . S
C693 C692 1.327 . S
C693 C697 1.429 . S
C694 C677 1.574 . S
C694 H688 0.949 . S
C694 C698 1.368 . S
C695 C676 1.429 . S
C695 C689 1.429 . S
C695 C696 1.523 . S
C696 C677 1.368 . S
C696 C690 1.368 . S
C696 C695 1.523 . S
C697 C681 1.429 . S
C697 C693 1.429 . S
C697 C698 1.523 . S
C698 C682 1.368 . S
C698 C694 1.368 . S
C698 C697 1.523 . S
H699 C674 0.950 . S
H700 C676 0.950 . S
H701 C677 0.949 . S
H702 C679 0.950 . S
H703 C681 0.950 . S
C704 C705 1.349 1_554 S
C704 C706 1.327 . S
C704 H729 0.950 . S
C705 C704 1.349 1_556 S
C705 C721 1.349 . S
C706 C704 1.327 . S
C706 C725 1.429 . S
C706 H730 0.950 . S
C707 C724 1.574 . S
C707 C726 1.368 . S
C707 H731 0.949 . S
H708 C712 0.949 . S
C709 C710 1.349 . S
C709 C711 1.327 . S
C709 H732 0.950 . S
C710 C709 1.349 . S
C710 C722 1.349 . S
C711 C709 1.327 . S
C711 C727 1.429 . S
C711 H733 0.950 . S
C712 H708 0.949 . S
C712 C720 1.574 . S
C712 C728 1.368 . S
H713 C721 0.950 . S
H714 C719 0.950 . S
H715 C720 0.949 . S
H716 C722 0.950 . S
H717 C723 0.950 . S
H718 C724 0.949 . S
C719 H714 0.950 . S
C719 C721 1.327 1_554 S
C719 C725 1.429 . S
C720 C712 1.574 . S
C720 H715 0.949 . S
C720 C726 1.368 . S
C721 C705 1.349 . S
C721 H713 0.950 . S
C721 C719 1.327 1_556 S
C722 C710 1.349 . S
C722 H716 0.950 . S
C722 C723 1.327 . S
C723 H717 0.950 . S
C723 C722 1.327 . S
C723 C727 1.429 . S
C724 C707 1.574 . S
C724 H718 0.949 . S
C724 C728 1.368 . S
C725 C706 1.429 . S
C725 C719 1.429 . S
C725 C726 1.523 . S
C726 C707 1.368 . S
C726 C720 1.368 . S
C726 C725 1.523 . S
C727 C711 1.429 . S
C727 C723 1.429 . S
C727 C728 1.523 . S
C728 C712 1.368 . S
C728 C724 1.368 . S
C728 C727 1.523 . S
H729 C704 0.950 . S
H730 C706 0.950 . S
H731 C707 0.949 . S
H732 C709 0.950 . S
H733 C711 0.950 . S
C734 C735 1.349 . S
C734 C736 1.327 . S
C734 H759 0.950 . S
C735 C734 1.349 . S
C735 C751 1.349 . S
C736 C734 1.327 . S
C736 C755 1.429 . S
C736 H760 0.950 . S
C737 C754 1.574 . S
C737 C756 1.368 . S
C737 H761 0.949 . S
H738 C742 0.949 . S
C739 C740 1.349 . S
C739 C741 1.327 . S
C739 H762 0.950 . S
C740 C739 1.349 . S
C740 C752 1.349 . S
C741 C739 1.327 . S
C741 C757 1.429 . S
C741 H763 0.950 . S
C742 H738 0.949 . S
C742 C750 1.574 . S
C742 C758 1.368 . S
H743 C751 0.950 . S
H744 C749 0.950 . S
H745 C750 0.949 . S
H746 C752 0.950 . S
H747 C753 0.950 . S
H748 C754 0.949 . S
C749 H744 0.950 . S
C749 C751 1.327 . S
C749 C755 1.429 . S
C750 C742 1.574 . S
C750 H745 0.949 . S
C750 C756 1.368 . S
C751 C735 1.349 . S
C751 H743 0.950 . S
C751 C749 1.327 . S
C752 C740 1.349 . S
C752 H746 0.950 . S
C752 C753 1.327 . S
C753 H747 0.950 . S
C753 C752 1.327 . S
C753 C757 1.429 . S
C754 C737 1.574 . S
C754 H748 0.949 . S
C754 C758 1.368 . S
C755 C736 1.429 . S
C755 C749 1.429 . S
C755 C756 1.523 . S
C756 C737 1.368 . S
C756 C750 1.368 . S
C756 C755 1.523 . S
C757 C741 1.429 . S
C757 C753 1.429 . S
C757 C758 1.523 . S
C758 C742 1.368 . S
C758 C754 1.368 . S
C758 C757 1.523 . S
H759 C734 0.950 . S
H760 C736 0.950 . S
H761 C737 0.949 . S
H762 C739 0.950 . S
H763 C741 0.950 . S
C764 C765 1.349 . S
C764 C766 1.327 . S
C764 H789 0.950 . S
C765 C764 1.349 . S
C765 C781 1.349 . S
C766 C764 1.327 . S
C766 C785 1.429 . S
C766 H790 0.950 . S
C767 C784 1.574 . S
C767 C786 1.368 . S
C767 H791 0.949 . S
H768 C772 0.949 . S
C769 C770 1.349 . S
C769 C771 1.327 1_556 S
C769 H792 0.950 . S
C770 C769 1.349 . S
C770 C782 1.349 1_556 S
C771 C769 1.327 1_554 S
C771 C787 1.429 . S
C771 H793 0.950 . S
C772 H768 0.949 . S
C772 C780 1.574 . S
C772 C788 1.368 . S
H773 C781 0.950 . S
H774 C779 0.950 . S
H775 C780 0.949 . S
H776 C782 0.950 . S
H777 C783 0.950 . S
H778 C784 0.949 . S
C779 H774 0.950 . S
C779 C781 1.327 . S
C779 C785 1.429 . S
C780 C772 1.574 . S
C780 H775 0.949 . S
C780 C786 1.368 . S
C781 C765 1.349 . S
C781 H773 0.950 . S
C781 C779 1.327 . S
C782 C770 1.349 1_554 S
C782 H776 0.950 . S
C782 C783 1.327 . S
C783 H777 0.950 . S
C783 C782 1.327 . S
C783 C787 1.429 . S
C784 C767 1.574 . S
C784 H778 0.949 . S
C784 C788 1.368 . S
C785 C766 1.429 . S
C785 C779 1.429 . S
C785 C786 1.523 . S
C786 C767 1.368 . S
C786 C780 1.368 . S
C786 C785 1.523 . S
C787 C771 1.429 . S
C787 C783 1.429 . S
C787 C788 1.523 . S
C788 C772 1.368 . S
C788 C784 1.368 . S
C788 C787 1.523 . S
H789 C764 0.950 . S
H790 C766 0.950 . S
H791 C767 0.949 . S
H792 C769 0.950 . S
H793 C771 0.950 . S
C794 C795 1.349 . S
C794 C796 1.327 . S
C794 H819 0.950 . S
C795 C794 1.349 . S
C795 C811 1.349 . S
C796 C794 1.327 . S
C796 C815 1.429 . S
C796 H820 0.950 . S
C797 C814 1.574 . S
C797 C816 1.368 . S
C797 H821 0.949 . S
H798 C802 0.949 . S
C799 C800 1.349 . S
C799 C801 1.327 . S
C799 H822 0.950 . S
C800 C799 1.349 . S
C800 C812 1.349 . S
C801 C799 1.327 . S
C801 C817 1.429 . S
C801 H823 0.950 . S
C802 H798 0.949 . S
C802 C810 1.574 . S
C802 C818 1.368 . S
H803 C811 0.950 . S
H804 C809 0.950 . S
H805 C810 0.949 . S
H806 C812 0.950 . S
H807 C813 0.950 . S
H808 C814 0.949 . S
C809 H804 0.950 . S
C809 C811 1.327 . S
C809 C815 1.429 . S
C810 C802 1.574 . S
C810 H805 0.949 . S
C810 C816 1.368 . S
C811 C795 1.349 . S
C811 H803 0.950 . S
C811 C809 1.327 . S
C812 C800 1.349 . S
C812 H806 0.950 . S
C812 C813 1.327 . S
C813 H807 0.950 . S
C813 C812 1.327 . S
C813 C817 1.429 . S
C814 C797 1.574 . S
C814 H808 0.949 . S
C814 C818 1.368 . S
C815 C796 1.429 . S
C815 C809 1.429 . S
C815 C816 1.523 . S
C816 C797 1.368 . S
C816 C810 1.368 . S
C816 C815 1.523 . S
C817 C801 1.429 . S
C817 C813 1.429 . S
C817 C818 1.523 . S
C818 C802 1.368 . S
C818 C814 1.368 . S
C818 C817 1.523 . S
H819 C794 0.950 . S
H820 C796 0.950 . S
H821 C797 0.949 . S
H822 C799 0.950 . S
H823 C801 0.950 . S
C824 C825 1.349 . S
C824 C826 1.327 . S
C824 H849 0.950 . S
C825 C824 1.349 . S
C825 C841 1.349 . S
C826 C824 1.327 . S
C826 C845 1.429 . S
C826 H850 0.950 . S
C827 C844 1.574 . S
C827 C846 1.368 . S
C827 H851 0.949 . S
H828 C832 0.949 . S
C829 C830 1.349 1_556 S
C829 C831 1.327 . S
C829 H852 0.950 . S
C830 C829 1.349 1_554 S
C830 C842 1.349 1_554 S
C831 C829 1.327 . S
C831 C847 1.429 . S
C831 H853 0.950 . S
C832 H828 0.949 . S
C832 C840 1.574 . S
C832 C848 1.368 . S
H833 C841 0.950 . S
H834 C839 0.950 . S
H835 C840 0.949 . S
H836 C842 0.950 1_554 S
H837 C843 0.950 . S
H838 C844 0.949 . S
C839 H834 0.950 . S
C839 C841 1.327 . S
C839 C845 1.429 . S
C840 C832 1.574 . S
C840 H835 0.949 . S
C840 C846 1.368 . S
C841 C825 1.349 . S
C841 H833 0.950 . S
C841 C839 1.327 . S
C842 C830 1.349 1_556 S
C842 H836 0.950 1_556 S
C842 C843 1.327 . S
C843 H837 0.950 . S
C843 C842 1.327 . S
C843 C847 1.429 . S
C844 C827 1.574 . S
C844 H838 0.949 . S
C844 C848 1.368 . S
C845 C826 1.429 . S
C845 C839 1.429 . S
C845 C846 1.523 . S
C846 C827 1.368 . S
C846 C840 1.368 . S
C846 C845 1.523 . S
C847 C831 1.429 . S
C847 C843 1.429 . S
C847 C848 1.523 . S
C848 C832 1.368 . S
C848 C844 1.368 . S
C848 C847 1.523 . S
H849 C824 0.950 . S
H850 C826 0.950 . S
H851 C827 0.949 . S
H852 C829 0.950 . S
H853 C831 0.950 . S
C854 C855 1.349 . S
C854 C856 1.327 . S
C854 H879 0.950 . S
C855 C854 1.349 . S
C855 C871 1.349 . S
C856 C854 1.327 . S
C856 C875 1.429 . S
C856 H880 0.950 . S
C857 C874 1.574 . S
C857 C876 1.368 . S
C857 H881 0.949 . S
H858 C862 0.949 . S
C859 C860 1.349 . S
C859 C861 1.327 . S
C859 H882 0.950 . S
C860 C859 1.349 . S
C860 C872 1.349 . S
C861 C859 1.327 . S
C861 C877 1.429 . S
C861 H883 0.950 . S
C862 H858 0.949 . S
C862 C870 1.574 . S
C862 C878 1.368 . S
H863 C871 0.950 . S
H864 C869 0.950 . S
H865 C870 0.949 . S
H866 C872 0.950 . S
H867 C873 0.950 . S
H868 C874 0.949 . S
C869 H864 0.950 . S
C869 C871 1.327 . S
C869 C875 1.429 . S
C870 C862 1.574 . S
C870 H865 0.949 . S
C870 C876 1.368 . S
C871 C855 1.349 . S
C871 H863 0.950 . S
C871 C869 1.327 . S
C872 C860 1.349 . S
C872 H866 0.950 . S
C872 C873 1.327 . S
C873 H867 0.950 . S
C873 C872 1.327 . S
C873 C877 1.429 . S
C874 C857 1.574 . S
C874 H868 0.949 . S
C874 C878 1.368 . S
C875 C856 1.429 . S
C875 C869 1.429 . S
C875 C876 1.523 . S
C876 C857 1.368 . S
C876 C870 1.368 . S
C876 C875 1.523 . S
C877 C861 1.429 . S
C877 C873 1.429 . S
C877 C878 1.523 . S
C878 C862 1.368 . S
C878 C874 1.368 . S
C878 C877 1.523 . S
H879 C854 0.950 . S
H880 C856 0.950 . S
H881 C857 0.949 . S
H882 C859 0.950 . S
H883 C861 0.950 . S
C884 C885 1.349 1_556 S
C884 C886 1.327 . S
C884 H909 0.950 . S
C885 C884 1.349 1_554 S
C885 C901 1.349 . S
C886 C884 1.327 . S
C886 C905 1.429 . S
C886 H910 0.950 . S
C887 C904 1.574 . S
C887 C906 1.368 . S
C887 H911 0.949 . S
H888 C892 0.949 . S
C889 C890 1.349 . S
C889 C891 1.327 . S
C889 H912 0.950 . S
C890 C889 1.349 . S
C890 C902 1.349 . S
C891 C889 1.327 . S
C891 C907 1.429 . S
C891 H913 0.950 . S
C892 H888 0.949 . S
C892 C900 1.574 . S
C892 C908 1.368 . S
H893 C901 0.950 . S
H894 C899 0.950 . S
H895 C900 0.949 . S
H896 C902 0.950 . S
H897 C903 0.950 . S
H898 C904 0.949 . S
C899 H894 0.950 . S
C899 C901 1.327 1_556 S
C899 C905 1.429 . S
C900 C892 1.574 . S
C900 H895 0.949 . S
C900 C906 1.368 . S
C901 C885 1.349 . S
C901 H893 0.950 . S
C901 C899 1.327 1_554 S
C902 C890 1.349 . S
C902 H896 0.950 . S
C902 C903 1.327 . S
C903 H897 0.950 . S
C903 C902 1.327 . S
C903 C907 1.429 . S
C904 C887 1.574 . S
C904 H898 0.949 . S
C904 C908 1.368 . S
C905 C886 1.429 . S
C905 C899 1.429 . S
C905 C906 1.523 . S
C906 C887 1.368 . S
C906 C900 1.368 . S
C906 C905 1.523 . S
C907 C891 1.429 . S
C907 C903 1.429 . S
C907 C908 1.523 . S
C908 C892 1.368 . S
C908 C904 1.368 . S
C908 C907 1.523 . S
H909 C884 0.950 . S
H910 C886 0.950 . S
H911 C887 0.949 . S
H912 C889 0.950 . S
H913 C891 0.950 . S
C914 C915 1.349 . S
C914 C916 1.327 . S
C914 H939 0.950 . S
C915 C914 1.349 . S
C915 C931 1.349 . S
C916 C914 1.327 . S
C916 C935 1.429 . S
C916 H940 0.950 . S
C917 C934 1.574 . S
C917 C936 1.368 . S
C917 H941 0.949 . S
H918 C922 0.949 . S
C919 C920 1.349 . S
C919 C921 1.327 . S
C919 H942 0.950 . S
C920 C919 1.349 . S
C920 C932 1.349 . S
C921 C919 1.327 . S
C921 C937 1.429 . S
C921 H943 0.950 . S
C922 H918 0.949 . S
C922 C930 1.574 . S
C922 C938 1.368 . S
H923 C931 0.950 . S
H924 C929 0.950 . S
H925 C930 0.949 . S
H926 C932 0.950 . S
H927 C933 0.950 . S
H928 C934 0.949 . S
C929 H924 0.950 . S
C929 C931 1.327 . S
C929 C935 1.429 . S
C930 C922 1.574 . S
C930 H925 0.949 . S
C930 C936 1.368 . S
C931 C915 1.349 . S
C931 H923 0.950 . S
C931 C929 1.327 . S
C932 C920 1.349 . S
C932 H926 0.950 . S
C932 C933 1.327 . S
C933 H927 0.950 . S
C933 C932 1.327 . S
C933 C937 1.429 . S
C934 C917 1.574 . S
C934 H928 0.949 . S
C934 C938 1.368 . S
C935 C916 1.429 . S
C935 C929 1.429 . S
C935 C936 1.523 . S
C936 C917 1.368 . S
C936 C930 1.368 . S
C936 C935 1.523 . S
C937 C921 1.429 . S
C937 C933 1.429 . S
C937 C938 1.523 . S
C938 C922 1.368 . S
C938 C934 1.368 . S
C938 C937 1.523 . S
H939 C914 0.950 . S
H940 C916 0.950 . S
H941 C917 0.949 . S
H942 C919 0.950 . S
H943 C921 0.950 . S
C944 C945 1.349 . S
C944 C946 1.327 . S
C944 H969 0.950 . S
C945 C944 1.349 . S
C945 C961 1.349 . S
C946 C944 1.327 . S
C946 C965 1.429 . S
C946 H970 0.950 . S
C947 C964 1.574 . S
C947 C966 1.368 . S
C947 H971 0.949 . S
H948 C952 0.949 . S
C949 C950 1.349 . S
C949 C951 1.327 . S
C949 H972 0.950 . S
C950 C949 1.349 . S
C950 C962 1.349 . S
C951 C949 1.327 . S
C951 C967 1.429 . S
C951 H973 0.950 . S
C952 H948 0.949 . S
C952 C960 1.574 . S
C952 C968 1.368 . S
H953 C961 0.950 . S
H954 C959 0.950 . S
H955 C960 0.949 . S
H956 C962 0.950 . S
H957 C963 0.950 . S
H958 C964 0.949 . S
C959 H954 0.950 . S
C959 C961 1.327 . S
C959 C965 1.429 . S
C960 C952 1.574 . S
C960 H955 0.949 . S
C960 C966 1.368 . S
C961 C945 1.349 . S
C961 H953 0.950 . S
C961 C959 1.327 . S
C962 C950 1.349 . S
C962 H956 0.950 . S
C962 C963 1.327 . S
C963 H957 0.950 . S
C963 C962 1.327 . S
C963 C967 1.429 . S
C964 C947 1.574 . S
C964 H958 0.949 . S
C964 C968 1.368 . S
C965 C946 1.429 . S
C965 C959 1.429 . S
C965 C966 1.523 . S
C966 C947 1.368 . S
C966 C960 1.368 . S
C966 C965 1.523 . S
C967 C951 1.429 . S
C967 C963 1.429 . S
C967 C968 1.523 . S
C968 C952 1.368 . S
C968 C964 1.368 . S
C968 C967 1.523 . S
H969 C944 0.950 . S
H970 C946 0.950 . S
H971 C947 0.949 . S
H972 C949 0.950 . S
H973 C951 0.950 . S
C974 C975 1.349 . S
C974 C976 1.327 . S
C974 H999 0.950 . S
C975 C974 1.349 . S
C975 C991 1.349 . S
C976 C974 1.327 . S
C976 C995 1.429 . S
C976 H1000 0.950 . S
C977 C994 1.574 . S
C977 C996 1.368 . S
C977 H1001 0.949 . S
H978 C982 0.949 . S
C979 C980 1.349 . S
C979 C981 1.327 . S
C979 H1002 0.950 . S
C980 C979 1.349 . S
C980 C992 1.349 . S
C981 C979 1.327 . S
C981 C997 1.429 . S
C981 H1003 0.950 . S
C982 H978 0.949 . S
C982 C990 1.574 . S
C982 C998 1.368 . S
H983 C991 0.950 . S
H984 C989 0.950 . S
H985 C990 0.949 . S
H986 C992 0.950 . S
H987 C993 0.950 . S
H988 C994 0.949 . S
C989 H984 0.950 . S
C989 C991 1.327 . S
C989 C995 1.429 . S
C990 C982 1.574 . S
C990 H985 0.949 . S
C990 C996 1.368 . S
C991 C975 1.349 . S
C991 H983 0.950 . S
C991 C989 1.327 . S
C992 C980 1.349 . S
C992 H986 0.950 . S
C992 C993 1.327 . S
C993 H987 0.950 . S
C993 C992 1.327 . S
C993 C997 1.429 . S
C994 C977 1.574 . S
C994 H988 0.949 . S
C994 C998 1.368 . S
C995 C976 1.429 . S
C995 C989 1.429 . S
C995 C996 1.523 . S
C996 C977 1.368 . S
C996 C990 1.368 . S
C996 C995 1.523 . S
C997 C981 1.429 . S
C997 C993 1.429 . S
C997 C998 1.523 . S
C998 C982 1.368 . S
C998 C994 1.368 . S
C998 C997 1.523 . S
H999 C974 0.950 . S
H1000 C976 0.950 . S
H1001 C977 0.949 . S
H1002 C979 0.950 . S
H1003 C981 0.950 . S
C1004 C1005 1.349 . S
C1004 C1006 1.327 . S
C1004 H1029 0.950 . S
C1005 C1004 1.349 . S
C1005 C1021 1.349 . S
C1006 C1004 1.327 . S
C1006 C1025 1.429 . S
C1006 H1030 0.950 . S
C1007 C1024 1.574 . S
C1007 C1026 1.368 . S
C1007 H1031 0.949 . S
H1008 C1012 0.949 . S
C1009 C1010 1.349 . S
C1009 C1011 1.327 . S
C1009 H1032 0.950 . S
C1010 C1009 1.349 . S
C1010 C1022 1.349 . S
C1011 C1009 1.327 . S
C1011 C1027 1.429 . S
C1011 H1033 0.950 . S
C1012 H1008 0.949 . S
C1012 C1020 1.574 . S
C1012 C1028 1.368 . S
H1013 C1021 0.950 . S
H1014 C1019 0.950 . S
H1015 C1020 0.949 . S
H1016 C1022 0.950 . S
H1017 C1023 0.950 . S
H1018 C1024 0.949 . S
C1019 H1014 0.950 . S
C1019 C1021 1.327 . S
C1019 C1025 1.429 . S
C1020 C1012 1.574 . S
C1020 H1015 0.949 . S
C1020 C1026 1.368 . S
C1021 C1005 1.349 . S
C1021 H1013 0.950 . S
C1021 C1019 1.327 . S
C1022 C1010 1.349 . S
C1022 H1016 0.950 . S
C1022 C1023 1.327 . S
C1023 H1017 0.950 . S
C1023 C1022 1.327 . S
C1023 C1027 1.429 . S
C1024 C1007 1.574 . S
C1024 H1018 0.949 . S
C1024 C1028 1.368 . S
C1025 C1006 1.429 . S
C1025 C1019 1.429 . S
C1025 C1026 1.523 . S
C1026 C1007 1.368 . S
C1026 C1020 1.368 . S
C1026 C1025 1.523 . S
C1027 C1011 1.429 . S
C1027 C1023 1.429 . S
C1027 C1028 1.523 . S
C1028 C1012 1.368 . S
C1028 C1024 1.368 . S
C1028 C1027 1.523 . S
H1029 C1004 0.950 . S
H1030 C1006 0.950 . S
H1031 C1007 0.949 . S
H1032 C1009 0.950 . S
H1033 C1011 0.950 . S
C1034 C1035 1.349 . S
C1034 C1036 1.327 . S
C1034 H1059 0.950 . S
C1035 C1034 1.349 . S
C1035 C1051 1.349 . S
C1036 C1034 1.327 . S
C1036 C1055 1.429 . S
C1036 H1060 0.950 . S
C1037 C1054 1.574 . S
C1037 C1056 1.368 . S
C1037 H1061 0.949 . S
H1038 C1042 0.949 . S
C1039 C1040 1.349 . S
C1039 C1041 1.327 . S
C1039 H1062 0.950 . S
C1040 C1039 1.349 . S
C1040 C1052 1.349 . S
C1041 C1039 1.327 . S
C1041 C1057 1.429 . S
C1041 H1063 0.950 . S
C1042 H1038 0.949 . S
C1042 C1050 1.574 . S
C1042 C1058 1.368 . S
H1043 C1051 0.950 . S
H1044 C1049 0.950 . S
H1045 C1050 0.949 . S
H1046 C1052 0.950 . S
H1047 C1053 0.950 . S
H1048 C1054 0.949 . S
C1049 H1044 0.950 . S
C1049 C1051 1.327 . S
C1049 C1055 1.429 . S
C1050 C1042 1.574 . S
C1050 H1045 0.949 . S
C1050 C1056 1.368 . S
C1051 C1035 1.349 . S
C1051 H1043 0.950 . S
C1051 C1049 1.327 . S
C1052 C1040 1.349 . S
C1052 H1046 0.950 . S
C1052 C1053 1.327 . S
C1053 H1047 0.950 . S
C1053 C1052 1.327 . S
C1053 C1057 1.429 . S
C1054 C1037 1.574 . S
C1054 H1048 0.949 . S
C1054 C1058 1.368 . S
C1055 C1036 1.429 . S
C1055 C1049 1.429 . S
C1055 C1056 1.523 . S
C1056 C1037 1.368 . S
C1056 C1050 1.368 . S
C1056 C1055 1.523 . S
C1057 C1041 1.429 . S
C1057 C1053 1.429 . S
C1057 C1058 1.523 . S
C1058 C1042 1.368 . S
C1058 C1054 1.368 . S
C1058 C1057 1.523 . S
H1059 C1034 0.950 . S
H1060 C1036 0.950 . S
H1061 C1037 0.949 . S
H1062 C1039 0.950 . S
H1063 C1041 0.950 . S
C1064 C1065 1.349 . S
C1064 C1066 1.327 . S
C1064 H1089 0.950 . S
C1065 C1064 1.349 . S
C1065 C1081 1.349 . S
C1066 C1064 1.327 . S
C1066 C1085 1.429 . S
C1066 H1090 0.950 . S
C1067 C1084 1.574 . S
C1067 C1086 1.368 . S
C1067 H1091 0.949 . S
H1068 C1072 0.949 . S
C1069 C1070 1.349 . S
C1069 C1071 1.327 . S
C1069 H1092 0.950 . S
C1070 C1069 1.349 . S
C1070 C1082 1.349 . S
C1071 C1069 1.327 . S
C1071 C1087 1.429 . S
C1071 H1093 0.950 . S
C1072 H1068 0.949 . S
C1072 C1080 1.574 . S
C1072 C1088 1.368 . S
H1073 C1081 0.950 . S
H1074 C1079 0.950 . S
H1075 C1080 0.949 . S
H1076 C1082 0.950 . S
H1077 C1083 0.950 . S
H1078 C1084 0.949 . S
C1079 H1074 0.950 . S
C1079 C1081 1.327 . S
C1079 C1085 1.429 . S
C1080 C1072 1.574 . S
C1080 H1075 0.949 . S
C1080 C1086 1.368 . S
C1081 C1065 1.349 . S
C1081 H1073 0.950 . S
C1081 C1079 1.327 . S
C1082 C1070 1.349 . S
C1082 H1076 0.950 . S
C1082 C1083 1.327 . S
C1083 H1077 0.950 . S
C1083 C1082 1.327 . S
C1083 C1087 1.429 . S
C1084 C1067 1.574 . S
C1084 H1078 0.949 . S
C1084 C1088 1.368 . S
C1085 C1066 1.429 . S
C1085 C1079 1.429 . S
C1085 C1086 1.523 . S
C1086 C1067 1.368 . S
C1086 C1080 1.368 . S
C1086 C1085 1.523 . S
C1087 C1071 1.429 . S
C1087 C1083 1.429 . S
C1087 C1088 1.523 . S
C1088 C1072 1.368 . S
C1088 C1084 1.368 . S
C1088 C1087 1.523 . S
H1089 C1064 0.950 . S
H1090 C1066 0.950 . S
H1091 C1067 0.949 . S
H1092 C1069 0.950 . S
H1093 C1071 0.950 . S
C1094 C1095 1.349 . S
C1094 C1096 1.327 . S
C1094 H1119 0.950 . S
C1095 C1094 1.349 . S
C1095 C1111 1.349 . S
C1096 C1094 1.327 . S
C1096 C1115 1.429 . S
C1096 H1120 0.950 . S
C1097 C1114 1.574 . S
C1097 C1116 1.368 . S
C1097 H1121 0.949 . S
H1098 C1102 0.949 . S
C1099 C1100 1.349 . S
C1099 C1101 1.327 . S
C1099 H1122 0.950 . S
C1100 C1099 1.349 . S
C1100 C1112 1.349 . S
C1101 C1099 1.327 . S
C1101 C1117 1.429 . S
C1101 H1123 0.950 . S
C1102 H1098 0.949 . S
C1102 C1110 1.574 . S
C1102 C1118 1.368 . S
H1103 C1111 0.950 . S
H1104 C1109 0.950 . S
H1105 C1110 0.949 . S
H1106 C1112 0.950 . S
H1107 C1113 0.950 . S
H1108 C1114 0.949 . S
C1109 H1104 0.950 . S
C1109 C1111 1.327 . S
C1109 C1115 1.429 . S
C1110 C1102 1.574 . S
C1110 H1105 0.949 . S
C1110 C1116 1.368 . S
C1111 C1095 1.349 . S
C1111 H1103 0.950 . S
C1111 C1109 1.327 . S
C1112 C1100 1.349 . S
C1112 H1106 0.950 . S
C1112 C1113 1.327 . S
C1113 H1107 0.950 . S
C1113 C1112 1.327 . S
C1113 C1117 1.429 . S
C1114 C1097 1.574 . S
C1114 H1108 0.949 . S
C1114 C1118 1.368 . S
C1115 C1096 1.429 . S
C1115 C1109 1.429 . S
C1115 C1116 1.523 . S
C1116 C1097 1.368 . S
C1116 C1110 1.368 . S
C1116 C1115 1.523 . S
C1117 C1101 1.429 . S
C1117 C1113 1.429 . S
C1117 C1118 1.523 . S
C1118 C1102 1.368 . S
C1118 C1114 1.368 . S
C1118 C1117 1.523 . S
H1119 C1094 0.950 . S
H1120 C1096 0.950 . S
H1121 C1097 0.949 . S
H1122 C1099 0.950 . S
H1123 C1101 0.950 . S
C1124 C1125 1.349 . S
C1124 C1126 1.327 . S
C1124 H1149 0.950 . S
C1125 C1124 1.349 . S
C1125 C1141 1.349 . S
C1126 C1124 1.327 . S
C1126 C1145 1.429 . S
C1126 H1150 0.950 . S
C1127 C1144 1.574 . S
C1127 C1146 1.368 . S
C1127 H1151 0.949 . S
H1128 C1132 0.949 . S
C1129 C1130 1.349 . S
C1129 C1131 1.327 . S
C1129 H1152 0.950 . S
C1130 C1129 1.349 . S
C1130 C1142 1.349 . S
C1131 C1129 1.327 . S
C1131 C1147 1.429 . S
C1131 H1153 0.950 . S
C1132 H1128 0.949 . S
C1132 C1140 1.574 . S
C1132 C1148 1.368 . S
H1133 C1141 0.950 . S
H1134 C1139 0.950 . S
H1135 C1140 0.949 . S
H1136 C1142 0.950 . S
H1137 C1143 0.950 . S
H1138 C1144 0.949 . S
C1139 H1134 0.950 . S
C1139 C1141 1.327 . S
C1139 C1145 1.429 . S
C1140 C1132 1.574 . S
C1140 H1135 0.949 . S
C1140 C1146 1.368 . S
C1141 C1125 1.349 . S
C1141 H1133 0.950 . S
C1141 C1139 1.327 . S
C1142 C1130 1.349 . S
C1142 H1136 0.950 . S
C1142 C1143 1.327 . S
C1143 H1137 0.950 . S
C1143 C1142 1.327 . S
C1143 C1147 1.429 . S
C1144 C1127 1.574 . S
C1144 H1138 0.949 . S
C1144 C1148 1.368 . S
C1145 C1126 1.429 . S
C1145 C1139 1.429 . S
C1145 C1146 1.523 . S
C1146 C1127 1.368 . S
C1146 C1140 1.368 . S
C1146 C1145 1.523 . S
C1147 C1131 1.429 . S
C1147 C1143 1.429 . S
C1147 C1148 1.523 . S
C1148 C1132 1.368 . S
C1148 C1144 1.368 . S
C1148 C1147 1.523 . S
H1149 C1124 0.950 . S
H1150 C1126 0.950 . S
H1151 C1127 0.949 . S
H1152 C1129 0.950 . S
H1153 C1131 0.950 . S
C1154 C1155 1.349 . S
C1154 C1156 1.327 . S
C1154 H1179 0.950 . S
C1155 C1154 1.349 . S
C1155 C1171 1.349 . S
C1156 C1154 1.327 . S
C1156 C1175 1.429 . S
C1156 H1180 0.950 . S
C1157 C1174 1.574 . S
C1157 C1176 1.368 . S
C1157 H1181 0.949 . S
H1158 C1162 0.949 . S
C1159 C1160 1.349 . S
C1159 C1161 1.327 . S
C1159 H1182 0.950 . S
C1160 C1159 1.349 . S
C1160 C1172 1.349 . S
C1161 C1159 1.327 . S
C1161 C1177 1.429 . S
C1161 H1183 0.950 . S
C1162 H1158 0.949 . S
C1162 C1170 1.574 . S
C1162 C1178 1.368 . S
H1163 C1171 0.950 . S
H1164 C1169 0.950 . S
H1165 C1170 0.949 . S
H1166 C1172 0.950 . S
H1167 C1173 0.950 . S
H1168 C1174 0.949 . S
C1169 H1164 0.950 . S
C1169 C1171 1.327 . S
C1169 C1175 1.429 . S
C1170 C1162 1.574 . S
C1170 H1165 0.949 . S
C1170 C1176 1.368 . S
C1171 C1155 1.349 . S
C1171 H1163 0.950 . S
C1171 C1169 1.327 . S
C1172 C1160 1.349 . S
C1172 H1166 0.950 . S
C1172 C1173 1.327 . S
C1173 H1167 0.950 . S
C1173 C1172 1.327 . S
C1173 C1177 1.429 . S
C1174 C1157 1.574 . S
C1174 H1168 0.949 . S
C1174 C1178 1.368 . S
C1175 C1156 1.429 . S
C1175 C1169 1.429 . S
C1175 C1176 1.523 . S
C1176 C1157 1.368 . S
C1176 C1170 1.368 . S
C1176 C1175 1.523 . S
C1177 C1161 1.429 . S
C1177 C1173 1.429 . S
C1177 C1178 1.523 . S
C1178 C1162 1.368 . S
C1178 C1174 1.368 . S
C1178 C1177 1.523 . S
H1179 C1154 0.950 . S
H1180 C1156 0.950 . S
H1181 C1157 0.949 . S
H1182 C1159 0.950 . S
H1183 C1161 0.950 . S
C225 C11 0.940 . S
C230 C67 0.940 . S
C255 C81 0.940 . S
C260 C25 0.940 . S
C285 C39 0.940 . S
C290 C95 0.940 . S
C315 C53 0.940 . S
C320 C109 0.940 . S
C345 C123 0.940 . S
C350 C179 0.940 . S
C375 C193 0.940 . S
C380 C137 0.940 . S
C405 C151 0.940 . S
C410 C207 0.940 . S
C435 C165 0.940 . S
C440 C221 0.940 . S
C465 C9 1.457 . S
C470 C215 1.449 . S
C495 C173 1.449 . S
C500 C23 1.457 . S
C525 C37 1.457 . S
C530 C187 1.450 . S
C555 C201 1.449 . S
C560 C51 1.457 . S
C585 C131 1.449 . S
C590 C65 1.457 . S
C615 C145 1.449 . S
C620 C79 1.457 . S
C645 C159 1.449 . S
C650 C93 1.457 . S
C675 C117 1.449 . S
C680 C107 1.457 . S
C705 C121 1.457 . S
C710 C103 1.449 . S
C735 C61 1.449 . S
C740 C135 1.457 . S
C765 C75 1.450 . S
C770 C149 1.457 . S
C795 C163 1.457 . S
C800 C89 1.449 . S
C825 C19 1.449 . S
C830 C177 1.457 . S
C855 C191 1.457 . S
C860 C33 1.449 . S
C885 C205 1.457 . S
C890 C47 1.449 . S
C915 C219 1.457 . S
C920 C5 1.450 . S
C945 C98 0.930 . S
C950 C0 0.930 . S
C975 C14 0.930 . S
C980 C56 0.930 . S
C1005 C28 0.930 . S
C1010 C70 0.930 . S
C1035 C42 0.930 . S
C1040 C84 0.930 . S
C1065 C210 0.930 . S
C1070 C112 0.930 . S
C1095 C168 0.930 . S
C1100 C126 0.930 . S
C1125 C182 0.930 . S
C1130 C140 0.930 . S
C1155 C196 0.930 . S
C1160 C154 0.930 . S
