# Generated by pormake.
# Topology qtz-x, (6)-cn, num edge types: 1
# Building blocks:
#     Node 0, Type 0, BuildingBlock: KUMBOL_clean_sbu_0, # of connection points: 6
#     Node 1, Type 0, BuildingBlock: KUMBOL_clean_sbu_0, # of connection points: 6
#     Node 2, Type 0, BuildingBlock: KUMBOL_clean_sbu_0, # of connection points: 6
#     Edge 3, Type (0, 0), BuildingBlock: ZUJKAS_clean_linker_0, # of connection points: 2
#     Edge 4, Type (0, 0), BuildingBlock: ZUJKAS_clean_linker_0, # of connection points: 2
#     Edge 5, Type (0, 0), BuildingBlock: ZUJKAS_clean_linker_0, # of connection points: 2
#     Edge 6, Type (0, 0), BuildingBlock: ZUJKAS_clean_linker_0, # of connection points: 2
#     Edge 7, Type (0, 0), BuildingBlock: ZUJKAS_clean_linker_0, # of connection points: 2
#     Edge 8, Type (0, 0), BuildingBlock: ZUJKAS_clean_linker_0, # of connection points: 2
#     Edge 9, Type (0, 0), BuildingBlock: ZUJKAS_clean_linker_0, # of connection points: 2
#     Edge 10, Type (0, 0), BuildingBlock: ZUJKAS_clean_linker_0, # of connection points: 2
#     Edge 11, Type (0, 0), BuildingBlock: ZUJKAS_clean_linker_0, # of connection points: 2
# Relax obj value: 0.169
# Max RMSD: 0.277
# Mean RMSD: 0.277
data_MOF--net-qtz-x--node1-KUMBOL_clean_sbu_0--edge1-ZUJKAS_clean_linker_0
_symmetry_space_group_name_H-M    P1
_symmetry_Int_Tables_number       1
_symmetry_cell_setting            triclinic
loop_
_symmetry_equiv_pos_as_xyz
'x, y, z'
_cell_length_a     19.468749
_cell_length_b     19.561243
_cell_length_c     62.273432
_cell_angle_alpha  89.97378
_cell_angle_beta   90.215334
_cell_angle_gamma 120.06475
loop_
_atom_site_label
_atom_site_type_symbol
_atom_site_fract_x
_atom_site_fract_y
_atom_site_fract_z
_atom_type_partial_charge
Gd0 Gd 0.04002 0.41586 0.1668 0.0
Gd1 Gd 0.24428 0.52637 0.18809 0.0
C2 C 0.4319 0.7792 0.17016 0.0
C3 C 0.50115 0.75769 0.14089 0.0
C4 C 0.39256 0.64593 0.1591 0.0
C5 C 0.38189 0.6968 0.17209 0.0
C6 C 0.4537 0.67569 0.14369 0.0
C7 C 0.49031 0.80942 0.15413 0.0
C8 C 0.42334 0.82857 0.18483 0.0
C9 C 0.3681 0.79527 0.20138 0.0
N10 N 0.32517 0.66541 0.18744 0.0
C11 C 0.32027 0.71314 0.2027 0.0
H12 H 0.27795 0.6882 0.21559 0.0
C13 C 0.36214 0.51518 0.15208 0.0
N14 N 0.34626 0.56724 0.16245 0.0
C15 C 0.42188 0.5417 0.13657 0.0
C16 C 0.46696 0.62223 0.13207 0.0
H17 H 0.32774 0.45275 0.15531 0.0
H18 H 0.52878 0.87256 0.15224 0.0
H19 H 0.95799 0.2802 0.20559 0.0
H20 H 0.46054 0.89219 0.18389 0.0
H21 H 0.36232 0.83281 0.21313 0.0
H22 H 0.54783 0.78168 0.12898 0.0
H23 H 0.00488 0.52478 0.13109 0.0
H24 H 0.76652 0.29707 0.23338 0.0
H25 H 0.85041 0.23512 0.23208 0.0
H26 H 0.74888 0.48753 0.18896 0.0
H27 H 0.43277 0.4999 0.12803 0.0
H28 H 0.51314 0.64262 0.12004 0.0
H29 H 0.73035 0.39289 0.21754 0.0
H30 H 0.91824 0.58202 0.1273 0.0
N31 N 0.93769 0.369 0.19243 0.0
C32 C 0.81423 0.31755 0.22182 0.0
C33 C 0.86121 0.28229 0.22108 0.0
C34 C 0.8273 0.37668 0.20704 0.0
C35 C 0.88977 0.40078 0.19219 0.0
C36 C 0.92238 0.30823 0.20603 0.0
N37 N 0.95753 0.47117 0.16138 0.0
C38 C 0.89983 0.45344 0.17611 0.0
C39 C 0.91284 0.54649 0.14122 0.0
C40 C 0.85644 0.53263 0.15693 0.0
C41 C 0.96207 0.51391 0.14347 0.0
C42 C 0.84824 0.48429 0.17444 0.0
H43 H 0.81804 0.55754 0.15508 0.0
O44 O 0.01743 0.36761 0.13435 0.0
O45 O 0.16908 0.46552 0.15982 0.0
O46 O 0.2099 0.61161 0.17413 0.0
O47 O 0.07053 0.54028 0.17486 0.0
O48 O 0.10275 0.48677 0.13754 0.0
O49 O 0.94907 0.29395 0.16058 0.0
O50 O 0.33233 0.4964 0.19888 0.0
O51 O 0.11578 0.44779 0.1959 0.0
O52 O 0.0758 0.33505 0.18305 0.0
O53 O 0.21136 0.40295 0.17779 0.0
O54 O 0.1791 0.5479 0.21459 0.0
O55 O 0.27178 0.5281 0.22212 0.0
C56 C 0.17232 0.49882 0.14216 0.0
C57 C 0.78862 0.46387 0.18985 0.0
C58 C 0.77811 0.41005 0.20613 0.0
C59 C 0.95525 0.30187 0.13984 0.0
C60 C 0.88204 0.28009 0.12746 0.0
C61 C 0.8098 0.25678 0.13793 0.0
C62 C 0.88535 0.28707 0.10492 0.0
C63 C 0.81788 0.27286 0.09289 0.0
C64 C 0.7425 0.24137 0.12614 0.0
C65 C 0.7464 0.24975 0.10386 0.0
C66 C 0.13957 0.60698 0.17371 0.0
C67 C 0.11079 0.48623 0.21152 0.0
C68 C 0.32999 0.51524 0.21877 0.0
C69 C 0.40615 0.571 0.22925 0.0
C70 C 0.47591 0.61318 0.21716 0.0
C71 C 0.4086 0.58455 0.25153 0.0
C72 C 0.47982 0.6401 0.2617 0.0
C73 C 0.54679 0.66732 0.22717 0.0
C74 C 0.54895 0.68077 0.24924 0.0
C75 C 0.14407 0.33657 0.18114 0.0
H76 H 0.80534 0.25152 0.15526 0.0
H77 H 0.94087 0.30439 0.09682 0.0
H78 H 0.6873 0.22416 0.13436 0.0
H79 H 0.6937 0.23994 0.0953 0.0
H80 H 0.47578 0.6048 0.19996 0.0
H81 H 0.35452 0.55331 0.26081 0.0
H82 H 0.60032 0.69932 0.21776 0.0
H83 H 0.60502 0.72281 0.25656 0.0
Gd84 Gd 0.70927 0.07033 0.49716 0.0
Gd85 Gd 0.58308 0.87004 0.51873 0.0
C86 C 0.47217 0.65215 0.47517 0.0
C87 C 0.33165 0.60719 0.47849 0.0
C88 C 0.42901 0.72279 0.49838 0.0
C89 C 0.49014 0.71493 0.48955 0.0
C90 C 0.34912 0.66794 0.49326 0.0
C91 C 0.393 0.5994 0.46945 0.0
C92 C 0.53412 0.64327 0.46714 0.0
C93 C 0.61158 0.69518 0.47372 0.0
N94 N 0.56659 0.76708 0.4953 0.0
C95 C 0.62677 0.75632 0.48798 0.0
H96 H 0.68738 0.79541 0.49228 0.0
C97 C 0.38835 0.78663 0.52334 0.0
N98 N 0.4472 0.78209 0.51259 0.0
C99 C 0.30858 0.73377 0.51875 0.0
C100 C 0.28885 0.67468 0.50346 0.0
H101 H 0.4029 0.83337 0.53478 0.0
H102 H 0.37849 0.55146 0.4583 0.0
H103 H 0.62619 0.15416 0.5262 0.0
H104 H 0.52264 0.59584 0.45611 0.0
H105 H 0.65996 0.68844 0.4677 0.0
H106 H 0.27074 0.56505 0.47423 0.0
H107 H 0.87692 0.09372 0.47567 0.0
H108 H 0.80872 0.34592 0.56208 0.0
H109 H 0.66701 0.2623 0.55235 0.0
H110 H 0.04705 0.35941 0.53637 0.0
H111 H 0.26244 0.7391 0.52688 0.0
H112 H 0.22692 0.63376 0.49992 0.0
H113 H 0.95047 0.38151 0.55609 0.0
H114 H 0.02161 0.17926 0.48038 0.0
N115 N 0.74298 0.17384 0.52173 0.0
C116 C 0.79105 0.29819 0.55065 0.0
C117 C 0.71106 0.25126 0.54516 0.0
C118 C 0.84754 0.28448 0.54081 0.0
C119 C 0.82129 0.22132 0.52612 0.0
C120 C 0.68813 0.18988 0.53031 0.0
N121 N 0.84786 0.14935 0.50054 0.0
C122 C 0.87553 0.20895 0.51509 0.0
C123 C 0.9812 0.18802 0.49033 0.0
C124 C 0.01064 0.24743 0.50591 0.0
C125 C 0.89917 0.13977 0.48767 0.0
C126 C 0.95768 0.25921 0.51835 0.0
H127 H 0.07421 0.28476 0.50792 0.0
O128 O 0.74102 0.10933 0.46417 0.0
O129 O 0.63014 0.94309 0.48956 0.0
O130 O 0.71061 0.89857 0.51402 0.0
O131 O 0.78486 0.03615 0.51645 0.0
O132 O 0.73157 0.00141 0.47159 0.0
O133 O 0.67446 0.14978 0.48297 0.0
O134 O 0.64344 0.86819 0.54824 0.0
O135 O 0.65516 -0.00274 0.52626 0.0
O136 O 0.58263 0.04477 0.50031 0.0
O137 O 0.50465 0.90735 0.50171 0.0
O138 O 0.54656 0.93709 0.54104 0.0
O139 O 0.52661 0.77207 0.54119 0.0
C140 C 0.66737 0.93487 0.47427 0.0
C141 C 0.98418 0.32048 0.53352 0.0
C142 C 0.92919 0.33304 0.54475 0.0
C143 C 0.71227 0.15675 0.46509 0.0
C144 C 0.76395 0.23716 0.45683 0.0
C145 C 0.79944 0.30272 0.47065 0.0
C146 C 0.77859 0.24816 0.43466 0.0
C147 C 0.82778 0.32413 0.42619 0.0
C148 C 0.84812 0.37829 0.46235 0.0
C149 C 0.86212 0.38914 0.44028 0.0
C150 C 0.77836 0.96559 0.51739 0.0
C151 C 0.61193 0.00387 0.54016 0.0
C152 C 0.58191 0.8055 0.5557 0.0
C153 C 0.55581 0.81207 0.57755 0.0
C154 C 0.49255 0.82651 0.58017 0.0
C155 C 0.59421 0.80495 0.59595 0.0
C156 C 0.5698 0.81297 0.61672 0.0
C157 C 0.46939 0.83609 0.60053 0.0
C158 C 0.50754 0.82943 0.61867 0.0
C159 C 0.51352 0.97837 0.4989 0.0
H160 H 0.7896 0.29569 0.4878 0.0
H161 H 0.751 0.19749 0.424 0.0
H162 H 0.87537 0.42863 0.47307 0.0
H163 H 0.90093 0.44822 0.43427 0.0
H164 H 0.46035 0.83002 0.56652 0.0
H165 H 0.64272 0.79326 0.59411 0.0
H166 H 0.42076 0.84755 0.60227 0.0
H167 H 0.48638 0.83471 0.6343 0.0
Gd168 Gd 0.74623 0.43236 0.83472 0.0
Gd169 Gd 0.65914 0.54308 0.85904 0.0
C170 C 0.61816 0.70094 0.81294 0.0
C171 C 0.71135 0.83224 0.82636 0.0
C172 C 0.70001 0.716 0.84392 0.0
C173 C 0.64345 0.66794 0.82912 0.0
C174 C 0.73263 0.79858 0.8432 0.0
C175 C 0.65418 0.78344 0.81123 0.0
C176 C 0.55567 0.65 0.79945 0.0
C177 C 0.51862 0.56853 0.80271 0.0
N178 N 0.60955 0.5886 0.8314 0.0
C179 C 0.54625 0.53866 0.81892 0.0
H180 H 0.51774 0.47561 0.82109 0.0
C181 C 0.76047 0.7248 0.87751 0.0
N182 N 0.71783 0.68135 0.86015 0.0
C183 C 0.79527 0.80707 0.87744 0.0
C184 C 0.78259 0.84434 0.85998 0.0
H185 H 0.7694 0.69578 0.89113 0.0
H186 H 0.63637 0.80995 0.79872 0.0
H187 H 0.93013 0.52647 0.81573 0.0
H188 H 0.53439 0.67296 0.78684 0.0
H189 H 0.46938 0.52865 0.79259 0.0
H190 H 0.73655 0.89566 0.82535 0.0
H191 H 0.61275 0.27409 0.86222 0.0
H192 H 0.07511 0.46561 0.85395 0.0
H193 H 0.06164 0.5418 0.82411 0.0
H194 H 0.88491 0.2585 0.89882 0.0
H195 H 0.83136 0.84156 0.89089 0.0
H196 H 0.80889 0.908 0.86004 0.0
H197 H 0.0085 0.35994 0.88201 0.0
H198 H 0.61017 0.17725 0.88788 0.0
N199 N 0.87238 0.4487 0.84176 0.0
C200 C 0.0179 0.46011 0.8506 0.0
C201 C 0.01055 0.50315 0.83373 0.0
C202 C 0.9504 0.40728 0.86217 0.0
C203 C 0.8774 0.40244 0.85715 0.0
C204 C 0.93643 0.49499 0.82915 0.0
N205 N 0.73882 0.34009 0.86025 0.0
C206 C 0.80814 0.34556 0.86654 0.0
C207 C 0.66634 0.22452 0.88207 0.0
C208 C 0.73739 0.23101 0.88923 0.0
C209 C 0.66813 0.2797 0.86745 0.0
C210 C 0.80954 0.2918 0.88139 0.0
H211 H 0.73576 0.18788 0.90044 0.0
O212 O 0.69776 0.31816 0.819 0.0
O213 O 0.68478 0.50117 0.8284 0.0
O214 O 0.55889 0.42197 0.85109 0.0
O215 O 0.61402 0.357 0.83287 0.0
O216 O 0.78905 0.53224 0.81143 0.0
O217 O 0.77423 0.42431 0.80136 0.0
O218 O 0.6279 0.54137 0.89264 0.0
O219 O 0.69513 0.45216 0.86434 0.0
O220 O 0.84675 0.54739 0.84776 0.0
O221 O 0.78957 0.62744 0.85362 0.0
O222 O 0.73395 0.5448 0.88658 0.0
O223 O 0.54308 0.52445 0.86795 0.0
C224 C 0.73219 0.54703 0.81417 0.0
C225 C 0.8825 0.29888 0.88734 0.0
C226 C 0.9529 0.3567 0.87778 0.0
C227 C 0.73466 0.34769 0.80104 0.0
C228 C 0.77412 0.3088 0.79092 0.0
C229 C 0.82163 0.28736 0.80283 0.0
C230 C 0.76424 0.29359 0.76878 0.0
C231 C 0.801 0.2565 0.75838 0.0
C232 C 0.85876 0.25096 0.79265 0.0
C233 C 0.8486 0.2355 0.77059 0.0
C234 C 0.55317 0.361 0.84053 0.0
C235 C 0.73455 0.48125 0.88153 0.0
C236 C 0.55979 0.53518 0.88835 0.0
C237 C 0.54285 0.59112 0.8997 0.0
C238 C 0.55133 0.6587 0.88937 0.0
C239 C 0.52027 0.57793 0.92139 0.0
C240 C 0.50601 0.63175 0.93282 0.0
C241 C 0.53785 0.71253 0.9006 0.0
C242 C 0.51541 0.69937 0.92215 0.0
C243 C 0.85103 0.61607 0.85182 0.0
H244 H 0.82983 0.29852 0.81993 0.0
H245 H 0.72842 0.31153 0.75964 0.0
H246 H 0.89522 0.23427 0.80191 0.0
H247 H 0.877 0.20603 0.76318 0.0
H248 H 0.56857 0.67006 0.87268 0.0
H249 H 0.51299 0.52525 0.92926 0.0
H250 H 0.545 0.7648 0.89258 0.0
H251 H 0.50619 0.74261 0.93053 0.0
H252 H 0.25723 0.75057 0.16011 0.0
H253 H 0.25838 0.87602 0.16177 0.0
H254 H 0.01943 0.75558 0.18642 0.0
H255 H 0.01855 0.63044 0.18554 0.0
H256 H 0.15017 0.91743 0.1421 0.0
H257 H 0.15158 0.93037 0.23134 0.0
H258 H 0.17667 0.86624 0.2167 0.0
H259 H 0.07462 0.8399 0.21978 0.0
C260 C 0.20513 0.75094 0.16599 0.0
C261 C 0.13819 0.68112 0.17295 0.0
C262 C 0.20576 0.82234 0.16679 0.0
C263 C 0.13948 0.82456 0.17454 0.0
C264 C 0.0715 0.75467 0.18074 0.0
H265 H 0.0184 0.18878 0.188 0.0
H266 H 0.01878 0.06403 0.18674 0.0
C267 C 0.0709 0.68333 0.18002 0.0
C268 C 0.14164 0.90029 0.17636 0.0
H269 H 0.13521 0.02718 0.21269 0.0
C270 C 0.14727 0.94179 0.15749 0.0
C271 C 0.13813 0.93129 0.19655 0.0
C272 C 0.1356 0.89013 0.21729 0.0
C273 C 0.14802 0.01358 0.15829 0.0
C274 C 0.14352 0.04395 0.17845 0.0
C275 C 0.13829 0.0028 0.19732 0.0
C276 C 0.14435 0.11891 0.18017 0.0
C277 C 0.15251 0.05618 0.13768 0.0
C278 C 0.21532 0.19012 0.17724 0.0
C279 C 0.21556 0.26132 0.17801 0.0
C280 C 0.14463 0.26187 0.18166 0.0
C281 C 0.0739 0.19017 0.18508 0.0
C282 C 0.07389 0.11902 0.18439 0.0
H283 H 0.14592 0.01988 0.12327 0.0
H284 H 0.10553 0.07257 0.13734 0.0
H285 H 0.21072 0.1116 0.13682 0.0
H286 H 0.2702 0.19042 0.17413 0.0
H287 H 0.27105 0.31563 0.17541 0.0
H288 H 0.49475 0.10377 0.50908 0.0
H289 H 0.36929 0.10281 0.51266 0.0
H290 H 0.24251 0.86362 0.48878 0.0
H291 H 0.36773 0.86412 0.48502 0.0
H292 H 0.24378 0.07017 0.48318 0.0
H293 H 0.14911 0.8505 0.54926 0.0
H294 H 0.2501 0.90421 0.53973 0.0
H295 H 0.17591 0.82137 0.52477 0.0
C296 C 0.44038 0.05146 0.50422 0.0
C297 C 0.4407 0.9833 0.49726 0.0
C298 C 0.36881 0.05095 0.50636 0.0
C299 C 0.29689 0.98244 0.50153 0.0
C300 C 0.29749 0.91631 0.4931 0.0
H301 H 0.80354 0.84157 0.5098 0.0
H302 H 0.93128 0.84739 0.50759 0.0
C303 C 0.36894 0.91675 0.49096 0.0
C304 C 0.22106 0.97904 0.50613 0.0
H305 H 0.05453 0.88426 0.53691 0.0
C306 C 0.20243 0.02987 0.49497 0.0
C307 C 0.16783 0.92649 0.52163 0.0
C308 C 0.18679 0.87296 0.5347 0.0
C309 C 0.13051 0.02812 0.49849 0.0
C310 C 0.07698 0.97517 0.51388 0.0
C311 C 0.09597 0.92479 0.52517 0.0
C312 C -0.00044 0.9693 0.51784 0.0
C313 C 0.11156 0.08141 0.48529 0.0
C314 C -0.00441 0.03468 0.52539 0.0
C315 C 0.92263 0.03167 0.52654 0.0
C316 C 0.85258 0.96331 0.52006 0.0
C317 C 0.85626 0.89579 0.5143 0.0
C318 C 0.92931 0.89891 0.5131 0.0
H319 H 0.14964 0.10409 0.47081 0.0
H320 H 0.04842 0.04992 0.4801 0.0
H321 H 0.12195 0.1329 0.4952 0.0
H322 H 0.04913 0.08879 0.52976 0.0
H323 H 0.92159 0.0839 0.53179 0.0
H324 H 0.96986 0.65853 0.82329 0.0
H325 H 0.09282 0.78596 0.82131 0.0
H326 H 0.02845 0.86158 0.87912 0.0
H327 H 0.90674 0.7328 0.88156 0.0
H328 H 0.06161 0.96006 0.83993 0.0
H329 H 0.29653 0.88805 0.86092 0.0
H330 H 0.22181 0.8235 0.84205 0.0
H331 H 0.1946 0.82751 0.86932 0.0
C332 C 0.98354 0.70119 0.83599 0.0
C333 C 0.92949 0.68649 0.85259 0.0
C334 C 0.05317 0.77397 0.83474 0.0
C335 C 0.06908 0.83241 0.8501 0.0
C336 C 0.01658 0.81675 0.86715 0.0
H337 H 0.42005 0.32316 0.86362 0.0
H338 H 0.29696 0.19607 0.86395 0.0
C339 C 0.94721 0.74382 0.86845 0.0
C340 C 0.13717 0.91202 0.84735 0.0
H341 H 0.33886 0.0169 0.84826 0.0
C342 C 0.12239 0.97294 0.84179 0.0
C343 C 0.21567 0.9274 0.84964 0.0
C344 C 0.23361 0.86346 0.85595 0.0
C345 C 0.18493 0.0497 0.83821 0.0
C346 C 0.26364 0.06542 0.84073 0.0
C347 C 0.2782 0.00421 0.84626 0.0
C348 C 0.33234 0.14531 0.83839 0.0
C349 C 0.16629 0.11273 0.83142 0.0
C350 C 0.39233 0.1586 0.8238 0.0
C351 C 0.463 0.23057 0.82376 0.0
C352 C 0.47453 0.29026 0.83833 0.0
C353 C 0.41261 0.27833 0.85213 0.0
C354 C 0.34214 0.20595 0.85229 0.0
H355 H 0.10604 0.08669 0.8242 0.0
H356 H 0.16818 0.14744 0.84573 0.0
H357 H 0.21036 0.15381 0.81964 0.0
H358 H 0.38553 0.11223 0.81297 0.0
H359 H 0.50948 0.2384 0.8128 0.0
H360 H 0.39332 0.65465 0.95222 0.0
H361 H 0.35197 0.6323 0.98974 0.0
H362 H 0.51677 0.55083 1.00273 0.0
H363 H 0.56049 0.57545 0.96524 0.0
H364 H 0.28495 0.49045 0.01192 0.0
H365 H 0.56684 0.71456 0.05052 0.0
H366 H 0.54818 0.71506 0.02211 0.0
H367 H 0.57451 0.64604 0.03287 0.0
C368 C 0.42173 0.63309 0.96309 0.0
C369 C 0.48062 0.61733 0.95571 0.0
C370 C 0.39764 0.61987 0.98452 0.0
C371 C 0.43198 0.59089 0.99911 0.0
C372 C 0.49043 0.57453 0.99184 0.0
H373 H 0.20534 0.39514 0.12271 0.0
H374 H 0.27789 0.41579 0.08891 0.0
C375 C 0.51464 0.58774 0.97035 0.0
C376 C 0.40396 0.57534 0.02168 0.0
H377 H 0.46091 0.63295 0.07366 0.0
C378 C 0.32351 0.52127 0.02543 0.0
C379 C 0.45435 0.61607 0.03926 0.0
C380 C 0.54068 0.6767 0.03609 0.0
C381 C 0.29175 0.50744 0.04621 0.0
C382 C 0.34212 0.54788 0.0638 0.0
C383 C 0.42276 0.60151 0.06014 0.0
C384 C 0.31028 0.53857 0.08586 0.0
C385 C 0.2039 0.45158 0.04908 0.0
C386 C 0.30747 0.60163 0.09574 0.0
C387 C 0.26651 0.58995 0.11503 0.0
C388 C 0.22964 0.51566 0.12494 0.0
C389 C 0.23521 0.45343 0.11554 0.0
C390 C 0.27594 0.46502 0.09622 0.0
H391 H 0.17102 0.43782 0.0336 0.0
H392 H 0.19448 0.39533 0.05606 0.0
H393 H 0.17817 0.47691 0.06027 0.0
H394 H 0.33333 0.65871 0.08795 0.0
H395 H 0.26112 0.63804 0.12183 0.0
H396 H 0.86435 0.23659 0.39926 0.0
H397 H 0.89667 0.25861 0.36101 0.0
H398 H 0.85933 0.4581 0.36186 0.0
H399 H 0.82795 0.43701 0.40017 0.0
H400 H 0.81225 0.26059 0.32589 0.0
H401 H 0.08084 0.5549 0.33742 0.0
H402 H 0.0306 0.48911 0.35951 0.0
H403 H -0.00789 0.54781 0.34816 0.0
C404 C 0.86253 0.28484 0.39126 0.0
C405 C 0.84428 0.3355 0.40277 0.0
C406 C 0.88116 0.29745 0.36941 0.0
C407 C 0.88185 0.36087 0.35865 0.0
C408 C 0.86122 0.41005 0.36995 0.0
H409 H 0.02325 0.54436 0.2288 0.0
H410 H 0.95429 0.50742 0.26351 0.0
C411 C 0.84319 0.39787 0.39183 0.0
C412 C 0.90518 0.37594 0.33569 0.0
H413 H 0.04109 0.51378 0.30159 0.0
C414 C 0.86232 0.31591 0.32057 0.0
C415 C 0.97057 0.44819 0.32876 0.0
C416 C 0.02172 0.51345 0.34431 0.0
C417 C 0.883 0.32632 0.29872 0.0
C418 C 0.9483 0.39846 0.29185 0.0
C419 C -0.00949 0.45877 0.30689 0.0
C420 C 0.9773 0.41164 0.2694 0.0
C421 C 0.83431 0.26076 0.28306 0.0
C422 C 0.01205 0.36936 0.26112 0.0
C423 C 0.05111 0.3903 0.24135 0.0
C424 C 0.05514 0.45321 0.22949 0.0
C425 C 0.01878 0.49425 0.23748 0.0
C426 C 0.97976 0.47338 0.25726 0.0
H427 H 0.77787 0.21441 0.29023 0.0
H428 H 0.82038 0.28495 0.26864 0.0
H429 H 0.86885 0.23276 0.27778 0.0
H430 H 0.0127 0.32297 0.27046 0.0
H431 H 0.08121 0.35973 0.23577 0.0
H432 H 0.61484 0.47339 0.78488 0.0
H433 H 0.59523 0.53035 0.75188 0.0
H434 H 0.79076 0.75869 0.76969 0.0
H435 H 0.81051 0.70133 0.80271 0.0
H436 H 0.56784 0.66227 0.74604 0.0
H437 H 0.84835 0.71005 0.70915 0.0
H438 H 0.80325 0.64566 0.73189 0.0
H439 H 0.85667 0.75082 0.73556 0.0
C440 C 0.65214 0.53612 0.78194 0.0
C441 C 0.71211 0.58392 0.79657 0.0
C442 C 0.64139 0.56844 0.76307 0.0
C443 C 0.69177 0.64861 0.75831 0.0
C444 C 0.75155 0.6966 0.77302 0.0
H445 H 0.60914 0.8978 0.65421 0.0
H446 H 0.64511 0.86347 0.68854 0.0
C447 C 0.76231 0.66417 0.7919 0.0
C448 C 0.68294 0.68084 0.73758 0.0
H449 H 0.77258 0.75151 0.6891 0.0
C450 C 0.61274 0.68231 0.73363 0.0
C451 C 0.74126 0.7058 0.72134 0.0
C452 C 0.81649 0.70266 0.7245 0.0
C453 C 0.59927 0.70824 0.71386 0.0
C454 C 0.65792 0.73401 0.69767 0.0
C455 C 0.72807 0.73234 0.70159 0.0
C456 C 0.64583 0.76035 0.67633 0.0
C457 C 0.52142 0.70591 0.71024 0.0
C458 C 0.63823 0.71605 0.65783 0.0
C459 C 0.61786 0.73567 0.63809 0.0
C460 C 0.60482 0.80003 0.63655 0.0
C461 C 0.6173 0.84698 0.6549 0.0
C462 C 0.63778 0.82746 0.67456 0.0
H463 H 0.47631 0.66887 0.72238 0.0
H464 H 0.53113 0.76674 0.71138 0.0
H465 H 0.49738 0.6826 0.69399 0.0
H466 H 0.64465 0.66424 0.65884 0.0
H467 H 0.60821 0.69795 0.62434 0.0
H468 H 0.88096 0.52519 0.89693 0.0
H469 H 0.91184 0.47891 0.93035 0.0
H470 H 0.66399 0.30646 0.93786 0.0
H471 H 0.63322 0.35338 0.90467 0.0
H472 H 0.83184 0.48543 0.96977 0.0
H473 H 0.78434 0.18465 0.95422 0.0
H474 H 0.81781 0.25994 0.93373 0.0
H475 H 0.7159 0.20972 0.94196 0.0
C476 C 0.8338 0.47535 0.90534 0.0
C477 C 0.75526 0.44047 0.89789 0.0
C478 C 0.85133 0.4492 0.92441 0.0
C479 C 0.79038 0.38834 0.93638 0.0
C480 C 0.71215 0.35202 0.92859 0.0
H481 H 0.70459 0.1868 0.06241 0.0
H482 H 0.70609 0.21647 0.0243 0.0
C483 C 0.69463 0.37851 0.90961 0.0
C484 C 0.80602 0.37108 0.95847 0.0
H485 H 0.79652 0.2249 0.99051 0.0
C486 C 0.82526 0.4289 0.97431 0.0
C487 C 0.79637 0.29701 0.96431 0.0
C488 C 0.77784 0.23402 0.94772 0.0
C489 C 0.8322 0.4137 0.99601 0.0
C490 C 0.82198 0.33923 1.00196 0.0
C491 C 0.8045 0.28197 0.98598 0.0
C492 C 0.82454 0.31825 0.0248 0.0
C493 C 0.8465 0.47631 0.01243 0.0
C494 C 0.89148 0.36417 0.03773 0.0
C495 C 0.89019 0.34844 0.0597 0.0
C496 C 0.82234 0.28547 0.06916 0.0
C497 C 0.75712 0.23697 0.05587 0.0
C498 C 0.75816 0.25333 0.03397 0.0
H499 H 0.83198 0.52056 1.00597 0.0
H500 H 0.81055 0.44968 0.02708 0.0
H501 H 0.91011 0.50809 0.0171 0.0
H502 H 0.94421 0.41336 0.03092 0.0
H503 H 0.94148 0.38739 0.06934 0.0
H504 H 0.40679 0.53508 0.29479 0.0
H505 H 0.41474 0.56423 0.33333 0.0
H506 H 0.56892 0.81184 0.32013 0.0
H507 H 0.55901 0.78378 0.28175 0.0
H508 H 0.54504 0.63003 0.3596 0.0
H509 H 0.40706 0.81736 0.3595 0.0
H510 H 0.39959 0.75626 0.33688 0.0
H511 H 0.48654 0.85201 0.34051 0.0
C512 C 0.44128 0.59588 0.30008 0.0
C513 C 0.48232 0.65706 0.28513 0.0
C514 C 0.44615 0.61238 0.32212 0.0
C515 C 0.49145 0.69037 0.32963 0.0
C516 C 0.53222 0.7514 0.31474 0.0
H517 H 0.74381 0.8972 0.44463 0.0
H518 H 0.68966 0.823 0.41135 0.0
C519 C 0.52737 0.73506 0.29277 0.0
C520 C 0.49979 0.70837 0.35301 0.0
H521 H 0.49054 0.83244 0.38993 0.0
C522 C 0.53191 0.67334 0.36633 0.0
C523 C 0.48107 0.76351 0.36197 0.0
C524 C 0.44083 0.79876 0.34901 0.0
C525 C 0.55036 0.69564 0.38798 0.0
C526 C 0.53788 0.75574 0.39643 0.0
C527 C 0.50117 0.7871 0.38346 0.0
C528 C 0.56821 0.79181 0.41792 0.0
C529 C 0.58385 0.6551 0.40149 0.0
C530 C 0.51837 0.79996 0.43271 0.0
C531 C 0.54966 0.84354 0.45164 0.0
C532 C 0.63119 0.87901 0.45619 0.0
C533 C 0.68054 0.86925 0.44166 0.0
C534 C 0.64945 0.82624 0.42272 0.0
H535 H 0.56232 0.59385 0.39575 0.0
H536 H 0.64951 0.68795 0.40019 0.0
H537 H 0.56772 0.65295 0.41864 0.0
H538 H 0.45566 0.77464 0.4293 0.0
H539 H 0.51057 0.85175 0.46229 0.0
H540 H 0.91081 0.27056 0.72849 0.0
H541 H 0.89007 0.24193 0.68996 0.0
H542 H 0.64406 0.17562 0.69662 0.0
H543 H 0.66372 0.20276 0.73511 0.0
H544 H 0.78197 0.09734 0.66984 0.0
H545 H 0.72168 0.33655 0.64708 0.0
H546 H 0.76765 0.33613 0.6723 0.0
H547 H 0.66197 0.27619 0.6689 0.0
C548 C 0.85216 0.24947 0.72179 0.0
C549 C 0.78903 0.2394 0.73492 0.0
C550 C 0.84058 0.23363 0.69975 0.0
C551 C 0.76591 0.20805 0.69038 0.0
C552 C 0.70265 0.19719 0.70343 0.0
H553 H 0.52742 0.02886 0.57036 0.0
H554 H 0.57252 0.08638 0.60614 0.0
C555 C 0.71406 0.21279 0.72545 0.0
C556 C 0.75302 0.1897 0.66711 0.0
H557 H 0.69028 0.23596 0.6209 0.0
C558 C 0.76292 0.12824 0.65905 0.0
C559 C 0.72811 0.23016 0.65312 0.0
C560 C 0.71988 0.29894 0.6607 0.0
C561 C 0.74562 0.10405 0.63752 0.0
C562 C 0.71893 0.14336 0.62363 0.0
C563 C 0.71073 0.20599 0.63159 0.0
C564 C 0.69459 0.11695 0.60117 0.0
C565 C 0.75295 0.03457 0.63003 0.0
C566 C 0.74882 0.11744 0.58629 0.0
C567 C 0.72298 0.08393 0.56594 0.0
C568 C 0.64286 0.0512 0.55997 0.0
C569 C 0.58962 0.05442 0.5745 0.0
C570 C 0.61529 0.08717 0.59492 0.0
H571 H 0.7595 0.00166 0.64368 0.0
H572 H 0.70029 -0.00678 0.62035 0.0
H573 H 0.80621 0.056 0.61975 0.0
H574 H 0.81061 0.1415 0.59064 0.0
H575 H 0.76513 0.08115 0.55523 0.0
loop_
_geom_bond_atom_site_label_1
_geom_bond_atom_site_label_2
_geom_bond_distance
_geom_bond_site_symmetry_2
_ccdc_geom_bond_type
Gd0 N31 2.661 . S
Gd0 N37 2.601 . S
Gd0 O44 2.545 . S
Gd0 O45 2.606 1_655 S
Gd0 O47 2.429 . S
Gd0 O48 2.545 . S
Gd0 O49 2.412 . S
Gd0 O51 2.362 . S
Gd0 O52 2.324 . S
Gd0 C59 2.828 . S
Gd1 N10 2.661 . S
Gd1 N14 2.601 . S
Gd1 O45 2.362 . S
Gd1 O46 2.324 . S
Gd1 O50 2.545 . S
Gd1 O51 2.606 1_455 S
Gd1 O53 2.429 . S
Gd1 O54 2.545 . S
Gd1 O55 2.412 . S
Gd1 C68 2.828 . S
C2 C5 1.417 . S
C2 C7 1.431 . S
C2 C8 1.412 . S
C3 C6 1.437 . S
C3 C7 1.317 . S
C3 H22 0.929 . S
C4 C5 1.426 . S
C4 C6 1.413 . S
C4 N14 1.359 . S
C5 C2 1.417 . S
C5 C4 1.426 . S
C5 N10 1.350 . S
C6 C3 1.437 . S
C6 C4 1.413 . S
C6 C16 1.391 . S
C7 C2 1.431 . S
C7 C3 1.317 . S
C7 H18 0.930 . S
C8 C2 1.412 . S
C8 C9 1.355 . S
C8 H20 0.930 . S
C9 C8 1.355 . S
C9 C11 1.402 . S
C9 H21 0.930 . S
N10 Gd1 2.661 . S
N10 C5 1.350 . S
N10 C11 1.307 . S
C11 C9 1.402 . S
C11 N10 1.307 . S
C11 H12 0.930 . S
H12 C11 0.930 . S
C13 N14 1.334 . S
C13 C15 1.394 . S
C13 H17 0.930 . S
N14 Gd1 2.601 . S
N14 C4 1.359 . S
N14 C13 1.334 . S
C15 C13 1.394 . S
C15 C16 1.359 . S
C15 H27 0.930 . S
C16 C6 1.391 . S
C16 C15 1.359 . S
C16 H28 0.929 . S
H17 C13 0.930 . S
H18 C7 0.930 . S
H19 C36 0.930 . S
H20 C8 0.930 . S
H21 C9 0.930 . S
H22 C3 0.929 . S
H23 C41 0.930 . S
H24 C32 0.930 . S
H25 C33 0.930 . S
H26 C57 0.929 . S
H27 C15 0.930 . S
H28 C16 0.929 . S
H29 C58 0.930 . S
H30 C39 0.930 . S
N31 Gd0 2.661 . S
N31 C35 1.350 . S
N31 C36 1.307 . S
C32 H24 0.930 . S
C32 C33 1.355 . S
C32 C34 1.412 . S
C33 H25 0.930 . S
C33 C32 1.355 . S
C33 C36 1.402 . S
C34 C32 1.412 . S
C34 C35 1.417 . S
C34 C58 1.431 . S
C35 N31 1.350 . S
C35 C34 1.417 . S
C35 C38 1.426 . S
C36 H19 0.930 . S
C36 N31 1.307 . S
C36 C33 1.402 . S
N37 Gd0 2.601 . S
N37 C38 1.359 . S
N37 C41 1.334 . S
C38 C35 1.426 . S
C38 N37 1.359 . S
C38 C42 1.413 . S
C39 H30 0.930 . S
C39 C40 1.359 . S
C39 C41 1.394 . S
C40 C39 1.359 . S
C40 C42 1.391 . S
C40 H43 0.929 . S
C41 H23 0.930 . S
C41 N37 1.334 . S
C41 C39 1.394 . S
C42 C38 1.413 . S
C42 C40 1.391 . S
C42 C57 1.437 . S
H43 C40 0.929 . S
O44 Gd0 2.545 . S
O44 C59 1.258 . S
O45 Gd0 2.606 1_455 S
O45 Gd1 2.362 . S
O45 C56 1.284 . S
O46 Gd1 2.324 . S
O46 C66 1.254 . S
O47 Gd0 2.429 . S
O47 C66 1.268 1_655 S
O48 Gd0 2.545 . S
O48 C56 1.250 1_655 S
O49 Gd0 2.412 . S
O49 C59 1.252 . S
O50 Gd1 2.545 . S
O50 C68 1.258 . S
O51 Gd0 2.362 . S
O51 Gd1 2.606 1_655 S
O51 C67 1.284 . S
O52 Gd0 2.324 . S
O52 C75 1.254 . S
O53 Gd1 2.429 . S
O53 C75 1.268 1_455 S
O54 Gd1 2.545 . S
O54 C67 1.250 1_455 S
O55 Gd1 2.412 . S
O55 C68 1.252 . S
C56 O45 1.284 . S
C56 O48 1.250 1_455 S
C57 H26 0.929 . S
C57 C42 1.437 . S
C57 C58 1.317 . S
C58 H29 0.930 . S
C58 C34 1.431 . S
C58 C57 1.317 . S
C59 Gd0 2.828 . S
C59 O44 1.258 . S
C59 O49 1.252 . S
C59 C60 1.497 . S
C60 C59 1.497 . S
C60 C61 1.395 . S
C60 C62 1.380 . S
C61 C60 1.395 . S
C61 C64 1.398 . S
C61 H76 0.930 . S
C62 C60 1.380 . S
C62 C63 1.391 . S
C62 H77 0.930 . S
C63 C62 1.391 . S
C63 C65 1.387 . S
C64 C61 1.398 . S
C64 C65 1.380 . S
C64 H78 0.930 . S
C65 C63 1.387 . S
C65 C64 1.380 . S
C65 H79 0.930 . S
C66 O46 1.254 . S
C66 O47 1.268 1_455 S
C67 O51 1.284 . S
C67 O54 1.250 1_655 S
C68 Gd1 2.828 . S
C68 O50 1.258 . S
C68 O55 1.252 . S
C68 C69 1.497 . S
C69 C68 1.497 . S
C69 C70 1.395 . S
C69 C71 1.380 . S
C70 C69 1.395 . S
C70 C73 1.398 . S
C70 H80 0.930 . S
C71 C69 1.380 . S
C71 C72 1.391 . S
C71 H81 0.930 . S
C72 C71 1.391 . S
C72 C74 1.387 . S
C73 C70 1.398 . S
C73 C74 1.380 . S
C73 H82 0.930 . S
C74 C72 1.387 . S
C74 C73 1.380 . S
C74 H83 0.930 . S
C75 O52 1.254 . S
C75 O53 1.268 1_655 S
H76 C61 0.930 . S
H77 C62 0.930 . S
H78 C64 0.930 . S
H79 C65 0.930 . S
H80 C70 0.930 . S
H81 C71 0.930 . S
H82 C73 0.930 . S
H83 C74 0.930 . S
Gd84 N115 2.661 . S
Gd84 N121 2.601 . S
Gd84 O128 2.545 . S
Gd84 O129 2.606 . S
Gd84 O131 2.429 . S
Gd84 O132 2.545 . S
Gd84 O133 2.412 . S
Gd84 O135 2.362 . S
Gd84 O136 2.324 . S
Gd84 C143 2.828 . S
Gd85 N94 2.661 1_545 S
Gd85 N98 2.601 1_545 S
Gd85 O129 2.362 . S
Gd85 O130 2.324 . S
Gd85 O134 2.545 . S
Gd85 O135 2.606 . S
Gd85 O137 2.429 . S
Gd85 O138 2.545 . S
Gd85 O139 2.412 . S
Gd85 C152 2.828 1_545 S
C86 C89 1.417 . S
C86 C91 1.431 . S
C86 C92 1.412 . S
C87 C90 1.437 . S
C87 C91 1.317 . S
C87 H106 0.929 . S
C88 C89 1.426 . S
C88 C90 1.413 . S
C88 N98 1.359 . S
C89 C86 1.417 . S
C89 C88 1.426 . S
C89 N94 1.350 . S
C90 C87 1.437 . S
C90 C88 1.413 . S
C90 C100 1.391 . S
C91 C86 1.431 . S
C91 C87 1.317 . S
C91 H102 0.930 . S
C92 C86 1.412 . S
C92 C93 1.355 . S
C92 H104 0.930 . S
C93 C92 1.355 . S
C93 C95 1.402 . S
C93 H105 0.930 . S
N94 Gd85 2.661 1_565 S
N94 C89 1.350 . S
N94 C95 1.307 . S
C95 C93 1.402 . S
C95 N94 1.307 . S
C95 H96 0.930 1_565 S
H96 C95 0.930 1_545 S
C97 N98 1.334 . S
C97 C99 1.394 . S
C97 H101 0.930 1_565 S
N98 Gd85 2.601 1_565 S
N98 C88 1.359 . S
N98 C97 1.334 . S
C99 C97 1.394 . S
C99 C100 1.359 . S
C99 H111 0.930 . S
C100 C90 1.391 . S
C100 C99 1.359 . S
C100 H112 0.929 . S
H101 C97 0.930 1_545 S
H102 C91 0.930 . S
H103 C120 0.930 . S
H104 C92 0.930 . S
H105 C93 0.930 . S
H106 C87 0.929 . S
H107 C125 0.930 . S
H108 C116 0.930 . S
H109 C117 0.930 . S
H110 C141 0.929 . S
H111 C99 0.930 . S
H112 C100 0.929 . S
H113 C142 0.930 . S
H114 C123 0.930 . S
N115 Gd84 2.661 . S
N115 C119 1.350 . S
N115 C120 1.307 . S
C116 H108 0.930 . S
C116 C117 1.355 . S
C116 C118 1.412 . S
C117 H109 0.930 . S
C117 C116 1.355 . S
C117 C120 1.402 . S
C118 C116 1.412 . S
C118 C119 1.417 . S
C118 C142 1.431 1_655 S
C119 N115 1.350 . S
C119 C118 1.417 . S
C119 C122 1.426 . S
C120 H103 0.930 . S
C120 N115 1.307 . S
C120 C117 1.402 . S
N121 Gd84 2.601 . S
N121 C122 1.359 . S
N121 C125 1.334 1_655 S
C122 C119 1.426 . S
C122 N121 1.359 . S
C122 C126 1.413 1_655 S
C123 H114 0.930 . S
C123 C124 1.359 . S
C123 C125 1.394 . S
C124 C123 1.359 . S
C124 C126 1.391 . S
C124 H127 0.929 . S
C125 H107 0.930 . S
C125 N121 1.334 1_455 S
C125 C123 1.394 . S
C126 C122 1.413 1_455 S
C126 C124 1.391 . S
C126 C141 1.437 . S
H127 C124 0.929 . S
O128 Gd84 2.545 . S
O128 C143 1.258 . S
O129 Gd84 2.606 . S
O129 Gd85 2.362 . S
O129 C140 1.284 . S
O130 Gd85 2.324 . S
O130 C150 1.254 . S
O131 Gd84 2.429 . S
O131 C150 1.268 . S
O132 Gd84 2.545 . S
O132 C140 1.250 . S
O133 Gd84 2.412 . S
O133 C143 1.252 . S
O134 Gd85 2.545 . S
O134 C152 1.258 1_545 S
O135 Gd84 2.362 . S
O135 Gd85 2.606 . S
O135 C151 1.284 . S
O136 Gd84 2.324 . S
O136 C159 1.254 . S
O137 Gd85 2.429 . S
O137 C159 1.268 . S
O138 Gd85 2.545 . S
O138 C151 1.250 . S
O139 Gd85 2.412 . S
O139 C152 1.252 1_545 S
C140 O129 1.284 . S
C140 O132 1.250 . S
C141 H110 0.929 . S
C141 C126 1.437 . S
C141 C142 1.317 . S
C142 H113 0.930 . S
C142 C118 1.431 1_455 S
C142 C141 1.317 . S
C143 Gd84 2.828 . S
C143 O128 1.258 . S
C143 O133 1.252 . S
C143 C144 1.497 . S
C144 C143 1.497 . S
C144 C145 1.395 . S
C144 C146 1.380 . S
C145 C144 1.395 . S
C145 C148 1.398 . S
C145 H160 0.930 1_655 S
C146 C144 1.380 . S
C146 C147 1.391 . S
C146 H161 0.930 . S
C147 C146 1.391 . S
C147 C149 1.387 . S
C148 C145 1.398 . S
C148 C149 1.380 . S
C148 H162 0.930 1_655 S
C149 C147 1.387 . S
C149 C148 1.380 . S
C149 H163 0.930 . S
C150 O130 1.254 . S
C150 O131 1.268 . S
C151 O135 1.284 . S
C151 O138 1.250 . S
C152 Gd85 2.828 1_565 S
C152 O134 1.258 1_565 S
C152 O139 1.252 1_565 S
C152 C153 1.497 . S
C153 C152 1.497 . S
C153 C154 1.395 . S
C153 C155 1.380 . S
C154 C153 1.395 . S
C154 C157 1.398 . S
C154 H164 0.930 . S
C155 C153 1.380 . S
C155 C156 1.391 . S
C155 H165 0.930 . S
C156 C155 1.391 . S
C156 C158 1.387 . S
C157 C154 1.398 . S
C157 C158 1.380 . S
C157 H166 0.930 . S
C158 C156 1.387 . S
C158 C157 1.380 . S
C158 H167 0.930 . S
C159 O136 1.254 . S
C159 O137 1.268 . S
H160 C145 0.930 1_455 S
H161 C146 0.930 . S
H162 C148 0.930 1_455 S
H163 C149 0.930 . S
H164 C154 0.930 . S
H165 C155 0.930 . S
H166 C157 0.930 . S
H167 C158 0.930 . S
Gd168 N199 2.661 . S
Gd168 N205 2.601 . S
Gd168 O212 2.545 . S
Gd168 O213 2.606 . S
Gd168 O215 2.429 . S
Gd168 O216 2.545 . S
Gd168 O217 2.412 . S
Gd168 O219 2.362 . S
Gd168 O220 2.324 . S
Gd168 C227 2.828 . S
Gd169 N178 2.661 . S
Gd169 N182 2.601 . S
Gd169 O213 2.362 . S
Gd169 O214 2.324 . S
Gd169 O218 2.545 . S
Gd169 O219 2.606 . S
Gd169 O221 2.429 . S
Gd169 O222 2.545 . S
Gd169 O223 2.412 . S
Gd169 C236 2.828 . S
C170 C173 1.417 . S
C170 C175 1.431 . S
C170 C176 1.412 . S
C171 C174 1.437 . S
C171 C175 1.317 . S
C171 H190 0.929 . S
C172 C173 1.426 . S
C172 C174 1.413 . S
C172 N182 1.359 . S
C173 C170 1.417 . S
C173 C172 1.426 . S
C173 N178 1.350 . S
C174 C171 1.437 . S
C174 C172 1.413 . S
C174 C184 1.391 . S
C175 C170 1.431 . S
C175 C171 1.317 . S
C175 H186 0.930 . S
C176 C170 1.412 . S
C176 C177 1.355 . S
C176 H188 0.930 . S
C177 C176 1.355 . S
C177 C179 1.402 . S
C177 H189 0.930 . S
N178 Gd169 2.661 . S
N178 C173 1.350 . S
N178 C179 1.307 . S
C179 C177 1.402 . S
C179 N178 1.307 . S
C179 H180 0.930 . S
H180 C179 0.930 . S
C181 N182 1.334 . S
C181 C183 1.394 . S
C181 H185 0.930 . S
N182 Gd169 2.601 . S
N182 C172 1.359 . S
N182 C181 1.334 . S
C183 C181 1.394 . S
C183 C184 1.359 . S
C183 H195 0.930 . S
C184 C174 1.391 . S
C184 C183 1.359 . S
C184 H196 0.929 . S
H185 C181 0.930 . S
H186 C175 0.930 . S
H187 C204 0.930 . S
H188 C176 0.930 . S
H189 C177 0.930 . S
H190 C171 0.929 . S
H191 C209 0.930 . S
H192 C200 0.930 . S
H193 C201 0.930 . S
H194 C225 0.929 . S
H195 C183 0.930 . S
H196 C184 0.929 . S
H197 C226 0.930 . S
H198 C207 0.930 . S
N199 Gd168 2.661 . S
N199 C203 1.350 . S
N199 C204 1.307 . S
C200 H192 0.930 . S
C200 C201 1.355 . S
C200 C202 1.412 1_455 S
C201 H193 0.930 . S
C201 C200 1.355 . S
C201 C204 1.402 1_455 S
C202 C200 1.412 1_655 S
C202 C203 1.417 . S
C202 C226 1.431 . S
C203 N199 1.350 . S
C203 C202 1.417 . S
C203 C206 1.426 . S
C204 H187 0.930 . S
C204 N199 1.307 . S
C204 C201 1.402 1_655 S
N205 Gd168 2.601 . S
N205 C206 1.359 . S
N205 C209 1.334 . S
C206 C203 1.426 . S
C206 N205 1.359 . S
C206 C210 1.413 . S
C207 H198 0.930 . S
C207 C208 1.359 . S
C207 C209 1.394 . S
C208 C207 1.359 . S
C208 C210 1.391 . S
C208 H211 0.929 1_545 S
C209 H191 0.930 . S
C209 N205 1.334 . S
C209 C207 1.394 . S
C210 C206 1.413 . S
C210 C208 1.391 . S
C210 C225 1.437 . S
H211 C208 0.929 1_565 S
O212 Gd168 2.545 . S
O212 C227 1.258 . S
O213 Gd168 2.606 . S
O213 Gd169 2.362 . S
O213 C224 1.284 . S
O214 Gd169 2.324 . S
O214 C234 1.254 . S
O215 Gd168 2.429 . S
O215 C234 1.268 . S
O216 Gd168 2.545 . S
O216 C224 1.250 . S
O217 Gd168 2.412 . S
O217 C227 1.252 . S
O218 Gd169 2.545 . S
O218 C236 1.258 . S
O219 Gd168 2.362 . S
O219 Gd169 2.606 . S
O219 C235 1.284 . S
O220 Gd168 2.324 . S
O220 C243 1.254 . S
O221 Gd169 2.429 . S
O221 C243 1.268 . S
O222 Gd169 2.545 . S
O222 C235 1.250 . S
O223 Gd169 2.412 . S
O223 C236 1.252 . S
C224 O213 1.284 . S
C224 O216 1.250 . S
C225 H194 0.929 . S
C225 C210 1.437 . S
C225 C226 1.317 . S
C226 H197 0.930 . S
C226 C202 1.431 . S
C226 C225 1.317 . S
C227 Gd168 2.828 . S
C227 O212 1.258 . S
C227 O217 1.252 . S
C227 C228 1.497 . S
C228 C227 1.497 . S
C228 C229 1.395 . S
C228 C230 1.380 . S
C229 C228 1.395 . S
C229 C232 1.398 . S
C229 H244 0.930 . S
C230 C228 1.380 . S
C230 C231 1.391 . S
C230 H245 0.930 . S
C231 C230 1.391 . S
C231 C233 1.387 . S
C232 C229 1.398 . S
C232 C233 1.380 . S
C232 H246 0.930 . S
C233 C231 1.387 . S
C233 C232 1.380 . S
C233 H247 0.930 . S
C234 O214 1.254 . S
C234 O215 1.268 . S
C235 O219 1.284 . S
C235 O222 1.250 . S
C236 Gd169 2.828 . S
C236 O218 1.258 . S
C236 O223 1.252 . S
C236 C237 1.497 . S
C237 C236 1.497 . S
C237 C238 1.395 . S
C237 C239 1.380 . S
C238 C237 1.395 . S
C238 C241 1.398 . S
C238 H248 0.930 . S
C239 C237 1.380 . S
C239 C240 1.391 . S
C239 H249 0.930 . S
C240 C239 1.391 . S
C240 C242 1.387 . S
C241 C238 1.398 . S
C241 C242 1.380 . S
C241 H250 0.930 . S
C242 C240 1.387 . S
C242 C241 1.380 . S
C242 H251 0.930 . S
C243 O220 1.254 . S
C243 O221 1.268 . S
H244 C229 0.930 . S
H245 C230 0.930 . S
H246 C232 0.930 . S
H247 C233 0.930 . S
H248 C238 0.930 . S
H249 C239 0.930 . S
H250 C241 0.930 . S
H251 C242 0.930 . S
H252 C260 0.929 . S
H253 C262 0.930 . S
H254 C264 0.930 . S
H255 C267 0.929 . S
H256 C270 0.930 . S
H257 C272 0.960 . S
H258 C272 0.960 1_455 S
H259 C272 0.960 . S
C260 H252 0.929 . S
C260 C261 1.377 . S
C260 C262 1.384 . S
C261 C260 1.377 . S
C261 C267 1.390 1_455 S
C262 H253 0.930 . S
C262 C260 1.384 . S
C262 C263 1.372 . S
C263 C262 1.372 . S
C263 C264 1.400 1_455 S
C263 C268 1.490 . S
C264 H254 0.930 . S
C264 C263 1.400 1_655 S
C264 C267 1.386 . S
H265 C281 0.930 . S
H266 C282 0.931 . S
C267 H255 0.929 . S
C267 C261 1.390 1_655 S
C267 C264 1.386 . S
C268 C263 1.490 . S
C268 C270 1.395 . S
C268 C271 1.403 1_455 S
H269 C275 0.930 . S
C270 H256 0.930 . S
C270 C268 1.395 . S
C270 C273 1.403 . S
C271 C268 1.403 1_655 S
C271 C272 1.524 . S
C271 C275 1.400 . S
C272 H257 0.960 . S
C272 H258 0.960 1_655 S
C272 H259 0.960 . S
C272 C271 1.524 . S
C273 C270 1.403 . S
C273 C274 1.392 . S
C273 C277 1.495 . S
C274 C273 1.392 . S
C274 C275 1.385 1_455 S
C274 C276 1.478 1_565 S
C275 H269 0.930 . S
C275 C271 1.400 . S
C275 C274 1.385 1_655 S
C276 C274 1.478 1_545 S
C276 C278 1.381 . S
C276 C282 1.383 1_455 S
C277 C273 1.495 . S
C277 H283 0.959 . S
C277 H284 0.961 . S
C277 H285 0.960 1_565 S
C278 C276 1.381 . S
C278 C279 1.394 . S
C278 H286 0.930 . S
C279 C278 1.394 . S
C279 C280 1.383 1_455 S
C279 H287 0.929 . S
C280 C279 1.383 1_655 S
C280 C281 1.377 . S
C281 H265 0.930 . S
C281 C280 1.377 . S
C281 C282 1.379 . S
C282 H266 0.931 . S
C282 C276 1.383 1_655 S
C282 C281 1.379 . S
H283 C277 0.959 . S
H284 C277 0.961 . S
H285 C277 0.960 1_545 S
H286 C278 0.930 . S
H287 C279 0.929 . S
H288 C296 0.929 . S
H289 C298 0.930 . S
H290 C300 0.930 . S
H291 C303 0.929 . S
H292 C306 0.930 . S
H293 C308 0.960 . S
H294 C308 0.960 . S
H295 C308 0.960 . S
C296 H288 0.929 . S
C296 C297 1.377 . S
C296 C298 1.384 . S
C297 C296 1.377 . S
C297 C303 1.390 . S
C298 H289 0.930 . S
C298 C296 1.384 . S
C298 C299 1.372 . S
C299 C298 1.372 . S
C299 C300 1.400 . S
C299 C304 1.490 . S
C300 H290 0.930 . S
C300 C299 1.400 . S
C300 C303 1.386 . S
H301 C317 0.930 . S
H302 C318 0.931 . S
C303 H291 0.929 . S
C303 C297 1.390 . S
C303 C300 1.386 . S
C304 C299 1.490 . S
C304 C306 1.395 . S
C304 C307 1.403 . S
H305 C311 0.930 . S
C306 H292 0.930 . S
C306 C304 1.395 . S
C306 C309 1.403 . S
C307 C304 1.403 . S
C307 C308 1.524 . S
C307 C311 1.400 . S
C308 H293 0.960 . S
C308 H294 0.960 . S
C308 H295 0.960 . S
C308 C307 1.524 . S
C309 C306 1.403 . S
C309 C310 1.392 . S
C309 C313 1.495 . S
C310 C309 1.392 . S
C310 C311 1.385 . S
C310 C312 1.478 . S
C311 H305 0.930 . S
C311 C307 1.400 . S
C311 C310 1.385 . S
C312 C310 1.478 . S
C312 C314 1.381 . S
C312 C318 1.383 . S
C313 C309 1.495 . S
C313 H319 0.959 . S
C313 H320 0.961 . S
C313 H321 0.960 . S
C314 C312 1.381 . S
C314 C315 1.394 . S
C314 H322 0.930 . S
C315 C314 1.394 . S
C315 C316 1.383 1_455 S
C315 H323 0.929 . S
C316 C315 1.383 1_655 S
C316 C317 1.377 . S
C317 H301 0.930 . S
C317 C316 1.377 . S
C317 C318 1.379 1_655 S
C318 H302 0.931 . S
C318 C312 1.383 . S
C318 C317 1.379 1_455 S
H319 C313 0.959 . S
H320 C313 0.961 . S
H321 C313 0.960 . S
H322 C314 0.930 . S
H323 C315 0.929 . S
H324 C332 0.929 . S
H325 C334 0.930 . S
H326 C336 0.930 . S
H327 C339 0.929 1_655 S
H328 C342 0.930 . S
H329 C344 0.960 . S
H330 C344 0.960 . S
H331 C344 0.960 . S
C332 H324 0.929 . S
C332 C333 1.377 1_455 S
C332 C334 1.384 . S
C333 C332 1.377 1_655 S
C333 C339 1.390 1_655 S
C334 H325 0.930 . S
C334 C332 1.384 . S
C334 C335 1.372 . S
C335 C334 1.372 . S
C335 C336 1.400 . S
C335 C340 1.490 . S
C336 H326 0.930 . S
C336 C335 1.400 . S
C336 C339 1.386 . S
H337 C353 0.930 . S
H338 C354 0.931 . S
C339 H327 0.929 1_455 S
C339 C333 1.390 1_455 S
C339 C336 1.386 . S
C340 C335 1.490 . S
C340 C342 1.395 . S
C340 C343 1.403 . S
H341 C347 0.930 . S
C342 H328 0.930 . S
C342 C340 1.395 . S
C342 C345 1.403 . S
C343 C340 1.403 . S
C343 C344 1.524 . S
C343 C347 1.400 . S
C344 H329 0.960 . S
C344 H330 0.960 . S
C344 H331 0.960 . S
C344 C343 1.524 . S
C345 C342 1.403 . S
C345 C346 1.392 . S
C345 C349 1.495 1_565 S
C346 C345 1.392 . S
C346 C347 1.385 . S
C346 C348 1.478 1_565 S
C347 H341 0.930 . S
C347 C343 1.400 . S
C347 C346 1.385 . S
C348 C346 1.478 1_545 S
C348 C350 1.381 . S
C348 C354 1.383 . S
C349 C345 1.495 1_545 S
C349 H355 0.959 . S
C349 H356 0.961 . S
C349 H357 0.960 . S
C350 C348 1.381 . S
C350 C351 1.394 . S
C350 H358 0.930 . S
C351 C350 1.394 . S
C351 C352 1.383 . S
C351 H359 0.929 . S
C352 C351 1.383 . S
C352 C353 1.377 . S
C353 H337 0.930 . S
C353 C352 1.377 . S
C353 C354 1.379 . S
C354 H338 0.931 . S
C354 C348 1.383 . S
C354 C353 1.379 . S
H355 C349 0.959 . S
H356 C349 0.961 . S
H357 C349 0.960 . S
H358 C350 0.930 . S
H359 C351 0.929 . S
H360 C368 0.929 . S
H361 C370 0.930 . S
H362 C372 0.930 1_554 S
H363 C375 0.929 . S
H364 C378 0.930 1_556 S
H365 C380 0.960 . S
H366 C380 0.960 . S
H367 C380 0.960 . S
C368 H360 0.929 . S
C368 C369 1.377 . S
C368 C370 1.384 . S
C369 C368 1.377 . S
C369 C375 1.390 . S
C370 H361 0.930 . S
C370 C368 1.384 . S
C370 C371 1.372 . S
C371 C370 1.372 . S
C371 C372 1.400 . S
C371 C376 1.490 1_556 S
C372 H362 0.930 1_556 S
C372 C371 1.400 . S
C372 C375 1.386 . S
H373 C389 0.930 . S
H374 C390 0.931 . S
C375 H363 0.929 . S
C375 C369 1.390 . S
C375 C372 1.386 . S
C376 C371 1.490 1_554 S
C376 C378 1.395 . S
C376 C379 1.403 . S
H377 C383 0.930 . S
C378 H364 0.930 1_554 S
C378 C376 1.395 . S
C378 C381 1.403 . S
C379 C376 1.403 . S
C379 C380 1.524 . S
C379 C383 1.400 . S
C380 H365 0.960 . S
C380 H366 0.960 . S
C380 H367 0.960 . S
C380 C379 1.524 . S
C381 C378 1.403 . S
C381 C382 1.392 . S
C381 C385 1.495 . S
C382 C381 1.392 . S
C382 C383 1.385 . S
C382 C384 1.478 . S
C383 H377 0.930 . S
C383 C379 1.400 . S
C383 C382 1.385 . S
C384 C382 1.478 . S
C384 C386 1.381 . S
C384 C390 1.383 . S
C385 C381 1.495 . S
C385 H391 0.959 . S
C385 H392 0.961 . S
C385 H393 0.960 . S
C386 C384 1.381 . S
C386 C387 1.394 . S
C386 H394 0.930 . S
C387 C386 1.394 . S
C387 C388 1.383 . S
C387 H395 0.929 . S
C388 C387 1.383 . S
C388 C389 1.377 . S
C389 H373 0.930 . S
C389 C388 1.377 . S
C389 C390 1.379 . S
C390 H374 0.931 . S
C390 C384 1.383 . S
C390 C389 1.379 . S
H391 C385 0.959 . S
H392 C385 0.961 . S
H393 C385 0.960 . S
H394 C386 0.930 . S
H395 C387 0.929 . S
H396 C404 0.929 . S
H397 C406 0.930 . S
H398 C408 0.930 . S
H399 C411 0.929 . S
H400 C414 0.930 . S
H401 C416 0.960 . S
H402 C416 0.960 . S
H403 C416 0.960 . S
C404 H396 0.929 . S
C404 C405 1.377 . S
C404 C406 1.384 . S
C405 C404 1.377 . S
C405 C411 1.390 . S
C406 H397 0.930 . S
C406 C404 1.384 . S
C406 C407 1.372 . S
C407 C406 1.372 . S
C407 C408 1.400 . S
C407 C412 1.490 . S
C408 H398 0.930 . S
C408 C407 1.400 . S
C408 C411 1.386 . S
H409 C425 0.930 . S
H410 C426 0.931 . S
C411 H399 0.929 . S
C411 C405 1.390 . S
C411 C408 1.386 . S
C412 C407 1.490 . S
C412 C414 1.395 . S
C412 C415 1.403 . S
H413 C419 0.930 . S
C414 H400 0.930 . S
C414 C412 1.395 . S
C414 C417 1.403 . S
C415 C412 1.403 . S
C415 C416 1.524 . S
C415 C419 1.400 . S
C416 H401 0.960 . S
C416 H402 0.960 . S
C416 H403 0.960 . S
C416 C415 1.524 . S
C417 C414 1.403 . S
C417 C418 1.392 . S
C417 C421 1.495 . S
C418 C417 1.392 . S
C418 C419 1.385 . S
C418 C420 1.478 . S
C419 H413 0.930 . S
C419 C415 1.400 . S
C419 C418 1.385 . S
C420 C418 1.478 . S
C420 C422 1.381 . S
C420 C426 1.383 . S
C421 C417 1.495 . S
C421 H427 0.959 . S
C421 H428 0.961 . S
C421 H429 0.960 . S
C422 C420 1.381 . S
C422 C423 1.394 . S
C422 H430 0.930 . S
C423 C422 1.394 . S
C423 C424 1.383 . S
C423 H431 0.929 1_655 S
C424 C423 1.383 . S
C424 C425 1.377 . S
C425 H409 0.930 . S
C425 C424 1.377 . S
C425 C426 1.379 . S
C426 H410 0.931 . S
C426 C420 1.383 . S
C426 C425 1.379 . S
H427 C421 0.959 . S
H428 C421 0.961 . S
H429 C421 0.960 . S
H430 C422 0.930 . S
H431 C423 0.929 1_455 S
H432 C440 0.929 . S
H433 C442 0.930 . S
H434 C444 0.930 . S
H435 C447 0.929 . S
H436 C450 0.930 . S
H437 C452 0.960 . S
H438 C452 0.960 . S
H439 C452 0.960 . S
C440 H432 0.929 . S
C440 C441 1.377 . S
C440 C442 1.384 . S
C441 C440 1.377 . S
C441 C447 1.390 . S
C442 H433 0.930 . S
C442 C440 1.384 . S
C442 C443 1.372 . S
C443 C442 1.372 . S
C443 C444 1.400 . S
C443 C448 1.490 . S
C444 H434 0.930 . S
C444 C443 1.400 . S
C444 C447 1.386 . S
H445 C461 0.930 . S
H446 C462 0.931 . S
C447 H435 0.929 . S
C447 C441 1.390 . S
C447 C444 1.386 . S
C448 C443 1.490 . S
C448 C450 1.395 . S
C448 C451 1.403 . S
H449 C455 0.930 . S
C450 H436 0.930 . S
C450 C448 1.395 . S
C450 C453 1.403 . S
C451 C448 1.403 . S
C451 C452 1.524 . S
C451 C455 1.400 . S
C452 H437 0.960 . S
C452 H438 0.960 . S
C452 H439 0.960 . S
C452 C451 1.524 . S
C453 C450 1.403 . S
C453 C454 1.392 . S
C453 C457 1.495 . S
C454 C453 1.392 . S
C454 C455 1.385 . S
C454 C456 1.478 . S
C455 H449 0.930 . S
C455 C451 1.400 . S
C455 C454 1.385 . S
C456 C454 1.478 . S
C456 C458 1.381 . S
C456 C462 1.383 . S
C457 C453 1.495 . S
C457 H463 0.959 . S
C457 H464 0.961 . S
C457 H465 0.960 . S
C458 C456 1.381 . S
C458 C459 1.394 . S
C458 H466 0.930 . S
C459 C458 1.394 . S
C459 C460 1.383 . S
C459 H467 0.929 . S
C460 C459 1.383 . S
C460 C461 1.377 . S
C461 H445 0.930 . S
C461 C460 1.377 . S
C461 C462 1.379 . S
C462 H446 0.931 . S
C462 C456 1.383 . S
C462 C461 1.379 . S
H463 C457 0.959 . S
H464 C457 0.961 . S
H465 C457 0.960 . S
H466 C458 0.930 . S
H467 C459 0.929 . S
H468 C476 0.929 . S
H469 C478 0.930 . S
H470 C480 0.930 . S
H471 C483 0.929 . S
H472 C486 0.930 . S
H473 C488 0.960 . S
H474 C488 0.960 . S
H475 C488 0.960 . S
C476 H468 0.929 . S
C476 C477 1.377 . S
C476 C478 1.384 . S
C477 C476 1.377 . S
C477 C483 1.390 . S
C478 H469 0.930 . S
C478 C476 1.384 . S
C478 C479 1.372 . S
C479 C478 1.372 . S
C479 C480 1.400 . S
C479 C484 1.490 . S
C480 H470 0.930 . S
C480 C479 1.400 . S
C480 C483 1.386 . S
H481 C497 0.930 . S
H482 C498 0.931 . S
C483 H471 0.929 . S
C483 C477 1.390 . S
C483 C480 1.386 . S
C484 C479 1.490 . S
C484 C486 1.395 . S
C484 C487 1.403 . S
H485 C491 0.930 . S
C486 H472 0.930 . S
C486 C484 1.395 . S
C486 C489 1.403 . S
C487 C484 1.403 . S
C487 C488 1.524 . S
C487 C491 1.400 . S
C488 H473 0.960 . S
C488 H474 0.960 . S
C488 H475 0.960 . S
C488 C487 1.524 . S
C489 C486 1.403 . S
C489 C490 1.392 . S
C489 C493 1.495 . S
C490 C489 1.392 . S
C490 C491 1.385 . S
C490 C492 1.478 1_556 S
C491 H485 0.930 . S
C491 C487 1.400 . S
C491 C490 1.385 . S
C492 C490 1.478 1_554 S
C492 C494 1.381 . S
C492 C498 1.383 . S
C493 C489 1.495 . S
C493 H499 0.959 . S
C493 H500 0.961 1_556 S
C493 H501 0.960 1_556 S
C494 C492 1.381 . S
C494 C495 1.394 . S
C494 H502 0.930 . S
C495 C494 1.394 . S
C495 C496 1.383 . S
C495 H503 0.929 . S
C496 C495 1.383 . S
C496 C497 1.377 . S
C497 H481 0.930 . S
C497 C496 1.377 . S
C497 C498 1.379 . S
C498 H482 0.931 . S
C498 C492 1.383 . S
C498 C497 1.379 . S
H499 C493 0.959 . S
H500 C493 0.961 1_554 S
H501 C493 0.960 1_554 S
H502 C494 0.930 . S
H503 C495 0.929 . S
H504 C512 0.929 . S
H505 C514 0.930 . S
H506 C516 0.930 . S
H507 C519 0.929 . S
H508 C522 0.930 . S
H509 C524 0.960 1_545 S
H510 C524 0.960 . S
H511 C524 0.960 . S
C512 H504 0.929 . S
C512 C513 1.377 . S
C512 C514 1.384 . S
C513 C512 1.377 . S
C513 C519 1.390 . S
C514 H505 0.930 . S
C514 C512 1.384 . S
C514 C515 1.372 . S
C515 C514 1.372 . S
C515 C516 1.400 . S
C515 C520 1.490 . S
C516 H506 0.930 . S
C516 C515 1.400 . S
C516 C519 1.386 . S
H517 C533 0.930 . S
H518 C534 0.931 . S
C519 H507 0.929 . S
C519 C513 1.390 . S
C519 C516 1.386 . S
C520 C515 1.490 . S
C520 C522 1.395 . S
C520 C523 1.403 . S
H521 C527 0.930 . S
C522 H508 0.930 . S
C522 C520 1.395 . S
C522 C525 1.403 . S
C523 C520 1.403 . S
C523 C524 1.524 . S
C523 C527 1.400 . S
C524 H509 0.960 1_565 S
C524 H510 0.960 . S
C524 H511 0.960 . S
C524 C523 1.524 . S
C525 C522 1.403 . S
C525 C526 1.392 . S
C525 C529 1.495 . S
C526 C525 1.392 . S
C526 C527 1.385 . S
C526 C528 1.478 . S
C527 H521 0.930 . S
C527 C523 1.400 . S
C527 C526 1.385 . S
C528 C526 1.478 . S
C528 C530 1.381 . S
C528 C534 1.383 1_565 S
C529 C525 1.495 . S
C529 H535 0.959 . S
C529 H536 0.961 . S
C529 H537 0.960 . S
C530 C528 1.381 . S
C530 C531 1.394 . S
C530 H538 0.930 . S
C531 C530 1.394 . S
C531 C532 1.383 1_565 S
C531 H539 0.929 . S
C532 C531 1.383 1_545 S
C532 C533 1.377 . S
C533 H517 0.930 . S
C533 C532 1.377 . S
C533 C534 1.379 . S
C534 H518 0.931 . S
C534 C528 1.383 1_545 S
C534 C533 1.379 . S
H535 C529 0.959 . S
H536 C529 0.961 . S
H537 C529 0.960 . S
H538 C530 0.930 . S
H539 C531 0.929 . S
H540 C548 0.929 . S
H541 C550 0.930 . S
H542 C552 0.930 . S
H543 C555 0.929 . S
H544 C558 0.930 . S
H545 C560 0.960 . S
H546 C560 0.960 1_455 S
H547 C560 0.960 . S
C548 H540 0.929 . S
C548 C549 1.377 . S
C548 C550 1.384 . S
C549 C548 1.377 . S
C549 C555 1.390 1_455 S
C550 H541 0.930 . S
C550 C548 1.384 . S
C550 C551 1.372 1_455 S
C551 C550 1.372 1_655 S
C551 C552 1.400 . S
C551 C556 1.490 . S
C552 H542 0.930 . S
C552 C551 1.400 . S
C552 C555 1.386 . S
H553 C569 0.930 . S
H554 C570 0.931 . S
C555 H543 0.929 . S
C555 C549 1.390 1_655 S
C555 C552 1.386 . S
C556 C551 1.490 . S
C556 C558 1.395 . S
C556 C559 1.403 . S
H557 C563 0.930 . S
C558 H544 0.930 . S
C558 C556 1.395 . S
C558 C561 1.403 . S
C559 C556 1.403 . S
C559 C560 1.524 . S
C559 C563 1.400 . S
C560 H545 0.960 . S
C560 H546 0.960 1_655 S
C560 H547 0.960 . S
C560 C559 1.524 . S
C561 C558 1.403 . S
C561 C562 1.392 . S
C561 C565 1.495 . S
C562 C561 1.392 . S
C562 C563 1.385 . S
C562 C564 1.478 . S
C563 H557 0.930 . S
C563 C559 1.400 . S
C563 C562 1.385 . S
C564 C562 1.478 . S
C564 C566 1.381 . S
C564 C570 1.383 . S
C565 C561 1.495 . S
C565 H571 0.959 . S
C565 H572 0.961 . S
C565 H573 0.960 . S
C566 C564 1.381 . S
C566 C567 1.394 . S
C566 H574 0.930 . S
C567 C566 1.394 . S
C567 C568 1.383 . S
C567 H575 0.929 . S
C568 C567 1.383 . S
C568 C569 1.377 . S
C569 H553 0.930 . S
C569 C568 1.377 . S
C569 C570 1.379 . S
C570 H554 0.931 . S
C570 C564 1.383 . S
C570 C569 1.379 . S
H571 C565 0.959 . S
H572 C565 0.961 . S
H573 C565 0.960 . S
H574 C566 0.930 . S
H575 C567 0.929 . S
C261 C66 1.317 . S
C280 C75 1.345 . S
C297 C159 1.305 . S
C316 C150 1.293 . S
C333 C243 1.315 . S
C352 C234 1.287 . S
C369 C240 1.977 . S
C388 C56 2.119 . S
C405 C147 0.837 . S
C424 C67 0.909 . S
C441 C224 2.140 . S
C460 C156 1.972 . S
C477 C235 0.926 . S
C496 C63 0.788 . S
C513 C72 1.989 . S
C532 C140 2.152 . S
C549 C231 0.867 1_455 S
C568 C151 0.856 . S
