# Generated by pormake.
# Topology zfv, (5)-cn, num edge types: 1
# Building blocks:
#     Node 0, Type 0, BuildingBlock: XOMCOT_clean_sbu_0, # of connection points: 5
#     Node 1, Type 0, BuildingBlock: XOMCOT_clean_sbu_0, # of connection points: 5
#     Node 2, Type 0, BuildingBlock: XOMCOT_clean_sbu_0, # of connection points: 5
#     Node 3, Type 0, BuildingBlock: XOMCOT_clean_sbu_0, # of connection points: 5
#     Node 4, Type 0, BuildingBlock: XOMCOT_clean_sbu_0, # of connection points: 5
#     Node 5, Type 0, BuildingBlock: XOMCOT_clean_sbu_0, # of connection points: 5
#     Node 6, Type 0, BuildingBlock: XOMCOT_clean_sbu_0, # of connection points: 5
#     Node 7, Type 0, BuildingBlock: XOMCOT_clean_sbu_0, # of connection points: 5
#     Node 8, Type 0, BuildingBlock: XOMCOT_clean_sbu_0, # of connection points: 5
#     Node 9, Type 0, BuildingBlock: XOMCOT_clean_sbu_0, # of connection points: 5
#     Node 10, Type 0, BuildingBlock: XOMCOT_clean_sbu_0, # of connection points: 5
#     Node 11, Type 0, BuildingBlock: XOMCOT_clean_sbu_0, # of connection points: 5
#     Node 12, Type 0, BuildingBlock: XOMCOT_clean_sbu_0, # of connection points: 5
#     Node 13, Type 0, BuildingBlock: XOMCOT_clean_sbu_0, # of connection points: 5
#     Node 14, Type 0, BuildingBlock: XOMCOT_clean_sbu_0, # of connection points: 5
#     Node 15, Type 0, BuildingBlock: XOMCOT_clean_sbu_0, # of connection points: 5
#     Edge 16, Type (0, 0), BuildingBlock: ZUJKAS_clean_linker_0, # of connection points: 2
#     Edge 17, Type (0, 0), BuildingBlock: ZUJKAS_clean_linker_0, # of connection points: 2
#     Edge 18, Type (0, 0), BuildingBlock: ZUJKAS_clean_linker_0, # of connection points: 2
#     Edge 19, Type (0, 0), BuildingBlock: ZUJKAS_clean_linker_0, # of connection points: 2
#     Edge 20, Type (0, 0), BuildingBlock: ZUJKAS_clean_linker_0, # of connection points: 2
#     Edge 21, Type (0, 0), BuildingBlock: ZUJKAS_clean_linker_0, # of connection points: 2
#     Edge 22, Type (0, 0), BuildingBlock: ZUJKAS_clean_linker_0, # of connection points: 2
#     Edge 23, Type (0, 0), BuildingBlock: ZUJKAS_clean_linker_0, # of connection points: 2
#     Edge 24, Type (0, 0), BuildingBlock: ZUJKAS_clean_linker_0, # of connection points: 2
#     Edge 25, Type (0, 0), BuildingBlock: ZUJKAS_clean_linker_0, # of connection points: 2
#     Edge 26, Type (0, 0), BuildingBlock: ZUJKAS_clean_linker_0, # of connection points: 2
#     Edge 27, Type (0, 0), BuildingBlock: ZUJKAS_clean_linker_0, # of connection points: 2
#     Edge 28, Type (0, 0), BuildingBlock: ZUJKAS_clean_linker_0, # of connection points: 2
#     Edge 29, Type (0, 0), BuildingBlock: ZUJKAS_clean_linker_0, # of connection points: 2
#     Edge 30, Type (0, 0), BuildingBlock: ZUJKAS_clean_linker_0, # of connection points: 2
#     Edge 31, Type (0, 0), BuildingBlock: ZUJKAS_clean_linker_0, # of connection points: 2
#     Edge 32, Type (0, 0), BuildingBlock: ZUJKAS_clean_linker_0, # of connection points: 2
#     Edge 33, Type (0, 0), BuildingBlock: ZUJKAS_clean_linker_0, # of connection points: 2
#     Edge 34, Type (0, 0), BuildingBlock: ZUJKAS_clean_linker_0, # of connection points: 2
#     Edge 35, Type (0, 0), BuildingBlock: ZUJKAS_clean_linker_0, # of connection points: 2
#     Edge 36, Type (0, 0), BuildingBlock: ZUJKAS_clean_linker_0, # of connection points: 2
#     Edge 37, Type (0, 0), BuildingBlock: ZUJKAS_clean_linker_0, # of connection points: 2
#     Edge 38, Type (0, 0), BuildingBlock: ZUJKAS_clean_linker_0, # of connection points: 2
#     Edge 39, Type (0, 0), BuildingBlock: ZUJKAS_clean_linker_0, # of connection points: 2
#     Edge 40, Type (0, 0), BuildingBlock: ZUJKAS_clean_linker_0, # of connection points: 2
#     Edge 41, Type (0, 0), BuildingBlock: ZUJKAS_clean_linker_0, # of connection points: 2
#     Edge 42, Type (0, 0), BuildingBlock: ZUJKAS_clean_linker_0, # of connection points: 2
#     Edge 43, Type (0, 0), BuildingBlock: ZUJKAS_clean_linker_0, # of connection points: 2
#     Edge 44, Type (0, 0), BuildingBlock: ZUJKAS_clean_linker_0, # of connection points: 2
#     Edge 45, Type (0, 0), BuildingBlock: ZUJKAS_clean_linker_0, # of connection points: 2
#     Edge 46, Type (0, 0), BuildingBlock: ZUJKAS_clean_linker_0, # of connection points: 2
#     Edge 47, Type (0, 0), BuildingBlock: ZUJKAS_clean_linker_0, # of connection points: 2
#     Edge 48, Type (0, 0), BuildingBlock: ZUJKAS_clean_linker_0, # of connection points: 2
#     Edge 49, Type (0, 0), BuildingBlock: ZUJKAS_clean_linker_0, # of connection points: 2
#     Edge 50, Type (0, 0), BuildingBlock: ZUJKAS_clean_linker_0, # of connection points: 2
#     Edge 51, Type (0, 0), BuildingBlock: ZUJKAS_clean_linker_0, # of connection points: 2
#     Edge 52, Type (0, 0), BuildingBlock: ZUJKAS_clean_linker_0, # of connection points: 2
#     Edge 53, Type (0, 0), BuildingBlock: ZUJKAS_clean_linker_0, # of connection points: 2
#     Edge 54, Type (0, 0), BuildingBlock: ZUJKAS_clean_linker_0, # of connection points: 2
#     Edge 55, Type (0, 0), BuildingBlock: ZUJKAS_clean_linker_0, # of connection points: 2
# Relax obj value: 0.146
# Max RMSD: 0.146
# Mean RMSD: 0.146
data_MOF--net-zfv--node1-XOMCOT_clean_sbu_0--edge1-ZUJKAS_clean_linker_0
_symmetry_space_group_name_H-M    P1
_symmetry_Int_Tables_number       1
_symmetry_cell_setting            triclinic
loop_
_symmetry_equiv_pos_as_xyz
'x, y, z'
_cell_length_a     97.405433
_cell_length_b     97.395674
_cell_length_c     22.144259
_cell_angle_alpha  90.012692
_cell_angle_beta   90.012745
_cell_angle_gamma 89.997275
loop_
_atom_site_label
_atom_site_type_symbol
_atom_site_fract_x
_atom_site_fract_y
_atom_site_fract_z
_atom_type_partial_charge
Co0 Co 0.0686 0.59229 0.07142 0.0
C1 C 0.07028 0.59469 0.93794 0.0
C2 C 0.09004 0.59617 0.98055 0.0
C3 C 0.09181 0.59715 0.91912 0.0
N4 N 0.07656 0.59478 0.99231 0.0
N5 N 0.0794 0.5962 0.89231 0.0
H6 H 0.05932 0.59351 0.93202 0.0
H7 H 0.09807 0.5961 0.01425 0.0
C8 C 0.08128 0.61596 0.1392 0.0
O9 O 0.06942 0.61864 0.16489 0.0
N10 N 0.06088 0.58931 0.15192 0.0
C11 C 0.0487 0.5834 0.16513 0.0
C12 C 0.04752 0.58195 0.22655 0.0
C13 C 0.06723 0.59061 0.20609 0.0
N14 N 0.05916 0.58653 0.25252 0.0
C15 C 0.04194 0.60476 0.05794 0.0
C16 C 0.05141 0.63111 0.03808 0.0
C17 C 0.03744 0.62911 0.05047 0.0
C18 C 0.03262 0.61564 0.05721 0.0
C19 C 0.06033 0.61988 0.03867 0.0
N20 N 0.05571 0.60713 0.05457 0.0
H21 H 0.03804 0.5945 0.06233 0.0
H22 H 0.07107 0.62158 0.02921 0.0
H23 H 0.04134 0.57963 0.13277 0.0
H24 H 0.07773 0.59398 0.21145 0.0
O25 O 0.05814 0.57697 0.04101 0.0
O26 O 0.07903 0.57562 0.08078 0.0
O27 O 0.08259 0.60563 0.10408 0.0
C28 C 0.0686 0.5694 0.0562 0.0
H29 H 0.10155 0.598 0.89585 0.0
H30 H 0.03875 0.57772 0.25004 0.0
H31 H 0.05547 0.64129 0.0297 0.0
H32 H 0.02184 0.61354 0.06481 0.0
Co33 Co 0.70841 0.75895 0.32405 0.0
C34 C 0.70763 0.76119 0.19033 0.0
C35 C 0.70583 0.78076 0.23432 0.0
C36 C 0.70583 0.78284 0.17295 0.0
N37 N 0.70689 0.76722 0.24515 0.0
N38 N 0.70702 0.77055 0.14514 0.0
H39 H 0.70898 0.75026 0.18391 0.0
H40 H 0.70539 0.78862 0.26874 0.0
C41 C 0.68419 0.77156 0.38946 0.0
O42 O 0.68149 0.75987 0.41661 0.0
N43 N 0.71031 0.75089 0.40437 0.0
C44 C 0.71455 0.73805 0.41786 0.0
C45 C 0.71522 0.73658 0.47943 0.0
C46 C 0.70925 0.75726 0.45856 0.0
N47 N 0.71178 0.74863 0.50515 0.0
C48 C 0.69745 0.7322 0.29797 0.0
C49 C 0.67037 0.74023 0.28833 0.0
C50 C 0.67337 0.72621 0.29513 0.0
C51 C 0.6872 0.72222 0.29571 0.0
C52 C 0.68102 0.74983 0.29 0.0
N53 N 0.69417 0.74577 0.302 0.0
H54 H 0.70801 0.72895 0.29814 0.0
H55 H 0.67855 0.76055 0.28436 0.0
H56 H 0.71764 0.73033 0.38584 0.0
H57 H 0.70662 0.76798 0.46388 0.0
O58 O 0.72437 0.74891 0.29743 0.0
O59 O 0.72473 0.76965 0.33894 0.0
O60 O 0.69448 0.77264 0.35407 0.0
C61 C 0.7315 0.75945 0.31535 0.0
H62 H 0.70503 0.79269 0.1507 0.0
H63 H 0.71844 0.72744 0.50337 0.0
H64 H 0.65989 0.74385 0.2851 0.0
H65 H 0.69009 0.71148 0.29648 0.0
Co66 Co 0.53844 0.40119 0.59866 0.0
C67 C 0.53637 0.39952 0.46509 0.0
C68 C 0.51709 0.39555 0.50878 0.0
C69 C 0.51515 0.395 0.44736 0.0
N70 N 0.53039 0.39832 0.51986 0.0
N71 N 0.52724 0.39756 0.41969 0.0
H72 H 0.54706 0.40214 0.45888 0.0
H73 H 0.50927 0.39428 0.54294 0.0
C74 C 0.52708 0.37674 0.66532 0.0
O75 O 0.5393 0.3742 0.68786 0.0
N76 N 0.54625 0.40451 0.67886 0.0
C77 C 0.55801 0.41129 0.69157 0.0
C78 C 0.55949 0.41236 0.75305 0.0
C79 C 0.54036 0.40236 0.73352 0.0
N80 N 0.54843 0.40667 0.77954 0.0
C81 C 0.56557 0.3898 0.58554 0.0
C82 C 0.55722 0.36326 0.56125 0.0
C83 C 0.57109 0.36575 0.57424 0.0
C84 C 0.57533 0.37934 0.58338 0.0
C85 C 0.54784 0.37411 0.56326 0.0
N86 N 0.55191 0.38692 0.58112 0.0
H87 H 0.56904 0.40017 0.59187 0.0
H88 H 0.53717 0.37203 0.5536 0.0
H89 H 0.56483 0.41586 0.65887 0.0
H90 H 0.5303 0.39793 0.73977 0.0
O91 O 0.54822 0.41684 0.56751 0.0
O92 O 0.52739 0.41747 0.60821 0.0
O93 O 0.52511 0.38733 0.63234 0.0
C94 C 0.53751 0.42404 0.58283 0.0
H95 H 0.5055 0.39287 0.42504 0.0
H96 H 0.56784 0.41743 0.77638 0.0
H97 H 0.5536 0.35299 0.5513 0.0
H98 H 0.586 0.38182 0.59169 0.0
Co99 Co 0.89977 0.2308 0.81671 0.0
C100 C 0.90248 0.22945 0.68329 0.0
C101 C 0.90537 0.2098 0.7255 0.0
C102 C 0.90646 0.20816 0.66402 0.0
N103 N 0.90301 0.22314 0.73755 0.0
N104 N 0.90462 0.2205 0.63745 0.0
H105 H 0.90046 0.2403 0.67759 0.0
H106 H 0.90581 0.20174 0.75897 0.0
C107 C 0.92364 0.21914 0.88725 0.0
O108 O 0.92563 0.23106 0.91372 0.0
N109 N 0.89609 0.23825 0.89714 0.0
C110 C 0.89 0.25034 0.91032 0.0
C111 C 0.88832 0.25139 0.97169 0.0
C112 C 0.89732 0.23184 0.95118 0.0
N113 N 0.89299 0.23979 0.99759 0.0
C114 C 0.91025 0.25816 0.80107 0.0
C115 C 0.93752 0.25085 0.78983 0.0
C116 C 0.9342 0.26471 0.79943 0.0
C117 C 0.92028 0.26837 0.80129 0.0
C118 C 0.92708 0.241 0.78907 0.0
N119 N 0.91381 0.24463 0.80117 0.0
H120 H 0.89964 0.26118 0.80168 0.0
H121 H 0.92979 0.23039 0.78153 0.0
H122 H 0.88635 0.25775 0.87798 0.0
H123 H 0.90092 0.22141 0.95646 0.0
O124 O 0.88397 0.24039 0.78562 0.0
O125 O 0.88369 0.2194 0.82465 0.0
O126 O 0.91373 0.21752 0.85015 0.0
C127 C 0.87695 0.2295 0.8 0.0
H128 H 0.90796 0.19853 0.64057 0.0
H129 H 0.88396 0.2601 0.99525 0.0
H130 H 0.94808 0.24751 0.7859 0.0
H131 H 0.91715 0.27901 0.80437 0.0
Co132 Co 0.06793 0.40131 0.92973 0.0
C133 C 0.06971 0.39919 0.06322 0.0
C134 C 0.08925 0.3961 0.02035 0.0
C135 C 0.091 0.39511 0.08182 0.0
N136 N 0.07591 0.39854 1.00874 0.0
N137 N 0.07873 0.39707 0.10879 0.0
H138 H 0.05886 0.40116 0.06924 0.0
H139 H 0.09722 0.39535 0.98656 0.0
C140 C 0.08002 0.37739 0.86209 0.0
O141 O 0.06791 0.37468 0.83873 0.0
N142 N 0.06019 0.40454 0.84937 0.0
C143 C 0.04826 0.41097 0.83638 0.0
C144 C 0.04706 0.41243 0.77495 0.0
C145 C 0.06639 0.40292 0.79503 0.0
N146 N 0.05845 0.40732 0.74875 0.0
C147 C 0.04109 0.3892 0.94239 0.0
C148 C 0.05015 0.36286 0.96608 0.0
C149 C 0.03619 0.36501 0.95384 0.0
C150 C 0.0316 0.37849 0.94483 0.0
C151 C 0.05925 0.37393 0.9638 0.0
N152 N 0.05482 0.38666 0.94644 0.0
H153 H 0.03735 0.39948 0.93644 0.0
H154 H 0.06998 0.37212 0.97323 0.0
H155 H 0.04111 0.41505 0.86892 0.0
H156 H 0.07674 0.39913 0.78941 0.0
O157 O 0.0577 0.4167 0.96089 0.0
O158 O 0.07858 0.41786 0.92088 0.0
O159 O 0.08167 0.38786 0.89609 0.0
C160 C 0.06825 0.42417 0.94585 0.0
H161 H 0.10065 0.39349 0.10495 0.0
H162 H 0.03845 0.41703 0.75162 0.0
H163 H 0.05404 0.35269 0.97591 0.0
H164 H 0.02085 0.38071 0.93705 0.0
Co165 Co 0.90023 0.75976 0.20894 0.0
C166 C 0.90184 0.76187 0.34252 0.0
C167 C 0.9043 0.78138 0.29872 0.0
C168 C 0.90464 0.78339 0.36012 0.0
N169 N 0.90263 0.76791 0.28773 0.0
N170 N 0.90301 0.77115 0.38786 0.0
H171 H 0.89999 0.75101 0.34879 0.0
H172 H 0.90486 0.78926 0.26446 0.0
C173 C 0.92407 0.77193 0.13991 0.0
O174 O 0.92652 0.76003 0.11408 0.0
N175 N 0.8974 0.7518 0.12879 0.0
C176 C 0.89227 0.73925 0.11596 0.0
C177 C 0.89118 0.73778 0.0545 0.0
C178 C 0.89855 0.75805 0.07434 0.0
N179 N 0.89525 0.74956 0.02817 0.0
C180 C 0.91143 0.73285 0.22968 0.0
C181 C 0.93848 0.74102 0.23935 0.0
C182 C 0.93556 0.72704 0.23059 0.0
C183 C 0.92176 0.72295 0.22998 0.0
C184 C 0.92774 0.75055 0.2397 0.0
N185 N 0.91459 0.74648 0.22779 0.0
H186 H 0.9009 0.72952 0.22954 0.0
H187 H 0.93014 0.76126 0.24637 0.0
H188 H 0.88884 0.73178 0.14849 0.0
H189 H 0.90173 0.7686 0.06849 0.0
O190 O 0.88452 0.74979 0.23861 0.0
O191 O 0.88384 0.77057 0.19762 0.0
O192 O 0.91398 0.77334 0.17622 0.0
C193 C 0.87727 0.76037 0.22227 0.0
H194 H 0.90592 0.7932 0.3824 0.0
H195 H 0.88728 0.72884 0.0311 0.0
H196 H 0.94894 0.74471 0.24251 0.0
H197 H 0.91895 0.7122 0.22773 0.0
Co198 Co 0.53825 0.59091 0.43117 0.0
C199 C 0.5363 0.5928 0.56473 0.0
C200 C 0.5171 0.59722 0.5212 0.0
C201 C 0.51518 0.59773 0.58265 0.0
N202 N 0.53034 0.59419 0.50999 0.0
N203 N 0.52722 0.59487 0.61018 0.0
H204 H 0.54692 0.58986 0.57094 0.0
H205 H 0.50928 0.59863 0.48714 0.0
C206 C 0.52691 0.61498 0.36223 0.0
O207 O 0.53913 0.6173 0.33925 0.0
N208 N 0.5459 0.58713 0.35105 0.0
C209 C 0.5575 0.58008 0.33866 0.0
C210 C 0.55871 0.57842 0.27733 0.0
C211 C 0.53986 0.58894 0.29646 0.0
N212 N 0.54763 0.58404 0.2506 0.0
C213 C 0.56538 0.60261 0.44075 0.0
C214 C 0.5568 0.62907 0.46514 0.0
C215 C 0.57062 0.62677 0.4508 0.0
C216 C 0.575 0.61322 0.44152 0.0
C217 C 0.54756 0.6181 0.46438 0.0
N218 N 0.55172 0.60531 0.44671 0.0
H219 H 0.56896 0.59229 0.43428 0.0
H220 H 0.5369 0.62008 0.47477 0.0
H221 H 0.56441 0.57574 0.37163 0.0
H222 H 0.52972 0.59321 0.2903 0.0
O223 O 0.54808 0.57541 0.46358 0.0
O224 O 0.52717 0.5746 0.4237 0.0
O225 O 0.52488 0.60461 0.3964 0.0
C226 C 0.53733 0.56815 0.44938 0.0
H227 H 0.50557 0.59994 0.60512 0.0
H228 H 0.5671 0.57333 0.2544 0.0
H229 H 0.55308 0.6393 0.47521 0.0
H230 H 0.58566 0.61088 0.43213 0.0
Co231 Co 0.70831 0.23262 0.69729 0.0
C232 C 0.70716 0.23034 0.83095 0.0
C233 C 0.70473 0.21086 0.78678 0.0
C234 C 0.70448 0.20879 0.84816 0.0
N235 N 0.70633 0.22436 0.77605 0.0
N236 N 0.70608 0.22102 0.87611 0.0
H237 H 0.70891 0.24122 0.83743 0.0
H238 H 0.70406 0.20303 0.75232 0.0
C239 C 0.68381 0.22095 0.63083 0.0
O240 O 0.68145 0.23286 0.60489 0.0
N241 N 0.71068 0.24069 0.61714 0.0
C242 C 0.71567 0.25328 0.60417 0.0
C243 C 0.71651 0.25481 0.54267 0.0
C244 C 0.70934 0.23447 0.56268 0.0
N245 N 0.71243 0.24302 0.51643 0.0
C246 C 0.69797 0.25969 0.72228 0.0
C247 C 0.67076 0.25222 0.73398 0.0
C248 C 0.67403 0.26617 0.72707 0.0
C249 C 0.68793 0.26988 0.72524 0.0
C250 C 0.68121 0.2424 0.7316 0.0
N251 N 0.69441 0.24618 0.71885 0.0
H252 H 0.70859 0.26272 0.72151 0.0
H253 H 0.67854 0.23172 0.73734 0.0
H254 H 0.71919 0.26075 0.63653 0.0
H255 H 0.70618 0.22391 0.55692 0.0
O256 O 0.7245 0.24214 0.725 0.0
O257 O 0.72431 0.22144 0.68303 0.0
O258 O 0.69406 0.2194 0.66617 0.0
C259 C 0.73134 0.23139 0.7072 0.0
H260 H 0.70323 0.19897 0.87029 0.0
H261 H 0.72031 0.26378 0.51916 0.0
H262 H 0.66023 0.2488 0.73801 0.0
H263 H 0.69104 0.28055 0.72431 0.0
Co264 Co 0.39854 0.26282 0.68522 0.0
C265 C 0.40139 0.26379 0.8185 0.0
C266 C 0.40645 0.28307 0.77697 0.0
C267 C 0.40767 0.28447 0.83852 0.0
N268 N 0.40262 0.27009 0.76445 0.0
N269 N 0.40445 0.27238 0.86465 0.0
H270 H 0.39823 0.25321 0.82383 0.0
H271 H 0.40788 0.29108 0.74384 0.0
C272 C 0.42266 0.27393 0.61491 0.0
O273 O 0.42468 0.26184 0.59005 0.0
N274 N 0.39403 0.25577 0.60482 0.0
C275 C 0.3866 0.24443 0.59197 0.0
C276 C 0.38485 0.24344 0.53061 0.0
C277 C 0.39598 0.2619 0.55057 0.0
N278 N 0.39081 0.2544 0.50438 0.0
C279 C 0.40877 0.23515 0.69263 0.0
C280 C 0.43596 0.24208 0.71069 0.0
C281 C 0.43265 0.22841 0.69677 0.0
C282 C 0.41875 0.2249 0.69119 0.0
C283 C 0.42557 0.25197 0.71253 0.0
N284 N 0.41237 0.24862 0.69758 0.0
H285 H 0.39817 0.23222 0.68902 0.0
H286 H 0.42829 0.26248 0.72269 0.0
H287 H 0.38217 0.23751 0.62464 0.0
H288 H 0.40064 0.27188 0.54487 0.0
O289 O 0.38281 0.25347 0.71828 0.0
O290 O 0.38269 0.27462 0.68079 0.0
O291 O 0.41252 0.27587 0.65049 0.0
C292 C 0.37595 0.26459 0.70604 0.0
H293 H 0.41021 0.29384 0.86231 0.0
H294 H 0.37956 0.23523 0.50731 0.0
H295 H 0.4465 0.24529 0.71717 0.0
H296 H 0.4156 0.21434 0.68444 0.0
Co297 Co 0.20883 0.73281 0.21131 0.0
C298 C 0.20596 0.73171 0.34465 0.0
C299 C 0.20333 0.71195 0.30311 0.0
C300 C 0.20216 0.71043 0.3646 0.0
N301 N 0.20557 0.72528 0.29064 0.0
N302 N 0.20384 0.72283 0.39073 0.0
H303 H 0.20786 0.74259 0.35001 0.0
H304 H 0.20301 0.70382 0.26991 0.0
C305 C 0.18503 0.72086 0.14086 0.0
O306 O 0.18297 0.73263 0.11331 0.0
N307 N 0.21251 0.74013 0.13073 0.0
C308 C 0.21854 0.75223 0.11722 0.0
C309 C 0.22023 0.75319 0.05583 0.0
C310 C 0.21134 0.73361 0.07692 0.0
N311 N 0.21563 0.74151 0.0303 0.0
C312 C 0.19835 0.76021 0.22612 0.0
C313 C 0.17104 0.75293 0.23532 0.0
C314 C 0.1744 0.76675 0.22504 0.0
C315 C 0.18832 0.77042 0.2244 0.0
C316 C 0.18147 0.74309 0.23758 0.0
N317 N 0.19479 0.74668 0.22629 0.0
H318 H 0.20897 0.76323 0.22617 0.0
H319 H 0.17873 0.7325 0.24545 0.0
H320 H 0.22212 0.75973 0.14935 0.0
H321 H 0.2078 0.72316 0.07195 0.0
O322 O 0.22467 0.74242 0.24207 0.0
O323 O 0.22486 0.72136 0.20367 0.0
O324 O 0.1949 0.71946 0.17837 0.0
C325 C 0.23164 0.73148 0.22794 0.0
H326 H 0.20071 0.70083 0.38839 0.0
H327 H 0.22453 0.76188 0.032 0.0
H328 H 0.16046 0.74959 0.23842 0.0
H329 H 0.19146 0.78105 0.22087 0.0
Co330 Co 0.2092 0.26382 0.85385 0.0
C331 C 0.20771 0.26591 0.72024 0.0
C332 C 0.20338 0.28511 0.7639 0.0
C333 C 0.20294 0.28707 0.70246 0.0
N334 N 0.2063 0.27185 0.77501 0.0
N335 N 0.20573 0.27502 0.67483 0.0
H336 H 0.21051 0.25525 0.71402 0.0
H337 H 0.20193 0.29291 0.79805 0.0
C338 C 0.18458 0.27492 0.92013 0.0
O339 O 0.1821 0.26267 0.9425 0.0
N340 N 0.21256 0.25603 0.93407 0.0
C341 C 0.21948 0.24436 0.94675 0.0
C342 C 0.22049 0.24283 1.00823 0.0
C343 C 0.21025 0.26184 0.98879 0.0
N344 N 0.21461 0.25379 0.03476 0.0
C345 C 0.19807 0.23656 0.84079 0.0
C346 C 0.1715 0.2447 0.81579 0.0
C347 C 0.17406 0.23087 0.82917 0.0
C348 C 0.18767 0.22673 0.83864 0.0
C349 C 0.18228 0.25416 0.81784 0.0
N350 N 0.19509 0.25019 0.83604 0.0
H351 H 0.20845 0.23318 0.84741 0.0
H352 H 0.18013 0.26481 0.80802 0.0
H353 H 0.22418 0.23763 0.91403 0.0
H354 H 0.20567 0.27183 0.99515 0.0
O355 O 0.22501 0.25425 0.82287 0.0
O356 O 0.22532 0.27507 0.86373 0.0
O357 O 0.19517 0.27699 0.88738 0.0
C358 C 0.23204 0.26506 0.83833 0.0
H359 H 0.20075 0.2967 0.6801 0.0
H360 H 0.22563 0.23453 0.03154 0.0
H361 H 0.16122 0.24824 0.80557 0.0
H362 H 0.19022 0.21609 0.84727 0.0
Co363 Co 0.40007 0.73136 0.34046 0.0
C364 C 0.4015 0.72915 0.20684 0.0
C365 C 0.40533 0.70988 0.25081 0.0
C366 C 0.40581 0.70787 0.1894 0.0
N367 N 0.40269 0.7232 0.26171 0.0
N368 N 0.40333 0.71996 0.16156 0.0
H369 H 0.39899 0.73987 0.20047 0.0
H370 H 0.40659 0.70208 0.2851 0.0
C371 C 0.42451 0.71999 0.40766 0.0
O372 O 0.42702 0.73216 0.4308 0.0
N373 N 0.39705 0.7393 0.42058 0.0
C374 C 0.39094 0.75142 0.4332 0.0
C375 C 0.38993 0.75296 0.49466 0.0
C376 C 0.39889 0.73332 0.47526 0.0
N377 N 0.39502 0.74162 0.52126 0.0
C378 C 0.41079 0.75851 0.32162 0.0
C379 C 0.43778 0.75075 0.30462 0.0
C380 C 0.43478 0.76467 0.31466 0.0
C381 C 0.42096 0.76855 0.31929 0.0
C382 C 0.42719 0.74107 0.30636 0.0
N383 N 0.41413 0.74493 0.32139 0.0
H384 H 0.40025 0.76171 0.32454 0.0
H385 H 0.42964 0.73039 0.29883 0.0
H386 H 0.38676 0.75848 0.40053 0.0
H387 H 0.40284 0.72305 0.48147 0.0
O388 O 0.3842 0.74097 0.31039 0.0
O389 O 0.38391 0.72021 0.35177 0.0
O390 O 0.41408 0.71812 0.37364 0.0
C391 C 0.37714 0.73026 0.3269 0.0
H392 H 0.40783 0.69818 0.1672 0.0
H393 H 0.38531 0.76158 0.51789 0.0
H394 H 0.44823 0.74724 0.29861 0.0
H395 H 0.41803 0.77925 0.32277 0.0
Co396 Co 0.567 0.0923 0.58076 0.0
C397 C 0.56925 0.09326 0.44719 0.0
C398 C 0.58885 0.09488 0.49106 0.0
C399 C 0.59089 0.09504 0.42965 0.0
N400 N 0.57531 0.09385 0.50196 0.0
N401 N 0.57858 0.09397 0.40191 0.0
H402 H 0.55831 0.09198 0.44088 0.0
H403 H 0.59673 0.09525 0.52543 0.0
C404 C 0.5793 0.11677 0.64465 0.0
O405 O 0.56739 0.11959 0.66968 0.0
N406 N 0.5589 0.09032 0.66106 0.0
C407 C 0.54641 0.08514 0.67452 0.0
C408 C 0.54491 0.08452 0.73608 0.0
C409 C 0.56511 0.09195 0.71536 0.0
N410 N 0.55664 0.08889 0.76186 0.0
C411 C 0.54028 0.10394 0.55863 0.0
C412 C 0.54925 0.13044 0.53838 0.0
C413 C 0.53521 0.12809 0.54748 0.0
C414 C 0.53068 0.11452 0.55431 0.0
C415 C 0.55846 0.11948 0.54246 0.0
N416 N 0.554 0.10671 0.55886 0.0
H417 H 0.53664 0.09357 0.5629 0.0
H418 H 0.56924 0.12143 0.53492 0.0
H419 H 0.53904 0.08125 0.64249 0.0
H420 H 0.57565 0.09521 0.72089 0.0
O421 O 0.55686 0.07647 0.5534 0.0
O422 O 0.57756 0.0759 0.5953 0.0
O423 O 0.58071 0.10617 0.61121 0.0
C424 C 0.56734 0.06924 0.57123 0.0
H425 H 0.60073 0.0959 0.40736 0.0
H426 H 0.53604 0.08062 0.76001 0.0
H427 H 0.55312 0.14068 0.52981 0.0
H428 H 0.51988 0.11214 0.55926 0.0
Co429 Co 0.04058 0.9006 0.06977 0.0
C430 C 0.0384 0.89929 0.93611 0.0
C431 C 0.01885 0.89723 0.97995 0.0
C432 C 0.01681 0.89704 0.91855 0.0
N433 N 0.03236 0.89856 0.9909 0.0
N434 N 0.02909 0.89841 0.8908 0.0
H435 H 0.0493 0.90089 0.92981 0.0
H436 H 0.01097 0.8968 0.01425 0.0
C437 C 0.02824 0.87647 0.13586 0.0
O438 O 0.04019 0.87372 0.16069 0.0
N439 N 0.04858 0.9031 0.15011 0.0
C440 C 0.06093 0.90867 0.16321 0.0
C441 C 0.06245 0.9095 0.22472 0.0
C442 C 0.04244 0.90148 0.20458 0.0
N443 N 0.05086 0.90488 0.25085 0.0
C444 C 0.06731 0.88866 0.05147 0.0
C445 C 0.05824 0.86216 0.03218 0.0
C446 C 0.07224 0.86442 0.04292 0.0
C447 C 0.07683 0.87799 0.04924 0.0
C448 C 0.0491 0.87321 0.03424 0.0
N449 N 0.05357 0.88602 0.05013 0.0
H450 H 0.07102 0.89901 0.05554 0.0
H451 H 0.03834 0.87132 0.0259 0.0
H452 H 0.06818 0.91264 0.13087 0.0
H453 H 0.03199 0.89799 0.21045 0.0
O454 O 0.05082 0.91619 0.04071 0.0
O455 O 0.03006 0.91714 0.08187 0.0
O456 O 0.0268 0.88694 0.10163 0.0
C457 C 0.04035 0.92359 0.05734 0.0
H458 H 0.00698 0.89603 0.89629 0.0
H459 H 0.07124 0.91367 0.24836 0.0
H460 H 0.05433 0.85191 0.02404 0.0
H461 H 0.08761 0.88031 0.05552 0.0
Co462 Co 0.56902 0.90103 0.44967 0.0
C463 C 0.57041 0.89837 0.58295 0.0
C464 C 0.59019 0.89627 0.5411 0.0
C465 C 0.59181 0.89526 0.60262 0.0
N466 N 0.57678 0.89808 0.52883 0.0
N467 N 0.57939 0.89661 0.62894 0.0
H468 H 0.55948 0.89995 0.58844 0.0
H469 H 0.59829 0.89613 0.50775 0.0
C470 C 0.58142 0.87745 0.3803 0.0
O471 O 0.56949 0.87498 0.35471 0.0
N472 N 0.56147 0.90447 0.36918 0.0
C473 C 0.54941 0.91064 0.35601 0.0
C474 C 0.5483 0.91222 0.29462 0.0
C475 C 0.56783 0.90316 0.31509 0.0
N476 N 0.55987 0.90746 0.26867 0.0
C477 C 0.54213 0.889 0.46157 0.0
C478 C 0.55106 0.86241 0.48008 0.0
C479 C 0.53713 0.86474 0.46797 0.0
C480 C 0.53259 0.87832 0.46179 0.0
C481 C 0.56021 0.87345 0.48003 0.0
N482 N 0.55585 0.88635 0.46491 0.0
H483 H 0.53845 0.89935 0.45771 0.0
H484 H 0.57092 0.87151 0.48942 0.0
H485 H 0.54208 0.91444 0.3884 0.0
H486 H 0.57827 0.8996 0.30976 0.0
O487 O 0.55874 0.91637 0.48101 0.0
O488 O 0.57971 0.91758 0.44209 0.0
O489 O 0.58285 0.88762 0.41625 0.0
C490 C 0.56934 0.92385 0.4669 0.0
H491 H 0.60148 0.89416 0.62627 0.0
H492 H 0.53962 0.91662 0.27112 0.0
H493 H 0.5549 0.85213 0.488 0.0
H494 H 0.52186 0.88067 0.45439 0.0
Co495 Co 0.04236 0.09239 0.9524 0.0
C496 C 0.0401 0.09316 0.0861 0.0
C497 C 0.02054 0.09501 0.04209 0.0
C498 C 0.01846 0.09501 0.10347 0.0
N499 N 0.03408 0.09393 0.03128 0.0
N500 N 0.03074 0.09379 0.13129 0.0
H501 H 0.05103 0.09178 0.09254 0.0
H502 H 0.01268 0.09548 1.00766 0.0
C503 C 0.02982 0.11662 0.88682 0.0
O504 O 0.04154 0.11926 0.85984 0.0
N505 N 0.05044 0.09049 0.8721 0.0
C506 C 0.0633 0.08632 0.85865 0.0
C507 C 0.06476 0.08563 0.79708 0.0
C508 C 0.04406 0.09151 0.81791 0.0
N509 N 0.0527 0.089 0.77133 0.0
C510 C 0.06909 0.10333 0.97897 0.0
C511 C 0.0611 0.13042 0.9889 0.0
C512 C 0.07512 0.1274 0.98278 0.0
C513 C 0.07908 0.11356 0.98196 0.0
C514 C 0.05147 0.11979 0.98658 0.0
N515 N 0.05553 0.10664 0.97454 0.0
H516 H 0.07232 0.09276 0.97875 0.0
H517 H 0.04075 0.12228 0.99193 0.0
H518 H 0.07104 0.08328 0.89068 0.0
H519 H 0.03333 0.09409 0.81259 0.0
O520 O 0.0524 0.07645 0.9791 0.0
O521 O 0.03167 0.07606 0.9375 0.0
O522 O 0.02868 0.10633 0.92226 0.0
C523 C 0.04187 0.0693 0.96119 0.0
H524 H 0.00861 0.09583 0.12571 0.0
H525 H 0.07392 0.08246 0.77316 0.0
H526 H 0.05749 0.14091 0.99229 0.0
H527 H 0.08981 0.11064 0.98172 0.0
H528 H 0.05916 0.58257 0.83293 0.0
H529 H 0.05599 0.5811 0.72323 0.0
H530 H 0.09048 0.6082 0.69685 0.0
H531 H 0.09377 0.60957 0.80606 0.0
H532 H 0.05089 0.6006 0.63718 0.0
H533 H 0.10116 0.57591 0.59216 0.0
H534 H 0.09419 0.57755 0.66729 0.0
H535 H 0.10262 0.59189 0.63197 0.0
C536 C 0.06599 0.5883 0.80373 0.0
C537 C 0.07682 0.59606 0.82815 0.0
C538 C 0.06421 0.5874 0.74105 0.0
C539 C 0.07321 0.59427 0.70171 0.0
C540 C 0.08368 0.60246 0.72614 0.0
H541 H 0.0772 0.60341 0.31003 0.0
H542 H 0.08087 0.60532 0.41924 0.0
C543 C 0.08552 0.60327 0.78862 0.0
C544 C 0.07163 0.59295 0.63516 0.0
H545 H 0.08857 0.58351 0.50638 0.0
C546 C 0.05911 0.5968 0.60866 0.0
C547 C 0.08236 0.58798 0.59786 0.0
C548 C 0.09579 0.58297 0.62375 0.0
C549 C 0.05711 0.59601 0.5459 0.0
C550 C 0.06786 0.59114 0.50872 0.0
C551 C 0.08038 0.58732 0.53505 0.0
C552 C 0.06613 0.58959 0.44252 0.0
C553 C 0.04356 0.60057 0.51964 0.0
C554 C 0.05692 0.57986 0.41948 0.0
C555 C 0.05491 0.57862 0.35725 0.0
C556 C 0.06206 0.58713 0.31653 0.0
C557 C 0.0716 0.59662 0.33983 0.0
C558 C 0.07365 0.59779 0.40227 0.0
H559 H 0.03752 0.60679 0.55224 0.0
H560 H 0.04519 0.6067 0.47796 0.0
H561 H 0.03741 0.59139 0.50743 0.0
H562 H 0.05122 0.57323 0.44976 0.0
H563 H 0.04772 0.57099 0.34119 0.0
H564 H 0.70074 0.7471 0.08414 0.0
H565 H 0.70194 0.74342 0.97479 0.0
H566 H 0.71588 0.78506 0.95046 0.0
H567 H 0.71526 0.78865 0.05916 0.0
H568 H 0.68796 0.75707 0.88424 0.0
H569 H 0.74407 0.76372 0.8541 0.0
H570 H 0.7363 0.76128 0.92731 0.0
H571 H 0.73605 0.7779 0.89194 0.0
C572 C 0.70427 0.7554 0.05565 0.0
C573 C 0.7079 0.76817 0.08078 0.0
C574 C 0.70486 0.75332 0.99308 0.0
C575 C 0.70919 0.76391 0.95445 0.0
C576 C 0.71277 0.77665 0.97936 0.0
H577 H 0.7158 0.77299 0.56273 0.0
H578 H 0.71458 0.77718 0.67203 0.0
C579 C 0.71222 0.77874 0.04171 0.0
C580 C 0.70952 0.76184 0.88795 0.0
H581 H 0.73055 0.76335 0.76452 0.0
C582 C 0.69729 0.75836 0.85812 0.0
C583 C 0.7217 0.76359 0.85382 0.0
C584 C 0.7353 0.7667 0.88343 0.0
C585 C 0.69685 0.75677 0.79508 0.0
C586 C 0.709 0.75856 0.76102 0.0
C587 C 0.72123 0.76208 0.79073 0.0
C588 C 0.70936 0.75622 0.69481 0.0
C589 C 0.68334 0.75338 0.76525 0.0
C590 C 0.70692 0.74306 0.67156 0.0
C591 C 0.70762 0.74066 0.60948 0.0
C592 C 0.71082 0.75135 0.56912 0.0
C593 C 0.7132 0.76458 0.59248 0.0
C594 C 0.71257 0.76696 0.65488 0.0
H595 H 0.67448 0.75575 0.79511 0.0
H596 H 0.68212 0.75914 0.72231 0.0
H597 H 0.68305 0.74225 0.75463 0.0
H598 H 0.7046 0.73459 0.70158 0.0
H599 H 0.70556 0.7304 0.59305 0.0
H600 H 0.50827 0.4023 0.33194 0.0
H601 H 0.51205 0.40319 0.22347 0.0
H602 H 0.55538 0.39671 0.25113 0.0
H603 H 0.55162 0.39515 0.36009 0.0
H604 H 0.52722 0.42075 0.157 0.0
H605 H 0.5468 0.36773 0.12588 0.0
H606 H 0.53869 0.37331 0.1949 0.0
H607 H 0.55635 0.37755 0.18008 0.0
C608 C 0.5186 0.40082 0.31531 0.0
C609 C 0.52961 0.39847 0.35528 0.0
C610 C 0.52075 0.40146 0.253 0.0
C611 C 0.53396 0.39978 0.2289 0.0
C612 C 0.54504 0.39772 0.2685 0.0
H613 H 0.56756 0.40463 0.86766 0.0
H614 H 0.56364 0.40309 0.97639 0.0
C615 C 0.54289 0.397 0.331 0.0
C616 C 0.53605 0.40051 0.16243 0.0
H617 H 0.54821 0.38257 0.04097 0.0
C618 C 0.53175 0.41237 0.13162 0.0
C619 C 0.54192 0.38956 0.12922 0.0
C620 C 0.54609 0.37626 0.15903 0.0
C621 C 0.53337 0.41367 0.06882 0.0
C622 C 0.53933 0.40276 0.0358 0.0
C623 C 0.54364 0.39091 0.06646 0.0
C624 C 0.54151 0.40361 0.96956 0.0
C625 C 0.52896 0.42681 0.03838 0.0
C626 C 0.53034 0.40426 0.92948 0.0
C627 C 0.53256 0.40517 0.86706 0.0
C628 C 0.54598 0.40549 0.84367 0.0
C629 C 0.55711 0.40466 0.88411 0.0
C630 C 0.55489 0.40368 0.9463 0.0
H631 H 0.52719 0.43521 0.07143 0.0
H632 H 0.53681 0.43022 1.00523 0.0
H633 H 0.51923 0.42499 0.01353 0.0
H634 H 0.51992 0.40404 0.9465 0.0
H635 H 0.52377 0.40583 0.8373 0.0
H636 H 0.88951 0.23977 0.57877 0.0
H637 H 0.88755 0.24283 0.46914 0.0
H638 H 0.91689 0.21028 0.44137 0.0
H639 H 0.91877 0.20711 0.5505 0.0
H640 H 0.90651 0.2492 0.38195 0.0
H641 H 0.88506 0.1974 0.33843 0.0
H642 H 0.88639 0.20452 0.41342 0.0
H643 H 0.90118 0.19702 0.37761 0.0
C644 C 0.89562 0.23336 0.54928 0.0
C645 C 0.90418 0.22309 0.57331 0.0
C646 C 0.89445 0.23506 0.48664 0.0
C647 C 0.90181 0.22655 0.44694 0.0
C648 C 0.91078 0.21668 0.47096 0.0
H649 H 0.91042 0.22234 0.05536 0.0
H650 H 0.91251 0.21891 0.16465 0.0
C651 C 0.91188 0.21491 0.5334 0.0
C652 C 0.90022 0.22801 0.38044 0.0
H653 H 0.89165 0.21039 0.25221 0.0
C654 C 0.90319 0.24073 0.35366 0.0
C655 C 0.89588 0.21695 0.34344 0.0
C656 C 0.89181 0.20324 0.36967 0.0
C657 C 0.90218 0.24263 0.29089 0.0
C658 C 0.89794 0.23155 0.25398 0.0
C659 C 0.89497 0.21883 0.28062 0.0
C660 C 0.89625 0.23309 0.1877 0.0
C661 C 0.90587 0.25641 0.26437 0.0
C662 C 0.88616 0.24189 0.16445 0.0
C663 C 0.88486 0.24378 0.10216 0.0
C664 C 0.89362 0.2369 0.06159 0.0
C665 C 0.90344 0.22773 0.08507 0.0
C666 C 0.90471 0.22582 0.14756 0.0
H667 H 0.91187 0.26278 0.29653 0.0
H668 H 0.91191 0.25515 0.2222 0.0
H669 H 0.89631 0.26205 0.25301 0.0
H670 H 0.87933 0.24737 0.1946 0.0
H671 H 0.87698 0.25068 0.0859 0.0
H672 H 0.05939 0.41199 0.168 0.0
H673 H 0.05621 0.41362 0.27762 0.0
H674 H 0.08896 0.38447 0.30455 0.0
H675 H 0.09226 0.38291 0.19541 0.0
H676 H 0.0498 0.39434 0.36304 0.0
H677 H 0.10135 0.41596 0.41047 0.0
H678 H 0.09443 0.41484 0.33505 0.0
H679 H 0.10193 0.39997 0.37028 0.0
C680 C 0.06584 0.40586 0.19729 0.0
C681 C 0.07618 0.39744 0.17299 0.0
C682 C 0.06405 0.40685 0.25993 0.0
C683 C 0.07257 0.39942 0.29943 0.0
C684 C 0.08256 0.39063 0.27515 0.0
H685 H 0.07578 0.38977 0.69093 0.0
H686 H 0.07941 0.38783 0.58174 0.0
C687 C 0.0844 0.38971 0.21269 0.0
C688 C 0.07094 0.40077 0.36598 0.0
H689 H 0.08818 0.40904 0.4956 0.0
C690 C 0.05817 0.39762 0.39195 0.0
C691 C 0.08188 0.40505 0.40379 0.0
C692 C 0.09563 0.40928 0.37851 0.0
C693 C 0.05611 0.39844 0.45466 0.0
C694 C 0.06706 0.40263 0.49237 0.0
C695 C 0.07983 0.40575 0.46656 0.0
C696 C 0.06532 0.40416 0.55862 0.0
C697 C 0.04228 0.3946 0.48028 0.0
C698 C 0.05648 0.41422 0.58181 0.0
C699 C 0.05449 0.41546 0.64407 0.0
C700 C 0.06129 0.40664 0.68469 0.0
C701 C 0.07045 0.3968 0.66124 0.0
C702 C 0.07248 0.39562 0.59879 0.0
H703 H 0.03601 0.38869 0.44743 0.0
H704 H 0.04347 0.38842 0.5221 0.0
H705 H 0.03658 0.4041 0.49204 0.0
H706 H 0.05108 0.42111 0.55164 0.0
H707 H 0.0476 0.42335 0.66023 0.0
H708 H 0.89632 0.78968 0.47487 0.0
H709 H 0.89557 0.78596 0.58343 0.0
H710 H 0.90611 0.74339 0.55716 0.0
H711 H 0.9075 0.74715 0.44808 0.0
H712 H 0.8794 0.76919 0.64997 0.0
H713 H 0.93406 0.75499 0.6827 0.0
H714 H 0.92779 0.76246 0.61343 0.0
H715 H 0.92527 0.74449 0.62844 0.0
C716 C 0.89872 0.77956 0.49185 0.0
C717 C 0.90216 0.76876 0.45227 0.0
C718 C 0.89816 0.77743 0.55419 0.0
C719 C 0.90102 0.76447 0.57869 0.0
C720 C 0.90417 0.75357 0.53946 0.0
H721 H 0.89958 0.73083 0.93992 0.0
H722 H 0.90075 0.73492 0.83134 0.0
C723 C 0.9048 0.7557 0.47692 0.0
C724 C 0.90041 0.76241 0.64522 0.0
H725 H 0.91934 0.75228 0.76736 0.0
C726 C 0.88815 0.76556 0.67567 0.0
C727 C 0.91186 0.75771 0.67881 0.0
C728 C 0.92553 0.75484 0.64936 0.0
C729 C 0.88695 0.7639 0.73849 0.0
C730 C 0.89835 0.7591 0.77191 0.0
C731 C 0.91061 0.75597 0.74159 0.0
C732 C 0.89763 0.75685 0.83816 0.0
C733 C 0.87339 0.76698 0.76848 0.0
C734 C 0.89564 0.76785 0.87826 0.0
C735 C 0.89493 0.76553 0.94068 0.0
C736 C 0.89615 0.75215 0.96404 0.0
C737 C 0.89832 0.74122 0.92356 0.0
C738 C 0.8991 0.74355 0.86142 0.0
H739 H 0.86489 0.7678 0.73518 0.0
H740 H 0.87076 0.7589 0.8019 0.0
H741 H 0.87415 0.7769 0.7929 0.0
H742 H 0.89468 0.77823 0.86129 0.0
H743 H 0.89322 0.77417 0.97047 0.0
H744 H 0.55147 0.5973 0.67054 0.0
H745 H 0.55518 0.59491 0.7795 0.0
H746 H 0.51192 0.58762 0.80508 0.0
H747 H 0.5082 0.58945 0.69676 0.0
H748 H 0.54431 0.60996 0.87418 0.0
H749 H 0.52899 0.55535 0.89357 0.0
H750 H 0.53247 0.56343 0.82184 0.0
H751 H 0.51614 0.56584 0.85832 0.0
C752 C 0.54277 0.59501 0.6992 0.0
C753 C 0.52953 0.59355 0.67447 0.0
C754 C 0.54489 0.59374 0.76157 0.0
C755 C 0.53385 0.59089 0.8004 0.0
C756 C 0.52064 0.58957 0.77598 0.0
H757 H 0.53158 0.60252 0.19146 0.0
H758 H 0.52798 0.60423 0.0823 0.0
C759 C 0.51851 0.59081 0.71383 0.0
C760 C 0.53604 0.58954 0.8666 0.0
H761 H 0.53129 0.56776 0.98573 0.0
C762 C 0.54153 0.60071 0.89857 0.0
C763 C 0.53255 0.57741 0.89833 0.0
C764 C 0.52734 0.56477 0.86623 0.0
C765 C 0.5434 0.60018 0.96151 0.0
C766 C 0.53942 0.58824 0.99352 0.0
C767 C 0.53416 0.57698 0.96135 0.0
C768 C 0.54109 0.58701 0.06009 0.0
C769 C 0.54986 0.61232 0.99292 0.0
C770 C 0.5492 0.57644 0.08419 0.0
C771 C 0.5511 0.57531 0.14655 0.0
C772 C 0.5449 0.58471 0.18646 0.0
C773 C 0.53646 0.59507 0.16226 0.0
C774 C 0.53454 0.59618 0.09972 0.0
H775 H 0.55556 0.61897 0.96079 0.0
H776 H 0.54168 0.61863 0.01407 0.0
H777 H 0.55702 0.60892 0.02896 0.0
H778 H 0.55424 0.56916 0.05461 0.0
H779 H 0.55745 0.56704 0.16336 0.0
H780 H 0.71486 0.21848 0.45832 0.0
H781 H 0.71393 0.21456 0.34888 0.0
H782 H 0.70667 0.25773 0.32004 0.0
H783 H 0.70762 0.26171 0.42862 0.0
H784 H 0.69328 0.21953 0.2659 0.0
H785 H 0.73913 0.2507 0.20963 0.0
H786 H 0.73511 0.24558 0.28593 0.0
H787 H 0.72651 0.26002 0.25214 0.0
C788 C 0.71303 0.22712 0.42866 0.0
C789 C 0.71152 0.24044 0.45228 0.0
C790 C 0.71255 0.22488 0.36611 0.0
C791 C 0.71056 0.23591 0.32611 0.0
C792 C 0.70864 0.24912 0.34977 0.0
H793 H 0.70114 0.24488 0.93669 0.0
H794 H 0.70211 0.24849 0.04614 0.0
C795 C 0.70919 0.25138 0.41201 0.0
C796 C 0.71022 0.23365 0.25969 0.0
H797 H 0.7251 0.24373 0.12703 0.0
C798 C 0.7003 0.22474 0.23559 0.0
C799 C 0.71937 0.24048 0.22006 0.0
C800 C 0.73072 0.24963 0.24321 0.0
C801 C 0.69909 0.2227 0.17295 0.0
C802 C 0.70816 0.22964 0.13341 0.0
C803 C 0.7181 0.23851 0.15743 0.0
C804 C 0.7077 0.22753 0.06703 0.0
C805 C 0.68796 0.21335 0.14942 0.0
C806 C 0.71079 0.21464 0.04244 0.0
C807 C 0.71037 0.21257 0.98004 0.0
C808 C 0.70684 0.22336 0.94057 0.0
C809 C 0.70397 0.23635 0.96542 0.0
C810 C 0.70445 0.23843 0.02804 0.0
H811 H 0.67991 0.21142 0.18392 0.0
H812 H 0.68305 0.21778 0.10857 0.0
H813 H 0.69256 0.20333 0.13672 0.0
H814 H 0.71363 0.20617 0.07159 0.0
H815 H 0.71297 0.20251 0.96286 0.0
H816 H 0.374 0.24492 0.41567 0.0
H817 H 0.37682 0.24785 0.30707 0.0
H818 H 0.41224 0.27346 0.33786 0.0
H819 H 0.40986 0.2701 0.44679 0.0
H820 H 0.37649 0.27056 0.2361 0.0
H821 H 0.42741 0.24524 0.22121 0.0
H822 H 0.41684 0.24431 0.28798 0.0
H823 H 0.42693 0.2594 0.27305 0.0
C824 C 0.38248 0.25107 0.39959 0.0
C825 C 0.3918 0.25712 0.44032 0.0
C826 C 0.38402 0.25282 0.33731 0.0
C827 C 0.39491 0.26063 0.31415 0.0
C828 C 0.40395 0.26711 0.35458 0.0
H829 H 0.4196 0.2842 0.95288 0.0
H830 H 0.4171 0.28103 0.0619 0.0
C831 C 0.40246 0.26532 0.417 0.0
C832 C 0.3967 0.26199 0.24772 0.0
H833 H 0.41925 0.25612 0.13224 0.0
C834 C 0.38582 0.26735 0.21338 0.0
C835 C 0.40886 0.25774 0.21801 0.0
C836 C 0.42063 0.25122 0.2518 0.0
C837 C 0.38685 0.26879 0.15041 0.0
C838 C 0.39903 0.26464 0.12088 0.0
C839 C 0.40992 0.25929 0.15508 0.0
C840 C 0.40078 0.26607 0.05462 0.0
C841 C 0.37501 0.27502 0.11602 0.0
C842 C 0.39263 0.25849 0.01431 0.0
C843 C 0.39404 0.26027 0.95185 0.0
C844 C 0.40362 0.26971 0.92866 0.0
C845 C 0.412 0.27701 0.96929 0.0
C846 C 0.41063 0.27516 0.03158 0.0
H847 H 0.36761 0.28025 0.14646 0.0
H848 H 0.37877 0.28253 0.08215 0.0
H849 H 0.36945 0.26678 0.09152 0.0
H850 H 0.38509 0.25127 0.03119 0.0
H851 H 0.38739 0.25456 0.92185 0.0
H852 H 0.18963 0.70953 0.4777 0.0
H853 H 0.19128 0.71297 0.58679 0.0
H854 H 0.22067 0.74547 0.55849 0.0
H855 H 0.21891 0.74216 0.44908 0.0
H856 H 0.21352 0.70993 0.65827 0.0
H857 H 0.19444 0.76342 0.67547 0.0
H858 H 0.19248 0.75328 0.60781 0.0
H859 H 0.20857 0.76157 0.62415 0.0
C860 C 0.19639 0.71746 0.4947 0.0
C861 C 0.20413 0.72558 0.45474 0.0
C862 C 0.19731 0.71943 0.55707 0.0
C863 C 0.20598 0.72958 0.58097 0.0
C864 C 0.21365 0.7378 0.54117 0.0
H865 H 0.23156 0.75233 0.94161 0.0
H866 H 0.22916 0.74886 0.833 0.0
C867 C 0.21265 0.73589 0.47861 0.0
C868 C 0.20743 0.73105 0.64752 0.0
H869 H 0.20468 0.75397 0.76376 0.0
C870 C 0.2115 0.71954 0.68136 0.0
C871 C 0.20478 0.74359 0.67771 0.0
C872 C 0.1997 0.75613 0.64455 0.0
C873 C 0.21324 0.72029 0.74428 0.0
C874 C 0.21073 0.73285 0.77425 0.0
C875 C 0.20663 0.74436 0.74057 0.0
C876 C 0.21246 0.73435 0.84051 0.0
C877 C 0.21803 0.70772 0.77809 0.0
C878 C 0.20389 0.72728 0.88091 0.0
C879 C 0.20516 0.72932 0.9433 0.0
C880 C 0.215 0.73851 0.96642 0.0
C881 C 0.22373 0.74535 0.92561 0.0
C882 C 0.22242 0.74334 0.8634 0.0
H883 H 0.22226 0.69978 0.74723 0.0
H884 H 0.22601 0.71048 0.8118 0.0
H885 H 0.20921 0.70317 0.80272 0.0
H886 H 0.19599 0.72045 0.86412 0.0
H887 H 0.19814 0.72404 0.97321 0.0
H888 H 0.20341 0.25071 0.61473 0.0
H889 H 0.20534 0.247 0.50568 0.0
H890 H 0.21194 0.29035 0.47926 0.0
H891 H 0.21065 0.29407 0.58766 0.0
H892 H 0.18959 0.25744 0.41377 0.0
H893 H 0.24355 0.27421 0.38501 0.0
H894 H 0.23618 0.27074 0.45818 0.0
H895 H 0.23305 0.2869 0.42123 0.0
C896 C 0.20548 0.25943 0.58591 0.0
C897 C 0.20689 0.27269 0.61046 0.0
C898 C 0.20649 0.2573 0.52345 0.0
C899 C 0.209 0.26837 0.48428 0.0
C900 C 0.2103 0.2816 0.50856 0.0
H901 H 0.21371 0.27837 0.09317 0.0
H902 H 0.2118 0.28206 0.20254 0.0
C903 C 0.20935 0.28373 0.57081 0.0
C904 C 0.20986 0.2662 0.41789 0.0
H905 H 0.23046 0.27136 0.29493 0.0
C906 C 0.19856 0.26039 0.38787 0.0
C907 C 0.22157 0.27009 0.38399 0.0
C908 C 0.23433 0.27571 0.41378 0.0
C909 C 0.19855 0.25861 0.32487 0.0
C910 C 0.2102 0.26262 0.29105 0.0
C911 C 0.2215 0.2684 0.32095 0.0
C912 C 0.21103 0.26045 0.2248 0.0
C913 C 0.186 0.25265 0.29477 0.0
C914 C 0.21133 0.2471 0.20121 0.0
C915 C 0.21244 0.24497 0.13901 0.0
C916 C 0.21329 0.25615 0.09891 0.0
C917 C 0.21294 0.26954 0.12267 0.0
C918 C 0.21192 0.27167 0.18514 0.0
H919 H 0.17685 0.25308 0.32467 0.0
H920 H 0.18365 0.25819 0.25218 0.0
H921 H 0.18797 0.24173 0.28338 0.0
H922 H 0.21082 0.2383 0.23104 0.0
H923 H 0.21252 0.23453 0.12226 0.0
H924 H 0.3948 0.71699 0.57958 0.0
H925 H 0.39609 0.7132 0.68898 0.0
H926 H 0.39922 0.75687 0.71771 0.0
H927 H 0.39791 0.76071 0.60909 0.0
H928 H 0.41621 0.72004 0.77151 0.0
H929 H 0.36773 0.74684 0.82886 0.0
H930 H 0.37213 0.74215 0.75244 0.0
H931 H 0.3794 0.7573 0.78628 0.0
C932 C 0.3958 0.72577 0.60918 0.0
C933 C 0.39606 0.73917 0.58548 0.0
C934 C 0.39649 0.7236 0.67172 0.0
C935 C 0.39743 0.73477 0.71171 0.0
C936 C 0.39807 0.74811 0.688 0.0
H937 H 0.40623 0.74422 0.10141 0.0
H938 H 0.40494 0.74784 0.99206 0.0
C939 C 0.39732 0.75029 0.62574 0.0
C940 C 0.39804 0.73254 0.77813 0.0
H941 H 0.38239 0.74112 0.91116 0.0
C942 C 0.40876 0.72457 0.80199 0.0
C943 C 0.38833 0.73848 0.818 0.0
C944 C 0.37617 0.74656 0.79514 0.0
C945 C 0.41018 0.7226 0.86458 0.0
C946 C 0.40055 0.72864 0.90435 0.0
C947 C 0.38982 0.73658 0.88059 0.0
C948 C 0.40122 0.7265 0.97069 0.0
C949 C 0.42213 0.71427 0.88781 0.0
C950 C 0.39929 0.71336 0.99498 0.0
C951 C 0.39988 0.71126 0.05735 0.0
C952 C 0.40244 0.72228 0.09709 0.0
C953 C 0.40417 0.7355 0.07251 0.0
C954 C 0.4035 0.73759 1.00993 0.0
H955 H 0.4303 0.71311 0.8532 0.0
H956 H 0.42664 0.7191 0.92869 0.0
H957 H 0.41847 0.70387 0.9004 0.0
H958 H 0.3972 0.7047 0.96563 0.0
H959 H 0.39817 0.701 0.07425 0.0
H960 H 0.53807 0.09401 0.84967 0.0
H961 H 0.5422 0.09526 0.95821 0.0
H962 H 0.58525 0.08739 0.92859 0.0
H963 H 0.58117 0.08624 0.81943 0.0
H964 H 0.5518 0.07563 0.03351 0.0
H965 H 0.58667 0.12067 0.03787 0.0
H966 H 0.5768 0.11607 0.97193 0.0
H967 H 0.59243 0.10707 0.98941 0.0
C968 C 0.54842 0.09251 0.86617 0.0
C969 C 0.55929 0.08999 0.82582 0.0
C970 C 0.55077 0.09329 0.92828 0.0
C971 C 0.56405 0.09158 0.95164 0.0
C972 C 0.57496 0.08906 0.91158 0.0
H973 H 0.59671 0.08645 0.31458 0.0
H974 H 0.59283 0.08597 0.20591 0.0
C975 C 0.57262 0.08837 0.84918 0.0
C976 C 0.56627 0.09199 0.01807 0.0
H977 H 0.58402 0.10842 0.12992 0.0
C978 C 0.5588 0.08285 0.05458 0.0
C979 C 0.57539 0.10142 0.04562 0.0
C980 C 0.58319 0.11196 1.00931 0.0
C981 C 0.56034 0.08275 0.11766 0.0
C982 C 0.5695 0.09212 0.14506 0.0
C983 C 0.577 0.10124 0.1087 0.0
C984 C 0.57165 0.09245 0.21137 0.0
C985 C 0.55237 0.07244 0.15448 0.0
C986 C 0.56103 0.09636 0.25063 0.0
C987 C 0.56323 0.09678 0.31312 0.0
C988 C 0.57613 0.09334 0.33754 0.0
C989 C 0.58671 0.0894 0.29775 0.0
C990 C 0.58451 0.08903 0.23543 0.0
H991 H 0.54799 0.06415 0.12592 0.0
H992 H 0.55901 0.06773 0.18959 0.0
H993 H 0.54377 0.07774 0.17768 0.0
H994 H 0.55108 0.09923 0.23286 0.0
H995 H 0.55491 0.10004 0.34209 0.0
H996 H 0.05288 0.89319 0.83029 0.0
H997 H 0.05666 0.89466 0.72113 0.0
H998 H 0.01441 0.90651 0.69563 0.0
H999 H 0.0107 0.90567 0.8041 0.0
H1000 H 0.04422 0.88027 0.62958 0.0
H1001 H 0.03419 0.9359 0.60091 0.0
H1002 H 0.03683 0.92816 0.67403 0.0
H1003 H 0.02036 0.92704 0.63752 0.0
C1004 C 0.04444 0.89631 0.80163 0.0
C1005 C 0.03148 0.89932 0.82644 0.0
C1006 C 0.0466 0.89706 0.73913 0.0
C1007 C 0.03588 0.9009 0.7002 0.0
C1008 C 0.02293 0.90381 0.72475 0.0
H1009 H 0.02631 0.90678 0.3089 0.0
H1010 H 0.02236 0.90525 0.41826 0.0
C1011 C 0.02078 0.90312 0.78703 0.0
C1012 C 0.03804 0.90148 0.63377 0.0
H1013 H 0.0353 0.92254 0.51084 0.0
C1014 C 0.04236 0.88954 0.60369 0.0
C1015 C 0.03557 0.91357 0.59991 0.0
C1016 C 0.03161 0.92693 0.62977 0.0
C1017 C 0.04405 0.8893 0.54067 0.0
C1018 C 0.04147 0.90135 0.50689 0.0
C1019 C 0.03716 0.91329 0.53684 0.0
C1020 C 0.04372 0.90193 0.44067 0.0
C1021 C 0.04839 0.87611 0.51049 0.0
C1022 C 0.05702 0.90065 0.41722 0.0
C1023 C 0.05929 0.90156 0.35507 0.0
C1024 C 0.04831 0.90376 0.3149 0.0
C1025 C 0.03496 0.90496 0.3385 0.0
C1026 C 0.0327 0.90415 0.40094 0.0
H1027 H 0.04686 0.86708 0.54041 0.0
H1028 H 0.04256 0.87446 0.46799 0.0
H1029 H 0.05945 0.87672 0.49893 0.0
H1030 H 0.06569 0.89909 0.44711 0.0
H1031 H 0.06967 0.90042 0.33843 0.0
H1032 H 0.54867 0.92312 0.1798 0.0
H1033 H 0.552 0.92065 0.07132 0.0
H1034 H 0.58143 0.88835 0.10252 0.0
H1035 H 0.57769 0.89031 0.21141 0.0
H1036 H 0.57443 0.92363 1.00084 0.0
H1037 H 0.55539 0.87005 0.98514 0.0
H1038 H 0.55321 0.88037 0.0521 0.0
H1039 H 0.5694 0.87217 0.03698 0.0
C1040 C 0.55576 0.91537 0.16385 0.0
C1041 C 0.56277 0.90679 0.20469 0.0
C1042 C 0.55772 0.91405 0.10162 0.0
C1043 C 0.56674 0.90412 0.07859 0.0
C1044 C 0.57415 0.89586 0.11913 0.0
H1045 H 0.59331 0.88318 0.71655 0.0
H1046 H 0.5899 0.88507 0.82571 0.0
C1047 C 0.57214 0.89713 0.18153 0.0
C1048 C 0.56835 0.90252 1.01217 0.0
H1049 H 0.56521 0.87952 0.89631 0.0
C1050 C 0.57236 0.914 0.97799 0.0
C1051 C 0.56559 0.88996 0.98227 0.0
C1052 C 0.56053 0.87747 0.01585 0.0
C1053 C 0.57388 0.9132 0.915 0.0
C1054 C 0.57121 0.90063 0.8853 0.0
C1055 C 0.56724 0.88914 0.91931 0.0
C1056 C 0.57279 0.89913 0.81901 0.0
C1057 C 0.57858 0.92573 0.88072 0.0
C1058 C 0.56411 0.90619 0.77903 0.0
C1059 C 0.56601 0.90511 0.71652 0.0
C1060 C 0.57669 0.89699 0.69298 0.0
C1061 C 0.58513 0.88967 0.73327 0.0
C1062 C 0.58316 0.89069 0.79562 0.0
H1063 H 0.58278 0.93375 0.91124 0.0
H1064 H 0.58657 0.92294 0.84708 0.0
H1065 H 0.56974 0.93018 0.85591 0.0
H1066 H 0.55593 0.91264 0.79623 0.0
H1067 H 0.5594 0.91092 0.68675 0.0
H1068 H 0.05419 0.10003 0.19231 0.0
H1069 H 0.05787 0.09883 0.30166 0.0
H1070 H 0.01622 0.08491 0.32595 0.0
H1071 H 0.01263 0.08556 0.21725 0.0
H1072 H 0.04422 0.11281 0.39224 0.0
H1073 H 0.03755 0.0567 0.42227 0.0
H1074 H 0.04001 0.06447 0.34909 0.0
H1075 H 0.02338 0.06473 0.38442 0.0
C1076 C 0.04589 0.09651 0.22079 0.0
C1077 C 0.03311 0.0929 0.19565 0.0
C1078 C 0.04797 0.09591 0.28336 0.0
C1079 C 0.03738 0.09159 0.32199 0.0
C1080 C 0.02464 0.08802 0.29707 0.0
H1081 H 0.02835 0.08491 0.71375 0.0
H1082 H 0.02415 0.08612 0.60447 0.0
C1083 C 0.02255 0.08859 0.23471 0.0
C1084 C 0.03945 0.09125 0.38849 0.0
H1085 H 0.03796 0.0702 0.51188 0.0
C1086 C 0.04294 0.10348 0.41834 0.0
C1087 C 0.03769 0.07907 0.4226 0.0
C1088 C 0.03458 0.06547 0.39296 0.0
C1089 C 0.04453 0.10391 0.48139 0.0
C1090 C 0.04274 0.09175 0.51543 0.0
C1091 C 0.03922 0.07953 0.4857 0.0
C1092 C 0.04509 0.09138 0.58165 0.0
C1093 C 0.04792 0.11742 0.51123 0.0
C1094 C 0.05825 0.09385 0.60488 0.0
C1095 C 0.06066 0.09316 0.66696 0.0
C1096 C 0.04997 0.08994 0.70735 0.0
C1097 C 0.03676 0.08753 0.68399 0.0
C1098 C 0.03437 0.08815 0.6216 0.0
H1099 H 0.04553 0.12628 0.48142 0.0
H1100 H 0.04218 0.11862 0.55423 0.0
H1101 H 0.05906 0.11771 0.52175 0.0
H1102 H 0.06671 0.09619 0.57485 0.0
H1103 H 0.07091 0.09525 0.68336 0.0
H1104 H 0.04873 0.55401 1.00183 0.0
H1105 H 0.04886 0.52921 0.98414 0.0
H1106 H 0.08868 0.52621 0.06828 0.0
H1107 H 0.08861 0.55101 0.08654 0.0
H1108 H 0.0686 0.51371 0.91782 0.0
H1109 H 0.06503 0.4973 0.15772 0.0
H1110 H 0.06099 0.51453 0.1334 0.0
H1111 H 0.07857 0.50926 0.14125 0.0
C1112 C 0.05749 0.54807 0.01678 0.0
C1113 C 0.06864 0.55443 0.04578 0.0
C1114 C 0.05755 0.53392 1.00656 0.0
C1115 C 0.0687 0.5259 0.02553 0.0
C1116 C 0.07988 0.53222 0.05418 0.0
H1117 H 0.08837 0.44246 0.91557 0.0
H1118 H 0.08859 0.46725 0.93417 0.0
C1119 C 0.07985 0.54638 0.06432 0.0
C1120 C 0.06872 0.51094 0.01427 0.0
H1121 H 0.06873 0.47982 0.08508 0.0
C1122 C 0.06862 0.50628 0.95431 0.0
C1123 C 0.06862 0.50132 0.06209 0.0
C1124 C 0.06819 0.5058 0.1273 0.0
C1125 C 0.06855 0.49221 0.94082 0.0
C1126 C 0.06873 0.4826 0.98863 0.0
C1127 C 0.0687 0.48725 0.0486 0.0
C1128 C 0.06867 0.46763 0.97736 0.0
C1129 C 0.06804 0.48773 0.87563 0.0
C1130 C 0.0575 0.45966 0.99651 0.0
C1131 C 0.05736 0.44552 0.98608 0.0
C1132 C 0.06843 0.43911 0.95671 0.0
C1133 C 0.07966 0.44712 0.93808 0.0
C1134 C 0.07978 0.46127 0.94842 0.0
H1135 H 0.06487 0.49623 0.84524 0.0
H1136 H 0.0784 0.48423 0.86149 0.0
H1137 H 0.06081 0.47902 0.86967 0.0
H1138 H 0.04886 0.4644 0.01915 0.0
H1139 H 0.04858 0.43962 1.00113 0.0
H1140 H 0.86131 0.74094 0.2762 0.0
H1141 H 0.83647 0.74157 0.29208 0.0
H1142 H 0.83453 0.78132 0.20672 0.0
H1143 H 0.85939 0.78075 0.19023 0.0
H1144 H 0.82094 0.76167 0.35644 0.0
H1145 H 0.8058 0.75784 0.11484 0.0
H1146 H 0.82284 0.75362 0.14109 0.0
H1147 H 0.81781 0.77126 0.13266 0.0
C1148 C 0.8556 0.74981 0.26063 0.0
C1149 C 0.86228 0.76078 0.23173 0.0
C1150 C 0.84143 0.75015 0.26986 0.0
C1151 C 0.83369 0.76142 0.25001 0.0
C1152 C 0.84032 0.77244 0.22155 0.0
H1153 H 0.74906 0.77991 0.34964 0.0
H1154 H 0.77397 0.78074 0.33505 0.0
C1155 C 0.85452 0.77212 0.21239 0.0
C1156 C 0.81868 0.76163 0.25973 0.0
H1157 H 0.78795 0.76118 0.1857 0.0
C1158 C 0.81371 0.76159 0.3192 0.0
C1159 C 0.80932 0.76139 0.21093 0.0
C1160 C 0.81415 0.76092 0.14622 0.0
C1161 C 0.79957 0.76137 0.33122 0.0
C1162 C 0.79021 0.76131 0.28241 0.0
C1163 C 0.79518 0.76131 0.22295 0.0
C1164 C 0.7752 0.76083 0.29202 0.0
C1165 C 0.79474 0.76088 0.39594 0.0
C1166 C 0.76767 0.74945 0.27187 0.0
C1167 C 0.75347 0.74895 0.28 0.0
C1168 C 0.74655 0.75989 0.30808 0.0
C1169 C 0.75412 0.7713 0.32809 0.0
C1170 C 0.76834 0.77177 0.32002 0.0
H1171 H 0.80316 0.758 0.42738 0.0
H1172 H 0.79089 0.77117 0.40926 0.0
H1173 H 0.7862 0.75343 0.40123 0.0
H1174 H 0.7728 0.74092 0.24999 0.0
H1175 H 0.74791 0.74003 0.26395 0.0
H1176 H 0.55671 0.55248 0.50528 0.0
H1177 H 0.55561 0.52793 0.52785 0.0
H1178 H 0.51538 0.52578 0.44709 0.0
H1179 H 0.51642 0.55035 0.42386 0.0
H1180 H 0.53556 0.51384 0.59832 0.0
H1181 H 0.53758 0.49522 0.36098 0.0
H1182 H 0.54232 0.5125 0.38197 0.0
H1183 H 0.52454 0.50776 0.37709 0.0
C1184 C 0.54764 0.54678 0.4921 0.0
C1185 C 0.53668 0.55332 0.46254 0.0
C1186 C 0.54702 0.53277 0.50517 0.0
C1187 C 0.53548 0.52505 0.48859 0.0
C1188 C 0.52446 0.53154 0.45943 0.0
H1189 H 0.51694 0.4419 0.61288 0.0
H1190 H 0.51586 0.46656 0.59114 0.0
C1191 C 0.52506 0.54557 0.4464 0.0
C1192 C 0.53498 0.51021 0.50246 0.0
H1193 H 0.53454 0.47848 0.43704 0.0
C1194 C 0.53528 0.50609 0.56316 0.0
C1195 C 0.53474 0.50018 0.45632 0.0
C1196 C 0.53489 0.50407 0.39037 0.0
C1197 C 0.53538 0.49214 0.57903 0.0
C1198 C 0.53504 0.48212 0.5329 0.0
C1199 C 0.53471 0.48623 0.47221 0.0
C1200 C 0.53561 0.46727 0.54657 0.0
C1201 C 0.5362 0.48822 0.64485 0.0
C1202 C 0.54699 0.45954 0.52796 0.0
C1203 C 0.54763 0.4455 0.54024 0.0
C1204 C 0.53685 0.43893 0.57097 0.0
C1205 C 0.52542 0.4467 0.58933 0.0
C1206 C 0.52481 0.46077 0.57716 0.0
H1207 H 0.53913 0.49707 0.67379 0.0
H1208 H 0.52603 0.48444 0.66003 0.0
H1209 H 0.54377 0.47984 0.65168 0.0
H1210 H 0.5554 0.46439 0.50415 0.0
H1211 H 0.55655 0.43979 0.52535 0.0
H1212 H 0.85945 0.20868 0.83021 0.0
H1213 H 0.83467 0.20754 0.81179 0.0
H1214 H 0.83603 0.24736 0.72695 0.0
H1215 H 0.86077 0.24856 0.74478 0.0
H1216 H 0.81439 0.22625 0.85284 0.0
H1217 H 0.81584 0.22299 0.60267 0.0
H1218 H 0.83066 0.21956 0.64932 0.0
H1219 H 0.82563 0.23695 0.63367 0.0
C1220 C 0.85448 0.21716 0.80737 0.0
C1221 C 0.86205 0.22869 0.78877 0.0
C1222 C 0.84034 0.21649 0.79694 0.0
C1223 C 0.83359 0.22728 0.76728 0.0
C1224 C 0.84111 0.23882 0.7489 0.0
H1225 H 0.74824 0.25001 0.7614 0.0
H1226 H 0.77305 0.24824 0.77638 0.0
C1227 C 0.85522 0.23952 0.75945 0.0
C1228 C 0.81859 0.22673 0.7574 0.0
H1229 H 0.79405 0.22754 0.64742 0.0
C1230 C 0.80993 0.22643 0.80796 0.0
C1231 C 0.81284 0.2268 0.69877 0.0
C1232 C 0.8217 0.22646 0.64291 0.0
C1233 C 0.7956 0.22664 0.80145 0.0
C1234 C 0.78986 0.22731 0.74288 0.0
C1235 C 0.79852 0.22717 0.69227 0.0
C1236 C 0.77488 0.22838 0.7333 0.0
C1237 C 0.78673 0.2261 0.85724 0.0
C1238 C 0.76778 0.21794 0.70285 0.0
C1239 C 0.75361 0.21893 0.69407 0.0
C1240 C 0.74635 0.23044 0.7152 0.0
C1241 C 0.75354 0.24099 0.74482 0.0
C1242 C 0.7677 0.23997 0.75372 0.0
H1243 H 0.79249 0.22217 0.89694 0.0
H1244 H 0.78307 0.23661 0.86806 0.0
H1245 H 0.77759 0.21949 0.84976 0.0
H1246 H 0.77319 0.20896 0.68645 0.0
H1247 H 0.74835 0.21066 0.67093 0.0
H1248 H 0.24956 0.2858 0.86962 0.0
H1249 H 0.27415 0.28745 0.84721 0.0
H1250 H 0.27263 0.24812 0.75798 0.0
H1251 H 0.2481 0.2464 0.77988 0.0
H1252 H 0.2955 0.26864 0.88059 0.0
H1253 H 0.29036 0.27421 0.6321 0.0
H1254 H 0.27622 0.27702 0.68341 0.0
H1255 H 0.28121 0.25985 0.66334 0.0
C1256 C 0.25447 0.27752 0.84518 0.0
C1257 C 0.24691 0.266 0.82628 0.0
C1258 C 0.26849 0.27847 0.83246 0.0
C1259 C 0.27512 0.268 0.80021 0.0
C1260 C 0.26763 0.25642 0.78199 0.0
H1261 H 0.35996 0.2459 0.76463 0.0
H1262 H 0.33557 0.24782 0.78909 0.0
C1263 C 0.25364 0.25542 0.79485 0.0
C1264 C 0.28993 0.26899 0.7865 0.0
H1265 H 0.31281 0.26963 0.66986 0.0
C1266 C 0.2993 0.26897 0.83458 0.0
C1267 C 0.29481 0.2696 0.72644 0.0
C1268 C 0.28514 0.2703 0.67328 0.0
C1269 C 0.31351 0.26905 0.82405 0.0
C1270 C 0.31839 0.26901 0.76392 0.0
C1271 C 0.30901 0.26953 0.7159 0.0
C1272 C 0.33319 0.26802 0.74985 0.0
C1273 C 0.32318 0.26916 0.87728 0.0
C1274 C 0.33982 0.27864 0.71858 0.0
C1275 C 0.35376 0.27756 0.70437 0.0
C1276 C 0.36123 0.26578 0.72074 0.0
C1277 C 0.3545 0.25512 0.75157 0.0
C1278 C 0.34059 0.25623 0.76592 0.0
H1279 H 0.318 0.27276 0.91909 0.0
H1280 H 0.32697 0.25858 0.88543 0.0
H1281 H 0.33218 0.27585 0.86833 0.0
H1282 H 0.33423 0.28778 0.70545 0.0
H1283 H 0.35867 0.28593 0.68045 0.0
H1284 H 0.24806 0.75062 0.28146 0.0
H1285 H 0.27285 0.74928 0.29844 0.0
H1286 H 0.27369 0.70908 0.21683 0.0
H1287 H 0.2489 0.71035 0.19928 0.0
H1288 H 0.28783 0.7289 0.36473 0.0
H1289 H 0.30301 0.73144 0.12283 0.0
H1290 H 0.28612 0.73628 0.14884 0.0
H1291 H 0.2906 0.71847 0.1417 0.0
C1292 C 0.25352 0.7415 0.26703 0.0
C1293 C 0.24656 0.73061 0.23877 0.0
C1294 C 0.26766 0.74074 0.27688 0.0
C1295 C 0.27508 0.72915 0.25829 0.0
C1296 C 0.26815 0.7182 0.23068 0.0
H1297 H 0.35956 0.70969 0.35989 0.0
H1298 H 0.33467 0.70882 0.34404 0.0
C1299 C 0.25399 0.71893 0.22092 0.0
C1300 C 0.29007 0.72856 0.26804 0.0
H1301 H 0.32078 0.72801 0.19391 0.0
C1302 C 0.29506 0.72866 0.32749 0.0
C1303 C 0.29941 0.72837 0.2192 0.0
C1304 C 0.29458 0.72874 0.15447 0.0
C1305 C 0.3092 0.72858 0.33945 0.0
C1306 C 0.31854 0.72826 0.29061 0.0
C1307 C 0.31355 0.72815 0.23117 0.0
C1308 C 0.33355 0.72864 0.30015 0.0
C1309 C 0.31406 0.72918 0.4041 0.0
C1310 C 0.34114 0.73996 0.27977 0.0
C1311 C 0.35531 0.74048 0.28861 0.0
C1312 C 0.36216 0.72963 0.31767 0.0
C1313 C 0.35455 0.71823 0.33757 0.0
C1314 C 0.34035 0.71773 0.3288 0.0
H1315 H 0.30569 0.73218 0.43552 0.0
H1316 H 0.31787 0.7189 0.41781 0.0
H1317 H 0.32266 0.73659 0.40896 0.0
H1318 H 0.33606 0.74845 0.25739 0.0
H1319 H 0.36089 0.74938 0.27263 0.0
H1320 H 0.58755 0.05152 0.60645 0.0
H1321 H 0.58852 0.02668 0.58944 0.0
H1322 H 0.5491 0.02819 0.50099 0.0
H1323 H 0.54807 0.05301 0.51745 0.0
H1324 H 0.56947 0.006 0.62693 0.0
H1325 H 0.57466 0.00896 0.37745 0.0
H1326 H 0.5777 0.0235 0.42626 0.0
H1327 H 0.56045 0.01844 0.4081 0.0
C1328 C 0.57909 0.04656 0.58341 0.0
C1329 C 0.56776 0.05421 0.56299 0.0
C1330 C 0.57966 0.03239 0.5738 0.0
C1331 C 0.56898 0.02568 0.54323 0.0
C1332 C 0.55755 0.03325 0.52376 0.0
H1333 H 0.54961 0.93925 0.52223 0.0
H1334 H 0.55004 0.96395 0.54211 0.0
C1335 C 0.55695 0.0474 0.53348 0.0
C1336 C 0.56973 0.01074 0.53198 0.0
H1337 H 0.57078 0.98685 0.41932 0.0
C1338 C 0.56981 0.00179 0.58161 0.0
C1339 C 0.57035 0.00534 0.47278 0.0
C1340 C 0.57091 0.01453 0.418 0.0
C1341 C 0.57017 0.98751 0.5735 0.0
C1342 C 0.5703 0.9821 0.51424 0.0
C1343 C 0.57055 0.99105 0.46467 0.0
C1344 C 0.57011 0.96715 0.50267 0.0
C1345 C 0.57052 0.97832 0.62834 0.0
C1346 C 0.58114 0.96085 0.47281 0.0
C1347 C 0.58091 0.94674 0.4612 0.0
C1348 C 0.56959 0.93875 0.47887 0.0
C1349 C 0.5585 0.94513 0.50827 0.0
C1350 C 0.55876 0.95922 0.51998 0.0
H1351 H 0.57376 0.984 0.66947 0.0
H1352 H 0.56008 0.97414 0.63652 0.0
H1353 H 0.57761 0.96954 0.62125 0.0
H1354 H 0.58995 0.96683 0.4588 0.0
H1355 H 0.58959 0.94212 0.43834 0.0
H1356 H 0.06009 0.93937 1.00451 0.0
H1357 H 0.05971 0.96421 0.98828 0.0
H1358 H 0.01977 0.96652 0.07173 0.0
H1359 H 0.0201 0.94167 0.0886 0.0
H1360 H 0.03999 0.97975 0.92252 0.0
H1361 H 0.04301 0.99531 0.16378 0.0
H1362 H 0.04717 0.97819 0.13846 0.0
H1363 H 0.02955 0.98338 0.14562 0.0
C1364 C 0.05125 0.94517 0.01964 0.0
C1365 C 0.04015 0.93859 0.04807 0.0
C1366 C 0.05104 0.95934 1.01021 0.0
C1367 C 0.03978 0.96718 0.02938 0.0
C1368 C 0.02864 0.96065 0.05746 0.0
H1369 H 0.02155 0.05165 0.92614 0.0
H1370 H 0.02074 0.02674 0.9413 0.0
C1371 C 0.02883 0.94646 0.06684 0.0
C1372 C 0.03967 0.98218 0.01915 0.0
H1373 H 0.03982 0.01305 0.09214 0.0
C1374 C 0.03993 0.98705 0.95952 0.0
C1375 C 0.03972 0.99163 0.06764 0.0
C1376 C 0.03996 0.98692 0.13255 0.0
C1377 C 0.04019 0.00117 0.94704 0.0
C1378 C 0.04004 0.01062 0.99552 0.0
C1379 C 0.03984 0.00575 0.05514 0.0
C1380 C 0.04053 0.02561 0.98543 0.0
C1381 C 0.04091 0.00589 0.88221 0.0
C1382 C 0.05184 0.0332 1.00596 0.0
C1383 C 0.05233 0.04739 0.99747 0.0
C1384 C 0.04145 0.05425 0.96868 0.0
C1385 C 0.03011 0.04663 0.94826 0.0
C1386 C 0.02965 0.03241 0.95665 0.0
H1387 H 0.04388 -0.00258 0.85124 0.0
H1388 H 0.03067 0.00973 0.86808 0.0
H1389 H 0.04838 0.01442 0.87716 0.0
H1390 H 0.06032 0.02812 0.02844 0.0
H1391 H 0.06119 0.05299 0.01386 0.0
H1392 H 0.18174 0.69905 0.21618 0.0
H1393 H 0.16432 0.68126 0.21204 0.0
H1394 H 0.14773 0.69922 0.04961 0.0
H1395 H 0.16504 0.71751 0.05461 0.0
H1396 H 0.12775 0.69259 0.12735 0.0
H1397 H 0.16279 0.64825 0.10506 0.0
H1398 H 0.16691 0.65833 0.1703 0.0
H1399 H 0.16859 0.66572 0.09606 0.0
C1400 C 0.17454 0.69917 0.179 0.0
C1401 C 0.17488 0.70964 0.13531 0.0
C1402 C 0.16459 0.68892 0.17661 0.0
C1403 C 0.15491 0.6887 0.12977 0.0
C1404 C 0.15518 0.69913 0.08593 0.0
H1405 H 0.10329 0.618 0.06396 0.0
H1406 H 0.12063 0.63592 0.06135 0.0
C1407 C 0.16508 0.70955 0.08873 0.0
C1408 C 0.14424 0.67785 0.12846 0.0
H1409 H 0.1398 0.64315 0.13633 0.0
C1410 C 0.13037 0.68177 0.12866 0.0
C1411 C 0.14765 0.66373 0.12939 0.0
C1412 C 0.16229 0.65876 0.12452 0.0
C1413 C 0.11982 0.67195 0.13115 0.0
C1414 C 0.12327 0.65786 0.13555 0.0
C1415 C 0.13714 0.65396 0.13405 0.0
C1416 C 0.1127 0.64691 0.13883 0.0
C1417 C 0.10512 0.6768 0.12778 0.0
C1418 C 0.10258 0.64692 0.18409 0.0
C1419 C 0.09247 0.63671 0.18525 0.0
C1420 C 0.09252 0.62615 0.14199 0.0
C1421 C 0.10297 0.62591 0.09824 0.0
C1422 C 0.1129 0.6362 0.09654 0.0
H1423 H 0.10435 0.68713 0.10682 0.0
H1424 H 0.09869 0.66955 0.10135 0.0
H1425 H 0.10086 0.67751 0.17413 0.0
H1426 H 0.10246 0.65485 0.21835 0.0
H1427 H 0.08459 0.63712 0.21973 0.0
H1428 H 0.60423 0.87551 0.45097 0.0
H1429 H 0.62171 0.85773 0.44966 0.0
H1430 H 0.60186 0.83857 0.29723 0.0
H1431 H 0.58388 0.8562 0.29969 0.0
H1432 H 0.60851 0.82 0.38032 0.0
H1433 H 0.65373 0.85299 0.33944 0.0
H1434 H 0.64438 0.8585 0.40477 0.0
H1435 H 0.6364 0.85925 0.3314 0.0
C1436 C 0.60364 0.86766 0.41651 0.0
C1437 C 0.59269 0.86734 0.37512 0.0
C1438 C 0.61372 0.8575 0.41569 0.0
C1439 C 0.61327 0.84696 0.37262 0.0
C1440 C 0.60244 0.84667 0.33069 0.0
H1441 H 0.6815 0.79231 0.30819 0.0
H1442 H 0.66399 0.81004 0.30482 0.0
C1443 C 0.59221 0.85676 0.33199 0.0
C1444 C 0.62378 0.83593 0.37352 0.0
H1445 H 0.65835 0.83036 0.37632 0.0
C1446 C 0.61942 0.82224 0.37884 0.0
C1447 C 0.638 0.83884 0.37095 0.0
C1448 C 0.6434 0.85318 0.36067 0.0
C1449 C 0.62889 0.8114 0.38263 0.0
C1450 C 0.64311 0.81439 0.38313 0.0
C1451 C 0.64745 0.82807 0.37694 0.0
C1452 C 0.65374 0.80349 0.38664 0.0
C1453 C 0.62353 0.79687 0.3846 0.0
C1454 C 0.65398 0.79396 0.43432 0.0
C1455 C 0.66396 0.7836 0.43595 0.0
C1456 C 0.67404 0.78284 0.39072 0.0
C1457 C 0.67399 0.79266 0.34414 0.0
C1458 C 0.66393 0.80281 0.342 0.0
H1459 H 0.61292 0.79618 0.36631 0.0
H1460 H 0.63022 0.78981 0.35844 0.0
H1461 H 0.62325 0.79331 0.43217 0.0
H1462 H 0.64647 0.79452 0.47026 0.0
H1463 H 0.6638 0.77623 0.47256 0.0
H1464 H 0.52897 0.3504 0.70834 0.0
H1465 H 0.51175 0.33218 0.69888 0.0
H1466 H 0.48345 0.36093 0.61885 0.0
H1467 H 0.50048 0.37918 0.62812 0.0
H1468 H 0.48376 0.3305 0.74184 0.0
H1469 H 0.48746 0.32969 0.49166 0.0
H1470 H 0.50028 0.33768 0.53904 0.0
H1471 H 0.4844 0.34639 0.52349 0.0
C1472 C 0.51901 0.3529 0.68957 0.0
C1473 C 0.51616 0.36621 0.66837 0.0
C1474 C 0.50922 0.34246 0.68397 0.0
C1475 C 0.49648 0.34518 0.6569 0.0
C1476 C 0.49335 0.35859 0.63862 0.0
H1477 H 0.42081 0.30046 0.65326 0.0
H1478 H 0.43933 0.31722 0.66125 0.0
C1479 C 0.50309 0.36901 0.64426 0.0
C1480 C 0.48649 0.334 0.64665 0.0
H1481 H 0.46899 0.31712 0.53541 0.0
C1482 C 0.48059 0.32749 0.69678 0.0
C1483 C 0.48255 0.32998 0.58771 0.0
C1484 C 0.48908 0.33619 0.53229 0.0
C1485 C 0.47045 0.31739 0.68951 0.0
C1486 C 0.46604 0.31386 0.63063 0.0
C1487 C 0.47231 0.31999 0.58045 0.0
C1488 C 0.45466 0.30408 0.62066 0.0
C1489 C 0.46449 0.31061 0.74487 0.0
C1490 C 0.45703 0.29138 0.59258 0.0
C1491 C 0.44643 0.28174 0.58775 0.0
C1492 C 0.43331 0.28471 0.61079 0.0
C1493 C 0.43084 0.29776 0.63579 0.0
C1494 C 0.44141 0.30734 0.64064 0.0
H1495 H 0.47123 0.31193 0.78494 0.0
H1496 H 0.45439 0.31532 0.75529 0.0
H1497 H 0.46286 0.29946 0.73706 0.0
H1498 H 0.46719 0.28875 0.57637 0.0
H1499 H 0.44867 0.27179 0.56825 0.0
H1500 H 0.02537 0.13704 0.8037 0.0
H1501 H 0.00716 0.15445 0.80547 0.0
H1502 H 0.99128 0.13696 0.97032 0.0
H1503 H 0.00895 0.11937 0.96747 0.0
H1504 H 0.97112 0.14262 0.898 0.0
H1505 H 0.00529 0.18803 0.90916 0.0
H1506 H 0.00834 0.17769 0.84349 0.0
H1507 H 0.01163 0.17073 0.91743 0.0
C1508 C 0.01794 0.13691 0.84007 0.0
C1509 C 0.01858 0.12681 0.88528 0.0
C1510 C 0.00763 0.14693 0.84141 0.0
C1511 C -0.00199 0.1472 0.88876 0.0
C1512 C -0.00142 0.137 0.9334 0.0
H1513 H 0.9446 0.21707 0.96971 0.0
H1514 H 0.96239 0.19927 0.97439 0.0
C1515 C 0.00869 0.1269 0.93155 0.0
C1516 C 0.98712 0.15784 0.89174 0.0
H1517 H 0.98151 0.19246 0.8931 0.0
C1518 C 0.97342 0.15352 0.89723 0.0
C1519 C 0.99011 0.17207 0.89207 0.0
C1520 C 0.00465 0.17742 0.89088 0.0
C1521 C 0.96263 0.16299 0.90212 0.0
C1522 C 0.96556 0.1772 0.89919 0.0
C1523 C 0.97926 0.18155 0.8948 0.0
C1524 C 0.95451 0.18769 0.89842 0.0
C1525 C 0.94825 0.15761 0.9115 0.0
C1526 C 0.94423 0.18712 0.85417 0.0
C1527 C 0.934 0.1971 0.85201 0.0
C1528 C 0.93396 0.20808 0.89328 0.0
C1529 C 0.94431 0.20872 0.93747 0.0
C1530 C 0.95449 0.19858 0.94006 0.0
H1531 H 0.94835 0.14732 0.93317 0.0
H1532 H 0.94208 0.16467 0.93999 0.0
H1533 H 0.94311 0.15653 0.86704 0.0
H1534 H 0.94426 0.17907 0.82042 0.0
H1535 H 0.92634 0.19638 0.81678 0.0
H1536 H 0.15814 0.27277 0.9617 0.0
H1537 H 0.1398 0.28985 0.95147 0.0
H1538 H 0.16857 0.31848 0.87393 0.0
H1539 H 0.18692 0.30159 0.884 0.0
H1540 H 0.13775 0.31797 0.99447 0.0
H1541 H 0.13782 0.31394 0.74427 0.0
H1542 H 0.14572 0.30123 0.79245 0.0
H1543 H 0.15436 0.31716 0.77738 0.0
C1544 C 0.16061 0.28277 0.94337 0.0
C1545 C 0.17396 0.28576 0.92303 0.0
C1546 C 0.15011 0.29248 0.93734 0.0
C1547 C 0.15281 0.30527 0.91071 0.0
C1548 C 0.16625 0.30854 0.89339 0.0
H1549 H 0.10639 0.38012 0.90188 0.0
H1550 H 0.12366 0.3621 0.91151 0.0
C1551 C 0.17673 0.29889 0.89946 0.0
C1552 C 0.14156 0.31514 0.89957 0.0
H1553 H 0.12474 0.33217 0.78685 0.0
C1554 C 0.13483 0.32103 0.94915 0.0
C1555 C 0.13768 0.31893 0.84029 0.0
C1556 C 0.14416 0.31241 0.78543 0.0
C1557 C 0.12459 0.33099 0.941 0.0
C1558 C 0.12114 0.33522 0.88178 0.0
C1559 C 0.12754 0.32899 0.83215 0.0
C1560 C 0.11109 0.34631 0.87083 0.0
C1561 C 0.11754 0.33692 0.99577 0.0
C1562 C 0.09855 0.34351 0.84219 0.0
C1563 C 0.08862 0.35381 0.8364 0.0
C1564 C 0.09114 0.36707 0.85901 0.0
C1565 C 0.10404 0.36998 0.88461 0.0
C1566 C 0.11391 0.35969 0.89044 0.0
H1567 H 0.11893 0.33033 0.03623 0.0
H1568 H 0.12197 0.34717 1.00587 0.0
H1569 H 0.10637 0.33826 0.98738 0.0
H1570 H 0.09626 0.33324 0.82628 0.0
H1571 H 0.0788 0.35123 0.81644 0.0
H1572 H 0.02487 0.85552 0.21726 0.0
H1573 H 0.00686 0.83793 0.2171 0.0
H1574 H 0.98878 0.8565 0.05905 0.0
H1575 H 0.00627 0.87429 0.06048 0.0
H1576 H 0.96956 0.84967 0.13447 0.0
H1577 H 0.00464 0.8053 0.10793 0.0
H1578 H 0.00821 0.81511 0.17465 0.0
H1579 H 0.01046 0.82281 0.10139 0.0
C1580 C 0.01699 0.85587 0.18278 0.0
C1581 C 0.017 0.8663 0.13895 0.0
C1582 C 0.00679 0.84575 0.18234 0.0
C1583 C -0.00337 0.8457 0.13719 0.0
C1584 C -0.00349 0.85628 0.09421 0.0
H1585 H 0.94433 0.77514 0.05501 0.0
H1586 H 0.9616 0.79345 0.05038 0.0
C1587 C 0.00653 0.86649 0.09522 0.0
C1588 C 0.98597 0.83483 0.13467 0.0
H1589 H 0.98121 0.80012 0.12846 0.0
C1590 C 0.97213 0.83883 0.13286 0.0
C1591 C 0.9893 0.82069 0.13121 0.0
C1592 C 0.00396 0.81571 0.12823 0.0
C1593 C 0.96153 0.82914 0.1286 0.0
C1594 C 0.96483 0.81498 0.12842 0.0
C1595 C 0.97868 0.81096 0.12916 0.0
C1596 C 0.95408 0.8042 0.12936 0.0
C1597 C 0.94694 0.83422 0.12311 0.0
C1598 C 0.94419 0.80412 0.17533 0.0
C1599 C 0.93423 0.79386 0.17744 0.0
C1600 C 0.93411 0.78324 0.13438 0.0
C1601 C 0.94411 0.78322 0.08862 0.0
C1602 C 0.95399 0.79365 0.08605 0.0
H1603 H 0.94656 0.84468 0.10321 0.0
H1604 H 0.94063 0.82725 0.09474 0.0
H1605 H 0.94227 0.83479 0.16874 0.0
H1606 H 0.9443 0.81187 0.21039 0.0
H1607 H 0.92686 0.79406 0.214 0.0
H1608 H 0.52901 0.64102 0.31611 0.0
H1609 H 0.51202 0.65949 0.32403 0.0
H1610 H 0.48351 0.63153 0.40791 0.0
H1611 H 0.50033 0.61304 0.40021 0.0
H1612 H 0.48398 0.66135 0.28193 0.0
H1613 H 0.48824 0.66334 0.53186 0.0
H1614 H 0.50083 0.65491 0.48478 0.0
H1615 H 0.48485 0.64655 0.50169 0.0
C1616 C 0.51905 0.63874 0.3354 0.0
C1617 C 0.51608 0.62559 0.35817 0.0
C1618 C 0.50939 0.64932 0.3401 0.0
C1619 C 0.49667 0.64691 0.3678 0.0
C1620 C 0.49341 0.63364 0.38761 0.0
H1621 H 0.42195 0.69343 0.37028 0.0
H1622 H 0.44002 0.67619 0.36249 0.0
C1623 C 0.50302 0.62308 0.38288 0.0
C1624 C 0.48685 0.65828 0.37733 0.0
H1625 H 0.46997 0.67608 0.48757 0.0
C1626 C 0.48097 0.66465 0.32681 0.0
C1627 C 0.48313 0.66267 0.43602 0.0
C1628 C 0.48967 0.65662 0.49178 0.0
C1629 C 0.47106 0.67499 0.33348 0.0
C1630 C 0.46687 0.67893 0.39218 0.0
C1631 C 0.47311 0.67291 0.44269 0.0
C1632 C 0.45577 0.68905 0.4017 0.0
C1633 C 0.46513 0.68163 0.27771 0.0
C1634 C 0.45853 0.70176 0.42891 0.0
C1635 C 0.44819 0.71168 0.43365 0.0
C1636 C 0.43493 0.70897 0.41143 0.0
C1637 C 0.43208 0.69593 0.38717 0.0
C1638 C 0.4424 0.68607 0.3824 0.0
H1639 H 0.47175 0.67996 0.23752 0.0
H1640 H 0.45491 0.67709 0.26811 0.0
H1641 H 0.46375 0.69284 0.28449 0.0
H1642 H 0.46879 0.70418 0.44458 0.0
H1643 H 0.45072 0.72162 0.45258 0.0
H1644 H 0.68098 0.19922 0.70691 0.0
H1645 H 0.6633 0.18165 0.70612 0.0
H1646 H 0.64546 0.19971 0.54647 0.0
H1647 H 0.66301 0.21781 0.54826 0.0
H1648 H 0.62611 0.19331 0.62675 0.0
H1649 H 0.6605 0.14859 0.60053 0.0
H1650 H 0.66518 0.15865 0.66509 0.0
H1651 H 0.66643 0.16598 0.59057 0.0
C1652 C 0.67344 0.1994 0.67102 0.0
C1653 C 0.6735 0.20984 0.62716 0.0
C1654 C 0.66334 0.18928 0.67056 0.0
C1655 C 0.65324 0.18915 0.62544 0.0
C1656 C 0.65323 0.19956 0.58147 0.0
H1657 H 0.60081 0.11878 0.56686 0.0
H1658 H 0.61816 0.13666 0.5621 0.0
C1659 C 0.66327 0.20986 0.58241 0.0
C1660 C 0.64244 0.17841 0.62598 0.0
H1661 H 0.63769 0.14376 0.6348 0.0
C1662 C 0.62862 0.18246 0.62787 0.0
C1663 C 0.64571 0.16425 0.62667 0.0
C1664 C 0.66026 0.15911 0.61993 0.0
C1665 C 0.61799 0.17276 0.63167 0.0
C1666 C 0.62131 0.15864 0.63574 0.0
C1667 C 0.63513 0.15459 0.63273 0.0
C1668 C 0.61066 0.14777 0.64008 0.0
C1669 C 0.60332 0.17776 0.62992 0.0
C1670 C 0.60074 0.14789 0.6862 0.0
C1671 C 0.59061 0.1377 0.68857 0.0
C1672 C 0.59046 0.12705 0.64573 0.0
C1673 C 0.60068 0.12674 0.60094 0.0
C1674 C 0.61061 0.13701 0.59799 0.0
H1675 H 0.60254 0.1881 0.60895 0.0
H1676 H 0.59666 0.17057 0.60431 0.0
H1677 H 0.59934 0.17855 0.67674 0.0
H1678 H 0.60081 0.15585 0.72029 0.0
H1679 H 0.5829 0.13816 0.72378 0.0
H1680 H 0.00986 0.36249 0.99598 0.0
H1681 H 0.9933 0.34442 0.97135 0.0
H1682 H 0.02422 0.32334 0.86716 0.0
H1683 H 0.04082 0.34128 0.89198 0.0
H1684 H 0.98462 0.33811 0.8576 0.0
H1685 H 0.0079 0.29212 0.96425 0.0
H1686 H 0.01329 0.30936 0.98249 0.0
H1687 H 0.01936 0.30115 0.9148 0.0
C1688 C 0.01317 0.3539 0.96851 0.0
C1689 C 0.02664 0.35328 0.94602 0.0
C1690 C 0.00371 0.34359 0.95455 0.0
C1691 C 0.00756 0.33247 0.91792 0.0
C1692 C 0.02111 0.33165 0.89667 0.0
H1693 H 0.95989 0.26694 0.74782 0.0
H1694 H 0.978 0.28341 0.77388 0.0
C1695 C 0.03059 0.34191 0.91091 0.0
C1696 C -0.00287 0.32235 0.89808 0.0
H1697 H 0.98923 0.28818 0.89707 0.0
C1698 C 0.9856 0.3272 0.8665 0.0
C1699 C -0.00151 0.30811 0.90931 0.0
C1700 C 0.01036 0.30236 0.94504 0.0
C1701 C 0.97542 0.3182 0.84571 0.0
C1702 C 0.97675 0.30399 0.8572 0.0
C1703 C 0.98832 0.29909 0.88809 0.0
C1704 C 0.96582 0.29418 0.84039 0.0
C1705 C 0.96333 0.32391 0.81127 0.0
C1706 C 0.95308 0.29478 0.86951 0.0
C1707 C 0.9428 0.28536 0.85527 0.0
C1708 C 0.94503 0.27513 0.8114 0.0
C1709 C 0.95784 0.2746 0.78207 0.0
C1710 C 0.96818 0.28402 0.7967 0.0
H1711 H 0.96538 0.33444 0.79418 0.0
H1712 H 0.96067 0.31718 0.77249 0.0
H1713 H 0.95428 0.32438 0.84164 0.0
H1714 H 0.95117 0.30241 0.90412 0.0
H1715 H 0.93322 0.28589 0.87997 0.0
H1716 H 0.53909 0.15152 0.61244 0.0
H1717 H 0.52207 0.16911 0.63694 0.0
H1718 H 0.49231 0.14845 0.52492 0.0
H1719 H 0.50926 0.13072 0.50066 0.0
H1720 H 0.50674 0.18713 0.56954 0.0
H1721 H 0.47302 0.14987 0.68749 0.0
H1722 H 0.49031 0.14571 0.66475 0.0
H1723 H 0.47655 0.14529 0.61055 0.0
C1724 C 0.529 0.15086 0.59211 0.0
C1725 C 0.52547 0.13968 0.55495 0.0
C1726 C 0.51926 0.16087 0.60645 0.0
C1727 C 0.50584 0.1599 0.58392 0.0
C1728 C 0.5025 0.14917 0.54414 0.0
H1729 H 0.4324 0.20822 0.61118 0.0
H1730 H 0.45047 0.1918 0.58712 0.0
C1731 C 0.51221 0.13909 0.5301 0.0
C1732 C 0.49526 0.16988 0.60347 0.0
H1733 H 0.46401 0.1723 0.67264 0.0
C1734 C 0.49743 0.18391 0.59239 0.0
C1735 C 0.48319 0.16565 0.63386 0.0
C1736 C 0.48065 0.15083 0.65046 0.0
C1737 C 0.48766 0.19378 0.60939 0.0
C1738 C 0.47549 0.18949 0.63848 0.0
C1739 C 0.47337 0.17551 0.65018 0.0
C1740 C 0.46455 0.1993 0.65496 0.0
C1741 C 0.49022 0.20869 0.59493 0.0
C1742 C 0.46644 0.20879 0.70187 0.0
C1743 C 0.45602 0.21811 0.71654 0.0
C1744 C 0.44355 0.21807 0.6844 0.0
C1745 C 0.44172 0.2084 0.6378 0.0
C1746 C 0.45209 0.19907 0.62352 0.0
H1747 H 0.49918 0.21009 0.56452 0.0
H1748 H 0.48102 0.21331 0.57332 0.0
H1749 H 0.49222 0.21439 0.63744 0.0
H1750 H 0.47597 0.20898 0.72713 0.0
H1751 H 0.45772 0.22528 0.75313 0.0
H1752 H 0.64741 0.72495 0.24533 0.0
H1753 H 0.62878 0.70928 0.27333 0.0
H1754 H 0.65578 0.68856 0.39779 0.0
H1755 H 0.67419 0.70442 0.37239 0.0
H1756 H 0.62696 0.68083 0.26693 0.0
H1757 H 0.62324 0.69833 0.50447 0.0
H1758 H 0.63259 0.70778 0.44769 0.0
H1759 H 0.64028 0.69313 0.48387 0.0
C1760 C 0.64936 0.71711 0.27891 0.0
C1761 C 0.66232 0.716 0.30669 0.0
C1762 C 0.63872 0.70813 0.29463 0.0
C1763 C 0.64083 0.69796 0.33859 0.0
C1764 C 0.65385 0.69653 0.36477 0.0
H1765 H 0.59737 0.62911 0.4881 0.0
H1766 H 0.61378 0.64717 0.46099 0.0
C1767 C 0.66444 0.7055 0.34935 0.0
C1768 C 0.62951 0.68872 0.35705 0.0
H1769 H 0.61173 0.67735 0.48028 0.0
C1770 C 0.62351 0.68017 0.3134 0.0
C1771 C 0.62501 0.68792 0.41776 0.0
C1772 C 0.63051 0.69737 0.46604 0.0
C1773 C 0.61347 0.67048 0.32927 0.0
C1774 C 0.60926 0.66945 0.39022 0.0
C1775 C 0.61506 0.67816 0.43367 0.0
C1776 C 0.5991 0.65911 0.40984 0.0
C1777 C 0.60772 0.66113 0.28119 0.0
C1778 C 0.58537 0.66008 0.39133 0.0
C1779 C 0.57599 0.64983 0.40682 0.0
C1780 C 0.5802 0.6384 0.44102 0.0
C1781 C 0.59387 0.63771 0.46124 0.0
C1782 C 0.60322 0.64803 0.44598 0.0
H1783 H 0.61376 0.6616 0.23868 0.0
H1784 H 0.60751 0.65034 0.29736 0.0
H1785 H 0.597 0.66422 0.27091 0.0
H1786 H 0.58198 0.66865 0.36393 0.0
H1787 H 0.56557 0.65058 0.39001 0.0
H1788 H 0.09863 0.86156 1.00146 0.0
H1789 H 0.1153 0.84395 0.03067 0.0
H1790 H 0.08436 0.82378 0.13804 0.0
H1791 H 0.06766 0.84126 0.10887 0.0
H1792 H 0.12365 0.83915 0.14685 0.0
H1793 H 0.10142 0.79164 0.04899 0.0
H1794 H 0.09592 0.80857 0.02629 0.0
H1795 H 0.08963 0.80113 0.09527 0.0
C1796 C 0.09534 0.85326 0.03057 0.0
C1797 C 0.08182 0.85279 0.05276 0.0
C1798 C 0.10486 0.8432 0.04715 0.0
C1799 C 0.10104 0.83249 0.08609 0.0
C1800 C 0.08745 0.83177 0.10685 0.0
H1801 H 0.14834 0.76915 0.27298 0.0
H1802 H 0.13029 0.78524 0.24211 0.0
C1803 C 0.07791 0.84177 0.09006 0.0
C1804 C 0.11154 0.82277 0.10891 0.0
H1805 H 0.11982 0.78876 0.11859 0.0
C1806 C 0.12285 0.82813 0.14038 0.0
C1807 C 0.1104 0.8084 0.10091 0.0
C1808 C 0.09876 0.80208 0.06556 0.0
C1809 C 0.13303 0.81952 0.16424 0.0
C1810 C 0.13193 0.80518 0.15594 0.0
C1811 C 0.12056 0.79977 0.12511 0.0
C1812 C 0.14287 0.79571 0.1761 0.0
C1813 C 0.14484 0.82581 0.19863 0.0
C1814 C 0.15584 0.79626 0.14895 0.0
C1815 C 0.1661 0.78706 0.16598 0.0
C1816 C 0.16362 0.77708 0.21068 0.0
C1817 C 0.15059 0.77662 0.23816 0.0
C1818 C 0.14028 0.78583 0.22077 0.0
H1819 H 0.14249 0.83644 0.21365 0.0
H1820 H 0.14747 0.81951 0.2388 0.0
H1821 H 0.154 0.82622 0.16891 0.0
H1822 H 0.15794 0.80365 0.11358 0.0
H1823 H 0.17585 0.78752 0.14263 0.0
H1824 H 0.93472 0.70582 0.1503 0.0
H1825 H 0.95313 0.69023 0.12204 0.0
H1826 H 0.98037 0.71042 0.24728 0.0
H1827 H 0.96173 0.72574 0.27825 0.0
H1828 H 0.97765 0.69719 0.07043 0.0
H1829 H 0.98618 0.67012 0.28815 0.0
H1830 H 0.97115 0.68046 0.27403 0.0
H1831 H 0.98722 0.6885 0.29246 0.0
C1832 C 0.94449 0.70676 0.17324 0.0
C1833 C 0.94666 0.71699 0.21712 0.0
C1834 C 0.95507 0.69791 0.1564 0.0
C1835 C 0.96809 0.69908 0.18286 0.0
C1836 C 0.97033 0.70919 0.22698 0.0
H1837 H 0.04281 0.65214 0.11623 0.0
H1838 H 0.02672 0.6703 0.14489 0.0
C1839 C 0.9597 0.71804 0.24418 0.0
C1840 C 0.97934 0.68999 0.16214 0.0
H1841 H 0.00148 0.66494 0.20844 0.0
C1842 C 0.98287 0.69015 0.10062 0.0
C1843 C 0.98616 0.68084 0.20166 0.0
C1844 C 0.98244 0.67984 0.26766 0.0
C1845 C 0.99298 0.68134 0.07747 0.0
C1846 C -0.00036 0.67208 0.1168 0.0
C1847 C 0.99634 0.6721 0.1785 0.0
C1848 C 0.00967 0.66186 0.09456 0.0
C1849 C -0.00351 0.68202 1.0112 0.0
C1850 C 0.00542 0.65121 0.0562 0.0
C1851 C 0.01458 0.64083 0.03963 0.0
C1852 C 0.02816 0.64094 0.06118 0.0
C1853 C 0.03249 0.65188 0.09812 0.0
C1854 C 0.02329 0.6622 0.11494 0.0
H1855 H 0.99296 0.69178 0.99038 0.0
H1856 H 0.00774 0.68101 1.0042 0.0
H1857 H 0.99138 0.67341 0.98731 0.0
H1858 H 0.99489 0.65069 0.04062 0.0
H1859 H 0.01097 0.63257 1.01097 0.0
H1860 H 0.15013 0.2352 0.89007 0.0
H1861 H 0.13275 0.21817 0.91736 0.0
H1862 H 0.1548 0.18725 0.81721 0.0
H1863 H 0.17229 0.20422 0.78998 0.0
H1864 H 0.11559 0.20124 0.85105 0.0
H1865 H 0.15259 0.17066 0.98595 0.0
H1866 H 0.15645 0.1877 0.95886 0.0
H1867 H 0.15783 0.17317 0.90905 0.0
C1868 C 0.15115 0.22483 0.87289 0.0
C1869 C 0.16263 0.22101 0.83823 0.0
C1870 C 0.14125 0.21511 0.88885 0.0
C1871 C 0.14267 0.2014 0.87051 0.0
C1872 C 0.15372 0.19771 0.8332 0.0
H1873 H 0.09726 0.1267 0.90741 0.0
H1874 H 0.11339 0.14509 0.88476 0.0
C1875 C 0.16367 0.20741 0.81748 0.0
C1876 C 0.13279 0.19089 0.89174 0.0
H1877 H 0.13064 0.16064 0.9692 0.0
C1878 C 0.11885 0.19242 0.87726 0.0
C1879 C 0.13707 0.17946 0.92646 0.0
C1880 C 0.15177 0.17768 0.94657 0.0
C1881 C 0.10912 0.18255 0.89484 0.0
C1882 C 0.11348 0.17097 0.92819 0.0
C1883 C 0.12737 0.16955 0.94354 0.0
C1884 C 0.10391 0.15981 0.94474 0.0
C1885 C 0.09433 0.18433 0.87616 0.0
C1886 C 0.0934 0.16194 0.98704 0.0
C1887 C 0.08422 0.15134 1.00092 0.0
C1888 C 0.08542 0.13845 0.97265 0.0
C1889 C 0.09616 0.13637 0.93108 0.0
C1890 C 0.10533 0.14691 0.91756 0.0
H1891 H 0.09304 0.19268 0.84245 0.0
H1892 H 0.09026 0.17464 0.85678 0.0
H1893 H 0.08807 0.18689 0.91647 0.0
H1894 H 0.09229 0.1718 1.00913 0.0
H1895 H 0.07619 0.15327 0.03366 0.0
H1896 H 0.64836 0.26778 0.7795 0.0
H1897 H 0.62998 0.28406 0.75512 0.0
H1898 H 0.6566 0.30448 0.62829 0.0
H1899 H 0.67484 0.28816 0.65079 0.0
H1900 H 0.64137 0.32215 0.71268 0.0
H1901 H 0.60877 0.2845 0.589 0.0
H1902 H 0.61469 0.27966 0.66301 0.0
H1903 H 0.62683 0.28161 0.60271 0.0
C1904 C 0.6503 0.2757 0.74627 0.0
C1905 C 0.66312 0.27664 0.71719 0.0
C1906 C 0.63979 0.28499 0.73248 0.0
C1907 C 0.64193 0.29535 0.6895 0.0
C1908 C 0.65477 0.29654 0.66161 0.0
H1909 H 0.59763 0.36375 0.53398 0.0
H1910 H 0.61455 0.34621 0.56107 0.0
C1911 C 0.66523 0.28725 0.67503 0.0
C1912 C 0.63083 0.30498 0.67289 0.0
H1913 H 0.60039 0.30713 0.59699 0.0
C1914 C 0.63238 0.31889 0.68755 0.0
C1915 C 0.61914 0.30063 0.64023 0.0
C1916 C 0.61721 0.28581 0.6223 0.0
C1917 C 0.62251 0.32863 0.6705 0.0
C1918 C 0.61096 0.32435 0.63649 0.0
C1919 C 0.60931 0.31038 0.62266 0.0
C1920 C 0.60046 0.33425 0.61536 0.0
C1921 C 0.62443 0.34336 0.68993 0.0
C1922 C 0.58678 0.33294 0.63427 0.0
C1923 C 0.57707 0.34286 0.61836 0.0
C1924 C 0.58089 0.35427 0.5832 0.0
C1925 C 0.59445 0.35519 0.56187 0.0
C1926 C 0.60413 0.34522 0.57752 0.0
H1927 H 0.63155 0.3442 0.72899 0.0
H1928 H 0.6289 0.3493 0.65199 0.0
H1929 H 0.61448 0.34813 0.70245 0.0
H1930 H 0.58373 0.3245 0.66318 0.0
H1931 H 0.56674 0.34193 0.63597 0.0
H1932 H 0.54185 0.84156 0.40207 0.0
H1933 H 0.52523 0.82391 0.37319 0.0
H1934 H 0.49416 0.8441 0.47981 0.0
H1935 H 0.5107 0.86184 0.50865 0.0
H1936 H 0.50924 0.80567 0.43826 0.0
H1937 H 0.47671 0.84265 0.31258 0.0
H1938 H 0.49377 0.84686 0.33847 0.0
H1939 H 0.47948 0.84745 0.38988 0.0
C1940 C 0.53154 0.84211 0.42025 0.0
C1941 C 0.52755 0.85315 0.4573 0.0
C1942 C 0.52204 0.83206 0.40339 0.0
C1943 C 0.50839 0.83289 0.4232 0.0
C1944 C 0.50455 0.84349 0.4627 0.0
H1945 H 0.43486 0.78589 0.39504 0.0
H1946 H 0.45325 0.80213 0.416 0.0
C1947 C 0.51402 0.85358 0.47932 0.0
C1948 C 0.49809 0.82284 0.40153 0.0
H1949 H 0.46731 0.82036 0.32852 0.0
C1950 C 0.50013 0.80884 0.41378 0.0
C1951 C 0.4863 0.82702 0.36901 0.0
C1952 C 0.48397 0.84179 0.35112 0.0
C1953 C 0.49039 0.79897 0.39643 0.0
C1954 C 0.47841 0.80323 0.36569 0.0
C1955 C 0.47652 0.81717 0.35224 0.0
C1956 C 0.46728 0.79352 0.35056 0.0
C1957 C 0.49271 0.78411 0.41274 0.0
C1958 C 0.46903 0.78344 0.30596 0.0
C1959 C 0.45841 0.7742 0.29305 0.0
C1960 C 0.44589 0.77492 0.32463 0.0
C1961 C 0.44421 0.78518 0.36881 0.0
C1962 C 0.45476 0.79442 0.38134 0.0
H1963 H 0.50157 0.78277 0.44378 0.0
H1964 H 0.48339 0.77976 0.43441 0.0
H1965 H 0.49473 0.77813 0.37103 0.0
H1966 H 0.4786 0.78272 0.28122 0.0
H1967 H 0.46001 0.76653 0.25834 0.0
loop_
_geom_bond_atom_site_label_1
_geom_bond_atom_site_label_2
_geom_bond_distance
_geom_bond_site_symmetry_2
_ccdc_geom_bond_type
Co0 N4 2.148 1_554 S
Co0 N10 2.128 . S
Co0 N20 2.194 . S
Co0 O25 2.351 . S
Co0 O26 2.155 . S
Co0 O27 2.096 . S
C1 N4 1.301 . S
C1 N5 1.328 . S
C1 H6 0.930 . S
C2 C3 1.333 . S
C2 N4 1.317 . S
C2 H7 0.930 . S
C3 C2 1.333 . S
C3 N5 1.350 . S
C3 H29 0.931 . S
N4 Co0 2.148 1_556 S
N4 C1 1.301 . S
N4 C2 1.317 . S
N5 C1 1.328 . S
N5 C3 1.350 . S
H6 C1 0.930 . S
H7 C2 0.930 . S
C8 O9 1.224 . S
C8 O27 1.247 . S
O9 C8 1.224 . S
N10 Co0 2.128 . S
N10 C11 1.355 . S
N10 C13 1.311 . S
C11 N10 1.355 . S
C11 C12 1.363 . S
C11 H23 0.929 . S
C12 C11 1.363 . S
C12 N14 1.375 . S
C12 H30 0.931 . S
C13 N10 1.311 . S
C13 N14 1.347 . S
C13 H24 0.929 . S
N14 C12 1.375 . S
N14 C13 1.347 . S
C15 C18 1.365 . S
C15 N20 1.328 . S
C15 H21 0.929 . S
C16 C17 1.362 . S
C16 C19 1.378 . S
C16 H31 0.929 . S
C17 C16 1.362 . S
C17 C18 1.366 . S
C18 C15 1.365 . S
C18 C17 1.366 . S
C18 H32 0.930 . S
C19 C16 1.378 . S
C19 N20 1.315 . S
C19 H22 0.930 . S
N20 Co0 2.194 . S
N20 C15 1.328 . S
N20 C19 1.315 . S
H21 C15 0.929 . S
H22 C19 0.930 . S
H23 C11 0.929 . S
H24 C13 0.929 . S
O25 Co0 2.351 . S
O25 C28 1.244 . S
O26 Co0 2.155 . S
O26 C28 1.240 . S
O27 Co0 2.096 . S
O27 C8 1.247 . S
C28 O25 1.244 . S
C28 O26 1.240 . S
H29 C3 0.931 . S
H30 C12 0.931 . S
H31 C16 0.929 . S
H32 C18 0.930 . S
Co33 N37 2.148 . S
Co33 N43 2.128 . S
Co33 N53 2.194 . S
Co33 O58 2.351 . S
Co33 O59 2.155 . S
Co33 O60 2.096 . S
C34 N37 1.301 . S
C34 N38 1.328 . S
C34 H39 0.930 . S
C35 C36 1.333 . S
C35 N37 1.317 . S
C35 H40 0.930 . S
C36 C35 1.333 . S
C36 N38 1.350 . S
C36 H62 0.931 . S
N37 Co33 2.148 . S
N37 C34 1.301 . S
N37 C35 1.317 . S
N38 C34 1.328 . S
N38 C36 1.350 . S
H39 C34 0.930 . S
H40 C35 0.930 . S
C41 O42 1.224 . S
C41 O60 1.247 . S
O42 C41 1.224 . S
N43 Co33 2.128 . S
N43 C44 1.355 . S
N43 C46 1.311 . S
C44 N43 1.355 . S
C44 C45 1.363 . S
C44 H56 0.929 . S
C45 C44 1.363 . S
C45 N47 1.375 . S
C45 H63 0.931 . S
C46 N43 1.311 . S
C46 N47 1.347 . S
C46 H57 0.929 . S
N47 C45 1.375 . S
N47 C46 1.347 . S
C48 C51 1.365 . S
C48 N53 1.328 . S
C48 H54 0.929 . S
C49 C50 1.362 . S
C49 C52 1.378 . S
C49 H64 0.929 . S
C50 C49 1.362 . S
C50 C51 1.366 . S
C51 C48 1.365 . S
C51 C50 1.366 . S
C51 H65 0.930 . S
C52 C49 1.378 . S
C52 N53 1.315 . S
C52 H55 0.930 . S
N53 Co33 2.194 . S
N53 C48 1.328 . S
N53 C52 1.315 . S
H54 C48 0.929 . S
H55 C52 0.930 . S
H56 C44 0.929 . S
H57 C46 0.929 . S
O58 Co33 2.351 . S
O58 C61 1.244 . S
O59 Co33 2.155 . S
O59 C61 1.240 . S
O60 Co33 2.096 . S
O60 C41 1.247 . S
C61 O58 1.244 . S
C61 O59 1.240 . S
H62 C36 0.931 . S
H63 C45 0.931 . S
H64 C49 0.929 . S
H65 C51 0.930 . S
Co66 N70 2.148 . S
Co66 N76 2.128 . S
Co66 N86 2.194 . S
Co66 O91 2.351 . S
Co66 O92 2.155 . S
Co66 O93 2.096 . S
C67 N70 1.301 . S
C67 N71 1.328 . S
C67 H72 0.930 . S
C68 C69 1.333 . S
C68 N70 1.317 . S
C68 H73 0.930 . S
C69 C68 1.333 . S
C69 N71 1.350 . S
C69 H95 0.931 . S
N70 Co66 2.148 . S
N70 C67 1.301 . S
N70 C68 1.317 . S
N71 C67 1.328 . S
N71 C69 1.350 . S
H72 C67 0.930 . S
H73 C68 0.930 . S
C74 O75 1.224 . S
C74 O93 1.247 . S
O75 C74 1.224 . S
N76 Co66 2.128 . S
N76 C77 1.355 . S
N76 C79 1.311 . S
C77 N76 1.355 . S
C77 C78 1.363 . S
C77 H89 0.929 . S
C78 C77 1.363 . S
C78 N80 1.375 . S
C78 H96 0.931 . S
C79 N76 1.311 . S
C79 N80 1.347 . S
C79 H90 0.929 . S
N80 C78 1.375 . S
N80 C79 1.347 . S
C81 C84 1.365 . S
C81 N86 1.328 . S
C81 H87 0.929 . S
C82 C83 1.362 . S
C82 C85 1.378 . S
C82 H97 0.929 . S
C83 C82 1.362 . S
C83 C84 1.366 . S
C84 C81 1.365 . S
C84 C83 1.366 . S
C84 H98 0.930 . S
C85 C82 1.378 . S
C85 N86 1.315 . S
C85 H88 0.930 . S
N86 Co66 2.194 . S
N86 C81 1.328 . S
N86 C85 1.315 . S
H87 C81 0.929 . S
H88 C85 0.930 . S
H89 C77 0.929 . S
H90 C79 0.929 . S
O91 Co66 2.351 . S
O91 C94 1.244 . S
O92 Co66 2.155 . S
O92 C94 1.240 . S
O93 Co66 2.096 . S
O93 C74 1.247 . S
C94 O91 1.244 . S
C94 O92 1.240 . S
H95 C69 0.931 . S
H96 C78 0.931 . S
H97 C82 0.929 . S
H98 C84 0.930 . S
Co99 N103 2.148 . S
Co99 N109 2.128 . S
Co99 N119 2.194 . S
Co99 O124 2.351 . S
Co99 O125 2.155 . S
Co99 O126 2.096 . S
C100 N103 1.301 . S
C100 N104 1.328 . S
C100 H105 0.930 . S
C101 C102 1.333 . S
C101 N103 1.317 . S
C101 H106 0.930 . S
C102 C101 1.333 . S
C102 N104 1.350 . S
C102 H128 0.931 . S
N103 Co99 2.148 . S
N103 C100 1.301 . S
N103 C101 1.317 . S
N104 C100 1.328 . S
N104 C102 1.350 . S
H105 C100 0.930 . S
H106 C101 0.930 . S
C107 O108 1.224 . S
C107 O126 1.247 . S
O108 C107 1.224 . S
N109 Co99 2.128 . S
N109 C110 1.355 . S
N109 C112 1.311 . S
C110 N109 1.355 . S
C110 C111 1.363 1_556 S
C110 H122 0.929 . S
C111 C110 1.363 1_554 S
C111 N113 1.375 . S
C111 H129 0.931 . S
C112 N109 1.311 . S
C112 N113 1.347 1_556 S
C112 H123 0.929 . S
N113 C111 1.375 . S
N113 C112 1.347 1_554 S
C114 C117 1.365 . S
C114 N119 1.328 . S
C114 H120 0.929 . S
C115 C116 1.362 . S
C115 C118 1.378 . S
C115 H130 0.929 . S
C116 C115 1.362 . S
C116 C117 1.366 . S
C117 C114 1.365 . S
C117 C116 1.366 . S
C117 H131 0.930 . S
C118 C115 1.378 . S
C118 N119 1.315 . S
C118 H121 0.930 . S
N119 Co99 2.194 . S
N119 C114 1.328 . S
N119 C118 1.315 . S
H120 C114 0.929 . S
H121 C118 0.930 . S
H122 C110 0.929 . S
H123 C112 0.929 . S
O124 Co99 2.351 . S
O124 C127 1.244 . S
O125 Co99 2.155 . S
O125 C127 1.240 . S
O126 Co99 2.096 . S
O126 C107 1.247 . S
C127 O124 1.244 . S
C127 O125 1.240 . S
H128 C102 0.931 . S
H129 C111 0.931 . S
H130 C115 0.929 . S
H131 C117 0.930 . S
Co132 N136 2.148 1_556 S
Co132 N142 2.128 . S
Co132 N152 2.194 . S
Co132 O157 2.351 . S
Co132 O158 2.155 . S
Co132 O159 2.096 . S
C133 N136 1.301 . S
C133 N137 1.328 . S
C133 H138 0.930 . S
C134 C135 1.333 . S
C134 N136 1.317 . S
C134 H139 0.930 . S
C135 C134 1.333 . S
C135 N137 1.350 . S
C135 H161 0.931 . S
N136 Co132 2.148 1_554 S
N136 C133 1.301 . S
N136 C134 1.317 . S
N137 C133 1.328 . S
N137 C135 1.350 . S
H138 C133 0.930 . S
H139 C134 0.930 . S
C140 O141 1.224 . S
C140 O159 1.247 . S
O141 C140 1.224 . S
N142 Co132 2.128 . S
N142 C143 1.355 . S
N142 C145 1.311 . S
C143 N142 1.355 . S
C143 C144 1.363 . S
C143 H155 0.929 . S
C144 C143 1.363 . S
C144 N146 1.375 . S
C144 H162 0.931 . S
C145 N142 1.311 . S
C145 N146 1.347 . S
C145 H156 0.929 . S
N146 C144 1.375 . S
N146 C145 1.347 . S
C147 C150 1.365 . S
C147 N152 1.328 . S
C147 H153 0.929 . S
C148 C149 1.362 . S
C148 C151 1.378 . S
C148 H163 0.929 . S
C149 C148 1.362 . S
C149 C150 1.366 . S
C150 C147 1.365 . S
C150 C149 1.366 . S
C150 H164 0.930 . S
C151 C148 1.378 . S
C151 N152 1.315 . S
C151 H154 0.930 . S
N152 Co132 2.194 . S
N152 C147 1.328 . S
N152 C151 1.315 . S
H153 C147 0.929 . S
H154 C151 0.930 . S
H155 C143 0.929 . S
H156 C145 0.929 . S
O157 Co132 2.351 . S
O157 C160 1.244 . S
O158 Co132 2.155 . S
O158 C160 1.240 . S
O159 Co132 2.096 . S
O159 C140 1.247 . S
C160 O157 1.244 . S
C160 O158 1.240 . S
H161 C135 0.931 . S
H162 C144 0.931 . S
H163 C148 0.929 . S
H164 C150 0.930 . S
Co165 N169 2.148 . S
Co165 N175 2.128 . S
Co165 N185 2.194 . S
Co165 O190 2.351 . S
Co165 O191 2.155 . S
Co165 O192 2.096 . S
C166 N169 1.301 . S
C166 N170 1.328 . S
C166 H171 0.930 . S
C167 C168 1.333 . S
C167 N169 1.317 . S
C167 H172 0.930 . S
C168 C167 1.333 . S
C168 N170 1.350 . S
C168 H194 0.931 . S
N169 Co165 2.148 . S
N169 C166 1.301 . S
N169 C167 1.317 . S
N170 C166 1.328 . S
N170 C168 1.350 . S
H171 C166 0.930 . S
H172 C167 0.930 . S
C173 O174 1.224 . S
C173 O192 1.247 . S
O174 C173 1.224 . S
N175 Co165 2.128 . S
N175 C176 1.355 . S
N175 C178 1.311 . S
C176 N175 1.355 . S
C176 C177 1.363 1_554 S
C176 H188 0.929 . S
C177 C176 1.363 1_556 S
C177 N179 1.375 . S
C177 H195 0.931 . S
C178 N175 1.311 . S
C178 N179 1.347 1_554 S
C178 H189 0.929 . S
N179 C177 1.375 . S
N179 C178 1.347 1_556 S
C180 C183 1.365 . S
C180 N185 1.328 . S
C180 H186 0.929 . S
C181 C182 1.362 . S
C181 C184 1.378 . S
C181 H196 0.929 . S
C182 C181 1.362 . S
C182 C183 1.366 . S
C183 C180 1.365 . S
C183 C182 1.366 . S
C183 H197 0.930 . S
C184 C181 1.378 . S
C184 N185 1.315 . S
C184 H187 0.930 . S
N185 Co165 2.194 . S
N185 C180 1.328 . S
N185 C184 1.315 . S
H186 C180 0.929 . S
H187 C184 0.930 . S
H188 C176 0.929 . S
H189 C178 0.929 . S
O190 Co165 2.351 . S
O190 C193 1.244 . S
O191 Co165 2.155 . S
O191 C193 1.240 . S
O192 Co165 2.096 . S
O192 C173 1.247 . S
C193 O190 1.244 . S
C193 O191 1.240 . S
H194 C168 0.931 . S
H195 C177 0.931 . S
H196 C181 0.929 . S
H197 C183 0.930 . S
Co198 N202 2.148 . S
Co198 N208 2.128 . S
Co198 N218 2.194 . S
Co198 O223 2.351 . S
Co198 O224 2.155 . S
Co198 O225 2.096 . S
C199 N202 1.301 . S
C199 N203 1.328 . S
C199 H204 0.930 . S
C200 C201 1.333 . S
C200 N202 1.317 . S
C200 H205 0.930 . S
C201 C200 1.333 . S
C201 N203 1.350 . S
C201 H227 0.931 . S
N202 Co198 2.148 . S
N202 C199 1.301 . S
N202 C200 1.317 . S
N203 C199 1.328 . S
N203 C201 1.350 . S
H204 C199 0.930 . S
H205 C200 0.930 . S
C206 O207 1.224 . S
C206 O225 1.247 . S
O207 C206 1.224 . S
N208 Co198 2.128 . S
N208 C209 1.355 . S
N208 C211 1.311 . S
C209 N208 1.355 . S
C209 C210 1.363 . S
C209 H221 0.929 . S
C210 C209 1.363 . S
C210 N212 1.375 . S
C210 H228 0.931 . S
C211 N208 1.311 . S
C211 N212 1.347 . S
C211 H222 0.929 . S
N212 C210 1.375 . S
N212 C211 1.347 . S
C213 C216 1.365 . S
C213 N218 1.328 . S
C213 H219 0.929 . S
C214 C215 1.362 . S
C214 C217 1.378 . S
C214 H229 0.929 . S
C215 C214 1.362 . S
C215 C216 1.366 . S
C216 C213 1.365 . S
C216 C215 1.366 . S
C216 H230 0.930 . S
C217 C214 1.378 . S
C217 N218 1.315 . S
C217 H220 0.930 . S
N218 Co198 2.194 . S
N218 C213 1.328 . S
N218 C217 1.315 . S
H219 C213 0.929 . S
H220 C217 0.930 . S
H221 C209 0.929 . S
H222 C211 0.929 . S
O223 Co198 2.351 . S
O223 C226 1.244 . S
O224 Co198 2.155 . S
O224 C226 1.240 . S
O225 Co198 2.096 . S
O225 C206 1.247 . S
C226 O223 1.244 . S
C226 O224 1.240 . S
H227 C201 0.931 . S
H228 C210 0.931 . S
H229 C214 0.929 . S
H230 C216 0.930 . S
Co231 N235 2.148 . S
Co231 N241 2.128 . S
Co231 N251 2.194 . S
Co231 O256 2.351 . S
Co231 O257 2.155 . S
Co231 O258 2.096 . S
C232 N235 1.301 . S
C232 N236 1.328 . S
C232 H237 0.930 . S
C233 C234 1.333 . S
C233 N235 1.317 . S
C233 H238 0.930 . S
C234 C233 1.333 . S
C234 N236 1.350 . S
C234 H260 0.931 . S
N235 Co231 2.148 . S
N235 C232 1.301 . S
N235 C233 1.317 . S
N236 C232 1.328 . S
N236 C234 1.350 . S
H237 C232 0.930 . S
H238 C233 0.930 . S
C239 O240 1.224 . S
C239 O258 1.247 . S
O240 C239 1.224 . S
N241 Co231 2.128 . S
N241 C242 1.355 . S
N241 C244 1.311 . S
C242 N241 1.355 . S
C242 C243 1.363 . S
C242 H254 0.929 . S
C243 C242 1.363 . S
C243 N245 1.375 . S
C243 H261 0.931 . S
C244 N241 1.311 . S
C244 N245 1.347 . S
C244 H255 0.929 . S
N245 C243 1.375 . S
N245 C244 1.347 . S
C246 C249 1.365 . S
C246 N251 1.328 . S
C246 H252 0.929 . S
C247 C248 1.362 . S
C247 C250 1.378 . S
C247 H262 0.929 . S
C248 C247 1.362 . S
C248 C249 1.366 . S
C249 C246 1.365 . S
C249 C248 1.366 . S
C249 H263 0.930 . S
C250 C247 1.378 . S
C250 N251 1.315 . S
C250 H253 0.930 . S
N251 Co231 2.194 . S
N251 C246 1.328 . S
N251 C250 1.315 . S
H252 C246 0.929 . S
H253 C250 0.930 . S
H254 C242 0.929 . S
H255 C244 0.929 . S
O256 Co231 2.351 . S
O256 C259 1.244 . S
O257 Co231 2.155 . S
O257 C259 1.240 . S
O258 Co231 2.096 . S
O258 C239 1.247 . S
C259 O256 1.244 . S
C259 O257 1.240 . S
H260 C234 0.931 . S
H261 C243 0.931 . S
H262 C247 0.929 . S
H263 C249 0.930 . S
Co264 N268 2.148 . S
Co264 N274 2.128 . S
Co264 N284 2.194 . S
Co264 O289 2.351 . S
Co264 O290 2.155 . S
Co264 O291 2.096 . S
C265 N268 1.301 . S
C265 N269 1.328 . S
C265 H270 0.930 . S
C266 C267 1.333 . S
C266 N268 1.317 . S
C266 H271 0.930 . S
C267 C266 1.333 . S
C267 N269 1.350 . S
C267 H293 0.931 . S
N268 Co264 2.148 . S
N268 C265 1.301 . S
N268 C266 1.317 . S
N269 C265 1.328 . S
N269 C267 1.350 . S
H270 C265 0.930 . S
H271 C266 0.930 . S
C272 O273 1.224 . S
C272 O291 1.247 . S
O273 C272 1.224 . S
N274 Co264 2.128 . S
N274 C275 1.355 . S
N274 C277 1.311 . S
C275 N274 1.355 . S
C275 C276 1.363 . S
C275 H287 0.929 . S
C276 C275 1.363 . S
C276 N278 1.375 . S
C276 H294 0.931 . S
C277 N274 1.311 . S
C277 N278 1.347 . S
C277 H288 0.929 . S
N278 C276 1.375 . S
N278 C277 1.347 . S
C279 C282 1.365 . S
C279 N284 1.328 . S
C279 H285 0.929 . S
C280 C281 1.362 . S
C280 C283 1.378 . S
C280 H295 0.929 . S
C281 C280 1.362 . S
C281 C282 1.366 . S
C282 C279 1.365 . S
C282 C281 1.366 . S
C282 H296 0.930 . S
C283 C280 1.378 . S
C283 N284 1.315 . S
C283 H286 0.930 . S
N284 Co264 2.194 . S
N284 C279 1.328 . S
N284 C283 1.315 . S
H285 C279 0.929 . S
H286 C283 0.930 . S
H287 C275 0.929 . S
H288 C277 0.929 . S
O289 Co264 2.351 . S
O289 C292 1.244 . S
O290 Co264 2.155 . S
O290 C292 1.240 . S
O291 Co264 2.096 . S
O291 C272 1.247 . S
C292 O289 1.244 . S
C292 O290 1.240 . S
H293 C267 0.931 . S
H294 C276 0.931 . S
H295 C280 0.929 . S
H296 C282 0.930 . S
Co297 N301 2.148 . S
Co297 N307 2.128 . S
Co297 N317 2.194 . S
Co297 O322 2.351 . S
Co297 O323 2.155 . S
Co297 O324 2.096 . S
C298 N301 1.301 . S
C298 N302 1.328 . S
C298 H303 0.930 . S
C299 C300 1.333 . S
C299 N301 1.317 . S
C299 H304 0.930 . S
C300 C299 1.333 . S
C300 N302 1.350 . S
C300 H326 0.931 . S
N301 Co297 2.148 . S
N301 C298 1.301 . S
N301 C299 1.317 . S
N302 C298 1.328 . S
N302 C300 1.350 . S
H303 C298 0.930 . S
H304 C299 0.930 . S
C305 O306 1.224 . S
C305 O324 1.247 . S
O306 C305 1.224 . S
N307 Co297 2.128 . S
N307 C308 1.355 . S
N307 C310 1.311 . S
C308 N307 1.355 . S
C308 C309 1.363 1_554 S
C308 H320 0.929 . S
C309 C308 1.363 1_556 S
C309 N311 1.375 . S
C309 H327 0.931 . S
C310 N307 1.311 . S
C310 N311 1.347 1_554 S
C310 H321 0.929 . S
N311 C309 1.375 . S
N311 C310 1.347 1_556 S
C312 C315 1.365 . S
C312 N317 1.328 . S
C312 H318 0.929 . S
C313 C314 1.362 . S
C313 C316 1.378 . S
C313 H328 0.929 . S
C314 C313 1.362 . S
C314 C315 1.366 . S
C315 C312 1.365 . S
C315 C314 1.366 . S
C315 H329 0.930 . S
C316 C313 1.378 . S
C316 N317 1.315 . S
C316 H319 0.930 . S
N317 Co297 2.194 . S
N317 C312 1.328 . S
N317 C316 1.315 . S
H318 C312 0.929 . S
H319 C316 0.930 . S
H320 C308 0.929 . S
H321 C310 0.929 . S
O322 Co297 2.351 . S
O322 C325 1.244 . S
O323 Co297 2.155 . S
O323 C325 1.240 . S
O324 Co297 2.096 . S
O324 C305 1.247 . S
C325 O322 1.244 . S
C325 O323 1.240 . S
H326 C300 0.931 . S
H327 C309 0.931 . S
H328 C313 0.929 . S
H329 C315 0.930 . S
Co330 N334 2.148 . S
Co330 N340 2.128 . S
Co330 N350 2.194 . S
Co330 O355 2.351 . S
Co330 O356 2.155 . S
Co330 O357 2.096 . S
C331 N334 1.301 . S
C331 N335 1.328 . S
C331 H336 0.930 . S
C332 C333 1.333 . S
C332 N334 1.317 . S
C332 H337 0.930 . S
C333 C332 1.333 . S
C333 N335 1.350 . S
C333 H359 0.931 . S
N334 Co330 2.148 . S
N334 C331 1.301 . S
N334 C332 1.317 . S
N335 C331 1.328 . S
N335 C333 1.350 . S
H336 C331 0.930 . S
H337 C332 0.930 . S
C338 O339 1.224 . S
C338 O357 1.247 . S
O339 C338 1.224 . S
N340 Co330 2.128 . S
N340 C341 1.355 . S
N340 C343 1.311 . S
C341 N340 1.355 . S
C341 C342 1.363 1_556 S
C341 H353 0.929 . S
C342 C341 1.363 1_554 S
C342 N344 1.375 . S
C342 H360 0.931 . S
C343 N340 1.311 . S
C343 N344 1.347 1_556 S
C343 H354 0.929 . S
N344 C342 1.375 . S
N344 C343 1.347 1_554 S
C345 C348 1.365 . S
C345 N350 1.328 . S
C345 H351 0.929 . S
C346 C347 1.362 . S
C346 C349 1.378 . S
C346 H361 0.929 . S
C347 C346 1.362 . S
C347 C348 1.366 . S
C348 C345 1.365 . S
C348 C347 1.366 . S
C348 H362 0.930 . S
C349 C346 1.378 . S
C349 N350 1.315 . S
C349 H352 0.930 . S
N350 Co330 2.194 . S
N350 C345 1.328 . S
N350 C349 1.315 . S
H351 C345 0.929 . S
H352 C349 0.930 . S
H353 C341 0.929 . S
H354 C343 0.929 . S
O355 Co330 2.351 . S
O355 C358 1.244 . S
O356 Co330 2.155 . S
O356 C358 1.240 . S
O357 Co330 2.096 . S
O357 C338 1.247 . S
C358 O355 1.244 . S
C358 O356 1.240 . S
H359 C333 0.931 . S
H360 C342 0.931 . S
H361 C346 0.929 . S
H362 C348 0.930 . S
Co363 N367 2.148 . S
Co363 N373 2.128 . S
Co363 N383 2.194 . S
Co363 O388 2.351 . S
Co363 O389 2.155 . S
Co363 O390 2.096 . S
C364 N367 1.301 . S
C364 N368 1.328 . S
C364 H369 0.930 . S
C365 C366 1.333 . S
C365 N367 1.317 . S
C365 H370 0.930 . S
C366 C365 1.333 . S
C366 N368 1.350 . S
C366 H392 0.931 . S
N367 Co363 2.148 . S
N367 C364 1.301 . S
N367 C365 1.317 . S
N368 C364 1.328 . S
N368 C366 1.350 . S
H369 C364 0.930 . S
H370 C365 0.930 . S
C371 O372 1.224 . S
C371 O390 1.247 . S
O372 C371 1.224 . S
N373 Co363 2.128 . S
N373 C374 1.355 . S
N373 C376 1.311 . S
C374 N373 1.355 . S
C374 C375 1.363 . S
C374 H386 0.929 . S
C375 C374 1.363 . S
C375 N377 1.375 . S
C375 H393 0.931 . S
C376 N373 1.311 . S
C376 N377 1.347 . S
C376 H387 0.929 . S
N377 C375 1.375 . S
N377 C376 1.347 . S
C378 C381 1.365 . S
C378 N383 1.328 . S
C378 H384 0.929 . S
C379 C380 1.362 . S
C379 C382 1.378 . S
C379 H394 0.929 . S
C380 C379 1.362 . S
C380 C381 1.366 . S
C381 C378 1.365 . S
C381 C380 1.366 . S
C381 H395 0.930 . S
C382 C379 1.378 . S
C382 N383 1.315 . S
C382 H385 0.930 . S
N383 Co363 2.194 . S
N383 C378 1.328 . S
N383 C382 1.315 . S
H384 C378 0.929 . S
H385 C382 0.930 . S
H386 C374 0.929 . S
H387 C376 0.929 . S
O388 Co363 2.351 . S
O388 C391 1.244 . S
O389 Co363 2.155 . S
O389 C391 1.240 . S
O390 Co363 2.096 . S
O390 C371 1.247 . S
C391 O388 1.244 . S
C391 O389 1.240 . S
H392 C366 0.931 . S
H393 C375 0.931 . S
H394 C379 0.929 . S
H395 C381 0.930 . S
Co396 N400 2.148 . S
Co396 N406 2.128 . S
Co396 N416 2.194 . S
Co396 O421 2.351 . S
Co396 O422 2.155 . S
Co396 O423 2.096 . S
C397 N400 1.301 . S
C397 N401 1.328 . S
C397 H402 0.930 . S
C398 C399 1.333 . S
C398 N400 1.317 . S
C398 H403 0.930 . S
C399 C398 1.333 . S
C399 N401 1.350 . S
C399 H425 0.931 . S
N400 Co396 2.148 . S
N400 C397 1.301 . S
N400 C398 1.317 . S
N401 C397 1.328 . S
N401 C399 1.350 . S
H402 C397 0.930 . S
H403 C398 0.930 . S
C404 O405 1.224 . S
C404 O423 1.247 . S
O405 C404 1.224 . S
N406 Co396 2.128 . S
N406 C407 1.355 . S
N406 C409 1.311 . S
C407 N406 1.355 . S
C407 C408 1.363 . S
C407 H419 0.929 . S
C408 C407 1.363 . S
C408 N410 1.375 . S
C408 H426 0.931 . S
C409 N406 1.311 . S
C409 N410 1.347 . S
C409 H420 0.929 . S
N410 C408 1.375 . S
N410 C409 1.347 . S
C411 C414 1.365 . S
C411 N416 1.328 . S
C411 H417 0.929 . S
C412 C413 1.362 . S
C412 C415 1.378 . S
C412 H427 0.929 . S
C413 C412 1.362 . S
C413 C414 1.366 . S
C414 C411 1.365 . S
C414 C413 1.366 . S
C414 H428 0.930 . S
C415 C412 1.378 . S
C415 N416 1.315 . S
C415 H418 0.930 . S
N416 Co396 2.194 . S
N416 C411 1.328 . S
N416 C415 1.315 . S
H417 C411 0.929 . S
H418 C415 0.930 . S
H419 C407 0.929 . S
H420 C409 0.929 . S
O421 Co396 2.351 . S
O421 C424 1.244 . S
O422 Co396 2.155 . S
O422 C424 1.240 . S
O423 Co396 2.096 . S
O423 C404 1.247 . S
C424 O421 1.244 . S
C424 O422 1.240 . S
H425 C399 0.931 . S
H426 C408 0.931 . S
H427 C412 0.929 . S
H428 C414 0.930 . S
Co429 N433 2.148 1_554 S
Co429 N439 2.128 . S
Co429 N449 2.194 . S
Co429 O454 2.351 . S
Co429 O455 2.155 . S
Co429 O456 2.096 . S
C430 N433 1.301 . S
C430 N434 1.328 . S
C430 H435 0.930 . S
C431 C432 1.333 . S
C431 N433 1.317 . S
C431 H436 0.930 . S
C432 C431 1.333 . S
C432 N434 1.350 . S
C432 H458 0.931 . S
N433 Co429 2.148 1_556 S
N433 C430 1.301 . S
N433 C431 1.317 . S
N434 C430 1.328 . S
N434 C432 1.350 . S
H435 C430 0.930 . S
H436 C431 0.930 . S
C437 O438 1.224 . S
C437 O456 1.247 . S
O438 C437 1.224 . S
N439 Co429 2.128 . S
N439 C440 1.355 . S
N439 C442 1.311 . S
C440 N439 1.355 . S
C440 C441 1.363 . S
C440 H452 0.929 . S
C441 C440 1.363 . S
C441 N443 1.375 . S
C441 H459 0.931 . S
C442 N439 1.311 . S
C442 N443 1.347 . S
C442 H453 0.929 . S
N443 C441 1.375 . S
N443 C442 1.347 . S
C444 C447 1.365 . S
C444 N449 1.328 . S
C444 H450 0.929 . S
C445 C446 1.362 . S
C445 C448 1.378 . S
C445 H460 0.929 . S
C446 C445 1.362 . S
C446 C447 1.366 . S
C447 C444 1.365 . S
C447 C446 1.366 . S
C447 H461 0.930 . S
C448 C445 1.378 . S
C448 N449 1.315 . S
C448 H451 0.930 . S
N449 Co429 2.194 . S
N449 C444 1.328 . S
N449 C448 1.315 . S
H450 C444 0.929 . S
H451 C448 0.930 . S
H452 C440 0.929 . S
H453 C442 0.929 . S
O454 Co429 2.351 . S
O454 C457 1.244 . S
O455 Co429 2.155 . S
O455 C457 1.240 . S
O456 Co429 2.096 . S
O456 C437 1.247 . S
C457 O454 1.244 . S
C457 O455 1.240 . S
H458 C432 0.931 . S
H459 C441 0.931 . S
H460 C445 0.929 . S
H461 C447 0.930 . S
Co462 N466 2.148 . S
Co462 N472 2.128 . S
Co462 N482 2.194 . S
Co462 O487 2.351 . S
Co462 O488 2.155 . S
Co462 O489 2.096 . S
C463 N466 1.301 . S
C463 N467 1.328 . S
C463 H468 0.930 . S
C464 C465 1.333 . S
C464 N466 1.317 . S
C464 H469 0.930 . S
C465 C464 1.333 . S
C465 N467 1.350 . S
C465 H491 0.931 . S
N466 Co462 2.148 . S
N466 C463 1.301 . S
N466 C464 1.317 . S
N467 C463 1.328 . S
N467 C465 1.350 . S
H468 C463 0.930 . S
H469 C464 0.930 . S
C470 O471 1.224 . S
C470 O489 1.247 . S
O471 C470 1.224 . S
N472 Co462 2.128 . S
N472 C473 1.355 . S
N472 C475 1.311 . S
C473 N472 1.355 . S
C473 C474 1.363 . S
C473 H485 0.929 . S
C474 C473 1.363 . S
C474 N476 1.375 . S
C474 H492 0.931 . S
C475 N472 1.311 . S
C475 N476 1.347 . S
C475 H486 0.929 . S
N476 C474 1.375 . S
N476 C475 1.347 . S
C477 C480 1.365 . S
C477 N482 1.328 . S
C477 H483 0.929 . S
C478 C479 1.362 . S
C478 C481 1.378 . S
C478 H493 0.929 . S
C479 C478 1.362 . S
C479 C480 1.366 . S
C480 C477 1.365 . S
C480 C479 1.366 . S
C480 H494 0.930 . S
C481 C478 1.378 . S
C481 N482 1.315 . S
C481 H484 0.930 . S
N482 Co462 2.194 . S
N482 C477 1.328 . S
N482 C481 1.315 . S
H483 C477 0.929 . S
H484 C481 0.930 . S
H485 C473 0.929 . S
H486 C475 0.929 . S
O487 Co462 2.351 . S
O487 C490 1.244 . S
O488 Co462 2.155 . S
O488 C490 1.240 . S
O489 Co462 2.096 . S
O489 C470 1.247 . S
C490 O487 1.244 . S
C490 O488 1.240 . S
H491 C465 0.931 . S
H492 C474 0.931 . S
H493 C478 0.929 . S
H494 C480 0.930 . S
Co495 N499 2.148 1_556 S
Co495 N505 2.128 . S
Co495 N515 2.194 . S
Co495 O520 2.351 . S
Co495 O521 2.155 . S
Co495 O522 2.096 . S
C496 N499 1.301 . S
C496 N500 1.328 . S
C496 H501 0.930 . S
C497 C498 1.333 . S
C497 N499 1.317 . S
C497 H502 0.930 . S
C498 C497 1.333 . S
C498 N500 1.350 . S
C498 H524 0.931 . S
N499 Co495 2.148 1_554 S
N499 C496 1.301 . S
N499 C497 1.317 . S
N500 C496 1.328 . S
N500 C498 1.350 . S
H501 C496 0.930 . S
H502 C497 0.930 . S
C503 O504 1.224 . S
C503 O522 1.247 . S
O504 C503 1.224 . S
N505 Co495 2.128 . S
N505 C506 1.355 . S
N505 C508 1.311 . S
C506 N505 1.355 . S
C506 C507 1.363 . S
C506 H518 0.929 . S
C507 C506 1.363 . S
C507 N509 1.375 . S
C507 H525 0.931 . S
C508 N505 1.311 . S
C508 N509 1.347 . S
C508 H519 0.929 . S
N509 C507 1.375 . S
N509 C508 1.347 . S
C510 C513 1.365 . S
C510 N515 1.328 . S
C510 H516 0.929 . S
C511 C512 1.362 . S
C511 C514 1.378 . S
C511 H526 0.929 . S
C512 C511 1.362 . S
C512 C513 1.366 . S
C513 C510 1.365 . S
C513 C512 1.366 . S
C513 H527 0.930 . S
C514 C511 1.378 . S
C514 N515 1.315 . S
C514 H517 0.930 . S
N515 Co495 2.194 . S
N515 C510 1.328 . S
N515 C514 1.315 . S
H516 C510 0.929 . S
H517 C514 0.930 . S
H518 C506 0.929 . S
H519 C508 0.929 . S
O520 Co495 2.351 . S
O520 C523 1.244 . S
O521 Co495 2.155 . S
O521 C523 1.240 . S
O522 Co495 2.096 . S
O522 C503 1.247 . S
C523 O520 1.244 . S
C523 O521 1.240 . S
H524 C498 0.931 . S
H525 C507 0.931 . S
H526 C511 0.929 . S
H527 C513 0.930 . S
H528 C536 0.929 . S
H529 C538 0.930 . S
H530 C540 0.930 . S
H531 C543 0.929 . S
H532 C546 0.930 . S
H533 C548 0.960 . S
H534 C548 0.960 . S
H535 C548 0.960 . S
C536 H528 0.929 . S
C536 C537 1.377 . S
C536 C538 1.384 . S
C537 C536 1.377 . S
C537 C543 1.390 . S
C538 H529 0.930 . S
C538 C536 1.384 . S
C538 C539 1.372 . S
C539 C538 1.372 . S
C539 C540 1.400 . S
C539 C544 1.490 . S
C540 H530 0.930 . S
C540 C539 1.400 . S
C540 C543 1.386 . S
H541 C557 0.930 . S
H542 C558 0.931 . S
C543 H531 0.929 . S
C543 C537 1.390 . S
C543 C540 1.386 . S
C544 C539 1.490 . S
C544 C546 1.395 . S
C544 C547 1.403 . S
H545 C551 0.930 . S
C546 H532 0.930 . S
C546 C544 1.395 . S
C546 C549 1.403 . S
C547 C544 1.403 . S
C547 C548 1.524 . S
C547 C551 1.400 . S
C548 H533 0.960 . S
C548 H534 0.960 . S
C548 H535 0.960 . S
C548 C547 1.524 . S
C549 C546 1.403 . S
C549 C550 1.392 . S
C549 C553 1.495 . S
C550 C549 1.392 . S
C550 C551 1.385 . S
C550 C552 1.478 . S
C551 H545 0.930 . S
C551 C547 1.400 . S
C551 C550 1.385 . S
C552 C550 1.478 . S
C552 C554 1.381 . S
C552 C558 1.383 . S
C553 C549 1.495 . S
C553 H559 0.959 . S
C553 H560 0.961 . S
C553 H561 0.960 . S
C554 C552 1.381 . S
C554 C555 1.394 . S
C554 H562 0.930 . S
C555 C554 1.394 . S
C555 C556 1.383 . S
C555 H563 0.929 . S
C556 C555 1.383 . S
C556 C557 1.377 . S
C557 H541 0.930 . S
C557 C556 1.377 . S
C557 C558 1.379 . S
C558 H542 0.931 . S
C558 C552 1.383 . S
C558 C557 1.379 . S
H559 C553 0.959 . S
H560 C553 0.961 . S
H561 C553 0.960 . S
H562 C554 0.930 . S
H563 C555 0.929 . S
H564 C572 0.929 . S
H565 C574 0.930 . S
H566 C576 0.930 . S
H567 C579 0.929 . S
H568 C582 0.930 . S
H569 C584 0.960 . S
H570 C584 0.960 . S
H571 C584 0.960 . S
C572 H564 0.929 . S
C572 C573 1.377 . S
C572 C574 1.384 1_554 S
C573 C572 1.377 . S
C573 C579 1.390 . S
C574 H565 0.930 . S
C574 C572 1.384 1_556 S
C574 C575 1.372 . S
C575 C574 1.372 . S
C575 C576 1.400 . S
C575 C580 1.490 . S
C576 H566 0.930 . S
C576 C575 1.400 . S
C576 C579 1.386 1_556 S
H577 C593 0.930 . S
H578 C594 0.931 . S
C579 H567 0.929 . S
C579 C573 1.390 . S
C579 C576 1.386 1_554 S
C580 C575 1.490 . S
C580 C582 1.395 . S
C580 C583 1.403 . S
H581 C587 0.930 . S
C582 H568 0.930 . S
C582 C580 1.395 . S
C582 C585 1.403 . S
C583 C580 1.403 . S
C583 C584 1.524 . S
C583 C587 1.400 . S
C584 H569 0.960 . S
C584 H570 0.960 . S
C584 H571 0.960 . S
C584 C583 1.524 . S
C585 C582 1.403 . S
C585 C586 1.392 . S
C585 C589 1.495 . S
C586 C585 1.392 . S
C586 C587 1.385 . S
C586 C588 1.478 . S
C587 H581 0.930 . S
C587 C583 1.400 . S
C587 C586 1.385 . S
C588 C586 1.478 . S
C588 C590 1.381 . S
C588 C594 1.383 . S
C589 C585 1.495 . S
C589 H595 0.959 . S
C589 H596 0.961 . S
C589 H597 0.960 . S
C590 C588 1.381 . S
C590 C591 1.394 . S
C590 H598 0.930 . S
C591 C590 1.394 . S
C591 C592 1.383 . S
C591 H599 0.929 . S
C592 C591 1.383 . S
C592 C593 1.377 . S
C593 H577 0.930 . S
C593 C592 1.377 . S
C593 C594 1.379 . S
C594 H578 0.931 . S
C594 C588 1.383 . S
C594 C593 1.379 . S
H595 C589 0.959 . S
H596 C589 0.961 . S
H597 C589 0.960 . S
H598 C590 0.930 . S
H599 C591 0.929 . S
H600 C608 0.929 . S
H601 C610 0.930 . S
H602 C612 0.930 . S
H603 C615 0.929 . S
H604 C618 0.930 . S
H605 C620 0.960 . S
H606 C620 0.960 . S
H607 C620 0.960 . S
C608 H600 0.929 . S
C608 C609 1.377 . S
C608 C610 1.384 . S
C609 C608 1.377 . S
C609 C615 1.390 . S
C610 H601 0.930 . S
C610 C608 1.384 . S
C610 C611 1.372 . S
C611 C610 1.372 . S
C611 C612 1.400 . S
C611 C616 1.490 . S
C612 H602 0.930 . S
C612 C611 1.400 . S
C612 C615 1.386 . S
H613 C629 0.930 . S
H614 C630 0.931 . S
C615 H603 0.929 . S
C615 C609 1.390 . S
C615 C612 1.386 . S
C616 C611 1.490 . S
C616 C618 1.395 . S
C616 C619 1.403 . S
H617 C623 0.930 . S
C618 H604 0.930 . S
C618 C616 1.395 . S
C618 C621 1.403 . S
C619 C616 1.403 . S
C619 C620 1.524 . S
C619 C623 1.400 . S
C620 H605 0.960 . S
C620 H606 0.960 . S
C620 H607 0.960 . S
C620 C619 1.524 . S
C621 C618 1.403 . S
C621 C622 1.392 . S
C621 C625 1.495 . S
C622 C621 1.392 . S
C622 C623 1.385 . S
C622 C624 1.478 1_554 S
C623 H617 0.930 . S
C623 C619 1.400 . S
C623 C622 1.385 . S
C624 C622 1.478 1_556 S
C624 C626 1.381 . S
C624 C630 1.383 . S
C625 C621 1.495 . S
C625 H631 0.959 . S
C625 H632 0.961 . S
C625 H633 0.960 . S
C626 C624 1.381 . S
C626 C627 1.394 . S
C626 H634 0.930 . S
C627 C626 1.394 . S
C627 C628 1.383 . S
C627 H635 0.929 . S
C628 C627 1.383 . S
C628 C629 1.377 . S
C629 H613 0.930 . S
C629 C628 1.377 . S
C629 C630 1.379 . S
C630 H614 0.931 . S
C630 C624 1.383 . S
C630 C629 1.379 . S
H631 C625 0.959 . S
H632 C625 0.961 . S
H633 C625 0.960 . S
H634 C626 0.930 . S
H635 C627 0.929 . S
H636 C644 0.929 . S
H637 C646 0.930 . S
H638 C648 0.930 . S
H639 C651 0.929 . S
H640 C654 0.930 . S
H641 C656 0.960 . S
H642 C656 0.960 . S
H643 C656 0.960 . S
C644 H636 0.929 . S
C644 C645 1.377 . S
C644 C646 1.384 . S
C645 C644 1.377 . S
C645 C651 1.390 . S
C646 H637 0.930 . S
C646 C644 1.384 . S
C646 C647 1.372 . S
C647 C646 1.372 . S
C647 C648 1.400 . S
C647 C652 1.490 . S
C648 H638 0.930 . S
C648 C647 1.400 . S
C648 C651 1.386 . S
H649 C665 0.930 . S
H650 C666 0.931 . S
C651 H639 0.929 . S
C651 C645 1.390 . S
C651 C648 1.386 . S
C652 C647 1.490 . S
C652 C654 1.395 . S
C652 C655 1.403 . S
H653 C659 0.930 . S
C654 H640 0.930 . S
C654 C652 1.395 . S
C654 C657 1.403 . S
C655 C652 1.403 . S
C655 C656 1.524 . S
C655 C659 1.400 . S
C656 H641 0.960 . S
C656 H642 0.960 . S
C656 H643 0.960 . S
C656 C655 1.524 . S
C657 C654 1.403 . S
C657 C658 1.392 . S
C657 C661 1.495 . S
C658 C657 1.392 . S
C658 C659 1.385 . S
C658 C660 1.478 . S
C659 H653 0.930 . S
C659 C655 1.400 . S
C659 C658 1.385 . S
C660 C658 1.478 . S
C660 C662 1.381 . S
C660 C666 1.383 . S
C661 C657 1.495 . S
C661 H667 0.959 . S
C661 H668 0.961 . S
C661 H669 0.960 . S
C662 C660 1.381 . S
C662 C663 1.394 . S
C662 H670 0.930 . S
C663 C662 1.394 . S
C663 C664 1.383 . S
C663 H671 0.929 . S
C664 C663 1.383 . S
C664 C665 1.377 . S
C665 H649 0.930 . S
C665 C664 1.377 . S
C665 C666 1.379 . S
C666 H650 0.931 . S
C666 C660 1.383 . S
C666 C665 1.379 . S
H667 C661 0.959 . S
H668 C661 0.961 . S
H669 C661 0.960 . S
H670 C662 0.930 . S
H671 C663 0.929 . S
H672 C680 0.929 . S
H673 C682 0.930 . S
H674 C684 0.930 . S
H675 C687 0.929 . S
H676 C690 0.930 . S
H677 C692 0.960 . S
H678 C692 0.960 . S
H679 C692 0.960 . S
C680 H672 0.929 . S
C680 C681 1.377 . S
C680 C682 1.384 . S
C681 C680 1.377 . S
C681 C687 1.390 . S
C682 H673 0.930 . S
C682 C680 1.384 . S
C682 C683 1.372 . S
C683 C682 1.372 . S
C683 C684 1.400 . S
C683 C688 1.490 . S
C684 H674 0.930 . S
C684 C683 1.400 . S
C684 C687 1.386 . S
H685 C701 0.930 . S
H686 C702 0.931 . S
C687 H675 0.929 . S
C687 C681 1.390 . S
C687 C684 1.386 . S
C688 C683 1.490 . S
C688 C690 1.395 . S
C688 C691 1.403 . S
H689 C695 0.930 . S
C690 H676 0.930 . S
C690 C688 1.395 . S
C690 C693 1.403 . S
C691 C688 1.403 . S
C691 C692 1.524 . S
C691 C695 1.400 . S
C692 H677 0.960 . S
C692 H678 0.960 . S
C692 H679 0.960 . S
C692 C691 1.524 . S
C693 C690 1.403 . S
C693 C694 1.392 . S
C693 C697 1.495 . S
C694 C693 1.392 . S
C694 C695 1.385 . S
C694 C696 1.478 . S
C695 H689 0.930 . S
C695 C691 1.400 . S
C695 C694 1.385 . S
C696 C694 1.478 . S
C696 C698 1.381 . S
C696 C702 1.383 . S
C697 C693 1.495 . S
C697 H703 0.959 . S
C697 H704 0.961 . S
C697 H705 0.960 . S
C698 C696 1.381 . S
C698 C699 1.394 . S
C698 H706 0.930 . S
C699 C698 1.394 . S
C699 C700 1.383 . S
C699 H707 0.929 . S
C700 C699 1.383 . S
C700 C701 1.377 . S
C701 H685 0.930 . S
C701 C700 1.377 . S
C701 C702 1.379 . S
C702 H686 0.931 . S
C702 C696 1.383 . S
C702 C701 1.379 . S
H703 C697 0.959 . S
H704 C697 0.961 . S
H705 C697 0.960 . S
H706 C698 0.930 . S
H707 C699 0.929 . S
H708 C716 0.929 . S
H709 C718 0.930 . S
H710 C720 0.930 . S
H711 C723 0.929 . S
H712 C726 0.930 . S
H713 C728 0.960 . S
H714 C728 0.960 . S
H715 C728 0.960 . S
C716 H708 0.929 . S
C716 C717 1.377 . S
C716 C718 1.384 . S
C717 C716 1.377 . S
C717 C723 1.390 . S
C718 H709 0.930 . S
C718 C716 1.384 . S
C718 C719 1.372 . S
C719 C718 1.372 . S
C719 C720 1.400 . S
C719 C724 1.490 . S
C720 H710 0.930 . S
C720 C719 1.400 . S
C720 C723 1.386 . S
H721 C737 0.930 . S
H722 C738 0.931 . S
C723 H711 0.929 . S
C723 C717 1.390 . S
C723 C720 1.386 . S
C724 C719 1.490 . S
C724 C726 1.395 . S
C724 C727 1.403 . S
H725 C731 0.930 . S
C726 H712 0.930 . S
C726 C724 1.395 . S
C726 C729 1.403 . S
C727 C724 1.403 . S
C727 C728 1.524 . S
C727 C731 1.400 . S
C728 H713 0.960 . S
C728 H714 0.960 . S
C728 H715 0.960 . S
C728 C727 1.524 . S
C729 C726 1.403 . S
C729 C730 1.392 . S
C729 C733 1.495 . S
C730 C729 1.392 . S
C730 C731 1.385 . S
C730 C732 1.478 . S
C731 H725 0.930 . S
C731 C727 1.400 . S
C731 C730 1.385 . S
C732 C730 1.478 . S
C732 C734 1.381 . S
C732 C738 1.383 . S
C733 C729 1.495 . S
C733 H739 0.959 . S
C733 H740 0.961 . S
C733 H741 0.960 . S
C734 C732 1.381 . S
C734 C735 1.394 . S
C734 H742 0.930 . S
C735 C734 1.394 . S
C735 C736 1.383 . S
C735 H743 0.929 . S
C736 C735 1.383 . S
C736 C737 1.377 . S
C737 H721 0.930 . S
C737 C736 1.377 . S
C737 C738 1.379 . S
C738 H722 0.931 . S
C738 C732 1.383 . S
C738 C737 1.379 . S
H739 C733 0.959 . S
H740 C733 0.961 . S
H741 C733 0.960 . S
H742 C734 0.930 . S
H743 C735 0.929 . S
H744 C752 0.929 . S
H745 C754 0.930 . S
H746 C756 0.930 . S
H747 C759 0.929 . S
H748 C762 0.930 . S
H749 C764 0.960 . S
H750 C764 0.960 . S
H751 C764 0.960 . S
C752 H744 0.929 . S
C752 C753 1.377 . S
C752 C754 1.384 . S
C753 C752 1.377 . S
C753 C759 1.390 . S
C754 H745 0.930 . S
C754 C752 1.384 . S
C754 C755 1.372 . S
C755 C754 1.372 . S
C755 C756 1.400 . S
C755 C760 1.490 . S
C756 H746 0.930 . S
C756 C755 1.400 . S
C756 C759 1.386 . S
H757 C773 0.930 . S
H758 C774 0.931 . S
C759 H747 0.929 . S
C759 C753 1.390 . S
C759 C756 1.386 . S
C760 C755 1.490 . S
C760 C762 1.395 . S
C760 C763 1.403 . S
H761 C767 0.930 . S
C762 H748 0.930 . S
C762 C760 1.395 . S
C762 C765 1.403 . S
C763 C760 1.403 . S
C763 C764 1.524 . S
C763 C767 1.400 . S
C764 H749 0.960 . S
C764 H750 0.960 . S
C764 H751 0.960 . S
C764 C763 1.524 . S
C765 C762 1.403 . S
C765 C766 1.392 . S
C765 C769 1.495 . S
C766 C765 1.392 . S
C766 C767 1.385 . S
C766 C768 1.478 1_556 S
C767 H761 0.930 . S
C767 C763 1.400 . S
C767 C766 1.385 . S
C768 C766 1.478 1_554 S
C768 C770 1.381 . S
C768 C774 1.383 . S
C769 C765 1.495 . S
C769 H775 0.959 . S
C769 H776 0.961 . S
C769 H777 0.960 . S
C770 C768 1.381 . S
C770 C771 1.394 . S
C770 H778 0.930 . S
C771 C770 1.394 . S
C771 C772 1.383 . S
C771 H779 0.929 . S
C772 C771 1.383 . S
C772 C773 1.377 . S
C773 H757 0.930 . S
C773 C772 1.377 . S
C773 C774 1.379 . S
C774 H758 0.931 . S
C774 C768 1.383 . S
C774 C773 1.379 . S
H775 C769 0.959 . S
H776 C769 0.961 . S
H777 C769 0.960 . S
H778 C770 0.930 . S
H779 C771 0.929 . S
H780 C788 0.929 . S
H781 C790 0.930 . S
H782 C792 0.930 . S
H783 C795 0.929 . S
H784 C798 0.930 . S
H785 C800 0.960 . S
H786 C800 0.960 . S
H787 C800 0.960 . S
C788 H780 0.929 . S
C788 C789 1.377 . S
C788 C790 1.384 . S
C789 C788 1.377 . S
C789 C795 1.390 . S
C790 H781 0.930 . S
C790 C788 1.384 . S
C790 C791 1.372 . S
C791 C790 1.372 . S
C791 C792 1.400 . S
C791 C796 1.490 . S
C792 H782 0.930 . S
C792 C791 1.400 . S
C792 C795 1.386 . S
H793 C809 0.930 . S
H794 C810 0.931 . S
C795 H783 0.929 . S
C795 C789 1.390 . S
C795 C792 1.386 . S
C796 C791 1.490 . S
C796 C798 1.395 . S
C796 C799 1.403 . S
H797 C803 0.930 . S
C798 H784 0.930 . S
C798 C796 1.395 . S
C798 C801 1.403 . S
C799 C796 1.403 . S
C799 C800 1.524 . S
C799 C803 1.400 . S
C800 H785 0.960 . S
C800 H786 0.960 . S
C800 H787 0.960 . S
C800 C799 1.524 . S
C801 C798 1.403 . S
C801 C802 1.392 . S
C801 C805 1.495 . S
C802 C801 1.392 . S
C802 C803 1.385 . S
C802 C804 1.478 . S
C803 H797 0.930 . S
C803 C799 1.400 . S
C803 C802 1.385 . S
C804 C802 1.478 . S
C804 C806 1.384 . S
C804 C810 1.383 . S
C805 C801 1.495 . S
C805 H811 0.959 . S
C805 H812 0.961 . S
C805 H813 0.960 . S
C806 C804 1.384 . S
C806 C807 1.389 1_554 S
C806 H814 0.933 . S
C807 C806 1.389 1_556 S
C807 C808 1.383 . S
C807 H815 0.929 . S
C808 C807 1.383 . S
C808 C809 1.377 . S
C809 H793 0.930 . S
C809 C808 1.377 . S
C809 C810 1.379 1_556 S
C810 H794 0.931 . S
C810 C804 1.383 . S
C810 C809 1.379 1_554 S
H811 C805 0.959 . S
H812 C805 0.961 . S
H813 C805 0.960 . S
H814 C806 0.933 . S
H815 C807 0.929 . S
H816 C824 0.929 . S
H817 C826 0.930 . S
H818 C828 0.930 . S
H819 C831 0.929 . S
H820 C834 0.930 . S
H821 C836 0.960 . S
H822 C836 0.960 . S
H823 C836 0.960 . S
C824 H816 0.929 . S
C824 C825 1.377 . S
C824 C826 1.384 . S
C825 C824 1.377 . S
C825 C831 1.390 . S
C826 H817 0.930 . S
C826 C824 1.384 . S
C826 C827 1.372 . S
C827 C826 1.372 . S
C827 C828 1.400 . S
C827 C832 1.490 . S
C828 H818 0.930 . S
C828 C827 1.400 . S
C828 C831 1.386 . S
H829 C845 0.930 . S
H830 C846 0.931 . S
C831 H819 0.929 . S
C831 C825 1.390 . S
C831 C828 1.386 . S
C832 C827 1.490 . S
C832 C834 1.395 . S
C832 C835 1.403 . S
H833 C839 0.930 . S
C834 H820 0.930 . S
C834 C832 1.395 . S
C834 C837 1.403 . S
C835 C832 1.403 . S
C835 C836 1.524 . S
C835 C839 1.400 . S
C836 H821 0.960 . S
C836 H822 0.960 . S
C836 H823 0.960 . S
C836 C835 1.524 . S
C837 C834 1.403 . S
C837 C838 1.392 . S
C837 C841 1.495 . S
C838 C837 1.392 . S
C838 C839 1.385 . S
C838 C840 1.478 . S
C839 H833 0.930 . S
C839 C835 1.400 . S
C839 C838 1.385 . S
C840 C838 1.478 . S
C840 C842 1.381 . S
C840 C846 1.383 . S
C841 C837 1.495 . S
C841 H847 0.959 . S
C841 H848 0.961 . S
C841 H849 0.960 . S
C842 C840 1.381 . S
C842 C843 1.394 1_554 S
C842 H850 0.930 . S
C843 C842 1.394 1_556 S
C843 C844 1.383 . S
C843 H851 0.929 . S
C844 C843 1.383 . S
C844 C845 1.377 . S
C845 H829 0.930 . S
C845 C844 1.377 . S
C845 C846 1.379 1_556 S
C846 H830 0.931 . S
C846 C840 1.383 . S
C846 C845 1.379 1_554 S
H847 C841 0.959 . S
H848 C841 0.961 . S
H849 C841 0.960 . S
H850 C842 0.930 . S
H851 C843 0.929 . S
H852 C860 0.929 . S
H853 C862 0.930 . S
H854 C864 0.930 . S
H855 C867 0.929 . S
H856 C870 0.930 . S
H857 C872 0.960 . S
H858 C872 0.960 . S
H859 C872 0.960 . S
C860 H852 0.929 . S
C860 C861 1.377 . S
C860 C862 1.384 . S
C861 C860 1.377 . S
C861 C867 1.390 . S
C862 H853 0.930 . S
C862 C860 1.384 . S
C862 C863 1.372 . S
C863 C862 1.372 . S
C863 C864 1.400 . S
C863 C868 1.490 . S
C864 H854 0.930 . S
C864 C863 1.400 . S
C864 C867 1.386 . S
H865 C881 0.930 . S
H866 C882 0.931 . S
C867 H855 0.929 . S
C867 C861 1.390 . S
C867 C864 1.386 . S
C868 C863 1.490 . S
C868 C870 1.395 . S
C868 C871 1.403 . S
H869 C875 0.930 . S
C870 H856 0.930 . S
C870 C868 1.395 . S
C870 C873 1.403 . S
C871 C868 1.403 . S
C871 C872 1.524 . S
C871 C875 1.400 . S
C872 H857 0.960 . S
C872 H858 0.960 . S
C872 H859 0.960 . S
C872 C871 1.524 . S
C873 C870 1.403 . S
C873 C874 1.392 . S
C873 C877 1.495 . S
C874 C873 1.392 . S
C874 C875 1.385 . S
C874 C876 1.478 . S
C875 H869 0.930 . S
C875 C871 1.400 . S
C875 C874 1.385 . S
C876 C874 1.478 . S
C876 C878 1.381 . S
C876 C882 1.383 . S
C877 C873 1.495 . S
C877 H883 0.959 . S
C877 H884 0.961 . S
C877 H885 0.960 . S
C878 C876 1.381 . S
C878 C879 1.394 . S
C878 H886 0.930 . S
C879 C878 1.394 . S
C879 C880 1.383 . S
C879 H887 0.929 . S
C880 C879 1.383 . S
C880 C881 1.377 . S
C881 H865 0.930 . S
C881 C880 1.377 . S
C881 C882 1.379 . S
C882 H866 0.931 . S
C882 C876 1.383 . S
C882 C881 1.379 . S
H883 C877 0.959 . S
H884 C877 0.961 . S
H885 C877 0.960 . S
H886 C878 0.930 . S
H887 C879 0.929 . S
H888 C896 0.929 . S
H889 C898 0.930 . S
H890 C900 0.930 . S
H891 C903 0.929 . S
H892 C906 0.930 . S
H893 C908 0.960 . S
H894 C908 0.960 . S
H895 C908 0.960 . S
C896 H888 0.929 . S
C896 C897 1.377 . S
C896 C898 1.384 . S
C897 C896 1.377 . S
C897 C903 1.390 . S
C898 H889 0.930 . S
C898 C896 1.384 . S
C898 C899 1.372 . S
C899 C898 1.372 . S
C899 C900 1.400 . S
C899 C904 1.490 . S
C900 H890 0.930 . S
C900 C899 1.400 . S
C900 C903 1.386 . S
H901 C917 0.930 . S
H902 C918 0.931 . S
C903 H891 0.929 . S
C903 C897 1.390 . S
C903 C900 1.386 . S
C904 C899 1.490 . S
C904 C906 1.395 . S
C904 C907 1.403 . S
H905 C911 0.930 . S
C906 H892 0.930 . S
C906 C904 1.395 . S
C906 C909 1.403 . S
C907 C904 1.403 . S
C907 C908 1.524 . S
C907 C911 1.400 . S
C908 H893 0.960 . S
C908 H894 0.960 . S
C908 H895 0.960 . S
C908 C907 1.524 . S
C909 C906 1.403 . S
C909 C910 1.392 . S
C909 C913 1.495 . S
C910 C909 1.392 . S
C910 C911 1.385 . S
C910 C912 1.478 . S
C911 H905 0.930 . S
C911 C907 1.400 . S
C911 C910 1.385 . S
C912 C910 1.478 . S
C912 C914 1.381 . S
C912 C918 1.383 . S
C913 C909 1.495 . S
C913 H919 0.959 . S
C913 H920 0.961 . S
C913 H921 0.960 . S
C914 C912 1.381 . S
C914 C915 1.394 . S
C914 H922 0.930 . S
C915 C914 1.394 . S
C915 C916 1.383 . S
C915 H923 0.929 . S
C916 C915 1.383 . S
C916 C917 1.377 . S
C917 H901 0.930 . S
C917 C916 1.377 . S
C917 C918 1.379 . S
C918 H902 0.931 . S
C918 C912 1.383 . S
C918 C917 1.379 . S
H919 C913 0.959 . S
H920 C913 0.961 . S
H921 C913 0.960 . S
H922 C914 0.930 . S
H923 C915 0.929 . S
H924 C932 0.929 . S
H925 C934 0.930 . S
H926 C936 0.930 . S
H927 C939 0.929 . S
H928 C942 0.930 . S
H929 C944 0.960 . S
H930 C944 0.960 . S
H931 C944 0.960 . S
C932 H924 0.929 . S
C932 C933 1.377 . S
C932 C934 1.384 . S
C933 C932 1.377 . S
C933 C939 1.390 . S
C934 H925 0.930 . S
C934 C932 1.384 . S
C934 C935 1.372 . S
C935 C934 1.372 . S
C935 C936 1.400 . S
C935 C940 1.490 . S
C936 H926 0.930 . S
C936 C935 1.400 . S
C936 C939 1.386 . S
H937 C953 0.930 . S
H938 C954 0.931 . S
C939 H927 0.929 . S
C939 C933 1.390 . S
C939 C936 1.386 . S
C940 C935 1.490 . S
C940 C942 1.395 . S
C940 C943 1.403 . S
H941 C947 0.930 . S
C942 H928 0.930 . S
C942 C940 1.395 . S
C942 C945 1.403 . S
C943 C940 1.403 . S
C943 C944 1.524 . S
C943 C947 1.400 . S
C944 H929 0.960 . S
C944 H930 0.960 . S
C944 H931 0.960 . S
C944 C943 1.524 . S
C945 C942 1.403 . S
C945 C946 1.392 . S
C945 C949 1.495 . S
C946 C945 1.392 . S
C946 C947 1.385 . S
C946 C948 1.478 . S
C947 H941 0.930 . S
C947 C943 1.400 . S
C947 C946 1.385 . S
C948 C946 1.478 . S
C948 C950 1.384 . S
C948 C954 1.383 . S
C949 C945 1.495 . S
C949 H955 0.959 . S
C949 H956 0.961 . S
C949 H957 0.960 . S
C950 C948 1.384 . S
C950 C951 1.389 1_556 S
C950 H958 0.933 . S
C951 C950 1.389 1_554 S
C951 C952 1.383 . S
C951 H959 0.929 . S
C952 C951 1.383 . S
C952 C953 1.377 . S
C953 H937 0.930 . S
C953 C952 1.377 . S
C953 C954 1.379 1_554 S
C954 H938 0.931 . S
C954 C948 1.383 . S
C954 C953 1.379 1_556 S
H955 C949 0.959 . S
H956 C949 0.961 . S
H957 C949 0.960 . S
H958 C950 0.933 . S
H959 C951 0.929 . S
H960 C968 0.929 . S
H961 C970 0.930 . S
H962 C972 0.930 . S
H963 C975 0.929 . S
H964 C978 0.930 . S
H965 C980 0.960 . S
H966 C980 0.960 . S
H967 C980 0.960 . S
C968 H960 0.929 . S
C968 C969 1.377 . S
C968 C970 1.384 . S
C969 C968 1.377 . S
C969 C975 1.390 . S
C970 H961 0.930 . S
C970 C968 1.384 . S
C970 C971 1.372 . S
C971 C970 1.372 . S
C971 C972 1.400 . S
C971 C976 1.490 1_556 S
C972 H962 0.930 . S
C972 C971 1.400 . S
C972 C975 1.386 . S
H973 C989 0.930 . S
H974 C990 0.931 . S
C975 H963 0.929 . S
C975 C969 1.390 . S
C975 C972 1.386 . S
C976 C971 1.490 1_554 S
C976 C978 1.395 . S
C976 C979 1.403 . S
H977 C983 0.930 . S
C978 H964 0.930 . S
C978 C976 1.395 . S
C978 C981 1.403 . S
C979 C976 1.403 . S
C979 C980 1.524 . S
C979 C983 1.400 . S
C980 H965 0.960 . S
C980 H966 0.960 . S
C980 H967 0.960 . S
C980 C979 1.524 . S
C981 C978 1.403 . S
C981 C982 1.392 . S
C981 C985 1.495 . S
C982 C981 1.392 . S
C982 C983 1.385 . S
C982 C984 1.478 . S
C983 H977 0.930 . S
C983 C979 1.400 . S
C983 C982 1.385 . S
C984 C982 1.478 . S
C984 C986 1.381 . S
C984 C990 1.383 . S
C985 C981 1.495 . S
C985 H991 0.959 . S
C985 H992 0.961 . S
C985 H993 0.960 . S
C986 C984 1.381 . S
C986 C987 1.394 . S
C986 H994 0.930 . S
C987 C986 1.394 . S
C987 C988 1.383 . S
C987 H995 0.929 . S
C988 C987 1.383 . S
C988 C989 1.377 . S
C989 H973 0.930 . S
C989 C988 1.377 . S
C989 C990 1.379 . S
C990 H974 0.931 . S
C990 C984 1.383 . S
C990 C989 1.379 . S
H991 C985 0.959 . S
H992 C985 0.961 . S
H993 C985 0.960 . S
H994 C986 0.930 . S
H995 C987 0.929 . S
H996 C1004 0.929 . S
H997 C1006 0.930 . S
H998 C1008 0.930 . S
H999 C1011 0.929 . S
H1000 C1014 0.930 . S
H1001 C1016 0.960 . S
H1002 C1016 0.960 . S
H1003 C1016 0.960 . S
C1004 H996 0.929 . S
C1004 C1005 1.377 . S
C1004 C1006 1.384 . S
C1005 C1004 1.377 . S
C1005 C1011 1.390 . S
C1006 H997 0.930 . S
C1006 C1004 1.384 . S
C1006 C1007 1.372 . S
C1007 C1006 1.372 . S
C1007 C1008 1.400 . S
C1007 C1012 1.490 . S
C1008 H998 0.930 . S
C1008 C1007 1.400 . S
C1008 C1011 1.386 . S
H1009 C1025 0.930 . S
H1010 C1026 0.931 . S
C1011 H999 0.929 . S
C1011 C1005 1.390 . S
C1011 C1008 1.386 . S
C1012 C1007 1.490 . S
C1012 C1014 1.395 . S
C1012 C1015 1.403 . S
H1013 C1019 0.930 . S
C1014 H1000 0.930 . S
C1014 C1012 1.395 . S
C1014 C1017 1.403 . S
C1015 C1012 1.403 . S
C1015 C1016 1.524 . S
C1015 C1019 1.400 . S
C1016 H1001 0.960 . S
C1016 H1002 0.960 . S
C1016 H1003 0.960 . S
C1016 C1015 1.524 . S
C1017 C1014 1.403 . S
C1017 C1018 1.392 . S
C1017 C1021 1.495 . S
C1018 C1017 1.392 . S
C1018 C1019 1.385 . S
C1018 C1020 1.478 . S
C1019 H1013 0.930 . S
C1019 C1015 1.400 . S
C1019 C1018 1.385 . S
C1020 C1018 1.478 . S
C1020 C1022 1.381 . S
C1020 C1026 1.383 . S
C1021 C1017 1.495 . S
C1021 H1027 0.959 . S
C1021 H1028 0.961 . S
C1021 H1029 0.960 . S
C1022 C1020 1.381 . S
C1022 C1023 1.394 . S
C1022 H1030 0.930 . S
C1023 C1022 1.394 . S
C1023 C1024 1.383 . S
C1023 H1031 0.929 . S
C1024 C1023 1.383 . S
C1024 C1025 1.377 . S
C1025 H1009 0.930 . S
C1025 C1024 1.377 . S
C1025 C1026 1.379 . S
C1026 H1010 0.931 . S
C1026 C1020 1.383 . S
C1026 C1025 1.379 . S
H1027 C1021 0.959 . S
H1028 C1021 0.961 . S
H1029 C1021 0.960 . S
H1030 C1022 0.930 . S
H1031 C1023 0.929 . S
H1032 C1040 0.929 . S
H1033 C1042 0.930 . S
H1034 C1044 0.930 . S
H1035 C1047 0.929 . S
H1036 C1050 0.930 . S
H1037 C1052 0.960 . S
H1038 C1052 0.960 . S
H1039 C1052 0.960 . S
C1040 H1032 0.929 . S
C1040 C1041 1.377 . S
C1040 C1042 1.384 . S
C1041 C1040 1.377 . S
C1041 C1047 1.390 . S
C1042 H1033 0.930 . S
C1042 C1040 1.384 . S
C1042 C1043 1.372 . S
C1043 C1042 1.372 . S
C1043 C1044 1.400 . S
C1043 C1048 1.490 1_554 S
C1044 H1034 0.930 . S
C1044 C1043 1.400 . S
C1044 C1047 1.386 . S
H1045 C1061 0.930 . S
H1046 C1062 0.931 . S
C1047 H1035 0.929 . S
C1047 C1041 1.390 . S
C1047 C1044 1.386 . S
C1048 C1043 1.490 1_556 S
C1048 C1050 1.395 . S
C1048 C1051 1.403 . S
H1049 C1055 0.930 . S
C1050 H1036 0.930 . S
C1050 C1048 1.395 . S
C1050 C1053 1.403 . S
C1051 C1048 1.403 . S
C1051 C1052 1.524 . S
C1051 C1055 1.400 . S
C1052 H1037 0.960 . S
C1052 H1038 0.960 . S
C1052 H1039 0.960 . S
C1052 C1051 1.524 . S
C1053 C1050 1.403 . S
C1053 C1054 1.392 . S
C1053 C1057 1.495 . S
C1054 C1053 1.392 . S
C1054 C1055 1.385 . S
C1054 C1056 1.478 . S
C1055 H1049 0.930 . S
C1055 C1051 1.400 . S
C1055 C1054 1.385 . S
C1056 C1054 1.478 . S
C1056 C1058 1.381 . S
C1056 C1062 1.383 . S
C1057 C1053 1.495 . S
C1057 H1063 0.959 . S
C1057 H1064 0.961 . S
C1057 H1065 0.960 . S
C1058 C1056 1.381 . S
C1058 C1059 1.394 . S
C1058 H1066 0.930 . S
C1059 C1058 1.394 . S
C1059 C1060 1.383 . S
C1059 H1067 0.929 . S
C1060 C1059 1.383 . S
C1060 C1061 1.377 . S
C1061 H1045 0.930 . S
C1061 C1060 1.377 . S
C1061 C1062 1.379 . S
C1062 H1046 0.931 . S
C1062 C1056 1.383 . S
C1062 C1061 1.379 . S
H1063 C1057 0.959 . S
H1064 C1057 0.961 . S
H1065 C1057 0.960 . S
H1066 C1058 0.930 . S
H1067 C1059 0.929 . S
H1068 C1076 0.929 . S
H1069 C1078 0.930 . S
H1070 C1080 0.930 . S
H1071 C1083 0.929 . S
H1072 C1086 0.930 . S
H1073 C1088 0.960 . S
H1074 C1088 0.960 . S
H1075 C1088 0.960 . S
C1076 H1068 0.929 . S
C1076 C1077 1.377 . S
C1076 C1078 1.384 . S
C1077 C1076 1.377 . S
C1077 C1083 1.390 . S
C1078 H1069 0.930 . S
C1078 C1076 1.384 . S
C1078 C1079 1.372 . S
C1079 C1078 1.372 . S
C1079 C1080 1.400 . S
C1079 C1084 1.490 . S
C1080 H1070 0.930 . S
C1080 C1079 1.400 . S
C1080 C1083 1.386 . S
H1081 C1097 0.930 . S
H1082 C1098 0.931 . S
C1083 H1071 0.929 . S
C1083 C1077 1.390 . S
C1083 C1080 1.386 . S
C1084 C1079 1.490 . S
C1084 C1086 1.395 . S
C1084 C1087 1.403 . S
H1085 C1091 0.930 . S
C1086 H1072 0.930 . S
C1086 C1084 1.395 . S
C1086 C1089 1.403 . S
C1087 C1084 1.403 . S
C1087 C1088 1.524 . S
C1087 C1091 1.400 . S
C1088 H1073 0.960 . S
C1088 H1074 0.960 . S
C1088 H1075 0.960 . S
C1088 C1087 1.524 . S
C1089 C1086 1.403 . S
C1089 C1090 1.392 . S
C1089 C1093 1.495 . S
C1090 C1089 1.392 . S
C1090 C1091 1.385 . S
C1090 C1092 1.478 . S
C1091 H1085 0.930 . S
C1091 C1087 1.400 . S
C1091 C1090 1.385 . S
C1092 C1090 1.478 . S
C1092 C1094 1.381 . S
C1092 C1098 1.383 . S
C1093 C1089 1.495 . S
C1093 H1099 0.959 . S
C1093 H1100 0.961 . S
C1093 H1101 0.960 . S
C1094 C1092 1.381 . S
C1094 C1095 1.394 . S
C1094 H1102 0.930 . S
C1095 C1094 1.394 . S
C1095 C1096 1.383 . S
C1095 H1103 0.929 . S
C1096 C1095 1.383 . S
C1096 C1097 1.377 . S
C1097 H1081 0.930 . S
C1097 C1096 1.377 . S
C1097 C1098 1.379 . S
C1098 H1082 0.931 . S
C1098 C1092 1.383 . S
C1098 C1097 1.379 . S
H1099 C1093 0.959 . S
H1100 C1093 0.961 . S
H1101 C1093 0.960 . S
H1102 C1094 0.930 . S
H1103 C1095 0.929 . S
H1104 C1112 0.929 . S
H1105 C1114 0.930 . S
H1106 C1116 0.930 1_556 S
H1107 C1119 0.929 . S
H1108 C1122 0.930 . S
H1109 C1124 0.960 . S
H1110 C1124 0.960 . S
H1111 C1124 0.960 . S
C1112 H1104 0.929 . S
C1112 C1113 1.377 . S
C1112 C1114 1.384 . S
C1113 C1112 1.377 . S
C1113 C1119 1.390 . S
C1114 H1105 0.930 . S
C1114 C1112 1.384 . S
C1114 C1115 1.372 . S
C1115 C1114 1.372 . S
C1115 C1116 1.400 . S
C1115 C1120 1.490 . S
C1116 H1106 0.930 1_554 S
C1116 C1115 1.400 . S
C1116 C1119 1.386 . S
H1117 C1133 0.930 . S
H1118 C1134 0.931 . S
C1119 H1107 0.929 . S
C1119 C1113 1.390 . S
C1119 C1116 1.386 . S
C1120 C1115 1.490 . S
C1120 C1122 1.395 1_554 S
C1120 C1123 1.403 . S
H1121 C1127 0.930 . S
C1122 H1108 0.930 . S
C1122 C1120 1.395 1_556 S
C1122 C1125 1.403 . S
C1123 C1120 1.403 . S
C1123 C1124 1.524 . S
C1123 C1127 1.400 . S
C1124 H1109 0.960 . S
C1124 H1110 0.960 . S
C1124 H1111 0.960 . S
C1124 C1123 1.524 . S
C1125 C1122 1.403 . S
C1125 C1126 1.392 . S
C1125 C1129 1.495 . S
C1126 C1125 1.392 . S
C1126 C1127 1.385 1_556 S
C1126 C1128 1.478 . S
C1127 H1121 0.930 . S
C1127 C1123 1.400 . S
C1127 C1126 1.385 1_554 S
C1128 C1126 1.478 . S
C1128 C1130 1.381 . S
C1128 C1134 1.383 . S
C1129 C1125 1.495 . S
C1129 H1135 0.959 . S
C1129 H1136 0.961 . S
C1129 H1137 0.960 . S
C1130 C1128 1.381 . S
C1130 C1131 1.394 . S
C1130 H1138 0.930 1_556 S
C1131 C1130 1.394 . S
C1131 C1132 1.383 . S
C1131 H1139 0.932 . S
C1132 C1131 1.383 . S
C1132 C1133 1.377 . S
C1133 H1117 0.930 . S
C1133 C1132 1.377 . S
C1133 C1134 1.379 . S
C1134 H1118 0.931 . S
C1134 C1128 1.383 . S
C1134 C1133 1.379 . S
H1135 C1129 0.959 . S
H1136 C1129 0.961 . S
H1137 C1129 0.960 . S
H1138 C1130 0.930 1_554 S
H1139 C1131 0.932 . S
H1140 C1148 0.929 . S
H1141 C1150 0.930 . S
H1142 C1152 0.930 . S
H1143 C1155 0.929 . S
H1144 C1158 0.930 . S
H1145 C1160 0.960 . S
H1146 C1160 0.960 . S
H1147 C1160 0.960 . S
C1148 H1140 0.929 . S
C1148 C1149 1.377 . S
C1148 C1150 1.384 . S
C1149 C1148 1.377 . S
C1149 C1155 1.390 . S
C1150 H1141 0.930 . S
C1150 C1148 1.384 . S
C1150 C1151 1.372 . S
C1151 C1150 1.372 . S
C1151 C1152 1.400 . S
C1151 C1156 1.490 . S
C1152 H1142 0.930 . S
C1152 C1151 1.400 . S
C1152 C1155 1.386 . S
H1153 C1169 0.930 . S
H1154 C1170 0.931 . S
C1155 H1143 0.929 . S
C1155 C1149 1.390 . S
C1155 C1152 1.386 . S
C1156 C1151 1.490 . S
C1156 C1158 1.395 . S
C1156 C1159 1.403 . S
H1157 C1163 0.930 . S
C1158 H1144 0.930 . S
C1158 C1156 1.395 . S
C1158 C1161 1.403 . S
C1159 C1156 1.403 . S
C1159 C1160 1.524 . S
C1159 C1163 1.400 . S
C1160 H1145 0.960 . S
C1160 H1146 0.960 . S
C1160 H1147 0.960 . S
C1160 C1159 1.524 . S
C1161 C1158 1.403 . S
C1161 C1162 1.392 . S
C1161 C1165 1.495 . S
C1162 C1161 1.392 . S
C1162 C1163 1.385 . S
C1162 C1164 1.478 . S
C1163 H1157 0.930 . S
C1163 C1159 1.400 . S
C1163 C1162 1.385 . S
C1164 C1162 1.478 . S
C1164 C1166 1.381 . S
C1164 C1170 1.383 . S
C1165 C1161 1.495 . S
C1165 H1171 0.959 . S
C1165 H1172 0.961 . S
C1165 H1173 0.960 . S
C1166 C1164 1.381 . S
C1166 C1167 1.394 . S
C1166 H1174 0.930 . S
C1167 C1166 1.394 . S
C1167 C1168 1.383 . S
C1167 H1175 0.929 . S
C1168 C1167 1.383 . S
C1168 C1169 1.377 . S
C1169 H1153 0.930 . S
C1169 C1168 1.377 . S
C1169 C1170 1.379 . S
C1170 H1154 0.931 . S
C1170 C1164 1.383 . S
C1170 C1169 1.379 . S
H1171 C1165 0.959 . S
H1172 C1165 0.961 . S
H1173 C1165 0.960 . S
H1174 C1166 0.930 . S
H1175 C1167 0.929 . S
H1176 C1184 0.929 . S
H1177 C1186 0.930 . S
H1178 C1188 0.930 . S
H1179 C1191 0.929 . S
H1180 C1194 0.930 . S
H1181 C1196 0.960 . S
H1182 C1196 0.960 . S
H1183 C1196 0.960 . S
C1184 H1176 0.929 . S
C1184 C1185 1.377 . S
C1184 C1186 1.384 . S
C1185 C1184 1.377 . S
C1185 C1191 1.390 . S
C1186 H1177 0.930 . S
C1186 C1184 1.384 . S
C1186 C1187 1.372 . S
C1187 C1186 1.372 . S
C1187 C1188 1.400 . S
C1187 C1192 1.490 . S
C1188 H1178 0.930 . S
C1188 C1187 1.400 . S
C1188 C1191 1.386 . S
H1189 C1205 0.930 . S
H1190 C1206 0.931 . S
C1191 H1179 0.929 . S
C1191 C1185 1.390 . S
C1191 C1188 1.386 . S
C1192 C1187 1.490 . S
C1192 C1194 1.395 . S
C1192 C1195 1.403 . S
H1193 C1199 0.930 . S
C1194 H1180 0.930 . S
C1194 C1192 1.395 . S
C1194 C1197 1.403 . S
C1195 C1192 1.403 . S
C1195 C1196 1.524 . S
C1195 C1199 1.400 . S
C1196 H1181 0.960 . S
C1196 H1182 0.960 . S
C1196 H1183 0.960 . S
C1196 C1195 1.524 . S
C1197 C1194 1.403 . S
C1197 C1198 1.392 . S
C1197 C1201 1.495 . S
C1198 C1197 1.392 . S
C1198 C1199 1.385 . S
C1198 C1200 1.478 . S
C1199 H1193 0.930 . S
C1199 C1195 1.400 . S
C1199 C1198 1.385 . S
C1200 C1198 1.478 . S
C1200 C1202 1.381 . S
C1200 C1206 1.383 . S
C1201 C1197 1.495 . S
C1201 H1207 0.959 . S
C1201 H1208 0.961 . S
C1201 H1209 0.960 . S
C1202 C1200 1.381 . S
C1202 C1203 1.394 . S
C1202 H1210 0.930 . S
C1203 C1202 1.394 . S
C1203 C1204 1.383 . S
C1203 H1211 0.929 . S
C1204 C1203 1.383 . S
C1204 C1205 1.377 . S
C1205 H1189 0.930 . S
C1205 C1204 1.377 . S
C1205 C1206 1.379 . S
C1206 H1190 0.931 . S
C1206 C1200 1.383 . S
C1206 C1205 1.379 . S
H1207 C1201 0.959 . S
H1208 C1201 0.961 . S
H1209 C1201 0.960 . S
H1210 C1202 0.930 . S
H1211 C1203 0.929 . S
H1212 C1220 0.929 . S
H1213 C1222 0.930 . S
H1214 C1224 0.930 . S
H1215 C1227 0.929 . S
H1216 C1230 0.930 . S
H1217 C1232 0.960 . S
H1218 C1232 0.960 . S
H1219 C1232 0.960 . S
C1220 H1212 0.929 . S
C1220 C1221 1.377 . S
C1220 C1222 1.384 . S
C1221 C1220 1.377 . S
C1221 C1227 1.390 . S
C1222 H1213 0.930 . S
C1222 C1220 1.384 . S
C1222 C1223 1.372 . S
C1223 C1222 1.372 . S
C1223 C1224 1.400 . S
C1223 C1228 1.490 . S
C1224 H1214 0.930 . S
C1224 C1223 1.400 . S
C1224 C1227 1.386 . S
H1225 C1241 0.930 . S
H1226 C1242 0.931 . S
C1227 H1215 0.929 . S
C1227 C1221 1.390 . S
C1227 C1224 1.386 . S
C1228 C1223 1.490 . S
C1228 C1230 1.395 . S
C1228 C1231 1.403 . S
H1229 C1235 0.930 . S
C1230 H1216 0.930 . S
C1230 C1228 1.395 . S
C1230 C1233 1.403 . S
C1231 C1228 1.403 . S
C1231 C1232 1.524 . S
C1231 C1235 1.400 . S
C1232 H1217 0.960 . S
C1232 H1218 0.960 . S
C1232 H1219 0.960 . S
C1232 C1231 1.524 . S
C1233 C1230 1.403 . S
C1233 C1234 1.392 . S
C1233 C1237 1.495 . S
C1234 C1233 1.392 . S
C1234 C1235 1.385 . S
C1234 C1236 1.478 . S
C1235 H1229 0.930 . S
C1235 C1231 1.400 . S
C1235 C1234 1.385 . S
C1236 C1234 1.478 . S
C1236 C1238 1.381 . S
C1236 C1242 1.383 . S
C1237 C1233 1.495 . S
C1237 H1243 0.959 . S
C1237 H1244 0.961 . S
C1237 H1245 0.960 . S
C1238 C1236 1.381 . S
C1238 C1239 1.394 . S
C1238 H1246 0.930 . S
C1239 C1238 1.394 . S
C1239 C1240 1.383 . S
C1239 H1247 0.929 . S
C1240 C1239 1.383 . S
C1240 C1241 1.377 . S
C1241 H1225 0.930 . S
C1241 C1240 1.377 . S
C1241 C1242 1.379 . S
C1242 H1226 0.931 . S
C1242 C1236 1.383 . S
C1242 C1241 1.379 . S
H1243 C1237 0.959 . S
H1244 C1237 0.961 . S
H1245 C1237 0.960 . S
H1246 C1238 0.930 . S
H1247 C1239 0.929 . S
H1248 C1256 0.929 . S
H1249 C1258 0.930 . S
H1250 C1260 0.930 . S
H1251 C1263 0.929 . S
H1252 C1266 0.930 . S
H1253 C1268 0.960 . S
H1254 C1268 0.960 . S
H1255 C1268 0.960 . S
C1256 H1248 0.929 . S
C1256 C1257 1.377 . S
C1256 C1258 1.384 . S
C1257 C1256 1.377 . S
C1257 C1263 1.390 . S
C1258 H1249 0.930 . S
C1258 C1256 1.384 . S
C1258 C1259 1.372 . S
C1259 C1258 1.372 . S
C1259 C1260 1.400 . S
C1259 C1264 1.490 . S
C1260 H1250 0.930 . S
C1260 C1259 1.400 . S
C1260 C1263 1.386 . S
H1261 C1277 0.930 . S
H1262 C1278 0.931 . S
C1263 H1251 0.929 . S
C1263 C1257 1.390 . S
C1263 C1260 1.386 . S
C1264 C1259 1.490 . S
C1264 C1266 1.395 . S
C1264 C1267 1.403 . S
H1265 C1271 0.930 . S
C1266 H1252 0.930 . S
C1266 C1264 1.395 . S
C1266 C1269 1.403 . S
C1267 C1264 1.403 . S
C1267 C1268 1.524 . S
C1267 C1271 1.400 . S
C1268 H1253 0.960 . S
C1268 H1254 0.960 . S
C1268 H1255 0.960 . S
C1268 C1267 1.524 . S
C1269 C1266 1.403 . S
C1269 C1270 1.392 . S
C1269 C1273 1.495 . S
C1270 C1269 1.392 . S
C1270 C1271 1.385 . S
C1270 C1272 1.478 . S
C1271 H1265 0.930 . S
C1271 C1267 1.400 . S
C1271 C1270 1.385 . S
C1272 C1270 1.478 . S
C1272 C1274 1.381 . S
C1272 C1278 1.383 . S
C1273 C1269 1.495 . S
C1273 H1279 0.959 . S
C1273 H1280 0.961 . S
C1273 H1281 0.960 . S
C1274 C1272 1.381 . S
C1274 C1275 1.394 . S
C1274 H1282 0.930 . S
C1275 C1274 1.394 . S
C1275 C1276 1.383 . S
C1275 H1283 0.929 . S
C1276 C1275 1.383 . S
C1276 C1277 1.377 . S
C1277 H1261 0.930 . S
C1277 C1276 1.377 . S
C1277 C1278 1.379 . S
C1278 H1262 0.931 . S
C1278 C1272 1.383 . S
C1278 C1277 1.379 . S
H1279 C1273 0.959 . S
H1280 C1273 0.961 . S
H1281 C1273 0.960 . S
H1282 C1274 0.930 . S
H1283 C1275 0.929 . S
H1284 C1292 0.929 . S
H1285 C1294 0.930 . S
H1286 C1296 0.930 . S
H1287 C1299 0.929 . S
H1288 C1302 0.930 . S
H1289 C1304 0.960 . S
H1290 C1304 0.960 . S
H1291 C1304 0.960 . S
C1292 H1284 0.929 . S
C1292 C1293 1.377 . S
C1292 C1294 1.384 . S
C1293 C1292 1.377 . S
C1293 C1299 1.390 . S
C1294 H1285 0.930 . S
C1294 C1292 1.384 . S
C1294 C1295 1.372 . S
C1295 C1294 1.372 . S
C1295 C1296 1.400 . S
C1295 C1300 1.490 . S
C1296 H1286 0.930 . S
C1296 C1295 1.400 . S
C1296 C1299 1.386 . S
H1297 C1313 0.930 . S
H1298 C1314 0.931 . S
C1299 H1287 0.929 . S
C1299 C1293 1.390 . S
C1299 C1296 1.386 . S
C1300 C1295 1.490 . S
C1300 C1302 1.395 . S
C1300 C1303 1.403 . S
H1301 C1307 0.930 . S
C1302 H1288 0.930 . S
C1302 C1300 1.395 . S
C1302 C1305 1.403 . S
C1303 C1300 1.403 . S
C1303 C1304 1.524 . S
C1303 C1307 1.400 . S
C1304 H1289 0.960 . S
C1304 H1290 0.960 . S
C1304 H1291 0.960 . S
C1304 C1303 1.524 . S
C1305 C1302 1.403 . S
C1305 C1306 1.392 . S
C1305 C1309 1.495 . S
C1306 C1305 1.392 . S
C1306 C1307 1.385 . S
C1306 C1308 1.478 . S
C1307 H1301 0.930 . S
C1307 C1303 1.400 . S
C1307 C1306 1.385 . S
C1308 C1306 1.478 . S
C1308 C1310 1.381 . S
C1308 C1314 1.383 . S
C1309 C1305 1.495 . S
C1309 H1315 0.959 . S
C1309 H1316 0.961 . S
C1309 H1317 0.960 . S
C1310 C1308 1.381 . S
C1310 C1311 1.394 . S
C1310 H1318 0.930 . S
C1311 C1310 1.394 . S
C1311 C1312 1.383 . S
C1311 H1319 0.929 . S
C1312 C1311 1.383 . S
C1312 C1313 1.377 . S
C1313 H1297 0.930 . S
C1313 C1312 1.377 . S
C1313 C1314 1.379 . S
C1314 H1298 0.931 . S
C1314 C1308 1.383 . S
C1314 C1313 1.379 . S
H1315 C1309 0.959 . S
H1316 C1309 0.961 . S
H1317 C1309 0.960 . S
H1318 C1310 0.930 . S
H1319 C1311 0.929 . S
H1320 C1328 0.929 . S
H1321 C1330 0.930 . S
H1322 C1332 0.930 . S
H1323 C1335 0.929 . S
H1324 C1338 0.930 . S
H1325 C1340 0.960 . S
H1326 C1340 0.960 . S
H1327 C1340 0.960 . S
C1328 H1320 0.929 . S
C1328 C1329 1.377 . S
C1328 C1330 1.384 . S
C1329 C1328 1.377 . S
C1329 C1335 1.390 . S
C1330 H1321 0.930 . S
C1330 C1328 1.384 . S
C1330 C1331 1.372 . S
C1331 C1330 1.372 . S
C1331 C1332 1.400 . S
C1331 C1336 1.490 . S
C1332 H1322 0.930 . S
C1332 C1331 1.400 . S
C1332 C1335 1.386 . S
H1333 C1349 0.930 . S
H1334 C1350 0.931 . S
C1335 H1323 0.929 . S
C1335 C1329 1.390 . S
C1335 C1332 1.386 . S
C1336 C1331 1.490 . S
C1336 C1338 1.395 . S
C1336 C1339 1.403 . S
H1337 C1343 0.930 . S
C1338 H1324 0.930 . S
C1338 C1336 1.395 . S
C1338 C1341 1.403 1_545 S
C1339 C1336 1.403 . S
C1339 C1340 1.524 . S
C1339 C1343 1.400 1_545 S
C1340 H1325 0.960 . S
C1340 H1326 0.960 . S
C1340 H1327 0.960 . S
C1340 C1339 1.524 . S
C1341 C1338 1.403 1_565 S
C1341 C1342 1.392 . S
C1341 C1345 1.495 . S
C1342 C1341 1.392 . S
C1342 C1343 1.385 . S
C1342 C1344 1.478 . S
C1343 H1337 0.930 . S
C1343 C1339 1.400 1_565 S
C1343 C1342 1.385 . S
C1344 C1342 1.478 . S
C1344 C1346 1.381 . S
C1344 C1350 1.383 . S
C1345 C1341 1.495 . S
C1345 H1351 0.959 . S
C1345 H1352 0.961 . S
C1345 H1353 0.960 . S
C1346 C1344 1.381 . S
C1346 C1347 1.394 . S
C1346 H1354 0.930 . S
C1347 C1346 1.394 . S
C1347 C1348 1.383 . S
C1347 H1355 0.929 . S
C1348 C1347 1.383 . S
C1348 C1349 1.377 . S
C1349 H1333 0.930 . S
C1349 C1348 1.377 . S
C1349 C1350 1.379 . S
C1350 H1334 0.931 . S
C1350 C1344 1.383 . S
C1350 C1349 1.379 . S
H1351 C1345 0.959 . S
H1352 C1345 0.961 . S
H1353 C1345 0.960 . S
H1354 C1346 0.930 . S
H1355 C1347 0.929 . S
H1356 C1364 0.929 . S
H1357 C1366 0.930 . S
H1358 C1368 0.930 . S
H1359 C1371 0.929 . S
H1360 C1374 0.930 . S
H1361 C1376 0.960 1_545 S
H1362 C1376 0.960 . S
H1363 C1376 0.960 . S
C1364 H1356 0.929 . S
C1364 C1365 1.377 . S
C1364 C1366 1.384 . S
C1365 C1364 1.377 . S
C1365 C1371 1.390 . S
C1366 H1357 0.930 . S
C1366 C1364 1.384 . S
C1366 C1367 1.372 . S
C1367 C1366 1.372 . S
C1367 C1368 1.400 . S
C1367 C1372 1.490 . S
C1368 H1358 0.930 . S
C1368 C1367 1.400 . S
C1368 C1371 1.386 . S
H1369 C1385 0.930 . S
H1370 C1386 0.931 . S
C1371 H1359 0.929 . S
C1371 C1365 1.390 . S
C1371 C1368 1.386 . S
C1372 C1367 1.490 . S
C1372 C1374 1.395 1_554 S
C1372 C1375 1.403 . S
H1373 C1379 0.930 . S
C1374 H1360 0.930 . S
C1374 C1372 1.395 1_556 S
C1374 C1377 1.403 1_565 S
C1375 C1372 1.403 . S
C1375 C1376 1.524 . S
C1375 C1379 1.400 1_565 S
C1376 H1361 0.960 1_565 S
C1376 H1362 0.960 . S
C1376 H1363 0.960 . S
C1376 C1375 1.524 . S
C1377 C1374 1.403 1_545 S
C1377 C1378 1.392 . S
C1377 C1381 1.495 . S
C1378 C1377 1.392 . S
C1378 C1379 1.385 1_556 S
C1378 C1380 1.478 . S
C1379 H1373 0.930 . S
C1379 C1375 1.400 1_545 S
C1379 C1378 1.385 1_554 S
C1380 C1378 1.478 . S
C1380 C1382 1.381 . S
C1380 C1386 1.383 . S
C1381 C1377 1.495 . S
C1381 H1387 0.959 1_545 S
C1381 H1388 0.961 . S
C1381 H1389 0.960 . S
C1382 C1380 1.381 . S
C1382 C1383 1.394 . S
C1382 H1390 0.930 . S
C1383 C1382 1.394 . S
C1383 C1384 1.383 . S
C1383 H1391 0.929 . S
C1384 C1383 1.383 . S
C1384 C1385 1.377 . S
C1385 H1369 0.930 . S
C1385 C1384 1.377 . S
C1385 C1386 1.379 . S
C1386 H1370 0.931 . S
C1386 C1380 1.383 . S
C1386 C1385 1.379 . S
H1387 C1381 0.959 1_565 S
H1388 C1381 0.961 . S
H1389 C1381 0.960 . S
H1390 C1382 0.930 . S
H1391 C1383 0.929 . S
H1392 C1400 0.929 . S
H1393 C1402 0.930 . S
H1394 C1404 0.930 . S
H1395 C1407 0.929 . S
H1396 C1410 0.930 . S
H1397 C1412 0.960 . S
H1398 C1412 0.960 . S
H1399 C1412 0.960 . S
C1400 H1392 0.929 . S
C1400 C1401 1.377 . S
C1400 C1402 1.384 . S
C1401 C1400 1.377 . S
C1401 C1407 1.390 . S
C1402 H1393 0.930 . S
C1402 C1400 1.384 . S
C1402 C1403 1.372 . S
C1403 C1402 1.372 . S
C1403 C1404 1.400 . S
C1403 C1408 1.490 . S
C1404 H1394 0.930 . S
C1404 C1403 1.400 . S
C1404 C1407 1.386 . S
H1405 C1421 0.930 . S
H1406 C1422 0.931 . S
C1407 H1395 0.929 . S
C1407 C1401 1.390 . S
C1407 C1404 1.386 . S
C1408 C1403 1.490 . S
C1408 C1410 1.395 . S
C1408 C1411 1.403 . S
H1409 C1415 0.930 . S
C1410 H1396 0.930 . S
C1410 C1408 1.395 . S
C1410 C1413 1.403 . S
C1411 C1408 1.403 . S
C1411 C1412 1.524 . S
C1411 C1415 1.400 . S
C1412 H1397 0.960 . S
C1412 H1398 0.960 . S
C1412 H1399 0.960 . S
C1412 C1411 1.524 . S
C1413 C1410 1.403 . S
C1413 C1414 1.392 . S
C1413 C1417 1.495 . S
C1414 C1413 1.392 . S
C1414 C1415 1.385 . S
C1414 C1416 1.478 . S
C1415 H1409 0.930 . S
C1415 C1411 1.400 . S
C1415 C1414 1.385 . S
C1416 C1414 1.478 . S
C1416 C1418 1.381 . S
C1416 C1422 1.383 . S
C1417 C1413 1.495 . S
C1417 H1423 0.959 . S
C1417 H1424 0.961 . S
C1417 H1425 0.960 . S
C1418 C1416 1.381 . S
C1418 C1419 1.394 . S
C1418 H1426 0.930 . S
C1419 C1418 1.394 . S
C1419 C1420 1.383 . S
C1419 H1427 0.929 . S
C1420 C1419 1.383 . S
C1420 C1421 1.377 . S
C1421 H1405 0.930 . S
C1421 C1420 1.377 . S
C1421 C1422 1.379 . S
C1422 H1406 0.931 . S
C1422 C1416 1.383 . S
C1422 C1421 1.379 . S
H1423 C1417 0.959 . S
H1424 C1417 0.961 . S
H1425 C1417 0.960 . S
H1426 C1418 0.930 . S
H1427 C1419 0.929 . S
H1428 C1436 0.929 . S
H1429 C1438 0.930 . S
H1430 C1440 0.930 . S
H1431 C1443 0.929 . S
H1432 C1446 0.930 . S
H1433 C1448 0.960 . S
H1434 C1448 0.960 . S
H1435 C1448 0.960 . S
C1436 H1428 0.929 . S
C1436 C1437 1.377 . S
C1436 C1438 1.384 . S
C1437 C1436 1.377 . S
C1437 C1443 1.390 . S
C1438 H1429 0.930 . S
C1438 C1436 1.384 . S
C1438 C1439 1.372 . S
C1439 C1438 1.372 . S
C1439 C1440 1.400 . S
C1439 C1444 1.490 . S
C1440 H1430 0.930 . S
C1440 C1439 1.400 . S
C1440 C1443 1.386 . S
H1441 C1457 0.930 . S
H1442 C1458 0.931 . S
C1443 H1431 0.929 . S
C1443 C1437 1.390 . S
C1443 C1440 1.386 . S
C1444 C1439 1.490 . S
C1444 C1446 1.395 . S
C1444 C1447 1.403 . S
H1445 C1451 0.930 . S
C1446 H1432 0.930 . S
C1446 C1444 1.395 . S
C1446 C1449 1.403 . S
C1447 C1444 1.403 . S
C1447 C1448 1.524 . S
C1447 C1451 1.400 . S
C1448 H1433 0.960 . S
C1448 H1434 0.960 . S
C1448 H1435 0.960 . S
C1448 C1447 1.524 . S
C1449 C1446 1.403 . S
C1449 C1450 1.392 . S
C1449 C1453 1.495 . S
C1450 C1449 1.392 . S
C1450 C1451 1.385 . S
C1450 C1452 1.478 . S
C1451 H1445 0.930 . S
C1451 C1447 1.400 . S
C1451 C1450 1.385 . S
C1452 C1450 1.478 . S
C1452 C1454 1.381 . S
C1452 C1458 1.383 . S
C1453 C1449 1.495 . S
C1453 H1459 0.959 . S
C1453 H1460 0.961 . S
C1453 H1461 0.960 . S
C1454 C1452 1.381 . S
C1454 C1455 1.394 . S
C1454 H1462 0.930 . S
C1455 C1454 1.394 . S
C1455 C1456 1.383 . S
C1455 H1463 0.929 . S
C1456 C1455 1.383 . S
C1456 C1457 1.377 . S
C1457 H1441 0.930 . S
C1457 C1456 1.377 . S
C1457 C1458 1.379 . S
C1458 H1442 0.931 . S
C1458 C1452 1.383 . S
C1458 C1457 1.379 . S
H1459 C1453 0.959 . S
H1460 C1453 0.961 . S
H1461 C1453 0.960 . S
H1462 C1454 0.930 . S
H1463 C1455 0.929 . S
H1464 C1472 0.929 . S
H1465 C1474 0.930 . S
H1466 C1476 0.930 . S
H1467 C1479 0.929 . S
H1468 C1482 0.930 . S
H1469 C1484 0.960 . S
H1470 C1484 0.960 . S
H1471 C1484 0.960 . S
C1472 H1464 0.929 . S
C1472 C1473 1.377 . S
C1472 C1474 1.384 . S
C1473 C1472 1.377 . S
C1473 C1479 1.390 . S
C1474 H1465 0.930 . S
C1474 C1472 1.384 . S
C1474 C1475 1.372 . S
C1475 C1474 1.372 . S
C1475 C1476 1.400 . S
C1475 C1480 1.490 . S
C1476 H1466 0.930 . S
C1476 C1475 1.400 . S
C1476 C1479 1.386 . S
H1477 C1493 0.930 . S
H1478 C1494 0.931 . S
C1479 H1467 0.929 . S
C1479 C1473 1.390 . S
C1479 C1476 1.386 . S
C1480 C1475 1.490 . S
C1480 C1482 1.395 . S
C1480 C1483 1.403 . S
H1481 C1487 0.930 . S
C1482 H1468 0.930 . S
C1482 C1480 1.395 . S
C1482 C1485 1.403 . S
C1483 C1480 1.403 . S
C1483 C1484 1.524 . S
C1483 C1487 1.400 . S
C1484 H1469 0.960 . S
C1484 H1470 0.960 . S
C1484 H1471 0.960 . S
C1484 C1483 1.524 . S
C1485 C1482 1.403 . S
C1485 C1486 1.392 . S
C1485 C1489 1.495 . S
C1486 C1485 1.392 . S
C1486 C1487 1.385 . S
C1486 C1488 1.478 . S
C1487 H1481 0.930 . S
C1487 C1483 1.400 . S
C1487 C1486 1.385 . S
C1488 C1486 1.478 . S
C1488 C1490 1.381 . S
C1488 C1494 1.383 . S
C1489 C1485 1.495 . S
C1489 H1495 0.959 . S
C1489 H1496 0.961 . S
C1489 H1497 0.960 . S
C1490 C1488 1.381 . S
C1490 C1491 1.394 . S
C1490 H1498 0.930 . S
C1491 C1490 1.394 . S
C1491 C1492 1.383 . S
C1491 H1499 0.929 . S
C1492 C1491 1.383 . S
C1492 C1493 1.377 . S
C1493 H1477 0.930 . S
C1493 C1492 1.377 . S
C1493 C1494 1.379 . S
C1494 H1478 0.931 . S
C1494 C1488 1.383 . S
C1494 C1493 1.379 . S
H1495 C1489 0.959 . S
H1496 C1489 0.961 . S
H1497 C1489 0.960 . S
H1498 C1490 0.930 . S
H1499 C1491 0.929 . S
H1500 C1508 0.929 . S
H1501 C1510 0.930 . S
H1502 C1512 0.930 . S
H1503 C1515 0.929 . S
H1504 C1518 0.930 . S
H1505 C1520 0.960 . S
H1506 C1520 0.960 . S
H1507 C1520 0.960 1_455 S
C1508 H1500 0.929 . S
C1508 C1509 1.377 1_655 S
C1508 C1510 1.384 . S
C1509 C1508 1.377 1_455 S
C1509 C1515 1.390 . S
C1510 H1501 0.930 . S
C1510 C1508 1.384 . S
C1510 C1511 1.372 . S
C1511 C1510 1.372 . S
C1511 C1512 1.400 . S
C1511 C1516 1.490 . S
C1512 H1502 0.930 . S
C1512 C1511 1.400 . S
C1512 C1515 1.386 1_655 S
H1513 C1529 0.930 . S
H1514 C1530 0.931 . S
C1515 H1503 0.929 . S
C1515 C1509 1.390 . S
C1515 C1512 1.386 1_455 S
C1516 C1511 1.490 . S
C1516 C1518 1.395 . S
C1516 C1519 1.403 . S
H1517 C1523 0.930 . S
C1518 H1504 0.930 . S
C1518 C1516 1.395 . S
C1518 C1521 1.403 . S
C1519 C1516 1.403 . S
C1519 C1520 1.524 . S
C1519 C1523 1.400 . S
C1520 H1505 0.960 . S
C1520 H1506 0.960 . S
C1520 H1507 0.960 1_655 S
C1520 C1519 1.524 . S
C1521 C1518 1.403 . S
C1521 C1522 1.392 . S
C1521 C1525 1.495 . S
C1522 C1521 1.392 . S
C1522 C1523 1.385 . S
C1522 C1524 1.478 . S
C1523 H1517 0.930 . S
C1523 C1519 1.400 . S
C1523 C1522 1.385 . S
C1524 C1522 1.478 . S
C1524 C1526 1.381 . S
C1524 C1530 1.383 . S
C1525 C1521 1.495 . S
C1525 H1531 0.959 . S
C1525 H1532 0.961 . S
C1525 H1533 0.960 . S
C1526 C1524 1.381 . S
C1526 C1527 1.394 . S
C1526 H1534 0.930 . S
C1527 C1526 1.394 . S
C1527 C1528 1.383 . S
C1527 H1535 0.929 . S
C1528 C1527 1.383 . S
C1528 C1529 1.377 . S
C1529 H1513 0.930 . S
C1529 C1528 1.377 . S
C1529 C1530 1.379 . S
C1530 H1514 0.931 . S
C1530 C1524 1.383 . S
C1530 C1529 1.379 . S
H1531 C1525 0.959 . S
H1532 C1525 0.961 . S
H1533 C1525 0.960 . S
H1534 C1526 0.930 . S
H1535 C1527 0.929 . S
H1536 C1544 0.929 . S
H1537 C1546 0.930 . S
H1538 C1548 0.930 . S
H1539 C1551 0.929 . S
H1540 C1554 0.930 . S
H1541 C1556 0.960 . S
H1542 C1556 0.960 . S
H1543 C1556 0.960 . S
C1544 H1536 0.929 . S
C1544 C1545 1.377 . S
C1544 C1546 1.384 . S
C1545 C1544 1.377 . S
C1545 C1551 1.390 . S
C1546 H1537 0.930 . S
C1546 C1544 1.384 . S
C1546 C1547 1.372 . S
C1547 C1546 1.372 . S
C1547 C1548 1.400 . S
C1547 C1552 1.490 . S
C1548 H1538 0.930 . S
C1548 C1547 1.400 . S
C1548 C1551 1.386 . S
H1549 C1565 0.930 . S
H1550 C1566 0.931 . S
C1551 H1539 0.929 . S
C1551 C1545 1.390 . S
C1551 C1548 1.386 . S
C1552 C1547 1.490 . S
C1552 C1554 1.395 . S
C1552 C1555 1.403 . S
H1553 C1559 0.930 . S
C1554 H1540 0.930 . S
C1554 C1552 1.395 . S
C1554 C1557 1.403 . S
C1555 C1552 1.403 . S
C1555 C1556 1.524 . S
C1555 C1559 1.400 . S
C1556 H1541 0.960 . S
C1556 H1542 0.960 . S
C1556 H1543 0.960 . S
C1556 C1555 1.524 . S
C1557 C1554 1.403 . S
C1557 C1558 1.392 . S
C1557 C1561 1.495 . S
C1558 C1557 1.392 . S
C1558 C1559 1.385 . S
C1558 C1560 1.478 . S
C1559 H1553 0.930 . S
C1559 C1555 1.400 . S
C1559 C1558 1.385 . S
C1560 C1558 1.478 . S
C1560 C1562 1.381 . S
C1560 C1566 1.383 . S
C1561 C1557 1.495 . S
C1561 H1567 0.959 . S
C1561 H1568 0.961 . S
C1561 H1569 0.960 . S
C1562 C1560 1.381 . S
C1562 C1563 1.394 . S
C1562 H1570 0.930 . S
C1563 C1562 1.394 . S
C1563 C1564 1.383 . S
C1563 H1571 0.929 . S
C1564 C1563 1.383 . S
C1564 C1565 1.377 . S
C1565 H1549 0.930 . S
C1565 C1564 1.377 . S
C1565 C1566 1.379 . S
C1566 H1550 0.931 . S
C1566 C1560 1.383 . S
C1566 C1565 1.379 . S
H1567 C1561 0.959 . S
H1568 C1561 0.961 . S
H1569 C1561 0.960 . S
H1570 C1562 0.930 . S
H1571 C1563 0.929 . S
H1572 C1580 0.929 . S
H1573 C1582 0.930 . S
H1574 C1584 0.930 . S
H1575 C1587 0.929 . S
H1576 C1590 0.930 . S
H1577 C1592 0.960 . S
H1578 C1592 0.970 . S
H1579 C1592 0.960 . S
C1580 H1572 0.929 . S
C1580 C1581 1.377 . S
C1580 C1582 1.384 1_455 S
C1581 C1580 1.377 . S
C1581 C1587 1.390 . S
C1582 H1573 0.930 . S
C1582 C1580 1.384 1_655 S
C1582 C1583 1.372 . S
C1583 C1582 1.372 . S
C1583 C1584 1.400 . S
C1583 C1588 1.490 . S
C1584 H1574 0.930 . S
C1584 C1583 1.400 . S
C1584 C1587 1.386 1_655 S
H1585 C1601 0.930 . S
H1586 C1602 0.931 . S
C1587 H1575 0.929 . S
C1587 C1581 1.390 . S
C1587 C1584 1.386 1_455 S
C1588 C1583 1.490 . S
C1588 C1590 1.395 . S
C1588 C1591 1.403 . S
H1589 C1595 0.930 . S
C1590 H1576 0.930 . S
C1590 C1588 1.395 . S
C1590 C1593 1.403 . S
C1591 C1588 1.403 . S
C1591 C1592 1.524 . S
C1591 C1595 1.400 . S
C1592 H1577 0.960 . S
C1592 H1578 0.970 . S
C1592 H1579 0.960 . S
C1592 C1591 1.524 . S
C1593 C1590 1.403 . S
C1593 C1594 1.392 . S
C1593 C1597 1.495 . S
C1594 C1593 1.392 . S
C1594 C1595 1.385 . S
C1594 C1596 1.478 . S
C1595 H1589 0.930 . S
C1595 C1591 1.400 . S
C1595 C1594 1.385 . S
C1596 C1594 1.478 . S
C1596 C1598 1.381 . S
C1596 C1602 1.383 . S
C1597 C1593 1.495 . S
C1597 H1603 0.959 . S
C1597 H1604 0.961 . S
C1597 H1605 0.960 . S
C1598 C1596 1.381 . S
C1598 C1599 1.394 . S
C1598 H1606 0.930 . S
C1599 C1598 1.394 . S
C1599 C1600 1.383 . S
C1599 H1607 0.929 . S
C1600 C1599 1.383 . S
C1600 C1601 1.377 . S
C1601 H1585 0.930 . S
C1601 C1600 1.377 . S
C1601 C1602 1.379 . S
C1602 H1586 0.931 . S
C1602 C1596 1.383 . S
C1602 C1601 1.379 . S
H1603 C1597 0.959 . S
H1604 C1597 0.961 . S
H1605 C1597 0.960 . S
H1606 C1598 0.930 . S
H1607 C1599 0.929 . S
H1608 C1616 0.929 . S
H1609 C1618 0.930 . S
H1610 C1620 0.930 . S
H1611 C1623 0.929 . S
H1612 C1626 0.930 . S
H1613 C1628 0.960 . S
H1614 C1628 0.960 . S
H1615 C1628 0.960 . S
C1616 H1608 0.929 . S
C1616 C1617 1.377 . S
C1616 C1618 1.384 . S
C1617 C1616 1.377 . S
C1617 C1623 1.390 . S
C1618 H1609 0.930 . S
C1618 C1616 1.384 . S
C1618 C1619 1.372 . S
C1619 C1618 1.372 . S
C1619 C1620 1.400 . S
C1619 C1624 1.490 . S
C1620 H1610 0.930 . S
C1620 C1619 1.400 . S
C1620 C1623 1.386 . S
H1621 C1637 0.930 . S
H1622 C1638 0.931 . S
C1623 H1611 0.929 . S
C1623 C1617 1.390 . S
C1623 C1620 1.386 . S
C1624 C1619 1.490 . S
C1624 C1626 1.395 . S
C1624 C1627 1.403 . S
H1625 C1631 0.930 . S
C1626 H1612 0.930 . S
C1626 C1624 1.395 . S
C1626 C1629 1.403 . S
C1627 C1624 1.403 . S
C1627 C1628 1.524 . S
C1627 C1631 1.400 . S
C1628 H1613 0.960 . S
C1628 H1614 0.960 . S
C1628 H1615 0.960 . S
C1628 C1627 1.524 . S
C1629 C1626 1.403 . S
C1629 C1630 1.392 . S
C1629 C1633 1.495 . S
C1630 C1629 1.392 . S
C1630 C1631 1.385 . S
C1630 C1632 1.478 . S
C1631 H1625 0.930 . S
C1631 C1627 1.400 . S
C1631 C1630 1.385 . S
C1632 C1630 1.478 . S
C1632 C1634 1.381 . S
C1632 C1638 1.383 . S
C1633 C1629 1.495 . S
C1633 H1639 0.959 . S
C1633 H1640 0.961 . S
C1633 H1641 0.960 . S
C1634 C1632 1.381 . S
C1634 C1635 1.394 . S
C1634 H1642 0.930 . S
C1635 C1634 1.394 . S
C1635 C1636 1.383 . S
C1635 H1643 0.929 . S
C1636 C1635 1.383 . S
C1636 C1637 1.377 . S
C1637 H1621 0.930 . S
C1637 C1636 1.377 . S
C1637 C1638 1.379 . S
C1638 H1622 0.931 . S
C1638 C1632 1.383 . S
C1638 C1637 1.379 . S
H1639 C1633 0.959 . S
H1640 C1633 0.961 . S
H1641 C1633 0.960 . S
H1642 C1634 0.930 . S
H1643 C1635 0.929 . S
H1644 C1652 0.929 . S
H1645 C1654 0.930 . S
H1646 C1656 0.930 . S
H1647 C1659 0.929 . S
H1648 C1662 0.930 . S
H1649 C1664 0.960 . S
H1650 C1664 0.960 . S
H1651 C1664 0.960 . S
C1652 H1644 0.929 . S
C1652 C1653 1.377 . S
C1652 C1654 1.384 . S
C1653 C1652 1.377 . S
C1653 C1659 1.390 . S
C1654 H1645 0.930 . S
C1654 C1652 1.384 . S
C1654 C1655 1.372 . S
C1655 C1654 1.372 . S
C1655 C1656 1.400 . S
C1655 C1660 1.490 . S
C1656 H1646 0.930 . S
C1656 C1655 1.400 . S
C1656 C1659 1.386 . S
H1657 C1673 0.930 . S
H1658 C1674 0.931 . S
C1659 H1647 0.929 . S
C1659 C1653 1.390 . S
C1659 C1656 1.386 . S
C1660 C1655 1.490 . S
C1660 C1662 1.395 . S
C1660 C1663 1.403 . S
H1661 C1667 0.930 . S
C1662 H1648 0.930 . S
C1662 C1660 1.395 . S
C1662 C1665 1.403 . S
C1663 C1660 1.403 . S
C1663 C1664 1.524 . S
C1663 C1667 1.400 . S
C1664 H1649 0.960 . S
C1664 H1650 0.960 . S
C1664 H1651 0.960 . S
C1664 C1663 1.524 . S
C1665 C1662 1.403 . S
C1665 C1666 1.392 . S
C1665 C1669 1.495 . S
C1666 C1665 1.392 . S
C1666 C1667 1.385 . S
C1666 C1668 1.478 . S
C1667 H1661 0.930 . S
C1667 C1663 1.400 . S
C1667 C1666 1.385 . S
C1668 C1666 1.478 . S
C1668 C1670 1.381 . S
C1668 C1674 1.383 . S
C1669 C1665 1.495 . S
C1669 H1675 0.959 . S
C1669 H1676 0.961 . S
C1669 H1677 0.960 . S
C1670 C1668 1.381 . S
C1670 C1671 1.394 . S
C1670 H1678 0.930 . S
C1671 C1670 1.394 . S
C1671 C1672 1.383 . S
C1671 H1679 0.929 . S
C1672 C1671 1.383 . S
C1672 C1673 1.377 . S
C1673 H1657 0.930 . S
C1673 C1672 1.377 . S
C1673 C1674 1.379 . S
C1674 H1658 0.931 . S
C1674 C1668 1.383 . S
C1674 C1673 1.379 . S
H1675 C1669 0.959 . S
H1676 C1669 0.961 . S
H1677 C1669 0.960 . S
H1678 C1670 0.930 . S
H1679 C1671 0.929 . S
H1680 C1688 0.929 . S
H1681 C1690 0.930 . S
H1682 C1692 0.930 . S
H1683 C1695 0.929 . S
H1684 C1698 0.930 . S
H1685 C1700 0.960 . S
H1686 C1700 0.960 . S
H1687 C1700 0.960 . S
C1688 H1680 0.929 . S
C1688 C1689 1.377 . S
C1688 C1690 1.384 1_455 S
C1689 C1688 1.377 . S
C1689 C1695 1.390 . S
C1690 H1681 0.930 . S
C1690 C1688 1.384 1_655 S
C1690 C1691 1.372 . S
C1691 C1690 1.372 . S
C1691 C1692 1.400 1_655 S
C1691 C1696 1.490 . S
C1692 H1682 0.930 . S
C1692 C1691 1.400 1_455 S
C1692 C1695 1.386 . S
H1693 C1709 0.930 . S
H1694 C1710 0.931 . S
C1695 H1683 0.929 . S
C1695 C1689 1.390 . S
C1695 C1692 1.386 . S
C1696 C1691 1.490 . S
C1696 C1698 1.395 . S
C1696 C1699 1.403 . S
H1697 C1703 0.930 . S
C1698 H1684 0.930 . S
C1698 C1696 1.395 . S
C1698 C1701 1.403 . S
C1699 C1696 1.403 . S
C1699 C1700 1.524 1_655 S
C1699 C1703 1.400 . S
C1700 H1685 0.960 . S
C1700 H1686 0.960 . S
C1700 H1687 0.960 . S
C1700 C1699 1.524 1_455 S
C1701 C1698 1.403 . S
C1701 C1702 1.392 . S
C1701 C1705 1.495 . S
C1702 C1701 1.392 . S
C1702 C1703 1.385 . S
C1702 C1704 1.478 . S
C1703 H1697 0.930 . S
C1703 C1699 1.400 . S
C1703 C1702 1.385 . S
C1704 C1702 1.478 . S
C1704 C1706 1.381 . S
C1704 C1710 1.383 . S
C1705 C1701 1.495 . S
C1705 H1711 0.959 . S
C1705 H1712 0.961 . S
C1705 H1713 0.960 . S
C1706 C1704 1.381 . S
C1706 C1707 1.394 . S
C1706 H1714 0.930 . S
C1707 C1706 1.394 . S
C1707 C1708 1.383 . S
C1707 H1715 0.929 . S
C1708 C1707 1.383 . S
C1708 C1709 1.377 . S
C1709 H1693 0.930 . S
C1709 C1708 1.377 . S
C1709 C1710 1.379 . S
C1710 H1694 0.931 . S
C1710 C1704 1.383 . S
C1710 C1709 1.379 . S
H1711 C1705 0.959 . S
H1712 C1705 0.961 . S
H1713 C1705 0.960 . S
H1714 C1706 0.930 . S
H1715 C1707 0.929 . S
H1716 C1724 0.929 . S
H1717 C1726 0.930 . S
H1718 C1728 0.930 . S
H1719 C1731 0.929 . S
H1720 C1734 0.930 . S
H1721 C1736 0.960 . S
H1722 C1736 0.960 . S
H1723 C1736 0.960 . S
C1724 H1716 0.929 . S
C1724 C1725 1.377 . S
C1724 C1726 1.384 . S
C1725 C1724 1.377 . S
C1725 C1731 1.390 . S
C1726 H1717 0.930 . S
C1726 C1724 1.384 . S
C1726 C1727 1.372 . S
C1727 C1726 1.372 . S
C1727 C1728 1.400 . S
C1727 C1732 1.490 . S
C1728 H1718 0.930 . S
C1728 C1727 1.400 . S
C1728 C1731 1.386 . S
H1729 C1745 0.930 . S
H1730 C1746 0.931 . S
C1731 H1719 0.929 . S
C1731 C1725 1.390 . S
C1731 C1728 1.386 . S
C1732 C1727 1.490 . S
C1732 C1734 1.395 . S
C1732 C1735 1.403 . S
H1733 C1739 0.930 . S
C1734 H1720 0.930 . S
C1734 C1732 1.395 . S
C1734 C1737 1.403 . S
C1735 C1732 1.403 . S
C1735 C1736 1.524 . S
C1735 C1739 1.400 . S
C1736 H1721 0.960 . S
C1736 H1722 0.960 . S
C1736 H1723 0.960 . S
C1736 C1735 1.524 . S
C1737 C1734 1.403 . S
C1737 C1738 1.392 . S
C1737 C1741 1.495 . S
C1738 C1737 1.392 . S
C1738 C1739 1.385 . S
C1738 C1740 1.478 . S
C1739 H1733 0.930 . S
C1739 C1735 1.400 . S
C1739 C1738 1.385 . S
C1740 C1738 1.478 . S
C1740 C1742 1.381 . S
C1740 C1746 1.383 . S
C1741 C1737 1.495 . S
C1741 H1747 0.959 . S
C1741 H1748 0.961 . S
C1741 H1749 0.960 . S
C1742 C1740 1.381 . S
C1742 C1743 1.394 . S
C1742 H1750 0.930 . S
C1743 C1742 1.394 . S
C1743 C1744 1.383 . S
C1743 H1751 0.929 . S
C1744 C1743 1.383 . S
C1744 C1745 1.377 . S
C1745 H1729 0.930 . S
C1745 C1744 1.377 . S
C1745 C1746 1.379 . S
C1746 H1730 0.931 . S
C1746 C1740 1.383 . S
C1746 C1745 1.379 . S
H1747 C1741 0.959 . S
H1748 C1741 0.961 . S
H1749 C1741 0.960 . S
H1750 C1742 0.930 . S
H1751 C1743 0.929 . S
H1752 C1760 0.929 . S
H1753 C1762 0.930 . S
H1754 C1764 0.930 . S
H1755 C1767 0.929 . S
H1756 C1770 0.930 . S
H1757 C1772 0.960 . S
H1758 C1772 0.960 . S
H1759 C1772 0.960 . S
C1760 H1752 0.929 . S
C1760 C1761 1.377 . S
C1760 C1762 1.384 . S
C1761 C1760 1.377 . S
C1761 C1767 1.390 . S
C1762 H1753 0.930 . S
C1762 C1760 1.384 . S
C1762 C1763 1.372 . S
C1763 C1762 1.372 . S
C1763 C1764 1.400 . S
C1763 C1768 1.490 . S
C1764 H1754 0.930 . S
C1764 C1763 1.400 . S
C1764 C1767 1.386 . S
H1765 C1781 0.930 . S
H1766 C1782 0.931 . S
C1767 H1755 0.929 . S
C1767 C1761 1.390 . S
C1767 C1764 1.386 . S
C1768 C1763 1.490 . S
C1768 C1770 1.395 . S
C1768 C1771 1.403 . S
H1769 C1775 0.930 . S
C1770 H1756 0.930 . S
C1770 C1768 1.395 . S
C1770 C1773 1.403 . S
C1771 C1768 1.403 . S
C1771 C1772 1.524 . S
C1771 C1775 1.400 . S
C1772 H1757 0.960 . S
C1772 H1758 0.960 . S
C1772 H1759 0.960 . S
C1772 C1771 1.524 . S
C1773 C1770 1.403 . S
C1773 C1774 1.392 . S
C1773 C1777 1.495 . S
C1774 C1773 1.392 . S
C1774 C1775 1.385 . S
C1774 C1776 1.478 . S
C1775 H1769 0.930 . S
C1775 C1771 1.400 . S
C1775 C1774 1.385 . S
C1776 C1774 1.478 . S
C1776 C1778 1.381 . S
C1776 C1782 1.383 . S
C1777 C1773 1.495 . S
C1777 H1783 0.959 . S
C1777 H1784 0.961 . S
C1777 H1785 0.960 . S
C1778 C1776 1.381 . S
C1778 C1779 1.394 . S
C1778 H1786 0.930 . S
C1779 C1778 1.394 . S
C1779 C1780 1.383 . S
C1779 H1787 0.929 . S
C1780 C1779 1.383 . S
C1780 C1781 1.377 . S
C1781 H1765 0.930 . S
C1781 C1780 1.377 . S
C1781 C1782 1.379 . S
C1782 H1766 0.931 . S
C1782 C1776 1.383 . S
C1782 C1781 1.379 . S
H1783 C1777 0.959 . S
H1784 C1777 0.961 . S
H1785 C1777 0.960 . S
H1786 C1778 0.930 . S
H1787 C1779 0.929 . S
H1788 C1796 0.929 . S
H1789 C1798 0.930 . S
H1790 C1800 0.930 . S
H1791 C1803 0.929 . S
H1792 C1806 0.930 . S
H1793 C1808 0.960 . S
H1794 C1808 0.960 . S
H1795 C1808 0.960 . S
C1796 H1788 0.929 . S
C1796 C1797 1.377 . S
C1796 C1798 1.384 . S
C1797 C1796 1.377 . S
C1797 C1803 1.390 . S
C1798 H1789 0.930 . S
C1798 C1796 1.384 . S
C1798 C1799 1.372 . S
C1799 C1798 1.372 . S
C1799 C1800 1.400 . S
C1799 C1804 1.490 . S
C1800 H1790 0.930 . S
C1800 C1799 1.400 . S
C1800 C1803 1.386 . S
H1801 C1817 0.930 . S
H1802 C1818 0.931 . S
C1803 H1791 0.929 . S
C1803 C1797 1.390 . S
C1803 C1800 1.386 . S
C1804 C1799 1.490 . S
C1804 C1806 1.395 . S
C1804 C1807 1.403 . S
H1805 C1811 0.930 . S
C1806 H1792 0.930 . S
C1806 C1804 1.395 . S
C1806 C1809 1.403 . S
C1807 C1804 1.403 . S
C1807 C1808 1.524 . S
C1807 C1811 1.400 . S
C1808 H1793 0.960 . S
C1808 H1794 0.960 . S
C1808 H1795 0.960 . S
C1808 C1807 1.524 . S
C1809 C1806 1.403 . S
C1809 C1810 1.392 . S
C1809 C1813 1.495 . S
C1810 C1809 1.392 . S
C1810 C1811 1.385 . S
C1810 C1812 1.478 . S
C1811 H1805 0.930 . S
C1811 C1807 1.400 . S
C1811 C1810 1.385 . S
C1812 C1810 1.478 . S
C1812 C1814 1.381 . S
C1812 C1818 1.383 . S
C1813 C1809 1.495 . S
C1813 H1819 0.959 . S
C1813 H1820 0.961 . S
C1813 H1821 0.960 . S
C1814 C1812 1.381 . S
C1814 C1815 1.394 . S
C1814 H1822 0.930 . S
C1815 C1814 1.394 . S
C1815 C1816 1.383 . S
C1815 H1823 0.929 . S
C1816 C1815 1.383 . S
C1816 C1817 1.377 . S
C1817 H1801 0.930 . S
C1817 C1816 1.377 . S
C1817 C1818 1.379 . S
C1818 H1802 0.931 . S
C1818 C1812 1.383 . S
C1818 C1817 1.379 . S
H1819 C1813 0.959 . S
H1820 C1813 0.961 . S
H1821 C1813 0.960 . S
H1822 C1814 0.930 . S
H1823 C1815 0.929 . S
H1824 C1832 0.929 . S
H1825 C1834 0.930 . S
H1826 C1836 0.930 . S
H1827 C1839 0.929 . S
H1828 C1842 0.930 . S
H1829 C1844 0.960 . S
H1830 C1844 0.960 . S
H1831 C1844 0.960 . S
C1832 H1824 0.929 . S
C1832 C1833 1.377 . S
C1832 C1834 1.384 . S
C1833 C1832 1.377 . S
C1833 C1839 1.390 . S
C1834 H1825 0.930 . S
C1834 C1832 1.384 . S
C1834 C1835 1.372 . S
C1835 C1834 1.372 . S
C1835 C1836 1.400 . S
C1835 C1840 1.490 . S
C1836 H1826 0.930 . S
C1836 C1835 1.400 . S
C1836 C1839 1.386 . S
H1837 C1853 0.930 . S
H1838 C1854 0.931 . S
C1839 H1827 0.929 . S
C1839 C1833 1.390 . S
C1839 C1836 1.386 . S
C1840 C1835 1.490 . S
C1840 C1842 1.395 . S
C1840 C1843 1.403 . S
H1841 C1847 0.930 . S
C1842 H1828 0.930 . S
C1842 C1840 1.395 . S
C1842 C1845 1.403 . S
C1843 C1840 1.403 . S
C1843 C1844 1.524 . S
C1843 C1847 1.400 . S
C1844 H1829 0.960 . S
C1844 H1830 0.960 . S
C1844 H1831 0.960 . S
C1844 C1843 1.524 . S
C1845 C1842 1.403 . S
C1845 C1846 1.392 . S
C1845 C1849 1.495 . S
C1846 C1845 1.392 . S
C1846 C1847 1.385 . S
C1846 C1848 1.532 . S
C1847 H1841 0.930 . S
C1847 C1843 1.400 . S
C1847 C1846 1.385 . S
C1848 C1846 1.532 . S
C1848 C1850 1.393 . S
C1848 C1854 1.320 1_655 S
C1849 C1845 1.495 . S
C1849 H1855 0.959 1_554 S
C1849 H1856 0.924 1_655 S
C1849 H1857 0.960 1_554 S
C1850 C1848 1.393 . S
C1850 C1851 1.394 1_655 S
C1850 H1858 0.930 . S
C1851 C1850 1.394 1_455 S
C1851 C1852 1.383 . S
C1851 H1859 0.929 . S
C1852 C1851 1.383 . S
C1852 C1853 1.377 . S
C1853 H1837 0.930 . S
C1853 C1852 1.377 . S
C1853 C1854 1.379 . S
C1854 H1838 0.931 . S
C1854 C1848 1.320 1_455 S
C1854 C1853 1.379 . S
H1855 C1849 0.959 1_556 S
H1856 C1849 0.924 1_455 S
H1857 C1849 0.960 1_556 S
H1858 C1850 0.930 . S
H1859 C1851 0.929 . S
H1860 C1868 0.929 . S
H1861 C1870 0.930 . S
H1862 C1872 0.930 . S
H1863 C1875 0.929 . S
H1864 C1878 0.930 . S
H1865 C1880 0.960 . S
H1866 C1880 0.960 . S
H1867 C1880 0.960 . S
C1868 H1860 0.929 . S
C1868 C1869 1.377 . S
C1868 C1870 1.384 . S
C1869 C1868 1.377 . S
C1869 C1875 1.390 . S
C1870 H1861 0.930 . S
C1870 C1868 1.384 . S
C1870 C1871 1.372 . S
C1871 C1870 1.372 . S
C1871 C1872 1.400 . S
C1871 C1876 1.490 . S
C1872 H1862 0.930 . S
C1872 C1871 1.400 . S
C1872 C1875 1.386 . S
H1873 C1889 0.930 . S
H1874 C1890 0.931 . S
C1875 H1863 0.929 . S
C1875 C1869 1.390 . S
C1875 C1872 1.386 . S
C1876 C1871 1.490 . S
C1876 C1878 1.395 . S
C1876 C1879 1.403 . S
H1877 C1883 0.930 . S
C1878 H1864 0.930 . S
C1878 C1876 1.395 . S
C1878 C1881 1.403 . S
C1879 C1876 1.403 . S
C1879 C1880 1.524 . S
C1879 C1883 1.400 . S
C1880 H1865 0.960 . S
C1880 H1866 0.960 . S
C1880 H1867 0.960 . S
C1880 C1879 1.524 . S
C1881 C1878 1.403 . S
C1881 C1882 1.392 . S
C1881 C1885 1.495 . S
C1882 C1881 1.392 . S
C1882 C1883 1.385 . S
C1882 C1884 1.478 . S
C1883 H1877 0.930 . S
C1883 C1879 1.400 . S
C1883 C1882 1.385 . S
C1884 C1882 1.478 . S
C1884 C1886 1.381 . S
C1884 C1890 1.383 . S
C1885 C1881 1.495 . S
C1885 H1891 0.959 . S
C1885 H1892 0.961 . S
C1885 H1893 0.960 . S
C1886 C1884 1.381 . S
C1886 C1887 1.394 . S
C1886 H1894 0.930 . S
C1887 C1886 1.394 . S
C1887 C1888 1.383 . S
C1887 H1895 0.929 . S
C1888 C1887 1.383 . S
C1888 C1889 1.377 . S
C1889 H1873 0.930 . S
C1889 C1888 1.377 . S
C1889 C1890 1.379 . S
C1890 H1874 0.931 . S
C1890 C1884 1.383 . S
C1890 C1889 1.379 . S
H1891 C1885 0.959 . S
H1892 C1885 0.961 . S
H1893 C1885 0.960 . S
H1894 C1886 0.930 . S
H1895 C1887 0.929 . S
H1896 C1904 0.929 . S
H1897 C1906 0.930 . S
H1898 C1908 0.930 . S
H1899 C1911 0.929 . S
H1900 C1914 0.930 . S
H1901 C1916 0.960 . S
H1902 C1916 0.960 . S
H1903 C1916 0.960 . S
C1904 H1896 0.929 . S
C1904 C1905 1.377 . S
C1904 C1906 1.384 . S
C1905 C1904 1.377 . S
C1905 C1911 1.390 . S
C1906 H1897 0.930 . S
C1906 C1904 1.384 . S
C1906 C1907 1.372 . S
C1907 C1906 1.372 . S
C1907 C1908 1.400 . S
C1907 C1912 1.490 . S
C1908 H1898 0.930 . S
C1908 C1907 1.400 . S
C1908 C1911 1.386 . S
H1909 C1925 0.930 . S
H1910 C1926 0.931 . S
C1911 H1899 0.929 . S
C1911 C1905 1.390 . S
C1911 C1908 1.386 . S
C1912 C1907 1.490 . S
C1912 C1914 1.395 . S
C1912 C1915 1.403 . S
H1913 C1919 0.930 . S
C1914 H1900 0.930 . S
C1914 C1912 1.395 . S
C1914 C1917 1.403 . S
C1915 C1912 1.403 . S
C1915 C1916 1.524 . S
C1915 C1919 1.400 . S
C1916 H1901 0.960 . S
C1916 H1902 0.960 . S
C1916 H1903 0.960 . S
C1916 C1915 1.524 . S
C1917 C1914 1.403 . S
C1917 C1918 1.392 . S
C1917 C1921 1.495 . S
C1918 C1917 1.392 . S
C1918 C1919 1.385 . S
C1918 C1920 1.478 . S
C1919 H1913 0.930 . S
C1919 C1915 1.400 . S
C1919 C1918 1.385 . S
C1920 C1918 1.478 . S
C1920 C1922 1.381 . S
C1920 C1926 1.383 . S
C1921 C1917 1.495 . S
C1921 H1927 0.959 . S
C1921 H1928 0.961 . S
C1921 H1929 0.960 . S
C1922 C1920 1.381 . S
C1922 C1923 1.394 . S
C1922 H1930 0.930 . S
C1923 C1922 1.394 . S
C1923 C1924 1.383 . S
C1923 H1931 0.929 . S
C1924 C1923 1.383 . S
C1924 C1925 1.377 . S
C1925 H1909 0.930 . S
C1925 C1924 1.377 . S
C1925 C1926 1.379 . S
C1926 H1910 0.931 . S
C1926 C1920 1.383 . S
C1926 C1925 1.379 . S
H1927 C1921 0.959 . S
H1928 C1921 0.961 . S
H1929 C1921 0.960 . S
H1930 C1922 0.930 . S
H1931 C1923 0.929 . S
H1932 C1940 0.929 . S
H1933 C1942 0.930 . S
H1934 C1944 0.930 . S
H1935 C1947 0.929 . S
H1936 C1950 0.930 . S
H1937 C1952 0.960 . S
H1938 C1952 0.960 . S
H1939 C1952 0.960 . S
C1940 H1932 0.929 . S
C1940 C1941 1.377 . S
C1940 C1942 1.384 . S
C1941 C1940 1.377 . S
C1941 C1947 1.390 . S
C1942 H1933 0.930 . S
C1942 C1940 1.384 . S
C1942 C1943 1.372 . S
C1943 C1942 1.372 . S
C1943 C1944 1.400 . S
C1943 C1948 1.490 . S
C1944 H1934 0.930 . S
C1944 C1943 1.400 . S
C1944 C1947 1.386 . S
H1945 C1961 0.930 . S
H1946 C1962 0.931 . S
C1947 H1935 0.929 . S
C1947 C1941 1.390 . S
C1947 C1944 1.386 . S
C1948 C1943 1.490 . S
C1948 C1950 1.395 . S
C1948 C1951 1.403 . S
H1949 C1955 0.930 . S
C1950 H1936 0.930 . S
C1950 C1948 1.395 . S
C1950 C1953 1.403 . S
C1951 C1948 1.403 . S
C1951 C1952 1.524 . S
C1951 C1955 1.400 . S
C1952 H1937 0.960 . S
C1952 H1938 0.960 . S
C1952 H1939 0.960 . S
C1952 C1951 1.524 . S
C1953 C1950 1.403 . S
C1953 C1954 1.392 . S
C1953 C1957 1.495 . S
C1954 C1953 1.392 . S
C1954 C1955 1.385 . S
C1954 C1956 1.478 . S
C1955 H1949 0.930 . S
C1955 C1951 1.400 . S
C1955 C1954 1.385 . S
C1956 C1954 1.478 . S
C1956 C1958 1.381 . S
C1956 C1962 1.383 . S
C1957 C1953 1.495 . S
C1957 H1963 0.959 . S
C1957 H1964 0.961 . S
C1957 H1965 0.960 . S
C1958 C1956 1.381 . S
C1958 C1959 1.394 . S
C1958 H1966 0.930 . S
C1959 C1958 1.394 . S
C1959 C1960 1.383 . S
C1959 H1967 0.929 . S
C1960 C1959 1.383 . S
C1960 C1961 1.377 . S
C1961 H1945 0.930 . S
C1961 C1960 1.377 . S
C1961 C1962 1.379 . S
C1962 H1946 0.931 . S
C1962 C1956 1.383 . S
C1962 C1961 1.379 . S
H1963 C1957 0.959 . S
H1964 C1957 0.961 . S
H1965 C1957 0.960 . S
H1966 C1958 0.930 . S
H1967 C1959 0.929 . S
C537 N5 1.442 . S
C556 N14 1.417 . S
C573 N38 1.442 . S
C592 N47 1.450 . S
C609 N71 1.434 . S
C628 N80 1.410 . S
C645 N104 1.437 . S
C664 N113 1.402 . S
C681 N137 1.442 . S
C700 N146 1.417 . S
C717 N170 1.434 . S
C736 N179 1.427 . S
C753 N203 1.441 . S
C772 N212 1.416 . S
C789 N245 1.429 . S
C808 N236 1.411 . S
C825 N278 1.426 . S
C844 N269 1.420 . S
C861 N302 1.436 . S
C880 N311 1.445 . S
C897 N335 1.442 . S
C916 N344 1.452 . S
C933 N377 1.429 . S
C952 N368 1.411 . S
C969 N410 1.430 . S
C988 N401 1.454 . S
C1005 N434 1.443 . S
C1024 N443 1.443 . S
C1041 N476 1.426 . S
C1060 N467 1.432 . S
C1077 N500 1.443 . S
C1096 N509 1.445 . S
C1113 C28 0.856 . S
C1132 C160 0.861 . S
C1149 C193 0.857 . S
C1168 C61 0.855 . S
C1185 C226 0.856 . S
C1204 C94 0.861 . S
C1221 C127 0.854 . S
C1240 C259 0.851 . S
C1257 C358 0.855 . S
C1276 C292 0.857 . S
C1293 C325 0.857 . S
C1312 C391 0.856 . S
C1329 C424 0.854 . S
C1348 C490 0.850 . S
C1365 C457 0.857 . S
C1384 C523 0.860 . S
C1401 C305 1.343 . S
C1420 C8 1.323 . S
C1437 C470 1.343 . S
C1456 C41 1.323 . S
C1473 C74 1.338 . S
C1492 C272 1.326 . S
C1509 C503 1.342 . S
C1528 C107 1.357 . S
C1545 C338 1.340 . S
C1564 C140 1.321 . S
C1581 C437 1.339 . S
C1600 C173 1.353 . S
C1617 C206 1.338 . S
C1636 C371 1.339 . S
C1653 C239 1.345 . S
C1672 C404 1.330 . S
C1689 C149 1.481 . S
C1708 C116 1.490 . S
C1725 C413 1.484 . S
C1744 C281 1.467 . S
C1761 C50 1.480 . S
C1780 C215 1.479 . S
C1797 C446 1.481 . S
C1816 C314 1.489 . S
C1833 C182 1.484 . S
C1852 C17 1.473 . S
C1869 C347 1.482 . S
C1888 C512 1.468 . S
C1905 C248 1.480 . S
C1924 C83 1.489 . S
C1941 C479 1.483 . S
C1960 C380 1.467 . S
