# Generated by pormake.
# Topology sni, (6)-cn, num edge types: 1
# Building blocks:
#     Node 0, Type 0, BuildingBlock: OJICUG_clean_sbu_0, # of connection points: 6
#     Node 1, Type 0, BuildingBlock: OJICUG_clean_sbu_0, # of connection points: 6
#     Node 2, Type 0, BuildingBlock: OJICUG_clean_sbu_0, # of connection points: 6
#     Node 3, Type 0, BuildingBlock: OJICUG_clean_sbu_0, # of connection points: 6
#     Node 4, Type 0, BuildingBlock: OJICUG_clean_sbu_0, # of connection points: 6
#     Node 5, Type 0, BuildingBlock: OJICUG_clean_sbu_0, # of connection points: 6
#     Node 6, Type 0, BuildingBlock: OJICUG_clean_sbu_0, # of connection points: 6
#     Node 7, Type 0, BuildingBlock: OJICUG_clean_sbu_0, # of connection points: 6
#     Edge 8, Type (0, 0), BuildingBlock: AJUNOK_clean_linker_0, # of connection points: 2
#     Edge 9, Type (0, 0), BuildingBlock: AJUNOK_clean_linker_0, # of connection points: 2
#     Edge 10, Type (0, 0), BuildingBlock: AJUNOK_clean_linker_0, # of connection points: 2
#     Edge 11, Type (0, 0), BuildingBlock: AJUNOK_clean_linker_0, # of connection points: 2
#     Edge 12, Type (0, 0), BuildingBlock: AJUNOK_clean_linker_0, # of connection points: 2
#     Edge 13, Type (0, 0), BuildingBlock: AJUNOK_clean_linker_0, # of connection points: 2
#     Edge 14, Type (0, 0), BuildingBlock: AJUNOK_clean_linker_0, # of connection points: 2
#     Edge 15, Type (0, 0), BuildingBlock: AJUNOK_clean_linker_0, # of connection points: 2
#     Edge 16, Type (0, 0), BuildingBlock: AJUNOK_clean_linker_0, # of connection points: 2
#     Edge 17, Type (0, 0), BuildingBlock: AJUNOK_clean_linker_0, # of connection points: 2
#     Edge 18, Type (0, 0), BuildingBlock: AJUNOK_clean_linker_0, # of connection points: 2
#     Edge 19, Type (0, 0), BuildingBlock: AJUNOK_clean_linker_0, # of connection points: 2
#     Edge 20, Type (0, 0), BuildingBlock: AJUNOK_clean_linker_0, # of connection points: 2
#     Edge 21, Type (0, 0), BuildingBlock: AJUNOK_clean_linker_0, # of connection points: 2
#     Edge 22, Type (0, 0), BuildingBlock: AJUNOK_clean_linker_0, # of connection points: 2
#     Edge 23, Type (0, 0), BuildingBlock: AJUNOK_clean_linker_0, # of connection points: 2
#     Edge 24, Type (0, 0), BuildingBlock: AJUNOK_clean_linker_0, # of connection points: 2
#     Edge 25, Type (0, 0), BuildingBlock: AJUNOK_clean_linker_0, # of connection points: 2
#     Edge 26, Type (0, 0), BuildingBlock: AJUNOK_clean_linker_0, # of connection points: 2
#     Edge 27, Type (0, 0), BuildingBlock: AJUNOK_clean_linker_0, # of connection points: 2
#     Edge 28, Type (0, 0), BuildingBlock: AJUNOK_clean_linker_0, # of connection points: 2
#     Edge 29, Type (0, 0), BuildingBlock: AJUNOK_clean_linker_0, # of connection points: 2
#     Edge 30, Type (0, 0), BuildingBlock: AJUNOK_clean_linker_0, # of connection points: 2
#     Edge 31, Type (0, 0), BuildingBlock: AJUNOK_clean_linker_0, # of connection points: 2
# Relax obj value: 0.093
# Max RMSD: 0.105
# Mean RMSD: 0.105
data_MOF--net-sni--node1-OJICUG_clean_sbu_0--edge1-AJUNOK_clean_linker_0
_symmetry_space_group_name_H-M    P1
_symmetry_Int_Tables_number       1
_symmetry_cell_setting            triclinic
loop_
_symmetry_equiv_pos_as_xyz
'x, y, z'
_cell_length_a     30.529776
_cell_length_b     30.495583
_cell_length_c     17.127537
_cell_angle_alpha  89.638018
_cell_angle_beta   90.231951
_cell_angle_gamma 90.00942
loop_
_atom_site_label
_atom_site_type_symbol
_atom_site_fract_x
_atom_site_fract_y
_atom_site_fract_z
_atom_type_partial_charge
Sc0 Sc 0.60031 0.09076 -0.00317 0.0
Sc1 Sc 0.70758 0.13072 -0.01028 0.0
Sc2 Sc 0.61787 0.20468 -0.01244 0.0
O3 O 0.64198 0.14222 -0.00851 0.0
C4 C 0.54931 0.1552 0.8801 0.0
C5 C 0.6703 0.05641 0.87636 0.0
C6 C 0.69593 0.20723 0.86383 0.0
C7 C 0.67706 0.05875 0.11065 0.0
C8 C 0.55796 0.15777 0.11591 0.0
C9 C 0.70068 0.21549 0.09924 0.0
O10 O 0.55553 0.11867 0.9141 0.0
O11 O 0.70219 0.07732 0.90646 0.0
O12 O 0.6618 0.22363 0.89454 0.0
O13 O 0.63953 0.05498 0.07948 0.0
O14 O 0.57138 0.19209 0.08063 0.0
O15 O 0.72089 0.18265 0.0714 0.0
O16 O 0.56674 0.11909 0.09359 0.0
O17 O 0.70525 0.08678 0.0888 0.0
O18 O 0.66281 0.22689 0.07586 0.0
O19 O 0.63114 0.05957 0.90023 0.0
O20 O 0.57035 0.18961 0.89815 0.0
O21 O 0.7155 0.17368 0.89125 0.0
Sc22 Sc 0.90877 0.60469 -0.00821 0.0
Sc23 Sc 0.87124 0.71272 0.98206 0.0
Sc24 Sc 0.79538 0.62467 -0.00531 0.0
O25 O 0.85827 0.64743 -0.01031 0.0
C26 C 0.83889 0.55216 0.88823 0.0
C27 C 0.93861 0.67139 0.86087 0.0
C28 C 0.78981 0.70153 0.86732 0.0
C29 C 0.94794 0.68319 0.09279 0.0
C30 C 0.8463 0.56541 0.12171 0.0
C31 C 0.79216 0.70901 0.10418 0.0
O32 O 0.87637 0.55865 0.91798 0.0
O33 O 0.9202 0.70454 0.89145 0.0
O34 O 0.77372 0.66782 0.90088 0.0
O35 O 0.94924 0.64479 0.06499 0.0
O36 O 0.81106 0.57895 0.08916 0.0
O37 O 0.82418 0.72799 0.07092 0.0
O38 O 0.88417 0.57359 0.09473 0.0
O39 O 0.91931 0.7113 0.07352 0.0
O40 O 0.77792 0.67164 0.08325 0.0
O41 O 0.93586 0.63285 0.88869 0.0
O42 O 0.80572 0.57508 0.90636 0.0
O43 O 0.82435 0.72056 0.89069 0.0
Sc44 Sc 0.28568 0.86239 -0.01449 0.0
Sc45 Sc 0.37474 0.78705 -0.01417 0.0
Sc46 Sc 0.39371 0.9004 0.97645 0.0
O47 O 0.35128 0.84977 0.98254 0.0
C48 C 0.31965 0.93024 0.85718 0.0
C49 C 0.29149 0.77869 0.87356 0.0
C50 C 0.44194 0.83107 0.86786 0.0
C51 C 0.29588 0.78365 0.1083 0.0
C52 C 0.32147 0.93985 0.0906 0.0
C53 C 0.44043 0.83776 0.09988 0.0
O54 O 0.28858 0.91016 0.89138 0.0
O55 O 0.32812 0.76511 0.89974 0.0
O56 O 0.43512 0.86894 0.89488 0.0
O57 O 0.27577 0.81638 0.07904 0.0
O58 O 0.35855 0.93923 0.05779 0.0
O59 O 0.42375 0.80267 0.073 0.0
O60 O 0.29125 0.91287 0.07351 0.0
O61 O 0.3317 0.76925 0.08073 0.0
O62 O 0.43151 0.8755 0.0722 0.0
O63 O 0.27284 0.81309 0.89892 0.0
O64 O 0.35929 0.92847 0.87963 0.0
O65 O 0.42107 0.79738 0.89124 0.0
Sc66 Sc 0.08233 0.38637 -0.01232 0.0
Sc67 Sc 0.12075 0.2786 -0.00916 0.0
Sc68 Sc 0.19566 0.36747 0.97777 0.0
O69 O 0.13313 0.34409 0.98534 0.0
C70 C 0.14245 0.42941 0.858 0.0
C71 C 0.04271 0.30934 0.88327 0.0
C72 C 0.19877 0.284 0.86647 0.0
C73 C 0.05388 0.31748 0.11552 0.0
C74 C 0.15361 0.43815 0.08959 0.0
C75 C 0.2044 0.28832 0.1008 0.0
O76 O 0.10533 0.41981 0.88642 0.0
O77 O 0.07168 0.28115 0.90076 0.0
O78 O 0.21221 0.32177 0.88669 0.0
O79 O 0.05646 0.35643 0.0898 0.0
O80 O 0.18666 0.41593 0.06842 0.0
O81 O 0.16916 0.2696 0.07972 0.0
O82 O 0.11551 0.43132 0.06265 0.0
O83 O 0.07242 0.28497 0.0831 0.0
O84 O 0.21896 0.32304 0.06823 0.0
O85 O 0.04135 0.34727 0.91317 0.0
O86 O 0.17829 0.4146 0.88642 0.0
O87 O 0.16729 0.26462 0.90058 0.0
Sc88 Sc 0.62561 0.79282 0.48399 0.0
Sc89 Sc 0.71127 0.87162 0.49366 0.0
Sc90 Sc 0.60176 0.90586 0.48724 0.0
O91 O 0.64631 0.85665 0.48833 0.0
C92 C 0.55867 0.83896 0.36689 0.0
C93 C 0.70868 0.79277 0.37074 0.0
C94 C 0.67509 0.94482 0.37616 0.0
C95 C 0.70556 0.78699 0.60395 0.0
C96 C 0.55855 0.83587 0.60289 0.0
C97 C 0.67212 0.94353 0.60783 0.0
O98 O 0.57882 0.80511 0.39141 0.0
O99 O 0.72612 0.82657 0.40101 0.0
O100 O 0.6355 0.94172 0.39784 0.0
O101 O 0.66989 0.77249 0.57567 0.0
O102 O 0.56466 0.87466 0.57767 0.0
O103 O 0.70354 0.91869 0.58761 0.0
O104 O 0.57672 0.80231 0.57352 0.0
O105 O 0.72374 0.82213 0.58044 0.0
O106 O 0.63461 0.94206 0.57603 0.0
O107 O 0.67258 0.77676 0.39463 0.0
O108 O 0.56359 0.87646 0.39711 0.0
O109 O 0.70616 0.9224 0.4056 0.0
Sc110 Sc 0.2008 0.61576 0.4845 0.0
Sc111 Sc 0.12797 0.70685 0.48758 0.0
Sc112 Sc 0.08696 0.60035 0.46704 0.0
O113 O 0.13872 0.64106 0.47983 0.0
C114 C 0.15601 0.55673 0.35278 0.0
C115 C 0.21193 0.70065 0.3764 0.0
C116 C 0.05913 0.67988 0.35746 0.0
C117 C 0.20532 0.69276 0.61089 0.0
C118 C 0.14684 0.54834 0.58963 0.0
C119 C 0.04905 0.66915 0.58883 0.0
O120 O 0.19009 0.57131 0.38694 0.0
O121 O 0.17858 0.72024 0.40372 0.0
O122 O 0.05786 0.63985 0.37751 0.0
O123 O 0.21963 0.6574 0.5812 0.0
O124 O 0.11086 0.55684 0.55547 0.0
O125 O 0.07574 0.69989 0.57241 0.0
O126 O 0.18287 0.56638 0.57033 0.0
O127 O 0.17256 0.71328 0.58316 0.0
O128 O 0.05003 0.63221 0.55538 0.0
O129 O 0.22423 0.66292 0.39995 0.0
O130 O 0.11762 0.56449 0.37658 0.0
O131 O 0.08229 0.70849 0.39161 0.0
Sc132 Sc 0.36821 0.19938 0.4898 0.0
Sc133 Sc 0.28218 0.12095 0.48052 0.0
Sc134 Sc 0.39148 0.08673 0.48403 0.0
O135 O 0.34721 0.13586 0.48485 0.0
C136 C 0.44066 0.15829 0.37964 0.0
C137 C 0.28939 0.20432 0.36706 0.0
C138 C 0.32282 0.05412 0.35802 0.0
C139 C 0.28498 0.20003 0.60243 0.0
C140 C 0.43177 0.15036 0.61144 0.0
C141 C 0.31638 0.04485 0.59065 0.0
O142 O 0.41745 0.1909 0.39991 0.0
O143 O 0.27149 0.16888 0.39014 0.0
O144 O 0.36174 0.058 0.38347 0.0
O145 O 0.32166 0.21538 0.58008 0.0
O146 O 0.42475 0.11236 0.58396 0.0
O147 O 0.28626 0.07153 0.57127 0.0
O148 O 0.41508 0.18496 0.58176 0.0
O149 O 0.26696 0.1672 0.57028 0.0
O150 O 0.35434 0.04611 0.56104 0.0
O151 O 0.32369 0.22007 0.39861 0.0
O152 O 0.43493 0.12012 0.40717 0.0
O153 O 0.29001 0.07254 0.38949 0.0
Sc154 Sc 0.79064 0.37646 0.49194 0.0
Sc155 Sc 0.86238 0.28474 0.48716 0.0
Sc156 Sc 0.90482 0.3911 0.50428 0.0
O157 O 0.85249 0.35073 0.4943 0.0
C158 C 0.8434 0.44565 0.38754 0.0
C159 C 0.78578 0.30047 0.36326 0.0
C160 C 0.94101 0.32111 0.38354 0.0
C161 C 0.77794 0.29059 0.59661 0.0
C162 C 0.83752 0.43464 0.62247 0.0
C163 C 0.93191 0.31166 0.61608 0.0
O164 O 0.8079 0.42686 0.40763 0.0
O165 O 0.81857 0.27948 0.38993 0.0
O166 O 0.94018 0.35892 0.41398 0.0
O167 O 0.76683 0.32915 0.57588 0.0
O168 O 0.87555 0.42711 0.59644 0.0
O169 O 0.90702 0.28331 0.585 0.0
O170 O 0.80291 0.41993 0.59015 0.0
O171 O 0.81089 0.27088 0.56851 0.0
O172 O 0.9348 0.35106 0.5926 0.0
O173 O 0.77133 0.33541 0.39451 0.0
O174 O 0.88023 0.43578 0.41754 0.0
O175 O 0.91522 0.29049 0.40409 0.0
C176 C 0.47015 0.19421 0.25807 0.0
C177 C 0.47471 0.1632 0.31885 0.0
C178 C 0.49848 0.19383 0.19348 0.0
C179 C 0.5319 0.16224 0.18775 0.0
H180 H 0.44331 0.21744 0.25848 0.0
H181 H 0.49287 0.21691 0.14617 0.0
S182 S 0.56265 0.07944 0.33774 0.0
N183 N 0.51926 0.10425 0.3739 0.0
N184 N 0.57163 0.10325 0.25252 0.0
C185 C 0.53858 0.13317 0.25052 0.0
C186 C 0.51021 0.13374 0.31611 0.0
C187 C 0.80757 0.51087 0.20775 0.0
C188 C 0.84383 0.53824 0.19366 0.0
C189 C 0.80698 0.4819 0.27189 0.0
C190 C 0.84257 0.47938 0.32443 0.0
H191 H 0.78012 0.51066 0.16747 0.0
H192 H 0.77902 0.46038 0.27881 0.0
S193 S 0.94255 0.54909 0.31964 0.0
N194 N 0.91417 0.56434 0.24194 0.0
N195 N 0.91311 0.51038 0.36206 0.0
C196 C 0.87802 0.50834 0.31302 0.0
C197 C 0.87862 0.53761 0.24783 0.0
C198 C 0.52226 0.87402 0.25283 0.0
C199 C 0.52949 0.83604 0.29799 0.0
C200 C 0.49406 0.87374 0.18869 0.0
C201 C 0.4715 0.83548 0.16665 0.0
H202 H 0.53862 0.90452 0.26691 0.0
H203 H 0.48989 0.90414 0.15645 0.0
S204 S 0.47896 0.72697 0.26584 0.0
N205 N 0.51223 0.75883 0.31638 0.0
N206 N 0.45856 0.75817 0.19543 0.0
C207 C 0.47877 0.79691 0.21072 0.0
C208 C 0.50792 0.7972 0.27633 0.0
C209 C 0.19242 0.47085 0.20599 0.0
C210 C 0.15823 0.4724 0.15039 0.0
C211 C 0.19316 0.49968 0.26999 0.0
C212 C 0.15962 0.53072 0.28036 0.0
H213 H 0.21765 0.446 0.20207 0.0
H214 H 0.21886 0.49623 0.31338 0.0
S215 S 0.06662 0.5527 0.1451 0.0
N216 N 0.09306 0.51134 0.1055 0.0
N217 N 0.09426 0.56464 0.22511 0.0
C218 C 0.12695 0.53435 0.22249 0.0
C219 C 0.12629 0.50543 0.15771 0.0
C220 C 0.49975 0.79803 0.68066 0.0
C221 C 0.53194 0.83085 0.67394 0.0
C222 C 0.47163 0.79659 0.74562 0.0
C223 C 0.47531 0.82773 0.80567 0.0
H224 H 0.49507 0.77461 0.63406 0.0
H225 H 0.44577 0.77227 0.74711 0.0
S226 S 0.56004 0.91494 0.8213 0.0
N227 N 0.56951 0.89147 0.73653 0.0
N228 N 0.5178 0.88847 0.85863 0.0
C229 C 0.50958 0.85865 0.80164 0.0
C230 C 0.53759 0.8603 0.7357 0.0
C231 C 0.18267 0.46827 0.74944 0.0
C232 C 0.1433 0.4597 0.78948 0.0
C233 C 0.18378 0.49689 0.68481 0.0
C234 C 0.14555 0.51783 0.65749 0.0
H235 H 0.2129 0.45272 0.7679 0.0
H236 H 0.21478 0.50237 0.65579 0.0
S237 S 0.03433 0.50893 0.74426 0.0
N238 N 0.06522 0.47628 0.79819 0.0
N239 N 0.06748 0.5296 0.67789 0.0
C240 C 0.10606 0.50994 0.69753 0.0
C241 C 0.10489 0.48104 0.76312 0.0
C242 C 0.4789 0.11504 0.71309 0.0
C243 C 0.46096 0.15367 0.68083 0.0
C244 C 0.50679 0.1162 0.77768 0.0
C245 C 0.51831 0.15603 0.81329 0.0
H246 H 0.47165 0.08327 0.68823 0.0
H247 H 0.51995 0.08534 0.79895 0.0
S248 S 0.47979 0.26674 0.75353 0.0
N249 N 0.45627 0.23323 0.69067 0.0
N250 N 0.50911 0.23526 0.81258 0.0
C251 C 0.50062 0.19506 0.78228 0.0
C252 C 0.47185 0.19391 0.71615 0.0
C253 C 0.80017 0.51812 0.77295 0.0
C254 C 0.83543 0.5182 0.82647 0.0
C255 C 0.79978 0.48974 0.70839 0.0
C256 C 0.83479 0.46078 0.69496 0.0
H257 H 0.77353 0.54126 0.77916 0.0
H258 H 0.7729 0.49183 0.66706 0.0
S259 S 0.9319 0.44368 0.82304 0.0
N260 N 0.90388 0.48302 0.86555 0.0
N261 N 0.90332 0.4307 0.74465 0.0
C262 C 0.86894 0.45889 0.7503 0.0
C263 C 0.86922 0.48731 0.81588 0.0
C264 C -0.00367 0.70671 0.77798 0.0
C265 C 0.96211 0.67631 0.78666 0.0
C266 C 0.02333 0.7059 0.71164 0.0
C267 C 0.01659 0.67481 0.65217 0.0
H268 H 0.00372 0.72955 0.82441 0.0
H269 H 0.05084 0.72829 0.70884 0.0
S270 S 0.92588 0.59347 0.64286 0.0
N271 N 0.91945 0.6181 0.72752 0.0
N272 N 0.96903 0.6169 0.60252 0.0
C273 C 0.98017 0.64654 0.65822 0.0
C274 C 0.95323 0.6472 0.72564 0.0
C275 C 0.33667 0.97484 0.65547 0.0
C276 C 0.30914 0.01186 0.65291 0.0
C277 C 0.33773 0.94719 0.72049 0.0
C278 C 0.31086 0.95499 0.78507 0.0
H279 H 0.3592 0.9682 0.60826 0.0
H280 H 0.36107 0.92039 0.72153 0.0
S281 S 0.22967 0.04433 0.80537 0.0
N282 N 0.25179 0.05287 0.71867 0.0
N283 N 0.25343 -0.0002 0.84116 0.0
C284 C 0.28079 0.98975 0.78154 0.0
C285 C 0.27993 0.01845 0.71519 0.0
C286 C 0.00048 0.2871 0.68072 0.0
C287 C 0.95654 0.30012 0.68653 0.0
C288 C 0.02769 0.2865 0.74686 0.0
C289 C 0.01175 0.29995 0.81981 0.0
H290 H 0.01445 0.27981 0.6242 0.0
H291 H 0.06206 0.27865 0.73976 0.0
S292 S 0.89758 0.33124 0.86623 0.0
N293 N 0.89702 0.32199 0.77126 0.0
N294 N 0.94843 0.32208 0.89551 0.0
C295 C 0.96719 0.31038 0.82689 0.0
C296 C 0.93945 0.31022 0.76002 0.0
C297 C 0.70341 0.99338 0.80353 0.0
C298 C 0.67718 0.03127 0.80446 0.0
C299 C 0.70382 0.96586 0.73774 0.0
C300 C 0.67801 0.97567 0.6715 0.0
H301 H 0.72184 0.98387 0.85508 0.0
H302 H 0.72255 0.93572 0.74034 0.0
S303 S 0.60966 0.07525 0.64184 0.0
N304 N 0.62897 0.07982 0.73156 0.0
N305 N 0.63011 0.02903 0.60799 0.0
C306 C 0.65419 0.01522 0.67046 0.0
C307 C 0.65365 0.04278 0.73703 0.0
C308 C 0.03596 0.34193 0.24826 0.0
C309 C 0.02943 0.31138 0.18844 0.0
C310 C 0.00849 0.34302 0.31294 0.0
C311 C 0.97297 0.31387 0.32014 0.0
H312 H 0.06171 0.36629 0.24371 0.0
H313 H 0.01436 0.36807 0.35633 0.0
S314 S 0.94387 0.22544 0.18113 0.0
N315 N 0.98711 0.24939 0.14176 0.0
N316 N 0.93454 0.25149 0.26372 0.0
C317 C 0.96752 0.2814 0.26265 0.0
C318 C 0.99599 0.28016 0.1966 0.0
C319 C 0.68458 0.95684 0.23443 0.0
C320 C 0.68439 0.97403 0.31022 0.0
C321 C 0.68509 0.98475 0.16921 0.0
C322 C 0.68631 0.03049 0.17819 0.0
H323 H 0.6819 0.92178 0.22559 0.0
H324 H 0.68268 0.9706 0.11147 0.0
S325 S 0.68792 0.09126 0.36467 0.0
N326 N 0.68647 0.03905 0.39116 0.0
N327 N 0.68873 0.09169 0.26817 0.0
C328 C 0.68828 0.04794 0.25371 0.0
C329 C 0.68693 0.01956 0.32006 0.0
C330 C 0.96242 0.70471 0.22959 0.0
C331 C 0.97867 0.69331 0.15582 0.0
C332 C 0.98983 0.70376 0.29535 0.0
C333 C 0.03413 0.69233 0.2882 0.0
H334 H 0.92779 0.71104 0.23744 0.0
H335 H 0.97579 0.70928 0.35246 0.0
S336 S 0.09364 0.66711 0.10619 0.0
N337 N 0.04239 0.67503 0.07798 0.0
N338 N 0.09421 0.67445 0.2017 0.0
C339 C 0.05143 0.68449 0.21403 0.0
C340 C 0.02352 0.68472 0.1475 0.0
C341 C 0.34676 0.00613 0.16141 0.0
C342 C 0.31564 0.97224 0.15401 0.0
C343 C 0.34749 0.03333 0.22642 0.0
C344 C 0.31671 0.02846 0.28633 0.0
H345 H 0.372 0.0109 0.11789 0.0
H346 H 0.37311 0.05784 0.23064 0.0
S347 S 0.22576 0.9481 0.29324 0.0
N348 N 0.25125 0.93735 0.2106 0.0
N349 N 0.25227 0.98973 0.33278 0.0
C350 C 0.2836 -0.00318 0.27806 0.0
C351 C 0.28312 0.96844 0.21183 0.0
C352 C 0.78619 0.25189 0.24658 0.0
C353 C 0.7637 0.28234 0.29313 0.0
C354 C 0.76582 0.23144 0.18332 0.0
C355 C 0.72194 0.2404 0.16349 0.0
H356 H 0.8199 0.24329 0.25941 0.0
H357 H 0.78472 0.20793 0.15035 0.0
S358 S 0.64864 0.31869 0.26526 0.0
N359 N 0.69535 0.32146 0.31383 0.0
N360 N 0.65682 0.28299 0.19476 0.0
C361 C 0.69926 0.27172 0.20826 0.0
C362 C 0.72018 0.29269 0.27294 0.0
C363 C 0.72857 0.72003 0.19434 0.0
C364 C 0.77154 0.73088 0.172 0.0
C365 C 0.70867 0.74001 0.25865 0.0
C366 C 0.73098 0.77154 0.30367 0.0
H367 H 0.70991 0.69617 0.16145 0.0
H368 H 0.67533 0.7308 0.27264 0.0
S369 S 0.84561 0.80897 0.27324 0.0
N370 N 0.83668 0.77363 0.20243 0.0
N371 N 0.79952 0.81102 0.32306 0.0
C372 C 0.77432 0.78215 0.28263 0.0
C373 C 0.7945 0.76191 0.21698 0.0
C374 C 0.23408 0.77438 0.20214 0.0
C375 C 0.27623 0.76184 0.17771 0.0
C376 C 0.2142 0.7549 0.26695 0.0
C377 C 0.23542 0.72183 0.31049 0.0
H378 H 0.21582 0.79933 0.17067 0.0
H379 H 0.18145 0.76548 0.28201 0.0
S380 S 0.34714 0.67844 0.27439 0.0
N381 N 0.33939 0.71519 0.20452 0.0
N382 N 0.30174 0.67836 0.32644 0.0
C383 C 0.27782 0.70919 0.28763 0.0
C384 C 0.29825 0.72921 0.22138 0.0
C385 C 0.24003 0.20411 0.25104 0.0
C386 C 0.26971 0.22708 0.29866 0.0
C387 C 0.22008 0.22411 0.18669 0.0
C388 C 0.22878 0.26808 0.16675 0.0
H389 H 0.23198 0.17016 0.26327 0.0
H390 H 0.19742 0.20471 0.15242 0.0
S391 S 0.30396 0.34312 0.27207 0.0
N392 N 0.30717 0.29643 0.32114 0.0
N393 N 0.2693 0.33419 0.19964 0.0
C394 C 0.25888 0.29147 0.21294 0.0
C395 C 0.27937 0.27097 0.27896 0.0
C396 C 0.21135 0.7515 0.71128 0.0
C397 C 0.22766 0.71218 0.67987 0.0
C398 C 0.23188 0.77207 0.77411 0.0
C399 C 0.26984 0.75444 0.80894 0.0
H400 H 0.18249 0.76713 0.68683 0.0
H401 H 0.21791 0.80251 0.79471 0.0
S402 S 0.32504 0.65085 0.75187 0.0
N403 N 0.28349 0.65542 0.69042 0.0
N404 N 0.32224 0.69415 0.80899 0.0
C405 C 0.28624 0.71463 0.77934 0.0
C406 C 0.26516 0.69352 0.7149 0.0
C407 C 0.27714 0.26124 0.69891 0.0
C408 C 0.26244 0.22074 0.66969 0.0
C409 C 0.25649 0.28132 0.76233 0.0
C410 C 0.22032 0.26173 0.79965 0.0
H411 H 0.30476 0.27784 0.67241 0.0
H412 H 0.26913 0.31255 0.7821 0.0
S413 S 0.16939 0.15499 0.74706 0.0
N414 N 0.20969 0.16128 0.68419 0.0
N415 N 0.17093 0.19891 0.80266 0.0
C416 C 0.20539 0.22103 0.77127 0.0
C417 C 0.22637 0.20062 0.70661 0.0
C418 C 0.73049 0.2933 0.71551 0.0
C419 C 0.75329 0.26842 0.65984 0.0
C420 C 0.71097 0.27324 0.78056 0.0
C421 C 0.71376 0.22765 0.79232 0.0
H422 H 0.72898 0.3287 0.71036 0.0
H423 H 0.69486 0.29372 0.82319 0.0
S424 S 0.76342 0.14704 0.65755 0.0
N425 N 0.77308 0.19517 0.61647 0.0
N426 N 0.7366 0.15767 0.73871 0.0
C427 C 0.7345 0.20219 0.73518 0.0
C428 C 0.75419 0.22251 0.66895 0.0
C429 C 0.70242 0.73928 0.72349 0.0
C430 C 0.72727 0.76205 0.66725 0.0
C431 C 0.72276 0.71839 0.78733 0.0
C432 C 0.76853 0.71965 0.79661 0.0
H433 H 0.66699 0.73885 0.71959 0.0
H434 H 0.7025 0.70251 0.8309 0.0
S435 S 0.8485 0.76833 0.65804 0.0
N436 N 0.80012 0.78015 0.6201 0.0
N437 N 0.83831 0.74076 0.73915 0.0
C438 C 0.79375 0.74021 0.73829 0.0
C439 C 0.77312 0.76148 0.67385 0.0
loop_
_geom_bond_atom_site_label_1
_geom_bond_atom_site_label_2
_geom_bond_distance
_geom_bond_site_symmetry_2
_ccdc_geom_bond_type
Sc0 O3 2.025 . S
Sc0 O10 2.105 1_554 S
Sc0 O13 2.105 . S
Sc0 O16 2.105 . S
Sc0 O19 2.105 1_554 S
Sc1 O3 2.025 . S
Sc1 O11 2.105 1_554 S
Sc1 O15 2.105 . S
Sc1 O17 2.105 . S
Sc1 O21 2.105 1_554 S
Sc2 O3 2.025 . S
Sc2 O12 2.105 1_554 S
Sc2 O14 2.105 . S
Sc2 O18 2.105 . S
Sc2 O20 2.105 1_554 S
O3 Sc0 2.025 . S
O3 Sc1 2.025 . S
O3 Sc2 2.025 . S
C4 O10 1.268 . S
C4 O20 1.268 . S
C5 O11 1.268 . S
C5 O19 1.268 . S
C6 O12 1.268 . S
C6 O21 1.268 . S
C7 O13 1.268 . S
C7 O17 1.268 . S
C8 O14 1.268 . S
C8 O16 1.268 . S
C9 O15 1.268 . S
C9 O18 1.268 . S
O10 Sc0 2.105 1_556 S
O10 C4 1.268 . S
O11 Sc1 2.105 1_556 S
O11 C5 1.268 . S
O12 Sc2 2.105 1_556 S
O12 C6 1.268 . S
O13 Sc0 2.105 . S
O13 C7 1.268 . S
O14 Sc2 2.105 . S
O14 C8 1.268 . S
O15 Sc1 2.105 . S
O15 C9 1.268 . S
O16 Sc0 2.105 . S
O16 C8 1.268 . S
O17 Sc1 2.105 . S
O17 C7 1.268 . S
O18 Sc2 2.105 . S
O18 C9 1.268 . S
O19 Sc0 2.105 1_556 S
O19 C5 1.268 . S
O20 Sc2 2.105 1_556 S
O20 C4 1.268 . S
O21 Sc1 2.105 1_556 S
O21 C6 1.268 . S
Sc22 O25 2.025 . S
Sc22 O32 2.105 1_554 S
Sc22 O35 2.105 . S
Sc22 O38 2.105 . S
Sc22 O41 2.105 1_554 S
Sc23 O25 2.025 . S
Sc23 O33 2.105 1_554 S
Sc23 O37 2.105 . S
Sc23 O39 2.105 . S
Sc23 O43 2.105 1_554 S
Sc24 O25 2.025 . S
Sc24 O34 2.105 1_554 S
Sc24 O36 2.105 . S
Sc24 O40 2.105 . S
Sc24 O42 2.105 1_554 S
O25 Sc22 2.025 . S
O25 Sc23 2.025 . S
O25 Sc24 2.025 . S
C26 O32 1.268 . S
C26 O42 1.268 . S
C27 O33 1.268 . S
C27 O41 1.268 . S
C28 O34 1.268 . S
C28 O43 1.268 . S
C29 O35 1.268 . S
C29 O39 1.268 . S
C30 O36 1.268 . S
C30 O38 1.268 . S
C31 O37 1.268 . S
C31 O40 1.268 . S
O32 Sc22 2.105 1_556 S
O32 C26 1.268 . S
O33 Sc23 2.105 1_556 S
O33 C27 1.268 . S
O34 Sc24 2.105 1_556 S
O34 C28 1.268 . S
O35 Sc22 2.105 . S
O35 C29 1.268 . S
O36 Sc24 2.105 . S
O36 C30 1.268 . S
O37 Sc23 2.105 . S
O37 C31 1.268 . S
O38 Sc22 2.105 . S
O38 C30 1.268 . S
O39 Sc23 2.105 . S
O39 C29 1.268 . S
O40 Sc24 2.105 . S
O40 C31 1.268 . S
O41 Sc22 2.105 1_556 S
O41 C27 1.268 . S
O42 Sc24 2.105 1_556 S
O42 C26 1.268 . S
O43 Sc23 2.105 1_556 S
O43 C28 1.268 . S
Sc44 O47 2.025 . S
Sc44 O54 2.105 1_554 S
Sc44 O57 2.105 . S
Sc44 O60 2.105 . S
Sc44 O63 2.105 1_554 S
Sc45 O47 2.025 . S
Sc45 O55 2.105 1_554 S
Sc45 O59 2.105 . S
Sc45 O61 2.105 . S
Sc45 O65 2.105 1_554 S
Sc46 O47 2.025 . S
Sc46 O56 2.105 1_554 S
Sc46 O58 2.105 . S
Sc46 O62 2.105 . S
Sc46 O64 2.105 1_554 S
O47 Sc44 2.025 . S
O47 Sc45 2.025 . S
O47 Sc46 2.025 . S
C48 O54 1.268 . S
C48 O64 1.268 . S
C49 O55 1.268 . S
C49 O63 1.268 . S
C50 O56 1.268 . S
C50 O65 1.268 . S
C51 O57 1.268 . S
C51 O61 1.268 . S
C52 O58 1.268 . S
C52 O60 1.268 . S
C53 O59 1.268 . S
C53 O62 1.268 . S
O54 Sc44 2.105 1_556 S
O54 C48 1.268 . S
O55 Sc45 2.105 1_556 S
O55 C49 1.268 . S
O56 Sc46 2.105 1_556 S
O56 C50 1.268 . S
O57 Sc44 2.105 . S
O57 C51 1.268 . S
O58 Sc46 2.105 . S
O58 C52 1.268 . S
O59 Sc45 2.105 . S
O59 C53 1.268 . S
O60 Sc44 2.105 . S
O60 C52 1.268 . S
O61 Sc45 2.105 . S
O61 C51 1.268 . S
O62 Sc46 2.105 . S
O62 C53 1.268 . S
O63 Sc44 2.105 1_556 S
O63 C49 1.268 . S
O64 Sc46 2.105 1_556 S
O64 C48 1.268 . S
O65 Sc45 2.105 1_556 S
O65 C50 1.268 . S
Sc66 O69 2.025 . S
Sc66 O76 2.105 1_554 S
Sc66 O79 2.105 . S
Sc66 O82 2.105 . S
Sc66 O85 2.105 1_554 S
Sc67 O69 2.025 . S
Sc67 O77 2.105 1_554 S
Sc67 O81 2.105 . S
Sc67 O83 2.105 . S
Sc67 O87 2.105 1_554 S
Sc68 O69 2.025 . S
Sc68 O78 2.105 1_554 S
Sc68 O80 2.105 . S
Sc68 O84 2.105 . S
Sc68 O86 2.105 1_554 S
O69 Sc66 2.025 . S
O69 Sc67 2.025 . S
O69 Sc68 2.025 . S
C70 O76 1.268 . S
C70 O86 1.268 . S
C71 O77 1.268 . S
C71 O85 1.268 . S
C72 O78 1.268 . S
C72 O87 1.268 . S
C73 O79 1.268 . S
C73 O83 1.268 . S
C74 O80 1.268 . S
C74 O82 1.268 . S
C75 O81 1.268 . S
C75 O84 1.268 . S
O76 Sc66 2.105 1_556 S
O76 C70 1.268 . S
O77 Sc67 2.105 1_556 S
O77 C71 1.268 . S
O78 Sc68 2.105 1_556 S
O78 C72 1.268 . S
O79 Sc66 2.105 . S
O79 C73 1.268 . S
O80 Sc68 2.105 . S
O80 C74 1.268 . S
O81 Sc67 2.105 . S
O81 C75 1.268 . S
O82 Sc66 2.105 . S
O82 C74 1.268 . S
O83 Sc67 2.105 . S
O83 C73 1.268 . S
O84 Sc68 2.105 . S
O84 C75 1.268 . S
O85 Sc66 2.105 1_556 S
O85 C71 1.268 . S
O86 Sc68 2.105 1_556 S
O86 C70 1.268 . S
O87 Sc67 2.105 1_556 S
O87 C72 1.268 . S
Sc88 O91 2.025 . S
Sc88 O98 2.105 . S
Sc88 O101 2.105 . S
Sc88 O104 2.105 . S
Sc88 O107 2.105 . S
Sc89 O91 2.025 . S
Sc89 O99 2.105 . S
Sc89 O103 2.105 . S
Sc89 O105 2.105 . S
Sc89 O109 2.105 . S
Sc90 O91 2.025 . S
Sc90 O100 2.105 . S
Sc90 O102 2.105 . S
Sc90 O106 2.105 . S
Sc90 O108 2.105 . S
O91 Sc88 2.025 . S
O91 Sc89 2.025 . S
O91 Sc90 2.025 . S
C92 O98 1.268 . S
C92 O108 1.268 . S
C93 O99 1.268 . S
C93 O107 1.268 . S
C94 O100 1.268 . S
C94 O109 1.268 . S
C95 O101 1.268 . S
C95 O105 1.268 . S
C96 O102 1.268 . S
C96 O104 1.268 . S
C97 O103 1.268 . S
C97 O106 1.268 . S
O98 Sc88 2.105 . S
O98 C92 1.268 . S
O99 Sc89 2.105 . S
O99 C93 1.268 . S
O100 Sc90 2.105 . S
O100 C94 1.268 . S
O101 Sc88 2.105 . S
O101 C95 1.268 . S
O102 Sc90 2.105 . S
O102 C96 1.268 . S
O103 Sc89 2.105 . S
O103 C97 1.268 . S
O104 Sc88 2.105 . S
O104 C96 1.268 . S
O105 Sc89 2.105 . S
O105 C95 1.268 . S
O106 Sc90 2.105 . S
O106 C97 1.268 . S
O107 Sc88 2.105 . S
O107 C93 1.268 . S
O108 Sc90 2.105 . S
O108 C92 1.268 . S
O109 Sc89 2.105 . S
O109 C94 1.268 . S
Sc110 O113 2.025 . S
Sc110 O120 2.105 . S
Sc110 O123 2.105 . S
Sc110 O126 2.105 . S
Sc110 O129 2.105 . S
Sc111 O113 2.025 . S
Sc111 O121 2.105 . S
Sc111 O125 2.105 . S
Sc111 O127 2.105 . S
Sc111 O131 2.105 . S
Sc112 O113 2.025 . S
Sc112 O122 2.105 . S
Sc112 O124 2.105 . S
Sc112 O128 2.105 . S
Sc112 O130 2.105 . S
O113 Sc110 2.025 . S
O113 Sc111 2.025 . S
O113 Sc112 2.025 . S
C114 O120 1.268 . S
C114 O130 1.268 . S
C115 O121 1.268 . S
C115 O129 1.268 . S
C116 O122 1.268 . S
C116 O131 1.268 . S
C117 O123 1.268 . S
C117 O127 1.268 . S
C118 O124 1.268 . S
C118 O126 1.268 . S
C119 O125 1.268 . S
C119 O128 1.268 . S
O120 Sc110 2.105 . S
O120 C114 1.268 . S
O121 Sc111 2.105 . S
O121 C115 1.268 . S
O122 Sc112 2.105 . S
O122 C116 1.268 . S
O123 Sc110 2.105 . S
O123 C117 1.268 . S
O124 Sc112 2.105 . S
O124 C118 1.268 . S
O125 Sc111 2.105 . S
O125 C119 1.268 . S
O126 Sc110 2.105 . S
O126 C118 1.268 . S
O127 Sc111 2.105 . S
O127 C117 1.268 . S
O128 Sc112 2.105 . S
O128 C119 1.268 . S
O129 Sc110 2.105 . S
O129 C115 1.268 . S
O130 Sc112 2.105 . S
O130 C114 1.268 . S
O131 Sc111 2.105 . S
O131 C116 1.268 . S
Sc132 O135 2.025 . S
Sc132 O142 2.105 . S
Sc132 O145 2.105 . S
Sc132 O148 2.105 . S
Sc132 O151 2.105 . S
Sc133 O135 2.025 . S
Sc133 O143 2.105 . S
Sc133 O147 2.105 . S
Sc133 O149 2.105 . S
Sc133 O153 2.105 . S
Sc134 O135 2.025 . S
Sc134 O144 2.105 . S
Sc134 O146 2.105 . S
Sc134 O150 2.105 . S
Sc134 O152 2.105 . S
O135 Sc132 2.025 . S
O135 Sc133 2.025 . S
O135 Sc134 2.025 . S
C136 O142 1.268 . S
C136 O152 1.268 . S
C137 O143 1.268 . S
C137 O151 1.268 . S
C138 O144 1.268 . S
C138 O153 1.268 . S
C139 O145 1.268 . S
C139 O149 1.268 . S
C140 O146 1.268 . S
C140 O148 1.268 . S
C141 O147 1.268 . S
C141 O150 1.268 . S
O142 Sc132 2.105 . S
O142 C136 1.268 . S
O143 Sc133 2.105 . S
O143 C137 1.268 . S
O144 Sc134 2.105 . S
O144 C138 1.268 . S
O145 Sc132 2.105 . S
O145 C139 1.268 . S
O146 Sc134 2.105 . S
O146 C140 1.268 . S
O147 Sc133 2.105 . S
O147 C141 1.268 . S
O148 Sc132 2.105 . S
O148 C140 1.268 . S
O149 Sc133 2.105 . S
O149 C139 1.268 . S
O150 Sc134 2.105 . S
O150 C141 1.268 . S
O151 Sc132 2.105 . S
O151 C137 1.268 . S
O152 Sc134 2.105 . S
O152 C136 1.268 . S
O153 Sc133 2.105 . S
O153 C138 1.268 . S
Sc154 O157 2.025 . S
Sc154 O164 2.105 . S
Sc154 O167 2.105 . S
Sc154 O170 2.105 . S
Sc154 O173 2.105 . S
Sc155 O157 2.025 . S
Sc155 O165 2.105 . S
Sc155 O169 2.105 . S
Sc155 O171 2.105 . S
Sc155 O175 2.105 . S
Sc156 O157 2.025 . S
Sc156 O166 2.105 . S
Sc156 O168 2.105 . S
Sc156 O172 2.105 . S
Sc156 O174 2.105 . S
O157 Sc154 2.025 . S
O157 Sc155 2.025 . S
O157 Sc156 2.025 . S
C158 O164 1.268 . S
C158 O174 1.268 . S
C159 O165 1.268 . S
C159 O173 1.268 . S
C160 O166 1.268 . S
C160 O175 1.268 . S
C161 O167 1.268 . S
C161 O171 1.268 . S
C162 O168 1.268 . S
C162 O170 1.268 . S
C163 O169 1.268 . S
C163 O172 1.268 . S
O164 Sc154 2.105 . S
O164 C158 1.268 . S
O165 Sc155 2.105 . S
O165 C159 1.268 . S
O166 Sc156 2.105 . S
O166 C160 1.268 . S
O167 Sc154 2.105 . S
O167 C161 1.268 . S
O168 Sc156 2.105 . S
O168 C162 1.268 . S
O169 Sc155 2.105 . S
O169 C163 1.268 . S
O170 Sc154 2.105 . S
O170 C162 1.268 . S
O171 Sc155 2.105 . S
O171 C161 1.268 . S
O172 Sc156 2.105 . S
O172 C163 1.268 . S
O173 Sc154 2.105 . S
O173 C159 1.268 . S
O174 Sc156 2.105 . S
O174 C158 1.268 . S
O175 Sc155 2.105 . S
O175 C160 1.268 . S
C176 C177 1.369 . S
C176 C178 1.419 . S
C176 H180 0.930 . S
C177 C176 1.369 . S
C177 C186 1.429 . S
C178 C176 1.419 . S
C178 C179 1.363 . S
C178 H181 0.929 . S
C179 C178 1.363 . S
C179 C185 1.428 . S
H180 C176 0.930 . S
H181 C178 0.929 . S
S182 N183 1.613 . S
S182 N184 1.610 . S
N183 S182 1.613 . S
N183 C186 1.350 . S
N184 S182 1.610 . S
N184 C185 1.351 . S
C185 C179 1.428 . S
C185 N184 1.351 . S
C185 C186 1.434 . S
C186 C177 1.429 . S
C186 N183 1.350 . S
C186 C185 1.434 . S
C187 C188 1.369 . S
C187 C189 1.419 . S
C187 H191 0.930 . S
C188 C187 1.369 . S
C188 C197 1.429 . S
C189 C187 1.419 . S
C189 C190 1.363 . S
C189 H192 0.929 . S
C190 C189 1.363 . S
C190 C196 1.428 . S
H191 C187 0.930 . S
H192 C189 0.929 . S
S193 N194 1.613 . S
S193 N195 1.610 . S
N194 S193 1.613 . S
N194 C197 1.350 . S
N195 S193 1.610 . S
N195 C196 1.351 . S
C196 C190 1.428 . S
C196 N195 1.351 . S
C196 C197 1.434 . S
C197 C188 1.429 . S
C197 N194 1.350 . S
C197 C196 1.434 . S
C198 C199 1.369 . S
C198 C200 1.419 . S
C198 H202 0.930 . S
C199 C198 1.369 . S
C199 C208 1.429 . S
C200 C198 1.419 . S
C200 C201 1.363 . S
C200 H203 0.929 . S
C201 C200 1.363 . S
C201 C207 1.428 . S
H202 C198 0.930 . S
H203 C200 0.929 . S
S204 N205 1.613 . S
S204 N206 1.610 . S
N205 S204 1.613 . S
N205 C208 1.350 . S
N206 S204 1.610 . S
N206 C207 1.351 . S
C207 C201 1.428 . S
C207 N206 1.351 . S
C207 C208 1.434 . S
C208 C199 1.429 . S
C208 N205 1.350 . S
C208 C207 1.434 . S
C209 C210 1.369 . S
C209 C211 1.419 . S
C209 H213 0.930 . S
C210 C209 1.369 . S
C210 C219 1.429 . S
C211 C209 1.419 . S
C211 C212 1.363 . S
C211 H214 0.929 . S
C212 C211 1.363 . S
C212 C218 1.428 . S
H213 C209 0.930 . S
H214 C211 0.929 . S
S215 N216 1.613 . S
S215 N217 1.610 . S
N216 S215 1.613 . S
N216 C219 1.350 . S
N217 S215 1.610 . S
N217 C218 1.351 . S
C218 C212 1.428 . S
C218 N217 1.351 . S
C218 C219 1.434 . S
C219 C210 1.429 . S
C219 N216 1.350 . S
C219 C218 1.434 . S
C220 C221 1.369 . S
C220 C222 1.419 . S
C220 H224 0.930 . S
C221 C220 1.369 . S
C221 C230 1.429 . S
C222 C220 1.419 . S
C222 C223 1.363 . S
C222 H225 0.929 . S
C223 C222 1.363 . S
C223 C229 1.428 . S
H224 C220 0.930 . S
H225 C222 0.929 . S
S226 N227 1.613 . S
S226 N228 1.610 . S
N227 S226 1.613 . S
N227 C230 1.350 . S
N228 S226 1.610 . S
N228 C229 1.351 . S
C229 C223 1.428 . S
C229 N228 1.351 . S
C229 C230 1.434 . S
C230 C221 1.429 . S
C230 N227 1.350 . S
C230 C229 1.434 . S
C231 C232 1.369 . S
C231 C233 1.419 . S
C231 H235 0.930 . S
C232 C231 1.369 . S
C232 C241 1.429 . S
C233 C231 1.419 . S
C233 C234 1.363 . S
C233 H236 0.929 . S
C234 C233 1.363 . S
C234 C240 1.428 . S
H235 C231 0.930 . S
H236 C233 0.929 . S
S237 N238 1.613 . S
S237 N239 1.610 . S
N238 S237 1.613 . S
N238 C241 1.350 . S
N239 S237 1.610 . S
N239 C240 1.351 . S
C240 C234 1.428 . S
C240 N239 1.351 . S
C240 C241 1.434 . S
C241 C232 1.429 . S
C241 N238 1.350 . S
C241 C240 1.434 . S
C242 C243 1.369 . S
C242 C244 1.419 . S
C242 H246 0.930 . S
C243 C242 1.369 . S
C243 C252 1.429 . S
C244 C242 1.419 . S
C244 C245 1.363 . S
C244 H247 0.929 . S
C245 C244 1.363 . S
C245 C251 1.428 . S
H246 C242 0.930 . S
H247 C244 0.929 . S
S248 N249 1.613 . S
S248 N250 1.610 . S
N249 S248 1.613 . S
N249 C252 1.350 . S
N250 S248 1.610 . S
N250 C251 1.351 . S
C251 C245 1.428 . S
C251 N250 1.351 . S
C251 C252 1.434 . S
C252 C243 1.429 . S
C252 N249 1.350 . S
C252 C251 1.434 . S
C253 C254 1.369 . S
C253 C255 1.419 . S
C253 H257 0.930 . S
C254 C253 1.369 . S
C254 C263 1.429 . S
C255 C253 1.419 . S
C255 C256 1.363 . S
C255 H258 0.929 . S
C256 C255 1.363 . S
C256 C262 1.428 . S
H257 C253 0.930 . S
H258 C255 0.929 . S
S259 N260 1.613 . S
S259 N261 1.610 . S
N260 S259 1.613 . S
N260 C263 1.350 . S
N261 S259 1.610 . S
N261 C262 1.351 . S
C262 C256 1.428 . S
C262 N261 1.351 . S
C262 C263 1.434 . S
C263 C254 1.429 . S
C263 N260 1.350 . S
C263 C262 1.434 . S
C264 C265 1.369 1_455 S
C264 C266 1.419 . S
C264 H268 0.930 . S
C265 C264 1.369 1_655 S
C265 C274 1.429 . S
C266 C264 1.419 . S
C266 C267 1.363 . S
C266 H269 0.929 . S
C267 C266 1.363 . S
C267 C273 1.428 1_455 S
H268 C264 0.930 . S
H269 C266 0.929 . S
S270 N271 1.613 . S
S270 N272 1.610 . S
N271 S270 1.613 . S
N271 C274 1.350 . S
N272 S270 1.610 . S
N272 C273 1.351 . S
C273 C267 1.428 1_655 S
C273 N272 1.351 . S
C273 C274 1.434 . S
C274 C265 1.429 . S
C274 N271 1.350 . S
C274 C273 1.434 . S
C275 C276 1.369 1_565 S
C275 C277 1.419 . S
C275 H279 0.930 . S
C276 C275 1.369 1_545 S
C276 C285 1.429 . S
C277 C275 1.419 . S
C277 C278 1.363 . S
C277 H280 0.929 . S
C278 C277 1.363 . S
C278 C284 1.428 1_565 S
H279 C275 0.930 . S
H280 C277 0.929 . S
S281 N282 1.613 . S
S281 N283 1.610 . S
N282 S281 1.613 . S
N282 C285 1.350 . S
N283 S281 1.610 . S
N283 C284 1.351 . S
C284 C278 1.428 1_545 S
C284 N283 1.351 . S
C284 C285 1.434 . S
C285 C276 1.429 . S
C285 N282 1.350 . S
C285 C284 1.434 . S
C286 C287 1.369 1_455 S
C286 C288 1.419 . S
C286 H290 0.930 . S
C287 C286 1.369 1_655 S
C287 C296 1.429 . S
C288 C286 1.419 . S
C288 C289 1.363 . S
C288 H291 0.929 . S
C289 C288 1.363 . S
C289 C295 1.428 1_455 S
H290 C286 0.930 . S
H291 C288 0.929 . S
S292 N293 1.613 . S
S292 N294 1.610 . S
N293 S292 1.613 . S
N293 C296 1.350 . S
N294 S292 1.610 . S
N294 C295 1.351 . S
C295 C289 1.428 1_655 S
C295 N294 1.351 . S
C295 C296 1.434 . S
C296 C287 1.429 . S
C296 N293 1.350 . S
C296 C295 1.434 . S
C297 C298 1.369 1_565 S
C297 C299 1.419 . S
C297 H301 0.930 . S
C298 C297 1.369 1_545 S
C298 C307 1.429 . S
C299 C297 1.419 . S
C299 C300 1.363 . S
C299 H302 0.929 . S
C300 C299 1.363 . S
C300 C306 1.428 1_565 S
H301 C297 0.930 . S
H302 C299 0.929 . S
S303 N304 1.613 . S
S303 N305 1.610 . S
N304 S303 1.613 . S
N304 C307 1.350 . S
N305 S303 1.610 . S
N305 C306 1.351 . S
C306 C300 1.428 1_545 S
C306 N305 1.351 . S
C306 C307 1.434 . S
C307 C298 1.429 . S
C307 N304 1.350 . S
C307 C306 1.434 . S
C308 C309 1.369 . S
C308 C310 1.419 1_455 S
C308 H312 0.930 . S
C309 C308 1.369 . S
C309 C318 1.429 . S
C310 C308 1.419 1_655 S
C310 C311 1.363 . S
C310 H313 0.929 . S
C311 C310 1.363 . S
C311 C317 1.428 . S
H312 C308 0.930 . S
H313 C310 0.929 . S
S314 N315 1.613 1_655 S
S314 N316 1.610 . S
N315 S314 1.613 1_455 S
N315 C318 1.350 . S
N316 S314 1.610 . S
N316 C317 1.351 . S
C317 C311 1.428 . S
C317 N316 1.351 . S
C317 C318 1.434 1_655 S
C318 C309 1.429 . S
C318 N315 1.350 . S
C318 C317 1.434 1_455 S
C319 C320 1.369 . S
C319 C321 1.419 . S
C319 H323 0.930 . S
C320 C319 1.369 . S
C320 C329 1.429 1_565 S
C321 C319 1.419 . S
C321 C322 1.363 1_565 S
C321 H324 0.929 . S
C322 C321 1.363 1_545 S
C322 C328 1.428 . S
H323 C319 0.930 . S
H324 C321 0.929 . S
S325 N326 1.613 . S
S325 N327 1.610 . S
N326 S325 1.613 . S
N326 C329 1.350 . S
N327 S325 1.610 . S
N327 C328 1.351 . S
C328 C322 1.428 . S
C328 N327 1.351 . S
C328 C329 1.434 . S
C329 C320 1.429 1_545 S
C329 N326 1.350 . S
C329 C328 1.434 . S
C330 C331 1.369 . S
C330 C332 1.419 . S
C330 H334 0.930 . S
C331 C330 1.369 . S
C331 C340 1.429 1_655 S
C332 C330 1.419 . S
C332 C333 1.363 1_655 S
C332 H335 0.929 . S
C333 C332 1.363 1_455 S
C333 C339 1.428 . S
H334 C330 0.930 . S
H335 C332 0.929 . S
S336 N337 1.613 . S
S336 N338 1.610 . S
N337 S336 1.613 . S
N337 C340 1.350 . S
N338 S336 1.610 . S
N338 C339 1.351 . S
C339 C333 1.428 . S
C339 N338 1.351 . S
C339 C340 1.434 . S
C340 C331 1.429 1_455 S
C340 N337 1.350 . S
C340 C339 1.434 . S
C341 C342 1.369 1_545 S
C341 C343 1.419 . S
C341 H345 0.930 . S
C342 C341 1.369 1_565 S
C342 C351 1.429 . S
C343 C341 1.419 . S
C343 C344 1.363 . S
C343 H346 0.929 . S
C344 C343 1.363 . S
C344 C350 1.428 1_545 S
H345 C341 0.930 . S
H346 C343 0.929 . S
S347 N348 1.613 . S
S347 N349 1.610 . S
N348 S347 1.613 . S
N348 C351 1.350 . S
N349 S347 1.610 . S
N349 C350 1.351 . S
C350 C344 1.428 1_565 S
C350 N349 1.351 . S
C350 C351 1.434 . S
C351 C342 1.429 . S
C351 N348 1.350 . S
C351 C350 1.434 . S
C352 C353 1.369 . S
C352 C354 1.419 . S
C352 H356 0.930 . S
C353 C352 1.369 . S
C353 C362 1.429 . S
C354 C352 1.419 . S
C354 C355 1.363 . S
C354 H357 0.929 . S
C355 C354 1.363 . S
C355 C361 1.428 . S
H356 C352 0.930 . S
H357 C354 0.929 . S
S358 N359 1.613 . S
S358 N360 1.610 . S
N359 S358 1.613 . S
N359 C362 1.350 . S
N360 S358 1.610 . S
N360 C361 1.351 . S
C361 C355 1.428 . S
C361 N360 1.351 . S
C361 C362 1.434 . S
C362 C353 1.429 . S
C362 N359 1.350 . S
C362 C361 1.434 . S
C363 C364 1.369 . S
C363 C365 1.419 . S
C363 H367 0.930 . S
C364 C363 1.369 . S
C364 C373 1.429 . S
C365 C363 1.419 . S
C365 C366 1.363 . S
C365 H368 0.929 . S
C366 C365 1.363 . S
C366 C372 1.428 . S
H367 C363 0.930 . S
H368 C365 0.929 . S
S369 N370 1.613 . S
S369 N371 1.610 . S
N370 S369 1.613 . S
N370 C373 1.350 . S
N371 S369 1.610 . S
N371 C372 1.351 . S
C372 C366 1.428 . S
C372 N371 1.351 . S
C372 C373 1.434 . S
C373 C364 1.429 . S
C373 N370 1.350 . S
C373 C372 1.434 . S
C374 C375 1.369 . S
C374 C376 1.419 . S
C374 H378 0.930 . S
C375 C374 1.369 . S
C375 C384 1.429 . S
C376 C374 1.419 . S
C376 C377 1.363 . S
C376 H379 0.929 . S
C377 C376 1.363 . S
C377 C383 1.428 . S
H378 C374 0.930 . S
H379 C376 0.929 . S
S380 N381 1.613 . S
S380 N382 1.610 . S
N381 S380 1.613 . S
N381 C384 1.350 . S
N382 S380 1.610 . S
N382 C383 1.351 . S
C383 C377 1.428 . S
C383 N382 1.351 . S
C383 C384 1.434 . S
C384 C375 1.429 . S
C384 N381 1.350 . S
C384 C383 1.434 . S
C385 C386 1.369 . S
C385 C387 1.419 . S
C385 H389 0.930 . S
C386 C385 1.369 . S
C386 C395 1.429 . S
C387 C385 1.419 . S
C387 C388 1.363 . S
C387 H390 0.929 . S
C388 C387 1.363 . S
C388 C394 1.428 . S
H389 C385 0.930 . S
H390 C387 0.929 . S
S391 N392 1.613 . S
S391 N393 1.610 . S
N392 S391 1.613 . S
N392 C395 1.350 . S
N393 S391 1.610 . S
N393 C394 1.351 . S
C394 C388 1.428 . S
C394 N393 1.351 . S
C394 C395 1.434 . S
C395 C386 1.429 . S
C395 N392 1.350 . S
C395 C394 1.434 . S
C396 C397 1.369 . S
C396 C398 1.419 . S
C396 H400 0.930 . S
C397 C396 1.369 . S
C397 C406 1.429 . S
C398 C396 1.419 . S
C398 C399 1.363 . S
C398 H401 0.929 . S
C399 C398 1.363 . S
C399 C405 1.428 . S
H400 C396 0.930 . S
H401 C398 0.929 . S
S402 N403 1.613 . S
S402 N404 1.610 . S
N403 S402 1.613 . S
N403 C406 1.350 . S
N404 S402 1.610 . S
N404 C405 1.351 . S
C405 C399 1.428 . S
C405 N404 1.351 . S
C405 C406 1.434 . S
C406 C397 1.429 . S
C406 N403 1.350 . S
C406 C405 1.434 . S
C407 C408 1.369 . S
C407 C409 1.419 . S
C407 H411 0.930 . S
C408 C407 1.369 . S
C408 C417 1.429 . S
C409 C407 1.419 . S
C409 C410 1.363 . S
C409 H412 0.929 . S
C410 C409 1.363 . S
C410 C416 1.428 . S
H411 C407 0.930 . S
H412 C409 0.929 . S
S413 N414 1.613 . S
S413 N415 1.610 . S
N414 S413 1.613 . S
N414 C417 1.350 . S
N415 S413 1.610 . S
N415 C416 1.351 . S
C416 C410 1.428 . S
C416 N415 1.351 . S
C416 C417 1.434 . S
C417 C408 1.429 . S
C417 N414 1.350 . S
C417 C416 1.434 . S
C418 C419 1.369 . S
C418 C420 1.419 . S
C418 H422 0.930 . S
C419 C418 1.369 . S
C419 C428 1.429 . S
C420 C418 1.419 . S
C420 C421 1.363 . S
C420 H423 0.929 . S
C421 C420 1.363 . S
C421 C427 1.428 . S
H422 C418 0.930 . S
H423 C420 0.929 . S
S424 N425 1.613 . S
S424 N426 1.610 . S
N425 S424 1.613 . S
N425 C428 1.350 . S
N426 S424 1.610 . S
N426 C427 1.351 . S
C427 C421 1.428 . S
C427 N426 1.351 . S
C427 C428 1.434 . S
C428 C419 1.429 . S
C428 N425 1.350 . S
C428 C427 1.434 . S
C429 C430 1.369 . S
C429 C431 1.419 . S
C429 H433 0.930 . S
C430 C429 1.369 . S
C430 C439 1.429 . S
C431 C429 1.419 . S
C431 C432 1.363 . S
C431 H434 0.929 . S
C432 C431 1.363 . S
C432 C438 1.428 . S
H433 C429 0.930 . S
H434 C431 0.929 . S
S435 N436 1.613 . S
S435 N437 1.610 . S
N436 S435 1.613 . S
N436 C439 1.350 . S
N437 S435 1.610 . S
N437 C438 1.351 . S
C438 C432 1.428 . S
C438 N437 1.351 . S
C438 C439 1.434 . S
C439 C430 1.429 . S
C439 N436 1.350 . S
C439 C438 1.434 . S
C177 C136 1.459 . S
C179 C8 1.462 . S
C188 C30 1.459 . S
C190 C158 1.462 . S
C199 C92 1.462 . S
C201 C53 1.463 . S
C210 C74 1.459 . S
C212 C114 1.462 . S
C221 C96 1.464 . S
C223 C50 1.461 . S
C232 C70 1.461 . S
C234 C118 1.463 . S
C243 C140 1.465 . S
C245 C4 1.463 . S
C254 C26 1.462 . S
C256 C162 1.462 . S
C265 C27 1.462 . S
C267 C119 1.462 . S
C276 C141 1.465 . S
C278 C48 1.461 . S
C287 C163 1.464 . S
C289 C71 1.461 . S
C298 C5 1.463 . S
C300 C97 1.461 . S
C309 C73 1.461 . S
C311 C160 1.463 . S
C320 C94 1.459 . S
C322 C7 1.462 . S
C331 C29 1.459 . S
C333 C116 1.462 . S
C342 C52 1.465 . S
C344 C138 1.459 . S
C353 C159 1.282 . S
C355 C9 1.282 . S
C364 C31 1.284 . S
C366 C93 1.280 . S
C375 C51 1.285 . S
C377 C115 1.280 . S
C386 C137 1.282 . S
C388 C75 1.282 . S
C397 C117 1.285 . S
C399 C49 1.283 . S
C408 C139 1.283 . S
C410 C72 1.284 . S
C419 C161 1.281 . S
C421 C6 1.285 . S
C430 C95 1.281 . S
C432 C28 1.286 . S
