# Generated by pormake.
# Topology wji, (4)-cn, num edge types: 1
# Building blocks:
#     Node 0, Type 0, BuildingBlock: QUQFOY_clean_sbu_1, # of connection points: 4
#     Node 1, Type 0, BuildingBlock: QUQFOY_clean_sbu_1, # of connection points: 4
#     Node 2, Type 0, BuildingBlock: QUQFOY_clean_sbu_1, # of connection points: 4
#     Node 3, Type 0, BuildingBlock: QUQFOY_clean_sbu_1, # of connection points: 4
#     Node 4, Type 0, BuildingBlock: QUQFOY_clean_sbu_1, # of connection points: 4
#     Node 5, Type 0, BuildingBlock: QUQFOY_clean_sbu_1, # of connection points: 4
#     Node 6, Type 0, BuildingBlock: QUQFOY_clean_sbu_1, # of connection points: 4
#     Node 7, Type 0, BuildingBlock: QUQFOY_clean_sbu_1, # of connection points: 4
#     Node 8, Type 0, BuildingBlock: QUQFOY_clean_sbu_1, # of connection points: 4
#     Node 9, Type 0, BuildingBlock: QUQFOY_clean_sbu_1, # of connection points: 4
#     Node 10, Type 0, BuildingBlock: QUQFOY_clean_sbu_1, # of connection points: 4
#     Node 11, Type 0, BuildingBlock: QUQFOY_clean_sbu_1, # of connection points: 4
#     Edge 12, Type (0, 0), BuildingBlock: CIFDUS_clean_linker_0, # of connection points: 2
#     Edge 13, Type (0, 0), BuildingBlock: CIFDUS_clean_linker_0, # of connection points: 2
#     Edge 14, Type (0, 0), BuildingBlock: CIFDUS_clean_linker_0, # of connection points: 2
#     Edge 15, Type (0, 0), BuildingBlock: CIFDUS_clean_linker_0, # of connection points: 2
#     Edge 16, Type (0, 0), BuildingBlock: CIFDUS_clean_linker_0, # of connection points: 2
#     Edge 17, Type (0, 0), BuildingBlock: CIFDUS_clean_linker_0, # of connection points: 2
#     Edge 18, Type (0, 0), BuildingBlock: CIFDUS_clean_linker_0, # of connection points: 2
#     Edge 19, Type (0, 0), BuildingBlock: CIFDUS_clean_linker_0, # of connection points: 2
#     Edge 20, Type (0, 0), BuildingBlock: CIFDUS_clean_linker_0, # of connection points: 2
#     Edge 21, Type (0, 0), BuildingBlock: CIFDUS_clean_linker_0, # of connection points: 2
#     Edge 22, Type (0, 0), BuildingBlock: CIFDUS_clean_linker_0, # of connection points: 2
#     Edge 23, Type (0, 0), BuildingBlock: CIFDUS_clean_linker_0, # of connection points: 2
#     Edge 24, Type (0, 0), BuildingBlock: CIFDUS_clean_linker_0, # of connection points: 2
#     Edge 25, Type (0, 0), BuildingBlock: CIFDUS_clean_linker_0, # of connection points: 2
#     Edge 26, Type (0, 0), BuildingBlock: CIFDUS_clean_linker_0, # of connection points: 2
#     Edge 27, Type (0, 0), BuildingBlock: CIFDUS_clean_linker_0, # of connection points: 2
#     Edge 28, Type (0, 0), BuildingBlock: CIFDUS_clean_linker_0, # of connection points: 2
#     Edge 29, Type (0, 0), BuildingBlock: CIFDUS_clean_linker_0, # of connection points: 2
#     Edge 30, Type (0, 0), BuildingBlock: CIFDUS_clean_linker_0, # of connection points: 2
#     Edge 31, Type (0, 0), BuildingBlock: CIFDUS_clean_linker_0, # of connection points: 2
#     Edge 32, Type (0, 0), BuildingBlock: CIFDUS_clean_linker_0, # of connection points: 2
#     Edge 33, Type (0, 0), BuildingBlock: CIFDUS_clean_linker_0, # of connection points: 2
#     Edge 34, Type (0, 0), BuildingBlock: CIFDUS_clean_linker_0, # of connection points: 2
#     Edge 35, Type (0, 0), BuildingBlock: CIFDUS_clean_linker_0, # of connection points: 2
# Relax obj value: 0.271
# Max RMSD: 0.194
# Mean RMSD: 0.194
data_MOF--net-wji--node1-QUQFOY_clean_sbu_1--edge1-CIFDUS_clean_linker_0
_symmetry_space_group_name_H-M    P1
_symmetry_Int_Tables_number       1
_symmetry_cell_setting            triclinic
loop_
_symmetry_equiv_pos_as_xyz
'x, y, z'
_cell_length_a     55.152528
_cell_length_b     55.162051
_cell_length_c     19.39832
_cell_angle_alpha  89.955055
_cell_angle_beta   89.966399
_cell_angle_gamma 119.96638
loop_
_atom_site_label
_atom_site_type_symbol
_atom_site_fract_x
_atom_site_fract_y
_atom_site_fract_z
_atom_type_partial_charge
O0 O 0.38831 0.31336 0.49296 0.0
Cd1 Cd 0.39571 0.29379 0.41325 0.0
Cd2 Cd 0.44294 0.35169 0.40165 0.0
O3 O 0.43139 0.34858 0.50338 0.0
O4 O 0.37049 0.25363 0.43657 0.0
O5 O 0.41659 0.27352 0.43776 0.0
C6 C 0.39243 0.25197 0.45099 0.0
C7 C 0.48579 0.39374 0.38374 0.0
C8 C 0.4067 0.33407 0.52664 0.0
C9 C 0.39209 0.32625 0.2996 0.0
O10 O 0.41337 0.34641 0.32819 0.0
O11 O 0.38324 0.30116 0.31896 0.0
O12 O 0.46284 0.39325 0.39754 0.0
O13 O 0.48492 0.37001 0.37914 0.0
O14 O 0.08058 0.37933 0.66137 0.0
Cd15 Cd 0.10857 0.39319 0.5819 0.0
Cd16 Cd 0.09496 0.43598 0.58149 0.0
O17 O 0.08027 0.41872 0.67684 0.0
O18 O 0.13076 0.37468 0.6022 0.0
O19 O 0.1486 0.42064 0.60645 0.0
C20 C 0.15127 0.39902 0.61853 0.0
C21 C 0.10295 0.48229 0.57537 0.0
C22 C 0.07331 0.39409 0.69603 0.0
C23 C 0.07301 0.39059 0.46754 0.0
O24 O 0.07272 0.41057 0.4996 0.0
O25 O 0.08957 0.38199 0.48612 0.0
O26 O 0.07839 0.46084 0.58051 0.0
O27 O 0.1237 0.47777 0.57189 0.0
O28 O 0.70389 0.0778 0.82652 0.0
Cd29 Cd 0.72309 0.10555 0.74798 0.0
Cd30 Cd 0.66857 0.09792 0.73569 0.0
O31 O 0.6684 0.08528 0.83538 0.0
O32 O 0.76314 0.12552 0.77574 0.0
O33 O 0.73745 0.14608 0.76994 0.0
C34 C 0.76063 0.1472 0.78752 0.0
C35 C 0.6303 0.10547 0.72002 0.0
C36 C 0.68253 0.0747 0.8587 0.0
C37 C 0.69179 0.0716 0.63122 0.0
O38 O 0.67192 0.07355 0.65901 0.0
O39 O 0.71676 0.08653 0.65288 0.0
O40 O 0.62734 0.08113 0.72891 0.0
O41 O 0.65551 0.12634 0.71786 0.0
O42 O 0.63214 0.69897 -0.00261 0.0
Cd43 Cd 0.62482 0.7193 0.9193 0.0
Cd44 Cd 0.57693 0.66414 0.90581 0.0
O45 O 0.5892 0.66331 0.00524 0.0
O46 O 0.64998 0.75927 0.94381 0.0
O47 O 0.60385 0.73925 0.94556 0.0
C48 C 0.628 0.76075 0.95905 0.0
C49 C 0.53096 0.62647 0.88834 0.0
C50 C 0.61385 0.67739 0.02885 0.0
C51 C 0.62658 0.68732 0.80181 0.0
O52 O 0.60468 0.66747 0.82929 0.0
O53 O 0.63676 0.71225 0.82385 0.0
O54 O 0.55206 0.62303 0.89723 0.0
O55 O 0.53566 0.65182 0.88763 0.0
O56 O 0.94302 0.63364 0.15608 0.0
Cd57 Cd 0.91341 0.6244 0.08279 0.0
Cd58 Cd 0.91725 0.57331 0.06947 0.0
O59 O 0.93616 0.59077 0.16201 0.0
O60 O 0.89271 0.64342 0.11313 0.0
O61 O 0.87375 0.59722 0.10965 0.0
C62 C 0.87188 0.61888 0.12715 0.0
C63 C 0.91554 0.52964 0.06205 0.0
C64 C 0.94742 0.6156 0.18484 0.0
C65 C 0.93758 0.61913 0.95347 0.0
O66 O 0.93356 0.59627 0.97976 0.0
O67 O 0.92953 0.6342 0.98438 0.0
O68 O 0.93833 0.55315 0.05902 0.0
O69 O 0.89261 0.53034 0.06739 0.0
O70 O 0.32035 0.93406 0.32395 0.0
Cd71 Cd 0.30062 0.90658 0.2454 0.0
Cd72 Cd 0.35734 0.91813 0.22849 0.0
O73 O 0.3574 0.92894 0.32974 0.0
O74 O 0.26099 0.88738 0.27704 0.0
O75 O 0.28549 0.86573 0.2667 0.0
C76 C 0.26297 0.86531 0.28731 0.0
C77 C 0.39798 0.91548 0.20412 0.0
C78 C 0.34229 0.93809 0.35485 0.0
C79 C 0.32983 0.94255 0.12982 0.0
O80 O 0.35056 0.94171 0.15589 0.0
O81 O 0.30511 0.92616 0.15151 0.0
O82 O 0.39864 0.93862 0.21616 0.0
O83 O 0.37387 0.89298 0.20505 0.0
O84 O 0.70796 0.64476 0.34509 0.0
Cd85 Cd 0.72346 0.63007 0.41891 0.0
Cd86 Cd 0.66865 0.58189 0.41531 0.0
O87 O 0.66827 0.60502 0.33238 0.0
O88 O 0.76463 0.6514 0.40454 0.0
O89 O 0.73871 0.60589 0.38467 0.0
C90 C 0.76272 0.62866 0.38062 0.0
C91 C 0.63291 0.53461 0.40445 0.0
C92 C 0.68479 0.6302 0.31465 0.0
C93 C 0.68854 0.61999 0.54349 0.0
O94 O 0.67001 0.59872 0.5112 0.0
O95 O 0.71282 0.63525 0.51791 0.0
O96 O 0.6278 0.55465 0.41303 0.0
O97 O 0.6588 0.54097 0.40344 0.0
O98 O 0.07303 0.7055 0.50357 0.0
Cd99 Cd 0.10177 0.72053 0.58121 0.0
Cd100 Cd 0.0884 0.66257 0.58102 0.0
O101 O 0.07488 0.66695 0.48585 0.0
O102 O 0.1222 0.7616 0.56441 0.0
O103 O 0.14176 0.73529 0.55131 0.0
C104 C 0.14324 0.75931 0.544 0.0
C105 C 0.09005 0.62042 0.58645 0.0
C106 C 0.06673 0.68388 0.46808 0.0
C107 C 0.06732 0.68688 0.69649 0.0
O108 O 0.06712 0.66685 0.66353 0.0
O109 O 0.08359 0.71213 0.67819 0.0
O110 O 0.06716 0.62089 0.58119 0.0
O111 O 0.11288 0.6442 0.58945 0.0
O112 O 0.37146 0.06414 0.67041 0.0
Cd113 Cd 0.38676 0.09491 0.74254 0.0
Cd114 Cd 0.43361 0.08528 0.74701 0.0
O115 O 0.41016 0.0618 0.66468 0.0
O116 O 0.37111 0.11933 0.71803 0.0
O117 O 0.41631 0.13293 0.71036 0.0
C118 C 0.39604 0.13782 0.69847 0.0
C119 C 0.47818 0.08889 0.74063 0.0
C120 C 0.38558 0.05419 0.64377 0.0
C121 C 0.394 0.07139 0.87259 0.0
O122 O 0.4155 0.0732 0.84338 0.0
O123 O 0.37918 0.08001 0.84268 0.0
O124 O 0.45564 0.06584 0.75281 0.0
O125 O 0.47607 0.11101 0.734 0.0
O126 O 0.3121 0.36732 0.84071 0.0
Cd127 Cd 0.2969 0.38316 0.91233 0.0
Cd128 Cd 0.35419 0.43046 0.91228 0.0
O129 O 0.35323 0.40577 0.83167 0.0
O130 O 0.25586 0.36272 0.896 0.0
O131 O 0.28283 0.40806 0.87559 0.0
C132 C 0.25856 0.38566 0.87106 0.0
C133 C 0.39506 0.47491 0.90205 0.0
C134 C 0.33597 0.38098 0.81279 0.0
C135 C 0.3298 0.39254 0.04072 0.0
O136 O 0.34929 0.41359 0.0097 0.0
O137 O 0.30603 0.37757 0.01254 0.0
O138 O 0.39571 0.45245 0.91465 0.0
O139 O 0.37078 0.47278 0.89697 0.0
O140 O 0.95034 0.31613 0.00882 0.0
Cd141 Cd 0.92075 0.29454 0.08161 0.0
Cd142 Cd 0.91958 0.34599 0.09503 0.0
O143 O 0.94235 0.35147 0.00642 0.0
O144 O 0.90381 0.25442 0.05619 0.0
O145 O 0.88086 0.27784 0.05016 0.0
C146 C 0.88168 0.25519 0.0379 0.0
C147 C 0.90779 0.38173 0.09706 0.0
C148 C 0.95463 0.339 0.98276 0.0
C149 C 0.94276 0.32497 0.21232 0.0
O150 O 0.9369 0.34266 0.18666 0.0
O151 O 0.93651 0.30241 0.18064 0.0
O152 O 0.93286 0.38648 0.10423 0.0
O153 O 0.88827 0.35598 0.09169 0.0
O154 O 0.64922 0.94761 0.17521 0.0
Cd155 Cd 0.63294 0.91727 0.24863 0.0
Cd156 Cd 0.58657 0.92422 0.24442 0.0
O157 O 0.60977 0.94804 0.1619 0.0
O158 O 0.6482 0.89222 0.22836 0.0
O159 O 0.60331 0.87942 0.21643 0.0
C160 C 0.62342 0.87406 0.20721 0.0
C161 C 0.53895 0.91085 0.23116 0.0
C162 C 0.63496 0.95654 0.14457 0.0
C163 C 0.62403 0.9424 0.37313 0.0
O164 O 0.60291 0.93993 0.34054 0.0
O165 O 0.63901 0.93299 0.34785 0.0
O166 O 0.55822 0.93636 0.23968 0.0
O167 O 0.54628 0.89202 0.23201 0.0
H168 H 0.31594 0.3393 0.07452 0.0
H169 H 0.36299 0.42477 0.14451 0.0
H170 H 0.38618 0.41138 0.23128 0.0
H171 H 0.39636 0.37669 0.2793 0.0
H172 H 0.35075 0.29106 0.20938 0.0
H173 H 0.32395 0.30326 0.12962 0.0
C174 C 0.33059 0.35475 0.11036 0.0
C175 C 0.33753 0.38296 0.10377 0.0
C176 C 0.3447 0.34705 0.15849 0.0
C177 C 0.35711 0.40293 0.14918 0.0
C178 C 0.37061 0.39533 0.19819 0.0
C179 C 0.38066 0.3606 0.24649 0.0
C180 C 0.37598 0.33306 0.24946 0.0
C181 C 0.36523 0.36769 0.20171 0.0
C182 C 0.35506 0.31247 0.20754 0.0
C183 C 0.33963 0.31943 0.16223 0.0
H184 H 0.02567 0.39284 0.44953 0.0
H185 H 0.06954 0.35222 0.37089 0.0
H186 H 0.03098 0.32522 0.29026 0.0
H187 H 0.98558 0.31499 0.23869 0.0
H188 H 0.94295 0.35656 0.31922 0.0
H189 H 0.97995 0.38076 0.40421 0.0
C190 C 0.02705 0.37826 0.41449 0.0
C191 C 0.05081 0.375 0.41546 0.0
C192 C 1.00471 0.36256 0.36956 0.0
C193 C 0.05172 0.35545 0.37065 0.0
C194 C 0.02957 0.33988 0.32489 0.0
C195 C 0.98405 0.32873 0.2762 0.0
C196 C 0.96141 0.33381 0.2731 0.0
C197 C 1.00596 0.34333 0.32375 0.0
C198 C 0.96003 0.35217 0.32094 0.0
C199 C 0.98132 0.36622 0.36905 0.0
H200 H 0.67744 0.98062 0.4099 0.0
H201 H 0.59118 0.94665 0.47038 0.0
H202 H 0.60482 0.98402 0.55477 0.0
H203 H 0.64032 0.02794 0.60466 0.0
H204 H 0.72692 0.06331 0.54527 0.0
H205 H 0.71403 0.02402 0.46614 0.0
C206 C 0.66179 0.981 0.44305 0.0
C207 C 0.63334 0.96073 0.43448 0.0
C208 C 0.66973 1.0032 0.49006 0.0
C209 C 0.61319 0.96185 0.4765 0.0
C210 C 0.62095 0.98338 0.52421 0.0
C211 C 0.65649 0.0273 0.57419 0.0
C212 C 0.68454 0.0489 0.58014 0.0
C213 C 0.649 1.00455 0.52998 0.0
C214 C 0.70514 0.0472 0.54113 0.0
C215 C 0.69778 0.02463 0.49623 0.0
H216 H 0.70346 0.6733 0.58041 0.0
H217 H 0.65146 0.58699 0.64076 0.0
H218 H 0.62757 0.60049 0.7252 0.0
H219 H 0.61893 0.6359 0.77515 0.0
H220 H 0.66991 0.72252 0.71583 0.0
H221 H 0.69644 0.70976 0.63667 0.0
C222 C 0.68746 0.65761 0.61353 0.0
C223 C 0.6794 0.62918 0.60489 0.0
C224 C 0.6731 0.66545 0.66055 0.0
C225 C 0.65817 0.60898 0.64691 0.0
C226 C 0.6443 0.61666 0.69464 0.0
C227 C 0.63571 0.65209 0.74466 0.0
C228 C 0.64206 0.68011 0.75064 0.0
C229 C 0.65106 0.64468 0.70044 0.0
C230 C 0.66432 0.70076 0.71166 0.0
C231 C 0.67961 0.69348 0.66674 0.0
H232 H 0.02063 0.63686 0.71444 0.0
H233 H 0.06323 0.72106 0.79454 0.0
H234 H 0.02458 0.70851 0.87598 0.0
H235 H 0.97948 0.67249 0.92784 0.0
H236 H 0.93827 0.58871 0.84532 0.0
H237 H 0.97528 0.60251 0.75972 0.0
C238 C 0.02173 0.65257 0.74994 0.0
C239 C 0.04516 0.67978 0.74916 0.0
C240 C 0.99935 0.64537 0.79523 0.0
C241 C 0.04568 0.69987 0.79463 0.0
C242 C 0.02349 0.69273 0.84085 0.0
C243 C 0.97825 0.65756 0.88969 0.0
C244 C 0.956 0.62966 0.89234 0.0
C245 C 1.0002 0.66547 0.84174 0.0
C246 C 0.95501 0.61032 0.84381 0.0
C247 C 0.97632 0.61813 0.79539 0.0
H248 H 0.34088 0.0305 0.90295 0.0
H249 H 0.42545 0.07236 0.98039 0.0
H250 H 0.41246 0.03609 0.06783 0.0
H251 H 0.37881 0.99049 0.11385 0.0
H252 H 0.29409 0.94695 0.03729 0.0
H253 H 0.30542 0.98574 0.95715 0.0
C254 C 0.35615 0.0321 0.94057 0.0
C255 C 0.38405 0.05423 0.93584 0.0
C256 C 0.34873 0.01048 -0.01076 0.0
C257 C 0.40384 0.0557 0.98361 0.0
C258 C 0.39649 0.03479 0.03301 0.0
C259 C 0.36273 0.98929 0.07952 0.0
C260 C 0.33576 0.9655 0.0805 0.0
C261 C 0.36931 0.01166 0.03464 0.0
C262 C 0.31509 0.96482 0.0369 0.0
C263 C 0.32156 0.98706 -0.00865 0.0
H264 H 0.57998 0.51965 0.3726 0.0
H265 H 0.63298 0.48467 0.41527 0.0
H266 H 0.59224 0.4372 0.40739 0.0
H267 H 0.54055 0.40588 0.39568 0.0
H268 H 0.48924 0.44307 0.35425 0.0
H269 H 0.53039 0.48937 0.3538 0.0
C270 C 0.58276 0.50169 0.3801 0.0
C271 C 0.60938 0.50567 0.39542 0.0
C272 C 0.55946 0.4748 0.37568 0.0
C273 C 0.61263 0.48213 0.40374 0.0
C274 C 0.58934 0.45502 0.39935 0.0
C275 C 0.53854 0.42413 0.38562 0.0
C276 C 0.51181 0.421 0.37564 0.0
C277 C 0.5625 0.45109 0.3863 0.0
C278 C 0.50948 0.44485 0.36283 0.0
C279 C 0.53302 0.4714 0.36257 0.0
H280 H 0.06215 0.4952 0.58768 0.0
H281 H 0.15162 0.53344 0.56438 0.0
H282 H 0.15607 0.58004 0.56744 0.0
H283 H 0.13389 0.60984 0.57627 0.0
H284 H 0.04407 0.56942 0.59967 0.0
H285 H 0.04057 0.52387 0.59746 0.0
C286 C 0.08272 0.51366 0.58311 0.0
C287 C 0.1065 0.51079 0.5756 0.0
C288 C 0.08507 0.5401 0.58522 0.0
C289 C 0.13294 0.53504 0.57003 0.0
C290 C 0.13548 0.56168 0.57191 0.0
C291 C 0.11363 0.59104 0.58123 0.0
C292 C 0.08929 0.59317 0.58799 0.0
C293 C 0.11162 0.56449 0.57955 0.0
C294 C 0.06317 0.56855 0.59413 0.0
C295 C 0.06108 0.54238 0.59286 0.0
H296 H 0.53207 0.13385 0.7315 0.0
H297 H 0.48417 0.04343 0.73085 0.0
H298 H 0.52667 0.04115 0.71965 0.0
H299 H 0.57695 0.06389 0.71434 0.0
H300 H 0.62702 0.15393 0.71837 0.0
H301 H 0.58422 0.15728 0.72296 0.0
C302 C 0.53104 0.11372 0.72874 0.0
C303 C 0.50489 0.08887 0.73263 0.0
C304 C 0.5559 0.11242 0.72275 0.0
C305 C 0.50391 0.06293 0.72875 0.0
C306 C 0.52824 0.06153 0.72209 0.0
C307 C 0.57868 0.08436 0.71589 0.0
C308 C 0.60516 0.10861 0.71634 0.0
C309 C 0.55427 0.08604 0.7197 0.0
C310 C 0.60686 0.1349 0.71789 0.0
C311 C 0.58239 0.1368 0.72084 0.0
H312 H 0.51869 0.57329 0.8719 0.0
H313 H 0.47954 0.62377 0.89304 0.0
H314 H 0.43324 0.58118 0.89591 0.0
H315 H 0.40426 0.52897 0.89964 0.0
H316 H 0.44593 0.48051 0.88187 0.0
H317 H 0.49077 0.52295 0.87072 0.0
C318 C 0.50008 0.57514 0.87678 0.0
C319 C 0.50259 0.60165 0.88278 0.0
C320 C 0.47391 0.55081 0.87956 0.0
C321 C 0.47817 0.60356 0.88832 0.0
C322 C 0.45173 0.57921 0.89031 0.0
C323 C 0.42318 0.52781 0.89295 0.0
C324 C 0.42168 0.50153 0.89236 0.0
C325 C 0.44936 0.55262 0.88715 0.0
C326 C 0.44638 0.50036 0.88344 0.0
C327 C 0.47214 0.52466 0.8768 0.0
H328 H 0.94677 0.43508 0.07561 0.0
H329 H 0.85776 0.38213 0.1034 0.0
H330 H 0.85162 0.42325 0.09302 0.0
H331 H 0.87251 0.47502 0.07827 0.0
H332 H 0.96193 0.52552 0.04758 0.0
H333 H 0.96677 0.48447 0.05663 0.0
C334 C 0.92592 0.43236 0.07977 0.0
C335 C 0.9028 0.40564 0.09111 0.0
C336 C 0.92263 0.45573 0.07293 0.0
C337 C 0.87595 0.40256 0.09509 0.0
C338 C 0.87246 0.42605 0.08909 0.0
C339 C 0.89295 0.4769 0.07305 0.0
C340 C 0.9168 0.50344 0.06258 0.0
C341 C 0.89576 0.45286 0.07819 0.0
C342 C 0.94317 0.50551 0.05588 0.0
C343 C 0.94606 0.482 0.06115 0.0
H344 H 0.41021 0.87362 0.22928 0.0
H345 H 0.44555 0.95822 0.15335 0.0
H346 H 0.49181 0.96311 0.1502 0.0
H347 H 0.52291 0.94556 0.1794 0.0
H348 H 0.48974 0.86161 0.25685 0.0
H349 H 0.44194 0.8541 0.24857 0.0
C350 C 0.428 0.89286 0.21084 0.0
C351 C 0.42452 0.91564 0.19229 0.0
C352 C 0.45494 0.89578 0.21029 0.0
C353 C 0.44773 0.94051 0.16869 0.0
C354 C 0.47423 0.94337 0.16692 0.0
C355 C 0.50523 0.92551 0.19417 0.0
C356 C 0.5098 0.90434 0.2198 0.0
C357 C 0.47817 0.9215 0.18951 0.0
C358 C 0.48668 0.87829 0.2373 0.0
C359 C 0.45941 0.87406 0.23275 0.0
H360 H 0.38865 0.39798 0.77017 0.0
H361 H 0.30267 0.33362 0.73879 0.0
H362 H 0.31746 0.31181 0.65128 0.0
H363 H 0.35452 0.31254 0.5803 0.0
H364 H 0.44042 0.37728 0.61179 0.0
H365 H 0.42585 0.39717 0.70409 0.0
C366 C 0.3731 0.37922 0.74406 0.0
C367 C 0.34459 0.36762 0.76013 0.0
C368 C 0.38172 0.36677 0.69444 0.0
C369 C 0.32474 0.34303 0.72688 0.0
C370 C 0.33318 0.33054 0.67703 0.0
C371 C 0.37013 0.33079 0.60789 0.0
C372 C 0.39848 0.34354 0.58879 0.0
C373 C 0.36159 0.3424 0.66005 0.0
C374 C 0.41843 0.36713 0.62523 0.0
C375 C 0.41013 0.37861 0.67778 0.0
H376 H 0.98843 0.32124 0.92819 0.0
H377 H 0.96811 0.38728 0.91415 0.0
H378 H 1.00449 0.41106 0.82765 0.0
H379 H 0.04155 0.41291 0.75539 0.0
H380 H 0.06138 0.34654 0.76664 0.0
H381 H 0.02586 0.32326 0.856 0.0
C382 C 0.99184 0.34075 0.90598 0.0
C383 C 0.97552 0.3524 0.92747 0.0
C384 C 0.01286 0.35441 0.85645 0.0
C385 C 0.98032 0.37779 0.89841 0.0
C386 C 1.00119 0.39149 0.84913 0.0
C387 C 0.03837 0.39353 0.77796 0.0
C388 C 0.05409 0.3815 0.75472 0.0
C389 C 0.01761 0.38002 0.82799 0.0
C390 C 0.0495 0.35621 0.78382 0.0
C391 C 0.02915 0.34285 0.83464 0.0
H392 H 0.61632 0.99025 0.0969 0.0
H393 H 0.68337 0.97188 0.07373 0.0
H394 H 0.70524 0.00853 -0.01372 0.0
H395 H 0.70431 0.04453 0.9142 0.0
H396 H 0.63713 0.06275 0.93842 0.0
H397 H 0.61654 0.02757 0.02898 0.0
C398 C 0.63565 0.99415 0.07251 0.0
C399 C 0.64806 0.97821 0.09104 0.0
C400 C 0.64819 0.01533 0.0231 0.0
C401 C 0.67336 0.98382 0.05995 0.0
C402 C 0.68589 1.00478 0.01015 0.0
C403 C 0.68533 0.04105 0.93977 0.0
C404 C 0.67219 0.05612 0.91928 0.0
C405 C 0.67339 0.02056 -0.00883 0.0
C406 C 0.64764 0.05138 0.95306 0.0
C407 C 0.63576 0.03118 0.00461 0.0
H408 H 0.66561 0.69932 0.0849 0.0
H409 H 0.58055 0.63136 0.1071 0.0
H410 H 0.59528 0.61073 0.19732 0.0
H411 H 0.63246 0.61086 0.26582 0.0
H412 H 0.71752 0.67874 0.24419 0.0
H413 H 0.70255 0.70044 0.15689 0.0
C414 C 0.65021 0.68015 0.1099 0.0
C415 C 0.62207 0.66683 0.08903 0.0
C416 C 0.65885 0.6682 0.16103 0.0
C417 C 0.60238 0.64202 0.12208 0.0
C418 C 0.61078 0.63012 0.17343 0.0
C419 C 0.64777 0.63033 0.24176 0.0
C420 C 0.67608 0.64304 0.2608 0.0
C421 C 0.63902 0.64279 0.19239 0.0
C422 C 0.6956 0.6685 0.23008 0.0
C423 C 0.68707 0.68094 0.18036 0.0
H424 H 0.03458 0.63253 0.41444 0.0
H425 H 0.05373 0.71827 0.39509 0.0
H426 H 0.01751 0.70446 0.3068 0.0
H427 H 0.98018 0.66785 0.23667 0.0
H428 H 0.96063 0.58199 0.25963 0.0
H429 H 0.99712 0.59611 0.34626 0.0
C430 C 0.03111 0.64829 0.39032 0.0
C431 C 0.04691 0.67639 0.41061 0.0
C432 C 0.00996 0.64014 0.34118 0.0
C433 C 0.04184 0.69649 0.37991 0.0
C434 C 0.02109 0.6886 0.32979 0.0
C435 C 0.98375 0.65219 0.26098 0.0
C436 C 0.96773 0.62393 0.24164 0.0
C437 C 1.00488 0.66043 0.3105 0.0
C438 C 0.97266 0.6039 0.27353 0.0
C439 C 0.9936 0.61194 0.32285 0.0
H440 H 0.31898 0.96662 0.4111 0.0
H441 H 0.38763 0.95063 0.43546 0.0
H442 H 0.40685 0.98517 0.52771 0.0
H443 H 0.4055 0.02142 0.59662 0.0
H444 H 0.33724 0.03793 0.57184 0.0
H445 H 0.31657 1.00159 0.48367 0.0
C446 C 0.33798 0.97043 0.43705 0.0
C447 C 0.35194 0.95621 0.41618 0.0
C448 C 0.34916 0.9906 0.48915 0.0
C449 C 0.37652 0.96138 0.4504 0.0
C450 C 0.3876 0.98119 0.50291 0.0
C451 C 0.38614 0.01717 0.57183 0.0
C452 C 0.37306 0.03252 0.59016 0.0
C453 C 0.37436 0.99626 0.5217 0.0
C454 C 0.34778 0.02647 0.55831 0.0
C455 C 0.33593 1.00569 0.50807 0.0
H456 H 0.4334 0.24616 0.51577 0.0
H457 H 0.34467 0.20256 0.47373 0.0
H458 H 0.338 0.16441 0.54919 0.0
H459 H 0.35679 0.1439 0.62968 0.0
H460 H 0.44546 0.18598 0.67058 0.0
H461 H 0.45264 0.2244 0.59395 0.0
C462 C 0.41268 0.22811 0.52232 0.0
C463 C 0.38958 0.22729 0.48891 0.0
C464 C 0.40888 0.2062 0.56663 0.0
C465 C 0.36285 0.20381 0.49857 0.0
C466 C 0.35895 0.18201 0.54213 0.0
C467 C 0.37769 0.1616 0.62252 0.0
C468 C 0.4005 0.16225 0.65667 0.0
C469 C 0.38171 0.18317 0.5772 0.0
C470 C 0.42749 0.18509 0.64547 0.0
C471 C 0.43162 0.20698 0.60133 0.0
H472 H 0.259 0.42798 0.79545 0.0
H473 H 0.20575 0.34177 0.85613 0.0
H474 H 0.16905 0.33808 0.77997 0.0
H475 H 0.15216 0.35857 0.69456 0.0
H476 H 0.20344 0.44518 0.63633 0.0
H477 H 0.24096 0.44933 0.71214 0.0
C478 C 0.23923 0.40851 0.79267 0.0
C479 C 0.23524 0.38519 0.83166 0.0
C480 C 0.21803 0.40642 0.74823 0.0
C481 C 0.20949 0.36009 0.82701 0.0
C482 C 0.18848 0.35786 0.78304 0.0
C483 C 0.17168 0.3783 0.69764 0.0
C484 C 0.1752 0.4014 0.65888 0.0
C485 C 0.19265 0.38073 0.74279 0.0
C486 C 0.20035 0.42699 0.665 0.0
C487 C 0.22171 0.4294 0.70868 0.0
H488 H 0.83852 0.2544 0.96635 0.0
H489 H 0.87529 0.20353 0.01727 0.0
H490 H 0.84232 0.16666 0.94117 0.0
H491 H 0.80361 0.14895 0.85912 0.0
H492 H 0.76566 0.19873 0.80873 0.0
H493 H 0.79882 0.23608 0.88466 0.0
C494 C 0.83908 0.2351 0.96146 0.0
C495 C 0.85935 0.23176 -0.00216 0.0
C496 C 0.82016 0.21396 0.91676 0.0
C497 C 0.85992 0.2067 -0.00981 0.0
C498 C 0.84115 0.18562 0.94632 0.0
C499 C 0.80274 0.16809 0.86398 0.0
C500 C 0.78234 0.17113 0.8276 0.0
C501 C 0.8214 0.18914 0.90883 0.0
C502 C 0.78129 0.19592 0.83563 0.0
C503 C 0.80014 0.21722 0.87942 0.0
H504 H 0.66303 0.86766 0.14136 0.0
H505 H 0.57401 0.82624 0.17733 0.0
H506 H 0.56715 0.78808 0.10037 0.0
H507 H 0.58676 0.7665 0.02272 0.0
H508 H 0.67585 0.80964 0.98512 0.0
H509 H 0.68222 0.8473 0.06169 0.0
C510 C 0.64212 0.85013 0.13312 0.0
C511 C 0.61911 0.8496 0.16593 0.0
C512 C 0.63829 0.82876 0.08749 0.0
C513 C 0.59212 0.82702 0.15329 0.0
C514 C 0.58818 0.80528 0.10894 0.0
C515 C 0.6075 0.78434 0.03053 0.0
C516 C 0.63077 0.78517 -0.00201 0.0
C517 C 0.61112 0.80601 0.07538 0.0
C518 C 0.65753 0.80838 0.00924 0.0
C519 C 0.66126 0.82991 0.05344 0.0
H520 H 0.76324 0.5874 0.30315 0.0
H521 H 0.81572 0.67278 0.37027 0.0
H522 H 0.85325 0.67751 0.29526 0.0
H523 H 0.87089 0.6582 0.20817 0.0
H524 H 0.8198 0.57255 0.14255 0.0
H525 H 0.78192 0.56727 0.21855 0.0
C526 C 0.78303 0.6069 0.30211 0.0
C527 C 0.78657 0.6297 0.34247 0.0
C528 C 0.80462 0.60962 0.25816 0.0
C529 C 0.81234 0.65487 0.34 0.0
C530 C 0.83382 0.65768 0.29671 0.0
C531 C 0.85136 0.63843 0.20985 0.0
C532 C 0.84802 0.61593 0.1689 0.0
C533 C 0.83004 0.63537 0.25484 0.0
C534 C 0.8228 0.59029 0.17301 0.0
C535 C 0.8012 0.58722 0.21676 0.0
H536 H 0.18355 0.75777 0.46457 0.0
H537 H 0.15456 0.81315 0.53511 0.0
H538 H 0.18791 0.84999 0.45932 0.0
H539 H 0.22412 0.86618 0.37061 0.0
H540 H 0.25463 0.81207 0.30073 0.0
H541 H 0.22158 0.77491 0.37774 0.0
C542 C 0.18486 0.77805 0.46417 0.0
C543 C 0.16654 0.78264 0.50573 0.0
C544 C 0.20396 0.7992 0.41955 0.0
C545 C 0.16837 0.80899 0.5039 0.0
C546 C 0.18733 0.83006 0.46018 0.0
C547 C 0.22338 0.84616 0.37153 0.0
C548 C 0.24155 0.84178 0.32911 0.0
C549 C 0.20489 0.82525 0.41703 0.0
C550 C 0.24067 0.81589 0.33226 0.0
C551 C 0.2219 0.79471 0.37663 0.0
loop_
_geom_bond_atom_site_label_1
_geom_bond_atom_site_label_2
_geom_bond_distance
_geom_bond_site_symmetry_2
_ccdc_geom_bond_type
O0 Cd1 2.223 . S
O0 C8 1.315 . S
Cd1 O0 2.223 . S
Cd1 O4 2.297 . S
Cd1 O5 2.439 . S
Cd1 O11 2.240 . S
Cd2 O3 2.240 . S
Cd2 O10 2.223 . S
Cd2 O12 2.297 . S
Cd2 O13 2.439 . S
O3 Cd2 2.240 . S
O3 C8 1.279 . S
O4 Cd1 2.297 . S
O4 C6 1.247 . S
O5 Cd1 2.439 . S
O5 C6 1.208 . S
C6 O4 1.247 . S
C6 O5 1.208 . S
C7 O12 1.247 . S
C7 O13 1.208 . S
C8 O0 1.315 . S
C8 O3 1.279 . S
C9 O10 1.315 . S
C9 O11 1.279 . S
O10 Cd2 2.223 . S
O10 C9 1.315 . S
O11 Cd1 2.240 . S
O11 C9 1.279 . S
O12 Cd2 2.297 . S
O12 C7 1.247 . S
O13 Cd2 2.439 . S
O13 C7 1.208 . S
O14 Cd15 2.223 . S
O14 C22 1.315 . S
Cd15 O14 2.223 . S
Cd15 O18 2.297 . S
Cd15 O19 2.439 . S
Cd15 O25 2.240 . S
Cd16 O17 2.240 . S
Cd16 O24 2.223 . S
Cd16 O26 2.297 . S
Cd16 O27 2.439 . S
O17 Cd16 2.240 . S
O17 C22 1.279 . S
O18 Cd15 2.297 . S
O18 C20 1.247 . S
O19 Cd15 2.439 . S
O19 C20 1.208 . S
C20 O18 1.247 . S
C20 O19 1.208 . S
C21 O26 1.247 . S
C21 O27 1.208 . S
C22 O14 1.315 . S
C22 O17 1.279 . S
C23 O24 1.315 . S
C23 O25 1.279 . S
O24 Cd16 2.223 . S
O24 C23 1.315 . S
O25 Cd15 2.240 . S
O25 C23 1.279 . S
O26 Cd16 2.297 . S
O26 C21 1.247 . S
O27 Cd16 2.439 . S
O27 C21 1.208 . S
O28 Cd29 2.223 . S
O28 C36 1.315 . S
Cd29 O28 2.223 . S
Cd29 O32 2.297 . S
Cd29 O33 2.439 . S
Cd29 O39 2.240 . S
Cd30 O31 2.240 . S
Cd30 O38 2.223 . S
Cd30 O40 2.297 . S
Cd30 O41 2.439 . S
O31 Cd30 2.240 . S
O31 C36 1.279 . S
O32 Cd29 2.297 . S
O32 C34 1.247 . S
O33 Cd29 2.439 . S
O33 C34 1.208 . S
C34 O32 1.247 . S
C34 O33 1.208 . S
C35 O40 1.247 . S
C35 O41 1.208 . S
C36 O28 1.315 . S
C36 O31 1.279 . S
C37 O38 1.315 . S
C37 O39 1.279 . S
O38 Cd30 2.223 . S
O38 C37 1.315 . S
O39 Cd29 2.240 . S
O39 C37 1.279 . S
O40 Cd30 2.297 . S
O40 C35 1.247 . S
O41 Cd30 2.439 . S
O41 C35 1.208 . S
O42 Cd43 2.223 . S
O42 C50 1.315 1_556 S
Cd43 O42 2.223 . S
Cd43 O46 2.297 . S
Cd43 O47 2.439 . S
Cd43 O53 2.240 . S
Cd44 O45 2.240 1_556 S
Cd44 O52 2.223 . S
Cd44 O54 2.297 . S
Cd44 O55 2.439 . S
O45 Cd44 2.240 1_554 S
O45 C50 1.279 . S
O46 Cd43 2.297 . S
O46 C48 1.247 1_556 S
O47 Cd43 2.439 . S
O47 C48 1.208 1_556 S
C48 O46 1.247 1_554 S
C48 O47 1.208 1_554 S
C49 O54 1.247 . S
C49 O55 1.208 . S
C50 O42 1.315 1_554 S
C50 O45 1.279 . S
C51 O52 1.315 . S
C51 O53 1.279 . S
O52 Cd44 2.223 . S
O52 C51 1.315 . S
O53 Cd43 2.240 . S
O53 C51 1.279 . S
O54 Cd44 2.297 . S
O54 C49 1.247 . S
O55 Cd44 2.439 . S
O55 C49 1.208 . S
O56 Cd57 2.223 . S
O56 C64 1.315 . S
Cd57 O56 2.223 . S
Cd57 O60 2.297 . S
Cd57 O61 2.439 . S
Cd57 O67 2.240 . S
Cd58 O59 2.240 . S
Cd58 O66 2.223 . S
Cd58 O68 2.297 . S
Cd58 O69 2.439 . S
O59 Cd58 2.240 . S
O59 C64 1.279 . S
O60 Cd57 2.297 . S
O60 C62 1.247 . S
O61 Cd57 2.439 . S
O61 C62 1.208 . S
C62 O60 1.247 . S
C62 O61 1.208 . S
C63 O68 1.247 . S
C63 O69 1.208 . S
C64 O56 1.315 . S
C64 O59 1.279 . S
C65 O66 1.315 . S
C65 O67 1.279 . S
O66 Cd58 2.223 . S
O66 C65 1.315 . S
O67 Cd57 2.240 . S
O67 C65 1.279 . S
O68 Cd58 2.297 . S
O68 C63 1.247 . S
O69 Cd58 2.439 . S
O69 C63 1.208 . S
O70 Cd71 2.223 . S
O70 C78 1.315 . S
Cd71 O70 2.223 . S
Cd71 O74 2.297 . S
Cd71 O75 2.439 . S
Cd71 O81 2.240 . S
Cd72 O73 2.240 . S
Cd72 O80 2.223 . S
Cd72 O82 2.297 . S
Cd72 O83 2.439 . S
O73 Cd72 2.240 . S
O73 C78 1.279 . S
O74 Cd71 2.297 . S
O74 C76 1.247 . S
O75 Cd71 2.439 . S
O75 C76 1.208 . S
C76 O74 1.247 . S
C76 O75 1.208 . S
C77 O82 1.247 . S
C77 O83 1.208 . S
C78 O70 1.315 . S
C78 O73 1.279 . S
C79 O80 1.315 . S
C79 O81 1.279 . S
O80 Cd72 2.223 . S
O80 C79 1.315 . S
O81 Cd71 2.240 . S
O81 C79 1.279 . S
O82 Cd72 2.297 . S
O82 C77 1.247 . S
O83 Cd72 2.439 . S
O83 C77 1.208 . S
O84 Cd85 2.223 . S
O84 C92 1.315 . S
Cd85 O84 2.223 . S
Cd85 O88 2.297 . S
Cd85 O89 2.439 . S
Cd85 O95 2.240 . S
Cd86 O87 2.240 . S
Cd86 O94 2.223 . S
Cd86 O96 2.297 . S
Cd86 O97 2.439 . S
O87 Cd86 2.240 . S
O87 C92 1.279 . S
O88 Cd85 2.297 . S
O88 C90 1.247 . S
O89 Cd85 2.439 . S
O89 C90 1.208 . S
C90 O88 1.247 . S
C90 O89 1.208 . S
C91 O96 1.247 . S
C91 O97 1.208 . S
C92 O84 1.315 . S
C92 O87 1.279 . S
C93 O94 1.315 . S
C93 O95 1.279 . S
O94 Cd86 2.223 . S
O94 C93 1.315 . S
O95 Cd85 2.240 . S
O95 C93 1.279 . S
O96 Cd86 2.297 . S
O96 C91 1.247 . S
O97 Cd86 2.439 . S
O97 C91 1.208 . S
O98 Cd99 2.223 . S
O98 C106 1.315 . S
Cd99 O98 2.223 . S
Cd99 O102 2.297 . S
Cd99 O103 2.439 . S
Cd99 O109 2.240 . S
Cd100 O101 2.240 . S
Cd100 O108 2.223 . S
Cd100 O110 2.297 . S
Cd100 O111 2.439 . S
O101 Cd100 2.240 . S
O101 C106 1.279 . S
O102 Cd99 2.297 . S
O102 C104 1.247 . S
O103 Cd99 2.439 . S
O103 C104 1.208 . S
C104 O102 1.247 . S
C104 O103 1.208 . S
C105 O110 1.247 . S
C105 O111 1.208 . S
C106 O98 1.315 . S
C106 O101 1.279 . S
C107 O108 1.315 . S
C107 O109 1.279 . S
O108 Cd100 2.223 . S
O108 C107 1.315 . S
O109 Cd99 2.240 . S
O109 C107 1.279 . S
O110 Cd100 2.297 . S
O110 C105 1.247 . S
O111 Cd100 2.439 . S
O111 C105 1.208 . S
O112 Cd113 2.223 . S
O112 C120 1.315 . S
Cd113 O112 2.223 . S
Cd113 O116 2.297 . S
Cd113 O117 2.439 . S
Cd113 O123 2.240 . S
Cd114 O115 2.240 . S
Cd114 O122 2.223 . S
Cd114 O124 2.297 . S
Cd114 O125 2.439 . S
O115 Cd114 2.240 . S
O115 C120 1.279 . S
O116 Cd113 2.297 . S
O116 C118 1.247 . S
O117 Cd113 2.439 . S
O117 C118 1.208 . S
C118 O116 1.247 . S
C118 O117 1.208 . S
C119 O124 1.247 . S
C119 O125 1.208 . S
C120 O112 1.315 . S
C120 O115 1.279 . S
C121 O122 1.315 . S
C121 O123 1.279 . S
O122 Cd114 2.223 . S
O122 C121 1.315 . S
O123 Cd113 2.240 . S
O123 C121 1.279 . S
O124 Cd114 2.297 . S
O124 C119 1.247 . S
O125 Cd114 2.439 . S
O125 C119 1.208 . S
O126 Cd127 2.223 . S
O126 C134 1.315 . S
Cd127 O126 2.223 . S
Cd127 O130 2.297 . S
Cd127 O131 2.439 . S
Cd127 O137 2.240 1_556 S
Cd128 O129 2.240 . S
Cd128 O136 2.223 . S
Cd128 O138 2.297 . S
Cd128 O139 2.439 . S
O129 Cd128 2.240 . S
O129 C134 1.279 . S
O130 Cd127 2.297 . S
O130 C132 1.247 . S
O131 Cd127 2.439 . S
O131 C132 1.208 . S
C132 O130 1.247 . S
C132 O131 1.208 . S
C133 O138 1.247 . S
C133 O139 1.208 . S
C134 O126 1.315 . S
C134 O129 1.279 . S
C135 O136 1.315 1_554 S
C135 O137 1.279 . S
O136 Cd128 2.223 . S
O136 C135 1.315 1_556 S
O137 Cd127 2.240 1_554 S
O137 C135 1.279 . S
O138 Cd128 2.297 . S
O138 C133 1.247 . S
O139 Cd128 2.439 . S
O139 C133 1.208 . S
O140 Cd141 2.223 . S
O140 C148 1.315 . S
Cd141 O140 2.223 . S
Cd141 O144 2.297 . S
Cd141 O145 2.439 . S
Cd141 O151 2.240 . S
Cd142 O143 2.240 . S
Cd142 O150 2.223 . S
Cd142 O152 2.297 . S
Cd142 O153 2.439 . S
O143 Cd142 2.240 . S
O143 C148 1.279 . S
O144 Cd141 2.297 . S
O144 C146 1.247 . S
O145 Cd141 2.439 . S
O145 C146 1.208 . S
C146 O144 1.247 . S
C146 O145 1.208 . S
C147 O152 1.247 . S
C147 O153 1.208 . S
C148 O140 1.315 . S
C148 O143 1.279 . S
C149 O150 1.315 . S
C149 O151 1.279 . S
O150 Cd142 2.223 . S
O150 C149 1.315 . S
O151 Cd141 2.240 . S
O151 C149 1.279 . S
O152 Cd142 2.297 . S
O152 C147 1.247 . S
O153 Cd142 2.439 . S
O153 C147 1.208 . S
O154 Cd155 2.223 . S
O154 C162 1.315 . S
Cd155 O154 2.223 . S
Cd155 O158 2.297 . S
Cd155 O159 2.439 . S
Cd155 O165 2.240 . S
Cd156 O157 2.240 . S
Cd156 O164 2.223 . S
Cd156 O166 2.297 . S
Cd156 O167 2.439 . S
O157 Cd156 2.240 . S
O157 C162 1.279 . S
O158 Cd155 2.297 . S
O158 C160 1.247 . S
O159 Cd155 2.439 . S
O159 C160 1.208 . S
C160 O158 1.247 . S
C160 O159 1.208 . S
C161 O166 1.247 . S
C161 O167 1.208 . S
C162 O154 1.315 . S
C162 O157 1.279 . S
C163 O164 1.315 . S
C163 O165 1.279 . S
O164 Cd156 2.223 . S
O164 C163 1.315 . S
O165 Cd155 2.240 . S
O165 C163 1.279 . S
O166 Cd156 2.297 . S
O166 C161 1.247 . S
O167 Cd156 2.439 . S
O167 C161 1.208 . S
H168 C174 0.930 . S
H169 C177 0.930 . S
H170 C178 0.930 . S
H171 C179 0.930 . S
H172 C182 0.930 . S
H173 C183 0.930 . S
C174 H168 0.930 . S
C174 C175 1.355 . S
C174 C176 1.415 . S
C175 C174 1.355 . S
C175 C177 1.419 . S
C176 C174 1.415 . S
C176 C181 1.425 . S
C176 C183 1.409 . S
C177 H169 0.930 . S
C177 C175 1.419 . S
C177 C178 1.362 . S
C178 H170 0.930 . S
C178 C177 1.362 . S
C178 C181 1.409 . S
C179 H171 0.930 . S
C179 C180 1.355 . S
C179 C181 1.415 . S
C180 C179 1.355 . S
C180 C182 1.419 . S
C181 C176 1.425 . S
C181 C178 1.409 . S
C181 C179 1.415 . S
C182 H172 0.930 . S
C182 C180 1.419 . S
C182 C183 1.362 . S
C183 H173 0.930 . S
C183 C176 1.409 . S
C183 C182 1.362 . S
H184 C190 0.930 . S
H185 C193 0.930 . S
H186 C194 0.930 . S
H187 C195 0.930 . S
H188 C198 0.930 . S
H189 C199 0.930 . S
C190 H184 0.930 . S
C190 C191 1.355 . S
C190 C192 1.409 1_455 S
C191 C190 1.355 . S
C191 C193 1.419 . S
C192 C190 1.409 1_655 S
C192 C197 1.413 1_655 S
C192 C199 1.420 . S
C193 H185 0.930 . S
C193 C191 1.419 . S
C193 C194 1.362 . S
C194 H186 0.930 . S
C194 C193 1.362 . S
C194 C197 1.420 . S
C195 H187 0.930 . S
C195 C196 1.355 . S
C195 C197 1.409 1_655 S
C196 C195 1.355 . S
C196 C198 1.419 . S
C197 C192 1.413 1_455 S
C197 C194 1.420 . S
C197 C195 1.409 1_455 S
C198 H188 0.930 . S
C198 C196 1.419 . S
C198 C199 1.362 . S
C199 H189 0.930 . S
C199 C192 1.420 . S
C199 C198 1.362 . S
H200 C206 0.930 . S
H201 C209 0.930 . S
H202 C210 0.930 . S
H203 C211 0.930 . S
H204 C214 0.930 . S
H205 C215 0.930 . S
C206 H200 0.930 . S
C206 C207 1.355 . S
C206 C208 1.415 . S
C207 C206 1.355 . S
C207 C209 1.419 . S
C208 C206 1.415 . S
C208 C213 1.425 1_565 S
C208 C215 1.409 . S
C209 H201 0.930 . S
C209 C207 1.419 . S
C209 C210 1.362 1_565 S
C210 H202 0.930 . S
C210 C209 1.362 1_545 S
C210 C213 1.409 . S
C211 H203 0.930 . S
C211 C212 1.355 . S
C211 C213 1.415 . S
C212 C211 1.355 . S
C212 C214 1.419 . S
C213 C208 1.425 1_545 S
C213 C210 1.409 . S
C213 C211 1.415 . S
C214 H204 0.930 . S
C214 C212 1.419 . S
C214 C215 1.362 1_545 S
C215 H205 0.930 . S
C215 C208 1.409 . S
C215 C214 1.362 1_565 S
H216 C222 0.930 . S
H217 C225 0.930 . S
H218 C226 0.930 . S
H219 C227 0.930 . S
H220 C230 0.930 . S
H221 C231 0.930 . S
C222 H216 0.930 . S
C222 C223 1.355 . S
C222 C224 1.415 . S
C223 C222 1.355 . S
C223 C225 1.419 . S
C224 C222 1.415 . S
C224 C229 1.425 . S
C224 C231 1.409 . S
C225 H217 0.930 . S
C225 C223 1.419 . S
C225 C226 1.362 . S
C226 H218 0.930 . S
C226 C225 1.362 . S
C226 C229 1.409 . S
C227 H219 0.930 . S
C227 C228 1.355 . S
C227 C229 1.415 . S
C228 C227 1.355 . S
C228 C230 1.419 . S
C229 C224 1.425 . S
C229 C226 1.409 . S
C229 C227 1.415 . S
C230 H220 0.930 . S
C230 C228 1.419 . S
C230 C231 1.362 . S
C231 H221 0.930 . S
C231 C224 1.409 . S
C231 C230 1.362 . S
H232 C238 0.930 . S
H233 C241 0.930 . S
H234 C242 0.930 . S
H235 C243 0.930 . S
H236 C246 0.930 1_554 S
H237 C247 0.930 . S
C238 H232 0.930 . S
C238 C239 1.355 . S
C238 C240 1.415 . S
C239 C238 1.355 . S
C239 C241 1.419 . S
C240 C238 1.415 . S
C240 C245 1.425 1_455 S
C240 C247 1.409 . S
C241 H233 0.930 . S
C241 C239 1.419 . S
C241 C242 1.362 1_455 S
C242 H234 0.930 . S
C242 C241 1.362 1_655 S
C242 C245 1.409 . S
C243 H235 0.930 . S
C243 C244 1.355 . S
C243 C245 1.415 . S
C244 C243 1.355 . S
C244 C246 1.419 . S
C245 C240 1.425 1_655 S
C245 C242 1.409 . S
C245 C243 1.415 . S
C246 H236 0.930 1_556 S
C246 C244 1.419 . S
C246 C247 1.362 1_655 S
C247 H237 0.930 . S
C247 C240 1.409 . S
C247 C246 1.362 1_455 S
H248 C254 0.930 . S
H249 C257 0.930 . S
H250 C258 0.930 . S
H251 C259 0.930 . S
H252 C262 0.930 . S
H253 C263 0.930 . S
C254 H248 0.930 . S
C254 C255 1.355 . S
C254 C256 1.415 1_556 S
C255 C254 1.355 . S
C255 C257 1.419 . S
C256 C254 1.415 1_554 S
C256 C261 1.425 1_544 S
C256 C263 1.409 . S
C257 H249 0.930 . S
C257 C255 1.419 . S
C257 C258 1.362 1_545 S
C258 H250 0.930 . S
C258 C257 1.362 1_565 S
C258 C261 1.409 . S
C259 H251 0.930 . S
C259 C260 1.355 . S
C259 C261 1.415 1_554 S
C260 C259 1.355 . S
C260 C262 1.419 . S
C261 C256 1.425 1_566 S
C261 C258 1.409 . S
C261 C259 1.415 1_556 S
C262 H252 0.930 . S
C262 C260 1.419 . S
C262 C263 1.362 1_565 S
C263 H253 0.930 . S
C263 C256 1.409 . S
C263 C262 1.362 1_545 S
H264 C270 0.930 . S
H265 C273 0.930 . S
H266 C274 0.930 . S
H267 C275 0.930 . S
H268 C278 0.930 . S
H269 C279 0.930 . S
C270 H264 0.930 . S
C270 C271 1.355 . S
C270 C272 1.415 . S
C271 C270 1.355 . S
C271 C273 1.419 . S
C272 C270 1.415 . S
C272 C277 1.425 . S
C272 C279 1.409 . S
C273 H265 0.930 . S
C273 C271 1.419 . S
C273 C274 1.362 . S
C274 H266 0.930 . S
C274 C273 1.362 . S
C274 C277 1.409 . S
C275 H267 0.930 . S
C275 C276 1.355 . S
C275 C277 1.415 . S
C276 C275 1.355 . S
C276 C278 1.419 . S
C277 C272 1.425 . S
C277 C274 1.409 . S
C277 C275 1.415 . S
C278 H268 0.930 . S
C278 C276 1.419 . S
C278 C279 1.362 . S
C279 H269 0.930 . S
C279 C272 1.409 . S
C279 C278 1.362 . S
H280 C286 0.930 . S
H281 C289 0.930 . S
H282 C290 0.930 . S
H283 C291 0.930 . S
H284 C294 0.930 . S
H285 C295 0.930 . S
C286 H280 0.930 . S
C286 C287 1.355 . S
C286 C288 1.415 . S
C287 C286 1.355 . S
C287 C289 1.419 . S
C288 C286 1.415 . S
C288 C293 1.425 . S
C288 C295 1.409 . S
C289 H281 0.930 . S
C289 C287 1.419 . S
C289 C290 1.362 . S
C290 H282 0.930 . S
C290 C289 1.362 . S
C290 C293 1.409 . S
C291 H283 0.930 . S
C291 C292 1.355 . S
C291 C293 1.415 . S
C292 C291 1.355 . S
C292 C294 1.419 . S
C293 C288 1.425 . S
C293 C290 1.409 . S
C293 C291 1.415 . S
C294 H284 0.930 . S
C294 C292 1.419 . S
C294 C295 1.362 . S
C295 H285 0.930 . S
C295 C288 1.409 . S
C295 C294 1.362 . S
H296 C302 0.930 . S
H297 C305 0.930 . S
H298 C306 0.930 . S
H299 C307 0.930 . S
H300 C310 0.930 . S
H301 C311 0.930 . S
C302 H296 0.930 . S
C302 C303 1.355 . S
C302 C304 1.415 . S
C303 C302 1.355 . S
C303 C305 1.419 . S
C304 C302 1.415 . S
C304 C309 1.425 . S
C304 C311 1.409 . S
C305 H297 0.930 . S
C305 C303 1.419 . S
C305 C306 1.362 . S
C306 H298 0.930 . S
C306 C305 1.362 . S
C306 C309 1.409 . S
C307 H299 0.930 . S
C307 C308 1.355 . S
C307 C309 1.415 . S
C308 C307 1.355 . S
C308 C310 1.419 . S
C309 C304 1.425 . S
C309 C306 1.409 . S
C309 C307 1.415 . S
C310 H300 0.930 . S
C310 C308 1.419 . S
C310 C311 1.362 . S
C311 H301 0.930 . S
C311 C304 1.409 . S
C311 C310 1.362 . S
H312 C318 0.930 . S
H313 C321 0.930 . S
H314 C322 0.930 . S
H315 C323 0.930 . S
H316 C326 0.930 . S
H317 C327 0.930 . S
C318 H312 0.930 . S
C318 C319 1.355 . S
C318 C320 1.415 . S
C319 C318 1.355 . S
C319 C321 1.419 . S
C320 C318 1.415 . S
C320 C325 1.425 . S
C320 C327 1.409 . S
C321 H313 0.930 . S
C321 C319 1.419 . S
C321 C322 1.362 . S
C322 H314 0.930 . S
C322 C321 1.362 . S
C322 C325 1.409 . S
C323 H315 0.930 . S
C323 C324 1.355 . S
C323 C325 1.415 . S
C324 C323 1.355 . S
C324 C326 1.419 . S
C325 C320 1.425 . S
C325 C322 1.409 . S
C325 C323 1.415 . S
C326 H316 0.930 . S
C326 C324 1.419 . S
C326 C327 1.362 . S
C327 H317 0.930 . S
C327 C320 1.409 . S
C327 C326 1.362 . S
H328 C334 0.930 . S
H329 C337 0.930 . S
H330 C338 0.930 . S
H331 C339 0.930 . S
H332 C342 0.930 . S
H333 C343 0.930 . S
C334 H328 0.930 . S
C334 C335 1.355 . S
C334 C336 1.415 . S
C335 C334 1.355 . S
C335 C337 1.419 . S
C336 C334 1.415 . S
C336 C341 1.425 . S
C336 C343 1.409 . S
C337 H329 0.930 . S
C337 C335 1.419 . S
C337 C338 1.362 . S
C338 H330 0.930 . S
C338 C337 1.362 . S
C338 C341 1.409 . S
C339 H331 0.930 . S
C339 C340 1.355 . S
C339 C341 1.415 . S
C340 C339 1.355 . S
C340 C342 1.419 . S
C341 C336 1.425 . S
C341 C338 1.409 . S
C341 C339 1.415 . S
C342 H332 0.930 . S
C342 C340 1.419 . S
C342 C343 1.362 . S
C343 H333 0.930 . S
C343 C336 1.409 . S
C343 C342 1.362 . S
H344 C350 0.930 . S
H345 C353 0.930 . S
H346 C354 0.930 . S
H347 C355 0.930 . S
H348 C358 0.930 . S
H349 C359 0.930 . S
C350 H344 0.930 . S
C350 C351 1.355 . S
C350 C352 1.415 . S
C351 C350 1.355 . S
C351 C353 1.419 . S
C352 C350 1.415 . S
C352 C357 1.425 . S
C352 C359 1.409 . S
C353 H345 0.930 . S
C353 C351 1.419 . S
C353 C354 1.362 . S
C354 H346 0.930 . S
C354 C353 1.362 . S
C354 C357 1.409 . S
C355 H347 0.930 . S
C355 C356 1.355 . S
C355 C357 1.415 . S
C356 C355 1.355 . S
C356 C358 1.419 . S
C357 C352 1.425 . S
C357 C354 1.409 . S
C357 C355 1.415 . S
C358 H348 0.930 . S
C358 C356 1.419 . S
C358 C359 1.362 . S
C359 H349 0.930 . S
C359 C352 1.409 . S
C359 C358 1.362 . S
H360 C366 0.930 . S
H361 C369 0.930 . S
H362 C370 0.930 . S
H363 C371 0.930 . S
H364 C374 0.930 . S
H365 C375 0.930 . S
C366 H360 0.930 . S
C366 C367 1.355 . S
C366 C368 1.415 . S
C367 C366 1.355 . S
C367 C369 1.419 . S
C368 C366 1.415 . S
C368 C373 1.425 . S
C368 C375 1.409 . S
C369 H361 0.930 . S
C369 C367 1.419 . S
C369 C370 1.362 . S
C370 H362 0.930 . S
C370 C369 1.362 . S
C370 C373 1.409 . S
C371 H363 0.930 . S
C371 C372 1.355 . S
C371 C373 1.415 . S
C372 C371 1.355 . S
C372 C374 1.419 . S
C373 C368 1.425 . S
C373 C370 1.409 . S
C373 C371 1.415 . S
C374 H364 0.930 . S
C374 C372 1.419 . S
C374 C375 1.362 . S
C375 H365 0.930 . S
C375 C368 1.409 . S
C375 C374 1.362 . S
H376 C382 0.920 1_455 S
H377 C385 0.930 . S
H378 C386 0.930 . S
H379 C387 0.920 1_655 S
H380 C390 0.930 . S
H381 C391 0.930 . S
C382 H376 0.920 1_655 S
C382 C383 1.355 . S
C382 C384 1.415 1_655 S
C383 C382 1.355 . S
C383 C385 1.419 . S
C384 C382 1.415 1_455 S
C384 C389 1.425 1_455 S
C384 C391 1.409 . S
C385 H377 0.930 . S
C385 C383 1.419 . S
C385 C386 1.362 . S
C386 H378 0.930 . S
C386 C385 1.362 . S
C386 C389 1.409 . S
C387 H379 0.920 1_455 S
C387 C388 1.355 . S
C387 C389 1.415 1_455 S
C388 C387 1.355 . S
C388 C390 1.419 . S
C389 C384 1.425 1_655 S
C389 C386 1.409 . S
C389 C387 1.415 1_655 S
C390 H380 0.930 . S
C390 C388 1.419 . S
C390 C391 1.362 . S
C391 H381 0.930 . S
C391 C384 1.409 . S
C391 C390 1.362 . S
H392 C398 0.930 . S
H393 C401 0.930 . S
H394 C402 0.930 1_545 S
H395 C403 0.930 . S
H396 C406 0.930 . S
H397 C407 0.930 1_565 S
C398 H392 0.930 . S
C398 C399 1.355 . S
C398 C400 1.415 . S
C399 C398 1.355 . S
C399 C401 1.419 . S
C400 C398 1.415 . S
C400 C405 1.425 1_565 S
C400 C407 1.409 1_564 S
C401 H393 0.930 . S
C401 C399 1.419 . S
C401 C402 1.362 . S
C402 H394 0.930 1_565 S
C402 C401 1.362 . S
C402 C405 1.409 1_565 S
C403 H395 0.930 . S
C403 C404 1.355 . S
C403 C405 1.415 1_556 S
C404 C403 1.355 . S
C404 C406 1.419 . S
C405 C400 1.425 1_545 S
C405 C402 1.409 1_545 S
C405 C403 1.415 1_554 S
C406 H396 0.930 . S
C406 C404 1.419 . S
C406 C407 1.362 . S
C407 H397 0.930 1_545 S
C407 C400 1.409 1_546 S
C407 C406 1.362 . S
H408 C414 0.930 . S
H409 C417 0.930 . S
H410 C418 0.930 . S
H411 C419 0.930 . S
H412 C422 0.930 . S
H413 C423 0.930 . S
C414 H408 0.930 . S
C414 C415 1.355 . S
C414 C416 1.415 . S
C415 C414 1.355 . S
C415 C417 1.419 . S
C416 C414 1.415 . S
C416 C421 1.425 . S
C416 C423 1.409 . S
C417 H409 0.930 . S
C417 C415 1.419 . S
C417 C418 1.362 . S
C418 H410 0.930 . S
C418 C417 1.362 . S
C418 C421 1.409 . S
C419 H411 0.930 . S
C419 C420 1.355 . S
C419 C421 1.415 . S
C420 C419 1.355 . S
C420 C422 1.419 . S
C421 C416 1.425 . S
C421 C418 1.409 . S
C421 C419 1.415 . S
C422 H412 0.930 . S
C422 C420 1.419 . S
C422 C423 1.362 . S
C423 H413 0.930 . S
C423 C416 1.409 . S
C423 C422 1.362 . S
H424 C430 0.930 . S
H425 C433 0.930 . S
H426 C434 0.930 . S
H427 C435 0.930 . S
H428 C438 0.930 . S
H429 C439 0.930 . S
C430 H424 0.930 . S
C430 C431 1.355 . S
C430 C432 1.415 1_455 S
C431 C430 1.355 . S
C431 C433 1.419 . S
C432 C430 1.415 1_655 S
C432 C437 1.425 1_655 S
C432 C439 1.409 . S
C433 H425 0.930 . S
C433 C431 1.419 . S
C433 C434 1.362 . S
C434 H426 0.930 . S
C434 C433 1.362 . S
C434 C437 1.409 . S
C435 H427 0.930 . S
C435 C436 1.355 . S
C435 C437 1.415 1_655 S
C436 C435 1.355 . S
C436 C438 1.419 . S
C437 C432 1.425 1_455 S
C437 C434 1.409 . S
C437 C435 1.415 1_455 S
C438 H428 0.930 . S
C438 C436 1.419 . S
C438 C439 1.362 . S
C439 H429 0.930 . S
C439 C432 1.409 . S
C439 C438 1.362 . S
H440 C446 0.930 . S
H441 C449 0.930 . S
H442 C450 0.930 . S
H443 C451 0.930 . S
H444 C454 0.930 . S
H445 C455 0.930 . S
C446 H440 0.930 . S
C446 C447 1.355 . S
C446 C448 1.415 1_565 S
C447 C446 1.355 . S
C447 C449 1.419 . S
C448 C446 1.415 1_545 S
C448 C453 1.426 1_545 S
C448 C455 1.408 . S
C449 H441 0.930 . S
C449 C447 1.419 . S
C449 C450 1.362 . S
C450 H442 0.930 . S
C450 C449 1.362 . S
C450 C453 1.408 . S
C451 H443 0.930 . S
C451 C452 1.355 . S
C451 C453 1.415 1_545 S
C452 C451 1.355 . S
C452 C454 1.419 . S
C453 C448 1.426 1_565 S
C453 C450 1.408 . S
C453 C451 1.415 1_565 S
C454 H444 0.930 . S
C454 C452 1.419 . S
C454 C455 1.362 . S
C455 H445 0.930 . S
C455 C448 1.408 . S
C455 C454 1.362 . S
H456 C462 0.930 . S
H457 C465 0.930 . S
H458 C466 0.930 . S
H459 C467 0.930 . S
H460 C470 0.930 . S
H461 C471 0.930 . S
C462 H456 0.930 . S
C462 C463 1.355 . S
C462 C464 1.415 . S
C463 C462 1.355 . S
C463 C465 1.419 . S
C464 C462 1.415 . S
C464 C469 1.425 . S
C464 C471 1.409 . S
C465 H457 0.930 . S
C465 C463 1.419 . S
C465 C466 1.362 . S
C466 H458 0.930 . S
C466 C465 1.362 . S
C466 C469 1.409 . S
C467 H459 0.930 . S
C467 C468 1.355 . S
C467 C469 1.415 . S
C468 C467 1.355 . S
C468 C470 1.419 . S
C469 C464 1.425 . S
C469 C466 1.409 . S
C469 C467 1.415 . S
C470 H460 0.930 . S
C470 C468 1.419 . S
C470 C471 1.362 . S
C471 H461 0.930 . S
C471 C464 1.409 . S
C471 C470 1.362 . S
H472 C478 0.930 . S
H473 C481 0.930 . S
H474 C482 0.930 . S
H475 C483 0.930 . S
H476 C486 0.930 . S
H477 C487 0.930 . S
C478 H472 0.930 . S
C478 C479 1.355 . S
C478 C480 1.415 . S
C479 C478 1.355 . S
C479 C481 1.419 . S
C480 C478 1.415 . S
C480 C485 1.425 . S
C480 C487 1.409 . S
C481 H473 0.930 . S
C481 C479 1.419 . S
C481 C482 1.362 . S
C482 H474 0.930 . S
C482 C481 1.362 . S
C482 C485 1.409 . S
C483 H475 0.930 . S
C483 C484 1.355 . S
C483 C485 1.415 . S
C484 C483 1.355 . S
C484 C486 1.419 . S
C485 C480 1.425 . S
C485 C482 1.409 . S
C485 C483 1.415 . S
C486 H476 0.930 . S
C486 C484 1.419 . S
C486 C487 1.362 . S
C487 H477 0.930 . S
C487 C480 1.409 . S
C487 C486 1.362 . S
H488 C494 0.930 . S
H489 C497 0.930 . S
H490 C498 0.930 . S
H491 C499 0.930 . S
H492 C502 0.930 . S
H493 C503 0.930 . S
C494 H488 0.930 . S
C494 C495 1.355 . S
C494 C496 1.415 . S
C495 C494 1.355 . S
C495 C497 1.419 1_556 S
C496 C494 1.415 . S
C496 C501 1.425 . S
C496 C503 1.409 . S
C497 H489 0.930 . S
C497 C495 1.419 1_554 S
C497 C498 1.362 1_554 S
C498 H490 0.930 . S
C498 C497 1.362 1_556 S
C498 C501 1.409 . S
C499 H491 0.930 . S
C499 C500 1.355 . S
C499 C501 1.415 . S
C500 C499 1.355 . S
C500 C502 1.419 . S
C501 C496 1.425 . S
C501 C498 1.409 . S
C501 C499 1.415 . S
C502 H492 0.930 . S
C502 C500 1.419 . S
C502 C503 1.362 . S
C503 H493 0.930 . S
C503 C496 1.409 . S
C503 C502 1.362 . S
H504 C510 0.930 . S
H505 C513 0.930 . S
H506 C514 0.930 . S
H507 C515 0.930 . S
H508 C518 0.930 . S
H509 C519 0.930 . S
C510 H504 0.930 . S
C510 C511 1.355 . S
C510 C512 1.415 . S
C511 C510 1.355 . S
C511 C513 1.419 . S
C512 C510 1.415 . S
C512 C517 1.425 . S
C512 C519 1.409 . S
C513 H505 0.930 . S
C513 C511 1.419 . S
C513 C514 1.362 . S
C514 H506 0.930 . S
C514 C513 1.362 . S
C514 C517 1.409 . S
C515 H507 0.930 . S
C515 C516 1.355 . S
C515 C517 1.415 . S
C516 C515 1.355 . S
C516 C518 1.419 . S
C517 C512 1.425 . S
C517 C514 1.409 . S
C517 C515 1.415 . S
C518 H508 0.930 . S
C518 C516 1.419 . S
C518 C519 1.362 . S
C519 H509 0.930 . S
C519 C512 1.409 . S
C519 C518 1.362 . S
H520 C526 0.930 . S
H521 C529 0.930 . S
H522 C530 0.930 . S
H523 C531 0.930 . S
H524 C534 0.930 . S
H525 C535 0.930 . S
C526 H520 0.930 . S
C526 C527 1.355 . S
C526 C528 1.415 . S
C527 C526 1.355 . S
C527 C529 1.419 . S
C528 C526 1.415 . S
C528 C533 1.425 . S
C528 C535 1.409 . S
C529 H521 0.930 . S
C529 C527 1.419 . S
C529 C530 1.362 . S
C530 H522 0.930 . S
C530 C529 1.362 . S
C530 C533 1.409 . S
C531 H523 0.930 . S
C531 C532 1.355 . S
C531 C533 1.415 . S
C532 C531 1.355 . S
C532 C534 1.419 . S
C533 C528 1.425 . S
C533 C530 1.409 . S
C533 C531 1.415 . S
C534 H524 0.930 . S
C534 C532 1.419 . S
C534 C535 1.362 . S
C535 H525 0.930 . S
C535 C528 1.409 . S
C535 C534 1.362 . S
H536 C542 0.930 . S
H537 C545 0.930 . S
H538 C546 0.930 . S
H539 C547 0.930 . S
H540 C550 0.930 . S
H541 C551 0.930 . S
C542 H536 0.930 . S
C542 C543 1.355 . S
C542 C544 1.415 . S
C543 C542 1.355 . S
C543 C545 1.419 . S
C544 C542 1.415 . S
C544 C549 1.425 . S
C544 C551 1.409 . S
C545 H537 0.930 . S
C545 C543 1.419 . S
C545 C546 1.362 . S
C546 H538 0.930 . S
C546 C545 1.362 . S
C546 C549 1.409 . S
C547 H539 0.930 . S
C547 C548 1.355 . S
C547 C549 1.415 . S
C548 C547 1.355 . S
C548 C550 1.419 . S
C549 C544 1.425 . S
C549 C546 1.409 . S
C549 C547 1.415 . S
C550 H540 0.930 . S
C550 C548 1.419 . S
C550 C551 1.362 . S
C551 H541 0.930 . S
C551 C544 1.409 . S
C551 C550 1.362 . S
C175 C135 1.553 . S
C180 C9 1.607 . S
C191 C23 1.611 . S
C196 C149 1.554 . S
C207 C163 1.571 . S
C212 C37 1.580 . S
C223 C93 1.561 . S
C228 C51 1.611 . S
C239 C107 1.565 . S
C244 C65 1.588 1_556 S
C255 C121 1.563 . S
C260 C79 1.590 . S
C271 C91 1.665 . S
C276 C7 1.623 . S
C287 C21 1.711 . S
C292 C105 1.645 . S
C303 C119 1.635 . S
C308 C35 1.639 . S
C319 C49 1.703 . S
C324 C133 1.635 . S
C335 C147 1.696 . S
C340 C63 1.629 . S
C351 C77 1.682 . S
C356 C161 1.716 . S
C367 C134 1.576 . S
C372 C8 1.576 . S
C383 C148 1.575 1_556 S
C388 C22 1.582 . S
C399 C162 1.593 . S
C404 C36 1.582 . S
C415 C50 1.588 . S
C420 C92 1.597 . S
C431 C106 1.580 . S
C436 C64 1.575 . S
C447 C78 1.583 . S
C452 C120 1.593 . S
C463 C6 1.178 . S
C468 C118 1.225 . S
C479 C132 1.192 . S
C484 C20 1.221 . S
C495 C146 1.178 1_556 S
C500 C34 1.212 . S
C511 C160 1.226 . S
C516 C48 1.181 . S
C527 C90 1.195 . S
C532 C62 1.219 . S
C543 C104 1.176 . S
C548 C76 1.225 . S
